# Generated by pormake.
# Topology ocu, (6,8)-cn, num edge types: 1
# Building blocks:
#     Node 0, Type 0, BuildingBlock: KUMBOL_clean_sbu_1, # of connection points: 6
#     Node 1, Type 0, BuildingBlock: KUMBOL_clean_sbu_1, # of connection points: 6
#     Node 2, Type 0, BuildingBlock: KUMBOL_clean_sbu_1, # of connection points: 6
#     Node 3, Type 0, BuildingBlock: KUMBOL_clean_sbu_1, # of connection points: 6
#     Node 4, Type 0, BuildingBlock: KUMBOL_clean_sbu_1, # of connection points: 6
#     Node 5, Type 0, BuildingBlock: KUMBOL_clean_sbu_1, # of connection points: 6
#     Node 6, Type 0, BuildingBlock: KUMBOL_clean_sbu_1, # of connection points: 6
#     Node 7, Type 0, BuildingBlock: KUMBOL_clean_sbu_1, # of connection points: 6
#     Node 8, Type 1, BuildingBlock: VETTIZ_charged_sbu_0, # of connection points: 8
#     Node 9, Type 1, BuildingBlock: VETTIZ_charged_sbu_0, # of connection points: 8
#     Node 10, Type 1, BuildingBlock: VETTIZ_charged_sbu_0, # of connection points: 8
#     Node 11, Type 1, BuildingBlock: VETTIZ_charged_sbu_0, # of connection points: 8
#     Node 12, Type 1, BuildingBlock: VETTIZ_charged_sbu_0, # of connection points: 8
#     Node 13, Type 1, BuildingBlock: VETTIZ_charged_sbu_0, # of connection points: 8
#     Edge 14, Type (0, 1), BuildingBlock: XUDNAN_clean_linker_2, # of connection points: 2
#     Edge 15, Type (0, 1), BuildingBlock: XUDNAN_clean_linker_2, # of connection points: 2
#     Edge 16, Type (0, 1), BuildingBlock: XUDNAN_clean_linker_2, # of connection points: 2
#     Edge 17, Type (0, 1), BuildingBlock: XUDNAN_clean_linker_2, # of connection points: 2
#     Edge 18, Type (0, 1), BuildingBlock: XUDNAN_clean_linker_2, # of connection points: 2
#     Edge 19, Type (0, 1), BuildingBlock: XUDNAN_clean_linker_2, # of connection points: 2
#     Edge 20, Type (0, 1), BuildingBlock: XUDNAN_clean_linker_2, # of connection points: 2
#     Edge 21, Type (0, 1), BuildingBlock: XUDNAN_clean_linker_2, # of connection points: 2
#     Edge 22, Type (0, 1), BuildingBlock: XUDNAN_clean_linker_2, # of connection points: 2
#     Edge 23, Type (0, 1), BuildingBlock: XUDNAN_clean_linker_2, # of connection points: 2
#     Edge 24, Type (0, 1), BuildingBlock: XUDNAN_clean_linker_2, # of connection points: 2
#     Edge 25, Type (0, 1), BuildingBlock: XUDNAN_clean_linker_2, # of connection points: 2
#     Edge 26, Type (0, 1), BuildingBlock: XUDNAN_clean_linker_2, # of connection points: 2
#     Edge 27, Type (0, 1), BuildingBlock: XUDNAN_clean_linker_2, # of connection points: 2
#     Edge 28, Type (0, 1), BuildingBlock: XUDNAN_clean_linker_2, # of connection points: 2
#     Edge 29, Type (0, 1), BuildingBlock: XUDNAN_clean_linker_2, # of connection points: 2
#     Edge 30, Type (0, 1), BuildingBlock: XUDNAN_clean_linker_2, # of connection points: 2
#     Edge 31, Type (0, 1), BuildingBlock: XUDNAN_clean_linker_2, # of connection points: 2
#     Edge 32, Type (0, 1), BuildingBlock: XUDNAN_clean_linker_2, # of connection points: 2
#     Edge 33, Type (0, 1), BuildingBlock: XUDNAN_clean_linker_2, # of connection points: 2
#     Edge 34, Type (0, 1), BuildingBlock: XUDNAN_clean_linker_2, # of connection points: 2
#     Edge 35, Type (0, 1), BuildingBlock: XUDNAN_clean_linker_2, # of connection points: 2
#     Edge 36, Type (0, 1), BuildingBlock: XUDNAN_clean_linker_2, # of connection points: 2
#     Edge 37, Type (0, 1), BuildingBlock: XUDNAN_clean_linker_2, # of connection points: 2
#     Edge 38, Type (0, 1), BuildingBlock: XUDNAN_clean_linker_2, # of connection points: 2
#     Edge 39, Type (0, 1), BuildingBlock: XUDNAN_clean_linker_2, # of connection points: 2
#     Edge 40, Type (0, 1), BuildingBlock: XUDNAN_clean_linker_2, # of connection points: 2
#     Edge 41, Type (0, 1), BuildingBlock: XUDNAN_clean_linker_2, # of connection points: 2
#     Edge 42, Type (0, 1), BuildingBlock: XUDNAN_clean_linker_2, # of connection points: 2
#     Edge 43, Type (0, 1), BuildingBlock: XUDNAN_clean_linker_2, # of connection points: 2
#     Edge 44, Type (0, 1), BuildingBlock: XUDNAN_clean_linker_2, # of connection points: 2
#     Edge 45, Type (0, 1), BuildingBlock: XUDNAN_clean_linker_2, # of connection points: 2
#     Edge 46, Type (0, 1), BuildingBlock: XUDNAN_clean_linker_2, # of connection points: 2
#     Edge 47, Type (0, 1), BuildingBlock: XUDNAN_clean_linker_2, # of connection points: 2
#     Edge 48, Type (0, 1), BuildingBlock: XUDNAN_clean_linker_2, # of connection points: 2
#     Edge 49, Type (0, 1), BuildingBlock: XUDNAN_clean_linker_2, # of connection points: 2
#     Edge 50, Type (0, 1), BuildingBlock: XUDNAN_clean_linker_2, # of connection points: 2
#     Edge 51, Type (0, 1), BuildingBlock: XUDNAN_clean_linker_2, # of connection points: 2
#     Edge 52, Type (0, 1), BuildingBlock: XUDNAN_clean_linker_2, # of connection points: 2
#     Edge 53, Type (0, 1), BuildingBlock: XUDNAN_clean_linker_2, # of connection points: 2
#     Edge 54, Type (0, 1), BuildingBlock: XUDNAN_clean_linker_2, # of connection points: 2
#     Edge 55, Type (0, 1), BuildingBlock: XUDNAN_clean_linker_2, # of connection points: 2
#     Edge 56, Type (0, 1), BuildingBlock: XUDNAN_clean_linker_2, # of connection points: 2
#     Edge 57, Type (0, 1), BuildingBlock: XUDNAN_clean_linker_2, # of connection points: 2
#     Edge 58, Type (0, 1), BuildingBlock: XUDNAN_clean_linker_2, # of connection points: 2
#     Edge 59, Type (0, 1), BuildingBlock: XUDNAN_clean_linker_2, # of connection points: 2
#     Edge 60, Type (0, 1), BuildingBlock: XUDNAN_clean_linker_2, # of connection points: 2
#     Edge 61, Type (0, 1), BuildingBlock: XUDNAN_clean_linker_2, # of connection points: 2
# Relax obj value: 0.072
# Max RMSD: 0.137
# Mean RMSD: 0.102
data_MOF--net-ocu--node1-KUMBOL_clean_sbu_1--node2-VETTIZ_charged_sbu_0--edge1-XUDNAN_clean_linker_2
_symmetry_space_group_name_H-M    P1
_symmetry_Int_Tables_number       1
_symmetry_cell_setting            triclinic
loop_
_symmetry_equiv_pos_as_xyz
'x, y, z'
_cell_length_a     39.010941
_cell_length_b     39.748972
_cell_length_c     41.35175
_cell_angle_alpha  100.47983
_cell_angle_beta   79.835137
_cell_angle_gamma 104.02322
loop_
_atom_site_label
_atom_site_type_symbol
_atom_site_fract_x
_atom_site_fract_y
_atom_site_fract_z
_atom_type_partial_charge
C0 C 0.31956 0.34287 0.3436 0.0
C1 C 0.28109 0.34174 0.39659 0.0
C2 C 0.29147 0.32552 0.36429 0.0
C3 C 0.2977 0.37662 0.40697 0.0
C4 C 0.33741 0.37735 0.35456 0.0
C5 C 0.32562 0.39446 0.38591 0.0
N6 N 0.33123 0.3251 0.31398 0.0
C7 C 0.36246 0.33922 0.29569 0.0
C8 C 0.36758 0.39302 0.33437 0.0
C9 C 0.38052 0.37363 0.3051 0.0
Gd10 Gd 0.23245 0.25183 0.23201 0.0
Gd11 Gd 0.29773 0.26788 0.3003 0.0
N12 N 0.2756 0.29195 0.35349 0.0
C13 C 0.25514 0.32202 0.41785 0.0
C14 C 0.25169 0.272 0.37458 0.0
C15 C 0.24063 0.28689 0.40689 0.0
H16 H 0.24117 0.24467 0.36627 0.0
H17 H 0.22117 0.27123 0.42337 0.0
H18 H 0.29033 0.29076 0.17168 0.0
H19 H 0.37387 0.324 0.2739 0.0
H20 H 0.32004 0.27308 0.11561 0.0
H21 H 0.24668 0.33343 0.44298 0.0
H22 H 0.28975 0.38972 0.43153 0.0
H23 H 0.17572 0.17906 0.25441 0.0
H24 H 0.38197 0.41949 0.34186 0.0
H25 H 0.40473 0.38497 0.29003 0.0
H26 H 0.2733 0.1495 0.09297 0.0
H27 H 0.33882 0.42104 0.3946 0.0
H28 H 0.1857 0.09488 0.17522 0.0
H29 H 0.15812 0.11681 0.23119 0.0
N30 N 0.21443 0.192 0.21286 0.0
C31 C 0.2288 0.1809 0.18144 0.0
C32 C 0.18874 0.16972 0.2304 0.0
C33 C 0.19378 0.12224 0.1854 0.0
C34 C 0.1783 0.13447 0.21709 0.0
C35 C 0.21923 0.14552 0.16708 0.0
H36 H 0.22871 0.10732 0.12381 0.0
N37 N 0.26283 0.23887 0.17856 0.0
C38 C 0.25405 0.20486 0.16403 0.0
C39 C 0.29484 0.21858 0.11468 0.0
C40 C 0.27021 0.19376 0.13184 0.0
C41 C 0.2856 0.26343 0.16133 0.0
C42 C 0.30215 0.25359 0.1293 0.0
O43 O 0.24791 0.29178 0.31527 0.0
O44 O 0.23892 0.30402 0.26587 0.0
O45 O 0.21018 0.27028 0.19539 0.0
O46 O 0.17535 0.24595 0.23538 0.0
O47 O 0.25317 0.21953 0.29669 0.0
O48 O 0.20649 0.23617 0.28214 0.0
O49 O 0.26776 0.21285 0.23195 0.0
O50 O 0.32024 0.24572 0.24828 0.0
O51 O 0.3028 0.22139 0.31815 0.0
O52 O 0.3434 0.2691 0.32397 0.0
O53 O 0.27504 0.30209 0.23197 0.0
O54 O 0.32156 0.28956 0.25217 0.0
C55 C 0.23384 0.30902 0.29849 0.0
C56 C 0.21902 0.21911 0.30022 0.0
C57 C 0.15631 0.29037 0.2158 0.0
C58 C 0.13417 0.33329 0.19317 0.0
C59 C 0.10982 0.31792 0.24858 0.0
C60 C 0.13257 0.29506 0.24515 0.0
C61 C 0.11001 0.33626 0.22281 0.0
C62 C 0.15757 0.31015 0.1903 0.0
C63 C 0.17772 0.26307 0.21073 0.0
C64 C 0.26102 0.15846 0.11763 0.0
C65 C 0.23557 0.13444 0.13516 0.0
H66 H 0.30773 0.21113 0.08984 0.0
C67 C 0.30292 0.21887 0.22945 0.0
C68 C 0.30873 0.30881 0.23659 0.0
C69 C 0.36118 0.21584 0.31988 0.0
C70 C 0.3932 0.17838 0.33781 0.0
C71 C 0.41245 0.19929 0.28423 0.0
C72 C 0.3847 0.21708 0.2901 0.0
C73 C 0.4169 0.18027 0.3079 0.0
C74 C 0.36506 0.19608 0.34328 0.0
C75 C 0.33347 0.23631 0.32805 0.0
H76 H 0.09122 0.32085 0.27114 0.0
H77 H 0.131 0.28057 0.26536 0.0
H78 H 0.09037 0.35208 0.2264 0.0
H79 H 0.17678 0.30699 0.16834 0.0
H80 H 0.43112 0.20087 0.26162 0.0
H81 H 0.382 0.23226 0.27179 0.0
H82 H 0.43947 0.16784 0.30301 0.0
H83 H 0.3462 0.19486 0.3659 0.0
C84 C 0.83639 0.18 0.20908 0.0
C85 C 0.89445 0.20604 0.1815 0.0
C86 C 0.86563 0.20789 0.20724 0.0
C87 C 0.89281 0.17628 0.15711 0.0
C88 C 0.83499 0.14972 0.1851 0.0
C89 C 0.86313 0.14822 0.15887 0.0
N90 N 0.80986 0.18195 0.23495 0.0
C91 C 0.78177 0.15426 0.23915 0.0
C92 C 0.80557 0.12164 0.1885 0.0
C93 C 0.77896 0.12383 0.21578 0.0
Gd94 Gd 0.7497 0.30429 0.2788 0.0
Gd95 Gd 0.81464 0.23486 0.27109 0.0
N96 N 0.86632 0.23639 0.23109 0.0
C97 C 0.9243 0.23394 0.18128 0.0
C98 C 0.89606 0.26316 0.23159 0.0
C99 C 0.9252 0.26249 0.20659 0.0
H100 H 0.89636 0.28614 0.25019 0.0
H101 H 0.94814 0.2842 0.20664 0.0
H102 H 0.69176 0.24602 0.23135 0.0
H103 H 0.76126 0.15592 0.26035 0.0
H104 H 0.63489 0.20383 0.2401 0.0
H105 H 0.94689 0.23353 0.16187 0.0
H106 H 0.91457 0.17452 0.13703 0.0
H107 H 0.75686 0.35792 0.35013 0.0
H108 H 0.80342 0.09798 0.17051 0.0
H109 H 0.75633 0.10211 0.21883 0.0
H110 H 0.59609 0.2263 0.35683 0.0
H111 H 0.86245 0.12526 0.1401 0.0
H112 H 0.66568 0.32368 0.42026 0.0
H113 H 0.72308 0.36488 0.40665 0.0
N114 N 0.71888 0.31333 0.33238 0.0
C115 C 0.68689 0.29115 0.33891 0.0
C116 C 0.73169 0.34001 0.35593 0.0
C117 C 0.68023 0.32071 0.39543 0.0
C118 C 0.71266 0.34399 0.38786 0.0
C119 C 0.66687 0.29397 0.37082 0.0
H120 H 0.6189 0.27141 0.40168 0.0
N121 N 0.69418 0.26375 0.28294 0.0
C122 C 0.67447 0.26528 0.31365 0.0
C123 C 0.62765 0.21857 0.2931 0.0
C124 C 0.64109 0.24213 0.3197 0.0
C125 C 0.67925 0.24347 0.25643 0.0
C126 C 0.64632 0.22003 0.26118 0.0
O127 O 0.83129 0.27158 0.23369 0.0
O128 O 0.7999 0.31655 0.24267 0.0
O129 O 0.71388 0.32329 0.25513 0.0
O130 O 0.75064 0.35989 0.28477 0.0
O131 O 0.83596 0.28978 0.297 0.0
O132 O 0.79922 0.33004 0.30228 0.0
O133 O 0.7568 0.27958 0.32183 0.0
O134 O 0.75798 0.22513 0.29465 0.0
O135 O 0.82492 0.2415 0.32202 0.0
O136 O 0.83604 0.19625 0.28759 0.0
O137 O 0.75523 0.26571 0.23139 0.0
O138 O 0.76054 0.2196 0.25417 0.0
C139 C 0.82567 0.30078 0.22744 0.0
C140 C 0.8279 0.32085 0.30768 0.0
C141 C 0.73652 0.37936 0.23861 0.0
C142 C 0.7171 0.40401 0.19642 0.0
C143 C 0.77742 0.42507 0.2107 0.0
C144 C 0.77036 0.40162 0.23357 0.0
C145 C 0.75109 0.42649 0.19245 0.0
C146 C 0.71021 0.38036 0.21966 0.0
C147 C 0.72764 0.35607 0.26443 0.0
C148 C 0.62158 0.24412 0.35171 0.0
C149 C 0.63444 0.26995 0.37721 0.0
H150 H 0.60205 0.20049 0.29665 0.0
C151 C 0.74898 0.24564 0.32159 0.0
C152 C 0.75575 0.23237 0.22869 0.0
C153 C 0.87662 0.22271 0.3251 0.0
C154 C 0.92178 0.20971 0.35148 0.0
C155 C 0.93804 0.25527 0.31649 0.0
C156 C 0.90269 0.24904 0.31105 0.0
C157 C 0.94764 0.2357 0.33671 0.0
C158 C 0.88617 0.2031 0.34567 0.0
C159 C 0.84024 0.21487 0.31656 0.0
H160 H 0.80319 0.44282 0.20753 0.0
H161 H 0.79124 0.40137 0.24761 0.0
H162 H 0.7573 0.44594 0.17585 0.0
H163 H 0.68436 0.36271 0.22324 0.0
H164 H 0.95802 0.27517 0.30488 0.0
H165 H 0.89558 0.26486 0.29597 0.0
H166 H 0.97527 0.24056 0.34062 0.0
H167 H 0.86638 0.18232 0.35632 0.0
C168 C 0.85966 0.81724 0.19247 0.0
C169 C 0.84282 0.77974 0.14186 0.0
C170 C 0.83383 0.79345 0.1754 0.0
C171 C 0.87776 0.79002 0.12584 0.0
C172 C 0.89475 0.82747 0.17644 0.0
C173 C 0.9036 0.81384 0.14304 0.0
N174 N 0.8509 0.82901 0.22523 0.0
C175 C 0.87528 0.85166 0.24316 0.0
C176 C 0.92013 0.85055 0.19471 0.0
C177 C 0.91034 0.86268 0.22819 0.0
Gd178 Gd 0.77856 0.73453 0.30207 0.0
Gd179 Gd 0.7911 0.81146 0.24643 0.0
N180 N 0.80017 0.78351 0.1916 0.0
C181 C 0.81633 0.75625 0.12529 0.0
C182 C 0.77387 0.76213 0.17502 0.0
C183 C 0.78166 0.74771 0.14185 0.0
H184 H 0.74663 0.75707 0.18673 0.0
H185 H 0.76076 0.73055 0.12886 0.0
H186 H 0.79089 0.7753 0.37807 0.0
H187 H 0.86761 0.86145 0.26889 0.0
H188 H 0.75713 0.77803 0.43495 0.0
H189 H 0.82218 0.74516 0.09952 0.0
H190 H 0.88509 0.77971 0.10009 0.0
H191 H 0.73581 0.66147 0.25761 0.0
H192 H 0.94737 0.85901 0.18326 0.0
H193 H 0.92976 0.88059 0.24243 0.0
H194 H 0.64689 0.69424 0.42199 0.0
H195 H 0.93045 0.82134 0.13033 0.0
H196 H 0.63623 0.62365 0.31572 0.0
H197 H 0.67775 0.61948 0.26321 0.0
N198 N 0.72547 0.69144 0.30502 0.0
C199 C 0.70401 0.69303 0.33475 0.0
C200 C 0.71724 0.66442 0.28012 0.0
C201 C 0.66124 0.64274 0.31306 0.0
C202 C 0.68461 0.64027 0.28339 0.0
C203 C 0.67126 0.6687 0.33955 0.0
H204 H 0.62491 0.65182 0.37497 0.0
N205 N 0.7485 0.73953 0.35622 0.0
C206 C 0.71621 0.71724 0.36128 0.0
C207 C 0.71091 0.74008 0.41984 0.0
C208 C 0.69628 0.71728 0.39324 0.0
C209 C 0.76405 0.75989 0.38231 0.0
C210 C 0.74517 0.76113 0.41441 0.0
O211 O 0.8324 0.77654 0.24142 0.0
O212 O 0.79945 0.72167 0.24755 0.0
O213 O 0.8305 0.72569 0.30698 0.0
O214 O 0.7819 0.6899 0.32318 0.0
O215 O 0.73814 0.7729 0.24819 0.0
O216 O 0.75658 0.72441 0.25384 0.0
O217 O 0.7477 0.7772 0.32686 0.0
O218 O 0.74631 0.81444 0.28968 0.0
O219 O 0.76595 0.83435 0.21508 0.0
O220 O 0.80105 0.86816 0.24942 0.0
O221 O 0.82317 0.78269 0.30726 0.0
O222 O 0.80652 0.83125 0.29757 0.0
C223 C 0.82771 0.74202 0.23321 0.0
C224 C 0.73193 0.73908 0.24846 0.0
C225 C 0.83135 0.66545 0.30265 0.0
C226 C 0.86869 0.62536 0.30585 0.0
C227 C 0.826 0.60975 0.26637 0.0
C228 C 0.81578 0.64168 0.27702 0.0
C229 C 0.85239 0.60163 0.28048 0.0
C230 C 0.85805 0.65745 0.31667 0.0
C231 C 0.81645 0.69602 0.3181 0.0
C232 C 0.66285 0.69422 0.39772 0.0
C233 C 0.65031 0.67009 0.37092 0.0
H234 H 0.6964 0.74097 0.44476 0.0
C235 C 0.73553 0.80234 0.31838 0.0
C236 C 0.82016 0.81534 0.31574 0.0
C237 C 0.77433 0.89768 0.21661 0.0
C238 C 0.73986 0.92582 0.18928 0.0
C239 C 0.78695 0.96103 0.22067 0.0
C240 C 0.79411 0.93084 0.22809 0.0
C241 C 0.7599 0.95868 0.20186 0.0
C242 C 0.74754 0.89525 0.19678 0.0
C243 C 0.78028 0.86618 0.22736 0.0
H244 H 0.81278 0.5908 0.2477 0.0
H245 H 0.79475 0.6472 0.26621 0.0
H246 H 0.85912 0.57627 0.27228 0.0
H247 H 0.86977 0.67585 0.3366 0.0
H248 H 0.80204 0.98651 0.23009 0.0
H249 H 0.81482 0.93355 0.24332 0.0
H250 H 0.75434 0.98287 0.19787 0.0
H251 H 0.73259 0.86964 0.18754 0.0
C252 C 0.33493 0.67003 0.2767 0.0
C253 C 0.34289 0.63086 0.22495 0.0
C254 C 0.33836 0.6638 0.2423 0.0
C255 C 0.34284 0.60397 0.24283 0.0
C256 C 0.33619 0.64357 0.29471 0.0
C257 C 0.33953 0.61032 0.27762 0.0
N258 N 0.33161 0.70239 0.29248 0.0
C259 C 0.33212 0.71099 0.32593 0.0
C260 C 0.33474 0.65158 0.32928 0.0
C261 C 0.33313 0.68556 0.3449 0.0
Gd262 Gd 0.24875 0.7894 0.2776 0.0
Gd263 Gd 0.32895 0.74258 0.25851 0.0
N264 N 0.33886 0.69047 0.22576 0.0
C265 C 0.34806 0.62621 0.19016 0.0
C266 C 0.34493 0.68653 0.19194 0.0
C267 C 0.3494 0.65429 0.17359 0.0
H268 H 0.34632 0.70833 0.17916 0.0
H269 H 0.35397 0.65115 0.14673 0.0
H270 H 0.24652 0.84963 0.34662 0.0
H271 H 0.33075 0.7372 0.33804 0.0
H272 H 0.25702 0.9139 0.36055 0.0
H273 H 0.35168 0.6013 0.1759 0.0
H274 H 0.34603 0.57838 0.22997 0.0
H275 H 0.24772 0.7719 0.1947 0.0
H276 H 0.33554 0.63195 0.34404 0.0
H277 H 0.33261 0.69216 0.37153 0.0
H278 H 0.27893 0.95477 0.25502 0.0
H279 H 0.34022 0.58953 0.29104 0.0
H280 H 0.2725 0.86945 0.15699 0.0
H281 H 0.25906 0.80464 0.14737 0.0
N282 N 0.2563 0.81746 0.23066 0.0
C283 C 0.26176 0.85306 0.23672 0.0
C284 C 0.25402 0.80003 0.19922 0.0
C285 C 0.26764 0.85516 0.17789 0.0
C286 C 0.26014 0.81858 0.17235 0.0
C287 C 0.26811 0.87287 0.21038 0.0
H288 H 0.27971 0.92524 0.19732 0.0
N289 N 0.25533 0.85003 0.29433 0.0
C290 C 0.2615 0.86976 0.2694 0.0
C291 C 0.2661 0.92257 0.30952 0.0
C292 C 0.26737 0.90663 0.27636 0.0
C293 C 0.25305 0.86539 0.32677 0.0
C294 C 0.25862 0.90184 0.33482 0.0
O295 O 0.28003 0.71407 0.28959 0.0
O296 O 0.24431 0.75301 0.31517 0.0
O297 O 0.2003 0.80255 0.30627 0.0
O298 O 0.19885 0.77075 0.25766 0.0
O299 O 0.29466 0.73194 0.2173 0.0
O300 O 0.24059 0.73443 0.24829 0.0
O301 O 0.30511 0.81596 0.25607 0.0
O302 O 0.32386 0.77254 0.219 0.0
O303 O 0.38436 0.73924 0.24525 0.0
O304 O 0.37079 0.78893 0.2679 0.0
O305 O 0.27539 0.80106 0.32401 0.0
O306 O 0.32896 0.78442 0.30347 0.0
C307 C 0.25385 0.7228 0.31202 0.0
C308 C 0.25959 0.72241 0.22121 0.0
C309 C 0.14921 0.75798 0.29826 0.0
C310 C 0.09015 0.74922 0.33013 0.0
C311 C 0.12011 0.70079 0.31401 0.0
C312 C 0.14961 0.7227 0.29824 0.0
C313 C 0.09059 0.71416 0.33053 0.0
C314 C 0.11922 0.77071 0.31349 0.0
C315 C 0.18039 0.78287 0.28479 0.0
C316 C 0.27417 0.92642 0.25013 0.0
C317 C 0.27459 0.9096 0.21725 0.0
H318 H 0.27043 0.95082 0.31586 0.0
C319 C 0.32416 0.80588 0.22797 0.0
C320 C 0.30915 0.80244 0.32566 0.0
C321 C 0.41797 0.79049 0.22408 0.0
C322 C 0.43691 0.78845 0.16462 0.0
C323 C 0.45765 0.84099 0.20219 0.0
C324 C 0.43788 0.82504 0.22929 0.0
C325 C 0.45766 0.82258 0.16987 0.0
C326 C 0.41748 0.7728 0.19174 0.0
C327 C 0.39572 0.77324 0.25158 0.0
H328 H 0.12067 0.67378 0.3144 0.0
H329 H 0.17282 0.71235 0.28674 0.0
H330 H 0.06877 0.69763 0.34427 0.0
H331 H 0.11943 0.79823 0.31433 0.0
H332 H 0.4732 0.86754 0.20628 0.0
H333 H 0.43805 0.83958 0.25413 0.0
H334 H 0.47377 0.83477 0.14922 0.0
H335 H 0.40258 0.74603 0.18749 0.0
C336 C 0.35815 0.71693 0.70247 0.0
C337 C 0.4119 0.76289 0.69891 0.0
C338 C 0.37821 0.74874 0.71577 0.0
C339 C 0.42494 0.74481 0.66857 0.0
C340 C 0.37123 0.69864 0.67209 0.0
C341 C 0.40468 0.71278 0.65521 0.0
N342 N 0.32568 0.70407 0.71908 0.0
C343 C 0.30523 0.67283 0.70714 0.0
C344 C 0.3502 0.66672 0.65948 0.0
C345 C 0.31709 0.65371 0.67716 0.0
Gd346 Gd 0.24112 0.80414 0.77682 0.0
Gd347 Gd 0.30743 0.73817 0.76858 0.0
N348 N 0.36443 0.76612 0.74479 0.0
C349 C 0.43151 0.79484 0.71299 0.0
C350 C 0.3843 0.79647 0.75932 0.0
C351 C 0.41779 0.81149 0.74349 0.0
H352 H 0.37511 0.80914 0.78333 0.0
H353 H 0.43316 0.83579 0.755 0.0
H354 H 0.17563 0.75084 0.73506 0.0
H355 H 0.28013 0.66232 0.72118 0.0
H356 H 0.11728 0.71191 0.74788 0.0
H357 H 0.45747 0.80659 0.70079 0.0
H358 H 0.45069 0.75539 0.65525 0.0
H359 H 0.25628 0.86054 0.84567 0.0
H360 H 0.35932 0.65188 0.63622 0.0
H361 H 0.30078 0.6289 0.6678 0.0
H362 H 0.08717 0.74227 0.86528 0.0
H363 H 0.41511 0.69915 0.63179 0.0
H364 H 0.1672 0.83716 0.92113 0.0
H365 H 0.2267 0.87285 0.90325 0.0
N366 N 0.21421 0.81841 0.83147 0.0
C367 C 0.18101 0.7993 0.84042 0.0
C368 C 0.23038 0.84496 0.85335 0.0
C369 C 0.17999 0.83186 0.89584 0.0
C370 C 0.21362 0.852 0.88587 0.0
C371 C 0.1632 0.80518 0.87303 0.0
H372 H 0.11567 0.78782 0.90696 0.0
N373 N 0.18278 0.7691 0.78548 0.0
C374 C 0.16523 0.77334 0.81696 0.0
C375 C 0.11417 0.72936 0.80055 0.0
C376 C 0.13076 0.75304 0.82549 0.0
C377 C 0.16474 0.74942 0.76059 0.0
C378 C 0.13085 0.72829 0.76776 0.0
O379 O 0.31041 0.76362 0.72361 0.0
O380 O 0.29555 0.81609 0.74672 0.0
O381 O 0.2154 0.82276 0.74306 0.0
O382 O 0.23757 0.85882 0.78468 0.0
O383 O 0.3145 0.78654 0.80824 0.0
O384 O 0.29536 0.83041 0.79106 0.0
O385 O 0.24481 0.77926 0.82048 0.0
O386 O 0.25149 0.72526 0.79465 0.0
O387 O 0.3331 0.73392 0.80977 0.0
O388 O 0.31459 0.68765 0.77538 0.0
O389 O 0.2388 0.75964 0.73321 0.0
O390 O 0.25271 0.7145 0.75307 0.0
C391 C 0.31012 0.79608 0.72196 0.0
C392 C 0.31295 0.81975 0.81019 0.0
C393 C 0.20992 0.88333 0.74911 0.0
C394 C 0.18026 0.90407 0.712 0.0
C395 C 0.21042 0.94525 0.75463 0.0
C396 C 0.22001 0.91781 0.76512 0.0
C397 C 0.19082 0.93854 0.72815 0.0
C398 C 0.18986 0.87661 0.72277 0.0
C399 C 0.22117 0.85453 0.75906 0.0
C400 C 0.11343 0.75795 0.85823 0.0
C401 C 0.12956 0.78403 0.88191 0.0
H402 H 0.08775 0.71327 0.80605 0.0
C403 C 0.23929 0.74556 0.82037 0.0
C404 C 0.23777 0.72598 0.73213 0.0
C405 C 0.36523 0.68898 0.8 0.0
C406 C 0.40259 0.66841 0.83046 0.0
C407 C 0.41753 0.66851 0.77066 0.0
C408 C 0.38774 0.68198 0.77036 0.0
C409 C 0.4247 0.66128 0.80031 0.0
C410 C 0.37335 0.68324 0.82991 0.0
C411 C 0.33218 0.70064 0.80038 0.0
H412 H 0.21851 0.97183 0.76685 0.0
H413 H 0.2356 0.92362 0.78547 0.0
H414 H 0.18444 0.96043 0.72001 0.0
H415 H 0.18159 0.84994 0.71073 0.0
H416 H 0.43461 0.66277 0.74766 0.0
H417 H 0.38204 0.6863 0.74701 0.0
H418 H 0.44696 0.64915 0.79921 0.0
H419 H 0.35624 0.68987 0.85266 0.0
C420 C 0.33931 0.31178 0.67741 0.0
C421 C 0.31337 0.28082 0.62828 0.0
C422 C 0.31 0.29195 0.66284 0.0
C423 C 0.34685 0.289 0.60884 0.0
C424 C 0.37277 0.32073 0.65796 0.0
C425 C 0.37646 0.30893 0.62365 0.0
N426 N 0.33509 0.32195 0.71083 0.0
C427 C 0.36251 0.34324 0.72603 0.0
C428 C 0.40144 0.34139 0.67361 0.0
C429 C 0.39617 0.35299 0.70774 0.0
Gd430 Gd 0.27016 0.23459 0.80341 0.0
Gd431 Gd 0.27793 0.30353 0.73948 0.0
N432 N 0.27803 0.28433 0.68234 0.0
C433 C 0.28284 0.26233 0.61423 0.0
C434 C 0.24787 0.26822 0.66855 0.0
C435 C 0.24986 0.25647 0.6344 0.0
H436 H 0.22219 0.26473 0.68388 0.0
H437 H 0.22593 0.24311 0.62364 0.0
H438 H 0.29334 0.28674 0.87216 0.0
H439 H 0.35854 0.35284 0.75222 0.0
H440 H 0.26524 0.30373 0.92954 0.0
H441 H 0.2843 0.25327 0.58778 0.0
H442 H 0.35001 0.28046 0.58228 0.0
H443 H 0.20776 0.16672 0.76951 0.0
H444 H 0.42758 0.34891 0.65954 0.0
H445 H 0.418 0.36952 0.71995 0.0
H446 H 0.14259 0.24347 0.93066 0.0
H447 H 0.40201 0.31535 0.60829 0.0
H448 H 0.10959 0.16328 0.83442 0.0
H449 H 0.14396 0.1419 0.78185 0.0
N450 N 0.20939 0.20607 0.8124 0.0
C451 C 0.19146 0.21657 0.84254 0.0
C452 C 0.19308 0.17832 0.79154 0.0
C453 C 0.13755 0.17538 0.82862 0.0
C454 C 0.15683 0.16332 0.79886 0.0
C455 C 0.15502 0.20156 0.85133 0.0
H456 H 0.10942 0.20103 0.88988 0.0
N457 N 0.24506 0.25509 0.85677 0.0
C458 C 0.20999 0.24094 0.86563 0.0
C459 C 0.21306 0.27313 0.92101 0.0
C460 C 0.19284 0.2503 0.89787 0.0
C461 C 0.26519 0.27666 0.87941 0.0
C462 C 0.2494 0.28627 0.91176 0.0
O463 O 0.32114 0.27064 0.72591 0.0
O464 O 0.30428 0.22165 0.75371 0.0
O465 O 0.30873 0.22959 0.83307 0.0
O466 O 0.26966 0.18392 0.81693 0.0
O467 O 0.23273 0.25565 0.74103 0.0
O468 O 0.25483 0.21137 0.75248 0.0
O469 O 0.24781 0.28487 0.82119 0.0
O470 O 0.22753 0.28601 0.77394 0.0
O471 O 0.24969 0.33174 0.71678 0.0
O472 O 0.27866 0.35851 0.7577 0.0
O473 O 0.3203 0.27518 0.79493 0.0
O474 O 0.3033 0.324 0.78663 0.0
C475 C 0.32424 0.2393 0.73017 0.0
C476 C 0.23732 0.22338 0.73435 0.0
C477 C 0.3263 0.17607 0.82356 0.0
C478 C 0.36886 0.1502 0.84208 0.0
C479 C 0.37188 0.15363 0.78352 0.0
C480 C 0.34247 0.16931 0.79066 0.0
C481 C 0.38523 0.14436 0.80907 0.0
C482 C 0.33933 0.16614 0.84915 0.0
C483 C 0.29782 0.19589 0.83189 0.0
C484 C 0.15634 0.23625 0.90615 0.0
C485 C 0.13743 0.21214 0.88288 0.0
H486 H 0.20094 0.28055 0.94615 0.0
C487 C 0.22628 0.29555 0.80605 0.0
C488 C 0.32332 0.30907 0.7995 0.0
C489 C 0.26795 0.3932 0.72059 0.0
C490 C 0.24612 0.43524 0.69787 0.0
C491 C 0.30881 0.4457 0.70409 0.0
C492 C 0.30254 0.41421 0.71698 0.0
C493 C 0.28071 0.4564 0.69486 0.0
C494 C 0.24004 0.40361 0.71058 0.0
C495 C 0.25925 0.3611 0.73596 0.0
H496 H 0.38437 0.14866 0.7581 0.0
H497 H 0.33264 0.17644 0.77059 0.0
H498 H 0.40783 0.13191 0.80298 0.0
H499 H 0.32691 0.17139 0.87462 0.0
H500 H 0.33546 0.46197 0.70145 0.0
H501 H 0.32448 0.40651 0.72437 0.0
H502 H 0.28601 0.4809 0.68503 0.0
H503 H 0.21325 0.38743 0.71346 0.0
C504 C 0.8158 0.21295 0.82491 0.0
C505 C 0.78825 0.1517 0.80936 0.0
C506 C 0.80045 0.18614 0.8018 0.0
C507 C 0.79051 0.14481 0.84095 0.0
C508 C 0.82005 0.20564 0.85591 0.0
C509 C 0.80638 0.17172 0.86418 0.0
N510 N 0.82875 0.24555 0.81619 0.0
C511 C 0.85104 0.27007 0.83499 0.0
C512 C 0.83927 0.23228 0.87709 0.0
C513 C 0.85567 0.26433 0.86616 0.0
Gd514 Gd 0.73248 0.29726 0.78531 0.0
Gd515 Gd 0.816 0.25301 0.76462 0.0
N516 N 0.79773 0.19378 0.77173 0.0
C517 C 0.77445 0.12517 0.78479 0.0
C518 C 0.78594 0.16783 0.74712 0.0
C519 C 0.77378 0.1332 0.7534 0.0
H520 H 0.78532 0.17393 0.72286 0.0
H521 H 0.76374 0.11276 0.73409 0.0
H522 H 0.73816 0.34689 0.8611 0.0
H523 H 0.86598 0.29377 0.82573 0.0
H524 H 0.75291 0.4097 0.88374 0.0
H525 H 0.76479 0.09836 0.78963 0.0
H526 H 0.78081 0.1186 0.8474 0.0
H527 H 0.70104 0.29161 0.71484 0.0
H528 H 0.84318 0.22773 0.9011 0.0
H529 H 0.87244 0.28439 0.88143 0.0
H530 H 0.74761 0.46802 0.79348 0.0
H531 H 0.80892 0.16577 0.88809 0.0
H532 H 0.70777 0.39551 0.69522 0.0
H533 H 0.69172 0.33116 0.67877 0.0
N534 N 0.7226 0.33331 0.75058 0.0
C535 C 0.7296 0.36827 0.76096 0.0
C536 C 0.70798 0.31969 0.72207 0.0
C537 C 0.7118 0.37828 0.71105 0.0
C538 C 0.70266 0.34197 0.7017 0.0
C539 C 0.72505 0.39187 0.74123 0.0
H540 H 0.7299 0.44664 0.7378 0.0
N541 N 0.73902 0.35598 0.81175 0.0
C542 C 0.73884 0.38009 0.7924 0.0
C543 C 0.75127 0.42692 0.83775 0.0
C544 C 0.74481 0.41618 0.80484 0.0
C545 C 0.74177 0.36614 0.84475 0.0
C546 C 0.74934 0.40173 0.8579 0.0
O547 O 0.75927 0.22531 0.78398 0.0
O548 O 0.74183 0.2673 0.82314 0.0
O549 O 0.67965 0.30545 0.80592 0.0
O550 O 0.68665 0.25353 0.78339 0.0
O551 O 0.78384 0.23652 0.72149 0.0
O552 O 0.72994 0.25289 0.74269 0.0
O553 O 0.77103 0.30959 0.73839 0.0
O554 O 0.82485 0.308 0.75211 0.0
O555 O 0.85037 0.24758 0.71724 0.0
O556 O 0.8676 0.24095 0.7621 0.0
O557 O 0.77025 0.30743 0.82415 0.0
O558 O 0.82543 0.30777 0.79418 0.0
C559 C 0.74261 0.23424 0.81372 0.0
C560 C 0.74985 0.23497 0.72048 0.0
C561 C 0.64177 0.25731 0.82877 0.0
C562 C 0.62498 0.26453 0.88876 0.0
C563 C 0.58498 0.22479 0.85226 0.0
C564 C 0.60915 0.23408 0.8245 0.0
C565 C 0.59216 0.24075 0.88412 0.0
C566 C 0.65092 0.26918 0.86067 0.0
C567 C 0.66471 0.27217 0.80049 0.0
C568 C 0.74276 0.44016 0.78448 0.0
C569 C 0.73268 0.428 0.75278 0.0
H570 H 0.75626 0.45442 0.84822 0.0
C571 C 0.80615 0.31855 0.73398 0.0
C572 C 0.80507 0.31958 0.82046 0.0
C573 C 0.9101 0.27239 0.72539 0.0
C574 C 0.97104 0.28654 0.69794 0.0
C575 C 0.94869 0.32897 0.74106 0.0
C576 C 0.91563 0.3055 0.74511 0.0
C577 C 0.97662 0.31941 0.71775 0.0
C578 C 0.93759 0.26336 0.70165 0.0
C579 C 0.87709 0.24594 0.73138 0.0
H580 H 0.55957 0.20701 0.84903 0.0
H581 H 0.60206 0.22393 0.79985 0.0
H582 H 0.57103 0.2356 0.90446 0.0
H583 H 0.67753 0.28461 0.86291 0.0
H584 H 0.9529 0.35427 0.75656 0.0
H585 H 0.8947 0.3129 0.764 0.0
H586 H 1.00253 0.33716 0.71564 0.0
H587 H 0.93359 0.23731 0.68733 0.0
C588 C 0.83487 0.85102 0.86463 0.0
C589 C 0.79131 0.8433 0.91408 0.0
C590 C 0.8049 0.83099 0.88129 0.0
C591 C 0.80746 0.87643 0.92949 0.0
C592 C 0.85124 0.88421 0.88019 0.0
C593 C 0.83716 0.89692 0.91252 0.0
N594 N 0.84841 0.83778 0.83357 0.0
C595 C 0.879 0.85581 0.81735 0.0
C596 C 0.88168 0.90345 0.86302 0.0
C597 C 0.89572 0.88908 0.83157 0.0
Gd598 Gd 0.75977 0.76659 0.73871 0.0
Gd599 Gd 0.81831 0.78124 0.81326 0.0
N600 N 0.78878 0.79963 0.86531 0.0
C601 C 0.76172 0.82199 0.93032 0.0
C602 C 0.76031 0.7786 0.88115 0.0
C603 C 0.74612 0.78954 0.91375 0.0
H604 H 0.74909 0.75307 0.86907 0.0
H605 H 0.72347 0.77273 0.92622 0.0
H606 H 0.82621 0.80169 0.68361 0.0
H607 H 0.89132 0.84439 0.79388 0.0
H608 H 0.85571 0.78481 0.6273 0.0
H609 H 0.75073 0.83032 0.95564 0.0
H610 H 0.79712 0.88647 0.95453 0.0
H611 H 0.69121 0.69841 0.75479 0.0
H612 H 0.89496 0.92908 0.8741 0.0
H613 H 0.91981 0.90336 0.81849 0.0
H614 H 0.79222 0.66717 0.59582 0.0
H615 H 0.84934 0.9224 0.92479 0.0
H616 H 0.69598 0.61614 0.67319 0.0
H617 H 0.66766 0.63862 0.7286 0.0
N618 N 0.73506 0.7087 0.7168 0.0
C619 C 0.75049 0.69722 0.68587 0.0
C620 C 0.70522 0.68836 0.73175 0.0
C621 C 0.70722 0.6421 0.68517 0.0
C622 C 0.69125 0.65463 0.71649 0.0
C623 C 0.7368 0.66363 0.6692 0.0
H624 H 0.74215 0.62722 0.6237 0.0
N625 N 0.79252 0.7517 0.6871 0.0
C626 C 0.77952 0.71953 0.67038 0.0
C627 C 0.82279 0.73263 0.62225 0.0
C628 C 0.79463 0.70903 0.6376 0.0
C629 C 0.81869 0.77529 0.67166 0.0
C630 C 0.83471 0.76599 0.63931 0.0
O631 O 0.7795 0.81829 0.82019 0.0
O632 O 0.73442 0.7915 0.78812 0.0
O633 O 0.75164 0.80807 0.71442 0.0
O634 O 0.71301 0.75894 0.71467 0.0
O635 O 0.77396 0.73234 0.80702 0.0
O636 O 0.7293 0.74586 0.78529 0.0
O637 O 0.79793 0.72926 0.73405 0.0
O638 O 0.84434 0.75732 0.76395 0.0
O639 O 0.82345 0.73717 0.83538 0.0
O640 O 0.86427 0.78487 0.83743 0.0
O641 O 0.80174 0.81687 0.74695 0.0
O642 O 0.84704 0.802 0.7661 0.0
C643 C 0.74782 0.81598 0.8116 0.0
C644 C 0.73999 0.72881 0.80476 0.0
C645 C 0.69108 0.8087 0.7123 0.0
C646 C 0.66118 0.849 0.69537 0.0
C647 C 0.6329 0.81611 0.74094 0.0
C648 C 0.66172 0.80005 0.73663 0.0
C649 C 0.63244 0.84019 0.72045 0.0
C650 C 0.69071 0.83321 0.69171 0.0
C651 C 0.72077 0.79026 0.70652 0.0
C652 C 0.78093 0.67564 0.62101 0.0
C653 C 0.7524 0.65288 0.63688 0.0
H654 H 0.83508 0.72557 0.59709 0.0
C655 C 0.82994 0.73184 0.74199 0.0
C656 C 0.83581 0.82052 0.74847 0.0
C657 C 0.88306 0.73208 0.83331 0.0
C658 C 0.9115 0.68681 0.84265 0.0
C659 C 0.93487 0.71883 0.79569 0.0
C660 C 0.9084 0.73814 0.80514 0.0
C661 C 0.93646 0.69337 0.81422 0.0
C662 C 0.88482 0.70652 0.85217 0.0
C663 C 0.85505 0.75256 0.84315 0.0
H664 H 0.61045 0.80935 0.75986 0.0
H665 H 0.661 0.78081 0.75238 0.0
H666 H 0.60893 0.85102 0.72367 0.0
H667 H 0.71318 0.83955 0.67265 0.0
H668 H 0.95423 0.72359 0.77389 0.0
H669 H 0.90758 0.75764 0.79024 0.0
H670 H 0.95761 0.67909 0.80649 0.0
H671 H 0.86526 0.70174 0.8739 0.0
Fe672 Fe 0.04079 0.05724 0.52823 0.0
O673 O 0.99828 1.01943 0.51707 0.0
Fe674 Fe 0.11093 1.01371 0.5062 0.0
Fe675 Fe 0.94958 1.02073 0.54118 0.0
O676 O 0.06343 1.01785 0.52988 0.0
O677 O 0.06221 1.01447 0.53018 0.0
O678 O 0.99699 1.01612 0.51775 0.0
Fe679 Fe 1.01961 0.97663 0.51925 0.0
C680 C 0.99532 0.07139 0.5896 0.0
O681 O 1.01096 0.09308 0.52251 0.0
O682 O 0.95605 0.05843 0.5116 0.0
O683 O 0.03798 0.97622 0.46965 0.0
O684 O 0.09382 0.97359 0.46971 0.0
O685 O 0.11533 0.05126 0.47584 0.0
O686 O 0.06033 0.05903 0.4788 0.0
O687 O 0.9334 0.97776 0.50718 0.0
O688 O 0.97249 0.94183 0.50553 0.0
C689 C 0.09291 0.06409 0.46582 0.0
O690 O 0.04908 0.94013 0.52372 0.0
O691 O 0.10434 0.97434 0.53404 0.0
O692 O 1.02145 0.05733 0.57756 0.0
O693 O 0.96681 0.06221 0.57641 0.0
C694 C 0.98136 0.0863 0.50949 0.0
C695 C 0.94333 0.94814 0.49891 0.0
C696 C 0.96848 0.97232 0.58324 0.0
O697 O 0.94613 0.98515 0.57306 0.0
O698 O 1.00057 0.97502 0.56895 0.0
C699 C 0.06518 0.9641 0.45669 0.0
O700 O 0.12656 0.0555 0.54149 0.0
O701 O 0.08799 0.09197 0.54288 0.0
C702 C 0.07945 0.94601 0.5351 0.0
C703 C 0.11678 0.08521 0.55007 0.0
Fe704 Fe 0.52144 0.9409 1.00165 0.0
O705 O 0.53193 0.99221 1.00212 0.0
Fe706 Fe 0.49298 1.0193 0.02965 0.0
Fe707 Fe 0.57614 0.02522 1.01648 0.0
O708 O 0.52814 0.99169 1.00373 0.0
O709 O 0.53654 0.0516 0.04606 0.0
O710 O 0.54084 0.05205 0.0445 0.0
Fe711 Fe 0.54663 0.10305 0.04613 0.0
C712 C 0.57275 0.96592 0.05439 0.0
O713 O 0.5639 0.94479 0.96376 0.0
O714 O 0.60703 0.99134 0.98362 0.0
O715 O 0.50952 0.10109 1.01523 0.0
O716 O 0.49884 0.04587 0.99025 0.0
O717 O 0.45254 0.98194 1.00622 0.0
O718 O 0.48193 0.94034 0.97455 0.0
O719 O 0.5814 0.05306 0.97707 0.0
O720 O 0.58683 0.10673 1.00558 0.0
C721 C 0.45503 0.95553 0.98247 0.0
O722 O 0.50261 0.09974 0.08368 0.0
O723 O 0.46176 0.0538 0.05994 0.0
O724 O 0.55807 0.94252 0.03264 0.0
O725 O 0.57461 0.99848 0.05517 0.0
C726 C 0.59649 0.96303 0.96275 0.0
C727 C 0.59256 0.08625 0.97863 0.0
C728 C 0.61442 0.08908 0.06296 0.0
O729 O 0.61699 0.06395 0.0379 0.0
O730 O 0.58694 0.10343 0.07291 0.0
C731 C 0.49729 0.0777 0.99226 0.0
O732 O 0.4842 0.99146 0.06956 0.0
O733 O 0.48138 0.93746 0.04185 0.0
C734 C 0.46998 0.08221 0.08136 0.0
C735 C 0.47397 0.95821 0.06811 0.0
Fe736 Fe 0.03698 0.56233 0.02755 0.0
O737 O 1.00527 0.52145 0.04716 0.0
Fe738 Fe 0.10988 0.52714 0.98606 0.0
Fe739 Fe 0.95265 0.51483 0.05449 0.0
O740 O 0.05884 0.52479 0.99744 0.0
O741 O 0.05744 0.52062 0.99469 0.0
O742 O 1.00418 0.51719 0.04478 0.0
Fe743 Fe 1.02616 0.47967 1.01446 0.0
C744 C 0.98008 0.58983 0.08534 0.0
O745 O 1.00366 0.55679 0.99268 0.0
O746 O 0.95038 0.54997 0.02374 0.0
O747 O 0.05559 0.44595 0.97895 0.0
O748 O 0.09775 0.48476 0.94933 0.0
O749 O 0.10669 0.56708 0.96179 0.0
O750 O 0.07261 0.59939 1.00123 0.0
O751 O 0.94116 0.47443 1.01673 0.0
O752 O 0.98989 0.47127 0.98016 0.0
C753 C 0.09426 0.59509 0.97375 0.0
O754 O 0.06084 0.48418 0.04828 0.0
O755 O 0.11215 0.48986 1.01427 0.0
O756 O 1.00697 0.5964 0.0616 0.0
O757 O 0.96335 0.55834 0.09029 0.0
C758 C 0.9709 0.55787 0.99742 0.0
C759 C 0.95596 0.46365 0.98805 0.0
C760 C 0.96882 0.44835 0.06949 0.0
O761 O 0.95603 0.4764 0.08021 0.0
O762 O 0.9904 0.44307 0.04194 0.0
C763 C 0.08075 0.45318 0.95386 0.0
O764 O 0.12166 0.5657 0.02539 0.0
O765 O 0.07318 0.57089 0.0621 0.0
C766 C 0.09264 0.47975 0.04034 0.0
C767 C 0.10724 0.57639 0.05437 0.0
Fe768 Fe 0.52907 0.51702 0.98894 0.0
O769 O 0.55748 0.54613 0.02401 0.0
Fe770 Fe 0.44342 0.49448 0.03194 0.0
Fe771 Fe 0.60908 0.54833 0.02205 0.0
O772 O 0.4949 0.49836 0.02677 0.0
O773 O 0.49503 0.49759 0.0298 0.0
O774 O 0.55764 0.54527 0.02702 0.0
Fe775 Fe 0.52308 0.52693 0.06491 0.0
C776 C 0.58641 0.47743 0.98587 0.0
O777 O 0.56918 0.54112 0.95344 0.0
O778 O 0.6122 0.57665 0.98395 0.0
O779 O 0.49844 0.56646 0.06569 0.0
O780 O 0.44191 0.53757 0.06832 0.0
O781 O 0.44681 0.5268 0.99754 0.0
O782 O 0.50327 0.55666 0.98934 0.0
O783 O 0.60575 0.58715 0.06225 0.0
O784 O 0.55663 0.56111 0.09673 0.0
C785 C 0.47005 0.55325 0.98879 0.0
O786 O 0.48284 0.50382 0.10062 0.0
O787 O 0.44153 0.46607 0.06967 0.0
O788 O 0.5535 0.47697 0.98844 0.0
O789 O 0.60987 0.50578 0.98555 0.0
C790 C 0.59692 0.56696 0.95722 0.0
C791 C 0.58567 0.58478 0.0908 0.0
C792 C 0.58114 0.49075 0.06733 0.0
O793 O 0.60514 0.51589 0.05688 0.0
O794 O 0.54829 0.48736 0.06535 0.0
C795 C 0.46542 0.5661 0.07014 0.0
O796 O 0.44696 0.45581 0.99144 0.0
O797 O 0.49531 0.48307 0.95699 0.0
C798 C 0.45626 0.47693 0.09662 0.0
C799 C 0.46653 0.45901 0.96276 0.0
Fe800 Fe 0.03598 0.44105 0.51938 0.0
O801 O 0.04617 0.49227 0.52346 0.0
Fe802 Fe 0.03981 0.5154 0.48374 0.0
Fe803 Fe 1.02438 0.5233 0.56149 0.0
O804 O 0.04909 0.49274 0.51986 0.0
O805 O 1.01786 0.54628 0.52173 0.0
O806 O 1.01468 0.54567 0.52535 0.0
Fe807 Fe 1.02775 0.5974 0.52563 0.0
C808 C 0.96988 0.45685 0.56912 0.0
O809 O 0.06511 0.45291 0.5588 0.0
O810 O 0.04079 0.49653 0.59364 0.0
O811 O 0.07163 0.60017 0.48953 0.0
O812 O 0.08959 0.54983 0.48108 0.0
O813 O 0.06464 0.47858 0.44831 0.0
O814 O 0.0777 0.44301 0.48056 0.0
O815 O 0.0735 0.55643 0.5615 0.0
O816 O 0.06092 0.60811 0.56256 0.0
C817 C 0.08114 0.4549 0.45265 0.0
O818 O 0.99901 0.58546 0.48585 0.0
O819 O 1.02463 0.54253 0.4515 0.0
O820 O 0.99261 0.43837 0.55623 0.0
O821 O 0.97459 0.48868 0.5644 0.0
C822 C 0.06037 0.47299 0.58719 0.0
C823 C 0.07977 0.58936 0.57016 0.0
C824 C 0.98259 0.58366 0.59218 0.0
O825 O 0.99934 0.56027 0.59682 0.0
O826 O 0.9859 0.59518 0.5641 0.0
C827 C 0.09455 0.58186 0.47676 0.0
O828 O 0.99057 0.48262 0.48323 0.0
O829 O 1.00257 0.43073 0.48247 0.0
C830 C 1.00518 0.56605 0.45735 0.0
C831 C 0.98414 0.44973 0.47451 0.0
Fe832 Fe 0.52575 0.98164 0.52021 0.0
O833 O 0.50594 1.02038 0.55043 0.0
Fe834 Fe 0.55225 1.01491 0.44602 0.0
Fe835 Fe 0.50533 0.02875 0.59907 0.0
O836 O 0.55147 1.01995 0.49414 0.0
O837 O 0.5517 0.02377 0.49465 0.0
O838 O 0.50639 0.02425 0.55102 0.0
Fe839 Fe 0.53219 0.06264 0.5251 0.0
C840 C 0.47066 0.95235 0.57799 0.0
O841 O 0.56838 0.99025 0.54603 0.0
O842 O 0.54081 0.99729 0.59798 0.0
O843 O 0.56271 0.09735 0.49278 0.0
O844 O 0.58922 0.0617 0.4498 0.0
O845 O 0.58516 0.98095 0.44552 0.0
O846 O 0.55236 0.94644 0.48432 0.0
O847 O 0.547 0.07229 0.602 0.0
O848 O 0.57575 0.07342 0.55063 0.0
C849 C 0.57766 0.95253 0.45911 0.0
O850 O 0.48945 0.05432 0.49964 0.0
O851 O 0.5158 0.04498 0.44726 0.0
O852 O 0.49475 0.94692 0.55247 0.0
O853 O 0.46765 0.98287 0.59452 0.0
C854 C 0.56629 0.9886 0.57679 0.0
C855 C 0.57509 0.08168 0.58195 0.0
C856 C 0.48164 0.09263 0.58699 0.0
O857 O 0.47323 0.06382 0.6 0.0
O858 O 0.50668 0.09844 0.56158 0.0
C859 C 0.58562 0.09212 0.46627 0.0
O860 O 0.51135 0.97044 0.44315 0.0
O861 O 0.48228 0.97025 0.49433 0.0
C862 C 0.49064 0.05402 0.46863 0.0
C863 C 0.48312 0.96116 0.46307 0.0
H864 H 0.23118 0.16609 0.32845 0.0
H865 H 0.15039 0.22354 0.32605 0.0
H866 H 0.10947 0.18952 0.36723 0.0
H867 H 0.17053 0.08186 0.33555 0.0
H868 H 0.19506 0.06975 0.36308 0.0
H869 H 0.21804 0.09856 0.33341 0.0
H870 H 0.24312 0.145 0.38087 0.0
H871 H 0.22022 0.1164 0.41074 0.0
H872 H 0.21277 0.16017 0.4155 0.0
H873 H 0.0792 0.15264 0.41181 0.0
H874 H 0.05982 0.11228 0.45329 0.0
H875 H 0.15716 0.07395 0.42334 0.0
C876 C 0.20482 0.17143 0.33647 0.0
C877 C 0.19399 0.19755 0.32395 0.0
C878 C 0.15924 0.2036 0.33508 0.0
C879 C 0.13585 0.18447 0.35857 0.0
C880 C 0.14741 0.15905 0.37049 0.0
C881 C 0.18093 0.15223 0.35961 0.0
C882 C 0.1866 0.12331 0.37629 0.0
C883 C 0.19292 0.09148 0.35054 0.0
C884 C 0.21751 0.13705 0.39708 0.0
C885 C 0.15099 0.11492 0.3983 0.0
C886 C 0.12899 0.13616 0.39474 0.0
C887 C 0.09572 0.13506 0.41391 0.0
C888 C 0.08447 0.1114 0.43698 0.0
C889 C 0.10561 0.08817 0.44025 0.0
C890 C 0.13967 0.09042 0.42078 0.0
H891 H 0.9121 0.21264 0.41892 0.0
H892 H 0.95776 0.15883 0.32664 0.0
H893 H 0.98099 0.12394 0.35806 0.0
H894 H 0.98451 0.21802 0.46497 0.0
H895 H 0.95608 0.21048 0.50352 0.0
H896 H 0.94235 0.23124 0.47416 0.0
H897 H 0.88359 0.18387 0.4729 0.0
H898 H 0.89689 0.16332 0.50263 0.0
H899 H 0.88559 0.13822 0.46358 0.0
H900 H 0.99601 0.09331 0.39808 0.0
H901 H 1.00362 0.06806 0.44582 0.0
H902 H 0.95262 0.14398 0.51348 0.0
C903 C 0.92676 0.19324 0.40559 0.0
C904 C 0.93308 0.18781 0.3706 0.0
C905 C 0.95265 0.16281 0.35353 0.0
C906 C 0.96599 0.14313 0.37111 0.0
C907 C 0.95974 0.14923 0.40565 0.0
C908 C 0.94065 0.17359 0.42284 0.0
C909 C 0.93784 0.17465 0.46007 0.0
C910 C 0.9563 0.21075 0.47665 0.0
C911 C 0.89865 0.16439 0.47571 0.0
C912 C 0.95808 0.14685 0.46097 0.0
C913 C 0.97033 0.1326 0.42918 0.0
C914 C 0.9874 0.10477 0.4231 0.0
C915 C 0.99182 0.09082 0.45027 0.0
C916 C 0.98045 0.1055 0.48298 0.0
C917 C 0.96312 0.13368 0.4886 0.0
H918 H 0.88796 0.83007 0.3314 0.0
H919 H 0.78072 0.84435 0.36902 0.0
H920 H 0.79975 0.87198 0.42341 0.0
H921 H 0.91536 0.81568 0.40532 0.0
H922 H 0.95913 0.84365 0.39954 0.0
H923 H 0.9374 0.82191 0.36401 0.0
H924 H 0.94568 0.88052 0.34392 0.0
H925 H 0.9649 0.90598 0.37966 0.0
H926 H 0.92559 0.9146 0.36915 0.0
H927 H 0.82995 0.89787 0.47295 0.0
H928 H 0.87153 0.93158 0.51167 0.0
H929 H 0.96093 0.90541 0.44126 0.0
C930 C 0.8686 0.83885 0.35131 0.0
C931 C 0.83281 0.83472 0.34658 0.0
C932 C 0.80823 0.84734 0.37248 0.0
C933 C 0.8187 0.86261 0.40347 0.0
C934 C 0.85408 0.86585 0.4077 0.0
C935 C 0.87893 0.85529 0.3821 0.0
C936 C 0.91621 0.8667 0.39172 0.0
C937 C 0.93302 0.8351 0.39002 0.0
C938 C 0.9395 0.89344 0.36979 0.0
C939 C 0.90826 0.88395 0.42724 0.0
C940 C 0.87214 0.88285 0.4359 0.0
C941 C 0.85825 0.89876 0.46656 0.0
C942 C 0.88203 0.91766 0.48843 0.0
C943 C 0.91928 0.92062 0.47954 0.0
C944 C 0.93251 0.90265 0.44898 0.0
H945 H 0.09167 0.77219 0.39435 0.0
H946 H 0.03543 0.77025 0.31268 0.0
H947 H 1.01507 0.82367 0.3413 0.0
H948 H 0.03282 0.81881 0.46417 0.0
H949 H 0.07198 0.84395 0.48164 0.0
H950 H 0.0709 0.79967 0.46131 0.0
H951 H 0.12885 0.8217 0.42288 0.0
H952 H 0.12996 0.86618 0.44196 0.0
H953 H 0.12996 0.85466 0.39774 0.0
H954 H 1.01593 0.88453 0.37024 0.0
H955 H 1.0274 0.94389 0.4037 0.0
H956 H 0.08922 0.90757 0.46233 0.0
C957 C 0.07274 0.78158 0.38391 0.0
C958 C 0.06404 0.76686 0.35204 0.0
C959 C 0.04117 0.78073 0.3377 0.0
C960 C 1.02999 0.81132 0.35359 0.0
C961 C 0.04226 0.82749 0.38352 0.0
C962 C 0.06253 0.81264 0.39894 0.0
C963 C 0.07794 0.8379 0.42742 0.0
C964 C 0.06247 0.82427 0.4606 0.0
C965 C 0.11908 0.84553 0.42214 0.0
C966 C 0.06453 0.86967 0.42472 0.0
C967 C 0.04361 0.86317 0.39966 0.0
C968 C 1.03082 0.88968 0.39095 0.0
C969 C 0.03805 0.92328 0.4095 0.0
C970 C 0.05942 0.93015 0.4352 0.0
C971 C 0.07297 0.90305 0.4426 0.0
H972 H 0.12651 0.93417 0.70554 0.0
H973 H 0.18853 0.85849 0.654 0.0
H974 H 0.15785 0.85091 0.605 0.0
H975 H 0.04329 0.89698 0.66646 0.0
H976 H 0.03829 0.94066 0.66498 0.0
H977 H 0.05883 0.93269 0.69774 0.0
H978 H 0.11418 0.98129 0.68164 0.0
H979 H 0.09345 0.98834 0.64878 0.0
H980 H 0.13687 0.97776 0.63962 0.0
H981 H 0.12936 0.86017 0.55844 0.0
H982 H 0.10749 0.88737 0.51883 0.0
H983 H 0.06624 0.9577 0.60054 0.0
C984 C 0.13326 0.91557 0.68416 0.0
C985 C 0.15977 0.89688 0.68365 0.0
C986 C 0.1678 0.8727 0.65519 0.0
C987 C 0.15049 0.86817 0.62723 0.0
C988 C 0.12512 0.88785 0.62823 0.0
C989 C 0.1166 0.91109 0.65606 0.0
C990 C 0.0927 0.93302 0.64953 0.0
C991 C 0.05607 0.92532 0.67093 0.0
C992 C 0.11038 0.97239 0.65519 0.0
C993 C 0.0902 0.91956 0.61326 0.0
C994 C 0.10839 0.89296 0.60142 0.0
C995 C 0.11383 0.87997 0.56758 0.0
C996 C 0.10119 0.89527 0.54527 0.0
C997 C 0.08344 0.92298 0.55718 0.0
C998 C 0.07749 0.9348 0.5914 0.0
H999 H 0.16994 0.20827 0.71708 0.0
H1000 H 0.27549 0.18727 0.68555 0.0
H1001 H 0.25768 0.15674 0.63141 0.0
H1002 H 0.1294 0.12268 0.6828 0.0
H1003 H 0.0922 0.13176 0.66891 0.0
H1004 H 0.11009 0.15868 0.70475 0.0
H1005 H 0.12333 0.21581 0.6816 0.0
H1006 H 0.10347 0.19402 0.64505 0.0
H1007 H 0.14838 0.21969 0.64093 0.0
H1008 H 0.22917 0.13088 0.58059 0.0
H1009 H 0.18873 0.09852 0.54046 0.0
H1010 H 0.09908 0.13051 0.60634 0.0
C1011 C 0.18914 0.19716 0.69865 0.0
C1012 C 0.22444 0.20084 0.70472 0.0
C1013 C 0.24866 0.18518 0.68077 0.0
C1014 C 0.23879 0.16806 0.65 0.0
C1015 C 0.20415 0.16589 0.64417 0.0
C1016 C 0.17933 0.1789 0.66818 0.0
C1017 C 0.14271 0.16886 0.65712 0.0
C1018 C 0.11704 0.14416 0.67975 0.0
C1019 C 0.12862 0.20153 0.65616 0.0
C1020 C 0.15109 0.14961 0.62247 0.0
C1021 C 0.18686 0.14858 0.61555 0.0
C1022 C 0.20111 0.13139 0.58574 0.0
C1023 C 0.17793 0.11328 0.56304 0.0
C1024 C 0.14081 0.11217 0.57024 0.0
C1025 C 0.12739 0.13154 0.59991 0.0
H1026 H 0.9766 0.26574 0.63213 0.0
H1027 H 1.02728 0.2723 0.71851 0.0
H1028 H 0.05023 0.21969 0.69325 0.0
H1029 H 0.93856 0.18722 0.62969 0.0
H1030 H 0.94179 0.17193 0.58568 0.0
H1031 H 0.94399 0.21748 0.60056 0.0
H1032 H 1.0052 0.23475 0.56488 0.0
H1033 H 1.00265 0.18912 0.54843 0.0
H1034 H 0.04101 0.21428 0.56726 0.0
H1035 H 0.04568 0.15736 0.67112 0.0
H1036 H 1.03109 0.09548 0.64363 0.0
H1037 H 0.97738 0.12788 0.5752 0.0
C1038 C 0.99512 0.25761 0.64419 0.0
C1039 C 1.00037 0.27264 0.67695 0.0
C1040 C 1.02355 0.26121 0.6931 0.0
C1041 C 0.03626 0.231 0.67906 0.0
C1042 C 1.02595 0.21335 0.64877 0.0
C1043 C 1.00706 0.22698 0.63074 0.0
C1044 C 0.99282 0.19996 0.60269 0.0
C1045 C 0.9519 0.19381 0.60486 0.0
C1046 C 1.01156 0.21013 0.56881 0.0
C1047 C 1.00371 0.16842 0.60975 0.0
C1048 C 1.02346 0.17666 0.6358 0.0
C1049 C 0.03249 0.15074 0.64923 0.0
C1050 C 1.02329 0.11577 0.63415 0.0
C1051 C 1.00332 0.10718 0.60734 0.0
C1052 C 0.99311 0.13381 0.59542 0.0
H1053 H 0.82433 0.87167 0.71711 0.0
H1054 H 0.90752 0.8231 0.73232 0.0
H1055 H 0.95085 0.85893 0.69419 0.0
H1056 H 0.85209 0.87307 0.63081 0.0
H1057 H 0.84115 0.91452 0.63044 0.0
H1058 H 0.81709 0.88717 0.66097 0.0
H1059 H 0.83351 0.93824 0.70814 0.0
H1060 H 0.85751 0.96588 0.67779 0.0
H1061 H 0.8797 0.9593 0.71012 0.0
H1062 H 0.98365 0.89554 0.65041 0.0
H1063 H 1.00538 0.93414 0.60742 0.0
H1064 H 0.90158 0.96009 0.6207 0.0
C1065 C 0.8518 0.869 0.71289 0.0
C1066 C 0.86252 0.84473 0.72811 0.0
C1067 C 0.89866 0.84177 0.72145 0.0
C1068 C 0.92348 0.86189 0.69963 0.0
C1069 C 0.91187 0.885 0.68459 0.0
C1070 C 0.87696 0.88884 0.69106 0.0
C1071 C 0.87114 0.9145 0.67053 0.0
C1072 C 0.84375 0.89623 0.64678 0.0
C1073 C 0.8598 0.94638 0.693 0.0
C1074 C 0.9083 0.92459 0.65161 0.0
C1075 C 0.93126 0.90706 0.65999 0.0
C1076 C 0.96633 0.91035 0.64443 0.0
C1077 C 0.97851 0.93248 0.62003 0.0
C1078 C 0.95579 0.95115 0.61111 0.0
C1079 C 0.92008 0.94696 0.6273 0.0
H1080 H 0.37563 0.22819 0.20453 0.0
H1081 H 0.27619 0.15043 0.20466 0.0
H1082 H 0.30712 0.10828 0.16676 0.0
H1083 H 0.41109 0.20419 0.11824 0.0
H1084 H 0.45646 0.21107 0.12609 0.0
H1085 H 0.42648 0.23572 0.1527 0.0
H1086 H 0.43889 0.21403 0.20381 0.0
H1087 H 0.46894 0.18936 0.1774 0.0
H1088 H 0.43209 0.16754 0.20439 0.0
H1089 H 0.34935 0.07364 0.12818 0.0
H1090 H 0.39886 0.04973 0.09352 0.0
H1091 H 0.47239 0.14833 0.11934 0.0
C1092 C 0.36035 0.20226 0.19665 0.0
C1093 C 0.32292 0.19317 0.20726 0.0
C1094 C 0.30437 0.15874 0.19628 0.0
C1095 C 0.32192 0.13434 0.17489 0.0
C1096 C 0.35855 0.14418 0.16465 0.0
C1097 C 0.37765 0.17731 0.17529 0.0
C1098 C 0.41695 0.18099 0.16063 0.0
C1099 C 0.42841 0.2097 0.13808 0.0
C1100 C 0.44061 0.18842 0.18823 0.0
C1101 C 0.417 0.14474 0.1405 0.0
C1102 C 0.38294 0.12401 0.14301 0.0
C1103 C 0.37612 0.08971 0.12625 0.0
C1104 C 0.4046 0.07625 0.10651 0.0
C1105 C 0.44001 0.0967 0.10358 0.0
C1106 C 0.44595 0.13155 0.1211 0.0
H1107 H 0.85395 0.36993 0.22548 0.0
H1108 H 0.85326 0.26636 0.16953 0.0
H1109 H 0.89651 0.29245 0.12465 0.0
H1110 H 0.8565 0.41355 0.16022 0.0
H1111 H 0.88689 0.45319 0.17478 0.0
H1112 H 0.85916 0.42629 0.20403 0.0
H1113 H 0.914 0.421 0.22781 0.0
H1114 H 0.94256 0.44841 0.19914 0.0
H1115 H 0.95015 0.40571 0.20029 0.0
H1116 H 0.93549 0.33052 0.08396 0.0
H1117 H 0.96566 0.37774 0.05038 0.0
H1118 H 0.94252 0.45535 0.13488 0.0
C1119 C 0.863 0.35287 0.20374 0.0
C1120 C 0.85037 0.3164 0.20058 0.0
C1121 C 0.86288 0.29455 0.17216 0.0
C1122 C 0.88752 0.30904 0.14672 0.0
C1123 C 0.8997 0.34526 0.15058 0.0
C1124 C 0.88807 0.36682 0.17851 0.0
C1125 C 0.90412 0.40492 0.17612 0.0
C1126 C 0.87492 0.42569 0.17888 0.0
C1127 C 0.9292 0.42093 0.2024 0.0
C1128 C 0.92479 0.40155 0.14168 0.0
C1129 C 0.92264 0.36699 0.12751 0.0
C1130 C 0.93788 0.35772 0.09494 0.0
C1131 C 0.95498 0.38463 0.07611 0.0
C1132 C 0.95615 0.42008 0.09001 0.0
C1133 C 0.94185 0.42845 0.12349 0.0
H1134 H 0.73654 0.97126 0.14709 0.0
H1135 H 0.67587 0.87684 0.18648 0.0
H1136 H 0.6267 0.87634 0.15609 0.0
H1137 H 0.66234 1.01174 0.15735 0.0
H1138 H 0.6775 0.03226 0.12038 0.0
H1139 H 0.70938 0.02352 0.14266 0.0
H1140 H 0.73588 0.98791 0.08932 0.0
H1141 H 0.70445 0.99692 0.06674 0.0
H1142 H 0.70681 0.95226 0.06712 0.0
H1143 H 0.58369 0.88642 0.12061 0.0
H1144 H 0.55067 0.90733 0.085 0.0
H1145 H 0.63689 0.99861 0.07504 0.0
C1146 C 0.71292 0.95053 0.14981 0.0
C1147 C 0.71053 0.92407 0.16947 0.0
C1148 C 0.67908 0.89712 0.17124 0.0
C1149 C 0.65071 0.89677 0.15426 0.0
C1150 C 0.65383 0.92376 0.13585 0.0
C1151 C 0.68413 0.95021 0.13371 0.0
C1152 C 0.68045 0.97704 0.11351 0.0
C1153 C 0.68254 1.01329 0.13474 0.0
C1154 C 0.70857 0.9786 0.08232 0.0
C1155 C 0.6433 0.96164 0.10457 0.0
C1156 C 0.62847 0.93064 0.11729 0.0
C1157 C 0.59495 0.91084 0.11086 0.0
C1158 C 0.57638 0.9229 0.09068 0.0
C1159 C 0.59102 0.9548 0.07777 0.0
C1160 C 0.62472 0.97452 0.0852 0.0
H1161 H 0.18635 0.69632 0.21886 0.0
H1162 H 0.29039 0.69706 0.16002 0.0
H1163 H 0.26187 0.65935 0.11414 0.0
H1164 H 0.14429 0.60607 0.18859 0.0
H1165 H 0.10181 0.61558 0.18685 0.0
H1166 H 0.12982 0.64197 0.21654 0.0
H1167 H 0.1282 0.69778 0.19366 0.0
H1168 H 0.10017 0.67163 0.16389 0.0
H1169 H 0.14155 0.70023 0.14998 0.0
H1170 H 0.22433 0.62208 0.07493 0.0
H1171 H 0.17935 0.58841 0.04123 0.0
H1172 H 0.09539 0.61097 0.12117 0.0
C1173 C 0.20312 0.68833 0.19638 0.0
C1174 C 0.24106 0.69927 0.19364 0.0
C1175 C 0.26168 0.68858 0.16347 0.0
C1176 C 0.24559 0.66721 0.13699 0.0
C1177 C 0.20853 0.65675 0.14054 0.0
C1178 C 0.18729 0.667 0.16921 0.0
C1179 C 0.14784 0.65239 0.16536 0.0
C1180 C 0.12988 0.62753 0.19086 0.0
C1181 C 0.12828 0.6823 0.1684 0.0
C1182 C 0.1505 0.63238 0.13 0.0
C1183 C 0.18603 0.63543 0.1167 0.0
C1184 C 0.19642 0.6196 0.08497 0.0
C1185 C 0.17014 0.60032 0.06591 0.0
C1186 C 0.13308 0.59667 0.07798 0.0
C1187 C 0.1232 0.61301 0.11088 0.0
H1188 H 0.35139 0.80865 0.85548 0.0
H1189 H 0.31679 0.89095 0.82216 0.0
H1190 H 0.3442 0.93399 0.86648 0.0
H1191 H 0.33964 0.83993 0.94327 0.0
H1192 H 0.37944 0.82847 0.95023 0.0
H1193 H 0.35543 0.80376 0.91701 0.0
H1194 H 0.41272 0.81612 0.87455 0.0
H1195 H 0.43702 0.8404 0.90765 0.0
H1196 H 0.43651 0.86076 0.87223 0.0
H1197 H 0.3758 0.96847 0.91531 0.0
H1198 H 0.41539 0.99186 0.95879 0.0
H1199 H 0.43091 0.88734 0.95781 0.0
C1200 C 0.34941 0.83568 0.85746 0.0
C1201 C 0.33129 0.84615 0.83557 0.0
C1202 C 0.33003 0.88202 0.83885 0.0
C1203 C 0.34544 0.90673 0.86406 0.0
C1204 C 0.36249 0.89534 0.8856 0.0
C1205 C 0.36503 0.86073 0.88216 0.0
C1206 C 0.3867 0.8555 0.90705 0.0
C1207 C 0.36393 0.83043 0.93079 0.0
C1208 C 0.42023 0.84244 0.88931 0.0
C1209 C 0.39616 0.89259 0.92495 0.0
C1210 C 0.38153 0.9152 0.91267 0.0
C1211 C 0.3873 0.95094 0.92515 0.0
C1212 C 0.40952 0.96401 0.95005 0.0
C1213 C 0.42603 0.94143 0.96173 0.0
C1214 C 0.41852 0.90521 0.94942 0.0
H1215 H 0.21146 0.31988 0.87464 0.0
H1216 H 0.18309 0.32438 0.77895 0.0
H1217 H 0.14081 0.36118 0.80647 0.0
H1218 H 0.12065 0.31508 0.92014 0.0
H1219 H 0.13479 0.3422 0.95745 0.0
H1220 H 0.16344 0.31599 0.9313 0.0
H1221 H 0.21452 0.37034 0.92556 0.0
H1222 H 0.18662 0.39699 0.95246 0.0
H1223 H 0.20642 0.40792 0.91185 0.0
H1224 H 0.10202 0.39948 0.84408 0.0
H1225 H 0.07174 0.43721 0.88867 0.0
H1226 H 0.12162 0.40722 0.96135 0.0
C1227 C 0.19607 0.32817 0.85949 0.0
C1228 C 0.20079 0.31843 0.82429 0.0
C1229 C 0.18026 0.33086 0.80575 0.0
C1230 C 0.15592 0.35191 0.82126 0.0
C1231 C 0.15159 0.36056 0.85577 0.0
C1232 C 0.17103 0.34906 0.87479 0.0
C1233 C 0.16124 0.36268 0.91156 0.0
C1234 C 0.14399 0.33216 0.93127 0.0
C1235 C 0.19416 0.38587 0.92622 0.0
C1236 C 0.13394 0.38407 0.91009 0.0
C1237 C 0.12866 0.38222 0.87759 0.0
C1238 C 0.10566 0.4006 0.86963 0.0
C1239 C 0.0882 0.4218 0.89523 0.0
C1240 C 0.09305 0.42442 0.92882 0.0
C1241 C 0.11618 0.40491 0.9362 0.0
H1242 H 0.71978 0.23984 0.88156 0.0
H1243 H 0.71217 0.16649 0.79037 0.0
H1244 H 0.67433 0.12054 0.82203 0.0
H1245 H 0.72482 0.17548 0.93212 0.0
H1246 H 0.69947 0.19434 0.96874 0.0
H1247 H 0.72574 0.22178 0.93905 0.0
H1248 H 0.66975 0.24284 0.9323 0.0
H1249 H 0.64424 0.21645 0.96304 0.0
H1250 H 0.62998 0.21048 0.92295 0.0
H1251 H 0.6358 0.08204 0.86434 0.0
H1252 H 0.60097 0.05525 0.913 0.0
H1253 H 0.63375 0.1533 0.97683 0.0
C1254 C 0.70999 0.21414 0.86826 0.0
C1255 C 0.71919 0.20687 0.83332 0.0
C1256 C 0.70594 0.17275 0.81704 0.0
C1257 C 0.68423 0.14643 0.83487 0.0
C1258 C 0.67584 0.15431 0.86925 0.0
C1259 C 0.68844 0.18736 0.88581 0.0
C1260 C 0.67626 0.18869 0.923 0.0
C1261 C 0.70849 0.19547 0.94184 0.0
C1262 C 0.65372 0.2163 0.93606 0.0
C1263 C 0.65374 0.15181 0.92463 0.0
C1264 C 0.65413 0.1322 0.89343 0.0
C1265 C 0.63535 0.09731 0.88885 0.0
C1266 C 0.61556 0.08223 0.91672 0.0
C1267 C 0.61418 0.10199 0.94897 0.0
C1268 C 0.6338 0.13731 0.95265 0.0
H1269 H 0.90659 0.69083 0.91069 0.0
H1270 H 0.92291 0.62131 0.81815 0.0
H1271 H 0.93485 0.57856 0.84871 0.0
H1272 H 0.97502 0.67628 0.9467 0.0
H1273 H 0.95169 0.67707 0.98845 0.0
H1274 H 0.94048 0.70082 0.96012 0.0
H1275 H 0.87451 0.66757 0.96946 0.0
H1276 H 0.88547 0.64385 0.99806 0.0
H1277 H 0.86391 0.62031 0.96293 0.0
H1278 H 0.95258 0.54696 0.88761 0.0
H1279 H 0.97126 0.52668 0.93359 0.0
H1280 H 0.94047 0.61415 1.00194 0.0
C1281 C 0.91173 0.6662 0.89702 0.0
C1282 C 0.91399 0.6595 0.86197 0.0
C1283 C 0.92147 0.62722 0.84492 0.0
C1284 C 0.92809 0.60266 0.86208 0.0
C1285 C 0.92675 0.61047 0.89643 0.0
C1286 C 0.91831 0.64121 0.91386 0.0
C1287 C 0.92065 0.64388 0.95056 0.0
C1288 C 0.94863 0.67644 0.96212 0.0
C1289 C 0.88394 0.6439 0.97149 0.0
C1290 C 0.93261 0.61032 0.9508 0.0
C1291 C 0.93589 0.59144 0.91926 0.0
C1292 C 0.94938 0.56107 0.91254 0.0
C1293 C 0.95998 0.54979 0.93869 0.0
C1294 C 0.95659 0.56854 0.97116 0.0
C1295 C 0.94234 0.59892 0.97741 0.0
H1296 H 0.10608 0.3927 0.19581 0.0
H1297 H 0.16083 0.32017 0.12571 0.0
H1298 H 0.16022 0.35278 0.08125 0.0
H1299 H 0.0452 0.39296 0.13981 0.0
H1300 H 0.04262 0.43794 0.15451 0.0
H1301 H 0.05117 0.41163 0.18209 0.0
H1302 H 0.10879 0.45783 0.19388 0.0
H1303 H 0.10055 0.48416 0.16613 0.0
H1304 H 0.14233 0.47045 0.15968 0.0
H1305 H 0.15476 0.3942 0.04376 0.0
H1306 H 0.13734 0.43551 1.01518 0.0
H1307 H 0.07675 0.47372 0.10712 0.0
C1308 C 0.11758 0.38271 0.17132 0.0
C1309 C 0.13398 0.35338 0.16539 0.0
C1310 C 0.14916 0.34292 0.13224 0.0
C1311 C 0.14864 0.36118 0.10631 0.0
C1312 C 0.13195 0.38942 0.11331 0.0
C1313 C 0.11597 0.39961 0.14486 0.0
C1314 C 0.09698 0.42889 0.14528 0.0
C1315 C 0.05661 0.41715 0.15606 0.0
C1316 C 0.11314 0.46231 0.16757 0.0
C1317 C 0.10507 0.43375 0.10899 0.0
C1318 C 0.12595 0.4112 0.09114 0.0
C1319 C 0.13807 0.41166 0.05743 0.0
C1320 C 0.12811 0.43531 0.04142 0.0
C1321 C 0.10541 0.45759 0.05882 0.0
C1322 C 0.09388 0.4568 0.09313 0.0
H1323 H 0.19757 0.67993 0.81738 0.0
H1324 H 0.227 0.77624 0.88451 0.0
H1325 H 0.18423 0.75071 0.92994 0.0
H1326 H 0.10283 0.65692 0.85311 0.0
H1327 H 0.10268 0.61082 0.84741 0.0
H1328 H 0.13162 0.63843 0.81909 0.0
H1329 H 0.18654 0.61903 0.83093 0.0
H1330 H 0.15786 0.59109 0.85886 0.0
H1331 H 0.19493 0.62387 0.87322 0.0
H1332 H 0.14217 0.71323 0.96865 0.0
H1333 H 0.10956 0.66445 0.99935 0.0
H1334 H 0.11019 0.59231 0.90705 0.0
C1335 C 0.19481 0.69568 0.84161 0.0
C1336 C 0.21495 0.73011 0.84756 0.0
C1337 C 0.2111 0.74993 0.87953 0.0
C1338 C 0.18683 0.73576 0.90534 0.0
C1339 C 0.16696 0.70175 0.8986 0.0
C1340 C 0.17098 0.68186 0.8676 0.0
C1341 C 0.14948 0.64483 0.86761 0.0
C1342 C 0.11989 0.63732 0.8455 0.0
C1343 C 0.17365 0.61816 0.85706 0.0
C1344 C 0.13416 0.64646 0.90387 0.0
C1345 C 0.14358 0.67976 0.92115 0.0
C1346 C 0.13421 0.68712 0.95538 0.0
C1347 C 0.1157 0.65937 0.97256 0.0
C1348 C 0.10768 0.62487 0.95539 0.0
C1349 C 0.11612 0.61857 0.92061 0.0
H1350 H 0.43735 0.16459 0.85709 0.0
H1351 H 0.3294 0.1088 0.88692 0.0
H1352 H 0.35086 0.08508 0.929 0.0
H1353 H 0.48229 0.09974 0.86545 0.0
H1354 H 0.51949 0.12997 0.88243 0.0
H1355 H 0.49581 0.14374 0.85534 0.0
H1356 H 0.48386 0.19568 0.90024 0.0
H1357 H 0.50783 0.18227 0.92735 0.0
H1358 H 0.46267 0.18738 0.9413 0.0
H1359 H 0.38424 0.06364 0.96418 0.0
H1360 H 0.42693 0.05057 0.99524 0.0
H1361 H 0.51317 0.12285 0.94577 0.0
C1362 C 0.41831 0.14757 0.8727 0.0
C1363 C 0.38173 0.13835 0.86881 0.0
C1364 C 0.35745 0.11626 0.88973 0.0
C1365 C 0.36942 0.10259 0.91355 0.0
C1366 C 0.40567 0.11175 0.91649 0.0
C1367 C 0.42974 0.13421 0.8971 0.0
C1368 C 0.46725 0.14 0.90564 0.0
C1369 C 0.4927 0.12761 0.87541 0.0
C1370 C 0.4812 0.17863 0.91946 0.0
C1371 C 0.46056 0.11666 0.93234 0.0
C1372 C 0.42484 0.10046 0.93796 0.0
C1373 C 0.41217 0.07645 0.9603 0.0
C1374 C 0.43656 0.06901 0.9776 0.0
C1375 C 0.47306 0.08568 0.97268 0.0
C1376 C 0.48526 0.10998 0.94996 0.0
H1377 H 0.87277 0.36326 0.81987 0.0
H1378 H 0.77768 0.3241 0.88614 0.0
H1379 H 0.80702 0.35588 0.93419 0.0
H1380 H 0.93578 0.35654 0.8714 0.0
H1381 H 0.96748 0.39608 0.86231 0.0
H1382 H 0.939 0.37167 0.83221 0.0
H1383 H 0.91586 0.42694 0.8306 0.0
H1384 H 0.94442 0.4517 0.86048 0.0
H1385 H 0.89714 0.45 0.86872 0.0
H1386 H 0.84596 0.38877 0.97496 0.0
H1387 H 0.89103 0.4252 1.00786 0.0
H1388 H 0.96394 0.44587 0.91764 0.0
C1389 C 0.85803 0.36178 0.84453 0.0
C1390 C 0.82249 0.34145 0.84907 0.0
C1391 C 0.80439 0.33995 0.88177 0.0
C1392 C 0.82106 0.35766 0.90933 0.0
C1393 C 0.85605 0.37691 0.90407 0.0
C1394 C 0.87442 0.37943 0.8726 0.0
C1395 C 0.91208 0.40191 0.87448 0.0
C1396 C 0.94026 0.38026 0.85919 0.0
C1397 C 0.9177 0.43458 0.85756 0.0
C1398 C 0.91178 0.41177 0.912 0.0
C1399 C 0.87905 0.3966 0.9282 0.0
C1400 C 0.87154 0.40104 0.96256 0.0
C1401 C 0.89761 0.42207 0.98108 0.0
C1402 C 0.93131 0.43914 0.96567 0.0
C1403 C 0.93866 0.43336 0.93038 0.0
H1404 H 0.75234 0.86118 0.87305 0.0
H1405 H 0.69018 0.82827 0.79147 0.0
H1406 H 0.64993 0.86679 0.81887 0.0
H1407 H 0.67746 0.86309 0.93719 0.0
H1408 H 0.69779 0.9017 0.96325 0.0
H1409 H 0.72511 0.87441 0.93689 0.0
H1410 H 0.76318 0.92605 0.90874 0.0
H1411 H 0.73715 0.95463 0.93553 0.0
H1412 H 0.74177 0.95245 0.89109 0.0
H1413 H 0.61537 0.90745 0.8546 0.0
H1414 H 0.58395 0.94295 0.89956 0.0
H1415 H 0.66455 0.94967 0.96195 0.0
C1416 C 0.73034 0.86195 0.86098 0.0
C1417 C 0.72462 0.84092 0.82974 0.0
C1418 C 0.69527 0.84344 0.81514 0.0
C1419 C 0.67226 0.86562 0.83057 0.0
C1420 C 0.67845 0.8856 0.86116 0.0
C1421 C 0.70645 0.88384 0.87658 0.0
C1422 C 0.70538 0.90703 0.91052 0.0
C1423 C 0.70113 0.88522 0.93862 0.0
C1424 C 0.73887 0.93681 0.91153 0.0
C1425 C 0.67204 0.92134 0.91184 0.0
C1426 C 0.65759 0.90896 0.8826 0.0
C1427 C 0.62651 0.91736 0.87755 0.0
C1428 C 0.60888 0.93776 0.90332 0.0
C1429 C 0.62174 0.9496 0.93435 0.0
C1430 C 0.65439 0.94187 0.93836 0.0
H1431 H 0.82314 0.67279 0.20274 0.0
H1432 H 0.89763 0.77329 0.21244 0.0
H1433 H 0.94399 0.74718 0.17464 0.0
H1434 H 0.88428 0.62096 0.20407 0.0
H1435 H 0.86788 0.58518 0.17312 0.0
H1436 H 0.83809 0.61121 0.1975 0.0
H1437 H 0.82047 0.62697 0.1469 0.0
H1438 H 0.84808 0.59949 0.12086 0.0
H1439 H 0.85462 0.64464 0.11522 0.0
H1440 H 0.9837 0.70816 0.13436 0.0
H1441 H 1.01133 0.6611 0.09946 0.0
H1442 H 0.91189 0.58585 0.11901 0.0
C1443 C 0.84915 0.68944 0.19688 0.0
C1444 C 0.85611 0.72565 0.21031 0.0
C1445 C 0.89087 0.74596 0.20193 0.0
C1446 C 0.91767 0.73115 0.18055 0.0
C1447 C 0.90988 0.69551 0.16764 0.0
C1448 C 0.87635 0.67495 0.17564 0.0
C1449 C 0.87487 0.63721 0.15907 0.0
C1450 C 0.86584 0.61215 0.18504 0.0
C1451 C 0.84792 0.62645 0.13402 0.0
C1452 C 0.91291 0.63937 0.14141 0.0
C1453 C 0.93269 0.6733 0.14602 0.0
C1454 C 0.96829 0.6815 0.13098 0.0
C1455 C 0.98392 0.65451 0.1111 0.0
C1456 C 0.96438 0.61929 0.10665 0.0
C1457 C 0.92823 0.61214 0.12219 0.0
H1458 H 0.34285 0.80341 0.15972 0.0
H1459 H 0.35966 0.87022 0.25336 0.0
H1460 H 0.39884 0.91679 0.2233 0.0
H1461 H 0.42821 0.82814 0.1117 0.0
H1462 H 0.41155 0.83066 0.0746 0.0
H1463 H 0.38528 0.80166 0.10258 0.0
H1464 H 0.33202 0.83044 0.10801 0.0
H1465 H 0.35765 0.85919 0.07915 0.0
H1466 H 0.33809 0.87724 0.11939 0.0
H1467 H 0.43726 0.9566 0.18262 0.0
H1468 H 0.47087 0.98562 0.13469 0.0
H1469 H 0.42709 0.89435 0.0675 0.0
C1470 C 0.35524 0.82768 0.17381 0.0
C1471 C 0.34863 0.83294 0.20899 0.0
C1472 C 0.36443 0.8655 0.22648 0.0
C1473 C 0.38677 0.89215 0.20959 0.0
C1474 C 0.39259 0.88638 0.17497 0.0
C1475 C 0.37696 0.85507 0.1572 0.0
C1476 C 0.38539 0.85684 0.1201 0.0
C1477 C 0.40375 0.82755 0.10123 0.0
C1478 C 0.35127 0.85588 0.10582 0.0
C1479 C 0.41053 0.89261 0.11982 0.0
C1480 C 0.41368 0.90966 0.15169 0.0
C1481 C 0.43499 0.94336 0.15754 0.0
C1482 C 0.45397 0.95974 0.13016 0.0
C1483 C 0.45204 0.94226 0.09726 0.0
C1484 C 0.42962 0.90834 0.0923 0.0
H1485 H 0.70436 0.17168 0.22536 0.0
H1486 H 0.78104 0.24117 0.16464 0.0
H1487 H 0.75883 0.20519 0.11396 0.0
H1488 H 0.70227 0.08884 0.16546 0.0
H1489 H 0.65468 0.07428 0.17633 0.0
H1490 H 0.68119 0.10139 0.20683 0.0
H1491 H 0.64008 0.1448 0.21659 0.0
H1492 H 0.614 0.1192 0.18538 0.0
H1493 H 0.63438 0.16456 0.18241 0.0
H1494 H 0.72485 0.16485 0.07038 0.0
H1495 H 0.67779 0.12785 0.0382 0.0
H1496 H 0.61985 0.08779 0.12753 0.0
C1497 C 0.71706 0.17859 0.20126 0.0
C1498 C 0.74479 0.20871 0.19863 0.0
C1499 C 0.76 0.2179 0.16694 0.0
C1500 C 0.74767 0.19754 0.13809 0.0
C1501 C 0.71971 0.16834 0.14142 0.0
C1502 C 0.70433 0.15909 0.17227 0.0
C1503 C 0.67176 0.12935 0.16939 0.0
C1504 C 0.67785 0.09648 0.18011 0.0
C1505 C 0.63808 0.14019 0.18962 0.0
C1506 C 0.67037 0.12421 0.13232 0.0
C1507 C 0.69894 0.14619 0.11649 0.0
C1508 C 0.70263 0.14724 0.08245 0.0
C1509 C 0.67594 0.12607 0.06431 0.0
C1510 C 0.64568 0.10478 0.0804 0.0
C1511 C 0.64316 0.10345 0.11467 0.0
H1512 H 0.75075 0.6871 0.84699 0.0
H1513 H 0.66681 0.7155 0.80829 0.0
H1514 H 0.6218 0.67332 0.83898 0.0
H1515 H 0.71134 0.59596 0.85169 0.0
H1516 H 0.72503 0.59705 0.89135 0.0
H1517 H 0.7511 0.6265 0.86335 0.0
H1518 H 0.74544 0.67958 0.90911 0.0
H1519 H 0.7195 0.65036 0.93735 0.0
H1520 H 0.70179 0.68528 0.92892 0.0
H1521 H 0.58567 0.62587 0.87276 0.0
H1522 H 0.56099 0.58533 0.91428 0.0
H1523 H 0.66731 0.59544 0.93776 0.0
C1524 C 0.72296 0.68419 0.84456 0.0
C1525 C 0.71267 0.70369 0.82387 0.0
C1526 C 0.67577 0.69987 0.82262 0.0
C1527 C 0.64985 0.6761 0.84022 0.0
C1528 C 0.66099 0.65707 0.86002 0.0
C1529 C 0.69661 0.6616 0.86298 0.0
C1530 C 0.70128 0.64086 0.88865 0.0
C1531 C 0.7235 0.61347 0.8728 0.0
C1532 C 0.71798 0.66548 0.91773 0.0
C1533 C 0.66275 0.62355 0.89932 0.0
C1534 C 0.63996 0.63266 0.88201 0.0
C1535 C 0.60324 0.61892 0.88676 0.0
C1536 C 0.58943 0.59587 0.91032 0.0
C1537 C 0.61208 0.58767 0.92956 0.0
C1538 C 0.64926 0.60153 0.92366 0.0
H1539 H 0.46616 0.6641 0.84944 0.0
H1540 H 0.35179 0.64733 0.88244 0.0
H1541 H 0.36017 0.62735 0.93232 0.0
H1542 H 0.47244 0.58501 0.86904 0.0
H1543 H 0.51618 0.6 0.88161 0.0
H1544 H 0.50354 0.62116 0.85207 0.0
H1545 H 0.51815 0.68107 0.88947 0.0
H1546 H 0.53116 0.66013 0.91914 0.0
H1547 H 0.49758 0.68584 0.93219 0.0
H1548 H 0.37822 0.60207 0.9746 0.0
H1549 H 0.4042 0.56779 1.00377 0.0
H1550 H 0.50621 0.59575 0.94255 0.0
C1551 C 0.4428 0.65665 0.8672 0.0
C1552 C 0.40836 0.65833 0.86187 0.0
C1553 C 0.37873 0.64797 0.88608 0.0
C1554 C 0.38313 0.63626 0.91465 0.0
C1555 C 0.41722 0.63447 0.91873 0.0
C1556 C 0.44656 0.644 0.89556 0.0
C1557 C 0.47924 0.63443 0.90346 0.0
C1558 C 0.49368 0.60862 0.87485 0.0
C1559 C 0.50824 0.66734 0.91156 0.0
C1560 C 0.46327 0.61704 0.93406 0.0
C1561 C 0.42764 0.61816 0.94278 0.0
C1562 C 0.4062 0.60141 0.96834 0.0
C1563 C 0.42119 0.58192 0.98469 0.0
C1564 C 0.45723 0.57912 0.97532 0.0
C1565 C 0.47882 0.59791 0.95047 0.0
H1566 H 0.32431 0.37261 0.83898 0.0
H1567 H 0.38637 0.29306 0.80246 0.0
H1568 H 0.43237 0.32546 0.83732 0.0
H1569 H 0.40082 0.44857 0.84762 0.0
H1570 H 0.37878 0.46896 0.88547 0.0
H1571 H 0.35288 0.44195 0.85445 0.0
H1572 H 0.31621 0.40356 0.89843 0.0
H1573 H 0.34203 0.43027 0.92953 0.0
H1574 H 0.33911 0.38361 0.92145 0.0
H1575 H 0.47027 0.36466 0.87804 0.0
H1576 H 0.49554 0.40674 0.92455 0.0
H1577 H 0.40724 0.45843 0.93717 0.0
C1578 C 0.34804 0.36259 0.83778 0.0
C1579 C 0.35206 0.33063 0.81787 0.0
C1580 C 0.38291 0.31765 0.81753 0.0
C1581 C 0.40925 0.3359 0.83712 0.0
C1582 C 0.40425 0.367 0.85704 0.0
C1583 C 0.3744 0.38025 0.85762 0.0
C1584 C 0.37412 0.41261 0.88334 0.0
C1585 C 0.37682 0.44494 0.86672 0.0
C1586 C 0.3409 0.40716 0.90975 0.0
C1587 C 0.40789 0.41484 0.89767 0.0
C1588 C 0.42531 0.38875 0.88166 0.0
C1589 C 0.45699 0.38533 0.8907 0.0
C1590 C 0.47113 0.40916 0.91701 0.0
C1591 C 0.45307 0.43533 0.93413 0.0
C1592 C 0.42127 0.43835 0.92429 0.0
H1593 H 0.67249 0.32875 0.89797 0.0
H1594 H 0.58751 0.25924 0.95272 0.0
H1595 H 0.5788 0.30939 0.9949 0.0
H1596 H 0.70101 0.39651 0.97619 0.0
H1597 H 0.71083 0.42976 0.94947 0.0
H1598 H 0.71903 0.38664 0.93326 0.0
H1599 H 0.67874 0.38359 0.88685 0.0
H1600 H 0.6712 0.4259 0.90496 0.0
H1601 H 0.63384 0.38927 0.90001 0.0
H1602 H 0.56282 0.36612 1.01541 0.0
H1603 H 0.54858 0.42369 1.01845 0.0
H1604 H 0.64706 0.45738 0.95463 0.0
C1605 C 0.65316 0.3228 0.91929 0.0
C1606 C 0.62933 0.28968 0.92035 0.0
C1607 C 0.60493 0.28447 0.94974 0.0
C1608 C 0.6002 0.31286 0.97441 0.0
C1609 C 0.62113 0.34599 0.97013 0.0
C1610 C 0.64829 0.35078 0.94394 0.0
C1611 C 0.66278 0.38924 0.94111 0.0
C1612 C 0.70066 0.40128 0.95057 0.0
C1613 C 0.66154 0.39743 0.90623 0.0
C1614 C 0.63651 0.40506 0.96695 0.0
C1615 C 0.6132 0.37982 0.9841 0.0
C1616 C 0.58181 0.3864 1.00341 0.0
C1617 C 0.57362 0.41895 1.00449 0.0
C1618 C 0.59694 0.44467 0.98668 0.0
C1619 C 0.6294 0.43822 0.96899 0.0
H1620 H 0.72512 0.42109 0.13322 0.0
H1621 H 0.64449 0.39437 0.21698 0.0
H1622 H 0.59879 0.40414 0.18785 0.0
H1623 H 0.69509 0.49293 0.12334 0.0
H1624 H 0.7054 0.48768 0.07871 0.0
H1625 H 0.73037 0.47136 0.10265 0.0
H1626 H 0.71421 0.40942 0.06863 0.0
H1627 H 0.68895 0.42565 0.04469 0.0
H1628 H 0.66801 0.38874 0.06615 0.0
H1629 H 0.56266 0.42313 0.15244 0.0
H1630 H 0.54097 0.45459 0.11652 0.0
H1631 H 0.64613 0.47373 0.05866 0.0
C1632 C 0.69787 0.41694 0.1455 0.0
C1633 C 0.68871 0.40664 0.17752 0.0
C1634 C 0.65242 0.40133 0.19222 0.0
C1635 C 0.62613 0.40697 0.17587 0.0
C1636 C 0.63637 0.41806 0.14483 0.0
C1637 C 0.67145 0.42312 0.12985 0.0
C1638 C 0.67643 0.43946 0.09851 0.0
C1639 C 0.70339 0.47495 0.10098 0.0
C1640 C 0.68756 0.41431 0.06768 0.0
C1641 C 0.63898 0.44404 0.0989 0.0
C1642 C 0.61598 0.43064 0.12525 0.0
C1643 C 0.58035 0.43339 0.13155 0.0
C1644 C 0.56824 0.45122 0.11097 0.0
C1645 C 0.59196 0.46671 0.08497 0.0
C1646 C 0.62745 0.46218 0.07843 0.0
H1647 H 0.7356 0.68268 0.20146 0.0
H1648 H 0.66338 0.74737 0.25582 0.0
H1649 H 0.61536 0.71183 0.22378 0.0
H1650 H 0.70856 0.67702 0.12403 0.0
H1651 H 0.71419 0.63279 0.11003 0.0
H1652 H 0.74066 0.66084 0.13999 0.0
H1653 H 0.71817 0.61451 0.18023 0.0
H1654 H 0.69146 0.58647 0.15034 0.0
H1655 H 0.6709 0.59937 0.19188 0.0
H1656 H 0.57604 0.66951 0.1842 0.0
H1657 H 0.55059 0.62744 0.13763 0.0
H1658 H 0.65124 0.595 0.10761 0.0
C1659 C 0.70938 0.68878 0.20718 0.0
C1660 C 0.70264 0.71709 0.23139 0.0
C1661 C 0.66861 0.72537 0.23745 0.0
C1662 C 0.64132 0.70533 0.21952 0.0
C1663 C 0.64894 0.67762 0.19547 0.0
C1664 C 0.6823 0.66962 0.18916 0.0
C1665 C 0.68497 0.64077 0.16021 0.0
C1666 C 0.7138 0.65365 0.13191 0.0
C1667 C 0.69176 0.60836 0.17134 0.0
C1668 C 0.64801 0.634 0.1508 0.0
C1669 C 0.62727 0.65494 0.17173 0.0
C1670 C 0.59204 0.65302 0.16767 0.0
C1671 C 0.57783 0.62922 0.14132 0.0
C1672 C 0.5993 0.60864 0.11921 0.0
C1673 C 0.63459 0.61093 0.12414 0.0
H1674 H 0.49446 0.76786 0.12845 0.0
H1675 H 0.38061 0.75462 0.13255 0.0
H1676 H 0.37768 0.6977 0.09699 0.0
H1677 H 0.51151 0.70906 0.04203 0.0
H1678 H 0.54287 0.69249 0.05859 0.0
H1679 H 0.53885 0.73739 0.07134 0.0
H1680 H 0.52766 0.7267 0.13265 0.0
H1681 H 0.5301 0.68168 0.12026 0.0
H1682 H 0.49078 0.6926 0.14592 0.0
H1683 H 0.38313 0.63654 0.07874 0.0
H1684 H 0.39878 0.57866 0.07114 0.0
H1685 H 0.50874 0.63048 0.08118 0.0
C1686 C 0.46961 0.75417 0.11943 0.0
C1687 C 0.43802 0.76589 0.13222 0.0
C1688 C 0.40529 0.74657 0.12177 0.0
C1689 C 0.40335 0.71394 0.10191 0.0
C1690 C 0.43441 0.70118 0.0926 0.0
C1691 C 0.46725 0.72112 0.1002 0.0
C1692 C 0.49502 0.69902 0.09356 0.0
C1693 C 0.52375 0.71015 0.06465 0.0
C1694 C 0.51181 0.70008 0.12496 0.0
C1695 C 0.47205 0.66338 0.08383 0.0
C1696 C 0.4374 0.6651 0.08266 0.0
C1697 C 0.41048 0.63492 0.0784 0.0
C1698 C 0.41946 0.60219 0.07465 0.0
C1699 C 0.45495 0.60008 0.07552 0.0
C1700 C 0.48141 0.63115 0.07996 0.0
H1701 H 0.35639 0.30752 0.17965 0.0
H1702 H 0.31538 0.37736 0.26243 0.0
H1703 H 0.35507 0.42858 0.23883 0.0
H1704 H 0.44851 0.35977 0.16542 0.0
H1705 H 0.45082 0.3497 0.12089 0.0
H1706 H 0.42341 0.31869 0.14683 0.0
H1707 H 0.36993 0.31808 0.11855 0.0
H1708 H 0.3956 0.35013 0.09325 0.0
H1709 H 0.35545 0.35811 0.1196 0.0
H1710 H 0.39779 0.47223 0.20476 0.0
H1711 H 0.43354 0.50479 0.15983 0.0
H1712 H 0.44143 0.40647 0.09677 0.0
C1713 C 0.3562 0.33364 0.19288 0.0
C1714 C 0.33328 0.33883 0.22289 0.0
C1715 C 0.33306 0.37318 0.23943 0.0
C1716 C 0.35561 0.40228 0.22632 0.0
C1717 C 0.37771 0.39648 0.19636 0.0
C1718 C 0.37782 0.36299 0.17962 0.0
C1719 C 0.40105 0.36404 0.14617 0.0
C1720 C 0.43284 0.34705 0.14476 0.0
C1721 C 0.37915 0.34661 0.11772 0.0
C1722 C 0.4132 0.40324 0.14628 0.0
C1723 C 0.4004 0.42155 0.17585 0.0
C1724 C 0.40799 0.45814 0.18155 0.0
C1725 C 0.42839 0.47642 0.15603 0.0
C1726 C 0.44005 0.45802 0.12504 0.0
C1727 C 0.43276 0.42105 0.12035 0.0
H1728 H 0.85272 0.71516 0.67475 0.0
H1729 H 0.85676 0.68918 0.77084 0.0
H1730 H 0.89548 0.64783 0.74423 0.0
H1731 H 0.84918 0.62769 0.62902 0.0
H1732 H 0.8776 0.64161 0.5923 0.0
H1733 H 0.85072 0.6698 0.6178 0.0
H1734 H 0.90474 0.72027 0.62594 0.0
H1735 H 0.93271 0.69366 0.59915 0.0
H1736 H 0.94286 0.71267 0.64032 0.0
H1737 H 0.93498 0.60822 0.7054 0.0
H1738 H 0.9714 0.57716 0.65961 0.0
H1739 H 0.94043 0.62931 0.58935 0.0
C1740 C 0.86112 0.70027 0.69007 0.0
C1741 C 0.85155 0.70549 0.72499 0.0
C1742 C 0.86412 0.68606 0.74416 0.0
C1743 C 0.88594 0.66225 0.72915 0.0
C1744 C 0.89512 0.65783 0.69465 0.0
C1745 C 0.88299 0.67638 0.67537 0.0
C1746 C 0.89738 0.66766 0.63893 0.0
C1747 C 0.86688 0.65061 0.61832 0.0
C1748 C 0.92082 0.70052 0.62529 0.0
C1749 C 0.91939 0.64144 0.64061 0.0
C1750 C 0.91778 0.63583 0.67285 0.0
C1751 C 0.93624 0.61251 0.68008 0.0
C1752 C 0.95686 0.59479 0.65382 0.0
C1753 C 0.95912 0.60039 0.6205 0.0
C1754 C 0.93969 0.62405 0.61428 0.0
H1755 H 0.32842 0.86534 0.71592 0.0
H1756 H 0.34126 0.76303 0.66383 0.0
H1757 H 0.38244 0.79114 0.61898 0.0
H1758 H 0.32951 0.90436 0.643 0.0
H1759 H 0.35366 0.9465 0.66044 0.0
H1760 H 0.32426 0.91766 0.68734 0.0
H1761 H 0.37635 0.92082 0.71991 0.0
H1762 H 0.40592 0.94955 0.69312 0.0
H1763 H 0.41707 0.90942 0.69779 0.0
H1764 H 0.42575 0.83205 0.58143 0.0
H1765 H 0.46535 0.88146 0.55492 0.0
H1766 H 0.41984 0.95466 0.63197 0.0
C1767 C 0.33942 0.84868 0.69493 0.0
C1768 C 0.33207 0.81208 0.69362 0.0
C1769 C 0.3471 0.79128 0.66565 0.0
C1770 C 0.37032 0.80696 0.63993 0.0
C1771 C 0.37756 0.84333 0.64239 0.0
C1772 C 0.36222 0.86377 0.6691 0.0
C1773 C 0.37487 0.90222 0.66673 0.0
C1774 C 0.34372 0.91863 0.66421 0.0
C1775 C 0.39473 0.92162 0.69612 0.0
C1776 C 0.39994 0.90036 0.6346 0.0
C1777 C 0.40141 0.86635 0.62076 0.0
C1778 C 0.4245 0.85882 0.59185 0.0
C1779 C 0.44686 0.88699 0.57698 0.0
C1780 C 0.44573 0.92201 0.5912 0.0
C1781 C 0.42147 0.92836 0.62009 0.0
H1782 H 0.2022 0.3985 0.65307 0.0
H1783 H 0.223 0.49611 0.7202 0.0
H1784 H 0.17206 0.51341 0.70416 0.0
H1785 H 0.18346 0.43519 0.58853 0.0
H1786 H 0.14946 0.39794 0.57557 0.0
H1787 H 0.18471 0.39195 0.59523 0.0
H1788 H 0.13769 0.36181 0.63972 0.0
H1789 H 0.10227 0.36807 0.62028 0.0
H1790 H 0.1046 0.38456 0.6636 0.0
H1791 H 0.11909 0.52005 0.67988 0.0
H1792 H 0.07507 0.51983 0.64355 0.0
H1793 H 0.09256 0.41963 0.58961 0.0
C1794 C 0.19567 0.42331 0.66463 0.0
C1795 C 0.21614 0.44594 0.68801 0.0
C1796 C 0.20748 0.47852 0.70221 0.0
C1797 C 0.17847 0.48836 0.69348 0.0
C1798 C 0.15868 0.46539 0.67034 0.0
C1799 C 0.16725 0.43374 0.65579 0.0
C1800 C 0.14405 0.41527 0.62934 0.0
C1801 C 0.16678 0.40979 0.59516 0.0
C1802 C 0.12078 0.38036 0.63882 0.0
C1803 C 0.12165 0.44182 0.63071 0.0
C1804 C 0.12975 0.47011 0.65509 0.0
C1805 C 0.11268 0.49809 0.6606 0.0
C1806 C 0.08771 0.49774 0.6398 0.0
C1807 C 0.08099 0.47017 0.61313 0.0
C1808 C 0.0974 0.44138 0.60942 0.0
H1809 H 0.67883 0.2058 0.72409 0.0
H1810 H 0.7782 0.20845 0.65722 0.0
H1811 H 0.74475 0.16964 0.61351 0.0
H1812 H 0.63967 0.11523 0.69888 0.0
H1813 H 0.59522 0.12291 0.70394 0.0
H1814 H 0.62737 0.15069 0.72905 0.0
H1815 H 0.61756 0.20529 0.70901 0.0
H1816 H 0.58552 0.17771 0.68368 0.0
H1817 H 0.62345 0.20734 0.66512 0.0
H1818 H 0.69806 0.1318 0.57618 0.0
H1819 H 0.64498 0.09606 0.55128 0.0
H1820 H 0.5781 0.11776 0.64479 0.0
C1821 C 0.69377 0.19846 0.70024 0.0
C1822 C 0.73121 0.21063 0.69397 0.0
C1823 C 0.74955 0.19959 0.66258 0.0
C1824 C 0.7307 0.17763 0.63761 0.0
C1825 C 0.69362 0.16654 0.64462 0.0
C1826 C 0.67557 0.17639 0.67544 0.0
C1827 C 0.63596 0.16065 0.67747 0.0
C1828 C 0.62386 0.1359 0.70389 0.0
C1829 C 0.61437 0.18947 0.68421 0.0
C1830 C 0.63417 0.14057 0.64282 0.0
C1831 C 0.66754 0.14431 0.62401 0.0
C1832 C 0.67193 0.12858 0.59089 0.0
C1833 C 0.6416 0.10839 0.57689 0.0
C1834 C 0.60728 0.1038 0.59604 0.0
C1835 C 0.60387 0.12033 0.62942 0.0
H1836 H 0.88079 0.30975 0.33858 0.0
H1837 H 0.82659 0.39017 0.32944 0.0
H1838 H 0.85929 0.43057 0.37198 0.0
H1839 H 0.88161 0.32702 0.42426 0.0
H1840 H 0.92591 0.32049 0.42346 0.0
H1841 H 0.90026 0.29803 0.39067 0.0
H1842 H 0.95041 0.32489 0.34612 0.0
H1843 H 0.97662 0.34514 0.37903 0.0
H1844 H 0.968 0.37139 0.35135 0.0
H1845 H 0.89598 0.4616 0.41694 0.0
H1846 H 0.93717 0.48289 0.45844 0.0
H1847 H 0.96907 0.38284 0.43843 0.0
C1848 C 0.87643 0.33605 0.34472 0.0
C1849 C 0.85114 0.34657 0.33016 0.0
C1850 C 0.84572 0.38122 0.33996 0.0
C1851 C 0.86417 0.40443 0.36423 0.0
C1852 C 0.88824 0.39286 0.37849 0.0
C1853 C 0.89488 0.35969 0.36876 0.0
C1854 C 0.92219 0.35389 0.3881 0.0
C1855 C 0.90654 0.32302 0.40779 0.0
C1856 C 0.95635 0.34851 0.36478 0.0
C1857 C 0.92904 0.38861 0.41094 0.0
C1858 C 0.90932 0.41074 0.40472 0.0
C1859 C 0.91158 0.44451 0.42196 0.0
C1860 C 0.93512 0.45631 0.44563 0.0
C1861 C 0.95645 0.43456 0.45204 0.0
C1862 C 0.95292 0.40002 0.43458 0.0
H1863 H 0.71826 0.86693 0.32046 0.0
H1864 H 0.69286 0.77761 0.37327 0.0
H1865 H 0.65139 0.80568 0.41526 0.0
H1866 H 0.71505 0.9331 0.39319 0.0
H1867 H 0.69503 0.95988 0.37456 0.0
H1868 H 0.72312 0.93268 0.34884 0.0
H1869 H 0.67217 0.90295 0.31383 0.0
H1870 H 0.64393 0.93007 0.33942 0.0
H1871 H 0.62917 0.88303 0.33421 0.0
H1872 H 0.61089 0.84434 0.4521 0.0
H1873 H 0.57635 0.88914 0.47925 0.0
H1874 H 0.62775 0.95339 0.40246 0.0
C1875 C 0.70395 0.85313 0.34078 0.0
C1876 C 0.70951 0.81971 0.34344 0.0
C1877 C 0.69 0.80313 0.37072 0.0
C1878 C 0.66601 0.81897 0.39473 0.0
C1879 C 0.66135 0.85185 0.39148 0.0
C1880 C 0.67983 0.86875 0.36512 0.0
C1881 C 0.66993 0.90395 0.36732 0.0
C1882 C 0.70274 0.93419 0.37121 0.0
C1883 C 0.65278 0.90505 0.33689 0.0
C1884 C 0.64291 0.90411 0.39883 0.0
C1885 C 0.63829 0.87385 0.41248 0.0
C1886 C 0.61443 0.86814 0.44152 0.0
C1887 C 0.5948 0.89382 0.45687 0.0
C1888 C 0.59895 0.92515 0.44336 0.0
C1889 C 0.62365 0.93002 0.41386 0.0
H1890 H 0.20041 0.73036 0.36536 0.0
H1891 H 0.26144 0.6554 0.30988 0.0
H1892 H 0.23061 0.61268 0.34746 0.0
H1893 H 0.1976 0.70807 0.44684 0.0
H1894 H 0.15231 0.71279 0.46067 0.0
H1895 H 0.17999 0.73807 0.42994 0.0
H1896 H 0.13288 0.71368 0.38983 0.0
H1897 H 0.10492 0.68854 0.42049 0.0
H1898 H 0.1179 0.66691 0.3795 0.0
H1899 H 0.19158 0.57678 0.39139 0.0
H1900 H 0.14643 0.5511 0.43557 0.0
H1901 H 0.11082 0.64916 0.46196 0.0
C1902 C 0.2075 0.70506 0.36115 0.0
C1903 C 0.23421 0.69684 0.33482 0.0
C1904 C 0.24191 0.663 0.33016 0.0
C1905 C 0.22431 0.6383 0.35139 0.0
C1906 C 0.19852 0.64738 0.37726 0.0
C1907 C 0.18994 0.6799 0.38205 0.0
C1908 C 0.16043 0.68273 0.4111 0.0
C1909 C 0.17337 0.71216 0.43877 0.0
C1910 C 0.12706 0.68828 0.39953 0.0
C1911 C 0.15386 0.64684 0.42191 0.0
C1912 C 0.17608 0.62677 0.40217 0.0
C1913 C 0.17417 0.5924 0.4071 0.0
C1914 C 0.14853 0.57802 0.43244 0.0
C1915 C 0.12501 0.59793 0.4527 0.0
C1916 C 0.12838 0.63302 0.44733 0.0
H1917 H 0.41921 0.11824 0.32879 0.0
H1918 H 0.38091 0.19587 0.40586 0.0
H1919 H 0.39292 0.16608 0.44849 0.0
H1920 H 0.39059 0.04255 0.3743 0.0
H1921 H 0.43087 0.027 0.35807 0.0
H1922 H 0.41359 0.05073 0.33374 0.0
H1923 H 0.47425 0.09553 0.32863 0.0
H1924 H 0.49168 0.07183 0.3527 0.0
H1925 H 0.4927 0.11782 0.36579 0.0
H1926 H 0.41452 0.13132 0.48277 0.0
H1927 H 0.4485 0.09778 0.50497 0.0
H1928 H 0.47571 0.04544 0.40531 0.0
C1929 C 0.41307 0.12898 0.35459 0.0
C1930 C 0.39865 0.15929 0.36373 0.0
C1931 C 0.391 0.17218 0.39797 0.0
C1932 C 0.39787 0.15549 0.42249 0.0
C1933 C 0.41257 0.12602 0.4125 0.0
C1934 C 0.42028 0.11303 0.37933 0.0
C1935 C 0.43969 0.08351 0.37491 0.0
C1936 C 0.41733 0.04889 0.35934 0.0
C1937 C 0.47677 0.09274 0.35431 0.0
C1938 C 0.44251 0.08254 0.41072 0.0
C1939 C 0.42609 0.10674 0.43214 0.0
C1940 C 0.4271 0.11197 0.46628 0.0
C1941 C 0.44635 0.09271 0.47869 0.0
C1942 C 0.46474 0.069 0.45686 0.0
C1943 C 0.46182 0.06326 0.42264 0.0
H1944 H 0.63175 0.90725 0.70993 0.0
H1945 H 0.68394 0.84432 0.62794 0.0
H1946 H 0.67251 0.87913 0.58884 0.0
H1947 H 0.56139 0.90828 0.66999 0.0
H1948 H 0.55735 0.9522 0.68807 0.0
H1949 H 0.57536 0.92681 0.70995 0.0
H1950 H 0.63267 0.97593 0.71331 0.0
H1951 H 0.61474 1.00157 0.69144 0.0
H1952 H 0.65766 0.99117 0.67575 0.0
H1953 H 0.64856 0.9163 0.55789 0.0
H1954 H 0.61357 0.95097 0.53843 0.0
H1955 H 0.57505 0.98735 0.64078 0.0
C1956 C 0.64123 0.90095 0.68381 0.0
C1957 C 0.65884 0.87292 0.67218 0.0
C1958 C 0.67098 0.86597 0.63772 0.0
C1959 C 0.66443 0.88554 0.61522 0.0
C1960 C 0.64584 0.91213 0.6275 0.0
C1961 C 0.63458 0.9199 0.66107 0.0
C1962 C 0.61209 0.94723 0.6678 0.0
C1963 C 0.57432 0.93275 0.68495 0.0
C1964 C 0.6304 0.98097 0.68829 0.0
C1965 C 0.61148 0.9529 0.63272 0.0
C1966 C 0.63157 0.93292 0.60978 0.0
C1967 C 0.63319 0.93242 0.57571 0.0
C1968 C 0.61325 0.9523 0.56487 0.0
C1969 C 0.59158 0.97206 0.58804 0.0
C1970 C 0.59147 0.97277 0.62237 0.0
H1971 H 0.70323 0.18256 0.31736 0.0
H1972 H 0.74031 0.27395 0.38745 0.0
H1973 H 0.69864 0.2468 0.43305 0.0
H1974 H 0.6102 0.16511 0.35501 0.0
H1975 H 0.60626 0.1184 0.3453 0.0
H1976 H 0.63696 0.14707 0.31898 0.0
H1977 H 0.68841 0.11948 0.32693 0.0
H1978 H 0.65778 0.09128 0.35356 0.0
H1979 H 0.69716 0.11968 0.36836 0.0
H1980 H 0.654 0.20709 0.4712 0.0
H1981 H 0.61314 0.15821 0.49789 0.0
H1982 H 0.60782 0.09457 0.40109 0.0
C1983 C 0.70266 0.1969 0.34231 0.0
C1984 C 0.72481 0.23022 0.3491 0.0
C1985 C 0.72324 0.24833 0.38194 0.0
C1986 C 0.69965 0.2332 0.40785 0.0
C1987 C 0.678 0.20012 0.40024 0.0
C1988 C 0.67941 0.18234 0.36817 0.0
C1989 C 0.65485 0.14663 0.36624 0.0
C1990 C 0.62533 0.14418 0.34514 0.0
C1991 C 0.67581 0.11757 0.35301 0.0
C1992 C 0.64007 0.14648 0.40244 0.0
C1993 C 0.65313 0.1776 0.4218 0.0
C1994 C 0.6435 0.18267 0.45623 0.0
C1995 C 0.62035 0.15492 0.47116 0.0
C1996 C 0.60781 0.12262 0.45154 0.0
C1997 C 0.61742 0.11881 0.4168 0.0
H1998 H 0.87417 0.63714 0.37244 0.0
H1999 H 0.92188 0.59069 0.27704 0.0
H2000 H 0.96234 0.57058 0.30531 0.0
H2001 H 0.95691 0.6679 0.40896 0.0
H2002 H 0.93525 0.65882 0.44967 0.0
H2003 H 0.9108 0.67024 0.42169 0.0
H2004 H 0.86279 0.61299 0.42762 0.0
H2005 H 0.88724 0.60125 0.45535 0.0
H2006 H 0.87603 0.57147 0.41844 0.0
H2007 H 0.99556 0.55315 0.34434 0.0
H2008 H 1.02138 0.54252 0.39094 0.0
H2009 H 0.95306 0.60244 0.46024 0.0
C2010 C 0.89359 0.62339 0.35734 0.0
C2011 C 0.89481 0.61548 0.32247 0.0
C2012 C 0.92014 0.59668 0.30381 0.0
C2013 C 0.94335 0.5853 0.31962 0.0
C2014 C 0.94106 0.59316 0.35405 0.0
C2015 C 0.91707 0.61207 0.37265 0.0
C2016 C 0.91968 0.61675 0.40933 0.0
C2017 C 0.93137 0.65574 0.42321 0.0
C2018 C 0.88434 0.59958 0.42881 0.0
C2019 C 0.94864 0.59716 0.40848 0.0
C2020 C 0.9606 0.58369 0.37641 0.0
C2021 C 0.98662 0.56381 0.36956 0.0
C2022 C 1.00101 0.5578 0.39623 0.0
C2023 C 0.98942 0.57178 0.4293 0.0
C2024 C 0.96282 0.59164 0.43529 0.0
H2025 H 0.38015 0.83217 0.32241 0.0
H2026 H 0.28067 0.82887 0.38914 0.0
H2027 H 0.31384 0.86891 0.43247 0.0
H2028 H 0.43656 0.83342 0.38166 0.0
H2029 H 0.47376 0.86326 0.3624 0.0
H2030 H 0.44191 0.8344 0.33761 0.0
H2031 H 0.43047 0.88758 0.31644 0.0
H2032 H 0.46236 0.91668 0.34105 0.0
H2033 H 0.41747 0.92316 0.34599 0.0
H2034 H 0.36051 0.90857 0.46941 0.0
H2035 H 0.41325 0.94593 0.49375 0.0
H2036 H 0.48024 0.92395 0.4004 0.0
C2037 C 0.3651 0.83941 0.34618 0.0
C2038 C 0.32769 0.82671 0.35244 0.0
C2039 C 0.30929 0.83797 0.38374 0.0
C2040 C 0.32799 0.86068 0.4085 0.0
C2041 C 0.36504 0.87236 0.40141 0.0
C2042 C 0.38315 0.86227 0.37072 0.0
C2043 C 0.42262 0.87894 0.36838 0.0
C2044 C 0.44502 0.85083 0.36216 0.0
C2045 C 0.43387 0.90302 0.34137 0.0
C2046 C 0.42434 0.89985 0.40275 0.0
C2047 C 0.391 0.8957 0.42167 0.0
C2048 C 0.38657 0.91207 0.45459 0.0
C2049 C 0.41676 0.93321 0.46828 0.0
C2050 C 0.45106 0.93821 0.44906 0.0
C2051 C 0.45452 0.92111 0.41584 0.0
H2052 H 0.21347 0.32659 0.36658 0.0
H2053 H 0.20117 0.3488 0.27094 0.0
H2054 H 0.16248 0.38922 0.29899 0.0
H2055 H 0.12505 0.32737 0.40602 0.0
H2056 H 0.13762 0.34869 0.44587 0.0
H2057 H 0.16545 0.32245 0.41835 0.0
H2058 H 0.21925 0.37529 0.42106 0.0
H2059 H 0.19172 0.40173 0.44848 0.0
H2060 H 0.21608 0.4162 0.41037 0.0
H2061 H 0.12405 0.42852 0.33866 0.0
H2062 H 0.08873 0.4596 0.38528 0.0
H2063 H 0.12628 0.41164 0.45466 0.0
C2064 C 0.20316 0.34026 0.35149 0.0
C2065 C 0.21106 0.33439 0.31632 0.0
C2066 C 0.19604 0.35265 0.29781 0.0
C2067 C 0.17391 0.37587 0.3136 0.0
C2068 C 0.16684 0.38112 0.34822 0.0
C2069 C 0.18116 0.36383 0.36693 0.0
C2070 C 0.169 0.37365 0.40377 0.0
C2071 C 0.14803 0.3411 0.41942 0.0
C2072 C 0.20091 0.39287 0.42199 0.0
C2073 C 0.14509 0.39846 0.40286 0.0
C2074 C 0.14446 0.40289 0.37066 0.0
C2075 C 0.12448 0.42511 0.36395 0.0
C2076 C 0.10452 0.44288 0.39069 0.0
C2077 C 0.10433 0.43836 0.42398 0.0
C2078 C 0.12536 0.41588 0.42972 0.0
H2079 H 0.33339 0.20947 0.66294 0.0
H2080 H 0.38327 0.23345 0.75252 0.0
H2081 H 0.43124 0.20369 0.72341 0.0
H2082 H 0.3493 0.12216 0.6412 0.0
H2083 H 0.35709 0.12263 0.59698 0.0
H2084 H 0.32882 0.14922 0.62338 0.0
H2085 H 0.36794 0.20432 0.60011 0.0
H2086 H 0.39645 0.17791 0.57368 0.0
H2087 H 0.41522 0.21516 0.60204 0.0
H2088 H 0.47272 0.16931 0.68587 0.0
H2089 H 0.50235 0.12876 0.64425 0.0
H2090 H 0.42472 0.12128 0.57868 0.0
C2091 C 0.35454 0.20863 0.67633 0.0
C2092 C 0.35452 0.22408 0.71025 0.0
C2093 C 0.38278 0.22221 0.72664 0.0
C2094 C 0.4102 0.20529 0.71023 0.0
C2095 C 0.40916 0.1897 0.67718 0.0
C2096 C 0.38192 0.19088 0.66038 0.0
C2097 C 0.38596 0.16949 0.6257 0.0
C2098 C 0.35335 0.13907 0.62158 0.0
C2099 C 0.39173 0.19313 0.59878 0.0
C2100 C 0.41954 0.15596 0.62575 0.0
C2101 C 0.43262 0.16858 0.65566 0.0
C2102 C 0.46281 0.15954 0.66232 0.0
C2103 C 0.47968 0.13658 0.63836 0.0
C2104 C 0.46664 0.12234 0.60777 0.0
C2105 C 0.43609 0.13243 0.60135 0.0
H2106 H 0.87837 0.33466 0.70943 0.0
H2107 H 0.77713 0.35546 0.69979 0.0
H2108 H 0.80723 0.39495 0.65906 0.0
H2109 H 0.93282 0.42224 0.69944 0.0
H2110 H 0.97001 0.40528 0.67575 0.0
H2111 H 0.94005 0.38116 0.70615 0.0
H2112 H 0.92913 0.32686 0.66055 0.0
H2113 H 0.95855 0.35145 0.63022 0.0
H2114 H 0.91339 0.33089 0.62327 0.0
H2115 H 0.84992 0.43452 0.61944 0.0
H2116 H 0.89967 0.46434 0.5809 0.0
H2117 H 0.97206 0.41366 0.61268 0.0
C2118 C 0.86251 0.34772 0.69905 0.0
C2119 C 0.82504 0.34224 0.70874 0.0
C2120 C 0.8056 0.35946 0.69362 0.0
C2121 C 0.82264 0.38205 0.67023 0.0
C2122 C 0.8595 0.38701 0.66143 0.0
C2123 C 0.87917 0.36994 0.67513 0.0
C2124 C 0.91823 0.37837 0.66022 0.0
C2125 C 0.94166 0.39792 0.68698 0.0
C2126 C 0.93054 0.3449 0.64251 0.0
C2127 C 0.91733 0.40235 0.63572 0.0
C2128 C 0.88339 0.40772 0.63725 0.0
C2129 C 0.87653 0.43018 0.61786 0.0
C2130 C 0.90494 0.44717 0.5961 0.0
C2131 C 0.93967 0.44106 0.59333 0.0
C2132 C 0.94568 0.41845 0.6137 0.0
H2133 H 0.20773 0.73846 0.68077 0.0
H2134 H 0.21903 0.65453 0.72956 0.0
H2135 H 0.18506 0.61129 0.68984 0.0
H2136 H 0.11536 0.70025 0.67356 0.0
H2137 H 0.11664 0.71548 0.63478 0.0
H2138 H 0.14643 0.73986 0.66372 0.0
H2139 H 0.20054 0.73586 0.61798 0.0
H2140 H 0.17099 0.71136 0.58885 0.0
H2141 H 0.20658 0.69351 0.59656 0.0
H2142 H 0.15165 0.57707 0.6441 0.0
H2143 H 0.11163 0.5538 0.60192 0.0
H2144 H 0.11091 0.65969 0.58924 0.0
C2145 C 0.20326 0.71098 0.68306 0.0
C2146 C 0.21719 0.69999 0.70788 0.0
C2147 C 0.21007 0.66374 0.71013 0.0
C2148 C 0.19045 0.6389 0.6878 0.0
C2149 C 0.17698 0.65069 0.66393 0.0
C2150 C 0.18223 0.68588 0.66194 0.0
C2151 C 0.16124 0.6916 0.63646 0.0
C2152 C 0.13325 0.71306 0.65312 0.0
C2153 C 0.18635 0.70912 0.60829 0.0
C2154 C 0.14373 0.65401 0.62417 0.0
C2155 C 0.154 0.63095 0.63993 0.0
C2156 C 0.14287 0.59487 0.63206 0.0
C2157 C 0.11996 0.58191 0.60804 0.0
C2158 C 0.1072 0.60478 0.59274 0.0
C2159 C 0.1197 0.64145 0.60074 0.0
loop_
_geom_bond_atom_site_label_1
_geom_bond_atom_site_label_2
_geom_bond_distance
_geom_bond_site_symmetry_2
_ccdc_geom_bond_type
C0 C2 1.422 . S
C0 C4 1.415 . S
C0 N6 1.369 . S
C1 C2 1.421 . S
C1 C3 1.417 . S
C1 C13 1.422 . S
C2 C0 1.422 . S
C2 C1 1.421 . S
C2 N12 1.359 . S
C3 C1 1.417 . S
C3 C5 1.329 . S
C3 H22 0.930 . S
C4 C0 1.415 . S
C4 C5 1.437 . S
C4 C8 1.413 . S
C5 C3 1.329 . S
C5 C4 1.437 . S
C5 H27 0.929 . S
N6 C0 1.369 . S
N6 C7 1.338 . S
N6 Gd11 2.622 . S
C7 N6 1.338 . S
C7 C9 1.378 . S
C7 H19 0.929 . S
C8 C4 1.413 . S
C8 C9 1.348 . S
C8 H24 0.931 . S
C9 C7 1.378 . S
C9 C8 1.348 . S
C9 H25 0.930 . S
Gd10 N30 2.622 . S
Gd10 N37 2.570 . S
Gd10 O44 2.353 . S
Gd10 O45 2.468 . S
Gd10 O46 2.427 . S
Gd10 O48 2.388 . S
Gd10 O49 2.386 . S
Gd10 O53 2.307 . S
Gd10 C63 2.805 . S
Gd11 N6 2.622 . S
Gd11 N12 2.570 . S
Gd11 O43 2.386 . S
Gd11 O47 2.307 . S
Gd11 O50 2.353 . S
Gd11 O51 2.468 . S
Gd11 O52 2.427 . S
Gd11 O54 2.388 . S
Gd11 C75 2.805 . S
N12 C2 1.359 . S
N12 Gd11 2.570 . S
N12 C14 1.343 . S
C13 C1 1.422 . S
C13 C15 1.321 . S
C13 H21 0.931 . S
C14 N12 1.343 . S
C14 C15 1.390 . S
C14 H16 0.931 . S
C15 C13 1.321 . S
C15 C14 1.390 . S
C15 H17 0.930 . S
H16 C14 0.931 . S
H17 C15 0.930 . S
H18 C41 0.931 . S
H19 C7 0.929 . S
H20 C42 0.930 . S
H21 C13 0.931 . S
H22 C3 0.930 . S
H23 C32 0.929 . S
H24 C8 0.931 . S
H25 C9 0.930 . S
H26 C64 0.930 . S
H27 C5 0.929 . S
H28 C33 0.931 . S
H29 C34 0.930 . S
N30 Gd10 2.622 . S
N30 C31 1.369 . S
N30 C32 1.338 . S
C31 N30 1.369 . S
C31 C35 1.415 . S
C31 C38 1.422 . S
C32 H23 0.929 . S
C32 N30 1.338 . S
C32 C34 1.378 . S
C33 H28 0.931 . S
C33 C34 1.348 . S
C33 C35 1.413 . S
C34 H29 0.930 . S
C34 C32 1.378 . S
C34 C33 1.348 . S
C35 C31 1.415 . S
C35 C33 1.413 . S
C35 C65 1.437 . S
H36 C65 0.929 . S
N37 Gd10 2.570 . S
N37 C38 1.359 . S
N37 C41 1.343 . S
C38 C31 1.422 . S
C38 N37 1.359 . S
C38 C40 1.421 . S
C39 C40 1.422 . S
C39 C42 1.321 . S
C39 H66 0.931 . S
C40 C38 1.421 . S
C40 C39 1.422 . S
C40 C64 1.417 . S
C41 H18 0.931 . S
C41 N37 1.343 . S
C41 C42 1.390 . S
C42 H20 0.930 . S
C42 C39 1.321 . S
C42 C41 1.390 . S
O43 Gd11 2.386 . S
O43 C55 1.265 . S
O44 Gd10 2.353 . S
O44 C55 1.242 . S
O45 Gd10 2.468 . S
O45 C63 1.263 . S
O46 Gd10 2.427 . S
O46 C63 1.252 . S
O47 Gd11 2.307 . S
O47 C56 1.261 . S
O48 Gd10 2.388 . S
O48 C56 1.252 . S
O49 Gd10 2.386 . S
O49 C67 1.265 . S
O50 Gd11 2.353 . S
O50 C67 1.242 . S
O51 Gd11 2.468 . S
O51 C75 1.263 . S
O52 Gd11 2.427 . S
O52 C75 1.252 . S
O53 Gd10 2.307 . S
O53 C68 1.261 . S
O54 Gd11 2.388 . S
O54 C68 1.252 . S
C55 O43 1.265 . S
C55 O44 1.242 . S
C56 O47 1.261 . S
C56 O48 1.252 . S
C57 C60 1.394 . S
C57 C62 1.370 . S
C57 C63 1.500 . S
C58 C61 1.383 . S
C58 C62 1.395 . S
C59 C60 1.396 . S
C59 C61 1.365 . S
C59 H76 0.929 . S
C60 C57 1.394 . S
C60 C59 1.396 . S
C60 H77 0.930 . S
C61 C58 1.383 . S
C61 C59 1.365 . S
C61 H78 0.931 . S
C62 C57 1.370 . S
C62 C58 1.395 . S
C62 H79 0.930 . S
C63 Gd10 2.805 . S
C63 O45 1.263 . S
C63 O46 1.252 . S
C63 C57 1.500 . S
C64 H26 0.930 . S
C64 C40 1.417 . S
C64 C65 1.329 . S
C65 C35 1.437 . S
C65 H36 0.929 . S
C65 C64 1.329 . S
H66 C39 0.931 . S
C67 O49 1.265 . S
C67 O50 1.242 . S
C68 O53 1.261 . S
C68 O54 1.252 . S
C69 C72 1.394 . S
C69 C74 1.370 . S
C69 C75 1.500 . S
C70 C73 1.383 . S
C70 C74 1.395 . S
C71 C72 1.396 . S
C71 C73 1.365 . S
C71 H80 0.929 . S
C72 C69 1.394 . S
C72 C71 1.396 . S
C72 H81 0.930 . S
C73 C70 1.383 . S
C73 C71 1.365 . S
C73 H82 0.931 . S
C74 C69 1.370 . S
C74 C70 1.395 . S
C74 H83 0.930 . S
C75 Gd11 2.805 . S
C75 O51 1.263 . S
C75 O52 1.252 . S
C75 C69 1.500 . S
H76 C59 0.929 . S
H77 C60 0.930 . S
H78 C61 0.931 . S
H79 C62 0.930 . S
H80 C71 0.929 . S
H81 C72 0.930 . S
H82 C73 0.931 . S
H83 C74 0.930 . S
C84 C86 1.422 . S
C84 C88 1.415 . S
C84 N90 1.369 . S
C85 C86 1.421 . S
C85 C87 1.417 . S
C85 C97 1.422 . S
C86 C84 1.422 . S
C86 C85 1.421 . S
C86 N96 1.359 . S
C87 C85 1.417 . S
C87 C89 1.329 . S
C87 H106 0.930 . S
C88 C84 1.415 . S
C88 C89 1.437 . S
C88 C92 1.413 . S
C89 C87 1.329 . S
C89 C88 1.437 . S
C89 H111 0.929 . S
N90 C84 1.369 . S
N90 C91 1.338 . S
N90 Gd95 2.622 . S
C91 N90 1.338 . S
C91 C93 1.378 . S
C91 H103 0.929 . S
C92 C88 1.413 . S
C92 C93 1.348 . S
C92 H108 0.931 . S
C93 C91 1.378 . S
C93 C92 1.348 . S
C93 H109 0.930 . S
Gd94 N114 2.622 . S
Gd94 N121 2.570 . S
Gd94 O128 2.353 . S
Gd94 O129 2.468 . S
Gd94 O130 2.427 . S
Gd94 O132 2.388 . S
Gd94 O133 2.386 . S
Gd94 O137 2.307 . S
Gd94 C147 2.805 . S
Gd95 N90 2.622 . S
Gd95 N96 2.570 . S
Gd95 O127 2.386 . S
Gd95 O131 2.307 . S
Gd95 O134 2.353 . S
Gd95 O135 2.468 . S
Gd95 O136 2.427 . S
Gd95 O138 2.388 . S
Gd95 C159 2.805 . S
N96 C86 1.359 . S
N96 Gd95 2.570 . S
N96 C98 1.343 . S
C97 C85 1.422 . S
C97 C99 1.321 . S
C97 H105 0.931 . S
C98 N96 1.343 . S
C98 C99 1.390 . S
C98 H100 0.931 . S
C99 C97 1.321 . S
C99 C98 1.390 . S
C99 H101 0.930 . S
H100 C98 0.931 . S
H101 C99 0.930 . S
H102 C125 0.931 . S
H103 C91 0.929 . S
H104 C126 0.930 . S
H105 C97 0.931 . S
H106 C87 0.930 . S
H107 C116 0.929 . S
H108 C92 0.931 . S
H109 C93 0.930 . S
H110 C148 0.930 . S
H111 C89 0.929 . S
H112 C117 0.931 . S
H113 C118 0.930 . S
N114 Gd94 2.622 . S
N114 C115 1.369 . S
N114 C116 1.338 . S
C115 N114 1.369 . S
C115 C119 1.415 . S
C115 C122 1.422 . S
C116 H107 0.929 . S
C116 N114 1.338 . S
C116 C118 1.378 . S
C117 H112 0.931 . S
C117 C118 1.348 . S
C117 C119 1.413 . S
C118 H113 0.930 . S
C118 C116 1.378 . S
C118 C117 1.348 . S
C119 C115 1.415 . S
C119 C117 1.413 . S
C119 C149 1.437 . S
H120 C149 0.929 . S
N121 Gd94 2.570 . S
N121 C122 1.359 . S
N121 C125 1.343 . S
C122 C115 1.422 . S
C122 N121 1.359 . S
C122 C124 1.421 . S
C123 C124 1.422 . S
C123 C126 1.321 . S
C123 H150 0.931 . S
C124 C122 1.421 . S
C124 C123 1.422 . S
C124 C148 1.417 . S
C125 H102 0.931 . S
C125 N121 1.343 . S
C125 C126 1.390 . S
C126 H104 0.930 . S
C126 C123 1.321 . S
C126 C125 1.390 . S
O127 Gd95 2.386 . S
O127 C139 1.265 . S
O128 Gd94 2.353 . S
O128 C139 1.242 . S
O129 Gd94 2.468 . S
O129 C147 1.263 . S
O130 Gd94 2.427 . S
O130 C147 1.252 . S
O131 Gd95 2.307 . S
O131 C140 1.261 . S
O132 Gd94 2.388 . S
O132 C140 1.252 . S
O133 Gd94 2.386 . S
O133 C151 1.265 . S
O134 Gd95 2.353 . S
O134 C151 1.242 . S
O135 Gd95 2.468 . S
O135 C159 1.263 . S
O136 Gd95 2.427 . S
O136 C159 1.252 . S
O137 Gd94 2.307 . S
O137 C152 1.261 . S
O138 Gd95 2.388 . S
O138 C152 1.252 . S
C139 O127 1.265 . S
C139 O128 1.242 . S
C140 O131 1.261 . S
C140 O132 1.252 . S
C141 C144 1.394 . S
C141 C146 1.370 . S
C141 C147 1.500 . S
C142 C145 1.383 . S
C142 C146 1.395 . S
C143 C144 1.396 . S
C143 C145 1.365 . S
C143 H160 0.929 . S
C144 C141 1.394 . S
C144 C143 1.396 . S
C144 H161 0.930 . S
C145 C142 1.383 . S
C145 C143 1.365 . S
C145 H162 0.931 . S
C146 C141 1.370 . S
C146 C142 1.395 . S
C146 H163 0.930 . S
C147 Gd94 2.805 . S
C147 O129 1.263 . S
C147 O130 1.252 . S
C147 C141 1.500 . S
C148 H110 0.930 . S
C148 C124 1.417 . S
C148 C149 1.329 . S
C149 C119 1.437 . S
C149 H120 0.929 . S
C149 C148 1.329 . S
H150 C123 0.931 . S
C151 O133 1.265 . S
C151 O134 1.242 . S
C152 O137 1.261 . S
C152 O138 1.252 . S
C153 C156 1.394 . S
C153 C158 1.370 . S
C153 C159 1.500 . S
C154 C157 1.383 . S
C154 C158 1.395 . S
C155 C156 1.396 . S
C155 C157 1.365 . S
C155 H164 0.929 . S
C156 C153 1.394 . S
C156 C155 1.396 . S
C156 H165 0.930 . S
C157 C154 1.383 . S
C157 C155 1.365 . S
C157 H166 0.931 . S
C158 C153 1.370 . S
C158 C154 1.395 . S
C158 H167 0.930 . S
C159 Gd95 2.805 . S
C159 O135 1.263 . S
C159 O136 1.252 . S
C159 C153 1.500 . S
H160 C143 0.929 . S
H161 C144 0.930 . S
H162 C145 0.931 . S
H163 C146 0.930 . S
H164 C155 0.929 . S
H165 C156 0.930 . S
H166 C157 0.931 . S
H167 C158 0.930 . S
C168 C170 1.422 . S
C168 C172 1.415 . S
C168 N174 1.369 . S
C169 C170 1.421 . S
C169 C171 1.417 . S
C169 C181 1.422 . S
C170 C168 1.422 . S
C170 C169 1.421 . S
C170 N180 1.359 . S
C171 C169 1.417 . S
C171 C173 1.329 . S
C171 H190 0.930 . S
C172 C168 1.415 . S
C172 C173 1.437 . S
C172 C176 1.413 . S
C173 C171 1.329 . S
C173 C172 1.437 . S
C173 H195 0.929 . S
N174 C168 1.369 . S
N174 C175 1.338 . S
N174 Gd179 2.622 . S
C175 N174 1.338 . S
C175 C177 1.378 . S
C175 H187 0.929 . S
C176 C172 1.413 . S
C176 C177 1.348 . S
C176 H192 0.931 . S
C177 C175 1.378 . S
C177 C176 1.348 . S
C177 H193 0.930 . S
Gd178 N198 2.622 . S
Gd178 N205 2.570 . S
Gd178 O212 2.353 . S
Gd178 O213 2.468 . S
Gd178 O214 2.427 . S
Gd178 O216 2.388 . S
Gd178 O217 2.386 . S
Gd178 O221 2.307 . S
Gd178 C231 2.805 . S
Gd179 N174 2.622 . S
Gd179 N180 2.570 . S
Gd179 O211 2.386 . S
Gd179 O215 2.307 . S
Gd179 O218 2.353 . S
Gd179 O219 2.468 . S
Gd179 O220 2.427 . S
Gd179 O222 2.388 . S
Gd179 C243 2.805 . S
N180 C170 1.359 . S
N180 Gd179 2.570 . S
N180 C182 1.343 . S
C181 C169 1.422 . S
C181 C183 1.321 . S
C181 H189 0.931 . S
C182 N180 1.343 . S
C182 C183 1.390 . S
C182 H184 0.931 . S
C183 C181 1.321 . S
C183 C182 1.390 . S
C183 H185 0.930 . S
H184 C182 0.931 . S
H185 C183 0.930 . S
H186 C209 0.931 . S
H187 C175 0.929 . S
H188 C210 0.930 . S
H189 C181 0.931 . S
H190 C171 0.930 . S
H191 C200 0.929 . S
H192 C176 0.931 . S
H193 C177 0.930 . S
H194 C232 0.930 . S
H195 C173 0.929 . S
H196 C201 0.931 . S
H197 C202 0.930 . S
N198 Gd178 2.622 . S
N198 C199 1.369 . S
N198 C200 1.338 . S
C199 N198 1.369 . S
C199 C203 1.415 . S
C199 C206 1.422 . S
C200 H191 0.929 . S
C200 N198 1.338 . S
C200 C202 1.378 . S
C201 H196 0.931 . S
C201 C202 1.348 . S
C201 C203 1.413 . S
C202 H197 0.930 . S
C202 C200 1.378 . S
C202 C201 1.348 . S
C203 C199 1.415 . S
C203 C201 1.413 . S
C203 C233 1.437 . S
H204 C233 0.929 . S
N205 Gd178 2.570 . S
N205 C206 1.359 . S
N205 C209 1.343 . S
C206 C199 1.422 . S
C206 N205 1.359 . S
C206 C208 1.421 . S
C207 C208 1.422 . S
C207 C210 1.321 . S
C207 H234 0.931 . S
C208 C206 1.421 . S
C208 C207 1.422 . S
C208 C232 1.417 . S
C209 H186 0.931 . S
C209 N205 1.343 . S
C209 C210 1.390 . S
C210 H188 0.930 . S
C210 C207 1.321 . S
C210 C209 1.390 . S
O211 Gd179 2.386 . S
O211 C223 1.265 . S
O212 Gd178 2.353 . S
O212 C223 1.242 . S
O213 Gd178 2.468 . S
O213 C231 1.263 . S
O214 Gd178 2.427 . S
O214 C231 1.252 . S
O215 Gd179 2.307 . S
O215 C224 1.261 . S
O216 Gd178 2.388 . S
O216 C224 1.252 . S
O217 Gd178 2.386 . S
O217 C235 1.265 . S
O218 Gd179 2.353 . S
O218 C235 1.242 . S
O219 Gd179 2.468 . S
O219 C243 1.263 . S
O220 Gd179 2.427 . S
O220 C243 1.252 . S
O221 Gd178 2.307 . S
O221 C236 1.261 . S
O222 Gd179 2.388 . S
O222 C236 1.252 . S
C223 O211 1.265 . S
C223 O212 1.242 . S
C224 O215 1.261 . S
C224 O216 1.252 . S
C225 C228 1.394 . S
C225 C230 1.370 . S
C225 C231 1.500 . S
C226 C229 1.383 . S
C226 C230 1.395 . S
C227 C228 1.396 . S
C227 C229 1.365 . S
C227 H244 0.929 . S
C228 C225 1.394 . S
C228 C227 1.396 . S
C228 H245 0.930 . S
C229 C226 1.383 . S
C229 C227 1.365 . S
C229 H246 0.931 . S
C230 C225 1.370 . S
C230 C226 1.395 . S
C230 H247 0.930 . S
C231 Gd178 2.805 . S
C231 O213 1.263 . S
C231 O214 1.252 . S
C231 C225 1.500 . S
C232 H194 0.930 . S
C232 C208 1.417 . S
C232 C233 1.329 . S
C233 C203 1.437 . S
C233 H204 0.929 . S
C233 C232 1.329 . S
H234 C207 0.931 . S
C235 O217 1.265 . S
C235 O218 1.242 . S
C236 O221 1.261 . S
C236 O222 1.252 . S
C237 C240 1.394 . S
C237 C242 1.370 . S
C237 C243 1.500 . S
C238 C241 1.383 . S
C238 C242 1.395 . S
C239 C240 1.396 . S
C239 C241 1.365 . S
C239 H248 0.929 . S
C240 C237 1.394 . S
C240 C239 1.396 . S
C240 H249 0.930 . S
C241 C238 1.383 . S
C241 C239 1.365 . S
C241 H250 0.931 . S
C242 C237 1.370 . S
C242 C238 1.395 . S
C242 H251 0.930 . S
C243 Gd179 2.805 . S
C243 O219 1.263 . S
C243 O220 1.252 . S
C243 C237 1.500 . S
H244 C227 0.929 . S
H245 C228 0.930 . S
H246 C229 0.931 . S
H247 C230 0.930 . S
H248 C239 0.929 . S
H249 C240 0.930 . S
H250 C241 0.931 . S
H251 C242 0.930 . S
C252 C254 1.422 . S
C252 C256 1.415 . S
C252 N258 1.369 . S
C253 C254 1.421 . S
C253 C255 1.417 . S
C253 C265 1.422 . S
C254 C252 1.422 . S
C254 C253 1.421 . S
C254 N264 1.359 . S
C255 C253 1.417 . S
C255 C257 1.329 . S
C255 H274 0.930 . S
C256 C252 1.415 . S
C256 C257 1.437 . S
C256 C260 1.413 . S
C257 C255 1.329 . S
C257 C256 1.437 . S
C257 H279 0.929 . S
N258 C252 1.369 . S
N258 C259 1.338 . S
N258 Gd263 2.622 . S
C259 N258 1.338 . S
C259 C261 1.378 . S
C259 H271 0.929 . S
C260 C256 1.413 . S
C260 C261 1.348 . S
C260 H276 0.931 . S
C261 C259 1.378 . S
C261 C260 1.348 . S
C261 H277 0.930 . S
Gd262 N282 2.622 . S
Gd262 N289 2.570 . S
Gd262 O296 2.353 . S
Gd262 O297 2.468 . S
Gd262 O298 2.427 . S
Gd262 O300 2.388 . S
Gd262 O301 2.386 . S
Gd262 O305 2.307 . S
Gd262 C315 2.805 . S
Gd263 N258 2.622 . S
Gd263 N264 2.570 . S
Gd263 O295 2.386 . S
Gd263 O299 2.307 . S
Gd263 O302 2.353 . S
Gd263 O303 2.468 . S
Gd263 O304 2.427 . S
Gd263 O306 2.388 . S
Gd263 C327 2.805 . S
N264 C254 1.359 . S
N264 Gd263 2.570 . S
N264 C266 1.343 . S
C265 C253 1.422 . S
C265 C267 1.321 . S
C265 H273 0.931 . S
C266 N264 1.343 . S
C266 C267 1.390 . S
C266 H268 0.931 . S
C267 C265 1.321 . S
C267 C266 1.390 . S
C267 H269 0.930 . S
H268 C266 0.931 . S
H269 C267 0.930 . S
H270 C293 0.931 . S
H271 C259 0.929 . S
H272 C294 0.930 . S
H273 C265 0.931 . S
H274 C255 0.930 . S
H275 C284 0.929 . S
H276 C260 0.931 . S
H277 C261 0.930 . S
H278 C316 0.930 . S
H279 C257 0.929 . S
H280 C285 0.931 . S
H281 C286 0.930 . S
N282 Gd262 2.622 . S
N282 C283 1.369 . S
N282 C284 1.338 . S
C283 N282 1.369 . S
C283 C287 1.415 . S
C283 C290 1.422 . S
C284 H275 0.929 . S
C284 N282 1.338 . S
C284 C286 1.378 . S
C285 H280 0.931 . S
C285 C286 1.348 . S
C285 C287 1.413 . S
C286 H281 0.930 . S
C286 C284 1.378 . S
C286 C285 1.348 . S
C287 C283 1.415 . S
C287 C285 1.413 . S
C287 C317 1.437 . S
H288 C317 0.929 . S
N289 Gd262 2.570 . S
N289 C290 1.359 . S
N289 C293 1.343 . S
C290 C283 1.422 . S
C290 N289 1.359 . S
C290 C292 1.421 . S
C291 C292 1.422 . S
C291 C294 1.321 . S
C291 H318 0.931 . S
C292 C290 1.421 . S
C292 C291 1.422 . S
C292 C316 1.417 . S
C293 H270 0.931 . S
C293 N289 1.343 . S
C293 C294 1.390 . S
C294 H272 0.930 . S
C294 C291 1.321 . S
C294 C293 1.390 . S
O295 Gd263 2.386 . S
O295 C307 1.265 . S
O296 Gd262 2.353 . S
O296 C307 1.242 . S
O297 Gd262 2.468 . S
O297 C315 1.263 . S
O298 Gd262 2.427 . S
O298 C315 1.252 . S
O299 Gd263 2.307 . S
O299 C308 1.261 . S
O300 Gd262 2.388 . S
O300 C308 1.252 . S
O301 Gd262 2.386 . S
O301 C319 1.265 . S
O302 Gd263 2.353 . S
O302 C319 1.242 . S
O303 Gd263 2.468 . S
O303 C327 1.263 . S
O304 Gd263 2.427 . S
O304 C327 1.252 . S
O305 Gd262 2.307 . S
O305 C320 1.261 . S
O306 Gd263 2.388 . S
O306 C320 1.252 . S
C307 O295 1.265 . S
C307 O296 1.242 . S
C308 O299 1.261 . S
C308 O300 1.252 . S
C309 C312 1.394 . S
C309 C314 1.370 . S
C309 C315 1.500 . S
C310 C313 1.383 . S
C310 C314 1.395 . S
C311 C312 1.396 . S
C311 C313 1.365 . S
C311 H328 0.929 . S
C312 C309 1.394 . S
C312 C311 1.396 . S
C312 H329 0.930 . S
C313 C310 1.383 . S
C313 C311 1.365 . S
C313 H330 0.931 . S
C314 C309 1.370 . S
C314 C310 1.395 . S
C314 H331 0.930 . S
C315 Gd262 2.805 . S
C315 O297 1.263 . S
C315 O298 1.252 . S
C315 C309 1.500 . S
C316 H278 0.930 . S
C316 C292 1.417 . S
C316 C317 1.329 . S
C317 C287 1.437 . S
C317 H288 0.929 . S
C317 C316 1.329 . S
H318 C291 0.931 . S
C319 O301 1.265 . S
C319 O302 1.242 . S
C320 O305 1.261 . S
C320 O306 1.252 . S
C321 C324 1.394 . S
C321 C326 1.370 . S
C321 C327 1.500 . S
C322 C325 1.383 . S
C322 C326 1.395 . S
C323 C324 1.396 . S
C323 C325 1.365 . S
C323 H332 0.929 . S
C324 C321 1.394 . S
C324 C323 1.396 . S
C324 H333 0.930 . S
C325 C322 1.383 . S
C325 C323 1.365 . S
C325 H334 0.931 . S
C326 C321 1.370 . S
C326 C322 1.395 . S
C326 H335 0.930 . S
C327 Gd263 2.805 . S
C327 O303 1.263 . S
C327 O304 1.252 . S
C327 C321 1.500 . S
H328 C311 0.929 . S
H329 C312 0.930 . S
H330 C313 0.931 . S
H331 C314 0.930 . S
H332 C323 0.929 . S
H333 C324 0.930 . S
H334 C325 0.931 . S
H335 C326 0.930 . S
C336 C338 1.422 . S
C336 C340 1.415 . S
C336 N342 1.369 . S
C337 C338 1.421 . S
C337 C339 1.417 . S
C337 C349 1.422 . S
C338 C336 1.422 . S
C338 C337 1.421 . S
C338 N348 1.359 . S
C339 C337 1.417 . S
C339 C341 1.329 . S
C339 H358 0.930 . S
C340 C336 1.415 . S
C340 C341 1.437 . S
C340 C344 1.413 . S
C341 C339 1.329 . S
C341 C340 1.437 . S
C341 H363 0.929 . S
N342 C336 1.369 . S
N342 C343 1.338 . S
N342 Gd347 2.622 . S
C343 N342 1.338 . S
C343 C345 1.378 . S
C343 H355 0.929 . S
C344 C340 1.413 . S
C344 C345 1.348 . S
C344 H360 0.931 . S
C345 C343 1.378 . S
C345 C344 1.348 . S
C345 H361 0.930 . S
Gd346 N366 2.622 . S
Gd346 N373 2.570 . S
Gd346 O380 2.353 . S
Gd346 O381 2.468 . S
Gd346 O382 2.427 . S
Gd346 O384 2.388 . S
Gd346 O385 2.386 . S
Gd346 O389 2.307 . S
Gd346 C399 2.805 . S
Gd347 N342 2.622 . S
Gd347 N348 2.570 . S
Gd347 O379 2.386 . S
Gd347 O383 2.307 . S
Gd347 O386 2.353 . S
Gd347 O387 2.468 . S
Gd347 O388 2.427 . S
Gd347 O390 2.388 . S
Gd347 C411 2.805 . S
N348 C338 1.359 . S
N348 Gd347 2.570 . S
N348 C350 1.343 . S
C349 C337 1.422 . S
C349 C351 1.321 . S
C349 H357 0.931 . S
C350 N348 1.343 . S
C350 C351 1.390 . S
C350 H352 0.931 . S
C351 C349 1.321 . S
C351 C350 1.390 . S
C351 H353 0.930 . S
H352 C350 0.931 . S
H353 C351 0.930 . S
H354 C377 0.931 . S
H355 C343 0.929 . S
H356 C378 0.930 . S
H357 C349 0.931 . S
H358 C339 0.930 . S
H359 C368 0.929 . S
H360 C344 0.931 . S
H361 C345 0.930 . S
H362 C400 0.930 . S
H363 C341 0.929 . S
H364 C369 0.931 . S
H365 C370 0.930 . S
N366 Gd346 2.622 . S
N366 C367 1.369 . S
N366 C368 1.338 . S
C367 N366 1.369 . S
C367 C371 1.415 . S
C367 C374 1.422 . S
C368 H359 0.929 . S
C368 N366 1.338 . S
C368 C370 1.378 . S
C369 H364 0.931 . S
C369 C370 1.348 . S
C369 C371 1.413 . S
C370 H365 0.930 . S
C370 C368 1.378 . S
C370 C369 1.348 . S
C371 C367 1.415 . S
C371 C369 1.413 . S
C371 C401 1.437 . S
H372 C401 0.929 . S
N373 Gd346 2.570 . S
N373 C374 1.359 . S
N373 C377 1.343 . S
C374 C367 1.422 . S
C374 N373 1.359 . S
C374 C376 1.421 . S
C375 C376 1.422 . S
C375 C378 1.321 . S
C375 H402 0.931 . S
C376 C374 1.421 . S
C376 C375 1.422 . S
C376 C400 1.417 . S
C377 H354 0.931 . S
C377 N373 1.343 . S
C377 C378 1.390 . S
C378 H356 0.930 . S
C378 C375 1.321 . S
C378 C377 1.390 . S
O379 Gd347 2.386 . S
O379 C391 1.265 . S
O380 Gd346 2.353 . S
O380 C391 1.242 . S
O381 Gd346 2.468 . S
O381 C399 1.263 . S
O382 Gd346 2.427 . S
O382 C399 1.252 . S
O383 Gd347 2.307 . S
O383 C392 1.261 . S
O384 Gd346 2.388 . S
O384 C392 1.252 . S
O385 Gd346 2.386 . S
O385 C403 1.265 . S
O386 Gd347 2.353 . S
O386 C403 1.242 . S
O387 Gd347 2.468 . S
O387 C411 1.263 . S
O388 Gd347 2.427 . S
O388 C411 1.252 . S
O389 Gd346 2.307 . S
O389 C404 1.261 . S
O390 Gd347 2.388 . S
O390 C404 1.252 . S
C391 O379 1.265 . S
C391 O380 1.242 . S
C392 O383 1.261 . S
C392 O384 1.252 . S
C393 C396 1.394 . S
C393 C398 1.370 . S
C393 C399 1.500 . S
C394 C397 1.383 . S
C394 C398 1.395 . S
C395 C396 1.396 . S
C395 C397 1.365 . S
C395 H412 0.929 . S
C396 C393 1.394 . S
C396 C395 1.396 . S
C396 H413 0.930 . S
C397 C394 1.383 . S
C397 C395 1.365 . S
C397 H414 0.931 . S
C398 C393 1.370 . S
C398 C394 1.395 . S
C398 H415 0.930 . S
C399 Gd346 2.805 . S
C399 O381 1.263 . S
C399 O382 1.252 . S
C399 C393 1.500 . S
C400 H362 0.930 . S
C400 C376 1.417 . S
C400 C401 1.329 . S
C401 C371 1.437 . S
C401 H372 0.929 . S
C401 C400 1.329 . S
H402 C375 0.931 . S
C403 O385 1.265 . S
C403 O386 1.242 . S
C404 O389 1.261 . S
C404 O390 1.252 . S
C405 C408 1.394 . S
C405 C410 1.370 . S
C405 C411 1.500 . S
C406 C409 1.383 . S
C406 C410 1.395 . S
C407 C408 1.396 . S
C407 C409 1.365 . S
C407 H416 0.929 . S
C408 C405 1.394 . S
C408 C407 1.396 . S
C408 H417 0.930 . S
C409 C406 1.383 . S
C409 C407 1.365 . S
C409 H418 0.931 . S
C410 C405 1.370 . S
C410 C406 1.395 . S
C410 H419 0.930 . S
C411 Gd347 2.805 . S
C411 O387 1.263 . S
C411 O388 1.252 . S
C411 C405 1.500 . S
H412 C395 0.929 . S
H413 C396 0.930 . S
H414 C397 0.931 . S
H415 C398 0.930 . S
H416 C407 0.929 . S
H417 C408 0.930 . S
H418 C409 0.931 . S
H419 C410 0.930 . S
C420 C422 1.422 . S
C420 C424 1.415 . S
C420 N426 1.369 . S
C421 C422 1.421 . S
C421 C423 1.417 . S
C421 C433 1.422 . S
C422 C420 1.422 . S
C422 C421 1.421 . S
C422 N432 1.359 . S
C423 C421 1.417 . S
C423 C425 1.329 . S
C423 H442 0.930 . S
C424 C420 1.415 . S
C424 C425 1.437 . S
C424 C428 1.413 . S
C425 C423 1.329 . S
C425 C424 1.437 . S
C425 H447 0.929 . S
N426 C420 1.369 . S
N426 C427 1.338 . S
N426 Gd431 2.622 . S
C427 N426 1.338 . S
C427 C429 1.378 . S
C427 H439 0.929 . S
C428 C424 1.413 . S
C428 C429 1.348 . S
C428 H444 0.931 . S
C429 C427 1.378 . S
C429 C428 1.348 . S
C429 H445 0.930 . S
Gd430 N450 2.622 . S
Gd430 N457 2.570 . S
Gd430 O464 2.353 . S
Gd430 O465 2.468 . S
Gd430 O466 2.427 . S
Gd430 O468 2.388 . S
Gd430 O469 2.386 . S
Gd430 O473 2.307 . S
Gd430 C483 2.805 . S
Gd431 N426 2.622 . S
Gd431 N432 2.570 . S
Gd431 O463 2.386 . S
Gd431 O467 2.307 . S
Gd431 O470 2.353 . S
Gd431 O471 2.468 . S
Gd431 O472 2.427 . S
Gd431 O474 2.388 . S
Gd431 C495 2.805 . S
N432 C422 1.359 . S
N432 Gd431 2.570 . S
N432 C434 1.343 . S
C433 C421 1.422 . S
C433 C435 1.321 . S
C433 H441 0.931 . S
C434 N432 1.343 . S
C434 C435 1.390 . S
C434 H436 0.931 . S
C435 C433 1.321 . S
C435 C434 1.390 . S
C435 H437 0.930 . S
H436 C434 0.931 . S
H437 C435 0.930 . S
H438 C461 0.931 . S
H439 C427 0.929 . S
H440 C462 0.930 . S
H441 C433 0.931 . S
H442 C423 0.930 . S
H443 C452 0.929 . S
H444 C428 0.931 . S
H445 C429 0.930 . S
H446 C484 0.930 . S
H447 C425 0.929 . S
H448 C453 0.931 . S
H449 C454 0.930 . S
N450 Gd430 2.622 . S
N450 C451 1.369 . S
N450 C452 1.338 . S
C451 N450 1.369 . S
C451 C455 1.415 . S
C451 C458 1.422 . S
C452 H443 0.929 . S
C452 N450 1.338 . S
C452 C454 1.378 . S
C453 H448 0.931 . S
C453 C454 1.348 . S
C453 C455 1.413 . S
C454 H449 0.930 . S
C454 C452 1.378 . S
C454 C453 1.348 . S
C455 C451 1.415 . S
C455 C453 1.413 . S
C455 C485 1.437 . S
H456 C485 0.929 . S
N457 Gd430 2.570 . S
N457 C458 1.359 . S
N457 C461 1.343 . S
C458 C451 1.422 . S
C458 N457 1.359 . S
C458 C460 1.421 . S
C459 C460 1.422 . S
C459 C462 1.321 . S
C459 H486 0.931 . S
C460 C458 1.421 . S
C460 C459 1.422 . S
C460 C484 1.417 . S
C461 H438 0.931 . S
C461 N457 1.343 . S
C461 C462 1.390 . S
C462 H440 0.930 . S
C462 C459 1.321 . S
C462 C461 1.390 . S
O463 Gd431 2.386 . S
O463 C475 1.265 . S
O464 Gd430 2.353 . S
O464 C475 1.242 . S
O465 Gd430 2.468 . S
O465 C483 1.263 . S
O466 Gd430 2.427 . S
O466 C483 1.252 . S
O467 Gd431 2.307 . S
O467 C476 1.261 . S
O468 Gd430 2.388 . S
O468 C476 1.252 . S
O469 Gd430 2.386 . S
O469 C487 1.265 . S
O470 Gd431 2.353 . S
O470 C487 1.242 . S
O471 Gd431 2.468 . S
O471 C495 1.263 . S
O472 Gd431 2.427 . S
O472 C495 1.252 . S
O473 Gd430 2.307 . S
O473 C488 1.261 . S
O474 Gd431 2.388 . S
O474 C488 1.252 . S
C475 O463 1.265 . S
C475 O464 1.242 . S
C476 O467 1.261 . S
C476 O468 1.252 . S
C477 C480 1.394 . S
C477 C482 1.370 . S
C477 C483 1.500 . S
C478 C481 1.383 . S
C478 C482 1.395 . S
C479 C480 1.396 . S
C479 C481 1.365 . S
C479 H496 0.929 . S
C480 C477 1.394 . S
C480 C479 1.396 . S
C480 H497 0.930 . S
C481 C478 1.383 . S
C481 C479 1.365 . S
C481 H498 0.931 . S
C482 C477 1.370 . S
C482 C478 1.395 . S
C482 H499 0.930 . S
C483 Gd430 2.805 . S
C483 O465 1.263 . S
C483 O466 1.252 . S
C483 C477 1.500 . S
C484 H446 0.930 . S
C484 C460 1.417 . S
C484 C485 1.329 . S
C485 C455 1.437 . S
C485 H456 0.929 . S
C485 C484 1.329 . S
H486 C459 0.931 . S
C487 O469 1.265 . S
C487 O470 1.242 . S
C488 O473 1.261 . S
C488 O474 1.252 . S
C489 C492 1.394 . S
C489 C494 1.370 . S
C489 C495 1.500 . S
C490 C493 1.383 . S
C490 C494 1.395 . S
C491 C492 1.396 . S
C491 C493 1.365 . S
C491 H500 0.929 . S
C492 C489 1.394 . S
C492 C491 1.396 . S
C492 H501 0.930 . S
C493 C490 1.383 . S
C493 C491 1.365 . S
C493 H502 0.931 . S
C494 C489 1.370 . S
C494 C490 1.395 . S
C494 H503 0.930 . S
C495 Gd431 2.805 . S
C495 O471 1.263 . S
C495 O472 1.252 . S
C495 C489 1.500 . S
H496 C479 0.929 . S
H497 C480 0.930 . S
H498 C481 0.931 . S
H499 C482 0.930 . S
H500 C491 0.929 . S
H501 C492 0.930 . S
H502 C493 0.931 . S
H503 C494 0.930 . S
C504 C506 1.422 . S
C504 C508 1.415 . S
C504 N510 1.369 . S
C505 C506 1.421 . S
C505 C507 1.417 . S
C505 C517 1.422 . S
C506 C504 1.422 . S
C506 C505 1.421 . S
C506 N516 1.359 . S
C507 C505 1.417 . S
C507 C509 1.329 . S
C507 H526 0.930 . S
C508 C504 1.415 . S
C508 C509 1.437 . S
C508 C512 1.413 . S
C509 C507 1.329 . S
C509 C508 1.437 . S
C509 H531 0.929 . S
N510 C504 1.369 . S
N510 C511 1.338 . S
N510 Gd515 2.622 . S
C511 N510 1.338 . S
C511 C513 1.378 . S
C511 H523 0.929 . S
C512 C508 1.413 . S
C512 C513 1.348 . S
C512 H528 0.931 . S
C513 C511 1.378 . S
C513 C512 1.348 . S
C513 H529 0.930 . S
Gd514 N534 2.622 . S
Gd514 N541 2.570 . S
Gd514 O548 2.353 . S
Gd514 O549 2.468 . S
Gd514 O550 2.427 . S
Gd514 O552 2.388 . S
Gd514 O553 2.386 . S
Gd514 O557 2.307 . S
Gd514 C567 2.805 . S
Gd515 N510 2.622 . S
Gd515 N516 2.570 . S
Gd515 O547 2.386 . S
Gd515 O551 2.307 . S
Gd515 O554 2.353 . S
Gd515 O555 2.468 . S
Gd515 O556 2.427 . S
Gd515 O558 2.388 . S
Gd515 C579 2.805 . S
N516 C506 1.359 . S
N516 Gd515 2.570 . S
N516 C518 1.343 . S
C517 C505 1.422 . S
C517 C519 1.321 . S
C517 H525 0.931 . S
C518 N516 1.343 . S
C518 C519 1.390 . S
C518 H520 0.931 . S
C519 C517 1.321 . S
C519 C518 1.390 . S
C519 H521 0.930 . S
H520 C518 0.931 . S
H521 C519 0.930 . S
H522 C545 0.931 . S
H523 C511 0.929 . S
H524 C546 0.930 . S
H525 C517 0.931 . S
H526 C507 0.930 . S
H527 C536 0.929 . S
H528 C512 0.931 . S
H529 C513 0.930 . S
H530 C568 0.930 . S
H531 C509 0.929 . S
H532 C537 0.931 . S
H533 C538 0.930 . S
N534 Gd514 2.622 . S
N534 C535 1.369 . S
N534 C536 1.338 . S
C535 N534 1.369 . S
C535 C539 1.415 . S
C535 C542 1.422 . S
C536 H527 0.929 . S
C536 N534 1.338 . S
C536 C538 1.378 . S
C537 H532 0.931 . S
C537 C538 1.348 . S
C537 C539 1.413 . S
C538 H533 0.930 . S
C538 C536 1.378 . S
C538 C537 1.348 . S
C539 C535 1.415 . S
C539 C537 1.413 . S
C539 C569 1.437 . S
H540 C569 0.929 . S
N541 Gd514 2.570 . S
N541 C542 1.359 . S
N541 C545 1.343 . S
C542 C535 1.422 . S
C542 N541 1.359 . S
C542 C544 1.421 . S
C543 C544 1.422 . S
C543 C546 1.321 . S
C543 H570 0.931 . S
C544 C542 1.421 . S
C544 C543 1.422 . S
C544 C568 1.417 . S
C545 H522 0.931 . S
C545 N541 1.343 . S
C545 C546 1.390 . S
C546 H524 0.930 . S
C546 C543 1.321 . S
C546 C545 1.390 . S
O547 Gd515 2.386 . S
O547 C559 1.265 . S
O548 Gd514 2.353 . S
O548 C559 1.242 . S
O549 Gd514 2.468 . S
O549 C567 1.263 . S
O550 Gd514 2.427 . S
O550 C567 1.252 . S
O551 Gd515 2.307 . S
O551 C560 1.261 . S
O552 Gd514 2.388 . S
O552 C560 1.252 . S
O553 Gd514 2.386 . S
O553 C571 1.265 . S
O554 Gd515 2.353 . S
O554 C571 1.242 . S
O555 Gd515 2.468 . S
O555 C579 1.263 . S
O556 Gd515 2.427 . S
O556 C579 1.252 . S
O557 Gd514 2.307 . S
O557 C572 1.261 . S
O558 Gd515 2.388 . S
O558 C572 1.252 . S
C559 O547 1.265 . S
C559 O548 1.242 . S
C560 O551 1.261 . S
C560 O552 1.252 . S
C561 C564 1.394 . S
C561 C566 1.370 . S
C561 C567 1.500 . S
C562 C565 1.383 . S
C562 C566 1.395 . S
C563 C564 1.396 . S
C563 C565 1.365 . S
C563 H580 0.929 . S
C564 C561 1.394 . S
C564 C563 1.396 . S
C564 H581 0.930 . S
C565 C562 1.383 . S
C565 C563 1.365 . S
C565 H582 0.931 . S
C566 C561 1.370 . S
C566 C562 1.395 . S
C566 H583 0.930 . S
C567 Gd514 2.805 . S
C567 O549 1.263 . S
C567 O550 1.252 . S
C567 C561 1.500 . S
C568 H530 0.930 . S
C568 C544 1.417 . S
C568 C569 1.329 . S
C569 C539 1.437 . S
C569 H540 0.929 . S
C569 C568 1.329 . S
H570 C543 0.931 . S
C571 O553 1.265 . S
C571 O554 1.242 . S
C572 O557 1.261 . S
C572 O558 1.252 . S
C573 C576 1.394 . S
C573 C578 1.370 . S
C573 C579 1.500 . S
C574 C577 1.383 . S
C574 C578 1.395 . S
C575 C576 1.396 . S
C575 C577 1.365 . S
C575 H584 0.929 . S
C576 C573 1.394 . S
C576 C575 1.396 . S
C576 H585 0.930 . S
C577 C574 1.383 . S
C577 C575 1.365 . S
C577 H586 0.931 . S
C578 C573 1.370 . S
C578 C574 1.395 . S
C578 H587 0.930 . S
C579 Gd515 2.805 . S
C579 O555 1.263 . S
C579 O556 1.252 . S
C579 C573 1.500 . S
H580 C563 0.929 . S
H581 C564 0.930 . S
H582 C565 0.931 . S
H583 C566 0.930 . S
H584 C575 0.929 . S
H585 C576 0.930 . S
H586 C577 0.931 . S
H587 C578 0.930 . S
C588 C590 1.422 . S
C588 C592 1.415 . S
C588 N594 1.369 . S
C589 C590 1.421 . S
C589 C591 1.417 . S
C589 C601 1.422 . S
C590 C588 1.422 . S
C590 C589 1.421 . S
C590 N600 1.359 . S
C591 C589 1.417 . S
C591 C593 1.329 . S
C591 H610 0.930 . S
C592 C588 1.415 . S
C592 C593 1.437 . S
C592 C596 1.413 . S
C593 C591 1.329 . S
C593 C592 1.437 . S
C593 H615 0.929 . S
N594 C588 1.369 . S
N594 C595 1.338 . S
N594 Gd599 2.622 . S
C595 N594 1.338 . S
C595 C597 1.378 . S
C595 H607 0.929 . S
C596 C592 1.413 . S
C596 C597 1.348 . S
C596 H612 0.931 . S
C597 C595 1.378 . S
C597 C596 1.348 . S
C597 H613 0.930 . S
Gd598 N618 2.622 . S
Gd598 N625 2.570 . S
Gd598 O632 2.353 . S
Gd598 O633 2.468 . S
Gd598 O634 2.427 . S
Gd598 O636 2.388 . S
Gd598 O637 2.386 . S
Gd598 O641 2.307 . S
Gd598 C651 2.805 . S
Gd599 N594 2.622 . S
Gd599 N600 2.570 . S
Gd599 O631 2.386 . S
Gd599 O635 2.307 . S
Gd599 O638 2.353 . S
Gd599 O639 2.468 . S
Gd599 O640 2.427 . S
Gd599 O642 2.388 . S
Gd599 C663 2.805 . S
N600 C590 1.359 . S
N600 Gd599 2.570 . S
N600 C602 1.343 . S
C601 C589 1.422 . S
C601 C603 1.321 . S
C601 H609 0.931 . S
C602 N600 1.343 . S
C602 C603 1.390 . S
C602 H604 0.931 . S
C603 C601 1.321 . S
C603 C602 1.390 . S
C603 H605 0.930 . S
H604 C602 0.931 . S
H605 C603 0.930 . S
H606 C629 0.931 . S
H607 C595 0.929 . S
H608 C630 0.930 . S
H609 C601 0.931 . S
H610 C591 0.930 . S
H611 C620 0.929 . S
H612 C596 0.931 . S
H613 C597 0.930 . S
H614 C652 0.930 . S
H615 C593 0.929 . S
H616 C621 0.931 . S
H617 C622 0.930 . S
N618 Gd598 2.622 . S
N618 C619 1.369 . S
N618 C620 1.338 . S
C619 N618 1.369 . S
C619 C623 1.415 . S
C619 C626 1.422 . S
C620 H611 0.929 . S
C620 N618 1.338 . S
C620 C622 1.378 . S
C621 H616 0.931 . S
C621 C622 1.348 . S
C621 C623 1.413 . S
C622 H617 0.930 . S
C622 C620 1.378 . S
C622 C621 1.348 . S
C623 C619 1.415 . S
C623 C621 1.413 . S
C623 C653 1.437 . S
H624 C653 0.929 . S
N625 Gd598 2.570 . S
N625 C626 1.359 . S
N625 C629 1.343 . S
C626 C619 1.422 . S
C626 N625 1.359 . S
C626 C628 1.421 . S
C627 C628 1.422 . S
C627 C630 1.321 . S
C627 H654 0.931 . S
C628 C626 1.421 . S
C628 C627 1.422 . S
C628 C652 1.417 . S
C629 H606 0.931 . S
C629 N625 1.343 . S
C629 C630 1.390 . S
C630 H608 0.930 . S
C630 C627 1.321 . S
C630 C629 1.390 . S
O631 Gd599 2.386 . S
O631 C643 1.265 . S
O632 Gd598 2.353 . S
O632 C643 1.242 . S
O633 Gd598 2.468 . S
O633 C651 1.263 . S
O634 Gd598 2.427 . S
O634 C651 1.252 . S
O635 Gd599 2.307 . S
O635 C644 1.261 . S
O636 Gd598 2.388 . S
O636 C644 1.252 . S
O637 Gd598 2.386 . S
O637 C655 1.265 . S
O638 Gd599 2.353 . S
O638 C655 1.242 . S
O639 Gd599 2.468 . S
O639 C663 1.263 . S
O640 Gd599 2.427 . S
O640 C663 1.252 . S
O641 Gd598 2.307 . S
O641 C656 1.261 . S
O642 Gd599 2.388 . S
O642 C656 1.252 . S
C643 O631 1.265 . S
C643 O632 1.242 . S
C644 O635 1.261 . S
C644 O636 1.252 . S
C645 C648 1.394 . S
C645 C650 1.370 . S
C645 C651 1.500 . S
C646 C649 1.383 . S
C646 C650 1.395 . S
C647 C648 1.396 . S
C647 C649 1.365 . S
C647 H664 0.929 . S
C648 C645 1.394 . S
C648 C647 1.396 . S
C648 H665 0.930 . S
C649 C646 1.383 . S
C649 C647 1.365 . S
C649 H666 0.931 . S
C650 C645 1.370 . S
C650 C646 1.395 . S
C650 H667 0.930 . S
C651 Gd598 2.805 . S
C651 O633 1.263 . S
C651 O634 1.252 . S
C651 C645 1.500 . S
C652 H614 0.930 . S
C652 C628 1.417 . S
C652 C653 1.329 . S
C653 C623 1.437 . S
C653 H624 0.929 . S
C653 C652 1.329 . S
H654 C627 0.931 . S
C655 O637 1.265 . S
C655 O638 1.242 . S
C656 O641 1.261 . S
C656 O642 1.252 . S
C657 C660 1.394 . S
C657 C662 1.370 . S
C657 C663 1.500 . S
C658 C661 1.383 . S
C658 C662 1.395 . S
C659 C660 1.396 . S
C659 C661 1.365 . S
C659 H668 0.929 . S
C660 C657 1.394 . S
C660 C659 1.396 . S
C660 H669 0.930 . S
C661 C658 1.383 . S
C661 C659 1.365 . S
C661 H670 0.931 . S
C662 C657 1.370 . S
C662 C658 1.395 . S
C662 H671 0.930 . S
C663 Gd599 2.805 . S
C663 O639 1.263 . S
C663 O640 1.252 . S
C663 C657 1.500 . S
H664 C647 0.929 . S
H665 C648 0.930 . S
H666 C649 0.931 . S
H667 C650 0.930 . S
H668 C659 0.929 . S
H669 C660 0.930 . S
H670 C661 0.931 . S
H671 C662 0.930 . S
Fe672 O673 1.886 1_455 S
Fe672 O676 1.715 . S
Fe672 O681 2.077 1_455 S
Fe672 O686 1.935 . S
Fe672 O692 2.077 1_455 S
Fe672 O701 1.935 . S
O673 Fe672 1.886 1_655 S
O673 Fe675 1.715 1_545 S
Fe674 O676 1.886 . S
Fe674 O677 1.715 1_545 S
Fe674 O684 1.935 1_545 S
Fe674 O685 2.077 . S
Fe674 O691 1.935 1_545 S
Fe674 O700 2.077 . S
Fe675 O673 1.715 1_565 S
Fe675 O678 1.886 . S
Fe675 O682 1.935 1_565 S
Fe675 O687 2.077 . S
Fe675 O693 1.935 1_565 S
Fe675 O697 2.077 . S
O676 Fe672 1.715 . S
O676 Fe674 1.886 . S
O677 Fe674 1.715 1_565 S
O677 Fe679 1.886 1_455 S
O678 Fe675 1.886 . S
O678 Fe679 1.715 . S
Fe679 O677 1.886 1_655 S
Fe679 O678 1.715 . S
Fe679 O683 2.077 1_655 S
Fe679 O688 1.935 . S
Fe679 O690 2.077 1_655 S
Fe679 O698 1.935 . S
C680 O692 1.381 . S
C680 O693 1.421 . S
O681 Fe672 2.077 1_655 S
O681 C694 1.381 . S
O682 Fe675 1.935 1_545 S
O682 C694 1.421 . S
O683 Fe679 2.077 1_455 S
O683 C699 1.381 . S
O684 Fe674 1.935 1_565 S
O684 C699 1.421 . S
O685 Fe674 2.077 . S
O685 C689 1.381 . S
O686 Fe672 1.935 . S
O686 C689 1.421 . S
O687 Fe675 2.077 . S
O687 C695 1.381 . S
O688 Fe679 1.935 . S
O688 C695 1.421 . S
C689 O685 1.381 . S
C689 O686 1.421 . S
O690 Fe679 2.077 1_455 S
O690 C702 1.381 . S
O691 Fe674 1.935 1_565 S
O691 C702 1.421 . S
O692 Fe672 2.077 1_655 S
O692 C680 1.381 . S
O693 Fe675 1.935 1_545 S
O693 C680 1.421 . S
C694 O681 1.381 . S
C694 O682 1.421 . S
C695 O687 1.381 . S
C695 O688 1.421 . S
C696 O697 1.381 . S
C696 O698 1.421 . S
O697 Fe675 2.077 . S
O697 C696 1.381 . S
O698 Fe679 1.935 . S
O698 C696 1.421 . S
C699 O683 1.381 . S
C699 O684 1.421 . S
O700 Fe674 2.077 . S
O700 C703 1.381 . S
O701 Fe672 1.935 . S
O701 C703 1.421 . S
C702 O690 1.381 . S
C702 O691 1.421 . S
C703 O700 1.381 . S
C703 O701 1.421 . S
Fe704 O705 1.886 . S
Fe704 O708 1.715 . S
Fe704 O713 2.077 . S
Fe704 O718 1.935 . S
Fe704 O724 2.077 1_556 S
Fe704 O733 1.935 1_556 S
O705 Fe704 1.886 . S
O705 Fe707 1.715 1_565 S
Fe706 O708 1.886 1_554 S
Fe706 O709 1.715 1_565 S
Fe706 O716 1.935 1_564 S
Fe706 O717 2.077 1_554 S
Fe706 O723 1.935 1_565 S
Fe706 O732 2.077 . S
Fe707 O705 1.715 1_545 S
Fe707 O710 1.887 1_556 S
Fe707 O714 1.935 1_545 S
Fe707 O719 2.077 . S
Fe707 O725 1.935 1_546 S
Fe707 O729 2.077 1_556 S
O708 Fe704 1.715 . S
O708 Fe706 1.886 1_556 S
O709 Fe706 1.715 1_545 S
O709 Fe711 1.886 . S
O710 Fe707 1.887 1_554 S
O710 Fe711 1.714 . S
Fe711 O709 1.886 . S
Fe711 O710 1.714 . S
Fe711 O715 2.077 1_554 S
Fe711 O720 1.935 1_554 S
Fe711 O722 2.077 . S
Fe711 O730 1.935 . S
C712 O724 1.381 . S
C712 O725 1.421 . S
O713 Fe704 2.077 . S
O713 C726 1.381 . S
O714 Fe707 1.935 1_565 S
O714 C726 1.421 . S
O715 Fe711 2.077 1_556 S
O715 C731 1.381 . S
O716 Fe706 1.935 1_546 S
O716 C731 1.421 . S
O717 Fe706 2.077 1_556 S
O717 C721 1.381 . S
O718 Fe704 1.935 . S
O718 C721 1.421 . S
O719 Fe707 2.077 . S
O719 C727 1.381 . S
O720 Fe711 1.935 1_556 S
O720 C727 1.421 . S
C721 O717 1.381 . S
C721 O718 1.421 . S
O722 Fe711 2.077 . S
O722 C734 1.381 . S
O723 Fe706 1.935 1_545 S
O723 C734 1.421 . S
O724 Fe704 2.077 1_554 S
O724 C712 1.381 . S
O725 Fe707 1.935 1_564 S
O725 C712 1.421 . S
C726 O713 1.381 . S
C726 O714 1.421 . S
C727 O719 1.381 . S
C727 O720 1.421 . S
C728 O729 1.381 . S
C728 O730 1.421 . S
O729 Fe707 2.077 1_554 S
O729 C728 1.381 . S
O730 Fe711 1.935 . S
O730 C728 1.421 . S
C731 O715 1.381 . S
C731 O716 1.421 . S
O732 Fe706 2.077 . S
O732 C735 1.381 . S
O733 Fe704 1.935 1_554 S
O733 C735 1.421 . S
C734 O722 1.381 . S
C734 O723 1.421 . S
C735 O732 1.381 . S
C735 O733 1.421 . S
Fe736 O737 1.886 1_455 S
Fe736 O740 1.714 . S
Fe736 O745 2.077 1_454 S
Fe736 O750 1.935 1_554 S
Fe736 O756 2.077 1_455 S
Fe736 O765 1.935 . S
O737 Fe736 1.886 1_655 S
O737 Fe739 1.715 . S
Fe738 O740 1.887 1_556 S
Fe738 O741 1.715 . S
Fe738 O748 1.935 . S
Fe738 O749 2.077 . S
Fe738 O755 1.935 1_556 S
Fe738 O764 2.077 1_556 S
Fe739 O737 1.715 . S
Fe739 O742 1.886 1_554 S
Fe739 O746 1.935 1_554 S
Fe739 O751 2.077 1_554 S
Fe739 O757 1.935 . S
Fe739 O761 2.077 . S
O740 Fe736 1.714 . S
O740 Fe738 1.887 1_554 S
O741 Fe738 1.715 . S
O741 Fe743 1.886 1_455 S
O742 Fe739 1.886 1_556 S
O742 Fe743 1.715 . S
Fe743 O741 1.886 1_655 S
Fe743 O742 1.715 . S
Fe743 O747 2.077 1_655 S
Fe743 O752 1.935 . S
Fe743 O754 2.077 1_656 S
Fe743 O762 1.935 1_556 S
C744 O756 1.381 . S
C744 O757 1.421 . S
O745 Fe736 2.077 1_656 S
O745 C758 1.381 . S
O746 Fe739 1.935 1_556 S
O746 C758 1.421 . S
O747 Fe743 2.077 1_455 S
O747 C763 1.381 . S
O748 Fe738 1.935 . S
O748 C763 1.421 . S
O749 Fe738 2.077 . S
O749 C753 1.381 . S
O750 Fe736 1.935 1_556 S
O750 C753 1.421 . S
O751 Fe739 2.077 1_556 S
O751 C759 1.381 . S
O752 Fe743 1.935 . S
O752 C759 1.421 . S
C753 O749 1.381 . S
C753 O750 1.421 . S
O754 Fe743 2.077 1_454 S
O754 C766 1.381 . S
O755 Fe738 1.935 1_554 S
O755 C766 1.421 . S
O756 Fe736 2.077 1_655 S
O756 C744 1.381 . S
O757 Fe739 1.935 . S
O757 C744 1.421 . S
C758 O745 1.381 . S
C758 O746 1.421 . S
C759 O751 1.381 . S
C759 O752 1.421 . S
C760 O761 1.381 . S
C760 O762 1.421 . S
O761 Fe739 2.077 . S
O761 C760 1.381 . S
O762 Fe743 1.935 1_554 S
O762 C760 1.421 . S
C763 O747 1.381 . S
C763 O748 1.421 . S
O764 Fe738 2.077 1_554 S
O764 C767 1.381 . S
O765 Fe736 1.935 . S
O765 C767 1.421 . S
C766 O754 1.381 . S
C766 O755 1.421 . S
C767 O764 1.381 . S
C767 O765 1.421 . S
Fe768 O769 1.886 . S
Fe768 O772 1.715 . S
Fe768 O777 2.077 . S
Fe768 O782 1.935 . S
Fe768 O788 2.077 . S
Fe768 O797 1.935 . S
O769 Fe768 1.886 . S
O769 Fe771 1.715 . S
Fe770 O772 1.886 1_554 S
Fe770 O773 1.715 . S
Fe770 O780 1.935 . S
Fe770 O781 2.077 1_554 S
Fe770 O787 1.935 . S
Fe770 O796 2.077 1_554 S
Fe771 O769 1.715 . S
Fe771 O774 1.886 1_556 S
Fe771 O778 1.935 . S
Fe771 O783 2.077 1_556 S
Fe771 O789 1.935 . S
Fe771 O793 2.077 1_556 S
O772 Fe768 1.715 . S
O772 Fe770 1.886 1_556 S
O773 Fe770 1.715 . S
O773 Fe775 1.886 . S
O774 Fe771 1.886 1_554 S
O774 Fe775 1.715 . S
Fe775 O773 1.886 . S
Fe775 O774 1.715 . S
Fe775 O779 2.077 . S
Fe775 O784 1.935 . S
Fe775 O786 2.077 . S
Fe775 O794 1.935 . S
C776 O788 1.381 . S
C776 O789 1.421 . S
O777 Fe768 2.077 . S
O777 C790 1.381 . S
O778 Fe771 1.935 . S
O778 C790 1.421 . S
O779 Fe775 2.077 . S
O779 C795 1.381 . S
O780 Fe770 1.935 . S
O780 C795 1.421 . S
O781 Fe770 2.077 1_556 S
O781 C785 1.381 . S
O782 Fe768 1.935 . S
O782 C785 1.421 . S
O783 Fe771 2.077 1_554 S
O783 C791 1.381 . S
O784 Fe775 1.935 . S
O784 C791 1.421 . S
C785 O781 1.381 . S
C785 O782 1.421 . S
O786 Fe775 2.077 . S
O786 C798 1.381 . S
O787 Fe770 1.935 . S
O787 C798 1.421 . S
O788 Fe768 2.077 . S
O788 C776 1.381 . S
O789 Fe771 1.935 . S
O789 C776 1.421 . S
C790 O777 1.381 . S
C790 O778 1.421 . S
C791 O783 1.381 . S
C791 O784 1.421 . S
C792 O793 1.381 . S
C792 O794 1.421 . S
O793 Fe771 2.077 1_554 S
O793 C792 1.381 . S
O794 Fe775 1.935 . S
O794 C792 1.421 . S
C795 O779 1.381 . S
C795 O780 1.421 . S
O796 Fe770 2.077 1_556 S
O796 C799 1.381 . S
O797 Fe768 1.935 . S
O797 C799 1.421 . S
C798 O786 1.381 . S
C798 O787 1.421 . S
C799 O796 1.381 . S
C799 O797 1.421 . S
Fe800 O801 1.886 . S
Fe800 O804 1.715 . S
Fe800 O809 2.077 1_655 S
Fe800 O814 1.935 1_655 S
Fe800 O820 2.077 . S
Fe800 O829 1.935 . S
O801 Fe800 1.886 . S
O801 Fe803 1.715 . S
Fe802 O804 1.886 1_455 S
Fe802 O805 1.715 . S
Fe802 O812 1.935 . S
Fe802 O813 2.077 . S
Fe802 O819 1.935 1_455 S
Fe802 O828 2.077 1_455 S
Fe803 O801 1.715 . S
Fe803 O806 1.886 1_655 S
Fe803 O810 1.935 1_655 S
Fe803 O815 2.077 1_655 S
Fe803 O821 1.935 . S
Fe803 O825 2.077 . S
O804 Fe800 1.715 . S
O804 Fe802 1.886 1_655 S
O805 Fe802 1.715 . S
O805 Fe807 1.886 . S
O806 Fe803 1.886 1_455 S
O806 Fe807 1.715 . S
Fe807 O805 1.886 . S
Fe807 O806 1.715 . S
Fe807 O811 2.077 . S
Fe807 O816 1.935 . S
Fe807 O818 2.077 1_455 S
Fe807 O826 1.935 1_455 S
C808 O820 1.381 . S
C808 O821 1.421 . S
O809 Fe800 2.077 1_455 S
O809 C822 1.381 . S
O810 Fe803 1.935 1_455 S
O810 C822 1.421 . S
O811 Fe807 2.077 . S
O811 C827 1.381 . S
O812 Fe802 1.935 . S
O812 C827 1.421 . S
O813 Fe802 2.077 . S
O813 C817 1.381 . S
O814 Fe800 1.935 1_455 S
O814 C817 1.421 . S
O815 Fe803 2.077 1_455 S
O815 C823 1.381 . S
O816 Fe807 1.935 . S
O816 C823 1.421 . S
C817 O813 1.381 . S
C817 O814 1.421 . S
O818 Fe807 2.077 1_655 S
O818 C830 1.381 . S
O819 Fe802 1.935 1_655 S
O819 C830 1.421 . S
O820 Fe800 2.077 . S
O820 C808 1.381 . S
O821 Fe803 1.935 . S
O821 C808 1.421 . S
C822 O809 1.381 . S
C822 O810 1.421 . S
C823 O815 1.381 . S
C823 O816 1.421 . S
C824 O825 1.381 . S
C824 O826 1.421 . S
O825 Fe803 2.077 . S
O825 C824 1.381 . S
O826 Fe807 1.935 1_655 S
O826 C824 1.421 . S
C827 O811 1.381 . S
C827 O812 1.421 . S
O828 Fe802 2.077 1_655 S
O828 C831 1.381 . S
O829 Fe800 1.935 . S
O829 C831 1.421 . S
C830 O818 1.381 . S
C830 O819 1.421 . S
C831 O828 1.381 . S
C831 O829 1.421 . S
Fe832 O833 1.886 . S
Fe832 O836 1.715 . S
Fe832 O841 2.077 . S
Fe832 O846 1.935 . S
Fe832 O852 2.077 . S
Fe832 O861 1.935 . S
O833 Fe832 1.886 . S
O833 Fe835 1.715 1_565 S
Fe834 O836 1.886 . S
Fe834 O837 1.715 1_565 S
Fe834 O844 1.935 1_565 S
Fe834 O845 2.077 . S
Fe834 O851 1.935 1_565 S
Fe834 O860 2.077 . S
Fe835 O833 1.715 1_545 S
Fe835 O838 1.886 . S
Fe835 O842 1.935 1_545 S
Fe835 O847 2.077 . S
Fe835 O853 1.935 1_545 S
Fe835 O857 2.077 . S
O836 Fe832 1.715 . S
O836 Fe834 1.886 . S
O837 Fe834 1.715 1_545 S
O837 Fe839 1.886 . S
O838 Fe835 1.886 . S
O838 Fe839 1.715 . S
Fe839 O837 1.886 . S
Fe839 O838 1.715 . S
Fe839 O843 2.077 . S
Fe839 O848 1.935 . S
Fe839 O850 2.077 . S
Fe839 O858 1.935 . S
C840 O852 1.381 . S
C840 O853 1.421 . S
O841 Fe832 2.077 . S
O841 C854 1.381 . S
O842 Fe835 1.935 1_565 S
O842 C854 1.421 . S
O843 Fe839 2.077 . S
O843 C859 1.381 . S
O844 Fe834 1.935 1_545 S
O844 C859 1.421 . S
O845 Fe834 2.077 . S
O845 C849 1.381 . S
O846 Fe832 1.935 . S
O846 C849 1.421 . S
O847 Fe835 2.077 . S
O847 C855 1.381 . S
O848 Fe839 1.935 . S
O848 C855 1.421 . S
C849 O845 1.381 . S
C849 O846 1.421 . S
O850 Fe839 2.077 . S
O850 C862 1.381 . S
O851 Fe834 1.935 1_545 S
O851 C862 1.421 . S
O852 Fe832 2.077 . S
O852 C840 1.381 . S
O853 Fe835 1.935 1_565 S
O853 C840 1.421 . S
C854 O841 1.381 . S
C854 O842 1.421 . S
C855 O847 1.381 . S
C855 O848 1.421 . S
C856 O857 1.381 . S
C856 O858 1.421 . S
O857 Fe835 2.077 . S
O857 C856 1.381 . S
O858 Fe839 1.935 . S
O858 C856 1.421 . S
C859 O843 1.381 . S
C859 O844 1.421 . S
O860 Fe834 2.077 . S
O860 C863 1.381 . S
O861 Fe832 1.935 . S
O861 C863 1.421 . S
C862 O850 1.381 . S
C862 O851 1.421 . S
C863 O860 1.381 . S
C863 O861 1.421 . S
H864 C876 0.930 . S
H865 C878 0.930 . S
H866 C879 0.930 . S
H867 C883 0.959 . S
H868 C883 0.959 . S
H869 C883 0.961 . S
H870 C884 0.960 . S
H871 C884 0.961 . S
H872 C884 0.959 . S
H873 C887 0.929 . S
H874 C888 0.931 . S
H875 C890 0.930 . S
C876 H864 0.930 . S
C876 C877 1.399 . S
C876 C881 1.399 . S
C877 C876 1.399 . S
C877 C878 1.376 . S
C878 H865 0.930 . S
C878 C877 1.376 . S
C878 C879 1.388 . S
C879 H866 0.930 . S
C879 C878 1.388 . S
C879 C880 1.390 . S
C880 C879 1.390 . S
C880 C881 1.394 . S
C880 C886 1.465 . S
C881 C876 1.399 . S
C881 C880 1.394 . S
C881 C882 1.516 . S
C882 C881 1.516 . S
C882 C883 1.502 . S
C882 C884 1.561 . S
C882 C885 1.526 . S
C883 H867 0.959 . S
C883 H868 0.959 . S
C883 H869 0.961 . S
C883 C882 1.502 . S
C884 H870 0.960 . S
C884 H871 0.961 . S
C884 H872 0.959 . S
C884 C882 1.561 . S
C885 C882 1.526 . S
C885 C886 1.396 . S
C885 C890 1.390 . S
C886 C880 1.465 . S
C886 C885 1.396 . S
C886 C887 1.399 . S
C887 H873 0.929 . S
C887 C886 1.399 . S
C887 C888 1.385 . S
C888 H874 0.931 . S
C888 C887 1.385 . S
C888 C889 1.389 . S
C889 C888 1.389 . S
C889 C890 1.387 . S
C890 H875 0.930 . S
C890 C885 1.390 . S
C890 C889 1.387 . S
H891 C903 0.930 . S
H892 C905 0.930 . S
H893 C906 0.930 . S
H894 C910 0.959 . S
H895 C910 0.959 . S
H896 C910 0.961 . S
H897 C911 0.960 . S
H898 C911 0.961 . S
H899 C911 0.959 . S
H900 C914 0.929 . S
H901 C915 0.931 . S
H902 C917 0.930 . S
C903 H891 0.930 . S
C903 C904 1.399 . S
C903 C908 1.399 . S
C904 C903 1.399 . S
C904 C905 1.376 . S
C905 H892 0.930 . S
C905 C904 1.376 . S
C905 C906 1.388 . S
C906 H893 0.930 . S
C906 C905 1.388 . S
C906 C907 1.390 . S
C907 C906 1.390 . S
C907 C908 1.394 . S
C907 C913 1.465 . S
C908 C903 1.399 . S
C908 C907 1.394 . S
C908 C909 1.516 . S
C909 C908 1.516 . S
C909 C910 1.502 . S
C909 C911 1.561 . S
C909 C912 1.526 . S
C910 H894 0.959 . S
C910 H895 0.959 . S
C910 H896 0.961 . S
C910 C909 1.502 . S
C911 H897 0.960 . S
C911 H898 0.961 . S
C911 H899 0.959 . S
C911 C909 1.561 . S
C912 C909 1.526 . S
C912 C913 1.396 . S
C912 C917 1.390 . S
C913 C907 1.465 . S
C913 C912 1.396 . S
C913 C914 1.399 . S
C914 H900 0.929 . S
C914 C913 1.399 . S
C914 C915 1.385 . S
C915 H901 0.931 . S
C915 C914 1.385 . S
C915 C916 1.389 . S
C916 C915 1.389 . S
C916 C917 1.387 . S
C917 H902 0.930 . S
C917 C912 1.390 . S
C917 C916 1.387 . S
H918 C930 0.930 . S
H919 C932 0.930 . S
H920 C933 0.930 . S
H921 C937 0.959 . S
H922 C937 0.959 . S
H923 C937 0.961 . S
H924 C938 0.960 . S
H925 C938 0.961 . S
H926 C938 0.959 . S
H927 C941 0.929 . S
H928 C942 0.931 . S
H929 C944 0.930 . S
C930 H918 0.930 . S
C930 C931 1.399 . S
C930 C935 1.399 . S
C931 C930 1.399 . S
C931 C932 1.376 . S
C932 H919 0.930 . S
C932 C931 1.376 . S
C932 C933 1.388 . S
C933 H920 0.930 . S
C933 C932 1.388 . S
C933 C934 1.390 . S
C934 C933 1.390 . S
C934 C935 1.394 . S
C934 C940 1.465 . S
C935 C930 1.399 . S
C935 C934 1.394 . S
C935 C936 1.516 . S
C936 C935 1.516 . S
C936 C937 1.502 . S
C936 C938 1.561 . S
C936 C939 1.526 . S
C937 H921 0.959 . S
C937 H922 0.959 . S
C937 H923 0.961 . S
C937 C936 1.502 . S
C938 H924 0.960 . S
C938 H925 0.961 . S
C938 H926 0.959 . S
C938 C936 1.561 . S
C939 C936 1.526 . S
C939 C940 1.396 . S
C939 C944 1.390 . S
C940 C934 1.465 . S
C940 C939 1.396 . S
C940 C941 1.399 . S
C941 H927 0.929 . S
C941 C940 1.399 . S
C941 C942 1.385 . S
C942 H928 0.931 . S
C942 C941 1.385 . S
C942 C943 1.389 . S
C943 C942 1.389 . S
C943 C944 1.387 . S
C944 H929 0.930 . S
C944 C939 1.390 . S
C944 C943 1.387 . S
H945 C957 0.930 . S
H946 C959 0.930 . S
H947 C960 0.930 . S
H948 C964 0.959 . S
H949 C964 0.959 . S
H950 C964 0.961 . S
H951 C965 0.960 . S
H952 C965 0.961 . S
H953 C965 0.959 . S
H954 C968 0.929 . S
H955 C969 0.931 . S
H956 C971 0.930 . S
C957 H945 0.930 . S
C957 C958 1.399 . S
C957 C962 1.399 . S
C958 C957 1.399 . S
C958 C959 1.376 . S
C959 H946 0.930 . S
C959 C958 1.376 . S
C959 C960 1.388 . S
C960 H947 0.930 . S
C960 C959 1.388 . S
C960 C961 1.390 . S
C961 C960 1.390 . S
C961 C962 1.394 . S
C961 C967 1.465 . S
C962 C957 1.399 . S
C962 C961 1.394 . S
C962 C963 1.516 . S
C963 C962 1.516 . S
C963 C964 1.502 . S
C963 C965 1.561 . S
C963 C966 1.526 . S
C964 H948 0.959 . S
C964 H949 0.959 . S
C964 H950 0.961 . S
C964 C963 1.502 . S
C965 H951 0.960 . S
C965 H952 0.961 . S
C965 H953 0.959 . S
C965 C963 1.561 . S
C966 C963 1.526 . S
C966 C967 1.396 . S
C966 C971 1.390 . S
C967 C961 1.465 . S
C967 C966 1.396 . S
C967 C968 1.399 . S
C968 H954 0.929 . S
C968 C967 1.399 . S
C968 C969 1.385 . S
C969 H955 0.931 . S
C969 C968 1.385 . S
C969 C970 1.389 . S
C970 C969 1.389 . S
C970 C971 1.387 . S
C971 H956 0.930 . S
C971 C966 1.390 . S
C971 C970 1.387 . S
H972 C984 0.930 . S
H973 C986 0.930 . S
H974 C987 0.930 . S
H975 C991 0.959 . S
H976 C991 0.959 . S
H977 C991 0.961 . S
H978 C992 0.960 . S
H979 C992 0.961 . S
H980 C992 0.959 . S
H981 C995 0.929 . S
H982 C996 0.931 . S
H983 C998 0.930 . S
C984 H972 0.930 . S
C984 C985 1.399 . S
C984 C989 1.399 . S
C985 C984 1.399 . S
C985 C986 1.376 . S
C986 H973 0.930 . S
C986 C985 1.376 . S
C986 C987 1.388 . S
C987 H974 0.930 . S
C987 C986 1.388 . S
C987 C988 1.390 . S
C988 C987 1.390 . S
C988 C989 1.394 . S
C988 C994 1.465 . S
C989 C984 1.399 . S
C989 C988 1.394 . S
C989 C990 1.516 . S
C990 C989 1.516 . S
C990 C991 1.502 . S
C990 C992 1.561 . S
C990 C993 1.526 . S
C991 H975 0.959 . S
C991 H976 0.959 . S
C991 H977 0.961 . S
C991 C990 1.502 . S
C992 H978 0.960 . S
C992 H979 0.961 . S
C992 H980 0.959 . S
C992 C990 1.561 . S
C993 C990 1.526 . S
C993 C994 1.396 . S
C993 C998 1.390 . S
C994 C988 1.465 . S
C994 C993 1.396 . S
C994 C995 1.399 . S
C995 H981 0.929 . S
C995 C994 1.399 . S
C995 C996 1.385 . S
C996 H982 0.931 . S
C996 C995 1.385 . S
C996 C997 1.389 . S
C997 C996 1.389 . S
C997 C998 1.387 . S
C998 H983 0.930 . S
C998 C993 1.390 . S
C998 C997 1.387 . S
H999 C1011 0.930 . S
H1000 C1013 0.930 . S
H1001 C1014 0.930 . S
H1002 C1018 0.959 . S
H1003 C1018 0.959 . S
H1004 C1018 0.961 . S
H1005 C1019 0.960 . S
H1006 C1019 0.961 . S
H1007 C1019 0.959 . S
H1008 C1022 0.929 . S
H1009 C1023 0.931 . S
H1010 C1025 0.930 . S
C1011 H999 0.930 . S
C1011 C1012 1.399 . S
C1011 C1016 1.399 . S
C1012 C1011 1.399 . S
C1012 C1013 1.376 . S
C1013 H1000 0.930 . S
C1013 C1012 1.376 . S
C1013 C1014 1.388 . S
C1014 H1001 0.930 . S
C1014 C1013 1.388 . S
C1014 C1015 1.390 . S
C1015 C1014 1.390 . S
C1015 C1016 1.394 . S
C1015 C1021 1.465 . S
C1016 C1011 1.399 . S
C1016 C1015 1.394 . S
C1016 C1017 1.516 . S
C1017 C1016 1.516 . S
C1017 C1018 1.502 . S
C1017 C1019 1.561 . S
C1017 C1020 1.526 . S
C1018 H1002 0.959 . S
C1018 H1003 0.959 . S
C1018 H1004 0.961 . S
C1018 C1017 1.502 . S
C1019 H1005 0.960 . S
C1019 H1006 0.961 . S
C1019 H1007 0.959 . S
C1019 C1017 1.561 . S
C1020 C1017 1.526 . S
C1020 C1021 1.396 . S
C1020 C1025 1.390 . S
C1021 C1015 1.465 . S
C1021 C1020 1.396 . S
C1021 C1022 1.399 . S
C1022 H1008 0.929 . S
C1022 C1021 1.399 . S
C1022 C1023 1.385 . S
C1023 H1009 0.931 . S
C1023 C1022 1.385 . S
C1023 C1024 1.389 . S
C1024 C1023 1.389 . S
C1024 C1025 1.387 . S
C1025 H1010 0.930 . S
C1025 C1020 1.390 . S
C1025 C1024 1.387 . S
H1026 C1038 0.930 . S
H1027 C1040 0.930 . S
H1028 C1041 0.930 . S
H1029 C1045 0.959 . S
H1030 C1045 0.959 . S
H1031 C1045 0.961 . S
H1032 C1046 0.960 . S
H1033 C1046 0.961 . S
H1034 C1046 0.959 . S
H1035 C1049 0.929 . S
H1036 C1050 0.931 . S
H1037 C1052 0.930 . S
C1038 H1026 0.930 . S
C1038 C1039 1.399 . S
C1038 C1043 1.399 . S
C1039 C1038 1.399 . S
C1039 C1040 1.376 . S
C1040 H1027 0.930 . S
C1040 C1039 1.376 . S
C1040 C1041 1.388 . S
C1041 H1028 0.930 . S
C1041 C1040 1.388 . S
C1041 C1042 1.390 . S
C1042 C1041 1.390 . S
C1042 C1043 1.394 . S
C1042 C1048 1.465 . S
C1043 C1038 1.399 . S
C1043 C1042 1.394 . S
C1043 C1044 1.516 . S
C1044 C1043 1.516 . S
C1044 C1045 1.502 . S
C1044 C1046 1.561 . S
C1044 C1047 1.526 . S
C1045 H1029 0.959 . S
C1045 H1030 0.959 . S
C1045 H1031 0.961 . S
C1045 C1044 1.502 . S
C1046 H1032 0.960 . S
C1046 H1033 0.961 . S
C1046 H1034 0.959 . S
C1046 C1044 1.561 . S
C1047 C1044 1.526 . S
C1047 C1048 1.396 . S
C1047 C1052 1.390 . S
C1048 C1042 1.465 . S
C1048 C1047 1.396 . S
C1048 C1049 1.399 . S
C1049 H1035 0.929 . S
C1049 C1048 1.399 . S
C1049 C1050 1.385 . S
C1050 H1036 0.931 . S
C1050 C1049 1.385 . S
C1050 C1051 1.389 . S
C1051 C1050 1.389 . S
C1051 C1052 1.387 . S
C1052 H1037 0.930 . S
C1052 C1047 1.390 . S
C1052 C1051 1.387 . S
H1053 C1065 0.930 . S
H1054 C1067 0.930 . S
H1055 C1068 0.930 . S
H1056 C1072 0.959 . S
H1057 C1072 0.959 . S
H1058 C1072 0.961 . S
H1059 C1073 0.960 . S
H1060 C1073 0.961 . S
H1061 C1073 0.959 . S
H1062 C1076 0.929 . S
H1063 C1077 0.931 . S
H1064 C1079 0.930 . S
C1065 H1053 0.930 . S
C1065 C1066 1.399 . S
C1065 C1070 1.399 . S
C1066 C1065 1.399 . S
C1066 C1067 1.376 . S
C1067 H1054 0.930 . S
C1067 C1066 1.376 . S
C1067 C1068 1.388 . S
C1068 H1055 0.930 . S
C1068 C1067 1.388 . S
C1068 C1069 1.390 . S
C1069 C1068 1.390 . S
C1069 C1070 1.394 . S
C1069 C1075 1.465 . S
C1070 C1065 1.399 . S
C1070 C1069 1.394 . S
C1070 C1071 1.516 . S
C1071 C1070 1.516 . S
C1071 C1072 1.502 . S
C1071 C1073 1.561 . S
C1071 C1074 1.526 . S
C1072 H1056 0.959 . S
C1072 H1057 0.959 . S
C1072 H1058 0.961 . S
C1072 C1071 1.502 . S
C1073 H1059 0.960 . S
C1073 H1060 0.961 . S
C1073 H1061 0.959 . S
C1073 C1071 1.561 . S
C1074 C1071 1.526 . S
C1074 C1075 1.396 . S
C1074 C1079 1.390 . S
C1075 C1069 1.465 . S
C1075 C1074 1.396 . S
C1075 C1076 1.399 . S
C1076 H1062 0.929 . S
C1076 C1075 1.399 . S
C1076 C1077 1.385 . S
C1077 H1063 0.931 . S
C1077 C1076 1.385 . S
C1077 C1078 1.389 . S
C1078 C1077 1.389 . S
C1078 C1079 1.387 . S
C1079 H1064 0.930 . S
C1079 C1074 1.390 . S
C1079 C1078 1.387 . S
H1080 C1092 0.930 . S
H1081 C1094 0.930 . S
H1082 C1095 0.930 . S
H1083 C1099 0.959 . S
H1084 C1099 0.959 . S
H1085 C1099 0.961 . S
H1086 C1100 0.960 . S
H1087 C1100 0.961 . S
H1088 C1100 0.959 . S
H1089 C1103 0.929 . S
H1090 C1104 0.931 . S
H1091 C1106 0.930 . S
C1092 H1080 0.930 . S
C1092 C1093 1.399 . S
C1092 C1097 1.399 . S
C1093 C1092 1.399 . S
C1093 C1094 1.376 . S
C1094 H1081 0.930 . S
C1094 C1093 1.376 . S
C1094 C1095 1.388 . S
C1095 H1082 0.930 . S
C1095 C1094 1.388 . S
C1095 C1096 1.390 . S
C1096 C1095 1.390 . S
C1096 C1097 1.394 . S
C1096 C1102 1.465 . S
C1097 C1092 1.399 . S
C1097 C1096 1.394 . S
C1097 C1098 1.516 . S
C1098 C1097 1.516 . S
C1098 C1099 1.502 . S
C1098 C1100 1.561 . S
C1098 C1101 1.526 . S
C1099 H1083 0.959 . S
C1099 H1084 0.959 . S
C1099 H1085 0.961 . S
C1099 C1098 1.502 . S
C1100 H1086 0.960 . S
C1100 H1087 0.961 . S
C1100 H1088 0.959 . S
C1100 C1098 1.561 . S
C1101 C1098 1.526 . S
C1101 C1102 1.396 . S
C1101 C1106 1.390 . S
C1102 C1096 1.465 . S
C1102 C1101 1.396 . S
C1102 C1103 1.399 . S
C1103 H1089 0.929 . S
C1103 C1102 1.399 . S
C1103 C1104 1.385 . S
C1104 H1090 0.931 . S
C1104 C1103 1.385 . S
C1104 C1105 1.389 . S
C1105 C1104 1.389 . S
C1105 C1106 1.387 . S
C1106 H1091 0.930 . S
C1106 C1101 1.390 . S
C1106 C1105 1.387 . S
H1107 C1119 0.930 . S
H1108 C1121 0.930 . S
H1109 C1122 0.930 . S
H1110 C1126 0.959 . S
H1111 C1126 0.959 . S
H1112 C1126 0.961 . S
H1113 C1127 0.960 . S
H1114 C1127 0.961 . S
H1115 C1127 0.959 . S
H1116 C1130 0.929 . S
H1117 C1131 0.931 . S
H1118 C1133 0.930 . S
C1119 H1107 0.930 . S
C1119 C1120 1.399 . S
C1119 C1124 1.399 . S
C1120 C1119 1.399 . S
C1120 C1121 1.376 . S
C1121 H1108 0.930 . S
C1121 C1120 1.376 . S
C1121 C1122 1.388 . S
C1122 H1109 0.930 . S
C1122 C1121 1.388 . S
C1122 C1123 1.390 . S
C1123 C1122 1.390 . S
C1123 C1124 1.394 . S
C1123 C1129 1.465 . S
C1124 C1119 1.399 . S
C1124 C1123 1.394 . S
C1124 C1125 1.516 . S
C1125 C1124 1.516 . S
C1125 C1126 1.502 . S
C1125 C1127 1.561 . S
C1125 C1128 1.526 . S
C1126 H1110 0.959 . S
C1126 H1111 0.959 . S
C1126 H1112 0.961 . S
C1126 C1125 1.502 . S
C1127 H1113 0.960 . S
C1127 H1114 0.961 . S
C1127 H1115 0.959 . S
C1127 C1125 1.561 . S
C1128 C1125 1.526 . S
C1128 C1129 1.396 . S
C1128 C1133 1.390 . S
C1129 C1123 1.465 . S
C1129 C1128 1.396 . S
C1129 C1130 1.399 . S
C1130 H1116 0.929 . S
C1130 C1129 1.399 . S
C1130 C1131 1.385 . S
C1131 H1117 0.931 . S
C1131 C1130 1.385 . S
C1131 C1132 1.389 . S
C1132 C1131 1.389 . S
C1132 C1133 1.387 . S
C1133 H1118 0.930 . S
C1133 C1128 1.390 . S
C1133 C1132 1.387 . S
H1134 C1146 0.930 . S
H1135 C1148 0.930 . S
H1136 C1149 0.930 . S
H1137 C1153 0.959 . S
H1138 C1153 0.959 . S
H1139 C1153 0.961 . S
H1140 C1154 0.960 . S
H1141 C1154 0.961 . S
H1142 C1154 0.959 . S
H1143 C1157 0.929 . S
H1144 C1158 0.931 . S
H1145 C1160 0.930 . S
C1146 H1134 0.930 . S
C1146 C1147 1.399 . S
C1146 C1151 1.399 . S
C1147 C1146 1.399 . S
C1147 C1148 1.376 . S
C1148 H1135 0.930 . S
C1148 C1147 1.376 . S
C1148 C1149 1.388 . S
C1149 H1136 0.930 . S
C1149 C1148 1.388 . S
C1149 C1150 1.390 . S
C1150 C1149 1.390 . S
C1150 C1151 1.394 . S
C1150 C1156 1.465 . S
C1151 C1146 1.399 . S
C1151 C1150 1.394 . S
C1151 C1152 1.516 . S
C1152 C1151 1.516 . S
C1152 C1153 1.502 . S
C1152 C1154 1.561 . S
C1152 C1155 1.526 . S
C1153 H1137 0.959 . S
C1153 H1138 0.959 . S
C1153 H1139 0.961 . S
C1153 C1152 1.502 . S
C1154 H1140 0.960 . S
C1154 H1141 0.961 . S
C1154 H1142 0.959 . S
C1154 C1152 1.561 . S
C1155 C1152 1.526 . S
C1155 C1156 1.396 . S
C1155 C1160 1.390 . S
C1156 C1150 1.465 . S
C1156 C1155 1.396 . S
C1156 C1157 1.399 . S
C1157 H1143 0.929 . S
C1157 C1156 1.399 . S
C1157 C1158 1.385 . S
C1158 H1144 0.931 . S
C1158 C1157 1.385 . S
C1158 C1159 1.389 . S
C1159 C1158 1.389 . S
C1159 C1160 1.387 . S
C1160 H1145 0.930 . S
C1160 C1155 1.390 . S
C1160 C1159 1.387 . S
H1161 C1173 0.930 . S
H1162 C1175 0.930 . S
H1163 C1176 0.930 . S
H1164 C1180 0.959 . S
H1165 C1180 0.959 . S
H1166 C1180 0.961 . S
H1167 C1181 0.960 . S
H1168 C1181 0.961 . S
H1169 C1181 0.959 . S
H1170 C1184 0.929 . S
H1171 C1185 0.931 . S
H1172 C1187 0.930 . S
C1173 H1161 0.930 . S
C1173 C1174 1.399 . S
C1173 C1178 1.399 . S
C1174 C1173 1.399 . S
C1174 C1175 1.376 . S
C1175 H1162 0.930 . S
C1175 C1174 1.376 . S
C1175 C1176 1.388 . S
C1176 H1163 0.930 . S
C1176 C1175 1.388 . S
C1176 C1177 1.390 . S
C1177 C1176 1.390 . S
C1177 C1178 1.394 . S
C1177 C1183 1.465 . S
C1178 C1173 1.399 . S
C1178 C1177 1.394 . S
C1178 C1179 1.516 . S
C1179 C1178 1.516 . S
C1179 C1180 1.502 . S
C1179 C1181 1.561 . S
C1179 C1182 1.526 . S
C1180 H1164 0.959 . S
C1180 H1165 0.959 . S
C1180 H1166 0.961 . S
C1180 C1179 1.502 . S
C1181 H1167 0.960 . S
C1181 H1168 0.961 . S
C1181 H1169 0.959 . S
C1181 C1179 1.561 . S
C1182 C1179 1.526 . S
C1182 C1183 1.396 . S
C1182 C1187 1.390 . S
C1183 C1177 1.465 . S
C1183 C1182 1.396 . S
C1183 C1184 1.399 . S
C1184 H1170 0.929 . S
C1184 C1183 1.399 . S
C1184 C1185 1.385 . S
C1185 H1171 0.931 . S
C1185 C1184 1.385 . S
C1185 C1186 1.389 . S
C1186 C1185 1.389 . S
C1186 C1187 1.387 . S
C1187 H1172 0.930 . S
C1187 C1182 1.390 . S
C1187 C1186 1.387 . S
H1188 C1200 0.930 . S
H1189 C1202 0.930 . S
H1190 C1203 0.930 . S
H1191 C1207 0.959 . S
H1192 C1207 0.959 . S
H1193 C1207 0.961 . S
H1194 C1208 0.960 . S
H1195 C1208 0.961 . S
H1196 C1208 0.959 . S
H1197 C1211 0.929 . S
H1198 C1212 0.931 . S
H1199 C1214 0.930 . S
C1200 H1188 0.930 . S
C1200 C1201 1.399 . S
C1200 C1205 1.399 . S
C1201 C1200 1.399 . S
C1201 C1202 1.376 . S
C1202 H1189 0.930 . S
C1202 C1201 1.376 . S
C1202 C1203 1.388 . S
C1203 H1190 0.930 . S
C1203 C1202 1.388 . S
C1203 C1204 1.390 . S
C1204 C1203 1.390 . S
C1204 C1205 1.394 . S
C1204 C1210 1.465 . S
C1205 C1200 1.399 . S
C1205 C1204 1.394 . S
C1205 C1206 1.516 . S
C1206 C1205 1.516 . S
C1206 C1207 1.502 . S
C1206 C1208 1.561 . S
C1206 C1209 1.526 . S
C1207 H1191 0.959 . S
C1207 H1192 0.959 . S
C1207 H1193 0.961 . S
C1207 C1206 1.502 . S
C1208 H1194 0.960 . S
C1208 H1195 0.961 . S
C1208 H1196 0.959 . S
C1208 C1206 1.561 . S
C1209 C1206 1.526 . S
C1209 C1210 1.396 . S
C1209 C1214 1.390 . S
C1210 C1204 1.465 . S
C1210 C1209 1.396 . S
C1210 C1211 1.399 . S
C1211 H1197 0.929 . S
C1211 C1210 1.399 . S
C1211 C1212 1.385 . S
C1212 H1198 0.931 . S
C1212 C1211 1.385 . S
C1212 C1213 1.389 . S
C1213 C1212 1.389 . S
C1213 C1214 1.387 . S
C1214 H1199 0.930 . S
C1214 C1209 1.390 . S
C1214 C1213 1.387 . S
H1215 C1227 0.930 . S
H1216 C1229 0.930 . S
H1217 C1230 0.930 . S
H1218 C1234 0.959 . S
H1219 C1234 0.959 . S
H1220 C1234 0.961 . S
H1221 C1235 0.960 . S
H1222 C1235 0.961 . S
H1223 C1235 0.959 . S
H1224 C1238 0.929 . S
H1225 C1239 0.931 . S
H1226 C1241 0.930 . S
C1227 H1215 0.930 . S
C1227 C1228 1.399 . S
C1227 C1232 1.399 . S
C1228 C1227 1.399 . S
C1228 C1229 1.376 . S
C1229 H1216 0.930 . S
C1229 C1228 1.376 . S
C1229 C1230 1.388 . S
C1230 H1217 0.930 . S
C1230 C1229 1.388 . S
C1230 C1231 1.390 . S
C1231 C1230 1.390 . S
C1231 C1232 1.394 . S
C1231 C1237 1.465 . S
C1232 C1227 1.399 . S
C1232 C1231 1.394 . S
C1232 C1233 1.516 . S
C1233 C1232 1.516 . S
C1233 C1234 1.502 . S
C1233 C1235 1.561 . S
C1233 C1236 1.526 . S
C1234 H1218 0.959 . S
C1234 H1219 0.959 . S
C1234 H1220 0.961 . S
C1234 C1233 1.502 . S
C1235 H1221 0.960 . S
C1235 H1222 0.961 . S
C1235 H1223 0.959 . S
C1235 C1233 1.561 . S
C1236 C1233 1.526 . S
C1236 C1237 1.396 . S
C1236 C1241 1.390 . S
C1237 C1231 1.465 . S
C1237 C1236 1.396 . S
C1237 C1238 1.399 . S
C1238 H1224 0.929 . S
C1238 C1237 1.399 . S
C1238 C1239 1.385 . S
C1239 H1225 0.931 . S
C1239 C1238 1.385 . S
C1239 C1240 1.389 . S
C1240 C1239 1.389 . S
C1240 C1241 1.387 . S
C1241 H1226 0.930 . S
C1241 C1236 1.390 . S
C1241 C1240 1.387 . S
H1242 C1254 0.930 . S
H1243 C1256 0.930 . S
H1244 C1257 0.930 . S
H1245 C1261 0.959 . S
H1246 C1261 0.959 . S
H1247 C1261 0.961 . S
H1248 C1262 0.960 . S
H1249 C1262 0.961 . S
H1250 C1262 0.959 . S
H1251 C1265 0.929 . S
H1252 C1266 0.931 . S
H1253 C1268 0.930 . S
C1254 H1242 0.930 . S
C1254 C1255 1.399 . S
C1254 C1259 1.399 . S
C1255 C1254 1.399 . S
C1255 C1256 1.376 . S
C1256 H1243 0.930 . S
C1256 C1255 1.376 . S
C1256 C1257 1.388 . S
C1257 H1244 0.930 . S
C1257 C1256 1.388 . S
C1257 C1258 1.390 . S
C1258 C1257 1.390 . S
C1258 C1259 1.394 . S
C1258 C1264 1.465 . S
C1259 C1254 1.399 . S
C1259 C1258 1.394 . S
C1259 C1260 1.516 . S
C1260 C1259 1.516 . S
C1260 C1261 1.502 . S
C1260 C1262 1.561 . S
C1260 C1263 1.526 . S
C1261 H1245 0.959 . S
C1261 H1246 0.959 . S
C1261 H1247 0.961 . S
C1261 C1260 1.502 . S
C1262 H1248 0.960 . S
C1262 H1249 0.961 . S
C1262 H1250 0.959 . S
C1262 C1260 1.561 . S
C1263 C1260 1.526 . S
C1263 C1264 1.396 . S
C1263 C1268 1.390 . S
C1264 C1258 1.465 . S
C1264 C1263 1.396 . S
C1264 C1265 1.399 . S
C1265 H1251 0.929 . S
C1265 C1264 1.399 . S
C1265 C1266 1.385 . S
C1266 H1252 0.931 . S
C1266 C1265 1.385 . S
C1266 C1267 1.389 . S
C1267 C1266 1.389 . S
C1267 C1268 1.387 . S
C1268 H1253 0.930 . S
C1268 C1263 1.390 . S
C1268 C1267 1.387 . S
H1269 C1281 0.930 . S
H1270 C1283 0.930 . S
H1271 C1284 0.930 . S
H1272 C1288 0.959 . S
H1273 C1288 0.959 . S
H1274 C1288 0.961 . S
H1275 C1289 0.960 . S
H1276 C1289 0.961 . S
H1277 C1289 0.959 . S
H1278 C1292 0.929 . S
H1279 C1293 0.931 . S
H1280 C1295 0.930 . S
C1281 H1269 0.930 . S
C1281 C1282 1.399 . S
C1281 C1286 1.399 . S
C1282 C1281 1.399 . S
C1282 C1283 1.376 . S
C1283 H1270 0.930 . S
C1283 C1282 1.376 . S
C1283 C1284 1.388 . S
C1284 H1271 0.930 . S
C1284 C1283 1.388 . S
C1284 C1285 1.390 . S
C1285 C1284 1.390 . S
C1285 C1286 1.394 . S
C1285 C1291 1.465 . S
C1286 C1281 1.399 . S
C1286 C1285 1.394 . S
C1286 C1287 1.516 . S
C1287 C1286 1.516 . S
C1287 C1288 1.502 . S
C1287 C1289 1.561 . S
C1287 C1290 1.526 . S
C1288 H1272 0.959 . S
C1288 H1273 0.959 . S
C1288 H1274 0.961 . S
C1288 C1287 1.502 . S
C1289 H1275 0.960 . S
C1289 H1276 0.961 . S
C1289 H1277 0.959 . S
C1289 C1287 1.561 . S
C1290 C1287 1.526 . S
C1290 C1291 1.396 . S
C1290 C1295 1.390 . S
C1291 C1285 1.465 . S
C1291 C1290 1.396 . S
C1291 C1292 1.399 . S
C1292 H1278 0.929 . S
C1292 C1291 1.399 . S
C1292 C1293 1.385 . S
C1293 H1279 0.931 . S
C1293 C1292 1.385 . S
C1293 C1294 1.389 . S
C1294 C1293 1.389 . S
C1294 C1295 1.387 . S
C1295 H1280 0.930 . S
C1295 C1290 1.390 . S
C1295 C1294 1.387 . S
H1296 C1308 0.930 . S
H1297 C1310 0.930 . S
H1298 C1311 0.930 . S
H1299 C1315 0.959 . S
H1300 C1315 0.959 . S
H1301 C1315 0.961 . S
H1302 C1316 0.960 . S
H1303 C1316 0.961 . S
H1304 C1316 0.959 . S
H1305 C1319 0.929 . S
H1306 C1320 0.931 . S
H1307 C1322 0.930 . S
C1308 H1296 0.930 . S
C1308 C1309 1.399 . S
C1308 C1313 1.399 . S
C1309 C1308 1.399 . S
C1309 C1310 1.376 . S
C1310 H1297 0.930 . S
C1310 C1309 1.376 . S
C1310 C1311 1.388 . S
C1311 H1298 0.930 . S
C1311 C1310 1.388 . S
C1311 C1312 1.390 . S
C1312 C1311 1.390 . S
C1312 C1313 1.394 . S
C1312 C1318 1.465 . S
C1313 C1308 1.399 . S
C1313 C1312 1.394 . S
C1313 C1314 1.516 . S
C1314 C1313 1.516 . S
C1314 C1315 1.502 . S
C1314 C1316 1.561 . S
C1314 C1317 1.526 . S
C1315 H1299 0.959 . S
C1315 H1300 0.959 . S
C1315 H1301 0.961 . S
C1315 C1314 1.502 . S
C1316 H1302 0.960 . S
C1316 H1303 0.961 . S
C1316 H1304 0.959 . S
C1316 C1314 1.561 . S
C1317 C1314 1.526 . S
C1317 C1318 1.396 . S
C1317 C1322 1.390 . S
C1318 C1312 1.465 . S
C1318 C1317 1.396 . S
C1318 C1319 1.399 . S
C1319 H1305 0.929 . S
C1319 C1318 1.399 . S
C1319 C1320 1.385 . S
C1320 H1306 0.931 . S
C1320 C1319 1.385 . S
C1320 C1321 1.389 . S
C1321 C1320 1.389 . S
C1321 C1322 1.387 . S
C1322 H1307 0.930 . S
C1322 C1317 1.390 . S
C1322 C1321 1.387 . S
H1323 C1335 0.930 . S
H1324 C1337 0.930 . S
H1325 C1338 0.930 . S
H1326 C1342 0.959 . S
H1327 C1342 0.959 . S
H1328 C1342 0.961 . S
H1329 C1343 0.960 . S
H1330 C1343 0.961 . S
H1331 C1343 0.959 . S
H1332 C1346 0.929 . S
H1333 C1347 0.931 . S
H1334 C1349 0.930 . S
C1335 H1323 0.930 . S
C1335 C1336 1.399 . S
C1335 C1340 1.399 . S
C1336 C1335 1.399 . S
C1336 C1337 1.376 . S
C1337 H1324 0.930 . S
C1337 C1336 1.376 . S
C1337 C1338 1.388 . S
C1338 H1325 0.930 . S
C1338 C1337 1.388 . S
C1338 C1339 1.390 . S
C1339 C1338 1.390 . S
C1339 C1340 1.394 . S
C1339 C1345 1.465 . S
C1340 C1335 1.399 . S
C1340 C1339 1.394 . S
C1340 C1341 1.516 . S
C1341 C1340 1.516 . S
C1341 C1342 1.502 . S
C1341 C1343 1.561 . S
C1341 C1344 1.526 . S
C1342 H1326 0.959 . S
C1342 H1327 0.959 . S
C1342 H1328 0.961 . S
C1342 C1341 1.502 . S
C1343 H1329 0.960 . S
C1343 H1330 0.961 . S
C1343 H1331 0.959 . S
C1343 C1341 1.561 . S
C1344 C1341 1.526 . S
C1344 C1345 1.396 . S
C1344 C1349 1.390 . S
C1345 C1339 1.465 . S
C1345 C1344 1.396 . S
C1345 C1346 1.399 . S
C1346 H1332 0.929 . S
C1346 C1345 1.399 . S
C1346 C1347 1.385 . S
C1347 H1333 0.931 . S
C1347 C1346 1.385 . S
C1347 C1348 1.389 . S
C1348 C1347 1.389 . S
C1348 C1349 1.387 . S
C1349 H1334 0.930 . S
C1349 C1344 1.390 . S
C1349 C1348 1.387 . S
H1350 C1362 0.930 . S
H1351 C1364 0.930 . S
H1352 C1365 0.930 . S
H1353 C1369 0.959 . S
H1354 C1369 0.959 . S
H1355 C1369 0.961 . S
H1356 C1370 0.960 . S
H1357 C1370 0.961 . S
H1358 C1370 0.959 . S
H1359 C1373 0.929 . S
H1360 C1374 0.931 . S
H1361 C1376 0.930 . S
C1362 H1350 0.930 . S
C1362 C1363 1.399 . S
C1362 C1367 1.399 . S
C1363 C1362 1.399 . S
C1363 C1364 1.376 . S
C1364 H1351 0.930 . S
C1364 C1363 1.376 . S
C1364 C1365 1.388 . S
C1365 H1352 0.930 . S
C1365 C1364 1.388 . S
C1365 C1366 1.390 . S
C1366 C1365 1.390 . S
C1366 C1367 1.394 . S
C1366 C1372 1.465 . S
C1367 C1362 1.399 . S
C1367 C1366 1.394 . S
C1367 C1368 1.516 . S
C1368 C1367 1.516 . S
C1368 C1369 1.502 . S
C1368 C1370 1.561 . S
C1368 C1371 1.526 . S
C1369 H1353 0.959 . S
C1369 H1354 0.959 . S
C1369 H1355 0.961 . S
C1369 C1368 1.502 . S
C1370 H1356 0.960 . S
C1370 H1357 0.961 . S
C1370 H1358 0.959 . S
C1370 C1368 1.561 . S
C1371 C1368 1.526 . S
C1371 C1372 1.396 . S
C1371 C1376 1.390 . S
C1372 C1366 1.465 . S
C1372 C1371 1.396 . S
C1372 C1373 1.399 . S
C1373 H1359 0.929 . S
C1373 C1372 1.399 . S
C1373 C1374 1.385 . S
C1374 H1360 0.931 . S
C1374 C1373 1.385 . S
C1374 C1375 1.389 . S
C1375 C1374 1.389 . S
C1375 C1376 1.387 . S
C1376 H1361 0.930 . S
C1376 C1371 1.390 . S
C1376 C1375 1.387 . S
H1377 C1389 0.930 . S
H1378 C1391 0.930 . S
H1379 C1392 0.930 . S
H1380 C1396 0.959 . S
H1381 C1396 0.959 . S
H1382 C1396 0.961 . S
H1383 C1397 0.960 . S
H1384 C1397 0.961 . S
H1385 C1397 0.959 . S
H1386 C1400 0.929 . S
H1387 C1401 0.931 . S
H1388 C1403 0.930 . S
C1389 H1377 0.930 . S
C1389 C1390 1.399 . S
C1389 C1394 1.399 . S
C1390 C1389 1.399 . S
C1390 C1391 1.376 . S
C1391 H1378 0.930 . S
C1391 C1390 1.376 . S
C1391 C1392 1.388 . S
C1392 H1379 0.930 . S
C1392 C1391 1.388 . S
C1392 C1393 1.390 . S
C1393 C1392 1.390 . S
C1393 C1394 1.394 . S
C1393 C1399 1.465 . S
C1394 C1389 1.399 . S
C1394 C1393 1.394 . S
C1394 C1395 1.516 . S
C1395 C1394 1.516 . S
C1395 C1396 1.502 . S
C1395 C1397 1.561 . S
C1395 C1398 1.526 . S
C1396 H1380 0.959 . S
C1396 H1381 0.959 . S
C1396 H1382 0.961 . S
C1396 C1395 1.502 . S
C1397 H1383 0.960 . S
C1397 H1384 0.961 . S
C1397 H1385 0.959 . S
C1397 C1395 1.561 . S
C1398 C1395 1.526 . S
C1398 C1399 1.396 . S
C1398 C1403 1.390 . S
C1399 C1393 1.465 . S
C1399 C1398 1.396 . S
C1399 C1400 1.399 . S
C1400 H1386 0.929 . S
C1400 C1399 1.399 . S
C1400 C1401 1.385 . S
C1401 H1387 0.931 . S
C1401 C1400 1.385 . S
C1401 C1402 1.389 . S
C1402 C1401 1.389 . S
C1402 C1403 1.387 . S
C1403 H1388 0.930 . S
C1403 C1398 1.390 . S
C1403 C1402 1.387 . S
H1404 C1416 0.930 . S
H1405 C1418 0.930 . S
H1406 C1419 0.930 . S
H1407 C1423 0.959 . S
H1408 C1423 0.959 . S
H1409 C1423 0.961 . S
H1410 C1424 0.960 . S
H1411 C1424 0.961 . S
H1412 C1424 0.959 . S
H1413 C1427 0.929 . S
H1414 C1428 0.931 . S
H1415 C1430 0.930 . S
C1416 H1404 0.930 . S
C1416 C1417 1.399 . S
C1416 C1421 1.399 . S
C1417 C1416 1.399 . S
C1417 C1418 1.376 . S
C1418 H1405 0.930 . S
C1418 C1417 1.376 . S
C1418 C1419 1.388 . S
C1419 H1406 0.930 . S
C1419 C1418 1.388 . S
C1419 C1420 1.390 . S
C1420 C1419 1.390 . S
C1420 C1421 1.394 . S
C1420 C1426 1.465 . S
C1421 C1416 1.399 . S
C1421 C1420 1.394 . S
C1421 C1422 1.516 . S
C1422 C1421 1.516 . S
C1422 C1423 1.502 . S
C1422 C1424 1.561 . S
C1422 C1425 1.526 . S
C1423 H1407 0.959 . S
C1423 H1408 0.959 . S
C1423 H1409 0.961 . S
C1423 C1422 1.502 . S
C1424 H1410 0.960 . S
C1424 H1411 0.961 . S
C1424 H1412 0.959 . S
C1424 C1422 1.561 . S
C1425 C1422 1.526 . S
C1425 C1426 1.396 . S
C1425 C1430 1.390 . S
C1426 C1420 1.465 . S
C1426 C1425 1.396 . S
C1426 C1427 1.399 . S
C1427 H1413 0.929 . S
C1427 C1426 1.399 . S
C1427 C1428 1.385 . S
C1428 H1414 0.931 . S
C1428 C1427 1.385 . S
C1428 C1429 1.389 . S
C1429 C1428 1.389 . S
C1429 C1430 1.387 . S
C1430 H1415 0.930 . S
C1430 C1425 1.390 . S
C1430 C1429 1.387 . S
H1431 C1443 0.930 . S
H1432 C1445 0.930 . S
H1433 C1446 0.930 . S
H1434 C1450 0.959 . S
H1435 C1450 0.959 . S
H1436 C1450 0.961 . S
H1437 C1451 0.960 . S
H1438 C1451 0.961 . S
H1439 C1451 0.959 . S
H1440 C1454 0.929 . S
H1441 C1455 0.931 . S
H1442 C1457 0.930 . S
C1443 H1431 0.930 . S
C1443 C1444 1.399 . S
C1443 C1448 1.399 . S
C1444 C1443 1.399 . S
C1444 C1445 1.376 . S
C1445 H1432 0.930 . S
C1445 C1444 1.376 . S
C1445 C1446 1.388 . S
C1446 H1433 0.930 . S
C1446 C1445 1.388 . S
C1446 C1447 1.390 . S
C1447 C1446 1.390 . S
C1447 C1448 1.394 . S
C1447 C1453 1.465 . S
C1448 C1443 1.399 . S
C1448 C1447 1.394 . S
C1448 C1449 1.516 . S
C1449 C1448 1.516 . S
C1449 C1450 1.502 . S
C1449 C1451 1.561 . S
C1449 C1452 1.526 . S
C1450 H1434 0.959 . S
C1450 H1435 0.959 . S
C1450 H1436 0.961 . S
C1450 C1449 1.502 . S
C1451 H1437 0.960 . S
C1451 H1438 0.961 . S
C1451 H1439 0.959 . S
C1451 C1449 1.561 . S
C1452 C1449 1.526 . S
C1452 C1453 1.396 . S
C1452 C1457 1.390 . S
C1453 C1447 1.465 . S
C1453 C1452 1.396 . S
C1453 C1454 1.399 . S
C1454 H1440 0.929 . S
C1454 C1453 1.399 . S
C1454 C1455 1.385 . S
C1455 H1441 0.931 . S
C1455 C1454 1.385 . S
C1455 C1456 1.389 . S
C1456 C1455 1.389 . S
C1456 C1457 1.387 . S
C1457 H1442 0.930 . S
C1457 C1452 1.390 . S
C1457 C1456 1.387 . S
H1458 C1470 0.930 . S
H1459 C1472 0.930 . S
H1460 C1473 0.930 . S
H1461 C1477 0.959 . S
H1462 C1477 0.959 . S
H1463 C1477 0.961 . S
H1464 C1478 0.960 . S
H1465 C1478 0.961 . S
H1466 C1478 0.959 . S
H1467 C1481 0.929 . S
H1468 C1482 0.931 . S
H1469 C1484 0.930 . S
C1470 H1458 0.930 . S
C1470 C1471 1.399 . S
C1470 C1475 1.399 . S
C1471 C1470 1.399 . S
C1471 C1472 1.376 . S
C1472 H1459 0.930 . S
C1472 C1471 1.376 . S
C1472 C1473 1.388 . S
C1473 H1460 0.930 . S
C1473 C1472 1.388 . S
C1473 C1474 1.390 . S
C1474 C1473 1.390 . S
C1474 C1475 1.394 . S
C1474 C1480 1.465 . S
C1475 C1470 1.399 . S
C1475 C1474 1.394 . S
C1475 C1476 1.516 . S
C1476 C1475 1.516 . S
C1476 C1477 1.502 . S
C1476 C1478 1.561 . S
C1476 C1479 1.526 . S
C1477 H1461 0.959 . S
C1477 H1462 0.959 . S
C1477 H1463 0.961 . S
C1477 C1476 1.502 . S
C1478 H1464 0.960 . S
C1478 H1465 0.961 . S
C1478 H1466 0.959 . S
C1478 C1476 1.561 . S
C1479 C1476 1.526 . S
C1479 C1480 1.396 . S
C1479 C1484 1.390 . S
C1480 C1474 1.465 . S
C1480 C1479 1.396 . S
C1480 C1481 1.399 . S
C1481 H1467 0.929 . S
C1481 C1480 1.399 . S
C1481 C1482 1.385 . S
C1482 H1468 0.931 . S
C1482 C1481 1.385 . S
C1482 C1483 1.389 . S
C1483 C1482 1.389 . S
C1483 C1484 1.387 . S
C1484 H1469 0.930 . S
C1484 C1479 1.390 . S
C1484 C1483 1.387 . S
H1485 C1497 0.930 . S
H1486 C1499 0.930 . S
H1487 C1500 0.930 . S
H1488 C1504 0.959 . S
H1489 C1504 0.959 . S
H1490 C1504 0.961 . S
H1491 C1505 0.960 . S
H1492 C1505 0.961 . S
H1493 C1505 0.959 . S
H1494 C1508 0.929 . S
H1495 C1509 0.931 . S
H1496 C1511 0.930 . S
C1497 H1485 0.930 . S
C1497 C1498 1.399 . S
C1497 C1502 1.399 . S
C1498 C1497 1.399 . S
C1498 C1499 1.376 . S
C1499 H1486 0.930 . S
C1499 C1498 1.376 . S
C1499 C1500 1.388 . S
C1500 H1487 0.930 . S
C1500 C1499 1.388 . S
C1500 C1501 1.390 . S
C1501 C1500 1.390 . S
C1501 C1502 1.394 . S
C1501 C1507 1.465 . S
C1502 C1497 1.399 . S
C1502 C1501 1.394 . S
C1502 C1503 1.516 . S
C1503 C1502 1.516 . S
C1503 C1504 1.502 . S
C1503 C1505 1.561 . S
C1503 C1506 1.526 . S
C1504 H1488 0.959 . S
C1504 H1489 0.959 . S
C1504 H1490 0.961 . S
C1504 C1503 1.502 . S
C1505 H1491 0.960 . S
C1505 H1492 0.961 . S
C1505 H1493 0.959 . S
C1505 C1503 1.561 . S
C1506 C1503 1.526 . S
C1506 C1507 1.396 . S
C1506 C1511 1.390 . S
C1507 C1501 1.465 . S
C1507 C1506 1.396 . S
C1507 C1508 1.399 . S
C1508 H1494 0.929 . S
C1508 C1507 1.399 . S
C1508 C1509 1.385 . S
C1509 H1495 0.931 . S
C1509 C1508 1.385 . S
C1509 C1510 1.389 . S
C1510 C1509 1.389 . S
C1510 C1511 1.387 . S
C1511 H1496 0.930 . S
C1511 C1506 1.390 . S
C1511 C1510 1.387 . S
H1512 C1524 0.930 . S
H1513 C1526 0.930 . S
H1514 C1527 0.930 . S
H1515 C1531 0.959 . S
H1516 C1531 0.959 . S
H1517 C1531 0.961 . S
H1518 C1532 0.960 . S
H1519 C1532 0.961 . S
H1520 C1532 0.959 . S
H1521 C1535 0.929 . S
H1522 C1536 0.931 . S
H1523 C1538 0.930 . S
C1524 H1512 0.930 . S
C1524 C1525 1.399 . S
C1524 C1529 1.399 . S
C1525 C1524 1.399 . S
C1525 C1526 1.376 . S
C1526 H1513 0.930 . S
C1526 C1525 1.376 . S
C1526 C1527 1.388 . S
C1527 H1514 0.930 . S
C1527 C1526 1.388 . S
C1527 C1528 1.390 . S
C1528 C1527 1.390 . S
C1528 C1529 1.394 . S
C1528 C1534 1.465 . S
C1529 C1524 1.399 . S
C1529 C1528 1.394 . S
C1529 C1530 1.516 . S
C1530 C1529 1.516 . S
C1530 C1531 1.502 . S
C1530 C1532 1.561 . S
C1530 C1533 1.526 . S
C1531 H1515 0.959 . S
C1531 H1516 0.959 . S
C1531 H1517 0.961 . S
C1531 C1530 1.502 . S
C1532 H1518 0.960 . S
C1532 H1519 0.961 . S
C1532 H1520 0.959 . S
C1532 C1530 1.561 . S
C1533 C1530 1.526 . S
C1533 C1534 1.396 . S
C1533 C1538 1.390 . S
C1534 C1528 1.465 . S
C1534 C1533 1.396 . S
C1534 C1535 1.399 . S
C1535 H1521 0.929 . S
C1535 C1534 1.399 . S
C1535 C1536 1.385 . S
C1536 H1522 0.931 . S
C1536 C1535 1.385 . S
C1536 C1537 1.389 . S
C1537 C1536 1.389 . S
C1537 C1538 1.387 . S
C1538 H1523 0.930 . S
C1538 C1533 1.390 . S
C1538 C1537 1.387 . S
H1539 C1551 0.930 . S
H1540 C1553 0.930 . S
H1541 C1554 0.930 . S
H1542 C1558 0.959 . S
H1543 C1558 0.959 . S
H1544 C1558 0.961 . S
H1545 C1559 0.960 . S
H1546 C1559 0.961 . S
H1547 C1559 0.959 . S
H1548 C1562 0.929 . S
H1549 C1563 0.931 . S
H1550 C1565 0.930 . S
C1551 H1539 0.930 . S
C1551 C1552 1.399 . S
C1551 C1556 1.399 . S
C1552 C1551 1.399 . S
C1552 C1553 1.376 . S
C1553 H1540 0.930 . S
C1553 C1552 1.376 . S
C1553 C1554 1.388 . S
C1554 H1541 0.930 . S
C1554 C1553 1.388 . S
C1554 C1555 1.390 . S
C1555 C1554 1.390 . S
C1555 C1556 1.394 . S
C1555 C1561 1.465 . S
C1556 C1551 1.399 . S
C1556 C1555 1.394 . S
C1556 C1557 1.516 . S
C1557 C1556 1.516 . S
C1557 C1558 1.502 . S
C1557 C1559 1.561 . S
C1557 C1560 1.526 . S
C1558 H1542 0.959 . S
C1558 H1543 0.959 . S
C1558 H1544 0.961 . S
C1558 C1557 1.502 . S
C1559 H1545 0.960 . S
C1559 H1546 0.961 . S
C1559 H1547 0.959 . S
C1559 C1557 1.561 . S
C1560 C1557 1.526 . S
C1560 C1561 1.396 . S
C1560 C1565 1.390 . S
C1561 C1555 1.465 . S
C1561 C1560 1.396 . S
C1561 C1562 1.399 . S
C1562 H1548 0.929 . S
C1562 C1561 1.399 . S
C1562 C1563 1.385 . S
C1563 H1549 0.931 . S
C1563 C1562 1.385 . S
C1563 C1564 1.389 . S
C1564 C1563 1.389 . S
C1564 C1565 1.387 . S
C1565 H1550 0.930 . S
C1565 C1560 1.390 . S
C1565 C1564 1.387 . S
H1566 C1578 0.930 . S
H1567 C1580 0.930 . S
H1568 C1581 0.930 . S
H1569 C1585 0.959 . S
H1570 C1585 0.959 . S
H1571 C1585 0.961 . S
H1572 C1586 0.960 . S
H1573 C1586 0.961 . S
H1574 C1586 0.959 . S
H1575 C1589 0.929 . S
H1576 C1590 0.931 . S
H1577 C1592 0.930 . S
C1578 H1566 0.930 . S
C1578 C1579 1.399 . S
C1578 C1583 1.399 . S
C1579 C1578 1.399 . S
C1579 C1580 1.376 . S
C1580 H1567 0.930 . S
C1580 C1579 1.376 . S
C1580 C1581 1.388 . S
C1581 H1568 0.930 . S
C1581 C1580 1.388 . S
C1581 C1582 1.390 . S
C1582 C1581 1.390 . S
C1582 C1583 1.394 . S
C1582 C1588 1.465 . S
C1583 C1578 1.399 . S
C1583 C1582 1.394 . S
C1583 C1584 1.516 . S
C1584 C1583 1.516 . S
C1584 C1585 1.502 . S
C1584 C1586 1.561 . S
C1584 C1587 1.526 . S
C1585 H1569 0.959 . S
C1585 H1570 0.959 . S
C1585 H1571 0.961 . S
C1585 C1584 1.502 . S
C1586 H1572 0.960 . S
C1586 H1573 0.961 . S
C1586 H1574 0.959 . S
C1586 C1584 1.561 . S
C1587 C1584 1.526 . S
C1587 C1588 1.396 . S
C1587 C1592 1.390 . S
C1588 C1582 1.465 . S
C1588 C1587 1.396 . S
C1588 C1589 1.399 . S
C1589 H1575 0.929 . S
C1589 C1588 1.399 . S
C1589 C1590 1.385 . S
C1590 H1576 0.931 . S
C1590 C1589 1.385 . S
C1590 C1591 1.389 . S
C1591 C1590 1.389 . S
C1591 C1592 1.387 . S
C1592 H1577 0.930 . S
C1592 C1587 1.390 . S
C1592 C1591 1.387 . S
H1593 C1605 0.930 . S
H1594 C1607 0.930 . S
H1595 C1608 0.930 . S
H1596 C1612 0.959 . S
H1597 C1612 0.959 . S
H1598 C1612 0.961 . S
H1599 C1613 0.960 . S
H1600 C1613 0.961 . S
H1601 C1613 0.959 . S
H1602 C1616 0.929 . S
H1603 C1617 0.931 . S
H1604 C1619 0.930 . S
C1605 H1593 0.930 . S
C1605 C1606 1.399 . S
C1605 C1610 1.399 . S
C1606 C1605 1.399 . S
C1606 C1607 1.376 . S
C1607 H1594 0.930 . S
C1607 C1606 1.376 . S
C1607 C1608 1.388 . S
C1608 H1595 0.930 . S
C1608 C1607 1.388 . S
C1608 C1609 1.390 . S
C1609 C1608 1.390 . S
C1609 C1610 1.394 . S
C1609 C1615 1.465 . S
C1610 C1605 1.399 . S
C1610 C1609 1.394 . S
C1610 C1611 1.516 . S
C1611 C1610 1.516 . S
C1611 C1612 1.502 . S
C1611 C1613 1.561 . S
C1611 C1614 1.526 . S
C1612 H1596 0.959 . S
C1612 H1597 0.959 . S
C1612 H1598 0.961 . S
C1612 C1611 1.502 . S
C1613 H1599 0.960 . S
C1613 H1600 0.961 . S
C1613 H1601 0.959 . S
C1613 C1611 1.561 . S
C1614 C1611 1.526 . S
C1614 C1615 1.396 . S
C1614 C1619 1.390 . S
C1615 C1609 1.465 . S
C1615 C1614 1.396 . S
C1615 C1616 1.399 . S
C1616 H1602 0.929 . S
C1616 C1615 1.399 . S
C1616 C1617 1.385 . S
C1617 H1603 0.931 . S
C1617 C1616 1.385 . S
C1617 C1618 1.389 . S
C1618 C1617 1.389 . S
C1618 C1619 1.387 . S
C1619 H1604 0.930 . S
C1619 C1614 1.390 . S
C1619 C1618 1.387 . S
H1620 C1632 0.930 . S
H1621 C1634 0.930 . S
H1622 C1635 0.930 . S
H1623 C1639 0.959 . S
H1624 C1639 0.959 . S
H1625 C1639 0.961 . S
H1626 C1640 0.960 . S
H1627 C1640 0.961 . S
H1628 C1640 0.959 . S
H1629 C1643 0.929 . S
H1630 C1644 0.931 . S
H1631 C1646 0.930 . S
C1632 H1620 0.930 . S
C1632 C1633 1.399 . S
C1632 C1637 1.399 . S
C1633 C1632 1.399 . S
C1633 C1634 1.376 . S
C1634 H1621 0.930 . S
C1634 C1633 1.376 . S
C1634 C1635 1.388 . S
C1635 H1622 0.930 . S
C1635 C1634 1.388 . S
C1635 C1636 1.390 . S
C1636 C1635 1.390 . S
C1636 C1637 1.394 . S
C1636 C1642 1.465 . S
C1637 C1632 1.399 . S
C1637 C1636 1.394 . S
C1637 C1638 1.516 . S
C1638 C1637 1.516 . S
C1638 C1639 1.502 . S
C1638 C1640 1.561 . S
C1638 C1641 1.526 . S
C1639 H1623 0.959 . S
C1639 H1624 0.959 . S
C1639 H1625 0.961 . S
C1639 C1638 1.502 . S
C1640 H1626 0.960 . S
C1640 H1627 0.961 . S
C1640 H1628 0.959 . S
C1640 C1638 1.561 . S
C1641 C1638 1.526 . S
C1641 C1642 1.396 . S
C1641 C1646 1.390 . S
C1642 C1636 1.465 . S
C1642 C1641 1.396 . S
C1642 C1643 1.399 . S
C1643 H1629 0.929 . S
C1643 C1642 1.399 . S
C1643 C1644 1.385 . S
C1644 H1630 0.931 . S
C1644 C1643 1.385 . S
C1644 C1645 1.389 . S
C1645 C1644 1.389 . S
C1645 C1646 1.387 . S
C1646 H1631 0.930 . S
C1646 C1641 1.390 . S
C1646 C1645 1.387 . S
H1647 C1659 0.930 . S
H1648 C1661 0.930 . S
H1649 C1662 0.930 . S
H1650 C1666 0.959 . S
H1651 C1666 0.959 . S
H1652 C1666 0.961 . S
H1653 C1667 0.960 . S
H1654 C1667 0.961 . S
H1655 C1667 0.959 . S
H1656 C1670 0.929 . S
H1657 C1671 0.931 . S
H1658 C1673 0.930 . S
C1659 H1647 0.930 . S
C1659 C1660 1.399 . S
C1659 C1664 1.399 . S
C1660 C1659 1.399 . S
C1660 C1661 1.376 . S
C1661 H1648 0.930 . S
C1661 C1660 1.376 . S
C1661 C1662 1.388 . S
C1662 H1649 0.930 . S
C1662 C1661 1.388 . S
C1662 C1663 1.390 . S
C1663 C1662 1.390 . S
C1663 C1664 1.394 . S
C1663 C1669 1.465 . S
C1664 C1659 1.399 . S
C1664 C1663 1.394 . S
C1664 C1665 1.516 . S
C1665 C1664 1.516 . S
C1665 C1666 1.502 . S
C1665 C1667 1.561 . S
C1665 C1668 1.526 . S
C1666 H1650 0.959 . S
C1666 H1651 0.959 . S
C1666 H1652 0.961 . S
C1666 C1665 1.502 . S
C1667 H1653 0.960 . S
C1667 H1654 0.961 . S
C1667 H1655 0.959 . S
C1667 C1665 1.561 . S
C1668 C1665 1.526 . S
C1668 C1669 1.396 . S
C1668 C1673 1.390 . S
C1669 C1663 1.465 . S
C1669 C1668 1.396 . S
C1669 C1670 1.399 . S
C1670 H1656 0.929 . S
C1670 C1669 1.399 . S
C1670 C1671 1.385 . S
C1671 H1657 0.931 . S
C1671 C1670 1.385 . S
C1671 C1672 1.389 . S
C1672 C1671 1.389 . S
C1672 C1673 1.387 . S
C1673 H1658 0.930 . S
C1673 C1668 1.390 . S
C1673 C1672 1.387 . S
H1674 C1686 0.930 . S
H1675 C1688 0.930 . S
H1676 C1689 0.930 . S
H1677 C1693 0.959 . S
H1678 C1693 0.959 . S
H1679 C1693 0.961 . S
H1680 C1694 0.960 . S
H1681 C1694 0.961 . S
H1682 C1694 0.959 . S
H1683 C1697 0.929 . S
H1684 C1698 0.931 . S
H1685 C1700 0.930 . S
C1686 H1674 0.930 . S
C1686 C1687 1.399 . S
C1686 C1691 1.399 . S
C1687 C1686 1.399 . S
C1687 C1688 1.376 . S
C1688 H1675 0.930 . S
C1688 C1687 1.376 . S
C1688 C1689 1.388 . S
C1689 H1676 0.930 . S
C1689 C1688 1.388 . S
C1689 C1690 1.390 . S
C1690 C1689 1.390 . S
C1690 C1691 1.394 . S
C1690 C1696 1.465 . S
C1691 C1686 1.399 . S
C1691 C1690 1.394 . S
C1691 C1692 1.516 . S
C1692 C1691 1.516 . S
C1692 C1693 1.502 . S
C1692 C1694 1.561 . S
C1692 C1695 1.526 . S
C1693 H1677 0.959 . S
C1693 H1678 0.959 . S
C1693 H1679 0.961 . S
C1693 C1692 1.502 . S
C1694 H1680 0.960 . S
C1694 H1681 0.961 . S
C1694 H1682 0.959 . S
C1694 C1692 1.561 . S
C1695 C1692 1.526 . S
C1695 C1696 1.396 . S
C1695 C1700 1.390 . S
C1696 C1690 1.465 . S
C1696 C1695 1.396 . S
C1696 C1697 1.399 . S
C1697 H1683 0.929 . S
C1697 C1696 1.399 . S
C1697 C1698 1.385 . S
C1698 H1684 0.931 . S
C1698 C1697 1.385 . S
C1698 C1699 1.389 . S
C1699 C1698 1.389 . S
C1699 C1700 1.387 . S
C1700 H1685 0.930 . S
C1700 C1695 1.390 . S
C1700 C1699 1.387 . S
H1701 C1713 0.930 . S
H1702 C1715 0.930 . S
H1703 C1716 0.930 . S
H1704 C1720 0.959 . S
H1705 C1720 0.959 . S
H1706 C1720 0.961 . S
H1707 C1721 0.960 . S
H1708 C1721 0.961 . S
H1709 C1721 0.959 . S
H1710 C1724 0.929 . S
H1711 C1725 0.931 . S
H1712 C1727 0.930 . S
C1713 H1701 0.930 . S
C1713 C1714 1.399 . S
C1713 C1718 1.399 . S
C1714 C1713 1.399 . S
C1714 C1715 1.376 . S
C1715 H1702 0.930 . S
C1715 C1714 1.376 . S
C1715 C1716 1.388 . S
C1716 H1703 0.930 . S
C1716 C1715 1.388 . S
C1716 C1717 1.390 . S
C1717 C1716 1.390 . S
C1717 C1718 1.394 . S
C1717 C1723 1.465 . S
C1718 C1713 1.399 . S
C1718 C1717 1.394 . S
C1718 C1719 1.516 . S
C1719 C1718 1.516 . S
C1719 C1720 1.502 . S
C1719 C1721 1.561 . S
C1719 C1722 1.526 . S
C1720 H1704 0.959 . S
C1720 H1705 0.959 . S
C1720 H1706 0.961 . S
C1720 C1719 1.502 . S
C1721 H1707 0.960 . S
C1721 H1708 0.961 . S
C1721 H1709 0.959 . S
C1721 C1719 1.561 . S
C1722 C1719 1.526 . S
C1722 C1723 1.396 . S
C1722 C1727 1.390 . S
C1723 C1717 1.465 . S
C1723 C1722 1.396 . S
C1723 C1724 1.399 . S
C1724 H1710 0.929 . S
C1724 C1723 1.399 . S
C1724 C1725 1.385 . S
C1725 H1711 0.931 . S
C1725 C1724 1.385 . S
C1725 C1726 1.389 . S
C1726 C1725 1.389 . S
C1726 C1727 1.387 . S
C1727 H1712 0.930 . S
C1727 C1722 1.390 . S
C1727 C1726 1.387 . S
H1728 C1740 0.930 . S
H1729 C1742 0.930 . S
H1730 C1743 0.930 . S
H1731 C1747 0.959 . S
H1732 C1747 0.959 . S
H1733 C1747 0.961 . S
H1734 C1748 0.960 . S
H1735 C1748 0.961 . S
H1736 C1748 0.959 . S
H1737 C1751 0.929 . S
H1738 C1752 0.931 . S
H1739 C1754 0.930 . S
C1740 H1728 0.930 . S
C1740 C1741 1.399 . S
C1740 C1745 1.399 . S
C1741 C1740 1.399 . S
C1741 C1742 1.376 . S
C1742 H1729 0.930 . S
C1742 C1741 1.376 . S
C1742 C1743 1.388 . S
C1743 H1730 0.930 . S
C1743 C1742 1.388 . S
C1743 C1744 1.390 . S
C1744 C1743 1.390 . S
C1744 C1745 1.394 . S
C1744 C1750 1.465 . S
C1745 C1740 1.399 . S
C1745 C1744 1.394 . S
C1745 C1746 1.516 . S
C1746 C1745 1.516 . S
C1746 C1747 1.502 . S
C1746 C1748 1.561 . S
C1746 C1749 1.526 . S
C1747 H1731 0.959 . S
C1747 H1732 0.959 . S
C1747 H1733 0.961 . S
C1747 C1746 1.502 . S
C1748 H1734 0.960 . S
C1748 H1735 0.961 . S
C1748 H1736 0.959 . S
C1748 C1746 1.561 . S
C1749 C1746 1.526 . S
C1749 C1750 1.396 . S
C1749 C1754 1.390 . S
C1750 C1744 1.465 . S
C1750 C1749 1.396 . S
C1750 C1751 1.399 . S
C1751 H1737 0.929 . S
C1751 C1750 1.399 . S
C1751 C1752 1.385 . S
C1752 H1738 0.931 . S
C1752 C1751 1.385 . S
C1752 C1753 1.389 . S
C1753 C1752 1.389 . S
C1753 C1754 1.387 . S
C1754 H1739 0.930 . S
C1754 C1749 1.390 . S
C1754 C1753 1.387 . S
H1755 C1767 0.930 . S
H1756 C1769 0.930 . S
H1757 C1770 0.930 . S
H1758 C1774 0.959 . S
H1759 C1774 0.959 . S
H1760 C1774 0.961 . S
H1761 C1775 0.960 . S
H1762 C1775 0.961 . S
H1763 C1775 0.959 . S
H1764 C1778 0.929 . S
H1765 C1779 0.931 . S
H1766 C1781 0.930 . S
C1767 H1755 0.930 . S
C1767 C1768 1.399 . S
C1767 C1772 1.399 . S
C1768 C1767 1.399 . S
C1768 C1769 1.376 . S
C1769 H1756 0.930 . S
C1769 C1768 1.376 . S
C1769 C1770 1.388 . S
C1770 H1757 0.930 . S
C1770 C1769 1.388 . S
C1770 C1771 1.390 . S
C1771 C1770 1.390 . S
C1771 C1772 1.394 . S
C1771 C1777 1.465 . S
C1772 C1767 1.399 . S
C1772 C1771 1.394 . S
C1772 C1773 1.516 . S
C1773 C1772 1.516 . S
C1773 C1774 1.502 . S
C1773 C1775 1.561 . S
C1773 C1776 1.526 . S
C1774 H1758 0.959 . S
C1774 H1759 0.959 . S
C1774 H1760 0.961 . S
C1774 C1773 1.502 . S
C1775 H1761 0.960 . S
C1775 H1762 0.961 . S
C1775 H1763 0.959 . S
C1775 C1773 1.561 . S
C1776 C1773 1.526 . S
C1776 C1777 1.396 . S
C1776 C1781 1.390 . S
C1777 C1771 1.465 . S
C1777 C1776 1.396 . S
C1777 C1778 1.399 . S
C1778 H1764 0.929 . S
C1778 C1777 1.399 . S
C1778 C1779 1.385 . S
C1779 H1765 0.931 . S
C1779 C1778 1.385 . S
C1779 C1780 1.389 . S
C1780 C1779 1.389 . S
C1780 C1781 1.387 . S
C1781 H1766 0.930 . S
C1781 C1776 1.390 . S
C1781 C1780 1.387 . S
H1782 C1794 0.930 . S
H1783 C1796 0.930 . S
H1784 C1797 0.930 . S
H1785 C1801 0.959 . S
H1786 C1801 0.959 . S
H1787 C1801 0.961 . S
H1788 C1802 0.960 . S
H1789 C1802 0.961 . S
H1790 C1802 0.959 . S
H1791 C1805 0.929 . S
H1792 C1806 0.931 . S
H1793 C1808 0.930 . S
C1794 H1782 0.930 . S
C1794 C1795 1.399 . S
C1794 C1799 1.399 . S
C1795 C1794 1.399 . S
C1795 C1796 1.376 . S
C1796 H1783 0.930 . S
C1796 C1795 1.376 . S
C1796 C1797 1.388 . S
C1797 H1784 0.930 . S
C1797 C1796 1.388 . S
C1797 C1798 1.390 . S
C1798 C1797 1.390 . S
C1798 C1799 1.394 . S
C1798 C1804 1.465 . S
C1799 C1794 1.399 . S
C1799 C1798 1.394 . S
C1799 C1800 1.516 . S
C1800 C1799 1.516 . S
C1800 C1801 1.502 . S
C1800 C1802 1.561 . S
C1800 C1803 1.526 . S
C1801 H1785 0.959 . S
C1801 H1786 0.959 . S
C1801 H1787 0.961 . S
C1801 C1800 1.502 . S
C1802 H1788 0.960 . S
C1802 H1789 0.961 . S
C1802 H1790 0.959 . S
C1802 C1800 1.561 . S
C1803 C1800 1.526 . S
C1803 C1804 1.396 . S
C1803 C1808 1.390 . S
C1804 C1798 1.465 . S
C1804 C1803 1.396 . S
C1804 C1805 1.399 . S
C1805 H1791 0.929 . S
C1805 C1804 1.399 . S
C1805 C1806 1.385 . S
C1806 H1792 0.931 . S
C1806 C1805 1.385 . S
C1806 C1807 1.389 . S
C1807 C1806 1.389 . S
C1807 C1808 1.387 . S
C1808 H1793 0.930 . S
C1808 C1803 1.390 . S
C1808 C1807 1.387 . S
H1809 C1821 0.930 . S
H1810 C1823 0.930 . S
H1811 C1824 0.930 . S
H1812 C1828 0.959 . S
H1813 C1828 0.959 . S
H1814 C1828 0.961 . S
H1815 C1829 0.960 . S
H1816 C1829 0.961 . S
H1817 C1829 0.959 . S
H1818 C1832 0.929 . S
H1819 C1833 0.931 . S
H1820 C1835 0.930 . S
C1821 H1809 0.930 . S
C1821 C1822 1.399 . S
C1821 C1826 1.399 . S
C1822 C1821 1.399 . S
C1822 C1823 1.376 . S
C1823 H1810 0.930 . S
C1823 C1822 1.376 . S
C1823 C1824 1.388 . S
C1824 H1811 0.930 . S
C1824 C1823 1.388 . S
C1824 C1825 1.390 . S
C1825 C1824 1.390 . S
C1825 C1826 1.394 . S
C1825 C1831 1.465 . S
C1826 C1821 1.399 . S
C1826 C1825 1.394 . S
C1826 C1827 1.516 . S
C1827 C1826 1.516 . S
C1827 C1828 1.502 . S
C1827 C1829 1.561 . S
C1827 C1830 1.526 . S
C1828 H1812 0.959 . S
C1828 H1813 0.959 . S
C1828 H1814 0.961 . S
C1828 C1827 1.502 . S
C1829 H1815 0.960 . S
C1829 H1816 0.961 . S
C1829 H1817 0.959 . S
C1829 C1827 1.561 . S
C1830 C1827 1.526 . S
C1830 C1831 1.396 . S
C1830 C1835 1.390 . S
C1831 C1825 1.465 . S
C1831 C1830 1.396 . S
C1831 C1832 1.399 . S
C1832 H1818 0.929 . S
C1832 C1831 1.399 . S
C1832 C1833 1.385 . S
C1833 H1819 0.931 . S
C1833 C1832 1.385 . S
C1833 C1834 1.389 . S
C1834 C1833 1.389 . S
C1834 C1835 1.387 . S
C1835 H1820 0.930 . S
C1835 C1830 1.390 . S
C1835 C1834 1.387 . S
H1836 C1848 0.930 . S
H1837 C1850 0.930 . S
H1838 C1851 0.930 . S
H1839 C1855 0.959 . S
H1840 C1855 0.959 . S
H1841 C1855 0.961 . S
H1842 C1856 0.960 . S
H1843 C1856 0.961 . S
H1844 C1856 0.959 . S
H1845 C1859 0.929 . S
H1846 C1860 0.931 . S
H1847 C1862 0.930 . S
C1848 H1836 0.930 . S
C1848 C1849 1.399 . S
C1848 C1853 1.399 . S
C1849 C1848 1.399 . S
C1849 C1850 1.376 . S
C1850 H1837 0.930 . S
C1850 C1849 1.376 . S
C1850 C1851 1.388 . S
C1851 H1838 0.930 . S
C1851 C1850 1.388 . S
C1851 C1852 1.390 . S
C1852 C1851 1.390 . S
C1852 C1853 1.394 . S
C1852 C1858 1.465 . S
C1853 C1848 1.399 . S
C1853 C1852 1.394 . S
C1853 C1854 1.516 . S
C1854 C1853 1.516 . S
C1854 C1855 1.502 . S
C1854 C1856 1.561 . S
C1854 C1857 1.526 . S
C1855 H1839 0.959 . S
C1855 H1840 0.959 . S
C1855 H1841 0.961 . S
C1855 C1854 1.502 . S
C1856 H1842 0.960 . S
C1856 H1843 0.961 . S
C1856 H1844 0.959 . S
C1856 C1854 1.561 . S
C1857 C1854 1.526 . S
C1857 C1858 1.396 . S
C1857 C1862 1.390 . S
C1858 C1852 1.465 . S
C1858 C1857 1.396 . S
C1858 C1859 1.399 . S
C1859 H1845 0.929 . S
C1859 C1858 1.399 . S
C1859 C1860 1.385 . S
C1860 H1846 0.931 . S
C1860 C1859 1.385 . S
C1860 C1861 1.389 . S
C1861 C1860 1.389 . S
C1861 C1862 1.387 . S
C1862 H1847 0.930 . S
C1862 C1857 1.390 . S
C1862 C1861 1.387 . S
H1863 C1875 0.930 . S
H1864 C1877 0.930 . S
H1865 C1878 0.930 . S
H1866 C1882 0.959 . S
H1867 C1882 0.959 . S
H1868 C1882 0.961 . S
H1869 C1883 0.960 . S
H1870 C1883 0.961 . S
H1871 C1883 0.959 . S
H1872 C1886 0.929 . S
H1873 C1887 0.931 . S
H1874 C1889 0.930 . S
C1875 H1863 0.930 . S
C1875 C1876 1.399 . S
C1875 C1880 1.399 . S
C1876 C1875 1.399 . S
C1876 C1877 1.376 . S
C1877 H1864 0.930 . S
C1877 C1876 1.376 . S
C1877 C1878 1.388 . S
C1878 H1865 0.930 . S
C1878 C1877 1.388 . S
C1878 C1879 1.390 . S
C1879 C1878 1.390 . S
C1879 C1880 1.394 . S
C1879 C1885 1.465 . S
C1880 C1875 1.399 . S
C1880 C1879 1.394 . S
C1880 C1881 1.516 . S
C1881 C1880 1.516 . S
C1881 C1882 1.502 . S
C1881 C1883 1.561 . S
C1881 C1884 1.526 . S
C1882 H1866 0.959 . S
C1882 H1867 0.959 . S
C1882 H1868 0.961 . S
C1882 C1881 1.502 . S
C1883 H1869 0.960 . S
C1883 H1870 0.961 . S
C1883 H1871 0.959 . S
C1883 C1881 1.561 . S
C1884 C1881 1.526 . S
C1884 C1885 1.396 . S
C1884 C1889 1.390 . S
C1885 C1879 1.465 . S
C1885 C1884 1.396 . S
C1885 C1886 1.399 . S
C1886 H1872 0.929 . S
C1886 C1885 1.399 . S
C1886 C1887 1.385 . S
C1887 H1873 0.931 . S
C1887 C1886 1.385 . S
C1887 C1888 1.389 . S
C1888 C1887 1.389 . S
C1888 C1889 1.387 . S
C1889 H1874 0.930 . S
C1889 C1884 1.390 . S
C1889 C1888 1.387 . S
H1890 C1902 0.930 . S
H1891 C1904 0.930 . S
H1892 C1905 0.930 . S
H1893 C1909 0.959 . S
H1894 C1909 0.959 . S
H1895 C1909 0.961 . S
H1896 C1910 0.960 . S
H1897 C1910 0.961 . S
H1898 C1910 0.959 . S
H1899 C1913 0.929 . S
H1900 C1914 0.931 . S
H1901 C1916 0.930 . S
C1902 H1890 0.930 . S
C1902 C1903 1.399 . S
C1902 C1907 1.399 . S
C1903 C1902 1.399 . S
C1903 C1904 1.376 . S
C1904 H1891 0.930 . S
C1904 C1903 1.376 . S
C1904 C1905 1.388 . S
C1905 H1892 0.930 . S
C1905 C1904 1.388 . S
C1905 C1906 1.390 . S
C1906 C1905 1.390 . S
C1906 C1907 1.394 . S
C1906 C1912 1.465 . S
C1907 C1902 1.399 . S
C1907 C1906 1.394 . S
C1907 C1908 1.516 . S
C1908 C1907 1.516 . S
C1908 C1909 1.502 . S
C1908 C1910 1.561 . S
C1908 C1911 1.526 . S
C1909 H1893 0.959 . S
C1909 H1894 0.959 . S
C1909 H1895 0.961 . S
C1909 C1908 1.502 . S
C1910 H1896 0.960 . S
C1910 H1897 0.961 . S
C1910 H1898 0.959 . S
C1910 C1908 1.561 . S
C1911 C1908 1.526 . S
C1911 C1912 1.396 . S
C1911 C1916 1.390 . S
C1912 C1906 1.465 . S
C1912 C1911 1.396 . S
C1912 C1913 1.399 . S
C1913 H1899 0.929 . S
C1913 C1912 1.399 . S
C1913 C1914 1.385 . S
C1914 H1900 0.931 . S
C1914 C1913 1.385 . S
C1914 C1915 1.389 . S
C1915 C1914 1.389 . S
C1915 C1916 1.387 . S
C1916 H1901 0.930 . S
C1916 C1911 1.390 . S
C1916 C1915 1.387 . S
H1917 C1929 0.930 . S
H1918 C1931 0.930 . S
H1919 C1932 0.930 . S
H1920 C1936 0.959 . S
H1921 C1936 0.959 . S
H1922 C1936 0.961 . S
H1923 C1937 0.960 . S
H1924 C1937 0.961 . S
H1925 C1937 0.959 . S
H1926 C1940 0.929 . S
H1927 C1941 0.931 . S
H1928 C1943 0.930 . S
C1929 H1917 0.930 . S
C1929 C1930 1.399 . S
C1929 C1934 1.399 . S
C1930 C1929 1.399 . S
C1930 C1931 1.376 . S
C1931 H1918 0.930 . S
C1931 C1930 1.376 . S
C1931 C1932 1.388 . S
C1932 H1919 0.930 . S
C1932 C1931 1.388 . S
C1932 C1933 1.390 . S
C1933 C1932 1.390 . S
C1933 C1934 1.394 . S
C1933 C1939 1.465 . S
C1934 C1929 1.399 . S
C1934 C1933 1.394 . S
C1934 C1935 1.516 . S
C1935 C1934 1.516 . S
C1935 C1936 1.502 . S
C1935 C1937 1.561 . S
C1935 C1938 1.526 . S
C1936 H1920 0.959 . S
C1936 H1921 0.959 . S
C1936 H1922 0.961 . S
C1936 C1935 1.502 . S
C1937 H1923 0.960 . S
C1937 H1924 0.961 . S
C1937 H1925 0.959 . S
C1937 C1935 1.561 . S
C1938 C1935 1.526 . S
C1938 C1939 1.396 . S
C1938 C1943 1.390 . S
C1939 C1933 1.465 . S
C1939 C1938 1.396 . S
C1939 C1940 1.399 . S
C1940 H1926 0.929 . S
C1940 C1939 1.399 . S
C1940 C1941 1.385 . S
C1941 H1927 0.931 . S
C1941 C1940 1.385 . S
C1941 C1942 1.389 . S
C1942 C1941 1.389 . S
C1942 C1943 1.387 . S
C1943 H1928 0.930 . S
C1943 C1938 1.390 . S
C1943 C1942 1.387 . S
H1944 C1956 0.930 . S
H1945 C1958 0.930 . S
H1946 C1959 0.930 . S
H1947 C1963 0.959 . S
H1948 C1963 0.959 . S
H1949 C1963 0.961 . S
H1950 C1964 0.960 . S
H1951 C1964 0.961 . S
H1952 C1964 0.959 . S
H1953 C1967 0.929 . S
H1954 C1968 0.931 . S
H1955 C1970 0.930 . S
C1956 H1944 0.930 . S
C1956 C1957 1.399 . S
C1956 C1961 1.399 . S
C1957 C1956 1.399 . S
C1957 C1958 1.376 . S
C1958 H1945 0.930 . S
C1958 C1957 1.376 . S
C1958 C1959 1.388 . S
C1959 H1946 0.930 . S
C1959 C1958 1.388 . S
C1959 C1960 1.390 . S
C1960 C1959 1.390 . S
C1960 C1961 1.394 . S
C1960 C1966 1.465 . S
C1961 C1956 1.399 . S
C1961 C1960 1.394 . S
C1961 C1962 1.516 . S
C1962 C1961 1.516 . S
C1962 C1963 1.502 . S
C1962 C1964 1.561 . S
C1962 C1965 1.526 . S
C1963 H1947 0.959 . S
C1963 H1948 0.959 . S
C1963 H1949 0.961 . S
C1963 C1962 1.502 . S
C1964 H1950 0.960 . S
C1964 H1951 0.961 . S
C1964 H1952 0.959 . S
C1964 C1962 1.561 . S
C1965 C1962 1.526 . S
C1965 C1966 1.396 . S
C1965 C1970 1.390 . S
C1966 C1960 1.465 . S
C1966 C1965 1.396 . S
C1966 C1967 1.399 . S
C1967 H1953 0.929 . S
C1967 C1966 1.399 . S
C1967 C1968 1.385 . S
C1968 H1954 0.931 . S
C1968 C1967 1.385 . S
C1968 C1969 1.389 . S
C1969 C1968 1.389 . S
C1969 C1970 1.387 . S
C1970 H1955 0.930 . S
C1970 C1965 1.390 . S
C1970 C1969 1.387 . S
H1971 C1983 0.930 . S
H1972 C1985 0.930 . S
H1973 C1986 0.930 . S
H1974 C1990 0.959 . S
H1975 C1990 0.959 . S
H1976 C1990 0.961 . S
H1977 C1991 0.960 . S
H1978 C1991 0.961 . S
H1979 C1991 0.959 . S
H1980 C1994 0.929 . S
H1981 C1995 0.931 . S
H1982 C1997 0.930 . S
C1983 H1971 0.930 . S
C1983 C1984 1.399 . S
C1983 C1988 1.399 . S
C1984 C1983 1.399 . S
C1984 C1985 1.376 . S
C1985 H1972 0.930 . S
C1985 C1984 1.376 . S
C1985 C1986 1.388 . S
C1986 H1973 0.930 . S
C1986 C1985 1.388 . S
C1986 C1987 1.390 . S
C1987 C1986 1.390 . S
C1987 C1988 1.394 . S
C1987 C1993 1.465 . S
C1988 C1983 1.399 . S
C1988 C1987 1.394 . S
C1988 C1989 1.516 . S
C1989 C1988 1.516 . S
C1989 C1990 1.502 . S
C1989 C1991 1.561 . S
C1989 C1992 1.526 . S
C1990 H1974 0.959 . S
C1990 H1975 0.959 . S
C1990 H1976 0.961 . S
C1990 C1989 1.502 . S
C1991 H1977 0.960 . S
C1991 H1978 0.961 . S
C1991 H1979 0.959 . S
C1991 C1989 1.561 . S
C1992 C1989 1.526 . S
C1992 C1993 1.396 . S
C1992 C1997 1.390 . S
C1993 C1987 1.465 . S
C1993 C1992 1.396 . S
C1993 C1994 1.399 . S
C1994 H1980 0.929 . S
C1994 C1993 1.399 . S
C1994 C1995 1.385 . S
C1995 H1981 0.931 . S
C1995 C1994 1.385 . S
C1995 C1996 1.389 . S
C1996 C1995 1.389 . S
C1996 C1997 1.387 . S
C1997 H1982 0.930 . S
C1997 C1992 1.390 . S
C1997 C1996 1.387 . S
H1998 C2010 0.930 . S
H1999 C2012 0.930 . S
H2000 C2013 0.930 . S
H2001 C2017 0.959 . S
H2002 C2017 0.959 . S
H2003 C2017 0.961 . S
H2004 C2018 0.960 . S
H2005 C2018 0.961 . S
H2006 C2018 0.959 . S
H2007 C2021 0.929 . S
H2008 C2022 0.931 . S
H2009 C2024 0.930 . S
C2010 H1998 0.930 . S
C2010 C2011 1.399 . S
C2010 C2015 1.399 . S
C2011 C2010 1.399 . S
C2011 C2012 1.376 . S
C2012 H1999 0.930 . S
C2012 C2011 1.376 . S
C2012 C2013 1.388 . S
C2013 H2000 0.930 . S
C2013 C2012 1.388 . S
C2013 C2014 1.390 . S
C2014 C2013 1.390 . S
C2014 C2015 1.394 . S
C2014 C2020 1.465 . S
C2015 C2010 1.399 . S
C2015 C2014 1.394 . S
C2015 C2016 1.516 . S
C2016 C2015 1.516 . S
C2016 C2017 1.502 . S
C2016 C2018 1.561 . S
C2016 C2019 1.526 . S
C2017 H2001 0.959 . S
C2017 H2002 0.959 . S
C2017 H2003 0.961 . S
C2017 C2016 1.502 . S
C2018 H2004 0.960 . S
C2018 H2005 0.961 . S
C2018 H2006 0.959 . S
C2018 C2016 1.561 . S
C2019 C2016 1.526 . S
C2019 C2020 1.396 . S
C2019 C2024 1.390 . S
C2020 C2014 1.465 . S
C2020 C2019 1.396 . S
C2020 C2021 1.399 . S
C2021 H2007 0.929 . S
C2021 C2020 1.399 . S
C2021 C2022 1.385 . S
C2022 H2008 0.931 . S
C2022 C2021 1.385 . S
C2022 C2023 1.389 . S
C2023 C2022 1.389 . S
C2023 C2024 1.387 . S
C2024 H2009 0.930 . S
C2024 C2019 1.390 . S
C2024 C2023 1.387 . S
H2025 C2037 0.930 . S
H2026 C2039 0.930 . S
H2027 C2040 0.930 . S
H2028 C2044 0.959 . S
H2029 C2044 0.959 . S
H2030 C2044 0.961 . S
H2031 C2045 0.960 . S
H2032 C2045 0.961 . S
H2033 C2045 0.959 . S
H2034 C2048 0.929 . S
H2035 C2049 0.931 . S
H2036 C2051 0.930 . S
C2037 H2025 0.930 . S
C2037 C2038 1.399 . S
C2037 C2042 1.399 . S
C2038 C2037 1.399 . S
C2038 C2039 1.376 . S
C2039 H2026 0.930 . S
C2039 C2038 1.376 . S
C2039 C2040 1.388 . S
C2040 H2027 0.930 . S
C2040 C2039 1.388 . S
C2040 C2041 1.390 . S
C2041 C2040 1.390 . S
C2041 C2042 1.394 . S
C2041 C2047 1.465 . S
C2042 C2037 1.399 . S
C2042 C2041 1.394 . S
C2042 C2043 1.516 . S
C2043 C2042 1.516 . S
C2043 C2044 1.502 . S
C2043 C2045 1.561 . S
C2043 C2046 1.526 . S
C2044 H2028 0.959 . S
C2044 H2029 0.959 . S
C2044 H2030 0.961 . S
C2044 C2043 1.502 . S
C2045 H2031 0.960 . S
C2045 H2032 0.961 . S
C2045 H2033 0.959 . S
C2045 C2043 1.561 . S
C2046 C2043 1.526 . S
C2046 C2047 1.396 . S
C2046 C2051 1.390 . S
C2047 C2041 1.465 . S
C2047 C2046 1.396 . S
C2047 C2048 1.399 . S
C2048 H2034 0.929 . S
C2048 C2047 1.399 . S
C2048 C2049 1.385 . S
C2049 H2035 0.931 . S
C2049 C2048 1.385 . S
C2049 C2050 1.389 . S
C2050 C2049 1.389 . S
C2050 C2051 1.387 . S
C2051 H2036 0.930 . S
C2051 C2046 1.390 . S
C2051 C2050 1.387 . S
H2052 C2064 0.930 . S
H2053 C2066 0.930 . S
H2054 C2067 0.930 . S
H2055 C2071 0.959 . S
H2056 C2071 0.959 . S
H2057 C2071 0.961 . S
H2058 C2072 0.960 . S
H2059 C2072 0.961 . S
H2060 C2072 0.959 . S
H2061 C2075 0.929 . S
H2062 C2076 0.931 . S
H2063 C2078 0.930 . S
C2064 H2052 0.930 . S
C2064 C2065 1.399 . S
C2064 C2069 1.399 . S
C2065 C2064 1.399 . S
C2065 C2066 1.376 . S
C2066 H2053 0.930 . S
C2066 C2065 1.376 . S
C2066 C2067 1.388 . S
C2067 H2054 0.930 . S
C2067 C2066 1.388 . S
C2067 C2068 1.390 . S
C2068 C2067 1.390 . S
C2068 C2069 1.394 . S
C2068 C2074 1.465 . S
C2069 C2064 1.399 . S
C2069 C2068 1.394 . S
C2069 C2070 1.516 . S
C2070 C2069 1.516 . S
C2070 C2071 1.502 . S
C2070 C2072 1.561 . S
C2070 C2073 1.526 . S
C2071 H2055 0.959 . S
C2071 H2056 0.959 . S
C2071 H2057 0.961 . S
C2071 C2070 1.502 . S
C2072 H2058 0.960 . S
C2072 H2059 0.961 . S
C2072 H2060 0.959 . S
C2072 C2070 1.561 . S
C2073 C2070 1.526 . S
C2073 C2074 1.396 . S
C2073 C2078 1.390 . S
C2074 C2068 1.465 . S
C2074 C2073 1.396 . S
C2074 C2075 1.399 . S
C2075 H2061 0.929 . S
C2075 C2074 1.399 . S
C2075 C2076 1.385 . S
C2076 H2062 0.931 . S
C2076 C2075 1.385 . S
C2076 C2077 1.389 . S
C2077 C2076 1.389 . S
C2077 C2078 1.387 . S
C2078 H2063 0.930 . S
C2078 C2073 1.390 . S
C2078 C2077 1.387 . S
H2079 C2091 0.930 . S
H2080 C2093 0.930 . S
H2081 C2094 0.930 . S
H2082 C2098 0.959 . S
H2083 C2098 0.959 . S
H2084 C2098 0.961 . S
H2085 C2099 0.960 . S
H2086 C2099 0.961 . S
H2087 C2099 0.959 . S
H2088 C2102 0.929 . S
H2089 C2103 0.931 . S
H2090 C2105 0.930 . S
C2091 H2079 0.930 . S
C2091 C2092 1.399 . S
C2091 C2096 1.399 . S
C2092 C2091 1.399 . S
C2092 C2093 1.376 . S
C2093 H2080 0.930 . S
C2093 C2092 1.376 . S
C2093 C2094 1.388 . S
C2094 H2081 0.930 . S
C2094 C2093 1.388 . S
C2094 C2095 1.390 . S
C2095 C2094 1.390 . S
C2095 C2096 1.394 . S
C2095 C2101 1.465 . S
C2096 C2091 1.399 . S
C2096 C2095 1.394 . S
C2096 C2097 1.516 . S
C2097 C2096 1.516 . S
C2097 C2098 1.502 . S
C2097 C2099 1.561 . S
C2097 C2100 1.526 . S
C2098 H2082 0.959 . S
C2098 H2083 0.959 . S
C2098 H2084 0.961 . S
C2098 C2097 1.502 . S
C2099 H2085 0.960 . S
C2099 H2086 0.961 . S
C2099 H2087 0.959 . S
C2099 C2097 1.561 . S
C2100 C2097 1.526 . S
C2100 C2101 1.396 . S
C2100 C2105 1.390 . S
C2101 C2095 1.465 . S
C2101 C2100 1.396 . S
C2101 C2102 1.399 . S
C2102 H2088 0.929 . S
C2102 C2101 1.399 . S
C2102 C2103 1.385 . S
C2103 H2089 0.931 . S
C2103 C2102 1.385 . S
C2103 C2104 1.389 . S
C2104 C2103 1.389 . S
C2104 C2105 1.387 . S
C2105 H2090 0.930 . S
C2105 C2100 1.390 . S
C2105 C2104 1.387 . S
H2106 C2118 0.930 . S
H2107 C2120 0.930 . S
H2108 C2121 0.930 . S
H2109 C2125 0.959 . S
H2110 C2125 0.959 . S
H2111 C2125 0.961 . S
H2112 C2126 0.960 . S
H2113 C2126 0.961 . S
H2114 C2126 0.959 . S
H2115 C2129 0.929 . S
H2116 C2130 0.931 . S
H2117 C2132 0.930 . S
C2118 H2106 0.930 . S
C2118 C2119 1.399 . S
C2118 C2123 1.399 . S
C2119 C2118 1.399 . S
C2119 C2120 1.376 . S
C2120 H2107 0.930 . S
C2120 C2119 1.376 . S
C2120 C2121 1.388 . S
C2121 H2108 0.930 . S
C2121 C2120 1.388 . S
C2121 C2122 1.390 . S
C2122 C2121 1.390 . S
C2122 C2123 1.394 . S
C2122 C2128 1.465 . S
C2123 C2118 1.399 . S
C2123 C2122 1.394 . S
C2123 C2124 1.516 . S
C2124 C2123 1.516 . S
C2124 C2125 1.502 . S
C2124 C2126 1.561 . S
C2124 C2127 1.526 . S
C2125 H2109 0.959 . S
C2125 H2110 0.959 . S
C2125 H2111 0.961 . S
C2125 C2124 1.502 . S
C2126 H2112 0.960 . S
C2126 H2113 0.961 . S
C2126 H2114 0.959 . S
C2126 C2124 1.561 . S
C2127 C2124 1.526 . S
C2127 C2128 1.396 . S
C2127 C2132 1.390 . S
C2128 C2122 1.465 . S
C2128 C2127 1.396 . S
C2128 C2129 1.399 . S
C2129 H2115 0.929 . S
C2129 C2128 1.399 . S
C2129 C2130 1.385 . S
C2130 H2116 0.931 . S
C2130 C2129 1.385 . S
C2130 C2131 1.389 . S
C2131 C2130 1.389 . S
C2131 C2132 1.387 . S
C2132 H2117 0.930 . S
C2132 C2127 1.390 . S
C2132 C2131 1.387 . S
H2133 C2145 0.930 . S
H2134 C2147 0.930 . S
H2135 C2148 0.930 . S
H2136 C2152 0.959 . S
H2137 C2152 0.959 . S
H2138 C2152 0.961 . S
H2139 C2153 0.960 . S
H2140 C2153 0.961 . S
H2141 C2153 0.959 . S
H2142 C2156 0.929 . S
H2143 C2157 0.931 . S
H2144 C2159 0.930 . S
C2145 H2133 0.930 . S
C2145 C2146 1.399 . S
C2145 C2150 1.399 . S
C2146 C2145 1.399 . S
C2146 C2147 1.376 . S
C2147 H2134 0.930 . S
C2147 C2146 1.376 . S
C2147 C2148 1.388 . S
C2148 H2135 0.930 . S
C2148 C2147 1.388 . S
C2148 C2149 1.390 . S
C2149 C2148 1.390 . S
C2149 C2150 1.394 . S
C2149 C2155 1.465 . S
C2150 C2145 1.399 . S
C2150 C2149 1.394 . S
C2150 C2151 1.516 . S
C2151 C2150 1.516 . S
C2151 C2152 1.502 . S
C2151 C2153 1.561 . S
C2151 C2154 1.526 . S
C2152 H2136 0.959 . S
C2152 H2137 0.959 . S
C2152 H2138 0.961 . S
C2152 C2151 1.502 . S
C2153 H2139 0.960 . S
C2153 H2140 0.961 . S
C2153 H2141 0.959 . S
C2153 C2151 1.561 . S
C2154 C2151 1.526 . S
C2154 C2155 1.396 . S
C2154 C2159 1.390 . S
C2155 C2149 1.465 . S
C2155 C2154 1.396 . S
C2155 C2156 1.399 . S
C2156 H2142 0.929 . S
C2156 C2155 1.399 . S
C2156 C2157 1.385 . S
C2157 H2143 0.931 . S
C2157 C2156 1.385 . S
C2157 C2158 1.389 . S
C2158 C2157 1.389 . S
C2158 C2159 1.387 . S
C2159 H2144 0.930 . S
C2159 C2154 1.390 . S
C2159 C2158 1.387 . S
C889 C689 1.628 . S
C877 C56 1.626 . S
C916 C694 1.266 . S
C904 C154 1.119 . S
C943 C695 1.577 . S
C931 C236 1.555 . S
C958 C310 0.875 . S
C970 C699 0.526 . S
C985 C394 1.185 . S
C997 C702 1.207 . S
C1024 C703 1.595 . S
C1012 C476 1.543 . S
C1039 C574 0.861 . S
C1051 C680 0.604 . S
C1066 C656 1.609 . S
C1078 C696 1.648 . S
C1105 C734 2.328 . S
C1093 C67 2.441 . S
C1120 C139 1.575 . S
C1132 C760 1.512 . S
C1159 C712 1.274 . S
C1147 C238 1.236 . S
C1186 C767 1.520 . S
C1174 C308 1.549 . S
C1201 C392 1.537 . S
C1213 C721 1.573 . S
C1240 C763 2.328 . S
C1228 C487 2.425 . S
C1255 C559 1.584 . S
C1267 C727 1.548 . S
C1282 C658 1.221 . S
C1294 C758 1.271 . S
C1309 C58 1.228 . S
C1321 C766 1.182 . S
C1336 C403 1.568 . S
C1348 C753 1.512 . S
C1375 C731 1.226 . S
C1363 C478 1.133 . S
C1402 C759 1.543 . S
C1390 C572 1.557 . S
C1417 C643 2.436 . S
C1429 C726 2.364 . S
C1444 C223 2.427 . S
C1456 C744 2.316 . S
C1483 C735 1.579 . S
C1471 C319 1.584 . S
C1498 C152 1.584 . S
C1510 C728 1.530 . S
C1525 C644 1.584 . S
C1537 C790 1.581 . S
C1552 C406 1.208 . S
C1564 C785 1.241 . S
C1591 C799 1.547 . S
C1579 C488 1.543 . S
C1618 C776 0.446 . S
C1606 C562 0.889 . S
C1633 C142 1.088 . S
C1645 C792 1.178 . S
C1672 C791 1.525 . S
C1660 C224 1.577 . S
C1687 C322 0.748 . S
C1699 C795 0.482 . S
C1714 C68 1.631 . S
C1726 C798 1.546 . S
C1741 C655 2.445 . S
C1753 C824 2.402 . S
C1780 C840 1.519 . S
C1768 C391 1.580 . S
C1795 C490 1.196 . S
C1807 C822 1.232 . S
C1822 C560 1.573 . S
C1834 C855 1.571 . S
C1861 C831 1.559 . S
C1849 C140 1.536 . S
C1876 C235 2.459 . S
C1888 C849 2.408 . S
C1915 C827 1.516 . S
C1903 C307 1.571 . S
C1942 C862 1.253 . S
C1930 C70 1.160 . S
C1969 C854 1.231 . S
C1957 C646 1.168 . S
C1984 C151 1.575 . S
C1996 C859 1.536 . S
C2011 C226 1.215 . S
C2023 C830 1.227 . S
C2050 C863 1.546 . S
C2038 C320 1.530 . S
C2065 C55 2.444 . S
C2077 C817 2.384 . S
C2092 C475 2.458 . S
C2104 C856 2.379 . S
C2131 C808 1.526 . S
C2119 C571 1.575 . S
C2158 C823 1.551 . S
C2146 C404 1.533 . S
