# Generated by pormake.
# Topology nia, (6,6)-cn, num edge types: 1
# Building blocks:
#     Node 0, Type 0, BuildingBlock: NUHQIS_clean_sbu_0, # of connection points: 6
#     Node 1, Type 0, BuildingBlock: NUHQIS_clean_sbu_0, # of connection points: 6
#     Node 2, Type 1, BuildingBlock: MIDCAF_clean_sbu_0, # of connection points: 6
#     Node 3, Type 1, BuildingBlock: MIDCAF_clean_sbu_0, # of connection points: 6
#     Edge 4, Type (0, 1), BuildingBlock: MIFKUJ_clean_linker_0, # of connection points: 2
#     Edge 5, Type (0, 1), BuildingBlock: MIFKUJ_clean_linker_0, # of connection points: 2
#     Edge 6, Type (0, 1), BuildingBlock: MIFKUJ_clean_linker_0, # of connection points: 2
#     Edge 7, Type (0, 1), BuildingBlock: MIFKUJ_clean_linker_0, # of connection points: 2
#     Edge 8, Type (0, 1), BuildingBlock: MIFKUJ_clean_linker_0, # of connection points: 2
#     Edge 9, Type (0, 1), BuildingBlock: MIFKUJ_clean_linker_0, # of connection points: 2
#     Edge 10, Type (0, 1), BuildingBlock: MIFKUJ_clean_linker_0, # of connection points: 2
#     Edge 11, Type (0, 1), BuildingBlock: MIFKUJ_clean_linker_0, # of connection points: 2
#     Edge 12, Type (0, 1), BuildingBlock: MIFKUJ_clean_linker_0, # of connection points: 2
#     Edge 13, Type (0, 1), BuildingBlock: MIFKUJ_clean_linker_0, # of connection points: 2
#     Edge 14, Type (0, 1), BuildingBlock: MIFKUJ_clean_linker_0, # of connection points: 2
#     Edge 15, Type (0, 1), BuildingBlock: MIFKUJ_clean_linker_0, # of connection points: 2
# Relax obj value: 0.204
# Max RMSD: 0.271
# Mean RMSD: 0.211
data_MOF--net-nia--node1-NUHQIS_clean_sbu_0--node2-MIDCAF_clean_sbu_0--edge1-MIFKUJ_clean_linker_0
_symmetry_space_group_name_H-M    P1
_symmetry_Int_Tables_number       1
_symmetry_cell_setting            triclinic
loop_
_symmetry_equiv_pos_as_xyz
'x, y, z'
_cell_length_a     35.714045
_cell_length_b     35.689686
_cell_length_c     41.27176
_cell_angle_alpha  90.498001
_cell_angle_beta   91.137535
_cell_angle_gamma 133.54658
loop_
_atom_site_label
_atom_site_type_symbol
_atom_site_fract_x
_atom_site_fract_y
_atom_site_fract_z
_atom_type_partial_charge
Tb0 Tb -0.00818 0.03138 0.98545 0.0
Eu1 Eu 0.01813 0.97954 0.03573 0.0
C2 C 0.0898 0.04787 0.97798 0.0
C3 C 0.95984 0.92609 0.96699 0.0
C4 C 0.95259 0.09199 0.93813 0.0
C5 C 0.94906 0.1455 0.90524 0.0
C6 C 0.97367 0.12935 0.91456 0.0
C7 C 0.90728 0.072 0.95318 0.0
C8 C 0.88257 0.08831 0.94389 0.0
C9 C 0.90275 0.12451 0.91934 0.0
C10 C 0.97672 0.07204 0.94421 0.0
O11 O 0.92142 0.97719 0.01277 0.0
O12 O 0.95407 0.96821 0.05746 0.0
O13 O 0.0626 0.0613 0.05271 0.0
O14 O 0.01022 0.07131 0.03158 0.0
C15 C 0.91744 0.96247 0.04271 0.0
O16 O -0.0051 0.91653 0.06575 0.0
O17 O 0.07468 0.99093 0.06743 0.0
O18 O 0.06819 0.00524 0.99305 0.0
O19 O 0.0724 0.07032 0.98057 0.0
O20 O 0.97816 0.97094 0.9575 0.0
O21 O 0.96368 0.91793 0.99732 0.0
C22 C 0.04581 0.0844 0.05267 0.0
O23 O 0.0167 0.09856 0.96428 0.0
O24 O 0.94598 0.02233 0.94761 0.0
C25 C 0.05988 0.91788 0.08389 0.0
C26 C 0.1006 0.87771 0.10731 0.0
C27 C 0.04969 0.85318 0.11383 0.0
C28 C 0.02963 0.87321 0.10231 0.0
C29 C 0.10976 0.94079 0.07576 0.0
C30 C 0.12994 0.92086 0.08741 0.0
C31 C 0.04165 0.94385 0.07791 0.0
H32 H 0.96607 0.17414 0.88674 0.0
H33 H 0.00865 0.14517 0.90273 0.0
H34 H 0.8904 0.04298 0.97141 0.0
H35 H 0.84686 0.0714 0.95511 0.0
H36 H 0.02629 0.82017 0.12933 0.0
H37 H -0.00869 0.85525 0.10919 0.0
H38 H 0.13403 0.97534 0.0616 0.0
H39 H 0.16903 0.94009 0.08161 0.0
Tb40 Tb 0.98369 0.02367 0.53659 0.0
Eu41 Eu 0.0277 0.98856 0.48669 0.0
C42 C 0.95289 0.91676 0.54361 0.0
C43 C 0.08038 0.0415 0.55545 0.0
C44 C 0.93215 0.07284 0.58333 0.0
C45 C 0.86225 0.06235 0.60424 0.0
C46 C 0.88102 0.04089 0.59331 0.0
C47 C 0.96359 0.12666 0.58342 0.0
C48 C 0.94488 0.14811 0.59447 0.0
C49 C 0.89442 0.11627 0.60572 0.0
C50 C 0.95445 0.0506 0.57814 0.0
O51 O 0.01379 0.07632 0.49685 0.0
O52 O 0.072 0.07263 0.47992 0.0
O53 O 0.96861 0.97978 0.45734 0.0
O54 O 0.92503 0.98121 0.49731 0.0
C55 C 0.05411 0.09472 0.48014 0.0
O56 O 0.09447 0.01062 0.46326 0.0
O57 O 0.01733 0.9364 0.45097 0.0
O58 O 0.96402 0.91698 0.51345 0.0
O59 O 0.96648 0.9578 0.55796 0.0
O60 O 0.06222 0.06308 0.55197 0.0
O61 O 0.06576 0.00436 0.53551 0.0
C62 C 0.92961 0.97299 0.46708 0.0
O63 O 0.92463 0.00386 0.56549 0.0
O64 O 0.00136 0.08096 0.56774 0.0
C65 C 0.0887 0.94491 0.44172 0.0
C66 C 0.12912 0.90168 0.42642 0.0
C67 C 0.15479 0.95222 0.41752 0.0
C68 C 0.13476 0.97352 0.42509 0.0
C69 C 0.06328 0.89476 0.45134 0.0
C70 C 0.08337 0.87329 0.44371 0.0
C71 C 0.06677 0.96741 0.44625 0.0
H72 H 0.82334 0.03682 0.613 0.0
H73 H 0.8562 -0.00062 0.59407 0.0
H74 H 0.00335 0.15248 0.57619 0.0
H75 H 0.97031 0.18976 0.59489 0.0
H76 H 0.18957 0.97484 0.40372 0.0
H77 H 0.15466 0.01207 0.41717 0.0
H78 H 0.02761 0.87191 0.46421 0.0
H79 H 0.06299 0.83444 0.45117 0.0
Zn80 Zn 0.33712 0.64121 0.20038 0.0
Zn81 Zn 0.3922 0.66874 0.32712 0.0
Zn82 Zn 0.36608 0.65419 0.26318 0.0
C83 C 0.48217 0.7216 0.29213 0.0
C84 C 0.31951 0.56218 0.31303 0.0
O85 O 0.327 0.68219 0.25488 0.0
O86 O 0.30146 0.66521 0.20309 0.0
C87 C 0.44536 0.70734 0.20422 0.0
O88 O 0.45097 0.70697 0.26791 0.0
O89 O 0.46577 0.70743 0.32044 0.0
O90 O 0.34267 0.59398 0.33684 0.0
O91 O 0.32538 0.57781 0.28391 0.0
O92 O 0.40865 0.68831 0.18398 0.0
O93 O 0.43654 0.69824 0.23464 0.0
O94 O 0.31478 0.57114 0.25044 0.0
O95 O 0.29297 0.56557 0.19874 0.0
C96 C 0.28984 0.54423 0.22415 0.0
O97 O 0.34098 0.68837 0.28783 0.0
O98 O 0.37346 0.7083 0.33822 0.0
C99 C 0.30391 0.68251 0.23062 0.0
C100 C 0.34825 0.70812 0.31624 0.0
Zn101 Zn 0.65338 0.37597 0.82451 0.0
Zn102 Zn 0.62962 0.33702 0.70074 0.0
Zn103 Zn 0.64521 0.35895 0.76261 0.0
C104 C 0.68932 0.44321 0.70734 0.0
C105 C 0.5334 0.27838 0.72354 0.0
O106 O 0.67746 0.32895 0.78464 0.0
O107 O 0.67301 0.33822 0.83708 0.0
C108 C 0.71861 0.47202 0.79741 0.0
O109 O 0.68899 0.4336 0.73747 0.0
O110 O 0.66386 0.40677 0.68627 0.0
O111 O 0.55389 0.2823 0.69768 0.0
O112 O 0.56161 0.30529 0.74917 0.0
O113 O 0.70886 0.45157 0.82455 0.0
O114 O 0.69666 0.44369 0.7712 0.0
O115 O 0.56718 0.31569 0.78253 0.0
O116 O 0.58265 0.34473 0.83327 0.0
C117 C 0.55101 0.31677 0.8099 0.0
O118 O 0.67857 0.32614 0.75045 0.0
O119 O 0.66641 0.31479 0.69707 0.0
C120 C 0.68333 0.32278 0.81451 0.0
C121 C 0.68378 0.31256 0.7231 0.0
H122 H 0.19627 0.93851 0.1369 0.0
H123 H 0.23279 0.9108 0.16712 0.0
H124 H 0.09448 0.75125 0.14519 0.0
H125 H 0.0576 0.77877 0.11503 0.0
H126 H 0.12237 0.76418 0.20743 0.0
H127 H 0.20659 0.81155 0.10631 0.0
H128 H 0.25808 0.8682 0.06079 0.0
H129 H 0.38759 0.97874 0.12628 0.0
H130 H 0.33656 0.92301 0.1723 0.0
H131 H 0.20636 0.63431 0.21312 0.0
H132 H 0.17232 0.67411 0.20582 0.0
H133 H 0.31508 0.8185 0.24607 0.0
H134 H 0.34911 0.77812 0.25374 0.0
H135 H 0.29143 0.82387 0.18274 0.0
H136 H 0.20367 0.76775 0.2838 0.0
H137 H 0.1476 0.707 0.32686 0.0
H138 H 0.02212 0.60551 0.25736 0.0
H139 H 0.07694 0.66599 0.21392 0.0
C140 C 0.17398 0.89754 0.13805 0.0
C141 C 0.12416 0.86079 0.12343 0.0
C142 C 0.19482 0.88177 0.15546 0.0
C143 C 0.16647 0.82897 0.15829 0.0
C144 C 0.11692 0.7922 0.14346 0.0
C145 C 0.09594 0.80795 0.12619 0.0
C146 C 0.18814 0.8119 0.17697 0.0
C147 C 0.15922 0.77702 0.20191 0.0
C148 C 0.23685 0.82972 0.17037 0.0
C149 C 0.26754 0.86345 0.1428 0.0
C150 C 0.24588 0.84818 0.11105 0.0
C151 C 0.27501 0.88006 0.08515 0.0
C152 C 0.32602 0.92713 0.09065 0.0
C153 C 0.34803 0.94233 0.12207 0.0
C154 C 0.31904 0.91061 0.14807 0.0
C155 C 0.2297 0.67403 0.22145 0.0
C156 C 0.2802 0.70333 0.23391 0.0
C157 C 0.21015 0.69667 0.21749 0.0
C158 C 0.24111 0.74924 0.22547 0.0
C159 C 0.2905 0.77779 0.23993 0.0
C160 C 0.30986 0.7548 0.24433 0.0
C161 C 0.2253 0.77551 0.2129 0.0
C162 C 0.25519 0.81202 0.18883 0.0
C163 C 0.17706 0.7584 0.21985 0.0
C164 C 0.14452 0.72121 0.24564 0.0
C165 C 0.16424 0.73231 0.2777 0.0
C166 C 0.13264 0.69807 0.30218 0.0
C167 C 0.08157 0.65234 0.29486 0.0
C168 C 0.06174 0.6409 0.26301 0.0
C169 C 0.09293 0.67528 0.23848 0.0
H170 H 0.05733 0.62588 0.31389 0.0
H171 H 0.34853 0.95175 0.07057 0.0
H172 H 0.10587 0.10482 0.60683 0.0
H173 H 0.1691 0.13683 0.65087 0.0
H174 H 0.20294 0.05192 0.60937 0.0
H175 H 0.13874 0.01864 0.56555 0.0
H176 H 0.20158 0.04838 0.67558 0.0
H177 H 0.27614 0.18022 0.59388 0.0
H178 H 0.27949 0.23972 0.56086 0.0
H179 H 0.28665 0.31245 0.64739 0.0
H180 H 0.2827 0.2529 0.6809 0.0
H181 H 0.46129 0.18269 0.69602 0.0
H182 H 0.37031 0.13418 0.68513 0.0
H183 H 0.38858 0.25112 0.73801 0.0
H184 H 0.48013 0.30035 0.74813 0.0
H185 H 0.35174 0.23831 0.68077 0.0
H186 H 0.30276 0.12195 0.7621 0.0
H187 H 0.30075 0.06367 0.79528 0.0
H188 H 0.24716 0.96261 0.71225 0.0
H189 H 0.24924 0.02052 0.67842 0.0
C190 C 0.12665 0.0928 0.60707 0.0
C191 C 0.11794 0.05985 0.58239 0.0
C192 C 0.1626 0.11098 0.63237 0.0
C193 C 0.1911 0.09722 0.63319 0.0
C194 C 0.18124 0.06293 0.60921 0.0
C195 C 0.14488 0.04429 0.58404 0.0
C196 C 0.23408 0.12159 0.65736 0.0
C197 C 0.23459 0.08988 0.67683 0.0
C198 C 0.2759 0.17591 0.66 0.0
C199 C 0.27841 0.21171 0.63984 0.0
C200 C 0.27803 0.20865 0.60583 0.0
C201 C 0.2801 0.24241 0.58704 0.0
C202 C 0.28308 0.27971 0.60201 0.0
C203 C 0.28418 0.28344 0.63582 0.0
C204 C 0.28203 0.24971 0.65472 0.0
C205 C 0.44532 0.19711 0.70612 0.0
C206 C 0.47722 0.24481 0.72313 0.0
C207 C 0.39318 0.16912 0.70023 0.0
C208 C 0.37209 0.18844 0.71122 0.0
C209 C 0.40357 0.23494 0.72974 0.0
C210 C 0.45585 0.26302 0.7356 0.0
C211 C 0.32073 0.16502 0.69811 0.0
C212 C 0.31837 0.19689 0.68057 0.0
C213 C 0.27733 0.11091 0.69744 0.0
C214 C 0.27614 0.0758 0.71766 0.0
C215 C 0.29074 0.08749 0.75082 0.0
C216 C 0.28958 0.05445 0.76977 0.0
C217 C 0.27388 0.00948 0.75587 0.0
C218 C 0.25923 -0.00257 0.723 0.0
C219 C 0.26025 0.0303 0.70394 0.0
H220 H 0.27303 0.98396 0.77058 0.0
H221 H 0.2847 0.30582 0.58742 0.0
H222 H 0.10235 0.10732 0.10802 0.0
H223 H 0.14027 0.1779 0.14767 0.0
H224 H 0.07667 0.22608 0.09221 0.0
H225 H 0.03827 0.15551 0.05261 0.0
H226 H 0.18262 0.3052 0.10705 0.0
H227 H 0.02427 0.16849 0.15962 0.0
H228 H 0.95925 0.08352 0.18435 0.0
H229 H 0.07242 0.1253 0.25594 0.0
H230 H 0.13846 0.21023 0.23124 0.0
H231 H 0.19347 0.47235 0.19801 0.0
H232 H 0.14848 0.38373 0.18165 0.0
H233 H 0.26922 0.40157 0.22842 0.0
H234 H 0.31508 0.49122 0.24441 0.0
H235 H 0.14173 0.28807 0.22343 0.0
H236 H 0.30234 0.42294 0.16638 0.0
H237 H 0.36391 0.50941 0.14285 0.0
H238 H 0.2426 0.46969 0.08045 0.0
H239 H 0.18018 0.38323 0.10404 0.0
C240 C 0.09628 0.13285 0.10432 0.0
C241 C 0.06761 0.1261 0.07706 0.0
C242 C 0.11767 0.17285 0.12711 0.0
C243 C 0.11105 0.20692 0.12286 0.0
C244 C 0.08206 0.2 0.09588 0.0
C245 C 0.06017 0.1597 0.0733 0.0
C246 C 0.13697 0.2519 0.14528 0.0
C247 C 0.1737 0.30126 0.13249 0.0
C248 C 0.12608 0.24676 0.17864 0.0
C249 C 0.08654 0.19546 0.19326 0.0
C250 C 0.03552 0.15933 0.18036 0.0
C251 C -0.00158 0.11121 0.19443 0.0
C252 C 0.01175 0.09893 0.22162 0.0
C253 C 0.06219 0.13479 0.23482 0.0
C254 C 0.09948 0.18292 0.22078 0.0
C255 C 0.2094 0.45669 0.20585 0.0
C256 C 0.25747 0.48817 0.22253 0.0
C257 C 0.18355 0.40606 0.19671 0.0
C258 C 0.20563 0.38638 0.20388 0.0
C259 C 0.25136 0.41607 0.22312 0.0
C260 C 0.27738 0.46705 0.23232 0.0
C261 C 0.18699 0.3407 0.18499 0.0
C262 C 0.1515 0.29155 0.19821 0.0
C263 C 0.19903 0.34564 0.15199 0.0
C264 C 0.23664 0.39693 0.13713 0.0
C265 C 0.2888 0.43283 0.14778 0.0
C266 C 0.32383 0.48179 0.13443 0.0
C267 C 0.30715 0.49508 0.11021 0.0
C268 C 0.25545 0.45936 0.09922 0.0
C269 C 0.22025 0.41037 0.11255 0.0
H270 H 0.33431 0.53303 0.09992 0.0
H271 H 0.98294 0.0617 0.23252 0.0
H272 H 0.94743 0.19855 0.64872 0.0
H273 H 0.91719 0.23558 0.67395 0.0
H274 H 0.77004 0.12209 0.62252 0.0
H275 H 0.8004 0.08552 0.59666 0.0
H276 H 0.80889 0.21968 0.61864 0.0
H277 H 0.77497 0.1079 0.70584 0.0
H278 H 0.7997 0.07537 0.74479 0.0
H279 H 0.92474 0.22986 0.78275 0.0
H280 H 0.90132 0.26326 0.74349 0.0
H281 H 0.64122 0.22303 0.69358 0.0
H282 H 0.68356 0.1933 0.68015 0.0
H283 H 0.82221 0.32565 0.73201 0.0
H284 H 0.779 0.35496 0.74649 0.0
H285 H 0.79763 0.22839 0.73769 0.0
H286 H 0.82068 0.33768 0.65654 0.0
H287 H 0.7917 0.36761 0.61916 0.0
H288 H 0.69014 0.22001 0.56861 0.0
H289 H 0.71789 0.18891 0.60604 0.0
C290 C 0.90879 0.18178 0.64256 0.0
C291 C 0.87633 0.13924 0.62058 0.0
C292 C 0.89138 0.2026 0.65731 0.0
C293 C 0.84122 0.18124 0.65036 0.0
C294 C 0.80885 0.13901 0.62829 0.0
C295 C 0.82614 0.11804 0.61364 0.0
C296 C 0.82277 0.20376 0.66523 0.0
C297 C 0.80638 0.2215 0.64466 0.0
C298 C 0.82107 0.20768 0.69921 0.0
C299 C 0.83621 0.18796 0.722 0.0
C300 C 0.80788 0.13487 0.7224 0.0
C301 C 0.8217 0.11631 0.74448 0.0
C302 C 0.86371 0.15052 0.76628 0.0
C303 C 0.89217 0.2034 0.7659 0.0
C304 C 0.87863 0.22214 0.74377 0.0
C305 C 0.68034 0.24508 0.70281 0.0
C306 C 0.70711 0.29126 0.72089 0.0
C307 C 0.70445 0.22813 0.69512 0.0
C308 C 0.75618 0.25765 0.70476 0.0
C309 C 0.78218 0.30226 0.72457 0.0
C310 C 0.75768 0.31905 0.73268 0.0
C311 C 0.78367 0.24405 0.69111 0.0
C312 C 0.80156 0.22789 0.71178 0.0
C313 C 0.78732 0.24203 0.65715 0.0
C314 C 0.77115 0.26087 0.63423 0.0
C315 C 0.79193 0.3115 0.63758 0.0
C316 C 0.77574 0.32868 0.61637 0.0
C317 C 0.73904 0.29571 0.59156 0.0
C318 C 0.71855 0.24551 0.58785 0.0
C319 C 0.73455 0.22811 0.60903 0.0
H320 H 0.72654 0.30907 0.57517 0.0
H321 H 0.87421 0.13606 0.78345 0.0
H322 H 0.89355 0.9212 0.10275 0.0
H323 H 0.81753 0.88343 0.13355 0.0
H324 H 0.75962 0.91412 0.0562 0.0
H325 H 0.83618 0.95257 0.02497 0.0
H326 H 0.74992 0.93942 0.11843 0.0
H327 H 0.71193 0.7963 0.06312 0.0
H328 H 0.72873 0.74235 0.04732 0.0
H329 H 0.7291 0.70993 0.14722 0.0
H330 H 0.71294 0.76422 0.16367 0.0
H331 H 0.48527 0.76927 0.15236 0.0
H332 H 0.57007 0.81812 0.12963 0.0
H333 H 0.60952 0.76724 0.20586 0.0
H334 H 0.5232 0.71582 0.22759 0.0
H335 H 0.6331 0.75562 0.14857 0.0
H336 H 0.66218 0.89051 0.2042 0.0
H337 H 0.64713 0.94529 0.22129 0.0
H338 H 0.66434 0.99424 0.12358 0.0
H339 H 0.67891 0.93918 0.10569 0.0
C340 C 0.86482 0.92012 0.09215 0.0
C341 C 0.87092 0.93969 0.06119 0.0
C342 C 0.8213 0.8984 0.10987 0.0
C343 C 0.78276 0.89559 0.09707 0.0
C344 C 0.78899 0.91593 0.06649 0.0
C345 C 0.83258 0.93758 0.0486 0.0
C346 C 0.73538 0.8701 0.11533 0.0
C347 C 0.72389 0.89905 0.12468 0.0
C348 C 0.70267 0.818 0.12453 0.0
C349 C 0.71195 0.78494 0.11466 0.0
C350 C 0.71607 0.77806 0.08175 0.0
C351 C 0.72537 0.74732 0.07267 0.0
C352 C 0.73018 0.72289 0.09626 0.0
C353 C 0.7255 0.72899 0.12898 0.0
C354 C 0.71625 0.75973 0.13819 0.0
C355 C 0.51219 0.76884 0.16443 0.0
C356 C 0.49819 0.73978 0.19225 0.0
C357 C 0.56079 0.79709 0.15156 0.0
C358 C 0.59653 0.79707 0.16632 0.0
C359 C 0.58275 0.76824 0.19425 0.0
C360 C 0.53385 0.73965 0.20702 0.0
C361 C 0.64683 0.82459 0.15123 0.0
C362 C 0.65906 0.79607 0.14253 0.0
C363 C 0.68028 0.87717 0.14282 0.0
C364 C 0.67149 0.91041 0.15352 0.0
C365 C 0.66256 0.9127 0.18625 0.0
C366 C 0.65411 0.94386 0.19611 0.0
C367 C 0.65474 0.9732 0.17353 0.0
C368 C 0.66388 0.97149 0.14104 0.0
C369 C 0.67232 0.94035 0.13103 0.0
H370 H 0.64818 -0.00269 0.18122 0.0
H371 H 0.73737 0.6991 0.08918 0.0
H372 H 0.89227 0.8162 0.52222 0.0
H373 H 0.85096 0.74021 0.55541 0.0
H374 H 0.91866 0.83764 0.642 0.0
H375 H 0.95878 0.91344 0.60929 0.0
H376 H 0.9205 0.74468 0.62107 0.0
H377 H 0.8232 0.79187 0.65217 0.0
H378 H 0.77529 0.81614 0.6368 0.0
H379 H 0.67167 0.67963 0.57529 0.0
H380 H 0.71957 0.65504 0.58999 0.0
H381 H 0.78191 0.53593 0.73133 0.0
H382 H 0.83004 0.6222 0.70967 0.0
H383 H 0.71115 0.55407 0.63466 0.0
H384 H 0.66218 0.46927 0.65725 0.0
H385 H 0.73994 0.63916 0.65428 0.0
H386 H 0.82651 0.58532 0.62411 0.0
H387 H 0.873 0.55787 0.63314 0.0
H388 H -0.00446 0.70114 0.68473 0.0
H389 H 0.94942 0.72917 0.67635 0.0
C390 C 0.89832 0.82139 0.54832 0.0
C391 C 0.92839 0.87068 0.56316 0.0
C392 C 0.87481 0.77806 0.56719 0.0
C393 C 0.88181 0.78357 0.60106 0.0
C394 C 0.91274 0.83277 0.61588 0.0
C395 C 0.93537 0.8759 0.59715 0.0
C396 C 0.85565 0.7376 0.621 0.0
C397 C 0.88134 0.72189 0.62892 0.0
C398 C 0.80432 0.70758 0.63037 0.0
C399 C 0.77527 0.72201 0.62186 0.0
C400 C 0.79052 0.76735 0.63512 0.0
C401 C 0.76331 0.78109 0.6266 0.0
C402 C 0.72056 0.74953 0.605 0.0
C403 C 0.70484 0.70408 0.59197 0.0
C404 C 0.73198 0.69023 0.6004 0.0
C405 C 0.76553 0.53985 0.71086 0.0
C406 C 0.71794 0.49608 0.69633 0.0
C407 C 0.79337 0.58895 0.69815 0.0
C408 C 0.77447 0.59469 0.67028 0.0
C409 C 0.72655 0.55091 0.65621 0.0
C410 C 0.6987 0.5023 0.66905 0.0
C411 C 0.80456 0.64544 0.65467 0.0
C412 C 0.77948 0.6621 0.6472 0.0
C413 C 0.85625 0.67575 0.64523 0.0
C414 C 0.88403 0.65893 0.65015 0.0
C415 C 0.8631 0.61075 0.63768 0.0
C416 C 0.88945 0.59513 0.64261 0.0
C417 C 0.93707 0.62763 0.65964 0.0
C418 C 0.95858 0.67593 0.67162 0.0
C419 C 0.93234 0.6917 0.66679 0.0
H420 H 0.95741 0.61547 0.66344 0.0
H421 H 0.69954 0.76022 0.59842 0.0
H422 H 0.22971 0.94765 0.4274 0.0
H423 H 0.26371 0.91238 0.40609 0.0
H424 H 0.10867 0.7681 0.38154 0.0
H425 H 0.07424 0.80341 0.40244 0.0
H426 H 0.16738 0.753 0.40911 0.0
H427 H 0.18073 0.84787 0.3221 0.0
H428 H 0.20345 0.92239 0.29516 0.0
H429 H 0.36414 0.01414 0.31881 0.0
H430 H 0.34229 0.94031 0.34627 0.0
H431 H 0.25011 0.66356 0.30256 0.0
H432 H 0.21017 0.695 0.31957 0.0
H433 H 0.35535 0.83059 0.36435 0.0
H434 H 0.3951 0.79864 0.34797 0.0
H435 H 0.29728 0.84647 0.32353 0.0
H436 H 0.27827 0.74566 0.41196 0.0
H437 H 0.25076 0.66648 0.43458 0.0
H438 H 0.09389 0.58048 0.40315 0.0
H439 H 0.12061 0.65904 0.37995 0.0
C440 C 0.2028 0.90845 0.4174 0.0
C441 C 0.14929 0.87848 0.41637 0.0
C442 C 0.2223 0.88836 0.40525 0.0
C443 C 0.18873 0.83795 0.39178 0.0
C444 C 0.13519 0.80717 0.39177 0.0
C445 C 0.1156 0.82731 0.40388 0.0
C446 C 0.20988 0.81781 0.37754 0.0
C447 C 0.19531 0.77311 0.39015 0.0
C448 C 0.24644 0.84414 0.35285 0.0
C449 C 0.25981 0.88875 0.33655 0.0
C450 C 0.22086 0.8841 0.32183 0.0
C451 C 0.23359 0.92616 0.3064 0.0
C452 C 0.28519 0.97302 0.30536 0.0
C453 C 0.32418 0.97785 0.31968 0.0
C454 C 0.31165 0.93589 0.33515 0.0
C455 C 0.2735 0.70038 0.31566 0.0
C456 C 0.32557 0.72901 0.32388 0.0
C457 C 0.25071 0.71817 0.32541 0.0
C458 C 0.27993 0.76501 0.34321 0.0
C459 C 0.33237 0.79441 0.35055 0.0
C460 C 0.3549 0.77616 0.34132 0.0
C461 C 0.25539 0.78242 0.35552 0.0
C462 C 0.26939 0.82656 0.34253 0.0
C463 C 0.21778 0.75515 0.37949 0.0
C464 C 0.20157 0.7081 0.39386 0.0
C465 C 0.23799 0.70977 0.40961 0.0
C466 C 0.22252 0.66501 0.4226 0.0
C467 C 0.17063 0.61843 0.4202 0.0
C468 C 0.13408 0.61656 0.40493 0.0
C469 C 0.14937 0.66121 0.39187 0.0
H470 H 0.15873 0.58382 0.43027 0.0
H471 H 0.29497 0.00554 0.29339 0.0
H472 H 0.11289 -0.00125 0.94637 0.0
H473 H 0.18272 0.03619 0.90896 0.0
H474 H 0.23683 0.18666 0.926 0.0
H475 H 0.16549 0.14879 0.96196 0.0
H476 H 0.24101 0.17613 0.86582 0.0
H477 H 0.29629 0.14512 0.96061 0.0
H478 H 0.28889 0.09308 1.00372 0.0
H479 H 0.27417 -0.00467 0.932 0.0
H480 H 0.28083 0.04644 0.88843 0.0
H481 H 0.50796 0.34771 0.83777 0.0
H482 H 0.41901 0.29326 0.85479 0.0
H483 H 0.38067 0.15915 0.81211 0.0
H484 H 0.4702 0.21402 0.7949 0.0
H485 H 0.36007 0.1499 0.87678 0.0
H486 H 0.30808 0.18739 0.78199 0.0
H487 H 0.31404 0.24149 0.74128 0.0
H488 H 0.3305 0.33526 0.81728 0.0
H489 H 0.32312 0.28079 0.85836 0.0
C490 C 0.13998 0.03988 0.94227 0.0
C491 C 0.134 0.07095 0.95719 0.0
C492 C 0.17998 0.0613 0.92092 0.0
C493 C 0.21566 0.1145 0.91486 0.0
C494 C 0.2098 0.14552 0.93008 0.0
C495 C 0.16918 0.12391 0.95079 0.0
C496 C 0.25889 0.13815 0.89254 0.0
C497 C 0.26719 0.17057 0.86844 0.0
C498 C 0.29238 0.12992 0.89513 0.0
C499 C 0.2884 0.09919 0.92128 0.0
C500 C 0.29107 0.11228 0.95404 0.0
C501 C 0.28708 0.083 0.97855 0.0
C502 C 0.28089 0.04082 0.9706 0.0
C503 C 0.27884 0.02794 0.93812 0.0
C504 C 0.28274 0.05705 0.91351 0.0
C505 C 0.48014 0.3068 0.8313 0.0
C506 C 0.49563 0.28496 0.81497 0.0
C507 C 0.42922 0.27577 0.84076 0.0
C508 C 0.39294 0.22215 0.83443 0.0
C509 C 0.40788 0.20048 0.81695 0.0
C510 C 0.45889 0.23175 0.80715 0.0
C511 C 0.34279 0.18876 0.85074 0.0
C512 C 0.33321 0.15454 0.8738 0.0
C513 C 0.30881 0.19619 0.84771 0.0
C514 C 0.31557 0.23034 0.82317 0.0
C515 C 0.3134 0.21978 0.78997 0.0
C516 C 0.31672 0.25031 0.76685 0.0
C517 C 0.32315 0.29205 0.77669 0.0
C518 C 0.3257 0.30303 0.80968 0.0
C519 C 0.32157 0.27212 0.83287 0.0
H520 H 0.32589 0.31572 0.75874 0.0
H521 H 0.27781 0.0182 0.98961 0.0
H522 H 0.02792 0.15065 0.47217 0.0
H523 H 0.06887 0.22473 0.43759 0.0
H524 H 0.17755 0.21573 0.40754 0.0
H525 H 0.1376 0.14246 0.4423 0.0
H526 H 0.2257 0.31261 0.422 0.0
H527 H 0.07718 0.17396 0.3569 0.0
H528 H 0.98445 0.09838 0.34521 0.0
H529 H 0.95125 0.19159 0.36297 0.0
H530 H 0.04374 0.26761 0.37521 0.0
H531 H 0.33516 0.49871 0.30233 0.0
H532 H 0.28394 0.41151 0.32315 0.0
H533 H 0.17646 0.41688 0.36223 0.0
H534 H 0.22709 0.50345 0.34078 0.0
H535 H 0.12714 0.3185 0.33931 0.0
H536 H 0.27468 0.45445 0.40877 0.0
H537 H 0.36737 0.52972 0.42092 0.0
H538 H 0.40188 0.43976 0.3947 0.0
H539 H 0.30939 0.36413 0.38196 0.0
C540 C 0.06062 0.16451 0.45828 0.0
C541 C 0.07947 0.14059 0.46008 0.0
C542 C 0.08374 0.20662 0.43832 0.0
C543 C 0.12586 0.22534 0.41963 0.0
C544 C 0.14503 0.20187 0.42166 0.0
C545 C 0.12206 0.15991 0.4416 0.0
C546 C 0.15106 0.27037 0.39866 0.0
C547 C 0.20424 0.31345 0.40354 0.0
C548 C 0.12295 0.27188 0.37492 0.0
C549 C 0.06735 0.22638 0.36726 0.0
C550 C 0.05006 0.17826 0.35854 0.0
C551 C -0.00245 0.13535 0.35178 0.0
C552 C 0.96196 0.14014 0.35344 0.0
C553 C 0.97885 0.18792 0.36174 0.0
C554 C 0.03133 0.23095 0.36855 0.0
C555 C 0.2995 0.48025 0.31427 0.0
C556 C 0.28431 0.50694 0.3196 0.0
C557 C 0.27058 0.4308 0.3264 0.0
C558 C 0.22669 0.40798 0.34453 0.0
C559 C 0.21002 0.43365 0.34822 0.0
C560 C 0.2389 0.48299 0.33606 0.0
C561 C 0.2016 0.36048 0.36276 0.0
C562 C 0.14853 0.31718 0.3575 0.0
C563 C 0.22975 0.35858 0.38615 0.0
C564 C 0.28526 0.40386 0.39408 0.0
C565 C 0.3021 0.45085 0.40538 0.0
C566 C 0.35458 0.49355 0.4124 0.0
C567 C 0.39051 0.48957 0.40849 0.0
C568 C 0.37401 0.44282 0.39765 0.0
C569 C 0.32158 0.40002 0.39054 0.0
H570 H 0.43113 0.52267 0.41394 0.0
H571 H 0.92132 0.10686 0.34823 0.0
H572 H 0.85826 0.14899 0.95552 0.0
H573 H 0.81651 0.17765 0.93587 0.0
H574 H 0.84343 0.16259 0.83722 0.0
H575 H 0.88535 0.13424 0.85668 0.0
H576 H 0.87071 0.25189 0.84667 0.0
H577 H 0.72229 0.07536 0.8682 0.0
H578 H 0.66635 -0.00308 0.90058 0.0
H579 H 0.65025 0.07511 0.96988 0.0
H580 H 0.70671 0.1543 0.93814 0.0
H581 H 0.67748 0.25287 0.77945 0.0
H582 H 0.71531 0.21812 0.79463 0.0
H583 H 0.76398 0.29769 0.88767 0.0
H584 H 0.73121 0.33645 0.87143 0.0
H585 H 0.69654 0.17364 0.87807 0.0
H586 H 0.85108 0.35305 0.8554 0.0
H587 H 0.9056 0.42856 0.82057 0.0
H588 H 0.90968 0.34115 0.75122 0.0
H589 H 0.85367 0.26461 0.78542 0.0
C590 C 0.8547 0.15123 0.92965 0.0
C591 C 0.87529 0.13963 0.90767 0.0
C592 C 0.83083 0.16756 0.91843 0.0
C593 C 0.82656 0.17193 0.88504 0.0
C594 C 0.8465 0.15971 0.86307 0.0
C595 C 0.87055 0.14365 0.87425 0.0
C596 C 0.80307 0.19111 0.87302 0.0
C597 C 0.83236 0.23433 0.85325 0.0
C598 C 0.75322 0.16852 0.88183 0.0
C599 C 0.71912 0.12092 0.90093 0.0
C600 C 0.70715 0.07596 0.89047 0.0
C601 C 0.67529 0.03134 0.90869 0.0
C602 C 0.65486 0.03107 0.93731 0.0
C603 C 0.66615 0.0754 0.94773 0.0
C604 C 0.69804 0.12015 0.92961 0.0
C605 C 0.69845 0.26485 0.80241 0.0
C606 C 0.70359 0.29935 0.82347 0.0
C607 C 0.71891 0.24408 0.81137 0.0
C608 C 0.74298 0.25611 0.84207 0.0
C609 C 0.74601 0.28854 0.86373 0.0
C610 C 0.72715 0.31052 0.8544 0.0
C611 C 0.76441 0.23435 0.85208 0.0
C612 C 0.73474 0.1908 0.87146 0.0
C613 C 0.81379 0.25647 0.84283 0.0
C614 C 0.8469 0.30259 0.82239 0.0
C615 C 0.86248 0.34949 0.83237 0.0
C616 C 0.89395 0.39263 0.81286 0.0
C617 C 0.91084 0.38959 0.78358 0.0
C618 C 0.89648 0.34347 0.77385 0.0
C619 C 0.86468 0.30017 0.79317 0.0
H620 H 0.93525 0.42303 0.76852 0.0
H621 H 0.6302 -0.00352 0.95138 0.0
H622 H 0.88452 0.01035 0.45953 0.0
H623 H 0.82207 0.98627 0.41677 0.0
H624 H 0.82304 0.87453 0.37708 0.0
H625 H 0.88828 0.90151 0.41833 0.0
H626 H 0.81451 0.91268 0.32956 0.0
H627 H 0.72614 0.84389 0.43039 0.0
H628 H 0.71013 0.84777 0.48764 0.0
H629 H 0.69072 0.95059 0.46394 0.0
H630 H 0.70721 0.94774 0.40658 0.0
H631 H 0.54186 0.70084 0.29575 0.0
H632 H 0.63475 0.76421 0.30912 0.0
H633 H 0.64028 0.88793 0.29793 0.0
H634 H 0.5475 0.82442 0.28319 0.0
H635 H 0.65289 0.86134 0.36466 0.0
H636 H 0.72538 0.91219 0.25971 0.0
H637 H 0.7379 0.90061 0.20323 0.0
H638 H 0.77699 0.81687 0.23545 0.0
H639 H 0.76562 0.82863 0.29225 0.0
C640 C 0.87115 0.9806 0.44164 0.0
C641 C 0.8903 0.95705 0.4424 0.0
C642 C 0.83554 0.96684 0.4172 0.0
C643 C 0.8168 0.92769 0.39397 0.0
C644 C 0.83677 0.90484 0.39458 0.0
C645 C 0.87363 0.91984 0.41833 0.0
C646 C 0.77451 0.90835 0.37014 0.0
C647 C 0.77913 0.90134 0.33731 0.0
C648 C 0.72857 0.89446 0.37989 0.0
C649 C 0.71856 0.89614 0.41432 0.0
C650 C 0.71879 0.86759 0.43745 0.0
C651 C 0.70959 0.86957 0.4699 0.0
C652 C 0.6996 0.89956 0.47944 0.0
C653 C 0.6986 0.92749 0.45653 0.0
C654 C 0.70785 0.9257 0.42405 0.0
C655 C 0.56362 0.74168 0.29437 0.0
C656 C 0.53812 0.75812 0.28839 0.0
C657 C 0.61659 0.77783 0.30192 0.0
C658 C 0.64419 0.83064 0.30451 0.0
C659 C 0.61965 0.84736 0.29565 0.0
C660 C 0.56682 0.81116 0.28727 0.0
C661 C 0.6926 0.86474 0.32452 0.0
C662 C 0.68889 0.87407 0.35681 0.0
C663 C 0.73843 0.87918 0.31441 0.0
C664 C 0.74435 0.87106 0.28026 0.0
C665 C 0.73622 0.89092 0.25476 0.0
C666 C 0.74321 0.88443 0.22269 0.0
C667 C 0.75778 0.85769 0.21573 0.0
C668 C 0.76565 0.83756 0.24087 0.0
C669 C 0.75925 0.84439 0.27304 0.0
H670 H 0.76331 0.85292 0.19089 0.0
H671 H 0.69249 0.90105 0.50458 0.0
H672 H 0.91618 0.91467 0.90835 0.0
H673 H 0.88087 0.84796 0.86609 0.0
H674 H 0.91929 0.77954 0.92619 0.0
H675 H 0.95369 0.84545 0.96894 0.0
H676 H 0.94973 0.79817 0.85546 0.0
H677 H 0.80494 0.7232 0.92663 0.0
H678 H 0.74481 0.72445 0.95365 0.0
H679 H 0.69466 0.73406 0.86133 0.0
H680 H 0.75512 0.73362 0.83381 0.0
H681 H 0.81074 0.54032 0.82894 0.0
H682 H 0.85908 0.63042 0.84195 0.0
H683 H 0.75403 0.6216 0.78016 0.0
H684 H 0.70422 0.52981 0.76786 0.0
H685 H 0.75983 0.65604 0.83733 0.0
H686 H 0.88526 0.70603 0.76502 0.0
H687 H 0.94406 0.70488 0.73616 0.0
H688 H 0.03245 0.74697 0.82444 0.0
H689 H 0.97339 0.74705 0.85421 0.0
C690 C 0.91708 0.88538 0.91257 0.0
C691 C 0.93749 0.88507 0.94197 0.0
C692 C 0.89702 0.84749 0.8884 0.0
C693 C 0.89788 0.80926 0.89306 0.0
C694 C 0.91869 0.80909 0.9222 0.0
C695 C 0.93786 0.84639 0.94665 0.0
C696 C 0.87532 0.76804 0.86813 0.0
C697 C 0.90827 0.76689 0.85137 0.0
C698 C 0.82144 0.72912 0.86167 0.0
C699 C 0.785 0.72909 0.87822 0.0
C700 C 0.78146 0.72611 0.91213 0.0
C701 C 0.74725 0.72655 0.92753 0.0
C702 C 0.71607 0.72953 0.90923 0.0
C703 C 0.71892 0.73189 0.87548 0.0
C704 C 0.75314 0.73153 0.85997 0.0
C705 C 0.79902 0.55813 0.81727 0.0
C706 C 0.75416 0.52855 0.79729 0.0
C707 C 0.82686 0.60981 0.82454 0.0
C708 C 0.81058 0.63317 0.81184 0.0
C709 C 0.76745 0.60446 0.79012 0.0
C710 C 0.7393 0.55231 0.7829 0.0
C711 C 0.83408 0.68427 0.82556 0.0
C712 C 0.80143 0.68774 0.84035 0.0
C713 C 0.88837 0.72579 0.82969 0.0
C714 C 0.92468 0.7265 0.81192 0.0
C715 C 0.91703 0.71478 0.7784 0.0
C716 C 0.95046 0.71431 0.76184 0.0
C717 C -0.00795 0.72596 0.77839 0.0
C718 C 0.00027 0.73806 0.81161 0.0
C719 C 0.96682 0.73836 0.82836 0.0
H720 H 0.01787 0.72557 0.76548 0.0
H721 H 0.68959 0.72985 0.92118 0.0
loop_
_geom_bond_atom_site_label_1
_geom_bond_atom_site_label_2
_geom_bond_distance
_geom_bond_site_symmetry_2
_ccdc_geom_bond_type
Tb0 C10 2.825 . S
Tb0 O11 2.347 1_546 S
Tb0 O14 2.373 1_655 S
Tb0 O19 2.418 1_655 S
Tb0 O20 2.384 1_545 S
Tb0 O23 2.479 . S
Tb0 O24 2.471 . S
Eu1 O12 2.418 1_455 S
Eu1 O13 2.384 1_565 S
Eu1 O16 2.479 . S
Eu1 O17 2.471 . S
Eu1 O18 2.347 1_564 S
Eu1 O21 2.366 1_455 S
Eu1 C31 2.825 . S
C2 O18 1.259 . S
C2 O19 1.265 . S
C3 O20 1.255 . S
C3 O21 1.265 1_556 S
C4 C6 1.380 . S
C4 C7 1.374 . S
C4 C10 1.507 . S
C5 C6 1.384 . S
C5 C9 1.387 . S
C5 H32 0.930 . S
C6 C4 1.380 . S
C6 C5 1.384 . S
C6 H33 0.931 . S
C7 C4 1.374 . S
C7 C8 1.390 . S
C7 H34 0.930 . S
C8 C7 1.390 . S
C8 C9 1.391 . S
C8 H35 0.930 . S
C9 C5 1.387 . S
C9 C8 1.391 . S
C10 Tb0 2.825 . S
C10 C4 1.507 . S
C10 O23 1.238 . S
C10 O24 1.247 . S
O11 Tb0 2.347 1_564 S
O11 C15 1.259 . S
O12 Eu1 2.418 1_655 S
O12 C15 1.265 . S
O13 Eu1 2.384 1_545 S
O13 C22 1.255 . S
O14 Tb0 2.373 1_455 S
O14 C22 1.254 1_556 S
C15 O11 1.259 . S
C15 O12 1.265 . S
O16 Eu1 2.479 . S
O16 C31 1.238 . S
O17 Eu1 2.471 . S
O17 C31 1.247 . S
O18 Eu1 2.347 1_546 S
O18 C2 1.259 . S
O19 Tb0 2.418 1_455 S
O19 C2 1.265 . S
O20 Tb0 2.384 1_565 S
O20 C3 1.255 . S
O21 Eu1 2.366 1_655 S
O21 C3 1.265 1_554 S
C22 O13 1.255 . S
C22 O14 1.254 1_554 S
O23 Tb0 2.479 . S
O23 C10 1.238 . S
O24 Tb0 2.471 . S
O24 C10 1.247 . S
C25 C28 1.380 . S
C25 C29 1.374 . S
C25 C31 1.507 . S
C26 C27 1.387 . S
C26 C30 1.391 . S
C27 C26 1.387 . S
C27 C28 1.384 . S
C27 H36 0.930 . S
C28 C25 1.380 . S
C28 C27 1.384 . S
C28 H37 0.931 . S
C29 C25 1.374 . S
C29 C30 1.390 . S
C29 H38 0.930 . S
C30 C26 1.391 . S
C30 C29 1.390 . S
C30 H39 0.930 . S
C31 Eu1 2.825 . S
C31 O16 1.238 . S
C31 O17 1.247 . S
C31 C25 1.507 . S
H32 C5 0.930 . S
H33 C6 0.931 . S
H34 C7 0.930 . S
H35 C8 0.930 . S
H36 C27 0.930 . S
H37 C28 0.931 . S
H38 C29 0.930 . S
H39 C30 0.930 . S
Tb40 C50 2.825 1_455 S
Tb40 O51 2.347 . S
Tb40 O54 2.366 1_445 S
Tb40 O59 2.418 1_445 S
Tb40 O60 2.384 . S
Tb40 O63 2.479 1_455 S
Tb40 O64 2.471 1_455 S
Eu41 O52 2.418 1_565 S
Eu41 O53 2.384 1_455 S
Eu41 O56 2.479 . S
Eu41 O57 2.471 . S
Eu41 O58 2.347 1_455 S
Eu41 O61 2.366 1_565 S
Eu41 C71 2.825 . S
C42 O58 1.259 . S
C42 O59 1.265 . S
C43 O60 1.255 . S
C43 O61 1.265 . S
C44 C46 1.380 . S
C44 C47 1.374 . S
C44 C50 1.507 . S
C45 C46 1.384 . S
C45 C49 1.387 . S
C45 H72 0.930 . S
C46 C44 1.380 . S
C46 C45 1.384 . S
C46 H73 0.931 . S
C47 C44 1.374 . S
C47 C48 1.390 . S
C47 H74 0.930 . S
C48 C47 1.390 . S
C48 C49 1.391 . S
C48 H75 0.930 . S
C49 C45 1.387 . S
C49 C48 1.391 . S
C50 Tb40 2.825 1_655 S
C50 C44 1.507 . S
C50 O63 1.238 . S
C50 O64 1.247 . S
O51 Tb40 2.347 . S
O51 C55 1.259 . S
O52 Eu41 2.418 1_545 S
O52 C55 1.265 . S
O53 Eu41 2.384 1_655 S
O53 C62 1.255 . S
O54 Tb40 2.366 1_665 S
O54 C62 1.265 . S
C55 O51 1.259 . S
C55 O52 1.265 . S
O56 Eu41 2.479 . S
O56 C71 1.238 . S
O57 Eu41 2.471 . S
O57 C71 1.247 . S
O58 Eu41 2.347 1_655 S
O58 C42 1.259 . S
O59 Tb40 2.418 1_665 S
O59 C42 1.265 . S
O60 Tb40 2.384 . S
O60 C43 1.255 . S
O61 Eu41 2.366 1_545 S
O61 C43 1.265 . S
C62 O53 1.255 . S
C62 O54 1.265 . S
O63 Tb40 2.479 1_655 S
O63 C50 1.238 . S
O64 Tb40 2.471 1_655 S
O64 C50 1.247 . S
C65 C68 1.380 . S
C65 C69 1.374 . S
C65 C71 1.507 . S
C66 C67 1.387 . S
C66 C70 1.391 . S
C67 C66 1.387 . S
C67 C68 1.384 . S
C67 H76 0.930 . S
C68 C65 1.380 . S
C68 C67 1.384 . S
C68 H77 0.931 . S
C69 C65 1.374 . S
C69 C70 1.390 . S
C69 H78 0.930 . S
C70 C66 1.391 . S
C70 C69 1.390 . S
C70 H79 0.930 . S
C71 Eu41 2.825 . S
C71 O56 1.238 . S
C71 O57 1.247 . S
C71 C65 1.507 . S
H72 C45 0.930 . S
H73 C46 0.931 . S
H74 C47 0.930 . S
H75 C48 0.930 . S
H76 C67 0.930 . S
H77 C68 0.931 . S
H78 C69 0.930 . S
H79 C70 0.930 . S
Zn80 O86 1.920 . S
Zn80 O92 1.898 . S
Zn80 O95 1.905 . S
Zn81 O89 1.905 . S
Zn81 O90 1.898 . S
Zn81 O98 1.920 . S
Zn82 O85 2.080 . S
Zn82 O88 2.114 . S
Zn82 O91 2.120 . S
Zn82 O93 2.120 . S
Zn82 O94 2.114 . S
Zn82 O97 2.080 . S
C83 O88 1.166 . S
C83 O89 1.182 . S
C84 O90 1.167 . S
C84 O91 1.299 . S
O85 Zn82 2.080 . S
O85 C99 1.305 . S
O86 Zn80 1.920 . S
O86 C99 1.234 . S
C87 O92 1.167 . S
C87 O93 1.299 . S
O88 Zn82 2.114 . S
O88 C83 1.166 . S
O89 Zn81 1.905 . S
O89 C83 1.182 . S
O90 Zn81 1.898 . S
O90 C84 1.167 . S
O91 Zn82 2.120 . S
O91 C84 1.299 . S
O92 Zn80 1.898 . S
O92 C87 1.167 . S
O93 Zn82 2.120 . S
O93 C87 1.299 . S
O94 Zn82 2.114 . S
O94 C96 1.166 . S
O95 Zn80 1.905 . S
O95 C96 1.182 . S
C96 O94 1.166 . S
C96 O95 1.182 . S
O97 Zn82 2.080 . S
O97 C100 1.305 . S
O98 Zn81 1.920 . S
O98 C100 1.234 . S
C99 O85 1.305 . S
C99 O86 1.234 . S
C100 O97 1.305 . S
C100 O98 1.234 . S
Zn101 O107 1.920 . S
Zn101 O113 1.898 . S
Zn101 O116 1.905 . S
Zn102 O110 1.905 . S
Zn102 O111 1.898 . S
Zn102 O119 1.920 . S
Zn103 O106 2.080 . S
Zn103 O109 2.114 . S
Zn103 O112 2.120 . S
Zn103 O114 2.120 . S
Zn103 O115 2.114 . S
Zn103 O118 2.080 . S
C104 O109 1.166 . S
C104 O110 1.182 . S
C105 O111 1.167 . S
C105 O112 1.299 . S
O106 Zn103 2.080 . S
O106 C120 1.305 . S
O107 Zn101 1.920 . S
O107 C120 1.234 . S
C108 O113 1.167 . S
C108 O114 1.299 . S
O109 Zn103 2.114 . S
O109 C104 1.166 . S
O110 Zn102 1.905 . S
O110 C104 1.182 . S
O111 Zn102 1.898 . S
O111 C105 1.167 . S
O112 Zn103 2.120 . S
O112 C105 1.299 . S
O113 Zn101 1.898 . S
O113 C108 1.167 . S
O114 Zn103 2.120 . S
O114 C108 1.299 . S
O115 Zn103 2.114 . S
O115 C117 1.166 . S
O116 Zn101 1.905 . S
O116 C117 1.182 . S
C117 O115 1.166 . S
C117 O116 1.182 . S
O118 Zn103 2.080 . S
O118 C121 1.305 . S
O119 Zn102 1.920 . S
O119 C121 1.234 . S
C120 O106 1.305 . S
C120 O107 1.234 . S
C121 O118 1.305 . S
C121 O119 1.234 . S
H122 C140 0.951 . S
H123 C142 0.951 . S
H124 C144 0.950 . S
H125 C145 0.950 . S
H126 C147 0.950 . S
H127 C150 0.950 . S
H128 C151 0.950 . S
H129 C153 0.950 . S
H130 C154 0.950 . S
H131 C155 0.951 . S
H132 C157 0.951 . S
H133 C159 0.950 . S
H134 C160 0.950 . S
H135 C162 0.950 . S
H136 C165 0.950 . S
H137 C166 0.950 . S
H138 C168 0.950 . S
H139 C169 0.950 . S
C140 H122 0.951 . S
C140 C141 1.366 . S
C140 C142 1.388 . S
C141 C140 1.366 . S
C141 C145 1.385 . S
C142 H123 0.951 . S
C142 C140 1.388 . S
C142 C143 1.366 . S
C143 C142 1.366 . S
C143 C144 1.414 . S
C143 C146 1.499 . S
C144 H124 0.950 . S
C144 C143 1.414 . S
C144 C145 1.374 . S
C145 H125 0.950 . S
C145 C141 1.385 . S
C145 C144 1.374 . S
C146 C143 1.499 . S
C146 C147 1.373 . S
C146 C148 1.389 . S
C147 H126 0.950 . S
C147 C146 1.373 . S
C147 C163 1.377 . S
C148 C146 1.389 . S
C148 C149 1.524 . S
C148 C162 1.377 . S
C149 C148 1.524 . S
C149 C150 1.397 . S
C149 C154 1.363 . S
C150 H127 0.950 . S
C150 C149 1.397 . S
C150 C151 1.334 . S
C151 H128 0.950 . S
C151 C150 1.334 . S
C151 C152 1.287 . S
C152 C151 1.287 . S
C152 C153 1.524 . S
C152 H171 0.913 1_554 S
C153 H129 0.950 . S
C153 C152 1.524 . S
C153 C154 1.415 . S
C154 H130 0.950 . S
C154 C149 1.363 . S
C154 C153 1.415 . S
C155 H131 0.951 . S
C155 C156 1.366 . S
C155 C157 1.388 . S
C156 C155 1.366 . S
C156 C160 1.385 . S
C157 H132 0.951 . S
C157 C155 1.388 . S
C157 C158 1.366 . S
C158 C157 1.366 . S
C158 C159 1.414 . S
C158 C161 1.499 . S
C159 H133 0.950 . S
C159 C158 1.414 . S
C159 C160 1.374 . S
C160 H134 0.950 . S
C160 C156 1.385 . S
C160 C159 1.374 . S
C161 C158 1.499 . S
C161 C162 1.373 . S
C161 C163 1.389 . S
C162 H135 0.950 . S
C162 C148 1.377 . S
C162 C161 1.373 . S
C163 C147 1.377 . S
C163 C161 1.389 . S
C163 C164 1.524 . S
C164 C163 1.524 . S
C164 C165 1.397 . S
C164 C169 1.363 . S
C165 H136 0.950 . S
C165 C164 1.397 . S
C165 C166 1.334 . S
C166 H137 0.950 . S
C166 C165 1.334 . S
C166 C167 1.287 . S
C167 C166 1.287 . S
C167 C168 1.524 . S
C167 H170 0.999 . S
C168 H138 0.950 . S
C168 C167 1.524 . S
C168 C169 1.415 . S
C169 H139 0.950 . S
C169 C164 1.363 . S
C169 C168 1.415 . S
H170 C167 0.999 . S
H171 C152 0.913 1_556 S
H172 C190 0.951 . S
H173 C192 0.951 . S
H174 C194 0.950 . S
H175 C195 0.950 . S
H176 C197 0.950 . S
H177 C200 0.950 . S
H178 C201 0.950 . S
H179 C203 0.950 . S
H180 C204 0.950 . S
H181 C205 0.951 . S
H182 C207 0.951 . S
H183 C209 0.950 . S
H184 C210 0.950 . S
H185 C212 0.950 . S
H186 C215 0.950 . S
H187 C216 0.950 . S
H188 C218 0.950 . S
H189 C219 0.950 . S
C190 H172 0.951 . S
C190 C191 1.366 . S
C190 C192 1.388 . S
C191 C190 1.366 . S
C191 C195 1.385 . S
C192 H173 0.951 . S
C192 C190 1.388 . S
C192 C193 1.366 . S
C193 C192 1.366 . S
C193 C194 1.414 . S
C193 C196 1.499 . S
C194 H174 0.950 . S
C194 C193 1.414 . S
C194 C195 1.374 . S
C195 H175 0.950 . S
C195 C191 1.385 . S
C195 C194 1.374 . S
C196 C193 1.499 . S
C196 C197 1.373 . S
C196 C198 1.389 . S
C197 H176 0.950 . S
C197 C196 1.373 . S
C197 C213 1.377 . S
C198 C196 1.389 . S
C198 C199 1.524 . S
C198 C212 1.377 . S
C199 C198 1.524 . S
C199 C200 1.397 . S
C199 C204 1.363 . S
C200 H177 0.950 . S
C200 C199 1.397 . S
C200 C201 1.334 . S
C201 H178 0.950 . S
C201 C200 1.334 . S
C201 C202 1.287 . S
C202 C201 1.287 . S
C202 C203 1.524 . S
C202 H221 0.913 . S
C203 H179 0.950 . S
C203 C202 1.524 . S
C203 C204 1.415 . S
C204 H180 0.950 . S
C204 C199 1.363 . S
C204 C203 1.415 . S
C205 H181 0.951 . S
C205 C206 1.366 . S
C205 C207 1.388 . S
C206 C205 1.366 . S
C206 C210 1.385 . S
C207 H182 0.951 . S
C207 C205 1.388 . S
C207 C208 1.366 . S
C208 C207 1.366 . S
C208 C209 1.414 . S
C208 C211 1.499 . S
C209 H183 0.950 . S
C209 C208 1.414 . S
C209 C210 1.374 . S
C210 H184 0.950 . S
C210 C206 1.385 . S
C210 C209 1.374 . S
C211 C208 1.499 . S
C211 C212 1.373 . S
C211 C213 1.389 . S
C212 H185 0.950 . S
C212 C198 1.377 . S
C212 C211 1.373 . S
C213 C197 1.377 . S
C213 C211 1.389 . S
C213 C214 1.524 . S
C214 C213 1.524 . S
C214 C215 1.397 . S
C214 C219 1.363 . S
C215 H186 0.950 . S
C215 C214 1.397 . S
C215 C216 1.334 . S
C216 H187 0.950 . S
C216 C215 1.334 . S
C216 C217 1.287 . S
C217 C216 1.287 . S
C217 C218 1.524 . S
C217 H220 0.999 . S
C218 H188 0.950 . S
C218 C217 1.524 . S
C218 C219 1.415 . S
C219 H189 0.950 . S
C219 C214 1.363 . S
C219 C218 1.415 . S
H220 C217 0.999 . S
H221 C202 0.913 . S
H222 C240 0.951 . S
H223 C242 0.951 . S
H224 C244 0.950 . S
H225 C245 0.950 . S
H226 C247 0.950 . S
H227 C250 0.950 . S
H228 C251 0.950 1_655 S
H229 C253 0.950 . S
H230 C254 0.950 . S
H231 C255 0.951 . S
H232 C257 0.951 . S
H233 C259 0.950 . S
H234 C260 0.950 . S
H235 C262 0.950 . S
H236 C265 0.950 . S
H237 C266 0.950 . S
H238 C268 0.950 . S
H239 C269 0.950 . S
C240 H222 0.951 . S
C240 C241 1.366 . S
C240 C242 1.388 . S
C241 C240 1.366 . S
C241 C245 1.385 . S
C242 H223 0.951 . S
C242 C240 1.388 . S
C242 C243 1.366 . S
C243 C242 1.366 . S
C243 C244 1.414 . S
C243 C246 1.499 . S
C244 H224 0.950 . S
C244 C243 1.414 . S
C244 C245 1.374 . S
C245 H225 0.950 . S
C245 C241 1.385 . S
C245 C244 1.374 . S
C246 C243 1.499 . S
C246 C247 1.373 . S
C246 C248 1.389 . S
C247 H226 0.950 . S
C247 C246 1.373 . S
C247 C263 1.377 . S
C248 C246 1.389 . S
C248 C249 1.524 . S
C248 C262 1.377 . S
C249 C248 1.524 . S
C249 C250 1.397 . S
C249 C254 1.363 . S
C250 H227 0.950 . S
C250 C249 1.397 . S
C250 C251 1.334 . S
C251 H228 0.950 1_455 S
C251 C250 1.334 . S
C251 C252 1.287 . S
C252 C251 1.287 . S
C252 C253 1.524 . S
C252 H271 0.913 1_455 S
C253 H229 0.950 . S
C253 C252 1.524 . S
C253 C254 1.415 . S
C254 H230 0.950 . S
C254 C249 1.363 . S
C254 C253 1.415 . S
C255 H231 0.951 . S
C255 C256 1.366 . S
C255 C257 1.388 . S
C256 C255 1.366 . S
C256 C260 1.385 . S
C257 H232 0.951 . S
C257 C255 1.388 . S
C257 C258 1.366 . S
C258 C257 1.366 . S
C258 C259 1.414 . S
C258 C261 1.499 . S
C259 H233 0.950 . S
C259 C258 1.414 . S
C259 C260 1.374 . S
C260 H234 0.950 . S
C260 C256 1.385 . S
C260 C259 1.374 . S
C261 C258 1.499 . S
C261 C262 1.373 . S
C261 C263 1.389 . S
C262 H235 0.950 . S
C262 C248 1.377 . S
C262 C261 1.373 . S
C263 C247 1.377 . S
C263 C261 1.389 . S
C263 C264 1.524 . S
C264 C263 1.524 . S
C264 C265 1.397 . S
C264 C269 1.363 . S
C265 H236 0.950 . S
C265 C264 1.397 . S
C265 C266 1.334 . S
C266 H237 0.950 . S
C266 C265 1.334 . S
C266 C267 1.287 . S
C267 C266 1.287 . S
C267 C268 1.524 . S
C267 H270 0.999 . S
C268 H238 0.950 . S
C268 C267 1.524 . S
C268 C269 1.415 . S
C269 H239 0.950 . S
C269 C264 1.363 . S
C269 C268 1.415 . S
H270 C267 0.999 . S
H271 C252 0.913 1_655 S
H272 C290 0.951 . S
H273 C292 0.951 . S
H274 C294 0.950 . S
H275 C295 0.950 . S
H276 C297 0.950 . S
H277 C300 0.950 . S
H278 C301 0.950 . S
H279 C303 0.950 . S
H280 C304 0.950 . S
H281 C305 0.951 . S
H282 C307 0.951 . S
H283 C309 0.950 . S
H284 C310 0.950 . S
H285 C312 0.950 . S
H286 C315 0.950 . S
H287 C316 0.950 . S
H288 C318 0.950 . S
H289 C319 0.950 . S
C290 H272 0.951 . S
C290 C291 1.366 . S
C290 C292 1.388 . S
C291 C290 1.366 . S
C291 C295 1.385 . S
C292 H273 0.951 . S
C292 C290 1.388 . S
C292 C293 1.366 . S
C293 C292 1.366 . S
C293 C294 1.414 . S
C293 C296 1.499 . S
C294 H274 0.950 . S
C294 C293 1.414 . S
C294 C295 1.374 . S
C295 H275 0.950 . S
C295 C291 1.385 . S
C295 C294 1.374 . S
C296 C293 1.499 . S
C296 C297 1.373 . S
C296 C298 1.389 . S
C297 H276 0.950 . S
C297 C296 1.373 . S
C297 C313 1.377 . S
C298 C296 1.389 . S
C298 C299 1.524 . S
C298 C312 1.377 . S
C299 C298 1.524 . S
C299 C300 1.397 . S
C299 C304 1.363 . S
C300 H277 0.950 . S
C300 C299 1.397 . S
C300 C301 1.334 . S
C301 H278 0.950 . S
C301 C300 1.334 . S
C301 C302 1.287 . S
C302 C301 1.287 . S
C302 C303 1.524 . S
C302 H321 0.913 . S
C303 H279 0.950 . S
C303 C302 1.524 . S
C303 C304 1.415 . S
C304 H280 0.950 . S
C304 C299 1.363 . S
C304 C303 1.415 . S
C305 H281 0.951 . S
C305 C306 1.366 . S
C305 C307 1.388 . S
C306 C305 1.366 . S
C306 C310 1.385 . S
C307 H282 0.951 . S
C307 C305 1.388 . S
C307 C308 1.366 . S
C308 C307 1.366 . S
C308 C309 1.414 . S
C308 C311 1.499 . S
C309 H283 0.950 . S
C309 C308 1.414 . S
C309 C310 1.374 . S
C310 H284 0.950 . S
C310 C306 1.385 . S
C310 C309 1.374 . S
C311 C308 1.499 . S
C311 C312 1.373 . S
C311 C313 1.389 . S
C312 H285 0.950 . S
C312 C298 1.377 . S
C312 C311 1.373 . S
C313 C297 1.377 . S
C313 C311 1.389 . S
C313 C314 1.524 . S
C314 C313 1.524 . S
C314 C315 1.397 . S
C314 C319 1.363 . S
C315 H286 0.950 . S
C315 C314 1.397 . S
C315 C316 1.334 . S
C316 H287 0.950 . S
C316 C315 1.334 . S
C316 C317 1.287 . S
C317 C316 1.287 . S
C317 C318 1.524 . S
C317 H320 0.999 . S
C318 H288 0.950 . S
C318 C317 1.524 . S
C318 C319 1.415 . S
C319 H289 0.950 . S
C319 C314 1.363 . S
C319 C318 1.415 . S
H320 C317 0.999 . S
H321 C302 0.913 . S
H322 C340 0.951 . S
H323 C342 0.951 . S
H324 C344 0.950 . S
H325 C345 0.950 . S
H326 C347 0.950 . S
H327 C350 0.950 . S
H328 C351 0.950 . S
H329 C353 0.950 . S
H330 C354 0.950 . S
H331 C355 0.951 . S
H332 C357 0.951 . S
H333 C359 0.950 . S
H334 C360 0.950 . S
H335 C362 0.950 . S
H336 C365 0.950 . S
H337 C366 0.950 . S
H338 C368 0.950 . S
H339 C369 0.950 . S
C340 H322 0.951 . S
C340 C341 1.366 . S
C340 C342 1.388 . S
C341 C340 1.366 . S
C341 C345 1.385 . S
C342 H323 0.951 . S
C342 C340 1.388 . S
C342 C343 1.366 . S
C343 C342 1.366 . S
C343 C344 1.414 . S
C343 C346 1.499 . S
C344 H324 0.950 . S
C344 C343 1.414 . S
C344 C345 1.374 . S
C345 H325 0.950 . S
C345 C341 1.385 . S
C345 C344 1.374 . S
C346 C343 1.499 . S
C346 C347 1.373 . S
C346 C348 1.389 . S
C347 H326 0.950 . S
C347 C346 1.373 . S
C347 C363 1.377 . S
C348 C346 1.389 . S
C348 C349 1.524 . S
C348 C362 1.377 . S
C349 C348 1.524 . S
C349 C350 1.397 . S
C349 C354 1.363 . S
C350 H327 0.950 . S
C350 C349 1.397 . S
C350 C351 1.334 . S
C351 H328 0.950 . S
C351 C350 1.334 . S
C351 C352 1.287 . S
C352 C351 1.287 . S
C352 C353 1.524 . S
C352 H371 0.913 . S
C353 H329 0.950 . S
C353 C352 1.524 . S
C353 C354 1.415 . S
C354 H330 0.950 . S
C354 C349 1.363 . S
C354 C353 1.415 . S
C355 H331 0.951 . S
C355 C356 1.366 . S
C355 C357 1.388 . S
C356 C355 1.366 . S
C356 C360 1.385 . S
C357 H332 0.951 . S
C357 C355 1.388 . S
C357 C358 1.366 . S
C358 C357 1.366 . S
C358 C359 1.414 . S
C358 C361 1.499 . S
C359 H333 0.950 . S
C359 C358 1.414 . S
C359 C360 1.374 . S
C360 H334 0.950 . S
C360 C356 1.385 . S
C360 C359 1.374 . S
C361 C358 1.499 . S
C361 C362 1.373 . S
C361 C363 1.389 . S
C362 H335 0.950 . S
C362 C348 1.377 . S
C362 C361 1.373 . S
C363 C347 1.377 . S
C363 C361 1.389 . S
C363 C364 1.524 . S
C364 C363 1.524 . S
C364 C365 1.397 . S
C364 C369 1.363 . S
C365 H336 0.950 . S
C365 C364 1.397 . S
C365 C366 1.334 . S
C366 H337 0.950 . S
C366 C365 1.334 . S
C366 C367 1.287 . S
C367 C366 1.287 . S
C367 C368 1.524 . S
C367 H370 0.999 1_565 S
C368 H338 0.950 . S
C368 C367 1.524 . S
C368 C369 1.415 . S
C369 H339 0.950 . S
C369 C364 1.363 . S
C369 C368 1.415 . S
H370 C367 0.999 1_545 S
H371 C352 0.913 . S
H372 C390 0.951 . S
H373 C392 0.951 . S
H374 C394 0.950 . S
H375 C395 0.950 . S
H376 C397 0.950 . S
H377 C400 0.950 . S
H378 C401 0.950 . S
H379 C403 0.950 . S
H380 C404 0.950 . S
H381 C405 0.951 . S
H382 C407 0.951 . S
H383 C409 0.950 . S
H384 C410 0.950 . S
H385 C412 0.950 . S
H386 C415 0.950 . S
H387 C416 0.950 . S
H388 C418 0.950 . S
H389 C419 0.950 . S
C390 H372 0.951 . S
C390 C391 1.366 . S
C390 C392 1.388 . S
C391 C390 1.366 . S
C391 C395 1.385 . S
C392 H373 0.951 . S
C392 C390 1.388 . S
C392 C393 1.366 . S
C393 C392 1.366 . S
C393 C394 1.414 . S
C393 C396 1.499 . S
C394 H374 0.950 . S
C394 C393 1.414 . S
C394 C395 1.374 . S
C395 H375 0.950 . S
C395 C391 1.385 . S
C395 C394 1.374 . S
C396 C393 1.499 . S
C396 C397 1.373 . S
C396 C398 1.389 . S
C397 H376 0.950 . S
C397 C396 1.373 . S
C397 C413 1.377 . S
C398 C396 1.389 . S
C398 C399 1.524 . S
C398 C412 1.377 . S
C399 C398 1.524 . S
C399 C400 1.397 . S
C399 C404 1.363 . S
C400 H377 0.950 . S
C400 C399 1.397 . S
C400 C401 1.334 . S
C401 H378 0.950 . S
C401 C400 1.334 . S
C401 C402 1.287 . S
C402 C401 1.287 . S
C402 C403 1.524 . S
C402 H421 0.913 . S
C403 H379 0.950 . S
C403 C402 1.524 . S
C403 C404 1.415 . S
C404 H380 0.950 . S
C404 C399 1.363 . S
C404 C403 1.415 . S
C405 H381 0.951 . S
C405 C406 1.366 . S
C405 C407 1.388 . S
C406 C405 1.366 . S
C406 C410 1.385 . S
C407 H382 0.951 . S
C407 C405 1.388 . S
C407 C408 1.366 . S
C408 C407 1.366 . S
C408 C409 1.414 . S
C408 C411 1.499 . S
C409 H383 0.950 . S
C409 C408 1.414 . S
C409 C410 1.374 . S
C410 H384 0.950 . S
C410 C406 1.385 . S
C410 C409 1.374 . S
C411 C408 1.499 . S
C411 C412 1.373 . S
C411 C413 1.389 . S
C412 H385 0.950 . S
C412 C398 1.377 . S
C412 C411 1.373 . S
C413 C397 1.377 . S
C413 C411 1.389 . S
C413 C414 1.524 . S
C414 C413 1.524 . S
C414 C415 1.397 . S
C414 C419 1.363 . S
C415 H386 0.950 . S
C415 C414 1.397 . S
C415 C416 1.334 . S
C416 H387 0.950 . S
C416 C415 1.334 . S
C416 C417 1.287 . S
C417 C416 1.287 . S
C417 C418 1.524 . S
C417 H420 0.999 . S
C418 H388 0.950 . S
C418 C417 1.524 . S
C418 C419 1.415 . S
C419 H389 0.950 . S
C419 C414 1.363 . S
C419 C418 1.415 . S
H420 C417 0.999 . S
H421 C402 0.913 . S
H422 C440 0.951 . S
H423 C442 0.951 . S
H424 C444 0.950 . S
H425 C445 0.950 . S
H426 C447 0.950 . S
H427 C450 0.950 . S
H428 C451 0.950 . S
H429 C453 0.950 . S
H430 C454 0.950 . S
H431 C455 0.951 . S
H432 C457 0.951 . S
H433 C459 0.950 . S
H434 C460 0.950 . S
H435 C462 0.950 . S
H436 C465 0.950 . S
H437 C466 0.950 . S
H438 C468 0.950 . S
H439 C469 0.950 . S
C440 H422 0.951 . S
C440 C441 1.366 . S
C440 C442 1.388 . S
C441 C440 1.366 . S
C441 C445 1.385 . S
C442 H423 0.951 . S
C442 C440 1.388 . S
C442 C443 1.366 . S
C443 C442 1.366 . S
C443 C444 1.414 . S
C443 C446 1.499 . S
C444 H424 0.950 . S
C444 C443 1.414 . S
C444 C445 1.374 . S
C445 H425 0.950 . S
C445 C441 1.385 . S
C445 C444 1.374 . S
C446 C443 1.499 . S
C446 C447 1.373 . S
C446 C448 1.389 . S
C447 H426 0.950 . S
C447 C446 1.373 . S
C447 C463 1.377 . S
C448 C446 1.389 . S
C448 C449 1.524 . S
C448 C462 1.377 . S
C449 C448 1.524 . S
C449 C450 1.397 . S
C449 C454 1.363 . S
C450 H427 0.950 . S
C450 C449 1.397 . S
C450 C451 1.334 . S
C451 H428 0.950 . S
C451 C450 1.334 . S
C451 C452 1.287 . S
C452 C451 1.287 . S
C452 C453 1.524 . S
C452 H471 0.913 . S
C453 H429 0.950 . S
C453 C452 1.524 . S
C453 C454 1.415 . S
C454 H430 0.950 . S
C454 C449 1.363 . S
C454 C453 1.415 . S
C455 H431 0.951 . S
C455 C456 1.366 . S
C455 C457 1.388 . S
C456 C455 1.366 . S
C456 C460 1.385 . S
C457 H432 0.951 . S
C457 C455 1.388 . S
C457 C458 1.366 . S
C458 C457 1.366 . S
C458 C459 1.414 . S
C458 C461 1.499 . S
C459 H433 0.950 . S
C459 C458 1.414 . S
C459 C460 1.374 . S
C460 H434 0.950 . S
C460 C456 1.385 . S
C460 C459 1.374 . S
C461 C458 1.499 . S
C461 C462 1.373 . S
C461 C463 1.389 . S
C462 H435 0.950 . S
C462 C448 1.377 . S
C462 C461 1.373 . S
C463 C447 1.377 . S
C463 C461 1.389 . S
C463 C464 1.524 . S
C464 C463 1.524 . S
C464 C465 1.397 . S
C464 C469 1.363 . S
C465 H436 0.950 . S
C465 C464 1.397 . S
C465 C466 1.334 . S
C466 H437 0.950 . S
C466 C465 1.334 . S
C466 C467 1.287 . S
C467 C466 1.287 . S
C467 C468 1.524 . S
C467 H470 0.999 . S
C468 H438 0.950 . S
C468 C467 1.524 . S
C468 C469 1.415 . S
C469 H439 0.950 . S
C469 C464 1.363 . S
C469 C468 1.415 . S
H470 C467 0.999 . S
H471 C452 0.913 . S
H472 C490 0.951 . S
H473 C492 0.951 . S
H474 C494 0.950 . S
H475 C495 0.950 . S
H476 C497 0.950 . S
H477 C500 0.950 . S
H478 C501 0.950 1_554 S
H479 C503 0.950 . S
H480 C504 0.950 . S
H481 C505 0.951 . S
H482 C507 0.951 . S
H483 C509 0.950 . S
H484 C510 0.950 . S
H485 C512 0.950 . S
H486 C515 0.950 . S
H487 C516 0.950 . S
H488 C518 0.950 . S
H489 C519 0.950 . S
C490 H472 0.951 . S
C490 C491 1.366 . S
C490 C492 1.388 . S
C491 C490 1.366 . S
C491 C495 1.385 . S
C492 H473 0.951 . S
C492 C490 1.388 . S
C492 C493 1.366 . S
C493 C492 1.366 . S
C493 C494 1.414 . S
C493 C496 1.499 . S
C494 H474 0.950 . S
C494 C493 1.414 . S
C494 C495 1.374 . S
C495 H475 0.950 . S
C495 C491 1.385 . S
C495 C494 1.374 . S
C496 C493 1.499 . S
C496 C497 1.373 . S
C496 C498 1.389 . S
C497 H476 0.950 . S
C497 C496 1.373 . S
C497 C513 1.377 . S
C498 C496 1.389 . S
C498 C499 1.524 . S
C498 C512 1.377 . S
C499 C498 1.524 . S
C499 C500 1.397 . S
C499 C504 1.363 . S
C500 H477 0.950 . S
C500 C499 1.397 . S
C500 C501 1.334 . S
C501 H478 0.950 1_556 S
C501 C500 1.334 . S
C501 C502 1.287 . S
C502 C501 1.287 . S
C502 C503 1.524 . S
C502 H521 0.913 . S
C503 H479 0.950 . S
C503 C502 1.524 . S
C503 C504 1.415 . S
C504 H480 0.950 . S
C504 C499 1.363 . S
C504 C503 1.415 . S
C505 H481 0.951 . S
C505 C506 1.366 . S
C505 C507 1.388 . S
C506 C505 1.366 . S
C506 C510 1.385 . S
C507 H482 0.951 . S
C507 C505 1.388 . S
C507 C508 1.366 . S
C508 C507 1.366 . S
C508 C509 1.414 . S
C508 C511 1.499 . S
C509 H483 0.950 . S
C509 C508 1.414 . S
C509 C510 1.374 . S
C510 H484 0.950 . S
C510 C506 1.385 . S
C510 C509 1.374 . S
C511 C508 1.499 . S
C511 C512 1.373 . S
C511 C513 1.389 . S
C512 H485 0.950 . S
C512 C498 1.377 . S
C512 C511 1.373 . S
C513 C497 1.377 . S
C513 C511 1.389 . S
C513 C514 1.524 . S
C514 C513 1.524 . S
C514 C515 1.397 . S
C514 C519 1.363 . S
C515 H486 0.950 . S
C515 C514 1.397 . S
C515 C516 1.334 . S
C516 H487 0.950 . S
C516 C515 1.334 . S
C516 C517 1.287 . S
C517 C516 1.287 . S
C517 C518 1.524 . S
C517 H520 0.999 . S
C518 H488 0.950 . S
C518 C517 1.524 . S
C518 C519 1.415 . S
C519 H489 0.950 . S
C519 C514 1.363 . S
C519 C518 1.415 . S
H520 C517 0.999 . S
H521 C502 0.913 . S
H522 C540 0.951 . S
H523 C542 0.951 . S
H524 C544 0.950 . S
H525 C545 0.950 . S
H526 C547 0.950 . S
H527 C550 0.950 . S
H528 C551 0.950 1_655 S
H529 C553 0.950 . S
H530 C554 0.950 . S
H531 C555 0.951 . S
H532 C557 0.951 . S
H533 C559 0.950 . S
H534 C560 0.950 . S
H535 C562 0.950 . S
H536 C565 0.950 . S
H537 C566 0.950 . S
H538 C568 0.950 . S
H539 C569 0.950 . S
C540 H522 0.951 . S
C540 C541 1.366 . S
C540 C542 1.388 . S
C541 C540 1.366 . S
C541 C545 1.385 . S
C542 H523 0.951 . S
C542 C540 1.388 . S
C542 C543 1.366 . S
C543 C542 1.366 . S
C543 C544 1.414 . S
C543 C546 1.499 . S
C544 H524 0.950 . S
C544 C543 1.414 . S
C544 C545 1.374 . S
C545 H525 0.950 . S
C545 C541 1.385 . S
C545 C544 1.374 . S
C546 C543 1.499 . S
C546 C547 1.373 . S
C546 C548 1.389 . S
C547 H526 0.950 . S
C547 C546 1.373 . S
C547 C563 1.377 . S
C548 C546 1.389 . S
C548 C549 1.524 . S
C548 C562 1.377 . S
C549 C548 1.524 . S
C549 C550 1.397 . S
C549 C554 1.363 . S
C550 H527 0.950 . S
C550 C549 1.397 . S
C550 C551 1.334 . S
C551 H528 0.950 1_455 S
C551 C550 1.334 . S
C551 C552 1.287 1_455 S
C552 C551 1.287 1_655 S
C552 C553 1.524 . S
C552 H571 0.913 . S
C553 H529 0.950 . S
C553 C552 1.524 . S
C553 C554 1.415 1_655 S
C554 H530 0.950 . S
C554 C549 1.363 . S
C554 C553 1.415 1_455 S
C555 H531 0.951 . S
C555 C556 1.366 . S
C555 C557 1.388 . S
C556 C555 1.366 . S
C556 C560 1.385 . S
C557 H532 0.951 . S
C557 C555 1.388 . S
C557 C558 1.366 . S
C558 C557 1.366 . S
C558 C559 1.414 . S
C558 C561 1.499 . S
C559 H533 0.950 . S
C559 C558 1.414 . S
C559 C560 1.374 . S
C560 H534 0.950 . S
C560 C556 1.385 . S
C560 C559 1.374 . S
C561 C558 1.499 . S
C561 C562 1.373 . S
C561 C563 1.389 . S
C562 H535 0.950 . S
C562 C548 1.377 . S
C562 C561 1.373 . S
C563 C547 1.377 . S
C563 C561 1.389 . S
C563 C564 1.524 . S
C564 C563 1.524 . S
C564 C565 1.397 . S
C564 C569 1.363 . S
C565 H536 0.950 . S
C565 C564 1.397 . S
C565 C566 1.334 . S
C566 H537 0.950 . S
C566 C565 1.334 . S
C566 C567 1.287 . S
C567 C566 1.287 . S
C567 C568 1.524 . S
C567 H570 0.999 . S
C568 H538 0.950 . S
C568 C567 1.524 . S
C568 C569 1.415 . S
C569 H539 0.950 . S
C569 C564 1.363 . S
C569 C568 1.415 . S
H570 C567 0.999 . S
H571 C552 0.913 . S
H572 C590 0.951 . S
H573 C592 0.951 . S
H574 C594 0.950 . S
H575 C595 0.950 . S
H576 C597 0.950 . S
H577 C600 0.950 . S
H578 C601 0.950 . S
H579 C603 0.950 . S
H580 C604 0.950 . S
H581 C605 0.951 . S
H582 C607 0.951 . S
H583 C609 0.950 . S
H584 C610 0.950 . S
H585 C612 0.950 . S
H586 C615 0.950 . S
H587 C616 0.950 . S
H588 C618 0.950 . S
H589 C619 0.950 . S
C590 H572 0.951 . S
C590 C591 1.366 . S
C590 C592 1.388 . S
C591 C590 1.366 . S
C591 C595 1.385 . S
C592 H573 0.951 . S
C592 C590 1.388 . S
C592 C593 1.366 . S
C593 C592 1.366 . S
C593 C594 1.414 . S
C593 C596 1.499 . S
C594 H574 0.950 . S
C594 C593 1.414 . S
C594 C595 1.374 . S
C595 H575 0.950 . S
C595 C591 1.385 . S
C595 C594 1.374 . S
C596 C593 1.499 . S
C596 C597 1.373 . S
C596 C598 1.389 . S
C597 H576 0.950 . S
C597 C596 1.373 . S
C597 C613 1.377 . S
C598 C596 1.389 . S
C598 C599 1.524 . S
C598 C612 1.377 . S
C599 C598 1.524 . S
C599 C600 1.397 . S
C599 C604 1.363 . S
C600 H577 0.950 . S
C600 C599 1.397 . S
C600 C601 1.334 . S
C601 H578 0.950 . S
C601 C600 1.334 . S
C601 C602 1.287 . S
C602 C601 1.287 . S
C602 C603 1.524 . S
C602 H621 0.913 . S
C603 H579 0.950 . S
C603 C602 1.524 . S
C603 C604 1.415 . S
C604 H580 0.950 . S
C604 C599 1.363 . S
C604 C603 1.415 . S
C605 H581 0.951 . S
C605 C606 1.366 . S
C605 C607 1.388 . S
C606 C605 1.366 . S
C606 C610 1.385 . S
C607 H582 0.951 . S
C607 C605 1.388 . S
C607 C608 1.366 . S
C608 C607 1.366 . S
C608 C609 1.414 . S
C608 C611 1.499 . S
C609 H583 0.950 . S
C609 C608 1.414 . S
C609 C610 1.374 . S
C610 H584 0.950 . S
C610 C606 1.385 . S
C610 C609 1.374 . S
C611 C608 1.499 . S
C611 C612 1.373 . S
C611 C613 1.389 . S
C612 H585 0.950 . S
C612 C598 1.377 . S
C612 C611 1.373 . S
C613 C597 1.377 . S
C613 C611 1.389 . S
C613 C614 1.524 . S
C614 C613 1.524 . S
C614 C615 1.397 . S
C614 C619 1.363 . S
C615 H586 0.950 . S
C615 C614 1.397 . S
C615 C616 1.334 . S
C616 H587 0.950 . S
C616 C615 1.334 . S
C616 C617 1.287 . S
C617 C616 1.287 . S
C617 C618 1.524 . S
C617 H620 0.999 . S
C618 H588 0.950 . S
C618 C617 1.524 . S
C618 C619 1.415 . S
C619 H589 0.950 . S
C619 C614 1.363 . S
C619 C618 1.415 . S
H620 C617 0.999 . S
H621 C602 0.913 . S
H622 C640 0.951 . S
H623 C642 0.951 . S
H624 C644 0.950 . S
H625 C645 0.950 . S
H626 C647 0.950 . S
H627 C650 0.950 . S
H628 C651 0.950 . S
H629 C653 0.950 . S
H630 C654 0.950 . S
H631 C655 0.951 . S
H632 C657 0.951 . S
H633 C659 0.950 . S
H634 C660 0.950 . S
H635 C662 0.950 . S
H636 C665 0.950 . S
H637 C666 0.950 . S
H638 C668 0.950 . S
H639 C669 0.950 . S
C640 H622 0.951 . S
C640 C641 1.366 . S
C640 C642 1.388 . S
C641 C640 1.366 . S
C641 C645 1.385 . S
C642 H623 0.951 . S
C642 C640 1.388 . S
C642 C643 1.366 . S
C643 C642 1.366 . S
C643 C644 1.414 . S
C643 C646 1.499 . S
C644 H624 0.950 . S
C644 C643 1.414 . S
C644 C645 1.374 . S
C645 H625 0.950 . S
C645 C641 1.385 . S
C645 C644 1.374 . S
C646 C643 1.499 . S
C646 C647 1.373 . S
C646 C648 1.389 . S
C647 H626 0.950 . S
C647 C646 1.373 . S
C647 C663 1.377 . S
C648 C646 1.389 . S
C648 C649 1.524 . S
C648 C662 1.377 . S
C649 C648 1.524 . S
C649 C650 1.397 . S
C649 C654 1.363 . S
C650 H627 0.950 . S
C650 C649 1.397 . S
C650 C651 1.334 . S
C651 H628 0.950 . S
C651 C650 1.334 . S
C651 C652 1.287 . S
C652 C651 1.287 . S
C652 C653 1.524 . S
C652 H671 0.913 . S
C653 H629 0.950 . S
C653 C652 1.524 . S
C653 C654 1.415 . S
C654 H630 0.950 . S
C654 C649 1.363 . S
C654 C653 1.415 . S
C655 H631 0.951 . S
C655 C656 1.366 . S
C655 C657 1.388 . S
C656 C655 1.366 . S
C656 C660 1.385 . S
C657 H632 0.951 . S
C657 C655 1.388 . S
C657 C658 1.366 . S
C658 C657 1.366 . S
C658 C659 1.414 . S
C658 C661 1.499 . S
C659 H633 0.950 . S
C659 C658 1.414 . S
C659 C660 1.374 . S
C660 H634 0.950 . S
C660 C656 1.385 . S
C660 C659 1.374 . S
C661 C658 1.499 . S
C661 C662 1.373 . S
C661 C663 1.389 . S
C662 H635 0.950 . S
C662 C648 1.377 . S
C662 C661 1.373 . S
C663 C647 1.377 . S
C663 C661 1.389 . S
C663 C664 1.524 . S
C664 C663 1.524 . S
C664 C665 1.397 . S
C664 C669 1.363 . S
C665 H636 0.950 . S
C665 C664 1.397 . S
C665 C666 1.334 . S
C666 H637 0.950 . S
C666 C665 1.334 . S
C666 C667 1.287 . S
C667 C666 1.287 . S
C667 C668 1.524 . S
C667 H670 0.999 . S
C668 H638 0.950 . S
C668 C667 1.524 . S
C668 C669 1.415 . S
C669 H639 0.950 . S
C669 C664 1.363 . S
C669 C668 1.415 . S
H670 C667 0.999 . S
H671 C652 0.913 . S
H672 C690 0.951 . S
H673 C692 0.951 . S
H674 C694 0.950 . S
H675 C695 0.950 . S
H676 C697 0.950 . S
H677 C700 0.950 . S
H678 C701 0.950 . S
H679 C703 0.950 . S
H680 C704 0.950 . S
H681 C705 0.951 . S
H682 C707 0.951 . S
H683 C709 0.950 . S
H684 C710 0.950 . S
H685 C712 0.950 . S
H686 C715 0.950 . S
H687 C716 0.950 . S
H688 C718 0.950 1_455 S
H689 C719 0.950 . S
C690 H672 0.951 . S
C690 C691 1.366 . S
C690 C692 1.388 . S
C691 C690 1.366 . S
C691 C695 1.385 . S
C692 H673 0.951 . S
C692 C690 1.388 . S
C692 C693 1.366 . S
C693 C692 1.366 . S
C693 C694 1.414 . S
C693 C696 1.499 . S
C694 H674 0.950 . S
C694 C693 1.414 . S
C694 C695 1.374 . S
C695 H675 0.950 . S
C695 C691 1.385 . S
C695 C694 1.374 . S
C696 C693 1.499 . S
C696 C697 1.373 . S
C696 C698 1.389 . S
C697 H676 0.950 . S
C697 C696 1.373 . S
C697 C713 1.377 . S
C698 C696 1.389 . S
C698 C699 1.524 . S
C698 C712 1.377 . S
C699 C698 1.524 . S
C699 C700 1.397 . S
C699 C704 1.363 . S
C700 H677 0.950 . S
C700 C699 1.397 . S
C700 C701 1.334 . S
C701 H678 0.950 . S
C701 C700 1.334 . S
C701 C702 1.287 . S
C702 C701 1.287 . S
C702 C703 1.524 . S
C702 H721 0.913 . S
C703 H679 0.950 . S
C703 C702 1.524 . S
C703 C704 1.415 . S
C704 H680 0.950 . S
C704 C699 1.363 . S
C704 C703 1.415 . S
C705 H681 0.951 . S
C705 C706 1.366 . S
C705 C707 1.388 . S
C706 C705 1.366 . S
C706 C710 1.385 . S
C707 H682 0.951 . S
C707 C705 1.388 . S
C707 C708 1.366 . S
C708 C707 1.366 . S
C708 C709 1.414 . S
C708 C711 1.499 . S
C709 H683 0.950 . S
C709 C708 1.414 . S
C709 C710 1.374 . S
C710 H684 0.950 . S
C710 C706 1.385 . S
C710 C709 1.374 . S
C711 C708 1.499 . S
C711 C712 1.373 . S
C711 C713 1.389 . S
C712 H685 0.950 . S
C712 C698 1.377 . S
C712 C711 1.373 . S
C713 C697 1.377 . S
C713 C711 1.389 . S
C713 C714 1.524 . S
C714 C713 1.524 . S
C714 C715 1.397 . S
C714 C719 1.363 . S
C715 H686 0.950 . S
C715 C714 1.397 . S
C715 C716 1.334 . S
C716 H687 0.950 . S
C716 C715 1.334 . S
C716 C717 1.287 . S
C717 C716 1.287 . S
C717 C718 1.524 . S
C717 H720 0.999 1_655 S
C718 H688 0.950 1_655 S
C718 C717 1.524 . S
C718 C719 1.415 . S
C719 H689 0.950 . S
C719 C714 1.363 . S
C719 C718 1.415 . S
H720 C717 0.999 1_455 S
H721 C702 0.913 . S
C141 C26 1.323 . S
C156 C99 1.256 . S
C191 C43 1.194 . S
C206 C105 1.088 . S
C241 C22 1.299 . S
C256 C96 1.199 . S
C291 C49 1.365 . S
C306 C121 1.292 . S
C341 C15 1.882 . S
C356 C87 1.733 . S
C406 C104 1.845 . S
C391 C42 1.968 . S
C441 C66 1.324 . S
C456 C100 1.258 . S
C506 C117 1.844 . S
C491 C2 1.967 . S
C556 C84 1.734 . S
C541 C55 1.882 . S
C606 C120 1.291 . S
C591 C9 1.365 . S
C656 C83 1.198 . S
C641 C62 1.299 . S
C706 C108 1.087 . S
C691 C3 1.194 . S
