# Generated by pormake.
# Topology gar, (4,6)-cn, num edge types: 1
# Building blocks:
#     Node 0, Type 0, BuildingBlock: TATPOV_clean_sbu_0, # of connection points: 4
#     Node 1, Type 0, BuildingBlock: TATPOV_clean_sbu_0, # of connection points: 4
#     Node 2, Type 0, BuildingBlock: TATPOV_clean_sbu_0, # of connection points: 4
#     Node 3, Type 0, BuildingBlock: TATPOV_clean_sbu_0, # of connection points: 4
#     Node 4, Type 0, BuildingBlock: TATPOV_clean_sbu_0, # of connection points: 4
#     Node 5, Type 0, BuildingBlock: TATPOV_clean_sbu_0, # of connection points: 4
#     Node 6, Type 0, BuildingBlock: TATPOV_clean_sbu_0, # of connection points: 4
#     Node 7, Type 0, BuildingBlock: TATPOV_clean_sbu_0, # of connection points: 4
#     Node 8, Type 0, BuildingBlock: TATPOV_clean_sbu_0, # of connection points: 4
#     Node 9, Type 0, BuildingBlock: TATPOV_clean_sbu_0, # of connection points: 4
#     Node 10, Type 0, BuildingBlock: TATPOV_clean_sbu_0, # of connection points: 4
#     Node 11, Type 0, BuildingBlock: TATPOV_clean_sbu_0, # of connection points: 4
#     Node 12, Type 0, BuildingBlock: TATPOV_clean_sbu_0, # of connection points: 4
#     Node 13, Type 0, BuildingBlock: TATPOV_clean_sbu_0, # of connection points: 4
#     Node 14, Type 0, BuildingBlock: TATPOV_clean_sbu_0, # of connection points: 4
#     Node 15, Type 0, BuildingBlock: TATPOV_clean_sbu_0, # of connection points: 4
#     Node 16, Type 0, BuildingBlock: TATPOV_clean_sbu_0, # of connection points: 4
#     Node 17, Type 0, BuildingBlock: TATPOV_clean_sbu_0, # of connection points: 4
#     Node 18, Type 0, BuildingBlock: TATPOV_clean_sbu_0, # of connection points: 4
#     Node 19, Type 0, BuildingBlock: TATPOV_clean_sbu_0, # of connection points: 4
#     Node 20, Type 0, BuildingBlock: TATPOV_clean_sbu_0, # of connection points: 4
#     Node 21, Type 0, BuildingBlock: TATPOV_clean_sbu_0, # of connection points: 4
#     Node 22, Type 0, BuildingBlock: TATPOV_clean_sbu_0, # of connection points: 4
#     Node 23, Type 0, BuildingBlock: TATPOV_clean_sbu_0, # of connection points: 4
#     Node 24, Type 1, BuildingBlock: NUHQIS_clean_sbu_0, # of connection points: 6
#     Node 25, Type 1, BuildingBlock: NUHQIS_clean_sbu_0, # of connection points: 6
#     Node 26, Type 1, BuildingBlock: NUHQIS_clean_sbu_0, # of connection points: 6
#     Node 27, Type 1, BuildingBlock: NUHQIS_clean_sbu_0, # of connection points: 6
#     Node 28, Type 1, BuildingBlock: NUHQIS_clean_sbu_0, # of connection points: 6
#     Node 29, Type 1, BuildingBlock: NUHQIS_clean_sbu_0, # of connection points: 6
#     Node 30, Type 1, BuildingBlock: NUHQIS_clean_sbu_0, # of connection points: 6
#     Node 31, Type 1, BuildingBlock: NUHQIS_clean_sbu_0, # of connection points: 6
#     Node 32, Type 1, BuildingBlock: NUHQIS_clean_sbu_0, # of connection points: 6
#     Node 33, Type 1, BuildingBlock: NUHQIS_clean_sbu_0, # of connection points: 6
#     Node 34, Type 1, BuildingBlock: NUHQIS_clean_sbu_0, # of connection points: 6
#     Node 35, Type 1, BuildingBlock: NUHQIS_clean_sbu_0, # of connection points: 6
#     Node 36, Type 1, BuildingBlock: NUHQIS_clean_sbu_0, # of connection points: 6
#     Node 37, Type 1, BuildingBlock: NUHQIS_clean_sbu_0, # of connection points: 6
#     Node 38, Type 1, BuildingBlock: NUHQIS_clean_sbu_0, # of connection points: 6
#     Node 39, Type 1, BuildingBlock: NUHQIS_clean_sbu_0, # of connection points: 6
#     Edge 40, Type (0, 1), BuildingBlock: OJICUG_clean_linker_0, # of connection points: 2
#     Edge 41, Type (0, 1), BuildingBlock: OJICUG_clean_linker_0, # of connection points: 2
#     Edge 42, Type (0, 1), BuildingBlock: OJICUG_clean_linker_0, # of connection points: 2
#     Edge 43, Type (0, 1), BuildingBlock: OJICUG_clean_linker_0, # of connection points: 2
#     Edge 44, Type (0, 1), BuildingBlock: OJICUG_clean_linker_0, # of connection points: 2
#     Edge 45, Type (0, 1), BuildingBlock: OJICUG_clean_linker_0, # of connection points: 2
#     Edge 46, Type (0, 1), BuildingBlock: OJICUG_clean_linker_0, # of connection points: 2
#     Edge 47, Type (0, 1), BuildingBlock: OJICUG_clean_linker_0, # of connection points: 2
#     Edge 48, Type (0, 1), BuildingBlock: OJICUG_clean_linker_0, # of connection points: 2
#     Edge 49, Type (0, 1), BuildingBlock: OJICUG_clean_linker_0, # of connection points: 2
#     Edge 50, Type (0, 1), BuildingBlock: OJICUG_clean_linker_0, # of connection points: 2
#     Edge 51, Type (0, 1), BuildingBlock: OJICUG_clean_linker_0, # of connection points: 2
#     Edge 52, Type (0, 1), BuildingBlock: OJICUG_clean_linker_0, # of connection points: 2
#     Edge 53, Type (0, 1), BuildingBlock: OJICUG_clean_linker_0, # of connection points: 2
#     Edge 54, Type (0, 1), BuildingBlock: OJICUG_clean_linker_0, # of connection points: 2
#     Edge 55, Type (0, 1), BuildingBlock: OJICUG_clean_linker_0, # of connection points: 2
#     Edge 56, Type (0, 1), BuildingBlock: OJICUG_clean_linker_0, # of connection points: 2
#     Edge 57, Type (0, 1), BuildingBlock: OJICUG_clean_linker_0, # of connection points: 2
#     Edge 58, Type (0, 1), BuildingBlock: OJICUG_clean_linker_0, # of connection points: 2
#     Edge 59, Type (0, 1), BuildingBlock: OJICUG_clean_linker_0, # of connection points: 2
#     Edge 60, Type (0, 1), BuildingBlock: OJICUG_clean_linker_0, # of connection points: 2
#     Edge 61, Type (0, 1), BuildingBlock: OJICUG_clean_linker_0, # of connection points: 2
#     Edge 62, Type (0, 1), BuildingBlock: OJICUG_clean_linker_0, # of connection points: 2
#     Edge 63, Type (0, 1), BuildingBlock: OJICUG_clean_linker_0, # of connection points: 2
#     Edge 64, Type (0, 1), BuildingBlock: OJICUG_clean_linker_0, # of connection points: 2
#     Edge 65, Type (0, 1), BuildingBlock: OJICUG_clean_linker_0, # of connection points: 2
#     Edge 66, Type (0, 1), BuildingBlock: OJICUG_clean_linker_0, # of connection points: 2
#     Edge 67, Type (0, 1), BuildingBlock: OJICUG_clean_linker_0, # of connection points: 2
#     Edge 68, Type (0, 1), BuildingBlock: OJICUG_clean_linker_0, # of connection points: 2
#     Edge 69, Type (0, 1), BuildingBlock: OJICUG_clean_linker_0, # of connection points: 2
#     Edge 70, Type (0, 1), BuildingBlock: OJICUG_clean_linker_0, # of connection points: 2
#     Edge 71, Type (0, 1), BuildingBlock: OJICUG_clean_linker_0, # of connection points: 2
#     Edge 72, Type (0, 1), BuildingBlock: OJICUG_clean_linker_0, # of connection points: 2
#     Edge 73, Type (0, 1), BuildingBlock: OJICUG_clean_linker_0, # of connection points: 2
#     Edge 74, Type (0, 1), BuildingBlock: OJICUG_clean_linker_0, # of connection points: 2
#     Edge 75, Type (0, 1), BuildingBlock: OJICUG_clean_linker_0, # of connection points: 2
#     Edge 76, Type (0, 1), BuildingBlock: OJICUG_clean_linker_0, # of connection points: 2
#     Edge 77, Type (0, 1), BuildingBlock: OJICUG_clean_linker_0, # of connection points: 2
#     Edge 78, Type (0, 1), BuildingBlock: OJICUG_clean_linker_0, # of connection points: 2
#     Edge 79, Type (0, 1), BuildingBlock: OJICUG_clean_linker_0, # of connection points: 2
#     Edge 80, Type (0, 1), BuildingBlock: OJICUG_clean_linker_0, # of connection points: 2
#     Edge 81, Type (0, 1), BuildingBlock: OJICUG_clean_linker_0, # of connection points: 2
#     Edge 82, Type (0, 1), BuildingBlock: OJICUG_clean_linker_0, # of connection points: 2
#     Edge 83, Type (0, 1), BuildingBlock: OJICUG_clean_linker_0, # of connection points: 2
#     Edge 84, Type (0, 1), BuildingBlock: OJICUG_clean_linker_0, # of connection points: 2
#     Edge 85, Type (0, 1), BuildingBlock: OJICUG_clean_linker_0, # of connection points: 2
#     Edge 86, Type (0, 1), BuildingBlock: OJICUG_clean_linker_0, # of connection points: 2
#     Edge 87, Type (0, 1), BuildingBlock: OJICUG_clean_linker_0, # of connection points: 2
#     Edge 88, Type (0, 1), BuildingBlock: OJICUG_clean_linker_0, # of connection points: 2
#     Edge 89, Type (0, 1), BuildingBlock: OJICUG_clean_linker_0, # of connection points: 2
#     Edge 90, Type (0, 1), BuildingBlock: OJICUG_clean_linker_0, # of connection points: 2
#     Edge 91, Type (0, 1), BuildingBlock: OJICUG_clean_linker_0, # of connection points: 2
#     Edge 92, Type (0, 1), BuildingBlock: OJICUG_clean_linker_0, # of connection points: 2
#     Edge 93, Type (0, 1), BuildingBlock: OJICUG_clean_linker_0, # of connection points: 2
#     Edge 94, Type (0, 1), BuildingBlock: OJICUG_clean_linker_0, # of connection points: 2
#     Edge 95, Type (0, 1), BuildingBlock: OJICUG_clean_linker_0, # of connection points: 2
#     Edge 96, Type (0, 1), BuildingBlock: OJICUG_clean_linker_0, # of connection points: 2
#     Edge 97, Type (0, 1), BuildingBlock: OJICUG_clean_linker_0, # of connection points: 2
#     Edge 98, Type (0, 1), BuildingBlock: OJICUG_clean_linker_0, # of connection points: 2
#     Edge 99, Type (0, 1), BuildingBlock: OJICUG_clean_linker_0, # of connection points: 2
#     Edge 100, Type (0, 1), BuildingBlock: OJICUG_clean_linker_0, # of connection points: 2
#     Edge 101, Type (0, 1), BuildingBlock: OJICUG_clean_linker_0, # of connection points: 2
#     Edge 102, Type (0, 1), BuildingBlock: OJICUG_clean_linker_0, # of connection points: 2
#     Edge 103, Type (0, 1), BuildingBlock: OJICUG_clean_linker_0, # of connection points: 2
#     Edge 104, Type (0, 1), BuildingBlock: OJICUG_clean_linker_0, # of connection points: 2
#     Edge 105, Type (0, 1), BuildingBlock: OJICUG_clean_linker_0, # of connection points: 2
#     Edge 106, Type (0, 1), BuildingBlock: OJICUG_clean_linker_0, # of connection points: 2
#     Edge 107, Type (0, 1), BuildingBlock: OJICUG_clean_linker_0, # of connection points: 2
#     Edge 108, Type (0, 1), BuildingBlock: OJICUG_clean_linker_0, # of connection points: 2
#     Edge 109, Type (0, 1), BuildingBlock: OJICUG_clean_linker_0, # of connection points: 2
#     Edge 110, Type (0, 1), BuildingBlock: OJICUG_clean_linker_0, # of connection points: 2
#     Edge 111, Type (0, 1), BuildingBlock: OJICUG_clean_linker_0, # of connection points: 2
#     Edge 112, Type (0, 1), BuildingBlock: OJICUG_clean_linker_0, # of connection points: 2
#     Edge 113, Type (0, 1), BuildingBlock: OJICUG_clean_linker_0, # of connection points: 2
#     Edge 114, Type (0, 1), BuildingBlock: OJICUG_clean_linker_0, # of connection points: 2
#     Edge 115, Type (0, 1), BuildingBlock: OJICUG_clean_linker_0, # of connection points: 2
#     Edge 116, Type (0, 1), BuildingBlock: OJICUG_clean_linker_0, # of connection points: 2
#     Edge 117, Type (0, 1), BuildingBlock: OJICUG_clean_linker_0, # of connection points: 2
#     Edge 118, Type (0, 1), BuildingBlock: OJICUG_clean_linker_0, # of connection points: 2
#     Edge 119, Type (0, 1), BuildingBlock: OJICUG_clean_linker_0, # of connection points: 2
#     Edge 120, Type (0, 1), BuildingBlock: OJICUG_clean_linker_0, # of connection points: 2
#     Edge 121, Type (0, 1), BuildingBlock: OJICUG_clean_linker_0, # of connection points: 2
#     Edge 122, Type (0, 1), BuildingBlock: OJICUG_clean_linker_0, # of connection points: 2
#     Edge 123, Type (0, 1), BuildingBlock: OJICUG_clean_linker_0, # of connection points: 2
#     Edge 124, Type (0, 1), BuildingBlock: OJICUG_clean_linker_0, # of connection points: 2
#     Edge 125, Type (0, 1), BuildingBlock: OJICUG_clean_linker_0, # of connection points: 2
#     Edge 126, Type (0, 1), BuildingBlock: OJICUG_clean_linker_0, # of connection points: 2
#     Edge 127, Type (0, 1), BuildingBlock: OJICUG_clean_linker_0, # of connection points: 2
#     Edge 128, Type (0, 1), BuildingBlock: OJICUG_clean_linker_0, # of connection points: 2
#     Edge 129, Type (0, 1), BuildingBlock: OJICUG_clean_linker_0, # of connection points: 2
#     Edge 130, Type (0, 1), BuildingBlock: OJICUG_clean_linker_0, # of connection points: 2
#     Edge 131, Type (0, 1), BuildingBlock: OJICUG_clean_linker_0, # of connection points: 2
#     Edge 132, Type (0, 1), BuildingBlock: OJICUG_clean_linker_0, # of connection points: 2
#     Edge 133, Type (0, 1), BuildingBlock: OJICUG_clean_linker_0, # of connection points: 2
#     Edge 134, Type (0, 1), BuildingBlock: OJICUG_clean_linker_0, # of connection points: 2
#     Edge 135, Type (0, 1), BuildingBlock: OJICUG_clean_linker_0, # of connection points: 2
# Relax obj value: 0.314
# Max RMSD: 0.385
# Mean RMSD: 0.171
data_MOF--net-gar--node1-TATPOV_clean_sbu_0--node2-NUHQIS_clean_sbu_0--edge1-OJICUG_clean_linker_0
_symmetry_space_group_name_H-M    P1
_symmetry_Int_Tables_number       1
_symmetry_cell_setting            triclinic
loop_
_symmetry_equiv_pos_as_xyz
'x, y, z'
_cell_length_a     42.359323
_cell_length_b     44.543311
_cell_length_c     42.25068
_cell_angle_alpha  94.091497
_cell_angle_beta   97.710624
_cell_angle_gamma 101.34602
loop_
_atom_site_label
_atom_site_type_symbol
_atom_site_fract_x
_atom_site_fract_y
_atom_site_fract_z
_atom_type_partial_charge
Zn0 Zn 0.07004 0.32265 0.46185 0.0
Zn1 Zn 0.10994 0.32446 0.41906 0.0
O2 O 0.11522 0.37369 0.44291 0.0
O3 O 0.08522 0.36841 0.48158 0.0
O4 O 0.15035 0.32367 0.38839 0.0
O5 O 0.07895 0.28404 0.48388 0.0
O6 O 0.10842 0.27981 0.44561 0.0
C7 C 0.10328 0.38634 0.46614 0.0
C8 C 1.03455 0.31687 0.39556 0.0
O9 O 0.0634 0.31992 0.38771 0.0
O10 O 1.03124 0.31584 0.42492 0.0
C11 C 0.17513 0.34479 0.38447 0.0
O12 O 0.17806 0.37211 0.39989 0.0
C13 C 0.09555 0.26805 0.46963 0.0
Zn14 Zn 0.07938 0.78849 0.69264 0.0
Zn15 Zn 0.08526 0.83422 0.65781 0.0
O16 O 1.04158 0.83354 0.68615 0.0
O17 O 1.03904 0.79222 0.71186 0.0
O18 O 0.0899 0.88147 0.63487 0.0
O19 O 0.12352 0.80178 0.71987 0.0
O20 O 0.13366 0.83919 0.68914 0.0
C21 C 1.02729 0.81545 0.70538 0.0
C22 C 0.08046 0.75998 0.63017 0.0
O23 O 0.08243 0.78878 0.62396 0.0
O24 O 0.0777 0.75395 0.6586 0.0
C25 C 0.08263 0.89107 0.60669 0.0
O26 O 0.06952 0.8697 0.58297 0.0
C27 C 0.14375 0.82383 0.71201 0.0
Zn28 Zn 0.56729 0.811 0.96202 0.0
Zn29 Zn 0.60855 0.81396 0.92037 0.0
O30 O 0.61446 0.86283 0.946 0.0
O31 O 0.58261 0.85643 0.98304 0.0
O32 O 0.64988 0.81372 0.8905 0.0
O33 O 0.5759 0.77185 0.98335 0.0
O34 O 0.60644 0.76855 0.94585 0.0
C35 C 0.60187 0.87486 0.96915 0.0
C36 C 0.53289 0.8066 0.89532 0.0
O37 O 0.5621 0.81016 0.88817 0.0
O38 O 0.52899 0.80475 0.92446 0.0
C39 C 0.67518 0.83488 0.88796 0.0
O40 O 0.67802 0.8617 0.90438 0.0
C41 C 0.59295 0.75622 0.96928 0.0
Zn42 Zn 0.57955 0.28432 0.19915 0.0
Zn43 Zn 0.58424 0.32568 0.15878 0.0
O44 O 0.53969 0.32612 0.18518 0.0
O45 O 0.53807 0.2889 0.21665 0.0
O46 O 0.58541 0.37072 0.1329 0.0
O47 O 0.62422 0.30105 0.22545 0.0
O48 O 0.63285 0.33436 0.19004 0.0
C49 C 0.52536 0.31034 0.20604 0.0
C50 C 0.58018 0.25026 0.13805 0.0
O51 O 0.58177 0.27797 0.12853 0.0
O52 O 0.57802 0.24768 0.16738 0.0
C53 C 0.60412 0.38693 0.11522 0.0
O54 O 0.62858 0.37556 0.10709 0.0
C55 C 0.64377 0.32203 0.215 0.0
Zn56 Zn 0.24653 0.92463 0.14315 0.0
Zn57 Zn 0.19372 0.91412 0.17676 0.0
O58 O 0.18481 0.94588 0.14856 0.0
O59 O 0.22201 0.95255 0.11663 0.0
O60 O 0.1541 0.90592 0.19779 0.0
O61 O 0.23657 0.878 0.1299 0.0
O62 O 0.19291 0.87325 0.15385 0.0
C63 C 0.19621 0.95843 0.12539 0.0
C64 C 0.26123 0.93596 0.21383 0.0
O65 O 0.23077 0.92659 0.21263 0.0
O66 O 0.27345 0.93894 0.18805 0.0
C67 C 0.14682 0.92656 0.21604 0.0
O68 O 0.16645 0.95375 0.22214 0.0
C69 C 0.21108 0.86154 0.13721 0.0
Zn70 Zn 0.44908 0.71331 0.44754 0.0
Zn71 Zn 0.4981 0.72363 0.40903 0.0
O72 O 0.49951 0.76506 0.43085 0.0
O73 O 0.45891 0.76004 0.45908 0.0
O74 O 0.53366 0.73039 0.3828 0.0
O75 O 0.47933 0.68925 0.47422 0.0
O76 O 0.51248 0.69525 0.43826 0.0
C77 C 0.48272 0.77673 0.44913 0.0
C78 C 0.42887 0.7005 0.37707 0.0
O79 O 0.45912 0.70898 0.37671 0.0
O80 O 0.41824 0.69832 0.40379 0.0
C81 C 0.54156 0.75505 0.36988 0.0
O82 O 0.52544 0.77714 0.37331 0.0
C83 C 0.50488 0.68466 0.46379 0.0
Zn84 Zn 0.75575 0.43102 0.66015 0.0
Zn85 Zn 0.70096 0.41963 0.68984 0.0
O86 O 0.69143 0.45059 0.66038 0.0
O87 O 0.7333 0.46011 0.63426 0.0
O88 O 0.66227 0.41364 0.71236 0.0
O89 O 0.744 0.38521 0.64395 0.0
O90 O 0.69867 0.37903 0.66537 0.0
C91 C 0.70521 0.46372 0.63875 0.0
C92 C 0.76932 0.43774 0.72923 0.0
O93 O 0.73851 0.42949 0.72593 0.0
O94 O 0.78317 0.44272 0.70472 0.0
C95 C 0.65105 0.38849 0.72312 0.0
O96 O 0.66552 0.36517 0.71981 0.0
C97 C 0.71761 0.36834 0.64882 0.0
Zn98 Zn 0.97843 0.23001 0.95999 0.0
Zn99 Zn 1.02719 0.23061 0.92404 0.0
O100 O 1.03214 0.27587 0.93611 0.0
O101 O 0.99102 0.27704 0.96273 0.0
O102 O 0.06275 0.23007 0.89752 0.0
O103 O 1.00189 0.20649 0.99207 0.0
O104 O 1.04032 0.20751 0.9617 0.0
C105 C 1.0149 0.29096 0.95056 0.0
C106 C 0.95465 0.20926 0.89421 0.0
O107 O 0.98501 0.21595 0.89282 0.0
O108 O 0.94488 0.20995 0.9213 0.0
C109 C 0.0591 0.21865 0.86853 0.0
O110 O 1.03006 0.20447 0.85403 0.0
C111 C 1.02889 0.20032 0.98709 0.0
Zn112 Zn 0.62565 0.14906 0.37055 0.0
Zn113 Zn 0.5433 0.16867 0.34419 0.0
O114 O 0.55699 0.19216 0.38865 0.0
O115 O 0.60376 0.18652 0.37783 0.0
O116 O 0.49711 0.16897 0.32748 0.0
O117 O 0.61002 0.18266 0.34484 0.0
O118 O 0.56937 0.18595 0.31021 0.0
C119 C 0.58555 0.18908 0.39903 0.0
C120 C 0.56113 0.10127 0.35416 0.0
O121 O 0.54517 0.12235 0.34758 0.0
O122 O 0.59192 0.10754 0.36355 0.0
C123 C 0.47265 0.15081 0.33477 0.0
O124 O 0.47691 0.13182 0.35659 0.0
C125 C 0.59674 0.17857 0.31558 0.0
Zn126 Zn 0.32213 0.23678 0.52285 0.0
Zn127 Zn 0.36768 0.20551 0.53216 0.0
O128 O 0.36986 0.22897 0.48487 0.0
O129 O 0.33341 0.25801 0.48355 0.0
O130 O 0.41203 0.18308 0.53845 0.0
O131 O 0.33179 0.25992 0.56733 0.0
O132 O 0.37083 0.23484 0.57915 0.0
C133 C 0.35529 0.24861 0.47038 0.0
C134 C 0.29109 0.17349 0.52453 0.0
O135 O 0.32128 0.17097 0.53067 0.0
O136 O 0.28498 0.19926 0.518 0.0
C137 C 0.41496 0.15479 0.53229 0.0
O138 O 0.38818 0.1346 0.52052 0.0
C139 C 0.35349 0.25397 0.58823 0.0
Zn140 Zn 0.22145 0.18193 0.909 0.0
Zn141 Zn 0.24036 0.13142 0.88208 0.0
O142 O 0.23921 0.12212 0.92782 0.0
O143 O 0.22495 0.16261 0.95029 0.0
O144 O 0.25689 0.09664 0.8625 0.0
O145 O 0.18019 0.16951 0.8756 0.0
O146 O 0.19539 0.12766 0.85755 0.0
C147 C 0.23274 0.13671 0.95221 0.0
C148 C 0.27887 0.19739 0.88131 0.0
O149 O 0.27275 0.16859 0.87318 0.0
O150 O 0.2611 0.20923 0.89816 0.0
C151 C 0.28669 0.09594 0.87061 0.0
O152 O 0.305 0.11758 0.89177 0.0
C153 C 0.17455 0.14469 0.85716 0.0
Zn154 Zn 0.39547 0.87366 0.05147 0.0
Zn155 Zn 0.35681 0.91257 0.05836 0.0
O156 O 0.3414 0.89234 1.01067 0.0
O157 O 0.36792 0.85451 1.00931 0.0
O158 O 0.32664 0.94141 0.06776 0.0
O159 O 0.38977 0.85653 0.09393 0.0
O160 O 0.35372 0.88555 0.09684 0.0
C161 C 0.34794 0.86895 0.99549 0.0
C162 C 0.42821 0.93759 0.05564 0.0
O163 O 0.40086 0.94258 0.06138 0.0
O164 O 0.43185 0.9103 0.04962 0.0
C165 C 0.33086 0.95411 0.09645 0.0
O166 O 0.35395 0.94799 0.11747 0.0
C167 C 0.36886 0.86583 0.10868 0.0
Zn168 Zn 0.35677 0.41251 0.03802 0.0
Zn169 Zn 0.31995 0.45336 0.04006 0.0
O170 O 0.31374 0.42967 0.98922 0.0
O171 O 0.3395 0.39136 0.99265 0.0
O172 O 0.28029 0.48092 0.04259 0.0
O173 O 0.34719 0.39194 0.07902 0.0
O174 O 0.31836 0.42727 0.08504 0.0
C175 C 0.32287 0.40645 0.97528 0.0
C176 C 0.39579 0.4766 0.0419 0.0
O177 O 0.36821 0.48443 0.04402 0.0
O178 O 0.39656 0.44816 0.03958 0.0
C179 C 0.25304 0.47902 0.0235 0.0
O180 O 0.2472 0.45905 0.99791 0.0
C181 C 0.33006 0.40451 0.09616 0.0
Zn182 Zn 0.78742 0.27061 0.04308 0.0
Zn183 Zn 0.831 0.23531 0.04142 0.0
O184 O 0.83547 0.26062 1.0025 0.0
O185 O 0.79563 0.28573 0.99973 0.0
O186 O 0.86543 0.21048 0.03784 0.0
O187 O 0.81177 0.29224 0.08622 0.0
O188 O 0.84122 0.25662 0.08817 0.0
C189 C 0.81909 0.27794 0.98785 0.0
C190 C 0.76062 0.20475 0.03894 0.0
O191 O 0.78933 0.20227 0.03528 0.0
O192 O 0.75398 0.23103 0.04418 0.0
C193 C 0.86595 0.19715 1.01031 0.0
O194 O 0.84409 0.19993 0.98612 0.0
C195 C 0.83218 0.27933 0.10179 0.0
Zn196 Zn 0.04658 0.51736 0.22162 0.0
Zn197 Zn 0.12764 0.48929 0.2496 0.0
O198 O 0.09955 0.46916 0.28243 0.0
O199 O 0.06924 0.48984 0.24998 0.0
O200 O 0.17434 0.48867 0.26476 0.0
O201 O 0.07416 0.485 0.21613 0.0
O202 O 0.11441 0.46698 0.20351 0.0
C203 C 0.0723 0.47655 0.27546 0.0
C204 C 0.11198 0.56003 0.24131 0.0
O205 O 0.12453 0.53637 0.24681 0.0
O206 O 0.08159 0.5575 0.23067 0.0
C207 C 0.18715 0.49697 0.29382 0.0
O208 O 0.1693 0.50585 0.31436 0.0
C209 C 0.0874 0.47402 0.19407 0.0
Zn210 Zn 0.86686 0.91834 0.55617 0.0
Zn211 Zn 0.82182 0.95079 0.55123 0.0
O212 O 0.81569 0.92379 0.50272 0.0
O213 O 0.85557 0.89874 0.51009 0.0
O214 O 0.78053 0.97709 0.55097 0.0
O215 O 0.85574 0.89484 0.59433 0.0
O216 O 0.82072 0.92502 0.59699 0.0
C217 C 0.83283 0.90565 0.49118 0.0
C218 C 0.89915 0.98129 0.55703 0.0
O219 O 0.86907 0.9844 0.55226 0.0
O220 O 0.9049 0.95513 0.56237 0.0
C221 C 0.75223 0.97217 0.53285 0.0
O222 O 0.74573 0.9489 0.51042 0.0
C223 C 0.83497 0.90415 0.60934 0.0
Zn224 Zn 0.91243 0.95703 0.19033 0.0
Zn225 Zn 0.89282 1.00651 0.20085 0.0
O226 O 0.91522 1.0007 0.24513 0.0
O227 O 0.91732 0.95178 0.23791 0.0
O228 O 0.87562 0.04438 0.20915 0.0
O229 O 0.95123 0.97965 0.17453 0.0
O230 O 0.92525 1.0177 0.16952 0.0
C231 C 0.92097 0.97625 0.25647 0.0
C232 C 0.84757 0.94661 0.17155 0.0
O233 O 0.85258 0.97235 0.18842 0.0
O234 O 0.87115 0.93946 0.15949 0.0
C235 C 0.85385 0.04364 0.22719 0.0
O236 O 0.8425 1.01774 0.23875 0.0
C237 C 0.94922 1.00548 0.16492 0.0
Zn238 Zn 0.29618 0.77479 0.53822 0.0
Zn239 Zn 0.33367 0.73253 0.53665 0.0
O240 O 0.34326 0.75923 0.49914 0.0
O241 O 0.315 0.7956 0.50178 0.0
O242 O 0.36342 0.70211 0.5336 0.0
O243 O 0.31654 0.78917 0.58455 0.0
O244 O 0.34527 0.75296 0.58415 0.0
C245 C 0.33461 0.78289 0.48828 0.0
C246 C 0.25987 0.71086 0.5241 0.0
O247 O 0.28819 0.70475 0.52746 0.0
O248 O 0.25671 0.73863 0.52741 0.0
C249 C 0.36632 0.68924 0.50652 0.0
O250 O 0.3499 0.69601 0.4803 0.0
C251 C 0.3366 0.77525 0.59909 0.0
Zn252 Zn 0.45491 0.47285 0.66823 0.0
Zn253 Zn 0.431 0.52195 0.68311 0.0
O254 O 0.4526 0.51475 0.72659 0.0
O255 O 0.46819 0.47121 0.71592 0.0
O256 O 0.40932 0.55673 0.69297 0.0
O257 O 0.48743 0.49856 0.64572 0.0
O258 O 0.46512 0.53838 0.65514 0.0
C259 C 0.46534 0.49273 0.73595 0.0
C260 C 0.38711 0.45925 0.65566 0.0
O261 O 0.39234 0.48672 0.66866 0.0
O262 O 0.41072 0.44872 0.64718 0.0
C263 C 0.38962 0.55254 0.71321 0.0
O264 O 0.385 0.52637 0.72616 0.0
C265 C 0.48691 0.52669 0.64388 0.0
Zn266 Zn 0.55361 0.99246 0.71778 0.0
Zn267 Zn 0.63276 0.97025 0.74907 0.0
O268 O 0.6023 0.95261 0.77989 0.0
O269 O 0.56545 0.95569 0.74096 0.0
O270 O 0.67813 0.9689 0.76824 0.0
O271 O 0.57462 0.95447 0.70946 0.0
O272 O 0.62317 0.95102 0.70254 0.0
C273 C 0.57385 0.95671 0.7711 0.0
C274 C 0.61864 0.03864 0.74103 0.0
O275 O 0.63309 1.01661 0.74752 0.0
O276 O 0.58831 0.03365 0.72953 0.0
C277 C 0.68769 0.97808 0.7978 0.0
O278 O 0.66716 0.98691 0.81534 0.0
C279 C 0.59512 0.95392 0.69017 0.0
Zn280 Zn 0.8233 0.73639 0.03735 0.0
Zn281 Zn 0.86786 0.7036 0.04251 0.0
O282 O 0.86997 0.72827 0.99643 0.0
O283 O 0.83412 0.75772 0.99735 0.0
O284 O 0.91114 0.68105 0.04713 0.0
O285 O 0.83447 0.75811 0.08262 0.0
O286 O 0.87183 0.73043 0.09085 0.0
C287 C 0.85547 0.74848 0.9831 0.0
C288 C 0.79234 0.67211 0.03769 0.0
O289 O 0.82224 0.66874 0.04031 0.0
O290 O 0.78644 0.69862 0.03443 0.0
C291 C 0.91431 0.6545 0.03481 0.0
O292 O 0.88859 0.63712 1.01683 0.0
C293 C 0.85576 0.74971 0.10207 0.0
Zn294 Zn 0.13447 0.62511 0.85935 0.0
Zn295 Zn 0.08224 0.64396 0.8324 0.0
O296 O 0.09081 0.66481 0.87858 0.0
O297 O 0.13841 0.65521 0.89726 0.0
O298 O 1.04221 0.65854 0.81143 0.0
O299 O 0.1599 0.639 0.82535 0.0
O300 O 0.11865 0.6588 0.80548 0.0
C301 C 0.11501 0.66823 0.90098 0.0
C302 C 0.07902 0.57546 0.84358 0.0
O303 O 0.06664 0.59674 0.83149 0.0
O304 O 0.10809 0.58158 0.85798 0.0
C305 C 1.01755 0.6404 0.79482 0.0
O306 O 1.01793 0.61106 0.78974 0.0
C307 C 0.14775 0.65497 0.80539 0.0
Zn308 Zn 0.91201 0.38661 0.56364 0.0
Zn309 Zn 0.87141 0.42548 0.5678 0.0
O310 O 0.85754 0.40578 0.51959 0.0
O311 O 0.89046 0.37327 0.51727 0.0
O312 O 0.84249 0.45613 0.57566 0.0
O313 O 0.8961 0.36355 0.60024 0.0
O314 O 0.8658 0.39785 0.60606 0.0
C315 C 0.86824 0.38539 0.5036 0.0
C316 C 0.94529 0.45057 0.57557 0.0
O317 O 0.91611 0.45442 0.57336 0.0
O318 O 0.95073 0.42355 0.57322 0.0
C319 C 0.84285 0.47977 0.56032 0.0
O320 O 0.86034 0.48324 0.53688 0.0
C321 C 0.87655 0.37458 0.61553 0.0
Zn322 Zn 0.7698 0.66552 0.40075 0.0
Zn323 Zn 0.80431 0.62888 0.39027 0.0
O324 O 0.77438 0.60654 0.41973 0.0
O325 O 0.73616 0.6335 0.41448 0.0
O326 O 0.83674 0.6022 0.38726 0.0
O327 O 0.76419 0.67239 0.35415 0.0
O328 O 0.78034 0.6291 0.34449 0.0
C329 C 0.74592 0.60997 0.42327 0.0
C330 C 0.83009 0.69541 0.42126 0.0
O331 O 0.83272 0.67147 0.40442 0.0
O332 O 0.80357 0.6955 0.43186 0.0
C333 C 0.86583 0.61131 0.38215 0.0
O334 O 0.87596 0.63998 0.37658 0.0
C335 C 0.7676 0.651 0.33435 0.0
Tb336 Tb 0.07745 0.06743 0.03273 0.0
Eu337 Eu 0.13294 0.09393 0.11101 0.0
C338 C 0.15634 0.09114 0.0399 0.0
C339 C 0.11447 0.03037 0.06107 0.0
C340 C 1.00771 0.08653 0.98572 0.0
C341 C 0.97766 0.12425 0.9659 0.0
C342 C 1.00151 0.10694 0.96302 0.0
C343 C 0.98922 0.08312 1.01092 0.0
C344 C 0.96538 0.1003 1.01377 0.0
C345 C 0.95974 0.12151 0.99167 0.0
C346 C 1.03662 0.07284 0.98603 0.0
O347 O 0.05039 0.05459 0.07274 0.0
O348 O 0.08231 0.07749 0.12269 0.0
O349 O 0.12153 0.13853 0.09548 0.0
O350 O 0.07887 0.10468 0.0691 0.0
C351 C 0.05527 0.06124 0.10463 0.0
O352 O 0.14938 0.06743 0.14893 0.0
O353 O 0.17687 0.11354 0.14529 0.0
O354 O 0.16309 0.0941 0.07147 0.0
O355 O 0.12691 0.08386 0.02245 0.0
O356 O 0.09633 0.02454 0.03325 0.0
O357 O 0.11201 0.05664 0.07412 0.0
C358 C 0.09713 0.13219 0.07167 0.0
O359 O 0.06414 0.09264 0.99505 0.0
O360 O 1.03588 0.04714 0.99958 0.0
C361 C 0.20595 0.07324 0.1529 0.0
C362 C 0.2509 0.03746 0.13686 0.0
C363 C 0.23496 0.03214 0.16376 0.0
C364 C 0.2126 0.04978 0.17159 0.0
C365 C 0.22306 0.07956 0.12701 0.0
C366 C 0.24524 0.06189 0.11909 0.0
C367 C 0.17733 0.08687 0.15658 0.0
H368 H 0.97422 0.1407 0.94873 0.0
H369 H 1.01605 0.11044 0.94384 0.0
H370 H 0.99394 0.06793 0.02907 0.0
H371 H 0.9517 0.09731 0.03362 0.0
H372 H 0.23841 1.01329 0.17777 0.0
H373 H 0.19924 0.04404 0.19124 0.0
H374 H 0.21835 0.09734 0.11196 0.0
H375 H 0.25748 0.06698 0.09859 0.0
Tb376 Tb 0.38921 0.844 0.30942 0.0
Eu377 Eu 0.31171 0.80597 0.28925 0.0
C378 C 0.33191 0.87926 0.30039 0.0
C379 C 0.34866 0.8152 0.36061 0.0
C380 C 0.46212 0.90923 0.32957 0.0
C381 C 0.45991 0.9634 0.33879 0.0
C382 C 0.44434 0.9322 0.33462 0.0
C383 C 0.49555 0.91798 0.32839 0.0
C384 C 0.5111 0.94911 0.33241 0.0
C385 C 0.49359 0.97234 0.33787 0.0
C386 C 0.44649 0.87615 0.32612 0.0
O387 O 0.39105 0.79576 0.31259 0.0
O388 O 0.34181 0.77041 0.28281 0.0
O389 O 0.32648 0.83042 0.2471 0.0
O390 O 0.38103 0.83091 0.25746 0.0
C391 C 0.37096 0.77059 0.2981 0.0
O392 O 0.27278 0.78046 0.25269 0.0
O393 O 0.26264 0.79009 0.30097 0.0
O394 O 0.31186 0.85496 0.30744 0.0
O395 O 0.3616 0.8781 0.29559 0.0
O396 O 0.36603 0.84073 0.35287 0.0
O397 O 0.3298 0.79495 0.3386 0.0
C398 C 0.35502 0.83319 0.23759 0.0
O399 O 0.42633 0.86744 0.34596 0.0
O400 O 0.43504 0.86339 0.29714 0.0
C401 C 0.2327 0.74361 0.27081 0.0
C402 C 0.19425 0.6831 0.26284 0.0
C403 C 0.2277 0.68823 0.26041 0.0
C404 C 0.24674 0.71817 0.26441 0.0
C405 C 0.1996 0.73858 0.27392 0.0
C406 C 0.1806 0.7087 0.27008 0.0
C407 C 0.25159 0.77547 0.27249 0.0
H408 H 0.44561 0.98046 0.34329 0.0
H409 H 0.41848 0.92601 0.33562 0.0
H410 H 0.50972 0.90066 0.32441 0.0
H411 H 0.53687 0.95494 0.3309 0.0
H412 H 0.23904 0.66919 0.25458 0.0
H413 H 0.27228 0.72147 0.2619 0.0
H414 H 0.1883 0.75787 0.2789 0.0
H415 H 0.15514 0.70569 0.27276 0.0
Tb416 Tb 0.56765 0.04613 0.51912 0.0
Eu417 Eu 0.61364 0.09865 0.57077 0.0
C418 C 0.58155 0.0334 0.59101 0.0
C419 C 0.53681 0.10173 0.54744 0.0
C420 C 0.52577 0.97295 0.47217 0.0
C421 C 0.49036 0.92441 0.45027 0.0
C422 C 0.49727 0.95648 0.45294 0.0
C423 C 0.5477 0.95731 0.48821 0.0
C424 C 0.5409 0.92528 0.48544 0.0
C425 C 0.51197 0.90861 0.46679 0.0
C426 C 0.53052 1.00619 0.47847 0.0
O427 O 0.57346 0.08783 0.49568 0.0
O428 O 0.62187 0.11512 0.52312 0.0
O429 O 0.64511 0.06241 0.56507 0.0
O430 O 0.61729 0.0354 0.51812 0.0
C431 C 0.5986 0.11064 0.49863 0.0
O432 O 0.66196 0.12552 0.58977 0.0
O433 O 0.62106 0.13028 0.61416 0.0
O434 O 0.58966 0.06302 0.59941 0.0
O435 O 0.57558 1.0218 0.56099 0.0
O436 O 0.53291 0.07197 0.53809 0.0
O437 O 0.5667 0.11794 0.55782 0.0
C438 C 0.64352 0.04159 0.5407 0.0
O439 O 0.5231 1.01519 0.50604 0.0
O440 O 0.55814 1.02236 0.47297 0.0
C441 C 0.66236 0.17392 0.61452 0.0
C442 C 0.68346 0.23779 0.61784 0.0
C443 C 0.70001 0.22059 0.63836 0.0
C444 C 0.6894 0.18876 0.63677 0.0
C445 C 0.6463 0.19086 0.59341 0.0
C446 C 0.6567 0.22268 0.59518 0.0
C447 C 0.65177 0.14063 0.61252 0.0
H448 H 0.46816 0.91196 0.43537 0.0
H449 H 0.48005 0.96843 0.44068 0.0
H450 H 0.56958 0.96988 0.50356 0.0
H451 H 0.55782 0.91355 0.4985 0.0
H452 H 0.72049 0.23185 0.65624 0.0
H453 H 0.70213 0.17579 0.65299 0.0
H454 H 0.62564 0.17949 0.57576 0.0
H455 H 0.64372 0.23552 0.57903 0.0
Tb456 Tb 0.30053 0.32797 0.76886 0.0
Eu457 Eu 0.37775 0.34897 0.79111 0.0
C458 C 0.3395 0.3818 0.73823 0.0
C459 C 0.34824 0.30859 0.72109 0.0
C460 C 0.21367 0.29298 0.76848 0.0
C461 C 0.15642 0.27866 0.773 0.0
C462 C 0.18129 0.2945 0.7582 0.0
C463 C 0.22106 0.27497 0.79324 0.0
C464 C 0.19621 0.25899 0.80796 0.0
C465 C 0.16367 0.26104 0.79829 0.0
C466 C 0.23959 0.31072 0.75369 0.0
O467 O 0.31716 0.28774 0.78472 0.0
O468 O 0.35957 0.31283 0.82193 0.0
O469 O 0.3544 0.3765 0.82648 0.0
O470 O 0.30616 0.34206 0.82165 0.0
C471 C 0.33786 0.28812 0.8107 0.0
O472 O 0.42382 0.33774 0.80954 0.0
O473 O 0.4214 0.38545 0.80361 0.0
O474 O 0.36647 0.37265 0.74743 0.0
O475 O 0.31317 0.37279 0.751 0.0
O476 O 0.32019 0.31637 0.72462 0.0
O477 O 0.3727 0.31475 0.74546 0.0
C478 C 0.32779 0.36523 0.83851 0.0
O479 O 0.25385 0.33746 0.76885 0.0
O480 O 0.26053 0.29552 0.74436 0.0
C481 C 0.47059 0.37009 0.79733 0.0
C482 C 0.53048 0.37632 0.77447 0.0
C483 C 0.50362 0.35371 0.75955 0.0
C484 C 0.4738 0.35071 0.7708 0.0
C485 C 0.4972 0.39292 0.81201 0.0
C486 C 0.52698 0.39606 0.80062 0.0
C487 C 0.44011 0.36604 0.81073 0.0
H488 H 0.13167 0.28107 0.76536 0.0
H489 H 0.1753 0.30838 0.73912 0.0
H490 H 0.24606 0.27355 0.8014 0.0
H491 H 0.20248 0.2453 0.82711 0.0
H492 H 0.50564 0.33854 0.73905 0.0
H493 H 0.45338 0.33309 0.75899 0.0
H494 H 0.49505 0.40804 0.83252 0.0
H495 H 0.54744 0.41352 0.81261 0.0
Tb496 Tb 0.08889 0.06675 0.50694 0.0
Eu497 Eu 0.09929 0.09753 0.57812 0.0
C498 C 0.16183 0.10204 0.53844 0.0
C499 C 0.09581 1.02223 0.56652 0.0
C500 C 0.05031 1.02111 0.42885 0.0
C501 C 1.0314 0.99173 0.377 0.0
C502 C 0.05687 1.00581 0.40117 0.0
C503 C 1.01784 1.01996 0.43339 0.0
C504 C 0.99236 1.00619 0.40906 0.0
C505 C 0.99904 0.99309 0.38012 0.0
C506 C 0.07713 0.04231 0.44972 0.0
O507 O 1.03794 0.0606 0.51787 0.0
O508 O 0.04845 0.0673 0.57247 0.0
O509 O 0.08935 0.13712 0.54747 0.0
O510 O 0.09737 0.11706 0.49895 0.0
C511 C 1.0278 0.05744 0.546 0.0
O512 O 0.08039 0.12431 0.6138 0.0
O513 O 0.12815 0.11306 0.62488 0.0
O514 O 0.15025 0.1105 0.56432 0.0
O515 O 0.14263 0.08319 0.51491 0.0
O516 O 0.08943 0.02551 0.53527 0.0
O517 O 0.1028 0.04723 0.58739 0.0
C518 C 0.0939 0.14114 0.51749 0.0
O519 O 0.07064 0.06862 0.45899 0.0
O520 O 0.09335 0.03124 0.47292 0.0
C521 C 0.09918 0.11957 0.66833 0.0
C522 C 0.09937 0.1189 0.73488 0.0
C523 C 0.08292 0.13857 0.71762 0.0
C524 C 0.0831 0.13907 0.68464 0.0
C525 C 0.11246 0.09761 0.68478 0.0
C526 C 0.11267 0.09735 0.71776 0.0
C527 C 0.10551 0.12523 0.63569 0.0
H528 H 1.03729 0.98196 0.35486 0.0
H529 H 0.08177 1.00656 0.39728 0.0
H530 H 1.0123 0.03154 0.45474 0.0
H531 H 0.96761 1.00723 0.41215 0.0
H532 H 0.07179 0.15497 0.72991 0.0
H533 H 0.07237 0.15598 0.67225 0.0
H534 H 0.12466 0.08199 0.67268 0.0
H535 H 0.12579 0.08195 0.73005 0.0
Tb536 Tb 0.32928 0.78769 0.80053 0.0
Eu537 Eu 0.35768 0.85988 0.79327 0.0
C538 C 0.33141 0.83799 0.85825 0.0
C539 C 0.28037 0.8297 0.77316 0.0
C540 C 0.3158 0.70416 0.78772 0.0
C541 C 0.30502 0.64942 0.77124 0.0
C542 C 0.29562 0.67491 0.78551 0.0
C543 C 0.34516 0.70787 0.77517 0.0
C544 C 0.35462 0.68252 0.76109 0.0
C545 C 0.33474 0.65298 0.75902 0.0
C546 C 0.30614 0.73115 0.80208 0.0
O547 O 0.33938 0.78729 0.75121 0.0
O548 O 0.36952 0.83587 0.74913 0.0
O549 O 0.40254 0.84298 0.81545 0.0
O550 O 0.38254 0.79079 0.81288 0.0
C551 C 0.35659 0.80779 0.73601 0.0
O552 O 0.36143 0.89999 0.76618 0.0
O553 O 0.3874 0.90421 0.81446 0.0
O554 O 0.33437 0.85974 0.8387 0.0
O555 O 0.33258 0.80962 0.84872 0.0
O556 O 0.28556 0.80816 0.79205 0.0
O557 O 0.30523 0.85013 0.76702 0.0
C558 C 0.40696 0.81502 0.82012 0.0
O559 O 0.3276 0.74792 0.82466 0.0
O560 O 0.29432 0.74799 0.78155 0.0
C561 C 0.36457 0.94543 0.79896 0.0
C562 C 0.33935 0.99617 0.81901 0.0
C563 C 0.3709 1.0005 0.81069 0.0
C564 C 0.38343 0.97523 0.80072 0.0
C565 C 0.33303 0.941 0.80694 0.0
C566 C 0.32049 0.96616 0.81684 0.0
C567 C 0.37814 0.91876 0.79039 0.0
H568 H 0.28903 0.627 0.76965 0.0
H569 H 0.27267 0.67183 0.79478 0.0
H570 H 0.36088 0.73042 0.77644 0.0
H571 H 0.37787 0.68602 0.75241 0.0
H572 H 0.38586 0.02338 0.81191 0.0
H573 H 0.4079 0.97891 0.79474 0.0
H574 H 0.31832 0.91801 0.80601 0.0
H575 H 0.29634 0.96205 0.82359 0.0
Tb576 Tb 0.6057 0.05919 0.07539 0.0
Eu577 Eu 0.58376 0.07618 1.00478 0.0
C578 C 0.60361 1.00848 1.01265 0.0
C579 C 0.65631 0.10046 0.03824 0.0
C580 C 0.61793 0.05725 0.1617 0.0
C581 C 0.63686 0.07183 0.2185 0.0
C582 C 0.63983 0.0563 0.18942 0.0
C583 C 0.5929 0.07343 0.16324 0.0
C584 C 0.58987 0.08874 0.19203 0.0
C585 C 0.61185 0.08825 0.21991 0.0
C586 C 0.62242 0.04391 0.13049 0.0
O587 O 0.59385 0.10478 0.0887 0.0
O588 O 0.58387 0.12042 0.03844 0.0
O589 O 0.54583 0.03772 1.01652 0.0
O590 O 0.55298 0.05229 0.06966 0.0
C591 C 0.58768 0.12651 0.07016 0.0
O592 O 0.58935 0.09007 0.95727 0.0
O593 O 0.54268 0.08707 0.97409 0.0
O594 O 0.59428 0.02769 0.99236 0.0
O595 O 0.60975 1.01745 0.04402 0.0
O596 O 0.64684 0.09288 0.0654 0.0
O597 O 0.63787 0.09124 1.01059 0.0
C598 C 0.53523 0.03635 0.04406 0.0
O599 O 0.59567 0.03058 0.11168 0.0
O600 O 0.64188 0.06204 0.1154 0.0
C601 C 0.54301 0.07373 0.9192 0.0
C602 C 0.5328 0.0378 0.8604 0.0
C603 C 0.52583 0.02395 0.88817 0.0
C604 C 0.53117 0.04186 0.91758 0.0
C605 C 0.54603 0.08794 0.89096 0.0
C606 C 0.54091 0.07002 0.8616 0.0
C607 C 0.55865 0.09096 0.94981 0.0
H608 H 0.65416 0.0713 0.23968 0.0
H609 H 0.65954 0.04418 0.18839 0.0
H610 H 0.57611 0.0749 0.14195 0.0
H611 H 0.57092 0.10191 0.19214 0.0
H612 H 0.51992 0.99911 0.8878 0.0
H613 H 0.52897 0.03056 0.9393 0.0
H614 H 0.55526 0.11253 0.89194 0.0
H615 H 0.54648 0.08105 0.84038 0.0
Tb616 Tb 0.35941 0.35989 0.3003 0.0
Eu617 Eu 0.32645 0.29234 0.26681 0.0
C618 C 0.35827 0.2998 0.3426 0.0
C619 C 0.40417 0.32153 0.26276 0.0
C620 C 0.36279 0.43719 0.3357 0.0
C621 C 0.31314 0.44769 0.35281 0.0
C622 C 0.33731 0.43036 0.35394 0.0
C623 C 0.36563 0.46371 0.31932 0.0
C624 C 0.34129 0.48089 0.31798 0.0
C625 C 0.31389 0.47193 0.33322 0.0
C626 C 0.3815 0.41372 0.32772 0.0
O627 O 0.34096 0.37077 0.25116 0.0
O628 O 0.31983 0.32264 0.22524 0.0
O629 O 0.2869 0.30566 0.29469 0.0
O630 O 0.30816 0.35681 0.30914 0.0
C631 C 0.32828 0.35277 0.2243 0.0
O632 O 0.32434 0.25374 0.23119 0.0
O633 O 0.2866 0.25176 0.26075 0.0
O634 O 0.34822 0.28092 0.31609 0.0
O635 O 0.36327 0.33005 0.34091 0.0
O636 O 0.4013 0.3472 0.27906 0.0
O637 O 0.37979 0.29725 0.25837 0.0
C638 C 0.28454 0.33234 0.309 0.0
O639 O 0.37769 0.38925 0.34298 0.0
O640 O 0.37993 0.40637 0.29719 0.0
C641 C 0.30859 0.20745 0.25272 0.0
C642 C 0.34822 0.16779 0.27594 0.0
C643 C 0.33856 0.16753 0.24272 0.0
C644 C 0.31886 0.18731 0.23117 0.0
C645 C 0.31435 0.20442 0.28578 0.0
C646 C 0.33395 0.18463 0.2973 0.0
C647 C 0.30061 0.23607 0.24178 0.0
H648 H 0.29236 0.44022 0.36484 0.0
H649 H 0.3344 0.41012 0.3669 0.0
H650 H 0.38512 0.46955 0.30522 0.0
H651 H 0.34274 0.49983 0.30315 0.0
H652 H 0.34882 0.15433 0.22573 0.0
H653 H 0.31464 0.18922 0.2056 0.0
H654 H 0.30671 0.21963 0.30303 0.0
H655 H 0.34089 0.18532 0.32301 0.0
Tb656 Tb 0.59673 0.55589 1.01049 0.0
Eu657 Eu 0.59705 0.58733 0.07975 0.0
C658 C 0.6654 0.59361 0.04769 0.0
C659 C 0.60094 0.51368 0.06931 0.0
C660 C 0.56962 0.5206 0.92575 0.0
C661 C 0.5372 0.53704 0.8812 0.0
C662 C 0.55772 0.54399 0.91055 0.0
C663 C 0.55986 0.49009 0.91182 0.0
C664 C 0.53907 0.48306 0.88259 0.0
C665 C 0.52797 0.50656 0.86672 0.0
C666 C 0.59273 0.52746 0.95567 0.0
O667 O 0.54459 0.54384 1.01727 0.0
O668 O 0.54236 0.57138 0.06457 0.0
O669 O 0.59211 0.6276 0.04885 0.0
O670 O 0.59204 0.60399 0.99886 0.0
C671 C 0.52783 0.55169 0.03975 0.0
O672 O 0.60039 0.5818 0.13064 0.0
O673 O 0.59925 0.62664 0.11495 0.0
O674 O 0.65085 0.59896 0.07264 0.0
O675 O 0.64906 0.576 0.02211 0.0
O676 O 0.61167 0.52101 0.04218 0.0
O677 O 0.59041 0.53496 0.08591 0.0
C678 C 0.59209 0.62943 1.01764 0.0
O679 O 0.60764 0.55596 0.96353 0.0
O680 O 0.58295 0.51453 0.9802 0.0
C681 C 0.63329 0.62374 0.16315 0.0
C682 C 0.68648 0.64033 0.21287 0.0
C683 C 0.65682 0.64921 0.21597 0.0
C684 C 0.63035 0.64083 0.19128 0.0
C685 C 0.66338 0.61637 0.15924 0.0
C686 C 0.68975 0.62448 0.18398 0.0
C687 C 0.60439 0.61104 0.13934 0.0
H688 H 0.52951 0.55574 0.86937 0.0
H689 H 0.56476 0.56772 0.92095 0.0
H690 H 0.56866 0.47173 0.92338 0.0
H691 H 0.53201 0.45932 0.87225 0.0
H692 H 0.65354 0.66119 0.23813 0.0
H693 H 0.60727 0.64661 0.19468 0.0
H694 H 0.66608 0.60318 0.13759 0.0
H695 H 0.7124 0.61762 0.1809 0.0
Tb696 Tb 0.83104 0.29802 0.30733 0.0
Eu697 Eu 0.85852 0.36898 0.29524 0.0
C698 C 0.84208 0.35151 0.36533 0.0
C699 C 0.78191 0.33727 0.27675 0.0
C700 C 0.81029 0.21295 0.30004 0.0
C701 C 0.81375 0.15979 0.30505 0.0
C702 C 0.8091 0.1879 0.31837 0.0
C703 C 0.81562 0.20951 0.26803 0.0
C704 C 0.82004 0.1814 0.25463 0.0
C705 C 0.81958 0.15632 0.27311 0.0
C706 C 0.8073 0.24281 0.31488 0.0
O707 O 0.83722 0.29352 0.25663 0.0
O708 O 0.86283 0.3426 0.24955 0.0
O709 O 0.90192 0.35367 0.32276 0.0
O710 O 0.88437 0.30125 0.31381 0.0
C711 C 0.85092 0.31377 0.23872 0.0
O712 O 0.85235 0.41586 0.29062 0.0
O713 O 0.89794 0.40338 0.28279 0.0
O714 O 0.84524 0.37304 0.3455 0.0
O715 O 0.83891 0.32226 0.35535 0.0
O716 O 0.7881 0.31948 0.29949 0.0
O717 O 0.80648 0.35572 0.26741 0.0
C718 C 0.90777 0.32574 0.32405 0.0
O719 O 0.83362 0.25909 0.33218 0.0
O720 O 0.7926 0.2595 0.29627 0.0
C721 C 0.89976 0.45419 0.30364 0.0
C722 C 0.91779 0.51112 0.34092 0.0
C723 C 0.91191 0.50973 0.30721 0.0
C724 C 0.90286 0.48139 0.28873 0.0
C725 C 0.90941 0.45533 0.33684 0.0
C726 C 0.91868 0.48374 0.35541 0.0
C727 C 0.88207 0.42553 0.28506 0.0
H728 H 0.81374 0.14109 0.32008 0.0
H729 H 0.80521 0.19027 0.34318 0.0
H730 H 0.81671 0.22864 0.25347 0.0
H731 H 0.82402 0.17937 0.22984 0.0
H732 H 0.91087 0.53026 0.29519 0.0
H733 H 0.89572 0.48075 0.26303 0.0
H734 H 0.90742 0.43435 0.34861 0.0
H735 H 0.9237 0.48417 0.38128 0.0
Tb736 Tb 0.12369 0.57889 0.55875 0.0
Eu737 Eu 0.0709 0.58392 0.49855 0.0
C738 C 0.10334 0.52009 0.50562 0.0
C739 C 0.14415 0.61366 0.50407 0.0
C740 C 0.17627 0.60722 0.63257 0.0
C741 C 0.21198 0.64103 0.67591 0.0
C742 C 0.20771 0.6199 0.64872 0.0
C743 C 0.14946 0.61698 0.64262 0.0
C744 C 0.15362 0.63796 0.66938 0.0
C745 C 0.1848 0.64973 0.68692 0.0
C746 C 0.17083 0.58602 0.60348 0.0
O747 O 0.10953 0.62399 0.57156 0.0
O748 O 0.06985 0.62819 0.53039 0.0
O749 O 1.04133 0.55697 0.53083 0.0
O750 O 0.0793 0.5558 0.57511 0.0
C751 C 0.0886 0.6398 0.55796 0.0
O752 O 0.06217 0.58989 0.44776 0.0
O753 O 1.02166 0.58333 0.47481 0.0
O754 O 0.08781 0.53733 0.48694 0.0
O755 O 0.11731 0.53157 0.53511 0.0
O756 O 0.14572 0.58771 0.51597 0.0
O757 O 0.11565 0.62066 0.49915 0.0
C758 C 0.04942 0.54859 0.55937 0.0
O759 O 0.14533 0.5636 0.60059 0.0
O760 O 0.17211 0.59972 0.5774 0.0
C761 C 1.01324 0.55984 0.42173 0.0
C762 C 1.00403 0.51359 0.37085 0.0
C763 C 1.0055 0.50588 0.40263 0.0
C764 C 1.01045 0.52897 0.428 0.0
C765 C 1.00674 0.56692 0.39014 0.0
C766 C 1.00207 0.54393 0.36479 0.0
C767 C 1.03055 0.58439 0.44642 0.0
H768 H 0.23629 0.64971 0.68892 0.0
H769 H 0.22874 0.61317 0.6406 0.0
H770 H 0.125 0.60786 0.63013 0.0
H771 H 0.13193 0.64334 0.67734 0.0
H772 H 1.00632 0.48261 0.40802 0.0
H773 H 1.01534 0.52309 0.45237 0.0
H774 H 1.00872 0.59064 0.38495 0.0
H775 H 1.00086 0.55081 0.34067 0.0
Tb776 Tb 0.80734 0.81212 0.29123 0.0
Eu777 Eu 0.88531 0.83993 0.30451 0.0
C778 C 0.83427 0.86718 0.25822 0.0
C779 C 0.85542 0.79554 0.23878 0.0
C780 C 0.71851 0.78127 0.28995 0.0
C781 C 0.68597 0.79504 0.32938 0.0
C782 C 0.71544 0.79947 0.31738 0.0
C783 C 0.69233 0.75809 0.27517 0.0
C784 C 0.66297 0.75341 0.28736 0.0
C785 C 0.65946 0.77215 0.31429 0.0
C786 C 0.74799 0.78748 0.27516 0.0
O787 O 0.82516 0.79075 0.33263 0.0
O788 O 0.87984 0.79739 0.32989 0.0
O789 O 0.86408 0.85999 0.34697 0.0
O790 O 0.80917 0.83839 0.33831 0.0
C791 C 0.85429 0.78611 0.34274 0.0
O792 O 0.93623 0.83746 0.31629 0.0
O793 O 0.92277 0.88203 0.3141 0.0
O794 O 0.86274 0.85955 0.26148 0.0
O795 O 0.81337 0.85807 0.27716 0.0
O796 O 0.82654 0.79485 0.24806 0.0
O797 O 0.88236 0.80982 0.25765 0.0
C798 C 0.83503 0.85605 0.35647 0.0
O799 O 0.76022 0.81645 0.27357 0.0
O800 O 0.77032 0.77208 0.28398 0.0
C801 C 0.97453 0.87774 0.30207 0.0
C802 C 1.02935 0.89715 0.27236 0.0
C803 C 1.03233 0.89856 0.30596 0.0
C804 C 1.00512 0.88865 0.32068 0.0
C805 C 0.97126 0.87648 0.26853 0.0
C806 C 0.99857 0.88609 0.25373 0.0
C807 C 0.94654 0.86722 0.31813 0.0
H808 H 0.68391 0.80942 0.35048 0.0
H809 H 0.73557 0.81744 0.3291 0.0
H810 H 0.69439 0.74405 0.25382 0.0
H811 H 0.6428 0.73567 0.27532 0.0
H812 H 0.05584 0.90658 0.32082 0.0
H813 H 1.00794 0.88955 0.34663 0.0
H814 H 0.94769 0.86796 0.2539 0.0
H815 H 0.99568 0.88489 0.22777 0.0
Tb816 Tb 0.88869 0.32954 0.81139 0.0
Eu817 Eu 0.81455 0.28766 0.78203 0.0
C818 C 0.82848 0.36189 0.79938 0.0
C819 C 0.84032 0.30108 0.8581 0.0
C820 C 0.96468 0.39064 0.83393 0.0
C821 C 0.96732 0.44529 0.83033 0.0
C822 C 0.94907 0.4152 0.82838 0.0
C823 C 0.99869 0.3965 0.84132 0.0
C824 C 1.01698 0.42651 0.84303 0.0
C825 C 1.00158 0.45138 0.8376 0.0
C826 C 0.94591 0.35895 0.83286 0.0
O827 O 0.89192 0.28293 0.79414 0.0
O828 O 0.84381 0.25606 0.80486 0.0
O829 O 0.84228 0.3004 0.7407 0.0
O830 O 0.87667 0.34495 0.76422 0.0
C831 C 0.87477 0.25807 0.80339 0.0
O832 O 0.78678 0.25149 0.74574 0.0
O833 O 0.76149 0.27396 0.77856 0.0
O834 O 0.81012 0.33708 0.78245 0.0
O835 O 0.85774 0.36281 0.81501 0.0
O836 O 0.8704 0.30768 0.85185 0.0
O837 O 0.81485 0.29695 0.83541 0.0
C838 C 0.86065 0.32742 0.73849 0.0
O839 O 0.92196 0.35527 0.84958 0.0
O840 O 0.93764 0.34324 0.80468 0.0
C841 C 0.73703 0.22257 0.7564 0.0
C842 C 0.69679 0.16342 0.75473 0.0
C843 C 0.6903 0.18324 0.73129 0.0
C844 C 0.71016 0.21246 0.73219 0.0
C845 C 0.74354 0.20321 0.78013 0.0
C846 C 0.72356 0.17393 0.77936 0.0
C847 C 0.75884 0.2525 0.75505 0.0
H848 H 0.9545 0.4638 0.82653 0.0
H849 H 0.92276 0.41112 0.82279 0.0
H850 H 1.01115 0.37782 0.84577 0.0
H851 H 1.04326 0.43009 0.84822 0.0
H852 H 0.67037 0.17589 0.71165 0.0
H853 H 0.70488 0.227 0.71353 0.0
H854 H 0.76428 0.21057 0.79896 0.0
H855 H 0.72913 0.15953 0.79804 0.0
Tb856 Tb 0.86358 0.85755 0.81045 0.0
Eu857 Eu 0.83608 0.78879 0.77855 0.0
C858 C 0.8629 0.79991 0.85529 0.0
C859 C 0.91087 0.82263 0.77183 0.0
C860 C 0.86682 0.93336 0.85063 0.0
C861 C 0.8149 0.93831 0.86631 0.0
C862 C 0.84015 0.92236 0.86616 0.0
C863 C 0.87008 0.96254 0.83942 0.0
C864 C 0.84461 0.97825 0.83917 0.0
C865 C 0.8158 0.96501 0.85039 0.0
C866 C 0.88491 0.91172 0.83738 0.0
O867 O 0.84045 0.86684 0.76265 0.0
O868 O 0.83149 0.81875 0.73601 0.0
O869 O 0.79177 0.80019 0.80056 0.0
O870 O 0.8122 0.85088 0.81982 0.0
C871 C 0.83353 0.84879 0.73533 0.0
O872 O 0.82148 0.75522 0.73598 0.0
O873 O 0.81959 0.73973 0.78286 0.0
O874 O 0.859 0.7811 0.82894 0.0
O875 O 0.86328 0.8295 0.85271 0.0
O876 O 0.90568 0.84801 0.78683 0.0
O877 O 0.88911 0.79676 0.77002 0.0
C878 C 0.78841 0.82596 0.81644 0.0
O879 O 0.88678 0.88718 0.85188 0.0
O880 O 0.87676 0.90483 0.80665 0.0
C881 C 0.8451 0.71238 0.74812 0.0
C882 C 0.89967 0.68426 0.75461 0.0
C883 C 0.89947 0.70968 0.73681 0.0
C884 C 0.87254 0.72362 0.73362 0.0
C885 C 0.84427 0.68551 0.76375 0.0
C886 C 0.87127 0.67153 0.76693 0.0
C887 C 0.82119 0.73189 0.75297 0.0
H888 H 0.79309 0.92775 0.87543 0.0
H889 H 0.83701 0.89989 0.875 0.0
H890 H 0.89047 0.97144 0.82737 0.0
H891 H 0.84608 0.99912 0.82725 0.0
H892 H 0.92072 0.71959 0.72645 0.0
H893 H 0.87416 0.74435 0.72147 0.0
H894 H 0.82362 0.67654 0.77542 0.0
H895 H 0.87066 0.65196 0.78081 0.0
Tb896 Tb 0.59397 0.57754 0.52855 0.0
Eu897 Eu 0.66082 0.61992 0.5755 0.0
C898 C 0.66139 0.57749 0.50731 0.0
C899 C 0.6422 0.54532 0.5696 0.0
C900 C 0.50947 0.57639 0.49796 0.0
C901 C 0.45796 0.58724 0.47358 0.0
C902 C 0.48326 0.57106 0.47273 0.0
C903 C 0.50993 0.59806 0.52383 0.0
C904 C 0.485 0.61416 0.52475 0.0
C905 C 0.45857 0.60909 0.49969 0.0
C906 C 0.53736 0.56107 0.49707 0.0
O907 O 0.58507 0.60664 0.56828 0.0
O908 O 0.62438 0.60083 0.60682 0.0
O909 O 0.62953 0.65284 0.55682 0.0
O910 O 0.61945 0.61957 0.51347 0.0
C911 C 0.59378 0.6011 0.5976 0.0
O912 O 0.6916 0.63305 0.6222 0.0
O913 O 0.70913 0.64985 0.57949 0.0
O914 O 0.67444 0.60101 0.52917 0.0
O915 O 0.63069 0.56274 0.50385 0.0
O916 O 0.61148 0.54356 0.55723 0.0
O917 O 0.6645 0.57079 0.5736 0.0
C918 C 0.61572 0.64548 0.52693 0.0
O919 O 0.562 0.57658 0.48561 0.0
O920 O 0.54698 0.54968 0.52348 0.0
C921 C 0.74272 0.62365 0.61157 0.0
C922 C 0.7803 0.5787 0.60033 0.0
C923 C 0.7883 0.60823 0.58981 0.0
C924 C 0.76969 0.63037 0.59528 0.0
C925 C 0.73642 0.59506 0.62435 0.0
C926 C 0.75488 0.57297 0.6188 0.0
C927 C 0.71722 0.64245 0.60846 0.0
H928 H 0.43793 0.58252 0.45389 0.0
H929 H 0.48246 0.55461 0.45233 0.0
H930 H 0.52993 0.60304 0.54325 0.0
H931 H 0.48709 0.63131 0.54483 0.0
H932 H 0.8083 0.61399 0.57635 0.0
H933 H 0.77514 0.65205 0.58499 0.0
H934 H 0.71572 0.58873 0.63681 0.0
H935 H 0.74778 0.55073 0.62745 0.0
Tb936 Tb 0.07123 0.55286 1.01294 0.0
Eu937 Eu 0.10977 0.59618 0.07576 0.0
C938 C 0.07142 0.52921 0.08017 0.0
C939 C 1.03507 0.60131 0.04715 0.0
C940 C 1.04189 0.48585 0.95316 0.0
C941 C 1.01115 0.43574 0.92958 0.0
C942 C 1.01419 0.46758 0.93418 0.0
C943 C 0.06754 0.47237 0.96564 0.0
C944 C 0.06462 0.44061 0.96087 0.0
C945 C 1.03585 0.42195 0.94391 0.0
C946 C 1.04156 0.51757 0.96431 0.0
O947 O 0.07719 0.59928 0.99912 0.0
O948 O 0.12219 0.62279 0.03464 0.0
O949 O 0.14162 0.56054 0.06694 0.0
O950 O 0.12247 0.54683 1.01372 0.0
C951 C 0.10102 0.62292 1.00924 0.0
O952 O 0.15649 0.6185 0.10387 0.0
O953 O 0.11195 0.62247 0.12194 0.0
O954 O 0.07582 0.55771 0.09242 0.0
O955 O 0.07598 0.52257 0.05072 0.0
O956 O 1.03277 0.57383 0.03148 0.0
O957 O 0.06368 0.61626 0.06294 0.0
C958 C 0.14477 0.54686 0.03902 0.0
O959 O 1.02997 0.5204 0.9912 0.0
O960 O 0.0683 0.53795 0.96411 0.0
C961 C 0.15337 0.66659 0.12632 0.0
C962 C 0.17563 0.73001 0.12495 0.0
C963 C 0.18972 0.7145 0.14917 0.0
C964 C 0.1786 0.68284 0.14985 0.0
C965 C 0.13951 0.68204 0.10208 0.0
C966 C 0.1505 0.71346 0.10142 0.0
C967 C 0.14326 0.63314 0.12452 0.0
H968 H 0.98894 0.42178 0.91602 0.0
H969 H 0.99418 0.47772 0.92445 0.0
H970 H 0.08896 0.48616 0.98068 0.0
H971 H 0.0839 0.4305 0.97231 0.0
H972 H 0.20889 0.72691 0.16779 0.0
H973 H 0.18978 0.67106 0.16846 0.0
H974 H 0.12039 0.66967 0.08337 0.0
H975 H 0.13943 0.72484 0.08237 0.0
C976 C 1.03367 0.17292 0.03665 0.0
C977 C 0.04791 0.18579 1.01126 0.0
H978 H 1.03881 0.14612 0.07638 0.0
C979 C 0.08062 0.18473 1.0092 0.0
H980 H 1.00868 0.17352 0.03905 0.0
C981 C 0.09821 0.16985 0.03126 0.0
C982 C 0.08327 0.15568 0.0555 0.0
H983 H 0.09242 0.19471 0.99007 0.0
H984 H 0.12265 0.16767 0.02807 0.0
C985 C 0.05107 0.15769 0.05832 0.0
C986 C 0.31615 0.93763 0.24463 0.0
C987 C 0.28249 0.93458 0.24422 0.0
H988 H 0.35898 0.92291 0.26408 0.0
C989 C 0.26835 0.92174 0.26985 0.0
H990 H 0.32797 0.94806 0.22572 0.0
C991 C 0.28594 0.90662 0.29148 0.0
C992 C 0.31805 0.9049 0.28819 0.0
H993 H 0.24262 0.91983 0.27085 0.0
H994 H 0.27335 0.89362 0.30844 0.0
C995 C 0.33392 0.92304 0.26669 0.0
C996 C 0.46669 0.82622 0.46453 0.0
C997 C 0.49055 0.81024 0.45692 0.0
H998 H 0.45483 0.87038 0.47337 0.0
C999 C 0.5217 0.82677 0.45396 0.0
H1000 H 0.44243 0.81396 0.46668 0.0
C1001 C 0.52872 0.85873 0.45774 0.0
C1002 C 0.50465 0.87478 0.4643 0.0
H1003 H 0.54057 0.81499 0.44813 0.0
H1004 H 0.55271 0.87091 0.45461 0.0
C1005 C 0.47365 0.85836 0.46799 0.0
C1006 C 0.60822 0.41144 0.74478 0.0
C1007 C 0.62106 0.38536 0.73776 0.0
H1008 H 0.56937 0.42892 0.76189 0.0
C1009 C 0.6044 0.35634 0.74383 0.0
H1010 H 0.62055 0.43414 0.74044 0.0
C1011 C 0.575 0.3534 0.75597 0.0
C1012 C 0.56201 0.37945 0.76255 0.0
H1013 H 0.61373 0.33585 0.73866 0.0
H1014 H 0.56242 0.33077 0.76026 0.0
C1015 C 0.57903 0.40852 0.75718 0.0
C1016 C 0.08169 0.9319 0.56577 0.0
C1017 C 0.08782 0.92553 0.59838 0.0
H1018 H 0.07928 0.96472 0.53068 0.0
C1019 C 0.09742 0.95233 0.62075 0.0
H1020 H 0.07424 0.91295 0.54703 0.0
C1021 C 0.10028 0.98313 0.61091 0.0
C1022 C 0.09392 0.98915 0.5781 0.0
H1023 H 0.10241 0.94963 0.64607 0.0
H1024 H 0.10738 1.00239 0.62932 0.0
C1025 C 0.08466 0.96233 0.55605 0.0
C1026 C 0.47392 0.78371 0.87119 0.0
C1027 C 0.50265 0.8061 0.8711 0.0
H1028 H 0.42239 0.76822 0.855 0.0
C1029 C 0.49981 0.83062 0.85222 0.0
H1030 H 0.47466 0.76479 0.88582 0.0
C1031 C 0.46925 0.8332 0.83521 0.0
C1032 C 0.44039 0.81097 0.83574 0.0
H1033 H 0.5209 0.84882 0.85202 0.0
H1034 H 0.46814 0.85306 0.82207 0.0
C1035 C 0.44366 0.78577 0.85348 0.0
C1036 C 0.58485 0.19326 0.13471 0.0
C1037 C 0.58203 0.21962 0.11804 0.0
H1038 H 0.58878 0.14572 0.13424 0.0
C1039 C 0.58102 0.21454 0.08426 0.0
H1040 H 0.58597 0.19484 0.16054 0.0
C1041 C 0.5825 0.18493 0.06864 0.0
C1042 C 0.58533 0.15882 0.08585 0.0
H1043 H 0.57892 0.23332 0.06975 0.0
H1044 H 0.5816 0.18262 0.04284 0.0
C1045 C 0.58654 0.16423 0.11936 0.0
C1046 C 0.20419 0.31175 0.34789 0.0
C1047 C 0.20169 0.34027 0.3635 0.0
H1048 H 0.23105 0.28662 0.31899 0.0
C1049 C 0.22637 0.36585 0.35962 0.0
H1050 H 0.18629 0.29124 0.34986 0.0
C1051 C 0.25208 0.36324 0.34178 0.0
C1052 C 0.25502 0.33487 0.32651 0.0
H1053 H 0.22614 0.38845 0.37074 0.0
H1054 H 0.27005 0.38381 0.34026 0.0
C1055 C 0.2302 0.30913 0.32992 0.0
C1056 C 0.97023 0.03783 0.12358 0.0
C1057 C 0.97605 1.02193 0.15047 0.0
H1058 H 0.99148 0.06263 0.08734 0.0
C1059 C 1.00805 1.02071 0.16326 0.0
H1060 H 0.94564 0.03896 0.11352 0.0
C1061 C 1.03403 0.03475 0.14897 0.0
C1062 C 1.02818 0.0494 0.12124 0.0
H1063 H 1.01294 1.00873 0.18423 0.0
H1064 H 0.05854 0.03314 0.15884 0.0
C1065 C 0.99625 0.05114 0.10867 0.0
C1066 C 0.34988 0.7717 0.43416 0.0
C1067 C 0.3437 0.79306 0.45742 0.0
H1068 H 0.35578 0.76207 0.3852 0.0
C1069 C 0.34239 0.82299 0.44934 0.0
H1070 H 0.35093 0.74845 0.43951 0.0
C1071 C 0.34589 0.83094 0.41826 0.0
C1072 C 0.34974 0.80881 0.39454 0.0
H1073 H 0.33771 0.83997 0.46679 0.0
H1074 H 0.34383 0.85381 0.41233 0.0
C1075 C 0.35239 0.77938 0.40296 0.0
C1076 C 0.61623 0.99966 0.66322 0.0
C1077 C 0.59278 0.97264 0.66324 0.0
H1078 H 0.63014 0.04066 0.64065 0.0
C1079 C 0.56529 0.96557 0.63935 0.0
H1080 H 0.63742 1.00572 0.68168 0.0
C1081 C 0.56151 0.9852 0.61538 0.0
C1082 C 0.58449 1.01269 0.61607 0.0
H1083 H 0.54678 0.94496 0.63933 0.0
H1084 H 0.54041 0.97931 0.5968 0.0
C1085 C 0.61185 1.01977 0.64008 0.0
C1086 C 0.30295 0.36854 0.9243 0.0
C1087 C 0.31862 0.39838 0.93873 0.0
H1088 H 0.29246 0.33525 0.88243 0.0
C1089 C 0.33644 0.41753 0.91905 0.0
H1090 H 0.28989 0.35246 0.93849 0.0
C1091 C 0.33901 0.40715 0.88691 0.0
C1092 C 0.32336 0.37727 0.8725 0.0
H1093 H 0.34997 0.44018 0.92911 0.0
H1094 H 0.35382 0.42257 0.87341 0.0
C1095 C 0.30468 0.35848 0.89187 0.0
C1096 C 0.95259 0.95484 0.30036 0.0
C1097 C 0.93557 0.97741 0.29038 0.0
H1098 H 0.98588 0.94206 0.33722 0.0
C1099 C 0.93576 1.00281 0.31216 0.0
H1100 H 0.95291 0.93506 0.28407 0.0
C1101 C 0.95451 1.00663 0.34254 0.0
C1102 C 0.97357 0.98526 0.35153 0.0
H1103 H 0.92269 1.02048 0.30521 0.0
H1104 H 0.95582 0.02741 0.35808 0.0
C1105 C 0.97154 0.95882 0.33063 0.0
C1106 C 0.3496 0.76122 0.65533 0.0
C1107 C 0.34767 0.78387 0.63403 0.0
H1108 H 0.35359 0.75094 0.70447 0.0
C1109 C 0.35253 0.81475 0.64678 0.0
H1110 H 0.34566 0.73721 0.64621 0.0
C1111 C 0.35794 0.82272 0.68004 0.0
C1112 C 0.35763 0.79989 0.70138 0.0
H1113 H 0.35114 0.8327 0.63096 0.0
H1114 H 0.36032 0.8466 0.68894 0.0
C1115 C 0.35403 0.76909 0.68867 0.0
C1116 C 0.58355 1.00496 0.80692 0.0
C1117 C 0.56195 0.97828 0.79188 0.0
H1118 H 0.59053 0.04519 0.83961 0.0
C1119 C 0.52932 0.97257 0.7969 0.0
H1120 H 0.60878 1.00988 0.80322 0.0
C1121 C 0.51889 0.99263 0.81831 0.0
C1122 C 0.54083 1.01903 0.83381 0.0
H1123 H 0.51235 0.9521 0.78524 0.0
H1124 H 0.49409 0.98727 0.82334 0.0
C1125 C 0.57299 0.02531 0.8274 0.0
C1126 C 0.32661 0.41073 0.15783 0.0
C1127 C 0.32513 0.39193 0.12888 0.0
H1128 H 0.32934 0.41408 0.20972 0.0
C1129 C 0.32307 0.36015 0.13217 0.0
H1130 H 0.32886 0.4353 0.15715 0.0
C1131 C 0.32266 0.3478 0.16234 0.0
C1132 C 0.32526 0.36651 0.19148 0.0
H1133 H 0.32222 0.34452 0.11109 0.0
H1134 H 0.32148 0.32333 0.16284 0.0
C1135 C 0.32709 0.39839 0.18837 0.0
C1136 C 0.31207 0.98524 0.13922 0.0
C1137 C 0.31041 0.97551 0.10649 0.0
H1138 H 0.29494 1.01242 0.17444 0.0
C1139 C 0.28937 0.98666 0.08379 0.0
H1140 H 0.32797 0.97708 0.15739 0.0
C1141 C 0.27056 1.00717 0.09361 0.0
C1142 C 0.27203 1.0167 0.1264 0.0
H1143 H 0.28749 0.97963 0.05842 0.0
H1144 H 0.25426 1.01496 0.07551 0.0
C1145 C 0.29302 1.00544 0.14905 0.0
C1146 C 0.74828 0.65076 0.06976 0.0
C1147 C 0.76389 0.64717 0.04261 0.0
H1148 H 0.70636 0.63693 0.09313 0.0
C1149 C 0.74774 0.62392 1.01815 0.0
H1150 H 0.75937 0.66885 0.08878 0.0
C1151 C 0.71672 0.60564 0.02042 0.0
C1152 C 0.7006 0.60994 0.04722 0.0
H1153 H 0.75826 0.62093 0.99644 0.0
H1154 H 0.70478 0.58889 1.00044 0.0
C1155 C 0.71752 0.63242 0.07217 0.0
C1156 C 0.91152 0.59318 0.36006 0.0
C1157 C 0.88642 0.58856 0.3789 0.0
H1158 H 0.94251 0.57186 0.33375 0.0
C1159 C 0.87837 0.56028 0.39157 0.0
H1160 H 0.91861 0.615 0.35045 0.0
C1161 C 0.89218 0.53581 0.38233 0.0
C1162 C 0.91406 0.53911 0.35995 0.0
H1163 H 0.85964 0.55635 0.40683 0.0
H1164 H 0.88292 0.51355 0.3901 0.0
C1165 C 0.92524 0.56853 0.35056 0.0
C1166 C 0.96609 0.5061 0.5694 0.0
C1167 C 0.97251 0.47766 0.57778 0.0
H1168 H 0.98577 0.55114 0.55723 0.0
C1169 C 1.00513 0.47488 0.58538 0.0
H1170 H 0.94129 0.50911 0.56347 0.0
C1171 C 1.0307 0.4994 0.58261 0.0
C1172 C 1.02401 0.52684 0.57162 0.0
H1173 H 1.01088 0.45334 0.59213 0.0
H1174 H 0.05551 0.496 0.58661 0.0
C1175 C 0.99155 0.53027 0.56597 0.0
C1176 C 0.43664 0.16367 0.28859 0.0
C1177 C 0.43986 0.15103 0.31804 0.0
H1178 H 0.40503 0.17818 0.25197 0.0
C1179 C 0.41179 0.13987 0.33151 0.0
H1180 H 0.45779 0.17209 0.27739 0.0
C1181 C 0.38123 0.1433 0.31677 0.0
C1182 C 0.37833 0.15742 0.28808 0.0
H1183 H 0.41361 0.12982 0.35412 0.0
H1184 H 0.3601 0.13603 0.32838 0.0
C1185 C 0.40624 0.16669 0.27372 0.0
C1186 C 0.44655 0.1111 0.53061 0.0
C1187 C 0.44732 0.14293 0.53754 0.0
H1188 H 0.47205 0.07392 0.52817 0.0
C1189 C 0.47877 0.16144 0.54863 0.0
H1190 H 0.42353 0.09539 0.52204 0.0
C1191 C 0.50758 0.1486 0.55228 0.0
C1192 C 0.5064 0.11662 0.54511 0.0
H1193 H 0.48128 0.18595 0.55433 0.0
H1194 H 0.5309 0.16392 0.56055 0.0
C1195 C 0.47496 0.09844 0.53423 0.0
C1196 C 0.873 0.72468 0.39405 0.0
C1197 C 0.84946 0.72505 0.41466 0.0
H1198 H 0.89233 0.7438 0.3537 0.0
C1199 C 0.8359 0.75128 0.41774 0.0
H1200 H 0.88473 0.70527 0.39185 0.0
C1201 C 0.83951 0.77265 0.39533 0.0
C1202 C 0.85798 0.7688 0.37073 0.0
H1203 H 0.81859 0.75297 0.43414 0.0
H1204 H 0.82578 0.79078 0.39569 0.0
C1205 C 0.87705 0.74645 0.37188 0.0
C1206 C 1.03043 0.53421 0.81972 0.0
C1207 C 0.05919 0.5438 0.84186 0.0
H1208 H 0.99025 0.49753 0.80038 0.0
C1209 C 0.06863 0.52296 0.86287 0.0
H1210 H 1.02251 0.54965 0.80315 0.0
C1211 C 0.0498 0.49325 0.86177 0.0
C1212 C 1.02121 0.4834 0.83932 0.0
H1213 H 0.09041 0.52974 0.88056 0.0
H1214 H 0.05755 0.47814 0.87881 0.0
C1215 C 1.01178 0.50433 0.81833 0.0
C1216 C 0.17957 0.98383 0.07625 0.0
C1217 C 0.17749 0.97852 0.1084 0.0
H1218 H 0.16021 1.00433 0.03523 0.0
C1219 C 0.15465 0.99031 0.12407 0.0
H1220 H 0.19678 0.97471 0.06359 0.0
C1221 C 0.13392 1.00654 0.10796 0.0
C1222 C 0.13563 1.01156 0.07597 0.0
H1223 H 0.15244 0.9867 0.14884 0.0
H1224 H 0.11611 1.01488 0.12046 0.0
C1225 C 0.15847 1.00021 0.05996 0.0
C1226 C 0.94363 0.22249 0.83791 0.0
C1227 C 0.93148 0.21053 0.86493 0.0
H1228 H 0.93509 0.24735 0.79712 0.0
C1229 C 0.89814 0.20779 0.86662 0.0
H1230 H 0.96911 0.2247 0.83554 0.0
C1231 C 0.87852 0.22047 0.84419 0.0
C1232 C 0.89201 0.2364 0.81993 0.0
H1233 H 0.88789 0.1985 0.88691 0.0
H1234 H 0.85367 0.22038 0.84785 0.0
C1235 C 0.92418 0.23568 0.81587 0.0
C1236 C 0.7333 0.31907 0.63212 0.0
C1237 C 0.70905 0.33562 0.63682 0.0
H1238 H 0.74409 0.27453 0.62251 0.0
C1239 C 0.67632 0.32012 0.63265 0.0
H1240 H 0.75873 0.33056 0.63536 0.0
C1241 C 0.66802 0.28842 0.62512 0.0
C1242 C 0.69233 0.27161 0.62197 0.0
H1243 H 0.65715 0.33242 0.63602 0.0
H1244 H 0.6427 0.27689 0.62316 0.0
C1245 C 0.725 0.28714 0.62502 0.0
C1246 C 0.5838 0.734 0.34525 0.0
C1247 C 0.57027 0.75937 0.35336 0.0
H1248 H 0.6228 0.7183 0.3265 0.0
C1249 C 0.58548 0.78886 0.34721 0.0
H1250 H 0.5725 0.71096 0.34961 0.0
C1251 C 0.61441 0.79303 0.33418 0.0
C1252 C 0.62825 0.76771 0.32677 0.0
H1253 H 0.57557 0.8088 0.35326 0.0
H1254 H 0.62605 0.81602 0.33001 0.0
C1255 C 0.61247 0.73813 0.33193 0.0
C1256 C 0.08838 0.22808 0.51152 0.0
C1257 C 0.09768 0.23565 0.4814 0.0
H1258 H 0.08013 0.19484 0.54602 0.0
C1259 C 0.10611 0.21104 0.46323 0.0
H1260 H 0.08144 0.24542 0.52686 0.0
C1261 C 0.10481 0.18096 0.47442 0.0
C1262 C 0.09534 0.1736 0.50462 0.0
H1263 H 0.11313 0.21474 0.43988 0.0
H1264 H 0.11133 0.1633 0.45915 0.0
C1265 C 0.08749 0.19839 0.52278 0.0
C1266 C 0.68796 0.31523 0.25947 0.0
C1267 C 0.67934 0.32932 0.23146 0.0
H1268 H 0.72538 0.3065 0.29506 0.0
C1269 C 0.7053 0.34758 0.21918 0.0
H1270 H 0.66929 0.30093 0.27014 0.0
C1271 C 0.73832 0.35091 0.23402 0.0
C1272 C 0.74669 0.33601 0.2616 0.0
H1273 H 0.70025 0.35873 0.19768 0.0
H1274 H 0.75739 0.36465 0.22337 0.0
C1275 C 0.72061 0.3184 0.27403 0.0
C1276 C 0.60804 0.93326 0.95818 0.0
C1277 C 0.60684 0.91006 0.97973 0.0
H1278 H 0.60734 0.98097 0.9505 0.0
C1279 C 0.60551 0.92051 1.01198 0.0
H1280 H 0.60829 0.92692 0.93302 0.0
C1281 C 0.60549 0.9518 0.02221 0.0
C1282 C 0.60581 0.97493 1.00076 0.0
H1283 H 0.60401 0.90411 0.02973 0.0
H1284 H 0.60422 0.95765 0.04725 0.0
C1285 C 0.60718 0.96468 0.96833 0.0
C1286 C 0.98725 0.84746 0.72787 0.0
C1287 C 0.99685 0.81923 0.72082 0.0
H1288 H 0.95404 0.87121 0.74962 0.0
C1289 C 0.97787 0.79301 0.73153 0.0
H1290 H 1.00087 0.86844 0.72075 0.0
C1291 C 0.9511 0.79457 0.74801 0.0
C1292 C 0.94151 0.82252 0.75548 0.0
H1293 H 0.98373 0.77063 0.72716 0.0
H1294 H 0.93791 0.77346 0.75526 0.0
C1295 C 0.96035 0.84907 0.74499 0.0
C1296 C 0.22698 0.13711 1.00954 0.0
C1297 C 0.2249 0.1203 0.97971 0.0
H1298 H 0.20637 0.14021 0.05287 0.0
C1299 C 0.20587 0.09032 0.97363 0.0
H1300 H 0.24162 0.16025 1.01459 0.0
C1301 C 0.18484 0.07949 0.99479 0.0
C1302 C 0.18386 0.0981 0.02259 0.0
H1303 H 0.20393 0.07696 0.95073 0.0
H1304 H 0.16768 0.05772 0.98829 0.0
C1305 C 0.20669 0.1258 0.03119 0.0
C1306 C 0.86716 0.3817 0.67287 0.0
C1307 C 0.86896 0.36194 0.646 0.0
H1308 H 0.86413 0.38639 0.72322 0.0
C1309 C 0.86671 0.33042 0.64953 0.0
H1310 H 0.86914 0.40612 0.67106 0.0
C1311 C 0.86298 0.31897 0.67926 0.0
C1312 C 0.86268 0.33898 0.70644 0.0
H1313 H 0.86813 0.31462 0.6293 0.0
H1314 H 0.86146 0.29463 0.68124 0.0
C1315 C 0.8646 0.37043 0.70283 0.0
C1316 C 0.62123 0.16784 0.43978 0.0
C1317 C 0.59039 0.17345 0.42823 0.0
H1318 H 0.64826 0.14334 0.47183 0.0
C1319 C 0.56347 0.16101 0.44269 0.0
H1320 H 0.64243 0.1775 0.42921 0.0
C1321 C 0.56676 0.14132 0.46635 0.0
C1322 C 0.59709 0.13416 0.47642 0.0
H1323 H 0.53944 0.1651 0.43463 0.0
H1324 H 0.54531 0.13106 0.47625 0.0
C1325 C 0.62463 0.14842 0.46402 0.0
C1326 C 0.88555 0.76429 0.16136 0.0
C1327 C 0.85745 0.76007 0.13788 0.0
H1328 H 0.90757 0.77913 0.21085 0.0
C1329 C 0.82914 0.76677 0.14876 0.0
H1330 H 0.90795 0.75962 0.15448 0.0
C1331 C 0.82867 0.77717 0.18104 0.0
C1332 C 0.85667 0.78221 0.2045 0.0
H1333 H 0.80674 0.76383 0.13207 0.0
H1334 H 0.80611 0.782 0.18742 0.0
C1335 C 0.88528 0.77559 0.19392 0.0
C1336 C 0.13712 0.1616 0.81518 0.0
C1337 C 0.14645 0.13767 0.83141 0.0
H1338 H 0.11518 0.17443 0.7713 0.0
C1339 C 0.13329 0.10707 0.81885 0.0
H1340 H 0.14717 0.18535 0.82437 0.0
C1341 C 0.11401 0.10061 0.78872 0.0
C1342 C 0.10854 0.12471 0.77032 0.0
H1343 H 0.13982 0.08821 0.83129 0.0
H1344 H 0.10579 0.07683 0.77877 0.0
C1345 C 0.11856 0.15522 0.78472 0.0
C1346 C 0.84962 0.39797 0.44726 0.0
C1347 C 0.85666 0.3764 0.46856 0.0
H1348 H 0.84 0.40744 0.39795 0.0
C1349 C 0.85646 0.34641 0.45556 0.0
H1350 H 0.84997 0.42139 0.45645 0.0
C1351 C 0.85033 0.33831 0.42234 0.0
C1352 C 0.84484 0.3601 0.40076 0.0
H1353 H 0.86184 0.32921 0.47117 0.0
H1354 H 0.85119 0.31508 0.41359 0.0
C1355 C 0.84413 0.39001 0.41371 0.0
C1356 C 0.63293 0.14995 0.28963 0.0
C1357 C 0.6016 0.15236 0.29522 0.0
H1358 H 0.6609 0.12733 0.26069 0.0
C1359 C 0.57451 0.13033 0.27982 0.0
H1360 H 0.65411 0.16658 0.30162 0.0
C1361 C 0.5784 0.10752 0.25747 0.0
C1362 C 0.60932 0.10684 0.24938 0.0
H1363 H 0.55011 0.13126 0.2843 0.0
H1364 H 0.55694 0.09145 0.24511 0.0
C1365 C 0.63679 0.12738 0.26656 0.0
C1366 C 0.85701 0.79195 0.94598 0.0
C1367 C 0.86187 0.7619 0.95109 0.0
H1368 H 0.8542 0.82725 0.91386 0.0
C1369 C 0.86885 0.74494 0.92414 0.0
H1370 H 0.85133 0.80612 0.96546 0.0
C1371 C 0.86977 0.75713 0.89362 0.0
C1372 C 0.86453 0.78716 0.88862 0.0
H1373 H 0.87228 0.72167 0.92618 0.0
H1374 H 0.87421 0.74268 0.87369 0.0
C1375 C 0.85867 0.80431 0.91592 0.0
C1376 C 0.89259 0.16595 0.9745 0.0
C1377 C 0.89045 0.17844 1.00547 0.0
H1378 H 0.91595 0.13802 0.94584 0.0
C1379 C 0.91168 0.17262 0.03171 0.0
H1380 H 0.87668 0.17014 0.95373 0.0
C1381 C 0.9342 0.15427 0.02716 0.0
C1382 C 0.93608 0.1414 0.99625 0.0
H1383 H 0.91078 0.18204 0.05585 0.0
H1384 H 0.95031 0.15034 0.0479 0.0
C1385 C 0.91522 0.14768 0.96993 0.0
C1386 C 0.4396 0.52674 0.05972 0.0
C1387 C 0.42737 0.49913 0.03942 0.0
H1388 H 0.48039 0.56469 0.07626 0.0
C1389 C 0.44781 0.49072 1.01799 0.0
H1390 H 0.4251 0.53403 0.07688 0.0
C1391 C 0.47918 0.50848 1.01717 0.0
C1392 C 0.49222 0.53536 0.03828 0.0
H1393 H 0.43968 0.46971 1.00194 0.0
H1394 H 0.49377 0.50029 1.00061 0.0
C1395 C 0.47158 0.54434 0.0594 0.0
C1396 C 0.35578 0.57443 0.74923 0.0
C1397 C 0.3733 0.57721 0.72323 0.0
H1398 H 0.33011 0.59632 0.78114 0.0
C1399 C 0.37592 0.60416 0.70759 0.0
H1400 H 0.35327 0.55389 0.76174 0.0
C1401 C 0.36226 0.62829 0.71843 0.0
C1402 C 0.34592 0.62606 0.7453 0.0
H1403 H 0.38892 0.60683 0.68723 0.0
H1404 H 0.3649 0.64889 0.70603 0.0
C1405 C 0.34229 0.59865 0.76021 0.0
C1406 C 0.23303 0.65468 0.51838 0.0
C1407 C 0.23054 0.68556 0.51657 0.0
H1408 H 0.20774 0.60765 0.51561 0.0
C1409 C 0.19956 0.69214 0.50801 0.0
H1410 H 0.25654 0.64876 0.52479 0.0
C1411 C 0.1717 0.66854 0.50234 0.0
C1412 C 0.17405 0.6378 0.5054 0.0
H1413 H 0.19673 0.71559 0.5061 0.0
H1414 H 0.14817 0.67461 0.49664 0.0
C1415 C 0.20509 0.63106 0.513 0.0
C1416 C 0.7297 0.97799 0.84555 0.0
C1417 C 0.72142 0.97842 0.81225 0.0
H1418 H 0.76657 0.97361 0.88411 0.0
C1419 C 0.7455 0.97816 0.79253 0.0
H1420 H 0.71157 0.97828 0.86132 0.0
C1421 C 0.77689 0.97615 0.80558 0.0
C1422 C 0.78483 0.97399 0.83862 0.0
H1423 H 0.73989 0.97877 0.76682 0.0
H1424 H 0.79443 0.97445 0.78944 0.0
C1425 C 0.76111 0.97546 0.85861 0.0
C1426 C 0.69648 0.98481 0.51285 0.0
C1427 C 0.72549 0.99129 0.53568 0.0
H1428 H 0.64938 0.99446 0.4961 0.0
C1429 C 0.72706 1.01513 0.56029 0.0
H1430 H 0.69342 0.96689 0.49331 0.0
C1431 C 0.70101 0.03124 0.5619 0.0
C1432 C 0.67202 0.02454 0.53894 0.0
H1433 H 0.74836 1.02126 0.57858 0.0
H1434 H 0.70366 0.04909 0.58142 0.0
C1435 C 0.67069 1.00088 0.51438 0.0
C1436 C 0.34156 0.4472 0.68733 0.0
C1437 C 0.35922 0.43715 0.664 0.0
H1438 H 0.32194 0.43714 0.73067 0.0
C1439 C 0.35933 0.40563 0.65944 0.0
H1440 H 0.34 0.47116 0.69087 0.0
C1441 C 0.34957 0.38653 0.68257 0.0
C1442 C 0.33816 0.39836 0.7095 0.0
H1443 H 0.37169 0.39681 0.64112 0.0
H1444 H 0.35407 0.36341 0.68106 0.0
C1445 C 0.33142 0.42788 0.71038 0.0
C1446 C 0.1216 0.61678 0.2358 0.0
C1447 C 0.13334 0.59134 0.24674 0.0
H1448 H 0.13158 0.66515 0.23152 0.0
C1449 C 0.16555 0.59624 0.26275 0.0
H1450 H 0.09708 0.61394 0.22306 0.0
C1451 C 0.18533 0.62589 0.26798 0.0
C1452 C 0.17346 0.65136 0.2572 0.0
H1453 H 0.17543 0.57723 0.27156 0.0
H1454 H 0.20978 0.62889 0.28093 0.0
C1455 C 0.14139 0.6463 0.24084 0.0
C1456 C 0.53931 0.67882 0.51537 0.0
C1457 C 0.52929 0.67082 0.48219 0.0
H1458 H 0.57548 0.67761 0.55614 0.0
C1459 C 0.54805 0.65528 0.46469 0.0
H1460 H 0.52552 0.69144 0.52921 0.0
C1461 C 0.57686 0.64895 0.47943 0.0
C1462 C 0.58744 0.6571 0.5124 0.0
H1463 H 0.54112 0.64917 0.43904 0.0
H1464 H 0.59086 0.63732 0.4648 0.0
C1465 C 0.56828 0.6718 0.53051 0.0
C1466 C 0.82204 0.43274 0.76071 0.0
C1467 C 0.78832 0.43099 0.75894 0.0
H1468 H 0.86205 0.41197 0.77693 0.0
C1469 C 0.77147 0.41351 0.78033 0.0
H1470 H 0.83589 0.4464 0.74505 0.0
C1471 C 0.78609 0.39292 0.79739 0.0
C1472 C 0.81818 0.39098 0.79471 0.0
H1473 H 0.74566 0.4122 0.78034 0.0
H1474 H 0.77133 0.37636 0.80986 0.0
C1475 C 0.83701 0.41293 0.77888 0.0
C1476 C 0.04975 0.34062 0.94088 0.0
C1477 C 1.02092 0.32467 0.95018 0.0
H1478 H 0.07693 0.38404 0.93122 0.0
C1479 C 0.99684 0.34086 0.95666 0.0
H1480 H 0.06867 0.32872 0.93553 0.0
C1481 C 1.0014 0.37233 0.95367 0.0
C1482 C 1.03025 0.38826 0.9445 0.0
H1483 H 0.97422 0.32916 0.96353 0.0
H1484 H 0.98261 0.38435 0.95916 0.0
C1485 C 0.05446 0.37219 0.93826 0.0
C1486 C 0.11038 0.93997 0.25442 0.0
C1487 C 0.11632 0.91984 0.22984 0.0
H1488 H 0.07789 0.94855 0.28716 0.0
C1489 C 0.0929 0.89289 0.21855 0.0
H1490 H 0.12796 0.96094 0.26353 0.0
C1491 C 0.06428 0.88598 0.23186 0.0
C1492 C 0.05864 0.90573 0.25689 0.0
H1493 H 0.0967 0.87699 0.19951 0.0
H1494 H 0.04693 0.86475 0.22313 0.0
C1495 C 0.08183 0.93287 0.26797 0.0
C1496 C 0.61653 0.42991 0.07749 0.0
C1497 C 0.60053 0.41891 0.1033 0.0
H1498 H 0.62914 0.46599 0.04687 0.0
C1499 C 0.58424 0.44006 0.11772 0.0
H1500 H 0.62962 0.41529 0.06521 0.0
C1501 C 0.58453 0.47025 0.10719 0.0
C1502 C 0.60073 0.48108 0.08134 0.0
H1503 H 0.57177 0.43362 0.13774 0.0
H1504 H 0.57182 0.48523 0.11949 0.0
C1505 C 0.61639 0.45966 0.06674 0.0
C1506 C 0.97631 0.29297 0.37028 0.0
C1507 C 1.00422 0.31669 0.37191 0.0
H1508 H 0.92499 0.27659 0.35355 0.0
C1509 C 1.00032 0.3428 0.35598 0.0
H1510 H 0.97795 0.27284 0.38287 0.0
C1511 C 0.96945 0.34549 0.34002 0.0
C1512 C 0.94141 0.32188 0.33876 0.0
H1513 H 1.02079 0.36199 0.35739 0.0
H1514 H 0.96744 0.36645 0.32913 0.0
C1515 C 0.94571 0.29523 0.35355 0.0
C1516 C 0.10523 0.71278 0.62027 0.0
C1517 C 0.08496 0.73237 0.60761 0.0
H1518 H 0.12253 0.67052 0.61585 0.0
C1519 C 0.06591 0.72101 0.57728 0.0
H1520 H 0.12005 0.7196 0.6436 0.0
C1521 C 0.06698 0.69163 0.56112 0.0
C1522 C 0.08706 0.67197 0.5744 0.0
H1523 H 0.04914 0.73419 0.56652 0.0
H1524 H 0.05153 0.6841 0.53826 0.0
C1525 C 0.10645 0.68389 0.60424 0.0
C1526 C 0.7059 0.80293 0.85171 0.0
C1527 C 0.70247 0.83105 0.86759 0.0
H1528 H 0.73439 0.77887 0.82356 0.0
C1529 C 0.72712 0.85702 0.8648 0.0
H1530 H 0.68807 0.78213 0.85285 0.0
C1531 C 0.75364 0.85519 0.84789 0.0
C1532 C 0.75763 0.82726 0.83247 0.0
H1533 H 0.72625 0.87937 0.87611 0.0
H1534 H 0.77146 0.87607 0.84722 0.0
C1535 C 0.7328 0.80109 0.83464 0.0
C1536 C 0.54504 0.5385 0.63617 0.0
C1537 C 0.51444 0.54671 0.63293 0.0
H1538 H 0.59482 0.55034 0.62889 0.0
C1539 C 0.51127 0.57489 0.62138 0.0
H1540 H 0.54837 0.51721 0.64572 0.0
C1541 C 0.53794 0.59378 0.6117 0.0
C1542 C 0.56822 0.58507 0.61416 0.0
H1543 H 0.48807 0.58194 0.61911 0.0
H1544 H 0.53473 0.61484 0.60155 0.0
C1545 C 0.5718 0.5577 0.62719 0.0
C1546 C 0.85482 0.28308 0.94476 0.0
C1547 C 0.8255 0.28624 0.95548 0.0
H1548 H 0.88254 0.28548 0.90582 0.0
C1549 C 0.80133 0.29503 0.93403 0.0
H1550 H 0.87387 0.2762 0.96057 0.0
C1551 C 0.80603 0.29975 0.90239 0.0
C1552 C 0.83526 0.29639 0.89166 0.0
H1553 H 0.77833 0.29739 0.94139 0.0
H1554 H 0.78678 0.30607 0.88635 0.0
C1555 C 0.85976 0.28839 0.91334 0.0
C1556 C 0.09894 0.47691 0.13766 0.0
C1557 C 0.07797 0.47931 0.1604 0.0
H1558 H 0.11244 0.49062 0.09286 0.0
C1559 C 0.05011 0.49143 0.15208 0.0
H1560 H 0.12037 0.46729 0.14326 0.0
C1561 C 0.04593 0.50509 0.12363 0.0
C1562 C 0.06889 0.50577 0.10265 0.0
H1563 H 1.03289 0.49264 0.16863 0.0
H1564 H 1.02617 0.51718 0.1192 0.0
C1565 C 0.09429 0.49 0.10874 0.0
C1566 C 0.80199 0.88366 0.43367 0.0
C1567 C 0.83101 0.89531 0.45544 0.0
H1568 H 0.77999 0.86179 0.38609 0.0
C1569 C 0.86052 0.89483 0.4434 0.0
H1570 H 0.77867 0.88315 0.44165 0.0
C1571 C 0.86135 0.88311 0.41165 0.0
C1572 C 0.83267 0.87054 0.38997 0.0
H1573 H 0.88356 0.90347 0.45889 0.0
H1574 H 0.88495 0.88328 0.40441 0.0
C1575 C 0.80282 0.8712 0.40163 0.0
C1576 C 0.50162 0.47584 0.77954 0.0
C1577 C 0.47834 0.49321 0.77005 0.0
H1578 H 0.53622 0.46712 0.81749 0.0
C1579 C 0.46908 0.51259 0.79319 0.0
H1580 H 0.50918 0.46068 0.76219 0.0
C1581 C 0.48399 0.5157 0.82503 0.0
C1582 C 0.50878 0.49984 0.83419 0.0
H1583 H 0.45077 0.52585 0.78658 0.0
H1584 H 0.47669 0.53113 0.8423 0.0
C1585 C 0.51691 0.47934 0.8113 0.0
C1586 C 0.84422 0.26614 0.15846 0.0
C1587 C 0.84202 0.28848 0.13676 0.0
H1588 H 0.8481 0.25635 0.20783 0.0
C1589 C 0.84517 0.31921 0.14903 0.0
H1590 H 0.84142 0.24217 0.14967 0.0
C1591 C 0.84967 0.32739 0.18216 0.0
C1592 C 0.85017 0.30491 0.20393 0.0
H1593 H 0.84338 0.33688 0.13292 0.0
H1594 H 0.85121 0.35124 0.19063 0.0
C1595 C 0.84778 0.27419 0.19173 0.0
C1596 C 1.0197 0.48612 0.28972 0.0
C1597 C 0.0491 0.47659 0.29847 0.0
H1598 H 0.98085 0.50404 0.30617 0.0
C1599 C 0.0581 0.47143 0.33044 0.0
H1600 H 1.01175 0.4895 0.26502 0.0
C1601 C 1.0405 0.47987 0.35399 0.0
C1602 C 1.01356 0.49351 0.34585 0.0
H1603 H 0.08037 0.46359 0.33775 0.0
H1604 H 0.05028 0.4788 0.37882 0.0
C1605 C 1.00192 0.49433 0.31325 0.0
C1606 C 0.83146 0.85889 0.64402 0.0
C1607 C 0.82917 0.88997 0.64107 0.0
H1608 H 0.83382 0.82192 0.67401 0.0
C1609 C 0.82641 0.90706 0.66984 0.0
H1610 H 0.83404 0.8446 0.62307 0.0
C1611 C 0.82707 0.8939 0.69994 0.0
C1612 C 0.82985 0.86282 0.70274 0.0
H1613 H 0.8253 0.9311 0.66947 0.0
H1614 H 0.82598 0.90842 0.72126 0.0
C1615 C 0.8314 0.84565 0.67371 0.0
C1616 C 0.82163 0.52762 0.55027 0.0
C1617 C 0.82597 0.5044 0.57028 0.0
H1618 H 0.80331 0.56847 0.54347 0.0
C1619 C 0.81535 0.50579 0.60038 0.0
H1620 H 0.82936 0.52719 0.52685 0.0
C1621 C 0.80118 0.53006 0.6104 0.0
C1622 C 0.79678 0.55341 0.5904 0.0
H1623 H 0.81855 0.48844 0.61653 0.0
H1624 H 0.79403 0.53061 0.63405 0.0
C1625 C 0.80702 0.55161 0.56006 0.0
C1626 C 0.25183 0.14611 0.5588 0.0
C1627 C 0.26204 0.14866 0.52846 0.0
H1628 H 0.21324 0.12998 0.58585 0.0
C1629 C 0.23942 0.13378 0.50158 0.0
H1630 H 0.26775 0.15814 0.58003 0.0
C1631 C 0.20789 0.11727 0.50488 0.0
C1632 C 0.19718 0.11582 0.53516 0.0
H1633 H 0.24558 0.13609 0.47769 0.0
H1634 H 0.19124 0.10705 0.48338 0.0
C1635 C 0.22012 0.13018 0.56208 0.0
C1636 C 0.33325 0.06981 0.86612 0.0
C1637 C 0.30049 0.07105 0.85658 0.0
H1638 H 0.37117 0.04503 0.86183 0.0
C1639 C 0.28096 0.04814 0.83367 0.0
H1640 H 0.34893 0.08715 0.8837 0.0
C1641 C 0.29378 0.02418 0.821 0.0
C1642 C 0.32637 1.02262 0.83096 0.0
H1643 H 0.25568 0.04857 0.82566 0.0
H1644 H 0.27814 1.00683 0.8034 0.0
C1645 C 0.34606 0.04583 0.85342 0.0
C1646 C 0.4757 0.96026 0.03032 0.0
C1647 C 0.45516 0.96345 0.0532 0.0
H1648 H 0.51648 0.98112 1.00912 0.0
C1649 C 0.46051 0.99133 0.07291 0.0
H1650 H 0.47196 0.93911 1.01465 0.0
C1651 C 0.48667 1.01535 0.07022 0.0
C1652 C 0.50693 1.01209 0.04701 0.0
H1653 H 0.44493 0.99428 0.09073 0.0
H1654 H 0.4909 0.03645 0.08602 0.0
C1655 C 0.50101 0.98443 0.02696 0.0
C1656 C 0.95841 0.63077 0.77113 0.0
C1657 C 0.98787 0.65172 0.78282 0.0
H1658 H 0.9075 0.62454 0.75302 0.0
C1659 C 0.98832 0.6834 0.78376 0.0
H1660 H 0.95716 0.60619 0.77007 0.0
C1661 C 0.95989 0.69386 0.77369 0.0
C1662 C 0.93025 0.6729 0.76278 0.0
H1663 H 1.01057 0.70015 0.79256 0.0
H1664 H 0.96091 0.71843 0.77537 0.0
C1665 C 0.92989 0.64123 0.76145 0.0
C1666 C 0.97618 0.65847 0.05693 0.0
C1667 C 0.94602 0.642 0.03956 0.0
H1668 H 1.02723 0.65931 0.07314 0.0
C1669 C 0.94611 0.61211 0.02559 0.0
H1670 H 0.97781 0.68145 0.06816 0.0
C1671 C 0.97439 0.59938 0.02848 0.0
C1672 C 1.00459 0.61564 0.04557 0.0
H1673 H 0.92397 0.59815 1.01197 0.0
H1674 H 0.97244 0.57646 1.01692 0.0
C1675 C 1.0048 0.64559 0.05983 0.0
C1676 C 0.3055 0.21011 0.83405 0.0
C1677 C 0.30258 0.21771 0.86619 0.0
H1678 H 0.319 0.22733 0.79068 0.0
C1679 C 0.31734 0.24711 0.88133 0.0
H1680 H 0.29416 0.18756 0.82189 0.0
C1681 C 0.33224 0.26954 0.86368 0.0
C1682 C 0.33164 0.26287 0.83063 0.0
H1683 H 0.31537 0.25332 0.90615 0.0
H1684 H 0.34136 0.29274 0.87518 0.0
C1685 C 0.31953 0.23278 0.81618 0.0
C1686 C 0.55874 0.04564 0.36309 0.0
C1687 C 0.54344 0.06848 0.35056 0.0
H1688 H 0.555 0.99798 0.36978 0.0
C1689 C 0.51129 0.05953 0.33431 0.0
H1690 H 0.58334 0.05162 0.37603 0.0
C1691 C 0.49508 0.02852 0.33032 0.0
C1692 C 0.5105 1.0056 0.34263 0.0
H1693 H 0.49874 0.07642 0.3242 0.0
H1694 H 0.47066 1.02248 0.31701 0.0
C1695 C 0.54248 1.01472 0.35932 0.0
C1696 C 0.70163 0.49689 0.59385 0.0
C1697 C 0.68714 0.48161 0.61776 0.0
H1698 H 0.69767 0.52867 0.55876 0.0
C1699 C 0.65478 0.48309 0.62119 0.0
H1700 H 0.7262 0.4957 0.59017 0.0
C1701 C 0.63814 0.50141 0.60263 0.0
C1702 C 0.6538 0.5186 0.5807 0.0
H1703 H 0.64265 0.47095 0.63897 0.0
H1704 H 0.61418 0.50392 0.60716 0.0
C1705 C 0.68512 0.51534 0.57556 0.0
C1706 C 0.42176 0.71444 0.3211 0.0
C1707 C 0.40715 0.70387 0.34751 0.0
H1708 H 0.42197 0.74578 0.28486 0.0
C1709 C 0.37501 0.70695 0.34911 0.0
H1710 H 0.44612 0.71165 0.31839 0.0
C1711 C 0.36049 0.72527 0.32845 0.0
C1712 C 0.37836 0.7412 0.30685 0.0
H1713 H 0.36278 0.69872 0.36872 0.0
H1714 H 0.33727 0.73034 0.33247 0.0
C1715 C 0.40799 0.73397 0.30166 0.0
C1716 C 0.16998 0.81313 0.12375 0.0
C1717 C 0.20287 0.82812 0.12895 0.0
H1718 H 0.13575 0.77037 0.11865 0.0
C1719 C 0.22715 0.81066 0.13084 0.0
H1720 H 0.15085 0.82618 0.12235 0.0
C1721 C 0.21847 0.77853 0.12919 0.0
C1722 C 0.18546 0.76368 0.12505 0.0
H1723 H 0.2527 0.82184 0.13529 0.0
H1724 H 0.23744 0.76535 0.13158 0.0
C1725 C 0.16135 0.78124 0.12166 0.0
C1726 C 0.11803 0.23823 0.86664 0.0
C1727 C 0.08659 0.22538 0.85034 0.0
H1728 H 0.16689 0.25977 0.86298 0.0
C1729 C 0.08128 0.22186 0.81663 0.0
H1730 H 0.12292 0.24109 0.89264 0.0
C1731 C 0.10655 0.23267 0.79959 0.0
C1732 C 0.13765 0.24677 0.81596 0.0
H1733 H 0.05733 0.21193 0.80341 0.0
H1734 H 0.10165 0.23035 0.77361 0.0
C1735 C 0.14329 0.2488 0.84964 0.0
C1736 C 0.5873 0.71652 1.01151 0.0
C1737 C 0.5951 0.72368 0.98079 0.0
H1738 H 0.58047 0.68373 0.04661 0.0
C1739 C 0.60182 0.69854 0.9619 0.0
H1740 H 0.58167 0.73423 0.02741 0.0
C1741 C 0.60039 0.66838 0.97307 0.0
C1742 C 0.59259 0.66151 1.00398 0.0
H1743 H 0.60757 0.70189 0.93804 0.0
H1744 H 0.60568 0.65037 0.95732 0.0
C1745 C 0.58642 0.68683 0.02276 0.0
C1746 C 0.20573 0.84867 0.71944 0.0
C1747 C 0.17905 0.82865 0.72873 0.0
H1748 H 0.25803 0.86505 0.72585 0.0
C1749 C 0.18656 0.81035 0.75368 0.0
H1750 H 0.20153 0.86304 0.70035 0.0
C1751 C 0.21883 0.81123 0.76803 0.0
C1752 C 0.24559 0.83066 0.75852 0.0
H1753 H 0.16731 0.7945 0.76198 0.0
H1754 H 0.22274 0.79618 0.78655 0.0
C1755 C 0.23836 0.84973 0.73415 0.0
C1756 C 0.11164 0.43395 0.50748 0.0
C1757 C 0.10756 0.42165 0.47495 0.0
H1758 H 0.11433 0.47273 0.54216 0.0
C1759 C 0.10226 0.44281 0.4521 0.0
H1760 H 0.11504 0.41901 0.52623 0.0
C1761 C 0.10065 0.47416 0.46144 0.0
C1762 C 0.105 0.48636 0.49418 0.0
H1763 H 0.09796 0.4348 0.42678 0.0
H1764 H 0.09586 0.48887 0.44282 0.0
C1765 C 0.11099 0.46526 0.51676 0.0
C1766 C 0.48548 0.34353 0.22588 0.0
C1767 C 0.49343 0.31469 0.21817 0.0
H1768 H 0.45269 0.36864 0.24632 0.0
C1769 C 0.47149 0.28865 0.22566 0.0
H1770 H 0.50145 0.36438 0.22127 0.0
C1771 C 0.44325 0.29101 0.23968 0.0
C1772 C 0.4355 0.31969 0.24812 0.0
H1773 H 0.4762 0.26589 0.22063 0.0
H1774 H 0.42758 0.27001 0.24437 0.0
C1775 C 0.4574 0.34597 0.24079 0.0
C1776 C 0.73698 0.58294 0.47142 0.0
C1777 C 0.72501 0.58899 0.44053 0.0
H1778 H 0.72487 0.57366 0.51782 0.0
C1779 C 0.69134 0.58165 0.42962 0.0
H1780 H 0.76289 0.58851 0.4802 0.0
C1781 C 0.66963 0.57253 0.45084 0.0
C1782 C 0.68162 0.57152 0.48316 0.0
H1783 H 0.68179 0.58605 0.40568 0.0
H1784 H 0.64379 0.57046 0.44298 0.0
C1785 C 0.71526 0.57446 0.49285 0.0
C1786 C 0.33721 0.86073 0.15514 0.0
C1787 C 0.3641 0.85572 0.14086 0.0
H1788 H 0.31312 0.85727 0.19661 0.0
C1789 C 0.38757 0.84244 0.15843 0.0
H1790 H 0.31874 0.87097 0.14238 0.0
C1791 C 0.38466 0.83505 0.18975 0.0
C1792 C 0.35789 0.8402 0.20407 0.0
H1793 H 0.40873 0.83844 0.14829 0.0
H1794 H 0.40342 0.82532 0.20274 0.0
C1795 C 0.334 0.85282 0.18625 0.0
C1796 C 0.13876 0.67972 0.95806 0.0
C1797 C 0.11145 0.67731 0.93425 0.0
H1798 H 0.15688 0.66249 1.0014 0.0
C1799 C 0.08026 0.66884 0.94274 0.0
H1800 H 0.16313 0.68754 0.95258 0.0
C1801 C 0.0767 0.65399 0.97033 0.0
C1802 C 0.10436 0.64906 0.98991 0.0
H1803 H 0.05866 0.66806 0.92549 0.0
H1804 H 0.05244 0.64312 0.97411 0.0
C1805 C 0.13526 0.665 0.98583 0.0
C1806 C 0.37865 0.26626 0.64952 0.0
C1807 C 0.35497 0.26811 0.62298 0.0
H1808 H 0.39595 0.27753 0.70068 0.0
C1809 C 0.33015 0.28363 0.62991 0.0
H1810 H 0.39822 0.25462 0.64588 0.0
C1811 C 0.32852 0.29616 0.66111 0.0
C1812 C 0.35186 0.29455 0.68772 0.0
H1813 H 0.31109 0.28593 0.61098 0.0
H1814 H 0.30857 0.30747 0.66421 0.0
C1815 C 0.3773 0.2795 0.68121 0.0
C1816 C 0.74678 0.62289 0.27975 0.0
C1817 C 0.75277 0.65009 0.30052 0.0
H1818 H 0.72081 0.59849 0.23544 0.0
C1819 C 0.74065 0.67551 0.29002 0.0
H1820 H 0.75583 0.60297 0.28713 0.0
C1821 C 0.72064 0.67294 0.26055 0.0
C1822 C 0.71252 0.64499 0.2409 0.0
H1823 H 0.74524 0.697 0.30527 0.0
H1824 H 0.71042 0.6924 0.25371 0.0
C1825 C 0.72678 0.62036 0.25013 0.0
C1826 C 0.33337 0.88319 0.93931 0.0
C1827 C 0.33636 0.86053 0.9605 0.0
H1828 H 0.32974 0.89411 0.89031 0.0
C1829 C 0.33375 0.8301 0.94742 0.0
H1830 H 0.33566 0.90693 0.94863 0.0
C1831 C 0.33016 0.82272 0.91422 0.0
C1832 C 0.32959 0.84563 0.89295 0.0
H1833 H 0.33595 0.8121 0.96301 0.0
H1834 H 0.32947 0.79912 0.90542 0.0
C1835 C 0.33023 0.87586 0.90587 0.0
C1836 C 0.19399 0.65408 0.77507 0.0
C1837 C 0.16589 0.66527 0.77939 0.0
H1838 H 0.22305 0.64098 0.74133 0.0
C1839 C 0.15276 0.68193 0.75588 0.0
H1840 H 0.20557 0.64221 0.79332 0.0
C1841 C 0.16383 0.68236 0.72625 0.0
C1842 C 0.187 0.66497 0.71965 0.0
H1843 H 0.13196 0.69197 0.75912 0.0
H1844 H 0.15104 0.69248 0.70722 0.0
C1845 C 0.20446 0.65383 0.74524 0.0
C1846 C 0.36261 0.293 0.43472 0.0
C1847 C 0.36216 0.26149 0.43832 0.0
H1848 H 0.36264 0.32947 0.4037 0.0
C1849 C 0.36231 0.24288 0.40971 0.0
H1850 H 0.36189 0.30838 0.45554 0.0
C1851 C 0.36187 0.25511 0.37915 0.0
C1852 C 0.36185 0.28667 0.37567 0.0
H1853 H 0.36107 0.21845 0.41058 0.0
H1854 H 0.36086 0.23952 0.358 0.0
C1855 C 0.36292 0.30529 0.40452 0.0
C1856 C 0.40187 0.65609 0.53221 0.0
C1857 C 0.38835 0.66728 0.50443 0.0
H1858 H 0.4333 0.62807 0.5524 0.0
C1859 C 0.39637 0.65754 0.47465 0.0
H1860 H 0.39585 0.66274 0.55546 0.0
C1861 C 0.41829 0.63789 0.47287 0.0
C1862 C 0.43267 0.62743 0.50083 0.0
H1863 H 0.38634 0.66571 0.45275 0.0
H1864 H 0.42492 0.63195 0.44971 0.0
C1865 C 0.42352 0.63627 0.53041 0.0
C1866 C 0.95327 1.01586 0.58154 0.0
C1867 C 0.92854 1.00655 0.5548 0.0
H1868 H 1.00245 0.03905 0.60006 0.0
C1869 C 0.93644 1.01551 0.52486 0.0
H1870 H 0.9489 1.00866 0.6048 0.0
C1871 C 0.96796 0.0325 0.52182 0.0
C1872 C 0.99287 0.04136 0.54865 0.0
H1873 H 0.91877 1.0079 0.50338 0.0
H1874 H 0.97303 0.03796 0.49821 0.0
C1875 C 0.98442 0.03317 0.57865 0.0
C1876 C 0.85957 0.10062 0.22911 0.0
C1877 C 0.84342 0.07214 0.23708 0.0
H1878 H 0.86517 0.14947 0.23475 0.0
C1879 C 0.81829 0.07135 0.25577 0.0
H1880 H 0.87914 0.10202 0.21485 0.0
C1881 C 0.80998 0.09861 0.26689 0.0
C1882 C 0.82675 0.12718 0.25965 0.0
H1883 H 0.80526 0.04971 0.26214 0.0
H1884 H 0.79052 0.09731 0.28127 0.0
C1885 C 0.85142 0.12784 0.24037 0.0
C1886 C 0.73084 0.15178 1.01594 0.0
C1887 C 0.73534 0.17701 0.03922 0.0
H1888 H 0.70142 0.1075 0.99688 0.0
C1889 C 0.71522 0.17585 0.06305 0.0
H1890 H 0.74619 0.1523 0.99736 0.0
C1891 C 0.69074 0.15002 0.06353 0.0
C1892 C 0.68525 0.12524 0.03958 0.0
H1893 H 0.71844 0.19498 0.08135 0.0
H1894 H 0.67516 0.15004 0.08189 0.0
C1895 C 0.70544 0.12626 1.01572 0.0
C1896 C 0.24159 0.49029 0.28186 0.0
C1897 C 0.22117 0.49469 0.30458 0.0
H1898 H 0.28702 0.48005 0.27325 0.0
C1899 C 0.23302 0.49516 0.33737 0.0
H1900 H 0.23326 0.49004 0.25644 0.0
C1901 C 0.26403 0.48947 0.34708 0.0
C1902 C 0.28384 0.48364 0.32417 0.0
H1903 H 0.21787 0.49863 0.35545 0.0
H1904 H 0.27211 0.48867 0.37238 0.0
C1905 C 0.2726 0.48493 0.29155 0.0
C1906 C 0.20059 0.49731 1.00357 0.0
C1907 C 0.2268 0.49809 0.02862 0.0
H1908 H 0.1558 0.51116 0.98672 0.0
C1909 C 0.22579 0.5159 0.05752 0.0
H1910 H 0.19963 0.48417 0.98076 0.0
C1911 C 0.19972 0.53161 0.06105 0.0
C1912 C 0.17352 0.53057 0.03579 0.0
H1913 H 0.24489 0.51737 0.0777 0.0
H1914 H 0.20013 0.54459 0.08381 0.0
C1915 C 0.17494 0.51307 1.00697 0.0
C1916 C 0.80959 0.92736 0.20867 0.0
C1917 C 0.82421 0.92107 0.18151 0.0
H1918 H 0.80329 0.91536 0.25609 0.0
C1919 C 0.82965 0.89121 0.17527 0.0
H1920 H 0.80329 0.9495 0.21341 0.0
C1921 C 0.83116 0.87249 0.2002 0.0
C1922 C 0.82425 0.88241 0.23024 0.0
H1923 H 0.83899 0.88478 0.15368 0.0
H1924 H 0.84025 0.85156 0.19681 0.0
C1925 C 0.81022 0.9082 0.23343 0.0
C1926 C 0.67191 0.07664 0.75696 0.0
C1927 C 0.63818 0.07078 0.74596 0.0
H1928 H 0.71671 0.10998 0.76792 0.0
C1929 C 0.6237 0.09584 0.73893 0.0
H1930 H 0.68403 0.05798 0.76257 0.0
C1931 C 0.64252 0.12585 0.74231 0.0
C1932 C 0.67637 0.13164 0.75276 0.0
H1933 H 0.59781 0.09231 0.73054 0.0
H1934 H 0.63047 0.14455 0.73675 0.0
C1935 C 0.69072 0.1066 0.76027 0.0
loop_
_geom_bond_atom_site_label_1
_geom_bond_atom_site_label_2
_geom_bond_distance
_geom_bond_site_symmetry_2
_ccdc_geom_bond_type
Zn0 O3 2.031 . S
Zn0 O5 2.049 . S
Zn0 O10 2.067 1_455 S
Zn1 O2 1.962 . S
Zn1 O4 1.986 . S
Zn1 O6 1.996 . S
Zn1 O9 1.943 . S
O2 Zn1 1.962 . S
O2 C7 1.254 . S
O3 Zn0 2.031 . S
O3 C7 1.269 . S
O4 Zn1 1.986 . S
O4 C11 1.262 . S
O5 Zn0 2.049 . S
O5 C13 1.260 . S
O6 Zn1 1.996 . S
O6 C13 1.257 . S
C7 O2 1.254 . S
C7 O3 1.269 . S
C8 O9 1.249 . S
C8 O10 1.270 1_455 S
O9 Zn1 1.943 . S
O9 C8 1.249 . S
O10 Zn0 2.067 1_655 S
O10 C8 1.270 1_655 S
C11 O4 1.262 . S
C11 O12 1.232 . S
O12 C11 1.232 . S
C13 O5 1.260 . S
C13 O6 1.257 . S
Zn14 O17 2.031 . S
Zn14 O19 2.049 . S
Zn14 O24 2.067 . S
Zn15 O16 1.962 . S
Zn15 O18 1.986 . S
Zn15 O20 1.996 . S
Zn15 O23 1.943 . S
O16 Zn15 1.962 . S
O16 C21 1.254 1_455 S
O17 Zn14 2.031 . S
O17 C21 1.269 1_455 S
O18 Zn15 1.986 . S
O18 C25 1.262 . S
O19 Zn14 2.049 . S
O19 C27 1.260 . S
O20 Zn15 1.996 . S
O20 C27 1.257 . S
C21 O16 1.254 1_655 S
C21 O17 1.269 1_655 S
C22 O23 1.249 . S
C22 O24 1.270 . S
O23 Zn15 1.943 . S
O23 C22 1.249 . S
O24 Zn14 2.067 . S
O24 C22 1.270 . S
C25 O18 1.262 . S
C25 O26 1.232 . S
O26 C25 1.232 . S
C27 O19 1.260 . S
C27 O20 1.257 . S
Zn28 O31 2.031 . S
Zn28 O33 2.049 . S
Zn28 O38 2.067 . S
Zn29 O30 1.962 . S
Zn29 O32 1.986 . S
Zn29 O34 1.996 . S
Zn29 O37 1.943 . S
O30 Zn29 1.962 . S
O30 C35 1.254 . S
O31 Zn28 2.031 . S
O31 C35 1.269 . S
O32 Zn29 1.986 . S
O32 C39 1.262 . S
O33 Zn28 2.049 . S
O33 C41 1.260 . S
O34 Zn29 1.996 . S
O34 C41 1.257 . S
C35 O30 1.254 . S
C35 O31 1.269 . S
C36 O37 1.249 . S
C36 O38 1.270 . S
O37 Zn29 1.943 . S
O37 C36 1.249 . S
O38 Zn28 2.067 . S
O38 C36 1.270 . S
C39 O32 1.262 . S
C39 O40 1.232 . S
O40 C39 1.232 . S
C41 O33 1.260 . S
C41 O34 1.257 . S
Zn42 O45 2.031 . S
Zn42 O47 2.049 . S
Zn42 O52 2.067 . S
Zn43 O44 1.962 . S
Zn43 O46 1.986 . S
Zn43 O48 1.996 . S
Zn43 O51 1.943 . S
O44 Zn43 1.962 . S
O44 C49 1.254 . S
O45 Zn42 2.031 . S
O45 C49 1.269 . S
O46 Zn43 1.986 . S
O46 C53 1.262 . S
O47 Zn42 2.049 . S
O47 C55 1.260 . S
O48 Zn43 1.996 . S
O48 C55 1.257 . S
C49 O44 1.254 . S
C49 O45 1.269 . S
C50 O51 1.249 . S
C50 O52 1.270 . S
O51 Zn43 1.943 . S
O51 C50 1.249 . S
O52 Zn42 2.067 . S
O52 C50 1.270 . S
C53 O46 1.262 . S
C53 O54 1.232 . S
O54 C53 1.232 . S
C55 O47 1.260 . S
C55 O48 1.257 . S
Zn56 O59 2.031 . S
Zn56 O61 2.049 . S
Zn56 O66 2.067 . S
Zn57 O58 1.962 . S
Zn57 O60 1.986 . S
Zn57 O62 1.996 . S
Zn57 O65 1.943 . S
O58 Zn57 1.962 . S
O58 C63 1.254 . S
O59 Zn56 2.031 . S
O59 C63 1.269 . S
O60 Zn57 1.986 . S
O60 C67 1.262 . S
O61 Zn56 2.049 . S
O61 C69 1.260 . S
O62 Zn57 1.996 . S
O62 C69 1.257 . S
C63 O58 1.254 . S
C63 O59 1.269 . S
C64 O65 1.249 . S
C64 O66 1.270 . S
O65 Zn57 1.943 . S
O65 C64 1.249 . S
O66 Zn56 2.067 . S
O66 C64 1.270 . S
C67 O60 1.262 . S
C67 O68 1.232 . S
O68 C67 1.232 . S
C69 O61 1.260 . S
C69 O62 1.257 . S
Zn70 O73 2.031 . S
Zn70 O75 2.049 . S
Zn70 O80 2.067 . S
Zn71 O72 1.962 . S
Zn71 O74 1.986 . S
Zn71 O76 1.996 . S
Zn71 O79 1.943 . S
O72 Zn71 1.962 . S
O72 C77 1.254 . S
O73 Zn70 2.031 . S
O73 C77 1.269 . S
O74 Zn71 1.986 . S
O74 C81 1.262 . S
O75 Zn70 2.049 . S
O75 C83 1.260 . S
O76 Zn71 1.996 . S
O76 C83 1.257 . S
C77 O72 1.254 . S
C77 O73 1.269 . S
C78 O79 1.249 . S
C78 O80 1.270 . S
O79 Zn71 1.943 . S
O79 C78 1.249 . S
O80 Zn70 2.067 . S
O80 C78 1.270 . S
C81 O74 1.262 . S
C81 O82 1.232 . S
O82 C81 1.232 . S
C83 O75 1.260 . S
C83 O76 1.257 . S
Zn84 O87 2.031 . S
Zn84 O89 2.049 . S
Zn84 O94 2.067 . S
Zn85 O86 1.962 . S
Zn85 O88 1.986 . S
Zn85 O90 1.996 . S
Zn85 O93 1.943 . S
O86 Zn85 1.962 . S
O86 C91 1.254 . S
O87 Zn84 2.031 . S
O87 C91 1.269 . S
O88 Zn85 1.986 . S
O88 C95 1.262 . S
O89 Zn84 2.049 . S
O89 C97 1.260 . S
O90 Zn85 1.996 . S
O90 C97 1.257 . S
C91 O86 1.254 . S
C91 O87 1.269 . S
C92 O93 1.249 . S
C92 O94 1.270 . S
O93 Zn85 1.943 . S
O93 C92 1.249 . S
O94 Zn84 2.067 . S
O94 C92 1.270 . S
C95 O88 1.262 . S
C95 O96 1.232 . S
O96 C95 1.232 . S
C97 O89 1.260 . S
C97 O90 1.257 . S
Zn98 O101 2.031 . S
Zn98 O103 2.049 . S
Zn98 O108 2.067 . S
Zn99 O100 1.962 . S
Zn99 O102 1.986 . S
Zn99 O104 1.996 . S
Zn99 O107 1.943 1_455 S
O100 Zn99 1.962 . S
O100 C105 1.254 . S
O101 Zn98 2.031 . S
O101 C105 1.269 1_655 S
O102 Zn99 1.986 . S
O102 C109 1.262 . S
O103 Zn98 2.049 . S
O103 C111 1.260 . S
O104 Zn99 1.996 . S
O104 C111 1.257 1_455 S
C105 O100 1.254 . S
C105 O101 1.269 1_455 S
C106 O107 1.249 . S
C106 O108 1.270 . S
O107 Zn99 1.943 1_655 S
O107 C106 1.249 . S
O108 Zn98 2.067 . S
O108 C106 1.270 . S
C109 O102 1.262 . S
C109 O110 1.232 . S
O110 C109 1.232 . S
C111 O103 1.260 . S
C111 O104 1.257 1_655 S
Zn112 O115 2.031 . S
Zn112 O117 2.049 . S
Zn112 O122 2.067 . S
Zn113 O114 1.962 . S
Zn113 O116 1.986 . S
Zn113 O118 1.996 . S
Zn113 O121 1.943 . S
O114 Zn113 1.962 . S
O114 C119 1.254 . S
O115 Zn112 2.031 . S
O115 C119 1.269 . S
O116 Zn113 1.986 . S
O116 C123 1.262 . S
O117 Zn112 2.049 . S
O117 C125 1.260 . S
O118 Zn113 1.996 . S
O118 C125 1.257 . S
C119 O114 1.254 . S
C119 O115 1.269 . S
C120 O121 1.249 . S
C120 O122 1.270 . S
O121 Zn113 1.943 . S
O121 C120 1.249 . S
O122 Zn112 2.067 . S
O122 C120 1.270 . S
C123 O116 1.262 . S
C123 O124 1.232 . S
O124 C123 1.232 . S
C125 O117 1.260 . S
C125 O118 1.257 . S
Zn126 O129 2.031 . S
Zn126 O131 2.049 . S
Zn126 O136 2.067 . S
Zn127 O128 1.962 . S
Zn127 O130 1.986 . S
Zn127 O132 1.996 . S
Zn127 O135 1.943 . S
O128 Zn127 1.962 . S
O128 C133 1.254 . S
O129 Zn126 2.031 . S
O129 C133 1.269 . S
O130 Zn127 1.986 . S
O130 C137 1.262 . S
O131 Zn126 2.049 . S
O131 C139 1.260 . S
O132 Zn127 1.996 . S
O132 C139 1.257 . S
C133 O128 1.254 . S
C133 O129 1.269 . S
C134 O135 1.249 . S
C134 O136 1.270 . S
O135 Zn127 1.943 . S
O135 C134 1.249 . S
O136 Zn126 2.067 . S
O136 C134 1.270 . S
C137 O130 1.262 . S
C137 O138 1.232 . S
O138 C137 1.232 . S
C139 O131 1.260 . S
C139 O132 1.257 . S
Zn140 O143 2.031 . S
Zn140 O145 2.049 . S
Zn140 O150 2.067 . S
Zn141 O142 1.962 . S
Zn141 O144 1.986 . S
Zn141 O146 1.996 . S
Zn141 O149 1.943 . S
O142 Zn141 1.962 . S
O142 C147 1.254 . S
O143 Zn140 2.031 . S
O143 C147 1.269 . S
O144 Zn141 1.986 . S
O144 C151 1.262 . S
O145 Zn140 2.049 . S
O145 C153 1.260 . S
O146 Zn141 1.996 . S
O146 C153 1.257 . S
C147 O142 1.254 . S
C147 O143 1.269 . S
C148 O149 1.249 . S
C148 O150 1.270 . S
O149 Zn141 1.943 . S
O149 C148 1.249 . S
O150 Zn140 2.067 . S
O150 C148 1.270 . S
C151 O144 1.262 . S
C151 O152 1.232 . S
O152 C151 1.232 . S
C153 O145 1.260 . S
C153 O146 1.257 . S
Zn154 O157 2.031 . S
Zn154 O159 2.049 . S
Zn154 O164 2.067 . S
Zn155 O156 1.962 . S
Zn155 O158 1.986 . S
Zn155 O160 1.996 . S
Zn155 O163 1.943 . S
O156 Zn155 1.962 . S
O156 C161 1.254 . S
O157 Zn154 2.031 . S
O157 C161 1.269 . S
O158 Zn155 1.986 . S
O158 C165 1.262 . S
O159 Zn154 2.049 . S
O159 C167 1.260 . S
O160 Zn155 1.996 . S
O160 C167 1.257 . S
C161 O156 1.254 . S
C161 O157 1.269 . S
C162 O163 1.249 . S
C162 O164 1.270 . S
O163 Zn155 1.943 . S
O163 C162 1.249 . S
O164 Zn154 2.067 . S
O164 C162 1.270 . S
C165 O158 1.262 . S
C165 O166 1.232 . S
O166 C165 1.232 . S
C167 O159 1.260 . S
C167 O160 1.257 . S
Zn168 O171 2.031 1_554 S
Zn168 O173 2.049 . S
Zn168 O178 2.067 . S
Zn169 O170 1.962 1_554 S
Zn169 O172 1.986 . S
Zn169 O174 1.996 . S
Zn169 O177 1.943 . S
O170 Zn169 1.962 1_556 S
O170 C175 1.254 . S
O171 Zn168 2.031 1_556 S
O171 C175 1.269 . S
O172 Zn169 1.986 . S
O172 C179 1.262 . S
O173 Zn168 2.049 . S
O173 C181 1.260 . S
O174 Zn169 1.996 . S
O174 C181 1.257 . S
C175 O170 1.254 . S
C175 O171 1.269 . S
C176 O177 1.249 . S
C176 O178 1.270 . S
O177 Zn169 1.943 . S
O177 C176 1.249 . S
O178 Zn168 2.067 . S
O178 C176 1.270 . S
C179 O172 1.262 . S
C179 O180 1.232 . S
O180 C179 1.232 . S
C181 O173 1.260 . S
C181 O174 1.257 . S
Zn182 O185 2.031 1_554 S
Zn182 O187 2.049 . S
Zn182 O192 2.067 . S
Zn183 O184 1.961 . S
Zn183 O186 1.986 1_556 S
Zn183 O188 1.997 1_556 S
Zn183 O191 1.943 . S
O184 Zn183 1.961 . S
O184 C189 1.254 . S
O185 Zn182 2.031 1_556 S
O185 C189 1.269 . S
O186 Zn183 1.986 1_554 S
O186 C193 1.262 . S
O187 Zn182 2.049 . S
O187 C195 1.260 . S
O188 Zn183 1.997 1_554 S
O188 C195 1.257 . S
C189 O184 1.254 . S
C189 O185 1.269 . S
C190 O191 1.249 . S
C190 O192 1.270 1_556 S
O191 Zn183 1.943 . S
O191 C190 1.249 . S
O192 Zn182 2.067 . S
O192 C190 1.270 1_554 S
C193 O186 1.262 . S
C193 O194 1.232 1_554 S
O194 C193 1.232 1_556 S
C195 O187 1.260 . S
C195 O188 1.257 . S
Zn196 O199 2.031 . S
Zn196 O201 2.049 . S
Zn196 O206 2.067 . S
Zn197 O198 1.962 . S
Zn197 O200 1.986 . S
Zn197 O202 1.996 . S
Zn197 O205 1.943 . S
O198 Zn197 1.962 . S
O198 C203 1.254 . S
O199 Zn196 2.031 . S
O199 C203 1.269 . S
O200 Zn197 1.986 . S
O200 C207 1.262 . S
O201 Zn196 2.049 . S
O201 C209 1.260 . S
O202 Zn197 1.996 . S
O202 C209 1.257 . S
C203 O198 1.254 . S
C203 O199 1.269 . S
C204 O205 1.249 . S
C204 O206 1.270 . S
O205 Zn197 1.943 . S
O205 C204 1.249 . S
O206 Zn196 2.067 . S
O206 C204 1.270 . S
C207 O200 1.262 . S
C207 O208 1.232 . S
O208 C207 1.232 . S
C209 O201 1.260 . S
C209 O202 1.257 . S
Zn210 O213 2.031 . S
Zn210 O215 2.049 . S
Zn210 O220 2.067 . S
Zn211 O212 1.962 . S
Zn211 O214 1.986 . S
Zn211 O216 1.996 . S
Zn211 O219 1.943 . S
O212 Zn211 1.962 . S
O212 C217 1.254 . S
O213 Zn210 2.031 . S
O213 C217 1.269 . S
O214 Zn211 1.986 . S
O214 C221 1.262 . S
O215 Zn210 2.049 . S
O215 C223 1.260 . S
O216 Zn211 1.996 . S
O216 C223 1.257 . S
C217 O212 1.254 . S
C217 O213 1.269 . S
C218 O219 1.249 . S
C218 O220 1.270 . S
O219 Zn211 1.943 . S
O219 C218 1.249 . S
O220 Zn210 2.067 . S
O220 C218 1.270 . S
C221 O214 1.262 . S
C221 O222 1.232 . S
O222 C221 1.232 . S
C223 O215 1.260 . S
C223 O216 1.257 . S
Zn224 O227 2.031 . S
Zn224 O229 2.049 . S
Zn224 O234 2.067 . S
Zn225 O226 1.962 . S
Zn225 O228 1.986 . S
Zn225 O230 1.996 . S
Zn225 O233 1.943 1_545 S
O226 Zn225 1.962 . S
O226 C231 1.266 . S
O227 Zn224 2.031 . S
O227 C231 1.257 1_565 S
O228 Zn225 1.986 . S
O228 C235 1.262 . S
O229 Zn224 2.049 . S
O229 C237 1.260 . S
O230 Zn225 1.996 . S
O230 C237 1.257 1_545 S
C231 O226 1.266 . S
C231 O227 1.257 1_545 S
C232 O233 1.249 . S
C232 O234 1.270 . S
O233 Zn225 1.943 1_565 S
O233 C232 1.249 . S
O234 Zn224 2.067 . S
O234 C232 1.270 . S
C235 O228 1.262 . S
C235 O236 1.232 . S
O236 C235 1.232 . S
C237 O229 1.260 . S
C237 O230 1.257 1_565 S
Zn238 O241 2.031 . S
Zn238 O243 2.049 . S
Zn238 O248 2.067 . S
Zn239 O240 1.962 . S
Zn239 O242 1.986 . S
Zn239 O244 1.996 . S
Zn239 O247 1.943 . S
O240 Zn239 1.962 . S
O240 C245 1.254 . S
O241 Zn238 2.031 . S
O241 C245 1.269 . S
O242 Zn239 1.986 . S
O242 C249 1.262 . S
O243 Zn238 2.049 . S
O243 C251 1.260 . S
O244 Zn239 1.996 . S
O244 C251 1.257 . S
C245 O240 1.254 . S
C245 O241 1.269 . S
C246 O247 1.249 . S
C246 O248 1.270 . S
O247 Zn239 1.943 . S
O247 C246 1.249 . S
O248 Zn238 2.067 . S
O248 C246 1.270 . S
C249 O242 1.262 . S
C249 O250 1.232 . S
O250 C249 1.232 . S
C251 O243 1.260 . S
C251 O244 1.257 . S
Zn252 O255 2.031 . S
Zn252 O257 2.049 . S
Zn252 O262 2.067 . S
Zn253 O254 1.962 . S
Zn253 O256 1.986 . S
Zn253 O258 1.996 . S
Zn253 O261 1.943 . S
O254 Zn253 1.962 . S
O254 C259 1.254 . S
O255 Zn252 2.031 . S
O255 C259 1.269 . S
O256 Zn253 1.986 . S
O256 C263 1.262 . S
O257 Zn252 2.049 . S
O257 C265 1.260 . S
O258 Zn253 1.996 . S
O258 C265 1.257 . S
C259 O254 1.254 . S
C259 O255 1.269 . S
C260 O261 1.249 . S
C260 O262 1.270 . S
O261 Zn253 1.943 . S
O261 C260 1.249 . S
O262 Zn252 2.067 . S
O262 C260 1.270 . S
C263 O256 1.262 . S
C263 O264 1.232 . S
O264 C263 1.232 . S
C265 O257 1.260 . S
C265 O258 1.257 . S
Zn266 O269 2.031 . S
Zn266 O271 2.049 . S
Zn266 O276 2.067 . S
Zn267 O268 1.962 . S
Zn267 O270 1.986 . S
Zn267 O272 1.996 . S
Zn267 O275 1.943 1_565 S
O268 Zn267 1.962 . S
O268 C273 1.254 1_565 S
O269 Zn266 2.031 . S
O269 C273 1.269 . S
O270 Zn267 1.986 . S
O270 C277 1.262 . S
O271 Zn266 2.049 . S
O271 C279 1.260 . S
O272 Zn267 1.996 . S
O272 C279 1.257 1_565 S
C273 O268 1.254 1_545 S
C273 O269 1.269 . S
C274 O275 1.249 . S
C274 O276 1.270 . S
O275 Zn267 1.943 1_545 S
O275 C274 1.249 . S
O276 Zn266 2.067 . S
O276 C274 1.270 . S
C277 O270 1.262 . S
C277 O278 1.232 . S
O278 C277 1.232 . S
C279 O271 1.260 . S
C279 O272 1.257 1_545 S
Zn280 O283 2.031 1_554 S
Zn280 O285 2.049 . S
Zn280 O290 2.067 . S
Zn281 O282 1.962 1_554 S
Zn281 O284 1.986 . S
Zn281 O286 1.996 . S
Zn281 O289 1.943 . S
O282 Zn281 1.962 1_556 S
O282 C287 1.254 . S
O283 Zn280 2.031 1_556 S
O283 C287 1.269 . S
O284 Zn281 1.986 . S
O284 C291 1.262 . S
O285 Zn280 2.049 . S
O285 C293 1.260 . S
O286 Zn281 1.996 . S
O286 C293 1.257 . S
C287 O282 1.254 . S
C287 O283 1.269 . S
C288 O289 1.249 . S
C288 O290 1.270 . S
O289 Zn281 1.943 . S
O289 C288 1.249 . S
O290 Zn280 2.067 . S
O290 C288 1.270 . S
C291 O284 1.262 . S
C291 O292 1.232 1_554 S
O292 C291 1.232 1_556 S
C293 O285 1.260 . S
C293 O286 1.257 . S
Zn294 O297 2.031 . S
Zn294 O299 2.049 . S
Zn294 O304 2.067 1_455 S
Zn295 O296 1.974 . S
Zn295 O298 1.973 1_455 S
Zn295 O300 2.018 . S
Zn295 O303 1.932 1_455 S
O296 Zn295 1.974 . S
O296 C301 1.254 . S
O297 Zn294 2.031 . S
O297 C301 1.269 . S
O298 Zn295 1.973 1_655 S
O298 C305 1.262 . S
O299 Zn294 2.049 . S
O299 C307 1.260 . S
O300 Zn295 2.018 . S
O300 C307 1.257 . S
C301 O296 1.254 . S
C301 O297 1.269 . S
C302 O303 1.249 . S
C302 O304 1.270 . S
O303 Zn295 1.932 1_655 S
O303 C302 1.249 . S
O304 Zn294 2.067 1_655 S
O304 C302 1.270 . S
C305 O298 1.262 . S
C305 O306 1.232 . S
O306 C305 1.232 . S
C307 O299 1.260 . S
C307 O300 1.257 . S
Zn308 O311 2.031 . S
Zn308 O313 2.049 . S
Zn308 O318 2.067 . S
Zn309 O310 1.962 . S
Zn309 O312 1.986 . S
Zn309 O314 1.996 . S
Zn309 O317 1.943 . S
O310 Zn309 1.962 . S
O310 C315 1.254 . S
O311 Zn308 2.031 . S
O311 C315 1.269 . S
O312 Zn309 1.986 . S
O312 C319 1.262 . S
O313 Zn308 2.049 . S
O313 C321 1.260 . S
O314 Zn309 1.996 . S
O314 C321 1.257 . S
C315 O310 1.254 . S
C315 O311 1.269 . S
C316 O317 1.249 . S
C316 O318 1.270 . S
O317 Zn309 1.943 . S
O317 C316 1.249 . S
O318 Zn308 2.067 . S
O318 C316 1.270 . S
C319 O312 1.262 . S
C319 O320 1.232 . S
O320 C319 1.232 . S
C321 O313 1.260 . S
C321 O314 1.257 . S
Zn322 O325 2.031 . S
Zn322 O327 2.049 . S
Zn322 O332 2.067 . S
Zn323 O324 1.962 . S
Zn323 O326 1.986 . S
Zn323 O328 1.996 . S
Zn323 O331 1.943 . S
O324 Zn323 1.962 . S
O324 C329 1.254 . S
O325 Zn322 2.031 . S
O325 C329 1.269 . S
O326 Zn323 1.986 . S
O326 C333 1.262 . S
O327 Zn322 2.049 . S
O327 C335 1.260 . S
O328 Zn323 1.996 . S
O328 C335 1.257 . S
C329 O324 1.254 . S
C329 O325 1.269 . S
C330 O331 1.249 . S
C330 O332 1.270 . S
O331 Zn323 1.943 . S
O331 C330 1.249 . S
O332 Zn322 2.067 . S
O332 C330 1.270 . S
C333 O326 1.262 . S
C333 O334 1.232 . S
O334 C333 1.232 . S
C335 O327 1.260 . S
C335 O328 1.257 . S
Tb336 C346 2.825 1_454 S
Tb336 O347 2.347 . S
Tb336 O350 2.366 . S
Tb336 O355 2.418 1_554 S
Tb336 O356 2.384 . S
Tb336 O359 2.479 1_454 S
Tb336 O360 2.471 1_455 S
Eu337 O348 2.418 . S
Eu337 O349 2.384 . S
Eu337 O352 2.479 . S
Eu337 O353 2.471 . S
Eu337 O354 2.347 . S
Eu337 O357 2.366 . S
Eu337 C367 2.825 . S
C338 O354 1.259 1_556 S
C338 O355 1.265 . S
C339 O356 1.255 . S
C339 O357 1.265 . S
C340 C342 1.380 . S
C340 C343 1.374 . S
C340 C346 1.507 . S
C341 C342 1.384 . S
C341 C345 1.387 . S
C341 H368 0.930 . S
C342 C340 1.380 . S
C342 C341 1.384 . S
C342 H369 0.931 . S
C343 C340 1.374 . S
C343 C344 1.390 . S
C343 H370 0.930 1_556 S
C344 C343 1.390 . S
C344 C345 1.391 . S
C344 H371 0.930 . S
C345 C341 1.387 . S
C345 C344 1.391 . S
C346 Tb336 2.825 1_656 S
C346 C340 1.507 . S
C346 O359 1.238 . S
C346 O360 1.247 1_556 S
O347 Tb336 2.347 . S
O347 C351 1.259 . S
O348 Eu337 2.418 . S
O348 C351 1.265 . S
O349 Eu337 2.384 . S
O349 C358 1.255 . S
O350 Tb336 2.366 . S
O350 C358 1.265 . S
C351 O347 1.259 . S
C351 O348 1.265 . S
O352 Eu337 2.479 . S
O352 C367 1.238 . S
O353 Eu337 2.471 . S
O353 C367 1.247 . S
O354 Eu337 2.347 . S
O354 C338 1.259 1_554 S
O355 Tb336 2.418 1_556 S
O355 C338 1.265 . S
O356 Tb336 2.384 . S
O356 C339 1.255 . S
O357 Eu337 2.366 . S
O357 C339 1.265 . S
C358 O349 1.255 . S
C358 O350 1.265 . S
O359 Tb336 2.479 1_656 S
O359 C346 1.238 . S
O360 Tb336 2.471 1_655 S
O360 C346 1.247 1_554 S
C361 C364 1.380 . S
C361 C365 1.374 . S
C361 C367 1.507 . S
C362 C363 1.387 . S
C362 C366 1.391 . S
C363 C362 1.387 . S
C363 C364 1.384 . S
C363 H372 0.930 . S
C364 C361 1.380 . S
C364 C363 1.384 . S
C364 H373 0.931 . S
C365 C361 1.374 . S
C365 C366 1.390 . S
C365 H374 0.930 . S
C366 C362 1.391 . S
C366 C365 1.390 . S
C366 H375 0.930 . S
C367 Eu337 2.825 . S
C367 O352 1.238 . S
C367 O353 1.247 . S
C367 C361 1.507 . S
H368 C341 0.930 . S
H369 C342 0.931 . S
H370 C343 0.930 1_554 S
H371 C344 0.930 . S
H372 C363 0.930 . S
H373 C364 0.931 . S
H374 C365 0.930 . S
H375 C366 0.930 . S
Tb376 C386 2.825 . S
Tb376 O387 2.347 . S
Tb376 O390 2.366 . S
Tb376 O395 2.418 . S
Tb376 O396 2.384 . S
Tb376 O399 2.479 . S
Tb376 O400 2.471 . S
Eu377 O388 2.418 . S
Eu377 O389 2.384 . S
Eu377 O392 2.479 . S
Eu377 O393 2.471 . S
Eu377 O394 2.347 . S
Eu377 O397 2.366 . S
Eu377 C407 2.825 . S
C378 O394 1.259 . S
C378 O395 1.265 . S
C379 O396 1.255 . S
C379 O397 1.265 . S
C380 C382 1.380 . S
C380 C383 1.374 . S
C380 C386 1.507 . S
C381 C382 1.384 . S
C381 C385 1.387 . S
C381 H408 0.930 . S
C382 C380 1.380 . S
C382 C381 1.384 . S
C382 H409 0.931 . S
C383 C380 1.374 . S
C383 C384 1.390 . S
C383 H410 0.930 . S
C384 C383 1.390 . S
C384 C385 1.391 . S
C384 H411 0.930 . S
C385 C381 1.387 . S
C385 C384 1.391 . S
C386 Tb376 2.825 . S
C386 C380 1.507 . S
C386 O399 1.238 . S
C386 O400 1.247 . S
O387 Tb376 2.347 . S
O387 C391 1.259 . S
O388 Eu377 2.418 . S
O388 C391 1.265 . S
O389 Eu377 2.384 . S
O389 C398 1.255 . S
O390 Tb376 2.366 . S
O390 C398 1.265 . S
C391 O387 1.259 . S
C391 O388 1.265 . S
O392 Eu377 2.479 . S
O392 C407 1.238 . S
O393 Eu377 2.471 . S
O393 C407 1.247 . S
O394 Eu377 2.347 . S
O394 C378 1.259 . S
O395 Tb376 2.418 . S
O395 C378 1.265 . S
O396 Tb376 2.384 . S
O396 C379 1.255 . S
O397 Eu377 2.366 . S
O397 C379 1.265 . S
C398 O389 1.255 . S
C398 O390 1.265 . S
O399 Tb376 2.479 . S
O399 C386 1.238 . S
O400 Tb376 2.471 . S
O400 C386 1.247 . S
C401 C404 1.380 . S
C401 C405 1.374 . S
C401 C407 1.507 . S
C402 C403 1.387 . S
C402 C406 1.391 . S
C403 C402 1.387 . S
C403 C404 1.384 . S
C403 H412 0.930 . S
C404 C401 1.380 . S
C404 C403 1.384 . S
C404 H413 0.931 . S
C405 C401 1.374 . S
C405 C406 1.390 . S
C405 H414 0.930 . S
C406 C402 1.391 . S
C406 C405 1.390 . S
C406 H415 0.930 . S
C407 Eu377 2.825 . S
C407 O392 1.238 . S
C407 O393 1.247 . S
C407 C401 1.507 . S
H408 C381 0.930 . S
H409 C382 0.931 . S
H410 C383 0.930 . S
H411 C384 0.930 . S
H412 C403 0.930 . S
H413 C404 0.931 . S
H414 C405 0.930 . S
H415 C406 0.930 . S
Tb416 C426 2.825 1_545 S
Tb416 O427 2.347 . S
Tb416 O430 2.366 . S
Tb416 O435 2.418 . S
Tb416 O436 2.384 . S
Tb416 O439 2.479 1_545 S
Tb416 O440 2.471 1_545 S
Eu417 O428 2.418 . S
Eu417 O429 2.384 . S
Eu417 O432 2.479 . S
Eu417 O433 2.471 . S
Eu417 O434 2.347 . S
Eu417 O437 2.366 . S
Eu417 C447 2.825 . S
C418 O434 1.259 . S
C418 O435 1.265 . S
C419 O436 1.255 . S
C419 O437 1.265 . S
C420 C422 1.380 . S
C420 C423 1.374 . S
C420 C426 1.507 . S
C421 C422 1.384 . S
C421 C425 1.387 . S
C421 H448 0.930 . S
C422 C420 1.380 . S
C422 C421 1.384 . S
C422 H449 0.931 . S
C423 C420 1.374 . S
C423 C424 1.390 . S
C423 H450 0.930 . S
C424 C423 1.390 . S
C424 C425 1.391 . S
C424 H451 0.930 . S
C425 C421 1.387 . S
C425 C424 1.391 . S
C426 Tb416 2.825 1_565 S
C426 C420 1.507 . S
C426 O439 1.238 . S
C426 O440 1.247 . S
O427 Tb416 2.347 . S
O427 C431 1.259 . S
O428 Eu417 2.418 . S
O428 C431 1.265 . S
O429 Eu417 2.384 . S
O429 C438 1.255 . S
O430 Tb416 2.366 . S
O430 C438 1.265 . S
C431 O427 1.259 . S
C431 O428 1.265 . S
O432 Eu417 2.479 . S
O432 C447 1.238 . S
O433 Eu417 2.471 . S
O433 C447 1.247 . S
O434 Eu417 2.347 . S
O434 C418 1.259 . S
O435 Tb416 2.418 . S
O435 C418 1.265 . S
O436 Tb416 2.384 . S
O436 C419 1.255 . S
O437 Eu417 2.366 . S
O437 C419 1.265 . S
C438 O429 1.255 . S
C438 O430 1.265 . S
O439 Tb416 2.479 1_565 S
O439 C426 1.238 . S
O440 Tb416 2.471 1_565 S
O440 C426 1.247 . S
C441 C444 1.380 . S
C441 C445 1.374 . S
C441 C447 1.507 . S
C442 C443 1.387 . S
C442 C446 1.391 . S
C443 C442 1.387 . S
C443 C444 1.384 . S
C443 H452 0.930 . S
C444 C441 1.380 . S
C444 C443 1.384 . S
C444 H453 0.931 . S
C445 C441 1.374 . S
C445 C446 1.390 . S
C445 H454 0.930 . S
C446 C442 1.391 . S
C446 C445 1.390 . S
C446 H455 0.930 . S
C447 Eu417 2.825 . S
C447 O432 1.238 . S
C447 O433 1.247 . S
C447 C441 1.507 . S
H448 C421 0.930 . S
H449 C422 0.931 . S
H450 C423 0.930 . S
H451 C424 0.930 . S
H452 C443 0.930 . S
H453 C444 0.931 . S
H454 C445 0.930 . S
H455 C446 0.930 . S
Tb456 C466 2.825 . S
Tb456 O467 2.347 . S
Tb456 O470 2.366 . S
Tb456 O475 2.418 . S
Tb456 O476 2.384 . S
Tb456 O479 2.479 . S
Tb456 O480 2.471 . S
Eu457 O468 2.418 . S
Eu457 O469 2.384 . S
Eu457 O472 2.479 . S
Eu457 O473 2.471 . S
Eu457 O474 2.347 . S
Eu457 O477 2.366 . S
Eu457 C487 2.825 . S
C458 O474 1.259 . S
C458 O475 1.265 . S
C459 O476 1.255 . S
C459 O477 1.265 . S
C460 C462 1.380 . S
C460 C463 1.374 . S
C460 C466 1.507 . S
C461 C462 1.384 . S
C461 C465 1.387 . S
C461 H488 0.930 . S
C462 C460 1.380 . S
C462 C461 1.384 . S
C462 H489 0.931 . S
C463 C460 1.374 . S
C463 C464 1.390 . S
C463 H490 0.930 . S
C464 C463 1.390 . S
C464 C465 1.391 . S
C464 H491 0.930 . S
C465 C461 1.387 . S
C465 C464 1.391 . S
C466 Tb456 2.825 . S
C466 C460 1.507 . S
C466 O479 1.238 . S
C466 O480 1.247 . S
O467 Tb456 2.347 . S
O467 C471 1.259 . S
O468 Eu457 2.418 . S
O468 C471 1.265 . S
O469 Eu457 2.384 . S
O469 C478 1.255 . S
O470 Tb456 2.366 . S
O470 C478 1.265 . S
C471 O467 1.259 . S
C471 O468 1.265 . S
O472 Eu457 2.479 . S
O472 C487 1.238 . S
O473 Eu457 2.471 . S
O473 C487 1.247 . S
O474 Eu457 2.347 . S
O474 C458 1.259 . S
O475 Tb456 2.418 . S
O475 C458 1.265 . S
O476 Tb456 2.384 . S
O476 C459 1.255 . S
O477 Eu457 2.366 . S
O477 C459 1.265 . S
C478 O469 1.255 . S
C478 O470 1.265 . S
O479 Tb456 2.479 . S
O479 C466 1.238 . S
O480 Tb456 2.471 . S
O480 C466 1.247 . S
C481 C484 1.380 . S
C481 C485 1.374 . S
C481 C487 1.507 . S
C482 C483 1.387 . S
C482 C486 1.391 . S
C483 C482 1.387 . S
C483 C484 1.384 . S
C483 H492 0.930 . S
C484 C481 1.380 . S
C484 C483 1.384 . S
C484 H493 0.931 . S
C485 C481 1.374 . S
C485 C486 1.390 . S
C485 H494 0.930 . S
C486 C482 1.391 . S
C486 C485 1.390 . S
C486 H495 0.930 . S
C487 Eu457 2.825 . S
C487 O472 1.238 . S
C487 O473 1.247 . S
C487 C481 1.507 . S
H488 C461 0.930 . S
H489 C462 0.931 . S
H490 C463 0.930 . S
H491 C464 0.930 . S
H492 C483 0.930 . S
H493 C484 0.931 . S
H494 C485 0.930 . S
H495 C486 0.930 . S
Tb496 C506 2.825 . S
Tb496 O507 2.347 . S
Tb496 O510 2.366 . S
Tb496 O515 2.418 . S
Tb496 O516 2.384 . S
Tb496 O519 2.479 . S
Tb496 O520 2.471 . S
Eu497 O508 2.405 1_455 S
Eu497 O509 2.384 . S
Eu497 O512 2.479 . S
Eu497 O513 2.471 . S
Eu497 O514 2.347 . S
Eu497 O517 2.366 . S
Eu497 C527 2.825 . S
C498 O514 1.259 . S
C498 O515 1.265 . S
C499 O516 1.255 . S
C499 O517 1.265 . S
C500 C502 1.380 . S
C500 C503 1.374 1_455 S
C500 C506 1.507 . S
C501 C502 1.384 . S
C501 C505 1.387 1_455 S
C501 H528 0.930 . S
C502 C500 1.380 . S
C502 C501 1.384 . S
C502 H529 0.931 . S
C503 C500 1.374 1_655 S
C503 C504 1.390 . S
C503 H530 0.930 . S
C504 C503 1.390 . S
C504 C505 1.391 . S
C504 H531 0.930 . S
C505 C501 1.387 1_655 S
C505 C504 1.391 . S
C506 Tb496 2.825 . S
C506 C500 1.507 . S
C506 O519 1.238 . S
C506 O520 1.247 . S
O507 Tb496 2.347 . S
O507 C511 1.259 1_455 S
O508 Eu497 2.405 1_655 S
O508 C511 1.264 . S
O509 Eu497 2.384 . S
O509 C518 1.255 . S
O510 Tb496 2.366 . S
O510 C518 1.265 . S
C511 O507 1.259 1_655 S
C511 O508 1.264 . S
O512 Eu497 2.479 . S
O512 C527 1.238 . S
O513 Eu497 2.471 . S
O513 C527 1.247 . S
O514 Eu497 2.347 . S
O514 C498 1.259 . S
O515 Tb496 2.418 . S
O515 C498 1.265 . S
O516 Tb496 2.384 . S
O516 C499 1.255 . S
O517 Eu497 2.366 . S
O517 C499 1.265 . S
C518 O509 1.255 . S
C518 O510 1.265 . S
O519 Tb496 2.479 . S
O519 C506 1.238 . S
O520 Tb496 2.471 . S
O520 C506 1.247 . S
C521 C524 1.380 . S
C521 C525 1.374 . S
C521 C527 1.507 . S
C522 C523 1.387 . S
C522 C526 1.391 . S
C523 C522 1.387 . S
C523 C524 1.384 . S
C523 H532 0.930 . S
C524 C521 1.380 . S
C524 C523 1.384 . S
C524 H533 0.931 . S
C525 C521 1.374 . S
C525 C526 1.390 . S
C525 H534 0.930 . S
C526 C522 1.391 . S
C526 C525 1.390 . S
C526 H535 0.930 . S
C527 Eu497 2.825 . S
C527 O512 1.238 . S
C527 O513 1.247 . S
C527 C521 1.507 . S
H528 C501 0.930 . S
H529 C502 0.931 . S
H530 C503 0.930 . S
H531 C504 0.930 . S
H532 C523 0.930 . S
H533 C524 0.931 . S
H534 C525 0.930 . S
H535 C526 0.930 . S
Tb536 C546 2.825 . S
Tb536 O547 2.347 . S
Tb536 O550 2.366 . S
Tb536 O555 2.418 . S
Tb536 O556 2.384 . S
Tb536 O559 2.479 . S
Tb536 O560 2.471 . S
Eu537 O548 2.418 . S
Eu537 O549 2.384 . S
Eu537 O552 2.479 . S
Eu537 O553 2.471 . S
Eu537 O554 2.347 . S
Eu537 O557 2.366 . S
Eu537 C567 2.825 . S
C538 O554 1.259 . S
C538 O555 1.265 . S
C539 O556 1.255 . S
C539 O557 1.265 . S
C540 C542 1.380 . S
C540 C543 1.374 . S
C540 C546 1.507 . S
C541 C542 1.384 . S
C541 C545 1.387 . S
C541 H568 0.930 . S
C542 C540 1.380 . S
C542 C541 1.384 . S
C542 H569 0.931 . S
C543 C540 1.374 . S
C543 C544 1.390 . S
C543 H570 0.930 . S
C544 C543 1.390 . S
C544 C545 1.391 . S
C544 H571 0.930 . S
C545 C541 1.387 . S
C545 C544 1.391 . S
C546 Tb536 2.825 . S
C546 C540 1.507 . S
C546 O559 1.238 . S
C546 O560 1.247 . S
O547 Tb536 2.347 . S
O547 C551 1.259 . S
O548 Eu537 2.418 . S
O548 C551 1.265 . S
O549 Eu537 2.384 . S
O549 C558 1.255 . S
O550 Tb536 2.366 . S
O550 C558 1.265 . S
C551 O547 1.259 . S
C551 O548 1.265 . S
O552 Eu537 2.479 . S
O552 C567 1.238 . S
O553 Eu537 2.471 . S
O553 C567 1.247 . S
O554 Eu537 2.347 . S
O554 C538 1.259 . S
O555 Tb536 2.418 . S
O555 C538 1.265 . S
O556 Tb536 2.384 . S
O556 C539 1.255 . S
O557 Eu537 2.366 . S
O557 C539 1.265 . S
C558 O549 1.255 . S
C558 O550 1.265 . S
O559 Tb536 2.479 . S
O559 C546 1.238 . S
O560 Tb536 2.471 . S
O560 C546 1.247 . S
C561 C564 1.380 . S
C561 C565 1.374 . S
C561 C567 1.507 . S
C562 C563 1.387 . S
C562 C566 1.391 . S
C563 C562 1.387 . S
C563 C564 1.384 . S
C563 H572 0.930 . S
C564 C561 1.380 . S
C564 C563 1.384 . S
C564 H573 0.931 . S
C565 C561 1.374 . S
C565 C566 1.390 . S
C565 H574 0.930 . S
C566 C562 1.391 . S
C566 C565 1.390 . S
C566 H575 0.930 . S
C567 Eu537 2.825 . S
C567 O552 1.238 . S
C567 O553 1.247 . S
C567 C561 1.507 . S
H568 C541 0.930 . S
H569 C542 0.931 . S
H570 C543 0.930 . S
H571 C544 0.930 . S
H572 C563 0.930 . S
H573 C564 0.931 . S
H574 C565 0.930 . S
H575 C566 0.930 . S
Tb576 C586 2.825 . S
Tb576 O587 2.347 . S
Tb576 O590 2.366 . S
Tb576 O595 2.418 . S
Tb576 O596 2.384 . S
Tb576 O599 2.479 . S
Tb576 O600 2.471 . S
Eu577 O588 2.418 1_556 S
Eu577 O589 2.384 1_556 S
Eu577 O592 2.479 . S
Eu577 O593 2.471 . S
Eu577 O594 2.347 1_556 S
Eu577 O597 2.366 . S
Eu577 C607 2.825 . S
C578 O594 1.259 . S
C578 O595 1.265 . S
C579 O596 1.255 . S
C579 O597 1.265 1_554 S
C580 C582 1.380 . S
C580 C583 1.374 . S
C580 C586 1.507 . S
C581 C582 1.384 . S
C581 C585 1.387 . S
C581 H608 0.930 . S
C582 C580 1.380 . S
C582 C581 1.384 . S
C582 H609 0.931 . S
C583 C580 1.374 . S
C583 C584 1.390 . S
C583 H610 0.930 . S
C584 C583 1.390 . S
C584 C585 1.391 . S
C584 H611 0.930 . S
C585 C581 1.387 . S
C585 C584 1.391 . S
C586 Tb576 2.825 . S
C586 C580 1.507 . S
C586 O599 1.238 . S
C586 O600 1.247 . S
O587 Tb576 2.347 . S
O587 C591 1.259 . S
O588 Eu577 2.418 1_554 S
O588 C591 1.265 . S
O589 Eu577 2.384 1_554 S
O589 C598 1.255 . S
O590 Tb576 2.366 . S
O590 C598 1.265 . S
C591 O587 1.259 . S
C591 O588 1.265 . S
O592 Eu577 2.479 . S
O592 C607 1.238 . S
O593 Eu577 2.471 . S
O593 C607 1.247 . S
O594 Eu577 2.347 1_554 S
O594 C578 1.259 . S
O595 Tb576 2.418 . S
O595 C578 1.265 . S
O596 Tb576 2.384 . S
O596 C579 1.255 . S
O597 Eu577 2.366 . S
O597 C579 1.265 1_556 S
C598 O589 1.255 . S
C598 O590 1.265 . S
O599 Tb576 2.479 . S
O599 C586 1.238 . S
O600 Tb576 2.471 . S
O600 C586 1.247 . S
C601 C604 1.380 . S
C601 C605 1.374 . S
C601 C607 1.507 . S
C602 C603 1.387 . S
C602 C606 1.391 . S
C603 C602 1.387 . S
C603 C604 1.384 . S
C603 H612 0.930 . S
C604 C601 1.380 . S
C604 C603 1.384 . S
C604 H613 0.931 . S
C605 C601 1.374 . S
C605 C606 1.390 . S
C605 H614 0.930 . S
C606 C602 1.391 . S
C606 C605 1.390 . S
C606 H615 0.930 . S
C607 Eu577 2.825 . S
C607 O592 1.238 . S
C607 O593 1.247 . S
C607 C601 1.507 . S
H608 C581 0.930 . S
H609 C582 0.931 . S
H610 C583 0.930 . S
H611 C584 0.930 . S
H612 C603 0.930 . S
H613 C604 0.931 . S
H614 C605 0.930 . S
H615 C606 0.930 . S
Tb616 C626 2.825 . S
Tb616 O627 2.347 . S
Tb616 O630 2.366 . S
Tb616 O635 2.418 . S
Tb616 O636 2.384 . S
Tb616 O639 2.479 . S
Tb616 O640 2.471 . S
Eu617 O628 2.418 . S
Eu617 O629 2.384 . S
Eu617 O632 2.479 . S
Eu617 O633 2.471 . S
Eu617 O634 2.347 . S
Eu617 O637 2.366 . S
Eu617 C647 2.825 . S
C618 O634 1.259 . S
C618 O635 1.265 . S
C619 O636 1.255 . S
C619 O637 1.265 . S
C620 C622 1.380 . S
C620 C623 1.374 . S
C620 C626 1.507 . S
C621 C622 1.384 . S
C621 C625 1.387 . S
C621 H648 0.930 . S
C622 C620 1.380 . S
C622 C621 1.384 . S
C622 H649 0.931 . S
C623 C620 1.374 . S
C623 C624 1.390 . S
C623 H650 0.930 . S
C624 C623 1.390 . S
C624 C625 1.391 . S
C624 H651 0.930 . S
C625 C621 1.387 . S
C625 C624 1.391 . S
C626 Tb616 2.825 . S
C626 C620 1.507 . S
C626 O639 1.238 . S
C626 O640 1.247 . S
O627 Tb616 2.347 . S
O627 C631 1.259 . S
O628 Eu617 2.418 . S
O628 C631 1.265 . S
O629 Eu617 2.384 . S
O629 C638 1.255 . S
O630 Tb616 2.366 . S
O630 C638 1.265 . S
C631 O627 1.259 . S
C631 O628 1.265 . S
O632 Eu617 2.479 . S
O632 C647 1.238 . S
O633 Eu617 2.471 . S
O633 C647 1.247 . S
O634 Eu617 2.347 . S
O634 C618 1.259 . S
O635 Tb616 2.418 . S
O635 C618 1.265 . S
O636 Tb616 2.384 . S
O636 C619 1.255 . S
O637 Eu617 2.366 . S
O637 C619 1.265 . S
C638 O629 1.255 . S
C638 O630 1.265 . S
O639 Tb616 2.479 . S
O639 C626 1.238 . S
O640 Tb616 2.471 . S
O640 C626 1.247 . S
C641 C644 1.380 . S
C641 C645 1.374 . S
C641 C647 1.507 . S
C642 C643 1.387 . S
C642 C646 1.391 . S
C643 C642 1.387 . S
C643 C644 1.384 . S
C643 H652 0.930 . S
C644 C641 1.380 . S
C644 C643 1.384 . S
C644 H653 0.931 . S
C645 C641 1.374 . S
C645 C646 1.390 . S
C645 H654 0.930 . S
C646 C642 1.391 . S
C646 C645 1.390 . S
C646 H655 0.930 . S
C647 Eu617 2.825 . S
C647 O632 1.238 . S
C647 O633 1.247 . S
C647 C641 1.507 . S
H648 C621 0.930 . S
H649 C622 0.931 . S
H650 C623 0.930 . S
H651 C624 0.930 . S
H652 C643 0.930 . S
H653 C644 0.931 . S
H654 C645 0.930 . S
H655 C646 0.930 . S
Tb656 C666 2.825 . S
Tb656 O667 2.347 1_556 S
Tb656 O670 2.366 . S
Tb656 O675 2.418 . S
Tb656 O676 2.384 1_556 S
Tb656 O679 2.479 . S
Tb656 O680 2.471 . S
Eu657 O668 2.418 . S
Eu657 O669 2.384 . S
Eu657 O672 2.479 . S
Eu657 O673 2.471 . S
Eu657 O674 2.347 . S
Eu657 O677 2.366 . S
Eu657 C687 2.825 . S
C658 O674 1.259 . S
C658 O675 1.265 1_554 S
C659 O676 1.255 . S
C659 O677 1.265 . S
C660 C662 1.380 . S
C660 C663 1.374 . S
C660 C666 1.507 . S
C661 C662 1.384 . S
C661 C665 1.387 . S
C661 H688 0.930 . S
C662 C660 1.380 . S
C662 C661 1.384 . S
C662 H689 0.931 . S
C663 C660 1.374 . S
C663 C664 1.390 . S
C663 H690 0.930 . S
C664 C663 1.390 . S
C664 C665 1.391 . S
C664 H691 0.930 . S
C665 C661 1.387 . S
C665 C664 1.391 . S
C666 Tb656 2.825 . S
C666 C660 1.507 . S
C666 O679 1.238 . S
C666 O680 1.247 . S
O667 Tb656 2.347 1_554 S
O667 C671 1.259 . S
O668 Eu657 2.418 . S
O668 C671 1.265 . S
O669 Eu657 2.384 . S
O669 C678 1.255 1_554 S
O670 Tb656 2.366 . S
O670 C678 1.265 . S
C671 O667 1.259 . S
C671 O668 1.265 . S
O672 Eu657 2.479 . S
O672 C687 1.238 . S
O673 Eu657 2.471 . S
O673 C687 1.247 . S
O674 Eu657 2.347 . S
O674 C658 1.259 . S
O675 Tb656 2.418 . S
O675 C658 1.265 1_556 S
O676 Tb656 2.384 1_554 S
O676 C659 1.255 . S
O677 Eu657 2.366 . S
O677 C659 1.265 . S
C678 O669 1.255 1_556 S
C678 O670 1.265 . S
O679 Tb656 2.479 . S
O679 C666 1.238 . S
O680 Tb656 2.471 . S
O680 C666 1.247 . S
C681 C684 1.380 . S
C681 C685 1.374 . S
C681 C687 1.507 . S
C682 C683 1.387 . S
C682 C686 1.391 . S
C683 C682 1.387 . S
C683 C684 1.384 . S
C683 H692 0.930 . S
C684 C681 1.380 . S
C684 C683 1.384 . S
C684 H693 0.931 . S
C685 C681 1.374 . S
C685 C686 1.390 . S
C685 H694 0.930 . S
C686 C682 1.391 . S
C686 C685 1.390 . S
C686 H695 0.930 . S
C687 Eu657 2.825 . S
C687 O672 1.238 . S
C687 O673 1.247 . S
C687 C681 1.507 . S
H688 C661 0.930 . S
H689 C662 0.931 . S
H690 C663 0.930 . S
H691 C664 0.930 . S
H692 C683 0.930 . S
H693 C684 0.931 . S
H694 C685 0.930 . S
H695 C686 0.930 . S
Tb696 C706 2.825 . S
Tb696 O707 2.347 . S
Tb696 O710 2.366 . S
Tb696 O715 2.418 . S
Tb696 O716 2.384 . S
Tb696 O719 2.479 . S
Tb696 O720 2.471 . S
Eu697 O708 2.418 . S
Eu697 O709 2.384 . S
Eu697 O712 2.479 . S
Eu697 O713 2.471 . S
Eu697 O714 2.347 . S
Eu697 O717 2.366 . S
Eu697 C727 2.825 . S
C698 O714 1.259 . S
C698 O715 1.265 . S
C699 O716 1.255 . S
C699 O717 1.265 . S
C700 C702 1.380 . S
C700 C703 1.374 . S
C700 C706 1.507 . S
C701 C702 1.384 . S
C701 C705 1.387 . S
C701 H728 0.930 . S
C702 C700 1.380 . S
C702 C701 1.384 . S
C702 H729 0.931 . S
C703 C700 1.374 . S
C703 C704 1.390 . S
C703 H730 0.930 . S
C704 C703 1.390 . S
C704 C705 1.391 . S
C704 H731 0.930 . S
C705 C701 1.387 . S
C705 C704 1.391 . S
C706 Tb696 2.825 . S
C706 C700 1.507 . S
C706 O719 1.238 . S
C706 O720 1.247 . S
O707 Tb696 2.347 . S
O707 C711 1.259 . S
O708 Eu697 2.418 . S
O708 C711 1.265 . S
O709 Eu697 2.384 . S
O709 C718 1.255 . S
O710 Tb696 2.366 . S
O710 C718 1.265 . S
C711 O707 1.259 . S
C711 O708 1.265 . S
O712 Eu697 2.479 . S
O712 C727 1.238 . S
O713 Eu697 2.471 . S
O713 C727 1.247 . S
O714 Eu697 2.347 . S
O714 C698 1.259 . S
O715 Tb696 2.418 . S
O715 C698 1.265 . S
O716 Tb696 2.384 . S
O716 C699 1.255 . S
O717 Eu697 2.366 . S
O717 C699 1.265 . S
C718 O709 1.255 . S
C718 O710 1.265 . S
O719 Tb696 2.479 . S
O719 C706 1.238 . S
O720 Tb696 2.471 . S
O720 C706 1.247 . S
C721 C724 1.380 . S
C721 C725 1.374 . S
C721 C727 1.507 . S
C722 C723 1.387 . S
C722 C726 1.391 . S
C723 C722 1.387 . S
C723 C724 1.384 . S
C723 H732 0.930 . S
C724 C721 1.380 . S
C724 C723 1.384 . S
C724 H733 0.931 . S
C725 C721 1.374 . S
C725 C726 1.390 . S
C725 H734 0.930 . S
C726 C722 1.391 . S
C726 C725 1.390 . S
C726 H735 0.930 . S
C727 Eu697 2.825 . S
C727 O712 1.238 . S
C727 O713 1.247 . S
C727 C721 1.507 . S
H728 C701 0.930 . S
H729 C702 0.931 . S
H730 C703 0.930 . S
H731 C704 0.930 . S
H732 C723 0.930 . S
H733 C724 0.931 . S
H734 C725 0.930 . S
H735 C726 0.930 . S
Tb736 C746 2.825 . S
Tb736 O747 2.347 . S
Tb736 O750 2.366 . S
Tb736 O755 2.418 . S
Tb736 O756 2.384 . S
Tb736 O759 2.479 . S
Tb736 O760 2.471 . S
Eu737 O748 2.418 . S
Eu737 O749 2.384 1_455 S
Eu737 O752 2.479 . S
Eu737 O753 2.471 . S
Eu737 O754 2.347 . S
Eu737 O757 2.366 . S
Eu737 C767 2.825 . S
C738 O754 1.259 . S
C738 O755 1.265 . S
C739 O756 1.255 . S
C739 O757 1.265 . S
C740 C742 1.380 . S
C740 C743 1.374 . S
C740 C746 1.507 . S
C741 C742 1.384 . S
C741 C745 1.387 . S
C741 H768 0.930 . S
C742 C740 1.380 . S
C742 C741 1.384 . S
C742 H769 0.931 . S
C743 C740 1.374 . S
C743 C744 1.390 . S
C743 H770 0.930 . S
C744 C743 1.390 . S
C744 C745 1.391 . S
C744 H771 0.930 1_455 S
C745 C741 1.387 . S
C745 C744 1.391 . S
C746 Tb736 2.825 . S
C746 C740 1.507 . S
C746 O759 1.238 . S
C746 O760 1.247 . S
O747 Tb736 2.347 . S
O747 C751 1.259 . S
O748 Eu737 2.418 . S
O748 C751 1.265 . S
O749 Eu737 2.384 1_655 S
O749 C758 1.255 . S
O750 Tb736 2.366 . S
O750 C758 1.265 1_455 S
C751 O747 1.259 . S
C751 O748 1.265 . S
O752 Eu737 2.479 . S
O752 C767 1.238 . S
O753 Eu737 2.471 . S
O753 C767 1.247 . S
O754 Eu737 2.347 . S
O754 C738 1.259 . S
O755 Tb736 2.418 . S
O755 C738 1.265 . S
O756 Tb736 2.384 . S
O756 C739 1.255 . S
O757 Eu737 2.366 . S
O757 C739 1.265 . S
C758 O749 1.255 . S
C758 O750 1.265 1_655 S
O759 Tb736 2.479 . S
O759 C746 1.238 . S
O760 Tb736 2.471 . S
O760 C746 1.247 . S
C761 C764 1.380 . S
C761 C765 1.374 . S
C761 C767 1.507 . S
C762 C763 1.387 . S
C762 C766 1.391 . S
C763 C762 1.387 . S
C763 C764 1.384 . S
C763 H772 0.930 . S
C764 C761 1.380 . S
C764 C763 1.384 . S
C764 H773 0.931 . S
C765 C761 1.374 . S
C765 C766 1.390 . S
C765 H774 0.930 . S
C766 C762 1.391 . S
C766 C765 1.390 . S
C766 H775 0.930 . S
C767 Eu737 2.825 . S
C767 O752 1.238 . S
C767 O753 1.247 . S
C767 C761 1.507 . S
H768 C741 0.930 . S
H769 C742 0.931 . S
H770 C743 0.930 . S
H771 C744 0.930 1_655 S
H772 C763 0.930 . S
H773 C764 0.931 . S
H774 C765 0.930 . S
H775 C766 0.930 . S
Tb776 C786 2.825 . S
Tb776 O787 2.347 . S
Tb776 O790 2.366 . S
Tb776 O795 2.418 . S
Tb776 O796 2.384 . S
Tb776 O799 2.479 . S
Tb776 O800 2.471 . S
Eu777 O788 2.418 . S
Eu777 O789 2.384 . S
Eu777 O792 2.479 . S
Eu777 O793 2.471 . S
Eu777 O794 2.347 . S
Eu777 O797 2.366 . S
Eu777 C807 2.825 . S
C778 O794 1.259 . S
C778 O795 1.265 . S
C779 O796 1.255 . S
C779 O797 1.265 . S
C780 C782 1.380 . S
C780 C783 1.374 . S
C780 C786 1.507 . S
C781 C782 1.384 . S
C781 C785 1.387 . S
C781 H808 0.930 . S
C782 C780 1.380 . S
C782 C781 1.384 . S
C782 H809 0.931 . S
C783 C780 1.374 . S
C783 C784 1.390 . S
C783 H810 0.930 . S
C784 C783 1.390 . S
C784 C785 1.391 . S
C784 H811 0.930 . S
C785 C781 1.387 . S
C785 C784 1.391 . S
C786 Tb776 2.825 . S
C786 C780 1.507 . S
C786 O799 1.238 . S
C786 O800 1.247 . S
O787 Tb776 2.347 . S
O787 C791 1.259 . S
O788 Eu777 2.418 . S
O788 C791 1.265 . S
O789 Eu777 2.384 . S
O789 C798 1.255 . S
O790 Tb776 2.366 . S
O790 C798 1.265 . S
C791 O787 1.259 . S
C791 O788 1.265 . S
O792 Eu777 2.479 . S
O792 C807 1.238 . S
O793 Eu777 2.471 . S
O793 C807 1.247 . S
O794 Eu777 2.347 . S
O794 C778 1.259 . S
O795 Tb776 2.418 . S
O795 C778 1.265 . S
O796 Tb776 2.384 . S
O796 C779 1.255 . S
O797 Eu777 2.366 . S
O797 C779 1.265 . S
C798 O789 1.255 . S
C798 O790 1.265 . S
O799 Tb776 2.479 . S
O799 C786 1.238 . S
O800 Tb776 2.471 . S
O800 C786 1.247 . S
C801 C804 1.380 . S
C801 C805 1.374 . S
C801 C807 1.507 . S
C802 C803 1.387 . S
C802 C806 1.391 . S
C803 C802 1.387 . S
C803 C804 1.384 . S
C803 H812 0.930 . S
C804 C801 1.380 . S
C804 C803 1.384 . S
C804 H813 0.931 . S
C805 C801 1.374 . S
C805 C806 1.390 . S
C805 H814 0.930 . S
C806 C802 1.391 . S
C806 C805 1.390 . S
C806 H815 0.930 . S
C807 Eu777 2.825 . S
C807 O792 1.238 . S
C807 O793 1.247 . S
C807 C801 1.507 . S
H808 C781 0.930 . S
H809 C782 0.931 . S
H810 C783 0.930 . S
H811 C784 0.930 . S
H812 C803 0.930 . S
H813 C804 0.931 . S
H814 C805 0.930 . S
H815 C806 0.930 . S
Tb816 C826 2.825 . S
Tb816 O827 2.347 . S
Tb816 O830 2.366 . S
Tb816 O835 2.418 . S
Tb816 O836 2.384 . S
Tb816 O839 2.479 . S
Tb816 O840 2.471 . S
Eu817 O828 2.418 . S
Eu817 O829 2.384 . S
Eu817 O832 2.479 . S
Eu817 O833 2.471 . S
Eu817 O834 2.347 . S
Eu817 O837 2.366 . S
Eu817 C847 2.825 . S
C818 O834 1.259 . S
C818 O835 1.265 . S
C819 O836 1.255 . S
C819 O837 1.265 . S
C820 C822 1.380 . S
C820 C823 1.374 . S
C820 C826 1.507 . S
C821 C822 1.384 . S
C821 C825 1.387 . S
C821 H848 0.930 . S
C822 C820 1.380 . S
C822 C821 1.384 . S
C822 H849 0.931 . S
C823 C820 1.374 . S
C823 C824 1.390 . S
C823 H850 0.930 . S
C824 C823 1.390 . S
C824 C825 1.391 . S
C824 H851 0.930 . S
C825 C821 1.387 . S
C825 C824 1.391 . S
C826 Tb816 2.825 . S
C826 C820 1.507 . S
C826 O839 1.238 . S
C826 O840 1.247 . S
O827 Tb816 2.347 . S
O827 C831 1.259 . S
O828 Eu817 2.418 . S
O828 C831 1.265 . S
O829 Eu817 2.384 . S
O829 C838 1.255 . S
O830 Tb816 2.366 . S
O830 C838 1.265 . S
C831 O827 1.259 . S
C831 O828 1.265 . S
O832 Eu817 2.479 . S
O832 C847 1.238 . S
O833 Eu817 2.471 . S
O833 C847 1.247 . S
O834 Eu817 2.347 . S
O834 C818 1.259 . S
O835 Tb816 2.418 . S
O835 C818 1.265 . S
O836 Tb816 2.384 . S
O836 C819 1.255 . S
O837 Eu817 2.366 . S
O837 C819 1.265 . S
C838 O829 1.255 . S
C838 O830 1.265 . S
O839 Tb816 2.479 . S
O839 C826 1.238 . S
O840 Tb816 2.471 . S
O840 C826 1.247 . S
C841 C844 1.380 . S
C841 C845 1.374 . S
C841 C847 1.507 . S
C842 C843 1.387 . S
C842 C846 1.391 . S
C843 C842 1.387 . S
C843 C844 1.384 . S
C843 H852 0.930 . S
C844 C841 1.380 . S
C844 C843 1.384 . S
C844 H853 0.931 . S
C845 C841 1.374 . S
C845 C846 1.390 . S
C845 H854 0.930 . S
C846 C842 1.391 . S
C846 C845 1.390 . S
C846 H855 0.930 . S
C847 Eu817 2.825 . S
C847 O832 1.238 . S
C847 O833 1.247 . S
C847 C841 1.507 . S
H848 C821 0.930 . S
H849 C822 0.931 . S
H850 C823 0.930 . S
H851 C824 0.930 . S
H852 C843 0.930 . S
H853 C844 0.931 . S
H854 C845 0.930 . S
H855 C846 0.930 . S
Tb856 C866 2.825 . S
Tb856 O867 2.347 . S
Tb856 O870 2.366 . S
Tb856 O875 2.418 . S
Tb856 O876 2.384 . S
Tb856 O879 2.479 . S
Tb856 O880 2.471 . S
Eu857 O868 2.418 . S
Eu857 O869 2.384 . S
Eu857 O872 2.479 . S
Eu857 O873 2.471 . S
Eu857 O874 2.347 . S
Eu857 O877 2.366 . S
Eu857 C887 2.825 . S
C858 O874 1.259 . S
C858 O875 1.265 . S
C859 O876 1.255 . S
C859 O877 1.265 . S
C860 C862 1.380 . S
C860 C863 1.374 . S
C860 C866 1.507 . S
C861 C862 1.384 . S
C861 C865 1.387 . S
C861 H888 0.930 . S
C862 C860 1.380 . S
C862 C861 1.384 . S
C862 H889 0.931 . S
C863 C860 1.374 . S
C863 C864 1.390 . S
C863 H890 0.930 . S
C864 C863 1.390 . S
C864 C865 1.391 . S
C864 H891 0.930 . S
C865 C861 1.387 . S
C865 C864 1.391 . S
C866 Tb856 2.825 . S
C866 C860 1.507 . S
C866 O879 1.238 . S
C866 O880 1.247 . S
O867 Tb856 2.347 . S
O867 C871 1.259 . S
O868 Eu857 2.418 . S
O868 C871 1.265 . S
O869 Eu857 2.384 . S
O869 C878 1.255 . S
O870 Tb856 2.366 . S
O870 C878 1.265 . S
C871 O867 1.259 . S
C871 O868 1.265 . S
O872 Eu857 2.479 . S
O872 C887 1.238 . S
O873 Eu857 2.471 . S
O873 C887 1.247 . S
O874 Eu857 2.347 . S
O874 C858 1.259 . S
O875 Tb856 2.418 . S
O875 C858 1.265 . S
O876 Tb856 2.384 . S
O876 C859 1.255 . S
O877 Eu857 2.366 . S
O877 C859 1.265 . S
C878 O869 1.255 . S
C878 O870 1.265 . S
O879 Tb856 2.479 . S
O879 C866 1.238 . S
O880 Tb856 2.471 . S
O880 C866 1.247 . S
C881 C884 1.380 . S
C881 C885 1.374 . S
C881 C887 1.507 . S
C882 C883 1.387 . S
C882 C886 1.391 . S
C883 C882 1.387 . S
C883 C884 1.384 . S
C883 H892 0.930 . S
C884 C881 1.380 . S
C884 C883 1.384 . S
C884 H893 0.931 . S
C885 C881 1.374 . S
C885 C886 1.390 . S
C885 H894 0.930 . S
C886 C882 1.391 . S
C886 C885 1.390 . S
C886 H895 0.930 . S
C887 Eu857 2.825 . S
C887 O872 1.238 . S
C887 O873 1.247 . S
C887 C881 1.507 . S
H888 C861 0.930 . S
H889 C862 0.931 . S
H890 C863 0.930 . S
H891 C864 0.930 . S
H892 C883 0.930 . S
H893 C884 0.931 . S
H894 C885 0.930 . S
H895 C886 0.930 . S
Tb896 C906 2.825 . S
Tb896 O907 2.347 . S
Tb896 O910 2.366 . S
Tb896 O915 2.418 . S
Tb896 O916 2.384 . S
Tb896 O919 2.479 . S
Tb896 O920 2.471 . S
Eu897 O908 2.418 . S
Eu897 O909 2.384 . S
Eu897 O912 2.479 . S
Eu897 O913 2.471 . S
Eu897 O914 2.347 . S
Eu897 O917 2.366 . S
Eu897 C927 2.825 . S
C898 O914 1.259 . S
C898 O915 1.265 . S
C899 O916 1.255 . S
C899 O917 1.265 . S
C900 C902 1.380 . S
C900 C903 1.374 . S
C900 C906 1.507 . S
C901 C902 1.384 . S
C901 C905 1.387 . S
C901 H928 0.930 . S
C902 C900 1.380 . S
C902 C901 1.384 . S
C902 H929 0.931 . S
C903 C900 1.374 . S
C903 C904 1.390 . S
C903 H930 0.930 . S
C904 C903 1.390 . S
C904 C905 1.391 . S
C904 H931 0.930 . S
C905 C901 1.387 . S
C905 C904 1.391 . S
C906 Tb896 2.825 . S
C906 C900 1.507 . S
C906 O919 1.238 . S
C906 O920 1.247 . S
O907 Tb896 2.347 . S
O907 C911 1.259 . S
O908 Eu897 2.418 . S
O908 C911 1.265 . S
O909 Eu897 2.384 . S
O909 C918 1.255 . S
O910 Tb896 2.366 . S
O910 C918 1.265 . S
C911 O907 1.259 . S
C911 O908 1.265 . S
O912 Eu897 2.479 . S
O912 C927 1.238 . S
O913 Eu897 2.471 . S
O913 C927 1.247 . S
O914 Eu897 2.347 . S
O914 C898 1.259 . S
O915 Tb896 2.418 . S
O915 C898 1.265 . S
O916 Tb896 2.384 . S
O916 C899 1.255 . S
O917 Eu897 2.366 . S
O917 C899 1.265 . S
C918 O909 1.255 . S
C918 O910 1.265 . S
O919 Tb896 2.479 . S
O919 C906 1.238 . S
O920 Tb896 2.471 . S
O920 C906 1.247 . S
C921 C924 1.380 . S
C921 C925 1.374 . S
C921 C927 1.507 . S
C922 C923 1.387 . S
C922 C926 1.391 . S
C923 C922 1.387 . S
C923 C924 1.384 . S
C923 H932 0.930 . S
C924 C921 1.380 . S
C924 C923 1.384 . S
C924 H933 0.931 . S
C925 C921 1.374 . S
C925 C926 1.390 . S
C925 H934 0.930 . S
C926 C922 1.391 . S
C926 C925 1.390 . S
C926 H935 0.930 . S
C927 Eu897 2.825 . S
C927 O912 1.238 . S
C927 O913 1.247 . S
C927 C921 1.507 . S
H928 C901 0.930 . S
H929 C902 0.931 . S
H930 C903 0.930 . S
H931 C904 0.930 . S
H932 C923 0.930 . S
H933 C924 0.931 . S
H934 C925 0.930 . S
H935 C926 0.930 . S
Tb936 C946 2.825 1_554 S
Tb936 O947 2.347 1_554 S
Tb936 O950 2.366 . S
Tb936 O955 2.418 . S
Tb936 O956 2.384 1_455 S
Tb936 O959 2.479 . S
Tb936 O960 2.471 1_554 S
Eu937 O948 2.418 1_554 S
Eu937 O949 2.384 . S
Eu937 O952 2.479 . S
Eu937 O953 2.471 . S
Eu937 O954 2.347 . S
Eu937 O957 2.366 . S
Eu937 C967 2.825 . S
C938 O954 1.259 . S
C938 O955 1.265 . S
C939 O956 1.255 1_455 S
C939 O957 1.265 . S
C940 C942 1.380 . S
C940 C943 1.374 . S
C940 C946 1.507 . S
C941 C942 1.384 . S
C941 C945 1.387 . S
C941 H968 0.930 . S
C942 C940 1.380 . S
C942 C941 1.384 . S
C942 H969 0.931 1_556 S
C943 C940 1.374 . S
C943 C944 1.390 . S
C943 H970 0.930 . S
C944 C943 1.390 . S
C944 C945 1.391 . S
C944 H971 0.930 . S
C945 C941 1.387 . S
C945 C944 1.391 . S
C946 Tb936 2.825 1_556 S
C946 C940 1.507 . S
C946 O959 1.238 1_556 S
C946 O960 1.247 . S
O947 Tb936 2.347 1_556 S
O947 C951 1.259 . S
O948 Eu937 2.418 1_556 S
O948 C951 1.265 . S
O949 Eu937 2.384 . S
O949 C958 1.255 . S
O950 Tb936 2.366 . S
O950 C958 1.265 . S
C951 O947 1.259 . S
C951 O948 1.265 . S
O952 Eu937 2.479 . S
O952 C967 1.238 . S
O953 Eu937 2.471 . S
O953 C967 1.247 . S
O954 Eu937 2.347 . S
O954 C938 1.259 . S
O955 Tb936 2.418 . S
O955 C938 1.265 . S
O956 Tb936 2.384 1_655 S
O956 C939 1.255 1_655 S
O957 Eu937 2.366 . S
O957 C939 1.265 . S
C958 O949 1.255 . S
C958 O950 1.265 . S
O959 Tb936 2.479 . S
O959 C946 1.238 1_554 S
O960 Tb936 2.471 1_556 S
O960 C946 1.247 . S
C961 C964 1.380 . S
C961 C965 1.374 . S
C961 C967 1.507 . S
C962 C963 1.387 . S
C962 C966 1.391 . S
C963 C962 1.387 . S
C963 C964 1.384 . S
C963 H972 0.930 . S
C964 C961 1.380 . S
C964 C963 1.384 . S
C964 H973 0.931 . S
C965 C961 1.374 . S
C965 C966 1.390 . S
C965 H974 0.930 . S
C966 C962 1.391 . S
C966 C965 1.390 . S
C966 H975 0.930 . S
C967 Eu937 2.825 . S
C967 O952 1.238 . S
C967 O953 1.247 . S
C967 C961 1.507 . S
H968 C941 0.930 . S
H969 C942 0.931 1_554 S
H970 C943 0.930 . S
H971 C944 0.930 . S
H972 C963 0.930 . S
H973 C964 0.931 . S
H974 C965 0.930 . S
H975 C966 0.930 . S
C976 C977 1.387 1_655 S
C976 H980 0.950 . S
C976 C985 1.390 1_655 S
C977 C976 1.387 1_455 S
C977 C979 1.387 . S
H978 C985 0.950 . S
C979 C977 1.387 . S
C979 C981 1.390 . S
C979 H983 0.950 . S
H980 C976 0.950 . S
C981 C979 1.390 . S
C981 C982 1.387 1_556 S
C981 H984 0.950 1_556 S
C982 C981 1.387 1_554 S
C982 C985 1.387 1_554 S
H983 C979 0.950 . S
H984 C981 0.950 1_554 S
C985 C976 1.390 1_455 S
C985 H978 0.950 . S
C985 C982 1.387 1_556 S
C986 C987 1.387 . S
C986 H990 0.950 . S
C986 C995 1.390 . S
C987 C986 1.387 . S
C987 C989 1.387 . S
H988 C995 0.950 . S
C989 C987 1.387 . S
C989 C991 1.390 . S
C989 H993 0.950 . S
H990 C986 0.950 . S
C991 C989 1.390 . S
C991 C992 1.387 . S
C991 H994 0.950 . S
C992 C991 1.387 . S
C992 C995 1.387 . S
H993 C989 0.950 . S
H994 C991 0.950 . S
C995 C986 1.390 . S
C995 H988 0.950 . S
C995 C992 1.387 . S
C996 C997 1.387 . S
C996 H1000 0.950 . S
C996 C1005 1.390 . S
C997 C996 1.387 . S
C997 C999 1.387 . S
H998 C1005 0.950 . S
C999 C997 1.387 . S
C999 C1001 1.390 . S
C999 H1003 0.950 . S
H1000 C996 0.950 . S
C1001 C999 1.390 . S
C1001 C1002 1.387 . S
C1001 H1004 0.950 . S
C1002 C1001 1.387 . S
C1002 C1005 1.387 . S
H1003 C999 0.950 . S
H1004 C1001 0.950 . S
C1005 C996 1.390 . S
C1005 H998 0.950 . S
C1005 C1002 1.387 . S
C1006 C1007 1.387 . S
C1006 H1010 0.950 . S
C1006 C1015 1.390 . S
C1007 C1006 1.387 . S
C1007 C1009 1.387 . S
H1008 C1015 0.950 . S
C1009 C1007 1.387 . S
C1009 C1011 1.390 . S
C1009 H1013 0.950 . S
H1010 C1006 0.950 . S
C1011 C1009 1.390 . S
C1011 C1012 1.387 . S
C1011 H1014 0.950 . S
C1012 C1011 1.387 . S
C1012 C1015 1.387 . S
H1013 C1009 0.950 . S
H1014 C1011 0.950 . S
C1015 C1006 1.390 . S
C1015 H1008 0.950 . S
C1015 C1012 1.387 . S
C1016 C1017 1.387 . S
C1016 H1020 0.950 . S
C1016 C1025 1.390 . S
C1017 C1016 1.387 . S
C1017 C1019 1.387 . S
H1018 C1025 0.950 . S
C1019 C1017 1.387 . S
C1019 C1021 1.390 . S
C1019 H1023 0.950 . S
H1020 C1016 0.950 . S
C1021 C1019 1.390 . S
C1021 C1022 1.387 . S
C1021 H1024 0.950 . S
C1022 C1021 1.387 . S
C1022 C1025 1.387 . S
H1023 C1019 0.950 . S
H1024 C1021 0.950 . S
C1025 C1016 1.390 . S
C1025 H1018 0.950 . S
C1025 C1022 1.387 . S
C1026 C1027 1.387 . S
C1026 H1030 0.950 . S
C1026 C1035 1.390 . S
C1027 C1026 1.387 . S
C1027 C1029 1.387 . S
H1028 C1035 0.950 . S
C1029 C1027 1.387 . S
C1029 C1031 1.390 . S
C1029 H1033 0.950 . S
H1030 C1026 0.950 . S
C1031 C1029 1.390 . S
C1031 C1032 1.387 . S
C1031 H1034 0.950 . S
C1032 C1031 1.387 . S
C1032 C1035 1.387 . S
H1033 C1029 0.950 . S
H1034 C1031 0.950 . S
C1035 C1026 1.390 . S
C1035 H1028 0.950 . S
C1035 C1032 1.387 . S
C1036 C1037 1.387 . S
C1036 H1040 0.950 . S
C1036 C1045 1.390 . S
C1037 C1036 1.387 . S
C1037 C1039 1.387 . S
H1038 C1045 0.950 . S
C1039 C1037 1.387 . S
C1039 C1041 1.390 . S
C1039 H1043 0.950 . S
H1040 C1036 0.950 . S
C1041 C1039 1.390 . S
C1041 C1042 1.387 . S
C1041 H1044 0.950 . S
C1042 C1041 1.387 . S
C1042 C1045 1.387 . S
H1043 C1039 0.950 . S
H1044 C1041 0.950 . S
C1045 C1036 1.390 . S
C1045 H1038 0.950 . S
C1045 C1042 1.387 . S
C1046 C1047 1.387 . S
C1046 H1050 0.950 . S
C1046 C1055 1.390 . S
C1047 C1046 1.387 . S
C1047 C1049 1.387 . S
H1048 C1055 0.950 . S
C1049 C1047 1.387 . S
C1049 C1051 1.390 . S
C1049 H1053 0.950 . S
H1050 C1046 0.950 . S
C1051 C1049 1.390 . S
C1051 C1052 1.387 . S
C1051 H1054 0.950 . S
C1052 C1051 1.387 . S
C1052 C1055 1.387 . S
H1053 C1049 0.950 . S
H1054 C1051 0.950 . S
C1055 C1046 1.390 . S
C1055 H1048 0.950 . S
C1055 C1052 1.387 . S
C1056 C1057 1.387 . S
C1056 H1060 0.950 1_545 S
C1056 C1065 1.390 . S
C1057 C1056 1.387 . S
C1057 C1059 1.387 . S
H1058 C1065 0.950 . S
C1059 C1057 1.387 . S
C1059 C1061 1.390 1_655 S
C1059 H1063 0.950 . S
H1060 C1056 0.950 1_565 S
C1061 C1059 1.390 1_455 S
C1061 C1062 1.387 . S
C1061 H1064 0.950 . S
C1062 C1061 1.387 . S
C1062 C1065 1.387 1_455 S
H1063 C1059 0.950 . S
H1064 C1061 0.950 . S
C1065 C1056 1.390 . S
C1065 H1058 0.950 . S
C1065 C1062 1.387 1_655 S
C1066 C1067 1.387 . S
C1066 H1070 0.950 . S
C1066 C1075 1.390 . S
C1067 C1066 1.387 . S
C1067 C1069 1.387 . S
H1068 C1075 0.950 . S
C1069 C1067 1.387 . S
C1069 C1071 1.390 . S
C1069 H1073 0.950 . S
H1070 C1066 0.950 . S
C1071 C1069 1.390 . S
C1071 C1072 1.387 . S
C1071 H1074 0.950 . S
C1072 C1071 1.387 . S
C1072 C1075 1.387 . S
H1073 C1069 0.950 . S
H1074 C1071 0.950 . S
C1075 C1066 1.390 . S
C1075 H1068 0.950 . S
C1075 C1072 1.387 . S
C1076 C1077 1.387 1_545 S
C1076 H1080 0.950 . S
C1076 C1085 1.390 . S
C1077 C1076 1.387 1_565 S
C1077 C1079 1.387 . S
H1078 C1085 0.950 . S
C1079 C1077 1.387 . S
C1079 C1081 1.390 1_565 S
C1079 H1083 0.950 . S
H1080 C1076 0.950 . S
C1081 C1079 1.390 1_545 S
C1081 C1082 1.387 . S
C1081 H1084 0.950 . S
C1082 C1081 1.387 . S
C1082 C1085 1.387 . S
H1083 C1079 0.950 . S
H1084 C1081 0.950 . S
C1085 C1076 1.390 . S
C1085 H1078 0.950 . S
C1085 C1082 1.387 . S
C1086 C1087 1.387 . S
C1086 H1090 0.950 . S
C1086 C1095 1.390 . S
C1087 C1086 1.387 . S
C1087 C1089 1.387 . S
H1088 C1095 0.950 . S
C1089 C1087 1.387 . S
C1089 C1091 1.390 . S
C1089 H1093 0.950 . S
H1090 C1086 0.950 . S
C1091 C1089 1.390 . S
C1091 C1092 1.387 . S
C1091 H1094 0.950 . S
C1092 C1091 1.387 . S
C1092 C1095 1.387 . S
H1093 C1089 0.950 . S
H1094 C1091 0.950 . S
C1095 C1086 1.390 . S
C1095 H1088 0.950 . S
C1095 C1092 1.387 . S
C1096 C1097 1.378 1_565 S
C1096 H1100 0.950 . S
C1096 C1105 1.390 1_565 S
C1097 C1096 1.378 1_545 S
C1097 C1099 1.411 . S
H1098 C1105 0.950 . S
C1099 C1097 1.411 . S
C1099 C1101 1.390 . S
C1099 H1103 0.950 . S
H1100 C1096 0.950 . S
C1101 C1099 1.390 . S
C1101 C1102 1.387 . S
C1101 H1104 0.950 . S
C1102 C1101 1.387 . S
C1102 C1105 1.387 . S
H1103 C1099 0.950 . S
H1104 C1101 0.950 . S
C1105 C1096 1.390 1_545 S
C1105 H1098 0.950 . S
C1105 C1102 1.387 . S
C1106 C1107 1.387 . S
C1106 H1110 0.950 . S
C1106 C1115 1.390 . S
C1107 C1106 1.387 . S
C1107 C1109 1.387 . S
H1108 C1115 0.950 . S
C1109 C1107 1.387 . S
C1109 C1111 1.390 . S
C1109 H1113 0.950 . S
H1110 C1106 0.950 . S
C1111 C1109 1.390 . S
C1111 C1112 1.387 . S
C1111 H1114 0.950 . S
C1112 C1111 1.387 . S
C1112 C1115 1.387 . S
H1113 C1109 0.950 . S
H1114 C1111 0.950 . S
C1115 C1106 1.390 . S
C1115 H1108 0.950 . S
C1115 C1112 1.387 . S
C1116 C1117 1.387 . S
C1116 H1120 0.950 . S
C1116 C1125 1.390 . S
C1117 C1116 1.387 . S
C1117 C1119 1.387 . S
H1118 C1125 0.950 . S
C1119 C1117 1.387 . S
C1119 C1121 1.390 . S
C1119 H1123 0.950 . S
H1120 C1116 0.950 . S
C1121 C1119 1.390 . S
C1121 C1122 1.387 . S
C1121 H1124 0.950 . S
C1122 C1121 1.387 . S
C1122 C1125 1.387 . S
H1123 C1119 0.950 . S
H1124 C1121 0.950 . S
C1125 C1116 1.390 . S
C1125 H1118 0.950 . S
C1125 C1122 1.387 . S
C1126 C1127 1.387 . S
C1126 H1130 0.950 . S
C1126 C1135 1.390 . S
C1127 C1126 1.387 . S
C1127 C1129 1.387 . S
H1128 C1135 0.950 . S
C1129 C1127 1.387 . S
C1129 C1131 1.390 . S
C1129 H1133 0.950 . S
H1130 C1126 0.950 . S
C1131 C1129 1.390 . S
C1131 C1132 1.387 . S
C1131 H1134 0.950 . S
C1132 C1131 1.387 . S
C1132 C1135 1.387 . S
H1133 C1129 0.950 . S
H1134 C1131 0.950 . S
C1135 C1126 1.390 . S
C1135 H1128 0.950 . S
C1135 C1132 1.387 . S
C1136 C1137 1.387 . S
C1136 H1140 0.950 . S
C1136 C1145 1.390 1_565 S
C1137 C1136 1.387 . S
C1137 C1139 1.387 . S
H1138 C1145 0.950 . S
C1139 C1137 1.387 . S
C1139 C1141 1.390 . S
C1139 H1143 0.950 . S
H1140 C1136 0.950 . S
C1141 C1139 1.390 . S
C1141 C1142 1.387 1_565 S
C1141 H1144 0.950 . S
C1142 C1141 1.387 1_545 S
C1142 C1145 1.387 . S
H1143 C1139 0.950 . S
H1144 C1141 0.950 . S
C1145 C1136 1.390 1_545 S
C1145 H1138 0.950 . S
C1145 C1142 1.387 . S
C1146 C1147 1.387 . S
C1146 H1150 0.950 . S
C1146 C1155 1.390 . S
C1147 C1146 1.387 . S
C1147 C1149 1.387 1_554 S
H1148 C1155 0.950 . S
C1149 C1147 1.387 1_556 S
C1149 C1151 1.390 . S
C1149 H1153 0.950 . S
H1150 C1146 0.950 . S
C1151 C1149 1.390 . S
C1151 C1152 1.387 1_556 S
C1151 H1154 0.950 . S
C1152 C1151 1.387 1_554 S
C1152 C1155 1.387 . S
H1153 C1149 0.950 . S
H1154 C1151 0.950 . S
C1155 C1146 1.390 . S
C1155 H1148 0.950 . S
C1155 C1152 1.387 . S
C1156 C1157 1.387 . S
C1156 H1160 0.950 . S
C1156 C1165 1.390 . S
C1157 C1156 1.387 . S
C1157 C1159 1.387 . S
H1158 C1165 0.950 . S
C1159 C1157 1.387 . S
C1159 C1161 1.390 . S
C1159 H1163 0.950 . S
H1160 C1156 0.950 . S
C1161 C1159 1.390 . S
C1161 C1162 1.387 . S
C1161 H1164 0.950 . S
C1162 C1161 1.387 . S
C1162 C1165 1.387 . S
H1163 C1159 0.950 . S
H1164 C1161 0.950 . S
C1165 C1156 1.390 . S
C1165 H1158 0.950 . S
C1165 C1162 1.387 . S
C1166 C1167 1.387 . S
C1166 H1170 0.950 . S
C1166 C1175 1.390 . S
C1167 C1166 1.387 . S
C1167 C1169 1.387 . S
H1168 C1175 0.950 . S
C1169 C1167 1.387 . S
C1169 C1171 1.390 . S
C1169 H1173 0.950 . S
H1170 C1166 0.950 . S
C1171 C1169 1.390 . S
C1171 C1172 1.387 . S
C1171 H1174 0.950 . S
C1172 C1171 1.387 . S
C1172 C1175 1.387 . S
H1173 C1169 0.950 . S
H1174 C1171 0.950 . S
C1175 C1166 1.390 . S
C1175 H1168 0.950 . S
C1175 C1172 1.387 . S
C1176 C1177 1.387 . S
C1176 H1180 0.950 . S
C1176 C1185 1.390 . S
C1177 C1176 1.387 . S
C1177 C1179 1.387 . S
H1178 C1185 0.950 . S
C1179 C1177 1.387 . S
C1179 C1181 1.390 . S
C1179 H1183 0.950 . S
H1180 C1176 0.950 . S
C1181 C1179 1.390 . S
C1181 C1182 1.387 . S
C1181 H1184 0.950 . S
C1182 C1181 1.387 . S
C1182 C1185 1.387 . S
H1183 C1179 0.950 . S
H1184 C1181 0.950 . S
C1185 C1176 1.390 . S
C1185 H1178 0.950 . S
C1185 C1182 1.387 . S
C1186 C1187 1.387 . S
C1186 H1190 0.950 . S
C1186 C1195 1.390 . S
C1187 C1186 1.387 . S
C1187 C1189 1.387 . S
H1188 C1195 0.950 . S
C1189 C1187 1.387 . S
C1189 C1191 1.390 . S
C1189 H1193 0.950 . S
H1190 C1186 0.950 . S
C1191 C1189 1.390 . S
C1191 C1192 1.387 . S
C1191 H1194 0.950 . S
C1192 C1191 1.387 . S
C1192 C1195 1.387 . S
H1193 C1189 0.950 . S
H1194 C1191 0.950 . S
C1195 C1186 1.390 . S
C1195 H1188 0.950 . S
C1195 C1192 1.387 . S
C1196 C1197 1.387 . S
C1196 H1200 0.950 . S
C1196 C1205 1.390 . S
C1197 C1196 1.387 . S
C1197 C1199 1.387 . S
H1198 C1205 0.950 . S
C1199 C1197 1.387 . S
C1199 C1201 1.390 . S
C1199 H1203 0.950 . S
H1200 C1196 0.950 . S
C1201 C1199 1.390 . S
C1201 C1202 1.387 . S
C1201 H1204 0.950 . S
C1202 C1201 1.387 . S
C1202 C1205 1.387 . S
H1203 C1199 0.950 . S
H1204 C1201 0.950 . S
C1205 C1196 1.390 . S
C1205 H1198 0.950 . S
C1205 C1202 1.387 . S
C1206 C1207 1.387 . S
C1206 H1210 0.950 . S
C1206 C1215 1.390 . S
C1207 C1206 1.387 . S
C1207 C1209 1.387 . S
H1208 C1215 0.950 . S
C1209 C1207 1.387 . S
C1209 C1211 1.390 . S
C1209 H1213 0.950 . S
H1210 C1206 0.950 . S
C1211 C1209 1.390 . S
C1211 C1212 1.387 . S
C1211 H1214 0.950 . S
C1212 C1211 1.387 . S
C1212 C1215 1.387 . S
H1213 C1209 0.950 . S
H1214 C1211 0.950 . S
C1215 C1206 1.390 . S
C1215 H1208 0.950 . S
C1215 C1212 1.387 . S
C1216 C1217 1.387 . S
C1216 H1220 0.950 . S
C1216 C1225 1.390 . S
C1217 C1216 1.387 . S
C1217 C1219 1.387 . S
H1218 C1225 0.950 1_545 S
C1219 C1217 1.387 . S
C1219 C1221 1.390 . S
C1219 H1223 0.950 . S
H1220 C1216 0.950 . S
C1221 C1219 1.390 . S
C1221 C1222 1.387 . S
C1221 H1224 0.950 . S
C1222 C1221 1.387 . S
C1222 C1225 1.387 . S
H1223 C1219 0.950 . S
H1224 C1221 0.950 . S
C1225 C1216 1.390 . S
C1225 H1218 0.950 1_565 S
C1225 C1222 1.387 . S
C1226 C1227 1.387 . S
C1226 H1230 0.950 . S
C1226 C1235 1.390 . S
C1227 C1226 1.387 . S
C1227 C1229 1.387 . S
H1228 C1235 0.950 . S
C1229 C1227 1.387 . S
C1229 C1231 1.390 . S
C1229 H1233 0.950 . S
H1230 C1226 0.950 . S
C1231 C1229 1.390 . S
C1231 C1232 1.387 . S
C1231 H1234 0.950 . S
C1232 C1231 1.387 . S
C1232 C1235 1.387 . S
H1233 C1229 0.950 . S
H1234 C1231 0.950 . S
C1235 C1226 1.390 . S
C1235 H1228 0.950 . S
C1235 C1232 1.387 . S
C1236 C1237 1.387 . S
C1236 H1240 0.950 . S
C1236 C1245 1.390 . S
C1237 C1236 1.387 . S
C1237 C1239 1.387 . S
H1238 C1245 0.950 . S
C1239 C1237 1.387 . S
C1239 C1241 1.390 . S
C1239 H1243 0.950 . S
H1240 C1236 0.950 . S
C1241 C1239 1.390 . S
C1241 C1242 1.387 . S
C1241 H1244 0.950 . S
C1242 C1241 1.387 . S
C1242 C1245 1.387 . S
H1243 C1239 0.950 . S
H1244 C1241 0.950 . S
C1245 C1236 1.390 . S
C1245 H1238 0.950 . S
C1245 C1242 1.387 . S
C1246 C1247 1.387 . S
C1246 H1250 0.950 . S
C1246 C1255 1.390 . S
C1247 C1246 1.387 . S
C1247 C1249 1.387 . S
H1248 C1255 0.950 . S
C1249 C1247 1.387 . S
C1249 C1251 1.390 . S
C1249 H1253 0.950 . S
H1250 C1246 0.950 . S
C1251 C1249 1.390 . S
C1251 C1252 1.387 . S
C1251 H1254 0.950 . S
C1252 C1251 1.387 . S
C1252 C1255 1.387 . S
H1253 C1249 0.950 . S
H1254 C1251 0.950 . S
C1255 C1246 1.390 . S
C1255 H1248 0.950 . S
C1255 C1252 1.387 . S
C1256 C1257 1.387 . S
C1256 H1260 0.924 1_455 S
C1256 C1265 1.390 . S
C1257 C1256 1.387 . S
C1257 C1259 1.387 . S
H1258 C1265 0.950 1_655 S
C1259 C1257 1.387 . S
C1259 C1261 1.390 . S
C1259 H1263 0.950 . S
H1260 C1256 0.924 1_655 S
C1261 C1259 1.390 . S
C1261 C1262 1.387 . S
C1261 H1264 0.950 . S
C1262 C1261 1.387 . S
C1262 C1265 1.387 . S
H1263 C1259 0.950 . S
H1264 C1261 0.950 . S
C1265 C1256 1.390 . S
C1265 H1258 0.950 1_455 S
C1265 C1262 1.387 . S
C1266 C1267 1.387 . S
C1266 H1270 0.950 . S
C1266 C1275 1.390 . S
C1267 C1266 1.387 . S
C1267 C1269 1.387 . S
H1268 C1275 0.950 . S
C1269 C1267 1.387 . S
C1269 C1271 1.390 . S
C1269 H1273 0.950 . S
H1270 C1266 0.950 . S
C1271 C1269 1.390 . S
C1271 C1272 1.387 . S
C1271 H1274 0.950 . S
C1272 C1271 1.387 . S
C1272 C1275 1.387 . S
H1273 C1269 0.950 . S
H1274 C1271 0.950 . S
C1275 C1266 1.390 . S
C1275 H1268 0.950 . S
C1275 C1272 1.387 . S
C1276 C1277 1.387 . S
C1276 H1280 0.950 . S
C1276 C1285 1.390 . S
C1277 C1276 1.387 . S
C1277 C1279 1.387 . S
H1278 C1285 0.950 . S
C1279 C1277 1.387 . S
C1279 C1281 1.390 . S
C1279 H1283 0.950 . S
H1280 C1276 0.950 . S
C1281 C1279 1.390 . S
C1281 C1282 1.387 . S
C1281 H1284 0.950 1_556 S
C1282 C1281 1.387 . S
C1282 C1285 1.387 . S
H1283 C1279 0.950 . S
H1284 C1281 0.950 1_554 S
C1285 C1276 1.390 . S
C1285 H1278 0.950 . S
C1285 C1282 1.387 . S
C1286 C1287 1.387 . S
C1286 H1290 0.950 . S
C1286 C1295 1.390 . S
C1287 C1286 1.387 . S
C1287 C1289 1.387 . S
H1288 C1295 0.950 . S
C1289 C1287 1.387 . S
C1289 C1291 1.390 . S
C1289 H1293 0.950 . S
H1290 C1286 0.950 . S
C1291 C1289 1.390 . S
C1291 C1292 1.387 . S
C1291 H1294 0.950 . S
C1292 C1291 1.387 . S
C1292 C1295 1.387 . S
H1293 C1289 0.950 . S
H1294 C1291 0.950 . S
C1295 C1286 1.390 . S
C1295 H1288 0.950 . S
C1295 C1292 1.387 . S
C1296 C1297 1.387 . S
C1296 H1300 0.950 . S
C1296 C1305 1.390 . S
C1297 C1296 1.387 . S
C1297 C1299 1.387 . S
H1298 C1305 0.950 . S
C1299 C1297 1.387 . S
C1299 C1301 1.390 . S
C1299 H1303 0.950 . S
H1300 C1296 0.950 . S
C1301 C1299 1.390 . S
C1301 C1302 1.387 . S
C1301 H1304 0.950 . S
C1302 C1301 1.387 . S
C1302 C1305 1.387 . S
H1303 C1299 0.950 . S
H1304 C1301 0.950 . S
C1305 C1296 1.390 . S
C1305 H1298 0.950 . S
C1305 C1302 1.387 . S
C1306 C1307 1.387 . S
C1306 H1310 0.950 . S
C1306 C1315 1.390 . S
C1307 C1306 1.387 . S
C1307 C1309 1.387 . S
H1308 C1315 0.950 . S
C1309 C1307 1.387 . S
C1309 C1311 1.390 . S
C1309 H1313 0.950 . S
H1310 C1306 0.950 . S
C1311 C1309 1.390 . S
C1311 C1312 1.387 . S
C1311 H1314 0.950 . S
C1312 C1311 1.387 . S
C1312 C1315 1.387 . S
H1313 C1309 0.950 . S
H1314 C1311 0.950 . S
C1315 C1306 1.390 . S
C1315 H1308 0.950 . S
C1315 C1312 1.387 . S
C1316 C1317 1.387 . S
C1316 H1320 0.950 . S
C1316 C1325 1.390 . S
C1317 C1316 1.387 . S
C1317 C1319 1.387 . S
H1318 C1325 0.950 . S
C1319 C1317 1.387 . S
C1319 C1321 1.390 . S
C1319 H1323 0.950 . S
H1320 C1316 0.950 . S
C1321 C1319 1.390 . S
C1321 C1322 1.387 . S
C1321 H1324 0.950 . S
C1322 C1321 1.387 . S
C1322 C1325 1.387 . S
H1323 C1319 0.950 . S
H1324 C1321 0.950 . S
C1325 C1316 1.390 . S
C1325 H1318 0.950 . S
C1325 C1322 1.387 . S
C1326 C1327 1.387 . S
C1326 H1330 0.950 . S
C1326 C1335 1.390 . S
C1327 C1326 1.387 . S
C1327 C1329 1.387 . S
H1328 C1335 0.950 . S
C1329 C1327 1.387 . S
C1329 C1331 1.390 . S
C1329 H1333 0.950 . S
H1330 C1326 0.950 . S
C1331 C1329 1.390 . S
C1331 C1332 1.387 . S
C1331 H1334 0.950 . S
C1332 C1331 1.387 . S
C1332 C1335 1.387 . S
H1333 C1329 0.950 . S
H1334 C1331 0.950 . S
C1335 C1326 1.390 . S
C1335 H1328 0.950 . S
C1335 C1332 1.387 . S
C1336 C1337 1.387 . S
C1336 H1340 0.950 . S
C1336 C1345 1.390 . S
C1337 C1336 1.387 . S
C1337 C1339 1.387 . S
H1338 C1345 0.950 . S
C1339 C1337 1.387 . S
C1339 C1341 1.390 . S
C1339 H1343 0.950 . S
H1340 C1336 0.950 . S
C1341 C1339 1.390 . S
C1341 C1342 1.387 . S
C1341 H1344 0.950 . S
C1342 C1341 1.387 . S
C1342 C1345 1.387 . S
H1343 C1339 0.950 . S
H1344 C1341 0.950 . S
C1345 C1336 1.390 . S
C1345 H1338 0.950 . S
C1345 C1342 1.387 . S
C1346 C1347 1.387 . S
C1346 H1350 0.950 . S
C1346 C1355 1.390 . S
C1347 C1346 1.387 . S
C1347 C1349 1.387 . S
H1348 C1355 0.950 . S
C1349 C1347 1.387 . S
C1349 C1351 1.390 . S
C1349 H1353 0.950 . S
H1350 C1346 0.950 . S
C1351 C1349 1.390 . S
C1351 C1352 1.387 . S
C1351 H1354 0.950 . S
C1352 C1351 1.387 . S
C1352 C1355 1.387 . S
H1353 C1349 0.950 . S
H1354 C1351 0.950 . S
C1355 C1346 1.390 . S
C1355 H1348 0.950 . S
C1355 C1352 1.387 . S
C1356 C1357 1.387 . S
C1356 H1360 0.950 . S
C1356 C1365 1.390 . S
C1357 C1356 1.387 . S
C1357 C1359 1.387 . S
H1358 C1365 0.950 . S
C1359 C1357 1.387 . S
C1359 C1361 1.390 . S
C1359 H1363 0.950 . S
H1360 C1356 0.950 . S
C1361 C1359 1.390 . S
C1361 C1362 1.387 . S
C1361 H1364 0.950 . S
C1362 C1361 1.387 . S
C1362 C1365 1.387 . S
H1363 C1359 0.950 . S
H1364 C1361 0.950 . S
C1365 C1356 1.390 . S
C1365 H1358 0.950 . S
C1365 C1362 1.387 . S
C1366 C1367 1.387 . S
C1366 H1370 0.950 . S
C1366 C1375 1.390 . S
C1367 C1366 1.387 . S
C1367 C1369 1.387 . S
H1368 C1375 0.950 . S
C1369 C1367 1.387 . S
C1369 C1371 1.390 . S
C1369 H1373 0.950 . S
H1370 C1366 0.950 . S
C1371 C1369 1.390 . S
C1371 C1372 1.387 . S
C1371 H1374 0.950 . S
C1372 C1371 1.387 . S
C1372 C1375 1.387 . S
H1373 C1369 0.950 . S
H1374 C1371 0.950 . S
C1375 C1366 1.390 . S
C1375 H1368 0.950 . S
C1375 C1372 1.387 . S
C1376 C1377 1.387 . S
C1376 H1380 0.950 . S
C1376 C1385 1.390 . S
C1377 C1376 1.387 . S
C1377 C1379 1.387 1_556 S
H1378 C1385 0.950 . S
C1379 C1377 1.387 1_554 S
C1379 C1381 1.390 1_554 S
C1379 H1383 0.950 . S
H1380 C1376 0.950 . S
C1381 C1379 1.390 1_556 S
C1381 C1382 1.387 . S
C1381 H1384 0.944 1_556 S
C1382 C1381 1.387 . S
C1382 C1385 1.387 . S
H1383 C1379 0.950 . S
H1384 C1381 0.944 1_554 S
C1385 C1376 1.390 . S
C1385 H1378 0.950 . S
C1385 C1382 1.387 . S
C1386 C1387 1.387 . S
C1386 H1390 0.950 . S
C1386 C1395 1.390 . S
C1387 C1386 1.387 . S
C1387 C1389 1.387 . S
H1388 C1395 0.950 . S
C1389 C1387 1.387 . S
C1389 C1391 1.390 . S
C1389 H1393 0.950 1_554 S
H1390 C1386 0.950 . S
C1391 C1389 1.390 . S
C1391 C1392 1.387 . S
C1391 H1394 0.950 1_554 S
C1392 C1391 1.387 . S
C1392 C1395 1.387 . S
H1393 C1389 0.950 1_556 S
H1394 C1391 0.950 1_556 S
C1395 C1386 1.390 . S
C1395 H1388 0.950 . S
C1395 C1392 1.387 . S
C1396 C1397 1.387 . S
C1396 H1400 0.950 . S
C1396 C1405 1.390 . S
C1397 C1396 1.387 . S
C1397 C1399 1.387 . S
H1398 C1405 0.950 . S
C1399 C1397 1.387 . S
C1399 C1401 1.390 . S
C1399 H1403 0.950 . S
H1400 C1396 0.950 . S
C1401 C1399 1.390 . S
C1401 C1402 1.387 . S
C1401 H1404 0.950 . S
C1402 C1401 1.387 . S
C1402 C1405 1.387 . S
H1403 C1399 0.950 . S
H1404 C1401 0.950 . S
C1405 C1396 1.390 . S
C1405 H1398 0.950 . S
C1405 C1402 1.387 . S
C1406 C1407 1.387 . S
C1406 H1410 0.950 . S
C1406 C1415 1.390 . S
C1407 C1406 1.387 . S
C1407 C1409 1.387 . S
H1408 C1415 0.950 . S
C1409 C1407 1.387 . S
C1409 C1411 1.390 . S
C1409 H1413 0.950 . S
H1410 C1406 0.950 . S
C1411 C1409 1.390 . S
C1411 C1412 1.387 . S
C1411 H1414 0.950 . S
C1412 C1411 1.387 . S
C1412 C1415 1.387 . S
H1413 C1409 0.950 . S
H1414 C1411 0.950 . S
C1415 C1406 1.390 . S
C1415 H1408 0.950 . S
C1415 C1412 1.387 . S
C1416 C1417 1.387 . S
C1416 H1420 0.950 . S
C1416 C1425 1.390 . S
C1417 C1416 1.387 . S
C1417 C1419 1.387 . S
H1418 C1425 0.950 . S
C1419 C1417 1.387 . S
C1419 C1421 1.390 . S
C1419 H1423 0.950 . S
H1420 C1416 0.950 . S
C1421 C1419 1.390 . S
C1421 C1422 1.387 . S
C1421 H1424 0.950 . S
C1422 C1421 1.387 . S
C1422 C1425 1.387 . S
H1423 C1419 0.950 . S
H1424 C1421 0.950 . S
C1425 C1416 1.390 . S
C1425 H1418 0.950 . S
C1425 C1422 1.387 . S
C1426 C1427 1.387 . S
C1426 H1430 0.950 . S
C1426 C1435 1.390 . S
C1427 C1426 1.387 . S
C1427 C1429 1.387 . S
H1428 C1435 0.950 . S
C1429 C1427 1.387 . S
C1429 C1431 1.390 . S
C1429 H1433 0.950 . S
H1430 C1426 0.950 . S
C1431 C1429 1.390 . S
C1431 C1432 1.387 . S
C1431 H1434 0.950 . S
C1432 C1431 1.387 . S
C1432 C1435 1.387 . S
H1433 C1429 0.950 . S
H1434 C1431 0.950 . S
C1435 C1426 1.390 . S
C1435 H1428 0.950 . S
C1435 C1432 1.387 . S
C1436 C1437 1.387 . S
C1436 H1440 0.950 . S
C1436 C1445 1.390 . S
C1437 C1436 1.387 . S
C1437 C1439 1.387 . S
H1438 C1445 0.950 . S
C1439 C1437 1.387 . S
C1439 C1441 1.390 . S
C1439 H1443 0.950 . S
H1440 C1436 0.950 . S
C1441 C1439 1.390 . S
C1441 C1442 1.387 . S
C1441 H1444 0.950 . S
C1442 C1441 1.387 . S
C1442 C1445 1.387 . S
H1443 C1439 0.950 . S
H1444 C1441 0.950 . S
C1445 C1436 1.390 . S
C1445 H1438 0.950 . S
C1445 C1442 1.387 . S
C1446 C1447 1.387 . S
C1446 H1450 0.950 . S
C1446 C1455 1.390 . S
C1447 C1446 1.387 . S
C1447 C1449 1.387 . S
H1448 C1455 0.950 . S
C1449 C1447 1.387 . S
C1449 C1451 1.390 . S
C1449 H1453 0.950 . S
H1450 C1446 0.950 . S
C1451 C1449 1.390 . S
C1451 C1452 1.387 . S
C1451 H1454 0.950 . S
C1452 C1451 1.387 . S
C1452 C1455 1.387 . S
H1453 C1449 0.950 . S
H1454 C1451 0.950 . S
C1455 C1446 1.390 . S
C1455 H1448 0.950 . S
C1455 C1452 1.387 . S
C1456 C1457 1.387 . S
C1456 H1460 0.950 . S
C1456 C1465 1.390 . S
C1457 C1456 1.387 . S
C1457 C1459 1.387 . S
H1458 C1465 0.950 . S
C1459 C1457 1.387 . S
C1459 C1461 1.390 . S
C1459 H1463 0.950 . S
H1460 C1456 0.950 . S
C1461 C1459 1.390 . S
C1461 C1462 1.387 . S
C1461 H1464 0.950 . S
C1462 C1461 1.387 . S
C1462 C1465 1.387 . S
H1463 C1459 0.950 . S
H1464 C1461 0.950 . S
C1465 C1456 1.390 . S
C1465 H1458 0.950 . S
C1465 C1462 1.387 . S
C1466 C1467 1.387 . S
C1466 H1470 0.950 . S
C1466 C1475 1.390 . S
C1467 C1466 1.387 . S
C1467 C1469 1.387 . S
H1468 C1475 0.950 . S
C1469 C1467 1.387 . S
C1469 C1471 1.390 . S
C1469 H1473 0.950 . S
H1470 C1466 0.950 . S
C1471 C1469 1.390 . S
C1471 C1472 1.387 . S
C1471 H1474 0.950 . S
C1472 C1471 1.387 . S
C1472 C1475 1.387 . S
H1473 C1469 0.950 . S
H1474 C1471 0.950 . S
C1475 C1466 1.390 . S
C1475 H1468 0.950 . S
C1475 C1472 1.387 . S
C1476 C1477 1.387 . S
C1476 H1480 0.950 . S
C1476 C1485 1.390 . S
C1477 C1476 1.387 . S
C1477 C1479 1.405 . S
H1478 C1485 0.950 . S
C1479 C1477 1.405 . S
C1479 C1481 1.387 . S
C1479 H1483 0.937 1_455 S
H1480 C1476 0.950 . S
C1481 C1479 1.387 . S
C1481 C1482 1.387 . S
C1481 H1484 0.950 . S
C1482 C1481 1.387 . S
C1482 C1485 1.387 . S
H1483 C1479 0.937 1_655 S
H1484 C1481 0.950 . S
C1485 C1476 1.390 . S
C1485 H1478 0.950 . S
C1485 C1482 1.387 . S
C1486 C1487 1.387 . S
C1486 H1490 0.950 . S
C1486 C1495 1.390 . S
C1487 C1486 1.387 . S
C1487 C1489 1.387 . S
H1488 C1495 0.950 . S
C1489 C1487 1.387 . S
C1489 C1491 1.390 . S
C1489 H1493 0.950 . S
H1490 C1486 0.950 . S
C1491 C1489 1.390 . S
C1491 C1492 1.387 . S
C1491 H1494 0.950 . S
C1492 C1491 1.387 . S
C1492 C1495 1.387 . S
H1493 C1489 0.950 . S
H1494 C1491 0.950 . S
C1495 C1486 1.390 . S
C1495 H1488 0.950 . S
C1495 C1492 1.387 . S
C1496 C1497 1.387 . S
C1496 H1500 0.950 . S
C1496 C1505 1.390 . S
C1497 C1496 1.387 . S
C1497 C1499 1.387 . S
H1498 C1505 0.950 . S
C1499 C1497 1.387 . S
C1499 C1501 1.390 . S
C1499 H1503 0.950 . S
H1500 C1496 0.950 . S
C1501 C1499 1.390 . S
C1501 C1502 1.387 . S
C1501 H1504 0.950 . S
C1502 C1501 1.387 . S
C1502 C1505 1.387 . S
H1503 C1499 0.950 . S
H1504 C1501 0.950 . S
C1505 C1496 1.390 . S
C1505 H1498 0.950 . S
C1505 C1502 1.387 . S
C1506 C1507 1.387 . S
C1506 H1510 0.950 . S
C1506 C1515 1.390 . S
C1507 C1506 1.387 . S
C1507 C1509 1.387 . S
H1508 C1515 0.950 . S
C1509 C1507 1.387 . S
C1509 C1511 1.390 . S
C1509 H1513 0.950 . S
H1510 C1506 0.950 . S
C1511 C1509 1.390 . S
C1511 C1512 1.387 . S
C1511 H1514 0.950 . S
C1512 C1511 1.387 . S
C1512 C1515 1.387 . S
H1513 C1509 0.950 . S
H1514 C1511 0.950 . S
C1515 C1506 1.390 . S
C1515 H1508 0.950 . S
C1515 C1512 1.387 . S
C1516 C1517 1.387 . S
C1516 H1520 0.950 . S
C1516 C1525 1.390 . S
C1517 C1516 1.387 . S
C1517 C1519 1.387 . S
H1518 C1525 0.950 . S
C1519 C1517 1.387 . S
C1519 C1521 1.390 . S
C1519 H1523 0.950 1_455 S
H1520 C1516 0.950 . S
C1521 C1519 1.390 . S
C1521 C1522 1.387 . S
C1521 H1524 0.950 1_455 S
C1522 C1521 1.387 . S
C1522 C1525 1.387 . S
H1523 C1519 0.950 1_655 S
H1524 C1521 0.950 1_655 S
C1525 C1516 1.390 . S
C1525 H1518 0.950 . S
C1525 C1522 1.387 . S
C1526 C1527 1.387 . S
C1526 H1530 0.950 . S
C1526 C1535 1.390 . S
C1527 C1526 1.387 . S
C1527 C1529 1.387 . S
H1528 C1535 0.950 . S
C1529 C1527 1.387 . S
C1529 C1531 1.390 . S
C1529 H1533 0.950 . S
H1530 C1526 0.950 . S
C1531 C1529 1.390 . S
C1531 C1532 1.387 . S
C1531 H1534 0.950 . S
C1532 C1531 1.387 . S
C1532 C1535 1.387 . S
H1533 C1529 0.950 . S
H1534 C1531 0.950 . S
C1535 C1526 1.390 . S
C1535 H1528 0.950 . S
C1535 C1532 1.387 . S
C1536 C1537 1.387 . S
C1536 H1540 0.950 . S
C1536 C1545 1.390 . S
C1537 C1536 1.387 . S
C1537 C1539 1.387 . S
H1538 C1545 0.950 . S
C1539 C1537 1.387 . S
C1539 C1541 1.390 . S
C1539 H1543 0.950 . S
H1540 C1536 0.950 . S
C1541 C1539 1.390 . S
C1541 C1542 1.387 . S
C1541 H1544 0.950 . S
C1542 C1541 1.387 . S
C1542 C1545 1.387 . S
H1543 C1539 0.950 . S
H1544 C1541 0.950 . S
C1545 C1536 1.390 . S
C1545 H1538 0.950 . S
C1545 C1542 1.387 . S
C1546 C1547 1.387 . S
C1546 H1550 0.950 . S
C1546 C1555 1.390 . S
C1547 C1546 1.387 . S
C1547 C1549 1.387 . S
H1548 C1555 0.950 . S
C1549 C1547 1.387 . S
C1549 C1551 1.390 . S
C1549 H1553 0.950 . S
H1550 C1546 0.950 . S
C1551 C1549 1.390 . S
C1551 C1552 1.387 . S
C1551 H1554 0.950 . S
C1552 C1551 1.387 . S
C1552 C1555 1.387 . S
H1553 C1549 0.950 . S
H1554 C1551 0.950 . S
C1555 C1546 1.390 . S
C1555 H1548 0.950 . S
C1555 C1552 1.387 . S
C1556 C1557 1.387 . S
C1556 H1560 0.950 . S
C1556 C1565 1.390 . S
C1557 C1556 1.387 . S
C1557 C1559 1.387 . S
H1558 C1565 0.950 . S
C1559 C1557 1.387 . S
C1559 C1561 1.390 . S
C1559 H1563 0.950 . S
H1560 C1556 0.950 . S
C1561 C1559 1.390 . S
C1561 C1562 1.387 . S
C1561 H1564 0.950 . S
C1562 C1561 1.387 . S
C1562 C1565 1.387 . S
H1563 C1559 0.950 . S
H1564 C1561 0.950 . S
C1565 C1556 1.390 . S
C1565 H1558 0.950 . S
C1565 C1562 1.387 . S
C1566 C1567 1.387 . S
C1566 H1570 0.950 . S
C1566 C1575 1.390 . S
C1567 C1566 1.387 . S
C1567 C1569 1.387 . S
H1568 C1575 0.950 . S
C1569 C1567 1.387 . S
C1569 C1571 1.390 . S
C1569 H1573 0.950 . S
H1570 C1566 0.950 . S
C1571 C1569 1.390 . S
C1571 C1572 1.387 . S
C1571 H1574 0.950 . S
C1572 C1571 1.387 . S
C1572 C1575 1.387 . S
H1573 C1569 0.950 . S
H1574 C1571 0.950 . S
C1575 C1566 1.390 . S
C1575 H1568 0.950 . S
C1575 C1572 1.387 . S
C1576 C1577 1.387 . S
C1576 H1580 0.950 . S
C1576 C1585 1.390 . S
C1577 C1576 1.387 . S
C1577 C1579 1.387 . S
H1578 C1585 0.950 . S
C1579 C1577 1.387 . S
C1579 C1581 1.390 . S
C1579 H1583 0.950 . S
H1580 C1576 0.950 . S
C1581 C1579 1.390 . S
C1581 C1582 1.387 . S
C1581 H1584 0.950 . S
C1582 C1581 1.387 . S
C1582 C1585 1.387 . S
H1583 C1579 0.950 . S
H1584 C1581 0.950 . S
C1585 C1576 1.390 . S
C1585 H1578 0.950 . S
C1585 C1582 1.387 . S
C1586 C1587 1.387 . S
C1586 H1590 0.950 . S
C1586 C1595 1.390 . S
C1587 C1586 1.387 . S
C1587 C1589 1.387 . S
H1588 C1595 0.950 . S
C1589 C1587 1.387 . S
C1589 C1591 1.390 . S
C1589 H1593 0.950 . S
H1590 C1586 0.950 . S
C1591 C1589 1.390 . S
C1591 C1592 1.387 . S
C1591 H1594 0.950 . S
C1592 C1591 1.387 . S
C1592 C1595 1.387 . S
H1593 C1589 0.950 . S
H1594 C1591 0.950 . S
C1595 C1586 1.390 . S
C1595 H1588 0.950 . S
C1595 C1592 1.387 . S
C1596 C1597 1.387 . S
C1596 H1600 0.950 . S
C1596 C1605 1.390 . S
C1597 C1596 1.387 . S
C1597 C1599 1.387 . S
H1598 C1605 0.950 . S
C1599 C1597 1.387 . S
C1599 C1601 1.390 . S
C1599 H1603 0.950 . S
H1600 C1596 0.950 . S
C1601 C1599 1.390 . S
C1601 C1602 1.387 . S
C1601 H1604 0.950 . S
C1602 C1601 1.387 . S
C1602 C1605 1.387 . S
H1603 C1599 0.950 . S
H1604 C1601 0.950 . S
C1605 C1596 1.390 . S
C1605 H1598 0.950 . S
C1605 C1602 1.387 . S
C1606 C1607 1.387 . S
C1606 H1610 0.950 . S
C1606 C1615 1.390 . S
C1607 C1606 1.387 . S
C1607 C1609 1.387 . S
H1608 C1615 0.950 . S
C1609 C1607 1.387 . S
C1609 C1611 1.390 . S
C1609 H1613 0.950 . S
H1610 C1606 0.950 . S
C1611 C1609 1.390 . S
C1611 C1612 1.387 . S
C1611 H1614 0.950 . S
C1612 C1611 1.387 . S
C1612 C1615 1.387 . S
H1613 C1609 0.950 . S
H1614 C1611 0.950 . S
C1615 C1606 1.390 . S
C1615 H1608 0.950 . S
C1615 C1612 1.387 . S
C1616 C1617 1.387 . S
C1616 H1620 0.950 . S
C1616 C1625 1.390 . S
C1617 C1616 1.387 . S
C1617 C1619 1.387 . S
H1618 C1625 0.950 . S
C1619 C1617 1.387 . S
C1619 C1621 1.390 . S
C1619 H1623 0.950 . S
H1620 C1616 0.950 . S
C1621 C1619 1.390 . S
C1621 C1622 1.387 . S
C1621 H1624 0.950 . S
C1622 C1621 1.387 . S
C1622 C1625 1.387 . S
H1623 C1619 0.950 . S
H1624 C1621 0.950 . S
C1625 C1616 1.390 . S
C1625 H1618 0.950 . S
C1625 C1622 1.387 . S
C1626 C1627 1.387 . S
C1626 H1630 0.950 . S
C1626 C1635 1.390 . S
C1627 C1626 1.387 . S
C1627 C1629 1.387 . S
H1628 C1635 0.950 . S
C1629 C1627 1.387 . S
C1629 C1631 1.390 . S
C1629 H1633 0.950 . S
H1630 C1626 0.950 . S
C1631 C1629 1.390 . S
C1631 C1632 1.387 . S
C1631 H1634 0.950 . S
C1632 C1631 1.387 . S
C1632 C1635 1.387 . S
H1633 C1629 0.950 . S
H1634 C1631 0.950 . S
C1635 C1626 1.390 . S
C1635 H1628 0.950 . S
C1635 C1632 1.387 . S
C1636 C1637 1.387 . S
C1636 H1640 0.950 . S
C1636 C1645 1.390 1_545 S
C1637 C1636 1.387 . S
C1637 C1639 1.387 . S
H1638 C1645 0.950 . S
C1639 C1637 1.387 . S
C1639 C1641 1.390 . S
C1639 H1643 0.950 . S
H1640 C1636 0.950 . S
C1641 C1639 1.390 . S
C1641 C1642 1.387 1_545 S
C1641 H1644 0.950 . S
C1642 C1641 1.387 1_565 S
C1642 C1645 1.387 . S
H1643 C1639 0.950 . S
H1644 C1641 0.950 . S
C1645 C1636 1.390 1_565 S
C1645 H1638 0.950 . S
C1645 C1642 1.387 . S
C1646 C1647 1.387 . S
C1646 H1650 0.950 . S
C1646 C1655 1.390 . S
C1647 C1646 1.387 . S
C1647 C1649 1.387 . S
H1648 C1655 0.950 . S
C1649 C1647 1.387 . S
C1649 C1651 1.390 . S
C1649 H1653 0.950 . S
H1650 C1646 0.950 . S
C1651 C1649 1.390 . S
C1651 C1652 1.387 1_565 S
C1651 H1654 0.950 1_565 S
C1652 C1651 1.387 1_545 S
C1652 C1655 1.387 1_545 S
H1653 C1649 0.950 . S
H1654 C1651 0.950 1_545 S
C1655 C1646 1.390 . S
C1655 H1648 0.950 . S
C1655 C1652 1.387 1_565 S
C1656 C1657 1.387 . S
C1656 H1660 0.950 . S
C1656 C1665 1.390 . S
C1657 C1656 1.387 . S
C1657 C1659 1.387 . S
H1658 C1665 0.950 . S
C1659 C1657 1.387 . S
C1659 C1661 1.390 . S
C1659 H1663 0.950 . S
H1660 C1656 0.950 . S
C1661 C1659 1.390 . S
C1661 C1662 1.387 . S
C1661 H1664 0.950 . S
C1662 C1661 1.387 . S
C1662 C1665 1.387 . S
H1663 C1659 0.950 . S
H1664 C1661 0.950 . S
C1665 C1656 1.390 . S
C1665 H1658 0.950 . S
C1665 C1662 1.387 . S
C1666 C1667 1.387 . S
C1666 H1670 0.950 . S
C1666 C1675 1.390 . S
C1667 C1666 1.387 . S
C1667 C1669 1.387 1_554 S
H1668 C1675 0.950 . S
C1669 C1667 1.387 1_556 S
C1669 C1671 1.390 1_556 S
C1669 H1673 0.950 . S
H1670 C1666 0.950 . S
C1671 C1669 1.390 1_554 S
C1671 C1672 1.387 . S
C1671 H1674 0.951 1_554 S
C1672 C1671 1.387 . S
C1672 C1675 1.387 . S
H1673 C1669 0.950 . S
H1674 C1671 0.951 1_556 S
C1675 C1666 1.390 . S
C1675 H1668 0.950 . S
C1675 C1672 1.387 . S
C1676 C1677 1.387 . S
C1676 H1680 0.950 . S
C1676 C1685 1.390 . S
C1677 C1676 1.387 . S
C1677 C1679 1.387 . S
H1678 C1685 0.950 . S
C1679 C1677 1.387 . S
C1679 C1681 1.390 . S
C1679 H1683 0.950 . S
H1680 C1676 0.950 . S
C1681 C1679 1.390 . S
C1681 C1682 1.387 . S
C1681 H1684 0.950 . S
C1682 C1681 1.387 . S
C1682 C1685 1.387 . S
H1683 C1679 0.950 . S
H1684 C1681 0.950 . S
C1685 C1676 1.390 . S
C1685 H1678 0.950 . S
C1685 C1682 1.387 . S
C1686 C1687 1.387 . S
C1686 H1690 0.950 . S
C1686 C1695 1.390 1_545 S
C1687 C1686 1.387 . S
C1687 C1689 1.387 . S
H1688 C1695 0.950 . S
C1689 C1687 1.387 . S
C1689 C1691 1.390 . S
C1689 H1693 0.950 . S
H1690 C1686 0.950 . S
C1691 C1689 1.390 . S
C1691 C1692 1.387 1_545 S
C1691 H1694 0.950 . S
C1692 C1691 1.387 1_565 S
C1692 C1695 1.387 . S
H1693 C1689 0.950 . S
H1694 C1691 0.950 . S
C1695 C1686 1.390 1_565 S
C1695 H1688 0.950 . S
C1695 C1692 1.387 . S
C1696 C1697 1.387 . S
C1696 H1700 0.950 . S
C1696 C1705 1.390 . S
C1697 C1696 1.387 . S
C1697 C1699 1.387 . S
H1698 C1705 0.950 . S
C1699 C1697 1.387 . S
C1699 C1701 1.390 . S
C1699 H1703 0.950 . S
H1700 C1696 0.950 . S
C1701 C1699 1.390 . S
C1701 C1702 1.387 . S
C1701 H1704 0.950 . S
C1702 C1701 1.387 . S
C1702 C1705 1.387 . S
H1703 C1699 0.950 . S
H1704 C1701 0.950 . S
C1705 C1696 1.390 . S
C1705 H1698 0.950 . S
C1705 C1702 1.387 . S
C1706 C1707 1.387 . S
C1706 H1710 0.950 . S
C1706 C1715 1.390 . S
C1707 C1706 1.387 . S
C1707 C1709 1.387 . S
H1708 C1715 0.950 . S
C1709 C1707 1.387 . S
C1709 C1711 1.390 . S
C1709 H1713 0.950 . S
H1710 C1706 0.950 . S
C1711 C1709 1.390 . S
C1711 C1712 1.387 . S
C1711 H1714 0.950 . S
C1712 C1711 1.387 . S
C1712 C1715 1.387 . S
H1713 C1709 0.950 . S
H1714 C1711 0.950 . S
C1715 C1706 1.390 . S
C1715 H1708 0.950 . S
C1715 C1712 1.387 . S
C1716 C1717 1.387 . S
C1716 H1720 0.950 . S
C1716 C1725 1.390 . S
C1717 C1716 1.387 . S
C1717 C1719 1.387 . S
H1718 C1725 0.950 . S
C1719 C1717 1.387 . S
C1719 C1721 1.390 . S
C1719 H1723 0.950 . S
H1720 C1716 0.950 . S
C1721 C1719 1.390 . S
C1721 C1722 1.387 . S
C1721 H1724 0.950 . S
C1722 C1721 1.387 . S
C1722 C1725 1.387 . S
H1723 C1719 0.950 . S
H1724 C1721 0.950 . S
C1725 C1716 1.390 . S
C1725 H1718 0.950 . S
C1725 C1722 1.387 . S
C1726 C1727 1.387 . S
C1726 H1730 0.950 . S
C1726 C1735 1.390 . S
C1727 C1726 1.387 . S
C1727 C1729 1.387 . S
H1728 C1735 0.950 . S
C1729 C1727 1.387 . S
C1729 C1731 1.390 . S
C1729 H1733 0.950 . S
H1730 C1726 0.950 . S
C1731 C1729 1.390 . S
C1731 C1732 1.387 . S
C1731 H1734 0.950 . S
C1732 C1731 1.387 . S
C1732 C1735 1.387 . S
H1733 C1729 0.950 . S
H1734 C1731 0.950 . S
C1735 C1726 1.390 . S
C1735 H1728 0.950 . S
C1735 C1732 1.387 . S
C1736 C1737 1.387 . S
C1736 H1740 0.950 . S
C1736 C1745 1.390 . S
C1737 C1736 1.387 . S
C1737 C1739 1.387 . S
H1738 C1745 0.950 . S
C1739 C1737 1.387 . S
C1739 C1741 1.390 . S
C1739 H1743 0.950 . S
H1740 C1736 0.950 . S
C1741 C1739 1.390 . S
C1741 C1742 1.387 . S
C1741 H1744 0.950 . S
C1742 C1741 1.387 . S
C1742 C1745 1.387 . S
H1743 C1739 0.950 . S
H1744 C1741 0.950 . S
C1745 C1736 1.390 . S
C1745 H1738 0.950 . S
C1745 C1742 1.387 . S
C1746 C1747 1.387 . S
C1746 H1750 0.950 . S
C1746 C1755 1.390 . S
C1747 C1746 1.387 . S
C1747 C1749 1.387 . S
H1748 C1755 0.950 . S
C1749 C1747 1.387 . S
C1749 C1751 1.390 . S
C1749 H1753 0.950 . S
H1750 C1746 0.950 . S
C1751 C1749 1.390 . S
C1751 C1752 1.387 . S
C1751 H1754 0.950 . S
C1752 C1751 1.387 . S
C1752 C1755 1.387 . S
H1753 C1749 0.950 . S
H1754 C1751 0.950 . S
C1755 C1746 1.390 . S
C1755 H1748 0.950 . S
C1755 C1752 1.387 . S
C1756 C1757 1.387 . S
C1756 H1760 0.950 . S
C1756 C1765 1.390 . S
C1757 C1756 1.387 . S
C1757 C1759 1.387 . S
H1758 C1765 0.950 . S
C1759 C1757 1.387 . S
C1759 C1761 1.390 . S
C1759 H1763 0.950 . S
H1760 C1756 0.950 . S
C1761 C1759 1.390 . S
C1761 C1762 1.387 . S
C1761 H1764 0.950 . S
C1762 C1761 1.387 . S
C1762 C1765 1.387 . S
H1763 C1759 0.950 . S
H1764 C1761 0.950 . S
C1765 C1756 1.390 . S
C1765 H1758 0.950 . S
C1765 C1762 1.387 . S
C1766 C1767 1.387 . S
C1766 H1770 0.950 . S
C1766 C1775 1.390 . S
C1767 C1766 1.387 . S
C1767 C1769 1.387 . S
H1768 C1775 0.950 . S
C1769 C1767 1.387 . S
C1769 C1771 1.390 . S
C1769 H1773 0.950 . S
H1770 C1766 0.950 . S
C1771 C1769 1.390 . S
C1771 C1772 1.387 . S
C1771 H1774 0.950 . S
C1772 C1771 1.387 . S
C1772 C1775 1.387 . S
H1773 C1769 0.950 . S
H1774 C1771 0.950 . S
C1775 C1766 1.390 . S
C1775 H1768 0.950 . S
C1775 C1772 1.387 . S
C1776 C1777 1.387 . S
C1776 H1780 0.950 . S
C1776 C1785 1.390 . S
C1777 C1776 1.387 . S
C1777 C1779 1.387 . S
H1778 C1785 0.950 . S
C1779 C1777 1.387 . S
C1779 C1781 1.390 . S
C1779 H1783 0.950 . S
H1780 C1776 0.950 . S
C1781 C1779 1.390 . S
C1781 C1782 1.387 . S
C1781 H1784 0.950 . S
C1782 C1781 1.387 . S
C1782 C1785 1.387 . S
H1783 C1779 0.950 . S
H1784 C1781 0.950 . S
C1785 C1776 1.390 . S
C1785 H1778 0.950 . S
C1785 C1782 1.387 . S
C1786 C1787 1.387 . S
C1786 H1790 0.950 . S
C1786 C1795 1.390 . S
C1787 C1786 1.387 . S
C1787 C1789 1.387 . S
H1788 C1795 0.950 . S
C1789 C1787 1.387 . S
C1789 C1791 1.390 . S
C1789 H1793 0.950 . S
H1790 C1786 0.950 . S
C1791 C1789 1.390 . S
C1791 C1792 1.387 . S
C1791 H1794 0.950 . S
C1792 C1791 1.387 . S
C1792 C1795 1.387 . S
H1793 C1789 0.950 . S
H1794 C1791 0.950 . S
C1795 C1786 1.390 . S
C1795 H1788 0.950 . S
C1795 C1792 1.387 . S
C1796 C1797 1.387 . S
C1796 H1800 0.950 . S
C1796 C1805 1.390 . S
C1797 C1796 1.387 . S
C1797 C1799 1.387 . S
H1798 C1805 0.950 . S
C1799 C1797 1.387 . S
C1799 C1801 1.390 . S
C1799 H1803 0.950 . S
H1800 C1796 0.950 . S
C1801 C1799 1.390 . S
C1801 C1802 1.387 . S
C1801 H1804 0.950 . S
C1802 C1801 1.387 . S
C1802 C1805 1.387 . S
H1803 C1799 0.950 . S
H1804 C1801 0.950 . S
C1805 C1796 1.390 . S
C1805 H1798 0.950 . S
C1805 C1802 1.387 . S
C1806 C1807 1.387 . S
C1806 H1810 0.950 . S
C1806 C1815 1.390 . S
C1807 C1806 1.387 . S
C1807 C1809 1.387 . S
H1808 C1815 0.950 . S
C1809 C1807 1.387 . S
C1809 C1811 1.390 . S
C1809 H1813 0.950 . S
H1810 C1806 0.950 . S
C1811 C1809 1.390 . S
C1811 C1812 1.387 . S
C1811 H1814 0.950 . S
C1812 C1811 1.387 . S
C1812 C1815 1.387 . S
H1813 C1809 0.950 . S
H1814 C1811 0.950 . S
C1815 C1806 1.390 . S
C1815 H1808 0.950 . S
C1815 C1812 1.387 . S
C1816 C1817 1.387 . S
C1816 H1820 0.950 . S
C1816 C1825 1.390 . S
C1817 C1816 1.387 . S
C1817 C1819 1.387 . S
H1818 C1825 0.950 . S
C1819 C1817 1.387 . S
C1819 C1821 1.390 . S
C1819 H1823 0.950 . S
H1820 C1816 0.950 . S
C1821 C1819 1.390 . S
C1821 C1822 1.387 . S
C1821 H1824 0.950 . S
C1822 C1821 1.387 . S
C1822 C1825 1.387 . S
H1823 C1819 0.950 . S
H1824 C1821 0.950 . S
C1825 C1816 1.390 . S
C1825 H1818 0.950 . S
C1825 C1822 1.387 . S
C1826 C1827 1.387 . S
C1826 H1830 0.950 . S
C1826 C1835 1.390 . S
C1827 C1826 1.387 . S
C1827 C1829 1.387 . S
H1828 C1835 0.950 . S
C1829 C1827 1.387 . S
C1829 C1831 1.390 . S
C1829 H1833 0.950 . S
H1830 C1826 0.950 . S
C1831 C1829 1.390 . S
C1831 C1832 1.387 . S
C1831 H1834 0.950 . S
C1832 C1831 1.387 . S
C1832 C1835 1.387 . S
H1833 C1829 0.950 . S
H1834 C1831 0.950 . S
C1835 C1826 1.390 . S
C1835 H1828 0.950 . S
C1835 C1832 1.387 . S
C1836 C1837 1.387 . S
C1836 H1840 0.950 . S
C1836 C1845 1.390 . S
C1837 C1836 1.387 . S
C1837 C1839 1.387 . S
H1838 C1845 0.950 . S
C1839 C1837 1.387 . S
C1839 C1841 1.390 . S
C1839 H1843 0.950 . S
H1840 C1836 0.950 . S
C1841 C1839 1.390 . S
C1841 C1842 1.387 . S
C1841 H1844 0.950 . S
C1842 C1841 1.387 . S
C1842 C1845 1.387 . S
H1843 C1839 0.950 . S
H1844 C1841 0.950 . S
C1845 C1836 1.390 . S
C1845 H1838 0.950 . S
C1845 C1842 1.387 . S
C1846 C1847 1.387 . S
C1846 H1850 0.950 . S
C1846 C1855 1.390 . S
C1847 C1846 1.387 . S
C1847 C1849 1.387 . S
H1848 C1855 0.950 . S
C1849 C1847 1.387 . S
C1849 C1851 1.390 . S
C1849 H1853 0.950 . S
H1850 C1846 0.950 . S
C1851 C1849 1.390 . S
C1851 C1852 1.387 . S
C1851 H1854 0.950 . S
C1852 C1851 1.387 . S
C1852 C1855 1.387 . S
H1853 C1849 0.950 . S
H1854 C1851 0.950 . S
C1855 C1846 1.390 . S
C1855 H1848 0.950 . S
C1855 C1852 1.387 . S
C1856 C1857 1.387 . S
C1856 H1860 0.950 . S
C1856 C1865 1.390 . S
C1857 C1856 1.387 . S
C1857 C1859 1.387 . S
H1858 C1865 0.950 . S
C1859 C1857 1.387 . S
C1859 C1861 1.390 . S
C1859 H1863 0.950 . S
H1860 C1856 0.950 . S
C1861 C1859 1.390 . S
C1861 C1862 1.387 . S
C1861 H1864 0.950 . S
C1862 C1861 1.387 . S
C1862 C1865 1.387 . S
H1863 C1859 0.950 . S
H1864 C1861 0.950 . S
C1865 C1856 1.390 . S
C1865 H1858 0.950 . S
C1865 C1862 1.387 . S
C1866 C1867 1.387 . S
C1866 H1870 0.950 . S
C1866 C1875 1.390 1_565 S
C1867 C1866 1.387 . S
C1867 C1869 1.387 . S
H1868 C1875 0.950 . S
C1869 C1867 1.387 . S
C1869 C1871 1.390 . S
C1869 H1873 0.950 . S
H1870 C1866 0.950 . S
C1871 C1869 1.390 . S
C1871 C1872 1.387 1_565 S
C1871 H1874 0.950 . S
C1872 C1871 1.387 1_545 S
C1872 C1875 1.387 . S
H1873 C1869 0.950 . S
H1874 C1871 0.950 . S
C1875 C1866 1.390 1_545 S
C1875 H1868 0.950 . S
C1875 C1872 1.387 . S
C1876 C1877 1.387 . S
C1876 H1880 0.950 . S
C1876 C1885 1.390 . S
C1877 C1876 1.387 . S
C1877 C1879 1.387 . S
H1878 C1885 0.950 . S
C1879 C1877 1.387 . S
C1879 C1881 1.390 . S
C1879 H1883 0.950 . S
H1880 C1876 0.950 . S
C1881 C1879 1.390 . S
C1881 C1882 1.387 . S
C1881 H1884 0.950 . S
C1882 C1881 1.387 . S
C1882 C1885 1.387 . S
H1883 C1879 0.950 . S
H1884 C1881 0.950 . S
C1885 C1876 1.390 . S
C1885 H1878 0.950 . S
C1885 C1882 1.387 . S
C1886 C1887 1.387 . S
C1886 H1890 0.950 . S
C1886 C1895 1.390 . S
C1887 C1886 1.387 . S
C1887 C1889 1.387 1_556 S
H1888 C1895 0.950 . S
C1889 C1887 1.387 1_554 S
C1889 C1891 1.390 . S
C1889 H1893 0.950 . S
H1890 C1886 0.950 . S
C1891 C1889 1.390 . S
C1891 C1892 1.387 1_554 S
C1891 H1894 0.950 . S
C1892 C1891 1.387 1_556 S
C1892 C1895 1.387 . S
H1893 C1889 0.950 . S
H1894 C1891 0.950 . S
C1895 C1886 1.390 . S
C1895 H1888 0.950 . S
C1895 C1892 1.387 . S
C1896 C1897 1.387 . S
C1896 H1900 0.950 . S
C1896 C1905 1.390 . S
C1897 C1896 1.387 . S
C1897 C1899 1.387 . S
H1898 C1905 0.950 . S
C1899 C1897 1.387 . S
C1899 C1901 1.390 . S
C1899 H1903 0.950 . S
H1900 C1896 0.950 . S
C1901 C1899 1.390 . S
C1901 C1902 1.387 . S
C1901 H1904 0.950 . S
C1902 C1901 1.387 . S
C1902 C1905 1.387 . S
H1903 C1899 0.950 . S
H1904 C1901 0.950 . S
C1905 C1896 1.390 . S
C1905 H1898 0.950 . S
C1905 C1902 1.387 . S
C1906 C1907 1.387 1_556 S
C1906 H1910 0.950 . S
C1906 C1915 1.390 . S
C1907 C1906 1.387 1_554 S
C1907 C1909 1.387 . S
H1908 C1915 0.950 . S
C1909 C1907 1.387 . S
C1909 C1911 1.390 . S
C1909 H1913 0.950 . S
H1910 C1906 0.950 . S
C1911 C1909 1.390 . S
C1911 C1912 1.387 . S
C1911 H1914 0.950 . S
C1912 C1911 1.387 . S
C1912 C1915 1.387 1_554 S
H1913 C1909 0.950 . S
H1914 C1911 0.950 . S
C1915 C1906 1.390 . S
C1915 H1908 0.950 . S
C1915 C1912 1.387 1_556 S
C1916 C1917 1.387 . S
C1916 H1920 0.950 . S
C1916 C1925 1.390 . S
C1917 C1916 1.387 . S
C1917 C1919 1.387 . S
H1918 C1925 0.950 . S
C1919 C1917 1.387 . S
C1919 C1921 1.390 . S
C1919 H1923 0.950 . S
H1920 C1916 0.950 . S
C1921 C1919 1.390 . S
C1921 C1922 1.387 . S
C1921 H1924 0.950 . S
C1922 C1921 1.387 . S
C1922 C1925 1.387 . S
H1923 C1919 0.950 . S
H1924 C1921 0.950 . S
C1925 C1916 1.390 . S
C1925 H1918 0.950 . S
C1925 C1922 1.387 . S
C1926 C1927 1.387 . S
C1926 H1930 0.950 . S
C1926 C1935 1.390 . S
C1927 C1926 1.387 . S
C1927 C1929 1.387 . S
H1928 C1935 0.950 . S
C1929 C1927 1.387 . S
C1929 C1931 1.390 . S
C1929 H1933 0.950 . S
H1930 C1926 0.950 . S
C1931 C1929 1.390 . S
C1931 C1932 1.387 . S
C1931 H1934 0.950 . S
C1932 C1931 1.387 . S
C1932 C1935 1.387 . S
H1933 C1929 0.950 . S
H1934 C1931 0.950 . S
C1935 C1926 1.390 . S
C1935 H1928 0.950 . S
C1935 C1932 1.387 . S
C977 C111 1.805 1_455 S
C982 C358 1.824 . S
C987 C64 1.395 . S
C992 C378 1.525 . S
C997 C77 0.846 . S
C1002 C425 0.839 . S
C1012 C482 1.112 . S
C1007 C95 1.167 . S
C1017 C25 2.433 . S
C1022 C499 2.429 1_565 S
C1032 C558 1.950 . S
C1027 C36 1.926 . S
C1042 C591 2.735 . S
C1037 C50 2.623 . S
C1047 C11 2.507 . S
C1052 C638 2.451 . S
C1062 C351 1.862 . S
C1057 C237 1.703 1_545 S
C1067 C245 1.572 . S
C1072 C379 1.557 . S
C1082 C418 0.756 . S
C1077 C279 0.752 1_565 S
C1092 C478 2.210 . S
C1087 C175 2.177 . S
C1097 C231 0.627 . S
C1102 C505 0.647 . S
C1112 C551 2.170 . S
C1107 C251 2.141 . S
C1122 C602 1.025 . S
C1117 C273 1.058 . S
C1132 C631 2.324 . S
C1127 C181 2.181 . S
C1142 C362 2.107 . S
C1137 C165 2.294 . S
C1147 C288 2.111 . S
C1152 C658 2.179 . S
C1162 C722 1.555 . S
C1157 C333 1.587 . S
C1172 C758 1.584 . S
C1167 C316 1.633 . S
C1177 C123 1.967 . S
C1182 C642 1.879 . S
C1187 C137 2.493 . S
C1192 C419 2.500 . S
C1197 C330 1.398 . S
C1202 C791 1.612 . S
C1212 C825 0.622 . S
C1207 C302 0.689 . S
C1222 C339 2.032 1_565 S
C1217 C63 2.011 . S
C1232 C831 1.763 . S
C1227 C106 1.807 . S
C1237 C97 0.957 . S
C1242 C442 0.924 . S
C1247 C81 1.165 . S
C1252 C785 1.207 . S
C1262 C518 2.558 . S
C1257 C13 2.493 . S
C1267 C55 1.830 . S
C1272 C699 1.967 . S
C1282 C578 2.655 1_566 S
C1277 C35 2.650 . S
C1292 C859 2.617 . S
C1287 C21 2.641 . S
C1302 C338 1.789 . S
C1297 C147 1.731 . S
C1312 C838 1.718 . S
C1307 C321 1.715 . S
C1317 C119 0.790 . S
C1322 C431 0.798 . S
C1327 C293 2.120 . S
C1332 C779 2.289 . S
C1337 C153 0.685 . S
C1342 C522 0.698 . S
C1352 C698 2.280 . S
C1347 C315 2.303 . S
C1357 C125 0.939 . S
C1362 C585 0.994 . S
C1367 C287 2.379 . S
C1372 C858 2.381 . S
C1377 C193 2.027 1_556 S
C1382 C345 1.968 . S
C1387 C176 2.136 . S
C1392 C671 2.146 . S
C1397 C263 1.521 . S
C1402 C545 1.634 . S
C1407 C246 1.613 . S
C1412 C739 1.647 . S
C1422 C865 1.734 . S
C1417 C277 1.690 . S
C1427 C221 2.550 . S
C1432 C438 2.556 1_565 S
C1442 C458 1.637 . S
C1437 C260 1.608 . S
C1452 C402 0.772 . S
C1447 C204 0.782 . S
C1457 C83 2.007 . S
C1462 C918 2.031 . S
C1472 C818 1.533 . S
C1467 C92 1.404 . S
C1477 C105 0.735 . S
C1482 C945 0.736 . S
C1487 C67 1.229 . S
C1492 C802 1.168 1_455 S
C1497 C53 2.420 . S
C1502 C659 2.415 . S
C1512 C718 1.990 . S
C1507 C8 1.966 1_655 S
C1522 C751 2.748 . S
C1517 C22 2.643 . S
C1532 C878 2.375 . S
C1527 C39 2.440 . S
C1542 C911 1.784 . S
C1537 C265 1.627 . S
C1547 C189 1.548 . S
C1552 C819 1.532 . S
C1562 C938 0.756 . S
C1557 C209 0.754 . S
C1572 C798 2.201 . S
C1567 C217 2.173 . S
C1582 C665 0.638 . S
C1577 C259 0.612 . S
C1587 C195 2.194 . S
C1592 C711 2.212 . S
C1602 C762 0.995 . S
C1597 C203 1.030 . S
C1607 C223 2.169 . S
C1612 C871 2.300 . S
C1622 C922 2.125 . S
C1617 C319 2.311 . S
C1627 C134 2.160 . S
C1632 C498 2.225 . S
C1642 C562 1.500 . S
C1637 C151 1.530 . S
C1652 C598 1.581 . S
C1647 C162 1.626 . S
C1662 C882 1.583 . S
C1657 C305 1.688 . S
C1667 C291 2.528 . S
C1672 C939 2.529 1_655 S
C1682 C471 1.642 . S
C1677 C148 1.440 . S
C1692 C385 0.612 . S
C1687 C120 0.632 . S
C1697 C91 2.070 . S
C1702 C899 2.097 . S
C1712 C391 1.527 . S
C1707 C78 1.583 . S
C1717 C69 0.923 . S
C1722 C962 0.909 . S
C1727 C109 1.011 . S
C1732 C465 1.033 . S
C1737 C41 2.491 . S
C1742 C678 2.549 . S
C1752 C539 2.005 . S
C1747 C27 1.868 . S
C1757 C7 2.687 . S
C1762 C738 2.692 . S
C1767 C49 2.585 . S
C1772 C619 2.549 . S
C1782 C898 1.845 . S
C1777 C329 1.777 . S
C1787 C167 1.716 . S
C1792 C398 1.710 . S
C1802 C951 0.645 . S
C1797 C301 0.645 . S
C1807 C139 2.153 . S
C1812 C459 2.311 . S
C1817 C335 0.660 . S
C1822 C682 0.672 . S
C1832 C538 2.331 . S
C1827 C161 2.354 1_556 S
C1837 C307 0.836 . S
C1842 C745 0.887 . S
C1852 C618 2.376 . S
C1847 C133 2.377 . S
C1862 C905 2.068 . S
C1857 C249 2.143 . S
C1872 C511 2.212 . S
C1867 C218 2.203 . S
C1877 C235 1.473 . S
C1882 C705 1.582 . S
C1892 C579 1.589 1_556 S
C1887 C190 1.553 . S
C1897 C207 1.700 . S
C1902 C625 1.740 . S
C1907 C179 2.588 . S
C1912 C958 2.593 . S
C1922 C778 1.660 . S
C1917 C232 1.634 . S
C1932 C842 0.764 . S
C1927 C274 0.769 . S
