# Generated by pormake.
# Topology iac, (4,6)-cn, num edge types: 1
# Building blocks:
#     Node 0, Type 0, BuildingBlock: QUQFOY_clean_sbu_1, # of connection points: 4
#     Node 1, Type 0, BuildingBlock: QUQFOY_clean_sbu_1, # of connection points: 4
#     Node 2, Type 0, BuildingBlock: QUQFOY_clean_sbu_1, # of connection points: 4
#     Node 3, Type 0, BuildingBlock: QUQFOY_clean_sbu_1, # of connection points: 4
#     Node 4, Type 0, BuildingBlock: QUQFOY_clean_sbu_1, # of connection points: 4
#     Node 5, Type 0, BuildingBlock: QUQFOY_clean_sbu_1, # of connection points: 4
#     Node 6, Type 0, BuildingBlock: QUQFOY_clean_sbu_1, # of connection points: 4
#     Node 7, Type 0, BuildingBlock: QUQFOY_clean_sbu_1, # of connection points: 4
#     Node 8, Type 0, BuildingBlock: QUQFOY_clean_sbu_1, # of connection points: 4
#     Node 9, Type 0, BuildingBlock: QUQFOY_clean_sbu_1, # of connection points: 4
#     Node 10, Type 0, BuildingBlock: QUQFOY_clean_sbu_1, # of connection points: 4
#     Node 11, Type 0, BuildingBlock: QUQFOY_clean_sbu_1, # of connection points: 4
#     Node 12, Type 0, BuildingBlock: QUQFOY_clean_sbu_1, # of connection points: 4
#     Node 13, Type 0, BuildingBlock: QUQFOY_clean_sbu_1, # of connection points: 4
#     Node 14, Type 0, BuildingBlock: QUQFOY_clean_sbu_1, # of connection points: 4
#     Node 15, Type 0, BuildingBlock: QUQFOY_clean_sbu_1, # of connection points: 4
#     Node 16, Type 0, BuildingBlock: QUQFOY_clean_sbu_1, # of connection points: 4
#     Node 17, Type 0, BuildingBlock: QUQFOY_clean_sbu_1, # of connection points: 4
#     Node 18, Type 0, BuildingBlock: QUQFOY_clean_sbu_1, # of connection points: 4
#     Node 19, Type 0, BuildingBlock: QUQFOY_clean_sbu_1, # of connection points: 4
#     Node 20, Type 0, BuildingBlock: QUQFOY_clean_sbu_1, # of connection points: 4
#     Node 21, Type 0, BuildingBlock: QUQFOY_clean_sbu_1, # of connection points: 4
#     Node 22, Type 0, BuildingBlock: QUQFOY_clean_sbu_1, # of connection points: 4
#     Node 23, Type 0, BuildingBlock: QUQFOY_clean_sbu_1, # of connection points: 4
#     Node 24, Type 1, BuildingBlock: VOLQOD_clean_sbu_1, # of connection points: 6
#     Node 25, Type 1, BuildingBlock: VOLQOD_clean_sbu_1, # of connection points: 6
#     Node 26, Type 1, BuildingBlock: VOLQOD_clean_sbu_1, # of connection points: 6
#     Node 27, Type 1, BuildingBlock: VOLQOD_clean_sbu_1, # of connection points: 6
#     Node 28, Type 1, BuildingBlock: VOLQOD_clean_sbu_1, # of connection points: 6
#     Node 29, Type 1, BuildingBlock: VOLQOD_clean_sbu_1, # of connection points: 6
#     Node 30, Type 1, BuildingBlock: VOLQOD_clean_sbu_1, # of connection points: 6
#     Node 31, Type 1, BuildingBlock: VOLQOD_clean_sbu_1, # of connection points: 6
#     Node 32, Type 1, BuildingBlock: VOLQOD_clean_sbu_1, # of connection points: 6
#     Node 33, Type 1, BuildingBlock: VOLQOD_clean_sbu_1, # of connection points: 6
#     Node 34, Type 1, BuildingBlock: VOLQOD_clean_sbu_1, # of connection points: 6
#     Node 35, Type 1, BuildingBlock: VOLQOD_clean_sbu_1, # of connection points: 6
#     Node 36, Type 1, BuildingBlock: VOLQOD_clean_sbu_1, # of connection points: 6
#     Node 37, Type 1, BuildingBlock: VOLQOD_clean_sbu_1, # of connection points: 6
#     Node 38, Type 1, BuildingBlock: VOLQOD_clean_sbu_1, # of connection points: 6
#     Node 39, Type 1, BuildingBlock: VOLQOD_clean_sbu_1, # of connection points: 6
#     Edge 40, Type (0, 1), BuildingBlock: UVAHIK_clean_linker_0, # of connection points: 2
#     Edge 41, Type (0, 1), BuildingBlock: UVAHIK_clean_linker_0, # of connection points: 2
#     Edge 42, Type (0, 1), BuildingBlock: UVAHIK_clean_linker_0, # of connection points: 2
#     Edge 43, Type (0, 1), BuildingBlock: UVAHIK_clean_linker_0, # of connection points: 2
#     Edge 44, Type (0, 1), BuildingBlock: UVAHIK_clean_linker_0, # of connection points: 2
#     Edge 45, Type (0, 1), BuildingBlock: UVAHIK_clean_linker_0, # of connection points: 2
#     Edge 46, Type (0, 1), BuildingBlock: UVAHIK_clean_linker_0, # of connection points: 2
#     Edge 47, Type (0, 1), BuildingBlock: UVAHIK_clean_linker_0, # of connection points: 2
#     Edge 48, Type (0, 1), BuildingBlock: UVAHIK_clean_linker_0, # of connection points: 2
#     Edge 49, Type (0, 1), BuildingBlock: UVAHIK_clean_linker_0, # of connection points: 2
#     Edge 50, Type (0, 1), BuildingBlock: UVAHIK_clean_linker_0, # of connection points: 2
#     Edge 51, Type (0, 1), BuildingBlock: UVAHIK_clean_linker_0, # of connection points: 2
#     Edge 52, Type (0, 1), BuildingBlock: UVAHIK_clean_linker_0, # of connection points: 2
#     Edge 53, Type (0, 1), BuildingBlock: UVAHIK_clean_linker_0, # of connection points: 2
#     Edge 54, Type (0, 1), BuildingBlock: UVAHIK_clean_linker_0, # of connection points: 2
#     Edge 55, Type (0, 1), BuildingBlock: UVAHIK_clean_linker_0, # of connection points: 2
#     Edge 56, Type (0, 1), BuildingBlock: UVAHIK_clean_linker_0, # of connection points: 2
#     Edge 57, Type (0, 1), BuildingBlock: UVAHIK_clean_linker_0, # of connection points: 2
#     Edge 58, Type (0, 1), BuildingBlock: UVAHIK_clean_linker_0, # of connection points: 2
#     Edge 59, Type (0, 1), BuildingBlock: UVAHIK_clean_linker_0, # of connection points: 2
#     Edge 60, Type (0, 1), BuildingBlock: UVAHIK_clean_linker_0, # of connection points: 2
#     Edge 61, Type (0, 1), BuildingBlock: UVAHIK_clean_linker_0, # of connection points: 2
#     Edge 62, Type (0, 1), BuildingBlock: UVAHIK_clean_linker_0, # of connection points: 2
#     Edge 63, Type (0, 1), BuildingBlock: UVAHIK_clean_linker_0, # of connection points: 2
#     Edge 64, Type (0, 1), BuildingBlock: UVAHIK_clean_linker_0, # of connection points: 2
#     Edge 65, Type (0, 1), BuildingBlock: UVAHIK_clean_linker_0, # of connection points: 2
#     Edge 66, Type (0, 1), BuildingBlock: UVAHIK_clean_linker_0, # of connection points: 2
#     Edge 67, Type (0, 1), BuildingBlock: UVAHIK_clean_linker_0, # of connection points: 2
#     Edge 68, Type (0, 1), BuildingBlock: UVAHIK_clean_linker_0, # of connection points: 2
#     Edge 69, Type (0, 1), BuildingBlock: UVAHIK_clean_linker_0, # of connection points: 2
#     Edge 70, Type (0, 1), BuildingBlock: UVAHIK_clean_linker_0, # of connection points: 2
#     Edge 71, Type (0, 1), BuildingBlock: UVAHIK_clean_linker_0, # of connection points: 2
#     Edge 72, Type (0, 1), BuildingBlock: UVAHIK_clean_linker_0, # of connection points: 2
#     Edge 73, Type (0, 1), BuildingBlock: UVAHIK_clean_linker_0, # of connection points: 2
#     Edge 74, Type (0, 1), BuildingBlock: UVAHIK_clean_linker_0, # of connection points: 2
#     Edge 75, Type (0, 1), BuildingBlock: UVAHIK_clean_linker_0, # of connection points: 2
#     Edge 76, Type (0, 1), BuildingBlock: UVAHIK_clean_linker_0, # of connection points: 2
#     Edge 77, Type (0, 1), BuildingBlock: UVAHIK_clean_linker_0, # of connection points: 2
#     Edge 78, Type (0, 1), BuildingBlock: UVAHIK_clean_linker_0, # of connection points: 2
#     Edge 79, Type (0, 1), BuildingBlock: UVAHIK_clean_linker_0, # of connection points: 2
#     Edge 80, Type (0, 1), BuildingBlock: UVAHIK_clean_linker_0, # of connection points: 2
#     Edge 81, Type (0, 1), BuildingBlock: UVAHIK_clean_linker_0, # of connection points: 2
#     Edge 82, Type (0, 1), BuildingBlock: UVAHIK_clean_linker_0, # of connection points: 2
#     Edge 83, Type (0, 1), BuildingBlock: UVAHIK_clean_linker_0, # of connection points: 2
#     Edge 84, Type (0, 1), BuildingBlock: UVAHIK_clean_linker_0, # of connection points: 2
#     Edge 85, Type (0, 1), BuildingBlock: UVAHIK_clean_linker_0, # of connection points: 2
#     Edge 86, Type (0, 1), BuildingBlock: UVAHIK_clean_linker_0, # of connection points: 2
#     Edge 87, Type (0, 1), BuildingBlock: UVAHIK_clean_linker_0, # of connection points: 2
#     Edge 88, Type (0, 1), BuildingBlock: UVAHIK_clean_linker_0, # of connection points: 2
#     Edge 89, Type (0, 1), BuildingBlock: UVAHIK_clean_linker_0, # of connection points: 2
#     Edge 90, Type (0, 1), BuildingBlock: UVAHIK_clean_linker_0, # of connection points: 2
#     Edge 91, Type (0, 1), BuildingBlock: UVAHIK_clean_linker_0, # of connection points: 2
#     Edge 92, Type (0, 1), BuildingBlock: UVAHIK_clean_linker_0, # of connection points: 2
#     Edge 93, Type (0, 1), BuildingBlock: UVAHIK_clean_linker_0, # of connection points: 2
#     Edge 94, Type (0, 1), BuildingBlock: UVAHIK_clean_linker_0, # of connection points: 2
#     Edge 95, Type (0, 1), BuildingBlock: UVAHIK_clean_linker_0, # of connection points: 2
#     Edge 96, Type (0, 1), BuildingBlock: UVAHIK_clean_linker_0, # of connection points: 2
#     Edge 97, Type (0, 1), BuildingBlock: UVAHIK_clean_linker_0, # of connection points: 2
#     Edge 98, Type (0, 1), BuildingBlock: UVAHIK_clean_linker_0, # of connection points: 2
#     Edge 99, Type (0, 1), BuildingBlock: UVAHIK_clean_linker_0, # of connection points: 2
#     Edge 100, Type (0, 1), BuildingBlock: UVAHIK_clean_linker_0, # of connection points: 2
#     Edge 101, Type (0, 1), BuildingBlock: UVAHIK_clean_linker_0, # of connection points: 2
#     Edge 102, Type (0, 1), BuildingBlock: UVAHIK_clean_linker_0, # of connection points: 2
#     Edge 103, Type (0, 1), BuildingBlock: UVAHIK_clean_linker_0, # of connection points: 2
#     Edge 104, Type (0, 1), BuildingBlock: UVAHIK_clean_linker_0, # of connection points: 2
#     Edge 105, Type (0, 1), BuildingBlock: UVAHIK_clean_linker_0, # of connection points: 2
#     Edge 106, Type (0, 1), BuildingBlock: UVAHIK_clean_linker_0, # of connection points: 2
#     Edge 107, Type (0, 1), BuildingBlock: UVAHIK_clean_linker_0, # of connection points: 2
#     Edge 108, Type (0, 1), BuildingBlock: UVAHIK_clean_linker_0, # of connection points: 2
#     Edge 109, Type (0, 1), BuildingBlock: UVAHIK_clean_linker_0, # of connection points: 2
#     Edge 110, Type (0, 1), BuildingBlock: UVAHIK_clean_linker_0, # of connection points: 2
#     Edge 111, Type (0, 1), BuildingBlock: UVAHIK_clean_linker_0, # of connection points: 2
#     Edge 112, Type (0, 1), BuildingBlock: UVAHIK_clean_linker_0, # of connection points: 2
#     Edge 113, Type (0, 1), BuildingBlock: UVAHIK_clean_linker_0, # of connection points: 2
#     Edge 114, Type (0, 1), BuildingBlock: UVAHIK_clean_linker_0, # of connection points: 2
#     Edge 115, Type (0, 1), BuildingBlock: UVAHIK_clean_linker_0, # of connection points: 2
#     Edge 116, Type (0, 1), BuildingBlock: UVAHIK_clean_linker_0, # of connection points: 2
#     Edge 117, Type (0, 1), BuildingBlock: UVAHIK_clean_linker_0, # of connection points: 2
#     Edge 118, Type (0, 1), BuildingBlock: UVAHIK_clean_linker_0, # of connection points: 2
#     Edge 119, Type (0, 1), BuildingBlock: UVAHIK_clean_linker_0, # of connection points: 2
#     Edge 120, Type (0, 1), BuildingBlock: UVAHIK_clean_linker_0, # of connection points: 2
#     Edge 121, Type (0, 1), BuildingBlock: UVAHIK_clean_linker_0, # of connection points: 2
#     Edge 122, Type (0, 1), BuildingBlock: UVAHIK_clean_linker_0, # of connection points: 2
#     Edge 123, Type (0, 1), BuildingBlock: UVAHIK_clean_linker_0, # of connection points: 2
#     Edge 124, Type (0, 1), BuildingBlock: UVAHIK_clean_linker_0, # of connection points: 2
#     Edge 125, Type (0, 1), BuildingBlock: UVAHIK_clean_linker_0, # of connection points: 2
#     Edge 126, Type (0, 1), BuildingBlock: UVAHIK_clean_linker_0, # of connection points: 2
#     Edge 127, Type (0, 1), BuildingBlock: UVAHIK_clean_linker_0, # of connection points: 2
#     Edge 128, Type (0, 1), BuildingBlock: UVAHIK_clean_linker_0, # of connection points: 2
#     Edge 129, Type (0, 1), BuildingBlock: UVAHIK_clean_linker_0, # of connection points: 2
#     Edge 130, Type (0, 1), BuildingBlock: UVAHIK_clean_linker_0, # of connection points: 2
#     Edge 131, Type (0, 1), BuildingBlock: UVAHIK_clean_linker_0, # of connection points: 2
#     Edge 132, Type (0, 1), BuildingBlock: UVAHIK_clean_linker_0, # of connection points: 2
#     Edge 133, Type (0, 1), BuildingBlock: UVAHIK_clean_linker_0, # of connection points: 2
#     Edge 134, Type (0, 1), BuildingBlock: UVAHIK_clean_linker_0, # of connection points: 2
#     Edge 135, Type (0, 1), BuildingBlock: UVAHIK_clean_linker_0, # of connection points: 2
# Relax obj value: 0.333
# Max RMSD: 0.306
# Mean RMSD: 0.199
data_MOF--net-iac--node1-QUQFOY_clean_sbu_1--node2-VOLQOD_clean_sbu_1--edge1-UVAHIK_clean_linker_0
_symmetry_space_group_name_H-M    P1
_symmetry_Int_Tables_number       1
_symmetry_cell_setting            triclinic
loop_
_symmetry_equiv_pos_as_xyz
'x, y, z'
_cell_length_a     70.524889
_cell_length_b     70.46131
_cell_length_c     70.411585
_cell_angle_alpha  91.154346
_cell_angle_beta   90.503952
_cell_angle_gamma 93.49258
loop_
_atom_site_label
_atom_site_type_symbol
_atom_site_fract_x
_atom_site_fract_y
_atom_site_fract_z
_atom_type_partial_charge
O0 O 0.98941 0.23033 0.13991 0.0
Cd1 Cd 0.99624 0.25366 0.15719 0.0
Cd2 Cd 0.00717 0.26655 0.12528 0.0
O3 O 0.987 0.24717 0.11421 0.0
O4 O 0.98195 0.2476 0.18054 0.0
O5 O 0.97437 0.27011 0.16075 0.0
C6 C 0.97009 0.25973 0.17523 0.0
C7 C 0.00936 0.29823 0.11756 0.0
C8 C 0.98355 0.23179 0.12293 0.0
C9 C 0.03704 0.25831 0.15231 0.0
O10 O 0.03251 0.25721 0.13483 0.0
O11 O 0.02423 0.26016 0.16467 0.0
O12 O 0.01417 0.28525 0.10566 0.0
O13 O 0.00197 0.29301 0.13351 0.0
O14 O 0.06098 0.75089 0.34758 0.0
Cd15 Cd 0.05146 0.76188 0.37276 0.0
Cd16 Cd 0.03132 0.78257 0.34648 0.0
O17 O 0.04726 0.7688 0.32685 0.0
O18 O 0.06167 0.74505 0.3921 0.0
O19 O 0.03091 0.74706 0.38656 0.0
C20 C 0.04436 0.73972 0.39598 0.0
C21 C -0.00105 0.78041 0.34043 0.0
C22 C 0.05787 0.75541 0.33051 0.0
C23 C 0.05324 0.80446 0.37758 0.0
O24 O 0.0421 0.80494 0.36335 0.0
O25 O 0.05924 0.7888 0.38293 0.0
O26 O 0.01015 0.79244 0.33177 0.0
O27 O 0.00618 0.76972 0.35296 0.0
O28 O 0.49509 0.72501 0.63899 0.0
Cd29 Cd 0.50189 0.75151 0.65095 0.0
Cd30 Cd 0.5169 0.75647 0.61745 0.0
O31 O 0.49917 0.73346 0.60932 0.0
O32 O 0.48572 0.75271 0.67386 0.0
O33 O 0.48168 0.77002 0.64841 0.0
C34 C 0.47598 0.76469 0.66494 0.0
C35 C 0.51496 0.78698 0.6066 0.0
C36 C 0.49297 0.72144 0.62131 0.0
C37 C 0.54388 0.75725 0.64895 0.0
O38 O 0.54188 0.75244 0.63154 0.0
O39 O 0.52937 0.75979 0.65905 0.0
O40 O 0.52264 0.77416 0.59634 0.0
O41 O 0.50725 0.78197 0.62244 0.0
O42 O 0.52511 0.23742 0.85765 0.0
Cd43 Cd 0.52101 0.24966 0.88464 0.0
Cd44 Cd 0.51901 0.27868 0.8567 0.0
O45 O 0.53802 0.26272 0.84381 0.0
O46 O 0.54401 0.24561 0.90051 0.0
O47 O 0.51648 0.22893 0.90303 0.0
C48 C 0.5339 0.23222 0.90857 0.0
C49 C 0.4892 0.27958 0.84308 0.0
C50 C 0.53524 0.24482 0.84454 0.0
C51 C 0.51466 0.29023 0.89426 0.0
O52 O 0.52506 0.29486 0.88033 0.0
O53 O 0.50751 0.27326 0.89521 0.0
O54 O 0.50286 0.29156 0.83829 0.0
O55 O 0.49265 0.26706 0.85564 0.0
O56 O 0.14772 0.0215 0.24111 0.0
Cd57 Cd 0.16911 0.01707 0.26024 0.0
Cd58 Cd 0.14646 0.03574 0.28565 0.0
O59 O 0.12864 0.03334 0.26229 0.0
O60 O 0.18303 0.99595 0.24923 0.0
O61 O 0.16656 0.99352 0.27582 0.0
C62 C 0.17684 0.98569 0.26311 0.0
C63 C 0.13007 0.03188 0.31404 0.0
C64 C 0.13175 0.02765 0.24546 0.0
C65 C 0.18617 0.05299 0.27793 0.0
O66 O 0.17033 0.05432 0.28619 0.0
O67 O 0.18888 0.03887 0.26701 0.0
O68 O 0.12961 0.04723 0.3045 0.0
O69 O 0.14048 0.0187 0.30776 0.0
O70 O 0.23592 0.89494 0.57031 0.0
Cd71 Cd 0.24552 0.91708 0.55372 0.0
Cd72 Cd 0.25004 0.88661 0.52565 0.0
O73 O 0.23616 0.87294 0.54756 0.0
O74 O 0.23607 0.94053 0.56519 0.0
O75 O 0.22689 0.92889 0.53683 0.0
C76 C 0.2258 0.94177 0.55006 0.0
C77 C 0.24564 0.87 0.49679 0.0
C78 C 0.23214 0.878 0.56437 0.0
C79 C 0.28407 0.91363 0.53795 0.0
O80 O 0.27708 0.89953 0.52817 0.0
O81 O 0.27383 0.92263 0.54929 0.0
O82 O 0.25633 0.86422 0.51008 0.0
O83 O 0.2371 0.88545 0.49982 0.0
O84 O 0.35831 0.01107 0.70768 0.0
Cd85 Cd 0.33735 0.00715 0.72779 0.0
Cd86 Cd 0.36341 0.98265 0.7414 0.0
O87 O 0.3788 0.99128 0.71826 0.0
O88 O 0.31912 0.02608 0.72066 0.0
O89 O 0.33495 0.02747 0.74796 0.0
C90 C 0.32279 0.0346 0.73674 0.0
C91 C 0.37918 0.98623 0.77037 0.0
C92 C 0.37416 0.00353 0.70638 0.0
C93 C 0.32413 0.96607 0.73358 0.0
O94 O 0.34096 0.96277 0.73848 0.0
O95 O 0.31999 0.98265 0.72903 0.0
O96 O 0.38179 0.972 0.75909 0.0
O97 O 0.36711 -0.00167 0.76533 0.0
O98 O 0.25921 0.11472 0.05493 0.0
Cd99 Cd 0.25177 0.09536 0.03355 0.0
Cd100 Cd 0.23855 0.12517 0.0147 0.0
O101 O 0.25365 0.13875 0.03665 0.0
O102 O 0.26978 0.07499 0.03506 0.0
O103 O 0.2695 0.09558 0.0116 0.0
C104 C 0.27736 0.08173 0.01977 0.0
C105 C 0.24017 0.14199 0.98664 0.0
C106 C 0.26019 0.13245 0.05197 0.0
C107 C 0.21042 0.09301 0.02535 0.0
O108 O 0.21321 0.10976 0.01917 0.0
O109 O 0.22429 0.08396 0.03122 0.0
O110 O 0.23049 0.14758 0.00087 0.0
O111 O 0.24882 0.12645 0.98811 0.0
O112 O 0.74535 0.37542 0.09208 0.0
Cd113 Cd 0.75644 0.39799 0.07691 0.0
Cd114 Cd 0.76446 0.37137 0.05005 0.0
O115 O 0.7483 0.35493 0.06841 0.0
O116 O 0.74257 0.4207 0.08381 0.0
O117 O 0.74081 0.40649 0.05535 0.0
C118 C 0.73547 0.41967 0.06681 0.0
C119 C 0.75953 0.36227 0.01833 0.0
C120 C 0.74238 0.35883 0.08491 0.0
C121 C 0.79713 0.39583 0.06798 0.0
O122 O 0.79172 0.382 0.05695 0.0
O123 O 0.78507 0.40471 0.07737 0.0
O124 O 0.76896 0.35233 0.0298 0.0
O125 O 0.75301 0.37785 0.0248 0.0
O126 O 0.86387 0.50816 0.20558 0.0
Cd127 Cd 0.83945 0.49803 0.2187 0.0
Cd128 Cd 0.86331 0.48919 0.24761 0.0
O129 O 0.88221 0.50383 0.23044 0.0
O130 O 0.81815 0.51363 0.21173 0.0
O131 O 0.83074 0.51317 0.24075 0.0
C132 C 0.81854 0.51977 0.22916 0.0
C133 C 0.8715 0.49209 0.27969 0.0
C134 C 0.88 0.51 0.21382 0.0
C135 C 0.83846 0.45761 0.22758 0.0
O136 O 0.85123 0.46282 0.23975 0.0
O137 O 0.83111 0.46971 0.21715 0.0
O138 O 0.88047 0.48163 0.2681 0.0
O139 O 0.85752 0.50106 0.27312 0.0
O140 O 0.72913 0.62637 0.55577 0.0
Cd141 Cd 0.72418 0.60243 0.53897 0.0
Cd142 Cd 0.70394 0.62772 0.51766 0.0
O143 O 0.71364 0.64646 0.53883 0.0
O144 O 0.74186 0.58456 0.54963 0.0
O145 O 0.74486 0.59654 0.52088 0.0
C146 C 0.75136 0.58624 0.53416 0.0
C147 C 0.70711 0.63966 0.48729 0.0
C148 C 0.72404 0.64306 0.553 0.0
C149 C 0.68295 0.59201 0.53105 0.0
O150 O 0.68223 0.60754 0.5223 0.0
O151 O 0.69836 0.5874 0.53861 0.0
O152 O 0.6937 0.6445 0.49836 0.0
O153 O 0.7186 0.62746 0.49334 0.0
O154 O 0.63635 0.54574 0.73406 0.0
Cd155 Cd 0.66142 0.54322 0.74859 0.0
Cd156 Cd 0.64384 0.56163 0.77706 0.0
O157 O 0.6215 0.55872 0.75795 0.0
O158 O 0.67375 0.52154 0.73657 0.0
O159 O 0.66274 0.52121 0.76597 0.0
C160 C 0.67069 0.51249 0.7521 0.0
C161 C 0.63478 0.55477 0.80796 0.0
C162 C 0.62137 0.55196 0.74111 0.0
C163 C 0.68029 0.5801 0.7618 0.0
O164 O 0.66647 0.58111 0.77318 0.0
O165 O 0.68118 0.56586 0.75057 0.0
O166 O 0.63141 0.57072 0.80036 0.0
O167 O 0.64409 0.54281 0.79816 0.0
O168 O 0.03406 0.73142 0.91168 0.0
Cd169 Cd 0.01157 0.74008 0.92718 0.0
Cd170 Cd 0.00198 0.76077 0.89725 0.0
O171 O 0.02602 0.74875 0.88755 0.0
O172 O 0.00353 0.72071 0.94573 0.0
O173 O 0.98576 0.72806 0.92101 0.0
C174 C 0.98793 0.71814 0.93604 0.0
C175 C 0.97909 0.76363 0.87363 0.0
C176 C 0.03696 0.73723 0.89496 0.0
C177 C 0.0092 0.78107 0.93509 0.0
O178 O 0.00341 0.78188 0.91801 0.0
O179 O 0.01421 0.76552 0.94169 0.0
O180 O 0.99444 0.77448 0.87435 0.0
O181 O 0.97646 0.75114 0.88667 0.0
O182 O 0.96722 0.23096 0.63593 0.0
Cd183 Cd 0.97415 0.2528 0.65498 0.0
Cd184 Cd 0.99421 0.26831 0.62647 0.0
O185 O 0.98622 0.24243 0.61366 0.0
O186 O 0.95524 0.25267 0.67576 0.0
O187 O 0.95971 0.27631 0.65568 0.0
C188 C 0.95108 0.2693 0.67028 0.0
C189 C 0.9871 0.29552 0.61034 0.0
C190 C 0.97469 0.22937 0.61967 0.0
C191 C 0.01556 0.26159 0.66232 0.0
O192 O 0.01608 0.26962 0.6463 0.0
O193 O 0.00028 0.25321 0.66803 0.0
O194 O 0.00142 0.28597 0.60555 0.0
O195 O 0.97698 0.28969 0.62449 0.0
O196 O 0.50772 0.24217 0.39414 0.0
Cd197 Cd 0.51468 0.27053 0.38977 0.0
Cd198 Cd 0.49336 0.27679 0.41971 0.0
O199 O 0.48924 0.24772 0.41842 0.0
O200 O 0.53604 0.27127 0.37177 0.0
O201 O 0.53893 0.28201 0.40155 0.0
C202 C 0.54657 0.27885 0.38528 0.0
C203 C 0.50269 0.2901 0.4489 0.0
C204 C 0.49652 0.23613 0.40699 0.0
C205 C 0.48074 0.29385 0.38409 0.0
O206 O 0.47743 0.29217 0.40169 0.0
O207 O 0.49489 0.28627 0.37672 0.0
O208 O 0.48565 0.28296 0.44596 0.0
O209 O 0.5146 0.29 0.43508 0.0
O210 O 0.47914 0.73694 0.13153 0.0
Cd211 Cd 0.48283 0.75753 0.15258 0.0
Cd212 Cd 0.50192 0.77771 0.12719 0.0
O213 O 0.50006 0.75174 0.11315 0.0
O214 O 0.46429 0.75139 0.1728 0.0
O215 O 0.46484 0.77816 0.15675 0.0
C216 C 0.45767 0.76781 0.17017 0.0
C217 C 0.49517 0.80309 0.10819 0.0
C218 C 0.48922 0.73723 0.11668 0.0
C219 C 0.52232 0.77149 0.16319 0.0
O220 O 0.52193 0.78174 0.14857 0.0
O221 O 0.50853 0.75968 0.16662 0.0
O222 O 0.51084 0.79475 0.10668 0.0
O223 O 0.48336 0.79745 0.12113 0.0
O224 O 0.92732 0.04712 0.74387 0.0
Cd225 Cd 0.90088 0.05566 0.75095 0.0
Cd226 Cd 0.89936 0.0276 0.77481 0.0
O227 O 0.92303 0.02062 0.75973 0.0
O228 O 0.89857 0.083 0.7456 0.0
O229 O 0.89543 0.07084 0.77429 0.0
C230 C 0.89468 0.0853 0.76337 0.0
C231 C 0.90141 0.02602 0.8078 0.0
C232 C 0.93268 0.03083 0.74818 0.0
C233 C 0.86832 0.02743 0.7458 0.0
O234 O 0.87341 0.02125 0.76178 0.0
O235 O 0.87824 0.04064 0.73792 0.0
O236 O 0.89971 0.01086 0.79725 0.0
O237 O 0.90172 0.04225 0.79961 0.0
O238 O 0.80499 0.1508 0.55998 0.0
Cd239 Cd 0.79275 0.13154 0.54055 0.0
Cd240 Cd 0.78553 0.16172 0.52047 0.0
O241 O 0.79714 0.17578 0.54404 0.0
O242 O 0.80239 0.10614 0.5454 0.0
O243 O 0.80661 0.12125 0.51834 0.0
C244 C 0.80879 0.10633 0.52829 0.0
C245 C 0.79792 0.16941 0.49107 0.0
C246 C 0.8044 0.16871 0.55865 0.0
C247 C 0.75191 0.13716 0.53192 0.0
O248 O 0.7576 0.15119 0.52195 0.0
O249 O 0.76375 0.12777 0.54092 0.0
O250 O 0.78731 0.18078 0.50005 0.0
O251 O 0.80149 0.15354 0.49879 0.0
O252 O 0.60547 0.96267 0.22633 0.0
Cd253 Cd 0.61431 0.9675 0.25431 0.0
Cd254 Cd 0.57691 0.97058 0.25815 0.0
O255 O 0.57454 0.95984 0.23109 0.0
O256 O 0.64216 0.96379 0.25479 0.0
O257 O 0.62129 0.94594 0.27081 0.0
C258 C 0.63873 0.95021 0.26646 0.0
C259 C 0.56865 0.95408 0.28505 0.0
C260 C 0.58861 0.95931 0.21998 0.0
C261 C 0.60013 0.00569 0.26527 0.0
O262 O 0.58341 -0.00065 0.26089 0.0
O263 O 0.61377 0.99474 0.26526 0.0
O264 O 0.5559 0.96227 0.27535 0.0
O265 O 0.58582 0.95467 0.2788 0.0
O266 O 0.72399 0.82381 0.03481 0.0
Cd267 Cd 0.72695 0.85108 0.02453 0.0
Cd268 Cd 0.75617 0.83667 0.00637 0.0
O269 O 0.74827 0.81203 0.02009 0.0
O270 O 0.70245 0.86319 0.02892 0.0
O271 O 0.71479 0.85923 0.00045 0.0
C272 C 0.70152 0.86561 0.01083 0.0
C273 C 0.75762 0.83782 0.97349 0.0
C274 C 0.7346 0.81013 0.03167 0.0
C275 C 0.76555 0.86849 0.03437 0.0
O276 O 0.77185 0.85677 0.02237 0.0
O277 O 0.74782 0.86888 0.03726 0.0
O278 O 0.77087 0.83049 0.98319 0.0
O279 O 0.74342 0.84417 0.98256 0.0
O280 O 0.30667 0.65911 0.04005 0.0
Cd281 Cd 0.29466 0.64224 0.01843 0.0
Cd282 Cd 0.28271 0.67442 0.00548 0.0
O283 O 0.29532 0.68557 0.02994 0.0
O284 O 0.3057 0.61723 0.02115 0.0
O285 O 0.30945 0.63461 0.99549 0.0
C286 C 0.3125 0.6192 0.00434 0.0
C287 C 0.29363 0.68673 0.97721 0.0
C288 C 0.30466 0.67681 0.04211 0.0
C289 C 0.25237 0.6452 0.0142 0.0
O290 O 0.2557 0.6615 0.00714 0.0
O291 O 0.26598 0.63562 0.01973 0.0
O292 O 0.28241 0.69595 0.98787 0.0
O293 O 0.29838 0.6702 0.98248 0.0
O294 O 0.1079 0.4832 0.7372 0.0
Cd295 Cd 0.11789 0.49102 0.76419 0.0
Cd296 Cd 0.08326 0.50345 0.76756 0.0
O297 O 0.07811 0.48972 0.74208 0.0
O298 O 0.14393 0.48188 0.7657 0.0
O299 O 0.12078 0.4717 0.78463 0.0
C300 C 0.13836 0.47167 0.77977 0.0
C301 C 0.06998 0.49221 0.79529 0.0
C302 C 0.09078 0.48337 0.73139 0.0
C303 C 0.11375 0.53333 0.76879 0.0
O304 O 0.0959 0.53058 0.76665 0.0
O305 O 0.12424 0.51937 0.76957 0.0
O306 O 0.06039 0.50219 0.78385 0.0
O307 O 0.0871 0.48853 0.79072 0.0
O308 O 0.18556 0.33566 0.54071 0.0
Cd309 Cd 0.19311 0.36065 0.52718 0.0
Cd310 Cd 0.21727 0.34024 0.50908 0.0
O311 O 0.20707 0.31917 0.52656 0.0
O312 O 0.17267 0.37821 0.53211 0.0
O313 O 0.18101 0.36928 0.50321 0.0
C314 C 0.17072 0.37946 0.51397 0.0
C315 C 0.21584 0.33439 0.47667 0.0
C316 C 0.194 0.32032 0.53872 0.0
C317 C 0.23438 0.3723 0.53263 0.0
O318 O 0.23777 0.35905 0.52086 0.0
O319 O 0.2174 0.37527 0.53713 0.0
O320 O 0.22819 0.32669 0.48719 0.0
O321 O 0.20445 0.34578 0.48455 0.0
O322 O 0.43526 0.52789 0.26325 0.0
Cd323 Cd 0.40919 0.52434 0.27633 0.0
Cd324 Cd 0.42583 0.49397 0.28914 0.0
O325 O 0.44919 0.50305 0.27399 0.0
O326 O 0.39709 0.54739 0.26765 0.0
O327 O 0.40045 0.54103 0.29798 0.0
C328 C 0.39428 0.55194 0.28511 0.0
C329 C 0.42571 0.49304 0.32189 0.0
C330 C 0.44945 0.51759 0.26363 0.0
C331 C 0.39168 0.48545 0.26523 0.0
O332 O 0.40526 0.47827 0.27396 0.0
O333 O 0.39041 0.50335 0.26514 0.0
O334 O 0.43327 0.47996 0.31189 0.0
O335 O 0.41853 0.50694 0.31315 0.0
O336 O 0.96466 0.04469 0.04661 0.0
Zn337 Zn 0.97584 0.02109 0.03665 0.0
O338 O 0.96887 -2e-05 0.05301 0.0
Zn339 Zn 0.99137 0.98699 0.06001 0.0
Zn340 Zn 0.95652 0.00895 0.07599 0.0
Zn341 Zn 0.95163 0.98256 0.03895 0.0
O342 O 0.99066 0.96008 0.04989 0.0
O343 O 0.96397 0.95849 0.03288 0.0
O344 O 0.00426 0.02559 0.0348 0.0
O345 O 0.01469 0.00071 0.04965 0.0
O346 O 0.99522 0.98754 0.08821 0.0
O347 O 0.97412 0.00742 0.09864 0.0
O348 O 0.93212 0.9932 0.0811 0.0
O349 O 0.96482 0.01697 0.01042 0.0
O350 O 0.92933 0.97515 0.05482 0.0
O351 O 0.94314 0.9932 0.01414 0.0
C352 C 0.95457 0.04855 0.06091 0.0
C353 C 0.97895 0.9511 0.03859 0.0
C354 C 0.98827 0.99738 0.1015 0.0
C355 C 0.01783 0.0159 0.0404 0.0
C356 C 0.92337 0.98017 0.07104 0.0
C357 C 0.95093 0.00625 0.00406 0.0
O358 O 0.95023 0.03618 0.07334 0.0
O359 O 0.25971 0.72547 0.23445 0.0
Zn360 Zn 0.24809 0.72378 0.26026 0.0
O361 O 0.25058 0.74837 0.27335 0.0
Zn362 Zn 0.26998 0.74779 0.2932 0.0
Zn363 Zn 0.25787 0.76782 0.25519 0.0
Zn364 Zn 0.22637 0.75406 0.28432 0.0
O365 O 0.25978 0.7574 0.31793 0.0
O366 O 0.22877 0.75841 0.31247 0.0
O367 O 0.26164 0.70419 0.2747 0.0
O368 O 0.27801 0.72116 0.29691 0.0
O369 O 0.29339 0.76411 0.28637 0.0
O370 O 0.28308 0.78052 0.26219 0.0
O371 O 0.23921 0.78802 0.25376 0.0
O372 O 0.22066 0.71461 0.257 0.0
O373 O 0.21732 0.77878 0.27458 0.0
O374 O 0.20653 0.73323 0.27779 0.0
C375 C 0.26377 0.73942 0.2237 0.0
C376 C 0.24309 0.76035 0.32363 0.0
C377 C 0.29602 0.777 0.27407 0.0
C378 C 0.27329 0.7053 0.28867 0.0
C379 C 0.22389 0.79067 0.26256 0.0
C380 C 0.20604 0.71925 0.266 0.0
O381 O 0.26214 0.7565 0.22936 0.0
O382 O 0.52599 0.97287 0.52762 0.0
Zn383 Zn 0.51476 0.98972 0.5089 0.0
O384 O 0.52122 0.01615 0.51576 0.0
Zn385 Zn 0.49808 0.02966 0.51811 0.0
Zn386 Zn 0.53532 0.01786 0.54001 0.0
Zn387 Zn 0.53637 0.02735 0.4955 0.0
O388 O 0.49665 0.05036 0.49918 0.0
O389 O 0.52257 0.04733 0.48207 0.0
O390 O 0.48658 0.98371 0.50811 0.0
O391 O 0.47519 0.01186 0.514 0.0
O392 O 0.49532 0.04038 0.54439 0.0
O393 O 0.51958 0.02964 0.56038 0.0
O394 O 0.55981 0.03414 0.53728 0.0
O395 O 0.52541 0.98238 0.48387 0.0
O396 O 0.55994 0.04045 0.50644 0.0
O397 O 0.54321 0.00789 0.47576 0.0
C398 C 0.53602 0.97522 0.54266 0.0
C399 C 0.50719 0.05531 0.48535 0.0
C400 C 0.50434 0.03845 0.55989 0.0
C401 C 0.47263 0.99413 0.51037 0.0
C402 C 0.56745 0.0422 0.52294 0.0
C403 C 0.53708 0.99071 0.47269 0.0
O404 O 0.54098 0.99173 0.54936 0.0
O405 O 0.24945 0.26478 0.81489 0.0
Zn406 Zn 0.25654 0.28102 0.79249 0.0
O407 O 0.24568 0.2697 0.76911 0.0
Zn408 Zn 0.26545 0.26162 0.75215 0.0
Zn409 Zn 0.22817 0.24803 0.77448 0.0
Zn410 Zn 0.23226 0.28879 0.75659 0.0
O411 O 0.26022 0.26877 0.72495 0.0
O412 O 0.23861 0.28996 0.72922 0.0
O413 O 0.28492 0.28311 0.79028 0.0
O414 O 0.29127 0.27203 0.76136 0.0
O415 O 0.26573 0.23327 0.75209 0.0
O416 O 0.23739 0.22385 0.76318 0.0
O417 O 0.20126 0.25207 0.76577 0.0
O418 O 0.24839 0.3077 0.79734 0.0
O419 O 0.20446 0.28198 0.75645 0.0
O420 O 0.23646 0.31428 0.76912 0.0
C421 C 0.23784 0.25034 0.81651 0.0
C422 C 0.24907 0.28063 0.71832 0.0
C423 C 0.2533 0.22012 0.75602 0.0
C424 C 0.29671 0.27961 0.77725 0.0
C425 C 0.19413 0.26694 0.75947 0.0
C426 C 0.2418 0.31942 0.78584 0.0
O427 O 0.22839 0.24321 0.80234 0.0
O428 O 0.00156 0.99739 0.4803 0.0
Zn429 Zn 0.98838 0.98424 0.50213 0.0
O430 O -0.00214 0.99444 0.52656 0.0
Zn431 Zn 0.01239 0.97581 0.53967 0.0
Zn432 Zn 0.01407 0.0173 0.52218 0.0
Zn433 Zn 0.97641 0.00076 0.54201 0.0
O434 O 0.00201 0.97039 0.56579 0.0
O435 O 0.9771 0.98819 0.56727 0.0
O436 O 0.99506 0.95728 0.49909 0.0
O437 O 0.01372 0.9517 0.5237 0.0
O438 O 0.03908 0.98638 0.54436 0.0
O439 O 0.03939 0.01633 0.53513 0.0
O440 O 0.00177 0.04063 0.53116 0.0
O441 O 0.96007 0.98595 0.49923 0.0
O442 O 0.97655 0.02911 0.54681 0.0
O443 O 0.95177 0.99348 0.52865 0.0
C444 C 0.01425 0.01099 0.47963 0.0
C445 C 0.98803 0.97667 0.5748 0.0
C446 C 0.0476 0.00269 0.54259 0.0
C447 C 0.00577 0.94647 0.50795 0.0
C448 C 0.98714 0.04312 0.54114 0.0
C449 C 0.94738 0.98894 0.5115 0.0
O450 O 0.0202 0.01982 0.49465 0.0
O451 O 0.28062 0.76276 0.74178 0.0
Zn452 Zn 0.25949 0.76093 0.76032 0.0
O453 O 0.24005 0.74255 0.75085 0.0
Zn454 Zn 0.21594 0.75449 0.74826 0.0
Zn455 Zn 0.24704 0.73183 0.72632 0.0
Zn456 Zn 0.23795 0.72243 0.76896 0.0
O457 O 0.19645 0.74263 0.76581 0.0
O458 O 0.21313 0.72288 0.7825 0.0
O459 O 0.24946 0.78665 0.76356 0.0
O460 O 0.21922 0.7826 0.75448 0.0
O461 O 0.20646 0.75332 0.7212 0.0
O462 O 0.231 0.74227 0.7059 0.0
O463 O 0.24138 0.70326 0.72525 0.0
O464 O 0.27125 0.75351 0.785 0.0
O465 O 0.23755 0.69729 0.75587 0.0
O466 O 0.25886 0.72411 0.78831 0.0
C467 C 0.28537 0.75312 0.72729 0.0
C468 C 0.19774 0.73081 0.77917 0.0
C469 C 0.21486 0.74943 0.7058 0.0
C470 C 0.23334 0.79322 0.76049 0.0
C471 C 0.23831 0.69164 0.73866 0.0
C472 C 0.27038 0.73781 0.79363 0.0
O473 O 0.27451 0.73952 0.72033 0.0
O474 O 0.54405 0.01883 0.0237 0.0
Zn475 Zn 0.54126 0.02195 0.99551 0.0
O476 O 0.51521 0.01469 0.98716 0.0
Zn477 Zn 0.51476 0.99185 0.97082 0.0
Zn478 Zn 0.49935 0.00976 0.00928 0.0
Zn479 Zn 0.50514 0.03532 0.97311 0.0
O480 O 0.50215 0.996 0.94556 0.0
O481 O 0.4973 0.02682 0.94678 0.0
O482 O 0.55966 0.00455 0.98349 0.0
O483 O 0.54123 0.98385 0.96645 0.0
O484 O 0.50088 0.96967 0.98332 0.0
O485 O 0.48936 0.98258 0.0094 0.0
O486 O 0.47683 0.02578 0.00984 0.0
O487 O 0.549 0.04917 0.98908 0.0
O488 O 0.48121 0.0442 0.9849 0.0
O489 O 0.52443 0.05725 0.97158 0.0
C490 C 0.53221 0.01557 0.03696 0.0
C491 C 0.49627 0.01085 0.93796 0.0
C492 C 0.49136 0.96822 -0.00145 0.0
C493 C 0.55759 0.98998 0.97249 0.0
C494 C 0.47145 0.03882 -0.00085 0.0
C495 C 0.54085 0.06104 0.97886 0.0
O496 O 0.51449 0.01298 0.03348 0.0
O497 O 0.23336 0.26308 0.23144 0.0
Zn498 Zn 0.25372 0.26584 0.25125 0.0
O499 O 0.27595 0.27982 0.24153 0.0
Zn500 Zn 0.2978 0.26392 0.24329 0.0
Zn501 Zn 0.2717 0.28674 0.21516 0.0
Zn502 Zn 0.2801 0.30312 0.25655 0.0
O503 O 0.31919 0.27794 0.25803 0.0
O504 O 0.3059 0.30389 0.26872 0.0
O505 O 0.25978 0.24009 0.25967 0.0
O506 O 0.29091 0.23885 0.25601 0.0
O507 O 0.30665 0.2565 0.21724 0.0
O508 O 0.28807 0.27196 0.19799 0.0
O509 O 0.27804 0.31459 0.21081 0.0
O510 O 0.24298 0.27878 0.27399 0.0
O511 O 0.27953 0.32609 0.24043 0.0
O512 O 0.26102 0.30553 0.27722 0.0
C513 C 0.2312 0.27005 0.21509 0.0
C514 C 0.31999 0.29346 0.26774 0.0
C515 C 0.30126 0.26071 0.20062 0.0
C516 C 0.27496 0.23137 0.26125 0.0
C517 C 0.27958 0.32852 0.2226 0.0
C518 C 0.2472 0.29454 0.28255 0.0
O519 O 0.24436 0.28031 0.20734 0.0
O520 O 0.5172 0.50075 0.97754 0.0
Zn521 Zn 0.49825 0.49331 -0.00231 0.0
O522 O 0.50716 0.50213 0.02258 0.0
Zn523 Zn 0.51417 0.48105 0.03807 0.0
Zn524 Zn 0.52883 0.52044 0.02021 0.0
Zn525 Zn 0.48628 0.51376 0.0345 0.0
O526 O 0.50394 0.48346 0.06473 0.0
O527 O 0.48288 0.50525 0.06109 0.0
O528 O 0.49406 0.46503 -0.00212 0.0
O529 O 0.50495 0.45591 0.02584 0.0
O530 O 0.54247 0.48178 0.04075 0.0
O531 O 0.5519 0.51148 0.03375 0.0
O532 O 0.52251 0.54688 0.02913 0.0
O533 O 0.47311 0.50353 0.99078 0.0
O534 O 0.49222 0.54163 0.03688 0.0
O535 O 0.46204 0.51015 0.0194 0.0
C536 C 0.53161 0.51257 0.97783 0.0
C537 C 0.49133 0.49381 0.07151 0.0
C538 C 0.55546 0.49507 0.03966 0.0
C539 C 0.49713 0.45209 0.0097 0.0
C540 C 0.50682 0.55288 0.03492 0.0
C541 C 0.4596 0.50799 0.00153 0.0
O542 O 0.53692 0.52158 0.993 0.0
O543 O 0.78721 0.21584 0.24819 0.0
Zn544 Zn 0.76965 0.22779 0.26591 0.0
O545 O 0.74409 0.21797 0.26015 0.0
Zn546 Zn 0.72801 0.23879 0.25567 0.0
Zn547 Zn 0.74321 0.20137 0.23752 0.0
Zn548 Zn 0.73533 0.20445 0.28228 0.0
O549 O 0.71072 0.24278 0.27749 0.0
O550 O 0.71714 0.21984 0.29728 0.0
O551 O 0.77273 0.25583 0.26199 0.0
O552 O 0.74393 0.26312 0.25284 0.0
O553 O 0.71304 0.23515 0.23142 0.0
O554 O 0.72916 0.21344 0.21635 0.0
O555 O 0.7279 0.17684 0.24314 0.0
O556 O 0.77849 0.22163 0.29209 0.0
O557 O 0.72194 0.17999 0.27404 0.0
O558 O 0.75675 0.19917 0.29997 0.0
C559 C 0.7859 0.20432 0.23406 0.0
C560 C 0.70837 0.23455 0.29329 0.0
C561 C 0.71661 0.22568 0.21643 0.0
C562 C 0.76135 0.26785 0.2562 0.0
C563 C 0.72016 0.17074 0.25834 0.0
C564 C 0.77255 0.20848 0.30304 0.0
O565 O 0.76989 0.19722 0.22787 0.0
O566 O 0.02228 0.52932 0.53939 0.0
Zn567 Zn 0.01448 0.53306 0.51211 0.0
O568 O 0.98857 0.52183 0.50778 0.0
Zn569 Zn 0.98901 0.49966 0.49073 0.0
Zn570 Zn 0.9767 0.51435 0.5317 0.0
Zn571 Zn 0.97346 0.54052 0.49634 0.0
O572 O 0.97288 0.50268 0.46742 0.0
O573 O 0.96365 0.53211 0.47064 0.0
O574 O 0.0332 0.51945 0.49609 0.0
O575 O 0.01555 0.49585 0.48225 0.0
O576 O 0.97992 0.47565 0.50381 0.0
O577 O 0.96979 0.48634 0.53154 0.0
O578 O 0.95273 0.52771 0.53733 0.0
O579 O 0.01685 0.5612 0.50596 0.0
O580 O 0.95086 0.54533 0.51176 0.0
O581 O 0.98801 0.56532 0.49445 0.0
C582 C 0.01316 0.5236 0.55397 0.0
C583 C 0.96402 0.51655 0.46122 0.0
C584 C 0.97235 0.4727 0.51992 0.0
C585 C 0.03159 0.50472 0.48527 0.0
C586 C 0.94427 0.53966 0.52752 0.0
C587 C 0.0047 0.5718 0.49889 0.0
O588 O 0.99554 0.51846 0.55299 0.0
O589 O 0.75161 0.75193 0.31187 0.0
Zn590 Zn 0.76269 0.76641 0.28967 0.0
O591 O 0.75332 0.75511 0.26568 0.0
Zn592 Zn 0.77363 0.74435 0.25131 0.0
Zn593 Zn 0.73308 0.7356 0.26992 0.0
Zn594 Zn 0.74359 0.77496 0.25098 0.0
O595 O 0.77258 0.75111 0.22343 0.0
O596 O 0.75147 0.77313 0.224 0.0
O597 O 0.791 0.76538 0.29073 0.0
O598 O 0.79912 0.75209 0.26328 0.0
O599 O 0.77021 0.71603 0.25175 0.0
O600 O 0.74001 0.71005 0.25956 0.0
O601 O 0.70771 0.74298 0.25964 0.0
O602 O 0.75701 0.79423 0.29213 0.0
O603 O 0.71541 0.77219 0.24997 0.0
O604 O 0.75048 0.80065 0.26213 0.0
C605 C 0.73865 0.73855 0.31272 0.0
C606 C 0.76261 0.76283 0.21488 0.0
C607 C 0.75597 0.70438 0.2542 0.0
C608 C 0.80359 0.75984 0.27936 0.0
C609 C 0.70304 0.75873 0.25294 0.0
C610 C 0.75386 0.80611 0.27923 0.0
O611 O 0.73031 0.73166 0.2978 0.0
O612 O 0.74626 0.24704 0.73924 0.0
Zn613 Zn 0.74106 0.24968 0.76705 0.0
O614 O 0.74582 0.27612 0.77524 0.0
Zn615 Zn 0.76809 0.27807 0.79197 0.0
Zn616 Zn 0.75033 0.29216 0.75319 0.0
Zn617 Zn 0.72372 0.28455 0.7886 0.0
O618 O 0.76139 0.28915 0.81723 0.0
O619 O 0.72997 0.29042 0.8162 0.0
O620 O 0.75878 0.23265 0.77979 0.0
O621 O 0.77869 0.25247 0.79611 0.0
O622 O 0.78931 0.29439 0.78073 0.0
O623 O 0.77658 0.30474 0.75427 0.0
O624 O 0.73227 0.31306 0.75182 0.0
O625 O 0.71418 0.23997 0.77186 0.0
O626 O 0.71512 0.30886 0.77783 0.0
O627 O 0.7019 0.26484 0.78607 0.0
C628 C 0.74924 0.25871 0.72587 0.0
C629 C 0.74578 0.29268 0.82513 0.0
C630 C 0.79057 0.30413 0.76572 0.0
C631 C 0.77333 0.2357 0.79047 0.0
C632 C 0.71947 0.31829 0.76309 0.0
C633 C 0.70023 0.2479 0.7793 0.0
O634 O 0.74993 0.2766 0.72897 0.0
O635 O 0.7403 0.79976 0.72765 0.0
Zn636 Zn 0.76559 0.79768 0.73998 0.0
O637 O 0.7858 0.80774 0.72382 0.0
Zn638 Zn 0.80215 0.78725 0.7171 0.0
Zn639 Zn 0.77484 0.81812 0.70088 0.0
Zn640 Zn 0.80059 0.82772 0.73774 0.0
O641 O 0.8282 0.79165 0.7287 0.0
O642 O 0.82656 0.81936 0.74393 0.0
O643 O 0.76775 0.77008 0.74495 0.0
O644 O 0.79178 0.76207 0.72702 0.0
O645 O 0.80356 0.78374 0.6889 0.0
O646 O 0.78298 0.80351 0.67776 0.0
O647 O 0.78298 0.84585 0.69803 0.0
O648 O 0.7654 0.81148 0.76495 0.0
O649 O 0.80293 0.85145 0.72246 0.0
O650 O 0.78878 0.83383 0.76306 0.0
C651 C 0.73458 0.8071 0.71245 0.0
C652 C 0.83561 0.80486 0.73947 0.0
C653 C 0.79458 0.79056 0.6751 0.0
C654 C 0.7784 0.75762 0.7384 0.0
C655 C 0.79476 0.85685 0.70746 0.0
C656 C 0.77513 0.82567 0.77212 0.0
O657 O 0.7462 0.81519 0.70098 0.0
O658 O 0.45012 0.52591 0.56575 0.0
Zn659 Zn 0.46051 0.50133 0.55805 0.0
O660 O 0.45325 0.48147 0.57567 0.0
Zn661 Zn 0.47602 0.47118 0.58642 0.0
Zn662 Zn 0.43782 0.4921 0.59603 0.0
Zn663 Zn 0.43904 0.46122 0.56163 0.0
O664 O 0.47777 0.44336 0.5805 0.0
O665 O 0.45281 0.43716 0.56154 0.0
O666 O 0.48867 0.50537 0.5563 0.0
O667 O 0.49965 0.48422 0.57582 0.0
O668 O 0.47724 0.47573 0.61449 0.0
O669 O 0.4521 0.49219 0.6211 0.0
O670 O 0.41246 0.477 0.59804 0.0
O671 O 0.45071 0.49528 0.53197 0.0
O672 O 0.41442 0.45569 0.57444 0.0
O673 O 0.43403 0.46776 0.53415 0.0
C674 C 0.43935 0.5312 0.57897 0.0
C675 C 0.46765 0.43192 0.56986 0.0
C676 C 0.46731 0.48477 0.62621 0.0
C677 C 0.50246 0.49751 0.56401 0.0
C678 C 0.40557 0.46267 0.58835 0.0
C679 C 0.44021 0.48185 0.52443 0.0
O680 O 0.43314 0.5197 0.59153 0.0
O681 O 0.035 0.48065 0.04315 0.0
Zn682 Zn 0.01794 0.49727 0.0292 0.0
O683 O 0.02214 0.5235 0.03836 0.0
Zn684 Zn -0.00135 0.53264 0.04823 0.0
Zn685 Zn 0.04153 0.52529 0.0585 0.0
Zn686 Zn 0.03003 0.53908 0.01721 0.0
O687 O 0.98727 0.55143 0.0312 0.0
O688 O 0.00949 0.55587 0.00929 0.0
O689 O 0.9914 0.48708 0.035 0.0
O690 O 0.97921 0.51089 0.05094 0.0
O691 O 0.00282 0.54495 0.07377 0.0
O692 O 0.03149 0.53681 0.08263 0.0
O693 O 0.06408 0.54202 0.05025 0.0
O694 O 0.02282 0.49411 0.00116 0.0
O695 O 0.05438 0.55436 0.02326 0.0
O696 O 0.03432 0.52308 0.99417 0.0
C697 C 0.04627 0.48299 0.05733 0.0
C698 C 0.99332 0.5591 0.01607 0.0
C699 C 0.01615 0.54482 0.08603 0.0
C700 C 0.97797 0.49385 0.04446 0.0
C701 C 0.06675 0.55327 0.03643 0.0
C702 C 0.03011 0.50584 0.98936 0.0
O703 O 0.04982 0.49929 0.06516 0.0
C704 C 0.96928 0.21543 0.09382 0.0
C705 C 0.97286 0.21557 0.11349 0.0
C706 C 0.96028 0.19943 0.08484 0.0
C707 C 0.93322 0.15369 0.09348 0.0
H708 H 0.96472 0.13428 0.0536 0.0
C709 C 0.94324 0.07479 0.08141 0.0
C710 C 0.94846 0.06806 0.06343 0.0
C711 C 0.93983 0.09392 0.08426 0.0
C712 C 0.95534 0.13958 0.0643 0.0
H713 H 0.96878 0.19963 0.13935 0.0
H714 H 0.95329 0.17174 0.12368 0.0
H715 H 0.97012 0.16694 0.06464 0.0
H716 H 0.95246 0.07557 0.03394 0.0
H717 H 0.94607 0.10889 0.03882 0.0
H718 H 0.91898 0.126 0.09368 0.0
C719 C 0.95731 0.18397 0.1152 0.0
C720 C 0.95848 0.15836 0.07065 0.0
C721 C 0.96642 0.19986 0.12414 0.0
C722 C 0.94884 0.08047 0.04806 0.0
C723 C 0.94518 0.09954 0.05085 0.0
C724 C 0.92997 0.13491 0.08702 0.0
C725 C 0.95454 0.18343 0.09542 0.0
C726 C 0.94802 0.16533 0.08585 0.0
C727 C 0.94134 0.10664 0.06911 0.0
C728 C 0.94158 0.12741 0.07295 0.0
H729 H 0.97395 0.22741 0.08528 0.0
H730 H 0.95824 0.19936 0.06957 0.0
H731 H 0.92477 0.15885 0.10505 0.0
H732 H 0.94277 0.06552 0.09352 0.0
H733 H 0.93714 0.09891 0.09857 0.0
C734 C 0.06302 0.74871 0.29577 0.0
C735 C 0.06603 0.74428 0.31491 0.0
C736 C 0.07118 0.73818 0.28123 0.0
C737 C 0.1049 0.72589 0.25855 0.0
H738 H 0.12031 0.67513 0.26854 0.0
C739 C 0.1765 0.70237 0.2768 0.0
C740 C 0.1876 0.70932 0.26181 0.0
C741 C 0.15728 0.6974 0.27389 0.0
C742 C 0.11578 0.68906 0.26499 0.0
H743 H 0.07911 0.72472 0.33373 0.0
H744 H 0.09365 0.70692 0.30874 0.0
H745 H 0.09067 0.6855 0.28167 0.0
H746 H 0.18811 0.71519 0.23176 0.0
H747 H 0.15398 0.7074 0.22681 0.0
H748 H 0.13074 0.73 0.24323 0.0
C749 C 0.08472 0.71819 0.30473 0.0
C750 C 0.09893 0.69509 0.27265 0.0
C751 C 0.07665 0.72867 0.31917 0.0
C752 C 0.1797 0.70972 0.24347 0.0
C753 C 0.16027 0.70523 0.24063 0.0
C754 C 0.12161 0.71976 0.25068 0.0
C755 C 0.0824 0.72299 0.2856 0.0
C756 C 0.09437 0.71416 0.27104 0.0
C757 C 0.14875 0.69989 0.25604 0.0
C758 C 0.12804 0.70196 0.2554 0.0
H759 H 0.05467 0.7605 0.29201 0.0
H760 H 0.06912 0.74222 0.26664 0.0
H761 H 0.10173 0.7406 0.2568 0.0
H762 H 0.18241 0.70201 0.29105 0.0
H763 H 0.14875 0.6936 0.28612 0.0
C764 C 0.51239 0.82144 0.61457 0.0
C765 C 0.51676 0.80717 0.60136 0.0
C766 C 0.51662 0.84059 0.6107 0.0
C767 C 0.54761 0.87108 0.58018 0.0
H768 H 0.513 0.90995 0.59305 0.0
C769 C 0.54444 0.94163 0.54231 0.0
C770 C 0.5408 0.95811 0.55281 0.0
C771 C 0.54528 0.92427 0.55127 0.0
C772 C 0.523 0.89931 0.58976 0.0
H773 H 0.52811 0.80179 0.57338 0.0
H774 H 0.53492 0.83518 0.56636 0.0
H775 H 0.50532 0.87713 0.602 0.0
H776 H 0.53613 0.96976 0.58097 0.0
H777 H 0.53719 0.93904 0.59676 0.0
H778 H 0.5648 0.89318 0.56713 0.0
C779 C 0.52878 0.83159 0.57996 0.0
C780 C 0.51857 0.8805 0.59481 0.0
C781 C 0.52467 0.81245 0.58388 0.0
C782 C 0.53909 0.95721 0.57263 0.0
C783 C 0.53956 0.93969 0.5816 0.0
C784 C 0.55194 0.88984 0.57501 0.0
C785 C 0.5252 0.84585 0.59349 0.0
C786 C 0.5306 0.86609 0.58964 0.0
C787 C 0.54217 0.92301 0.57088 0.0
C788 C 0.53946 0.90404 0.57936 0.0
H789 H 0.50637 0.81781 0.62823 0.0
H790 H 0.51374 0.85121 0.62145 0.0
H791 H 0.55743 0.86041 0.57644 0.0
H792 H 0.54581 0.94202 0.527 0.0
H793 H 0.54715 0.91163 0.54264 0.0
C794 C 0.46616 0.29424 0.82136 0.0
C795 C 0.47004 0.28032 0.83463 0.0
C796 C 0.44785 0.29527 0.81386 0.0
C797 C 0.39805 0.28186 0.82481 0.0
H798 H 0.38884 0.29104 0.77147 0.0
C799 C 0.33091 0.2753 0.76972 0.0
C800 C 0.31722 0.28331 0.7813 0.0
C801 C 0.35011 0.27686 0.77501 0.0
C802 C 0.39121 0.28843 0.78638 0.0
H803 H 0.45788 0.25628 0.85013 0.0
H804 H 0.42603 0.25797 0.83695 0.0
H805 H 0.42143 0.28893 0.7831 0.0
H806 H 0.3131 0.30038 0.80678 0.0
H807 H 0.34652 0.30332 0.81579 0.0
H808 H 0.36796 0.28085 0.8281 0.0
C809 C 0.43706 0.26828 0.83254 0.0
C810 C 0.40985 0.28738 0.79307 0.0
C811 C 0.45534 0.26725 0.84002 0.0
C812 C 0.32324 0.29379 0.79768 0.0
C813 C 0.34239 0.29542 0.8029 0.0
C814 C 0.37949 0.28293 0.81816 0.0
C815 C 0.43307 0.28241 0.81953 0.0
C816 C 0.41342 0.28394 0.81233 0.0
C817 C 0.35596 0.28651 0.79193 0.0
C818 C 0.37584 0.28617 0.79888 0.0
H819 H 0.47721 0.30451 0.81692 0.0
H820 H 0.44517 0.3064 0.80398 0.0
H821 H 0.40035 0.27945 0.83977 0.0
H822 H 0.32673 0.26715 0.757 0.0
H823 H 0.36022 0.26976 0.76631 0.0
C824 C 0.04724 0.83816 0.38596 0.0
C825 C 0.0566 0.82163 0.38989 0.0
C826 C 0.04652 0.85267 0.39965 0.0
C827 C 0.04723 0.85813 0.45154 0.0
H828 H 0.04033 0.91073 0.43955 0.0
C829 C 0.02669 0.91895 0.50464 0.0
C830 C 0.01144 0.92905 0.49795 0.0
C831 C 0.03463 0.90522 0.49301 0.0
C832 C 0.04231 0.89608 0.44309 0.0
H833 H 0.0742 0.80823 0.41056 0.0
H834 H 0.07326 0.83381 0.4343 0.0
H835 H 0.05278 0.8896 0.41548 0.0
H836 H 0.9916 0.93145 0.47444 0.0
H837 H 0.00556 0.90776 0.45431 0.0
H838 H 0.03653 0.8648 0.47919 0.0
C839 C 0.06602 0.83528 0.42083 0.0
C840 C 0.0494 0.88398 0.42933 0.0
C841 C 0.06668 0.8207 0.40714 0.0
C842 C 0.00347 0.92415 0.48001 0.0
C843 C 0.01151 0.91067 0.46839 0.0
C844 C 0.04035 0.87035 0.46541 0.0
C845 C 0.05527 0.85106 0.41753 0.0
C846 C 0.0513 0.86469 0.43316 0.0
C847 C 0.02754 0.90159 0.47452 0.0
C848 C 0.03723 0.88923 0.46104 0.0
H849 H 0.03939 0.8394 0.3728 0.0
H850 H 0.038 0.86454 0.39662 0.0
H851 H 0.04833 0.84332 0.45494 0.0
H852 H 0.03315 0.92235 0.5184 0.0
H853 H 0.04692 0.89822 0.49804 0.0
C854 C 0.44514 0.77992 0.66098 0.0
C855 C 0.45765 0.77031 0.67247 0.0
C856 C 0.42646 0.78205 0.66672 0.0
C857 C 0.38566 0.76885 0.67535 0.0
H858 H 0.37139 0.77822 0.72759 0.0
C859 C 0.31201 0.74568 0.70542 0.0
C860 C 0.30416 0.75783 0.71889 0.0
C861 C 0.33036 0.74977 0.69864 0.0
C862 C 0.3751 0.7758 0.71288 0.0
H863 H 0.46088 0.75659 0.69953 0.0
H864 H 0.42838 0.7603 0.70949 0.0
H865 H 0.4046 0.78255 0.71859 0.0
H866 H 0.30905 0.7843 0.73506 0.0
H867 H 0.34078 0.79145 0.7231 0.0
H868 H 0.35612 0.76198 0.66969 0.0
C869 C 0.43293 0.76622 0.69609 0.0
C870 C 0.39414 0.77814 0.70778 0.0
C871 C 0.45155 0.76402 0.69033 0.0
C872 C 0.31475 0.77447 0.72489 0.0
C873 C 0.33298 0.77857 0.71809 0.0
C874 C 0.36658 0.76649 0.68046 0.0
C875 C 0.42003 0.77472 0.68408 0.0
C876 C 0.39966 0.77441 0.68904 0.0
C877 C 0.34113 0.76611 0.70517 0.0
C878 C 0.36114 0.7697 0.69934 0.0
H879 H 0.44945 0.78498 0.64716 0.0
H880 H 0.41689 0.78893 0.65732 0.0
H881 H 0.38951 0.76565 0.66083 0.0
H882 H 0.30421 0.73276 0.7005 0.0
H883 H 0.33634 0.73981 0.68879 0.0
C884 C 0.56193 0.21864 0.92418 0.0
C885 C 0.54219 0.22019 0.92297 0.0
C886 C 0.56945 0.20498 0.93575 0.0
C887 C 0.55737 0.16975 0.97306 0.0
H888 H 0.58351 0.13492 0.94062 0.0
C889 C 0.54805 0.08805 0.95757 0.0
C890 C 0.55034 0.07978 0.97532 0.0
C891 C 0.55502 0.10663 0.95454 0.0
C892 C 0.57667 0.14467 0.95007 0.0
H893 H 0.51497 0.20993 0.93407 0.0
H894 H 0.52801 0.18625 0.95426 0.0
H895 H 0.58045 0.16757 0.93076 0.0
H896 H 0.56222 0.08404 0.00368 0.0
H897 H 0.5738 0.1172 -0.00144 0.0
H898 H 0.55227 0.1463 0.9916 0.0
C899 C 0.53774 0.19549 0.94633 0.0
C900 C 0.57499 0.16339 0.94448 0.0
C901 C 0.53023 0.20891 0.93459 0.0
C902 C 0.56038 0.09015 0.98984 0.0
C903 C 0.56697 0.10903 0.98694 0.0
C904 C 0.55921 0.15105 0.97873 0.0
C905 C 0.55735 0.19292 0.94653 0.0
C906 C 0.56432 0.17574 0.95538 0.0
C907 C 0.56408 0.11747 0.96932 0.0
C908 C 0.56789 0.13809 0.9667 0.0
H909 H 0.57148 0.22722 0.91541 0.0
H910 H 0.58461 0.20328 0.93567 0.0
H911 H 0.54925 0.17907 0.9818 0.0
H912 H 0.54042 0.08028 0.94615 0.0
H913 H 0.55233 0.11288 0.94091 0.0
C914 C 0.07081 0.25259 0.1449 0.0
C915 C 0.05717 0.25798 0.15807 0.0
C916 C 0.08995 0.2528 0.1501 0.0
C917 C 0.13043 0.26525 0.16111 0.0
H918 H 0.14453 0.25081 0.21188 0.0
C919 C 0.20613 0.27972 0.1925 0.0
C920 C 0.21263 0.26667 0.20549 0.0
C921 C 0.18758 0.27756 0.18528 0.0
C922 C 0.1409 0.25463 0.19754 0.0
H923 H 0.05288 0.26788 0.18698 0.0
H924 H 0.08634 0.26874 0.19594 0.0
H925 H 0.11132 0.24868 0.20239 0.0
H926 H 0.20542 0.24044 0.22009 0.0
H927 H 0.17341 0.23626 0.20699 0.0
H928 H 0.16014 0.27065 0.15611 0.0
C929 C 0.08222 0.26391 0.18171 0.0
C930 C 0.12179 0.25371 0.1922 0.0
C931 C 0.06304 0.26351 0.17656 0.0
C932 C 0.20066 0.25089 0.21032 0.0
C933 C 0.18228 0.24857 0.20291 0.0
C934 C 0.1496 0.26601 0.1664 0.0
C935 C 0.09591 0.25858 0.16853 0.0
C936 C 0.11631 0.25913 0.17398 0.0
C937 C 0.17531 0.26216 0.19075 0.0
C938 C 0.15505 0.26078 0.18471 0.0
H939 H 0.0667 0.24814 0.13055 0.0
H940 H 0.10006 0.24829 0.1397 0.0
H941 H 0.12669 0.26975 0.14702 0.0
H942 H 0.21506 0.29205 0.18858 0.0
H943 H 0.18263 0.28837 0.17606 0.0
C944 C 0.11979 0.02474 0.21188 0.0
C945 C 0.1161 0.02667 0.23135 0.0
C946 C 0.10482 0.02222 0.19877 0.0
C947 C 0.07212 0.00449 0.17558 0.0
H948 H 0.02389 0.02698 0.18322 0.0
C949 C 0.00954 0.98416 0.1257 0.0
C950 C -0.00145 -0.00104 0.11983 0.0
C951 C 0.02203 0.98685 0.14112 0.0
C952 C 0.0373 0.02069 0.18076 0.0
H953 H 0.09385 0.02772 0.25237 0.0
H954 H 0.06783 0.02258 0.22969 0.0
H955 H 0.05007 0.03485 0.20521 0.0
H956 H 0.99128 0.02786 0.12598 0.0
H957 H 0.01361 0.0329 0.1524 0.0
H958 H 0.05982 0.99122 0.15057 0.0
C959 C 0.0822 0.02357 0.22437 0.0
C960 C 0.05229 0.02502 0.19355 0.0
C961 C 0.09716 0.02643 0.23742 0.0
C962 C -0.0005 0.01616 0.1303 0.0
C963 C 0.01231 0.01901 0.14549 0.0
C964 C 0.05727 0.00042 0.16266 0.0
C965 C 0.08582 0.02119 0.20488 0.0
C966 C 0.06991 0.01697 0.19112 0.0
C967 C 0.02416 0.00457 0.15072 0.0
C968 C 0.03963 0.00841 0.16507 0.0
H969 H 0.13425 0.02503 0.20678 0.0
H970 H 0.10818 0.02094 0.18384 0.0
H971 H 0.08531 -0.0023 0.1734 0.0
H972 H 0.00891 0.97067 0.11797 0.0
H973 H 0.03044 0.97519 0.14511 0.0
C974 C 0.22912 0.86216 0.46557 0.0
C975 C 0.24369 0.85911 0.47871 0.0
C976 C 0.22747 0.85131 0.44868 0.0
C977 C 0.25583 0.8244 0.41591 0.0
H978 H 0.20887 0.79625 0.40114 0.0
C979 C 0.25546 0.76841 0.35634 0.0
C980 C 0.24063 0.7684 0.34291 0.0
C981 C 0.25437 0.77859 0.37345 0.0
C982 C 0.22202 0.80419 0.40496 0.0
H983 H 0.26798 0.84251 0.48445 0.0
H984 H 0.26523 0.82395 0.45503 0.0
H985 H 0.20962 0.81735 0.42925 0.0
H986 H 0.21256 0.7782 0.33732 0.0
H987 H 0.21086 0.7963 0.367 0.0
H988 H 0.26829 0.81164 0.39171 0.0
C989 C 0.25508 0.83461 0.45775 0.0
C990 C 0.22242 0.81626 0.421 0.0
C991 C 0.25658 0.84519 0.47463 0.0
C992 C 0.22423 0.7779 0.3474 0.0
C993 C 0.22323 0.78826 0.36444 0.0
C994 C 0.25541 0.81252 0.39986 0.0
C995 C 0.24056 0.83756 0.44462 0.0
C996 C 0.23942 0.82621 0.42674 0.0
C997 C 0.23853 0.78917 0.3774 0.0
C998 C 0.2386 0.80202 0.39436 0.0
H999 H 0.21896 0.87275 0.46842 0.0
H1000 H 0.21617 0.85383 0.43868 0.0
H1001 H 0.26905 0.83215 0.41992 0.0
H1002 H 0.26818 0.76103 0.35341 0.0
H1003 H 0.26618 0.77856 0.38338 0.0
C1004 C 0.38316 0.02391 0.67873 0.0
C1005 C 0.3879 0.0101 0.69181 0.0
C1006 C 0.39658 0.03104 0.66582 0.0
C1007 C 0.44822 0.0361 0.65734 0.0
H1008 H 0.43309 0.03933 0.60452 0.0
C1009 C 0.50008 0.03514 0.59489 0.0
C1010 C 0.49509 0.04369 0.57784 0.0
C1011 C 0.48826 0.03596 0.61066 0.0
C1012 C 0.43752 0.03899 0.61927 0.0
H1013 H 0.41045 0.99287 0.70148 0.0
H1014 H 0.43374 0.00515 0.67878 0.0
H1015 H 0.40943 0.03031 0.62804 0.0
H1016 H 0.47512 0.06176 0.56469 0.0
H1017 H 0.45479 0.0636 0.59236 0.0
H1018 H 0.47644 0.04436 0.64843 0.0
C1019 C 0.41973 0.01065 0.67872 0.0
C1020 C 0.42393 0.03372 0.63275 0.0
C1021 C 0.4063 0.00347 0.69158 0.0
C1022 C 0.47917 0.05475 0.57753 0.0
C1023 C 0.46746 0.0557 0.59334 0.0
C1024 C 0.46184 0.04146 0.64385 0.0
C1025 C 0.41503 0.02457 0.66576 0.0
C1026 C 0.4292 0.03183 0.65185 0.0
C1027 C 0.47134 0.04549 0.60972 0.0
C1028 C 0.4567 0.0426 0.62459 0.0
H1029 H 0.36914 0.0294 0.67859 0.0
H1030 H 0.39259 0.04182 0.65605 0.0
H1031 H 0.45262 0.03507 0.67204 0.0
H1032 H 0.51229 0.02655 0.59563 0.0
H1033 H 0.49168 0.02789 0.62303 0.0
C1034 C 0.24422 0.14493 0.95153 0.0
C1035 C 0.2413 0.15339 0.96937 0.0
C1036 C 0.24411 0.15585 0.93516 0.0
C1037 C 0.22882 0.20242 0.91812 0.0
H1038 H 0.25956 0.19029 0.87466 0.0
C1039 C 0.24231 0.24968 0.85185 0.0
C1040 C 0.23671 0.24034 0.8347 0.0
C1041 C 0.24259 0.23959 0.86874 0.0
C1042 C 0.25093 0.19377 0.88675 0.0
H1043 H 0.23688 0.17991 0.98433 0.0
H1044 H 0.23774 0.1991 0.95609 0.0
H1045 H 0.26161 0.1717 0.9034 0.0
H1046 H 0.227 0.21318 0.82176 0.0
H1047 H 0.22802 0.19557 0.8512 0.0
H1048 H 0.21874 0.22496 0.90146 0.0
C1049 C 0.23923 0.18396 0.95444 0.0
C1050 C 0.25195 0.18306 0.90315 0.0
C1051 C 0.2389 0.17299 0.97068 0.0
C1052 C 0.23123 0.22082 0.83478 0.0
C1053 C 0.23193 0.21069 0.85154 0.0
C1054 C 0.22813 0.21336 0.90186 0.0
C1055 C 0.2415 0.17551 0.9364 0.0
C1056 C 0.2408 0.18714 0.91903 0.0
C1057 C 0.23773 0.21997 0.86858 0.0
C1058 C 0.23905 0.20899 0.88604 0.0
H1059 H 0.246 0.1298 0.95017 0.0
H1060 H 0.24562 0.14874 0.92153 0.0
H1061 H 0.21968 0.20577 0.92984 0.0
H1062 H 0.24661 0.26471 0.85218 0.0
H1063 H 0.24711 0.24695 0.88181 0.0
C1064 C 0.10458 0.04251 0.33534 0.0
C1065 C 0.11826 0.02938 0.33113 0.0
C1066 C 0.09274 0.04001 0.35094 0.0
C1067 C 0.08941 0.01846 0.39736 0.0
H1068 H 0.03534 0.02454 0.39146 0.0
C1069 C 0.01787 0.00559 0.44453 0.0
C1070 C 0.02395 0.01508 0.46148 0.0
C1071 C 0.02864 0.00751 0.42803 0.0
C1072 C 0.05039 0.02274 0.39327 0.0
H1073 H 0.13041 0.00345 0.3401 0.0
H1074 H 0.10979 -0.00075 0.36775 0.0
H1075 H 0.05596 0.02668 0.36371 0.0
H1076 H 0.04572 0.03466 0.47412 0.0
H1077 H 0.06443 0.03791 0.44536 0.0
H1078 H 0.08389 0.01472 0.42694 0.0
C1079 C 0.10826 0.01141 0.35882 0.0
C1080 C 0.06218 0.02405 0.37746 0.0
C1081 C 0.12002 0.0138 0.34302 0.0
C1082 C 0.04061 0.02711 0.46135 0.0
C1083 C 0.05144 0.02887 0.44493 0.0
C1084 C 0.07766 0.01737 0.4132 0.0
C1085 C 0.09442 0.02443 0.3628 0.0
C1086 C 0.08181 0.02204 0.37938 0.0
C1087 C 0.04576 0.0188 0.42823 0.0
C1088 C 0.05806 0.01962 0.41132 0.0
H1089 H 0.10283 0.05466 0.32645 0.0
H1090 H 0.08236 0.05038 0.35384 0.0
H1091 H 0.10451 0.01697 0.39923 0.0
H1092 H 0.00511 0.99622 0.44415 0.0
H1093 H 0.02396 -0.0004 0.41532 0.0
C1094 C 0.2238 0.86644 0.59677 0.0
C1095 C 0.22291 0.86384 0.57698 0.0
C1096 C 0.2161 0.85236 0.60861 0.0
C1097 C 0.20365 0.80075 0.60815 0.0
H1098 H 0.18729 0.81278 0.65913 0.0
C1099 C 0.21788 0.75458 0.67098 0.0
C1100 C 0.20716 0.75595 0.68762 0.0
C1101 C 0.21321 0.76462 0.65493 0.0
C1102 C 0.19132 0.80901 0.64481 0.0
H1103 H 0.21226 0.84505 0.55399 0.0
H1104 H 0.19829 0.82079 0.57461 0.0
H1105 H 0.19093 0.83786 0.63613 0.0
H1106 H 0.18175 0.76704 0.69968 0.0
H1107 H 0.17333 0.78421 0.67141 0.0
H1108 H 0.20398 0.77189 0.61682 0.0
C1109 C 0.20546 0.83337 0.58105 0.0
C1110 C 0.19376 0.82351 0.63169 0.0
C1111 C 0.21344 0.8473 0.56923 0.0
C1112 C 0.1905 0.76594 0.68718 0.0
C1113 C 0.18573 0.77589 0.67102 0.0
C1114 C 0.20093 0.7862 0.62117 0.0
C1115 C 0.20705 0.83553 0.6009 0.0
C1116 C 0.20082 0.81971 0.6135 0.0
C1117 C 0.19759 0.77611 0.65505 0.0
C1118 C 0.19565 0.7903 0.63994 0.0
H1119 H 0.23104 0.87903 0.60313 0.0
H1120 H 0.21793 0.85441 0.62381 0.0
H1121 H 0.2091 0.79722 0.59428 0.0
H1122 H 0.23069 0.74686 0.67073 0.0
H1123 H 0.22279 0.76449 0.643 0.0
C1124 C 0.39067 0.00609 0.79857 0.0
C1125 C 0.3904 0.98889 0.78813 0.0
C1126 C 0.40249 0.00898 0.81455 0.0
C1127 C 0.44557 0.99095 0.8366 0.0
H1128 H 0.42888 0.01768 0.88151 0.0
C1129 C 0.48509 0.99196 0.90897 0.0
C1130 C 0.48659 0.00932 0.91922 0.0
C1131 C 0.47427 0.99012 0.89224 0.0
C1132 C 0.43381 0.01038 0.86897 0.0
H1133 H 0.40175 0.96096 0.78659 0.0
H1134 H 0.42192 0.9658 0.81465 0.0
H1135 H 0.40748 0.01295 0.85422 0.0
H1136 H 0.47844 0.03857 0.9195 0.0
H1137 H 0.45963 0.0353 0.89036 0.0
H1138 H 0.47178 0.9881 0.85157 0.0
C1139 C 0.41344 0.97728 0.81026 0.0
C1140 C 0.42156 0.00768 0.85334 0.0
C1141 C 0.40175 0.97445 0.79426 0.0
C1142 C 0.47756 0.02497 0.91203 0.0
C1143 C 0.46666 0.02308 0.89539 0.0
C1144 C 0.45776 0.99354 0.85229 0.0
C1145 C 0.41417 0.99466 0.82045 0.0
C1146 C 0.42726 -0.00215 0.83699 0.0
C1147 C 0.46466 0.00557 0.8855 0.0
C1148 C 0.45198 0.00324 0.86864 0.0
H1149 H 0.38214 0.01752 0.79414 0.0
H1150 H 0.40283 0.0226 0.82198 0.0
H1151 H 0.45056 0.98365 0.8241 0.0
H1152 H 0.49187 0.97963 0.91411 0.0
H1153 H 0.47289 0.97642 0.88494 0.0
C1154 C 0.27257 0.16524 0.06121 0.0
C1155 C 0.26957 0.146 0.06588 0.0
C1156 C 0.28125 0.17828 0.07413 0.0
C1157 C 0.30987 0.18346 0.11833 0.0
H1158 H 0.28313 0.22961 0.12456 0.0
C1159 C 0.31254 0.23111 0.18579 0.0
C1160 C 0.30813 0.25017 0.18405 0.0
C1161 C 0.31363 0.21943 0.16961 0.0
C1162 C 0.29116 0.21709 0.12274 0.0
H1163 H 0.27386 0.12524 0.08761 0.0
H1164 H 0.2887 0.14829 0.11051 0.0
H1165 H 0.27307 0.20672 0.09994 0.0
H1166 H 0.30403 0.27269 0.16421 0.0
H1167 H 0.30678 0.25256 0.13595 0.0
H1168 H 0.32766 0.19378 0.14163 0.0
C1169 C 0.28453 0.15314 0.09667 0.0
C1170 C 0.28528 0.20387 0.10864 0.0
C1171 C 0.27587 0.14 0.08365 0.0
C1172 C 0.30711 0.25794 0.16591 0.0
C1173 C 0.30857 0.24637 0.14976 0.0
C1174 C 0.31585 0.1968 0.13248 0.0
C1175 C 0.28705 0.17246 0.09211 0.0
C1176 C 0.29438 0.18682 0.10642 0.0
C1177 C 0.31059 0.22674 0.15147 0.0
C1178 C 0.30637 0.21366 0.13499 0.0
H1179 H 0.26816 0.17032 0.04754 0.0
H1180 H 0.28328 0.19302 0.0701 0.0
H1181 H 0.31726 0.1705 0.11678 0.0
H1182 H 0.31341 0.22476 0.19963 0.0
H1183 H 0.31521 0.20439 0.17148 0.0
C1184 C 0.1873 0.06574 0.03274 0.0
C1185 C 0.19087 0.08412 0.02571 0.0
C1186 C 0.16877 0.05753 0.03324 0.0
C1187 C 0.12751 0.04933 0.04396 0.0
H1188 H 0.09243 0.05518 0.00204 0.0
C1189 C 0.0528 0.0118 0.04239 0.0
C1190 C 0.03773 0.02267 0.03676 0.0
C1191 C 0.07161 0.01856 0.03995 0.0
C1192 C 0.10202 0.05357 0.01392 0.0
H1193 H 0.17774 0.10824 0.01354 0.0
H1194 H 0.14547 0.094 0.0146 0.0
H1195 H 0.12517 0.06828 -0.00013 0.0
H1196 H 0.03066 0.04904 0.02376 0.0
H1197 H 0.06355 0.06092 0.01968 0.0
H1198 H 0.10437 0.03481 0.0581 0.0
C1199 C 0.15702 0.08584 0.01952 0.0
C1200 C 0.12076 0.06106 0.01267 0.0
C1201 C 0.17552 0.09405 0.01904 0.0
C1202 C 0.04192 0.04029 0.02824 0.0
C1203 C 0.06077 0.04706 0.02581 0.0
C1204 C 0.10879 0.04186 0.04521 0.0
C1205 C 0.15343 0.06752 0.0267 0.0
C1206 C 0.13369 0.05908 0.02772 0.0
C1207 C 0.07581 0.03636 0.03184 0.0
C1208 C 0.09581 0.04395 0.03023 0.0
H1209 H 0.19881 0.05767 0.03792 0.0
H1210 H 0.16648 0.04331 0.03865 0.0
H1211 H 0.13704 0.04784 0.05591 0.0
H1212 H 0.05011 -0.00189 0.04888 0.0
H1213 H 0.08288 0.00983 0.04444 0.0
C1214 C 0.71172 0.43023 0.04327 0.0
C1215 C 0.72052 0.4323 0.06122 0.0
C1216 C 0.69576 0.44024 0.03906 0.0
C1217 C 0.66621 0.47908 0.05593 0.0
H1218 H 0.62498 0.44634 0.03442 0.0
C1219 C 0.5793 0.47288 0.0508 0.0
C1220 C 0.57532 0.49075 0.04377 0.0
C1221 C 0.59798 0.46771 0.05248 0.0
C1222 C 0.63634 0.45564 0.0405 0.0
H1223 H 0.72032 0.44742 0.08838 0.0
H1224 H 0.69236 0.46461 0.08115 0.0
H1225 H 0.65657 0.43459 0.03684 0.0
H1226 H 0.58797 0.51758 0.03386 0.0
H1227 H 0.62073 0.50845 0.03681 0.0
H1228 H 0.64562 0.4999 0.06017 0.0
C1229 C 0.69783 0.45541 0.07025 0.0
C1230 C 0.65452 0.44902 0.04161 0.0
C1231 C 0.71379 0.44544 0.07444 0.0
C1232 C 0.59054 0.50369 0.03931 0.0
C1233 C 0.6093 0.49849 0.04101 0.0
C1234 C 0.64796 0.48574 0.05477 0.0
C1235 C 0.68829 0.45248 0.05274 0.0
C1236 C 0.6696 0.46053 0.04961 0.0
C1237 C 0.61315 0.48027 0.04716 0.0
C1238 C 0.63278 0.47392 0.04739 0.0
H1239 H 0.71668 0.42035 0.03272 0.0
H1240 H 0.6889 0.43794 0.02532 0.0
H1241 H 0.6776 0.48832 0.06204 0.0
H1242 H 0.56795 0.46262 0.05457 0.0
H1243 H 0.60055 0.45372 0.05769 0.0
C1244 C 0.84171 0.42377 0.23581 0.0
C1245 C 0.83137 0.43749 0.2268 0.0
C1246 C 0.83408 0.40519 0.23737 0.0
C1247 C 0.80909 0.37286 0.25184 0.0
H1248 H 0.78075 0.34431 0.21215 0.0
C1249 C 0.78735 0.29355 0.25815 0.0
C1250 C 0.76869 0.28753 0.25272 0.0
C1251 C 0.79451 0.31196 0.25443 0.0
C1252 C 0.78848 0.35223 0.2234 0.0
H1253 H 0.80531 0.44231 0.21151 0.0
H1254 H 0.7918 0.40975 0.21452 0.0
H1255 H 0.79475 0.37613 0.20567 0.0
H1256 H 0.74293 0.29611 0.23906 0.0
H1257 H 0.75553 0.32835 0.23261 0.0
H1258 H 0.80298 0.34901 0.26952 0.0
C1259 C 0.80589 0.41339 0.22022 0.0
C1260 C 0.79649 0.3704 0.21969 0.0
C1261 C 0.81361 0.43202 0.21853 0.0
C1262 C 0.75734 0.30033 0.24349 0.0
C1263 C 0.76457 0.31873 0.23966 0.0
C1264 C 0.80118 0.35473 0.2555 0.0
C1265 C 0.81587 0.39994 0.23011 0.0
C1266 C 0.80703 0.3808 0.23385 0.0
C1267 C 0.78321 0.3247 0.24513 0.0
C1268 C 0.79094 0.34419 0.24129 0.0
H1269 H 0.85555 0.42749 0.24209 0.0
H1270 H 0.84232 0.39502 0.24464 0.0
H1271 H 0.81672 0.38071 0.26319 0.0
H1272 H 0.79648 0.28404 0.26524 0.0
H1273 H 0.809 0.31614 0.25861 0.0
C1274 C 0.77567 0.56504 0.54611 0.0
C1275 C 0.77012 0.57825 0.53275 0.0
C1276 C 0.79445 0.55991 0.547 0.0
C1277 C 0.84187 0.58009 0.53801 0.0
H1278 H 0.85789 0.52854 0.54082 0.0
C1279 C 0.91804 0.56139 0.52406 0.0
C1280 C 0.92564 0.54609 0.53339 0.0
C1281 C 0.89935 0.56583 0.52707 0.0
C1282 C 0.85362 0.54303 0.54048 0.0
H1283 H 0.77957 0.59567 0.5092 0.0
H1284 H 0.81248 0.58677 0.51085 0.0
H1285 H 0.82406 0.53401 0.53834 0.0
H1286 H 0.91998 0.5242 0.55416 0.0
H1287 H 0.88714 0.53219 0.55968 0.0
H1288 H 0.87125 0.58923 0.54024 0.0
C1289 C 0.80228 0.5805 0.52067 0.0
C1290 C 0.83429 0.54612 0.53889 0.0
C1291 C 0.78344 0.58545 0.51962 0.0
C1292 C 0.91448 0.53604 0.54673 0.0
C1293 C 0.89566 0.5405 0.54975 0.0
C1294 C 0.86112 0.57704 0.53981 0.0
C1295 C 0.80802 0.56809 0.53469 0.0
C1296 C 0.82832 0.56466 0.5372 0.0
C1297 C 0.88778 0.55514 0.53957 0.0
C1298 C 0.86726 0.55846 0.5406 0.0
H1299 H 0.76567 0.55921 0.55636 0.0
H1300 H 0.79856 0.5503 0.55791 0.0
H1301 H 0.83755 0.59455 0.5372 0.0
H1302 H 0.9263 0.56952 0.51379 0.0
H1303 H 0.89372 0.57705 0.51883 0.0
C1304 C 0.21868 0.06769 0.27106 0.0
C1305 C 0.20124 0.06844 0.2805 0.0
C1306 C 0.23223 0.08302 0.27236 0.0
C1307 C 0.24985 0.12272 0.26551 0.0
H1308 H 0.25517 0.15554 0.31036 0.0
C1309 C 0.28586 0.19816 0.26219 0.0
C1310 C 0.27349 0.21182 0.26846 0.0
C1311 C 0.28235 0.17901 0.26673 0.0
C1312 C 0.25399 0.14642 0.29778 0.0
H1313 H 0.18473 0.08558 0.29936 0.0
H1314 H 0.20808 0.1123 0.30133 0.0
H1315 H 0.23898 0.12405 0.31261 0.0
H1316 H 0.24868 0.2165 0.2855 0.0
H1317 H 0.24272 0.18331 0.29357 0.0
H1318 H 0.26422 0.14539 0.25055 0.0
C1319 C 0.21148 0.09981 0.29314 0.0
C1320 C 0.24464 0.12844 0.29903 0.0
C1321 C 0.19797 0.08452 0.29186 0.0
C1322 C 0.25837 0.20625 0.28036 0.0
C1323 C 0.25506 0.18725 0.28512 0.0
C1324 C 0.2593 0.14066 0.26429 0.0
C1325 C 0.22864 0.0994 0.28315 0.0
C1326 C 0.24178 0.1167 0.28274 0.0
C1327 C 0.26665 0.17334 0.2779 0.0
C1328 C 0.26077 0.15297 0.28025 0.0
H1329 H 0.22172 0.05545 0.2623 0.0
H1330 H 0.2454 0.08217 0.26467 0.0
H1331 H 0.24779 0.11413 0.25265 0.0
H1332 H 0.29761 0.20209 0.25297 0.0
H1333 H 0.29153 0.16856 0.26103 0.0
C1334 C 0.31638 0.90923 0.52476 0.0
C1335 C 0.30402 0.92042 0.53505 0.0
C1336 C 0.3348 0.91631 0.52075 0.0
C1337 C 0.36244 0.96093 0.51409 0.0
H1338 H 0.40654 0.93244 0.52465 0.0
C1339 C 0.44944 0.96623 0.5043 0.0
C1340 C 0.45306 0.98538 0.50987 0.0
C1341 C 0.43106 0.95771 0.50516 0.0
C1342 C 0.39436 0.94043 0.52125 0.0
H1343 H 0.30138 0.94764 0.54949 0.0
H1344 H 0.3335 0.95999 0.54232 0.0
H1345 H 0.37481 0.91831 0.53093 0.0
H1346 H 0.44017 0.0107 0.52038 0.0
H1347 H 0.40838 0.9958 0.52233 0.0
H1348 H 0.3818 0.983 0.50428 0.0
C1349 C 0.32888 0.94579 0.53734 0.0
C1350 C 0.37623 0.93237 0.52496 0.0
C1351 C 0.31056 0.93865 0.54156 0.0
C1352 C 0.43788 0.99595 0.51589 0.0
C1353 C 0.41958 0.98741 0.51689 0.0
C1354 C 0.38052 0.96891 0.51019 0.0
C1355 C 0.34107 0.93476 0.52674 0.0
C1356 C 0.36017 0.94271 0.52173 0.0
C1357 C 0.41598 0.96815 0.51173 0.0
C1358 C 0.39671 0.95891 0.51408 0.0
H1359 H 0.31175 0.89511 0.51958 0.0
H1360 H 0.34397 0.90756 0.51252 0.0
H1361 H 0.3502 0.96903 0.51117 0.0
H1362 H 0.46083 0.95773 0.49947 0.0
H1363 H 0.4287 0.94293 0.5008 0.0
C1364 C 0.80749 0.54246 0.25388 0.0
C1365 C 0.80627 0.53494 0.23525 0.0
C1366 C 0.79791 0.55858 0.25882 0.0
C1367 C 0.76222 0.59152 0.24201 0.0
H1368 H 0.7963 0.62983 0.26671 0.0
C1369 C 0.77626 0.67758 0.24636 0.0
C1370 C 0.75857 0.68379 0.25201 0.0
C1371 C 0.77955 0.65831 0.24601 0.0
C1372 C 0.78659 0.61927 0.25984 0.0
H1373 H 0.79299 0.53755 0.20758 0.0
H1374 H 0.77662 0.56582 0.21608 0.0
H1375 H 0.80556 0.59726 0.26405 0.0
H1376 H 0.73018 0.6745 0.261 0.0
H1377 H 0.73602 0.6406 0.26025 0.0
H1378 H 0.74367 0.61397 0.23706 0.0
C1379 C 0.78478 0.55922 0.22695 0.0
C1380 C 0.79177 0.60053 0.25855 0.0
C1381 C 0.79432 0.54308 0.22203 0.0
C1382 C 0.74398 0.67018 0.25661 0.0
C1383 C 0.74729 0.65079 0.25618 0.0
C1384 C 0.757 0.61033 0.24335 0.0
C1385 C 0.78697 0.5675 0.24521 0.0
C1386 C 0.77988 0.58654 0.24919 0.0
C1387 C 0.76525 0.64475 0.25126 0.0
C1388 C 0.76943 0.62446 0.25179 0.0
H1389 H 0.81643 0.53637 0.26445 0.0
H1390 H 0.79961 0.56448 0.2731 0.0
H1391 H 0.75268 0.58099 0.23489 0.0
H1392 H 0.78777 0.68762 0.24255 0.0
H1393 H 0.7934 0.654 0.24173 0.0
C1394 C 0.67028 0.48174 0.76949 0.0
C1395 C 0.67554 0.49246 0.75355 0.0
C1396 C 0.67406 0.46251 0.77025 0.0
C1397 C 0.70481 0.4272 0.74965 0.0
H1398 H 0.66605 0.39025 0.76689 0.0
C1399 C 0.71546 0.34733 0.74387 0.0
C1400 C 0.71091 0.33667 0.76004 0.0
C1401 C 0.70954 0.36578 0.74224 0.0
C1402 C 0.67706 0.40042 0.76217 0.0
H1403 H 0.68905 0.49148 0.726 0.0
H1404 H 0.69563 0.45805 0.72734 0.0
H1405 H 0.65958 0.42393 0.76653 0.0
H1406 H 0.69571 0.33671 0.78673 0.0
H1407 H 0.68562 0.36896 0.78396 0.0
H1408 H 0.72238 0.40386 0.74547 0.0
C1409 C 0.68871 0.46449 0.73931 0.0
C1410 C 0.67337 0.41969 0.76201 0.0
C1411 C 0.68486 0.48364 0.73852 0.0
C1412 C 0.69949 0.34452 0.77408 0.0
C1413 C 0.69363 0.36301 0.77247 0.0
C1414 C 0.70851 0.40799 0.74985 0.0
C1415 C 0.68327 0.45369 0.75512 0.0
C1416 C 0.68721 0.43327 0.75571 0.0
C1417 C 0.699 0.37402 0.75676 0.0
C1418 C 0.69467 0.39436 0.75607 0.0
H1419 H 0.66305 0.48814 0.78129 0.0
H1420 H 0.6699 0.45458 0.78271 0.0
H1421 H 0.71587 0.43736 0.74499 0.0
H1422 H 0.72408 0.34166 0.7327 0.0
H1423 H 0.71355 0.37375 0.72975 0.0
C1424 C 0.01881 0.79897 0.96507 0.0
C1425 C 0.00875 0.79796 0.9477 0.0
C1426 C 0.01708 0.81439 0.97761 0.0
C1427 C 0.98334 0.84762 0.99229 0.0
H1428 H 0.02525 0.88326 0.00694 0.0
C1429 C 0.97094 0.92284 0.01758 0.0
C1430 C 0.98285 0.93187 0.03153 0.0
C1431 C 0.97475 0.905 0.01029 0.0
C1432 C 0.01347 0.87321 0.00336 0.0
H1433 H 0.98929 0.81236 0.92969 0.0
H1434 H 0.98599 0.839 0.95179 0.0
H1435 H 0.03141 0.85455 0.98838 0.0
H1436 H 0.00798 0.92909 0.04903 0.0
H1437 H 0.0145 0.8976 0.03639 0.0
H1438 H 0.96532 0.86604 0.00707 0.0
C1439 C 0.99526 0.82793 0.95558 0.0
C1440 C 0.01701 0.85688 0.9927 0.0
C1441 C -0.00275 0.81276 0.94293 0.0
C1442 C -0.00144 0.92251 0.03824 0.0
C1443 C 0.00234 0.90453 0.03097 0.0
C1444 C 0.97983 0.86373 0.00314 0.0
C1445 C 0.00498 0.82873 0.97307 0.0
C1446 C 0.00187 0.84436 0.9866 0.0
C1447 C 0.99048 0.89564 0.01685 0.0
C1448 C 0.99475 0.87707 0.0082 0.0
H1449 H 0.02782 0.78777 0.96906 0.0
H1450 H 0.0247 0.81484 0.99105 0.0
H1451 H 0.97152 0.83793 0.98792 0.0
H1452 H 0.95877 0.92966 0.01199 0.0
H1453 H 0.96557 0.89878 -0.00089 0.0
C1454 C 0.92924 0.29597 0.6726 0.0
C1455 C 0.93715 0.28015 0.68073 0.0
C1456 C 0.91573 0.3059 0.68249 0.0
C1457 C 0.89639 0.31443 0.73011 0.0
H1458 H 0.84773 0.31549 0.7043 0.0
C1459 C 0.82595 0.30635 0.76843 0.0
C1460 C 0.80935 0.31233 0.75985 0.0
C1461 C 0.84356 0.31001 0.75996 0.0
C1462 C 0.8613 0.31594 0.71167 0.0
H1463 H 0.93768 0.26275 0.70577 0.0
H1464 H 0.91426 0.28017 0.72304 0.0
H1465 H 0.87549 0.30729 0.68649 0.0
H1466 H 0.79846 0.32896 0.73702 0.0
H1467 H 0.8293 0.33585 0.72255 0.0
H1468 H 0.88213 0.32253 0.75542 0.0
C1469 C 0.91849 0.28489 0.70906 0.0
C1470 C 0.87721 0.31113 0.70142 0.0
C1471 C 0.93173 0.27479 0.69909 0.0
C1472 C 0.81097 0.32384 0.74379 0.0
C1473 C 0.82864 0.3277 0.73543 0.0
C1474 C 0.88053 0.31949 0.74034 0.0
C1475 C 0.91022 0.3004 0.70079 0.0
C1476 C 0.89468 0.30952 0.71072 0.0
C1477 C 0.84498 0.31994 0.74283 0.0
C1478 C 0.86259 0.31943 0.73142 0.0
H1479 H 0.93321 0.30043 0.65848 0.0
H1480 H 0.90949 0.31779 0.67581 0.0
H1481 H 0.90983 0.31355 0.73752 0.0
H1482 H 0.82523 0.29753 0.78086 0.0
H1483 H 0.85576 0.30368 0.76607 0.0
C1484 C 0.50516 0.20243 0.40242 0.0
C1485 C 0.49268 0.21555 0.40959 0.0
C1486 C 0.50294 0.1833 0.40729 0.0
C1487 C 0.48347 0.15482 0.4463 0.0
H1488 H 0.49743 0.11217 0.41484 0.0
C1489 C 0.48502 0.08027 0.47676 0.0
C1490 C 0.50185 0.07111 0.4733 0.0
C1491 C 0.48073 0.09615 0.46639 0.0
C1492 C 0.49348 0.12397 0.42376 0.0
H1493 H 0.46717 0.21874 0.42605 0.0
H1494 H 0.46302 0.18535 0.43411 0.0
H1495 H 0.4952 0.14343 0.40075 0.0
H1496 H 0.52692 0.07091 0.45562 0.0
H1497 H 0.51953 0.0988 0.43776 0.0
H1498 H 0.48223 0.13564 0.46938 0.0
C1499 C 0.47487 0.18988 0.42526 0.0
C1500 C 0.49223 0.14184 0.41572 0.0
C1501 C 0.47721 0.209 0.42059 0.0
C1502 C 0.51387 0.07769 0.45871 0.0
C1503 C 0.50958 0.09358 0.44835 0.0
C1504 C 0.48466 0.13701 0.45429 0.0
C1505 C 0.48809 0.17695 0.41924 0.0
C1506 C 0.4875 0.15752 0.42699 0.0
C1507 C 0.49317 0.1032 0.45237 0.0
C1508 C 0.48997 0.12147 0.4432 0.0
H1509 H 0.51721 0.20709 0.39389 0.0
H1510 H 0.51346 0.17373 0.40252 0.0
H1511 H 0.4802 0.16665 0.45551 0.0
H1512 H 0.47534 0.07546 0.48775 0.0
H1513 H 0.46785 0.10314 0.46961 0.0
C1514 C 0.54189 0.75817 0.18888 0.0
C1515 C 0.53927 0.7725 0.17568 0.0
C1516 C 0.55867 0.75813 0.19952 0.0
C1517 C 0.6086 0.77646 0.19763 0.0
H1518 H 0.61088 0.75781 0.24903 0.0
C1519 C 0.67838 0.77866 0.23947 0.0
C1520 C 0.6831 0.76142 0.2475 0.0
C1521 C 0.66006 0.78093 0.23275 0.0
C1522 C 0.61039 0.76297 0.23465 0.0
H1523 H 0.55169 0.79863 0.16406 0.0
H1524 H 0.58076 0.79888 0.18303 0.0
H1525 H 0.57998 0.76102 0.23372 0.0
H1526 H 0.67198 0.73337 0.2556 0.0
H1527 H 0.63974 0.73745 0.24377 0.0
H1528 H 0.63894 0.7785 0.19858 0.0
C1529 C 0.57009 0.78734 0.18475 0.0
C1530 C 0.59275 0.76479 0.22587 0.0
C1531 C 0.5534 0.78726 0.17395 0.0
C1532 C 0.66882 0.74678 0.24941 0.0
C1533 C 0.65037 0.74913 0.24274 0.0
C1534 C 0.62615 0.77482 0.20645 0.0
C1535 C 0.57311 0.77253 0.19733 0.0
C1536 C 0.59168 0.77148 0.20721 0.0
C1537 C 0.646 0.76609 0.23397 0.0
C1538 C 0.62722 0.76801 0.225 0.0
H1539 H 0.53126 0.74657 0.19053 0.0
H1540 H 0.56059 0.74639 0.2089 0.0
H1541 H 0.60835 0.7812 0.1831 0.0
H1542 H 0.68894 0.79032 0.23793 0.0
H1543 H 0.65697 0.79425 0.22631 0.0
C1544 C 0.97999 0.20958 0.59055 0.0
C1545 C 0.97122 0.21163 0.60827 0.0
C1546 C 0.97887 0.19208 0.58088 0.0
C1547 C 0.95416 0.1443 0.57832 0.0
H1548 H 0.00346 0.12875 0.56236 0.0
C1549 C 0.96955 0.06613 0.56092 0.0
C1550 C 0.9826 0.06272 0.54645 0.0
C1551 C 0.96622 0.08473 0.56662 0.0
C1552 C 0.98951 0.13294 0.56638 0.0
H1553 H 0.95339 0.19718 0.62914 0.0
H1554 H 0.95158 0.16654 0.61225 0.0
H1555 H 0.00051 0.16069 0.57505 0.0
H1556 H 0.00164 0.07613 0.52596 0.0
H1557 H 0.99551 0.10848 0.5356 0.0
H1558 H 0.94322 0.11637 0.56978 0.0
C1559 C 0.95926 0.17853 0.60585 0.0
C1560 C 0.98783 0.15127 0.57368 0.0
C1561 C 0.96039 0.19606 0.61556 0.0
C1562 C 0.9917 0.07827 0.53735 0.0
C1563 C 0.98824 0.09682 0.54292 0.0
C1564 C 0.95582 0.12592 0.57089 0.0
C1565 C 0.96896 0.17625 0.58869 0.0
C1566 C 0.97018 0.15712 0.57984 0.0
C1567 C 0.97575 0.10029 0.55787 0.0
C1568 C 0.97356 0.12001 0.56495 0.0
H1569 H 0.98828 0.22133 0.58442 0.0
H1570 H 0.98621 0.1908 0.56751 0.0
H1571 H 0.94036 0.14849 0.58287 0.0
H1572 H 0.96231 0.05444 0.56821 0.0
H1573 H 0.95665 0.0869 0.57831 0.0
C1574 C 0.5734 0.2875 0.36403 0.0
C1575 C 0.56702 0.28254 0.38218 0.0
C1576 C 0.59264 0.28751 0.35975 0.0
C1577 C 0.63137 0.25958 0.36984 0.0
H1578 H 0.65906 0.29485 0.33708 0.0
C1579 C 0.69544 0.2368 0.32632 0.0
C1580 C 0.69548 0.24263 0.30734 0.0
C1581 C 0.68334 0.24475 0.33952 0.0
C1582 C 0.65152 0.28483 0.34621 0.0
H1583 H 0.57562 0.2747 0.41042 0.0
H1584 H 0.60948 0.27401 0.40266 0.0
H1585 H 0.63111 0.30491 0.35387 0.0
H1586 H 0.68287 0.26137 0.28735 0.0
H1587 H 0.66142 0.27463 0.31003 0.0
H1588 H 0.65065 0.23897 0.36106 0.0
C1589 C 0.59957 0.27823 0.39192 0.0
C1590 C 0.63567 0.29068 0.35595 0.0
C1591 C 0.58029 0.27868 0.39635 0.0
C1592 C 0.68327 0.25661 0.30188 0.0
C1593 C 0.6711 0.26439 0.31498 0.0
C1594 C 0.64707 0.25363 0.3599 0.0
C1595 C 0.60578 0.28215 0.37342 0.0
C1596 C 0.62505 0.27787 0.36726 0.0
C1597 C 0.67093 0.25856 0.33396 0.0
C1598 C 0.65683 0.26595 0.34735 0.0
H1599 H 0.5634 0.29057 0.3529 0.0
H1600 H 0.59702 0.29038 0.34533 0.0
H1601 H 0.62328 0.24936 0.37833 0.0
H1602 H 0.70483 0.22619 0.33102 0.0
H1603 H 0.68369 0.24004 0.35406 0.0
C1604 C 0.47775 0.83178 0.09952 0.0
C1605 C 0.4909 0.81826 0.09497 0.0
C1606 C 0.47465 0.84656 0.08707 0.0
C1607 C 0.49851 0.87207 0.04752 0.0
H1608 H 0.45004 0.89458 0.04151 0.0
C1609 C 0.49114 0.93271 0.99638 0.0
C1610 C 0.48473 0.94918 0.0052 0.0
C1611 C 0.48837 0.9151 0.00499 0.0
C1612 C 0.46362 0.88834 0.04303 0.0
H1613 H 0.51024 0.80884 0.07346 0.0
H1614 H 0.50435 0.83398 0.05156 0.0
H1615 H 0.45234 0.86677 0.06156 0.0
H1616 H 0.46874 0.95975 0.02898 0.0
H1617 H 0.4639 0.92896 0.04394 0.0
H1618 H 0.50981 0.89355 0.0291 0.0
C1619 C 0.49696 0.83378 0.06498 0.0
C1620 C 0.46499 0.87253 0.05459 0.0
C1621 C 0.50029 0.81929 0.07751 0.0
C1622 C 0.47402 0.94737 0.02191 0.0
C1623 C 0.47114 0.92972 0.03044 0.0
C1624 C 0.49708 0.88764 0.03584 0.0
C1625 C 0.48445 0.84787 0.06975 0.0
C1626 C 0.48251 0.86428 0.05705 0.0
C1627 C 0.479 0.91359 0.02248 0.0
C1628 C 0.47968 0.89601 0.03355 0.0
H1629 H 0.47029 0.83124 0.11289 0.0
H1630 H 0.46504 0.85725 0.09129 0.0
H1631 H 0.51235 0.86649 0.04943 0.0
H1632 H 0.49932 0.93356 0.98344 0.0
H1633 H 0.49433 0.9028 -0.00157 0.0
C1634 C 0.97026 0.77645 0.84229 0.0
C1635 C 0.96512 0.76566 0.85822 0.0
C1636 C 0.95705 0.77915 0.82791 0.0
C1637 C 0.9283 0.77442 0.79528 0.0
H1638 H 0.88011 0.79259 0.8115 0.0
C1639 C 0.86357 0.78545 0.74571 0.0
C1640 C 0.85381 0.80196 0.74929 0.0
C1641 C 0.87858 0.7809 0.75753 0.0
C1642 C 0.89354 0.78759 0.80678 0.0
H1643 H 0.94227 0.74889 0.87143 0.0
H1644 H 0.91895 0.75391 0.8463 0.0
H1645 H 0.90298 0.78326 0.83524 0.0
H1646 H 0.85314 0.82737 0.76723 0.0
H1647 H 0.87926 0.81935 0.78778 0.0
H1648 H 0.91882 0.7789 0.76678 0.0
C1649 C 0.93327 0.76021 0.84501 0.0
C1650 C 0.90651 0.78204 0.82034 0.0
C1651 C 0.94659 0.75731 0.85933 0.0
C1652 C 0.86022 0.81446 0.76412 0.0
C1653 C 0.87509 0.80983 0.776 0.0
C1654 C 0.91522 0.77977 0.78168 0.0
C1655 C 0.93838 0.77128 0.82925 0.0
C1656 C 0.92409 0.77561 0.81473 0.0
C1657 C 0.88398 0.79272 0.77318 0.0
C1658 C 0.89784 0.78667 0.78735 0.0
H1659 H 0.98448 0.78298 0.84097 0.0
H1660 H 0.9613 0.7879 0.81602 0.0
H1661 H 0.94175 0.76941 0.79062 0.0
H1662 H 0.85904 0.77556 0.73435 0.0
H1663 H 0.88526 0.76764 0.75505 0.0
C1664 C 0.90202 0.04075 0.84052 0.0
C1665 C 0.90349 0.0247 0.8286 0.0
C1666 C 0.90466 0.03945 0.86015 0.0
C1667 C 0.90777 0.0042 0.89878 0.0
H1668 H 0.93584 0.046 0.92503 0.0
C1669 C 0.95489 0.01972 0.97168 0.0
C1670 C 0.94375 0.00911 0.98461 0.0
C1671 C 0.94828 0.02236 0.95324 0.0
C1672 C 0.92812 0.03411 0.9179 0.0
H1673 H 0.90882 0.9947 0.82785 0.0
H1674 H 0.91409 0.99256 0.86182 0.0
H1675 H 0.92756 0.04885 0.89171 0.0
H1676 H 0.91676 0.9933 0.98849 0.0
H1677 H 0.90495 -0.0016 0.95648 0.0
H1678 H 0.90934 0.98901 0.92463 0.0
C1679 C 0.91034 0.00605 0.85622 0.0
C1680 C 0.92308 0.03588 0.89882 0.0
C1681 C 0.90747 0.00731 0.83668 0.0
C1682 C 0.92575 0.00139 0.97879 0.0
C1683 C 0.91902 0.00426 0.9604 0.0
C1684 C 0.91303 0.00233 0.91778 0.0
C1685 C 0.90906 0.02211 0.86823 0.0
C1686 C 0.91307 0.02084 0.88893 0.0
C1687 C 0.93024 0.0147 0.94735 0.0
C1688 C 0.9235 0.01717 0.92752 0.0
H1689 H 0.89884 0.05432 0.83469 0.0
H1690 H 0.90325 0.05204 0.86897 0.0
H1691 H 0.89975 0.99245 0.89174 0.0
H1692 H 0.96888 0.02574 0.97568 0.0
H1693 H 0.95752 0.03012 0.94351 0.0
C1694 C 0.80989 0.17329 0.59353 0.0
C1695 C 0.80877 0.18118 0.57542 0.0
C1696 C 0.80832 0.18473 0.60977 0.0
C1697 C 0.78447 0.22765 0.62267 0.0
H1698 H 0.80272 0.21661 0.67309 0.0
C1699 C 0.75921 0.26386 0.69217 0.0
C1700 C 0.75487 0.25136 0.70707 0.0
C1701 C 0.76763 0.25731 0.67559 0.0
C1702 C 0.79751 0.21981 0.65907 0.0
H1703 H 0.80778 0.20756 0.56016 0.0
H1704 H 0.80556 0.22759 0.58856 0.0
H1705 H 0.81764 0.20275 0.64536 0.0
H1706 H 0.75506 0.22195 0.71575 0.0
H1707 H 0.76965 0.21061 0.68684 0.0
H1708 H 0.76416 0.24449 0.63647 0.0
C1709 C 0.80692 0.21247 0.59019 0.0
C1710 C 0.80607 0.21193 0.64321 0.0
C1711 C 0.80833 0.20101 0.57393 0.0
C1712 C 0.75826 0.232 0.70463 0.0
C1713 C 0.76681 0.22552 0.68815 0.0
C1714 C 0.77604 0.23567 0.63853 0.0
C1715 C 0.8058 0.20429 0.60821 0.0
C1716 C 0.79928 0.21532 0.62484 0.0
C1717 C 0.77198 0.23819 0.6737 0.0
C1718 C 0.78213 0.23137 0.65686 0.0
H1719 H 0.81033 0.15807 0.59518 0.0
H1720 H 0.80749 0.17791 0.62341 0.0
H1721 H 0.77864 0.23033 0.60876 0.0
H1722 H 0.75677 0.27886 0.69359 0.0
H1723 H 0.7714 0.26732 0.66457 0.0
C1724 C 0.54694 0.94961 0.31259 0.0
C1725 C 0.56435 0.9464 0.30397 0.0
C1726 C 0.54452 0.94654 0.33195 0.0
C1727 C 0.5415 0.93755 0.3736 0.0
H1728 H 0.58469 0.96217 0.4007 0.0
C1729 C 0.53638 0.96139 0.45194 0.0
C1730 C 0.54305 0.98037 0.45549 0.0
C1731 C 0.54083 0.95204 0.43504 0.0
C1732 C 0.57256 0.95516 0.39337 0.0
H1733 H 0.5921 0.93537 0.30828 0.0
H1734 H 0.58775 0.92974 0.34205 0.0
H1735 H 0.58772 0.95328 0.3674 0.0
H1736 H 0.56026 0.00414 0.44441 0.0
H1737 H 0.56777 0.98795 0.41486 0.0
H1738 H 0.52597 0.94075 0.39929 0.0
C1739 C 0.57615 0.93509 0.33396 0.0
C1740 C 0.57435 0.9498 0.37433 0.0
C1741 C 0.57861 0.93825 0.31461 0.0
C1742 C 0.55485 0.98955 0.44211 0.0
C1743 C 0.5593 0.9802 0.42523 0.0
C1744 C 0.5397 0.94297 0.39266 0.0
C1745 C 0.55944 0.9401 0.34302 0.0
C1746 C 0.55863 0.94161 0.36404 0.0
C1747 C 0.55207 0.96145 0.42138 0.0
C1748 C 0.55501 0.95251 0.4025 0.0
H1749 H 0.53565 0.95578 0.30474 0.0
H1750 H 0.5315 0.95066 0.33847 0.0
H1751 H 0.52922 0.93103 0.36612 0.0
H1752 H 0.52737 0.95383 0.46203 0.0
H1753 H 0.53523 0.93754 0.43255 0.0
C1754 C 0.71997 0.79275 0.05896 0.0
C1755 C 0.73355 0.79369 0.04448 0.0
C1756 C 0.72242 0.78131 0.07462 0.0
C1757 C 0.76268 0.7655 0.10153 0.0
H1758 H 0.72271 0.74932 0.13611 0.0
C1759 C 0.77357 0.75178 0.18271 0.0
C1760 C 0.76176 0.76284 0.19384 0.0
C1761 C 0.7709 0.75025 0.16296 0.0
C1762 C 0.73405 0.75356 0.12651 0.0
H1763 H 0.7589 0.78128 0.0338 0.0
H1764 H 0.76297 0.76105 0.06102 0.0
H1765 H 0.71511 0.75339 0.10261 0.0
H1766 H 0.73818 0.78131 0.19279 0.0
H1767 H 0.73353 0.77845 0.15869 0.0
H1768 H 0.78143 0.76629 0.12572 0.0
C1769 C 0.75074 0.76962 0.06053 0.0
C1770 C 0.72971 0.75594 0.10736 0.0
C1771 C 0.74831 0.78113 0.04485 0.0
C1772 C 0.74757 0.77266 0.18475 0.0
C1773 C 0.74473 0.77087 0.16521 0.0
C1774 C 0.76705 0.7629 0.12067 0.0
C1775 C 0.73844 0.77044 0.07609 0.0
C1776 C 0.74379 0.76287 0.09484 0.0
C1777 C 0.75614 0.75945 0.15416 0.0
C1778 C 0.75259 0.7578 0.13346 0.0
H1779 H 0.7083 0.80207 0.05904 0.0
H1780 H 0.71262 0.78236 0.08629 0.0
H1781 H 0.77388 0.77101 0.09237 0.0
H1782 H 0.78461 0.74402 0.18927 0.0
H1783 H 0.77998 0.74151 0.15464 0.0
C1784 C 0.95725 0.03257 0.7227 0.0
C1785 C 0.9479 0.02229 0.73713 0.0
C1786 C 0.96767 0.0232 0.709 0.0
C1787 C 0.99115 -0.0001 0.68211 0.0
H1788 H 0.95746 0.95933 0.66054 0.0
C1789 C 0.00192 0.97003 0.60661 0.0
C1790 C 0.98588 0.97281 0.59522 0.0
C1791 C 0.00063 0.97075 0.62643 0.0
C1792 C 0.96719 0.97039 0.66655 0.0
H1793 H 0.94404 0.99446 0.74977 0.0
H1794 H 0.96215 0.97817 0.72578 0.0
H1795 H 0.95137 0.97207 0.6922 0.0
H1796 H 0.95567 0.97685 0.59552 0.0
H1797 H 0.95332 0.97762 0.63002 0.0
H1798 H 0.00627 -0.00106 0.6559 0.0
C1799 C 0.96118 0.99342 0.72494 0.0
C1800 C 0.96381 0.97761 0.68473 0.0
C1801 C 0.95086 0.0028 0.73871 0.0
C1802 C 0.96826 0.97471 0.60395 0.0
C1803 C 0.96691 0.97507 0.62371 0.0
C1804 C 0.99465 0.99253 0.66398 0.0
C1805 C 0.96889 0.00337 0.70945 0.0
C1806 C 0.9753 0.99297 0.69238 0.0
C1807 C 0.98321 0.97383 0.63513 0.0
C1808 C 0.98222 0.97825 0.65574 0.0
H1809 H 0.9554 0.04761 0.72115 0.0
H1810 H 0.97341 0.03127 0.69721 0.0
H1811 H 0.00029 0.01165 0.68771 0.0
H1812 H 0.01571 0.96864 0.60026 0.0
H1813 H 0.01338 0.96968 0.63494 0.0
C1814 C 0.80601 0.15982 0.45806 0.0
C1815 C 0.80487 0.17412 0.47204 0.0
C1816 C 0.80968 0.1646 0.43924 0.0
C1817 C 0.80472 0.20566 0.40799 0.0
H1818 H 0.8218 0.17014 0.36997 0.0
C1819 C 0.79619 0.21871 0.32842 0.0
C1820 C 0.78368 0.20452 0.32017 0.0
C1821 C 0.80495 0.21572 0.34588 0.0
C1822 C 0.81726 0.18028 0.3805 0.0
H1823 H 0.80847 0.20438 0.47799 0.0
H1824 H 0.81615 0.21275 0.44545 0.0
H1825 H 0.82714 0.16422 0.40363 0.0
H1826 H 0.77162 0.17566 0.32288 0.0
H1827 H 0.78722 0.17037 0.35325 0.0
H1828 H 0.79479 0.22161 0.3848 0.0
C1829 C 0.8132 0.1979 0.44863 0.0
C1830 C 0.82012 0.17685 0.39977 0.0
C1831 C 0.80895 0.19314 0.46731 0.0
C1832 C 0.78105 0.18689 0.32903 0.0
C1833 C 0.79011 0.18379 0.34628 0.0
C1834 C 0.80228 0.20929 0.38878 0.0
C1835 C 0.81277 0.18378 0.43416 0.0
C1836 C 0.8132 0.18911 0.41379 0.0
C1837 C 0.80167 0.19837 0.35509 0.0
C1838 C 0.80792 0.1963 0.37493 0.0
H1839 H 0.80288 0.14502 0.46143 0.0
H1840 H 0.80896 0.15328 0.4286 0.0
H1841 H 0.79882 0.21531 0.41819 0.0
H1842 H 0.79848 0.23243 0.32188 0.0
H1843 H 0.81378 0.22717 0.3525 0.0
C1844 C 0.59984 0.96243 0.1865 0.0
C1845 C 0.58504 0.95812 0.19925 0.0
C1846 C 0.5958 0.96595 0.16748 0.0
C1847 C 0.55733 0.96348 0.13088 0.0
H1848 H 0.58219 0.01088 0.11436 0.0
C1849 C 0.52663 0.0056 0.07043 0.0
C1850 C 0.53934 0.01186 0.05627 0.0
C1851 C 0.53339 -0.0013 0.08747 0.0
C1852 C 0.57529 -0.00248 0.11868 0.0
H1853 H 0.55459 0.95224 0.20162 0.0
H1854 H 0.54757 0.95846 0.16862 0.0
H1855 H 0.59251 0.99676 0.14375 0.0
H1856 H 0.56918 0.01691 0.04948 0.0
H1857 H 0.58094 0.00497 0.07937 0.0
H1858 H 0.53977 0.96455 0.10604 0.0
C1859 C 0.56229 0.95918 0.17323 0.0
C1860 C 0.58126 0.98935 0.13544 0.0
C1861 C 0.56632 0.95568 0.19222 0.0
C1862 C 0.55899 0.01217 0.06006 0.0
C1863 C 0.56574 0.00532 0.07717 0.0
C1864 C 0.55131 0.97169 0.11417 0.0
C1865 C 0.5769 0.96513 0.16085 0.0
C1866 C 0.57215 0.97239 0.14188 0.0
C1867 C 0.55299 -0.00201 0.09078 0.0
C1868 C 0.56001 0.98896 0.10808 0.0
H1869 H 0.61445 0.96428 0.19142 0.0
H1870 H 0.60739 0.97011 0.15816 0.0
H1871 H 0.5502 0.95028 0.13532 0.0
H1872 H 0.51141 0.00526 0.06807 0.0
H1873 H 0.52324 0.99354 0.09792 0.0
C1874 C 0.77326 0.8306 0.94267 0.0
C1875 C 0.75882 0.83923 0.95263 0.0
C1876 C 0.77451 0.83209 0.92297 0.0
C1877 C 0.746 0.84208 0.88051 0.0
H1878 H 0.79539 0.84575 0.85663 0.0
C1879 C 0.7827 0.84623 0.8011 0.0
C1880 C 0.77126 0.83176 0.79188 0.0
C1881 C 0.78022 0.85039 0.82039 0.0
C1882 C 0.78147 0.84506 0.86304 0.0
H1883 H 0.73447 0.8564 0.94982 0.0
H1884 H 0.73685 0.85928 0.91548 0.0
H1885 H 0.79336 0.84697 0.8911 0.0
H1886 H 0.74765 0.81093 0.79554 0.0
H1887 H 0.7436 0.8179 0.82903 0.0
H1888 H 0.73411 0.84036 0.85244 0.0
C1889 C 0.74702 0.85107 0.92283 0.0
C1890 C 0.78032 0.84546 0.88283 0.0
C1891 C 0.7457 0.84947 0.94252 0.0
C1892 C 0.75677 0.82214 0.80216 0.0
C1893 C 0.75433 0.82625 0.8214 0.0
C1894 C 0.74715 0.84179 0.86072 0.0
C1895 C 0.76143 0.84237 0.91281 0.0
C1896 C 0.76259 0.84357 0.8918 0.0
C1897 C 0.76626 0.84015 0.83085 0.0
C1898 C 0.76491 0.84287 0.85176 0.0
H1899 H 0.78354 0.82255 0.95005 0.0
H1900 H 0.78557 0.8249 0.91568 0.0
H1901 H 0.73212 0.84049 0.88693 0.0
H1902 H 0.79393 0.854 0.79357 0.0
H1903 H 0.78945 0.86139 0.8272 0.0
C1904 C 0.77293 0.89692 0.05586 0.0
C1905 C 0.77907 0.88114 0.04556 0.0
C1906 C 0.78595 0.90876 0.06639 0.0
C1907 C 0.83396 0.91034 0.08782 0.0
H1908 H 0.83815 0.96318 0.07319 0.0
C1909 C 0.90344 0.9504 0.07432 0.0
C1910 C 0.9062 0.96996 0.07821 0.0
C1911 C 0.88629 0.94072 0.07854 0.0
C1912 C 0.83689 0.94864 0.07798 0.0
H1913 H 0.80353 0.86517 0.0386 0.0
H1914 H 0.82608 0.8857 0.05693 0.0
H1915 H 0.80966 0.94336 0.06452 0.0
H1916 H 0.89371 0.99471 0.09036 0.0
H1917 H 0.86306 0.97772 0.09725 0.0
H1918 H 0.86173 0.91524 0.10009 0.0
C1919 C 0.81124 0.88889 0.05698 0.0
C1920 C 0.8206 0.93728 0.07295 0.0
C1921 C 0.79835 0.87726 0.04628 0.0
C1922 C 0.89184 0.97958 0.08729 0.0
C1923 C 0.87438 0.96991 0.09118 0.0
C1924 C 0.85018 0.92168 0.09288 0.0
C1925 C 0.80521 0.90479 0.06707 0.0
C1926 C 0.81953 0.91779 0.07689 0.0
C1927 C 0.87137 0.95046 0.08647 0.0
C1928 C 0.85225 0.94062 0.08701 0.0
H1929 H 0.75814 0.90025 0.05558 0.0
H1930 H 0.781 0.92101 0.07398 0.0
H1931 H 0.83328 0.89542 0.09133 0.0
H1932 H 0.91438 0.94267 0.06742 0.0
H1933 H 0.88433 0.92582 0.07446 0.0
C1934 C 0.33299 0.60686 0.97841 0.0
C1935 C 0.32361 0.60419 0.99576 0.0
C1936 C 0.34452 0.59296 0.97121 0.0
C1937 C 0.37932 0.56937 0.97017 0.0
H1938 H 0.36966 0.51604 0.98157 0.0
C1939 C 0.42483 0.51161 0.00432 0.0
C1940 C 0.44122 0.51245 0.99314 0.0
C1941 C 0.40806 0.51864 -0.00245 0.0
C1942 C 0.37246 0.53082 0.97799 0.0
H1943 H 0.31817 0.58454 0.0187 0.0
H1944 H 0.33835 0.56067 0.00646 0.0
H1945 H 0.34349 0.53719 0.98201 0.0
H1946 H 0.45268 0.52024 0.9657 0.0
H1947 H 0.42334 0.5331 0.95405 0.0
H1948 H 0.40845 0.56317 0.96709 0.0
C1949 C 0.3367 0.57325 -0.00183 0.0
C1950 C 0.35754 0.54295 0.97832 0.0
C1951 C 0.32529 0.58709 0.00534 0.0
C1952 C 0.44023 0.51942 0.97461 0.0
C1953 C 0.4235 0.52679 0.96795 0.0
C1954 C 0.39421 0.5572 0.96966 0.0
C1955 C 0.34673 0.57613 0.98121 0.0
C1956 C 0.36103 0.56256 0.9755 0.0
C1957 C 0.40743 0.52691 0.97959 0.0
C1958 C 0.39108 0.53805 0.97458 0.0
H1959 H 0.33184 0.61986 0.97064 0.0
H1960 H 0.35199 0.59554 0.95806 0.0
H1961 H 0.38253 0.58439 0.96799 0.0
H1962 H 0.42516 0.50619 0.0186 0.0
H1963 H 0.39596 0.51875 0.00692 0.0
C1964 C 0.11719 0.5657 0.75503 0.0
C1965 C 0.12316 0.55248 0.76812 0.0
C1966 C 0.12902 0.58174 0.7509 0.0
C1967 C 0.17118 0.61105 0.76778 0.0
H1968 H 0.18274 0.61669 0.71431 0.0
C1969 C 0.23501 0.65788 0.74754 0.0
C1970 C 0.23112 0.67199 0.73454 0.0
C1971 C 0.22271 0.64175 0.749 0.0
C1972 C 0.17958 0.61534 0.72927 0.0
H1973 H 0.14524 0.5462 0.78821 0.0
H1974 H 0.16557 0.57431 0.78144 0.0
H1975 H 0.15699 0.59408 0.7239 0.0
H1976 H 0.21275 0.67939 0.71137 0.0
H1977 H 0.19107 0.65124 0.71404 0.0
H1978 H 0.19361 0.63216 0.77329 0.0
C1979 C 0.15195 0.57233 0.77421 0.0
C1980 C 0.16476 0.60254 0.73474 0.0
C1981 C 0.14032 0.55624 0.7781 0.0
C1982 C 0.21613 0.66861 0.72141 0.0
C1983 C 0.20363 0.65255 0.72304 0.0
C1984 C 0.1859 0.6238 0.76234 0.0
C1985 C 0.14675 0.58487 0.76009 0.0
C1986 C 0.16065 0.60009 0.75408 0.0
C1987 C 0.20616 0.63964 0.7377 0.0
C1988 C 0.19051 0.62584 0.74306 0.0
H1989 H 0.10409 0.56296 0.74703 0.0
H1990 H 0.12463 0.59132 0.74008 0.0
H1991 H 0.16815 0.60962 0.78276 0.0
H1992 H 0.24653 0.66018 0.75777 0.0
H1993 H 0.22535 0.6317 0.76002 0.0
C1994 C 0.1581 0.3971 0.48642 0.0
C1995 C 0.15799 0.39316 0.50592 0.0
C1996 C 0.14726 0.41142 0.47931 0.0
C1997 C 0.12392 0.45439 0.49546 0.0
H1998 H 0.09206 0.44602 0.45058 0.0
C1999 C 0.0669 0.50557 0.48111 0.0
C2000 C 0.04891 0.4962 0.47821 0.0
C2001 C 0.08336 0.49584 0.4783 0.0
C2002 C 0.10097 0.44863 0.46308 0.0
H2003 H 0.14596 0.40063 0.53312 0.0
H2004 H 0.12689 0.42518 0.52074 0.0
H2005 H 0.11447 0.42242 0.4591 0.0
H2006 H 0.03416 0.4699 0.46817 0.0
H2007 H 0.06261 0.45284 0.464 0.0
H2008 H 0.10964 0.47974 0.50039 0.0
C2009 C 0.13568 0.41762 0.51098 0.0
C2010 C 0.11391 0.43518 0.46786 0.0
C2011 C 0.14647 0.4034 0.51805 0.0
C2012 C 0.04779 0.47752 0.47073 0.0
C2013 C 0.0642 0.46773 0.46817 0.0
C2014 C 0.11094 0.46771 0.49079 0.0
C2015 C 0.1362 0.42204 0.49161 0.0
C2016 C 0.12494 0.43758 0.48455 0.0
C2017 C 0.08214 0.47648 0.4728 0.0
C2018 C 0.09876 0.46465 0.47496 0.0
H2019 H 0.16689 0.38946 0.47673 0.0
H2020 H 0.1479 0.41449 0.46431 0.0
H2021 H 0.13259 0.45685 0.50815 0.0
H2022 H 0.06827 0.52009 0.48652 0.0
H2023 H 0.097 0.50318 0.48149 0.0
C2024 C 0.85121 0.01802 0.71546 0.0
C2025 C 0.85231 0.01739 0.73538 0.0
C2026 C 0.83897 0.00508 0.7053 0.0
C2027 C 0.82992 0.96412 0.69238 0.0
H2028 H 0.78241 0.94125 0.71094 0.0
C2029 C 0.81643 0.88584 0.7054 0.0
C2030 C 0.79862 0.87659 0.70148 0.0
C2031 C 0.81963 0.90514 0.70188 0.0
C2032 C 0.79541 0.94765 0.70516 0.0
H2033 H 0.83996 0.00431 0.76038 0.0
H2034 H 0.81864 0.98186 0.74277 0.0
H2035 H 0.79198 0.97421 0.71971 0.0
H2036 H 0.77037 0.87994 0.69013 0.0
H2037 H 0.77581 0.91417 0.68463 0.0
H2038 H 0.83409 0.93708 0.67918 0.0
C2039 C 0.82721 0.99223 0.7349 0.0
C2040 C 0.80094 0.96645 0.71027 0.0
C2041 C 0.83958 0.00498 0.74502 0.0
C2042 C 0.78426 0.88679 0.69322 0.0
C2043 C 0.78733 0.9063 0.69009 0.0
C2044 C 0.82447 0.9453 0.68741 0.0
C2045 C 0.82747 0.99151 0.71494 0.0
C2046 C 0.81873 0.97449 0.70479 0.0
C2047 C 0.80497 0.91566 0.69469 0.0
C2048 C 0.80768 0.93661 0.69464 0.0
H2049 H 0.86079 0.02751 0.70763 0.0
H2050 H 0.83934 0.0049 0.68992 0.0
H2051 H 0.84375 0.96986 0.68799 0.0
H2052 H 0.82776 0.87826 0.71167 0.0
H2053 H 0.83328 0.91207 0.70582 0.0
C2054 C 0.72498 0.1182 0.54648 0.0
C2055 C 0.7315 0.13122 0.53278 0.0
C2056 C 0.706 0.1114 0.5466 0.0
C2057 C 0.66627 0.10141 0.51431 0.0
H2058 H 0.63699 0.0941 0.56025 0.0
C2059 C 0.59036 0.06756 0.5113 0.0
C2060 C 0.58514 0.05436 0.52531 0.0
C2061 C 0.60715 0.07893 0.51308 0.0
C2062 C 0.64505 0.09589 0.54733 0.0
H2063 H 0.72312 0.14782 0.50884 0.0
H2064 H 0.68987 0.13569 0.50891 0.0
H2065 H 0.66822 0.11113 0.56195 0.0
H2066 H 0.59326 0.04297 0.55235 0.0
H2067 H 0.62306 0.06244 0.55519 0.0
H2068 H 0.64364 0.08562 0.49973 0.0
C2069 C 0.69954 0.13079 0.51953 0.0
C2070 C 0.66286 0.10572 0.5483 0.0
C2071 C 0.71852 0.13776 0.51954 0.0
C2072 C 0.59693 0.05301 0.54133 0.0
C2073 C 0.61393 0.06427 0.543 0.0
C2074 C 0.64859 0.09146 0.51336 0.0
C2075 C 0.69319 0.11735 0.53291 0.0
C2076 C 0.67367 0.10844 0.53181 0.0
C2077 C 0.6193 0.07723 0.52878 0.0
C2078 C 0.6378 0.08846 0.52987 0.0
H2079 H 0.7346 0.11297 0.55696 0.0
H2080 H 0.70153 0.10092 0.55695 0.0
H2081 H 0.67446 0.10301 0.50144 0.0
H2082 H 0.58141 0.06918 0.49892 0.0
H2083 H 0.61061 0.08907 0.50208 0.0
C2084 C 0.14644 0.44237 0.79662 0.0
C2085 C 0.15194 0.46042 0.78988 0.0
C2086 C 0.16009 0.43074 0.80375 0.0
C2087 C 0.2113 0.42482 0.79793 0.0
H2088 H 0.19878 0.38024 0.82774 0.0
C2089 C 0.23709 0.34399 0.81142 0.0
C2090 C 0.23902 0.33915 0.79209 0.0
C2091 C 0.23143 0.36201 0.81681 0.0
C2092 C 0.2028 0.39283 0.81979 0.0
H2093 H 0.17539 0.48144 0.78711 0.0
H2094 H 0.19905 0.4617 0.80054 0.0
H2095 H 0.17822 0.40676 0.82883 0.0
H2096 H 0.23806 0.34976 0.76341 0.0
H2097 H 0.22817 0.38083 0.77268 0.0
H2098 H 0.23573 0.41082 0.78875 0.0
C2099 C 0.18447 0.45599 0.79948 0.0
C2100 C 0.19082 0.40793 0.82016 0.0
C2101 C 0.17093 0.46734 0.79184 0.0
C2102 C 0.23651 0.353 0.77841 0.0
C2103 C 0.23104 0.37094 0.78377 0.0
C2104 C 0.22338 0.4099 0.79781 0.0
C2105 C 0.17942 0.4372 0.80469 0.0
C2106 C 0.19434 0.42362 0.80836 0.0
C2107 C 0.22789 0.37549 0.80296 0.0
C2108 C 0.21863 0.39327 0.80779 0.0
H2109 H 0.13181 0.4368 0.79528 0.0
H2110 H 0.15557 0.41633 0.80738 0.0
H2111 H 0.21462 0.43655 0.7886 0.0
H2112 H 0.23898 0.33357 0.82227 0.0
H2113 H 0.22922 0.36518 0.83171 0.0
C2114 C 0.37994 0.5817 0.27561 0.0
C2115 C 0.3832 0.5685 0.28976 0.0
C2116 C 0.36741 0.59594 0.27869 0.0
C2117 C 0.34143 0.62232 0.31469 0.0
H2118 H 0.30835 0.62989 0.27157 0.0
C2119 C 0.2998 0.68961 0.30482 0.0
C2120 C 0.28272 0.68805 0.2943 0.0
C2121 C 0.31021 0.67363 0.30765 0.0
C2122 C 0.31718 0.6278 0.28392 0.0
H2123 H 0.37663 0.56041 0.31862 0.0
H2124 H 0.3544 0.58541 0.32399 0.0
H2125 H 0.33069 0.60516 0.27 0.0
H2126 H 0.26233 0.66827 0.27997 0.0
H2127 H 0.28019 0.64035 0.28536 0.0
H2128 H 0.32772 0.64504 0.32862 0.0
C2129 C 0.36168 0.58471 0.31053 0.0
C2130 C 0.33024 0.61378 0.28288 0.0
C2131 C 0.37438 0.57043 0.30747 0.0
C2132 C 0.2756 0.66999 0.28785 0.0
C2133 C 0.28589 0.654 0.29088 0.0
C2134 C 0.32826 0.6364 0.31576 0.0
C2135 C 0.35768 0.59726 0.29594 0.0
C2136 C 0.34283 0.61117 0.29805 0.0
C2137 C 0.30367 0.65574 0.30018 0.0
C2138 C 0.3162 0.63951 0.30023 0.0
H2139 H 0.38672 0.58076 0.26191 0.0
H2140 H 0.36505 0.60572 0.26736 0.0
H2141 H 0.35092 0.62059 0.32663 0.0
H2142 H 0.30567 0.70333 0.31 0.0
H2143 H 0.3239 0.67555 0.31475 0.0
C2144 C 0.48061 0.69896 0.5954 0.0
C2145 C 0.48295 0.7034 0.61486 0.0
C2146 C 0.47125 0.6818 0.58943 0.0
C2147 C 0.43946 0.64164 0.60573 0.0
H2148 H 0.46577 0.61262 0.56799 0.0
C2149 C 0.43264 0.56001 0.59848 0.0
C2150 C 0.43582 0.55157 0.58065 0.0
C2151 C 0.4335 0.57981 0.60064 0.0
C2152 C 0.45792 0.62064 0.57821 0.0
H2153 H 0.47689 0.69349 0.64331 0.0
H2154 H 0.46088 0.66351 0.63288 0.0
H2155 H 0.47699 0.64514 0.57549 0.0
H2156 H 0.44029 0.55703 0.55077 0.0
H2157 H 0.44121 0.5915 0.55444 0.0
H2158 H 0.42073 0.61683 0.60884 0.0
C2159 C 0.46604 0.67338 0.62223 0.0
C2160 C 0.46441 0.63931 0.58253 0.0
C2161 C 0.47541 0.69049 0.6282 0.0
C2162 C 0.43812 0.56318 0.56475 0.0
C2163 C 0.43873 0.58292 0.56687 0.0
C2164 C 0.43291 0.62293 0.60135 0.0
C2165 C 0.464 0.66877 0.6028 0.0
C2166 C 0.45553 0.64987 0.59664 0.0
C2167 C 0.43735 0.59146 0.58497 0.0
C2168 C 0.44234 0.61209 0.58783 0.0
H2169 H 0.48612 0.70866 0.58476 0.0
H2170 H 0.46976 0.67868 0.57434 0.0
H2171 H 0.43218 0.64956 0.61648 0.0
H2172 H 0.43086 0.55139 0.61098 0.0
H2173 H 0.43246 0.58591 0.61481 0.0
C2174 C 0.55036 0.21458 0.83586 0.0
C2175 C 0.54514 0.23279 0.83095 0.0
C2176 C 0.56342 0.2052 0.82475 0.0
C2177 C 0.59259 0.21034 0.78053 0.0
H2178 H 0.63424 0.20232 0.81518 0.0
C2179 C 0.66505 0.24745 0.7774 0.0
C2180 C 0.68151 0.2375 0.77967 0.0
C2181 C 0.64719 0.23799 0.77848 0.0
C2182 C 0.62269 0.20389 0.80519 0.0
H2183 H 0.54755 0.25445 0.80955 0.0
H2184 H 0.5702 0.23844 0.79044 0.0
H2185 H 0.60186 0.20036 0.82681 0.0
H2186 H 0.69237 0.20985 0.78445 0.0
H2187 H 0.66076 0.19338 0.78746 0.0
H2188 H 0.61387 0.21624 0.75957 0.0
C2189 C 0.56441 0.23118 0.8027 0.0
C2190 C 0.60406 0.20272 0.81182 0.0
C2191 C 0.55156 0.24055 0.81382 0.0
C2192 C 0.67983 0.21779 0.78265 0.0
C2193 C 0.66185 0.20838 0.78428 0.0
C2194 C 0.61124 0.21182 0.77401 0.0
C2195 C 0.57126 0.21385 0.80852 0.0
C2196 C 0.58897 0.20737 0.7999 0.0
C2197 C 0.64543 0.21848 0.78227 0.0
C2198 C 0.62645 0.20984 0.78664 0.0
H2199 H 0.5455 0.20823 0.84897 0.0
H2200 H 0.56825 0.19177 0.82949 0.0
H2201 H 0.58121 0.21346 0.77087 0.0
H2202 H 0.66599 0.26261 0.77494 0.0
H2203 H 0.6347 0.24613 0.77723 0.0
C2204 C 0.0206 0.3237 0.09562 0.0
C2205 C 0.01416 0.31844 0.11368 0.0
C2206 C 0.02782 0.34219 0.09246 0.0
C2207 C 0.02872 0.39132 0.1111 0.0
H2208 H 0.07174 0.39761 0.07733 0.0
C2209 C 0.05417 0.46514 0.0863 0.0
C2210 C 0.05272 0.46585 0.06641 0.0
C2211 C 0.05485 0.44762 0.09519 0.0
C2212 C 0.05986 0.39606 0.08694 0.0
H2213 H 0.00966 0.32856 0.14249 0.0
H2214 H 0.02236 0.36101 0.13695 0.0
H2215 H 0.06064 0.36579 0.08693 0.0
H2216 H 0.05299 0.44927 0.04018 0.0
H2217 H 0.05456 0.41883 0.05562 0.0
H2218 H 0.02761 0.42158 0.11063 0.0
C2219 C 0.02174 0.3508 0.12522 0.0
C2220 C 0.05339 0.37787 0.09231 0.0
C2221 C 0.01441 0.33225 0.12837 0.0
C2222 C 0.054 0.44908 0.05554 0.0
C2223 C 0.05498 0.43165 0.06439 0.0
C2224 C 0.03527 0.40954 0.10581 0.0
C2225 C 0.02889 0.35585 0.10731 0.0
C2226 C 0.03731 0.37526 0.10388 0.0
C2227 C 0.05446 0.43067 0.08429 0.0
C2228 C 0.05049 0.41202 0.09316 0.0
H2229 H 0.02048 0.3134 0.08397 0.0
H2230 H 0.03268 0.34576 0.07835 0.0
H2231 H 0.01627 0.38979 0.11997 0.0
H2232 H 0.05315 0.47787 0.09502 0.0
H2233 H 0.0546 0.44723 0.11056 0.0
C2234 C 0.96659 0.76388 0.34286 0.0
C2235 C 0.97854 0.77855 0.33547 0.0
C2236 C 0.94757 0.76155 0.33708 0.0
C2237 C 0.91564 0.77334 0.2978 0.0
H2238 H 0.87566 0.76077 0.33368 0.0
C2239 C 0.82892 0.77147 0.30258 0.0
C2240 C 0.82378 0.76205 0.28533 0.0
C2241 C 0.84783 0.77307 0.30865 0.0
C2242 C 0.88666 0.76439 0.32351 0.0
H2243 H 0.97979 0.80264 0.31667 0.0
H2244 H 0.94663 0.79876 0.30688 0.0
H2245 H 0.90853 0.7648 0.34481 0.0
H2246 H 0.83454 0.747 0.26089 0.0
H2247 H 0.86759 0.74966 0.27162 0.0
H2248 H 0.89375 0.77343 0.2766 0.0
C2249 C 0.95202 0.7888 0.31681 0.0
C2250 C 0.9055 0.76648 0.32985 0.0
C2251 C 0.971 0.7911 0.32254 0.0
C2252 C 0.83802 0.75441 0.27421 0.0
C2253 C 0.85697 0.75598 0.28032 0.0
C2254 C 0.89681 0.77126 0.29147 0.0
C2255 C 0.94015 0.77387 0.32382 0.0
C2256 C 0.92018 0.77111 0.31708 0.0
C2257 C 0.86205 0.76525 0.29766 0.0
C2258 C 0.88211 0.76689 0.30427 0.0
H2259 H 0.97202 0.75396 0.35281 0.0
H2260 H 0.9388 0.74982 0.34263 0.0
H2261 H 0.92666 0.77664 0.28756 0.0
H2262 H 0.81834 0.77763 0.31147 0.0
H2263 H 0.85133 0.78059 0.32191 0.0
C2264 C 0.49861 0.29997 0.92428 0.0
C2265 C 0.50996 0.30478 0.90855 0.0
C2266 C 0.49386 0.31399 0.93746 0.0
C2267 C 0.48949 0.36553 0.9414 0.0
H2268 H 0.49515 0.35938 0.99573 0.0
C2269 C 0.50419 0.41777 0.00915 0.0
C2270 C 0.49254 0.43221 0.00372 0.0
C2271 C 0.50214 0.39983 0.00025 0.0
C2272 C 0.49343 0.36125 0.9806 0.0
H2273 H 0.52552 0.32797 0.89453 0.0
H2274 H 0.51733 0.35225 0.91746 0.0
H2275 H 0.50064 0.33273 0.97398 0.0
H2276 H 0.46827 0.43877 0.9865 0.0
H2277 H 0.4642 0.40733 0.97152 0.0
H2278 H 0.48328 0.39414 0.94764 0.0
C2279 C 0.51187 0.33773 0.91948 0.0
C2280 C 0.49642 0.34598 0.96819 0.0
C2281 C 0.51666 0.32378 0.9064 0.0
C2282 C 0.47767 0.42795 0.99066 0.0
C2283 C 0.4754 0.40998 0.98204 0.0
C2284 C 0.48652 0.38071 0.95372 0.0
C2285 C 0.50029 0.33303 0.93503 0.0
C2286 C 0.49497 0.34819 0.94845 0.0
C2287 C 0.48823 0.39604 0.98599 0.0
C2288 C 0.48883 0.37891 0.97345 0.0
H2289 H 0.49328 0.28542 0.92634 0.0
H2290 H 0.48489 0.31001 0.94931 0.0
H2291 H 0.48799 0.36753 0.92625 0.0
H2292 H 0.51575 0.42073 0.01922 0.0
H2293 H 0.51231 0.38944 0.00358 0.0
C2294 C 0.93533 0.2636 0.17165 0.0
C2295 C 0.95068 0.25858 0.18296 0.0
C2296 C 0.91677 0.25714 0.17603 0.0
C2297 C 0.8925 0.21726 0.20115 0.0
H2298 H 0.84714 0.24444 0.19264 0.0
C2299 C 0.82 0.19831 0.23406 0.0
C2300 C 0.80348 0.20152 0.22368 0.0
C2301 C 0.83784 0.20214 0.22618 0.0
C2302 C 0.85968 0.23654 0.1947 0.0
H2303 H 0.95852 0.24468 0.20881 0.0
H2304 H 0.92613 0.23412 0.21691 0.0
H2305 H 0.87828 0.26014 0.18673 0.0
H2306 H 0.79243 0.20997 0.19656 0.0
H2307 H 0.82383 0.21684 0.18268 0.0
H2308 H 0.87388 0.19389 0.20971 0.0
C2309 C 0.92844 0.24235 0.20422 0.0
C2310 C 0.87752 0.24558 0.19143 0.0
C2311 C 0.94698 0.24863 0.19974 0.0
C2312 C 0.80501 0.20709 0.2047 0.0
C2313 C 0.82293 0.21127 0.19689 0.0
C2314 C 0.87469 0.20829 0.20452 0.0
C2315 C 0.91324 0.2457 0.19192 0.0
C2316 C 0.89416 0.23615 0.19494 0.0
C2317 C 0.83947 0.2096 0.20788 0.0
C2318 C 0.85811 0.21792 0.20159 0.0
H2319 H 0.93776 0.27114 0.15855 0.0
H2320 H 0.90541 0.26004 0.16627 0.0
H2321 H 0.90499 0.20936 0.20346 0.0
H2322 H 0.8191 0.19425 0.24881 0.0
H2323 H 0.85031 0.2008 0.23504 0.0
C2324 C 0.05514 0.7155 0.41841 0.0
C2325 C 0.04027 0.72527 0.4105 0.0
C2326 C 0.05133 0.70107 0.43135 0.0
C2327 C 0.0126 0.66703 0.445 0.0
H2328 H 0.04674 0.65641 0.48646 0.0
C2329 C 0.99533 0.60455 0.49279 0.0
C2330 C 0.00984 0.59192 0.49486 0.0
C2331 C -0.00064 0.62276 0.48604 0.0
C2332 C 0.03713 0.65922 0.47491 0.0
H2333 H 0.00986 0.7282 0.4106 0.0
H2334 H 0.0032 0.70323 0.43353 0.0
H2335 H 0.05272 0.68515 0.46793 0.0
H2336 H 0.04015 0.58888 0.49284 0.0
H2337 H 0.04722 0.62087 0.48065 0.0
H2338 H -0.00285 0.64111 0.45174 0.0
C2339 C 0.01777 0.70643 0.42938 0.0
C2340 C 0.04054 0.67563 0.46428 0.0
C2341 C 0.02158 0.72077 0.41629 0.0
C2342 C 0.0287 0.59833 0.49132 0.0
C2343 C 0.03274 0.61662 0.4844 0.0
C2344 C 0.00915 0.65077 0.45565 0.0
C2345 C 0.03258 0.69617 0.43679 0.0
C2346 C 0.02838 0.67961 0.44909 0.0
C2347 C 0.01796 0.62872 0.48106 0.0
C2348 C 0.02142 0.64662 0.47063 0.0
H2349 H 0.06972 0.71864 0.41423 0.0
H2350 H 0.06303 0.69331 0.43656 0.0
H2351 H 0.0032 0.66937 0.43315 0.0
H2352 H 0.98069 0.60015 0.49578 0.0
H2353 H 0.98776 0.63195 0.48403 0.0
C2354 C 0.57917 0.75594 0.64733 0.0
C2355 C 0.56307 0.76171 0.65692 0.0
C2356 C 0.59737 0.76162 0.65403 0.0
C2357 C 0.63353 0.78492 0.66383 0.0
H2358 H 0.64435 0.78965 0.71784 0.0
C2359 C 0.70672 0.81429 0.69197 0.0
C2360 C 0.71417 0.8048 0.70745 0.0
C2361 C 0.68772 0.81075 0.68647 0.0
C2362 C 0.64162 0.78829 0.70269 0.0
H2363 H 0.55336 0.77784 0.68114 0.0
H2364 H 0.585 0.78822 0.69251 0.0
H2365 H 0.61278 0.77848 0.707 0.0
H2366 H 0.70745 0.78439 0.72949 0.0
H2367 H 0.67472 0.77784 0.71958 0.0
H2368 H 0.66266 0.79375 0.65954 0.0
C2369 C 0.58367 0.77891 0.68008 0.0
C2370 C 0.62341 0.78211 0.69647 0.0
C2371 C 0.5655 0.773 0.67354 0.0
C2372 C 0.70215 0.79207 0.71756 0.0
C2373 C 0.68328 0.78837 0.71194 0.0
C2374 C 0.65181 0.79086 0.67006 0.0
C2375 C 0.59984 0.77344 0.67032 0.0
C2376 C 0.61916 0.78023 0.67696 0.0
C2377 C 0.67587 0.79751 0.69621 0.0
C2378 C 0.65612 0.79248 0.68957 0.0
H2379 H 0.57773 0.74714 0.63453 0.0
H2380 H 0.60948 0.75677 0.6464 0.0
H2381 H 0.63068 0.78401 0.64869 0.0
H2382 H 0.71559 0.82427 0.68398 0.0
H2383 H 0.68237 0.81829 0.67448 0.0
C2384 C 0.603 0.54412 0.71117 0.0
C2385 C 0.60318 0.54902 0.73059 0.0
C2386 C 0.58599 0.53824 0.70196 0.0
C2387 C 0.55255 0.51221 0.69044 0.0
H2388 H 0.50338 0.53166 0.70089 0.0
C2389 C 0.48771 0.47701 0.6536 0.0
C2390 C 0.47581 0.48963 0.64497 0.0
C2391 C 0.5003 0.48344 0.66805 0.0
C2392 C 0.51701 0.52608 0.6978 0.0
H2393 H 0.58553 0.55259 0.75536 0.0
H2394 H 0.55594 0.54182 0.7394 0.0
H2395 H 0.53184 0.5467 0.71615 0.0
H2396 H 0.46643 0.51833 0.64574 0.0
H2397 H 0.4889 0.52981 0.6704 0.0
H2398 H 0.53816 0.49229 0.67141 0.0
C2399 C 0.56886 0.54279 0.73119 0.0
C2400 C 0.53331 0.53462 0.70665 0.0
C2401 C 0.58586 0.54894 0.74035 0.0
C2402 C 0.4754 0.50829 0.65225 0.0
C2403 C 0.48833 0.51486 0.66641 0.0
C2404 C 0.53638 0.50383 0.6815 0.0
C2405 C 0.56882 0.53681 0.71203 0.0
C2406 C 0.55131 0.5279 0.70288 0.0
C2407 C 0.50164 0.50275 0.67374 0.0
C2408 C 0.51838 0.51068 0.68494 0.0
H2409 H 0.61608 0.54426 0.70322 0.0
H2410 H 0.58639 0.53428 0.68703 0.0
H2411 H 0.56609 0.50633 0.68753 0.0
H2412 H 0.48813 0.46249 0.64833 0.0
H2413 H 0.50985 0.47354 0.67387 0.0
C2414 C 0.74971 0.36776 0.9846 0.0
C2415 C 0.75634 0.35568 -0.00152 0.0
C2416 C 0.74756 0.36137 0.9657 0.0
C2417 C 0.76461 0.32455 0.933 0.0
H2418 H 0.72294 0.338 0.90067 0.0
C2419 C 0.72943 0.30145 0.85531 0.0
C2420 C 0.74623 0.30021 0.84487 0.0
C2421 C 0.73007 0.30876 0.87393 0.0
C2422 C 0.73457 0.33399 0.90958 0.0
H2423 H 0.7651 0.32723 0.00369 0.0
H2424 H 0.76091 0.31601 0.97108 0.0
H2425 H 0.72464 0.34946 0.93366 0.0
H2426 H 0.77681 0.30614 0.84564 0.0
H2427 H 0.77786 0.31921 0.87778 0.0
H2428 H 0.77425 0.30858 0.90933 0.0
C2429 C 0.75792 0.33057 0.97453 0.0
C2430 C 0.73567 0.34076 0.9284 0.0
C2431 C 0.76023 0.33699 0.99327 0.0
C2432 C 0.76362 0.30665 0.85335 0.0
C2433 C 0.76423 0.31409 0.87183 0.0
C2434 C 0.76345 0.31771 0.91432 0.0
C2435 C 0.75188 0.34275 0.96044 0.0
C2436 C 0.75068 0.33604 0.94033 0.0
C2437 C 0.74751 0.3151 0.88242 0.0
C2438 C 0.74845 0.32236 0.90235 0.0
H2439 H 0.74658 0.38224 0.98825 0.0
H2440 H 0.74299 0.37114 0.95516 0.0
H2441 H 0.77654 0.32089 0.94169 0.0
H2442 H 0.71581 0.2966 0.84917 0.0
H2443 H 0.71696 0.30913 0.88177 0.0
C2444 C 0.89607 0.52231 0.18464 0.0
C2445 C 0.89634 0.51967 0.20432 0.0
C2446 C 0.91177 0.53106 0.17571 0.0
C2447 C 0.94299 0.55682 0.16022 0.0
H2448 H 0.99296 0.54249 0.17559 0.0
C2449 C 0.00208 0.5677 0.10824 0.0
C2450 C 0.01199 0.55125 0.10539 0.0
C2451 C 0.99256 0.57061 0.12524 0.0
C2452 C 0.97913 0.54668 0.1711 0.0
H2453 H 0.91299 0.5247 0.23022 0.0
H2454 H 0.94016 0.54045 0.21469 0.0
H2455 H 0.96558 0.53326 0.19475 0.0
H2456 H 0.02152 0.52596 0.11848 0.0
H2457 H 0.00407 0.53024 0.14758 0.0
H2458 H 0.95597 0.56855 0.13568 0.0
C2459 C 0.92805 0.53534 0.20606 0.0
C2460 C 0.96341 0.54158 0.18225 0.0
C2461 C 0.91245 0.52634 0.21496 0.0
C2462 C 0.01398 0.5388 0.12044 0.0
C2463 C 0.00395 0.54135 0.1372 0.0
C2464 C 0.95859 0.56158 0.14891 0.0
C2465 C 0.92798 0.53765 0.1863 0.0
C2466 C 0.94504 0.5459 0.17648 0.0
C2467 C 0.9921 0.55666 0.1393 0.0
C2468 C 0.97679 0.55588 0.15376 0.0
H2469 H 0.8839 0.51724 0.17607 0.0
H2470 H 0.91134 0.53218 0.1604 0.0
H2471 H 0.92914 0.56093 0.15568 0.0
H2472 H 0.00058 0.5776 0.09682 0.0
H2473 H 0.98428 0.58299 0.12665 0.0
C2474 C 0.69708 0.66226 0.46289 0.0
C2475 C 0.70956 0.64861 0.46861 0.0
C2476 C 0.69988 0.67174 0.44587 0.0
C2477 C 0.73678 0.68497 0.41115 0.0
H2478 H 0.69354 0.69632 0.37987 0.0
C2479 C 0.74392 0.73569 0.34785 0.0
C2480 C 0.73402 0.72975 0.33115 0.0
C2481 C 0.74055 0.72616 0.36483 0.0
C2482 C 0.70578 0.69317 0.38838 0.0
H2483 H 0.73457 0.63392 0.46079 0.0
H2484 H 0.73931 0.65035 0.43079 0.0
H2485 H 0.68857 0.67761 0.40826 0.0
H2486 H 0.71249 0.70938 0.31933 0.0
H2487 H 0.70684 0.69274 0.34876 0.0
H2488 H 0.75403 0.70017 0.39096 0.0
C2489 C 0.72752 0.65389 0.43967 0.0
C2490 C 0.70292 0.6826 0.40475 0.0
C2491 C 0.72473 0.64438 0.45677 0.0
C2492 C 0.72036 0.71439 0.33192 0.0
C2493 C 0.71704 0.70488 0.34884 0.0
C2494 C 0.73966 0.69553 0.39472 0.0
C2495 C 0.71519 0.66777 0.43412 0.0
C2496 C 0.71837 0.67842 0.41635 0.0
C2497 C 0.72722 0.7105 0.36544 0.0
C2498 C 0.72418 0.69975 0.38316 0.0
H2499 H 0.68529 0.66591 0.47172 0.0
H2500 H 0.69027 0.68253 0.44216 0.0
H2501 H 0.74896 0.68218 0.4199 0.0
H2502 H 0.75451 0.74749 0.34776 0.0
H2503 H 0.74843 0.731 0.37747 0.0
C2504 C 0.6151 0.56264 0.8359 0.0
C2505 C 0.62688 0.55 0.82674 0.0
C2506 C 0.60576 0.55751 0.85253 0.0
C2507 C 0.60571 0.52628 0.89315 0.0
H2508 H 0.55177 0.53441 0.89388 0.0
C2509 C 0.53585 0.50849 0.9427 0.0
C2510 C 0.54283 0.51554 0.96039 0.0
C2511 C 0.54657 0.51132 0.92629 0.0
C2512 C 0.56677 0.5319 0.89382 0.0
H2513 H 0.63878 0.52239 0.82831 0.0
H2514 H 0.62251 0.51351 0.85775 0.0
H2515 H 0.57019 0.5422 0.86561 0.0
H2516 H 0.56671 0.53076 0.97478 0.0
H2517 H 0.58537 0.53562 0.94614 0.0
H2518 H 0.60228 0.51622 0.92153 0.0
C2519 C 0.6205 0.52734 0.85187 0.0
C2520 C 0.57734 0.53652 0.87774 0.0
C2521 C 0.62977 0.53242 0.83504 0.0
C2522 C 0.56086 0.52524 0.96136 0.0
C2523 C 0.57164 0.52788 0.945 0.0
C2524 C 0.59516 0.52185 0.90937 0.0
C2525 C 0.60808 0.53969 0.86048 0.0
C2526 C 0.59692 0.53392 0.87731 0.0
C2527 C 0.56456 0.52105 0.9273 0.0
C2528 C 0.57562 0.52475 0.90987 0.0
H2529 H 0.61263 0.57633 0.82994 0.0
H2530 H 0.5965 0.56741 0.85909 0.0
H2531 H 0.6208 0.52418 0.89317 0.0
H2532 H 0.52205 0.50092 0.94148 0.0
H2533 H 0.54084 0.50582 0.91281 0.0
C2534 C 0.723 0.32803 0.08596 0.0
C2535 C 0.73186 0.34388 0.09559 0.0
C2536 C 0.71365 0.31345 0.09603 0.0
C2537 C 0.69707 0.30062 0.14472 0.0
H2538 H 0.7072 0.24963 0.12767 0.0
C2539 C 0.6921 0.24198 0.19807 0.0
C2540 C 0.70843 0.23154 0.19828 0.0
C2541 C 0.68731 0.25189 0.18191 0.0
C2542 C 0.7042 0.26375 0.13266 0.0
H2543 H 0.73758 0.35715 0.12323 0.0
H2544 H 0.72217 0.33138 0.14091 0.0
H2545 H 0.71449 0.27619 0.10708 0.0
H2546 H 0.73134 0.22154 0.18117 0.0
H2547 H 0.72371 0.2394 0.15351 0.0
H2548 H 0.68869 0.28858 0.17102 0.0
C2549 C 0.72178 0.33038 0.12555 0.0
C2550 C 0.70814 0.27904 0.1207 0.0
C2551 C 0.73083 0.34511 0.11544 0.0
C2552 C 0.71871 0.22955 0.18147 0.0
C2553 C 0.7142 0.23979 0.16547 0.0
C2554 C 0.69352 0.28542 0.15682 0.0
C2555 C 0.71324 0.31425 0.11599 0.0
C2556 C 0.70544 0.29777 0.12695 0.0
C2557 C 0.69907 0.25195 0.16586 0.0
C2558 C 0.69791 0.26689 0.1513 0.0
H2559 H 0.72333 0.32686 0.0706 0.0
H2560 H 0.70694 0.30146 0.08816 0.0
H2561 H 0.69417 0.31476 0.14976 0.0
H2562 H 0.68368 0.24343 0.21076 0.0
H2563 H 0.67513 0.26052 0.1825 0.0
C2564 C 0.87308 0.50957 0.31112 0.0
C2565 C 0.87783 0.49406 0.29966 0.0
C2566 C 0.88115 0.51232 0.32929 0.0
C2567 C 0.92347 0.49971 0.35615 0.0
H2568 H 0.89649 0.51693 0.4004 0.0
C2569 C 0.95529 0.49823 0.43129 0.0
C2570 C 0.95366 0.51448 0.4429 0.0
C2571 C 0.94541 0.49625 0.41404 0.0
C2572 C 0.90421 0.51228 0.38809 0.0
H2573 H 0.89362 0.46858 0.29859 0.0
H2574 H 0.90723 0.47309 0.33024 0.0
H2575 H 0.87963 0.51228 0.36996 0.0
H2576 H 0.94021 0.54132 0.4456 0.0
H2577 H 0.923 0.53781 0.41542 0.0
H2578 H 0.94797 0.49953 0.3742 0.0
C2579 C 0.89783 0.48349 0.32509 0.0
C2580 C 0.89458 0.50964 0.3707 0.0
C2581 C 0.88993 0.48085 0.30699 0.0
C2582 C 0.94183 0.52865 0.43696 0.0
C2583 C 0.93186 0.5266 0.41975 0.0
C2584 C 0.93303 0.50225 0.37348 0.0
C2585 C 0.89398 0.49952 0.33623 0.0
C2586 C 0.90408 0.5031 0.35461 0.0
C2587 C 0.93363 0.51043 0.40811 0.0
C2588 C 0.92347 0.50838 0.38965 0.0
H2589 H 0.86378 0.51997 0.30579 0.0
H2590 H 0.87795 0.52483 0.33756 0.0
H2591 H 0.93132 0.49514 0.3439 0.0
H2592 H 0.96423 0.48703 0.43547 0.0
H2593 H 0.94687 0.48353 0.40541 0.0
C2594 C 0.72594 0.67742 0.56314 0.0
C2595 C 0.73217 0.65898 0.56504 0.0
C2596 C 0.73515 0.69278 0.573 0.0
C2597 C 0.76771 0.70421 0.61368 0.0
H2598 H 0.77465 0.75319 0.58965 0.0
C2599 C 0.80636 0.76517 0.65382 0.0
C2600 C 0.79476 0.78053 0.65645 0.0
C2601 C 0.80249 0.75192 0.63911 0.0
C2602 C 0.77288 0.73955 0.59644 0.0
H2603 H 0.75285 0.64218 0.57892 0.0
H2604 H 0.76906 0.6689 0.59575 0.0
H2605 H 0.75912 0.72618 0.57201 0.0
H2606 H 0.77177 0.7955 0.64413 0.0
H2607 H 0.76501 0.77229 0.61852 0.0
H2608 H 0.7813 0.7175 0.63811 0.0
C2609 C 0.75685 0.67152 0.58696 0.0
C2610 C 0.76385 0.72414 0.58645 0.0
C2611 C 0.74754 0.65617 0.57729 0.0
C2612 C 0.78083 0.7837 0.64264 0.0
C2613 C 0.77697 0.77042 0.62791 0.0
C2614 C 0.77688 0.7195 0.62354 0.0
C2615 C 0.75087 0.69004 0.58484 0.0
C2616 C 0.76097 0.70634 0.59506 0.0
C2617 C 0.78702 0.75384 0.62675 0.0
C2618 C 0.7794 0.73736 0.61512 0.0
H2619 H 0.71413 0.68004 0.55381 0.0
H2620 H 0.72994 0.7068 0.57134 0.0
H2621 H 0.76542 0.69085 0.62091 0.0
H2622 H 0.81746 0.7625 0.66398 0.0
H2623 H 0.81073 0.73945 0.63823 0.0
C2624 C 0.64869 0.58367 0.5236 0.0
C2625 C 0.66566 0.57925 0.53261 0.0
C2626 C 0.63221 0.57193 0.52556 0.0
C2627 C 0.60173 0.5397 0.52462 0.0
H2628 H 0.58831 0.52509 0.57583 0.0
C2629 C 0.52531 0.51871 0.5461 0.0
C2630 C 0.52208 0.50406 0.55915 0.0
C2631 C 0.54376 0.52526 0.54174 0.0
C2632 C 0.592 0.52873 0.56139 0.0
H2633 H 0.67877 0.55878 0.5504 0.0
H2634 H 0.64992 0.53831 0.55382 0.0
H2635 H 0.61917 0.54128 0.57002 0.0
H2636 H 0.53573 0.48453 0.57757 0.0
H2637 H 0.56804 0.49599 0.56985 0.0
H2638 H 0.5744 0.52752 0.51606 0.0
C2639 C 0.64938 0.55094 0.54536 0.0
C2640 C 0.60967 0.53801 0.55807 0.0
C2641 C 0.6659 0.56265 0.54335 0.0
C2642 C 0.53773 0.49591 0.56753 0.0
C2643 C 0.55623 0.50249 0.56316 0.0
C2644 C 0.58409 0.53038 0.52793 0.0
C2645 C 0.63236 0.55556 0.53661 0.0
C2646 C 0.61453 0.54394 0.53972 0.0
C2647 C 0.55941 0.51731 0.55029 0.0
C2648 C 0.57889 0.52518 0.54642 0.0
H2649 H 0.64803 0.59633 0.51519 0.0
H2650 H 0.61922 0.57597 0.51885 0.0
H2651 H 0.60526 0.54383 0.51028 0.0
H2652 H 0.51359 0.52532 0.53937 0.0
H2653 H 0.54575 0.53691 0.53201 0.0
C2654 C 0.19911 0.95663 0.53354 0.0
C2655 C 0.21229 0.95686 0.5486 0.0
C2656 C 0.1846 0.96925 0.53366 0.0
C2657 C 0.15626 0.99331 0.56836 0.0
H2658 H 0.13135 0.01051 0.52311 0.0
C2659 C 0.07943 0.0203 0.5405 0.0
C2660 C 0.06789 0.00526 0.54788 0.0
C2661 C 0.09913 0.02092 0.54307 0.0
C2662 C 0.1383 0.00624 0.53598 0.0
H2663 H 0.22161 0.97149 0.57479 0.0
H2664 H 0.19632 0.99357 0.5749 0.0
H2665 H 0.16371 0.00031 0.52114 0.0
H2666 H 0.06775 0.98 0.56501 0.0
H2667 H 0.10197 0.98108 0.56947 0.0
H2668 H 0.13058 -0.00152 0.58301 0.0
C2669 C 0.19701 0.98344 0.56319 0.0
C2670 C 0.15675 0.00021 0.5348 0.0
C2671 C 0.21148 0.97079 0.5631 0.0
C2672 C 0.07627 0.99167 0.559 0.0
C2673 C 0.09589 0.9924 0.56171 0.0
C2674 C 0.13784 -0.00066 0.56953 0.0
C2675 C 0.18304 0.98237 0.54881 0.0
C2676 C 0.16558 0.99289 0.5508 0.0
C2677 C 0.10756 0.00667 0.55327 0.0
C2678 C 0.12838 0.00503 0.55318 0.0
H2679 H 0.19941 0.94612 0.52213 0.0
H2680 H 0.17395 0.9679 0.52246 0.0
H2681 H 0.16262 0.98768 0.58095 0.0
H2682 H 0.07336 0.03102 0.53191 0.0
H2683 H 0.10781 0.03214 0.53653 0.0
C2684 C 0.31343 0.93165 0.73217 0.0
C2685 C 0.309 0.95073 0.73418 0.0
C2686 C 0.29927 0.9171 0.73385 0.0
C2687 C 0.25785 0.90409 0.75941 0.0
H2688 H 0.25002 0.86353 0.72157 0.0
C2689 C 0.24412 0.8251 0.77367 0.0
C2690 C 0.23206 0.81399 0.76134 0.0
C2691 C 0.24666 0.84468 0.77129 0.0
C2692 C 0.25167 0.87494 0.73212 0.0
H2693 H 0.28635 0.96962 0.73943 0.0
H2694 H 0.26165 0.94395 0.74308 0.0
H2695 H 0.26895 0.89248 0.71376 0.0
H2696 H 0.212 0.81468 0.73788 0.0
H2697 H 0.21694 0.84898 0.73336 0.0
H2698 H 0.24189 0.88584 0.77829 0.0
C2699 C 0.27602 0.94042 0.73983 0.0
C2700 C 0.2626 0.89138 0.72768 0.0
C2701 C 0.29011 0.95501 0.73769 0.0
C2702 C 0.22133 0.82296 0.74763 0.0
C2703 C 0.22418 0.84253 0.74499 0.0
C2704 C 0.24721 0.88746 0.76399 0.0
C2705 C 0.28054 0.92138 0.73797 0.0
C2706 C 0.26621 0.9058 0.74146 0.0
C2707 C 0.23745 0.85338 0.75632 0.0
C2708 C 0.24451 0.87253 0.75053 0.0
H2709 H 0.32787 0.92798 0.72944 0.0
H2710 H 0.30305 0.90246 0.73254 0.0
H2711 H 0.26059 0.91506 0.77027 0.0
H2712 H 0.25248 0.8185 0.78439 0.0
H2713 H 0.25708 0.85272 0.78012 0.0
C2714 C 0.30599 0.08481 -0.00103 0.0
C2715 C 0.29573 0.07512 0.01321 0.0
C2716 C 0.32473 0.08059 0.99513 0.0
C2717 C 0.36059 0.04514 0.00398 0.0
H2718 H 0.39676 0.08865 0.00046 0.0
C2719 C 0.44019 0.03806 0.01572 0.0
C2720 C 0.45235 0.04604 0.0019 0.0
C2721 C 0.42117 0.04244 0.01633 0.0
C2722 C 0.3868 0.07637 0.00126 0.0
H2723 H 0.29665 0.0527 0.03382 0.0
H2724 H 0.32917 0.0455 0.02728 0.0
H2725 H 0.36277 0.09351 0.00116 0.0
H2726 H 0.45432 0.06583 0.97865 0.0
H2727 H 0.42107 0.07358 0.97989 0.0
H2728 H 0.38463 0.02807 0.00454 0.0
C2729 C 0.32283 0.05624 0.01894 0.0
C2730 C 0.36734 0.07912 0.00154 0.0
C2731 C 0.30416 0.06044 0.02276 0.0
C2732 C 0.44533 0.05938 0.98945 0.0
C2733 C 0.42629 0.06385 0.99015 0.0
C2734 C 0.38001 0.04242 0.00382 0.0
C2735 C 0.3335 0.06659 0.00544 0.0
C2736 C 0.35402 0.06354 0.00317 0.0
C2737 C 0.41392 0.05498 0.00324 0.0
C2738 C 0.39332 0.05802 0.00274 0.0
H2739 H 0.29987 0.09618 0.99134 0.0
H2740 H 0.33248 0.08859 0.98442 0.0
H2741 H 0.35071 0.03282 0.00489 0.0
H2742 H 0.44511 0.02782 0.02561 0.0
H2743 H 0.41202 0.03569 0.02683 0.0
C2744 C 0.71024 0.59537 0.74848 0.0
C2745 C 0.69516 0.59583 0.76138 0.0
C2746 C 0.72368 0.61072 0.74747 0.0
C2747 C 0.74005 0.65056 0.73903 0.0
H2748 H 0.75646 0.68044 0.78372 0.0
C2749 C 0.78237 0.72276 0.73305 0.0
C2750 C 0.77434 0.73751 0.74339 0.0
C2751 C 0.77687 0.70376 0.73657 0.0
C2752 C 0.75204 0.6722 0.77112 0.0
H2753 H 0.68272 0.61255 0.78375 0.0
H2754 H 0.70592 0.63935 0.78179 0.0
H2755 H 0.73901 0.64976 0.78744 0.0
H2756 H 0.75505 0.74383 0.7662 0.0
H2757 H 0.7455 0.71083 0.77226 0.0
H2758 H 0.75254 0.67326 0.72272 0.0
C2759 C 0.70754 0.62705 0.77261 0.0
C2760 C 0.74203 0.65467 0.77324 0.0
C2761 C 0.69412 0.61173 0.77361 0.0
C2762 C 0.76143 0.73283 0.7579 0.0
C2763 C 0.75606 0.71389 0.76149 0.0
C2764 C 0.75011 0.66807 0.73692 0.0
C2765 C 0.72234 0.62683 0.75938 0.0
C2766 C 0.73542 0.64394 0.75722 0.0
C2767 C 0.76342 0.69916 0.75061 0.0
C2768 C 0.7557 0.67932 0.75293 0.0
H2769 H 0.71152 0.58327 0.73893 0.0
H2770 H 0.73502 0.61007 0.73726 0.0
H2771 H 0.73501 0.64273 0.7264 0.0
H2772 H 0.79239 0.72589 0.72181 0.0
H2773 H 0.78287 0.69267 0.72806 0.0
C2774 C 0.8233 0.41908 0.07914 0.0
C2775 C 0.81743 0.40243 0.06882 0.0
C2776 C 0.84209 0.42646 0.07831 0.0
C2777 C 0.88312 0.42672 0.04665 0.0
H2778 H 0.90914 0.45287 0.08928 0.0
C2779 C 0.95833 0.46313 0.04036 0.0
C2780 C 0.96069 0.48161 0.04829 0.0
C2781 C 0.94198 0.45163 0.04401 0.0
C2782 C 0.90201 0.44566 0.07724 0.0
H2783 H 0.82693 0.37994 0.05035 0.0
H2784 H 0.85978 0.39273 0.04915 0.0
H2785 H 0.87868 0.43539 0.0942 0.0
H2786 H 0.94779 0.5024 0.06647 0.0
H2787 H 0.91928 0.48237 0.07268 0.0
H2788 H 0.90629 0.43724 0.02965 0.0
C2789 C 0.84975 0.40025 0.05756 0.0
C2790 C 0.88458 0.43566 0.08006 0.0
C2791 C 0.83095 0.39289 0.05835 0.0
C2792 C 0.94643 0.48825 0.06009 0.0
C2793 C 0.93015 0.47672 0.0638 0.0
C2794 C 0.90057 0.43666 0.04386 0.0
C2795 C 0.85543 0.41734 0.06722 0.0
C2796 C 0.87479 0.42635 0.06472 0.0
C2797 C 0.92772 0.45833 0.05574 0.0
C2798 C 0.91002 0.4465 0.05906 0.0
H2799 H 0.81327 0.42679 0.08735 0.0
H2800 H 0.84593 0.43977 0.08575 0.0
H2801 H 0.87582 0.41996 0.03448 0.0
H2802 H 0.96906 0.45754 0.03127 0.0
H2803 H 0.94054 0.43745 0.03772 0.0
C2804 C 0.31878 0.06295 0.75813 0.0
C2805 C 0.31352 0.05221 0.74169 0.0
C2806 C 0.31064 0.08022 0.76193 0.0
C2807 C 0.27035 0.10887 0.74854 0.0
H2808 H 0.30525 0.1518 0.76192 0.0
C2809 C 0.27549 0.19575 0.74547 0.0
C2810 C 0.25819 0.2001 0.75378 0.0
C2811 C 0.28117 0.17715 0.74518 0.0
C2812 C 0.29534 0.13995 0.75811 0.0
H2813 H 0.29519 0.05079 0.7167 0.0
H2814 H 0.28126 0.08085 0.7232 0.0
H2815 H 0.31683 0.11994 0.76025 0.0
H2816 H 0.23299 0.18817 0.76776 0.0
H2817 H 0.243 0.15564 0.76727 0.0
H2818 H 0.24903 0.129 0.74569 0.0
C2819 C 0.29147 0.07592 0.73328 0.0
C2820 C 0.30191 0.12168 0.75743 0.0
C2821 C 0.2996 0.05875 0.72947 0.0
C2822 C 0.24639 0.1853 0.7612 0.0
C2823 C 0.2521 0.16665 0.76092 0.0
C2824 C 0.26378 0.12716 0.74922 0.0
C2825 C 0.29706 0.08697 0.7494 0.0
C2826 C 0.28957 0.10599 0.7523 0.0
C2827 C 0.2697 0.16247 0.75321 0.0
C2828 C 0.27629 0.14292 0.75366 0.0
H2829 H 0.32942 0.05821 0.76785 0.0
H2830 H 0.3151 0.08838 0.77457 0.0
H2831 H 0.26046 0.09701 0.74475 0.0
H2832 H 0.28487 0.20678 0.73951 0.0
H2833 H 0.29462 0.17428 0.73874 0.0
C2834 C 0.17284 0.95348 0.27775 0.0
C2835 C 0.18097 0.9654 0.26385 0.0
C2836 C 0.17622 0.9341 0.2777 0.0
C2837 C 0.20997 0.90013 0.25983 0.0
H2838 H 0.16882 0.862 0.26722 0.0
C2839 C 0.22126 0.82156 0.24619 0.0
C2840 C 0.21493 0.80897 0.26034 0.0
C2841 C 0.21528 0.84006 0.24596 0.0
C2842 C 0.18046 0.8725 0.26527 0.0
H2843 H 0.19904 0.96634 0.23905 0.0
H2844 H 0.20484 0.93273 0.23895 0.0
H2845 H 0.16256 0.89578 0.26915 0.0
H2846 H 0.19637 0.80557 0.28462 0.0
H2847 H 0.18606 0.838 0.28429 0.0
H2848 H 0.22791 0.87705 0.25601 0.0
C2849 C 0.19603 0.93832 0.25001 0.0
C2850 C 0.1769 0.89182 0.26643 0.0
C2851 C 0.19263 0.9576 0.25002 0.0
C2852 C 0.20153 0.81492 0.27353 0.0
C2853 C 0.1956 0.83351 0.27333 0.0
C2854 C 0.21352 0.8809 0.25867 0.0
C2855 C 0.18786 0.92633 0.26381 0.0
C2856 C 0.19161 0.90583 0.26354 0.0
C2857 C 0.2029 0.84645 0.25991 0.0
C2858 C 0.1988 0.86685 0.26119 0.0
H2859 H 0.16374 0.95907 0.28856 0.0
H2860 H 0.16986 0.92524 0.28862 0.0
H2861 H 0.22169 0.91057 0.25792 0.0
H2862 H 0.23139 0.81737 0.23566 0.0
H2863 H 0.22079 0.84956 0.23513 0.0
C2864 C 0.50067 0.29065 0.48404 0.0
C2865 C 0.5078 0.29895 0.46743 0.0
C2866 C 0.5021 0.30067 0.50133 0.0
C2867 C 0.51919 0.34774 0.52367 0.0
H2868 H 0.46994 0.34252 0.54768 0.0
C2869 C 0.46235 0.39962 0.55493 0.0
C2870 C 0.47398 0.41265 0.56578 0.0
C2871 C 0.4691 0.3824 0.54882 0.0
C2872 C 0.48383 0.34412 0.54124 0.0
H2873 H 0.52319 0.32346 0.45583 0.0
H2874 H 0.52464 0.34159 0.48565 0.0
H2875 H 0.47898 0.31831 0.52538 0.0
H2876 H 0.5015 0.41731 0.57972 0.0
H2877 H 0.51331 0.38702 0.56905 0.0
H2878 H 0.52305 0.37463 0.53828 0.0
C2879 C 0.51854 0.32713 0.48572 0.0
C2880 C 0.48921 0.33003 0.52858 0.0
C2881 C 0.51762 0.31682 0.46853 0.0
C2882 C 0.49221 0.40761 0.57129 0.0
C2883 C 0.49901 0.39031 0.56512 0.0
C2884 C 0.51365 0.36201 0.53615 0.0
C2885 C 0.51001 0.3195 0.50218 0.0
C2886 C 0.5066 0.33206 0.51892 0.0
C2887 C 0.48767 0.37772 0.55345 0.0
C2888 C 0.4955 0.36076 0.54432 0.0
H2889 H 0.4933 0.27669 0.4835 0.0
H2890 H 0.496 0.29403 0.51378 0.0
H2891 H 0.53291 0.34955 0.51694 0.0
H2892 H 0.4482 0.40299 0.55051 0.0
H2893 H 0.46006 0.37321 0.5396 0.0
C2894 C 0.43415 0.7917 0.17927 0.0
C2895 C 0.44294 0.77474 0.18289 0.0
C2896 C 0.42047 0.79819 0.19171 0.0
C2897 C 0.40221 0.79284 0.24056 0.0
H2898 H 0.35352 0.80262 0.21811 0.0
C2899 C 0.3313 0.77646 0.27687 0.0
C2900 C 0.31528 0.78582 0.27108 0.0
C2901 C 0.34913 0.78155 0.2694 0.0
C2902 C 0.36712 0.8005 0.22473 0.0
H2903 H 0.44453 0.7515 0.2025 0.0
H2904 H 0.42074 0.76275 0.22401 0.0
H2905 H 0.38074 0.79914 0.19776 0.0
H2906 H 0.30573 0.80946 0.25502 0.0
H2907 H 0.33693 0.81868 0.24244 0.0
H2908 H 0.38841 0.79349 0.26751 0.0
C2909 C 0.4245 0.77114 0.21172 0.0
C2910 C 0.38273 0.79844 0.21299 0.0
C2911 C 0.43797 0.76457 0.19925 0.0
C2912 C 0.31779 0.80176 0.25947 0.0
C2913 C 0.33564 0.80697 0.25217 0.0
C2914 C 0.38662 0.79503 0.25233 0.0
C2915 C 0.41556 0.78796 0.20808 0.0
C2916 C 0.40022 0.79385 0.22073 0.0
C2917 C 0.35128 0.79623 0.25617 0.0
C2918 C 0.36871 0.79815 0.24448 0.0
H2919 H 0.43776 0.79988 0.16682 0.0
H2920 H 0.41375 0.81121 0.18857 0.0
H2921 H 0.41566 0.78963 0.24691 0.0
H2922 H 0.32984 0.76414 0.28583 0.0
H2923 H 0.36082 0.7729 0.27278 0.0
C2924 C 0.96382 0.69184 0.92772 0.0
C2925 C 0.97367 0.70326 0.94157 0.0
C2926 C 0.95413 0.67483 0.93289 0.0
C2927 C 0.96018 0.63542 0.94777 0.0
H2928 H 0.9346 0.62385 0.995 0.0
C2929 C 0.97816 0.56897 0.98623 0.0
C2930 C 0.98116 0.57165 0.00581 0.0
C2931 C 0.9678 0.58171 0.97608 0.0
C2932 C 0.94181 0.62679 0.98178 0.0
H2933 H 0.97922 0.70743 0.9717 0.0
H2934 H 0.96209 0.67805 0.98076 0.0
H2935 H 0.93175 0.65489 0.9808 0.0
H2936 H 0.97514 0.58893 0.03048 0.0
H2937 H 0.95851 0.61218 0.01272 0.0
H2938 H 0.97219 0.60865 0.94958 0.0
C2939 C 0.96188 0.68197 0.96597 0.0
C2940 C 0.9399 0.64447 0.97352 0.0
C2941 C 0.97188 0.69868 0.96078 0.0
C2942 C 0.97301 0.58672 0.01532 0.0
C2943 C 0.96324 0.59988 0.00509 0.0
C2944 C 0.96245 0.61799 0.9562 0.0
C2945 C 0.95387 0.66936 0.95198 0.0
C2946 C 0.94992 0.64926 0.95699 0.0
C2947 C 0.96096 0.59787 0.9852 0.0
C2948 C 0.95418 0.61385 0.97389 0.0
H2949 H 0.96499 0.69516 0.9128 0.0
H2950 H 0.94808 0.6653 0.92186 0.0
H2951 H 0.96823 0.63879 0.93511 0.0
H2952 H 0.98401 0.55711 0.97873 0.0
H2953 H 0.96583 0.57923 0.96096 0.0
C2954 C 0.03407 0.24868 0.68905 0.0
C2955 C 0.03274 0.2619 0.67446 0.0
C2956 C 0.05029 0.2489 0.70059 0.0
C2957 C 0.08959 0.27977 0.71899 0.0
H2958 H 0.117 0.23394 0.72329 0.0
C2959 C 0.16691 0.28201 0.74428 0.0
C2960 C 0.1738 0.26657 0.75399 0.0
C2961 C 0.14835 0.28125 0.7373 0.0
C2962 C 0.10933 0.24677 0.72263 0.0
H2963 H 0.04724 0.28581 0.66065 0.0
H2964 H 0.07547 0.2864 0.68113 0.0
H2965 H 0.08706 0.23293 0.70555 0.0
H2966 H 0.16626 0.2385 0.76472 0.0
H2967 H 0.13349 0.23738 0.75294 0.0
H2968 H 0.11158 0.29365 0.73617 0.0
C2969 C 0.06396 0.27584 0.6835 0.0
C2970 C 0.09225 0.24619 0.71236 0.0
C2971 C 0.04789 0.27543 0.67173 0.0
C2972 C 0.16142 0.2506 0.75721 0.0
C2973 C 0.14268 0.24991 0.75035 0.0
C2974 C 0.10648 0.2803 0.72951 0.0
C2975 C 0.0653 0.26254 0.69797 0.0
C2976 C 0.0825 0.26278 0.71011 0.0
C2977 C 0.13604 0.26512 0.74003 0.0
C2978 C 0.11683 0.26392 0.73105 0.0
H2979 H 0.02265 0.23804 0.69145 0.0
H2980 H 0.05101 0.23854 0.71169 0.0
H2981 H 0.08212 0.29267 0.71769 0.0
H2982 H 0.17603 0.29453 0.74144 0.0
H2983 H 0.14393 0.29309 0.72912 0.0
C2984 C 0.50366 0.71901 0.09025 0.0
C2985 C 0.48952 0.72019 0.10413 0.0
C2986 C 0.50524 0.70228 0.0796 0.0
C2987 C 0.47971 0.65779 0.06398 0.0
H2988 H 0.52929 0.63678 0.06515 0.0
C2989 C 0.48892 0.57893 0.04922 0.0
C2990 C 0.50525 0.5732 0.03993 0.0
C2991 C 0.48716 0.59791 0.05434 0.0
C2992 C 0.51545 0.64259 0.06431 0.0
H2993 H 0.46544 0.70504 0.11711 0.0
H2994 H 0.4681 0.67583 0.09829 0.0
H2995 H 0.52539 0.66841 0.0787 0.0
H2996 H 0.53249 0.58303 0.02852 0.0
H2997 H 0.52927 0.61647 0.03723 0.0
H2998 H 0.46969 0.63205 0.04967 0.0
C2999 C 0.47796 0.68788 0.09575 0.0
C3000 C 0.51322 0.66068 0.07213 0.0
C3001 C 0.47651 0.70455 0.10657 0.0
C3002 C 0.51977 0.58699 0.03573 0.0
C3003 C 0.51794 0.60611 0.04077 0.0
C3004 C 0.48198 0.63981 0.05597 0.0
C3005 C 0.49257 0.68649 0.08244 0.0
C3006 C 0.49524 0.66824 0.07241 0.0
C3007 C 0.50161 0.61176 0.05018 0.0
C3008 C 0.49977 0.63179 0.05648 0.0
H3009 H 0.51391 0.73081 0.08798 0.0
H3010 H 0.51652 0.7016 0.06931 0.0
H3011 H 0.46577 0.66345 0.06379 0.0
H3012 H 0.4775 0.5687 0.05284 0.0
H3013 H 0.47461 0.60162 0.06198 0.0
C3014 C 0.05433 0.73533 0.86445 0.0
C3015 C 0.05298 0.7307 0.88372 0.0
C3016 C 0.06963 0.72995 0.85371 0.0
C3017 C 0.11927 0.71989 0.85842 0.0
H3018 H 0.113 0.70647 0.80492 0.0
C3019 C 0.18287 0.71557 0.80768 0.0
C3020 C 0.18106 0.7262 0.79113 0.0
C3021 C 0.16722 0.7117 0.81929 0.0
C3022 C 0.11495 0.71013 0.81985 0.0
H3023 H 0.06641 0.71633 0.90674 0.0
H3024 H 0.09345 0.70697 0.88783 0.0
H3025 H 0.08516 0.7068 0.82523 0.0
H3026 H 0.1613 0.74068 0.77355 0.0
H3027 H 0.13403 0.73396 0.79382 0.0
H3028 H 0.14902 0.72384 0.85287 0.0
C3029 C 0.08257 0.71484 0.88115 0.0
C3030 C 0.09906 0.71031 0.83147 0.0
C3031 C 0.06711 0.72016 0.89194 0.0
C3032 C 0.16319 0.73252 0.78622 0.0
C3033 C 0.14754 0.72852 0.79774 0.0
C3034 C 0.13519 0.71962 0.8468 0.0
C3035 C 0.084 0.71981 0.86195 0.0
C3036 C 0.10099 0.71589 0.8507 0.0
C3037 C 0.14944 0.71822 0.81446 0.0
C3038 C 0.13308 0.7154 0.82729 0.0
H3039 H 0.04366 0.74337 0.85762 0.0
H3040 H 0.07049 0.73432 0.83907 0.0
H3041 H 0.12118 0.72438 0.87315 0.0
H3042 H 0.19645 0.71045 0.81186 0.0
H3043 H 0.16902 0.70368 0.83207 0.0
C3044 C 0.99194 0.3174 0.58303 0.0
C3045 C 0.9824 0.3126 0.59986 0.0
C3046 C 0.98764 0.33364 0.57321 0.0
C3047 C 0.96928 0.3804 0.58078 0.0
H3048 H 0.96466 0.38041 0.52584 0.0
C3049 C 0.95699 0.44945 0.54226 0.0
C3050 C 0.96822 0.45299 0.52618 0.0
C3051 C 0.95536 0.43132 0.54994 0.0
C3052 C 0.96603 0.38067 0.54118 0.0
H3053 H 0.96072 0.32092 0.6195 0.0
H3054 H 0.95337 0.34944 0.60242 0.0
H3055 H 0.96869 0.35056 0.54204 0.0
H3056 H 0.98577 0.44009 0.50497 0.0
H3057 H 0.98336 0.4086 0.51863 0.0
H3058 H 0.96741 0.41048 0.58004 0.0
C3059 C 0.96417 0.34062 0.59686 0.0
C3060 C 0.9683 0.36358 0.55043 0.0
C3061 C 0.96836 0.32428 0.6066 0.0
C3062 C 0.97696 0.4378 0.51735 0.0
C3063 C 0.97552 0.4197 0.52516 0.0
C3064 C 0.96718 0.39749 0.57155 0.0
C3065 C 0.97383 0.34549 0.58011 0.0
C3066 C 0.97014 0.36332 0.57031 0.0
C3067 C 0.96512 0.41637 0.54185 0.0
C3068 C 0.96572 0.39789 0.55161 0.0
H3069 H 0.00279 0.30865 0.57745 0.0
H3070 H 0.99545 0.33718 0.56046 0.0
H3071 H 0.97093 0.38067 0.59609 0.0
H3072 H 0.94988 0.46081 0.54927 0.0
H3073 H 0.94685 0.42914 0.56252 0.0
C3074 C 0.45195 0.31246 0.37941 0.0
C3075 C 0.46693 0.30267 0.37167 0.0
C3076 C 0.4372 0.31796 0.36775 0.0
C3077 C 0.42117 0.31955 0.31684 0.0
H3078 H 0.37178 0.30691 0.33857 0.0
C3079 C 0.35479 0.29148 0.27418 0.0
C3080 C 0.33749 0.29938 0.27852 0.0
C3081 C 0.37112 0.29667 0.28488 0.0
C3082 C 0.38545 0.31079 0.33239 0.0
H3083 H 0.47887 0.29215 0.34547 0.0
H3084 H 0.453 0.30096 0.32538 0.0
H3085 H 0.39986 0.30843 0.35888 0.0
H3086 H 0.3238 0.31912 0.29725 0.0
H3087 H 0.35229 0.32773 0.31621 0.0
H3088 H 0.40658 0.32051 0.29004 0.0
C3089 C 0.45267 0.30485 0.34032 0.0
C3090 C 0.40158 0.3118 0.34404 0.0
C3091 C 0.46751 0.29963 0.35191 0.0
C3092 C 0.33692 0.31278 0.29355 0.0
C3093 C 0.35318 0.31772 0.30442 0.0
C3094 C 0.40503 0.3182 0.30513 0.0
C3095 C 0.437 0.31351 0.34816 0.0
C3096 C 0.41972 0.31571 0.33634 0.0
C3097 C 0.37037 0.3096 0.30025 0.0
C3098 C 0.38712 0.31341 0.31277 0.0
H3099 H 0.45124 0.31525 0.39456 0.0
H3100 H 0.42561 0.32505 0.37421 0.0
H3101 H 0.43483 0.32302 0.31049 0.0
H3102 H 0.35568 0.28121 0.26263 0.0
H3103 H 0.3842 0.29007 0.28154 0.0
C3104 C 0.43524 0.47835 0.35224 0.0
C3105 C 0.42497 0.49184 0.34279 0.0
C3106 C 0.43435 0.47692 0.37196 0.0
C3107 C 0.42242 0.50413 0.41516 0.0
H3108 H 0.42522 0.45505 0.43866 0.0
C3109 C 0.42316 0.46899 0.49488 0.0
C3110 C 0.43559 0.48275 0.50393 0.0
C3111 C 0.41934 0.46995 0.47538 0.0
C3112 C 0.42413 0.46884 0.43235 0.0
H3113 H 0.40552 0.51427 0.34653 0.0
H3114 H 0.40365 0.51152 0.38094 0.0
H3115 H 0.42277 0.45678 0.40422 0.0
H3116 H 0.45373 0.50831 0.49954 0.0
H3117 H 0.44743 0.50969 0.4658 0.0
H3118 H 0.42345 0.51617 0.44327 0.0
C3119 C 0.41269 0.50228 0.37317 0.0
C3120 C 0.42301 0.46987 0.41258 0.0
C3121 C 0.41372 0.50383 0.35344 0.0
C3122 C 0.44399 0.4975 0.49311 0.0
C3123 C 0.44025 0.49841 0.47371 0.0
C3124 C 0.42339 0.50309 0.43491 0.0
C3125 C 0.42304 0.48883 0.38268 0.0
C3126 C 0.42255 0.48756 0.40372 0.0
C3127 C 0.42791 0.48466 0.46457 0.0
C3128 C 0.4247 0.48548 0.44373 0.0
H3129 H 0.44411 0.46895 0.34443 0.0
H3130 H 0.44282 0.46667 0.37881 0.0
H3131 H 0.42221 0.51802 0.40887 0.0
H3132 H 0.41642 0.45747 0.50282 0.0
H3133 H 0.40963 0.45923 0.46878 0.0
C3134 C 0.31423 0.6764 0.07628 0.0
C3135 C 0.31084 0.68679 0.05992 0.0
C3136 C 0.31542 0.68553 0.09406 0.0
C3137 C 0.29533 0.72674 0.1165 0.0
H3138 H 0.31961 0.70815 0.16148 0.0
C3139 C 0.2756 0.7508 0.19223 0.0
C3140 C 0.27185 0.7358 0.20478 0.0
C3141 C 0.28417 0.7475 0.17477 0.0
C3142 C 0.3128 0.71351 0.14901 0.0
H3143 H 0.30848 0.71511 0.04897 0.0
H3144 H 0.31112 0.73112 0.07995 0.0
H3145 H 0.33034 0.69836 0.13007 0.0
H3146 H 0.27422 0.70556 0.20886 0.0
H3147 H 0.289 0.69982 0.17834 0.0
H3148 H 0.27744 0.74143 0.1354 0.0
C3149 C 0.31215 0.71585 0.07915 0.0
C3150 C 0.31893 0.70794 0.13105 0.0
C3151 C 0.31073 0.7067 0.0614 0.0
C3152 C 0.27684 0.71742 0.19951 0.0
C3153 C 0.28552 0.71417 0.18213 0.0
C3154 C 0.28931 0.73241 0.13441 0.0
C3155 C 0.31347 0.70524 0.09575 0.0
C3156 C 0.30984 0.714 0.1146 0.0
C3157 C 0.28928 0.72916 0.16961 0.0
C3158 C 0.29757 0.72536 0.15082 0.0
H3159 H 0.31447 0.66104 0.07558 0.0
H3160 H 0.31636 0.67687 0.10652 0.0
H3161 H 0.28775 0.73144 0.10418 0.0
H3162 H 0.27201 0.76515 0.1959 0.0
H3163 H 0.28694 0.7593 0.16537 0.0
C3164 C 0.07379 0.47905 0.82769 0.0
C3165 C 0.06202 0.4862 0.81367 0.0
C3166 C 0.06698 0.47597 0.846 0.0
C3167 C 0.03216 0.49565 0.87754 0.0
H3168 H 0.05069 0.45946 0.91301 0.0
C3169 C 0.02782 0.48116 0.96293 0.0
C3170 C 0.03277 0.49988 0.96935 0.0
C3171 C 0.02921 0.47622 0.94365 0.0
C3172 C 0.04518 0.46946 0.9032 0.0
H3173 H 0.03345 0.49411 0.8073 0.0
H3174 H 0.02146 0.48841 0.83917 0.0
H3175 H 0.0559 0.45492 0.8789 0.0
H3176 H 0.04363 0.52786 0.96062 0.0
H3177 H 0.04601 0.51922 0.92729 0.0
H3178 H 0.02184 0.51042 0.90175 0.0
C3179 C 0.03609 0.48565 0.83617 0.0
C3180 C 0.04827 0.46697 0.88373 0.0
C3181 C 0.04294 0.48889 0.81791 0.0
C3182 C 0.03956 0.51335 0.95621 0.0
C3183 C 0.04081 0.50845 0.93705 0.0
C3184 C 0.02912 0.49813 0.89691 0.0
C3185 C 0.04823 0.47986 0.8506 0.0
C3186 C 0.04226 0.48036 0.87075 0.0
C3187 C 0.03537 0.48996 0.93052 0.0
C3188 C 0.03613 0.48543 0.90996 0.0
H3189 H 0.08855 0.47675 0.82482 0.0
H3190 H 0.07678 0.47167 0.8568 0.0
H3191 H 0.02751 0.50636 0.86803 0.0
H3192 H 0.02259 0.47044 0.97272 0.0
H3193 H 0.025 0.46184 0.93893 0.0
C3194 C 0.18209 0.30929 0.57011 0.0
C3195 C 0.19187 0.30555 0.5533 0.0
C3196 C 0.18556 0.29911 0.58645 0.0
C3197 C 0.2266 0.2776 0.60654 0.0
H3198 H 0.19434 0.27447 0.65077 0.0
C3199 C 0.25259 0.26785 0.68499 0.0
C3200 C 0.24553 0.28141 0.69761 0.0
C3201 C 0.24587 0.2663 0.66619 0.0
C3202 C 0.20348 0.27512 0.63848 0.0
H3203 H 0.2105 0.28616 0.53955 0.0
H3204 H 0.21623 0.26818 0.56799 0.0
H3205 H 0.17997 0.2766 0.61929 0.0
H3206 H 0.22698 0.30486 0.69995 0.0
H3207 H 0.21538 0.30204 0.66742 0.0
H3208 H 0.25013 0.27672 0.62596 0.0
C3209 C 0.20644 0.27943 0.56875 0.0
C3210 C 0.19527 0.27634 0.62049 0.0
C3211 C 0.20304 0.28967 0.55241 0.0
C3212 C 0.23259 0.29411 0.69073 0.0
C3213 C 0.22578 0.2924 0.67214 0.0
C3214 C 0.23479 0.27618 0.62456 0.0
C3215 C 0.19873 0.28488 0.58621 0.0
C3216 C 0.20678 0.27849 0.60439 0.0
C3217 C 0.2319 0.27814 0.65989 0.0
C3218 C 0.22333 0.2758 0.64071 0.0
H3219 H 0.17322 0.32128 0.57124 0.0
H3220 H 0.1793 0.30371 0.59962 0.0
H3221 H 0.23594 0.27944 0.59452 0.0
H3222 H 0.26255 0.25785 0.68984 0.0
H3223 H 0.25094 0.25533 0.65687 0.0
C3224 C 0.47517 0.5048 0.24375 0.0
C3225 C 0.46386 0.51993 0.24857 0.0
C3226 C 0.48305 0.50358 0.22563 0.0
C3227 C 0.46577 0.51381 0.17991 0.0
H3228 H 0.51353 0.49909 0.15909 0.0
C3229 C 0.4764 0.50829 0.09982 0.0
C3230 C 0.48803 0.49458 0.09224 0.0
C3231 C 0.4751 0.5111 0.11937 0.0
C3232 C 0.50002 0.5029 0.16475 0.0
H3233 H 0.45476 0.54723 0.23949 0.0
H3234 H 0.46846 0.54501 0.20797 0.0
H3235 H 0.51134 0.50668 0.19316 0.0
H3236 H 0.50692 0.47256 0.09938 0.0
H3237 H 0.50404 0.47698 0.13376 0.0
H3238 H 0.45402 0.50928 0.15212 0.0
C3239 C 0.47086 0.53393 0.21802 0.0
C3240 C 0.49888 0.50744 0.18417 0.0
C3241 C 0.46305 0.53519 0.23609 0.0
C3242 C 0.49781 0.48322 0.10476 0.0
C3243 C 0.49634 0.48591 0.12445 0.0
C3244 C 0.4668 0.50898 0.16072 0.0
C3245 C 0.47976 0.51752 0.21225 0.0
C3246 C 0.4818 0.51323 0.19178 0.0
C3247 C 0.48514 0.50007 0.13197 0.0
C3248 C 0.48399 0.50376 0.15278 0.0
H3249 H 0.47626 0.4929 0.25312 0.0
H3250 H 0.48997 0.49084 0.22151 0.0
H3251 H 0.45227 0.51766 0.18558 0.0
H3252 H 0.46876 0.51743 0.09066 0.0
H3253 H 0.46663 0.52238 0.12454 0.0
C3254 C 0.30483 0.68291 0.94393 0.0
C3255 C 0.30037 0.69482 0.95923 0.0
C3256 C 0.30893 0.69058 0.92619 0.0
C3257 C 0.29847 0.733 0.89919 0.0
H3258 H 0.32604 0.70723 0.85995 0.0
C3259 C 0.28513 0.71736 0.81742 0.0
C3260 C 0.2822 0.73561 0.81073 0.0
C3261 C 0.29425 0.71516 0.83481 0.0
C3262 C 0.31851 0.71472 0.87084 0.0
H3263 H 0.29839 0.72408 0.96866 0.0
H3264 H 0.30642 0.73759 0.938 0.0
H3265 H 0.32997 0.69852 0.89312 0.0
H3266 H 0.28753 0.76586 0.81636 0.0
H3267 H 0.30308 0.76194 0.84712 0.0
H3268 H 0.28668 0.74882 0.87689 0.0
C3269 C 0.30595 0.72229 0.93934 0.0
C3270 C 0.32062 0.70966 0.8898 0.0
C3271 C 0.30141 0.71458 0.95693 0.0
C3272 C 0.28953 0.75162 0.82122 0.0
C3273 C 0.29842 0.74941 0.83878 0.0
C3274 C 0.29662 0.73823 0.88033 0.0
C3275 C 0.30902 0.71036 0.92355 0.0
C3276 C 0.30999 0.71819 0.90411 0.0
C3277 C 0.30039 0.73116 0.84593 0.0
C3278 C 0.30602 0.72863 0.86592 0.0
H3279 H 0.30414 0.66761 0.94539 0.0
H3280 H 0.31097 0.68088 0.91438 0.0
H3281 H 0.28981 0.73974 0.90966 0.0
H3282 H 0.27982 0.70476 0.80953 0.0
H3283 H 0.2954 0.70093 0.84008 0.0
C3284 C 0.06679 0.47614 0.70573 0.0
C3285 C 0.08592 0.4791 0.71128 0.0
C3286 C 0.06156 0.4768 0.68664 0.0
C3287 C 0.07733 0.50183 0.64468 0.0
H3288 H 0.03364 0.47409 0.62151 0.0
C3289 C 0.04359 0.52106 0.57226 0.0
C3290 C 0.0236 0.5202 0.57177 0.0
C3291 C 0.0533 0.51463 0.58807 0.0
C3292 C 0.04584 0.48199 0.62784 0.0
H3293 H 0.11478 0.4834 0.70109 0.0
H3294 H 0.10558 0.48459 0.66759 0.0
H3295 H 0.04753 0.46245 0.65057 0.0
H3296 H -0.00178 0.51305 0.58802 0.0
H3297 H 0.01513 0.50216 0.61555 0.0
H3298 H 0.07521 0.52173 0.62226 0.0
C3299 C 0.09464 0.48194 0.67809 0.0
C3300 C 0.05384 0.47527 0.64439 0.0
C3301 C 0.0999 0.48109 0.69723 0.0
C3302 C 0.0136 0.51376 0.58782 0.0
C3303 C 0.02328 0.50732 0.60354 0.0
C3304 C 0.06932 0.50856 0.62809 0.0
C3305 C 0.07536 0.48055 0.67271 0.0
C3306 C 0.0693 0.48543 0.65331 0.0
C3307 C 0.04318 0.5072 0.60362 0.0
C3308 C 0.05312 0.49902 0.61986 0.0
H3309 H 0.05571 0.47445 0.71624 0.0
H3310 H 0.04657 0.47577 0.68299 0.0
H3311 H 0.0891 0.51011 0.65135 0.0
H3312 H 0.05174 0.52591 0.56013 0.0
H3313 H 0.06866 0.51477 0.5878 0.0
C3314 C 0.20963 0.34366 0.44325 0.0
C3315 C 0.21468 0.32995 0.45622 0.0
C3316 C 0.20974 0.33959 0.42373 0.0
C3317 C 0.22976 0.30538 0.38949 0.0
H3318 H 0.19754 0.32933 0.35327 0.0
C3319 C 0.22779 0.28482 0.31057 0.0
C3320 C 0.23715 0.29931 0.30013 0.0
C3321 C 0.22118 0.28866 0.32877 0.0
C3322 C 0.20648 0.32252 0.36334 0.0
H3323 H 0.22258 0.30096 0.45933 0.0
H3324 H 0.2216 0.29338 0.42553 0.0
H3325 H 0.19334 0.33509 0.38737 0.0
H3326 H 0.24547 0.32947 0.29984 0.0
H3327 H 0.23346 0.33619 0.33165 0.0
H3328 H 0.24249 0.29246 0.3654 0.0
C3329 C 0.21855 0.30762 0.43012 0.0
C3330 C 0.20426 0.32591 0.38282 0.0
C3331 C 0.21898 0.31188 0.44952 0.0
C3332 C 0.23844 0.318 0.30763 0.0
C3333 C 0.23148 0.32189 0.32571 0.0
C3334 C 0.23164 0.30168 0.37014 0.0
C3335 C 0.21444 0.32156 0.41689 0.0
C3336 C 0.21599 0.31748 0.39616 0.0
C3337 C 0.22342 0.30711 0.3366 0.0
C3338 C 0.22014 0.31031 0.35696 0.0
H3339 H 0.20626 0.35772 0.44816 0.0
H3340 H 0.20672 0.35079 0.41406 0.0
H3341 H 0.23948 0.29906 0.39914 0.0
H3342 H 0.2266 0.27028 0.30519 0.0
H3343 H 0.21506 0.27708 0.33707 0.0
C3344 C 0.24688 0.40018 0.55261 0.0
C3345 C 0.2502 0.38345 0.54223 0.0
C3346 C 0.26161 0.40994 0.56285 0.0
C3347 C 0.30733 0.40272 0.58559 0.0
H3348 H 0.32035 0.45585 0.57577 0.0
C3349 C 0.3826 0.43469 0.588 0.0
C3350 C 0.38658 0.45402 0.59248 0.0
C3351 C 0.36405 0.42684 0.58838 0.0
C3352 C 0.31662 0.44118 0.57916 0.0
H3353 H 0.27158 0.36395 0.53431 0.0
H3354 H 0.29723 0.38094 0.55228 0.0
H3355 H 0.29092 0.44069 0.56263 0.0
H3356 H 0.37461 0.48005 0.60216 0.0
H3357 H 0.34179 0.46625 0.60266 0.0
H3358 H 0.33327 0.40296 0.60157 0.0
C3359 C 0.2832 0.38641 0.55255 0.0
C3360 C 0.29984 0.43249 0.57152 0.0
C3361 C 0.26857 0.37681 0.54211 0.0
C3362 C 0.37185 0.4651 0.59865 0.0
C3363 C 0.35311 0.45724 0.59883 0.0
C3364 C 0.32398 0.41144 0.59337 0.0
C3365 C 0.27981 0.40296 0.56313 0.0
C3366 C 0.29552 0.41299 0.574 0.0
C3367 C 0.34901 0.43816 0.59313 0.0
C3368 C 0.32925 0.43051 0.58948 0.0
H3369 H 0.23286 0.40565 0.55295 0.0
H3370 H 0.25871 0.42273 0.57084 0.0
H3371 H 0.30407 0.38774 0.58801 0.0
H3372 H 0.39375 0.4258 0.58335 0.0
H3373 H 0.36141 0.41217 0.58368 0.0
C3374 C 0.82425 0.08952 0.50137 0.0
C3375 C 0.81808 0.08978 0.5203 0.0
C3376 C 0.83336 0.07392 0.49406 0.0
C3377 C 0.86514 0.04715 0.48897 0.0
H3378 H 0.85463 0.99624 0.50774 0.0
C3379 C 0.91301 0.98975 0.51903 0.0
C3380 C 0.92743 0.99021 0.5054 0.0
C3381 C 0.89519 0.99608 0.5146 0.0
C3382 C 0.85759 0.0103 0.50212 0.0
H3383 H 0.81611 0.07367 0.54622 0.0
H3384 H 0.83237 0.04682 0.53371 0.0
H3385 H 0.83109 0.02001 0.51176 0.0
H3386 H 0.9339 0.99556 0.47585 0.0
H3387 H 0.90272 0.00686 0.46817 0.0
H3388 H 0.89202 0.03784 0.48029 0.0
C3389 C 0.82987 0.05842 0.52433 0.0
C3390 C 0.84419 0.02394 0.50452 0.0
C3391 C 0.82075 0.07395 0.5316 0.0
C3392 C 0.92308 0.99516 0.48669 0.0
C3393 C 0.90527 0.0017 0.4823 0.0
C3394 C 0.87848 0.03351 0.4865 0.0
C3395 C 0.83648 0.05828 0.50554 0.0
C3396 C 0.84827 0.04277 0.49887 0.0
C3397 C 0.89151 0.00314 0.4965 0.0
C3398 C 0.87525 0.01524 0.49393 0.0
H3399 H 0.82221 0.10144 0.49225 0.0
H3400 H 0.83817 0.07419 0.4795 0.0
H3401 H 0.8688 0.06152 0.48452 0.0
H3402 H 0.9159 0.9858 0.53351 0.0
H3403 H 0.88496 0.99708 0.5259 0.0
C3404 C 0.59796 0.03907 0.25509 0.0
C3405 C 0.60468 0.02613 0.26808 0.0
C3406 C 0.60635 0.05754 0.25445 0.0
C3407 C 0.63735 0.09365 0.27938 0.0
H3408 H 0.66355 0.0996 0.23144 0.0
C3409 C 0.70407 0.14309 0.2742 0.0
C3410 C 0.70709 0.15363 0.2577 0.0
C3411 C 0.68956 0.1288 0.27479 0.0
C3412 C 0.65608 0.09846 0.24478 0.0
H3413 H 0.62399 0.02254 0.29163 0.0
H3414 H 0.63809 0.05503 0.29106 0.0
H3415 H 0.63896 0.07407 0.2348 0.0
H3416 H 0.69773 0.15723 0.22867 0.0
H3417 H 0.67198 0.1325 0.22979 0.0
H3418 H 0.65439 0.1179 0.28949 0.0
C3419 C 0.62659 0.0509 0.28123 0.0
C3420 C 0.64197 0.08386 0.24667 0.0
C3421 C 0.61857 0.03235 0.28155 0.0
C3422 C 0.69581 0.14914 0.24151 0.0
C3423 C 0.68103 0.13502 0.2422 0.0
C3424 C 0.65122 0.10844 0.27741 0.0
C3425 C 0.62115 0.06334 0.26714 0.0
C3426 C 0.63292 0.08102 0.26415 0.0
C3427 C 0.67748 0.12497 0.259 0.0
C3428 C 0.66123 0.11062 0.26029 0.0
H3429 H 0.58739 0.03445 0.24444 0.0
H3430 H 0.60199 0.06695 0.24348 0.0
H3431 H 0.63048 0.09172 0.29297 0.0
H3432 H 0.71268 0.14618 0.28683 0.0
H3433 H 0.68769 0.12092 0.28775 0.0
C3434 C 0.68801 0.88347 0.98401 0.0
C3435 C 0.68624 0.87627 0.00243 0.0
C3436 C 0.6743 0.89496 0.97673 0.0
C3437 C 0.62489 0.90748 0.98232 0.0
H3438 H 0.6421 0.95683 0.96331 0.0
C3439 C 0.59207 0.98393 0.9765 0.0
C3440 C 0.57407 0.97842 0.96875 0.0
C3441 C 0.60665 0.97136 0.9761 0.0
C3442 C 0.63711 0.94304 0.96844 0.0
H3443 H 0.66848 0.87489 0.02741 0.0
H3444 H 0.64443 0.89467 0.01458 0.0
H3445 H 0.66539 0.93392 0.97175 0.0
H3446 H 0.55781 0.95594 0.95312 0.0
H3447 H 0.58327 0.93409 0.95251 0.0
H3448 H 0.59669 0.9167 0.97962 0.0
C3449 C 0.65643 0.89149 0.00581 0.0
C3450 C 0.6504 0.92991 0.97315 0.0
C3451 C 0.67023 0.88025 0.01318 0.0
C3452 C 0.57143 0.96062 0.95938 0.0
C3453 C 0.58598 0.94803 0.95909 0.0
C3454 C 0.61162 0.92049 0.97743 0.0
C3455 C 0.65846 0.89918 0.98763 0.0
C3456 C 0.64441 0.91218 0.98054 0.0
C3457 C 0.6035 0.95303 0.96802 0.0
C3458 C 0.6176 0.93855 0.97081 0.0
H3459 H 0.70023 0.88068 0.97541 0.0
H3460 H 0.67613 0.90064 0.96264 0.0
H3461 H 0.6199 0.89386 0.98787 0.0
H3462 H 0.59463 -0.00244 0.98374 0.0
H3463 H 0.62 0.97558 0.98316 0.0
C3464 C 0.35914 0.47912 0.25131 0.0
C3465 C 0.37742 0.47301 0.25483 0.0
C3466 C 0.34546 0.46706 0.24198 0.0
C3467 C 0.33769 0.42579 0.21039 0.0
H3468 H 0.29627 0.41005 0.24341 0.0
C3469 C 0.30142 0.35144 0.20632 0.0
C3470 C 0.28435 0.34774 0.21594 0.0
C3471 C 0.30921 0.37007 0.20512 0.0
C3472 C 0.30724 0.41456 0.23355 0.0
H3473 H 0.39604 0.44993 0.25063 0.0
H3474 H 0.37216 0.42898 0.23398 0.0
H3475 H 0.31738 0.43708 0.25253 0.0
H3476 H 0.2608 0.36027 0.22985 0.0
H3477 H 0.27346 0.39298 0.22634 0.0
H3478 H 0.3277 0.40331 0.19135 0.0
C3479 C 0.36845 0.44305 0.23856 0.0
C3480 C 0.31946 0.43004 0.23895 0.0
C3481 C 0.382 0.45492 0.24826 0.0
C3482 C 0.27408 0.36292 0.22246 0.0
C3483 C 0.28152 0.3816 0.22067 0.0
C3484 C 0.32516 0.41056 0.2047 0.0
C3485 C 0.35002 0.44892 0.23561 0.0
C3486 C 0.33519 0.43526 0.22781 0.0
C3487 C 0.2998 0.38534 0.21318 0.0
C3488 C 0.31027 0.40415 0.21664 0.0
H3489 H 0.35526 0.49301 0.25622 0.0
H3490 H 0.33125 0.47176 0.23996 0.0
H3491 H 0.3497 0.42976 0.20152 0.0
H3492 H 0.30963 0.33984 0.20137 0.0
H3493 H 0.32333 0.37214 0.19935 0.0
C3494 C 0.21733 0.64508 0.00723 0.0
C3495 C 0.23268 0.63717 0.01639 0.0
C3496 C 0.19885 0.63694 0.00918 0.0
C3497 C 0.17331 0.5918 0.02295 0.0
H3498 H 0.12995 0.62275 0.02813 0.0
C3499 C 0.10054 0.56056 0.04661 0.0
C3500 C 0.08497 0.5647 0.03514 0.0
C3501 C 0.11815 0.57038 0.0444 0.0
C3502 C 0.14195 0.61397 0.02658 0.0
H3503 H 0.24061 0.61492 0.03527 0.0
H3504 H 0.2086 0.60116 0.03904 0.0
H3505 H 0.16164 0.6381 0.02378 0.0
H3506 H 0.07549 0.58292 0.01289 0.0
H3507 H 0.10629 0.60019 0.00923 0.0
H3508 H 0.15371 0.56773 0.02613 0.0
C3509 C 0.21076 0.61325 0.02988 0.0
C3510 C 0.16006 0.62273 0.02401 0.0
C3511 C 0.22915 0.62123 0.0278 0.0
C3512 C 0.08723 0.57932 0.02188 0.0
C3513 C 0.10481 0.58929 0.01984 0.0
C3514 C 0.1553 0.58311 0.02572 0.0
C3515 C 0.1954 0.62083 0.02044 0.0
C3516 C 0.17598 0.61172 0.02233 0.0
C3517 C 0.1205 0.58466 0.03085 0.0
C3518 C 0.13948 0.5941 0.0277 0.0
H3519 H 0.21961 0.65735 -0.00167 0.0
H3520 H 0.18735 0.64304 0.00159 0.0
H3521 H 0.18516 0.58286 0.02124 0.0
H3522 H 0.09929 0.54941 0.05697 0.0
H3523 H 0.12999 0.5667 0.05321 0.0
C3524 C 0.67294 0.94829 0.27508 0.0
C3525 C 0.65435 0.93993 0.2746 0.0
C3526 C 0.68793 0.93829 0.28203 0.0
C3527 C 0.69882 0.89297 0.30597 0.0
H3528 H 0.74377 0.89741 0.27475 0.0
C3529 C 0.75026 0.8395 0.26965 0.0
C3530 C 0.7517 0.82634 0.28421 0.0
C3531 C 0.74402 0.85752 0.27353 0.0
C3532 C 0.73137 0.89602 0.2837 0.0
H3533 H 0.63669 0.91486 0.28152 0.0
H3534 H 0.66284 0.89693 0.29257 0.0
H3535 H 0.72008 0.92068 0.27211 0.0
H3536 H 0.74974 0.82245 0.31463 0.0
H3537 H 0.73908 0.85421 0.3215 0.0
H3538 H 0.7092 0.86716 0.31605 0.0
C3539 C 0.66594 0.91144 0.28828 0.0
C3540 C 0.71782 0.90956 0.28238 0.0
C3541 C 0.65091 0.92162 0.28171 0.0
C3542 C 0.74857 0.83223 0.30306 0.0
C3543 C 0.74234 0.85037 0.30698 0.0
C3544 C 0.7122 0.8792 0.307 0.0
C3545 C 0.68472 0.91952 0.28826 0.0
C3546 C 0.7009 0.90769 0.29282 0.0
C3547 C 0.73917 0.86291 0.29211 0.0
C3548 C 0.72814 0.88004 0.29512 0.0
H3549 H 0.67593 0.96257 0.27 0.0
H3550 H 0.70208 0.94517 0.28218 0.0
H3551 H 0.68631 0.89143 0.31475 0.0
H3552 H 0.75282 0.83552 0.25499 0.0
H3553 H 0.74163 0.8666 0.26163 0.0
C3554 C 0.88609 0.11863 0.75806 0.0
C3555 C 0.88738 0.10334 0.7704 0.0
C3556 C 0.87583 0.1342 0.76322 0.0
C3557 C 0.85216 0.15886 0.80243 0.0
H3558 H 0.81626 0.16967 0.76261 0.0
C3559 C 0.8038 0.22313 0.80216 0.0
C3560 C 0.78547 0.21974 0.79428 0.0
C3561 C 0.81652 0.20864 0.80238 0.0
C3562 C 0.82608 0.16672 0.77394 0.0
H3563 H 0.88023 0.09309 0.79846 0.0
H3564 H 0.86218 0.12035 0.80742 0.0
H3565 H 0.83958 0.14632 0.75676 0.0
H3566 H 0.76559 0.19803 0.78204 0.0
H3567 H 0.78769 0.17285 0.78253 0.0
H3568 H 0.83838 0.17937 0.81961 0.0
C3569 C 0.86914 0.12025 0.79377 0.0
C3570 C 0.83964 0.15355 0.7705 0.0
C3571 C 0.87944 0.10463 0.7886 0.0
C3572 C 0.77967 0.20122 0.78797 0.0
C3573 C 0.79236 0.1868 0.78817 0.0
C3574 C 0.83862 0.17225 0.80584 0.0
C3575 C 0.86662 0.13482 0.78082 0.0
C3576 C 0.85283 0.14946 0.78466 0.0
C3577 C 0.81111 0.19054 0.7947 0.0
C3578 C 0.82537 0.1762 0.79163 0.0
H3579 H 0.89222 0.11818 0.74401 0.0
H3580 H 0.87443 0.14543 0.7531 0.0
H3581 H 0.86217 0.15595 0.8136 0.0
H3582 H 0.80871 0.23722 0.80722 0.0
H3583 H 0.8309 0.21191 0.80749 0.0
loop_
_geom_bond_atom_site_label_1
_geom_bond_atom_site_label_2
_geom_bond_distance
_geom_bond_site_symmetry_2
_ccdc_geom_bond_type
O0 Cd1 2.223 . S
O0 C8 1.315 . S
Cd1 O0 2.223 . S
Cd1 O4 2.297 1_455 S
Cd1 O5 2.439 1_455 S
Cd1 O11 2.240 . S
Cd2 O3 2.240 . S
Cd2 O10 2.223 . S
Cd2 O12 2.297 . S
Cd2 O13 2.439 . S
O3 Cd2 2.240 . S
O3 C8 1.279 . S
O4 Cd1 2.297 1_655 S
O4 C6 1.247 . S
O5 Cd1 2.439 1_655 S
O5 C6 1.208 . S
C6 O4 1.247 . S
C6 O5 1.208 . S
C7 O12 1.247 . S
C7 O13 1.208 . S
C8 O0 1.315 . S
C8 O3 1.279 . S
C9 O10 1.315 . S
C9 O11 1.279 . S
O10 Cd2 2.223 . S
O10 C9 1.315 . S
O11 Cd1 2.240 . S
O11 C9 1.279 . S
O12 Cd2 2.297 . S
O12 C7 1.247 . S
O13 Cd2 2.439 . S
O13 C7 1.208 . S
O14 Cd15 2.223 . S
O14 C22 1.315 . S
Cd15 O14 2.223 . S
Cd15 O18 2.297 . S
Cd15 O19 2.439 1_455 S
Cd15 O25 2.240 1_455 S
Cd16 O17 2.240 1_655 S
Cd16 O24 2.223 1_655 S
Cd16 O26 2.297 . S
Cd16 O27 2.439 . S
O17 Cd16 2.240 1_455 S
O17 C22 1.279 . S
O18 Cd15 2.297 . S
O18 C20 1.247 . S
O19 Cd15 2.439 1_655 S
O19 C20 1.208 1_655 S
C20 O18 1.247 . S
C20 O19 1.208 1_455 S
C21 O26 1.247 . S
C21 O27 1.208 . S
C22 O14 1.315 . S
C22 O17 1.279 . S
C23 O24 1.315 . S
C23 O25 1.279 1_455 S
O24 Cd16 2.223 1_455 S
O24 C23 1.315 . S
O25 Cd15 2.240 1_655 S
O25 C23 1.279 1_655 S
O26 Cd16 2.297 . S
O26 C21 1.247 . S
O27 Cd16 2.439 . S
O27 C21 1.208 . S
O28 Cd29 2.223 . S
O28 C36 1.315 . S
Cd29 O28 2.223 . S
Cd29 O32 2.297 . S
Cd29 O33 2.439 . S
Cd29 O39 2.240 . S
Cd30 O31 2.240 . S
Cd30 O38 2.223 . S
Cd30 O40 2.297 . S
Cd30 O41 2.439 . S
O31 Cd30 2.240 . S
O31 C36 1.279 . S
O32 Cd29 2.297 . S
O32 C34 1.247 . S
O33 Cd29 2.439 . S
O33 C34 1.208 . S
C34 O32 1.247 . S
C34 O33 1.208 . S
C35 O40 1.247 . S
C35 O41 1.208 . S
C36 O28 1.315 . S
C36 O31 1.279 . S
C37 O38 1.315 . S
C37 O39 1.279 . S
O38 Cd30 2.223 . S
O38 C37 1.315 . S
O39 Cd29 2.240 . S
O39 C37 1.279 . S
O40 Cd30 2.297 . S
O40 C35 1.247 . S
O41 Cd30 2.439 . S
O41 C35 1.208 . S
O42 Cd43 2.223 . S
O42 C50 1.315 . S
Cd43 O42 2.223 . S
Cd43 O46 2.297 . S
Cd43 O47 2.439 . S
Cd43 O53 2.240 . S
Cd44 O45 2.240 . S
Cd44 O52 2.223 . S
Cd44 O54 2.297 . S
Cd44 O55 2.439 . S
O45 Cd44 2.240 . S
O45 C50 1.279 . S
O46 Cd43 2.297 . S
O46 C48 1.247 . S
O47 Cd43 2.439 . S
O47 C48 1.208 . S
C48 O46 1.247 . S
C48 O47 1.208 . S
C49 O54 1.247 . S
C49 O55 1.208 . S
C50 O42 1.315 . S
C50 O45 1.279 . S
C51 O52 1.315 . S
C51 O53 1.279 . S
O52 Cd44 2.223 . S
O52 C51 1.315 . S
O53 Cd43 2.240 . S
O53 C51 1.279 . S
O54 Cd44 2.297 . S
O54 C49 1.247 . S
O55 Cd44 2.439 . S
O55 C49 1.208 . S
O56 Cd57 2.223 . S
O56 C64 1.315 . S
Cd57 O56 2.223 . S
Cd57 O60 2.297 1_545 S
Cd57 O61 2.439 1_545 S
Cd57 O67 2.240 . S
Cd58 O59 2.240 . S
Cd58 O66 2.223 . S
Cd58 O68 2.297 . S
Cd58 O69 2.439 . S
O59 Cd58 2.240 . S
O59 C64 1.279 . S
O60 Cd57 2.297 1_565 S
O60 C62 1.247 . S
O61 Cd57 2.439 1_565 S
O61 C62 1.208 . S
C62 O60 1.247 . S
C62 O61 1.208 . S
C63 O68 1.247 . S
C63 O69 1.208 . S
C64 O56 1.315 . S
C64 O59 1.279 . S
C65 O66 1.315 . S
C65 O67 1.279 . S
O66 Cd58 2.223 . S
O66 C65 1.315 . S
O67 Cd57 2.240 . S
O67 C65 1.279 . S
O68 Cd58 2.297 . S
O68 C63 1.247 . S
O69 Cd58 2.439 . S
O69 C63 1.208 . S
O70 Cd71 2.223 . S
O70 C78 1.315 . S
Cd71 O70 2.223 . S
Cd71 O74 2.297 . S
Cd71 O75 2.439 . S
Cd71 O81 2.240 . S
Cd72 O73 2.240 . S
Cd72 O80 2.223 . S
Cd72 O82 2.297 . S
Cd72 O83 2.439 . S
O73 Cd72 2.240 . S
O73 C78 1.279 . S
O74 Cd71 2.297 . S
O74 C76 1.247 . S
O75 Cd71 2.439 . S
O75 C76 1.208 . S
C76 O74 1.247 . S
C76 O75 1.208 . S
C77 O82 1.247 . S
C77 O83 1.208 . S
C78 O70 1.315 . S
C78 O73 1.279 . S
C79 O80 1.315 . S
C79 O81 1.279 . S
O80 Cd72 2.223 . S
O80 C79 1.315 . S
O81 Cd71 2.240 . S
O81 C79 1.279 . S
O82 Cd72 2.297 . S
O82 C77 1.247 . S
O83 Cd72 2.439 . S
O83 C77 1.208 . S
O84 Cd85 2.223 . S
O84 C92 1.315 . S
Cd85 O84 2.223 . S
Cd85 O88 2.297 . S
Cd85 O89 2.439 . S
Cd85 O95 2.240 1_545 S
Cd86 O87 2.240 . S
Cd86 O94 2.223 1_545 S
Cd86 O96 2.297 1_545 S
Cd86 O97 2.439 . S
O87 Cd86 2.240 . S
O87 C92 1.279 . S
O88 Cd85 2.297 . S
O88 C90 1.247 . S
O89 Cd85 2.439 . S
O89 C90 1.208 . S
C90 O88 1.247 . S
C90 O89 1.208 . S
C91 O96 1.247 1_545 S
C91 O97 1.208 . S
C92 O84 1.315 . S
C92 O87 1.279 . S
C93 O94 1.315 . S
C93 O95 1.279 . S
O94 Cd86 2.223 1_565 S
O94 C93 1.315 . S
O95 Cd85 2.240 1_565 S
O95 C93 1.279 . S
O96 Cd86 2.297 1_565 S
O96 C91 1.247 1_565 S
O97 Cd86 2.439 . S
O97 C91 1.208 . S
O98 Cd99 2.223 . S
O98 C106 1.315 . S
Cd99 O98 2.223 . S
Cd99 O102 2.297 . S
Cd99 O103 2.439 . S
Cd99 O109 2.240 . S
Cd100 O101 2.243 1_556 S
Cd100 O108 2.224 1_556 S
Cd100 O110 2.293 . S
Cd100 O111 2.435 . S
O101 Cd100 2.243 1_554 S
O101 C106 1.279 . S
O102 Cd99 2.297 . S
O102 C104 1.247 . S
O103 Cd99 2.439 . S
O103 C104 1.208 . S
C104 O102 1.247 . S
C104 O103 1.208 . S
C105 O110 1.247 . S
C105 O111 1.208 . S
C106 O98 1.315 . S
C106 O101 1.279 . S
C107 O108 1.315 . S
C107 O109 1.279 . S
O108 Cd100 2.224 1_554 S
O108 C107 1.315 . S
O109 Cd99 2.240 . S
O109 C107 1.279 . S
O110 Cd100 2.293 . S
O110 C105 1.247 . S
O111 Cd100 2.435 . S
O111 C105 1.208 . S
O112 Cd113 2.223 . S
O112 C120 1.315 . S
Cd113 O112 2.223 . S
Cd113 O116 2.297 . S
Cd113 O117 2.439 . S
Cd113 O123 2.240 . S
Cd114 O115 2.240 . S
Cd114 O122 2.223 . S
Cd114 O124 2.297 1_554 S
Cd114 O125 2.439 1_554 S
O115 Cd114 2.240 . S
O115 C120 1.279 . S
O116 Cd113 2.297 . S
O116 C118 1.247 . S
O117 Cd113 2.439 . S
O117 C118 1.208 . S
C118 O116 1.247 . S
C118 O117 1.208 . S
C119 O124 1.247 . S
C119 O125 1.208 . S
C120 O112 1.315 . S
C120 O115 1.279 . S
C121 O122 1.315 . S
C121 O123 1.279 . S
O122 Cd114 2.223 . S
O122 C121 1.315 . S
O123 Cd113 2.240 . S
O123 C121 1.279 . S
O124 Cd114 2.297 1_556 S
O124 C119 1.247 . S
O125 Cd114 2.439 1_556 S
O125 C119 1.208 . S
O126 Cd127 2.223 . S
O126 C134 1.315 . S
Cd127 O126 2.223 . S
Cd127 O130 2.297 . S
Cd127 O131 2.439 . S
Cd127 O137 2.240 . S
Cd128 O129 2.240 . S
Cd128 O136 2.223 . S
Cd128 O138 2.297 . S
Cd128 O139 2.439 . S
O129 Cd128 2.240 . S
O129 C134 1.279 . S
O130 Cd127 2.297 . S
O130 C132 1.247 . S
O131 Cd127 2.439 . S
O131 C132 1.208 . S
C132 O130 1.247 . S
C132 O131 1.208 . S
C133 O138 1.247 . S
C133 O139 1.208 . S
C134 O126 1.315 . S
C134 O129 1.279 . S
C135 O136 1.315 . S
C135 O137 1.279 . S
O136 Cd128 2.223 . S
O136 C135 1.315 . S
O137 Cd127 2.240 . S
O137 C135 1.279 . S
O138 Cd128 2.297 . S
O138 C133 1.247 . S
O139 Cd128 2.439 . S
O139 C133 1.208 . S
O140 Cd141 2.223 . S
O140 C148 1.315 . S
Cd141 O140 2.223 . S
Cd141 O144 2.297 . S
Cd141 O145 2.439 . S
Cd141 O151 2.240 . S
Cd142 O143 2.240 . S
Cd142 O150 2.223 . S
Cd142 O152 2.297 . S
Cd142 O153 2.439 . S
O143 Cd142 2.240 . S
O143 C148 1.279 . S
O144 Cd141 2.297 . S
O144 C146 1.247 . S
O145 Cd141 2.439 . S
O145 C146 1.208 . S
C146 O144 1.247 . S
C146 O145 1.208 . S
C147 O152 1.247 . S
C147 O153 1.208 . S
C148 O140 1.315 . S
C148 O143 1.279 . S
C149 O150 1.315 . S
C149 O151 1.279 . S
O150 Cd142 2.223 . S
O150 C149 1.315 . S
O151 Cd141 2.240 . S
O151 C149 1.279 . S
O152 Cd142 2.297 . S
O152 C147 1.247 . S
O153 Cd142 2.439 . S
O153 C147 1.208 . S
O154 Cd155 2.223 . S
O154 C162 1.315 . S
Cd155 O154 2.223 . S
Cd155 O158 2.297 . S
Cd155 O159 2.439 . S
Cd155 O165 2.240 . S
Cd156 O157 2.240 . S
Cd156 O164 2.223 . S
Cd156 O166 2.297 . S
Cd156 O167 2.439 . S
O157 Cd156 2.240 . S
O157 C162 1.279 . S
O158 Cd155 2.297 . S
O158 C160 1.247 . S
O159 Cd155 2.439 . S
O159 C160 1.208 . S
C160 O158 1.247 . S
C160 O159 1.208 . S
C161 O166 1.247 . S
C161 O167 1.208 . S
C162 O154 1.315 . S
C162 O157 1.279 . S
C163 O164 1.315 . S
C163 O165 1.279 . S
O164 Cd156 2.223 . S
O164 C163 1.315 . S
O165 Cd155 2.240 . S
O165 C163 1.279 . S
O166 Cd156 2.297 . S
O166 C161 1.247 . S
O167 Cd156 2.439 . S
O167 C161 1.208 . S
O168 Cd169 2.223 . S
O168 C176 1.315 . S
Cd169 O168 2.223 . S
Cd169 O172 2.297 . S
Cd169 O173 2.439 1_455 S
Cd169 O179 2.240 1_455 S
Cd170 O171 2.240 1_655 S
Cd170 O178 2.223 1_655 S
Cd170 O180 2.297 . S
Cd170 O181 2.439 . S
O171 Cd170 2.240 1_455 S
O171 C176 1.279 . S
O172 Cd169 2.297 . S
O172 C174 1.247 . S
O173 Cd169 2.439 1_655 S
O173 C174 1.208 1_655 S
C174 O172 1.247 . S
C174 O173 1.208 1_455 S
C175 O180 1.247 . S
C175 O181 1.208 . S
C176 O168 1.315 . S
C176 O171 1.279 . S
C177 O178 1.315 . S
C177 O179 1.279 1_455 S
O178 Cd170 2.223 1_455 S
O178 C177 1.315 . S
O179 Cd169 2.240 1_655 S
O179 C177 1.279 1_655 S
O180 Cd170 2.297 . S
O180 C175 1.247 . S
O181 Cd170 2.439 . S
O181 C175 1.208 . S
O182 Cd183 2.223 1_455 S
O182 C190 1.318 . S
Cd183 O182 2.223 1_655 S
Cd183 O186 2.297 . S
Cd183 O187 2.439 . S
Cd183 O193 2.240 1_655 S
Cd184 O185 2.240 1_455 S
Cd184 O192 2.223 . S
Cd184 O194 2.297 . S
Cd184 O195 2.439 1_455 S
O185 Cd184 2.240 1_655 S
O185 C190 1.268 1_655 S
O186 Cd183 2.297 . S
O186 C188 1.247 . S
O187 Cd183 2.439 . S
O187 C188 1.208 . S
C188 O186 1.247 . S
C188 O187 1.208 . S
C189 O194 1.247 . S
C189 O195 1.208 1_455 S
C190 O182 1.318 . S
C190 O185 1.268 1_455 S
C191 O192 1.315 . S
C191 O193 1.279 . S
O192 Cd184 2.223 . S
O192 C191 1.315 . S
O193 Cd183 2.240 1_455 S
O193 C191 1.279 . S
O194 Cd184 2.297 . S
O194 C189 1.247 . S
O195 Cd184 2.439 1_655 S
O195 C189 1.208 1_655 S
O196 Cd197 2.223 . S
O196 C204 1.315 . S
Cd197 O196 2.223 . S
Cd197 O200 2.297 . S
Cd197 O201 2.439 . S
Cd197 O207 2.240 . S
Cd198 O199 2.240 . S
Cd198 O206 2.223 . S
Cd198 O208 2.297 . S
Cd198 O209 2.439 . S
O199 Cd198 2.240 . S
O199 C204 1.279 . S
O200 Cd197 2.297 . S
O200 C202 1.247 . S
O201 Cd197 2.439 . S
O201 C202 1.208 . S
C202 O200 1.247 . S
C202 O201 1.208 . S
C203 O208 1.247 . S
C203 O209 1.208 . S
C204 O196 1.315 . S
C204 O199 1.279 . S
C205 O206 1.315 . S
C205 O207 1.279 . S
O206 Cd198 2.223 . S
O206 C205 1.315 . S
O207 Cd197 2.240 . S
O207 C205 1.279 . S
O208 Cd198 2.297 . S
O208 C203 1.247 . S
O209 Cd198 2.439 . S
O209 C203 1.208 . S
O210 Cd211 2.223 . S
O210 C218 1.315 . S
Cd211 O210 2.223 . S
Cd211 O214 2.297 . S
Cd211 O215 2.439 . S
Cd211 O221 2.240 . S
Cd212 O213 2.240 . S
Cd212 O220 2.223 . S
Cd212 O222 2.297 . S
Cd212 O223 2.439 . S
O213 Cd212 2.240 . S
O213 C218 1.279 . S
O214 Cd211 2.297 . S
O214 C216 1.247 . S
O215 Cd211 2.439 . S
O215 C216 1.208 . S
C216 O214 1.247 . S
C216 O215 1.208 . S
C217 O222 1.247 . S
C217 O223 1.208 . S
C218 O210 1.315 . S
C218 O213 1.279 . S
C219 O220 1.315 . S
C219 O221 1.279 . S
O220 Cd212 2.223 . S
O220 C219 1.315 . S
O221 Cd211 2.240 . S
O221 C219 1.279 . S
O222 Cd212 2.297 . S
O222 C217 1.247 . S
O223 Cd212 2.439 . S
O223 C217 1.208 . S
O224 Cd225 2.223 . S
O224 C232 1.315 . S
Cd225 O224 2.223 . S
Cd225 O228 2.297 . S
Cd225 O229 2.439 . S
Cd225 O235 2.240 . S
Cd226 O227 2.240 . S
Cd226 O234 2.223 1_545 S
Cd226 O236 2.318 . S
Cd226 O237 2.439 . S
O227 Cd226 2.240 . S
O227 C232 1.279 . S
O228 Cd225 2.297 . S
O228 C230 1.247 . S
O229 Cd225 2.439 . S
O229 C230 1.208 . S
C230 O228 1.247 . S
C230 O229 1.208 . S
C231 O236 1.290 . S
C231 O237 1.208 . S
C232 O224 1.315 . S
C232 O227 1.279 . S
C233 O234 1.315 . S
C233 O235 1.279 1_565 S
O234 Cd226 2.223 1_565 S
O234 C233 1.315 . S
O235 Cd225 2.240 . S
O235 C233 1.279 1_545 S
O236 Cd226 2.318 . S
O236 C231 1.290 . S
O237 Cd226 2.439 . S
O237 C231 1.208 . S
O238 Cd239 2.223 . S
O238 C246 1.315 . S
Cd239 O238 2.223 . S
Cd239 O242 2.297 . S
Cd239 O243 2.439 . S
Cd239 O249 2.240 . S
Cd240 O241 2.240 . S
Cd240 O248 2.223 . S
Cd240 O250 2.297 . S
Cd240 O251 2.439 . S
O241 Cd240 2.240 . S
O241 C246 1.279 . S
O242 Cd239 2.297 . S
O242 C244 1.247 . S
O243 Cd239 2.439 . S
O243 C244 1.208 . S
C244 O242 1.247 . S
C244 O243 1.208 . S
C245 O250 1.247 . S
C245 O251 1.208 . S
C246 O238 1.315 . S
C246 O241 1.279 . S
C247 O248 1.315 . S
C247 O249 1.279 . S
O248 Cd240 2.223 . S
O248 C247 1.315 . S
O249 Cd239 2.240 . S
O249 C247 1.279 . S
O250 Cd240 2.297 . S
O250 C245 1.247 . S
O251 Cd240 2.439 . S
O251 C245 1.208 . S
O252 Cd253 2.223 1_545 S
O252 C260 1.315 . S
Cd253 O252 2.223 1_565 S
Cd253 O256 2.297 . S
Cd253 O257 2.439 . S
Cd253 O263 2.240 1_565 S
Cd254 O255 2.240 1_545 S
Cd254 O262 2.223 . S
Cd254 O264 2.297 . S
Cd254 O265 2.439 1_545 S
O255 Cd254 2.240 1_565 S
O255 C260 1.279 1_565 S
O256 Cd253 2.297 . S
O256 C258 1.247 . S
O257 Cd253 2.439 . S
O257 C258 1.208 . S
C258 O256 1.247 . S
C258 O257 1.208 . S
C259 O264 1.247 . S
C259 O265 1.208 1_545 S
C260 O252 1.315 . S
C260 O255 1.279 1_545 S
C261 O262 1.315 . S
C261 O263 1.279 . S
O262 Cd254 2.223 . S
O262 C261 1.315 . S
O263 Cd253 2.240 1_545 S
O263 C261 1.279 . S
O264 Cd254 2.297 . S
O264 C259 1.247 . S
O265 Cd254 2.439 1_565 S
O265 C259 1.208 1_565 S
O266 Cd267 2.223 . S
O266 C274 1.315 . S
Cd267 O266 2.223 . S
Cd267 O270 2.297 . S
Cd267 O271 2.439 1_554 S
Cd267 O277 2.240 1_554 S
Cd268 O269 2.240 1_556 S
Cd268 O276 2.223 1_556 S
Cd268 O278 2.297 . S
Cd268 O279 2.439 . S
O269 Cd268 2.240 1_554 S
O269 C274 1.279 . S
O270 Cd267 2.297 . S
O270 C272 1.247 . S
O271 Cd267 2.439 1_556 S
O271 C272 1.208 1_556 S
C272 O270 1.247 . S
C272 O271 1.208 1_554 S
C273 O278 1.247 . S
C273 O279 1.208 . S
C274 O266 1.315 . S
C274 O269 1.279 . S
C275 O276 1.315 . S
C275 O277 1.279 1_554 S
O276 Cd268 2.223 1_554 S
O276 C275 1.315 . S
O277 Cd267 2.240 1_556 S
O277 C275 1.279 1_556 S
O278 Cd268 2.297 . S
O278 C273 1.247 . S
O279 Cd268 2.439 . S
O279 C273 1.208 . S
O280 Cd281 2.223 . S
O280 C288 1.315 . S
Cd281 O280 2.223 . S
Cd281 O284 2.297 . S
Cd281 O285 2.439 . S
Cd281 O291 2.240 . S
Cd282 O283 2.240 . S
Cd282 O290 2.223 . S
Cd282 O292 2.297 1_554 S
Cd282 O293 2.439 1_554 S
O283 Cd282 2.240 . S
O283 C288 1.279 . S
O284 Cd281 2.297 . S
O284 C286 1.247 . S
O285 Cd281 2.439 . S
O285 C286 1.208 . S
C286 O284 1.247 . S
C286 O285 1.208 . S
C287 O292 1.247 . S
C287 O293 1.208 . S
C288 O280 1.315 . S
C288 O283 1.279 . S
C289 O290 1.315 . S
C289 O291 1.279 . S
O290 Cd282 2.223 . S
O290 C289 1.315 . S
O291 Cd281 2.240 . S
O291 C289 1.279 . S
O292 Cd282 2.297 1_556 S
O292 C287 1.247 . S
O293 Cd282 2.439 1_556 S
O293 C287 1.208 . S
O294 Cd295 2.223 . S
O294 C302 1.315 . S
Cd295 O294 2.223 . S
Cd295 O298 2.297 . S
Cd295 O299 2.439 . S
Cd295 O305 2.240 . S
Cd296 O297 2.240 . S
Cd296 O304 2.223 . S
Cd296 O306 2.297 . S
Cd296 O307 2.439 . S
O297 Cd296 2.240 . S
O297 C302 1.279 . S
O298 Cd295 2.297 . S
O298 C300 1.247 . S
O299 Cd295 2.439 . S
O299 C300 1.208 . S
C300 O298 1.247 . S
C300 O299 1.208 . S
C301 O306 1.247 . S
C301 O307 1.208 . S
C302 O294 1.315 . S
C302 O297 1.279 . S
C303 O304 1.315 . S
C303 O305 1.279 . S
O304 Cd296 2.223 . S
O304 C303 1.315 . S
O305 Cd295 2.240 . S
O305 C303 1.279 . S
O306 Cd296 2.297 . S
O306 C301 1.247 . S
O307 Cd296 2.439 . S
O307 C301 1.208 . S
O308 Cd309 2.223 . S
O308 C316 1.315 . S
Cd309 O308 2.223 . S
Cd309 O312 2.297 . S
Cd309 O313 2.439 . S
Cd309 O319 2.240 . S
Cd310 O311 2.240 . S
Cd310 O318 2.223 . S
Cd310 O320 2.297 . S
Cd310 O321 2.439 . S
O311 Cd310 2.240 . S
O311 C316 1.279 . S
O312 Cd309 2.297 . S
O312 C314 1.247 . S
O313 Cd309 2.439 . S
O313 C314 1.208 . S
C314 O312 1.247 . S
C314 O313 1.208 . S
C315 O320 1.247 . S
C315 O321 1.208 . S
C316 O308 1.315 . S
C316 O311 1.279 . S
C317 O318 1.315 . S
C317 O319 1.279 . S
O318 Cd310 2.223 . S
O318 C317 1.315 . S
O319 Cd309 2.240 . S
O319 C317 1.279 . S
O320 Cd310 2.297 . S
O320 C315 1.247 . S
O321 Cd310 2.439 . S
O321 C315 1.208 . S
O322 Cd323 2.223 . S
O322 C330 1.315 . S
Cd323 O322 2.223 . S
Cd323 O326 2.297 . S
Cd323 O327 2.439 . S
Cd323 O333 2.240 . S
Cd324 O325 2.240 . S
Cd324 O332 2.223 . S
Cd324 O334 2.297 . S
Cd324 O335 2.439 . S
O325 Cd324 2.240 . S
O325 C330 1.279 . S
O326 Cd323 2.297 . S
O326 C328 1.247 . S
O327 Cd323 2.439 . S
O327 C328 1.208 . S
C328 O326 1.247 . S
C328 O327 1.208 . S
C329 O334 1.247 . S
C329 O335 1.208 . S
C330 O322 1.315 . S
C330 O325 1.279 . S
C331 O332 1.315 . S
C331 O333 1.279 . S
O332 Cd324 2.223 . S
O332 C331 1.315 . S
O333 Cd323 2.240 . S
O333 C331 1.279 . S
O334 Cd324 2.297 . S
O334 C329 1.247 . S
O335 Cd324 2.439 . S
O335 C329 1.208 . S
O336 Zn337 1.953 . S
O336 C352 1.225 . S
Zn337 O336 1.953 . S
Zn337 O338 1.949 . S
Zn337 O344 1.919 . S
Zn337 O349 1.924 1_554 S
O338 Zn337 1.949 . S
O338 Zn339 1.923 1_545 S
O338 Zn340 1.950 1_455 S
O338 Zn341 1.945 1_445 S
Zn339 O338 1.923 1_565 S
Zn339 O342 1.933 . S
Zn339 O345 1.918 1_565 S
Zn339 O346 1.965 . S
Zn340 O338 1.950 1_655 S
Zn340 O347 1.938 1_655 S
Zn340 O348 1.906 1_545 S
Zn340 O358 1.953 . S
Zn341 O338 1.945 1_665 S
Zn341 O343 1.932 1_655 S
Zn341 O350 1.977 . S
Zn341 O351 1.910 1_564 S
O342 Zn339 1.933 . S
O342 C353 1.226 . S
O343 Zn341 1.932 1_455 S
O343 C353 1.307 . S
O344 Zn337 1.919 . S
O344 C355 1.253 . S
O345 Zn339 1.918 1_545 S
O345 C355 1.321 . S
O346 Zn339 1.965 . S
O346 C354 1.303 . S
O347 Zn340 1.938 1_455 S
O347 C354 1.247 1_545 S
O348 Zn340 1.906 1_565 S
O348 C356 1.304 . S
O349 Zn337 1.924 1_556 S
O349 C357 1.311 1_455 S
O350 Zn341 1.977 . S
O350 C356 1.272 . S
O351 Zn341 1.910 1_546 S
O351 C357 1.231 . S
C352 O336 1.225 . S
C352 O358 1.298 1_455 S
C353 O342 1.226 . S
C353 O343 1.307 . S
C354 O346 1.303 . S
C354 O347 1.247 1_565 S
C355 O344 1.253 . S
C355 O345 1.321 . S
C356 O348 1.304 . S
C356 O350 1.272 . S
C357 O349 1.311 1_655 S
C357 O351 1.231 . S
O358 Zn340 1.953 . S
O358 C352 1.298 1_655 S
O359 Zn360 1.953 . S
O359 C375 1.225 . S
Zn360 O359 1.953 . S
Zn360 O361 1.949 . S
Zn360 O367 1.919 . S
Zn360 O372 1.924 . S
O361 Zn360 1.949 . S
O361 Zn362 1.923 . S
O361 Zn363 1.950 . S
O361 Zn364 1.945 . S
Zn362 O361 1.923 . S
Zn362 O365 1.933 . S
Zn362 O368 1.941 . S
Zn362 O369 1.965 . S
Zn363 O361 1.950 . S
Zn363 O370 1.938 . S
Zn363 O371 1.906 . S
Zn363 O381 1.953 . S
Zn364 O361 1.945 . S
Zn364 O366 1.932 . S
Zn364 O373 1.977 . S
Zn364 O374 1.910 . S
O365 Zn362 1.933 . S
O365 C376 1.226 . S
O366 Zn364 1.932 . S
O366 C376 1.307 . S
O367 Zn360 1.919 . S
O367 C378 1.253 . S
O368 Zn362 1.941 . S
O368 C378 1.283 . S
O369 Zn362 1.965 . S
O369 C377 1.303 . S
O370 Zn363 1.938 . S
O370 C377 1.247 . S
O371 Zn363 1.906 . S
O371 C379 1.304 . S
O372 Zn360 1.924 . S
O372 C380 1.311 . S
O373 Zn364 1.977 . S
O373 C379 1.272 . S
O374 Zn364 1.910 . S
O374 C380 1.231 . S
C375 O359 1.225 . S
C375 O381 1.298 . S
C376 O365 1.226 . S
C376 O366 1.307 . S
C377 O369 1.303 . S
C377 O370 1.247 . S
C378 O367 1.253 . S
C378 O368 1.283 . S
C379 O371 1.304 . S
C379 O373 1.272 . S
C380 O372 1.311 . S
C380 O374 1.231 . S
O381 Zn363 1.953 . S
O381 C375 1.298 . S
O382 Zn383 1.953 . S
O382 C398 1.225 . S
Zn383 O382 1.953 . S
Zn383 O384 1.949 1_565 S
Zn383 O390 1.919 . S
Zn383 O395 1.924 . S
O384 Zn383 1.949 1_545 S
O384 Zn385 1.923 . S
O384 Zn386 1.950 . S
O384 Zn387 1.945 . S
Zn385 O384 1.923 . S
Zn385 O388 1.933 . S
Zn385 O391 1.941 . S
Zn385 O392 1.965 . S
Zn386 O384 1.950 . S
Zn386 O393 1.938 . S
Zn386 O394 1.906 . S
Zn386 O404 1.953 1_545 S
Zn387 O384 1.945 . S
Zn387 O389 1.932 . S
Zn387 O396 1.977 . S
Zn387 O397 1.910 . S
O388 Zn385 1.933 . S
O388 C399 1.226 . S
O389 Zn387 1.932 . S
O389 C399 1.307 . S
O390 Zn383 1.919 . S
O390 C401 1.253 1_565 S
O391 Zn385 1.941 . S
O391 C401 1.283 . S
O392 Zn385 1.965 . S
O392 C400 1.303 . S
O393 Zn386 1.938 . S
O393 C400 1.247 . S
O394 Zn386 1.906 . S
O394 C402 1.304 . S
O395 Zn383 1.924 . S
O395 C403 1.311 1_565 S
O396 Zn387 1.977 . S
O396 C402 1.272 . S
O397 Zn387 1.910 . S
O397 C403 1.231 . S
C398 O382 1.225 . S
C398 O404 1.298 . S
C399 O388 1.226 . S
C399 O389 1.307 . S
C400 O392 1.303 . S
C400 O393 1.247 . S
C401 O390 1.253 1_545 S
C401 O391 1.283 . S
C402 O394 1.304 . S
C402 O396 1.272 . S
C403 O395 1.311 1_545 S
C403 O397 1.231 . S
O404 Zn386 1.953 1_565 S
O404 C398 1.298 . S
O405 Zn406 1.953 . S
O405 C421 1.225 . S
Zn406 O405 1.953 . S
Zn406 O407 1.949 . S
Zn406 O413 1.919 . S
Zn406 O418 1.924 . S
O407 Zn406 1.949 . S
O407 Zn408 1.923 . S
O407 Zn409 1.950 . S
O407 Zn410 1.945 . S
Zn408 O407 1.923 . S
Zn408 O411 1.933 . S
Zn408 O414 1.941 . S
Zn408 O415 1.965 . S
Zn409 O407 1.950 . S
Zn409 O416 1.938 . S
Zn409 O417 1.906 . S
Zn409 O427 1.953 . S
Zn410 O407 1.945 . S
Zn410 O412 1.932 . S
Zn410 O419 1.977 . S
Zn410 O420 1.910 . S
O411 Zn408 1.933 . S
O411 C422 1.226 . S
O412 Zn410 1.932 . S
O412 C422 1.307 . S
O413 Zn406 1.919 . S
O413 C424 1.253 . S
O414 Zn408 1.941 . S
O414 C424 1.283 . S
O415 Zn408 1.965 . S
O415 C423 1.303 . S
O416 Zn409 1.938 . S
O416 C423 1.247 . S
O417 Zn409 1.906 . S
O417 C425 1.304 . S
O418 Zn406 1.924 . S
O418 C426 1.311 . S
O419 Zn410 1.977 . S
O419 C425 1.272 . S
O420 Zn410 1.910 . S
O420 C426 1.231 . S
C421 O405 1.225 . S
C421 O427 1.298 . S
C422 O411 1.226 . S
C422 O412 1.307 . S
C423 O415 1.303 . S
C423 O416 1.247 . S
C424 O413 1.253 . S
C424 O414 1.283 . S
C425 O417 1.304 . S
C425 O419 1.272 . S
C426 O418 1.311 . S
C426 O420 1.231 . S
O427 Zn409 1.953 . S
O427 C421 1.298 . S
O428 Zn429 1.953 1_455 S
O428 C444 1.225 . S
Zn429 O428 1.953 1_655 S
Zn429 O430 1.949 1_655 S
Zn429 O436 1.919 1_545 S
Zn429 O441 1.924 . S
O430 Zn429 1.949 1_455 S
O430 Zn431 1.923 1_545 S
O430 Zn432 1.950 . S
O430 Zn433 1.945 1_455 S
Zn431 O430 1.923 1_565 S
Zn431 O434 1.933 . S
Zn431 O437 1.941 . S
Zn431 O438 1.965 . S
Zn432 O430 1.950 . S
Zn432 O439 1.938 . S
Zn432 O440 1.906 . S
Zn432 O450 1.953 . S
Zn433 O430 1.945 1_655 S
Zn433 O435 1.932 . S
Zn433 O442 1.978 . S
Zn433 O443 1.910 . S
O434 Zn431 1.933 . S
O434 C445 1.226 1_465 S
O435 Zn433 1.932 . S
O435 C445 1.307 . S
O436 Zn429 1.919 1_565 S
O436 C447 1.253 . S
O437 Zn431 1.941 . S
O437 C447 1.283 1_455 S
O438 Zn431 1.965 . S
O438 C446 1.303 1_565 S
O439 Zn432 1.938 . S
O439 C446 1.247 . S
O440 Zn432 1.906 . S
O440 C448 1.304 . S
O441 Zn429 1.924 . S
O441 C449 1.311 . S
O442 Zn433 1.978 . S
O442 C448 1.269 1_655 S
O443 Zn433 1.910 . S
O443 C449 1.231 . S
C444 O428 1.225 . S
C444 O450 1.298 . S
C445 O434 1.226 1_645 S
C445 O435 1.307 . S
C446 O438 1.303 1_545 S
C446 O439 1.247 . S
C447 O436 1.253 . S
C447 O437 1.283 1_655 S
C448 O440 1.304 . S
C448 O442 1.269 1_455 S
C449 O441 1.311 . S
C449 O443 1.231 . S
O450 Zn432 1.953 . S
O450 C444 1.298 . S
O451 Zn452 1.953 . S
O451 C467 1.225 . S
Zn452 O451 1.953 . S
Zn452 O453 1.949 . S
Zn452 O459 1.919 . S
Zn452 O464 1.924 . S
O453 Zn452 1.949 . S
O453 Zn454 1.923 . S
O453 Zn455 1.950 . S
O453 Zn456 1.945 . S
Zn454 O453 1.923 . S
Zn454 O457 1.933 . S
Zn454 O460 1.941 . S
Zn454 O461 1.965 . S
Zn455 O453 1.950 . S
Zn455 O462 1.938 . S
Zn455 O463 1.906 . S
Zn455 O473 1.953 . S
Zn456 O453 1.945 . S
Zn456 O458 1.932 . S
Zn456 O465 1.977 . S
Zn456 O466 1.910 . S
O457 Zn454 1.933 . S
O457 C468 1.226 . S
O458 Zn456 1.932 . S
O458 C468 1.307 . S
O459 Zn452 1.919 . S
O459 C470 1.253 . S
O460 Zn454 1.941 . S
O460 C470 1.283 . S
O461 Zn454 1.965 . S
O461 C469 1.303 . S
O462 Zn455 1.938 . S
O462 C469 1.247 . S
O463 Zn455 1.906 . S
O463 C471 1.304 . S
O464 Zn452 1.924 . S
O464 C472 1.311 . S
O465 Zn456 1.977 . S
O465 C471 1.272 . S
O466 Zn456 1.910 . S
O466 C472 1.231 . S
C467 O451 1.225 . S
C467 O473 1.298 . S
C468 O457 1.226 . S
C468 O458 1.307 . S
C469 O461 1.303 . S
C469 O462 1.247 . S
C470 O459 1.253 . S
C470 O460 1.283 . S
C471 O463 1.304 . S
C471 O465 1.272 . S
C472 O464 1.311 . S
C472 O466 1.231 . S
O473 Zn455 1.953 . S
O473 C467 1.298 . S
O474 Zn475 1.953 . S
O474 C490 1.225 . S
Zn475 O474 1.953 . S
Zn475 O476 1.949 . S
Zn475 O482 1.919 . S
Zn475 O487 1.924 . S
O476 Zn475 1.949 . S
O476 Zn477 1.923 1_545 S
O476 Zn478 1.950 . S
O476 Zn479 1.945 . S
Zn477 O476 1.923 1_565 S
Zn477 O480 1.933 1_554 S
Zn477 O483 1.941 . S
Zn477 O484 1.965 . S
Zn478 O476 1.950 . S
Zn478 O485 1.938 1_545 S
Zn478 O486 1.906 . S
Zn478 O496 1.953 . S
Zn479 O476 1.945 . S
Zn479 O481 1.932 1_554 S
Zn479 O488 1.977 . S
Zn479 O489 1.910 . S
O480 Zn477 1.933 1_556 S
O480 C491 1.226 1_565 S
O481 Zn479 1.932 1_556 S
O481 C491 1.307 . S
O482 Zn475 1.919 . S
O482 C493 1.253 1_545 S
O483 Zn477 1.941 . S
O483 C493 1.283 . S
O484 Zn477 1.965 . S
O484 C492 1.303 . S
O485 Zn478 1.938 1_565 S
O485 C492 1.247 . S
O486 Zn478 1.906 . S
O486 C494 1.304 . S
O487 Zn475 1.924 . S
O487 C495 1.311 . S
O488 Zn479 1.977 . S
O488 C494 1.272 . S
O489 Zn479 1.910 . S
O489 C495 1.231 . S
C490 O474 1.225 . S
C490 O496 1.298 . S
C491 O480 1.226 1_545 S
C491 O481 1.307 . S
C492 O484 1.303 . S
C492 O485 1.247 . S
C493 O482 1.253 1_565 S
C493 O483 1.283 . S
C494 O486 1.304 . S
C494 O488 1.272 . S
C495 O487 1.311 . S
C495 O489 1.231 . S
O496 Zn478 1.953 . S
O496 C490 1.298 . S
O497 Zn498 1.953 . S
O497 C513 1.225 . S
Zn498 O497 1.953 . S
Zn498 O499 1.949 . S
Zn498 O505 1.919 . S
Zn498 O510 1.924 . S
O499 Zn498 1.949 . S
O499 Zn500 1.923 . S
O499 Zn501 1.950 . S
O499 Zn502 1.945 . S
Zn500 O499 1.923 . S
Zn500 O503 1.933 . S
Zn500 O506 1.941 . S
Zn500 O507 1.965 . S
Zn501 O499 1.950 . S
Zn501 O508 1.938 . S
Zn501 O509 1.906 . S
Zn501 O519 1.953 . S
Zn502 O499 1.945 . S
Zn502 O504 1.932 . S
Zn502 O511 1.977 . S
Zn502 O512 1.910 . S
O503 Zn500 1.933 . S
O503 C514 1.226 . S
O504 Zn502 1.932 . S
O504 C514 1.307 . S
O505 Zn498 1.919 . S
O505 C516 1.253 . S
O506 Zn500 1.941 . S
O506 C516 1.283 . S
O507 Zn500 1.965 . S
O507 C515 1.303 . S
O508 Zn501 1.938 . S
O508 C515 1.247 . S
O509 Zn501 1.906 . S
O509 C517 1.304 . S
O510 Zn498 1.924 . S
O510 C518 1.311 . S
O511 Zn502 1.977 . S
O511 C517 1.272 . S
O512 Zn502 1.910 . S
O512 C518 1.231 . S
C513 O497 1.225 . S
C513 O519 1.298 . S
C514 O503 1.226 . S
C514 O504 1.307 . S
C515 O507 1.303 . S
C515 O508 1.247 . S
C516 O505 1.253 . S
C516 O506 1.283 . S
C517 O509 1.304 . S
C517 O511 1.272 . S
C518 O510 1.311 . S
C518 O512 1.231 . S
O519 Zn501 1.953 . S
O519 C513 1.298 . S
O520 Zn521 1.953 1_556 S
O520 C536 1.225 . S
Zn521 O520 1.953 1_554 S
Zn521 O522 1.949 . S
Zn521 O528 1.919 . S
Zn521 O533 1.924 . S
O522 Zn521 1.949 . S
O522 Zn523 1.923 . S
O522 Zn524 1.950 . S
O522 Zn525 1.945 . S
Zn523 O522 1.923 . S
Zn523 O526 1.933 . S
Zn523 O529 1.941 . S
Zn523 O530 1.965 . S
Zn524 O522 1.950 . S
Zn524 O531 1.938 . S
Zn524 O532 1.906 . S
Zn524 O542 1.953 . S
Zn525 O522 1.945 . S
Zn525 O527 1.932 . S
Zn525 O534 1.977 . S
Zn525 O535 1.910 . S
O526 Zn523 1.933 . S
O526 C537 1.226 . S
O527 Zn525 1.932 . S
O527 C537 1.307 . S
O528 Zn521 1.919 . S
O528 C539 1.253 . S
O529 Zn523 1.941 . S
O529 C539 1.283 . S
O530 Zn523 1.965 . S
O530 C538 1.303 . S
O531 Zn524 1.938 . S
O531 C538 1.247 . S
O532 Zn524 1.906 . S
O532 C540 1.304 . S
O533 Zn521 1.924 . S
O533 C541 1.311 . S
O534 Zn525 1.977 . S
O534 C540 1.272 . S
O535 Zn525 1.910 . S
O535 C541 1.231 . S
C536 O520 1.225 . S
C536 O542 1.298 1_556 S
C537 O526 1.226 . S
C537 O527 1.307 . S
C538 O530 1.303 . S
C538 O531 1.247 . S
C539 O528 1.253 . S
C539 O529 1.283 . S
C540 O532 1.304 . S
C540 O534 1.272 . S
C541 O533 1.311 . S
C541 O535 1.231 . S
O542 Zn524 1.953 . S
O542 C536 1.298 1_554 S
O543 Zn544 1.953 . S
O543 C559 1.225 . S
Zn544 O543 1.953 . S
Zn544 O545 1.949 . S
Zn544 O551 1.919 . S
Zn544 O556 1.924 . S
O545 Zn544 1.949 . S
O545 Zn546 1.923 . S
O545 Zn547 1.950 . S
O545 Zn548 1.945 . S
Zn546 O545 1.923 . S
Zn546 O549 1.933 . S
Zn546 O552 1.941 . S
Zn546 O553 1.965 . S
Zn547 O545 1.950 . S
Zn547 O554 1.938 . S
Zn547 O555 1.906 . S
Zn547 O565 1.953 . S
Zn548 O545 1.945 . S
Zn548 O550 1.932 . S
Zn548 O557 1.977 . S
Zn548 O558 1.910 . S
O549 Zn546 1.933 . S
O549 C560 1.226 . S
O550 Zn548 1.932 . S
O550 C560 1.307 . S
O551 Zn544 1.919 . S
O551 C562 1.253 . S
O552 Zn546 1.941 . S
O552 C562 1.283 . S
O553 Zn546 1.965 . S
O553 C561 1.303 . S
O554 Zn547 1.938 . S
O554 C561 1.247 . S
O555 Zn547 1.906 . S
O555 C563 1.304 . S
O556 Zn544 1.924 . S
O556 C564 1.311 . S
O557 Zn548 1.977 . S
O557 C563 1.272 . S
O558 Zn548 1.910 . S
O558 C564 1.231 . S
C559 O543 1.225 . S
C559 O565 1.298 . S
C560 O549 1.226 . S
C560 O550 1.307 . S
C561 O553 1.303 . S
C561 O554 1.247 . S
C562 O551 1.253 . S
C562 O552 1.283 . S
C563 O555 1.304 . S
C563 O557 1.272 . S
C564 O556 1.311 . S
C564 O558 1.231 . S
O565 Zn547 1.953 . S
O565 C559 1.298 . S
O566 Zn567 1.953 . S
O566 C582 1.225 . S
Zn567 O566 1.953 . S
Zn567 O568 1.949 . S
Zn567 O574 1.919 . S
Zn567 O579 1.924 . S
O568 Zn567 1.949 . S
O568 Zn569 1.923 . S
O568 Zn570 1.950 1_455 S
O568 Zn571 1.945 1_455 S
Zn569 O568 1.923 . S
Zn569 O572 1.933 1_455 S
Zn569 O575 1.941 . S
Zn569 O576 1.965 1_455 S
Zn570 O568 1.950 1_655 S
Zn570 O577 1.938 . S
Zn570 O578 1.906 . S
Zn570 O588 1.953 1_655 S
Zn571 O568 1.945 1_655 S
Zn571 O573 1.932 . S
Zn571 O580 1.977 . S
Zn571 O581 1.910 1_655 S
O572 Zn569 1.933 1_655 S
O572 C583 1.226 . S
O573 Zn571 1.932 . S
O573 C583 1.307 . S
O574 Zn567 1.919 . S
O574 C585 1.253 . S
O575 Zn569 1.941 . S
O575 C585 1.283 . S
O576 Zn569 1.965 1_655 S
O576 C584 1.303 . S
O577 Zn570 1.938 . S
O577 C584 1.247 . S
O578 Zn570 1.906 . S
O578 C586 1.304 . S
O579 Zn567 1.924 . S
O579 C587 1.311 . S
O580 Zn571 1.977 . S
O580 C586 1.272 . S
O581 Zn571 1.910 1_455 S
O581 C587 1.231 . S
C582 O566 1.225 . S
C582 O588 1.298 . S
C583 O572 1.226 . S
C583 O573 1.307 . S
C584 O576 1.303 . S
C584 O577 1.247 . S
C585 O574 1.253 . S
C585 O575 1.283 . S
C586 O578 1.304 . S
C586 O580 1.272 . S
C587 O579 1.311 . S
C587 O581 1.231 . S
O588 Zn570 1.953 1_455 S
O588 C582 1.298 . S
O589 Zn590 1.953 . S
O589 C605 1.225 . S
Zn590 O589 1.953 . S
Zn590 O591 1.949 . S
Zn590 O597 1.919 . S
Zn590 O602 1.924 . S
O591 Zn590 1.949 . S
O591 Zn592 1.923 . S
O591 Zn593 1.950 . S
O591 Zn594 1.945 . S
Zn592 O591 1.923 . S
Zn592 O595 1.933 . S
Zn592 O598 1.941 . S
Zn592 O599 1.965 . S
Zn593 O591 1.950 . S
Zn593 O600 1.938 . S
Zn593 O601 1.906 . S
Zn593 O611 1.953 . S
Zn594 O591 1.945 . S
Zn594 O596 1.932 . S
Zn594 O603 1.977 . S
Zn594 O604 1.910 . S
O595 Zn592 1.933 . S
O595 C606 1.226 . S
O596 Zn594 1.932 . S
O596 C606 1.307 . S
O597 Zn590 1.919 . S
O597 C608 1.253 . S
O598 Zn592 1.941 . S
O598 C608 1.283 . S
O599 Zn592 1.965 . S
O599 C607 1.303 . S
O600 Zn593 1.938 . S
O600 C607 1.247 . S
O601 Zn593 1.906 . S
O601 C609 1.304 . S
O602 Zn590 1.924 . S
O602 C610 1.311 . S
O603 Zn594 1.977 . S
O603 C609 1.272 . S
O604 Zn594 1.910 . S
O604 C610 1.231 . S
C605 O589 1.225 . S
C605 O611 1.298 . S
C606 O595 1.226 . S
C606 O596 1.307 . S
C607 O599 1.303 . S
C607 O600 1.247 . S
C608 O597 1.253 . S
C608 O598 1.283 . S
C609 O601 1.304 . S
C609 O603 1.272 . S
C610 O602 1.311 . S
C610 O604 1.231 . S
O611 Zn593 1.953 . S
O611 C605 1.298 . S
O612 Zn613 1.953 . S
O612 C628 1.225 . S
Zn613 O612 1.953 . S
Zn613 O614 1.949 . S
Zn613 O620 1.919 . S
Zn613 O625 1.924 . S
O614 Zn613 1.949 . S
O614 Zn615 1.923 . S
O614 Zn616 1.950 . S
O614 Zn617 1.945 . S
Zn615 O614 1.923 . S
Zn615 O618 1.933 . S
Zn615 O621 1.941 . S
Zn615 O622 1.965 . S
Zn616 O614 1.950 . S
Zn616 O623 1.938 . S
Zn616 O624 1.906 . S
Zn616 O634 1.953 . S
Zn617 O614 1.945 . S
Zn617 O619 1.932 . S
Zn617 O626 1.977 . S
Zn617 O627 1.910 . S
O618 Zn615 1.933 . S
O618 C629 1.226 . S
O619 Zn617 1.932 . S
O619 C629 1.307 . S
O620 Zn613 1.919 . S
O620 C631 1.253 . S
O621 Zn615 1.941 . S
O621 C631 1.283 . S
O622 Zn615 1.965 . S
O622 C630 1.303 . S
O623 Zn616 1.938 . S
O623 C630 1.247 . S
O624 Zn616 1.906 . S
O624 C632 1.304 . S
O625 Zn613 1.924 . S
O625 C633 1.311 . S
O626 Zn617 1.977 . S
O626 C632 1.272 . S
O627 Zn617 1.910 . S
O627 C633 1.231 . S
C628 O612 1.225 . S
C628 O634 1.298 . S
C629 O618 1.226 . S
C629 O619 1.307 . S
C630 O622 1.303 . S
C630 O623 1.247 . S
C631 O620 1.253 . S
C631 O621 1.283 . S
C632 O624 1.304 . S
C632 O626 1.272 . S
C633 O625 1.311 . S
C633 O627 1.231 . S
O634 Zn616 1.953 . S
O634 C628 1.298 . S
O635 Zn636 1.953 . S
O635 C651 1.225 . S
Zn636 O635 1.953 . S
Zn636 O637 1.949 . S
Zn636 O643 1.919 . S
Zn636 O648 1.924 . S
O637 Zn636 1.949 . S
O637 Zn638 1.923 . S
O637 Zn639 1.950 . S
O637 Zn640 1.945 . S
Zn638 O637 1.923 . S
Zn638 O641 1.933 . S
Zn638 O644 1.941 . S
Zn638 O645 1.965 . S
Zn639 O637 1.950 . S
Zn639 O646 1.938 . S
Zn639 O647 1.906 . S
Zn639 O657 1.953 . S
Zn640 O637 1.945 . S
Zn640 O642 1.932 . S
Zn640 O649 1.977 . S
Zn640 O650 1.910 . S
O641 Zn638 1.933 . S
O641 C652 1.226 . S
O642 Zn640 1.932 . S
O642 C652 1.307 . S
O643 Zn636 1.919 . S
O643 C654 1.253 . S
O644 Zn638 1.941 . S
O644 C654 1.283 . S
O645 Zn638 1.965 . S
O645 C653 1.303 . S
O646 Zn639 1.938 . S
O646 C653 1.247 . S
O647 Zn639 1.906 . S
O647 C655 1.304 . S
O648 Zn636 1.924 . S
O648 C656 1.311 . S
O649 Zn640 1.977 . S
O649 C655 1.272 . S
O650 Zn640 1.910 . S
O650 C656 1.231 . S
C651 O635 1.225 . S
C651 O657 1.298 . S
C652 O641 1.226 . S
C652 O642 1.307 . S
C653 O645 1.303 . S
C653 O646 1.247 . S
C654 O643 1.253 . S
C654 O644 1.283 . S
C655 O647 1.304 . S
C655 O649 1.272 . S
C656 O648 1.311 . S
C656 O650 1.231 . S
O657 Zn639 1.953 . S
O657 C651 1.298 . S
O658 Zn659 1.953 . S
O658 C674 1.225 . S
Zn659 O658 1.953 . S
Zn659 O660 1.949 . S
Zn659 O666 1.919 . S
Zn659 O671 1.924 . S
O660 Zn659 1.949 . S
O660 Zn661 1.923 . S
O660 Zn662 1.950 . S
O660 Zn663 1.945 . S
Zn661 O660 1.923 . S
Zn661 O664 1.933 . S
Zn661 O667 1.941 . S
Zn661 O668 1.965 . S
Zn662 O660 1.950 . S
Zn662 O669 1.938 . S
Zn662 O670 1.906 . S
Zn662 O680 1.953 . S
Zn663 O660 1.945 . S
Zn663 O665 1.932 . S
Zn663 O672 1.977 . S
Zn663 O673 1.910 . S
O664 Zn661 1.933 . S
O664 C675 1.226 . S
O665 Zn663 1.932 . S
O665 C675 1.307 . S
O666 Zn659 1.919 . S
O666 C677 1.253 . S
O667 Zn661 1.941 . S
O667 C677 1.283 . S
O668 Zn661 1.965 . S
O668 C676 1.303 . S
O669 Zn662 1.938 . S
O669 C676 1.247 . S
O670 Zn662 1.906 . S
O670 C678 1.304 . S
O671 Zn659 1.924 . S
O671 C679 1.311 . S
O672 Zn663 1.977 . S
O672 C678 1.272 . S
O673 Zn663 1.910 . S
O673 C679 1.231 . S
C674 O658 1.225 . S
C674 O680 1.298 . S
C675 O664 1.226 . S
C675 O665 1.307 . S
C676 O668 1.303 . S
C676 O669 1.247 . S
C677 O666 1.253 . S
C677 O667 1.283 . S
C678 O670 1.304 . S
C678 O672 1.272 . S
C679 O671 1.311 . S
C679 O673 1.231 . S
O680 Zn662 1.953 . S
O680 C674 1.298 . S
O681 Zn682 1.953 . S
O681 C697 1.225 . S
Zn682 O681 1.953 . S
Zn682 O683 1.949 . S
Zn682 O689 1.919 1_455 S
Zn682 O694 1.924 1_554 S
O683 Zn682 1.949 . S
O683 Zn684 1.923 1_455 S
O683 Zn685 1.950 . S
O683 Zn686 1.945 . S
Zn684 O683 1.923 1_655 S
Zn684 O687 1.933 . S
Zn684 O690 1.941 . S
Zn684 O691 1.965 . S
Zn685 O683 1.950 . S
Zn685 O692 1.938 . S
Zn685 O693 1.906 . S
Zn685 O703 1.953 . S
Zn686 O683 1.945 . S
Zn686 O688 1.932 . S
Zn686 O695 1.977 . S
Zn686 O696 1.910 1_554 S
O687 Zn684 1.933 . S
O687 C698 1.226 1_655 S
O688 Zn686 1.932 . S
O688 C698 1.307 . S
O689 Zn682 1.919 1_655 S
O689 C700 1.253 . S
O690 Zn684 1.941 . S
O690 C700 1.283 . S
O691 Zn684 1.965 . S
O691 C699 1.303 1_655 S
O692 Zn685 1.938 . S
O692 C699 1.247 . S
O693 Zn685 1.906 . S
O693 C701 1.304 . S
O694 Zn682 1.924 1_556 S
O694 C702 1.311 . S
O695 Zn686 1.977 . S
O695 C701 1.272 . S
O696 Zn686 1.910 1_556 S
O696 C702 1.231 . S
C697 O681 1.225 . S
C697 O703 1.298 . S
C698 O687 1.226 1_455 S
C698 O688 1.307 . S
C699 O691 1.303 1_455 S
C699 O692 1.247 . S
C700 O689 1.253 . S
C700 O690 1.283 . S
C701 O693 1.304 . S
C701 O695 1.272 . S
C702 O694 1.311 . S
C702 O696 1.231 . S
O703 Zn685 1.953 . S
O703 C697 1.298 . S
C704 C705 1.349 . S
C704 C706 1.327 . S
C704 H729 0.950 . S
C705 C704 1.349 . S
C705 C721 1.341 1_455 S
C706 C704 1.327 . S
C706 C725 1.429 . S
C706 H730 0.950 . S
C707 C724 1.574 . S
C707 C726 1.368 1_655 S
C707 H731 0.949 . S
H708 C712 0.949 . S
C709 C710 1.356 . S
C709 C711 1.327 . S
C709 H732 0.950 . S
C710 C709 1.356 . S
C710 C722 1.342 1_655 S
C711 C709 1.327 . S
C711 C727 1.429 1_655 S
C711 H733 0.950 . S
C712 H708 0.949 . S
C712 C720 1.574 . S
C712 C728 1.368 . S
H713 C721 0.957 . S
H714 C719 0.950 . S
H715 C720 0.949 . S
H716 C722 0.950 . S
H717 C723 0.950 . S
H718 C724 0.949 . S
C719 H714 0.950 . S
C719 C721 1.328 . S
C719 C725 1.429 1_655 S
C720 C712 1.574 . S
C720 H715 0.949 . S
C720 C726 1.368 . S
C721 C705 1.341 1_655 S
C721 H713 0.957 . S
C721 C719 1.328 . S
C722 C710 1.342 1_455 S
C722 H716 0.950 . S
C722 C723 1.327 . S
C723 H717 0.950 . S
C723 C722 1.327 . S
C723 C727 1.429 . S
C724 C707 1.574 . S
C724 H718 0.949 . S
C724 C728 1.368 1_655 S
C725 C706 1.429 . S
C725 C719 1.429 1_455 S
C725 C726 1.523 . S
C726 C707 1.368 1_455 S
C726 C720 1.368 . S
C726 C725 1.523 . S
C727 C711 1.429 1_455 S
C727 C723 1.429 . S
C727 C728 1.523 . S
C728 C712 1.368 . S
C728 C724 1.368 1_455 S
C728 C727 1.523 . S
H729 C704 0.950 . S
H730 C706 0.950 . S
H731 C707 0.949 . S
H732 C709 0.950 . S
H733 C711 0.950 . S
C734 C735 1.349 . S
C734 C736 1.327 . S
C734 H759 0.950 . S
C735 C734 1.349 . S
C735 C751 1.349 . S
C736 C734 1.327 . S
C736 C755 1.429 . S
C736 H760 0.950 . S
C737 C754 1.574 . S
C737 C756 1.368 . S
C737 H761 0.949 . S
H738 C742 0.949 . S
C739 C740 1.349 . S
C739 C741 1.327 . S
C739 H762 0.950 . S
C740 C739 1.349 . S
C740 C752 1.349 . S
C741 C739 1.327 . S
C741 C757 1.429 . S
C741 H763 0.950 . S
C742 H738 0.949 . S
C742 C750 1.574 . S
C742 C758 1.368 . S
H743 C751 0.950 . S
H744 C749 0.950 . S
H745 C750 0.949 . S
H746 C752 0.950 . S
H747 C753 0.950 . S
H748 C754 0.949 . S
C749 H744 0.950 . S
C749 C751 1.327 . S
C749 C755 1.429 . S
C750 C742 1.574 . S
C750 H745 0.949 . S
C750 C756 1.368 . S
C751 C735 1.349 . S
C751 H743 0.950 . S
C751 C749 1.327 . S
C752 C740 1.349 . S
C752 H746 0.950 . S
C752 C753 1.327 . S
C753 H747 0.950 . S
C753 C752 1.327 . S
C753 C757 1.429 . S
C754 C737 1.574 . S
C754 H748 0.949 . S
C754 C758 1.368 . S
C755 C736 1.429 . S
C755 C749 1.429 . S
C755 C756 1.523 . S
C756 C737 1.368 . S
C756 C750 1.368 . S
C756 C755 1.523 . S
C757 C741 1.429 . S
C757 C753 1.429 . S
C757 C758 1.523 . S
C758 C742 1.368 . S
C758 C754 1.368 . S
C758 C757 1.523 . S
H759 C734 0.950 . S
H760 C736 0.950 . S
H761 C737 0.949 . S
H762 C739 0.950 . S
H763 C741 0.950 . S
C764 C765 1.349 . S
C764 C766 1.327 . S
C764 H789 0.950 . S
C765 C764 1.349 . S
C765 C781 1.349 . S
C766 C764 1.327 . S
C766 C785 1.429 . S
C766 H790 0.950 . S
C767 C784 1.574 . S
C767 C786 1.368 . S
C767 H791 0.949 . S
H768 C772 0.949 . S
C769 C770 1.349 . S
C769 C771 1.327 . S
C769 H792 0.950 . S
C770 C769 1.349 . S
C770 C782 1.349 . S
C771 C769 1.327 . S
C771 C787 1.429 . S
C771 H793 0.950 . S
C772 H768 0.949 . S
C772 C780 1.574 . S
C772 C788 1.368 . S
H773 C781 0.950 . S
H774 C779 0.950 . S
H775 C780 0.949 . S
H776 C782 0.950 . S
H777 C783 0.950 . S
H778 C784 0.949 . S
C779 H774 0.950 . S
C779 C781 1.327 . S
C779 C785 1.429 . S
C780 C772 1.574 . S
C780 H775 0.949 . S
C780 C786 1.368 . S
C781 C765 1.349 . S
C781 H773 0.950 . S
C781 C779 1.327 . S
C782 C770 1.349 . S
C782 H776 0.950 . S
C782 C783 1.327 . S
C783 H777 0.950 . S
C783 C782 1.327 . S
C783 C787 1.429 . S
C784 C767 1.574 . S
C784 H778 0.949 . S
C784 C788 1.368 . S
C785 C766 1.429 . S
C785 C779 1.429 . S
C785 C786 1.523 . S
C786 C767 1.368 . S
C786 C780 1.368 . S
C786 C785 1.523 . S
C787 C771 1.429 . S
C787 C783 1.429 . S
C787 C788 1.523 . S
C788 C772 1.368 . S
C788 C784 1.368 . S
C788 C787 1.523 . S
H789 C764 0.950 . S
H790 C766 0.950 . S
H791 C767 0.949 . S
H792 C769 0.950 . S
H793 C771 0.950 . S
C794 C795 1.349 . S
C794 C796 1.327 . S
C794 H819 0.950 . S
C795 C794 1.349 . S
C795 C811 1.349 . S
C796 C794 1.327 . S
C796 C815 1.429 . S
C796 H820 0.950 . S
C797 C814 1.574 . S
C797 C816 1.368 . S
C797 H821 0.949 . S
H798 C802 0.949 . S
C799 C800 1.349 . S
C799 C801 1.327 . S
C799 H822 0.950 . S
C800 C799 1.349 . S
C800 C812 1.349 . S
C801 C799 1.327 . S
C801 C817 1.429 . S
C801 H823 0.950 . S
C802 H798 0.949 . S
C802 C810 1.574 . S
C802 C818 1.368 . S
H803 C811 0.950 . S
H804 C809 0.950 . S
H805 C810 0.949 . S
H806 C812 0.950 . S
H807 C813 0.950 . S
H808 C814 0.949 . S
C809 H804 0.950 . S
C809 C811 1.327 . S
C809 C815 1.429 . S
C810 C802 1.574 . S
C810 H805 0.949 . S
C810 C816 1.368 . S
C811 C795 1.349 . S
C811 H803 0.950 . S
C811 C809 1.327 . S
C812 C800 1.349 . S
C812 H806 0.950 . S
C812 C813 1.327 . S
C813 H807 0.950 . S
C813 C812 1.327 . S
C813 C817 1.429 . S
C814 C797 1.574 . S
C814 H808 0.949 . S
C814 C818 1.368 . S
C815 C796 1.429 . S
C815 C809 1.429 . S
C815 C816 1.523 . S
C816 C797 1.368 . S
C816 C810 1.368 . S
C816 C815 1.523 . S
C817 C801 1.429 . S
C817 C813 1.429 . S
C817 C818 1.523 . S
C818 C802 1.368 . S
C818 C814 1.368 . S
C818 C817 1.523 . S
H819 C794 0.950 . S
H820 C796 0.950 . S
H821 C797 0.949 . S
H822 C799 0.950 . S
H823 C801 0.950 . S
C824 C825 1.349 . S
C824 C826 1.327 . S
C824 H849 0.950 . S
C825 C824 1.349 . S
C825 C841 1.349 . S
C826 C824 1.327 . S
C826 C845 1.429 . S
C826 H850 0.950 . S
C827 C844 1.574 . S
C827 C846 1.373 . S
C827 H851 0.949 . S
H828 C832 0.949 . S
C829 C830 1.349 . S
C829 C831 1.327 . S
C829 H852 0.950 . S
C830 C829 1.349 . S
C830 C842 1.349 . S
C831 C829 1.327 . S
C831 C847 1.429 . S
C831 H853 0.950 . S
C832 H828 0.949 . S
C832 C840 1.569 1_655 S
C832 C848 1.368 . S
H833 C841 0.950 . S
H834 C839 0.948 1_655 S
H835 C840 0.955 . S
H836 C842 0.950 . S
H837 C843 0.950 . S
H838 C844 0.949 . S
C839 H834 0.948 1_455 S
C839 C841 1.330 . S
C839 C845 1.428 . S
C840 C832 1.569 1_455 S
C840 H835 0.955 . S
C840 C846 1.369 1_455 S
C841 C825 1.349 . S
C841 H833 0.950 . S
C841 C839 1.330 . S
C842 C830 1.349 . S
C842 H836 0.950 . S
C842 C843 1.327 . S
C843 H837 0.950 . S
C843 C842 1.327 . S
C843 C847 1.429 . S
C844 C827 1.574 . S
C844 H838 0.949 . S
C844 C848 1.368 . S
C845 C826 1.429 . S
C845 C839 1.428 . S
C845 C846 1.518 1_455 S
C846 C827 1.373 . S
C846 C840 1.369 1_655 S
C846 C845 1.518 1_655 S
C847 C831 1.429 . S
C847 C843 1.429 . S
C847 C848 1.523 . S
C848 C832 1.368 . S
C848 C844 1.368 . S
C848 C847 1.523 . S
H849 C824 0.950 . S
H850 C826 0.950 . S
H851 C827 0.949 . S
H852 C829 0.950 . S
H853 C831 0.950 . S
C854 C855 1.349 . S
C854 C856 1.327 . S
C854 H879 0.950 . S
C855 C854 1.349 . S
C855 C871 1.349 . S
C856 C854 1.327 . S
C856 C875 1.429 . S
C856 H880 0.950 . S
C857 C874 1.574 . S
C857 C876 1.368 . S
C857 H881 0.949 . S
H858 C862 0.949 . S
C859 C860 1.349 . S
C859 C861 1.327 . S
C859 H882 0.950 . S
C860 C859 1.349 . S
C860 C872 1.349 . S
C861 C859 1.327 . S
C861 C877 1.429 . S
C861 H883 0.950 . S
C862 H858 0.949 . S
C862 C870 1.574 . S
C862 C878 1.368 . S
H863 C871 0.950 . S
H864 C869 0.950 . S
H865 C870 0.949 . S
H866 C872 0.950 . S
H867 C873 0.950 . S
H868 C874 0.949 . S
C869 H864 0.950 . S
C869 C871 1.327 . S
C869 C875 1.429 . S
C870 C862 1.574 . S
C870 H865 0.949 . S
C870 C876 1.368 . S
C871 C855 1.349 . S
C871 H863 0.950 . S
C871 C869 1.327 . S
C872 C860 1.349 . S
C872 H866 0.950 . S
C872 C873 1.327 . S
C873 H867 0.950 . S
C873 C872 1.327 . S
C873 C877 1.429 . S
C874 C857 1.574 . S
C874 H868 0.949 . S
C874 C878 1.368 . S
C875 C856 1.429 . S
C875 C869 1.429 . S
C875 C876 1.523 . S
C876 C857 1.368 . S
C876 C870 1.368 . S
C876 C875 1.523 . S
C877 C861 1.429 . S
C877 C873 1.429 . S
C877 C878 1.523 . S
C878 C862 1.368 . S
C878 C874 1.368 . S
C878 C877 1.523 . S
H879 C854 0.950 . S
H880 C856 0.950 . S
H881 C857 0.949 . S
H882 C859 0.950 . S
H883 C861 0.950 . S
C884 C885 1.349 . S
C884 C886 1.327 . S
C884 H909 0.950 . S
C885 C884 1.349 . S
C885 C901 1.349 . S
C886 C884 1.327 . S
C886 C905 1.429 . S
C886 H910 0.950 . S
C887 C904 1.574 . S
C887 C906 1.368 . S
C887 H911 0.949 . S
H888 C892 1.005 . S
C889 C890 1.349 1_556 S
C889 C891 1.327 . S
C889 H912 0.950 . S
C890 C889 1.349 1_554 S
C890 C902 1.349 . S
C891 C889 1.327 . S
C891 C907 1.429 . S
C891 H913 0.950 . S
C892 H888 1.005 . S
C892 C900 1.574 . S
C892 C908 1.368 . S
H893 C901 0.950 . S
H894 C899 0.950 . S
H895 C900 0.949 . S
H896 C902 0.950 . S
H897 C903 0.950 . S
H898 C904 0.949 . S
C899 H894 0.950 . S
C899 C901 1.327 . S
C899 C905 1.429 . S
C900 C892 1.574 . S
C900 H895 0.949 . S
C900 C906 1.368 . S
C901 C885 1.349 . S
C901 H893 0.950 . S
C901 C899 1.327 . S
C902 C890 1.349 . S
C902 H896 0.950 . S
C902 C903 1.327 . S
C903 H897 0.950 . S
C903 C902 1.327 . S
C903 C907 1.429 1_554 S
C904 C887 1.574 . S
C904 H898 0.949 . S
C904 C908 1.368 . S
C905 C886 1.429 . S
C905 C899 1.429 . S
C905 C906 1.523 . S
C906 C887 1.368 . S
C906 C900 1.368 . S
C906 C905 1.523 . S
C907 C891 1.429 . S
C907 C903 1.429 1_556 S
C907 C908 1.523 . S
C908 C892 1.368 . S
C908 C904 1.368 . S
C908 C907 1.523 . S
H909 C884 0.950 . S
H910 C886 0.950 . S
H911 C887 0.949 . S
H912 C889 0.950 . S
H913 C891 0.950 . S
C914 C915 1.349 . S
C914 C916 1.327 . S
C914 H939 0.950 . S
C915 C914 1.349 . S
C915 C931 1.349 . S
C916 C914 1.327 . S
C916 C935 1.429 . S
C916 H940 0.950 . S
C917 C934 1.574 . S
C917 C936 1.368 . S
C917 H941 0.949 . S
H918 C922 0.949 . S
C919 C920 1.349 . S
C919 C921 1.327 . S
C919 H942 0.950 . S
C920 C919 1.349 . S
C920 C932 1.349 . S
C921 C919 1.327 . S
C921 C937 1.429 . S
C921 H943 0.950 . S
C922 H918 0.949 . S
C922 C930 1.574 . S
C922 C938 1.368 . S
H923 C931 0.950 . S
H924 C929 0.950 . S
H925 C930 0.949 . S
H926 C932 0.950 . S
H927 C933 0.950 . S
H928 C934 0.949 . S
C929 H924 0.950 . S
C929 C931 1.327 . S
C929 C935 1.429 . S
C930 C922 1.574 . S
C930 H925 0.949 . S
C930 C936 1.368 . S
C931 C915 1.349 . S
C931 H923 0.950 . S
C931 C929 1.327 . S
C932 C920 1.349 . S
C932 H926 0.950 . S
C932 C933 1.327 . S
C933 H927 0.950 . S
C933 C932 1.327 . S
C933 C937 1.429 . S
C934 C917 1.574 . S
C934 H928 0.949 . S
C934 C938 1.368 . S
C935 C916 1.429 . S
C935 C929 1.429 . S
C935 C936 1.523 . S
C936 C917 1.368 . S
C936 C930 1.368 . S
C936 C935 1.523 . S
C937 C921 1.429 . S
C937 C933 1.429 . S
C937 C938 1.523 . S
C938 C922 1.368 . S
C938 C934 1.368 . S
C938 C937 1.523 . S
H939 C914 0.950 . S
H940 C916 0.950 . S
H941 C917 0.949 . S
H942 C919 0.950 . S
H943 C921 0.950 . S
C944 C945 1.349 . S
C944 C946 1.327 . S
C944 H969 0.950 . S
C945 C944 1.349 . S
C945 C961 1.344 1_545 S
C946 C944 1.327 . S
C946 C965 1.429 . S
C946 H970 0.950 . S
C947 C964 1.574 . S
C947 C966 1.368 1_565 S
C947 H971 0.949 . S
H948 C952 0.949 . S
C949 C950 1.372 . S
C949 C951 1.327 . S
C949 H972 0.950 . S
C950 C949 1.372 . S
C950 C962 1.325 1_565 S
C951 C949 1.327 . S
C951 C967 1.429 1_565 S
C951 H973 0.950 . S
C952 H948 0.949 . S
C952 C960 1.574 . S
C952 C968 1.368 . S
H953 C961 0.954 . S
H954 C959 0.950 . S
H955 C960 0.949 . S
H956 C962 0.950 . S
H957 C963 0.950 . S
H958 C964 0.949 . S
C959 H954 0.950 . S
C959 C961 1.328 . S
C959 C965 1.429 1_565 S
C960 C952 1.574 . S
C960 H955 0.949 . S
C960 C966 1.368 . S
C961 C945 1.344 1_565 S
C961 H953 0.954 . S
C961 C959 1.328 . S
C962 C950 1.325 1_545 S
C962 H956 0.950 . S
C962 C963 1.327 . S
C963 H957 0.950 . S
C963 C962 1.327 . S
C963 C967 1.429 . S
C964 C947 1.574 . S
C964 H958 0.949 . S
C964 C968 1.368 1_565 S
C965 C946 1.429 . S
C965 C959 1.429 1_545 S
C965 C966 1.523 . S
C966 C947 1.368 1_545 S
C966 C960 1.368 . S
C966 C965 1.523 . S
C967 C951 1.429 1_545 S
C967 C963 1.429 . S
C967 C968 1.523 . S
C968 C952 1.368 . S
C968 C964 1.368 1_545 S
C968 C967 1.523 . S
H969 C944 0.950 . S
H970 C946 0.950 . S
H971 C947 0.949 . S
H972 C949 0.950 . S
H973 C951 0.950 . S
C974 C975 1.349 . S
C974 C976 1.327 . S
C974 H999 0.950 . S
C975 C974 1.349 . S
C975 C991 1.349 . S
C976 C974 1.327 . S
C976 C995 1.429 . S
C976 H1000 0.950 . S
C977 C994 1.574 . S
C977 C996 1.368 . S
C977 H1001 0.949 . S
H978 C982 0.949 . S
C979 C980 1.349 . S
C979 C981 1.327 . S
C979 H1002 0.950 . S
C980 C979 1.349 . S
C980 C992 1.349 . S
C981 C979 1.327 . S
C981 C997 1.429 . S
C981 H1003 0.950 . S
C982 H978 0.949 . S
C982 C990 1.574 . S
C982 C998 1.368 . S
H983 C991 0.950 . S
H984 C989 0.950 . S
H985 C990 0.949 . S
H986 C992 0.950 . S
H987 C993 0.950 . S
H988 C994 0.949 . S
C989 H984 0.950 . S
C989 C991 1.327 . S
C989 C995 1.429 . S
C990 C982 1.574 . S
C990 H985 0.949 . S
C990 C996 1.368 . S
C991 C975 1.349 . S
C991 H983 0.950 . S
C991 C989 1.327 . S
C992 C980 1.349 . S
C992 H986 0.950 . S
C992 C993 1.327 . S
C993 H987 0.950 . S
C993 C992 1.327 . S
C993 C997 1.429 . S
C994 C977 1.574 . S
C994 H988 0.949 . S
C994 C998 1.368 . S
C995 C976 1.429 . S
C995 C989 1.429 . S
C995 C996 1.523 . S
C996 C977 1.368 . S
C996 C990 1.368 . S
C996 C995 1.523 . S
C997 C981 1.429 . S
C997 C993 1.429 . S
C997 C998 1.523 . S
C998 C982 1.368 . S
C998 C994 1.368 . S
C998 C997 1.523 . S
H999 C974 0.950 . S
H1000 C976 0.950 . S
H1001 C977 0.949 . S
H1002 C979 0.950 . S
H1003 C981 0.950 . S
C1004 C1005 1.349 1_565 S
C1004 C1006 1.325 1_565 S
C1004 H1029 0.950 . S
C1005 C1004 1.349 1_545 S
C1005 C1021 1.349 . S
C1006 C1004 1.325 1_545 S
C1006 C1025 1.452 . S
C1006 H1030 0.929 1_545 S
C1007 C1024 1.574 . S
C1007 C1026 1.368 . S
C1007 H1031 0.949 . S
H1008 C1012 0.949 1_565 S
C1009 C1010 1.349 . S
C1009 C1011 1.327 . S
C1009 H1032 0.950 . S
C1010 C1009 1.349 . S
C1010 C1022 1.349 . S
C1011 C1009 1.327 . S
C1011 C1027 1.429 . S
C1011 H1033 0.950 . S
C1012 H1008 0.949 1_545 S
C1012 C1020 1.574 . S
C1012 C1028 1.368 . S
H1013 C1021 0.950 . S
H1014 C1019 0.950 . S
H1015 C1020 0.949 1_565 S
H1016 C1022 0.950 . S
H1017 C1023 0.950 . S
H1018 C1024 0.949 . S
C1019 H1014 0.950 . S
C1019 C1021 1.327 . S
C1019 C1025 1.429 . S
C1020 C1012 1.574 . S
C1020 H1015 0.949 1_545 S
C1020 C1026 1.368 . S
C1021 C1005 1.349 . S
C1021 H1013 0.950 . S
C1021 C1019 1.327 . S
C1022 C1010 1.349 . S
C1022 H1016 0.950 . S
C1022 C1023 1.327 . S
C1023 H1017 0.950 . S
C1023 C1022 1.327 . S
C1023 C1027 1.429 . S
C1024 C1007 1.574 . S
C1024 H1018 0.949 . S
C1024 C1028 1.368 . S
C1025 C1006 1.452 . S
C1025 C1019 1.429 . S
C1025 C1026 1.523 . S
C1026 C1007 1.368 . S
C1026 C1020 1.368 . S
C1026 C1025 1.523 . S
C1027 C1011 1.429 . S
C1027 C1023 1.429 . S
C1027 C1028 1.523 . S
C1028 C1012 1.368 . S
C1028 C1024 1.368 . S
C1028 C1027 1.523 . S
H1029 C1004 0.950 . S
H1030 C1006 0.929 1_565 S
H1031 C1007 0.949 . S
H1032 C1009 0.950 . S
H1033 C1011 0.950 . S
C1034 C1035 1.349 . S
C1034 C1036 1.327 . S
C1034 H1059 0.950 . S
C1035 C1034 1.349 . S
C1035 C1051 1.349 . S
C1036 C1034 1.327 . S
C1036 C1055 1.429 . S
C1036 H1060 0.950 . S
C1037 C1054 1.574 . S
C1037 C1056 1.368 . S
C1037 H1061 0.949 . S
H1038 C1042 0.949 . S
C1039 C1040 1.349 . S
C1039 C1041 1.327 . S
C1039 H1062 0.950 . S
C1040 C1039 1.349 . S
C1040 C1052 1.349 . S
C1041 C1039 1.327 . S
C1041 C1057 1.429 . S
C1041 H1063 0.950 . S
C1042 H1038 0.949 . S
C1042 C1050 1.574 . S
C1042 C1058 1.368 . S
H1043 C1051 0.950 . S
H1044 C1049 0.950 . S
H1045 C1050 0.949 . S
H1046 C1052 0.950 . S
H1047 C1053 0.950 . S
H1048 C1054 0.949 . S
C1049 H1044 0.950 . S
C1049 C1051 1.327 . S
C1049 C1055 1.429 . S
C1050 C1042 1.574 . S
C1050 H1045 0.949 . S
C1050 C1056 1.368 . S
C1051 C1035 1.349 . S
C1051 H1043 0.950 . S
C1051 C1049 1.327 . S
C1052 C1040 1.349 . S
C1052 H1046 0.950 . S
C1052 C1053 1.327 . S
C1053 H1047 0.950 . S
C1053 C1052 1.327 . S
C1053 C1057 1.429 . S
C1054 C1037 1.574 . S
C1054 H1048 0.949 . S
C1054 C1058 1.368 . S
C1055 C1036 1.429 . S
C1055 C1049 1.429 . S
C1055 C1056 1.523 . S
C1056 C1037 1.368 . S
C1056 C1050 1.368 . S
C1056 C1055 1.523 . S
C1057 C1041 1.429 . S
C1057 C1053 1.429 . S
C1057 C1058 1.523 . S
C1058 C1042 1.368 . S
C1058 C1054 1.368 . S
C1058 C1057 1.523 . S
H1059 C1034 0.950 . S
H1060 C1036 0.950 . S
H1061 C1037 0.949 . S
H1062 C1039 0.950 . S
H1063 C1041 0.950 . S
C1064 C1065 1.349 . S
C1064 C1066 1.327 . S
C1064 H1089 0.950 . S
C1065 C1064 1.349 . S
C1065 C1081 1.349 . S
C1066 C1064 1.327 . S
C1066 C1085 1.429 . S
C1066 H1090 0.950 . S
C1067 C1084 1.574 . S
C1067 C1086 1.368 . S
C1067 H1091 0.949 . S
H1068 C1072 0.949 . S
C1069 C1070 1.349 . S
C1069 C1071 1.327 . S
C1069 H1092 0.950 . S
C1070 C1069 1.349 . S
C1070 C1082 1.349 . S
C1071 C1069 1.327 . S
C1071 C1087 1.429 . S
C1071 H1093 0.950 . S
C1072 H1068 0.949 . S
C1072 C1080 1.574 . S
C1072 C1088 1.368 . S
H1073 C1081 0.917 1_565 S
H1074 C1079 0.946 . S
H1075 C1080 0.949 . S
H1076 C1082 0.950 . S
H1077 C1083 0.950 . S
H1078 C1084 0.949 . S
C1079 H1074 0.946 . S
C1079 C1081 1.327 . S
C1079 C1085 1.429 . S
C1080 C1072 1.574 . S
C1080 H1075 0.949 . S
C1080 C1086 1.368 . S
C1081 C1065 1.349 . S
C1081 H1073 0.917 1_545 S
C1081 C1079 1.327 . S
C1082 C1070 1.349 . S
C1082 H1076 0.950 . S
C1082 C1083 1.327 . S
C1083 H1077 0.950 . S
C1083 C1082 1.327 . S
C1083 C1087 1.429 . S
C1084 C1067 1.574 . S
C1084 H1078 0.949 . S
C1084 C1088 1.368 . S
C1085 C1066 1.429 . S
C1085 C1079 1.429 . S
C1085 C1086 1.523 . S
C1086 C1067 1.368 . S
C1086 C1080 1.368 . S
C1086 C1085 1.523 . S
C1087 C1071 1.429 . S
C1087 C1083 1.429 . S
C1087 C1088 1.523 . S
C1088 C1072 1.368 . S
C1088 C1084 1.368 . S
C1088 C1087 1.523 . S
H1089 C1064 0.950 . S
H1090 C1066 0.950 . S
H1091 C1067 0.949 . S
H1092 C1069 0.950 . S
H1093 C1071 0.950 . S
C1094 C1095 1.349 . S
C1094 C1096 1.327 . S
C1094 H1119 0.950 . S
C1095 C1094 1.349 . S
C1095 C1111 1.349 . S
C1096 C1094 1.327 . S
C1096 C1115 1.429 . S
C1096 H1120 0.950 . S
C1097 C1114 1.574 . S
C1097 C1116 1.368 . S
C1097 H1121 0.949 . S
H1098 C1102 0.949 . S
C1099 C1100 1.349 . S
C1099 C1101 1.327 . S
C1099 H1122 0.950 . S
C1100 C1099 1.349 . S
C1100 C1112 1.349 . S
C1101 C1099 1.327 . S
C1101 C1117 1.429 . S
C1101 H1123 0.950 . S
C1102 H1098 0.949 . S
C1102 C1110 1.574 . S
C1102 C1118 1.368 . S
H1103 C1111 0.950 . S
H1104 C1109 0.950 . S
H1105 C1110 0.949 . S
H1106 C1112 0.950 . S
H1107 C1113 0.950 . S
H1108 C1114 0.949 . S
C1109 H1104 0.950 . S
C1109 C1111 1.327 . S
C1109 C1115 1.429 . S
C1110 C1102 1.574 . S
C1110 H1105 0.949 . S
C1110 C1116 1.368 . S
C1111 C1095 1.349 . S
C1111 H1103 0.950 . S
C1111 C1109 1.327 . S
C1112 C1100 1.349 . S
C1112 H1106 0.950 . S
C1112 C1113 1.327 . S
C1113 H1107 0.950 . S
C1113 C1112 1.327 . S
C1113 C1117 1.429 . S
C1114 C1097 1.574 . S
C1114 H1108 0.949 . S
C1114 C1118 1.368 . S
C1115 C1096 1.429 . S
C1115 C1109 1.429 . S
C1115 C1116 1.523 . S
C1116 C1097 1.368 . S
C1116 C1110 1.368 . S
C1116 C1115 1.523 . S
C1117 C1101 1.429 . S
C1117 C1113 1.429 . S
C1117 C1118 1.523 . S
C1118 C1102 1.368 . S
C1118 C1114 1.368 . S
C1118 C1117 1.523 . S
H1119 C1094 0.950 . S
H1120 C1096 0.950 . S
H1121 C1097 0.949 . S
H1122 C1099 0.950 . S
H1123 C1101 0.950 . S
C1124 C1125 1.349 . S
C1124 C1126 1.327 . S
C1124 H1149 0.950 . S
C1125 C1124 1.349 . S
C1125 C1141 1.349 1_545 S
C1126 C1124 1.327 . S
C1126 C1145 1.429 . S
C1126 H1150 0.950 . S
C1127 C1144 1.574 . S
C1127 C1146 1.368 1_565 S
C1127 H1151 0.949 . S
H1128 C1132 0.949 . S
C1129 C1130 1.391 . S
C1129 C1131 1.327 . S
C1129 H1152 0.950 . S
C1130 C1129 1.391 . S
C1130 C1142 1.302 1_565 S
C1131 C1129 1.327 . S
C1131 C1147 1.391 1_565 S
C1131 H1153 0.950 . S
C1132 H1128 0.949 . S
C1132 C1140 1.574 . S
C1132 C1148 1.368 . S
H1133 C1141 0.950 . S
H1134 C1139 0.950 . S
H1135 C1140 0.949 . S
H1136 C1142 0.950 . S
H1137 C1143 0.950 . S
H1138 C1144 0.949 . S
C1139 H1134 0.950 . S
C1139 C1141 1.327 . S
C1139 C1145 1.429 1_565 S
C1140 C1132 1.574 . S
C1140 H1135 0.949 . S
C1140 C1146 1.368 . S
C1141 C1125 1.349 1_565 S
C1141 H1133 0.950 . S
C1141 C1139 1.327 . S
C1142 C1130 1.302 1_545 S
C1142 H1136 0.950 . S
C1142 C1143 1.327 . S
C1143 H1137 0.950 . S
C1143 C1142 1.327 . S
C1143 C1147 1.462 . S
C1144 C1127 1.574 . S
C1144 H1138 0.949 . S
C1144 C1148 1.368 1_565 S
C1145 C1126 1.429 . S
C1145 C1139 1.429 1_545 S
C1145 C1146 1.523 . S
C1146 C1127 1.368 1_545 S
C1146 C1140 1.368 . S
C1146 C1145 1.523 . S
C1147 C1131 1.391 1_545 S
C1147 C1143 1.462 . S
C1147 C1148 1.528 . S
C1148 C1132 1.368 . S
C1148 C1144 1.368 1_545 S
C1148 C1147 1.528 . S
H1149 C1124 0.950 . S
H1150 C1126 0.950 . S
H1151 C1127 0.949 . S
H1152 C1129 0.950 . S
H1153 C1131 0.950 . S
C1154 C1155 1.349 . S
C1154 C1156 1.327 . S
C1154 H1179 0.950 . S
C1155 C1154 1.349 . S
C1155 C1171 1.349 . S
C1156 C1154 1.327 . S
C1156 C1175 1.429 . S
C1156 H1180 0.950 . S
C1157 C1174 1.574 . S
C1157 C1176 1.368 . S
C1157 H1181 0.949 . S
H1158 C1162 0.949 . S
C1159 C1160 1.349 . S
C1159 C1161 1.327 . S
C1159 H1182 0.950 . S
C1160 C1159 1.349 . S
C1160 C1172 1.349 . S
C1161 C1159 1.327 . S
C1161 C1177 1.429 . S
C1161 H1183 0.950 . S
C1162 H1158 0.949 . S
C1162 C1170 1.574 . S
C1162 C1178 1.368 . S
H1163 C1171 0.950 . S
H1164 C1169 0.950 . S
H1165 C1170 0.949 . S
H1166 C1172 0.950 . S
H1167 C1173 0.950 . S
H1168 C1174 0.949 . S
C1169 H1164 0.950 . S
C1169 C1171 1.327 . S
C1169 C1175 1.429 . S
C1170 C1162 1.574 . S
C1170 H1165 0.949 . S
C1170 C1176 1.368 . S
C1171 C1155 1.349 . S
C1171 H1163 0.950 . S
C1171 C1169 1.327 . S
C1172 C1160 1.349 . S
C1172 H1166 0.950 . S
C1172 C1173 1.327 . S
C1173 H1167 0.950 . S
C1173 C1172 1.327 . S
C1173 C1177 1.429 . S
C1174 C1157 1.574 . S
C1174 H1168 0.949 . S
C1174 C1178 1.368 . S
C1175 C1156 1.429 . S
C1175 C1169 1.429 . S
C1175 C1176 1.523 . S
C1176 C1157 1.368 . S
C1176 C1170 1.368 . S
C1176 C1175 1.523 . S
C1177 C1161 1.429 . S
C1177 C1173 1.429 . S
C1177 C1178 1.523 . S
C1178 C1162 1.368 . S
C1178 C1174 1.368 . S
C1178 C1177 1.523 . S
H1179 C1154 0.950 . S
H1180 C1156 0.950 . S
H1181 C1157 0.949 . S
H1182 C1159 0.950 . S
H1183 C1161 0.950 . S
C1184 C1185 1.324 1_556 S
C1184 C1186 1.327 . S
C1184 H1209 0.978 . S
C1185 C1184 1.324 1_554 S
C1185 C1201 1.349 . S
C1186 C1184 1.327 . S
C1186 C1205 1.409 1_556 S
C1186 H1210 0.969 . S
C1187 C1204 1.574 . S
C1187 C1206 1.368 . S
C1187 H1211 0.949 . S
H1188 C1192 0.940 1_556 S
C1189 C1190 1.349 . S
C1189 C1191 1.327 . S
C1189 H1212 0.950 . S
C1190 C1189 1.349 . S
C1190 C1202 1.349 . S
C1191 C1189 1.327 . S
C1191 C1207 1.429 . S
C1191 H1213 0.950 . S
C1192 H1188 0.940 1_554 S
C1192 C1200 1.573 1_554 S
C1192 C1208 1.379 . S
H1193 C1201 0.950 . S
H1194 C1199 0.950 . S
H1195 C1200 0.953 . S
H1196 C1202 0.907 1_566 S
H1197 C1203 0.950 1_556 S
H1198 C1204 0.949 . S
C1199 H1194 0.950 . S
C1199 C1201 1.327 . S
C1199 C1205 1.429 . S
C1200 C1192 1.573 1_556 S
C1200 H1195 0.953 . S
C1200 C1206 1.364 1_556 S
C1201 C1185 1.349 . S
C1201 H1193 0.950 . S
C1201 C1199 1.327 . S
C1202 C1190 1.349 . S
C1202 H1196 0.907 1_544 S
C1202 C1203 1.327 . S
C1203 H1197 0.950 1_554 S
C1203 C1202 1.327 . S
C1203 C1207 1.429 . S
C1204 C1187 1.574 . S
C1204 H1198 0.949 . S
C1204 C1208 1.368 . S
C1205 C1186 1.409 1_554 S
C1205 C1199 1.429 . S
C1205 C1206 1.523 . S
C1206 C1187 1.368 . S
C1206 C1200 1.364 1_554 S
C1206 C1205 1.523 . S
C1207 C1191 1.429 . S
C1207 C1203 1.429 . S
C1207 C1208 1.523 . S
C1208 C1192 1.379 . S
C1208 C1204 1.368 . S
C1208 C1207 1.523 . S
H1209 C1184 0.978 . S
H1210 C1186 0.969 . S
H1211 C1187 0.949 . S
H1212 C1189 0.950 . S
H1213 C1191 0.950 . S
C1214 C1215 1.349 . S
C1214 C1216 1.327 . S
C1214 H1239 0.950 1_554 S
C1215 C1214 1.349 . S
C1215 C1231 1.349 . S
C1216 C1214 1.327 . S
C1216 C1235 1.429 . S
C1216 H1240 0.933 1_554 S
C1217 C1234 1.574 . S
C1217 C1236 1.368 . S
C1217 H1241 0.949 . S
H1218 C1222 0.949 . S
C1219 C1220 1.349 . S
C1219 C1221 1.327 . S
C1219 H1242 0.950 . S
C1220 C1219 1.349 . S
C1220 C1232 1.349 . S
C1221 C1219 1.327 . S
C1221 C1237 1.429 . S
C1221 H1243 0.950 . S
C1222 H1218 0.949 . S
C1222 C1230 1.574 . S
C1222 C1238 1.368 . S
H1223 C1231 0.950 . S
H1224 C1229 0.950 . S
H1225 C1230 0.949 . S
H1226 C1232 0.950 . S
H1227 C1233 0.950 . S
H1228 C1234 0.949 . S
C1229 H1224 0.950 . S
C1229 C1231 1.327 . S
C1229 C1235 1.429 . S
C1230 C1222 1.574 . S
C1230 H1225 0.949 . S
C1230 C1236 1.368 . S
C1231 C1215 1.349 . S
C1231 H1223 0.950 . S
C1231 C1229 1.327 . S
C1232 C1220 1.349 . S
C1232 H1226 0.950 . S
C1232 C1233 1.327 . S
C1233 H1227 0.950 . S
C1233 C1232 1.327 . S
C1233 C1237 1.429 . S
C1234 C1217 1.574 . S
C1234 H1228 0.949 . S
C1234 C1238 1.368 . S
C1235 C1216 1.429 . S
C1235 C1229 1.429 . S
C1235 C1236 1.523 . S
C1236 C1217 1.368 . S
C1236 C1230 1.368 . S
C1236 C1235 1.523 . S
C1237 C1221 1.429 . S
C1237 C1233 1.429 . S
C1237 C1238 1.523 . S
C1238 C1222 1.368 . S
C1238 C1234 1.368 . S
C1238 C1237 1.523 . S
H1239 C1214 0.950 1_556 S
H1240 C1216 0.933 1_556 S
H1241 C1217 0.949 . S
H1242 C1219 0.950 . S
H1243 C1221 0.950 . S
C1244 C1245 1.349 . S
C1244 C1246 1.327 . S
C1244 H1269 0.950 . S
C1245 C1244 1.349 . S
C1245 C1261 1.349 . S
C1246 C1244 1.327 . S
C1246 C1265 1.429 . S
C1246 H1270 0.950 . S
C1247 C1264 1.574 . S
C1247 C1266 1.368 . S
C1247 H1271 0.949 . S
H1248 C1252 0.949 . S
C1249 C1250 1.349 . S
C1249 C1251 1.327 . S
C1249 H1272 0.950 . S
C1250 C1249 1.349 . S
C1250 C1262 1.349 . S
C1251 C1249 1.327 . S
C1251 C1267 1.429 . S
C1251 H1273 0.950 . S
C1252 H1248 0.949 . S
C1252 C1260 1.574 . S
C1252 C1268 1.368 . S
H1253 C1261 0.950 . S
H1254 C1259 0.950 . S
H1255 C1260 0.949 . S
H1256 C1262 0.950 . S
H1257 C1263 0.950 . S
H1258 C1264 0.949 . S
C1259 H1254 0.950 . S
C1259 C1261 1.327 . S
C1259 C1265 1.429 . S
C1260 C1252 1.574 . S
C1260 H1255 0.949 . S
C1260 C1266 1.368 . S
C1261 C1245 1.349 . S
C1261 H1253 0.950 . S
C1261 C1259 1.327 . S
C1262 C1250 1.349 . S
C1262 H1256 0.950 . S
C1262 C1263 1.327 . S
C1263 H1257 0.950 . S
C1263 C1262 1.327 . S
C1263 C1267 1.429 . S
C1264 C1247 1.574 . S
C1264 H1258 0.949 . S
C1264 C1268 1.368 . S
C1265 C1246 1.429 . S
C1265 C1259 1.429 . S
C1265 C1266 1.523 . S
C1266 C1247 1.368 . S
C1266 C1260 1.368 . S
C1266 C1265 1.523 . S
C1267 C1251 1.429 . S
C1267 C1263 1.429 . S
C1267 C1268 1.523 . S
C1268 C1252 1.368 . S
C1268 C1264 1.368 . S
C1268 C1267 1.523 . S
H1269 C1244 0.950 . S
H1270 C1246 0.950 . S
H1271 C1247 0.949 . S
H1272 C1249 0.950 . S
H1273 C1251 0.950 . S
C1274 C1275 1.349 . S
C1274 C1276 1.327 . S
C1274 H1299 0.950 . S
C1275 C1274 1.349 . S
C1275 C1291 1.349 . S
C1276 C1274 1.327 . S
C1276 C1295 1.429 . S
C1276 H1300 0.950 . S
C1277 C1294 1.574 . S
C1277 C1296 1.368 . S
C1277 H1301 0.949 . S
H1278 C1282 0.949 . S
C1279 C1280 1.349 . S
C1279 C1281 1.327 . S
C1279 H1302 0.950 . S
C1280 C1279 1.349 . S
C1280 C1292 1.349 . S
C1281 C1279 1.327 . S
C1281 C1297 1.429 . S
C1281 H1303 0.950 . S
C1282 H1278 0.949 . S
C1282 C1290 1.574 . S
C1282 C1298 1.368 . S
H1283 C1291 0.950 . S
H1284 C1289 0.950 . S
H1285 C1290 0.949 . S
H1286 C1292 0.950 . S
H1287 C1293 0.950 . S
H1288 C1294 0.949 . S
C1289 H1284 0.950 . S
C1289 C1291 1.327 . S
C1289 C1295 1.429 . S
C1290 C1282 1.574 . S
C1290 H1285 0.949 . S
C1290 C1296 1.368 . S
C1291 C1275 1.349 . S
C1291 H1283 0.950 . S
C1291 C1289 1.327 . S
C1292 C1280 1.349 . S
C1292 H1286 0.950 . S
C1292 C1293 1.327 . S
C1293 H1287 0.950 . S
C1293 C1292 1.327 . S
C1293 C1297 1.429 . S
C1294 C1277 1.574 . S
C1294 H1288 0.949 . S
C1294 C1298 1.368 . S
C1295 C1276 1.429 . S
C1295 C1289 1.429 . S
C1295 C1296 1.523 . S
C1296 C1277 1.368 . S
C1296 C1290 1.368 . S
C1296 C1295 1.523 . S
C1297 C1281 1.429 . S
C1297 C1293 1.429 . S
C1297 C1298 1.523 . S
C1298 C1282 1.368 . S
C1298 C1294 1.368 . S
C1298 C1297 1.523 . S
H1299 C1274 0.950 . S
H1300 C1276 0.950 . S
H1301 C1277 0.949 . S
H1302 C1279 0.950 . S
H1303 C1281 0.950 . S
C1304 C1305 1.349 . S
C1304 C1306 1.327 . S
C1304 H1329 0.950 . S
C1305 C1304 1.349 . S
C1305 C1321 1.349 . S
C1306 C1304 1.327 . S
C1306 C1325 1.429 . S
C1306 H1330 0.950 . S
C1307 C1324 1.574 . S
C1307 C1326 1.368 . S
C1307 H1331 0.949 . S
H1308 C1312 0.949 . S
C1309 C1310 1.349 . S
C1309 C1311 1.327 . S
C1309 H1332 0.950 . S
C1310 C1309 1.349 . S
C1310 C1322 1.349 . S
C1311 C1309 1.327 . S
C1311 C1327 1.429 . S
C1311 H1333 0.950 . S
C1312 H1308 0.949 . S
C1312 C1320 1.574 . S
C1312 C1328 1.368 . S
H1313 C1321 0.950 . S
H1314 C1319 0.950 . S
H1315 C1320 0.949 . S
H1316 C1322 0.950 . S
H1317 C1323 0.950 . S
H1318 C1324 0.949 . S
C1319 H1314 0.950 . S
C1319 C1321 1.327 . S
C1319 C1325 1.429 . S
C1320 C1312 1.574 . S
C1320 H1315 0.949 . S
C1320 C1326 1.368 . S
C1321 C1305 1.349 . S
C1321 H1313 0.950 . S
C1321 C1319 1.327 . S
C1322 C1310 1.349 . S
C1322 H1316 0.950 . S
C1322 C1323 1.327 . S
C1323 H1317 0.950 . S
C1323 C1322 1.327 . S
C1323 C1327 1.429 . S
C1324 C1307 1.574 . S
C1324 H1318 0.949 . S
C1324 C1328 1.368 . S
C1325 C1306 1.429 . S
C1325 C1319 1.429 . S
C1325 C1326 1.523 . S
C1326 C1307 1.368 . S
C1326 C1320 1.368 . S
C1326 C1325 1.523 . S
C1327 C1311 1.429 . S
C1327 C1323 1.429 . S
C1327 C1328 1.523 . S
C1328 C1312 1.368 . S
C1328 C1324 1.368 . S
C1328 C1327 1.523 . S
H1329 C1304 0.950 . S
H1330 C1306 0.950 . S
H1331 C1307 0.949 . S
H1332 C1309 0.950 . S
H1333 C1311 0.950 . S
C1334 C1335 1.349 . S
C1334 C1336 1.327 . S
C1334 H1359 0.950 . S
C1335 C1334 1.349 . S
C1335 C1351 1.349 . S
C1336 C1334 1.327 . S
C1336 C1355 1.429 . S
C1336 H1360 0.950 . S
C1337 C1354 1.574 . S
C1337 C1356 1.368 . S
C1337 H1361 0.949 . S
H1338 C1342 0.949 . S
C1339 C1340 1.349 . S
C1339 C1341 1.327 1_545 S
C1339 H1362 0.950 . S
C1340 C1339 1.349 . S
C1340 C1352 1.349 1_545 S
C1341 C1339 1.327 1_565 S
C1341 C1357 1.429 . S
C1341 H1363 0.950 . S
C1342 H1338 0.949 . S
C1342 C1350 1.574 . S
C1342 C1358 1.368 . S
H1343 C1351 0.950 . S
H1344 C1349 0.950 . S
H1345 C1350 0.949 . S
H1346 C1352 0.950 . S
H1347 C1353 0.950 . S
H1348 C1354 0.949 . S
C1349 H1344 0.950 . S
C1349 C1351 1.327 . S
C1349 C1355 1.429 . S
C1350 C1342 1.574 . S
C1350 H1345 0.949 . S
C1350 C1356 1.368 . S
C1351 C1335 1.349 . S
C1351 H1343 0.950 . S
C1351 C1349 1.327 . S
C1352 C1340 1.349 1_565 S
C1352 H1346 0.950 . S
C1352 C1353 1.327 . S
C1353 H1347 0.950 . S
C1353 C1352 1.327 . S
C1353 C1357 1.429 . S
C1354 C1337 1.574 . S
C1354 H1348 0.949 . S
C1354 C1358 1.368 . S
C1355 C1336 1.429 . S
C1355 C1349 1.429 . S
C1355 C1356 1.523 . S
C1356 C1337 1.368 . S
C1356 C1350 1.368 . S
C1356 C1355 1.523 . S
C1357 C1341 1.429 . S
C1357 C1353 1.429 . S
C1357 C1358 1.523 . S
C1358 C1342 1.368 . S
C1358 C1354 1.368 . S
C1358 C1357 1.523 . S
H1359 C1334 0.950 . S
H1360 C1336 0.950 . S
H1361 C1337 0.949 . S
H1362 C1339 0.950 . S
H1363 C1341 0.950 . S
C1364 C1365 1.349 . S
C1364 C1366 1.327 . S
C1364 H1389 0.950 . S
C1365 C1364 1.349 . S
C1365 C1381 1.349 . S
C1366 C1364 1.327 . S
C1366 C1385 1.429 . S
C1366 H1390 0.950 . S
C1367 C1384 1.574 . S
C1367 C1386 1.368 . S
C1367 H1391 0.949 . S
H1368 C1372 0.949 . S
C1369 C1370 1.349 . S
C1369 C1371 1.327 . S
C1369 H1392 0.950 . S
C1370 C1369 1.349 . S
C1370 C1382 1.349 . S
C1371 C1369 1.327 . S
C1371 C1387 1.429 . S
C1371 H1393 0.950 . S
C1372 H1368 0.949 . S
C1372 C1380 1.574 . S
C1372 C1388 1.368 . S
H1373 C1381 0.950 . S
H1374 C1379 0.950 . S
H1375 C1380 0.949 . S
H1376 C1382 0.950 . S
H1377 C1383 0.950 . S
H1378 C1384 0.949 . S
C1379 H1374 0.950 . S
C1379 C1381 1.327 . S
C1379 C1385 1.429 . S
C1380 C1372 1.574 . S
C1380 H1375 0.949 . S
C1380 C1386 1.368 . S
C1381 C1365 1.349 . S
C1381 H1373 0.950 . S
C1381 C1379 1.327 . S
C1382 C1370 1.349 . S
C1382 H1376 0.950 . S
C1382 C1383 1.327 . S
C1383 H1377 0.950 . S
C1383 C1382 1.327 . S
C1383 C1387 1.429 . S
C1384 C1367 1.574 . S
C1384 H1378 0.949 . S
C1384 C1388 1.368 . S
C1385 C1366 1.429 . S
C1385 C1379 1.429 . S
C1385 C1386 1.523 . S
C1386 C1367 1.368 . S
C1386 C1380 1.368 . S
C1386 C1385 1.523 . S
C1387 C1371 1.429 . S
C1387 C1383 1.429 . S
C1387 C1388 1.523 . S
C1388 C1372 1.368 . S
C1388 C1384 1.368 . S
C1388 C1387 1.523 . S
H1389 C1364 0.950 . S
H1390 C1366 0.950 . S
H1391 C1367 0.949 . S
H1392 C1369 0.950 . S
H1393 C1371 0.950 . S
C1394 C1395 1.349 . S
C1394 C1396 1.327 . S
C1394 H1419 0.950 . S
C1395 C1394 1.349 . S
C1395 C1411 1.349 . S
C1396 C1394 1.327 . S
C1396 C1415 1.429 . S
C1396 H1420 0.950 . S
C1397 C1414 1.574 . S
C1397 C1416 1.368 . S
C1397 H1421 0.949 . S
H1398 C1402 0.949 . S
C1399 C1400 1.349 . S
C1399 C1401 1.327 . S
C1399 H1422 0.950 . S
C1400 C1399 1.349 . S
C1400 C1412 1.349 . S
C1401 C1399 1.327 . S
C1401 C1417 1.429 . S
C1401 H1423 0.950 . S
C1402 H1398 0.949 . S
C1402 C1410 1.574 . S
C1402 C1418 1.368 . S
H1403 C1411 0.950 . S
H1404 C1409 0.950 . S
H1405 C1410 0.949 . S
H1406 C1412 0.950 . S
H1407 C1413 0.950 . S
H1408 C1414 0.949 . S
C1409 H1404 0.950 . S
C1409 C1411 1.327 . S
C1409 C1415 1.429 . S
C1410 C1402 1.574 . S
C1410 H1405 0.949 . S
C1410 C1416 1.368 . S
C1411 C1395 1.349 . S
C1411 H1403 0.950 . S
C1411 C1409 1.327 . S
C1412 C1400 1.349 . S
C1412 H1406 0.950 . S
C1412 C1413 1.327 . S
C1413 H1407 0.950 . S
C1413 C1412 1.327 . S
C1413 C1417 1.429 . S
C1414 C1397 1.574 . S
C1414 H1408 0.949 . S
C1414 C1418 1.368 . S
C1415 C1396 1.429 . S
C1415 C1409 1.429 . S
C1415 C1416 1.523 . S
C1416 C1397 1.368 . S
C1416 C1410 1.368 . S
C1416 C1415 1.523 . S
C1417 C1401 1.429 . S
C1417 C1413 1.429 . S
C1417 C1418 1.523 . S
C1418 C1402 1.368 . S
C1418 C1414 1.368 . S
C1418 C1417 1.523 . S
H1419 C1394 0.950 . S
H1420 C1396 0.950 . S
H1421 C1397 0.949 . S
H1422 C1399 0.950 . S
H1423 C1401 0.950 . S
C1424 C1425 1.349 . S
C1424 C1426 1.327 . S
C1424 H1449 0.950 . S
C1425 C1424 1.349 . S
C1425 C1441 1.349 1_455 S
C1426 C1424 1.327 . S
C1426 C1445 1.429 . S
C1426 H1450 0.950 . S
C1427 C1444 1.574 . S
C1427 C1446 1.368 . S
C1427 H1451 0.949 1_455 S
H1428 C1432 0.949 . S
C1429 C1430 1.349 1_556 S
C1429 C1431 1.327 . S
C1429 H1452 0.950 . S
C1430 C1429 1.349 1_554 S
C1430 C1442 1.349 . S
C1431 C1429 1.327 . S
C1431 C1447 1.429 . S
C1431 H1453 0.950 . S
C1432 H1428 0.949 . S
C1432 C1440 1.574 . S
C1432 C1448 1.368 . S
H1433 C1441 0.950 . S
H1434 C1439 0.981 . S
H1435 C1440 0.949 . S
H1436 C1442 0.950 . S
H1437 C1443 0.950 1_554 S
H1438 C1444 0.949 1_655 S
C1439 H1434 0.981 . S
C1439 C1441 1.330 . S
C1439 C1445 1.398 1_655 S
C1440 C1432 1.574 . S
C1440 H1435 0.949 . S
C1440 C1446 1.368 . S
C1441 C1425 1.349 1_655 S
C1441 H1433 0.950 . S
C1441 C1439 1.330 . S
C1442 C1430 1.349 . S
C1442 H1436 0.950 . S
C1442 C1443 1.327 1_554 S
C1443 H1437 0.950 1_556 S
C1443 C1442 1.327 1_556 S
C1443 C1447 1.429 . S
C1444 C1427 1.574 . S
C1444 H1438 0.949 1_455 S
C1444 C1448 1.368 . S
C1445 C1426 1.429 . S
C1445 C1439 1.398 1_455 S
C1445 C1446 1.523 . S
C1446 C1427 1.368 . S
C1446 C1440 1.368 . S
C1446 C1445 1.523 . S
C1447 C1431 1.429 . S
C1447 C1443 1.429 . S
C1447 C1448 1.523 . S
C1448 C1432 1.368 . S
C1448 C1444 1.368 . S
C1448 C1447 1.523 . S
H1449 C1424 0.950 . S
H1450 C1426 0.950 . S
H1451 C1427 0.949 1_655 S
H1452 C1429 0.950 . S
H1453 C1431 0.950 . S
C1454 C1455 1.349 . S
C1454 C1456 1.327 . S
C1454 H1479 0.950 . S
C1455 C1454 1.349 . S
C1455 C1471 1.349 . S
C1456 C1454 1.327 . S
C1456 C1475 1.429 . S
C1456 H1480 0.950 . S
C1457 C1474 1.574 . S
C1457 C1476 1.368 . S
C1457 H1481 0.949 . S
H1458 C1462 0.949 . S
C1459 C1460 1.349 . S
C1459 C1461 1.327 . S
C1459 H1482 0.950 . S
C1460 C1459 1.349 . S
C1460 C1472 1.349 . S
C1461 C1459 1.327 . S
C1461 C1477 1.429 . S
C1461 H1483 0.950 . S
C1462 H1458 0.949 . S
C1462 C1470 1.574 . S
C1462 C1478 1.368 . S
H1463 C1471 0.950 . S
H1464 C1469 0.950 . S
H1465 C1470 0.949 . S
H1466 C1472 0.950 . S
H1467 C1473 0.950 . S
H1468 C1474 0.949 . S
C1469 H1464 0.950 . S
C1469 C1471 1.327 . S
C1469 C1475 1.429 . S
C1470 C1462 1.574 . S
C1470 H1465 0.949 . S
C1470 C1476 1.368 . S
C1471 C1455 1.349 . S
C1471 H1463 0.950 . S
C1471 C1469 1.327 . S
C1472 C1460 1.349 . S
C1472 H1466 0.950 . S
C1472 C1473 1.327 . S
C1473 H1467 0.950 . S
C1473 C1472 1.327 . S
C1473 C1477 1.429 . S
C1474 C1457 1.574 . S
C1474 H1468 0.949 . S
C1474 C1478 1.368 . S
C1475 C1456 1.429 . S
C1475 C1469 1.429 . S
C1475 C1476 1.523 . S
C1476 C1457 1.368 . S
C1476 C1470 1.368 . S
C1476 C1475 1.523 . S
C1477 C1461 1.429 . S
C1477 C1473 1.429 . S
C1477 C1478 1.523 . S
C1478 C1462 1.368 . S
C1478 C1474 1.368 . S
C1478 C1477 1.523 . S
H1479 C1454 0.950 . S
H1480 C1456 0.950 . S
H1481 C1457 0.949 . S
H1482 C1459 0.950 . S
H1483 C1461 0.950 . S
C1484 C1485 1.349 . S
C1484 C1486 1.327 . S
C1484 H1509 0.950 . S
C1485 C1484 1.349 . S
C1485 C1501 1.349 . S
C1486 C1484 1.327 . S
C1486 C1505 1.429 . S
C1486 H1510 0.950 . S
C1487 C1504 1.574 . S
C1487 C1506 1.368 . S
C1487 H1511 0.949 . S
H1488 C1492 0.949 . S
C1489 C1490 1.349 . S
C1489 C1491 1.327 . S
C1489 H1512 0.950 . S
C1490 C1489 1.349 . S
C1490 C1502 1.349 . S
C1491 C1489 1.327 . S
C1491 C1507 1.429 . S
C1491 H1513 0.950 . S
C1492 H1488 0.949 . S
C1492 C1500 1.574 . S
C1492 C1508 1.368 . S
H1493 C1501 0.950 . S
H1494 C1499 0.950 . S
H1495 C1500 0.949 . S
H1496 C1502 0.950 . S
H1497 C1503 0.950 . S
H1498 C1504 0.949 . S
C1499 H1494 0.950 . S
C1499 C1501 1.327 . S
C1499 C1505 1.429 . S
C1500 C1492 1.574 . S
C1500 H1495 0.949 . S
C1500 C1506 1.368 . S
C1501 C1485 1.349 . S
C1501 H1493 0.950 . S
C1501 C1499 1.327 . S
C1502 C1490 1.349 . S
C1502 H1496 0.950 . S
C1502 C1503 1.327 . S
C1503 H1497 0.950 . S
C1503 C1502 1.327 . S
C1503 C1507 1.429 . S
C1504 C1487 1.574 . S
C1504 H1498 0.949 . S
C1504 C1508 1.368 . S
C1505 C1486 1.429 . S
C1505 C1499 1.429 . S
C1505 C1506 1.523 . S
C1506 C1487 1.368 . S
C1506 C1500 1.368 . S
C1506 C1505 1.523 . S
C1507 C1491 1.429 . S
C1507 C1503 1.429 . S
C1507 C1508 1.523 . S
C1508 C1492 1.368 . S
C1508 C1504 1.368 . S
C1508 C1507 1.523 . S
H1509 C1484 0.950 . S
H1510 C1486 0.950 . S
H1511 C1487 0.949 . S
H1512 C1489 0.950 . S
H1513 C1491 0.950 . S
C1514 C1515 1.349 . S
C1514 C1516 1.327 . S
C1514 H1539 0.950 . S
C1515 C1514 1.349 . S
C1515 C1531 1.349 . S
C1516 C1514 1.327 . S
C1516 C1535 1.429 . S
C1516 H1540 0.950 . S
C1517 C1534 1.574 . S
C1517 C1536 1.368 . S
C1517 H1541 0.949 . S
H1518 C1522 0.949 . S
C1519 C1520 1.349 . S
C1519 C1521 1.327 . S
C1519 H1542 0.950 . S
C1520 C1519 1.349 . S
C1520 C1532 1.349 . S
C1521 C1519 1.327 . S
C1521 C1537 1.429 . S
C1521 H1543 0.950 . S
C1522 H1518 0.949 . S
C1522 C1530 1.574 . S
C1522 C1538 1.368 . S
H1523 C1531 0.950 . S
H1524 C1529 0.950 . S
H1525 C1530 0.949 . S
H1526 C1532 0.950 . S
H1527 C1533 0.950 . S
H1528 C1534 0.949 . S
C1529 H1524 0.950 . S
C1529 C1531 1.327 . S
C1529 C1535 1.429 . S
C1530 C1522 1.574 . S
C1530 H1525 0.949 . S
C1530 C1536 1.368 . S
C1531 C1515 1.349 . S
C1531 H1523 0.950 . S
C1531 C1529 1.327 . S
C1532 C1520 1.349 . S
C1532 H1526 0.950 . S
C1532 C1533 1.327 . S
C1533 H1527 0.950 . S
C1533 C1532 1.327 . S
C1533 C1537 1.429 . S
C1534 C1517 1.574 . S
C1534 H1528 0.949 . S
C1534 C1538 1.368 . S
C1535 C1516 1.429 . S
C1535 C1529 1.429 . S
C1535 C1536 1.523 . S
C1536 C1517 1.368 . S
C1536 C1530 1.368 . S
C1536 C1535 1.523 . S
C1537 C1521 1.429 . S
C1537 C1533 1.429 . S
C1537 C1538 1.523 . S
C1538 C1522 1.368 . S
C1538 C1534 1.368 . S
C1538 C1537 1.523 . S
H1539 C1514 0.950 . S
H1540 C1516 0.950 . S
H1541 C1517 0.949 . S
H1542 C1519 0.950 . S
H1543 C1521 0.950 . S
C1544 C1545 1.349 . S
C1544 C1546 1.327 . S
C1544 H1569 0.950 . S
C1545 C1544 1.349 . S
C1545 C1561 1.349 1_455 S
C1546 C1544 1.327 . S
C1546 C1565 1.429 . S
C1546 H1570 0.950 . S
C1547 C1564 1.583 . S
C1547 C1566 1.389 . S
C1547 H1571 0.924 1_455 S
H1548 C1552 0.949 . S
C1549 C1550 1.349 . S
C1549 C1551 1.327 . S
C1549 H1572 0.950 . S
C1550 C1549 1.349 . S
C1550 C1562 1.349 . S
C1551 C1549 1.327 . S
C1551 C1567 1.429 . S
C1551 H1573 0.950 . S
C1552 H1548 0.949 . S
C1552 C1560 1.574 . S
C1552 C1568 1.368 . S
H1553 C1561 0.950 . S
H1554 C1559 0.950 . S
H1555 C1560 0.949 . S
H1556 C1562 0.950 . S
H1557 C1563 0.950 . S
H1558 C1564 0.949 1_655 S
C1559 H1554 0.950 . S
C1559 C1561 1.327 . S
C1559 C1565 1.429 1_655 S
C1560 C1552 1.574 . S
C1560 H1555 0.949 . S
C1560 C1566 1.368 . S
C1561 C1545 1.349 1_655 S
C1561 H1553 0.950 . S
C1561 C1559 1.327 . S
C1562 C1550 1.349 . S
C1562 H1556 0.950 . S
C1562 C1563 1.327 . S
C1563 H1557 0.950 . S
C1563 C1562 1.327 . S
C1563 C1567 1.429 . S
C1564 C1547 1.583 . S
C1564 H1558 0.949 1_455 S
C1564 C1568 1.368 . S
C1565 C1546 1.429 . S
C1565 C1559 1.429 1_455 S
C1565 C1566 1.523 . S
C1566 C1547 1.389 . S
C1566 C1560 1.368 . S
C1566 C1565 1.523 . S
C1567 C1551 1.429 . S
C1567 C1563 1.429 . S
C1567 C1568 1.523 . S
C1568 C1552 1.368 . S
C1568 C1564 1.368 . S
C1568 C1567 1.523 . S
H1569 C1544 0.950 . S
H1570 C1546 0.950 . S
H1571 C1547 0.924 1_655 S
H1572 C1549 0.950 . S
H1573 C1551 0.950 . S
C1574 C1575 1.349 . S
C1574 C1576 1.327 . S
C1574 H1599 0.950 . S
C1575 C1574 1.349 . S
C1575 C1591 1.349 . S
C1576 C1574 1.327 . S
C1576 C1595 1.429 . S
C1576 H1600 0.950 . S
C1577 C1594 1.574 . S
C1577 C1596 1.368 . S
C1577 H1601 0.949 . S
H1578 C1582 0.949 . S
C1579 C1580 1.349 . S
C1579 C1581 1.327 . S
C1579 H1602 0.950 . S
C1580 C1579 1.349 . S
C1580 C1592 1.349 . S
C1581 C1579 1.327 . S
C1581 C1597 1.429 . S
C1581 H1603 0.950 . S
C1582 H1578 0.949 . S
C1582 C1590 1.574 . S
C1582 C1598 1.368 . S
H1583 C1591 0.950 . S
H1584 C1589 0.950 . S
H1585 C1590 0.949 . S
H1586 C1592 0.950 . S
H1587 C1593 0.950 . S
H1588 C1594 0.949 . S
C1589 H1584 0.950 . S
C1589 C1591 1.327 . S
C1589 C1595 1.429 . S
C1590 C1582 1.574 . S
C1590 H1585 0.949 . S
C1590 C1596 1.368 . S
C1591 C1575 1.349 . S
C1591 H1583 0.950 . S
C1591 C1589 1.327 . S
C1592 C1580 1.349 . S
C1592 H1586 0.950 . S
C1592 C1593 1.327 . S
C1593 H1587 0.950 . S
C1593 C1592 1.327 . S
C1593 C1597 1.429 . S
C1594 C1577 1.574 . S
C1594 H1588 0.949 . S
C1594 C1598 1.368 . S
C1595 C1576 1.429 . S
C1595 C1589 1.429 . S
C1595 C1596 1.523 . S
C1596 C1577 1.368 . S
C1596 C1590 1.368 . S
C1596 C1595 1.523 . S
C1597 C1581 1.429 . S
C1597 C1593 1.429 . S
C1597 C1598 1.523 . S
C1598 C1582 1.368 . S
C1598 C1594 1.368 . S
C1598 C1597 1.523 . S
H1599 C1574 0.950 . S
H1600 C1576 0.950 . S
H1601 C1577 0.949 . S
H1602 C1579 0.950 . S
H1603 C1581 0.950 . S
C1604 C1605 1.349 . S
C1604 C1606 1.327 . S
C1604 H1629 0.950 . S
C1605 C1604 1.349 . S
C1605 C1621 1.349 . S
C1606 C1604 1.327 . S
C1606 C1625 1.429 . S
C1606 H1630 0.950 . S
C1607 C1624 1.574 . S
C1607 C1626 1.368 . S
C1607 H1631 0.949 . S
H1608 C1612 0.949 . S
C1609 C1610 1.349 . S
C1609 C1611 1.327 . S
C1609 H1632 0.950 . S
C1610 C1609 1.349 . S
C1610 C1622 1.349 . S
C1611 C1609 1.327 . S
C1611 C1627 1.429 . S
C1611 H1633 0.950 . S
C1612 H1608 0.949 . S
C1612 C1620 1.574 . S
C1612 C1628 1.368 . S
H1613 C1621 0.950 . S
H1614 C1619 0.950 . S
H1615 C1620 0.949 . S
H1616 C1622 0.950 . S
H1617 C1623 0.950 . S
H1618 C1624 0.949 . S
C1619 H1614 0.950 . S
C1619 C1621 1.327 . S
C1619 C1625 1.429 . S
C1620 C1612 1.574 . S
C1620 H1615 0.949 . S
C1620 C1626 1.368 . S
C1621 C1605 1.349 . S
C1621 H1613 0.950 . S
C1621 C1619 1.327 . S
C1622 C1610 1.349 . S
C1622 H1616 0.950 . S
C1622 C1623 1.327 . S
C1623 H1617 0.950 . S
C1623 C1622 1.327 . S
C1623 C1627 1.429 . S
C1624 C1607 1.574 . S
C1624 H1618 0.949 . S
C1624 C1628 1.368 . S
C1625 C1606 1.429 . S
C1625 C1619 1.429 . S
C1625 C1626 1.523 . S
C1626 C1607 1.368 . S
C1626 C1620 1.368 . S
C1626 C1625 1.523 . S
C1627 C1611 1.429 . S
C1627 C1623 1.429 . S
C1627 C1628 1.523 . S
C1628 C1612 1.368 . S
C1628 C1624 1.368 . S
C1628 C1627 1.523 . S
H1629 C1604 0.950 . S
H1630 C1606 0.950 . S
H1631 C1607 0.949 . S
H1632 C1609 0.950 . S
H1633 C1611 0.950 . S
C1634 C1635 1.349 . S
C1634 C1636 1.327 . S
C1634 H1659 0.950 . S
C1635 C1634 1.349 . S
C1635 C1651 1.349 . S
C1636 C1634 1.327 . S
C1636 C1655 1.429 . S
C1636 H1660 0.950 . S
C1637 C1654 1.574 . S
C1637 C1656 1.368 . S
C1637 H1661 0.949 . S
H1638 C1642 0.949 . S
C1639 C1640 1.349 . S
C1639 C1641 1.327 . S
C1639 H1662 0.950 . S
C1640 C1639 1.349 . S
C1640 C1652 1.349 . S
C1641 C1639 1.327 . S
C1641 C1657 1.429 . S
C1641 H1663 0.950 . S
C1642 H1638 0.949 . S
C1642 C1650 1.574 . S
C1642 C1658 1.368 . S
H1643 C1651 0.950 . S
H1644 C1649 0.950 . S
H1645 C1650 0.949 . S
H1646 C1652 0.950 . S
H1647 C1653 0.950 . S
H1648 C1654 0.949 . S
C1649 H1644 0.950 . S
C1649 C1651 1.327 . S
C1649 C1655 1.429 . S
C1650 C1642 1.574 . S
C1650 H1645 0.949 . S
C1650 C1656 1.368 . S
C1651 C1635 1.349 . S
C1651 H1643 0.950 . S
C1651 C1649 1.327 . S
C1652 C1640 1.349 . S
C1652 H1646 0.950 . S
C1652 C1653 1.327 . S
C1653 H1647 0.950 . S
C1653 C1652 1.327 . S
C1653 C1657 1.429 . S
C1654 C1637 1.574 . S
C1654 H1648 0.949 . S
C1654 C1658 1.368 . S
C1655 C1636 1.429 . S
C1655 C1649 1.429 . S
C1655 C1656 1.523 . S
C1656 C1637 1.368 . S
C1656 C1650 1.368 . S
C1656 C1655 1.523 . S
C1657 C1641 1.429 . S
C1657 C1653 1.429 . S
C1657 C1658 1.523 . S
C1658 C1642 1.368 . S
C1658 C1654 1.368 . S
C1658 C1657 1.523 . S
H1659 C1634 0.950 . S
H1660 C1636 0.950 . S
H1661 C1637 0.949 . S
H1662 C1639 0.950 . S
H1663 C1641 0.950 . S
C1664 C1665 1.349 . S
C1664 C1666 1.327 . S
C1664 H1689 0.950 . S
C1665 C1664 1.349 . S
C1665 C1681 1.349 . S
C1666 C1664 1.327 . S
C1666 C1685 1.429 . S
C1666 H1690 0.950 . S
C1667 C1684 1.574 . S
C1667 C1686 1.368 . S
C1667 H1691 0.949 1_545 S
H1668 C1672 0.949 . S
C1669 C1670 1.349 . S
C1669 C1671 1.327 . S
C1669 H1692 0.950 1_655 S
C1670 C1669 1.349 . S
C1670 C1682 1.349 . S
C1671 C1669 1.327 . S
C1671 C1687 1.429 . S
C1671 H1693 0.939 1_545 S
C1672 H1668 0.949 . S
C1672 C1680 1.574 . S
C1672 C1688 1.368 . S
H1673 C1681 0.950 1_565 S
H1674 C1679 0.950 1_565 S
H1675 C1680 0.949 . S
H1676 C1682 0.950 . S
H1677 C1683 0.950 . S
H1678 C1684 0.949 1_565 S
C1679 H1674 0.950 1_545 S
C1679 C1681 1.327 . S
C1679 C1685 1.429 . S
C1680 C1672 1.574 . S
C1680 H1675 0.949 . S
C1680 C1686 1.368 . S
C1681 C1665 1.349 . S
C1681 H1673 0.950 1_545 S
C1681 C1679 1.327 . S
C1682 C1670 1.349 . S
C1682 H1676 0.950 . S
C1682 C1683 1.327 . S
C1683 H1677 0.950 . S
C1683 C1682 1.327 . S
C1683 C1687 1.429 . S
C1684 C1667 1.574 . S
C1684 H1678 0.949 1_545 S
C1684 C1688 1.368 . S
C1685 C1666 1.429 . S
C1685 C1679 1.429 . S
C1685 C1686 1.523 . S
C1686 C1667 1.368 . S
C1686 C1680 1.368 . S
C1686 C1685 1.523 . S
C1687 C1671 1.429 . S
C1687 C1683 1.429 . S
C1687 C1688 1.523 . S
C1688 C1672 1.368 . S
C1688 C1684 1.368 . S
C1688 C1687 1.523 . S
H1689 C1664 0.950 . S
H1690 C1666 0.950 . S
H1691 C1667 0.949 1_565 S
H1692 C1669 0.950 1_455 S
H1693 C1671 0.939 1_565 S
C1694 C1695 1.349 . S
C1694 C1696 1.327 . S
C1694 H1719 0.950 . S
C1695 C1694 1.349 . S
C1695 C1711 1.349 . S
C1696 C1694 1.327 . S
C1696 C1715 1.429 . S
C1696 H1720 0.950 . S
C1697 C1714 1.574 . S
C1697 C1716 1.368 . S
C1697 H1721 0.949 . S
H1698 C1702 0.949 . S
C1699 C1700 1.349 . S
C1699 C1701 1.327 . S
C1699 H1722 0.950 . S
C1700 C1699 1.349 . S
C1700 C1712 1.349 . S
C1701 C1699 1.327 . S
C1701 C1717 1.429 . S
C1701 H1723 0.950 . S
C1702 H1698 0.949 . S
C1702 C1710 1.574 . S
C1702 C1718 1.368 . S
H1703 C1711 0.950 . S
H1704 C1709 0.950 . S
H1705 C1710 0.949 . S
H1706 C1712 0.950 . S
H1707 C1713 0.950 . S
H1708 C1714 0.949 . S
C1709 H1704 0.950 . S
C1709 C1711 1.327 . S
C1709 C1715 1.429 . S
C1710 C1702 1.574 . S
C1710 H1705 0.949 . S
C1710 C1716 1.368 . S
C1711 C1695 1.349 . S
C1711 H1703 0.950 . S
C1711 C1709 1.327 . S
C1712 C1700 1.349 . S
C1712 H1706 0.950 . S
C1712 C1713 1.327 . S
C1713 H1707 0.950 . S
C1713 C1712 1.327 . S
C1713 C1717 1.429 . S
C1714 C1697 1.574 . S
C1714 H1708 0.949 . S
C1714 C1718 1.368 . S
C1715 C1696 1.429 . S
C1715 C1709 1.429 . S
C1715 C1716 1.523 . S
C1716 C1697 1.368 . S
C1716 C1710 1.368 . S
C1716 C1715 1.523 . S
C1717 C1701 1.429 . S
C1717 C1713 1.429 . S
C1717 C1718 1.523 . S
C1718 C1702 1.368 . S
C1718 C1714 1.368 . S
C1718 C1717 1.523 . S
H1719 C1694 0.950 . S
H1720 C1696 0.950 . S
H1721 C1697 0.949 . S
H1722 C1699 0.950 . S
H1723 C1701 0.950 . S
C1724 C1725 1.349 . S
C1724 C1726 1.327 . S
C1724 H1749 0.950 . S
C1725 C1724 1.349 . S
C1725 C1741 1.349 1_545 S
C1726 C1724 1.327 . S
C1726 C1745 1.429 . S
C1726 H1750 0.950 . S
C1727 C1744 1.574 . S
C1727 C1746 1.368 1_565 S
C1727 H1751 0.949 . S
H1728 C1732 0.949 . S
C1729 C1730 1.349 . S
C1729 C1731 1.327 . S
C1729 H1752 0.950 . S
C1730 C1729 1.349 . S
C1730 C1742 1.349 1_565 S
C1731 C1729 1.327 . S
C1731 C1747 1.439 . S
C1731 H1753 0.950 . S
C1732 H1728 0.949 . S
C1732 C1740 1.574 . S
C1732 C1748 1.368 . S
H1733 C1741 0.950 . S
H1734 C1739 0.950 . S
H1735 C1740 0.949 . S
H1736 C1742 0.950 . S
H1737 C1743 0.950 . S
H1738 C1744 0.949 . S
C1739 H1734 0.950 . S
C1739 C1741 1.327 . S
C1739 C1745 1.429 1_565 S
C1740 C1732 1.574 . S
C1740 H1735 0.949 . S
C1740 C1746 1.368 . S
C1741 C1725 1.349 1_565 S
C1741 H1733 0.950 . S
C1741 C1739 1.327 . S
C1742 C1730 1.349 1_545 S
C1742 H1736 0.950 . S
C1742 C1743 1.327 . S
C1743 H1737 0.950 . S
C1743 C1742 1.327 . S
C1743 C1747 1.419 1_545 S
C1744 C1727 1.574 . S
C1744 H1738 0.949 . S
C1744 C1748 1.368 1_565 S
C1745 C1726 1.429 . S
C1745 C1739 1.429 1_545 S
C1745 C1746 1.523 . S
C1746 C1727 1.368 1_545 S
C1746 C1740 1.368 . S
C1746 C1745 1.523 . S
C1747 C1731 1.439 . S
C1747 C1743 1.419 1_565 S
C1747 C1748 1.522 1_565 S
C1748 C1732 1.368 . S
C1748 C1744 1.368 1_545 S
C1748 C1747 1.522 1_545 S
H1749 C1724 0.950 . S
H1750 C1726 0.950 . S
H1751 C1727 0.949 . S
H1752 C1729 0.950 . S
H1753 C1731 0.950 . S
C1754 C1755 1.349 . S
C1754 C1756 1.327 . S
C1754 H1779 0.950 . S
C1755 C1754 1.349 . S
C1755 C1771 1.349 . S
C1756 C1754 1.327 . S
C1756 C1775 1.429 . S
C1756 H1780 0.950 . S
C1757 C1774 1.574 . S
C1757 C1776 1.368 . S
C1757 H1781 0.949 . S
H1758 C1762 0.949 . S
C1759 C1760 1.349 . S
C1759 C1761 1.327 . S
C1759 H1782 0.950 . S
C1760 C1759 1.349 . S
C1760 C1772 1.349 . S
C1761 C1759 1.327 . S
C1761 C1777 1.429 . S
C1761 H1783 0.950 . S
C1762 H1758 0.949 . S
C1762 C1770 1.574 . S
C1762 C1778 1.368 . S
H1763 C1771 0.950 . S
H1764 C1769 0.950 . S
H1765 C1770 0.949 . S
H1766 C1772 0.950 . S
H1767 C1773 0.950 . S
H1768 C1774 0.949 . S
C1769 H1764 0.950 . S
C1769 C1771 1.327 . S
C1769 C1775 1.429 . S
C1770 C1762 1.574 . S
C1770 H1765 0.949 . S
C1770 C1776 1.368 . S
C1771 C1755 1.349 . S
C1771 H1763 0.950 . S
C1771 C1769 1.327 . S
C1772 C1760 1.349 . S
C1772 H1766 0.950 . S
C1772 C1773 1.327 . S
C1773 H1767 0.950 . S
C1773 C1772 1.327 . S
C1773 C1777 1.429 . S
C1774 C1757 1.574 . S
C1774 H1768 0.949 . S
C1774 C1778 1.368 . S
C1775 C1756 1.429 . S
C1775 C1769 1.429 . S
C1775 C1776 1.523 . S
C1776 C1757 1.368 . S
C1776 C1770 1.368 . S
C1776 C1775 1.523 . S
C1777 C1761 1.429 . S
C1777 C1773 1.429 . S
C1777 C1778 1.523 . S
C1778 C1762 1.368 . S
C1778 C1774 1.368 . S
C1778 C1777 1.523 . S
H1779 C1754 0.950 . S
H1780 C1756 0.950 . S
H1781 C1757 0.949 . S
H1782 C1759 0.950 . S
H1783 C1761 0.950 . S
C1784 C1785 1.349 . S
C1784 C1786 1.327 . S
C1784 H1809 0.950 1_545 S
C1785 C1784 1.349 . S
C1785 C1801 1.349 . S
C1786 C1784 1.327 . S
C1786 C1805 1.429 . S
C1786 H1810 0.950 1_545 S
C1787 C1804 1.574 . S
C1787 C1806 1.368 . S
C1787 H1811 0.949 . S
H1788 C1792 0.949 . S
C1789 C1790 1.387 . S
C1789 C1791 1.327 . S
C1789 H1812 0.950 . S
C1790 C1789 1.387 . S
C1790 C1802 1.318 1_545 S
C1791 C1789 1.327 . S
C1791 C1807 1.429 . S
C1791 H1813 0.950 . S
C1792 H1788 0.949 . S
C1792 C1800 1.574 . S
C1792 C1808 1.368 1_565 S
H1793 C1801 0.950 . S
H1794 C1799 0.950 . S
H1795 C1800 0.949 . S
H1796 C1802 0.950 . S
H1797 C1803 0.950 . S
H1798 C1804 0.949 . S
C1799 H1794 0.950 . S
C1799 C1801 1.327 . S
C1799 C1805 1.429 . S
C1800 C1792 1.574 . S
C1800 H1795 0.949 . S
C1800 C1806 1.368 1_565 S
C1801 C1785 1.349 . S
C1801 H1793 0.950 . S
C1801 C1799 1.327 . S
C1802 C1790 1.318 1_565 S
C1802 H1796 0.950 . S
C1802 C1803 1.327 . S
C1803 H1797 0.950 . S
C1803 C1802 1.327 . S
C1803 C1807 1.429 1_565 S
C1804 C1787 1.574 . S
C1804 H1798 0.949 . S
C1804 C1808 1.368 . S
C1805 C1786 1.429 . S
C1805 C1799 1.429 . S
C1805 C1806 1.523 . S
C1806 C1787 1.368 . S
C1806 C1800 1.368 1_545 S
C1806 C1805 1.523 . S
C1807 C1791 1.429 . S
C1807 C1803 1.429 1_545 S
C1807 C1808 1.523 . S
C1808 C1792 1.368 1_545 S
C1808 C1804 1.368 . S
C1808 C1807 1.523 . S
H1809 C1784 0.950 1_565 S
H1810 C1786 0.950 1_565 S
H1811 C1787 0.949 . S
H1812 C1789 0.950 . S
H1813 C1791 0.950 . S
C1814 C1815 1.349 . S
C1814 C1816 1.327 . S
C1814 H1839 0.950 . S
C1815 C1814 1.349 . S
C1815 C1831 1.349 . S
C1816 C1814 1.327 . S
C1816 C1835 1.429 . S
C1816 H1840 0.950 . S
C1817 C1834 1.574 . S
C1817 C1836 1.368 . S
C1817 H1841 0.949 . S
H1818 C1822 0.949 . S
C1819 C1820 1.349 . S
C1819 C1821 1.327 . S
C1819 H1842 0.950 . S
C1820 C1819 1.349 . S
C1820 C1832 1.349 . S
C1821 C1819 1.327 . S
C1821 C1837 1.429 . S
C1821 H1843 0.950 . S
C1822 H1818 0.949 . S
C1822 C1830 1.574 . S
C1822 C1838 1.368 . S
H1823 C1831 0.950 . S
H1824 C1829 0.950 . S
H1825 C1830 0.949 . S
H1826 C1832 0.950 . S
H1827 C1833 0.950 . S
H1828 C1834 0.949 . S
C1829 H1824 0.950 . S
C1829 C1831 1.327 . S
C1829 C1835 1.429 . S
C1830 C1822 1.574 . S
C1830 H1825 0.949 . S
C1830 C1836 1.368 . S
C1831 C1815 1.349 . S
C1831 H1823 0.950 . S
C1831 C1829 1.327 . S
C1832 C1820 1.349 . S
C1832 H1826 0.950 . S
C1832 C1833 1.327 . S
C1833 H1827 0.950 . S
C1833 C1832 1.327 . S
C1833 C1837 1.429 . S
C1834 C1817 1.574 . S
C1834 H1828 0.949 . S
C1834 C1838 1.368 . S
C1835 C1816 1.429 . S
C1835 C1829 1.429 . S
C1835 C1836 1.523 . S
C1836 C1817 1.368 . S
C1836 C1830 1.368 . S
C1836 C1835 1.523 . S
C1837 C1821 1.429 . S
C1837 C1833 1.429 . S
C1837 C1838 1.523 . S
C1838 C1822 1.368 . S
C1838 C1834 1.368 . S
C1838 C1837 1.523 . S
H1839 C1814 0.950 . S
H1840 C1816 0.950 . S
H1841 C1817 0.949 . S
H1842 C1819 0.950 . S
H1843 C1821 0.950 . S
C1844 C1845 1.349 . S
C1844 C1846 1.327 . S
C1844 H1869 0.950 . S
C1845 C1844 1.349 . S
C1845 C1861 1.349 1_545 S
C1846 C1844 1.327 . S
C1846 C1865 1.429 . S
C1846 H1870 0.950 . S
C1847 C1864 1.566 1_565 S
C1847 C1866 1.368 1_565 S
C1847 H1871 0.949 . S
H1848 C1852 0.949 . S
C1849 C1850 1.349 . S
C1849 C1851 1.327 . S
C1849 H1872 0.984 . S
C1850 C1849 1.349 . S
C1850 C1862 1.349 . S
C1851 C1849 1.327 . S
C1851 C1867 1.429 . S
C1851 H1873 0.950 1_545 S
C1852 H1848 0.949 . S
C1852 C1860 1.574 . S
C1852 C1868 1.368 . S
H1853 C1861 0.950 . S
H1854 C1859 0.950 . S
H1855 C1860 0.949 . S
H1856 C1862 0.950 . S
H1857 C1863 0.950 . S
H1858 C1864 0.923 1_565 S
C1859 H1854 0.950 . S
C1859 C1861 1.327 . S
C1859 C1865 1.429 1_565 S
C1860 C1852 1.574 . S
C1860 H1855 0.949 . S
C1860 C1866 1.368 . S
C1861 C1845 1.349 1_565 S
C1861 H1853 0.950 . S
C1861 C1859 1.327 . S
C1862 C1850 1.349 . S
C1862 H1856 0.950 . S
C1862 C1863 1.327 . S
C1863 H1857 0.950 . S
C1863 C1862 1.327 . S
C1863 C1867 1.429 . S
C1864 C1847 1.566 1_545 S
C1864 H1858 0.923 1_545 S
C1864 C1868 1.405 . S
C1865 C1846 1.429 . S
C1865 C1859 1.429 1_545 S
C1865 C1866 1.523 . S
C1866 C1847 1.368 1_545 S
C1866 C1860 1.368 . S
C1866 C1865 1.523 . S
C1867 C1851 1.429 . S
C1867 C1863 1.429 . S
C1867 C1868 1.523 . S
C1868 C1852 1.368 . S
C1868 C1864 1.405 . S
C1868 C1867 1.523 . S
H1869 C1844 0.950 . S
H1870 C1846 0.950 . S
H1871 C1847 0.949 . S
H1872 C1849 0.984 . S
H1873 C1851 0.950 1_565 S
C1874 C1875 1.349 . S
C1874 C1876 1.327 . S
C1874 H1899 0.950 . S
C1875 C1874 1.349 . S
C1875 C1891 1.349 . S
C1876 C1874 1.327 . S
C1876 C1895 1.429 . S
C1876 H1900 0.950 . S
C1877 C1894 1.574 . S
C1877 C1896 1.368 . S
C1877 H1901 0.949 . S
H1878 C1882 0.949 . S
C1879 C1880 1.349 . S
C1879 C1881 1.327 . S
C1879 H1902 0.950 . S
C1880 C1879 1.349 . S
C1880 C1892 1.349 . S
C1881 C1879 1.327 . S
C1881 C1897 1.429 . S
C1881 H1903 0.950 . S
C1882 H1878 0.949 . S
C1882 C1890 1.574 . S
C1882 C1898 1.368 . S
H1883 C1891 0.950 . S
H1884 C1889 0.950 . S
H1885 C1890 0.949 . S
H1886 C1892 0.950 . S
H1887 C1893 0.950 . S
H1888 C1894 0.949 . S
C1889 H1884 0.950 . S
C1889 C1891 1.327 . S
C1889 C1895 1.429 . S
C1890 C1882 1.574 . S
C1890 H1885 0.949 . S
C1890 C1896 1.368 . S
C1891 C1875 1.349 . S
C1891 H1883 0.950 . S
C1891 C1889 1.327 . S
C1892 C1880 1.349 . S
C1892 H1886 0.950 . S
C1892 C1893 1.327 . S
C1893 H1887 0.950 . S
C1893 C1892 1.327 . S
C1893 C1897 1.429 . S
C1894 C1877 1.574 . S
C1894 H1888 0.949 . S
C1894 C1898 1.368 . S
C1895 C1876 1.429 . S
C1895 C1889 1.429 . S
C1895 C1896 1.523 . S
C1896 C1877 1.368 . S
C1896 C1890 1.368 . S
C1896 C1895 1.523 . S
C1897 C1881 1.429 . S
C1897 C1893 1.429 . S
C1897 C1898 1.523 . S
C1898 C1882 1.368 . S
C1898 C1894 1.368 . S
C1898 C1897 1.523 . S
H1899 C1874 0.950 . S
H1900 C1876 0.950 . S
H1901 C1877 0.949 . S
H1902 C1879 0.950 . S
H1903 C1881 0.950 . S
C1904 C1905 1.349 . S
C1904 C1906 1.327 . S
C1904 H1929 0.950 1_554 S
C1905 C1904 1.349 . S
C1905 C1921 1.349 . S
C1906 C1904 1.327 . S
C1906 C1925 1.429 . S
C1906 H1930 0.950 . S
C1907 C1924 1.574 . S
C1907 C1926 1.368 . S
C1907 H1931 0.949 . S
H1908 C1912 0.949 . S
C1909 C1910 1.349 . S
C1909 C1911 1.327 . S
C1909 H1932 0.950 . S
C1910 C1909 1.349 . S
C1910 C1922 1.349 . S
C1911 C1909 1.327 . S
C1911 C1927 1.429 . S
C1911 H1933 0.950 . S
C1912 H1908 0.949 . S
C1912 C1920 1.574 . S
C1912 C1928 1.368 . S
H1913 C1921 0.950 . S
H1914 C1919 0.950 . S
H1915 C1920 0.949 . S
H1916 C1922 0.950 . S
H1917 C1923 0.950 . S
H1918 C1924 0.949 . S
C1919 H1914 0.950 . S
C1919 C1921 1.327 . S
C1919 C1925 1.429 . S
C1920 C1912 1.574 . S
C1920 H1915 0.949 . S
C1920 C1926 1.368 . S
C1921 C1905 1.349 . S
C1921 H1913 0.950 . S
C1921 C1919 1.327 . S
C1922 C1910 1.349 . S
C1922 H1916 0.950 . S
C1922 C1923 1.327 . S
C1923 H1917 0.950 . S
C1923 C1922 1.327 . S
C1923 C1927 1.429 . S
C1924 C1907 1.574 . S
C1924 H1918 0.949 . S
C1924 C1928 1.368 . S
C1925 C1906 1.429 . S
C1925 C1919 1.429 . S
C1925 C1926 1.523 . S
C1926 C1907 1.368 . S
C1926 C1920 1.368 . S
C1926 C1925 1.523 . S
C1927 C1911 1.429 . S
C1927 C1923 1.429 . S
C1927 C1928 1.523 . S
C1928 C1912 1.368 . S
C1928 C1924 1.368 . S
C1928 C1927 1.523 . S
H1929 C1904 0.950 1_556 S
H1930 C1906 0.950 . S
H1931 C1907 0.949 . S
H1932 C1909 0.950 . S
H1933 C1911 0.950 . S
C1934 C1935 1.349 . S
C1934 C1936 1.327 . S
C1934 H1959 0.950 1_554 S
C1935 C1934 1.349 . S
C1935 C1951 1.349 . S
C1936 C1934 1.327 . S
C1936 C1955 1.429 . S
C1936 H1960 0.950 1_554 S
C1937 C1954 1.574 . S
C1937 C1956 1.368 . S
C1937 H1961 0.949 . S
H1938 C1942 0.949 . S
C1939 C1940 1.349 . S
C1939 C1941 1.327 . S
C1939 H1962 0.950 . S
C1940 C1939 1.349 . S
C1940 C1952 1.349 1_554 S
C1941 C1939 1.327 . S
C1941 C1957 1.429 . S
C1941 H1963 0.950 . S
C1942 H1938 0.949 . S
C1942 C1950 1.575 . S
C1942 C1958 1.368 1_556 S
H1943 C1951 0.950 . S
H1944 C1949 0.950 . S
H1945 C1950 0.970 . S
H1946 C1952 0.950 . S
H1947 C1953 0.950 . S
H1948 C1954 0.949 . S
C1949 H1944 0.950 . S
C1949 C1951 1.327 . S
C1949 C1955 1.429 . S
C1950 C1942 1.575 . S
C1950 H1945 0.970 . S
C1950 C1956 1.345 1_556 S
C1951 C1935 1.349 . S
C1951 H1943 0.950 . S
C1951 C1949 1.327 . S
C1952 C1940 1.349 1_556 S
C1952 H1946 0.950 . S
C1952 C1953 1.327 . S
C1953 H1947 0.950 . S
C1953 C1952 1.327 . S
C1953 C1957 1.429 1_556 S
C1954 C1937 1.574 . S
C1954 H1948 0.949 . S
C1954 C1958 1.368 . S
C1955 C1936 1.429 . S
C1955 C1949 1.429 . S
C1955 C1956 1.523 . S
C1956 C1937 1.368 . S
C1956 C1950 1.345 1_554 S
C1956 C1955 1.523 . S
C1957 C1941 1.429 . S
C1957 C1953 1.429 1_554 S
C1957 C1958 1.523 . S
C1958 C1942 1.368 1_554 S
C1958 C1954 1.368 . S
C1958 C1957 1.523 . S
H1959 C1934 0.950 1_556 S
H1960 C1936 0.950 1_556 S
H1961 C1937 0.949 . S
H1962 C1939 0.950 . S
H1963 C1941 0.950 . S
C1964 C1965 1.349 . S
C1964 C1966 1.327 . S
C1964 H1989 0.950 . S
C1965 C1964 1.349 . S
C1965 C1981 1.349 . S
C1966 C1964 1.327 . S
C1966 C1985 1.429 . S
C1966 H1990 0.950 . S
C1967 C1984 1.574 . S
C1967 C1986 1.368 . S
C1967 H1991 0.949 . S
H1968 C1972 0.949 . S
C1969 C1970 1.349 . S
C1969 C1971 1.327 . S
C1969 H1992 0.950 . S
C1970 C1969 1.349 . S
C1970 C1982 1.349 . S
C1971 C1969 1.327 . S
C1971 C1987 1.429 . S
C1971 H1993 0.950 . S
C1972 H1968 0.949 . S
C1972 C1980 1.574 . S
C1972 C1988 1.368 . S
H1973 C1981 0.950 . S
H1974 C1979 0.950 . S
H1975 C1980 0.949 . S
H1976 C1982 0.950 . S
H1977 C1983 0.950 . S
H1978 C1984 0.949 . S
C1979 H1974 0.950 . S
C1979 C1981 1.327 . S
C1979 C1985 1.429 . S
C1980 C1972 1.574 . S
C1980 H1975 0.949 . S
C1980 C1986 1.368 . S
C1981 C1965 1.349 . S
C1981 H1973 0.950 . S
C1981 C1979 1.327 . S
C1982 C1970 1.349 . S
C1982 H1976 0.950 . S
C1982 C1983 1.327 . S
C1983 H1977 0.950 . S
C1983 C1982 1.327 . S
C1983 C1987 1.429 . S
C1984 C1967 1.574 . S
C1984 H1978 0.949 . S
C1984 C1988 1.368 . S
C1985 C1966 1.429 . S
C1985 C1979 1.429 . S
C1985 C1986 1.523 . S
C1986 C1967 1.368 . S
C1986 C1980 1.368 . S
C1986 C1985 1.523 . S
C1987 C1971 1.429 . S
C1987 C1983 1.429 . S
C1987 C1988 1.523 . S
C1988 C1972 1.368 . S
C1988 C1984 1.368 . S
C1988 C1987 1.523 . S
H1989 C1964 0.950 . S
H1990 C1966 0.950 . S
H1991 C1967 0.949 . S
H1992 C1969 0.950 . S
H1993 C1971 0.950 . S
C1994 C1995 1.349 . S
C1994 C1996 1.327 . S
C1994 H2019 0.950 . S
C1995 C1994 1.349 . S
C1995 C2011 1.349 . S
C1996 C1994 1.327 . S
C1996 C2015 1.429 . S
C1996 H2020 0.950 . S
C1997 C2014 1.574 . S
C1997 C2016 1.368 . S
C1997 H2021 0.949 . S
H1998 C2002 0.949 . S
C1999 C2000 1.349 . S
C1999 C2001 1.327 . S
C1999 H2022 0.950 . S
C2000 C1999 1.349 . S
C2000 C2012 1.349 . S
C2001 C1999 1.327 . S
C2001 C2017 1.429 . S
C2001 H2023 0.950 . S
C2002 H1998 0.949 . S
C2002 C2010 1.574 . S
C2002 C2018 1.368 . S
H2003 C2011 0.950 . S
H2004 C2009 0.950 . S
H2005 C2010 0.949 . S
H2006 C2012 0.950 . S
H2007 C2013 0.950 . S
H2008 C2014 0.949 . S
C2009 H2004 0.950 . S
C2009 C2011 1.327 . S
C2009 C2015 1.429 . S
C2010 C2002 1.574 . S
C2010 H2005 0.949 . S
C2010 C2016 1.368 . S
C2011 C1995 1.349 . S
C2011 H2003 0.950 . S
C2011 C2009 1.327 . S
C2012 C2000 1.349 . S
C2012 H2006 0.950 . S
C2012 C2013 1.327 . S
C2013 H2007 0.950 . S
C2013 C2012 1.327 . S
C2013 C2017 1.429 . S
C2014 C1997 1.574 . S
C2014 H2008 0.949 . S
C2014 C2018 1.368 . S
C2015 C1996 1.429 . S
C2015 C2009 1.429 . S
C2015 C2016 1.523 . S
C2016 C1997 1.368 . S
C2016 C2010 1.368 . S
C2016 C2015 1.523 . S
C2017 C2001 1.429 . S
C2017 C2013 1.429 . S
C2017 C2018 1.523 . S
C2018 C2002 1.368 . S
C2018 C2014 1.368 . S
C2018 C2017 1.523 . S
H2019 C1994 0.950 . S
H2020 C1996 0.950 . S
H2021 C1997 0.949 . S
H2022 C1999 0.950 . S
H2023 C2001 0.950 . S
C2024 C2025 1.349 . S
C2024 C2026 1.327 . S
C2024 H2049 0.950 . S
C2025 C2024 1.349 . S
C2025 C2041 1.349 . S
C2026 C2024 1.327 . S
C2026 C2045 1.429 . S
C2026 H2050 0.950 . S
C2027 C2044 1.574 . S
C2027 C2046 1.368 . S
C2027 H2051 0.949 . S
H2028 C2032 0.949 . S
C2029 C2030 1.349 . S
C2029 C2031 1.327 . S
C2029 H2052 0.950 . S
C2030 C2029 1.349 . S
C2030 C2042 1.349 . S
C2031 C2029 1.327 . S
C2031 C2047 1.429 . S
C2031 H2053 0.950 . S
C2032 H2028 0.949 . S
C2032 C2040 1.574 . S
C2032 C2048 1.368 . S
H2033 C2041 0.950 . S
H2034 C2039 0.950 . S
H2035 C2040 0.949 . S
H2036 C2042 0.950 . S
H2037 C2043 0.950 . S
H2038 C2044 0.949 . S
C2039 H2034 0.950 . S
C2039 C2041 1.327 . S
C2039 C2045 1.429 . S
C2040 C2032 1.574 . S
C2040 H2035 0.949 . S
C2040 C2046 1.368 . S
C2041 C2025 1.349 . S
C2041 H2033 0.950 . S
C2041 C2039 1.327 . S
C2042 C2030 1.349 . S
C2042 H2036 0.950 . S
C2042 C2043 1.327 . S
C2043 H2037 0.950 . S
C2043 C2042 1.327 . S
C2043 C2047 1.429 . S
C2044 C2027 1.574 . S
C2044 H2038 0.949 . S
C2044 C2048 1.368 . S
C2045 C2026 1.429 . S
C2045 C2039 1.429 . S
C2045 C2046 1.523 . S
C2046 C2027 1.368 . S
C2046 C2040 1.368 . S
C2046 C2045 1.523 . S
C2047 C2031 1.429 . S
C2047 C2043 1.429 . S
C2047 C2048 1.523 . S
C2048 C2032 1.368 . S
C2048 C2044 1.368 . S
C2048 C2047 1.523 . S
H2049 C2024 0.950 . S
H2050 C2026 0.950 . S
H2051 C2027 0.949 . S
H2052 C2029 0.950 . S
H2053 C2031 0.950 . S
C2054 C2055 1.349 . S
C2054 C2056 1.327 . S
C2054 H2079 0.950 . S
C2055 C2054 1.349 . S
C2055 C2071 1.349 . S
C2056 C2054 1.327 . S
C2056 C2075 1.429 . S
C2056 H2080 0.950 . S
C2057 C2074 1.574 . S
C2057 C2076 1.368 . S
C2057 H2081 0.949 . S
H2058 C2062 0.949 . S
C2059 C2060 1.349 . S
C2059 C2061 1.327 . S
C2059 H2082 0.950 . S
C2060 C2059 1.349 . S
C2060 C2072 1.349 . S
C2061 C2059 1.327 . S
C2061 C2077 1.429 . S
C2061 H2083 0.950 . S
C2062 H2058 0.949 . S
C2062 C2070 1.574 . S
C2062 C2078 1.368 . S
H2063 C2071 0.950 . S
H2064 C2069 0.950 . S
H2065 C2070 0.949 . S
H2066 C2072 0.950 . S
H2067 C2073 0.950 . S
H2068 C2074 0.949 . S
C2069 H2064 0.950 . S
C2069 C2071 1.327 . S
C2069 C2075 1.429 . S
C2070 C2062 1.574 . S
C2070 H2065 0.949 . S
C2070 C2076 1.368 . S
C2071 C2055 1.349 . S
C2071 H2063 0.950 . S
C2071 C2069 1.327 . S
C2072 C2060 1.349 . S
C2072 H2066 0.950 . S
C2072 C2073 1.327 . S
C2073 H2067 0.950 . S
C2073 C2072 1.327 . S
C2073 C2077 1.429 . S
C2074 C2057 1.574 . S
C2074 H2068 0.949 . S
C2074 C2078 1.368 . S
C2075 C2056 1.429 . S
C2075 C2069 1.429 . S
C2075 C2076 1.523 . S
C2076 C2057 1.368 . S
C2076 C2070 1.368 . S
C2076 C2075 1.523 . S
C2077 C2061 1.429 . S
C2077 C2073 1.429 . S
C2077 C2078 1.523 . S
C2078 C2062 1.368 . S
C2078 C2074 1.368 . S
C2078 C2077 1.523 . S
H2079 C2054 0.950 . S
H2080 C2056 0.950 . S
H2081 C2057 0.949 . S
H2082 C2059 0.950 . S
H2083 C2061 0.950 . S
C2084 C2085 1.349 . S
C2084 C2086 1.327 . S
C2084 H2109 0.950 . S
C2085 C2084 1.349 . S
C2085 C2101 1.349 . S
C2086 C2084 1.327 . S
C2086 C2105 1.429 . S
C2086 H2110 0.950 . S
C2087 C2104 1.574 . S
C2087 C2106 1.368 . S
C2087 H2111 0.949 . S
H2088 C2092 0.949 . S
C2089 C2090 1.349 . S
C2089 C2091 1.327 . S
C2089 H2112 0.950 . S
C2090 C2089 1.349 . S
C2090 C2102 1.349 . S
C2091 C2089 1.327 . S
C2091 C2107 1.429 . S
C2091 H2113 0.950 . S
C2092 H2088 0.949 . S
C2092 C2100 1.574 . S
C2092 C2108 1.368 . S
H2093 C2101 0.950 . S
H2094 C2099 0.950 . S
H2095 C2100 0.949 . S
H2096 C2102 0.950 . S
H2097 C2103 0.950 . S
H2098 C2104 0.949 . S
C2099 H2094 0.950 . S
C2099 C2101 1.327 . S
C2099 C2105 1.429 . S
C2100 C2092 1.574 . S
C2100 H2095 0.949 . S
C2100 C2106 1.368 . S
C2101 C2085 1.349 . S
C2101 H2093 0.950 . S
C2101 C2099 1.327 . S
C2102 C2090 1.349 . S
C2102 H2096 0.950 . S
C2102 C2103 1.327 . S
C2103 H2097 0.950 . S
C2103 C2102 1.327 . S
C2103 C2107 1.429 . S
C2104 C2087 1.574 . S
C2104 H2098 0.949 . S
C2104 C2108 1.368 . S
C2105 C2086 1.429 . S
C2105 C2099 1.429 . S
C2105 C2106 1.523 . S
C2106 C2087 1.368 . S
C2106 C2100 1.368 . S
C2106 C2105 1.523 . S
C2107 C2091 1.429 . S
C2107 C2103 1.429 . S
C2107 C2108 1.523 . S
C2108 C2092 1.368 . S
C2108 C2104 1.368 . S
C2108 C2107 1.523 . S
H2109 C2084 0.950 . S
H2110 C2086 0.950 . S
H2111 C2087 0.949 . S
H2112 C2089 0.950 . S
H2113 C2091 0.950 . S
C2114 C2115 1.349 . S
C2114 C2116 1.327 . S
C2114 H2139 0.950 . S
C2115 C2114 1.349 . S
C2115 C2131 1.349 . S
C2116 C2114 1.327 . S
C2116 C2135 1.429 . S
C2116 H2140 0.950 . S
C2117 C2134 1.574 . S
C2117 C2136 1.368 . S
C2117 H2141 0.949 . S
H2118 C2122 0.949 . S
C2119 C2120 1.349 . S
C2119 C2121 1.327 . S
C2119 H2142 0.950 . S
C2120 C2119 1.349 . S
C2120 C2132 1.349 . S
C2121 C2119 1.327 . S
C2121 C2137 1.429 . S
C2121 H2143 0.950 . S
C2122 H2118 0.949 . S
C2122 C2130 1.574 . S
C2122 C2138 1.368 . S
H2123 C2131 0.950 . S
H2124 C2129 0.950 . S
H2125 C2130 0.949 . S
H2126 C2132 0.950 . S
H2127 C2133 0.950 . S
H2128 C2134 0.949 . S
C2129 H2124 0.950 . S
C2129 C2131 1.327 . S
C2129 C2135 1.429 . S
C2130 C2122 1.574 . S
C2130 H2125 0.949 . S
C2130 C2136 1.368 . S
C2131 C2115 1.349 . S
C2131 H2123 0.950 . S
C2131 C2129 1.327 . S
C2132 C2120 1.349 . S
C2132 H2126 0.950 . S
C2132 C2133 1.327 . S
C2133 H2127 0.950 . S
C2133 C2132 1.327 . S
C2133 C2137 1.429 . S
C2134 C2117 1.574 . S
C2134 H2128 0.949 . S
C2134 C2138 1.368 . S
C2135 C2116 1.429 . S
C2135 C2129 1.429 . S
C2135 C2136 1.523 . S
C2136 C2117 1.368 . S
C2136 C2130 1.368 . S
C2136 C2135 1.523 . S
C2137 C2121 1.429 . S
C2137 C2133 1.429 . S
C2137 C2138 1.523 . S
C2138 C2122 1.368 . S
C2138 C2134 1.368 . S
C2138 C2137 1.523 . S
H2139 C2114 0.950 . S
H2140 C2116 0.950 . S
H2141 C2117 0.949 . S
H2142 C2119 0.950 . S
H2143 C2121 0.950 . S
C2144 C2145 1.349 . S
C2144 C2146 1.327 . S
C2144 H2169 0.950 . S
C2145 C2144 1.349 . S
C2145 C2161 1.349 . S
C2146 C2144 1.327 . S
C2146 C2165 1.429 . S
C2146 H2170 0.950 . S
C2147 C2164 1.574 . S
C2147 C2166 1.368 . S
C2147 H2171 0.949 . S
H2148 C2152 0.949 . S
C2149 C2150 1.349 . S
C2149 C2151 1.327 . S
C2149 H2172 0.950 . S
C2150 C2149 1.349 . S
C2150 C2162 1.349 . S
C2151 C2149 1.327 . S
C2151 C2167 1.429 . S
C2151 H2173 0.950 . S
C2152 H2148 0.949 . S
C2152 C2160 1.574 . S
C2152 C2168 1.368 . S
H2153 C2161 0.950 . S
H2154 C2159 0.950 . S
H2155 C2160 0.949 . S
H2156 C2162 0.950 . S
H2157 C2163 0.950 . S
H2158 C2164 0.949 . S
C2159 H2154 0.950 . S
C2159 C2161 1.327 . S
C2159 C2165 1.429 . S
C2160 C2152 1.574 . S
C2160 H2155 0.949 . S
C2160 C2166 1.368 . S
C2161 C2145 1.349 . S
C2161 H2153 0.950 . S
C2161 C2159 1.327 . S
C2162 C2150 1.349 . S
C2162 H2156 0.950 . S
C2162 C2163 1.327 . S
C2163 H2157 0.950 . S
C2163 C2162 1.327 . S
C2163 C2167 1.429 . S
C2164 C2147 1.574 . S
C2164 H2158 0.949 . S
C2164 C2168 1.368 . S
C2165 C2146 1.429 . S
C2165 C2159 1.429 . S
C2165 C2166 1.523 . S
C2166 C2147 1.368 . S
C2166 C2160 1.368 . S
C2166 C2165 1.523 . S
C2167 C2151 1.429 . S
C2167 C2163 1.429 . S
C2167 C2168 1.523 . S
C2168 C2152 1.368 . S
C2168 C2164 1.368 . S
C2168 C2167 1.523 . S
H2169 C2144 0.950 . S
H2170 C2146 0.950 . S
H2171 C2147 0.949 . S
H2172 C2149 0.950 . S
H2173 C2151 0.950 . S
C2174 C2175 1.349 . S
C2174 C2176 1.327 . S
C2174 H2199 0.950 . S
C2175 C2174 1.349 . S
C2175 C2191 1.349 . S
C2176 C2174 1.327 . S
C2176 C2195 1.429 . S
C2176 H2200 0.950 . S
C2177 C2194 1.574 . S
C2177 C2196 1.368 . S
C2177 H2201 0.949 . S
H2178 C2182 0.949 . S
C2179 C2180 1.349 . S
C2179 C2181 1.327 . S
C2179 H2202 0.950 . S
C2180 C2179 1.349 . S
C2180 C2192 1.349 . S
C2181 C2179 1.327 . S
C2181 C2197 1.429 . S
C2181 H2203 0.950 . S
C2182 H2178 0.949 . S
C2182 C2190 1.574 . S
C2182 C2198 1.368 . S
H2183 C2191 0.950 . S
H2184 C2189 0.950 . S
H2185 C2190 0.949 . S
H2186 C2192 0.950 . S
H2187 C2193 0.950 . S
H2188 C2194 0.949 . S
C2189 H2184 0.950 . S
C2189 C2191 1.327 . S
C2189 C2195 1.429 . S
C2190 C2182 1.574 . S
C2190 H2185 0.949 . S
C2190 C2196 1.368 . S
C2191 C2175 1.349 . S
C2191 H2183 0.950 . S
C2191 C2189 1.327 . S
C2192 C2180 1.349 . S
C2192 H2186 0.950 . S
C2192 C2193 1.327 . S
C2193 H2187 0.950 . S
C2193 C2192 1.327 . S
C2193 C2197 1.429 . S
C2194 C2177 1.574 . S
C2194 H2188 0.949 . S
C2194 C2198 1.368 . S
C2195 C2176 1.429 . S
C2195 C2189 1.429 . S
C2195 C2196 1.523 . S
C2196 C2177 1.368 . S
C2196 C2190 1.368 . S
C2196 C2195 1.523 . S
C2197 C2181 1.429 . S
C2197 C2193 1.429 . S
C2197 C2198 1.523 . S
C2198 C2182 1.368 . S
C2198 C2194 1.368 . S
C2198 C2197 1.523 . S
H2199 C2174 0.950 . S
H2200 C2176 0.950 . S
H2201 C2177 0.949 . S
H2202 C2179 0.950 . S
H2203 C2181 0.950 . S
C2204 C2205 1.349 . S
C2204 C2206 1.327 . S
C2204 H2229 0.950 . S
C2205 C2204 1.349 . S
C2205 C2221 1.349 . S
C2206 C2204 1.327 . S
C2206 C2225 1.429 . S
C2206 H2230 0.950 . S
C2207 C2224 1.574 . S
C2207 C2226 1.368 . S
C2207 H2231 0.949 . S
H2208 C2212 0.949 . S
C2209 C2210 1.349 . S
C2209 C2211 1.327 . S
C2209 H2232 0.950 . S
C2210 C2209 1.349 . S
C2210 C2222 1.349 . S
C2211 C2209 1.327 . S
C2211 C2227 1.429 . S
C2211 H2233 0.950 . S
C2212 H2208 0.949 . S
C2212 C2220 1.574 . S
C2212 C2228 1.368 . S
H2213 C2221 0.950 . S
H2214 C2219 0.950 . S
H2215 C2220 0.949 . S
H2216 C2222 0.950 . S
H2217 C2223 0.950 . S
H2218 C2224 0.949 . S
C2219 H2214 0.950 . S
C2219 C2221 1.327 . S
C2219 C2225 1.429 . S
C2220 C2212 1.574 . S
C2220 H2215 0.949 . S
C2220 C2226 1.368 . S
C2221 C2205 1.349 . S
C2221 H2213 0.950 . S
C2221 C2219 1.327 . S
C2222 C2210 1.349 . S
C2222 H2216 0.950 . S
C2222 C2223 1.327 . S
C2223 H2217 0.950 . S
C2223 C2222 1.327 . S
C2223 C2227 1.429 . S
C2224 C2207 1.574 . S
C2224 H2218 0.949 . S
C2224 C2228 1.368 . S
C2225 C2206 1.429 . S
C2225 C2219 1.429 . S
C2225 C2226 1.523 . S
C2226 C2207 1.368 . S
C2226 C2220 1.368 . S
C2226 C2225 1.523 . S
C2227 C2211 1.429 . S
C2227 C2223 1.429 . S
C2227 C2228 1.523 . S
C2228 C2212 1.368 . S
C2228 C2224 1.368 . S
C2228 C2227 1.523 . S
H2229 C2204 0.950 . S
H2230 C2206 0.950 . S
H2231 C2207 0.949 . S
H2232 C2209 0.950 . S
H2233 C2211 0.950 . S
C2234 C2235 1.349 . S
C2234 C2236 1.327 . S
C2234 H2259 0.950 . S
C2235 C2234 1.349 . S
C2235 C2251 1.349 . S
C2236 C2234 1.327 . S
C2236 C2255 1.429 . S
C2236 H2260 0.950 . S
C2237 C2254 1.574 . S
C2237 C2256 1.368 . S
C2237 H2261 0.949 . S
H2238 C2242 0.949 . S
C2239 C2240 1.349 . S
C2239 C2241 1.327 . S
C2239 H2262 0.950 . S
C2240 C2239 1.349 . S
C2240 C2252 1.349 . S
C2241 C2239 1.327 . S
C2241 C2257 1.429 . S
C2241 H2263 0.950 . S
C2242 H2238 0.949 . S
C2242 C2250 1.574 . S
C2242 C2258 1.368 . S
H2243 C2251 0.950 . S
H2244 C2249 0.950 . S
H2245 C2250 0.949 . S
H2246 C2252 0.950 . S
H2247 C2253 0.950 . S
H2248 C2254 0.949 . S
C2249 H2244 0.950 . S
C2249 C2251 1.327 . S
C2249 C2255 1.429 . S
C2250 C2242 1.574 . S
C2250 H2245 0.949 . S
C2250 C2256 1.368 . S
C2251 C2235 1.349 . S
C2251 H2243 0.950 . S
C2251 C2249 1.327 . S
C2252 C2240 1.349 . S
C2252 H2246 0.950 . S
C2252 C2253 1.327 . S
C2253 H2247 0.950 . S
C2253 C2252 1.327 . S
C2253 C2257 1.429 . S
C2254 C2237 1.574 . S
C2254 H2248 0.949 . S
C2254 C2258 1.368 . S
C2255 C2236 1.429 . S
C2255 C2249 1.429 . S
C2255 C2256 1.523 . S
C2256 C2237 1.368 . S
C2256 C2250 1.368 . S
C2256 C2255 1.523 . S
C2257 C2241 1.429 . S
C2257 C2253 1.429 . S
C2257 C2258 1.523 . S
C2258 C2242 1.368 . S
C2258 C2254 1.368 . S
C2258 C2257 1.523 . S
H2259 C2234 0.950 . S
H2260 C2236 0.950 . S
H2261 C2237 0.949 . S
H2262 C2239 0.950 . S
H2263 C2241 0.950 . S
C2264 C2265 1.349 . S
C2264 C2266 1.327 . S
C2264 H2289 0.950 . S
C2265 C2264 1.349 . S
C2265 C2281 1.349 . S
C2266 C2264 1.327 . S
C2266 C2285 1.429 . S
C2266 H2290 0.950 . S
C2267 C2284 1.574 . S
C2267 C2286 1.368 . S
C2267 H2291 0.949 . S
H2268 C2272 0.949 . S
C2269 C2270 1.349 . S
C2269 C2271 1.327 1_554 S
C2269 H2292 0.950 . S
C2270 C2269 1.349 . S
C2270 C2282 1.349 . S
C2271 C2269 1.327 1_556 S
C2271 C2287 1.429 . S
C2271 H2293 0.950 . S
C2272 H2268 0.949 . S
C2272 C2280 1.574 . S
C2272 C2288 1.368 . S
H2273 C2281 0.950 . S
H2274 C2279 0.950 . S
H2275 C2280 0.949 . S
H2276 C2282 0.950 . S
H2277 C2283 0.950 . S
H2278 C2284 0.949 . S
C2279 H2274 0.950 . S
C2279 C2281 1.327 . S
C2279 C2285 1.429 . S
C2280 C2272 1.574 . S
C2280 H2275 0.949 . S
C2280 C2286 1.368 . S
C2281 C2265 1.349 . S
C2281 H2273 0.950 . S
C2281 C2279 1.327 . S
C2282 C2270 1.349 . S
C2282 H2276 0.950 . S
C2282 C2283 1.327 . S
C2283 H2277 0.950 . S
C2283 C2282 1.327 . S
C2283 C2287 1.429 1_554 S
C2284 C2267 1.574 . S
C2284 H2278 0.949 . S
C2284 C2288 1.368 . S
C2285 C2266 1.429 . S
C2285 C2279 1.429 . S
C2285 C2286 1.523 . S
C2286 C2267 1.368 . S
C2286 C2280 1.368 . S
C2286 C2285 1.523 . S
C2287 C2271 1.429 . S
C2287 C2283 1.429 1_556 S
C2287 C2288 1.523 . S
C2288 C2272 1.368 . S
C2288 C2284 1.368 . S
C2288 C2287 1.523 . S
H2289 C2264 0.950 . S
H2290 C2266 0.950 . S
H2291 C2267 0.949 . S
H2292 C2269 0.950 . S
H2293 C2271 0.950 . S
C2294 C2295 1.349 . S
C2294 C2296 1.327 . S
C2294 H2319 0.950 . S
C2295 C2294 1.349 . S
C2295 C2311 1.349 . S
C2296 C2294 1.327 . S
C2296 C2315 1.429 . S
C2296 H2320 0.950 . S
C2297 C2314 1.574 . S
C2297 C2316 1.368 . S
C2297 H2321 0.949 . S
H2298 C2302 0.949 . S
C2299 C2300 1.349 . S
C2299 C2301 1.327 . S
C2299 H2322 0.950 . S
C2300 C2299 1.349 . S
C2300 C2312 1.349 . S
C2301 C2299 1.327 . S
C2301 C2317 1.429 . S
C2301 H2323 0.950 . S
C2302 H2298 0.949 . S
C2302 C2310 1.574 . S
C2302 C2318 1.368 . S
H2303 C2311 0.950 . S
H2304 C2309 0.950 . S
H2305 C2310 0.949 . S
H2306 C2312 0.950 . S
H2307 C2313 0.950 . S
H2308 C2314 0.949 . S
C2309 H2304 0.950 . S
C2309 C2311 1.327 . S
C2309 C2315 1.429 . S
C2310 C2302 1.574 . S
C2310 H2305 0.949 . S
C2310 C2316 1.368 . S
C2311 C2295 1.349 . S
C2311 H2303 0.950 . S
C2311 C2309 1.327 . S
C2312 C2300 1.349 . S
C2312 H2306 0.950 . S
C2312 C2313 1.327 . S
C2313 H2307 0.950 . S
C2313 C2312 1.327 . S
C2313 C2317 1.429 . S
C2314 C2297 1.574 . S
C2314 H2308 0.949 . S
C2314 C2318 1.368 . S
C2315 C2296 1.429 . S
C2315 C2309 1.429 . S
C2315 C2316 1.523 . S
C2316 C2297 1.368 . S
C2316 C2310 1.368 . S
C2316 C2315 1.523 . S
C2317 C2301 1.429 . S
C2317 C2313 1.429 . S
C2317 C2318 1.523 . S
C2318 C2302 1.368 . S
C2318 C2314 1.368 . S
C2318 C2317 1.523 . S
H2319 C2294 0.950 . S
H2320 C2296 0.950 . S
H2321 C2297 0.949 . S
H2322 C2299 0.950 . S
H2323 C2301 0.950 . S
C2324 C2325 1.349 . S
C2324 C2326 1.327 . S
C2324 H2349 0.950 . S
C2325 C2324 1.349 . S
C2325 C2341 1.349 1_455 S
C2326 C2324 1.327 . S
C2326 C2345 1.429 . S
C2326 H2350 0.950 . S
C2327 C2344 1.576 . S
C2327 C2346 1.378 . S
C2327 H2351 0.938 1_455 S
H2328 C2332 0.949 . S
C2329 C2330 1.349 . S
C2329 C2331 1.327 . S
C2329 H2352 0.950 . S
C2330 C2329 1.349 . S
C2330 C2342 1.349 . S
C2331 C2329 1.327 . S
C2331 C2347 1.429 . S
C2331 H2353 0.950 1_455 S
C2332 H2328 0.949 . S
C2332 C2340 1.574 . S
C2332 C2348 1.368 . S
H2333 C2341 0.950 . S
H2334 C2339 0.950 . S
H2335 C2340 0.949 . S
H2336 C2342 0.950 . S
H2337 C2343 0.950 . S
H2338 C2344 0.949 1_655 S
C2339 H2334 0.950 . S
C2339 C2341 1.327 . S
C2339 C2345 1.429 1_655 S
C2340 C2332 1.574 . S
C2340 H2335 0.949 . S
C2340 C2346 1.368 . S
C2341 C2325 1.349 1_655 S
C2341 H2333 0.950 . S
C2341 C2339 1.327 . S
C2342 C2330 1.349 . S
C2342 H2336 0.950 . S
C2342 C2343 1.327 . S
C2343 H2337 0.950 . S
C2343 C2342 1.327 . S
C2343 C2347 1.429 . S
C2344 C2327 1.576 . S
C2344 H2338 0.949 1_455 S
C2344 C2348 1.368 . S
C2345 C2326 1.429 . S
C2345 C2339 1.429 1_455 S
C2345 C2346 1.523 . S
C2346 C2327 1.378 . S
C2346 C2340 1.368 . S
C2346 C2345 1.523 . S
C2347 C2331 1.429 . S
C2347 C2343 1.429 . S
C2347 C2348 1.523 . S
C2348 C2332 1.368 . S
C2348 C2344 1.368 . S
C2348 C2347 1.523 . S
H2349 C2324 0.950 . S
H2350 C2326 0.950 . S
H2351 C2327 0.938 1_655 S
H2352 C2329 0.950 . S
H2353 C2331 0.950 1_655 S
C2354 C2355 1.349 . S
C2354 C2356 1.327 . S
C2354 H2379 0.950 . S
C2355 C2354 1.349 . S
C2355 C2371 1.349 . S
C2356 C2354 1.327 . S
C2356 C2375 1.429 . S
C2356 H2380 0.950 . S
C2357 C2374 1.574 . S
C2357 C2376 1.368 . S
C2357 H2381 0.949 . S
H2358 C2362 0.949 . S
C2359 C2360 1.349 . S
C2359 C2361 1.327 . S
C2359 H2382 0.950 . S
C2360 C2359 1.349 . S
C2360 C2372 1.349 . S
C2361 C2359 1.327 . S
C2361 C2377 1.429 . S
C2361 H2383 0.950 . S
C2362 H2358 0.949 . S
C2362 C2370 1.574 . S
C2362 C2378 1.368 . S
H2363 C2371 0.950 . S
H2364 C2369 0.950 . S
H2365 C2370 0.949 . S
H2366 C2372 0.950 . S
H2367 C2373 0.950 . S
H2368 C2374 0.949 . S
C2369 H2364 0.950 . S
C2369 C2371 1.327 . S
C2369 C2375 1.429 . S
C2370 C2362 1.574 . S
C2370 H2365 0.949 . S
C2370 C2376 1.368 . S
C2371 C2355 1.349 . S
C2371 H2363 0.950 . S
C2371 C2369 1.327 . S
C2372 C2360 1.349 . S
C2372 H2366 0.950 . S
C2372 C2373 1.327 . S
C2373 H2367 0.950 . S
C2373 C2372 1.327 . S
C2373 C2377 1.429 . S
C2374 C2357 1.574 . S
C2374 H2368 0.949 . S
C2374 C2378 1.368 . S
C2375 C2356 1.429 . S
C2375 C2369 1.429 . S
C2375 C2376 1.523 . S
C2376 C2357 1.368 . S
C2376 C2370 1.368 . S
C2376 C2375 1.523 . S
C2377 C2361 1.429 . S
C2377 C2373 1.429 . S
C2377 C2378 1.523 . S
C2378 C2362 1.368 . S
C2378 C2374 1.368 . S
C2378 C2377 1.523 . S
H2379 C2354 0.950 . S
H2380 C2356 0.950 . S
H2381 C2357 0.949 . S
H2382 C2359 0.950 . S
H2383 C2361 0.950 . S
C2384 C2385 1.349 . S
C2384 C2386 1.327 . S
C2384 H2409 0.950 . S
C2385 C2384 1.349 . S
C2385 C2401 1.349 . S
C2386 C2384 1.327 . S
C2386 C2405 1.429 . S
C2386 H2410 0.950 . S
C2387 C2404 1.574 . S
C2387 C2406 1.368 . S
C2387 H2411 0.949 . S
H2388 C2392 0.949 . S
C2389 C2390 1.349 . S
C2389 C2391 1.327 . S
C2389 H2412 0.950 . S
C2390 C2389 1.349 . S
C2390 C2402 1.349 . S
C2391 C2389 1.327 . S
C2391 C2407 1.429 . S
C2391 H2413 0.950 . S
C2392 H2388 0.949 . S
C2392 C2400 1.574 . S
C2392 C2408 1.368 . S
H2393 C2401 0.950 . S
H2394 C2399 0.950 . S
H2395 C2400 0.949 . S
H2396 C2402 0.950 . S
H2397 C2403 0.950 . S
H2398 C2404 0.949 . S
C2399 H2394 0.950 . S
C2399 C2401 1.327 . S
C2399 C2405 1.429 . S
C2400 C2392 1.574 . S
C2400 H2395 0.949 . S
C2400 C2406 1.368 . S
C2401 C2385 1.349 . S
C2401 H2393 0.950 . S
C2401 C2399 1.327 . S
C2402 C2390 1.349 . S
C2402 H2396 0.950 . S
C2402 C2403 1.327 . S
C2403 H2397 0.950 . S
C2403 C2402 1.327 . S
C2403 C2407 1.429 . S
C2404 C2387 1.574 . S
C2404 H2398 0.949 . S
C2404 C2408 1.368 . S
C2405 C2386 1.429 . S
C2405 C2399 1.429 . S
C2405 C2406 1.523 . S
C2406 C2387 1.368 . S
C2406 C2400 1.368 . S
C2406 C2405 1.523 . S
C2407 C2391 1.429 . S
C2407 C2403 1.429 . S
C2407 C2408 1.523 . S
C2408 C2392 1.368 . S
C2408 C2404 1.368 . S
C2408 C2407 1.523 . S
H2409 C2384 0.950 . S
H2410 C2386 0.950 . S
H2411 C2387 0.949 . S
H2412 C2389 0.950 . S
H2413 C2391 0.950 . S
C2414 C2415 1.349 . S
C2414 C2416 1.327 . S
C2414 H2439 0.950 . S
C2415 C2414 1.349 . S
C2415 C2431 1.349 . S
C2416 C2414 1.327 . S
C2416 C2435 1.429 . S
C2416 H2440 0.950 . S
C2417 C2434 1.574 . S
C2417 C2436 1.368 . S
C2417 H2441 0.949 . S
H2418 C2422 0.949 . S
C2419 C2420 1.349 . S
C2419 C2421 1.327 . S
C2419 H2442 0.950 . S
C2420 C2419 1.349 . S
C2420 C2432 1.349 . S
C2421 C2419 1.327 . S
C2421 C2437 1.429 . S
C2421 H2443 0.950 . S
C2422 H2418 0.949 . S
C2422 C2430 1.574 . S
C2422 C2438 1.368 . S
H2423 C2431 0.950 . S
H2424 C2429 0.950 . S
H2425 C2430 0.949 . S
H2426 C2432 0.950 . S
H2427 C2433 0.950 . S
H2428 C2434 0.949 . S
C2429 H2424 0.950 . S
C2429 C2431 1.327 . S
C2429 C2435 1.429 . S
C2430 C2422 1.574 . S
C2430 H2425 0.949 . S
C2430 C2436 1.368 . S
C2431 C2415 1.349 . S
C2431 H2423 0.950 . S
C2431 C2429 1.327 . S
C2432 C2420 1.349 . S
C2432 H2426 0.950 . S
C2432 C2433 1.327 . S
C2433 H2427 0.950 . S
C2433 C2432 1.327 . S
C2433 C2437 1.429 . S
C2434 C2417 1.574 . S
C2434 H2428 0.949 . S
C2434 C2438 1.368 . S
C2435 C2416 1.429 . S
C2435 C2429 1.429 . S
C2435 C2436 1.523 . S
C2436 C2417 1.368 . S
C2436 C2430 1.368 . S
C2436 C2435 1.523 . S
C2437 C2421 1.429 . S
C2437 C2433 1.429 . S
C2437 C2438 1.523 . S
C2438 C2422 1.368 . S
C2438 C2434 1.368 . S
C2438 C2437 1.523 . S
H2439 C2414 0.950 . S
H2440 C2416 0.950 . S
H2441 C2417 0.949 . S
H2442 C2419 0.950 . S
H2443 C2421 0.950 . S
C2444 C2445 1.349 . S
C2444 C2446 1.327 . S
C2444 H2469 0.950 . S
C2445 C2444 1.349 . S
C2445 C2461 1.349 . S
C2446 C2444 1.327 . S
C2446 C2465 1.429 . S
C2446 H2470 0.950 . S
C2447 C2464 1.574 . S
C2447 C2466 1.368 . S
C2447 H2471 0.949 . S
H2448 C2452 0.949 . S
C2449 C2450 1.349 . S
C2449 C2451 1.327 . S
C2449 H2472 0.925 1_655 S
C2450 C2449 1.349 . S
C2450 C2462 1.349 . S
C2451 C2449 1.327 . S
C2451 C2467 1.429 . S
C2451 H2473 0.950 . S
C2452 H2448 0.949 . S
C2452 C2460 1.574 . S
C2452 C2468 1.368 . S
H2453 C2461 0.950 . S
H2454 C2459 0.950 . S
H2455 C2460 0.949 . S
H2456 C2462 0.950 . S
H2457 C2463 0.950 . S
H2458 C2464 0.949 . S
C2459 H2454 0.950 . S
C2459 C2461 1.327 . S
C2459 C2465 1.429 . S
C2460 C2452 1.574 . S
C2460 H2455 0.949 . S
C2460 C2466 1.368 . S
C2461 C2445 1.349 . S
C2461 H2453 0.950 . S
C2461 C2459 1.327 . S
C2462 C2450 1.349 . S
C2462 H2456 0.950 . S
C2462 C2463 1.327 . S
C2463 H2457 0.950 . S
C2463 C2462 1.327 . S
C2463 C2467 1.429 . S
C2464 C2447 1.574 . S
C2464 H2458 0.949 . S
C2464 C2468 1.368 . S
C2465 C2446 1.429 . S
C2465 C2459 1.429 . S
C2465 C2466 1.523 . S
C2466 C2447 1.368 . S
C2466 C2460 1.368 . S
C2466 C2465 1.523 . S
C2467 C2451 1.429 . S
C2467 C2463 1.429 . S
C2467 C2468 1.523 . S
C2468 C2452 1.368 . S
C2468 C2464 1.368 . S
C2468 C2467 1.523 . S
H2469 C2444 0.950 . S
H2470 C2446 0.950 . S
H2471 C2447 0.949 . S
H2472 C2449 0.925 1_455 S
H2473 C2451 0.950 . S
C2474 C2475 1.349 . S
C2474 C2476 1.327 . S
C2474 H2499 0.950 . S
C2475 C2474 1.349 . S
C2475 C2491 1.349 . S
C2476 C2474 1.327 . S
C2476 C2495 1.429 . S
C2476 H2500 0.950 . S
C2477 C2494 1.574 . S
C2477 C2496 1.368 . S
C2477 H2501 0.949 . S
H2478 C2482 0.949 . S
C2479 C2480 1.349 . S
C2479 C2481 1.327 . S
C2479 H2502 0.950 . S
C2480 C2479 1.349 . S
C2480 C2492 1.349 . S
C2481 C2479 1.327 . S
C2481 C2497 1.429 . S
C2481 H2503 0.950 . S
C2482 H2478 0.949 . S
C2482 C2490 1.574 . S
C2482 C2498 1.368 . S
H2483 C2491 0.950 . S
H2484 C2489 0.950 . S
H2485 C2490 0.949 . S
H2486 C2492 0.950 . S
H2487 C2493 0.950 . S
H2488 C2494 0.949 . S
C2489 H2484 0.950 . S
C2489 C2491 1.327 . S
C2489 C2495 1.429 . S
C2490 C2482 1.574 . S
C2490 H2485 0.949 . S
C2490 C2496 1.368 . S
C2491 C2475 1.349 . S
C2491 H2483 0.950 . S
C2491 C2489 1.327 . S
C2492 C2480 1.349 . S
C2492 H2486 0.950 . S
C2492 C2493 1.327 . S
C2493 H2487 0.950 . S
C2493 C2492 1.327 . S
C2493 C2497 1.429 . S
C2494 C2477 1.574 . S
C2494 H2488 0.949 . S
C2494 C2498 1.368 . S
C2495 C2476 1.429 . S
C2495 C2489 1.429 . S
C2495 C2496 1.523 . S
C2496 C2477 1.368 . S
C2496 C2490 1.368 . S
C2496 C2495 1.523 . S
C2497 C2481 1.429 . S
C2497 C2493 1.429 . S
C2497 C2498 1.523 . S
C2498 C2482 1.368 . S
C2498 C2494 1.368 . S
C2498 C2497 1.523 . S
H2499 C2474 0.950 . S
H2500 C2476 0.950 . S
H2501 C2477 0.949 . S
H2502 C2479 0.950 . S
H2503 C2481 0.950 . S
C2504 C2505 1.349 . S
C2504 C2506 1.327 . S
C2504 H2529 0.950 . S
C2505 C2504 1.349 . S
C2505 C2521 1.349 . S
C2506 C2504 1.327 . S
C2506 C2525 1.429 . S
C2506 H2530 0.950 . S
C2507 C2524 1.574 . S
C2507 C2526 1.368 . S
C2507 H2531 0.949 . S
H2508 C2512 0.949 . S
C2509 C2510 1.349 . S
C2509 C2511 1.327 . S
C2509 H2532 0.950 . S
C2510 C2509 1.349 . S
C2510 C2522 1.349 . S
C2511 C2509 1.327 . S
C2511 C2527 1.429 . S
C2511 H2533 0.950 . S
C2512 H2508 0.949 . S
C2512 C2520 1.574 . S
C2512 C2528 1.368 . S
H2513 C2521 0.950 . S
H2514 C2519 0.950 . S
H2515 C2520 0.949 . S
H2516 C2522 0.950 . S
H2517 C2523 0.950 . S
H2518 C2524 0.949 . S
C2519 H2514 0.950 . S
C2519 C2521 1.327 . S
C2519 C2525 1.429 . S
C2520 C2512 1.574 . S
C2520 H2515 0.949 . S
C2520 C2526 1.368 . S
C2521 C2505 1.349 . S
C2521 H2513 0.950 . S
C2521 C2519 1.327 . S
C2522 C2510 1.349 . S
C2522 H2516 0.950 . S
C2522 C2523 1.327 . S
C2523 H2517 0.950 . S
C2523 C2522 1.327 . S
C2523 C2527 1.429 . S
C2524 C2507 1.574 . S
C2524 H2518 0.949 . S
C2524 C2528 1.368 . S
C2525 C2506 1.429 . S
C2525 C2519 1.429 . S
C2525 C2526 1.523 . S
C2526 C2507 1.368 . S
C2526 C2520 1.368 . S
C2526 C2525 1.523 . S
C2527 C2511 1.429 . S
C2527 C2523 1.429 . S
C2527 C2528 1.523 . S
C2528 C2512 1.368 . S
C2528 C2524 1.368 . S
C2528 C2527 1.523 . S
H2529 C2504 0.950 . S
H2530 C2506 0.950 . S
H2531 C2507 0.949 . S
H2532 C2509 0.950 . S
H2533 C2511 0.950 . S
C2534 C2535 1.349 . S
C2534 C2536 1.327 . S
C2534 H2559 0.950 . S
C2535 C2534 1.349 . S
C2535 C2551 1.349 . S
C2536 C2534 1.327 . S
C2536 C2555 1.429 . S
C2536 H2560 0.950 . S
C2537 C2554 1.574 . S
C2537 C2556 1.368 . S
C2537 H2561 0.949 . S
H2538 C2542 0.949 . S
C2539 C2540 1.349 . S
C2539 C2541 1.327 . S
C2539 H2562 0.950 . S
C2540 C2539 1.349 . S
C2540 C2552 1.349 . S
C2541 C2539 1.327 . S
C2541 C2557 1.429 . S
C2541 H2563 0.950 . S
C2542 H2538 0.949 . S
C2542 C2550 1.574 . S
C2542 C2558 1.368 . S
H2543 C2551 0.950 . S
H2544 C2549 0.950 . S
H2545 C2550 0.949 . S
H2546 C2552 0.950 . S
H2547 C2553 0.950 . S
H2548 C2554 0.949 . S
C2549 H2544 0.950 . S
C2549 C2551 1.327 . S
C2549 C2555 1.429 . S
C2550 C2542 1.574 . S
C2550 H2545 0.949 . S
C2550 C2556 1.368 . S
C2551 C2535 1.349 . S
C2551 H2543 0.950 . S
C2551 C2549 1.327 . S
C2552 C2540 1.349 . S
C2552 H2546 0.950 . S
C2552 C2553 1.327 . S
C2553 H2547 0.950 . S
C2553 C2552 1.327 . S
C2553 C2557 1.429 . S
C2554 C2537 1.574 . S
C2554 H2548 0.949 . S
C2554 C2558 1.368 . S
C2555 C2536 1.429 . S
C2555 C2549 1.429 . S
C2555 C2556 1.523 . S
C2556 C2537 1.368 . S
C2556 C2550 1.368 . S
C2556 C2555 1.523 . S
C2557 C2541 1.429 . S
C2557 C2553 1.429 . S
C2557 C2558 1.523 . S
C2558 C2542 1.368 . S
C2558 C2554 1.368 . S
C2558 C2557 1.523 . S
H2559 C2534 0.950 . S
H2560 C2536 0.950 . S
H2561 C2537 0.949 . S
H2562 C2539 0.950 . S
H2563 C2541 0.950 . S
C2564 C2565 1.349 . S
C2564 C2566 1.327 . S
C2564 H2589 0.950 . S
C2565 C2564 1.349 . S
C2565 C2581 1.349 . S
C2566 C2564 1.327 . S
C2566 C2585 1.429 . S
C2566 H2590 0.950 . S
C2567 C2584 1.574 . S
C2567 C2586 1.368 . S
C2567 H2591 0.949 . S
H2568 C2572 0.949 . S
C2569 C2570 1.349 . S
C2569 C2571 1.327 . S
C2569 H2592 0.950 . S
C2570 C2569 1.349 . S
C2570 C2582 1.349 . S
C2571 C2569 1.327 . S
C2571 C2587 1.429 . S
C2571 H2593 0.950 . S
C2572 H2568 0.949 . S
C2572 C2580 1.574 . S
C2572 C2588 1.368 . S
H2573 C2581 0.950 . S
H2574 C2579 0.950 . S
H2575 C2580 0.949 . S
H2576 C2582 0.950 . S
H2577 C2583 0.950 . S
H2578 C2584 0.949 . S
C2579 H2574 0.950 . S
C2579 C2581 1.327 . S
C2579 C2585 1.429 . S
C2580 C2572 1.574 . S
C2580 H2575 0.949 . S
C2580 C2586 1.368 . S
C2581 C2565 1.349 . S
C2581 H2573 0.950 . S
C2581 C2579 1.327 . S
C2582 C2570 1.349 . S
C2582 H2576 0.950 . S
C2582 C2583 1.327 . S
C2583 H2577 0.950 . S
C2583 C2582 1.327 . S
C2583 C2587 1.429 . S
C2584 C2567 1.574 . S
C2584 H2578 0.949 . S
C2584 C2588 1.368 . S
C2585 C2566 1.429 . S
C2585 C2579 1.429 . S
C2585 C2586 1.523 . S
C2586 C2567 1.368 . S
C2586 C2580 1.368 . S
C2586 C2585 1.523 . S
C2587 C2571 1.429 . S
C2587 C2583 1.429 . S
C2587 C2588 1.523 . S
C2588 C2572 1.368 . S
C2588 C2584 1.368 . S
C2588 C2587 1.523 . S
H2589 C2564 0.950 . S
H2590 C2566 0.950 . S
H2591 C2567 0.949 . S
H2592 C2569 0.950 . S
H2593 C2571 0.950 . S
C2594 C2595 1.349 . S
C2594 C2596 1.327 . S
C2594 H2619 0.950 . S
C2595 C2594 1.349 . S
C2595 C2611 1.349 . S
C2596 C2594 1.327 . S
C2596 C2615 1.429 . S
C2596 H2620 0.950 . S
C2597 C2614 1.574 . S
C2597 C2616 1.368 . S
C2597 H2621 0.949 . S
H2598 C2602 0.949 . S
C2599 C2600 1.349 . S
C2599 C2601 1.327 . S
C2599 H2622 0.950 . S
C2600 C2599 1.349 . S
C2600 C2612 1.349 . S
C2601 C2599 1.327 . S
C2601 C2617 1.429 . S
C2601 H2623 0.950 . S
C2602 H2598 0.949 . S
C2602 C2610 1.574 . S
C2602 C2618 1.368 . S
H2603 C2611 0.950 . S
H2604 C2609 0.950 . S
H2605 C2610 0.949 . S
H2606 C2612 0.950 . S
H2607 C2613 0.950 . S
H2608 C2614 0.949 . S
C2609 H2604 0.950 . S
C2609 C2611 1.327 . S
C2609 C2615 1.429 . S
C2610 C2602 1.574 . S
C2610 H2605 0.949 . S
C2610 C2616 1.368 . S
C2611 C2595 1.349 . S
C2611 H2603 0.950 . S
C2611 C2609 1.327 . S
C2612 C2600 1.349 . S
C2612 H2606 0.950 . S
C2612 C2613 1.327 . S
C2613 H2607 0.950 . S
C2613 C2612 1.327 . S
C2613 C2617 1.429 . S
C2614 C2597 1.574 . S
C2614 H2608 0.949 . S
C2614 C2618 1.368 . S
C2615 C2596 1.429 . S
C2615 C2609 1.429 . S
C2615 C2616 1.523 . S
C2616 C2597 1.368 . S
C2616 C2610 1.368 . S
C2616 C2615 1.523 . S
C2617 C2601 1.429 . S
C2617 C2613 1.429 . S
C2617 C2618 1.523 . S
C2618 C2602 1.368 . S
C2618 C2614 1.368 . S
C2618 C2617 1.523 . S
H2619 C2594 0.950 . S
H2620 C2596 0.950 . S
H2621 C2597 0.949 . S
H2622 C2599 0.950 . S
H2623 C2601 0.950 . S
C2624 C2625 1.349 . S
C2624 C2626 1.327 . S
C2624 H2649 0.950 . S
C2625 C2624 1.349 . S
C2625 C2641 1.349 . S
C2626 C2624 1.327 . S
C2626 C2645 1.429 . S
C2626 H2650 0.950 . S
C2627 C2644 1.574 . S
C2627 C2646 1.368 . S
C2627 H2651 0.949 . S
H2628 C2632 0.949 . S
C2629 C2630 1.349 . S
C2629 C2631 1.327 . S
C2629 H2652 0.950 . S
C2630 C2629 1.349 . S
C2630 C2642 1.349 . S
C2631 C2629 1.327 . S
C2631 C2647 1.429 . S
C2631 H2653 0.950 . S
C2632 H2628 0.949 . S
C2632 C2640 1.574 . S
C2632 C2648 1.368 . S
H2633 C2641 0.950 . S
H2634 C2639 0.950 . S
H2635 C2640 0.949 . S
H2636 C2642 0.950 . S
H2637 C2643 0.950 . S
H2638 C2644 0.949 . S
C2639 H2634 0.950 . S
C2639 C2641 1.327 . S
C2639 C2645 1.429 . S
C2640 C2632 1.574 . S
C2640 H2635 0.949 . S
C2640 C2646 1.368 . S
C2641 C2625 1.349 . S
C2641 H2633 0.950 . S
C2641 C2639 1.327 . S
C2642 C2630 1.349 . S
C2642 H2636 0.950 . S
C2642 C2643 1.327 . S
C2643 H2637 0.950 . S
C2643 C2642 1.327 . S
C2643 C2647 1.429 . S
C2644 C2627 1.574 . S
C2644 H2638 0.949 . S
C2644 C2648 1.368 . S
C2645 C2626 1.429 . S
C2645 C2639 1.429 . S
C2645 C2646 1.523 . S
C2646 C2627 1.368 . S
C2646 C2640 1.368 . S
C2646 C2645 1.523 . S
C2647 C2631 1.429 . S
C2647 C2643 1.429 . S
C2647 C2648 1.523 . S
C2648 C2632 1.368 . S
C2648 C2644 1.368 . S
C2648 C2647 1.523 . S
H2649 C2624 0.950 . S
H2650 C2626 0.950 . S
H2651 C2627 0.949 . S
H2652 C2629 0.950 . S
H2653 C2631 0.950 . S
C2654 C2655 1.349 . S
C2654 C2656 1.327 . S
C2654 H2679 0.950 . S
C2655 C2654 1.349 . S
C2655 C2671 1.349 . S
C2656 C2654 1.327 . S
C2656 C2675 1.429 . S
C2656 H2680 0.950 . S
C2657 C2674 1.574 . S
C2657 C2676 1.368 . S
C2657 H2681 0.949 . S
H2658 C2662 0.949 . S
C2659 C2660 1.349 1_545 S
C2659 C2661 1.327 1_545 S
C2659 H2682 0.950 . S
C2660 C2659 1.349 1_565 S
C2660 C2672 1.349 . S
C2661 C2659 1.327 1_565 S
C2661 C2677 1.429 . S
C2661 H2683 0.950 . S
C2662 H2658 0.949 . S
C2662 C2670 1.574 . S
C2662 C2678 1.368 . S
H2663 C2671 0.950 . S
H2664 C2669 0.950 . S
H2665 C2670 0.949 . S
H2666 C2672 0.950 . S
H2667 C2673 0.950 . S
H2668 C2674 0.949 . S
C2669 H2664 0.950 . S
C2669 C2671 1.327 . S
C2669 C2675 1.429 . S
C2670 C2662 1.574 . S
C2670 H2665 0.949 . S
C2670 C2676 1.368 . S
C2671 C2655 1.349 . S
C2671 H2663 0.950 . S
C2671 C2669 1.327 . S
C2672 C2660 1.349 . S
C2672 H2666 0.950 . S
C2672 C2673 1.327 . S
C2673 H2667 0.950 . S
C2673 C2672 1.327 . S
C2673 C2677 1.429 . S
C2674 C2657 1.574 . S
C2674 H2668 0.949 . S
C2674 C2678 1.368 . S
C2675 C2656 1.429 . S
C2675 C2669 1.429 . S
C2675 C2676 1.523 . S
C2676 C2657 1.368 . S
C2676 C2670 1.368 . S
C2676 C2675 1.523 . S
C2677 C2661 1.429 . S
C2677 C2673 1.429 . S
C2677 C2678 1.523 . S
C2678 C2662 1.368 . S
C2678 C2674 1.368 . S
C2678 C2677 1.523 . S
H2679 C2654 0.950 . S
H2680 C2656 0.950 . S
H2681 C2657 0.949 . S
H2682 C2659 0.950 . S
H2683 C2661 0.950 . S
C2684 C2685 1.349 . S
C2684 C2686 1.327 . S
C2684 H2709 0.950 . S
C2685 C2684 1.349 . S
C2685 C2701 1.349 . S
C2686 C2684 1.327 . S
C2686 C2705 1.429 . S
C2686 H2710 0.950 . S
C2687 C2704 1.574 . S
C2687 C2706 1.368 . S
C2687 H2711 0.949 . S
H2688 C2692 0.949 . S
C2689 C2690 1.349 . S
C2689 C2691 1.327 . S
C2689 H2712 0.950 . S
C2690 C2689 1.349 . S
C2690 C2702 1.349 . S
C2691 C2689 1.327 . S
C2691 C2707 1.429 . S
C2691 H2713 0.950 . S
C2692 H2688 0.949 . S
C2692 C2700 1.574 . S
C2692 C2708 1.368 . S
H2693 C2701 0.950 . S
H2694 C2699 0.950 . S
H2695 C2700 0.949 . S
H2696 C2702 0.950 . S
H2697 C2703 0.950 . S
H2698 C2704 0.949 . S
C2699 H2694 0.950 . S
C2699 C2701 1.327 . S
C2699 C2705 1.429 . S
C2700 C2692 1.574 . S
C2700 H2695 0.949 . S
C2700 C2706 1.368 . S
C2701 C2685 1.349 . S
C2701 H2693 0.950 . S
C2701 C2699 1.327 . S
C2702 C2690 1.349 . S
C2702 H2696 0.950 . S
C2702 C2703 1.327 . S
C2703 H2697 0.950 . S
C2703 C2702 1.327 . S
C2703 C2707 1.429 . S
C2704 C2687 1.574 . S
C2704 H2698 0.949 . S
C2704 C2708 1.368 . S
C2705 C2686 1.429 . S
C2705 C2699 1.429 . S
C2705 C2706 1.523 . S
C2706 C2687 1.368 . S
C2706 C2700 1.368 . S
C2706 C2705 1.523 . S
C2707 C2691 1.429 . S
C2707 C2703 1.429 . S
C2707 C2708 1.523 . S
C2708 C2692 1.368 . S
C2708 C2704 1.368 . S
C2708 C2707 1.523 . S
H2709 C2684 0.950 . S
H2710 C2686 0.950 . S
H2711 C2687 0.949 . S
H2712 C2689 0.950 . S
H2713 C2691 0.950 . S
C2714 C2715 1.349 . S
C2714 C2716 1.327 . S
C2714 H2739 0.950 1_554 S
C2715 C2714 1.349 . S
C2715 C2731 1.349 . S
C2716 C2714 1.327 . S
C2716 C2735 1.429 . S
C2716 H2740 0.950 1_554 S
C2717 C2734 1.574 . S
C2717 C2736 1.368 . S
C2717 H2741 0.949 . S
H2718 C2722 0.949 . S
C2719 C2720 1.349 . S
C2719 C2721 1.327 . S
C2719 H2742 0.950 . S
C2720 C2719 1.349 . S
C2720 C2732 1.349 . S
C2721 C2719 1.327 . S
C2721 C2737 1.429 . S
C2721 H2743 0.950 . S
C2722 H2718 0.949 . S
C2722 C2730 1.574 . S
C2722 C2738 1.368 . S
H2723 C2731 0.950 . S
H2724 C2729 0.950 . S
H2725 C2730 0.949 1_556 S
H2726 C2732 0.950 . S
H2727 C2733 0.950 . S
H2728 C2734 0.949 . S
C2729 H2724 0.950 . S
C2729 C2731 1.327 . S
C2729 C2735 1.429 . S
C2730 C2722 1.574 . S
C2730 H2725 0.949 1_554 S
C2730 C2736 1.368 . S
C2731 C2715 1.349 . S
C2731 H2723 0.950 . S
C2731 C2729 1.327 . S
C2732 C2720 1.349 . S
C2732 H2726 0.950 . S
C2732 C2733 1.327 . S
C2733 H2727 0.950 . S
C2733 C2732 1.327 . S
C2733 C2737 1.429 . S
C2734 C2717 1.574 . S
C2734 H2728 0.949 . S
C2734 C2738 1.368 . S
C2735 C2716 1.429 . S
C2735 C2729 1.429 . S
C2735 C2736 1.523 . S
C2736 C2717 1.368 . S
C2736 C2730 1.368 . S
C2736 C2735 1.523 . S
C2737 C2721 1.429 . S
C2737 C2733 1.429 . S
C2737 C2738 1.523 . S
C2738 C2722 1.368 . S
C2738 C2734 1.368 . S
C2738 C2737 1.523 . S
H2739 C2714 0.950 1_556 S
H2740 C2716 0.950 1_556 S
H2741 C2717 0.949 . S
H2742 C2719 0.950 . S
H2743 C2721 0.950 . S
C2744 C2745 1.349 . S
C2744 C2746 1.327 . S
C2744 H2769 0.950 . S
C2745 C2744 1.349 . S
C2745 C2761 1.349 . S
C2746 C2744 1.327 . S
C2746 C2765 1.429 . S
C2746 H2770 0.950 . S
C2747 C2764 1.574 . S
C2747 C2766 1.368 . S
C2747 H2771 0.949 . S
H2748 C2752 0.949 . S
C2749 C2750 1.349 . S
C2749 C2751 1.327 . S
C2749 H2772 0.950 . S
C2750 C2749 1.349 . S
C2750 C2762 1.349 . S
C2751 C2749 1.327 . S
C2751 C2767 1.429 . S
C2751 H2773 0.950 . S
C2752 H2748 0.949 . S
C2752 C2760 1.574 . S
C2752 C2768 1.368 . S
H2753 C2761 0.950 . S
H2754 C2759 0.950 . S
H2755 C2760 0.949 . S
H2756 C2762 0.950 . S
H2757 C2763 0.950 . S
H2758 C2764 0.949 . S
C2759 H2754 0.950 . S
C2759 C2761 1.327 . S
C2759 C2765 1.429 . S
C2760 C2752 1.574 . S
C2760 H2755 0.949 . S
C2760 C2766 1.368 . S
C2761 C2745 1.349 . S
C2761 H2753 0.950 . S
C2761 C2759 1.327 . S
C2762 C2750 1.349 . S
C2762 H2756 0.950 . S
C2762 C2763 1.327 . S
C2763 H2757 0.950 . S
C2763 C2762 1.327 . S
C2763 C2767 1.429 . S
C2764 C2747 1.574 . S
C2764 H2758 0.949 . S
C2764 C2768 1.368 . S
C2765 C2746 1.429 . S
C2765 C2759 1.429 . S
C2765 C2766 1.523 . S
C2766 C2747 1.368 . S
C2766 C2760 1.368 . S
C2766 C2765 1.523 . S
C2767 C2751 1.429 . S
C2767 C2763 1.429 . S
C2767 C2768 1.523 . S
C2768 C2752 1.368 . S
C2768 C2764 1.368 . S
C2768 C2767 1.523 . S
H2769 C2744 0.950 . S
H2770 C2746 0.950 . S
H2771 C2747 0.949 . S
H2772 C2749 0.950 . S
H2773 C2751 0.950 . S
C2774 C2775 1.349 . S
C2774 C2776 1.327 . S
C2774 H2799 0.950 1_554 S
C2775 C2774 1.349 . S
C2775 C2791 1.349 . S
C2776 C2774 1.327 . S
C2776 C2795 1.429 . S
C2776 H2800 0.950 1_554 S
C2777 C2794 1.574 . S
C2777 C2796 1.368 . S
C2777 H2801 0.949 . S
H2778 C2782 0.949 1_556 S
C2779 C2780 1.349 . S
C2779 C2781 1.327 . S
C2779 H2802 0.950 . S
C2780 C2779 1.349 . S
C2780 C2792 1.349 . S
C2781 C2779 1.327 . S
C2781 C2797 1.429 . S
C2781 H2803 0.950 . S
C2782 H2778 0.949 1_554 S
C2782 C2790 1.574 . S
C2782 C2798 1.368 . S
H2783 C2791 0.950 . S
H2784 C2789 0.950 . S
H2785 C2790 0.949 1_556 S
H2786 C2792 0.950 1_556 S
H2787 C2793 0.950 1_556 S
H2788 C2794 0.949 . S
C2789 H2784 0.950 . S
C2789 C2791 1.327 . S
C2789 C2795 1.429 . S
C2790 C2782 1.574 . S
C2790 H2785 0.949 1_554 S
C2790 C2796 1.368 . S
C2791 C2775 1.349 . S
C2791 H2783 0.950 . S
C2791 C2789 1.327 . S
C2792 C2780 1.349 . S
C2792 H2786 0.950 1_554 S
C2792 C2793 1.327 . S
C2793 H2787 0.950 1_554 S
C2793 C2792 1.327 . S
C2793 C2797 1.429 . S
C2794 C2777 1.574 . S
C2794 H2788 0.949 . S
C2794 C2798 1.368 . S
C2795 C2776 1.429 . S
C2795 C2789 1.429 . S
C2795 C2796 1.523 . S
C2796 C2777 1.368 . S
C2796 C2790 1.368 . S
C2796 C2795 1.523 . S
C2797 C2781 1.429 . S
C2797 C2793 1.429 . S
C2797 C2798 1.523 . S
C2798 C2782 1.368 . S
C2798 C2794 1.368 . S
C2798 C2797 1.523 . S
H2799 C2774 0.950 1_556 S
H2800 C2776 0.950 1_556 S
H2801 C2777 0.949 . S
H2802 C2779 0.950 . S
H2803 C2781 0.950 . S
C2804 C2805 1.349 . S
C2804 C2806 1.327 . S
C2804 H2829 0.950 . S
C2805 C2804 1.349 . S
C2805 C2821 1.349 . S
C2806 C2804 1.327 . S
C2806 C2825 1.429 . S
C2806 H2830 0.950 . S
C2807 C2824 1.574 . S
C2807 C2826 1.368 . S
C2807 H2831 0.949 . S
H2808 C2812 0.949 . S
C2809 C2810 1.349 . S
C2809 C2811 1.327 . S
C2809 H2832 0.950 . S
C2810 C2809 1.349 . S
C2810 C2822 1.349 . S
C2811 C2809 1.327 . S
C2811 C2827 1.429 . S
C2811 H2833 0.950 . S
C2812 H2808 0.949 . S
C2812 C2820 1.574 . S
C2812 C2828 1.368 . S
H2813 C2821 0.950 . S
H2814 C2819 0.950 . S
H2815 C2820 0.949 . S
H2816 C2822 0.950 . S
H2817 C2823 0.950 . S
H2818 C2824 0.949 . S
C2819 H2814 0.950 . S
C2819 C2821 1.327 . S
C2819 C2825 1.429 . S
C2820 C2812 1.574 . S
C2820 H2815 0.949 . S
C2820 C2826 1.368 . S
C2821 C2805 1.349 . S
C2821 H2813 0.950 . S
C2821 C2819 1.327 . S
C2822 C2810 1.349 . S
C2822 H2816 0.950 . S
C2822 C2823 1.327 . S
C2823 H2817 0.950 . S
C2823 C2822 1.327 . S
C2823 C2827 1.429 . S
C2824 C2807 1.574 . S
C2824 H2818 0.949 . S
C2824 C2828 1.368 . S
C2825 C2806 1.429 . S
C2825 C2819 1.429 . S
C2825 C2826 1.523 . S
C2826 C2807 1.368 . S
C2826 C2820 1.368 . S
C2826 C2825 1.523 . S
C2827 C2811 1.429 . S
C2827 C2823 1.429 . S
C2827 C2828 1.523 . S
C2828 C2812 1.368 . S
C2828 C2824 1.368 . S
C2828 C2827 1.523 . S
H2829 C2804 0.950 . S
H2830 C2806 0.950 . S
H2831 C2807 0.949 . S
H2832 C2809 0.950 . S
H2833 C2811 0.950 . S
C2834 C2835 1.349 . S
C2834 C2836 1.327 . S
C2834 H2859 0.950 . S
C2835 C2834 1.349 . S
C2835 C2851 1.349 . S
C2836 C2834 1.327 . S
C2836 C2855 1.429 . S
C2836 H2860 0.950 . S
C2837 C2854 1.574 . S
C2837 C2856 1.368 . S
C2837 H2861 0.949 . S
H2838 C2842 0.949 . S
C2839 C2840 1.349 . S
C2839 C2841 1.327 . S
C2839 H2862 0.950 . S
C2840 C2839 1.349 . S
C2840 C2852 1.349 . S
C2841 C2839 1.327 . S
C2841 C2857 1.429 . S
C2841 H2863 0.950 . S
C2842 H2838 0.949 . S
C2842 C2850 1.574 . S
C2842 C2858 1.368 . S
H2843 C2851 0.950 . S
H2844 C2849 0.950 . S
H2845 C2850 0.949 . S
H2846 C2852 0.950 . S
H2847 C2853 0.950 . S
H2848 C2854 0.949 . S
C2849 H2844 0.950 . S
C2849 C2851 1.327 . S
C2849 C2855 1.429 . S
C2850 C2842 1.574 . S
C2850 H2845 0.949 . S
C2850 C2856 1.368 . S
C2851 C2835 1.349 . S
C2851 H2843 0.950 . S
C2851 C2849 1.327 . S
C2852 C2840 1.349 . S
C2852 H2846 0.950 . S
C2852 C2853 1.327 . S
C2853 H2847 0.950 . S
C2853 C2852 1.327 . S
C2853 C2857 1.429 . S
C2854 C2837 1.574 . S
C2854 H2848 0.949 . S
C2854 C2858 1.368 . S
C2855 C2836 1.429 . S
C2855 C2849 1.429 . S
C2855 C2856 1.523 . S
C2856 C2837 1.368 . S
C2856 C2850 1.368 . S
C2856 C2855 1.523 . S
C2857 C2841 1.429 . S
C2857 C2853 1.429 . S
C2857 C2858 1.523 . S
C2858 C2842 1.368 . S
C2858 C2854 1.368 . S
C2858 C2857 1.523 . S
H2859 C2834 0.950 . S
H2860 C2836 0.950 . S
H2861 C2837 0.949 . S
H2862 C2839 0.950 . S
H2863 C2841 0.950 . S
C2864 C2865 1.349 . S
C2864 C2866 1.327 . S
C2864 H2889 0.950 . S
C2865 C2864 1.349 . S
C2865 C2881 1.349 . S
C2866 C2864 1.327 . S
C2866 C2885 1.429 . S
C2866 H2890 0.950 . S
C2867 C2884 1.574 . S
C2867 C2886 1.368 . S
C2867 H2891 0.949 . S
H2868 C2872 0.949 . S
C2869 C2870 1.349 . S
C2869 C2871 1.327 . S
C2869 H2892 0.950 . S
C2870 C2869 1.349 . S
C2870 C2882 1.349 . S
C2871 C2869 1.327 . S
C2871 C2887 1.429 . S
C2871 H2893 0.950 . S
C2872 H2868 0.949 . S
C2872 C2880 1.574 . S
C2872 C2888 1.368 . S
H2873 C2881 0.950 . S
H2874 C2879 0.950 . S
H2875 C2880 0.949 . S
H2876 C2882 0.950 . S
H2877 C2883 0.950 . S
H2878 C2884 0.949 . S
C2879 H2874 0.950 . S
C2879 C2881 1.327 . S
C2879 C2885 1.429 . S
C2880 C2872 1.574 . S
C2880 H2875 0.949 . S
C2880 C2886 1.368 . S
C2881 C2865 1.349 . S
C2881 H2873 0.950 . S
C2881 C2879 1.327 . S
C2882 C2870 1.349 . S
C2882 H2876 0.950 . S
C2882 C2883 1.327 . S
C2883 H2877 0.950 . S
C2883 C2882 1.327 . S
C2883 C2887 1.429 . S
C2884 C2867 1.574 . S
C2884 H2878 0.949 . S
C2884 C2888 1.368 . S
C2885 C2866 1.429 . S
C2885 C2879 1.429 . S
C2885 C2886 1.523 . S
C2886 C2867 1.368 . S
C2886 C2880 1.368 . S
C2886 C2885 1.523 . S
C2887 C2871 1.429 . S
C2887 C2883 1.429 . S
C2887 C2888 1.523 . S
C2888 C2872 1.368 . S
C2888 C2884 1.368 . S
C2888 C2887 1.523 . S
H2889 C2864 0.950 . S
H2890 C2866 0.950 . S
H2891 C2867 0.949 . S
H2892 C2869 0.950 . S
H2893 C2871 0.950 . S
C2894 C2895 1.349 . S
C2894 C2896 1.327 . S
C2894 H2919 0.950 . S
C2895 C2894 1.349 . S
C2895 C2911 1.349 . S
C2896 C2894 1.327 . S
C2896 C2915 1.429 . S
C2896 H2920 0.950 . S
C2897 C2914 1.574 . S
C2897 C2916 1.368 . S
C2897 H2921 0.949 . S
H2898 C2902 0.949 . S
C2899 C2900 1.349 . S
C2899 C2901 1.327 . S
C2899 H2922 0.950 . S
C2900 C2899 1.349 . S
C2900 C2912 1.349 . S
C2901 C2899 1.327 . S
C2901 C2917 1.429 . S
C2901 H2923 0.950 . S
C2902 H2898 0.949 . S
C2902 C2910 1.574 . S
C2902 C2918 1.368 . S
H2903 C2911 0.950 . S
H2904 C2909 0.950 . S
H2905 C2910 0.949 . S
H2906 C2912 0.950 . S
H2907 C2913 0.950 . S
H2908 C2914 0.949 . S
C2909 H2904 0.950 . S
C2909 C2911 1.327 . S
C2909 C2915 1.429 . S
C2910 C2902 1.574 . S
C2910 H2905 0.949 . S
C2910 C2916 1.368 . S
C2911 C2895 1.349 . S
C2911 H2903 0.950 . S
C2911 C2909 1.327 . S
C2912 C2900 1.349 . S
C2912 H2906 0.950 . S
C2912 C2913 1.327 . S
C2913 H2907 0.950 . S
C2913 C2912 1.327 . S
C2913 C2917 1.429 . S
C2914 C2897 1.574 . S
C2914 H2908 0.949 . S
C2914 C2918 1.368 . S
C2915 C2896 1.429 . S
C2915 C2909 1.429 . S
C2915 C2916 1.523 . S
C2916 C2897 1.368 . S
C2916 C2910 1.368 . S
C2916 C2915 1.523 . S
C2917 C2901 1.429 . S
C2917 C2913 1.429 . S
C2917 C2918 1.523 . S
C2918 C2902 1.368 . S
C2918 C2914 1.368 . S
C2918 C2917 1.523 . S
H2919 C2894 0.950 . S
H2920 C2896 0.950 . S
H2921 C2897 0.949 . S
H2922 C2899 0.950 . S
H2923 C2901 0.950 . S
C2924 C2925 1.347 . S
C2924 C2926 1.327 1_455 S
C2924 H2949 0.952 1_455 S
C2925 C2924 1.347 . S
C2925 C2941 1.349 . S
C2926 C2924 1.327 1_655 S
C2926 C2945 1.429 1_655 S
C2926 H2950 0.950 . S
C2927 C2944 1.574 . S
C2927 C2946 1.368 . S
C2927 H2951 0.949 . S
H2928 C2932 0.949 . S
C2929 C2930 1.339 1_456 S
C2929 C2931 1.327 . S
C2929 H2952 0.950 . S
C2930 C2929 1.339 1_654 S
C2930 C2942 1.359 . S
C2931 C2929 1.327 . S
C2931 C2947 1.429 . S
C2931 H2953 0.950 . S
C2932 H2928 0.949 . S
C2932 C2940 1.574 . S
C2932 C2948 1.368 1_655 S
H2933 C2941 0.950 . S
H2934 C2939 0.950 . S
H2935 C2940 0.949 . S
H2936 C2942 0.950 . S
H2937 C2943 0.950 . S
H2938 C2944 0.949 . S
C2939 H2934 0.950 . S
C2939 C2941 1.327 . S
C2939 C2945 1.429 . S
C2940 C2932 1.574 . S
C2940 H2935 0.949 . S
C2940 C2946 1.368 1_655 S
C2941 C2925 1.349 . S
C2941 H2933 0.950 . S
C2941 C2939 1.327 . S
C2942 C2930 1.359 . S
C2942 H2936 0.950 . S
C2942 C2943 1.327 . S
C2943 H2937 0.950 . S
C2943 C2942 1.327 . S
C2943 C2947 1.429 1_654 S
C2944 C2927 1.574 . S
C2944 H2938 0.949 . S
C2944 C2948 1.368 . S
C2945 C2926 1.429 1_455 S
C2945 C2939 1.429 . S
C2945 C2946 1.523 . S
C2946 C2927 1.368 . S
C2946 C2940 1.368 1_455 S
C2946 C2945 1.523 . S
C2947 C2931 1.429 . S
C2947 C2943 1.429 1_456 S
C2947 C2948 1.523 . S
C2948 C2932 1.368 1_455 S
C2948 C2944 1.368 . S
C2948 C2947 1.523 . S
H2949 C2924 0.952 1_655 S
H2950 C2926 0.950 . S
H2951 C2927 0.949 . S
H2952 C2929 0.950 . S
H2953 C2931 0.950 . S
C2954 C2955 1.349 . S
C2954 C2956 1.327 . S
C2954 H2979 0.950 . S
C2955 C2954 1.349 . S
C2955 C2971 1.349 . S
C2956 C2954 1.327 . S
C2956 C2975 1.429 . S
C2956 H2980 0.950 . S
C2957 C2974 1.574 . S
C2957 C2976 1.368 . S
C2957 H2981 0.949 . S
H2958 C2962 0.949 . S
C2959 C2960 1.349 . S
C2959 C2961 1.327 . S
C2959 H2982 0.950 . S
C2960 C2959 1.349 . S
C2960 C2972 1.349 . S
C2961 C2959 1.327 . S
C2961 C2977 1.429 . S
C2961 H2983 0.950 . S
C2962 H2958 0.949 . S
C2962 C2970 1.574 . S
C2962 C2978 1.368 . S
H2963 C2971 0.950 . S
H2964 C2969 0.950 . S
H2965 C2970 0.949 . S
H2966 C2972 0.950 . S
H2967 C2973 0.950 . S
H2968 C2974 0.949 . S
C2969 H2964 0.950 . S
C2969 C2971 1.327 . S
C2969 C2975 1.429 . S
C2970 C2962 1.574 . S
C2970 H2965 0.949 . S
C2970 C2976 1.368 . S
C2971 C2955 1.349 . S
C2971 H2963 0.950 . S
C2971 C2969 1.327 . S
C2972 C2960 1.349 . S
C2972 H2966 0.950 . S
C2972 C2973 1.327 . S
C2973 H2967 0.950 . S
C2973 C2972 1.327 . S
C2973 C2977 1.429 . S
C2974 C2957 1.574 . S
C2974 H2968 0.949 . S
C2974 C2978 1.368 . S
C2975 C2956 1.429 . S
C2975 C2969 1.429 . S
C2975 C2976 1.523 . S
C2976 C2957 1.368 . S
C2976 C2970 1.368 . S
C2976 C2975 1.523 . S
C2977 C2961 1.429 . S
C2977 C2973 1.429 . S
C2977 C2978 1.523 . S
C2978 C2962 1.368 . S
C2978 C2974 1.368 . S
C2978 C2977 1.523 . S
H2979 C2954 0.950 . S
H2980 C2956 0.950 . S
H2981 C2957 0.949 . S
H2982 C2959 0.950 . S
H2983 C2961 0.950 . S
C2984 C2985 1.349 . S
C2984 C2986 1.327 . S
C2984 H3009 0.950 . S
C2985 C2984 1.349 . S
C2985 C3001 1.349 . S
C2986 C2984 1.327 . S
C2986 C3005 1.429 . S
C2986 H3010 0.950 . S
C2987 C3004 1.574 . S
C2987 C3006 1.368 . S
C2987 H3011 0.949 . S
H2988 C2992 0.949 . S
C2989 C2990 1.349 . S
C2989 C2991 1.327 . S
C2989 H3012 0.950 . S
C2990 C2989 1.349 . S
C2990 C3002 1.349 . S
C2991 C2989 1.327 . S
C2991 C3007 1.429 . S
C2991 H3013 0.950 . S
C2992 H2988 0.949 . S
C2992 C3000 1.574 . S
C2992 C3008 1.368 . S
H2993 C3001 0.950 . S
H2994 C2999 0.950 . S
H2995 C3000 0.949 . S
H2996 C3002 0.950 . S
H2997 C3003 0.950 . S
H2998 C3004 0.949 . S
C2999 H2994 0.950 . S
C2999 C3001 1.327 . S
C2999 C3005 1.429 . S
C3000 C2992 1.574 . S
C3000 H2995 0.949 . S
C3000 C3006 1.368 . S
C3001 C2985 1.349 . S
C3001 H2993 0.950 . S
C3001 C2999 1.327 . S
C3002 C2990 1.349 . S
C3002 H2996 0.950 . S
C3002 C3003 1.327 . S
C3003 H2997 0.950 . S
C3003 C3002 1.327 . S
C3003 C3007 1.429 . S
C3004 C2987 1.574 . S
C3004 H2998 0.949 . S
C3004 C3008 1.368 . S
C3005 C2986 1.429 . S
C3005 C2999 1.429 . S
C3005 C3006 1.523 . S
C3006 C2987 1.368 . S
C3006 C3000 1.368 . S
C3006 C3005 1.523 . S
C3007 C2991 1.429 . S
C3007 C3003 1.429 . S
C3007 C3008 1.523 . S
C3008 C2992 1.368 . S
C3008 C3004 1.368 . S
C3008 C3007 1.523 . S
H3009 C2984 0.950 . S
H3010 C2986 0.950 . S
H3011 C2987 0.949 . S
H3012 C2989 0.950 . S
H3013 C2991 0.950 . S
C3014 C3015 1.349 . S
C3014 C3016 1.327 . S
C3014 H3039 0.950 . S
C3015 C3014 1.349 . S
C3015 C3031 1.349 . S
C3016 C3014 1.327 . S
C3016 C3035 1.429 . S
C3016 H3040 0.950 . S
C3017 C3034 1.574 . S
C3017 C3036 1.368 . S
C3017 H3041 0.949 . S
H3018 C3022 0.949 . S
C3019 C3020 1.349 . S
C3019 C3021 1.327 . S
C3019 H3042 0.950 . S
C3020 C3019 1.349 . S
C3020 C3032 1.349 . S
C3021 C3019 1.327 . S
C3021 C3037 1.429 . S
C3021 H3043 0.950 . S
C3022 H3018 0.949 . S
C3022 C3030 1.574 . S
C3022 C3038 1.368 . S
H3023 C3031 0.950 . S
H3024 C3029 0.950 . S
H3025 C3030 0.949 . S
H3026 C3032 0.950 . S
H3027 C3033 0.950 . S
H3028 C3034 0.949 . S
C3029 H3024 0.950 . S
C3029 C3031 1.327 . S
C3029 C3035 1.429 . S
C3030 C3022 1.574 . S
C3030 H3025 0.949 . S
C3030 C3036 1.368 . S
C3031 C3015 1.349 . S
C3031 H3023 0.950 . S
C3031 C3029 1.327 . S
C3032 C3020 1.349 . S
C3032 H3026 0.950 . S
C3032 C3033 1.327 . S
C3033 H3027 0.950 . S
C3033 C3032 1.327 . S
C3033 C3037 1.429 . S
C3034 C3017 1.574 . S
C3034 H3028 0.949 . S
C3034 C3038 1.368 . S
C3035 C3016 1.429 . S
C3035 C3029 1.429 . S
C3035 C3036 1.523 . S
C3036 C3017 1.368 . S
C3036 C3030 1.368 . S
C3036 C3035 1.523 . S
C3037 C3021 1.429 . S
C3037 C3033 1.429 . S
C3037 C3038 1.523 . S
C3038 C3022 1.368 . S
C3038 C3034 1.368 . S
C3038 C3037 1.523 . S
H3039 C3014 0.950 . S
H3040 C3016 0.950 . S
H3041 C3017 0.949 . S
H3042 C3019 0.950 . S
H3043 C3021 0.950 . S
C3044 C3045 1.349 . S
C3044 C3046 1.327 . S
C3044 H3069 0.950 . S
C3045 C3044 1.349 . S
C3045 C3061 1.349 1_455 S
C3046 C3044 1.327 . S
C3046 C3065 1.429 . S
C3046 H3070 0.950 . S
C3047 C3064 1.574 . S
C3047 C3066 1.368 1_655 S
C3047 H3071 0.949 . S
H3048 C3052 0.949 . S
C3049 C3050 1.349 . S
C3049 C3051 1.327 . S
C3049 H3072 0.950 . S
C3050 C3049 1.349 . S
C3050 C3062 1.349 1_655 S
C3051 C3049 1.327 . S
C3051 C3067 1.452 . S
C3051 H3073 0.950 . S
C3052 H3048 0.949 . S
C3052 C3060 1.574 . S
C3052 C3068 1.368 . S
H3053 C3061 0.950 . S
H3054 C3059 0.950 . S
H3055 C3060 0.949 . S
H3056 C3062 0.950 . S
H3057 C3063 0.950 . S
H3058 C3064 0.949 . S
C3059 H3054 0.950 . S
C3059 C3061 1.327 . S
C3059 C3065 1.429 1_655 S
C3060 C3052 1.574 . S
C3060 H3055 0.949 . S
C3060 C3066 1.368 . S
C3061 C3045 1.349 1_655 S
C3061 H3053 0.950 . S
C3061 C3059 1.327 . S
C3062 C3050 1.349 1_455 S
C3062 H3056 0.950 . S
C3062 C3063 1.327 . S
C3063 H3057 0.950 . S
C3063 C3062 1.327 . S
C3063 C3067 1.410 1_455 S
C3064 C3047 1.574 . S
C3064 H3058 0.949 . S
C3064 C3068 1.368 1_655 S
C3065 C3046 1.429 . S
C3065 C3059 1.429 1_455 S
C3065 C3066 1.523 . S
C3066 C3047 1.368 1_455 S
C3066 C3060 1.368 . S
C3066 C3065 1.523 . S
C3067 C3051 1.452 . S
C3067 C3063 1.410 1_655 S
C3067 C3068 1.519 1_655 S
C3068 C3052 1.368 . S
C3068 C3064 1.368 1_455 S
C3068 C3067 1.519 1_455 S
H3069 C3044 0.950 . S
H3070 C3046 0.950 . S
H3071 C3047 0.949 . S
H3072 C3049 0.950 . S
H3073 C3051 0.950 . S
C3074 C3075 1.349 . S
C3074 C3076 1.327 . S
C3074 H3099 0.950 . S
C3075 C3074 1.349 . S
C3075 C3091 1.349 . S
C3076 C3074 1.327 . S
C3076 C3095 1.429 . S
C3076 H3100 0.950 . S
C3077 C3094 1.574 . S
C3077 C3096 1.368 . S
C3077 H3101 0.949 . S
H3078 C3082 0.949 . S
C3079 C3080 1.349 . S
C3079 C3081 1.327 . S
C3079 H3102 0.950 . S
C3080 C3079 1.349 . S
C3080 C3092 1.349 . S
C3081 C3079 1.327 . S
C3081 C3097 1.429 . S
C3081 H3103 0.950 . S
C3082 H3078 0.949 . S
C3082 C3090 1.574 . S
C3082 C3098 1.368 . S
H3083 C3091 0.950 . S
H3084 C3089 0.950 . S
H3085 C3090 0.949 . S
H3086 C3092 0.950 . S
H3087 C3093 0.950 . S
H3088 C3094 0.949 . S
C3089 H3084 0.950 . S
C3089 C3091 1.327 . S
C3089 C3095 1.429 . S
C3090 C3082 1.574 . S
C3090 H3085 0.949 . S
C3090 C3096 1.368 . S
C3091 C3075 1.349 . S
C3091 H3083 0.950 . S
C3091 C3089 1.327 . S
C3092 C3080 1.349 . S
C3092 H3086 0.950 . S
C3092 C3093 1.327 . S
C3093 H3087 0.950 . S
C3093 C3092 1.327 . S
C3093 C3097 1.429 . S
C3094 C3077 1.574 . S
C3094 H3088 0.949 . S
C3094 C3098 1.368 . S
C3095 C3076 1.429 . S
C3095 C3089 1.429 . S
C3095 C3096 1.523 . S
C3096 C3077 1.368 . S
C3096 C3090 1.368 . S
C3096 C3095 1.523 . S
C3097 C3081 1.429 . S
C3097 C3093 1.429 . S
C3097 C3098 1.523 . S
C3098 C3082 1.368 . S
C3098 C3094 1.368 . S
C3098 C3097 1.523 . S
H3099 C3074 0.950 . S
H3100 C3076 0.950 . S
H3101 C3077 0.949 . S
H3102 C3079 0.950 . S
H3103 C3081 0.950 . S
C3104 C3105 1.349 . S
C3104 C3106 1.327 . S
C3104 H3129 0.950 . S
C3105 C3104 1.349 . S
C3105 C3121 1.349 . S
C3106 C3104 1.327 . S
C3106 C3125 1.429 . S
C3106 H3130 0.950 . S
C3107 C3124 1.574 . S
C3107 C3126 1.368 . S
C3107 H3131 0.949 . S
H3108 C3112 0.949 . S
C3109 C3110 1.349 . S
C3109 C3111 1.327 . S
C3109 H3132 0.950 . S
C3110 C3109 1.349 . S
C3110 C3122 1.349 . S
C3111 C3109 1.327 . S
C3111 C3127 1.429 . S
C3111 H3133 0.950 . S
C3112 H3108 0.949 . S
C3112 C3120 1.574 . S
C3112 C3128 1.368 . S
H3113 C3121 0.950 . S
H3114 C3119 0.950 . S
H3115 C3120 0.949 . S
H3116 C3122 0.950 . S
H3117 C3123 0.950 . S
H3118 C3124 0.949 . S
C3119 H3114 0.950 . S
C3119 C3121 1.327 . S
C3119 C3125 1.429 . S
C3120 C3112 1.574 . S
C3120 H3115 0.949 . S
C3120 C3126 1.368 . S
C3121 C3105 1.349 . S
C3121 H3113 0.950 . S
C3121 C3119 1.327 . S
C3122 C3110 1.349 . S
C3122 H3116 0.950 . S
C3122 C3123 1.327 . S
C3123 H3117 0.950 . S
C3123 C3122 1.327 . S
C3123 C3127 1.429 . S
C3124 C3107 1.574 . S
C3124 H3118 0.949 . S
C3124 C3128 1.368 . S
C3125 C3106 1.429 . S
C3125 C3119 1.429 . S
C3125 C3126 1.523 . S
C3126 C3107 1.368 . S
C3126 C3120 1.368 . S
C3126 C3125 1.523 . S
C3127 C3111 1.429 . S
C3127 C3123 1.429 . S
C3127 C3128 1.523 . S
C3128 C3112 1.368 . S
C3128 C3124 1.368 . S
C3128 C3127 1.523 . S
H3129 C3104 0.950 . S
H3130 C3106 0.950 . S
H3131 C3107 0.949 . S
H3132 C3109 0.950 . S
H3133 C3111 0.950 . S
C3134 C3135 1.349 . S
C3134 C3136 1.327 . S
C3134 H3159 0.950 . S
C3135 C3134 1.349 . S
C3135 C3151 1.349 . S
C3136 C3134 1.327 . S
C3136 C3155 1.429 . S
C3136 H3160 0.950 . S
C3137 C3154 1.574 . S
C3137 C3156 1.368 . S
C3137 H3161 0.949 . S
H3138 C3142 0.949 . S
C3139 C3140 1.349 . S
C3139 C3141 1.327 . S
C3139 H3162 0.950 . S
C3140 C3139 1.349 . S
C3140 C3152 1.349 . S
C3141 C3139 1.327 . S
C3141 C3157 1.429 . S
C3141 H3163 0.950 . S
C3142 H3138 0.949 . S
C3142 C3150 1.574 . S
C3142 C3158 1.368 . S
H3143 C3151 0.950 . S
H3144 C3149 0.950 . S
H3145 C3150 0.949 . S
H3146 C3152 0.950 . S
H3147 C3153 0.950 . S
H3148 C3154 0.949 . S
C3149 H3144 0.950 . S
C3149 C3151 1.327 . S
C3149 C3155 1.429 . S
C3150 C3142 1.574 . S
C3150 H3145 0.949 . S
C3150 C3156 1.368 . S
C3151 C3135 1.349 . S
C3151 H3143 0.950 . S
C3151 C3149 1.327 . S
C3152 C3140 1.349 . S
C3152 H3146 0.950 . S
C3152 C3153 1.327 . S
C3153 H3147 0.950 . S
C3153 C3152 1.327 . S
C3153 C3157 1.429 . S
C3154 C3137 1.574 . S
C3154 H3148 0.949 . S
C3154 C3158 1.368 . S
C3155 C3136 1.429 . S
C3155 C3149 1.429 . S
C3155 C3156 1.523 . S
C3156 C3137 1.368 . S
C3156 C3150 1.368 . S
C3156 C3155 1.523 . S
C3157 C3141 1.429 . S
C3157 C3153 1.429 . S
C3157 C3158 1.523 . S
C3158 C3142 1.368 . S
C3158 C3154 1.368 . S
C3158 C3157 1.523 . S
H3159 C3134 0.950 . S
H3160 C3136 0.950 . S
H3161 C3137 0.949 . S
H3162 C3139 0.950 . S
H3163 C3141 0.950 . S
C3164 C3165 1.349 . S
C3164 C3166 1.327 . S
C3164 H3189 0.950 . S
C3165 C3164 1.349 . S
C3165 C3181 1.349 . S
C3166 C3164 1.327 . S
C3166 C3185 1.429 . S
C3166 H3190 0.950 . S
C3167 C3184 1.574 . S
C3167 C3186 1.368 . S
C3167 H3191 0.949 . S
H3168 C3172 0.949 . S
C3169 C3170 1.349 . S
C3169 C3171 1.327 . S
C3169 H3192 0.950 . S
C3170 C3169 1.349 . S
C3170 C3182 1.349 . S
C3171 C3169 1.327 . S
C3171 C3187 1.429 . S
C3171 H3193 0.950 . S
C3172 H3168 0.949 . S
C3172 C3180 1.574 . S
C3172 C3188 1.368 . S
H3173 C3181 0.950 . S
H3174 C3179 0.950 . S
H3175 C3180 0.949 . S
H3176 C3182 0.950 . S
H3177 C3183 0.950 . S
H3178 C3184 0.949 . S
C3179 H3174 0.950 . S
C3179 C3181 1.327 . S
C3179 C3185 1.429 . S
C3180 C3172 1.574 . S
C3180 H3175 0.949 . S
C3180 C3186 1.368 . S
C3181 C3165 1.349 . S
C3181 H3173 0.950 . S
C3181 C3179 1.327 . S
C3182 C3170 1.349 . S
C3182 H3176 0.950 . S
C3182 C3183 1.327 . S
C3183 H3177 0.950 . S
C3183 C3182 1.327 . S
C3183 C3187 1.429 . S
C3184 C3167 1.574 . S
C3184 H3178 0.949 . S
C3184 C3188 1.368 . S
C3185 C3166 1.429 . S
C3185 C3179 1.429 . S
C3185 C3186 1.523 . S
C3186 C3167 1.368 . S
C3186 C3180 1.368 . S
C3186 C3185 1.523 . S
C3187 C3171 1.429 . S
C3187 C3183 1.429 . S
C3187 C3188 1.523 . S
C3188 C3172 1.368 . S
C3188 C3184 1.368 . S
C3188 C3187 1.523 . S
H3189 C3164 0.950 . S
H3190 C3166 0.950 . S
H3191 C3167 0.949 . S
H3192 C3169 0.950 . S
H3193 C3171 0.950 . S
C3194 C3195 1.349 . S
C3194 C3196 1.327 . S
C3194 H3219 0.950 . S
C3195 C3194 1.349 . S
C3195 C3211 1.349 . S
C3196 C3194 1.327 . S
C3196 C3215 1.429 . S
C3196 H3220 0.950 . S
C3197 C3214 1.574 . S
C3197 C3216 1.368 . S
C3197 H3221 0.949 . S
H3198 C3202 0.949 . S
C3199 C3200 1.349 . S
C3199 C3201 1.327 . S
C3199 H3222 0.950 . S
C3200 C3199 1.349 . S
C3200 C3212 1.349 . S
C3201 C3199 1.327 . S
C3201 C3217 1.429 . S
C3201 H3223 0.950 . S
C3202 H3198 0.949 . S
C3202 C3210 1.574 . S
C3202 C3218 1.368 . S
H3203 C3211 0.950 . S
H3204 C3209 0.950 . S
H3205 C3210 0.949 . S
H3206 C3212 0.950 . S
H3207 C3213 0.950 . S
H3208 C3214 0.949 . S
C3209 H3204 0.950 . S
C3209 C3211 1.327 . S
C3209 C3215 1.429 . S
C3210 C3202 1.574 . S
C3210 H3205 0.949 . S
C3210 C3216 1.368 . S
C3211 C3195 1.349 . S
C3211 H3203 0.950 . S
C3211 C3209 1.327 . S
C3212 C3200 1.349 . S
C3212 H3206 0.950 . S
C3212 C3213 1.327 . S
C3213 H3207 0.950 . S
C3213 C3212 1.327 . S
C3213 C3217 1.429 . S
C3214 C3197 1.574 . S
C3214 H3208 0.949 . S
C3214 C3218 1.368 . S
C3215 C3196 1.429 . S
C3215 C3209 1.429 . S
C3215 C3216 1.523 . S
C3216 C3197 1.368 . S
C3216 C3210 1.368 . S
C3216 C3215 1.523 . S
C3217 C3201 1.429 . S
C3217 C3213 1.429 . S
C3217 C3218 1.523 . S
C3218 C3202 1.368 . S
C3218 C3214 1.368 . S
C3218 C3217 1.523 . S
H3219 C3194 0.950 . S
H3220 C3196 0.950 . S
H3221 C3197 0.949 . S
H3222 C3199 0.950 . S
H3223 C3201 0.950 . S
C3224 C3225 1.349 . S
C3224 C3226 1.327 . S
C3224 H3249 0.950 . S
C3225 C3224 1.349 . S
C3225 C3241 1.349 . S
C3226 C3224 1.327 . S
C3226 C3245 1.429 . S
C3226 H3250 0.950 . S
C3227 C3244 1.574 . S
C3227 C3246 1.368 . S
C3227 H3251 0.949 . S
H3228 C3232 0.949 . S
C3229 C3230 1.349 . S
C3229 C3231 1.327 . S
C3229 H3252 0.950 . S
C3230 C3229 1.349 . S
C3230 C3242 1.349 . S
C3231 C3229 1.327 . S
C3231 C3247 1.429 . S
C3231 H3253 0.950 . S
C3232 H3228 0.949 . S
C3232 C3240 1.574 . S
C3232 C3248 1.368 . S
H3233 C3241 0.950 . S
H3234 C3239 0.950 . S
H3235 C3240 0.949 . S
H3236 C3242 0.950 . S
H3237 C3243 0.950 . S
H3238 C3244 0.949 . S
C3239 H3234 0.950 . S
C3239 C3241 1.327 . S
C3239 C3245 1.429 . S
C3240 C3232 1.574 . S
C3240 H3235 0.949 . S
C3240 C3246 1.368 . S
C3241 C3225 1.349 . S
C3241 H3233 0.950 . S
C3241 C3239 1.327 . S
C3242 C3230 1.349 . S
C3242 H3236 0.950 . S
C3242 C3243 1.327 . S
C3243 H3237 0.950 . S
C3243 C3242 1.327 . S
C3243 C3247 1.429 . S
C3244 C3227 1.574 . S
C3244 H3238 0.949 . S
C3244 C3248 1.368 . S
C3245 C3226 1.429 . S
C3245 C3239 1.429 . S
C3245 C3246 1.523 . S
C3246 C3227 1.368 . S
C3246 C3240 1.368 . S
C3246 C3245 1.523 . S
C3247 C3231 1.429 . S
C3247 C3243 1.429 . S
C3247 C3248 1.523 . S
C3248 C3232 1.368 . S
C3248 C3244 1.368 . S
C3248 C3247 1.523 . S
H3249 C3224 0.950 . S
H3250 C3226 0.950 . S
H3251 C3227 0.949 . S
H3252 C3229 0.950 . S
H3253 C3231 0.950 . S
C3254 C3255 1.349 . S
C3254 C3256 1.327 . S
C3254 H3279 0.950 . S
C3255 C3254 1.349 . S
C3255 C3271 1.349 . S
C3256 C3254 1.327 . S
C3256 C3275 1.429 . S
C3256 H3280 0.950 . S
C3257 C3274 1.574 . S
C3257 C3276 1.368 . S
C3257 H3281 0.949 . S
H3258 C3262 0.949 . S
C3259 C3260 1.349 . S
C3259 C3261 1.327 . S
C3259 H3282 0.950 . S
C3260 C3259 1.349 . S
C3260 C3272 1.349 . S
C3261 C3259 1.327 . S
C3261 C3277 1.429 . S
C3261 H3283 0.950 . S
C3262 H3258 0.949 . S
C3262 C3270 1.574 . S
C3262 C3278 1.368 . S
H3263 C3271 0.950 . S
H3264 C3269 0.950 . S
H3265 C3270 0.949 . S
H3266 C3272 0.950 . S
H3267 C3273 0.950 . S
H3268 C3274 0.949 . S
C3269 H3264 0.950 . S
C3269 C3271 1.327 . S
C3269 C3275 1.429 . S
C3270 C3262 1.574 . S
C3270 H3265 0.949 . S
C3270 C3276 1.368 . S
C3271 C3255 1.349 . S
C3271 H3263 0.950 . S
C3271 C3269 1.327 . S
C3272 C3260 1.349 . S
C3272 H3266 0.950 . S
C3272 C3273 1.327 . S
C3273 H3267 0.950 . S
C3273 C3272 1.327 . S
C3273 C3277 1.429 . S
C3274 C3257 1.574 . S
C3274 H3268 0.949 . S
C3274 C3278 1.368 . S
C3275 C3256 1.429 . S
C3275 C3269 1.429 . S
C3275 C3276 1.523 . S
C3276 C3257 1.368 . S
C3276 C3270 1.368 . S
C3276 C3275 1.523 . S
C3277 C3261 1.429 . S
C3277 C3273 1.429 . S
C3277 C3278 1.523 . S
C3278 C3262 1.368 . S
C3278 C3274 1.368 . S
C3278 C3277 1.523 . S
H3279 C3254 0.950 . S
H3280 C3256 0.950 . S
H3281 C3257 0.949 . S
H3282 C3259 0.950 . S
H3283 C3261 0.950 . S
C3284 C3285 1.349 . S
C3284 C3286 1.327 . S
C3284 H3309 0.950 . S
C3285 C3284 1.349 . S
C3285 C3301 1.349 . S
C3286 C3284 1.327 . S
C3286 C3305 1.429 . S
C3286 H3310 0.950 . S
C3287 C3304 1.574 . S
C3287 C3306 1.368 . S
C3287 H3311 0.949 . S
H3288 C3292 0.949 . S
C3289 C3290 1.349 . S
C3289 C3291 1.327 . S
C3289 H3312 0.950 . S
C3290 C3289 1.349 . S
C3290 C3302 1.349 . S
C3291 C3289 1.327 . S
C3291 C3307 1.429 . S
C3291 H3313 0.950 . S
C3292 H3288 0.949 . S
C3292 C3300 1.574 . S
C3292 C3308 1.368 . S
H3293 C3301 0.950 . S
H3294 C3299 0.950 . S
H3295 C3300 0.949 . S
H3296 C3302 0.950 . S
H3297 C3303 0.950 . S
H3298 C3304 0.949 . S
C3299 H3294 0.950 . S
C3299 C3301 1.327 . S
C3299 C3305 1.429 . S
C3300 C3292 1.574 . S
C3300 H3295 0.949 . S
C3300 C3306 1.368 . S
C3301 C3285 1.349 . S
C3301 H3293 0.950 . S
C3301 C3299 1.327 . S
C3302 C3290 1.349 . S
C3302 H3296 0.950 . S
C3302 C3303 1.327 . S
C3303 H3297 0.950 . S
C3303 C3302 1.327 . S
C3303 C3307 1.429 . S
C3304 C3287 1.574 . S
C3304 H3298 0.949 . S
C3304 C3308 1.368 . S
C3305 C3286 1.429 . S
C3305 C3299 1.429 . S
C3305 C3306 1.523 . S
C3306 C3287 1.368 . S
C3306 C3300 1.368 . S
C3306 C3305 1.523 . S
C3307 C3291 1.429 . S
C3307 C3303 1.429 . S
C3307 C3308 1.523 . S
C3308 C3292 1.368 . S
C3308 C3304 1.368 . S
C3308 C3307 1.523 . S
H3309 C3284 0.950 . S
H3310 C3286 0.950 . S
H3311 C3287 0.949 . S
H3312 C3289 0.950 . S
H3313 C3291 0.950 . S
C3314 C3315 1.349 . S
C3314 C3316 1.327 . S
C3314 H3339 0.950 . S
C3315 C3314 1.349 . S
C3315 C3331 1.349 . S
C3316 C3314 1.327 . S
C3316 C3335 1.429 . S
C3316 H3340 0.950 . S
C3317 C3334 1.574 . S
C3317 C3336 1.368 . S
C3317 H3341 0.949 . S
H3318 C3322 0.949 . S
C3319 C3320 1.349 . S
C3319 C3321 1.327 . S
C3319 H3342 0.950 . S
C3320 C3319 1.349 . S
C3320 C3332 1.349 . S
C3321 C3319 1.327 . S
C3321 C3337 1.429 . S
C3321 H3343 0.950 . S
C3322 H3318 0.949 . S
C3322 C3330 1.574 . S
C3322 C3338 1.368 . S
H3323 C3331 0.950 . S
H3324 C3329 0.950 . S
H3325 C3330 0.949 . S
H3326 C3332 0.950 . S
H3327 C3333 0.950 . S
H3328 C3334 0.949 . S
C3329 H3324 0.950 . S
C3329 C3331 1.327 . S
C3329 C3335 1.429 . S
C3330 C3322 1.574 . S
C3330 H3325 0.949 . S
C3330 C3336 1.368 . S
C3331 C3315 1.349 . S
C3331 H3323 0.950 . S
C3331 C3329 1.327 . S
C3332 C3320 1.349 . S
C3332 H3326 0.950 . S
C3332 C3333 1.327 . S
C3333 H3327 0.950 . S
C3333 C3332 1.327 . S
C3333 C3337 1.429 . S
C3334 C3317 1.574 . S
C3334 H3328 0.949 . S
C3334 C3338 1.368 . S
C3335 C3316 1.429 . S
C3335 C3329 1.429 . S
C3335 C3336 1.523 . S
C3336 C3317 1.368 . S
C3336 C3330 1.368 . S
C3336 C3335 1.523 . S
C3337 C3321 1.429 . S
C3337 C3333 1.429 . S
C3337 C3338 1.523 . S
C3338 C3322 1.368 . S
C3338 C3334 1.368 . S
C3338 C3337 1.523 . S
H3339 C3314 0.950 . S
H3340 C3316 0.950 . S
H3341 C3317 0.949 . S
H3342 C3319 0.950 . S
H3343 C3321 0.950 . S
C3344 C3345 1.349 . S
C3344 C3346 1.327 . S
C3344 H3369 0.950 . S
C3345 C3344 1.349 . S
C3345 C3361 1.349 . S
C3346 C3344 1.327 . S
C3346 C3365 1.429 . S
C3346 H3370 0.950 . S
C3347 C3364 1.574 . S
C3347 C3366 1.368 . S
C3347 H3371 0.949 . S
H3348 C3352 0.949 . S
C3349 C3350 1.349 . S
C3349 C3351 1.327 . S
C3349 H3372 0.950 . S
C3350 C3349 1.349 . S
C3350 C3362 1.349 . S
C3351 C3349 1.327 . S
C3351 C3367 1.429 . S
C3351 H3373 0.950 . S
C3352 H3348 0.949 . S
C3352 C3360 1.574 . S
C3352 C3368 1.368 . S
H3353 C3361 0.950 . S
H3354 C3359 0.950 . S
H3355 C3360 0.949 . S
H3356 C3362 0.950 . S
H3357 C3363 0.950 . S
H3358 C3364 0.949 . S
C3359 H3354 0.950 . S
C3359 C3361 1.327 . S
C3359 C3365 1.429 . S
C3360 C3352 1.574 . S
C3360 H3355 0.949 . S
C3360 C3366 1.368 . S
C3361 C3345 1.349 . S
C3361 H3353 0.950 . S
C3361 C3359 1.327 . S
C3362 C3350 1.349 . S
C3362 H3356 0.950 . S
C3362 C3363 1.327 . S
C3363 H3357 0.950 . S
C3363 C3362 1.327 . S
C3363 C3367 1.429 . S
C3364 C3347 1.574 . S
C3364 H3358 0.949 . S
C3364 C3368 1.368 . S
C3365 C3346 1.429 . S
C3365 C3359 1.429 . S
C3365 C3366 1.523 . S
C3366 C3347 1.368 . S
C3366 C3360 1.368 . S
C3366 C3365 1.523 . S
C3367 C3351 1.429 . S
C3367 C3363 1.429 . S
C3367 C3368 1.523 . S
C3368 C3352 1.368 . S
C3368 C3364 1.368 . S
C3368 C3367 1.523 . S
H3369 C3344 0.950 . S
H3370 C3346 0.950 . S
H3371 C3347 0.949 . S
H3372 C3349 0.950 . S
H3373 C3351 0.950 . S
C3374 C3375 1.349 . S
C3374 C3376 1.327 . S
C3374 H3399 0.950 . S
C3375 C3374 1.349 . S
C3375 C3391 1.349 . S
C3376 C3374 1.327 . S
C3376 C3395 1.429 . S
C3376 H3400 0.950 . S
C3377 C3394 1.574 . S
C3377 C3396 1.368 . S
C3377 H3401 0.949 . S
H3378 C3382 0.949 . S
C3379 C3380 1.349 . S
C3379 C3381 1.327 . S
C3379 H3402 0.950 . S
C3380 C3379 1.349 . S
C3380 C3392 1.349 . S
C3381 C3379 1.327 . S
C3381 C3397 1.429 . S
C3381 H3403 0.950 . S
C3382 H3378 0.949 . S
C3382 C3390 1.574 . S
C3382 C3398 1.368 . S
H3383 C3391 0.950 . S
H3384 C3389 0.950 . S
H3385 C3390 0.949 . S
H3386 C3392 0.950 . S
H3387 C3393 0.950 . S
H3388 C3394 0.949 . S
C3389 H3384 0.950 . S
C3389 C3391 1.327 . S
C3389 C3395 1.429 . S
C3390 C3382 1.574 . S
C3390 H3385 0.949 . S
C3390 C3396 1.368 . S
C3391 C3375 1.349 . S
C3391 H3383 0.950 . S
C3391 C3389 1.327 . S
C3392 C3380 1.349 . S
C3392 H3386 0.950 . S
C3392 C3393 1.327 . S
C3393 H3387 0.950 . S
C3393 C3392 1.327 . S
C3393 C3397 1.429 . S
C3394 C3377 1.574 . S
C3394 H3388 0.949 . S
C3394 C3398 1.368 . S
C3395 C3376 1.429 . S
C3395 C3389 1.429 . S
C3395 C3396 1.523 . S
C3396 C3377 1.368 . S
C3396 C3390 1.368 . S
C3396 C3395 1.523 . S
C3397 C3381 1.429 . S
C3397 C3393 1.429 . S
C3397 C3398 1.523 . S
C3398 C3382 1.368 . S
C3398 C3394 1.368 . S
C3398 C3397 1.523 . S
H3399 C3374 0.950 . S
H3400 C3376 0.950 . S
H3401 C3377 0.949 . S
H3402 C3379 0.950 . S
H3403 C3381 0.950 . S
C3404 C3405 1.349 . S
C3404 C3406 1.327 . S
C3404 H3429 0.950 . S
C3405 C3404 1.349 . S
C3405 C3421 1.349 . S
C3406 C3404 1.327 . S
C3406 C3425 1.429 . S
C3406 H3430 0.950 . S
C3407 C3424 1.574 . S
C3407 C3426 1.368 . S
C3407 H3431 0.949 . S
H3408 C3412 0.949 . S
C3409 C3410 1.349 . S
C3409 C3411 1.327 . S
C3409 H3432 0.950 . S
C3410 C3409 1.349 . S
C3410 C3422 1.349 . S
C3411 C3409 1.327 . S
C3411 C3427 1.429 . S
C3411 H3433 0.950 . S
C3412 H3408 0.949 . S
C3412 C3420 1.574 . S
C3412 C3428 1.368 . S
H3413 C3421 0.950 . S
H3414 C3419 0.950 . S
H3415 C3420 0.949 . S
H3416 C3422 0.950 . S
H3417 C3423 0.950 . S
H3418 C3424 0.949 . S
C3419 H3414 0.950 . S
C3419 C3421 1.327 . S
C3419 C3425 1.429 . S
C3420 C3412 1.574 . S
C3420 H3415 0.949 . S
C3420 C3426 1.368 . S
C3421 C3405 1.349 . S
C3421 H3413 0.950 . S
C3421 C3419 1.327 . S
C3422 C3410 1.349 . S
C3422 H3416 0.950 . S
C3422 C3423 1.327 . S
C3423 H3417 0.950 . S
C3423 C3422 1.327 . S
C3423 C3427 1.429 . S
C3424 C3407 1.574 . S
C3424 H3418 0.949 . S
C3424 C3428 1.368 . S
C3425 C3406 1.429 . S
C3425 C3419 1.429 . S
C3425 C3426 1.523 . S
C3426 C3407 1.368 . S
C3426 C3420 1.368 . S
C3426 C3425 1.523 . S
C3427 C3411 1.429 . S
C3427 C3423 1.429 . S
C3427 C3428 1.523 . S
C3428 C3412 1.368 . S
C3428 C3424 1.368 . S
C3428 C3427 1.523 . S
H3429 C3404 0.950 . S
H3430 C3406 0.950 . S
H3431 C3407 0.949 . S
H3432 C3409 0.950 . S
H3433 C3411 0.950 . S
C3434 C3435 1.349 1_556 S
C3434 C3436 1.327 . S
C3434 H3459 0.950 . S
C3435 C3434 1.349 1_554 S
C3435 C3451 1.349 . S
C3436 C3434 1.327 . S
C3436 C3455 1.429 1_556 S
C3436 H3460 0.950 . S
C3437 C3454 1.574 . S
C3437 C3456 1.368 . S
C3437 H3461 0.949 . S
H3438 C3442 0.949 . S
C3439 C3440 1.349 . S
C3439 C3441 1.327 . S
C3439 H3462 0.950 1_565 S
C3440 C3439 1.349 . S
C3440 C3452 1.349 1_554 S
C3441 C3439 1.327 . S
C3441 C3457 1.429 . S
C3441 H3463 0.950 . S
C3442 H3438 0.949 . S
C3442 C3450 1.574 . S
C3442 C3458 1.368 1_556 S
H3443 C3451 0.950 . S
H3444 C3449 0.950 . S
H3445 C3450 0.949 . S
H3446 C3452 0.950 . S
H3447 C3453 0.950 . S
H3448 C3454 0.949 . S
C3449 H3444 0.950 . S
C3449 C3451 1.327 . S
C3449 C3455 1.429 . S
C3450 C3442 1.574 . S
C3450 H3445 0.949 . S
C3450 C3456 1.368 1_556 S
C3451 C3435 1.349 . S
C3451 H3443 0.950 . S
C3451 C3449 1.327 . S
C3452 C3440 1.349 1_556 S
C3452 H3446 0.950 . S
C3452 C3453 1.327 . S
C3453 H3447 0.950 . S
C3453 C3452 1.327 . S
C3453 C3457 1.429 1_556 S
C3454 C3437 1.574 . S
C3454 H3448 0.949 . S
C3454 C3458 1.368 . S
C3455 C3436 1.429 1_554 S
C3455 C3449 1.429 . S
C3455 C3456 1.523 . S
C3456 C3437 1.368 . S
C3456 C3450 1.368 1_554 S
C3456 C3455 1.523 . S
C3457 C3441 1.429 . S
C3457 C3453 1.429 1_554 S
C3457 C3458 1.523 . S
C3458 C3442 1.368 1_554 S
C3458 C3454 1.368 . S
C3458 C3457 1.523 . S
H3459 C3434 0.950 . S
H3460 C3436 0.950 . S
H3461 C3437 0.949 . S
H3462 C3439 0.950 1_545 S
H3463 C3441 0.950 . S
C3464 C3465 1.349 . S
C3464 C3466 1.327 . S
C3464 H3489 0.950 . S
C3465 C3464 1.349 . S
C3465 C3481 1.349 . S
C3466 C3464 1.327 . S
C3466 C3485 1.429 . S
C3466 H3490 0.950 . S
C3467 C3484 1.574 . S
C3467 C3486 1.368 . S
C3467 H3491 0.949 . S
H3468 C3472 0.949 . S
C3469 C3470 1.349 . S
C3469 C3471 1.327 . S
C3469 H3492 0.950 . S
C3470 C3469 1.349 . S
C3470 C3482 1.349 . S
C3471 C3469 1.327 . S
C3471 C3487 1.429 . S
C3471 H3493 0.950 . S
C3472 H3468 0.949 . S
C3472 C3480 1.574 . S
C3472 C3488 1.368 . S
H3473 C3481 0.950 . S
H3474 C3479 0.950 . S
H3475 C3480 0.949 . S
H3476 C3482 0.950 . S
H3477 C3483 0.950 . S
H3478 C3484 0.949 . S
C3479 H3474 0.950 . S
C3479 C3481 1.327 . S
C3479 C3485 1.429 . S
C3480 C3472 1.574 . S
C3480 H3475 0.949 . S
C3480 C3486 1.368 . S
C3481 C3465 1.349 . S
C3481 H3473 0.950 . S
C3481 C3479 1.327 . S
C3482 C3470 1.349 . S
C3482 H3476 0.950 . S
C3482 C3483 1.327 . S
C3483 H3477 0.950 . S
C3483 C3482 1.327 . S
C3483 C3487 1.429 . S
C3484 C3467 1.574 . S
C3484 H3478 0.949 . S
C3484 C3488 1.368 . S
C3485 C3466 1.429 . S
C3485 C3479 1.429 . S
C3485 C3486 1.523 . S
C3486 C3467 1.368 . S
C3486 C3480 1.368 . S
C3486 C3485 1.523 . S
C3487 C3471 1.429 . S
C3487 C3483 1.429 . S
C3487 C3488 1.523 . S
C3488 C3472 1.368 . S
C3488 C3484 1.368 . S
C3488 C3487 1.523 . S
H3489 C3464 0.950 . S
H3490 C3466 0.950 . S
H3491 C3467 0.949 . S
H3492 C3469 0.950 . S
H3493 C3471 0.950 . S
C3494 C3495 1.349 . S
C3494 C3496 1.327 . S
C3494 H3519 0.950 . S
C3495 C3494 1.349 . S
C3495 C3511 1.349 . S
C3496 C3494 1.327 . S
C3496 C3515 1.429 . S
C3496 H3520 0.950 . S
C3497 C3514 1.574 . S
C3497 C3516 1.368 . S
C3497 H3521 0.949 . S
H3498 C3502 0.949 . S
C3499 C3500 1.349 . S
C3499 C3501 1.327 . S
C3499 H3522 0.950 . S
C3500 C3499 1.349 . S
C3500 C3512 1.349 . S
C3501 C3499 1.327 . S
C3501 C3517 1.429 . S
C3501 H3523 0.950 . S
C3502 H3498 0.949 . S
C3502 C3510 1.574 . S
C3502 C3518 1.368 . S
H3503 C3511 0.965 . S
H3504 C3509 0.950 . S
H3505 C3510 0.949 . S
H3506 C3512 0.950 . S
H3507 C3513 0.950 . S
H3508 C3514 0.949 . S
C3509 H3504 0.950 . S
C3509 C3511 1.327 . S
C3509 C3515 1.429 . S
C3510 C3502 1.574 . S
C3510 H3505 0.949 . S
C3510 C3516 1.368 . S
C3511 C3495 1.349 . S
C3511 H3503 0.965 . S
C3511 C3509 1.327 . S
C3512 C3500 1.349 . S
C3512 H3506 0.950 . S
C3512 C3513 1.327 . S
C3513 H3507 0.950 . S
C3513 C3512 1.327 . S
C3513 C3517 1.429 . S
C3514 C3497 1.574 . S
C3514 H3508 0.949 . S
C3514 C3518 1.368 . S
C3515 C3496 1.429 . S
C3515 C3509 1.429 . S
C3515 C3516 1.523 . S
C3516 C3497 1.368 . S
C3516 C3510 1.368 . S
C3516 C3515 1.523 . S
C3517 C3501 1.429 . S
C3517 C3513 1.429 . S
C3517 C3518 1.523 . S
C3518 C3502 1.368 . S
C3518 C3514 1.368 . S
C3518 C3517 1.523 . S
H3519 C3494 0.950 . S
H3520 C3496 0.950 . S
H3521 C3497 0.949 . S
H3522 C3499 0.950 . S
H3523 C3501 0.950 . S
C3524 C3525 1.349 . S
C3524 C3526 1.327 . S
C3524 H3549 0.950 . S
C3525 C3524 1.349 . S
C3525 C3541 1.349 . S
C3526 C3524 1.327 . S
C3526 C3545 1.429 . S
C3526 H3550 0.950 . S
C3527 C3544 1.574 . S
C3527 C3546 1.368 . S
C3527 H3551 0.949 . S
H3528 C3532 0.949 . S
C3529 C3530 1.349 . S
C3529 C3531 1.327 . S
C3529 H3552 0.950 . S
C3530 C3529 1.349 . S
C3530 C3542 1.349 . S
C3531 C3529 1.327 . S
C3531 C3547 1.429 . S
C3531 H3553 0.950 . S
C3532 H3528 0.949 . S
C3532 C3540 1.574 . S
C3532 C3548 1.368 . S
H3533 C3541 0.950 . S
H3534 C3539 0.950 . S
H3535 C3540 0.949 . S
H3536 C3542 0.950 . S
H3537 C3543 0.950 . S
H3538 C3544 0.949 . S
C3539 H3534 0.950 . S
C3539 C3541 1.327 . S
C3539 C3545 1.429 . S
C3540 C3532 1.574 . S
C3540 H3535 0.949 . S
C3540 C3546 1.368 . S
C3541 C3525 1.349 . S
C3541 H3533 0.950 . S
C3541 C3539 1.327 . S
C3542 C3530 1.349 . S
C3542 H3536 0.950 . S
C3542 C3543 1.327 . S
C3543 H3537 0.950 . S
C3543 C3542 1.327 . S
C3543 C3547 1.429 . S
C3544 C3527 1.574 . S
C3544 H3538 0.949 . S
C3544 C3548 1.368 . S
C3545 C3526 1.429 . S
C3545 C3539 1.429 . S
C3545 C3546 1.523 . S
C3546 C3527 1.368 . S
C3546 C3540 1.368 . S
C3546 C3545 1.523 . S
C3547 C3531 1.429 . S
C3547 C3543 1.429 . S
C3547 C3548 1.523 . S
C3548 C3532 1.368 . S
C3548 C3544 1.368 . S
C3548 C3547 1.523 . S
H3549 C3524 0.950 . S
H3550 C3526 0.950 . S
H3551 C3527 0.949 . S
H3552 C3529 0.950 . S
H3553 C3531 0.950 . S
C3554 C3555 1.349 . S
C3554 C3556 1.327 . S
C3554 H3579 0.950 . S
C3555 C3554 1.349 . S
C3555 C3571 1.349 . S
C3556 C3554 1.327 . S
C3556 C3575 1.429 . S
C3556 H3580 0.950 . S
C3557 C3574 1.574 . S
C3557 C3576 1.368 . S
C3557 H3581 0.949 . S
H3558 C3562 0.949 . S
C3559 C3560 1.349 . S
C3559 C3561 1.327 . S
C3559 H3582 0.950 . S
C3560 C3559 1.349 . S
C3560 C3572 1.349 . S
C3561 C3559 1.327 . S
C3561 C3577 1.429 . S
C3561 H3583 0.950 . S
C3562 H3558 0.949 . S
C3562 C3570 1.574 . S
C3562 C3578 1.368 . S
H3563 C3571 0.950 . S
H3564 C3569 0.950 . S
H3565 C3570 0.949 . S
H3566 C3572 0.950 . S
H3567 C3573 0.950 . S
H3568 C3574 0.949 . S
C3569 H3564 0.950 . S
C3569 C3571 1.327 . S
C3569 C3575 1.429 . S
C3570 C3562 1.574 . S
C3570 H3565 0.949 . S
C3570 C3576 1.368 . S
C3571 C3555 1.349 . S
C3571 H3563 0.950 . S
C3571 C3569 1.327 . S
C3572 C3560 1.349 . S
C3572 H3566 0.950 . S
C3572 C3573 1.327 . S
C3573 H3567 0.950 . S
C3573 C3572 1.327 . S
C3573 C3577 1.429 . S
C3574 C3557 1.574 . S
C3574 H3568 0.949 . S
C3574 C3578 1.368 . S
C3575 C3556 1.429 . S
C3575 C3569 1.429 . S
C3575 C3576 1.523 . S
C3576 C3557 1.368 . S
C3576 C3570 1.368 . S
C3576 C3575 1.523 . S
C3577 C3561 1.429 . S
C3577 C3573 1.429 . S
C3577 C3578 1.523 . S
C3578 C3562 1.368 . S
C3578 C3574 1.368 . S
C3578 C3577 1.523 . S
H3579 C3554 0.950 . S
H3580 C3556 0.950 . S
H3581 C3557 0.949 . S
H3582 C3559 0.950 . S
H3583 C3561 0.950 . S
C710 C352 1.189 1_655 S
C705 C8 1.190 . S
C735 C22 1.634 . S
C740 C380 1.517 . S
C765 C35 0.854 . S
C770 C398 0.857 . S
C800 C424 1.238 . S
C795 C49 1.322 . S
C825 C23 1.791 . S
C830 C447 1.626 . S
C860 C467 0.839 . S
C855 C34 0.836 . S
C890 C495 1.125 . S
C885 C48 1.177 . S
C915 C9 1.207 . S
C920 C513 1.208 . S
C945 C64 1.429 . S
C950 C354 1.445 . S
C975 C77 0.879 . S
C980 C376 0.887 . S
C1010 C400 1.570 . S
C1005 C92 1.554 . S
C1040 C421 1.110 . S
C1035 C105 1.094 . S
C1065 C63 0.976 . S
C1070 C444 0.988 . S
C1100 C469 1.585 . S
C1095 C78 1.570 . S
C1130 C491 1.006 1_565 S
C1125 C91 0.996 . S
C1160 C515 1.427 . S
C1155 C106 1.415 . S
C1190 C355 0.959 . S
C1185 C107 1.015 . S
C1220 C538 0.985 . S
C1215 C118 0.968 . S
C1245 C135 1.186 . S
C1250 C562 1.113 . S
C1280 C586 1.089 . S
C1275 C146 1.088 . S
C1305 C65 1.008 . S
C1310 C516 0.953 . S
C1340 C401 1.053 . S
C1335 C79 1.136 . S
C1365 C132 1.076 . S
C1370 C607 1.103 . S
C1400 C632 0.979 . S
C1395 C160 0.980 . S
C1425 C177 1.165 . S
C1430 C353 1.151 . S
C1460 C630 0.743 . S
C1455 C188 0.749 . S
C1485 C204 1.221 . S
C1490 C399 1.209 . S
C1515 C219 0.916 . S
C1520 C609 0.900 . S
C1550 C448 0.956 . S
C1545 C190 0.980 . S
C1580 C560 0.927 . S
C1575 C202 0.916 . S
C1610 C492 0.803 . S
C1605 C217 0.801 . S
C1640 C652 0.927 . S
C1635 C175 0.916 . S
C1670 C357 0.719 . S
C1665 C231 0.714 . S
C1695 C246 1.415 . S
C1700 C628 1.395 . S
C1730 C403 0.689 1_565 S
C1725 C259 0.678 . S
C1755 C274 1.363 . S
C1760 C606 1.350 . S
C1785 C232 1.347 . S
C1790 C445 1.336 . S
C1815 C245 0.701 . S
C1820 C564 0.712 . S
C1850 C490 1.240 . S
C1845 C260 1.257 . S
C1875 C273 0.671 . S
C1880 C656 0.688 . S
C1905 C275 1.451 . S
C1910 C356 1.401 . S
C1935 C286 1.061 . S
C1940 C541 1.044 . S
C1965 C303 1.406 . S
C1970 C471 1.363 . S
C1995 C314 0.972 . S
C2000 C585 0.940 . S
C2030 C655 1.335 . S
C2025 C233 1.386 . S
C2060 C402 1.373 . S
C2055 C247 1.416 . S
C2090 C426 0.953 . S
C2085 C300 0.971 . S
C2120 C378 0.983 . S
C2115 C328 1.027 . S
C2145 C36 1.186 . S
C2150 C674 1.186 . S
C2180 C633 1.528 . S
C2175 C50 1.643 . S
C2210 C697 0.854 . S
C2205 C7 0.852 . S
C2235 C21 1.337 . S
C2240 C608 1.253 . S
C2265 C51 1.804 . S
C2270 C539 1.642 . S
C2300 C559 0.835 . S
C2295 C6 0.833 . S
C2330 C587 1.137 . S
C2325 C20 1.188 . S
C2360 C651 1.205 . S
C2355 C37 1.206 . S
C2390 C676 1.387 . S
C2385 C162 1.384 . S
C2415 C119 0.866 . S
C2420 C629 0.875 . S
C2445 C134 1.515 . S
C2450 C699 1.522 1_655 S
C2480 C605 1.103 . S
C2475 C147 1.084 . S
C2510 C536 0.983 . S
C2505 C161 0.969 . S
C2535 C120 1.534 . S
C2540 C561 1.539 . S
C2570 C583 0.996 . S
C2565 C133 0.980 . S
C2595 C148 1.367 . S
C2600 C653 1.372 . S
C2630 C677 1.015 . S
C2625 C149 1.066 . S
C2660 C446 0.901 1_565 S
C2655 C76 0.888 . S
C2690 C470 1.058 . S
C2685 C93 1.142 . S
C2715 C104 1.011 . S
C2720 C494 1.014 . S
C2750 C654 1.009 . S
C2745 C163 1.059 . S
C2775 C121 1.179 . S
C2780 C700 1.107 . S
C2810 C423 1.020 . S
C2805 C90 0.996 . S
C2840 C379 0.904 . S
C2835 C62 0.904 . S
C2865 C203 0.888 . S
C2870 C675 0.897 . S
C2900 C377 0.802 . S
C2895 C216 0.799 . S
C2930 C698 0.950 1_655 S
C2925 C174 0.943 . S
C2955 C191 0.970 . S
C2960 C425 0.949 . S
C2985 C218 0.921 . S
C2990 C540 0.904 . S
C3015 C176 1.192 . S
C3020 C468 1.179 . S
C3045 C189 0.744 . S
C3050 C584 0.745 . S
C3075 C205 1.198 . S
C3080 C514 1.183 . S
C3110 C679 0.711 . S
C3105 C329 0.702 . S
C3135 C288 1.335 . S
C3140 C375 1.314 . S
C3170 C702 0.690 . S
C3165 C301 0.672 . S
C3195 C316 1.276 . S
C3200 C422 1.262 . S
C3225 C330 1.433 . S
C3230 C537 1.417 . S
C3260 C472 0.716 . S
C3255 C287 0.710 . S
C3285 C302 1.338 . S
C3290 C582 1.321 . S
C3320 C518 0.690 . S
C3315 C315 0.680 . S
C3350 C678 1.328 . S
C3345 C317 1.378 . S
C3380 C449 1.021 . S
C3375 C244 1.043 . S
C3405 C261 1.326 . S
C3410 C563 1.277 . S
C3440 C493 0.915 . S
C3435 C272 0.948 . S
C3470 C517 1.412 . S
C3465 C331 1.462 . S
C3495 C289 1.335 . S
C3500 C701 1.291 . S
C3530 C610 0.977 . S
C3525 C258 0.998 . S
C3560 C631 1.008 . S
C3555 C230 1.049 . S
