# Generated by pormake.
# Topology pyr, (3,6)-cn, num edge types: 1
# Building blocks:
#     Node 0, Type 0, BuildingBlock: OLANEW_clean_sbu_2, # of connection points: 3
#     Node 1, Type 0, BuildingBlock: OLANEW_clean_sbu_2, # of connection points: 3
#     Node 2, Type 0, BuildingBlock: OLANEW_clean_sbu_2, # of connection points: 3
#     Node 3, Type 0, BuildingBlock: OLANEW_clean_sbu_2, # of connection points: 3
#     Node 4, Type 0, BuildingBlock: OLANEW_clean_sbu_2, # of connection points: 3
#     Node 5, Type 0, BuildingBlock: OLANEW_clean_sbu_2, # of connection points: 3
#     Node 6, Type 0, BuildingBlock: OLANEW_clean_sbu_2, # of connection points: 3
#     Node 7, Type 0, BuildingBlock: OLANEW_clean_sbu_2, # of connection points: 3
#     Node 8, Type 1, BuildingBlock: BETDEL_clean_sbu_0, # of connection points: 6
#     Node 9, Type 1, BuildingBlock: BETDEL_clean_sbu_0, # of connection points: 6
#     Node 10, Type 1, BuildingBlock: BETDEL_clean_sbu_0, # of connection points: 6
#     Node 11, Type 1, BuildingBlock: BETDEL_clean_sbu_0, # of connection points: 6
#     Edge 12, Type (0, 1), BuildingBlock: XIVTED_clean_linker_0, # of connection points: 2
#     Edge 13, Type (0, 1), BuildingBlock: XIVTED_clean_linker_0, # of connection points: 2
#     Edge 14, Type (0, 1), BuildingBlock: XIVTED_clean_linker_0, # of connection points: 2
#     Edge 15, Type (0, 1), BuildingBlock: XIVTED_clean_linker_0, # of connection points: 2
#     Edge 16, Type (0, 1), BuildingBlock: XIVTED_clean_linker_0, # of connection points: 2
#     Edge 17, Type (0, 1), BuildingBlock: XIVTED_clean_linker_0, # of connection points: 2
#     Edge 18, Type (0, 1), BuildingBlock: XIVTED_clean_linker_0, # of connection points: 2
#     Edge 19, Type (0, 1), BuildingBlock: XIVTED_clean_linker_0, # of connection points: 2
#     Edge 20, Type (0, 1), BuildingBlock: XIVTED_clean_linker_0, # of connection points: 2
#     Edge 21, Type (0, 1), BuildingBlock: XIVTED_clean_linker_0, # of connection points: 2
#     Edge 22, Type (0, 1), BuildingBlock: XIVTED_clean_linker_0, # of connection points: 2
#     Edge 23, Type (0, 1), BuildingBlock: XIVTED_clean_linker_0, # of connection points: 2
#     Edge 24, Type (0, 1), BuildingBlock: XIVTED_clean_linker_0, # of connection points: 2
#     Edge 25, Type (0, 1), BuildingBlock: XIVTED_clean_linker_0, # of connection points: 2
#     Edge 26, Type (0, 1), BuildingBlock: XIVTED_clean_linker_0, # of connection points: 2
#     Edge 27, Type (0, 1), BuildingBlock: XIVTED_clean_linker_0, # of connection points: 2
#     Edge 28, Type (0, 1), BuildingBlock: XIVTED_clean_linker_0, # of connection points: 2
#     Edge 29, Type (0, 1), BuildingBlock: XIVTED_clean_linker_0, # of connection points: 2
#     Edge 30, Type (0, 1), BuildingBlock: XIVTED_clean_linker_0, # of connection points: 2
#     Edge 31, Type (0, 1), BuildingBlock: XIVTED_clean_linker_0, # of connection points: 2
#     Edge 32, Type (0, 1), BuildingBlock: XIVTED_clean_linker_0, # of connection points: 2
#     Edge 33, Type (0, 1), BuildingBlock: XIVTED_clean_linker_0, # of connection points: 2
#     Edge 34, Type (0, 1), BuildingBlock: XIVTED_clean_linker_0, # of connection points: 2
#     Edge 35, Type (0, 1), BuildingBlock: XIVTED_clean_linker_0, # of connection points: 2
# Relax obj value: 0.054
# Max RMSD: 0.144
# Mean RMSD: 0.111
data_MOF--net-pyr--node1-OLANEW_clean_sbu_2--node2-BETDEL_clean_sbu_0--edge1-XIVTED_clean_linker_0
_symmetry_space_group_name_H-M    P1
_symmetry_Int_Tables_number       1
_symmetry_cell_setting            triclinic
loop_
_symmetry_equiv_pos_as_xyz
'x, y, z'
_cell_length_a     39.168313
_cell_length_b     41.396905
_cell_length_c     36.974737
_cell_angle_alpha  96.723424
_cell_angle_beta   87.797977
_cell_angle_gamma 100.14958
loop_
_atom_site_label
_atom_site_type_symbol
_atom_site_fract_x
_atom_site_fract_y
_atom_site_fract_z
_atom_type_partial_charge
O0 O 0.29343 0.25663 0.16065 0.0
Cd1 Cd 0.278 0.31077 0.17939 0.0
O2 O 0.26202 0.23785 0.20645 0.0
Cd3 Cd 0.23843 0.19994 0.24059 0.0
O4 O 0.20814 0.16853 0.27801 0.0
C5 C 0.22293 0.15891 0.30376 0.0
O6 O 0.25672 0.16747 0.30691 0.0
C7 C 0.28236 0.23306 0.1795 0.0
C8 C 0.22706 0.32672 0.13757 0.0
O9 O 0.25921 0.33311 0.12833 0.0
O10 O 0.21896 0.31222 0.16627 0.0
O11 O 0.38771 0.91413 0.72336 0.0
Cd12 Cd 0.39332 0.89688 0.65851 0.0
O13 O 0.33895 0.87903 0.72494 0.0
Cd14 Cd 0.28852 0.8607 0.74884 0.0
O15 O 0.23507 0.86387 0.73794 0.0
C16 C 0.22327 0.88968 0.75057 0.0
O17 O 0.24222 0.91179 0.77335 0.0
C18 C 0.36161 0.90107 0.74127 0.0
C19 C 0.41517 0.83609 0.64799 0.0
O20 O 0.43708 0.86313 0.6517 0.0
O21 O 0.38279 0.83781 0.64888 0.0
O22 O 0.69028 0.40475 0.89577 0.0
Cd23 Cd 0.62776 0.39301 0.88538 0.0
O24 O 0.68553 0.35847 0.91994 0.0
Cd25 Cd 0.69838 0.31642 0.944 0.0
O26 O 0.68241 0.26796 0.96302 0.0
C27 C 0.66665 0.2661 0.9936 0.0
O28 O 0.66286 0.29353 0.0139 0.0
C29 C 0.70454 0.38455 0.9108 0.0
C30 C 0.60956 0.41991 0.82455 0.0
O31 O 0.61008 0.43616 0.8563 0.0
O32 O 0.61776 0.39106 0.82162 0.0
O33 O 0.00824 0.71221 0.40558 0.0
Cd34 Cd 0.02039 0.65784 0.38153 0.0
O35 O 0.96144 0.68845 0.43258 0.0
Cd36 Cd 0.91248 0.68457 0.46332 0.0
O37 O 0.86025 0.66674 0.48335 0.0
C38 C 0.84034 0.64556 0.46253 0.0
O39 O 0.85183 0.63574 0.42995 0.0
C40 C 0.98185 0.71469 0.42609 0.0
C41 C 0.99924 0.63702 0.31017 0.0
O42 O 0.97961 0.62842 0.33718 0.0
O43 O 0.02844 0.65591 0.31697 0.0
O44 O 0.80057 0.79057 0.80703 0.0
Cd45 Cd 0.75958 0.74743 0.83246 0.0
O46 O 0.77976 0.82814 0.84344 0.0
Cd47 Cd 0.77348 0.87601 0.87206 0.0
O48 O 0.74119 0.9039 0.90852 0.0
C49 C 0.71212 0.88715 0.9168 0.0
O50 O 0.70469 0.85602 0.90314 0.0
C51 C 0.80167 0.82074 0.81899 0.0
C52 C 0.79955 0.70996 0.86459 0.0
O53 O 0.79122 0.70321 0.83102 0.0
O54 O 0.78772 0.7337 0.88346 0.0
O55 O 0.6821 0.07846 0.38261 0.0
Cd56 Cd 0.69236 0.05957 0.44027 0.0
O57 O 0.68327 0.12872 0.40954 0.0
Cd58 Cd 0.67889 0.18074 0.41115 0.0
O59 O 0.67123 0.23201 0.41933 0.0
C60 C 0.64803 0.24122 0.40185 0.0
O61 O 0.62938 0.21963 0.37831 0.0
C62 C 0.67905 0.10827 0.38095 0.0
C63 C 0.76232 0.06395 0.45368 0.0
O64 O 0.74522 0.03814 0.4358 0.0
O65 O 0.74632 0.08786 0.46476 0.0
O66 O 0.47221 0.73872 0.17306 0.0
Cd67 Cd 0.47687 0.6807 0.17497 0.0
O68 O 0.42861 0.71849 0.13753 0.0
Cd69 Cd 0.38193 0.71559 0.10616 0.0
O70 O 0.33269 0.68787 0.08531 0.0
C71 C 0.30458 0.69929 0.08955 0.0
O72 O 0.30523 0.72947 0.10549 0.0
C73 C 0.44793 0.74356 0.15359 0.0
C74 C 0.48894 0.66303 0.24335 0.0
O75 O 0.51411 0.67103 0.22112 0.0
O76 O 0.45815 0.66413 0.2336 0.0
O77 O 0.13612 0.46482 0.68047 0.0
Cd78 Cd 0.15484 0.46716 0.61682 0.0
O79 O 0.15448 0.41852 0.68633 0.0
Cd80 Cd 0.15448 0.37499 0.7146 0.0
O81 O 0.13665 0.32225 0.71737 0.0
C82 C 0.10752 0.31135 0.70254 0.0
O83 O 0.09111 0.33236 0.68935 0.0
C84 C 0.1394 0.44209 0.69972 0.0
C85 C 0.22615 0.47371 0.60381 0.0
O86 O 0.2121 0.49895 0.61466 0.0
O87 O 0.20659 0.44528 0.59988 0.0
Dy88 Dy 0.0437 0.01593 0.5531 0.0
C89 C 0.96613 0.9714 0.67755 0.0
C90 C 0.0801 0.0432 0.49642 0.0
Dy91 Dy 0.99917 0.99882 0.61918 0.0
O92 O 0.0935 0.03688 0.52577 0.0
O93 O 0.04656 0.03461 0.49787 0.0
O94 O 0.07575 0.97849 0.56412 0.0
O95 O 0.05443 0.006 0.60803 0.0
C96 C 0.07135 0.983 0.5992 0.0
C97 C 0.96998 0.03063 0.57299 0.0
O98 O 0.03045 0.04673 0.64256 0.0
O99 O 0.04311 0.06494 0.58594 0.0
O100 O 0.9561 0.99402 0.66116 0.0
O101 O 0.99458 0.96391 0.66231 0.0
O102 O 0.96511 0.03433 0.60801 0.0
O103 O 0.98795 0.00839 0.56422 0.0
O104 O 0.01527 0.9678 0.52838 0.0
O105 O 0.99184 0.95007 0.58282 0.0
C106 C 0.04098 0.07077 0.62187 0.0
C107 C 0.99865 0.94443 0.54732 0.0
Dy108 Dy 0.49912 0.0421 0.11886 0.0
C109 C 0.40794 0.98172 0.99721 0.0
C110 C 0.54539 0.08319 0.16358 0.0
Dy111 Dy 0.45404 0.00928 0.05015 0.0
O112 O 0.55308 0.0689 0.13184 0.0
O113 O 0.51243 0.07515 0.17068 0.0
O114 O 0.48462 0.00103 0.1547 0.0
O115 O 0.4634 0.99699 0.10365 0.0
C116 C 0.46423 0.98197 0.13117 0.0
C117 C 0.50374 0.06135 0.0406 0.0
O118 O 0.41555 0.03313 0.08559 0.0
O119 O 0.45362 0.0682 0.12596 0.0
O120 O 0.41763 0.01313 0.00641 0.0
O121 O 0.42305 0.96497 0.01756 0.0
O122 O 0.49434 0.03745 0.01509 0.0
O123 O 0.4846 0.05739 0.06834 0.0
O124 O 0.53592 0.01649 0.0823 0.0
O125 O 0.49597 0.97906 0.04624 0.0
C126 C 0.42239 0.05801 0.11186 0.0
C127 C 0.52789 0.98994 0.05821 0.0
Dy128 Dy 0.5451 0.50914 0.5131 0.0
C129 C 0.49909 0.62113 0.59212 0.0
C130 C 0.57413 0.45803 0.47931 0.0
Dy131 Dy 0.52805 0.56939 0.55991 0.0
O132 O 0.54374 0.46403 0.47261 0.0
O133 O 0.58892 0.48014 0.50435 0.0
O134 O 0.4888 0.49243 0.49981 0.0
O135 O 0.50242 0.51837 0.55066 0.0
C136 C 0.47749 0.5065 0.52998 0.0
C137 C 0.59574 0.57125 0.54476 0.0
O138 O 0.53111 0.5378 0.60439 0.0
O139 O 0.55897 0.49979 0.56903 0.0
O140 O 0.53175 0.61919 0.59235 0.0
O141 O 0.48199 0.59453 0.57465 0.0
O142 O 0.58373 0.58433 0.57514 0.0
O143 O 0.57131 0.56019 0.52301 0.0
O144 O 0.54574 0.54266 0.46989 0.0
O145 O 0.5143 0.57842 0.50359 0.0
C146 C 0.54852 0.51284 0.60119 0.0
C147 C 0.52723 0.5667 0.47205 0.0
Dy148 Dy 0.02292 0.486 0.01285 0.0
C149 C 0.97057 0.59317 0.9657 0.0
C150 C 0.05724 0.43714 0.02757 0.0
Dy151 Dy 0.00381 0.54506 0.9842 0.0
O152 O 0.03006 0.44496 0.04525 0.0
O153 O 0.06533 0.45566 0.00148 0.0
O154 O 0.98498 0.49032 0.05953 0.0
O155 O 0.0107 0.53286 0.03868 0.0
C156 C 0.98778 0.52217 0.06118 0.0
C157 C 0.04254 0.51082 0.93879 0.0
O158 O 0.05074 0.57177 0.01306 0.0
O159 O 0.07235 0.52423 0.02005 0.0
O160 O 0.9917 0.57842 0.94465 0.0
O161 O 0.96819 0.58223 0.99738 0.0
O162 O 0.04603 0.54278 0.94212 0.0
O163 O 0.0174 0.49856 0.95811 0.0
O164 O 0.9746 0.46011 0.98425 0.0
O165 O 0.95434 0.50853 0.97865 0.0
C166 C 0.07626 0.55696 0.0212 0.0
C167 C 0.94973 0.47593 0.97636 0.0
H168 H 0.24612 0.13571 0.36296 0.0
H169 H 0.05603 0.06017 0.43392 0.0
H170 H 0.15244 0.1384 0.30636 0.0
H171 H 0.15012 0.06093 0.49114 0.0
H172 H 0.09074 0.08677 0.38544 0.0
H173 H 0.21127 0.10603 0.40872 0.0
C174 C 0.21822 0.12996 0.36006 0.0
C175 C 0.20219 0.13968 0.33082 0.0
C176 C 0.10379 0.08104 0.40857 0.0
C177 C 0.16203 0.10571 0.38327 0.0
C178 C 0.084 0.06588 0.43617 0.0
C179 C 0.1003 0.05847 0.4665 0.0
C180 C 0.14009 0.08878 0.41142 0.0
C181 C 0.13655 0.06631 0.4682 0.0
C182 C 0.19831 0.11302 0.38625 0.0
C183 C 0.16591 0.13147 0.32849 0.0
N184 N 0.15521 0.08107 0.44109 0.0
N185 N 0.14706 0.11505 0.35442 0.0
H186 H 0.3376 0.86356 0.7961 0.0
H187 H 0.38127 0.01593 0.95028 0.0
H188 H 0.37804 0.96351 0.77494 0.0
H189 H 0.39192 0.91695 0.96765 0.0
H190 H 0.36053 0.99539 0.88902 0.0
H191 H 0.33923 0.88192 0.86189 0.0
C192 C 0.34602 0.88946 0.80532 0.0
C193 C 0.35779 0.91213 0.78028 0.0
C194 C 0.36685 0.97809 0.90647 0.0
C195 C 0.35944 0.9331 0.8548 0.0
C196 C 0.37855 0.98972 0.94145 0.0
C197 C 0.3888 0.96812 0.96375 0.0
C198 C 0.36518 0.94459 0.89379 0.0
C199 C 0.38453 0.9344 0.95108 0.0
C200 C 0.34715 0.89981 0.84271 0.0
C201 C 0.36896 0.94528 0.79346 0.0
N202 N 0.37336 0.92363 0.91663 0.0
N203 N 0.36954 0.95478 0.82985 0.0
H204 H 0.58639 0.47841 0.8221 0.0
H205 H 0.57657 0.4573 0.60466 0.0
H206 H 0.61036 0.39338 0.75325 0.0
H207 H 0.53844 0.53572 0.673 0.0
H208 H 0.59072 0.43467 0.65899 0.0
H209 H 0.57045 0.50096 0.76806 0.0
C210 C 0.58831 0.46448 0.79564 0.0
C211 C 0.59976 0.43395 0.79221 0.0
C212 C 0.57917 0.45678 0.66217 0.0
C213 C 0.58161 0.45965 0.73027 0.0
C214 C 0.57109 0.46979 0.6311 0.0
C215 C 0.55627 0.49852 0.6342 0.0
C216 C 0.57263 0.47265 0.69676 0.0
C217 C 0.54976 0.51349 0.66927 0.0
C218 C 0.57914 0.47734 0.76481 0.0
C219 C 0.60167 0.41698 0.75723 0.0
N220 N 0.5581 0.50045 0.6992 0.0
N221 N 0.59278 0.43009 0.72767 0.0
H222 H 0.94777 0.58572 0.2868 0.0
H223 H 0.00713 0.58868 0.07763 0.0
H224 H 0.02891 0.65856 0.24726 0.0
H225 H 0.95007 0.50226 0.12102 0.0
H226 H 0.00305 0.62034 0.13725 0.0
H227 H 0.937 0.56069 0.22397 0.0
C228 C 0.96298 0.59674 0.26489 0.0
C229 C 0.98958 0.62403 0.27229 0.0
C230 C 0.99102 0.59456 0.13361 0.0
C231 C 0.97727 0.59564 0.20052 0.0
C232 C 0.9932 0.57651 0.09956 0.0
C233 C 0.97943 0.54267 0.09463 0.0
C234 C 0.97482 0.5787 0.16287 0.0
C235 C 0.96139 0.52823 0.12385 0.0
C236 C 0.95687 0.58238 0.22908 0.0
C237 C 0.00843 0.63731 0.24284 0.0
N238 N 0.95993 0.54625 0.15691 0.0
N239 N 0.00204 0.62288 0.20828 0.0
H240 H 0.3003 0.19365 0.22731 0.0
H241 H 0.36694 0.06612 0.07323 0.0
H242 H 0.29421 0.20151 0.11254 0.0
H243 H 0.41561 0.09412 0.17765 0.0
H244 H 0.32623 0.1042 0.09095 0.0
H245 H 0.32865 0.14529 0.2125 0.0
C246 C 0.30405 0.18463 0.199 0.0
C247 C 0.29477 0.20137 0.17104 0.0
C248 C 0.34556 0.10158 0.11008 0.0
C249 C 0.32723 0.1465 0.15405 0.0
C250 C 0.36863 0.07978 0.10013 0.0
C251 C 0.39483 0.07722 0.12393 0.0
C252 C 0.34834 0.12038 0.14431 0.0
C253 C 0.396 0.09565 0.15837 0.0
C254 C 0.32051 0.15731 0.19062 0.0
C255 C 0.30107 0.18924 0.13483 0.0
N256 N 0.37311 0.11652 0.16753 0.0
N257 N 0.31695 0.1625 0.12733 0.0
H258 H 0.18571 0.85528 0.69312 0.0
H259 H 0.07698 0.99845 0.67297 0.0
H260 H 0.19096 0.94294 0.76995 0.0
H261 H 0.10076 0.92808 0.58422 0.0
H262 H 0.10724 0.97139 0.71452 0.0
H263 H 0.14222 0.87443 0.65936 0.0
C264 C 0.1773 0.87827 0.7033 0.0
C265 C 0.19244 0.89781 0.73411 0.0
C266 C 0.10554 0.96175 0.686 0.0
C267 C 0.14278 0.91988 0.69542 0.0
C268 C 0.08831 0.97713 0.66235 0.0
C269 C 0.08691 0.96568 0.62512 0.0
C270 C 0.12099 0.93456 0.67229 0.0
C271 C 0.10172 0.93788 0.6127 0.0
C272 C 0.15259 0.88925 0.68387 0.0
C273 C 0.18031 0.92729 0.74608 0.0
N274 N 0.11828 0.92333 0.63621 0.0
N275 N 0.15642 0.93761 0.72649 0.0
H276 H 0.74231 0.36234 0.96167 0.0
H277 H 0.90952 0.49482 0.92792 0.0
H278 H 0.75298 0.42499 0.87505 0.0
H279 H 0.91347 0.41589 0.99333 0.0
H280 H 0.8518 0.46837 0.90858 0.0
H281 H 0.80431 0.37972 0.97383 0.0
C282 C 0.75773 0.37907 0.94462 0.0
C283 C 0.74238 0.39203 0.9171 0.0
C284 C 0.86522 0.45653 0.92692 0.0
C285 C 0.81304 0.41267 0.93155 0.0
C286 C 0.8982 0.47172 0.93811 0.0
C287 C 0.91614 0.45763 0.96249 0.0
C288 C 0.84953 0.42718 0.94066 0.0
C289 C 0.9004 0.4275 0.97447 0.0
C290 C 0.79311 0.38918 0.9518 0.0
C291 C 0.76357 0.4145 0.89671 0.0
N292 N 0.86765 0.41342 0.96382 0.0
N293 N 0.79763 0.42423 0.90451 0.0
H294 H 0.78993 0.6029 0.42335 0.0
H295 H 0.64988 0.60198 0.58689 0.0
H296 H 0.80976 0.65744 0.52949 0.0
H297 H 0.62537 0.55625 0.47791 0.0
H298 H 0.71018 0.61784 0.56755 0.0
H299 H 0.73105 0.58156 0.44388 0.0
C300 C 0.78195 0.61035 0.451 0.0
C301 C 0.80479 0.63212 0.4747 0.0
C302 C 0.69171 0.60422 0.54784 0.0
C303 C 0.73748 0.60767 0.49836 0.0
C304 C 0.6573 0.59508 0.5589 0.0
C305 C 0.63264 0.57806 0.53385 0.0
C306 C 0.70158 0.59626 0.51143 0.0
C307 C 0.64363 0.56955 0.498 0.0
C308 C 0.74832 0.59814 0.46268 0.0
C309 C 0.79303 0.64084 0.51022 0.0
N310 N 0.67732 0.57891 0.48777 0.0
N311 N 0.7602 0.62862 0.52093 0.0
H312 H 0.23551 0.35568 0.0742 0.0
H313 H 0.04423 0.39839 0.08302 0.0
H314 H 0.15763 0.32213 0.15364 0.0
H315 H 0.1193 0.42484 0.99838 0.0
H316 H 0.08369 0.36633 0.10633 0.0
H317 H 0.19193 0.37738 0.04323 0.0
C318 C 0.20918 0.35263 0.08498 0.0
C319 C 0.20028 0.33731 0.11675 0.0
C320 C 0.09141 0.37882 0.08242 0.0
C321 C 0.15026 0.36227 0.08152 0.0
C322 C 0.06886 0.39706 0.06909 0.0
C323 C 0.0787 0.41438 0.03892 0.0
C324 C 0.12411 0.37817 0.0656 0.0
C325 C 0.11083 0.41188 0.02181 0.0
C326 C 0.18428 0.36501 0.06725 0.0
C327 C 0.1657 0.33391 0.12934 0.0
N328 N 0.13257 0.39439 0.03561 0.0
N329 N 0.14203 0.34657 0.11188 0.0
H330 H 0.66302 0.20514 0.95443 0.0
H331 H 0.52298 0.11533 0.0901 0.0
H332 H 0.62898 0.25343 0.05588 0.0
H333 H 0.54825 0.0715 0.983 0.0
H334 H 0.56752 0.16358 0.08183 0.0
H335 H 0.6273 0.1534 0.9685 0.0
C336 C 0.64835 0.20481 0.97987 0.0
C337 C 0.64871 0.2338 0.00383 0.0
C338 C 0.56346 0.14334 0.06021 0.0
C339 C 0.60756 0.17462 0.01998 0.0
C340 C 0.53808 0.11583 0.06493 0.0
C341 C 0.53179 0.08965 0.03701 0.0
C342 C 0.58265 0.1446 0.02733 0.0
C343 C 0.55214 0.09136 0.00505 0.0
C344 C 0.62786 0.17525 0.98782 0.0
C345 C 0.62928 0.23179 0.03645 0.0
N346 N 0.57653 0.11847 0.00098 0.0
N347 N 0.60928 0.20278 0.04343 0.0
H348 H 0.95223 0.7319 0.49261 0.0
H349 H 0.00316 0.92522 0.47431 0.0
H350 H 8e-05 0.7728 0.39718 0.0
H351 H 0.97172 0.88672 0.57636 0.0
H352 H 0.99263 0.86928 0.44351 0.0
H353 H 0.94971 0.78797 0.52123 0.0
C354 C 0.96136 0.75258 0.47731 0.0
C355 C 0.97611 0.7477 0.44233 0.0
C356 C 0.9878 0.873 0.47261 0.0
C357 C 0.97401 0.81181 0.47515 0.0
C358 C 0.9938 0.90503 0.4903 0.0
C359 C 0.98873 0.91075 0.52814 0.0
C360 C 0.9767 0.84626 0.49279 0.0
C361 C 0.97618 0.88349 0.54719 0.0
C362 C 0.9603 0.7846 0.49384 0.0
C363 C 0.98857 0.77548 0.42423 0.0
N364 N 0.97087 0.85237 0.52935 0.0
N365 N 0.98733 0.80628 0.44086 0.0
H366 H 0.48132 0.82429 0.65172 0.0
H367 H 0.43184 0.63056 0.58998 0.0
H368 H 0.37602 0.77452 0.63269 0.0
H369 H 0.53393 0.67949 0.62394 0.0
H370 H 0.41018 0.6825 0.60668 0.0
H371 H 0.5007 0.77106 0.64217 0.0
C372 C 0.46225 0.80215 0.64556 0.0
C373 C 0.42702 0.80387 0.64283 0.0
C374 C 0.43724 0.68178 0.61078 0.0
C375 C 0.44905 0.74274 0.63182 0.0
C376 C 0.44956 0.65217 0.60133 0.0
C377 C 0.4847 0.65091 0.60548 0.0
C378 C 0.46036 0.71025 0.62421 0.0
C379 C 0.50665 0.6795 0.62023 0.0
C380 C 0.47332 0.77172 0.64022 0.0
C381 C 0.40345 0.77433 0.63497 0.0
N382 N 0.49418 0.70806 0.6288 0.0
N383 N 0.41492 0.74496 0.62953 0.0
H384 H 0.86549 0.81254 0.79278 0.0
H385 H 0.90629 0.98501 0.71109 0.0
H386 H 0.79896 0.88573 0.81165 0.0
H387 H 0.9787 0.91727 0.707 0.0
H388 H 0.86832 0.95115 0.75146 0.0
H389 H 0.90862 0.85216 0.7644 0.0
C390 C 0.86009 0.83712 0.79121 0.0
C391 C 0.82862 0.8459 0.80466 0.0
C392 C 0.8927 0.94389 0.74213 0.0
C393 C 0.87786 0.89143 0.77185 0.0
C394 C 0.91438 0.96321 0.71912 0.0
C395 C 0.94548 0.9537 0.70556 0.0
C396 C 0.9021 0.91471 0.75129 0.0
C397 C 0.95483 0.92535 0.71678 0.0
C398 C 0.88481 0.85979 0.77511 0.0
C399 C 0.82307 0.87811 0.80212 0.0
N400 N 0.93303 0.90664 0.73869 0.0
N401 N 0.84732 0.89964 0.78562 0.0
H402 H 0.63248 0.14858 0.37231 0.0
H403 H 0.61566 0.08689 0.16022 0.0
H404 H 0.69864 0.08766 0.31201 0.0
H405 H 0.53287 0.11759 0.22864 0.0
H406 H 0.65552 0.10456 0.21106 0.0
H407 H 0.60577 0.15466 0.31528 0.0
C408 C 0.64227 0.13751 0.34692 0.0
C409 C 0.66785 0.1177 0.34672 0.0
C410 C 0.62879 0.10806 0.21466 0.0
C411 C 0.63693 0.12383 0.28173 0.0
C412 C 0.60611 0.09812 0.18567 0.0
C413 C 0.5709 0.10028 0.19063 0.0
C414 C 0.61607 0.12038 0.24858 0.0
C415 C 0.55979 0.11509 0.224 0.0
C416 C 0.62675 0.14066 0.31446 0.0
C417 C 0.67882 0.103 0.31322 0.0
N418 N 0.58223 0.12421 0.25193 0.0
N419 N 0.66306 0.1061 0.28204 0.0
H420 H 0.44399 0.65523 0.30158 0.0
H421 H 0.56373 0.5625 0.4076 0.0
H422 H 0.54771 0.6441 0.26509 0.0
H423 H 0.47969 0.60563 0.46072 0.0
H424 H 0.55525 0.58777 0.35283 0.0
H425 H 0.45377 0.63308 0.35818 0.0
C426 C 0.46886 0.64826 0.30553 0.0
C427 C 0.49507 0.65149 0.27856 0.0
C428 C 0.53875 0.59179 0.37652 0.0
C429 C 0.50622 0.62578 0.34297 0.0
C430 C 0.54344 0.57723 0.40774 0.0
C431 C 0.52235 0.58193 0.43879 0.0
C432 C 0.51244 0.61079 0.3761 0.0
C433 C 0.4966 0.60144 0.43744 0.0
C434 C 0.47443 0.6357 0.33785 0.0
C435 C 0.52681 0.64212 0.28517 0.0
N436 N 0.4922 0.61498 0.40651 0.0
N437 N 0.53139 0.62942 0.31656 0.0
H438 H 0.17013 0.43219 0.7616 0.0
H439 H 0.10981 0.52206 0.91665 0.0
H440 H 0.07591 0.45498 0.72224 0.0
H441 H 0.01184 0.45881 0.89205 0.0
H442 H 0.13501 0.49683 0.86075 0.0
H443 H 0.148 0.442 0.82455 0.0
C444 C 0.14452 0.43854 0.76626 0.0
C445 C 0.12481 0.44308 0.737 0.0
C446 C 0.10825 0.48795 0.86813 0.0
C447 C 0.09946 0.45371 0.80805 0.0
C448 C 0.09388 0.50239 0.89975 0.0
C449 C 0.05889 0.49228 0.90873 0.0
C450 C 0.08703 0.46415 0.84489 0.0
C451 C 0.03906 0.46696 0.88601 0.0
C452 C 0.13208 0.44424 0.80197 0.0
C453 C 0.09192 0.45155 0.74424 0.0
N454 N 0.05319 0.45432 0.85445 0.0
N455 N 0.08018 0.45655 0.77914 0.0
H456 H 0.71969 0.94965 0.9536 0.0
H457 H 0.52154 0.92842 0.02061 0.0
H458 H 0.64625 0.85881 0.93439 0.0
H459 H 0.59803 0.01306 0.05791 0.0
H460 H 0.56731 0.90279 0.9888 0.0
H461 H 0.67589 0.97386 0.99158 0.0
C462 C 0.69443 0.93478 0.95742 0.0
C463 C 0.68658 0.9022 0.94065 0.0
C464 C 0.57419 0.92687 0.00415 0.0
C465 C 0.63644 0.92971 0.98393 0.0
C466 C 0.54803 0.94155 0.02231 0.0
C467 C 0.55594 0.973 0.04183 0.0
C468 C 0.60856 0.94386 0.00512 0.0
C469 C 0.59077 0.98873 0.04325 0.0
C470 C 0.66949 0.94857 0.97918 0.0
C471 C 0.65347 0.88404 0.94667 0.0
N472 N 0.61579 0.97412 0.02483 0.0
N473 N 0.62962 0.89809 0.96762 0.0
H474 H 0.80312 0.11174 0.49796 0.0
H475 H 0.95398 0.00514 0.50273 0.0
H476 H 0.80448 0.01885 0.43174 0.0
H477 H 0.93486 0.08165 0.58678 0.0
H478 H 0.90839 0.01867 0.46633 0.0
H479 H 0.86041 0.10947 0.52033 0.0
C480 C 0.81565 0.09109 0.48774 0.0
C481 C 0.79875 0.06514 0.46344 0.0
C482 C 0.9146 0.03281 0.4925 0.0
C483 C 0.86425 0.06243 0.48895 0.0
C484 C 0.94064 0.02521 0.51314 0.0
C485 C 0.94759 0.04199 0.54796 0.0
C486 C 0.89581 0.05752 0.50677 0.0
C487 C 0.92979 0.06783 0.56024 0.0
C488 C 0.84833 0.0898 0.50056 0.0
C489 C 0.81638 0.03914 0.45087 0.0
N490 N 0.90446 0.07462 0.53982 0.0
N491 N 0.84805 0.03826 0.46408 0.0
H492 H 0.29298 0.63324 0.06532 0.0
H493 H 0.09013 0.62404 0.03679 0.0
H494 H 0.24031 0.71675 0.08909 0.0
H495 H 0.13864 0.53757 0.0308 0.0
H496 H 0.14558 0.65854 0.05311 0.0
H497 H 0.23747 0.59816 0.04933 0.0
C498 C 0.26977 0.64426 0.06703 0.0
C499 C 0.27132 0.67803 0.07857 0.0
C500 C 0.14413 0.63203 0.04834 0.0
C501 C 0.20767 0.63793 0.06033 0.0
C502 C 0.11244 0.61224 0.03894 0.0
C503 C 0.1097 0.57779 0.03234 0.0
C504 C 0.1735 0.61738 0.05097 0.0
C505 C 0.13953 0.564 0.03572 0.0
C506 C 0.23807 0.62415 0.05804 0.0
C507 C 0.24037 0.69086 0.0804 0.0
N508 N 0.17025 0.58387 0.04466 0.0
N509 N 0.20985 0.67081 0.07132 0.0
H510 H 0.2601 0.43007 0.56192 0.0
H511 H 0.4495 0.53491 0.59196 0.0
H512 H 0.27731 0.52606 0.62454 0.0
H513 H 0.42207 0.46811 0.49489 0.0
H514 H 0.38819 0.52694 0.61109 0.0
H515 H 0.32166 0.43809 0.54425 0.0
C516 C 0.27688 0.45271 0.57219 0.0
C517 C 0.26359 0.47749 0.59465 0.0
C518 C 0.39566 0.51415 0.58557 0.0
C519 C 0.33391 0.48666 0.57473 0.0
C520 C 0.43054 0.51872 0.57462 0.0
C521 C 0.44072 0.50236 0.54166 0.0
C522 C 0.37101 0.4925 0.56377 0.0
C523 C 0.41524 0.4813 0.52042 0.0
C524 C 0.31191 0.45733 0.56191 0.0
C525 C 0.28648 0.50641 0.60703 0.0
N526 N 0.38155 0.47678 0.53196 0.0
N527 N 0.32061 0.51016 0.59704 0.0
H528 H 0.83779 0.66676 0.82872 0.0
H529 H 0.92359 0.62501 0.00565 0.0
H530 H 0.81708 0.71305 0.93621 0.0
H531 H 0.96567 0.60832 0.89687 0.0
H532 H 0.88143 0.65428 0.98185 0.0
H533 H 0.88089 0.64045 0.85432 0.0
C534 C 0.84212 0.67121 0.85777 0.0
C535 C 0.82384 0.69215 0.88037 0.0
C536 C 0.90014 0.64446 0.96333 0.0
C537 C 0.8733 0.66221 0.90983 0.0
C538 C 0.9242 0.6279 0.97687 0.0
C539 C 0.94802 0.61431 0.95312 0.0
C540 C 0.89975 0.64691 0.92577 0.0
C541 C 0.94772 0.6185 0.91608 0.0
C542 C 0.86693 0.65637 0.87233 0.0
C543 C 0.83066 0.69711 0.91781 0.0
N544 N 0.92374 0.63417 0.90348 0.0
N545 N 0.85484 0.68217 0.93143 0.0
H546 H 0.4216 0.7676 0.09614 0.0
H547 H 0.45746 0.9532 0.19322 0.0
H548 H 0.46298 0.7972 0.20371 0.0
H549 H 0.44236 0.9309 0.07749 0.0
H550 H 0.44658 0.8944 0.19949 0.0
H551 H 0.41756 0.82545 0.09079 0.0
C552 C 0.42917 0.78612 0.11888 0.0
C553 C 0.44249 0.77759 0.15052 0.0
C554 C 0.44527 0.90221 0.1727 0.0
C555 C 0.43815 0.84357 0.14447 0.0
C556 C 0.4513 0.93582 0.16913 0.0
C557 C 0.4511 0.94684 0.13476 0.0
C558 C 0.43923 0.87923 0.14161 0.0
C559 C 0.44276 0.9233 0.10448 0.0
C560 C 0.42712 0.81912 0.11567 0.0
C561 C 0.45269 0.80269 0.17879 0.0
N562 N 0.43756 0.89043 0.10852 0.0
N563 N 0.45032 0.83444 0.17508 0.0
H564 H 0.0523 0.2807 0.66162 0.0
H565 H 0.06689 0.09555 0.68974 0.0
H566 H 0.13181 0.26024 0.72904 0.0
H567 H 0.03186 0.12469 0.59117 0.0
H568 H 0.08086 0.15439 0.71414 0.0
H569 H 0.03348 0.22158 0.6461 0.0
C570 C 0.06562 0.2638 0.6735 0.0
C571 C 0.09398 0.27549 0.69633 0.0
C572 C 0.07 0.14767 0.68725 0.0
C573 C 0.07236 0.20763 0.67866 0.0
C574 C 0.06195 0.11428 0.67343 0.0
C575 C 0.04853 0.10541 0.63831 0.0
C576 C 0.06364 0.17197 0.66608 0.0
C577 C 0.04259 0.13049 0.61819 0.0
C578 C 0.0549 0.23003 0.66449 0.0
C579 C 0.11004 0.25227 0.71103 0.0
N580 N 0.05002 0.16256 0.63241 0.0
N581 N 0.09908 0.21932 0.70183 0.0
H582 H 0.6821 0.29221 0.44824 0.0
H583 H 0.54563 0.41089 0.42627 0.0
H584 H 0.59708 0.26772 0.37336 0.0
H585 H 0.6339 0.43821 0.49649 0.0
H586 H 0.56621 0.35969 0.40379 0.0
H587 H 0.667 0.34702 0.46366 0.0
C588 C 0.66037 0.2984 0.43487 0.0
C589 C 0.64066 0.27522 0.40965 0.0
C590 C 0.58127 0.37695 0.4239 0.0
C591 C 0.62318 0.33794 0.4273 0.0
C592 C 0.56954 0.40618 0.4367 0.0
C593 C 0.58805 0.42863 0.46336 0.0
C594 C 0.61164 0.37003 0.43806 0.0
C595 C 0.61887 0.42144 0.47595 0.0
C596 C 0.65178 0.32973 0.44368 0.0
C597 C 0.61291 0.28471 0.39308 0.0
N598 N 0.62958 0.39261 0.46339 0.0
N599 N 0.60486 0.31525 0.40238 0.0
loop_
_geom_bond_atom_site_label_1
_geom_bond_atom_site_label_2
_geom_bond_distance
_geom_bond_site_symmetry_2
_ccdc_geom_bond_type
O0 Cd1 2.300 . S
O0 C7 1.275 . S
Cd1 O0 2.300 . S
Cd1 O9 2.381 . S
Cd1 O10 2.378 . S
O2 Cd3 2.385 . S
O2 C7 1.255 . S
Cd3 O2 2.385 . S
Cd3 O4 2.317 . S
O4 Cd3 2.317 . S
O4 C5 1.232 . S
C5 O4 1.232 . S
C5 O6 1.218 . S
O6 C5 1.218 . S
C7 O0 1.275 . S
C7 O2 1.255 . S
C8 O9 1.258 . S
C8 O10 1.256 . S
O9 Cd1 2.381 . S
O9 C8 1.258 . S
O10 Cd1 2.378 . S
O10 C8 1.256 . S
O11 Cd12 2.300 . S
O11 C18 1.275 . S
Cd12 O11 2.300 . S
Cd12 O20 2.381 . S
Cd12 O21 2.378 . S
O13 Cd14 2.385 . S
O13 C18 1.255 . S
Cd14 O13 2.385 . S
Cd14 O15 2.317 . S
O15 Cd14 2.317 . S
O15 C16 1.232 . S
C16 O15 1.232 . S
C16 O17 1.218 . S
O17 C16 1.218 . S
C18 O11 1.275 . S
C18 O13 1.255 . S
C19 O20 1.258 . S
C19 O21 1.256 . S
O20 Cd12 2.381 . S
O20 C19 1.258 . S
O21 Cd12 2.378 . S
O21 C19 1.256 . S
O22 Cd23 2.300 . S
O22 C29 1.275 . S
Cd23 O22 2.300 . S
Cd23 O31 2.381 . S
Cd23 O32 2.378 . S
O24 Cd25 2.385 . S
O24 C29 1.255 . S
Cd25 O24 2.385 . S
Cd25 O26 2.317 . S
O26 Cd25 2.317 . S
O26 C27 1.232 . S
C27 O26 1.232 . S
C27 O28 1.218 . S
O28 C27 1.218 . S
C29 O22 1.275 . S
C29 O24 1.255 . S
C30 O31 1.258 . S
C30 O32 1.256 . S
O31 Cd23 2.381 . S
O31 C30 1.258 . S
O32 Cd23 2.378 . S
O32 C30 1.256 . S
O33 Cd34 2.300 . S
O33 C40 1.275 . S
Cd34 O33 2.300 . S
Cd34 O42 2.381 . S
Cd34 O43 2.378 . S
O35 Cd36 2.385 . S
O35 C40 1.255 . S
Cd36 O35 2.385 . S
Cd36 O37 2.317 . S
O37 Cd36 2.317 . S
O37 C38 1.232 . S
C38 O37 1.232 . S
C38 O39 1.218 . S
O39 C38 1.218 . S
C40 O33 1.275 . S
C40 O35 1.255 . S
C41 O42 1.258 . S
C41 O43 1.256 . S
O42 Cd34 2.381 . S
O42 C41 1.258 . S
O43 Cd34 2.378 . S
O43 C41 1.256 . S
O44 Cd45 2.300 . S
O44 C51 1.275 . S
Cd45 O44 2.300 . S
Cd45 O53 2.381 . S
Cd45 O54 2.378 . S
O46 Cd47 2.385 . S
O46 C51 1.255 . S
Cd47 O46 2.385 . S
Cd47 O48 2.317 . S
O48 Cd47 2.317 . S
O48 C49 1.232 . S
C49 O48 1.232 . S
C49 O50 1.218 . S
O50 C49 1.218 . S
C51 O44 1.275 . S
C51 O46 1.255 . S
C52 O53 1.258 . S
C52 O54 1.256 . S
O53 Cd45 2.381 . S
O53 C52 1.258 . S
O54 Cd45 2.378 . S
O54 C52 1.256 . S
O55 Cd56 2.300 . S
O55 C62 1.275 . S
Cd56 O55 2.300 . S
Cd56 O64 2.381 . S
Cd56 O65 2.378 . S
O57 Cd58 2.385 . S
O57 C62 1.255 . S
Cd58 O57 2.385 . S
Cd58 O59 2.317 . S
O59 Cd58 2.317 . S
O59 C60 1.232 . S
C60 O59 1.232 . S
C60 O61 1.218 . S
O61 C60 1.218 . S
C62 O55 1.275 . S
C62 O57 1.255 . S
C63 O64 1.258 . S
C63 O65 1.256 . S
O64 Cd56 2.381 . S
O64 C63 1.258 . S
O65 Cd56 2.378 . S
O65 C63 1.256 . S
O66 Cd67 2.300 . S
O66 C73 1.275 . S
Cd67 O66 2.300 . S
Cd67 O75 2.381 . S
Cd67 O76 2.378 . S
O68 Cd69 2.385 . S
O68 C73 1.255 . S
Cd69 O68 2.385 . S
Cd69 O70 2.317 . S
O70 Cd69 2.317 . S
O70 C71 1.232 . S
C71 O70 1.232 . S
C71 O72 1.218 . S
O72 C71 1.218 . S
C73 O66 1.275 . S
C73 O68 1.255 . S
C74 O75 1.258 . S
C74 O76 1.256 . S
O75 Cd67 2.381 . S
O75 C74 1.258 . S
O76 Cd67 2.378 . S
O76 C74 1.256 . S
O77 Cd78 2.300 . S
O77 C84 1.275 . S
Cd78 O77 2.300 . S
Cd78 O86 2.381 . S
Cd78 O87 2.378 . S
O79 Cd80 2.385 . S
O79 C84 1.255 . S
Cd80 O79 2.385 . S
Cd80 O81 2.317 . S
O81 Cd80 2.317 . S
O81 C82 1.232 . S
C82 O81 1.232 . S
C82 O83 1.218 . S
O83 C82 1.218 . S
C84 O77 1.275 . S
C84 O79 1.255 . S
C85 O86 1.258 . S
C85 O87 1.256 . S
O86 Cd78 2.381 . S
O86 C85 1.258 . S
O87 Cd78 2.378 . S
O87 C85 1.256 . S
Dy88 O92 2.398 . S
Dy88 O93 2.491 . S
Dy88 O94 2.389 1_545 S
Dy88 O95 2.664 1_545 S
Dy88 O99 2.326 . S
Dy88 O103 2.310 1_455 S
Dy88 O104 2.351 1_545 S
C89 O100 1.185 . S
C89 O101 1.355 . S
C90 O92 1.185 . S
C90 O93 1.355 . S
Dy91 O95 2.310 1_645 S
Dy91 O98 2.351 1_655 S
Dy91 O100 2.398 1_545 S
Dy91 O101 2.491 1_545 S
Dy91 O102 2.403 . S
Dy91 O103 2.664 . S
Dy91 O105 2.326 1_545 S
O92 Dy88 2.398 . S
O92 C90 1.185 . S
O93 Dy88 2.491 . S
O93 C90 1.355 . S
O94 Dy88 2.389 1_565 S
O94 C96 1.264 . S
O95 Dy88 2.664 1_565 S
O95 Dy91 2.310 1_465 S
O95 C96 1.268 . S
C96 O94 1.264 . S
C96 O95 1.268 . S
C97 O102 1.254 . S
C97 O103 1.268 . S
O98 Dy91 2.351 1_455 S
O98 C106 1.249 . S
O99 Dy88 2.326 . S
O99 C106 1.267 . S
O100 C89 1.185 . S
O100 Dy91 2.398 1_565 S
O101 C89 1.355 . S
O101 Dy91 2.491 1_565 S
O102 Dy91 2.403 . S
O102 C97 1.254 . S
O103 Dy88 2.310 1_655 S
O103 Dy91 2.664 . S
O103 C97 1.268 . S
O104 Dy88 2.351 1_565 S
O104 C107 1.249 1_455 S
O105 Dy91 2.326 1_565 S
O105 C107 1.267 . S
C106 O98 1.249 . S
C106 O99 1.267 . S
C107 O104 1.249 1_655 S
C107 O105 1.267 . S
Dy108 O112 2.398 . S
Dy108 O113 2.491 . S
Dy108 O114 2.403 1_545 S
Dy108 O115 2.664 1_545 S
Dy108 O119 2.326 . S
Dy108 O123 2.310 . S
Dy108 O124 2.351 . S
C109 O120 1.185 1_565 S
C109 O121 1.355 . S
C110 O112 1.185 . S
C110 O113 1.355 . S
Dy111 O115 2.310 1_545 S
Dy111 O118 2.351 . S
Dy111 O120 2.398 1_554 S
Dy111 O121 2.491 1_544 S
Dy111 O122 2.407 . S
Dy111 O123 2.664 . S
Dy111 O125 2.329 . S
O112 Dy108 2.398 . S
O112 C110 1.185 . S
O113 Dy108 2.491 . S
O113 C110 1.355 . S
O114 Dy108 2.403 1_565 S
O114 C116 1.254 . S
O115 Dy108 2.664 1_565 S
O115 Dy111 2.310 1_565 S
O115 C116 1.268 . S
C116 O114 1.254 . S
C116 O115 1.268 . S
C117 O122 1.264 . S
C117 O123 1.268 . S
O118 Dy111 2.351 . S
O118 C126 1.249 . S
O119 Dy108 2.326 . S
O119 C126 1.267 . S
O120 C109 1.185 1_545 S
O120 Dy111 2.398 1_556 S
O121 C109 1.355 . S
O121 Dy111 2.491 1_566 S
O122 Dy111 2.407 . S
O122 C117 1.264 . S
O123 Dy108 2.310 . S
O123 Dy111 2.664 . S
O123 C117 1.268 . S
O124 Dy108 2.351 . S
O124 C127 1.249 1_545 S
O125 Dy111 2.329 . S
O125 C127 1.273 1_545 S
C126 O118 1.249 . S
C126 O119 1.267 . S
C127 O124 1.249 1_565 S
C127 O125 1.273 1_565 S
Dy128 O132 2.398 . S
Dy128 O133 2.491 . S
Dy128 O134 2.403 . S
Dy128 O135 2.664 . S
Dy128 O139 2.326 . S
Dy128 O143 2.310 . S
Dy128 O144 2.351 . S
C129 O140 1.185 . S
C129 O141 1.355 . S
C130 O132 1.185 . S
C130 O133 1.355 . S
Dy131 O135 2.310 . S
Dy131 O138 2.351 . S
Dy131 O140 2.398 . S
Dy131 O141 2.491 . S
Dy131 O142 2.403 . S
Dy131 O143 2.664 . S
Dy131 O145 2.326 . S
O132 Dy128 2.398 . S
O132 C130 1.185 . S
O133 Dy128 2.491 . S
O133 C130 1.355 . S
O134 Dy128 2.403 . S
O134 C136 1.254 . S
O135 Dy128 2.664 . S
O135 Dy131 2.310 . S
O135 C136 1.268 . S
C136 O134 1.254 . S
C136 O135 1.268 . S
C137 O142 1.254 . S
C137 O143 1.268 . S
O138 Dy131 2.351 . S
O138 C146 1.249 . S
O139 Dy128 2.326 . S
O139 C146 1.267 . S
O140 C129 1.185 . S
O140 Dy131 2.398 . S
O141 C129 1.355 . S
O141 Dy131 2.491 . S
O142 Dy131 2.403 . S
O142 C137 1.254 . S
O143 Dy128 2.310 . S
O143 Dy131 2.664 . S
O143 C137 1.268 . S
O144 Dy128 2.351 . S
O144 C147 1.249 . S
O145 Dy131 2.326 . S
O145 C147 1.267 . S
C146 O138 1.249 . S
C146 O139 1.267 . S
C147 O144 1.249 . S
C147 O145 1.267 . S
Dy148 O152 2.398 . S
Dy148 O153 2.491 . S
Dy148 O154 2.403 . S
Dy148 O155 2.664 . S
Dy148 O159 2.326 . S
Dy148 O163 2.310 1_554 S
Dy148 O164 2.351 1_455 S
C149 O160 1.185 . S
C149 O161 1.355 . S
C150 O152 1.185 . S
C150 O153 1.355 . S
Dy151 O155 2.310 1_556 S
Dy151 O158 2.351 1_556 S
Dy151 O160 2.398 1_455 S
Dy151 O161 2.491 1_455 S
Dy151 O162 2.403 . S
Dy151 O163 2.664 . S
Dy151 O165 2.326 1_455 S
O152 Dy148 2.398 . S
O152 C150 1.185 . S
O153 Dy148 2.491 . S
O153 C150 1.355 . S
O154 Dy148 2.403 . S
O154 C156 1.254 1_455 S
O155 Dy148 2.664 . S
O155 Dy151 2.310 1_554 S
O155 C156 1.268 1_455 S
C156 O154 1.254 1_655 S
C156 O155 1.268 1_655 S
C157 O162 1.254 . S
C157 O163 1.268 . S
O158 Dy151 2.351 1_554 S
O158 C166 1.249 . S
O159 Dy148 2.326 . S
O159 C166 1.267 . S
O160 C149 1.185 . S
O160 Dy151 2.398 1_655 S
O161 C149 1.355 . S
O161 Dy151 2.491 1_655 S
O162 Dy151 2.403 . S
O162 C157 1.254 . S
O163 Dy148 2.310 1_556 S
O163 Dy151 2.664 . S
O163 C157 1.268 . S
O164 Dy148 2.351 1_655 S
O164 C167 1.249 1_554 S
O165 Dy151 2.326 1_655 S
O165 C167 1.267 . S
C166 O158 1.249 . S
C166 O159 1.267 . S
C167 O164 1.249 1_556 S
C167 O165 1.267 . S
H168 C174 0.930 . S
H169 C178 0.930 . S
H170 C183 0.929 . S
H171 C181 0.929 . S
H172 C176 0.929 . S
H173 C182 0.929 . S
C174 H168 0.930 . S
C174 C175 1.367 . S
C174 C182 1.378 . S
C175 C174 1.367 . S
C175 C183 1.433 . S
C176 H172 0.929 . S
C176 C178 1.378 . S
C176 C180 1.350 . S
C177 C180 1.463 . S
C177 C182 1.350 . S
C177 N185 1.427 . S
C178 H169 0.930 . S
C178 C176 1.378 . S
C178 C179 1.367 . S
C179 C178 1.367 . S
C179 C181 1.433 . S
C180 C176 1.350 . S
C180 C177 1.463 . S
C180 N184 1.427 . S
C181 H171 0.929 . S
C181 C179 1.433 . S
C181 N184 1.384 . S
C182 H173 0.929 . S
C182 C174 1.378 . S
C182 C177 1.350 . S
C183 H170 0.929 . S
C183 C175 1.433 . S
C183 N185 1.384 . S
N184 C180 1.427 . S
N184 C181 1.384 . S
N185 C177 1.427 . S
N185 C183 1.384 . S
H186 C192 0.930 . S
H187 C196 0.930 1_545 S
H188 C201 0.929 . S
H189 C199 0.929 . S
H190 C194 0.929 . S
H191 C200 0.929 . S
C192 H186 0.930 . S
C192 C193 1.367 . S
C192 C200 1.378 . S
C193 C192 1.367 . S
C193 C201 1.433 . S
C194 H190 0.929 . S
C194 C196 1.378 . S
C194 C198 1.350 . S
C195 C198 1.463 . S
C195 C200 1.350 . S
C195 N203 1.427 . S
C196 H187 0.930 1_565 S
C196 C194 1.378 . S
C196 C197 1.367 . S
C197 C196 1.367 . S
C197 C199 1.433 . S
C198 C194 1.350 . S
C198 C195 1.463 . S
C198 N202 1.427 . S
C199 H189 0.929 . S
C199 C197 1.433 . S
C199 N202 1.384 . S
C200 H191 0.929 . S
C200 C192 1.378 . S
C200 C195 1.350 . S
C201 H188 0.929 . S
C201 C193 1.433 . S
C201 N203 1.384 . S
N202 C198 1.427 . S
N202 C199 1.384 . S
N203 C195 1.427 . S
N203 C201 1.384 . S
H204 C210 0.930 . S
H205 C214 0.930 . S
H206 C219 0.929 . S
H207 C217 0.929 . S
H208 C212 0.929 . S
H209 C218 0.929 . S
C210 H204 0.930 . S
C210 C211 1.367 . S
C210 C218 1.378 . S
C211 C210 1.367 . S
C211 C219 1.433 . S
C212 H208 0.929 . S
C212 C214 1.378 . S
C212 C216 1.350 . S
C213 C216 1.463 . S
C213 C218 1.350 . S
C213 N221 1.427 . S
C214 H205 0.930 . S
C214 C212 1.378 . S
C214 C215 1.367 . S
C215 C214 1.367 . S
C215 C217 1.433 . S
C216 C212 1.350 . S
C216 C213 1.463 . S
C216 N220 1.427 . S
C217 H207 0.929 . S
C217 C215 1.433 . S
C217 N220 1.384 . S
C218 H209 0.929 . S
C218 C210 1.378 . S
C218 C213 1.350 . S
C219 H206 0.929 . S
C219 C211 1.433 . S
C219 N221 1.384 . S
N220 C216 1.427 . S
N220 C217 1.384 . S
N221 C213 1.427 . S
N221 C219 1.384 . S
H222 C228 0.930 . S
H223 C232 0.930 . S
H224 C237 0.929 . S
H225 C235 0.929 . S
H226 C230 0.929 . S
H227 C236 0.929 . S
C228 H222 0.930 . S
C228 C229 1.367 . S
C228 C236 1.378 . S
C229 C228 1.367 . S
C229 C237 1.433 . S
C230 H226 0.929 . S
C230 C232 1.378 . S
C230 C234 1.350 1_455 S
C231 C234 1.463 . S
C231 C236 1.350 . S
C231 N239 1.427 . S
C232 H223 0.930 . S
C232 C230 1.378 . S
C232 C233 1.367 1_455 S
C233 C232 1.367 1_655 S
C233 C235 1.433 . S
C234 C230 1.350 1_655 S
C234 C231 1.463 . S
C234 N238 1.427 . S
C235 H225 0.929 . S
C235 C233 1.433 . S
C235 N238 1.384 . S
C236 H227 0.929 . S
C236 C228 1.378 . S
C236 C231 1.350 . S
C237 H224 0.929 . S
C237 C229 1.433 . S
C237 N239 1.384 . S
N238 C234 1.427 . S
N238 C235 1.384 . S
N239 C231 1.427 . S
N239 C237 1.384 . S
H240 C246 0.930 . S
H241 C250 0.930 . S
H242 C255 0.929 . S
H243 C253 0.929 . S
H244 C248 0.929 . S
H245 C254 0.929 . S
C246 H240 0.930 . S
C246 C247 1.367 . S
C246 C254 1.378 . S
C247 C246 1.367 . S
C247 C255 1.433 . S
C248 H244 0.929 . S
C248 C250 1.378 . S
C248 C252 1.350 . S
C249 C252 1.463 . S
C249 C254 1.350 . S
C249 N257 1.427 . S
C250 H241 0.930 . S
C250 C248 1.378 . S
C250 C251 1.367 . S
C251 C250 1.367 . S
C251 C253 1.433 . S
C252 C248 1.350 . S
C252 C249 1.463 . S
C252 N256 1.427 . S
C253 H243 0.929 . S
C253 C251 1.433 . S
C253 N256 1.384 . S
C254 H245 0.929 . S
C254 C246 1.378 . S
C254 C249 1.350 . S
C255 H242 0.929 . S
C255 C247 1.433 . S
C255 N257 1.384 . S
N256 C252 1.427 . S
N256 C253 1.384 . S
N257 C249 1.427 . S
N257 C255 1.384 . S
H258 C264 0.930 . S
H259 C268 0.930 . S
H260 C273 0.929 . S
H261 C271 0.929 . S
H262 C266 0.929 . S
H263 C272 0.929 . S
C264 H258 0.930 . S
C264 C265 1.367 . S
C264 C272 1.378 . S
C265 C264 1.367 . S
C265 C273 1.433 . S
C266 H262 0.929 . S
C266 C268 1.378 . S
C266 C270 1.350 . S
C267 C270 1.463 . S
C267 C272 1.350 . S
C267 N275 1.427 . S
C268 H259 0.930 . S
C268 C266 1.378 . S
C268 C269 1.367 . S
C269 C268 1.367 . S
C269 C271 1.433 . S
C270 C266 1.350 . S
C270 C267 1.463 . S
C270 N274 1.427 . S
C271 H261 0.929 . S
C271 C269 1.433 . S
C271 N274 1.384 . S
C272 H263 0.929 . S
C272 C264 1.378 . S
C272 C267 1.350 . S
C273 H260 0.929 . S
C273 C265 1.433 . S
C273 N275 1.384 . S
N274 C270 1.427 . S
N274 C271 1.384 . S
N275 C267 1.427 . S
N275 C273 1.384 . S
H276 C282 0.930 . S
H277 C286 0.930 . S
H278 C291 0.929 . S
H279 C289 0.910 1_554 S
H280 C284 0.929 . S
H281 C290 0.929 . S
C282 H276 0.930 . S
C282 C283 1.367 . S
C282 C290 1.378 . S
C283 C282 1.367 . S
C283 C291 1.433 . S
C284 H280 0.929 . S
C284 C286 1.378 . S
C284 C288 1.350 . S
C285 C288 1.463 . S
C285 C290 1.350 . S
C285 N293 1.427 . S
C286 H277 0.930 . S
C286 C284 1.378 . S
C286 C287 1.367 . S
C287 C286 1.367 . S
C287 C289 1.447 . S
C288 C284 1.350 . S
C288 C285 1.463 . S
C288 N292 1.427 . S
C289 H279 0.910 1_556 S
C289 C287 1.447 . S
C289 N292 1.390 . S
C290 H281 0.929 . S
C290 C282 1.378 . S
C290 C285 1.350 . S
C291 H278 0.929 . S
C291 C283 1.433 . S
C291 N293 1.384 . S
N292 C288 1.427 . S
N292 C289 1.390 . S
N293 C285 1.427 . S
N293 C291 1.384 . S
H294 C300 0.930 . S
H295 C304 0.930 . S
H296 C309 0.929 . S
H297 C307 0.929 . S
H298 C302 0.929 . S
H299 C308 0.929 . S
C300 H294 0.930 . S
C300 C301 1.367 . S
C300 C308 1.378 . S
C301 C300 1.367 . S
C301 C309 1.433 . S
C302 H298 0.929 . S
C302 C304 1.378 . S
C302 C306 1.350 . S
C303 C306 1.463 . S
C303 C308 1.350 . S
C303 N311 1.427 . S
C304 H295 0.930 . S
C304 C302 1.378 . S
C304 C305 1.367 . S
C305 C304 1.367 . S
C305 C307 1.433 . S
C306 C302 1.350 . S
C306 C303 1.463 . S
C306 N310 1.427 . S
C307 H297 0.929 . S
C307 C305 1.433 . S
C307 N310 1.384 . S
C308 H299 0.929 . S
C308 C300 1.378 . S
C308 C303 1.350 . S
C309 H296 0.929 . S
C309 C301 1.433 . S
C309 N311 1.384 . S
N310 C306 1.427 . S
N310 C307 1.384 . S
N311 C303 1.427 . S
N311 C309 1.384 . S
H312 C318 0.930 . S
H313 C322 0.930 . S
H314 C327 0.929 . S
H315 C325 0.929 . S
H316 C320 0.929 . S
H317 C326 0.929 . S
C318 H312 0.930 . S
C318 C319 1.367 . S
C318 C326 1.378 . S
C319 C318 1.367 . S
C319 C327 1.433 . S
C320 H316 0.929 . S
C320 C322 1.378 . S
C320 C324 1.350 . S
C321 C324 1.463 . S
C321 C326 1.350 . S
C321 N329 1.427 . S
C322 H313 0.930 . S
C322 C320 1.378 . S
C322 C323 1.367 . S
C323 C322 1.367 . S
C323 C325 1.433 . S
C324 C320 1.350 . S
C324 C321 1.463 . S
C324 N328 1.427 . S
C325 H315 0.929 . S
C325 C323 1.433 . S
C325 N328 1.384 . S
C326 H317 0.929 . S
C326 C318 1.378 . S
C326 C321 1.350 . S
C327 H314 0.929 . S
C327 C319 1.433 . S
C327 N329 1.384 . S
N328 C324 1.427 . S
N328 C325 1.384 . S
N329 C321 1.427 . S
N329 C327 1.384 . S
H330 C336 0.930 . S
H331 C340 0.930 . S
H332 C345 0.929 . S
H333 C343 0.929 . S
H334 C338 0.929 . S
H335 C344 0.929 . S
C336 H330 0.930 . S
C336 C337 1.367 . S
C336 C344 1.378 . S
C337 C336 1.367 . S
C337 C345 1.433 . S
C338 H334 0.929 . S
C338 C340 1.378 . S
C338 C342 1.350 1_554 S
C339 C342 1.463 . S
C339 C344 1.350 . S
C339 N347 1.427 . S
C340 H331 0.930 . S
C340 C338 1.378 . S
C340 C341 1.367 . S
C341 C340 1.367 . S
C341 C343 1.433 1_554 S
C342 C338 1.350 1_556 S
C342 C339 1.463 . S
C342 N346 1.427 . S
C343 H333 0.929 . S
C343 C341 1.433 1_556 S
C343 N346 1.384 . S
C344 H335 0.929 . S
C344 C336 1.378 . S
C344 C339 1.350 . S
C345 H332 0.929 . S
C345 C337 1.433 . S
C345 N347 1.384 . S
N346 C342 1.427 . S
N346 C343 1.384 . S
N347 C339 1.427 . S
N347 C345 1.384 . S
H348 C354 0.930 . S
H349 C358 0.930 . S
H350 C363 0.929 . S
H351 C361 0.929 . S
H352 C356 0.929 . S
H353 C362 0.929 . S
C354 H348 0.930 . S
C354 C355 1.367 . S
C354 C362 1.378 . S
C355 C354 1.367 . S
C355 C363 1.433 . S
C356 H352 0.929 . S
C356 C358 1.378 . S
C356 C360 1.350 . S
C357 C360 1.463 . S
C357 C362 1.350 . S
C357 N365 1.427 . S
C358 H349 0.930 . S
C358 C356 1.378 . S
C358 C359 1.367 . S
C359 C358 1.367 . S
C359 C361 1.433 . S
C360 C356 1.350 . S
C360 C357 1.463 . S
C360 N364 1.427 . S
C361 H351 0.929 . S
C361 C359 1.433 . S
C361 N364 1.384 . S
C362 H353 0.929 . S
C362 C354 1.378 . S
C362 C357 1.350 . S
C363 H350 0.929 . S
C363 C355 1.433 . S
C363 N365 1.384 . S
N364 C360 1.427 . S
N364 C361 1.384 . S
N365 C357 1.427 . S
N365 C363 1.384 . S
H366 C372 0.930 . S
H367 C376 0.930 . S
H368 C381 0.929 . S
H369 C379 0.929 . S
H370 C374 0.929 . S
H371 C380 0.929 . S
C372 H366 0.930 . S
C372 C373 1.367 . S
C372 C380 1.378 . S
C373 C372 1.367 . S
C373 C381 1.433 . S
C374 H370 0.929 . S
C374 C376 1.378 . S
C374 C378 1.350 . S
C375 C378 1.463 . S
C375 C380 1.350 . S
C375 N383 1.427 . S
C376 H367 0.930 . S
C376 C374 1.378 . S
C376 C377 1.367 . S
C377 C376 1.367 . S
C377 C379 1.433 . S
C378 C374 1.350 . S
C378 C375 1.463 . S
C378 N382 1.427 . S
C379 H369 0.929 . S
C379 C377 1.433 . S
C379 N382 1.384 . S
C380 H371 0.929 . S
C380 C372 1.378 . S
C380 C375 1.350 . S
C381 H368 0.929 . S
C381 C373 1.433 . S
C381 N383 1.384 . S
N382 C378 1.427 . S
N382 C379 1.384 . S
N383 C375 1.427 . S
N383 C381 1.384 . S
H384 C390 0.930 . S
H385 C394 0.930 . S
H386 C399 0.929 . S
H387 C397 0.929 . S
H388 C392 0.929 . S
H389 C398 0.929 . S
C390 H384 0.930 . S
C390 C391 1.367 . S
C390 C398 1.378 . S
C391 C390 1.367 . S
C391 C399 1.433 . S
C392 H388 0.929 . S
C392 C394 1.378 . S
C392 C396 1.350 . S
C393 C396 1.463 . S
C393 C398 1.350 . S
C393 N401 1.427 . S
C394 H385 0.930 . S
C394 C392 1.378 . S
C394 C395 1.367 . S
C395 C394 1.367 . S
C395 C397 1.433 . S
C396 C392 1.350 . S
C396 C393 1.463 . S
C396 N400 1.427 . S
C397 H387 0.929 . S
C397 C395 1.433 . S
C397 N400 1.384 . S
C398 H389 0.929 . S
C398 C390 1.378 . S
C398 C393 1.350 . S
C399 H386 0.929 . S
C399 C391 1.433 . S
C399 N401 1.384 . S
N400 C396 1.427 . S
N400 C397 1.384 . S
N401 C393 1.427 . S
N401 C399 1.384 . S
H402 C408 0.930 . S
H403 C412 0.930 . S
H404 C417 0.929 . S
H405 C415 0.929 . S
H406 C410 0.929 . S
H407 C416 0.929 . S
C408 H402 0.930 . S
C408 C409 1.367 . S
C408 C416 1.378 . S
C409 C408 1.367 . S
C409 C417 1.433 . S
C410 H406 0.929 . S
C410 C412 1.378 . S
C410 C414 1.350 . S
C411 C414 1.463 . S
C411 C416 1.350 . S
C411 N419 1.427 . S
C412 H403 0.930 . S
C412 C410 1.378 . S
C412 C413 1.367 . S
C413 C412 1.367 . S
C413 C415 1.433 . S
C414 C410 1.350 . S
C414 C411 1.463 . S
C414 N418 1.427 . S
C415 H405 0.929 . S
C415 C413 1.433 . S
C415 N418 1.384 . S
C416 H407 0.929 . S
C416 C408 1.378 . S
C416 C411 1.350 . S
C417 H404 0.929 . S
C417 C409 1.433 . S
C417 N419 1.384 . S
N418 C414 1.427 . S
N418 C415 1.384 . S
N419 C411 1.427 . S
N419 C417 1.384 . S
H420 C426 0.930 . S
H421 C430 0.930 . S
H422 C435 0.929 . S
H423 C433 0.929 . S
H424 C428 0.929 . S
H425 C434 0.929 . S
C426 H420 0.930 . S
C426 C427 1.367 . S
C426 C434 1.378 . S
C427 C426 1.367 . S
C427 C435 1.433 . S
C428 H424 0.929 . S
C428 C430 1.378 . S
C428 C432 1.350 . S
C429 C432 1.463 . S
C429 C434 1.350 . S
C429 N437 1.427 . S
C430 H421 0.930 . S
C430 C428 1.378 . S
C430 C431 1.367 . S
C431 C430 1.367 . S
C431 C433 1.433 . S
C432 C428 1.350 . S
C432 C429 1.463 . S
C432 N436 1.427 . S
C433 H423 0.929 . S
C433 C431 1.433 . S
C433 N436 1.384 . S
C434 H425 0.929 . S
C434 C426 1.378 . S
C434 C429 1.350 . S
C435 H422 0.929 . S
C435 C427 1.433 . S
C435 N437 1.384 . S
N436 C432 1.427 . S
N436 C433 1.384 . S
N437 C429 1.427 . S
N437 C435 1.384 . S
H438 C444 0.930 . S
H439 C448 0.930 . S
H440 C453 0.929 . S
H441 C451 0.929 . S
H442 C446 0.929 . S
H443 C452 0.929 . S
C444 H438 0.930 . S
C444 C445 1.367 . S
C444 C452 1.378 . S
C445 C444 1.367 . S
C445 C453 1.433 . S
C446 H442 0.929 . S
C446 C448 1.378 . S
C446 C450 1.350 . S
C447 C450 1.463 . S
C447 C452 1.350 . S
C447 N455 1.427 . S
C448 H439 0.930 . S
C448 C446 1.378 . S
C448 C449 1.367 . S
C449 C448 1.367 . S
C449 C451 1.433 . S
C450 C446 1.350 . S
C450 C447 1.463 . S
C450 N454 1.427 . S
C451 H441 0.929 . S
C451 C449 1.433 . S
C451 N454 1.384 . S
C452 H443 0.929 . S
C452 C444 1.378 . S
C452 C447 1.350 . S
C453 H440 0.929 . S
C453 C445 1.433 . S
C453 N455 1.384 . S
N454 C450 1.427 . S
N454 C451 1.384 . S
N455 C447 1.427 . S
N455 C453 1.384 . S
H456 C462 0.930 . S
H457 C466 0.930 . S
H458 C471 0.929 . S
H459 C469 0.929 . S
H460 C464 0.929 . S
H461 C470 0.929 . S
C462 H456 0.930 . S
C462 C463 1.367 . S
C462 C470 1.378 . S
C463 C462 1.367 . S
C463 C471 1.433 . S
C464 H460 0.929 . S
C464 C466 1.378 . S
C464 C468 1.350 . S
C465 C468 1.463 . S
C465 C470 1.350 . S
C465 N473 1.427 . S
C466 H457 0.930 . S
C466 C464 1.378 . S
C466 C467 1.367 . S
C467 C466 1.367 . S
C467 C469 1.433 1_556 S
C468 C464 1.350 . S
C468 C465 1.463 . S
C468 N472 1.427 . S
C469 H459 0.929 . S
C469 C467 1.433 1_554 S
C469 N472 1.384 1_554 S
C470 H461 0.929 . S
C470 C462 1.378 . S
C470 C465 1.350 . S
C471 H458 0.929 . S
C471 C463 1.433 . S
C471 N473 1.384 . S
N472 C468 1.427 . S
N472 C469 1.384 1_556 S
N473 C465 1.427 . S
N473 C471 1.384 . S
H474 C480 0.930 . S
H475 C484 0.930 . S
H476 C489 0.929 . S
H477 C487 0.929 . S
H478 C482 0.929 . S
H479 C488 0.929 . S
C480 H474 0.930 . S
C480 C481 1.367 . S
C480 C488 1.378 . S
C481 C480 1.367 . S
C481 C489 1.433 . S
C482 H478 0.929 . S
C482 C484 1.378 . S
C482 C486 1.350 . S
C483 C486 1.463 . S
C483 C488 1.350 . S
C483 N491 1.427 . S
C484 H475 0.930 . S
C484 C482 1.378 . S
C484 C485 1.367 . S
C485 C484 1.367 . S
C485 C487 1.433 . S
C486 C482 1.350 . S
C486 C483 1.463 . S
C486 N490 1.427 . S
C487 H477 0.929 . S
C487 C485 1.433 . S
C487 N490 1.384 . S
C488 H479 0.929 . S
C488 C480 1.378 . S
C488 C483 1.350 . S
C489 H476 0.929 . S
C489 C481 1.433 . S
C489 N491 1.384 . S
N490 C486 1.427 . S
N490 C487 1.384 . S
N491 C483 1.427 . S
N491 C489 1.384 . S
H492 C498 0.930 . S
H493 C502 0.930 . S
H494 C507 0.929 . S
H495 C505 0.929 . S
H496 C500 0.929 . S
H497 C506 0.929 . S
C498 H492 0.930 . S
C498 C499 1.367 . S
C498 C506 1.378 . S
C499 C498 1.367 . S
C499 C507 1.433 . S
C500 H496 0.929 . S
C500 C502 1.378 . S
C500 C504 1.350 . S
C501 C504 1.463 . S
C501 C506 1.350 . S
C501 N509 1.427 . S
C502 H493 0.930 . S
C502 C500 1.378 . S
C502 C503 1.367 . S
C503 C502 1.367 . S
C503 C505 1.433 . S
C504 C500 1.350 . S
C504 C501 1.463 . S
C504 N508 1.427 . S
C505 H495 0.929 . S
C505 C503 1.433 . S
C505 N508 1.384 . S
C506 H497 0.929 . S
C506 C498 1.378 . S
C506 C501 1.350 . S
C507 H494 0.929 . S
C507 C499 1.433 . S
C507 N509 1.384 . S
N508 C504 1.427 . S
N508 C505 1.384 . S
N509 C501 1.427 . S
N509 C507 1.384 . S
H510 C516 0.930 . S
H511 C520 0.930 . S
H512 C525 0.929 . S
H513 C523 0.929 . S
H514 C518 0.929 . S
H515 C524 0.929 . S
C516 H510 0.930 . S
C516 C517 1.367 . S
C516 C524 1.378 . S
C517 C516 1.367 . S
C517 C525 1.433 . S
C518 H514 0.929 . S
C518 C520 1.378 . S
C518 C522 1.350 . S
C519 C522 1.463 . S
C519 C524 1.350 . S
C519 N527 1.427 . S
C520 H511 0.930 . S
C520 C518 1.378 . S
C520 C521 1.367 . S
C521 C520 1.367 . S
C521 C523 1.433 . S
C522 C518 1.350 . S
C522 C519 1.463 . S
C522 N526 1.427 . S
C523 H513 0.929 . S
C523 C521 1.433 . S
C523 N526 1.384 . S
C524 H515 0.929 . S
C524 C516 1.378 . S
C524 C519 1.350 . S
C525 H512 0.929 . S
C525 C517 1.433 . S
C525 N527 1.384 . S
N526 C522 1.427 . S
N526 C523 1.384 . S
N527 C519 1.427 . S
N527 C525 1.384 . S
H528 C534 0.930 . S
H529 C538 0.930 . S
H530 C543 0.929 . S
H531 C541 0.929 . S
H532 C536 0.929 . S
H533 C542 0.929 . S
C534 H528 0.930 . S
C534 C535 1.367 . S
C534 C542 1.378 . S
C535 C534 1.367 . S
C535 C543 1.433 . S
C536 H532 0.929 . S
C536 C538 1.378 . S
C536 C540 1.350 . S
C537 C540 1.463 . S
C537 C542 1.350 . S
C537 N545 1.427 . S
C538 H529 0.930 . S
C538 C536 1.378 . S
C538 C539 1.367 . S
C539 C538 1.367 . S
C539 C541 1.433 . S
C540 C536 1.350 . S
C540 C537 1.463 . S
C540 N544 1.427 . S
C541 H531 0.929 . S
C541 C539 1.433 . S
C541 N544 1.384 . S
C542 H533 0.929 . S
C542 C534 1.378 . S
C542 C537 1.350 . S
C543 H530 0.929 . S
C543 C535 1.433 . S
C543 N545 1.384 . S
N544 C540 1.427 . S
N544 C541 1.384 . S
N545 C537 1.427 . S
N545 C543 1.384 . S
H546 C552 0.930 . S
H547 C556 0.930 . S
H548 C561 0.929 . S
H549 C559 0.929 . S
H550 C554 0.929 . S
H551 C560 0.929 . S
C552 H546 0.930 . S
C552 C553 1.367 . S
C552 C560 1.378 . S
C553 C552 1.367 . S
C553 C561 1.433 . S
C554 H550 0.929 . S
C554 C556 1.378 . S
C554 C558 1.350 . S
C555 C558 1.463 . S
C555 C560 1.350 . S
C555 N563 1.427 . S
C556 H547 0.930 . S
C556 C554 1.378 . S
C556 C557 1.367 . S
C557 C556 1.367 . S
C557 C559 1.433 . S
C558 C554 1.350 . S
C558 C555 1.463 . S
C558 N562 1.427 . S
C559 H549 0.929 . S
C559 C557 1.433 . S
C559 N562 1.384 . S
C560 H551 0.929 . S
C560 C552 1.378 . S
C560 C555 1.350 . S
C561 H548 0.929 . S
C561 C553 1.433 . S
C561 N563 1.384 . S
N562 C558 1.427 . S
N562 C559 1.384 . S
N563 C555 1.427 . S
N563 C561 1.384 . S
H564 C570 0.930 . S
H565 C574 0.930 . S
H566 C579 0.929 . S
H567 C577 0.929 . S
H568 C572 0.929 . S
H569 C578 0.929 . S
C570 H564 0.930 . S
C570 C571 1.367 . S
C570 C578 1.378 . S
C571 C570 1.367 . S
C571 C579 1.433 . S
C572 H568 0.929 . S
C572 C574 1.378 . S
C572 C576 1.350 . S
C573 C576 1.463 . S
C573 C578 1.350 . S
C573 N581 1.427 . S
C574 H565 0.930 . S
C574 C572 1.378 . S
C574 C575 1.367 . S
C575 C574 1.367 . S
C575 C577 1.433 . S
C576 C572 1.350 . S
C576 C573 1.463 . S
C576 N580 1.427 . S
C577 H567 0.929 . S
C577 C575 1.433 . S
C577 N580 1.384 . S
C578 H569 0.929 . S
C578 C570 1.378 . S
C578 C573 1.350 . S
C579 H566 0.929 . S
C579 C571 1.433 . S
C579 N581 1.384 . S
N580 C576 1.427 . S
N580 C577 1.384 . S
N581 C573 1.427 . S
N581 C579 1.384 . S
H582 C588 0.930 . S
H583 C592 0.930 . S
H584 C597 0.929 . S
H585 C595 0.929 . S
H586 C590 0.929 . S
H587 C596 0.929 . S
C588 H582 0.930 . S
C588 C589 1.367 . S
C588 C596 1.378 . S
C589 C588 1.367 . S
C589 C597 1.433 . S
C590 H586 0.929 . S
C590 C592 1.378 . S
C590 C594 1.350 . S
C591 C594 1.463 . S
C591 C596 1.350 . S
C591 N599 1.427 . S
C592 H583 0.930 . S
C592 C590 1.378 . S
C592 C593 1.367 . S
C593 C592 1.367 . S
C593 C595 1.433 . S
C594 C590 1.350 . S
C594 C591 1.463 . S
C594 N598 1.427 . S
C595 H585 0.929 . S
C595 C593 1.433 . S
C595 N598 1.384 . S
C596 H587 0.929 . S
C596 C588 1.378 . S
C596 C591 1.350 . S
C597 H584 0.929 . S
C597 C589 1.433 . S
C597 N599 1.384 . S
N598 C594 1.427 . S
N598 C595 1.384 . S
N599 C591 1.427 . S
N599 C597 1.384 . S
C175 C5 1.335 . S
C179 C90 1.626 . S
C193 C18 1.353 . S
C197 C109 1.432 . S
C215 C146 1.573 . S
C211 C30 1.588 . S
C229 C41 1.435 . S
C233 C156 1.396 . S
C251 C126 2.062 . S
C247 C7 1.953 . S
C269 C96 1.604 . S
C265 C16 1.392 . S
C287 C167 1.569 . S
C283 C29 1.512 . S
C305 C137 1.039 . S
C301 C38 0.990 . S
C319 C8 1.692 . S
C323 C150 1.727 . S
C341 C117 1.895 . S
C337 C27 1.705 . S
C355 C40 1.773 . S
C359 C107 1.794 . S
C373 C19 0.984 . S
C377 C129 0.977 . S
C395 C89 1.470 . S
C391 C51 1.354 . S
C409 C62 1.569 . S
C413 C110 1.557 . S
C427 C74 1.702 . S
C431 C147 1.697 . S
C445 C84 1.516 . S
C449 C157 1.564 . S
C463 C49 1.753 . S
C467 C127 2.166 1_556 S
C485 C97 1.476 . S
C481 C63 1.496 . S
C503 C166 1.492 . S
C499 C71 1.347 . S
C521 C136 1.141 . S
C517 C85 1.130 . S
C535 C52 1.618 . S
C539 C149 1.665 . S
C557 C116 1.949 . S
C553 C73 1.970 . S
C575 C106 1.456 . S
C571 C82 1.218 . S
C589 C60 1.091 . S
C593 C130 1.295 . S
