# Generated by pormake.
# Topology rtl, (3,6)-cn, num edge types: 1
# Building blocks:
#     Node 0, Type 0, BuildingBlock: OLANEW_clean_sbu_2, # of connection points: 3
#     Node 1, Type 0, BuildingBlock: OLANEW_clean_sbu_2, # of connection points: 3
#     Node 2, Type 0, BuildingBlock: OLANEW_clean_sbu_2, # of connection points: 3
#     Node 3, Type 0, BuildingBlock: OLANEW_clean_sbu_2, # of connection points: 3
#     Node 4, Type 1, BuildingBlock: FUNLAD_clean_sbu_0, # of connection points: 6
#     Node 5, Type 1, BuildingBlock: FUNLAD_clean_sbu_0, # of connection points: 6
#     Edge 6, Type (0, 1), BuildingBlock: MIFKUJ_clean_linker_0, # of connection points: 2
#     Edge 7, Type (0, 1), BuildingBlock: MIFKUJ_clean_linker_0, # of connection points: 2
#     Edge 8, Type (0, 1), BuildingBlock: MIFKUJ_clean_linker_0, # of connection points: 2
#     Edge 9, Type (0, 1), BuildingBlock: MIFKUJ_clean_linker_0, # of connection points: 2
#     Edge 10, Type (0, 1), BuildingBlock: MIFKUJ_clean_linker_0, # of connection points: 2
#     Edge 11, Type (0, 1), BuildingBlock: MIFKUJ_clean_linker_0, # of connection points: 2
#     Edge 12, Type (0, 1), BuildingBlock: MIFKUJ_clean_linker_0, # of connection points: 2
#     Edge 13, Type (0, 1), BuildingBlock: MIFKUJ_clean_linker_0, # of connection points: 2
#     Edge 14, Type (0, 1), BuildingBlock: MIFKUJ_clean_linker_0, # of connection points: 2
#     Edge 15, Type (0, 1), BuildingBlock: MIFKUJ_clean_linker_0, # of connection points: 2
#     Edge 16, Type (0, 1), BuildingBlock: MIFKUJ_clean_linker_0, # of connection points: 2
#     Edge 17, Type (0, 1), BuildingBlock: MIFKUJ_clean_linker_0, # of connection points: 2
# Relax obj value: 0.012
# Max RMSD: 0.079
# Mean RMSD: 0.053
data_MOF--net-rtl--node1-OLANEW_clean_sbu_2--node2-FUNLAD_clean_sbu_0--edge1-MIFKUJ_clean_linker_0
_symmetry_space_group_name_H-M    P1
_symmetry_Int_Tables_number       1
_symmetry_cell_setting            triclinic
loop_
_symmetry_equiv_pos_as_xyz
'x, y, z'
_cell_length_a     54.423049
_cell_length_b     51.38232
_cell_length_c     29.140589
_cell_angle_alpha  87.356709
_cell_angle_beta   93.521192
_cell_angle_gamma 90.264761
loop_
_atom_site_label
_atom_site_type_symbol
_atom_site_fract_x
_atom_site_fract_y
_atom_site_fract_z
_atom_type_partial_charge
O0 O 0.1294 0.75976 0.91104 0.0
Cd1 Cd 0.1355 0.71542 0.94272 0.0
O2 O 0.12105 0.77362 0.97841 0.0
Cd3 Cd 0.11176 0.80341 0.0256 0.0
O4 O 0.10346 0.82947 0.07963 0.0
C5 C 0.08554 0.82391 0.1043 0.0
O6 O 0.07243 0.80292 0.09594 0.0
C7 C 0.12328 0.77816 0.93561 0.0
C8 C 0.18477 0.70105 0.94658 0.0
O9 O 0.1712 0.69978 0.90922 0.0
O10 O 0.17505 0.70917 0.98223 0.0
O11 O 0.62799 0.75923 0.62887 0.0
Cd12 Cd 0.63575 0.79446 0.57248 0.0
O13 O 0.63426 0.73208 0.5752 0.0
Cd14 Cd 0.63223 0.6949 0.54163 0.0
O15 O 0.62478 0.6665 0.48915 0.0
C16 C 0.60251 0.66341 0.47463 0.0
O17 O 0.58524 0.67635 0.49339 0.0
C18 C 0.62859 0.73597 0.616 0.0
C19 C 0.68353 0.81411 0.57904 0.0
O20 O 0.66655 0.82368 0.60177 0.0
O21 O 0.67798 0.79494 0.55372 0.0
O22 O 0.80361 0.16046 0.151 0.0
Cd23 Cd 0.76952 0.16516 0.09303 0.0
O24 O 0.82751 0.17179 0.09586 0.0
Cd25 Cd 0.86192 0.17831 0.06226 0.0
O26 O 0.88916 0.16865 0.01416 0.0
C27 C 0.88738 0.14554 0.00059 0.0
O28 O 0.87041 0.13014 0.01725 0.0
C29 C 0.82515 0.16399 0.13743 0.0
C30 C 0.74779 0.21412 0.0872 0.0
O31 O 0.7401 0.19589 0.11429 0.0
O32 O 0.76611 0.20929 0.06333 0.0
O33 O 0.38543 0.26313 0.64487 0.0
Cd34 Cd 0.37896 0.22619 0.59571 0.0
O35 O 0.37914 0.28782 0.58239 0.0
Cd36 Cd 0.37629 0.32178 0.53424 0.0
O37 O 0.38374 0.34792 0.47562 0.0
C38 C 0.40571 0.34798 0.46317 0.0
O39 O 0.42213 0.33325 0.48678 0.0
C40 C 0.38471 0.28581 0.6255 0.0
C41 C 0.33153 0.20559 0.59401 0.0
O42 O 0.3484 0.19686 0.62327 0.0
O43 O 0.33701 0.22441 0.56602 0.0
C44 C 0.02391 0.97721 0.48144 0.0
N45 N 0.05674 0.04158 0.54479 0.0
C46 C 0.07868 0.02893 0.5456 0.0
C47 C 0.10071 0.04293 0.54751 0.0
C48 C 0.1002 0.07023 0.54852 0.0
C49 C 0.07728 0.08282 0.54654 0.0
C50 C 0.05567 0.06804 0.5448 0.0
Zn51 Zn 0.02511 0.02018 0.5467 0.0
C52 C 0.98541 0.04059 0.48064 0.0
N53 N 0.95937 0.97495 0.55303 0.0
C54 C 0.96051 0.94846 0.55516 0.0
C55 C 0.93748 0.98758 0.55344 0.0
C56 C 0.91561 0.97352 0.55646 0.0
C57 C 0.91622 0.94616 0.55914 0.0
C58 C 0.93905 0.93362 0.5582 0.0
Zn59 Zn 0.991 0.99636 0.55031 0.0
O60 O 0.03695 0.99639 0.49462 0.0
C61 C 0.03001 0.97595 0.61705 0.0
O62 O 0.00367 0.97241 0.49971 0.0
H63 H 0.93698 0.00864 0.55158 0.0
H64 H 0.07911 0.0079 0.54545 0.0
H65 H 0.97812 0.93882 0.55489 0.0
O66 O 0.0422 0.99444 0.59877 0.0
O67 O 0.00782 0.97218 0.60291 0.0
H68 H 0.03802 0.07767 0.54433 0.0
O69 O 0.97892 0.02036 0.60079 0.0
O70 O 0.01274 0.04365 0.59889 0.0
O71 O 0.97435 0.02105 0.49805 0.0
O72 O 0.00745 0.04546 0.49486 0.0
C73 C 0.99209 0.03898 0.61572 0.0
H74 H 0.11799 0.03248 0.54831 0.0
H75 H 0.07607 0.10381 0.54766 0.0
H76 H 0.89838 0.98399 0.55633 0.0
H77 H 0.94039 0.91257 0.56064 0.0
C78 C 0.48644 0.4804 0.92064 0.0
N79 N 0.55373 0.47302 0.99754 0.0
C80 C 0.54813 0.44719 0.99968 0.0
C81 C 0.56664 0.42866 0.00742 0.0
C82 C 0.59127 0.43667 0.01325 0.0
C83 C 0.59671 0.46342 0.00967 0.0
C84 C 0.57749 0.48142 0.00188 0.0
Zn85 Zn 0.52472 0.4982 0.99078 0.0
C86 C 0.53047 0.54104 0.92144 0.0
N87 N 0.46179 0.5477 0.97891 0.0
C88 C 0.43891 0.53712 0.98125 0.0
C89 C 0.46504 0.57394 0.97358 0.0
C90 C 0.44474 0.59062 0.97033 0.0
C91 C 0.42105 0.58014 0.9736 0.0
C92 C 0.41821 0.55309 0.97913 0.0
Zn93 Zn 0.49146 0.52336 0.98468 0.0
O94 O 0.50757 0.47513 0.93963 0.0
C95 C 0.48612 0.48112 0.05527 0.0
O96 O 0.47506 0.50034 0.93237 0.0
H97 H 0.48339 0.58197 0.97209 0.0
H98 H 0.52916 0.44087 0.99613 0.0
H99 H 0.43668 0.51622 0.98495 0.0
O100 O 0.5075 0.47594 0.04308 0.0
O101 O 0.4744 0.50017 0.03541 0.0
H102 H 0.58149 0.50207 0.00016 0.0
O103 O 0.50798 0.5457 0.0377 0.0
O104 O 0.54124 0.52147 0.04214 0.0
O105 O 0.50927 0.54643 0.93444 0.0
O106 O 0.54173 0.52099 0.93903 0.0
C107 C 0.52924 0.54038 0.05624 0.0
H108 H 0.56167 0.40822 0.00901 0.0
H109 H 0.61548 0.47037 0.0141 0.0
H110 H 0.44752 0.61147 0.96617 0.0
H111 H 0.40012 0.54438 0.98126 0.0
H112 H 0.29138 0.22085 0.53824 0.0
H113 H 0.25117 0.19943 0.53123 0.0
H114 H 0.27537 0.14195 0.63671 0.0
H115 H 0.31563 0.16313 0.64381 0.0
H116 H 0.25377 0.11992 0.56102 0.0
H117 H 0.23561 0.1888 0.66006 0.0
H118 H 0.23369 0.23433 0.68284 0.0
H119 H 0.18666 0.25389 0.56259 0.0
H120 H 0.18858 0.20853 0.53874 0.0
H121 H 0.14101 0.05878 0.60479 0.0
H122 H 0.17947 0.0833 0.61186 0.0
H123 H 0.15049 0.1405 0.50989 0.0
H124 H 0.11181 0.11602 0.50274 0.0
H125 H 0.17421 0.16354 0.58088 0.0
H126 H 0.19166 0.09531 0.48173 0.0
H127 H 0.19344 0.05003 0.45754 0.0
H128 H 0.24192 0.02968 0.57543 0.0
H129 H 0.24015 0.07477 0.6007 0.0
C130 C 0.28809 0.20376 0.5602 0.0
C131 C 0.30671 0.19366 0.59155 0.0
C132 C 0.26507 0.1916 0.55624 0.0
C133 C 0.26027 0.16918 0.58361 0.0
C134 C 0.27872 0.15923 0.61526 0.0
C135 C 0.3017 0.17141 0.61936 0.0
C136 C 0.23634 0.15545 0.57807 0.0
C137 C 0.23639 0.12934 0.56597 0.0
C138 C 0.21365 0.16804 0.58306 0.0
C139 C 0.21246 0.19532 0.59737 0.0
C140 C 0.22504 0.20286 0.63826 0.0
C141 C 0.22391 0.22863 0.65141 0.0
C142 C 0.21012 0.24701 0.62411 0.0
C143 C 0.19737 0.23964 0.58366 0.0
C144 C 0.19845 0.2139 0.57033 0.0
C145 C 0.14289 0.07645 0.58354 0.0
C146 C 0.12346 0.08534 0.55288 0.0
C147 C 0.16487 0.09048 0.58769 0.0
C148 C 0.16798 0.11353 0.56091 0.0
C149 C 0.14848 0.12273 0.53084 0.0
C150 C 0.1264 0.10875 0.52682 0.0
C151 C 0.19167 0.1279 0.56435 0.0
C152 C 0.19159 0.15413 0.57587 0.0
C153 C 0.21436 0.11548 0.55855 0.0
C154 C 0.21559 0.08837 0.54332 0.0
C155 C 0.20256 0.08113 0.50268 0.0
C156 C 0.20359 0.05551 0.48875 0.0
C157 C 0.21774 0.03698 0.51499 0.0
C158 C 0.23094 0.04405 0.55516 0.0
C159 C 0.22995 0.06964 0.56929 0.0
H160 H 0.21852 0.01715 0.50414 0.0
H161 H 0.20926 0.26695 0.63436 0.0
H162 H 0.21456 0.69808 0.87518 0.0
H163 H 0.25707 0.6827 0.87819 0.0
H164 H 0.25566 0.6688 0.02528 0.0
H165 H 0.21359 0.68551 0.02265 0.0
H166 H 0.29818 0.68654 0.00786 0.0
H167 H 0.24716 0.61896 0.94504 0.0
H168 H 0.21614 0.59953 0.89153 0.0
H169 H 0.26067 0.61894 0.77816 0.0
H170 H 0.29183 0.63877 0.83097 0.0
H171 H 0.38615 0.58224 0.03601 0.0
H172 H 0.34843 0.60846 0.02987 0.0
H173 H 0.3687 0.64178 0.89895 0.0
H174 H 0.40684 0.61601 0.90553 0.0
H175 H 0.3188 0.61688 0.90434 0.0
H176 H 0.37208 0.68073 0.97477 0.0
H177 H 0.4026 0.69624 0.03339 0.0
H178 H 0.35259 0.67881 0.13903 0.0
H179 H 0.3219 0.6628 0.08109 0.0
C180 C 0.2234 0.69188 0.90817 0.0
C181 C 0.21075 0.69277 0.94864 0.0
C182 C 0.24765 0.68298 0.90985 0.0
C183 C 0.25943 0.67401 0.95183 0.0
C184 C 0.24699 0.67555 0.99246 0.0
C185 C 0.22292 0.68502 0.99092 0.0
C186 C 0.28443 0.66236 0.95336 0.0
C187 C 0.30257 0.67117 0.98543 0.0
C188 C 0.29038 0.64252 0.9237 0.0
C189 C 0.27168 0.63061 0.89187 0.0
C190 C 0.25025 0.61925 0.90865 0.0
C191 C 0.23266 0.60814 0.87846 0.0
C192 C 0.2364 0.60807 0.83145 0.0
C193 C 0.25778 0.61905 0.81456 0.0
C194 C 0.27542 0.63022 0.8446 0.0
C195 C 0.38263 0.59539 0.00622 0.0
C196 C 0.39924 0.5972 0.9712 0.0
C197 C 0.36121 0.61036 0.00282 0.0
C198 C 0.35595 0.62703 0.96404 0.0
C199 C 0.37261 0.62906 0.92918 0.0
C200 C 0.39431 0.61446 0.93301 0.0
C201 C 0.33224 0.641 0.95885 0.0
C202 C 0.31436 0.63249 0.92626 0.0
C203 C 0.32639 0.66062 0.98873 0.0
C204 C 0.34478 0.67034 0.02361 0.0
C205 C 0.36768 0.67997 0.01054 0.0
C206 C 0.38499 0.6889 0.04365 0.0
C207 C 0.37956 0.68845 0.08992 0.0
C208 C 0.35678 0.67912 0.10318 0.0
C209 C 0.33941 0.67014 0.07021 0.0
H210 H 0.39299 0.69539 0.1155 0.0
H211 H 0.22276 0.59946 0.80813 0.0
H212 H 0.7233 0.79861 0.53414 0.0
H213 H 0.76386 0.81925 0.53339 0.0
H214 H 0.741 0.87591 0.62679 0.0
H215 H 0.70034 0.85559 0.62736 0.0
H216 H 0.76261 0.89877 0.55479 0.0
H217 H 0.78072 0.82726 0.66346 0.0
H218 H 0.78219 0.78119 0.69117 0.0
H219 H 0.82764 0.76308 0.58163 0.0
H220 H 0.82616 0.80901 0.55287 0.0
H221 H 0.87773 0.95612 0.61167 0.0
H222 H 0.83915 0.93196 0.61631 0.0
H223 H 0.86393 0.87734 0.5211 0.0
H224 H 0.9026 0.90156 0.51598 0.0
H225 H 0.84175 0.85279 0.59272 0.0
H226 H 0.82366 0.92377 0.48381 0.0
H227 H 0.82235 0.96972 0.45538 0.0
H228 H 0.77669 0.98853 0.56419 0.0
H229 H 0.77802 0.94273 0.59369 0.0
C230 C 0.72696 0.81534 0.55482 0.0
C231 C 0.70858 0.8255 0.58075 0.0
C232 C 0.75019 0.82705 0.55448 0.0
C233 C 0.75549 0.84902 0.58026 0.0
C234 C 0.73728 0.85898 0.60664 0.0
C235 C 0.71407 0.84729 0.60701 0.0
C236 C 0.77963 0.86238 0.57818 0.0
C237 C 0.77989 0.8888 0.56375 0.0
C238 C 0.8022 0.84915 0.5885 0.0
C239 C 0.80312 0.82153 0.60574 0.0
C240 C 0.79085 0.81341 0.64504 0.0
C241 C 0.79172 0.78733 0.66099 0.0
C242 C 0.80494 0.7692 0.6381 0.0
C243 C 0.81737 0.77714 0.59928 0.0
C244 C 0.81655 0.8032 0.58317 0.0
C245 C 0.87492 0.93908 0.59144 0.0
C246 C 0.89314 0.9309 0.56312 0.0
C247 C 0.8529 0.92524 0.59426 0.0
C248 C 0.84857 0.90305 0.5686 0.0
C249 C 0.86693 0.89442 0.54118 0.0
C250 C 0.88901 0.90826 0.53837 0.0
C251 C 0.82465 0.88921 0.56982 0.0
C252 C 0.82443 0.86272 0.58386 0.0
C253 C 0.80208 0.90233 0.559 0.0
C254 C 0.80114 0.92987 0.54121 0.0
C255 C 0.8135 0.93774 0.50189 0.0
C256 C 0.81273 0.96375 0.48555 0.0
C257 C 0.7995 0.98205 0.50804 0.0
C258 C 0.78695 0.97435 0.54685 0.0
C259 C 0.78769 0.94836 0.56337 0.0
H260 H 0.79892 0.00218 0.49533 0.0
H261 H 0.8056 0.74902 0.6505 0.0
H262 H 0.70716 0.22892 0.12966 0.0
H263 H 0.68414 0.2695 0.1166 0.0
H264 H 0.73632 0.29747 0.02015 0.0
H265 H 0.75965 0.25684 0.03316 0.0
H266 H 0.72173 0.33604 0.07786 0.0
H267 H 0.68469 0.2738 0.97805 0.0
H268 H 0.66673 0.23146 0.95741 0.0
H269 H 0.60903 0.24167 0.04903 0.0
H270 H 0.62687 0.28392 0.07075 0.0
H271 H 0.63653 0.43395 0.97691 0.0
H272 H 0.66691 0.39881 0.99013 0.0
H273 H 0.62031 0.35987 0.08639 0.0
H274 H 0.59015 0.3948 0.07371 0.0
H275 H 0.63425 0.3278 0.0215 0.0
H276 H 0.67262 0.38959 0.12341 0.0
H277 H 0.69076 0.43198 0.14329 0.0
H278 H 0.74587 0.42302 0.04591 0.0
H279 H 0.72783 0.38071 0.02498 0.0
C280 C 0.71391 0.24376 0.10597 0.0
C281 C 0.73511 0.23957 0.08213 0.0
C282 C 0.70071 0.26692 0.0985 0.0
C283 C 0.70838 0.28629 0.06696 0.0
C284 C 0.7301 0.28269 0.04453 0.0
C285 C 0.74332 0.25945 0.0519 0.0
C286 C 0.69293 0.30964 0.05599 0.0
C287 C 0.7027 0.33435 0.06489 0.0
C288 C 0.66809 0.3073 0.03939 0.0
C289 C 0.65725 0.28192 0.02633 0.0
C290 C 0.66829 0.26692 0.99409 0.0
C291 C 0.65811 0.24295 0.98214 0.0
C292 C 0.63679 0.23385 0.00198 0.0
C293 C 0.62557 0.24873 0.03373 0.0
C294 C 0.63569 0.2727 0.04584 0.0
C295 C 0.63301 0.41809 0.00143 0.0
C296 C 0.61084 0.41694 0.02385 0.0
C297 C 0.65034 0.39805 0.00891 0.0
C298 C 0.64578 0.37671 0.03911 0.0
C299 C 0.62407 0.37605 0.06263 0.0
C300 C 0.60682 0.39597 0.05522 0.0
C301 C 0.66277 0.35422 0.04458 0.0
C302 C 0.65331 0.32958 0.03428 0.0
C303 C 0.68785 0.35672 0.05968 0.0
C304 C 0.6987 0.38213 0.07224 0.0
C305 C 0.68847 0.39677 0.10592 0.0
C306 C 0.69876 0.42076 0.11745 0.0
C307 C 0.71941 0.43022 0.09577 0.0
C308 C 0.72985 0.41568 0.06261 0.0
C309 C 0.71961 0.39169 0.05093 0.0
H310 H 0.72736 0.44879 0.10475 0.0
H311 H 0.62893 0.21529 0.99267 0.0
H312 H 0.04805 0.81775 0.16204 0.0
H313 H 0.03878 0.84473 0.22555 0.0
H314 H 0.10049 0.89452 0.19665 0.0
H315 H 0.11009 0.86745 0.13318 0.0
H316 H 0.09874 0.88256 0.28837 0.0
H317 H 0.04294 0.91464 0.1655 0.0
H318 H 0.01089 0.91154 0.10241 0.0
H319 H 0.96052 0.87893 0.19734 0.0
H320 H 0.9924 0.8815 0.26093 0.0
H321 H 0.06398 0.98441 0.42981 0.0
H322 H 0.07553 0.95892 0.36569 0.0
H323 H 0.01326 0.90814 0.38476 0.0
H324 H 0.00132 0.93376 0.44826 0.0
H325 H 0.01623 0.92217 0.2963 0.0
H326 H 0.07239 0.88904 0.41889 0.0
H327 H 0.10443 0.89221 0.482 0.0
H328 H 0.15409 0.92689 0.38777 0.0
H329 H 0.12221 0.92424 0.32417 0.0
C330 C 0.05965 0.83446 0.16906 0.0
C331 C 0.07976 0.84049 0.14242 0.0
C332 C 0.05427 0.84991 0.20532 0.0
C333 C 0.0688 0.87178 0.21552 0.0
C334 C 0.08903 0.87775 0.18929 0.0
C335 C 0.09442 0.86231 0.15295 0.0
C336 C 0.06291 0.88827 0.2538 0.0
C337 C 0.08083 0.89156 0.28982 0.0
C338 C 0.03938 0.89956 0.25606 0.0
C339 C 0.02014 0.89804 0.21791 0.0
C340 C 0.0251 0.90661 0.17286 0.0
C341 C 0.00695 0.90499 0.13702 0.0
C342 C 0.9837 0.89498 0.14584 0.0
C343 C 0.97854 0.88664 0.19055 0.0
C344 C 0.99664 0.88821 0.22652 0.0
C345 C 0.05282 0.96772 0.42053 0.0
C346 C 0.03173 0.96111 0.44414 0.0
C347 C 0.0595 0.95312 0.38397 0.0
C348 C 0.04536 0.93149 0.37066 0.0
C349 C 0.02441 0.92477 0.3944 0.0
C350 C 0.01767 0.9394 0.4308 0.0
C351 C 0.05195 0.91622 0.33122 0.0
C352 C 0.03417 0.91322 0.29487 0.0
C353 C 0.0756 0.9052 0.32871 0.0
C354 C 0.09483 0.90668 0.36686 0.0
C355 C 0.09008 0.89752 0.41169 0.0
C356 C 0.10822 0.89919 0.44754 0.0
C357 C 0.13126 0.90981 0.43893 0.0
C358 C 0.13622 0.9187 0.3944 0.0
C359 C 0.11814 0.9171 0.35843 0.0
H360 H 0.14528 0.91109 0.46673 0.0
H361 H 0.96968 0.89374 0.11804 0.0
H362 H 0.64525 0.68556 0.62185 0.0
H363 H 0.63168 0.64981 0.67284 0.0
H364 H 0.58175 0.70202 0.73207 0.0
H365 H 0.59544 0.73775 0.68158 0.0
H366 H 0.60438 0.67303 0.79728 0.0
H367 H 0.56209 0.65707 0.65075 0.0
H368 H 0.55956 0.64984 0.56751 0.0
H369 H 0.60436 0.5814 0.59114 0.0
H370 H 0.60736 0.58838 0.67456 0.0
H371 H 0.51601 0.59003 0.89235 0.0
H372 H 0.53629 0.62019 0.83959 0.0
H373 H 0.59147 0.56238 0.82057 0.0
H374 H 0.57142 0.53198 0.87411 0.0
H375 H 0.57072 0.59074 0.73611 0.0
H376 H 0.60921 0.60568 0.88523 0.0
H377 H 0.61001 0.61368 0.96811 0.0
H378 H 0.57029 0.6851 0.93856 0.0
H379 H 0.56891 0.67732 0.85552 0.0
C380 C 0.63111 0.68927 0.64524 0.0
C381 C 0.62102 0.71429 0.6471 0.0
C382 C 0.62346 0.66887 0.67454 0.0
C383 C 0.6054 0.67311 0.70582 0.0
C384 C 0.59569 0.69825 0.70822 0.0
C385 C 0.60349 0.71864 0.67931 0.0
C386 C 0.5965 0.65155 0.73626 0.0
C387 C 0.59688 0.65514 0.78378 0.0
C388 C 0.58726 0.62788 0.71886 0.0
C389 C 0.58517 0.62341 0.66883 0.0
C390 C 0.57153 0.64057 0.63816 0.0
C391 C 0.57 0.6365 0.59095 0.0
C392 C 0.58189 0.61524 0.57401 0.0
C393 C 0.59521 0.5979 0.6043 0.0
C394 C 0.59681 0.60188 0.65155 0.0
C395 C 0.53237 0.5836 0.87679 0.0
C396 C 0.54217 0.55863 0.88754 0.0
C397 C 0.54394 0.60089 0.84672 0.0
C398 C 0.56541 0.59351 0.82647 0.0
C399 C 0.5749 0.56837 0.83594 0.0
C400 C 0.56349 0.55111 0.86661 0.0
C401 C 0.57818 0.61261 0.79669 0.0
C402 C 0.57852 0.60854 0.74947 0.0
C403 C 0.58788 0.63597 0.81421 0.0
C404 C 0.58879 0.6408 0.86415 0.0
C405 C 0.60046 0.62298 0.89642 0.0
C406 C 0.60105 0.62749 0.94343 0.0
C407 C 0.59017 0.64986 0.95859 0.0
C408 C 0.5787 0.66777 0.92676 0.0
C409 C 0.57803 0.66334 0.87972 0.0
H410 H 0.59068 0.65333 0.99498 0.0
H411 H 0.58072 0.61216 0.53743 0.0
H412 H 0.82872 0.16706 0.23043 0.0
H413 H 0.8623 0.15146 0.28401 0.0
H414 H 0.90357 0.12998 0.16977 0.0
H415 H 0.86947 0.14406 0.11643 0.0
H416 H 0.90332 0.0917 0.22931 0.0
H417 H 0.92197 0.18156 0.23859 0.0
H418 H 0.91403 0.22821 0.24745 0.0
H419 H 0.89179 0.21143 0.38455 0.0
H420 H 0.89926 0.16463 0.37631 0.0
H421 H 0.00294 0.084 0.43443 0.0
H422 H 0.98168 0.1097 0.37095 0.0
H423 H 0.91794 0.06 0.38035 0.0
H424 H 0.93887 0.03427 0.44306 0.0
H425 H 0.93813 0.13752 0.36485 0.0
H426 H 0.89474 0.04815 0.27436 0.0
H427 H 0.90519 0.00232 0.26308 0.0
H428 H 0.98217 0.02037 0.28167 0.0
H429 H 0.97221 0.06637 0.29234 0.0
C430 C 0.84513 0.15939 0.21675 0.0
C431 C 0.84671 0.15747 0.16909 0.0
C432 C 0.86442 0.15068 0.24738 0.0
C433 C 0.88571 0.13999 0.23093 0.0
C434 C 0.88749 0.13849 0.18326 0.0
C435 C 0.86812 0.14702 0.15265 0.0
C436 C 0.9049 0.12803 0.2636 0.0
C437 C 0.9111 0.10186 0.25864 0.0
C438 C 0.91549 0.14137 0.30145 0.0
C439 C 0.91106 0.16954 0.3067 0.0
C440 C 0.91523 0.18779 0.27053 0.0
C441 C 0.91084 0.21427 0.27546 0.0
C442 C 0.90238 0.22277 0.31652 0.0
C443 C 0.89834 0.20482 0.35277 0.0
C444 C 0.9027 0.17831 0.34801 0.0
C445 C 0.98438 0.07861 0.42297 0.0
C446 C 0.97266 0.05698 0.44356 0.0
C447 C 0.97227 0.09334 0.38684 0.0
C448 C 0.9484 0.0865 0.37061 0.0
C449 C 0.93652 0.06533 0.39187 0.0
C450 C 0.94852 0.05069 0.42785 0.0
C451 C 0.93566 0.1011 0.33118 0.0
C452 C 0.93065 0.12764 0.33497 0.0
C453 C 0.92652 0.08829 0.2917 0.0
C454 C 0.93269 0.0607 0.28445 0.0
C455 C 0.9139 0.04238 0.27575 0.0
C456 C 0.91974 0.01636 0.26952 0.0
C457 C 0.94433 0.00843 0.27176 0.0
C458 C 0.96313 0.02652 0.28008 0.0
C459 C 0.95739 0.05257 0.28626 0.0
H460 H 0.94881 0.98827 0.26699 0.0
H461 H 0.89898 0.24328 0.32026 0.0
H462 H 0.40028 0.33463 0.59561 0.0
H463 H 0.4133 0.37074 0.6423 0.0
H464 H 0.4006 0.32398 0.76541 0.0
H465 H 0.38557 0.28844 0.71858 0.0
H466 H 0.38856 0.37125 0.77904 0.0
H467 H 0.45909 0.33104 0.7201 0.0
H468 H 0.48439 0.31522 0.65978 0.0
H469 H 0.48823 0.39276 0.599 0.0
H470 H 0.46271 0.40898 0.65871 0.0
H471 H 0.50503 0.43497 0.89265 0.0
H472 H 0.4854 0.40459 0.83998 0.0
H473 H 0.42247 0.45544 0.81834 0.0
H474 H 0.44185 0.48583 0.87193 0.0
H475 H 0.47131 0.40773 0.75237 0.0
H476 H 0.37068 0.41801 0.80257 0.0
H477 H 0.34803 0.42912 0.86984 0.0
H478 H 0.4092 0.40344 0.96049 0.0
H479 H 0.43207 0.39191 0.89381 0.0
C480 C 0.39919 0.33227 0.63234 0.0
C481 C 0.39133 0.30868 0.65306 0.0
C482 C 0.40721 0.35286 0.65923 0.0
C483 C 0.40834 0.35001 0.70749 0.0
C484 C 0.3999 0.32673 0.72827 0.0
C485 C 0.39146 0.30633 0.70138 0.0
C486 C 0.41954 0.37056 0.73644 0.0
C487 C 0.40659 0.37933 0.773 0.0
C488 C 0.44329 0.38082 0.72925 0.0
C489 C 0.45879 0.37116 0.69356 0.0
C490 C 0.46522 0.34468 0.69371 0.0
C491 C 0.47961 0.33565 0.65966 0.0
C492 C 0.48786 0.35296 0.62551 0.0
C493 C 0.4818 0.37937 0.62543 0.0
C494 C 0.46739 0.38849 0.65938 0.0
C495 C 0.48705 0.4398 0.87659 0.0
C496 C 0.47496 0.4628 0.88664 0.0
C497 C 0.47588 0.42242 0.84635 0.0
C498 C 0.45238 0.4276 0.8255 0.0
C499 C 0.44047 0.45085 0.83456 0.0
C500 C 0.45161 0.46825 0.86503 0.0
C501 C 0.44035 0.40835 0.79494 0.0
C502 C 0.45315 0.39988 0.75804 0.0
C503 C 0.41685 0.39773 0.8028 0.0
C504 C 0.40317 0.40441 0.84315 0.0
C505 C 0.37926 0.41469 0.83686 0.0
C506 C 0.36639 0.42106 0.87489 0.0
C507 C 0.37721 0.41708 0.91939 0.0
C508 C 0.40089 0.40663 0.92599 0.0
C509 C 0.41382 0.40021 0.88809 0.0
H510 H 0.36722 0.42203 0.94878 0.0
H511 H 0.49898 0.34593 0.59916 0.0
H512 H 0.55697 0.65441 0.4339 0.0
H513 H 0.54693 0.63143 0.36381 0.0
H514 H 0.62371 0.61332 0.35403 0.0
H515 H 0.634 0.63676 0.42392 0.0
H516 H 0.60397 0.63126 0.27287 0.0
H517 H 0.58288 0.56625 0.38511 0.0
H518 H 0.56343 0.54757 0.45341 0.0
H519 H 0.49185 0.56451 0.38903 0.0
H520 H 0.51087 0.58369 0.32059 0.0
H521 H 0.57607 0.53948 0.09638 0.0
H522 H 0.59061 0.55945 0.1679 0.0
H523 H 0.51857 0.59212 0.17981 0.0
H524 H 0.50395 0.5726 0.10821 0.0
H525 H 0.53856 0.56391 0.26057 0.0
H526 H 0.561 0.6315 0.15024 0.0
H527 H 0.58115 0.64842 0.08147 0.0
H528 H 0.65153 0.62405 0.14288 0.0
H529 H 0.63172 0.60665 0.21186 0.0
C530 C 0.57173 0.64536 0.41714 0.0
C531 C 0.5963 0.64748 0.43446 0.0
C532 C 0.56594 0.63212 0.37711 0.0
C533 C 0.58455 0.62048 0.35381 0.0
C534 C 0.60906 0.62218 0.37143 0.0
C535 C 0.61489 0.63548 0.41149 0.0
C536 C 0.57838 0.60751 0.31009 0.0
C537 C 0.58998 0.6162 0.2704 0.0
C538 C 0.55988 0.58811 0.30667 0.0
C539 C 0.54833 0.57663 0.34784 0.0
C540 C 0.56299 0.56621 0.38565 0.0
C541 C 0.55204 0.55549 0.42438 0.0
C542 C 0.52642 0.5549 0.4256 0.0
C543 C 0.5117 0.565 0.38806 0.0
C544 C 0.52255 0.57578 0.34927 0.0
C545 C 0.56341 0.55118 0.11394 0.0
C546 C 0.53887 0.55448 0.09665 0.0
C547 C 0.57174 0.56254 0.15475 0.0
C548 C 0.5556 0.57714 0.17908 0.0
C549 C 0.53124 0.58083 0.16153 0.0
C550 C 0.52299 0.5698 0.12047 0.0
C551 C 0.56385 0.588 0.22359 0.0
C552 C 0.55267 0.57884 0.26333 0.0
C553 C 0.58286 0.60676 0.22712 0.0
C554 C 0.59485 0.61751 0.18599 0.0
C555 C 0.58075 0.62956 0.14893 0.0
C556 C 0.59211 0.63927 0.10993 0.0
C557 C 0.6176 0.63722 0.10771 0.0
C558 C 0.63179 0.62557 0.1446 0.0
C559 C 0.6205 0.6158 0.18369 0.0
H560 H 0.62636 0.64472 0.07745 0.0
H561 H 0.51798 0.54657 0.4556 0.0
H562 H 0.92483 0.17174 0.95934 0.0
H563 H 0.94874 0.15703 0.89687 0.0
H564 H 0.90841 0.08452 0.89766 0.0
H565 H 0.88498 0.09874 0.96045 0.0
H566 H 0.95547 0.07566 0.88815 0.0
H567 H 0.89393 0.13584 0.81903 0.0
H568 H 0.87269 0.17818 0.80819 0.0
H569 H 0.94038 0.21531 0.77362 0.0
H570 H 0.96209 0.17319 0.78481 0.0
H571 H 0.95329 0.02807 0.66798 0.0
H572 H 0.94168 0.05014 0.73563 0.0
H573 H 0.0007 0.1054 0.71913 0.0
H574 H 0.01278 0.08316 0.65116 0.0
H575 H 0.95234 0.12692 0.7393 0.0
H576 H 0.01187 0.06354 0.7972 0.0
H577 H 0.03078 0.0199 0.80378 0.0
H578 H 0.96479 0.98769 0.857 0.0
H579 H 0.94532 0.03107 0.85002 0.0
C580 C 0.92121 0.15259 0.94639 0.0
C581 C 0.90291 0.13646 0.96465 0.0
C582 C 0.93483 0.14425 0.91062 0.0
C583 C 0.93016 0.11979 0.89225 0.0
C584 C 0.91236 0.10345 0.91132 0.0
C585 C 0.89889 0.11167 0.94715 0.0
C586 C 0.94305 0.11125 0.85218 0.0
C587 C 0.95476 0.08689 0.85564 0.0
C588 C 0.94271 0.12618 0.81002 0.0
C589 C 0.92968 0.15146 0.80333 0.0
C590 C 0.90432 0.15308 0.80949 0.0
C591 C 0.89219 0.17702 0.80321 0.0
C592 C 0.9052 0.19944 0.79039 0.0
C593 C 0.93035 0.19794 0.78367 0.0
C594 C 0.94257 0.17405 0.78995 0.0
C595 C 0.96375 0.04503 0.67838 0.0
C596 C 0.98405 0.0538 0.65435 0.0
C597 C 0.95711 0.05755 0.71713 0.0
C598 C 0.97052 0.07917 0.73247 0.0
C599 C 0.99024 0.08866 0.70774 0.0
C600 C 0.9971 0.07592 0.66908 0.0
C601 C 0.96401 0.09113 0.77518 0.0
C602 C 0.95353 0.11605 0.77218 0.0
C603 C 0.96528 0.07664 0.81767 0.0
C604 C 0.97708 0.05056 0.82282 0.0
C605 C 0.00133 0.04713 0.81003 0.0
C606 C 0.01216 0.02244 0.81386 0.0
C607 C 0.99898 0.00103 0.83072 0.0
C608 C 0.97497 0.00429 0.84394 0.0
C609 C 0.96404 0.02894 0.84011 0.0
H610 H 0.00738 0.98192 0.8336 0.0
H611 H 0.89577 0.21796 0.78553 0.0
H612 H 0.45081 0.35109 0.42738 0.0
H613 H 0.46207 0.37509 0.35766 0.0
H614 H 0.38775 0.40385 0.33516 0.0
H615 H 0.37617 0.37945 0.4048 0.0
H616 H 0.40458 0.38761 0.25666 0.0
H617 H 0.43345 0.44375 0.37371 0.0
H618 H 0.45537 0.4563 0.44592 0.0
H619 H 0.52412 0.43354 0.39512 0.0
H620 H 0.50256 0.42048 0.32281 0.0
H621 H 0.43964 0.48417 0.08556 0.0
H622 H 0.42386 0.46206 0.15399 0.0
H623 H 0.49348 0.42293 0.18195 0.0
H624 H 0.50939 0.4448 0.11366 0.0
H625 H 0.47656 0.44725 0.25786 0.0
H626 H 0.44599 0.38972 0.1409 0.0
H627 H 0.4233 0.37964 0.06799 0.0
H628 H 0.35646 0.40783 0.11885 0.0
H629 H 0.37885 0.41849 0.19183 0.0
C630 C 0.43684 0.36259 0.4078 0.0
C631 C 0.41259 0.3634 0.42173 0.0
C632 C 0.44334 0.3764 0.36799 0.0
C633 C 0.42582 0.3915 0.34147 0.0
C634 C 0.40157 0.39234 0.35518 0.0
C635 C 0.39501 0.37847 0.39506 0.0
C636 C 0.43289 0.40597 0.29903 0.0
C637 C 0.42007 0.40098 0.25702 0.0
C638 C 0.45328 0.42319 0.29943 0.0
C639 C 0.46634 0.43091 0.34297 0.0
C640 C 0.45321 0.4412 0.37808 0.0
C641 C 0.46558 0.44845 0.419 0.0
C642 C 0.49111 0.44566 0.42514 0.0
C643 C 0.50433 0.43566 0.39033 0.0
C644 C 0.49205 0.42835 0.34935 0.0
C645 C 0.45151 0.47066 0.10603 0.0
C646 C 0.47578 0.46626 0.09424 0.0
C647 C 0.44245 0.45804 0.14504 0.0
C648 C 0.45753 0.44089 0.17292 0.0
C649 C 0.4816 0.43616 0.16086 0.0
C650 C 0.4906 0.44858 0.12172 0.0
C651 C 0.44857 0.42848 0.21561 0.0
C652 C 0.46101 0.43396 0.25764 0.0
C653 C 0.42772 0.41196 0.21522 0.0
C654 C 0.41415 0.40516 0.17165 0.0
C655 C 0.42649 0.39396 0.13641 0.0
C656 C 0.41368 0.38811 0.09509 0.0
C657 C 0.38847 0.39317 0.08873 0.0
C658 C 0.376 0.40397 0.12378 0.0
C659 C 0.38874 0.4099 0.16515 0.0
H660 H 0.37859 0.38866 0.05669 0.0
H661 H 0.50066 0.45131 0.45684 0.0
H662 H 0.08584 0.81068 0.95266 0.0
H663 H 0.07235 0.84973 0.9067 0.0
H664 H 0.13368 0.84218 0.82142 0.0
H665 H 0.14712 0.80291 0.86695 0.0
H666 H 0.11891 0.89742 0.84621 0.0
H667 H 0.08806 0.81616 0.78128 0.0
H668 H 0.0669 0.7737 0.7875 0.0
H669 H 0.00216 0.81136 0.82924 0.0
H670 H 0.02312 0.85401 0.82393 0.0
H671 H 0.07869 0.96442 0.63614 0.0
H672 H 0.09633 0.935 0.69793 0.0
H673 H 0.0239 0.92204 0.7475 0.0
H674 H 0.00618 0.95017 0.68445 0.0
H675 H 0.04437 0.87861 0.74635 0.0
H676 H 0.07076 0.95972 0.80488 0.0
H677 H 0.09008 0.00322 0.80378 0.0
H678 H 0.16002 0.96907 0.78183 0.0
H679 H 0.14104 0.92537 0.78216 0.0
C680 C 0.09693 0.81788 0.92517 0.0
C681 C 0.11762 0.80396 0.91348 0.0
C682 C 0.08914 0.84008 0.89885 0.0
C683 C 0.10209 0.84877 0.86086 0.0
C684 C 0.12362 0.83585 0.85089 0.0
C685 C 0.13116 0.8134 0.87669 0.0
C686 C 0.09138 0.86893 0.82788 0.0
C687 C 0.10271 0.89342 0.82406 0.0
C688 C 0.0699 0.86376 0.80011 0.0
C689 C 0.05723 0.83819 0.80272 0.0
C690 C 0.06939 0.81534 0.79217 0.0
C691 C 0.05742 0.79125 0.79546 0.0
C692 C 0.03322 0.78982 0.80889 0.0
C693 C 0.02092 0.81249 0.81892 0.0
C694 C 0.03282 0.83662 0.81576 0.0
C695 C 0.06663 0.95533 0.66042 0.0
C696 C 0.04109 0.95935 0.65538 0.0
C697 C 0.07672 0.93869 0.69595 0.0
C698 C 0.0615 0.92646 0.72784 0.0
C699 C 0.03604 0.93108 0.7233 0.0
C700 C 0.02592 0.94716 0.68724 0.0
C701 C 0.07175 0.90758 0.76418 0.0
C702 C 0.06041 0.88306 0.7686 0.0
C703 C 0.09289 0.91305 0.79311 0.0
C704 C 0.10442 0.93928 0.79313 0.0
C705 C 0.09023 0.9615 0.79949 0.0
C706 C 0.10112 0.98619 0.79906 0.0
C707 C 0.12625 0.98891 0.79263 0.0
C708 C 0.14055 0.96693 0.78675 0.0
C709 C 0.12974 0.94219 0.78712 0.0
H710 H 0.13465 0.00805 0.79229 0.0
H711 H 0.02398 0.77116 0.81141 0.0
loop_
_geom_bond_atom_site_label_1
_geom_bond_atom_site_label_2
_geom_bond_distance
_geom_bond_site_symmetry_2
_ccdc_geom_bond_type
O0 Cd1 2.300 1_556 S
O0 C7 1.275 . S
Cd1 O0 2.300 1_554 S
Cd1 O9 2.381 . S
Cd1 O10 2.378 . S
O2 Cd3 2.385 . S
O2 C7 1.255 1_554 S
Cd3 O2 2.385 . S
Cd3 O4 2.317 . S
O4 Cd3 2.317 . S
O4 C5 1.232 . S
C5 O4 1.232 . S
C5 O6 1.218 . S
O6 C5 1.218 . S
C7 O0 1.275 . S
C7 O2 1.255 1_556 S
C8 O9 1.258 . S
C8 O10 1.256 . S
O9 Cd1 2.381 . S
O9 C8 1.258 . S
O10 Cd1 2.378 . S
O10 C8 1.256 . S
O11 Cd12 2.300 . S
O11 C18 1.275 . S
Cd12 O11 2.300 . S
Cd12 O20 2.381 . S
Cd12 O21 2.378 . S
O13 Cd14 2.385 . S
O13 C18 1.255 . S
Cd14 O13 2.385 . S
Cd14 O15 2.317 . S
O15 Cd14 2.317 . S
O15 C16 1.232 . S
C16 O15 1.232 . S
C16 O17 1.218 . S
O17 C16 1.218 . S
C18 O11 1.275 . S
C18 O13 1.255 . S
C19 O20 1.258 . S
C19 O21 1.256 . S
O20 Cd12 2.381 . S
O20 C19 1.258 . S
O21 Cd12 2.378 . S
O21 C19 1.256 . S
O22 Cd23 2.300 . S
O22 C29 1.275 . S
Cd23 O22 2.300 . S
Cd23 O31 2.381 . S
Cd23 O32 2.378 . S
O24 Cd25 2.385 . S
O24 C29 1.255 . S
Cd25 O24 2.385 . S
Cd25 O26 2.317 1_554 S
O26 Cd25 2.317 1_556 S
O26 C27 1.232 . S
C27 O26 1.232 . S
C27 O28 1.218 . S
O28 C27 1.218 . S
C29 O22 1.275 . S
C29 O24 1.255 . S
C30 O31 1.258 . S
C30 O32 1.256 . S
O31 Cd23 2.381 . S
O31 C30 1.258 . S
O32 Cd23 2.378 . S
O32 C30 1.256 . S
O33 Cd34 2.300 . S
O33 C40 1.275 . S
Cd34 O33 2.300 . S
Cd34 O42 2.381 . S
Cd34 O43 2.378 . S
O35 Cd36 2.385 . S
O35 C40 1.255 . S
Cd36 O35 2.385 . S
Cd36 O37 2.317 . S
O37 Cd36 2.317 . S
O37 C38 1.232 . S
C38 O37 1.232 . S
C38 O39 1.218 . S
O39 C38 1.218 . S
C40 O33 1.275 . S
C40 O35 1.255 . S
C41 O42 1.258 . S
C41 O43 1.256 . S
O42 Cd34 2.381 . S
O42 C41 1.258 . S
O43 Cd34 2.378 . S
O43 C41 1.256 . S
C44 O60 1.251 . S
C44 O62 1.254 . S
N45 C46 1.333 . S
N45 C50 1.307 . S
N45 Zn51 2.020 . S
C46 N45 1.333 . S
C46 C47 1.379 . S
C46 H64 0.952 . S
C47 C46 1.379 . S
C47 C48 1.390 . S
C47 H74 0.949 . S
C48 C47 1.390 . S
C48 C49 1.357 . S
C49 C48 1.357 . S
C49 C50 1.370 . S
C49 H75 0.950 . S
C50 N45 1.307 . S
C50 C49 1.370 . S
C50 H68 0.948 . S
Zn51 N45 2.020 . S
Zn51 O60 2.039 1_545 S
Zn51 O66 2.034 1_545 S
Zn51 O70 2.025 . S
Zn51 O72 2.024 . S
C52 O71 1.246 . S
C52 O72 1.249 1_655 S
N53 C54 1.307 . S
N53 C55 1.333 . S
N53 Zn59 2.020 . S
C54 N53 1.307 . S
C54 C58 1.370 . S
C54 H65 0.948 . S
C55 N53 1.333 . S
C55 C56 1.379 . S
C55 H63 0.952 . S
C56 C55 1.379 . S
C56 C57 1.390 . S
C56 H76 0.949 . S
C57 C56 1.390 . S
C57 C58 1.357 . S
C58 C54 1.370 . S
C58 C57 1.357 . S
C58 H77 0.950 . S
Zn59 N53 2.020 . S
Zn59 O62 2.025 1_655 S
Zn59 O67 2.024 1_655 S
Zn59 O69 2.039 1_565 S
Zn59 O71 2.034 1_565 S
O60 C44 1.251 . S
O60 Zn51 2.039 1_565 S
C61 O66 1.246 . S
C61 O67 1.249 . S
O62 C44 1.254 . S
O62 Zn59 2.025 1_455 S
H63 C55 0.952 . S
H64 C46 0.952 . S
H65 C54 0.948 . S
O66 Zn51 2.034 1_565 S
O66 C61 1.246 . S
O67 Zn59 2.024 1_455 S
O67 C61 1.249 . S
H68 C50 0.948 . S
O69 Zn59 2.039 1_545 S
O69 C73 1.251 . S
O70 Zn51 2.025 . S
O70 C73 1.254 1_455 S
O71 C52 1.246 . S
O71 Zn59 2.034 1_545 S
O72 Zn51 2.024 . S
O72 C52 1.249 1_455 S
C73 O69 1.251 . S
C73 O70 1.254 1_655 S
H74 C47 0.949 . S
H75 C49 0.950 . S
H76 C56 0.949 . S
H77 C58 0.950 . S
C78 O94 1.251 . S
C78 O96 1.254 . S
N79 C80 1.333 . S
N79 C84 1.307 . S
N79 Zn85 2.020 . S
C80 N79 1.333 . S
C80 C81 1.379 . S
C80 H98 0.952 1_554 S
C81 C80 1.379 . S
C81 C82 1.390 . S
C81 H108 0.949 1_554 S
C82 C81 1.390 . S
C82 C83 1.357 . S
C83 C82 1.357 . S
C83 C84 1.370 . S
C83 H109 0.950 . S
C84 N79 1.307 . S
C84 C83 1.370 . S
C84 H102 0.948 . S
Zn85 N79 2.020 . S
Zn85 O94 2.039 1_554 S
Zn85 O100 2.034 . S
Zn85 O104 2.025 . S
Zn85 O106 2.024 1_554 S
C86 O105 1.246 . S
C86 O106 1.249 . S
N87 C88 1.307 1_554 S
N87 C89 1.333 . S
N87 Zn93 2.020 . S
C88 N87 1.307 1_556 S
C88 C92 1.370 . S
C88 H99 0.948 . S
C89 N87 1.333 . S
C89 C90 1.379 . S
C89 H97 0.952 . S
C90 C89 1.379 . S
C90 C91 1.390 . S
C90 H110 0.949 . S
C91 C90 1.390 . S
C91 C92 1.357 1_554 S
C92 C88 1.370 . S
C92 C91 1.357 1_556 S
C92 H111 0.950 . S
Zn93 N87 2.020 . S
Zn93 O96 2.025 1_554 S
Zn93 O101 2.024 . S
Zn93 O103 2.039 . S
Zn93 O105 2.034 1_554 S
O94 C78 1.251 . S
O94 Zn85 2.039 1_556 S
C95 O100 1.246 . S
C95 O101 1.249 . S
O96 C78 1.254 . S
O96 Zn93 2.025 1_556 S
H97 C89 0.952 . S
H98 C80 0.952 1_556 S
H99 C88 0.948 . S
O100 Zn85 2.034 . S
O100 C95 1.246 . S
O101 Zn93 2.024 . S
O101 C95 1.249 . S
H102 C84 0.948 . S
O103 Zn93 2.039 . S
O103 C107 1.251 . S
O104 Zn85 2.025 . S
O104 C107 1.254 . S
O105 C86 1.246 . S
O105 Zn93 2.034 1_556 S
O106 Zn85 2.024 1_556 S
O106 C86 1.249 . S
C107 O103 1.251 . S
C107 O104 1.254 . S
H108 C81 0.949 1_556 S
H109 C83 0.950 . S
H110 C90 0.949 . S
H111 C92 0.950 . S
H112 C130 0.951 . S
H113 C132 0.951 . S
H114 C134 0.950 . S
H115 C135 0.950 . S
H116 C137 0.950 . S
H117 C140 0.950 . S
H118 C141 0.950 . S
H119 C143 0.950 . S
H120 C144 0.950 . S
H121 C145 0.951 . S
H122 C147 0.951 . S
H123 C149 0.950 . S
H124 C150 0.950 . S
H125 C152 0.950 . S
H126 C155 0.950 . S
H127 C156 0.950 . S
H128 C158 0.950 . S
H129 C159 0.950 . S
C130 H112 0.951 . S
C130 C131 1.366 . S
C130 C132 1.388 . S
C131 C130 1.366 . S
C131 C135 1.385 . S
C132 H113 0.951 . S
C132 C130 1.388 . S
C132 C133 1.366 . S
C133 C132 1.366 . S
C133 C134 1.414 . S
C133 C136 1.499 . S
C134 H114 0.950 . S
C134 C133 1.414 . S
C134 C135 1.374 . S
C135 H115 0.950 . S
C135 C131 1.385 . S
C135 C134 1.374 . S
C136 C133 1.499 . S
C136 C137 1.373 . S
C136 C138 1.389 . S
C137 H116 0.950 . S
C137 C136 1.373 . S
C137 C153 1.377 . S
C138 C136 1.389 . S
C138 C139 1.524 . S
C138 C152 1.377 . S
C139 C138 1.524 . S
C139 C140 1.397 . S
C139 C144 1.363 . S
C140 H117 0.950 . S
C140 C139 1.397 . S
C140 C141 1.334 . S
C141 H118 0.950 . S
C141 C140 1.334 . S
C141 C142 1.287 . S
C142 C141 1.287 . S
C142 C143 1.524 . S
C142 H161 0.913 . S
C143 H119 0.950 . S
C143 C142 1.524 . S
C143 C144 1.415 . S
C144 H120 0.950 . S
C144 C139 1.363 . S
C144 C143 1.415 . S
C145 H121 0.951 . S
C145 C146 1.366 . S
C145 C147 1.388 . S
C146 C145 1.366 . S
C146 C150 1.385 . S
C147 H122 0.951 . S
C147 C145 1.388 . S
C147 C148 1.366 . S
C148 C147 1.366 . S
C148 C149 1.414 . S
C148 C151 1.499 . S
C149 H123 0.950 . S
C149 C148 1.414 . S
C149 C150 1.374 . S
C150 H124 0.950 . S
C150 C146 1.385 . S
C150 C149 1.374 . S
C151 C148 1.499 . S
C151 C152 1.373 . S
C151 C153 1.389 . S
C152 H125 0.950 . S
C152 C138 1.377 . S
C152 C151 1.373 . S
C153 C137 1.377 . S
C153 C151 1.389 . S
C153 C154 1.524 . S
C154 C153 1.524 . S
C154 C155 1.397 . S
C154 C159 1.363 . S
C155 H126 0.950 . S
C155 C154 1.397 . S
C155 C156 1.334 . S
C156 H127 0.950 . S
C156 C155 1.334 . S
C156 C157 1.287 . S
C157 C156 1.287 . S
C157 C158 1.524 . S
C157 H160 0.999 . S
C158 H128 0.950 . S
C158 C157 1.524 . S
C158 C159 1.415 . S
C159 H129 0.950 . S
C159 C154 1.363 . S
C159 C158 1.415 . S
H160 C157 0.999 . S
H161 C142 0.913 . S
H162 C180 0.951 . S
H163 C182 0.951 . S
H164 C184 0.950 . S
H165 C185 0.950 . S
H166 C187 0.950 . S
H167 C190 0.950 1_554 S
H168 C191 0.950 . S
H169 C193 0.950 . S
H170 C194 0.950 . S
H171 C195 0.951 . S
H172 C197 0.951 . S
H173 C199 0.950 . S
H174 C200 0.950 . S
H175 C202 0.950 . S
H176 C205 0.950 . S
H177 C206 0.950 . S
H178 C208 0.950 . S
H179 C209 0.950 . S
C180 H162 0.951 . S
C180 C181 1.366 1_556 S
C180 C182 1.388 . S
C181 C180 1.366 1_554 S
C181 C185 1.385 . S
C182 H163 0.951 . S
C182 C180 1.388 . S
C182 C183 1.366 1_556 S
C183 C182 1.366 1_554 S
C183 C184 1.414 . S
C183 C186 1.499 . S
C184 H164 0.950 . S
C184 C183 1.414 . S
C184 C185 1.374 . S
C185 H165 0.950 . S
C185 C181 1.385 . S
C185 C184 1.374 . S
C186 C183 1.499 . S
C186 C187 1.373 . S
C186 C188 1.389 1_554 S
C187 H166 0.950 . S
C187 C186 1.373 . S
C187 C203 1.377 . S
C188 C186 1.389 1_556 S
C188 C189 1.524 . S
C188 C202 1.377 . S
C189 C188 1.524 . S
C189 C190 1.397 . S
C189 C194 1.363 . S
C190 H167 0.950 1_556 S
C190 C189 1.397 . S
C190 C191 1.334 . S
C191 H168 0.950 . S
C191 C190 1.334 . S
C191 C192 1.287 . S
C192 C191 1.287 . S
C192 C193 1.524 . S
C192 H211 0.913 . S
C193 H169 0.950 . S
C193 C192 1.524 . S
C193 C194 1.415 . S
C194 H170 0.950 . S
C194 C189 1.363 . S
C194 C193 1.415 . S
C195 H171 0.951 . S
C195 C196 1.366 . S
C195 C197 1.388 . S
C196 C195 1.366 . S
C196 C200 1.385 1_554 S
C197 H172 0.951 . S
C197 C195 1.388 . S
C197 C198 1.366 . S
C198 C197 1.366 . S
C198 C199 1.414 1_554 S
C198 C201 1.499 . S
C199 H173 0.950 . S
C199 C198 1.414 1_556 S
C199 C200 1.374 . S
C200 H174 0.950 . S
C200 C196 1.385 1_556 S
C200 C199 1.374 . S
C201 C198 1.499 . S
C201 C202 1.373 1_554 S
C201 C203 1.389 . S
C202 H175 0.950 . S
C202 C188 1.377 . S
C202 C201 1.373 1_556 S
C203 C187 1.377 . S
C203 C201 1.389 . S
C203 C204 1.524 . S
C204 C203 1.524 . S
C204 C205 1.397 . S
C204 C209 1.363 . S
C205 H176 0.950 . S
C205 C204 1.397 . S
C205 C206 1.334 . S
C206 H177 0.950 . S
C206 C205 1.334 . S
C206 C207 1.287 . S
C207 C206 1.287 . S
C207 C208 1.524 . S
C207 H210 0.999 . S
C208 H178 0.950 . S
C208 C207 1.524 . S
C208 C209 1.415 . S
C209 H179 0.950 . S
C209 C204 1.363 . S
C209 C208 1.415 . S
H210 C207 0.999 . S
H211 C192 0.913 . S
H212 C230 0.951 . S
H213 C232 0.951 . S
H214 C234 0.950 . S
H215 C235 0.950 . S
H216 C237 0.950 . S
H217 C240 0.950 . S
H218 C241 0.950 . S
H219 C243 0.950 . S
H220 C244 0.950 . S
H221 C245 0.951 . S
H222 C247 0.951 . S
H223 C249 0.950 . S
H224 C250 0.950 . S
H225 C252 0.950 . S
H226 C255 0.950 . S
H227 C256 0.950 . S
H228 C258 0.950 . S
H229 C259 0.950 . S
C230 H212 0.951 . S
C230 C231 1.366 . S
C230 C232 1.388 . S
C231 C230 1.366 . S
C231 C235 1.385 . S
C232 H213 0.951 . S
C232 C230 1.388 . S
C232 C233 1.366 . S
C233 C232 1.366 . S
C233 C234 1.414 . S
C233 C236 1.499 . S
C234 H214 0.950 . S
C234 C233 1.414 . S
C234 C235 1.374 . S
C235 H215 0.950 . S
C235 C231 1.385 . S
C235 C234 1.374 . S
C236 C233 1.499 . S
C236 C237 1.373 . S
C236 C238 1.389 . S
C237 H216 0.950 . S
C237 C236 1.373 . S
C237 C253 1.377 . S
C238 C236 1.389 . S
C238 C239 1.524 . S
C238 C252 1.377 . S
C239 C238 1.524 . S
C239 C240 1.397 . S
C239 C244 1.363 . S
C240 H217 0.950 . S
C240 C239 1.397 . S
C240 C241 1.334 . S
C241 H218 0.950 . S
C241 C240 1.334 . S
C241 C242 1.287 . S
C242 C241 1.287 . S
C242 C243 1.524 . S
C242 H261 0.913 . S
C243 H219 0.950 . S
C243 C242 1.524 . S
C243 C244 1.415 . S
C244 H220 0.950 . S
C244 C239 1.363 . S
C244 C243 1.415 . S
C245 H221 0.951 . S
C245 C246 1.366 . S
C245 C247 1.388 . S
C246 C245 1.366 . S
C246 C250 1.385 . S
C247 H222 0.951 . S
C247 C245 1.388 . S
C247 C248 1.366 . S
C248 C247 1.366 . S
C248 C249 1.414 . S
C248 C251 1.499 . S
C249 H223 0.950 . S
C249 C248 1.414 . S
C249 C250 1.374 . S
C250 H224 0.950 . S
C250 C246 1.385 . S
C250 C249 1.374 . S
C251 C248 1.499 . S
C251 C252 1.373 . S
C251 C253 1.389 . S
C252 H225 0.950 . S
C252 C238 1.377 . S
C252 C251 1.373 . S
C253 C237 1.377 . S
C253 C251 1.389 . S
C253 C254 1.524 . S
C254 C253 1.524 . S
C254 C255 1.397 . S
C254 C259 1.363 . S
C255 H226 0.950 . S
C255 C254 1.397 . S
C255 C256 1.334 . S
C256 H227 0.950 . S
C256 C255 1.334 . S
C256 C257 1.287 . S
C257 C256 1.287 . S
C257 C258 1.524 . S
C257 H260 0.999 . S
C258 H228 0.950 . S
C258 C257 1.524 . S
C258 C259 1.415 . S
C259 H229 0.950 . S
C259 C254 1.363 . S
C259 C258 1.415 . S
H260 C257 0.999 . S
H261 C242 0.913 . S
H262 C280 0.951 . S
H263 C282 0.951 . S
H264 C284 0.950 . S
H265 C285 0.950 . S
H266 C287 0.950 . S
H267 C290 0.950 . S
H268 C291 0.950 . S
H269 C293 0.950 . S
H270 C294 0.950 . S
H271 C295 0.951 . S
H272 C297 0.951 . S
H273 C299 0.950 . S
H274 C300 0.950 . S
H275 C302 0.950 1_556 S
H276 C305 0.950 . S
H277 C306 0.950 . S
H278 C308 0.950 . S
H279 C309 0.950 . S
C280 H262 0.951 . S
C280 C281 1.366 . S
C280 C282 1.388 . S
C281 C280 1.366 . S
C281 C285 1.385 . S
C282 H263 0.951 . S
C282 C280 1.388 . S
C282 C283 1.366 . S
C283 C282 1.366 . S
C283 C284 1.414 . S
C283 C286 1.499 . S
C284 H264 0.950 . S
C284 C283 1.414 . S
C284 C285 1.374 . S
C285 H265 0.950 . S
C285 C281 1.385 . S
C285 C284 1.374 . S
C286 C283 1.499 . S
C286 C287 1.373 . S
C286 C288 1.389 . S
C287 H266 0.950 . S
C287 C286 1.373 . S
C287 C303 1.377 . S
C288 C286 1.389 . S
C288 C289 1.524 1_554 S
C288 C302 1.377 . S
C289 C288 1.524 1_556 S
C289 C290 1.397 . S
C289 C294 1.363 . S
C290 H267 0.950 . S
C290 C289 1.397 . S
C290 C291 1.334 . S
C291 H268 0.950 . S
C291 C290 1.334 . S
C291 C292 1.287 . S
C292 C291 1.287 . S
C292 C293 1.524 . S
C292 H311 0.913 . S
C293 H269 0.950 . S
C293 C292 1.524 . S
C293 C294 1.415 . S
C294 H270 0.950 . S
C294 C289 1.363 . S
C294 C293 1.415 . S
C295 H271 0.951 . S
C295 C296 1.366 . S
C295 C297 1.388 . S
C296 C295 1.366 . S
C296 C300 1.385 . S
C297 H272 0.951 . S
C297 C295 1.388 . S
C297 C298 1.366 . S
C298 C297 1.366 . S
C298 C299 1.414 . S
C298 C301 1.499 . S
C299 H273 0.950 . S
C299 C298 1.414 . S
C299 C300 1.374 . S
C300 H274 0.950 . S
C300 C296 1.385 . S
C300 C299 1.374 . S
C301 C298 1.499 . S
C301 C302 1.373 . S
C301 C303 1.389 . S
C302 H275 0.950 1_554 S
C302 C288 1.377 . S
C302 C301 1.373 . S
C303 C287 1.377 . S
C303 C301 1.389 . S
C303 C304 1.524 . S
C304 C303 1.524 . S
C304 C305 1.397 . S
C304 C309 1.363 . S
C305 H276 0.950 . S
C305 C304 1.397 . S
C305 C306 1.334 . S
C306 H277 0.950 . S
C306 C305 1.334 . S
C306 C307 1.287 . S
C307 C306 1.287 . S
C307 C308 1.524 . S
C307 H310 0.999 . S
C308 H278 0.950 . S
C308 C307 1.524 . S
C308 C309 1.415 . S
C309 H279 0.950 . S
C309 C304 1.363 . S
C309 C308 1.415 . S
H310 C307 0.999 . S
H311 C292 0.913 . S
H312 C330 0.951 . S
H313 C332 0.951 . S
H314 C334 0.950 . S
H315 C335 0.950 . S
H316 C337 0.950 . S
H317 C340 0.950 . S
H318 C341 0.950 . S
H319 C343 0.950 1_655 S
H320 C344 0.950 . S
H321 C345 0.951 . S
H322 C347 0.951 . S
H323 C349 0.950 . S
H324 C350 0.950 . S
H325 C352 0.950 . S
H326 C355 0.950 . S
H327 C356 0.950 . S
H328 C358 0.950 . S
H329 C359 0.950 . S
C330 H312 0.951 . S
C330 C331 1.366 . S
C330 C332 1.388 . S
C331 C330 1.366 . S
C331 C335 1.385 . S
C332 H313 0.951 . S
C332 C330 1.388 . S
C332 C333 1.366 . S
C333 C332 1.366 . S
C333 C334 1.414 . S
C333 C336 1.499 . S
C334 H314 0.950 . S
C334 C333 1.414 . S
C334 C335 1.374 . S
C335 H315 0.950 . S
C335 C331 1.385 . S
C335 C334 1.374 . S
C336 C333 1.499 . S
C336 C337 1.373 . S
C336 C338 1.389 . S
C337 H316 0.950 . S
C337 C336 1.373 . S
C337 C353 1.377 . S
C338 C336 1.389 . S
C338 C339 1.524 . S
C338 C352 1.377 . S
C339 C338 1.524 . S
C339 C340 1.397 . S
C339 C344 1.363 . S
C340 H317 0.950 . S
C340 C339 1.397 . S
C340 C341 1.334 . S
C341 H318 0.950 . S
C341 C340 1.334 . S
C341 C342 1.287 . S
C342 C341 1.287 . S
C342 C343 1.524 . S
C342 H361 0.913 . S
C343 H319 0.950 1_455 S
C343 C342 1.524 . S
C343 C344 1.415 . S
C344 H320 0.950 . S
C344 C339 1.363 . S
C344 C343 1.415 . S
C345 H321 0.951 . S
C345 C346 1.366 . S
C345 C347 1.388 . S
C346 C345 1.366 . S
C346 C350 1.385 . S
C347 H322 0.951 . S
C347 C345 1.388 . S
C347 C348 1.366 . S
C348 C347 1.366 . S
C348 C349 1.414 . S
C348 C351 1.499 . S
C349 H323 0.950 . S
C349 C348 1.414 . S
C349 C350 1.374 . S
C350 H324 0.950 . S
C350 C346 1.385 . S
C350 C349 1.374 . S
C351 C348 1.499 . S
C351 C352 1.373 . S
C351 C353 1.389 . S
C352 H325 0.950 . S
C352 C338 1.377 . S
C352 C351 1.373 . S
C353 C337 1.377 . S
C353 C351 1.389 . S
C353 C354 1.524 . S
C354 C353 1.524 . S
C354 C355 1.397 . S
C354 C359 1.363 . S
C355 H326 0.950 . S
C355 C354 1.397 . S
C355 C356 1.334 . S
C356 H327 0.950 . S
C356 C355 1.334 . S
C356 C357 1.287 . S
C357 C356 1.287 . S
C357 C358 1.524 . S
C357 H360 0.999 . S
C358 H328 0.950 . S
C358 C357 1.524 . S
C358 C359 1.415 . S
C359 H329 0.950 . S
C359 C354 1.363 . S
C359 C358 1.415 . S
H360 C357 0.999 . S
H361 C342 0.913 . S
H362 C380 0.951 . S
H363 C382 0.951 . S
H364 C384 0.950 . S
H365 C385 0.950 . S
H366 C387 0.950 . S
H367 C390 0.950 . S
H368 C391 0.950 . S
H369 C393 0.950 . S
H370 C394 0.950 . S
H371 C395 0.951 . S
H372 C397 0.951 . S
H373 C399 0.950 . S
H374 C400 0.950 . S
H375 C402 0.950 . S
H376 C405 0.950 . S
H377 C406 0.950 . S
H378 C408 0.950 . S
H379 C409 0.950 . S
C380 H362 0.951 . S
C380 C381 1.366 . S
C380 C382 1.388 . S
C381 C380 1.366 . S
C381 C385 1.385 . S
C382 H363 0.951 . S
C382 C380 1.388 . S
C382 C383 1.366 . S
C383 C382 1.366 . S
C383 C384 1.414 . S
C383 C386 1.499 . S
C384 H364 0.950 . S
C384 C383 1.414 . S
C384 C385 1.374 . S
C385 H365 0.950 . S
C385 C381 1.385 . S
C385 C384 1.374 . S
C386 C383 1.499 . S
C386 C387 1.373 . S
C386 C388 1.389 . S
C387 H366 0.950 . S
C387 C386 1.373 . S
C387 C403 1.377 . S
C388 C386 1.389 . S
C388 C389 1.524 . S
C388 C402 1.377 . S
C389 C388 1.524 . S
C389 C390 1.397 . S
C389 C394 1.363 . S
C390 H367 0.950 . S
C390 C389 1.397 . S
C390 C391 1.334 . S
C391 H368 0.950 . S
C391 C390 1.334 . S
C391 C392 1.287 . S
C392 C391 1.287 . S
C392 C393 1.524 . S
C392 H411 0.913 . S
C393 H369 0.950 . S
C393 C392 1.524 . S
C393 C394 1.415 . S
C394 H370 0.950 . S
C394 C389 1.363 . S
C394 C393 1.415 . S
C395 H371 0.951 . S
C395 C396 1.366 . S
C395 C397 1.388 . S
C396 C395 1.366 . S
C396 C400 1.385 . S
C397 H372 0.951 . S
C397 C395 1.388 . S
C397 C398 1.366 . S
C398 C397 1.366 . S
C398 C399 1.414 . S
C398 C401 1.499 . S
C399 H373 0.950 . S
C399 C398 1.414 . S
C399 C400 1.374 . S
C400 H374 0.950 . S
C400 C396 1.385 . S
C400 C399 1.374 . S
C401 C398 1.499 . S
C401 C402 1.373 . S
C401 C403 1.389 . S
C402 H375 0.950 . S
C402 C388 1.377 . S
C402 C401 1.373 . S
C403 C387 1.377 . S
C403 C401 1.389 . S
C403 C404 1.524 . S
C404 C403 1.524 . S
C404 C405 1.397 . S
C404 C409 1.363 . S
C405 H376 0.950 . S
C405 C404 1.397 . S
C405 C406 1.334 . S
C406 H377 0.950 . S
C406 C405 1.334 . S
C406 C407 1.287 . S
C407 C406 1.287 . S
C407 C408 1.524 . S
C407 H410 0.999 . S
C408 H378 0.950 . S
C408 C407 1.524 . S
C408 C409 1.415 . S
C409 H379 0.950 . S
C409 C404 1.363 . S
C409 C408 1.415 . S
H410 C407 0.999 . S
H411 C392 0.913 . S
H412 C430 0.951 . S
H413 C432 0.951 . S
H414 C434 0.950 . S
H415 C435 0.950 . S
H416 C437 0.950 . S
H417 C440 0.950 . S
H418 C441 0.950 . S
H419 C443 0.950 . S
H420 C444 0.950 . S
H421 C445 0.951 . S
H422 C447 0.951 . S
H423 C449 0.950 . S
H424 C450 0.950 . S
H425 C452 0.950 . S
H426 C455 0.950 . S
H427 C456 0.950 1_565 S
H428 C458 0.950 . S
H429 C459 0.950 . S
C430 H412 0.951 . S
C430 C431 1.366 . S
C430 C432 1.388 . S
C431 C430 1.366 . S
C431 C435 1.385 . S
C432 H413 0.951 . S
C432 C430 1.388 . S
C432 C433 1.366 . S
C433 C432 1.366 . S
C433 C434 1.414 . S
C433 C436 1.499 . S
C434 H414 0.950 . S
C434 C433 1.414 . S
C434 C435 1.374 . S
C435 H415 0.950 . S
C435 C431 1.385 . S
C435 C434 1.374 . S
C436 C433 1.499 . S
C436 C437 1.373 . S
C436 C438 1.389 . S
C437 H416 0.950 . S
C437 C436 1.373 . S
C437 C453 1.377 . S
C438 C436 1.389 . S
C438 C439 1.524 . S
C438 C452 1.377 . S
C439 C438 1.524 . S
C439 C440 1.397 . S
C439 C444 1.363 . S
C440 H417 0.950 . S
C440 C439 1.397 . S
C440 C441 1.334 . S
C441 H418 0.950 . S
C441 C440 1.334 . S
C441 C442 1.287 . S
C442 C441 1.287 . S
C442 C443 1.524 . S
C442 H461 0.913 . S
C443 H419 0.950 . S
C443 C442 1.524 . S
C443 C444 1.415 . S
C444 H420 0.950 . S
C444 C439 1.363 . S
C444 C443 1.415 . S
C445 H421 0.951 . S
C445 C446 1.366 . S
C445 C447 1.388 . S
C446 C445 1.366 . S
C446 C450 1.385 . S
C447 H422 0.951 . S
C447 C445 1.388 . S
C447 C448 1.366 . S
C448 C447 1.366 . S
C448 C449 1.414 . S
C448 C451 1.499 . S
C449 H423 0.950 . S
C449 C448 1.414 . S
C449 C450 1.374 . S
C450 H424 0.950 . S
C450 C446 1.385 . S
C450 C449 1.374 . S
C451 C448 1.499 . S
C451 C452 1.373 . S
C451 C453 1.389 . S
C452 H425 0.950 . S
C452 C438 1.377 . S
C452 C451 1.373 . S
C453 C437 1.377 . S
C453 C451 1.389 . S
C453 C454 1.524 . S
C454 C453 1.524 . S
C454 C455 1.397 . S
C454 C459 1.363 . S
C455 H426 0.950 . S
C455 C454 1.397 . S
C455 C456 1.334 . S
C456 H427 0.950 1_545 S
C456 C455 1.334 . S
C456 C457 1.287 1_545 S
C457 C456 1.287 1_565 S
C457 C458 1.524 1_565 S
C457 H460 0.999 . S
C458 H428 0.950 . S
C458 C457 1.524 1_545 S
C458 C459 1.415 . S
C459 H429 0.950 . S
C459 C454 1.363 . S
C459 C458 1.415 . S
H460 C457 0.999 . S
H461 C442 0.913 . S
H462 C480 0.951 . S
H463 C482 0.951 . S
H464 C484 0.950 . S
H465 C485 0.950 . S
H466 C487 0.950 . S
H467 C490 0.950 . S
H468 C491 0.950 . S
H469 C493 0.950 . S
H470 C494 0.950 . S
H471 C495 0.951 . S
H472 C497 0.951 . S
H473 C499 0.950 . S
H474 C500 0.950 . S
H475 C502 0.950 . S
H476 C505 0.950 . S
H477 C506 0.950 . S
H478 C508 0.950 . S
H479 C509 0.950 . S
C480 H462 0.951 . S
C480 C481 1.366 . S
C480 C482 1.388 . S
C481 C480 1.366 . S
C481 C485 1.385 . S
C482 H463 0.951 . S
C482 C480 1.388 . S
C482 C483 1.366 . S
C483 C482 1.366 . S
C483 C484 1.414 . S
C483 C486 1.499 . S
C484 H464 0.950 . S
C484 C483 1.414 . S
C484 C485 1.374 . S
C485 H465 0.950 . S
C485 C481 1.385 . S
C485 C484 1.374 . S
C486 C483 1.499 . S
C486 C487 1.373 . S
C486 C488 1.389 . S
C487 H466 0.950 . S
C487 C486 1.373 . S
C487 C503 1.377 . S
C488 C486 1.389 . S
C488 C489 1.524 . S
C488 C502 1.377 . S
C489 C488 1.524 . S
C489 C490 1.397 . S
C489 C494 1.363 . S
C490 H467 0.950 . S
C490 C489 1.397 . S
C490 C491 1.334 . S
C491 H468 0.950 . S
C491 C490 1.334 . S
C491 C492 1.287 . S
C492 C491 1.287 . S
C492 C493 1.524 . S
C492 H511 0.913 . S
C493 H469 0.950 . S
C493 C492 1.524 . S
C493 C494 1.415 . S
C494 H470 0.950 . S
C494 C489 1.363 . S
C494 C493 1.415 . S
C495 H471 0.951 . S
C495 C496 1.366 . S
C495 C497 1.388 . S
C496 C495 1.366 . S
C496 C500 1.385 . S
C497 H472 0.951 . S
C497 C495 1.388 . S
C497 C498 1.366 . S
C498 C497 1.366 . S
C498 C499 1.414 . S
C498 C501 1.499 . S
C499 H473 0.950 . S
C499 C498 1.414 . S
C499 C500 1.374 . S
C500 H474 0.950 . S
C500 C496 1.385 . S
C500 C499 1.374 . S
C501 C498 1.499 . S
C501 C502 1.373 . S
C501 C503 1.389 . S
C502 H475 0.950 . S
C502 C488 1.377 . S
C502 C501 1.373 . S
C503 C487 1.377 . S
C503 C501 1.389 . S
C503 C504 1.524 . S
C504 C503 1.524 . S
C504 C505 1.397 . S
C504 C509 1.363 . S
C505 H476 0.950 . S
C505 C504 1.397 . S
C505 C506 1.334 . S
C506 H477 0.950 . S
C506 C505 1.334 . S
C506 C507 1.287 . S
C507 C506 1.287 . S
C507 C508 1.524 . S
C507 H510 0.999 . S
C508 H478 0.950 . S
C508 C507 1.524 . S
C508 C509 1.415 . S
C509 H479 0.950 . S
C509 C504 1.363 . S
C509 C508 1.415 . S
H510 C507 0.999 . S
H511 C492 0.913 . S
H512 C530 0.951 . S
H513 C532 0.951 . S
H514 C534 0.950 . S
H515 C535 0.950 . S
H516 C537 0.950 . S
H517 C540 0.950 . S
H518 C541 0.950 . S
H519 C543 0.950 . S
H520 C544 0.950 . S
H521 C545 0.951 . S
H522 C547 0.951 . S
H523 C549 0.950 . S
H524 C550 0.950 . S
H525 C552 0.950 . S
H526 C555 0.950 . S
H527 C556 0.950 . S
H528 C558 0.950 . S
H529 C559 0.950 . S
C530 H512 0.951 . S
C530 C531 1.366 . S
C530 C532 1.388 . S
C531 C530 1.366 . S
C531 C535 1.385 . S
C532 H513 0.951 . S
C532 C530 1.388 . S
C532 C533 1.366 . S
C533 C532 1.366 . S
C533 C534 1.414 . S
C533 C536 1.499 . S
C534 H514 0.950 . S
C534 C533 1.414 . S
C534 C535 1.374 . S
C535 H515 0.950 . S
C535 C531 1.385 . S
C535 C534 1.374 . S
C536 C533 1.499 . S
C536 C537 1.373 . S
C536 C538 1.389 . S
C537 H516 0.950 . S
C537 C536 1.373 . S
C537 C553 1.377 . S
C538 C536 1.389 . S
C538 C539 1.524 . S
C538 C552 1.377 . S
C539 C538 1.524 . S
C539 C540 1.397 . S
C539 C544 1.363 . S
C540 H517 0.950 . S
C540 C539 1.397 . S
C540 C541 1.334 . S
C541 H518 0.950 . S
C541 C540 1.334 . S
C541 C542 1.287 . S
C542 C541 1.287 . S
C542 C543 1.524 . S
C542 H561 0.913 . S
C543 H519 0.950 . S
C543 C542 1.524 . S
C543 C544 1.415 . S
C544 H520 0.950 . S
C544 C539 1.363 . S
C544 C543 1.415 . S
C545 H521 0.951 . S
C545 C546 1.366 . S
C545 C547 1.388 . S
C546 C545 1.366 . S
C546 C550 1.385 . S
C547 H522 0.951 . S
C547 C545 1.388 . S
C547 C548 1.366 . S
C548 C547 1.366 . S
C548 C549 1.414 . S
C548 C551 1.499 . S
C549 H523 0.950 . S
C549 C548 1.414 . S
C549 C550 1.374 . S
C550 H524 0.950 . S
C550 C546 1.385 . S
C550 C549 1.374 . S
C551 C548 1.499 . S
C551 C552 1.373 . S
C551 C553 1.389 . S
C552 H525 0.950 . S
C552 C538 1.377 . S
C552 C551 1.373 . S
C553 C537 1.377 . S
C553 C551 1.389 . S
C553 C554 1.524 . S
C554 C553 1.524 . S
C554 C555 1.397 . S
C554 C559 1.363 . S
C555 H526 0.950 . S
C555 C554 1.397 . S
C555 C556 1.334 . S
C556 H527 0.950 . S
C556 C555 1.334 . S
C556 C557 1.287 . S
C557 C556 1.287 . S
C557 C558 1.524 . S
C557 H560 0.999 . S
C558 H528 0.950 . S
C558 C557 1.524 . S
C558 C559 1.415 . S
C559 H529 0.950 . S
C559 C554 1.363 . S
C559 C558 1.415 . S
H560 C557 0.999 . S
H561 C542 0.913 . S
H562 C580 0.951 . S
H563 C582 0.951 . S
H564 C584 0.950 . S
H565 C585 0.950 . S
H566 C587 0.950 . S
H567 C590 0.950 . S
H568 C591 0.950 . S
H569 C593 0.950 . S
H570 C594 0.950 . S
H571 C595 0.951 . S
H572 C597 0.951 . S
H573 C599 0.950 . S
H574 C600 0.950 . S
H575 C602 0.950 . S
H576 C605 0.950 . S
H577 C606 0.950 1_455 S
H578 C608 0.950 1_565 S
H579 C609 0.950 . S
C580 H562 0.951 . S
C580 C581 1.366 . S
C580 C582 1.388 . S
C581 C580 1.366 . S
C581 C585 1.385 . S
C582 H563 0.951 . S
C582 C580 1.388 . S
C582 C583 1.366 . S
C583 C582 1.366 . S
C583 C584 1.414 . S
C583 C586 1.499 . S
C584 H564 0.950 . S
C584 C583 1.414 . S
C584 C585 1.374 . S
C585 H565 0.950 . S
C585 C581 1.385 . S
C585 C584 1.374 . S
C586 C583 1.499 . S
C586 C587 1.373 . S
C586 C588 1.389 . S
C587 H566 0.950 . S
C587 C586 1.373 . S
C587 C603 1.377 . S
C588 C586 1.389 . S
C588 C589 1.524 . S
C588 C602 1.377 . S
C589 C588 1.524 . S
C589 C590 1.397 . S
C589 C594 1.363 . S
C590 H567 0.950 . S
C590 C589 1.397 . S
C590 C591 1.334 . S
C591 H568 0.950 . S
C591 C590 1.334 . S
C591 C592 1.287 . S
C592 C591 1.287 . S
C592 C593 1.524 . S
C592 H611 0.913 . S
C593 H569 0.950 . S
C593 C592 1.524 . S
C593 C594 1.415 . S
C594 H570 0.950 . S
C594 C589 1.363 . S
C594 C593 1.415 . S
C595 H571 0.951 . S
C595 C596 1.366 . S
C595 C597 1.388 . S
C596 C595 1.366 . S
C596 C600 1.385 . S
C597 H572 0.951 . S
C597 C595 1.388 . S
C597 C598 1.366 . S
C598 C597 1.366 . S
C598 C599 1.414 . S
C598 C601 1.499 . S
C599 H573 0.950 . S
C599 C598 1.414 . S
C599 C600 1.374 . S
C600 H574 0.950 . S
C600 C596 1.385 . S
C600 C599 1.374 . S
C601 C598 1.499 . S
C601 C602 1.373 . S
C601 C603 1.389 . S
C602 H575 0.950 . S
C602 C588 1.377 . S
C602 C601 1.373 . S
C603 C587 1.377 . S
C603 C601 1.389 . S
C603 C604 1.524 . S
C604 C603 1.524 . S
C604 C605 1.397 . S
C604 C609 1.363 . S
C605 H576 0.950 . S
C605 C604 1.397 . S
C605 C606 1.334 . S
C606 H577 0.950 1_655 S
C606 C605 1.334 . S
C606 C607 1.287 . S
C607 C606 1.287 . S
C607 C608 1.524 . S
C607 H610 0.999 1_545 S
C608 H578 0.950 1_545 S
C608 C607 1.524 . S
C608 C609 1.415 . S
C609 H579 0.950 . S
C609 C604 1.363 . S
C609 C608 1.415 . S
H610 C607 0.999 1_565 S
H611 C592 0.913 . S
H612 C630 0.951 . S
H613 C632 0.951 . S
H614 C634 0.950 . S
H615 C635 0.950 . S
H616 C637 0.950 . S
H617 C640 0.950 . S
H618 C641 0.950 . S
H619 C643 0.950 . S
H620 C644 0.950 . S
H621 C645 0.951 . S
H622 C647 0.951 . S
H623 C649 0.950 . S
H624 C650 0.950 . S
H625 C652 0.950 . S
H626 C655 0.950 . S
H627 C656 0.950 . S
H628 C658 0.950 . S
H629 C659 0.950 . S
C630 H612 0.951 . S
C630 C631 1.366 . S
C630 C632 1.388 . S
C631 C630 1.366 . S
C631 C635 1.385 . S
C632 H613 0.951 . S
C632 C630 1.388 . S
C632 C633 1.366 . S
C633 C632 1.366 . S
C633 C634 1.414 . S
C633 C636 1.499 . S
C634 H614 0.950 . S
C634 C633 1.414 . S
C634 C635 1.374 . S
C635 H615 0.950 . S
C635 C631 1.385 . S
C635 C634 1.374 . S
C636 C633 1.499 . S
C636 C637 1.373 . S
C636 C638 1.389 . S
C637 H616 0.950 . S
C637 C636 1.373 . S
C637 C653 1.377 . S
C638 C636 1.389 . S
C638 C639 1.524 . S
C638 C652 1.377 . S
C639 C638 1.524 . S
C639 C640 1.397 . S
C639 C644 1.363 . S
C640 H617 0.950 . S
C640 C639 1.397 . S
C640 C641 1.334 . S
C641 H618 0.950 . S
C641 C640 1.334 . S
C641 C642 1.287 . S
C642 C641 1.287 . S
C642 C643 1.524 . S
C642 H661 0.913 . S
C643 H619 0.950 . S
C643 C642 1.524 . S
C643 C644 1.415 . S
C644 H620 0.950 . S
C644 C639 1.363 . S
C644 C643 1.415 . S
C645 H621 0.951 . S
C645 C646 1.366 . S
C645 C647 1.388 . S
C646 C645 1.366 . S
C646 C650 1.385 . S
C647 H622 0.951 . S
C647 C645 1.388 . S
C647 C648 1.366 . S
C648 C647 1.366 . S
C648 C649 1.414 . S
C648 C651 1.499 . S
C649 H623 0.950 . S
C649 C648 1.414 . S
C649 C650 1.374 . S
C650 H624 0.950 . S
C650 C646 1.385 . S
C650 C649 1.374 . S
C651 C648 1.499 . S
C651 C652 1.373 . S
C651 C653 1.389 . S
C652 H625 0.950 . S
C652 C638 1.377 . S
C652 C651 1.373 . S
C653 C637 1.377 . S
C653 C651 1.389 . S
C653 C654 1.524 . S
C654 C653 1.524 . S
C654 C655 1.397 . S
C654 C659 1.363 . S
C655 H626 0.950 . S
C655 C654 1.397 . S
C655 C656 1.334 . S
C656 H627 0.950 . S
C656 C655 1.334 . S
C656 C657 1.287 . S
C657 C656 1.287 . S
C657 C658 1.524 . S
C657 H660 0.999 . S
C658 H628 0.950 . S
C658 C657 1.524 . S
C658 C659 1.415 . S
C659 H629 0.950 . S
C659 C654 1.363 . S
C659 C658 1.415 . S
H660 C657 0.999 . S
H661 C642 0.913 . S
H662 C680 0.951 . S
H663 C682 0.951 . S
H664 C684 0.950 . S
H665 C685 0.950 . S
H666 C687 0.950 . S
H667 C690 0.950 . S
H668 C691 0.950 . S
H669 C693 0.950 . S
H670 C694 0.950 . S
H671 C695 0.951 . S
H672 C697 0.951 . S
H673 C699 0.950 . S
H674 C700 0.950 . S
H675 C702 0.950 . S
H676 C705 0.950 . S
H677 C706 0.950 1_545 S
H678 C708 0.950 . S
H679 C709 0.950 . S
C680 H662 0.951 . S
C680 C681 1.366 . S
C680 C682 1.388 . S
C681 C680 1.366 . S
C681 C685 1.385 . S
C682 H663 0.951 . S
C682 C680 1.388 . S
C682 C683 1.366 . S
C683 C682 1.366 . S
C683 C684 1.414 . S
C683 C686 1.499 . S
C684 H664 0.950 . S
C684 C683 1.414 . S
C684 C685 1.374 . S
C685 H665 0.950 . S
C685 C681 1.385 . S
C685 C684 1.374 . S
C686 C683 1.499 . S
C686 C687 1.373 . S
C686 C688 1.389 . S
C687 H666 0.950 . S
C687 C686 1.373 . S
C687 C703 1.377 . S
C688 C686 1.389 . S
C688 C689 1.524 . S
C688 C702 1.377 . S
C689 C688 1.524 . S
C689 C690 1.397 . S
C689 C694 1.363 . S
C690 H667 0.950 . S
C690 C689 1.397 . S
C690 C691 1.334 . S
C691 H668 0.950 . S
C691 C690 1.334 . S
C691 C692 1.287 . S
C692 C691 1.287 . S
C692 C693 1.524 . S
C692 H711 0.913 . S
C693 H669 0.950 . S
C693 C692 1.524 . S
C693 C694 1.415 . S
C694 H670 0.950 . S
C694 C689 1.363 . S
C694 C693 1.415 . S
C695 H671 0.951 . S
C695 C696 1.366 . S
C695 C697 1.388 . S
C696 C695 1.366 . S
C696 C700 1.385 . S
C697 H672 0.951 . S
C697 C695 1.388 . S
C697 C698 1.366 . S
C698 C697 1.366 . S
C698 C699 1.414 . S
C698 C701 1.499 . S
C699 H673 0.950 . S
C699 C698 1.414 . S
C699 C700 1.374 . S
C700 H674 0.950 . S
C700 C696 1.385 . S
C700 C699 1.374 . S
C701 C698 1.499 . S
C701 C702 1.373 . S
C701 C703 1.389 . S
C702 H675 0.950 . S
C702 C688 1.377 . S
C702 C701 1.373 . S
C703 C687 1.377 . S
C703 C701 1.389 . S
C703 C704 1.524 . S
C704 C703 1.524 . S
C704 C705 1.397 . S
C704 C709 1.363 . S
C705 H676 0.950 . S
C705 C704 1.397 . S
C705 C706 1.334 . S
C706 H677 0.950 1_565 S
C706 C705 1.334 . S
C706 C707 1.287 . S
C707 C706 1.287 . S
C707 C708 1.524 . S
C707 H710 0.999 1_565 S
C708 H678 0.950 . S
C708 C707 1.524 . S
C708 C709 1.415 . S
C709 H679 0.950 . S
C709 C704 1.363 . S
C709 C708 1.415 . S
H710 C707 0.999 1_545 S
H711 C692 0.913 . S
C146 C48 1.528 . S
C131 C41 1.509 . S
C181 C8 1.496 . S
C196 C91 1.509 . S
C231 C19 1.517 . S
C246 C57 1.536 . S
C281 C30 1.506 . S
C296 C82 1.507 . S
C346 C44 1.585 . S
C331 C5 1.351 . S
C396 C86 1.664 . S
C381 C18 1.611 . S
C431 C29 1.562 . S
C446 C52 1.587 . S
C481 C40 1.606 . S
C496 C78 1.666 . S
C546 C107 1.385 . S
C531 C16 1.160 . S
C596 C73 1.400 . S
C581 C27 1.240 . S
C646 C95 1.379 . S
C631 C38 1.157 . S
C681 C7 1.354 . S
C696 C61 1.393 . S
