# Generated by pormake.
# Topology ocu, (6,8)-cn, num edge types: 1
# Building blocks:
#     Node 0, Type 0, BuildingBlock: MIFKUJ_clean_sbu_0, # of connection points: 6
#     Node 1, Type 0, BuildingBlock: MIFKUJ_clean_sbu_0, # of connection points: 6
#     Node 2, Type 0, BuildingBlock: MIFKUJ_clean_sbu_0, # of connection points: 6
#     Node 3, Type 0, BuildingBlock: MIFKUJ_clean_sbu_0, # of connection points: 6
#     Node 4, Type 0, BuildingBlock: MIFKUJ_clean_sbu_0, # of connection points: 6
#     Node 5, Type 0, BuildingBlock: MIFKUJ_clean_sbu_0, # of connection points: 6
#     Node 6, Type 0, BuildingBlock: MIFKUJ_clean_sbu_0, # of connection points: 6
#     Node 7, Type 0, BuildingBlock: MIFKUJ_clean_sbu_0, # of connection points: 6
#     Node 8, Type 1, BuildingBlock: GIZVER_clean_sbu_0, # of connection points: 8
#     Node 9, Type 1, BuildingBlock: GIZVER_clean_sbu_0, # of connection points: 8
#     Node 10, Type 1, BuildingBlock: GIZVER_clean_sbu_0, # of connection points: 8
#     Node 11, Type 1, BuildingBlock: GIZVER_clean_sbu_0, # of connection points: 8
#     Node 12, Type 1, BuildingBlock: GIZVER_clean_sbu_0, # of connection points: 8
#     Node 13, Type 1, BuildingBlock: GIZVER_clean_sbu_0, # of connection points: 8
#     Edge 14, Type (0, 1), BuildingBlock: OJICUG_clean_linker_0, # of connection points: 2
#     Edge 15, Type (0, 1), BuildingBlock: OJICUG_clean_linker_0, # of connection points: 2
#     Edge 16, Type (0, 1), BuildingBlock: OJICUG_clean_linker_0, # of connection points: 2
#     Edge 17, Type (0, 1), BuildingBlock: OJICUG_clean_linker_0, # of connection points: 2
#     Edge 18, Type (0, 1), BuildingBlock: OJICUG_clean_linker_0, # of connection points: 2
#     Edge 19, Type (0, 1), BuildingBlock: OJICUG_clean_linker_0, # of connection points: 2
#     Edge 20, Type (0, 1), BuildingBlock: OJICUG_clean_linker_0, # of connection points: 2
#     Edge 21, Type (0, 1), BuildingBlock: OJICUG_clean_linker_0, # of connection points: 2
#     Edge 22, Type (0, 1), BuildingBlock: OJICUG_clean_linker_0, # of connection points: 2
#     Edge 23, Type (0, 1), BuildingBlock: OJICUG_clean_linker_0, # of connection points: 2
#     Edge 24, Type (0, 1), BuildingBlock: OJICUG_clean_linker_0, # of connection points: 2
#     Edge 25, Type (0, 1), BuildingBlock: OJICUG_clean_linker_0, # of connection points: 2
#     Edge 26, Type (0, 1), BuildingBlock: OJICUG_clean_linker_0, # of connection points: 2
#     Edge 27, Type (0, 1), BuildingBlock: OJICUG_clean_linker_0, # of connection points: 2
#     Edge 28, Type (0, 1), BuildingBlock: OJICUG_clean_linker_0, # of connection points: 2
#     Edge 29, Type (0, 1), BuildingBlock: OJICUG_clean_linker_0, # of connection points: 2
#     Edge 30, Type (0, 1), BuildingBlock: OJICUG_clean_linker_0, # of connection points: 2
#     Edge 31, Type (0, 1), BuildingBlock: OJICUG_clean_linker_0, # of connection points: 2
#     Edge 32, Type (0, 1), BuildingBlock: OJICUG_clean_linker_0, # of connection points: 2
#     Edge 33, Type (0, 1), BuildingBlock: OJICUG_clean_linker_0, # of connection points: 2
#     Edge 34, Type (0, 1), BuildingBlock: OJICUG_clean_linker_0, # of connection points: 2
#     Edge 35, Type (0, 1), BuildingBlock: OJICUG_clean_linker_0, # of connection points: 2
#     Edge 36, Type (0, 1), BuildingBlock: OJICUG_clean_linker_0, # of connection points: 2
#     Edge 37, Type (0, 1), BuildingBlock: OJICUG_clean_linker_0, # of connection points: 2
#     Edge 38, Type (0, 1), BuildingBlock: OJICUG_clean_linker_0, # of connection points: 2
#     Edge 39, Type (0, 1), BuildingBlock: OJICUG_clean_linker_0, # of connection points: 2
#     Edge 40, Type (0, 1), BuildingBlock: OJICUG_clean_linker_0, # of connection points: 2
#     Edge 41, Type (0, 1), BuildingBlock: OJICUG_clean_linker_0, # of connection points: 2
#     Edge 42, Type (0, 1), BuildingBlock: OJICUG_clean_linker_0, # of connection points: 2
#     Edge 43, Type (0, 1), BuildingBlock: OJICUG_clean_linker_0, # of connection points: 2
#     Edge 44, Type (0, 1), BuildingBlock: OJICUG_clean_linker_0, # of connection points: 2
#     Edge 45, Type (0, 1), BuildingBlock: OJICUG_clean_linker_0, # of connection points: 2
#     Edge 46, Type (0, 1), BuildingBlock: OJICUG_clean_linker_0, # of connection points: 2
#     Edge 47, Type (0, 1), BuildingBlock: OJICUG_clean_linker_0, # of connection points: 2
#     Edge 48, Type (0, 1), BuildingBlock: OJICUG_clean_linker_0, # of connection points: 2
#     Edge 49, Type (0, 1), BuildingBlock: OJICUG_clean_linker_0, # of connection points: 2
#     Edge 50, Type (0, 1), BuildingBlock: OJICUG_clean_linker_0, # of connection points: 2
#     Edge 51, Type (0, 1), BuildingBlock: OJICUG_clean_linker_0, # of connection points: 2
#     Edge 52, Type (0, 1), BuildingBlock: OJICUG_clean_linker_0, # of connection points: 2
#     Edge 53, Type (0, 1), BuildingBlock: OJICUG_clean_linker_0, # of connection points: 2
#     Edge 54, Type (0, 1), BuildingBlock: OJICUG_clean_linker_0, # of connection points: 2
#     Edge 55, Type (0, 1), BuildingBlock: OJICUG_clean_linker_0, # of connection points: 2
#     Edge 56, Type (0, 1), BuildingBlock: OJICUG_clean_linker_0, # of connection points: 2
#     Edge 57, Type (0, 1), BuildingBlock: OJICUG_clean_linker_0, # of connection points: 2
#     Edge 58, Type (0, 1), BuildingBlock: OJICUG_clean_linker_0, # of connection points: 2
#     Edge 59, Type (0, 1), BuildingBlock: OJICUG_clean_linker_0, # of connection points: 2
#     Edge 60, Type (0, 1), BuildingBlock: OJICUG_clean_linker_0, # of connection points: 2
#     Edge 61, Type (0, 1), BuildingBlock: OJICUG_clean_linker_0, # of connection points: 2
# Relax obj value: 0.110
# Max RMSD: 0.215
# Mean RMSD: 0.161
data_MOF--net-ocu--node1-MIFKUJ_clean_sbu_0--node2-GIZVER_clean_sbu_0--edge1-OJICUG_clean_linker_0
_symmetry_space_group_name_H-M    P1
_symmetry_Int_Tables_number       1
_symmetry_cell_setting            triclinic
loop_
_symmetry_equiv_pos_as_xyz
'x, y, z'
_cell_length_a     33.191245
_cell_length_b     34.859393
_cell_length_c     22.557721
_cell_angle_alpha  92.042346
_cell_angle_beta   93.690704
_cell_angle_gamma 113.38327
loop_
_atom_site_label
_atom_site_type_symbol
_atom_site_fract_x
_atom_site_fract_y
_atom_site_fract_z
_atom_type_partial_charge
Zn0 Zn 0.21182 0.29598 0.24955 0.0
Zn1 Zn 0.28878 0.22931 0.26818 0.0
C2 C 0.21083 0.35984 0.34953 0.0
O3 O 0.25183 0.37152 0.37164 0.0
C4 C 0.33861 0.20858 0.19097 0.0
O5 O 0.36493 0.24497 0.21729 0.0
O6 O 0.1722 0.29878 0.17846 0.0
O7 O 0.27657 0.32838 0.22824 0.0
O8 O 0.31526 0.28963 0.23859 0.0
C9 C 0.18877 0.32411 0.13865 0.0
O10 O 0.23107 0.33691 0.13261 0.0
O11 O 0.1956 0.3326 0.3059 0.0
C12 C 0.31511 0.20141 0.37789 0.0
O13 O 0.27406 0.19193 0.38899 0.0
O14 O 0.33 0.22313 0.33398 0.0
O15 O 0.2257 0.1996 0.29538 0.0
O16 O 0.18562 0.23719 0.2852 0.0
O17 O 0.29854 0.19296 0.20307 0.0
C18 C 0.31251 0.32368 0.22413 0.0
C19 C 0.18985 0.20407 0.3015 0.0
Zn20 Zn 0.7608 0.31796 0.21765 0.0
Zn21 Zn 0.75744 0.22358 0.327 0.0
C22 C 0.7057 0.34812 0.15383 0.0
O23 O 0.71445 0.32625 0.11177 0.0
C24 C 0.82369 0.20089 0.3833 0.0
O25 O 0.81656 0.22176 0.42818 0.0
O26 O 0.82049 0.35198 0.19791 0.0
O27 O 0.76972 0.30268 0.29893 0.0
O28 O 0.782 0.27863 0.38083 0.0
C29 C 0.83706 0.38804 0.22505 0.0
O30 O 0.81259 0.40107 0.25686 0.0
O31 O 0.72267 0.35023 0.20676 0.0
C32 C 0.69516 0.14607 0.33117 0.0
O33 O 0.72301 0.13987 0.29724 0.0
O34 O 0.70544 0.18177 0.358 0.0
O35 O 0.72969 0.22317 0.24026 0.0
O36 O 0.72969 0.26381 0.16746 0.0
O37 O 0.80374 0.199 0.33234 0.0
C38 C 0.78657 0.31035 0.35219 0.0
C39 C 0.7158 0.22754 0.18756 0.0
Zn40 Zn 0.78747 0.72424 0.26586 0.0
Zn41 Zn 0.71817 0.80604 0.26295 0.0
C42 C 0.84207 0.70644 0.34807 0.0
O43 O 0.87073 0.73546 0.31888 0.0
C44 C 0.6635 0.82248 0.17945 0.0
O45 O 0.63525 0.7916 0.20636 0.0
O46 O 0.82336 0.71398 0.20268 0.0
O47 O 0.7244 0.6938 0.23709 0.0
O48 O 0.70092 0.74486 0.23954 0.0
C49 C 0.81099 0.6752 0.18744 0.0
O50 O 0.77588 0.64821 0.20945 0.0
O51 O 0.80126 0.69691 0.33563 0.0
C52 C 0.69562 0.85433 0.34682 0.0
O53 O 0.73307 0.88177 0.33098 0.0
O54 O 0.68215 0.81644 0.32602 0.0
O55 O 0.78135 0.83675 0.29156 0.0
O56 O 0.80291 0.78472 0.28801 0.0
O57 O 0.70439 0.83384 0.19377 0.0
C58 C 0.69413 0.70684 0.227 0.0
C59 C 0.81097 0.82288 0.30112 0.0
Zn60 Zn 0.21302 0.78638 0.26641 0.0
Zn61 Zn 0.28954 0.748 0.24532 0.0
C62 C 0.14815 0.71902 0.31563 0.0
O63 O 0.12415 0.73788 0.29257 0.0
C64 C 0.32502 0.8248 0.17937 0.0
O65 O 0.28492 0.82288 0.1685 0.0
O66 O 0.18134 0.82233 0.28855 0.0
O67 O 0.27527 0.82272 0.28949 0.0
O68 O 0.29845 0.77767 0.32936 0.0
C69 C 0.18657 0.83467 0.34331 0.0
O70 O 0.20938 0.82138 0.38077 0.0
O71 O 0.18965 0.73504 0.31241 0.0
C72 C 0.30687 0.68178 0.18826 0.0
O73 O 0.27867 0.68606 0.14831 0.0
O74 O 0.3167 0.70433 0.23735 0.0
O75 O 0.22892 0.72101 0.19859 0.0
O76 O 0.19805 0.76578 0.18192 0.0
O77 O 0.33116 0.79533 0.20429 0.0
C78 C 0.29754 0.81403 0.33038 0.0
C79 C 0.20006 0.73071 0.17061 0.0
Zn80 Zn 0.2532 0.80487 0.70606 0.0
Zn81 Zn 0.24713 0.71087 0.81746 0.0
C82 C 0.18638 0.82598 0.64772 0.0
O83 O 0.19311 0.80414 0.60371 0.0
C84 C 0.30314 0.6816 0.88222 0.0
O85 O 0.29479 0.70368 0.92438 0.0
O86 O 0.30609 0.84588 0.67662 0.0
O87 O 0.27781 0.80406 0.79368 0.0
O88 O 0.27657 0.76492 0.86868 0.0
C89 C 0.31648 0.8822 0.70127 0.0
O90 O 0.2882 0.88989 0.73262 0.0
O91 O 0.20699 0.82927 0.69857 0.0
C92 C 0.17239 0.63917 0.80641 0.0
O93 O 0.19896 0.62777 0.77655 0.0
O94 O 0.18677 0.67516 0.83369 0.0
O95 O 0.2408 0.7269 0.7359 0.0
O96 O 0.23012 0.75019 0.65254 0.0
O97 O 0.2859 0.67939 0.82944 0.0
C98 C 0.29097 0.80076 0.8472 0.0
C99 C 0.22523 0.71884 0.6821 0.0
Zn100 Zn 0.29148 0.21797 0.76431 0.0
Zn101 Zn 0.22515 0.29924 0.76154 0.0
C102 C 0.32993 0.20003 0.87206 0.0
O103 O 0.35333 0.24058 0.8762 0.0
C104 C 0.17213 0.32204 0.68372 0.0
O105 O 0.14322 0.29068 0.7091 0.0
O106 O 0.32782 0.20595 0.70402 0.0
O107 O 0.22911 0.19222 0.72932 0.0
O108 O 0.20098 0.24006 0.73072 0.0
C109 C 0.31364 0.1685 0.6814 0.0
O110 O 0.27508 0.14143 0.69456 0.0
O111 O 0.2984 0.1845 0.83158 0.0
C112 C 0.20361 0.34617 0.84544 0.0
O113 O 0.23962 0.37377 0.82618 0.0
O114 O 0.19071 0.30798 0.82686 0.0
O115 O 0.28836 0.32529 0.78958 0.0
O116 O 0.31923 0.27932 0.79071 0.0
O117 O 0.21291 0.33188 0.69723 0.0
C118 C 0.19758 0.20325 0.71759 0.0
C119 C 0.32144 0.31629 0.80008 0.0
Zn120 Zn 0.71317 0.27715 0.77905 0.0
Zn121 Zn 0.79918 0.24387 0.7517 0.0
C122 C 0.68134 0.19519 0.82954 0.0
O123 O 0.71575 0.1903 0.81107 0.0
C124 C 0.87442 0.31294 0.71632 0.0
O125 O 0.89593 0.28968 0.73095 0.0
O126 O 0.68523 0.31965 0.79281 0.0
O127 O 0.77655 0.30671 0.81453 0.0
O128 O 0.79715 0.25616 0.83836 0.0
C129 C 0.69759 0.3433 0.84094 0.0
O130 O 0.72868 0.34074 0.87753 0.0
O131 O 0.67801 0.23011 0.82627 0.0
C132 C 0.82854 0.19479 0.68295 0.0
O133 O 0.81104 0.2114 0.64295 0.0
O134 O 0.83058 0.20604 0.73773 0.0
O135 O 0.74298 0.21511 0.70171 0.0
O136 O 0.69746 0.24739 0.69518 0.0
O137 O 0.83308 0.29905 0.71973 0.0
C138 C 0.80007 0.29333 0.84756 0.0
C139 C 0.7087 0.21796 0.67822 0.0
Zn140 Zn 0.71816 0.79694 0.76106 0.0
Zn141 Zn 0.78822 0.72176 0.76161 0.0
C142 C 0.66839 0.81906 0.83703 0.0
O143 O 0.64163 0.78309 0.80998 0.0
C144 C 0.83704 0.69787 0.68557 0.0
O145 O 0.86407 0.73421 0.71138 0.0
O146 O 0.67802 0.80348 0.69425 0.0
O147 O 0.78164 0.82503 0.73452 0.0
O148 O 0.81749 0.7832 0.73408 0.0
C149 C 0.69367 0.82541 0.65082 0.0
O150 O 0.73495 0.83493 0.64092 0.0
O151 O 0.70863 0.83404 0.82558 0.0
C152 C 0.80869 0.67208 0.83797 0.0
O153 O 0.77094 0.64832 0.80862 0.0
O154 O 0.82599 0.71086 0.82812 0.0
O155 O 0.72534 0.69482 0.79157 0.0
O156 O 0.69031 0.73707 0.79119 0.0
O157 O 0.79655 0.68443 0.69566 0.0
C158 C 0.81583 0.81855 0.72415 0.0
C159 C 0.69167 0.70196 0.80247 0.0
Co160 Co 0.04941 0.94349 0.47944 0.0
Co161 Co 0.05247 0.96433 0.58932 0.0
Co162 Co 1.00327 1.011 0.51319 0.0
O163 O 0.05288 0.99273 0.52263 0.0
H164 H 0.08114 0.01585 0.52158 0.0
O165 O 0.95353 0.02934 0.50394 0.0
Co166 Co 0.95793 0.07859 0.54816 0.0
Co167 Co 0.95375 0.05838 0.43805 0.0
H168 H 0.92524 1.00631 0.50519 0.0
O169 O 0.10341 0.96525 0.6251 0.0
O170 O 0.0565 0.91716 0.55513 0.0
O171 O 1.00102 0.94583 0.63094 0.0
O172 O 0.96074 0.96487 0.56485 0.0
O173 O 0.02951 0.04904 0.58513 0.0
O174 O 0.95803 0.12134 0.59144 0.0
O175 O 0.89988 0.06214 0.55768 0.0
O176 O 0.01956 0.10204 0.54647 0.0
O177 O 0.04572 0.05713 0.4613 0.0
O178 O 0.00518 0.07676 0.39635 0.0
O179 O 0.95021 0.10558 0.47339 0.0
O180 O 0.90283 0.05838 0.40296 0.0
C181 C 0.09222 0.92431 0.44102 0.0
C182 C 0.96652 0.93378 0.44264 0.0
C183 C 0.96392 0.94403 0.61029 0.0
C184 C 0.09064 0.92945 0.59463 0.0
C185 C 0.91618 0.09812 0.5888 0.0
C186 C 0.04104 0.08818 0.58209 0.0
C187 C 0.04235 0.0783 0.4163 0.0
C188 C 0.91604 0.09397 0.43406 0.0
O189 O 0.05041 0.90076 0.43736 0.0
O190 O 0.10776 0.96039 0.47181 0.0
O191 O 0.97735 0.97298 0.44122 0.0
O192 O 0.98731 0.91959 0.47893 0.0
Co193 Co 0.54038 0.93741 0.98447 0.0
Co194 Co 0.55978 0.97668 0.09045 0.0
Co195 Co 0.50431 0.01448 0.01391 0.0
O196 O 0.55078 0.99259 0.0147 0.0
H197 H 0.57828 0.01311 1.00343 0.0
O198 O 0.45772 0.03614 0.01379 0.0
Co199 Co 0.46784 0.09101 0.04483 0.0
Co200 Co 0.4481 0.05209 0.93895 0.0
H201 H 0.43028 0.01549 0.02501 0.0
O202 O 0.61258 0.97428 0.1147 0.0
O203 O 0.55266 0.92316 0.06613 0.0
O204 O 0.51587 0.96908 0.14583 0.0
O205 O 0.47118 0.97809 0.07568 0.0
O206 O 0.54302 0.05975 0.07528 0.0
O207 O 0.47157 0.14 0.07458 0.0
O208 O 0.41164 0.07915 0.06213 0.0
O209 O 0.52989 0.11093 0.03434 0.0
O210 O 0.53736 0.05078 0.95152 0.0
O211 O 0.49088 0.05879 0.88281 0.0
O212 O 0.45341 0.10503 0.96347 0.0
O213 O 0.39459 0.05221 0.91523 0.0
C214 C 0.57858 0.90895 0.95146 0.0
C215 C 0.45322 0.93031 0.96172 0.0
C216 C 0.47776 0.96492 0.12564 0.0
C217 C 0.59194 0.93569 0.09354 0.0
C218 C 0.42975 0.11893 0.07938 0.0
C219 C 0.55498 0.09871 0.06681 0.0
C220 C 0.5293 0.06285 0.90124 0.0
C221 C 0.41352 0.09078 0.93714 0.0
O222 O 0.5366 0.88815 0.95549 0.0
O223 O 0.59684 0.9487 0.96887 0.0
O224 O 0.46548 0.96919 0.95259 0.0
O225 O 0.47839 0.91799 0.99369 0.0
Co226 Co 0.04542 0.4338 0.98424 0.0
Co227 Co 0.07141 0.47797 0.08531 0.0
Co228 Co 1.0038 0.5087 1.01071 0.0
O229 O 0.05252 0.48913 1.01092 0.0
H230 H 0.07775 0.50983 0.9947 0.0
O231 O 0.95473 0.52777 1.01068 0.0
Co232 Co 0.9616 0.58319 0.03517 0.0
Co233 Co 0.9362 0.53778 0.93611 0.0
H234 H 0.92963 0.50722 0.02734 0.0
O235 O 0.12612 0.47489 0.10189 0.0
O236 O 0.06244 0.42296 0.06589 0.0
O237 O 0.03552 0.47832 0.14797 0.0
O238 O 0.98236 0.48382 0.08695 0.0
O239 O 0.04527 0.56094 0.05588 0.0
O240 O 0.96186 0.63243 0.06137 0.0
O241 O 0.90704 0.56815 0.05809 0.0
O242 O 0.02109 0.60597 0.01582 0.0
O243 O 0.02555 0.53376 0.93472 0.0
O244 O 0.9726 0.53901 0.87341 0.0
O245 O 0.94147 0.59185 0.95363 0.0
O246 O 0.8803 0.53588 0.91897 0.0
C247 C 0.08651 0.40972 0.94955 0.0
C248 C 0.9552 0.41937 0.97434 0.0
C249 C 0.99739 0.47804 0.13783 0.0
C250 C 0.10321 0.43541 0.08727 0.0
C251 C 0.92174 0.60833 0.07165 0.0
C252 C 0.05125 0.59814 0.04372 0.0
C253 C 0.01099 0.54009 0.88393 0.0
C254 C 0.90049 0.57598 0.93178 0.0
O255 O 0.04585 0.38518 0.95664 0.0
O256 O 0.1007 0.44962 0.96461 0.0
O257 O 0.9621 0.45711 0.96483 0.0
O258 O 0.98497 0.40993 1.0 0.0
Co259 Co 0.55275 0.44753 0.97885 0.0
Co260 Co 0.55314 0.46603 0.08832 0.0
Co261 Co 0.50372 0.51391 0.01662 0.0
O262 O 0.55429 0.4962 0.02372 0.0
H263 H 0.58244 0.51969 0.02427 0.0
O264 O 0.45329 0.53158 1.00956 0.0
Co265 Co 0.45493 0.58005 0.05474 0.0
Co266 Co 0.45391 0.56155 0.9451 0.0
H267 H 0.42516 0.50809 1.00916 0.0
O268 O 0.60455 0.4721 0.12624 0.0
O269 O 0.5627 0.42211 0.05421 0.0
O270 O 0.50111 0.44441 0.12898 0.0
O271 O 0.46184 0.46849 0.06927 0.0
O272 O 0.53063 0.55297 0.08767 0.0
O273 O 0.45259 0.62228 0.0984 0.0
O274 O 0.39629 0.56187 0.06533 0.0
O275 O 0.51684 0.60545 0.05276 0.0
O276 O 0.54545 0.55929 0.96373 0.0
O277 O 0.50561 0.58283 0.90399 0.0
O278 O 0.44484 0.60564 0.97969 0.0
O279 O 0.40231 0.55581 0.90792 0.0
C280 C 0.59639 0.42892 0.9377 0.0
C281 C 0.4688 0.43608 0.94549 0.0
C282 C 0.46451 0.44542 0.11194 0.0
C283 C 0.59622 0.43734 0.09489 0.0
C284 C 0.41098 0.59807 0.09605 0.0
C285 C 0.53968 0.592 0.08695 0.0
C286 C 0.54236 0.58206 0.92086 0.0
C287 C 0.41107 0.59062 0.9394 0.0
O288 O 0.55473 0.40507 0.93567 0.0
O289 O 0.6115 0.46526 0.9682 0.0
O290 O 0.47677 0.47492 0.94566 0.0
O291 O 0.4911 0.42264 0.98059 0.0
Co292 Co 0.08766 0.47744 0.53756 0.0
Co293 Co 0.06147 0.47785 0.43055 0.0
Co294 Co 0.00774 0.51503 0.51473 0.0
O295 O 0.03353 0.47365 0.49838 0.0
H296 H 0.01113 0.44553 0.49813 0.0
O297 O 0.98217 0.55632 0.5311 0.0
Co298 Co 0.92733 0.55222 0.49468 0.0
Co299 Co 0.95705 0.55363 0.60115 0.0
H300 H 1.00441 0.58439 0.52987 0.0
O301 O 0.06027 0.43085 0.39058 0.0
O302 O 0.11233 0.47363 0.46015 0.0
O303 O 0.07564 0.52877 0.39397 0.0
O304 O 0.03859 0.55419 0.45205 0.0
O305 O 0.95658 0.48051 0.45523 0.0
O306 O 0.879 0.55446 0.45943 0.0
O307 O 0.94461 0.60716 0.48773 0.0
O308 O 0.9027 0.49233 0.49508 0.0
O309 O 0.97751 0.47636 0.57773 0.0
O310 O 0.94612 0.50428 0.64154 0.0
O311 O 0.9056 0.55782 0.5742 0.0
O312 O 0.96085 0.60215 0.63898 0.0
C313 C 0.10982 0.43514 0.56995 0.0
C314 C 0.0992 0.56044 0.5688 0.0
C315 C 0.06378 0.55761 0.41002 0.0
C316 C 0.09838 0.44182 0.42062 0.0
C317 C 0.90446 0.59424 0.46322 0.0
C318 C 0.91562 0.46918 0.46304 0.0
C319 C 0.9561 0.47457 0.62351 0.0
C320 C 0.9222 0.59147 0.61056 0.0
O321 O 0.13503 0.47496 0.57526 0.0
O322 O 0.07027 0.42228 0.54325 0.0
O323 O 0.05814 0.5494 0.57476 0.0
O324 O 0.11267 0.53717 0.5382 0.0
Co325 Co 0.58223 0.97352 0.54619 0.0
Co326 Co 0.53145 0.94855 0.44629 0.0
Co327 Co 0.50395 1.01207 0.51185 0.0
O328 O 0.52316 0.96599 0.52223 0.0
H329 H 0.50159 0.94275 0.54021 0.0
O330 O 0.48529 0.05859 0.5012 0.0
Co331 Co 0.42672 0.05232 0.47818 0.0
Co332 Co 0.47826 0.07646 0.57735 0.0
H333 H 0.50699 0.08167 0.48311 0.0
O334 O 0.53465 0.89778 0.4295 0.0
O335 O 0.59048 0.95894 0.4621 0.0
O336 O 0.52795 0.98122 0.38017 0.0
O337 O 0.54157 0.03435 0.4459 0.0
O338 O 0.45541 0.97453 0.45537 0.0
O339 O 0.37467 0.05342 0.45553 0.0
O340 O 0.44199 0.10633 0.46276 0.0
O341 O 0.40261 0.99214 0.48726 0.0
O342 O 0.46646 0.9901 0.57807 0.0
O343 O 0.48294 0.04414 0.64325 0.0
O344 O 0.41913 0.06584 0.56281 0.0
O345 O 0.47495 0.1271 0.59493 0.0
C346 C 0.60993 0.9339 0.57533 0.0
C347 C 0.59234 0.0601 0.56009 0.0
C348 C 0.54154 0.02016 0.39322 0.0
C349 C 0.57662 0.92035 0.43948 0.0
C350 C 0.39951 0.09281 0.45078 0.0
C351 C 0.41514 0.96541 0.46282 0.0
C352 C 0.46833 1.00505 0.63093 0.0
C353 C 0.43298 0.10423 0.58598 0.0
O354 O 0.63453 0.97329 0.56999 0.0
O355 O 0.56748 0.91997 0.56294 0.0
O356 O 0.55208 0.04923 0.56873 0.0
O357 O 0.60592 0.03407 0.53574 0.0
C358 C 0.11121 0.17263 0.33095 0.0
C359 C 0.15281 0.17091 0.33096 0.0
H360 H 0.04546 0.14602 0.3568 0.0
C361 C 0.15839 0.13794 0.36086 0.0
H362 H 0.10504 0.19718 0.3091 0.0
C363 C 0.12364 0.10815 0.3898 0.0
C364 C 0.08182 0.1098 0.38871 0.0
H365 H 0.18979 0.1352 0.36232 0.0
H366 H 0.12936 0.08354 0.41209 0.0
C367 C 0.07665 0.14279 0.35867 0.0
C368 C 0.87837 0.18344 0.44652 0.0
C369 C 0.85007 0.17571 0.39419 0.0
H370 H 0.92209 0.16423 0.4998 0.0
C371 C 0.84476 0.14176 0.35457 0.0
H372 H 0.88308 0.20936 0.47803 0.0
C373 C 0.86622 0.1154 0.36777 0.0
C374 C 0.89413 0.12273 0.42041 0.0
H375 H 0.82297 0.13476 0.31414 0.0
H376 H 0.86078 0.08913 0.33657 0.0
C377 C 0.90062 0.15753 0.45913 0.0
C378 C 0.87847 0.83461 0.36764 0.0
C379 C 0.85323 0.85082 0.33257 0.0
H380 H 0.93428 0.84819 0.43046 0.0
C381 C 0.86642 0.89435 0.33231 0.0
H382 H 0.86831 0.8012 0.36986 0.0
C383 C 0.90366 0.9212 0.3674 0.0
C384 C 0.92836 0.90505 0.40375 0.0
H385 H 0.84745 0.90769 0.30579 0.0
H386 H 0.91252 0.95462 0.36681 0.0
C387 C 0.91582 0.86151 0.40296 0.0
C388 C 0.12869 0.86295 0.33322 0.0
C389 C 0.16587 0.86208 0.36528 0.0
H390 H 0.07617 0.88378 0.33283 0.0
C391 C 0.18187 0.88617 0.41967 0.0
H392 H 0.11576 0.84477 0.29118 0.0
C393 C 0.15983 0.90948 0.44273 0.0
C394 C 0.12105 0.908 0.41228 0.0
H395 H 0.21081 0.88628 0.44493 0.0
H396 H 0.17153 0.92648 0.48581 0.0
C397 C 0.10615 0.88531 0.35693 0.0
C398 C 0.16396 0.88438 0.67503 0.0
C399 C 0.15929 0.85034 0.63602 0.0
H400 H 0.14652 0.93622 0.6921 0.0
C401 C 0.13071 0.84159 0.5838 0.0
H402 H 0.18591 0.89213 0.7154 0.0
C403 C 0.10756 0.86663 0.57067 0.0
C404 C 0.11338 0.9015 0.60881 0.0
H405 H 0.12646 0.81555 0.55279 0.0
H406 H 0.0859 0.85919 0.53009 0.0
C407 C 0.14157 0.90984 0.66135 0.0
C408 C 0.14703 0.13034 0.68167 0.0
C409 C 0.15693 0.17345 0.68459 0.0
H410 H 0.10226 0.06935 0.64698 0.0
C411 C 0.12839 0.18821 0.65381 0.0
H412 H 0.16856 0.11815 0.70486 0.0
C413 C 0.09066 0.16045 0.62054 0.0
C414 C 0.08072 0.11736 0.61759 0.0
H415 H 0.13562 0.22132 0.65426 0.0
H416 H 0.06939 0.1728 0.59706 0.0
C417 C 0.10908 0.10247 0.64864 0.0
C418 C 0.88251 0.16193 0.69643 0.0
C419 C 0.84668 0.16471 0.66341 0.0
H420 H 0.93285 0.13811 0.69781 0.0
C421 C 0.82994 0.1404 0.60933 0.0
H422 H 0.89591 0.18029 0.73824 0.0
C423 C 0.85019 0.11523 0.58713 0.0
C424 C 0.88809 0.11512 0.61803 0.0
H425 H 0.80197 0.14178 0.58337 0.0
H426 H 0.83815 0.09834 0.54404 0.0
C427 C 0.90346 0.13776 0.67344 0.0
C428 C 0.84882 0.88635 0.6689 0.0
C429 C 0.85331 0.85176 0.69547 0.0
H430 H 0.8787 0.94185 0.62013 0.0
C431 C 0.89389 0.84827 0.69208 0.0
H432 H 0.81826 0.8905 0.67015 0.0
C433 C 0.92852 0.87797 0.66423 0.0
C434 C 0.92431 0.91247 0.63738 0.0
H435 H 0.89921 0.82249 0.71139 0.0
H436 H 0.95899 0.87352 0.66344 0.0
C437 C 0.88353 0.91592 0.63973 0.0
C438 C 0.3376 0.14128 0.14433 0.0
C439 C 0.35786 0.1851 0.15456 0.0
H440 H 0.34461 0.08554 0.1125 0.0
C441 C 0.39989 0.20668 0.13523 0.0
H442 H 0.30522 0.12382 0.15884 0.0
C443 C 0.42235 0.18501 0.10949 0.0
C444 C 0.40341 0.14109 0.10221 0.0
H445 H 0.41622 0.24048 0.14169 0.0
H446 H 0.45512 0.20285 0.09645 0.0
C447 C 0.36025 0.11939 0.11821 0.0
C448 C 0.9141 0.39738 0.21631 0.0
C449 C 0.88295 0.41506 0.21946 0.0
H450 H 0.97767 0.4056 0.19043 0.0
C451 C 0.89489 0.45756 0.21045 0.0
H452 H 0.90544 0.36469 0.22424 0.0
C453 C 0.93582 0.48068 0.19033 0.0
C454 C 0.96522 0.46163 0.18109 0.0
H455 H 0.87121 0.47167 0.21325 0.0
H456 H 0.94288 0.51208 0.17683 0.0
C457 C 0.9555 0.42087 0.19802 0.0
C458 C 0.67491 0.89204 0.14216 0.0
C459 C 0.64765 0.8495 0.14503 0.0
H460 H 0.67833 0.95292 0.12377 0.0
C461 C 0.60328 0.83464 0.1227 0.0
H462 H 0.70928 0.90436 0.15898 0.0
C463 C 0.58563 0.86243 0.10205 0.0
C464 C 0.61198 0.90553 0.10451 0.0
H465 H 0.5817 0.80187 0.12395 0.0
H466 H 0.55082 0.85047 0.08767 0.0
C467 C 0.65711 0.9199 0.12248 0.0
C468 C 0.16298 0.65724 0.12617 0.0
C469 C 0.16504 0.69833 0.13071 0.0
H470 H 0.12569 0.59354 0.09476 0.0
C471 C 0.13133 0.70695 0.10103 0.0
H472 H 0.18832 0.64938 0.1484 0.0
C473 C 0.09521 0.6747 0.07008 0.0
C474 C 0.09205 0.63323 0.06858 0.0
H475 H 0.13201 0.73829 0.10343 0.0
H476 H 0.06894 0.68204 0.04957 0.0
C477 C 0.1269 0.62508 0.09554 0.0
C478 C 0.35266 0.82735 0.9292 0.0
C479 C 0.32908 0.83596 0.8809 0.0
H480 H 0.40962 0.84971 0.99188 0.0
C481 C 0.3453 0.87714 0.86244 0.0
H482 H 0.34159 0.79619 0.94517 0.0
C483 C 0.38476 0.90822 0.88954 0.0
C484 C 0.40931 0.89884 0.93578 0.0
H485 H 0.32792 0.88529 0.82651 0.0
H486 H 0.39665 0.93925 0.87304 0.0
C487 C 0.39213 0.85815 0.95592 0.0
C488 C 0.19002 0.40318 0.89881 0.0
C489 C 0.17499 0.36078 0.87896 0.0
H490 H 0.17392 0.45183 0.93647 0.0
C491 C 0.13122 0.33386 0.88606 0.0
H492 H 0.22365 0.42469 0.89437 0.0
C493 C 0.10251 0.34954 0.90997 0.0
C494 C 0.1171 0.39238 0.92719 0.0
H495 H 0.11866 0.30102 0.87116 0.0
H496 H 0.06868 0.32828 0.91363 0.0
C497 C 0.16141 0.4188 0.92266 0.0
C498 C 0.60035 0.15704 0.8261 0.0
C499 C 0.64252 0.1586 0.84266 0.0
H500 H 0.53102 0.12421 0.82933 0.0
C501 C 0.64681 0.12493 0.87034 0.0
H502 H 0.59624 0.18219 0.80311 0.0
C503 C 0.60933 0.09165 0.88562 0.0
C504 C 0.56718 0.09129 0.8721 0.0
H505 H 0.67906 0.12526 0.8825 0.0
H506 H 0.61342 0.06716 0.91035 0.0
C507 C 0.56297 0.12346 0.8401 0.0
C508 C 0.80897 0.60989 0.88782 0.0
C509 C 0.83232 0.65145 0.87358 0.0
H510 H 0.81224 0.55364 0.91752 0.0
C511 C 0.87825 0.66996 0.88649 0.0
H512 H 0.77345 0.59488 0.87938 0.0
C513 C 0.90061 0.64611 0.90894 0.0
C514 C 0.87728 0.60346 0.91817 0.0
H515 H 0.89709 0.70193 0.87603 0.0
H516 H 0.93623 0.66035 0.91573 0.0
C517 C 0.83118 0.58614 0.90957 0.0
C518 C 0.11936 0.3361 0.11838 0.0
C519 C 0.16501 0.34925 0.11507 0.0
H520 H 0.06379 0.35306 0.11114 0.0
C521 C 0.18918 0.38974 0.09715 0.0
H522 H 0.09985 0.30514 0.13204 0.0
C523 C 0.16888 0.41746 0.08721 0.0
C524 C 0.12375 0.40495 0.09325 0.0
H525 H 0.2244 0.40103 0.0941 0.0
H526 H 0.18869 0.44895 0.07569 0.0
C527 C 0.0988 0.36356 0.10673 0.0
C528 C 0.09388 0.62584 0.81246 0.0
C529 C 0.12675 0.61027 0.80976 0.0
H530 H 0.02861 0.61362 0.83521 0.0
C531 C 0.11649 0.56769 0.81628 0.0
H532 H 0.10119 0.65856 0.80632 0.0
C533 C 0.0753 0.54222 0.83352 0.0
C534 C 0.04395 0.55901 0.84239 0.0
H535 H 0.14146 0.55514 0.8137 0.0
H536 H 0.06938 0.51065 0.84525 0.0
C537 C 0.05227 0.60005 0.82784 0.0
C538 C 0.32492 0.12841 0.89121 0.0
C539 C 0.34751 0.17199 0.90122 0.0
H540 H 0.32812 0.06863 0.89478 0.0
C541 C 0.3901 0.1883 0.93075 0.0
H542 H 0.2919 0.11481 0.86916 0.0
C543 C 0.41114 0.16175 0.94497 0.0
C544 C 0.3898 0.11851 0.9302 0.0
H545 H 0.4083 0.22176 0.93952 0.0
H546 H 0.44477 0.17535 0.96492 0.0
C547 C 0.34587 0.10195 0.90552 0.0
C548 C 0.87013 0.31298 0.91413 0.0
C549 C 0.83762 0.32412 0.88606 0.0
H550 H 0.93294 0.33435 0.96459 0.0
C551 C 0.84252 0.36605 0.89207 0.0
H552 H 0.86729 0.28092 0.91053 0.0
C553 C 0.87982 0.39644 0.92301 0.0
C554 C 0.91337 0.38581 0.9487 0.0
H555 H 0.81813 0.37583 0.87133 0.0
H556 H 0.88287 0.42859 0.9252 0.0
C557 C 0.9077 0.34358 0.94521 0.0
C558 C 0.67015 0.88633 0.88508 0.0
C559 C 0.64958 0.84256 0.87426 0.0
H560 H 0.66367 0.94209 0.91806 0.0
C561 C 0.60766 0.82106 0.894 0.0
H562 H 0.70245 0.90373 0.87028 0.0
C563 C 0.5856 0.84276 0.92072 0.0
C564 C 0.60479 0.88666 0.92849 0.0
H565 H 0.59112 0.78729 0.88712 0.0
H566 H 0.55287 0.82499 0.93395 0.0
C567 C 0.64787 0.90826 0.9121 0.0
C568 C 0.88109 0.68598 0.14052 0.0
C569 C 0.83811 0.65955 0.15215 0.0
H570 H 0.94142 0.69051 0.10615 0.0
C571 C 0.82218 0.61675 0.13391 0.0
H572 H 0.89433 0.71908 0.15408 0.0
C573 C 0.84908 0.60039 0.10675 0.0
C574 C 0.89263 0.62641 0.09724 0.0
H575 H 0.78912 0.59553 0.14182 0.0
H576 H 0.83589 0.56713 0.09426 0.0
C577 C 0.90812 0.66954 0.11335 0.0
C578 C 0.35917 0.89525 0.13869 0.0
C579 C 0.36364 0.86336 0.17096 0.0
H580 H 0.39219 0.95372 0.10083 0.0
C581 C 0.4055 0.86894 0.19682 0.0
H582 H 0.32724 0.89219 0.1193 0.0
C583 C 0.44264 0.90442 0.18715 0.0
C584 C 0.43865 0.93482 0.15097 0.0
H585 H 0.40987 0.84536 0.22337 0.0
H586 H 0.47466 0.90656 0.20477 0.0
C587 C 0.39636 0.93069 0.12876 0.0
C588 C 0.65453 0.20201 0.10472 0.0
C589 C 0.6777 0.19273 0.15292 0.0
H590 H 0.59838 0.1804 0.04058 0.0
C591 C 0.66124 0.15119 0.17 0.0
H592 H 0.6657 0.23347 0.08981 0.0
C593 C 0.62224 0.12036 0.14128 0.0
C594 C 0.59826 0.13029 0.09483 0.0
H595 H 0.67807 0.14251 0.20605 0.0
H596 H 0.61028 0.08898 0.15662 0.0
C597 C 0.61547 0.17146 0.07646 0.0
C598 C 0.61283 0.67262 0.83066 0.0
C599 C 0.65397 0.6698 0.83195 0.0
H600 H 0.54702 0.6483 0.85638 0.0
C601 C 0.65855 0.63712 0.86364 0.0
H602 H 0.60743 0.6969 0.80708 0.0
C603 C 0.62326 0.60874 0.89334 0.0
C604 C 0.58197 0.61166 0.89139 0.0
H605 H 0.68971 0.63385 0.86638 0.0
H606 H 0.62823 0.58439 0.91732 0.0
C607 C 0.57776 0.64422 0.85923 0.0
C608 C 0.35888 0.6693 0.9501 0.0
C609 C 0.33141 0.65901 0.89668 0.0
H610 H 0.40645 0.65632 1.00514 0.0
C611 C 0.33067 0.62652 0.85763 0.0
H612 H 0.36018 0.69435 0.98102 0.0
C613 C 0.35644 0.60434 0.87198 0.0
C614 C 0.38407 0.6146 0.92526 0.0
H615 H 0.3097 0.61779 0.81631 0.0
H616 H 0.35484 0.57927 0.8409 0.0
C617 C 0.38537 0.64757 0.96397 0.0
C618 C 0.39806 0.33938 0.84852 0.0
C619 C 0.36174 0.34869 0.83091 0.0
H620 H 0.46015 0.35952 0.90017 0.0
C621 C 0.36261 0.38825 0.84783 0.0
H622 H 0.39914 0.30983 0.83458 0.0
C623 C 0.39795 0.41698 0.88414 0.0
C624 C 0.4328 0.40651 0.90478 0.0
H625 H 0.33541 0.39668 0.83457 0.0
H626 H 0.39725 0.44684 0.89763 0.0
C627 C 0.43302 0.36782 0.88595 0.0
C628 C 0.63206 0.36248 0.83434 0.0
C629 C 0.67438 0.3699 0.85986 0.0
H630 H 0.57445 0.37546 0.83916 0.0
C631 C 0.69281 0.40056 0.90767 0.0
H632 H 0.61683 0.33913 0.79769 0.0
C633 C 0.66872 0.42196 0.93099 0.0
C634 C 0.62542 0.41258 0.90764 0.0
H635 H 0.72546 0.40715 0.92831 0.0
H636 H 0.68306 0.44407 0.96924 0.0
C637 C 0.60776 0.38327 0.85831 0.0
C638 C 0.67702 0.40248 0.17795 0.0
C639 C 0.677 0.37024 0.13903 0.0
H640 H 0.65191 0.44912 0.19414 0.0
C641 C 0.64976 0.35967 0.08537 0.0
H642 H 0.69775 0.41138 0.21946 0.0
C643 C 0.62286 0.38092 0.07107 0.0
C644 C 0.62349 0.4137 0.10959 0.0
H645 H 0.64898 0.33477 0.05456 0.0
H646 H 0.60202 0.37198 0.0297 0.0
C647 C 0.65083 0.42419 0.16318 0.0
C648 C 0.63996 0.63447 0.19718 0.0
C649 C 0.65223 0.67784 0.19568 0.0
H650 H 0.59484 0.57339 0.16406 0.0
C651 C 0.62643 0.69288 0.15958 0.0
H652 H 0.65939 0.622 0.22447 0.0
C653 C 0.58934 0.66503 0.12476 0.0
C654 C 0.57766 0.62166 0.12529 0.0
H655 H 0.63597 0.7261 0.15612 0.0
H656 H 0.57046 0.67754 0.09653 0.0
C657 C 0.60303 0.60665 0.16243 0.0
C658 C 0.31303 0.62435 0.12396 0.0
C659 C 0.33059 0.6552 0.17161 0.0
H660 H 0.32426 0.58132 0.0633 0.0
C661 C 0.37287 0.66341 0.19804 0.0
H662 H 0.28047 0.61724 0.10261 0.0
C663 C 0.39807 0.64327 0.17484 0.0
C664 C 0.38129 0.61383 0.12553 0.0
H665 H 0.38745 0.68704 0.23449 0.0
H666 H 0.43138 0.65173 0.19447 0.0
C667 C 0.33796 0.60357 0.10152 0.0
C668 C 0.39291 0.35534 0.2023 0.0
C669 C 0.35113 0.3569 0.19739 0.0
H670 H 0.45976 0.3809 0.18061 0.0
C671 C 0.34679 0.38902 0.16405 0.0
H672 H 0.39825 0.3316 0.22732 0.0
C673 C 0.38274 0.41776 0.1358 0.0
C674 C 0.42453 0.41587 0.14089 0.0
H675 H 0.31536 0.39161 0.15882 0.0
H676 H 0.3778 0.44147 0.11022 0.0
C677 C 0.42863 0.38414 0.17515 0.0
C678 C 0.90149 0.68759 0.64918 0.0
C679 C 0.85598 0.67099 0.65558 0.0
H680 H 0.95765 0.67539 0.6302 0.0
C681 C 0.8311 0.62815 0.63976 0.0
H682 H 0.92173 0.72048 0.66006 0.0
C683 C 0.85201 0.60214 0.62155 0.0
C684 C 0.89806 0.61857 0.62002 0.0
H685 H 0.79598 0.61439 0.64407 0.0
H686 H 0.83259 0.56895 0.61198 0.0
C687 C 0.92224 0.6617 0.63219 0.0
C688 C 0.39367 0.90333 0.67706 0.0
C689 C 0.36058 0.9145 0.69758 0.0
H690 H 0.45671 0.92499 0.64276 0.0
C691 C 0.36969 0.95674 0.71245 0.0
H692 H 0.38802 0.87082 0.66751 0.0
C693 C 0.40935 0.98777 0.69898 0.0
C694 C 0.43977 0.97644 0.67061 0.0
H695 H 0.34499 0.96595 0.73 0.0
H696 H 0.41377 0.02026 0.70435 0.0
C697 C 0.43327 0.93421 0.66408 0.0
C698 C 0.11227 0.33616 0.62908 0.0
C699 C 0.15717 0.34906 0.64772 0.0
H700 H 0.06205 0.35334 0.58944 0.0
C701 C 0.18683 0.3894 0.6364 0.0
H702 H 0.0887 0.30513 0.63693 0.0
C703 C 0.17149 0.41712 0.60982 0.0
C704 C 0.12633 0.40481 0.59354 0.0
H705 H 0.22163 0.40019 0.65023 0.0
H706 H 0.19493 0.44844 0.60307 0.0
C707 C 0.097 0.36374 0.60191 0.0
C708 C 0.69655 0.15515 0.61041 0.0
C709 C 0.67957 0.18249 0.63629 0.0
H710 H 0.68277 0.09529 0.56602 0.0
C711 C 0.63397 0.17124 0.6299 0.0
H712 H 0.73152 0.16277 0.61412 0.0
C713 C 0.60594 0.13222 0.60243 0.0
C714 C 0.62286 0.10357 0.58064 0.0
H715 H 0.61973 0.19127 0.64949 0.0
H716 H 0.57074 0.12383 0.60067 0.0
C717 C 0.66859 0.11622 0.58284 0.0
C718 C 0.80621 0.37595 0.41836 0.0
C719 C 0.81827 0.3526 0.37642 0.0
H720 H 0.82703 0.43086 0.47815 0.0
C721 C 0.86248 0.3677 0.36301 0.0
H722 H 0.77259 0.3646 0.43047 0.0
C723 C 0.89396 0.40546 0.39066 0.0
C724 C 0.88209 0.42905 0.43287 0.0
H725 H 0.87286 0.34982 0.3318 0.0
H726 H 0.92769 0.41597 0.37919 0.0
C727 C 0.8376 0.41383 0.44589 0.0
C728 C 0.68228 0.91116 0.40227 0.0
C729 C 0.66662 0.86922 0.37943 0.0
H730 H 0.66627 0.96024 0.43951 0.0
C731 C 0.62199 0.84326 0.38239 0.0
H732 H 0.71661 0.93195 0.40117 0.0
C733 C 0.59313 0.85958 0.40412 0.0
C734 C 0.60829 0.90216 0.4236 0.0
H735 H 0.60888 0.8108 0.36538 0.0
H736 H 0.5586 0.83904 0.40377 0.0
C737 C 0.65343 0.92745 0.42422 0.0
C738 C 0.08504 0.66657 0.36264 0.0
C739 C 0.12652 0.67801 0.34031 0.0
H740 H 0.03255 0.61934 0.40286 0.0
C741 C 0.14639 0.64926 0.33944 0.0
H742 H 0.06903 0.68826 0.36362 0.0
C743 C 0.1251 0.60965 0.3603 0.0
C744 C 0.08392 0.5983 0.38358 0.0
H745 H 0.17812 0.65715 0.32184 0.0
H746 H 0.14147 0.58826 0.35943 0.0
C747 C 0.06414 0.62719 0.38486 0.0
C748 C 0.31582 0.14075 0.43282 0.0
C749 C 0.33903 0.17736 0.40429 0.0
H750 H 0.31648 0.08494 0.46849 0.0
C751 C 0.38334 0.18723 0.39439 0.0
H752 H 0.28161 0.13208 0.44103 0.0
C753 C 0.40347 0.16025 0.4108 0.0
C754 C 0.37933 0.12252 0.43611 0.0
H755 H 0.40206 0.21516 0.37241 0.0
H756 H 0.43741 0.1682 0.40176 0.0
C757 C 0.3356 0.11341 0.44794 0.0
C758 C 0.69395 0.88655 0.5963 0.0
C759 C 0.67021 0.84962 0.62383 0.0
H760 H 0.69374 0.94258 0.56077 0.0
C761 C 0.62565 0.8395 0.6323 0.0
H762 H 0.72838 0.8954 0.58925 0.0
C763 C 0.60572 0.86651 0.61543 0.0
C764 C 0.63026 0.9045 0.59102 0.0
H765 H 0.60653 0.81132 0.65348 0.0
H766 H 0.57152 0.85831 0.6233 0.0
C767 C 0.6743 0.91391 0.58066 0.0
C768 C 0.64281 0.07126 0.31756 0.0
C769 C 0.65121 0.11318 0.33376 0.0
H770 H 0.59882 1.00724 0.32214 0.0
C771 C 0.61733 0.12348 0.35337 0.0
H772 H 0.66819 0.06276 0.30069 0.0
C773 C 0.57733 0.09195 0.36359 0.0
C774 C 0.57122 0.04985 0.35559 0.0
H775 H 0.62248 0.15575 0.36388 0.0
H776 H 0.55304 0.10044 0.38395 0.0
C777 C 0.60282 0.03955 0.32852 0.0
C778 C 0.90176 0.69313 0.4043 0.0
C779 C 0.85688 0.68015 0.38572 0.0
H780 H 0.95203 0.67608 0.44393 0.0
C781 C 0.82719 0.63994 0.39764 0.0
H782 H 0.92531 0.72406 0.39595 0.0
C783 C 0.84255 0.61229 0.42435 0.0
C784 C 0.88775 0.62458 0.44019 0.0
H785 H 0.79239 0.62908 0.38376 0.0
H786 H 0.81914 0.58098 0.43121 0.0
C787 C 0.91705 0.66564 0.43166 0.0
C788 C 0.31238 0.8825 0.38422 0.0
C789 C 0.32515 0.8489 0.37402 0.0
H790 H 0.32998 0.94484 0.42172 0.0
C791 C 0.36627 0.85237 0.39926 0.0
H792 H 0.28143 0.88149 0.36438 0.0
C793 C 0.39501 0.8898 0.43067 0.0
C794 C 0.38259 0.92386 0.43854 0.0
H795 H 0.37728 0.82736 0.39163 0.0
H796 H 0.42753 0.89261 0.44711 0.0
C797 C 0.34036 0.91916 0.41692 0.0
C798 C 0.19713 0.4122 0.41699 0.0
C799 C 0.18203 0.37973 0.37167 0.0
H800 H 0.18249 0.45739 0.4685 0.0
C801 C 0.13876 0.36684 0.34521 0.0
H802 H 0.23019 0.42275 0.43849 0.0
C803 C 0.11171 0.38653 0.36217 0.0
C804 C 0.12699 0.41977 0.40614 0.0
H805 H 0.12573 0.34181 0.31038 0.0
H806 H 0.07888 0.37595 0.33986 0.0
C807 C 0.16982 0.43205 0.43412 0.0
C808 C 0.38717 0.18012 0.64551 0.0
C809 C 0.34269 0.15377 0.64884 0.0
H810 H 0.45054 0.18514 0.62292 0.0
C811 C 0.32725 0.11193 0.62576 0.0
H812 H 0.40008 0.21256 0.66257 0.0
C813 C 0.35623 0.09614 0.60305 0.0
C814 C 0.40123 0.12187 0.6031 0.0
H815 H 0.29305 0.09088 0.62716 0.0
H816 H 0.34362 0.06343 0.58746 0.0
C817 C 0.41615 0.16431 0.62299 0.0
C818 C 0.88083 0.38574 0.7062 0.0
C819 C 0.89782 0.35526 0.69679 0.0
H820 H 0.88665 0.44779 0.69156 0.0
C821 C 0.93634 0.36528 0.66735 0.0
H822 H 0.85148 0.37888 0.72957 0.0
C823 C 0.95628 0.40466 0.64485 0.0
C824 C 0.93848 0.4348 0.65274 0.0
H825 H 0.95008 0.34223 0.65982 0.0
H826 H 0.9851 0.41125 0.62042 0.0
C827 C 0.90121 0.42529 0.68488 0.0
C828 C 0.14998 0.66113 0.66983 0.0
C829 C 0.19443 0.67652 0.65775 0.0
H830 H 0.08517 0.61265 0.65178 0.0
C831 C 0.20753 0.65364 0.61644 0.0
H832 H 0.13888 0.67876 0.70049 0.0
C833 C 0.17682 0.6158 0.58815 0.0
C834 C 0.13206 0.60033 0.59979 0.0
H835 H 0.24142 0.66536 0.60536 0.0
H836 H 0.18806 0.59906 0.55632 0.0
C837 C 0.11917 0.62345 0.64141 0.0
loop_
_geom_bond_atom_site_label_1
_geom_bond_atom_site_label_2
_geom_bond_distance
_geom_bond_site_symmetry_2
_ccdc_geom_bond_type
Zn0 O6 1.969 . S
Zn0 O7 1.965 . S
Zn0 O11 2.024 . S
Zn0 O16 1.969 . S
Zn1 O8 1.969 . S
Zn1 O14 1.969 . S
Zn1 O15 1.965 . S
Zn1 O17 2.024 . S
C2 O3 1.229 . S
C2 O11 1.058 . S
O3 C2 1.229 . S
C4 O5 1.229 . S
C4 O17 1.058 . S
O5 C4 1.229 . S
O6 Zn0 1.969 . S
O6 C9 1.267 . S
O7 Zn0 1.965 . S
O7 C18 1.260 . S
O8 Zn1 1.969 . S
O8 C18 1.258 . S
C9 O6 1.267 . S
C9 O10 1.228 . S
O10 C9 1.228 . S
O11 Zn0 2.024 . S
O11 C2 1.058 . S
C12 O13 1.228 . S
C12 O14 1.267 . S
O13 C12 1.228 . S
O14 Zn1 1.969 . S
O14 C12 1.267 . S
O15 Zn1 1.965 . S
O15 C19 1.260 . S
O16 Zn0 1.969 . S
O16 C19 1.258 . S
O17 Zn1 2.024 . S
O17 C4 1.058 . S
C18 O7 1.260 . S
C18 O8 1.258 . S
C19 O15 1.260 . S
C19 O16 1.258 . S
Zn20 O26 1.969 . S
Zn20 O27 1.965 . S
Zn20 O31 2.024 . S
Zn20 O36 1.969 . S
Zn21 O28 1.969 . S
Zn21 O34 1.969 . S
Zn21 O35 1.965 . S
Zn21 O37 2.024 . S
C22 O23 1.229 . S
C22 O31 1.058 . S
O23 C22 1.229 . S
C24 O25 1.229 . S
C24 O37 1.058 . S
O25 C24 1.229 . S
O26 Zn20 1.969 . S
O26 C29 1.267 . S
O27 Zn20 1.965 . S
O27 C38 1.260 . S
O28 Zn21 1.969 . S
O28 C38 1.258 . S
C29 O26 1.267 . S
C29 O30 1.228 . S
O30 C29 1.228 . S
O31 Zn20 2.024 . S
O31 C22 1.058 . S
C32 O33 1.228 . S
C32 O34 1.267 . S
O33 C32 1.228 . S
O34 Zn21 1.969 . S
O34 C32 1.267 . S
O35 Zn21 1.965 . S
O35 C39 1.260 . S
O36 Zn20 1.969 . S
O36 C39 1.258 . S
O37 Zn21 2.024 . S
O37 C24 1.058 . S
C38 O27 1.260 . S
C38 O28 1.258 . S
C39 O35 1.260 . S
C39 O36 1.258 . S
Zn40 O46 1.969 . S
Zn40 O47 1.965 . S
Zn40 O51 2.024 . S
Zn40 O56 1.969 . S
Zn41 O48 1.969 . S
Zn41 O54 1.969 . S
Zn41 O55 1.965 . S
Zn41 O57 2.024 . S
C42 O43 1.229 . S
C42 O51 1.058 . S
O43 C42 1.229 . S
C44 O45 1.229 . S
C44 O57 1.058 . S
O45 C44 1.229 . S
O46 Zn40 1.969 . S
O46 C49 1.267 . S
O47 Zn40 1.965 . S
O47 C58 1.260 . S
O48 Zn41 1.969 . S
O48 C58 1.258 . S
C49 O46 1.267 . S
C49 O50 1.228 . S
O50 C49 1.228 . S
O51 Zn40 2.024 . S
O51 C42 1.058 . S
C52 O53 1.228 . S
C52 O54 1.267 . S
O53 C52 1.228 . S
O54 Zn41 1.969 . S
O54 C52 1.267 . S
O55 Zn41 1.965 . S
O55 C59 1.260 . S
O56 Zn40 1.969 . S
O56 C59 1.258 . S
O57 Zn41 2.024 . S
O57 C44 1.058 . S
C58 O47 1.260 . S
C58 O48 1.258 . S
C59 O55 1.260 . S
C59 O56 1.258 . S
Zn60 O66 1.969 . S
Zn60 O67 1.965 . S
Zn60 O71 2.024 . S
Zn60 O76 1.969 . S
Zn61 O68 1.969 . S
Zn61 O74 1.969 . S
Zn61 O75 1.965 . S
Zn61 O77 2.024 . S
C62 O63 1.229 . S
C62 O71 1.058 . S
O63 C62 1.229 . S
C64 O65 1.229 . S
C64 O77 1.058 . S
O65 C64 1.229 . S
O66 Zn60 1.969 . S
O66 C69 1.267 . S
O67 Zn60 1.965 . S
O67 C78 1.260 . S
O68 Zn61 1.969 . S
O68 C78 1.258 . S
C69 O66 1.267 . S
C69 O70 1.228 . S
O70 C69 1.228 . S
O71 Zn60 2.024 . S
O71 C62 1.058 . S
C72 O73 1.228 . S
C72 O74 1.267 . S
O73 C72 1.228 . S
O74 Zn61 1.969 . S
O74 C72 1.267 . S
O75 Zn61 1.965 . S
O75 C79 1.260 . S
O76 Zn60 1.969 . S
O76 C79 1.258 . S
O77 Zn61 2.024 . S
O77 C64 1.058 . S
C78 O67 1.260 . S
C78 O68 1.258 . S
C79 O75 1.260 . S
C79 O76 1.258 . S
Zn80 O86 1.969 . S
Zn80 O87 1.965 . S
Zn80 O91 2.024 . S
Zn80 O96 1.969 . S
Zn81 O88 1.969 . S
Zn81 O94 1.969 . S
Zn81 O95 1.965 . S
Zn81 O97 2.024 . S
C82 O83 1.229 . S
C82 O91 1.058 . S
O83 C82 1.229 . S
C84 O85 1.229 . S
C84 O97 1.058 . S
O85 C84 1.229 . S
O86 Zn80 1.969 . S
O86 C89 1.267 . S
O87 Zn80 1.965 . S
O87 C98 1.260 . S
O88 Zn81 1.969 . S
O88 C98 1.258 . S
C89 O86 1.267 . S
C89 O90 1.228 . S
O90 C89 1.228 . S
O91 Zn80 2.024 . S
O91 C82 1.058 . S
C92 O93 1.228 . S
C92 O94 1.267 . S
O93 C92 1.228 . S
O94 Zn81 1.969 . S
O94 C92 1.267 . S
O95 Zn81 1.965 . S
O95 C99 1.260 . S
O96 Zn80 1.969 . S
O96 C99 1.258 . S
O97 Zn81 2.024 . S
O97 C84 1.058 . S
C98 O87 1.260 . S
C98 O88 1.258 . S
C99 O95 1.260 . S
C99 O96 1.258 . S
Zn100 O106 1.969 . S
Zn100 O107 1.965 . S
Zn100 O111 2.024 . S
Zn100 O116 1.969 . S
Zn101 O108 1.969 . S
Zn101 O114 1.969 . S
Zn101 O115 1.965 . S
Zn101 O117 2.024 . S
C102 O103 1.229 . S
C102 O111 1.058 . S
O103 C102 1.229 . S
C104 O105 1.229 . S
C104 O117 1.058 . S
O105 C104 1.229 . S
O106 Zn100 1.969 . S
O106 C109 1.267 . S
O107 Zn100 1.965 . S
O107 C118 1.260 . S
O108 Zn101 1.969 . S
O108 C118 1.258 . S
C109 O106 1.267 . S
C109 O110 1.228 . S
O110 C109 1.228 . S
O111 Zn100 2.024 . S
O111 C102 1.058 . S
C112 O113 1.228 . S
C112 O114 1.267 . S
O113 C112 1.228 . S
O114 Zn101 1.969 . S
O114 C112 1.267 . S
O115 Zn101 1.965 . S
O115 C119 1.260 . S
O116 Zn100 1.969 . S
O116 C119 1.258 . S
O117 Zn101 2.024 . S
O117 C104 1.058 . S
C118 O107 1.260 . S
C118 O108 1.258 . S
C119 O115 1.260 . S
C119 O116 1.258 . S
Zn120 O126 1.969 . S
Zn120 O127 1.965 . S
Zn120 O131 2.024 . S
Zn120 O136 1.969 . S
Zn121 O128 1.969 . S
Zn121 O134 1.969 . S
Zn121 O135 1.965 . S
Zn121 O137 2.024 . S
C122 O123 1.229 . S
C122 O131 1.058 . S
O123 C122 1.229 . S
C124 O125 1.229 . S
C124 O137 1.058 . S
O125 C124 1.229 . S
O126 Zn120 1.969 . S
O126 C129 1.267 . S
O127 Zn120 1.965 . S
O127 C138 1.260 . S
O128 Zn121 1.969 . S
O128 C138 1.258 . S
C129 O126 1.267 . S
C129 O130 1.228 . S
O130 C129 1.228 . S
O131 Zn120 2.024 . S
O131 C122 1.058 . S
C132 O133 1.228 . S
C132 O134 1.267 . S
O133 C132 1.228 . S
O134 Zn121 1.969 . S
O134 C132 1.267 . S
O135 Zn121 1.965 . S
O135 C139 1.260 . S
O136 Zn120 1.969 . S
O136 C139 1.258 . S
O137 Zn121 2.024 . S
O137 C124 1.058 . S
C138 O127 1.260 . S
C138 O128 1.258 . S
C139 O135 1.260 . S
C139 O136 1.258 . S
Zn140 O146 1.969 . S
Zn140 O147 1.965 . S
Zn140 O151 2.024 . S
Zn140 O156 1.969 . S
Zn141 O148 1.969 . S
Zn141 O154 1.969 . S
Zn141 O155 1.965 . S
Zn141 O157 2.024 . S
C142 O143 1.229 . S
C142 O151 1.058 . S
O143 C142 1.229 . S
C144 O145 1.229 . S
C144 O157 1.058 . S
O145 C144 1.229 . S
O146 Zn140 1.969 . S
O146 C149 1.267 . S
O147 Zn140 1.965 . S
O147 C158 1.260 . S
O148 Zn141 1.969 . S
O148 C158 1.258 . S
C149 O146 1.267 . S
C149 O150 1.228 . S
O150 C149 1.228 . S
O151 Zn140 2.024 . S
O151 C142 1.058 . S
C152 O153 1.228 . S
C152 O154 1.267 . S
O153 C152 1.228 . S
O154 Zn141 1.969 . S
O154 C152 1.267 . S
O155 Zn141 1.965 . S
O155 C159 1.260 . S
O156 Zn140 1.969 . S
O156 C159 1.258 . S
O157 Zn141 2.024 . S
O157 C144 1.058 . S
C158 O147 1.260 . S
C158 O148 1.258 . S
C159 O155 1.260 . S
C159 O156 1.258 . S
Co160 O163 2.042 . S
Co160 O170 2.264 . S
Co160 O189 2.286 . S
Co160 O190 2.069 . S
Co160 O192 2.015 1_455 S
Co161 O163 2.122 . S
Co161 O169 2.073 . S
Co161 O170 2.327 . S
Co161 O171 1.976 1_455 S
Co162 O163 2.085 1_545 S
Co162 O165 2.089 1_455 S
Co162 O172 2.111 1_445 S
Co162 O173 2.145 . S
Co162 O177 2.112 . S
Co162 O191 2.142 1_445 S
O163 Co160 2.042 . S
O163 Co161 2.122 . S
O163 Co162 2.085 1_565 S
O163 H164 0.980 . S
H164 O163 0.980 . S
O165 Co162 2.089 1_655 S
O165 Co166 2.042 . S
O165 Co167 2.122 . S
O165 H168 0.980 . S
Co166 O165 2.042 . S
Co166 O174 2.286 . S
Co166 O175 2.069 . S
Co166 O176 2.015 1_655 S
Co166 O179 2.264 . S
Co167 O165 2.122 . S
Co167 O178 1.976 1_655 S
Co167 O179 2.327 . S
Co167 O180 2.073 . S
H168 O165 0.980 . S
O169 Co161 2.073 . S
O169 C184 1.245 . S
O170 Co160 2.264 . S
O170 Co161 2.327 . S
O170 C184 1.257 . S
O171 Co161 1.976 1_655 S
O171 C183 1.251 . S
O172 Co162 2.111 1_665 S
O172 C183 1.274 . S
O173 Co162 2.145 . S
O173 C186 1.246 . S
O174 Co166 2.286 . S
O174 C185 1.259 . S
O175 Co166 2.069 . S
O175 C185 1.289 . S
O176 Co166 2.015 1_455 S
O176 C186 1.257 . S
O177 Co162 2.112 . S
O177 C187 1.274 . S
O178 Co167 1.976 1_455 S
O178 C187 1.251 . S
O179 Co166 2.264 . S
O179 Co167 2.327 . S
O179 C188 1.257 . S
O180 Co167 2.073 . S
O180 C188 1.245 . S
C181 O189 1.259 . S
C181 O190 1.289 . S
C182 O191 1.246 . S
C182 O192 1.257 . S
C183 O171 1.251 . S
C183 O172 1.274 . S
C184 O169 1.245 . S
C184 O170 1.257 . S
C185 O174 1.259 . S
C185 O175 1.289 . S
C186 O173 1.246 . S
C186 O176 1.257 . S
C187 O177 1.274 . S
C187 O178 1.251 . S
C188 O179 1.257 . S
C188 O180 1.245 . S
O189 Co160 2.286 . S
O189 C181 1.259 . S
O190 Co160 2.069 . S
O190 C181 1.289 . S
O191 Co162 2.142 1_665 S
O191 C182 1.246 . S
O192 Co160 2.015 1_655 S
O192 C182 1.257 . S
Co193 O196 2.042 1_556 S
Co193 O203 2.264 1_556 S
Co193 O222 2.286 . S
Co193 O223 2.069 . S
Co193 O225 2.015 . S
Co194 O196 2.122 . S
Co194 O202 2.073 . S
Co194 O203 2.327 . S
Co194 O204 1.976 . S
Co195 O196 2.085 1_545 S
Co195 O198 2.089 1_554 S
Co195 O205 2.111 1_545 S
Co195 O206 2.145 . S
Co195 O210 2.112 1_554 S
Co195 O224 2.142 1_544 S
O196 Co193 2.042 1_554 S
O196 Co194 2.122 . S
O196 Co195 2.085 1_565 S
O196 H197 0.980 . S
H197 O196 0.980 . S
O198 Co195 2.089 1_556 S
O198 Co199 2.042 1_556 S
O198 Co200 2.122 . S
O198 H201 0.980 . S
Co199 O198 2.042 1_554 S
Co199 O207 2.286 . S
Co199 O208 2.069 . S
Co199 O209 2.015 . S
Co199 O212 2.264 1_554 S
Co200 O198 2.122 . S
Co200 O211 1.976 . S
Co200 O212 2.327 . S
Co200 O213 2.073 . S
H201 O198 0.980 . S
O202 Co194 2.073 . S
O202 C217 1.245 . S
O203 Co193 2.264 1_554 S
O203 Co194 2.327 . S
O203 C217 1.257 . S
O204 Co194 1.976 . S
O204 C216 1.251 . S
O205 Co195 2.111 1_565 S
O205 C216 1.274 . S
O206 Co195 2.145 . S
O206 C219 1.246 . S
O207 Co199 2.286 . S
O207 C218 1.259 . S
O208 Co199 2.069 . S
O208 C218 1.289 . S
O209 Co199 2.015 . S
O209 C219 1.257 . S
O210 Co195 2.112 1_556 S
O210 C220 1.274 . S
O211 Co200 1.976 . S
O211 C220 1.251 . S
O212 Co199 2.264 1_556 S
O212 Co200 2.327 . S
O212 C221 1.257 . S
O213 Co200 2.073 . S
O213 C221 1.245 . S
C214 O222 1.259 . S
C214 O223 1.289 . S
C215 O224 1.246 . S
C215 O225 1.257 . S
C216 O204 1.251 . S
C216 O205 1.274 . S
C217 O202 1.245 . S
C217 O203 1.257 . S
C218 O207 1.259 . S
C218 O208 1.289 . S
C219 O206 1.246 . S
C219 O209 1.257 . S
C220 O210 1.274 . S
C220 O211 1.251 . S
C221 O212 1.257 . S
C221 O213 1.245 . S
O222 Co193 2.286 . S
O222 C214 1.259 . S
O223 Co193 2.069 . S
O223 C214 1.289 . S
O224 Co195 2.142 1_566 S
O224 C215 1.246 . S
O225 Co193 2.015 . S
O225 C215 1.257 . S
Co226 O229 2.042 1_556 S
Co226 O236 2.264 1_556 S
Co226 O255 2.286 . S
Co226 O256 2.069 . S
Co226 O258 2.015 1_455 S
Co227 O229 2.122 . S
Co227 O235 2.073 . S
Co227 O236 2.327 . S
Co227 O237 1.976 1_455 S
Co228 O229 2.087 . S
Co228 O231 2.087 1_454 S
Co228 O238 2.111 1_455 S
Co228 O239 2.144 . S
Co228 O243 2.111 1_554 S
Co228 O257 2.143 1_454 S
O229 Co226 2.042 1_554 S
O229 Co227 2.122 . S
O229 Co228 2.087 . S
O229 H230 0.980 . S
H230 O229 0.980 . S
O231 Co228 2.087 1_656 S
O231 Co232 2.042 1_556 S
O231 Co233 2.122 . S
O231 H234 0.980 . S
Co232 O231 2.042 1_554 S
Co232 O240 2.286 . S
Co232 O241 2.069 . S
Co232 O242 2.015 1_655 S
Co232 O245 2.264 1_554 S
Co233 O231 2.122 . S
Co233 O244 1.976 1_655 S
Co233 O245 2.327 . S
Co233 O246 2.073 . S
H234 O231 0.980 . S
O235 Co227 2.073 . S
O235 C250 1.245 . S
O236 Co226 2.264 1_554 S
O236 Co227 2.327 . S
O236 C250 1.257 . S
O237 Co227 1.976 1_655 S
O237 C249 1.251 . S
O238 Co228 2.111 1_655 S
O238 C249 1.274 . S
O239 Co228 2.144 . S
O239 C252 1.246 . S
O240 Co232 2.286 . S
O240 C251 1.259 . S
O241 Co232 2.069 . S
O241 C251 1.289 . S
O242 Co232 2.015 1_455 S
O242 C252 1.257 . S
O243 Co228 2.111 1_556 S
O243 C253 1.274 . S
O244 Co233 1.976 1_455 S
O244 C253 1.251 . S
O245 Co232 2.264 1_556 S
O245 Co233 2.327 . S
O245 C254 1.257 . S
O246 Co233 2.073 . S
O246 C254 1.245 . S
C247 O255 1.259 . S
C247 O256 1.289 . S
C248 O257 1.246 . S
C248 O258 1.257 . S
C249 O237 1.251 . S
C249 O238 1.274 . S
C250 O235 1.245 . S
C250 O236 1.257 . S
C251 O240 1.259 . S
C251 O241 1.289 . S
C252 O239 1.246 . S
C252 O242 1.257 . S
C253 O243 1.274 . S
C253 O244 1.251 . S
C254 O245 1.257 . S
C254 O246 1.245 . S
O255 Co226 2.286 . S
O255 C247 1.259 . S
O256 Co226 2.069 . S
O256 C247 1.289 . S
O257 Co228 2.143 1_656 S
O257 C248 1.246 . S
O258 Co226 2.015 1_655 S
O258 C248 1.257 . S
Co259 O262 2.042 1_556 S
Co259 O269 2.264 1_556 S
Co259 O288 2.286 . S
Co259 O289 2.069 . S
Co259 O291 2.015 . S
Co260 O262 2.122 . S
Co260 O268 2.073 . S
Co260 O269 2.327 . S
Co260 O270 1.976 . S
Co261 O262 2.087 . S
Co261 O264 2.087 1_554 S
Co261 O271 2.111 . S
Co261 O272 2.143 . S
Co261 O276 2.111 1_554 S
Co261 O290 2.143 1_554 S
O262 Co259 2.042 1_554 S
O262 Co260 2.122 . S
O262 Co261 2.087 . S
O262 H263 0.980 . S
H263 O262 0.980 . S
O264 Co261 2.087 1_556 S
O264 Co265 2.042 1_556 S
O264 Co266 2.122 . S
O264 H267 0.980 . S
Co265 O264 2.042 1_554 S
Co265 O273 2.286 . S
Co265 O274 2.069 . S
Co265 O275 2.015 . S
Co265 O278 2.264 1_554 S
Co266 O264 2.122 . S
Co266 O277 1.976 . S
Co266 O278 2.327 . S
Co266 O279 2.073 . S
H267 O264 0.980 . S
O268 Co260 2.073 . S
O268 C283 1.245 . S
O269 Co259 2.264 1_554 S
O269 Co260 2.327 . S
O269 C283 1.257 . S
O270 Co260 1.976 . S
O270 C282 1.251 . S
O271 Co261 2.111 . S
O271 C282 1.274 . S
O272 Co261 2.143 . S
O272 C285 1.246 . S
O273 Co265 2.286 . S
O273 C284 1.259 . S
O274 Co265 2.069 . S
O274 C284 1.289 . S
O275 Co265 2.015 . S
O275 C285 1.257 . S
O276 Co261 2.111 1_556 S
O276 C286 1.274 . S
O277 Co266 1.976 . S
O277 C286 1.251 . S
O278 Co265 2.264 1_556 S
O278 Co266 2.327 . S
O278 C287 1.257 . S
O279 Co266 2.073 . S
O279 C287 1.245 . S
C280 O288 1.259 . S
C280 O289 1.289 . S
C281 O290 1.246 . S
C281 O291 1.257 . S
C282 O270 1.251 . S
C282 O271 1.274 . S
C283 O268 1.245 . S
C283 O269 1.257 . S
C284 O273 1.259 . S
C284 O274 1.289 . S
C285 O272 1.246 . S
C285 O275 1.257 . S
C286 O276 1.274 . S
C286 O277 1.251 . S
C287 O278 1.257 . S
C287 O279 1.245 . S
O288 Co259 2.286 . S
O288 C280 1.259 . S
O289 Co259 2.069 . S
O289 C280 1.289 . S
O290 Co261 2.143 1_556 S
O290 C281 1.246 . S
O291 Co259 2.015 . S
O291 C281 1.257 . S
Co292 O295 2.042 . S
Co292 O302 2.264 . S
Co292 O321 2.286 . S
Co292 O322 2.069 . S
Co292 O324 2.015 . S
Co293 O295 2.122 . S
Co293 O301 2.073 . S
Co293 O302 2.327 . S
Co293 O303 1.976 . S
Co294 O295 2.087 . S
Co294 O297 2.087 1_455 S
Co294 O304 2.111 . S
Co294 O305 2.143 1_455 S
Co294 O309 2.111 1_455 S
Co294 O323 2.144 . S
O295 Co292 2.042 . S
O295 Co293 2.122 . S
O295 Co294 2.087 . S
O295 H296 0.980 . S
H296 O295 0.980 . S
O297 Co294 2.087 1_655 S
O297 Co298 2.042 . S
O297 Co299 2.122 . S
O297 H300 0.980 . S
Co298 O297 2.042 . S
Co298 O306 2.286 . S
Co298 O307 2.069 . S
Co298 O308 2.015 . S
Co298 O311 2.264 . S
Co299 O297 2.122 . S
Co299 O310 1.976 . S
Co299 O311 2.327 . S
Co299 O312 2.073 . S
H300 O297 0.980 . S
O301 Co293 2.073 . S
O301 C316 1.245 . S
O302 Co292 2.264 . S
O302 Co293 2.327 . S
O302 C316 1.257 . S
O303 Co293 1.976 . S
O303 C315 1.251 . S
O304 Co294 2.111 . S
O304 C315 1.274 . S
O305 Co294 2.143 1_655 S
O305 C318 1.246 . S
O306 Co298 2.286 . S
O306 C317 1.259 . S
O307 Co298 2.069 . S
O307 C317 1.289 . S
O308 Co298 2.015 . S
O308 C318 1.257 . S
O309 Co294 2.111 1_655 S
O309 C319 1.274 . S
O310 Co299 1.976 . S
O310 C319 1.251 . S
O311 Co298 2.264 . S
O311 Co299 2.327 . S
O311 C320 1.257 . S
O312 Co299 2.073 . S
O312 C320 1.245 . S
C313 O321 1.259 . S
C313 O322 1.289 . S
C314 O323 1.246 . S
C314 O324 1.257 . S
C315 O303 1.251 . S
C315 O304 1.274 . S
C316 O301 1.245 . S
C316 O302 1.257 . S
C317 O306 1.259 . S
C317 O307 1.289 . S
C318 O305 1.246 . S
C318 O308 1.257 . S
C319 O309 1.274 . S
C319 O310 1.251 . S
C320 O311 1.257 . S
C320 O312 1.245 . S
O321 Co292 2.286 . S
O321 C313 1.259 . S
O322 Co292 2.069 . S
O322 C313 1.289 . S
O323 Co294 2.144 . S
O323 C314 1.246 . S
O324 Co292 2.015 . S
O324 C314 1.257 . S
Co325 O328 2.042 . S
Co325 O335 2.264 . S
Co325 O354 2.286 . S
Co325 O355 2.069 . S
Co325 O357 2.015 1_565 S
Co326 O328 2.122 . S
Co326 O334 2.073 . S
Co326 O335 2.327 . S
Co326 O336 1.976 1_565 S
Co327 O328 2.085 1_545 S
Co327 O330 2.089 . S
Co327 O337 2.112 . S
Co327 O338 2.143 1_545 S
Co327 O342 2.110 1_545 S
Co327 O356 2.144 . S
O328 Co325 2.042 . S
O328 Co326 2.122 . S
O328 Co327 2.085 1_565 S
O328 H329 0.980 . S
H329 O328 0.980 . S
O330 Co327 2.089 . S
O330 Co331 2.042 . S
O330 Co332 2.122 . S
O330 H333 0.980 . S
Co331 O330 2.042 . S
Co331 O339 2.286 . S
Co331 O340 2.069 . S
Co331 O341 2.015 1_545 S
Co331 O344 2.264 . S
Co332 O330 2.122 . S
Co332 O343 1.976 1_545 S
Co332 O344 2.327 . S
Co332 O345 2.073 . S
H333 O330 0.980 . S
O334 Co326 2.073 . S
O334 C349 1.245 . S
O335 Co325 2.264 . S
O335 Co326 2.327 . S
O335 C349 1.257 . S
O336 Co326 1.976 1_545 S
O336 C348 1.251 . S
O337 Co327 2.112 . S
O337 C348 1.274 . S
O338 Co327 2.143 1_565 S
O338 C351 1.246 . S
O339 Co331 2.286 . S
O339 C350 1.259 . S
O340 Co331 2.069 . S
O340 C350 1.289 . S
O341 Co331 2.015 1_565 S
O341 C351 1.257 . S
O342 Co327 2.110 1_565 S
O342 C352 1.274 . S
O343 Co332 1.976 1_565 S
O343 C352 1.251 . S
O344 Co331 2.264 . S
O344 Co332 2.327 . S
O344 C353 1.257 . S
O345 Co332 2.073 . S
O345 C353 1.245 . S
C346 O354 1.259 . S
C346 O355 1.289 . S
C347 O356 1.246 . S
C347 O357 1.257 . S
C348 O336 1.251 . S
C348 O337 1.274 . S
C349 O334 1.245 . S
C349 O335 1.257 . S
C350 O339 1.259 . S
C350 O340 1.289 . S
C351 O338 1.246 . S
C351 O341 1.257 . S
C352 O342 1.274 . S
C352 O343 1.251 . S
C353 O344 1.257 . S
C353 O345 1.245 . S
O354 Co325 2.286 . S
O354 C346 1.259 . S
O355 Co325 2.069 . S
O355 C346 1.289 . S
O356 Co327 2.144 . S
O356 C347 1.246 . S
O357 Co325 2.015 1_545 S
O357 C347 1.257 . S
C358 C359 1.387 . S
C358 H362 0.950 . S
C358 C367 1.390 . S
C359 C358 1.387 . S
C359 C361 1.387 . S
H360 C367 0.950 . S
C361 C359 1.387 . S
C361 C363 1.390 . S
C361 H365 0.950 . S
H362 C358 0.950 . S
C363 C361 1.390 . S
C363 C364 1.387 . S
C363 H366 0.950 . S
C364 C363 1.387 . S
C364 C367 1.387 . S
H365 C361 0.950 . S
H366 C363 0.950 . S
C367 C358 1.390 . S
C367 H360 0.950 . S
C367 C364 1.387 . S
C368 C369 1.387 . S
C368 H372 0.950 . S
C368 C377 1.390 . S
C369 C368 1.387 . S
C369 C371 1.387 . S
H370 C377 0.950 . S
C371 C369 1.387 . S
C371 C373 1.390 . S
C371 H375 0.950 . S
H372 C368 0.950 . S
C373 C371 1.390 . S
C373 C374 1.387 . S
C373 H376 0.950 . S
C374 C373 1.387 . S
C374 C377 1.387 . S
H375 C371 0.950 . S
H376 C373 0.950 . S
C377 C368 1.390 . S
C377 H370 0.950 . S
C377 C374 1.387 . S
C378 C379 1.387 . S
C378 H382 0.950 . S
C378 C387 1.390 . S
C379 C378 1.387 . S
C379 C381 1.387 . S
H380 C387 0.950 . S
C381 C379 1.387 . S
C381 C383 1.390 . S
C381 H385 0.950 . S
H382 C378 0.950 . S
C383 C381 1.390 . S
C383 C384 1.387 . S
C383 H386 0.950 . S
C384 C383 1.387 . S
C384 C387 1.387 . S
H385 C381 0.950 . S
H386 C383 0.950 . S
C387 C378 1.390 . S
C387 H380 0.950 . S
C387 C384 1.387 . S
C388 C389 1.387 . S
C388 H392 0.950 . S
C388 C397 1.390 . S
C389 C388 1.387 . S
C389 C391 1.387 . S
H390 C397 0.950 . S
C391 C389 1.387 . S
C391 C393 1.390 . S
C391 H395 0.950 . S
H392 C388 0.950 . S
C393 C391 1.390 . S
C393 C394 1.387 . S
C393 H396 0.950 . S
C394 C393 1.387 . S
C394 C397 1.387 . S
H395 C391 0.950 . S
H396 C393 0.950 . S
C397 C388 1.390 . S
C397 H390 0.950 . S
C397 C394 1.387 . S
C398 C399 1.387 . S
C398 H402 0.950 . S
C398 C407 1.390 . S
C399 C398 1.387 . S
C399 C401 1.387 . S
H400 C407 0.950 . S
C401 C399 1.387 . S
C401 C403 1.390 . S
C401 H405 0.950 . S
H402 C398 0.950 . S
C403 C401 1.390 . S
C403 C404 1.387 . S
C403 H406 0.950 . S
C404 C403 1.387 . S
C404 C407 1.387 . S
H405 C401 0.950 . S
H406 C403 0.950 . S
C407 C398 1.390 . S
C407 H400 0.950 . S
C407 C404 1.387 . S
C408 C409 1.387 . S
C408 H412 0.950 . S
C408 C417 1.390 . S
C409 C408 1.387 . S
C409 C411 1.387 . S
H410 C417 0.950 . S
C411 C409 1.387 . S
C411 C413 1.390 . S
C411 H415 0.950 . S
H412 C408 0.950 . S
C413 C411 1.390 . S
C413 C414 1.387 . S
C413 H416 0.950 . S
C414 C413 1.387 . S
C414 C417 1.387 . S
H415 C411 0.950 . S
H416 C413 0.950 . S
C417 C408 1.390 . S
C417 H410 0.950 . S
C417 C414 1.387 . S
C418 C419 1.387 . S
C418 H422 0.950 . S
C418 C427 1.390 . S
C419 C418 1.387 . S
C419 C421 1.387 . S
H420 C427 0.950 . S
C421 C419 1.387 . S
C421 C423 1.390 . S
C421 H425 0.950 . S
H422 C418 0.950 . S
C423 C421 1.390 . S
C423 C424 1.387 . S
C423 H426 0.950 . S
C424 C423 1.387 . S
C424 C427 1.387 . S
H425 C421 0.950 . S
H426 C423 0.950 . S
C427 C418 1.390 . S
C427 H420 0.950 . S
C427 C424 1.387 . S
C428 C429 1.387 . S
C428 H432 0.950 . S
C428 C437 1.390 . S
C429 C428 1.387 . S
C429 C431 1.387 . S
H430 C437 0.950 . S
C431 C429 1.387 . S
C431 C433 1.390 . S
C431 H435 0.950 . S
H432 C428 0.950 . S
C433 C431 1.390 . S
C433 C434 1.387 . S
C433 H436 0.950 . S
C434 C433 1.387 . S
C434 C437 1.387 . S
H435 C431 0.950 . S
H436 C433 0.950 . S
C437 C428 1.390 . S
C437 H430 0.950 . S
C437 C434 1.387 . S
C438 C439 1.387 . S
C438 H442 0.950 . S
C438 C447 1.390 . S
C439 C438 1.387 . S
C439 C441 1.387 . S
H440 C447 0.950 . S
C441 C439 1.387 . S
C441 C443 1.390 . S
C441 H445 0.950 . S
H442 C438 0.950 . S
C443 C441 1.390 . S
C443 C444 1.387 . S
C443 H446 0.950 . S
C444 C443 1.387 . S
C444 C447 1.387 . S
H445 C441 0.950 . S
H446 C443 0.950 . S
C447 C438 1.390 . S
C447 H440 0.950 . S
C447 C444 1.387 . S
C448 C449 1.387 . S
C448 H452 0.950 . S
C448 C457 1.390 . S
C449 C448 1.387 . S
C449 C451 1.387 . S
H450 C457 0.950 . S
C451 C449 1.387 . S
C451 C453 1.390 . S
C451 H455 0.950 . S
H452 C448 0.950 . S
C453 C451 1.390 . S
C453 C454 1.387 . S
C453 H456 0.950 . S
C454 C453 1.387 . S
C454 C457 1.387 . S
H455 C451 0.950 . S
H456 C453 0.950 . S
C457 C448 1.390 . S
C457 H450 0.950 . S
C457 C454 1.387 . S
C458 C459 1.387 . S
C458 H462 0.950 . S
C458 C467 1.390 . S
C459 C458 1.387 . S
C459 C461 1.387 . S
H460 C467 0.950 . S
C461 C459 1.387 . S
C461 C463 1.390 . S
C461 H465 0.950 . S
H462 C458 0.950 . S
C463 C461 1.390 . S
C463 C464 1.387 . S
C463 H466 0.950 . S
C464 C463 1.387 . S
C464 C467 1.387 . S
H465 C461 0.950 . S
H466 C463 0.950 . S
C467 C458 1.390 . S
C467 H460 0.950 . S
C467 C464 1.387 . S
C468 C469 1.387 . S
C468 H472 0.950 . S
C468 C477 1.390 . S
C469 C468 1.387 . S
C469 C471 1.387 . S
H470 C477 0.950 . S
C471 C469 1.387 . S
C471 C473 1.390 . S
C471 H475 0.950 . S
H472 C468 0.950 . S
C473 C471 1.390 . S
C473 C474 1.387 . S
C473 H476 0.950 . S
C474 C473 1.387 . S
C474 C477 1.387 . S
H475 C471 0.950 . S
H476 C473 0.950 . S
C477 C468 1.390 . S
C477 H470 0.950 . S
C477 C474 1.387 . S
C478 C479 1.387 . S
C478 H482 0.950 . S
C478 C487 1.390 . S
C479 C478 1.387 . S
C479 C481 1.387 . S
H480 C487 0.950 . S
C481 C479 1.387 . S
C481 C483 1.390 . S
C481 H485 0.950 . S
H482 C478 0.950 . S
C483 C481 1.390 . S
C483 C484 1.387 . S
C483 H486 0.950 . S
C484 C483 1.387 . S
C484 C487 1.387 . S
H485 C481 0.950 . S
H486 C483 0.950 . S
C487 C478 1.390 . S
C487 H480 0.950 . S
C487 C484 1.387 . S
C488 C489 1.387 . S
C488 H492 0.950 . S
C488 C497 1.390 . S
C489 C488 1.387 . S
C489 C491 1.387 . S
H490 C497 0.950 . S
C491 C489 1.387 . S
C491 C493 1.390 . S
C491 H495 0.950 . S
H492 C488 0.950 . S
C493 C491 1.390 . S
C493 C494 1.387 . S
C493 H496 0.950 . S
C494 C493 1.387 . S
C494 C497 1.387 . S
H495 C491 0.950 . S
H496 C493 0.950 . S
C497 C488 1.390 . S
C497 H490 0.950 . S
C497 C494 1.387 . S
C498 C499 1.387 . S
C498 H502 0.950 . S
C498 C507 1.390 . S
C499 C498 1.387 . S
C499 C501 1.387 . S
H500 C507 0.950 . S
C501 C499 1.387 . S
C501 C503 1.390 . S
C501 H505 0.950 . S
H502 C498 0.950 . S
C503 C501 1.390 . S
C503 C504 1.387 . S
C503 H506 0.950 1_556 S
C504 C503 1.387 . S
C504 C507 1.387 . S
H505 C501 0.950 . S
H506 C503 0.950 1_554 S
C507 C498 1.390 . S
C507 H500 0.950 . S
C507 C504 1.387 . S
C508 C509 1.387 . S
C508 H512 0.950 . S
C508 C517 1.390 . S
C509 C508 1.387 . S
C509 C511 1.387 . S
H510 C517 0.950 . S
C511 C509 1.387 . S
C511 C513 1.390 . S
C511 H515 0.950 . S
H512 C508 0.950 . S
C513 C511 1.390 . S
C513 C514 1.387 . S
C513 H516 0.950 . S
C514 C513 1.387 . S
C514 C517 1.387 . S
H515 C511 0.950 . S
H516 C513 0.950 . S
C517 C508 1.390 . S
C517 H510 0.950 . S
C517 C514 1.387 . S
C518 C519 1.387 . S
C518 H522 0.950 . S
C518 C527 1.390 . S
C519 C518 1.387 . S
C519 C521 1.387 . S
H520 C527 0.950 . S
C521 C519 1.387 . S
C521 C523 1.390 . S
C521 H525 0.950 . S
H522 C518 0.950 . S
C523 C521 1.390 . S
C523 C524 1.387 . S
C523 H526 0.961 . S
C524 C523 1.387 . S
C524 C527 1.387 . S
H525 C521 0.950 . S
H526 C523 0.961 . S
C527 C518 1.390 . S
C527 H520 0.950 . S
C527 C524 1.387 . S
C528 C529 1.387 . S
C528 H532 0.950 . S
C528 C537 1.390 . S
C529 C528 1.387 . S
C529 C531 1.387 . S
H530 C537 0.950 . S
C531 C529 1.387 . S
C531 C533 1.390 . S
C531 H535 0.950 . S
H532 C528 0.950 . S
C533 C531 1.390 . S
C533 C534 1.387 . S
C533 H536 0.950 . S
C534 C533 1.387 . S
C534 C537 1.387 . S
H535 C531 0.950 . S
H536 C533 0.950 . S
C537 C528 1.390 . S
C537 H530 0.950 . S
C537 C534 1.387 . S
C538 C539 1.387 . S
C538 H542 0.950 . S
C538 C547 1.390 . S
C539 C538 1.387 . S
C539 C541 1.387 . S
H540 C547 0.950 . S
C541 C539 1.387 . S
C541 C543 1.390 . S
C541 H545 0.950 . S
H542 C538 0.950 . S
C543 C541 1.390 . S
C543 C544 1.387 . S
C543 H546 0.950 . S
C544 C543 1.387 . S
C544 C547 1.387 . S
H545 C541 0.950 . S
H546 C543 0.950 . S
C547 C538 1.390 . S
C547 H540 0.950 . S
C547 C544 1.387 . S
C548 C549 1.387 . S
C548 H552 0.950 . S
C548 C557 1.390 . S
C549 C548 1.387 . S
C549 C551 1.387 . S
H550 C557 0.950 . S
C551 C549 1.387 . S
C551 C553 1.390 . S
C551 H555 0.950 . S
H552 C548 0.950 . S
C553 C551 1.390 . S
C553 C554 1.387 . S
C553 H556 0.950 . S
C554 C553 1.387 . S
C554 C557 1.387 . S
H555 C551 0.950 . S
H556 C553 0.950 . S
C557 C548 1.390 . S
C557 H550 0.950 . S
C557 C554 1.387 . S
C558 C559 1.387 . S
C558 H562 0.950 . S
C558 C567 1.390 . S
C559 C558 1.387 . S
C559 C561 1.387 . S
H560 C567 0.950 . S
C561 C559 1.387 . S
C561 C563 1.390 . S
C561 H565 0.950 . S
H562 C558 0.950 . S
C563 C561 1.390 . S
C563 C564 1.387 . S
C563 H566 0.950 . S
C564 C563 1.387 . S
C564 C567 1.387 . S
H565 C561 0.950 . S
H566 C563 0.950 . S
C567 C558 1.390 . S
C567 H560 0.950 . S
C567 C564 1.387 . S
C568 C569 1.387 . S
C568 H572 0.950 . S
C568 C577 1.390 . S
C569 C568 1.387 . S
C569 C571 1.387 . S
H570 C577 0.950 . S
C571 C569 1.387 . S
C571 C573 1.390 . S
C571 H575 0.950 . S
H572 C568 0.950 . S
C573 C571 1.390 . S
C573 C574 1.387 . S
C573 H576 0.950 . S
C574 C573 1.387 . S
C574 C577 1.387 . S
H575 C571 0.950 . S
H576 C573 0.950 . S
C577 C568 1.390 . S
C577 H570 0.950 . S
C577 C574 1.387 . S
C578 C579 1.387 . S
C578 H582 0.955 . S
C578 C587 1.390 . S
C579 C578 1.387 . S
C579 C581 1.387 . S
H580 C587 0.950 1_556 S
C581 C579 1.387 . S
C581 C583 1.390 . S
C581 H585 0.950 . S
H582 C578 0.955 . S
C583 C581 1.390 . S
C583 C584 1.387 . S
C583 H586 0.950 . S
C584 C583 1.387 . S
C584 C587 1.387 . S
H585 C581 0.950 . S
H586 C583 0.950 . S
C587 C578 1.390 . S
C587 H580 0.950 1_554 S
C587 C584 1.387 . S
C588 C589 1.387 . S
C588 H592 0.950 . S
C588 C597 1.390 . S
C589 C588 1.387 . S
C589 C591 1.387 . S
H590 C597 0.950 . S
C591 C589 1.387 . S
C591 C593 1.390 . S
C591 H595 0.950 . S
H592 C588 0.950 . S
C593 C591 1.390 . S
C593 C594 1.387 . S
C593 H596 0.950 . S
C594 C593 1.387 . S
C594 C597 1.387 . S
H595 C591 0.950 . S
H596 C593 0.950 . S
C597 C588 1.390 . S
C597 H590 0.950 . S
C597 C594 1.387 . S
C598 C599 1.387 . S
C598 H602 0.950 . S
C598 C607 1.390 . S
C599 C598 1.387 . S
C599 C601 1.387 . S
H600 C607 0.950 . S
C601 C599 1.387 . S
C601 C603 1.390 . S
C601 H605 0.950 . S
H602 C598 0.950 . S
C603 C601 1.390 . S
C603 C604 1.387 . S
C603 H606 0.950 . S
C604 C603 1.387 . S
C604 C607 1.387 . S
H605 C601 0.950 . S
H606 C603 0.950 . S
C607 C598 1.390 . S
C607 H600 0.950 . S
C607 C604 1.387 . S
C608 C609 1.387 . S
C608 H612 0.950 . S
C608 C617 1.390 . S
C609 C608 1.387 . S
C609 C611 1.387 . S
H610 C617 0.950 . S
C611 C609 1.387 . S
C611 C613 1.390 . S
C611 H615 0.950 . S
H612 C608 0.950 . S
C613 C611 1.390 . S
C613 C614 1.387 . S
C613 H616 0.950 . S
C614 C613 1.387 . S
C614 C617 1.387 . S
H615 C611 0.950 . S
H616 C613 0.950 . S
C617 C608 1.390 . S
C617 H610 0.950 . S
C617 C614 1.387 . S
C618 C619 1.387 . S
C618 H622 0.950 . S
C618 C627 1.390 . S
C619 C618 1.387 . S
C619 C621 1.387 . S
H620 C627 0.950 . S
C621 C619 1.387 . S
C621 C623 1.390 . S
C621 H625 0.950 . S
H622 C618 0.950 . S
C623 C621 1.390 . S
C623 C624 1.387 . S
C623 H626 0.950 . S
C624 C623 1.387 . S
C624 C627 1.387 . S
H625 C621 0.950 . S
H626 C623 0.950 . S
C627 C618 1.390 . S
C627 H620 0.950 . S
C627 C624 1.387 . S
C628 C629 1.387 . S
C628 H632 0.950 . S
C628 C637 1.390 . S
C629 C628 1.387 . S
C629 C631 1.387 . S
H630 C637 0.950 . S
C631 C629 1.387 . S
C631 C633 1.390 . S
C631 H635 0.950 . S
H632 C628 0.950 . S
C633 C631 1.390 . S
C633 C634 1.387 . S
C633 H636 0.950 . S
C634 C633 1.387 . S
C634 C637 1.387 . S
H635 C631 0.950 . S
H636 C633 0.950 . S
C637 C628 1.390 . S
C637 H630 0.950 . S
C637 C634 1.387 . S
C638 C639 1.387 . S
C638 H642 0.950 . S
C638 C647 1.390 . S
C639 C638 1.387 . S
C639 C641 1.387 . S
H640 C647 0.950 . S
C641 C639 1.387 . S
C641 C643 1.390 . S
C641 H645 0.950 . S
H642 C638 0.950 . S
C643 C641 1.390 . S
C643 C644 1.387 . S
C643 H646 0.950 . S
C644 C643 1.387 . S
C644 C647 1.387 . S
H645 C641 0.950 . S
H646 C643 0.950 . S
C647 C638 1.390 . S
C647 H640 0.950 . S
C647 C644 1.387 . S
C648 C649 1.387 . S
C648 H652 0.950 . S
C648 C657 1.390 . S
C649 C648 1.387 . S
C649 C651 1.387 . S
H650 C657 0.950 . S
C651 C649 1.387 . S
C651 C653 1.390 . S
C651 H655 0.950 . S
H652 C648 0.950 . S
C653 C651 1.390 . S
C653 C654 1.387 . S
C653 H656 0.950 . S
C654 C653 1.387 . S
C654 C657 1.387 . S
H655 C651 0.950 . S
H656 C653 0.950 . S
C657 C648 1.390 . S
C657 H650 0.950 . S
C657 C654 1.387 . S
C658 C659 1.387 . S
C658 H662 0.950 . S
C658 C667 1.390 . S
C659 C658 1.387 . S
C659 C661 1.387 . S
H660 C667 0.950 . S
C661 C659 1.387 . S
C661 C663 1.390 . S
C661 H665 0.950 . S
H662 C658 0.950 . S
C663 C661 1.390 . S
C663 C664 1.387 . S
C663 H666 0.950 . S
C664 C663 1.387 . S
C664 C667 1.387 . S
H665 C661 0.950 . S
H666 C663 0.950 . S
C667 C658 1.390 . S
C667 H660 0.950 . S
C667 C664 1.387 . S
C668 C669 1.387 . S
C668 H672 0.950 . S
C668 C677 1.390 . S
C669 C668 1.387 . S
C669 C671 1.387 . S
H670 C677 0.950 . S
C671 C669 1.387 . S
C671 C673 1.390 . S
C671 H675 0.950 . S
H672 C668 0.950 . S
C673 C671 1.390 . S
C673 C674 1.387 . S
C673 H676 0.950 . S
C674 C673 1.387 . S
C674 C677 1.387 . S
H675 C671 0.950 . S
H676 C673 0.950 . S
C677 C668 1.390 . S
C677 H670 0.950 . S
C677 C674 1.387 . S
C678 C679 1.387 . S
C678 H682 0.950 . S
C678 C687 1.390 . S
C679 C678 1.387 . S
C679 C681 1.387 . S
H680 C687 0.950 . S
C681 C679 1.387 . S
C681 C683 1.390 . S
C681 H685 0.950 . S
H682 C678 0.950 . S
C683 C681 1.390 . S
C683 C684 1.387 . S
C683 H686 0.950 . S
C684 C683 1.387 . S
C684 C687 1.387 . S
H685 C681 0.950 . S
H686 C683 0.950 . S
C687 C678 1.390 . S
C687 H680 0.950 . S
C687 C684 1.387 . S
C688 C689 1.387 . S
C688 H692 0.950 . S
C688 C697 1.390 . S
C689 C688 1.387 . S
C689 C691 1.387 . S
H690 C697 0.950 . S
C691 C689 1.387 . S
C691 C693 1.390 . S
C691 H695 0.950 . S
H692 C688 0.950 . S
C693 C691 1.390 . S
C693 C694 1.387 . S
C693 H696 0.950 . S
C694 C693 1.387 . S
C694 C697 1.387 . S
H695 C691 0.950 . S
H696 C693 0.950 . S
C697 C688 1.390 . S
C697 H690 0.950 . S
C697 C694 1.387 . S
C698 C699 1.387 . S
C698 H702 0.950 . S
C698 C707 1.390 . S
C699 C698 1.387 . S
C699 C701 1.387 . S
H700 C707 0.950 . S
C701 C699 1.387 . S
C701 C703 1.390 . S
C701 H705 0.950 . S
H702 C698 0.950 . S
C703 C701 1.390 . S
C703 C704 1.387 . S
C703 H706 0.950 . S
C704 C703 1.387 . S
C704 C707 1.387 . S
H705 C701 0.950 . S
H706 C703 0.950 . S
C707 C698 1.390 . S
C707 H700 0.950 . S
C707 C704 1.387 . S
C708 C709 1.387 . S
C708 H712 0.950 . S
C708 C717 1.390 . S
C709 C708 1.387 . S
C709 C711 1.387 . S
H710 C717 0.950 . S
C711 C709 1.387 . S
C711 C713 1.390 . S
C711 H715 0.950 . S
H712 C708 0.950 . S
C713 C711 1.390 . S
C713 C714 1.387 . S
C713 H716 0.950 . S
C714 C713 1.387 . S
C714 C717 1.387 . S
H715 C711 0.950 . S
H716 C713 0.950 . S
C717 C708 1.390 . S
C717 H710 0.950 . S
C717 C714 1.387 . S
C718 C719 1.387 . S
C718 H722 0.950 . S
C718 C727 1.390 . S
C719 C718 1.387 . S
C719 C721 1.387 . S
H720 C727 0.950 . S
C721 C719 1.387 . S
C721 C723 1.390 . S
C721 H725 0.950 . S
H722 C718 0.950 . S
C723 C721 1.390 . S
C723 C724 1.387 . S
C723 H726 0.950 . S
C724 C723 1.387 . S
C724 C727 1.387 . S
H725 C721 0.950 . S
H726 C723 0.950 . S
C727 C718 1.390 . S
C727 H720 0.950 . S
C727 C724 1.387 . S
C728 C729 1.387 . S
C728 H732 0.950 . S
C728 C737 1.390 . S
C729 C728 1.387 . S
C729 C731 1.387 . S
H730 C737 0.950 . S
C731 C729 1.387 . S
C731 C733 1.390 . S
C731 H735 0.950 . S
H732 C728 0.950 . S
C733 C731 1.390 . S
C733 C734 1.387 . S
C733 H736 0.950 . S
C734 C733 1.387 . S
C734 C737 1.387 . S
H735 C731 0.950 . S
H736 C733 0.950 . S
C737 C728 1.390 . S
C737 H730 0.950 . S
C737 C734 1.387 . S
C738 C739 1.387 . S
C738 H742 0.950 . S
C738 C747 1.390 . S
C739 C738 1.387 . S
C739 C741 1.387 . S
H740 C747 0.950 . S
C741 C739 1.387 . S
C741 C743 1.390 . S
C741 H745 0.950 . S
H742 C738 0.950 . S
C743 C741 1.390 . S
C743 C744 1.387 . S
C743 H746 0.950 . S
C744 C743 1.387 . S
C744 C747 1.387 . S
H745 C741 0.950 . S
H746 C743 0.950 . S
C747 C738 1.390 . S
C747 H740 0.950 . S
C747 C744 1.387 . S
C748 C749 1.387 . S
C748 H752 0.950 . S
C748 C757 1.390 . S
C749 C748 1.387 . S
C749 C751 1.387 . S
H750 C757 0.950 . S
C751 C749 1.387 . S
C751 C753 1.390 . S
C751 H755 0.950 . S
H752 C748 0.950 . S
C753 C751 1.390 . S
C753 C754 1.387 . S
C753 H756 0.950 . S
C754 C753 1.387 . S
C754 C757 1.387 . S
H755 C751 0.950 . S
H756 C753 0.950 . S
C757 C748 1.390 . S
C757 H750 0.950 . S
C757 C754 1.387 . S
C758 C759 1.387 . S
C758 H762 0.950 . S
C758 C767 1.390 . S
C759 C758 1.387 . S
C759 C761 1.387 . S
H760 C767 0.950 . S
C761 C759 1.387 . S
C761 C763 1.390 . S
C761 H765 0.950 . S
H762 C758 0.950 . S
C763 C761 1.390 . S
C763 C764 1.387 . S
C763 H766 0.950 . S
C764 C763 1.387 . S
C764 C767 1.387 . S
H765 C761 0.950 . S
H766 C763 0.950 . S
C767 C758 1.390 . S
C767 H760 0.950 . S
C767 C764 1.387 . S
C768 C769 1.387 . S
C768 H772 0.950 . S
C768 C777 1.390 . S
C769 C768 1.387 . S
C769 C771 1.387 . S
H770 C777 0.950 . S
C771 C769 1.387 . S
C771 C773 1.390 . S
C771 H775 0.950 . S
H772 C768 0.950 . S
C773 C771 1.390 . S
C773 C774 1.387 . S
C773 H776 0.950 . S
C774 C773 1.387 . S
C774 C777 1.387 . S
H775 C771 0.950 . S
H776 C773 0.950 . S
C777 C768 1.390 . S
C777 H770 0.950 . S
C777 C774 1.387 . S
C778 C779 1.387 . S
C778 H782 0.950 . S
C778 C787 1.390 . S
C779 C778 1.387 . S
C779 C781 1.387 . S
H780 C787 0.950 . S
C781 C779 1.387 . S
C781 C783 1.390 . S
C781 H785 0.950 . S
H782 C778 0.950 . S
C783 C781 1.390 . S
C783 C784 1.387 . S
C783 H786 0.950 . S
C784 C783 1.387 . S
C784 C787 1.387 . S
H785 C781 0.950 . S
H786 C783 0.950 . S
C787 C778 1.390 . S
C787 H780 0.950 . S
C787 C784 1.387 . S
C788 C789 1.387 . S
C788 H792 0.950 . S
C788 C797 1.390 . S
C789 C788 1.387 . S
C789 C791 1.387 . S
H790 C797 0.950 . S
C791 C789 1.387 . S
C791 C793 1.390 . S
C791 H795 0.950 . S
H792 C788 0.950 . S
C793 C791 1.390 . S
C793 C794 1.387 . S
C793 H796 0.950 . S
C794 C793 1.387 . S
C794 C797 1.387 . S
H795 C791 0.950 . S
H796 C793 0.950 . S
C797 C788 1.390 . S
C797 H790 0.950 . S
C797 C794 1.387 . S
C798 C799 1.387 . S
C798 H802 0.950 . S
C798 C807 1.390 . S
C799 C798 1.387 . S
C799 C801 1.387 . S
H800 C807 0.950 . S
C801 C799 1.387 . S
C801 C803 1.390 . S
C801 H805 0.950 . S
H802 C798 0.950 . S
C803 C801 1.390 . S
C803 C804 1.387 . S
C803 H806 0.950 . S
C804 C803 1.387 . S
C804 C807 1.387 . S
H805 C801 0.950 . S
H806 C803 0.950 . S
C807 C798 1.390 . S
C807 H800 0.950 . S
C807 C804 1.387 . S
C808 C809 1.387 . S
C808 H812 0.950 . S
C808 C817 1.390 . S
C809 C808 1.387 . S
C809 C811 1.387 . S
H810 C817 0.950 . S
C811 C809 1.387 . S
C811 C813 1.390 . S
C811 H815 0.950 . S
H812 C808 0.950 . S
C813 C811 1.390 . S
C813 C814 1.387 . S
C813 H816 0.950 . S
C814 C813 1.387 . S
C814 C817 1.387 . S
H815 C811 0.950 . S
H816 C813 0.950 . S
C817 C808 1.390 . S
C817 H810 0.950 . S
C817 C814 1.387 . S
C818 C819 1.387 . S
C818 H822 0.950 . S
C818 C827 1.390 . S
C819 C818 1.387 . S
C819 C821 1.387 . S
H820 C827 0.950 . S
C821 C819 1.387 . S
C821 C823 1.390 . S
C821 H825 0.950 . S
H822 C818 0.950 . S
C823 C821 1.390 . S
C823 C824 1.387 . S
C823 H826 0.950 . S
C824 C823 1.387 . S
C824 C827 1.387 . S
H825 C821 0.950 . S
H826 C823 0.950 . S
C827 C818 1.390 . S
C827 H820 0.950 . S
C827 C824 1.387 . S
C828 C829 1.387 . S
C828 H832 0.950 . S
C828 C837 1.390 . S
C829 C828 1.387 . S
C829 C831 1.387 . S
H830 C837 0.950 . S
C831 C829 1.387 . S
C831 C833 1.390 . S
C831 H835 0.950 . S
H832 C828 0.950 . S
C833 C831 1.390 . S
C833 C834 1.387 . S
C833 H836 0.950 . S
C834 C833 1.387 . S
C834 C837 1.387 . S
H835 C831 0.950 . S
H836 C833 0.950 . S
C837 C828 1.390 . S
C837 H830 0.950 . S
C837 C834 1.387 . S
C364 C187 1.971 . S
C359 C19 2.077 . S
C374 C188 1.757 . S
C369 C24 1.754 . S
C384 C182 1.397 . S
C379 C59 1.376 . S
C389 C69 1.129 . S
C394 C181 1.172 . S
C399 C82 1.753 . S
C404 C184 1.755 . S
C414 C186 1.398 . S
C409 C118 1.376 . S
C419 C132 1.126 . S
C424 C185 1.170 . S
C429 C158 2.077 . S
C434 C183 1.971 . S
C444 C218 1.832 . S
C439 C4 1.565 . S
C449 C29 1.075 . S
C454 C249 1.066 . S
C464 C217 1.547 . S
C459 C44 1.421 . S
C474 C252 1.314 . S
C469 C79 1.278 . S
C479 C98 1.504 . S
C484 C215 1.492 . S
C494 C247 1.464 . S
C489 C112 1.375 . S
C499 C122 1.165 . S
C504 C220 1.240 . S
C509 C152 1.243 . S
C514 C254 1.302 . S
C519 C9 1.244 . S
C524 C250 1.305 . S
C529 C92 1.077 . S
C534 C253 1.064 . S
C544 C221 1.546 . S
C539 C102 1.426 . S
C554 C248 1.314 . S
C549 C138 1.280 . S
C559 C142 1.571 . S
C564 C214 1.833 . S
C569 C49 1.375 . S
C574 C251 1.464 . S
C584 C216 1.239 . S
C579 C64 1.164 . S
C589 C39 1.502 . S
C594 C219 1.493 . S
C599 C159 2.066 . S
C604 C286 1.981 . S
C609 C84 1.488 . S
C614 C287 1.513 . S
C624 C281 1.398 . S
C619 C119 1.396 . S
C634 C280 1.429 . S
C629 C129 1.401 . S
C639 C22 1.489 . S
C644 C283 1.513 . S
C654 C285 1.395 . S
C649 C58 1.397 . S
C659 C72 1.402 . S
C664 C284 1.429 . S
C669 C18 2.067 . S
C674 C282 1.980 . S
C679 C144 1.690 . S
C684 C320 1.794 . S
C694 C352 0.921 . S
C689 C89 0.903 . S
C699 C104 1.379 . S
C704 C313 1.518 . S
C709 C139 1.538 . S
C714 C347 1.593 . S
C724 C318 1.353 . S
C719 C38 1.355 . S
C729 C52 1.511 . S
C734 C349 1.593 . S
C744 C315 1.410 . S
C739 C62 1.391 . S
C754 C350 1.430 . S
C749 C12 1.236 . S
C764 C346 1.430 . S
C759 C149 1.234 . S
C769 C32 0.901 . S
C774 C348 0.922 . S
C779 C42 1.375 . S
C784 C317 1.519 . S
C794 C351 1.592 . S
C789 C78 1.537 . S
C799 C2 1.690 . S
C804 C316 1.794 . S
C809 C109 1.514 . S
C814 C353 1.592 . S
C824 C319 1.411 . S
C819 C124 1.391 . S
C834 C314 1.353 . S
C829 C99 1.355 . S
