# Generated by pormake.
# Topology gar, (4,6)-cn, num edge types: 1
# Building blocks:
#     Node 0, Type 0, BuildingBlock: QUQFOY_clean_sbu_1, # of connection points: 4
#     Node 1, Type 0, BuildingBlock: QUQFOY_clean_sbu_1, # of connection points: 4
#     Node 2, Type 0, BuildingBlock: QUQFOY_clean_sbu_1, # of connection points: 4
#     Node 3, Type 0, BuildingBlock: QUQFOY_clean_sbu_1, # of connection points: 4
#     Node 4, Type 0, BuildingBlock: QUQFOY_clean_sbu_1, # of connection points: 4
#     Node 5, Type 0, BuildingBlock: QUQFOY_clean_sbu_1, # of connection points: 4
#     Node 6, Type 0, BuildingBlock: QUQFOY_clean_sbu_1, # of connection points: 4
#     Node 7, Type 0, BuildingBlock: QUQFOY_clean_sbu_1, # of connection points: 4
#     Node 8, Type 0, BuildingBlock: QUQFOY_clean_sbu_1, # of connection points: 4
#     Node 9, Type 0, BuildingBlock: QUQFOY_clean_sbu_1, # of connection points: 4
#     Node 10, Type 0, BuildingBlock: QUQFOY_clean_sbu_1, # of connection points: 4
#     Node 11, Type 0, BuildingBlock: QUQFOY_clean_sbu_1, # of connection points: 4
#     Node 12, Type 0, BuildingBlock: QUQFOY_clean_sbu_1, # of connection points: 4
#     Node 13, Type 0, BuildingBlock: QUQFOY_clean_sbu_1, # of connection points: 4
#     Node 14, Type 0, BuildingBlock: QUQFOY_clean_sbu_1, # of connection points: 4
#     Node 15, Type 0, BuildingBlock: QUQFOY_clean_sbu_1, # of connection points: 4
#     Node 16, Type 0, BuildingBlock: QUQFOY_clean_sbu_1, # of connection points: 4
#     Node 17, Type 0, BuildingBlock: QUQFOY_clean_sbu_1, # of connection points: 4
#     Node 18, Type 0, BuildingBlock: QUQFOY_clean_sbu_1, # of connection points: 4
#     Node 19, Type 0, BuildingBlock: QUQFOY_clean_sbu_1, # of connection points: 4
#     Node 20, Type 0, BuildingBlock: QUQFOY_clean_sbu_1, # of connection points: 4
#     Node 21, Type 0, BuildingBlock: QUQFOY_clean_sbu_1, # of connection points: 4
#     Node 22, Type 0, BuildingBlock: QUQFOY_clean_sbu_1, # of connection points: 4
#     Node 23, Type 0, BuildingBlock: QUQFOY_clean_sbu_1, # of connection points: 4
#     Node 24, Type 1, BuildingBlock: CUKXOW_clean_sbu_0, # of connection points: 6
#     Node 25, Type 1, BuildingBlock: CUKXOW_clean_sbu_0, # of connection points: 6
#     Node 26, Type 1, BuildingBlock: CUKXOW_clean_sbu_0, # of connection points: 6
#     Node 27, Type 1, BuildingBlock: CUKXOW_clean_sbu_0, # of connection points: 6
#     Node 28, Type 1, BuildingBlock: CUKXOW_clean_sbu_0, # of connection points: 6
#     Node 29, Type 1, BuildingBlock: CUKXOW_clean_sbu_0, # of connection points: 6
#     Node 30, Type 1, BuildingBlock: CUKXOW_clean_sbu_0, # of connection points: 6
#     Node 31, Type 1, BuildingBlock: CUKXOW_clean_sbu_0, # of connection points: 6
#     Node 32, Type 1, BuildingBlock: CUKXOW_clean_sbu_0, # of connection points: 6
#     Node 33, Type 1, BuildingBlock: CUKXOW_clean_sbu_0, # of connection points: 6
#     Node 34, Type 1, BuildingBlock: CUKXOW_clean_sbu_0, # of connection points: 6
#     Node 35, Type 1, BuildingBlock: CUKXOW_clean_sbu_0, # of connection points: 6
#     Node 36, Type 1, BuildingBlock: CUKXOW_clean_sbu_0, # of connection points: 6
#     Node 37, Type 1, BuildingBlock: CUKXOW_clean_sbu_0, # of connection points: 6
#     Node 38, Type 1, BuildingBlock: CUKXOW_clean_sbu_0, # of connection points: 6
#     Node 39, Type 1, BuildingBlock: CUKXOW_clean_sbu_0, # of connection points: 6
#     Edge 40, Type (0, 1), BuildingBlock: CIFDUS_clean_linker_0, # of connection points: 2
#     Edge 41, Type (0, 1), BuildingBlock: CIFDUS_clean_linker_0, # of connection points: 2
#     Edge 42, Type (0, 1), BuildingBlock: CIFDUS_clean_linker_0, # of connection points: 2
#     Edge 43, Type (0, 1), BuildingBlock: CIFDUS_clean_linker_0, # of connection points: 2
#     Edge 44, Type (0, 1), BuildingBlock: CIFDUS_clean_linker_0, # of connection points: 2
#     Edge 45, Type (0, 1), BuildingBlock: CIFDUS_clean_linker_0, # of connection points: 2
#     Edge 46, Type (0, 1), BuildingBlock: CIFDUS_clean_linker_0, # of connection points: 2
#     Edge 47, Type (0, 1), BuildingBlock: CIFDUS_clean_linker_0, # of connection points: 2
#     Edge 48, Type (0, 1), BuildingBlock: CIFDUS_clean_linker_0, # of connection points: 2
#     Edge 49, Type (0, 1), BuildingBlock: CIFDUS_clean_linker_0, # of connection points: 2
#     Edge 50, Type (0, 1), BuildingBlock: CIFDUS_clean_linker_0, # of connection points: 2
#     Edge 51, Type (0, 1), BuildingBlock: CIFDUS_clean_linker_0, # of connection points: 2
#     Edge 52, Type (0, 1), BuildingBlock: CIFDUS_clean_linker_0, # of connection points: 2
#     Edge 53, Type (0, 1), BuildingBlock: CIFDUS_clean_linker_0, # of connection points: 2
#     Edge 54, Type (0, 1), BuildingBlock: CIFDUS_clean_linker_0, # of connection points: 2
#     Edge 55, Type (0, 1), BuildingBlock: CIFDUS_clean_linker_0, # of connection points: 2
#     Edge 56, Type (0, 1), BuildingBlock: CIFDUS_clean_linker_0, # of connection points: 2
#     Edge 57, Type (0, 1), BuildingBlock: CIFDUS_clean_linker_0, # of connection points: 2
#     Edge 58, Type (0, 1), BuildingBlock: CIFDUS_clean_linker_0, # of connection points: 2
#     Edge 59, Type (0, 1), BuildingBlock: CIFDUS_clean_linker_0, # of connection points: 2
#     Edge 60, Type (0, 1), BuildingBlock: CIFDUS_clean_linker_0, # of connection points: 2
#     Edge 61, Type (0, 1), BuildingBlock: CIFDUS_clean_linker_0, # of connection points: 2
#     Edge 62, Type (0, 1), BuildingBlock: CIFDUS_clean_linker_0, # of connection points: 2
#     Edge 63, Type (0, 1), BuildingBlock: CIFDUS_clean_linker_0, # of connection points: 2
#     Edge 64, Type (0, 1), BuildingBlock: CIFDUS_clean_linker_0, # of connection points: 2
#     Edge 65, Type (0, 1), BuildingBlock: CIFDUS_clean_linker_0, # of connection points: 2
#     Edge 66, Type (0, 1), BuildingBlock: CIFDUS_clean_linker_0, # of connection points: 2
#     Edge 67, Type (0, 1), BuildingBlock: CIFDUS_clean_linker_0, # of connection points: 2
#     Edge 68, Type (0, 1), BuildingBlock: CIFDUS_clean_linker_0, # of connection points: 2
#     Edge 69, Type (0, 1), BuildingBlock: CIFDUS_clean_linker_0, # of connection points: 2
#     Edge 70, Type (0, 1), BuildingBlock: CIFDUS_clean_linker_0, # of connection points: 2
#     Edge 71, Type (0, 1), BuildingBlock: CIFDUS_clean_linker_0, # of connection points: 2
#     Edge 72, Type (0, 1), BuildingBlock: CIFDUS_clean_linker_0, # of connection points: 2
#     Edge 73, Type (0, 1), BuildingBlock: CIFDUS_clean_linker_0, # of connection points: 2
#     Edge 74, Type (0, 1), BuildingBlock: CIFDUS_clean_linker_0, # of connection points: 2
#     Edge 75, Type (0, 1), BuildingBlock: CIFDUS_clean_linker_0, # of connection points: 2
#     Edge 76, Type (0, 1), BuildingBlock: CIFDUS_clean_linker_0, # of connection points: 2
#     Edge 77, Type (0, 1), BuildingBlock: CIFDUS_clean_linker_0, # of connection points: 2
#     Edge 78, Type (0, 1), BuildingBlock: CIFDUS_clean_linker_0, # of connection points: 2
#     Edge 79, Type (0, 1), BuildingBlock: CIFDUS_clean_linker_0, # of connection points: 2
#     Edge 80, Type (0, 1), BuildingBlock: CIFDUS_clean_linker_0, # of connection points: 2
#     Edge 81, Type (0, 1), BuildingBlock: CIFDUS_clean_linker_0, # of connection points: 2
#     Edge 82, Type (0, 1), BuildingBlock: CIFDUS_clean_linker_0, # of connection points: 2
#     Edge 83, Type (0, 1), BuildingBlock: CIFDUS_clean_linker_0, # of connection points: 2
#     Edge 84, Type (0, 1), BuildingBlock: CIFDUS_clean_linker_0, # of connection points: 2
#     Edge 85, Type (0, 1), BuildingBlock: CIFDUS_clean_linker_0, # of connection points: 2
#     Edge 86, Type (0, 1), BuildingBlock: CIFDUS_clean_linker_0, # of connection points: 2
#     Edge 87, Type (0, 1), BuildingBlock: CIFDUS_clean_linker_0, # of connection points: 2
#     Edge 88, Type (0, 1), BuildingBlock: CIFDUS_clean_linker_0, # of connection points: 2
#     Edge 89, Type (0, 1), BuildingBlock: CIFDUS_clean_linker_0, # of connection points: 2
#     Edge 90, Type (0, 1), BuildingBlock: CIFDUS_clean_linker_0, # of connection points: 2
#     Edge 91, Type (0, 1), BuildingBlock: CIFDUS_clean_linker_0, # of connection points: 2
#     Edge 92, Type (0, 1), BuildingBlock: CIFDUS_clean_linker_0, # of connection points: 2
#     Edge 93, Type (0, 1), BuildingBlock: CIFDUS_clean_linker_0, # of connection points: 2
#     Edge 94, Type (0, 1), BuildingBlock: CIFDUS_clean_linker_0, # of connection points: 2
#     Edge 95, Type (0, 1), BuildingBlock: CIFDUS_clean_linker_0, # of connection points: 2
#     Edge 96, Type (0, 1), BuildingBlock: CIFDUS_clean_linker_0, # of connection points: 2
#     Edge 97, Type (0, 1), BuildingBlock: CIFDUS_clean_linker_0, # of connection points: 2
#     Edge 98, Type (0, 1), BuildingBlock: CIFDUS_clean_linker_0, # of connection points: 2
#     Edge 99, Type (0, 1), BuildingBlock: CIFDUS_clean_linker_0, # of connection points: 2
#     Edge 100, Type (0, 1), BuildingBlock: CIFDUS_clean_linker_0, # of connection points: 2
#     Edge 101, Type (0, 1), BuildingBlock: CIFDUS_clean_linker_0, # of connection points: 2
#     Edge 102, Type (0, 1), BuildingBlock: CIFDUS_clean_linker_0, # of connection points: 2
#     Edge 103, Type (0, 1), BuildingBlock: CIFDUS_clean_linker_0, # of connection points: 2
#     Edge 104, Type (0, 1), BuildingBlock: CIFDUS_clean_linker_0, # of connection points: 2
#     Edge 105, Type (0, 1), BuildingBlock: CIFDUS_clean_linker_0, # of connection points: 2
#     Edge 106, Type (0, 1), BuildingBlock: CIFDUS_clean_linker_0, # of connection points: 2
#     Edge 107, Type (0, 1), BuildingBlock: CIFDUS_clean_linker_0, # of connection points: 2
#     Edge 108, Type (0, 1), BuildingBlock: CIFDUS_clean_linker_0, # of connection points: 2
#     Edge 109, Type (0, 1), BuildingBlock: CIFDUS_clean_linker_0, # of connection points: 2
#     Edge 110, Type (0, 1), BuildingBlock: CIFDUS_clean_linker_0, # of connection points: 2
#     Edge 111, Type (0, 1), BuildingBlock: CIFDUS_clean_linker_0, # of connection points: 2
#     Edge 112, Type (0, 1), BuildingBlock: CIFDUS_clean_linker_0, # of connection points: 2
#     Edge 113, Type (0, 1), BuildingBlock: CIFDUS_clean_linker_0, # of connection points: 2
#     Edge 114, Type (0, 1), BuildingBlock: CIFDUS_clean_linker_0, # of connection points: 2
#     Edge 115, Type (0, 1), BuildingBlock: CIFDUS_clean_linker_0, # of connection points: 2
#     Edge 116, Type (0, 1), BuildingBlock: CIFDUS_clean_linker_0, # of connection points: 2
#     Edge 117, Type (0, 1), BuildingBlock: CIFDUS_clean_linker_0, # of connection points: 2
#     Edge 118, Type (0, 1), BuildingBlock: CIFDUS_clean_linker_0, # of connection points: 2
#     Edge 119, Type (0, 1), BuildingBlock: CIFDUS_clean_linker_0, # of connection points: 2
#     Edge 120, Type (0, 1), BuildingBlock: CIFDUS_clean_linker_0, # of connection points: 2
#     Edge 121, Type (0, 1), BuildingBlock: CIFDUS_clean_linker_0, # of connection points: 2
#     Edge 122, Type (0, 1), BuildingBlock: CIFDUS_clean_linker_0, # of connection points: 2
#     Edge 123, Type (0, 1), BuildingBlock: CIFDUS_clean_linker_0, # of connection points: 2
#     Edge 124, Type (0, 1), BuildingBlock: CIFDUS_clean_linker_0, # of connection points: 2
#     Edge 125, Type (0, 1), BuildingBlock: CIFDUS_clean_linker_0, # of connection points: 2
#     Edge 126, Type (0, 1), BuildingBlock: CIFDUS_clean_linker_0, # of connection points: 2
#     Edge 127, Type (0, 1), BuildingBlock: CIFDUS_clean_linker_0, # of connection points: 2
#     Edge 128, Type (0, 1), BuildingBlock: CIFDUS_clean_linker_0, # of connection points: 2
#     Edge 129, Type (0, 1), BuildingBlock: CIFDUS_clean_linker_0, # of connection points: 2
#     Edge 130, Type (0, 1), BuildingBlock: CIFDUS_clean_linker_0, # of connection points: 2
#     Edge 131, Type (0, 1), BuildingBlock: CIFDUS_clean_linker_0, # of connection points: 2
#     Edge 132, Type (0, 1), BuildingBlock: CIFDUS_clean_linker_0, # of connection points: 2
#     Edge 133, Type (0, 1), BuildingBlock: CIFDUS_clean_linker_0, # of connection points: 2
#     Edge 134, Type (0, 1), BuildingBlock: CIFDUS_clean_linker_0, # of connection points: 2
#     Edge 135, Type (0, 1), BuildingBlock: CIFDUS_clean_linker_0, # of connection points: 2
# Relax obj value: 0.120
# Max RMSD: 0.231
# Mean RMSD: 0.160
data_MOF--net-gar--node1-QUQFOY_clean_sbu_1--node2-CUKXOW_clean_sbu_0--edge1-CIFDUS_clean_linker_0
_symmetry_space_group_name_H-M    P1
_symmetry_Int_Tables_number       1
_symmetry_cell_setting            triclinic
loop_
_symmetry_equiv_pos_as_xyz
'x, y, z'
_cell_length_a     49.620035
_cell_length_b     48.121795
_cell_length_c     48.229687
_cell_angle_alpha  94.462432
_cell_angle_beta   95.541354
_cell_angle_gamma 101.84427
loop_
_atom_site_label
_atom_site_type_symbol
_atom_site_fract_x
_atom_site_fract_y
_atom_site_fract_z
_atom_type_partial_charge
O0 O 0.04565 0.23495 0.46312 0.0
Cd1 Cd 0.0462 0.26514 0.4347 0.0
Cd2 Cd 0.01188 0.28197 0.47577 0.0
O3 O 0.02264 0.24988 0.49626 0.0
O4 O 0.06626 0.24846 0.40634 0.0
O5 O 0.08184 0.29163 0.42828 0.0
C6 C 0.08473 0.27182 0.40987 0.0
C7 C 0.01594 0.32541 0.50135 0.0
C8 C 0.03626 0.23252 0.48663 0.0
C9 C 0.98738 0.26971 0.41575 0.0
O10 O 0.98283 0.27303 0.44111 0.0
O11 O 0.0112 0.26786 0.40946 0.0
O12 O 0.99552 0.30445 0.50312 0.0
O13 O 0.03442 0.32143 0.48518 0.0
O14 O 0.98162 0.74114 0.59907 0.0
Cd15 Cd 0.99282 0.77357 0.63112 0.0
Cd16 Cd 0.01805 0.80107 0.59254 0.0
O17 O 1.00578 0.763 0.56812 0.0
O18 O 0.97162 0.75791 0.66119 0.0
O19 O 0.96594 0.79718 0.64259 0.0
C20 C 0.95933 0.77898 0.66042 0.0
C21 C 1.00464 0.8409 0.57814 0.0
C22 C 0.99013 0.74099 0.57509 0.0
C23 C 0.05467 0.7965 0.64246 0.0
O24 O 0.0537 0.80691 0.61913 0.0
O25 O 0.03283 0.78233 0.65054 0.0
O26 O 0.0232 0.83052 0.56639 0.0
O27 O 0.99328 0.82833 0.59814 0.0
O28 O 0.58958 0.774 0.94001 0.0
Cd29 Cd 0.56185 0.78039 0.96751 0.0
Cd30 Cd 0.52834 0.78809 0.9222 0.0
O31 O 0.56151 0.77885 0.90336 0.0
O32 O 0.56679 0.75747 0.99912 0.0
O33 O 0.52922 0.7481 0.96813 0.0
C34 C 0.54293 0.74137 0.98988 0.0
C35 C 0.48643 0.77315 0.89359 0.0
C36 C 0.58427 0.77371 0.91371 0.0
C37 C 0.54514 0.83572 0.9702 0.0
O38 O 0.53083 0.82579 0.94696 0.0
O39 O 0.56061 0.82137 0.98249 0.0
O40 O 0.50504 0.79447 0.88871 0.0
O41 O 0.49151 0.75992 0.91513 0.0
O42 O 0.49386 0.25899 0.0942 0.0
Cd43 Cd 0.50749 0.29211 0.12544 0.0
Cd44 Cd 0.53747 0.31361 0.08595 0.0
O45 O 0.52109 0.27493 0.06279 0.0
O46 O 0.48346 0.27977 0.1546 0.0
O47 O 0.48408 0.3203 0.13589 0.0
C48 C 0.47446 0.30293 0.15343 0.0
C49 C 0.53102 0.35622 0.07035 0.0
C50 C 0.50274 0.25551 0.07061 0.0
C51 C 0.56946 0.30601 0.13906 0.0
O52 O 0.5708 0.31539 0.11526 0.0
O53 O 0.54613 0.29546 0.14683 0.0
O54 O 0.54956 0.3437 0.06124 0.0
O55 O 0.51542 0.34399 0.08782 0.0
O56 O 0.99517 0.72471 0.1714 0.0
Cd57 Cd 0.99749 0.75734 0.20354 0.0
Cd58 Cd 0.02083 0.79237 0.16292 0.0
O59 O 0.01484 0.75251 0.14134 0.0
O60 O 0.96804 0.74635 0.22968 0.0
O61 O 0.96789 0.78108 0.20249 0.0
C62 C 0.95611 0.766 0.22082 0.0
C63 C 0.01967 0.8295 0.13399 0.0
C64 C 1.00449 0.72778 0.14781 0.0
C65 C 0.0568 0.79106 0.21771 0.0
O66 O 0.05282 0.8022 0.19505 0.0
O67 O 0.03756 0.77229 0.22541 0.0
O68 O 0.03954 0.81611 0.13533 0.0
O69 O 0.99978 0.82177 0.14897 0.0
O70 O 0.58938 0.80003 0.38391 0.0
Cd71 Cd 0.5567 0.79832 0.40769 0.0
Cd72 Cd 0.53365 0.8178 0.35811 0.0
O73 O 0.57046 0.8093 0.34318 0.0
O74 O 0.56593 0.77602 0.43935 0.0
O75 O 0.52958 0.76074 0.40769 0.0
C76 C 0.54458 0.75633 0.42969 0.0
C77 C 0.48811 0.80209 0.33453 0.0
C78 C 0.59101 0.80366 0.35821 0.0
C79 C 0.54213 0.85604 0.41358 0.0
O80 O 0.53635 0.85316 0.38705 0.0
O81 O 0.54976 0.83615 0.42609 0.0
O82 O 0.50546 0.82313 0.32683 0.0
O83 O 0.49723 0.7885 0.35426 0.0
O84 O 0.4938 0.20519 0.6673 0.0
Cd85 Cd 0.49516 0.23924 0.69737 0.0
Cd86 Cd 0.51894 0.27033 0.65485 0.0
O87 O 0.51033 0.22974 0.63337 0.0
O88 O 0.47051 0.22494 0.72661 0.0
O89 O 0.46289 0.25923 0.70125 0.0
C90 C 0.4556 0.24317 0.72069 0.0
C91 C 0.51013 0.30912 0.63059 0.0
C92 C 0.50134 0.20596 0.64276 0.0
C93 C 0.55573 0.26925 0.70909 0.0
O94 O 0.55329 0.27819 0.68499 0.0
O95 O 0.53479 0.25445 0.71842 0.0
O96 O 0.53054 0.29724 0.62614 0.0
O97 O 0.49432 0.29886 0.64877 0.0
O98 O 0.03648 0.25395 0.89237 0.0
Cd99 Cd 0.03929 0.28127 0.86108 0.0
Cd100 Cd 0.01688 0.31562 0.90637 0.0
O101 O 0.02179 0.27967 0.92557 0.0
O102 O 0.06309 0.26602 0.83461 0.0
O103 O 0.07716 0.30722 0.86055 0.0
C104 C 0.08268 0.28803 0.843 0.0
C105 C 0.0182 0.35685 0.93674 0.0
C106 C 0.02945 0.25719 0.91689 0.0
C107 C 0.98448 0.29956 0.84716 0.0
O108 O 0.9878 0.31166 0.87199 0.0
O109 O 1.00224 0.28623 0.83831 0.0
O110 O 0.99847 0.33463 0.93519 0.0
O111 O 0.03794 0.35571 0.9214 0.0
O112 O 0.42128 0.09105 0.19615 0.0
Cd113 Cd 0.3947 0.09219 0.22747 0.0
Cd114 Cd 0.44131 0.0776 0.25732 0.0
O115 O 0.46033 0.09113 0.22278 0.0
O116 O 0.3639 0.11143 0.21437 0.0
O117 O 0.39424 0.12857 0.25134 0.0
C118 C 0.37248 0.13067 0.23526 0.0
C119 C 0.46247 0.0866 0.304 0.0
C120 C 0.44734 0.09212 0.19888 0.0
C121 C 0.38759 0.03362 0.24559 0.0
O122 O 0.41383 0.03873 0.25062 0.0
O123 O 0.37514 0.05316 0.23898 0.0
O124 O 0.47076 0.07017 0.28578 0.0
O125 O 0.44351 0.09971 0.29522 0.0
O126 O 0.27279 0.16833 0.54384 0.0
Cd127 Cd 0.26839 0.13959 0.50934 0.0
Cd128 Cd 0.24734 0.17898 0.48344 0.0
O129 O 0.25079 0.19787 0.52339 0.0
O130 O 0.29016 0.11173 0.5216 0.0
O131 O 0.30101 0.13958 0.48804 0.0
C132 C 0.30675 0.12039 0.5036 0.0
C133 C 0.26346 0.21211 0.45316 0.0
C134 C 0.26308 0.19073 0.54506 0.0
C135 C 0.21032 0.12156 0.4805 0.0
O136 O 0.21372 0.14584 0.47108 0.0
O137 O 0.22958 0.1152 0.4964 0.0
O138 O 0.2399 0.21079 0.46264 0.0
O139 O 0.27744 0.19315 0.45949 0.0
O140 O 0.14971 0.98197 0.74126 0.0
Cd141 Cd 0.18317 0.99228 0.772 0.0
Cd142 Cd 0.14325 0.0159 0.80111 0.0
O143 O 0.12026 1.00214 0.76279 0.0
O144 O 0.2095 0.96954 0.75764 0.0
O145 O 0.19269 0.96363 0.79802 0.0
C146 C 0.20785 0.95609 0.7797 0.0
C147 C 0.11751 0.01037 0.83978 0.0
C148 C 0.12628 0.98878 0.74127 0.0
C149 C 0.19652 0.05599 0.79025 0.0
O150 O 0.17435 0.05219 0.80207 0.0
O151 O 0.20368 0.03502 0.7773 0.0
O152 O 0.11516 0.02938 0.8229 0.0
O153 O 0.13509 0.99461 0.83518 0.0
O154 O 0.22434 0.88661 0.0828 0.0
Cd155 Cd 0.22048 0.91798 0.05525 0.0
Cd156 Cd 0.23844 0.86884 0.01562 0.0
O157 O 0.23458 0.85234 0.05446 0.0
O158 O 0.19975 0.94694 0.07097 0.0
O159 O 0.1839 0.91847 0.03232 0.0
C160 C 0.18086 0.93902 0.04988 0.0
C161 C 0.24028 0.83821 0.9747 0.0
C162 C 0.23006 0.86195 0.07869 0.0
C163 C 0.27186 0.93241 0.02546 0.0
O164 O 0.26614 0.9068 0.01427 0.0
O165 O 0.25708 0.94108 0.04304 0.0
O166 O 0.25912 0.84269 0.99577 0.0
O167 O 0.21905 0.84942 0.97741 0.0
O168 O 0.23504 0.4181 0.11252 0.0
Cd169 Cd 0.24924 0.45029 0.08848 0.0
Cd170 Cd 0.27052 0.41217 0.06003 0.0
O171 O 0.25171 0.38666 0.08752 0.0
O172 O 0.22548 0.47821 0.08852 0.0
O173 O 0.22927 0.45025 0.05069 0.0
C174 C 0.21917 0.47048 0.06204 0.0
C175 C 0.26727 0.39101 0.01454 0.0
C176 C 0.23841 0.39282 0.10747 0.0
C177 C 0.30951 0.46557 0.08782 0.0
O178 O 0.30645 0.4416 0.07359 0.0
O179 O 0.28889 0.4739 0.09636 0.0
O180 O 0.28337 0.38466 0.03451 0.0
O181 O 0.25281 0.40968 0.02041 0.0
O182 O 0.818 0.18173 0.06712 0.0
Cd183 Cd 0.81681 0.15051 0.03387 0.0
Cd184 Cd 0.78968 0.19072 1.00361 0.0
O185 O 0.79829 0.21206 0.04418 0.0
O186 O 0.84154 0.12345 0.04522 0.0
O187 O 0.84892 0.15003 0.01043 0.0
C188 C 0.85617 0.13097 0.02528 0.0
C189 C 0.79218 0.21457 0.96197 0.0
C190 C 0.80852 0.20452 0.06708 0.0
C191 C 0.75617 0.1311 0.00978 0.0
O192 O 0.7577 0.15526 1.00031 0.0
O193 O 0.77733 0.12485 0.0229 0.0
O194 O 0.77394 0.21714 0.97872 0.0
O195 O 0.81002 0.19964 0.96945 0.0
O196 O 0.12136 0.49189 0.22466 0.0
Cd197 Cd 0.15135 0.49257 0.25819 0.0
Cd198 Cd 0.10536 0.51888 0.2846 0.0
O199 O 0.08791 0.50937 0.24251 0.0
O200 O 0.18007 0.47607 0.23943 0.0
O201 O 0.16018 0.45646 0.27392 0.0
C202 C 0.17774 0.45613 0.25589 0.0
C203 C 0.07809 0.51871 0.32276 0.0
C204 C 0.09821 0.49962 0.22148 0.0
C205 C 0.16516 0.5539 0.28593 0.0
O206 O 0.14019 0.55143 0.29122 0.0
O207 O 0.1734 0.53318 0.27387 0.0
O208 O 0.07729 0.53611 0.30389 0.0
O209 O 0.09319 0.5001 0.31937 0.0
O210 O 0.73873 0.9231 0.6245 0.0
Cd211 Cd 0.75443 0.95689 0.60317 0.0
Cd212 Cd 0.75897 0.91641 0.56062 0.0
O213 O 0.74406 0.8915 0.59092 0.0
O214 O 0.73472 0.98871 0.60581 0.0
O215 O 0.73278 0.95979 0.56703 0.0
C216 C 0.72561 0.98136 0.57967 0.0
C217 C 0.75219 0.89234 0.51581 0.0
C218 C 0.73673 0.89736 0.61482 0.0
C219 C 0.80902 0.96411 0.58552 0.0
O220 O 0.79675 0.94458 0.56662 0.0
O221 O 0.7965 0.97174 0.60552 0.0
O222 O 0.76918 0.88688 0.53542 0.0
O223 O 0.73797 0.9112 0.52179 0.0
O224 O 0.88343 0.06307 0.1811 0.0
Cd225 Cd 0.85351 0.05585 0.20858 0.0
Cd226 Cd 0.89856 0.04534 0.24464 0.0
O227 O 0.91781 0.05504 0.2097 0.0
O228 O 0.8239 0.07593 0.19572 0.0
O229 O 0.84994 0.08822 0.23643 0.0
C230 C 0.83033 0.09262 0.21873 0.0
C231 C 0.92861 0.05446 0.2862 0.0
C232 C 0.9087 0.06155 0.18613 0.0
C233 C 0.84553 0.99871 0.23087 0.0
O234 O 0.86942 0.00808 0.24421 0.0
O235 O 0.83498 0.01395 0.21427 0.0
O236 O 0.92987 0.03484 0.26705 0.0
O237 O 0.91037 0.06972 0.28165 0.0
O238 O 0.32697 0.67462 0.55958 0.0
Cd239 Cd 0.3236 0.64599 0.52404 0.0
Cd240 Cd 0.30255 0.69414 0.4995 0.0
O241 O 0.31284 0.71106 0.54156 0.0
O242 O 0.34306 0.61438 0.53428 0.0
O243 O 0.35755 0.64435 0.50384 0.0
C244 C 0.36081 0.62283 0.51726 0.0
C245 C 0.30544 0.72151 0.4605 0.0
C246 C 0.32127 0.69931 0.56268 0.0
C247 C 0.26366 0.6357 0.49811 0.0
O248 O 0.26811 0.66158 0.49285 0.0
O249 O 0.28297 0.62513 0.50958 0.0
O250 O 0.28863 0.72426 0.47876 0.0
O251 O 0.3223 0.70482 0.46543 0.0
O252 O 0.3915 0.56363 0.69974 0.0
Cd253 Cd 0.362 0.55757 0.72774 0.0
Cd254 Cd 0.40373 0.54419 0.7614 0.0
O255 O 0.42506 0.55229 0.727 0.0
O256 O 0.334 0.58045 0.71699 0.0
O257 O 0.36106 0.58962 0.75723 0.0
C258 C 0.34178 0.59607 0.74054 0.0
C259 C 0.42795 0.55862 0.80601 0.0
C260 C 0.41617 0.55986 0.70378 0.0
C261 C 0.35108 0.49863 0.74609 0.0
O262 O 0.37512 0.50627 0.75955 0.0
O263 O 0.34127 0.51579 0.73125 0.0
O264 O 0.4335 0.53866 0.78964 0.0
O265 O 0.40883 0.57131 0.79685 0.0
O266 O 0.60879 0.98127 0.71946 0.0
Cd267 Cd 0.63749 0.98479 0.75485 0.0
Cd268 Cd 0.59044 0.00951 0.77746 0.0
O269 O 0.57399 0.99761 0.73567 0.0
O270 O 0.66905 0.96932 0.74079 0.0
O271 O 0.64545 0.94977 0.77319 0.0
C272 C 0.66545 0.95003 0.75791 0.0
C273 C 0.56211 0.00753 0.81431 0.0
C274 C 0.58505 0.98762 0.71538 0.0
C275 C 0.64852 0.04703 0.78041 0.0
O276 O 0.62313 0.04418 0.78414 0.0
O277 O 0.65778 0.02615 0.77015 0.0
O278 O 0.56009 0.0241 0.79488 0.0
O279 O 0.57924 0.99079 0.81229 0.0
O280 O 0.77106 0.66738 0.04758 0.0
Cd281 Cd 0.76692 0.63831 0.01325 0.0
Cd282 Cd 0.74862 0.67884 0.98692 0.0
O283 O 0.75598 0.70076 0.02586 0.0
O284 O 0.78479 0.60844 0.02765 0.0
O285 O 0.80051 0.63518 0.99474 0.0
C286 C 0.80303 0.61533 0.01075 0.0
C287 C 0.76681 0.7046 0.95191 0.0
C288 C 0.76538 0.69193 0.0481 0.0
C289 C 0.70876 0.62322 0.98539 0.0
O290 O 0.71227 0.64843 0.97818 0.0
O291 O 0.72845 0.61501 0.99877 0.0
O292 O 0.74507 0.70919 0.9625 0.0
O293 O 0.77797 0.68439 0.96066 0.0
O294 O 0.91614 0.58764 0.70127 0.0
Cd295 Cd 0.89068 0.58774 0.73373 0.0
Cd296 Cd 0.93925 0.57592 0.76241 0.0
O297 O 0.95603 0.58615 0.72546 0.0
O298 O 0.85818 0.60472 0.72054 0.0
O299 O 0.88835 0.62427 0.75683 0.0
C300 C 0.86613 0.62485 0.74072 0.0
C301 C 0.9602 0.58938 0.80912 0.0
C302 C 0.94189 0.58725 0.70212 0.0
C303 C 0.88734 0.52931 0.75277 0.0
O304 O 0.91353 0.53627 0.75832 0.0
O305 O 0.87349 0.54756 0.74532 0.0
O306 O 0.96982 0.57281 0.79215 0.0
O307 O 0.9401 0.6003 0.79894 0.0
O308 O 0.7294 0.39215 0.58917 0.0
Cd309 Cd 0.7266 0.4199 0.5584 0.0
Cd310 Cd 0.74351 0.37242 0.52652 0.0
O311 O 0.73879 0.35489 0.56489 0.0
O312 O 0.70682 0.44982 0.57307 0.0
O313 O 0.69035 0.42031 0.53518 0.0
C314 C 0.68765 0.44129 0.55237 0.0
C315 C 0.73288 0.34567 0.48165 0.0
C316 C 0.73458 0.3672 0.58808 0.0
C317 C 0.7823 0.4318 0.53624 0.0
O318 O 0.77756 0.40548 0.52729 0.0
O319 O 0.76427 0.44211 0.54827 0.0
O320 O 0.75256 0.34218 0.49963 0.0
O321 O 0.71773 0.36292 0.48975 0.0
O322 O 0.66766 0.49216 0.25019 0.0
Cd323 Cd 0.69804 0.49983 0.284 0.0
Cd324 Cd 0.65378 0.51882 0.3118 0.0
O325 O 0.63407 0.50491 0.27185 0.0
O326 O 0.72929 0.48285 0.27153 0.0
O327 O 0.70497 0.46659 0.30509 0.0
C328 C 0.7245 0.46469 0.28964 0.0
C329 C 0.62622 0.51038 0.34917 0.0
C330 C 0.64296 0.49586 0.2497 0.0
C331 C 0.70621 0.5627 0.30583 0.0
O332 O 0.68249 0.5573 0.31467 0.0
O333 O 0.7161 0.54274 0.29454 0.0
O334 O 0.62292 0.52894 0.33204 0.0
O335 O 0.64543 0.49647 0.34534 0.0
Tb336 Tb 0.03509 0.07111 0.01814 0.0
C337 C 0.02705 0.02511 0.96548 0.0
Tb338 Tb 0.01044 0.00908 0.02351 0.0
O339 O 0.073 0.06803 0.04446 0.0
O340 O 0.05015 0.03285 0.0185 0.0
O341 O 0.02614 0.05161 0.97464 0.0
C342 C 1.00519 0.95779 0.04264 0.0
O343 O 0.02437 0.00434 0.98222 0.0
C344 C 0.97351 0.03941 1.00687 0.0
C345 C 0.016 0.05599 0.0759 0.0
O346 O 0.98557 0.96657 0.02829 0.0
O347 O 0.02754 0.97763 0.04569 0.0
O348 O 0.97065 0.01201 1.00074 0.0
O349 O 0.99542 0.04728 0.02352 0.0
O350 O 0.01385 0.02873 0.06683 0.0
O351 O 0.02194 0.07688 0.05959 0.0
C352 C 0.04438 0.12317 1.00005 0.0
O353 O 0.06193 0.10658 1.00144 0.0
O354 O 0.02192 0.11074 0.00958 0.0
C355 C 0.07059 0.04092 0.03705 0.0
Tb356 Tb 0.27666 0.83031 0.28103 0.0
C357 C 0.32915 0.79984 0.28024 0.0
Tb358 Tb 0.26691 0.7636 0.26745 0.0
O359 O 0.26633 0.82589 0.32383 0.0
O360 O 0.28214 0.7946 0.3026 0.0
O361 O 0.31955 0.82386 0.28214 0.0
C362 C 0.25443 0.70837 0.27503 0.0
O363 O 0.31249 0.77392 0.27602 0.0
C364 C 0.26065 0.79107 0.22165 0.0
C365 C 0.21549 0.7938 0.26954 0.0
O366 O 0.26994 0.71931 0.25661 0.0
O367 O 0.24624 0.72859 0.28916 0.0
O368 O 0.25841 0.76356 0.22075 0.0
O369 O 0.26664 0.79983 0.24702 0.0
O370 O 0.22549 0.77064 0.27392 0.0
O371 O 0.23193 0.81905 0.2674 0.0
C372 C 0.29505 0.8848 0.27288 0.0
O373 O 0.27835 0.87613 0.29116 0.0
O374 O 0.30103 0.86292 0.25944 0.0
C375 C 0.27156 0.80047 0.32452 0.0
Tb376 Tb 0.54771 0.03876 0.51173 0.0
C377 C 0.52168 0.01923 0.56518 0.0
Tb378 Tb 0.48676 0.03743 0.51325 0.0
O379 O 0.55702 0.07349 0.54615 0.0
O380 O 0.52296 0.06948 0.51632 0.0
O381 O 0.5407 0.01603 0.54841 0.0
C382 C 0.43919 0.0522 0.52117 0.0
O383 O 0.50003 0.03025 0.55685 0.0
C384 C 0.49769 0.99287 0.48548 0.0
C385 C 0.51329 0.0554 0.45866 0.0
O386 O 0.44315 0.0263 0.52099 0.0
O387 O 0.46202 0.06946 0.51767 0.0
O388 O 0.47523 1.00229 0.47994 0.0
O389 O 0.51121 0.00645 0.50765 0.0
O390 O 0.49228 0.05573 0.47367 0.0
O391 O 0.53643 0.04788 0.46867 0.0
C392 C 0.5977 0.02893 0.50454 0.0
O393 O 0.59281 0.05243 0.51594 0.0
O394 O 0.57428 0.01125 0.49646 0.0
C395 C 0.53528 0.08334 0.53867 0.0
Tb396 Tb 0.28111 0.28678 0.817 0.0
C397 C 0.29031 0.33881 0.77885 0.0
Tb398 Tb 0.26814 0.27439 0.75256 0.0
O399 O 0.31829 0.26811 0.81482 0.0
O400 O 0.30355 0.28796 0.78185 0.0
O401 O 0.29046 0.33005 0.80438 0.0
C402 C 0.27836 0.25771 0.70195 0.0
O403 O 0.28329 0.32091 0.75551 0.0
C404 C 0.22189 0.27638 0.77482 0.0
C405 C 0.25521 0.22428 0.79214 0.0
O406 O 0.26332 0.27623 0.70738 0.0
O407 O 0.28738 0.24858 0.72492 0.0
O408 O 0.22301 0.27105 0.74813 0.0
O409 O 0.24632 0.28012 0.7868 0.0
O410 O 0.26242 0.23146 0.76732 0.0
O411 O 0.25708 0.24347 0.8139 0.0
C412 C 0.28021 0.30693 0.86971 0.0
O413 O 0.2972 0.29166 0.86138 0.0
O414 O 0.26379 0.3107 0.84844 0.0
C415 C 0.3212 0.27385 0.78922 0.0
Tb416 Tb 0.99933 0.03228 0.49263 0.0
C417 C 0.95669 0.02016 0.53646 0.0
Tb418 Tb 0.02132 0.0282 0.55507 0.0
O419 O 0.97962 0.98691 0.48554 0.0
O420 O 0.01293 1.00207 0.51662 0.0
O421 O 0.9616 0.03022 0.51217 0.0
C422 C 0.03451 0.01164 0.60518 0.0
O423 O 0.97638 0.01519 0.55495 0.0
C424 C 0.02613 0.07975 0.53949 0.0
C425 C 0.06402 0.03877 0.51114 0.0
O426 O 0.0216 0.03203 0.60059 0.0
O427 O 0.03993 1.0005 0.5815 0.0
O428 O 0.04137 0.07397 0.56081 0.0
O429 O 0.00759 0.05809 0.53088 0.0
O430 O 0.05923 0.0291 0.53566 0.0
O431 O 0.04426 0.0438 0.49283 0.0
C432 C 0.98571 0.05097 0.44381 0.0
O433 O 1.00034 0.03177 0.44742 0.0
O434 O 0.97871 0.05964 0.46768 0.0
C435 C 0.99394 0.98087 0.5074 0.0
Tb436 Tb 0.29881 0.77519 0.77564 0.0
C437 C 0.25449 0.78174 0.81644 0.0
Tb438 Tb 0.23933 0.76815 0.75016 0.0
O439 O 0.2998 0.82006 0.79035 0.0
O440 O 0.27542 0.80043 0.75391 0.0
O441 O 0.27913 0.77546 0.81437 0.0
C442 C 0.18943 0.77626 0.73297 0.0
O443 O 0.23704 0.78254 0.79398 0.0
C444 C 0.25605 0.72005 0.75186 0.0
C445 C 0.28368 0.76303 0.70919 0.0
O446 O 0.19423 0.75602 0.74773 0.0
O447 O 0.21266 0.79175 0.72775 0.0
O448 O 0.23607 0.72402 0.73419 0.0
O449 O 0.26318 0.74156 0.76994 0.0
O450 O 0.25929 0.76969 0.71184 0.0
O451 O 0.30115 0.76097 0.73137 0.0
C452 C 0.34968 0.76981 0.79361 0.0
O453 O 0.34378 0.78838 0.7772 0.0
O454 O 0.32693 0.75423 0.79987 0.0
C455 C 0.28121 0.82277 0.7705 0.0
Tb456 Tb 0.47681 0.03422 1.00578 0.0
C457 C 0.51281 0.98795 0.00963 0.0
Tb458 Tb 0.54117 0.0537 0.01461 0.0
O459 O 0.47638 0.01701 0.9621 0.0
O460 O 0.50916 0.04872 0.98136 0.0
O461 O 0.48896 0.9946 0.01493 0.0
C462 C 0.59442 0.0679 1.00536 0.0
O463 O 0.53512 0.00741 1.00609 0.0
C464 C 0.51581 0.05683 0.05996 0.0
C465 C 0.50493 0.1003 0.00891 0.0
O466 O 0.5855 0.05439 0.02617 0.0
O467 O 0.57344 0.07319 0.99012 0.0
O468 O 0.5398 0.07279 0.05724 0.0
O469 O 0.50894 0.03826 0.0391 0.0
O470 O 0.52976 0.09415 0.00824 0.0
O471 O 0.48181 0.08068 0.00932 0.0
C472 C 0.42284 0.02207 0.01314 0.0
O473 O 0.44256 0.03767 0.03074 0.0
O474 O 0.4335 0.01374 0.99127 0.0
C475 C 0.50136 0.03084 0.96009 0.0
Tb476 Tb 0.24261 0.27422 0.27862 0.0
C477 C 0.29507 0.29001 0.32513 0.0
Tb478 Tb 0.30032 0.29847 0.26186 0.0
O479 O 0.24233 0.23362 0.25356 0.0
O480 O 0.27906 0.25924 0.27307 0.0
O481 O 0.26768 0.28334 0.31902 0.0
C482 C 0.34921 0.29894 0.24401 0.0
O483 O 0.31259 0.2957 0.30611 0.0
C484 C 0.26842 0.33577 0.2666 0.0
C485 C 0.24753 0.28609 0.21745 0.0
O486 O 0.34307 0.3205 0.25822 0.0
O487 O 0.32804 0.27767 0.23996 0.0
O488 O 0.28827 0.338 0.25063 0.0
O489 O 0.26937 0.31504 0.28093 0.0
O490 O 0.27397 0.28454 0.22212 0.0
O491 O 0.23138 0.28609 0.23768 0.0
C492 C 0.19682 0.26489 0.30404 0.0
O493 O 0.20629 0.28783 0.29253 0.0
O494 O 0.21274 0.24692 0.30068 0.0
C495 C 0.26915 0.2369 0.25709 0.0
Tb496 Tb 0.49294 0.55449 0.01847 0.0
C497 C 0.46292 0.53422 0.06842 0.0
Tb498 Tb 0.52849 0.5464 0.0718 0.0
O499 O 0.4748 0.50845 0.0127 0.0
O500 O 0.51502 0.52377 0.03198 0.0
O501 O 0.46145 0.5497 0.04692 0.0
C502 C 0.54963 0.52736 0.11787 0.0
O503 O 0.48617 0.52714 0.07837 0.0
C504 C 0.52684 0.59965 0.06603 0.0
C505 C 0.55804 0.5686 0.02169 0.0
O506 O 0.53291 0.54479 0.117 0.0
O507 O 0.55485 0.52065 0.09259 0.0
O508 O 0.54669 0.59171 0.08079 0.0
O509 O 0.50753 0.57813 0.05806 0.0
O510 O 0.55986 0.55301 0.04309 0.0
O511 O 0.53469 0.57569 0.01222 0.0
C512 C 0.47378 0.568 0.96874 0.0
O513 O 0.49244 0.55316 0.97333 0.0
O514 O 0.46532 0.57533 0.99243 0.0
C515 C 0.49627 0.50174 0.0257 0.0
Tb516 Tb 0.80282 0.27495 0.29065 0.0
C517 C 0.75675 0.28001 0.33036 0.0
Tb518 Tb 0.74214 0.26782 0.26355 0.0
O519 O 0.80651 0.32108 0.30269 0.0
O520 O 0.77843 0.2998 0.2696 0.0
O521 O 0.78165 0.2748 0.3279 0.0
C522 C 0.69452 0.27759 0.24058 0.0
O523 O 0.73866 0.28064 0.30819 0.0
C524 C 0.75876 0.21989 0.26814 0.0
C525 C 0.78896 0.25857 0.22494 0.0
O526 O 0.69677 0.25964 0.25904 0.0
O527 O 0.71898 0.28998 0.23525 0.0
O528 O 0.73827 0.22255 0.25033 0.0
O529 O 0.76612 0.24266 0.28442 0.0
O530 O 0.76415 0.2651 0.22603 0.0
O531 O 0.80646 0.25892 0.24777 0.0
C532 C 0.84825 0.26374 0.31719 0.0
O533 O 0.84829 0.28249 0.29906 0.0
O534 O 0.82299 0.25146 0.31966 0.0
C535 C 0.78556 0.32296 0.28509 0.0
Tb536 Tb 0.99159 0.52876 0.51599 0.0
C537 C 0.03246 0.49007 0.53576 0.0
Tb538 Tb 0.05533 0.55465 0.5285 0.0
O539 O 0.99414 0.535 0.47145 0.0
O540 O 0.02799 0.52767 0.49616 0.0
O541 O 1.00701 0.49484 0.53563 0.0
C542 C 0.10908 0.56879 0.52219 0.0
O543 O 0.05369 0.50948 0.52995 0.0
C544 C 0.03019 0.56124 0.57418 0.0
C545 C 0.01341 0.59442 0.51447 0.0
O546 O 0.09869 0.55542 0.54237 0.0
O547 O 0.08917 0.57478 0.50567 0.0
O548 O 0.05665 0.56978 0.57314 0.0
O549 O 0.02003 0.54971 0.55004 0.0
O550 O 0.03912 0.59044 0.51356 0.0
O551 O 0.99216 0.57385 0.51827 0.0
C552 C 0.9386 0.5023 0.51567 0.0
O553 O 0.95646 0.49363 0.50105 0.0
O554 O 0.95057 0.52607 0.5306 0.0
C555 C 0.02007 0.53359 0.47215 0.0
Tb556 Tb 0.77824 0.79458 0.31884 0.0
C557 C 0.79004 0.84319 0.27733 0.0
Tb558 Tb 0.76745 0.77774 0.25505 0.0
O559 O 0.81412 0.77424 0.32082 0.0
O560 O 0.80282 0.7923 0.28498 0.0
O561 O 0.78903 0.83663 0.3036 0.0
C562 C 0.7774 0.75807 0.20517 0.0
O563 O 0.78391 0.82366 0.25525 0.0
C564 C 0.72061 0.78365 0.27512 0.0
C565 C 0.75305 0.73095 0.29743 0.0
O566 O 0.76351 0.77781 0.20964 0.0
O567 O 0.7855 0.74937 0.22872 0.0
O568 O 0.72244 0.7771 0.24877 0.0
O569 O 0.74459 0.78615 0.28763 0.0
O570 O 0.76133 0.73631 0.27259 0.0
O571 O 0.75349 0.75156 0.31749 0.0
C572 C 0.77541 0.81614 0.37069 0.0
O573 O 0.79236 0.8003 0.36366 0.0
O574 O 0.76032 0.82016 0.34853 0.0
C575 C 0.81914 0.77783 0.29524 0.0
Tb576 Tb 0.78043 0.31942 0.77732 0.0
C577 C 0.82821 0.2833 0.77936 0.0
Tb578 Tb 0.76395 0.25311 0.76564 0.0
O579 O 0.76626 0.31706 0.81912 0.0
O580 O 0.78056 0.28355 0.80063 0.0
O581 O 0.82169 0.30891 0.78017 0.0
C582 C 0.74645 0.19869 0.77434 0.0
O583 O 0.80909 0.25895 0.77531 0.0
C584 C 0.76428 0.27755 0.71788 0.0
C585 C 0.71791 0.28986 0.75976 0.0
O586 O 0.76457 0.20786 0.75755 0.0
O587 O 0.73841 0.22022 0.78635 0.0
O588 O 0.75899 0.2501 0.7192 0.0
O589 O 0.76971 0.28867 0.7428 0.0
O590 O 0.72365 0.26543 0.76716 0.0
O591 O 0.7377 0.31272 0.7582 0.0
C592 C 0.80077 0.37456 0.77273 0.0
O593 O 0.78104 0.36487 0.78754 0.0
O594 O 0.80907 0.35327 0.76074 0.0
C595 C 0.76926 0.29109 0.82138 0.0
Tb596 Tb 0.72521 0.76085 0.77058 0.0
C597 C 0.77249 0.78559 0.82004 0.0
Tb598 Tb 0.78214 0.79093 0.75857 0.0
O599 O 0.72999 0.72037 0.74941 0.0
O600 O 0.7644 0.74975 0.7694 0.0
O601 O 0.74577 0.7816 0.81115 0.0
C602 C 0.83154 0.80132 0.73961 0.0
O603 O 0.79158 0.78656 0.80262 0.0
C604 C 0.7502 0.82575 0.7742 0.0
C605 C 0.73299 0.77376 0.70971 0.0
O606 O 0.82198 0.78007 0.75331 0.0
O607 O 0.81336 0.81709 0.73675 0.0
O608 O 0.77719 0.83266 0.7773 0.0
O609 O 0.74309 0.80181 0.76006 0.0
O610 O 0.7598 0.7753 0.71693 0.0
O611 O 0.71495 0.7708 0.72839 0.0
C612 C 0.67826 0.74788 0.79412 0.0
O613 O 0.68106 0.7606 0.77149 0.0
O614 O 0.70158 0.74152 0.80269 0.0
C615 C 0.75691 0.72656 0.7539 0.0
Tb616 Tb 0.53435 0.56454 0.52766 0.0
C617 C 0.53351 0.51986 0.47421 0.0
Tb618 Tb 0.5141 0.50015 0.53133 0.0
O619 O 0.57413 0.56426 0.55257 0.0
O620 O 0.55204 0.52825 0.52801 0.0
O621 O 0.5347 0.54665 0.48442 0.0
C622 C 0.51406 0.44807 0.54813 0.0
O623 O 0.52761 0.49782 0.48933 0.0
C624 C 0.47552 0.52709 0.5125 0.0
C625 C 0.51327 0.54492 0.58344 0.0
O626 O 0.49235 0.45914 0.54435 0.0
O627 O 0.5353 0.46605 0.54193 0.0
O628 O 0.47441 0.49992 0.50634 0.0
O629 O 0.49615 0.53653 0.53052 0.0
O630 O 0.51715 0.51914 0.57506 0.0
O631 O 0.51494 0.56547 0.56637 0.0
C632 C 0.53865 0.61697 0.51099 0.0
O633 O 0.55302 0.6105 0.53261 0.0
O634 O 0.52193 0.59398 0.49895 0.0
C635 C 0.57263 0.53721 0.546 0.0
Tb636 Tb 0.05718 0.56462 0.01949 0.0
C637 C 0.03406 0.54087 0.07489 0.0
Tb638 Tb 0.9966 0.55696 0.02534 0.0
O639 O 0.06116 0.61119 0.02399 0.0
O640 O 0.03285 0.58476 0.04468 0.0
O641 O 0.05348 0.5419 0.05751 0.0
C642 C 0.95049 0.57615 0.02703 0.0
O643 O 0.01074 0.54963 0.06808 0.0
C644 C 0.01097 0.51045 1.0067 0.0
C645 C 0.01938 0.57572 0.96732 0.0
O646 O 0.95188 0.54949 0.02787 0.0
O647 O 0.97489 0.5916 0.0259 0.0
O648 O 0.98949 0.5104 0.02031 0.0
O649 O 0.02074 0.53554 1.00137 0.0
O650 O 0.99856 0.57223 0.98314 0.0
O651 O 0.04431 0.57196 0.97666 0.0
C652 C 0.10816 0.55608 0.0166 0.0
O653 O 0.10215 0.57862 0.02881 0.0
O654 O 0.08546 0.5385 1.00601 0.0
C655 C 0.04127 0.61013 0.03982 0.0
H656 H 0.06453 0.22062 0.91945 0.0
H657 H 0.99503 0.2426 0.9565 0.0
H658 H 0.99401 0.20363 0.98633 0.0
H659 H 0.01183 0.16208 1.00063 0.0
H660 H 0.08314 0.14198 0.96574 0.0
H661 H 0.08476 0.18157 0.9366 0.0
C662 C 0.0492 0.21686 0.9341 0.0
C663 C 0.0297 0.23424 0.93558 0.0
C664 C 0.04917 0.19484 0.95166 0.0
C665 C 0.01024 0.22947 0.95497 0.0
C666 C 0.00963 0.20718 0.972 0.0
C667 C 0.02791 0.16664 0.98688 0.0
C668 C 0.04729 0.14916 0.98523 0.0
C669 C 0.02887 0.18961 0.9704 0.0
C670 C 0.06807 0.15525 0.96743 0.0
C671 C 0.06891 0.17777 0.95065 0.0
H672 H 0.08424 0.75618 0.24647 0.0
H673 H 0.09446 0.84127 0.22098 0.0
H674 H 0.14408 0.85047 0.23642 0.0
H675 H 0.1855 0.83292 0.25288 0.0
H676 H 0.17565 0.74706 0.27659 0.0
H677 H 0.12549 0.73977 0.26623 0.0
C678 C 0.09721 0.77698 0.24501 0.0
C679 C 0.08548 0.79803 0.23269 0.0
C680 C 0.1261 0.78189 0.25317 0.0
C681 C 0.10283 0.82468 0.23044 0.0
C682 C 0.13132 0.82992 0.23911 0.0
C683 C 0.17242 0.81271 0.25612 0.0
C684 C 0.18465 0.79057 0.26537 0.0
C685 C 0.14336 0.80844 0.2498 0.0
C686 C 0.16709 0.76452 0.26932 0.0
C687 C 0.13824 0.76028 0.26342 0.0
H688 H 0.51171 0.89428 0.39745 0.0
H689 H 0.56458 0.87656 0.46727 0.0
H690 H 0.55706 0.91832 0.49533 0.0
H691 H 0.53356 0.95889 0.50078 0.0
H692 H 0.47867 0.97433 0.4315 0.0
H693 H 0.48887 0.93467 0.40261 0.0
C694 C 0.5218 0.89966 0.41873 0.0
C695 C 0.53873 0.88226 0.43016 0.0
C696 C 0.51686 0.9233 0.43497 0.0
C697 C 0.55137 0.88948 0.45791 0.0
C698 C 0.54707 0.91338 0.474 0.0
C699 C 0.52405 0.95363 0.47929 0.0
C700 C 0.50536 0.96947 0.46828 0.0
C701 C 0.52959 0.9303 0.46288 0.0
C702 C 0.49299 0.96233 0.4405 0.0
C703 C 0.49884 0.93967 0.42393 0.0
H704 H 0.41515 0.27328 0.70863 0.0
H705 H 0.44113 0.21851 0.76779 0.0
H706 H 0.40226 0.2228 0.79405 0.0
H707 H 0.36079 0.24266 0.80091 0.0
H708 H 0.33428 0.29642 0.74104 0.0
H709 H 0.37293 0.29181 0.71457 0.0
C710 C 0.41232 0.26226 0.72725 0.0
C711 C 0.43129 0.24568 0.73615 0.0
C712 C 0.38962 0.2646 0.74226 0.0
C713 C 0.42701 0.23143 0.76031 0.0
C714 C 0.40471 0.23389 0.77544 0.0
C715 C 0.36348 0.25331 0.78205 0.0
C716 C 0.34458 0.26989 0.77307 0.0
C717 C 0.38588 0.25049 0.76672 0.0
C718 C 0.34839 0.28345 0.74848 0.0
C719 C 0.37059 0.28089 0.7333 0.0
H720 H 0.99798 0.85444 0.52548 0.0
H721 H 0.99639 0.88598 0.61129 0.0
H722 H 0.99232 0.93283 0.59677 0.0
H723 H 0.9926 0.96536 0.55971 0.0
H724 H 0.99116 0.93271 0.47372 0.0
H725 H 0.99269 0.88528 0.48807 0.0
C726 C 0.99632 0.87153 0.54087 0.0
C727 C 0.9977 0.8672 0.56931 0.0
C728 C 0.99362 0.898 0.53233 0.0
C729 C 0.99524 0.88909 0.58924 0.0
C730 C 0.99311 0.91581 0.58097 0.0
C731 C 0.99261 0.94777 0.54426 0.0
C732 C 0.9924 0.95224 0.51591 0.0
C733 C 0.99289 0.92062 0.55264 0.0
C734 C 0.99152 0.92943 0.49572 0.0
C735 C 0.99244 0.90247 0.5039 0.0
H736 H 0.47372 0.79436 0.84511 0.0
H737 H 0.43949 0.73432 0.90119 0.0
H738 H 0.39421 0.72561 0.87305 0.0
H739 H 0.36362 0.73862 0.83499 0.0
H740 H 0.39822 0.80027 0.78061 0.0
H741 H 0.44435 0.8046 0.80552 0.0
C742 C 0.45644 0.77918 0.85114 0.0
C743 C 0.45982 0.76528 0.87539 0.0
C744 C 0.43058 0.77467 0.8352 0.0
C745 C 0.43733 0.74542 0.88267 0.0
C746 C 0.41145 0.74049 0.86664 0.0
C747 C 0.38137 0.75267 0.82842 0.0
C748 C 0.37767 0.76931 0.80624 0.0
C749 C 0.40772 0.75551 0.84323 0.0
C750 C 0.40068 0.78741 0.79777 0.0
C751 C 0.42699 0.78995 0.81203 0.0
H752 H 0.52971 0.23349 0.03076 0.0
H753 H 0.45756 0.21345 0.07478 0.0
H754 H 0.44936 0.16355 0.05572 0.0
H755 H 0.4667 0.12462 0.0324 0.0
H756 H 0.54095 0.1444 0.99153 0.0
H757 H 0.54411 0.1953 1.0032 0.0
C758 C 0.51179 0.21836 0.03563 0.0
C759 C 0.49445 0.22712 0.05438 0.0
C760 C 0.50777 0.18951 0.02543 0.0
C761 C 0.47139 0.20719 0.06058 0.0
C762 C 0.46672 0.17862 0.04977 0.0
C763 C 0.48317 0.14011 0.02546 0.0
C764 C 0.50368 0.13078 0.01134 0.0
C765 C 0.48539 0.16934 0.03306 0.0
C766 C 0.52505 0.15107 1.00268 0.0
C767 C 0.5269 0.18019 0.00938 0.0
H768 H 0.10306 0.23044 0.38123 0.0
H769 H 0.11734 0.32191 0.39872 0.0
H770 H 0.15238 0.32789 0.36593 0.0
H771 H 0.1784 0.30687 0.3318 0.0
H772 H 0.16593 0.21536 0.31694 0.0
H773 H 0.13024 0.20951 0.34895 0.0
C774 C 0.11391 0.2517 0.37794 0.0
C775 C 0.1076 0.27572 0.39223 0.0
C776 C 0.13403 0.2549 0.35933 0.0
C777 C 0.12199 0.30311 0.38803 0.0
C778 C 0.14185 0.30653 0.36917 0.0
C779 C 0.16761 0.28569 0.33543 0.0
C780 C 0.17429 0.26152 0.32188 0.0
C781 C 0.14785 0.28256 0.35454 0.0
C782 C 0.1608 0.23418 0.32708 0.0
C783 C 0.14055 0.23087 0.34541 0.0
H784 H 0.95915 0.04804 0.18605 0.0
H785 H 0.90108 0.08554 0.13697 0.0
H786 H 0.93191 0.09118 0.10018 0.0
H787 H 0.97359 0.08197 0.08051 0.0
H788 H 0.02879 0.03978 0.12747 0.0
H789 H 1.00125 0.04008 0.16703 0.0
C790 C 0.95331 0.05775 0.16746 0.0
C791 C 0.92778 0.06633 0.16428 0.0
C792 C 0.97082 0.06032 0.1462 0.0
C793 C 0.92051 0.07862 0.13991 0.0
C794 C 0.93818 0.08194 0.11891 0.0
C795 C 0.98 0.0737 0.09981 0.0
C796 C 1.00351 0.06157 0.10159 0.0
C797 C 0.9632 0.07253 0.12169 0.0
C798 C 0.01108 0.04975 0.12606 0.0
C799 C 0.99519 0.04968 0.14847 0.0
H800 H 0.2723 0.75783 0.44531 0.0
H801 H 0.33389 0.71535 0.41507 0.0
H802 H 0.32792 0.73454 0.36987 0.0
H803 H 0.30477 0.76334 0.3385 0.0
H804 H 0.24441 0.80684 0.36983 0.0
H805 H 0.25001 0.78703 0.41466 0.0
C806 C 0.28461 0.75289 0.42895 0.0
C807 C 0.30362 0.73518 0.43379 0.0
C808 C 0.28101 0.76396 0.40294 0.0
C809 C 0.31924 0.72903 0.41214 0.0
C810 C 0.31571 0.73989 0.38615 0.0
C811 C 0.2927 0.76824 0.35509 0.0
C812 C 0.27402 0.78641 0.35076 0.0
C813 C 0.29651 0.75725 0.38121 0.0
C814 C 0.25882 0.79287 0.37259 0.0
C815 C 0.2621 0.78162 0.39829 0.0
H816 H 0.54165 0.01125 0.69593 0.0
H817 H 0.59911 0.96162 0.66822 0.0
H818 H 0.58293 0.96523 0.61961 0.0
H819 H 0.55565 0.98577 0.58491 0.0
H820 H 0.4986 0.03623 0.61158 0.0
H821 H 0.51118 0.02871 0.66043 0.0
C822 C 0.5503 1.00079 0.67928 0.0
C823 C 0.57179 0.98631 0.68597 0.0
C824 C 0.54112 1.00328 0.65107 0.0
C825 C 0.58273 0.97303 0.66393 0.0
C826 C 0.57352 0.97514 0.63601 0.0
C827 C 0.54569 0.99494 0.60133 0.0
C828 C 0.52627 0.01172 0.59446 0.0
C829 C 0.55324 0.99077 0.62934 0.0
C830 C 0.5135 0.02314 0.61613 0.0
C831 C 0.52084 0.01897 0.64414 0.0
H832 H 0.2973 0.3536 0.99678 0.0
H833 H 0.23372 0.39739 0.96807 0.0
H834 H 0.23161 0.37438 0.92065 0.0
H835 H 0.24838 0.34237 0.88738 0.0
H836 H 0.31253 0.29945 0.91614 0.0
H837 H 0.3138 0.32156 0.9638 0.0
C838 C 0.28293 0.35812 0.98019 0.0
C839 C 0.2657 0.37718 0.9859 0.0
C840 C 0.28193 0.34497 0.95309 0.0
C841 C 0.24723 0.38282 0.96417 0.0
C842 C 0.246 0.36967 0.93709 0.0
C843 C 0.26255 0.33782 0.90415 0.0
C844 C 0.28034 0.31939 0.89846 0.0
C845 C 0.26331 0.35078 0.93133 0.0
C846 C 0.29866 0.31362 0.92018 0.0
C847 C 0.29941 0.32625 0.94735 0.0
H848 H 0.92246 0.08262 0.33569 0.0
H849 H 0.97392 0.03208 0.2972 0.0
H850 H 0.99818 0.02902 0.34281 0.0
H851 H 1.00108 0.03576 0.39382 0.0
H852 H 0.94923 0.08512 0.43302 0.0
H853 H 0.929 0.09384 0.387 0.0
C854 C 0.93934 0.07144 0.33728 0.0
C855 C 0.94612 0.05728 0.31319 0.0
C856 C 0.95292 0.06926 0.36371 0.0
C857 C 0.96807 0.04288 0.3155 0.0
C858 C 0.98195 0.04105 0.34157 0.0
C859 C 0.9856 0.04873 0.39224 0.0
C860 C 0.97629 0.05944 0.41655 0.0
C861 C 0.97392 0.05334 0.36585 0.0
C862 C 0.9565 0.07647 0.41442 0.0
C863 C 0.94491 0.08141 0.38816 0.0
H864 H 0.29264 0.73924 0.57965 0.0
H865 H 0.34883 0.68856 0.61135 0.0
H866 H 0.34373 0.70517 0.65938 0.0
H867 H 0.32059 0.7314 0.69267 0.0
H868 H 0.26238 0.77977 0.66055 0.0
H869 H 0.271 0.76684 0.61279 0.0
C870 C 0.30421 0.73223 0.59703 0.0
C871 C 0.32123 0.71273 0.5917 0.0
C872 C 0.30056 0.74125 0.62473 0.0
C873 C 0.33563 0.70358 0.61467 0.0
C874 C 0.33264 0.713 0.64223 0.0
C875 C 0.31008 0.73944 0.67525 0.0
C876 C 0.29086 0.75661 0.68036 0.0
C877 C 0.31474 0.73143 0.64757 0.0
C878 C 0.27718 0.76644 0.65738 0.0
C879 C 0.28213 0.75907 0.62996 0.0
H880 H 0.58094 0.00869 0.86939 0.0
H881 H 0.50837 0.01175 0.81393 0.0
H882 H 0.48296 0.0186 0.85412 0.0
H883 H 0.48173 0.02503 0.90524 0.0
H884 H 0.55531 0.02585 0.96069 0.0
H885 H 0.58012 0.0167 0.92068 0.0
C886 C 0.55946 0.01048 0.8662 0.0
C887 C 0.54635 0.00922 0.83876 0.0
C888 C 0.54535 0.01567 0.88948 0.0
C889 C 0.51876 0.01237 0.83486 0.0
C890 C 0.50428 0.01641 0.85783 0.0
C891 C 0.50326 0.02337 0.90847 0.0
C892 C 0.51689 0.02677 0.93587 0.0
C893 C 0.51743 0.01838 0.88524 0.0
C894 C 0.54468 0.02437 0.93984 0.0
C895 C 0.55875 0.01871 0.91691 0.0
H896 H 0.24888 0.33988 0.10557 0.0
H897 H 0.20811 0.39647 0.1518 0.0
H898 H 0.20108 0.36309 0.18746 0.0
H899 H 0.21442 0.32299 0.20929 0.0
H900 H 0.26139 0.27079 0.16609 0.0
H901 H 0.25748 0.29693 0.12489 0.0
C902 C 0.23802 0.34478 0.12318 0.0
C903 C 0.22952 0.37088 0.12634 0.0
C904 C 0.23527 0.32627 0.14413 0.0
C905 C 0.2152 0.3767 0.14911 0.0
C906 C 0.21123 0.35767 0.16951 0.0
C907 C 0.22297 0.31672 0.19049 0.0
C908 C 0.23826 0.29518 0.19054 0.0
C909 C 0.2223 0.33307 0.1678 0.0
C910 C 0.24958 0.2874 0.16633 0.0
C911 C 0.24755 0.30248 0.14296 0.0
H912 H 0.17344 0.98836 0.07788 0.0
H913 H 0.13469 0.92309 0.0114 0.0
H914 H 0.09686 0.94789 1.00234 0.0
H915 H 0.07527 0.98914 0.01213 0.0
H916 H 0.11483 0.0552 0.0775 0.0
H917 H 0.15153 0.02922 0.08809 0.0
C918 C 0.15665 0.97941 0.06151 0.0
C919 C 0.1571 0.95372 0.0454 0.0
C920 C 0.135 0.99408 0.05611 0.0
C921 C 0.13509 0.94273 0.02417 0.0
C922 C 0.11337 0.95697 0.01894 0.0
C923 C 0.09183 0.99777 0.02882 0.0
C924 C 0.09219 0.02418 0.04403 0.0
C925 C 0.11317 0.9828 0.0346 0.0
C926 C 0.11397 0.03502 0.06544 0.0
C927 C 0.13502 0.02013 0.07151 0.0
H928 H 0.65993 0.63891 0.97268 0.0
H929 H 0.69456 0.56732 0.99514 0.0
H930 H 0.64969 0.54281 1.00682 0.0
H931 H 0.60281 0.54516 0.01769 0.0
H932 H 0.56853 0.61711 0.99589 0.0
H933 H 0.61113 0.6381 0.97709 0.0
C934 C 0.6575 0.61762 0.97936 0.0
C935 C 0.68065 0.60527 0.98368 0.0
C936 C 0.63189 0.60401 0.98688 0.0
C937 C 0.6771 0.57751 0.99207 0.0
C938 C 0.65151 0.56355 0.999 0.0
C939 C 0.6047 0.56534 0.00866 0.0
C940 C 0.58297 0.57987 0.00862 0.0
C941 C 0.62918 0.57724 0.9978 0.0
C942 C 0.58521 0.60565 0.9963 0.0
C943 C 0.60951 0.61766 0.98553 0.0
H944 H 0.70368 0.40803 0.28876 0.0
H945 H 0.78045 0.47005 0.29343 0.0
H946 H 0.80653 0.43187 0.29397 0.0
H947 H 0.80723 0.38023 0.29172 0.0
H948 H 0.72964 0.3189 0.28135 0.0
H949 H 0.70425 0.35685 0.28418 0.0
C950 C 0.72613 0.41312 0.29019 0.0
C951 C 0.74021 0.44174 0.29154 0.0
C952 C 0.74084 0.391 0.28914 0.0
C953 C 0.76925 0.44811 0.29263 0.0
C954 C 0.78412 0.42629 0.29286 0.0
C955 C 0.78477 0.37528 0.29006 0.0
C956 C 0.77038 0.34657 0.28615 0.0
C957 C 0.77013 0.39757 0.29088 0.0
C958 C 0.7413 0.34054 0.28388 0.0
C959 C 0.72669 0.36239 0.28572 0.0
H960 H 0.822 0.41837 0.50599 0.0
H961 H 0.80464 0.48621 0.56076 0.0
H962 H 0.85138 0.51441 0.55898 0.0
H963 H 0.89803 0.51892 0.54317 0.0
H964 H 0.91439 0.45075 0.48816 0.0
H965 H 0.86725 0.42356 0.48882 0.0
C966 C 0.82831 0.43937 0.51749 0.0
C967 C 0.8098 0.45003 0.53361 0.0
C968 C 0.85516 0.45538 0.51644 0.0
C969 C 0.8184 0.47743 0.54815 0.0
C970 C 0.84518 0.49355 0.54723 0.0
C971 C 0.89116 0.49816 0.53128 0.0
C972 C 0.90966 0.48677 0.51573 0.0
C973 C 0.86387 0.4826 0.53167 0.0
C974 C 0.90054 0.45993 0.50033 0.0
C975 C 0.87359 0.44436 0.50069 0.0
H976 H 0.32102 0.13457 0.21203 0.0
H977 H 0.38952 0.17874 0.27203 0.0
H978 H 0.36403 0.21576 0.28327 0.0
H979 H 0.32172 0.23493 0.27724 0.0
H980 H 0.2525 0.19022 0.21854 0.0
H981 H 0.27872 0.15408 0.20569 0.0
C982 C 0.33047 0.15239 0.22744 0.0
C983 C 0.35726 0.1538 0.24113 0.0
C984 C 0.31547 0.17346 0.23414 0.0
C985 C 0.36899 0.17699 0.26119 0.0
C986 C 0.35439 0.1982 0.26766 0.0
C987 C 0.31244 0.21739 0.26146 0.0
C988 C 0.28521 0.21535 0.24872 0.0
C989 C 0.32755 0.19656 0.25443 0.0
C990 C 0.27339 0.19229 0.22861 0.0
C991 C 0.28841 0.17164 0.22126 0.0
H992 H 0.31821 0.07264 0.52379 0.0
H993 H 0.35303 0.14487 0.48109 0.0
H994 H 0.39748 0.13031 0.4838 0.0
H995 H 0.42668 0.09816 0.49969 0.0
H996 H 0.39169 0.02427 0.53981 0.0
H997 H 0.34683 0.03856 0.53707 0.0
C998 C 0.3355 0.08507 0.51492 0.0
C999 C 0.33248 0.10987 0.50241 0.0
C1000 C 0.36088 0.07648 0.51641 0.0
C1001 C 0.35487 0.12565 0.49073 0.0
C1002 C 0.38031 0.11745 0.49244 0.0
C1003 C 0.40924 0.08528 0.50797 0.0
C1004 C 0.41234 0.0605 0.52033 0.0
C1005 C 0.38359 0.09316 0.50554 0.0
C1006 C 0.38962 0.04357 0.53043 0.0
C1007 C 0.36407 0.05169 0.52878 0.0
H1008 H 0.69417 0.61091 0.33113 0.0
H1009 H 0.75043 0.58276 0.27779 0.0
H1010 H 0.76958 0.63205 0.27015 0.0
H1011 H 0.76872 0.68323 0.27642 0.0
H1012 H 0.71406 0.7116 0.33139 0.0
H1013 H 0.69589 0.66233 0.34037 0.0
C1014 C 0.71087 0.61553 0.31812 0.0
C1015 C 0.72066 0.59296 0.30499 0.0
C1016 C 0.72188 0.64406 0.31376 0.0
C1017 C 0.74244 0.59955 0.2883 0.0
C1018 C 0.75332 0.6278 0.28371 0.0
C1019 C 0.75281 0.67857 0.29033 0.0
C1020 C 0.74253 0.701 0.30297 0.0
C1021 C 0.74286 0.6502 0.2959 0.0
C1022 C 0.72229 0.69471 0.32136 0.0
C1023 C 0.71188 0.66653 0.32651 0.0
H1024 H 0.83621 0.50814 0.76867 0.0
H1025 H 0.90799 0.48298 0.73942 0.0
H1026 H 0.88705 0.43294 0.74199 0.0
H1027 H 0.84902 0.39627 0.7535 0.0
H1028 H 0.77852 0.4206 0.78624 0.0
H1029 H 0.79815 0.47091 0.78148 0.0
C1030 C 0.84709 0.49162 0.76273 0.0
C1031 C 0.87355 0.49919 0.75381 0.0
C1032 C 0.83522 0.46277 0.76502 0.0
C1033 C 0.88764 0.47766 0.74648 0.0
C1034 C 0.87569 0.44904 0.7479 0.0
C1035 C 0.83794 0.41261 0.75952 0.0
C1036 C 0.81239 0.40488 0.77009 0.0
C1037 C 0.84962 0.44136 0.75732 0.0
C1038 C 0.7983 0.42617 0.77808 0.0
C1039 C 0.80949 0.45489 0.77531 0.0
H1040 H 0.97638 0.85043 0.11045 0.0
H1041 H 0.06546 0.862 0.11779 0.0
H1042 H 0.06861 0.90184 0.08925 0.0
H1043 H 0.04649 0.93435 0.06335 0.0
H1044 H 0.95749 0.92237 0.05342 0.0
H1045 H 0.95376 0.88155 0.08143 0.0
C1046 C 0.99641 0.86175 0.10578 0.0
C1047 C 0.02066 0.85343 0.1164 0.0
C1048 C 0.99808 0.88443 0.08876 0.0
C1049 C 0.04649 0.86798 0.10988 0.0
C1050 C 0.04834 0.89079 0.09355 0.0
C1051 C 0.02626 0.92262 0.06712 0.0
C1052 C 1.00231 0.93129 0.05652 0.0
C1053 C 0.02434 0.89926 0.08301 0.0
C1054 C 0.9762 0.9159 0.06133 0.0
C1055 C 0.9741 0.89272 0.07748 0.0
H1056 H 0.94562 0.25606 0.81712 0.0
H1057 H 0.96531 0.34709 0.83872 0.0
H1058 H 0.91959 0.35054 0.81737 0.0
H1059 H 0.87246 0.32736 0.79692 0.0
H1060 H 0.85107 0.23585 0.77784 0.0
H1061 H 0.89863 0.23296 0.79362 0.0
C1062 C 0.94007 0.27668 0.81643 0.0
C1063 C 0.95896 0.30135 0.8292 0.0
C1064 C 0.91317 0.27838 0.80497 0.0
C1065 C 0.95123 0.32785 0.82882 0.0
C1066 C 0.925 0.32981 0.81677 0.0
C1067 C 0.87817 0.30676 0.79584 0.0
C1068 C 0.85792 0.28186 0.78628 0.0
C1069 C 0.90551 0.30515 0.80546 0.0
C1070 C 0.866 0.25542 0.78519 0.0
C1071 C 0.8933 0.25372 0.79426 0.0
H1072 H 0.49768 0.19394 0.58591 0.0
H1073 H 0.51188 0.15792 0.66375 0.0
H1074 H 0.52419 0.11705 0.6387 0.0
H1075 H 0.53392 0.09283 0.59475 0.0
H1076 H 0.51508 0.12603 0.51649 0.0
H1077 H 0.50168 0.16657 0.54139 0.0
C1078 C 0.50305 0.17692 0.59731 0.0
C1079 C 0.50396 0.17912 0.62671 0.0
C1080 C 0.50967 0.15311 0.58267 0.0
C1081 C 0.51079 0.15674 0.64113 0.0
C1082 C 0.5181 0.13343 0.62683 0.0
C1083 C 0.52686 0.109 0.58326 0.0
C1084 C 0.52605 0.10693 0.55394 0.0
C1085 C 0.51817 0.13165 0.59766 0.0
C1086 C 0.51615 0.12746 0.53911 0.0
C1087 C 0.50846 0.1506 0.55334 0.0
H1088 H 0.6019 0.80033 0.30294 0.0
H1089 H 0.6403 0.80127 0.38733 0.0
H1090 H 0.68346 0.79587 0.36976 0.0
H1091 H 0.71063 0.78941 0.33028 0.0
H1092 H 0.67239 0.78781 0.24593 0.0
H1093 H 0.62939 0.79457 0.26346 0.0
C1094 C 0.61971 0.79947 0.3175 0.0
C1095 C 0.61749 0.80117 0.3465 0.0
C1096 C 0.64477 0.79605 0.30722 0.0
C1097 C 0.64103 0.79989 0.3649 0.0
C1098 C 0.66592 0.79679 0.35488 0.0
C1099 C 0.69301 0.7909 0.3158 0.0
C1100 C 0.69495 0.78836 0.28682 0.0
C1101 C 0.66808 0.79466 0.32607 0.0
C1102 C 0.6716 0.78974 0.26835 0.0
C1103 C 0.6469 0.79364 0.27837 0.0
H1104 H 0.03755 0.18043 0.46357 0.0
H1105 H 0.03992 0.22894 0.5431 0.0
H1106 H 0.03982 0.18588 0.5672 0.0
H1107 H 0.03562 0.1335 0.56489 0.0
H1108 H 0.02763 0.08571 0.48416 0.0
H1109 H 0.03347 0.12912 0.46126 0.0
C1110 C 0.03848 0.18165 0.48622 0.0
C1111 C 0.0389 0.20764 0.50162 0.0
C1112 C 0.03717 0.1568 0.49965 0.0
C1113 C 0.03957 0.20897 0.53089 0.0
C1114 C 0.03947 0.18442 0.54463 0.0
C1115 C 0.03541 0.13281 0.54234 0.0
C1116 C 0.03109 0.10643 0.52618 0.0
C1117 C 0.03773 0.15807 0.52914 0.0
C1118 C 0.03059 0.10557 0.49702 0.0
C1119 C 0.03406 0.13052 0.48387 0.0
H1120 H 0.57459 0.27833 0.18561 0.0
H1121 H 0.62212 0.33363 0.13319 0.0
H1122 H 0.66496 0.33105 0.16135 0.0
H1123 H 0.689 0.31103 0.19913 0.0
H1124 H 0.64188 0.25418 0.25036 0.0
H1125 H 0.59861 0.25957 0.22445 0.0
C1126 C 0.59429 0.29004 0.18048 0.0
C1127 C 0.59517 0.30605 0.15726 0.0
C1128 C 0.61885 0.28808 0.19645 0.0
C1129 C 0.62088 0.32101 0.15085 0.0
C1130 C 0.64538 0.31956 0.16693 0.0
C1131 C 0.66922 0.29999 0.20472 0.0
C1132 C 0.66846 0.28216 0.22644 0.0
C1133 C 0.64462 0.30283 0.18949 0.0
C1134 C 0.64284 0.26795 0.23359 0.0
C1135 C 0.61817 0.27101 0.21879 0.0
H1136 H 0.49949 0.85778 0.97015 0.0
H1137 H 0.58707 0.87726 0.99798 0.0
H1138 H 0.58476 0.92628 0.01403 0.0
H1139 H 0.5581 0.96434 0.01704 0.0
H1140 H 0.46989 0.94335 0.99172 0.0
H1141 H 0.47207 0.89404 0.97812 0.0
C1142 C 0.51801 0.87275 0.97994 0.0
C1143 C 0.54347 0.86421 0.9826 0.0
C1144 C 0.51637 0.90055 0.98954 0.0
C1145 C 0.56726 0.88349 0.99572 0.0
C1146 C 0.56595 0.91149 1.00478 0.0
C1147 C 0.53934 0.94885 0.00885 0.0
C1148 C 0.51391 0.95751 1.00519 0.0
C1149 C 0.54067 0.92038 1.00135 0.0
C1150 C 0.4897 0.9372 0.99485 0.0
C1151 C 0.49094 0.90903 0.98689 0.0
H1152 H 0.92794 0.81927 0.66292 0.0
H1153 H 0.94305 0.74435 0.70029 0.0
H1154 H 0.90628 0.74634 0.72979 0.0
H1155 H 0.86805 0.76731 0.74292 0.0
H1156 H 0.85148 0.84138 0.70532 0.0
H1157 H 0.8909 0.84206 0.67821 0.0
C1158 C 0.92328 0.80352 0.67764 0.0
C1159 C 0.93803 0.78156 0.6792 0.0
C1160 C 0.90192 0.80465 0.69451 0.0
C1161 C 0.93188 0.76137 0.69849 0.0
C1162 C 0.91087 0.76247 0.71543 0.0
C1163 C 0.8733 0.78381 0.72904 0.0
C1164 C 0.857 0.8042 0.72594 0.0
C1165 C 0.89553 0.78374 0.71331 0.0
C1166 C 0.86388 0.82549 0.70796 0.0
C1167 C 0.88629 0.82578 0.69241 0.0
H1168 H 0.077 0.03827 0.85135 0.0
H1169 H 0.11939 0.97472 0.88138 0.0
H1170 H 0.09229 0.97088 0.92128 0.0
H1171 H 0.05896 0.98831 0.94946 0.0
H1172 H 0.01838 0.05336 0.91993 0.0
H1173 H 0.04192 0.05344 0.87773 0.0
C1174 C 0.08028 0.02346 0.86652 0.0
C1175 C 0.10043 0.00701 0.86347 0.0
C1176 C 0.06475 0.02148 0.88943 0.0
C1177 C 0.10417 0.98778 0.88327 0.0
C1178 C 0.08862 0.98553 0.90608 0.0
C1179 C 0.05472 1.00193 0.93342 0.0
C1180 C 0.03677 0.02067 0.93772 0.0
C1181 C 0.06909 1.00255 0.90958 0.0
C1182 C 0.03198 0.03866 0.91705 0.0
C1183 C 0.0456 0.03886 0.89301 0.0
H1184 H 0.7448 0.31396 0.59528 0.0
H1185 H 0.73348 0.39034 0.64161 0.0
H1186 H 0.7434 0.37066 0.68562 0.0
H1187 H 0.75588 0.33175 0.71154 0.0
H1188 H 0.76452 0.25447 0.66509 0.0
H1189 H 0.7557 0.27462 0.62103 0.0
C1190 C 0.7443 0.32627 0.61495 0.0
C1191 C 0.73831 0.35369 0.6148 0.0
C1192 C 0.74997 0.31477 0.64044 0.0
C1193 C 0.73785 0.36916 0.64077 0.0
C1194 C 0.7437 0.35798 0.66612 0.0
C1195 C 0.75598 0.31942 0.69179 0.0
C1196 C 0.76107 0.29166 0.6917 0.0
C1197 C 0.74999 0.33086 0.66629 0.0
C1198 C 0.76083 0.27592 0.66582 0.0
C1199 C 0.75564 0.28739 0.64054 0.0
H1200 H 0.50463 0.06464 0.3281 0.0
H1201 H 0.44172 0.11042 0.34835 0.0
H1202 H 0.45282 0.10603 0.39806 0.0
H1203 H 0.47782 0.08594 0.43549 0.0
H1204 H 0.54128 0.04085 0.41548 0.0
H1205 H 0.53263 0.04837 0.36613 0.0
C1206 C 0.49359 0.07403 0.3434 0.0
C1207 C 0.47221 0.08771 0.33435 0.0
C1208 C 0.50003 0.07134 0.37205 0.0
C1209 C 0.45827 0.09981 0.35459 0.0
C1210 C 0.4645 0.09717 0.38307 0.0
C1211 C 0.48994 0.07794 0.42038 0.0
C1212 C 0.51005 0.06264 0.42924 0.0
C1213 C 0.48492 0.08244 0.392 0.0
C1214 C 0.52573 0.05275 0.40935 0.0
C1215 C 0.52071 0.05694 0.38106 0.0
H1216 H 0.79106 0.68299 0.09768 0.0
H1217 H 0.74693 0.74097 0.05861 0.0
H1218 H 0.74869 0.76806 0.1039 0.0
H1219 H 0.75965 0.77301 0.15498 0.0
H1220 H 0.80329 0.71475 0.19395 0.0
H1221 H 0.80506 0.69008 0.14815 0.0
C1222 C 0.78196 0.70165 0.09903 0.0
C1223 C 0.76859 0.70975 0.07493 0.0
C1224 C 0.7829 0.71699 0.12507 0.0
C1225 C 0.75724 0.7342 0.07692 0.0
C1226 C 0.75817 0.74968 0.1028 0.0
C1227 C 0.76978 0.7551 0.15334 0.0
C1228 C 0.78106 0.74541 0.17758 0.0
C1229 C 0.77048 0.74093 0.12705 0.0
C1230 C 0.79432 0.72237 0.17541 0.0
C1231 C 0.79528 0.70826 0.1493 0.0
H1232 H 0.08051 0.01074 0.73072 0.0
H1233 H 0.12962 0.95749 0.69225 0.0
H1234 H 0.10302 0.95713 0.64683 0.0
H1235 H 0.06954 0.97664 0.61721 0.0
H1236 H 0.02269 0.03226 0.65555 0.0
H1237 H 0.04448 0.02679 0.70188 0.0
C1238 C 0.08513 0.99861 0.71253 0.0
C1239 C 0.10726 0.98441 0.71489 0.0
C1240 C 0.0703 0.99918 0.68636 0.0
C1241 C 0.11286 0.96881 0.69103 0.0
C1242 C 0.09771 0.96866 0.66501 0.0
C1243 C 0.06384 0.98718 0.63578 0.0
C1244 C 0.04478 0.00502 0.63307 0.0
C1245 C 0.07698 0.98451 0.66228 0.0
C1246 C 0.03747 0.01856 0.65719 0.0
C1247 C 0.04996 0.01548 0.68365 0.0
H1248 H 0.75802 0.30462 0.46095 0.0
H1249 H 0.70129 0.35721 0.43551 0.0
H1250 H 0.70146 0.33995 0.38634 0.0
H1251 H 0.72119 0.31271 0.34993 0.0
H1252 H 0.7782 0.26081 0.377 0.0
H1253 H 0.77423 0.27476 0.42566 0.0
C1254 C 0.74537 0.31209 0.44474 0.0
C1255 C 0.72978 0.33234 0.4521 0.0
C1256 C 0.74574 0.30225 0.4165 0.0
C1257 C 0.71348 0.34159 0.43061 0.0
C1258 C 0.71367 0.3318 0.40238 0.0
C1259 C 0.73228 0.30405 0.36649 0.0
C1260 C 0.75014 0.28583 0.35958 0.0
C1261 C 0.73018 0.3125 0.39494 0.0
C1262 C 0.76452 0.27506 0.38148 0.0
C1263 C 0.76229 0.28304 0.40947 0.0
H1264 H 0.43369 0.05339 0.15329 0.0
H1265 H 0.49508 0.12759 0.18885 0.0
H1266 H 0.52123 0.1239 0.14852 0.0
H1267 H 0.52715 0.0987 0.1035 0.0
H1268 H 0.46908 0.02068 0.0716 0.0
H1269 H 0.44106 0.02664 0.10979 0.0
C1270 C 0.45263 0.06893 0.15196 0.0
C1271 C 0.4622 0.0911 0.17368 0.0
C1272 C 0.46815 0.06586 0.12933 0.0
C1273 C 0.48717 0.11059 0.1722 0.0
C1274 C 0.50215 0.10838 0.1492 0.0
C1275 C 0.50835 0.08301 0.10492 0.0
C1276 C 0.49969 0.05977 0.0841 0.0
C1277 C 0.49297 0.08597 0.12772 0.0
C1278 C 0.47562 0.03933 0.08665 0.0
C1279 C 0.45973 0.0426 0.10868 0.0
H1280 H 0.75509 0.75457 0.93905 0.0
H1281 H 0.80335 0.69329 0.91561 0.0
H1282 H 0.8154 0.7184 0.87476 0.0
H1283 H 0.80505 0.75249 0.84175 0.0
H1284 H 0.75329 0.81062 0.86391 0.0
H1285 H 0.75047 0.79271 0.90978 0.0
C1286 C 0.76854 0.74689 0.92521 0.0
C1287 C 0.77777 0.72175 0.92986 0.0
C1288 C 0.77487 0.76104 0.90166 0.0
C1289 C 0.7957 0.71241 0.91218 0.0
C1290 C 0.80257 0.72675 0.88885 0.0
C1291 C 0.79421 0.76203 0.85717 0.0
C1292 C 0.77944 0.78282 0.84975 0.0
C1293 C 0.79137 0.75043 0.88282 0.0
C1294 C 0.76491 0.79469 0.86945 0.0
C1295 C 0.76302 0.78421 0.89546 0.0
H1296 H 0.86512 0.07911 0.03831 0.0
H1297 H 0.90118 0.15302 0.99883 0.0
H1298 H 0.94068 0.13169 0.98966 0.0
H1299 H 0.96539 0.09168 0.99309 0.0
H1300 H 0.92713 0.01661 0.02953 0.0
H1301 H 0.88834 0.03849 0.03953 0.0
C1302 C 0.88163 0.0906 0.02773 0.0
C1303 C 0.88016 0.1178 0.01948 0.0
C1304 C 0.90395 0.07782 0.02181 0.0
C1305 C 0.90167 0.13211 1.00544 0.0
C1306 C 0.92432 0.11989 1.00019 0.0
C1307 C 0.94841 0.08009 1.00298 0.0
C1308 C 0.94906 0.0524 0.01031 0.0
C1309 C 0.92572 0.0927 0.00823 0.0
C1310 C 0.92694 0.03771 0.02324 0.0
C1311 C 0.9048 0.05031 0.02914 0.0
H1312 H 0.35858 0.45155 0.09992 0.0
H1313 H 0.32103 0.52241 0.08245 0.0
H1314 H 0.36642 0.55161 0.07678 0.0
H1315 H 0.4157 0.55428 0.07057 0.0
H1316 H 0.45293 0.48352 0.09012 0.0
H1317 H 0.40879 0.457 0.10144 0.0
C1318 C 0.36055 0.47361 0.09553 0.0
C1319 C 0.3368 0.48487 0.09126 0.0
C1320 C 0.38651 0.49009 0.09232 0.0
C1321 C 0.33928 0.51348 0.08588 0.0
C1322 C 0.36511 0.53003 0.08237 0.0
C1323 C 0.41412 0.53324 0.07771 0.0
C1324 C 0.43725 0.52064 0.07907 0.0
C1325 C 0.38871 0.51817 0.08453 0.0
C1326 C 0.43528 0.4936 0.08881 0.0
C1327 C 0.41006 0.47835 0.09521 0.0
H1328 H 0.30365 0.61544 0.70784 0.0
H1329 H 0.3512 0.63229 0.78932 0.0
H1330 H 0.32941 0.67257 0.80047 0.0
H1331 H 0.29561 0.70259 0.787 0.0
H1332 H 0.2493 0.68449 0.70482 0.0
H1333 H 0.27165 0.64525 0.69422 0.0
C1334 C 0.30931 0.62784 0.7281 0.0
C1335 C 0.32896 0.62068 0.74772 0.0
C1336 C 0.29678 0.65085 0.73431 0.0
C1337 C 0.33606 0.63722 0.7738 0.0
C1338 C 0.32359 0.66028 0.7802 0.0
C1339 C 0.29069 0.69019 0.76676 0.0
C1340 C 0.27078 0.69656 0.74678 0.0
C1341 C 0.30378 0.66729 0.76062 0.0
C1342 C 0.26435 0.68002 0.72072 0.0
C1343 C 0.27719 0.65752 0.71453 0.0
H1344 H 0.23951 0.59588 0.53012 0.0
H1345 H 0.22237 0.6407 0.45868 0.0
H1346 H 0.17265 0.62233 0.45859 0.0
H1347 H 0.13385 0.5977 0.48194 0.0
H1348 H 0.15109 0.55522 0.55503 0.0
H1349 H 0.20077 0.5685 0.55147 0.0
C1350 C 0.22491 0.60097 0.51409 0.0
C1351 C 0.23458 0.61953 0.49439 0.0
C1352 C 0.19628 0.59123 0.51484 0.0
C1353 C 0.21539 0.6264 0.47405 0.0
C1354 C 0.18695 0.61608 0.47411 0.0
C1355 C 0.14852 0.59123 0.49693 0.0
C1356 C 0.13891 0.5758 0.51887 0.0
C1357 C 0.17712 0.59923 0.49495 0.0
C1358 C 0.15805 0.56735 0.53809 0.0
C1359 C 0.18646 0.57487 0.53603 0.0
H1360 H 0.65632 0.89734 0.77814 0.0
H1361 H 0.71754 0.95721 0.74276 0.0
H1362 H 0.74967 0.92518 0.7464 0.0
H1363 H 0.76053 0.87972 0.7589 0.0
H1364 H 0.69839 0.81774 0.79033 0.0
H1365 H 0.6667 0.85077 0.78917 0.0
C1366 C 0.67672 0.90338 0.77133 0.0
C1367 C 0.68447 0.92979 0.76031 0.0
C1368 C 0.69506 0.88443 0.77288 0.0
C1369 C 0.71092 0.93706 0.75126 0.0
C1370 C 0.72941 0.91875 0.7534 0.0
C1371 C 0.74016 0.87364 0.76581 0.0
C1372 C 0.73192 0.84655 0.77513 0.0
C1373 C 0.72175 0.89239 0.76415 0.0
C1374 C 0.70522 0.83859 0.78327 0.0
C1375 C 0.6871 0.85747 0.78256 0.0
H1376 H 0.69099 0.96251 0.53189 0.0
H1377 H 0.71784 0.03457 0.59455 0.0
H1378 H 0.6834 0.05828 0.57287 0.0
H1379 H 0.64223 0.0559 0.53988 0.0
H1380 H 0.61193 0.98172 0.48046 0.0
H1381 H 0.65161 0.96173 0.4965 0.0
C1382 C 0.68953 0.98358 0.54053 0.0
C1383 C 0.70668 0.99668 0.56492 0.0
C1384 C 0.66912 0.99668 0.52847 0.0
C1385 C 0.7046 0.02393 0.57598 0.0
C1386 C 0.68498 0.03753 0.56356 0.0
C1387 C 0.64473 0.03572 0.52995 0.0
C1388 C 0.62435 0.02025 0.50907 0.0
C1389 C 0.66665 0.02376 0.5403 0.0
C1390 C 0.62754 0.99398 0.49654 0.0
C1391 C 0.65004 0.98247 0.50588 0.0
H1392 H 0.35411 0.46741 0.78979 0.0
H1393 H 0.31196 0.46425 0.70682 0.0
H1394 H 0.28898 0.4143 0.70932 0.0
H1395 H 0.28265 0.37069 0.73479 0.0
H1396 H 0.32382 0.37631 0.81881 0.0
H1397 H 0.34525 0.42596 0.81614 0.0
C1398 C 0.33979 0.45584 0.77226 0.0
C1399 C 0.33496 0.4694 0.74806 0.0
C1400 C 0.32652 0.42745 0.77401 0.0
C1401 C 0.31601 0.45428 0.72571 0.0
C1402 C 0.30299 0.42568 0.7271 0.0
C1403 C 0.29621 0.38286 0.75251 0.0
C1404 C 0.30165 0.36959 0.7769 0.0
C1405 C 0.30835 0.41189 0.75107 0.0
C1406 C 0.31908 0.38581 0.79979 0.0
C1407 C 0.3315 0.41429 0.7983 0.0
H1408 H 0.21032 0.57506 0.25987 0.0
H1409 H 0.16144 0.59718 0.32416 0.0
H1410 H 0.18696 0.64663 0.32838 0.0
H1411 H 0.21953 0.6845 0.31037 0.0
H1412 H 0.26689 0.66344 0.24443 0.0
H1413 H 0.24584 0.6127 0.24441 0.0
C1414 C 0.20567 0.59059 0.2752 0.0
C1415 C 0.18389 0.58246 0.29156 0.0
C1416 C 0.21994 0.61927 0.27698 0.0
C1417 C 0.17796 0.60291 0.31117 0.0
C1418 C 0.1925 0.63123 0.31356 0.0
C1419 C 0.22551 0.66875 0.29626 0.0
C1420 C 0.24453 0.67762 0.27728 0.0
C1421 C 0.21294 0.6398 0.29601 0.0
C1422 C 0.25218 0.65706 0.25915 0.0
C1423 C 0.2401 0.62808 0.25911 0.0
H1424 H 0.57153 0.74242 0.47679 0.0
H1425 H 0.50359 0.70904 0.41215 0.0
H1426 H 0.49517 0.66334 0.43221 0.0
H1427 H 0.50833 0.63215 0.46704 0.0
H1428 H 0.57625 0.66558 0.53153 0.0
H1429 H 0.58339 0.71198 0.51269 0.0
C1430 C 0.55477 0.72522 0.46714 0.0
C1431 C 0.5383 0.72919 0.44288 0.0
C1432 C 0.5501 0.69895 0.47873 0.0
C1433 C 0.51662 0.70664 0.43078 0.0
C1434 C 0.51181 0.68045 0.44222 0.0
C1435 C 0.5246 0.64966 0.47702 0.0
C1436 C 0.54185 0.64545 0.50056 0.0
C1437 C 0.52861 0.67626 0.46601 0.0
C1438 C 0.56275 0.66831 0.51338 0.0
C1439 C 0.56686 0.69482 0.50258 0.0
H1440 H 0.60344 0.30591 0.70061 0.0
H1441 H 0.57175 0.24014 0.7522 0.0
H1442 H 0.61886 0.24074 0.77278 0.0
H1443 H 0.66966 0.25777 0.77394 0.0
H1444 H 0.70073 0.32486 0.7235 0.0
H1445 H 0.65356 0.32579 0.70479 0.0
C1446 C 0.60676 0.29195 0.71663 0.0
C1447 C 0.58393 0.27292 0.72466 0.0
C1448 C 0.63397 0.2924 0.72846 0.0
C1449 C 0.58879 0.25513 0.74561 0.0
C1450 C 0.61582 0.25529 0.75728 0.0
C1451 C 0.66606 0.27268 0.75898 0.0
C1452 C 0.68881 0.2911 0.75009 0.0
C1453 C 0.63865 0.27345 0.74849 0.0
C1454 C 0.68371 0.3105 0.73086 0.0
C1455 C 0.65667 0.31102 0.72004 0.0
H1456 H 0.046 0.41164 0.93371 0.0
H1457 H 0.9872 0.36061 0.97971 0.0
H1458 H 0.98105 0.40349 1.00649 0.0
H1459 H 0.99006 0.45565 0.015 0.0
H1460 H 0.04679 0.5072 0.96752 0.0
H1461 H 0.05628 0.46419 0.94347 0.0
C1462 C 0.03215 0.40993 0.94985 0.0
C1463 C 0.01705 0.38295 0.95464 0.0
C1464 C 0.02822 0.43483 0.96486 0.0
C1465 C 0.99898 0.38111 0.97548 0.0
C1466 C 0.9954 0.40564 0.99082 0.0
C1467 C 1.00463 0.45744 0.9995 0.0
C1468 C 0.01782 0.48453 0.99317 0.0
C1469 C 0.00951 0.43263 0.98535 0.0
C1470 C 0.03662 0.48657 0.97303 0.0
C1471 C 0.04193 0.46196 0.95914 0.0
H1472 H 0.92971 0.74236 0.26362 0.0
H1473 H 0.92243 0.80048 0.20098 0.0
H1474 H 0.87904 0.80823 0.21711 0.0
H1475 H 0.84309 0.79924 0.24984 0.0
H1476 H 0.85179 0.74262 0.31355 0.0
H1477 H 0.89414 0.73349 0.29617 0.0
C1478 C 0.91867 0.75673 0.25344 0.0
C1479 C 0.92959 0.7708 0.23104 0.0
C1480 C 0.89372 0.76136 0.26305 0.0
C1481 C 0.91479 0.78938 0.21829 0.0
C1482 C 0.88983 0.79381 0.2275 0.0
C1483 C 0.85419 0.78479 0.25979 0.0
C1484 C 0.84414 0.77162 0.28304 0.0
C1485 C 0.87906 0.78 0.24995 0.0
C1486 C 0.85897 0.75309 0.29572 0.0
C1487 C 0.88329 0.74787 0.28578 0.0
H1488 H 0.48445 0.37747 0.06293 0.0
H1489 H 0.57265 0.39797 0.05871 0.0
H1490 H 0.56983 0.44542 0.04566 0.0
H1491 H 0.54229 0.481 0.03521 0.0
H1492 H 0.45357 0.45931 0.03479 0.0
H1493 H 0.45641 0.4124 0.0499 0.0
C1494 C 0.50297 0.3924 0.05913 0.0
C1495 C 0.52871 0.38442 0.06183 0.0
C1496 C 0.50106 0.41933 0.05079 0.0
C1497 C 0.55259 0.40369 0.05658 0.0
C1498 C 0.55102 0.43081 0.04921 0.0
C1499 C 0.52363 0.46592 0.03843 0.0
C1500 C 0.4978 0.47337 0.03406 0.0
C1501 C 0.52538 0.43883 0.04621 0.0
C1502 C 0.47366 0.45377 0.03796 0.0
C1503 C 0.47529 0.42706 0.04665 0.0
H1504 H 0.93319 0.24664 0.41598 0.0
H1505 H 0.99162 0.29076 0.36518 0.0
H1506 H 0.95375 0.29233 0.32915 0.0
H1507 H 0.9034 0.28313 0.31336 0.0
H1508 H 0.84602 0.23593 0.36345 0.0
H1509 H 0.88401 0.23335 0.3983 0.0
C1510 C 0.93757 0.25649 0.39695 0.0
C1511 C 0.96492 0.26887 0.39327 0.0
C1512 C 0.91588 0.25674 0.3762 0.0
C1513 C 0.97057 0.28113 0.36838 0.0
C1514 C 0.94896 0.28209 0.34784 0.0
C1515 C 0.89939 0.27207 0.33178 0.0
C1516 C 0.87205 0.26001 0.33602 0.0
C1517 C 0.92146 0.27026 0.35168 0.0
C1518 C 0.86696 0.24547 0.35978 0.0
C1519 C 0.88863 0.24404 0.37981 0.0
H1520 H 0.02307 0.72566 0.53788 0.0
H1521 H 0.94716 0.69523 0.57332 0.0
H1522 H 0.94516 0.64689 0.5523 0.0
H1523 H 0.96907 0.61273 0.53125 0.0
H1524 H 0.04787 0.64225 0.50058 0.0
H1525 H 0.04444 0.6917 0.51194 0.0
C1526 C 1.00568 0.70858 0.54032 0.0
C1527 C 0.9854 0.71382 0.55728 0.0
C1528 C 1.00544 0.68068 0.52938 0.0
C1529 C 0.9631 0.69155 0.56051 0.0
C1530 C 0.96202 0.66394 0.5486 0.0
C1531 C 0.98525 0.62991 0.5264 0.0
C1532 C 0.0089 0.62382 0.51546 0.0
C1533 C 0.98373 0.65812 0.53411 0.0
C1534 C 0.0296 0.64639 0.50931 0.0
C1535 C 0.02769 0.67465 0.51587 0.0
H1536 H 0.5798 0.77326 0.85708 0.0
H1537 H 0.63306 0.75727 0.92765 0.0
H1538 H 0.6653 0.74464 0.89615 0.0
H1539 H 0.67935 0.74024 0.84892 0.0
H1540 H 0.62748 0.75871 0.77873 0.0
H1541 H 0.59325 0.76764 0.80975 0.0
C1542 C 0.59843 0.76698 0.86564 0.0
C1543 C 0.60406 0.76639 0.89474 0.0
C1544 C 0.61693 0.75989 0.84745 0.0
C1545 C 0.62829 0.75812 0.90538 0.0
C1546 C 0.64669 0.75076 0.88738 0.0
C1547 C 0.66028 0.74568 0.84036 0.0
C1548 C 0.65571 0.74861 0.81163 0.0
C1549 C 0.64128 0.75174 0.85842 0.0
C1550 C 0.63123 0.75614 0.80079 0.0
C1551 C 0.61182 0.76145 0.81853 0.0
H1552 H 0.46086 0.53623 0.6974 0.0
H1553 H 0.41166 0.58981 0.65828 0.0
H1554 H 0.43956 0.59245 0.61907 0.0
H1555 H 0.47591 0.57701 0.59442 0.0
H1556 H 0.5223 0.51993 0.63142 0.0
H1557 H 0.4978 0.52142 0.67306 0.0
C1558 C 0.45644 0.54876 0.68045 0.0
C1559 C 0.4342 0.56286 0.68084 0.0
C1560 C 0.4721 0.54953 0.65758 0.0
C1561 C 0.42856 0.57868 0.6585 0.0
C1562 C 0.44454 0.58023 0.63607 0.0
C1563 C 0.48106 0.56536 0.61186 0.0
C1564 C 0.50115 0.54865 0.61002 0.0
C1565 C 0.46612 0.56544 0.63521 0.0
C1566 C 0.50705 0.53307 0.63244 0.0
C1567 C 0.49297 0.53384 0.65618 0.0
H1568 H 0.76103 0.25172 0.94337 0.0
H1569 H 0.82164 0.20508 0.91822 0.0
H1570 H 0.81881 0.22308 0.8722 0.0
H1571 H 0.79912 0.2523 0.83874 0.0
H1572 H 0.74044 0.30086 0.86493 0.0
H1573 H 0.74226 0.28173 0.91049 0.0
C1574 C 0.77373 0.24555 0.92789 0.0
C1575 C 0.79157 0.22701 0.93446 0.0
C1576 C 0.77215 0.2562 0.90141 0.0
C1577 C 0.80784 0.21938 0.91397 0.0
C1578 C 0.80613 0.22959 0.88752 0.0
C1579 C 0.78658 0.25851 0.85437 0.0
C1580 C 0.76947 0.27786 0.84832 0.0
C1581 C 0.78831 0.24796 0.88092 0.0
C1582 C 0.75368 0.28596 0.86898 0.0
C1583 C 0.75478 0.27507 0.89509 0.0
H1584 H 0.05373 0.52287 0.20384 0.0
H1585 H 0.11415 0.47907 0.1727 0.0
H1586 H 0.09904 0.48695 0.12502 0.0
H1587 H 0.07133 0.5094 0.09209 0.0
H1588 H 0.0101 0.5524 0.12224 0.0
H1589 H 0.02273 0.5416 0.16993 0.0
C1590 C 0.06329 0.5146 0.18662 0.0
C1591 C 0.08531 0.50055 0.19222 0.0
C1592 C 0.05454 0.51933 0.15887 0.0
C1593 C 0.09731 0.49008 0.16937 0.0
C1594 C 0.08875 0.49467 0.14193 0.0
C1595 C 0.06058 0.51626 0.10904 0.0
C1596 C 0.03992 0.53194 0.10347 0.0
C1597 C 0.06785 0.50983 0.13645 0.0
C1598 C 0.02605 0.5403 0.12577 0.0
C1599 C 0.03335 0.53419 0.15315 0.0
H1600 H 0.78273 0.85549 0.49862 0.0
H1601 H 0.71885 0.89832 0.46872 0.0
H1602 H 0.71985 0.87769 0.42083 0.0
H1603 H 0.74051 0.84902 0.38741 0.0
H1604 H 0.80533 0.8078 0.41809 0.0
H1605 H 0.8024 0.82645 0.46598 0.0
C1606 C 0.76884 0.86023 0.48172 0.0
C1607 C 0.75077 0.87846 0.48718 0.0
C1608 C 0.76989 0.84877 0.45442 0.0
C1609 C 0.73295 0.88434 0.46501 0.0
C1610 C 0.73359 0.87264 0.43766 0.0
C1611 C 0.75395 0.84417 0.40465 0.0
C1612 C 0.77323 0.82727 0.3994 0.0
C1613 C 0.75225 0.85512 0.4321 0.0
C1614 C 0.79045 0.82091 0.42174 0.0
C1615 C 0.78875 0.83152 0.44907 0.0
H1616 H 0.40949 0.58128 0.85264 0.0
H1617 H 0.47842 0.54975 0.82393 0.0
H1618 H 0.49976 0.55271 0.87194 0.0
H1619 H 0.49673 0.55932 0.92186 0.0
H1620 H 0.4277 0.58896 0.95227 0.0
H1621 H 0.40856 0.592 0.90387 0.0
C1622 C 0.42943 0.57563 0.85696 0.0
C1623 C 0.44228 0.56511 0.8348 0.0
C1624 C 0.44137 0.57673 0.88488 0.0
C1625 C 0.46801 0.55766 0.84064 0.0
C1626 C 0.48023 0.5593 0.86809 0.0
C1627 C 0.47761 0.56672 0.91795 0.0
C1628 C 0.46341 0.57356 0.94045 0.0
C1629 C 0.46671 0.56797 0.89034 0.0
C1630 C 0.43888 0.58345 0.93517 0.0
C1631 C 0.42794 0.58509 0.90753 0.0
H1632 H 0.82938 0.19696 0.1203 0.0
H1633 H 0.78041 0.24735 0.07574 0.0
H1634 H 0.76994 0.26845 0.12001 0.0
H1635 H 0.77247 0.27092 0.17183 0.0
H1636 H 0.82312 0.22199 0.21616 0.0
H1637 H 0.83477 0.2021 0.17195 0.0
C1638 C 0.81673 0.21284 0.1202 0.0
C1639 C 0.80574 0.22035 0.0944 0.0
C1640 C 0.81073 0.22506 0.14592 0.0
C1641 C 0.78935 0.24107 0.09503 0.0
C1642 C 0.78315 0.25309 0.12046 0.0
C1643 C 0.78619 0.25605 0.1718 0.0
C1644 C 0.79683 0.24804 0.19747 0.0
C1645 C 0.79334 0.24496 0.14608 0.0
C1646 C 0.81474 0.22882 0.19689 0.0
C1647 C 0.8214 0.2173 0.17151 0.0
H1648 H 0.0926 0.50634 0.37597 0.0
H1649 H 0.03067 0.53818 0.32643 0.0
H1650 H 1.00737 0.54572 0.36793 0.0
H1651 H 1.00471 0.54389 0.41867 0.0
H1652 H 0.06827 0.51509 0.46891 0.0
H1653 H 0.09086 0.50614 0.42718 0.0
C1654 C 0.07384 0.51463 0.37424 0.0
C1655 C 0.06321 0.52132 0.34797 0.0
C1656 C 0.06096 0.5198 0.39849 0.0
C1657 C 0.03922 0.53267 0.34628 0.0
C1658 C 0.0259 0.53709 0.37006 0.0
C1659 C 0.02356 0.53576 0.42048 0.0
C1660 C 0.03468 0.53008 0.44692 0.0
C1661 C 0.03664 0.53091 0.39634 0.0
C1662 C 0.05924 0.51968 0.44888 0.0
C1663 C 0.07213 0.51444 0.42495 0.0
H1664 H 0.7447 0.84348 0.60742 0.0
H1665 H 0.70859 0.89858 0.6608 0.0
H1666 H 0.69811 0.86093 0.69181 0.0
H1667 H 0.70518 0.81546 0.70689 0.0
H1668 H 0.74775 0.76364 0.65743 0.0
H1669 H 0.74879 0.79642 0.6209 0.0
C1670 C 0.73409 0.8471 0.62556 0.0
C1671 C 0.72761 0.87384 0.63196 0.0
C1672 C 0.72907 0.82579 0.64374 0.0
C1673 C 0.71402 0.87827 0.65561 0.0
C1674 C 0.70794 0.85673 0.67327 0.0
C1675 C 0.71367 0.81075 0.68758 0.0
C1676 C 0.72595 0.78701 0.68443 0.0
C1677 C 0.71609 0.83075 0.66792 0.0
C1678 C 0.7378 0.78159 0.6599 0.0
C1679 C 0.73872 0.80051 0.6393 0.0
H1680 H 0.67883 0.48863 0.58246 0.0
H1681 H 0.64234 0.42602 0.51289 0.0
H1682 H 0.60348 0.44964 0.5053 0.0
H1683 H 0.58031 0.48881 0.51753 0.0
H1684 H 0.6168 0.55183 0.58659 0.0
H1685 H 0.65522 0.52752 0.59511 0.0
C1686 C 0.66234 0.48005 0.56568 0.0
C1687 C 0.66364 0.45548 0.54828 0.0
C1688 C 0.64004 0.49392 0.56128 0.0
C1689 C 0.64203 0.44484 0.52661 0.0
C1690 C 0.61974 0.45837 0.52223 0.0
C1691 C 0.59647 0.49702 0.5347 0.0
C1692 C 0.59551 0.52197 0.55163 0.0
C1693 C 0.61857 0.48298 0.53935 0.0
C1694 C 0.61699 0.53265 0.57334 0.0
C1695 C 0.63896 0.51873 0.5782 0.0
H1696 H 0.19248 0.07685 0.50972 0.0
H1697 H 0.16535 0.12436 0.44402 0.0
H1698 H 0.11735 0.09974 0.44551 0.0
H1699 H 0.08304 0.06994 0.46983 0.0
H1700 H 0.11008 0.02537 0.53809 0.0
H1701 H 0.15835 0.04368 0.53113 0.0
C1702 C 0.17618 0.08141 0.49527 0.0
C1703 C 0.18246 0.10263 0.47697 0.0
C1704 C 0.14861 0.06805 0.49701 0.0
C1705 C 0.16105 0.10827 0.45843 0.0
C1706 C 0.13359 0.09431 0.45938 0.0
C1707 C 0.09942 0.06379 0.48292 0.0
C1708 C 0.09295 0.04654 0.50466 0.0
C1709 C 0.12709 0.07497 0.4793 0.0
C1710 C 0.11449 0.03885 0.5214 0.0
C1711 C 0.1421 0.0493 0.51743 0.0
H1712 H 0.22086 0.9212 0.7387 0.0
H1713 H 0.22674 0.93711 0.8285 0.0
H1714 H 0.25117 0.89803 0.83382 0.0
H1715 H 0.27088 0.85902 0.81261 0.0
H1716 H 0.26072 0.84085 0.72282 0.0
H1717 H 0.23799 0.88099 0.71774 0.0
C1718 C 0.2276 0.91619 0.75945 0.0
C1719 C 0.2223 0.93224 0.78318 0.0
C1720 C 0.24091 0.89325 0.76229 0.0
C1721 C 0.23065 0.92512 0.80991 0.0
C1722 C 0.24466 0.90281 0.81294 0.0
C1723 C 0.26383 0.86408 0.79198 0.0
C1724 C 0.26779 0.84734 0.76807 0.0
C1725 C 0.24997 0.88674 0.78926 0.0
C1726 C 0.25802 0.85358 0.74148 0.0
C1727 C 0.24503 0.87652 0.73857 0.0
H1728 H 0.30804 0.97634 0.0581 0.0
H1729 H 0.29209 0.93075 0.97552 0.0
H1730 H 0.33637 0.95647 0.96363 0.0
H1731 H 0.38146 0.98836 0.97787 0.0
H1732 H 0.39937 0.0328 0.06081 0.0
H1733 H 0.35267 0.01139 0.07134 0.0
C1734 C 0.31409 0.97252 0.03737 0.0
C1735 C 0.29685 0.95156 0.01778 0.0
C1736 C 0.34011 0.98696 0.03082 0.0
C1737 C 0.30508 0.9466 0.99106 0.0
C1738 C 0.33043 0.96127 0.98422 0.0
C1739 C 0.37501 0.99364 0.99813 0.0
C1740 C 0.39379 0.012 0.01855 0.0
C1741 C 0.34841 0.98091 1.00413 0.0
C1742 C 0.38521 0.01869 0.04472 0.0
C1743 C 0.35854 0.00638 0.05077 0.0
H1744 H 0.81479 0.62653 0.71567 0.0
H1745 H 0.88073 0.67403 0.77663 0.0
H1746 H 0.8536 0.71032 0.78525 0.0
H1747 H 0.81019 0.72793 0.77659 0.0
H1748 H 0.74392 0.67923 0.71673 0.0
H1749 H 0.77197 0.64424 0.70665 0.0
C1750 C 0.82333 0.64486 0.73077 0.0
C1751 C 0.84987 0.64741 0.74546 0.0
C1752 C 0.80742 0.6655 0.73592 0.0
C1753 C 0.8604 0.67136 0.76504 0.0
C1754 C 0.84486 0.69218 0.76999 0.0
C1755 C 0.80203 0.7098 0.76115 0.0
C1756 C 0.77497 0.70629 0.74734 0.0
C1757 C 0.81823 0.68941 0.7557 0.0
C1758 C 0.76461 0.68246 0.72767 0.0
C1759 C 0.78067 0.6624 0.72189 0.0
H1760 H 0.85467 0.64095 1.00309 0.0
H1761 H 0.80547 0.56136 0.02188 0.0
H1762 H 0.8471 0.5416 0.02847 0.0
H1763 H 0.89785 0.54787 0.03045 0.0
H1764 H 0.94681 0.62917 0.01531 0.0
H1765 H 0.90497 0.64757 1.00609 0.0
C1766 C 0.8531 0.61914 0.0082 0.0
C1767 C 0.82729 0.60243 0.0117 0.0
C1768 C 0.87708 0.60845 0.01304 0.0
C1769 C 0.82533 0.57445 0.01896 0.0
C1770 C 0.84906 0.56324 0.02285 0.0
C1771 C 0.89922 0.56961 0.02526 0.0
C1772 C 0.92515 0.58717 0.02354 0.0
C1773 C 0.8751 0.5802 0.02032 0.0
C1774 C 0.92693 0.61533 0.01685 0.0
C1775 C 0.90307 0.62583 0.01142 0.0
H1776 H 0.19241 0.10415 0.82165 0.0
H1777 H 0.23619 0.0747 0.75609 0.0
H1778 H 0.25813 0.124 0.75054 0.0
H1779 H 0.26331 0.17597 0.76294 0.0
H1780 H 0.22034 0.20457 0.82963 0.0
H1781 H 0.19967 0.15533 0.83589 0.0
C1782 C 0.20694 0.10844 0.80629 0.0
C1783 C 0.21248 0.08563 0.78926 0.0
C1784 C 0.21949 0.13684 0.80319 0.0
C1785 C 0.23155 0.09173 0.7696 0.0
C1786 C 0.244 0.11999 0.76627 0.0
C1787 C 0.24943 0.17137 0.77882 0.0
C1788 C 0.24333 0.194 0.79569 0.0
C1789 C 0.23783 0.14278 0.78267 0.0
C1790 C 0.22553 0.18764 0.8164 0.0
C1791 C 0.21362 0.15944 0.82 0.0
H1792 H 0.33854 0.01709 0.26695 0.0
H1793 H 0.40197 0.98481 0.22769 0.0
H1794 H 0.37785 0.93589 0.23135 0.0
H1795 H 0.33994 0.90245 0.2471 0.0
H1796 H 0.2783 0.93357 0.29034 0.0
H1797 H 0.30042 0.98289 0.28386 0.0
C1798 C 0.34682 0.99924 0.25903 0.0
C1799 C 0.37184 0.00437 0.24693 0.0
C1800 C 0.33329 0.97111 0.26209 0.0
C1801 C 0.38274 0.98125 0.23711 0.0
C1802 C 0.36898 0.95333 0.23919 0.0
C1803 C 0.33125 0.92003 0.25499 0.0
C1804 C 0.30752 0.91455 0.26903 0.0
C1805 C 0.34444 0.94805 0.25186 0.0
C1806 C 0.29661 0.93743 0.27946 0.0
C1807 C 0.30923 0.96554 0.27573 0.0
H1808 H 0.54446 0.33945 0.59781 0.0
H1809 H 0.46556 0.33492 0.62969 0.0
H1810 H 0.45875 0.37636 0.60559 0.0
H1811 H 0.47608 0.41513 0.57642 0.0
H1812 H 0.55614 0.42032 0.54696 0.0
H1813 H 0.56149 0.37744 0.56886 0.0
C1814 C 0.52568 0.3474 0.59943 0.0
C1815 C 0.50555 0.33398 0.61558 0.0
C1816 C 0.52209 0.37145 0.58583 0.0
C1817 C 0.48144 0.3448 0.61748 0.0
C1818 C 0.47752 0.36851 0.60366 0.0
C1819 C 0.49452 0.40663 0.57459 0.0
C1820 C 0.51561 0.42079 0.55992 0.0
C1821 C 0.49778 0.38216 0.58787 0.0
C1822 C 0.53957 0.40978 0.55803 0.0
C1823 C 0.54269 0.38528 0.57063 0.0
H1824 H 0.46016 0.83543 0.30469 0.0
H1825 H 0.44832 0.75417 0.33883 0.0
H1826 H 0.39856 0.74522 0.32329 0.0
H1827 H 0.35768 0.76175 0.30227 0.0
H1828 H 0.36974 0.84454 0.27116 0.0
H1829 H 0.41978 0.85148 0.28307 0.0
C1830 C 0.44679 0.81557 0.30842 0.0
C1831 C 0.45818 0.79544 0.32281 0.0
C1832 C 0.41801 0.81088 0.30007 0.0
C1833 C 0.44029 0.77004 0.32777 0.0
C1834 C 0.41174 0.76493 0.31892 0.0
C1835 C 0.37129 0.78113 0.29775 0.0
C1836 C 0.3598 0.80254 0.28566 0.0
C1837 C 0.40024 0.78535 0.30535 0.0
C1838 C 0.37786 0.82771 0.28044 0.0
C1839 C 0.40656 0.83172 0.28727 0.0
H1840 H 0.02975 0.72752 0.10017 0.0
H1841 H 0.98251 0.67105 0.15181 0.0
H1842 H 0.98839 0.62974 0.12186 0.0
H1843 H 0.00928 0.60966 0.08261 0.0
H1844 H 0.05808 0.66638 0.03247 0.0
H1845 H 0.04917 0.70764 0.06025 0.0
C1846 C 0.02045 0.70621 0.10483 0.0
C1847 C 1.0057 0.70252 0.12837 0.0
C1848 C 0.02437 0.68258 0.08786 0.0
C1849 C 0.99397 0.67463 0.13394 0.0
C1850 C 0.99739 0.65097 0.11683 0.0
C1851 C 0.01779 0.63107 0.07764 0.0
C1852 C 0.03442 0.635 0.05554 0.0
C1853 C 0.01291 0.65469 0.09399 0.0
C1854 C 0.04533 0.66282 0.0494 0.0
C1855 C 0.04023 0.68639 0.0653 0.0
H1856 H 0.09844 0.2533 0.80328 0.0
H1857 H 0.13074 0.32735 0.8624 0.0
H1858 H 0.17735 0.32918 0.84871 0.0
H1859 H 0.20915 0.31004 0.81874 0.0
H1860 H 0.17507 0.2375 0.75831 0.0
H1861 H 0.12939 0.23452 0.77394 0.0
C1862 C 0.11561 0.26993 0.81318 0.0
C1863 C 0.1109 0.29021 0.8338 0.0
C1864 C 0.1423 0.27095 0.80509 0.0
C1865 C 0.13358 0.31155 0.84632 0.0
C1866 C 0.16034 0.31253 0.83858 0.0
C1867 C 0.19176 0.29338 0.8094 0.0
C1868 C 0.19554 0.27381 0.78757 0.0
C1869 C 0.16503 0.29233 0.81794 0.0
C1870 C 0.17271 0.25271 0.77521 0.0
C1871 C 0.14651 0.25106 0.78405 0.0
H1872 H 0.56538 0.72523 0.03752 0.0
H1873 H 0.49785 0.69806 0.97134 0.0
H1874 H 0.48494 0.65208 0.99051 0.0
H1875 H 0.49549 0.61828 0.02431 0.0
H1876 H 0.56459 0.6461 0.08865 0.0
H1877 H 0.57403 0.69324 0.0722 0.0
C1878 C 0.54764 0.70941 0.02738 0.0
C1879 C 0.53275 0.71498 1.00295 0.0
C1880 C 0.54067 0.68306 0.0382 0.0
C1881 C 0.5097 0.69428 0.99021 0.0
C1882 C 0.50237 0.66795 1.0011 0.0
C1883 C 0.51233 0.63481 0.0348 0.0
C1884 C 0.52943 0.62871 0.05746 0.0
C1885 C 0.51807 0.66189 0.02481 0.0
C1886 C 0.55123 0.65027 0.07103 0.0
C1887 C 0.5567 0.67723 0.06163 0.0
H1888 H 0.0654 0.76776 0.6868 0.0
H1889 H 0.10418 0.83136 0.63627 0.0
H1890 H 0.14935 0.83252 0.66195 0.0
H1891 H 0.17809 0.81268 0.69612 0.0
H1892 H 0.13954 0.74717 0.74463 0.0
H1893 H 0.09376 0.74971 0.72248 0.0
C1894 C 0.08367 0.78213 0.68159 0.0
C1895 C 0.08151 0.79928 0.65955 0.0
C1896 C 0.10955 0.78222 0.69596 0.0
C1897 C 0.10537 0.81776 0.65302 0.0
C1898 C 0.13118 0.81844 0.66767 0.0
C1899 C 0.1596 0.7992 0.702 0.0
C1900 C 0.16195 0.77965 0.72172 0.0
C1901 C 0.13355 0.80032 0.68875 0.0
C1902 C 0.13804 0.76226 0.72932 0.0
C1903 C 0.11195 0.76369 0.71666 0.0
H1904 H 0.05962 0.37053 0.5102 0.0
H1905 H 0.97411 0.3437 0.52475 0.0
H1906 H 0.97298 0.39257 0.54137 0.0
H1907 H 0.99419 0.44352 0.54505 0.0
H1908 H 0.07964 0.47035 0.52992 0.0
H1909 H 0.08301 0.42081 0.52099 0.0
C1910 C 0.04088 0.37535 0.51741 0.0
C1911 C 0.01685 0.35376 0.5157 0.0
C1912 C 0.04029 0.40348 0.52675 0.0
C1913 C 0.99284 0.36008 0.52561 0.0
C1914 C 0.99213 0.38802 0.53505 0.0
C1915 C 0.01373 0.43856 0.54037 0.0
C1916 C 0.03635 0.46063 0.53744 0.0
C1917 C 0.01543 0.41002 0.53472 0.0
C1918 C 0.06169 0.45381 0.53189 0.0
C1919 C 0.06365 0.42545 0.52662 0.0
H1920 H 0.44752 0.26692 0.18657 0.0
H1921 H 0.45416 0.35172 0.16083 0.0
H1922 H 0.41792 0.35959 0.18984 0.0
H1923 H 0.38203 0.34073 0.22012 0.0
H1924 H 0.37383 0.25439 0.24178 0.0
H1925 H 0.41343 0.24886 0.21723 0.0
C1926 C 0.44124 0.28724 0.18739 0.0
C1927 C 0.45341 0.30865 0.17148 0.0
C1928 C 0.42021 0.29134 0.20356 0.0
C1929 C 0.44496 0.33483 0.17278 0.0
C1930 C 0.4243 0.33934 0.18939 0.0
C1931 C 0.38943 0.32101 0.21985 0.0
C1932 C 0.37544 0.29804 0.23282 0.0
C1933 C 0.41151 0.31758 0.20461 0.0
C1934 C 0.38455 0.27231 0.23197 0.0
C1935 C 0.40704 0.26911 0.21785 0.0
H1936 H 0.5839 0.5359 0.36049 0.0
H1937 H 0.62906 0.47449 0.3905 0.0
H1938 H 0.6017 0.46908 0.43016 0.0
H1939 H 0.56721 0.48469 0.45834 0.0
H1940 H 0.52415 0.5479 0.4289 0.0
H1941 H 0.54794 0.54928 0.38682 0.0
C1942 C 0.5877 0.52117 0.37557 0.0
C1943 C 0.60872 0.5058 0.37254 0.0
C1944 C 0.57205 0.51835 0.39842 0.0
C1945 C 0.61315 0.48672 0.39231 0.0
C1946 C 0.59746 0.48358 0.41501 0.0
C1947 C 0.56251 0.49814 0.4423 0.0
C1948 C 0.54369 0.51595 0.44657 0.0
C1949 C 0.57708 0.49958 0.41851 0.0
C1950 C 0.53837 0.53386 0.42599 0.0
C1951 C 0.55213 0.53481 0.40202 0.0
H1952 H 0.23612 0.87887 0.13536 0.0
H1953 H 0.23233 0.80549 0.07651 0.0
H1954 H 0.24127 0.77736 0.11498 0.0
H1955 H 0.25142 0.77349 0.1656 0.0
H1956 H 0.25569 0.84675 0.22446 0.0
H1957 H 0.24563 0.87478 0.18611 0.0
C1958 C 0.23697 0.85666 0.13091 0.0
C1959 C 0.23342 0.84448 0.10281 0.0
C1960 C 0.24259 0.84051 0.1533 0.0
C1961 C 0.23494 0.81563 0.09773 0.0
C1962 C 0.24013 0.79944 0.11981 0.0
C1963 C 0.25022 0.79562 0.17001 0.0
C1964 C 0.25479 0.80806 0.19798 0.0
C1965 C 0.24426 0.81166 0.14769 0.0
C1966 C 0.25289 0.83672 0.20323 0.0
C1967 C 0.24689 0.85275 0.18122 0.0
H1968 H 1.00698 0.57686 0.83538 0.0
H1969 H 0.93476 0.60939 0.85205 0.0
H1970 H 0.94687 0.60892 0.90237 0.0
H1971 H 0.97639 0.59614 0.94177 0.0
H1972 H 0.04954 0.56539 0.92474 0.0
H1973 H 0.03871 0.56844 0.87484 0.0
C1974 C 0.99406 0.58422 0.85001 0.0
C1975 C 0.96989 0.59303 0.83976 0.0
C1976 C 1.00121 0.58401 0.87904 0.0
C1977 C 0.95353 0.6026 0.85919 0.0
C1978 C 0.96036 0.60217 0.88805 0.0
C1979 C 0.99009 0.59033 0.92717 0.0
C1980 C 0.0137 0.58037 0.93721 0.0
C1981 C 0.98389 0.59242 0.89825 0.0
C1982 C 0.03128 0.5732 0.91785 0.0
C1983 C 0.02505 0.57483 0.88916 0.0
H1984 H 0.29368 0.18587 0.59327 0.0
H1985 H 0.23844 0.23533 0.55687 0.0
H1986 H 0.24043 0.2625 0.60214 0.0
H1987 H 0.25507 0.26965 0.65268 0.0
H1988 H 0.3096 0.21961 0.68905 0.0
H1989 H 0.31098 0.19538 0.64296 0.0
C1990 C 0.28215 0.20266 0.5952 0.0
C1991 C 0.26565 0.20832 0.5719 0.0
C1992 C 0.28328 0.21807 0.62122 0.0
C1993 C 0.25115 0.23042 0.5746 0.0
C1994 C 0.25226 0.24597 0.60045 0.0
C1995 C 0.26751 0.2537 0.65037 0.0
C1996 C 0.28196 0.24609 0.67399 0.0
C1997 C 0.26786 0.23962 0.62397 0.0
C1998 C 0.29814 0.22555 0.67098 0.0
C1999 C 0.29888 0.21167 0.64472 0.0
H2000 H 0.59282 0.50982 0.2404 0.0
H2001 H 0.65417 0.47745 0.19749 0.0
H2002 H 0.6292 0.48185 0.15233 0.0
H2003 H 0.59248 0.49987 0.12515 0.0
H2004 H 0.53324 0.53461 0.16915 0.0
H2005 H 0.55478 0.52426 0.21363 0.0
C2006 C 0.60058 0.50325 0.22122 0.0
C2007 C 0.62552 0.49356 0.22245 0.0
C2008 C 0.58662 0.50662 0.19542 0.0
C2009 C 0.63511 0.48513 0.19725 0.0
C2010 C 0.6209 0.48777 0.17138 0.0
C2011 C 0.58418 0.50481 0.14449 0.0
C2012 C 0.5615 0.51821 0.14397 0.0
C2013 C 0.59707 0.4993 0.17021 0.0
C2014 C 0.55085 0.52452 0.16909 0.0
C2015 C 0.56313 0.51859 0.19454 0.0
H2016 H 0.20815 0.83093 0.92388 0.0
H2017 H 0.28257 0.81181 0.96457 0.0
H2018 H 0.29311 0.79178 0.91989 0.0
H2019 H 0.28277 0.78202 0.86853 0.0
H2020 H 0.20835 0.80133 0.82786 0.0
H2021 H 0.19645 0.81867 0.87288 0.0
C2022 C 0.22647 0.82204 0.92306 0.0
C2023 C 0.2445 0.82301 0.94775 0.0
C2024 C 0.23264 0.81068 0.89707 0.0
C2025 C 0.26824 0.81144 0.94606 0.0
C2026 C 0.27439 0.80002 0.9204 0.0
C2027 C 0.26383 0.78979 0.86948 0.0
C2028 C 0.24662 0.7903 0.84456 0.0
C2029 C 0.25699 0.7999 0.89565 0.0
C2030 C 0.22212 0.80052 0.84648 0.0
C2031 C 0.21524 0.81056 0.87234 0.0
H2032 H 0.99542 0.58411 0.6953 0.0
H2033 H 0.91689 0.58357 0.64806 0.0
H2034 H 0.93619 0.57412 0.60437 0.0
H2035 H 0.97568 0.56504 0.57908 0.0
H2036 H 0.0541 0.56726 0.62722 0.0
H2037 H 0.03456 0.5766 0.67053 0.0
C2038 C 0.9825 0.58222 0.67549 0.0
C2039 C 0.95465 0.58467 0.67528 0.0
C2040 C 0.9937 0.57664 0.65032 0.0
C2041 C 0.93842 0.58199 0.64914 0.0
C2042 C 0.94942 0.57638 0.62401 0.0
C2043 C 0.98831 0.56727 0.59909 0.0
C2044 C 0.01629 0.56508 0.59984 0.0
C2045 C 0.97701 0.57335 0.62427 0.0
C2046 C 0.03251 0.56867 0.62596 0.0
C2047 C 0.02137 0.57412 0.65084 0.0
H2048 H 0.30576 0.21568 0.42024 0.0
H2049 H 0.2444 0.26037 0.4476 0.0
H2050 H 0.2561 0.29537 0.41463 0.0
H2051 H 0.27649 0.30724 0.37215 0.0
H2052 H 0.33418 0.2603 0.34092 0.0
H2053 H 0.33255 0.23336 0.38201 0.0
C2054 C 0.29535 0.23337 0.41926 0.0
C2055 C 0.27369 0.23496 0.4357 0.0
C2056 C 0.30176 0.25322 0.39969 0.0
C2057 C 0.26062 0.25821 0.43459 0.0
C2058 C 0.26742 0.2784 0.41589 0.0
C2059 C 0.28966 0.292 0.37508 0.0
C2060 C 0.30511 0.2854 0.35363 0.0
C2061 C 0.287 0.27534 0.39752 0.0
C2062 C 0.32223 0.26579 0.35738 0.0
C2063 C 0.32078 0.24994 0.38055 0.0
H2064 H 0.36057 0.56589 0.51081 0.0
H2065 H 0.41486 0.64896 0.51715 0.0
H2066 H 0.45518 0.6269 0.51636 0.0
H2067 H 0.4751 0.58386 0.51634 0.0
H2068 H 0.42066 0.50068 0.50373 0.0
H2069 H 0.38036 0.52268 0.50464 0.0
C2070 C 0.38124 0.57909 0.5118 0.0
C2071 C 0.38477 0.60905 0.51431 0.0
C2072 C 0.40428 0.56618 0.5103 0.0
C2073 C 0.41161 0.6259 0.5152 0.0
C2074 C 0.43467 0.61327 0.51485 0.0
C2075 C 0.45445 0.57055 0.5131 0.0
C2076 C 0.45103 0.54062 0.50978 0.0
C2077 C 0.4313 0.58343 0.51267 0.0
C2078 C 0.42398 0.52374 0.50608 0.0
C2079 C 0.40089 0.53634 0.50674 0.0
H2080 H 0.82886 0.97668 0.53761 0.0
H2081 H 0.85265 0.98386 0.62662 0.0
H2082 H 0.90115 1.00291 0.61949 0.0
H2083 H 0.93688 0.01448 0.5871 0.0
H2084 H 0.91118 0.00837 0.49824 0.0
H2085 H 0.86315 0.99197 0.50618 0.0
C2086 C 0.84467 0.98258 0.55548 0.0
C2087 C 0.83751 0.97859 0.58252 0.0
C2088 C 0.87207 0.99356 0.5512 0.0
C2089 C 0.85789 0.98678 0.6056 0.0
C2090 C 0.88553 0.99749 0.60149 0.0
C2091 C 0.9207 0.0097 0.56956 0.0
C2092 C 0.9276 0.01243 0.54212 0.0
C2093 C 0.89291 1.00048 0.57427 0.0
C2094 C 0.90645 0.00653 0.51957 0.0
C2095 C 0.87896 0.99704 0.52404 0.0
H2096 H 0.8327 0.12688 0.26763 0.0
H2097 H 0.79499 0.11146 0.18177 0.0
H2098 H 0.77014 0.14948 0.18964 0.0
H2099 H 0.75831 0.18653 0.22071 0.0
H2100 H 0.794 0.20177 0.30694 0.0
H2101 H 0.82057 0.16465 0.29918 0.0
C2102 C 0.81906 0.13188 0.25067 0.0
C2103 C 0.81567 0.11616 0.22416 0.0
C2104 C 0.80449 0.15378 0.25539 0.0
C2105 C 0.7979 0.12297 0.20242 0.0
C2106 C 0.78364 0.14477 0.20688 0.0
C2107 C 0.77184 0.18168 0.23787 0.0
C2108 C 0.77461 0.19721 0.26427 0.0
C2109 C 0.78661 0.16014 0.23327 0.0
C2110 C 0.79224 0.19074 0.28624 0.0
C2111 C 0.80716 0.16928 0.28183 0.0
H2112 H 0.71 0.13148 0.97489 0.0
H2113 H 0.73968 0.08817 0.04273 0.0
H2114 H 0.69216 0.06336 0.04672 0.0
H2115 H 0.64146 0.05765 0.03383 0.0
H2116 H 0.6128 0.10102 0.96551 0.0
H2117 H 0.66045 0.12204 0.9589 0.0
C2118 C 0.70617 0.11628 0.99029 0.0
C2119 C 0.7284 0.11193 0.00863 0.0
C2120 C 0.67882 0.10234 0.99265 0.0
C2121 C 0.72301 0.09192 0.02826 0.0
C2122 C 0.69577 0.07789 0.03073 0.0
C2123 C 0.64575 0.07149 0.01736 0.0
C2124 C 0.62363 0.07807 1.00044 0.0
C2125 C 0.67341 0.08352 0.01354 0.0
C2126 C 0.62943 0.09579 0.97898 0.0
C2127 C 0.65671 0.10785 0.97516 0.0
H2128 H 0.18298 0.41431 0.2909 0.0
H2129 H 0.21168 0.44839 0.21623 0.0
H2130 H 0.24143 0.41416 0.21277 0.0
H2131 H 0.2604 0.37512 0.23118 0.0
H2132 H 0.23319 0.3412 0.30626 0.0
H2133 H 0.20179 0.37432 0.30916 0.0
C2134 C 0.19566 0.41416 0.27383 0.0
C2135 C 0.19502 0.43414 0.25393 0.0
C2136 C 0.21308 0.39433 0.27198 0.0
C2137 C 0.21171 0.43351 0.23196 0.0
C2138 C 0.22882 0.41388 0.22993 0.0
C2139 C 0.24761 0.37498 0.24821 0.0
C2140 C 0.24902 0.35553 0.26837 0.0
C2141 C 0.22986 0.39433 0.24988 0.0
C2142 C 0.23221 0.3556 0.29021 0.0
C2143 C 0.21437 0.37471 0.29197 0.0
H2144 H 0.21502 0.52503 0.07073 0.0
H2145 H 0.18254 0.4476 0.01618 0.0
H2146 H 0.14713 0.46969 0.99333 0.0
H2147 H 0.12172 0.50851 0.99412 0.0
H2148 H 0.15433 0.58562 0.0492 0.0
H2149 H 0.19409 0.56648 0.06616 0.0
C2150 C 0.20035 0.51316 0.0536 0.0
C2151 C 0.20071 0.48464 0.04548 0.0
C2152 C 0.18027 0.52595 0.04072 0.0
C2153 C 0.18227 0.46955 0.02286 0.0
C2154 C 0.16207 0.48213 0.00989 0.0
C2155 C 0.13794 0.52135 0.0093 0.0
C2156 C 0.13505 0.54811 0.02086 0.0
C2157 C 0.16033 0.50996 0.01935 0.0
C2158 C 0.15617 0.56483 0.04023 0.0
C2159 C 0.17874 0.55383 0.05008 0.0
H2160 H 0.85049 0.9719 0.27747 0.0
H2161 H 0.80677 0.96049 0.1943 0.0
H2162 H 0.78549 0.91108 0.20115 0.0
H2163 H 0.78099 0.87047 0.2305 0.0
H2164 H 0.82352 0.884 0.31446 0.0
H2165 H 0.84356 0.93318 0.30753 0.0
C2166 C 0.83622 0.95865 0.26082 0.0
C2167 C 0.83043 0.96973 0.2353 0.0
C2168 C 0.82393 0.93057 0.26504 0.0
C2169 C 0.81154 0.95245 0.21415 0.0
C2170 C 0.7995 0.92418 0.21803 0.0
C2171 C 0.7946 0.88424 0.24726 0.0
C2172 C 0.80087 0.87344 0.27292 0.0
C2173 C 0.80581 0.91288 0.24331 0.0
C2174 C 0.81825 0.89168 0.29455 0.0
C2175 C 0.82982 0.91984 0.2906 0.0
H2176 H 0.6981 0.06613 0.76084 0.0
H2177 H 0.63983 0.09281 0.81254 0.0
H2178 H 0.66662 0.14179 0.81732 0.0
H2179 H 0.70414 0.17781 0.80343 0.0
H2180 H 0.76121 0.15187 0.74996 0.0
H2181 H 0.73755 0.10187 0.74946 0.0
C2182 C 0.69151 0.08257 0.77352 0.0
C2183 C 0.66688 0.0758 0.78614 0.0
C2184 C 0.70669 0.1109 0.77569 0.0
C2185 C 0.65858 0.09744 0.80239 0.0
C2186 C 0.67387 0.12549 0.80514 0.0
C2187 C 0.71159 0.16115 0.79198 0.0
C2188 C 0.73424 0.16843 0.77664 0.0
C2189 C 0.69756 0.13259 0.79134 0.0
C2190 C 0.74372 0.14672 0.76185 0.0
C2191 C 0.73017 0.11816 0.76152 0.0
loop_
_geom_bond_atom_site_label_1
_geom_bond_atom_site_label_2
_geom_bond_distance
_geom_bond_site_symmetry_2
_ccdc_geom_bond_type
O0 Cd1 2.223 . S
O0 C8 1.315 . S
Cd1 O0 2.223 . S
Cd1 O4 2.297 . S
Cd1 O5 2.439 . S
Cd1 O11 2.240 1_455 S
Cd2 O3 2.240 . S
Cd2 O10 2.223 1_455 S
Cd2 O12 2.297 1_455 S
Cd2 O13 2.439 . S
O3 Cd2 2.240 . S
O3 C8 1.279 . S
O4 Cd1 2.297 . S
O4 C6 1.247 . S
O5 Cd1 2.439 . S
O5 C6 1.208 . S
C6 O4 1.247 . S
C6 O5 1.208 . S
C7 O12 1.247 1_455 S
C7 O13 1.208 . S
C8 O0 1.315 . S
C8 O3 1.279 . S
C9 O10 1.315 . S
C9 O11 1.279 . S
O10 Cd2 2.223 1_655 S
O10 C9 1.315 . S
O11 Cd1 2.240 1_655 S
O11 C9 1.279 . S
O12 Cd2 2.297 1_655 S
O12 C7 1.247 1_655 S
O13 Cd2 2.439 . S
O13 C7 1.208 . S
O14 Cd15 2.230 . S
O14 C22 1.317 . S
Cd15 O14 2.230 . S
Cd15 O18 2.297 . S
Cd15 O19 2.439 . S
Cd15 O25 2.240 1_655 S
Cd16 O17 2.240 1_455 S
Cd16 O24 2.223 . S
Cd16 O26 2.297 . S
Cd16 O27 2.429 1_455 S
O17 Cd16 2.240 1_655 S
O17 C22 1.279 . S
O18 Cd15 2.297 . S
O18 C20 1.247 . S
O19 Cd15 2.439 . S
O19 C20 1.208 . S
C20 O18 1.247 . S
C20 O19 1.208 . S
C21 O26 1.247 . S
C21 O27 1.196 1_455 S
C22 O14 1.317 . S
C22 O17 1.279 . S
C23 O24 1.315 . S
C23 O25 1.279 . S
O24 Cd16 2.223 . S
O24 C23 1.315 . S
O25 Cd15 2.240 1_455 S
O25 C23 1.279 . S
O26 Cd16 2.297 . S
O26 C21 1.247 . S
O27 Cd16 2.429 1_655 S
O27 C21 1.196 1_655 S
O28 Cd29 2.223 . S
O28 C36 1.315 . S
Cd29 O28 2.223 . S
Cd29 O32 2.297 . S
Cd29 O33 2.439 . S
Cd29 O39 2.240 . S
Cd30 O31 2.240 . S
Cd30 O38 2.223 . S
Cd30 O40 2.297 . S
Cd30 O41 2.439 . S
O31 Cd30 2.240 . S
O31 C36 1.279 . S
O32 Cd29 2.297 . S
O32 C34 1.247 . S
O33 Cd29 2.439 . S
O33 C34 1.208 . S
C34 O32 1.247 . S
C34 O33 1.208 . S
C35 O40 1.247 . S
C35 O41 1.208 . S
C36 O28 1.315 . S
C36 O31 1.279 . S
C37 O38 1.315 . S
C37 O39 1.279 . S
O38 Cd30 2.223 . S
O38 C37 1.315 . S
O39 Cd29 2.240 . S
O39 C37 1.279 . S
O40 Cd30 2.297 . S
O40 C35 1.247 . S
O41 Cd30 2.439 . S
O41 C35 1.208 . S
O42 Cd43 2.223 . S
O42 C50 1.315 . S
Cd43 O42 2.223 . S
Cd43 O46 2.297 . S
Cd43 O47 2.439 . S
Cd43 O53 2.240 . S
Cd44 O45 2.240 . S
Cd44 O52 2.223 . S
Cd44 O54 2.297 . S
Cd44 O55 2.439 . S
O45 Cd44 2.240 . S
O45 C50 1.279 . S
O46 Cd43 2.297 . S
O46 C48 1.247 . S
O47 Cd43 2.439 . S
O47 C48 1.208 . S
C48 O46 1.247 . S
C48 O47 1.208 . S
C49 O54 1.247 . S
C49 O55 1.208 . S
C50 O42 1.315 . S
C50 O45 1.279 . S
C51 O52 1.315 . S
C51 O53 1.279 . S
O52 Cd44 2.223 . S
O52 C51 1.315 . S
O53 Cd43 2.240 . S
O53 C51 1.279 . S
O54 Cd44 2.297 . S
O54 C49 1.247 . S
O55 Cd44 2.439 . S
O55 C49 1.208 . S
O56 Cd57 2.223 . S
O56 C64 1.315 . S
Cd57 O56 2.223 . S
Cd57 O60 2.297 1_455 S
Cd57 O61 2.439 1_455 S
Cd57 O67 2.240 . S
Cd58 O59 2.240 1_455 S
Cd58 O66 2.223 . S
Cd58 O68 2.297 . S
Cd58 O69 2.439 . S
O59 Cd58 2.240 1_655 S
O59 C64 1.279 1_655 S
O60 Cd57 2.297 1_655 S
O60 C62 1.247 . S
O61 Cd57 2.439 1_655 S
O61 C62 1.208 . S
C62 O60 1.247 . S
C62 O61 1.208 . S
C63 O68 1.247 . S
C63 O69 1.208 . S
C64 O56 1.315 . S
C64 O59 1.279 1_455 S
C65 O66 1.315 . S
C65 O67 1.279 . S
O66 Cd58 2.223 . S
O66 C65 1.315 . S
O67 Cd57 2.240 . S
O67 C65 1.279 . S
O68 Cd58 2.297 . S
O68 C63 1.247 . S
O69 Cd58 2.439 . S
O69 C63 1.208 . S
O70 Cd71 2.223 . S
O70 C78 1.315 . S
Cd71 O70 2.223 . S
Cd71 O74 2.297 . S
Cd71 O75 2.439 . S
Cd71 O81 2.240 . S
Cd72 O73 2.240 . S
Cd72 O80 2.223 . S
Cd72 O82 2.297 . S
Cd72 O83 2.439 . S
O73 Cd72 2.240 . S
O73 C78 1.279 . S
O74 Cd71 2.297 . S
O74 C76 1.247 . S
O75 Cd71 2.439 . S
O75 C76 1.208 . S
C76 O74 1.247 . S
C76 O75 1.208 . S
C77 O82 1.247 . S
C77 O83 1.208 . S
C78 O70 1.315 . S
C78 O73 1.279 . S
C79 O80 1.315 . S
C79 O81 1.279 . S
O80 Cd72 2.223 . S
O80 C79 1.315 . S
O81 Cd71 2.240 . S
O81 C79 1.279 . S
O82 Cd72 2.297 . S
O82 C77 1.247 . S
O83 Cd72 2.439 . S
O83 C77 1.208 . S
O84 Cd85 2.223 . S
O84 C92 1.315 . S
Cd85 O84 2.223 . S
Cd85 O88 2.297 . S
Cd85 O89 2.439 . S
Cd85 O95 2.240 . S
Cd86 O87 2.240 . S
Cd86 O94 2.223 . S
Cd86 O96 2.297 . S
Cd86 O97 2.439 . S
O87 Cd86 2.240 . S
O87 C92 1.279 . S
O88 Cd85 2.297 . S
O88 C90 1.247 . S
O89 Cd85 2.439 . S
O89 C90 1.208 . S
C90 O88 1.247 . S
C90 O89 1.208 . S
C91 O96 1.247 . S
C91 O97 1.208 . S
C92 O84 1.315 . S
C92 O87 1.279 . S
C93 O94 1.315 . S
C93 O95 1.279 . S
O94 Cd86 2.223 . S
O94 C93 1.315 . S
O95 Cd85 2.240 . S
O95 C93 1.279 . S
O96 Cd86 2.297 . S
O96 C91 1.247 . S
O97 Cd86 2.439 . S
O97 C91 1.208 . S
O98 Cd99 2.223 . S
O98 C106 1.315 . S
Cd99 O98 2.223 . S
Cd99 O102 2.297 . S
Cd99 O103 2.439 . S
Cd99 O109 2.240 1_455 S
Cd100 O101 2.240 . S
Cd100 O108 2.223 1_455 S
Cd100 O110 2.297 1_455 S
Cd100 O111 2.439 . S
O101 Cd100 2.240 . S
O101 C106 1.279 . S
O102 Cd99 2.297 . S
O102 C104 1.247 . S
O103 Cd99 2.439 . S
O103 C104 1.208 . S
C104 O102 1.247 . S
C104 O103 1.208 . S
C105 O110 1.247 1_455 S
C105 O111 1.208 . S
C106 O98 1.315 . S
C106 O101 1.279 . S
C107 O108 1.315 . S
C107 O109 1.279 . S
O108 Cd100 2.223 1_655 S
O108 C107 1.315 . S
O109 Cd99 2.240 1_655 S
O109 C107 1.279 . S
O110 Cd100 2.297 1_655 S
O110 C105 1.247 1_655 S
O111 Cd100 2.439 . S
O111 C105 1.208 . S
O112 Cd113 2.223 . S
O112 C120 1.315 . S
Cd113 O112 2.223 . S
Cd113 O116 2.297 . S
Cd113 O117 2.439 . S
Cd113 O123 2.240 . S
Cd114 O115 2.240 . S
Cd114 O122 2.223 . S
Cd114 O124 2.297 . S
Cd114 O125 2.439 . S
O115 Cd114 2.240 . S
O115 C120 1.279 . S
O116 Cd113 2.297 . S
O116 C118 1.247 . S
O117 Cd113 2.439 . S
O117 C118 1.208 . S
C118 O116 1.247 . S
C118 O117 1.208 . S
C119 O124 1.247 . S
C119 O125 1.208 . S
C120 O112 1.315 . S
C120 O115 1.279 . S
C121 O122 1.315 . S
C121 O123 1.279 . S
O122 Cd114 2.223 . S
O122 C121 1.315 . S
O123 Cd113 2.240 . S
O123 C121 1.279 . S
O124 Cd114 2.297 . S
O124 C119 1.247 . S
O125 Cd114 2.439 . S
O125 C119 1.208 . S
O126 Cd127 2.223 . S
O126 C134 1.315 . S
Cd127 O126 2.223 . S
Cd127 O130 2.297 . S
Cd127 O131 2.439 . S
Cd127 O137 2.240 . S
Cd128 O129 2.240 . S
Cd128 O136 2.223 . S
Cd128 O138 2.297 . S
Cd128 O139 2.439 . S
O129 Cd128 2.240 . S
O129 C134 1.279 . S
O130 Cd127 2.297 . S
O130 C132 1.247 . S
O131 Cd127 2.439 . S
O131 C132 1.208 . S
C132 O130 1.247 . S
C132 O131 1.208 . S
C133 O138 1.247 . S
C133 O139 1.208 . S
C134 O126 1.315 . S
C134 O129 1.279 . S
C135 O136 1.315 . S
C135 O137 1.279 . S
O136 Cd128 2.223 . S
O136 C135 1.315 . S
O137 Cd127 2.240 . S
O137 C135 1.279 . S
O138 Cd128 2.297 . S
O138 C133 1.247 . S
O139 Cd128 2.439 . S
O139 C133 1.208 . S
O140 Cd141 2.223 1_545 S
O140 C148 1.315 1_545 S
Cd141 O140 2.223 1_565 S
Cd141 O144 2.297 . S
Cd141 O145 2.439 . S
Cd141 O151 2.240 1_565 S
Cd142 O143 2.240 1_545 S
Cd142 O150 2.223 . S
Cd142 O152 2.297 . S
Cd142 O153 2.439 1_545 S
O143 Cd142 2.240 1_565 S
O143 C148 1.279 . S
O144 Cd141 2.297 . S
O144 C146 1.247 . S
O145 Cd141 2.439 . S
O145 C146 1.208 . S
C146 O144 1.247 . S
C146 O145 1.208 . S
C147 O152 1.247 . S
C147 O153 1.208 1_545 S
C148 O140 1.315 1_565 S
C148 O143 1.279 . S
C149 O150 1.315 . S
C149 O151 1.279 . S
O150 Cd142 2.223 . S
O150 C149 1.315 . S
O151 Cd141 2.240 1_545 S
O151 C149 1.279 . S
O152 Cd142 2.297 . S
O152 C147 1.247 . S
O153 Cd142 2.439 1_565 S
O153 C147 1.208 1_565 S
O154 Cd155 2.223 . S
O154 C162 1.315 . S
Cd155 O154 2.223 . S
Cd155 O158 2.297 . S
Cd155 O159 2.439 . S
Cd155 O165 2.240 . S
Cd156 O157 2.240 . S
Cd156 O164 2.223 . S
Cd156 O166 2.297 1_554 S
Cd156 O167 2.439 1_554 S
O157 Cd156 2.240 . S
O157 C162 1.279 . S
O158 Cd155 2.297 . S
O158 C160 1.247 . S
O159 Cd155 2.439 . S
O159 C160 1.208 . S
C160 O158 1.247 . S
C160 O159 1.208 . S
C161 O166 1.247 . S
C161 O167 1.208 . S
C162 O154 1.315 . S
C162 O157 1.279 . S
C163 O164 1.315 . S
C163 O165 1.279 . S
O164 Cd156 2.223 . S
O164 C163 1.315 . S
O165 Cd155 2.240 . S
O165 C163 1.279 . S
O166 Cd156 2.297 1_556 S
O166 C161 1.247 . S
O167 Cd156 2.439 1_556 S
O167 C161 1.208 . S
O168 Cd169 2.223 . S
O168 C176 1.315 . S
Cd169 O168 2.223 . S
Cd169 O172 2.297 . S
Cd169 O173 2.439 . S
Cd169 O179 2.240 . S
Cd170 O171 2.240 . S
Cd170 O178 2.223 . S
Cd170 O180 2.297 1_554 S
Cd170 O181 2.439 1_554 S
O171 Cd170 2.240 . S
O171 C176 1.279 . S
O172 Cd169 2.297 . S
O172 C174 1.247 . S
O173 Cd169 2.439 . S
O173 C174 1.208 . S
C174 O172 1.247 . S
C174 O173 1.208 . S
C175 O180 1.247 . S
C175 O181 1.208 . S
C176 O168 1.315 . S
C176 O171 1.279 . S
C177 O178 1.315 . S
C177 O179 1.279 . S
O178 Cd170 2.223 . S
O178 C177 1.315 . S
O179 Cd169 2.240 . S
O179 C177 1.279 . S
O180 Cd170 2.297 1_556 S
O180 C175 1.247 . S
O181 Cd170 2.439 1_556 S
O181 C175 1.208 . S
O182 Cd183 2.223 . S
O182 C190 1.315 . S
Cd183 O182 2.223 . S
Cd183 O186 2.297 . S
Cd183 O187 2.439 1_554 S
Cd183 O193 2.240 1_554 S
Cd184 O185 2.240 1_556 S
Cd184 O192 2.223 1_556 S
Cd184 O194 2.297 . S
Cd184 O195 2.439 . S
O185 Cd184 2.240 1_554 S
O185 C190 1.279 . S
O186 Cd183 2.297 . S
O186 C188 1.247 . S
O187 Cd183 2.439 1_556 S
O187 C188 1.208 1_556 S
C188 O186 1.247 . S
C188 O187 1.208 1_554 S
C189 O194 1.247 . S
C189 O195 1.208 . S
C190 O182 1.315 . S
C190 O185 1.279 . S
C191 O192 1.315 1_556 S
C191 O193 1.279 . S
O192 Cd184 2.223 1_554 S
O192 C191 1.315 1_554 S
O193 Cd183 2.240 1_556 S
O193 C191 1.279 . S
O194 Cd184 2.297 . S
O194 C189 1.247 . S
O195 Cd184 2.439 . S
O195 C189 1.208 . S
O196 Cd197 2.223 . S
O196 C204 1.315 . S
Cd197 O196 2.223 . S
Cd197 O200 2.297 . S
Cd197 O201 2.439 . S
Cd197 O207 2.240 . S
Cd198 O199 2.240 . S
Cd198 O206 2.223 . S
Cd198 O208 2.297 . S
Cd198 O209 2.439 . S
O199 Cd198 2.240 . S
O199 C204 1.279 . S
O200 Cd197 2.297 . S
O200 C202 1.247 . S
O201 Cd197 2.439 . S
O201 C202 1.208 . S
C202 O200 1.247 . S
C202 O201 1.208 . S
C203 O208 1.247 . S
C203 O209 1.208 . S
C204 O196 1.315 . S
C204 O199 1.279 . S
C205 O206 1.315 . S
C205 O207 1.279 . S
O206 Cd198 2.223 . S
O206 C205 1.315 . S
O207 Cd197 2.240 . S
O207 C205 1.279 . S
O208 Cd198 2.297 . S
O208 C203 1.247 . S
O209 Cd198 2.439 . S
O209 C203 1.208 . S
O210 Cd211 2.223 . S
O210 C218 1.315 . S
Cd211 O210 2.223 . S
Cd211 O214 2.297 . S
Cd211 O215 2.439 . S
Cd211 O221 2.240 . S
Cd212 O213 2.240 . S
Cd212 O220 2.223 . S
Cd212 O222 2.297 . S
Cd212 O223 2.439 . S
O213 Cd212 2.240 . S
O213 C218 1.279 . S
O214 Cd211 2.297 . S
O214 C216 1.247 . S
O215 Cd211 2.439 . S
O215 C216 1.208 . S
C216 O214 1.247 . S
C216 O215 1.208 . S
C217 O222 1.247 . S
C217 O223 1.208 . S
C218 O210 1.315 . S
C218 O213 1.279 . S
C219 O220 1.315 . S
C219 O221 1.279 . S
O220 Cd212 2.223 . S
O220 C219 1.315 . S
O221 Cd211 2.240 . S
O221 C219 1.279 . S
O222 Cd212 2.297 . S
O222 C217 1.247 . S
O223 Cd212 2.439 . S
O223 C217 1.208 . S
O224 Cd225 2.223 . S
O224 C232 1.315 . S
Cd225 O224 2.223 . S
Cd225 O228 2.297 . S
Cd225 O229 2.439 . S
Cd225 O235 2.240 . S
Cd226 O227 2.240 . S
Cd226 O234 2.223 . S
Cd226 O236 2.297 . S
Cd226 O237 2.439 . S
O227 Cd226 2.240 . S
O227 C232 1.279 . S
O228 Cd225 2.297 . S
O228 C230 1.247 . S
O229 Cd225 2.439 . S
O229 C230 1.208 . S
C230 O228 1.247 . S
C230 O229 1.208 . S
C231 O236 1.247 . S
C231 O237 1.208 . S
C232 O224 1.315 . S
C232 O227 1.279 . S
C233 O234 1.315 . S
C233 O235 1.279 . S
O234 Cd226 2.223 . S
O234 C233 1.315 . S
O235 Cd225 2.240 . S
O235 C233 1.279 . S
O236 Cd226 2.297 . S
O236 C231 1.247 . S
O237 Cd226 2.439 . S
O237 C231 1.208 . S
O238 Cd239 2.223 . S
O238 C246 1.315 . S
Cd239 O238 2.223 . S
Cd239 O242 2.297 . S
Cd239 O243 2.439 . S
Cd239 O249 2.240 . S
Cd240 O241 2.240 . S
Cd240 O248 2.223 . S
Cd240 O250 2.297 . S
Cd240 O251 2.439 . S
O241 Cd240 2.240 . S
O241 C246 1.279 . S
O242 Cd239 2.297 . S
O242 C244 1.247 . S
O243 Cd239 2.439 . S
O243 C244 1.208 . S
C244 O242 1.247 . S
C244 O243 1.208 . S
C245 O250 1.247 . S
C245 O251 1.208 . S
C246 O238 1.315 . S
C246 O241 1.279 . S
C247 O248 1.315 . S
C247 O249 1.279 . S
O248 Cd240 2.223 . S
O248 C247 1.315 . S
O249 Cd239 2.240 . S
O249 C247 1.279 . S
O250 Cd240 2.297 . S
O250 C245 1.247 . S
O251 Cd240 2.439 . S
O251 C245 1.208 . S
O252 Cd253 2.223 . S
O252 C260 1.315 . S
Cd253 O252 2.223 . S
Cd253 O256 2.297 . S
Cd253 O257 2.439 . S
Cd253 O263 2.240 . S
Cd254 O255 2.240 . S
Cd254 O262 2.223 . S
Cd254 O264 2.297 . S
Cd254 O265 2.439 . S
O255 Cd254 2.240 . S
O255 C260 1.279 . S
O256 Cd253 2.297 . S
O256 C258 1.247 . S
O257 Cd253 2.439 . S
O257 C258 1.208 . S
C258 O256 1.247 . S
C258 O257 1.208 . S
C259 O264 1.247 . S
C259 O265 1.208 . S
C260 O252 1.315 . S
C260 O255 1.279 . S
C261 O262 1.315 . S
C261 O263 1.279 . S
O262 Cd254 2.223 . S
O262 C261 1.315 . S
O263 Cd253 2.240 . S
O263 C261 1.279 . S
O264 Cd254 2.297 . S
O264 C259 1.247 . S
O265 Cd254 2.439 . S
O265 C259 1.208 . S
O266 Cd267 2.223 . S
O266 C274 1.315 . S
Cd267 O266 2.223 . S
Cd267 O270 2.297 1_545 S
Cd267 O271 2.439 1_545 S
Cd267 O277 2.240 . S
Cd268 O269 2.240 . S
Cd268 O276 2.223 . S
Cd268 O278 2.297 . S
Cd268 O279 2.439 . S
O269 Cd268 2.240 . S
O269 C274 1.279 . S
O270 Cd267 2.297 1_565 S
O270 C272 1.247 . S
O271 Cd267 2.439 1_565 S
O271 C272 1.208 . S
C272 O270 1.247 . S
C272 O271 1.208 . S
C273 O278 1.247 . S
C273 O279 1.208 . S
C274 O266 1.315 . S
C274 O269 1.279 . S
C275 O276 1.315 . S
C275 O277 1.279 . S
O276 Cd268 2.223 . S
O276 C275 1.315 . S
O277 Cd267 2.240 . S
O277 C275 1.279 . S
O278 Cd268 2.297 . S
O278 C273 1.247 . S
O279 Cd268 2.439 . S
O279 C273 1.208 . S
O280 Cd281 2.223 . S
O280 C288 1.315 . S
Cd281 O280 2.223 . S
Cd281 O284 2.297 . S
Cd281 O285 2.439 . S
Cd281 O291 2.240 1_554 S
Cd282 O283 2.244 . S
Cd282 O290 2.225 . S
Cd282 O292 2.293 1_554 S
Cd282 O293 2.435 1_554 S
O283 Cd282 2.244 . S
O283 C288 1.279 . S
O284 Cd281 2.297 . S
O284 C286 1.247 . S
O285 Cd281 2.439 . S
O285 C286 1.208 . S
C286 O284 1.247 . S
C286 O285 1.208 . S
C287 O292 1.247 . S
C287 O293 1.208 . S
C288 O280 1.315 . S
C288 O283 1.279 . S
C289 O290 1.315 . S
C289 O291 1.279 1_554 S
O290 Cd282 2.225 . S
O290 C289 1.315 . S
O291 Cd281 2.240 1_556 S
O291 C289 1.279 1_556 S
O292 Cd282 2.293 1_556 S
O292 C287 1.247 . S
O293 Cd282 2.435 1_556 S
O293 C287 1.208 . S
O294 Cd295 2.223 . S
O294 C302 1.315 . S
Cd295 O294 2.223 . S
Cd295 O298 2.297 . S
Cd295 O299 2.439 . S
Cd295 O305 2.240 . S
Cd296 O297 2.240 . S
Cd296 O304 2.223 . S
Cd296 O306 2.297 . S
Cd296 O307 2.439 . S
O297 Cd296 2.240 . S
O297 C302 1.279 . S
O298 Cd295 2.297 . S
O298 C300 1.247 . S
O299 Cd295 2.439 . S
O299 C300 1.208 . S
C300 O298 1.247 . S
C300 O299 1.208 . S
C301 O306 1.247 . S
C301 O307 1.208 . S
C302 O294 1.315 . S
C302 O297 1.279 . S
C303 O304 1.315 . S
C303 O305 1.279 . S
O304 Cd296 2.223 . S
O304 C303 1.315 . S
O305 Cd295 2.240 . S
O305 C303 1.279 . S
O306 Cd296 2.297 . S
O306 C301 1.247 . S
O307 Cd296 2.439 . S
O307 C301 1.208 . S
O308 Cd309 2.223 . S
O308 C316 1.315 . S
Cd309 O308 2.223 . S
Cd309 O312 2.297 . S
Cd309 O313 2.439 . S
Cd309 O319 2.240 . S
Cd310 O311 2.240 . S
Cd310 O318 2.223 . S
Cd310 O320 2.297 . S
Cd310 O321 2.439 . S
O311 Cd310 2.240 . S
O311 C316 1.279 . S
O312 Cd309 2.297 . S
O312 C314 1.247 . S
O313 Cd309 2.439 . S
O313 C314 1.208 . S
C314 O312 1.247 . S
C314 O313 1.208 . S
C315 O320 1.247 . S
C315 O321 1.208 . S
C316 O308 1.315 . S
C316 O311 1.279 . S
C317 O318 1.315 . S
C317 O319 1.279 . S
O318 Cd310 2.223 . S
O318 C317 1.315 . S
O319 Cd309 2.240 . S
O319 C317 1.279 . S
O320 Cd310 2.297 . S
O320 C315 1.247 . S
O321 Cd310 2.439 . S
O321 C315 1.208 . S
O322 Cd323 2.223 . S
O322 C330 1.315 . S
Cd323 O322 2.223 . S
Cd323 O326 2.297 . S
Cd323 O327 2.439 . S
Cd323 O333 2.240 . S
Cd324 O325 2.240 . S
Cd324 O332 2.223 . S
Cd324 O334 2.297 . S
Cd324 O335 2.439 . S
O325 Cd324 2.240 . S
O325 C330 1.279 . S
O326 Cd323 2.297 . S
O326 C328 1.247 . S
O327 Cd323 2.439 . S
O327 C328 1.208 . S
C328 O326 1.247 . S
C328 O327 1.208 . S
C329 O334 1.247 . S
C329 O335 1.208 . S
C330 O322 1.315 . S
C330 O325 1.279 . S
C331 O332 1.315 . S
C331 O333 1.279 . S
O332 Cd324 2.223 . S
O332 C331 1.315 . S
O333 Cd323 2.240 . S
O333 C331 1.279 . S
O334 Cd324 2.297 . S
O334 C329 1.247 . S
O335 Cd324 2.439 . S
O335 C329 1.208 . S
Tb336 O339 2.453 . S
Tb336 O340 2.596 . S
Tb336 O341 2.374 1_554 S
Tb336 O349 2.343 1_455 S
Tb336 O351 2.353 . S
Tb336 O353 2.427 . S
Tb336 O354 2.513 1_554 S
C337 O341 1.251 . S
C337 O343 1.263 . S
Tb338 O340 2.343 1_655 S
Tb338 O343 2.353 1_654 S
Tb338 O346 2.427 1_645 S
Tb338 O347 2.513 1_645 S
Tb338 O348 2.458 . S
Tb338 O349 2.596 . S
Tb338 O350 2.374 . S
O339 Tb336 2.453 . S
O339 C355 1.245 . S
O340 Tb336 2.596 . S
O340 Tb338 2.343 1_455 S
O340 C355 1.259 . S
O341 Tb336 2.374 1_556 S
O341 C337 1.251 . S
C342 O346 1.275 . S
C342 O347 1.246 . S
O343 C337 1.263 . S
O343 Tb338 2.353 1_456 S
C344 O348 1.246 . S
C344 O349 1.259 . S
C345 O350 1.253 . S
C345 O351 1.249 1_655 S
O346 Tb338 2.427 1_465 S
O346 C342 1.275 . S
O347 Tb338 2.513 1_465 S
O347 C342 1.246 . S
O348 Tb338 2.458 . S
O348 C344 1.246 . S
O349 Tb336 2.343 1_655 S
O349 Tb338 2.596 . S
O349 C344 1.259 . S
O350 Tb338 2.374 . S
O350 C345 1.253 . S
O351 Tb336 2.353 . S
O351 C345 1.249 1_455 S
C352 O353 1.275 . S
C352 O354 1.246 1_554 S
O353 Tb336 2.427 . S
O353 C352 1.275 . S
O354 Tb336 2.513 1_556 S
O354 C352 1.246 1_556 S
C355 O339 1.245 . S
C355 O340 1.259 . S
Tb356 O359 2.453 . S
Tb356 O360 2.596 . S
Tb356 O361 2.374 . S
Tb356 O369 2.343 . S
Tb356 O371 2.353 . S
Tb356 O373 2.427 . S
Tb356 O374 2.513 . S
C357 O361 1.251 . S
C357 O363 1.263 . S
Tb358 O360 2.343 . S
Tb358 O363 2.353 . S
Tb358 O366 2.427 . S
Tb358 O367 2.513 . S
Tb358 O368 2.453 . S
Tb358 O369 2.596 . S
Tb358 O370 2.374 . S
O359 Tb356 2.453 . S
O359 C375 1.245 . S
O360 Tb356 2.596 . S
O360 Tb358 2.343 . S
O360 C375 1.259 . S
O361 Tb356 2.374 . S
O361 C357 1.251 . S
C362 O366 1.275 . S
C362 O367 1.246 . S
O363 C357 1.263 . S
O363 Tb358 2.353 . S
C364 O368 1.245 . S
C364 O369 1.259 . S
C365 O370 1.250 . S
C365 O371 1.263 . S
O366 Tb358 2.427 . S
O366 C362 1.275 . S
O367 Tb358 2.513 . S
O367 C362 1.246 . S
O368 Tb358 2.453 . S
O368 C364 1.245 . S
O369 Tb356 2.343 . S
O369 Tb358 2.596 . S
O369 C364 1.259 . S
O370 Tb358 2.374 . S
O370 C365 1.250 . S
O371 Tb356 2.353 . S
O371 C365 1.263 . S
C372 O373 1.275 . S
C372 O374 1.246 . S
O373 Tb356 2.427 . S
O373 C372 1.275 . S
O374 Tb356 2.513 . S
O374 C372 1.246 . S
C375 O359 1.245 . S
C375 O360 1.259 . S
Tb376 O379 2.453 . S
Tb376 O380 2.596 . S
Tb376 O381 2.374 . S
Tb376 O389 2.343 . S
Tb376 O391 2.353 . S
Tb376 O393 2.427 . S
Tb376 O394 2.513 . S
C377 O381 1.251 . S
C377 O383 1.263 . S
Tb378 O380 2.343 . S
Tb378 O383 2.353 . S
Tb378 O386 2.427 . S
Tb378 O387 2.513 . S
Tb378 O388 2.453 1_545 S
Tb378 O389 2.596 . S
Tb378 O390 2.374 . S
O379 Tb376 2.453 . S
O379 C395 1.245 . S
O380 Tb376 2.596 . S
O380 Tb378 2.343 . S
O380 C395 1.259 . S
O381 Tb376 2.374 . S
O381 C377 1.251 . S
C382 O386 1.275 . S
C382 O387 1.246 . S
O383 C377 1.263 . S
O383 Tb378 2.353 . S
C384 O388 1.245 . S
C384 O389 1.259 1_565 S
C385 O390 1.250 . S
C385 O391 1.263 . S
O386 Tb378 2.427 . S
O386 C382 1.275 . S
O387 Tb378 2.513 . S
O387 C382 1.246 . S
O388 Tb378 2.453 1_565 S
O388 C384 1.245 . S
O389 Tb376 2.343 . S
O389 Tb378 2.596 . S
O389 C384 1.259 1_545 S
O390 Tb378 2.374 . S
O390 C385 1.250 . S
O391 Tb376 2.353 . S
O391 C385 1.263 . S
C392 O393 1.275 . S
C392 O394 1.246 . S
O393 Tb376 2.427 . S
O393 C392 1.275 . S
O394 Tb376 2.513 . S
O394 C392 1.246 . S
C395 O379 1.245 . S
C395 O380 1.259 . S
Tb396 O399 2.453 . S
Tb396 O400 2.596 . S
Tb396 O401 2.374 . S
Tb396 O409 2.343 . S
Tb396 O411 2.353 . S
Tb396 O413 2.427 . S
Tb396 O414 2.513 . S
C397 O401 1.251 . S
C397 O403 1.263 . S
Tb398 O400 2.343 . S
Tb398 O403 2.353 . S
Tb398 O406 2.427 . S
Tb398 O407 2.513 . S
Tb398 O408 2.453 . S
Tb398 O409 2.596 . S
Tb398 O410 2.374 . S
O399 Tb396 2.453 . S
O399 C415 1.245 . S
O400 Tb396 2.596 . S
O400 Tb398 2.343 . S
O400 C415 1.259 . S
O401 Tb396 2.374 . S
O401 C397 1.251 . S
C402 O406 1.275 . S
C402 O407 1.246 . S
O403 C397 1.263 . S
O403 Tb398 2.353 . S
C404 O408 1.245 . S
C404 O409 1.259 . S
C405 O410 1.250 . S
C405 O411 1.263 . S
O406 Tb398 2.427 . S
O406 C402 1.275 . S
O407 Tb398 2.513 . S
O407 C402 1.246 . S
O408 Tb398 2.453 . S
O408 C404 1.245 . S
O409 Tb396 2.343 . S
O409 Tb398 2.596 . S
O409 C404 1.259 . S
O410 Tb398 2.374 . S
O410 C405 1.250 . S
O411 Tb396 2.353 . S
O411 C405 1.263 . S
C412 O413 1.275 . S
C412 O414 1.246 . S
O413 Tb396 2.427 . S
O413 C412 1.275 . S
O414 Tb396 2.513 . S
O414 C412 1.246 . S
C415 O399 1.245 . S
C415 O400 1.259 . S
Tb416 O419 2.453 1_545 S
Tb416 O420 2.596 . S
Tb416 O421 2.374 1_455 S
Tb416 O429 2.343 . S
Tb416 O431 2.353 . S
Tb416 O433 2.427 . S
Tb416 O434 2.513 1_455 S
C417 O421 1.251 . S
C417 O423 1.263 . S
Tb418 O420 2.343 . S
Tb418 O423 2.353 1_455 S
Tb418 O426 2.427 . S
Tb418 O427 2.513 . S
Tb418 O428 2.453 . S
Tb418 O429 2.596 . S
Tb418 O430 2.374 . S
O419 Tb416 2.453 1_565 S
O419 C435 1.245 . S
O420 Tb416 2.596 . S
O420 Tb418 2.343 . S
O420 C435 1.259 1_545 S
O421 Tb416 2.374 1_655 S
O421 C417 1.251 . S
C422 O426 1.275 . S
C422 O427 1.246 . S
O423 C417 1.263 . S
O423 Tb418 2.353 1_655 S
C424 O428 1.245 . S
C424 O429 1.259 . S
C425 O430 1.250 . S
C425 O431 1.263 . S
O426 Tb418 2.427 . S
O426 C422 1.275 . S
O427 Tb418 2.513 . S
O427 C422 1.246 . S
O428 Tb418 2.453 . S
O428 C424 1.245 . S
O429 Tb416 2.343 . S
O429 Tb418 2.596 . S
O429 C424 1.259 . S
O430 Tb418 2.374 . S
O430 C425 1.250 . S
O431 Tb416 2.353 . S
O431 C425 1.263 . S
C432 O433 1.275 1_655 S
C432 O434 1.246 . S
O433 Tb416 2.427 . S
O433 C432 1.275 1_455 S
O434 Tb416 2.513 1_655 S
O434 C432 1.246 . S
C435 O419 1.245 . S
C435 O420 1.259 1_565 S
Tb436 O439 2.453 . S
Tb436 O440 2.596 . S
Tb436 O441 2.374 . S
Tb436 O449 2.343 . S
Tb436 O451 2.353 . S
Tb436 O453 2.427 . S
Tb436 O454 2.513 . S
C437 O441 1.251 . S
C437 O443 1.263 . S
Tb438 O440 2.343 . S
Tb438 O443 2.353 . S
Tb438 O446 2.427 . S
Tb438 O447 2.513 . S
Tb438 O448 2.453 . S
Tb438 O449 2.596 . S
Tb438 O450 2.374 . S
O439 Tb436 2.453 . S
O439 C455 1.245 . S
O440 Tb436 2.596 . S
O440 Tb438 2.343 . S
O440 C455 1.259 . S
O441 Tb436 2.374 . S
O441 C437 1.251 . S
C442 O446 1.275 . S
C442 O447 1.246 . S
O443 C437 1.263 . S
O443 Tb438 2.353 . S
C444 O448 1.245 . S
C444 O449 1.259 . S
C445 O450 1.250 . S
C445 O451 1.263 . S
O446 Tb438 2.427 . S
O446 C442 1.275 . S
O447 Tb438 2.513 . S
O447 C442 1.246 . S
O448 Tb438 2.453 . S
O448 C444 1.245 . S
O449 Tb436 2.343 . S
O449 Tb438 2.596 . S
O449 C444 1.259 . S
O450 Tb438 2.374 . S
O450 C445 1.250 . S
O451 Tb436 2.353 . S
O451 C445 1.263 . S
C452 O453 1.275 . S
C452 O454 1.246 . S
O453 Tb436 2.427 . S
O453 C452 1.275 . S
O454 Tb436 2.513 . S
O454 C452 1.246 . S
C455 O439 1.245 . S
C455 O440 1.259 . S
Tb456 O459 2.443 1_554 S
Tb456 O460 2.598 . S
Tb456 O461 2.374 1_545 S
Tb456 O469 2.354 . S
Tb456 O471 2.357 . S
Tb456 O473 2.433 . S
Tb456 O474 2.518 1_545 S
C457 O461 1.256 . S
C457 O463 1.263 . S
Tb458 O460 2.373 . S
Tb458 O463 2.353 1_545 S
Tb458 O466 2.427 . S
Tb458 O467 2.513 . S
Tb458 O468 2.453 . S
Tb458 O469 2.596 . S
Tb458 O470 2.374 . S
O459 Tb456 2.443 1_556 S
O459 C475 1.245 . S
O460 Tb456 2.598 . S
O460 Tb458 2.373 . S
O460 C475 1.227 1_554 S
O461 Tb456 2.374 1_565 S
O461 C457 1.256 . S
C462 O466 1.275 . S
C462 O467 1.246 . S
O463 C457 1.263 . S
O463 Tb458 2.353 1_565 S
C464 O468 1.245 . S
C464 O469 1.259 . S
C465 O470 1.250 . S
C465 O471 1.263 . S
O466 Tb458 2.427 . S
O466 C462 1.275 . S
O467 Tb458 2.513 . S
O467 C462 1.246 . S
O468 Tb458 2.453 . S
O468 C464 1.245 . S
O469 Tb456 2.354 . S
O469 Tb458 2.596 . S
O469 C464 1.259 . S
O470 Tb458 2.374 . S
O470 C465 1.250 . S
O471 Tb456 2.357 . S
O471 C465 1.263 . S
C472 O473 1.275 . S
C472 O474 1.246 1_545 S
O473 Tb456 2.433 . S
O473 C472 1.275 . S
O474 Tb456 2.518 1_565 S
O474 C472 1.246 1_565 S
C475 O459 1.245 . S
C475 O460 1.227 1_556 S
Tb476 O479 2.453 . S
Tb476 O480 2.596 . S
Tb476 O481 2.374 . S
Tb476 O489 2.343 . S
Tb476 O491 2.353 . S
Tb476 O493 2.427 . S
Tb476 O494 2.513 . S
C477 O481 1.251 . S
C477 O483 1.263 . S
Tb478 O480 2.343 . S
Tb478 O483 2.353 . S
Tb478 O486 2.427 . S
Tb478 O487 2.513 . S
Tb478 O488 2.453 . S
Tb478 O489 2.596 . S
Tb478 O490 2.374 . S
O479 Tb476 2.453 . S
O479 C495 1.245 . S
O480 Tb476 2.596 . S
O480 Tb478 2.343 . S
O480 C495 1.259 . S
O481 Tb476 2.374 . S
O481 C477 1.251 . S
C482 O486 1.275 . S
C482 O487 1.246 . S
O483 C477 1.263 . S
O483 Tb478 2.353 . S
C484 O488 1.245 . S
C484 O489 1.259 . S
C485 O490 1.250 . S
C485 O491 1.263 . S
O486 Tb478 2.427 . S
O486 C482 1.275 . S
O487 Tb478 2.513 . S
O487 C482 1.246 . S
O488 Tb478 2.453 . S
O488 C484 1.245 . S
O489 Tb476 2.343 . S
O489 Tb478 2.596 . S
O489 C484 1.259 . S
O490 Tb478 2.374 . S
O490 C485 1.250 . S
O491 Tb476 2.353 . S
O491 C485 1.263 . S
C492 O493 1.275 . S
C492 O494 1.246 . S
O493 Tb476 2.427 . S
O493 C492 1.275 . S
O494 Tb476 2.513 . S
O494 C492 1.246 . S
C495 O479 1.245 . S
C495 O480 1.259 . S
Tb496 O499 2.453 1_556 S
Tb496 O500 2.596 1_556 S
Tb496 O501 2.374 1_556 S
Tb496 O509 2.343 1_556 S
Tb496 O511 2.353 . S
Tb496 O513 2.427 . S
Tb496 O514 2.513 . S
C497 O501 1.251 . S
C497 O503 1.263 . S
Tb498 O500 2.343 . S
Tb498 O503 2.353 . S
Tb498 O506 2.427 . S
Tb498 O507 2.513 . S
Tb498 O508 2.453 . S
Tb498 O509 2.596 . S
Tb498 O510 2.374 . S
O499 Tb496 2.453 1_554 S
O499 C515 1.245 . S
O500 Tb496 2.596 1_554 S
O500 Tb498 2.343 . S
O500 C515 1.259 . S
O501 Tb496 2.374 1_554 S
O501 C497 1.251 . S
C502 O506 1.275 . S
C502 O507 1.246 . S
O503 C497 1.263 . S
O503 Tb498 2.353 . S
C504 O508 1.245 . S
C504 O509 1.259 . S
C505 O510 1.250 . S
C505 O511 1.263 1_554 S
O506 Tb498 2.427 . S
O506 C502 1.275 . S
O507 Tb498 2.513 . S
O507 C502 1.246 . S
O508 Tb498 2.453 . S
O508 C504 1.245 . S
O509 Tb496 2.343 1_554 S
O509 Tb498 2.596 . S
O509 C504 1.259 . S
O510 Tb498 2.374 . S
O510 C505 1.250 . S
O511 Tb496 2.353 . S
O511 C505 1.263 1_556 S
C512 O513 1.275 . S
C512 O514 1.246 . S
O513 Tb496 2.427 . S
O513 C512 1.275 . S
O514 Tb496 2.513 . S
O514 C512 1.246 . S
C515 O499 1.245 . S
C515 O500 1.259 . S
Tb516 O519 2.453 . S
Tb516 O520 2.596 . S
Tb516 O521 2.374 . S
Tb516 O529 2.343 . S
Tb516 O531 2.353 . S
Tb516 O533 2.427 . S
Tb516 O534 2.513 . S
C517 O521 1.251 . S
C517 O523 1.263 . S
Tb518 O520 2.343 . S
Tb518 O523 2.353 . S
Tb518 O526 2.427 . S
Tb518 O527 2.513 . S
Tb518 O528 2.453 . S
Tb518 O529 2.596 . S
Tb518 O530 2.374 . S
O519 Tb516 2.453 . S
O519 C535 1.245 . S
O520 Tb516 2.596 . S
O520 Tb518 2.343 . S
O520 C535 1.259 . S
O521 Tb516 2.374 . S
O521 C517 1.251 . S
C522 O526 1.275 . S
C522 O527 1.246 . S
O523 C517 1.263 . S
O523 Tb518 2.353 . S
C524 O528 1.245 . S
C524 O529 1.259 . S
C525 O530 1.250 . S
C525 O531 1.263 . S
O526 Tb518 2.427 . S
O526 C522 1.275 . S
O527 Tb518 2.513 . S
O527 C522 1.246 . S
O528 Tb518 2.453 . S
O528 C524 1.245 . S
O529 Tb516 2.343 . S
O529 Tb518 2.596 . S
O529 C524 1.259 . S
O530 Tb518 2.374 . S
O530 C525 1.250 . S
O531 Tb516 2.353 . S
O531 C525 1.263 . S
C532 O533 1.275 . S
C532 O534 1.246 . S
O533 Tb516 2.427 . S
O533 C532 1.275 . S
O534 Tb516 2.513 . S
O534 C532 1.246 . S
C535 O519 1.245 . S
C535 O520 1.259 . S
Tb536 O539 2.453 . S
Tb536 O540 2.596 1_655 S
Tb536 O541 2.374 . S
Tb536 O549 2.343 . S
Tb536 O551 2.353 . S
Tb536 O553 2.427 . S
Tb536 O554 2.513 . S
C537 O541 1.251 1_455 S
C537 O543 1.263 . S
Tb538 O540 2.343 . S
Tb538 O543 2.353 . S
Tb538 O546 2.427 . S
Tb538 O547 2.513 . S
Tb538 O548 2.453 . S
Tb538 O549 2.596 1_455 S
Tb538 O550 2.374 . S
O539 Tb536 2.453 . S
O539 C555 1.245 1_655 S
O540 Tb536 2.596 1_455 S
O540 Tb538 2.343 . S
O540 C555 1.259 . S
O541 Tb536 2.374 . S
O541 C537 1.251 1_655 S
C542 O546 1.275 . S
C542 O547 1.246 . S
O543 C537 1.263 . S
O543 Tb538 2.353 . S
C544 O548 1.245 1_655 S
C544 O549 1.259 . S
C545 O550 1.250 . S
C545 O551 1.263 1_455 S
O546 Tb538 2.427 . S
O546 C542 1.275 . S
O547 Tb538 2.513 . S
O547 C542 1.246 . S
O548 Tb538 2.453 . S
O548 C544 1.245 1_455 S
O549 Tb536 2.343 . S
O549 Tb538 2.596 1_655 S
O549 C544 1.259 . S
O550 Tb538 2.374 . S
O550 C545 1.250 . S
O551 Tb536 2.353 . S
O551 C545 1.263 1_655 S
C552 O553 1.275 . S
C552 O554 1.246 . S
O553 Tb536 2.427 . S
O553 C552 1.275 . S
O554 Tb536 2.513 . S
O554 C552 1.246 . S
C555 O539 1.245 1_455 S
C555 O540 1.259 . S
Tb556 O559 2.453 . S
Tb556 O560 2.596 . S
Tb556 O561 2.374 . S
Tb556 O569 2.343 . S
Tb556 O571 2.353 . S
Tb556 O573 2.427 . S
Tb556 O574 2.513 . S
C557 O561 1.251 . S
C557 O563 1.263 . S
Tb558 O560 2.343 . S
Tb558 O563 2.353 . S
Tb558 O566 2.427 . S
Tb558 O567 2.513 . S
Tb558 O568 2.453 . S
Tb558 O569 2.596 . S
Tb558 O570 2.374 . S
O559 Tb556 2.453 . S
O559 C575 1.245 . S
O560 Tb556 2.596 . S
O560 Tb558 2.343 . S
O560 C575 1.259 . S
O561 Tb556 2.374 . S
O561 C557 1.251 . S
C562 O566 1.275 . S
C562 O567 1.246 . S
O563 C557 1.263 . S
O563 Tb558 2.353 . S
C564 O568 1.245 . S
C564 O569 1.259 . S
C565 O570 1.250 . S
C565 O571 1.263 . S
O566 Tb558 2.427 . S
O566 C562 1.275 . S
O567 Tb558 2.513 . S
O567 C562 1.246 . S
O568 Tb558 2.453 . S
O568 C564 1.245 . S
O569 Tb556 2.343 . S
O569 Tb558 2.596 . S
O569 C564 1.259 . S
O570 Tb558 2.374 . S
O570 C565 1.250 . S
O571 Tb556 2.353 . S
O571 C565 1.263 . S
C572 O573 1.275 . S
C572 O574 1.246 . S
O573 Tb556 2.427 . S
O573 C572 1.275 . S
O574 Tb556 2.513 . S
O574 C572 1.246 . S
C575 O559 1.245 . S
C575 O560 1.259 . S
Tb576 O579 2.453 . S
Tb576 O580 2.596 . S
Tb576 O581 2.374 . S
Tb576 O589 2.343 . S
Tb576 O591 2.353 . S
Tb576 O593 2.427 . S
Tb576 O594 2.513 . S
C577 O581 1.251 . S
C577 O583 1.263 . S
Tb578 O580 2.343 . S
Tb578 O583 2.353 . S
Tb578 O586 2.427 . S
Tb578 O587 2.513 . S
Tb578 O588 2.453 . S
Tb578 O589 2.596 . S
Tb578 O590 2.374 . S
O579 Tb576 2.453 . S
O579 C595 1.245 . S
O580 Tb576 2.596 . S
O580 Tb578 2.343 . S
O580 C595 1.259 . S
O581 Tb576 2.374 . S
O581 C577 1.251 . S
C582 O586 1.275 . S
C582 O587 1.246 . S
O583 C577 1.263 . S
O583 Tb578 2.353 . S
C584 O588 1.245 . S
C584 O589 1.259 . S
C585 O590 1.250 . S
C585 O591 1.263 . S
O586 Tb578 2.427 . S
O586 C582 1.275 . S
O587 Tb578 2.513 . S
O587 C582 1.246 . S
O588 Tb578 2.453 . S
O588 C584 1.245 . S
O589 Tb576 2.343 . S
O589 Tb578 2.596 . S
O589 C584 1.259 . S
O590 Tb578 2.374 . S
O590 C585 1.250 . S
O591 Tb576 2.353 . S
O591 C585 1.263 . S
C592 O593 1.275 . S
C592 O594 1.246 . S
O593 Tb576 2.427 . S
O593 C592 1.275 . S
O594 Tb576 2.513 . S
O594 C592 1.246 . S
C595 O579 1.245 . S
C595 O580 1.259 . S
Tb596 O599 2.453 . S
Tb596 O600 2.596 . S
Tb596 O601 2.374 . S
Tb596 O609 2.343 . S
Tb596 O611 2.353 . S
Tb596 O613 2.427 . S
Tb596 O614 2.513 . S
C597 O601 1.251 . S
C597 O603 1.263 . S
Tb598 O600 2.343 . S
Tb598 O603 2.353 . S
Tb598 O606 2.427 . S
Tb598 O607 2.513 . S
Tb598 O608 2.453 . S
Tb598 O609 2.596 . S
Tb598 O610 2.374 . S
O599 Tb596 2.453 . S
O599 C615 1.245 . S
O600 Tb596 2.596 . S
O600 Tb598 2.343 . S
O600 C615 1.259 . S
O601 Tb596 2.374 . S
O601 C597 1.251 . S
C602 O606 1.275 . S
C602 O607 1.246 . S
O603 C597 1.263 . S
O603 Tb598 2.353 . S
C604 O608 1.245 . S
C604 O609 1.259 . S
C605 O610 1.250 . S
C605 O611 1.263 . S
O606 Tb598 2.427 . S
O606 C602 1.275 . S
O607 Tb598 2.513 . S
O607 C602 1.246 . S
O608 Tb598 2.453 . S
O608 C604 1.245 . S
O609 Tb596 2.343 . S
O609 Tb598 2.596 . S
O609 C604 1.259 . S
O610 Tb598 2.374 . S
O610 C605 1.250 . S
O611 Tb596 2.353 . S
O611 C605 1.263 . S
C612 O613 1.275 . S
C612 O614 1.246 . S
O613 Tb596 2.427 . S
O613 C612 1.275 . S
O614 Tb596 2.513 . S
O614 C612 1.246 . S
C615 O599 1.245 . S
C615 O600 1.259 . S
Tb616 O619 2.453 . S
Tb616 O620 2.596 . S
Tb616 O621 2.374 . S
Tb616 O629 2.343 . S
Tb616 O631 2.353 . S
Tb616 O633 2.427 . S
Tb616 O634 2.513 . S
C617 O621 1.251 . S
C617 O623 1.263 . S
Tb618 O620 2.343 . S
Tb618 O623 2.353 . S
Tb618 O626 2.427 . S
Tb618 O627 2.513 . S
Tb618 O628 2.453 . S
Tb618 O629 2.596 . S
Tb618 O630 2.374 . S
O619 Tb616 2.453 . S
O619 C635 1.245 . S
O620 Tb616 2.596 . S
O620 Tb618 2.343 . S
O620 C635 1.259 . S
O621 Tb616 2.374 . S
O621 C617 1.251 . S
C622 O626 1.275 . S
C622 O627 1.246 . S
O623 C617 1.263 . S
O623 Tb618 2.353 . S
C624 O628 1.245 . S
C624 O629 1.259 . S
C625 O630 1.250 . S
C625 O631 1.263 . S
O626 Tb618 2.427 . S
O626 C622 1.275 . S
O627 Tb618 2.513 . S
O627 C622 1.246 . S
O628 Tb618 2.453 . S
O628 C624 1.245 . S
O629 Tb616 2.343 . S
O629 Tb618 2.596 . S
O629 C624 1.259 . S
O630 Tb618 2.374 . S
O630 C625 1.250 . S
O631 Tb616 2.353 . S
O631 C625 1.263 . S
C632 O633 1.275 . S
C632 O634 1.246 . S
O633 Tb616 2.427 . S
O633 C632 1.275 . S
O634 Tb616 2.513 . S
O634 C632 1.246 . S
C635 O619 1.245 . S
C635 O620 1.259 . S
Tb636 O639 2.453 . S
Tb636 O640 2.596 . S
Tb636 O641 2.374 . S
Tb636 O649 2.343 . S
Tb636 O651 2.353 1_554 S
Tb636 O653 2.427 . S
Tb636 O654 2.513 . S
C637 O641 1.251 . S
C637 O643 1.263 1_455 S
Tb638 O640 2.343 1_655 S
Tb638 O643 2.353 . S
Tb638 O646 2.427 . S
Tb638 O647 2.513 . S
Tb638 O648 2.453 . S
Tb638 O649 2.596 1_655 S
Tb638 O650 2.374 1_554 S
O639 Tb636 2.453 . S
O639 C655 1.245 . S
O640 Tb636 2.596 . S
O640 Tb638 2.343 1_455 S
O640 C655 1.259 . S
O641 Tb636 2.374 . S
O641 C637 1.251 . S
C642 O646 1.275 . S
C642 O647 1.246 . S
O643 C637 1.263 1_655 S
O643 Tb638 2.353 . S
C644 O648 1.245 1_455 S
C644 O649 1.259 . S
C645 O650 1.250 1_455 S
C645 O651 1.263 . S
O646 Tb638 2.427 . S
O646 C642 1.275 . S
O647 Tb638 2.513 . S
O647 C642 1.246 . S
O648 Tb638 2.453 . S
O648 C644 1.245 1_655 S
O649 Tb636 2.343 . S
O649 Tb638 2.596 1_455 S
O649 C644 1.259 . S
O650 Tb638 2.374 1_556 S
O650 C645 1.250 1_655 S
O651 Tb636 2.353 1_556 S
O651 C645 1.263 . S
C652 O653 1.275 . S
C652 O654 1.246 . S
O653 Tb636 2.427 . S
O653 C652 1.275 . S
O654 Tb636 2.513 . S
O654 C652 1.246 . S
C655 O639 1.245 . S
C655 O640 1.259 . S
H656 C662 0.930 . S
H657 C665 0.930 . S
H658 C666 0.930 . S
H659 C667 0.930 . S
H660 C670 0.930 . S
H661 C671 0.930 . S
C662 H656 0.930 . S
C662 C663 1.389 . S
C662 C664 1.415 . S
C663 C662 1.389 . S
C663 C665 1.383 1_455 S
C664 C662 1.415 . S
C664 C669 1.425 1_455 S
C664 C671 1.409 . S
C665 H657 0.930 . S
C665 C663 1.383 1_655 S
C665 C666 1.362 . S
C666 H658 0.930 . S
C666 C665 1.362 . S
C666 C669 1.409 . S
C667 H659 0.930 . S
C667 C668 1.355 1_655 S
C667 C669 1.415 . S
C668 C667 1.355 1_455 S
C668 C670 1.419 . S
C669 C664 1.425 1_655 S
C669 C666 1.409 . S
C669 C667 1.415 . S
C670 H660 0.930 . S
C670 C668 1.419 . S
C670 C671 1.362 . S
C671 H661 0.930 . S
C671 C664 1.409 . S
C671 C670 1.362 . S
H672 C678 0.930 . S
H673 C681 0.930 . S
H674 C682 0.930 . S
H675 C683 0.930 . S
H676 C686 0.930 . S
H677 C687 0.930 . S
C678 H672 0.930 . S
C678 C679 1.355 . S
C678 C680 1.415 . S
C679 C678 1.355 . S
C679 C681 1.419 . S
C680 C678 1.415 . S
C680 C685 1.425 . S
C680 C687 1.409 . S
C681 H673 0.930 . S
C681 C679 1.419 . S
C681 C682 1.362 . S
C682 H674 0.930 . S
C682 C681 1.362 . S
C682 C685 1.409 . S
C683 H675 0.930 . S
C683 C684 1.355 . S
C683 C685 1.415 . S
C684 C683 1.355 . S
C684 C686 1.419 . S
C685 C680 1.425 . S
C685 C682 1.409 . S
C685 C683 1.415 . S
C686 H676 0.930 . S
C686 C684 1.419 . S
C686 C687 1.362 . S
C687 H677 0.930 . S
C687 C680 1.409 . S
C687 C686 1.362 . S
H688 C694 0.930 . S
H689 C697 0.930 . S
H690 C698 0.930 . S
H691 C699 0.930 . S
H692 C702 0.930 . S
H693 C703 0.930 . S
C694 H688 0.930 . S
C694 C695 1.355 . S
C694 C696 1.415 . S
C695 C694 1.355 . S
C695 C697 1.419 . S
C696 C694 1.415 . S
C696 C701 1.425 . S
C696 C703 1.409 . S
C697 H689 0.930 . S
C697 C695 1.419 . S
C697 C698 1.362 . S
C698 H690 0.930 . S
C698 C697 1.362 . S
C698 C701 1.409 . S
C699 H691 0.930 . S
C699 C700 1.355 . S
C699 C701 1.415 . S
C700 C699 1.355 . S
C700 C702 1.419 . S
C701 C696 1.425 . S
C701 C698 1.409 . S
C701 C699 1.415 . S
C702 H692 0.930 . S
C702 C700 1.419 . S
C702 C703 1.362 . S
C703 H693 0.930 . S
C703 C696 1.409 . S
C703 C702 1.362 . S
H704 C710 0.930 . S
H705 C713 0.930 . S
H706 C714 0.930 . S
H707 C715 0.930 . S
H708 C718 0.930 . S
H709 C719 0.930 . S
C710 H704 0.930 . S
C710 C711 1.355 . S
C710 C712 1.415 . S
C711 C710 1.355 . S
C711 C713 1.419 . S
C712 C710 1.415 . S
C712 C717 1.425 . S
C712 C719 1.409 . S
C713 H705 0.930 . S
C713 C711 1.419 . S
C713 C714 1.362 . S
C714 H706 0.930 . S
C714 C713 1.362 . S
C714 C717 1.409 . S
C715 H707 0.930 . S
C715 C716 1.355 . S
C715 C717 1.415 . S
C716 C715 1.355 . S
C716 C718 1.419 . S
C717 C712 1.425 . S
C717 C714 1.409 . S
C717 C715 1.415 . S
C718 H708 0.930 . S
C718 C716 1.419 . S
C718 C719 1.362 . S
C719 H709 0.930 . S
C719 C712 1.409 . S
C719 C718 1.362 . S
H720 C726 0.930 1_655 S
H721 C729 0.930 . S
H722 C730 0.930 . S
H723 C731 0.930 . S
H724 C734 0.930 1_655 S
H725 C735 0.930 . S
C726 H720 0.930 1_455 S
C726 C727 1.355 . S
C726 C728 1.415 . S
C727 C726 1.355 . S
C727 C729 1.419 . S
C728 C726 1.415 . S
C728 C733 1.425 . S
C728 C735 1.409 1_455 S
C729 H721 0.930 . S
C729 C727 1.419 . S
C729 C730 1.362 . S
C730 H722 0.930 . S
C730 C729 1.362 . S
C730 C733 1.409 . S
C731 H723 0.930 . S
C731 C732 1.355 . S
C731 C733 1.415 . S
C732 C731 1.355 . S
C732 C734 1.419 . S
C733 C728 1.425 . S
C733 C730 1.409 . S
C733 C731 1.415 . S
C734 H724 0.930 1_455 S
C734 C732 1.419 . S
C734 C735 1.362 1_455 S
C735 H725 0.930 . S
C735 C728 1.409 1_655 S
C735 C734 1.362 1_655 S
H736 C742 0.930 . S
H737 C745 0.930 . S
H738 C746 0.930 . S
H739 C747 0.930 . S
H740 C750 0.930 . S
H741 C751 0.930 . S
C742 H736 0.930 . S
C742 C743 1.355 . S
C742 C744 1.415 . S
C743 C742 1.355 . S
C743 C745 1.419 . S
C744 C742 1.415 . S
C744 C749 1.425 . S
C744 C751 1.409 . S
C745 H737 0.930 . S
C745 C743 1.419 . S
C745 C746 1.362 . S
C746 H738 0.930 . S
C746 C745 1.362 . S
C746 C749 1.409 . S
C747 H739 0.930 . S
C747 C748 1.355 . S
C747 C749 1.415 . S
C748 C747 1.355 . S
C748 C750 1.419 . S
C749 C744 1.425 . S
C749 C746 1.409 . S
C749 C747 1.415 . S
C750 H740 0.930 . S
C750 C748 1.419 . S
C750 C751 1.362 . S
C751 H741 0.930 . S
C751 C744 1.409 . S
C751 C750 1.362 . S
H752 C758 0.930 . S
H753 C761 0.930 . S
H754 C762 0.930 . S
H755 C763 0.930 . S
H756 C766 0.930 . S
H757 C767 0.930 . S
C758 H752 0.930 . S
C758 C759 1.355 . S
C758 C760 1.415 . S
C759 C758 1.355 . S
C759 C761 1.419 . S
C760 C758 1.415 . S
C760 C765 1.425 . S
C760 C767 1.409 . S
C761 H753 0.930 . S
C761 C759 1.419 . S
C761 C762 1.362 . S
C762 H754 0.930 . S
C762 C761 1.362 . S
C762 C765 1.409 . S
C763 H755 0.930 . S
C763 C764 1.355 . S
C763 C765 1.415 . S
C764 C763 1.355 . S
C764 C766 1.419 . S
C765 C760 1.425 . S
C765 C762 1.409 . S
C765 C763 1.415 . S
C766 H756 0.930 . S
C766 C764 1.419 . S
C766 C767 1.362 . S
C767 H757 0.930 . S
C767 C760 1.409 . S
C767 C766 1.362 . S
H768 C774 0.930 . S
H769 C777 0.930 . S
H770 C778 0.930 . S
H771 C779 0.930 . S
H772 C782 0.930 . S
H773 C783 0.930 . S
C774 H768 0.930 . S
C774 C775 1.355 . S
C774 C776 1.415 . S
C775 C774 1.355 . S
C775 C777 1.419 . S
C776 C774 1.415 . S
C776 C781 1.425 . S
C776 C783 1.409 . S
C777 H769 0.930 . S
C777 C775 1.419 . S
C777 C778 1.362 . S
C778 H770 0.930 . S
C778 C777 1.362 . S
C778 C781 1.409 . S
C779 H771 0.930 . S
C779 C780 1.355 . S
C779 C781 1.415 . S
C780 C779 1.355 . S
C780 C782 1.419 . S
C781 C776 1.425 . S
C781 C778 1.409 . S
C781 C779 1.415 . S
C782 H772 0.930 . S
C782 C780 1.419 . S
C782 C783 1.362 . S
C783 H773 0.930 . S
C783 C776 1.409 . S
C783 C782 1.362 . S
H784 C790 0.930 . S
H785 C793 0.930 . S
H786 C794 0.930 . S
H787 C795 0.930 . S
H788 C798 0.930 . S
H789 C799 0.930 . S
C790 H784 0.930 . S
C790 C791 1.355 . S
C790 C792 1.415 . S
C791 C790 1.355 . S
C791 C793 1.419 . S
C792 C790 1.415 . S
C792 C797 1.425 . S
C792 C799 1.409 . S
C793 H785 0.930 . S
C793 C791 1.419 . S
C793 C794 1.362 . S
C794 H786 0.930 . S
C794 C793 1.362 . S
C794 C797 1.409 . S
C795 H787 0.930 . S
C795 C796 1.355 . S
C795 C797 1.415 . S
C796 C795 1.355 . S
C796 C798 1.419 . S
C797 C792 1.425 . S
C797 C794 1.409 . S
C797 C795 1.415 . S
C798 H788 0.930 . S
C798 C796 1.419 . S
C798 C799 1.362 . S
C799 H789 0.930 . S
C799 C792 1.409 . S
C799 C798 1.362 . S
H800 C806 0.930 . S
H801 C809 0.930 . S
H802 C810 0.930 . S
H803 C811 0.930 . S
H804 C814 0.930 . S
H805 C815 0.930 . S
C806 H800 0.930 . S
C806 C807 1.355 . S
C806 C808 1.415 . S
C807 C806 1.355 . S
C807 C809 1.419 . S
C808 C806 1.415 . S
C808 C813 1.425 . S
C808 C815 1.409 . S
C809 H801 0.930 . S
C809 C807 1.419 . S
C809 C810 1.362 . S
C810 H802 0.930 . S
C810 C809 1.362 . S
C810 C813 1.409 . S
C811 H803 0.930 . S
C811 C812 1.355 . S
C811 C813 1.415 . S
C812 C811 1.355 . S
C812 C814 1.419 . S
C813 C808 1.425 . S
C813 C810 1.409 . S
C813 C811 1.415 . S
C814 H804 0.930 . S
C814 C812 1.419 . S
C814 C815 1.362 . S
C815 H805 0.930 . S
C815 C808 1.409 . S
C815 C814 1.362 . S
H816 C822 0.930 . S
H817 C825 0.930 . S
H818 C826 0.930 . S
H819 C827 0.954 . S
H820 C830 0.930 . S
H821 C831 0.930 . S
C822 H816 0.930 . S
C822 C823 1.355 . S
C822 C824 1.415 . S
C823 C822 1.355 . S
C823 C825 1.419 1_545 S
C824 C822 1.415 . S
C824 C829 1.425 . S
C824 C831 1.409 . S
C825 H817 0.930 . S
C825 C823 1.419 1_565 S
C825 C826 1.362 . S
C826 H818 0.930 . S
C826 C825 1.362 . S
C826 C829 1.409 1_565 S
C827 H819 0.954 . S
C827 C828 1.355 . S
C827 C829 1.415 . S
C828 C827 1.355 . S
C828 C830 1.419 . S
C829 C824 1.425 . S
C829 C826 1.409 1_545 S
C829 C827 1.415 . S
C830 H820 0.930 . S
C830 C828 1.419 . S
C830 C831 1.362 . S
C831 H821 0.930 . S
C831 C824 1.409 . S
C831 C830 1.362 . S
H832 C838 0.930 . S
H833 C841 0.930 . S
H834 C842 0.930 . S
H835 C843 0.930 . S
H836 C846 0.930 . S
H837 C847 0.930 . S
C838 H832 0.930 . S
C838 C839 1.355 . S
C838 C840 1.415 . S
C839 C838 1.355 . S
C839 C841 1.419 . S
C840 C838 1.415 . S
C840 C845 1.425 . S
C840 C847 1.409 . S
C841 H833 0.930 . S
C841 C839 1.419 . S
C841 C842 1.362 . S
C842 H834 0.930 . S
C842 C841 1.362 . S
C842 C845 1.409 . S
C843 H835 0.930 . S
C843 C844 1.355 . S
C843 C845 1.415 . S
C844 C843 1.355 . S
C844 C846 1.419 . S
C845 C840 1.425 . S
C845 C842 1.409 . S
C845 C843 1.415 . S
C846 H836 0.930 . S
C846 C844 1.419 . S
C846 C847 1.362 . S
C847 H837 0.930 . S
C847 C840 1.409 . S
C847 C846 1.362 . S
H848 C854 0.930 . S
H849 C857 0.930 . S
H850 C858 0.930 . S
H851 C859 0.961 . S
H852 C862 0.930 . S
H853 C863 0.930 . S
C854 H848 0.930 . S
C854 C855 1.355 . S
C854 C856 1.415 . S
C855 C854 1.355 . S
C855 C857 1.419 . S
C856 C854 1.415 . S
C856 C861 1.425 . S
C856 C863 1.409 . S
C857 H849 0.930 . S
C857 C855 1.419 . S
C857 C858 1.362 . S
C858 H850 0.930 . S
C858 C857 1.362 . S
C858 C861 1.409 . S
C859 H851 0.961 . S
C859 C860 1.355 . S
C859 C861 1.415 . S
C860 C859 1.355 . S
C860 C862 1.419 . S
C861 C856 1.425 . S
C861 C858 1.409 . S
C861 C859 1.415 . S
C862 H852 0.930 . S
C862 C860 1.419 . S
C862 C863 1.362 . S
C863 H853 0.930 . S
C863 C856 1.409 . S
C863 C862 1.362 . S
H864 C870 0.930 . S
H865 C873 0.930 . S
H866 C874 0.930 . S
H867 C875 0.930 . S
H868 C878 0.930 . S
H869 C879 0.930 . S
C870 H864 0.930 . S
C870 C871 1.355 . S
C870 C872 1.415 . S
C871 C870 1.355 . S
C871 C873 1.419 . S
C872 C870 1.415 . S
C872 C877 1.425 . S
C872 C879 1.409 . S
C873 H865 0.930 . S
C873 C871 1.419 . S
C873 C874 1.362 . S
C874 H866 0.930 . S
C874 C873 1.362 . S
C874 C877 1.409 . S
C875 H867 0.930 . S
C875 C876 1.355 . S
C875 C877 1.415 . S
C876 C875 1.355 . S
C876 C878 1.419 . S
C877 C872 1.425 . S
C877 C874 1.409 . S
C877 C875 1.415 . S
C878 H868 0.930 . S
C878 C876 1.419 . S
C878 C879 1.362 . S
C879 H869 0.930 . S
C879 C872 1.409 . S
C879 C878 1.362 . S
H880 C886 0.930 . S
H881 C889 0.930 . S
H882 C890 0.930 . S
H883 C891 0.930 . S
H884 C894 0.930 . S
H885 C895 0.930 . S
C886 H880 0.930 . S
C886 C887 1.355 . S
C886 C888 1.415 . S
C887 C886 1.355 . S
C887 C889 1.419 . S
C888 C886 1.415 . S
C888 C893 1.425 . S
C888 C895 1.409 . S
C889 H881 0.930 . S
C889 C887 1.419 . S
C889 C890 1.362 . S
C890 H882 0.930 . S
C890 C889 1.362 . S
C890 C893 1.409 . S
C891 H883 0.930 . S
C891 C892 1.355 . S
C891 C893 1.415 . S
C892 C891 1.355 . S
C892 C894 1.419 . S
C893 C888 1.425 . S
C893 C890 1.409 . S
C893 C891 1.415 . S
C894 H884 0.930 . S
C894 C892 1.419 . S
C894 C895 1.362 . S
C895 H885 0.930 . S
C895 C888 1.409 . S
C895 C894 1.362 . S
H896 C902 0.930 . S
H897 C905 0.930 . S
H898 C906 0.930 . S
H899 C907 0.930 . S
H900 C910 0.930 . S
H901 C911 0.930 . S
C902 H896 0.930 . S
C902 C903 1.355 . S
C902 C904 1.415 . S
C903 C902 1.355 . S
C903 C905 1.419 . S
C904 C902 1.415 . S
C904 C909 1.425 . S
C904 C911 1.409 . S
C905 H897 0.930 . S
C905 C903 1.419 . S
C905 C906 1.362 . S
C906 H898 0.930 . S
C906 C905 1.362 . S
C906 C909 1.409 . S
C907 H899 0.930 . S
C907 C908 1.355 . S
C907 C909 1.415 . S
C908 C907 1.355 . S
C908 C910 1.419 . S
C909 C904 1.425 . S
C909 C906 1.409 . S
C909 C907 1.415 . S
C910 H900 0.930 . S
C910 C908 1.419 . S
C910 C911 1.362 . S
C911 H901 0.930 . S
C911 C904 1.409 . S
C911 C910 1.362 . S
H912 C918 0.930 . S
H913 C921 0.930 1_556 S
H914 C922 0.930 . S
H915 C923 0.899 1_556 S
H916 C926 0.930 . S
H917 C927 0.929 . S
C918 H912 0.930 . S
C918 C919 1.355 . S
C918 C920 1.415 . S
C919 C918 1.355 . S
C919 C921 1.419 . S
C920 C918 1.415 . S
C920 C925 1.425 . S
C920 C927 1.409 . S
C921 H913 0.930 1_554 S
C921 C919 1.419 . S
C921 C922 1.362 1_554 S
C922 H914 0.930 . S
C922 C921 1.362 1_556 S
C922 C925 1.409 1_556 S
C923 H915 0.899 1_554 S
C923 C924 1.355 1_565 S
C923 C925 1.415 . S
C924 C923 1.355 1_545 S
C924 C926 1.419 . S
C925 C920 1.425 . S
C925 C922 1.409 1_554 S
C925 C923 1.415 . S
C926 H916 0.930 . S
C926 C924 1.419 . S
C926 C927 1.362 1_545 S
C927 H917 0.929 . S
C927 C920 1.409 . S
C927 C926 1.362 1_565 S
H928 C934 0.930 . S
H929 C937 0.930 . S
H930 C938 0.930 . S
H931 C939 0.930 . S
H932 C942 0.930 . S
H933 C943 0.930 . S
C934 H928 0.930 . S
C934 C935 1.355 1_556 S
C934 C936 1.417 . S
C935 C934 1.355 1_554 S
C935 C937 1.419 . S
C936 C934 1.417 . S
C936 C941 1.419 1_556 S
C936 C943 1.413 . S
C937 H929 0.930 . S
C937 C935 1.419 . S
C937 C938 1.362 . S
C938 H930 0.930 . S
C938 C937 1.362 . S
C938 C941 1.409 . S
C939 H931 0.930 . S
C939 C940 1.355 . S
C939 C941 1.415 . S
C940 C939 1.355 . S
C940 C942 1.419 1_554 S
C941 C936 1.419 1_554 S
C941 C938 1.409 . S
C941 C939 1.415 . S
C942 H932 0.930 . S
C942 C940 1.419 1_556 S
C942 C943 1.362 . S
C943 H933 0.930 . S
C943 C936 1.413 . S
C943 C942 1.362 . S
H944 C950 0.930 . S
H945 C953 0.930 . S
H946 C954 0.930 . S
H947 C955 0.930 . S
H948 C958 0.930 . S
H949 C959 0.930 . S
C950 H944 0.930 . S
C950 C951 1.355 . S
C950 C952 1.415 . S
C951 C950 1.355 . S
C951 C953 1.419 . S
C952 C950 1.415 . S
C952 C957 1.425 . S
C952 C959 1.409 . S
C953 H945 0.930 . S
C953 C951 1.419 . S
C953 C954 1.362 . S
C954 H946 0.930 . S
C954 C953 1.362 . S
C954 C957 1.409 . S
C955 H947 0.930 . S
C955 C956 1.355 . S
C955 C957 1.415 . S
C956 C955 1.355 . S
C956 C958 1.419 . S
C957 C952 1.425 . S
C957 C954 1.409 . S
C957 C955 1.415 . S
C958 H948 0.930 . S
C958 C956 1.419 . S
C958 C959 1.362 . S
C959 H949 0.930 . S
C959 C952 1.409 . S
C959 C958 1.362 . S
H960 C966 0.930 . S
H961 C969 0.930 . S
H962 C970 0.930 . S
H963 C971 0.930 . S
H964 C974 0.930 . S
H965 C975 0.930 . S
C966 H960 0.930 . S
C966 C967 1.355 . S
C966 C968 1.415 . S
C967 C966 1.355 . S
C967 C969 1.419 . S
C968 C966 1.415 . S
C968 C973 1.425 . S
C968 C975 1.409 . S
C969 H961 0.930 . S
C969 C967 1.419 . S
C969 C970 1.362 . S
C970 H962 0.930 . S
C970 C969 1.362 . S
C970 C973 1.409 . S
C971 H963 0.930 . S
C971 C972 1.355 . S
C971 C973 1.415 . S
C972 C971 1.355 . S
C972 C974 1.419 . S
C973 C968 1.425 . S
C973 C970 1.409 . S
C973 C971 1.415 . S
C974 H964 0.930 . S
C974 C972 1.419 . S
C974 C975 1.362 . S
C975 H965 0.930 . S
C975 C968 1.409 . S
C975 C974 1.362 . S
H976 C982 0.930 . S
H977 C985 0.930 . S
H978 C986 0.930 . S
H979 C987 0.930 . S
H980 C990 0.930 . S
H981 C991 0.930 . S
C982 H976 0.930 . S
C982 C983 1.355 . S
C982 C984 1.415 . S
C983 C982 1.355 . S
C983 C985 1.419 . S
C984 C982 1.415 . S
C984 C989 1.425 . S
C984 C991 1.409 . S
C985 H977 0.930 . S
C985 C983 1.419 . S
C985 C986 1.362 . S
C986 H978 0.930 . S
C986 C985 1.362 . S
C986 C989 1.409 . S
C987 H979 0.930 . S
C987 C988 1.355 . S
C987 C989 1.415 . S
C988 C987 1.355 . S
C988 C990 1.419 . S
C989 C984 1.425 . S
C989 C986 1.409 . S
C989 C987 1.415 . S
C990 H980 0.930 . S
C990 C988 1.419 . S
C990 C991 1.362 . S
C991 H981 0.930 . S
C991 C984 1.409 . S
C991 C990 1.362 . S
H992 C998 0.930 . S
H993 C1001 0.930 . S
H994 C1002 0.930 . S
H995 C1003 0.930 . S
H996 C1006 0.930 . S
H997 C1007 0.930 . S
C998 H992 0.930 . S
C998 C999 1.355 . S
C998 C1000 1.415 . S
C999 C998 1.355 . S
C999 C1001 1.419 . S
C1000 C998 1.415 . S
C1000 C1005 1.425 . S
C1000 C1007 1.409 . S
C1001 H993 0.930 . S
C1001 C999 1.419 . S
C1001 C1002 1.362 . S
C1002 H994 0.930 . S
C1002 C1001 1.362 . S
C1002 C1005 1.409 . S
C1003 H995 0.930 . S
C1003 C1004 1.355 . S
C1003 C1005 1.415 . S
C1004 C1003 1.355 . S
C1004 C1006 1.419 . S
C1005 C1000 1.425 . S
C1005 C1002 1.409 . S
C1005 C1003 1.415 . S
C1006 H996 0.930 . S
C1006 C1004 1.419 . S
C1006 C1007 1.362 . S
C1007 H997 0.930 . S
C1007 C1000 1.409 . S
C1007 C1006 1.362 . S
H1008 C1014 0.930 . S
H1009 C1017 0.930 . S
H1010 C1018 0.930 . S
H1011 C1019 0.930 . S
H1012 C1022 0.930 . S
H1013 C1023 0.930 . S
C1014 H1008 0.930 . S
C1014 C1015 1.355 . S
C1014 C1016 1.415 . S
C1015 C1014 1.355 . S
C1015 C1017 1.419 . S
C1016 C1014 1.415 . S
C1016 C1021 1.425 . S
C1016 C1023 1.409 . S
C1017 H1009 0.930 . S
C1017 C1015 1.419 . S
C1017 C1018 1.362 . S
C1018 H1010 0.930 . S
C1018 C1017 1.362 . S
C1018 C1021 1.409 . S
C1019 H1011 0.930 . S
C1019 C1020 1.355 . S
C1019 C1021 1.415 . S
C1020 C1019 1.355 . S
C1020 C1022 1.419 . S
C1021 C1016 1.425 . S
C1021 C1018 1.409 . S
C1021 C1019 1.415 . S
C1022 H1012 0.930 . S
C1022 C1020 1.419 . S
C1022 C1023 1.362 . S
C1023 H1013 0.930 . S
C1023 C1016 1.409 . S
C1023 C1022 1.362 . S
H1024 C1030 0.930 . S
H1025 C1033 0.930 . S
H1026 C1034 0.930 . S
H1027 C1035 0.930 . S
H1028 C1038 0.930 . S
H1029 C1039 0.930 . S
C1030 H1024 0.930 . S
C1030 C1031 1.355 . S
C1030 C1032 1.415 . S
C1031 C1030 1.355 . S
C1031 C1033 1.419 . S
C1032 C1030 1.415 . S
C1032 C1037 1.425 . S
C1032 C1039 1.409 . S
C1033 H1025 0.930 . S
C1033 C1031 1.419 . S
C1033 C1034 1.362 . S
C1034 H1026 0.930 . S
C1034 C1033 1.362 . S
C1034 C1037 1.409 . S
C1035 H1027 0.930 . S
C1035 C1036 1.355 . S
C1035 C1037 1.415 . S
C1036 C1035 1.355 . S
C1036 C1038 1.419 . S
C1037 C1032 1.425 . S
C1037 C1034 1.409 . S
C1037 C1035 1.415 . S
C1038 H1028 0.930 . S
C1038 C1036 1.419 . S
C1038 C1039 1.362 . S
C1039 H1029 0.930 . S
C1039 C1032 1.409 . S
C1039 C1038 1.362 . S
H1040 C1046 0.930 1_655 S
H1041 C1049 0.930 . S
H1042 C1050 0.930 . S
H1043 C1051 0.930 . S
H1044 C1054 0.930 . S
H1045 C1055 0.930 . S
C1046 H1040 0.930 1_455 S
C1046 C1047 1.355 . S
C1046 C1048 1.415 . S
C1047 C1046 1.355 . S
C1047 C1049 1.419 . S
C1048 C1046 1.415 . S
C1048 C1053 1.425 . S
C1048 C1055 1.409 1_455 S
C1049 H1041 0.930 . S
C1049 C1047 1.419 . S
C1049 C1050 1.362 . S
C1050 H1042 0.930 . S
C1050 C1049 1.362 . S
C1050 C1053 1.409 . S
C1051 H1043 0.930 . S
C1051 C1052 1.355 . S
C1051 C1053 1.415 . S
C1052 C1051 1.355 . S
C1052 C1054 1.419 1_455 S
C1053 C1048 1.425 . S
C1053 C1050 1.409 . S
C1053 C1051 1.415 . S
C1054 H1044 0.930 . S
C1054 C1052 1.419 1_655 S
C1054 C1055 1.362 . S
C1055 H1045 0.930 . S
C1055 C1048 1.409 1_655 S
C1055 C1054 1.362 . S
H1056 C1062 0.930 . S
H1057 C1065 0.930 . S
H1058 C1066 0.930 . S
H1059 C1067 0.930 . S
H1060 C1070 0.930 . S
H1061 C1071 0.930 . S
C1062 H1056 0.930 . S
C1062 C1063 1.355 . S
C1062 C1064 1.415 . S
C1063 C1062 1.355 . S
C1063 C1065 1.419 . S
C1064 C1062 1.415 . S
C1064 C1069 1.425 . S
C1064 C1071 1.409 . S
C1065 H1057 0.930 . S
C1065 C1063 1.419 . S
C1065 C1066 1.362 . S
C1066 H1058 0.930 . S
C1066 C1065 1.362 . S
C1066 C1069 1.409 . S
C1067 H1059 0.930 . S
C1067 C1068 1.355 . S
C1067 C1069 1.415 . S
C1068 C1067 1.355 . S
C1068 C1070 1.419 . S
C1069 C1064 1.425 . S
C1069 C1066 1.409 . S
C1069 C1067 1.415 . S
C1070 H1060 0.930 . S
C1070 C1068 1.419 . S
C1070 C1071 1.362 . S
C1071 H1061 0.930 . S
C1071 C1064 1.409 . S
C1071 C1070 1.362 . S
H1072 C1078 0.930 . S
H1073 C1081 0.930 . S
H1074 C1082 0.930 . S
H1075 C1083 0.930 . S
H1076 C1086 0.930 . S
H1077 C1087 0.930 . S
C1078 H1072 0.930 . S
C1078 C1079 1.355 . S
C1078 C1080 1.415 . S
C1079 C1078 1.355 . S
C1079 C1081 1.419 . S
C1080 C1078 1.415 . S
C1080 C1085 1.425 . S
C1080 C1087 1.409 . S
C1081 H1073 0.930 . S
C1081 C1079 1.419 . S
C1081 C1082 1.362 . S
C1082 H1074 0.930 . S
C1082 C1081 1.362 . S
C1082 C1085 1.409 . S
C1083 H1075 0.930 . S
C1083 C1084 1.355 . S
C1083 C1085 1.415 . S
C1084 C1083 1.355 . S
C1084 C1086 1.419 . S
C1085 C1080 1.425 . S
C1085 C1082 1.409 . S
C1085 C1083 1.415 . S
C1086 H1076 0.930 . S
C1086 C1084 1.419 . S
C1086 C1087 1.362 . S
C1087 H1077 0.930 . S
C1087 C1080 1.409 . S
C1087 C1086 1.362 . S
H1088 C1094 0.930 . S
H1089 C1097 0.930 . S
H1090 C1098 0.930 . S
H1091 C1099 0.930 . S
H1092 C1102 0.930 . S
H1093 C1103 0.930 . S
C1094 H1088 0.930 . S
C1094 C1095 1.355 . S
C1094 C1096 1.415 . S
C1095 C1094 1.355 . S
C1095 C1097 1.419 . S
C1096 C1094 1.415 . S
C1096 C1101 1.425 . S
C1096 C1103 1.409 . S
C1097 H1089 0.930 . S
C1097 C1095 1.419 . S
C1097 C1098 1.362 . S
C1098 H1090 0.930 . S
C1098 C1097 1.362 . S
C1098 C1101 1.409 . S
C1099 H1091 0.930 . S
C1099 C1100 1.355 . S
C1099 C1101 1.415 . S
C1100 C1099 1.355 . S
C1100 C1102 1.419 . S
C1101 C1096 1.425 . S
C1101 C1098 1.409 . S
C1101 C1099 1.415 . S
C1102 H1092 0.930 . S
C1102 C1100 1.419 . S
C1102 C1103 1.362 . S
C1103 H1093 0.930 . S
C1103 C1096 1.409 . S
C1103 C1102 1.362 . S
H1104 C1110 0.930 . S
H1105 C1113 0.930 . S
H1106 C1114 0.930 . S
H1107 C1115 0.930 . S
H1108 C1118 0.930 . S
H1109 C1119 0.930 . S
C1110 H1104 0.930 . S
C1110 C1111 1.355 . S
C1110 C1112 1.415 . S
C1111 C1110 1.355 . S
C1111 C1113 1.419 . S
C1112 C1110 1.415 . S
C1112 C1117 1.425 . S
C1112 C1119 1.409 . S
C1113 H1105 0.930 . S
C1113 C1111 1.419 . S
C1113 C1114 1.362 . S
C1114 H1106 0.930 . S
C1114 C1113 1.362 . S
C1114 C1117 1.409 . S
C1115 H1107 0.930 . S
C1115 C1116 1.355 . S
C1115 C1117 1.415 . S
C1116 C1115 1.355 . S
C1116 C1118 1.419 . S
C1117 C1112 1.425 . S
C1117 C1114 1.409 . S
C1117 C1115 1.415 . S
C1118 H1108 0.930 . S
C1118 C1116 1.419 . S
C1118 C1119 1.362 . S
C1119 H1109 0.930 . S
C1119 C1112 1.409 . S
C1119 C1118 1.362 . S
H1120 C1126 0.930 . S
H1121 C1129 0.930 . S
H1122 C1130 0.930 . S
H1123 C1131 0.930 . S
H1124 C1134 0.930 . S
H1125 C1135 0.930 . S
C1126 H1120 0.930 . S
C1126 C1127 1.355 . S
C1126 C1128 1.415 . S
C1127 C1126 1.355 . S
C1127 C1129 1.419 . S
C1128 C1126 1.415 . S
C1128 C1133 1.425 . S
C1128 C1135 1.409 . S
C1129 H1121 0.930 . S
C1129 C1127 1.419 . S
C1129 C1130 1.362 . S
C1130 H1122 0.930 . S
C1130 C1129 1.362 . S
C1130 C1133 1.409 . S
C1131 H1123 0.930 . S
C1131 C1132 1.355 . S
C1131 C1133 1.415 . S
C1132 C1131 1.355 . S
C1132 C1134 1.419 . S
C1133 C1128 1.425 . S
C1133 C1130 1.409 . S
C1133 C1131 1.415 . S
C1134 H1124 0.930 . S
C1134 C1132 1.419 . S
C1134 C1135 1.362 . S
C1135 H1125 0.930 . S
C1135 C1128 1.409 . S
C1135 C1134 1.362 . S
H1136 C1142 0.930 . S
H1137 C1145 0.930 . S
H1138 C1146 0.930 . S
H1139 C1147 0.930 . S
H1140 C1150 0.930 1_554 S
H1141 C1151 0.930 . S
C1142 H1136 0.930 . S
C1142 C1143 1.355 . S
C1142 C1144 1.415 . S
C1143 C1142 1.355 . S
C1143 C1145 1.419 . S
C1144 C1142 1.415 . S
C1144 C1149 1.425 . S
C1144 C1151 1.409 . S
C1145 H1137 0.930 . S
C1145 C1143 1.419 . S
C1145 C1146 1.362 . S
C1146 H1138 0.930 . S
C1146 C1145 1.362 . S
C1146 C1149 1.409 . S
C1147 H1139 0.930 . S
C1147 C1148 1.355 . S
C1147 C1149 1.415 . S
C1148 C1147 1.355 . S
C1148 C1150 1.419 . S
C1149 C1144 1.425 . S
C1149 C1146 1.409 . S
C1149 C1147 1.415 . S
C1150 H1140 0.930 1_556 S
C1150 C1148 1.419 . S
C1150 C1151 1.362 . S
C1151 H1141 0.930 . S
C1151 C1144 1.409 . S
C1151 C1150 1.362 . S
H1152 C1158 0.930 . S
H1153 C1161 0.930 . S
H1154 C1162 0.930 . S
H1155 C1163 0.930 . S
H1156 C1166 0.930 . S
H1157 C1167 0.930 . S
C1158 H1152 0.930 . S
C1158 C1159 1.355 . S
C1158 C1160 1.415 . S
C1159 C1158 1.355 . S
C1159 C1161 1.419 . S
C1160 C1158 1.415 . S
C1160 C1165 1.425 . S
C1160 C1167 1.409 . S
C1161 H1153 0.930 . S
C1161 C1159 1.419 . S
C1161 C1162 1.362 . S
C1162 H1154 0.930 . S
C1162 C1161 1.362 . S
C1162 C1165 1.409 . S
C1163 H1155 0.930 . S
C1163 C1164 1.355 . S
C1163 C1165 1.415 . S
C1164 C1163 1.355 . S
C1164 C1166 1.419 . S
C1165 C1160 1.425 . S
C1165 C1162 1.409 . S
C1165 C1163 1.415 . S
C1166 H1156 0.930 . S
C1166 C1164 1.419 . S
C1166 C1167 1.362 . S
C1167 H1157 0.930 . S
C1167 C1160 1.409 . S
C1167 C1166 1.362 . S
H1168 C1174 0.930 . S
H1169 C1177 0.930 . S
H1170 C1178 0.930 . S
H1171 C1179 0.930 . S
H1172 C1182 0.930 . S
H1173 C1183 0.930 . S
C1174 H1168 0.930 . S
C1174 C1175 1.355 . S
C1174 C1176 1.415 . S
C1175 C1174 1.355 . S
C1175 C1177 1.419 1_545 S
C1176 C1174 1.415 . S
C1176 C1181 1.425 . S
C1176 C1183 1.409 . S
C1177 H1169 0.930 . S
C1177 C1175 1.419 1_565 S
C1177 C1178 1.362 . S
C1178 H1170 0.930 . S
C1178 C1177 1.362 . S
C1178 C1181 1.409 1_565 S
C1179 H1171 0.930 . S
C1179 C1180 1.355 1_565 S
C1179 C1181 1.415 1_565 S
C1180 C1179 1.355 1_545 S
C1180 C1182 1.419 . S
C1181 C1176 1.425 . S
C1181 C1178 1.409 1_545 S
C1181 C1179 1.415 1_545 S
C1182 H1172 0.930 . S
C1182 C1180 1.419 . S
C1182 C1183 1.362 . S
C1183 H1173 0.930 . S
C1183 C1176 1.409 . S
C1183 C1182 1.362 . S
H1184 C1190 0.930 . S
H1185 C1193 0.930 . S
H1186 C1194 0.930 . S
H1187 C1195 0.930 . S
H1188 C1198 0.930 . S
H1189 C1199 0.930 . S
C1190 H1184 0.930 . S
C1190 C1191 1.355 . S
C1190 C1192 1.415 . S
C1191 C1190 1.355 . S
C1191 C1193 1.419 . S
C1192 C1190 1.415 . S
C1192 C1197 1.425 . S
C1192 C1199 1.409 . S
C1193 H1185 0.930 . S
C1193 C1191 1.419 . S
C1193 C1194 1.362 . S
C1194 H1186 0.930 . S
C1194 C1193 1.362 . S
C1194 C1197 1.409 . S
C1195 H1187 0.930 . S
C1195 C1196 1.355 . S
C1195 C1197 1.415 . S
C1196 C1195 1.355 . S
C1196 C1198 1.419 . S
C1197 C1192 1.425 . S
C1197 C1194 1.409 . S
C1197 C1195 1.415 . S
C1198 H1188 0.930 . S
C1198 C1196 1.419 . S
C1198 C1199 1.362 . S
C1199 H1189 0.930 . S
C1199 C1192 1.409 . S
C1199 C1198 1.362 . S
H1200 C1206 0.930 . S
H1201 C1209 0.930 . S
H1202 C1210 0.930 . S
H1203 C1211 0.930 . S
H1204 C1214 0.930 . S
H1205 C1215 0.930 . S
C1206 H1200 0.930 . S
C1206 C1207 1.355 . S
C1206 C1208 1.415 . S
C1207 C1206 1.355 . S
C1207 C1209 1.419 . S
C1208 C1206 1.415 . S
C1208 C1213 1.425 . S
C1208 C1215 1.409 . S
C1209 H1201 0.930 . S
C1209 C1207 1.419 . S
C1209 C1210 1.362 . S
C1210 H1202 0.930 . S
C1210 C1209 1.362 . S
C1210 C1213 1.409 . S
C1211 H1203 0.930 . S
C1211 C1212 1.355 . S
C1211 C1213 1.415 . S
C1212 C1211 1.355 . S
C1212 C1214 1.419 . S
C1213 C1208 1.425 . S
C1213 C1210 1.409 . S
C1213 C1211 1.415 . S
C1214 H1204 0.930 . S
C1214 C1212 1.419 . S
C1214 C1215 1.362 . S
C1215 H1205 0.930 . S
C1215 C1208 1.409 . S
C1215 C1214 1.362 . S
H1216 C1222 0.930 . S
H1217 C1225 0.930 . S
H1218 C1226 0.930 . S
H1219 C1227 0.930 . S
H1220 C1230 0.930 . S
H1221 C1231 0.930 . S
C1222 H1216 0.930 . S
C1222 C1223 1.355 . S
C1222 C1224 1.415 . S
C1223 C1222 1.355 . S
C1223 C1225 1.419 . S
C1224 C1222 1.415 . S
C1224 C1229 1.425 . S
C1224 C1231 1.409 . S
C1225 H1217 0.930 . S
C1225 C1223 1.419 . S
C1225 C1226 1.362 . S
C1226 H1218 0.930 . S
C1226 C1225 1.362 . S
C1226 C1229 1.409 . S
C1227 H1219 0.930 . S
C1227 C1228 1.355 . S
C1227 C1229 1.415 . S
C1228 C1227 1.355 . S
C1228 C1230 1.419 . S
C1229 C1224 1.425 . S
C1229 C1226 1.409 . S
C1229 C1227 1.415 . S
C1230 H1220 0.930 . S
C1230 C1228 1.419 . S
C1230 C1231 1.362 . S
C1231 H1221 0.930 . S
C1231 C1224 1.409 . S
C1231 C1230 1.362 . S
H1232 C1238 0.930 . S
H1233 C1241 0.930 . S
H1234 C1242 0.930 . S
H1235 C1243 0.930 . S
H1236 C1246 0.930 . S
H1237 C1247 0.930 1_565 S
C1238 H1232 0.930 . S
C1238 C1239 1.355 1_565 S
C1238 C1240 1.415 1_565 S
C1239 C1238 1.355 1_545 S
C1239 C1241 1.419 . S
C1240 C1238 1.415 1_545 S
C1240 C1245 1.425 . S
C1240 C1247 1.409 . S
C1241 H1233 0.930 . S
C1241 C1239 1.419 . S
C1241 C1242 1.362 . S
C1242 H1234 0.930 . S
C1242 C1241 1.362 . S
C1242 C1245 1.409 . S
C1243 H1235 0.930 . S
C1243 C1244 1.355 . S
C1243 C1245 1.415 . S
C1244 C1243 1.355 . S
C1244 C1246 1.419 . S
C1245 C1240 1.425 . S
C1245 C1242 1.409 . S
C1245 C1243 1.415 . S
C1246 H1236 0.930 . S
C1246 C1244 1.419 . S
C1246 C1247 1.362 . S
C1247 H1237 0.930 1_545 S
C1247 C1240 1.409 . S
C1247 C1246 1.362 . S
H1248 C1254 0.930 . S
H1249 C1257 0.930 . S
H1250 C1258 0.930 . S
H1251 C1259 0.930 . S
H1252 C1262 0.930 . S
H1253 C1263 0.930 . S
C1254 H1248 0.930 . S
C1254 C1255 1.355 . S
C1254 C1256 1.415 . S
C1255 C1254 1.355 . S
C1255 C1257 1.419 . S
C1256 C1254 1.415 . S
C1256 C1261 1.425 . S
C1256 C1263 1.409 . S
C1257 H1249 0.930 . S
C1257 C1255 1.419 . S
C1257 C1258 1.362 . S
C1258 H1250 0.930 . S
C1258 C1257 1.362 . S
C1258 C1261 1.409 . S
C1259 H1251 0.930 . S
C1259 C1260 1.355 . S
C1259 C1261 1.415 . S
C1260 C1259 1.355 . S
C1260 C1262 1.419 . S
C1261 C1256 1.425 . S
C1261 C1258 1.409 . S
C1261 C1259 1.415 . S
C1262 H1252 0.930 . S
C1262 C1260 1.419 . S
C1262 C1263 1.362 . S
C1263 H1253 0.930 . S
C1263 C1256 1.409 . S
C1263 C1262 1.362 . S
H1264 C1270 0.930 . S
H1265 C1273 0.930 . S
H1266 C1274 0.930 . S
H1267 C1275 0.930 . S
H1268 C1278 0.911 1_565 S
H1269 C1279 0.930 . S
C1270 H1264 0.930 . S
C1270 C1271 1.355 . S
C1270 C1272 1.415 . S
C1271 C1270 1.355 . S
C1271 C1273 1.419 . S
C1272 C1270 1.415 . S
C1272 C1277 1.425 . S
C1272 C1279 1.409 . S
C1273 H1265 0.930 . S
C1273 C1271 1.419 . S
C1273 C1274 1.362 . S
C1274 H1266 0.930 . S
C1274 C1273 1.362 . S
C1274 C1277 1.409 . S
C1275 H1267 0.930 . S
C1275 C1276 1.355 . S
C1275 C1277 1.415 . S
C1276 C1275 1.355 . S
C1276 C1278 1.419 . S
C1277 C1272 1.425 . S
C1277 C1274 1.409 . S
C1277 C1275 1.415 . S
C1278 H1268 0.911 1_545 S
C1278 C1276 1.419 . S
C1278 C1279 1.362 . S
C1279 H1269 0.930 . S
C1279 C1272 1.409 . S
C1279 C1278 1.362 . S
H1280 C1286 0.930 . S
H1281 C1289 0.930 . S
H1282 C1290 0.930 . S
H1283 C1291 0.930 . S
H1284 C1294 0.930 . S
H1285 C1295 0.930 . S
C1286 H1280 0.930 . S
C1286 C1287 1.355 . S
C1286 C1288 1.415 . S
C1287 C1286 1.355 . S
C1287 C1289 1.419 . S
C1288 C1286 1.415 . S
C1288 C1293 1.425 . S
C1288 C1295 1.409 . S
C1289 H1281 0.930 . S
C1289 C1287 1.419 . S
C1289 C1290 1.362 . S
C1290 H1282 0.930 . S
C1290 C1289 1.362 . S
C1290 C1293 1.409 . S
C1291 H1283 0.930 . S
C1291 C1292 1.355 . S
C1291 C1293 1.415 . S
C1292 C1291 1.355 . S
C1292 C1294 1.419 . S
C1293 C1288 1.425 . S
C1293 C1290 1.409 . S
C1293 C1291 1.415 . S
C1294 H1284 0.930 . S
C1294 C1292 1.419 . S
C1294 C1295 1.362 . S
C1295 H1285 0.930 . S
C1295 C1288 1.409 . S
C1295 C1294 1.362 . S
H1296 C1302 0.930 . S
H1297 C1305 0.926 1_556 S
H1298 C1306 0.930 . S
H1299 C1307 0.952 . S
H1300 C1310 0.930 . S
H1301 C1311 0.930 . S
C1302 H1296 0.930 . S
C1302 C1303 1.355 . S
C1302 C1304 1.415 . S
C1303 C1302 1.355 . S
C1303 C1305 1.425 . S
C1304 C1302 1.415 . S
C1304 C1309 1.425 . S
C1304 C1311 1.409 . S
C1305 H1297 0.926 1_554 S
C1305 C1303 1.425 . S
C1305 C1306 1.360 1_554 S
C1306 H1298 0.930 . S
C1306 C1305 1.360 1_556 S
C1306 C1309 1.409 1_556 S
C1307 H1299 0.952 . S
C1307 C1308 1.342 1_556 S
C1307 C1309 1.407 1_556 S
C1308 C1307 1.342 1_554 S
C1308 C1310 1.419 . S
C1309 C1304 1.425 . S
C1309 C1306 1.409 1_554 S
C1309 C1307 1.407 1_554 S
C1310 H1300 0.930 . S
C1310 C1308 1.419 . S
C1310 C1311 1.362 . S
C1311 H1301 0.930 . S
C1311 C1304 1.409 . S
C1311 C1310 1.362 . S
H1312 C1318 0.930 . S
H1313 C1321 0.932 . S
H1314 C1322 0.930 1_556 S
H1315 C1323 0.930 . S
H1316 C1326 0.930 . S
H1317 C1327 0.930 . S
C1318 H1312 0.930 . S
C1318 C1319 1.355 . S
C1318 C1320 1.415 . S
C1319 C1318 1.355 . S
C1319 C1321 1.419 . S
C1320 C1318 1.415 . S
C1320 C1325 1.425 . S
C1320 C1327 1.409 . S
C1321 H1313 0.932 . S
C1321 C1319 1.419 . S
C1321 C1322 1.362 . S
C1322 H1314 0.930 1_554 S
C1322 C1321 1.362 . S
C1322 C1325 1.409 . S
C1323 H1315 0.930 . S
C1323 C1324 1.355 . S
C1323 C1325 1.415 . S
C1324 C1323 1.355 . S
C1324 C1326 1.419 . S
C1325 C1320 1.425 . S
C1325 C1322 1.409 . S
C1325 C1323 1.415 . S
C1326 H1316 0.930 . S
C1326 C1324 1.419 . S
C1326 C1327 1.362 . S
C1327 H1317 0.930 . S
C1327 C1320 1.409 . S
C1327 C1326 1.362 . S
H1328 C1334 0.930 . S
H1329 C1337 0.930 . S
H1330 C1338 0.930 . S
H1331 C1339 0.930 . S
H1332 C1342 0.930 . S
H1333 C1343 0.930 . S
C1334 H1328 0.930 . S
C1334 C1335 1.355 . S
C1334 C1336 1.415 . S
C1335 C1334 1.355 . S
C1335 C1337 1.419 . S
C1336 C1334 1.415 . S
C1336 C1341 1.425 . S
C1336 C1343 1.409 . S
C1337 H1329 0.930 . S
C1337 C1335 1.419 . S
C1337 C1338 1.362 . S
C1338 H1330 0.930 . S
C1338 C1337 1.362 . S
C1338 C1341 1.409 . S
C1339 H1331 0.930 . S
C1339 C1340 1.355 . S
C1339 C1341 1.415 . S
C1340 C1339 1.355 . S
C1340 C1342 1.419 . S
C1341 C1336 1.425 . S
C1341 C1338 1.409 . S
C1341 C1339 1.415 . S
C1342 H1332 0.930 . S
C1342 C1340 1.419 . S
C1342 C1343 1.362 . S
C1343 H1333 0.930 . S
C1343 C1336 1.409 . S
C1343 C1342 1.362 . S
H1344 C1350 0.930 . S
H1345 C1353 0.930 . S
H1346 C1354 0.930 . S
H1347 C1355 0.930 . S
H1348 C1358 0.930 . S
H1349 C1359 0.930 . S
C1350 H1344 0.930 . S
C1350 C1351 1.355 . S
C1350 C1352 1.415 . S
C1351 C1350 1.355 . S
C1351 C1353 1.419 . S
C1352 C1350 1.415 . S
C1352 C1357 1.425 . S
C1352 C1359 1.409 . S
C1353 H1345 0.930 . S
C1353 C1351 1.419 . S
C1353 C1354 1.362 . S
C1354 H1346 0.930 . S
C1354 C1353 1.362 . S
C1354 C1357 1.409 . S
C1355 H1347 0.930 . S
C1355 C1356 1.355 . S
C1355 C1357 1.415 . S
C1356 C1355 1.355 . S
C1356 C1358 1.419 . S
C1357 C1352 1.425 . S
C1357 C1354 1.409 . S
C1357 C1355 1.415 . S
C1358 H1348 0.930 . S
C1358 C1356 1.419 . S
C1358 C1359 1.362 . S
C1359 H1349 0.930 . S
C1359 C1352 1.409 . S
C1359 C1358 1.362 . S
H1360 C1366 0.930 . S
H1361 C1369 0.930 . S
H1362 C1370 0.930 . S
H1363 C1371 0.930 . S
H1364 C1374 0.930 . S
H1365 C1375 0.930 . S
C1366 H1360 0.930 . S
C1366 C1367 1.355 . S
C1366 C1368 1.415 . S
C1367 C1366 1.355 . S
C1367 C1369 1.419 . S
C1368 C1366 1.415 . S
C1368 C1373 1.425 . S
C1368 C1375 1.409 . S
C1369 H1361 0.930 . S
C1369 C1367 1.419 . S
C1369 C1370 1.362 . S
C1370 H1362 0.930 . S
C1370 C1369 1.362 . S
C1370 C1373 1.409 . S
C1371 H1363 0.930 . S
C1371 C1372 1.355 . S
C1371 C1373 1.415 . S
C1372 C1371 1.355 . S
C1372 C1374 1.419 . S
C1373 C1368 1.425 . S
C1373 C1370 1.409 . S
C1373 C1371 1.415 . S
C1374 H1364 0.930 . S
C1374 C1372 1.419 . S
C1374 C1375 1.362 . S
C1375 H1365 0.930 . S
C1375 C1368 1.409 . S
C1375 C1374 1.362 . S
H1376 C1382 0.930 . S
H1377 C1385 0.930 . S
H1378 C1386 0.930 . S
H1379 C1387 0.930 1_545 S
H1380 C1390 0.930 . S
H1381 C1391 0.930 . S
C1382 H1376 0.930 . S
C1382 C1383 1.355 . S
C1382 C1384 1.415 . S
C1383 C1382 1.355 . S
C1383 C1385 1.419 . S
C1384 C1382 1.415 . S
C1384 C1389 1.425 . S
C1384 C1391 1.409 . S
C1385 H1377 0.930 . S
C1385 C1383 1.419 . S
C1385 C1386 1.362 . S
C1386 H1378 0.930 . S
C1386 C1385 1.362 . S
C1386 C1389 1.409 . S
C1387 H1379 0.930 1_565 S
C1387 C1388 1.355 . S
C1387 C1389 1.415 . S
C1388 C1387 1.355 . S
C1388 C1390 1.419 . S
C1389 C1384 1.425 . S
C1389 C1386 1.409 . S
C1389 C1387 1.415 . S
C1390 H1380 0.930 . S
C1390 C1388 1.419 . S
C1390 C1391 1.362 . S
C1391 H1381 0.930 . S
C1391 C1384 1.409 . S
C1391 C1390 1.362 . S
H1392 C1398 0.930 . S
H1393 C1401 0.930 . S
H1394 C1402 0.930 . S
H1395 C1403 0.930 . S
H1396 C1406 0.930 . S
H1397 C1407 0.930 . S
C1398 H1392 0.930 . S
C1398 C1399 1.355 . S
C1398 C1400 1.415 . S
C1399 C1398 1.355 . S
C1399 C1401 1.419 . S
C1400 C1398 1.415 . S
C1400 C1405 1.425 . S
C1400 C1407 1.409 . S
C1401 H1393 0.930 . S
C1401 C1399 1.419 . S
C1401 C1402 1.362 . S
C1402 H1394 0.930 . S
C1402 C1401 1.362 . S
C1402 C1405 1.409 . S
C1403 H1395 0.930 . S
C1403 C1404 1.355 . S
C1403 C1405 1.415 . S
C1404 C1403 1.355 . S
C1404 C1406 1.419 . S
C1405 C1400 1.425 . S
C1405 C1402 1.409 . S
C1405 C1403 1.415 . S
C1406 H1396 0.930 . S
C1406 C1404 1.419 . S
C1406 C1407 1.362 . S
C1407 H1397 0.930 . S
C1407 C1400 1.409 . S
C1407 C1406 1.362 . S
H1408 C1414 0.930 . S
H1409 C1417 0.930 . S
H1410 C1418 0.930 . S
H1411 C1419 0.930 . S
H1412 C1422 0.930 . S
H1413 C1423 0.930 . S
C1414 H1408 0.930 . S
C1414 C1415 1.355 . S
C1414 C1416 1.415 . S
C1415 C1414 1.355 . S
C1415 C1417 1.419 . S
C1416 C1414 1.415 . S
C1416 C1421 1.425 . S
C1416 C1423 1.409 . S
C1417 H1409 0.930 . S
C1417 C1415 1.419 . S
C1417 C1418 1.362 . S
C1418 H1410 0.930 . S
C1418 C1417 1.362 . S
C1418 C1421 1.409 . S
C1419 H1411 0.930 . S
C1419 C1420 1.355 . S
C1419 C1421 1.415 . S
C1420 C1419 1.355 . S
C1420 C1422 1.419 . S
C1421 C1416 1.425 . S
C1421 C1418 1.409 . S
C1421 C1419 1.415 . S
C1422 H1412 0.930 . S
C1422 C1420 1.419 . S
C1422 C1423 1.362 . S
C1423 H1413 0.930 . S
C1423 C1416 1.409 . S
C1423 C1422 1.362 . S
H1424 C1430 0.930 . S
H1425 C1433 0.930 . S
H1426 C1434 0.930 . S
H1427 C1435 0.930 . S
H1428 C1438 0.930 . S
H1429 C1439 0.930 . S
C1430 H1424 0.930 . S
C1430 C1431 1.355 . S
C1430 C1432 1.415 . S
C1431 C1430 1.355 . S
C1431 C1433 1.419 . S
C1432 C1430 1.415 . S
C1432 C1437 1.425 . S
C1432 C1439 1.409 . S
C1433 H1425 0.930 . S
C1433 C1431 1.419 . S
C1433 C1434 1.362 . S
C1434 H1426 0.930 . S
C1434 C1433 1.362 . S
C1434 C1437 1.409 . S
C1435 H1427 0.930 . S
C1435 C1436 1.355 . S
C1435 C1437 1.415 . S
C1436 C1435 1.355 . S
C1436 C1438 1.419 . S
C1437 C1432 1.425 . S
C1437 C1434 1.409 . S
C1437 C1435 1.415 . S
C1438 H1428 0.930 . S
C1438 C1436 1.419 . S
C1438 C1439 1.362 . S
C1439 H1429 0.930 . S
C1439 C1432 1.409 . S
C1439 C1438 1.362 . S
H1440 C1446 0.930 . S
H1441 C1449 0.930 . S
H1442 C1450 0.930 . S
H1443 C1451 0.930 . S
H1444 C1454 0.930 . S
H1445 C1455 0.930 . S
C1446 H1440 0.930 . S
C1446 C1447 1.355 . S
C1446 C1448 1.415 . S
C1447 C1446 1.355 . S
C1447 C1449 1.419 . S
C1448 C1446 1.415 . S
C1448 C1453 1.425 . S
C1448 C1455 1.409 . S
C1449 H1441 0.930 . S
C1449 C1447 1.419 . S
C1449 C1450 1.362 . S
C1450 H1442 0.930 . S
C1450 C1449 1.362 . S
C1450 C1453 1.409 . S
C1451 H1443 0.930 . S
C1451 C1452 1.355 . S
C1451 C1453 1.415 . S
C1452 C1451 1.355 . S
C1452 C1454 1.419 . S
C1453 C1448 1.425 . S
C1453 C1450 1.409 . S
C1453 C1451 1.415 . S
C1454 H1444 0.930 . S
C1454 C1452 1.419 . S
C1454 C1455 1.362 . S
C1455 H1445 0.930 . S
C1455 C1448 1.409 . S
C1455 C1454 1.362 . S
H1456 C1462 0.930 . S
H1457 C1465 0.930 . S
H1458 C1466 0.930 . S
H1459 C1467 0.930 . S
H1460 C1470 0.928 . S
H1461 C1471 0.930 . S
C1462 H1456 0.930 . S
C1462 C1463 1.355 . S
C1462 C1464 1.415 . S
C1463 C1462 1.355 . S
C1463 C1465 1.419 1_455 S
C1464 C1462 1.415 . S
C1464 C1469 1.425 1_455 S
C1464 C1471 1.409 . S
C1465 H1457 0.930 . S
C1465 C1463 1.419 1_655 S
C1465 C1466 1.362 . S
C1466 H1458 0.930 . S
C1466 C1465 1.362 . S
C1466 C1469 1.409 . S
C1467 H1459 0.930 . S
C1467 C1468 1.355 1_655 S
C1467 C1469 1.415 . S
C1468 C1467 1.355 1_455 S
C1468 C1470 1.419 1_556 S
C1469 C1464 1.425 1_655 S
C1469 C1466 1.409 . S
C1469 C1467 1.415 . S
C1470 H1460 0.928 . S
C1470 C1468 1.419 1_554 S
C1470 C1471 1.364 1_554 S
C1471 H1461 0.930 . S
C1471 C1464 1.409 . S
C1471 C1470 1.364 1_556 S
H1472 C1478 0.930 . S
H1473 C1481 0.930 . S
H1474 C1482 0.930 . S
H1475 C1483 0.930 . S
H1476 C1486 0.930 . S
H1477 C1487 0.930 . S
C1478 H1472 0.930 . S
C1478 C1479 1.355 . S
C1478 C1480 1.415 . S
C1479 C1478 1.355 . S
C1479 C1481 1.419 . S
C1480 C1478 1.415 . S
C1480 C1485 1.425 . S
C1480 C1487 1.409 . S
C1481 H1473 0.930 . S
C1481 C1479 1.419 . S
C1481 C1482 1.362 . S
C1482 H1474 0.930 . S
C1482 C1481 1.362 . S
C1482 C1485 1.409 . S
C1483 H1475 0.930 . S
C1483 C1484 1.355 . S
C1483 C1485 1.415 . S
C1484 C1483 1.355 . S
C1484 C1486 1.419 . S
C1485 C1480 1.425 . S
C1485 C1482 1.409 . S
C1485 C1483 1.415 . S
C1486 H1476 0.930 . S
C1486 C1484 1.419 . S
C1486 C1487 1.362 . S
C1487 H1477 0.930 . S
C1487 C1480 1.409 . S
C1487 C1486 1.362 . S
H1488 C1494 0.930 . S
H1489 C1497 0.930 . S
H1490 C1498 0.930 . S
H1491 C1499 0.930 . S
H1492 C1502 0.930 . S
H1493 C1503 0.930 . S
C1494 H1488 0.930 . S
C1494 C1495 1.355 . S
C1494 C1496 1.415 . S
C1495 C1494 1.355 . S
C1495 C1497 1.419 . S
C1496 C1494 1.415 . S
C1496 C1501 1.425 . S
C1496 C1503 1.409 . S
C1497 H1489 0.930 . S
C1497 C1495 1.419 . S
C1497 C1498 1.362 . S
C1498 H1490 0.930 . S
C1498 C1497 1.362 . S
C1498 C1501 1.409 . S
C1499 H1491 0.930 . S
C1499 C1500 1.355 . S
C1499 C1501 1.415 . S
C1500 C1499 1.355 . S
C1500 C1502 1.419 . S
C1501 C1496 1.425 . S
C1501 C1498 1.409 . S
C1501 C1499 1.415 . S
C1502 H1492 0.930 . S
C1502 C1500 1.419 . S
C1502 C1503 1.362 . S
C1503 H1493 0.930 . S
C1503 C1496 1.409 . S
C1503 C1502 1.362 . S
H1504 C1510 0.930 . S
H1505 C1513 0.930 . S
H1506 C1514 0.930 . S
H1507 C1515 0.930 . S
H1508 C1518 0.930 . S
H1509 C1519 0.930 . S
C1510 H1504 0.930 . S
C1510 C1511 1.355 . S
C1510 C1512 1.415 . S
C1511 C1510 1.355 . S
C1511 C1513 1.419 . S
C1512 C1510 1.415 . S
C1512 C1517 1.425 . S
C1512 C1519 1.409 . S
C1513 H1505 0.930 . S
C1513 C1511 1.419 . S
C1513 C1514 1.362 . S
C1514 H1506 0.930 . S
C1514 C1513 1.362 . S
C1514 C1517 1.409 . S
C1515 H1507 0.930 . S
C1515 C1516 1.355 . S
C1515 C1517 1.415 . S
C1516 C1515 1.355 . S
C1516 C1518 1.419 . S
C1517 C1512 1.425 . S
C1517 C1514 1.409 . S
C1517 C1515 1.415 . S
C1518 H1508 0.930 . S
C1518 C1516 1.419 . S
C1518 C1519 1.362 . S
C1519 H1509 0.930 . S
C1519 C1512 1.409 . S
C1519 C1518 1.362 . S
H1520 C1526 0.930 . S
H1521 C1529 0.930 . S
H1522 C1530 0.930 . S
H1523 C1531 0.930 . S
H1524 C1534 0.930 . S
H1525 C1535 0.930 . S
C1526 H1520 0.930 . S
C1526 C1527 1.355 1_455 S
C1526 C1528 1.415 . S
C1527 C1526 1.355 1_655 S
C1527 C1529 1.419 . S
C1528 C1526 1.415 . S
C1528 C1533 1.425 1_455 S
C1528 C1535 1.409 . S
C1529 H1521 0.930 . S
C1529 C1527 1.419 . S
C1529 C1530 1.362 . S
C1530 H1522 0.930 . S
C1530 C1529 1.362 . S
C1530 C1533 1.409 . S
C1531 H1523 0.930 . S
C1531 C1532 1.355 1_655 S
C1531 C1533 1.415 . S
C1532 C1531 1.355 1_455 S
C1532 C1534 1.419 . S
C1533 C1528 1.425 1_655 S
C1533 C1530 1.409 . S
C1533 C1531 1.415 . S
C1534 H1524 0.930 . S
C1534 C1532 1.419 . S
C1534 C1535 1.362 . S
C1535 H1525 0.930 . S
C1535 C1528 1.409 . S
C1535 C1534 1.362 . S
H1536 C1542 0.930 . S
H1537 C1545 0.930 . S
H1538 C1546 0.930 . S
H1539 C1547 0.930 . S
H1540 C1550 0.930 . S
H1541 C1551 0.930 . S
C1542 H1536 0.930 . S
C1542 C1543 1.355 . S
C1542 C1544 1.415 . S
C1543 C1542 1.355 . S
C1543 C1545 1.419 . S
C1544 C1542 1.415 . S
C1544 C1549 1.425 . S
C1544 C1551 1.409 . S
C1545 H1537 0.930 . S
C1545 C1543 1.419 . S
C1545 C1546 1.362 . S
C1546 H1538 0.930 . S
C1546 C1545 1.362 . S
C1546 C1549 1.409 . S
C1547 H1539 0.930 . S
C1547 C1548 1.355 . S
C1547 C1549 1.415 . S
C1548 C1547 1.355 . S
C1548 C1550 1.419 . S
C1549 C1544 1.425 . S
C1549 C1546 1.409 . S
C1549 C1547 1.415 . S
C1550 H1540 0.930 . S
C1550 C1548 1.419 . S
C1550 C1551 1.362 . S
C1551 H1541 0.930 . S
C1551 C1544 1.409 . S
C1551 C1550 1.362 . S
H1552 C1558 0.930 . S
H1553 C1561 0.930 . S
H1554 C1562 0.930 . S
H1555 C1563 0.930 . S
H1556 C1566 0.930 . S
H1557 C1567 0.930 . S
C1558 H1552 0.930 . S
C1558 C1559 1.355 . S
C1558 C1560 1.415 . S
C1559 C1558 1.355 . S
C1559 C1561 1.419 . S
C1560 C1558 1.415 . S
C1560 C1565 1.425 . S
C1560 C1567 1.409 . S
C1561 H1553 0.930 . S
C1561 C1559 1.419 . S
C1561 C1562 1.362 . S
C1562 H1554 0.930 . S
C1562 C1561 1.362 . S
C1562 C1565 1.409 . S
C1563 H1555 0.930 . S
C1563 C1564 1.355 . S
C1563 C1565 1.415 . S
C1564 C1563 1.355 . S
C1564 C1566 1.419 . S
C1565 C1560 1.425 . S
C1565 C1562 1.409 . S
C1565 C1563 1.415 . S
C1566 H1556 0.930 . S
C1566 C1564 1.419 . S
C1566 C1567 1.362 . S
C1567 H1557 0.930 . S
C1567 C1560 1.409 . S
C1567 C1566 1.362 . S
H1568 C1574 0.930 . S
H1569 C1577 0.930 . S
H1570 C1578 0.930 . S
H1571 C1579 0.930 . S
H1572 C1582 0.930 . S
H1573 C1583 0.930 . S
C1574 H1568 0.930 . S
C1574 C1575 1.355 . S
C1574 C1576 1.415 . S
C1575 C1574 1.355 . S
C1575 C1577 1.419 . S
C1576 C1574 1.415 . S
C1576 C1581 1.425 . S
C1576 C1583 1.409 . S
C1577 H1569 0.930 . S
C1577 C1575 1.419 . S
C1577 C1578 1.362 . S
C1578 H1570 0.930 . S
C1578 C1577 1.362 . S
C1578 C1581 1.409 . S
C1579 H1571 0.930 . S
C1579 C1580 1.355 . S
C1579 C1581 1.415 . S
C1580 C1579 1.355 . S
C1580 C1582 1.419 . S
C1581 C1576 1.425 . S
C1581 C1578 1.409 . S
C1581 C1579 1.415 . S
C1582 H1572 0.930 . S
C1582 C1580 1.419 . S
C1582 C1583 1.362 . S
C1583 H1573 0.930 . S
C1583 C1576 1.409 . S
C1583 C1582 1.362 . S
H1584 C1590 0.930 . S
H1585 C1593 0.930 . S
H1586 C1594 0.930 . S
H1587 C1595 0.930 . S
H1588 C1598 0.930 . S
H1589 C1599 0.930 . S
C1590 H1584 0.930 . S
C1590 C1591 1.355 . S
C1590 C1592 1.415 . S
C1591 C1590 1.355 . S
C1591 C1593 1.419 . S
C1592 C1590 1.415 . S
C1592 C1597 1.425 . S
C1592 C1599 1.409 . S
C1593 H1585 0.930 . S
C1593 C1591 1.419 . S
C1593 C1594 1.362 . S
C1594 H1586 0.930 . S
C1594 C1593 1.362 . S
C1594 C1597 1.409 . S
C1595 H1587 0.930 . S
C1595 C1596 1.355 . S
C1595 C1597 1.415 . S
C1596 C1595 1.355 . S
C1596 C1598 1.419 . S
C1597 C1592 1.425 . S
C1597 C1594 1.409 . S
C1597 C1595 1.415 . S
C1598 H1588 0.930 . S
C1598 C1596 1.419 . S
C1598 C1599 1.362 . S
C1599 H1589 0.930 . S
C1599 C1592 1.409 . S
C1599 C1598 1.362 . S
H1600 C1606 0.930 . S
H1601 C1609 0.930 . S
H1602 C1610 0.930 . S
H1603 C1611 0.930 . S
H1604 C1614 0.930 . S
H1605 C1615 0.930 . S
C1606 H1600 0.930 . S
C1606 C1607 1.355 . S
C1606 C1608 1.415 . S
C1607 C1606 1.355 . S
C1607 C1609 1.419 . S
C1608 C1606 1.415 . S
C1608 C1613 1.425 . S
C1608 C1615 1.409 . S
C1609 H1601 0.930 . S
C1609 C1607 1.419 . S
C1609 C1610 1.362 . S
C1610 H1602 0.930 . S
C1610 C1609 1.362 . S
C1610 C1613 1.409 . S
C1611 H1603 0.930 . S
C1611 C1612 1.355 . S
C1611 C1613 1.415 . S
C1612 C1611 1.355 . S
C1612 C1614 1.419 . S
C1613 C1608 1.425 . S
C1613 C1610 1.409 . S
C1613 C1611 1.415 . S
C1614 H1604 0.930 . S
C1614 C1612 1.419 . S
C1614 C1615 1.362 . S
C1615 H1605 0.930 . S
C1615 C1608 1.409 . S
C1615 C1614 1.362 . S
H1616 C1622 0.930 . S
H1617 C1625 0.930 . S
H1618 C1626 0.930 . S
H1619 C1627 0.930 . S
H1620 C1630 0.930 . S
H1621 C1631 0.930 . S
C1622 H1616 0.930 . S
C1622 C1623 1.355 . S
C1622 C1624 1.415 . S
C1623 C1622 1.355 . S
C1623 C1625 1.419 . S
C1624 C1622 1.415 . S
C1624 C1629 1.425 . S
C1624 C1631 1.409 . S
C1625 H1617 0.930 . S
C1625 C1623 1.419 . S
C1625 C1626 1.362 . S
C1626 H1618 0.930 . S
C1626 C1625 1.362 . S
C1626 C1629 1.409 . S
C1627 H1619 0.930 . S
C1627 C1628 1.355 . S
C1627 C1629 1.415 . S
C1628 C1627 1.355 . S
C1628 C1630 1.419 . S
C1629 C1624 1.425 . S
C1629 C1626 1.409 . S
C1629 C1627 1.415 . S
C1630 H1620 0.930 . S
C1630 C1628 1.419 . S
C1630 C1631 1.362 . S
C1631 H1621 0.930 . S
C1631 C1624 1.409 . S
C1631 C1630 1.362 . S
H1632 C1638 0.930 . S
H1633 C1641 0.930 . S
H1634 C1642 0.930 . S
H1635 C1643 0.930 . S
H1636 C1646 0.930 . S
H1637 C1647 0.930 . S
C1638 H1632 0.930 . S
C1638 C1639 1.355 . S
C1638 C1640 1.415 . S
C1639 C1638 1.355 . S
C1639 C1641 1.419 . S
C1640 C1638 1.415 . S
C1640 C1645 1.425 . S
C1640 C1647 1.409 . S
C1641 H1633 0.930 . S
C1641 C1639 1.419 . S
C1641 C1642 1.362 . S
C1642 H1634 0.930 . S
C1642 C1641 1.362 . S
C1642 C1645 1.409 . S
C1643 H1635 0.930 . S
C1643 C1644 1.355 . S
C1643 C1645 1.415 . S
C1644 C1643 1.355 . S
C1644 C1646 1.419 . S
C1645 C1640 1.425 . S
C1645 C1642 1.409 . S
C1645 C1643 1.415 . S
C1646 H1636 0.930 . S
C1646 C1644 1.419 . S
C1646 C1647 1.362 . S
C1647 H1637 0.930 . S
C1647 C1640 1.409 . S
C1647 C1646 1.362 . S
H1648 C1654 0.930 . S
H1649 C1657 0.930 . S
H1650 C1658 0.930 . S
H1651 C1659 0.930 . S
H1652 C1662 0.930 . S
H1653 C1663 0.930 . S
C1654 H1648 0.930 . S
C1654 C1655 1.355 . S
C1654 C1656 1.415 . S
C1655 C1654 1.355 . S
C1655 C1657 1.419 . S
C1656 C1654 1.415 . S
C1656 C1661 1.425 . S
C1656 C1663 1.409 . S
C1657 H1649 0.930 . S
C1657 C1655 1.419 . S
C1657 C1658 1.362 . S
C1658 H1650 0.930 . S
C1658 C1657 1.362 . S
C1658 C1661 1.409 . S
C1659 H1651 0.930 . S
C1659 C1660 1.355 . S
C1659 C1661 1.415 . S
C1660 C1659 1.355 . S
C1660 C1662 1.419 . S
C1661 C1656 1.425 . S
C1661 C1658 1.409 . S
C1661 C1659 1.415 . S
C1662 H1652 0.930 . S
C1662 C1660 1.419 . S
C1662 C1663 1.362 . S
C1663 H1653 0.930 . S
C1663 C1656 1.409 . S
C1663 C1662 1.362 . S
H1664 C1670 0.930 . S
H1665 C1673 0.930 . S
H1666 C1674 0.930 . S
H1667 C1675 0.930 . S
H1668 C1678 0.930 . S
H1669 C1679 0.930 . S
C1670 H1664 0.930 . S
C1670 C1671 1.355 . S
C1670 C1672 1.415 . S
C1671 C1670 1.355 . S
C1671 C1673 1.419 . S
C1672 C1670 1.415 . S
C1672 C1677 1.425 . S
C1672 C1679 1.409 . S
C1673 H1665 0.930 . S
C1673 C1671 1.419 . S
C1673 C1674 1.362 . S
C1674 H1666 0.930 . S
C1674 C1673 1.362 . S
C1674 C1677 1.409 . S
C1675 H1667 0.930 . S
C1675 C1676 1.355 . S
C1675 C1677 1.415 . S
C1676 C1675 1.355 . S
C1676 C1678 1.419 . S
C1677 C1672 1.425 . S
C1677 C1674 1.409 . S
C1677 C1675 1.415 . S
C1678 H1668 0.930 . S
C1678 C1676 1.419 . S
C1678 C1679 1.362 . S
C1679 H1669 0.930 . S
C1679 C1672 1.409 . S
C1679 C1678 1.362 . S
H1680 C1686 0.930 . S
H1681 C1689 0.930 . S
H1682 C1690 0.930 . S
H1683 C1691 0.930 . S
H1684 C1694 0.930 . S
H1685 C1695 0.930 . S
C1686 H1680 0.930 . S
C1686 C1687 1.355 . S
C1686 C1688 1.415 . S
C1687 C1686 1.355 . S
C1687 C1689 1.419 . S
C1688 C1686 1.415 . S
C1688 C1693 1.425 . S
C1688 C1695 1.409 . S
C1689 H1681 0.930 . S
C1689 C1687 1.419 . S
C1689 C1690 1.362 . S
C1690 H1682 0.930 . S
C1690 C1689 1.362 . S
C1690 C1693 1.409 . S
C1691 H1683 0.930 . S
C1691 C1692 1.355 . S
C1691 C1693 1.415 . S
C1692 C1691 1.355 . S
C1692 C1694 1.419 . S
C1693 C1688 1.425 . S
C1693 C1690 1.409 . S
C1693 C1691 1.415 . S
C1694 H1684 0.930 . S
C1694 C1692 1.419 . S
C1694 C1695 1.362 . S
C1695 H1685 0.930 . S
C1695 C1688 1.409 . S
C1695 C1694 1.362 . S
H1696 C1702 0.930 . S
H1697 C1705 0.930 . S
H1698 C1706 0.930 . S
H1699 C1707 0.930 . S
H1700 C1710 0.930 . S
H1701 C1711 0.930 . S
C1702 H1696 0.930 . S
C1702 C1703 1.355 . S
C1702 C1704 1.415 . S
C1703 C1702 1.355 . S
C1703 C1705 1.419 . S
C1704 C1702 1.415 . S
C1704 C1709 1.425 . S
C1704 C1711 1.409 . S
C1705 H1697 0.930 . S
C1705 C1703 1.419 . S
C1705 C1706 1.362 . S
C1706 H1698 0.930 . S
C1706 C1705 1.362 . S
C1706 C1709 1.409 . S
C1707 H1699 0.930 . S
C1707 C1708 1.355 . S
C1707 C1709 1.415 . S
C1708 C1707 1.355 . S
C1708 C1710 1.419 . S
C1709 C1704 1.425 . S
C1709 C1706 1.409 . S
C1709 C1707 1.415 . S
C1710 H1700 0.930 . S
C1710 C1708 1.419 . S
C1710 C1711 1.362 . S
C1711 H1701 0.930 . S
C1711 C1704 1.409 . S
C1711 C1710 1.362 . S
H1712 C1718 0.930 . S
H1713 C1721 0.930 . S
H1714 C1722 0.930 . S
H1715 C1723 0.930 . S
H1716 C1726 0.930 . S
H1717 C1727 0.930 . S
C1718 H1712 0.930 . S
C1718 C1719 1.355 . S
C1718 C1720 1.415 . S
C1719 C1718 1.355 . S
C1719 C1721 1.419 . S
C1720 C1718 1.415 . S
C1720 C1725 1.425 . S
C1720 C1727 1.409 . S
C1721 H1713 0.930 . S
C1721 C1719 1.419 . S
C1721 C1722 1.362 . S
C1722 H1714 0.930 . S
C1722 C1721 1.362 . S
C1722 C1725 1.409 . S
C1723 H1715 0.930 . S
C1723 C1724 1.355 . S
C1723 C1725 1.415 . S
C1724 C1723 1.355 . S
C1724 C1726 1.419 . S
C1725 C1720 1.425 . S
C1725 C1722 1.409 . S
C1725 C1723 1.415 . S
C1726 H1716 0.930 . S
C1726 C1724 1.419 . S
C1726 C1727 1.362 . S
C1727 H1717 0.930 . S
C1727 C1720 1.409 . S
C1727 C1726 1.362 . S
H1728 C1734 0.930 . S
H1729 C1737 0.930 1_556 S
H1730 C1738 0.945 . S
H1731 C1739 0.893 1_556 S
H1732 C1742 0.930 . S
H1733 C1743 0.930 . S
C1734 H1728 0.930 . S
C1734 C1735 1.355 . S
C1734 C1736 1.415 . S
C1735 C1734 1.355 . S
C1735 C1737 1.419 . S
C1736 C1734 1.415 . S
C1736 C1741 1.425 . S
C1736 C1743 1.409 . S
C1737 H1729 0.930 1_554 S
C1737 C1735 1.419 . S
C1737 C1738 1.357 1_554 S
C1738 H1730 0.945 . S
C1738 C1737 1.357 1_556 S
C1738 C1741 1.400 1_556 S
C1739 H1731 0.893 1_554 S
C1739 C1740 1.355 . S
C1739 C1741 1.415 . S
C1740 C1739 1.355 . S
C1740 C1742 1.419 1_565 S
C1741 C1736 1.425 . S
C1741 C1738 1.400 1_554 S
C1741 C1739 1.415 . S
C1742 H1732 0.930 . S
C1742 C1740 1.419 1_545 S
C1742 C1743 1.362 1_545 S
C1743 H1733 0.930 . S
C1743 C1736 1.409 . S
C1743 C1742 1.362 1_565 S
H1744 C1750 0.930 . S
H1745 C1753 0.930 . S
H1746 C1754 0.930 . S
H1747 C1755 0.930 . S
H1748 C1758 0.930 . S
H1749 C1759 0.930 . S
C1750 H1744 0.930 . S
C1750 C1751 1.355 . S
C1750 C1752 1.415 . S
C1751 C1750 1.355 . S
C1751 C1753 1.419 . S
C1752 C1750 1.415 . S
C1752 C1757 1.425 . S
C1752 C1759 1.409 . S
C1753 H1745 0.930 . S
C1753 C1751 1.419 . S
C1753 C1754 1.362 . S
C1754 H1746 0.930 . S
C1754 C1753 1.362 . S
C1754 C1757 1.409 . S
C1755 H1747 0.930 . S
C1755 C1756 1.355 . S
C1755 C1757 1.415 . S
C1756 C1755 1.355 . S
C1756 C1758 1.419 . S
C1757 C1752 1.425 . S
C1757 C1754 1.409 . S
C1757 C1755 1.415 . S
C1758 H1748 0.930 . S
C1758 C1756 1.419 . S
C1758 C1759 1.362 . S
C1759 H1749 0.930 . S
C1759 C1752 1.409 . S
C1759 C1758 1.362 . S
H1760 C1766 0.930 . S
H1761 C1769 0.930 . S
H1762 C1770 0.930 . S
H1763 C1771 0.930 . S
H1764 C1774 0.930 . S
H1765 C1775 0.930 . S
C1766 H1760 0.930 . S
C1766 C1767 1.355 . S
C1766 C1768 1.415 . S
C1767 C1766 1.355 . S
C1767 C1769 1.419 . S
C1768 C1766 1.415 . S
C1768 C1773 1.425 . S
C1768 C1775 1.409 . S
C1769 H1761 0.930 . S
C1769 C1767 1.419 . S
C1769 C1770 1.362 . S
C1770 H1762 0.930 . S
C1770 C1769 1.362 . S
C1770 C1773 1.409 . S
C1771 H1763 0.930 . S
C1771 C1772 1.355 . S
C1771 C1773 1.415 . S
C1772 C1771 1.355 . S
C1772 C1774 1.419 . S
C1773 C1768 1.425 . S
C1773 C1770 1.409 . S
C1773 C1771 1.415 . S
C1774 H1764 0.930 . S
C1774 C1772 1.419 . S
C1774 C1775 1.362 . S
C1775 H1765 0.930 . S
C1775 C1768 1.409 . S
C1775 C1774 1.362 . S
H1776 C1782 0.930 . S
H1777 C1785 0.930 . S
H1778 C1786 0.930 . S
H1779 C1787 0.930 . S
H1780 C1790 0.930 . S
H1781 C1791 0.930 . S
C1782 H1776 0.930 . S
C1782 C1783 1.355 . S
C1782 C1784 1.415 . S
C1783 C1782 1.355 . S
C1783 C1785 1.419 . S
C1784 C1782 1.415 . S
C1784 C1789 1.425 . S
C1784 C1791 1.409 . S
C1785 H1777 0.930 . S
C1785 C1783 1.419 . S
C1785 C1786 1.362 . S
C1786 H1778 0.930 . S
C1786 C1785 1.362 . S
C1786 C1789 1.409 . S
C1787 H1779 0.930 . S
C1787 C1788 1.355 . S
C1787 C1789 1.415 . S
C1788 C1787 1.355 . S
C1788 C1790 1.419 . S
C1789 C1784 1.425 . S
C1789 C1786 1.409 . S
C1789 C1787 1.415 . S
C1790 H1780 0.930 . S
C1790 C1788 1.419 . S
C1790 C1791 1.362 . S
C1791 H1781 0.930 . S
C1791 C1784 1.409 . S
C1791 C1790 1.362 . S
H1792 C1798 0.930 . S
H1793 C1801 0.930 . S
H1794 C1802 0.930 . S
H1795 C1803 0.930 . S
H1796 C1806 0.930 . S
H1797 C1807 0.930 . S
C1798 H1792 0.930 . S
C1798 C1799 1.355 . S
C1798 C1800 1.415 . S
C1799 C1798 1.355 . S
C1799 C1801 1.419 . S
C1800 C1798 1.415 . S
C1800 C1805 1.425 . S
C1800 C1807 1.409 . S
C1801 H1793 0.930 . S
C1801 C1799 1.419 . S
C1801 C1802 1.362 . S
C1802 H1794 0.930 . S
C1802 C1801 1.362 . S
C1802 C1805 1.409 . S
C1803 H1795 0.930 . S
C1803 C1804 1.355 . S
C1803 C1805 1.415 . S
C1804 C1803 1.355 . S
C1804 C1806 1.419 . S
C1805 C1800 1.425 . S
C1805 C1802 1.409 . S
C1805 C1803 1.415 . S
C1806 H1796 0.930 . S
C1806 C1804 1.419 . S
C1806 C1807 1.362 . S
C1807 H1797 0.930 . S
C1807 C1800 1.409 . S
C1807 C1806 1.362 . S
H1808 C1814 0.930 . S
H1809 C1817 0.930 . S
H1810 C1818 0.930 . S
H1811 C1819 0.930 . S
H1812 C1822 0.930 . S
H1813 C1823 0.930 . S
C1814 H1808 0.930 . S
C1814 C1815 1.355 . S
C1814 C1816 1.415 . S
C1815 C1814 1.355 . S
C1815 C1817 1.419 . S
C1816 C1814 1.415 . S
C1816 C1821 1.425 . S
C1816 C1823 1.409 . S
C1817 H1809 0.930 . S
C1817 C1815 1.419 . S
C1817 C1818 1.362 . S
C1818 H1810 0.930 . S
C1818 C1817 1.362 . S
C1818 C1821 1.409 . S
C1819 H1811 0.930 . S
C1819 C1820 1.355 . S
C1819 C1821 1.415 . S
C1820 C1819 1.355 . S
C1820 C1822 1.419 . S
C1821 C1816 1.425 . S
C1821 C1818 1.409 . S
C1821 C1819 1.415 . S
C1822 H1812 0.930 . S
C1822 C1820 1.419 . S
C1822 C1823 1.362 . S
C1823 H1813 0.930 . S
C1823 C1816 1.409 . S
C1823 C1822 1.362 . S
H1824 C1830 0.930 . S
H1825 C1833 0.930 . S
H1826 C1834 0.930 . S
H1827 C1835 0.930 . S
H1828 C1838 0.930 . S
H1829 C1839 0.930 . S
C1830 H1824 0.930 . S
C1830 C1831 1.355 . S
C1830 C1832 1.415 . S
C1831 C1830 1.355 . S
C1831 C1833 1.419 . S
C1832 C1830 1.415 . S
C1832 C1837 1.425 . S
C1832 C1839 1.409 . S
C1833 H1825 0.930 . S
C1833 C1831 1.419 . S
C1833 C1834 1.362 . S
C1834 H1826 0.930 . S
C1834 C1833 1.362 . S
C1834 C1837 1.409 . S
C1835 H1827 0.930 . S
C1835 C1836 1.355 . S
C1835 C1837 1.415 . S
C1836 C1835 1.355 . S
C1836 C1838 1.419 . S
C1837 C1832 1.425 . S
C1837 C1834 1.409 . S
C1837 C1835 1.415 . S
C1838 H1828 0.930 . S
C1838 C1836 1.419 . S
C1838 C1839 1.362 . S
C1839 H1829 0.930 . S
C1839 C1832 1.409 . S
C1839 C1838 1.362 . S
H1840 C1846 0.930 1_655 S
H1841 C1849 0.930 . S
H1842 C1850 0.930 . S
H1843 C1851 0.930 . S
H1844 C1854 0.930 . S
H1845 C1855 0.930 . S
C1846 H1840 0.930 1_455 S
C1846 C1847 1.355 . S
C1846 C1848 1.415 . S
C1847 C1846 1.355 . S
C1847 C1849 1.419 . S
C1848 C1846 1.415 . S
C1848 C1853 1.425 . S
C1848 C1855 1.409 . S
C1849 H1841 0.930 . S
C1849 C1847 1.419 . S
C1849 C1850 1.362 . S
C1850 H1842 0.930 . S
C1850 C1849 1.362 . S
C1850 C1853 1.409 . S
C1851 H1843 0.930 . S
C1851 C1852 1.355 . S
C1851 C1853 1.415 . S
C1852 C1851 1.355 . S
C1852 C1854 1.419 . S
C1853 C1848 1.425 . S
C1853 C1850 1.409 . S
C1853 C1851 1.415 . S
C1854 H1844 0.930 . S
C1854 C1852 1.419 . S
C1854 C1855 1.362 . S
C1855 H1845 0.930 . S
C1855 C1848 1.409 . S
C1855 C1854 1.362 . S
H1856 C1862 0.930 . S
H1857 C1865 0.930 . S
H1858 C1866 0.930 . S
H1859 C1867 0.930 . S
H1860 C1870 0.930 . S
H1861 C1871 0.930 . S
C1862 H1856 0.930 . S
C1862 C1863 1.355 . S
C1862 C1864 1.415 . S
C1863 C1862 1.355 . S
C1863 C1865 1.419 . S
C1864 C1862 1.415 . S
C1864 C1869 1.425 . S
C1864 C1871 1.409 . S
C1865 H1857 0.930 . S
C1865 C1863 1.419 . S
C1865 C1866 1.362 . S
C1866 H1858 0.930 . S
C1866 C1865 1.362 . S
C1866 C1869 1.409 . S
C1867 H1859 0.930 . S
C1867 C1868 1.355 . S
C1867 C1869 1.415 . S
C1868 C1867 1.355 . S
C1868 C1870 1.419 . S
C1869 C1864 1.425 . S
C1869 C1866 1.409 . S
C1869 C1867 1.415 . S
C1870 H1860 0.930 . S
C1870 C1868 1.419 . S
C1870 C1871 1.362 . S
C1871 H1861 0.930 . S
C1871 C1864 1.409 . S
C1871 C1870 1.362 . S
H1872 C1878 0.930 . S
H1873 C1881 0.930 . S
H1874 C1882 0.930 . S
H1875 C1883 0.930 . S
H1876 C1886 0.930 . S
H1877 C1887 0.930 1_554 S
C1878 H1872 0.930 . S
C1878 C1879 1.355 . S
C1878 C1880 1.415 . S
C1879 C1878 1.355 . S
C1879 C1881 1.419 . S
C1880 C1878 1.415 . S
C1880 C1885 1.425 . S
C1880 C1887 1.409 . S
C1881 H1873 0.930 . S
C1881 C1879 1.419 . S
C1881 C1882 1.362 . S
C1882 H1874 0.930 . S
C1882 C1881 1.362 . S
C1882 C1885 1.409 . S
C1883 H1875 0.930 . S
C1883 C1884 1.355 . S
C1883 C1885 1.415 . S
C1884 C1883 1.355 . S
C1884 C1886 1.419 1_556 S
C1885 C1880 1.425 . S
C1885 C1882 1.409 . S
C1885 C1883 1.415 . S
C1886 H1876 0.930 . S
C1886 C1884 1.419 1_554 S
C1886 C1887 1.362 1_554 S
C1887 H1877 0.930 1_556 S
C1887 C1880 1.409 . S
C1887 C1886 1.362 1_556 S
H1888 C1894 0.930 . S
H1889 C1897 0.930 . S
H1890 C1898 0.930 . S
H1891 C1899 0.930 . S
H1892 C1902 0.930 . S
H1893 C1903 0.930 . S
C1894 H1888 0.930 . S
C1894 C1895 1.355 . S
C1894 C1896 1.415 . S
C1895 C1894 1.355 . S
C1895 C1897 1.419 . S
C1896 C1894 1.415 . S
C1896 C1901 1.425 . S
C1896 C1903 1.409 . S
C1897 H1889 0.930 . S
C1897 C1895 1.419 . S
C1897 C1898 1.362 . S
C1898 H1890 0.930 . S
C1898 C1897 1.362 . S
C1898 C1901 1.409 . S
C1899 H1891 0.930 . S
C1899 C1900 1.355 . S
C1899 C1901 1.415 . S
C1900 C1899 1.355 . S
C1900 C1902 1.419 . S
C1901 C1896 1.425 . S
C1901 C1898 1.409 . S
C1901 C1899 1.415 . S
C1902 H1892 0.930 . S
C1902 C1900 1.419 . S
C1902 C1903 1.362 . S
C1903 H1893 0.930 . S
C1903 C1896 1.409 . S
C1903 C1902 1.362 . S
H1904 C1910 0.930 . S
H1905 C1913 0.930 . S
H1906 C1914 0.930 . S
H1907 C1915 0.930 . S
H1908 C1918 0.930 . S
H1909 C1919 0.930 . S
C1910 H1904 0.930 . S
C1910 C1911 1.355 . S
C1910 C1912 1.415 . S
C1911 C1910 1.355 . S
C1911 C1913 1.419 1_455 S
C1912 C1910 1.415 . S
C1912 C1917 1.425 . S
C1912 C1919 1.409 . S
C1913 H1905 0.930 . S
C1913 C1911 1.419 1_655 S
C1913 C1914 1.362 . S
C1914 H1906 0.930 . S
C1914 C1913 1.362 . S
C1914 C1917 1.409 1_655 S
C1915 H1907 0.930 . S
C1915 C1916 1.355 1_655 S
C1915 C1917 1.415 1_655 S
C1916 C1915 1.355 1_455 S
C1916 C1918 1.419 . S
C1917 C1912 1.425 . S
C1917 C1914 1.409 1_455 S
C1917 C1915 1.415 1_455 S
C1918 H1908 0.930 . S
C1918 C1916 1.419 . S
C1918 C1919 1.362 . S
C1919 H1909 0.930 . S
C1919 C1912 1.409 . S
C1919 C1918 1.362 . S
H1920 C1926 0.930 . S
H1921 C1929 0.930 . S
H1922 C1930 0.930 . S
H1923 C1931 0.930 . S
H1924 C1934 0.930 . S
H1925 C1935 0.930 . S
C1926 H1920 0.930 . S
C1926 C1927 1.355 . S
C1926 C1928 1.415 . S
C1927 C1926 1.355 . S
C1927 C1929 1.419 . S
C1928 C1926 1.415 . S
C1928 C1933 1.425 . S
C1928 C1935 1.409 . S
C1929 H1921 0.930 . S
C1929 C1927 1.419 . S
C1929 C1930 1.362 . S
C1930 H1922 0.930 . S
C1930 C1929 1.362 . S
C1930 C1933 1.409 . S
C1931 H1923 0.930 . S
C1931 C1932 1.355 . S
C1931 C1933 1.415 . S
C1932 C1931 1.355 . S
C1932 C1934 1.419 . S
C1933 C1928 1.425 . S
C1933 C1930 1.409 . S
C1933 C1931 1.415 . S
C1934 H1924 0.930 . S
C1934 C1932 1.419 . S
C1934 C1935 1.362 . S
C1935 H1925 0.930 . S
C1935 C1928 1.409 . S
C1935 C1934 1.362 . S
H1936 C1942 0.930 . S
H1937 C1945 0.930 . S
H1938 C1946 0.930 . S
H1939 C1947 0.930 . S
H1940 C1950 0.930 . S
H1941 C1951 0.930 . S
C1942 H1936 0.930 . S
C1942 C1943 1.355 . S
C1942 C1944 1.415 . S
C1943 C1942 1.355 . S
C1943 C1945 1.419 . S
C1944 C1942 1.415 . S
C1944 C1949 1.425 . S
C1944 C1951 1.409 . S
C1945 H1937 0.930 . S
C1945 C1943 1.419 . S
C1945 C1946 1.362 . S
C1946 H1938 0.930 . S
C1946 C1945 1.362 . S
C1946 C1949 1.409 . S
C1947 H1939 0.930 . S
C1947 C1948 1.355 . S
C1947 C1949 1.415 . S
C1948 C1947 1.355 . S
C1948 C1950 1.419 . S
C1949 C1944 1.425 . S
C1949 C1946 1.409 . S
C1949 C1947 1.415 . S
C1950 H1940 0.930 . S
C1950 C1948 1.419 . S
C1950 C1951 1.362 . S
C1951 H1941 0.930 . S
C1951 C1944 1.409 . S
C1951 C1950 1.362 . S
H1952 C1958 0.930 . S
H1953 C1961 0.930 . S
H1954 C1962 0.930 . S
H1955 C1963 0.930 . S
H1956 C1966 0.930 . S
H1957 C1967 0.930 . S
C1958 H1952 0.930 . S
C1958 C1959 1.355 . S
C1958 C1960 1.415 . S
C1959 C1958 1.355 . S
C1959 C1961 1.419 . S
C1960 C1958 1.415 . S
C1960 C1965 1.425 . S
C1960 C1967 1.409 . S
C1961 H1953 0.930 . S
C1961 C1959 1.419 . S
C1961 C1962 1.362 . S
C1962 H1954 0.930 . S
C1962 C1961 1.362 . S
C1962 C1965 1.409 . S
C1963 H1955 0.930 . S
C1963 C1964 1.355 . S
C1963 C1965 1.415 . S
C1964 C1963 1.355 . S
C1964 C1966 1.419 . S
C1965 C1960 1.425 . S
C1965 C1962 1.409 . S
C1965 C1963 1.415 . S
C1966 H1956 0.930 . S
C1966 C1964 1.419 . S
C1966 C1967 1.362 . S
C1967 H1957 0.930 . S
C1967 C1960 1.409 . S
C1967 C1966 1.362 . S
H1968 C1974 0.930 . S
H1969 C1977 0.930 . S
H1970 C1978 0.930 . S
H1971 C1979 0.930 . S
H1972 C1982 0.930 . S
H1973 C1983 0.938 . S
C1974 H1968 0.930 . S
C1974 C1975 1.355 . S
C1974 C1976 1.415 . S
C1975 C1974 1.355 . S
C1975 C1977 1.419 . S
C1976 C1974 1.415 . S
C1976 C1981 1.425 . S
C1976 C1983 1.396 1_655 S
C1977 H1969 0.930 . S
C1977 C1975 1.419 . S
C1977 C1978 1.362 . S
C1978 H1970 0.930 . S
C1978 C1977 1.362 . S
C1978 C1981 1.409 . S
C1979 H1971 0.930 . S
C1979 C1980 1.355 . S
C1979 C1981 1.415 . S
C1980 C1979 1.355 . S
C1980 C1982 1.419 1_655 S
C1981 C1976 1.425 . S
C1981 C1978 1.409 . S
C1981 C1979 1.415 . S
C1982 H1972 0.930 . S
C1982 C1980 1.419 1_455 S
C1982 C1983 1.369 . S
C1983 H1973 0.938 . S
C1983 C1976 1.396 1_455 S
C1983 C1982 1.369 . S
H1984 C1990 0.930 . S
H1985 C1993 0.930 . S
H1986 C1994 0.930 . S
H1987 C1995 0.930 . S
H1988 C1998 0.930 . S
H1989 C1999 0.930 . S
C1990 H1984 0.930 . S
C1990 C1991 1.355 . S
C1990 C1992 1.415 . S
C1991 C1990 1.355 . S
C1991 C1993 1.419 . S
C1992 C1990 1.415 . S
C1992 C1997 1.425 . S
C1992 C1999 1.409 . S
C1993 H1985 0.930 . S
C1993 C1991 1.419 . S
C1993 C1994 1.362 . S
C1994 H1986 0.930 . S
C1994 C1993 1.362 . S
C1994 C1997 1.409 . S
C1995 H1987 0.930 . S
C1995 C1996 1.355 . S
C1995 C1997 1.415 . S
C1996 C1995 1.355 . S
C1996 C1998 1.419 . S
C1997 C1992 1.425 . S
C1997 C1994 1.409 . S
C1997 C1995 1.415 . S
C1998 H1988 0.930 . S
C1998 C1996 1.419 . S
C1998 C1999 1.362 . S
C1999 H1989 0.930 . S
C1999 C1992 1.409 . S
C1999 C1998 1.362 . S
H2000 C2006 0.930 . S
H2001 C2009 0.930 . S
H2002 C2010 0.930 . S
H2003 C2011 0.930 . S
H2004 C2014 0.930 . S
H2005 C2015 0.930 . S
C2006 H2000 0.930 . S
C2006 C2007 1.355 . S
C2006 C2008 1.415 . S
C2007 C2006 1.355 . S
C2007 C2009 1.419 . S
C2008 C2006 1.415 . S
C2008 C2013 1.425 . S
C2008 C2015 1.409 . S
C2009 H2001 0.930 . S
C2009 C2007 1.419 . S
C2009 C2010 1.362 . S
C2010 H2002 0.930 . S
C2010 C2009 1.362 . S
C2010 C2013 1.409 . S
C2011 H2003 0.930 . S
C2011 C2012 1.355 . S
C2011 C2013 1.415 . S
C2012 C2011 1.355 . S
C2012 C2014 1.419 . S
C2013 C2008 1.425 . S
C2013 C2010 1.409 . S
C2013 C2011 1.415 . S
C2014 H2004 0.930 . S
C2014 C2012 1.419 . S
C2014 C2015 1.362 . S
C2015 H2005 0.930 . S
C2015 C2008 1.409 . S
C2015 C2014 1.362 . S
H2016 C2022 0.930 . S
H2017 C2025 0.930 . S
H2018 C2026 0.930 . S
H2019 C2027 0.930 . S
H2020 C2030 0.930 . S
H2021 C2031 0.930 . S
C2022 H2016 0.930 . S
C2022 C2023 1.355 . S
C2022 C2024 1.415 . S
C2023 C2022 1.355 . S
C2023 C2025 1.419 . S
C2024 C2022 1.415 . S
C2024 C2029 1.425 . S
C2024 C2031 1.409 . S
C2025 H2017 0.930 . S
C2025 C2023 1.419 . S
C2025 C2026 1.362 . S
C2026 H2018 0.930 . S
C2026 C2025 1.362 . S
C2026 C2029 1.409 . S
C2027 H2019 0.930 . S
C2027 C2028 1.355 . S
C2027 C2029 1.415 . S
C2028 C2027 1.355 . S
C2028 C2030 1.419 . S
C2029 C2024 1.425 . S
C2029 C2026 1.409 . S
C2029 C2027 1.415 . S
C2030 H2020 0.930 . S
C2030 C2028 1.419 . S
C2030 C2031 1.362 . S
C2031 H2021 0.930 . S
C2031 C2024 1.409 . S
C2031 C2030 1.362 . S
H2032 C2038 0.930 . S
H2033 C2041 0.930 . S
H2034 C2042 0.930 . S
H2035 C2043 0.930 . S
H2036 C2046 0.930 . S
H2037 C2047 0.930 . S
C2038 H2032 0.930 . S
C2038 C2039 1.355 . S
C2038 C2040 1.415 . S
C2039 C2038 1.355 . S
C2039 C2041 1.419 . S
C2040 C2038 1.415 . S
C2040 C2045 1.425 . S
C2040 C2047 1.409 . S
C2041 H2033 0.930 . S
C2041 C2039 1.419 . S
C2041 C2042 1.362 . S
C2042 H2034 0.930 . S
C2042 C2041 1.362 . S
C2042 C2045 1.409 . S
C2043 H2035 0.930 . S
C2043 C2044 1.355 . S
C2043 C2045 1.415 . S
C2044 C2043 1.355 . S
C2044 C2046 1.419 . S
C2045 C2040 1.425 . S
C2045 C2042 1.409 . S
C2045 C2043 1.415 . S
C2046 H2036 0.930 . S
C2046 C2044 1.419 . S
C2046 C2047 1.362 . S
C2047 H2037 0.930 . S
C2047 C2040 1.409 . S
C2047 C2046 1.362 . S
H2048 C2054 0.930 . S
H2049 C2057 0.930 . S
H2050 C2058 0.930 . S
H2051 C2059 0.930 . S
H2052 C2062 0.930 . S
H2053 C2063 0.930 . S
C2054 H2048 0.930 . S
C2054 C2055 1.355 . S
C2054 C2056 1.415 . S
C2055 C2054 1.355 . S
C2055 C2057 1.419 . S
C2056 C2054 1.415 . S
C2056 C2061 1.425 . S
C2056 C2063 1.409 . S
C2057 H2049 0.930 . S
C2057 C2055 1.419 . S
C2057 C2058 1.362 . S
C2058 H2050 0.930 . S
C2058 C2057 1.362 . S
C2058 C2061 1.409 . S
C2059 H2051 0.930 . S
C2059 C2060 1.355 . S
C2059 C2061 1.415 . S
C2060 C2059 1.355 . S
C2060 C2062 1.419 . S
C2061 C2056 1.425 . S
C2061 C2058 1.409 . S
C2061 C2059 1.415 . S
C2062 H2052 0.930 . S
C2062 C2060 1.419 . S
C2062 C2063 1.362 . S
C2063 H2053 0.930 . S
C2063 C2056 1.409 . S
C2063 C2062 1.362 . S
H2064 C2070 0.930 . S
H2065 C2073 0.930 . S
H2066 C2074 0.930 . S
H2067 C2075 0.930 . S
H2068 C2078 0.930 . S
H2069 C2079 0.930 . S
C2070 H2064 0.930 . S
C2070 C2071 1.355 . S
C2070 C2072 1.415 . S
C2071 C2070 1.355 . S
C2071 C2073 1.419 . S
C2072 C2070 1.415 . S
C2072 C2077 1.425 . S
C2072 C2079 1.409 . S
C2073 H2065 0.930 . S
C2073 C2071 1.419 . S
C2073 C2074 1.362 . S
C2074 H2066 0.930 . S
C2074 C2073 1.362 . S
C2074 C2077 1.409 . S
C2075 H2067 0.930 . S
C2075 C2076 1.355 . S
C2075 C2077 1.415 . S
C2076 C2075 1.355 . S
C2076 C2078 1.419 . S
C2077 C2072 1.425 . S
C2077 C2074 1.409 . S
C2077 C2075 1.415 . S
C2078 H2068 0.930 . S
C2078 C2076 1.419 . S
C2078 C2079 1.362 . S
C2079 H2069 0.930 . S
C2079 C2072 1.409 . S
C2079 C2078 1.362 . S
H2080 C2086 0.930 . S
H2081 C2089 0.930 . S
H2082 C2090 0.930 1_545 S
H2083 C2091 0.930 1_545 S
H2084 C2094 0.930 . S
H2085 C2095 0.930 . S
C2086 H2080 0.930 . S
C2086 C2087 1.355 . S
C2086 C2088 1.415 . S
C2087 C2086 1.355 . S
C2087 C2089 1.419 . S
C2088 C2086 1.415 . S
C2088 C2093 1.425 . S
C2088 C2095 1.409 . S
C2089 H2081 0.930 . S
C2089 C2087 1.419 . S
C2089 C2090 1.362 . S
C2090 H2082 0.930 1_565 S
C2090 C2089 1.362 . S
C2090 C2093 1.409 . S
C2091 H2083 0.930 1_565 S
C2091 C2092 1.355 . S
C2091 C2093 1.415 . S
C2092 C2091 1.355 . S
C2092 C2094 1.419 . S
C2093 C2088 1.425 . S
C2093 C2090 1.409 . S
C2093 C2091 1.415 . S
C2094 H2084 0.930 . S
C2094 C2092 1.419 . S
C2094 C2095 1.362 . S
C2095 H2085 0.930 . S
C2095 C2088 1.409 . S
C2095 C2094 1.362 . S
H2096 C2102 0.930 . S
H2097 C2105 0.930 . S
H2098 C2106 0.930 . S
H2099 C2107 0.930 . S
H2100 C2110 0.930 . S
H2101 C2111 0.930 . S
C2102 H2096 0.930 . S
C2102 C2103 1.355 . S
C2102 C2104 1.415 . S
C2103 C2102 1.355 . S
C2103 C2105 1.419 . S
C2104 C2102 1.415 . S
C2104 C2109 1.425 . S
C2104 C2111 1.409 . S
C2105 H2097 0.930 . S
C2105 C2103 1.419 . S
C2105 C2106 1.362 . S
C2106 H2098 0.930 . S
C2106 C2105 1.362 . S
C2106 C2109 1.409 . S
C2107 H2099 0.930 . S
C2107 C2108 1.355 . S
C2107 C2109 1.415 . S
C2108 C2107 1.355 . S
C2108 C2110 1.419 . S
C2109 C2104 1.425 . S
C2109 C2106 1.409 . S
C2109 C2107 1.415 . S
C2110 H2100 0.930 . S
C2110 C2108 1.419 . S
C2110 C2111 1.362 . S
C2111 H2101 0.930 . S
C2111 C2104 1.409 . S
C2111 C2110 1.362 . S
H2112 C2118 0.935 . S
H2113 C2121 0.930 . S
H2114 C2122 0.930 . S
H2115 C2123 0.930 . S
H2116 C2126 0.931 . S
H2117 C2127 0.930 . S
C2118 H2112 0.935 . S
C2118 C2119 1.354 1_556 S
C2118 C2120 1.410 1_556 S
C2119 C2118 1.354 1_554 S
C2119 C2121 1.419 . S
C2120 C2118 1.410 1_554 S
C2120 C2125 1.425 . S
C2120 C2127 1.409 1_554 S
C2121 H2113 0.930 . S
C2121 C2119 1.419 . S
C2121 C2122 1.362 . S
C2122 H2114 0.930 . S
C2122 C2121 1.362 . S
C2122 C2125 1.409 . S
C2123 H2115 0.930 . S
C2123 C2124 1.355 . S
C2123 C2125 1.415 . S
C2124 C2123 1.355 . S
C2124 C2126 1.419 . S
C2125 C2120 1.425 . S
C2125 C2122 1.409 . S
C2125 C2123 1.415 . S
C2126 H2116 0.931 . S
C2126 C2124 1.419 . S
C2126 C2127 1.362 1_554 S
C2127 H2117 0.930 . S
C2127 C2120 1.409 1_556 S
C2127 C2126 1.362 1_556 S
H2128 C2134 0.930 . S
H2129 C2137 0.930 . S
H2130 C2138 0.930 . S
H2131 C2139 0.930 . S
H2132 C2142 0.930 . S
H2133 C2143 0.930 . S
C2134 H2128 0.930 . S
C2134 C2135 1.355 . S
C2134 C2136 1.415 . S
C2135 C2134 1.355 . S
C2135 C2137 1.419 . S
C2136 C2134 1.415 . S
C2136 C2141 1.425 . S
C2136 C2143 1.409 . S
C2137 H2129 0.930 . S
C2137 C2135 1.419 . S
C2137 C2138 1.362 . S
C2138 H2130 0.930 . S
C2138 C2137 1.362 . S
C2138 C2141 1.409 . S
C2139 H2131 0.930 . S
C2139 C2140 1.355 . S
C2139 C2141 1.415 . S
C2140 C2139 1.355 . S
C2140 C2142 1.419 . S
C2141 C2136 1.425 . S
C2141 C2138 1.409 . S
C2141 C2139 1.415 . S
C2142 H2132 0.930 . S
C2142 C2140 1.419 . S
C2142 C2143 1.362 . S
C2143 H2133 0.930 . S
C2143 C2136 1.409 . S
C2143 C2142 1.362 . S
H2144 C2150 0.930 . S
H2145 C2153 0.930 . S
H2146 C2154 0.930 . S
H2147 C2155 0.930 . S
H2148 C2158 0.930 . S
H2149 C2159 0.930 . S
C2150 H2144 0.930 . S
C2150 C2151 1.355 . S
C2150 C2152 1.415 . S
C2151 C2150 1.355 . S
C2151 C2153 1.419 . S
C2152 C2150 1.415 . S
C2152 C2157 1.425 . S
C2152 C2159 1.409 . S
C2153 H2145 0.930 . S
C2153 C2151 1.419 . S
C2153 C2154 1.362 . S
C2154 H2146 0.930 . S
C2154 C2153 1.362 . S
C2154 C2157 1.409 . S
C2155 H2147 0.930 . S
C2155 C2156 1.355 . S
C2155 C2157 1.415 . S
C2156 C2155 1.355 . S
C2156 C2158 1.419 . S
C2157 C2152 1.425 . S
C2157 C2154 1.409 . S
C2157 C2155 1.415 . S
C2158 H2148 0.930 . S
C2158 C2156 1.419 . S
C2158 C2159 1.362 . S
C2159 H2149 0.930 . S
C2159 C2152 1.409 . S
C2159 C2158 1.362 . S
H2160 C2166 0.930 . S
H2161 C2169 0.930 . S
H2162 C2170 0.930 . S
H2163 C2171 0.930 . S
H2164 C2174 0.930 . S
H2165 C2175 0.930 . S
C2166 H2160 0.930 . S
C2166 C2167 1.355 . S
C2166 C2168 1.415 . S
C2167 C2166 1.355 . S
C2167 C2169 1.419 . S
C2168 C2166 1.415 . S
C2168 C2173 1.425 . S
C2168 C2175 1.409 . S
C2169 H2161 0.930 . S
C2169 C2167 1.419 . S
C2169 C2170 1.362 . S
C2170 H2162 0.930 . S
C2170 C2169 1.362 . S
C2170 C2173 1.409 . S
C2171 H2163 0.930 . S
C2171 C2172 1.355 . S
C2171 C2173 1.415 . S
C2172 C2171 1.355 . S
C2172 C2174 1.419 . S
C2173 C2168 1.425 . S
C2173 C2170 1.409 . S
C2173 C2171 1.415 . S
C2174 H2164 0.930 . S
C2174 C2172 1.419 . S
C2174 C2175 1.362 . S
C2175 H2165 0.930 . S
C2175 C2168 1.409 . S
C2175 C2174 1.362 . S
H2176 C2182 0.930 . S
H2177 C2185 0.930 . S
H2178 C2186 0.930 . S
H2179 C2187 0.930 . S
H2180 C2190 0.930 . S
H2181 C2191 0.930 . S
C2182 H2176 0.930 . S
C2182 C2183 1.355 . S
C2182 C2184 1.415 . S
C2183 C2182 1.355 . S
C2183 C2185 1.419 . S
C2184 C2182 1.415 . S
C2184 C2189 1.425 . S
C2184 C2191 1.409 . S
C2185 H2177 0.930 . S
C2185 C2183 1.419 . S
C2185 C2186 1.362 . S
C2186 H2178 0.930 . S
C2186 C2185 1.362 . S
C2186 C2189 1.409 . S
C2187 H2179 0.930 . S
C2187 C2188 1.355 . S
C2187 C2189 1.415 . S
C2188 C2187 1.355 . S
C2188 C2190 1.419 . S
C2189 C2184 1.425 . S
C2189 C2186 1.409 . S
C2189 C2187 1.415 . S
C2190 H2180 0.930 . S
C2190 C2188 1.419 . S
C2190 C2191 1.362 . S
C2191 H2181 0.930 . S
C2191 C2184 1.409 . S
C2191 C2190 1.362 . S
C663 C106 1.648 . S
C668 C352 1.554 1_556 S
C679 C65 1.356 . S
C684 C365 1.329 . S
C695 C79 1.709 . S
C700 C384 1.774 . S
C716 C415 1.685 . S
C711 C90 1.702 . S
C727 C21 1.494 . S
C732 C435 1.478 . S
C748 C452 1.025 . S
C743 C35 0.981 . S
C764 C465 1.518 . S
C759 C50 1.530 . S
C775 C6 1.066 . S
C780 C492 1.072 . S
C796 C345 1.444 . S
C791 C232 1.483 . S
C807 C245 1.480 . S
C812 C375 1.492 . S
C828 C377 1.717 . S
C823 C274 1.749 . S
C844 C412 0.961 . S
C839 C175 0.889 . S
C855 C231 0.955 . S
C860 C432 1.011 . S
C876 C445 1.721 . S
C871 C246 1.741 . S
C892 C475 1.250 . S
C887 C273 1.171 . S
C908 C485 1.389 . S
C903 C176 1.410 . S
C924 C355 1.670 . S
C919 C160 1.643 . S
C935 C289 1.766 . S
C940 C505 1.763 . S
C956 C535 1.668 . S
C951 C328 1.548 . S
C972 C552 1.377 . S
C967 C317 1.373 . S
C983 C118 1.861 . S
C988 C495 1.947 . S
C999 C132 1.230 . S
C1004 C382 1.205 . S
C1015 C331 1.887 . S
C1020 C565 1.887 . S
C1036 C592 1.268 . S
C1031 C303 1.247 . S
C1052 C342 1.185 . S
C1047 C63 1.194 . S
C1068 C577 1.655 . S
C1063 C107 1.649 . S
C1079 C92 1.489 . S
C1084 C395 1.487 . S
C1095 C78 2.208 . S
C1100 C564 2.201 . S
C1116 C424 2.008 . S
C1111 C8 2.013 . S
C1127 C51 1.031 . S
C1132 C522 1.041 . S
C1148 C457 1.813 1_556 S
C1143 C37 1.789 . S
C1164 C602 1.014 . S
C1159 C20 0.975 . S
C1180 C337 1.244 . S
C1175 C147 1.262 . S
C1196 C584 1.671 . S
C1191 C316 1.692 . S
C1207 C119 1.682 . S
C1212 C385 1.673 . S
C1223 C288 1.022 . S
C1228 C562 0.968 . S
C1239 C148 1.275 1_545 S
C1244 C422 1.292 . S
C1260 C517 1.709 . S
C1255 C315 1.697 . S
C1271 C120 1.534 . S
C1276 C464 1.522 . S
C1287 C287 1.248 . S
C1292 C597 1.206 . S
C1303 C188 1.530 . S
C1308 C344 1.496 . S
C1319 C177 1.974 . S
C1324 C497 2.014 . S
C1335 C258 1.740 . S
C1340 C444 1.753 . S
C1351 C247 1.407 . S
C1356 C542 1.403 . S
C1372 C604 1.789 . S
C1367 C272 1.725 . S
C1383 C216 1.124 . S
C1388 C392 1.161 1_565 S
C1404 C397 2.061 . S
C1399 C261 2.064 . S
C1420 C362 1.259 . S
C1415 C205 1.258 . S
C1431 C76 1.285 . S
C1436 C632 1.267 . S
C1452 C585 1.402 . S
C1447 C93 1.420 . S
C1463 C105 1.319 . S
C1468 C644 1.432 1_556 S
C1479 C62 1.738 . S
C1484 C575 1.677 . S
C1495 C49 1.457 . S
C1500 C515 1.465 . S
C1516 C532 1.258 . S
C1511 C9 1.278 . S
C1532 C545 1.464 . S
C1527 C22 1.481 . S
C1548 C612 1.429 . S
C1543 C36 1.430 . S
C1564 C625 1.419 . S
C1559 C260 1.446 . S
C1575 C189 1.376 . S
C1580 C595 1.332 . S
C1596 C637 1.660 . S
C1591 C204 1.698 . S
C1612 C572 0.837 . S
C1607 C217 0.790 . S
C1628 C512 1.156 . S
C1623 C259 1.102 . S
C1639 C190 1.797 . S
C1644 C525 1.806 . S
C1660 C555 1.354 . S
C1655 C203 1.344 . S
C1671 C218 1.484 . S
C1676 C605 1.458 . S
C1692 C635 1.619 . S
C1687 C314 1.583 . S
C1703 C135 1.813 . S
C1708 C425 1.793 . S
C1724 C455 1.603 . S
C1719 C146 1.561 . S
C1740 C472 1.419 1_565 S
C1735 C163 1.386 . S
C1756 C615 1.994 . S
C1751 C300 1.916 . S
C1767 C286 1.147 . S
C1772 C642 1.230 . S
C1788 C405 1.820 . S
C1783 C149 1.828 . S
C1804 C372 1.243 . S
C1799 C121 1.247 1_565 S
C1815 C91 1.146 . S
C1820 C622 1.194 . S
C1836 C357 1.301 . S
C1831 C77 1.296 . S
C1847 C64 1.450 . S
C1852 C655 1.426 . S
C1863 C104 1.879 . S
C1868 C404 1.853 . S
C1879 C34 1.669 . S
C1884 C504 1.653 1_556 S
C1900 C442 0.996 . S
C1895 C23 0.991 . S
C1911 C7 1.345 . S
C1916 C537 1.432 . S
C1927 C48 0.980 . S
C1932 C482 1.021 . S
C1948 C617 1.240 . S
C1943 C329 1.268 . S
C1959 C162 1.673 . S
C1964 C364 1.636 . S
C1980 C645 1.616 1_655 S
C1975 C301 1.626 . S
C1991 C134 1.019 . S
C1996 C402 1.045 . S
C2007 C330 1.276 . S
C2012 C502 1.288 . S
C2028 C437 1.703 . S
C2023 C161 1.630 . S
C2039 C302 1.509 . S
C2044 C544 1.477 . S
C2060 C477 1.203 . S
C2055 C133 1.175 . S
C2076 C624 1.727 . S
C2071 C244 1.752 . S
C2092 C417 1.980 1_565 S
C2087 C219 1.974 . S
C2103 C230 1.479 . S
C2108 C524 1.595 . S
C2124 C462 1.364 . S
C2119 C191 1.402 1_554 S
C2135 C202 1.923 . S
C2140 C484 2.011 . S
C2151 C174 1.359 . S
C2156 C652 1.349 . S
C2172 C557 2.077 . S
C2167 C233 2.031 1_565 S
C2188 C582 1.167 . S
C2183 C275 1.256 . S
