# Generated by pormake.
# Topology pth, (4,4)-cn, num edge types: 1
# Building blocks:
#     Node 0, Type 0, BuildingBlock: CEKHIL_clean_sbu_0, # of connection points: 4
#     Node 1, Type 0, BuildingBlock: CEKHIL_clean_sbu_0, # of connection points: 4
#     Node 2, Type 0, BuildingBlock: CEKHIL_clean_sbu_0, # of connection points: 4
#     Node 3, Type 1, BuildingBlock: MUDLON_clean_sbu_0, # of connection points: 4
#     Node 4, Type 1, BuildingBlock: MUDLON_clean_sbu_0, # of connection points: 4
#     Node 5, Type 1, BuildingBlock: MUDLON_clean_sbu_0, # of connection points: 4
#     Edge 6, Type (0, 1), BuildingBlock: UVAHIK_clean_linker_0, # of connection points: 2
#     Edge 7, Type (0, 1), BuildingBlock: UVAHIK_clean_linker_0, # of connection points: 2
#     Edge 8, Type (0, 1), BuildingBlock: UVAHIK_clean_linker_0, # of connection points: 2
#     Edge 9, Type (0, 1), BuildingBlock: UVAHIK_clean_linker_0, # of connection points: 2
#     Edge 10, Type (0, 1), BuildingBlock: UVAHIK_clean_linker_0, # of connection points: 2
#     Edge 11, Type (0, 1), BuildingBlock: UVAHIK_clean_linker_0, # of connection points: 2
#     Edge 12, Type (0, 1), BuildingBlock: UVAHIK_clean_linker_0, # of connection points: 2
#     Edge 13, Type (0, 1), BuildingBlock: UVAHIK_clean_linker_0, # of connection points: 2
#     Edge 14, Type (0, 1), BuildingBlock: UVAHIK_clean_linker_0, # of connection points: 2
#     Edge 15, Type (0, 1), BuildingBlock: UVAHIK_clean_linker_0, # of connection points: 2
#     Edge 16, Type (0, 1), BuildingBlock: UVAHIK_clean_linker_0, # of connection points: 2
#     Edge 17, Type (0, 1), BuildingBlock: UVAHIK_clean_linker_0, # of connection points: 2
# Relax obj value: 0.014
# Max RMSD: 0.063
# Mean RMSD: 0.051
data_MOF--net-pth--node1-CEKHIL_clean_sbu_0--node2-MUDLON_clean_sbu_0--edge1-UVAHIK_clean_linker_0
_symmetry_space_group_name_H-M    P1
_symmetry_Int_Tables_number       1
_symmetry_cell_setting            triclinic
loop_
_symmetry_equiv_pos_as_xyz
'x, y, z'
_cell_length_a     28.943519
_cell_length_b     29.065032
_cell_length_c     78.284081
_cell_angle_alpha  90.817734
_cell_angle_beta   90.001887
_cell_angle_gamma 120.28705
loop_
_atom_site_label
_atom_site_type_symbol
_atom_site_fract_x
_atom_site_fract_y
_atom_site_fract_z
_atom_type_partial_charge
Co0 Co 0.04106 0.06464 0.08814 0.0
O1 O 0.00425 0.0095 0.10478 0.0
O2 O 0.07357 0.02058 0.08972 0.0
C3 C 0.04591 0.13085 0.10513 0.0
O4 O 0.09223 0.11748 0.07064 0.0
Co5 Co 0.99588 0.13259 0.07342 0.0
O6 O 0.06897 0.17828 0.06444 0.0
C7 C 0.952 0.0206 0.06151 0.0
C8 C 0.03928 0.99509 0.10168 0.0
C9 C 0.10135 0.16079 0.06339 0.0
O10 O 0.98962 0.01764 0.0694 0.0
O11 O 0.94576 0.06114 0.06279 0.0
O12 O 0.08065 0.11536 0.1068 0.0
O13 O 0.0085 0.10458 0.094 0.0
Co14 Co 0.03102 0.06735 0.4107 0.0
O15 O 1.00259 0.09672 0.39471 0.0
O16 O 0.07664 0.14448 0.40988 0.0
C17 C 0.02242 1.00093 0.39305 0.0
O18 O 0.07397 0.05074 0.42788 0.0
Co19 Co 0.96171 0.95224 0.42385 0.0
O20 O 0.03194 0.96178 0.43084 0.0
C21 C 0.94422 0.03789 0.43748 0.0
C22 C 0.04358 0.14311 0.39834 0.0
C23 C 0.0725 0.00813 0.43313 0.0
O24 O 0.98616 0.07314 0.42961 0.0
O25 O 0.9261 0.98772 0.43579 0.0
O26 O 0.06345 0.04871 0.39194 0.0
O27 O 0.9862 0.99582 0.40375 0.0
Co28 Co 0.01441 0.04544 0.74172 0.0
O29 O 0.06546 0.08723 0.72447 0.0
O30 O 0.06984 0.02675 0.74009 0.0
C31 C 0.94075 0.02292 0.72561 0.0
O32 O 0.96823 0.99277 0.7601 0.0
Co33 Co 0.93855 0.08075 0.75666 0.0
O34 O 0.90812 0.0141 0.76984 0.0
C35 C 0.05132 0.13815 0.76737 0.0
C36 C 0.0901 0.06158 0.72799 0.0
C37 C 0.92858 0.98423 0.76971 0.0
O38 O 0.05752 0.10229 0.7596 0.0
O39 O 0.0079 0.13957 0.76646 0.0
O40 O 0.96596 0.99666 0.72423 0.0
O41 O 0.96322 0.06456 0.73558 0.0
Mg42 Mg 0.04762 0.57115 0.25027 0.0
C43 C 0.05454 0.49914 0.27364 0.0
O44 O 0.0067 0.47499 0.26656 0.0
C45 C 0.05758 0.65461 0.22824 0.0
O46 O 0.0085 0.62932 0.23409 0.0
C47 C 1.00142 0.50244 0.21741 0.0
O48 O 0.01508 0.54816 0.2103 0.0
O49 O 0.00514 0.50061 0.23355 0.0
O50 O 0.08788 0.54621 0.26879 0.0
O51 O 0.00421 0.59897 0.26633 0.0
C52 C 0.98758 0.58627 0.28154 0.0
O53 O 0.98726 0.54533 0.28853 0.0
O54 O 0.08965 0.63892 0.23286 0.0
Mg55 Mg 0.52703 0.05773 0.58116 0.0
C56 C 0.45858 0.00736 0.54907 0.0
O57 O 0.50435 0.01661 0.54263 0.0
C58 C 0.57832 0.99194 0.5953 0.0
O59 O 0.59244 0.98863 0.57958 0.0
C60 C 0.47141 0.06406 0.61059 0.0
O61 O 0.46137 0.0148 0.60901 0.0
O62 O 0.50179 0.09793 0.59965 0.0
O63 O 0.45592 0.01524 0.56498 0.0
O64 O 0.59341 0.10341 0.56373 0.0
C65 C 0.64126 0.11522 0.56704 0.0
O66 O 0.65336 0.10802 0.58257 0.0
O67 O 0.55002 0.01334 0.59812 0.0
Mg68 Mg 0.54442 0.54247 0.91293 0.0
C69 C 0.46041 0.46792 0.89049 0.0
O70 O 0.48562 0.44461 0.89657 0.0
C71 C 0.61608 0.61876 0.93672 0.0
O72 O 0.62752 0.58074 0.93436 0.0
C73 C 0.50737 0.43982 0.93721 0.0
O74 O 0.52634 0.41736 0.9269 0.0
O75 O 0.5129 0.48486 0.93359 0.0
O76 O 0.47618 0.51565 0.89538 0.0
O77 O 0.61514 0.56067 0.89764 0.0
C78 C 0.61313 0.55696 0.88137 0.0
O79 O 0.56629 0.53057 0.87374 0.0
O80 O 0.57686 0.61576 0.9283 0.0
C81 C 0.06995 0.18488 0.13236 0.0
C82 C 0.04565 0.17254 0.11611 0.0
C83 C 0.06395 0.21977 0.14346 0.0
C84 C 0.03596 0.32913 0.14493 0.0
H85 H 0.98052 0.27988 0.19024 0.0
C86 C 0.98209 0.45493 0.18905 0.0
C87 C 0.99398 0.45698 0.20653 0.0
C88 C 0.98389 0.41721 0.17819 0.0
C89 C 0.99676 0.29478 0.17775 0.0
H90 H 0.99782 0.18846 0.09848 0.0
H91 H 0.98896 0.25066 0.11762 0.0
H92 H 0.99799 0.22351 0.17108 0.0
H93 H 0.01526 0.4197 0.22644 0.0
H94 H 0.02036 0.35548 0.20753 0.0
H95 H 0.03683 0.40103 0.15158 0.0
C96 C 0.01199 0.23288 0.12186 0.0
C97 C 0.00664 0.26229 0.16677 0.0
C98 C 0.01702 0.19724 0.11093 0.0
C99 C 0.00543 0.41896 0.21305 0.0
C100 C 0.00824 0.38189 0.20214 0.0
C101 C 0.02704 0.36203 0.15599 0.0
C102 C 0.03457 0.24379 0.13834 0.0
C103 C 0.02612 0.27907 0.15023 0.0
C104 C 0.99875 0.38125 0.18447 0.0
C105 C 0.00703 0.34531 0.17256 0.0
H106 H 0.09192 0.16612 0.13673 0.0
H107 H 0.08206 0.22782 0.15607 0.0
H108 H 0.05135 0.34318 0.13229 0.0
H109 H 0.97276 0.48345 0.18367 0.0
H110 H 0.97465 0.41708 0.16479 0.0
C111 C 0.86639 0.01737 0.4564 0.0
C112 C 0.91547 0.0554 0.4493 0.0
C113 C 0.83939 0.03266 0.46784 0.0
C114 C 0.85937 0.13838 0.49857 0.0
H115 H 0.70442 0.06567 0.49663 0.0
C116 C 0.66459 0.12739 0.53584 0.0
C117 C 0.67945 0.12602 0.55285 0.0
C118 C 0.69679 0.12868 0.52228 0.0
C119 C 0.74771 0.08708 0.49727 0.0
H120 H 0.97426 0.1398 0.44873 0.0
H121 H 0.9268 0.16651 0.46883 0.0
H122 H 0.75296 0.04901 0.47436 0.0
H123 H 0.74153 0.12793 0.5689 0.0
H124 H 0.79718 0.1296 0.54534 0.0
H125 H 0.85395 0.17628 0.52158 0.0
C126 C 0.90954 0.1247 0.46551 0.0
C127 C 0.77557 0.07696 0.48457 0.0
C128 C 0.93658 0.10938 0.45392 0.0
C129 C 0.72876 0.12899 0.55598 0.0
C130 C 0.7609 0.13016 0.54242 0.0
C131 C 0.83143 0.14847 0.51132 0.0
C132 C 0.86054 0.08643 0.4726 0.0
C133 C 0.83168 0.10164 0.48522 0.0
C134 C 0.74464 0.12853 0.52537 0.0
C135 C 0.77513 0.12227 0.51099 0.0
H136 H 0.84869 0.97544 0.45321 0.0
H137 H 0.80224 0.00197 0.47324 0.0
H138 H 0.90256 0.15793 0.49951 0.0
H139 H 0.62704 0.12542 0.53293 0.0
H140 H 0.68347 0.12845 0.50934 0.0
C141 C 0.89618 0.88846 0.77671 0.0
C142 C 0.90661 0.93938 0.78174 0.0
C143 C 0.87096 0.84554 0.78794 0.0
C144 C 0.79116 0.80785 0.82849 0.0
H145 H 0.80878 0.68427 0.82573 0.0
C146 C 0.7002 0.64243 0.87831 0.0
C147 C 0.66033 0.59375 0.87113 0.0
C148 C 0.73736 0.68282 0.86784 0.0
C149 C 0.80379 0.71873 0.82664 0.0
H150 H 0.9022 0.98631 0.8027 0.0
H151 H 0.86216 0.91331 0.82257 0.0
H152 H 0.86053 0.75954 0.80688 0.0
H153 H 0.63104 0.54781 0.84755 0.0
H154 H 0.69746 0.61791 0.82935 0.0
H155 H 0.7357 0.76745 0.84861 0.0
C156 C 0.87016 0.90493 0.80975 0.0
C157 C 0.83301 0.76178 0.81574 0.0
C158 C 0.89377 0.9472 0.7984 0.0
C159 C 0.66129 0.58483 0.85345 0.0
C160 C 0.69926 0.62487 0.84303 0.0
C161 C 0.76317 0.76557 0.83961 0.0
C162 C 0.85689 0.85298 0.80461 0.0
C163 C 0.82699 0.80705 0.81643 0.0
C164 C 0.73627 0.67492 0.85006 0.0
C165 C 0.76895 0.72052 0.83876 0.0
H166 H 0.90556 0.8814 0.76389 0.0
H167 H 0.86113 0.80637 0.78331 0.0
H168 H 0.78358 0.84066 0.8292 0.0
H169 H 0.7004 0.65081 0.89184 0.0
H170 H 0.76562 0.72109 0.87355 0.0
C171 C 0.01199 0.93693 0.12734 0.0
C172 C 0.04386 0.95634 0.11271 0.0
C173 C 0.02087 0.90647 0.13912 0.0
C174 C 0.07993 0.8219 0.14588 0.0
H175 H 0.08399 0.8648 0.19324 0.0
C176 C 0.10859 0.70936 0.2027 0.0
C177 C 0.07177 0.69807 0.21595 0.0
C178 C 0.1144 0.7453 0.18983 0.0
C179 C 0.08281 0.85206 0.1801 0.0
H180 H 0.10854 0.95673 0.0986 0.0
H181 H 0.12341 0.90246 0.11916 0.0
H182 H 0.07261 0.9152 0.17074 0.0
H183 H 0.01409 0.71717 0.22651 0.0
H184 H 0.02413 0.77892 0.20449 0.0
H185 H 0.08826 0.75745 0.15539 0.0
C186 C 0.09179 0.9113 0.1215 0.0
C187 C 0.0762 0.88098 0.1672 0.0
C188 C 0.08325 0.94237 0.10974 0.0
C189 C 0.04281 0.72493 0.21648 0.0
C190 C 0.04886 0.76077 0.20385 0.0
C191 C 0.0861 0.7925 0.15888 0.0
C192 C 0.06157 0.89419 0.13655 0.0
C193 C 0.07332 0.86554 0.14996 0.0
C194 C 0.08406 0.771 0.19019 0.0
C195 C 0.08616 0.80643 0.17619 0.0
H196 H 0.98125 0.94678 0.13003 0.0
H197 H 0.99627 0.89309 0.15044 0.0
H198 H 0.07801 0.80913 0.13271 0.0
H199 H 0.13108 0.68886 0.20188 0.0
H200 H 0.14209 0.75249 0.17953 0.0
C201 C 0.13227 0.97309 0.44121 0.0
C202 C 0.11774 0.0122 0.44319 0.0
C203 C 0.17093 0.97294 0.45188 0.0
C204 C 0.27437 0.05407 0.4856 0.0
H205 H 0.25755 0.91647 0.49624 0.0
C206 C 0.37829 0.01559 0.5426 0.0
C207 C 0.41439 0.99911 0.53748 0.0
C208 C 0.34174 0.01565 0.53091 0.0
C209 C 0.2627 0.9551 0.49332 0.0
H210 H 0.13252 0.08219 0.45775 0.0
H211 H 0.19788 0.08063 0.47702 0.0
H212 H 0.1957 0.92141 0.47626 0.0
H213 H 0.43867 0.96748 0.51629 0.0
H214 H 0.37276 0.96533 0.49604 0.0
H215 H 0.33987 0.08689 0.50353 0.0
C216 C 0.18117 0.05098 0.46685 0.0
C217 C 0.22761 0.95823 0.48171 0.0
C218 C 0.14346 0.05193 0.45583 0.0
C219 C 0.41132 0.98028 0.52062 0.0
C220 C 0.37378 0.97912 0.50904 0.0
C221 C 0.30857 0.05069 0.49752 0.0
C222 C 0.19503 0.01099 0.46521 0.0
C223 C 0.23297 0.00783 0.47757 0.0
C224 C 0.33959 0.998 0.514 0.0
C225 C 0.30312 1.00123 0.50142 0.0
H226 H 0.11334 0.94222 0.43145 0.0
H227 H 0.18142 0.9425 0.4497 0.0
H228 H 0.28092 0.09314 0.48261 0.0
H229 H 0.37987 0.03077 0.55543 0.0
H230 H 0.31554 0.03014 0.53502 0.0
C231 C 0.13715 0.16972 0.78369 0.0
C232 C 0.09506 0.17768 0.7787 0.0
C233 C 0.17586 0.20437 0.79548 0.0
C234 C 0.23938 0.3386 0.81504 0.0
H235 H 0.27013 0.27138 0.85228 0.0
C236 C 0.38441 0.45847 0.87182 0.0
C237 C 0.41731 0.43902 0.87756 0.0
C238 C 0.34337 0.42905 0.85981 0.0
C239 C 0.26261 0.29098 0.84188 0.0
H240 H 0.06219 0.22993 0.78172 0.0
H241 H 0.13037 0.2908 0.80215 0.0
H242 H 0.20416 0.21642 0.83066 0.0
H243 H 0.43382 0.37424 0.87471 0.0
H244 H 0.36423 0.32447 0.8538 0.0
H245 H 0.29896 0.41331 0.82611 0.0
C246 C 0.13303 0.25745 0.79698 0.0
C247 C 0.22466 0.25935 0.82949 0.0
C248 C 0.09385 0.22238 0.78533 0.0
C249 C 0.40892 0.39029 0.87081 0.0
C250 C 0.36854 0.36135 0.85883 0.0
C251 C 0.27797 0.37043 0.8274 0.0
C252 C 0.17386 0.24822 0.80242 0.0
C253 C 0.21308 0.28268 0.81581 0.0
C254 C 0.33465 0.37978 0.8533 0.0
C255 C 0.29069 0.34693 0.84083 0.0
H256 H 0.1395 0.13586 0.77886 0.0
H257 H 0.20727 0.19662 0.79927 0.0
H258 H 0.23124 0.35768 0.80462 0.0
H259 H 0.38993 0.49593 0.87676 0.0
H260 H 0.31792 0.44441 0.85587 0.0
C261 C 0.86498 0.03652 0.71689 0.0
C262 C 0.89437 0.01058 0.71447 0.0
C263 C 0.82408 0.02783 0.70541 0.0
C264 C 0.74078 0.93949 0.66882 0.0
H265 H 0.72699 0.06182 0.6581 0.0
C266 C 0.63718 0.95962 0.60765 0.0
C267 C 0.60369 0.98121 0.61005 0.0
C268 C 0.66674 0.95671 0.62137 0.0
C269 C 0.72999 0.02713 0.66107 0.0
H270 H 0.90322 0.95435 0.69831 0.0
H271 H 0.83376 0.94072 0.67805 0.0
H272 H 0.78956 0.06975 0.68026 0.0
H273 H 0.57327 0.01436 0.62902 0.0
H274 H 0.62532 0.00997 0.65271 0.0
H275 H 0.6826 0.89788 0.64892 0.0
C276 C 0.84089 0.96671 0.68899 0.0
C277 C 0.76571 0.03151 0.67389 0.0
C278 C 0.88115 0.97481 0.70059 0.0
C279 C 0.59874 0.99764 0.62663 0.0
C280 C 0.62878 0.99544 0.64023 0.0
C281 C 0.70564 0.93542 0.65579 0.0
C282 C 0.81213 0.99359 0.69108 0.0
C283 C 0.77185 0.98783 0.67794 0.0
C284 C 0.66392 0.976 0.63769 0.0
C285 C 0.69996 0.97924 0.65177 0.0
H286 H 0.87398 0.06401 0.72754 0.0
H287 H 0.80216 0.04838 0.70774 0.0
H288 H 0.74345 0.90461 0.67172 0.0
H289 H 0.64191 0.94657 0.59508 0.0
H290 H 0.69363 0.94162 0.61905 0.0
C291 C 0.86947 0.97684 0.04313 0.0
C292 C 0.91434 0.97641 0.04992 0.0
C293 C 0.8352 0.93771 0.03145 0.0
C294 C 0.79369 0.80259 0.01472 0.0
H295 H 0.74314 0.84694 0.97587 0.0
C296 C 0.69339 0.66411 0.95687 0.0
C297 C 0.64834 0.66214 0.94928 0.0
C298 C 0.7235 0.70249 0.96931 0.0
C299 C 0.75625 0.83377 0.98676 0.0
H300 H 0.95737 0.93327 0.04989 0.0
H301 H 0.8975 0.86482 0.02929 0.0
H302 H 0.80085 0.91283 0.99731 0.0
H303 H 0.60029 0.69999 0.94865 0.0
H304 H 0.65331 0.76771 0.97062 0.0
H305 H 0.74947 0.72365 1.00412 0.0
C306 C 0.88879 0.89553 0.03319 0.0
C307 C 0.78944 0.87154 0.99906 0.0
C308 C 0.92324 0.93484 0.04496 0.0
C309 C 0.63474 0.70045 0.95424 0.0
C310 C 0.66517 0.73922 0.96679 0.0
C311 C 0.76056 0.76489 1.00244 0.0
C312 C 0.84467 0.89689 0.02614 0.0
C313 C 0.80888 0.85649 0.01315 0.0
C314 C 0.70956 0.74019 0.97461 0.0
C315 C 0.74184 0.78005 0.98821 0.0
H316 H 0.86076 0.00777 0.04674 0.0
H317 H 0.80106 0.93942 0.0266 0.0
H318 H 0.80702 0.78939 0.02555 0.0
H319 H 0.70558 0.63569 0.95329 0.0
H320 H 0.75809 0.70276 0.97471 0.0
C321 C 0.97586 0.90335 0.38551 0.0
C322 C 0.01716 0.95572 0.38254 0.0
C323 C 0.97019 0.86096 0.3752 0.0
C324 C 0.04396 0.8257 0.34325 0.0
H325 H 0.90213 0.70913 0.33155 0.0
C326 C 0.00563 0.67849 0.28784 0.0
C327 C 0.98049 0.62453 0.29238 0.0
C328 C 0.00665 0.71662 0.29914 0.0
C329 C 0.94192 0.74132 0.33481 0.0
H330 H 0.08476 0.00475 0.36641 0.0
H331 H 0.07405 0.93162 0.34815 0.0
H332 H 0.91195 0.78056 0.35083 0.0
H333 H 0.93421 0.56799 0.31196 0.0
H334 H 0.93421 0.63488 0.33151 0.0
H335 H 0.07357 0.78726 0.32666 0.0
C336 C 0.04674 0.92262 0.35869 0.0
C337 C 0.94771 0.78217 0.34594 0.0
C338 C 0.05274 0.9648 0.36911 0.0
C339 C 0.95388 0.60922 0.30811 0.0
C340 C 0.95386 0.64739 0.31928 0.0
C341 C 0.03807 0.78544 0.33193 0.0
C342 C 0.00537 0.87001 0.36156 0.0
C343 C 0.99887 0.8252 0.35023 0.0
C344 C 0.98155 0.70161 0.31507 0.0
C345 C 0.98705 0.74308 0.32752 0.0
H346 H 0.94792 0.89504 0.39582 0.0
H347 H 0.9384 0.82106 0.37804 0.0
H348 H 0.08404 0.85718 0.34653 0.0
H349 H 0.02681 0.69181 0.27588 0.0
H350 H 0.02791 0.75813 0.29555 0.0
C351 C 0.15743 0.10796 0.70497 0.0
C352 C 0.13711 0.06989 0.71796 0.0
C353 C 0.199 0.11321 0.69453 0.0
C354 C 0.25924 0.03549 0.6788 0.0
H355 H 0.37346 0.17154 0.66297 0.0
C356 C 0.42902 0.04508 0.63913 0.0
C357 C 0.44497 0.0769 0.62454 0.0
C358 C 0.39674 0.04994 0.65138 0.0
C359 C 0.34155 0.13325 0.66716 0.0
H360 H 0.14583 0.00872 0.73053 0.0
H361 H 0.21865 0.01806 0.71238 0.0
H362 H 0.30742 0.16895 0.6831 0.0
H363 H 0.44184 0.14083 0.61175 0.0
H364 H 0.38422 0.149 0.6332 0.0
H365 H 0.29239 0.99955 0.6628 0.0
C366 C 0.20192 0.04342 0.71012 0.0
C367 C 0.30375 0.13174 0.67872 0.0
C368 C 0.1604 0.03826 0.7206 0.0
C369 C 0.43027 0.11592 0.62291 0.0
C370 C 0.39727 0.1205 0.63519 0.0
C371 C 0.29677 0.03698 0.66728 0.0
C372 C 0.22118 0.08039 0.69677 0.0
C373 C 0.26226 0.08277 0.68474 0.0
C374 C 0.37883 0.08634 0.64931 0.0
C375 C 0.3387 0.08583 0.66139 0.0
H376 H 0.14043 0.13302 0.7026 0.0
H377 H 0.21247 0.14173 0.6843 0.0
H378 H 0.22713 0.99704 0.6828 0.0
H379 H 0.44037 0.01517 0.6409 0.0
H380 H 0.38475 0.0241 0.66232 0.0
C381 C 0.17718 0.16513 0.04624 0.0
C382 C 0.14938 0.18993 0.05248 0.0
C383 C 0.21924 0.19124 0.03464 0.0
C384 C 0.27149 0.30156 1.00351 0.0
H385 H 0.39723 0.28653 1.00305 0.0
C386 C 0.45247 0.43565 0.96247 0.0
C387 C 0.4736 0.41089 0.95208 0.0
C388 C 0.416 0.40759 0.97532 0.0
C389 C 0.36211 0.29071 1.00296 0.0
H390 H 0.14614 0.26286 0.05211 0.0
H391 H 0.21998 0.3087 0.03246 0.0
H392 H 0.32828 0.2405 0.02467 0.0
H393 H 0.4746 0.33755 0.94771 0.0
H394 H 0.41077 0.2884 0.97044 0.0
H395 H 0.30546 0.35225 0.98204 0.0
C396 C 0.20833 0.26841 0.03599 0.0
C397 C 0.32252 0.26429 0.01532 0.0
C398 C 0.16609 0.24219 0.0474 0.0
C399 C 0.45906 0.35783 0.95544 0.0
C400 C 0.42259 0.32971 0.96847 0.0
C401 C 0.31109 0.32818 0.99132 0.0
C402 C 0.23476 0.24294 0.02913 0.0
C403 C 0.27686 0.26982 0.01586 0.0
C404 C 0.39972 0.354 0.97827 0.0
C405 C 0.35711 0.32355 0.99098 0.0
H406 H 0.16529 0.12482 0.04984 0.0
H407 H 0.23832 0.17016 0.02958 0.0
H408 H 0.23633 0.30565 1.00313 0.0
H409 H 0.46301 0.47659 0.96043 0.0
H410 H 0.39992 0.42777 0.98286 0.0
C411 C 0.01078 0.18901 0.37935 0.0
C412 C 0.05279 0.19093 0.3889 0.0
C413 C 0.0193 0.2318 0.36927 0.0
C414 C 0.12168 0.34437 0.34532 0.0
H415 H 0.01097 0.38196 0.34295 0.0
C416 C 0.115 0.49482 0.29644 0.0
C417 C 0.06529 0.47234 0.28789 0.0
C418 C 0.12189 0.46861 0.3104 0.0
C419 C 0.04245 0.37219 0.34351 0.0
H420 H 0.13692 0.23967 0.39544 0.0
H421 H 0.15207 0.31485 0.37754 0.0
H422 H 0.00702 0.32167 0.36493 0.0
H423 H 0.98446 0.40402 0.28719 0.0
H424 H 0.9964 0.3597 0.31116 0.0
H425 H 0.15589 0.39385 0.32337 0.0
C426 C 0.11241 0.28 0.37798 0.0
C427 C 0.04011 0.33753 0.35608 0.0
C428 C 0.10364 0.23717 0.38831 0.0
C429 C 0.02329 0.42302 0.29343 0.0
C430 C 0.02995 0.3975 0.30731 0.0
C431 C 0.12404 0.37931 0.33266 0.0
C432 C 0.07025 0.27768 0.36831 0.0
C433 C 0.07855 0.32162 0.35679 0.0
C434 C 0.07892 0.42009 0.31613 0.0
C435 C 0.08329 0.39199 0.33127 0.0
H436 H 0.97117 0.15399 0.37946 0.0
H437 H 0.98609 0.22828 0.36182 0.0
H438 H 0.15188 0.33283 0.34552 0.0
H439 H 0.14819 0.53266 0.29248 0.0
H440 H 0.16021 0.48679 0.31693 0.0
loop_
_geom_bond_atom_site_label_1
_geom_bond_atom_site_label_2
_geom_bond_distance
_geom_bond_site_symmetry_2
_ccdc_geom_bond_type
Co0 O1 2.216 1_445 S
Co0 O2 2.091 . S
Co0 O4 2.004 . S
Co0 O10 2.026 1_455 S
Co0 O12 2.137 . S
Co0 O13 2.228 1_455 S
O1 Co0 2.216 1_665 S
O1 C8 1.247 1_655 S
O2 Co0 2.091 . S
O2 C8 1.261 1_545 S
C3 O12 1.247 . S
C3 O13 1.264 1_455 S
O4 Co0 2.004 . S
O4 C9 1.259 . S
Co5 O6 2.061 1_655 S
Co5 O11 2.052 . S
Co5 O13 2.141 . S
O6 Co5 2.061 1_455 S
O6 C9 1.235 . S
C7 O10 1.243 1_565 S
C7 O11 1.241 1_565 S
C8 O1 1.247 1_455 S
C8 O2 1.261 1_565 S
C9 O4 1.259 . S
C9 O6 1.235 . S
O10 Co0 2.026 1_655 S
O10 C7 1.243 1_545 S
O11 Co5 2.052 . S
O11 C7 1.241 1_545 S
O12 Co0 2.137 . S
O12 C3 1.247 . S
O13 Co0 2.228 1_655 S
O13 C3 1.264 1_655 S
O13 Co5 2.141 . S
Co14 O15 2.216 . S
Co14 O16 2.091 . S
Co14 O18 2.004 . S
Co14 O24 2.021 . S
Co14 O26 2.137 . S
Co14 O27 2.244 1_545 S
O15 Co14 2.216 . S
O15 C22 1.247 . S
O16 Co14 2.091 . S
O16 C22 1.261 . S
C17 O26 1.247 1_565 S
C17 O27 1.272 . S
O18 Co14 2.004 . S
O18 C23 1.259 . S
Co19 O20 2.061 1_665 S
Co19 O25 2.046 1_565 S
Co19 O27 2.135 1_655 S
O20 Co19 2.061 1_445 S
O20 C23 1.235 . S
C21 O24 1.238 1_655 S
C21 O25 1.248 . S
C22 O15 1.247 . S
C22 O16 1.261 . S
C23 O18 1.259 . S
C23 O20 1.235 . S
O24 Co14 2.021 . S
O24 C21 1.238 1_455 S
O25 Co19 2.046 1_545 S
O25 C21 1.248 . S
O26 Co14 2.137 . S
O26 C17 1.247 1_545 S
O27 Co14 2.244 1_565 S
O27 C17 1.272 . S
O27 Co19 2.135 1_455 S
Co28 O29 2.216 . S
Co28 O30 2.091 1_545 S
Co28 O32 2.004 1_445 S
Co28 O38 2.021 . S
Co28 O40 2.137 1_455 S
Co28 O41 2.244 1_455 S
O29 Co28 2.216 . S
O29 C36 1.247 . S
O30 Co28 2.091 1_565 S
O30 C36 1.261 1_565 S
C31 O40 1.247 . S
C31 O41 1.272 . S
O32 Co28 2.004 1_665 S
O32 C37 1.259 . S
Co33 O34 2.061 . S
Co33 O39 2.052 1_655 S
Co33 O41 2.135 . S
O34 Co33 2.061 . S
O34 C37 1.235 1_545 S
C35 O38 1.238 . S
C35 O39 1.241 . S
C36 O29 1.247 . S
C36 O30 1.261 1_545 S
C37 O32 1.259 . S
C37 O34 1.235 1_565 S
O38 Co28 2.021 . S
O38 C35 1.238 . S
O39 Co33 2.052 1_455 S
O39 C35 1.241 . S
O40 Co28 2.137 1_655 S
O40 C31 1.247 . S
O41 Co28 2.244 1_655 S
O41 C31 1.272 . S
O41 Co33 2.135 . S
Mg42 O49 2.141 . S
Mg42 O50 2.048 . S
Mg42 O51 2.048 . S
Mg42 O54 2.141 . S
C43 O44 1.313 1_455 S
C43 O50 1.195 . S
O44 C43 1.313 1_655 S
C45 O46 1.245 1_455 S
C45 O54 1.289 . S
O46 C45 1.245 1_655 S
C47 O48 1.245 1_455 S
C47 O49 1.289 . S
O48 C47 1.245 1_655 S
O49 Mg42 2.141 . S
O49 C47 1.289 . S
O50 Mg42 2.048 . S
O50 C43 1.195 . S
O51 Mg42 2.048 . S
O51 C52 1.195 . S
C52 O51 1.195 . S
C52 O53 1.313 1_455 S
O53 C52 1.313 1_655 S
O54 Mg42 2.141 . S
O54 C45 1.289 . S
Mg55 O62 2.141 . S
Mg55 O63 2.048 . S
Mg55 O64 2.048 . S
Mg55 O67 2.141 . S
C56 O57 1.313 1_545 S
C56 O63 1.195 . S
O57 C56 1.313 1_565 S
C58 O59 1.245 1_545 S
C58 O67 1.289 . S
O59 C58 1.245 1_565 S
C60 O61 1.245 1_545 S
C60 O62 1.289 . S
O61 C60 1.245 1_565 S
O62 Mg55 2.141 . S
O62 C60 1.289 . S
O63 Mg55 2.048 . S
O63 C56 1.195 . S
O64 Mg55 2.048 . S
O64 C65 1.195 . S
C65 O64 1.195 . S
C65 O66 1.313 1_545 S
O66 C65 1.313 1_565 S
O67 Mg55 2.141 . S
O67 C58 1.289 . S
Mg68 O75 2.141 . S
Mg68 O76 2.048 . S
Mg68 O77 2.048 . S
Mg68 O80 2.141 . S
C69 O70 1.313 . S
C69 O76 1.195 . S
O70 C69 1.313 . S
C71 O72 1.245 . S
C71 O80 1.289 . S
O72 C71 1.245 . S
C73 O74 1.245 . S
C73 O75 1.289 . S
O74 C73 1.245 . S
O75 Mg68 2.141 . S
O75 C73 1.289 . S
O76 Mg68 2.048 . S
O76 C69 1.195 . S
O77 Mg68 2.048 . S
O77 C78 1.195 . S
C78 O77 1.195 . S
C78 O79 1.313 . S
O79 C78 1.313 . S
O80 Mg68 2.141 . S
O80 C71 1.289 . S
C81 C82 1.349 . S
C81 C83 1.327 . S
C81 H106 0.950 . S
C82 C81 1.349 . S
C82 C98 1.349 . S
C83 C81 1.327 . S
C83 C102 1.429 . S
C83 H107 0.950 . S
C84 C101 1.574 . S
C84 C103 1.368 . S
C84 H108 0.949 . S
H85 C89 0.949 . S
C86 C87 1.349 . S
C86 C88 1.327 . S
C86 H109 0.950 . S
C87 C86 1.349 . S
C87 C99 1.349 . S
C88 C86 1.327 . S
C88 C104 1.429 . S
C88 H110 0.950 . S
C89 H85 0.949 . S
C89 C97 1.574 . S
C89 C105 1.368 . S
H90 C98 0.950 . S
H91 C96 0.950 . S
H92 C97 0.949 . S
H93 C99 0.950 . S
H94 C100 0.950 . S
H95 C101 0.949 . S
C96 H91 0.950 . S
C96 C98 1.327 . S
C96 C102 1.429 . S
C97 C89 1.574 . S
C97 H92 0.949 . S
C97 C103 1.368 . S
C98 C82 1.349 . S
C98 H90 0.950 . S
C98 C96 1.327 . S
C99 C87 1.349 . S
C99 H93 0.950 . S
C99 C100 1.327 . S
C100 H94 0.950 . S
C100 C99 1.327 . S
C100 C104 1.429 . S
C101 C84 1.574 . S
C101 H95 0.949 . S
C101 C105 1.368 . S
C102 C83 1.429 . S
C102 C96 1.429 . S
C102 C103 1.523 . S
C103 C84 1.368 . S
C103 C97 1.368 . S
C103 C102 1.523 . S
C104 C88 1.429 . S
C104 C100 1.429 . S
C104 C105 1.523 . S
C105 C89 1.368 . S
C105 C101 1.368 . S
C105 C104 1.523 . S
H106 C81 0.950 . S
H107 C83 0.950 . S
H108 C84 0.949 . S
H109 C86 0.950 . S
H110 C88 0.950 . S
C111 C112 1.349 . S
C111 C113 1.327 . S
C111 H136 0.950 1_545 S
C112 C111 1.349 . S
C112 C128 1.349 . S
C113 C111 1.327 . S
C113 C132 1.429 . S
C113 H137 0.950 1_545 S
C114 C131 1.574 . S
C114 C133 1.368 . S
C114 H138 0.949 . S
H115 C119 0.949 1_565 S
C116 C117 1.349 . S
C116 C118 1.327 . S
C116 H139 0.950 . S
C117 C116 1.349 . S
C117 C129 1.349 . S
C118 C116 1.327 . S
C118 C134 1.429 . S
C118 H140 0.950 . S
C119 H115 0.949 1_545 S
C119 C127 1.574 . S
C119 C135 1.368 . S
H120 C128 0.950 . S
H121 C126 0.950 . S
H122 C127 0.949 1_565 S
H123 C129 0.950 1_565 S
H124 C130 0.950 1_565 S
H125 C131 0.949 . S
C126 H121 0.950 . S
C126 C128 1.327 . S
C126 C132 1.429 . S
C127 C119 1.574 . S
C127 H122 0.949 1_545 S
C127 C133 1.368 . S
C128 C112 1.349 . S
C128 H120 0.950 . S
C128 C126 1.327 . S
C129 C117 1.349 . S
C129 H123 0.950 1_545 S
C129 C130 1.327 . S
C130 H124 0.950 1_545 S
C130 C129 1.327 . S
C130 C134 1.429 . S
C131 C114 1.574 . S
C131 H125 0.949 . S
C131 C135 1.368 . S
C132 C113 1.429 . S
C132 C126 1.429 . S
C132 C133 1.523 . S
C133 C114 1.368 . S
C133 C127 1.368 . S
C133 C132 1.523 . S
C134 C118 1.429 . S
C134 C130 1.429 . S
C134 C135 1.523 . S
C135 C119 1.368 . S
C135 C131 1.368 . S
C135 C134 1.523 . S
H136 C111 0.950 1_565 S
H137 C113 0.950 1_565 S
H138 C114 0.949 . S
H139 C116 0.950 . S
H140 C118 0.950 . S
C141 C142 1.349 . S
C141 C143 1.327 . S
C141 H166 0.950 . S
C142 C141 1.349 . S
C142 C158 1.349 . S
C143 C141 1.327 . S
C143 C162 1.429 . S
C143 H167 0.950 . S
C144 C161 1.574 . S
C144 C163 1.368 . S
C144 H168 0.949 . S
H145 C149 0.949 . S
C146 C147 1.349 . S
C146 C148 1.327 . S
C146 H169 0.950 . S
C147 C146 1.349 . S
C147 C159 1.349 . S
C148 C146 1.327 . S
C148 C164 1.429 . S
C148 H170 0.950 . S
C149 H145 0.949 . S
C149 C157 1.574 . S
C149 C165 1.368 . S
H150 C158 0.950 . S
H151 C156 0.950 . S
H152 C157 0.949 . S
H153 C159 0.950 . S
H154 C160 0.950 . S
H155 C161 0.949 . S
C156 H151 0.950 . S
C156 C158 1.327 . S
C156 C162 1.429 . S
C157 C149 1.574 . S
C157 H152 0.949 . S
C157 C163 1.368 . S
C158 C142 1.349 . S
C158 H150 0.950 . S
C158 C156 1.327 . S
C159 C147 1.349 . S
C159 H153 0.950 . S
C159 C160 1.327 . S
C160 H154 0.950 . S
C160 C159 1.327 . S
C160 C164 1.429 . S
C161 C144 1.574 . S
C161 H155 0.949 . S
C161 C165 1.368 . S
C162 C143 1.429 . S
C162 C156 1.429 . S
C162 C163 1.523 . S
C163 C144 1.368 . S
C163 C157 1.368 . S
C163 C162 1.523 . S
C164 C148 1.429 . S
C164 C160 1.429 . S
C164 C165 1.523 . S
C165 C149 1.368 . S
C165 C161 1.368 . S
C165 C164 1.523 . S
H166 C141 0.950 . S
H167 C143 0.950 . S
H168 C144 0.949 . S
H169 C146 0.950 . S
H170 C148 0.950 . S
C171 C172 1.349 . S
C171 C173 1.327 . S
C171 H196 0.950 1_455 S
C172 C171 1.349 . S
C172 C188 1.349 . S
C173 C171 1.327 . S
C173 C192 1.429 . S
C173 H197 0.950 1_455 S
C174 C191 1.574 . S
C174 C193 1.368 . S
C174 H198 0.949 . S
H175 C179 0.949 . S
C176 C177 1.349 . S
C176 C178 1.327 . S
C176 H199 0.950 . S
C177 C176 1.349 . S
C177 C189 1.349 1_455 S
C178 C176 1.327 . S
C178 C194 1.429 . S
C178 H200 0.950 . S
C179 H175 0.949 . S
C179 C187 1.574 . S
C179 C195 1.368 1_655 S
H180 C188 0.950 . S
H181 C186 0.950 . S
H182 C187 0.949 . S
H183 C189 0.950 . S
H184 C190 0.950 . S
H185 C191 0.949 . S
C186 H181 0.950 . S
C186 C188 1.327 . S
C186 C192 1.429 . S
C187 C179 1.574 . S
C187 H182 0.949 . S
C187 C193 1.368 1_655 S
C188 C172 1.349 . S
C188 H180 0.950 . S
C188 C186 1.327 . S
C189 C177 1.349 1_655 S
C189 H183 0.950 . S
C189 C190 1.327 . S
C190 H184 0.950 . S
C190 C189 1.327 . S
C190 C194 1.429 1_655 S
C191 C174 1.574 . S
C191 H185 0.949 . S
C191 C195 1.368 . S
C192 C173 1.429 . S
C192 C186 1.429 . S
C192 C193 1.523 . S
C193 C174 1.368 . S
C193 C187 1.368 1_455 S
C193 C192 1.523 . S
C194 C178 1.429 . S
C194 C190 1.429 1_455 S
C194 C195 1.523 . S
C195 C179 1.368 1_455 S
C195 C191 1.368 . S
C195 C194 1.523 . S
H196 C171 0.950 1_655 S
H197 C173 0.950 1_655 S
H198 C174 0.949 . S
H199 C176 0.950 . S
H200 C178 0.950 . S
C201 C202 1.349 . S
C201 C203 1.327 . S
C201 H226 0.950 . S
C202 C201 1.349 . S
C202 C218 1.349 . S
C203 C201 1.327 . S
C203 C222 1.429 . S
C203 H227 0.950 . S
C204 C221 1.574 . S
C204 C223 1.368 . S
C204 H228 0.949 . S
H205 C209 0.941 1_565 S
C206 C207 1.349 . S
C206 C208 1.327 . S
C206 H229 0.950 . S
C207 C206 1.349 . S
C207 C219 1.349 . S
C208 C206 1.327 . S
C208 C224 1.429 . S
C208 H230 0.950 . S
C209 H205 0.941 1_545 S
C209 C217 1.574 . S
C209 C225 1.368 . S
H210 C218 0.950 . S
H211 C216 0.950 . S
H212 C217 0.949 . S
H213 C219 0.950 1_565 S
H214 C220 0.950 1_565 S
H215 C221 0.949 . S
C216 H211 0.950 . S
C216 C218 1.327 . S
C216 C222 1.429 . S
C217 C209 1.574 . S
C217 H212 0.949 . S
C217 C223 1.368 . S
C218 C202 1.349 . S
C218 H210 0.950 . S
C218 C216 1.327 . S
C219 C207 1.349 . S
C219 H213 0.950 1_545 S
C219 C220 1.327 . S
C220 H214 0.950 1_545 S
C220 C219 1.327 . S
C220 C224 1.429 . S
C221 C204 1.574 . S
C221 H215 0.949 . S
C221 C225 1.368 . S
C222 C203 1.429 . S
C222 C216 1.429 . S
C222 C223 1.523 . S
C223 C204 1.368 . S
C223 C217 1.368 . S
C223 C222 1.523 . S
C224 C208 1.429 . S
C224 C220 1.429 . S
C224 C225 1.523 . S
C225 C209 1.368 . S
C225 C221 1.368 . S
C225 C224 1.523 . S
H226 C201 0.950 . S
H227 C203 0.950 . S
H228 C204 0.949 . S
H229 C206 0.950 . S
H230 C208 0.950 . S
C231 C232 1.349 . S
C231 C233 1.327 . S
C231 H256 0.950 . S
C232 C231 1.349 . S
C232 C248 1.349 . S
C233 C231 1.327 . S
C233 C252 1.429 . S
C233 H257 0.950 . S
C234 C251 1.574 . S
C234 C253 1.368 . S
C234 H258 0.949 . S
H235 C239 0.949 . S
C236 C237 1.349 . S
C236 C238 1.327 . S
C236 H259 0.950 . S
C237 C236 1.349 . S
C237 C249 1.349 . S
C238 C236 1.327 . S
C238 C254 1.429 . S
C238 H260 0.950 . S
C239 H235 0.949 . S
C239 C247 1.574 . S
C239 C255 1.368 . S
H240 C248 0.950 . S
H241 C246 0.950 . S
H242 C247 0.949 . S
H243 C249 0.950 . S
H244 C250 0.950 . S
H245 C251 0.949 . S
C246 H241 0.950 . S
C246 C248 1.327 . S
C246 C252 1.429 . S
C247 C239 1.574 . S
C247 H242 0.949 . S
C247 C253 1.368 . S
C248 C232 1.349 . S
C248 H240 0.950 . S
C248 C246 1.327 . S
C249 C237 1.349 . S
C249 H243 0.950 . S
C249 C250 1.327 . S
C250 H244 0.950 . S
C250 C249 1.327 . S
C250 C254 1.429 . S
C251 C234 1.574 . S
C251 H245 0.949 . S
C251 C255 1.368 . S
C252 C233 1.429 . S
C252 C246 1.429 . S
C252 C253 1.523 . S
C253 C234 1.368 . S
C253 C247 1.368 . S
C253 C252 1.523 . S
C254 C238 1.429 . S
C254 C250 1.429 . S
C254 C255 1.523 . S
C255 C239 1.368 . S
C255 C251 1.368 . S
C255 C254 1.523 . S
H256 C231 0.950 . S
H257 C233 0.950 . S
H258 C234 0.949 . S
H259 C236 0.950 . S
H260 C238 0.950 . S
C261 C262 1.349 . S
C261 C263 1.327 . S
C261 H286 0.950 . S
C262 C261 1.349 . S
C262 C278 1.349 . S
C263 C261 1.327 . S
C263 C282 1.429 . S
C263 H287 0.950 . S
C264 C281 1.574 . S
C264 C283 1.368 . S
C264 H288 0.949 1_545 S
H265 C269 0.949 . S
C266 C267 1.349 . S
C266 C268 1.327 . S
C266 H289 0.950 1_545 S
C267 C266 1.349 . S
C267 C279 1.349 . S
C268 C266 1.327 . S
C268 C284 1.429 . S
C268 H290 0.950 1_545 S
C269 H265 0.949 . S
C269 C277 1.574 . S
C269 C285 1.368 . S
H270 C278 0.950 1_565 S
H271 C276 0.950 1_565 S
H272 C277 0.949 . S
H273 C279 0.950 . S
H274 C280 0.950 . S
H275 C281 0.949 1_565 S
C276 H271 0.950 1_545 S
C276 C278 1.327 . S
C276 C282 1.429 . S
C277 C269 1.574 . S
C277 H272 0.949 . S
C277 C283 1.368 . S
C278 C262 1.349 . S
C278 H270 0.950 1_545 S
C278 C276 1.327 . S
C279 C267 1.349 . S
C279 H273 0.950 . S
C279 C280 1.327 . S
C280 H274 0.950 . S
C280 C279 1.327 . S
C280 C284 1.429 . S
C281 C264 1.574 . S
C281 H275 0.949 1_545 S
C281 C285 1.368 . S
C282 C263 1.429 . S
C282 C276 1.429 . S
C282 C283 1.523 . S
C283 C264 1.368 . S
C283 C277 1.368 . S
C283 C282 1.523 . S
C284 C268 1.429 . S
C284 C280 1.429 . S
C284 C285 1.523 . S
C285 C269 1.368 . S
C285 C281 1.368 . S
C285 C284 1.523 . S
H286 C261 0.950 . S
H287 C263 0.950 . S
H288 C264 0.949 1_565 S
H289 C266 0.950 1_565 S
H290 C268 0.950 1_565 S
C291 C292 1.349 . S
C291 C293 1.327 . S
C291 H316 0.950 . S
C292 C291 1.349 . S
C292 C308 1.349 . S
C293 C291 1.327 . S
C293 C312 1.429 . S
C293 H317 0.950 . S
C294 C311 1.574 . S
C294 C313 1.368 1_556 S
C294 H318 0.949 . S
H295 C299 0.949 . S
C296 C297 1.349 . S
C296 C298 1.327 . S
C296 H319 0.950 . S
C297 C296 1.349 . S
C297 C309 1.349 . S
C298 C296 1.327 . S
C298 C314 1.429 . S
C298 H320 0.950 . S
C299 H295 0.949 . S
C299 C307 1.574 1_556 S
C299 C315 1.368 . S
H300 C308 0.950 . S
H301 C306 0.950 . S
H302 C307 0.949 . S
H303 C309 0.950 . S
H304 C310 0.950 . S
H305 C311 0.949 . S
C306 H301 0.950 . S
C306 C308 1.327 . S
C306 C312 1.429 . S
C307 C299 1.574 1_554 S
C307 H302 0.949 . S
C307 C313 1.368 . S
C308 C292 1.349 . S
C308 H300 0.950 . S
C308 C306 1.327 . S
C309 C297 1.349 . S
C309 H303 0.950 . S
C309 C310 1.327 . S
C310 H304 0.950 . S
C310 C309 1.327 . S
C310 C314 1.429 . S
C311 C294 1.574 . S
C311 H305 0.949 . S
C311 C315 1.368 . S
C312 C293 1.429 . S
C312 C306 1.429 . S
C312 C313 1.523 . S
C313 C294 1.368 1_554 S
C313 C307 1.368 . S
C313 C312 1.523 . S
C314 C298 1.429 . S
C314 C310 1.429 . S
C314 C315 1.523 . S
C315 C299 1.368 . S
C315 C311 1.368 . S
C315 C314 1.523 . S
H316 C291 0.950 . S
H317 C293 0.950 . S
H318 C294 0.949 . S
H319 C296 0.950 . S
H320 C298 0.950 . S
C321 C322 1.356 . S
C321 C323 1.331 1_455 S
C321 H346 0.939 1_455 S
C322 C321 1.356 . S
C322 C338 1.349 . S
C323 C321 1.331 1_655 S
C323 C342 1.429 1_655 S
C323 H347 0.950 . S
C324 C341 1.574 . S
C324 C343 1.368 . S
C324 H348 0.949 . S
H325 C329 0.949 . S
C326 C327 1.349 . S
C326 C328 1.327 . S
C326 H349 0.950 . S
C327 C326 1.349 . S
C327 C339 1.349 1_455 S
C328 C326 1.327 . S
C328 C344 1.429 . S
C328 H350 0.950 . S
C329 H325 0.949 . S
C329 C337 1.574 . S
C329 C345 1.368 1_655 S
H330 C338 0.950 . S
H331 C336 0.950 . S
H332 C337 0.949 . S
H333 C339 0.950 . S
H334 C340 0.950 . S
H335 C341 0.949 . S
C336 H331 0.950 . S
C336 C338 1.327 . S
C336 C342 1.429 . S
C337 C329 1.574 . S
C337 H332 0.949 . S
C337 C343 1.368 1_655 S
C338 C322 1.349 . S
C338 H330 0.950 . S
C338 C336 1.327 . S
C339 C327 1.349 1_655 S
C339 H333 0.950 . S
C339 C340 1.327 . S
C340 H334 0.950 . S
C340 C339 1.327 . S
C340 C344 1.429 1_655 S
C341 C324 1.574 . S
C341 H335 0.949 . S
C341 C345 1.368 . S
C342 C323 1.429 1_455 S
C342 C336 1.429 . S
C342 C343 1.523 . S
C343 C324 1.368 . S
C343 C337 1.368 1_455 S
C343 C342 1.523 . S
C344 C328 1.429 . S
C344 C340 1.429 1_455 S
C344 C345 1.523 . S
C345 C329 1.368 1_455 S
C345 C341 1.368 . S
C345 C344 1.523 . S
H346 C321 0.939 1_655 S
H347 C323 0.950 . S
H348 C324 0.949 . S
H349 C326 0.950 . S
H350 C328 0.950 . S
C351 C352 1.349 . S
C351 C353 1.327 . S
C351 H376 0.950 . S
C352 C351 1.349 . S
C352 C368 1.349 1_545 S
C353 C351 1.327 . S
C353 C372 1.429 . S
C353 H377 0.950 . S
C354 C371 1.574 . S
C354 C373 1.368 1_565 S
C354 H378 0.949 . S
H355 C359 0.949 . S
C356 C357 1.349 . S
C356 C358 1.327 . S
C356 H379 0.950 1_545 S
C357 C356 1.349 . S
C357 C369 1.349 . S
C358 C356 1.327 . S
C358 C374 1.429 . S
C358 H380 0.950 1_545 S
C359 H355 0.949 . S
C359 C367 1.574 . S
C359 C375 1.368 . S
H360 C368 0.950 . S
H361 C366 0.950 . S
H362 C367 0.949 . S
H363 C369 0.950 . S
H364 C370 0.950 . S
H365 C371 0.949 . S
C366 H361 0.950 . S
C366 C368 1.327 . S
C366 C372 1.429 1_565 S
C367 C359 1.574 . S
C367 H362 0.949 . S
C367 C373 1.368 . S
C368 C352 1.349 1_565 S
C368 H360 0.950 . S
C368 C366 1.327 . S
C369 C357 1.349 . S
C369 H363 0.950 . S
C369 C370 1.327 . S
C370 H364 0.950 . S
C370 C369 1.327 . S
C370 C374 1.429 . S
C371 C354 1.574 . S
C371 H365 0.949 . S
C371 C375 1.368 1_565 S
C372 C353 1.429 . S
C372 C366 1.429 1_545 S
C372 C373 1.523 . S
C373 C354 1.368 1_545 S
C373 C367 1.368 . S
C373 C372 1.523 . S
C374 C358 1.429 . S
C374 C370 1.429 . S
C374 C375 1.523 . S
C375 C359 1.368 . S
C375 C371 1.368 1_545 S
C375 C374 1.523 . S
H376 C351 0.950 . S
H377 C353 0.950 . S
H378 C354 0.949 . S
H379 C356 0.950 1_565 S
H380 C358 0.950 1_565 S
C381 C382 1.349 . S
C381 C383 1.327 . S
C381 H406 0.950 . S
C382 C381 1.349 . S
C382 C398 1.349 . S
C383 C381 1.327 . S
C383 C402 1.429 . S
C383 H407 0.950 . S
C384 C401 1.574 1_554 S
C384 C403 1.368 . S
C384 H408 0.949 . S
H385 C389 0.949 . S
C386 C387 1.349 . S
C386 C388 1.327 . S
C386 H409 0.950 . S
C387 C386 1.349 . S
C387 C399 1.349 . S
C388 C386 1.327 . S
C388 C404 1.429 . S
C388 H410 0.950 . S
C389 H385 0.949 . S
C389 C397 1.574 . S
C389 C405 1.368 . S
H390 C398 0.950 . S
H391 C396 0.950 . S
H392 C397 0.949 . S
H393 C399 0.950 . S
H394 C400 0.950 . S
H395 C401 0.949 . S
C396 H391 0.950 . S
C396 C398 1.327 . S
C396 C402 1.429 . S
C397 C389 1.574 . S
C397 H392 0.949 . S
C397 C403 1.368 1_556 S
C398 C382 1.349 . S
C398 H390 0.950 . S
C398 C396 1.327 . S
C399 C387 1.349 . S
C399 H393 0.950 . S
C399 C400 1.327 . S
C400 H394 0.950 . S
C400 C399 1.327 . S
C400 C404 1.429 . S
C401 C384 1.574 1_556 S
C401 H395 0.949 . S
C401 C405 1.368 . S
C402 C383 1.429 . S
C402 C396 1.429 . S
C402 C403 1.523 . S
C403 C384 1.368 . S
C403 C397 1.368 1_554 S
C403 C402 1.523 . S
C404 C388 1.429 . S
C404 C400 1.429 . S
C404 C405 1.523 . S
C405 C389 1.368 . S
C405 C401 1.368 . S
C405 C404 1.523 . S
H406 C381 0.950 . S
H407 C383 0.950 . S
H408 C384 0.949 . S
H409 C386 0.950 . S
H410 C388 0.950 . S
C411 C412 1.349 1_655 S
C411 C413 1.327 . S
C411 H436 0.950 . S
C412 C411 1.349 1_455 S
C412 C428 1.349 . S
C413 C411 1.327 . S
C413 C432 1.429 1_655 S
C413 H437 0.950 . S
C414 C431 1.574 . S
C414 C433 1.368 . S
C414 H438 0.949 . S
H415 C419 0.949 . S
C416 C417 1.349 . S
C416 C418 1.327 . S
C416 H439 0.950 . S
C417 C416 1.349 . S
C417 C429 1.349 1_455 S
C418 C416 1.327 . S
C418 C434 1.429 . S
C418 H440 0.950 . S
C419 H415 0.949 . S
C419 C427 1.574 . S
C419 C435 1.368 1_655 S
H420 C428 0.950 . S
H421 C426 0.950 . S
H422 C427 0.949 . S
H423 C429 0.950 . S
H424 C430 0.950 . S
H425 C431 0.949 . S
C426 H421 0.950 . S
C426 C428 1.327 . S
C426 C432 1.429 . S
C427 C419 1.574 . S
C427 H422 0.949 . S
C427 C433 1.368 1_655 S
C428 C412 1.349 . S
C428 H420 0.950 . S
C428 C426 1.327 . S
C429 C417 1.349 1_655 S
C429 H423 0.950 . S
C429 C430 1.327 . S
C430 H424 0.950 . S
C430 C429 1.327 . S
C430 C434 1.429 1_655 S
C431 C414 1.574 . S
C431 H425 0.949 . S
C431 C435 1.368 . S
C432 C413 1.429 1_455 S
C432 C426 1.429 . S
C432 C433 1.523 . S
C433 C414 1.368 . S
C433 C427 1.368 1_455 S
C433 C432 1.523 . S
C434 C418 1.429 . S
C434 C430 1.429 1_455 S
C434 C435 1.523 . S
C435 C419 1.368 1_455 S
C435 C431 1.368 . S
C435 C434 1.523 . S
H436 C411 0.950 . S
H437 C413 0.950 . S
H438 C414 0.949 . S
H439 C416 0.950 . S
H440 C418 0.950 . S
C87 C47 1.404 . S
C82 C3 1.407 . S
C112 C21 1.497 . S
C117 C65 1.518 . S
C142 C37 1.477 . S
C147 C78 1.489 . S
C172 C8 1.409 . S
C177 C45 1.403 . S
C207 C56 1.484 . S
C202 C23 1.466 . S
C232 C35 1.470 . S
C237 C69 1.489 . S
C267 C58 1.402 . S
C262 C31 1.405 . S
C292 C7 1.393 . S
C297 C71 1.406 . S
C327 C52 1.483 . S
C322 C17 1.482 . S
C357 C60 1.360 . S
C352 C36 1.368 . S
C387 C73 1.408 . S
C382 C9 1.402 . S
C412 C22 1.481 . S
C417 C43 1.479 . S
