# Generated by pormake.
# Topology tsx, (6,3)-cn, num edge types: 1
# Building blocks:
#     Node 0, Type 0, BuildingBlock: MIDCAF_clean_sbu_0, # of connection points: 6
#     Node 1, Type 0, BuildingBlock: MIDCAF_clean_sbu_0, # of connection points: 6
#     Node 2, Type 1, BuildingBlock: WUSLED_clean_sbu_0, # of connection points: 3
#     Node 3, Type 1, BuildingBlock: WUSLED_clean_sbu_0, # of connection points: 3
#     Node 4, Type 1, BuildingBlock: WUSLED_clean_sbu_0, # of connection points: 3
#     Node 5, Type 1, BuildingBlock: WUSLED_clean_sbu_0, # of connection points: 3
#     Edge 6, Type (0, 1), BuildingBlock: EZIPEK_clean_linker_0, # of connection points: 2
#     Edge 7, Type (0, 1), BuildingBlock: EZIPEK_clean_linker_0, # of connection points: 2
#     Edge 8, Type (0, 1), BuildingBlock: EZIPEK_clean_linker_0, # of connection points: 2
#     Edge 9, Type (0, 1), BuildingBlock: EZIPEK_clean_linker_0, # of connection points: 2
#     Edge 10, Type (0, 1), BuildingBlock: EZIPEK_clean_linker_0, # of connection points: 2
#     Edge 11, Type (0, 1), BuildingBlock: EZIPEK_clean_linker_0, # of connection points: 2
#     Edge 12, Type (0, 1), BuildingBlock: EZIPEK_clean_linker_0, # of connection points: 2
#     Edge 13, Type (0, 1), BuildingBlock: EZIPEK_clean_linker_0, # of connection points: 2
#     Edge 14, Type (0, 1), BuildingBlock: EZIPEK_clean_linker_0, # of connection points: 2
#     Edge 15, Type (0, 1), BuildingBlock: EZIPEK_clean_linker_0, # of connection points: 2
#     Edge 16, Type (0, 1), BuildingBlock: EZIPEK_clean_linker_0, # of connection points: 2
#     Edge 17, Type (0, 1), BuildingBlock: EZIPEK_clean_linker_0, # of connection points: 2
# Relax obj value: 0.113
# Max RMSD: 0.179
# Mean RMSD: 0.109
data_MOF--net-tsx--node1-MIDCAF_clean_sbu_0--node2-WUSLED_clean_sbu_0--edge1-EZIPEK_clean_linker_0
_symmetry_space_group_name_H-M    P1
_symmetry_Int_Tables_number       1
_symmetry_cell_setting            triclinic
loop_
_symmetry_equiv_pos_as_xyz
'x, y, z'
_cell_length_a     19.138104
_cell_length_b     20.994994
_cell_length_c     38.98633
_cell_angle_alpha  90.970435
_cell_angle_beta   96.060338
_cell_angle_gamma 90.654131
loop_
_atom_site_label
_atom_site_type_symbol
_atom_site_fract_x
_atom_site_fract_y
_atom_site_fract_z
_atom_type_partial_charge
Zn0 Zn 0.97178 1.00153 0.01167 0.0
Zn1 Zn 0.19588 1.00207 0.06706 0.0
Zn2 Zn 0.08726 0.00568 0.03087 0.0
C3 C 0.19988 0.10885 0.022 0.0
C4 C 0.19026 0.888 0.02815 0.0
O5 O 0.05219 0.90538 0.02102 0.0
O6 O 0.94758 0.92493 0.03724 0.0
C7 C 0.99878 0.12694 0.01447 0.0
O8 O 0.14081 0.0855 1.0079 0.0
O9 O 0.23177 0.08264 0.04799 0.0
O10 O 0.23176 0.91916 0.0498 0.0
O11 O 0.1291 0.91063 0.01865 0.0
O12 O 0.95186 0.09213 0.02557 0.0
O13 O 0.05614 0.10016 1.00744 0.0
O14 O 0.084 0.05304 0.98099 0.0
O15 O 0.99718 0.98818 0.96186 0.0
C16 C 0.0475 0.02428 0.95541 0.0
O17 O 0.04862 0.02768 0.07842 0.0
O18 O 0.14748 0.00902 0.11066 0.0
C19 C 0.99434 0.88533 0.03149 0.0
C20 C 0.08306 0.02331 0.10801 0.0
Zn21 Zn 0.69952 0.54272 0.55703 0.0
Zn22 Zn 0.48206 0.54568 0.47859 0.0
Zn23 Zn 0.59205 0.54727 0.51662 0.0
C24 C 0.58403 0.51143 0.43725 0.0
C25 C 0.50096 0.669 0.50084 0.0
O26 O 0.55298 0.52377 0.56702 0.0
O27 O 0.65016 0.55063 0.59922 0.0
C28 C 0.71148 0.44691 0.51001 0.0
O29 O 0.61601 0.50185 0.46746 0.0
O30 O 0.5254 0.53886 0.43435 0.0
O31 O 0.44992 0.63109 0.49279 0.0
O32 O 0.56341 0.64722 0.50747 0.0
O33 O 0.73222 0.45868 0.5413 0.0
O34 O 0.66379 0.48127 0.49391 0.0
O35 O 0.63365 0.64587 0.52247 0.0
O36 O 0.74287 0.62336 0.54203 0.0
C37 C 0.69793 0.66361 0.53073 0.0
O38 O 0.52058 0.48319 0.54147 0.0
O39 O 0.44462 0.46522 0.49635 0.0
C40 C 0.58467 0.54016 0.59678 0.0
C41 C 0.47175 0.44757 0.52548 0.0
C42 C 0.97807 0.14047 0.47351 0.0
C43 C 0.98324 0.18248 0.50202 0.0
C44 C 0.87616 0.23446 0.47862 0.0
C45 C 0.9325 0.22931 0.50455 0.0
C46 C 0.86969 0.19119 0.4507 0.0
C47 C 0.92056 0.14473 0.44804 0.0
U48 U 0.07522 0.05618 0.40949 0.0
O49 O 0.18776 0.04453 0.40445 0.0
O50 O 0.11885 0.96016 0.40548 0.0
C51 C 0.18344 0.98198 0.40507 0.0
C52 C 1.03631 0.09773 0.46799 0.0
C53 C 0.23845 0.94849 0.42695 0.0
C54 C 0.33712 0.94635 0.47193 0.0
C55 C 0.2826 0.97958 0.45342 0.0
C56 C 0.30323 0.85097 0.43806 0.0
C57 C 0.34774 0.88185 0.46417 0.0
C58 C 0.24922 0.88397 0.41962 0.0
C59 C 1.00311 0.08189 0.3159 0.0
C60 C 0.0542 0.03068 0.26841 0.0
C61 C 0.96277 0.10898 0.25691 0.0
C62 C 0.95895 0.11671 0.29233 0.0
C63 C 1.01084 0.06629 0.24485 0.0
C64 C 0.05046 0.0385 0.30381 0.0
C65 C 1.00066 0.09245 0.35297 0.0
O66 O 1.01765 0.04124 0.45472 0.0
O67 O 0.08708 0.12486 0.45302 0.0
O68 O 0.05331 0.12618 0.36856 0.0
O69 O 0.98491 0.04199 0.37024 0.0
H70 H 1.02758 0.18034 0.52168 0.0
H71 H 0.93793 0.26242 0.52631 0.0
H72 H 0.82647 0.19463 0.43053 0.0
H73 H 0.91614 0.1134 0.42553 0.0
H74 H 0.37115 0.97082 0.49203 0.0
H75 H 0.27552 0.02944 0.45954 0.0
H76 H 0.31076 0.80121 0.43176 0.0
H77 H 0.21625 0.85918 0.39921 0.0
H78 H 0.09178 0.99781 0.25938 0.0
H79 H 0.92929 0.13695 0.23895 0.0
H80 H 0.92225 0.15045 0.30136 0.0
H81 H 0.08502 0.01143 0.32175 0.0
C82 C 0.95225 0.99225 0.57146 0.0
C83 C 0.93585 0.94352 0.59364 0.0
C84 C 0.85084 0.89786 0.54893 0.0
C85 C 0.88579 0.89666 0.58242 0.0
C86 C 0.86534 0.94785 0.52707 0.0
C87 C 0.91605 0.99461 0.53825 0.0
U88 U 0.06337 0.07822 0.64431 0.0
O89 O 0.17624 0.10034 0.65286 0.0
O90 O 0.10028 0.17814 0.6511 0.0
C91 C 0.16685 0.16229 0.65285 0.0
C92 C 1.0075 0.03988 0.5829 0.0
C93 C 0.21234 0.20027 0.63233 0.0
C94 C 0.2981 0.20788 0.59066 0.0
C95 C 0.25143 0.1715 0.60781 0.0
C96 C 0.26672 0.30253 0.62169 0.0
C97 C 0.30611 0.27357 0.59752 0.0
C98 C 0.22044 0.26605 0.63907 0.0
C99 C 1.03045 0.03522 0.73656 0.0
C100 C 0.06221 0.09875 0.78879 0.0
C101 C 1.03064 0.98715 0.79278 0.0
C102 C 1.02053 0.982 0.75683 0.0
C103 C 0.05065 0.04567 0.80896 0.0
C104 C 0.05247 0.0935 0.75273 0.0
C105 C 1.01547 0.02901 0.69881 0.0
O106 O 0.98621 0.09068 0.59878 0.0
O107 O 0.06578 0.01647 0.59837 0.0
O108 O 0.06469 1.00222 0.68265 0.0
O109 O 0.98759 0.07884 0.68289 0.0
H110 H 0.96257 0.94119 0.61951 0.0
H111 H 0.87508 0.85872 0.5997 0.0
H112 H 0.83861 0.94974 0.50121 0.0
H113 H 0.92756 0.03213 0.52087 0.0
H114 H 0.32782 0.1849 0.57189 0.0
H115 H 0.24653 0.12089 0.60209 0.0
H116 H 0.27206 0.35322 0.62715 0.0
H117 H 0.19137 0.28914 0.65807 0.0
H118 H 0.07742 0.14429 0.80097 0.0
H119 H 1.02122 0.94587 0.80803 0.0
H120 H 1.00372 0.93667 0.74482 0.0
H121 H 0.06087 0.1351 0.73754 0.0
C122 C 0.45012 0.58895 0.96614 0.0
C123 C 0.45916 0.65519 0.96284 0.0
C124 C 0.34615 0.67465 0.98406 0.0
C125 C 0.40769 0.69744 0.97165 0.0
C126 C 0.33626 0.60866 0.98705 0.0
C127 C 0.38794 0.56621 0.97833 0.0
U128 U 0.55012 0.49893 0.90091 0.0
O129 O 0.66366 0.48595 0.89896 0.0
O130 O 0.5942 0.40243 0.90055 0.0
C131 C 0.65934 0.42361 0.90119 0.0
C132 C 0.50589 0.54394 0.95794 0.0
C133 C 0.71417 0.39171 0.92464 0.0
C134 C 0.83506 0.38804 0.95195 0.0
C135 C 0.77988 0.42156 0.93422 0.0
C136 C 0.75996 0.29448 0.95162 0.0
C137 C 0.82578 0.32393 0.96025 0.0
C138 C 0.70483 0.32787 0.93389 0.0
C139 C 0.48692 0.52655 0.80495 0.0
C140 C 0.54569 0.48765 0.75656 0.0
C141 C 0.44817 0.56018 0.74682 0.0
C142 C 0.44093 0.56108 0.7821 0.0
C143 C 0.50143 0.52452 0.73391 0.0
C144 C 0.53858 0.48878 0.79198 0.0
C145 C 0.48272 0.53438 0.8422 0.0
O146 O 0.48462 0.4887 0.94387 0.0
O147 O 0.55923 0.56867 0.94385 0.0
O148 O 0.53404 0.56787 0.85912 0.0
O149 O 0.46539 0.48341 0.85865 0.0
H150 H 0.50635 0.67471 0.95377 0.0
H151 H 0.41638 0.7482 0.96929 0.0
H152 H 0.28915 0.59019 0.9967 0.0
H153 H 0.37952 0.51561 0.98141 0.0
H154 H 0.88553 0.41154 0.9584 0.0
H155 H 0.78949 0.47025 0.92706 0.0
H156 H 0.75187 0.24499 0.95776 0.0
H157 H 0.65557 0.30293 0.92644 0.0
H158 H 0.58756 0.46043 0.74702 0.0
H159 H 0.41409 0.58934 0.72976 0.0
H160 H 0.40088 0.59055 0.79171 0.0
H161 H 0.57467 0.46201 0.80934 0.0
C162 C 0.50025 0.3967 0.05797 0.0
C163 C 0.47566 0.34934 0.07884 0.0
C164 C 0.38687 0.3162 0.03237 0.0
C165 C 0.41949 0.30938 0.0661 0.0
C166 C 0.41044 0.36446 0.01172 0.0
C167 C 0.46694 0.40429 0.02447 0.0
U168 U 0.62525 0.4707 0.13154 0.0
O169 O 0.73938 0.4888 0.13529 0.0
O170 O 0.66722 0.56867 0.13874 0.0
C171 C 0.73248 0.55101 0.13703 0.0
C172 C 0.56059 0.43815 0.07073 0.0
C173 C 0.77486 0.59046 0.11551 0.0
C174 C 0.8602 0.60233 0.07362 0.0
C175 C 0.81624 0.56353 0.0913 0.0
C176 C 0.82149 0.69523 0.10368 0.0
C177 C 0.86322 0.66845 0.07985 0.0
C178 C 0.77791 0.65666 0.12135 0.0
C179 C 0.5961 0.43216 0.22538 0.0
C180 C 0.67518 0.46177 0.27644 0.0
C181 C 0.55475 0.43062 0.28223 0.0
C182 C 0.54257 0.42079 0.24654 0.0
C183 C 0.62076 0.45198 0.29744 0.0
C184 C 0.6628 0.45229 0.24056 0.0
C185 C 0.57974 0.42494 0.18764 0.0
O186 O 0.54533 0.48949 0.08802 0.0
O187 O 0.61635 0.40888 0.08509 0.0
O188 O 0.62676 0.39622 0.17077 0.0
O189 O 0.55319 0.47538 0.1719 0.0
H190 H 0.50023 0.343 0.10487 0.0
H191 H 0.4017 0.27269 0.08249 0.0
H192 H 0.38563 0.37079 0.98574 0.0
H193 H 0.485 0.44083 1.00814 0.0
H194 H 0.89227 0.58086 0.05538 0.0
H195 H 0.81552 0.5126 0.08639 0.0
H196 H 0.82332 0.74611 0.1089 0.0
H197 H 0.74735 0.67858 0.14012 0.0
H198 H 0.72644 0.47835 0.28773 0.0
H199 H 0.51212 0.42288 0.29796 0.0
H200 H 0.49078 0.40535 0.23534 0.0
H201 H 0.70478 0.46161 0.22466 0.0
C202 C 0.21424 0.22655 0.03021 0.0
C203 C 0.22961 0.17038 0.01183 0.0
C204 C 0.3413 0.2177 0.99877 0.0
C205 C 0.32815 0.27193 0.0193 0.0
N206 N 0.24461 0.33703 0.0451 0.0
N207 N 0.2957 0.11905 0.9707 0.0
C208 C 0.26164 0.27947 0.03162 0.0
C209 C 0.28897 0.16871 0.9931 0.0
N210 N 0.15723 0.22735 0.04855 0.0
N211 N 0.4053 0.21124 0.98662 0.0
H212 H 0.25775 0.08288 0.96678 0.0
H213 H 0.33467 0.11658 0.95403 0.0
H214 H 0.44424 0.24662 0.98978 0.0
H215 H 0.42129 0.16981 0.97485 0.0
H216 H 0.14754 0.2636 0.06591 0.0
H217 H 0.12125 0.18961 0.04774 0.0
H218 H 0.19479 0.34755 0.05188 0.0
H219 H 0.27882 0.37629 0.04647 0.0
C220 C 0.21453 0.80989 0.98024 0.0
C221 C 0.21329 0.82438 0.01598 0.0
C222 C 0.29143 0.73454 0.03078 0.0
C223 C 0.29394 0.7209 0.99519 0.0
N224 N 0.24444 0.73398 0.93646 0.0
N225 N 0.23128 0.78788 0.07449 0.0
C226 C 0.25089 0.75485 0.97006 0.0
C227 C 0.2455 0.7824 0.04096 0.0
N228 N 0.1846 0.85028 0.95599 0.0
N229 N 0.33571 0.70431 0.0549 0.0
H230 H 0.19723 0.82194 0.08273 0.0
H231 H 0.24726 0.75483 0.09325 0.0
H232 H 0.3699 0.66862 0.04868 0.0
H233 H 0.34241 0.71787 0.08087 0.0
H234 H 0.1923 0.84724 0.92998 0.0
H235 H 0.15446 0.88898 0.96194 0.0
H236 H 0.20862 0.75247 0.91735 0.0
H237 H 0.27059 0.69402 0.92831 0.0
C238 C 1.00494 0.79183 0.07055 0.0
C239 C 0.98051 0.81734 0.03812 0.0
C240 C 0.88949 0.7339 0.029 0.0
C241 C 0.91091 0.71089 0.06245 0.0
N242 N 1.00009 0.70481 0.11058 0.0
N243 N 0.91506 0.80357 0.98251 0.0
C244 C 0.97281 0.73538 0.08163 0.0
C245 C 0.92812 0.78478 0.01592 0.0
N246 N 0.05541 0.82404 0.09165 0.0
N247 N 0.82995 0.7097 0.0107 0.0
H248 H 0.94336 0.84067 0.97268 0.0
H249 H 0.88142 0.77917 0.96392 0.0
H250 H 0.80142 0.67153 0.0192 0.0
H251 H 0.80681 0.72921 0.98797 0.0
H252 H 0.06965 0.81263 0.1173 0.0
H253 H 0.08085 0.86469 0.08386 0.0
H254 H 0.04827 0.71683 0.12423 0.0
H255 H 0.97722 0.66347 0.11918 0.0
C256 C 0.98604 0.21641 0.97173 0.0
C257 C 0.9798 0.1941 1.00537 0.0
C258 C 0.8914 0.2761 0.01286 0.0
C259 C 0.8854 0.28619 0.97678 0.0
N260 N 0.92758 0.26702 0.92137 0.0
N261 N 0.94088 0.21273 0.06115 0.0
C262 C 0.93368 0.25746 0.95614 0.0
C263 C 0.93745 0.22803 0.02708 0.0
N264 N 0.04255 0.19997 0.95507 0.0
N265 N 0.85264 0.3122 0.03319 0.0
H266 H 0.97865 0.18166 0.07232 0.0
H267 H 0.90723 0.23011 0.07826 0.0
H268 H 0.81872 0.3475 0.02323 0.0
H269 H 0.8567 0.3103 0.05995 0.0
H270 H 0.052 0.21796 0.93124 0.0
H271 H 0.08504 0.17573 0.96719 0.0
H272 H 0.95551 0.24115 0.90445 0.0
H273 H 0.89106 0.29787 0.90907 0.0
C274 C 0.69932 0.77963 0.54891 0.0
C275 C 0.72183 0.73051 0.52732 0.0
C276 C 0.82187 0.7965 0.5144 0.0
C277 C 0.80109 0.84488 0.53697 0.0
N278 N 0.7106 0.89063 0.56767 0.0
N279 N 0.78897 0.69997 0.48114 0.0
C280 C 0.73635 0.83911 0.55147 0.0
C281 C 0.77795 0.74185 0.50718 0.0
N282 N 0.64569 0.76822 0.56861 0.0
N283 N 0.88554 0.80068 0.5016 0.0
H284 H 0.75661 0.66006 0.47514 0.0
H285 H 0.82503 0.70817 0.46343 0.0
H286 H 0.91946 0.83979 0.50618 0.0
H287 H 0.90704 0.7634 0.48842 0.0
H288 H 0.63256 0.79921 0.58798 0.0
H289 H 0.61636 0.72597 0.56692 0.0
H290 H 0.66076 0.89157 0.57608 0.0
H291 H 0.73677 0.93464 0.56979 0.0
C292 C 0.72014 0.32988 0.50261 0.0
C293 C 0.74099 0.39145 0.49315 0.0
C294 C 0.83865 0.3463 0.46548 0.0
C295 C 0.82507 0.28669 0.48036 0.0
N296 N 0.75285 0.21978 0.51227 0.0
N297 N 0.81598 0.46005 0.46403 0.0
C298 C 0.7651 0.27763 0.49829 0.0
C299 C 0.79834 0.40006 0.47349 0.0
N300 N 0.65696 0.32185 0.5155 0.0
N301 N 0.89018 0.35123 0.44386 0.0
H302 H 0.78529 0.49964 0.46822 0.0
H303 H 0.86186 0.47127 0.45319 0.0
H304 H 0.92165 0.31305 0.43814 0.0
H305 H 0.8987 0.39153 0.42962 0.0
H306 H 0.63544 0.27765 0.52048 0.0
H307 H 0.62279 0.35961 0.51814 0.0
H308 H 0.71479 0.21185 0.52896 0.0
H309 H 0.78342 0.17991 0.50855 0.0
C310 C 0.38208 0.35755 0.52404 0.0
C311 C 0.44068 0.39056 0.54182 0.0
C312 C 0.42066 0.33322 0.59448 0.0
C313 C 0.35408 0.31223 0.57829 0.0
N314 N 0.26867 0.30856 0.52802 0.0
N315 N 0.5348 0.38028 0.58746 0.0
C316 C 0.33421 0.32521 0.54312 0.0
C317 C 0.46591 0.37005 0.57538 0.0
N318 N 0.3761 0.35116 0.48892 0.0
N319 N 0.44004 0.31858 0.62815 0.0
H320 H 0.57145 0.39735 0.57181 0.0
H321 H 0.55804 0.3641 0.61097 0.0
H322 H 0.40999 0.28894 0.6422 0.0
H323 H 0.48371 0.3384 0.64284 0.0
H324 H 0.33704 0.32347 0.47496 0.0
H325 H 0.41658 0.36415 0.47441 0.0
H326 H 0.24925 0.32343 0.50351 0.0
H327 H 0.23143 0.28488 0.54101 0.0
C328 C 0.43771 0.76018 0.52324 0.0
C329 C 0.4864 0.738 0.50107 0.0
C330 C 0.46574 0.83213 0.46545 0.0
C331 C 0.40545 0.84487 0.48251 0.0
N332 N 0.33698 0.82682 0.52987 0.0
N333 N 0.55476 0.75555 0.45359 0.0
C334 C 0.39339 0.81169 0.51273 0.0
C335 C 0.50448 0.77588 0.4735 0.0
N336 N 0.43343 0.73059 0.5539 0.0
N337 N 0.48433 0.87323 0.44109 0.0
H338 H 0.58569 0.71595 0.45968 0.0
H339 H 0.56471 0.77657 0.43059 0.0
H340 H 0.45607 0.91448 0.43496 0.0
H341 H 0.53041 0.8697 0.42925 0.0
H342 H 0.40252 0.74655 0.57263 0.0
H343 H 0.46636 0.69301 0.56174 0.0
H344 H 0.32029 0.79993 0.54973 0.0
H345 H 0.3051 0.86566 0.52329 0.0
C346 C 1.00468 0.99799 0.15377 0.0
C347 C 0.05118 0.04083 0.1396 0.0
C348 C 0.06405 0.10484 0.19293 0.0
C349 C 1.01905 0.06115 0.20758 0.0
N350 N 0.93465 0.97471 0.20065 0.0
N351 N 0.10905 0.14334 0.14109 0.0
C352 C 0.98533 0.01044 0.18747 0.0
C353 C 0.07564 0.09707 0.15778 0.0
N354 N 0.98154 0.9443 0.13554 0.0
N355 N 0.09816 0.15197 0.21305 0.0
H356 H 0.1174 0.1391 0.11511 0.0
H357 H 0.12241 0.18815 0.1518 0.0
H358 H 0.08983 0.16022 0.23875 0.0
H359 H 0.13805 0.18042 0.20503 0.0
H360 H 0.95465 0.907 0.1458 0.0
H361 H 0.9918 0.93589 0.11014 0.0
H362 H 0.90342 0.94071 0.18639 0.0
H363 H 0.92002 0.98246 0.22541 0.0
C364 C 0.99452 0.06651 0.89915 0.0
C365 C 0.05397 0.04162 0.91915 0.0
C366 C 0.11742 0.0365 0.86766 0.0
C367 C 0.05437 0.05159 0.84712 0.0
N368 N 0.932 0.07978 0.8424 0.0
N369 N 0.17228 1.00221 0.92314 0.0
C370 C 0.99285 0.06704 0.86265 0.0
C371 C 0.11607 0.0275 0.90372 0.0
N372 N 0.94031 0.09098 0.91521 0.0
N373 N 0.17843 0.03098 0.85257 0.0
H374 H 0.174 0.99688 0.94973 0.0
H375 H 0.21581 0.98345 0.91284 0.0
H376 H 0.18061 0.03631 0.82614 0.0
H377 H 0.22764 0.02625 0.86637 0.0
H378 H 0.89895 0.11601 0.90251 0.0
H379 H 0.94 0.0918 0.94194 0.0
H380 H 0.88324 0.08332 0.8518 0.0
H381 H 0.92928 0.0832 0.81563 0.0
C382 C 0.48723 0.51329 0.63536 0.0
C383 C 0.54873 0.54768 0.62916 0.0
C384 C 0.56926 0.57733 0.6906 0.0
C385 C 0.51631 0.53302 0.6976 0.0
N386 N 0.42341 0.45892 0.67716 0.0
N387 N 0.61907 0.64026 0.64757 0.0
C388 C 0.47441 0.50132 0.67008 0.0
C389 C 0.58146 0.588 0.65591 0.0
N390 N 0.43718 0.49917 0.60875 0.0
N391 N 0.60893 0.60841 0.71712 0.0
H392 H 0.62189 0.65339 0.62204 0.0
H393 H 0.63917 0.67502 0.6654 0.0
H394 H 0.59928 0.60507 0.74286 0.0
H395 H 0.65425 0.63455 0.71385 0.0
H396 H 0.38892 0.47788 0.61188 0.0
H397 H 0.43899 0.5183 0.58444 0.0
H398 H 0.39535 0.43003 0.65845 0.0
H399 H 0.41234 0.44952 0.70224 0.0
C400 C 0.61926 0.43037 0.39398 0.0
C401 C 0.61566 0.49474 0.40519 0.0
C402 C 0.6296 0.53149 0.34695 0.0
C403 C 0.63034 0.46711 0.3352 0.0
N404 N 0.64517 0.35626 0.34852 0.0
N405 N 0.64018 0.60524 0.39593 0.0
C406 C 0.63183 0.41681 0.35919 0.0
C407 C 0.62874 0.54482 0.38275 0.0
N408 N 0.60666 0.3825 0.41592 0.0
N409 N 0.62512 0.57978 0.32376 0.0
H410 H 0.64058 0.61584 0.42222 0.0
H411 H 0.65621 0.64316 0.38162 0.0
H412 H 0.62579 0.57235 0.2973 0.0
H413 H 0.61582 0.62693 0.33043 0.0
H414 H 0.60047 0.33484 0.4083 0.0
H415 H 0.59901 0.3909 0.44169 0.0
H416 H 0.65308 0.31818 0.36518 0.0
H417 H 0.65454 0.34533 0.3232 0.0
loop_
_geom_bond_atom_site_label_1
_geom_bond_atom_site_label_2
_geom_bond_distance
_geom_bond_site_symmetry_2
_ccdc_geom_bond_type
Zn0 O6 1.920 1_545 S
Zn0 O12 1.898 . S
Zn0 O15 1.905 1_545 S
Zn1 O9 1.905 . S
Zn1 O10 1.898 1_545 S
Zn1 O18 1.920 1_545 S
Zn2 O5 2.080 1_445 S
Zn2 O8 2.114 . S
Zn2 O11 2.120 1_545 S
Zn2 O13 2.120 1_455 S
Zn2 O14 2.114 1_554 S
Zn2 O17 2.080 . S
C3 O8 1.166 . S
C3 O9 1.182 . S
C4 O10 1.167 . S
C4 O11 1.299 . S
O5 Zn2 2.080 1_665 S
O5 C19 1.305 . S
O6 Zn0 1.920 1_565 S
O6 C19 1.234 1_556 S
C7 O12 1.167 . S
C7 O13 1.299 1_556 S
O8 Zn2 2.114 . S
O8 C3 1.166 . S
O9 Zn1 1.905 . S
O9 C3 1.182 . S
O10 Zn1 1.898 1_565 S
O10 C4 1.167 . S
O11 Zn2 2.120 1_565 S
O11 C4 1.299 . S
O12 Zn0 1.898 . S
O12 C7 1.167 . S
O13 Zn2 2.120 1_655 S
O13 C7 1.299 1_554 S
O14 Zn2 2.114 1_556 S
O14 C16 1.166 1_545 S
O15 Zn0 1.905 1_565 S
O15 C16 1.182 1_655 S
C16 O14 1.166 1_565 S
C16 O15 1.182 1_455 S
O17 Zn2 2.080 . S
O17 C20 1.305 1_545 S
O18 Zn1 1.920 1_565 S
O18 C20 1.234 . S
C19 O5 1.305 . S
C19 O6 1.234 1_554 S
C20 O17 1.305 1_565 S
C20 O18 1.234 . S
Zn21 O27 1.920 . S
Zn21 O33 1.898 . S
Zn21 O36 1.905 . S
Zn22 O30 1.905 . S
Zn22 O31 1.898 . S
Zn22 O39 1.920 . S
Zn23 O26 2.080 . S
Zn23 O29 2.114 . S
Zn23 O32 2.120 . S
Zn23 O34 2.120 . S
Zn23 O35 2.114 . S
Zn23 O38 2.080 . S
C24 O29 1.166 . S
C24 O30 1.182 . S
C25 O31 1.167 . S
C25 O32 1.299 . S
O26 Zn23 2.080 . S
O26 C40 1.305 . S
O27 Zn21 1.920 . S
O27 C40 1.234 . S
C28 O33 1.167 . S
C28 O34 1.299 . S
O29 Zn23 2.114 . S
O29 C24 1.166 . S
O30 Zn22 1.905 . S
O30 C24 1.182 . S
O31 Zn22 1.898 . S
O31 C25 1.167 . S
O32 Zn23 2.120 . S
O32 C25 1.299 . S
O33 Zn21 1.898 . S
O33 C28 1.167 . S
O34 Zn23 2.120 . S
O34 C28 1.299 . S
O35 Zn23 2.114 . S
O35 C37 1.166 . S
O36 Zn21 1.905 . S
O36 C37 1.182 . S
C37 O35 1.166 . S
C37 O36 1.182 . S
O38 Zn23 2.080 . S
O38 C41 1.305 . S
O39 Zn22 1.920 . S
O39 C41 1.234 . S
C40 O26 1.305 . S
C40 O27 1.234 . S
C41 O38 1.305 . S
C41 O39 1.234 . S
C42 C43 1.264 . S
C42 C47 1.479 . S
C42 C52 1.465 1_655 S
C43 C42 1.264 . S
C43 C45 1.339 . S
C43 H70 0.931 . S
C44 C45 1.395 . S
C44 C46 1.320 . S
C45 C43 1.339 . S
C45 C44 1.395 . S
C45 H71 0.929 . S
C46 C44 1.320 . S
C46 C47 1.405 . S
C46 H72 0.930 . S
C47 C42 1.479 . S
C47 C46 1.405 . S
C47 H73 0.931 . S
U48 O49 2.454 . S
U48 O50 2.458 1_545 S
U48 C51 2.984 1_545 S
U48 C52 2.847 . S
U48 C65 2.882 . S
U48 O66 2.441 . S
U48 O67 2.420 . S
U48 O68 2.455 . S
U48 O69 2.449 . S
O49 U48 2.454 . S
O49 C51 1.353 1_545 S
O50 U48 2.458 1_565 S
O50 C51 1.286 . S
C51 U48 2.984 1_565 S
C51 O49 1.353 1_565 S
C51 O50 1.286 . S
C51 C53 1.363 . S
C52 C42 1.465 1_455 S
C52 U48 2.847 . S
C52 O66 1.249 . S
C52 O67 1.202 . S
C53 C51 1.363 . S
C53 C55 1.408 . S
C53 C58 1.342 . S
C54 C55 1.310 . S
C54 C57 1.461 . S
C54 H74 0.932 . S
C55 C53 1.408 . S
C55 C54 1.310 . S
C55 H75 0.930 . S
C56 C57 1.474 . S
C56 C58 1.285 . S
C56 H76 0.929 . S
C57 C54 1.461 . S
C57 C56 1.474 . S
C58 C53 1.342 . S
C58 C56 1.285 . S
C58 H77 0.930 . S
C59 C62 1.424 . S
C59 C64 1.245 . S
C59 C65 1.428 . S
C60 C63 1.260 . S
C60 C64 1.477 . S
C60 H78 0.926 1_545 S
C61 C62 1.384 . S
C61 C63 1.479 . S
C61 H79 0.929 . S
C62 C59 1.424 . S
C62 C61 1.384 . S
C62 H80 0.928 . S
C63 C60 1.260 . S
C63 C61 1.479 . S
C64 C59 1.245 . S
C64 C60 1.477 . S
C64 H81 0.932 1_545 S
C65 U48 2.882 . S
C65 C59 1.428 . S
C65 O68 1.301 . S
C65 O69 1.282 . S
O66 U48 2.441 . S
O66 C52 1.249 . S
O67 U48 2.420 . S
O67 C52 1.202 . S
O68 U48 2.455 . S
O68 C65 1.301 . S
O69 U48 2.449 . S
O69 C65 1.282 . S
H70 C43 0.931 . S
H71 C45 0.929 . S
H72 C46 0.930 . S
H73 C47 0.931 . S
H74 C54 0.932 . S
H75 C55 0.930 . S
H76 C56 0.929 . S
H77 C58 0.930 . S
H78 C60 0.926 1_565 S
H79 C61 0.929 . S
H80 C62 0.928 . S
H81 C64 0.932 1_565 S
C82 C83 1.264 . S
C82 C87 1.479 . S
C82 C92 1.465 . S
C83 C82 1.264 . S
C83 C85 1.339 . S
C83 H110 0.931 . S
C84 C85 1.395 . S
C84 C86 1.320 . S
C85 C83 1.339 . S
C85 C84 1.395 . S
C85 H111 0.929 . S
C86 C84 1.320 . S
C86 C87 1.405 . S
C86 H112 0.930 . S
C87 C82 1.479 . S
C87 C86 1.405 . S
C87 H113 0.931 . S
U88 O89 2.454 . S
U88 O90 2.458 . S
U88 C91 2.984 . S
U88 C92 2.847 1_445 S
U88 C105 2.882 . S
U88 O106 2.441 1_445 S
U88 O107 2.420 1_445 S
U88 O108 2.455 . S
U88 O109 2.449 1_545 S
O89 U88 2.454 . S
O89 C91 1.353 . S
O90 U88 2.458 . S
O90 C91 1.286 . S
C91 U88 2.984 . S
C91 O89 1.353 . S
C91 O90 1.286 . S
C91 C93 1.363 . S
C92 C82 1.465 . S
C92 U88 2.847 1_665 S
C92 O106 1.249 . S
C92 O107 1.202 . S
C93 C91 1.363 . S
C93 C95 1.408 . S
C93 C98 1.342 . S
C94 C95 1.310 . S
C94 C97 1.461 . S
C94 H114 0.932 . S
C95 C93 1.408 . S
C95 C94 1.310 . S
C95 H115 0.930 . S
C96 C97 1.474 . S
C96 C98 1.285 . S
C96 H116 0.929 . S
C97 C94 1.461 . S
C97 C96 1.474 . S
C98 C93 1.342 . S
C98 C96 1.285 . S
C98 H117 0.930 . S
C99 C102 1.424 1_445 S
C99 C104 1.245 . S
C99 C105 1.428 . S
C100 C103 1.260 . S
C100 C104 1.477 . S
C100 H118 0.932 . S
C101 C102 1.384 . S
C101 C103 1.479 1_665 S
C101 H119 0.929 . S
C102 C99 1.424 1_665 S
C102 C101 1.384 . S
C102 H120 0.928 . S
C103 C100 1.260 . S
C103 C101 1.479 1_445 S
C104 C99 1.245 . S
C104 C100 1.477 . S
C104 H121 0.932 . S
C105 U88 2.882 . S
C105 C99 1.428 . S
C105 O108 1.301 . S
C105 O109 1.282 1_545 S
O106 U88 2.441 1_665 S
O106 C92 1.249 . S
O107 U88 2.420 1_665 S
O107 C92 1.202 . S
O108 U88 2.455 . S
O108 C105 1.301 . S
O109 U88 2.449 1_565 S
O109 C105 1.282 1_565 S
H110 C83 0.931 . S
H111 C85 0.929 . S
H112 C86 0.930 . S
H113 C87 0.931 . S
H114 C94 0.932 . S
H115 C95 0.930 . S
H116 C96 0.929 . S
H117 C98 0.930 . S
H118 C100 0.932 . S
H119 C101 0.929 . S
H120 C102 0.928 . S
H121 C104 0.932 . S
C122 C123 1.264 . S
C122 C127 1.479 . S
C122 C132 1.465 . S
C123 C122 1.264 . S
C123 C125 1.339 . S
C123 H150 0.931 . S
C124 C125 1.395 . S
C124 C126 1.320 1_556 S
C125 C123 1.339 . S
C125 C124 1.395 . S
C125 H151 0.929 . S
C126 C124 1.320 1_554 S
C126 C127 1.405 1_554 S
C126 H152 0.930 . S
C127 C122 1.479 . S
C127 C126 1.405 1_556 S
C127 H153 0.931 1_556 S
U128 O129 2.454 . S
U128 O130 2.458 . S
U128 C131 2.984 . S
U128 C132 2.847 . S
U128 C145 2.882 . S
U128 O146 2.441 . S
U128 O147 2.420 . S
U128 O148 2.455 . S
U128 O149 2.449 . S
O129 U128 2.454 . S
O129 C131 1.353 . S
O130 U128 2.458 . S
O130 C131 1.286 . S
C131 U128 2.984 . S
C131 O129 1.353 . S
C131 O130 1.286 . S
C131 C133 1.363 . S
C132 C122 1.465 . S
C132 U128 2.847 . S
C132 O146 1.249 . S
C132 O147 1.202 . S
C133 C131 1.363 . S
C133 C135 1.408 . S
C133 C138 1.342 . S
C134 C135 1.310 1_554 S
C134 C137 1.461 1_554 S
C134 H154 0.932 . S
C135 C133 1.408 . S
C135 C134 1.310 1_556 S
C135 H155 0.930 1_556 S
C136 C137 1.474 . S
C136 C138 1.285 . S
C136 H156 0.929 . S
C137 C134 1.461 1_556 S
C137 C136 1.474 . S
C138 C133 1.342 . S
C138 C136 1.285 . S
C138 H157 0.930 . S
C139 C142 1.424 . S
C139 C144 1.245 . S
C139 C145 1.428 . S
C140 C143 1.260 . S
C140 C144 1.477 . S
C140 H158 0.932 . S
C141 C142 1.384 . S
C141 C143 1.479 . S
C141 H159 0.929 . S
C142 C139 1.424 . S
C142 C141 1.384 . S
C142 H160 0.928 . S
C143 C140 1.260 . S
C143 C141 1.479 . S
C144 C139 1.245 . S
C144 C140 1.477 . S
C144 H161 0.932 . S
C145 U128 2.882 . S
C145 C139 1.428 . S
C145 O148 1.301 . S
C145 O149 1.282 . S
O146 U128 2.441 . S
O146 C132 1.249 . S
O147 U128 2.420 . S
O147 C132 1.202 . S
O148 U128 2.455 . S
O148 C145 1.301 . S
O149 U128 2.449 . S
O149 C145 1.282 . S
H150 C123 0.931 . S
H151 C125 0.929 . S
H152 C126 0.930 . S
H153 C127 0.931 1_554 S
H154 C134 0.932 . S
H155 C135 0.930 1_554 S
H156 C136 0.929 . S
H157 C138 0.930 . S
H158 C140 0.932 . S
H159 C141 0.929 . S
H160 C142 0.928 . S
H161 C144 0.932 . S
C162 C163 1.264 . S
C162 C167 1.479 . S
C162 C172 1.465 . S
C163 C162 1.264 . S
C163 C165 1.339 . S
C163 H190 0.931 . S
C164 C165 1.395 . S
C164 C166 1.320 . S
C165 C163 1.339 . S
C165 C164 1.395 . S
C165 H191 0.929 . S
C166 C164 1.320 . S
C166 C167 1.405 . S
C166 H192 0.930 1_554 S
C167 C162 1.479 . S
C167 C166 1.405 . S
C167 H193 0.931 . S
U168 O169 2.454 . S
U168 O170 2.458 . S
U168 C171 2.984 . S
U168 C172 2.847 . S
U168 C185 2.882 . S
U168 O186 2.441 . S
U168 O187 2.420 . S
U168 O188 2.455 . S
U168 O189 2.449 . S
O169 U168 2.454 . S
O169 C171 1.353 . S
O170 U168 2.458 . S
O170 C171 1.286 . S
C171 U168 2.984 . S
C171 O169 1.353 . S
C171 O170 1.286 . S
C171 C173 1.363 . S
C172 C162 1.465 . S
C172 U168 2.847 . S
C172 O186 1.249 . S
C172 O187 1.202 . S
C173 C171 1.363 . S
C173 C175 1.408 . S
C173 C178 1.342 . S
C174 C175 1.310 . S
C174 C177 1.461 . S
C174 H194 0.932 1_554 S
C175 C173 1.408 . S
C175 C174 1.310 . S
C175 H195 0.930 . S
C176 C177 1.474 . S
C176 C178 1.285 . S
C176 H196 0.929 . S
C177 C174 1.461 . S
C177 C176 1.474 . S
C178 C173 1.342 . S
C178 C176 1.285 . S
C178 H197 0.930 . S
C179 C182 1.424 . S
C179 C184 1.245 . S
C179 C185 1.428 . S
C180 C183 1.260 . S
C180 C184 1.477 . S
C180 H198 0.932 . S
C181 C182 1.384 . S
C181 C183 1.479 . S
C181 H199 0.929 . S
C182 C179 1.424 . S
C182 C181 1.384 . S
C182 H200 0.928 . S
C183 C180 1.260 . S
C183 C181 1.479 . S
C184 C179 1.245 . S
C184 C180 1.477 . S
C184 H201 0.932 . S
C185 U168 2.882 . S
C185 C179 1.428 . S
C185 O188 1.301 . S
C185 O189 1.282 . S
O186 U168 2.441 . S
O186 C172 1.249 . S
O187 U168 2.420 . S
O187 C172 1.202 . S
O188 U168 2.455 . S
O188 C185 1.301 . S
O189 U168 2.449 . S
O189 C185 1.282 . S
H190 C163 0.931 . S
H191 C165 0.929 . S
H192 C166 0.930 1_556 S
H193 C167 0.931 . S
H194 C174 0.932 1_556 S
H195 C175 0.930 . S
H196 C176 0.929 . S
H197 C178 0.930 . S
H198 C180 0.932 . S
H199 C181 0.929 . S
H200 C182 0.928 . S
H201 C184 0.932 . S
C202 C203 1.363 . S
C202 C208 1.379 . S
C202 N210 1.356 . S
C203 C202 1.363 . S
C203 C209 1.342 1_554 S
C204 C205 1.348 1_556 S
C204 C209 1.379 . S
C204 N211 1.370 . S
C205 C204 1.348 1_554 S
C205 C208 1.363 . S
N206 C208 1.356 . S
N206 H218 0.984 . S
N206 H219 0.985 . S
N207 C209 1.371 . S
N207 H212 0.984 . S
N207 H213 0.985 . S
C208 C202 1.379 . S
C208 C205 1.363 . S
C208 N206 1.356 . S
C209 C203 1.342 1_556 S
C209 C204 1.379 . S
C209 N207 1.371 . S
N210 C202 1.356 . S
N210 H216 0.984 . S
N210 H217 0.984 . S
N211 C204 1.370 . S
N211 H214 0.984 . S
N211 H215 0.985 . S
H212 N207 0.984 . S
H213 N207 0.985 . S
H214 N211 0.984 . S
H215 N211 0.985 . S
H216 N210 0.984 . S
H217 N210 0.984 . S
H218 N206 0.984 . S
H219 N206 0.985 . S
C220 C221 1.363 . S
C220 C226 1.379 . S
C220 N228 1.356 . S
C221 C220 1.363 . S
C221 C227 1.363 1_556 S
C222 C223 1.363 1_554 S
C222 C227 1.379 . S
C222 N229 1.356 . S
C223 C222 1.363 1_556 S
C223 C226 1.363 . S
N224 C226 1.356 . S
N224 H236 0.984 . S
N224 H237 0.985 . S
N225 C227 1.356 . S
N225 H230 0.984 . S
N225 H231 0.985 . S
C226 C220 1.379 . S
C226 C223 1.363 . S
C226 N224 1.356 . S
C227 C221 1.363 1_554 S
C227 C222 1.379 . S
C227 N225 1.356 . S
N228 C220 1.356 . S
N228 H234 0.984 . S
N228 H235 0.984 . S
N229 C222 1.356 . S
N229 H232 0.984 . S
N229 H233 0.985 . S
H230 N225 0.984 . S
H231 N225 0.985 . S
H232 N229 0.984 . S
H233 N229 0.985 . S
H234 N228 0.984 . S
H235 N228 0.984 . S
H236 N224 0.984 . S
H237 N224 0.985 . S
C238 C239 1.363 . S
C238 C244 1.379 . S
C238 N246 1.356 . S
C239 C238 1.363 . S
C239 C245 1.377 . S
C240 C241 1.363 . S
C240 C245 1.381 . S
C240 N247 1.356 1_554 S
C241 C240 1.363 . S
C241 C244 1.363 . S
N242 C244 1.356 . S
N242 H254 0.984 . S
N242 H255 0.985 . S
N243 C245 1.343 1_556 S
N243 H248 0.984 . S
N243 H249 0.985 . S
C244 C238 1.379 . S
C244 C241 1.363 . S
C244 N242 1.356 . S
C245 C239 1.377 . S
C245 C240 1.381 . S
C245 N243 1.343 1_554 S
N246 C238 1.356 . S
N246 H252 0.984 . S
N246 H253 0.984 . S
N247 C240 1.356 1_556 S
N247 H250 0.984 . S
N247 H251 0.985 . S
H248 N243 0.984 . S
H249 N243 0.985 . S
H250 N247 0.984 . S
H251 N247 0.985 . S
H252 N246 0.984 . S
H253 N246 0.984 . S
H254 N242 0.984 . S
H255 N242 0.985 . S
C256 C257 1.380 . S
C256 C262 1.379 . S
C256 N264 1.356 . S
C257 C256 1.380 . S
C257 C263 1.345 1_556 S
C258 C259 1.367 . S
C258 C263 1.379 . S
C258 N265 1.356 . S
C259 C258 1.367 . S
C259 C262 1.359 1_554 S
N260 C262 1.356 . S
N260 H272 0.984 . S
N260 H273 0.985 . S
N261 C263 1.356 . S
N261 H266 0.984 . S
N261 H267 0.985 . S
C262 C256 1.379 . S
C262 C259 1.359 1_556 S
C262 N260 1.356 . S
C263 C257 1.345 1_554 S
C263 C258 1.379 . S
C263 N261 1.356 . S
N264 C256 1.356 . S
N264 H270 0.984 . S
N264 H271 0.984 . S
N265 C258 1.356 . S
N265 H268 0.984 . S
N265 H269 0.985 . S
H266 N261 0.984 . S
H267 N261 0.985 . S
H268 N265 0.984 . S
H269 N265 0.985 . S
H270 N264 0.984 . S
H271 N264 0.984 . S
H272 N260 0.984 . S
H273 N260 0.985 . S
C274 C275 1.363 . S
C274 C280 1.379 . S
C274 N282 1.356 . S
C275 C274 1.363 . S
C275 C281 1.363 . S
C276 C277 1.363 . S
C276 C281 1.379 . S
C276 N283 1.356 . S
C277 C276 1.363 . S
C277 C280 1.363 . S
N278 C280 1.356 . S
N278 H290 0.984 . S
N278 H291 0.985 . S
N279 C281 1.356 . S
N279 H284 0.984 . S
N279 H285 0.985 . S
C280 C274 1.379 . S
C280 C277 1.363 . S
C280 N278 1.356 . S
C281 C275 1.363 . S
C281 C276 1.379 . S
C281 N279 1.356 . S
N282 C274 1.356 . S
N282 H288 0.984 . S
N282 H289 0.984 . S
N283 C276 1.356 . S
N283 H286 0.984 . S
N283 H287 0.985 . S
H284 N279 0.984 . S
H285 N279 0.985 . S
H286 N283 0.984 . S
H287 N283 0.985 . S
H288 N282 0.984 . S
H289 N282 0.984 . S
H290 N278 0.984 . S
H291 N278 0.985 . S
C292 C293 1.363 . S
C292 C298 1.379 . S
C292 N300 1.356 . S
C293 C292 1.363 . S
C293 C299 1.363 . S
C294 C295 1.363 . S
C294 C299 1.379 . S
C294 N301 1.356 . S
C295 C294 1.363 . S
C295 C298 1.363 . S
N296 C298 1.356 . S
N296 H308 0.984 . S
N296 H309 0.985 . S
N297 C299 1.356 . S
N297 H302 0.984 . S
N297 H303 0.985 . S
C298 C292 1.379 . S
C298 C295 1.363 . S
C298 N296 1.356 . S
C299 C293 1.363 . S
C299 C294 1.379 . S
C299 N297 1.356 . S
N300 C292 1.356 . S
N300 H306 0.984 . S
N300 H307 0.984 . S
N301 C294 1.356 . S
N301 H304 0.984 . S
N301 H305 0.985 . S
H302 N297 0.984 . S
H303 N297 0.985 . S
H304 N301 0.984 . S
H305 N301 0.985 . S
H306 N300 0.984 . S
H307 N300 0.984 . S
H308 N296 0.984 . S
H309 N296 0.985 . S
C310 C311 1.363 . S
C310 C316 1.379 . S
C310 N318 1.356 . S
C311 C310 1.363 . S
C311 C317 1.363 . S
C312 C313 1.363 . S
C312 C317 1.379 . S
C312 N319 1.356 . S
C313 C312 1.363 . S
C313 C316 1.363 . S
N314 C316 1.356 . S
N314 H326 0.984 . S
N314 H327 0.985 . S
N315 C317 1.356 . S
N315 H320 0.984 . S
N315 H321 0.985 . S
C316 C310 1.379 . S
C316 C313 1.363 . S
C316 N314 1.356 . S
C317 C311 1.363 . S
C317 C312 1.379 . S
C317 N315 1.356 . S
N318 C310 1.356 . S
N318 H324 0.984 . S
N318 H325 0.984 . S
N319 C312 1.356 . S
N319 H322 0.984 . S
N319 H323 0.985 . S
H320 N315 0.984 . S
H321 N315 0.985 . S
H322 N319 0.984 . S
H323 N319 0.985 . S
H324 N318 0.984 . S
H325 N318 0.984 . S
H326 N314 0.984 . S
H327 N314 0.985 . S
C328 C329 1.363 . S
C328 C334 1.379 . S
C328 N336 1.356 . S
C329 C328 1.363 . S
C329 C335 1.363 . S
C330 C331 1.363 . S
C330 C335 1.379 . S
C330 N337 1.356 . S
C331 C330 1.363 . S
C331 C334 1.363 . S
N332 C334 1.356 . S
N332 H344 0.984 . S
N332 H345 0.985 . S
N333 C335 1.356 . S
N333 H338 0.984 . S
N333 H339 0.985 . S
C334 C328 1.379 . S
C334 C331 1.363 . S
C334 N332 1.356 . S
C335 C329 1.363 . S
C335 C330 1.379 . S
C335 N333 1.356 . S
N336 C328 1.356 . S
N336 H342 0.984 . S
N336 H343 0.984 . S
N337 C330 1.356 . S
N337 H340 0.984 . S
N337 H341 0.985 . S
H338 N333 0.984 . S
H339 N333 0.985 . S
H340 N337 0.984 . S
H341 N337 0.985 . S
H342 N336 0.984 . S
H343 N336 0.984 . S
H344 N332 0.984 . S
H345 N332 0.985 . S
C346 C347 1.376 . S
C346 C352 1.380 1_565 S
C346 N354 1.345 1_455 S
C347 C346 1.376 . S
C347 C353 1.363 1_565 S
C348 C349 1.363 . S
C348 C353 1.379 . S
C348 N355 1.356 . S
C349 C348 1.363 . S
C349 C352 1.363 . S
N350 C352 1.356 1_655 S
N350 H362 0.984 1_545 S
N350 H363 0.985 . S
N351 C353 1.356 . S
N351 H356 0.984 . S
N351 H357 0.985 . S
C352 C346 1.380 1_545 S
C352 C349 1.363 . S
C352 N350 1.356 1_455 S
C353 C347 1.363 1_545 S
C353 C348 1.379 . S
C353 N351 1.356 . S
N354 C346 1.345 1_655 S
N354 H360 0.984 . S
N354 H361 0.984 . S
N355 C348 1.356 . S
N355 H358 0.984 . S
N355 H359 0.985 . S
H356 N351 0.984 . S
H357 N351 0.985 . S
H358 N355 0.984 . S
H359 N355 0.985 . S
H360 N354 0.984 . S
H361 N354 0.984 . S
H362 N350 0.984 1_565 S
H363 N350 0.985 . S
C364 C365 1.363 1_645 S
C364 C370 1.379 . S
C364 N372 1.356 1_545 S
C365 C364 1.363 1_465 S
C365 C371 1.363 . S
C366 C367 1.363 . S
C366 C371 1.379 1_545 S
C366 N373 1.356 . S
C367 C366 1.363 . S
C367 C370 1.363 1_455 S
N368 C370 1.356 . S
N368 H380 0.984 . S
N368 H381 0.985 . S
N369 C371 1.356 . S
N369 H374 0.984 . S
N369 H375 0.985 . S
C370 C364 1.379 . S
C370 C367 1.363 1_655 S
C370 N368 1.356 . S
C371 C365 1.363 . S
C371 C366 1.379 1_565 S
C371 N369 1.356 . S
N372 C364 1.356 1_565 S
N372 H378 0.985 . S
N372 H379 0.984 . S
N373 C366 1.356 . S
N373 H376 0.984 . S
N373 H377 0.985 . S
H374 N369 0.984 . S
H375 N369 0.985 . S
H376 N373 0.984 . S
H377 N373 0.985 . S
H378 N372 0.985 . S
H379 N372 0.984 . S
H380 N368 0.984 . S
H381 N368 0.985 . S
C382 C383 1.363 . S
C382 C388 1.379 . S
C382 N390 1.356 . S
C383 C382 1.363 . S
C383 C389 1.363 . S
C384 C385 1.363 . S
C384 C389 1.379 . S
C384 N391 1.356 . S
C385 C384 1.363 . S
C385 C388 1.363 . S
N386 C388 1.356 . S
N386 H398 0.984 . S
N386 H399 0.985 . S
N387 C389 1.356 . S
N387 H392 0.984 . S
N387 H393 0.985 . S
C388 C382 1.379 . S
C388 C385 1.363 . S
C388 N386 1.356 . S
C389 C383 1.363 . S
C389 C384 1.379 . S
C389 N387 1.356 . S
N390 C382 1.356 . S
N390 H396 0.984 . S
N390 H397 0.984 . S
N391 C384 1.356 . S
N391 H394 0.984 . S
N391 H395 0.985 . S
H392 N387 0.984 . S
H393 N387 0.985 . S
H394 N391 0.984 . S
H395 N391 0.985 . S
H396 N390 0.984 . S
H397 N390 0.984 . S
H398 N386 0.984 . S
H399 N386 0.985 . S
C400 C401 1.363 . S
C400 C406 1.379 . S
C400 N408 1.356 . S
C401 C400 1.363 . S
C401 C407 1.363 . S
C402 C403 1.363 . S
C402 C407 1.379 . S
C402 N409 1.356 . S
C403 C402 1.363 . S
C403 C406 1.363 . S
N404 C406 1.356 . S
N404 H416 0.984 . S
N404 H417 0.985 . S
N405 C407 1.356 . S
N405 H410 0.984 . S
N405 H411 0.985 . S
C406 C400 1.379 . S
C406 C403 1.363 . S
C406 N404 1.356 . S
C407 C401 1.363 . S
C407 C402 1.379 . S
C407 N405 1.356 . S
N408 C400 1.356 . S
N408 H414 0.984 . S
N408 H415 0.984 . S
N409 C402 1.356 . S
N409 H412 0.984 . S
N409 H413 0.985 . S
H410 N405 0.984 . S
H411 N405 0.985 . S
H412 N409 0.984 . S
H413 N409 0.985 . S
H414 N408 0.984 . S
H415 N408 0.984 . S
H416 N404 0.984 . S
H417 N404 0.985 . S
C205 C164 1.353 . S
C203 C3 1.280 . S
C221 C4 1.514 1_556 S
C223 C124 1.673 . S
C239 C19 1.541 . S
C241 C177 1.667 . S
C257 C7 1.296 . S
C259 C137 1.356 1_554 S
C275 C37 1.280 . S
C277 C84 1.353 . S
C293 C28 1.514 . S
C295 C44 1.673 . S
C313 C97 1.667 . S
C311 C41 1.541 . S
C331 C57 1.357 . S
C329 C25 1.290 . S
C347 C20 1.322 . S
C349 C63 1.532 . S
C365 C16 1.358 . S
C367 C103 1.509 . S
C385 C143 1.532 . S
C383 C40 1.322 . S
C401 C24 1.358 . S
C403 C183 1.509 . S
