# Generated by pormake.
# Topology soc, (4,6)-cn, num edge types: 1
# Building blocks:
#     Node 0, Type 0, BuildingBlock: ESEHIV_clean_sbu_0, # of connection points: 4
#     Node 1, Type 0, BuildingBlock: ESEHIV_clean_sbu_0, # of connection points: 4
#     Node 2, Type 0, BuildingBlock: ESEHIV_clean_sbu_0, # of connection points: 4
#     Node 3, Type 0, BuildingBlock: ESEHIV_clean_sbu_0, # of connection points: 4
#     Node 4, Type 0, BuildingBlock: ESEHIV_clean_sbu_0, # of connection points: 4
#     Node 5, Type 0, BuildingBlock: ESEHIV_clean_sbu_0, # of connection points: 4
#     Node 6, Type 0, BuildingBlock: ESEHIV_clean_sbu_0, # of connection points: 4
#     Node 7, Type 0, BuildingBlock: ESEHIV_clean_sbu_0, # of connection points: 4
#     Node 8, Type 0, BuildingBlock: ESEHIV_clean_sbu_0, # of connection points: 4
#     Node 9, Type 0, BuildingBlock: ESEHIV_clean_sbu_0, # of connection points: 4
#     Node 10, Type 0, BuildingBlock: ESEHIV_clean_sbu_0, # of connection points: 4
#     Node 11, Type 0, BuildingBlock: ESEHIV_clean_sbu_0, # of connection points: 4
#     Node 12, Type 1, BuildingBlock: INOVEN_clean_sbu_0, # of connection points: 6
#     Node 13, Type 1, BuildingBlock: INOVEN_clean_sbu_0, # of connection points: 6
#     Node 14, Type 1, BuildingBlock: INOVEN_clean_sbu_0, # of connection points: 6
#     Node 15, Type 1, BuildingBlock: INOVEN_clean_sbu_0, # of connection points: 6
#     Node 16, Type 1, BuildingBlock: INOVEN_clean_sbu_0, # of connection points: 6
#     Node 17, Type 1, BuildingBlock: INOVEN_clean_sbu_0, # of connection points: 6
#     Node 18, Type 1, BuildingBlock: INOVEN_clean_sbu_0, # of connection points: 6
#     Node 19, Type 1, BuildingBlock: INOVEN_clean_sbu_0, # of connection points: 6
#     Edge 20, Type (0, 1), BuildingBlock: XIVTED_clean_linker_0, # of connection points: 2
#     Edge 21, Type (0, 1), BuildingBlock: XIVTED_clean_linker_0, # of connection points: 2
#     Edge 22, Type (0, 1), BuildingBlock: XIVTED_clean_linker_0, # of connection points: 2
#     Edge 23, Type (0, 1), BuildingBlock: XIVTED_clean_linker_0, # of connection points: 2
#     Edge 24, Type (0, 1), BuildingBlock: XIVTED_clean_linker_0, # of connection points: 2
#     Edge 25, Type (0, 1), BuildingBlock: XIVTED_clean_linker_0, # of connection points: 2
#     Edge 26, Type (0, 1), BuildingBlock: XIVTED_clean_linker_0, # of connection points: 2
#     Edge 27, Type (0, 1), BuildingBlock: XIVTED_clean_linker_0, # of connection points: 2
#     Edge 28, Type (0, 1), BuildingBlock: XIVTED_clean_linker_0, # of connection points: 2
#     Edge 29, Type (0, 1), BuildingBlock: XIVTED_clean_linker_0, # of connection points: 2
#     Edge 30, Type (0, 1), BuildingBlock: XIVTED_clean_linker_0, # of connection points: 2
#     Edge 31, Type (0, 1), BuildingBlock: XIVTED_clean_linker_0, # of connection points: 2
#     Edge 32, Type (0, 1), BuildingBlock: XIVTED_clean_linker_0, # of connection points: 2
#     Edge 33, Type (0, 1), BuildingBlock: XIVTED_clean_linker_0, # of connection points: 2
#     Edge 34, Type (0, 1), BuildingBlock: XIVTED_clean_linker_0, # of connection points: 2
#     Edge 35, Type (0, 1), BuildingBlock: XIVTED_clean_linker_0, # of connection points: 2
#     Edge 36, Type (0, 1), BuildingBlock: XIVTED_clean_linker_0, # of connection points: 2
#     Edge 37, Type (0, 1), BuildingBlock: XIVTED_clean_linker_0, # of connection points: 2
#     Edge 38, Type (0, 1), BuildingBlock: XIVTED_clean_linker_0, # of connection points: 2
#     Edge 39, Type (0, 1), BuildingBlock: XIVTED_clean_linker_0, # of connection points: 2
#     Edge 40, Type (0, 1), BuildingBlock: XIVTED_clean_linker_0, # of connection points: 2
#     Edge 41, Type (0, 1), BuildingBlock: XIVTED_clean_linker_0, # of connection points: 2
#     Edge 42, Type (0, 1), BuildingBlock: XIVTED_clean_linker_0, # of connection points: 2
#     Edge 43, Type (0, 1), BuildingBlock: XIVTED_clean_linker_0, # of connection points: 2
#     Edge 44, Type (0, 1), BuildingBlock: XIVTED_clean_linker_0, # of connection points: 2
#     Edge 45, Type (0, 1), BuildingBlock: XIVTED_clean_linker_0, # of connection points: 2
#     Edge 46, Type (0, 1), BuildingBlock: XIVTED_clean_linker_0, # of connection points: 2
#     Edge 47, Type (0, 1), BuildingBlock: XIVTED_clean_linker_0, # of connection points: 2
#     Edge 48, Type (0, 1), BuildingBlock: XIVTED_clean_linker_0, # of connection points: 2
#     Edge 49, Type (0, 1), BuildingBlock: XIVTED_clean_linker_0, # of connection points: 2
#     Edge 50, Type (0, 1), BuildingBlock: XIVTED_clean_linker_0, # of connection points: 2
#     Edge 51, Type (0, 1), BuildingBlock: XIVTED_clean_linker_0, # of connection points: 2
#     Edge 52, Type (0, 1), BuildingBlock: XIVTED_clean_linker_0, # of connection points: 2
#     Edge 53, Type (0, 1), BuildingBlock: XIVTED_clean_linker_0, # of connection points: 2
#     Edge 54, Type (0, 1), BuildingBlock: XIVTED_clean_linker_0, # of connection points: 2
#     Edge 55, Type (0, 1), BuildingBlock: XIVTED_clean_linker_0, # of connection points: 2
#     Edge 56, Type (0, 1), BuildingBlock: XIVTED_clean_linker_0, # of connection points: 2
#     Edge 57, Type (0, 1), BuildingBlock: XIVTED_clean_linker_0, # of connection points: 2
#     Edge 58, Type (0, 1), BuildingBlock: XIVTED_clean_linker_0, # of connection points: 2
#     Edge 59, Type (0, 1), BuildingBlock: XIVTED_clean_linker_0, # of connection points: 2
#     Edge 60, Type (0, 1), BuildingBlock: XIVTED_clean_linker_0, # of connection points: 2
#     Edge 61, Type (0, 1), BuildingBlock: XIVTED_clean_linker_0, # of connection points: 2
#     Edge 62, Type (0, 1), BuildingBlock: XIVTED_clean_linker_0, # of connection points: 2
#     Edge 63, Type (0, 1), BuildingBlock: XIVTED_clean_linker_0, # of connection points: 2
#     Edge 64, Type (0, 1), BuildingBlock: XIVTED_clean_linker_0, # of connection points: 2
#     Edge 65, Type (0, 1), BuildingBlock: XIVTED_clean_linker_0, # of connection points: 2
#     Edge 66, Type (0, 1), BuildingBlock: XIVTED_clean_linker_0, # of connection points: 2
#     Edge 67, Type (0, 1), BuildingBlock: XIVTED_clean_linker_0, # of connection points: 2
# Relax obj value: 0.172
# Max RMSD: 0.285
# Mean RMSD: 0.174
data_MOF--net-soc--node1-ESEHIV_clean_sbu_0--node2-INOVEN_clean_sbu_0--edge1-XIVTED_clean_linker_0
_symmetry_space_group_name_H-M    P1
_symmetry_Int_Tables_number       1
_symmetry_cell_setting            triclinic
loop_
_symmetry_equiv_pos_as_xyz
'x, y, z'
_cell_length_a     52.805304
_cell_length_b     50.348913
_cell_length_c     43.852884
_cell_angle_alpha  82.530667
_cell_angle_beta   82.974526
_cell_angle_gamma 70.605275
loop_
_atom_site_label
_atom_site_type_symbol
_atom_site_fract_x
_atom_site_fract_y
_atom_site_fract_z
_atom_type_partial_charge
Cu0 Cu 0.04168 0.03299 0.35869 0.0
N1 N 0.05463 0.05239 0.38333 0.0
N2 N 0.07742 0.07894 0.39582 0.0
C3 C 0.07076 0.06795 0.37277 0.0
C4 C 0.06495 0.07013 0.42189 0.0
C5 C 0.05067 0.05393 0.41408 0.0
O6 O 0.07303 0.00665 0.3369 0.0
C7 C 0.99532 0.07687 0.35395 0.0
O8 O 0.9968 0.07061 0.38385 0.0
H9 H 0.07781 0.07074 0.34871 0.0
H10 H 0.03806 0.04431 0.42974 0.0
N11 N 0.02432 0.00962 0.3823 0.0
N12 N 1.00062 0.9797 0.3906 0.0
C13 C 1.00746 0.99942 0.37067 0.0
C14 C 0.02834 0.99591 0.41068 0.0
C15 C 0.01352 0.97755 0.41597 0.0
C16 C 0.08935 0.99091 0.35616 0.0
O17 O 0.08442 0.99634 0.38516 0.0
H18 H 1.00113 0.00572 0.34752 0.0
H19 H 0.04224 0.99773 0.4258 0.0
O20 O 0.01394 0.06211 0.33572 0.0
H21 H 0.06576 0.07544 0.44482 0.0
H22 H 0.01349 0.96266 0.43612 0.0
Cu23 Cu 0.03767 0.03786 0.75971 0.0
N24 N 0.02223 0.0203 0.73587 0.0
N25 N 0.99619 0.99675 0.72402 0.0
C26 C 1.00191 0.01001 0.74586 0.0
C27 C 0.01367 0.9989 0.69938 0.0
C28 C 0.02974 0.01325 0.7068 0.0
O29 O 1.00827 0.06464 0.7832 0.0
C30 C 0.08504 0.99515 0.76207 0.0
O31 O 0.08252 1.00314 0.73259 0.0
H32 H 0.99226 0.01147 0.76908 0.0
H33 H 0.0463 0.01734 0.69221 0.0
N34 N 0.05535 0.06036 0.73507 0.0
N35 N 0.07912 0.09004 0.72469 0.0
C36 C 0.06992 0.07338 0.74662 0.0
C37 C 0.05525 0.06905 0.70469 0.0
C38 C 0.07013 0.08728 0.69817 0.0
C39 C 0.99452 0.08599 0.76629 0.0
O40 O 1.00016 0.08711 0.73627 0.0
H41 H 0.07343 0.07082 0.7708 0.0
H42 H 0.04418 0.06369 0.68864 0.0
O43 O 0.06607 0.00788 0.78134 0.0
H44 H 0.0151 0.99051 0.67753 0.0
H45 H 0.07321 0.09845 0.67596 0.0
Cu46 Cu 0.28672 0.0635 0.08722 0.0
N47 N 0.25632 0.06019 0.07238 0.0
N48 N 0.23191 0.03875 0.05311 0.0
C49 C 0.25436 0.03537 0.06683 0.0
C50 C 0.2192 0.06685 0.04955 0.0
C51 C 0.23424 0.08008 0.06168 0.0
O52 O 0.30326 0.02588 0.10954 0.0
C53 C 0.29337 0.10298 0.03976 0.0
O54 O 0.27128 0.1173 0.05531 0.0
H55 H 0.26998 0.01528 0.07107 0.0
H56 H 0.22971 0.10263 0.06165 0.0
N57 N 0.27639 0.09061 0.11567 0.0
N58 N 0.27821 0.12158 0.14659 0.0
C59 C 0.29259 0.10008 0.12976 0.0
C60 C 0.25106 0.10644 0.12428 0.0
C61 C 0.25214 0.12575 0.14316 0.0
C62 C 0.28703 0.01975 0.13134 0.0
O63 O 0.2638 0.03929 0.13726 0.0
H64 H 0.31438 0.09211 0.12689 0.0
H65 H 0.23304 0.10448 0.11688 0.0
O66 O 0.30603 0.07774 0.05054 0.0
H67 H 0.20085 0.07708 0.03821 0.0
H68 H 0.23518 0.14176 0.15345 0.0
Cu69 Cu 0.0702 0.29363 0.10971 0.0
N70 N 0.08348 0.31488 0.07759 0.0
N71 N 0.10974 0.32239 0.03578 0.0
C72 C 0.10201 0.30297 0.05522 0.0
C73 C 0.09538 0.34759 0.0462 0.0
C74 C 0.07904 0.34292 0.07195 0.0
O75 O 0.09867 0.27753 0.13958 0.0
C76 C 0.03837 0.28521 0.0699 0.0
O77 O 0.03255 0.31281 0.06771 0.0
H78 H 0.11026 0.28034 0.05393 0.0
H79 H 0.0654 0.3588 0.08581 0.0
N80 N 0.03903 0.31455 0.13185 0.0
N81 N 0.99857 0.323 0.15826 0.0
C82 C 0.01919 0.30394 0.14356 0.0
C83 C 0.03082 0.34129 0.13946 0.0
C84 C 1.00583 0.34658 0.15571 0.0
C85 C 0.11521 0.29092 0.14182 0.0
O86 O 0.11439 0.31353 0.12289 0.0
H87 H 0.02018 0.2824 0.14162 0.0
H88 H 0.04217 0.35585 0.13389 0.0
O89 O 0.05627 0.26995 0.08793 0.0
H90 H 0.09662 0.36793 0.036 0.0
H91 H 0.99394 0.36637 0.16476 0.0
Cu92 Cu 0.78781 1.00239 0.01654 0.0
N93 N 0.80768 0.01861 0.98633 0.0
N94 N 0.81457 0.05395 0.95387 0.0
C95 C 0.80076 0.04679 0.97963 0.0
C96 C 0.83095 0.02932 0.94378 0.0
C97 C 0.82677 0.00743 0.96404 0.0
O98 O 0.77305 0.03139 0.04534 0.0
C99 C 0.77672 0.96897 0.97948 0.0
O100 O 0.80274 0.95724 0.98141 0.0
H101 H 0.78455 0.06175 0.99228 0.0
H102 H 0.83607 0.98508 0.96178 0.0
N103 N 0.80834 0.9708 0.03998 0.0
N104 N 0.81744 0.93783 0.07985 0.0
C105 C 0.79841 0.95968 0.06634 0.0
C106 C 0.83464 0.95563 0.03656 0.0
C107 C 0.84029 0.93506 0.06113 0.0
C108 C 0.79235 0.03518 0.05729 0.0
O109 O 0.81712 0.01952 0.04943 0.0
H110 H 0.7775 0.96743 0.07523 0.0
H111 H 0.84869 0.95944 0.01779 0.0
O112 O 0.76405 0.99026 0.99454 0.0
H113 H 0.84437 0.0273 0.92286 0.0
H114 H 0.85975 0.91957 0.06509 0.0
Cu115 Cu 0.01713 0.76784 1.01099 0.0
N116 N 1.0002 0.75234 0.9862 0.0
N117 N 0.97088 0.7492 0.95505 0.0
C118 C 0.97566 0.76459 0.9755 0.0
C119 C 0.99325 0.72639 0.95306 0.0
C120 C 1.01128 0.7285 0.97203 0.0
O121 O 0.98881 0.78762 0.0434 0.0
C122 C 0.06186 0.79164 0.98795 0.0
O123 O 0.06121 0.79859 0.01592 0.0
H124 H 0.96217 0.78499 0.98154 0.0
H125 H 0.03153 0.71423 0.97419 0.0
N126 N 0.04028 0.7401 0.03553 0.0
N127 N 0.06839 0.72609 0.07256 0.0
C128 C 0.05097 0.74807 0.05736 0.0
C129 C 0.05067 0.7117 0.03721 0.0
C130 C 0.0684 0.70296 0.06006 0.0
C131 C 0.9789 0.77048 0.0615 0.0
O132 O 0.98768 0.74371 0.05622 0.0
H133 H 0.04653 0.76997 0.06122 0.0
H134 H 0.04605 0.69833 0.02286 0.0
O135 O 0.04311 0.78276 0.98155 0.0
H136 H 0.99662 0.70952 0.93855 0.0
H137 H 0.08056 0.68144 0.06658 0.0
Cu138 Cu 0.53797 0.53204 0.86447 0.0
N139 N 0.55157 0.5496 0.89001 0.0
N140 N 0.57505 0.5749 0.90369 0.0
C141 C 0.57278 0.55891 0.88245 0.0
C142 C 0.55447 0.57561 0.92544 0.0
C143 C 0.53988 0.56015 0.91678 0.0
O144 O 0.5695 0.50629 0.84164 0.0
C145 C 0.48949 0.56569 0.83199 0.0
O146 O 0.48729 0.54244 0.82386 0.0
H147 H 0.58505 0.55568 0.86074 0.0
H148 H 0.5212 0.55813 0.92826 0.0
N149 N 0.52097 0.50894 0.88895 0.0
N150 N 0.49785 0.4788 0.9012 0.0
C151 C 0.50665 0.49506 0.87844 0.0
C152 C 0.5219 0.5006 0.91938 0.0
C153 C 0.50754 0.48195 0.92705 0.0
C154 C 0.58552 0.48907 0.86044 0.0
O155 O 0.57894 0.49098 0.89012 0.0
H156 H 0.50361 0.49594 0.85437 0.0
H157 H 0.53281 0.50698 0.93481 0.0
O158 O 0.51022 0.56463 0.84497 0.0
H159 H 0.54963 0.5874 0.94549 0.0
H160 H 0.50438 0.47165 0.94976 0.0
Cu161 Cu 0.54562 0.5432 0.25796 0.0
N162 N 0.53053 0.52505 0.23459 0.0
N163 N 0.5051 0.5004 0.22408 0.0
C164 C 0.50911 0.51644 0.24418 0.0
C165 C 0.52471 0.49895 0.20093 0.0
C166 C 0.54037 0.51426 0.20747 0.0
O167 O 0.51649 0.57025 0.28069 0.0
C168 C 0.59381 0.50158 0.26506 0.0
O169 O 0.59546 0.50913 0.23527 0.0
H170 H 0.49765 0.52051 0.26627 0.0
H171 H 0.55828 0.51639 0.19402 0.0
N172 N 0.56434 0.56471 0.23333 0.0
N173 N 0.59244 0.58983 0.22216 0.0
C174 C 0.5821 0.57418 0.24416 0.0
C175 C 0.5633 0.57468 0.20333 0.0
C176 C 0.5806 0.59045 0.19639 0.0
C177 C 0.50257 0.5906 0.26296 0.0
O178 O 0.50785 0.59008 0.23297 0.0
H179 H 0.5871 0.56987 0.26792 0.0
H180 H 0.55071 0.57098 0.18776 0.0
O181 O 0.57239 0.51382 0.2815 0.0
H182 H 0.52786 0.48713 0.1811 0.0
H183 H 0.58446 0.60114 0.17414 0.0
Cu184 Cu 0.7791 0.57589 0.58183 0.0
N185 N 0.78744 0.58935 0.54088 0.0
N186 N 0.80164 0.60961 0.49654 0.0
C187 C 0.80593 0.60117 0.52667 0.0
C188 C 0.7797 0.60332 0.49184 0.0
C189 C 0.77092 0.59137 0.51897 0.0
O190 O 0.77102 0.60568 0.6098 0.0
C191 C 0.75871 0.53913 0.56156 0.0
O192 O 0.78418 0.5304 0.55097 0.0
H193 H 0.82161 0.6043 0.53809 0.0
H194 H 0.75252 0.58615 0.5228 0.0
N195 N 0.8053 0.54439 0.59937 0.0
N196 N 0.81954 0.50325 0.62846 0.0
C197 C 0.79826 0.52355 0.61691 0.0
C198 C 0.83217 0.53728 0.60021 0.0
C199 C 0.84102 0.51182 0.61838 0.0
C200 C 0.79053 0.61441 0.61319 0.0
O201 O 0.81358 0.60399 0.59699 0.0
H202 H 0.77767 0.52351 0.62155 0.0
H203 H 0.8444 0.54969 0.5887 0.0
O204 O 0.75019 0.56056 0.57731 0.0
H205 H 0.7696 0.60882 0.47074 0.0
H206 H 0.86159 0.50038 0.62344 0.0
Cu207 Cu 0.56183 0.80664 0.59471 0.0
N208 N 0.58668 0.78847 0.56222 0.0
N209 N 0.61724 0.78165 0.52045 0.0
C210 C 0.60473 0.79844 0.54347 0.0
C211 C 0.6063 0.76048 0.5252 0.0
C212 C 0.58787 0.76463 0.55063 0.0
O213 O 0.58219 0.81896 0.62125 0.0
C214 C 0.52076 0.82287 0.56032 0.0
O215 O 0.53014 0.79527 0.5603 0.0
H216 H 0.60813 0.81795 0.5464 0.0
H217 H 0.57547 0.75156 0.55934 0.0
N218 N 0.54271 0.78474 0.62059 0.0
N219 N 0.5077 0.7751 0.64948 0.0
C220 C 0.51812 0.79549 0.63602 0.0
C221 C 0.54807 0.75653 0.62472 0.0
C222 C 0.52669 0.75058 0.64237 0.0
C223 C 0.60159 0.79838 0.63188 0.0
O224 O 0.60495 0.773 0.62413 0.0
H225 H 0.50755 0.81795 0.63613 0.0
H226 H 0.56594 0.74131 0.61494 0.0
O227 O 0.53283 0.83525 0.57425 0.0
H228 H 0.61061 0.74322 0.51106 0.0
H229 H 0.52524 0.72967 0.64921 0.0
Cu230 Cu 0.28662 0.50396 0.53089 0.0
N231 N 0.30671 0.52262 0.50269 0.0
N232 N 0.31305 0.55906 0.47079 0.0
C233 C 0.29847 0.55103 0.49558 0.0
C234 C 0.33131 0.53479 0.46199 0.0
C235 C 0.3275 0.5124 0.48177 0.0
O236 O 0.26917 0.53188 0.55943 0.0
C237 C 0.27725 0.47313 0.49046 0.0
O238 O 0.30351 0.46307 0.49131 0.0
H239 H 0.28096 0.5654 0.50715 0.0
H240 H 0.33835 0.49022 0.48002 0.0
N241 N 0.30514 0.47116 0.55549 0.0
N242 N 0.31028 0.43774 0.59567 0.0
C243 C 0.2928 0.45957 0.5798 0.0
C244 C 0.33147 0.4561 0.55578 0.0
C245 C 0.33469 0.4355 0.58055 0.0
C246 C 0.28648 0.53429 0.57579 0.0
O247 O 0.31155 0.51768 0.57224 0.0
H248 H 0.27139 0.4678 0.58626 0.0
H249 H 0.34724 0.4602 0.53963 0.0
O250 O 0.26369 0.49274 0.50727 0.0
H251 H 0.34594 0.53327 0.44217 0.0
H252 H 0.35359 0.42011 0.58686 0.0
Cu253 Cu 0.50884 0.27903 0.5169 0.0
N254 N 0.53976 0.25842 0.49398 0.0
N255 N 0.58023 0.2488 0.46724 0.0
C256 C 0.55976 0.26851 0.48152 0.0
C257 C 0.57255 0.2254 0.47097 0.0
C258 C 0.54768 0.23139 0.48738 0.0
O259 O 0.52166 0.30393 0.53799 0.0
C260 C 0.4722 0.27443 0.47987 0.0
O261 O 0.48504 0.2482 0.4899 0.0
H262 H 0.55912 0.28997 0.48313 0.0
H263 H 0.53637 0.21691 0.49423 0.0
N264 N 0.49733 0.25621 0.54891 0.0
N265 N 0.47416 0.24545 0.59198 0.0
C266 C 0.47555 0.2655 0.56889 0.0
C267 C 0.50998 0.22929 0.55963 0.0
C268 C 0.49574 0.22263 0.58631 0.0
C269 C 0.53996 0.28992 0.55603 0.0
O270 O 0.5476 0.2622 0.55847 0.0
H271 H 0.46179 0.28697 0.56737 0.0
H272 H 0.5289 0.21587 0.54971 0.0
O273 O 0.47914 0.29403 0.48896 0.0
H274 H 0.5841 0.2051 0.46292 0.0
H275 H 0.50109 0.20279 0.60078 0.0
Gd276 Gd 0.271 0.27943 0.34428 0.0
Gd277 Gd 0.29638 0.31371 0.2891 0.0
C278 C 0.3036 0.2483 0.28413 0.0
C279 C 0.24027 0.25621 0.37967 0.0
C280 C 0.22372 0.2383 0.37864 0.0
C281 C 0.21794 0.22297 0.40597 0.0
C282 C 0.21442 0.23551 0.351 0.0
C283 C 0.19314 0.20218 0.37845 0.0
C284 C 0.19912 0.21758 0.35093 0.0
C285 C 0.20272 0.20512 0.40594 0.0
C286 C 0.31863 0.28301 0.35943 0.0
C287 C 0.26268 0.34531 0.34873 0.0
C288 C 0.32726 0.33802 0.25558 0.0
C289 C 0.34367 0.3561 0.25806 0.0
C290 C 0.33703 0.3831 0.24184 0.0
C291 C 0.36664 0.3464 0.27471 0.0
C292 C 0.37705 0.38973 0.25697 0.0
C293 C 0.38324 0.36307 0.27406 0.0
C294 C 0.35348 0.39984 0.24141 0.0
C295 C 0.25003 0.30772 0.27255 0.0
O296 O 0.28586 0.24854 0.30831 0.0
O297 O 0.31349 0.26934 0.27519 0.0
O298 O 0.2663 0.24385 0.37456 0.0
O299 O 0.23154 0.28221 0.36649 0.0
O300 O 0.30457 0.26898 0.37619 0.0
O301 O 0.30705 0.29302 0.33496 0.0
O302 O 0.27995 0.34523 0.32416 0.0
O303 O 0.25397 0.32364 0.3587 0.0
O304 O 0.30106 0.34992 0.25988 0.0
O305 O 0.33589 0.31154 0.26748 0.0
O306 O 0.26482 0.32079 0.25541 0.0
O307 O 0.26038 0.29993 0.29813 0.0
H308 H 0.2252 0.22485 0.42741 0.0
H309 H 0.2191 0.24703 0.32961 0.0
H310 H 0.19228 0.2155 0.32933 0.0
H311 H 0.19814 0.19393 0.4276 0.0
H312 H 0.31944 0.39096 0.22877 0.0
H313 H 0.37215 0.32575 0.28764 0.0
H314 H 0.40116 0.35495 0.28655 0.0
H315 H 0.34837 0.42018 0.22784 0.0
Gd316 Gd 0.79568 0.30134 0.33981 0.0
Gd317 Gd 0.78116 0.27446 0.29142 0.0
C318 C 0.75053 0.27166 0.35702 0.0
C319 C 0.79875 0.33538 0.3773 0.0
C320 C 0.78331 0.35756 0.39718 0.0
C321 C 0.79208 0.35629 0.42634 0.0
C322 C 0.76078 0.38 0.38773 0.0
C323 C 0.75662 0.40027 0.4364 0.0
C324 C 0.74757 0.40131 0.40721 0.0
C325 C 0.7789 0.37737 0.44576 0.0
C326 C 0.83159 0.24798 0.34105 0.0
C327 C 0.83218 0.29767 0.27653 0.0
C328 C 0.7723 0.24973 0.24796 0.0
C329 C 0.78135 0.23071 0.22334 0.0
C330 C 0.76862 0.23895 0.19582 0.0
C331 C 0.79875 0.20296 0.22874 0.0
C332 C 0.78781 0.19097 0.18104 0.0
C333 C 0.80196 0.18324 0.20774 0.0
C334 C 0.77183 0.21927 0.1748 0.0
C335 C 0.74493 0.32537 0.30337 0.0
O336 O 0.75769 0.29349 0.36121 0.0
O337 O 0.76214 0.25623 0.33396 0.0
O338 O 0.79736 0.31006 0.38621 0.0
O339 O 0.79924 0.34157 0.34732 0.0
O340 O 0.83018 0.26676 0.35898 0.0
O341 O 0.81314 0.25765 0.32287 0.0
O342 O 0.81995 0.28082 0.26864 0.0
O343 O 0.82436 0.31054 0.30192 0.0
O344 O 0.7751 0.27488 0.24313 0.0
O345 O 0.77486 0.23837 0.27651 0.0
O346 O 0.7388 0.30372 0.29851 0.0
O347 O 0.77017 0.31959 0.30098 0.0
H348 H 0.80951 0.33915 0.43393 0.0
H349 H 0.75363 0.38122 0.36529 0.0
H350 H 0.7304 0.41864 0.39942 0.0
H351 H 0.78679 0.37618 0.46774 0.0
H352 H 0.75498 0.26026 0.19135 0.0
H353 H 0.8087 0.19608 0.24993 0.0
H354 H 0.81431 0.16158 0.21335 0.0
H355 H 0.76109 0.22599 0.15417 0.0
Gd356 Gd 0.79627 0.75849 0.28656 0.0
Gd357 Gd 0.80637 0.80983 0.30774 0.0
C358 C 0.75673 0.79184 0.34255 0.0
C359 C 0.7879 0.71146 0.28176 0.0
C360 C 0.76552 0.70234 0.27483 0.0
C361 C 0.75322 0.71153 0.24692 0.0
C362 C 0.75684 0.68333 0.29628 0.0
C363 C 0.72512 0.68133 0.26142 0.0
C364 C 0.7368 0.67304 0.28975 0.0
C365 C 0.73322 0.70109 0.24027 0.0
C366 C 0.7738 0.80778 0.25248 0.0
C367 C 0.84551 0.77769 0.25068 0.0
C368 C 0.81457 0.85658 0.31368 0.0
C369 C 0.83716 0.86433 0.32212 0.0
C370 C 0.85084 0.85101 0.3484 0.0
C371 C 0.84503 0.88559 0.30371 0.0
C372 C 0.87934 0.88095 0.33816 0.0
C373 C 0.86596 0.8938 0.31159 0.0
C374 C 0.87167 0.85938 0.35645 0.0
C375 C 0.82895 0.76053 0.34171 0.0
O376 O 0.76726 0.76807 0.32911 0.0
O377 O 0.76556 0.81369 0.33393 0.0
O378 O 0.79883 0.72478 0.25918 0.0
O379 O 0.78512 0.72215 0.30806 0.0
O380 O 0.77789 0.78298 0.24389 0.0
O381 O 0.7762 0.80487 0.28108 0.0
O382 O 0.83601 0.80087 0.26531 0.0
O383 O 0.83613 0.75606 0.25856 0.0
O384 O 0.80281 0.84344 0.33556 0.0
O385 O 0.81789 0.8462 0.2871 0.0
O386 O 0.82267 0.78524 0.35137 0.0
O387 O 0.82698 0.76325 0.31297 0.0
H388 H 0.75936 0.72637 0.22996 0.0
H389 H 0.76586 0.6761 0.31803 0.0
H390 H 0.7306 0.65839 0.30689 0.0
H391 H 0.72475 0.70782 0.21819 0.0
H392 H 0.84537 0.83427 0.36285 0.0
H393 H 0.83478 0.89607 0.28335 0.0
H394 H 0.87123 0.91072 0.29727 0.0
H395 H 0.88182 0.84895 0.37687 0.0
Gd396 Gd 0.2824 0.78142 0.28432 0.0
Gd397 Gd 0.31502 0.79979 0.32669 0.0
C398 C 0.30303 0.83475 0.2607 0.0
C399 C 0.25376 0.77062 0.24785 0.0
C400 C 0.23422 0.77548 0.2252 0.0
C401 C 0.24324 0.76419 0.19675 0.0
C402 C 0.20651 0.78601 0.23377 0.0
C403 C 0.19725 0.77046 0.18751 0.0
C404 C 0.18814 0.7835 0.21504 0.0
C405 C 0.22487 0.76178 0.17796 0.0
C406 C 0.333 0.74675 0.29031 0.0
C407 C 0.2897 0.74914 0.35186 0.0
C408 C 0.35412 0.8042 0.35338 0.0
C409 C 0.36206 0.81065 0.38194 0.0
C410 C 0.35535 0.83866 0.38935 0.0
C411 C 0.3797 0.78879 0.39981 0.0
C412 C 0.38556 0.82289 0.43044 0.0
C413 C 0.39127 0.79481 0.42388 0.0
C414 C 0.36703 0.84471 0.41341 0.0
C415 C 0.26206 0.83166 0.33478 0.0
O416 O 0.28415 0.82308 0.25955 0.0
O417 O 0.32071 0.8254 0.2817 0.0
O418 O 0.27794 0.77211 0.23886 0.0
O419 O 0.24507 0.77638 0.2764 0.0
O420 O 0.31281 0.73843 0.28814 0.0
O421 O 0.32607 0.77345 0.28755 0.0
O422 O 0.3082 0.761 0.35469 0.0
O423 O 0.2736 0.75775 0.32917 0.0
O424 O 0.33844 0.82511 0.33641 0.0
O425 O 0.34906 0.78033 0.354 0.0
O426 O 0.28053 0.83299 0.35088 0.0
O427 O 0.27251 0.81227 0.31745 0.0
H428 H 0.26458 0.75562 0.18988 0.0
H429 H 0.19908 0.79455 0.25578 0.0
H430 H 0.16696 0.79017 0.22308 0.0
H431 H 0.23235 0.75207 0.15658 0.0
H432 H 0.34189 0.85603 0.37592 0.0
H433 H 0.38551 0.76708 0.3943 0.0
H434 H 0.40571 0.77757 0.43635 0.0
H435 H 0.36205 0.8665 0.41825 0.0
Gd436 Gd 0.29457 0.79021 0.83981 0.0
Gd437 Gd 0.27563 0.7747 0.79233 0.0
C438 C 0.23941 0.77664 0.85751 0.0
C439 C 0.30959 0.81693 0.87647 0.0
C440 C 0.29413 0.83854 0.89667 0.0
C441 C 0.30586 0.84301 0.92156 0.0
C442 C 0.26731 0.85434 0.89156 0.0
C443 C 0.26431 0.8798 0.93578 0.0
C444 C 0.25252 0.87501 0.91091 0.0
C445 C 0.29103 0.86353 0.94106 0.0
C446 C 0.31899 0.7335 0.83577 0.0
C447 C 0.32988 0.78845 0.77376 0.0
C448 C 0.25696 0.75286 0.75395 0.0
C449 C 0.26668 0.73511 0.72862 0.0
C450 C 0.2485 0.73571 0.70776 0.0
C451 C 0.29322 0.71665 0.7259 0.0
C452 C 0.28212 0.69671 0.68381 0.0
C453 C 0.30091 0.69745 0.70356 0.0
C454 C 0.25614 0.71667 0.68547 0.0
C455 C 0.25358 0.83138 0.79651 0.0
O456 O 0.25358 0.79198 0.86427 0.0
O457 O 0.2469 0.76392 0.83186 0.0
O458 O 0.3071 0.79195 0.88442 0.0
O459 O 0.30807 0.82476 0.84694 0.0
O460 O 0.30961 0.74517 0.86114 0.0
O461 O 0.31404 0.75232 0.81338 0.0
O462 O 0.31642 0.77217 0.76767 0.0
O463 O 0.32232 0.80145 0.79926 0.0
O464 O 0.25925 0.77809 0.74869 0.0
O465 O 0.26325 0.74056 0.78142 0.0
O466 O 0.26475 0.81991 0.77147 0.0
O467 O 0.25644 0.81236 0.81863 0.0
H468 H 0.3265 0.8308 0.92578 0.0
H469 H 0.25791 0.85077 0.87252 0.0
H470 H 0.23194 0.8872 0.90647 0.0
H471 H 0.3007 0.86715 0.9598 0.0
H472 H 0.228 0.75007 0.70961 0.0
H473 H 0.30756 0.71634 0.74175 0.0
H474 H 0.32114 0.68247 0.70256 0.0
H475 H 0.24108 0.71639 0.67093 0.0
Gd476 Gd 0.28295 0.25311 0.80179 0.0
Gd477 Gd 0.31109 0.29061 0.83437 0.0
C478 C 0.25069 0.28832 0.85862 0.0
C479 C 0.26986 0.21146 0.78809 0.0
C480 C 0.24611 0.20536 0.78052 0.0
C481 C 0.23436 0.21636 0.75255 0.0
C482 C 0.23586 0.18693 0.8011 0.0
C483 C 0.20306 0.18972 0.76558 0.0
C484 C 0.21449 0.17925 0.79377 0.0
C485 C 0.21301 0.20854 0.74513 0.0
C486 C 0.27256 0.3071 0.7745 0.0
C487 C 0.34242 0.25755 0.77604 0.0
C488 C 0.3237 0.33183 0.84991 0.0
C489 C 0.34733 0.33889 0.85621 0.0
C490 C 0.35111 0.34156 0.88668 0.0
C491 C 0.36467 0.34578 0.83188 0.0
C492 C 0.38726 0.36075 0.8681 0.0
C493 C 0.38448 0.35658 0.8378 0.0
C494 C 0.37103 0.35228 0.8926 0.0
C495 C 0.32252 0.23603 0.86071 0.0
O496 O 0.25234 0.26825 0.84099 0.0
O497 O 0.2686 0.30189 0.85645 0.0
O498 O 0.28006 0.22731 0.76754 0.0
O499 O 0.2697 0.21692 0.81654 0.0
O500 O 0.26266 0.28893 0.76615 0.0
O501 O 0.28406 0.29593 0.79867 0.0
O502 O 0.34136 0.27654 0.79481 0.0
O503 O 0.32476 0.24369 0.77768 0.0
O504 O 0.316 0.31385 0.87013 0.0
O505 O 0.32166 0.32853 0.82123 0.0
O506 O 0.33227 0.25424 0.86913 0.0
O507 O 0.30977 0.24779 0.83757 0.0
H508 H 0.24185 0.23064 0.73621 0.0
H509 H 0.24476 0.17798 0.82266 0.0
H510 H 0.20752 0.16435 0.80976 0.0
H511 H 0.2044 0.21706 0.72334 0.0
H512 H 0.33791 0.33654 0.90583 0.0
H513 H 0.36232 0.34391 0.80813 0.0
H514 H 0.39701 0.36262 0.81855 0.0
H515 H 0.37264 0.35549 0.91615 0.0
Gd516 Gd 0.77463 0.28352 0.78243 0.0
Gd517 Gd 0.81267 0.29511 0.82776 0.0
C518 C 0.80233 0.33268 0.7626 0.0
C519 C 0.73975 0.28081 0.74765 0.0
C520 C 0.71862 0.29109 0.72566 0.0
C521 C 0.72398 0.2808 0.69646 0.0
C522 C 0.69215 0.3073 0.73489 0.0
C523 C 0.67653 0.30128 0.68681 0.0
C524 C 0.67137 0.31239 0.71566 0.0
C525 C 0.70324 0.28587 0.67725 0.0
C526 C 0.82441 0.2455 0.78582 0.0
C527 C 0.7829 0.24793 0.84901 0.0
C528 C 0.85503 0.29225 0.85411 0.0
C529 C 0.86991 0.28762 0.88209 0.0
C530 C 0.86619 0.3094 0.90101 0.0
C531 C 0.89109 0.26221 0.88724 0.0
C532 C 0.90564 0.28091 0.92822 0.0
C533 C 0.90865 0.25888 0.90995 0.0
C534 C 0.88376 0.30601 0.92394 0.0
C535 C 0.76027 0.32952 0.83657 0.0
O536 O 0.78254 0.32292 0.759 0.0
O537 O 0.81884 0.3222 0.78474 0.0
O538 O 0.76503 0.27734 0.73765 0.0
O539 O 0.73367 0.28668 0.77654 0.0
O540 O 0.80342 0.23953 0.7807 0.0
O541 O 0.81869 0.27196 0.78633 0.0
O542 O 0.80204 0.25825 0.8535 0.0
O543 O 0.76705 0.25756 0.82606 0.0
O544 O 0.83537 0.31595 0.84873 0.0
O545 O 0.85127 0.27038 0.84443 0.0
O546 O 0.77946 0.32898 0.85285 0.0
O547 O 0.77011 0.31064 0.81844 0.0
H548 H 0.74408 0.26772 0.68899 0.0
H549 H 0.68728 0.31529 0.75739 0.0
H550 H 0.65114 0.32469 0.72366 0.0
H551 H 0.70801 0.2766 0.65547 0.0
H552 H 0.85035 0.32944 0.89741 0.0
H553 H 0.89479 0.24515 0.87285 0.0
H554 H 0.92492 0.23909 0.91284 0.0
H555 H 0.88087 0.32353 0.93737 0.0
Gd556 Gd 0.76019 0.78493 0.8239 0.0
Gd557 Gd 0.79177 0.80699 0.77606 0.0
C558 C 0.78954 0.74654 0.76812 0.0
C559 C 0.73166 0.75932 0.86016 0.0
C560 C 0.71804 0.73827 0.85955 0.0
C561 C 0.7299 0.71032 0.87215 0.0
C562 C 0.69242 0.74618 0.84862 0.0
C563 C 0.69004 0.69904 0.8647 0.0
C564 C 0.67855 0.72671 0.85118 0.0
C565 C 0.71606 0.6908 0.87455 0.0
C566 C 0.80724 0.78463 0.84274 0.0
C567 C 0.75898 0.84639 0.83046 0.0
C568 C 0.82312 0.83039 0.74158 0.0
C569 C 0.83727 0.85071 0.74263 0.0
C570 C 0.83946 0.86864 0.71601 0.0
C571 C 0.84914 0.85206 0.76909 0.0
C572 C 0.86742 0.8875 0.74104 0.0
C573 C 0.8642 0.87037 0.76827 0.0
C574 C 0.85434 0.88695 0.71521 0.0
C575 C 0.74546 0.80744 0.75585 0.0
O576 O 0.76887 0.75301 0.78904 0.0
O577 O 0.80523 0.76257 0.76216 0.0
O578 O 0.75798 0.75001 0.857 0.0
O579 O 0.72135 0.78435 0.84551 0.0
O580 O 0.78434 0.7916 0.85888 0.0
O581 O 0.80477 0.77733 0.81701 0.0
O582 O 0.78013 0.84027 0.81003 0.0
O583 O 0.74435 0.82939 0.83685 0.0
O584 O 0.79687 0.84079 0.74272 0.0
O585 O 0.83192 0.80592 0.75783 0.0
O586 O 0.76842 0.8018 0.73977 0.0
O587 O 0.74715 0.81418 0.78227 0.0
H588 H 0.74955 0.70374 0.88101 0.0
H589 H 0.68275 0.76757 0.83883 0.0
H590 H 0.65858 0.73343 0.84313 0.0
H591 H 0.72522 0.66967 0.88535 0.0
H592 H 0.83008 0.86807 0.69556 0.0
H593 H 0.84734 0.83853 0.79002 0.0
H594 H 0.87414 0.87033 0.78848 0.0
H595 H 0.85601 0.90033 0.69414 0.0
H596 H 0.11318 0.07781 0.43538 0.0
H597 H 0.14839 0.21134 0.34759 0.0
H598 H 0.08016 0.11963 0.35008 0.0
H599 H 0.20037 0.15012 0.41045 0.0
H600 H 0.12029 0.18083 0.35097 0.0
H601 H 0.14222 0.10757 0.43016 0.0
C602 C 0.11202 0.09339 0.41565 0.0
C603 C 0.09439 0.09636 0.39309 0.0
C604 C 0.13795 0.17407 0.36387 0.0
C605 C 0.12729 0.13037 0.38696 0.0
C606 C 0.15406 0.19137 0.36183 0.0
C607 C 0.1767 0.18333 0.37887 0.0
C608 C 0.14441 0.14872 0.38327 0.0
C609 C 0.18283 0.15743 0.39736 0.0
C610 C 0.12866 0.11019 0.41254 0.0
C611 C 0.09373 0.1166 0.36775 0.0
N612 N 0.16668 0.14113 0.39922 0.0
N613 N 0.10985 0.13302 0.36544 0.0
H614 H 0.95683 0.0839 0.31313 0.0
H615 H 0.87274 0.23252 0.37668 0.0
H616 H 0.98401 0.12807 0.37335 0.0
H617 H 0.84418 0.20366 0.3032 0.0
H618 H 0.91291 0.19222 0.3751 0.0
H619 H 0.91578 0.12559 0.30706 0.0
C620 C 0.95453 0.10265 0.32424 0.0
C621 C 0.97388 0.10277 0.34352 0.0
C622 C 0.89807 0.19436 0.35918 0.0
C623 C 0.92714 0.14977 0.33743 0.0
C624 C 0.87482 0.2175 0.36019 0.0
C625 C 0.85491 0.22158 0.34004 0.0
C626 C 0.90185 0.17449 0.33798 0.0
C627 C 0.85905 0.20124 0.31919 0.0
C628 C 0.93104 0.12624 0.32106 0.0
C629 C 0.96969 0.12716 0.35814 0.0
N630 N 0.88214 0.17838 0.31872 0.0
N631 N 0.94687 0.14943 0.3549 0.0
H632 H 0.97012 0.95581 0.43215 0.0
H633 H 0.92041 0.8927 0.30095 0.0
H634 H 0.99611 0.96408 0.33524 0.0
H635 H 0.8865 0.89187 0.3956 0.0
H636 H 0.95226 0.9139 0.31477 0.0
H637 H 0.94302 0.92762 0.42082 0.0
C638 C 0.97022 0.95157 0.40856 0.0
C639 C 0.9851 0.96258 0.38457 0.0
C640 C 0.93797 0.90896 0.3326 0.0
C641 C 0.95432 0.93047 0.37143 0.0
C642 C 0.91976 0.89692 0.32469 0.0
C643 C 0.90059 0.89087 0.34707 0.0
C644 C 0.93699 0.91513 0.36313 0.0
C645 C 0.901 0.89618 0.37764 0.0
C646 C 0.95472 0.93558 0.40209 0.0
C647 C 0.98448 0.95658 0.35436 0.0
N648 N 0.91876 0.90827 0.38474 0.0
N649 N 0.96931 0.941 0.34867 0.0
H650 H 0.11067 0.9458 0.39571 0.0
H651 H 0.22977 0.85322 0.28634 0.0
H652 H 0.12008 0.97701 0.29996 0.0
H653 H 0.23261 0.85782 0.38325 0.0
H654 H 0.18595 0.8918 0.28763 0.0
H655 H 0.15071 0.90582 0.38788 0.0
C656 C 0.12116 0.94427 0.37285 0.0
C657 C 0.11216 0.96525 0.34861 0.0
C658 C 0.19618 0.8841 0.30854 0.0
C659 C 0.15869 0.91877 0.33949 0.0
C660 C 0.22092 0.86196 0.30794 0.0
C661 C 0.23453 0.85216 0.33491 0.0
C662 C 0.18495 0.89577 0.33647 0.0
C663 C 0.22267 0.86458 0.36206 0.0
C664 C 0.14414 0.92129 0.36844 0.0
C665 C 0.12642 0.96144 0.31934 0.0
N666 N 0.19859 0.8855 0.36217 0.0
N667 N 0.14928 0.93866 0.31559 0.0
H668 H 0.12972 0.97454 0.72433 0.0
H669 H 0.21338 0.8514 0.84259 0.0
H670 H 0.09811 0.9636 0.81902 0.0
H671 H 0.23994 0.87089 0.74789 0.0
H672 H 0.17196 0.89227 0.83708 0.0
H673 H 0.17036 0.93667 0.73499 0.0
C674 C 0.13126 0.96418 0.7476 0.0
C675 C 0.11016 0.97242 0.77077 0.0
C676 C 0.18702 0.88769 0.81769 0.0
C677 C 0.15775 0.92812 0.78335 0.0
C678 C 0.21072 0.86451 0.82083 0.0
C679 C 0.23022 0.85779 0.79562 0.0
C680 C 0.18292 0.90413 0.78915 0.0
C681 C 0.22559 0.87524 0.76794 0.0
C682 C 0.15477 0.94237 0.7537 0.0
C683 C 0.11384 0.95802 0.80045 0.0
N684 N 0.20249 0.89736 0.76548 0.0
N685 N 0.13722 0.93638 0.80592 0.0
H686 H 0.07737 0.1152 0.77614 0.0
H687 H 0.19884 0.17299 0.71005 0.0
H688 H 0.11558 0.1055 0.68367 0.0
H689 H 0.1593 0.18317 0.80196 0.0
H690 H 0.16616 0.15179 0.69826 0.0
H691 H 0.10529 0.14305 0.78465 0.0
C692 C 0.09172 0.11889 0.75764 0.0
C693 C 0.09443 0.10778 0.72926 0.0
C694 C 0.1645 0.15889 0.72091 0.0
C695 C 0.12629 0.13989 0.73871 0.0
C696 C 0.18301 0.17117 0.72758 0.0
C697 C 0.18183 0.17967 0.75709 0.0
C698 C 0.14474 0.15508 0.74394 0.0
C699 C 0.16116 0.17648 0.77907 0.0
C700 C 0.10753 0.13497 0.76243 0.0
C701 C 0.11285 0.11379 0.70583 0.0
N702 N 0.14352 0.16427 0.77211 0.0
N703 N 0.12828 0.12929 0.71115 0.0
H704 H 0.9893 0.14143 0.7541 0.0
H705 H 0.83267 0.19006 0.80264 0.0
H706 H 0.94926 0.08508 0.80404 0.0
H707 H 0.8757 0.25017 0.7784 0.0
H708 H 0.87538 0.15174 0.80424 0.0
H709 H 0.94884 0.18169 0.7642 0.0
C710 C 0.97214 0.13767 0.76795 0.0
C711 C 0.97268 0.10999 0.77871 0.0
C712 C 0.87563 0.17327 0.79897 0.0
C713 C 0.92597 0.15585 0.78938 0.0
C714 C 0.85122 0.19522 0.79794 0.0
C715 C 0.85067 0.22334 0.79022 0.0
C716 C 0.89987 0.17929 0.79179 0.0
C717 C 0.87528 0.22878 0.7845 0.0
C718 C 0.94903 0.16064 0.77357 0.0
C719 C 0.94982 0.10615 0.79594 0.0
N720 N 0.89895 0.20687 0.78498 0.0
N721 N 0.92722 0.1288 0.80034 0.0
H722 H 0.9538 1.001 0.76771 0.0
H723 H 0.90395 0.89266 0.69321 0.0
H724 H 0.99368 0.95835 0.68708 0.0
H725 H 0.87298 0.92056 0.78343 0.0
H726 H 0.93437 0.92034 0.68891 0.0
H727 H 0.92186 0.97478 0.77255 0.0
C728 C 0.95602 0.98615 0.75106 0.0
C729 C 0.97669 0.98199 0.72693 0.0
C730 C 0.92094 0.92048 0.70968 0.0
C731 C 0.93981 0.95227 0.73216 0.0
C732 C 0.9034 0.90485 0.71204 0.0
C733 C 0.88576 0.90451 0.73862 0.0
C734 C 0.92095 0.93594 0.73408 0.0
C735 C 0.88636 0.92017 0.76261 0.0
C736 C 0.93765 0.97127 0.75382 0.0
C737 C 0.97806 0.96272 0.70583 0.0
N738 N 0.90368 0.93537 0.75974 0.0
N739 N 0.95989 0.94866 0.70895 0.0
H740 H 0.2701 0.17737 0.13638 0.0
H741 H 0.30363 0.19379 0.29944 0.0
H742 H 0.30796 0.10306 0.19554 0.0
H743 H 0.31351 0.25241 0.22156 0.0
H744 H 0.30316 0.16036 0.26362 0.0
H745 H 0.28309 0.20633 0.16867 0.0
C746 C 0.28147 0.16726 0.15604 0.0
C747 C 0.28816 0.13801 0.16347 0.0
C748 C 0.30604 0.18029 0.25446 0.0
C749 C 0.30245 0.1707 0.20074 0.0
C750 C 0.30632 0.19934 0.27482 0.0
C751 C 0.30878 0.22582 0.26342 0.0
C752 C 0.30737 0.1882 0.22256 0.0
C753 C 0.3119 0.23209 0.23133 0.0
C754 C 0.28894 0.18364 0.17433 0.0
C755 C 0.30272 0.12561 0.18917 0.0
N756 N 0.31054 0.21366 0.212 0.0
N757 N 0.30902 0.14212 0.20732 0.0
H758 H 0.97542 0.2837 0.14929 0.0
H759 H 0.85907 0.33366 0.28444 0.0
H760 H 0.96631 0.35216 0.20403 0.0
H761 H 0.86044 0.27039 0.22596 0.0
H762 H 0.89939 0.33906 0.25542 0.0
H763 H 0.93473 0.27675 0.17744 0.0
C764 C 0.965 0.29725 0.16722 0.0
C765 C 0.97441 0.31869 0.17418 0.0
C766 C 0.89091 0.32404 0.24873 0.0
C767 C 0.92767 0.3109 0.20624 0.0
C768 C 0.86776 0.32092 0.26535 0.0
C769 C 0.85616 0.30159 0.2576 0.0
C770 C 0.90287 0.30772 0.22403 0.0
C771 C 0.86857 0.28568 0.23262 0.0
C772 C 0.94166 0.29333 0.18314 0.0
C773 C 0.95976 0.3357 0.19744 0.0
N774 N 0.89134 0.28905 0.21671 0.0
N775 N 0.93725 0.33141 0.21257 0.0
H776 H 0.84563 0.88294 0.09434 0.0
H777 H 0.76155 0.86539 0.25606 0.0
H778 H 0.78051 0.95303 0.12884 0.0
H779 H 0.80404 0.7982 0.19848 0.0
H780 H 0.77417 0.89927 0.21594 0.0
H781 H 0.83718 0.85282 0.13984 0.0
C782 C 0.82976 0.89208 0.11166 0.0
C783 C 0.81364 0.92045 0.10764 0.0
C784 C 0.78067 0.87703 0.21241 0.0
C785 C 0.80357 0.88601 0.15972 0.0
C786 C 0.77351 0.85783 0.23516 0.0
C787 C 0.78133 0.82912 0.23031 0.0
C788 C 0.79624 0.86706 0.18531 0.0
C789 C 0.79706 0.82021 0.20303 0.0
C790 C 0.82479 0.87485 0.13755 0.0
C791 C 0.7931 0.93111 0.1308 0.0
N792 N 0.80401 0.83904 0.18173 0.0
N793 N 0.78853 0.91382 0.15588 0.0
H794 H 0.11829 0.6903 0.08423 0.0
H795 H 0.1467 0.80403 0.17433 0.0
H796 H 0.05832 0.76816 0.10945 0.0
H797 H 0.20446 0.72136 0.16228 0.0
H798 H 0.1143 0.79111 0.14936 0.0
H799 H 0.15022 0.70014 0.11357 0.0
C800 C 0.11172 0.70919 0.09627 0.0
C801 C 0.08579 0.72866 0.0939 0.0
C802 C 0.13407 0.77577 0.15215 0.0
C803 C 0.1222 0.74044 0.12656 0.0
C804 C 0.15253 0.78317 0.16637 0.0
C805 C 0.17823 0.76376 0.17031 0.0
C806 C 0.14139 0.74877 0.14175 0.0
C807 C 0.18494 0.73711 0.15926 0.0
C808 C 0.13 0.71496 0.11271 0.0
C809 C 0.07833 0.75292 0.10987 0.0
N810 N 0.16658 0.73037 0.14545 0.0
N811 N 0.09655 0.75829 0.12516 0.0
H812 H 0.23931 0.98542 0.07871 0.0
H813 H 0.23479 0.93396 0.91703 0.0
H814 H 0.21184 0.0421 0.9983 0.0
H815 H 0.26066 0.87791 0.99853 0.0
H816 H 0.2172 0.97362 0.94881 0.0
H817 H 0.2381 0.94595 0.05258 0.0
C818 C 0.23257 0.98952 0.05569 0.0
C819 C 0.22602 0.01684 0.0404 0.0
C820 C 0.22628 0.95258 0.95985 0.0
C821 C 0.22499 0.97193 1.01013 0.0
C822 C 0.2362 0.92994 0.94174 0.0
C823 C 0.24957 0.90281 0.95521 0.0
C824 C 0.22994 0.94796 0.99153 0.0
C825 C 0.25101 0.89869 0.98724 0.0
C826 C 0.23186 0.96706 0.04077 0.0
C827 C 0.21706 0.02129 1.0108 0.0
N828 N 0.24166 0.92112 1.00428 0.0
N829 N 0.21731 0.99892 0.99633 0.0
H830 H 0.12349 0.27896 0.99974 0.0
H831 H 0.23933 0.32863 0.8991 0.0
H832 H 0.14231 0.35342 1.01348 0.0
H833 H 0.21247 0.26208 0.87583 0.0
H834 H 0.20533 0.33638 0.94271 0.0
H835 H 0.15789 0.27045 0.95616 0.0
C836 C 0.13492 0.29346 0.99365 0.0
C837 C 0.12991 0.31707 1.01011 0.0
C838 C 0.20674 0.32023 0.92792 0.0
C839 C 0.16914 0.30756 0.96028 0.0
C840 C 0.22612 0.31582 0.9029 0.0
C841 C 0.22864 0.29483 0.88351 0.0
C842 C 0.18978 0.30347 0.93375 0.0
C843 C 0.2111 0.2787 0.88993 0.0
C844 C 0.15443 0.28868 0.96868 0.0
C845 C 0.14518 0.33528 1.00109 0.0
N846 N 0.19245 0.28332 0.91457 0.0
N847 N 0.16413 0.33011 0.97682 0.0
H848 H 0.81293 0.07001 0.89264 0.0
H849 H 0.79719 0.23004 0.90783 0.0
H850 H 0.80467 0.10183 0.98117 0.0
H851 H 0.76945 0.20483 0.83113 0.0
H852 H 0.80404 0.18253 0.93425 0.0
H853 H 0.80203 0.11867 0.86796 0.0
C854 C 0.80913 0.08726 0.90676 0.0
C855 C 0.80986 0.08206 0.93886 0.0
C856 C 0.79607 0.18757 0.91184 0.0
C857 C 0.79732 0.13746 0.91107 0.0
C858 C 0.79206 0.21466 0.89685 0.0
C859 C 0.78242 0.22144 0.86748 0.0
C860 C 0.79108 0.16697 0.89696 0.0
C861 C 0.77645 0.20063 0.85402 0.0
C862 C 0.80262 0.11496 0.89279 0.0
C863 C 0.80427 0.1051 0.95632 0.0
N864 N 0.78123 0.17417 0.86869 0.0
N865 N 0.79844 0.13183 0.94219 0.0
H866 H 0.92001 0.78347 0.96996 0.0
H867 H 0.85992 0.75856 0.82023 0.0
H868 H 0.96839 0.73111 0.8999 0.0
H869 H 0.81207 0.80337 0.89594 0.0
H870 H 0.90074 0.7512 0.84651 0.0
H871 H 0.88084 0.79408 0.94059 0.0
C872 C 0.92248 0.77432 0.94836 0.0
C873 C 0.9476 0.75618 0.93761 0.0
C874 C 0.88126 0.76272 0.85725 0.0
C875 C 0.90265 0.7681 0.90379 0.0
C876 C 0.85805 0.76697 0.8422 0.0
C877 C 0.83263 0.78135 0.85607 0.0
C878 C 0.87889 0.77313 0.88615 0.0
C879 C 0.83126 0.79192 0.88454 0.0
C880 C 0.90004 0.78026 0.93161 0.0
C881 C 0.94941 0.74477 0.90947 0.0
N882 N 0.85398 0.78753 0.89862 0.0
N883 N 0.92727 0.75087 0.89359 0.0
H884 H 0.16945 0.27319 0.1308 0.0
H885 H 0.19978 0.30292 0.29698 0.0
H886 H 0.10698 0.29363 0.20494 0.0
H887 H 0.25586 0.29033 0.21598 0.0
H888 H 0.1667 0.29345 0.26786 0.0
H889 H 0.20251 0.2724 0.16555 0.0
C890 C 0.16284 0.27656 0.15479 0.0
C891 C 0.1355 0.28259 0.16513 0.0
C892 C 0.18641 0.29241 0.25668 0.0
C893 C 0.17334 0.28322 0.20527 0.0
C894 C 0.20535 0.2976 0.27341 0.0
C895 C 0.23068 0.29748 0.25893 0.0
C896 C 0.19303 0.28675 0.22544 0.0
C897 C 0.2366 0.29084 0.22814 0.0
C898 C 0.18171 0.27652 0.17465 0.0
C899 C 0.12799 0.28795 0.19625 0.0
N900 N 0.21809 0.28588 0.21262 0.0
N901 N 0.1467 0.2884 0.21514 0.0
H902 H 0.09889 0.81833 0.99091 0.0
H903 H 0.20204 0.75091 0.8484 0.0
H904 H 0.08179 0.76324 0.93467 0.0
H905 H 0.21612 0.80462 0.90887 0.0
H906 H 0.15828 0.75493 0.87794 0.0
H907 H 0.14107 0.81406 0.95928 0.0
C908 C 0.10379 0.80547 0.9717 0.0
C909 C 0.08627 0.7913 0.96566 0.0
C910 C 0.17099 0.76575 0.88479 0.0
C911 C 0.13577 0.78586 0.9289 0.0
C912 C 0.19613 0.76338 0.86797 0.0
C913 C 0.21322 0.77725 0.87613 0.0
C914 C 0.16257 0.78226 0.91003 0.0
C915 C 0.20402 0.79331 0.90163 0.0
C916 C 0.12816 0.80294 0.95358 0.0
C917 C 0.09428 0.77489 0.94022 0.0
N918 N 0.17959 0.79534 0.91744 0.0
N919 N 0.11837 0.77252 0.92298 0.0
H920 H 0.34386 0.10122 1.01122 0.0
H921 H 0.28005 0.21509 0.87161 0.0
H922 H 0.25896 0.13565 0.99887 0.0
H923 H 0.35972 0.20092 0.89798 0.0
H924 H 0.27487 0.17806 0.9116 0.0
H925 H 0.35282 0.12997 0.96358 0.0
C926 C 0.32723 0.11433 0.9982 0.0
C927 C 0.30064 0.11614 1.00907 0.0
C928 C 0.29374 0.18261 0.90825 0.0
C929 C 0.31063 0.14891 0.95481 0.0
C930 C 0.29685 0.20343 0.88497 0.0
C931 C 0.32064 0.21055 0.88084 0.0
C932 C 0.31456 0.16877 0.92764 0.0
C933 C 0.3412 0.19577 0.90014 0.0
C934 C 0.33228 0.13089 0.9712 0.0
C935 C 0.27977 0.13376 0.99147 0.0
N936 N 0.33771 0.17565 0.92271 0.0
N937 N 0.28518 0.14941 0.96539 0.0
H938 H 0.98613 0.29057 0.08606 0.0
H939 H 0.9607 0.25648 0.9208 0.0
H940 H 0.0503 0.25901 0.0163 0.0
H941 H 0.89722 0.29894 0.98662 0.0
H942 H 0.99373 0.25193 0.95731 0.0
H943 H 0.95364 0.28722 0.05262 0.0
C944 C 0.99348 0.28183 0.06412 0.0
C945 C 0.02106 0.27419 0.05437 0.0
C946 C 0.97258 0.26213 0.96385 0.0
C947 C 0.98374 0.27156 0.0151 0.0
C948 C 0.9536 0.26462 0.94305 0.0
C949 C 0.92595 0.27799 0.95058 0.0
C950 C 0.964 0.27295 0.99266 0.0
C951 C 0.91824 0.28864 0.97959 0.0
C952 C 0.97486 0.28038 0.04479 0.0
C953 C 0.02935 0.26421 0.02514 0.0
N954 N 0.93709 0.28585 0.99949 0.0
N955 N 1.01077 0.26335 1.00646 0.0
H956 H 0.78708 0.9763 0.91807 0.0
H957 H 0.72762 0.8566 0.88531 0.0
H958 H 0.74176 0.93814 0.98789 0.0
H959 H 0.78157 0.88886 0.82101 0.0
H960 H 0.72609 0.89128 0.92048 0.0
H961 H 0.77803 0.95032 0.8796 0.0
C962 C 0.7744 0.9631 0.92501 0.0
C963 C 0.76464 0.95976 0.95595 0.0
C964 C 0.73795 0.89102 0.89849 0.0
C965 C 0.75508 0.92892 0.91233 0.0
C966 C 0.73873 0.87131 0.87827 0.0
C967 C 0.75473 0.86977 0.85005 0.0
C968 C 0.75314 0.90949 0.89039 0.0
C969 C 0.76895 0.88919 0.84246 0.0
C970 C 0.76951 0.94799 0.90315 0.0
C971 C 0.74906 0.94176 0.96406 0.0
N972 N 0.7679 0.90808 0.86252 0.0
N973 N 0.74496 0.92675 0.94242 0.0
H974 H 0.97122 0.80648 0.10867 0.0
H975 H 0.86015 0.74248 0.20391 0.0
H976 H 0.93702 0.7506 0.07447 0.0
H977 H 0.87723 0.81234 0.23429 0.0
H978 H 0.89093 0.74415 0.15781 0.0
H979 H 0.93899 0.80925 0.15537 0.0
C980 C 0.95656 0.79545 0.11046 0.0
C981 C 0.95676 0.77852 0.08714 0.0
C982 C 0.88814 0.7591 0.17456 0.0
C983 C 0.92044 0.78077 0.14108 0.0
C984 C 0.87061 0.75796 0.20117 0.0
C985 C 0.86606 0.77709 0.22345 0.0
C986 C 0.90172 0.77935 0.16986 0.0
C987 C 0.88008 0.79702 0.21795 0.0
C988 C 0.93836 0.79674 0.13735 0.0
C989 C 0.93772 0.76403 0.09152 0.0
N990 N 0.89727 0.79756 0.19194 0.0
N991 N 0.92072 0.76534 0.11768 0.0
H992 H 0.24907 0.99932 0.16287 0.0
H993 H 0.34428 0.85763 0.2443 0.0
H994 H 0.33489 0.97439 0.13872 0.0
H995 H 0.26189 0.87038 0.22827 0.0
H996 H 0.34249 0.9013 0.2106 0.0
H997 H 0.25454 0.95388 0.19221 0.0
C998 C 0.26922 0.98429 0.16369 0.0
C999 C 0.29158 0.99098 0.14821 0.0
C1000 C 0.32496 0.8943 0.21429 0.0
C1001 C 0.29794 0.93812 0.1824 0.0
C1002 C 0.3259 0.86945 0.23358 0.0
C1003 C 0.30322 0.86015 0.23907 0.0
C1004 C 0.30098 0.91032 0.20099 0.0
C1005 C 0.27996 0.87644 0.2246 0.0
C1006 C 0.27225 0.95813 0.18044 0.0
C1007 C 0.31707 0.97022 0.1502 0.0
N1008 N 0.27938 0.90074 0.2066 0.0
N1009 N 0.31962 0.94476 0.16725 0.0
H1010 H 0.74756 0.0821 0.06836 0.0
H1011 H 0.83093 0.14648 0.16259 0.0
H1012 H 0.82936 0.03991 0.09176 0.0
H1013 H 0.74557 0.18546 0.15445 0.0
H1014 H 0.83055 0.10861 0.1335 0.0
H1015 H 0.74569 0.12127 0.09796 0.0
C1016 C 0.76493 0.08092 0.07995 0.0
C1017 C 0.78866 0.05779 0.07745 0.0
C1018 C 0.81186 0.12545 0.13799 0.0
C1019 C 0.78687 0.10236 0.11066 0.0
C1020 C 0.8121 0.14708 0.15465 0.0
C1021 C 0.78826 0.16912 0.1611 0.0
C1022 C 0.78759 0.12575 0.12757 0.0
C1023 C 0.7645 0.16903 0.14972 0.0
C1024 C 0.76394 0.10328 0.09663 0.0
C1025 C 0.81067 0.05739 0.09275 0.0
N1026 N 0.76473 0.14761 0.13358 0.0
N1027 N 0.80927 0.07931 0.10846 0.0
H1028 H 0.56553 0.62511 0.92656 0.0
H1029 H 0.7059 0.64309 0.85443 0.0
H1030 H 0.62505 0.56272 0.87388 0.0
H1031 H 0.6382 0.71071 0.8892 0.0
H1032 H 0.67882 0.6112 0.86597 0.0
H1033 H 0.59464 0.65447 0.91835 0.0
C1034 C 0.58489 0.61739 0.9136 0.0
C1035 C 0.59289 0.59143 0.90085 0.0
C1036 C 0.66993 0.63305 0.87094 0.0
C1037 C 0.62612 0.6252 0.89088 0.0
C1038 C 0.68534 0.65116 0.86446 0.0
C1039 C 0.67409 0.67955 0.87062 0.0
C1040 C 0.64329 0.64344 0.88396 0.0
C1041 C 0.64743 0.68908 0.88359 0.0
C1042 C 0.60139 0.63432 0.90864 0.0
C1043 C 0.61802 0.58276 0.88379 0.0
N1044 N 0.63293 0.67103 0.88988 0.0
N1045 N 0.63379 0.59966 0.87922 0.0
H1046 H 0.47496 0.60902 0.86948 0.0
H1047 H 0.3437 0.7041 0.78587 0.0
H1048 H 0.44977 0.58248 0.79191 0.0
H1049 H 0.35088 0.70555 0.88249 0.0
H1050 H 0.38608 0.66426 0.78362 0.0
H1051 H 0.43344 0.6498 0.87024 0.0
C1052 C 0.46095 0.61201 0.85225 0.0
C1053 C 0.46598 0.59227 0.83046 0.0
C1054 C 0.37825 0.67323 0.80533 0.0
C1055 C 0.41836 0.63904 0.83124 0.0
C1056 C 0.35402 0.69587 0.80666 0.0
C1057 C 0.34342 0.70791 0.83453 0.0
C1058 C 0.39238 0.66295 0.83186 0.0
C1059 C 0.35799 0.69668 0.86062 0.0
C1060 C 0.43713 0.63516 0.8529 0.0
C1061 C 0.44678 0.59711 0.80907 0.0
N1062 N 0.38176 0.67505 0.8586 0.0
N1063 N 0.42396 0.62001 0.80988 0.0
H1064 H 0.45983 0.49074 0.86131 0.0
H1065 H 0.42213 0.34941 0.91334 0.0
H1066 H 0.49783 0.42911 0.93373 0.0
H1067 H 0.39138 0.40918 0.83604 0.0
H1068 H 0.44894 0.37852 0.92312 0.0
H1069 H 0.43307 0.46149 0.85381 0.0
C1070 C 0.4626 0.47089 0.87554 0.0
C1071 C 0.48122 0.46211 0.89793 0.0
C1072 C 0.4364 0.38511 0.90396 0.0
C1073 C 0.45054 0.42848 0.88966 0.0
C1074 C 0.42114 0.36857 0.8984 0.0
C1075 C 0.4048 0.3768 0.87366 0.0
C1076 C 0.43501 0.41008 0.88476 0.0
C1077 C 0.40415 0.40176 0.85497 0.0
C1078 C 0.44725 0.45423 0.87135 0.0
C1079 C 0.48358 0.43659 0.9163 0.0
N1080 N 0.41899 0.41752 0.86096 0.0
N1081 N 0.46846 0.4205 0.91166 0.0
H1082 H 0.62959 0.47284 0.89148 0.0
H1083 H 0.71965 0.34274 0.79634 0.0
H1084 H 0.60169 0.45638 0.80969 0.0
H1085 H 0.73974 0.36725 0.87849 0.0
H1086 H 0.67684 0.3828 0.79834 0.0
H1087 H 0.67061 0.43407 0.88406 0.0
C1088 C 0.63222 0.46117 0.87159 0.0
C1089 C 0.61196 0.46802 0.85126 0.0
C1090 C 0.69066 0.37923 0.8159 0.0
C1091 C 0.65977 0.42241 0.84254 0.0
C1092 C 0.71496 0.35629 0.81491 0.0
C1093 C 0.73325 0.35154 0.83744 0.0
C1094 C 0.68484 0.39738 0.83955 0.0
C1095 C 0.72635 0.36993 0.86068 0.0
C1096 C 0.65583 0.43876 0.86737 0.0
C1097 C 0.61685 0.452 0.82583 0.0
N1098 N 0.70295 0.3918 0.86105 0.0
N1099 N 0.64024 0.42971 0.82227 0.0
H1100 H 0.64637 0.4925 0.24651 0.0
H1101 H 0.69327 0.33604 0.32607 0.0
H1102 H 0.5938 0.45911 0.31157 0.0
H1103 H 0.74976 0.37803 0.28421 0.0
H1104 H 0.65685 0.3811 0.32225 0.0
H1105 H 0.68458 0.45145 0.26102 0.0
C1106 C 0.64299 0.47664 0.26426 0.0
C1107 C 0.61694 0.47913 0.27791 0.0
C1108 C 0.67722 0.38065 0.31434 0.0
C1109 C 0.66057 0.43181 0.29427 0.0
C1110 C 0.69801 0.35495 0.31647 0.0
C1111 C 0.72446 0.35343 0.30536 0.0
C1112 C 0.68282 0.40502 0.30048 0.0
C1113 C 0.72962 0.37842 0.29317 0.0
C1114 C 0.66482 0.45324 0.27254 0.0
C1115 C 0.61362 0.45806 0.30073 0.0
N1116 N 0.70886 0.40321 0.29061 0.0
N1117 N 0.63517 0.435 0.30788 0.0
H1118 H 0.63377 0.56854 0.25814 0.0
H1119 H 0.67916 0.70661 0.23069 0.0
H1120 H 0.5963 0.64006 0.19492 0.0
H1121 H 0.72638 0.62631 0.27411 0.0
H1122 H 0.64713 0.68424 0.21905 0.0
H1123 H 0.66628 0.59111 0.26658 0.0
C1124 C 0.63242 0.58908 0.24607 0.0
C1125 C 0.61234 0.60256 0.22591 0.0
C1126 C 0.66456 0.67159 0.23107 0.0
C1127 C 0.6495 0.62859 0.23536 0.0
C1128 C 0.6829 0.6843 0.23765 0.0
C1129 C 0.70542 0.6684 0.2537 0.0
C1130 C 0.66876 0.64286 0.24073 0.0
C1131 C 0.70904 0.63962 0.26236 0.0
C1132 C 0.65106 0.60191 0.25074 0.0
C1133 C 0.61167 0.62896 0.21047 0.0
N1134 N 0.69088 0.62786 0.25589 0.0
N1135 N 0.62991 0.64128 0.21568 0.0
H1136 H 0.49323 0.64515 0.2406 0.0
H1137 H 0.34452 0.69362 0.31729 0.0
H1138 H 0.46306 0.59193 0.31032 0.0
H1139 H 0.38244 0.7535 0.2714 0.0
H1140 H 0.38816 0.65666 0.31658 0.0
H1141 H 0.4538 0.68551 0.25301 0.0
C1142 C 0.47843 0.64214 0.25896 0.0
C1143 C 0.48129 0.61529 0.27455 0.0
C1144 C 0.38714 0.67793 0.30716 0.0
C1145 C 0.43591 0.6612 0.28841 0.0
C1146 C 0.36224 0.69904 0.3075 0.0
C1147 C 0.36003 0.72653 0.29427 0.0
C1148 C 0.41001 0.68421 0.29302 0.0
C1149 C 0.38346 0.73253 0.28193 0.0
C1150 C 0.45598 0.66518 0.26603 0.0
C1151 C 0.46164 0.6124 0.29803 0.0
N1152 N 0.40755 0.71133 0.28113 0.0
N1153 N 0.43947 0.63504 0.30392 0.0
H1154 H 0.45438 0.51791 0.25159 0.0
H1155 H 0.43147 0.37015 0.24433 0.0
H1156 H 0.51215 0.44862 0.20676 0.0
H1157 H 0.36569 0.4465 0.26105 0.0
H1158 H 0.46257 0.39755 0.23623 0.0
H1159 H 0.42248 0.49112 0.26041 0.0
C1160 C 0.46029 0.49707 0.24362 0.0
C1161 C 0.48584 0.48544 0.22836 0.0
C1162 C 0.44134 0.40832 0.24171 0.0
C1163 C 0.44977 0.45471 0.23854 0.0
C1164 C 0.42364 0.39266 0.24663 0.0
C1165 C 0.39603 0.40609 0.25354 0.0
C1166 C 0.43141 0.43759 0.24398 0.0
C1167 C 0.38685 0.43539 0.25566 0.0
C1168 C 0.4421 0.48188 0.24853 0.0
C1169 C 0.49252 0.45846 0.21826 0.0
N1170 N 0.40455 0.4502 0.251 0.0
N1171 N 0.47466 0.44392 0.22372 0.0
H1172 H 0.75174 0.63185 0.66147 0.0
H1173 H 0.82642 0.72994 0.71858 0.0
H1174 H 0.82563 0.64283 0.61707 0.0
H1175 H 0.75669 0.71393 0.7691 0.0
H1176 H 0.82593 0.69831 0.68098 0.0
H1177 H 0.75201 0.66286 0.70037 0.0
C1178 C 0.76786 0.64094 0.65973 0.0
C1179 C 0.78868 0.63466 0.63594 0.0
C1180 C 0.81083 0.70153 0.70041 0.0
C1181 C 0.78926 0.67 0.68043 0.0
C1182 C 0.81122 0.7195 0.72205 0.0
C1183 C 0.7917 0.72459 0.74726 0.0
C1184 C 0.79067 0.68854 0.70375 0.0
C1185 C 0.7723 0.71058 0.75021 0.0
C1186 C 0.76811 0.6585 0.68204 0.0
C1187 C 0.80918 0.64691 0.63501 0.0
N1188 N 0.7722 0.69337 0.72869 0.0
N1189 N 0.80893 0.66389 0.65682 0.0
H1190 H 0.4784 0.73903 0.65471 0.0
H1191 H 0.36146 0.82255 0.77571 0.0
H1192 H 0.47628 0.81865 0.68304 0.0
H1193 H 0.35685 0.75498 0.72772 0.0
H1194 H 0.40415 0.82082 0.74485 0.0
H1195 H 0.43517 0.74359 0.68418 0.0
C1196 C 0.46898 0.75747 0.66723 0.0
C1197 C 0.48141 0.77836 0.66636 0.0
C1198 C 0.39369 0.8065 0.74099 0.0
C1199 C 0.4311 0.78383 0.70053 0.0
C1200 C 0.36927 0.80746 0.75863 0.0
C1201 C 0.35525 0.78898 0.75434 0.0
C1202 C 0.40454 0.78662 0.71913 0.0
C1203 C 0.36663 0.76982 0.73186 0.0
C1204 C 0.44404 0.76016 0.68399 0.0
C1205 C 0.46758 0.80203 0.68282 0.0
N1206 N 0.39049 0.76905 0.71541 0.0
N1207 N 0.44336 0.80401 0.69934 0.0
H1208 H 0.26235 0.42907 0.61484 0.0
H1209 H 0.31633 0.32656 0.76553 0.0
H1210 H 0.34374 0.40775 0.63991 0.0
H1211 H 0.23918 0.34003 0.73238 0.0
H1212 H 0.32511 0.36049 0.72362 0.0
H1213 H 0.25217 0.40052 0.661 0.0
C1214 C 0.27809 0.41859 0.63009 0.0
C1215 C 0.30402 0.42091 0.6232 0.0
C1216 C 0.30605 0.3564 0.72583 0.0
C1217 C 0.29242 0.38776 0.67647 0.0
C1218 C 0.30082 0.33739 0.75019 0.0
C1219 C 0.27664 0.331 0.75306 0.0
C1220 C 0.28698 0.36906 0.70409 0.0
C1221 C 0.25791 0.34463 0.73132 0.0
C1222 C 0.27226 0.40211 0.65649 0.0
C1223 C 0.32359 0.40637 0.64391 0.0
N1224 N 0.26346 0.3629 0.70782 0.0
N1225 N 0.3174 0.39045 0.66953 0.0
H1226 H 0.58098 0.31084 0.5349 0.0
H1227 H 0.6256 0.29919 0.70594 0.0
H1228 H 0.53361 0.29405 0.61761 0.0
H1229 H 0.67615 0.31015 0.62339 0.0
H1230 H 0.58966 0.30271 0.67403 0.0
H1231 H 0.61349 0.31697 0.56676 0.0
C1232 C 0.57682 0.30974 0.55976 0.0
C1233 C 0.5541 0.30295 0.57366 0.0
C1234 C 0.60854 0.30453 0.66285 0.0
C1235 C 0.59178 0.30854 0.61036 0.0
C1236 C 0.62909 0.30271 0.68112 0.0
C1237 C 0.65405 0.30449 0.66746 0.0
C1238 C 0.61279 0.30817 0.63051 0.0
C1239 C 0.65741 0.30838 0.63504 0.0
C1240 C 0.59562 0.31271 0.57798 0.0
C1241 C 0.55042 0.30018 0.60601 0.0
N1242 N 0.6371 0.31002 0.61773 0.0
N1243 N 0.56908 0.30285 0.62323 0.0
H1244 H 0.74918 0.49114 0.58707 0.0
H1245 H 0.74052 0.45734 0.41928 0.0
H1246 H 0.73202 0.55456 0.50978 0.0
H1247 H 0.74549 0.3966 0.49923 0.0
H1248 H 0.72863 0.49513 0.45335 0.0
H1249 H 0.7384 0.45866 0.55786 0.0
C1250 C 0.74178 0.49869 0.56451 0.0
C1251 C 0.74102 0.52568 0.55101 0.0
C1252 C 0.73182 0.4736 0.46349 0.0
C1253 C 0.73027 0.48821 0.51663 0.0
C1254 C 0.73848 0.45201 0.44399 0.0
C1255 C 0.74448 0.42371 0.45642 0.0
C1256 C 0.73138 0.46683 0.49565 0.0
C1257 C 0.74171 0.41807 0.48866 0.0
C1258 C 0.73604 0.48001 0.54759 0.0
C1259 C 0.73237 0.53409 0.52124 0.0
N1260 N 0.73582 0.43936 0.50714 0.0
N1261 N 0.72789 0.51523 0.50478 0.0
H1262 H 0.63873 0.82555 0.50625 0.0
H1263 H 0.73119 0.75265 0.36045 0.0
H1264 H 0.64302 0.74556 0.47638 0.0
H1265 H 0.73288 0.83245 0.38446 0.0
H1266 H 0.6981 0.75156 0.4035 0.0
H1267 H 0.67231 0.83002 0.46333 0.0
C1268 C 0.64646 0.80893 0.49095 0.0
C1269 C 0.63736 0.78515 0.49546 0.0
C1270 C 0.70549 0.76947 0.39954 0.0
C1271 C 0.67603 0.79036 0.44589 0.0
C1272 C 0.72455 0.77016 0.37467 0.0
C1273 C 0.73502 0.79277 0.36838 0.0
C1274 C 0.69641 0.79152 0.41892 0.0
C1275 C 0.72532 0.81466 0.38812 0.0
C1276 C 0.66571 0.81158 0.46632 0.0
C1277 C 0.64861 0.76448 0.47445 0.0
N1278 N 0.70662 0.81349 0.4125 0.0
N1279 N 0.66703 0.76765 0.45096 0.0
H1280 H 0.30202 0.60844 0.49646 0.0
H1281 H 0.27439 0.70583 0.33732 0.0
H1282 H 0.31275 0.57393 0.40917 0.0
H1283 H 0.30652 0.73098 0.41051 0.0
H1284 H 0.27918 0.65998 0.3669 0.0
H1285 H 0.29491 0.65596 0.46877 0.0
C1286 C 0.30276 0.61093 0.4715 0.0
C1287 C 0.30825 0.5872 0.45504 0.0
C1288 C 0.28494 0.67563 0.37662 0.0
C1289 C 0.29955 0.64141 0.42335 0.0
C1290 C 0.28198 0.70198 0.35989 0.0
C1291 C 0.28984 0.72254 0.37152 0.0
C1292 C 0.29534 0.66977 0.40561 0.0
C1293 C 0.30008 0.71588 0.40069 0.0
C1294 C 0.29882 0.63795 0.45575 0.0
C1295 C 0.30895 0.59158 0.42269 0.0
N1296 N 0.30237 0.69018 0.41682 0.0
N1297 N 0.30444 0.61809 0.40796 0.0
H1298 H 0.43556 0.32513 0.45501 0.0
H1299 H 0.35914 0.23864 0.37987 0.0
H1300 H 0.45883 0.23436 0.45609 0.0
H1301 H 0.33555 0.32939 0.36352 0.0
H1302 H 0.39664 0.23859 0.4068 0.0
H1303 H 0.39953 0.32944 0.42141 0.0
C1304 C 0.43328 0.3062 0.44818 0.0
C1305 C 0.45042 0.27933 0.45868 0.0
C1306 C 0.38373 0.25867 0.397 0.0
C1307 C 0.40934 0.28409 0.42029 0.0
C1308 C 0.36236 0.25861 0.38125 0.0
C1309 C 0.34454 0.28391 0.36869 0.0
C1310 C 0.38741 0.28436 0.40112 0.0
C1311 C 0.34929 0.30929 0.37209 0.0
C1312 C 0.41272 0.30867 0.42898 0.0
C1313 C 0.44633 0.2556 0.44899 0.0
N1314 N 0.37014 0.30892 0.38825 0.0
N1315 N 0.42644 0.25859 0.43068 0.0
H1316 H 0.59734 0.8435 0.66522 0.0
H1317 H 0.74618 0.76985 0.71793 0.0
H1318 H 0.65007 0.76072 0.6443 0.0
H1319 H 0.6913 0.84043 0.76332 0.0
H1320 H 0.71027 0.76866 0.68946 0.0
H1321 H 0.63049 0.84587 0.69926 0.0
C1322 C 0.6158 0.82593 0.66768 0.0
C1323 C 0.62086 0.80184 0.65189 0.0
C1324 C 0.7057 0.78431 0.70583 0.0
C1325 C 0.65856 0.8044 0.69055 0.0
C1326 C 0.72629 0.78489 0.72228 0.0
C1327 C 0.72167 0.8051 0.74322 0.0
C1328 C 0.68003 0.80442 0.70971 0.0
C1329 C 0.69553 0.82428 0.74763 0.0
C1330 C 0.63457 0.82722 0.68723 0.0
C1331 C 0.64506 0.77967 0.65603 0.0
N1332 N 0.67561 0.82372 0.73067 0.0
N1333 N 0.66285 0.78157 0.67473 0.0
H1334 H 0.61786 0.21202 0.43096 0.0
H1335 H 0.71577 0.30599 0.39804 0.0
H1336 H 0.60007 0.29279 0.46711 0.0
H1337 H 0.72942 0.22873 0.3564 0.0
H1338 H 0.67412 0.3009 0.42495 0.0
H1339 H 0.65947 0.21721 0.4053 0.0
C1340 C 0.62252 0.23085 0.43373 0.0
C1341 C 0.60503 0.2519 0.45156 0.0
C1342 C 0.6863 0.28496 0.41008 0.0
C1343 C 0.6531 0.2581 0.42148 0.0
C1344 C 0.71022 0.28773 0.39483 0.0
C1345 C 0.72636 0.26752 0.37518 0.0
C1346 C 0.67845 0.26177 0.40579 0.0
C1347 C 0.7178 0.24466 0.37152 0.0
C1348 C 0.64641 0.23384 0.41879 0.0
C1349 C 0.61252 0.27596 0.4536 0.0
N1350 N 0.69446 0.2424 0.3867 0.0
N1351 N 0.63595 0.27837 0.43877 0.0
H1352 H 0.81173 0.60495 0.43552 0.0
H1353 H 0.83047 0.75677 0.40329 0.0
H1354 H 0.81771 0.65331 0.50685 0.0
H1355 H 0.83235 0.70645 0.3301 0.0
H1356 H 0.82907 0.71743 0.441 0.0
H1357 H 0.82276 0.63964 0.39641 0.0
C1358 C 0.81597 0.62264 0.44287 0.0
C1359 C 0.81385 0.62634 0.47438 0.0
C1360 C 0.82997 0.71476 0.41675 0.0
C1361 C 0.8261 0.66632 0.42985 0.0
C1362 C 0.83079 0.73727 0.39509 0.0
C1363 C 0.8312 0.735 0.36346 0.0
C1364 C 0.82941 0.68961 0.40688 0.0
C1365 C 0.83166 0.70919 0.35427 0.0
C1366 C 0.82215 0.64246 0.42057 0.0
C1367 C 0.81946 0.64954 0.48283 0.0
N1368 N 0.83047 0.68751 0.37596 0.0
N1369 N 0.825 0.66886 0.46065 0.0
H1370 H 0.50933 0.85947 0.50854 0.0
H1371 H 0.39664 0.79528 0.48762 0.0
H1372 H 0.47435 0.81469 0.58303 0.0
H1373 H 0.40862 0.86479 0.42555 0.0
H1374 H 0.4248 0.80332 0.52326 0.0
H1375 H 0.47113 0.86519 0.47859 0.0
C1376 C 0.49288 0.85218 0.51911 0.0
C1377 C 0.49456 0.83702 0.54828 0.0
C1378 C 0.42089 0.81717 0.5021 0.0
C1379 C 0.45194 0.84199 0.51398 0.0
C1380 C 0.40499 0.81242 0.48166 0.0
C1381 C 0.40032 0.82937 0.45361 0.0
C1382 C 0.4325 0.83881 0.4943 0.0
C1383 C 0.41152 0.85141 0.4471 0.0
C1384 C 0.47134 0.855 0.50192 0.0
C1385 C 0.4734 0.8269 0.56069 0.0
N1386 N 0.4274 0.85529 0.46714 0.0
N1387 N 0.45322 0.82904 0.54324 0.0
H1388 H 0.28805 0.47745 0.42903 0.0
H1389 H 0.23794 0.34972 0.40777 0.0
H1390 H 0.24116 0.44374 0.50134 0.0
H1391 H 0.27173 0.39593 0.33318 0.0
H1392 H 0.23406 0.38648 0.44126 0.0
H1393 H 0.27742 0.45099 0.39242 0.0
C1394 C 0.2748 0.46503 0.4369 0.0
C1395 C 0.26512 0.46297 0.46795 0.0
C1396 C 0.24186 0.38879 0.4174 0.0
C1397 C 0.25368 0.43161 0.42658 0.0
C1398 C 0.24402 0.36784 0.39821 0.0
C1399 C 0.2555 0.36952 0.36766 0.0
C1400 C 0.25132 0.41148 0.40595 0.0
C1401 C 0.26308 0.39347 0.35664 0.0
C1402 C 0.26885 0.44976 0.41608 0.0
C1403 C 0.24856 0.44615 0.47734 0.0
N1404 N 0.26116 0.41326 0.37584 0.0
N1405 N 0.24368 0.43068 0.45678 0.0
H1406 H 0.42054 0.27298 0.59338 0.0
H1407 H 0.39477 0.2552 0.77553 0.0
H1408 H 0.48422 0.22498 0.65077 0.0
H1409 H 0.33562 0.25368 0.71669 0.0
H1410 H 0.42724 0.25338 0.73002 0.0
H1411 H 0.38783 0.2761 0.63898 0.0
C1412 C 0.42756 0.26327 0.61563 0.0
C1413 C 0.45493 0.24842 0.61846 0.0
C1414 C 0.40718 0.25326 0.72722 0.0
C1415 C 0.41812 0.2522 0.67025 0.0
C1416 C 0.3888 0.25419 0.75305 0.0
C1417 C 0.36287 0.25388 0.74975 0.0
C1418 C 0.39917 0.253 0.69793 0.0
C1419 C 0.35575 0.25316 0.72015 0.0
C1420 C 0.409 0.2649 0.64145 0.0
C1421 C 0.4632 0.23619 0.64768 0.0
N1422 N 0.37377 0.25301 0.69522 0.0
N1423 N 0.44486 0.23848 0.67255 0.0
H1424 H 0.84995 0.47592 0.67567 0.0
H1425 H 0.77663 0.3575 0.71048 0.0
H1426 H 0.7869 0.47272 0.62386 0.0
H1427 H 0.83552 0.36363 0.76711 0.0
H1428 H 0.78151 0.39866 0.67729 0.0
H1429 H 0.84643 0.43363 0.70842 0.0
C1430 C 0.83558 0.46613 0.67106 0.0
C1431 C 0.8187 0.47778 0.64711 0.0
C1432 C 0.7934 0.39098 0.69696 0.0
C1433 C 0.81445 0.42961 0.68428 0.0
C1434 C 0.79063 0.36743 0.71592 0.0
C1435 C 0.80574 0.35698 0.74159 0.0
C1436 C 0.81135 0.40427 0.70372 0.0
C1437 C 0.82358 0.37078 0.74746 0.0
C1438 C 0.83343 0.44214 0.68981 0.0
C1439 C 0.80009 0.46458 0.64231 0.0
N1440 N 0.82585 0.39372 0.72871 0.0
N1441 N 0.7985 0.44121 0.66066 0.0
H1442 H 0.25599 0.58931 0.56219 0.0
H1443 H 0.30761 0.64098 0.70033 0.0
H1444 H 0.30668 0.53313 0.62943 0.0
H1445 H 0.26831 0.69797 0.62521 0.0
H1446 H 0.30759 0.60116 0.67443 0.0
H1447 H 0.25748 0.62983 0.58679 0.0
C1448 C 0.26669 0.58558 0.58271 0.0
C1449 C 0.28102 0.55808 0.59414 0.0
C1450 C 0.2992 0.62235 0.66341 0.0
C1451 C 0.28359 0.60379 0.62154 0.0
C1452 C 0.29958 0.64511 0.67798 0.0
C1453 C 0.2877 0.67283 0.66501 0.0
C1454 C 0.28665 0.62737 0.63583 0.0
C1455 C 0.27721 0.67689 0.63623 0.0
C1456 C 0.26798 0.6086 0.59636 0.0
C1457 C 0.29526 0.55415 0.62016 0.0
N1458 N 0.27661 0.65437 0.62274 0.0
N1459 N 0.29629 0.57678 0.63294 0.0
loop_
_geom_bond_atom_site_label_1
_geom_bond_atom_site_label_2
_geom_bond_distance
_geom_bond_site_symmetry_2
_ccdc_geom_bond_type
Cu0 N1 1.999 . S
Cu0 O6 1.974 1_545 S
Cu0 N11 1.985 1_545 S
Cu0 O20 1.959 1_455 S
N1 Cu0 1.999 . S
N1 C3 1.263 . S
N1 C5 1.389 . S
N2 C3 1.358 . S
N2 C4 1.400 . S
C3 N1 1.263 . S
C3 N2 1.358 . S
C3 H9 0.930 . S
C4 N2 1.400 . S
C4 C5 1.351 . S
C4 H21 0.930 . S
C5 N1 1.389 . S
C5 C4 1.351 . S
C5 H10 0.930 . S
O6 Cu0 1.974 1_565 S
O6 C16 1.282 . S
C7 O8 1.261 1_655 S
C7 O20 1.251 . S
O8 C7 1.261 1_455 S
H9 C3 0.930 . S
H10 C5 0.930 . S
N11 Cu0 1.985 1_565 S
N11 C13 1.335 1_455 S
N11 C14 1.390 . S
N12 C13 1.345 . S
N12 C15 1.336 1_655 S
C13 N11 1.335 1_655 S
C13 N12 1.345 . S
C13 H18 0.930 1_565 S
C14 N11 1.390 . S
C14 C15 1.346 . S
C14 H19 0.930 . S
C15 N12 1.336 1_455 S
C15 C14 1.346 . S
C15 H22 0.929 . S
C16 O6 1.282 . S
C16 O17 1.216 . S
O17 C16 1.216 . S
H18 C13 0.930 1_545 S
H19 C14 0.930 . S
O20 Cu0 1.959 1_655 S
O20 C7 1.251 . S
H21 C4 0.930 . S
H22 C15 0.929 . S
Cu23 N24 1.982 1_455 S
Cu23 O29 1.974 1_455 S
Cu23 N34 1.985 . S
Cu23 O43 1.959 . S
N24 Cu23 1.982 1_655 S
N24 C26 1.283 . S
N24 C28 1.390 1_645 S
N25 C26 1.358 . S
N25 C27 1.400 1_545 S
C26 N24 1.283 . S
C26 N25 1.358 . S
C26 H32 0.930 . S
C27 N25 1.400 1_565 S
C27 C28 1.351 1_655 S
C27 H44 0.930 . S
C28 N24 1.390 1_465 S
C28 C27 1.351 1_455 S
C28 H33 0.930 . S
O29 Cu23 1.974 1_655 S
O29 C39 1.282 . S
C30 O31 1.261 . S
C30 O43 1.251 . S
O31 C30 1.261 . S
H32 C26 0.930 . S
H33 C28 0.930 . S
N34 Cu23 1.985 . S
N34 C36 1.335 . S
N34 C37 1.390 . S
N35 C36 1.345 . S
N35 C38 1.336 . S
C36 N34 1.335 . S
C36 N35 1.345 . S
C36 H41 0.930 . S
C37 N34 1.390 . S
C37 C38 1.346 . S
C37 H42 0.930 . S
C38 N35 1.336 . S
C38 C37 1.346 . S
C38 H45 0.929 . S
C39 O29 1.282 . S
C39 O40 1.216 . S
O40 C39 1.216 . S
H41 C36 0.930 . S
H42 C37 0.930 . S
O43 Cu23 1.959 . S
O43 C30 1.251 . S
H44 C27 0.930 . S
H45 C38 0.929 . S
Cu46 N47 1.999 . S
Cu46 O52 1.974 . S
Cu46 N57 1.985 . S
Cu46 O66 1.959 . S
N47 Cu46 1.999 . S
N47 C49 1.263 . S
N47 C51 1.389 . S
N48 C49 1.358 . S
N48 C50 1.400 . S
C49 N47 1.263 . S
C49 N48 1.358 . S
C49 H55 0.930 . S
C50 N48 1.400 . S
C50 C51 1.351 . S
C50 H67 0.930 1_554 S
C51 N47 1.389 . S
C51 C50 1.351 . S
C51 H56 0.930 . S
O52 Cu46 1.974 . S
O52 C62 1.282 . S
C53 O54 1.261 . S
C53 O66 1.251 . S
O54 C53 1.261 . S
H55 C49 0.930 . S
H56 C51 0.930 . S
N57 Cu46 1.985 . S
N57 C59 1.335 . S
N57 C60 1.390 . S
N58 C59 1.345 . S
N58 C61 1.336 . S
C59 N57 1.335 . S
C59 N58 1.345 . S
C59 H64 0.930 . S
C60 N57 1.390 . S
C60 C61 1.346 . S
C60 H65 0.930 . S
C61 N58 1.336 . S
C61 C60 1.346 . S
C61 H68 0.929 . S
C62 O52 1.282 . S
C62 O63 1.216 . S
O63 C62 1.216 . S
H64 C59 0.930 . S
H65 C60 0.930 . S
O66 Cu46 1.959 . S
O66 C53 1.251 . S
H67 C50 0.930 1_556 S
H68 C61 0.929 . S
Cu69 N70 1.999 . S
Cu69 O75 1.974 . S
Cu69 N80 1.985 . S
Cu69 O89 1.959 . S
N70 Cu69 1.999 . S
N70 C72 1.263 . S
N70 C74 1.389 . S
N71 C72 1.358 . S
N71 C73 1.400 1_554 S
C72 N70 1.263 . S
C72 N71 1.358 . S
C72 H78 0.930 . S
C73 N71 1.400 1_556 S
C73 C74 1.351 1_556 S
C73 H90 0.930 . S
C74 N70 1.389 . S
C74 C73 1.351 1_554 S
C74 H79 0.935 . S
O75 Cu69 1.974 . S
O75 C85 1.282 . S
C76 O77 1.261 . S
C76 O89 1.251 . S
O77 C76 1.261 . S
H78 C72 0.930 . S
H79 C74 0.935 . S
N80 Cu69 1.985 . S
N80 C82 1.335 1_455 S
N80 C83 1.390 . S
N81 C82 1.345 . S
N81 C84 1.336 1_655 S
C82 N80 1.335 1_655 S
C82 N81 1.345 . S
C82 H87 0.930 . S
C83 N80 1.390 . S
C83 C84 1.346 . S
C83 H88 0.930 . S
C84 N81 1.336 1_455 S
C84 C83 1.346 . S
C84 H91 0.929 . S
C85 O75 1.282 . S
C85 O86 1.216 . S
O86 C85 1.216 . S
H87 C82 0.930 . S
H88 C83 0.930 . S
O89 Cu69 1.959 . S
O89 C76 1.251 . S
H90 C73 0.930 . S
H91 C84 0.929 . S
Cu92 N93 1.999 1_554 S
Cu92 O98 1.974 . S
Cu92 N103 1.985 1_545 S
Cu92 O112 1.959 1_544 S
N93 Cu92 1.999 1_556 S
N93 C95 1.263 . S
N93 C97 1.389 . S
N94 C95 1.358 . S
N94 C96 1.400 . S
C95 N93 1.263 . S
C95 N94 1.358 . S
C95 H101 0.930 . S
C96 N94 1.400 . S
C96 C97 1.351 . S
C96 H113 0.930 . S
C97 N93 1.389 . S
C97 C96 1.351 . S
C97 H102 0.930 . S
O98 Cu92 1.974 . S
O98 C108 1.282 . S
C99 O100 1.261 . S
C99 O112 1.251 . S
O100 C99 1.261 . S
H101 C95 0.930 . S
H102 C97 0.930 . S
N103 Cu92 1.985 1_565 S
N103 C105 1.335 . S
N103 C106 1.390 . S
N104 C105 1.345 . S
N104 C107 1.336 . S
C105 N103 1.335 . S
C105 N104 1.345 . S
C105 H110 0.930 . S
C106 N103 1.390 . S
C106 C107 1.346 . S
C106 H111 0.930 . S
C107 N104 1.336 . S
C107 C106 1.346 . S
C107 H114 0.929 . S
C108 O98 1.282 . S
C108 O109 1.216 . S
O109 C108 1.216 . S
H110 C105 0.930 . S
H111 C106 0.930 . S
O112 Cu92 1.959 1_566 S
O112 C99 1.251 . S
H113 C96 0.930 . S
H114 C107 0.929 . S
Cu115 N116 1.999 1_454 S
Cu115 O121 1.974 1_455 S
Cu115 N126 1.985 . S
Cu115 O135 1.959 1_554 S
N116 Cu115 1.999 1_656 S
N116 C118 1.263 . S
N116 C120 1.389 . S
N117 C118 1.358 . S
N117 C119 1.400 . S
C118 N116 1.263 . S
C118 N117 1.358 . S
C118 H124 0.930 . S
C119 N117 1.400 . S
C119 C120 1.351 . S
C119 H136 0.930 . S
C120 N116 1.389 . S
C120 C119 1.351 . S
C120 H125 0.930 1_655 S
O121 Cu115 1.974 1_655 S
O121 C131 1.282 . S
C122 O123 1.261 . S
C122 O135 1.251 . S
O123 C122 1.261 . S
H124 C118 0.930 . S
H125 C120 0.930 1_455 S
N126 Cu115 1.985 . S
N126 C128 1.335 . S
N126 C129 1.390 . S
N127 C128 1.345 . S
N127 C130 1.336 . S
C128 N126 1.335 . S
C128 N127 1.345 . S
C128 H133 0.930 . S
C129 N126 1.390 . S
C129 C130 1.346 . S
C129 H134 0.930 . S
C130 N127 1.336 . S
C130 C129 1.346 . S
C130 H137 0.929 . S
C131 O121 1.282 . S
C131 O132 1.216 . S
O132 C131 1.216 . S
H133 C128 0.930 . S
H134 C129 0.930 . S
O135 Cu115 1.959 1_556 S
O135 C122 1.251 . S
H136 C119 0.930 . S
H137 C130 0.929 . S
Cu138 N139 1.999 . S
Cu138 O144 1.974 . S
Cu138 N149 1.985 . S
Cu138 O158 1.959 . S
N139 Cu138 1.999 . S
N139 C141 1.263 . S
N139 C143 1.389 . S
N140 C141 1.358 . S
N140 C142 1.400 . S
C141 N139 1.263 . S
C141 N140 1.358 . S
C141 H147 0.930 . S
C142 N140 1.400 . S
C142 C143 1.351 . S
C142 H159 0.930 . S
C143 N139 1.389 . S
C143 C142 1.351 . S
C143 H148 0.930 . S
O144 Cu138 1.974 . S
O144 C154 1.282 . S
C145 O146 1.261 . S
C145 O158 1.251 . S
O146 C145 1.261 . S
H147 C141 0.930 . S
H148 C143 0.930 . S
N149 Cu138 1.985 . S
N149 C151 1.335 . S
N149 C152 1.390 . S
N150 C151 1.345 . S
N150 C153 1.336 . S
C151 N149 1.335 . S
C151 N150 1.345 . S
C151 H156 0.930 . S
C152 N149 1.390 . S
C152 C153 1.346 . S
C152 H157 0.930 . S
C153 N150 1.336 . S
C153 C152 1.346 . S
C153 H160 0.929 . S
C154 O144 1.282 . S
C154 O155 1.216 . S
O155 C154 1.216 . S
H156 C151 0.930 . S
H157 C152 0.930 . S
O158 Cu138 1.959 . S
O158 C145 1.251 . S
H159 C142 0.930 . S
H160 C153 0.929 . S
Cu161 N162 1.999 . S
Cu161 O167 1.974 . S
Cu161 N172 1.985 . S
Cu161 O181 1.959 . S
N162 Cu161 1.999 . S
N162 C164 1.263 . S
N162 C166 1.389 . S
N163 C164 1.358 . S
N163 C165 1.400 . S
C164 N162 1.263 . S
C164 N163 1.358 . S
C164 H170 0.930 . S
C165 N163 1.400 . S
C165 C166 1.351 . S
C165 H182 0.930 . S
C166 N162 1.389 . S
C166 C165 1.351 . S
C166 H171 0.930 . S
O167 Cu161 1.974 . S
O167 C177 1.282 . S
C168 O169 1.261 . S
C168 O181 1.251 . S
O169 C168 1.261 . S
H170 C164 0.930 . S
H171 C166 0.930 . S
N172 Cu161 1.985 . S
N172 C174 1.335 . S
N172 C175 1.390 . S
N173 C174 1.345 . S
N173 C176 1.336 . S
C174 N172 1.335 . S
C174 N173 1.345 . S
C174 H179 0.930 . S
C175 N172 1.390 . S
C175 C176 1.346 . S
C175 H180 0.930 . S
C176 N173 1.336 . S
C176 C175 1.346 . S
C176 H183 0.929 . S
C177 O167 1.282 . S
C177 O178 1.216 . S
O178 C177 1.216 . S
H179 C174 0.930 . S
H180 C175 0.930 . S
O181 Cu161 1.959 . S
O181 C168 1.251 . S
H182 C165 0.930 . S
H183 C176 0.929 . S
Cu184 N185 1.999 . S
Cu184 O190 1.974 . S
Cu184 N195 1.985 . S
Cu184 O204 1.959 . S
N185 Cu184 1.999 . S
N185 C187 1.263 . S
N185 C189 1.389 . S
N186 C187 1.358 . S
N186 C188 1.400 . S
C187 N185 1.263 . S
C187 N186 1.358 . S
C187 H193 0.930 . S
C188 N186 1.400 . S
C188 C189 1.351 . S
C188 H205 0.930 . S
C189 N185 1.389 . S
C189 C188 1.351 . S
C189 H194 0.930 . S
O190 Cu184 1.974 . S
O190 C200 1.282 . S
C191 O192 1.261 . S
C191 O204 1.251 . S
O192 C191 1.261 . S
H193 C187 0.930 . S
H194 C189 0.930 . S
N195 Cu184 1.985 . S
N195 C197 1.335 . S
N195 C198 1.390 . S
N196 C197 1.345 . S
N196 C199 1.336 . S
C197 N195 1.335 . S
C197 N196 1.345 . S
C197 H202 0.930 . S
C198 N195 1.390 . S
C198 C199 1.346 . S
C198 H203 0.930 . S
C199 N196 1.336 . S
C199 C198 1.346 . S
C199 H206 0.929 . S
C200 O190 1.282 . S
C200 O201 1.216 . S
O201 C200 1.216 . S
H202 C197 0.930 . S
H203 C198 0.930 . S
O204 Cu184 1.959 . S
O204 C191 1.251 . S
H205 C188 0.930 . S
H206 C199 0.929 . S
Cu207 N208 1.999 . S
Cu207 O213 1.974 . S
Cu207 N218 1.985 . S
Cu207 O227 1.959 . S
N208 Cu207 1.999 . S
N208 C210 1.263 . S
N208 C212 1.389 . S
N209 C210 1.358 . S
N209 C211 1.400 . S
C210 N208 1.263 . S
C210 N209 1.358 . S
C210 H216 0.930 . S
C211 N209 1.400 . S
C211 C212 1.351 . S
C211 H228 0.930 . S
C212 N208 1.389 . S
C212 C211 1.351 . S
C212 H217 0.930 . S
O213 Cu207 1.974 . S
O213 C223 1.282 . S
C214 O215 1.261 . S
C214 O227 1.251 . S
O215 C214 1.261 . S
H216 C210 0.930 . S
H217 C212 0.930 . S
N218 Cu207 1.985 . S
N218 C220 1.335 . S
N218 C221 1.390 . S
N219 C220 1.345 . S
N219 C222 1.336 . S
C220 N218 1.335 . S
C220 N219 1.345 . S
C220 H225 0.930 . S
C221 N218 1.390 . S
C221 C222 1.346 . S
C221 H226 0.930 . S
C222 N219 1.336 . S
C222 C221 1.346 . S
C222 H229 0.929 . S
C223 O213 1.282 . S
C223 O224 1.216 . S
O224 C223 1.216 . S
H225 C220 0.930 . S
H226 C221 0.930 . S
O227 Cu207 1.959 . S
O227 C214 1.251 . S
H228 C211 0.930 . S
H229 C222 0.929 . S
Cu230 N231 1.999 . S
Cu230 O236 1.974 . S
Cu230 N241 1.985 . S
Cu230 O250 1.959 . S
N231 Cu230 1.999 . S
N231 C233 1.263 . S
N231 C235 1.389 . S
N232 C233 1.358 . S
N232 C234 1.400 . S
C233 N231 1.263 . S
C233 N232 1.358 . S
C233 H239 0.930 . S
C234 N232 1.400 . S
C234 C235 1.351 . S
C234 H251 0.930 . S
C235 N231 1.389 . S
C235 C234 1.351 . S
C235 H240 0.930 . S
O236 Cu230 1.974 . S
O236 C246 1.282 . S
C237 O238 1.261 . S
C237 O250 1.251 . S
O238 C237 1.261 . S
H239 C233 0.930 . S
H240 C235 0.930 . S
N241 Cu230 1.985 . S
N241 C243 1.335 . S
N241 C244 1.390 . S
N242 C243 1.345 . S
N242 C245 1.336 . S
C243 N241 1.335 . S
C243 N242 1.345 . S
C243 H248 0.930 . S
C244 N241 1.390 . S
C244 C245 1.346 . S
C244 H249 0.930 . S
C245 N242 1.336 . S
C245 C244 1.346 . S
C245 H252 0.929 . S
C246 O236 1.282 . S
C246 O247 1.216 . S
O247 C246 1.216 . S
H248 C243 0.930 . S
H249 C244 0.930 . S
O250 Cu230 1.959 . S
O250 C237 1.251 . S
H251 C234 0.930 . S
H252 C245 0.929 . S
Cu253 N254 1.999 . S
Cu253 O259 1.974 . S
Cu253 N264 1.985 . S
Cu253 O273 1.959 . S
N254 Cu253 1.999 . S
N254 C256 1.263 . S
N254 C258 1.389 . S
N255 C256 1.358 . S
N255 C257 1.400 . S
C256 N254 1.263 . S
C256 N255 1.358 . S
C256 H262 0.930 . S
C257 N255 1.400 . S
C257 C258 1.351 . S
C257 H274 0.930 . S
C258 N254 1.389 . S
C258 C257 1.351 . S
C258 H263 0.930 . S
O259 Cu253 1.974 . S
O259 C269 1.282 . S
C260 O261 1.261 . S
C260 O273 1.251 . S
O261 C260 1.261 . S
H262 C256 0.930 . S
H263 C258 0.930 . S
N264 Cu253 1.985 . S
N264 C266 1.335 . S
N264 C267 1.390 . S
N265 C266 1.345 . S
N265 C268 1.336 . S
C266 N264 1.335 . S
C266 N265 1.345 . S
C266 H271 0.930 . S
C267 N264 1.390 . S
C267 C268 1.346 . S
C267 H272 0.930 . S
C268 N265 1.336 . S
C268 C267 1.346 . S
C268 H275 0.929 . S
C269 O259 1.282 . S
C269 O270 1.216 . S
O270 C269 1.216 . S
H271 C266 0.930 . S
H272 C267 0.930 . S
O273 Cu253 1.959 . S
O273 C260 1.251 . S
H274 C257 0.930 . S
H275 C268 0.929 . S
Gd276 C279 2.818 . S
Gd276 O296 2.377 . S
Gd276 O298 2.448 . S
Gd276 O299 2.506 . S
Gd276 O300 2.435 . S
Gd276 O301 2.717 . S
Gd276 O303 2.395 . S
Gd276 O307 2.327 . S
Gd277 C288 2.818 . S
Gd277 O297 2.395 . S
Gd277 O301 2.327 . S
Gd277 O302 2.377 . S
Gd277 O304 2.448 . S
Gd277 O305 2.506 . S
Gd277 O306 2.435 . S
Gd277 O307 2.717 . S
C278 O296 1.240 . S
C278 O297 1.240 . S
C279 Gd276 2.818 . S
C279 C280 1.510 . S
C279 O298 1.249 . S
C279 O299 1.252 . S
C280 C279 1.510 . S
C280 C281 1.404 . S
C280 C282 1.352 . S
C281 C280 1.404 . S
C281 C285 1.389 . S
C281 H308 0.930 . S
C282 C280 1.352 . S
C282 C284 1.374 . S
C282 H309 0.931 . S
C283 C284 1.359 . S
C283 C285 1.364 . S
C284 C282 1.374 . S
C284 C283 1.359 . S
C284 H310 0.931 . S
C285 C281 1.389 . S
C285 C283 1.364 . S
C285 H311 0.931 . S
C286 O300 1.256 . S
C286 O301 1.257 . S
C287 O302 1.240 . S
C287 O303 1.240 . S
C288 Gd277 2.818 . S
C288 C289 1.510 . S
C288 O304 1.249 . S
C288 O305 1.252 . S
C289 C288 1.510 . S
C289 C290 1.404 . S
C289 C291 1.352 . S
C290 C289 1.404 . S
C290 C294 1.389 . S
C290 H312 0.930 . S
C291 C289 1.352 . S
C291 C293 1.374 . S
C291 H313 0.931 . S
C292 C293 1.359 . S
C292 C294 1.364 . S
C293 C291 1.374 . S
C293 C292 1.359 . S
C293 H314 0.931 . S
C294 C290 1.389 . S
C294 C292 1.364 . S
C294 H315 0.931 . S
C295 O306 1.256 . S
C295 O307 1.257 . S
O296 Gd276 2.377 . S
O296 C278 1.240 . S
O297 Gd277 2.395 . S
O297 C278 1.240 . S
O298 Gd276 2.448 . S
O298 C279 1.249 . S
O299 Gd276 2.506 . S
O299 C279 1.252 . S
O300 Gd276 2.435 . S
O300 C286 1.256 . S
O301 Gd276 2.717 . S
O301 Gd277 2.327 . S
O301 C286 1.257 . S
O302 Gd277 2.377 . S
O302 C287 1.240 . S
O303 Gd276 2.395 . S
O303 C287 1.240 . S
O304 Gd277 2.448 . S
O304 C288 1.249 . S
O305 Gd277 2.506 . S
O305 C288 1.252 . S
O306 Gd277 2.435 . S
O306 C295 1.256 . S
O307 Gd276 2.327 . S
O307 Gd277 2.717 . S
O307 C295 1.257 . S
H308 C281 0.930 . S
H309 C282 0.931 . S
H310 C284 0.931 . S
H311 C285 0.931 . S
H312 C290 0.930 . S
H313 C291 0.931 . S
H314 C293 0.931 . S
H315 C294 0.931 . S
Gd316 C319 2.818 . S
Gd316 O336 2.377 . S
Gd316 O338 2.448 . S
Gd316 O339 2.506 . S
Gd316 O340 2.435 . S
Gd316 O341 2.717 . S
Gd316 O343 2.395 . S
Gd316 O347 2.327 . S
Gd317 C328 2.818 . S
Gd317 O337 2.395 . S
Gd317 O341 2.327 . S
Gd317 O342 2.377 . S
Gd317 O344 2.448 . S
Gd317 O345 2.506 . S
Gd317 O346 2.435 . S
Gd317 O347 2.717 . S
C318 O336 1.240 . S
C318 O337 1.240 . S
C319 Gd316 2.818 . S
C319 C320 1.510 . S
C319 O338 1.249 . S
C319 O339 1.252 . S
C320 C319 1.510 . S
C320 C321 1.404 . S
C320 C322 1.352 . S
C321 C320 1.404 . S
C321 C325 1.389 . S
C321 H348 0.930 . S
C322 C320 1.352 . S
C322 C324 1.374 . S
C322 H349 0.931 . S
C323 C324 1.359 . S
C323 C325 1.364 . S
C324 C322 1.374 . S
C324 C323 1.359 . S
C324 H350 0.931 . S
C325 C321 1.389 . S
C325 C323 1.364 . S
C325 H351 0.931 . S
C326 O340 1.256 . S
C326 O341 1.257 . S
C327 O342 1.240 . S
C327 O343 1.240 . S
C328 Gd317 2.818 . S
C328 C329 1.510 . S
C328 O344 1.249 . S
C328 O345 1.252 . S
C329 C328 1.510 . S
C329 C330 1.404 . S
C329 C331 1.352 . S
C330 C329 1.404 . S
C330 C334 1.389 . S
C330 H352 0.930 . S
C331 C329 1.352 . S
C331 C333 1.374 . S
C331 H353 0.931 . S
C332 C333 1.359 . S
C332 C334 1.364 . S
C333 C331 1.374 . S
C333 C332 1.359 . S
C333 H354 0.931 . S
C334 C330 1.389 . S
C334 C332 1.364 . S
C334 H355 0.931 . S
C335 O346 1.256 . S
C335 O347 1.257 . S
O336 Gd316 2.377 . S
O336 C318 1.240 . S
O337 Gd317 2.395 . S
O337 C318 1.240 . S
O338 Gd316 2.448 . S
O338 C319 1.249 . S
O339 Gd316 2.506 . S
O339 C319 1.252 . S
O340 Gd316 2.435 . S
O340 C326 1.256 . S
O341 Gd316 2.717 . S
O341 Gd317 2.327 . S
O341 C326 1.257 . S
O342 Gd317 2.377 . S
O342 C327 1.240 . S
O343 Gd316 2.395 . S
O343 C327 1.240 . S
O344 Gd317 2.448 . S
O344 C328 1.249 . S
O345 Gd317 2.506 . S
O345 C328 1.252 . S
O346 Gd317 2.435 . S
O346 C335 1.256 . S
O347 Gd316 2.327 . S
O347 Gd317 2.717 . S
O347 C335 1.257 . S
H348 C321 0.930 . S
H349 C322 0.931 . S
H350 C324 0.931 . S
H351 C325 0.931 . S
H352 C330 0.930 . S
H353 C331 0.931 . S
H354 C333 0.931 . S
H355 C334 0.931 . S
Gd356 C359 2.818 . S
Gd356 O376 2.377 . S
Gd356 O378 2.448 . S
Gd356 O379 2.506 . S
Gd356 O380 2.435 . S
Gd356 O381 2.717 . S
Gd356 O383 2.395 . S
Gd356 O387 2.327 . S
Gd357 C368 2.818 . S
Gd357 O377 2.395 . S
Gd357 O381 2.327 . S
Gd357 O382 2.377 . S
Gd357 O384 2.448 . S
Gd357 O385 2.506 . S
Gd357 O386 2.435 . S
Gd357 O387 2.717 . S
C358 O376 1.240 . S
C358 O377 1.240 . S
C359 Gd356 2.818 . S
C359 C360 1.510 . S
C359 O378 1.249 . S
C359 O379 1.252 . S
C360 C359 1.510 . S
C360 C361 1.404 . S
C360 C362 1.352 . S
C361 C360 1.404 . S
C361 C365 1.389 . S
C361 H388 0.930 . S
C362 C360 1.352 . S
C362 C364 1.374 . S
C362 H389 0.931 . S
C363 C364 1.359 . S
C363 C365 1.364 . S
C364 C362 1.374 . S
C364 C363 1.359 . S
C364 H390 0.931 . S
C365 C361 1.389 . S
C365 C363 1.364 . S
C365 H391 0.931 . S
C366 O380 1.256 . S
C366 O381 1.257 . S
C367 O382 1.240 . S
C367 O383 1.240 . S
C368 Gd357 2.818 . S
C368 C369 1.510 . S
C368 O384 1.249 . S
C368 O385 1.252 . S
C369 C368 1.510 . S
C369 C370 1.404 . S
C369 C371 1.352 . S
C370 C369 1.404 . S
C370 C374 1.389 . S
C370 H392 0.930 . S
C371 C369 1.352 . S
C371 C373 1.374 . S
C371 H393 0.931 . S
C372 C373 1.359 . S
C372 C374 1.364 . S
C373 C371 1.374 . S
C373 C372 1.359 . S
C373 H394 0.931 . S
C374 C370 1.389 . S
C374 C372 1.364 . S
C374 H395 0.931 . S
C375 O386 1.256 . S
C375 O387 1.257 . S
O376 Gd356 2.377 . S
O376 C358 1.240 . S
O377 Gd357 2.395 . S
O377 C358 1.240 . S
O378 Gd356 2.448 . S
O378 C359 1.249 . S
O379 Gd356 2.506 . S
O379 C359 1.252 . S
O380 Gd356 2.435 . S
O380 C366 1.256 . S
O381 Gd356 2.717 . S
O381 Gd357 2.327 . S
O381 C366 1.257 . S
O382 Gd357 2.377 . S
O382 C367 1.240 . S
O383 Gd356 2.395 . S
O383 C367 1.240 . S
O384 Gd357 2.448 . S
O384 C368 1.249 . S
O385 Gd357 2.506 . S
O385 C368 1.252 . S
O386 Gd357 2.435 . S
O386 C375 1.256 . S
O387 Gd356 2.327 . S
O387 Gd357 2.717 . S
O387 C375 1.257 . S
H388 C361 0.930 . S
H389 C362 0.931 . S
H390 C364 0.931 . S
H391 C365 0.931 . S
H392 C370 0.930 . S
H393 C371 0.931 . S
H394 C373 0.931 . S
H395 C374 0.931 . S
Gd396 C399 2.818 . S
Gd396 O416 2.377 . S
Gd396 O418 2.448 . S
Gd396 O419 2.506 . S
Gd396 O420 2.435 . S
Gd396 O421 2.717 . S
Gd396 O423 2.395 . S
Gd396 O427 2.327 . S
Gd397 C408 2.818 . S
Gd397 O417 2.395 . S
Gd397 O421 2.327 . S
Gd397 O422 2.377 . S
Gd397 O424 2.448 . S
Gd397 O425 2.506 . S
Gd397 O426 2.435 . S
Gd397 O427 2.717 . S
C398 O416 1.240 . S
C398 O417 1.240 . S
C399 Gd396 2.818 . S
C399 C400 1.510 . S
C399 O418 1.249 . S
C399 O419 1.252 . S
C400 C399 1.510 . S
C400 C401 1.404 . S
C400 C402 1.352 . S
C401 C400 1.404 . S
C401 C405 1.389 . S
C401 H428 0.930 . S
C402 C400 1.352 . S
C402 C404 1.374 . S
C402 H429 0.931 . S
C403 C404 1.359 . S
C403 C405 1.364 . S
C404 C402 1.374 . S
C404 C403 1.359 . S
C404 H430 0.931 . S
C405 C401 1.389 . S
C405 C403 1.364 . S
C405 H431 0.931 . S
C406 O420 1.256 . S
C406 O421 1.257 . S
C407 O422 1.240 . S
C407 O423 1.240 . S
C408 Gd397 2.818 . S
C408 C409 1.510 . S
C408 O424 1.249 . S
C408 O425 1.252 . S
C409 C408 1.510 . S
C409 C410 1.404 . S
C409 C411 1.352 . S
C410 C409 1.404 . S
C410 C414 1.389 . S
C410 H432 0.930 . S
C411 C409 1.352 . S
C411 C413 1.374 . S
C411 H433 0.931 . S
C412 C413 1.359 . S
C412 C414 1.364 . S
C413 C411 1.374 . S
C413 C412 1.359 . S
C413 H434 0.931 . S
C414 C410 1.389 . S
C414 C412 1.364 . S
C414 H435 0.931 . S
C415 O426 1.256 . S
C415 O427 1.257 . S
O416 Gd396 2.377 . S
O416 C398 1.240 . S
O417 Gd397 2.395 . S
O417 C398 1.240 . S
O418 Gd396 2.448 . S
O418 C399 1.249 . S
O419 Gd396 2.506 . S
O419 C399 1.252 . S
O420 Gd396 2.435 . S
O420 C406 1.256 . S
O421 Gd396 2.717 . S
O421 Gd397 2.327 . S
O421 C406 1.257 . S
O422 Gd397 2.377 . S
O422 C407 1.240 . S
O423 Gd396 2.395 . S
O423 C407 1.240 . S
O424 Gd397 2.448 . S
O424 C408 1.249 . S
O425 Gd397 2.506 . S
O425 C408 1.252 . S
O426 Gd397 2.435 . S
O426 C415 1.256 . S
O427 Gd396 2.327 . S
O427 Gd397 2.717 . S
O427 C415 1.257 . S
H428 C401 0.930 . S
H429 C402 0.931 . S
H430 C404 0.931 . S
H431 C405 0.931 . S
H432 C410 0.930 . S
H433 C411 0.931 . S
H434 C413 0.931 . S
H435 C414 0.931 . S
Gd436 C439 2.818 . S
Gd436 O456 2.377 . S
Gd436 O458 2.448 . S
Gd436 O459 2.506 . S
Gd436 O460 2.435 . S
Gd436 O461 2.717 . S
Gd436 O463 2.395 . S
Gd436 O467 2.327 . S
Gd437 C448 2.818 . S
Gd437 O457 2.395 . S
Gd437 O461 2.327 . S
Gd437 O462 2.377 . S
Gd437 O464 2.448 . S
Gd437 O465 2.506 . S
Gd437 O466 2.435 . S
Gd437 O467 2.717 . S
C438 O456 1.240 . S
C438 O457 1.240 . S
C439 Gd436 2.818 . S
C439 C440 1.510 . S
C439 O458 1.249 . S
C439 O459 1.252 . S
C440 C439 1.510 . S
C440 C441 1.404 . S
C440 C442 1.352 . S
C441 C440 1.404 . S
C441 C445 1.389 . S
C441 H468 0.930 . S
C442 C440 1.352 . S
C442 C444 1.374 . S
C442 H469 0.931 . S
C443 C444 1.359 . S
C443 C445 1.364 . S
C444 C442 1.374 . S
C444 C443 1.359 . S
C444 H470 0.931 . S
C445 C441 1.389 . S
C445 C443 1.364 . S
C445 H471 0.931 . S
C446 O460 1.256 . S
C446 O461 1.257 . S
C447 O462 1.240 . S
C447 O463 1.240 . S
C448 Gd437 2.818 . S
C448 C449 1.510 . S
C448 O464 1.249 . S
C448 O465 1.252 . S
C449 C448 1.510 . S
C449 C450 1.404 . S
C449 C451 1.352 . S
C450 C449 1.404 . S
C450 C454 1.389 . S
C450 H472 0.930 . S
C451 C449 1.352 . S
C451 C453 1.374 . S
C451 H473 0.931 . S
C452 C453 1.359 . S
C452 C454 1.364 . S
C453 C451 1.374 . S
C453 C452 1.359 . S
C453 H474 0.931 . S
C454 C450 1.389 . S
C454 C452 1.364 . S
C454 H475 0.931 . S
C455 O466 1.256 . S
C455 O467 1.257 . S
O456 Gd436 2.377 . S
O456 C438 1.240 . S
O457 Gd437 2.395 . S
O457 C438 1.240 . S
O458 Gd436 2.448 . S
O458 C439 1.249 . S
O459 Gd436 2.506 . S
O459 C439 1.252 . S
O460 Gd436 2.435 . S
O460 C446 1.256 . S
O461 Gd436 2.717 . S
O461 Gd437 2.327 . S
O461 C446 1.257 . S
O462 Gd437 2.377 . S
O462 C447 1.240 . S
O463 Gd436 2.395 . S
O463 C447 1.240 . S
O464 Gd437 2.448 . S
O464 C448 1.249 . S
O465 Gd437 2.506 . S
O465 C448 1.252 . S
O466 Gd437 2.435 . S
O466 C455 1.256 . S
O467 Gd436 2.327 . S
O467 Gd437 2.717 . S
O467 C455 1.257 . S
H468 C441 0.930 . S
H469 C442 0.931 . S
H470 C444 0.931 . S
H471 C445 0.931 . S
H472 C450 0.930 . S
H473 C451 0.931 . S
H474 C453 0.931 . S
H475 C454 0.931 . S
Gd476 C479 2.818 . S
Gd476 O496 2.377 . S
Gd476 O498 2.448 . S
Gd476 O499 2.506 . S
Gd476 O500 2.435 . S
Gd476 O501 2.717 . S
Gd476 O503 2.395 . S
Gd476 O507 2.327 . S
Gd477 C488 2.818 . S
Gd477 O497 2.395 . S
Gd477 O501 2.327 . S
Gd477 O502 2.377 . S
Gd477 O504 2.448 . S
Gd477 O505 2.506 . S
Gd477 O506 2.435 . S
Gd477 O507 2.717 . S
C478 O496 1.240 . S
C478 O497 1.240 . S
C479 Gd476 2.818 . S
C479 C480 1.510 . S
C479 O498 1.249 . S
C479 O499 1.252 . S
C480 C479 1.510 . S
C480 C481 1.404 . S
C480 C482 1.352 . S
C481 C480 1.404 . S
C481 C485 1.389 . S
C481 H508 0.930 . S
C482 C480 1.352 . S
C482 C484 1.374 . S
C482 H509 0.931 . S
C483 C484 1.359 . S
C483 C485 1.364 . S
C484 C482 1.374 . S
C484 C483 1.359 . S
C484 H510 0.931 . S
C485 C481 1.389 . S
C485 C483 1.364 . S
C485 H511 0.931 . S
C486 O500 1.256 . S
C486 O501 1.257 . S
C487 O502 1.240 . S
C487 O503 1.240 . S
C488 Gd477 2.818 . S
C488 C489 1.510 . S
C488 O504 1.249 . S
C488 O505 1.252 . S
C489 C488 1.510 . S
C489 C490 1.404 . S
C489 C491 1.352 . S
C490 C489 1.404 . S
C490 C494 1.389 . S
C490 H512 0.930 . S
C491 C489 1.352 . S
C491 C493 1.374 . S
C491 H513 0.931 . S
C492 C493 1.359 . S
C492 C494 1.364 . S
C493 C491 1.374 . S
C493 C492 1.359 . S
C493 H514 0.931 . S
C494 C490 1.389 . S
C494 C492 1.364 . S
C494 H515 0.931 . S
C495 O506 1.256 . S
C495 O507 1.257 . S
O496 Gd476 2.377 . S
O496 C478 1.240 . S
O497 Gd477 2.395 . S
O497 C478 1.240 . S
O498 Gd476 2.448 . S
O498 C479 1.249 . S
O499 Gd476 2.506 . S
O499 C479 1.252 . S
O500 Gd476 2.435 . S
O500 C486 1.256 . S
O501 Gd476 2.717 . S
O501 Gd477 2.327 . S
O501 C486 1.257 . S
O502 Gd477 2.377 . S
O502 C487 1.240 . S
O503 Gd476 2.395 . S
O503 C487 1.240 . S
O504 Gd477 2.448 . S
O504 C488 1.249 . S
O505 Gd477 2.506 . S
O505 C488 1.252 . S
O506 Gd477 2.435 . S
O506 C495 1.256 . S
O507 Gd476 2.327 . S
O507 Gd477 2.717 . S
O507 C495 1.257 . S
H508 C481 0.930 . S
H509 C482 0.931 . S
H510 C484 0.931 . S
H511 C485 0.931 . S
H512 C490 0.930 . S
H513 C491 0.931 . S
H514 C493 0.931 . S
H515 C494 0.931 . S
Gd516 C519 2.818 . S
Gd516 O536 2.377 . S
Gd516 O538 2.448 . S
Gd516 O539 2.506 . S
Gd516 O540 2.435 . S
Gd516 O541 2.717 . S
Gd516 O543 2.395 . S
Gd516 O547 2.327 . S
Gd517 C528 2.818 . S
Gd517 O537 2.395 . S
Gd517 O541 2.327 . S
Gd517 O542 2.377 . S
Gd517 O544 2.448 . S
Gd517 O545 2.506 . S
Gd517 O546 2.435 . S
Gd517 O547 2.717 . S
C518 O536 1.240 . S
C518 O537 1.240 . S
C519 Gd516 2.818 . S
C519 C520 1.510 . S
C519 O538 1.249 . S
C519 O539 1.252 . S
C520 C519 1.510 . S
C520 C521 1.404 . S
C520 C522 1.352 . S
C521 C520 1.404 . S
C521 C525 1.389 . S
C521 H548 0.930 . S
C522 C520 1.352 . S
C522 C524 1.374 . S
C522 H549 0.931 . S
C523 C524 1.359 . S
C523 C525 1.364 . S
C524 C522 1.374 . S
C524 C523 1.359 . S
C524 H550 0.931 . S
C525 C521 1.389 . S
C525 C523 1.364 . S
C525 H551 0.931 . S
C526 O540 1.256 . S
C526 O541 1.257 . S
C527 O542 1.240 . S
C527 O543 1.240 . S
C528 Gd517 2.818 . S
C528 C529 1.510 . S
C528 O544 1.249 . S
C528 O545 1.252 . S
C529 C528 1.510 . S
C529 C530 1.404 . S
C529 C531 1.352 . S
C530 C529 1.404 . S
C530 C534 1.389 . S
C530 H552 0.930 . S
C531 C529 1.352 . S
C531 C533 1.374 . S
C531 H553 0.931 . S
C532 C533 1.359 . S
C532 C534 1.364 . S
C533 C531 1.374 . S
C533 C532 1.359 . S
C533 H554 0.931 . S
C534 C530 1.389 . S
C534 C532 1.364 . S
C534 H555 0.931 . S
C535 O546 1.256 . S
C535 O547 1.257 . S
O536 Gd516 2.377 . S
O536 C518 1.240 . S
O537 Gd517 2.395 . S
O537 C518 1.240 . S
O538 Gd516 2.448 . S
O538 C519 1.249 . S
O539 Gd516 2.506 . S
O539 C519 1.252 . S
O540 Gd516 2.435 . S
O540 C526 1.256 . S
O541 Gd516 2.717 . S
O541 Gd517 2.327 . S
O541 C526 1.257 . S
O542 Gd517 2.377 . S
O542 C527 1.240 . S
O543 Gd516 2.395 . S
O543 C527 1.240 . S
O544 Gd517 2.448 . S
O544 C528 1.249 . S
O545 Gd517 2.506 . S
O545 C528 1.252 . S
O546 Gd517 2.435 . S
O546 C535 1.256 . S
O547 Gd516 2.327 . S
O547 Gd517 2.717 . S
O547 C535 1.257 . S
H548 C521 0.930 . S
H549 C522 0.931 . S
H550 C524 0.931 . S
H551 C525 0.931 . S
H552 C530 0.930 . S
H553 C531 0.931 . S
H554 C533 0.931 . S
H555 C534 0.931 . S
Gd556 C559 2.818 . S
Gd556 O576 2.377 . S
Gd556 O578 2.448 . S
Gd556 O579 2.506 . S
Gd556 O580 2.435 . S
Gd556 O581 2.717 . S
Gd556 O583 2.395 . S
Gd556 O587 2.327 . S
Gd557 C568 2.818 . S
Gd557 O577 2.395 . S
Gd557 O581 2.327 . S
Gd557 O582 2.377 . S
Gd557 O584 2.448 . S
Gd557 O585 2.506 . S
Gd557 O586 2.435 . S
Gd557 O587 2.717 . S
C558 O576 1.240 . S
C558 O577 1.240 . S
C559 Gd556 2.818 . S
C559 C560 1.510 . S
C559 O578 1.249 . S
C559 O579 1.252 . S
C560 C559 1.510 . S
C560 C561 1.404 . S
C560 C562 1.352 . S
C561 C560 1.404 . S
C561 C565 1.389 . S
C561 H588 0.930 . S
C562 C560 1.352 . S
C562 C564 1.374 . S
C562 H589 0.931 . S
C563 C564 1.359 . S
C563 C565 1.364 . S
C564 C562 1.374 . S
C564 C563 1.359 . S
C564 H590 0.931 . S
C565 C561 1.389 . S
C565 C563 1.364 . S
C565 H591 0.931 . S
C566 O580 1.256 . S
C566 O581 1.257 . S
C567 O582 1.240 . S
C567 O583 1.240 . S
C568 Gd557 2.818 . S
C568 C569 1.510 . S
C568 O584 1.249 . S
C568 O585 1.252 . S
C569 C568 1.510 . S
C569 C570 1.404 . S
C569 C571 1.352 . S
C570 C569 1.404 . S
C570 C574 1.389 . S
C570 H592 0.930 . S
C571 C569 1.352 . S
C571 C573 1.374 . S
C571 H593 0.931 . S
C572 C573 1.359 . S
C572 C574 1.364 . S
C573 C571 1.374 . S
C573 C572 1.359 . S
C573 H594 0.931 . S
C574 C570 1.389 . S
C574 C572 1.364 . S
C574 H595 0.931 . S
C575 O586 1.256 . S
C575 O587 1.257 . S
O576 Gd556 2.377 . S
O576 C558 1.240 . S
O577 Gd557 2.395 . S
O577 C558 1.240 . S
O578 Gd556 2.448 . S
O578 C559 1.249 . S
O579 Gd556 2.506 . S
O579 C559 1.252 . S
O580 Gd556 2.435 . S
O580 C566 1.256 . S
O581 Gd556 2.717 . S
O581 Gd557 2.327 . S
O581 C566 1.257 . S
O582 Gd557 2.377 . S
O582 C567 1.240 . S
O583 Gd556 2.395 . S
O583 C567 1.240 . S
O584 Gd557 2.448 . S
O584 C568 1.249 . S
O585 Gd557 2.506 . S
O585 C568 1.252 . S
O586 Gd557 2.435 . S
O586 C575 1.256 . S
O587 Gd556 2.327 . S
O587 Gd557 2.717 . S
O587 C575 1.257 . S
H588 C561 0.930 . S
H589 C562 0.931 . S
H590 C564 0.931 . S
H591 C565 0.931 . S
H592 C570 0.930 . S
H593 C571 0.931 . S
H594 C573 0.931 . S
H595 C574 0.931 . S
H596 C602 0.930 . S
H597 C606 0.930 . S
H598 C611 0.929 . S
H599 C609 0.929 . S
H600 C604 0.929 . S
H601 C610 0.929 . S
C602 H596 0.930 . S
C602 C603 1.367 . S
C602 C610 1.378 . S
C603 C602 1.367 . S
C603 C611 1.433 . S
C604 H600 0.929 . S
C604 C606 1.378 . S
C604 C608 1.350 . S
C605 C608 1.463 . S
C605 C610 1.350 . S
C605 N613 1.427 . S
C606 H597 0.930 . S
C606 C604 1.378 . S
C606 C607 1.367 . S
C607 C606 1.367 . S
C607 C609 1.433 . S
C608 C604 1.350 . S
C608 C605 1.463 . S
C608 N612 1.427 . S
C609 H599 0.929 . S
C609 C607 1.433 . S
C609 N612 1.384 . S
C610 H601 0.929 . S
C610 C602 1.378 . S
C610 C605 1.350 . S
C611 H598 0.929 . S
C611 C603 1.433 . S
C611 N613 1.384 . S
N612 C608 1.427 . S
N612 C609 1.384 . S
N613 C605 1.427 . S
N613 C611 1.384 . S
H614 C620 0.930 . S
H615 C624 0.930 . S
H616 C629 0.929 . S
H617 C627 0.929 . S
H618 C622 0.929 . S
H619 C628 0.929 . S
C620 H614 0.930 . S
C620 C621 1.367 . S
C620 C628 1.378 . S
C621 C620 1.367 . S
C621 C629 1.433 . S
C622 H618 0.929 . S
C622 C624 1.378 . S
C622 C626 1.350 . S
C623 C626 1.463 . S
C623 C628 1.350 . S
C623 N631 1.427 . S
C624 H615 0.930 . S
C624 C622 1.378 . S
C624 C625 1.367 . S
C625 C624 1.367 . S
C625 C627 1.433 . S
C626 C622 1.350 . S
C626 C623 1.463 . S
C626 N630 1.427 . S
C627 H617 0.929 . S
C627 C625 1.433 . S
C627 N630 1.384 . S
C628 H619 0.929 . S
C628 C620 1.378 . S
C628 C623 1.350 . S
C629 H616 0.929 . S
C629 C621 1.433 . S
C629 N631 1.384 . S
N630 C626 1.427 . S
N630 C627 1.384 . S
N631 C623 1.427 . S
N631 C629 1.384 . S
H632 C638 0.930 . S
H633 C642 0.930 . S
H634 C647 0.929 . S
H635 C645 0.929 . S
H636 C640 0.929 . S
H637 C646 0.929 . S
C638 H632 0.930 . S
C638 C639 1.367 . S
C638 C646 1.378 . S
C639 C638 1.367 . S
C639 C647 1.433 . S
C640 H636 0.929 . S
C640 C642 1.378 . S
C640 C644 1.350 . S
C641 C644 1.463 . S
C641 C646 1.350 . S
C641 N649 1.427 . S
C642 H633 0.930 . S
C642 C640 1.378 . S
C642 C643 1.367 . S
C643 C642 1.367 . S
C643 C645 1.433 . S
C644 C640 1.350 . S
C644 C641 1.463 . S
C644 N648 1.427 . S
C645 H635 0.929 . S
C645 C643 1.433 . S
C645 N648 1.384 . S
C646 H637 0.929 . S
C646 C638 1.378 . S
C646 C641 1.350 . S
C647 H634 0.929 . S
C647 C639 1.433 . S
C647 N649 1.384 . S
N648 C644 1.427 . S
N648 C645 1.384 . S
N649 C641 1.427 . S
N649 C647 1.384 . S
H650 C656 0.930 . S
H651 C660 0.930 . S
H652 C665 0.929 . S
H653 C663 0.929 . S
H654 C658 0.929 . S
H655 C664 0.929 . S
C656 H650 0.930 . S
C656 C657 1.367 . S
C656 C664 1.378 . S
C657 C656 1.367 . S
C657 C665 1.433 . S
C658 H654 0.929 . S
C658 C660 1.378 . S
C658 C662 1.350 . S
C659 C662 1.463 . S
C659 C664 1.350 . S
C659 N667 1.427 . S
C660 H651 0.930 . S
C660 C658 1.378 . S
C660 C661 1.367 . S
C661 C660 1.367 . S
C661 C663 1.433 . S
C662 C658 1.350 . S
C662 C659 1.463 . S
C662 N666 1.427 . S
C663 H653 0.929 . S
C663 C661 1.433 . S
C663 N666 1.384 . S
C664 H655 0.929 . S
C664 C656 1.378 . S
C664 C659 1.350 . S
C665 H652 0.929 . S
C665 C657 1.433 . S
C665 N667 1.384 . S
N666 C662 1.427 . S
N666 C663 1.384 . S
N667 C659 1.427 . S
N667 C665 1.384 . S
H668 C674 0.930 . S
H669 C678 0.930 . S
H670 C683 0.929 . S
H671 C681 0.929 . S
H672 C676 0.929 . S
H673 C682 0.929 . S
C674 H668 0.930 . S
C674 C675 1.367 . S
C674 C682 1.378 . S
C675 C674 1.367 . S
C675 C683 1.433 . S
C676 H672 0.929 . S
C676 C678 1.378 . S
C676 C680 1.350 . S
C677 C680 1.463 . S
C677 C682 1.350 . S
C677 N685 1.427 . S
C678 H669 0.930 . S
C678 C676 1.378 . S
C678 C679 1.367 . S
C679 C678 1.367 . S
C679 C681 1.433 . S
C680 C676 1.350 . S
C680 C677 1.463 . S
C680 N684 1.427 . S
C681 H671 0.929 . S
C681 C679 1.433 . S
C681 N684 1.384 . S
C682 H673 0.929 . S
C682 C674 1.378 . S
C682 C677 1.350 . S
C683 H670 0.929 . S
C683 C675 1.433 . S
C683 N685 1.384 . S
N684 C680 1.427 . S
N684 C681 1.384 . S
N685 C677 1.427 . S
N685 C683 1.384 . S
H686 C692 0.930 . S
H687 C696 0.930 . S
H688 C701 0.929 . S
H689 C699 0.929 . S
H690 C694 0.929 . S
H691 C700 0.929 . S
C692 H686 0.930 . S
C692 C693 1.367 . S
C692 C700 1.378 . S
C693 C692 1.367 . S
C693 C701 1.433 . S
C694 H690 0.929 . S
C694 C696 1.378 . S
C694 C698 1.350 . S
C695 C698 1.463 . S
C695 C700 1.350 . S
C695 N703 1.427 . S
C696 H687 0.930 . S
C696 C694 1.378 . S
C696 C697 1.367 . S
C697 C696 1.367 . S
C697 C699 1.433 . S
C698 C694 1.350 . S
C698 C695 1.463 . S
C698 N702 1.427 . S
C699 H689 0.929 . S
C699 C697 1.433 . S
C699 N702 1.384 . S
C700 H691 0.929 . S
C700 C692 1.378 . S
C700 C695 1.350 . S
C701 H688 0.929 . S
C701 C693 1.433 . S
C701 N703 1.384 . S
N702 C698 1.427 . S
N702 C699 1.384 . S
N703 C695 1.427 . S
N703 C701 1.384 . S
H704 C710 0.930 . S
H705 C714 0.930 . S
H706 C719 0.929 . S
H707 C717 0.929 . S
H708 C712 0.929 . S
H709 C718 0.929 . S
C710 H704 0.930 . S
C710 C711 1.367 . S
C710 C718 1.378 . S
C711 C710 1.367 . S
C711 C719 1.433 . S
C712 H708 0.929 . S
C712 C714 1.378 . S
C712 C716 1.350 . S
C713 C716 1.463 . S
C713 C718 1.350 . S
C713 N721 1.427 . S
C714 H705 0.930 . S
C714 C712 1.378 . S
C714 C715 1.367 . S
C715 C714 1.367 . S
C715 C717 1.433 . S
C716 C712 1.350 . S
C716 C713 1.463 . S
C716 N720 1.427 . S
C717 H707 0.929 . S
C717 C715 1.433 . S
C717 N720 1.384 . S
C718 H709 0.929 . S
C718 C710 1.378 . S
C718 C713 1.350 . S
C719 H706 0.929 . S
C719 C711 1.433 . S
C719 N721 1.384 . S
N720 C716 1.427 . S
N720 C717 1.384 . S
N721 C713 1.427 . S
N721 C719 1.384 . S
H722 C728 0.930 . S
H723 C732 0.930 . S
H724 C737 0.929 . S
H725 C735 0.929 . S
H726 C730 0.929 . S
H727 C736 0.929 1_545 S
C728 H722 0.930 . S
C728 C729 1.367 1_545 S
C728 C736 1.378 1_545 S
C729 C728 1.367 1_565 S
C729 C737 1.433 . S
C730 H726 0.929 . S
C730 C732 1.378 . S
C730 C734 1.350 . S
C731 C734 1.463 . S
C731 C736 1.350 . S
C731 N739 1.427 . S
C732 H723 0.930 . S
C732 C730 1.378 . S
C732 C733 1.367 . S
C733 C732 1.367 . S
C733 C735 1.433 . S
C734 C730 1.350 . S
C734 C731 1.463 . S
C734 N738 1.427 . S
C735 H725 0.929 . S
C735 C733 1.433 . S
C735 N738 1.384 . S
C736 H727 0.929 1_565 S
C736 C728 1.378 1_565 S
C736 C731 1.350 . S
C737 H724 0.929 . S
C737 C729 1.433 . S
C737 N739 1.384 . S
N738 C734 1.427 . S
N738 C735 1.384 . S
N739 C731 1.427 . S
N739 C737 1.384 . S
H740 C746 0.930 . S
H741 C750 0.930 . S
H742 C755 0.929 . S
H743 C753 0.929 . S
H744 C748 0.929 . S
H745 C754 0.929 . S
C746 H740 0.930 . S
C746 C747 1.367 . S
C746 C754 1.378 . S
C747 C746 1.367 . S
C747 C755 1.433 . S
C748 H744 0.929 . S
C748 C750 1.378 . S
C748 C752 1.350 . S
C749 C752 1.463 . S
C749 C754 1.350 . S
C749 N757 1.427 . S
C750 H741 0.930 . S
C750 C748 1.378 . S
C750 C751 1.367 . S
C751 C750 1.367 . S
C751 C753 1.433 . S
C752 C748 1.350 . S
C752 C749 1.463 . S
C752 N756 1.427 . S
C753 H743 0.929 . S
C753 C751 1.433 . S
C753 N756 1.384 . S
C754 H745 0.929 . S
C754 C746 1.378 . S
C754 C749 1.350 . S
C755 H742 0.929 . S
C755 C747 1.433 . S
C755 N757 1.384 . S
N756 C752 1.427 . S
N756 C753 1.384 . S
N757 C749 1.427 . S
N757 C755 1.384 . S
H758 C764 0.930 . S
H759 C768 0.930 . S
H760 C773 0.929 . S
H761 C771 0.929 . S
H762 C766 0.929 . S
H763 C772 0.929 . S
C764 H758 0.930 . S
C764 C765 1.367 . S
C764 C772 1.378 . S
C765 C764 1.367 . S
C765 C773 1.433 . S
C766 H762 0.929 . S
C766 C768 1.378 . S
C766 C770 1.350 . S
C767 C770 1.463 . S
C767 C772 1.350 . S
C767 N775 1.427 . S
C768 H759 0.930 . S
C768 C766 1.378 . S
C768 C769 1.367 . S
C769 C768 1.367 . S
C769 C771 1.433 . S
C770 C766 1.350 . S
C770 C767 1.463 . S
C770 N774 1.427 . S
C771 H761 0.929 . S
C771 C769 1.433 . S
C771 N774 1.384 . S
C772 H763 0.929 . S
C772 C764 1.378 . S
C772 C767 1.350 . S
C773 H760 0.929 . S
C773 C765 1.433 . S
C773 N775 1.384 . S
N774 C770 1.427 . S
N774 C771 1.384 . S
N775 C767 1.427 . S
N775 C773 1.384 . S
H776 C782 0.930 . S
H777 C786 0.930 . S
H778 C791 0.929 . S
H779 C789 0.929 . S
H780 C784 0.929 . S
H781 C790 0.929 . S
C782 H776 0.930 . S
C782 C783 1.367 . S
C782 C790 1.378 . S
C783 C782 1.367 . S
C783 C791 1.433 . S
C784 H780 0.929 . S
C784 C786 1.378 . S
C784 C788 1.350 . S
C785 C788 1.463 . S
C785 C790 1.350 . S
C785 N793 1.427 . S
C786 H777 0.930 . S
C786 C784 1.378 . S
C786 C787 1.367 . S
C787 C786 1.367 . S
C787 C789 1.433 . S
C788 C784 1.350 . S
C788 C785 1.463 . S
C788 N792 1.427 . S
C789 H779 0.929 . S
C789 C787 1.433 . S
C789 N792 1.384 . S
C790 H781 0.929 . S
C790 C782 1.378 . S
C790 C785 1.350 . S
C791 H778 0.929 . S
C791 C783 1.433 . S
C791 N793 1.384 . S
N792 C788 1.427 . S
N792 C789 1.384 . S
N793 C785 1.427 . S
N793 C791 1.384 . S
H794 C800 0.930 . S
H795 C804 0.930 . S
H796 C809 0.929 . S
H797 C807 0.929 . S
H798 C802 0.929 . S
H799 C808 0.929 . S
C800 H794 0.930 . S
C800 C801 1.367 . S
C800 C808 1.378 . S
C801 C800 1.367 . S
C801 C809 1.433 . S
C802 H798 0.929 . S
C802 C804 1.378 . S
C802 C806 1.350 . S
C803 C806 1.463 . S
C803 C808 1.350 . S
C803 N811 1.427 . S
C804 H795 0.930 . S
C804 C802 1.378 . S
C804 C805 1.367 . S
C805 C804 1.367 . S
C805 C807 1.433 . S
C806 C802 1.350 . S
C806 C803 1.463 . S
C806 N810 1.427 . S
C807 H797 0.929 . S
C807 C805 1.433 . S
C807 N810 1.384 . S
C808 H799 0.929 . S
C808 C800 1.378 . S
C808 C803 1.350 . S
C809 H796 0.929 . S
C809 C801 1.433 . S
C809 N811 1.384 . S
N810 C806 1.427 . S
N810 C807 1.384 . S
N811 C803 1.427 . S
N811 C809 1.384 . S
H812 C818 0.930 . S
H813 C822 0.930 . S
H814 C827 0.929 . S
H815 C825 0.929 . S
H816 C820 0.929 . S
H817 C826 0.929 . S
C818 H812 0.930 . S
C818 C819 1.367 . S
C818 C826 1.378 . S
C819 C818 1.367 . S
C819 C827 1.433 1_554 S
C820 H816 0.929 . S
C820 C822 1.378 . S
C820 C824 1.350 . S
C821 C824 1.468 . S
C821 C826 1.343 1_556 S
C821 N829 1.430 . S
C822 H813 0.930 . S
C822 C820 1.378 . S
C822 C823 1.367 . S
C823 C822 1.367 . S
C823 C825 1.433 . S
C824 C820 1.350 . S
C824 C821 1.468 . S
C824 N828 1.427 . S
C825 H815 0.929 . S
C825 C823 1.433 . S
C825 N828 1.384 . S
C826 H817 0.929 . S
C826 C818 1.378 . S
C826 C821 1.343 1_554 S
C827 H814 0.929 . S
C827 C819 1.433 1_556 S
C827 N829 1.384 . S
N828 C824 1.427 . S
N828 C825 1.384 . S
N829 C821 1.430 . S
N829 C827 1.384 . S
H830 C836 0.930 . S
H831 C840 0.930 . S
H832 C845 0.929 . S
H833 C843 0.929 . S
H834 C838 0.929 . S
H835 C844 0.929 . S
C836 H830 0.930 . S
C836 C837 1.367 . S
C836 C844 1.378 . S
C837 C836 1.367 . S
C837 C845 1.433 . S
C838 H834 0.929 . S
C838 C840 1.378 . S
C838 C842 1.350 . S
C839 C842 1.463 . S
C839 C844 1.350 . S
C839 N847 1.427 . S
C840 H831 0.930 . S
C840 C838 1.378 . S
C840 C841 1.367 . S
C841 C840 1.367 . S
C841 C843 1.433 . S
C842 C838 1.350 . S
C842 C839 1.463 . S
C842 N846 1.427 . S
C843 H833 0.929 . S
C843 C841 1.433 . S
C843 N846 1.384 . S
C844 H835 0.929 . S
C844 C836 1.378 . S
C844 C839 1.350 . S
C845 H832 0.929 . S
C845 C837 1.433 . S
C845 N847 1.384 . S
N846 C842 1.427 . S
N846 C843 1.384 . S
N847 C839 1.427 . S
N847 C845 1.384 . S
H848 C854 0.930 . S
H849 C858 0.930 . S
H850 C863 0.929 . S
H851 C861 0.929 . S
H852 C856 0.929 . S
H853 C862 0.929 . S
C854 H848 0.930 . S
C854 C855 1.367 . S
C854 C862 1.378 . S
C855 C854 1.367 . S
C855 C863 1.433 . S
C856 H852 0.929 . S
C856 C858 1.378 . S
C856 C860 1.350 . S
C857 C860 1.463 . S
C857 C862 1.350 . S
C857 N865 1.427 . S
C858 H849 0.930 . S
C858 C856 1.378 . S
C858 C859 1.367 . S
C859 C858 1.367 . S
C859 C861 1.433 . S
C860 C856 1.350 . S
C860 C857 1.463 . S
C860 N864 1.427 . S
C861 H851 0.929 . S
C861 C859 1.433 . S
C861 N864 1.384 . S
C862 H853 0.929 . S
C862 C854 1.378 . S
C862 C857 1.350 . S
C863 H850 0.929 . S
C863 C855 1.433 . S
C863 N865 1.384 . S
N864 C860 1.427 . S
N864 C861 1.384 . S
N865 C857 1.427 . S
N865 C863 1.384 . S
H866 C872 0.930 . S
H867 C876 0.930 . S
H868 C881 0.929 . S
H869 C879 0.929 . S
H870 C874 0.929 . S
H871 C880 0.929 . S
C872 H866 0.930 . S
C872 C873 1.367 . S
C872 C880 1.378 . S
C873 C872 1.367 . S
C873 C881 1.433 . S
C874 H870 0.929 . S
C874 C876 1.378 . S
C874 C878 1.350 . S
C875 C878 1.463 . S
C875 C880 1.350 . S
C875 N883 1.427 . S
C876 H867 0.930 . S
C876 C874 1.378 . S
C876 C877 1.367 . S
C877 C876 1.367 . S
C877 C879 1.433 . S
C878 C874 1.350 . S
C878 C875 1.463 . S
C878 N882 1.427 . S
C879 H869 0.929 . S
C879 C877 1.433 . S
C879 N882 1.384 . S
C880 H871 0.929 . S
C880 C872 1.378 . S
C880 C875 1.350 . S
C881 H868 0.929 . S
C881 C873 1.433 . S
C881 N883 1.384 . S
N882 C878 1.427 . S
N882 C879 1.384 . S
N883 C875 1.427 . S
N883 C881 1.384 . S
H884 C890 0.930 . S
H885 C894 0.930 . S
H886 C899 0.929 . S
H887 C897 0.929 . S
H888 C892 0.929 . S
H889 C898 0.929 . S
C890 H884 0.930 . S
C890 C891 1.367 . S
C890 C898 1.378 . S
C891 C890 1.367 . S
C891 C899 1.433 . S
C892 H888 0.929 . S
C892 C894 1.378 . S
C892 C896 1.350 . S
C893 C896 1.463 . S
C893 C898 1.350 . S
C893 N901 1.427 . S
C894 H885 0.930 . S
C894 C892 1.378 . S
C894 C895 1.367 . S
C895 C894 1.367 . S
C895 C897 1.433 . S
C896 C892 1.350 . S
C896 C893 1.463 . S
C896 N900 1.427 . S
C897 H887 0.929 . S
C897 C895 1.433 . S
C897 N900 1.384 . S
C898 H889 0.929 . S
C898 C890 1.378 . S
C898 C893 1.350 . S
C899 H886 0.929 . S
C899 C891 1.433 . S
C899 N901 1.384 . S
N900 C896 1.427 . S
N900 C897 1.384 . S
N901 C893 1.427 . S
N901 C899 1.384 . S
H902 C908 0.930 . S
H903 C912 0.930 . S
H904 C917 0.929 . S
H905 C915 0.929 . S
H906 C910 0.929 . S
H907 C916 0.929 . S
C908 H902 0.930 . S
C908 C909 1.367 . S
C908 C916 1.378 . S
C909 C908 1.367 . S
C909 C917 1.433 . S
C910 H906 0.929 . S
C910 C912 1.378 . S
C910 C914 1.350 . S
C911 C914 1.463 . S
C911 C916 1.350 . S
C911 N919 1.427 . S
C912 H903 0.930 . S
C912 C910 1.378 . S
C912 C913 1.367 . S
C913 C912 1.367 . S
C913 C915 1.433 . S
C914 C910 1.350 . S
C914 C911 1.463 . S
C914 N918 1.427 . S
C915 H905 0.929 . S
C915 C913 1.433 . S
C915 N918 1.384 . S
C916 H907 0.929 . S
C916 C908 1.378 . S
C916 C911 1.350 . S
C917 H904 0.929 . S
C917 C909 1.433 . S
C917 N919 1.384 . S
N918 C914 1.427 . S
N918 C915 1.384 . S
N919 C911 1.427 . S
N919 C917 1.384 . S
H920 C926 0.930 . S
H921 C930 0.930 . S
H922 C935 0.929 . S
H923 C933 0.929 . S
H924 C928 0.929 . S
H925 C934 0.929 . S
C926 H920 0.930 . S
C926 C927 1.367 . S
C926 C934 1.378 1_554 S
C927 C926 1.367 . S
C927 C935 1.433 . S
C928 H924 0.929 . S
C928 C930 1.378 . S
C928 C932 1.350 . S
C929 C932 1.463 . S
C929 C934 1.350 . S
C929 N937 1.427 . S
C930 H921 0.930 . S
C930 C928 1.378 . S
C930 C931 1.367 . S
C931 C930 1.367 . S
C931 C933 1.433 . S
C932 C928 1.350 . S
C932 C929 1.463 . S
C932 N936 1.427 . S
C933 H923 0.929 . S
C933 C931 1.433 . S
C933 N936 1.384 . S
C934 H925 0.929 . S
C934 C926 1.378 1_556 S
C934 C929 1.350 . S
C935 H922 0.929 . S
C935 C927 1.433 . S
C935 N937 1.384 1_554 S
N936 C932 1.427 . S
N936 C933 1.384 . S
N937 C929 1.427 . S
N937 C935 1.384 1_556 S
H938 C944 0.930 . S
H939 C948 0.930 . S
H940 C953 0.929 . S
H941 C951 0.929 . S
H942 C946 0.929 . S
H943 C952 0.929 . S
C944 H938 0.930 . S
C944 C945 1.367 . S
C944 C952 1.378 . S
C945 C944 1.367 . S
C945 C953 1.433 1_654 S
C946 H942 0.929 . S
C946 C948 1.378 . S
C946 C950 1.350 . S
C947 C950 1.463 . S
C947 C952 1.350 1_556 S
C947 N955 1.427 . S
C948 H939 0.930 . S
C948 C946 1.378 . S
C948 C949 1.367 . S
C949 C948 1.367 . S
C949 C951 1.433 . S
C950 C946 1.350 . S
C950 C947 1.463 . S
C950 N954 1.427 . S
C951 H941 0.929 . S
C951 C949 1.433 . S
C951 N954 1.384 . S
C952 H943 0.929 . S
C952 C944 1.378 . S
C952 C947 1.350 1_554 S
C953 H940 0.929 . S
C953 C945 1.433 1_456 S
C953 N955 1.384 1_455 S
N954 C950 1.427 . S
N954 C951 1.384 . S
N955 C947 1.427 . S
N955 C953 1.384 1_655 S
H956 C962 0.930 . S
H957 C966 0.930 . S
H958 C971 0.929 . S
H959 C969 0.929 . S
H960 C964 0.929 . S
H961 C970 0.929 . S
C962 H956 0.930 . S
C962 C963 1.367 . S
C962 C970 1.378 . S
C963 C962 1.367 . S
C963 C971 1.433 . S
C964 H960 0.929 . S
C964 C966 1.378 . S
C964 C968 1.350 . S
C965 C968 1.463 . S
C965 C970 1.350 . S
C965 N973 1.427 . S
C966 H957 0.930 . S
C966 C964 1.378 . S
C966 C967 1.367 . S
C967 C966 1.367 . S
C967 C969 1.433 . S
C968 C964 1.350 . S
C968 C965 1.463 . S
C968 N972 1.427 . S
C969 H959 0.929 . S
C969 C967 1.433 . S
C969 N972 1.384 . S
C970 H961 0.929 . S
C970 C962 1.378 . S
C970 C965 1.350 . S
C971 H958 0.929 . S
C971 C963 1.433 . S
C971 N973 1.384 . S
N972 C968 1.427 . S
N972 C969 1.384 . S
N973 C965 1.427 . S
N973 C971 1.384 . S
H974 C980 0.930 . S
H975 C984 0.930 . S
H976 C989 0.929 . S
H977 C987 0.929 . S
H978 C982 0.929 . S
H979 C988 0.929 . S
C980 H974 0.930 . S
C980 C981 1.367 . S
C980 C988 1.378 . S
C981 C980 1.367 . S
C981 C989 1.433 . S
C982 H978 0.929 . S
C982 C984 1.378 . S
C982 C986 1.350 . S
C983 C986 1.463 . S
C983 C988 1.350 . S
C983 N991 1.427 . S
C984 H975 0.930 . S
C984 C982 1.378 . S
C984 C985 1.367 . S
C985 C984 1.367 . S
C985 C987 1.433 . S
C986 C982 1.350 . S
C986 C983 1.463 . S
C986 N990 1.427 . S
C987 H977 0.929 . S
C987 C985 1.433 . S
C987 N990 1.384 . S
C988 H979 0.929 . S
C988 C980 1.378 . S
C988 C983 1.350 . S
C989 H976 0.929 . S
C989 C981 1.433 . S
C989 N991 1.384 . S
N990 C986 1.427 . S
N990 C987 1.384 . S
N991 C983 1.427 . S
N991 C989 1.384 . S
H992 C998 0.930 1_545 S
H993 C1002 0.930 . S
H994 C1007 0.929 . S
H995 C1005 0.929 . S
H996 C1000 0.929 . S
H997 C1006 0.929 . S
C998 H992 0.930 1_565 S
C998 C999 1.367 . S
C998 C1006 1.378 . S
C999 C998 1.367 . S
C999 C1007 1.433 . S
C1000 H996 0.929 . S
C1000 C1002 1.378 . S
C1000 C1004 1.350 . S
C1001 C1004 1.463 . S
C1001 C1006 1.350 . S
C1001 N1009 1.427 . S
C1002 H993 0.930 . S
C1002 C1000 1.378 . S
C1002 C1003 1.367 . S
C1003 C1002 1.367 . S
C1003 C1005 1.433 . S
C1004 C1000 1.350 . S
C1004 C1001 1.463 . S
C1004 N1008 1.427 . S
C1005 H995 0.929 . S
C1005 C1003 1.433 . S
C1005 N1008 1.384 . S
C1006 H997 0.929 . S
C1006 C998 1.378 . S
C1006 C1001 1.350 . S
C1007 H994 0.929 . S
C1007 C999 1.433 . S
C1007 N1009 1.384 . S
N1008 C1004 1.427 . S
N1008 C1005 1.384 . S
N1009 C1001 1.427 . S
N1009 C1007 1.384 . S
H1010 C1016 0.930 . S
H1011 C1020 0.930 . S
H1012 C1025 0.929 . S
H1013 C1023 0.929 . S
H1014 C1018 0.929 . S
H1015 C1024 0.929 . S
C1016 H1010 0.930 . S
C1016 C1017 1.367 . S
C1016 C1024 1.378 . S
C1017 C1016 1.367 . S
C1017 C1025 1.433 . S
C1018 H1014 0.929 . S
C1018 C1020 1.378 . S
C1018 C1022 1.350 . S
C1019 C1022 1.463 . S
C1019 C1024 1.350 . S
C1019 N1027 1.427 . S
C1020 H1011 0.930 . S
C1020 C1018 1.378 . S
C1020 C1021 1.367 . S
C1021 C1020 1.367 . S
C1021 C1023 1.433 . S
C1022 C1018 1.350 . S
C1022 C1019 1.463 . S
C1022 N1026 1.427 . S
C1023 H1013 0.929 . S
C1023 C1021 1.433 . S
C1023 N1026 1.384 . S
C1024 H1015 0.929 . S
C1024 C1016 1.378 . S
C1024 C1019 1.350 . S
C1025 H1012 0.929 . S
C1025 C1017 1.433 . S
C1025 N1027 1.384 . S
N1026 C1022 1.427 . S
N1026 C1023 1.384 . S
N1027 C1019 1.427 . S
N1027 C1025 1.384 . S
H1028 C1034 0.930 . S
H1029 C1038 0.930 . S
H1030 C1043 0.929 . S
H1031 C1041 0.929 . S
H1032 C1036 0.929 . S
H1033 C1042 0.929 . S
C1034 H1028 0.930 . S
C1034 C1035 1.367 . S
C1034 C1042 1.378 . S
C1035 C1034 1.367 . S
C1035 C1043 1.433 . S
C1036 H1032 0.929 . S
C1036 C1038 1.378 . S
C1036 C1040 1.350 . S
C1037 C1040 1.463 . S
C1037 C1042 1.350 . S
C1037 N1045 1.427 . S
C1038 H1029 0.930 . S
C1038 C1036 1.378 . S
C1038 C1039 1.367 . S
C1039 C1038 1.367 . S
C1039 C1041 1.433 . S
C1040 C1036 1.350 . S
C1040 C1037 1.463 . S
C1040 N1044 1.427 . S
C1041 H1031 0.929 . S
C1041 C1039 1.433 . S
C1041 N1044 1.384 . S
C1042 H1033 0.929 . S
C1042 C1034 1.378 . S
C1042 C1037 1.350 . S
C1043 H1030 0.929 . S
C1043 C1035 1.433 . S
C1043 N1045 1.384 . S
N1044 C1040 1.427 . S
N1044 C1041 1.384 . S
N1045 C1037 1.427 . S
N1045 C1043 1.384 . S
H1046 C1052 0.930 . S
H1047 C1056 0.930 . S
H1048 C1061 0.929 . S
H1049 C1059 0.929 . S
H1050 C1054 0.929 . S
H1051 C1060 0.929 . S
C1052 H1046 0.930 . S
C1052 C1053 1.367 . S
C1052 C1060 1.378 . S
C1053 C1052 1.367 . S
C1053 C1061 1.433 . S
C1054 H1050 0.929 . S
C1054 C1056 1.378 . S
C1054 C1058 1.350 . S
C1055 C1058 1.463 . S
C1055 C1060 1.350 . S
C1055 N1063 1.427 . S
C1056 H1047 0.930 . S
C1056 C1054 1.378 . S
C1056 C1057 1.367 . S
C1057 C1056 1.367 . S
C1057 C1059 1.433 . S
C1058 C1054 1.350 . S
C1058 C1055 1.463 . S
C1058 N1062 1.427 . S
C1059 H1049 0.929 . S
C1059 C1057 1.433 . S
C1059 N1062 1.384 . S
C1060 H1051 0.929 . S
C1060 C1052 1.378 . S
C1060 C1055 1.350 . S
C1061 H1048 0.929 . S
C1061 C1053 1.433 . S
C1061 N1063 1.384 . S
N1062 C1058 1.427 . S
N1062 C1059 1.384 . S
N1063 C1055 1.427 . S
N1063 C1061 1.384 . S
H1064 C1070 0.930 . S
H1065 C1074 0.930 . S
H1066 C1079 0.929 . S
H1067 C1077 0.929 . S
H1068 C1072 0.929 . S
H1069 C1078 0.929 . S
C1070 H1064 0.930 . S
C1070 C1071 1.367 . S
C1070 C1078 1.378 . S
C1071 C1070 1.367 . S
C1071 C1079 1.433 . S
C1072 H1068 0.929 . S
C1072 C1074 1.378 . S
C1072 C1076 1.350 . S
C1073 C1076 1.463 . S
C1073 C1078 1.350 . S
C1073 N1081 1.427 . S
C1074 H1065 0.930 . S
C1074 C1072 1.378 . S
C1074 C1075 1.367 . S
C1075 C1074 1.367 . S
C1075 C1077 1.433 . S
C1076 C1072 1.350 . S
C1076 C1073 1.463 . S
C1076 N1080 1.427 . S
C1077 H1067 0.929 . S
C1077 C1075 1.433 . S
C1077 N1080 1.384 . S
C1078 H1069 0.929 . S
C1078 C1070 1.378 . S
C1078 C1073 1.350 . S
C1079 H1066 0.929 . S
C1079 C1071 1.433 . S
C1079 N1081 1.384 . S
N1080 C1076 1.427 . S
N1080 C1077 1.384 . S
N1081 C1073 1.427 . S
N1081 C1079 1.384 . S
H1082 C1088 0.930 . S
H1083 C1092 0.930 . S
H1084 C1097 0.929 . S
H1085 C1095 0.929 . S
H1086 C1090 0.929 . S
H1087 C1096 0.929 . S
C1088 H1082 0.930 . S
C1088 C1089 1.367 . S
C1088 C1096 1.378 . S
C1089 C1088 1.367 . S
C1089 C1097 1.433 . S
C1090 H1086 0.929 . S
C1090 C1092 1.378 . S
C1090 C1094 1.350 . S
C1091 C1094 1.463 . S
C1091 C1096 1.350 . S
C1091 N1099 1.427 . S
C1092 H1083 0.930 . S
C1092 C1090 1.378 . S
C1092 C1093 1.367 . S
C1093 C1092 1.367 . S
C1093 C1095 1.433 . S
C1094 C1090 1.350 . S
C1094 C1091 1.463 . S
C1094 N1098 1.427 . S
C1095 H1085 0.929 . S
C1095 C1093 1.433 . S
C1095 N1098 1.384 . S
C1096 H1087 0.929 . S
C1096 C1088 1.378 . S
C1096 C1091 1.350 . S
C1097 H1084 0.929 . S
C1097 C1089 1.433 . S
C1097 N1099 1.384 . S
N1098 C1094 1.427 . S
N1098 C1095 1.384 . S
N1099 C1091 1.427 . S
N1099 C1097 1.384 . S
H1100 C1106 0.930 . S
H1101 C1110 0.930 . S
H1102 C1115 0.929 . S
H1103 C1113 0.929 . S
H1104 C1108 0.929 . S
H1105 C1114 0.929 . S
C1106 H1100 0.930 . S
C1106 C1107 1.367 . S
C1106 C1114 1.378 . S
C1107 C1106 1.367 . S
C1107 C1115 1.433 . S
C1108 H1104 0.929 . S
C1108 C1110 1.378 . S
C1108 C1112 1.350 . S
C1109 C1112 1.463 . S
C1109 C1114 1.350 . S
C1109 N1117 1.427 . S
C1110 H1101 0.930 . S
C1110 C1108 1.378 . S
C1110 C1111 1.367 . S
C1111 C1110 1.367 . S
C1111 C1113 1.433 . S
C1112 C1108 1.350 . S
C1112 C1109 1.463 . S
C1112 N1116 1.427 . S
C1113 H1103 0.929 . S
C1113 C1111 1.433 . S
C1113 N1116 1.384 . S
C1114 H1105 0.929 . S
C1114 C1106 1.378 . S
C1114 C1109 1.350 . S
C1115 H1102 0.929 . S
C1115 C1107 1.433 . S
C1115 N1117 1.384 . S
N1116 C1112 1.427 . S
N1116 C1113 1.384 . S
N1117 C1109 1.427 . S
N1117 C1115 1.384 . S
H1118 C1124 0.930 . S
H1119 C1128 0.930 . S
H1120 C1133 0.929 . S
H1121 C1131 0.929 . S
H1122 C1126 0.929 . S
H1123 C1132 0.929 . S
C1124 H1118 0.930 . S
C1124 C1125 1.367 . S
C1124 C1132 1.378 . S
C1125 C1124 1.367 . S
C1125 C1133 1.433 . S
C1126 H1122 0.929 . S
C1126 C1128 1.378 . S
C1126 C1130 1.350 . S
C1127 C1130 1.463 . S
C1127 C1132 1.350 . S
C1127 N1135 1.427 . S
C1128 H1119 0.930 . S
C1128 C1126 1.378 . S
C1128 C1129 1.367 . S
C1129 C1128 1.367 . S
C1129 C1131 1.433 . S
C1130 C1126 1.350 . S
C1130 C1127 1.463 . S
C1130 N1134 1.427 . S
C1131 H1121 0.929 . S
C1131 C1129 1.433 . S
C1131 N1134 1.384 . S
C1132 H1123 0.929 . S
C1132 C1124 1.378 . S
C1132 C1127 1.350 . S
C1133 H1120 0.929 . S
C1133 C1125 1.433 . S
C1133 N1135 1.384 . S
N1134 C1130 1.427 . S
N1134 C1131 1.384 . S
N1135 C1127 1.427 . S
N1135 C1133 1.384 . S
H1136 C1142 0.930 . S
H1137 C1146 0.930 . S
H1138 C1151 0.929 . S
H1139 C1149 0.929 . S
H1140 C1144 0.929 . S
H1141 C1150 0.929 . S
C1142 H1136 0.930 . S
C1142 C1143 1.367 . S
C1142 C1150 1.378 . S
C1143 C1142 1.367 . S
C1143 C1151 1.433 . S
C1144 H1140 0.929 . S
C1144 C1146 1.378 . S
C1144 C1148 1.350 . S
C1145 C1148 1.463 . S
C1145 C1150 1.350 . S
C1145 N1153 1.427 . S
C1146 H1137 0.930 . S
C1146 C1144 1.378 . S
C1146 C1147 1.367 . S
C1147 C1146 1.367 . S
C1147 C1149 1.433 . S
C1148 C1144 1.350 . S
C1148 C1145 1.463 . S
C1148 N1152 1.427 . S
C1149 H1139 0.929 . S
C1149 C1147 1.433 . S
C1149 N1152 1.384 . S
C1150 H1141 0.929 . S
C1150 C1142 1.378 . S
C1150 C1145 1.350 . S
C1151 H1138 0.929 . S
C1151 C1143 1.433 . S
C1151 N1153 1.384 . S
N1152 C1148 1.427 . S
N1152 C1149 1.384 . S
N1153 C1145 1.427 . S
N1153 C1151 1.384 . S
H1154 C1160 0.930 . S
H1155 C1164 0.930 . S
H1156 C1169 0.929 . S
H1157 C1167 0.929 . S
H1158 C1162 0.929 . S
H1159 C1168 0.929 . S
C1160 H1154 0.930 . S
C1160 C1161 1.367 . S
C1160 C1168 1.378 . S
C1161 C1160 1.367 . S
C1161 C1169 1.433 . S
C1162 H1158 0.929 . S
C1162 C1164 1.378 . S
C1162 C1166 1.350 . S
C1163 C1166 1.463 . S
C1163 C1168 1.350 . S
C1163 N1171 1.427 . S
C1164 H1155 0.930 . S
C1164 C1162 1.378 . S
C1164 C1165 1.367 . S
C1165 C1164 1.367 . S
C1165 C1167 1.433 . S
C1166 C1162 1.350 . S
C1166 C1163 1.463 . S
C1166 N1170 1.427 . S
C1167 H1157 0.929 . S
C1167 C1165 1.433 . S
C1167 N1170 1.384 . S
C1168 H1159 0.929 . S
C1168 C1160 1.378 . S
C1168 C1163 1.350 . S
C1169 H1156 0.929 . S
C1169 C1161 1.433 . S
C1169 N1171 1.384 . S
N1170 C1166 1.427 . S
N1170 C1167 1.384 . S
N1171 C1163 1.427 . S
N1171 C1169 1.384 . S
H1172 C1178 0.930 . S
H1173 C1182 0.930 . S
H1174 C1187 0.929 . S
H1175 C1185 0.929 . S
H1176 C1180 0.929 . S
H1177 C1186 0.929 . S
C1178 H1172 0.930 . S
C1178 C1179 1.367 . S
C1178 C1186 1.378 . S
C1179 C1178 1.367 . S
C1179 C1187 1.433 . S
C1180 H1176 0.929 . S
C1180 C1182 1.378 . S
C1180 C1184 1.350 . S
C1181 C1184 1.463 . S
C1181 C1186 1.350 . S
C1181 N1189 1.427 . S
C1182 H1173 0.930 . S
C1182 C1180 1.378 . S
C1182 C1183 1.367 . S
C1183 C1182 1.367 . S
C1183 C1185 1.433 . S
C1184 C1180 1.350 . S
C1184 C1181 1.463 . S
C1184 N1188 1.427 . S
C1185 H1175 0.929 . S
C1185 C1183 1.433 . S
C1185 N1188 1.384 . S
C1186 H1177 0.929 . S
C1186 C1178 1.378 . S
C1186 C1181 1.350 . S
C1187 H1174 0.929 . S
C1187 C1179 1.433 . S
C1187 N1189 1.384 . S
N1188 C1184 1.427 . S
N1188 C1185 1.384 . S
N1189 C1181 1.427 . S
N1189 C1187 1.384 . S
H1190 C1196 0.930 . S
H1191 C1200 0.930 . S
H1192 C1205 0.929 . S
H1193 C1203 0.929 . S
H1194 C1198 0.929 . S
H1195 C1204 0.929 . S
C1196 H1190 0.930 . S
C1196 C1197 1.367 . S
C1196 C1204 1.378 . S
C1197 C1196 1.367 . S
C1197 C1205 1.433 . S
C1198 H1194 0.929 . S
C1198 C1200 1.378 . S
C1198 C1202 1.350 . S
C1199 C1202 1.463 . S
C1199 C1204 1.350 . S
C1199 N1207 1.427 . S
C1200 H1191 0.930 . S
C1200 C1198 1.378 . S
C1200 C1201 1.367 . S
C1201 C1200 1.367 . S
C1201 C1203 1.433 . S
C1202 C1198 1.350 . S
C1202 C1199 1.463 . S
C1202 N1206 1.427 . S
C1203 H1193 0.929 . S
C1203 C1201 1.433 . S
C1203 N1206 1.384 . S
C1204 H1195 0.929 . S
C1204 C1196 1.378 . S
C1204 C1199 1.350 . S
C1205 H1192 0.929 . S
C1205 C1197 1.433 . S
C1205 N1207 1.384 . S
N1206 C1202 1.427 . S
N1206 C1203 1.384 . S
N1207 C1199 1.427 . S
N1207 C1205 1.384 . S
H1208 C1214 0.930 . S
H1209 C1218 0.930 . S
H1210 C1223 0.929 . S
H1211 C1221 0.929 . S
H1212 C1216 0.929 . S
H1213 C1222 0.929 . S
C1214 H1208 0.930 . S
C1214 C1215 1.367 . S
C1214 C1222 1.378 . S
C1215 C1214 1.367 . S
C1215 C1223 1.433 . S
C1216 H1212 0.929 . S
C1216 C1218 1.378 . S
C1216 C1220 1.350 . S
C1217 C1220 1.463 . S
C1217 C1222 1.350 . S
C1217 N1225 1.427 . S
C1218 H1209 0.930 . S
C1218 C1216 1.378 . S
C1218 C1219 1.367 . S
C1219 C1218 1.367 . S
C1219 C1221 1.433 . S
C1220 C1216 1.350 . S
C1220 C1217 1.463 . S
C1220 N1224 1.427 . S
C1221 H1211 0.929 . S
C1221 C1219 1.433 . S
C1221 N1224 1.384 . S
C1222 H1213 0.929 . S
C1222 C1214 1.378 . S
C1222 C1217 1.350 . S
C1223 H1210 0.929 . S
C1223 C1215 1.433 . S
C1223 N1225 1.384 . S
N1224 C1220 1.427 . S
N1224 C1221 1.384 . S
N1225 C1217 1.427 . S
N1225 C1223 1.384 . S
H1226 C1232 0.930 . S
H1227 C1236 0.930 . S
H1228 C1241 0.929 . S
H1229 C1239 0.929 . S
H1230 C1234 0.929 . S
H1231 C1240 0.929 . S
C1232 H1226 0.930 . S
C1232 C1233 1.367 . S
C1232 C1240 1.378 . S
C1233 C1232 1.367 . S
C1233 C1241 1.433 . S
C1234 H1230 0.929 . S
C1234 C1236 1.378 . S
C1234 C1238 1.350 . S
C1235 C1238 1.463 . S
C1235 C1240 1.350 . S
C1235 N1243 1.427 . S
C1236 H1227 0.930 . S
C1236 C1234 1.378 . S
C1236 C1237 1.367 . S
C1237 C1236 1.367 . S
C1237 C1239 1.433 . S
C1238 C1234 1.350 . S
C1238 C1235 1.463 . S
C1238 N1242 1.427 . S
C1239 H1229 0.929 . S
C1239 C1237 1.433 . S
C1239 N1242 1.384 . S
C1240 H1231 0.929 . S
C1240 C1232 1.378 . S
C1240 C1235 1.350 . S
C1241 H1228 0.929 . S
C1241 C1233 1.433 . S
C1241 N1243 1.384 . S
N1242 C1238 1.427 . S
N1242 C1239 1.384 . S
N1243 C1235 1.427 . S
N1243 C1241 1.384 . S
H1244 C1250 0.930 . S
H1245 C1254 0.930 . S
H1246 C1259 0.929 . S
H1247 C1257 0.929 . S
H1248 C1252 0.929 . S
H1249 C1258 0.929 . S
C1250 H1244 0.930 . S
C1250 C1251 1.367 . S
C1250 C1258 1.378 . S
C1251 C1250 1.367 . S
C1251 C1259 1.433 . S
C1252 H1248 0.929 . S
C1252 C1254 1.378 . S
C1252 C1256 1.350 . S
C1253 C1256 1.463 . S
C1253 C1258 1.350 . S
C1253 N1261 1.427 . S
C1254 H1245 0.930 . S
C1254 C1252 1.378 . S
C1254 C1255 1.367 . S
C1255 C1254 1.367 . S
C1255 C1257 1.433 . S
C1256 C1252 1.350 . S
C1256 C1253 1.463 . S
C1256 N1260 1.427 . S
C1257 H1247 0.929 . S
C1257 C1255 1.433 . S
C1257 N1260 1.384 . S
C1258 H1249 0.929 . S
C1258 C1250 1.378 . S
C1258 C1253 1.350 . S
C1259 H1246 0.929 . S
C1259 C1251 1.433 . S
C1259 N1261 1.384 . S
N1260 C1256 1.427 . S
N1260 C1257 1.384 . S
N1261 C1253 1.427 . S
N1261 C1259 1.384 . S
H1262 C1268 0.930 . S
H1263 C1272 0.930 . S
H1264 C1277 0.929 . S
H1265 C1275 0.929 . S
H1266 C1270 0.929 . S
H1267 C1276 0.929 . S
C1268 H1262 0.930 . S
C1268 C1269 1.367 . S
C1268 C1276 1.378 . S
C1269 C1268 1.367 . S
C1269 C1277 1.433 . S
C1270 H1266 0.929 . S
C1270 C1272 1.378 . S
C1270 C1274 1.350 . S
C1271 C1274 1.463 . S
C1271 C1276 1.350 . S
C1271 N1279 1.427 . S
C1272 H1263 0.930 . S
C1272 C1270 1.378 . S
C1272 C1273 1.367 . S
C1273 C1272 1.367 . S
C1273 C1275 1.433 . S
C1274 C1270 1.350 . S
C1274 C1271 1.463 . S
C1274 N1278 1.427 . S
C1275 H1265 0.929 . S
C1275 C1273 1.433 . S
C1275 N1278 1.384 . S
C1276 H1267 0.929 . S
C1276 C1268 1.378 . S
C1276 C1271 1.350 . S
C1277 H1264 0.929 . S
C1277 C1269 1.433 . S
C1277 N1279 1.384 . S
N1278 C1274 1.427 . S
N1278 C1275 1.384 . S
N1279 C1271 1.427 . S
N1279 C1277 1.384 . S
H1280 C1286 0.930 . S
H1281 C1290 0.930 . S
H1282 C1295 0.929 . S
H1283 C1293 0.929 . S
H1284 C1288 0.929 . S
H1285 C1294 0.929 . S
C1286 H1280 0.930 . S
C1286 C1287 1.367 . S
C1286 C1294 1.378 . S
C1287 C1286 1.367 . S
C1287 C1295 1.433 . S
C1288 H1284 0.929 . S
C1288 C1290 1.378 . S
C1288 C1292 1.350 . S
C1289 C1292 1.463 . S
C1289 C1294 1.350 . S
C1289 N1297 1.427 . S
C1290 H1281 0.930 . S
C1290 C1288 1.378 . S
C1290 C1291 1.367 . S
C1291 C1290 1.367 . S
C1291 C1293 1.433 . S
C1292 C1288 1.350 . S
C1292 C1289 1.463 . S
C1292 N1296 1.427 . S
C1293 H1283 0.929 . S
C1293 C1291 1.433 . S
C1293 N1296 1.384 . S
C1294 H1285 0.929 . S
C1294 C1286 1.378 . S
C1294 C1289 1.350 . S
C1295 H1282 0.929 . S
C1295 C1287 1.433 . S
C1295 N1297 1.384 . S
N1296 C1292 1.427 . S
N1296 C1293 1.384 . S
N1297 C1289 1.427 . S
N1297 C1295 1.384 . S
H1298 C1304 0.930 . S
H1299 C1308 0.930 . S
H1300 C1313 0.929 . S
H1301 C1311 0.929 . S
H1302 C1306 0.929 . S
H1303 C1312 0.929 . S
C1304 H1298 0.930 . S
C1304 C1305 1.367 . S
C1304 C1312 1.378 . S
C1305 C1304 1.367 . S
C1305 C1313 1.433 . S
C1306 H1302 0.929 . S
C1306 C1308 1.378 . S
C1306 C1310 1.350 . S
C1307 C1310 1.463 . S
C1307 C1312 1.350 . S
C1307 N1315 1.427 . S
C1308 H1299 0.930 . S
C1308 C1306 1.378 . S
C1308 C1309 1.367 . S
C1309 C1308 1.367 . S
C1309 C1311 1.433 . S
C1310 C1306 1.350 . S
C1310 C1307 1.463 . S
C1310 N1314 1.427 . S
C1311 H1301 0.929 . S
C1311 C1309 1.433 . S
C1311 N1314 1.384 . S
C1312 H1303 0.929 . S
C1312 C1304 1.378 . S
C1312 C1307 1.350 . S
C1313 H1300 0.929 . S
C1313 C1305 1.433 . S
C1313 N1315 1.384 . S
N1314 C1310 1.427 . S
N1314 C1311 1.384 . S
N1315 C1307 1.427 . S
N1315 C1313 1.384 . S
H1316 C1322 0.930 . S
H1317 C1326 0.930 . S
H1318 C1331 0.929 . S
H1319 C1329 0.929 . S
H1320 C1324 0.929 . S
H1321 C1330 0.929 . S
C1322 H1316 0.930 . S
C1322 C1323 1.367 . S
C1322 C1330 1.378 . S
C1323 C1322 1.367 . S
C1323 C1331 1.433 . S
C1324 H1320 0.929 . S
C1324 C1326 1.378 . S
C1324 C1328 1.350 . S
C1325 C1328 1.463 . S
C1325 C1330 1.350 . S
C1325 N1333 1.427 . S
C1326 H1317 0.930 . S
C1326 C1324 1.378 . S
C1326 C1327 1.367 . S
C1327 C1326 1.367 . S
C1327 C1329 1.433 . S
C1328 C1324 1.350 . S
C1328 C1325 1.463 . S
C1328 N1332 1.427 . S
C1329 H1319 0.929 . S
C1329 C1327 1.433 . S
C1329 N1332 1.384 . S
C1330 H1321 0.929 . S
C1330 C1322 1.378 . S
C1330 C1325 1.350 . S
C1331 H1318 0.929 . S
C1331 C1323 1.433 . S
C1331 N1333 1.384 . S
N1332 C1328 1.427 . S
N1332 C1329 1.384 . S
N1333 C1325 1.427 . S
N1333 C1331 1.384 . S
H1334 C1340 0.930 . S
H1335 C1344 0.930 . S
H1336 C1349 0.929 . S
H1337 C1347 0.929 . S
H1338 C1342 0.929 . S
H1339 C1348 0.929 . S
C1340 H1334 0.930 . S
C1340 C1341 1.367 . S
C1340 C1348 1.378 . S
C1341 C1340 1.367 . S
C1341 C1349 1.433 . S
C1342 H1338 0.929 . S
C1342 C1344 1.378 . S
C1342 C1346 1.350 . S
C1343 C1346 1.463 . S
C1343 C1348 1.350 . S
C1343 N1351 1.427 . S
C1344 H1335 0.930 . S
C1344 C1342 1.378 . S
C1344 C1345 1.367 . S
C1345 C1344 1.367 . S
C1345 C1347 1.433 . S
C1346 C1342 1.350 . S
C1346 C1343 1.463 . S
C1346 N1350 1.427 . S
C1347 H1337 0.929 . S
C1347 C1345 1.433 . S
C1347 N1350 1.384 . S
C1348 H1339 0.929 . S
C1348 C1340 1.378 . S
C1348 C1343 1.350 . S
C1349 H1336 0.929 . S
C1349 C1341 1.433 . S
C1349 N1351 1.384 . S
N1350 C1346 1.427 . S
N1350 C1347 1.384 . S
N1351 C1343 1.427 . S
N1351 C1349 1.384 . S
H1352 C1358 0.930 . S
H1353 C1362 0.930 . S
H1354 C1367 0.929 . S
H1355 C1365 0.929 . S
H1356 C1360 0.929 . S
H1357 C1366 0.929 . S
C1358 H1352 0.930 . S
C1358 C1359 1.367 . S
C1358 C1366 1.378 . S
C1359 C1358 1.367 . S
C1359 C1367 1.433 . S
C1360 H1356 0.929 . S
C1360 C1362 1.378 . S
C1360 C1364 1.350 . S
C1361 C1364 1.463 . S
C1361 C1366 1.350 . S
C1361 N1369 1.427 . S
C1362 H1353 0.930 . S
C1362 C1360 1.378 . S
C1362 C1363 1.367 . S
C1363 C1362 1.367 . S
C1363 C1365 1.433 . S
C1364 C1360 1.350 . S
C1364 C1361 1.463 . S
C1364 N1368 1.427 . S
C1365 H1355 0.929 . S
C1365 C1363 1.433 . S
C1365 N1368 1.384 . S
C1366 H1357 0.929 . S
C1366 C1358 1.378 . S
C1366 C1361 1.350 . S
C1367 H1354 0.929 . S
C1367 C1359 1.433 . S
C1367 N1369 1.384 . S
N1368 C1364 1.427 . S
N1368 C1365 1.384 . S
N1369 C1361 1.427 . S
N1369 C1367 1.384 . S
H1370 C1376 0.930 . S
H1371 C1380 0.930 . S
H1372 C1385 0.929 . S
H1373 C1383 0.929 . S
H1374 C1378 0.929 . S
H1375 C1384 0.929 . S
C1376 H1370 0.930 . S
C1376 C1377 1.367 . S
C1376 C1384 1.378 . S
C1377 C1376 1.367 . S
C1377 C1385 1.433 . S
C1378 H1374 0.929 . S
C1378 C1380 1.378 . S
C1378 C1382 1.350 . S
C1379 C1382 1.463 . S
C1379 C1384 1.350 . S
C1379 N1387 1.427 . S
C1380 H1371 0.930 . S
C1380 C1378 1.378 . S
C1380 C1381 1.367 . S
C1381 C1380 1.367 . S
C1381 C1383 1.433 . S
C1382 C1378 1.350 . S
C1382 C1379 1.463 . S
C1382 N1386 1.427 . S
C1383 H1373 0.929 . S
C1383 C1381 1.433 . S
C1383 N1386 1.384 . S
C1384 H1375 0.929 . S
C1384 C1376 1.378 . S
C1384 C1379 1.350 . S
C1385 H1372 0.929 . S
C1385 C1377 1.433 . S
C1385 N1387 1.384 . S
N1386 C1382 1.427 . S
N1386 C1383 1.384 . S
N1387 C1379 1.427 . S
N1387 C1385 1.384 . S
H1388 C1394 0.930 . S
H1389 C1398 0.930 . S
H1390 C1403 0.929 . S
H1391 C1401 0.929 . S
H1392 C1396 0.929 . S
H1393 C1402 0.929 . S
C1394 H1388 0.930 . S
C1394 C1395 1.367 . S
C1394 C1402 1.378 . S
C1395 C1394 1.367 . S
C1395 C1403 1.433 . S
C1396 H1392 0.929 . S
C1396 C1398 1.378 . S
C1396 C1400 1.350 . S
C1397 C1400 1.463 . S
C1397 C1402 1.350 . S
C1397 N1405 1.427 . S
C1398 H1389 0.930 . S
C1398 C1396 1.378 . S
C1398 C1399 1.367 . S
C1399 C1398 1.367 . S
C1399 C1401 1.433 . S
C1400 C1396 1.350 . S
C1400 C1397 1.463 . S
C1400 N1404 1.427 . S
C1401 H1391 0.929 . S
C1401 C1399 1.433 . S
C1401 N1404 1.384 . S
C1402 H1393 0.929 . S
C1402 C1394 1.378 . S
C1402 C1397 1.350 . S
C1403 H1390 0.929 . S
C1403 C1395 1.433 . S
C1403 N1405 1.384 . S
N1404 C1400 1.427 . S
N1404 C1401 1.384 . S
N1405 C1397 1.427 . S
N1405 C1403 1.384 . S
H1406 C1412 0.930 . S
H1407 C1416 0.930 . S
H1408 C1421 0.929 . S
H1409 C1419 0.929 . S
H1410 C1414 0.929 . S
H1411 C1420 0.929 . S
C1412 H1406 0.930 . S
C1412 C1413 1.367 . S
C1412 C1420 1.378 . S
C1413 C1412 1.367 . S
C1413 C1421 1.433 . S
C1414 H1410 0.929 . S
C1414 C1416 1.378 . S
C1414 C1418 1.350 . S
C1415 C1418 1.463 . S
C1415 C1420 1.350 . S
C1415 N1423 1.427 . S
C1416 H1407 0.930 . S
C1416 C1414 1.378 . S
C1416 C1417 1.367 . S
C1417 C1416 1.367 . S
C1417 C1419 1.433 . S
C1418 C1414 1.350 . S
C1418 C1415 1.463 . S
C1418 N1422 1.427 . S
C1419 H1409 0.929 . S
C1419 C1417 1.433 . S
C1419 N1422 1.384 . S
C1420 H1411 0.929 . S
C1420 C1412 1.378 . S
C1420 C1415 1.350 . S
C1421 H1408 0.929 . S
C1421 C1413 1.433 . S
C1421 N1423 1.384 . S
N1422 C1418 1.427 . S
N1422 C1419 1.384 . S
N1423 C1415 1.427 . S
N1423 C1421 1.384 . S
H1424 C1430 0.930 . S
H1425 C1434 0.930 . S
H1426 C1439 0.929 . S
H1427 C1437 0.929 . S
H1428 C1432 0.929 . S
H1429 C1438 0.929 . S
C1430 H1424 0.930 . S
C1430 C1431 1.367 . S
C1430 C1438 1.378 . S
C1431 C1430 1.367 . S
C1431 C1439 1.433 . S
C1432 H1428 0.929 . S
C1432 C1434 1.378 . S
C1432 C1436 1.350 . S
C1433 C1436 1.463 . S
C1433 C1438 1.350 . S
C1433 N1441 1.427 . S
C1434 H1425 0.930 . S
C1434 C1432 1.378 . S
C1434 C1435 1.367 . S
C1435 C1434 1.367 . S
C1435 C1437 1.433 . S
C1436 C1432 1.350 . S
C1436 C1433 1.463 . S
C1436 N1440 1.427 . S
C1437 H1427 0.929 . S
C1437 C1435 1.433 . S
C1437 N1440 1.384 . S
C1438 H1429 0.929 . S
C1438 C1430 1.378 . S
C1438 C1433 1.350 . S
C1439 H1426 0.929 . S
C1439 C1431 1.433 . S
C1439 N1441 1.384 . S
N1440 C1436 1.427 . S
N1440 C1437 1.384 . S
N1441 C1433 1.427 . S
N1441 C1439 1.384 . S
H1442 C1448 0.930 . S
H1443 C1452 0.930 . S
H1444 C1457 0.929 . S
H1445 C1455 0.929 . S
H1446 C1450 0.929 . S
H1447 C1456 0.929 . S
C1448 H1442 0.930 . S
C1448 C1449 1.367 . S
C1448 C1456 1.378 . S
C1449 C1448 1.367 . S
C1449 C1457 1.433 . S
C1450 H1446 0.929 . S
C1450 C1452 1.378 . S
C1450 C1454 1.350 . S
C1451 C1454 1.463 . S
C1451 C1456 1.350 . S
C1451 N1459 1.427 . S
C1452 H1443 0.930 . S
C1452 C1450 1.378 . S
C1452 C1453 1.367 . S
C1453 C1452 1.367 . S
C1453 C1455 1.433 . S
C1454 C1450 1.350 . S
C1454 C1451 1.463 . S
C1454 N1458 1.427 . S
C1455 H1445 0.929 . S
C1455 C1453 1.433 . S
C1455 N1458 1.384 . S
C1456 H1447 0.929 . S
C1456 C1448 1.378 . S
C1456 C1451 1.350 . S
C1457 H1444 0.929 . S
C1457 C1449 1.433 . S
C1457 N1459 1.384 . S
N1458 C1454 1.427 . S
N1458 C1455 1.384 . S
N1459 C1451 1.427 . S
N1459 C1457 1.384 . S
C607 C283 1.340 . S
C603 N2 1.330 . S
C625 C326 2.582 . S
C621 C7 2.606 . S
C643 C372 1.730 . S
C639 N12 1.619 . S
C657 C16 1.874 . S
C661 C415 1.905 . S
C679 C455 2.687 . S
C675 C30 2.691 1_565 S
C697 C483 1.481 . S
C693 N35 1.438 . S
C711 C39 2.071 . S
C715 C526 2.028 . S
C733 C572 1.202 . S
C729 N25 1.147 1_565 S
C751 C278 1.210 . S
C747 N58 1.177 . S
C765 N81 1.957 . S
C769 C327 1.936 . S
C787 C366 1.417 . S
C783 N104 1.394 . S
C801 N127 1.228 . S
C805 C403 1.204 . S
C823 C443 0.871 . S
C819 N48 0.912 1_565 S
C841 C478 1.513 . S
C837 N71 1.472 1_556 S
C855 N94 1.356 . S
C859 C527 1.337 . S
C877 C566 1.885 . S
C873 N117 1.889 . S
C891 C85 2.513 . S
C895 C295 2.440 . S
C909 C122 2.444 . S
C913 C438 2.409 . S
C927 C53 2.078 . S
C931 C495 2.012 . S
C949 C532 1.390 . S
C945 C76 1.438 1_655 S
C967 C567 1.847 . S
C963 C99 1.856 . S
C985 C367 1.965 . S
C981 C131 1.967 . S
C1003 C398 1.749 . S
C999 C62 1.777 1_565 S
C1017 C108 1.153 . S
C1021 C332 1.127 . S
C1039 C563 1.411 . S
C1035 N140 1.391 . S
C1053 C145 2.604 . S
C1057 C446 2.580 . S
C1075 C492 1.597 . S
C1071 N150 1.484 . S
C1089 C154 1.884 . S
C1093 C535 1.917 . S
C1111 C335 2.690 . S
C1107 C168 2.698 . S
C1125 N173 1.329 . S
C1129 C363 1.369 . S
C1147 C406 2.031 . S
C1143 C177 2.078 . S
C1165 C292 1.267 . S
C1161 N163 1.208 . S
C1183 C558 1.662 . S
C1179 C200 1.653 . S
C1201 C447 2.221 . S
C1197 N219 2.240 . S
C1215 N242 1.636 . S
C1219 C486 1.662 . S
C1237 C523 1.411 . S
C1233 C269 1.494 . S
C1255 C323 1.146 . S
C1251 C191 1.199 . S
C1269 N209 1.725 . S
C1273 C358 1.777 . S
C1287 N232 1.661 . S
C1291 C407 1.624 . S
C1305 C260 2.444 . S
C1309 C286 2.396 . S
C1323 C223 2.210 . S
C1327 C575 2.135 . S
C1341 N255 1.997 . S
C1345 C318 1.993 . S
C1359 N186 1.584 . S
C1363 C375 1.555 . S
C1381 C412 1.114 . S
C1377 C214 1.143 . S
C1399 C287 1.532 . S
C1395 C237 1.536 . S
C1417 C487 1.560 . S
C1413 N265 1.496 . S
C1435 C518 1.377 . S
C1431 N196 1.381 . S
C1453 C452 0.839 . S
C1449 C246 0.858 . S
