# Generated by pormake.
# Topology nia, (6,6)-cn, num edge types: 1
# Building blocks:
#     Node 0, Type 0, BuildingBlock: GEDQOX_clean_sbu_0, # of connection points: 6
#     Node 1, Type 0, BuildingBlock: GEDQOX_clean_sbu_0, # of connection points: 6
#     Node 2, Type 1, BuildingBlock: MIDCAF_clean_sbu_0, # of connection points: 6
#     Node 3, Type 1, BuildingBlock: MIDCAF_clean_sbu_0, # of connection points: 6
#     Edge 4, Type (0, 1), BuildingBlock: UVAHIK_clean_linker_0, # of connection points: 2
#     Edge 5, Type (0, 1), BuildingBlock: UVAHIK_clean_linker_0, # of connection points: 2
#     Edge 6, Type (0, 1), BuildingBlock: UVAHIK_clean_linker_0, # of connection points: 2
#     Edge 7, Type (0, 1), BuildingBlock: UVAHIK_clean_linker_0, # of connection points: 2
#     Edge 8, Type (0, 1), BuildingBlock: UVAHIK_clean_linker_0, # of connection points: 2
#     Edge 9, Type (0, 1), BuildingBlock: UVAHIK_clean_linker_0, # of connection points: 2
#     Edge 10, Type (0, 1), BuildingBlock: UVAHIK_clean_linker_0, # of connection points: 2
#     Edge 11, Type (0, 1), BuildingBlock: UVAHIK_clean_linker_0, # of connection points: 2
#     Edge 12, Type (0, 1), BuildingBlock: UVAHIK_clean_linker_0, # of connection points: 2
#     Edge 13, Type (0, 1), BuildingBlock: UVAHIK_clean_linker_0, # of connection points: 2
#     Edge 14, Type (0, 1), BuildingBlock: UVAHIK_clean_linker_0, # of connection points: 2
#     Edge 15, Type (0, 1), BuildingBlock: UVAHIK_clean_linker_0, # of connection points: 2
# Relax obj value: 0.272
# Max RMSD: 0.260
# Mean RMSD: 0.233
data_MOF--net-nia--node1-GEDQOX_clean_sbu_0--node2-MIDCAF_clean_sbu_0--edge1-UVAHIK_clean_linker_0
_symmetry_space_group_name_H-M    P1
_symmetry_Int_Tables_number       1
_symmetry_cell_setting            triclinic
loop_
_symmetry_equiv_pos_as_xyz
'x, y, z'
_cell_length_a     34.082815
_cell_length_b     32.221401
_cell_length_c     42.796658
_cell_angle_alpha  100.43977
_cell_angle_beta   74.129688
_cell_angle_gamma 126.67942
loop_
_atom_site_label
_atom_site_type_symbol
_atom_site_fract_x
_atom_site_fract_y
_atom_site_fract_z
_atom_type_partial_charge
Nd0 Nd 0.02802 0.07659 1.00356 0.0
Nd1 Nd 0.01818 0.99027 0.04478 0.0
C2 C 0.05567 0.14778 0.96393 0.0
C3 C 0.03144 0.16231 0.94868 0.0
C4 C 0.04535 0.16957 0.91502 0.0
C5 C 0.02285 0.18324 0.9001 0.0
C6 C 0.98597 0.1902 0.91857 0.0
C7 C 0.97226 0.18299 0.95236 0.0
C8 C 0.99453 0.16901 0.9672 0.0
C9 C 0.93504 0.01802 0.04517 0.0
C10 C 0.06564 0.10829 0.07232 0.0
C11 C 0.98759 0.91751 0.08436 0.0
C12 C 0.00887 0.90053 0.10031 0.0
C13 C 0.97764 0.85197 0.11472 0.0
C14 C 0.99701 0.83479 0.1298 0.0
C15 C 0.04815 0.86593 0.1308 0.0
C16 C 0.07936 0.91482 0.11637 0.0
C17 C 0.0599 0.93191 0.1012 0.0
C18 C 0.11168 0.05098 1.00414 0.0
C19 C 0.98571 0.95922 0.97407 0.0
O20 O 0.05231 0.15532 0.99548 0.0
O21 O 0.05067 0.10426 0.95358 0.0
O22 O 0.94748 0.05395 0.02694 0.0
O23 O 0.9713 0.01492 0.03983 0.0
O24 O 0.07414 0.1239 0.04303 0.0
O25 O 0.03805 0.05903 0.08002 0.0
O26 O 0.99325 0.91105 0.05271 0.0
O27 O 0.99423 0.96178 0.09454 0.0
O28 O 0.10061 0.0162 0.02286 0.0
O29 O 0.07417 0.05165 1.00882 0.0
O30 O 0.97938 0.94291 1.00251 0.0
O31 O 0.00708 0.008 0.96784 0.0
H32 H 0.07361 0.16447 0.90019 0.0
H33 H 0.03395 0.18771 0.87401 0.0
H34 H 0.94469 0.1888 0.96753 0.0
H35 H 0.98288 0.16361 0.99322 0.0
H36 H 0.93812 0.82725 0.11433 0.0
H37 H 0.97174 0.7973 0.14102 0.0
H38 H 0.11899 0.93955 0.11634 0.0
H39 H 0.08467 0.96949 0.09005 0.0
Nd40 Nd 0.97079 0.99987 0.48275 0.0
Nd41 Nd 0.03495 0.03329 0.5365 0.0
C42 C 0.92192 0.98733 0.43961 0.0
C43 C 0.89133 0.94452 0.41851 0.0
C44 C 0.86825 0.95098 0.39923 0.0
C45 C 0.83489 0.90894 0.38164 0.0
C46 C 0.82396 0.85965 0.38318 0.0
C47 C 0.84862 0.85385 0.40174 0.0
C48 C 0.88209 0.896 0.41925 0.0
C49 C 0.93725 0.92395 0.52439 0.0
C50 C 0.95903 0.06574 0.54862 0.0
C51 C 0.0607 0.02695 0.58716 0.0
C52 C 0.1019 0.03667 0.59904 0.0
C53 C 0.10197 0.04727 0.63221 0.0
C54 C 0.13946 0.05455 0.64466 0.0
C55 C 0.17746 0.05117 0.62408 0.0
C56 C 0.17734 0.04066 0.5907 0.0
C57 C 0.1398 0.03351 0.57824 0.0
C58 C 0.08308 0.11287 0.49308 0.0
C59 C 0.05773 0.97995 0.467 0.0
O60 O 0.90249 0.98053 0.4708 0.0
O61 O 0.96986 0.00725 0.43249 0.0
O62 O 0.93257 0.91482 0.49436 0.0
O63 O 0.9555 0.97091 0.53184 0.0
O64 O 0.95762 0.05651 0.51732 0.0
O65 O 0.97912 0.05155 0.56263 0.0
O66 O 0.04291 0.98959 0.56532 0.0
O67 O 0.06313 0.06742 0.58203 0.0
O68 O 0.10157 0.11592 0.517 0.0
O69 O 0.04279 0.0687 0.4931 0.0
O70 O 0.06207 0.99161 0.49771 0.0
O71 O 0.02926 0.98492 0.45445 0.0
H72 H 0.87481 0.98815 0.39856 0.0
H73 H 0.816 0.9146 0.368 0.0
H74 H 0.84134 0.81654 0.4032 0.0
H75 H 0.89973 0.89044 0.43407 0.0
H76 H 0.07285 0.04975 0.64854 0.0
H77 H 0.13907 0.0636 0.67034 0.0
H78 H 0.20596 0.0375 0.5743 0.0
H79 H 0.14013 0.02515 0.55252 0.0
Zn80 Zn 0.34625 0.66078 0.21987 0.0
Zn81 Zn 0.34704 0.68703 0.33453 0.0
Zn82 Zn 0.3377 0.66762 0.27947 0.0
C83 C 0.39985 0.6481 0.30047 0.0
C84 C 0.27956 0.58078 0.33462 0.0
O85 O 0.28288 0.67868 0.27201 0.0
O86 O 0.2949 0.67172 0.21847 0.0
C87 C 0.44113 0.74303 0.23376 0.0
O88 O 0.35941 0.62105 0.28945 0.0
O89 O 0.41047 0.68925 0.31691 0.0
O90 O 0.28588 0.61735 0.35469 0.0
O91 O 0.30238 0.59217 0.30447 0.0
O92 O 0.41875 0.72001 0.21044 0.0
O93 O 0.41684 0.72916 0.26291 0.0
O94 O 0.31253 0.58686 0.26894 0.0
O95 O 0.32666 0.58829 0.21535 0.0
C96 C 0.31156 0.56388 0.24088 0.0
O97 O 0.29317 0.69685 0.30579 0.0
O98 O 0.34129 0.74685 0.34074 0.0
C99 C 0.27265 0.67916 0.24534 0.0
C100 C 0.3059 0.73313 0.32773 0.0
Zn101 Zn 0.70465 0.41927 0.82017 0.0
Zn102 Zn 0.72126 0.3835 0.69878 0.0
Zn103 Zn 0.71276 0.40082 0.75816 0.0
C104 C 0.7458 0.48126 0.70355 0.0
C105 C 0.62297 0.31063 0.72629 0.0
O106 O 0.75121 0.3751 0.77535 0.0
O107 O 0.72876 0.38019 0.82872 0.0
C108 C 0.7652 0.51439 0.78977 0.0
O109 O 0.74674 0.47477 0.73224 0.0
O110 O 0.73006 0.44338 0.6837 0.0
O111 O 0.6548 0.31592 0.70085 0.0
O112 O 0.63672 0.34266 0.75047 0.0
O113 O 0.75137 0.49535 0.8172 0.0
O114 O 0.75241 0.48505 0.76441 0.0
O115 O 0.63088 0.3564 0.78366 0.0
O116 O 0.63247 0.38853 0.83389 0.0
C117 C 0.60775 0.35896 0.81265 0.0
O118 O 0.75759 0.3684 0.74139 0.0
O119 O 0.78021 0.38157 0.68864 0.0
C120 C 0.7504 0.36752 0.80417 0.0
C121 C 0.78332 0.36784 0.71311 0.0
C122 C 0.0526 0.79526 0.14274 0.0
C123 C 0.06869 0.84717 0.14666 0.0
C124 C 0.07149 0.7774 0.15771 0.0
C125 C 0.17866 0.82271 0.19371 0.0
H126 H 0.09183 0.68432 0.2281 0.0
C127 C 0.25338 0.74437 0.25453 0.0
C128 C 0.23977 0.69427 0.24454 0.0
C129 C 0.22856 0.76287 0.24762 0.0
C130 C 0.11664 0.72299 0.21851 0.0
H131 H 0.11701 0.9208 0.16988 0.0
H132 H 0.14993 0.88966 0.19604 0.0
H133 H 0.0571 0.71737 0.20569 0.0
H134 H 0.19025 0.62438 0.21918 0.0
H135 H 0.1467 0.65631 0.20702 0.0
H136 H 0.23831 0.82807 0.2061 0.0
C137 C 0.12314 0.86287 0.18098 0.0
C138 C 0.09675 0.74192 0.20555 0.0
C139 C 0.10428 0.88077 0.16595 0.0
C140 C 0.20042 0.66265 0.22794 0.0
C141 C 0.17554 0.68103 0.22101 0.0
C142 C 0.19852 0.8038 0.20671 0.0
C143 C 0.10699 0.81091 0.17708 0.0
C144 C 0.12761 0.7918 0.19257 0.0
C145 C 0.19008 0.73185 0.23007 0.0
C146 C 0.1679 0.75344 0.21892 0.0
H147 H 0.0259 0.76848 0.12762 0.0
H148 H 0.05889 0.73743 0.15357 0.0
H149 H 0.20374 0.861 0.18357 0.0
H150 H 0.28494 0.77018 0.26622 0.0
H151 H 0.24052 0.80204 0.25517 0.0
C152 C 0.2679 0.09123 0.62042 0.0
C153 C 0.21803 0.06062 0.63737 0.0
C154 C 0.30661 0.10407 0.63414 0.0
C155 C 0.33724 0.12462 0.71303 0.0
H156 H 0.45725 0.14011 0.66003 0.0
C157 C 0.55683 0.21986 0.71393 0.0
C158 C 0.57018 0.26873 0.72701 0.0
C159 C 0.50812 0.18203 0.70971 0.0
C160 C 0.42375 0.13507 0.67551 0.0
H161 H 0.16938 0.01714 0.68123 0.0
H162 H 0.2374 0.04022 0.7054 0.0
H163 H 0.38244 0.09408 0.63788 0.0
H164 H 0.54359 0.3164 0.74713 0.0
H165 H 0.45843 0.25076 0.73909 0.0
H166 H 0.37909 0.16676 0.75044 0.0
C167 C 0.24638 0.05461 0.68165 0.0
C168 C 0.38107 0.10921 0.66262 0.0
C169 C 0.20756 0.04158 0.66785 0.0
C170 C 0.53375 0.27865 0.73727 0.0
C171 C 0.48503 0.24094 0.73281 0.0
C172 C 0.38001 0.15049 0.72599 0.0
C173 C 0.29631 0.08662 0.66511 0.0
C174 C 0.33801 0.10536 0.68081 0.0
C175 C 0.4722 0.19286 0.71793 0.0
C176 C 0.42421 0.15746 0.70696 0.0
H177 H 0.27724 0.10709 0.59713 0.0
H178 H 0.3448 0.12957 0.62105 0.0
H179 H 0.30457 0.12235 0.72759 0.0
H180 H 0.58453 0.2115 0.70599 0.0
H181 H 0.49915 0.14508 0.69871 0.0
C182 C 0.13521 0.19519 0.08866 0.0
C183 C 0.0895 0.1473 0.09745 0.0
C184 C 0.15889 0.23115 0.11258 0.0
C185 C 0.1359 0.27954 0.19153 0.0
H186 H 0.2756 0.34304 0.18917 0.0
C187 C 0.24753 0.4723 0.25804 0.0
C188 C 0.29204 0.5089 0.23764 0.0
C189 C 0.22356 0.41943 0.25042 0.0
C190 C 0.23654 0.32564 0.19027 0.0
H191 H 0.03217 0.09957 0.13794 0.0
H192 H 0.07292 0.16377 0.17984 0.0
H193 H 0.23046 0.26661 0.15503 0.0
H194 H 0.3482 0.51972 0.19463 0.0
H195 H 0.30627 0.42842 0.18071 0.0
H196 H 0.14263 0.34077 0.22435 0.0
C197 C 0.0907 0.17271 0.15447 0.0
C198 C 0.2108 0.28189 0.17083 0.0
C199 C 0.06753 0.13622 0.13055 0.0
C200 C 0.3139 0.49204 0.21076 0.0
C201 C 0.28998 0.43952 0.20302 0.0
C202 C 0.16187 0.32392 0.21052 0.0
C203 C 0.13674 0.22018 0.14561 0.0
C204 C 0.16088 0.25977 0.17046 0.0
C205 C 0.24349 0.40261 0.222 0.0
C206 C 0.21313 0.34881 0.20901 0.0
H207 H 0.15309 0.20452 0.06334 0.0
H208 H 0.19416 0.26794 0.10529 0.0
H209 H 0.09733 0.26296 0.19153 0.0
H210 H 0.22951 0.48457 0.27853 0.0
H211 H 0.18812 0.392 0.26577 0.0
C212 C 0.9134 0.10706 0.55659 0.0
C213 C 0.93964 0.09487 0.56872 0.0
C214 C 0.8973 0.13656 0.57546 0.0
C215 C 0.8969 0.2265 0.6109 0.0
H216 H 0.85157 0.21349 0.70448 0.0
C217 C 0.85675 0.36733 0.68448 0.0
C218 C 0.81159 0.34531 0.70754 0.0
C219 C 0.87715 0.33949 0.67193 0.0
C220 C 0.86397 0.21749 0.67837 0.0
H221 H 0.9692 0.1039 0.61038 0.0
H222 H 0.94241 0.15607 0.64266 0.0
H223 H 0.87249 0.15574 0.6728 0.0
H224 H 0.75396 0.27871 0.73739 0.0
H225 H 0.78878 0.22911 0.71489 0.0
H226 H 0.88639 0.28648 0.61608 0.0
C227 C 0.93315 0.14201 0.61895 0.0
C228 C 0.87642 0.18469 0.6602 0.0
C229 C 0.94883 0.11225 0.60025 0.0
C230 C 0.78912 0.2966 0.71979 0.0
C231 C 0.8091 0.26823 0.70681 0.0
C232 C 0.88412 0.25891 0.62898 0.0
C233 C 0.90749 0.15491 0.60675 0.0
C234 C 0.89304 0.1888 0.6262 0.0
C235 C 0.85208 0.28847 0.68159 0.0
C236 C 0.86766 0.25503 0.66296 0.0
H237 H 0.90546 0.09404 0.53249 0.0
H238 H 0.87686 0.14499 0.56548 0.0
H239 H 0.91025 0.23141 0.58488 0.0
H240 H 0.87481 0.40502 0.6748 0.0
H241 H 0.91122 0.35699 0.65337 0.0
C242 C 0.87969 0.96006 0.09367 0.0
C243 C 0.88752 0.99004 0.06953 0.0
C244 C 0.83521 0.93717 0.11766 0.0
C245 C 0.72836 0.94787 0.15447 0.0
H246 H 0.65765 0.80784 0.18275 0.0
C247 C 0.51604 0.81245 0.19771 0.0
C248 C 0.49583 0.78332 0.2257 0.0
C249 C 0.56757 0.84337 0.18556 0.0
C250 C 0.67748 0.84737 0.17555 0.0
H251 H 0.85445 0.01806 0.05085 0.0
H252 H 0.77728 0.97747 0.09148 0.0
H253 H 0.74076 0.84886 0.14689 0.0
H254 H 0.51417 0.76609 0.26399 0.0
H255 H 0.60508 0.81878 0.24166 0.0
H256 H 0.66387 0.94517 0.18149 0.0
C257 C 0.80558 0.97268 0.09293 0.0
C258 C 0.7251 0.8709 0.15497 0.0
C259 C 0.84978 0.99561 0.06932 0.0
C260 C 0.52867 0.78781 0.24225 0.0
C261 C 0.58055 0.81774 0.22944 0.0
C262 C 0.68074 0.92418 0.1746 0.0
C263 C 0.79782 0.94385 0.11783 0.0
C264 C 0.75048 0.92092 0.14329 0.0
C265 C 0.60031 0.84516 0.20065 0.0
C266 C 0.65421 0.87323 0.18466 0.0
H267 H 0.90823 0.95521 0.09441 0.0
H268 H 0.83062 0.91526 0.13641 0.0
H269 H 0.74726 0.98699 0.14689 0.0
H270 H 0.49172 0.8099 0.18445 0.0
H271 H 0.58165 0.8639 0.1633 0.0
C272 C 0.92506 0.8956 0.57954 0.0
C273 C 0.91812 0.88325 0.54734 0.0
C274 C 0.90679 0.85648 0.60082 0.0
C275 C 0.80756 0.72153 0.61792 0.0
H276 H 0.89515 0.71556 0.65584 0.0
C277 C 0.74383 0.53196 0.66711 0.0
C278 C 0.76247 0.5318 0.69259 0.0
C279 C 0.76162 0.57822 0.65393 0.0
C280 C 0.86982 0.717 0.64612 0.0
H281 H 0.8858 0.82017 0.51246 0.0
H282 H 0.85233 0.75203 0.54989 0.0
H283 H 0.92912 0.79081 0.62444 0.0
H284 H 0.81546 0.58083 0.72362 0.0
H285 H 0.84498 0.66241 0.70189 0.0
H286 H 0.74805 0.64882 0.63974 0.0
C287 C 0.87267 0.79198 0.55848 0.0
C288 C 0.88947 0.76008 0.62796 0.0
C289 C 0.89191 0.83102 0.53706 0.0
C290 C 0.79904 0.57957 0.70491 0.0
C291 C 0.81671 0.62634 0.69185 0.0
C292 C 0.78775 0.67911 0.63652 0.0
C293 C 0.87998 0.80423 0.59054 0.0
C294 C 0.85871 0.76202 0.61297 0.0
C295 C 0.79848 0.62629 0.66591 0.0
C296 C 0.81879 0.67524 0.65005 0.0
H297 H 0.94442 0.93541 0.58832 0.0
H298 H 0.91263 0.8669 0.62549 0.0
H299 H 0.78289 0.72243 0.60702 0.0
H300 H 0.71586 0.49595 0.65678 0.0
H301 H 0.74732 0.57589 0.63351 0.0
C302 C 0.0667 0.92403 0.42048 0.0
C303 C 0.08508 0.95888 0.44646 0.0
C304 C 0.09035 0.90049 0.40333 0.0
C305 C 0.20951 0.91462 0.38323 0.0
H306 H 0.12976 0.76466 0.37926 0.0
C307 C 0.30186 0.80642 0.35513 0.0
C308 C 0.27982 0.75883 0.33796 0.0
C309 C 0.27762 0.83093 0.36506 0.0
C310 C 0.15261 0.80654 0.37949 0.0
H311 H 0.14363 0.99786 0.47401 0.0
H312 H 0.18549 0.95802 0.44355 0.0
H313 H 0.08895 0.80851 0.40093 0.0
H314 H 0.21402 0.69872 0.31882 0.0
H315 H 0.17267 0.7426 0.33466 0.0
H316 H 0.27311 0.91323 0.36155 0.0
C317 C 0.15261 0.94847 0.43664 0.0
C318 C 0.12911 0.83162 0.39201 0.0
C319 C 0.12848 0.97109 0.45416 0.0
C320 C 0.2325 0.73591 0.3314 0.0
C321 C 0.20849 0.76083 0.3409 0.0
C322 C 0.23293 0.88966 0.37025 0.0
C323 C 0.13341 0.91235 0.41139 0.0
C324 C 0.15747 0.88588 0.39465 0.0
C325 C 0.23074 0.80878 0.35789 0.0
C326 C 0.20501 0.83522 0.36891 0.0
H327 H 0.03313 0.91361 0.41415 0.0
H328 H 0.07489 0.87286 0.38389 0.0
H329 H 0.23221 0.95653 0.38462 0.0
H330 H 0.33802 0.82489 0.36097 0.0
H331 H 0.29551 0.86699 0.37884 0.0
C332 C 0.2 0.08083 0.98085 0.0
C333 C 0.15975 0.08244 0.98086 0.0
C334 C 0.24518 0.10889 0.95835 0.0
C335 C 0.31871 0.21792 0.90093 0.0
H336 H 0.39809 0.16333 0.87097 0.0
C337 C 0.52308 0.27417 0.81383 0.0
C338 C 0.55243 0.32685 0.82262 0.0
C339 C 0.47175 0.24266 0.82777 0.0
C340 C 0.37623 0.17898 0.87852 0.0
H341 H 0.1351 0.11462 0.95731 0.0
H342 H 0.21354 0.16274 0.91734 0.0
H343 H 0.31532 0.11121 0.90519 0.0
H344 H 0.55116 0.38797 0.85265 0.0
H345 H 0.46286 0.33351 0.87752 0.0
H346 H 0.37915 0.28519 0.87359 0.0
C347 C 0.21074 0.14062 0.93512 0.0
C348 C 0.32885 0.14931 0.89875 0.0
C349 C 0.16561 0.11287 0.95793 0.0
C350 C 0.52933 0.34759 0.84507 0.0
C351 C 0.4784 0.31625 0.85918 0.0
C352 C 0.36588 0.24738 0.88041 0.0
C353 C 0.25122 0.13891 0.93492 0.0
C354 C 0.29984 0.16881 0.91095 0.0
C355 C 0.4489 0.26306 0.85128 0.0
C356 C 0.39593 0.22892 0.86953 0.0
H357 H 0.19665 0.0579 0.99835 0.0
H358 H 0.27559 0.10742 0.95968 0.0
H359 H 0.29785 0.23458 0.90978 0.0
H360 H 0.54019 0.25678 0.7974 0.0
H361 H 0.45032 0.20206 0.82073 0.0
C362 C 0.14952 0.20397 0.47467 0.0
C363 C 0.10305 0.1569 0.47258 0.0
C364 C 0.16746 0.24693 0.45715 0.0
C365 C 0.12527 0.30351 0.41798 0.0
H366 H 0.26641 0.39508 0.37947 0.0
C367 C 0.2173 0.51043 0.37534 0.0
C368 C 0.25493 0.52832 0.34688 0.0
C369 C 0.19693 0.46285 0.38842 0.0
C370 C 0.22678 0.36978 0.38979 0.0
H371 H 0.03901 0.11798 0.45025 0.0
H372 H 0.07026 0.19304 0.41956 0.0
H373 H 0.2351 0.31637 0.40547 0.0
H374 H 0.3016 0.51069 0.31041 0.0
H375 H 0.2656 0.42743 0.33275 0.0
H376 H 0.11703 0.35706 0.40232 0.0
C377 C 0.09285 0.19683 0.43488 0.0
C378 C 0.20886 0.32477 0.40506 0.0
C379 C 0.07508 0.15363 0.45225 0.0
C380 C 0.27176 0.49747 0.33187 0.0
C381 C 0.25158 0.45001 0.345 0.0
C382 C 0.14327 0.34875 0.4029 0.0
C383 C 0.13925 0.24424 0.4372 0.0
C384 C 0.15789 0.29108 0.41958 0.0
C385 C 0.21411 0.43212 0.37364 0.0
C386 C 0.19437 0.38274 0.38871 0.0
H387 H 0.17187 0.20786 0.49025 0.0
H388 H 0.20298 0.28278 0.45996 0.0
H389 H 0.08589 0.27887 0.42909 0.0
H390 H 0.20397 0.53356 0.38774 0.0
H391 H 0.1687 0.4509 0.41071 0.0
C392 C 0.91099 0.18509 0.91401 0.0
C393 C 0.96193 0.20502 0.90285 0.0
C394 C 0.88883 0.20063 0.90044 0.0
C395 C 0.90075 0.25898 0.82868 0.0
H396 H 0.81875 0.29649 0.88988 0.0
C397 C 0.82018 0.35606 0.79149 0.0
C398 C 0.77324 0.34295 0.80961 0.0
C399 C 0.84367 0.33711 0.8001 0.0
C400 C 0.8408 0.28539 0.87231 0.0
H401 H 0.02911 0.25654 0.86797 0.0
H402 H 0.99001 0.28291 0.84395 0.0
H403 H 0.85823 0.26708 0.90989 0.0
H404 H 0.71285 0.29776 0.84964 0.0
H405 H 0.75253 0.26355 0.86395 0.0
H406 H 0.88268 0.27686 0.79102 0.0
C407 C 0.96734 0.2551 0.86324 0.0
C408 C 0.86362 0.26867 0.88387 0.0
C409 C 0.98969 0.23986 0.87702 0.0
C410 C 0.74931 0.30893 0.83546 0.0
C411 C 0.77233 0.28966 0.84381 0.0
C412 C 0.87744 0.27537 0.81701 0.0
C413 C 0.91682 0.23623 0.87514 0.0
C414 C 0.89356 0.25487 0.86226 0.0
C415 C 0.82048 0.30466 0.82696 0.0
C416 C 0.84672 0.28832 0.83872 0.0
H417 H 0.88799 0.15726 0.93326 0.0
H418 H 0.84959 0.18465 0.90978 0.0
H419 H 0.92351 0.24845 0.8114 0.0
H420 H 0.83971 0.3828 0.77172 0.0
H421 H 0.8808 0.34966 0.7866 0.0
C422 C 0.74768 0.76795 0.38495 0.0
C423 C 0.78385 0.814 0.36775 0.0
C424 C 0.70537 0.728 0.37286 0.0
C425 C 0.64574 0.68219 0.30114 0.0
H426 H 0.52742 0.64892 0.36662 0.0
C427 C 0.47741 0.65499 0.27425 0.0
C428 C 0.43208 0.63098 0.29701 0.0
C429 C 0.51687 0.65523 0.2782 0.0
C430 C 0.55948 0.65605 0.348 0.0
H431 H 0.80611 0.85237 0.3231 0.0
H432 H 0.73186 0.78318 0.30231 0.0
H433 H 0.60628 0.69214 0.38266 0.0
H434 H 0.38948 0.58321 0.33939 0.0
H435 H 0.45753 0.58109 0.34557 0.0
H436 H 0.59897 0.64794 0.26627 0.0
C437 C 0.73624 0.77771 0.32504 0.0
C438 C 0.60504 0.6812 0.35729 0.0
C439 C 0.77851 0.81769 0.33715 0.0
C440 C 0.42435 0.60186 0.32152 0.0
C441 C 0.46356 0.60135 0.32524 0.0
C442 C 0.59992 0.65657 0.29182 0.0
C443 C 0.69834 0.73321 0.34332 0.0
C444 C 0.64907 0.69654 0.33386 0.0
C445 C 0.51134 0.63105 0.30496 0.0
C446 C 0.55663 0.64529 0.315 0.0
H447 H 0.75051 0.7639 0.40867 0.0
H448 H 0.67706 0.69395 0.38735 0.0
H449 H 0.67894 0.69277 0.28259 0.0
H450 H 0.48373 0.67733 0.25505 0.0
H451 H 0.55287 0.6786 0.26203 0.0
C452 C 0.94283 0.91778 0.92732 0.0
C453 C 0.97137 0.92131 0.94714 0.0
C454 C 0.92884 0.88071 0.90206 0.0
C455 C 0.9159 0.81016 0.84234 0.0
H456 H 0.8921 0.68137 0.85807 0.0
C457 C 0.85027 0.59462 0.78428 0.0
C458 C 0.79902 0.5706 0.78751 0.0
C459 C 0.88107 0.64667 0.79316 0.0
C460 C 0.89947 0.71748 0.85305 0.0
H461 H 0.01094 0.89242 0.9552 0.0
H462 H 0.98992 0.83049 0.90996 0.0
H463 H 0.92445 0.75211 0.89706 0.0
H464 H 0.74001 0.58178 0.79945 0.0
H465 H 0.79422 0.67353 0.81475 0.0
H466 H 0.88601 0.77219 0.79938 0.0
C467 C 0.97539 0.8536 0.91474 0.0
C468 C 0.91834 0.75839 0.87537 0.0
C469 C 0.98777 0.88926 0.9406 0.0
C470 C 0.77971 0.60013 0.79645 0.0
C471 C 0.81067 0.65243 0.80507 0.0
C472 C 0.89562 0.76837 0.82032 0.0
C473 C 0.94459 0.84772 0.8956 0.0
C474 C 0.92677 0.80537 0.87049 0.0
C475 C 0.8608 0.67506 0.80535 0.0
C476 C 0.88732 0.7218 0.82563 0.0
H477 H 0.93015 0.94259 0.93199 0.0
H478 H 0.9046 0.87712 0.88828 0.0
H479 H 0.92253 0.84587 0.83741 0.0
H480 H 0.86551 0.57206 0.77776 0.0
H481 H 0.91962 0.66344 0.79336 0.0
loop_
_geom_bond_atom_site_label_1
_geom_bond_atom_site_label_2
_geom_bond_distance
_geom_bond_site_symmetry_2
_ccdc_geom_bond_type
Nd0 C2 2.836 . S
Nd0 O20 2.500 1_655 S
Nd0 O21 2.492 . S
Nd0 O22 2.487 1_546 S
Nd0 O23 2.682 1_546 S
Nd0 O24 2.410 1_656 S
Nd0 O29 2.414 1_655 S
Nd0 O31 2.424 1_545 S
Nd1 C11 2.836 1_545 S
Nd1 O23 2.414 1_445 S
Nd1 O25 2.424 . S
Nd1 O26 2.500 1_545 S
Nd1 O27 2.492 1_545 S
Nd1 O28 2.487 1_554 S
Nd1 O29 2.682 1_554 S
Nd1 O30 2.410 1_544 S
C2 Nd0 2.836 . S
C2 C3 1.498 . S
C2 O20 1.258 1_655 S
C2 O21 1.239 . S
C3 C2 1.498 . S
C3 C4 1.366 1_655 S
C3 C8 1.407 . S
C4 C3 1.366 1_455 S
C4 C5 1.392 . S
C4 H32 0.930 . S
C5 C4 1.392 . S
C5 C6 1.398 1_455 S
C5 H33 0.929 . S
C6 C5 1.398 1_655 S
C6 C7 1.352 . S
C7 C6 1.352 . S
C7 C8 1.384 . S
C7 H34 0.930 . S
C8 C3 1.407 . S
C8 C7 1.384 . S
C8 H35 0.929 . S
C9 O22 1.241 . S
C9 O23 1.273 . S
C10 O24 1.251 . S
C10 O25 1.268 . S
C11 Nd1 2.836 1_565 S
C11 C12 1.498 . S
C11 O26 1.258 . S
C11 O27 1.239 . S
C12 C11 1.498 . S
C12 C13 1.366 . S
C12 C17 1.407 . S
C13 C12 1.366 . S
C13 C14 1.392 . S
C13 H36 0.930 1_455 S
C14 C13 1.392 . S
C14 C15 1.398 . S
C14 H37 0.929 1_455 S
C15 C14 1.398 . S
C15 C16 1.352 . S
C16 C15 1.352 . S
C16 C17 1.384 . S
C16 H38 0.930 . S
C17 C12 1.407 . S
C17 C16 1.384 . S
C17 H39 0.929 . S
C18 O28 1.241 . S
C18 O29 1.273 . S
C19 O30 1.251 1_655 S
C19 O31 1.268 . S
O20 Nd0 2.500 1_455 S
O20 C2 1.258 1_455 S
O21 Nd0 2.492 . S
O21 C2 1.239 . S
O22 Nd0 2.487 1_564 S
O22 C9 1.241 . S
O23 Nd0 2.682 1_564 S
O23 Nd1 2.414 1_665 S
O23 C9 1.273 . S
O24 Nd0 2.410 1_454 S
O24 C10 1.251 . S
O25 Nd1 2.424 . S
O25 C10 1.268 . S
O26 Nd1 2.500 1_565 S
O26 C11 1.258 . S
O27 Nd1 2.492 1_565 S
O27 C11 1.239 . S
O28 Nd1 2.487 1_556 S
O28 C18 1.241 . S
O29 Nd0 2.414 1_455 S
O29 Nd1 2.682 1_556 S
O29 C18 1.273 . S
O30 Nd1 2.410 1_566 S
O30 C19 1.251 1_455 S
O31 Nd0 2.424 1_565 S
O31 C19 1.268 . S
H32 C4 0.930 . S
H33 C5 0.929 . S
H34 C7 0.930 . S
H35 C8 0.929 . S
H36 C13 0.930 1_655 S
H37 C14 0.929 1_655 S
H38 C16 0.930 . S
H39 C17 0.929 . S
Nd40 C42 2.836 . S
Nd40 O60 2.500 . S
Nd40 O61 2.492 . S
Nd40 O62 2.487 . S
Nd40 O63 2.682 1_655 S
Nd40 O64 2.410 . S
Nd40 O69 2.414 1_665 S
Nd40 O71 2.424 1_655 S
Nd41 C51 2.836 . S
Nd41 O63 2.414 1_545 S
Nd41 O65 2.424 1_455 S
Nd41 O66 2.500 . S
Nd41 O67 2.492 . S
Nd41 O68 2.487 . S
Nd41 O69 2.682 . S
Nd41 O70 2.410 . S
C42 Nd40 2.836 . S
C42 C43 1.498 . S
C42 O60 1.258 . S
C42 O61 1.239 . S
C43 C42 1.498 . S
C43 C44 1.366 . S
C43 C48 1.407 . S
C44 C43 1.366 . S
C44 C45 1.392 . S
C44 H72 0.920 1_565 S
C45 C44 1.392 . S
C45 C46 1.398 . S
C45 H73 0.929 . S
C46 C45 1.398 . S
C46 C47 1.352 . S
C47 C46 1.352 . S
C47 C48 1.384 . S
C47 H74 0.930 . S
C48 C43 1.407 . S
C48 C47 1.384 . S
C48 H75 0.929 . S
C49 O62 1.241 . S
C49 O63 1.273 1_655 S
C50 O64 1.251 1_545 S
C50 O65 1.268 . S
C51 Nd41 2.836 . S
C51 C52 1.498 . S
C51 O66 1.258 . S
C51 O67 1.239 . S
C52 C51 1.498 . S
C52 C53 1.366 . S
C52 C57 1.407 . S
C53 C52 1.366 . S
C53 C54 1.392 . S
C53 H76 0.930 . S
C54 C53 1.392 . S
C54 C55 1.398 . S
C54 H77 0.929 . S
C55 C54 1.398 . S
C55 C56 1.352 . S
C56 C55 1.352 . S
C56 C57 1.384 . S
C56 H78 0.930 . S
C57 C52 1.407 . S
C57 C56 1.384 . S
C57 H79 0.929 . S
C58 O68 1.241 . S
C58 O69 1.273 . S
C59 O70 1.251 1_565 S
C59 O71 1.268 . S
O60 Nd40 2.500 . S
O60 C42 1.258 . S
O61 Nd40 2.492 . S
O61 C42 1.239 . S
O62 Nd40 2.487 . S
O62 C49 1.241 . S
O63 Nd40 2.682 1_455 S
O63 Nd41 2.414 1_565 S
O63 C49 1.273 1_455 S
O64 Nd40 2.410 . S
O64 C50 1.251 1_565 S
O65 Nd41 2.424 1_655 S
O65 C50 1.268 . S
O66 Nd41 2.500 . S
O66 C51 1.258 . S
O67 Nd41 2.492 . S
O67 C51 1.239 . S
O68 Nd41 2.487 . S
O68 C58 1.241 . S
O69 Nd40 2.414 1_445 S
O69 Nd41 2.682 . S
O69 C58 1.273 . S
O70 Nd41 2.410 . S
O70 C59 1.251 1_545 S
O71 Nd40 2.424 1_455 S
O71 C59 1.268 . S
H72 C44 0.920 1_545 S
H73 C45 0.929 . S
H74 C47 0.930 . S
H75 C48 0.929 . S
H76 C53 0.930 . S
H77 C54 0.929 . S
H78 C56 0.930 . S
H79 C57 0.929 . S
Zn80 O86 1.920 . S
Zn80 O92 1.898 . S
Zn80 O95 1.905 . S
Zn81 O89 1.905 . S
Zn81 O90 1.898 . S
Zn81 O98 1.920 . S
Zn82 O85 2.080 . S
Zn82 O88 2.114 . S
Zn82 O91 2.120 . S
Zn82 O93 2.120 . S
Zn82 O94 2.114 . S
Zn82 O97 2.080 . S
C83 O88 1.166 . S
C83 O89 1.182 . S
C84 O90 1.167 . S
C84 O91 1.299 . S
O85 Zn82 2.080 . S
O85 C99 1.305 . S
O86 Zn80 1.920 . S
O86 C99 1.234 . S
C87 O92 1.167 . S
C87 O93 1.299 . S
O88 Zn82 2.114 . S
O88 C83 1.166 . S
O89 Zn81 1.905 . S
O89 C83 1.182 . S
O90 Zn81 1.898 . S
O90 C84 1.167 . S
O91 Zn82 2.120 . S
O91 C84 1.299 . S
O92 Zn80 1.898 . S
O92 C87 1.167 . S
O93 Zn82 2.120 . S
O93 C87 1.299 . S
O94 Zn82 2.114 . S
O94 C96 1.166 . S
O95 Zn80 1.905 . S
O95 C96 1.182 . S
C96 O94 1.166 . S
C96 O95 1.182 . S
O97 Zn82 2.080 . S
O97 C100 1.305 . S
O98 Zn81 1.920 . S
O98 C100 1.234 . S
C99 O85 1.305 . S
C99 O86 1.234 . S
C100 O97 1.305 . S
C100 O98 1.234 . S
Zn101 O107 1.920 . S
Zn101 O113 1.898 . S
Zn101 O116 1.905 . S
Zn102 O110 1.905 . S
Zn102 O111 1.898 . S
Zn102 O119 1.920 . S
Zn103 O106 2.080 . S
Zn103 O109 2.114 . S
Zn103 O112 2.120 . S
Zn103 O114 2.120 . S
Zn103 O115 2.114 . S
Zn103 O118 2.080 . S
C104 O109 1.166 . S
C104 O110 1.182 . S
C105 O111 1.167 . S
C105 O112 1.299 . S
O106 Zn103 2.080 . S
O106 C120 1.305 . S
O107 Zn101 1.920 . S
O107 C120 1.234 . S
C108 O113 1.167 . S
C108 O114 1.299 . S
O109 Zn103 2.114 . S
O109 C104 1.166 . S
O110 Zn102 1.905 . S
O110 C104 1.182 . S
O111 Zn102 1.898 . S
O111 C105 1.167 . S
O112 Zn103 2.120 . S
O112 C105 1.299 . S
O113 Zn101 1.898 . S
O113 C108 1.167 . S
O114 Zn103 2.120 . S
O114 C108 1.299 . S
O115 Zn103 2.114 . S
O115 C117 1.166 . S
O116 Zn101 1.905 . S
O116 C117 1.182 . S
C117 O115 1.166 . S
C117 O116 1.182 . S
O118 Zn103 2.080 . S
O118 C121 1.305 . S
O119 Zn102 1.920 . S
O119 C121 1.234 . S
C120 O106 1.305 . S
C120 O107 1.234 . S
C121 O118 1.305 . S
C121 O119 1.234 . S
C122 C123 1.349 . S
C122 C124 1.327 . S
C122 H147 0.950 . S
C123 C122 1.349 . S
C123 C139 1.349 . S
C124 C122 1.327 . S
C124 C143 1.429 . S
C124 H148 0.950 . S
C125 C142 1.574 . S
C125 C144 1.368 . S
C125 H149 0.949 . S
H126 C130 0.949 . S
C127 C128 1.349 . S
C127 C129 1.327 . S
C127 H150 0.950 . S
C128 C127 1.349 . S
C128 C140 1.349 . S
C129 C127 1.327 . S
C129 C145 1.429 . S
C129 H151 0.950 . S
C130 H126 0.949 . S
C130 C138 1.574 . S
C130 C146 1.368 . S
H131 C139 0.950 . S
H132 C137 0.950 . S
H133 C138 0.949 . S
H134 C140 0.950 . S
H135 C141 0.950 . S
H136 C142 0.949 . S
C137 H132 0.950 . S
C137 C139 1.327 . S
C137 C143 1.429 . S
C138 C130 1.574 . S
C138 H133 0.949 . S
C138 C144 1.368 . S
C139 C123 1.349 . S
C139 H131 0.950 . S
C139 C137 1.327 . S
C140 C128 1.349 . S
C140 H134 0.950 . S
C140 C141 1.327 . S
C141 H135 0.950 . S
C141 C140 1.327 . S
C141 C145 1.429 . S
C142 C125 1.574 . S
C142 H136 0.949 . S
C142 C146 1.368 . S
C143 C124 1.429 . S
C143 C137 1.429 . S
C143 C144 1.523 . S
C144 C125 1.368 . S
C144 C138 1.368 . S
C144 C143 1.523 . S
C145 C129 1.429 . S
C145 C141 1.429 . S
C145 C146 1.523 . S
C146 C130 1.368 . S
C146 C142 1.368 . S
C146 C145 1.523 . S
H147 C122 0.950 . S
H148 C124 0.950 . S
H149 C125 0.949 . S
H150 C127 0.950 . S
H151 C129 0.950 . S
C152 C153 1.349 . S
C152 C154 1.327 . S
C152 H177 0.950 . S
C153 C152 1.349 . S
C153 C169 1.349 . S
C154 C152 1.327 . S
C154 C173 1.429 . S
C154 H178 0.950 . S
C155 C172 1.574 . S
C155 C174 1.368 . S
C155 H179 0.949 . S
H156 C160 0.949 . S
C157 C158 1.349 . S
C157 C159 1.327 . S
C157 H180 0.950 . S
C158 C157 1.349 . S
C158 C170 1.349 . S
C159 C157 1.327 . S
C159 C175 1.429 . S
C159 H181 0.950 . S
C160 H156 0.949 . S
C160 C168 1.574 . S
C160 C176 1.368 . S
H161 C169 0.950 . S
H162 C167 0.950 . S
H163 C168 0.949 . S
H164 C170 0.950 . S
H165 C171 0.950 . S
H166 C172 0.949 . S
C167 H162 0.950 . S
C167 C169 1.327 . S
C167 C173 1.429 . S
C168 C160 1.574 . S
C168 H163 0.949 . S
C168 C174 1.368 . S
C169 C153 1.349 . S
C169 H161 0.950 . S
C169 C167 1.327 . S
C170 C158 1.349 . S
C170 H164 0.950 . S
C170 C171 1.327 . S
C171 H165 0.950 . S
C171 C170 1.327 . S
C171 C175 1.429 . S
C172 C155 1.574 . S
C172 H166 0.949 . S
C172 C176 1.368 . S
C173 C154 1.429 . S
C173 C167 1.429 . S
C173 C174 1.523 . S
C174 C155 1.368 . S
C174 C168 1.368 . S
C174 C173 1.523 . S
C175 C159 1.429 . S
C175 C171 1.429 . S
C175 C176 1.523 . S
C176 C160 1.368 . S
C176 C172 1.368 . S
C176 C175 1.523 . S
H177 C152 0.950 . S
H178 C154 0.950 . S
H179 C155 0.949 . S
H180 C157 0.950 . S
H181 C159 0.950 . S
C182 C183 1.349 . S
C182 C184 1.327 . S
C182 H207 0.950 . S
C183 C182 1.349 . S
C183 C199 1.349 . S
C184 C182 1.327 . S
C184 C203 1.429 . S
C184 H208 0.950 . S
C185 C202 1.574 . S
C185 C204 1.368 . S
C185 H209 0.949 . S
H186 C190 0.949 . S
C187 C188 1.349 . S
C187 C189 1.327 . S
C187 H210 0.950 . S
C188 C187 1.349 . S
C188 C200 1.349 . S
C189 C187 1.327 . S
C189 C205 1.429 . S
C189 H211 0.950 . S
C190 H186 0.949 . S
C190 C198 1.574 . S
C190 C206 1.368 . S
H191 C199 0.960 . S
H192 C197 0.950 . S
H193 C198 0.949 . S
H194 C200 0.950 . S
H195 C201 0.950 . S
H196 C202 0.949 . S
C197 H192 0.950 . S
C197 C199 1.327 . S
C197 C203 1.429 . S
C198 C190 1.574 . S
C198 H193 0.949 . S
C198 C204 1.368 . S
C199 C183 1.349 . S
C199 H191 0.960 . S
C199 C197 1.327 . S
C200 C188 1.349 . S
C200 H194 0.950 . S
C200 C201 1.327 . S
C201 H195 0.950 . S
C201 C200 1.327 . S
C201 C205 1.429 . S
C202 C185 1.574 . S
C202 H196 0.949 . S
C202 C206 1.368 . S
C203 C184 1.429 . S
C203 C197 1.429 . S
C203 C204 1.523 . S
C204 C185 1.368 . S
C204 C198 1.368 . S
C204 C203 1.523 . S
C205 C189 1.429 . S
C205 C201 1.429 . S
C205 C206 1.523 . S
C206 C190 1.368 . S
C206 C202 1.368 . S
C206 C205 1.523 . S
H207 C182 0.950 . S
H208 C184 0.950 . S
H209 C185 0.949 . S
H210 C187 0.950 . S
H211 C189 0.950 . S
C212 C213 1.349 . S
C212 C214 1.327 . S
C212 H237 0.950 . S
C213 C212 1.349 . S
C213 C229 1.349 . S
C214 C212 1.327 . S
C214 C233 1.429 . S
C214 H238 0.950 . S
C215 C232 1.574 . S
C215 C234 1.368 . S
C215 H239 0.949 . S
H216 C220 0.949 . S
C217 C218 1.349 . S
C217 C219 1.327 . S
C217 H240 0.950 . S
C218 C217 1.349 . S
C218 C230 1.349 . S
C219 C217 1.327 . S
C219 C235 1.429 . S
C219 H241 0.950 . S
C220 H216 0.949 . S
C220 C228 1.574 . S
C220 C236 1.368 . S
H221 C229 0.950 . S
H222 C227 0.950 . S
H223 C228 0.949 . S
H224 C230 0.950 . S
H225 C231 0.950 . S
H226 C232 0.949 . S
C227 H222 0.950 . S
C227 C229 1.327 . S
C227 C233 1.429 . S
C228 C220 1.574 . S
C228 H223 0.949 . S
C228 C234 1.368 . S
C229 C213 1.349 . S
C229 H221 0.950 . S
C229 C227 1.327 . S
C230 C218 1.349 . S
C230 H224 0.950 . S
C230 C231 1.327 . S
C231 H225 0.950 . S
C231 C230 1.327 . S
C231 C235 1.429 . S
C232 C215 1.574 . S
C232 H226 0.949 . S
C232 C236 1.368 . S
C233 C214 1.429 . S
C233 C227 1.429 . S
C233 C234 1.523 . S
C234 C215 1.368 . S
C234 C228 1.368 . S
C234 C233 1.523 . S
C235 C219 1.429 . S
C235 C231 1.429 . S
C235 C236 1.523 . S
C236 C220 1.368 . S
C236 C232 1.368 . S
C236 C235 1.523 . S
H237 C212 0.950 . S
H238 C214 0.950 . S
H239 C215 0.949 . S
H240 C217 0.950 . S
H241 C219 0.950 . S
C242 C243 1.349 . S
C242 C244 1.327 . S
C242 H267 0.950 . S
C243 C242 1.349 . S
C243 C259 1.349 . S
C244 C242 1.327 . S
C244 C263 1.429 . S
C244 H268 0.950 . S
C245 C262 1.574 . S
C245 C264 1.368 . S
C245 H269 0.949 . S
H246 C250 0.949 . S
C247 C248 1.349 . S
C247 C249 1.327 . S
C247 H270 0.950 . S
C248 C247 1.349 . S
C248 C260 1.349 . S
C249 C247 1.327 . S
C249 C265 1.429 . S
C249 H271 0.950 . S
C250 H246 0.949 . S
C250 C258 1.574 . S
C250 C266 1.368 . S
H251 C259 0.950 . S
H252 C257 0.950 . S
H253 C258 0.949 . S
H254 C260 0.950 . S
H255 C261 0.950 . S
H256 C262 0.949 . S
C257 H252 0.950 . S
C257 C259 1.327 . S
C257 C263 1.429 . S
C258 C250 1.574 . S
C258 H253 0.949 . S
C258 C264 1.368 . S
C259 C243 1.349 . S
C259 H251 0.950 . S
C259 C257 1.327 . S
C260 C248 1.349 . S
C260 H254 0.950 . S
C260 C261 1.327 . S
C261 H255 0.950 . S
C261 C260 1.327 . S
C261 C265 1.429 . S
C262 C245 1.574 . S
C262 H256 0.949 . S
C262 C266 1.368 . S
C263 C244 1.429 . S
C263 C257 1.429 . S
C263 C264 1.523 . S
C264 C245 1.368 . S
C264 C258 1.368 . S
C264 C263 1.523 . S
C265 C249 1.429 . S
C265 C261 1.429 . S
C265 C266 1.523 . S
C266 C250 1.368 . S
C266 C262 1.368 . S
C266 C265 1.523 . S
H267 C242 0.950 . S
H268 C244 0.950 . S
H269 C245 0.949 . S
H270 C247 0.950 . S
H271 C249 0.950 . S
C272 C273 1.349 . S
C272 C274 1.327 . S
C272 H297 0.950 . S
C273 C272 1.349 . S
C273 C289 1.349 . S
C274 C272 1.327 . S
C274 C293 1.429 . S
C274 H298 0.950 . S
C275 C292 1.574 . S
C275 C294 1.368 . S
C275 H299 0.949 . S
H276 C280 0.949 . S
C277 C278 1.349 . S
C277 C279 1.327 . S
C277 H300 0.950 . S
C278 C277 1.349 . S
C278 C290 1.349 . S
C279 C277 1.327 . S
C279 C295 1.429 . S
C279 H301 0.950 . S
C280 H276 0.949 . S
C280 C288 1.574 . S
C280 C296 1.368 . S
H281 C289 0.950 . S
H282 C287 0.950 . S
H283 C288 0.949 . S
H284 C290 0.950 . S
H285 C291 0.950 . S
H286 C292 0.949 . S
C287 H282 0.950 . S
C287 C289 1.327 . S
C287 C293 1.429 . S
C288 C280 1.574 . S
C288 H283 0.949 . S
C288 C294 1.368 . S
C289 C273 1.349 . S
C289 H281 0.950 . S
C289 C287 1.327 . S
C290 C278 1.349 . S
C290 H284 0.950 . S
C290 C291 1.327 . S
C291 H285 0.950 . S
C291 C290 1.327 . S
C291 C295 1.429 . S
C292 C275 1.574 . S
C292 H286 0.949 . S
C292 C296 1.368 . S
C293 C274 1.429 . S
C293 C287 1.429 . S
C293 C294 1.523 . S
C294 C275 1.368 . S
C294 C288 1.368 . S
C294 C293 1.523 . S
C295 C279 1.429 . S
C295 C291 1.429 . S
C295 C296 1.523 . S
C296 C280 1.368 . S
C296 C292 1.368 . S
C296 C295 1.523 . S
H297 C272 0.950 . S
H298 C274 0.950 . S
H299 C275 0.949 . S
H300 C277 0.950 . S
H301 C279 0.950 . S
C302 C303 1.349 . S
C302 C304 1.327 . S
C302 H327 0.950 . S
C303 C302 1.349 . S
C303 C319 1.349 . S
C304 C302 1.327 . S
C304 C323 1.429 . S
C304 H328 0.950 . S
C305 C322 1.574 . S
C305 C324 1.368 . S
C305 H329 0.949 . S
H306 C310 0.949 . S
C307 C308 1.349 . S
C307 C309 1.327 . S
C307 H330 0.950 . S
C308 C307 1.349 . S
C308 C320 1.349 . S
C309 C307 1.327 . S
C309 C325 1.429 . S
C309 H331 0.950 . S
C310 H306 0.949 . S
C310 C318 1.574 . S
C310 C326 1.368 . S
H311 C319 0.950 . S
H312 C317 0.950 . S
H313 C318 0.949 . S
H314 C320 0.950 . S
H315 C321 0.950 . S
H316 C322 0.949 . S
C317 H312 0.950 . S
C317 C319 1.327 . S
C317 C323 1.429 . S
C318 C310 1.574 . S
C318 H313 0.949 . S
C318 C324 1.368 . S
C319 C303 1.349 . S
C319 H311 0.950 . S
C319 C317 1.327 . S
C320 C308 1.349 . S
C320 H314 0.950 . S
C320 C321 1.327 . S
C321 H315 0.950 . S
C321 C320 1.327 . S
C321 C325 1.429 . S
C322 C305 1.574 . S
C322 H316 0.949 . S
C322 C326 1.368 . S
C323 C304 1.429 . S
C323 C317 1.429 . S
C323 C324 1.523 . S
C324 C305 1.368 . S
C324 C318 1.368 . S
C324 C323 1.523 . S
C325 C309 1.429 . S
C325 C321 1.429 . S
C325 C326 1.523 . S
C326 C310 1.368 . S
C326 C322 1.368 . S
C326 C325 1.523 . S
H327 C302 0.950 . S
H328 C304 0.950 . S
H329 C305 0.949 . S
H330 C307 0.950 . S
H331 C309 0.950 . S
C332 C333 1.349 . S
C332 C334 1.327 . S
C332 H357 0.950 . S
C333 C332 1.349 . S
C333 C349 1.349 . S
C334 C332 1.327 . S
C334 C353 1.429 . S
C334 H358 0.950 . S
C335 C352 1.574 . S
C335 C354 1.368 . S
C335 H359 0.949 . S
H336 C340 0.949 . S
C337 C338 1.349 . S
C337 C339 1.327 . S
C337 H360 0.950 . S
C338 C337 1.349 . S
C338 C350 1.349 . S
C339 C337 1.327 . S
C339 C355 1.429 . S
C339 H361 0.950 . S
C340 H336 0.949 . S
C340 C348 1.574 . S
C340 C356 1.368 . S
H341 C349 0.950 . S
H342 C347 0.950 . S
H343 C348 0.949 . S
H344 C350 0.950 . S
H345 C351 0.950 . S
H346 C352 0.949 . S
C347 H342 0.950 . S
C347 C349 1.327 . S
C347 C353 1.429 . S
C348 C340 1.574 . S
C348 H343 0.949 . S
C348 C354 1.368 . S
C349 C333 1.349 . S
C349 H341 0.950 . S
C349 C347 1.327 . S
C350 C338 1.349 . S
C350 H344 0.950 . S
C350 C351 1.327 . S
C351 H345 0.950 . S
C351 C350 1.327 . S
C351 C355 1.429 . S
C352 C335 1.574 . S
C352 H346 0.949 . S
C352 C356 1.368 . S
C353 C334 1.429 . S
C353 C347 1.429 . S
C353 C354 1.523 . S
C354 C335 1.368 . S
C354 C348 1.368 . S
C354 C353 1.523 . S
C355 C339 1.429 . S
C355 C351 1.429 . S
C355 C356 1.523 . S
C356 C340 1.368 . S
C356 C352 1.368 . S
C356 C355 1.523 . S
H357 C332 0.950 . S
H358 C334 0.950 . S
H359 C335 0.949 . S
H360 C337 0.950 . S
H361 C339 0.950 . S
C362 C363 1.349 . S
C362 C364 1.327 . S
C362 H387 0.950 . S
C363 C362 1.349 . S
C363 C379 1.349 . S
C364 C362 1.327 . S
C364 C383 1.429 . S
C364 H388 0.950 . S
C365 C382 1.574 . S
C365 C384 1.368 . S
C365 H389 0.949 . S
H366 C370 0.949 . S
C367 C368 1.349 . S
C367 C369 1.327 . S
C367 H390 0.950 . S
C368 C367 1.349 . S
C368 C380 1.349 . S
C369 C367 1.327 . S
C369 C385 1.429 . S
C369 H391 0.950 . S
C370 H366 0.949 . S
C370 C378 1.574 . S
C370 C386 1.368 . S
H371 C379 0.950 . S
H372 C377 0.950 . S
H373 C378 0.949 . S
H374 C380 0.950 . S
H375 C381 0.950 . S
H376 C382 0.949 . S
C377 H372 0.950 . S
C377 C379 1.327 . S
C377 C383 1.429 . S
C378 C370 1.574 . S
C378 H373 0.949 . S
C378 C384 1.368 . S
C379 C363 1.349 . S
C379 H371 0.950 . S
C379 C377 1.327 . S
C380 C368 1.349 . S
C380 H374 0.950 . S
C380 C381 1.327 . S
C381 H375 0.950 . S
C381 C380 1.327 . S
C381 C385 1.429 . S
C382 C365 1.574 . S
C382 H376 0.949 . S
C382 C386 1.368 . S
C383 C364 1.429 . S
C383 C377 1.429 . S
C383 C384 1.523 . S
C384 C365 1.368 . S
C384 C378 1.368 . S
C384 C383 1.523 . S
C385 C369 1.429 . S
C385 C381 1.429 . S
C385 C386 1.523 . S
C386 C370 1.368 . S
C386 C382 1.368 . S
C386 C385 1.523 . S
H387 C362 0.950 . S
H388 C364 0.950 . S
H389 C365 0.949 . S
H390 C367 0.950 . S
H391 C369 0.950 . S
C392 C393 1.349 . S
C392 C394 1.327 . S
C392 H417 0.950 . S
C393 C392 1.349 . S
C393 C409 1.349 . S
C394 C392 1.327 . S
C394 C413 1.429 . S
C394 H418 0.950 . S
C395 C412 1.574 . S
C395 C414 1.368 . S
C395 H419 0.949 . S
H396 C400 0.949 . S
C397 C398 1.349 . S
C397 C399 1.327 . S
C397 H420 0.950 . S
C398 C397 1.349 . S
C398 C410 1.349 . S
C399 C397 1.327 . S
C399 C415 1.429 . S
C399 H421 0.950 . S
C400 H396 0.949 . S
C400 C408 1.574 . S
C400 C416 1.368 . S
H401 C409 0.950 1_455 S
H402 C407 0.950 . S
H403 C408 0.949 . S
H404 C410 0.950 . S
H405 C411 0.950 . S
H406 C412 0.949 . S
C407 H402 0.950 . S
C407 C409 1.327 . S
C407 C413 1.429 . S
C408 C400 1.574 . S
C408 H403 0.949 . S
C408 C414 1.368 . S
C409 C393 1.349 . S
C409 H401 0.950 1_655 S
C409 C407 1.327 . S
C410 C398 1.349 . S
C410 H404 0.950 . S
C410 C411 1.327 . S
C411 H405 0.950 . S
C411 C410 1.327 . S
C411 C415 1.429 . S
C412 C395 1.574 . S
C412 H406 0.949 . S
C412 C416 1.368 . S
C413 C394 1.429 . S
C413 C407 1.429 . S
C413 C414 1.523 . S
C414 C395 1.368 . S
C414 C408 1.368 . S
C414 C413 1.523 . S
C415 C399 1.429 . S
C415 C411 1.429 . S
C415 C416 1.523 . S
C416 C400 1.368 . S
C416 C412 1.368 . S
C416 C415 1.523 . S
H417 C392 0.950 . S
H418 C394 0.950 . S
H419 C395 0.949 . S
H420 C397 0.950 . S
H421 C399 0.950 . S
C422 C423 1.349 . S
C422 C424 1.327 . S
C422 H447 0.950 . S
C423 C422 1.349 . S
C423 C439 1.349 . S
C424 C422 1.327 . S
C424 C443 1.429 . S
C424 H448 0.950 . S
C425 C442 1.574 . S
C425 C444 1.368 . S
C425 H449 0.949 . S
H426 C430 0.949 . S
C427 C428 1.349 . S
C427 C429 1.327 . S
C427 H450 0.950 . S
C428 C427 1.349 . S
C428 C440 1.349 . S
C429 C427 1.327 . S
C429 C445 1.429 . S
C429 H451 0.950 . S
C430 H426 0.949 . S
C430 C438 1.574 . S
C430 C446 1.368 . S
H431 C439 0.950 . S
H432 C437 0.950 . S
H433 C438 0.949 . S
H434 C440 0.950 . S
H435 C441 0.950 . S
H436 C442 0.949 . S
C437 H432 0.950 . S
C437 C439 1.327 . S
C437 C443 1.429 . S
C438 C430 1.574 . S
C438 H433 0.949 . S
C438 C444 1.368 . S
C439 C423 1.349 . S
C439 H431 0.950 . S
C439 C437 1.327 . S
C440 C428 1.349 . S
C440 H434 0.950 . S
C440 C441 1.327 . S
C441 H435 0.950 . S
C441 C440 1.327 . S
C441 C445 1.429 . S
C442 C425 1.574 . S
C442 H436 0.949 . S
C442 C446 1.368 . S
C443 C424 1.429 . S
C443 C437 1.429 . S
C443 C444 1.523 . S
C444 C425 1.368 . S
C444 C438 1.368 . S
C444 C443 1.523 . S
C445 C429 1.429 . S
C445 C441 1.429 . S
C445 C446 1.523 . S
C446 C430 1.368 . S
C446 C442 1.368 . S
C446 C445 1.523 . S
H447 C422 0.950 . S
H448 C424 0.950 . S
H449 C425 0.949 . S
H450 C427 0.950 . S
H451 C429 0.950 . S
C452 C453 1.349 . S
C452 C454 1.327 . S
C452 H477 0.950 . S
C453 C452 1.349 . S
C453 C469 1.349 . S
C454 C452 1.327 . S
C454 C473 1.429 . S
C454 H478 0.950 . S
C455 C472 1.574 . S
C455 C474 1.368 . S
C455 H479 0.949 . S
H456 C460 0.949 . S
C457 C458 1.349 . S
C457 C459 1.327 . S
C457 H480 0.950 . S
C458 C457 1.349 . S
C458 C470 1.349 . S
C459 C457 1.327 . S
C459 C475 1.429 . S
C459 H481 0.950 . S
C460 H456 0.949 . S
C460 C468 1.574 . S
C460 C476 1.368 . S
H461 C469 0.950 1_455 S
H462 C467 0.950 1_455 S
H463 C468 0.949 . S
H464 C470 0.950 . S
H465 C471 0.950 . S
H466 C472 0.949 . S
C467 H462 0.950 1_655 S
C467 C469 1.327 . S
C467 C473 1.429 . S
C468 C460 1.574 . S
C468 H463 0.949 . S
C468 C474 1.368 . S
C469 C453 1.349 . S
C469 H461 0.950 1_655 S
C469 C467 1.327 . S
C470 C458 1.349 . S
C470 H464 0.950 . S
C470 C471 1.327 . S
C471 H465 0.950 . S
C471 C470 1.327 . S
C471 C475 1.429 . S
C472 C455 1.574 . S
C472 H466 0.949 . S
C472 C476 1.368 . S
C473 C454 1.429 . S
C473 C467 1.429 . S
C473 C474 1.523 . S
C474 C455 1.368 . S
C474 C468 1.368 . S
C474 C473 1.523 . S
C475 C459 1.429 . S
C475 C471 1.429 . S
C475 C476 1.523 . S
C476 C460 1.368 . S
C476 C472 1.368 . S
C476 C475 1.523 . S
H477 C452 0.950 . S
H478 C454 0.950 . S
H479 C455 0.949 . S
H480 C457 0.950 . S
H481 C459 0.950 . S
C123 C15 1.400 . S
C128 C99 1.313 . S
C153 C55 0.842 . S
C158 C105 0.814 . S
C183 C10 1.175 . S
C188 C96 1.093 . S
C213 C50 1.872 . S
C218 C121 1.761 . S
C243 C9 2.044 . S
C248 C87 2.018 . S
C278 C104 1.926 . S
C273 C49 2.022 . S
C303 C59 1.631 . S
C308 C100 1.551 . S
C338 C117 2.189 . S
C333 C18 2.234 . S
C368 C84 2.134 . S
C363 C58 2.308 . S
C398 C120 1.363 . S
C393 C6 1.464 . S
C428 C83 0.841 . S
C423 C46 0.873 . S
C458 C108 0.922 . S
C453 C19 0.980 . S
