# Generated by pormake.
# Topology zzz, (3,6)-cn, num edge types: 1
# Building blocks:
#     Node 0, Type 0, BuildingBlock: OLANEW_clean_sbu_2, # of connection points: 3
#     Node 1, Type 0, BuildingBlock: OLANEW_clean_sbu_2, # of connection points: 3
#     Node 2, Type 0, BuildingBlock: OLANEW_clean_sbu_2, # of connection points: 3
#     Node 3, Type 0, BuildingBlock: OLANEW_clean_sbu_2, # of connection points: 3
#     Node 4, Type 0, BuildingBlock: OLANEW_clean_sbu_2, # of connection points: 3
#     Node 5, Type 0, BuildingBlock: OLANEW_clean_sbu_2, # of connection points: 3
#     Node 6, Type 0, BuildingBlock: OLANEW_clean_sbu_2, # of connection points: 3
#     Node 7, Type 0, BuildingBlock: OLANEW_clean_sbu_2, # of connection points: 3
#     Node 8, Type 1, BuildingBlock: NUHQIS_clean_sbu_0, # of connection points: 6
#     Node 9, Type 1, BuildingBlock: NUHQIS_clean_sbu_0, # of connection points: 6
#     Node 10, Type 1, BuildingBlock: NUHQIS_clean_sbu_0, # of connection points: 6
#     Node 11, Type 1, BuildingBlock: NUHQIS_clean_sbu_0, # of connection points: 6
#     Edge 12, Type (0, 1), BuildingBlock: EYOCIG_clean_linker_4, # of connection points: 2
#     Edge 13, Type (0, 1), BuildingBlock: EYOCIG_clean_linker_4, # of connection points: 2
#     Edge 14, Type (0, 1), BuildingBlock: EYOCIG_clean_linker_4, # of connection points: 2
#     Edge 15, Type (0, 1), BuildingBlock: EYOCIG_clean_linker_4, # of connection points: 2
#     Edge 16, Type (0, 1), BuildingBlock: EYOCIG_clean_linker_4, # of connection points: 2
#     Edge 17, Type (0, 1), BuildingBlock: EYOCIG_clean_linker_4, # of connection points: 2
#     Edge 18, Type (0, 1), BuildingBlock: EYOCIG_clean_linker_4, # of connection points: 2
#     Edge 19, Type (0, 1), BuildingBlock: EYOCIG_clean_linker_4, # of connection points: 2
#     Edge 20, Type (0, 1), BuildingBlock: EYOCIG_clean_linker_4, # of connection points: 2
#     Edge 21, Type (0, 1), BuildingBlock: EYOCIG_clean_linker_4, # of connection points: 2
#     Edge 22, Type (0, 1), BuildingBlock: EYOCIG_clean_linker_4, # of connection points: 2
#     Edge 23, Type (0, 1), BuildingBlock: EYOCIG_clean_linker_4, # of connection points: 2
#     Edge 24, Type (0, 1), BuildingBlock: EYOCIG_clean_linker_4, # of connection points: 2
#     Edge 25, Type (0, 1), BuildingBlock: EYOCIG_clean_linker_4, # of connection points: 2
#     Edge 26, Type (0, 1), BuildingBlock: EYOCIG_clean_linker_4, # of connection points: 2
#     Edge 27, Type (0, 1), BuildingBlock: EYOCIG_clean_linker_4, # of connection points: 2
#     Edge 28, Type (0, 1), BuildingBlock: EYOCIG_clean_linker_4, # of connection points: 2
#     Edge 29, Type (0, 1), BuildingBlock: EYOCIG_clean_linker_4, # of connection points: 2
#     Edge 30, Type (0, 1), BuildingBlock: EYOCIG_clean_linker_4, # of connection points: 2
#     Edge 31, Type (0, 1), BuildingBlock: EYOCIG_clean_linker_4, # of connection points: 2
#     Edge 32, Type (0, 1), BuildingBlock: EYOCIG_clean_linker_4, # of connection points: 2
#     Edge 33, Type (0, 1), BuildingBlock: EYOCIG_clean_linker_4, # of connection points: 2
#     Edge 34, Type (0, 1), BuildingBlock: EYOCIG_clean_linker_4, # of connection points: 2
#     Edge 35, Type (0, 1), BuildingBlock: EYOCIG_clean_linker_4, # of connection points: 2
# Relax obj value: 0.265
# Max RMSD: 0.171
# Mean RMSD: 0.149
data_MOF--net-zzz--node1-OLANEW_clean_sbu_2--node2-NUHQIS_clean_sbu_0--edge1-EYOCIG_clean_linker_4
_symmetry_space_group_name_H-M    P1
_symmetry_Int_Tables_number       1
_symmetry_cell_setting            triclinic
loop_
_symmetry_equiv_pos_as_xyz
'x, y, z'
_cell_length_a     45.816496
_cell_length_b     45.822276
_cell_length_c     12.951035
_cell_angle_alpha  89.673495
_cell_angle_beta   89.848077
_cell_angle_gamma 89.982877
loop_
_atom_site_label
_atom_site_type_symbol
_atom_site_fract_x
_atom_site_fract_y
_atom_site_fract_z
_atom_type_partial_charge
O0 O 0.71446 0.49402 0.31175 0.0
Cd1 Cd 0.67212 0.49178 0.42638 0.0
O2 O 0.72795 0.46649 0.4392 0.0
Cd3 Cd 0.75877 0.4449 0.53643 0.0
O4 O 0.7887 0.47778 0.58904 0.0
C5 C 0.80547 0.473 0.66441 0.0
O6 O 0.8023 0.44901 0.71917 0.0
C7 C 0.73384 0.4783 0.35289 0.0
C8 C 0.62815 0.48692 0.28629 0.0
O9 O 0.63824 0.51183 0.31219 0.0
O10 O 0.63707 0.46392 0.33328 0.0
O11 O 0.98842 0.71441 0.30959 0.0
Cd12 Cd 0.98937 0.67173 0.42339 0.0
O13 O 0.01629 0.72669 0.43682 0.0
Cd14 Cd 0.03874 0.75724 0.53151 0.0
O15 O 0.00695 0.78898 0.58008 0.0
C16 C 0.01142 0.805 0.65739 0.0
O17 O 0.03443 0.80036 0.71535 0.0
C18 C 0.00493 0.73307 0.35048 0.0
C19 C -0.00156 0.62818 0.28407 0.0
O20 O 0.97275 0.63732 0.30517 0.0
O21 O 0.02022 0.6379 0.33534 0.0
O22 O 0.77705 0.98785 0.31251 0.0
Cd23 Cd 0.81961 0.98998 0.42574 0.0
O24 O 0.76476 0.01679 0.43668 0.0
Cd25 Cd 0.73434 0.03963 0.53139 0.0
O26 O 0.70368 0.00703 0.58299 0.0
C27 C 0.68761 0.01126 0.66076 0.0
O28 O 0.69185 0.03441 0.71802 0.0
C29 C 0.75828 0.00452 0.35234 0.0
C30 C 0.86354 -0.00113 0.28638 0.0
O31 O 0.85447 0.97319 0.30847 0.0
O32 O 0.85352 0.02073 0.33654 0.0
O33 O 0.49421 0.77633 0.31452 0.0
Cd34 Cd 0.49179 0.81903 0.42597 0.0
O35 O 0.46602 0.764 0.44177 0.0
Cd36 Cd 0.44424 0.73383 0.54155 0.0
O37 O 0.47767 0.70403 0.59252 0.0
C38 C 0.47338 0.68694 0.66779 0.0
O39 O 0.44948 0.68953 0.72313 0.0
C40 C 0.47825 0.75735 0.3572 0.0
C41 C 0.4853 0.86313 0.28561 0.0
O42 O 0.51056 0.85359 0.31062 0.0
O43 O 0.46271 0.85346 0.33321 0.0
O44 O 0.27844 0.50695 0.20813 0.0
Cd45 Cd 0.31933 0.50061 0.09043 0.0
O46 O 0.26118 0.47661 0.09716 0.0
Cd47 Cd 0.23091 0.46089 0.98695 0.0
O48 O 0.20575 0.49248 0.90349 0.0
C49 C 0.19076 0.48228 0.83081 0.0
O50 O 0.20059 0.45944 0.7809 0.0
C51 C 0.25667 0.49378 0.1721 0.0
C52 C 0.36423 0.50029 0.22592 0.0
O53 O 0.35311 0.5244 0.19498 0.0
O54 O 0.35602 0.47627 0.18508 0.0
O55 O 0.99593 0.27799 0.21334 0.0
Cd56 Cd 0.00354 0.31883 0.09611 0.0
O57 O 0.02513 0.26083 0.09783 0.0
Cd58 Cd 0.03926 0.23137 0.98258 0.0
O59 O 0.00747 0.2051 0.9068 0.0
C60 C 0.01731 0.18985 0.83406 0.0
O61 O 0.04047 0.199 0.78364 0.0
C62 C 0.0079 0.25614 0.17305 0.0
C63 C 0.00149 0.36353 0.23121 0.0
O64 O 0.97793 0.35216 0.19722 0.0
O65 O 0.02612 0.3557 0.19342 0.0
O66 O 0.21496 -0.00347 0.21394 0.0
Cd67 Cd 0.1747 0.00423 0.09499 0.0
O68 O 0.2327 0.02489 0.09623 0.0
Cd69 Cd 0.26236 0.03842 0.97969 0.0
O70 O 0.28674 0.00635 0.897 0.0
C71 C 0.30247 0.01669 0.82585 0.0
O72 O 0.29369 0.04031 0.77737 0.0
C73 C 0.23705 0.00795 0.17253 0.0
C74 C 0.12901 0.00014 0.22689 0.0
O75 O 0.14135 0.97713 0.19239 0.0
O76 O 0.1364 0.02519 0.191 0.0
O77 O 0.50717 0.21492 0.20578 0.0
Cd78 Cd 0.50064 0.17415 0.08852 0.0
O79 O 0.47682 0.2324 0.09434 0.0
Cd80 Cd 0.46102 0.26287 0.98379 0.0
O81 O 0.49308 0.28664 0.89671 0.0
C82 C 0.48291 0.30192 0.82413 0.0
O83 O 0.46011 0.29225 0.77371 0.0
C84 C 0.49394 0.23676 0.1696 0.0
C85 C 0.49937 0.12901 0.22437 0.0
O86 O 0.52368 0.13985 0.19425 0.0
O87 O 0.47554 0.13762 0.18256 0.0
Tb88 Tb 0.01533 0.97954 0.85056 0.0
Eu89 Eu 0.97573 0.01153 0.65391 0.0
C90 C 0.0443 0.99191 0.6364 0.0
C91 C 0.00981 0.04781 0.83581 0.0
C92 C 0.03468 0.9166 0.02183 0.0
C93 C 0.05988 0.87209 0.0767 0.0
C94 C 0.0607 0.90086 0.038 0.0
C95 C 0.00787 0.90219 0.03857 0.0
C96 C 0.00711 0.87367 0.0773 0.0
C97 C 0.03299 0.85881 0.1 0.0
C98 C 0.03542 0.94842 0.99656 0.0
O99 O 0.97416 0.9953 0.91129 0.0
O100 O 0.94222 0.00065 0.7741 0.0
O101 O 0.967 0.96363 0.63 0.0
O102 O -0.00089 0.9449 0.75312 0.0
C103 C 0.94789 -0.00182 0.87296 0.0
O104 O 0.93984 0.03638 0.58053 0.0
O105 O 0.98148 0.0322 0.50379 0.0
O106 O 0.01885 -0.00357 0.5942 0.0
O107 O 0.04864 0.98872 0.73585 0.0
O108 O 0.0246 0.02565 0.87444 0.0
O109 O 0.99031 0.04581 0.76295 0.0
C110 C 0.98031 0.94188 0.67766 0.0
O111 O 0.05114 0.95706 0.91818 0.0
O112 O 0.01051 0.96199 -0.0009 0.0
C113 C 0.95741 0.07791 0.48212 0.0
C114 C 0.95964 0.13531 0.39976 0.0
C115 C 0.93259 0.12246 0.42407 0.0
C116 C 0.93152 0.09387 0.46498 0.0
C117 C 0.98431 0.09217 0.4656 0.0
C118 C 0.98533 0.12046 0.42496 0.0
C119 C 0.95655 0.04586 0.50569 0.0
H120 H 0.08018 0.86081 0.09268 0.0
H121 H 0.08164 0.91123 0.02484 0.0
H122 H 0.98732 0.91329 0.02576 0.0
H123 H 0.98616 0.86365 0.09372 0.0
H124 H 0.91241 0.13378 0.4066 0.0
H125 H 0.91049 0.0837 0.47815 0.0
H126 H 0.00479 0.08101 0.47921 0.0
H127 H 0.00639 0.1302 0.40819 0.0
Tb128 Tb 0.51248 0.01539 0.85057 0.0
Eu129 Eu 0.48134 0.97583 0.6523 0.0
C130 C 0.50097 0.04431 0.63595 0.0
C131 C 0.44436 0.00976 0.83334 0.0
C132 C 0.57448 0.03419 0.02348 0.0
C133 C 0.61968 0.05766 0.0793 0.0
C134 C 0.59115 0.05951 0.04003 0.0
C135 C 0.58789 0.0068 0.03959 0.0
C136 C 0.61641 0.005 0.07863 0.0
C137 C 0.63204 0.03036 0.10248 0.0
C138 C 0.54302 0.03688 0.99451 0.0
O139 O 0.49712 0.9739 0.91133 0.0
O140 O 0.49059 0.94224 0.77394 0.0
O141 O 0.52928 0.96706 0.62881 0.0
O142 O 0.54752 -0.00198 0.7558 0.0
C143 C 0.49294 0.94783 0.87283 0.0
O144 O 0.45697 0.94021 0.57623 0.0
O145 O 0.4607 0.98253 0.50334 0.0
O146 O 0.49734 0.01881 0.59346 0.0
O147 O 0.50295 0.04858 0.73565 0.0
O148 O 0.46626 0.02483 0.87147 0.0
O149 O 0.44672 0.99015 0.76118 0.0
C150 C 0.55083 0.97983 0.67855 0.0
O151 O 0.53703 0.05075 0.90924 0.0
O152 O 0.52676 0.01375 0.00497 0.0
C153 C 0.41529 0.95821 0.48005 0.0
C154 C 0.35795 0.96028 0.39849 0.0
C155 C 0.3708 0.93329 0.4236 0.0
C156 C 0.39936 0.9323 0.46408 0.0
C157 C 0.40104 0.98508 0.46258 0.0
C158 C 0.37279 0.98601 0.42233 0.0
C159 C 0.44733 0.95745 0.50319 0.0
H160 H 0.63152 0.07756 0.09564 0.0
H161 H 0.58164 0.08082 0.02642 0.0
H162 H 0.57605 0.98677 0.02554 0.0
H163 H 0.62579 0.98371 0.09441 0.0
H164 H 0.3595 0.91308 0.40716 0.0
H165 H 0.40952 0.91129 0.47789 0.0
H166 H 0.41216 0.00559 0.47513 0.0
H167 H 0.36306 0.00704 0.40489 0.0
Tb168 Tb 0.47699 0.51219 0.85112 0.0
Eu169 Eu 0.51736 0.48268 0.6525 0.0
C170 C 0.44853 0.50111 0.63664 0.0
C171 C 0.4842 0.4442 0.83353 0.0
C172 C 0.45671 0.57385 0.02452 0.0
C173 C 0.43115 0.61735 0.08535 0.0
C174 C 0.43057 0.5891 0.04328 0.0
C175 C 0.48341 0.58839 0.0412 0.0
C176 C 0.48394 0.61642 0.08337 0.0
C177 C 0.45792 0.6306 0.10931 0.0
C178 C 0.45618 0.54221 0.99781 0.0
O179 O 0.51848 0.49704 0.91087 0.0
O180 O 0.55062 0.49291 0.77323 0.0
O181 O 0.52539 0.53094 0.63168 0.0
O182 O 0.49245 0.54783 0.75515 0.0
C183 C 0.54481 0.49461 0.87224 0.0
O184 O 0.55361 0.45909 0.57629 0.0
O185 O 0.51165 0.46275 0.50207 0.0
O186 O 0.47421 0.49814 0.59405 0.0
O187 O 0.44401 0.50268 0.73647 0.0
O188 O 0.46888 0.46569 0.87375 0.0
O189 O 0.50352 0.44728 0.76006 0.0
C190 C 0.51138 0.55196 0.68036 0.0
O191 O 0.44079 0.53403 0.91865 0.0
O192 O 0.48112 0.52869 0.00067 0.0
C193 C 0.53651 0.41759 0.47833 0.0
C194 C 0.53518 0.35996 0.39922 0.0
C195 C 0.56201 0.37329 0.4226 0.0
C196 C 0.56264 0.40197 0.4618 0.0
C197 C 0.50984 0.40298 0.46185 0.0
C198 C 0.50927 0.37461 0.42281 0.0
C199 C 0.53686 0.44959 0.50226 0.0
H200 H 0.41076 0.62819 0.10347 0.0
H201 H 0.40971 0.57867 0.02998 0.0
H202 H 0.50404 0.57768 0.02611 0.0
H203 H 0.5048 0.62649 0.09995 0.0
H204 H 0.58237 0.36219 0.40611 0.0
H205 H 0.58351 0.41241 0.47465 0.0
H206 H 0.48919 0.41388 0.47473 0.0
H207 H 0.48836 0.36457 0.40651 0.0
Tb208 Tb 0.98053 0.47642 0.85234 0.0
Eu209 Eu 0.01043 0.51687 0.6529 0.0
C210 C 0.99397 0.44748 0.64014 0.0
C211 C 0.04853 0.48414 0.83542 0.0
C212 C 0.91844 0.45583 0.0249 0.0
C213 C 0.87446 0.42978 0.08018 0.0
C214 C 0.90321 0.42952 0.04155 0.0
C215 C 0.90353 0.48236 0.04097 0.0
C216 C 0.87502 0.48257 0.07967 0.0
C217 C 0.86069 0.4564 0.10295 0.0
C218 C 0.95024 0.45564 -0.00054 0.0
O219 O 0.9949 0.51815 0.91121 0.0
O220 O -0.00056 0.55011 0.77282 0.0
O221 O 0.96213 0.52408 0.63098 0.0
O222 O 0.94512 0.49089 0.75422 0.0
C223 C -0.00264 0.54442 0.87191 0.0
O224 O 0.03403 0.55351 0.57843 0.0
O225 O 0.03036 0.51208 0.50133 0.0
O226 O -0.00322 0.47305 0.59619 0.0
O227 O 0.99148 0.44327 0.74 0.0
O228 O 0.02697 0.46898 0.87664 0.0
O229 O 0.04567 0.50307 0.76041 0.0
C230 C 0.94109 0.50973 0.679 0.0
O231 O 0.95904 0.44011 0.92139 0.0
O232 O 0.96336 0.48079 0.00129 0.0
C233 C 0.07558 0.53708 0.47896 0.0
C234 C 0.13346 0.53613 0.40063 0.0
C235 C 0.11988 0.56287 0.42349 0.0
C236 C 0.09107 0.56331 0.46233 0.0
C237 C 0.09042 0.5105 0.46308 0.0
C238 C 0.11893 0.51012 0.42444 0.0
C239 C 0.04356 0.53726 0.50304 0.0
H240 H 0.86358 0.40927 0.09657 0.0
H241 H 0.91395 0.40878 0.02882 0.0
H242 H 0.91424 0.50311 0.02768 0.0
H243 H 0.8646 0.50331 0.09564 0.0
H244 H 0.13088 0.5833 0.40681 0.0
H245 H 0.08044 0.58411 0.47488 0.0
H246 H 0.07963 0.48979 0.47621 0.0
H247 H 0.12918 0.48928 0.40854 0.0
C248 C 0.09715 0.99504 0.39402 0.0
C249 C 0.11161 -0.00185 0.31756 0.0
C250 C 0.08277 0.99195 0.48903 0.0
C251 C 0.06812 0.99114 0.56583 0.0
C252 C 0.50005 0.09751 0.39353 0.0
C253 C 0.49866 0.11179 0.31594 0.0
C254 C 0.50186 0.08306 0.48896 0.0
C255 C 0.50206 0.06824 0.56555 0.0
C256 C 0.39564 0.50122 0.3945 0.0
C257 C 0.38137 0.49996 0.31725 0.0
C258 C 0.41006 0.50255 0.48969 0.0
C259 C 0.42477 0.50238 0.56616 0.0
C260 C -0.00195 0.39449 0.39999 0.0
C261 C 0.00047 0.38043 0.32274 0.0
C262 C 0.99527 0.40871 0.49498 0.0
C263 C 0.99413 0.42346 0.57105 0.0
C264 C 0.89566 0.00354 0.11934 0.0
C265 C 0.88111 0.00308 0.19655 0.0
C266 C 0.91049 0.00238 0.02438 0.0
C267 C 0.92506 0.00082 0.94735 0.0
C268 C 0.48315 0.89549 0.11828 0.0
C269 C 0.48242 0.88086 0.19544 0.0
C270 C 0.48583 0.91046 0.02372 0.0
C271 C 0.48867 0.92512 0.94716 0.0
C272 C 0.59646 0.48599 0.1182 0.0
C273 C 0.61075 0.48479 0.19563 0.0
C274 C 0.58193 0.48875 0.02329 0.0
C275 C 0.56752 0.49118 0.94637 0.0
C276 C 0.00312 0.59651 0.11701 0.0
C277 C 0.00277 0.61082 0.19434 0.0
C278 C 0.00171 0.58182 0.0222 0.0
C279 C 1e-05 0.56729 0.94553 0.0
C280 C 0.98537 0.20641 0.2394 0.0
C281 C -0.00253 0.2275 0.20202 0.0
C282 C 0.971 0.18318 0.29227 0.0
C283 C 0.96231 0.16216 0.34054 0.0
C284 C 0.28663 0.98532 0.23932 0.0
C285 C 0.26554 -0.00269 0.20194 0.0
C286 C 0.30998 0.97125 0.29206 0.0
C287 C 0.33108 0.9628 0.34001 0.0
C288 C 0.51288 0.28701 0.24358 0.0
C289 C 0.50253 0.26547 0.20379 0.0
C290 C 0.52544 0.31107 0.29664 0.0
C291 C 0.53306 0.33271 0.34291 0.0
C292 C 0.20646 0.51336 0.24525 0.0
C293 C 0.22792 0.50266 0.20566 0.0
C294 C 0.18251 0.52633 0.29813 0.0
C295 C 0.16083 0.53414 0.34431 0.0
C296 C 0.0176 0.78288 0.25478 0.0
C297 C 0.01172 0.76012 0.29797 0.0
C298 C 0.02575 0.8087 0.20066 0.0
C299 C 0.03114 0.83122 0.15498 0.0
C300 C 0.70788 0.0155 0.25874 0.0
C301 C 0.73091 0.01039 0.30099 0.0
C302 C 0.68188 0.02291 0.20468 0.0
C303 C 0.65943 0.02789 0.1583 0.0
C304 C 0.4694 0.70597 0.26915 0.0
C305 C 0.47345 0.72941 0.30924 0.0
C306 C 0.46342 0.67974 0.21528 0.0
C307 C 0.45936 0.65752 0.16725 0.0
C308 C 0.78431 0.46851 0.2581 0.0
C309 C 0.76125 0.47306 0.30095 0.0
C310 C 0.81048 0.46191 0.20394 0.0
C311 C 0.83314 0.45758 0.15812 0.0
C312 C 0.01141 0.13339 0.85853 0.0
C313 C 0.01393 0.15926 0.84798 0.0
C314 C 0.01326 0.10307 0.87272 0.0
C315 C 0.01491 0.07695 0.86883 0.0
C316 C 0.35876 0.01107 0.85378 0.0
C317 C 0.33295 0.0134 0.84181 0.0
C318 C 0.38898 0.01306 0.86908 0.0
C319 C 0.4151 0.0148 0.86565 0.0
C320 C 0.48596 0.35843 0.85249 0.0
C321 C 0.48475 0.33254 0.84017 0.0
C322 C 0.48279 0.38858 0.86819 0.0
C323 C 0.48015 0.41467 0.86564 0.0
C324 C 0.13417 0.48585 0.85707 0.0
C325 C 0.16009 0.48439 0.84567 0.0
C326 C 0.10396 0.48288 0.87193 0.0
C327 C 0.0779 0.48029 0.86849 0.0
C328 C 0.98538 0.85629 0.65568 0.0
C329 C -0.00246 0.83298 0.65789 0.0
C330 C 0.97692 0.88586 0.64705 0.0
C331 C 0.97518 0.91213 0.64879 0.0
C332 C 0.63652 0.98491 0.65818 0.0
C333 C 0.6597 -0.00274 0.66108 0.0
C334 C 0.607 0.97647 0.6484 0.0
C335 C 0.58071 0.97482 0.64974 0.0
C336 C 0.50236 0.63724 0.66417 0.0
C337 C 0.48885 0.65979 0.66716 0.0
C338 C 0.51251 0.60827 0.65358 0.0
C339 C 0.51553 0.58209 0.6531 0.0
C340 C 0.85573 0.50095 0.66095 0.0
C341 C 0.83292 0.48789 0.66397 0.0
C342 C 0.88485 0.51071 0.65072 0.0
C343 C 0.91103 0.51367 0.65111 0.0
loop_
_geom_bond_atom_site_label_1
_geom_bond_atom_site_label_2
_geom_bond_distance
_geom_bond_site_symmetry_2
_ccdc_geom_bond_type
O0 Cd1 2.300 . S
O0 C7 1.275 . S
Cd1 O0 2.300 . S
Cd1 O9 2.381 . S
Cd1 O10 2.378 . S
O2 Cd3 2.385 . S
O2 C7 1.255 . S
Cd3 O2 2.385 . S
Cd3 O4 2.317 . S
O4 Cd3 2.317 . S
O4 C5 1.232 . S
C5 O4 1.232 . S
C5 O6 1.218 . S
O6 C5 1.218 . S
C7 O0 1.275 . S
C7 O2 1.255 . S
C8 O9 1.258 . S
C8 O10 1.256 . S
O9 Cd1 2.381 . S
O9 C8 1.258 . S
O10 Cd1 2.378 . S
O10 C8 1.256 . S
O11 Cd12 2.300 1_655 S
O11 C18 1.275 1_655 S
Cd12 O11 2.300 1_455 S
Cd12 O20 2.381 1_455 S
Cd12 O21 2.378 . S
O13 Cd14 2.385 . S
O13 C18 1.255 . S
Cd14 O13 2.385 . S
Cd14 O15 2.317 . S
O15 Cd14 2.317 . S
O15 C16 1.232 . S
C16 O15 1.232 . S
C16 O17 1.218 . S
O17 C16 1.218 . S
C18 O11 1.275 1_455 S
C18 O13 1.255 . S
C19 O20 1.258 1_455 S
C19 O21 1.256 . S
O20 Cd12 2.381 1_655 S
O20 C19 1.258 1_655 S
O21 Cd12 2.378 . S
O21 C19 1.256 . S
O22 Cd23 2.300 1_565 S
O22 C29 1.275 1_565 S
Cd23 O22 2.300 1_545 S
Cd23 O31 2.381 1_545 S
Cd23 O32 2.378 . S
O24 Cd25 2.385 . S
O24 C29 1.255 . S
Cd25 O24 2.385 . S
Cd25 O26 2.317 . S
O26 Cd25 2.317 . S
O26 C27 1.232 . S
C27 O26 1.232 . S
C27 O28 1.218 . S
O28 C27 1.218 . S
C29 O22 1.275 1_545 S
C29 O24 1.255 . S
C30 O31 1.258 1_545 S
C30 O32 1.256 . S
O31 Cd23 2.381 1_565 S
O31 C30 1.258 1_565 S
O32 Cd23 2.378 . S
O32 C30 1.256 . S
O33 Cd34 2.300 . S
O33 C40 1.275 . S
Cd34 O33 2.300 . S
Cd34 O42 2.381 . S
Cd34 O43 2.378 . S
O35 Cd36 2.385 . S
O35 C40 1.255 . S
Cd36 O35 2.385 . S
Cd36 O37 2.317 . S
O37 Cd36 2.317 . S
O37 C38 1.232 . S
C38 O37 1.232 . S
C38 O39 1.218 . S
O39 C38 1.218 . S
C40 O33 1.275 . S
C40 O35 1.255 . S
C41 O42 1.258 . S
C41 O43 1.256 . S
O42 Cd34 2.381 . S
O42 C41 1.258 . S
O43 Cd34 2.378 . S
O43 C41 1.256 . S
O44 Cd45 2.300 . S
O44 C51 1.275 . S
Cd45 O44 2.300 . S
Cd45 O53 2.381 . S
Cd45 O54 2.378 . S
O46 Cd47 2.385 1_554 S
O46 C51 1.255 . S
Cd47 O46 2.385 1_556 S
Cd47 O48 2.317 . S
O48 Cd47 2.317 . S
O48 C49 1.232 . S
C49 O48 1.232 . S
C49 O50 1.218 . S
O50 C49 1.218 . S
C51 O44 1.275 . S
C51 O46 1.255 . S
C52 O53 1.258 . S
C52 O54 1.256 . S
O53 Cd45 2.381 . S
O53 C52 1.258 . S
O54 Cd45 2.378 . S
O54 C52 1.256 . S
O55 Cd56 2.300 1_655 S
O55 C62 1.275 1_655 S
Cd56 O55 2.300 1_455 S
Cd56 O64 2.381 1_455 S
Cd56 O65 2.378 . S
O57 Cd58 2.385 1_554 S
O57 C62 1.255 . S
Cd58 O57 2.385 1_556 S
Cd58 O59 2.317 . S
O59 Cd58 2.317 . S
O59 C60 1.232 . S
C60 O59 1.232 . S
C60 O61 1.218 . S
O61 C60 1.218 . S
C62 O55 1.275 1_455 S
C62 O57 1.255 . S
C63 O64 1.258 1_455 S
C63 O65 1.256 . S
O64 Cd56 2.381 1_655 S
O64 C63 1.258 1_655 S
O65 Cd56 2.378 . S
O65 C63 1.256 . S
O66 Cd67 2.300 1_565 S
O66 C73 1.275 1_565 S
Cd67 O66 2.300 1_545 S
Cd67 O75 2.381 1_545 S
Cd67 O76 2.378 . S
O68 Cd69 2.385 1_554 S
O68 C73 1.255 . S
Cd69 O68 2.385 1_556 S
Cd69 O70 2.317 . S
O70 Cd69 2.317 . S
O70 C71 1.232 . S
C71 O70 1.232 . S
C71 O72 1.218 . S
O72 C71 1.218 . S
C73 O66 1.275 1_545 S
C73 O68 1.255 . S
C74 O75 1.258 1_545 S
C74 O76 1.256 . S
O75 Cd67 2.381 1_565 S
O75 C74 1.258 1_565 S
O76 Cd67 2.378 . S
O76 C74 1.256 . S
O77 Cd78 2.300 . S
O77 C84 1.275 . S
Cd78 O77 2.300 . S
Cd78 O86 2.381 . S
Cd78 O87 2.378 . S
O79 Cd80 2.385 1_554 S
O79 C84 1.255 . S
Cd80 O79 2.385 1_556 S
Cd80 O81 2.317 . S
O81 Cd80 2.317 . S
O81 C82 1.232 . S
C82 O81 1.232 . S
C82 O83 1.218 . S
O83 C82 1.218 . S
C84 O77 1.275 . S
C84 O79 1.255 . S
C85 O86 1.258 . S
C85 O87 1.256 . S
O86 Cd78 2.381 . S
O86 C85 1.258 . S
O87 Cd78 2.378 . S
O87 C85 1.256 . S
Tb88 C98 2.825 . S
Tb88 O99 2.347 1_455 S
Tb88 O102 2.366 . S
Tb88 O107 2.418 . S
Tb88 O108 2.384 1_565 S
Tb88 O111 2.479 . S
Tb88 O112 2.471 . S
Eu89 O100 2.418 . S
Eu89 O101 2.384 1_545 S
Eu89 O104 2.479 . S
Eu89 O105 2.471 . S
Eu89 O106 2.347 1_655 S
Eu89 O109 2.366 . S
Eu89 C119 2.825 . S
C90 O106 1.259 1_565 S
C90 O107 1.265 . S
C91 O108 1.255 . S
C91 O109 1.265 1_455 S
C92 C94 1.380 . S
C92 C95 1.374 . S
C92 C98 1.507 1_554 S
C93 C94 1.384 . S
C93 C97 1.387 . S
C93 H120 0.930 . S
C94 C92 1.380 . S
C94 C93 1.384 . S
C94 H121 0.931 . S
C95 C92 1.374 . S
C95 C96 1.390 . S
C95 H122 0.930 1_455 S
C96 C95 1.390 . S
C96 C97 1.391 . S
C96 H123 0.930 1_455 S
C97 C93 1.387 . S
C97 C96 1.391 . S
C98 Tb88 2.825 . S
C98 C92 1.507 1_556 S
C98 O111 1.238 . S
C98 O112 1.247 . S
O99 Tb88 2.347 1_655 S
O99 C103 1.259 1_565 S
O100 Eu89 2.418 . S
O100 C103 1.265 . S
O101 Eu89 2.384 1_565 S
O101 C110 1.255 . S
O102 Tb88 2.366 . S
O102 C110 1.265 1_455 S
C103 O99 1.259 1_545 S
C103 O100 1.265 . S
O104 Eu89 2.479 . S
O104 C119 1.238 . S
O105 Eu89 2.471 . S
O105 C119 1.247 . S
O106 Eu89 2.347 1_455 S
O106 C90 1.259 1_545 S
O107 Tb88 2.418 . S
O107 C90 1.265 . S
O108 Tb88 2.384 1_545 S
O108 C91 1.255 . S
O109 Eu89 2.366 . S
O109 C91 1.265 1_655 S
C110 O101 1.255 . S
C110 O102 1.265 1_655 S
O111 Tb88 2.479 . S
O111 C98 1.238 . S
O112 Tb88 2.471 . S
O112 C98 1.247 . S
C113 C116 1.380 . S
C113 C117 1.374 . S
C113 C119 1.507 . S
C114 C115 1.387 . S
C114 C118 1.391 . S
C115 C114 1.387 . S
C115 C116 1.384 . S
C115 H124 0.930 . S
C116 C113 1.380 . S
C116 C115 1.384 . S
C116 H125 0.931 . S
C117 C113 1.374 . S
C117 C118 1.390 . S
C117 H126 0.930 1_655 S
C118 C114 1.391 . S
C118 C117 1.390 . S
C118 H127 0.930 1_655 S
C119 Eu89 2.825 . S
C119 O104 1.238 . S
C119 O105 1.247 . S
C119 C113 1.507 . S
H120 C93 0.930 . S
H121 C94 0.931 . S
H122 C95 0.930 1_655 S
H123 C96 0.930 1_655 S
H124 C115 0.930 . S
H125 C116 0.931 . S
H126 C117 0.930 1_455 S
H127 C118 0.930 1_455 S
Tb128 C138 2.825 . S
Tb128 O139 2.347 1_545 S
Tb128 O142 2.366 . S
Tb128 O147 2.418 . S
Tb128 O148 2.384 . S
Tb128 O151 2.479 . S
Tb128 O152 2.471 . S
Eu129 O140 2.418 . S
Eu129 O141 2.384 . S
Eu129 O144 2.479 . S
Eu129 O145 2.471 . S
Eu129 O146 2.347 1_565 S
Eu129 O149 2.366 . S
Eu129 C159 2.825 . S
C130 O146 1.259 . S
C130 O147 1.265 . S
C131 O148 1.255 . S
C131 O149 1.265 1_545 S
C132 C134 1.380 . S
C132 C135 1.374 . S
C132 C138 1.507 1_554 S
C133 C134 1.384 . S
C133 C137 1.387 . S
C133 H160 0.930 . S
C134 C132 1.380 . S
C134 C133 1.384 . S
C134 H161 0.931 . S
C135 C132 1.374 . S
C135 C136 1.390 . S
C135 H162 0.930 1_545 S
C136 C135 1.390 . S
C136 C137 1.391 . S
C136 H163 0.930 1_545 S
C137 C133 1.387 . S
C137 C136 1.391 . S
C138 Tb128 2.825 . S
C138 C132 1.507 1_556 S
C138 O151 1.238 . S
C138 O152 1.247 . S
O139 Tb128 2.347 1_565 S
O139 C143 1.259 . S
O140 Eu129 2.418 . S
O140 C143 1.265 . S
O141 Eu129 2.384 . S
O141 C150 1.255 . S
O142 Tb128 2.366 . S
O142 C150 1.265 1_545 S
C143 O139 1.259 . S
C143 O140 1.265 . S
O144 Eu129 2.479 . S
O144 C159 1.238 . S
O145 Eu129 2.471 . S
O145 C159 1.247 . S
O146 Eu129 2.347 1_545 S
O146 C130 1.259 . S
O147 Tb128 2.418 . S
O147 C130 1.265 . S
O148 Tb128 2.384 . S
O148 C131 1.255 . S
O149 Eu129 2.366 . S
O149 C131 1.265 1_565 S
C150 O141 1.255 . S
C150 O142 1.265 1_565 S
O151 Tb128 2.479 . S
O151 C138 1.238 . S
O152 Tb128 2.471 . S
O152 C138 1.247 . S
C153 C156 1.380 . S
C153 C157 1.374 . S
C153 C159 1.507 . S
C154 C155 1.387 . S
C154 C158 1.391 . S
C155 C154 1.387 . S
C155 C156 1.384 . S
C155 H164 0.930 . S
C156 C153 1.380 . S
C156 C155 1.384 . S
C156 H165 0.931 . S
C157 C153 1.374 . S
C157 C158 1.390 . S
C157 H166 0.930 1_565 S
C158 C154 1.391 . S
C158 C157 1.390 . S
C158 H167 0.930 1_565 S
C159 Eu129 2.825 . S
C159 O144 1.238 . S
C159 O145 1.247 . S
C159 C153 1.507 . S
H160 C133 0.930 . S
H161 C134 0.931 . S
H162 C135 0.930 1_565 S
H163 C136 0.930 1_565 S
H164 C155 0.930 . S
H165 C156 0.931 . S
H166 C157 0.930 1_545 S
H167 C158 0.930 1_545 S
Tb168 C178 2.825 . S
Tb168 O179 2.347 . S
Tb168 O182 2.366 . S
Tb168 O187 2.418 . S
Tb168 O188 2.384 . S
Tb168 O191 2.479 . S
Tb168 O192 2.471 . S
Eu169 O180 2.418 . S
Eu169 O181 2.384 . S
Eu169 O184 2.479 . S
Eu169 O185 2.471 . S
Eu169 O186 2.347 . S
Eu169 O189 2.366 . S
Eu169 C199 2.825 . S
C170 O186 1.259 . S
C170 O187 1.265 . S
C171 O188 1.255 . S
C171 O189 1.265 . S
C172 C174 1.380 . S
C172 C175 1.374 . S
C172 C178 1.507 1_554 S
C173 C174 1.384 . S
C173 C177 1.387 . S
C173 H200 0.930 . S
C174 C172 1.380 . S
C174 C173 1.384 . S
C174 H201 0.931 . S
C175 C172 1.374 . S
C175 C176 1.390 . S
C175 H202 0.930 . S
C176 C175 1.390 . S
C176 C177 1.391 . S
C176 H203 0.930 . S
C177 C173 1.387 . S
C177 C176 1.391 . S
C178 Tb168 2.825 . S
C178 C172 1.507 1_556 S
C178 O191 1.238 . S
C178 O192 1.247 . S
O179 Tb168 2.347 . S
O179 C183 1.259 . S
O180 Eu169 2.418 . S
O180 C183 1.265 . S
O181 Eu169 2.384 . S
O181 C190 1.255 . S
O182 Tb168 2.366 . S
O182 C190 1.265 . S
C183 O179 1.259 . S
C183 O180 1.265 . S
O184 Eu169 2.479 . S
O184 C199 1.238 . S
O185 Eu169 2.471 . S
O185 C199 1.247 . S
O186 Eu169 2.347 . S
O186 C170 1.259 . S
O187 Tb168 2.418 . S
O187 C170 1.265 . S
O188 Tb168 2.384 . S
O188 C171 1.255 . S
O189 Eu169 2.366 . S
O189 C171 1.265 . S
C190 O181 1.255 . S
C190 O182 1.265 . S
O191 Tb168 2.479 . S
O191 C178 1.238 . S
O192 Tb168 2.471 . S
O192 C178 1.247 . S
C193 C196 1.380 . S
C193 C197 1.374 . S
C193 C199 1.507 . S
C194 C195 1.387 . S
C194 C198 1.391 . S
C195 C194 1.387 . S
C195 C196 1.384 . S
C195 H204 0.930 . S
C196 C193 1.380 . S
C196 C195 1.384 . S
C196 H205 0.931 . S
C197 C193 1.374 . S
C197 C198 1.390 . S
C197 H206 0.930 . S
C198 C194 1.391 . S
C198 C197 1.390 . S
C198 H207 0.930 . S
C199 Eu169 2.825 . S
C199 O184 1.238 . S
C199 O185 1.247 . S
C199 C193 1.507 . S
H200 C173 0.930 . S
H201 C174 0.931 . S
H202 C175 0.930 . S
H203 C176 0.930 . S
H204 C195 0.930 . S
H205 C196 0.931 . S
H206 C197 0.930 . S
H207 C198 0.930 . S
Tb208 C218 2.825 . S
Tb208 O219 2.347 . S
Tb208 O222 2.366 . S
Tb208 O227 2.418 . S
Tb208 O228 2.384 1_655 S
Tb208 O231 2.479 . S
Tb208 O232 2.471 . S
Eu209 O220 2.418 . S
Eu209 O221 2.384 1_455 S
Eu209 O224 2.479 . S
Eu209 O225 2.471 . S
Eu209 O226 2.347 . S
Eu209 O229 2.366 . S
Eu209 C239 2.825 . S
C210 O226 1.259 1_655 S
C210 O227 1.265 . S
C211 O228 1.255 . S
C211 O229 1.265 . S
C212 C214 1.380 . S
C212 C215 1.374 . S
C212 C218 1.507 1_554 S
C213 C214 1.384 . S
C213 C217 1.387 . S
C213 H240 0.930 . S
C214 C212 1.380 . S
C214 C213 1.384 . S
C214 H241 0.931 . S
C215 C212 1.374 . S
C215 C216 1.390 . S
C215 H242 0.930 . S
C216 C215 1.390 . S
C216 C217 1.391 . S
C216 H243 0.930 . S
C217 C213 1.387 . S
C217 C216 1.391 . S
C218 Tb208 2.825 . S
C218 C212 1.507 1_556 S
C218 O231 1.238 . S
C218 O232 1.247 . S
O219 Tb208 2.347 . S
O219 C223 1.259 1_655 S
O220 Eu209 2.418 . S
O220 C223 1.265 . S
O221 Eu209 2.384 1_655 S
O221 C230 1.255 . S
O222 Tb208 2.366 . S
O222 C230 1.265 . S
C223 O219 1.259 1_455 S
C223 O220 1.265 . S
O224 Eu209 2.479 . S
O224 C239 1.238 . S
O225 Eu209 2.471 . S
O225 C239 1.247 . S
O226 Eu209 2.347 . S
O226 C210 1.259 1_455 S
O227 Tb208 2.418 . S
O227 C210 1.265 . S
O228 Tb208 2.384 1_455 S
O228 C211 1.255 . S
O229 Eu209 2.366 . S
O229 C211 1.265 . S
C230 O221 1.255 . S
C230 O222 1.265 . S
O231 Tb208 2.479 . S
O231 C218 1.238 . S
O232 Tb208 2.471 . S
O232 C218 1.247 . S
C233 C236 1.380 . S
C233 C237 1.374 . S
C233 C239 1.507 . S
C234 C235 1.387 . S
C234 C238 1.391 . S
C235 C234 1.387 . S
C235 C236 1.384 . S
C235 H244 0.930 . S
C236 C233 1.380 . S
C236 C235 1.384 . S
C236 H245 0.931 . S
C237 C233 1.374 . S
C237 C238 1.390 . S
C237 H246 0.930 . S
C238 C234 1.391 . S
C238 C237 1.390 . S
C238 H247 0.930 . S
C239 Eu209 2.825 . S
C239 O224 1.238 . S
C239 O225 1.247 . S
C239 C233 1.507 . S
H240 C213 0.930 . S
H241 C214 0.931 . S
H242 C215 0.930 . S
H243 C216 0.930 . S
H244 C235 0.930 . S
H245 C236 0.931 . S
H246 C237 0.930 . S
H247 C238 0.930 . S
C248 C249 1.170 . S
C248 C250 1.380 . S
C249 C248 1.170 . S
C250 C248 1.380 . S
C250 C251 1.171 . S
C251 C250 1.171 . S
C252 C253 1.170 . S
C252 C254 1.380 . S
C253 C252 1.170 . S
C254 C252 1.380 . S
C254 C255 1.170 . S
C255 C254 1.170 . S
C256 C257 1.170 . S
C256 C258 1.380 . S
C257 C256 1.170 . S
C258 C256 1.380 . S
C258 C259 1.170 . S
C259 C258 1.170 . S
C260 C261 1.170 . S
C260 C262 1.380 . S
C261 C260 1.170 . S
C262 C260 1.380 . S
C262 C263 1.170 . S
C263 C262 1.170 . S
C264 C265 1.170 . S
C264 C266 1.380 . S
C265 C264 1.170 . S
C266 C264 1.380 . S
C266 C267 1.170 1_564 S
C267 C266 1.170 1_546 S
C268 C269 1.170 . S
C268 C270 1.380 . S
C269 C268 1.170 . S
C270 C268 1.380 . S
C270 C271 1.170 1_554 S
C271 C270 1.170 1_556 S
C272 C273 1.170 . S
C272 C274 1.380 . S
C273 C272 1.170 . S
C274 C272 1.380 . S
C274 C275 1.170 1_554 S
C275 C274 1.170 1_556 S
C276 C277 1.170 . S
C276 C278 1.380 . S
C277 C276 1.170 . S
C278 C276 1.380 . S
C278 C279 1.170 1_554 S
C279 C278 1.170 1_556 S
C280 C281 1.160 1_655 S
C280 C282 1.380 . S
C281 C280 1.160 1_455 S
C282 C280 1.380 . S
C282 C283 1.170 . S
C283 C282 1.170 . S
C284 C285 1.182 . S
C284 C286 1.380 . S
C285 C284 1.182 . S
C286 C284 1.380 . S
C286 C287 1.170 . S
C287 C286 1.170 . S
C288 C289 1.170 . S
C288 C290 1.380 . S
C289 C288 1.170 . S
C290 C288 1.380 . S
C290 C291 1.170 . S
C291 C290 1.170 . S
C292 C293 1.170 . S
C292 C294 1.380 . S
C293 C292 1.170 . S
C294 C292 1.380 . S
C294 C295 1.170 . S
C295 C294 1.170 . S
C296 C297 1.179 . S
C296 C298 1.380 . S
C297 C296 1.179 . S
C298 C296 1.380 . S
C298 C299 1.170 . S
C299 C298 1.170 . S
C300 C301 1.170 1_545 S
C300 C302 1.380 . S
C301 C300 1.170 1_565 S
C302 C300 1.380 . S
C302 C303 1.170 . S
C303 C302 1.170 . S
C304 C305 1.170 . S
C304 C306 1.380 . S
C305 C304 1.170 . S
C306 C304 1.380 . S
C306 C307 1.170 . S
C307 C306 1.170 . S
C308 C309 1.170 . S
C308 C310 1.380 . S
C309 C308 1.170 . S
C310 C308 1.380 . S
C310 C311 1.170 . S
C311 C310 1.170 . S
C312 C313 1.170 . S
C312 C314 1.380 . S
C313 C312 1.170 . S
C314 C312 1.380 . S
C314 C315 1.170 . S
C315 C314 1.170 . S
C316 C317 1.170 . S
C316 C318 1.380 . S
C317 C316 1.170 . S
C318 C316 1.380 . S
C318 C319 1.170 . S
C319 C318 1.170 . S
C320 C321 1.170 . S
C320 C322 1.380 . S
C321 C320 1.170 . S
C322 C320 1.380 . S
C322 C323 1.170 . S
C323 C322 1.170 . S
C324 C325 1.170 . S
C324 C326 1.380 . S
C325 C324 1.170 . S
C326 C324 1.380 . S
C326 C327 1.170 . S
C327 C326 1.170 . S
C328 C329 1.170 . S
C328 C330 1.380 . S
C329 C328 1.170 . S
C330 C328 1.380 . S
C330 C331 1.170 . S
C331 C330 1.170 . S
C332 C333 1.170 . S
C332 C334 1.380 . S
C333 C332 1.170 . S
C334 C332 1.380 . S
C334 C335 1.170 . S
C335 C334 1.170 . S
C336 C337 1.170 . S
C336 C338 1.380 . S
C337 C336 1.170 . S
C338 C336 1.380 . S
C338 C339 1.170 . S
C339 C338 1.170 . S
C340 C341 1.170 . S
C340 C342 1.380 . S
C341 C340 1.170 . S
C342 C340 1.380 . S
C342 C343 1.170 . S
C343 C342 1.170 . S
C249 C74 1.910 1_565 S
C251 C90 2.056 . S
C255 C130 2.080 . S
C253 C85 1.913 . S
C259 C170 2.075 . S
C257 C52 1.925 . S
C263 C210 2.075 1_455 S
C261 C63 1.886 . S
C267 C103 2.060 . S
C265 C30 1.919 1_565 S
C269 C41 1.917 . S
C271 C143 2.074 . S
C273 C8 1.934 . S
C275 C183 2.081 . S
C277 C19 1.925 1_655 S
C279 C223 2.063 1_655 S
C283 C114 0.756 . S
C281 C62 0.769 . S
C287 C154 0.786 . S
C285 C73 0.755 1_565 S
C291 C194 0.719 . S
C289 C84 0.749 . S
C293 C51 0.741 . S
C295 C234 0.708 . S
C297 C18 0.720 . S
C299 C97 0.790 . S
C303 C137 0.729 . S
C301 C29 0.804 1_565 S
C307 C177 0.719 . S
C305 C40 0.791 . S
C309 C7 0.775 . S
C311 C217 0.749 . S
C313 C60 1.856 . S
C315 C91 2.484 . S
C317 C71 1.871 . S
C319 C131 2.445 . S
C323 C171 2.434 . S
C321 C82 1.835 . S
C327 C211 2.479 . S
C325 C49 1.810 . S
C329 C16 1.976 1_655 S
C331 C110 2.494 . S
C335 C150 2.461 . S
C333 C27 1.944 1_565 S
C339 C190 2.440 . S
C337 C38 1.966 . S
C341 C5 1.958 . S
C343 C230 2.466 . S
