# Generated by pormake.
# Topology anh, (6,3)-cn, num edge types: 1
# Building blocks:
#     Node 0, Type 0, BuildingBlock: BETDEL_clean_sbu_0, # of connection points: 6
#     Node 1, Type 0, BuildingBlock: BETDEL_clean_sbu_0, # of connection points: 6
#     Node 2, Type 0, BuildingBlock: BETDEL_clean_sbu_0, # of connection points: 6
#     Node 3, Type 1, BuildingBlock: OLANEW_clean_sbu_2, # of connection points: 3
#     Node 4, Type 1, BuildingBlock: OLANEW_clean_sbu_2, # of connection points: 3
#     Node 5, Type 1, BuildingBlock: OLANEW_clean_sbu_2, # of connection points: 3
#     Node 6, Type 1, BuildingBlock: OLANEW_clean_sbu_2, # of connection points: 3
#     Node 7, Type 1, BuildingBlock: OLANEW_clean_sbu_2, # of connection points: 3
#     Node 8, Type 1, BuildingBlock: OLANEW_clean_sbu_2, # of connection points: 3
#     Edge 9, Type (0, 1), BuildingBlock: AJUNOK_clean_linker_0, # of connection points: 2
#     Edge 10, Type (0, 1), BuildingBlock: AJUNOK_clean_linker_0, # of connection points: 2
#     Edge 11, Type (0, 1), BuildingBlock: AJUNOK_clean_linker_0, # of connection points: 2
#     Edge 12, Type (0, 1), BuildingBlock: AJUNOK_clean_linker_0, # of connection points: 2
#     Edge 13, Type (0, 1), BuildingBlock: AJUNOK_clean_linker_0, # of connection points: 2
#     Edge 14, Type (0, 1), BuildingBlock: AJUNOK_clean_linker_0, # of connection points: 2
#     Edge 15, Type (0, 1), BuildingBlock: AJUNOK_clean_linker_0, # of connection points: 2
#     Edge 16, Type (0, 1), BuildingBlock: AJUNOK_clean_linker_0, # of connection points: 2
#     Edge 17, Type (0, 1), BuildingBlock: AJUNOK_clean_linker_0, # of connection points: 2
#     Edge 18, Type (0, 1), BuildingBlock: AJUNOK_clean_linker_0, # of connection points: 2
#     Edge 19, Type (0, 1), BuildingBlock: AJUNOK_clean_linker_0, # of connection points: 2
#     Edge 20, Type (0, 1), BuildingBlock: AJUNOK_clean_linker_0, # of connection points: 2
#     Edge 21, Type (0, 1), BuildingBlock: AJUNOK_clean_linker_0, # of connection points: 2
#     Edge 22, Type (0, 1), BuildingBlock: AJUNOK_clean_linker_0, # of connection points: 2
#     Edge 23, Type (0, 1), BuildingBlock: AJUNOK_clean_linker_0, # of connection points: 2
#     Edge 24, Type (0, 1), BuildingBlock: AJUNOK_clean_linker_0, # of connection points: 2
#     Edge 25, Type (0, 1), BuildingBlock: AJUNOK_clean_linker_0, # of connection points: 2
#     Edge 26, Type (0, 1), BuildingBlock: AJUNOK_clean_linker_0, # of connection points: 2
# Relax obj value: 0.096
# Max RMSD: 0.107
# Mean RMSD: 0.103
data_MOF--net-anh--node1-BETDEL_clean_sbu_0--node2-OLANEW_clean_sbu_2--edge1-AJUNOK_clean_linker_0
_symmetry_space_group_name_H-M    P1
_symmetry_Int_Tables_number       1
_symmetry_cell_setting            triclinic
loop_
_symmetry_equiv_pos_as_xyz
'x, y, z'
_cell_length_a     25.435131
_cell_length_b     25.417232
_cell_length_c     36.287019
_cell_angle_alpha  89.909597
_cell_angle_beta   89.632958
_cell_angle_gamma 119.91108
loop_
_atom_site_label
_atom_site_type_symbol
_atom_site_fract_x
_atom_site_fract_y
_atom_site_fract_z
_atom_type_partial_charge
Dy0 Dy 0.03372 0.46482 0.16572 0.0
C1 C 0.85483 0.53343 0.185 0.0
C2 C 0.12733 0.44463 0.14971 0.0
Dy3 Dy 0.95118 0.51775 0.16876 0.0
O4 O 0.1097 0.44915 0.18257 0.0
O5 O 0.09259 0.44949 0.1255 0.0
O6 O 0.00285 0.42571 0.22208 0.0
O7 O 0.00966 0.50935 0.20897 0.0
C8 C 0.99398 0.46908 0.23363 0.0
C9 C 0.99201 0.51376 0.10128 0.0
O10 O 0.03651 0.60106 0.18426 0.0
O11 O 0.09695 0.56594 0.15924 0.0
O12 O 0.8938 0.56091 0.15851 0.0
O13 O 0.87032 0.49957 0.20342 0.0
O14 O 0.98171 0.55655 0.11188 0.0
O15 O 0.97527 0.47351 0.12586 0.0
O16 O 0.94788 0.3773 0.15599 0.0
O17 O 0.88595 0.41719 0.17044 0.0
C18 C 0.08996 0.61088 0.17223 0.0
C19 C 0.89344 0.37053 0.16233 0.0
Dy20 Dy 0.47303 0.01305 0.49315 0.0
C21 C 0.71862 0.19912 0.51069 0.0
C22 C 0.3636 0.91569 0.47444 0.0
Dy23 Dy 0.60702 0.09891 0.49852 0.0
O24 O 0.37167 0.95446 0.50014 0.0
O25 O 0.41503 0.9314 0.45833 0.0
O26 O 0.45817 0.0364 0.55047 0.0
O27 O 0.53893 0.03772 0.53759 0.0
C28 C 0.51161 0.05004 0.56207 0.0
C29 C 0.56894 0.05873 0.43032 0.0
O30 O 0.6084 0.01521 0.51568 0.0
O31 O 0.51304 0.95123 0.49219 0.0
O32 O 0.70611 0.15787 0.48591 0.0
O33 O 0.6701 0.18275 0.53044 0.0
O34 O 0.62125 0.07081 0.44298 0.0
O35 O 0.54134 0.07333 0.45352 0.0
O36 O 0.47132 0.09802 0.47889 0.0
O37 O 0.56793 0.16086 0.50096 0.0
C38 C 0.56575 0.96056 0.505 0.0
C39 C 0.51512 0.15231 0.48914 0.0
Dy40 Dy 0.57525 0.58333 0.8322 0.0
C41 C 0.48081 0.33107 0.87517 0.0
C42 C 0.59934 0.69913 0.81968 0.0
Dy43 Dy 0.50988 0.44085 0.84529 0.0
O44 O 0.56914 0.66509 0.84744 0.0
O45 O 0.61779 0.67013 0.79835 0.0
O46 O 0.62152 0.59552 0.8865 0.0
O47 O 0.53502 0.52066 0.87883 0.0
C48 C 0.57887 0.54526 0.90075 0.0
C49 C 0.52006 0.46642 0.7726 0.0
O50 O 0.43211 0.45718 0.85506 0.0
O51 O 0.47609 0.55006 0.82423 0.0
O52 O 0.44567 0.34119 0.85391 0.0
O53 O 0.53032 0.38192 0.88153 0.0
O54 O 0.4942 0.41152 0.78573 0.0
O55 O 0.53747 0.50245 0.79928 0.0
O56 O 0.65203 0.56864 0.81655 0.0
O57 O 0.60948 0.47195 0.84302 0.0
C58 C 0.42869 0.50325 0.8402 0.0
C59 C 0.65552 0.52049 0.82734 0.0
O60 O 0.55968 0.02023 0.25328 0.0
Cd61 Cd 0.57268 0.02009 0.18656 0.0
O62 O 0.46118 0.9812 0.2625 0.0
Cd63 Cd 0.42991 0.94531 0.20745 0.0
O64 O 0.35406 0.86525 0.18267 0.0
C65 C 0.30222 0.84843 0.19692 0.0
O66 O 0.29804 0.88205 0.22298 0.0
C67 C 0.51492 0.00637 0.27483 0.0
C68 C 0.67621 0.13137 0.16905 0.0
O69 O 0.62294 0.12491 0.1687 0.0
O70 O 0.68055 0.08435 0.1764 0.0
O71 O 0.50818 0.48365 0.59291 0.0
Cd72 Cd 0.49607 0.47624 0.52589 0.0
O73 O 0.5507 0.58077 0.60729 0.0
Cd74 Cd 0.55169 0.61906 0.55329 0.0
O75 O 0.55264 0.69634 0.52609 0.0
C76 C 0.58856 0.74878 0.53883 0.0
O77 O 0.62521 0.75353 0.5656 0.0
C78 C 0.53001 0.5257 0.61681 0.0
C79 C 0.49564 0.36999 0.50389 0.0
O80 O 0.5447 0.42147 0.50495 0.0
O81 O 0.44602 0.36882 0.51219 0.0
O82 O 0.07584 0.51619 0.9291 0.0
Cd83 Cd 0.09047 0.50476 0.86353 0.0
O84 O 0.97556 0.46395 0.92838 0.0
Cd85 Cd 0.95931 0.46851 0.86968 0.0
O86 O 0.88612 0.4733 0.84089 0.0
C87 C 0.8832 0.52184 0.84176 0.0
O88 O 0.92814 0.57047 0.85663 0.0
C89 C 0.02511 0.49025 0.94599 0.0
C90 C 0.19967 0.5042 0.85285 0.0
O91 O 0.1973 0.55332 0.8509 0.0
O92 O 0.15004 0.45483 0.85955 0.0
O93 O 0.03232 0.51155 0.41043 0.0
Cd94 Cd 0.06475 0.54973 0.47282 0.0
O95 O 0.99259 0.56951 0.40008 0.0
Cd96 Cd 0.98206 0.57088 0.4598 0.0
O97 O 0.92344 0.48779 0.49087 0.0
C98 C 0.88147 0.45051 0.47001 0.0
O99 O 0.87939 0.46811 0.43625 0.0
C100 C 0.00896 0.53277 0.38824 0.0
C101 C 0.15759 0.67109 0.47024 0.0
O102 O 0.16883 0.62752 0.46656 0.0
O103 O 0.10232 0.65742 0.47536 0.0
O104 O 0.62822 0.06947 0.72447 0.0
Cd105 Cd 0.66252 0.06196 0.78572 0.0
O106 O 0.53993 0.05774 0.74197 0.0
Cd107 Cd 0.5564 0.06833 0.80123 0.0
O108 O 0.54393 0.12323 0.84293 0.0
C109 C 0.49072 0.11534 0.84685 0.0
O110 O 0.44617 0.07034 0.82911 0.0
C111 C 0.57698 0.06359 0.71645 0.0
C112 C 0.64183 0.94431 0.79711 0.0
O113 O 0.60326 0.95986 0.8075 0.0
O114 O 0.69074 0.98468 0.78139 0.0
O115 O 0.50311 0.44381 0.07014 0.0
Cd116 Cd 0.49104 0.43371 0.13722 0.0
O117 O 0.5508 0.54285 0.07692 0.0
Cd118 Cd 0.49935 0.53191 0.12725 0.0
O119 O 0.4068 0.50329 0.14484 0.0
C120 C 0.36733 0.48048 0.11955 0.0
O121 O 0.38505 0.47456 0.08649 0.0
C122 C 0.53645 0.49677 0.05682 0.0
C123 C 0.60689 0.47436 0.16526 0.0
O124 O 0.56963 0.41762 0.16092 0.0
O125 O 0.58854 0.5118 0.1579 0.0
C126 C 0.22532 0.45497 0.17017 0.0
C127 C 0.18479 0.44567 0.14144 0.0
C128 C 0.28364 0.46462 0.16289 0.0
C129 C 0.30358 0.46487 0.12658 0.0
H130 H 0.21276 0.45696 0.1985 0.0
H131 H 0.3137 0.47315 0.18592 0.0
S132 S 0.2126 0.43789 0.04171 0.0
N133 N 0.16699 0.43392 0.07551 0.0
N134 N 0.27629 0.45136 0.06161 0.0
C135 C 0.26235 0.45292 0.09767 0.0
C136 C 0.20305 0.44351 0.10515 0.0
C137 C 0.80956 0.30113 0.52389 0.0
C138 C 0.75995 0.26334 0.50173 0.0
C139 C 0.84832 0.36237 0.51403 0.0
C140 C 0.83808 0.3874 0.48193 0.0
H141 H 0.8189 0.28314 0.5485 0.0
H142 H 0.88705 0.38987 0.53126 0.0
S143 S 0.70925 0.30711 0.41742 0.0
N144 N 0.69976 0.25524 0.44821 0.0
N145 N 0.77117 0.36957 0.42988 0.0
C146 C 0.78693 0.34991 0.46052 0.0
C147 C 0.7482 0.28804 0.4704 0.0
C148 C 0.65254 0.80059 0.7879 0.0
C149 C 0.6093 0.76107 0.81366 0.0
C150 C 0.66315 0.85998 0.78288 0.0
C151 C 0.63019 0.88156 0.80301 0.0
H152 H 0.67883 0.78583 0.77184 0.0
H153 H 0.69713 0.88899 0.76286 0.0
S154 S 0.51099 0.79513 0.87342 0.0
N155 N 0.53305 0.74741 0.85939 0.0
N156 N 0.55218 0.85811 0.84955 0.0
C157 C 0.58634 0.84204 0.82854 0.0
C158 C 0.57613 0.78206 0.83397 0.0
C159 C 0.74531 0.4724 0.20117 0.0
C160 C 0.79351 0.52609 0.18625 0.0
C161 C 0.68489 0.45718 0.1956 0.0
C162 C 0.67054 0.49576 0.17567 0.0
H163 H 0.75402 0.43993 0.21525 0.0
H164 H 0.64917 0.41391 0.20595 0.0
S165 S 0.78058 0.64474 0.13432 0.0
N166 N 0.82328 0.61988 0.15294 0.0
N167 N 0.70971 0.59231 0.14338 0.0
C168 C 0.71846 0.55157 0.16279 0.0
C169 C 0.78 0.56647 0.16784 0.0
C170 C 0.31238 0.80894 0.45241 0.0
C171 C 0.3082 0.85608 0.46988 0.0
C172 C 0.26313 0.74953 0.45224 0.0
C173 C 0.20743 0.73514 0.46896 0.0
H174 H 0.35478 0.81739 0.44 0.0
H175 H 0.26909 0.71449 0.43925 0.0
S176 S 0.1719 0.84339 0.51609 0.0
N177 N 0.24342 0.88529 0.5029 0.0
N178 N 0.15018 0.77385 0.50187 0.0
C179 C 0.20186 0.78247 0.48515 0.0
C180 C 0.25243 0.84288 0.4858 0.0
C181 C 0.52948 0.26846 0.88579 0.0
C182 C 0.47649 0.27113 0.87891 0.0
C183 C 0.53228 0.21586 0.8782 0.0
C184 C 0.48205 0.16384 0.86369 0.0
H185 H 0.5707 0.30871 0.89419 0.0
H186 H 0.57542 0.21758 0.88143 0.0
S187 S 0.3285 0.14363 0.84924 0.0
N188 N 0.36993 0.21467 0.86284 0.0
N189 N 0.37443 0.11523 0.84916 0.0
C190 C 0.42677 0.16386 0.86083 0.0
C191 C 0.42419 0.2177 0.8683 0.0
C192 C 0.61984 0.91134 0.53378 0.0
C193 C 0.57428 0.90734 0.51026 0.0
C194 C 0.62515 0.86023 0.54187 0.0
C195 C 0.58534 0.80301 0.52665 0.0
H196 H 0.65058 0.95383 0.54703 0.0
H197 H 0.66004 0.86556 0.56094 0.0
S198 S 0.46176 0.76943 0.46046 0.0
N199 N 0.49122 0.84228 0.46962 0.0
N200 N 0.5012 0.74648 0.48485 0.0
C201 C 0.54117 0.79892 0.50181 0.0
C202 C 0.53562 0.85096 0.49365 0.0
C203 C 0.76924 0.57586 0.82876 0.0
C204 C 0.71413 0.52132 0.82461 0.0
C205 C 0.8242 0.57586 0.83248 0.0
C206 C 0.82624 0.52139 0.83179 0.0
H207 H 0.76962 0.61853 0.83112 0.0
H208 H 0.86506 0.61879 0.83727 0.0
S209 S 0.69495 0.36713 0.81623 0.0
N210 N 0.66549 0.4121 0.81618 0.0
N211 N 0.76833 0.41196 0.82282 0.0
C212 C 0.77178 0.46698 0.82511 0.0
C213 C 0.71588 0.46699 0.82166 0.0
C214 C 0.14032 0.71662 0.19704 0.0
C215 C 0.14386 0.67253 0.17547 0.0
C216 C 0.19136 0.77373 0.20285 0.0
C217 C 0.2482 0.78949 0.18722 0.0
H218 H 0.09811 0.7066 0.21042 0.0
H219 H 0.18622 0.80534 0.22039 0.0
S220 S 0.28096 0.69216 0.12597 0.0
N221 N 0.20833 0.64987 0.13652 0.0
N222 N 0.30417 0.75719 0.14746 0.0
C223 C 0.252 0.74666 0.16446 0.0
C224 C 0.19995 0.68825 0.15863 0.0
C225 C 0.55859 0.26449 0.48737 0.0
C226 C 0.50685 0.20618 0.48812 0.0
C227 C 0.55402 0.31686 0.49092 0.0
C228 C 0.49749 0.3135 0.49571 0.0
H229 H 0.60351 0.26996 0.48485 0.0
H230 H 0.59561 0.3603 0.49107 0.0
S231 S 0.34747 0.17189 0.49689 0.0
N232 N 0.39681 0.14814 0.49175 0.0
N233 N 0.38794 0.2467 0.4987 0.0
C234 C 0.44498 0.25556 0.49495 0.0
C235 C 0.44971 0.20194 0.49104 0.0
C236 C 0.31644 0.45173 0.85325 0.0
C237 C 0.3704 0.50389 0.84206 0.0
C238 C 0.26144 0.45198 0.85614 0.0
C239 C 0.25809 0.50455 0.84826 0.0
H240 H 0.31652 0.41022 0.85993 0.0
H241 H 0.22137 0.41071 0.86509 0.0
S242 S 0.38603 0.65337 0.81754 0.0
N243 N 0.41654 0.60984 0.82277 0.0
N244 N 0.31366 0.61008 0.82829 0.0
C245 C 0.31158 0.55694 0.83681 0.0
C246 C 0.36749 0.55667 0.83368 0.0
C247 C 0.84214 0.25658 0.16527 0.0
C248 C 0.83831 0.30947 0.16039 0.0
C249 C 0.78965 0.199 0.16692 0.0
C250 C 0.73128 0.192 0.16348 0.0
H251 H 0.88582 0.25973 0.16908 0.0
H252 H 0.79494 0.15987 0.17185 0.0
S253 S 0.69694 0.31588 0.14608 0.0
N254 N 0.77149 0.35065 0.14907 0.0
N255 N 0.67348 0.2431 0.15214 0.0
C256 C 0.72711 0.24441 0.1569 0.0
C257 C 0.7804 0.3029 0.15538 0.0
C258 C 0.043 0.55699 0.0411 0.0
C259 C 0.00526 0.50581 0.0628 0.0
C260 C 0.05231 0.55118 0.00353 0.0
C261 C 0.02264 0.4942 0.98636 0.0
H262 H 0.06478 0.60189 0.05315 0.0
H263 H 0.0805 0.59179 0.98746 0.0
S264 S 0.92127 0.34608 0.03132 0.0
N265 N 0.94081 0.39604 0.0649 0.0
N266 N 0.95609 0.38555 0.99389 0.0
C267 C 0.98595 0.44259 0.00791 0.0
C268 C 0.97788 0.44827 0.04632 0.0
C269 C 0.59481 0.04303 0.36679 0.0
C270 C 0.55233 0.04418 0.39125 0.0
C271 C 0.58215 0.03104 0.32936 0.0
C272 C 0.52612 0.01892 0.31479 0.0
H273 H 0.63869 0.05199 0.37651 0.0
H274 H 0.61669 0.03091 0.31179 0.0
S275 S 0.39867 0.01539 0.36757 0.0
N276 N 0.45181 0.03191 0.39861 0.0
N277 N 0.42718 0.00822 0.3281 0.0
C278 C 0.48271 0.01916 0.33907 0.0
C279 C 0.49603 0.0321 0.37732 0.0
C280 C 0.54392 0.54127 0.72129 0.0
C281 C 0.52546 0.48185 0.733 0.0
C282 C 0.54612 0.55527 0.68365 0.0
C283 C 0.53004 0.51035 0.65638 0.0
H284 H 0.5557 0.57694 0.74131 0.0
H285 H 0.55968 0.60156 0.676 0.0
S286 S 0.48284 0.34835 0.67315 0.0
N287 N 0.49375 0.37833 0.71463 0.0
N288 N 0.49803 0.40436 0.64419 0.0
C289 C 0.51301 0.45098 0.66794 0.0
C290 C 0.51069 0.43685 0.70616 0.0
C291 C 0.58194 0.05762 0.61195 0.0
C292 C 0.52905 0.05792 0.60129 0.0
C293 C 0.5973 0.06014 0.64915 0.0
C294 C 0.56037 0.06308 0.67722 0.0
H295 H 0.6113 0.05427 0.59147 0.0
H296 H 0.63803 0.05878 0.65587 0.0
S297 S 0.41934 0.07022 0.6634 0.0
N298 N 0.44149 0.06501 0.62137 0.0
N299 N 0.47008 0.0698 0.69135 0.0
C300 C 0.50817 0.06526 0.66678 0.0
C301 C 0.49264 0.06276 0.62881 0.0
C302 C 0.52371 0.47584 0.95343 0.0
C303 C 0.57415 0.52951 0.94029 0.0
C304 C 0.51366 0.46375 0.9913 0.0
C305 C 0.55325 0.50538 0.01733 0.0
H306 H 0.49057 0.4439 0.93438 0.0
H307 H 0.47294 0.42306 0.00023 0.0
S308 S 0.69601 0.64869 0.99715 0.0
N309 N 0.6675 0.6215 0.95622 0.0
N310 N 0.64784 0.59932 0.0274 0.0
C311 C 0.60556 0.55754 0.00453 0.0
C312 C 0.61627 0.56944 0.96598 0.0
C313 C 0.99503 0.53639 0.2842 0.0
C314 C 0.99065 0.48125 0.2732 0.0
C315 C 0.99938 0.55221 0.32155 0.0
C316 C 1.00018 0.51373 0.34917 0.0
H317 H 0.99672 0.56836 0.26378 0.0
H318 H 0.00409 0.59571 0.32872 0.0
S319 S 0.98232 0.36098 0.33518 0.0
N320 N 0.9816 0.38566 0.2932 0.0
N321 N 0.99057 0.41565 0.36319 0.0
C322 C 0.99316 0.45733 0.33861 0.0
C323 C 0.98808 0.44098 0.30068 0.0
loop_
_geom_bond_atom_site_label_1
_geom_bond_atom_site_label_2
_geom_bond_distance
_geom_bond_site_symmetry_2
_ccdc_geom_bond_type
Dy0 O4 2.398 . S
Dy0 O5 2.491 . S
Dy0 O6 2.403 . S
Dy0 O7 2.664 . S
Dy0 O11 2.326 . S
Dy0 O15 2.310 . S
Dy0 O16 2.351 1_455 S
C1 O12 1.185 . S
C1 O13 1.355 . S
C2 O4 1.185 . S
C2 O5 1.355 . S
Dy3 O7 2.310 1_655 S
Dy3 O10 2.351 1_655 S
Dy3 O12 2.398 . S
Dy3 O13 2.491 . S
Dy3 O14 2.403 . S
Dy3 O15 2.664 1_655 S
Dy3 O17 2.326 . S
O4 Dy0 2.398 . S
O4 C2 1.185 . S
O5 Dy0 2.491 . S
O5 C2 1.355 . S
O6 Dy0 2.403 . S
O6 C8 1.254 . S
O7 Dy0 2.664 . S
O7 Dy3 2.310 1_455 S
O7 C8 1.268 . S
C8 O6 1.254 . S
C8 O7 1.268 . S
C9 O14 1.254 1_455 S
C9 O15 1.268 . S
O10 Dy3 2.351 1_455 S
O10 C18 1.249 . S
O11 Dy0 2.326 . S
O11 C18 1.267 . S
O12 C1 1.185 . S
O12 Dy3 2.398 . S
O13 C1 1.355 . S
O13 Dy3 2.491 . S
O14 Dy3 2.403 . S
O14 C9 1.254 1_655 S
O15 Dy0 2.310 . S
O15 Dy3 2.664 1_455 S
O15 C9 1.268 . S
O16 Dy0 2.351 1_655 S
O16 C19 1.249 . S
O17 Dy3 2.326 . S
O17 C19 1.267 . S
C18 O10 1.249 . S
C18 O11 1.267 . S
C19 O16 1.249 . S
C19 O17 1.267 . S
Dy20 O24 2.398 . S
Dy20 O25 2.491 . S
Dy20 O26 2.403 . S
Dy20 O27 2.664 1_565 S
Dy20 O31 2.326 . S
Dy20 O35 2.310 1_565 S
Dy20 O36 2.351 1_565 S
C21 O32 1.185 . S
C21 O33 1.355 . S
C22 O24 1.185 . S
C22 O25 1.355 . S
Dy23 O27 2.310 . S
Dy23 O30 2.351 1_545 S
Dy23 O32 2.398 . S
Dy23 O33 2.491 . S
Dy23 O34 2.403 . S
Dy23 O35 2.664 . S
Dy23 O37 2.326 . S
O24 Dy20 2.398 . S
O24 C22 1.185 . S
O25 Dy20 2.491 . S
O25 C22 1.355 . S
O26 Dy20 2.403 . S
O26 C28 1.254 1_565 S
O27 Dy20 2.664 1_545 S
O27 Dy23 2.310 . S
O27 C28 1.268 . S
C28 O26 1.254 1_545 S
C28 O27 1.268 . S
C29 O34 1.254 . S
C29 O35 1.268 . S
O30 Dy23 2.351 1_565 S
O30 C38 1.249 . S
O31 Dy20 2.326 . S
O31 C38 1.267 . S
O32 C21 1.185 . S
O32 Dy23 2.398 . S
O33 C21 1.355 . S
O33 Dy23 2.491 . S
O34 Dy23 2.403 . S
O34 C29 1.254 . S
O35 Dy20 2.310 1_545 S
O35 Dy23 2.664 . S
O35 C29 1.268 . S
O36 Dy20 2.351 1_545 S
O36 C39 1.249 . S
O37 Dy23 2.326 . S
O37 C39 1.267 . S
C38 O30 1.249 . S
C38 O31 1.267 . S
C39 O36 1.249 . S
C39 O37 1.267 . S
Dy40 O44 2.398 . S
Dy40 O45 2.491 . S
Dy40 O46 2.403 . S
Dy40 O47 2.664 . S
Dy40 O51 2.326 . S
Dy40 O55 2.310 . S
Dy40 O56 2.351 . S
C41 O52 1.185 . S
C41 O53 1.355 . S
C42 O44 1.185 . S
C42 O45 1.355 . S
Dy43 O47 2.310 . S
Dy43 O50 2.351 . S
Dy43 O52 2.398 . S
Dy43 O53 2.491 . S
Dy43 O54 2.403 . S
Dy43 O55 2.664 . S
Dy43 O57 2.326 . S
O44 Dy40 2.398 . S
O44 C42 1.185 . S
O45 Dy40 2.491 . S
O45 C42 1.355 . S
O46 Dy40 2.403 . S
O46 C48 1.254 . S
O47 Dy40 2.664 . S
O47 Dy43 2.310 . S
O47 C48 1.268 . S
C48 O46 1.254 . S
C48 O47 1.268 . S
C49 O54 1.254 . S
C49 O55 1.268 . S
O50 Dy43 2.351 . S
O50 C58 1.249 . S
O51 Dy40 2.326 . S
O51 C58 1.267 . S
O52 C41 1.185 . S
O52 Dy43 2.398 . S
O53 C41 1.355 . S
O53 Dy43 2.491 . S
O54 Dy43 2.403 . S
O54 C49 1.254 . S
O55 Dy40 2.310 . S
O55 Dy43 2.664 . S
O55 C49 1.268 . S
O56 Dy40 2.351 . S
O56 C59 1.249 . S
O57 Dy43 2.326 . S
O57 C59 1.267 . S
C58 O50 1.249 . S
C58 O51 1.267 . S
C59 O56 1.249 . S
C59 O57 1.267 . S
O60 Cd61 2.300 . S
O60 C67 1.275 1_545 S
Cd61 O60 2.300 . S
Cd61 O69 2.381 . S
Cd61 O70 2.378 . S
O62 Cd63 2.385 . S
O62 C67 1.255 . S
Cd63 O62 2.385 . S
Cd63 O64 2.317 . S
O64 Cd63 2.317 . S
O64 C65 1.232 . S
C65 O64 1.232 . S
C65 O66 1.218 . S
O66 C65 1.218 . S
C67 O60 1.275 1_565 S
C67 O62 1.255 . S
C68 O69 1.258 . S
C68 O70 1.256 . S
O69 Cd61 2.381 . S
O69 C68 1.258 . S
O70 Cd61 2.378 . S
O70 C68 1.256 . S
O71 Cd72 2.300 . S
O71 C78 1.275 . S
Cd72 O71 2.300 . S
Cd72 O80 2.381 . S
Cd72 O81 2.378 . S
O73 Cd74 2.385 . S
O73 C78 1.255 . S
Cd74 O73 2.385 . S
Cd74 O75 2.317 . S
O75 Cd74 2.317 . S
O75 C76 1.232 . S
C76 O75 1.232 . S
C76 O77 1.218 . S
O77 C76 1.218 . S
C78 O71 1.275 . S
C78 O73 1.255 . S
C79 O80 1.258 . S
C79 O81 1.256 . S
O80 Cd72 2.381 . S
O80 C79 1.258 . S
O81 Cd72 2.378 . S
O81 C79 1.256 . S
O82 Cd83 2.300 . S
O82 C89 1.275 . S
Cd83 O82 2.300 . S
Cd83 O91 2.381 . S
Cd83 O92 2.378 . S
O84 Cd85 2.385 . S
O84 C89 1.255 1_655 S
Cd85 O84 2.385 . S
Cd85 O86 2.317 . S
O86 Cd85 2.317 . S
O86 C87 1.232 . S
C87 O86 1.232 . S
C87 O88 1.218 . S
O88 C87 1.218 . S
C89 O82 1.275 . S
C89 O84 1.255 1_455 S
C90 O91 1.258 . S
C90 O92 1.256 . S
O91 Cd83 2.381 . S
O91 C90 1.258 . S
O92 Cd83 2.378 . S
O92 C90 1.256 . S
O93 Cd94 2.300 . S
O93 C100 1.275 1_455 S
Cd94 O93 2.300 . S
Cd94 O102 2.381 . S
Cd94 O103 2.378 . S
O95 Cd96 2.385 . S
O95 C100 1.255 . S
Cd96 O95 2.385 . S
Cd96 O97 2.317 . S
O97 Cd96 2.317 . S
O97 C98 1.232 . S
C98 O97 1.232 . S
C98 O99 1.218 . S
O99 C98 1.218 . S
C100 O93 1.275 1_655 S
C100 O95 1.255 . S
C101 O102 1.258 . S
C101 O103 1.256 . S
O102 Cd94 2.381 . S
O102 C101 1.258 . S
O103 Cd94 2.378 . S
O103 C101 1.256 . S
O104 Cd105 2.300 1_565 S
O104 C111 1.275 1_565 S
Cd105 O104 2.300 1_545 S
Cd105 O113 2.381 1_545 S
Cd105 O114 2.378 1_545 S
O106 Cd107 2.385 . S
O106 C111 1.255 . S
Cd107 O106 2.385 . S
Cd107 O108 2.317 . S
O108 Cd107 2.317 . S
O108 C109 1.232 . S
C109 O108 1.232 . S
C109 O110 1.218 . S
O110 C109 1.218 . S
C111 O104 1.275 1_545 S
C111 O106 1.255 . S
C112 O113 1.258 . S
C112 O114 1.256 . S
O113 Cd105 2.381 1_565 S
O113 C112 1.258 . S
O114 Cd105 2.378 1_565 S
O114 C112 1.256 . S
O115 Cd116 2.300 . S
O115 C122 1.275 . S
Cd116 O115 2.300 . S
Cd116 O124 2.381 . S
Cd116 O125 2.378 . S
O117 Cd118 2.385 . S
O117 C122 1.255 . S
Cd118 O117 2.385 . S
Cd118 O119 2.317 . S
O119 Cd118 2.317 . S
O119 C120 1.232 . S
C120 O119 1.232 . S
C120 O121 1.218 . S
O121 C120 1.218 . S
C122 O115 1.275 . S
C122 O117 1.255 . S
C123 O124 1.258 . S
C123 O125 1.256 . S
O124 Cd116 2.381 . S
O124 C123 1.258 . S
O125 Cd116 2.378 . S
O125 C123 1.256 . S
C126 C127 1.369 . S
C126 C128 1.419 . S
C126 H130 0.930 . S
C127 C126 1.369 . S
C127 C136 1.429 . S
C128 C126 1.419 . S
C128 C129 1.363 . S
C128 H131 0.929 . S
C129 C128 1.363 . S
C129 C135 1.428 . S
H130 C126 0.930 . S
H131 C128 0.929 . S
S132 N133 1.613 . S
S132 N134 1.610 . S
N133 S132 1.613 . S
N133 C136 1.350 . S
N134 S132 1.610 . S
N134 C135 1.351 . S
C135 C129 1.428 . S
C135 N134 1.351 . S
C135 C136 1.434 . S
C136 C127 1.429 . S
C136 N133 1.350 . S
C136 C135 1.434 . S
C137 C138 1.369 . S
C137 C139 1.419 . S
C137 H141 0.930 . S
C138 C137 1.369 . S
C138 C147 1.429 . S
C139 C137 1.419 . S
C139 C140 1.363 . S
C139 H142 0.929 . S
C140 C139 1.363 . S
C140 C146 1.428 . S
H141 C137 0.930 . S
H142 C139 0.929 . S
S143 N144 1.613 . S
S143 N145 1.610 . S
N144 S143 1.613 . S
N144 C147 1.350 . S
N145 S143 1.610 . S
N145 C146 1.351 . S
C146 C140 1.428 . S
C146 N145 1.351 . S
C146 C147 1.434 . S
C147 C138 1.429 . S
C147 N144 1.350 . S
C147 C146 1.434 . S
C148 C149 1.369 . S
C148 C150 1.419 . S
C148 H152 0.930 . S
C149 C148 1.369 . S
C149 C158 1.429 . S
C150 C148 1.419 . S
C150 C151 1.363 . S
C150 H153 0.929 . S
C151 C150 1.363 . S
C151 C157 1.428 . S
H152 C148 0.930 . S
H153 C150 0.929 . S
S154 N155 1.613 . S
S154 N156 1.610 . S
N155 S154 1.613 . S
N155 C158 1.350 . S
N156 S154 1.610 . S
N156 C157 1.351 . S
C157 C151 1.428 . S
C157 N156 1.351 . S
C157 C158 1.434 . S
C158 C149 1.429 . S
C158 N155 1.350 . S
C158 C157 1.434 . S
C159 C160 1.369 . S
C159 C161 1.419 . S
C159 H163 0.930 . S
C160 C159 1.369 . S
C160 C169 1.429 . S
C161 C159 1.419 . S
C161 C162 1.363 . S
C161 H164 0.929 . S
C162 C161 1.363 . S
C162 C168 1.428 . S
H163 C159 0.930 . S
H164 C161 0.929 . S
S165 N166 1.613 . S
S165 N167 1.610 . S
N166 S165 1.613 . S
N166 C169 1.350 . S
N167 S165 1.610 . S
N167 C168 1.351 . S
C168 C162 1.428 . S
C168 N167 1.351 . S
C168 C169 1.434 . S
C169 C160 1.429 . S
C169 N166 1.350 . S
C169 C168 1.434 . S
C170 C171 1.369 . S
C170 C172 1.419 . S
C170 H174 0.930 . S
C171 C170 1.369 . S
C171 C180 1.429 . S
C172 C170 1.419 . S
C172 C173 1.363 . S
C172 H175 0.929 . S
C173 C172 1.363 . S
C173 C179 1.428 . S
H174 C170 0.930 . S
H175 C172 0.929 . S
S176 N177 1.613 . S
S176 N178 1.610 . S
N177 S176 1.613 . S
N177 C180 1.350 . S
N178 S176 1.610 . S
N178 C179 1.351 . S
C179 C173 1.428 . S
C179 N178 1.351 . S
C179 C180 1.434 . S
C180 C171 1.429 . S
C180 N177 1.350 . S
C180 C179 1.434 . S
C181 C182 1.369 . S
C181 C183 1.419 . S
C181 H185 0.930 . S
C182 C181 1.369 . S
C182 C191 1.429 . S
C183 C181 1.419 . S
C183 C184 1.363 . S
C183 H186 0.929 . S
C184 C183 1.363 . S
C184 C190 1.428 . S
H185 C181 0.930 . S
H186 C183 0.929 . S
S187 N188 1.613 . S
S187 N189 1.610 . S
N188 S187 1.613 . S
N188 C191 1.350 . S
N189 S187 1.610 . S
N189 C190 1.351 . S
C190 C184 1.428 . S
C190 N189 1.351 . S
C190 C191 1.434 . S
C191 C182 1.429 . S
C191 N188 1.350 . S
C191 C190 1.434 . S
C192 C193 1.369 . S
C192 C194 1.419 . S
C192 H196 0.930 . S
C193 C192 1.369 . S
C193 C202 1.429 . S
C194 C192 1.419 . S
C194 C195 1.363 . S
C194 H197 0.929 . S
C195 C194 1.363 . S
C195 C201 1.428 . S
H196 C192 0.930 . S
H197 C194 0.929 . S
S198 N199 1.613 . S
S198 N200 1.610 . S
N199 S198 1.613 . S
N199 C202 1.350 . S
N200 S198 1.610 . S
N200 C201 1.351 . S
C201 C195 1.428 . S
C201 N200 1.351 . S
C201 C202 1.434 . S
C202 C193 1.429 . S
C202 N199 1.350 . S
C202 C201 1.434 . S
C203 C204 1.369 . S
C203 C205 1.419 . S
C203 H207 0.930 . S
C204 C203 1.369 . S
C204 C213 1.429 . S
C205 C203 1.419 . S
C205 C206 1.363 . S
C205 H208 0.929 . S
C206 C205 1.363 . S
C206 C212 1.428 . S
H207 C203 0.930 . S
H208 C205 0.929 . S
S209 N210 1.613 . S
S209 N211 1.610 . S
N210 S209 1.613 . S
N210 C213 1.350 . S
N211 S209 1.610 . S
N211 C212 1.351 . S
C212 C206 1.428 . S
C212 N211 1.351 . S
C212 C213 1.434 . S
C213 C204 1.429 . S
C213 N210 1.350 . S
C213 C212 1.434 . S
C214 C215 1.369 . S
C214 C216 1.419 . S
C214 H218 0.930 . S
C215 C214 1.369 . S
C215 C224 1.429 . S
C216 C214 1.419 . S
C216 C217 1.363 . S
C216 H219 0.929 . S
C217 C216 1.363 . S
C217 C223 1.428 . S
H218 C214 0.930 . S
H219 C216 0.929 . S
S220 N221 1.613 . S
S220 N222 1.610 . S
N221 S220 1.613 . S
N221 C224 1.350 . S
N222 S220 1.610 . S
N222 C223 1.351 . S
C223 C217 1.428 . S
C223 N222 1.351 . S
C223 C224 1.434 . S
C224 C215 1.429 . S
C224 N221 1.350 . S
C224 C223 1.434 . S
C225 C226 1.369 . S
C225 C227 1.419 . S
C225 H229 0.930 . S
C226 C225 1.369 . S
C226 C235 1.429 . S
C227 C225 1.419 . S
C227 C228 1.363 . S
C227 H230 0.929 . S
C228 C227 1.363 . S
C228 C234 1.428 . S
H229 C225 0.930 . S
H230 C227 0.929 . S
S231 N232 1.613 . S
S231 N233 1.610 . S
N232 S231 1.613 . S
N232 C235 1.350 . S
N233 S231 1.610 . S
N233 C234 1.351 . S
C234 C228 1.428 . S
C234 N233 1.351 . S
C234 C235 1.434 . S
C235 C226 1.429 . S
C235 N232 1.350 . S
C235 C234 1.434 . S
C236 C237 1.369 . S
C236 C238 1.419 . S
C236 H240 0.930 . S
C237 C236 1.369 . S
C237 C246 1.429 . S
C238 C236 1.419 . S
C238 C239 1.363 . S
C238 H241 0.929 . S
C239 C238 1.363 . S
C239 C245 1.428 . S
H240 C236 0.930 . S
H241 C238 0.929 . S
S242 N243 1.613 . S
S242 N244 1.610 . S
N243 S242 1.613 . S
N243 C246 1.350 . S
N244 S242 1.610 . S
N244 C245 1.351 . S
C245 C239 1.428 . S
C245 N244 1.351 . S
C245 C246 1.434 . S
C246 C237 1.429 . S
C246 N243 1.350 . S
C246 C245 1.434 . S
C247 C248 1.369 . S
C247 C249 1.419 . S
C247 H251 0.930 . S
C248 C247 1.369 . S
C248 C257 1.429 . S
C249 C247 1.419 . S
C249 C250 1.363 . S
C249 H252 0.929 . S
C250 C249 1.363 . S
C250 C256 1.428 . S
H251 C247 0.930 . S
H252 C249 0.929 . S
S253 N254 1.613 . S
S253 N255 1.610 . S
N254 S253 1.613 . S
N254 C257 1.350 . S
N255 S253 1.610 . S
N255 C256 1.351 . S
C256 C250 1.428 . S
C256 N255 1.351 . S
C256 C257 1.434 . S
C257 C248 1.429 . S
C257 N254 1.350 . S
C257 C256 1.434 . S
C258 C259 1.369 . S
C258 C260 1.450 . S
C258 H262 0.930 . S
C259 C258 1.369 . S
C259 C268 1.429 1_455 S
C260 C258 1.450 . S
C260 C261 1.344 1_554 S
C260 H263 0.917 1_554 S
C261 C260 1.344 1_556 S
C261 C267 1.428 1_455 S
H262 C258 0.930 . S
H263 C260 0.917 1_556 S
S264 N265 1.613 . S
S264 N266 1.610 1_554 S
N265 S264 1.613 . S
N265 C268 1.350 . S
N266 S264 1.610 1_556 S
N266 C267 1.351 . S
C267 C261 1.428 1_655 S
C267 N266 1.351 . S
C267 C268 1.434 1_556 S
C268 C259 1.429 1_655 S
C268 N265 1.350 . S
C268 C267 1.434 1_554 S
C269 C270 1.369 . S
C269 C271 1.419 . S
C269 H273 0.930 . S
C270 C269 1.369 . S
C270 C279 1.429 1_545 S
C271 C269 1.419 . S
C271 C272 1.363 1_545 S
C271 H274 0.929 . S
C272 C271 1.363 1_565 S
C272 C278 1.428 . S
H273 C269 0.930 . S
H274 C271 0.929 . S
S275 N276 1.613 . S
S275 N277 1.610 . S
N276 S275 1.613 . S
N276 C279 1.350 . S
N277 S275 1.610 . S
N277 C278 1.351 . S
C278 C272 1.428 . S
C278 N277 1.351 . S
C278 C279 1.434 . S
C279 C270 1.429 1_565 S
C279 N276 1.350 . S
C279 C278 1.434 . S
C280 C281 1.369 . S
C280 C282 1.419 . S
C280 H284 0.930 . S
C281 C280 1.369 . S
C281 C290 1.429 . S
C282 C280 1.419 . S
C282 C283 1.363 . S
C282 H285 0.929 . S
C283 C282 1.363 . S
C283 C289 1.428 . S
H284 C280 0.930 . S
H285 C282 0.929 . S
S286 N287 1.613 . S
S286 N288 1.610 . S
N287 S286 1.613 . S
N287 C290 1.350 . S
N288 S286 1.610 . S
N288 C289 1.351 . S
C289 C283 1.428 . S
C289 N288 1.351 . S
C289 C290 1.434 . S
C290 C281 1.429 . S
C290 N287 1.350 . S
C290 C289 1.434 . S
C291 C292 1.369 1_565 S
C291 C293 1.419 . S
C291 H295 0.930 . S
C292 C291 1.369 1_545 S
C292 C301 1.429 . S
C293 C291 1.419 . S
C293 C294 1.363 1_565 S
C293 H296 0.929 . S
C294 C293 1.363 1_545 S
C294 C300 1.428 . S
H295 C291 0.930 . S
H296 C293 0.929 . S
S297 N298 1.613 . S
S297 N299 1.610 . S
N298 S297 1.613 . S
N298 C301 1.350 . S
N299 S297 1.610 . S
N299 C300 1.351 . S
C300 C294 1.428 . S
C300 N299 1.351 . S
C300 C301 1.434 . S
C301 C292 1.429 . S
C301 N298 1.350 . S
C301 C300 1.434 . S
C302 C303 1.369 . S
C302 C304 1.419 1_556 S
C302 H306 0.930 . S
C303 C302 1.369 . S
C303 C312 1.429 . S
C304 C302 1.419 1_554 S
C304 C305 1.363 . S
C304 H307 0.929 . S
C305 C304 1.363 . S
C305 C311 1.428 . S
H306 C302 0.930 . S
H307 C304 0.929 . S
S308 N309 1.613 . S
S308 N310 1.610 1_556 S
N309 S308 1.613 . S
N309 C312 1.350 . S
N310 S308 1.610 1_554 S
N310 C311 1.351 . S
C311 C305 1.428 . S
C311 N310 1.351 . S
C311 C312 1.434 1_554 S
C312 C303 1.429 . S
C312 N309 1.350 . S
C312 C311 1.434 1_556 S
C313 C314 1.369 . S
C313 C315 1.419 . S
C313 H317 0.930 . S
C314 C313 1.369 . S
C314 C323 1.429 1_455 S
C315 C313 1.419 . S
C315 C316 1.363 1_455 S
C315 H318 0.929 . S
C316 C315 1.363 1_655 S
C316 C322 1.428 . S
H317 C313 0.930 . S
H318 C315 0.929 . S
S319 N320 1.613 . S
S319 N321 1.610 . S
N320 S319 1.613 . S
N320 C323 1.350 . S
N321 S319 1.610 . S
N321 C322 1.351 . S
C322 C316 1.428 . S
C322 N321 1.351 . S
C322 C323 1.434 . S
C323 C314 1.429 1_655 S
C323 N320 1.350 . S
C323 C322 1.434 . S
C127 C2 1.179 . S
C129 C120 1.010 . S
C138 C21 1.123 . S
C140 C98 0.997 . S
C149 C42 1.020 . S
C151 C112 1.003 . S
C160 C1 0.970 . S
C162 C123 0.946 . S
C173 C101 0.996 . S
C171 C22 1.013 . S
C184 C109 1.012 . S
C182 C41 1.123 . S
C193 C38 2.020 . S
C195 C76 1.740 . S
C204 C59 2.079 . S
C206 C87 1.769 . S
C215 C18 2.019 . S
C217 C65 1.737 . S
C228 C79 1.818 . S
C226 C39 1.888 . S
C239 C90 1.771 . S
C237 C58 1.852 . S
C248 C19 1.888 . S
C250 C68 1.823 . S
C261 C89 1.500 . S
C259 C9 1.514 . S
C270 C29 1.543 . S
C272 C67 1.514 . S
C281 C49 1.542 . S
C283 C78 1.510 . S
C294 C111 1.383 . S
C292 C28 1.418 . S
C305 C122 1.370 . S
C303 C48 1.429 . S
C314 C8 1.417 . S
C316 C100 1.386 . S
