# Generated by pormake.
# Topology myd, (4,6)-cn, num edge types: 1
# Building blocks:
#     Node 0, Type 0, BuildingBlock: KOZSID_clean_sbu_0, # of connection points: 4
#     Node 1, Type 0, BuildingBlock: KOZSID_clean_sbu_0, # of connection points: 4
#     Node 2, Type 0, BuildingBlock: KOZSID_clean_sbu_0, # of connection points: 4
#     Node 3, Type 0, BuildingBlock: KOZSID_clean_sbu_0, # of connection points: 4
#     Node 4, Type 0, BuildingBlock: KOZSID_clean_sbu_0, # of connection points: 4
#     Node 5, Type 0, BuildingBlock: KOZSID_clean_sbu_0, # of connection points: 4
#     Node 6, Type 0, BuildingBlock: KOZSID_clean_sbu_0, # of connection points: 4
#     Node 7, Type 0, BuildingBlock: KOZSID_clean_sbu_0, # of connection points: 4
#     Node 8, Type 0, BuildingBlock: KOZSID_clean_sbu_0, # of connection points: 4
#     Node 9, Type 0, BuildingBlock: KOZSID_clean_sbu_0, # of connection points: 4
#     Node 10, Type 0, BuildingBlock: KOZSID_clean_sbu_0, # of connection points: 4
#     Node 11, Type 0, BuildingBlock: KOZSID_clean_sbu_0, # of connection points: 4
#     Node 12, Type 1, BuildingBlock: LEVNOQ01_clean_sbu_1, # of connection points: 6
#     Node 13, Type 1, BuildingBlock: LEVNOQ01_clean_sbu_1, # of connection points: 6
#     Node 14, Type 1, BuildingBlock: LEVNOQ01_clean_sbu_1, # of connection points: 6
#     Node 15, Type 1, BuildingBlock: LEVNOQ01_clean_sbu_1, # of connection points: 6
#     Node 16, Type 1, BuildingBlock: LEVNOQ01_clean_sbu_1, # of connection points: 6
#     Node 17, Type 1, BuildingBlock: LEVNOQ01_clean_sbu_1, # of connection points: 6
#     Node 18, Type 1, BuildingBlock: LEVNOQ01_clean_sbu_1, # of connection points: 6
#     Node 19, Type 1, BuildingBlock: LEVNOQ01_clean_sbu_1, # of connection points: 6
#     Edge 20, Type (0, 1), BuildingBlock: OJICUG_clean_linker_0, # of connection points: 2
#     Edge 21, Type (0, 1), BuildingBlock: OJICUG_clean_linker_0, # of connection points: 2
#     Edge 22, Type (0, 1), BuildingBlock: OJICUG_clean_linker_0, # of connection points: 2
#     Edge 23, Type (0, 1), BuildingBlock: OJICUG_clean_linker_0, # of connection points: 2
#     Edge 24, Type (0, 1), BuildingBlock: OJICUG_clean_linker_0, # of connection points: 2
#     Edge 25, Type (0, 1), BuildingBlock: OJICUG_clean_linker_0, # of connection points: 2
#     Edge 26, Type (0, 1), BuildingBlock: OJICUG_clean_linker_0, # of connection points: 2
#     Edge 27, Type (0, 1), BuildingBlock: OJICUG_clean_linker_0, # of connection points: 2
#     Edge 28, Type (0, 1), BuildingBlock: OJICUG_clean_linker_0, # of connection points: 2
#     Edge 29, Type (0, 1), BuildingBlock: OJICUG_clean_linker_0, # of connection points: 2
#     Edge 30, Type (0, 1), BuildingBlock: OJICUG_clean_linker_0, # of connection points: 2
#     Edge 31, Type (0, 1), BuildingBlock: OJICUG_clean_linker_0, # of connection points: 2
#     Edge 32, Type (0, 1), BuildingBlock: OJICUG_clean_linker_0, # of connection points: 2
#     Edge 33, Type (0, 1), BuildingBlock: OJICUG_clean_linker_0, # of connection points: 2
#     Edge 34, Type (0, 1), BuildingBlock: OJICUG_clean_linker_0, # of connection points: 2
#     Edge 35, Type (0, 1), BuildingBlock: OJICUG_clean_linker_0, # of connection points: 2
#     Edge 36, Type (0, 1), BuildingBlock: OJICUG_clean_linker_0, # of connection points: 2
#     Edge 37, Type (0, 1), BuildingBlock: OJICUG_clean_linker_0, # of connection points: 2
#     Edge 38, Type (0, 1), BuildingBlock: OJICUG_clean_linker_0, # of connection points: 2
#     Edge 39, Type (0, 1), BuildingBlock: OJICUG_clean_linker_0, # of connection points: 2
#     Edge 40, Type (0, 1), BuildingBlock: OJICUG_clean_linker_0, # of connection points: 2
#     Edge 41, Type (0, 1), BuildingBlock: OJICUG_clean_linker_0, # of connection points: 2
#     Edge 42, Type (0, 1), BuildingBlock: OJICUG_clean_linker_0, # of connection points: 2
#     Edge 43, Type (0, 1), BuildingBlock: OJICUG_clean_linker_0, # of connection points: 2
#     Edge 44, Type (0, 1), BuildingBlock: OJICUG_clean_linker_0, # of connection points: 2
#     Edge 45, Type (0, 1), BuildingBlock: OJICUG_clean_linker_0, # of connection points: 2
#     Edge 46, Type (0, 1), BuildingBlock: OJICUG_clean_linker_0, # of connection points: 2
#     Edge 47, Type (0, 1), BuildingBlock: OJICUG_clean_linker_0, # of connection points: 2
#     Edge 48, Type (0, 1), BuildingBlock: OJICUG_clean_linker_0, # of connection points: 2
#     Edge 49, Type (0, 1), BuildingBlock: OJICUG_clean_linker_0, # of connection points: 2
#     Edge 50, Type (0, 1), BuildingBlock: OJICUG_clean_linker_0, # of connection points: 2
#     Edge 51, Type (0, 1), BuildingBlock: OJICUG_clean_linker_0, # of connection points: 2
#     Edge 52, Type (0, 1), BuildingBlock: OJICUG_clean_linker_0, # of connection points: 2
#     Edge 53, Type (0, 1), BuildingBlock: OJICUG_clean_linker_0, # of connection points: 2
#     Edge 54, Type (0, 1), BuildingBlock: OJICUG_clean_linker_0, # of connection points: 2
#     Edge 55, Type (0, 1), BuildingBlock: OJICUG_clean_linker_0, # of connection points: 2
#     Edge 56, Type (0, 1), BuildingBlock: OJICUG_clean_linker_0, # of connection points: 2
#     Edge 57, Type (0, 1), BuildingBlock: OJICUG_clean_linker_0, # of connection points: 2
#     Edge 58, Type (0, 1), BuildingBlock: OJICUG_clean_linker_0, # of connection points: 2
#     Edge 59, Type (0, 1), BuildingBlock: OJICUG_clean_linker_0, # of connection points: 2
#     Edge 60, Type (0, 1), BuildingBlock: OJICUG_clean_linker_0, # of connection points: 2
#     Edge 61, Type (0, 1), BuildingBlock: OJICUG_clean_linker_0, # of connection points: 2
#     Edge 62, Type (0, 1), BuildingBlock: OJICUG_clean_linker_0, # of connection points: 2
#     Edge 63, Type (0, 1), BuildingBlock: OJICUG_clean_linker_0, # of connection points: 2
#     Edge 64, Type (0, 1), BuildingBlock: OJICUG_clean_linker_0, # of connection points: 2
#     Edge 65, Type (0, 1), BuildingBlock: OJICUG_clean_linker_0, # of connection points: 2
#     Edge 66, Type (0, 1), BuildingBlock: OJICUG_clean_linker_0, # of connection points: 2
#     Edge 67, Type (0, 1), BuildingBlock: OJICUG_clean_linker_0, # of connection points: 2
# Relax obj value: 0.185
# Max RMSD: 0.197
# Mean RMSD: 0.139
data_MOF--net-myd--node1-KOZSID_clean_sbu_0--node2-LEVNOQ01_clean_sbu_1--edge1-OJICUG_clean_linker_0
_symmetry_space_group_name_H-M    P1
_symmetry_Int_Tables_number       1
_symmetry_cell_setting            triclinic
loop_
_symmetry_equiv_pos_as_xyz
'x, y, z'
_cell_length_a     38.282444
_cell_length_b     38.797743
_cell_length_c     37.972458
_cell_angle_alpha  92.790163
_cell_angle_beta   92.232838
_cell_angle_gamma 94.998775
loop_
_atom_site_label
_atom_site_type_symbol
_atom_site_fract_x
_atom_site_fract_y
_atom_site_fract_z
_atom_type_partial_charge
C0 C 0.98558 0.31041 0.3188 0.0
C1 C 0.95249 0.31904 0.32774 0.0
C2 C 0.92882 0.29738 0.30767 0.0
C3 C 0.94872 0.27676 0.28788 0.0
N4 N 0.98366 0.28307 0.29494 0.0
Co5 Co 0.0223 0.26126 0.27023 0.0
N6 N 0.98806 0.23587 0.23458 0.0
C7 C 0.95273 0.23635 0.23349 0.0
C8 C 0.93585 0.21506 0.20718 0.0
C9 C 0.96184 0.19965 0.19068 0.0
C10 C 0.99331 0.21263 0.20785 0.0
N11 N 0.06097 0.23965 0.24544 0.0
C12 C 0.05939 0.21604 0.21771 0.0
C13 C 0.09259 0.20725 0.20936 0.0
C14 C 0.11584 0.22527 0.23317 0.0
C15 C 0.09567 0.24413 0.25451 0.0
N16 N 0.0562 0.28725 0.30578 0.0
C17 C 0.09125 0.28512 0.30879 0.0
C18 C 0.10806 0.30884 0.33312 0.0
C19 C 0.0824 0.32793 0.34563 0.0
C20 C 0.05123 0.31462 0.32826 0.0
N21 N 0.01758 0.22034 0.30041 0.0
C22 C 0.01138 0.1544 0.33018 0.0
C23 C 0.04421 0.17236 0.32624 0.0
C24 C 0.04661 0.20518 0.31223 0.0
C25 C 0.98174 0.17146 0.32118 0.0
C26 C 0.98539 0.2039 0.30644 0.0
N27 N 0.0274 0.30145 0.24001 0.0
C28 C 0.06425 0.3465 0.2141 0.0
C29 C 0.03482 0.36215 0.20256 0.0
C30 C 0.0016 0.34655 0.2091 0.0
C31 C -0.00151 0.3161 0.2273 0.0
C32 C 0.05998 0.31653 0.23298 0.0
H33 H 0.97251 0.30499 0.23117 0.0
H34 H 0.08344 0.30634 0.24203 0.0
H35 H 0.07239 0.21728 0.31047 0.0
H36 H 0.96167 0.21475 0.29959 0.0
C37 C 0.93589 0.25533 0.25885 0.0
C38 C 0.01799 0.33037 0.33173 0.0
C39 C 0.02715 0.20043 0.19923 0.0
C40 C 0.10821 0.26514 0.28418 0.0
H41 H 0.94612 0.3399 0.34567 0.0
H42 H 0.90061 0.29816 0.306 0.0
H43 H 0.90787 0.21042 0.20143 0.0
H44 H 0.95784 0.18024 0.16915 0.0
H45 H 0.09926 0.18919 0.18859 0.0
H46 H 0.144 0.2242 0.23512 0.0
H47 H 0.136 0.31344 0.33912 0.0
H48 H 0.08652 0.35023 0.36402 0.0
H49 H 0.06826 0.16106 0.33311 0.0
H50 H 0.95553 0.15997 0.32532 0.0
H51 H 0.09041 0.35772 0.20919 0.0
H52 H 0.97811 0.35759 0.19978 0.0
C53 C 0.99249 0.70059 0.11112 0.0
C54 C 0.96288 0.68599 0.0918 0.0
C55 C 0.93472 0.69903 0.10686 0.0
C56 C 0.94877 0.72079 0.13429 0.0
N57 N 0.98425 0.72308 0.13716 0.0
Co58 Co 0.01564 0.75068 0.17367 0.0
N59 N 0.97423 0.76844 0.19734 0.0
C60 C 0.93987 0.76089 0.18766 0.0
C61 C 0.91771 0.7798 0.20648 0.0
C62 C 0.9391 0.80123 0.2291 0.0
C63 C 0.97328 0.79383 0.22306 0.0
N64 N 0.04692 0.77784 0.21046 0.0
C65 C 0.03884 0.80053 0.23644 0.0
C66 C 0.06844 0.81312 0.25707 0.0
C67 C 0.09635 0.79909 0.24256 0.0
C68 C 0.08225 0.77844 0.21437 0.0
N69 N 0.05703 0.73366 0.14954 0.0
C70 C 0.09137 0.74204 0.15843 0.0
C71 C 0.11365 0.72531 0.1375 0.0
C72 C 0.09225 0.70454 0.11421 0.0
C73 C 0.05806 0.70995 0.12233 0.0
N74 N 0.01751 0.79151 0.14385 0.0
C75 C 0.01835 0.85183 0.1051 0.0
C76 C 0.04883 0.84283 0.12256 0.0
C77 C 0.04789 0.81264 0.14145 0.0
C78 C 0.9877 0.82988 0.10698 0.0
C79 C 0.98786 0.80025 0.1263 0.0
N80 N 0.0137 0.70972 0.20366 0.0
C81 C 0.04222 0.66949 0.23987 0.0
C82 C 0.00995 0.65168 0.24639 0.0
C83 C 0.97975 0.66332 0.23073 0.0
C84 C 0.98219 0.69199 0.2098 0.0
C85 C 0.04351 0.69803 0.21841 0.0
H86 H 0.95808 0.69947 0.19914 0.0
H87 H 0.06892 0.71023 0.21423 0.0
H88 H 0.07194 0.80708 0.15417 0.0
H89 H 0.96342 0.78517 0.12702 0.0
C90 C 0.92942 0.73867 0.15838 0.0
C91 C 0.02743 0.68986 0.1058 0.0
C92 C 0.00415 0.81278 0.24088 0.0
C93 C 0.10169 0.76224 0.18908 0.0
H94 H 0.96179 0.66699 0.06985 0.0
H95 H 0.90727 0.6927 0.09932 0.0
H96 H 0.88948 0.77934 0.20292 0.0
H97 H 0.93037 0.82093 0.24696 0.0
H98 H 0.06993 0.83149 0.27957 0.0
H99 H 0.12377 0.80439 0.25074 0.0
H100 H 0.14201 0.72671 0.14002 0.0
H101 H 0.10089 0.68653 0.09445 0.0
H102 H 0.07336 0.85883 0.12146 0.0
H103 H 0.96333 0.8359 0.0942 0.0
H104 H 0.06642 0.66148 0.25122 0.0
H105 H 0.95396 0.65106 0.23542 0.0
C106 C 0.33635 0.97134 0.29061 0.0
C107 C 0.34212 0.93783 0.29906 0.0
C108 C 0.32516 0.91623 0.27325 0.0
C109 C 0.31024 0.93767 0.25051 0.0
N110 N 0.31725 0.97174 0.2598 0.0
Co111 Co 0.29951 0.01175 0.23501 0.0
N112 N 0.26827 0.97977 0.2019 0.0
C113 C 0.26386 0.94479 0.20203 0.0
C114 C 0.24094 0.92981 0.17595 0.0
C115 C 0.23026 0.95679 0.15785 0.0
C116 C 0.24754 0.9868 0.17391 0.0
N117 N 0.28278 0.05168 0.20951 0.0
C118 C 0.26155 0.05184 0.18009 0.0
C119 C 0.25881 0.08523 0.16934 0.0
C120 C 0.27929 0.10693 0.19262 0.0
C121 C 0.29339 0.08564 0.21607 0.0
N122 N 0.32973 0.04346 0.26932 0.0
C123 C 0.33363 0.07847 0.26994 0.0
C124 C 0.35316 0.09335 0.29861 0.0
C125 C 0.3615 0.0663 0.31801 0.0
C126 C 0.34669 0.0363 0.29986 0.0
N127 N 0.33785 0.01044 0.20103 0.0
C128 C 0.37847 0.01323 0.14043 0.0
C129 C 0.3783 0.04201 0.16404 0.0
C130 C 0.35832 0.03995 0.19412 0.0
C131 C 0.36004 0.98233 0.14932 0.0
C132 C 0.34072 0.98138 0.17975 0.0
N133 N 0.26081 0.01356 0.26813 0.0
C134 C 0.22356 0.04639 0.30461 0.0
C135 C 0.20858 0.01601 0.31796 0.0
C136 C 0.21938 0.98442 0.3055 0.0
C137 C 0.24504 0.98374 0.28046 0.0
C138 C 0.24974 0.04462 0.28001 0.0
H139 H 0.25197 0.9588 0.27171 0.0
H140 H 0.26094 0.0687 0.27133 0.0
H141 H 0.35921 0.06284 0.21088 0.0
H142 H 0.32737 0.95703 0.18479 0.0
C143 C 0.28459 0.9266 0.22432 0.0
C144 C 0.34801 0.00178 0.31353 0.0
C145 C 0.24388 0.02119 0.16113 0.0
C146 C 0.31655 0.09664 0.24454 0.0
H147 H 0.35593 0.92975 0.32223 0.0
H148 H 0.32218 0.8882 0.27242 0.0
H149 H 0.23383 0.90247 0.17001 0.0
H150 H 0.21239 0.95451 0.1349 0.0
H151 H 0.2439 0.09299 0.14671 0.0
H152 H 0.2837 0.13484 0.19224 0.0
H153 H 0.35935 0.12069 0.30537 0.0
H154 H 0.37588 0.06849 0.34325 0.0
H155 H 0.39349 0.06612 0.15941 0.0
H156 H 0.35963 0.95898 0.13243 0.0
H157 H 0.21572 0.07136 0.3137 0.0
H158 H 0.20799 0.96026 0.31507 0.0
C159 C 0.6349 0.48091 0.20445 0.0
C160 C 0.61538 0.45177 0.18924 0.0
C161 C 0.63053 0.42377 0.20124 0.0
C162 C 0.65826 0.43747 0.22295 0.0
N163 N 0.66121 0.47247 0.22625 0.0
Co164 Co 0.69885 0.50325 0.25301 0.0
N165 N 0.72211 0.4622 0.2697 0.0
C166 C 0.71126 0.42834 0.26277 0.0
C167 C 0.73043 0.40617 0.28081 0.0
C168 C 0.75457 0.42709 0.30109 0.0
C169 C 0.7489 0.46095 0.29386 0.0
N170 N 0.73726 0.534 0.2783 0.0
C171 C 0.76443 0.52568 0.29901 0.0
C172 C 0.78675 0.55482 0.30969 0.0
C173 C 0.77226 0.58261 0.29636 0.0
C174 C 0.74237 0.5689 0.27797 0.0
N175 N 0.67454 0.54422 0.23806 0.0
C176 C 0.6839 0.57799 0.24718 0.0
C177 C 0.66206 0.60012 0.23259 0.0
C178 C 0.6376 0.57927 0.21257 0.0
C179 C 0.64605 0.54552 0.21615 0.0
N180 N 0.67118 0.50266 0.29642 0.0
C181 C 0.63352 0.50182 0.35916 0.0
C182 C 0.65375 0.53158 0.35016 0.0
C183 C 0.67207 0.53148 0.31897 0.0
C184 C 0.63259 0.47243 0.33612 0.0
C185 C 0.6515 0.47336 0.30526 0.0
N186 N 0.72705 0.5042 0.2097 0.0
C187 C 0.76064 0.53698 0.16765 0.0
C188 C 0.77441 0.50718 0.15394 0.0
C189 C 0.76193 0.47546 0.16709 0.0
C190 C 0.73826 0.47454 0.19447 0.0
C191 C 0.73731 0.53495 0.19511 0.0
H192 H 0.73009 0.44959 0.20348 0.0
H193 H 0.72865 0.55891 0.20457 0.0
H194 H 0.68682 0.55512 0.31366 0.0
H195 H 0.64994 0.44999 0.28905 0.0
C196 C 0.68195 0.41828 0.24052 0.0
C197 C 0.62909 0.51596 0.19526 0.0
C198 C 0.76839 0.49119 0.31155 0.0
C199 C 0.7163 0.5882 0.26441 0.0
H200 H 0.5931 0.45097 0.17067 0.0
H201 H 0.62272 0.39671 0.19441 0.0
H202 H 0.72654 0.37817 0.28021 0.0
H203 H 0.77355 0.41834 0.31972 0.0
H204 H 0.81037 0.55604 0.32649 0.0
H205 H 0.78155 0.60968 0.30091 0.0
H206 H 0.66484 0.62816 0.23451 0.0
H207 H 0.61697 0.58811 0.19593 0.0
H208 H 0.65497 0.55521 0.36675 0.0
H209 H 0.61759 0.44858 0.342 0.0
H210 H 0.76843 0.56212 0.15783 0.0
H211 H 0.77151 0.45143 0.15752 0.0
C212 C 0.31616 0.365 0.98574 0.0
C213 C 0.31884 0.38118 0.95402 0.0
C214 C 0.29912 0.36025 0.92932 0.0
C215 C 0.28425 0.3336 0.94771 0.0
N216 N 0.29223 0.33709 0.98269 0.0
Co217 Co 0.27171 0.30823 0.02031 0.0
N218 N 0.2476 0.27397 0.98433 0.0
C219 C 0.2497 0.27445 0.94882 0.0
C220 C 0.23092 0.24688 0.93099 0.0
C221 C 0.2156 0.22797 0.95656 0.0
C222 C 0.22557 0.24543 0.98869 0.0
N223 N 0.25057 0.28017 0.05825 0.0
C224 C 0.22662 0.25222 0.0556 0.0
C225 C 0.216 0.24282 0.08868 0.0
C226 C 0.234 0.26545 0.11292 0.0
C227 C 0.25423 0.28761 0.0935 0.0
N228 N 0.29694 0.34232 0.05577 0.0
C229 C 0.29356 0.3439 0.09098 0.0
C230 C 0.31027 0.37332 0.10752 0.0
C231 C 0.32665 0.39054 0.08131 0.0
C232 C 0.32059 0.36952 0.05066 0.0
N233 N 0.22918 0.33517 0.01984 0.0
C234 C 0.16459 0.36634 0.01912 0.0
C235 C 0.18397 0.36336 0.05064 0.0
C236 C 0.21586 0.34807 0.05037 0.0
C237 C 0.17874 0.35421 0.98796 0.0
C238 C 0.21043 0.33885 0.98893 0.0
N239 N 0.31317 0.28073 0.02076 0.0
C240 C 0.35341 0.24632 0.05154 0.0
C241 C 0.36791 0.23658 0.0198 0.0
C242 C 0.35543 0.25013 0.98882 0.0
C243 C 0.32823 0.27187 0.98983 0.0
C244 C 0.32652 0.26877 0.0515 0.0
H245 H 0.31952 0.28103 0.96521 0.0
H246 H 0.31672 0.27608 0.07654 0.0
H247 H 0.22873 0.34659 0.0754 0.0
H248 H 0.21876 0.32976 0.96415 0.0
C249 C 0.26598 0.30315 0.93293 0.0
C250 C 0.3387 0.37425 0.01753 0.0
C251 C 0.21203 0.23501 0.02238 0.0
C252 C 0.27436 0.31738 0.10736 0.0
H253 H 0.33494 0.40457 0.94887 0.0
H254 H 0.29705 0.36339 0.90117 0.0
H255 H 0.22766 0.24182 0.90272 0.0
H256 H 0.19823 0.20452 0.95193 0.0
H257 H 0.19639 0.2225 0.09485 0.0
H258 H 0.23146 0.26655 0.14124 0.0
H259 H 0.31053 0.3813 0.13525 0.0
H260 H 0.34167 0.4155 0.08462 0.0
H261 H 0.17445 0.37227 0.07567 0.0
H262 H 0.16566 0.35677 0.96254 0.0
H263 H 0.36292 0.23688 0.0762 0.0
H264 H 0.36634 0.24351 0.96372 0.0
C265 C 0.19049 0.63457 0.47305 0.0
C266 C 0.18486 0.61625 0.44073 0.0
C267 C 0.20641 0.6327 0.41786 0.0
C268 C 0.22391 0.65988 0.43753 0.0
N269 N 0.21534 0.66135 0.47175 0.0
Co270 Co 0.23365 0.69658 0.50977 0.0
N271 N 0.26011 0.72458 0.47479 0.0
C272 C 0.26073 0.71779 0.4395 0.0
C273 C 0.28164 0.74156 0.42255 0.0
C274 C 0.29542 0.76483 0.44854 0.0
C275 C 0.28201 0.7538 0.47996 0.0
N276 N 0.25282 0.73125 0.54795 0.0
C277 C 0.27623 0.75927 0.54623 0.0
C278 C 0.28374 0.7759 0.57923 0.0
C279 C 0.26484 0.75732 0.60272 0.0
C280 C 0.24692 0.73059 0.58283 0.0
N281 N 0.20613 0.66902 0.54434 0.0
C282 C 0.20498 0.67577 0.57954 0.0
C283 C 0.18154 0.65363 0.59569 0.0
C284 C 0.16611 0.63196 0.56907 0.0
C285 C 0.18128 0.64216 0.5382 0.0
N286 N 0.2753 0.66993 0.51835 0.0
C287 C 0.33695 0.63637 0.53122 0.0
C288 C 0.31456 0.64319 0.55837 0.0
C289 C 0.2843 0.66003 0.55148 0.0
C290 C 0.32775 0.6462 0.49747 0.0
C291 C 0.29697 0.66242 0.49161 0.0
N292 N 0.19236 0.72352 0.50139 0.0
C293 C 0.1478 0.75886 0.52331 0.0
C294 C 0.13569 0.76443 0.48897 0.0
C295 C 0.15202 0.74819 0.46107 0.0
C296 C 0.17985 0.72799 0.46779 0.0
C297 C 0.17583 0.73847 0.52888 0.0
H298 H 0.19125 0.71664 0.44533 0.0
H299 H 0.18391 0.73541 0.55566 0.0
H300 H 0.26878 0.66489 0.57351 0.0
H301 H 0.29141 0.66861 0.46514 0.0
C302 C 0.24429 0.68708 0.42364 0.0
C303 C 0.16963 0.62746 0.50337 0.0
C304 C 0.29232 0.77081 0.51418 0.0
C305 C 0.2245 0.7045 0.59614 0.0
H306 H 0.16604 0.59418 0.43412 0.0
H307 H 0.20768 0.62674 0.38982 0.0
H308 H 0.28723 0.74129 0.39482 0.0
H309 H 0.31405 0.78686 0.44489 0.0
H310 H 0.30132 0.79891 0.58572 0.0
H311 H 0.26447 0.7625 0.63097 0.0
H312 H 0.17539 0.65409 0.62328 0.0
H313 H 0.14526 0.61173 0.5719 0.0
H314 H 0.3205 0.63583 0.58496 0.0
H315 H 0.34381 0.64066 0.47538 0.0
H316 H 0.1359 0.77036 0.54593 0.0
H317 H 0.14429 0.75192 0.43389 0.0
C318 C 0.79213 0.83093 0.45903 0.0
C319 C 0.79981 0.84006 0.42507 0.0
C320 C 0.77498 0.82229 0.40289 0.0
C321 C 0.75361 0.80357 0.42446 0.0
N322 N 0.76259 0.80897 0.45922 0.0
Co323 Co 0.74024 0.78505 0.49952 0.0
N324 N 0.70741 0.75467 0.46637 0.0
C325 C 0.70503 0.75545 0.43077 0.0
C326 C 0.67749 0.73452 0.4153 0.0
C327 C 0.66085 0.71982 0.44261 0.0
C328 C 0.67957 0.73237 0.47335 0.0
N329 N 0.71855 0.76078 0.53974 0.0
C330 C 0.69114 0.73623 0.53965 0.0
C331 C 0.68505 0.72572 0.57354 0.0
C332 C 0.70837 0.74547 0.59586 0.0
C333 C 0.72764 0.76645 0.57446 0.0
N334 N 0.77292 0.81588 0.53239 0.0
C335 C 0.77366 0.81719 0.56807 0.0
C336 C 0.80052 0.83924 0.5834 0.0
C337 C 0.81846 0.85226 0.55592 0.0
C338 C 0.80137 0.83743 0.52523 0.0
N339 N 0.70364 0.8189 0.50232 0.0
C340 C 0.64026 0.85181 0.50577 0.0
C341 C 0.65916 0.84455 0.53645 0.0
C342 C 0.69073 0.82881 0.53413 0.0
C343 C 0.6556 0.845 0.47351 0.0
C344 C 0.68693 0.82887 0.47241 0.0
N345 N 0.77596 0.75062 0.49713 0.0
C346 C 0.81885 0.71765 0.52601 0.0
C347 C 0.82808 0.70346 0.49364 0.0
C348 C 0.81059 0.71284 0.46306 0.0
C349 C 0.7845 0.73594 0.4654 0.0
C350 C 0.79319 0.74128 0.52713 0.0
H351 H 0.7718 0.74187 0.4412 0.0
H352 H 0.78814 0.752 0.55256 0.0
H353 H 0.70356 0.82387 0.55852 0.0
H354 H 0.69655 0.8239 0.44691 0.0
C355 C 0.72691 0.77847 0.41277 0.0
C356 C 0.81446 0.84269 0.49003 0.0
C357 C 0.66892 0.72376 0.50858 0.0
C358 C 0.75264 0.79338 0.58621 0.0
H359 H 0.82171 0.85699 0.41703 0.0
H360 H 0.77355 0.82194 0.37434 0.0
H361 H 0.66949 0.73157 0.38758 0.0
H362 H 0.63689 0.70278 0.44006 0.0
H363 H 0.66523 0.70643 0.58156 0.0
H364 H 0.71032 0.74526 0.62437 0.0
H365 H 0.80758 0.84361 0.61124 0.0
H366 H 0.84233 0.86947 0.55829 0.0
H367 H 0.64925 0.84989 0.56227 0.0
H368 H 0.64341 0.85177 0.44889 0.0
H369 H 0.83207 0.7113 0.55028 0.0
H370 H 0.81704 0.70236 0.43739 0.0
C371 C 0.49611 0.83117 0.84349 0.0
C372 C 0.46529 0.84245 0.8562 0.0
C373 C 0.43907 0.81747 0.84609 0.0
C374 C 0.45528 0.7924 0.82803 0.0
N375 N 0.49048 0.79918 0.82699 0.0
Co376 Co 0.52372 0.77111 0.80064 0.0
N377 N 0.48412 0.73876 0.77885 0.0
C378 C 0.44988 0.73833 0.78652 0.0
C379 C 0.42892 0.71189 0.76926 0.0
C380 C 0.4511 0.69401 0.74966 0.0
C381 C 0.48446 0.71077 0.75602 0.0
N382 N 0.55681 0.74426 0.77296 0.0
C383 C 0.55032 0.71645 0.74981 0.0
C384 C 0.58113 0.70626 0.73605 0.0
C385 C 0.608 0.72791 0.75159 0.0
C386 C 0.59217 0.75024 0.77363 0.0
N387 N 0.56296 0.80334 0.82317 0.0
C388 C 0.59769 0.80024 0.8207 0.0
C389 C 0.61837 0.82794 0.83616 0.0
C390 C 0.59554 0.85035 0.84853 0.0
C391 C 0.56194 0.83495 0.84019 0.0
N392 N 0.52739 0.73878 0.83987 0.0
C393 C 0.52544 0.67853 0.87918 0.0
C394 C 0.55608 0.69088 0.86331 0.0
C395 C 0.5567 0.72122 0.84472 0.0
C396 C 0.49737 0.69941 0.87856 0.0
C397 C 0.49894 0.72916 0.85913 0.0
N398 N 0.52034 0.80226 0.76141 0.0
C399 C 0.54801 0.84147 0.72115 0.0
C400 C 0.51536 0.85086 0.70988 0.0
C401 C 0.4852 0.83476 0.72359 0.0
C402 C 0.48824 0.81039 0.74898 0.0
C403 C 0.54992 0.81723 0.747 0.0
H404 H 0.46442 0.79894 0.75884 0.0
H405 H 0.57557 0.81159 0.75552 0.0
H406 H 0.58094 0.72909 0.83351 0.0
H407 H 0.47637 0.74327 0.85944 0.0
C408 C 0.43801 0.76365 0.80928 0.0
C409 C 0.52987 0.85216 0.84681 0.0
C410 C 0.51576 0.69808 0.74111 0.0
C411 C 0.60967 0.77564 0.79698 0.0
H412 H 0.46186 0.86665 0.87048 0.0
H413 H 0.4113 0.81819 0.85011 0.0
H414 H 0.40086 0.70617 0.77091 0.0
H415 H 0.44362 0.67091 0.73302 0.0
H416 H 0.58396 0.68497 0.71719 0.0
H417 H 0.63579 0.72704 0.7478 0.0
H418 H 0.64664 0.83266 0.83581 0.0
H419 H 0.60294 0.87591 0.86057 0.0
H420 H 0.57917 0.67665 0.86389 0.0
H421 H 0.47379 0.69257 0.89245 0.0
H422 H 0.57187 0.85353 0.71094 0.0
H423 H 0.45938 0.84138 0.71506 0.0
C424 C 0.55085 0.31912 0.65655 0.0
C425 C 0.58159 0.33375 0.64308 0.0
C426 C 0.60769 0.31415 0.65344 0.0
C427 C 0.59148 0.28866 0.6724 0.0
N428 N 0.55647 0.29037 0.67423 0.0
Co429 Co 0.5231 0.25929 0.70048 0.0
N430 N 0.56243 0.23463 0.72145 0.0
C431 C 0.59693 0.24018 0.71493 0.0
C432 C 0.6177 0.21865 0.73194 0.0
C433 C 0.59525 0.19824 0.75073 0.0
C434 C 0.5619 0.20871 0.74434 0.0
N435 N 0.48974 0.22802 0.72674 0.0
C436 C 0.49598 0.20322 0.74983 0.0
C437 C 0.46487 0.18857 0.76265 0.0
C438 C 0.43823 0.20403 0.74676 0.0
C439 C 0.4543 0.22746 0.72545 0.0
N440 N 0.48384 0.28446 0.68011 0.0
C441 C 0.44911 0.27767 0.68495 0.0
C442 C 0.42868 0.30111 0.67062 0.0
C443 C 0.45172 0.32475 0.65633 0.0
C444 C 0.48507 0.31414 0.66247 0.0
N445 N 0.51828 0.22509 0.65961 0.0
C446 C 0.51029 0.16893 0.60972 0.0
C447 C 0.48121 0.1848 0.6212 0.0
C448 C 0.48577 0.21252 0.64596 0.0
C449 C 0.54363 0.18361 0.62093 0.0
C450 C 0.54698 0.21181 0.64541 0.0
N451 N 0.52768 0.2935 0.74068 0.0
C452 C 0.50016 0.33391 0.77823 0.0
C453 C 0.53271 0.35151 0.78818 0.0
C454 C 0.56289 0.33817 0.7754 0.0
C455 C 0.55978 0.30943 0.75168 0.0
C456 C 0.49839 0.30465 0.75544 0.0
H457 H 0.58353 0.30091 0.74196 0.0
H458 H 0.47292 0.29206 0.74931 0.0
H459 H 0.46238 0.22245 0.65424 0.0
H460 H 0.57304 0.22156 0.65309 0.0
C461 C 0.60889 0.26532 0.692 0.0
C462 C 0.5172 0.33401 0.65266 0.0
C463 C 0.53075 0.19326 0.76093 0.0
C464 C 0.43693 0.25093 0.70593 0.0
H465 H 0.58497 0.35673 0.62808 0.0
H466 H 0.63541 0.3188 0.64894 0.0
H467 H 0.6458 0.21774 0.73064 0.0
H468 H 0.60261 0.17785 0.76722 0.0
H469 H 0.46148 0.1691 0.78193 0.0
H470 H 0.41045 0.19936 0.75094 0.0
H471 H 0.40055 0.30184 0.67186 0.0
H472 H 0.44469 0.34784 0.64392 0.0
H473 H 0.45484 0.17507 0.61212 0.0
H474 H 0.56702 0.17245 0.61231 0.0
H475 H 0.4759 0.34281 0.78737 0.0
H476 H 0.5889 0.34971 0.78352 0.0
C477 C 0.84429 0.47661 0.81068 0.0
C478 C 0.85096 0.44438 0.82242 0.0
C479 C 0.83109 0.42035 0.80113 0.0
C480 C 0.81364 0.43917 0.77766 0.0
N481 N 0.82163 0.47379 0.78213 0.0
Co482 Co 0.80096 0.51077 0.75483 0.0
N483 N 0.76691 0.4757 0.72809 0.0
C484 C 0.76354 0.44107 0.73188 0.0
C485 C 0.7401 0.42318 0.70804 0.0
C486 C 0.72781 0.44774 0.68762 0.0
C487 C 0.74422 0.47947 0.70051 0.0
N488 N 0.78096 0.54758 0.72695 0.0
C489 C 0.75599 0.54486 0.70035 0.0
C490 C 0.74976 0.5773 0.68865 0.0
C491 C 0.77255 0.60097 0.70733 0.0
C492 C 0.79105 0.58197 0.72968 0.0
N493 N 0.83441 0.54565 0.7825 0.0
C494 C 0.83791 0.5803 0.7791 0.0
C495 C 0.86081 0.59791 0.80371 0.0
C496 C 0.87204 0.57315 0.82466 0.0
C497 C 0.85536 0.54171 0.81148 0.0
N498 N 0.83536 0.50544 0.71728 0.0
C499 C 0.87112 0.50041 0.65377 0.0
C500 C 0.87069 0.53213 0.67266 0.0
C501 C 0.85328 0.53395 0.70432 0.0
C502 C 0.8555 0.47087 0.66861 0.0
C503 C 0.83825 0.4739 0.70027 0.0
N504 N 0.76628 0.51671 0.79179 0.0
C505 C 0.73493 0.55439 0.8296 0.0
C506 C 0.72245 0.52649 0.8486 0.0
C507 C 0.73105 0.49338 0.83803 0.0
C508 C 0.7524 0.48901 0.80935 0.0
C509 C 0.7569 0.54902 0.80171 0.0
H510 H 0.75781 0.46313 0.80215 0.0
H511 H 0.76645 0.5716 0.78911 0.0
H512 H 0.85397 0.5589 0.71732 0.0
H513 H 0.82658 0.45048 0.70988 0.0
C514 C 0.78605 0.42556 0.75473 0.0
C515 C 0.85888 0.50911 0.82847 0.0
C516 C 0.73812 0.51225 0.68496 0.0
C517 C 0.81732 0.59575 0.75426 0.0
H518 H 0.86751 0.43886 0.84483 0.0
H519 H 0.82826 0.39258 0.80368 0.0
H520 H 0.73401 0.39541 0.70475 0.0
H521 H 0.70961 0.4426 0.66508 0.0
H522 H 0.7308 0.58353 0.66864 0.0
H523 H 0.77524 0.62876 0.70497 0.0
H524 H 0.86744 0.62562 0.80692 0.0
H525 H 0.88963 0.57784 0.84774 0.0
H526 H 0.88374 0.55554 0.66311 0.0
H527 H 0.85563 0.4455 0.6554 0.0
H528 H 0.72869 0.58041 0.83695 0.0
H529 H 0.72132 0.47097 0.85187 0.0
C530 C 0.16591 0.04253 0.78848 0.0
C531 C 0.15767 0.07489 0.80113 0.0
C532 C 0.16893 0.09803 0.77715 0.0
C533 C 0.18342 0.07864 0.75135 0.0
N534 N 0.18149 0.04438 0.75697 0.0
Co535 Co 0.20246 0.0077 0.72745 0.0
N536 N 0.22218 0.0423 0.69421 0.0
C537 C 0.21503 0.07578 0.69337 0.0
C538 C 0.22943 0.09268 0.66581 0.0
C539 C 0.24692 0.0686 0.64799 0.0
C540 C 0.24258 0.03834 0.66603 0.0
N541 N 0.22589 0.97155 0.69947 0.0
C542 C 0.24882 0.9747 0.67298 0.0
C543 C 0.26136 0.94307 0.66382 0.0
C544 C 0.24544 0.91919 0.68462 0.0
C545 C 0.22457 0.93746 0.70569 0.0
N546 N 0.18094 0.97284 0.7594 0.0
C547 C 0.18141 0.93808 0.75551 0.0
C548 C 0.16498 0.92062 0.78164 0.0
C549 C 0.15351 0.94573 0.80364 0.0
C550 C 0.16358 0.97729 0.78962 0.0
N551 N 0.15978 0.00028 0.69579 0.0
C552 C 0.11017 0.99483 0.63915 0.0
C553 C 0.12717 0.9661 0.64875 0.0
C554 C 0.15148 0.96928 0.67723 0.0
C555 C 0.11532 0.02504 0.6608 0.0
C556 C 0.13971 0.027 0.68911 0.0
N557 N 0.24467 0.01525 0.75877 0.0
C558 C 0.28291 0.9952 0.80379 0.0
C559 C 0.29935 0.02862 0.80992 0.0
C560 C 0.28915 0.05477 0.78872 0.0
C561 C 0.26183 0.04762 0.76362 0.0
C562 C 0.25604 0.98902 0.77787 0.0
H563 H 0.25455 0.06881 0.74886 0.0
H564 H 0.24435 0.96303 0.77422 0.0
H565 H 0.16398 0.94661 0.68282 0.0
H566 H 0.14261 0.05095 0.70417 0.0
C567 C 0.19799 0.09146 0.72092 0.0
C568 C 0.15756 0.01075 0.80691 0.0
C569 C 0.25943 0.00702 0.65595 0.0
C570 C 0.20273 0.92333 0.73096 0.0
H571 H 0.14475 0.08117 0.82515 0.0
H572 H 0.16683 0.1257 0.7784 0.0
H573 H 0.22813 0.11956 0.6599 0.0
H574 H 0.26169 0.07297 0.62465 0.0
H575 H 0.28018 0.93754 0.64431 0.0
H576 H 0.24887 0.89179 0.68452 0.0
H577 H 0.16333 0.89305 0.78539 0.0
H578 H 0.14037 0.94133 0.82795 0.0
H579 H 0.12264 0.94157 0.63368 0.0
H580 H 0.10215 0.04782 0.65491 0.0
H581 H 0.29015 0.97403 0.81931 0.0
H582 H 0.30207 0.08079 0.79145 0.0
C583 C 0.72454 0.16816 0.97186 0.0
C584 C 0.71606 0.15712 0.93704 0.0
C585 C 0.73288 0.18081 0.91663 0.0
C586 C 0.75075 0.20465 0.94012 0.0
N587 N 0.74678 0.19724 0.97425 0.0
Co588 Co 0.7681 0.22441 0.01711 0.0
N589 N 0.78818 0.26192 0.98759 0.0
C590 C 0.78214 0.26489 0.95257 0.0
C591 C 0.79906 0.29404 0.93994 0.0
C592 C 0.81744 0.3103 0.96847 0.0
C593 C 0.81093 0.28977 0.99687 0.0
N594 N 0.7914 0.25051 0.05974 0.0
C595 C 0.81624 0.27765 0.06166 0.0
C596 C 0.82964 0.28486 0.09607 0.0
C597 C 0.81251 0.26162 0.11655 0.0
C598 C 0.7902 0.24127 0.09359 0.0
N599 N 0.7463 0.18773 0.04676 0.0
C600 C 0.74852 0.18699 0.08232 0.0
C601 C 0.72803 0.16037 0.09549 0.0
C602 C 0.71094 0.1435 0.06666 0.0
C603 C 0.72236 0.16078 0.03741 0.0
N604 N 0.81105 0.19945 0.01227 0.0
C605 C 0.87179 0.16401 0.00351 0.0
C606 C 0.85417 0.16306 0.03512 0.0
C607 C 0.82405 0.18094 0.03895 0.0
C608 C 0.85916 0.18405 0.97709 0.0
C609 C 0.82903 0.20107 0.98182 0.0
N610 N 0.72518 0.24978 0.02164 0.0
C611 C 0.68703 0.28341 0.0564 0.0
C612 C 0.66826 0.2916 0.02596 0.0
C613 C 0.67745 0.27687 0.99369 0.0
C614 C 0.70553 0.25634 0.99215 0.0
C615 C 0.71496 0.26232 0.05371 0.0
H616 H 0.71135 0.24698 0.96645 0.0
H617 H 0.72834 0.25709 0.07782 0.0
H618 H 0.81148 0.17912 0.06351 0.0
H619 H 0.8207 0.21518 0.96016 0.0
C620 C 0.76593 0.23705 0.93146 0.0
C621 C 0.70791 0.15255 0.00165 0.0
C622 C 0.8288 0.29622 0.03142 0.0
C623 C 0.76945 0.21211 0.10266 0.0
H624 H 0.69812 0.13524 0.92754 0.0
H625 H 0.73051 0.18174 0.8882 0.0
H626 H 0.79966 0.30152 0.91286 0.0
H627 H 0.83482 0.3338 0.96807 0.0
H628 H 0.85043 0.30413 0.1055 0.0
H629 H 0.81686 0.25895 0.14459 0.0
H630 H 0.72505 0.15456 0.12286 0.0
H631 H 0.69152 0.12165 0.0675 0.0
H632 H 0.86282 0.14773 0.05634 0.0
H633 H 0.87218 0.18622 0.95237 0.0
H634 H 0.68068 0.29376 0.08214 0.0
H635 H 0.66431 0.28259 0.96916 0.0
O636 O 0.05842 0.06378 0.10449 0.0
Mg637 Mg 0.07531 0.05259 0.05264 0.0
O638 O 0.03723 0.09267 0.06308 0.0
Mg639 Mg 0.06251 0.05754 0.01508 0.0
O640 O 0.12323 0.04638 0.03987 0.0
O641 O 0.0981 0.01017 0.07464 0.0
O642 O 0.08531 0.03364 0.96154 0.0
O643 O 0.03969 0.002 0.03447 0.0
Mg644 Mg 0.00677 0.01861 0.96612 0.0
O645 O 0.00688 0.06743 0.9909 0.0
O646 O 0.04073 0.0151 0.92495 0.0
O647 O -0.0009 0.97555 0.99771 0.0
O648 O 0.96357 0.04269 0.95415 0.0
C649 C 0.10497 0.12142 0.02555 0.0
C650 C 0.04128 0.08846 0.09591 0.0
C651 C 0.12643 0.02378 0.06291 0.0
C652 C 0.07339 0.02158 0.93088 0.0
C653 C 0.01792 0.97591 0.02585 0.0
C654 C 0.97616 0.06845 0.97499 0.0
O655 O 0.10429 0.10391 0.05286 0.0
O656 O 0.08629 0.10972 0.99859 0.0
O657 O 6e-05 0.49502 0.11947 0.0
Mg658 Mg 0.95627 0.47418 0.08647 0.0
O659 O 0.01016 0.45597 0.07977 0.0
Mg660 Mg 0.97459 0.47719 0.03324 0.0
O661 O 0.91953 0.4973 0.05923 0.0
O662 O 0.91764 0.48684 0.11691 0.0
O663 O 0.94617 0.4924 0.97946 0.0
O664 O 8e-05 0.53244 0.04628 0.0
Mg665 Mg 0.02971 0.50271 0.97752 0.0
O666 O 0.0251 0.46038 0.00768 0.0
O667 O 0.98767 0.50128 0.94088 0.0
O668 O 0.04075 0.54912 0.00926 0.0
O669 O 0.06759 0.46915 0.9697 0.0
C670 C 0.93937 0.40559 0.05007 0.0
C671 C 0.0171 0.46992 0.11046 0.0
C672 C 0.90335 0.49788 0.08902 0.0
C673 C 0.95556 0.49854 0.94807 0.0
C674 C 0.0234 0.55494 0.03636 0.0
C675 C 0.05334 0.45076 0.99358 0.0
O676 O 0.94565 0.41936 0.08084 0.0
O677 O 0.9474 0.42275 0.02343 0.0
O678 O 0.10801 0.96007 0.43152 0.0
Mg679 Mg 0.06606 0.92503 0.411 0.0
O680 O 0.06806 0.98321 0.40152 0.0
Mg681 Mg 0.0185 0.95069 0.42704 0.0
O682 O 0.04064 0.8954 0.44605 0.0
O683 O 0.08546 0.87918 0.41437 0.0
O684 O 0.96527 0.92436 0.44944 0.0
O685 O 0.03898 0.97263 0.48192 0.0
Mg686 Mg 0.97197 0.00404 0.45817 0.0
O687 O 0.9974 0.00352 0.41168 0.0
O688 O 0.93089 0.96604 0.46104 0.0
O689 O 0.00621 0.01225 0.50323 0.0
O690 O 0.96256 0.04445 0.42837 0.0
C691 C 0.01897 0.91933 0.34879 0.0
C692 C 0.1002 0.98343 0.41165 0.0
C693 C 0.06338 0.87314 0.43838 0.0
C694 C 0.93577 0.93424 0.45904 0.0
C695 C 0.03215 0.99431 0.5064 0.0
C696 C 0.98364 0.0325 0.40606 0.0
O697 O 0.0516 0.92308 0.35595 0.0
O698 O -0.00182 0.92582 0.37297 0.0
O699 O 0.95045 0.61831 0.43769 0.0
Mg700 Mg 0.93727 0.57139 0.40864 0.0
O701 O 0.92816 0.57688 0.46827 0.0
Mg702 Mg 0.95882 0.52979 0.43946 0.0
O703 O 0.97724 0.55265 0.38231 0.0
O704 O 0.93748 0.58496 0.35846 0.0
O705 O 0.98589 0.48056 0.41143 0.0
O706 O 0.01136 0.55862 0.46185 0.0
Mg707 Mg 0.98526 0.48814 0.47903 0.0
O708 O 0.94115 0.50886 0.49641 0.0
O709 O 0.98064 0.44147 0.45072 0.0
O710 O 0.03524 0.5149 0.48425 0.0
O711 O 0.97451 0.47546 0.52784 0.0
C712 C 0.88079 0.51711 0.40931 0.0
C713 C 0.9325 0.60935 0.46324 0.0
C714 C 0.96603 0.57012 0.3562 0.0
C715 C 0.98771 0.44908 0.4199 0.0
C716 C 0.03765 0.54619 0.47642 0.0
C717 C 0.94736 0.49261 0.5251 0.0
O718 O 0.88434 0.54972 0.41028 0.0
O719 O 0.90753 0.50101 0.41554 0.0
O720 O 0.42913 0.93983 0.62674 0.0
Mg721 Mg 0.38732 0.95564 0.59766 0.0
O722 O 0.46493 0.9439 0.58268 0.0
Mg723 Mg 0.43963 0.95969 0.52927 0.0
O724 O 0.38805 0.98149 0.55141 0.0
O725 O 0.40994 0.00835 0.60005 0.0
O726 O 0.41567 0.97295 0.47205 0.0
O727 O 0.4661 0.01491 0.54142 0.0
Mg728 Mg 0.49526 0.98087 0.48242 0.0
O729 O 0.49246 0.93606 0.50976 0.0
O730 O 0.4613 0.9828 0.43916 0.0
O731 O 0.51175 0.02807 0.5098 0.0
O732 O 0.5344 0.95157 0.47192 0.0
C733 C 0.38346 0.89373 0.53874 0.0
C734 C 0.45909 0.93773 0.61467 0.0
C735 C 0.38547 0.00501 0.57617 0.0
C736 C 0.4285 0.97998 0.4422 0.0
C737 C 0.49157 0.03614 0.53375 0.0
C738 C 0.52155 0.93032 0.49413 0.0
O739 O 0.37191 0.90935 0.56558 0.0
O740 O 0.40954 0.90612 0.5219 0.0
O741 O 0.56173 0.57179 0.65737 0.0
Mg742 Mg 0.5802 0.57985 0.60753 0.0
O743 O 0.51876 0.57451 0.61857 0.0
Mg744 Mg 0.53962 0.54462 0.56613 0.0
O745 O 0.5983 0.53596 0.58601 0.0
O746 O 0.63286 0.58151 0.60997 0.0
O747 O 0.55991 0.52036 0.51251 0.0
O748 O 0.5261 0.49048 0.59132 0.0
Mg749 Mg 0.48545 0.50318 0.52167 0.0
O750 O 0.48122 0.55111 0.54662 0.0
O751 O 0.51488 0.5027 0.47643 0.0
O752 O 0.48812 0.46081 0.55372 0.0
O753 O 0.4373 0.5201 0.51503 0.0
C754 C 0.56573 0.62526 0.55359 0.0
C755 C 0.53101 0.57936 0.65054 0.0
C756 C 0.62896 0.54983 0.59788 0.0
C757 C 0.54761 0.50903 0.48188 0.0
C758 C 0.50741 0.4624 0.58167 0.0
C759 C 0.44913 0.54795 0.53314 0.0
O760 O 0.57138 0.62791 0.58649 0.0
O761 O 0.55601 0.59563 0.53916 0.0
O762 O 0.64086 0.50118 0.98689 0.0
Mg763 Mg 0.60536 0.46051 0.96438 0.0
O764 O 0.5988 0.5178 0.95448 0.0
Mg765 Mg 0.5518 0.48192 0.97894 0.0
O766 O 0.57842 0.42901 0.99666 0.0
O767 O 0.62938 0.41796 0.97232 0.0
O768 O 0.50135 0.4484 0.99671 0.0
O769 O 0.56882 0.50354 0.03514 0.0
Mg770 Mg 0.4975 0.52586 0.01141 0.0
O771 O 0.52383 0.53152 0.96529 0.0
O772 O 0.46085 0.48287 0.01213 0.0
O773 O 0.53006 0.53669 0.05727 0.0
O774 O 0.48308 0.56586 0.98338 0.0
C775 C 0.55832 0.45332 0.90078 0.0
C776 C 0.63128 0.5209 0.96379 0.0
C777 C 0.60432 0.40947 0.99266 0.0
C778 C 0.47043 0.45284 0.0065 0.0
C779 C 0.55865 0.52273 0.06022 0.0
C780 C 0.50608 0.55834 0.96095 0.0
O781 O 0.59079 0.45713 0.90925 0.0
O782 O 0.5362 0.45883 0.92398 0.0
O783 O 0.4672 0.16039 0.93884 0.0
Mg784 Mg 0.48155 0.13318 0.89462 0.0
O785 O 0.47029 0.11547 0.97216 0.0
Mg786 Mg 0.49197 0.06522 0.94299 0.0
O787 O 0.51006 0.0906 0.89054 0.0
O788 O 0.53542 0.13898 0.91404 0.0
O789 O 0.50887 0.01147 0.91376 0.0
O790 O 0.54876 0.08475 0.96472 0.0
Mg791 Mg 0.52007 0.02369 0.98967 0.0
O792 O 0.47055 0.03978 0.99639 0.0
O793 O 0.52698 0.98136 0.95721 0.0
O794 O 0.56576 0.05268 0.00692 0.0
O795 O 0.4982 0.00479 0.03178 0.0
C796 C 0.42113 0.07005 0.89694 0.0
C797 C 0.4633 0.14684 0.96806 0.0
C798 C 0.53309 0.11656 0.88827 0.0
C799 C 0.52067 0.98365 0.92472 0.0
C800 C 0.5717 0.07797 0.98791 0.0
C801 C 0.47125 0.02112 0.02427 0.0
O802 O 0.43379 0.09927 0.88689 0.0
O803 O 0.438 0.05185 0.91755 0.0
C804 C 0.03301 0.10846 0.36903 0.0
C805 C 0.00783 0.11889 0.34453 0.0
H806 H 0.04562 0.07131 0.40656 0.0
C807 C 0.97808 0.09564 0.33537 0.0
H808 H 0.05616 0.12536 0.37724 0.0
C809 C 0.97191 0.06487 0.35283 0.0
C810 C 0.99592 0.05589 0.37888 0.0
H811 H 0.95862 0.10179 0.31578 0.0
H812 H 0.94727 0.04916 0.34756 0.0
C813 C 0.02718 0.0772 0.38578 0.0
C814 C 0.00438 0.39296 0.33778 0.0
C815 C 0.0157 0.36331 0.35324 0.0
H816 H 0.98696 0.44398 0.34659 0.0
C817 C 0.02014 0.36344 0.38996 0.0
H818 H 0.0003 0.39316 0.3094 0.0
C819 C 0.01233 0.39201 0.411 0.0
C820 C -0.0003 0.42133 0.39596 0.0
H821 H 0.02827 0.34077 0.40251 0.0
H822 H 0.01532 0.39065 0.43937 0.0
C823 C 0.99669 0.42193 0.35898 0.0
C824 C 0.00018 0.88316 0.05204 0.0
C825 C 0.01815 0.88383 0.0851 0.0
H826 H 0.98592 0.91152 0.00761 0.0
C827 C 0.03504 0.91539 0.09919 0.0
H828 H 0.9871 0.8592 0.04034 0.0
C829 C 0.0341 0.94556 0.08051 0.0
C830 C 0.01668 0.94475 0.04713 0.0
H831 H 0.04852 0.91688 0.1249 0.0
H832 H 0.04692 0.9695 0.09236 0.0
C833 C -0.00054 0.91321 0.03329 0.0
C834 C 0.01694 0.62593 0.10643 0.0
C835 C 0.03062 0.65507 0.08945 0.0
H836 H 0.00409 0.57116 0.10289 0.0
C837 C 0.0443 0.65105 0.05597 0.0
H838 H 0.00619 0.62875 0.1323 0.0
C839 C 0.04353 0.61812 0.03922 0.0
C840 C 0.02844 0.589 0.05558 0.0
H841 H 0.05455 0.67344 0.04241 0.0
H842 H 0.05332 0.61568 0.01292 0.0
C843 C 0.01572 0.59314 0.08959 0.0
C844 C 0.40198 0.04467 0.08792 0.0
C845 C 0.399 0.01476 0.10778 0.0
H846 H 0.42671 0.07016 0.04493 0.0
C847 C 0.41666 0.98619 0.09671 0.0
H848 H 0.38823 0.06698 0.09532 0.0
C849 C 0.43786 0.98787 0.06779 0.0
C850 C 0.4424 0.01821 0.04908 0.0
H851 H 0.4155 0.96286 0.1113 0.0
H852 H 0.45207 0.96567 0.06099 0.0
C853 C 0.42348 0.04636 0.0587 0.0
C854 C 0.62901 0.51191 0.12988 0.0
C855 C 0.61224 0.52115 0.16063 0.0
H856 H 0.62524 0.50561 0.07361 0.0
C857 C 0.57896 0.5334 0.15828 0.0
H858 H 0.65478 0.50237 0.13145 0.0
C859 C 0.56221 0.53575 0.12532 0.0
C860 C 0.57837 0.52528 0.09441 0.0
H861 H 0.56564 0.54029 0.18193 0.0
H862 H 0.53603 0.54432 0.12419 0.0
C863 C 0.61217 0.51387 0.09696 0.0
C864 C 0.35023 0.98634 0.37758 0.0
C865 C 0.36756 0.99725 0.34746 0.0
H866 H 0.35571 0.97238 0.43169 0.0
C867 C 0.40415 0.00235 0.34888 0.0
H868 H 0.32188 0.98194 0.37678 0.0
C869 C 0.42328 0.99683 0.37971 0.0
C870 C 0.40642 0.9859 0.4102 0.0
H871 H 0.41801 0.01036 0.32588 0.0
H872 H 0.4516 0.00112 0.37941 0.0
C873 C 0.36953 0.98084 0.40885 0.0
C874 C 0.62626 0.51885 0.4235 0.0
C875 C 0.61261 0.50188 0.39159 0.0
H876 H 0.6168 0.53406 0.47722 0.0
C877 C 0.5782 0.48585 0.39049 0.0
H878 H 0.65281 0.53117 0.4254 0.0
C879 C 0.55767 0.48748 0.42009 0.0
C880 C 0.57097 0.505 0.45178 0.0
H881 H 0.56664 0.4729 0.36636 0.0
H882 H 0.53102 0.4754 0.41788 0.0
C883 C 0.60574 0.52025 0.45331 0.0
C884 C 0.10436 0.37305 0.99199 0.0
C885 C 0.13093 0.38339 0.0181 0.0
H886 H 0.05795 0.38634 0.96409 0.0
C887 C 0.12632 0.41219 0.04098 0.0
H888 H 0.10627 0.35046 0.97453 0.0
C889 C 0.09776 0.4319 0.03569 0.0
C890 C 0.07328 0.4233 0.00749 0.0
H891 H 0.14608 0.4212 0.06129 0.0
H892 H 0.09658 0.45565 0.05169 0.0
C893 C 0.07615 0.3931 0.98643 0.0
C894 C 0.10695 0.62216 0.48233 0.0
C895 C 0.13534 0.6072 0.49799 0.0
H896 H 0.05332 0.6145 0.46323 0.0
C897 C 0.13163 0.57256 0.50677 0.0
H898 H 0.10975 0.64893 0.47518 0.0
C899 C 0.09968 0.5529 0.49999 0.0
C900 C 0.07101 0.56761 0.48414 0.0
H901 H 0.15356 0.56069 0.51852 0.0
H902 H 0.0976 0.52607 0.5069 0.0
C903 C 0.07488 0.6025 0.47549 0.0
C904 C 0.848 0.90071 0.4925 0.0
C905 C 0.84738 0.86501 0.48528 0.0
H906 H 0.87622 0.95015 0.49028 0.0
C907 C 0.87668 0.85138 0.47036 0.0
H908 H 0.82552 0.91177 0.50352 0.0
C909 C 0.90609 0.87346 0.46235 0.0
C910 C 0.90633 0.90947 0.46887 0.0
H911 H 0.87641 0.8238 0.46421 0.0
H912 H 0.9281 0.8625 0.45034 0.0
C913 C 0.87706 0.92263 0.48455 0.0
C914 C 0.36523 0.58593 0.55485 0.0
C915 C 0.36834 0.61697 0.53723 0.0
H916 H 0.38896 0.53976 0.56738 0.0
C917 C 0.40067 0.62754 0.52281 0.0
H918 H 0.34065 0.57697 0.566 0.0
C919 C 0.42866 0.60649 0.52433 0.0
C920 C 0.42448 0.57439 0.53981 0.0
H921 H 0.40386 0.65148 0.50928 0.0
H922 H 0.45261 0.6142 0.51138 0.0
C923 C 0.39288 0.56468 0.55574 0.0
C924 C 0.55122 0.63126 0.91336 0.0
C925 C 0.52229 0.64431 0.89595 0.0
H926 H 0.56896 0.59251 0.94683 0.0
C927 C 0.48957 0.6246 0.89534 0.0
H928 H 0.57685 0.64554 0.91456 0.0
C929 C 0.48514 0.59463 0.91416 0.0
C930 C 0.51346 0.58291 0.93323 0.0
H931 H 0.46692 0.63285 0.88119 0.0
H932 H 0.45908 0.58144 0.91517 0.0
C933 C 0.54685 0.60069 0.93167 0.0
C934 C 0.5144 0.91471 0.84821 0.0
C935 C 0.53147 0.88805 0.86383 0.0
H936 H 0.49748 0.96625 0.8548 0.0
C937 C 0.54688 0.89446 0.89777 0.0
H938 H 0.5019 0.91022 0.8221 0.0
C939 C 0.54482 0.92623 0.91604 0.0
C940 C 0.52649 0.9526 0.90142 0.0
H941 H 0.55957 0.87435 0.91079 0.0
H942 H 0.55671 0.92953 0.94248 0.0
C943 C 0.51191 0.94676 0.86684 0.0
C944 C 0.49825 0.36731 0.60159 0.0
C945 C 0.51512 0.36733 0.63497 0.0
H946 H 0.48201 0.39705 0.5592 0.0
C947 C 0.52989 0.39892 0.65116 0.0
H948 H 0.48711 0.34322 0.58841 0.0
C949 C 0.5274 0.43012 0.63424 0.0
C950 C 0.5098 0.43015 0.601 0.0
H951 H 0.54326 0.39942 0.67688 0.0
H952 H 0.53913 0.45409 0.64716 0.0
C953 C 0.49532 0.39828 0.58499 0.0
C954 C 0.47947 0.11022 0.59844 0.0
C955 C 0.50549 0.1355 0.58914 0.0
H956 H 0.45488 0.05931 0.58839 0.0
C957 C 0.52735 0.12787 0.56147 0.0
H958 H 0.46276 0.11499 0.62021 0.0
C959 C 0.52305 0.09547 0.54335 0.0
C960 C 0.49687 0.07029 0.55273 0.0
H961 H 0.54756 0.14697 0.55373 0.0
H962 H 0.54011 0.09021 0.52201 0.0
C963 C 0.47516 0.07809 0.58039 0.0
C964 C 0.90924 0.47043 0.61224 0.0
C965 C 0.88869 0.49791 0.6195 0.0
H966 H 0.94307 0.44708 0.57677 0.0
C967 C 0.88553 0.5229 0.59402 0.0
H968 H 0.9126 0.45094 0.63126 0.0
C969 C 0.9032 0.5207 0.56232 0.0
C970 C 0.9246 0.49367 0.5558 0.0
H971 H 0.8695 0.5442 0.59866 0.0
H972 H 0.90104 0.54067 0.54358 0.0
C973 C 0.92691 0.46837 0.58093 0.0
C974 C 0.1019 0.97829 0.57491 0.0
C975 C 0.08952 0.99424 0.60541 0.0
H976 H 0.09378 0.96628 0.51959 0.0
C977 C 0.05869 0.01128 0.60287 0.0
H978 H 0.12605 0.96567 0.57587 0.0
C979 C 0.04054 0.01223 0.57042 0.0
C980 C 0.05279 0.99596 0.54003 0.0
H981 H 0.0484 0.0236 0.62598 0.0
H982 H 0.01655 0.0251 0.56934 0.0
C983 C 0.08367 0.97904 0.54257 0.0
C984 C 0.91904 0.51086 0.85582 0.0
C985 C 0.88287 0.50812 0.86008 0.0
H986 H 0.96994 0.51005 0.87988 0.0
C987 C 0.86994 0.50245 0.89369 0.0
H988 H 0.92944 0.51477 0.83004 0.0
C989 C 0.89322 0.4996 0.92279 0.0
C990 C 0.92968 0.50221 0.91848 0.0
H991 H 0.84192 0.49994 0.89728 0.0
H992 H 0.88273 0.49509 0.94841 0.0
C993 C 0.94212 0.50801 0.88456 0.0
C994 C 0.10164 -5e-05 0.83817 0.0
C995 C 0.13722 0.01203 0.83976 0.0
H996 H 0.05417 0.99285 0.86539 0.0
C997 C 0.15266 0.02615 0.87216 0.0
H998 H 0.08909 0.98919 0.81351 0.0
C999 C 0.13255 0.0285 0.90236 0.0
C1000 C 0.09662 0.0168 0.90058 0.0
H1001 H 0.18013 0.03576 0.87392 0.0
H1002 H 0.1449 0.0401 0.92676 0.0
C1003 C 0.08169 0.00215 0.86808 0.0
C1004 C 0.57978 0.85918 0.47937 0.0
C1005 C 0.60539 0.8669 0.507 0.0
H1006 H 0.5321 0.87279 0.4542 0.0
C1007 C 0.59791 0.89052 0.53454 0.0
H1008 H 0.58376 0.84039 0.45821 0.0
C1009 C 0.56729 0.90802 0.53282 0.0
C1010 C 0.54353 0.90243 0.50355 0.0
H1011 H 0.61675 0.89741 0.55627 0.0
H1012 H 0.56387 0.92825 0.55277 0.0
C1013 C 0.54955 0.87705 0.47745 0.0
C1014 C 0.66903 0.09786 0.00312 0.0
C1015 C 0.67323 0.13299 0.99613 0.0
H1016 H 0.63303 0.05315 0.00693 0.0
C1017 C 0.64415 0.14994 0.98492 0.0
H1018 H 0.6914 0.08435 0.01113 0.0
C1019 C 0.61087 0.13202 0.98175 0.0
C1020 C 0.60641 0.09724 0.99045 0.0
H1021 H 0.64719 0.1771 0.9792 0.0
H1022 H 0.5886 0.14548 0.97335 0.0
C1023 C 0.63576 0.08022 0.00086 0.0
C1024 C 0.39479 0.38682 0.9834 0.0
C1025 C 0.37763 0.38639 0.01582 0.0
H1026 H 0.43793 0.40884 0.9547 0.0
C1027 C 0.39855 0.39832 0.04622 0.0
H1028 H 0.38318 0.37336 0.95972 0.0
C1029 C 0.43066 0.41786 0.04341 0.0
C1030 C 0.44417 0.42347 0.01032 0.0
H1031 H 0.39067 0.39362 0.0725 0.0
H1032 H 0.4442 0.42991 0.06707 0.0
C1033 C 0.42727 0.40593 0.98052 0.0
C1034 C 0.90167 0.12442 0.9632 0.0
C1035 C 0.90105 0.14206 0.99633 0.0
H1036 H 0.9263 0.0884 0.93049 0.0
C1037 C 0.92774 0.13763 0.02193 0.0
H1038 H 0.88135 0.12666 0.943 0.0
C1039 C 0.95395 0.11534 0.0146 0.0
C1040 C 0.95351 0.09689 0.98174 0.0
H1041 H 0.92812 0.15105 0.04765 0.0
H1042 H 0.97345 0.11136 0.03508 0.0
C1043 C 0.92748 0.10228 0.95603 0.0
C1044 C 0.02059 0.1749 0.13697 0.0
C1045 C 0.02853 0.17091 0.17285 0.0
H1046 H 0.0173 0.15156 0.08452 0.0
C1047 C 0.03777 0.13873 0.18366 0.0
H1048 H 0.01335 0.19955 0.12813 0.0
C1049 C 0.04004 0.11122 0.15883 0.0
C1050 C 0.03294 0.11534 0.12269 0.0
H1051 H 0.04379 0.1351 0.21128 0.0
H1052 H 0.04838 0.08706 0.16785 0.0
C1053 C 0.02256 0.14734 0.11213 0.0
C1054 C 0.05427 0.39355 0.14992 0.0
C1055 C 0.0383 0.39385 0.18255 0.0
H1056 H 0.0606 0.41841 0.10118 0.0
C1057 C 0.02227 0.42327 0.19412 0.0
H1058 H 0.0669 0.3711 0.1406 0.0
C1059 C 0.01956 0.45078 0.17207 0.0
C1060 C 0.03196 0.44879 0.13769 0.0
H1061 H 0.01015 0.42411 0.21943 0.0
H1062 H 0.00472 0.47192 0.18074 0.0
C1063 C 0.0509 0.42073 0.12752 0.0
C1064 C 0.98243 0.84023 0.29593 0.0
C1065 C 0.0008 0.84361 0.26487 0.0
H1066 H 0.97225 0.86319 0.3464 0.0
C1067 C 0.01994 0.87524 0.25903 0.0
H1068 H 0.96811 0.81585 0.3013 0.0
C1069 C 0.02336 0.9019 0.28535 0.0
C1070 C 0.00659 0.89769 0.31726 0.0
H1071 H 0.03438 0.87827 0.23522 0.0
H1072 H 0.04085 0.92483 0.28174 0.0
C1073 C 0.9847 0.86737 0.32163 0.0
C1074 C 0.98096 0.59504 0.26485 0.0
C1075 C 0.00681 0.62296 0.27129 0.0
H1076 H 0.94842 0.5548 0.28728 0.0
C1077 C 0.02583 0.62571 0.30398 0.0
H1078 H 0.9664 0.59153 0.23971 0.0
C1079 C 0.01612 0.60378 0.33099 0.0
C1080 C 0.98724 0.57888 0.32576 0.0
H1081 H 0.0459 0.64685 0.30993 0.0
H1082 H 0.02844 0.60912 0.3571 0.0
C1083 C 0.97111 0.57344 0.29188 0.0
C1084 C 0.21985 0.01808 0.09817 0.0
C1085 C 0.2156 0.02521 0.13438 0.0
H1086 H 0.19449 0.01229 0.04616 0.0
C1087 C 0.18302 0.03328 0.14605 0.0
H1088 H 0.245 0.0116 0.08892 0.0
C1089 C 0.15459 0.03301 0.12218 0.0
C1090 C 0.15818 0.02488 0.08608 0.0
H1091 H 0.17934 0.03878 0.17385 0.0
H1092 H 0.12949 0.03892 0.13208 0.0
C1093 C 0.19119 0.0183 0.07391 0.0
C1094 C 0.8308 0.53688 0.1336 0.0
C1095 C 0.80396 0.50955 0.12902 0.0
H1096 H 0.88352 0.55528 0.12276 0.0
C1097 C 0.80793 0.48294 0.10325 0.0
H1098 H 0.82915 0.55769 0.15335 0.0
C1099 C 0.83923 0.48201 0.08519 0.0
C1100 C 0.8672 0.50764 0.09248 0.0
H1101 H 0.78772 0.46173 0.09848 0.0
H1102 H 0.84288 0.4594 0.06828 0.0
C1103 C 0.86202 0.53581 0.1157 0.0
C1104 C 0.19025 0.00445 0.37854 0.0
C1105 C 0.18223 0.01652 0.34528 0.0
H1106 H 0.17051 0.98611 0.42663 0.0
C1107 C 0.14786 0.02436 0.33694 0.0
H1108 H 0.2167 0.9985 0.3855 0.0
C1109 C 0.12111 0.01697 0.36038 0.0
C1110 C 0.12857 0.00172 0.39239 0.0
H1111 H 0.14124 0.03373 0.31133 0.0
H1112 H 0.09432 0.0206 0.35217 0.0
C1113 C 0.16376 0.99748 0.40205 0.0
C1114 C 0.78847 0.50564 0.37396 0.0
C1115 C 0.79319 0.48775 0.34173 0.0
H1116 H 0.81359 0.52908 0.42166 0.0
C1117 C 0.82457 0.4725 0.3364 0.0
H1118 H 0.76436 0.5176 0.37838 0.0
C1119 C 0.85219 0.47793 0.36168 0.0
C1120 C 0.84893 0.49961 0.39183 0.0
H1121 H 0.8288 0.459 0.31149 0.0
H1122 H 0.87728 0.46864 0.35563 0.0
C1123 C 0.81642 0.512 0.3987 0.0
C1124 C 0.19075 0.17595 0.03972 0.0
C1125 C 0.18402 0.20611 0.02287 0.0
H1126 H 0.17038 0.12601 0.05446 0.0
C1127 C 0.15089 0.20843 0.00619 0.0
H1128 H 0.2163 0.17341 0.05215 0.0
C1129 C 0.12482 0.18077 0.00644 0.0
C1130 C 0.1314 0.15107 0.0243 0.0
H1131 H 0.14534 0.23156 0.99291 0.0
H1132 H 0.09951 0.1828 0.99331 0.0
C1133 C 0.1645 0.14896 0.04099 0.0
C1134 C 0.08524 0.78337 0.45191 0.0
C1135 C 0.10838 0.78897 0.4818 0.0
H1136 H 0.05123 0.80606 0.41514 0.0
C1137 C 0.10804 0.82032 0.50217 0.0
H1138 H 0.08395 0.7593 0.43604 0.0
C1139 C 0.08815 0.84672 0.4907 0.0
C1140 C 0.06831 0.84236 0.45867 0.0
H1141 H 0.1255 0.8258 0.52526 0.0
H1142 H 0.09146 0.87184 0.50481 0.0
C1143 C 0.06574 0.80988 0.44031 0.0
C1144 C 0.88776 0.69186 0.47486 0.0
C1145 C 0.85705 0.68051 0.49131 0.0
H1146 H 0.93649 0.67883 0.45483 0.0
C1147 C 0.85366 0.64678 0.50355 0.0
H1148 H 0.89113 0.71788 0.46559 0.0
C1149 C 0.87959 0.62396 0.49707 0.0
C1150 C 0.9095 0.63474 0.47862 0.0
H1151 H 0.83017 0.63756 0.51649 0.0
H1152 H 0.87525 0.59744 0.50468 0.0
C1153 C 0.91381 0.66944 0.46895 0.0
C1154 C 0.30675 0.83343 0.5065 0.0
C1155 C 0.31774 0.80163 0.51619 0.0
H1156 H 0.32012 0.88809 0.50567 0.0
C1157 C 0.3522 0.79959 0.52938 0.0
H1158 H 0.28015 0.83523 0.49637 0.0
C1159 C 0.37514 0.82962 0.53425 0.0
C1160 C 0.36357 0.86164 0.52591 0.0
H1161 H 0.36081 0.77506 0.53704 0.0
H1162 H 0.40107 0.82816 0.54627 0.0
C1163 C 0.32954 0.86335 0.5115 0.0
C1164 C 0.49874 0.66284 0.68472 0.0
C1165 C 0.51296 0.6648 0.71949 0.0
H1166 H 0.49195 0.63306 0.63546 0.0
C1167 C 0.52642 0.6355 0.73311 0.0
H1168 H 0.48799 0.68517 0.67387 0.0
C1169 C 0.52838 0.60564 0.71141 0.0
C1170 C 0.5169 0.60452 0.67565 0.0
H1171 H 0.53713 0.6364 0.76001 0.0
H1172 H 0.54132 0.58435 0.72191 0.0
C1173 C 0.50053 0.63284 0.66296 0.0
C1174 C 0.51604 0.87263 0.64913 0.0
C1175 C 0.51194 0.87863 0.68543 0.0
H1176 H 0.50287 0.88824 0.59713 0.0
C1177 C 0.49833 0.90906 0.69779 0.0
H1178 H 0.5265 0.84913 0.63929 0.0
C1179 C 0.48516 0.9313 0.674 0.0
C1180 C 0.48523 0.92324 0.63756 0.0
H1181 H 0.49521 0.91409 0.72577 0.0
H1182 H 0.47182 0.953 0.6841 0.0
C1183 C 0.50279 0.89505 0.62514 0.0
C1184 C 0.51137 0.3848 0.84012 0.0
C1185 C 0.53537 0.38232 0.81318 0.0
H1186 H 0.49914 0.41057 0.88835 0.0
C1187 C 0.5633 0.40831 0.81195 0.0
H1188 H 0.48968 0.36531 0.84233 0.0
C1189 C 0.56927 0.43384 0.83917 0.0
C1190 C 0.54682 0.43435 0.86746 0.0
H1191 H 0.58153 0.40807 0.79087 0.0
H1192 H 0.59249 0.45193 0.83912 0.0
C1193 C 0.51676 0.4109 0.86669 0.0
C1194 C 0.51914 0.13655 0.79145 0.0
C1195 C 0.53506 0.17071 0.79164 0.0
H1196 H 0.50595 0.09213 0.82172 0.0
C1197 C 0.55495 0.18402 0.82183 0.0
H1198 H 0.50439 0.12525 0.76816 0.0
C1199 C 0.55715 0.16466 0.85181 0.0
C1200 C 0.53858 0.13171 0.85304 0.0
H1201 H 0.56792 0.21003 0.82267 0.0
H1202 H 0.57171 0.17658 0.87495 0.0
C1203 C 0.52051 0.11736 0.82196 0.0
C1204 C 0.71834 0.52858 0.6245 0.0
C1205 C 0.71058 0.51306 0.65629 0.0
H1206 H 0.69733 0.55289 0.57974 0.0
C1207 C 0.67566 0.50156 0.66237 0.0
H1208 H 0.74519 0.5372 0.61909 0.0
C1209 C 0.64867 0.50828 0.63867 0.0
C1210 C 0.65607 0.5281 0.60952 0.0
H1211 H 0.66899 0.48959 0.6867 0.0
H1212 H 0.62176 0.50197 0.64569 0.0
C1213 C 0.69113 0.53692 0.60167 0.0
C1214 C 0.319 0.03288 0.64039 0.0
C1215 C 0.28961 0.00942 0.6316 0.0
H1216 H 0.37121 0.05136 0.62851 0.0
C1217 C 0.28964 0.98862 0.60009 0.0
H1218 H 0.31968 0.04963 0.66414 0.0
C1219 C 0.31967 0.98911 0.57967 0.0
C1220 C 0.35008 0.01097 0.59001 0.0
H1221 H 0.26694 0.97099 0.59201 0.0
H1222 H 0.31977 0.97091 0.55714 0.0
C1223 C 0.34851 0.03399 0.61972 0.0
C1224 C 0.71351 0.52228 0.9129 0.0
C1225 C 0.70128 0.53179 0.87983 0.0
H1226 H 0.70165 0.51364 0.96634 0.0
C1227 C 0.66817 0.54459 0.87658 0.0
H1228 H 0.73925 0.51294 0.91609 0.0
C1229 C 0.64625 0.54473 0.90531 0.0
C1230 C 0.65735 0.53241 0.93783 0.0
H1231 H 0.65844 0.55242 0.85129 0.0
H1232 H 0.61979 0.55209 0.90131 0.0
C1233 C 0.69201 0.52309 0.94174 0.0
C1234 C 0.33077 0.06877 0.85631 0.0
C1235 C 0.32756 0.03644 0.83754 0.0
H1236 H 0.36353 0.10475 0.89017 0.0
C1237 C 0.35296 0.01302 0.84347 0.0
H1238 H 0.31105 0.08692 0.85327 0.0
C1239 C 0.38239 0.02288 0.86568 0.0
C1240 C 0.38692 0.05639 0.88159 0.0
H1241 H 0.3513 0.98796 0.82935 0.0
H1242 H 0.4028 0.00536 0.86819 0.0
C1243 C 0.36049 0.07885 0.87776 0.0
C1244 C 0.61022 0.71131 0.53451 0.0
C1245 C 0.63669 0.70047 0.51306 0.0
H1246 H 0.56584 0.69525 0.56442 0.0
C1247 C 0.63425 0.66619 0.49903 0.0
H1248 H 0.61159 0.73777 0.54538 0.0
C1249 C 0.60715 0.64246 0.50832 0.0
C1250 C 0.58303 0.65233 0.53301 0.0
H1251 H 0.65455 0.65723 0.48268 0.0
H1252 H 0.60753 0.61557 0.49928 0.0
C1253 C 0.58387 0.68722 0.54496 0.0
C1254 C 0.61386 0.31625 0.00182 0.0
C1255 C 0.64258 0.31854 0.02649 0.0
H1256 H 0.5777 0.34418 0.97227 0.0
C1257 C 0.65031 0.34968 0.04696 0.0
H1258 H 0.60662 0.29247 0.98611 0.0
C1259 C 0.633 0.37902 0.03956 0.0
C1260 C 0.60758 0.37775 0.01175 0.0
H1261 H 0.67223 0.35259 0.06609 0.0
H1262 H 0.6424 0.40364 0.05282 0.0
C1263 C 0.59672 0.34569 0.99431 0.0
C1264 C 0.38862 0.17682 0.0188 0.0
C1265 C 0.39629 0.21291 0.01803 0.0
H1266 H 0.40513 0.12659 0.00442 0.0
C1267 C 0.42985 0.22593 0.00894 0.0
H1268 H 0.36272 0.16624 0.02541 0.0
C1269 C 0.45415 0.2034 0.99755 0.0
C1270 C 0.44528 0.16736 0.99455 0.0
H1271 H 0.43629 0.25362 0.00801 0.0
H1272 H 0.47863 0.21437 0.98763 0.0
C1273 C 0.41303 0.15412 0.00717 0.0
C1274 C 0.88931 0.32097 0.01846 0.0
C1275 C 0.85807 0.32361 0.0363 0.0
H1276 H 0.94029 0.34566 0.0085 0.0
C1277 C 0.85423 0.35282 0.05836 0.0
H1278 H 0.89236 0.29863 0.00098 0.0
C1279 C 0.88171 0.3785 0.06371 0.0
C1280 C 0.91295 0.37608 0.04596 0.0
H1281 H 0.82998 0.35566 0.07158 0.0
H1282 H 0.87807 0.40093 0.0809 0.0
C1283 C 0.91656 0.3475 0.02284 0.0
loop_
_geom_bond_atom_site_label_1
_geom_bond_atom_site_label_2
_geom_bond_distance
_geom_bond_site_symmetry_2
_ccdc_geom_bond_type
C0 C1 1.443 . S
C0 N4 1.376 . S
C0 C38 1.389 1_655 S
C1 C0 1.443 . S
C1 C2 1.340 . S
C1 H41 0.951 . S
C2 C1 1.340 . S
C2 C3 1.439 . S
C2 H42 0.950 . S
C3 C2 1.439 . S
C3 N4 1.374 . S
C3 C37 1.395 . S
N4 C0 1.376 . S
N4 C3 1.374 . S
N4 Co5 2.008 1_655 S
Co5 N4 2.008 1_455 S
Co5 N6 1.995 . S
Co5 N11 2.008 . S
Co5 N16 1.995 . S
Co5 N21 2.282 . S
Co5 N27 2.282 . S
N6 Co5 1.995 . S
N6 C7 1.376 1_455 S
N6 C10 1.383 . S
C7 N6 1.376 1_655 S
C7 C8 1.446 . S
C7 C37 1.391 . S
C8 C7 1.446 . S
C8 C9 1.339 . S
C8 H43 0.949 . S
C9 C8 1.339 . S
C9 C10 1.439 1_655 S
C9 H44 0.953 . S
C10 N6 1.383 . S
C10 C9 1.439 1_455 S
C10 C39 1.392 . S
N11 Co5 2.008 . S
N11 C12 1.376 . S
N11 C15 1.374 . S
C12 N11 1.376 . S
C12 C13 1.443 . S
C12 C39 1.389 . S
C13 C12 1.443 . S
C13 C14 1.340 . S
C13 H45 0.951 . S
C14 C13 1.340 . S
C14 C15 1.439 . S
C14 H46 0.950 . S
C15 N11 1.374 . S
C15 C14 1.439 . S
C15 C40 1.395 . S
N16 Co5 1.995 . S
N16 C17 1.376 . S
N16 C20 1.383 . S
C17 N16 1.376 . S
C17 C18 1.446 . S
C17 C40 1.391 . S
C18 C17 1.446 . S
C18 C19 1.339 . S
C18 H47 0.949 . S
C19 C18 1.339 . S
C19 C20 1.439 . S
C19 H48 0.950 . S
C20 N16 1.383 . S
C20 C19 1.439 . S
C20 C38 1.392 . S
N21 Co5 2.282 . S
N21 C24 1.332 . S
N21 C26 1.332 . S
C22 C23 1.386 . S
C22 C25 1.388 . S
C23 C22 1.386 . S
C23 C24 1.382 . S
C23 H49 0.950 . S
C24 N21 1.332 . S
C24 C23 1.382 . S
C24 H35 0.952 . S
C25 C22 1.388 . S
C25 C26 1.382 . S
C25 H50 0.950 . S
C26 N21 1.332 . S
C26 C25 1.382 . S
C26 H36 0.959 . S
N27 Co5 2.282 . S
N27 C31 1.332 . S
N27 C32 1.332 . S
C28 C29 1.388 . S
C28 C32 1.382 . S
C28 H51 0.950 . S
C29 C28 1.388 . S
C29 C30 1.371 1_455 S
C30 C29 1.371 1_655 S
C30 C31 1.375 1_655 S
C30 H52 0.972 . S
C31 N27 1.332 . S
C31 C30 1.375 1_455 S
C31 H33 0.952 1_455 S
C32 N27 1.332 . S
C32 C28 1.382 . S
C32 H34 0.948 . S
H33 C31 0.952 1_655 S
H34 C32 0.948 . S
H35 C24 0.952 . S
H36 C26 0.959 . S
C37 C3 1.395 . S
C37 C7 1.391 . S
C38 C0 1.389 1_455 S
C38 C20 1.392 . S
C39 C10 1.392 . S
C39 C12 1.389 . S
C40 C15 1.395 . S
C40 C17 1.391 . S
H41 C1 0.951 . S
H42 C2 0.950 . S
H43 C8 0.949 . S
H44 C9 0.953 . S
H45 C13 0.951 . S
H46 C14 0.950 . S
H47 C18 0.949 . S
H48 C19 0.950 . S
H49 C23 0.950 . S
H50 C25 0.950 . S
H51 C28 0.950 . S
H52 C30 0.972 . S
C53 C54 1.443 . S
C53 N57 1.376 . S
C53 C91 1.389 1_655 S
C54 C53 1.443 . S
C54 C55 1.340 . S
C54 H94 0.951 . S
C55 C54 1.340 . S
C55 C56 1.439 . S
C55 H95 0.950 . S
C56 C55 1.439 . S
C56 N57 1.374 . S
C56 C90 1.395 . S
N57 C53 1.376 . S
N57 C56 1.374 . S
N57 Co58 2.008 1_655 S
Co58 N57 2.008 1_455 S
Co58 N59 1.995 1_455 S
Co58 N64 2.008 . S
Co58 N69 1.995 . S
Co58 N74 2.282 . S
Co58 N80 2.282 . S
N59 Co58 1.995 1_655 S
N59 C60 1.376 . S
N59 C63 1.389 . S
C60 N59 1.376 . S
C60 C61 1.446 . S
C60 C90 1.391 . S
C61 C60 1.446 . S
C61 C62 1.339 . S
C61 H96 0.949 . S
C62 C61 1.339 . S
C62 C63 1.467 . S
C62 H97 0.950 . S
C63 N59 1.389 . S
C63 C62 1.467 . S
C63 C92 1.363 1_655 S
N64 Co58 2.008 . S
N64 C65 1.376 . S
N64 C68 1.374 . S
C65 N64 1.376 . S
C65 C66 1.443 . S
C65 C92 1.389 . S
C66 C65 1.443 . S
C66 C67 1.340 . S
C66 H98 0.951 . S
C67 C66 1.340 . S
C67 C68 1.439 . S
C67 H99 0.950 . S
C68 N64 1.374 . S
C68 C67 1.439 . S
C68 C93 1.395 . S
N69 Co58 1.995 . S
N69 C70 1.376 . S
N69 C73 1.383 . S
C70 N69 1.376 . S
C70 C71 1.446 . S
C70 C93 1.391 . S
C71 C70 1.446 . S
C71 C72 1.339 . S
C71 H100 0.949 . S
C72 C71 1.339 . S
C72 C73 1.439 . S
C72 H101 0.950 . S
C73 N69 1.383 . S
C73 C72 1.439 . S
C73 C91 1.392 . S
N74 Co58 2.282 . S
N74 C77 1.332 . S
N74 C79 1.332 . S
C75 C76 1.386 . S
C75 C78 1.388 . S
C76 C75 1.386 . S
C76 C77 1.382 . S
C76 H102 0.950 . S
C77 N74 1.332 . S
C77 C76 1.382 . S
C77 H88 0.952 . S
C78 C75 1.388 . S
C78 C79 1.382 . S
C78 H103 0.950 1_455 S
C79 N74 1.332 . S
C79 C78 1.382 . S
C79 H89 0.948 1_455 S
N80 Co58 2.282 . S
N80 C84 1.332 1_455 S
N80 C85 1.332 . S
C81 C82 1.388 1_455 S
C81 C85 1.382 . S
C81 H104 0.950 . S
C82 C81 1.388 1_655 S
C82 C83 1.386 . S
C83 C82 1.386 . S
C83 C84 1.382 . S
C83 H105 0.950 . S
C84 N80 1.332 1_655 S
C84 C83 1.382 . S
C84 H86 0.952 . S
C85 N80 1.332 . S
C85 C81 1.382 . S
C85 H87 0.948 . S
H86 C84 0.952 . S
H87 C85 0.948 . S
H88 C77 0.952 . S
H89 C79 0.948 1_655 S
C90 C56 1.395 . S
C90 C60 1.391 . S
C91 C53 1.389 1_455 S
C91 C73 1.392 . S
C92 C63 1.363 1_455 S
C92 C65 1.389 . S
C93 C68 1.395 . S
C93 C70 1.391 . S
H94 C54 0.951 . S
H95 C55 0.950 . S
H96 C61 0.949 . S
H97 C62 0.950 . S
H98 C66 0.951 . S
H99 C67 0.950 . S
H100 C71 0.949 . S
H101 C72 0.950 . S
H102 C76 0.950 . S
H103 C78 0.950 1_655 S
H104 C81 0.950 . S
H105 C83 0.950 . S
C106 C107 1.443 . S
C106 N110 1.376 . S
C106 C144 1.389 . S
C107 C106 1.443 . S
C107 C108 1.340 . S
C107 H147 0.951 . S
C108 C107 1.340 . S
C108 C109 1.439 . S
C108 H148 0.950 . S
C109 C108 1.439 . S
C109 N110 1.374 . S
C109 C143 1.395 . S
N110 C106 1.376 . S
N110 C109 1.374 . S
N110 Co111 2.008 1_565 S
Co111 N110 2.008 1_545 S
Co111 N112 1.995 1_545 S
Co111 N117 2.008 . S
Co111 N122 1.995 . S
Co111 N127 2.282 . S
Co111 N133 2.282 . S
N112 Co111 1.995 1_565 S
N112 C113 1.376 . S
N112 C116 1.383 . S
C113 N112 1.376 . S
C113 C114 1.446 . S
C113 C143 1.391 . S
C114 C113 1.446 . S
C114 C115 1.339 . S
C114 H149 0.949 . S
C115 C114 1.339 . S
C115 C116 1.439 . S
C115 H150 0.950 . S
C116 N112 1.383 . S
C116 C115 1.439 . S
C116 C145 1.392 1_565 S
N117 Co111 2.008 . S
N117 C118 1.376 . S
N117 C121 1.374 . S
C118 N117 1.376 . S
C118 C119 1.443 . S
C118 C145 1.389 . S
C119 C118 1.443 . S
C119 C120 1.340 . S
C119 H151 0.951 . S
C120 C119 1.340 . S
C120 C121 1.439 . S
C120 H152 0.950 . S
C121 N117 1.374 . S
C121 C120 1.439 . S
C121 C146 1.395 . S
N122 Co111 1.995 . S
N122 C123 1.376 . S
N122 C126 1.383 . S
C123 N122 1.376 . S
C123 C124 1.446 . S
C123 C146 1.391 . S
C124 C123 1.446 . S
C124 C125 1.339 . S
C124 H153 0.949 . S
C125 C124 1.339 . S
C125 C126 1.439 . S
C125 H154 0.950 . S
C126 N122 1.383 . S
C126 C125 1.439 . S
C126 C144 1.392 1_545 S
N127 Co111 2.282 . S
N127 C130 1.332 . S
N127 C132 1.345 . S
C128 C129 1.386 . S
C128 C131 1.388 . S
C129 C128 1.386 . S
C129 C130 1.382 . S
C129 H155 0.950 . S
C130 N127 1.332 . S
C130 C129 1.382 . S
C130 H141 0.952 . S
C131 C128 1.388 . S
C131 C132 1.387 . S
C131 H156 0.950 1_545 S
C132 N127 1.345 . S
C132 C131 1.387 . S
C132 H142 0.930 1_545 S
N133 Co111 2.282 . S
N133 C137 1.332 1_545 S
N133 C138 1.332 . S
C134 C135 1.388 1_545 S
C134 C138 1.382 . S
C134 H157 0.950 . S
C135 C134 1.388 1_565 S
C135 C136 1.386 . S
C136 C135 1.386 . S
C136 C137 1.382 . S
C136 H158 0.950 . S
C137 N133 1.332 1_565 S
C137 C136 1.382 . S
C137 H139 0.952 . S
C138 N133 1.332 . S
C138 C134 1.382 . S
C138 H140 0.948 . S
H139 C137 0.952 . S
H140 C138 0.948 . S
H141 C130 0.952 . S
H142 C132 0.930 1_565 S
C143 C109 1.395 . S
C143 C113 1.391 . S
C144 C106 1.389 . S
C144 C126 1.392 1_565 S
C145 C116 1.392 1_545 S
C145 C118 1.389 . S
C146 C121 1.395 . S
C146 C123 1.391 . S
H147 C107 0.951 . S
H148 C108 0.950 . S
H149 C114 0.949 . S
H150 C115 0.950 . S
H151 C119 0.951 . S
H152 C120 0.950 . S
H153 C124 0.949 . S
H154 C125 0.950 . S
H155 C129 0.950 . S
H156 C131 0.950 1_565 S
H157 C134 0.950 . S
H158 C136 0.950 . S
C159 C160 1.443 . S
C159 N163 1.376 . S
C159 C197 1.389 . S
C160 C159 1.443 . S
C160 C161 1.340 . S
C160 H200 0.951 . S
C161 C160 1.340 . S
C161 C162 1.439 . S
C161 H201 0.950 . S
C162 C161 1.439 . S
C162 N163 1.374 . S
C162 C196 1.395 . S
N163 C159 1.376 . S
N163 C162 1.374 . S
N163 Co164 2.008 . S
Co164 N163 2.008 . S
Co164 N165 1.995 . S
Co164 N170 2.008 . S
Co164 N175 1.995 . S
Co164 N180 2.282 . S
Co164 N186 2.282 . S
N165 Co164 1.995 . S
N165 C166 1.376 . S
N165 C169 1.383 . S
C166 N165 1.376 . S
C166 C167 1.446 . S
C166 C196 1.391 . S
C167 C166 1.446 . S
C167 C168 1.339 . S
C167 H202 0.949 . S
C168 C167 1.339 . S
C168 C169 1.439 . S
C168 H203 0.950 . S
C169 N165 1.383 . S
C169 C168 1.439 . S
C169 C198 1.392 . S
N170 Co164 2.008 . S
N170 C171 1.376 . S
N170 C174 1.374 . S
C171 N170 1.376 . S
C171 C172 1.443 . S
C171 C198 1.389 . S
C172 C171 1.443 . S
C172 C173 1.340 . S
C172 H204 0.951 . S
C173 C172 1.340 . S
C173 C174 1.439 . S
C173 H205 0.950 . S
C174 N170 1.374 . S
C174 C173 1.439 . S
C174 C199 1.395 . S
N175 Co164 1.995 . S
N175 C176 1.376 . S
N175 C179 1.383 . S
C176 N175 1.376 . S
C176 C177 1.446 . S
C176 C199 1.391 . S
C177 C176 1.446 . S
C177 C178 1.339 . S
C177 H206 0.949 . S
C178 C177 1.339 . S
C178 C179 1.439 . S
C178 H207 0.950 . S
C179 N175 1.383 . S
C179 C178 1.439 . S
C179 C197 1.392 . S
N180 Co164 2.282 . S
N180 C183 1.332 . S
N180 C185 1.332 . S
C181 C182 1.386 . S
C181 C184 1.388 . S
C182 C181 1.386 . S
C182 C183 1.382 . S
C182 H208 0.950 . S
C183 N180 1.332 . S
C183 C182 1.382 . S
C183 H194 0.952 . S
C184 C181 1.388 . S
C184 C185 1.382 . S
C184 H209 0.950 . S
C185 N180 1.332 . S
C185 C184 1.382 . S
C185 H195 0.948 . S
N186 Co164 2.282 . S
N186 C190 1.332 . S
N186 C191 1.332 . S
C187 C188 1.388 . S
C187 C191 1.382 . S
C187 H210 0.950 . S
C188 C187 1.388 . S
C188 C189 1.386 . S
C189 C188 1.386 . S
C189 C190 1.382 . S
C189 H211 0.950 . S
C190 N186 1.332 . S
C190 C189 1.382 . S
C190 H192 0.952 . S
C191 N186 1.332 . S
C191 C187 1.382 . S
C191 H193 0.948 . S
H192 C190 0.952 . S
H193 C191 0.948 . S
H194 C183 0.952 . S
H195 C185 0.948 . S
C196 C162 1.395 . S
C196 C166 1.391 . S
C197 C159 1.389 . S
C197 C179 1.392 . S
C198 C169 1.392 . S
C198 C171 1.389 . S
C199 C174 1.395 . S
C199 C176 1.391 . S
H200 C160 0.951 . S
H201 C161 0.950 . S
H202 C167 0.949 . S
H203 C168 0.950 . S
H204 C172 0.951 . S
H205 C173 0.950 . S
H206 C177 0.949 . S
H207 C178 0.950 . S
H208 C182 0.950 . S
H209 C184 0.950 . S
H210 C187 0.950 . S
H211 C189 0.950 . S
C212 C213 1.443 . S
C212 N216 1.376 . S
C212 C250 1.389 1_556 S
C213 C212 1.443 . S
C213 C214 1.340 . S
C213 H253 0.951 . S
C214 C213 1.340 . S
C214 C215 1.439 . S
C214 H254 0.950 . S
C215 C214 1.439 . S
C215 N216 1.374 . S
C215 C249 1.395 . S
N216 C212 1.376 . S
N216 C215 1.374 . S
N216 Co217 2.008 1_556 S
Co217 N216 2.008 1_554 S
Co217 N218 1.995 1_554 S
Co217 N223 2.008 . S
Co217 N228 1.995 . S
Co217 N233 2.282 . S
Co217 N239 2.282 . S
N218 Co217 1.995 1_556 S
N218 C219 1.376 . S
N218 C222 1.383 1_556 S
C219 N218 1.376 . S
C219 C220 1.446 . S
C219 C249 1.391 . S
C220 C219 1.446 . S
C220 C221 1.339 . S
C220 H255 0.949 . S
C221 C220 1.339 . S
C221 C222 1.439 1_556 S
C221 H256 0.950 . S
C222 N218 1.383 1_554 S
C222 C221 1.439 1_554 S
C222 C251 1.392 . S
N223 Co217 2.008 . S
N223 C224 1.376 . S
N223 C227 1.374 . S
C224 N223 1.376 . S
C224 C225 1.443 . S
C224 C251 1.389 . S
C225 C224 1.443 . S
C225 C226 1.340 . S
C225 H257 0.951 . S
C226 C225 1.340 . S
C226 C227 1.439 . S
C226 H258 0.950 . S
C227 N223 1.374 . S
C227 C226 1.439 . S
C227 C252 1.395 . S
N228 Co217 1.995 . S
N228 C229 1.376 . S
N228 C232 1.383 . S
C229 N228 1.376 . S
C229 C230 1.446 . S
C229 C252 1.391 . S
C230 C229 1.446 . S
C230 C231 1.339 . S
C230 H259 0.949 . S
C231 C230 1.339 . S
C231 C232 1.439 . S
C231 H260 0.950 . S
C232 N228 1.383 . S
C232 C231 1.439 . S
C232 C250 1.392 . S
N233 Co217 2.282 . S
N233 C236 1.332 . S
N233 C238 1.332 . S
C234 C235 1.386 . S
C234 C237 1.388 . S
C235 C234 1.386 . S
C235 C236 1.382 . S
C235 H261 0.950 . S
C236 N233 1.332 . S
C236 C235 1.382 . S
C236 H247 0.952 . S
C237 C234 1.388 . S
C237 C238 1.382 . S
C237 H262 0.950 1_554 S
C238 N233 1.332 . S
C238 C237 1.382 . S
C238 H248 0.948 1_554 S
N239 Co217 2.282 . S
N239 C243 1.332 1_554 S
N239 C244 1.332 . S
C240 C241 1.388 . S
C240 C244 1.382 . S
C240 H263 0.950 . S
C241 C240 1.388 . S
C241 C242 1.386 1_554 S
C242 C241 1.386 1_556 S
C242 C243 1.382 . S
C242 H264 0.950 . S
C243 N239 1.332 1_556 S
C243 C242 1.382 . S
C243 H245 0.952 . S
C244 N239 1.332 . S
C244 C240 1.382 . S
C244 H246 0.948 . S
H245 C243 0.952 . S
H246 C244 0.948 . S
H247 C236 0.952 . S
H248 C238 0.948 1_556 S
C249 C215 1.395 . S
C249 C219 1.391 . S
C250 C212 1.389 1_554 S
C250 C232 1.392 . S
C251 C222 1.392 . S
C251 C224 1.389 . S
C252 C227 1.395 . S
C252 C229 1.391 . S
H253 C213 0.951 . S
H254 C214 0.950 . S
H255 C220 0.949 . S
H256 C221 0.950 . S
H257 C225 0.951 . S
H258 C226 0.950 . S
H259 C230 0.949 . S
H260 C231 0.950 . S
H261 C235 0.950 . S
H262 C237 0.950 1_556 S
H263 C240 0.950 . S
H264 C242 0.950 . S
C265 C266 1.443 . S
C265 N269 1.376 . S
C265 C303 1.389 . S
C266 C265 1.443 . S
C266 C267 1.340 . S
C266 H306 0.951 . S
C267 C266 1.340 . S
C267 C268 1.439 . S
C267 H307 0.950 . S
C268 C267 1.439 . S
C268 N269 1.374 . S
C268 C302 1.395 . S
N269 C265 1.376 . S
N269 C268 1.374 . S
N269 Co270 2.008 . S
Co270 N269 2.008 . S
Co270 N271 1.995 . S
Co270 N276 2.008 . S
Co270 N281 1.995 . S
Co270 N286 2.282 . S
Co270 N292 2.282 . S
N271 Co270 1.995 . S
N271 C272 1.376 . S
N271 C275 1.383 . S
C272 N271 1.376 . S
C272 C273 1.446 . S
C272 C302 1.391 . S
C273 C272 1.446 . S
C273 C274 1.339 . S
C273 H308 0.949 . S
C274 C273 1.339 . S
C274 C275 1.439 . S
C274 H309 0.950 . S
C275 N271 1.383 . S
C275 C274 1.439 . S
C275 C304 1.392 . S
N276 Co270 2.008 . S
N276 C277 1.376 . S
N276 C280 1.374 . S
C277 N276 1.376 . S
C277 C278 1.443 . S
C277 C304 1.389 . S
C278 C277 1.443 . S
C278 C279 1.340 . S
C278 H310 0.951 . S
C279 C278 1.340 . S
C279 C280 1.439 . S
C279 H311 0.950 . S
C280 N276 1.374 . S
C280 C279 1.439 . S
C280 C305 1.395 . S
N281 Co270 1.995 . S
N281 C282 1.376 . S
N281 C285 1.383 . S
C282 N281 1.376 . S
C282 C283 1.446 . S
C282 C305 1.391 . S
C283 C282 1.446 . S
C283 C284 1.339 . S
C283 H312 0.949 . S
C284 C283 1.339 . S
C284 C285 1.439 . S
C284 H313 0.950 . S
C285 N281 1.383 . S
C285 C284 1.439 . S
C285 C303 1.392 . S
N286 Co270 2.282 . S
N286 C289 1.332 . S
N286 C291 1.332 . S
C287 C288 1.386 . S
C287 C290 1.388 . S
C288 C287 1.386 . S
C288 C289 1.382 . S
C288 H314 0.950 . S
C289 N286 1.332 . S
C289 C288 1.382 . S
C289 H300 0.952 . S
C290 C287 1.388 . S
C290 C291 1.382 . S
C290 H315 0.950 . S
C291 N286 1.332 . S
C291 C290 1.382 . S
C291 H301 0.948 . S
N292 Co270 2.282 . S
N292 C296 1.332 . S
N292 C297 1.332 . S
C293 C294 1.388 . S
C293 C297 1.382 . S
C293 H316 0.950 . S
C294 C293 1.388 . S
C294 C295 1.386 . S
C295 C294 1.386 . S
C295 C296 1.382 . S
C295 H317 0.950 . S
C296 N292 1.332 . S
C296 C295 1.382 . S
C296 H298 0.952 . S
C297 N292 1.332 . S
C297 C293 1.382 . S
C297 H299 0.948 . S
H298 C296 0.952 . S
H299 C297 0.948 . S
H300 C289 0.952 . S
H301 C291 0.948 . S
C302 C268 1.395 . S
C302 C272 1.391 . S
C303 C265 1.389 . S
C303 C285 1.392 . S
C304 C275 1.392 . S
C304 C277 1.389 . S
C305 C280 1.395 . S
C305 C282 1.391 . S
H306 C266 0.951 . S
H307 C267 0.950 . S
H308 C273 0.949 . S
H309 C274 0.950 . S
H310 C278 0.951 . S
H311 C279 0.950 . S
H312 C283 0.949 . S
H313 C284 0.950 . S
H314 C288 0.950 . S
H315 C290 0.950 . S
H316 C293 0.950 . S
H317 C295 0.950 . S
C318 C319 1.443 . S
C318 N322 1.376 . S
C318 C356 1.389 . S
C319 C318 1.443 . S
C319 C320 1.340 . S
C319 H359 0.951 . S
C320 C319 1.340 . S
C320 C321 1.439 . S
C320 H360 0.950 . S
C321 C320 1.439 . S
C321 N322 1.374 . S
C321 C355 1.395 . S
N322 C318 1.376 . S
N322 C321 1.374 . S
N322 Co323 2.008 . S
Co323 N322 2.008 . S
Co323 N324 1.995 . S
Co323 N329 2.008 . S
Co323 N334 1.995 . S
Co323 N339 2.282 . S
Co323 N345 2.282 . S
N324 Co323 1.995 . S
N324 C325 1.376 . S
N324 C328 1.383 . S
C325 N324 1.376 . S
C325 C326 1.446 . S
C325 C355 1.391 . S
C326 C325 1.446 . S
C326 C327 1.339 . S
C326 H361 0.949 . S
C327 C326 1.339 . S
C327 C328 1.439 . S
C327 H362 0.950 . S
C328 N324 1.383 . S
C328 C327 1.439 . S
C328 C357 1.392 . S
N329 Co323 2.008 . S
N329 C330 1.376 . S
N329 C333 1.374 . S
C330 N329 1.376 . S
C330 C331 1.443 . S
C330 C357 1.389 . S
C331 C330 1.443 . S
C331 C332 1.340 . S
C331 H363 0.951 . S
C332 C331 1.340 . S
C332 C333 1.439 . S
C332 H364 0.950 . S
C333 N329 1.374 . S
C333 C332 1.439 . S
C333 C358 1.395 . S
N334 Co323 1.995 . S
N334 C335 1.376 . S
N334 C338 1.383 . S
C335 N334 1.376 . S
C335 C336 1.446 . S
C335 C358 1.391 . S
C336 C335 1.446 . S
C336 C337 1.339 . S
C336 H365 0.949 . S
C337 C336 1.339 . S
C337 C338 1.439 . S
C337 H366 0.950 . S
C338 N334 1.383 . S
C338 C337 1.439 . S
C338 C356 1.392 . S
N339 Co323 2.282 . S
N339 C342 1.332 . S
N339 C344 1.332 . S
C340 C341 1.386 . S
C340 C343 1.388 . S
C341 C340 1.386 . S
C341 C342 1.382 . S
C341 H367 0.950 . S
C342 N339 1.332 . S
C342 C341 1.382 . S
C342 H353 0.952 . S
C343 C340 1.388 . S
C343 C344 1.382 . S
C343 H368 0.950 . S
C344 N339 1.332 . S
C344 C343 1.382 . S
C344 H354 0.948 . S
N345 Co323 2.282 . S
N345 C349 1.332 . S
N345 C350 1.332 . S
C346 C347 1.388 . S
C346 C350 1.382 . S
C346 H369 0.950 . S
C347 C346 1.388 . S
C347 C348 1.386 . S
C348 C347 1.386 . S
C348 C349 1.382 . S
C348 H370 0.950 . S
C349 N345 1.332 . S
C349 C348 1.382 . S
C349 H351 0.952 . S
C350 N345 1.332 . S
C350 C346 1.382 . S
C350 H352 0.948 . S
H351 C349 0.952 . S
H352 C350 0.948 . S
H353 C342 0.952 . S
H354 C344 0.948 . S
C355 C321 1.395 . S
C355 C325 1.391 . S
C356 C318 1.389 . S
C356 C338 1.392 . S
C357 C328 1.392 . S
C357 C330 1.389 . S
C358 C333 1.395 . S
C358 C335 1.391 . S
H359 C319 0.951 . S
H360 C320 0.950 . S
H361 C326 0.949 . S
H362 C327 0.950 . S
H363 C331 0.951 . S
H364 C332 0.950 . S
H365 C336 0.949 . S
H366 C337 0.950 . S
H367 C341 0.950 . S
H368 C343 0.950 . S
H369 C346 0.950 . S
H370 C348 0.950 . S
C371 C372 1.443 . S
C371 N375 1.376 . S
C371 C409 1.389 . S
C372 C371 1.443 . S
C372 C373 1.340 . S
C372 H412 0.951 . S
C373 C372 1.340 . S
C373 C374 1.439 . S
C373 H413 0.950 . S
C374 C373 1.439 . S
C374 N375 1.374 . S
C374 C408 1.395 . S
N375 C371 1.376 . S
N375 C374 1.374 . S
N375 Co376 2.008 . S
Co376 N375 2.008 . S
Co376 N377 1.995 . S
Co376 N382 2.008 . S
Co376 N387 1.995 . S
Co376 N392 2.282 . S
Co376 N398 2.282 . S
N377 Co376 1.995 . S
N377 C378 1.376 . S
N377 C381 1.383 . S
C378 N377 1.376 . S
C378 C379 1.446 . S
C378 C408 1.391 . S
C379 C378 1.446 . S
C379 C380 1.339 . S
C379 H414 0.949 . S
C380 C379 1.339 . S
C380 C381 1.439 . S
C380 H415 0.950 . S
C381 N377 1.383 . S
C381 C380 1.439 . S
C381 C410 1.392 . S
N382 Co376 2.008 . S
N382 C383 1.376 . S
N382 C386 1.374 . S
C383 N382 1.376 . S
C383 C384 1.443 . S
C383 C410 1.389 . S
C384 C383 1.443 . S
C384 C385 1.340 . S
C384 H416 0.951 . S
C385 C384 1.340 . S
C385 C386 1.439 . S
C385 H417 0.950 . S
C386 N382 1.374 . S
C386 C385 1.439 . S
C386 C411 1.395 . S
N387 Co376 1.995 . S
N387 C388 1.376 . S
N387 C391 1.383 . S
C388 N387 1.376 . S
C388 C389 1.446 . S
C388 C411 1.391 . S
C389 C388 1.446 . S
C389 C390 1.339 . S
C389 H418 0.949 . S
C390 C389 1.339 . S
C390 C391 1.439 . S
C390 H419 0.950 . S
C391 N387 1.383 . S
C391 C390 1.439 . S
C391 C409 1.392 . S
N392 Co376 2.282 . S
N392 C395 1.332 . S
N392 C397 1.332 . S
C393 C394 1.386 . S
C393 C396 1.388 . S
C394 C393 1.386 . S
C394 C395 1.382 . S
C394 H420 0.950 . S
C395 N392 1.332 . S
C395 C394 1.382 . S
C395 H406 0.952 . S
C396 C393 1.388 . S
C396 C397 1.382 . S
C396 H421 0.950 . S
C397 N392 1.332 . S
C397 C396 1.382 . S
C397 H407 0.948 . S
N398 Co376 2.282 . S
N398 C402 1.332 . S
N398 C403 1.332 . S
C399 C400 1.388 . S
C399 C403 1.382 . S
C399 H422 0.950 . S
C400 C399 1.388 . S
C400 C401 1.386 . S
C401 C400 1.386 . S
C401 C402 1.382 . S
C401 H423 0.950 . S
C402 N398 1.332 . S
C402 C401 1.382 . S
C402 H404 0.952 . S
C403 N398 1.332 . S
C403 C399 1.382 . S
C403 H405 0.948 . S
H404 C402 0.952 . S
H405 C403 0.948 . S
H406 C395 0.952 . S
H407 C397 0.948 . S
C408 C374 1.395 . S
C408 C378 1.391 . S
C409 C371 1.389 . S
C409 C391 1.392 . S
C410 C381 1.392 . S
C410 C383 1.389 . S
C411 C386 1.395 . S
C411 C388 1.391 . S
H412 C372 0.951 . S
H413 C373 0.950 . S
H414 C379 0.949 . S
H415 C380 0.950 . S
H416 C384 0.951 . S
H417 C385 0.950 . S
H418 C389 0.949 . S
H419 C390 0.950 . S
H420 C394 0.950 . S
H421 C396 0.950 . S
H422 C399 0.950 . S
H423 C401 0.950 . S
C424 C425 1.443 . S
C424 N428 1.376 . S
C424 C462 1.389 . S
C425 C424 1.443 . S
C425 C426 1.340 . S
C425 H465 0.951 . S
C426 C425 1.340 . S
C426 C427 1.439 . S
C426 H466 0.950 . S
C427 C426 1.439 . S
C427 N428 1.374 . S
C427 C461 1.395 . S
N428 C424 1.376 . S
N428 C427 1.374 . S
N428 Co429 2.008 . S
Co429 N428 2.008 . S
Co429 N430 1.995 . S
Co429 N435 2.008 . S
Co429 N440 1.995 . S
Co429 N445 2.282 . S
Co429 N451 2.282 . S
N430 Co429 1.995 . S
N430 C431 1.376 . S
N430 C434 1.383 . S
C431 N430 1.376 . S
C431 C432 1.446 . S
C431 C461 1.391 . S
C432 C431 1.446 . S
C432 C433 1.339 . S
C432 H467 0.949 . S
C433 C432 1.339 . S
C433 C434 1.439 . S
C433 H468 0.950 . S
C434 N430 1.383 . S
C434 C433 1.439 . S
C434 C463 1.392 . S
N435 Co429 2.008 . S
N435 C436 1.376 . S
N435 C439 1.374 . S
C436 N435 1.376 . S
C436 C437 1.443 . S
C436 C463 1.389 . S
C437 C436 1.443 . S
C437 C438 1.340 . S
C437 H469 0.951 . S
C438 C437 1.340 . S
C438 C439 1.439 . S
C438 H470 0.950 . S
C439 N435 1.374 . S
C439 C438 1.439 . S
C439 C464 1.395 . S
N440 Co429 1.995 . S
N440 C441 1.376 . S
N440 C444 1.383 . S
C441 N440 1.376 . S
C441 C442 1.446 . S
C441 C464 1.391 . S
C442 C441 1.446 . S
C442 C443 1.339 . S
C442 H471 0.949 . S
C443 C442 1.339 . S
C443 C444 1.439 . S
C443 H472 0.950 . S
C444 N440 1.383 . S
C444 C443 1.439 . S
C444 C462 1.392 . S
N445 Co429 2.282 . S
N445 C448 1.332 . S
N445 C450 1.332 . S
C446 C447 1.386 . S
C446 C449 1.388 . S
C447 C446 1.386 . S
C447 C448 1.382 . S
C447 H473 0.950 . S
C448 N445 1.332 . S
C448 C447 1.382 . S
C448 H459 0.952 . S
C449 C446 1.388 . S
C449 C450 1.382 . S
C449 H474 0.950 . S
C450 N445 1.332 . S
C450 C449 1.382 . S
C450 H460 0.948 . S
N451 Co429 2.282 . S
N451 C455 1.332 . S
N451 C456 1.332 . S
C452 C453 1.388 . S
C452 C456 1.382 . S
C452 H475 0.950 . S
C453 C452 1.388 . S
C453 C454 1.386 . S
C454 C453 1.386 . S
C454 C455 1.382 . S
C454 H476 0.950 . S
C455 N451 1.332 . S
C455 C454 1.382 . S
C455 H457 0.952 . S
C456 N451 1.332 . S
C456 C452 1.382 . S
C456 H458 0.948 . S
H457 C455 0.952 . S
H458 C456 0.948 . S
H459 C448 0.952 . S
H460 C450 0.948 . S
C461 C427 1.395 . S
C461 C431 1.391 . S
C462 C424 1.389 . S
C462 C444 1.392 . S
C463 C434 1.392 . S
C463 C436 1.389 . S
C464 C439 1.395 . S
C464 C441 1.391 . S
H465 C425 0.951 . S
H466 C426 0.950 . S
H467 C432 0.949 . S
H468 C433 0.950 . S
H469 C437 0.951 . S
H470 C438 0.950 . S
H471 C442 0.949 . S
H472 C443 0.950 . S
H473 C447 0.950 . S
H474 C449 0.950 . S
H475 C452 0.950 . S
H476 C454 0.950 . S
C477 C478 1.443 . S
C477 N481 1.376 . S
C477 C515 1.389 . S
C478 C477 1.443 . S
C478 C479 1.340 . S
C478 H518 0.951 . S
C479 C478 1.340 . S
C479 C480 1.439 . S
C479 H519 0.950 . S
C480 C479 1.439 . S
C480 N481 1.374 . S
C480 C514 1.395 . S
N481 C477 1.376 . S
N481 C480 1.374 . S
N481 Co482 2.008 . S
Co482 N481 2.008 . S
Co482 N483 1.995 . S
Co482 N488 2.008 . S
Co482 N493 1.995 . S
Co482 N498 2.282 . S
Co482 N504 2.282 . S
N483 Co482 1.995 . S
N483 C484 1.376 . S
N483 C487 1.383 . S
C484 N483 1.376 . S
C484 C485 1.446 . S
C484 C514 1.391 . S
C485 C484 1.446 . S
C485 C486 1.339 . S
C485 H520 0.949 . S
C486 C485 1.339 . S
C486 C487 1.439 . S
C486 H521 0.950 . S
C487 N483 1.383 . S
C487 C486 1.439 . S
C487 C516 1.392 . S
N488 Co482 2.008 . S
N488 C489 1.376 . S
N488 C492 1.374 . S
C489 N488 1.376 . S
C489 C490 1.443 . S
C489 C516 1.389 . S
C490 C489 1.443 . S
C490 C491 1.340 . S
C490 H522 0.951 . S
C491 C490 1.340 . S
C491 C492 1.439 . S
C491 H523 0.950 . S
C492 N488 1.374 . S
C492 C491 1.439 . S
C492 C517 1.395 . S
N493 Co482 1.995 . S
N493 C494 1.376 . S
N493 C497 1.383 . S
C494 N493 1.376 . S
C494 C495 1.446 . S
C494 C517 1.391 . S
C495 C494 1.446 . S
C495 C496 1.339 . S
C495 H524 0.949 . S
C496 C495 1.339 . S
C496 C497 1.439 . S
C496 H525 0.950 . S
C497 N493 1.383 . S
C497 C496 1.439 . S
C497 C515 1.392 . S
N498 Co482 2.282 . S
N498 C501 1.332 . S
N498 C503 1.332 . S
C499 C500 1.386 . S
C499 C502 1.388 . S
C500 C499 1.386 . S
C500 C501 1.382 . S
C500 H526 0.950 . S
C501 N498 1.332 . S
C501 C500 1.382 . S
C501 H512 0.952 . S
C502 C499 1.388 . S
C502 C503 1.382 . S
C502 H527 0.950 . S
C503 N498 1.332 . S
C503 C502 1.382 . S
C503 H513 0.948 . S
N504 Co482 2.282 . S
N504 C508 1.332 . S
N504 C509 1.332 . S
C505 C506 1.388 . S
C505 C509 1.382 . S
C505 H528 0.950 . S
C506 C505 1.388 . S
C506 C507 1.386 . S
C507 C506 1.386 . S
C507 C508 1.382 . S
C507 H529 0.950 . S
C508 N504 1.332 . S
C508 C507 1.382 . S
C508 H510 0.952 . S
C509 N504 1.332 . S
C509 C505 1.382 . S
C509 H511 0.948 . S
H510 C508 0.952 . S
H511 C509 0.948 . S
H512 C501 0.952 . S
H513 C503 0.948 . S
C514 C480 1.395 . S
C514 C484 1.391 . S
C515 C477 1.389 . S
C515 C497 1.392 . S
C516 C487 1.392 . S
C516 C489 1.389 . S
C517 C492 1.395 . S
C517 C494 1.391 . S
H518 C478 0.951 . S
H519 C479 0.950 . S
H520 C485 0.949 . S
H521 C486 0.950 . S
H522 C490 0.951 . S
H523 C491 0.950 . S
H524 C495 0.949 . S
H525 C496 0.950 . S
H526 C500 0.950 . S
H527 C502 0.950 . S
H528 C505 0.950 . S
H529 C507 0.950 . S
C530 C531 1.443 . S
C530 N534 1.376 . S
C530 C568 1.389 . S
C531 C530 1.443 . S
C531 C532 1.340 . S
C531 H571 0.951 . S
C532 C531 1.340 . S
C532 C533 1.439 . S
C532 H572 0.950 . S
C533 C532 1.439 . S
C533 N534 1.374 . S
C533 C567 1.395 . S
N534 C530 1.376 . S
N534 C533 1.374 . S
N534 Co535 2.008 . S
Co535 N534 2.008 . S
Co535 N536 1.995 . S
Co535 N541 2.008 1_545 S
Co535 N546 1.995 1_545 S
Co535 N551 2.282 1_545 S
Co535 N557 2.282 . S
N536 Co535 1.995 . S
N536 C537 1.376 . S
N536 C540 1.383 . S
C537 N536 1.376 . S
C537 C538 1.446 . S
C537 C567 1.391 . S
C538 C537 1.446 . S
C538 C539 1.339 . S
C538 H573 0.949 . S
C539 C538 1.339 . S
C539 C540 1.439 . S
C539 H574 0.950 . S
C540 N536 1.383 . S
C540 C539 1.439 . S
C540 C569 1.392 1_545 S
N541 Co535 2.008 1_565 S
N541 C542 1.376 . S
N541 C545 1.374 . S
C542 N541 1.376 . S
C542 C543 1.443 . S
C542 C569 1.389 . S
C543 C542 1.443 . S
C543 C544 1.340 . S
C543 H575 0.951 . S
C544 C543 1.340 . S
C544 C545 1.439 . S
C544 H576 0.950 . S
C545 N541 1.374 . S
C545 C544 1.439 . S
C545 C570 1.395 . S
N546 Co535 1.995 1_565 S
N546 C547 1.376 . S
N546 C550 1.383 . S
C547 N546 1.376 . S
C547 C548 1.446 . S
C547 C570 1.391 . S
C548 C547 1.446 . S
C548 C549 1.339 . S
C548 H577 0.949 . S
C549 C548 1.339 . S
C549 C550 1.439 . S
C549 H578 0.950 . S
C550 N546 1.383 . S
C550 C549 1.439 . S
C550 C568 1.392 1_565 S
N551 Co535 2.282 1_565 S
N551 C554 1.332 . S
N551 C556 1.332 1_565 S
C552 C553 1.386 . S
C552 C555 1.388 1_565 S
C553 C552 1.386 . S
C553 C554 1.382 . S
C553 H579 0.950 . S
C554 N551 1.332 . S
C554 C553 1.382 . S
C554 H565 0.952 . S
C555 C552 1.388 1_545 S
C555 C556 1.382 . S
C555 H580 0.950 . S
C556 N551 1.332 1_545 S
C556 C555 1.382 . S
C556 H566 0.948 . S
N557 Co535 2.282 . S
N557 C561 1.332 . S
N557 C562 1.332 1_545 S
C558 C559 1.388 1_565 S
C558 C562 1.382 . S
C558 H581 0.950 . S
C559 C558 1.388 1_545 S
C559 C560 1.386 . S
C560 C559 1.386 . S
C560 C561 1.382 . S
C560 H582 0.950 . S
C561 N557 1.332 . S
C561 C560 1.382 . S
C561 H563 0.952 . S
C562 N557 1.332 1_565 S
C562 C558 1.382 . S
C562 H564 0.948 . S
H563 C561 0.952 . S
H564 C562 0.948 . S
H565 C554 0.952 . S
H566 C556 0.948 . S
C567 C533 1.395 . S
C567 C537 1.391 . S
C568 C530 1.389 . S
C568 C550 1.392 1_545 S
C569 C540 1.392 1_565 S
C569 C542 1.389 . S
C570 C545 1.395 . S
C570 C547 1.391 . S
H571 C531 0.951 . S
H572 C532 0.950 . S
H573 C538 0.949 . S
H574 C539 0.950 . S
H575 C543 0.951 . S
H576 C544 0.950 . S
H577 C548 0.949 . S
H578 C549 0.950 . S
H579 C553 0.950 . S
H580 C555 0.950 . S
H581 C558 0.950 . S
H582 C560 0.950 . S
C583 C584 1.443 . S
C583 N587 1.376 . S
C583 C621 1.389 1_556 S
C584 C583 1.443 . S
C584 C585 1.340 . S
C584 H624 0.951 . S
C585 C584 1.340 . S
C585 C586 1.439 . S
C585 H625 0.950 . S
C586 C585 1.439 . S
C586 N587 1.374 . S
C586 C620 1.395 . S
N587 C583 1.376 . S
N587 C586 1.374 . S
N587 Co588 2.008 1_556 S
Co588 N587 2.008 1_554 S
Co588 N589 1.995 1_554 S
Co588 N594 2.008 . S
Co588 N599 1.995 . S
Co588 N604 2.282 . S
Co588 N610 2.282 . S
N589 Co588 1.995 1_556 S
N589 C590 1.376 . S
N589 C593 1.383 1_556 S
C590 N589 1.376 . S
C590 C591 1.446 . S
C590 C620 1.391 . S
C591 C590 1.446 . S
C591 C592 1.339 . S
C591 H626 0.949 . S
C592 C591 1.339 . S
C592 C593 1.439 1_556 S
C592 H627 0.950 . S
C593 N589 1.383 1_554 S
C593 C592 1.439 1_554 S
C593 C622 1.392 . S
N594 Co588 2.008 . S
N594 C595 1.376 . S
N594 C598 1.374 . S
C595 N594 1.376 . S
C595 C596 1.443 . S
C595 C622 1.389 . S
C596 C595 1.443 . S
C596 C597 1.340 . S
C596 H628 0.951 . S
C597 C596 1.340 . S
C597 C598 1.439 . S
C597 H629 0.950 . S
C598 N594 1.374 . S
C598 C597 1.439 . S
C598 C623 1.395 . S
N599 Co588 1.995 . S
N599 C600 1.376 . S
N599 C603 1.383 . S
C600 N599 1.376 . S
C600 C601 1.446 . S
C600 C623 1.391 . S
C601 C600 1.446 . S
C601 C602 1.339 . S
C601 H630 0.949 . S
C602 C601 1.339 . S
C602 C603 1.439 . S
C602 H631 0.950 . S
C603 N599 1.383 . S
C603 C602 1.439 . S
C603 C621 1.392 . S
N604 Co588 2.282 . S
N604 C607 1.332 . S
N604 C609 1.332 . S
C605 C606 1.386 . S
C605 C608 1.388 . S
C606 C605 1.386 . S
C606 C607 1.382 . S
C606 H632 0.950 . S
C607 N604 1.332 . S
C607 C606 1.382 . S
C607 H618 0.952 . S
C608 C605 1.388 . S
C608 C609 1.382 . S
C608 H633 0.950 1_554 S
C609 N604 1.332 . S
C609 C608 1.382 . S
C609 H619 0.948 1_554 S
N610 Co588 2.282 . S
N610 C614 1.332 1_554 S
N610 C615 1.332 . S
C611 C612 1.388 . S
C611 C615 1.382 . S
C611 H634 0.950 . S
C612 C611 1.388 . S
C612 C613 1.386 1_554 S
C613 C612 1.386 1_556 S
C613 C614 1.382 . S
C613 H635 0.950 . S
C614 N610 1.332 1_556 S
C614 C613 1.382 . S
C614 H616 0.952 . S
C615 N610 1.332 . S
C615 C611 1.382 . S
C615 H617 0.948 . S
H616 C614 0.952 . S
H617 C615 0.948 . S
H618 C607 0.952 . S
H619 C609 0.948 1_556 S
C620 C586 1.395 . S
C620 C590 1.391 . S
C621 C583 1.389 1_554 S
C621 C603 1.392 . S
C622 C593 1.392 . S
C622 C595 1.389 . S
C623 C598 1.395 . S
C623 C600 1.391 . S
H624 C584 0.951 . S
H625 C585 0.950 . S
H626 C591 0.949 . S
H627 C592 0.950 . S
H628 C596 0.951 . S
H629 C597 0.950 . S
H630 C601 0.949 . S
H631 C602 0.950 . S
H632 C606 0.950 . S
H633 C608 0.950 1_556 S
H634 C611 0.950 . S
H635 C613 0.950 . S
O636 Mg637 1.990 . S
O636 C650 1.253 . S
Mg637 O636 1.990 . S
Mg637 O640 2.180 . S
Mg637 O641 2.117 . S
Mg637 O655 2.030 . S
O638 Mg639 2.072 . S
O638 C650 1.260 . S
Mg639 O638 2.072 . S
Mg639 O640 2.099 . S
Mg639 O642 2.079 1_554 S
Mg639 O643 2.072 . S
Mg639 O645 2.099 . S
Mg639 O656 2.079 . S
O640 Mg637 2.180 . S
O640 Mg639 2.099 . S
O640 C651 1.279 . S
O641 Mg637 2.117 . S
O641 C651 1.250 . S
O642 Mg639 2.079 1_556 S
O642 C652 1.264 . S
O643 Mg639 2.072 . S
O643 C653 1.260 . S
Mg644 O645 2.180 1_556 S
Mg644 O646 2.030 . S
Mg644 O647 1.990 1_556 S
Mg644 O648 2.117 1_456 S
O645 Mg639 2.099 . S
O645 Mg644 2.180 1_554 S
O645 C654 1.279 . S
O646 Mg644 2.030 . S
O646 C652 1.248 . S
O647 Mg644 1.990 1_554 S
O647 C653 1.253 . S
O648 Mg644 2.117 1_654 S
O648 C654 1.250 1_655 S
C649 O655 1.248 . S
C649 O656 1.264 . S
C650 O636 1.253 . S
C650 O638 1.260 . S
C651 O640 1.279 . S
C651 O641 1.250 . S
C652 O642 1.264 . S
C652 O646 1.248 . S
C653 O643 1.260 . S
C653 O647 1.253 . S
C654 O645 1.279 . S
C654 O648 1.250 1_455 S
O655 Mg637 2.030 . S
O655 C649 1.248 . S
O656 Mg639 2.079 . S
O656 C649 1.264 . S
O657 Mg658 1.990 . S
O657 C671 1.253 . S
Mg658 O657 1.990 . S
Mg658 O661 2.180 . S
Mg658 O662 2.117 . S
Mg658 O676 2.030 . S
O659 Mg660 2.072 . S
O659 C671 1.260 . S
Mg660 O659 2.072 . S
Mg660 O661 2.099 . S
Mg660 O663 2.079 1_554 S
Mg660 O664 2.072 . S
Mg660 O666 2.099 . S
Mg660 O677 2.079 . S
O661 Mg658 2.180 . S
O661 Mg660 2.099 . S
O661 C672 1.279 . S
O662 Mg658 2.117 . S
O662 C672 1.250 . S
O663 Mg660 2.079 1_556 S
O663 C673 1.264 . S
O664 Mg660 2.072 . S
O664 C674 1.260 . S
Mg665 O666 2.180 1_456 S
Mg665 O667 2.030 1_455 S
Mg665 O668 1.990 1_556 S
Mg665 O669 2.117 . S
O666 Mg660 2.099 . S
O666 Mg665 2.180 1_654 S
O666 C675 1.279 1_655 S
O667 Mg665 2.030 1_655 S
O667 C673 1.248 . S
O668 Mg665 1.990 1_554 S
O668 C674 1.253 1_455 S
O669 Mg665 2.117 . S
O669 C675 1.250 1_556 S
C670 O676 1.248 . S
C670 O677 1.264 . S
C671 O657 1.253 . S
C671 O659 1.260 . S
C672 O661 1.279 . S
C672 O662 1.250 . S
C673 O663 1.264 . S
C673 O667 1.248 . S
C674 O664 1.260 . S
C674 O668 1.253 1_655 S
C675 O666 1.279 1_455 S
C675 O669 1.250 1_554 S
O676 Mg658 2.030 . S
O676 C670 1.248 . S
O677 Mg660 2.079 . S
O677 C670 1.264 . S
O678 Mg679 1.990 . S
O678 C692 1.253 . S
Mg679 O678 1.990 . S
Mg679 O682 2.180 . S
Mg679 O683 2.117 . S
Mg679 O697 2.030 . S
O680 Mg681 2.072 . S
O680 C692 1.260 . S
Mg681 O680 2.072 . S
Mg681 O682 2.099 . S
Mg681 O684 2.079 1_455 S
Mg681 O685 2.072 . S
Mg681 O687 2.099 . S
Mg681 O698 2.079 . S
O682 Mg679 2.180 . S
O682 Mg681 2.099 . S
O682 C693 1.279 . S
O683 Mg679 2.117 . S
O683 C693 1.250 . S
O684 Mg681 2.079 1_655 S
O684 C694 1.264 . S
O685 Mg681 2.072 . S
O685 C695 1.260 . S
Mg686 O687 2.180 1_655 S
Mg686 O688 2.030 . S
Mg686 O689 1.990 1_655 S
Mg686 O690 2.117 1_665 S
O687 Mg681 2.099 . S
O687 Mg686 2.180 1_455 S
O687 C696 1.279 1_565 S
O688 Mg686 2.030 . S
O688 C694 1.248 . S
O689 Mg686 1.990 1_455 S
O689 C695 1.253 . S
O690 Mg686 2.117 1_445 S
O690 C696 1.250 . S
C691 O697 1.248 . S
C691 O698 1.264 . S
C692 O678 1.253 . S
C692 O680 1.260 . S
C693 O682 1.279 . S
C693 O683 1.250 . S
C694 O684 1.264 . S
C694 O688 1.248 . S
C695 O685 1.260 . S
C695 O689 1.253 . S
C696 O687 1.279 1_545 S
C696 O690 1.250 . S
O697 Mg679 2.030 . S
O697 C691 1.248 . S
O698 Mg681 2.079 . S
O698 C691 1.264 . S
O699 Mg700 1.990 . S
O699 C713 1.253 . S
Mg700 O699 1.990 . S
Mg700 O703 2.180 . S
Mg700 O704 2.117 . S
Mg700 O718 2.030 . S
O701 Mg702 2.072 . S
O701 C713 1.260 . S
Mg702 O701 2.072 . S
Mg702 O703 2.099 . S
Mg702 O705 2.079 . S
Mg702 O706 2.072 . S
Mg702 O708 2.099 . S
Mg702 O719 2.079 . S
O703 Mg700 2.180 . S
O703 Mg702 2.099 . S
O703 C714 1.279 . S
O704 Mg700 2.117 . S
O704 C714 1.250 . S
O705 Mg702 2.079 . S
O705 C715 1.264 . S
O706 Mg702 2.072 . S
O706 C716 1.260 1_655 S
Mg707 O708 2.180 . S
Mg707 O709 2.030 1_655 S
Mg707 O710 1.990 1_655 S
Mg707 O711 2.117 . S
O708 Mg702 2.099 . S
O708 Mg707 2.180 . S
O708 C717 1.279 . S
O709 Mg707 2.030 1_455 S
O709 C715 1.248 1_455 S
O710 Mg707 1.990 1_455 S
O710 C716 1.253 . S
O711 Mg707 2.117 . S
O711 C717 1.250 . S
C712 O718 1.248 . S
C712 O719 1.264 . S
C713 O699 1.253 . S
C713 O701 1.260 . S
C714 O703 1.279 . S
C714 O704 1.250 . S
C715 O705 1.264 . S
C715 O709 1.248 1_655 S
C716 O706 1.260 1_455 S
C716 O710 1.253 . S
C717 O708 1.279 . S
C717 O711 1.250 . S
O718 Mg700 2.030 . S
O718 C712 1.248 . S
O719 Mg702 2.079 . S
O719 C712 1.264 . S
O720 Mg721 1.990 . S
O720 C734 1.253 . S
Mg721 O720 1.990 . S
Mg721 O724 2.180 . S
Mg721 O725 2.117 . S
Mg721 O739 2.030 . S
O722 Mg723 2.072 . S
O722 C734 1.260 . S
Mg723 O722 2.072 . S
Mg723 O724 2.099 . S
Mg723 O726 2.079 . S
Mg723 O727 2.072 . S
Mg723 O729 2.099 . S
Mg723 O740 2.079 . S
O724 Mg721 2.180 . S
O724 Mg723 2.099 . S
O724 C735 1.279 . S
O725 Mg721 2.117 . S
O725 C735 1.250 . S
O726 Mg723 2.079 . S
O726 C736 1.264 . S
O727 Mg723 2.072 . S
O727 C737 1.260 1_565 S
Mg728 O729 2.180 . S
Mg728 O730 2.030 . S
Mg728 O731 1.990 1_565 S
Mg728 O732 2.117 . S
O729 Mg723 2.099 . S
O729 Mg728 2.180 . S
O729 C738 1.279 . S
O730 Mg728 2.030 . S
O730 C736 1.248 . S
O731 Mg728 1.990 1_545 S
O731 C737 1.253 . S
O732 Mg728 2.117 . S
O732 C738 1.250 . S
C733 O739 1.248 . S
C733 O740 1.264 . S
C734 O720 1.253 . S
C734 O722 1.260 . S
C735 O724 1.279 . S
C735 O725 1.250 . S
C736 O726 1.264 . S
C736 O730 1.248 . S
C737 O727 1.260 1_545 S
C737 O731 1.253 . S
C738 O729 1.279 . S
C738 O732 1.250 . S
O739 Mg721 2.030 . S
O739 C733 1.248 . S
O740 Mg723 2.079 . S
O740 C733 1.264 . S
O741 Mg742 1.990 . S
O741 C755 1.253 . S
Mg742 O741 1.990 . S
Mg742 O745 2.180 . S
Mg742 O746 2.117 . S
Mg742 O760 2.030 . S
O743 Mg744 2.072 . S
O743 C755 1.260 . S
Mg744 O743 2.072 . S
Mg744 O745 2.099 . S
Mg744 O747 2.079 . S
Mg744 O748 2.072 . S
Mg744 O750 2.099 . S
Mg744 O761 2.079 . S
O745 Mg742 2.180 . S
O745 Mg744 2.099 . S
O745 C756 1.279 . S
O746 Mg742 2.117 . S
O746 C756 1.250 . S
O747 Mg744 2.079 . S
O747 C757 1.264 . S
O748 Mg744 2.072 . S
O748 C758 1.260 . S
Mg749 O750 2.180 . S
Mg749 O751 2.030 . S
Mg749 O752 1.990 . S
Mg749 O753 2.117 . S
O750 Mg744 2.099 . S
O750 Mg749 2.180 . S
O750 C759 1.279 . S
O751 Mg749 2.030 . S
O751 C757 1.248 . S
O752 Mg749 1.990 . S
O752 C758 1.253 . S
O753 Mg749 2.117 . S
O753 C759 1.250 . S
C754 O760 1.248 . S
C754 O761 1.264 . S
C755 O741 1.253 . S
C755 O743 1.260 . S
C756 O745 1.279 . S
C756 O746 1.250 . S
C757 O747 1.264 . S
C757 O751 1.248 . S
C758 O748 1.260 . S
C758 O752 1.253 . S
C759 O750 1.279 . S
C759 O753 1.250 . S
O760 Mg742 2.030 . S
O760 C754 1.248 . S
O761 Mg744 2.079 . S
O761 C754 1.264 . S
O762 Mg763 1.990 . S
O762 C776 1.253 . S
Mg763 O762 1.990 . S
Mg763 O766 2.180 . S
Mg763 O767 2.117 . S
Mg763 O781 2.030 . S
O764 Mg765 2.072 . S
O764 C776 1.260 . S
Mg765 O764 2.072 . S
Mg765 O766 2.099 . S
Mg765 O768 2.079 . S
Mg765 O769 2.072 1_556 S
Mg765 O771 2.099 . S
Mg765 O782 2.079 . S
O766 Mg763 2.180 . S
O766 Mg765 2.099 . S
O766 C777 1.279 . S
O767 Mg763 2.117 . S
O767 C777 1.250 . S
O768 Mg765 2.079 . S
O768 C778 1.264 1_556 S
O769 Mg765 2.072 1_554 S
O769 C779 1.260 . S
Mg770 O771 2.180 1_554 S
Mg770 O772 2.030 . S
Mg770 O773 1.990 . S
Mg770 O774 2.117 1_554 S
O771 Mg765 2.099 . S
O771 Mg770 2.180 1_556 S
O771 C780 1.279 . S
O772 Mg770 2.030 . S
O772 C778 1.248 . S
O773 Mg770 1.990 . S
O773 C779 1.253 . S
O774 Mg770 2.117 1_556 S
O774 C780 1.250 . S
C775 O781 1.248 . S
C775 O782 1.264 . S
C776 O762 1.253 . S
C776 O764 1.260 . S
C777 O766 1.279 . S
C777 O767 1.250 . S
C778 O768 1.264 1_554 S
C778 O772 1.248 . S
C779 O769 1.260 . S
C779 O773 1.253 . S
C780 O771 1.279 . S
C780 O774 1.250 . S
O781 Mg763 2.030 . S
O781 C775 1.248 . S
O782 Mg765 2.079 . S
O782 C775 1.264 . S
O783 Mg784 1.990 . S
O783 C797 1.253 . S
Mg784 O783 1.990 . S
Mg784 O787 2.180 . S
Mg784 O788 2.117 . S
Mg784 O802 2.030 . S
O785 Mg786 2.072 . S
O785 C797 1.260 . S
Mg786 O785 2.072 . S
Mg786 O787 2.099 . S
Mg786 O789 2.079 . S
Mg786 O790 2.072 . S
Mg786 O792 2.099 . S
Mg786 O803 2.079 . S
O787 Mg784 2.180 . S
O787 Mg786 2.099 . S
O787 C798 1.279 . S
O788 Mg784 2.117 . S
O788 C798 1.250 . S
O789 Mg786 2.079 . S
O789 C799 1.264 . S
O790 Mg786 2.072 . S
O790 C800 1.260 . S
Mg791 O792 2.180 . S
Mg791 O793 2.030 . S
Mg791 O794 1.990 . S
Mg791 O795 2.117 1_556 S
O792 Mg786 2.099 . S
O792 Mg791 2.180 . S
O792 C801 1.279 1_556 S
O793 Mg791 2.030 . S
O793 C799 1.248 . S
O794 Mg791 1.990 . S
O794 C800 1.253 . S
O795 Mg791 2.117 1_554 S
O795 C801 1.250 . S
C796 O802 1.248 . S
C796 O803 1.264 . S
C797 O783 1.253 . S
C797 O785 1.260 . S
C798 O787 1.279 . S
C798 O788 1.250 . S
C799 O789 1.264 . S
C799 O793 1.248 . S
C800 O790 1.260 . S
C800 O794 1.253 . S
C801 O792 1.279 1_554 S
C801 O795 1.250 . S
O802 Mg784 2.030 . S
O802 C796 1.248 . S
O803 Mg786 2.079 . S
O803 C796 1.264 . S
C804 C805 1.387 . S
C804 H808 0.950 . S
C804 C813 1.390 . S
C805 C804 1.387 . S
C805 C807 1.387 . S
H806 C813 0.950 . S
C807 C805 1.387 . S
C807 C809 1.390 . S
C807 H811 0.950 . S
H808 C804 0.950 . S
C809 C807 1.390 . S
C809 C810 1.387 . S
C809 H812 0.950 . S
C810 C809 1.387 . S
C810 C813 1.387 . S
H811 C807 0.950 . S
H812 C809 0.950 . S
C813 C804 1.390 . S
C813 H806 0.950 . S
C813 C810 1.387 . S
C814 C815 1.387 1_655 S
C814 H818 0.950 . S
C814 C823 1.390 . S
C815 C814 1.387 1_455 S
C815 C817 1.387 . S
H816 C823 0.950 . S
C817 C815 1.387 . S
C817 C819 1.390 . S
C817 H821 0.950 . S
H818 C814 0.950 . S
C819 C817 1.390 . S
C819 C820 1.392 . S
C819 H822 0.950 . S
C820 C819 1.392 . S
C820 C823 1.386 1_455 S
H821 C817 0.950 . S
H822 C819 0.950 . S
C823 C814 1.390 . S
C823 H816 0.950 . S
C823 C820 1.386 1_655 S
C824 C825 1.387 . S
C824 H828 0.950 . S
C824 C833 1.390 . S
C825 C824 1.387 . S
C825 C827 1.387 . S
H826 C833 0.950 . S
C827 C825 1.387 . S
C827 C829 1.390 . S
C827 H831 0.950 . S
H828 C824 0.950 . S
C829 C827 1.390 . S
C829 C830 1.387 . S
C829 H832 0.950 . S
C830 C829 1.387 . S
C830 C833 1.387 . S
H831 C827 0.950 . S
H832 C829 0.950 . S
C833 C824 1.390 . S
C833 H826 0.950 . S
C833 C830 1.387 . S
C834 C835 1.387 . S
C834 H838 0.950 . S
C834 C843 1.390 . S
C835 C834 1.387 . S
C835 C837 1.387 1_455 S
H836 C843 0.950 . S
C837 C835 1.387 1_655 S
C837 C839 1.390 . S
C837 H841 0.950 . S
H838 C834 0.950 . S
C839 C837 1.390 . S
C839 C840 1.387 . S
C839 H842 0.950 . S
C840 C839 1.387 . S
C840 C843 1.387 1_655 S
H841 C837 0.950 . S
H842 C839 0.950 . S
C843 C834 1.390 . S
C843 H836 0.950 . S
C843 C840 1.387 1_455 S
C844 C845 1.387 . S
C844 H848 0.950 . S
C844 C853 1.390 . S
C845 C844 1.387 . S
C845 C847 1.387 . S
H846 C853 0.950 . S
C847 C845 1.387 . S
C847 C849 1.390 . S
C847 H851 0.950 1_545 S
H848 C844 0.950 . S
C849 C847 1.390 . S
C849 C850 1.387 . S
C849 H852 0.950 1_545 S
C850 C849 1.387 . S
C850 C853 1.387 . S
H851 C847 0.950 1_565 S
H852 C849 0.950 1_565 S
C853 C844 1.390 . S
C853 H846 0.950 . S
C853 C850 1.387 . S
C854 C855 1.387 . S
C854 H858 0.950 . S
C854 C863 1.390 . S
C855 C854 1.387 . S
C855 C857 1.387 . S
H856 C863 0.950 . S
C857 C855 1.387 . S
C857 C859 1.390 . S
C857 H861 0.950 . S
H858 C854 0.950 . S
C859 C857 1.390 . S
C859 C860 1.387 . S
C859 H862 0.950 . S
C860 C859 1.387 . S
C860 C863 1.387 . S
H861 C857 0.950 . S
H862 C859 0.950 . S
C863 C854 1.390 . S
C863 H856 0.950 . S
C863 C860 1.387 . S
C864 C865 1.387 . S
C864 H868 0.950 . S
C864 C873 1.390 . S
C865 C864 1.387 . S
C865 C867 1.387 1_565 S
H866 C873 0.950 . S
C867 C865 1.387 1_545 S
C867 C869 1.390 . S
C867 H871 0.950 . S
H868 C864 0.950 . S
C869 C867 1.390 . S
C869 C870 1.387 1_545 S
C869 H872 0.950 . S
C870 C869 1.387 1_565 S
C870 C873 1.387 . S
H871 C867 0.950 . S
H872 C869 0.950 . S
C873 C864 1.390 . S
C873 H866 0.950 . S
C873 C870 1.387 . S
C874 C875 1.387 . S
C874 H878 0.950 . S
C874 C883 1.390 . S
C875 C874 1.387 . S
C875 C877 1.387 . S
H876 C883 0.950 . S
C877 C875 1.387 . S
C877 C879 1.390 . S
C877 H881 0.950 . S
H878 C874 0.950 . S
C879 C877 1.390 . S
C879 C880 1.387 . S
C879 H882 0.950 . S
C880 C879 1.387 . S
C880 C883 1.387 . S
H881 C877 0.950 . S
H882 C879 0.950 . S
C883 C874 1.390 . S
C883 H876 0.950 . S
C883 C880 1.387 . S
C884 C885 1.387 . S
C884 H888 0.950 . S
C884 C893 1.390 . S
C885 C884 1.387 . S
C885 C887 1.387 . S
H886 C893 0.950 1_556 S
C887 C885 1.387 . S
C887 C889 1.390 . S
C887 H891 0.950 . S
H888 C884 0.950 . S
C889 C887 1.390 . S
C889 C890 1.387 . S
C889 H892 0.950 . S
C890 C889 1.387 . S
C890 C893 1.387 . S
H891 C887 0.950 . S
H892 C889 0.950 . S
C893 C884 1.390 . S
C893 H886 0.950 1_554 S
C893 C890 1.387 . S
C894 C895 1.387 . S
C894 H898 0.950 . S
C894 C903 1.390 . S
C895 C894 1.387 . S
C895 C897 1.387 . S
H896 C903 0.950 . S
C897 C895 1.387 . S
C897 C899 1.390 . S
C897 H901 0.950 . S
H898 C894 0.950 . S
C899 C897 1.390 . S
C899 C900 1.387 . S
C899 H902 0.950 . S
C900 C899 1.387 . S
C900 C903 1.387 . S
H901 C897 0.950 . S
H902 C899 0.950 . S
C903 C894 1.390 . S
C903 H896 0.950 . S
C903 C900 1.387 . S
C904 C905 1.387 . S
C904 H908 0.950 . S
C904 C913 1.390 . S
C905 C904 1.387 . S
C905 C907 1.387 . S
H906 C913 0.950 . S
C907 C905 1.387 . S
C907 C909 1.390 . S
C907 H911 0.950 . S
H908 C904 0.950 . S
C909 C907 1.390 . S
C909 C910 1.387 . S
C909 H912 0.950 . S
C910 C909 1.387 . S
C910 C913 1.387 . S
H911 C907 0.950 . S
H912 C909 0.950 . S
C913 C904 1.390 . S
C913 H906 0.950 . S
C913 C910 1.387 . S
C914 C915 1.387 . S
C914 H918 0.950 . S
C914 C923 1.390 . S
C915 C914 1.387 . S
C915 C917 1.387 . S
H916 C923 0.950 . S
C917 C915 1.387 . S
C917 C919 1.390 . S
C917 H921 0.950 . S
H918 C914 0.950 . S
C919 C917 1.390 . S
C919 C920 1.387 . S
C919 H922 0.950 . S
C920 C919 1.387 . S
C920 C923 1.387 . S
H921 C917 0.950 . S
H922 C919 0.950 . S
C923 C914 1.390 . S
C923 H916 0.950 . S
C923 C920 1.387 . S
C924 C925 1.387 . S
C924 H928 0.950 . S
C924 C933 1.390 . S
C925 C924 1.387 . S
C925 C927 1.387 . S
H926 C933 0.950 . S
C927 C925 1.387 . S
C927 C929 1.390 . S
C927 H931 0.950 . S
H928 C924 0.950 . S
C929 C927 1.390 . S
C929 C930 1.387 . S
C929 H932 0.950 . S
C930 C929 1.387 . S
C930 C933 1.387 . S
H931 C927 0.950 . S
H932 C929 0.950 . S
C933 C924 1.390 . S
C933 H926 0.950 . S
C933 C930 1.387 . S
C934 C935 1.387 . S
C934 H938 0.950 . S
C934 C943 1.390 . S
C935 C934 1.387 . S
C935 C937 1.387 . S
H936 C943 0.950 . S
C937 C935 1.387 . S
C937 C939 1.390 . S
C937 H941 0.950 . S
H938 C934 0.950 . S
C939 C937 1.390 . S
C939 C940 1.387 . S
C939 H942 0.950 . S
C940 C939 1.387 . S
C940 C943 1.387 . S
H941 C937 0.950 . S
H942 C939 0.950 . S
C943 C934 1.390 . S
C943 H936 0.950 . S
C943 C940 1.387 . S
C944 C945 1.387 . S
C944 H948 0.950 . S
C944 C953 1.390 . S
C945 C944 1.387 . S
C945 C947 1.387 . S
H946 C953 0.950 . S
C947 C945 1.387 . S
C947 C949 1.390 . S
C947 H951 0.950 . S
H948 C944 0.950 . S
C949 C947 1.390 . S
C949 C950 1.387 . S
C949 H952 0.950 . S
C950 C949 1.387 . S
C950 C953 1.387 . S
H951 C947 0.950 . S
H952 C949 0.950 . S
C953 C944 1.390 . S
C953 H946 0.950 . S
C953 C950 1.387 . S
C954 C955 1.387 . S
C954 H958 0.950 . S
C954 C963 1.390 . S
C955 C954 1.387 . S
C955 C957 1.387 . S
H956 C963 0.950 . S
C957 C955 1.387 . S
C957 C959 1.390 . S
C957 H961 0.950 . S
H958 C954 0.950 . S
C959 C957 1.390 . S
C959 C960 1.387 . S
C959 H962 0.950 . S
C960 C959 1.387 . S
C960 C963 1.387 . S
H961 C957 0.950 . S
H962 C959 0.950 . S
C963 C954 1.390 . S
C963 H956 0.950 . S
C963 C960 1.387 . S
C964 C965 1.387 . S
C964 H968 0.950 . S
C964 C973 1.390 . S
C965 C964 1.387 . S
C965 C967 1.387 . S
H966 C973 0.950 . S
C967 C965 1.387 . S
C967 C969 1.390 . S
C967 H971 0.950 . S
H968 C964 0.950 . S
C969 C967 1.390 . S
C969 C970 1.387 . S
C969 H972 0.950 . S
C970 C969 1.387 . S
C970 C973 1.387 . S
H971 C967 0.950 . S
H972 C969 0.950 . S
C973 C964 1.390 . S
C973 H966 0.950 . S
C973 C970 1.387 . S
C974 C975 1.387 . S
C974 H978 0.950 . S
C974 C983 1.390 . S
C975 C974 1.387 . S
C975 C977 1.387 . S
H976 C983 0.950 . S
C977 C975 1.387 . S
C977 C979 1.390 . S
C977 H981 0.950 1_565 S
H978 C974 0.950 . S
C979 C977 1.390 . S
C979 C980 1.387 . S
C979 H982 0.950 1_565 S
C980 C979 1.387 . S
C980 C983 1.387 . S
H981 C977 0.950 1_545 S
H982 C979 0.950 1_545 S
C983 C974 1.390 . S
C983 H976 0.950 . S
C983 C980 1.387 . S
C984 C985 1.387 . S
C984 H988 0.950 . S
C984 C993 1.390 . S
C985 C984 1.387 . S
C985 C987 1.387 . S
H986 C993 0.950 . S
C987 C985 1.387 . S
C987 C989 1.390 . S
C987 H991 0.950 . S
H988 C984 0.950 . S
C989 C987 1.390 . S
C989 C990 1.387 . S
C989 H992 0.950 . S
C990 C989 1.387 . S
C990 C993 1.387 . S
H991 C987 0.950 . S
H992 C989 0.950 . S
C993 C984 1.390 . S
C993 H986 0.950 . S
C993 C990 1.387 . S
C994 C995 1.387 . S
C994 H998 0.950 . S
C994 C1003 1.390 . S
C995 C994 1.387 . S
C995 C997 1.387 1_545 S
H996 C1003 0.950 . S
C997 C995 1.387 1_565 S
C997 C999 1.390 . S
C997 H1001 0.950 . S
H998 C994 0.950 . S
C999 C997 1.390 . S
C999 C1000 1.387 1_565 S
C999 H1002 0.950 . S
C1000 C999 1.387 1_545 S
C1000 C1003 1.387 . S
H1001 C997 0.950 . S
H1002 C999 0.950 . S
C1003 C994 1.390 . S
C1003 H996 0.950 . S
C1003 C1000 1.387 . S
C1004 C1005 1.387 . S
C1004 H1008 0.950 . S
C1004 C1013 1.390 . S
C1005 C1004 1.387 . S
C1005 C1007 1.387 . S
H1006 C1013 0.950 . S
C1007 C1005 1.387 . S
C1007 C1009 1.390 . S
C1007 H1011 0.950 . S
H1008 C1004 0.950 . S
C1009 C1007 1.390 . S
C1009 C1010 1.387 . S
C1009 H1012 0.950 . S
C1010 C1009 1.387 . S
C1010 C1013 1.387 . S
H1011 C1007 0.950 . S
H1012 C1009 0.950 . S
C1013 C1004 1.390 . S
C1013 H1006 0.950 . S
C1013 C1010 1.387 . S
C1014 C1015 1.387 1_554 S
C1014 H1018 0.950 . S
C1014 C1023 1.390 . S
C1015 C1014 1.387 1_556 S
C1015 C1017 1.387 . S
H1016 C1023 0.950 . S
C1017 C1015 1.387 . S
C1017 C1019 1.390 . S
C1017 H1021 0.950 . S
H1018 C1014 0.950 . S
C1019 C1017 1.390 . S
C1019 C1020 1.387 . S
C1019 H1022 0.950 . S
C1020 C1019 1.387 . S
C1020 C1023 1.387 1_556 S
H1021 C1017 0.950 . S
H1022 C1019 0.950 . S
C1023 C1014 1.390 . S
C1023 H1016 0.950 . S
C1023 C1020 1.387 1_554 S
C1024 C1025 1.387 1_556 S
C1024 H1028 0.950 . S
C1024 C1033 1.390 . S
C1025 C1024 1.387 1_554 S
C1025 C1027 1.387 . S
H1026 C1033 0.950 . S
C1027 C1025 1.387 . S
C1027 C1029 1.390 . S
C1027 H1031 0.950 . S
H1028 C1024 0.950 . S
C1029 C1027 1.390 . S
C1029 C1030 1.387 . S
C1029 H1032 0.950 . S
C1030 C1029 1.387 . S
C1030 C1033 1.387 1_554 S
H1031 C1027 0.950 . S
H1032 C1029 0.950 . S
C1033 C1024 1.390 . S
C1033 H1026 0.950 . S
C1033 C1030 1.387 1_556 S
C1034 C1035 1.387 . S
C1034 H1038 0.950 1_554 S
C1034 C1043 1.390 1_554 S
C1035 C1034 1.387 . S
C1035 C1037 1.387 . S
H1036 C1043 0.950 . S
C1037 C1035 1.387 . S
C1037 C1039 1.390 . S
C1037 H1041 0.950 . S
H1038 C1034 0.950 1_556 S
C1039 C1037 1.390 . S
C1039 C1040 1.387 . S
C1039 H1042 0.950 . S
C1040 C1039 1.387 . S
C1040 C1043 1.387 1_554 S
H1041 C1037 0.950 . S
H1042 C1039 0.950 . S
C1043 C1034 1.390 1_556 S
C1043 H1036 0.950 . S
C1043 C1040 1.387 1_556 S
C1044 C1045 1.387 . S
C1044 H1048 0.950 . S
C1044 C1053 1.390 . S
C1045 C1044 1.387 . S
C1045 C1047 1.387 . S
H1046 C1053 0.950 . S
C1047 C1045 1.387 . S
C1047 C1049 1.390 . S
C1047 H1051 0.950 . S
H1048 C1044 0.950 . S
C1049 C1047 1.390 . S
C1049 C1050 1.387 . S
C1049 H1052 0.950 . S
C1050 C1049 1.387 . S
C1050 C1053 1.387 . S
H1051 C1047 0.950 . S
H1052 C1049 0.950 . S
C1053 C1044 1.390 . S
C1053 H1046 0.950 . S
C1053 C1050 1.387 . S
C1054 C1055 1.387 . S
C1054 H1058 0.950 . S
C1054 C1063 1.390 1_455 S
C1055 C1054 1.387 . S
C1055 C1057 1.387 . S
H1056 C1063 0.950 . S
C1057 C1055 1.387 . S
C1057 C1059 1.390 1_455 S
C1057 H1061 0.950 . S
H1058 C1054 0.950 . S
C1059 C1057 1.390 1_655 S
C1059 C1060 1.387 . S
C1059 H1062 0.950 . S
C1060 C1059 1.387 . S
C1060 C1063 1.387 . S
H1061 C1057 0.950 . S
H1062 C1059 0.950 . S
C1063 C1054 1.390 1_655 S
C1063 H1056 0.950 . S
C1063 C1060 1.387 . S
C1064 C1065 1.387 . S
C1064 H1068 0.950 . S
C1064 C1073 1.390 . S
C1065 C1064 1.387 . S
C1065 C1067 1.387 . S
H1066 C1073 0.950 . S
C1067 C1065 1.387 . S
C1067 C1069 1.395 . S
C1067 H1071 0.950 1_455 S
H1068 C1064 0.950 . S
C1069 C1067 1.395 . S
C1069 C1070 1.394 . S
C1069 H1072 0.938 1_455 S
C1070 C1069 1.394 . S
C1070 C1073 1.387 . S
H1071 C1067 0.950 1_655 S
H1072 C1069 0.938 1_655 S
C1073 C1064 1.390 . S
C1073 H1066 0.950 . S
C1073 C1070 1.387 . S
C1074 C1075 1.387 . S
C1074 H1078 0.950 . S
C1074 C1083 1.390 . S
C1075 C1074 1.387 . S
C1075 C1077 1.387 1_655 S
H1076 C1083 0.950 . S
C1077 C1075 1.387 1_455 S
C1077 C1079 1.390 . S
C1077 H1081 0.950 . S
H1078 C1074 0.950 . S
C1079 C1077 1.390 . S
C1079 C1080 1.387 1_455 S
C1079 H1082 0.950 . S
C1080 C1079 1.387 1_655 S
C1080 C1083 1.387 . S
H1081 C1077 0.950 . S
H1082 C1079 0.950 . S
C1083 C1074 1.390 . S
C1083 H1076 0.950 . S
C1083 C1080 1.387 . S
C1084 C1085 1.387 . S
C1084 H1088 0.950 1_545 S
C1084 C1093 1.390 . S
C1085 C1084 1.387 . S
C1085 C1087 1.387 . S
H1086 C1093 0.950 1_565 S
C1087 C1085 1.387 . S
C1087 C1089 1.390 . S
C1087 H1091 0.950 . S
H1088 C1084 0.950 1_565 S
C1089 C1087 1.390 . S
C1089 C1090 1.387 . S
C1089 H1092 0.950 . S
C1090 C1089 1.387 . S
C1090 C1093 1.387 . S
H1091 C1087 0.950 . S
H1092 C1089 0.950 . S
C1093 C1084 1.390 . S
C1093 H1086 0.950 1_545 S
C1093 C1090 1.387 . S
C1094 C1095 1.387 . S
C1094 H1098 0.950 . S
C1094 C1103 1.390 . S
C1095 C1094 1.387 . S
C1095 C1097 1.387 . S
H1096 C1103 0.950 . S
C1097 C1095 1.387 . S
C1097 C1099 1.390 . S
C1097 H1101 0.950 . S
H1098 C1094 0.950 . S
C1099 C1097 1.390 . S
C1099 C1100 1.387 . S
C1099 H1102 0.950 . S
C1100 C1099 1.387 . S
C1100 C1103 1.387 . S
H1101 C1097 0.950 . S
H1102 C1099 0.950 . S
C1103 C1094 1.390 . S
C1103 H1096 0.950 . S
C1103 C1100 1.387 . S
C1104 C1105 1.387 1_545 S
C1104 H1108 0.950 . S
C1104 C1113 1.390 1_545 S
C1105 C1104 1.387 1_565 S
C1105 C1107 1.387 . S
H1106 C1113 0.950 1_545 S
C1107 C1105 1.387 . S
C1107 C1109 1.390 . S
C1107 H1111 0.950 . S
H1108 C1104 0.950 . S
C1109 C1107 1.390 . S
C1109 C1110 1.387 . S
C1109 H1112 0.950 . S
C1110 C1109 1.387 . S
C1110 C1113 1.387 . S
H1111 C1107 0.950 . S
H1112 C1109 0.950 . S
C1113 C1104 1.390 1_565 S
C1113 H1106 0.950 1_565 S
C1113 C1110 1.387 . S
C1114 C1115 1.387 . S
C1114 H1118 0.950 . S
C1114 C1123 1.390 . S
C1115 C1114 1.387 . S
C1115 C1117 1.387 . S
H1116 C1123 0.950 . S
C1117 C1115 1.387 . S
C1117 C1119 1.390 . S
C1117 H1121 0.950 . S
H1118 C1114 0.950 . S
C1119 C1117 1.390 . S
C1119 C1120 1.387 . S
C1119 H1122 0.950 . S
C1120 C1119 1.387 . S
C1120 C1123 1.387 . S
H1121 C1117 0.950 . S
H1122 C1119 0.950 . S
C1123 C1114 1.390 . S
C1123 H1116 0.950 . S
C1123 C1120 1.387 . S
C1124 C1125 1.387 . S
C1124 H1128 0.950 . S
C1124 C1133 1.390 . S
C1125 C1124 1.387 . S
C1125 C1127 1.387 . S
H1126 C1133 0.950 . S
C1127 C1125 1.387 . S
C1127 C1129 1.390 1_554 S
C1127 H1131 0.950 1_554 S
H1128 C1124 0.950 . S
C1129 C1127 1.390 1_556 S
C1129 C1130 1.387 1_556 S
C1129 H1132 0.950 . S
C1130 C1129 1.387 1_554 S
C1130 C1133 1.387 . S
H1131 C1127 0.950 1_556 S
H1132 C1129 0.950 . S
C1133 C1124 1.390 . S
C1133 H1126 0.950 . S
C1133 C1130 1.387 . S
C1134 C1135 1.387 . S
C1134 H1138 0.950 . S
C1134 C1143 1.390 . S
C1135 C1134 1.387 . S
C1135 C1137 1.387 . S
H1136 C1143 0.950 . S
C1137 C1135 1.387 . S
C1137 C1139 1.390 . S
C1137 H1141 0.950 . S
H1138 C1134 0.950 . S
C1139 C1137 1.390 . S
C1139 C1140 1.387 . S
C1139 H1142 0.950 . S
C1140 C1139 1.387 . S
C1140 C1143 1.387 . S
H1141 C1137 0.950 . S
H1142 C1139 0.950 . S
C1143 C1134 1.390 . S
C1143 H1136 0.950 . S
C1143 C1140 1.387 . S
C1144 C1145 1.387 . S
C1144 H1148 0.950 . S
C1144 C1153 1.390 . S
C1145 C1144 1.387 . S
C1145 C1147 1.387 . S
H1146 C1153 0.950 . S
C1147 C1145 1.387 . S
C1147 C1149 1.390 . S
C1147 H1151 0.950 . S
H1148 C1144 0.950 . S
C1149 C1147 1.390 . S
C1149 C1150 1.387 . S
C1149 H1152 0.950 . S
C1150 C1149 1.387 . S
C1150 C1153 1.387 . S
H1151 C1147 0.950 . S
H1152 C1149 0.950 . S
C1153 C1144 1.390 . S
C1153 H1146 0.950 . S
C1153 C1150 1.387 . S
C1154 C1155 1.387 . S
C1154 H1158 0.950 . S
C1154 C1163 1.390 . S
C1155 C1154 1.387 . S
C1155 C1157 1.387 . S
H1156 C1163 0.950 . S
C1157 C1155 1.387 . S
C1157 C1159 1.390 . S
C1157 H1161 0.950 . S
H1158 C1154 0.950 . S
C1159 C1157 1.390 . S
C1159 C1160 1.387 . S
C1159 H1162 0.950 . S
C1160 C1159 1.387 . S
C1160 C1163 1.387 . S
H1161 C1157 0.950 . S
H1162 C1159 0.950 . S
C1163 C1154 1.390 . S
C1163 H1156 0.950 . S
C1163 C1160 1.387 . S
C1164 C1165 1.387 . S
C1164 H1168 0.950 . S
C1164 C1173 1.390 . S
C1165 C1164 1.387 . S
C1165 C1167 1.387 . S
H1166 C1173 0.950 . S
C1167 C1165 1.387 . S
C1167 C1169 1.390 . S
C1167 H1171 0.950 . S
H1168 C1164 0.950 . S
C1169 C1167 1.390 . S
C1169 C1170 1.387 . S
C1169 H1172 0.950 . S
C1170 C1169 1.387 . S
C1170 C1173 1.387 . S
H1171 C1167 0.950 . S
H1172 C1169 0.950 . S
C1173 C1164 1.390 . S
C1173 H1166 0.950 . S
C1173 C1170 1.387 . S
C1174 C1175 1.387 . S
C1174 H1178 0.950 . S
C1174 C1183 1.390 . S
C1175 C1174 1.387 . S
C1175 C1177 1.387 . S
H1176 C1183 0.950 . S
C1177 C1175 1.387 . S
C1177 C1179 1.390 . S
C1177 H1181 0.950 . S
H1178 C1174 0.950 . S
C1179 C1177 1.390 . S
C1179 C1180 1.387 . S
C1179 H1182 0.950 . S
C1180 C1179 1.387 . S
C1180 C1183 1.387 . S
H1181 C1177 0.950 . S
H1182 C1179 0.950 . S
C1183 C1174 1.390 . S
C1183 H1176 0.950 . S
C1183 C1180 1.387 . S
C1184 C1185 1.387 . S
C1184 H1188 0.950 . S
C1184 C1193 1.390 . S
C1185 C1184 1.387 . S
C1185 C1187 1.387 . S
H1186 C1193 0.950 . S
C1187 C1185 1.387 . S
C1187 C1189 1.390 . S
C1187 H1191 0.950 . S
H1188 C1184 0.950 . S
C1189 C1187 1.390 . S
C1189 C1190 1.387 . S
C1189 H1192 0.950 . S
C1190 C1189 1.387 . S
C1190 C1193 1.387 . S
H1191 C1187 0.950 . S
H1192 C1189 0.950 . S
C1193 C1184 1.390 . S
C1193 H1186 0.950 . S
C1193 C1190 1.387 . S
C1194 C1195 1.387 . S
C1194 H1198 0.950 . S
C1194 C1203 1.390 . S
C1195 C1194 1.387 . S
C1195 C1197 1.387 . S
H1196 C1203 0.950 . S
C1197 C1195 1.387 . S
C1197 C1199 1.390 . S
C1197 H1201 0.950 . S
H1198 C1194 0.950 . S
C1199 C1197 1.390 . S
C1199 C1200 1.387 . S
C1199 H1202 0.950 . S
C1200 C1199 1.387 . S
C1200 C1203 1.387 . S
H1201 C1197 0.950 . S
H1202 C1199 0.950 . S
C1203 C1194 1.390 . S
C1203 H1196 0.950 . S
C1203 C1200 1.387 . S
C1204 C1205 1.387 . S
C1204 H1208 0.950 . S
C1204 C1213 1.390 . S
C1205 C1204 1.387 . S
C1205 C1207 1.387 . S
H1206 C1213 0.950 . S
C1207 C1205 1.387 . S
C1207 C1209 1.390 . S
C1207 H1211 0.950 . S
H1208 C1204 0.950 . S
C1209 C1207 1.390 . S
C1209 C1210 1.387 . S
C1209 H1212 0.950 . S
C1210 C1209 1.387 . S
C1210 C1213 1.387 . S
H1211 C1207 0.950 . S
H1212 C1209 0.950 . S
C1213 C1204 1.390 . S
C1213 H1206 0.950 . S
C1213 C1210 1.387 . S
C1214 C1215 1.387 1_545 S
C1214 H1218 0.950 . S
C1214 C1223 1.390 . S
C1215 C1214 1.387 1_565 S
C1215 C1217 1.387 . S
H1216 C1223 0.950 . S
C1217 C1215 1.387 . S
C1217 C1219 1.390 . S
C1217 H1221 0.950 . S
H1218 C1214 0.950 . S
C1219 C1217 1.390 . S
C1219 C1220 1.387 . S
C1219 H1222 0.950 . S
C1220 C1219 1.387 . S
C1220 C1223 1.387 1_565 S
H1221 C1217 0.950 . S
H1222 C1219 0.950 . S
C1223 C1214 1.390 . S
C1223 H1216 0.950 . S
C1223 C1220 1.387 1_545 S
C1224 C1225 1.387 . S
C1224 H1228 0.950 . S
C1224 C1233 1.390 . S
C1225 C1224 1.387 . S
C1225 C1227 1.387 . S
H1226 C1233 0.950 . S
C1227 C1225 1.387 . S
C1227 C1229 1.390 . S
C1227 H1231 0.950 . S
H1228 C1224 0.950 . S
C1229 C1227 1.390 . S
C1229 C1230 1.387 . S
C1229 H1232 0.950 . S
C1230 C1229 1.387 . S
C1230 C1233 1.387 . S
H1231 C1227 0.950 . S
H1232 C1229 0.950 . S
C1233 C1224 1.390 . S
C1233 H1226 0.950 . S
C1233 C1230 1.387 . S
C1234 C1235 1.387 . S
C1234 H1238 0.950 . S
C1234 C1243 1.390 . S
C1235 C1234 1.387 . S
C1235 C1237 1.387 . S
H1236 C1243 0.950 . S
C1237 C1235 1.387 . S
C1237 C1239 1.390 . S
C1237 H1241 0.950 1_545 S
H1238 C1234 0.950 . S
C1239 C1237 1.390 . S
C1239 C1240 1.387 . S
C1239 H1242 0.950 1_545 S
C1240 C1239 1.387 . S
C1240 C1243 1.387 . S
H1241 C1237 0.950 1_565 S
H1242 C1239 0.950 1_565 S
C1243 C1234 1.390 . S
C1243 H1236 0.950 . S
C1243 C1240 1.387 . S
C1244 C1245 1.387 . S
C1244 H1248 0.950 . S
C1244 C1253 1.390 . S
C1245 C1244 1.387 . S
C1245 C1247 1.387 . S
H1246 C1253 0.950 . S
C1247 C1245 1.387 . S
C1247 C1249 1.390 . S
C1247 H1251 0.950 . S
H1248 C1244 0.950 . S
C1249 C1247 1.390 . S
C1249 C1250 1.387 . S
C1249 H1252 0.950 . S
C1250 C1249 1.387 . S
C1250 C1253 1.387 . S
H1251 C1247 0.950 . S
H1252 C1249 0.950 . S
C1253 C1244 1.390 . S
C1253 H1246 0.950 . S
C1253 C1250 1.387 . S
C1254 C1255 1.387 1_556 S
C1254 H1258 0.950 . S
C1254 C1263 1.390 . S
C1255 C1254 1.387 1_554 S
C1255 C1257 1.387 . S
H1256 C1263 0.950 . S
C1257 C1255 1.387 . S
C1257 C1259 1.390 . S
C1257 H1261 0.950 . S
H1258 C1254 0.950 . S
C1259 C1257 1.390 . S
C1259 C1260 1.387 . S
C1259 H1262 0.950 . S
C1260 C1259 1.387 . S
C1260 C1263 1.387 1_554 S
H1261 C1257 0.950 . S
H1262 C1259 0.950 . S
C1263 C1254 1.390 . S
C1263 H1256 0.950 . S
C1263 C1260 1.387 1_556 S
C1264 C1265 1.387 . S
C1264 H1268 0.950 . S
C1264 C1273 1.390 . S
C1265 C1264 1.387 . S
C1265 C1267 1.387 1_556 S
H1266 C1273 0.950 . S
C1267 C1265 1.387 1_554 S
C1267 C1269 1.390 . S
C1267 H1271 0.950 . S
H1268 C1264 0.950 . S
C1269 C1267 1.390 . S
C1269 C1270 1.387 1_554 S
C1269 H1272 0.950 . S
C1270 C1269 1.387 1_556 S
C1270 C1273 1.387 . S
H1271 C1267 0.950 . S
H1272 C1269 0.950 . S
C1273 C1264 1.390 . S
C1273 H1266 0.950 . S
C1273 C1270 1.387 . S
C1274 C1275 1.387 . S
C1274 H1278 0.950 1_554 S
C1274 C1283 1.390 1_554 S
C1275 C1274 1.387 . S
C1275 C1277 1.387 . S
H1276 C1283 0.950 . S
C1277 C1275 1.387 . S
C1277 C1279 1.390 . S
C1277 H1281 0.950 . S
H1278 C1274 0.950 1_556 S
C1279 C1277 1.390 . S
C1279 C1280 1.387 . S
C1279 H1282 0.950 . S
C1280 C1279 1.387 . S
C1280 C1283 1.387 1_554 S
H1281 C1277 0.950 . S
H1282 C1279 0.950 . S
C1283 C1274 1.390 1_556 S
C1283 H1276 0.950 . S
C1283 C1280 1.387 1_556 S
C805 C22 1.964 . S
C810 C696 1.775 . S
C820 C715 1.879 1_455 S
C815 C38 1.931 . S
C830 C653 1.707 1_565 S
C825 C75 1.680 . S
C835 C91 1.633 . S
C840 C674 1.634 . S
C845 C128 1.635 . S
C850 C801 1.476 . S
C855 C197 1.527 . S
C860 C779 1.548 . S
C870 C736 1.866 . S
C865 C144 1.946 . S
C875 C181 1.631 . S
C880 C757 1.562 . S
C890 C675 1.637 . S
C885 C234 1.765 . S
C900 C716 1.612 . S
C895 C303 1.631 . S
C905 C356 1.804 . S
C910 C694 1.759 . S
C915 C287 1.709 . S
C920 C759 1.501 . S
C930 C780 1.725 . S
C925 C393 1.863 . S
C940 C799 1.899 1_565 S
C935 C409 1.985 . S
C945 C462 1.818 . S
C950 C758 1.834 . S
C960 C737 1.577 . S
C955 C446 1.582 . S
C965 C499 1.604 . S
C970 C717 1.429 . S
C975 C552 1.514 . S
C980 C695 1.545 . S
C990 C673 1.754 . S
C985 C515 1.808 . S
C995 C568 1.804 . S
C1000 C652 1.738 . S
C1010 C738 1.663 . S
C1005 C340 1.813 . S
C1020 C800 1.561 . S
C1015 C621 1.585 1_556 S
C1025 C250 1.734 . S
C1030 C778 1.676 . S
C1035 C605 1.683 . S
C1040 C654 1.502 1_655 S
C1050 C650 1.327 . S
C1045 C39 1.401 . S
C1055 C29 1.172 . S
C1060 C671 1.171 . S
C1070 C691 1.393 . S
C1065 C92 1.538 . S
C1080 C714 1.369 . S
C1075 C82 1.653 . S
C1085 C145 1.391 . S
C1090 C651 1.091 . S
C1095 C188 1.618 . S
C1100 C672 1.243 . S
C1110 C692 1.167 . S
C1105 C135 1.207 . S
C1115 C198 1.290 . S
C1120 C712 1.228 . S
C1125 C251 1.234 . S
C1130 C649 1.142 . S
C1140 C693 1.336 . S
C1135 C294 1.579 . S
C1145 C347 1.508 . S
C1150 C713 1.488 . S
C1155 C304 1.393 . S
C1160 C733 1.285 . S
C1170 C755 1.327 . S
C1165 C410 1.441 . S
C1175 C400 1.256 . S
C1180 C734 1.281 . S
C1185 C453 1.274 . S
C1190 C775 1.203 . S
C1195 C463 2.009 . S
C1200 C798 1.598 . S
C1205 C516 1.387 . S
C1210 C756 1.115 . S
C1220 C735 1.509 . S
C1215 C569 1.938 . S
C1225 C506 1.128 . S
C1230 C776 1.067 . S
C1240 C796 1.156 . S
C1235 C559 1.144 . S
C1250 C754 1.129 . S
C1245 C357 1.200 . S
C1260 C777 1.286 1_554 S
C1255 C612 1.580 . S
C1270 C797 1.453 . S
C1265 C241 1.462 1_556 S
C1275 C622 1.355 . S
C1280 C670 1.214 . S
