# Generated by pormake.
# Topology gar, (4,6)-cn, num edge types: 1
# Building blocks:
#     Node 0, Type 0, BuildingBlock: TATPOV_clean_sbu_0, # of connection points: 4
#     Node 1, Type 0, BuildingBlock: TATPOV_clean_sbu_0, # of connection points: 4
#     Node 2, Type 0, BuildingBlock: TATPOV_clean_sbu_0, # of connection points: 4
#     Node 3, Type 0, BuildingBlock: TATPOV_clean_sbu_0, # of connection points: 4
#     Node 4, Type 0, BuildingBlock: TATPOV_clean_sbu_0, # of connection points: 4
#     Node 5, Type 0, BuildingBlock: TATPOV_clean_sbu_0, # of connection points: 4
#     Node 6, Type 0, BuildingBlock: TATPOV_clean_sbu_0, # of connection points: 4
#     Node 7, Type 0, BuildingBlock: TATPOV_clean_sbu_0, # of connection points: 4
#     Node 8, Type 0, BuildingBlock: TATPOV_clean_sbu_0, # of connection points: 4
#     Node 9, Type 0, BuildingBlock: TATPOV_clean_sbu_0, # of connection points: 4
#     Node 10, Type 0, BuildingBlock: TATPOV_clean_sbu_0, # of connection points: 4
#     Node 11, Type 0, BuildingBlock: TATPOV_clean_sbu_0, # of connection points: 4
#     Node 12, Type 0, BuildingBlock: TATPOV_clean_sbu_0, # of connection points: 4
#     Node 13, Type 0, BuildingBlock: TATPOV_clean_sbu_0, # of connection points: 4
#     Node 14, Type 0, BuildingBlock: TATPOV_clean_sbu_0, # of connection points: 4
#     Node 15, Type 0, BuildingBlock: TATPOV_clean_sbu_0, # of connection points: 4
#     Node 16, Type 0, BuildingBlock: TATPOV_clean_sbu_0, # of connection points: 4
#     Node 17, Type 0, BuildingBlock: TATPOV_clean_sbu_0, # of connection points: 4
#     Node 18, Type 0, BuildingBlock: TATPOV_clean_sbu_0, # of connection points: 4
#     Node 19, Type 0, BuildingBlock: TATPOV_clean_sbu_0, # of connection points: 4
#     Node 20, Type 0, BuildingBlock: TATPOV_clean_sbu_0, # of connection points: 4
#     Node 21, Type 0, BuildingBlock: TATPOV_clean_sbu_0, # of connection points: 4
#     Node 22, Type 0, BuildingBlock: TATPOV_clean_sbu_0, # of connection points: 4
#     Node 23, Type 0, BuildingBlock: TATPOV_clean_sbu_0, # of connection points: 4
#     Node 24, Type 1, BuildingBlock: CUKXOW_clean_sbu_0, # of connection points: 6
#     Node 25, Type 1, BuildingBlock: CUKXOW_clean_sbu_0, # of connection points: 6
#     Node 26, Type 1, BuildingBlock: CUKXOW_clean_sbu_0, # of connection points: 6
#     Node 27, Type 1, BuildingBlock: CUKXOW_clean_sbu_0, # of connection points: 6
#     Node 28, Type 1, BuildingBlock: CUKXOW_clean_sbu_0, # of connection points: 6
#     Node 29, Type 1, BuildingBlock: CUKXOW_clean_sbu_0, # of connection points: 6
#     Node 30, Type 1, BuildingBlock: CUKXOW_clean_sbu_0, # of connection points: 6
#     Node 31, Type 1, BuildingBlock: CUKXOW_clean_sbu_0, # of connection points: 6
#     Node 32, Type 1, BuildingBlock: CUKXOW_clean_sbu_0, # of connection points: 6
#     Node 33, Type 1, BuildingBlock: CUKXOW_clean_sbu_0, # of connection points: 6
#     Node 34, Type 1, BuildingBlock: CUKXOW_clean_sbu_0, # of connection points: 6
#     Node 35, Type 1, BuildingBlock: CUKXOW_clean_sbu_0, # of connection points: 6
#     Node 36, Type 1, BuildingBlock: CUKXOW_clean_sbu_0, # of connection points: 6
#     Node 37, Type 1, BuildingBlock: CUKXOW_clean_sbu_0, # of connection points: 6
#     Node 38, Type 1, BuildingBlock: CUKXOW_clean_sbu_0, # of connection points: 6
#     Node 39, Type 1, BuildingBlock: CUKXOW_clean_sbu_0, # of connection points: 6
#     Edge 40, Type (0, 1), BuildingBlock: XUDNAN_clean_linker_2, # of connection points: 2
#     Edge 41, Type (0, 1), BuildingBlock: XUDNAN_clean_linker_2, # of connection points: 2
#     Edge 42, Type (0, 1), BuildingBlock: XUDNAN_clean_linker_2, # of connection points: 2
#     Edge 43, Type (0, 1), BuildingBlock: XUDNAN_clean_linker_2, # of connection points: 2
#     Edge 44, Type (0, 1), BuildingBlock: XUDNAN_clean_linker_2, # of connection points: 2
#     Edge 45, Type (0, 1), BuildingBlock: XUDNAN_clean_linker_2, # of connection points: 2
#     Edge 46, Type (0, 1), BuildingBlock: XUDNAN_clean_linker_2, # of connection points: 2
#     Edge 47, Type (0, 1), BuildingBlock: XUDNAN_clean_linker_2, # of connection points: 2
#     Edge 48, Type (0, 1), BuildingBlock: XUDNAN_clean_linker_2, # of connection points: 2
#     Edge 49, Type (0, 1), BuildingBlock: XUDNAN_clean_linker_2, # of connection points: 2
#     Edge 50, Type (0, 1), BuildingBlock: XUDNAN_clean_linker_2, # of connection points: 2
#     Edge 51, Type (0, 1), BuildingBlock: XUDNAN_clean_linker_2, # of connection points: 2
#     Edge 52, Type (0, 1), BuildingBlock: XUDNAN_clean_linker_2, # of connection points: 2
#     Edge 53, Type (0, 1), BuildingBlock: XUDNAN_clean_linker_2, # of connection points: 2
#     Edge 54, Type (0, 1), BuildingBlock: XUDNAN_clean_linker_2, # of connection points: 2
#     Edge 55, Type (0, 1), BuildingBlock: XUDNAN_clean_linker_2, # of connection points: 2
#     Edge 56, Type (0, 1), BuildingBlock: XUDNAN_clean_linker_2, # of connection points: 2
#     Edge 57, Type (0, 1), BuildingBlock: XUDNAN_clean_linker_2, # of connection points: 2
#     Edge 58, Type (0, 1), BuildingBlock: XUDNAN_clean_linker_2, # of connection points: 2
#     Edge 59, Type (0, 1), BuildingBlock: XUDNAN_clean_linker_2, # of connection points: 2
#     Edge 60, Type (0, 1), BuildingBlock: XUDNAN_clean_linker_2, # of connection points: 2
#     Edge 61, Type (0, 1), BuildingBlock: XUDNAN_clean_linker_2, # of connection points: 2
#     Edge 62, Type (0, 1), BuildingBlock: XUDNAN_clean_linker_2, # of connection points: 2
#     Edge 63, Type (0, 1), BuildingBlock: XUDNAN_clean_linker_2, # of connection points: 2
#     Edge 64, Type (0, 1), BuildingBlock: XUDNAN_clean_linker_2, # of connection points: 2
#     Edge 65, Type (0, 1), BuildingBlock: XUDNAN_clean_linker_2, # of connection points: 2
#     Edge 66, Type (0, 1), BuildingBlock: XUDNAN_clean_linker_2, # of connection points: 2
#     Edge 67, Type (0, 1), BuildingBlock: XUDNAN_clean_linker_2, # of connection points: 2
#     Edge 68, Type (0, 1), BuildingBlock: XUDNAN_clean_linker_2, # of connection points: 2
#     Edge 69, Type (0, 1), BuildingBlock: XUDNAN_clean_linker_2, # of connection points: 2
#     Edge 70, Type (0, 1), BuildingBlock: XUDNAN_clean_linker_2, # of connection points: 2
#     Edge 71, Type (0, 1), BuildingBlock: XUDNAN_clean_linker_2, # of connection points: 2
#     Edge 72, Type (0, 1), BuildingBlock: XUDNAN_clean_linker_2, # of connection points: 2
#     Edge 73, Type (0, 1), BuildingBlock: XUDNAN_clean_linker_2, # of connection points: 2
#     Edge 74, Type (0, 1), BuildingBlock: XUDNAN_clean_linker_2, # of connection points: 2
#     Edge 75, Type (0, 1), BuildingBlock: XUDNAN_clean_linker_2, # of connection points: 2
#     Edge 76, Type (0, 1), BuildingBlock: XUDNAN_clean_linker_2, # of connection points: 2
#     Edge 77, Type (0, 1), BuildingBlock: XUDNAN_clean_linker_2, # of connection points: 2
#     Edge 78, Type (0, 1), BuildingBlock: XUDNAN_clean_linker_2, # of connection points: 2
#     Edge 79, Type (0, 1), BuildingBlock: XUDNAN_clean_linker_2, # of connection points: 2
#     Edge 80, Type (0, 1), BuildingBlock: XUDNAN_clean_linker_2, # of connection points: 2
#     Edge 81, Type (0, 1), BuildingBlock: XUDNAN_clean_linker_2, # of connection points: 2
#     Edge 82, Type (0, 1), BuildingBlock: XUDNAN_clean_linker_2, # of connection points: 2
#     Edge 83, Type (0, 1), BuildingBlock: XUDNAN_clean_linker_2, # of connection points: 2
#     Edge 84, Type (0, 1), BuildingBlock: XUDNAN_clean_linker_2, # of connection points: 2
#     Edge 85, Type (0, 1), BuildingBlock: XUDNAN_clean_linker_2, # of connection points: 2
#     Edge 86, Type (0, 1), BuildingBlock: XUDNAN_clean_linker_2, # of connection points: 2
#     Edge 87, Type (0, 1), BuildingBlock: XUDNAN_clean_linker_2, # of connection points: 2
#     Edge 88, Type (0, 1), BuildingBlock: XUDNAN_clean_linker_2, # of connection points: 2
#     Edge 89, Type (0, 1), BuildingBlock: XUDNAN_clean_linker_2, # of connection points: 2
#     Edge 90, Type (0, 1), BuildingBlock: XUDNAN_clean_linker_2, # of connection points: 2
#     Edge 91, Type (0, 1), BuildingBlock: XUDNAN_clean_linker_2, # of connection points: 2
#     Edge 92, Type (0, 1), BuildingBlock: XUDNAN_clean_linker_2, # of connection points: 2
#     Edge 93, Type (0, 1), BuildingBlock: XUDNAN_clean_linker_2, # of connection points: 2
#     Edge 94, Type (0, 1), BuildingBlock: XUDNAN_clean_linker_2, # of connection points: 2
#     Edge 95, Type (0, 1), BuildingBlock: XUDNAN_clean_linker_2, # of connection points: 2
#     Edge 96, Type (0, 1), BuildingBlock: XUDNAN_clean_linker_2, # of connection points: 2
#     Edge 97, Type (0, 1), BuildingBlock: XUDNAN_clean_linker_2, # of connection points: 2
#     Edge 98, Type (0, 1), BuildingBlock: XUDNAN_clean_linker_2, # of connection points: 2
#     Edge 99, Type (0, 1), BuildingBlock: XUDNAN_clean_linker_2, # of connection points: 2
#     Edge 100, Type (0, 1), BuildingBlock: XUDNAN_clean_linker_2, # of connection points: 2
#     Edge 101, Type (0, 1), BuildingBlock: XUDNAN_clean_linker_2, # of connection points: 2
#     Edge 102, Type (0, 1), BuildingBlock: XUDNAN_clean_linker_2, # of connection points: 2
#     Edge 103, Type (0, 1), BuildingBlock: XUDNAN_clean_linker_2, # of connection points: 2
#     Edge 104, Type (0, 1), BuildingBlock: XUDNAN_clean_linker_2, # of connection points: 2
#     Edge 105, Type (0, 1), BuildingBlock: XUDNAN_clean_linker_2, # of connection points: 2
#     Edge 106, Type (0, 1), BuildingBlock: XUDNAN_clean_linker_2, # of connection points: 2
#     Edge 107, Type (0, 1), BuildingBlock: XUDNAN_clean_linker_2, # of connection points: 2
#     Edge 108, Type (0, 1), BuildingBlock: XUDNAN_clean_linker_2, # of connection points: 2
#     Edge 109, Type (0, 1), BuildingBlock: XUDNAN_clean_linker_2, # of connection points: 2
#     Edge 110, Type (0, 1), BuildingBlock: XUDNAN_clean_linker_2, # of connection points: 2
#     Edge 111, Type (0, 1), BuildingBlock: XUDNAN_clean_linker_2, # of connection points: 2
#     Edge 112, Type (0, 1), BuildingBlock: XUDNAN_clean_linker_2, # of connection points: 2
#     Edge 113, Type (0, 1), BuildingBlock: XUDNAN_clean_linker_2, # of connection points: 2
#     Edge 114, Type (0, 1), BuildingBlock: XUDNAN_clean_linker_2, # of connection points: 2
#     Edge 115, Type (0, 1), BuildingBlock: XUDNAN_clean_linker_2, # of connection points: 2
#     Edge 116, Type (0, 1), BuildingBlock: XUDNAN_clean_linker_2, # of connection points: 2
#     Edge 117, Type (0, 1), BuildingBlock: XUDNAN_clean_linker_2, # of connection points: 2
#     Edge 118, Type (0, 1), BuildingBlock: XUDNAN_clean_linker_2, # of connection points: 2
#     Edge 119, Type (0, 1), BuildingBlock: XUDNAN_clean_linker_2, # of connection points: 2
#     Edge 120, Type (0, 1), BuildingBlock: XUDNAN_clean_linker_2, # of connection points: 2
#     Edge 121, Type (0, 1), BuildingBlock: XUDNAN_clean_linker_2, # of connection points: 2
#     Edge 122, Type (0, 1), BuildingBlock: XUDNAN_clean_linker_2, # of connection points: 2
#     Edge 123, Type (0, 1), BuildingBlock: XUDNAN_clean_linker_2, # of connection points: 2
#     Edge 124, Type (0, 1), BuildingBlock: XUDNAN_clean_linker_2, # of connection points: 2
#     Edge 125, Type (0, 1), BuildingBlock: XUDNAN_clean_linker_2, # of connection points: 2
#     Edge 126, Type (0, 1), BuildingBlock: XUDNAN_clean_linker_2, # of connection points: 2
#     Edge 127, Type (0, 1), BuildingBlock: XUDNAN_clean_linker_2, # of connection points: 2
#     Edge 128, Type (0, 1), BuildingBlock: XUDNAN_clean_linker_2, # of connection points: 2
#     Edge 129, Type (0, 1), BuildingBlock: XUDNAN_clean_linker_2, # of connection points: 2
#     Edge 130, Type (0, 1), BuildingBlock: XUDNAN_clean_linker_2, # of connection points: 2
#     Edge 131, Type (0, 1), BuildingBlock: XUDNAN_clean_linker_2, # of connection points: 2
#     Edge 132, Type (0, 1), BuildingBlock: XUDNAN_clean_linker_2, # of connection points: 2
#     Edge 133, Type (0, 1), BuildingBlock: XUDNAN_clean_linker_2, # of connection points: 2
#     Edge 134, Type (0, 1), BuildingBlock: XUDNAN_clean_linker_2, # of connection points: 2
#     Edge 135, Type (0, 1), BuildingBlock: XUDNAN_clean_linker_2, # of connection points: 2
# Relax obj value: 0.112
# Max RMSD: 0.224
# Mean RMSD: 0.146
data_MOF--net-gar--node1-TATPOV_clean_sbu_0--node2-CUKXOW_clean_sbu_0--edge1-XUDNAN_clean_linker_2
_symmetry_space_group_name_H-M    P1
_symmetry_Int_Tables_number       1
_symmetry_cell_setting            triclinic
loop_
_symmetry_equiv_pos_as_xyz
'x, y, z'
_cell_length_a     55.053715
_cell_length_b     53.737178
_cell_length_c     54.48276
_cell_angle_alpha  94.099294
_cell_angle_beta   96.208682
_cell_angle_gamma 101.44817
loop_
_atom_site_label
_atom_site_type_symbol
_atom_site_fract_x
_atom_site_fract_y
_atom_site_fract_z
_atom_type_partial_charge
Zn0 Zn 0.98527 0.25693 0.41468 0.0
Zn1 Zn 0.03031 0.27425 0.40175 0.0
O2 O 0.02827 0.3054 0.42486 0.0
O3 O 0.99202 0.28986 0.43744 0.0
O4 O 0.0618 0.28228 0.38607 0.0
O5 O 0.99489 0.22544 0.42623 0.0
O6 O 0.03339 0.24189 0.41972 0.0
C7 C 0.01101 0.3078 0.43812 0.0
C8 C 0.98277 0.26291 0.36391 0.0
O9 O 0.00612 0.27047 0.36982 0.0
O10 O 0.96875 0.25568 0.38003 0.0
C11 C 0.06402 0.29958 0.37122 0.0
O12 O 0.04846 0.31523 0.37063 0.0
C13 C 0.01763 0.22419 0.42721 0.0
Zn14 Zn 0.99655 0.76386 0.64841 0.0
Zn15 Zn 0.00074 0.79502 0.62086 0.0
O16 O 0.9761 0.80296 0.64522 0.0
O17 O 0.9616 0.76358 0.65234 0.0
O18 O 0.00349 0.82389 0.59925 0.0
O19 O 0.02346 0.78591 0.67298 0.0
O20 O 0.03592 0.79586 0.63768 0.0
C21 C 0.96 0.7867 0.65399 0.0
C22 C 0.99541 0.74096 0.60178 0.0
O23 O 0.98935 0.76198 0.59702 0.0
O24 O 0.00372 0.73814 0.62373 0.0
C25 C 0.98285 0.82938 0.59127 0.0
O26 O 0.96203 0.81557 0.59684 0.0
C27 C 0.04107 0.79371 0.66064 0.0
Zn28 Zn 0.48637 0.77047 0.93322 0.0
Zn29 Zn 0.52387 0.77065 0.90616 0.0
O30 O 0.53035 0.80712 0.92256 0.0
O31 O 0.50489 0.80389 0.95122 0.0
O32 O 0.55233 0.76772 0.88772 0.0
O33 O 0.48982 0.73763 0.94738 0.0
O34 O 0.522 0.74011 0.92628 0.0
C35 C 0.52192 0.81701 0.9409 0.0
C36 C 0.47398 0.7682 0.879 0.0
O37 O 0.49625 0.76575 0.87813 0.0
O38 O 0.46583 0.77147 0.89966 0.0
C39 C 0.55788 0.7808 0.86988 0.0
O40 O 0.54706 0.79999 0.86543 0.0
C41 C 0.50805 0.72879 0.94096 0.0
Zn42 Zn 0.48792 0.25991 0.1562 0.0
Zn43 Zn 0.4984 0.28935 0.12717 0.0
O44 O 0.46735 0.29774 0.14158 0.0
O45 O 0.45189 0.25947 0.15086 0.0
O46 O 0.50504 0.31423 0.10183 0.0
O47 O 0.50972 0.2827 0.18412 0.0
O48 O 0.52879 0.2988 0.15379 0.0
C49 C 0.44962 0.28216 0.14878 0.0
C50 C 0.50038 0.23367 0.11678 0.0
O51 O 0.49645 0.25392 0.1076 0.0
O52 O 0.50067 0.23216 0.13981 0.0
C53 C 0.50373 0.33733 0.10689 0.0
O54 O 0.49866 0.34459 0.12897 0.0
C55 C 0.52865 0.29616 0.17685 0.0
Zn56 Zn 0.02978 0.76492 0.12473 0.0
Zn57 Zn 0.99014 0.75814 0.14919 0.0
O58 O 0.99173 0.79198 0.13315 0.0
O59 O 0.02021 0.79338 0.10744 0.0
O60 O 0.9579 0.7545 0.16493 0.0
O61 O 0.01853 0.73001 0.10748 0.0
O62 O 0.98329 0.72612 0.12412 0.0
C63 C 0.00325 0.80252 0.11629 0.0
C64 C 0.04234 0.76679 0.17767 0.0
O65 O 0.01883 0.75926 0.17764 0.0
O66 O 0.05128 0.77193 0.15774 0.0
C67 C 0.95154 0.77353 0.17583 0.0
O68 O 0.96691 0.79588 0.17825 0.0
C69 C 0.99689 0.71764 0.10943 0.0
Zn70 Zn 0.488 0.79331 0.39141 0.0
Zn71 Zn 0.52451 0.79354 0.37313 0.0
O72 O 0.53261 0.82498 0.39904 0.0
O73 O 0.49432 0.83107 0.39711 0.0
O74 O 0.55777 0.79139 0.36069 0.0
O75 O 0.4965 0.77365 0.41974 0.0
O76 O 0.51631 0.76042 0.39013 0.0
C77 C 0.51734 0.83895 0.40412 0.0
C78 C 0.47459 0.78412 0.34192 0.0
O79 O 0.49748 0.79559 0.34341 0.0
O80 O 0.46632 0.77541 0.361 0.0
C81 C 0.56706 0.80189 0.34267 0.0
O82 O 0.55431 0.81559 0.32943 0.0
C83 C 0.50748 0.75739 0.41065 0.0
Zn84 Zn 0.52363 0.26579 0.62642 0.0
Zn85 Zn 0.48582 0.25989 0.65055 0.0
O86 O 0.48794 0.29344 0.63303 0.0
O87 O 0.51363 0.29162 0.60505 0.0
O88 O 0.45432 0.25877 0.66776 0.0
O89 O 0.51512 0.22911 0.61375 0.0
O90 O 0.47838 0.22642 0.62716 0.0
C91 C 0.498 0.30232 0.61458 0.0
C92 C 0.53883 0.27018 0.67814 0.0
O93 O 0.51556 0.26109 0.67836 0.0
O94 O 0.54683 0.27678 0.65816 0.0
C95 C 0.45254 0.27985 0.67886 0.0
O96 O 0.47145 0.29933 0.67999 0.0
C97 C 0.49338 0.21666 0.61516 0.0
Zn98 Zn 0.9931 0.28773 0.89866 0.0
Zn99 Zn 0.02566 0.29231 0.87153 0.0
O100 O 0.03536 0.32706 0.89303 0.0
O101 O 0.00059 0.32398 0.91027 0.0
O102 O 0.05381 0.29011 0.85072 0.0
O103 O 0.00528 0.2659 0.9222 0.0
O104 O 0.02531 0.25986 0.89028 0.0
C105 C 0.02162 0.33664 0.90684 0.0
C106 C 0.97084 0.28154 0.85008 0.0
O107 O 0.99338 0.29152 0.84753 0.0
O108 O 0.96586 0.27375 0.87067 0.0
C109 C 0.0754 0.30467 0.85303 0.0
O110 O 0.08046 0.3252 0.86882 0.0
C111 C 0.01864 0.25358 0.91106 0.0
Zn112 Zn 0.41777 0.03674 0.24056 0.0
Zn113 Zn 0.40135 0.07547 0.2451 0.0
O114 O 0.42541 0.07987 0.27912 0.0
O115 O 0.43045 0.04023 0.2767 0.0
O116 O 0.38119 0.10441 0.24568 0.0
O117 O 0.44052 0.04676 0.21598 0.0
O118 O 0.41791 0.0758 0.21105 0.0
C119 C 0.43305 0.06151 0.28927 0.0
C120 C 0.36898 0.02061 0.23913 0.0
O121 O 0.37332 0.04399 0.24759 0.0
O122 O 0.38559 0.01195 0.22914 0.0
C123 C 0.36686 0.10408 0.26263 0.0
O124 O 0.36758 0.08707 0.27872 0.0
C125 C 0.43392 0.06362 0.20335 0.0
Zn126 Zn 0.24976 0.20068 0.51076 0.0
Zn127 Zn 0.27869 0.16792 0.49957 0.0
O128 O 0.28541 0.19274 0.47395 0.0
O129 O 0.26006 0.21865 0.48151 0.0
O130 O 0.30123 0.14467 0.49459 0.0
O131 O 0.27304 0.21261 0.54179 0.0
O132 O 0.29369 0.18241 0.53425 0.0
C133 C 0.27661 0.21228 0.46943 0.0
C134 C 0.22304 0.14814 0.50029 0.0
O135 O 0.24411 0.14458 0.495 0.0
O136 O 0.22062 0.17005 0.50855 0.0
C137 C 0.30468 0.13309 0.47465 0.0
O138 O 0.29166 0.13545 0.45359 0.0
C139 C 0.29062 0.20139 0.54779 0.0
Zn140 Zn 0.11681 0.03119 0.78564 0.0
Zn141 Zn 0.14079 -0.00037 0.7875 0.0
O142 O 0.12031 0.99375 0.81763 0.0
O143 O 0.1098 0.03099 0.82042 0.0
O144 O 0.16179 0.97251 0.78788 0.0
O145 O 0.09012 0.01348 0.75986 0.0
O146 O 0.11874 0.99169 0.7527 0.0
C147 C 0.11036 0.00991 0.8291 0.0
C148 C 0.16413 0.05566 0.78343 0.0
O149 O 0.16688 0.03452 0.79155 0.0
O150 O 0.14259 0.05869 0.77575 0.0
C151 C 0.15082 0.94952 0.78894 0.0
O152 O 0.12667 0.94452 0.79024 0.0
C153 C 0.09809 0.9981 0.74578 0.0
Zn154 Zn 0.25805 0.87181 0.02698 0.0
Zn155 Zn 0.21769 0.88942 0.02071 0.0
O156 O 0.21622 0.86778 0.98574 0.0
O157 O 0.24866 0.8502 0.99451 0.0
O158 O 0.18556 0.9045 0.02041 0.0
O159 O 0.25233 0.85679 0.05876 0.0
O160 O 0.2159 0.8679 0.05267 0.0
C161 C 0.23049 0.8529 0.97932 0.0
C162 C 0.27026 0.92498 0.0258 0.0
O163 O 0.2465 0.92218 0.02375 0.0
O164 O 0.28032 0.90591 0.02744 0.0
C165 C 0.18202 0.92446 0.01031 0.0
O166 O 0.19913 0.93607 -0.0024 0.0
C167 C 0.23122 0.85727 0.06555 0.0
Zn168 Zn 0.27461 0.36556 0.02484 0.0
Zn169 Zn 0.24387 0.39942 0.0259 0.0
O170 O 0.22852 0.37504 0.99585 0.0
O171 O 0.25115 0.34563 0.99647 0.0
O172 O 0.21932 0.42104 0.0267 0.0
O173 O 0.26515 0.35639 0.05812 0.0
O174 O 0.24006 0.38376 0.0575 0.0
C175 C 0.23242 0.35378 0.98737 0.0
C176 C 0.29827 0.41903 0.02157 0.0
O177 O 0.27692 0.42344 0.02461 0.0
O178 O 0.30183 0.39639 0.02011 0.0
C179 C 0.21197 0.43064 0.00743 0.0
O180 O 0.22325 0.429 0.98751 0.0
C181 C 0.24911 0.36661 0.06762 0.0
Zn182 Zn 0.76192 0.18556 0.00343 0.0
Zn183 Zn 0.79919 0.16618 0.0068 0.0
O184 O 0.79944 0.18509 0.97339 0.0
O185 O 0.77076 0.20782 0.97723 0.0
O186 O 0.83087 0.15045 0.00947 0.0
O187 O 0.76668 0.20076 0.03831 0.0
O188 O 0.80305 0.18955 0.04103 0.0
C189 C 0.78748 0.20173 0.96536 0.0
C190 C 0.74603 0.13273 -0.00132 0.0
O191 O 0.76933 0.13459 0.00559 0.0
O192 O 0.73788 0.15246 0.99392 0.0
C193 C 0.8376 0.13584 0.99309 0.0
O194 O 0.82377 0.12983 0.97146 0.0
C195 C 0.78741 0.20079 0.05078 0.0
Zn196 Zn 0.09321 0.53557 0.27174 0.0
Zn197 Zn 0.11665 0.48237 0.27439 0.0
O198 O 0.09955 0.47674 0.30743 0.0
O199 O 0.09177 0.51184 0.29622 0.0
O200 O 0.1341 0.45192 0.2683 0.0
O201 O 0.07968 0.51913 0.23811 0.0
O202 O 0.09367 0.48304 0.24023 0.0
C203 C 0.09082 0.49638 0.31223 0.0
C204 C 0.14785 0.53986 0.28079 0.0
O205 O 0.14518 0.51549 0.27997 0.0
O206 O 0.12947 0.55077 0.27718 0.0
C207 C 0.14681 0.44197 0.2845 0.0
O208 O 0.1496 0.4513 0.30782 0.0
C209 C 0.08147 0.49753 0.22834 0.0
Zn210 Zn 0.77352 0.87026 0.53165 0.0
Zn211 Zn 0.74195 0.9027 0.524 0.0
O212 O 0.72894 0.87546 0.49582 0.0
O213 O 0.75417 0.8487 0.50148 0.0
O214 O 0.71872 0.92583 0.51785 0.0
O215 O 0.7587 0.86255 0.56249 0.0
O216 O 0.73387 0.88984 0.55697 0.0
C217 C 0.73528 0.85466 0.48989 0.0
C218 C 0.79842 0.92106 0.52426 0.0
O219 O 0.77618 0.92459 0.52108 0.0
O220 O 0.80274 0.89974 0.52982 0.0
C221 C 0.71358 0.93157 0.49597 0.0
O222 O 0.72534 0.92375 0.47812 0.0
C223 C 0.7414 0.87288 0.56905 0.0
Zn224 Zn 0.90252 0.02921 0.23628 0.0
Zn225 Zn 0.87846 0.0604 0.23101 0.0
O226 O 0.89649 0.07014 0.26607 0.0
O227 O 0.92791 0.05146 0.26226 0.0
O228 O 0.8601 0.08945 0.22785 0.0
O229 O 0.91061 0.02523 0.20221 0.0
O230 O 0.90525 0.06452 0.20538 0.0
C231 C 0.91781 0.06653 0.27456 0.0
C232 C 0.85455 0.00591 0.24027 0.0
O233 O 0.85123 0.0264 0.23098 0.0
O234 O 0.87637 0.00295 0.24688 0.0
C235 C 0.84758 0.09491 0.24511 0.0
O236 O 0.84485 0.08001 0.26314 0.0
C237 C 0.91531 0.04746 0.19546 0.0
Zn238 Zn 0.26298 0.68305 0.50826 0.0
Zn239 Zn 0.30074 0.66849 0.50372 0.0
O240 O 0.29637 0.68996 0.47181 0.0
O241 O 0.25775 0.69348 0.47473 0.0
O242 O 0.33373 0.65464 0.50209 0.0
O243 O 0.2742 0.70994 0.53586 0.0
O244 O 0.30641 0.6913 0.5391 0.0
C245 C 0.27654 0.6972 0.46308 0.0
C246 C 0.2504 0.63202 0.50899 0.0
O247 O 0.27232 0.63496 0.50239 0.0
O248 O 0.24176 0.65122 0.51521 0.0
C249 C 0.3342 0.63106 0.4973 0.0
O250 O 0.31291 0.61447 0.49233 0.0
C251 C 0.2943 0.70737 0.54782 0.0
Zn252 Zn 0.39647 0.52807 0.72926 0.0
Zn253 Zn 0.37478 0.5613 0.73335 0.0
O254 O 0.39523 0.56758 0.76795 0.0
O255 O 0.40081 0.52825 0.7658 0.0
O256 O 0.35552 0.58934 0.73328 0.0
O257 O 0.42381 0.54645 0.71348 0.0
O258 O 0.39536 0.56841 0.70341 0.0
C259 C 0.40107 0.5489 0.77849 0.0
C260 C 0.34982 0.50457 0.72079 0.0
O261 O 0.34991 0.526 0.73264 0.0
O262 O 0.36816 0.50273 0.70925 0.0
C263 C 0.35236 0.60208 0.75285 0.0
O264 O 0.35929 0.59506 0.77467 0.0
C265 C 0.41596 0.56207 0.70008 0.0
Zn266 Zn 0.60621 0.02247 0.7737 0.0
Zn267 Zn 0.61699 0.98366 0.76872 0.0
O268 O 0.59902 0.984 0.80228 0.0
O269 O 0.60138 0.02517 0.80841 0.0
O270 O 0.63054 0.95013 0.76669 0.0
O271 O 0.57638 0.016 0.74953 0.0
O272 O 0.59277 0.98505 0.73483 0.0
C273 C 0.59591 0.00339 0.81592 0.0
C274 C 0.65414 0.03492 0.76837 0.0
O275 O 0.65087 0.0112 0.77148 0.0
O276 O 0.63559 0.04531 0.76543 0.0
C277 C 0.64635 0.94855 0.78517 0.0
O278 O 0.65109 0.96701 0.80328 0.0
C279 C 0.57687 -0.00047 0.73202 0.0
Zn280 Zn 0.74274 0.69302 0.99414 0.0
Zn281 Zn 0.77649 0.66429 0.99533 0.0
O282 O 0.78522 0.68208 0.96534 0.0
O283 O 0.7636 0.71207 0.97059 0.0
O284 O 0.80035 0.64242 0.00149 0.0
O285 O 0.75374 0.70333 0.03038 0.0
O286 O 0.78708 0.68722 0.02667 0.0
C287 C 0.77998 0.7032 0.96023 0.0
C288 C 0.72068 0.64063 0.98728 0.0
O289 O 0.74332 0.63937 0.99322 0.0
O290 O 0.71499 0.66184 0.98343 0.0
C291 C 0.81846 0.64006 0.98976 0.0
O292 O 0.82149 0.65096 0.96917 0.0
C293 C 0.77515 0.70036 0.03896 0.0
Zn294 Zn 0.92447 0.53473 0.7432 0.0
Zn295 Zn 0.90115 0.57203 0.74175 0.0
O296 O 0.91971 0.57647 0.77854 0.0
O297 O 0.94113 0.54596 0.77807 0.0
O298 O 0.88143 0.60074 0.73747 0.0
O299 O 0.94184 0.54114 0.71347 0.0
O300 O 0.92002 0.571 0.70918 0.0
C301 C 0.93449 0.56413 0.78984 0.0
C302 C 0.87157 0.51747 0.73993 0.0
O303 O 0.87219 0.54133 0.7413 0.0
O304 O 0.89149 0.50922 0.7391 0.0
C305 C 0.87691 0.6171 0.7536 0.0
O306 O 0.88704 0.61814 0.77671 0.0
C307 C 0.93503 0.55791 0.7008 0.0
Zn308 Zn 0.7521 0.37214 0.53249 0.0
Zn309 Zn 0.71459 0.39224 0.52494 0.0
O310 O 0.71012 0.36935 0.49104 0.0
O311 O 0.74634 0.35779 0.49645 0.0
O312 O 0.68565 0.41147 0.52389 0.0
O313 O 0.74086 0.35115 0.55916 0.0
O314 O 0.71104 0.37312 0.55757 0.0
C315 C 0.72661 0.35853 0.48245 0.0
C316 C 0.76948 0.42305 0.5316 0.0
O317 O 0.74639 0.42031 0.52344 0.0
O318 O 0.77695 0.40506 0.54172 0.0
C319 C 0.68163 0.42439 0.50576 0.0
O320 O 0.69618 0.42494 0.48812 0.0
C321 C 0.72226 0.35714 0.56786 0.0
Zn322 Zn 0.61241 0.52789 0.28964 0.0
Zn323 Zn 0.64119 0.49895 0.28764 0.0
O324 O 0.62572 0.48976 0.32007 0.0
O325 O 0.60925 0.52358 0.32463 0.0
O326 O 0.66423 0.47466 0.28197 0.0
O327 O 0.58588 0.50924 0.26371 0.0
O328 O 0.61632 0.49031 0.25561 0.0
C329 C 0.6147 0.50378 0.33294 0.0
C330 C 0.65839 0.55663 0.28401 0.0
O331 O 0.66427 0.5355 0.28899 0.0
O332 O 0.63567 0.55806 0.28094 0.0
C333 C 0.65774 0.45052 0.28156 0.0
O334 O 0.63534 0.44031 0.28665 0.0
C335 C 0.59479 0.49491 0.24934 0.0
Tb336 Tb 0.01968 0.05652 0.01056 0.0
C337 C 0.01446 0.01146 0.96914 0.0
Tb338 Tb 0.99903 0.00337 0.02274 0.0
O339 O 0.05636 0.04802 0.00587 0.0
O340 O 0.03404 0.02873 0.03021 0.0
O341 O 0.01559 0.03629 0.9739 0.0
C342 C 0.98964 0.95599 0.03586 0.0
O343 O 0.00899 0.99488 0.98571 0.0
C344 C 0.96477 0.03019 0.00999 0.0
C345 C 0.01267 0.04769 0.06586 0.0
O346 O 0.00623 0.96463 0.02169 0.0
O347 O 0.97831 0.9739 0.04208 0.0
O348 O 0.9622 0.01281 0.02525 0.0
O349 O 0.98524 0.03036 0.00158 0.0
O350 O 0.01207 0.02321 0.0597 0.0
O351 O 0.01344 0.06434 0.04906 0.0
C352 C 0.0165 0.10278 -0.0012 0.0
O353 O 0.99801 0.08425 0.00038 0.0
O354 O 0.03747 0.09543 0.00402 0.0
C355 C 0.05358 0.02916 0.01981 0.0
Tb356 Tb 0.26018 0.80818 0.27011 0.0
C357 C 0.30818 0.78467 0.26809 0.0
Tb358 Tb 0.25397 0.75214 0.25986 0.0
O359 O 0.2467 0.80293 0.30589 0.0
O360 O 0.26759 0.77813 0.29165 0.0
O361 O 0.29815 0.80469 0.26404 0.0
C362 C 0.24383 0.70237 0.26577 0.0
O363 O 0.2941 0.76223 0.27075 0.0
C364 C 0.25572 0.7769 0.21924 0.0
C365 C 0.2055 0.77619 0.26156 0.0
O366 O 0.2552 0.71248 0.24809 0.0
O367 O 0.23785 0.72018 0.27972 0.0
O368 O 0.26231 0.75518 0.22157 0.0
O369 O 0.24604 0.78201 0.23843 0.0
O370 O 0.21517 0.75543 0.26254 0.0
O371 O 0.21968 0.79929 0.26154 0.0
C372 C 0.27264 0.85896 0.2716 0.0
O373 O 0.27359 0.8458 0.29053 0.0
O374 O 0.26436 0.84355 0.25174 0.0
C375 C 0.25545 0.78254 0.30927 0.0
Tb376 Tb 0.52738 0.02335 0.50693 0.0
C377 C 0.51078 0.01921 0.56041 0.0
Tb378 Tb 0.47276 0.02378 0.51274 0.0
O379 O 0.53961 0.06064 0.52861 0.0
O380 O 0.50466 0.05023 0.50691 0.0
O381 O 0.52807 0.01595 0.5459 0.0
C382 C 0.42831 0.03313 0.51954 0.0
O383 O 0.48874 0.02416 0.55176 0.0
C384 C 0.4824 0.98023 0.49762 0.0
C385 C 0.49031 0.03211 0.46045 0.0
O386 O 0.43254 0.01169 0.51049 0.0
O387 O 0.44947 0.04908 0.52596 0.0
O388 O 0.46132 0.98646 0.49087 0.0
O389 O 0.49562 0.99704 0.51309 0.0
O390 O 0.47469 0.03733 0.47603 0.0
O391 O 0.51068 0.02342 0.46798 0.0
C392 C 0.56672 0.00666 0.49448 0.0
O393 O 0.5631 0.02953 0.49186 0.0
O394 O 0.54868 0.99354 0.50446 0.0
C395 C 0.51825 0.06697 0.52241 0.0
Tb396 Tb 0.27097 0.2886 0.79261 0.0
C397 C 0.27569 0.33174 0.75756 0.0
Tb398 Tb 0.25333 0.274 0.74003 0.0
O399 O 0.31041 0.29527 0.78736 0.0
O400 O 0.28464 0.26871 0.76351 0.0
O401 O 0.27146 0.32597 0.78006 0.0
C402 C 0.25239 0.26135 0.69203 0.0
O403 O 0.27139 0.31404 0.73855 0.0
C404 C 0.21699 0.2807 0.76528 0.0
C405 C 0.24676 0.23181 0.77645 0.0
O406 O 0.26592 0.28171 0.70445 0.0
O407 O 0.23843 0.24886 0.70655 0.0
O408 O 0.21386 0.26672 0.74439 0.0
O409 O 0.23916 0.29344 0.76912 0.0
O410 O 0.25248 0.23664 0.75401 0.0
O411 O 0.2495 0.25046 0.79427 0.0
C412 C 0.27373 0.30132 0.84097 0.0
O413 O 0.26552 0.27859 0.82996 0.0
O414 O 0.28165 0.31632 0.82476 0.0
C415 C 0.30702 0.28067 0.76685 0.0
Tb416 Tb 0.00526 0.0218 0.47618 0.0
C417 C 0.96118 0.02265 0.50853 0.0
Tb418 Tb 0.0162 0.02918 0.53279 0.0
O419 O 0.01194 0.9825 0.47592 0.0
O420 O 0.99934 -0.00041 0.50565 0.0
O421 O 0.97065 0.02989 0.48815 0.0
C422 C 0.03086 0.0144 0.57643 0.0
O423 O 0.97556 0.01802 0.52816 0.0
C424 C 0.01178 0.07086 0.51244 0.0
C425 C 0.06144 0.03447 0.49921 0.0
O426 O 0.02204 0.03491 0.57341 0.0
O427 O 0.03151 0.00258 0.55501 0.0
O428 O 0.00871 0.06758 0.53552 0.0
O429 O 0.02046 0.05263 0.50351 0.0
O430 O 0.05405 0.03403 0.52172 0.0
O431 O 0.04562 0.03071 0.47848 0.0
C432 C 0.98797 0.0275 0.42987 0.0
O433 O 0.00936 0.03942 0.44147 0.0
O434 O 0.9768 0.01186 0.44409 0.0
C435 C 0.00728 0.9804 0.49869 0.0
Tb436 Tb 0.29288 0.79976 0.76789 0.0
C437 C 0.2591 0.79723 0.81092 0.0
Tb438 Tb 0.23803 0.77331 0.75605 0.0
O439 O 0.28562 0.83821 0.77377 0.0
O440 O 0.26004 0.80921 0.75131 0.0
O441 O 0.28211 0.79696 0.8055 0.0
C442 C 0.18914 0.76076 0.74541 0.0
O443 O 0.23929 0.79157 0.79373 0.0
C444 C 0.26874 0.74251 0.76396 0.0
C445 C 0.27109 0.77891 0.71164 0.0
O446 O 0.20138 0.75418 0.76473 0.0
O447 O 0.20412 0.77448 0.73254 0.0
O448 O 0.24735 0.73595 0.75025 0.0
O449 O 0.2707 0.76466 0.77423 0.0
O450 O 0.24867 0.77036 0.71836 0.0
O451 O 0.29027 0.79159 0.72754 0.0
C452 C 0.34139 0.80064 0.77074 0.0
O453 O 0.32383 0.78256 0.75944 0.0
O454 O 0.33164 0.81841 0.7809 0.0
C455 C 0.26298 0.83143 0.76221 0.0
Tb456 Tb 0.47503 0.03321 0.99267 0.0
C457 C 0.49425 0.98078 -0.00173 0.0
Tb458 Tb 0.53077 0.0343 0.01116 0.0
O459 O 0.48434 0.04055 0.95491 0.0
O460 O 0.50585 0.02258 0.97851 0.0
O461 O 0.47503 0.99233 0.9945 0.0
C462 C 0.58023 0.04209 0.01076 0.0
O463 O 0.51784 0.99341 0.00311 0.0
C464 C 0.50119 0.03531 0.04594 0.0
C465 C 0.51187 0.08664 0.00621 0.0
O466 O 0.56851 0.03479 0.02933 0.0
O467 O 0.56408 0.04486 0.99252 0.0
O468 O 0.52194 0.0271 0.04888 0.0
O469 O 0.50002 0.04467 0.0255 0.0
O470 O 0.53076 0.07451 0.0062 0.0
O471 O 0.48807 0.07434 0.0021 0.0
C472 C 0.42702 0.02401 0.00017 0.0
O473 O 0.435 0.0301 0.97923 0.0
O474 O 0.44587 0.023 0.01617 0.0
C475 C 0.50501 0.03196 0.95807 0.0
Tb476 Tb 0.22074 0.25504 0.25657 0.0
C477 C 0.25635 0.25841 0.30619 0.0
Tb478 Tb 0.27628 0.27688 0.25838 0.0
O479 O 0.22508 0.21574 0.25785 0.0
O480 O 0.25151 0.24221 0.24331 0.0
O481 O 0.23366 0.26026 0.29642 0.0
C482 C 0.32573 0.28589 0.25899 0.0
O483 O 0.27571 0.26139 0.29365 0.0
C484 C 0.2477 0.31051 0.26545 0.0
C485 C 0.24319 0.27491 0.20843 0.0
O486 O 0.31288 0.30298 0.26388 0.0
O487 O 0.31065 0.26379 0.25456 0.0
O488 O 0.26806 0.31512 0.25519 0.0
O489 O 0.24533 0.28856 0.27266 0.0
O490 O 0.266 0.2751 0.21894 0.0
O491 O 0.22301 0.26815 0.21965 0.0
C492 C 0.17262 0.25713 0.25499 0.0
O493 O 0.18946 0.27262 0.24562 0.0
O494 O 0.18276 0.23951 0.26447 0.0
C495 C 0.24711 0.21997 0.25045 0.0
Tb496 Tb 0.50539 0.51846 0.97909 0.0
C497 C 0.46399 0.51826 0.01575 0.0
Tb498 Tb 0.52083 0.52792 0.03518 0.0
O499 O 0.51561 0.48128 0.97861 0.0
O500 O 0.50246 0.49662 0.00981 0.0
O501 O 0.47024 0.52157 0.99317 0.0
C502 C 0.5416 0.51877 0.07887 0.0
O503 O 0.48056 0.51694 0.03498 0.0
C504 C 0.5173 0.56876 0.01283 0.0
C505 C 0.56238 0.5296 -0.00236 0.0
O506 O 0.52895 0.53655 0.07552 0.0
O507 O 0.54219 0.50625 0.05785 0.0
O508 O 0.51536 0.56762 0.03635 0.0
O509 O 0.52392 0.54911 0.00474 0.0
O510 O 0.55663 0.52792 0.02068 0.0
O511 O 0.54536 0.52892 0.97823 0.0
C512 C 0.48536 0.52152 0.93318 0.0
O513 O 0.48637 0.5005 0.94314 0.0
O514 O 0.49583 0.54079 0.94897 0.0
C515 C 0.51155 0.4785 0.00143 0.0
Tb516 Tb 0.79085 0.29263 0.2772 0.0
C517 C 0.7509 0.29436 0.31353 0.0
Tb518 Tb 0.73624 0.2723 0.25594 0.0
O519 O 0.78565 0.33166 0.28437 0.0
O520 O 0.76289 0.30622 0.256 0.0
O521 O 0.77494 0.29433 0.31232 0.0
C522 C 0.68871 0.27177 0.24198 0.0
O523 O 0.73381 0.28836 0.29364 0.0
C524 C 0.76116 0.23651 0.2654 0.0
C525 C 0.77605 0.27634 0.21834 0.0
O526 O 0.69674 0.25904 0.2594 0.0
O527 O 0.70731 0.28407 0.23211 0.0
O528 O 0.74141 0.23312 0.24912 0.0
O529 O 0.76409 0.25841 0.27697 0.0
O530 O 0.75185 0.27166 0.22075 0.0
O531 O 0.79366 0.28467 0.23752 0.0
C532 C 0.83778 0.28831 0.28764 0.0
O533 O 0.83098 0.30958 0.28332 0.0
O534 O 0.81829 0.27025 0.28728 0.0
C535 C 0.76554 0.32757 0.26836 0.0
Tb536 Tb 0.97683 0.52575 0.49135 0.0
C537 C 0.00677 0.48297 0.49581 0.0
Tb538 Tb 0.03317 0.5412 0.50716 0.0
O539 O 0.98368 0.51208 0.45431 0.0
O540 O 0.00865 0.54256 0.47498 0.0
O541 O 0.98532 0.48933 0.49944 0.0
C542 C 0.08284 0.54876 0.50873 0.0
O543 O 0.02737 0.50034 0.49486 0.0
C544 C 0.00568 0.54064 0.5436 0.0
C545 C 0.00243 0.58447 0.50344 0.0
O546 O 0.06991 0.53847 0.52534 0.0
O547 O 0.0678 0.55508 0.49133 0.0
O548 O 0.0278 0.55494 0.54455 0.0
O549 O 0.00122 0.52542 0.52407 0.0
O550 O 0.02507 0.57907 0.50564 0.0
O551 O 0.98136 0.56702 0.49822 0.0
C552 C 0.92709 0.51409 0.48907 0.0
O553 O 0.9398 0.5112 0.47076 0.0
O554 O 0.9424 0.52414 0.50866 0.0
C555 C 0.00502 0.52778 0.45541 0.0
Tb556 Tb 0.77637 0.78623 0.29733 0.0
C557 C 0.77552 0.83501 0.26911 0.0
Tb558 Tb 0.75378 0.77995 0.2422 0.0
O559 O 0.8147 0.79336 0.28751 0.0
O560 O 0.78511 0.77151 0.26341 0.0
O561 O 0.77365 0.8253 0.29074 0.0
C562 C 0.75953 0.77589 0.19503 0.0
O563 O 0.77144 0.82036 0.24785 0.0
C564 C 0.72093 0.79093 0.27062 0.0
C565 C 0.7489 0.73102 0.27219 0.0
O566 O 0.77404 0.79192 0.21183 0.0
O567 O 0.741 0.76273 0.20464 0.0
O568 O 0.71644 0.78781 0.24644 0.0
O569 O 0.74303 0.78864 0.27647 0.0
O570 O 0.74575 0.73994 0.25015 0.0
O571 O 0.75985 0.74551 0.29272 0.0
C572 C 0.77789 0.78672 0.34617 0.0
O573 O 0.76697 0.76783 0.33021 0.0
O574 O 0.78924 0.80491 0.33448 0.0
C575 C 0.80771 0.7823 0.26513 0.0
Tb576 Tb 0.75675 0.30815 0.7723 0.0
C577 C 0.80635 0.2868 0.76847 0.0
Tb578 Tb 0.75238 0.25143 0.75735 0.0
O579 O 0.75102 0.30074 0.81103 0.0
O580 O 0.76642 0.27676 0.78899 0.0
O581 O 0.79546 0.30673 0.7678 0.0
C582 C 0.74413 0.20114 0.75978 0.0
O583 O 0.79311 0.26305 0.76721 0.0
C584 C 0.75149 0.28 0.7198 0.0
C585 C 0.70284 0.27395 0.76229 0.0
O586 O 0.75482 0.21305 0.7426 0.0
O587 O 0.73779 0.21748 0.77524 0.0
O588 O 0.75843 0.25821 0.71914 0.0
O589 O 0.74272 0.28275 0.74001 0.0
O590 O 0.71312 0.25341 0.76154 0.0
O591 O 0.71643 0.2975 0.76388 0.0
C592 C 0.76797 0.35818 0.76807 0.0
O593 O 0.7595 0.34794 0.78723 0.0
O594 O 0.76984 0.34029 0.75162 0.0
C595 C 0.75818 0.27904 0.8094 0.0
Tb596 Tb 0.72479 0.7583 0.75597 0.0
C597 C 0.76152 0.77079 0.80679 0.0
Tb598 Tb 0.78002 0.78905 0.75769 0.0
O599 O 0.73362 0.72659 0.73356 0.0
O600 O 0.76119 0.75049 0.75884 0.0
O601 O 0.73827 0.76225 0.79566 0.0
C602 C 0.82786 0.79498 0.75295 0.0
O603 O 0.78091 0.77997 0.79539 0.0
C604 C 0.74871 0.81928 0.76597 0.0
C605 C 0.74196 0.78419 0.70902 0.0
O606 O 0.81826 0.81125 0.7655 0.0
O607 O 0.81051 0.77594 0.74277 0.0
O608 O 0.77276 0.82756 0.76712 0.0
O609 O 0.74477 0.79563 0.76052 0.0
O610 O 0.76574 0.78895 0.71887 0.0
O611 O 0.72303 0.77356 0.7204 0.0
C612 C 0.67687 0.7488 0.76175 0.0
O613 O 0.69124 0.73234 0.76394 0.0
O614 O 0.68956 0.77025 0.75637 0.0
C615 C 0.75733 0.73216 0.74208 0.0
Tb616 Tb 0.52556 0.56103 0.50577 0.0
C617 C 0.51579 0.51331 0.46615 0.0
Tb618 Tb 0.50373 0.50676 0.52005 0.0
O619 O 0.56378 0.55496 0.50648 0.0
O620 O 0.53866 0.53288 0.52532 0.0
O621 O 0.51472 0.53772 0.47031 0.0
C622 C 0.50491 0.46339 0.54022 0.0
O623 O 0.51413 0.49754 0.48376 0.0
C624 C 0.47001 0.53429 0.50767 0.0
C625 C 0.50643 0.55495 0.55771 0.0
O626 O 0.52071 0.48481 0.54609 0.0
O627 O 0.48802 0.46605 0.52242 0.0
O628 O 0.4656 0.5145 0.52031 0.0
O629 O 0.491 0.53504 0.50011 0.0
O630 O 0.50577 0.53008 0.55464 0.0
O631 O 0.51191 0.57054 0.54044 0.0
C632 C 0.52981 0.60576 0.48722 0.0
O633 O 0.52965 0.6027 0.51063 0.0
O634 O 0.52872 0.58398 0.47501 0.0
C635 C 0.5599 0.5345 0.51804 0.0
Tb636 Tb 0.03008 0.52795 -0.00137 0.0
C637 C 0.0219 0.50983 0.0537 0.0
Tb638 Tb 0.97932 0.52382 0.01861 0.0
O639 O 0.03639 0.56951 0.00124 0.0
O640 O 0.01504 0.54782 0.02528 0.0
O641 O 0.03563 0.51147 0.03482 0.0
C642 C 0.93918 0.53713 0.03349 0.0
O643 O 0.99954 0.51563 0.0523 0.0
C644 C 0.98755 0.48296 0.99556 0.0
C645 C 0.98709 0.54284 0.96404 0.0
O646 O 0.93907 0.51758 0.01803 0.0
O647 O 0.96198 0.54899 0.04069 0.0
O648 O 0.97338 0.48162 0.01332 0.0
O649 O 0.99419 0.50558 0.99129 0.0
O650 O 0.97383 0.54147 0.98329 0.0
O651 O 0.00938 0.5366 0.96493 0.0
C652 C 0.06722 0.5084 0.98386 0.0
O653 O 0.04381 0.4976 0.98022 0.0
O654 O 0.06972 0.53106 0.99528 0.0
C655 C 0.02177 0.56976 0.01856 0.0
H656 H 0.04599 0.24196 0.95192 0.0
H657 H 0.99138 0.20992 0.88846 0.0
H658 H 0.98325 0.16865 0.90638 0.0
H659 H 0.07193 0.18459 0.95814 0.0
H660 H 0.07665 0.18897 0.99156 0.0
H661 H 0.07805 0.21624 0.97398 0.0
H662 H 0.04418 0.2305 -0.00215 0.0
H663 H 0.0424 0.20301 0.01518 0.0
H664 H 0.01463 0.20884 -0.00214 0.0
H665 H 0.97717 0.13383 0.93259 0.0
H666 H 0.98118 0.10091 0.96079 0.0
H667 H 0.04407 0.15219 0.00516 0.0
C668 C 0.03302 0.22588 0.94156 0.0
C669 C 0.01962 0.22851 0.91868 0.0
C670 C 0.00221 0.20767 0.9057 0.0
C671 C 0.9972 0.18445 0.9159 0.0
C672 C 0.01018 0.1825 0.93879 0.0
C673 C 0.02834 0.20222 0.95117 0.0
C674 C 0.0402 0.19429 0.97501 0.0
C675 C 0.06838 0.19611 0.97463 0.0
C676 C 0.03503 0.21011 -0.00219 0.0
C677 C 0.02613 0.16687 0.97364 0.0
C678 C 0.0082 0.16107 0.9531 0.0
C679 C 0.9915 0.13779 0.94842 0.0
C680 C 0.99386 0.11933 0.9646 0.0
C681 C 0.01326 0.12408 0.98466 0.0
C682 C 0.02944 0.14818 0.98958 0.0
H683 H 0.0816 0.80507 0.19504 0.0
H684 H 0.0441 0.72964 0.20898 0.0
H685 H 0.08075 0.72629 0.23826 0.0
H686 H 0.13771 0.79394 0.19116 0.0
H687 H 0.15622 0.82323 0.20715 0.0
H688 H 0.12528 0.82257 0.19248 0.0
H689 H 0.1126 0.83945 0.23391 0.0
H690 H 0.1438 0.84072 0.24872 0.0
H691 H 0.11731 0.8231 0.26123 0.0
H692 H 0.12462 0.72728 0.25735 0.0
H693 H 0.17028 0.73436 0.26874 0.0
H694 H 0.17857 0.81028 0.24417 0.0
C695 C 0.08073 0.7884 0.20523 0.0
C696 C 0.06009 0.7677 0.2001 0.0
C697 C 0.05959 0.74586 0.21316 0.0
C698 C 0.08038 0.7438 0.2297 0.0
C699 C 0.10108 0.76407 0.23342 0.0
C700 C 0.10106 0.78634 0.22215 0.0
C701 C 0.12637 0.80434 0.22729 0.0
C702 C 0.13701 0.8114 0.20308 0.0
C703 C 0.12492 0.82832 0.24377 0.0
C704 C 0.14121 0.78787 0.24136 0.0
C705 C 0.12624 0.7649 0.24513 0.0
C706 C 0.13635 0.74551 0.25523 0.0
C707 C 0.16235 0.74965 0.26149 0.0
C708 C 0.17798 0.773 0.25762 0.0
C709 C 0.1671 0.79247 0.24791 0.0
H710 H 0.52664 0.88976 0.39971 0.0
H711 H 0.51915 0.83311 0.45247 0.0
H712 H 0.51336 0.86533 0.48467 0.0
H713 H 0.55779 0.94664 0.44952 0.0
H714 H 0.54195 0.9677 0.43272 0.0
H715 H 0.55228 0.94224 0.41613 0.0
H716 H 0.50714 0.92581 0.39418 0.0
H717 H 0.49644 0.95059 0.41108 0.0
H718 H 0.48192 0.91767 0.41263 0.0
H719 H 0.49925 0.90026 0.50755 0.0
H720 H 0.48326 0.93817 0.52168 0.0
H721 H 0.49973 0.97195 0.45399 0.0
C722 C 0.52546 0.88477 0.41852 0.0
C723 C 0.52407 0.85945 0.42408 0.0
C724 C 0.52116 0.85281 0.44838 0.0
C725 C 0.51767 0.8709 0.46667 0.0
C726 C 0.51775 0.89555 0.46033 0.0
C727 C 0.52243 0.90279 0.4371 0.0
C728 C 0.51897 0.92972 0.43431 0.0
C729 C 0.54425 0.94764 0.43309 0.0
C730 C 0.49998 0.93098 0.41173 0.0
C731 C 0.50909 0.93535 0.45844 0.0
C732 C 0.50922 0.91573 0.47352 0.0
C733 C 0.49965 0.91602 0.49619 0.0
C734 C 0.49036 0.93732 0.50391 0.0
C735 C 0.49023 0.95741 0.48864 0.0
C736 C 0.49962 0.95651 0.46573 0.0
H737 H 0.4113 0.24336 0.68768 0.0
H738 H 0.44103 0.32502 0.69274 0.0
H739 H 0.40375 0.33301 0.70999 0.0
H740 H 0.34371 0.24721 0.6733 0.0
H741 H 0.333 0.22196 0.69202 0.0
H742 H 0.36055 0.22192 0.67688 0.0
H743 H 0.38608 0.21954 0.71922 0.0
H744 H 0.35855 0.21945 0.7343 0.0
H745 H 0.38655 0.24322 0.74455 0.0
H746 H 0.36662 0.33321 0.73006 0.0
H747 H 0.33171 0.32535 0.75491 0.0
H748 H 0.32332 0.24378 0.73802 0.0
C749 C 0.4097 0.26289 0.6921 0.0
C750 C 0.42922 0.28358 0.68876 0.0
C751 C 0.42654 0.30883 0.69511 0.0
C752 C 0.40526 0.31362 0.70477 0.0
C753 C 0.38654 0.29302 0.70802 0.0
C754 C 0.38838 0.26811 0.70201 0.0
C755 C 0.36615 0.24967 0.70952 0.0
C756 C 0.3499 0.23428 0.68657 0.0
C757 C 0.37486 0.23193 0.728 0.0
C758 C 0.35241 0.26826 0.72176 0.0
C759 C 0.3644 0.29313 0.72002 0.0
C760 C 0.35681 0.31387 0.73125 0.0
C761 C 0.33696 0.30922 0.74537 0.0
C762 C 0.32469 0.28406 0.74815 0.0
C763 C 0.33204 0.26323 0.73566 0.0
H764 H 0.02129 0.85836 0.57069 0.0
H765 H 0.94266 0.85048 0.57934 0.0
H766 H 0.94066 0.88724 0.55533 0.0
H767 H 0.03561 0.9258 0.57709 0.0
H768 H 0.05689 0.9302 0.55402 0.0
H769 H 0.05357 0.90212 0.57059 0.0
H770 H 0.04161 0.87203 0.53057 0.0
H771 H 0.04618 0.89927 0.51284 0.0
H772 H 0.0169 0.87644 0.50781 0.0
H773 H 0.94665 0.9243 0.53095 0.0
H774 H 0.96077 0.96135 0.50812 0.0
H775 H 0.03554 0.94609 0.51424 0.0
C776 C 0.00364 0.86433 0.56742 0.0
C777 C 0.98205 0.85141 0.57671 0.0
C778 C 0.95936 0.85989 0.5722 0.0
C779 C 0.95803 0.88078 0.5586 0.0
C780 C 0.9795 0.8929 0.54949 0.0
C781 C 0.00191 0.8851 0.55366 0.0
C782 C 0.02225 0.90197 0.54206 0.0
C783 C 0.04334 0.91588 0.56211 0.0
C784 C 0.03233 0.88649 0.52213 0.0
C785 C 0.00764 0.9203 0.53055 0.0
C786 C 0.98303 0.91459 0.53517 0.0
C787 C 0.9658 0.92886 0.52701 0.0
C788 C 0.97395 0.94975 0.51397 0.0
C789 C 0.99905 0.9561 0.50907 0.0
C790 C 0.01612 0.94112 0.51725 0.0
H791 H 0.4523 0.80774 0.87099 0.0
H792 H 0.46308 0.73664 0.83575 0.0
H793 H 0.4361 0.74259 0.79793 0.0
H794 H 0.39159 0.80155 0.85242 0.0
H795 H 0.39234 0.83444 0.84719 0.0
H796 H 0.41596 0.82655 0.86874 0.0
H797 H 0.45028 0.85019 0.84455 0.0
H798 H 0.42654 0.85799 0.82269 0.0
H799 H 0.44934 0.8414 0.81185 0.0
H800 H 0.40152 0.75193 0.76877 0.0
H801 H 0.36257 0.76347 0.75105 0.0
H802 H 0.3773 0.83053 0.80381 0.0
C803 C 0.44919 0.79366 0.8551 0.0
C804 C 0.45905 0.77154 0.85613 0.0
C805 C 0.45524 0.75358 0.83512 0.0
C806 C 0.44027 0.75699 0.81359 0.0
C807 C 0.43029 0.77893 0.81328 0.0
C808 C 0.435 0.79718 0.83339 0.0
C809 C 0.42027 0.81775 0.82962 0.0
C810 C 0.40408 0.82017 0.85071 0.0
C811 C 0.43765 0.84335 0.82702 0.0
C812 C 0.40467 0.80703 0.80528 0.0
C813 C 0.41119 0.78499 0.79573 0.0
C814 C 0.39683 0.76959 0.77553 0.0
C815 C 0.37472 0.77626 0.76561 0.0
C816 C 0.36729 0.79799 0.7761 0.0
C817 C 0.38304 0.81421 0.7952 0.0
H818 H 0.48363 0.21652 0.06742 0.0
H819 H 0.53045 0.20274 0.13238 0.0
H820 H 0.54118 0.16671 0.10881 0.0
H821 H 0.45845 0.15051 0.04791 0.0
H822 H 0.45764 0.15385 0.01516 0.0
H823 H 0.45513 0.18036 0.03619 0.0
H824 H 0.49286 0.20835 0.01986 0.0
H825 H 0.49562 0.18176 -0.00104 0.0
H826 H 0.52202 0.1978 0.02074 0.0
H827 H 0.54777 0.13355 0.07954 0.0
H828 H 0.54445 0.09851 0.04748 0.0
H829 H 0.48997 0.12886 0.00127 0.0
C830 C 0.4964 0.20605 0.07643 0.0
C831 C 0.50653 0.21258 0.10159 0.0
C832 C 0.52263 0.19813 0.11308 0.0
C833 C 0.52897 0.17774 0.09982 0.0
C834 C 0.51888 0.17182 0.07511 0.0
C835 C 0.50256 0.18505 0.06351 0.0
C836 C 0.49291 0.17287 0.03729 0.0
C837 C 0.46434 0.16385 0.03396 0.0
C838 C 0.50136 0.1913 0.01808 0.0
C839 C 0.50601 0.1505 0.03638 0.0
C840 C 0.52147 0.15101 0.05823 0.0
C841 C 0.53587 0.13291 0.06226 0.0
C842 C 0.53402 0.11322 0.0437 0.0
C843 C 0.51733 0.11123 0.02159 0.0
C844 C 0.50321 0.13024 0.01777 0.0
H845 H 0.07911 0.25747 0.35295 0.0
H846 H 0.08248 0.33738 0.34279 0.0
H847 H 0.10532 0.33298 0.30645 0.0
H848 H 0.13822 0.2533 0.33894 0.0
H849 H 0.1286 0.22189 0.32257 0.0
H850 H 0.11118 0.23151 0.34629 0.0
H851 H 0.07093 0.22079 0.31462 0.0
H852 H 0.08851 0.2117 0.29065 0.0
H853 H 0.07029 0.23575 0.28606 0.0
H854 H 0.1298 0.3203 0.27302 0.0
H855 H 0.15823 0.30197 0.24861 0.0
H856 H 0.138 0.23019 0.28048 0.0
C857 C 0.08476 0.27412 0.34319 0.0
C858 C 0.07935 0.29787 0.35082 0.0
C859 C 0.08662 0.31906 0.33728 0.0
C860 C 0.09932 0.31666 0.3165 0.0
C861 C 0.10396 0.2928 0.30924 0.0
C862 C 0.09692 0.27192 0.32221 0.0
C863 C 0.10508 0.24867 0.31139 0.0
C864 C 0.12178 0.23826 0.33096 0.0
C865 C 0.08235 0.22801 0.30001 0.0
C866 C 0.11948 0.26017 0.29142 0.0
C867 C 0.11787 0.28542 0.28987 0.0
C868 C 0.13088 0.30048 0.27382 0.0
C869 C 0.1469 0.28984 0.25993 0.0
C870 C 0.15019 0.26466 0.26274 0.0
C871 C 0.13549 0.24934 0.27778 0.0
H872 H 0.92509 0.08045 0.15865 0.0
H873 H 0.95685 0.02928 0.20458 0.0
H874 H 0.99313 0.0341 0.18192 0.0
H875 H 0.93746 0.05763 0.10467 0.0
H876 H 0.94694 0.08699 0.091 0.0
H877 H 0.92688 0.08595 0.11483 0.0
H878 H 0.95853 0.12347 0.1404 0.0
H879 H 0.97873 0.12435 0.11636 0.0
H880 H 0.99059 0.12086 0.1478 0.0
H881 H 0.01821 0.03327 0.14866 0.0
H882 H 0.03116 0.02854 0.10706 0.0
H883 H 0.98851 0.08392 0.08288 0.0
C884 C 0.94018 0.0711 0.16435 0.0
C885 C 0.93797 0.05418 0.18304 0.0
C886 C 0.95789 0.04194 0.18993 0.0
C887 C 0.97886 0.04487 0.17744 0.0
C888 C 0.98008 0.0605 0.15822 0.0
C889 C 0.96161 0.07391 0.1519 0.0
C890 C 0.96606 0.08635 0.12817 0.0
C891 C 0.94294 0.07872 0.10853 0.0
C892 C 0.97395 0.11549 0.13351 0.0
C893 C 0.98777 0.07513 0.12075 0.0
C894 C 0.99611 0.06103 0.13889 0.0
C895 C 0.01263 0.04504 0.13466 0.0
C896 C 0.01982 0.04234 0.11094 0.0
C897 C 0.01078 0.05584 0.09186 0.0
C898 C 0.99585 0.07359 0.09727 0.0
H899 H 0.29592 0.69573 0.41666 0.0
H900 H 0.25318 0.73607 0.46219 0.0
H901 H 0.24302 0.76036 0.42782 0.0
H902 H 0.32065 0.75262 0.38382 0.0
H903 H 0.31891 0.7344 0.35437 0.0
H904 H 0.32425 0.71995 0.3828 0.0
H905 H 0.28578 0.68358 0.36791 0.0
H906 H 0.28013 0.69815 0.33963 0.0
H907 H 0.25583 0.69141 0.35932 0.0
H908 H 0.23407 0.77819 0.38919 0.0
H909 H 0.2315 0.79375 0.34791 0.0
H910 H 0.281 0.74525 0.32499 0.0
C911 C 0.28488 0.71004 0.41942 0.0
C912 C 0.27514 0.71367 0.44225 0.0
C913 C 0.26061 0.73254 0.44495 0.0
C914 C 0.25466 0.74655 0.42547 0.0
C915 C 0.26357 0.742 0.4031 0.0
C916 C 0.27878 0.7247 0.39984 0.0
C917 C 0.28573 0.72436 0.37339 0.0
C918 C 0.31407 0.73336 0.37361 0.0
C919 C 0.27631 0.69779 0.35924 0.0
C920 C 0.27167 0.74373 0.36262 0.0
C921 C 0.25897 0.75339 0.38028 0.0
C922 C 0.2442 0.77108 0.37522 0.0
C923 C 0.24282 0.77978 0.35165 0.0
C924 C 0.25621 0.77098 0.33325 0.0
C925 C 0.27062 0.7524 0.33872 0.0
H926 H 0.57442 0.97292 0.68485 0.0
H927 H 0.54412 0.03054 0.7246 0.0
H928 H 0.5236 0.04037 0.68573 0.0
H929 H 0.58678 0.00395 0.63224 0.0
H930 H 0.57547 0.97687 0.60954 0.0
H931 H 0.58666 0.97211 0.64079 0.0
H932 H 0.54456 0.94191 0.64454 0.0
H933 H 0.53328 0.94641 0.61317 0.0
H934 H 0.51587 0.95292 0.63818 0.0
H935 H 0.50886 0.04735 0.643 0.0
H936 H 0.4984 0.0485 0.5979 0.0
H937 H 0.5364 0.98646 0.58389 0.0
C938 C 0.563 0.98715 0.68538 0.0
C939 C 0.56127 0.00098 0.70809 0.0
C940 C 0.54609 0.01957 0.70774 0.0
C941 C 0.5342 0.02543 0.68562 0.0
C942 C 0.53685 0.01217 0.66363 0.0
C943 C 0.55033 0.99301 0.66319 0.0
C944 C 0.54976 0.98188 0.63657 0.0
C945 C 0.57625 0.98384 0.62937 0.0
C946 C 0.535 0.95413 0.63289 0.0
C947 C 0.53559 -0.00087 0.62233 0.0
C948 C 0.52785 0.01604 0.63849 0.0
C949 C 0.51449 0.03395 0.6301 0.0
C950 C 0.5086 0.03447 0.60447 0.0
C951 C 0.51646 0.01755 0.58743 0.0
C952 C 0.53021 -0.00031 0.59654 0.0
H953 H 0.22795 0.30453 0.97009 0.0
H954 H 0.20645 0.37485 0.95191 0.0
H955 H 0.20558 0.36215 0.90778 0.0
H956 H 0.27111 0.30809 0.94131 0.0
H957 H 0.26967 0.27628 0.92744 0.0
H958 H 0.25492 0.28071 0.95466 0.0
H959 H 0.21179 0.25632 0.93318 0.0
H960 H 0.22665 0.24964 0.90625 0.0
H961 H 0.19988 0.26433 0.90327 0.0
H962 H 0.2307 0.35693 0.87553 0.0
H963 H 0.25853 0.34582 0.84625 0.0
H964 H 0.26317 0.27697 0.88187 0.0
C965 C 0.22136 0.31624 0.95654 0.0
C966 C 0.21841 0.34099 0.96401 0.0
C967 C 0.20934 0.35599 0.94639 0.0
C968 C 0.20887 0.34892 0.92122 0.0
C969 C 0.21687 0.32666 0.91448 0.0
C970 C 0.22131 0.30945 0.93137 0.0
C971 C 0.23465 0.2899 0.92052 0.0
C972 C 0.25901 0.28873 0.93696 0.0
C973 C 0.21718 0.26348 0.91549 0.0
C974 C 0.24013 0.30105 0.89663 0.0
C975 C 0.22978 0.32224 0.8936 0.0
C976 C 0.2372 0.33926 0.87642 0.0
C977 C 0.25366 0.33321 0.86042 0.0
C978 C 0.26249 0.31034 0.8618 0.0
C979 C 0.25604 0.29426 0.88029 0.0
H980 H 0.96585 0.07191 0.29603 0.0
H981 H 0.89119 0.07608 0.31198 0.0
H982 H 0.90345 0.07166 0.35589 0.0
H983 H 0.97401 0.02559 0.32807 0.0
H984 H 0.00617 0.03629 0.34138 0.0
H985 H 0.99518 0.04781 0.313 0.0
H986 H 0.00922 0.09466 0.33197 0.0
H987 H 0.02148 0.08358 0.36027 0.0
H988 H 0.99939 0.10419 0.3611 0.0
H989 H 0.91845 0.05256 0.39249 0.0
H990 H 0.94 0.0323 0.42506 0.0
H991 H 0.00668 0.0442 0.38809 0.0
C992 C 0.95259 0.07336 0.3091 0.0
C993 C 0.92759 0.07408 0.30073 0.0
C994 C 0.91049 0.07566 0.31808 0.0
C995 C 0.91725 0.07304 0.34306 0.0
C996 C 0.94138 0.06988 0.35038 0.0
C997 C 0.95925 0.07131 0.33424 0.0
C998 C 0.98299 0.06467 0.34628 0.0
C999 C 0.98996 0.04226 0.33129 0.0
C1000 C 0.00455 0.08818 0.35014 0.0
C1001 C 0.97481 0.05709 0.37078 0.0
C1002 C 0.95074 0.06028 0.37272 0.0
C1003 C 0.93769 0.05106 0.3918 0.0
C1004 C 0.94988 0.03919 0.40992 0.0
C1005 C 0.97493 0.03703 0.40896 0.0
C1006 C 0.98761 0.04611 0.38926 0.0
H1007 H 0.28411 0.68929 0.59169 0.0
H1008 H 0.31537 0.75762 0.55901 0.0
H1009 H 0.31335 0.78375 0.5978 0.0
H1010 H 0.23987 0.71345 0.61922 0.0
H1011 H 0.24176 0.69766 0.64726 0.0
H1012 H 0.25035 0.68372 0.61932 0.0
H1013 H 0.29436 0.68305 0.64153 0.0
H1014 H 0.28512 0.69579 0.66973 0.0
H1015 H 0.31297 0.71189 0.65827 0.0
H1016 H 0.30544 0.80262 0.63979 0.0
H1017 H 0.29273 0.81244 0.68109 0.0
H1018 H 0.26114 0.73229 0.68386 0.0
C1019 C 0.29179 0.70961 0.59328 0.0
C1020 C 0.30107 0.72135 0.5728 0.0
C1021 C 0.30934 0.74818 0.57489 0.0
C1022 C 0.30794 0.76317 0.59677 0.0
C1023 C 0.29788 0.75109 0.61636 0.0
C1024 C 0.29016 0.72485 0.6149 0.0
C1025 C 0.27798 0.71676 0.63762 0.0
C1026 C 0.25088 0.70204 0.63041 0.0
C1027 C 0.29354 0.70094 0.65267 0.0
C1028 C 0.27911 0.74253 0.65161 0.0
C1029 C 0.29131 0.76206 0.6394 0.0
C1030 C 0.29582 0.78744 0.64943 0.0
C1031 C 0.2884 0.79289 0.67282 0.0
C1032 C 0.27577 0.77323 0.68561 0.0
C1033 C 0.27055 0.7478 0.67447 0.0
H1034 H 0.58241 0.04215 0.84232 0.0
H1035 H 0.58111 0.96103 0.84176 0.0
H1036 H 0.55832 0.95986 0.87886 0.0
H1037 H 0.58963 0.05706 0.90921 0.0
H1038 H 0.56994 0.08009 0.90689 0.0
H1039 H 0.58798 0.0744 0.88216 0.0
H1040 H 0.54751 0.06445 0.85095 0.0
H1041 H 0.52926 0.06969 0.87558 0.0
H1042 H 0.52173 0.03982 0.8563 0.0
H1043 H 0.53662 0.96868 0.91693 0.0
H1044 H 0.51503 0.98505 0.94986 0.0
H1045 H 0.52606 0.05912 0.92153 0.0
C1046 C 0.57768 0.02402 0.84998 0.0
C1047 C 0.58378 0.00162 0.83908 0.0
C1048 C 0.57683 0.97843 0.8498 0.0
C1049 C 0.56389 0.97765 0.87085 0.0
C1050 C 0.55791 0.00015 0.88073 0.0
C1051 C 0.56456 0.02285 0.8705 0.0
C1052 C 0.55502 0.04421 0.88356 0.0
C1053 C 0.57694 0.06517 0.8962 0.0
C1054 C 0.53732 0.05517 0.86552 0.0
C1055 C 0.54123 0.02993 0.90256 0.0
C1056 C 0.54374 0.00471 0.90106 0.0
C1057 C 0.53417 0.9882 0.91783 0.0
C1058 C 0.52173 0.99764 0.93642 0.0
C1059 C 0.51802 0.02303 0.93774 0.0
C1060 C 0.52793 0.0394 0.92052 0.0
H1061 H 0.22453 0.31967 0.0754 0.0
H1062 H 0.25541 0.39585 0.11072 0.0
H1063 H 0.24864 0.38069 0.15154 0.0
H1064 H 0.17766 0.30239 0.12574 0.0
H1065 H 0.18144 0.2698 0.12257 0.0
H1066 H 0.18134 0.28784 0.09589 0.0
H1067 H 0.22386 0.27753 0.08813 0.0
H1068 H 0.22472 0.26027 0.1151 0.0
H1069 H 0.25005 0.28646 0.11221 0.0
H1070 H 0.25715 0.35571 0.18424 0.0
H1071 H 0.26486 0.32404 0.21211 0.0
H1072 H 0.21891 0.26359 0.16038 0.0
C1073 C 0.22879 0.33313 0.09182 0.0
C1074 C 0.2408 0.35863 0.09059 0.0
C1075 C 0.24634 0.37619 0.11181 0.0
C1076 C 0.24235 0.36779 0.13488 0.0
C1077 C 0.23197 0.34209 0.1359 0.0
C1078 C 0.22395 0.32515 0.11494 0.0
C1079 C 0.21588 0.29805 0.12167 0.0
C1080 C 0.18738 0.289 0.11615 0.0
C1081 C 0.22947 0.27952 0.1085 0.0
C1082 C 0.2242 0.30207 0.14932 0.0
C1083 C 0.2334 0.32771 0.15689 0.0
C1084 C 0.24824 0.33588 0.17933 0.0
C1085 C 0.2529 0.31763 0.19488 0.0
C1086 C 0.24138 0.29169 0.18883 0.0
C1087 C 0.22687 0.28359 0.16573 0.0
H1088 H 0.16705 0.96432 0.98793 0.0
H1089 H 0.14655 0.9105 0.04163 0.0
H1090 H 0.11125 0.93087 0.04965 0.0
H1091 H 0.15378 0.01865 0.02055 0.0
H1092 H 0.14131 0.03127 0.99326 0.0
H1093 H 0.16427 0.01185 0.99105 0.0
H1094 H 0.13428 0.98106 0.95697 0.0
H1095 H 0.11127 0.00049 0.95903 0.0
H1096 H 0.10323 0.96701 0.96312 0.0
H1097 H 0.07862 0.95859 0.05286 0.0
H1098 H 0.05145 0.99022 0.05008 0.0
H1099 H 0.09304 0.02545 0.99397 0.0
C1100 C 0.15506 0.95664 0.00126 0.0
C1101 C 0.15971 0.93568 0.01413 0.0
C1102 C 0.14344 0.92638 0.03142 0.0
C1103 C 0.12332 0.9379 0.03615 0.0
C1104 C 0.11946 0.95866 0.02332 0.0
C1105 C 0.13479 0.9678 0.00606 0.0
C1106 C 0.1268 0.99047 0.99487 0.0
C1107 C 0.14779 0.01447 0.00026 0.0
C1108 C 0.1184 0.98438 0.96684 0.0
C1109 C 0.10486 0.99299 0.00883 0.0
C1110 C 0.10081 0.97442 0.02509 0.0
C1111 C 0.08164 0.97312 0.0401 0.0
C1112 C 0.06627 0.99117 0.03841 0.0
C1113 C 0.07009 0.01033 0.02184 0.0
C1114 C 0.08968 0.01112 0.00689 0.0
H1115 H 0.67435 0.62877 0.9602 0.0
H1116 H 0.72233 0.60195 0.01639 0.0
H1117 H 0.68776 0.56648 0.02149 0.0
H1118 H 0.62058 0.61753 0.9881 0.0
H1119 H 0.59932 0.60668 0.96012 0.0
H1120 H 0.62861 0.62809 0.95878 0.0
H1121 H 0.63989 0.59614 0.92615 0.0
H1122 H 0.61054 0.57458 0.92739 0.0
H1123 H 0.63942 0.56374 0.93304 0.0
H1124 H 0.64675 0.53867 0.02531 0.0
H1125 H 0.60233 0.51849 0.02551 0.0
H1126 H 0.58176 0.56084 0.96448 0.0
C1127 C 0.67766 0.61504 0.97312 0.0
C1128 C 0.70093 0.6179 0.98779 0.0
C1129 C 0.70468 0.5998 0.00471 0.0
C1130 C 0.68517 0.57963 0.00776 0.0
C1131 C 0.6623 0.57749 0.99327 0.0
C1132 C 0.65856 0.59442 0.97596 0.0
C1133 C 0.6318 0.58863 0.96372 0.0
C1134 C 0.61935 0.61159 0.96795 0.0
C1135 C 0.63034 0.58027 0.93592 0.0
C1136 C 0.62085 0.5666 0.9777 0.0
C1137 C 0.63879 0.56039 0.99459 0.0
C1138 C 0.63264 0.54273 0.01164 0.0
C1139 C 0.60744 0.5314 0.01165 0.0
C1140 C 0.58885 0.53767 0.9946 0.0
C1141 C 0.59574 0.55499 0.97706 0.0
H1142 H 0.65554 0.39993 0.28883 0.0
H1143 H 0.69906 0.46413 0.25813 0.0
H1144 H 0.72873 0.43764 0.24707 0.0
H1145 H 0.70697 0.37818 0.3169 0.0
H1146 H 0.69273 0.34479 0.31083 0.0
H1147 H 0.67346 0.36791 0.31379 0.0
H1148 H 0.6492 0.3505 0.27022 0.0
H1149 H 0.66877 0.32749 0.26783 0.0
H1150 H 0.66639 0.34876 0.24401 0.0
H1151 H 0.75596 0.40619 0.24322 0.0
H1152 H 0.77928 0.37143 0.24734 0.0
H1153 H 0.7181 0.32708 0.27945 0.0
C1154 C 0.6711 0.40827 0.27943 0.0
C1155 C 0.675 0.43414 0.27438 0.0
C1156 C 0.69578 0.44444 0.26236 0.0
C1157 C 0.71264 0.42948 0.25582 0.0
C1158 C 0.70851 0.40421 0.26139 0.0
C1159 C 0.68825 0.3936 0.27289 0.0
C1160 C 0.68934 0.36658 0.2786 0.0
C1161 C 0.69072 0.36425 0.30669 0.0
C1162 C 0.66708 0.34721 0.26429 0.0
C1163 C 0.71364 0.36393 0.26896 0.0
C1164 C 0.72426 0.38581 0.25893 0.0
C1165 C 0.74765 0.38877 0.25061 0.0
C1166 C 0.76076 0.36903 0.25302 0.0
C1167 C 0.75029 0.34661 0.26335 0.0
C1168 C 0.72628 0.34383 0.27102 0.0
H1169 H 0.80271 0.46812 0.55037 0.0
H1170 H 0.77912 0.41311 0.48585 0.0
H1171 H 0.81513 0.43349 0.46611 0.0
H1172 H 0.82754 0.52295 0.51206 0.0
H1173 H 0.85272 0.53668 0.5361 0.0
H1174 H 0.82322 0.52017 0.54414 0.0
H1175 H 0.84595 0.49052 0.5692 0.0
H1176 H 0.87541 0.50687 0.56123 0.0
H1177 H 0.86573 0.4728 0.55417 0.0
H1178 H 0.85532 0.45579 0.45533 0.0
H1179 H 0.89805 0.47981 0.45369 0.0
H1180 H 0.89655 0.52175 0.5244 0.0
C1181 C 0.80474 0.46117 0.53171 0.0
C1182 C 0.78792 0.43956 0.51921 0.0
C1183 C 0.79146 0.4302 0.49523 0.0
C1184 C 0.81189 0.44155 0.48394 0.0
C1185 C 0.82835 0.46268 0.49664 0.0
C1186 C 0.82488 0.47281 0.51979 0.0
C1187 C 0.84623 0.49507 0.52956 0.0
C1188 C 0.83687 0.52021 0.53053 0.0
C1189 C 0.85909 0.49104 0.55504 0.0
C1190 C 0.86315 0.49413 0.50941 0.0
C1191 C 0.852 0.47581 0.49027 0.0
C1192 C 0.86409 0.47057 0.46993 0.0
C1193 C 0.88834 0.48433 0.46915 0.0
C1194 C 0.90042 0.50272 0.4888 0.0
C1195 C 0.88756 0.50792 0.50904 0.0
H1196 H 0.35322 0.138 0.22926 0.0
H1197 H 0.33908 0.10939 0.3001 0.0
H1198 H 0.30809 0.13597 0.30408 0.0
H1199 H 0.34767 0.20237 0.24603 0.0
H1200 H 0.33105 0.20686 0.21692 0.0
H1201 H 0.35222 0.1852 0.21772 0.0
H1202 H 0.31749 0.14851 0.19628 0.0
H1203 H 0.29635 0.17015 0.19424 0.0
H1204 H 0.28822 0.14112 0.20888 0.0
H1205 H 0.2777 0.16394 0.30056 0.0
H1206 H 0.25018 0.19354 0.29019 0.0
H1207 H 0.28408 0.20771 0.22292 0.0
C1208 C 0.34368 0.13746 0.24564 0.0
C1209 C 0.34885 0.12149 0.26441 0.0
C1210 C 0.33569 0.1213 0.28542 0.0
C1211 C 0.31791 0.13637 0.28789 0.0
C1212 C 0.31319 0.15172 0.26919 0.0
C1213 C 0.32557 0.15247 0.24843 0.0
C1214 C 0.3166 0.17093 0.23127 0.0
C1215 C 0.33824 0.19263 0.2278 0.0
C1216 C 0.30391 0.15683 0.20619 0.0
C1217 C 0.29775 0.18073 0.24593 0.0
C1218 C 0.29595 0.16893 0.26757 0.0
C1219 C 0.27916 0.17353 0.28381 0.0
C1220 C 0.26365 0.19051 0.2778 0.0
C1221 C 0.26532 0.20341 0.25609 0.0
C1222 C 0.28279 0.19858 0.23995 0.0
H1223 H 0.34083 0.13302 0.51269 0.0
H1224 H 0.30799 0.09432 0.44046 0.0
H1225 H 0.33437 0.06236 0.44623 0.0
H1226 H 0.40348 0.1241 0.5089 0.0
H1227 H 0.40908 0.11944 0.54129 0.0
H1228 H 0.38771 0.1391 0.53124 0.0
H1229 H 0.35319 0.11129 0.55213 0.0
H1230 H 0.37436 0.0912 0.56175 0.0
H1231 H 0.34482 0.07738 0.54352 0.0
H1232 H 0.36124 0.03318 0.46128 0.0
H1233 H 0.39412 0.01307 0.48033 0.0
H1234 H 0.41156 0.07268 0.54145 0.0
C1235 C 0.33925 0.1179 0.49799 0.0
C1236 C 0.32218 0.1158 0.47623 0.0
C1237 C 0.3209 0.09608 0.45727 0.0
C1238 C 0.33562 0.07781 0.46048 0.0
C1239 C 0.3515 0.07988 0.48261 0.0
C1240 C 0.35388 0.09976 0.50079 0.0
C1241 C 0.37292 0.09806 0.52251 0.0
C1242 C 0.39458 0.12156 0.52617 0.0
C1243 C 0.36057 0.09426 0.54638 0.0
C1244 C 0.38119 0.07426 0.51346 0.0
C1245 C 0.36804 0.06371 0.49077 0.0
C1246 C 0.37179 0.04128 0.47894 0.0
C1247 C 0.39027 0.02987 0.49007 0.0
C1248 C 0.4051 0.04137 0.51238 0.0
C1249 C 0.40021 0.06351 0.5245 0.0
H1250 H 0.65125 0.59873 0.26159 0.0
H1251 H 0.70823 0.56756 0.303 0.0
H1252 H 0.73833 0.60861 0.30312 0.0
H1253 H 0.69138 0.63576 0.22294 0.0
H1254 H 0.67502 0.66167 0.22398 0.0
H1255 H 0.65861 0.62963 0.2265 0.0
H1256 H 0.6446 0.6446 0.26795 0.0
H1257 H 0.66105 0.67667 0.26569 0.0
H1258 H 0.66779 0.6608 0.29288 0.0
H1259 H 0.76069 0.65456 0.30205 0.0
H1260 H 0.77488 0.7003 0.29658 0.0
H1261 H 0.70394 0.70018 0.25347 0.0
C1262 C 0.67015 0.60038 0.27049 0.0
C1263 C 0.67743 0.57995 0.28235 0.0
C1264 C 0.70232 0.5829 0.2937 0.0
C1265 C 0.71947 0.60617 0.29393 0.0
C1266 C 0.71147 0.62606 0.28242 0.0
C1267 C 0.68746 0.62323 0.27063 0.0
C1268 C 0.68325 0.64757 0.26003 0.0
C1269 C 0.67669 0.6434 0.23168 0.0
C1270 C 0.66298 0.65802 0.27237 0.0
C1271 C 0.70876 0.66464 0.26752 0.0
C1272 C 0.72466 0.652 0.28076 0.0
C1273 C 0.74858 0.66445 0.29129 0.0
C1274 C 0.75645 0.69039 0.28814 0.0
C1275 C 0.74067 0.70346 0.27419 0.0
C1276 C 0.71659 0.69036 0.26362 0.0
H1277 H 0.84971 0.47285 0.71216 0.0
H1278 H 0.84376 0.52099 0.77749 0.0
H1279 H 0.81203 0.48643 0.79006 0.0
H1280 H 0.78046 0.43925 0.70211 0.0
H1281 H 0.78858 0.40991 0.69111 0.0
H1282 H 0.80715 0.44008 0.68549 0.0
H1283 H 0.8465 0.42647 0.70628 0.0
H1284 H 0.82786 0.39673 0.71251 0.0
H1285 H 0.84715 0.41761 0.73762 0.0
H1286 H 0.78757 0.44402 0.79937 0.0
H1287 H 0.76866 0.39858 0.8022 0.0
H1288 H 0.78823 0.37923 0.7293 0.0
C1289 C 0.84088 0.47635 0.72853 0.0
C1290 C 0.84875 0.49951 0.74374 0.0
C1291 C 0.83742 0.50348 0.76537 0.0
C1292 C 0.81951 0.48393 0.77269 0.0
C1293 C 0.81264 0.4609 0.7577 0.0
C1294 C 0.82242 0.45731 0.73565 0.0
C1295 C 0.81313 0.43028 0.72371 0.0
C1296 C 0.79633 0.42987 0.69916 0.0
C1297 C 0.83497 0.41701 0.71983 0.0
C1298 C 0.7981 0.41878 0.74331 0.0
C1299 C 0.79775 0.43675 0.76267 0.0
C1300 C 0.78705 0.42995 0.78398 0.0
C1301 C 0.77643 0.40414 0.78549 0.0
C1302 C 0.77674 0.38558 0.76585 0.0
C1303 C 0.78737 0.39313 0.74442 0.0
H1304 H 0.99283 0.81435 0.06908 0.0
H1305 H 0.00481 0.84508 0.14623 0.0
H1306 H 0.00286 0.88792 0.13337 0.0
H1307 H 0.02765 0.86624 0.04357 0.0
H1308 H 0.00583 0.86489 0.0161 0.0
H1309 H 0.00739 0.83636 0.03108 0.0
H1310 H 0.96009 0.82924 0.03501 0.0
H1311 H 0.95839 0.85765 0.01979 0.0
H1312 H 0.94789 0.85438 0.04982 0.0
H1313 H 0.00144 0.92676 0.1128 0.0
H1314 H 0.99779 0.96058 0.08524 0.0
H1315 H 0.98596 0.90525 0.02085 0.0
C1316 C 0.99464 0.83014 0.08314 0.0
C1317 C 0.99877 0.82678 0.10858 0.0
C1318 C 0.00121 0.84753 0.12669 0.0
C1319 C 0.0003 0.87181 0.11956 0.0
C1320 C 0.99641 0.87465 0.09432 0.0
C1321 C 0.99316 0.8544 0.07633 0.0
C1322 C 0.98866 0.86277 0.05052 0.0
C1323 C 0.00859 0.85724 0.03439 0.0
C1324 C 0.96219 0.85027 0.03806 0.0
C1325 C 0.99107 0.89111 0.05685 0.0
C1326 C 0.99527 0.89735 0.08226 0.0
C1327 C 0.9979 0.92215 0.09291 0.0
C1328 C 0.99574 0.94113 0.07717 0.0
C1329 C 0.99137 0.93518 0.05118 0.0
C1330 C 0.98928 0.91001 0.04075 0.0
H1331 H 0.94039 0.25468 0.80857 0.0
H1332 H 0.95394 0.3235 0.85903 0.0
H1333 H 0.91488 0.3339 0.84052 0.0
H1334 H 0.90976 0.28469 0.7547 0.0
H1335 H 0.88785 0.25535 0.74393 0.0
H1336 H 0.91868 0.25456 0.75852 0.0
H1337 H 0.89909 0.22577 0.79045 0.0
H1338 H 0.86831 0.22657 0.77606 0.0
H1339 H 0.87697 0.2364 0.8087 0.0
H1340 H 0.87376 0.33514 0.82053 0.0
H1341 H 0.83108 0.32751 0.79935 0.0
H1342 H 0.84175 0.25761 0.76081 0.0
C1343 C 0.93543 0.27236 0.81491 0.0
C1344 C 0.9503 0.28875 0.83473 0.0
C1345 C 0.94301 0.31123 0.84337 0.0
C1346 C 0.92086 0.31723 0.83304 0.0
C1347 C 0.90637 0.30073 0.81375 0.0
C1348 C 0.91332 0.27893 0.80439 0.0
C1349 C 0.89326 0.26412 0.78427 0.0
C1350 C 0.90297 0.2647 0.75885 0.0
C1351 C 0.88385 0.23659 0.79026 0.0
C1352 C 0.87327 0.27989 0.78549 0.0
C1353 C 0.88178 0.30133 0.80208 0.0
C1354 C 0.86699 0.31874 0.80708 0.0
C1355 C 0.84274 0.31423 0.79481 0.0
C1356 C 0.83319 0.29217 0.77806 0.0
C1357 C 0.8487 0.27477 0.77328 0.0
H1358 H 0.51431 0.17702 0.62552 0.0
H1359 H 0.45865 0.20015 0.57487 0.0
H1360 H 0.45637 0.16134 0.54649 0.0
H1361 H 0.54826 0.15801 0.58411 0.0
H1362 H 0.5554 0.13043 0.59799 0.0
H1363 H 0.54848 0.15616 0.61706 0.0
H1364 H 0.51255 0.12532 0.63327 0.0
H1365 H 0.52005 0.09923 0.61496 0.0
H1366 H 0.48873 0.10485 0.61142 0.0
H1367 H 0.46564 0.12459 0.52098 0.0
H1368 H 0.48292 0.09006 0.50151 0.0
H1369 H 0.53326 0.09155 0.56878 0.0
C1370 C 0.50076 0.17312 0.60902 0.0
C1371 C 0.4862 0.19095 0.60245 0.0
C1372 C 0.46932 0.18612 0.58039 0.0
C1373 C 0.46808 0.16429 0.56416 0.0
C1374 C 0.48362 0.14757 0.57064 0.0
C1375 C 0.49919 0.15139 0.59286 0.0
C1376 C 0.5157 0.13201 0.59445 0.0
C1377 C 0.5436 0.14495 0.59863 0.0
C1378 C 0.50884 0.1143 0.61472 0.0
C1379 C 0.50833 0.11786 0.56893 0.0
C1380 C 0.4894 0.12672 0.5557 0.0
C1381 C 0.48014 0.11722 0.53132 0.0
C1382 C 0.49015 0.0978 0.52039 0.0
C1383 C 0.50939 0.08844 0.53375 0.0
C1384 C 0.51869 0.09865 0.55822 0.0
H1385 H 0.59128 0.81915 0.30368 0.0
H1386 H 0.59991 0.77792 0.36864 0.0
H1387 H 0.64181 0.77332 0.3592 0.0
H1388 H 0.61938 0.78169 0.26404 0.0
H1389 H 0.63444 0.80813 0.24876 0.0
H1390 H 0.60604 0.80962 0.26177 0.0
H1391 H 0.62823 0.85181 0.28802 0.0
H1392 H 0.65678 0.85028 0.27517 0.0
H1393 H 0.65656 0.85259 0.3083 0.0
H1394 H 0.68352 0.77355 0.34233 0.0
H1395 H 0.71836 0.77414 0.31685 0.0
H1396 H 0.68086 0.81283 0.26205 0.0
C1397 C 0.60199 0.80927 0.31604 0.0
C1398 C 0.59226 0.79903 0.33699 0.0
C1399 C 0.60692 0.78604 0.35252 0.0
C1400 C 0.63083 0.78342 0.34737 0.0
C1401 C 0.63988 0.79385 0.32659 0.0
C1402 C 0.62578 0.80634 0.31108 0.0
C1403 C 0.6392 0.81484 0.28932 0.0
C1404 C 0.62385 0.80284 0.26452 0.0
C1405 C 0.64556 0.84412 0.29026 0.0
C1406 C 0.66261 0.80436 0.29443 0.0
C1407 C 0.66309 0.79296 0.31639 0.0
C1408 C 0.68323 0.78236 0.32507 0.0
C1409 C 0.703 0.7829 0.3106 0.0
C1410 C 0.70214 0.79346 0.28753 0.0
C1411 C 0.68185 0.80455 0.27959 0.0
H1412 H 0.00741 0.17296 0.41319 0.0
H1413 H 0.04398 0.23057 0.47248 0.0
H1414 H 0.04779 0.19693 0.50044 0.0
H1415 H 0.97178 0.13222 0.44658 0.0
H1416 H 0.97598 0.10254 0.43174 0.0
H1417 H 0.97893 0.13044 0.41504 0.0
H1418 H 0.02331 0.12653 0.40642 0.0
H1419 H 0.02007 0.09805 0.42241 0.0
H1420 H 0.04631 0.12416 0.43185 0.0
H1421 H 0.04027 0.15875 0.52358 0.0
H1422 H 0.03029 0.11639 0.53921 0.0
H1423 H 0.00228 0.08215 0.46444 0.0
C1424 C 0.01715 0.17824 0.43176 0.0
C1425 C 0.02584 0.20415 0.44077 0.0
C1426 C 0.03783 0.21073 0.46526 0.0
C1427 C 0.03986 0.19179 0.48126 0.0
C1428 C 0.03033 0.16641 0.47218 0.0
C1429 C 0.02002 0.15944 0.44777 0.0
C1430 C 0.0108 0.1307 0.44304 0.0
C1431 C 0.98271 0.12359 0.43356 0.0
C1432 C 0.02604 0.11918 0.42487 0.0
C1433 C 0.01623 0.12293 0.469 0.0
C1434 C 0.02738 0.1439 0.48545 0.0
C1435 C 0.03225 0.14205 0.51081 0.0
C1436 C 0.02628 0.118 0.51955 0.0
C1437 C 0.01592 0.09611 0.50294 0.0
C1438 C 0.01074 0.0986 0.47737 0.0
H1439 H 0.57582 0.31184 0.16524 0.0
H1440 H 0.53391 0.29427 0.22707 0.0
H1441 H 0.57239 0.29024 0.25252 0.0
H1442 H 0.60833 0.26732 0.17027 0.0
H1443 H 0.63782 0.28446 0.16284 0.0
H1444 H 0.60939 0.29365 0.15139 0.0
H1445 H 0.62605 0.33961 0.17162 0.0
H1446 H 0.65507 0.33121 0.18295 0.0
H1447 H 0.63745 0.34514 0.20421 0.0
H1448 H 0.61151 0.27646 0.26674 0.0
H1449 H 0.65228 0.26341 0.27236 0.0
H1450 H 0.66886 0.29082 0.20182 0.0
C1451 C 0.57497 0.30851 0.18453 0.0
C1452 C 0.55192 0.30307 0.1941 0.0
C1453 C 0.55143 0.29836 0.21932 0.0
C1454 C 0.57318 0.29599 0.23394 0.0
C1455 C 0.59522 0.29898 0.22316 0.0
C1456 C 0.59651 0.30605 0.19931 0.0
C1457 C 0.62167 0.30503 0.19105 0.0
C1458 C 0.61912 0.28651 0.16751 0.0
C1459 C 0.63591 0.33184 0.18725 0.0
C1460 C 0.63365 0.29487 0.21336 0.0
C1461 C 0.61818 0.29156 0.23173 0.0
C1462 C 0.62417 0.27975 0.25288 0.0
C1463 C 0.64706 0.27201 0.25573 0.0
C1464 C 0.66346 0.27631 0.23753 0.0
C1465 C 0.65661 0.28765 0.21609 0.0
H1466 H 0.53472 0.84765 0.98451 0.0
H1467 H 0.5127 0.84738 0.90564 0.0
H1468 H 0.49982 0.8884 0.91303 0.0
H1469 H 0.4883 0.87191 0.00637 0.0
H1470 H 0.50642 0.89324 0.03181 0.0
H1471 H 0.51713 0.8654 0.02084 0.0
H1472 H 0.55927 0.89302 0.0128 0.0
H1473 H 0.54928 0.92081 0.0251 0.0
H1474 H 0.5592 0.91978 0.99465 0.0
H1475 H 0.47986 0.92263 0.93019 0.0
H1476 H 0.47055 0.95997 0.9535 0.0
H1477 H 0.51209 0.94271 0.02013 0.0
C1478 C 0.52845 0.85699 0.96877 0.0
C1479 C 0.52476 0.84466 0.94455 0.0
C1480 C 0.51603 0.85691 0.92428 0.0
C1481 C 0.50826 0.87994 0.92833 0.0
C1482 C 0.51032 0.8907 0.95266 0.0
C1483 C 0.52161 0.88055 0.97238 0.0
C1484 C 0.52205 0.89644 0.99659 0.0
C1485 C 0.50762 0.8808 0.01497 0.0
C1486 C 0.54905 0.90822 0.00794 0.0
C1487 C 0.50848 0.9165 0.98743 0.0
C1488 C 0.50109 0.91223 0.96218 0.0
C1489 C 0.48625 0.92673 0.94983 0.0
C1490 C 0.48058 0.94751 0.96334 0.0
C1491 C 0.49085 0.95415 0.98845 0.0
C1492 C 0.50411 0.93793 0.0009 0.0
H1493 H 0.92172 0.75547 0.67015 0.0
H1494 H 0.95887 0.83509 0.67384 0.0
H1495 H 0.93247 0.84573 0.70559 0.0
H1496 H 0.86108 0.76408 0.6764 0.0
H1497 H 0.85454 0.7376 0.69491 0.0
H1498 H 0.8766 0.73771 0.67291 0.0
H1499 H 0.91031 0.7319 0.70842 0.0
H1500 H 0.8879 0.73193 0.73003 0.0
H1501 H 0.91742 0.75428 0.73577 0.0
H1502 H 0.90047 0.8471 0.73577 0.0
H1503 H 0.86238 0.83992 0.757 0.0
H1504 H 0.84989 0.75891 0.7347 0.0
C1505 C 0.92432 0.77522 0.67748 0.0
C1506 C 0.94228 0.79447 0.66964 0.0
C1507 C 0.94499 0.82009 0.67955 0.0
C1508 C 0.93039 0.82622 0.69779 0.0
C1509 C 0.91355 0.80642 0.70585 0.0
C1510 C 0.91037 0.78151 0.69573 0.0
C1511 C 0.89073 0.7636 0.70669 0.0
C1512 C 0.86949 0.74998 0.68653 0.0
C1513 C 0.9023 0.74432 0.7211 0.0
C1514 C 0.88234 0.78249 0.72387 0.0
C1515 C 0.89598 0.80706 0.72361 0.0
C1516 C 0.88988 0.82794 0.73638 0.0
C1517 C 0.86838 0.82372 0.74845 0.0
C1518 C 0.85347 0.79891 0.74719 0.0
C1519 C 0.86123 0.77802 0.73595 0.0
H1520 H 0.08561 0.0405 0.85371 0.0
H1521 H 0.1039 0.96553 0.85302 0.0
H1522 H 0.07777 0.95561 0.88697 0.0
H1523 H 0.08627 0.05224 0.91856 0.0
H1524 H 0.06065 0.06856 0.91523 0.0
H1525 H 0.08095 0.0688 0.89149 0.0
H1526 H 0.04243 0.05036 0.85886 0.0
H1527 H 0.02203 0.04953 0.88263 0.0
H1528 H 0.02192 0.02085 0.86326 0.0
H1529 H 0.04987 0.95516 0.92219 0.0
H1530 H 0.0259 0.96502 0.9562 0.0
H1531 H 0.02498 0.03943 0.93037 0.0
C1532 C 0.08435 0.02195 0.86064 0.0
C1533 C 0.09688 0.0038 0.85072 0.0
C1534 C 0.09455 0.97978 0.86043 0.0
C1535 C 0.07962 0.97395 0.87955 0.0
C1536 C 0.06705 0.99225 0.88844 0.0
C1537 C 0.06945 0.01577 0.87924 0.0
C1538 C 0.05446 0.03246 0.8917 0.0
C1539 C 0.07161 0.05694 0.90504 0.0
C1540 C 0.034 0.03865 0.873 0.0
C1541 C 0.04344 0.01489 0.90985 0.0
C1542 C 0.05071 0.99171 0.90774 0.0
C1543 C 0.04388 0.97314 0.92377 0.0
C1544 C 0.03009 0.97886 0.94295 0.0
C1545 C 0.02343 0.00297 0.94593 0.0
C1546 C 0.02953 0.02073 0.92856 0.0
H1547 H 0.74251 0.3748 0.61488 0.0
H1548 H 0.6889 0.31338 0.57145 0.0
H1549 H 0.68725 0.2884 0.60792 0.0
H1550 H 0.77766 0.33888 0.64365 0.0
H1551 H 0.78445 0.35674 0.67377 0.0
H1552 H 0.77716 0.37241 0.64671 0.0
H1553 H 0.74115 0.38744 0.66617 0.0
H1554 H 0.7486 0.37222 0.69362 0.0
H1555 H 0.71738 0.36443 0.67736 0.0
H1556 H 0.69769 0.26717 0.64592 0.0
H1557 H 0.71617 0.25265 0.68438 0.0
H1558 H 0.76315 0.3278 0.70368 0.0
C1559 C 0.72942 0.35668 0.61359 0.0
C1560 C 0.71518 0.34625 0.59073 0.0
C1561 C 0.69924 0.32195 0.58909 0.0
C1562 C 0.69836 0.30761 0.60967 0.0
C1563 C 0.71348 0.31795 0.63173 0.0
C1564 C 0.72831 0.34221 0.63404 0.0
C1565 C 0.74475 0.34781 0.65889 0.0
C1566 C 0.77264 0.35432 0.65553 0.0
C1567 C 0.73753 0.36924 0.67496 0.0
C1568 C 0.73791 0.32242 0.66958 0.0
C1569 C 0.7196 0.30559 0.65376 0.0
C1570 C 0.71159 0.28037 0.65869 0.0
C1571 C 0.72233 0.27222 0.68042 0.0
C1572 C 0.74086 0.28919 0.69698 0.0
C1573 C 0.74866 0.31462 0.69155 0.0
H1574 H 0.43137 0.02278 0.31884 0.0
H1575 H 0.45887 0.10431 0.3199 0.0
H1576 H 0.4785 0.1053 0.36342 0.0
H1577 H 0.41633 0.02398 0.38169 0.0
H1578 H 0.42494 0.9939 0.38663 0.0
H1579 H 0.41357 0.00018 0.35593 0.0
H1580 H 0.45358 0.99036 0.33994 0.0
H1581 H 0.46527 0.9844 0.37066 0.0
H1582 H 0.48375 0.00781 0.35438 0.0
H1583 H 0.49566 0.0965 0.40717 0.0
H1584 H 0.50567 0.07985 0.44753 0.0
H1585 H 0.46611 0.00418 0.41738 0.0
C1586 C 0.44158 0.04093 0.32814 0.0
C1587 C 0.44381 0.06349 0.31582 0.0
C1588 C 0.45691 0.08683 0.32891 0.0
C1589 C 0.46821 0.08748 0.35358 0.0
C1590 C 0.46593 0.0647 0.36497 0.0
C1591 C 0.4526 0.04193 0.35268 0.0
C1592 C 0.45204 0.02016 0.36904 0.0
C1593 C 0.42512 0.0089 0.37359 0.0
C1594 C 0.4644 -0.00053 0.35783 0.0
C1595 C 0.46748 0.03403 0.39255 0.0
C1596 C 0.47541 0.05972 0.38985 0.0
C1597 C 0.48958 0.07644 0.40932 0.0
C1598 C 0.49531 0.06682 0.43212 0.0
C1599 C 0.48704 0.04072 0.43532 0.0
C1600 C 0.47308 0.02411 0.41522 0.0
H1601 H 0.75854 0.68211 0.07931 0.0
H1602 H 0.81265 0.74137 0.05399 0.0
H1603 H 0.82066 0.76449 0.09598 0.0
H1604 H 0.72892 0.71744 0.10652 0.0
H1605 H 0.72224 0.70102 0.13351 0.0
H1606 H 0.72794 0.68365 0.10619 0.0
H1607 H 0.76421 0.66798 0.13047 0.0
H1608 H 0.75781 0.68421 0.15842 0.0
H1609 H 0.78882 0.6907 0.1494 0.0
H1610 H 0.81366 0.78611 0.13528 0.0
H1611 H 0.7955 0.80272 0.17108 0.0
H1612 H 0.7438 0.73009 0.1689 0.0
C1613 C 0.77301 0.69927 0.08323 0.0
C1614 C 0.7851 0.71024 0.06414 0.0
C1615 C 0.80354 0.73287 0.06894 0.0
C1616 C 0.80823 0.74594 0.09265 0.0
C1617 C 0.79446 0.73569 0.11093 0.0
C1618 C 0.7777 0.7124 0.10668 0.0
C1619 C 0.76172 0.70781 0.12738 0.0
C1620 C 0.73357 0.70219 0.1178 0.0
C1621 C 0.76857 0.68641 0.1423 0.0
C1622 C 0.76995 0.73331 0.1423 0.0
C1623 C 0.78954 0.74874 0.13325 0.0
C1624 C 0.79879 0.77397 0.14294 0.0
C1625 C 0.78809 0.78338 0.16283 0.0
C1626 C 0.76805 0.76769 0.17212 0.0
C1627 C 0.75887 0.7425 0.16173 0.0
H1628 H 0.07082 0.027 0.72126 0.0
H1629 H 0.09872 0.95733 0.71184 0.0
H1630 H 0.08096 0.95179 0.66734 0.0
H1631 H 0.01385 0.00986 0.67792 0.0
H1632 H 0.01811 0.0413 0.66736 0.0
H1633 H 0.02984 0.03724 0.69867 0.0
H1634 H 0.07401 0.06076 0.69144 0.0
H1635 H 0.06255 0.06461 0.66005 0.0
H1636 H 0.08846 0.04908 0.66608 0.0
H1637 H 0.06312 0.95648 0.62315 0.0
H1638 H 0.04777 0.97106 0.58341 0.0
H1639 H 0.03343 0.03851 0.6228 0.0
C1640 C 0.07264 0.01011 0.7101 0.0
C1641 C 0.08575 0.9923 0.72003 0.0
C1642 C 0.08852 0.97103 0.70456 0.0
C1643 C 0.07847 0.96777 0.67936 0.0
C1644 C 0.06615 0.98617 0.6701 0.0
C1645 C 0.06335 0.00697 0.68509 0.0
C1646 C 0.05198 0.02562 0.67052 0.0
C1647 C 0.02695 0.02866 0.67913 0.0
C1648 C 0.07034 0.05153 0.67212 0.0
C1649 C 0.04837 0.01198 0.64481 0.0
C1650 C 0.0566 0.98924 0.64488 0.0
C1651 C 0.05637 0.97407 0.623 0.0
C1652 C 0.04763 0.98245 0.60057 0.0
C1653 C 0.03921 0.00567 0.60023 0.0
C1654 C 0.03948 0.02052 0.62263 0.0
H1655 H 0.76224 0.34143 0.45843 0.0
H1656 H 0.68627 0.35309 0.44581 0.0
H1657 H 0.68407 0.33738 0.40149 0.0
H1658 H 0.78088 0.3624 0.40112 0.0
H1659 H 0.80033 0.3394 0.39747 0.0
H1660 H 0.79536 0.3508 0.42804 0.0
H1661 H 0.77936 0.30434 0.43775 0.0
H1662 H 0.78421 0.29271 0.40721 0.0
H1663 H 0.75388 0.28415 0.41753 0.0
H1664 H 0.69044 0.31964 0.35834 0.0
H1665 H 0.70477 0.30347 0.32026 0.0
H1666 H 0.77751 0.30517 0.36089 0.0
C1667 C 0.74497 0.34052 0.4465 0.0
C1668 C 0.72426 0.34825 0.45585 0.0
C1669 C 0.70228 0.34708 0.43928 0.0
C1670 C 0.70091 0.3382 0.41404 0.0
C1671 C 0.72173 0.33074 0.40556 0.0
C1672 C 0.74338 0.33199 0.42133 0.0
C1673 C 0.7634 0.32346 0.40766 0.0
C1674 C 0.78634 0.34532 0.40863 0.0
C1675 C 0.77063 0.29976 0.41816 0.0
C1676 C 0.74969 0.31707 0.38157 0.0
C1677 C 0.72563 0.32128 0.38079 0.0
C1678 C 0.70927 0.3164 0.35883 0.0
C1679 C 0.71767 0.30714 0.3372 0.0
C1680 C 0.74241 0.30303 0.33732 0.0
C1681 C 0.75855 0.30809 0.35999 0.0
H1682 H 0.46736 0.03901 0.18419 0.0
H1683 H 0.41976 0.09212 0.16566 0.0
H1684 H 0.43112 0.09022 0.12272 0.0
H1685 H 0.51619 0.06112 0.14755 0.0
H1686 H 0.5204 0.02936 0.13899 0.0
H1687 H 0.50936 0.03647 0.16807 0.0
H1688 H 0.47064 -0.0003 0.15591 0.0
H1689 H 0.48132 0.99275 0.12658 0.0
H1690 H 0.45065 -0.00042 0.12741 0.0
H1691 H 0.44734 0.08094 0.08106 0.0
H1692 H 0.46809 0.06727 0.04597 0.0
H1693 H 0.50342 0.01902 0.09246 0.0
C1694 C 0.45946 0.05061 0.17134 0.0
C1695 C 0.4427 0.06589 0.17849 0.0
C1696 C 0.43279 0.08049 0.16079 0.0
C1697 C 0.43903 0.07935 0.13631 0.0
C1698 C 0.45507 0.06344 0.12984 0.0
C1699 C 0.46518 0.04945 0.147 0.0
C1700 C 0.48132 0.03315 0.13558 0.0
C1701 C 0.50842 0.04048 0.1483 0.0
C1702 C 0.47032 0.00461 0.13642 0.0
C1703 C 0.47928 0.04049 0.10928 0.0
C1704 C 0.4639 0.05782 0.10619 0.0
C1705 C 0.45936 0.06738 0.08339 0.0
C1706 C 0.47115 0.05938 0.0635 0.0
C1707 C 0.48728 0.04195 0.06645 0.0
C1708 C 0.49114 0.03228 0.08962 0.0
H1709 H 0.77865 0.68355 0.91346 0.0
H1710 H 0.80264 0.75288 0.96279 0.0
H1711 H 0.80698 0.77815 0.92687 0.0
H1712 H 0.8125 0.70721 0.85683 0.0
H1713 H 0.78538 0.69015 0.8365 0.0
H1714 H 0.79492 0.67756 0.86493 0.0
H1715 H 0.75 0.67541 0.87618 0.0
H1716 H 0.74109 0.6898 0.84884 0.0
H1717 H 0.73814 0.70433 0.87894 0.0
H1718 H 0.79844 0.79623 0.88737 0.0
H1719 H 0.78119 0.80564 0.84589 0.0
H1720 H 0.7575 0.72473 0.82339 0.0
C1721 C 0.78638 0.70385 0.91646 0.0
C1722 C 0.79073 0.71648 0.94043 0.0
C1723 C 0.79964 0.74313 0.94426 0.0
C1724 C 0.80216 0.75754 0.92402 0.0
C1725 C 0.79539 0.74484 0.90034 0.0
C1726 C 0.78812 0.71848 0.89639 0.0
C1727 C 0.77668 0.70992 0.8699 0.0
C1728 C 0.79339 0.69537 0.85624 0.0
C1729 C 0.7499 0.69395 0.86842 0.0
C1730 C 0.77676 0.73551 0.86026 0.0
C1731 C 0.78841 0.75539 0.87774 0.0
C1732 C 0.78966 0.78083 0.87337 0.0
C1733 C 0.77947 0.78602 0.85011 0.0
C1734 C 0.76754 0.76579 0.83221 0.0
C1735 C 0.76599 0.74035 0.83731 0.0
H1736 H 0.85702 0.10308 0.96262 0.0
H1737 H 0.86958 0.1432 0.03642 0.0
H1738 H 0.90558 0.12332 0.04687 0.0
H1739 H 0.87067 0.04508 0.98017 0.0
H1740 H 0.88648 0.03864 0.95388 0.0
H1741 H 0.86297 0.05761 0.95117 0.0
H1742 H 0.89468 0.09426 0.93666 0.0
H1743 H 0.91828 0.07532 0.93929 0.0
H1744 H 0.92413 0.1067 0.95563 0.0
H1745 H 0.93711 0.09621 0.05098 0.0
H1746 H 0.96274 0.06332 0.04869 0.0
H1747 H 0.93302 0.04229 0.97161 0.0
C1748 C 0.86754 0.10798 0.98088 0.0
C1749 C 0.8603 0.12483 -0.0013 0.0
C1750 C 0.87459 0.13047 0.02241 0.0
C1751 C 0.89518 0.11929 0.02852 0.0
C1752 C 0.90158 0.1026 0.01069 0.0
C1753 C 0.88836 0.09706 0.98727 0.0
C1754 C 0.89868 0.07755 0.97201 0.0
C1755 C 0.8785 0.05329 0.96383 0.0
C1756 C 0.90959 0.08916 0.94957 0.0
C1757 C 0.9192 0.07239 0.99084 0.0
C1758 C 0.92055 0.08725 0.01294 0.0
C1759 C 0.93656 0.08471 0.03377 0.0
C1760 C 0.95121 0.06621 0.03226 0.0
C1761 C 0.95056 0.05098 0.00989 0.0
C1762 C 0.93447 0.05427 0.98877 0.0
H1763 H 0.33265 0.42447 0.98894 0.0
H1764 H 0.31164 0.46125 0.05442 0.0
H1765 H 0.35051 0.49438 0.05796 0.0
H1766 H 0.39505 0.4324 0.00744 0.0
H1767 H 0.40553 0.4395 0.97801 0.0
H1768 H 0.37483 0.42068 0.97896 0.0
H1769 H 0.3552 0.45234 0.95364 0.0
H1770 H 0.38592 0.47122 0.95239 0.0
H1771 H 0.36232 0.48578 0.96447 0.0
H1772 H 0.39511 0.51786 0.05881 0.0
H1773 H 0.43953 0.53378 0.05335 0.0
H1774 H 0.42901 0.4851 0.98452 0.0
C1775 C 0.33607 0.43988 0.00364 0.0
C1776 C 0.31947 0.44044 0.02151 0.0
C1777 C 0.32426 0.46073 0.04054 0.0
C1778 C 0.34623 0.47956 0.04267 0.0
C1779 C 0.36266 0.47819 0.0251 0.0
C1780 C 0.35745 0.45928 0.00551 0.0
C1781 C 0.37852 0.46156 0.98961 0.0
C1782 C 0.3891 0.43709 0.98846 0.0
C1783 C 0.36997 0.46812 0.96348 0.0
C1784 C 0.39698 0.48374 0.00412 0.0
C1785 C 0.38755 0.4931 0.02456 0.0
C1786 C 0.40242 0.51135 0.04242 0.0
C1787 C 0.42757 0.52019 0.03928 0.0
C1788 C 0.43728 0.5111 0.01824 0.0
C1789 C 0.42168 0.493 0.00031 0.0
H1790 H 0.34177 0.63364 0.79052 0.0
H1791 H 0.34328 0.62514 0.71081 0.0
H1792 H 0.32977 0.66578 0.70729 0.0
H1793 H 0.28735 0.65591 0.78939 0.0
H1794 H 0.29697 0.67874 0.8163 0.0
H1795 H 0.31083 0.65127 0.81339 0.0
H1796 H 0.35481 0.68082 0.81856 0.0
H1797 H 0.34091 0.70843 0.82128 0.0
H1798 H 0.36142 0.70555 0.79809 0.0
H1799 H 0.31267 0.70395 0.71108 0.0
H1800 H 0.28676 0.73458 0.72115 0.0
H1801 H 0.29495 0.71959 0.79817 0.0
C1802 C 0.33958 0.64053 0.77239 0.0
C1803 C 0.34368 0.62625 0.75095 0.0
C1804 C 0.34029 0.63572 0.72751 0.0
C1805 C 0.33293 0.65896 0.72534 0.0
C1806 C 0.32917 0.67262 0.74678 0.0
C1807 C 0.33214 0.66377 0.76987 0.0
C1808 C 0.32409 0.68092 0.78945 0.0
C1809 C 0.30358 0.66581 0.80289 0.0
C1810 C 0.34665 0.69474 0.80793 0.0
C1811 C 0.31428 0.69953 0.77332 0.0
C1812 C 0.31849 0.69492 0.74898 0.0
C1813 C 0.30957 0.70803 0.73008 0.0
C1814 C 0.2949 0.72542 0.73592 0.0
C1815 C 0.28928 0.72959 0.76032 0.0
C1816 C 0.29971 0.71718 0.7795 0.0
H1817 H 0.21346 0.61431 0.47224 0.0
H1818 H 0.24626 0.59726 0.54311 0.0
H1819 H 0.20698 0.56719 0.5475 0.0
H1820 H 0.16058 0.62149 0.49032 0.0
H1821 H 0.13972 0.60801 0.46268 0.0
H1822 H 0.17199 0.62092 0.46052 0.0
H1823 H 0.17733 0.57813 0.4392 0.0
H1824 H 0.1447 0.56517 0.4404 0.0
H1825 H 0.16809 0.54905 0.45348 0.0
H1826 H 0.1619 0.54771 0.54875 0.0
H1827 H 0.11579 0.53808 0.54557 0.0
H1828 H 0.11172 0.56953 0.47452 0.0
C1829 C 0.21284 0.60277 0.48777 0.0
C1830 C 0.23307 0.60718 0.50687 0.0
C1831 C 0.23129 0.59322 0.52783 0.0
C1832 C 0.20893 0.57633 0.53054 0.0
C1833 C 0.18863 0.5737 0.51209 0.0
C1834 C 0.19056 0.58618 0.4908 0.0
C1835 C 0.1652 0.58375 0.47578 0.0
C1836 C 0.15903 0.6101 0.47215 0.0
C1837 C 0.16375 0.56808 0.45074 0.0
C1838 C 0.1485 0.56929 0.49262 0.0
C1839 C 0.16237 0.56317 0.5132 0.0
C1840 C 0.15093 0.55182 0.53241 0.0
C1841 C 0.12473 0.54657 0.53053 0.0
C1842 C 0.11028 0.55297 0.50976 0.0
C1843 C 0.12235 0.56418 0.49048 0.0
H1844 H 0.65057 0.91093 0.74822 0.0
H1845 H 0.67423 0.93818 0.82582 0.0
H1846 H 0.69983 0.90585 0.82959 0.0
H1847 H 0.64836 0.84253 0.75543 0.0
H1848 H 0.6608 0.83678 0.72678 0.0
H1849 H 0.64272 0.8611 0.72992 0.0
H1850 H 0.67931 0.89462 0.71797 0.0
H1851 H 0.69722 0.87021 0.71473 0.0
H1852 H 0.70989 0.89871 0.73527 0.0
H1853 H 0.72575 0.87366 0.82497 0.0
H1854 H 0.75013 0.84224 0.81173 0.0
H1855 H 0.70892 0.83249 0.7381 0.0
C1856 C 0.66081 0.90978 0.76608 0.0
C1857 C 0.66015 0.92723 0.78676 0.0
C1858 C 0.67425 0.92523 0.80966 0.0
C1859 C 0.6889 0.90681 0.81207 0.0
C1860 C 0.68938 0.89018 0.79146 0.0
C1861 C 0.67571 0.89129 0.76887 0.0
C1862 C 0.6807 0.87156 0.74952 0.0
C1863 C 0.6567 0.85182 0.73984 0.0
C1864 C 0.69248 0.88456 0.72812 0.0
C1865 C 0.69929 0.85948 0.76485 0.0
C1866 C 0.70403 0.87069 0.78897 0.0
C1867 C 0.72186 0.86437 0.80627 0.0
C1868 C 0.73556 0.84646 0.79865 0.0
C1869 C 0.73108 0.83466 0.77414 0.0
C1870 C 0.71238 0.84089 0.75711 0.0
H1871 H 0.68322 0.94549 0.52826 0.0
H1872 H 0.69642 0.94604 0.4511 0.0
H1873 H 0.65995 0.96587 0.44201 0.0
H1874 H 0.61689 0.92896 0.51696 0.0
H1875 H 0.61258 0.94881 0.54356 0.0
H1876 H 0.64009 0.93545 0.54389 0.0
H1877 H 0.66796 0.98074 0.55392 0.0
H1878 H 0.64052 0.99426 0.55356 0.0
H1879 H 0.66389 0.00521 0.53382 0.0
H1880 H 0.62277 0.98697 0.44195 0.0
H1881 H 0.58607 0.00513 0.45061 0.0
H1882 H 0.59643 0.98735 0.52684 0.0
C1883 C 0.67863 0.94992 0.50946 0.0
C1884 C 0.69276 0.9445 0.49042 0.0
C1885 C 0.68594 0.95031 0.46601 0.0
C1886 C 0.66527 0.9615 0.46066 0.0
C1887 C 0.65172 0.96654 0.47993 0.0
C1888 C 0.65806 0.96077 0.50379 0.0
C1889 C 0.64031 0.96755 0.52116 0.0
C1890 C 0.62666 0.94377 0.53201 0.0
C1891 C 0.65399 0.98817 0.54182 0.0
C1892 C 0.62283 0.97791 0.50329 0.0
C1893 C 0.62986 0.97755 0.47966 0.0
C1894 C 0.61702 0.98725 0.46032 0.0
C1895 C 0.59642 0.9976 0.46536 0.0
C1896 C 0.58885 0.99743 0.48929 0.0
C1897 C 0.60203 0.98741 0.50837 0.0
H1898 H 0.30793 0.4674 0.70115 0.0
H1899 H 0.36725 0.48816 0.76263 0.0
H1900 H 0.35491 0.44625 0.77793 0.0
H1901 H 0.26285 0.43019 0.739 0.0
H1902 H 0.24905 0.40682 0.71336 0.0
H1903 H 0.26166 0.43923 0.70773 0.0
H1904 H 0.2899 0.42276 0.678 0.0
H1905 H 0.27771 0.39038 0.68385 0.0
H1906 H 0.3109 0.40307 0.68915 0.0
H1907 H 0.33809 0.40234 0.78587 0.0
H1908 H 0.31529 0.35837 0.78786 0.0
H1909 H 0.26594 0.36391 0.72168 0.0
C1910 C 0.31776 0.4632 0.71816 0.0
C1911 C 0.33824 0.48116 0.73108 0.0
C1912 C 0.35115 0.47492 0.75291 0.0
C1913 C 0.34441 0.45105 0.76162 0.0
C1914 C 0.32439 0.43362 0.74848 0.0
C1915 C 0.31086 0.43938 0.72752 0.0
C1916 C 0.28992 0.41684 0.71735 0.0
C1917 C 0.26435 0.42368 0.71948 0.0
C1918 C 0.29227 0.40773 0.69049 0.0
C1919 C 0.29472 0.39729 0.73514 0.0
C1920 C 0.31454 0.4077 0.75311 0.0
C1921 C 0.3224 0.39399 0.77206 0.0
C1922 C 0.30931 0.36909 0.77306 0.0
C1923 C 0.28884 0.35794 0.75503 0.0
C1924 C 0.28163 0.37205 0.73559 0.0
H1925 H 0.16277 0.58237 0.31232 0.0
H1926 H 0.18681 0.53661 0.2548 0.0
H1927 H 0.22045 0.57313 0.24945 0.0
H1928 H 0.16516 0.63364 0.28368 0.0
H1929 H 0.17649 0.65755 0.30948 0.0
H1930 H 0.15992 0.62653 0.31478 0.0
H1931 H 0.19694 0.62061 0.34572 0.0
H1932 H 0.21356 0.65206 0.34114 0.0
H1933 H 0.22784 0.62498 0.33642 0.0
H1934 H 0.24289 0.61683 0.24257 0.0
H1935 H 0.25594 0.66297 0.23827 0.0
H1936 H 0.2177 0.68024 0.30081 0.0
C1937 C 0.17616 0.57969 0.29971 0.0
C1938 C 0.17267 0.55674 0.28422 0.0
C1939 C 0.18975 0.55389 0.26724 0.0
C1940 C 0.20875 0.57462 0.264 0.0
C1941 C 0.21061 0.59772 0.2783 0.0
C1942 C 0.19521 0.60013 0.29643 0.0
C1943 C 0.1984 0.62769 0.30678 0.0
C1944 C 0.17352 0.63686 0.30345 0.0
C1945 C 0.20988 0.63155 0.33414 0.0
C1946 C 0.21663 0.64061 0.29046 0.0
C1947 C 0.2238 0.62305 0.27442 0.0
C1948 C 0.2381 0.6307 0.25558 0.0
C1949 C 0.24527 0.6569 0.25314 0.0
C1950 C 0.23794 0.67502 0.26933 0.0
C1951 C 0.22386 0.66674 0.28843 0.0
H1952 H 0.52604 0.7479 0.45695 0.0
H1953 H 0.4839 0.71248 0.38705 0.0
H1954 H 0.47986 0.67029 0.4029 0.0
H1955 H 0.56236 0.70316 0.46401 0.0
H1956 H 0.56345 0.7025 0.49715 0.0
H1957 H 0.55872 0.7307 0.48307 0.0
H1958 H 0.51796 0.7293 0.50309 0.0
H1959 H 0.52277 0.70114 0.51741 0.0
H1960 H 0.49389 0.70066 0.49817 0.0
H1961 H 0.48508 0.63313 0.42218 0.0
H1962 H 0.50018 0.60021 0.44435 0.0
H1963 H 0.54025 0.65738 0.50295 0.0
C1964 C 0.51561 0.73115 0.44537 0.0
C1965 C 0.50526 0.73295 0.42088 0.0
C1966 C 0.49204 0.71105 0.40579 0.0
C1967 C 0.4894 0.68719 0.41474 0.0
C1968 C 0.50027 0.68574 0.43872 0.0
C1969 C 0.51319 0.70696 0.45396 0.0
C1970 C 0.52583 0.69931 0.47763 0.0
C1971 C 0.55427 0.70951 0.48061 0.0
C1972 C 0.51442 0.70813 0.50042 0.0
C1973 C 0.51919 0.67051 0.47238 0.0
C1974 C 0.50386 0.66339 0.4501 0.0
C1975 C 0.49673 0.6383 0.43983 0.0
C1976 C 0.50571 0.61982 0.45242 0.0
C1977 C 0.52156 0.62647 0.47512 0.0
C1978 C 0.52806 0.65201 0.48562 0.0
H1979 H 0.58083 0.30623 0.69363 0.0
H1980 H 0.53983 0.233 0.70974 0.0
H1981 H 0.57661 0.22765 0.73779 0.0
H1982 H 0.63614 0.29037 0.68887 0.0
H1983 H 0.65594 0.3195 0.70379 0.0
H1984 H 0.62525 0.31989 0.68905 0.0
H1985 H 0.61393 0.33962 0.72999 0.0
H1986 H 0.64486 0.33972 0.74481 0.0
H1987 H 0.61788 0.32415 0.75801 0.0
H1988 H 0.62078 0.22651 0.75649 0.0
H1989 H 0.66643 0.23242 0.76882 0.0
H1990 H 0.6772 0.30773 0.74269 0.0
C1991 C 0.57929 0.28958 0.70391 0.0
C1992 C 0.5575 0.27011 0.69976 0.0
C1993 C 0.55621 0.24833 0.71307 0.0
C1994 C 0.57708 0.24508 0.7289 0.0
C1995 C 0.59879 0.26413 0.73168 0.0
C1996 C 0.59972 0.28635 0.72012 0.0
C1997 C 0.62564 0.30317 0.72468 0.0
C1998 C 0.63635 0.30851 0.70014 0.0
C1999 C 0.62556 0.32814 0.7403 0.0
C2000 C 0.63952 0.28631 0.73933 0.0
C2001 C 0.6238 0.26392 0.74336 0.0
C2002 C 0.6331 0.24432 0.75413 0.0
C2003 C 0.65905 0.24776 0.76097 0.0
C2004 C 0.67533 0.2707 0.75718 0.0
C2005 C 0.66523 0.29025 0.74653 0.0
H2006 H 0.0239 0.35168 0.95519 0.0
H2007 H 0.03122 0.37945 0.88313 0.0
H2008 H 0.02476 0.42142 0.89955 0.0
H2009 H 0.97574 0.37628 0.96772 0.0
H2010 H 0.98468 0.38574 0.00038 0.0
H2011 H 0.99622 0.36016 0.9857 0.0
H2012 H 0.04197 0.38332 0.00024 0.0
H2013 H 0.0307 0.40865 0.0159 0.0
H2014 H 0.05242 0.41584 0.99364 0.0
H2015 H 0.00732 0.45481 0.92002 0.0
H2016 H 0.99044 0.48403 0.94694 0.0
H2017 H 0.99575 0.43585 0.00709 0.0
C2018 C 0.02569 0.36719 0.94341 0.0
C2019 C 0.02851 0.36284 0.91814 0.0
C2020 C 0.02981 0.38291 0.90271 0.0
C2021 C 0.02583 0.4066 0.91183 0.0
C2022 C 0.02115 0.40969 0.93641 0.0
C2023 C 0.02202 0.39093 0.95233 0.0
C2024 C 0.01413 0.39832 0.97722 0.0
C2025 C 0.99134 0.37897 0.98307 0.0
C2026 C 0.03612 0.40175 -0.00202 0.0
C2027 C 0.00736 0.42356 0.97231 0.0
C2028 C 0.01154 0.42961 0.94862 0.0
C2029 C 0.00482 0.45077 0.93887 0.0
C2030 C 0.99498 0.46704 0.95421 0.0
C2031 C 0.99224 0.46222 0.9791 0.0
C2032 C 0.99778 0.43986 0.98814 0.0
H2033 H 0.93527 0.80826 0.20589 0.0
H2034 H 0.91185 0.73263 0.16664 0.0
H2035 H 0.87075 0.72829 0.18214 0.0
H2036 H 0.90866 0.79436 0.25984 0.0
H2037 H 0.89911 0.82436 0.26472 0.0
H2038 H 0.92543 0.82257 0.2483 0.0
H2039 H 0.90457 0.84121 0.21089 0.0
H2040 H 0.87809 0.84303 0.22721 0.0
H2041 H 0.87356 0.82582 0.19689 0.0
H2042 H 0.83216 0.73214 0.20264 0.0
H2043 H 0.80173 0.74159 0.23045 0.0
H2044 H 0.85184 0.81315 0.25861 0.0
C2045 C 0.92144 0.79085 0.20036 0.0
C2046 C 0.9268 0.7708 0.18501 0.0
C2047 C 0.90822 0.74825 0.17841 0.0
C2048 C 0.88474 0.74568 0.18698 0.0
C2049 C 0.88014 0.7658 0.20218 0.0
C2050 C 0.89806 0.78788 0.20894 0.0
C2051 C 0.88909 0.80602 0.22675 0.0
C2052 C 0.90661 0.81217 0.25136 0.0
C2053 C 0.88616 0.83047 0.21472 0.0
C2054 C 0.86389 0.79014 0.23008 0.0
C2055 C 0.85863 0.7674 0.21503 0.0
C2056 C 0.83619 0.7498 0.2146 0.0
C2057 C 0.81903 0.75532 0.23042 0.0
C2058 C 0.82474 0.77787 0.24689 0.0
C2059 C 0.84726 0.79561 0.24642 0.0
H2060 H 0.49567 0.38608 0.10944 0.0
H2061 H 0.51893 0.32966 0.06123 0.0
H2062 H 0.52389 0.35996 0.02925 0.0
H2063 H 0.4599 0.41097 0.06144 0.0
H2064 H 0.46889 0.44338 0.07552 0.0
H2065 H 0.46748 0.41726 0.09463 0.0
H2066 H 0.5133 0.43504 0.1135 0.0
H2067 H 0.51499 0.4611 0.09433 0.0
H2068 H 0.53722 0.4405 0.09327 0.0
H2069 H 0.52664 0.39634 0.00272 0.0
H2070 H 0.52581 0.43611 0.98281 0.0
H2071 H 0.49964 0.46836 0.0478 0.0
C2072 C 0.50189 0.3801 0.09219 0.0
C2073 C 0.50703 0.35555 0.08787 0.0
C2074 C 0.51494 0.3484 0.06497 0.0
C2075 C 0.51781 0.36547 0.0467 0.0
C2076 C 0.51257 0.38952 0.05157 0.0
C2077 C 0.50463 0.39678 0.07367 0.0
C2078 C 0.49995 0.42362 0.07414 0.0
C2079 C 0.47241 0.4238 0.07656 0.0
C2080 C 0.51742 0.44113 0.09506 0.0
C2081 C 0.50658 0.43036 0.04882 0.0
C2082 C 0.51389 0.41043 0.03615 0.0
C2083 C 0.52095 0.41209 0.01243 0.0
C2084 C 0.52045 0.43472 0.00129 0.0
C2085 C 0.5128 0.45525 0.01383 0.0
C2086 C 0.50576 0.453 0.03788 0.0
H2087 H 0.97386 0.30606 0.34686 0.0
H2088 H 0.96344 0.22496 0.32772 0.0
H2089 H 0.93045 0.22695 0.29413 0.0
H2090 H 0.91884 0.30803 0.34954 0.0
H2091 H 0.91548 0.33704 0.33605 0.0
H2092 H 0.9457 0.33335 0.34893 0.0
H2093 H 0.9633 0.34133 0.30748 0.0
H2094 H 0.9332 0.34614 0.29449 0.0
H2095 H 0.94756 0.32299 0.27921 0.0
H2096 H 0.89075 0.23301 0.27723 0.0
H2097 H 0.84945 0.24371 0.27391 0.0
H2098 H 0.88238 0.32168 0.3028 0.0
C2099 C 0.9657 0.28926 0.33425 0.0
C2100 C 0.97121 0.2655 0.33916 0.0
C2101 C 0.95966 0.24335 0.3236 0.0
C2102 C 0.94095 0.24441 0.30449 0.0
C2103 C 0.934 0.26773 0.30149 0.0
C2104 C 0.9465 0.29007 0.31548 0.0
C2105 C 0.93184 0.3111 0.31291 0.0
C2106 C 0.92771 0.32302 0.33836 0.0
C2107 C 0.94474 0.33159 0.2976 0.0
C2108 C 0.9077 0.29603 0.29855 0.0
C2109 C 0.90986 0.27141 0.29119 0.0
C2110 C 0.88912 0.25249 0.28182 0.0
C2111 C 0.86565 0.25864 0.28032 0.0
C2112 C 0.86301 0.28352 0.28792 0.0
C2113 C 0.88425 0.3027 0.29637 0.0
H2114 H 0.01136 0.6968 0.60689 0.0
H2115 H 0.97435 0.7371 0.55291 0.0
H2116 H 0.97177 0.70107 0.52093 0.0
H2117 H 0.04922 0.67263 0.56823 0.0
H2118 H 0.04648 0.64242 0.58124 0.0
H2119 H 0.04346 0.6703 0.60002 0.0
H2120 H 1e-05 0.64713 0.60957 0.0
H2121 H 0.00304 0.619 0.59112 0.0
H2122 H 0.97624 0.63302 0.58431 0.0
H2123 H 0.97276 0.65943 0.49523 0.0
H2124 H 0.97937 0.61745 0.478 0.0
H2125 H 0.01891 0.60802 0.54871 0.0
C2126 C 0.00254 0.69813 0.5884 0.0
C2127 C 0.99307 0.71976 0.58235 0.0
C2128 C 0.98178 0.72068 0.5579 0.0
C2129 C 0.98018 0.70031 0.53968 0.0
C2130 C 0.99001 0.67937 0.54632 0.0
C2131 C 0.00095 0.67824 0.57016 0.0
C2132 C 0.01086 0.65419 0.57269 0.0
C2133 C 0.03918 0.66027 0.58102 0.0
C2134 C 0.99669 0.63735 0.59047 0.0
C2135 C 0.00465 0.64229 0.54628 0.0
C2136 C 0.99202 0.65661 0.53139 0.0
C2137 C 0.98298 0.64829 0.50661 0.0
C2138 C 0.98689 0.62463 0.49694 0.0
C2139 C 0.00036 0.61028 0.51191 0.0
C2140 C 0.00941 0.61928 0.53672 0.0
H2141 H 0.58509 0.80728 0.83706 0.0
H2142 H 0.56272 0.73183 0.86144 0.0
H2143 H 0.58494 0.71402 0.83 0.0
H2144 H 0.58351 0.78723 0.77045 0.0
H2145 H 0.61146 0.81005 0.76717 0.0
H2146 H 0.59131 0.81728 0.78944 0.0
H2147 H 0.62819 0.82534 0.82492 0.0
H2148 H 0.6485 0.81915 0.80257 0.0
H2149 H 0.64643 0.80124 0.82927 0.0
H2150 H 0.61233 0.70472 0.79951 0.0
H2151 H 0.64774 0.70584 0.77504 0.0
H2152 H 0.65217 0.78671 0.76949 0.0
C2153 C 0.58467 0.78699 0.83549 0.0
C2154 C 0.57217 0.77091 0.85156 0.0
C2155 C 0.57234 0.74453 0.84938 0.0
C2156 C 0.58461 0.73414 0.83137 0.0
C2157 C 0.5967 0.75039 0.81573 0.0
C2158 C 0.59718 0.77632 0.81776 0.0
C2159 C 0.61405 0.7899 0.80055 0.0
C2160 C 0.59918 0.80181 0.78073 0.0
C2161 C 0.63556 0.81007 0.8152 0.0
C2162 C 0.62342 0.76761 0.78921 0.0
C2163 C 0.61279 0.74492 0.79785 0.0
C2164 C 0.62052 0.72222 0.79219 0.0
C2165 C 0.64054 0.72298 0.77829 0.0
C2166 C 0.65239 0.74628 0.77042 0.0
C2167 C 0.64301 0.76854 0.77495 0.0
H2168 H 0.44025 0.53187 0.67605 0.0
H2169 H 0.41991 0.60573 0.67465 0.0
H2170 H 0.44404 0.6144 0.63879 0.0
H2171 H 0.5017 0.54909 0.66299 0.0
H2172 H 0.50014 0.5199 0.64383 0.0
H2173 H 0.48101 0.52014 0.66857 0.0
H2174 H 0.44094 0.50212 0.63766 0.0
H2175 H 0.46 0.50112 0.61295 0.0
H2176 H 0.43494 0.51821 0.61043 0.0
H2177 H 0.471 0.61332 0.60214 0.0
H2178 H 0.49416 0.60171 0.56793 0.0
H2179 H 0.49663 0.52927 0.5976 0.0
C2180 C 0.441 0.55009 0.6685 0.0
C2181 C 0.42877 0.56839 0.67835 0.0
C2182 C 0.42944 0.59157 0.66736 0.0
C2183 C 0.44313 0.59662 0.64715 0.0
C2184 C 0.45557 0.57812 0.63835 0.0
C2185 C 0.45418 0.55523 0.64866 0.0
C2186 C 0.46803 0.53775 0.6359 0.0
C2187 C 0.48897 0.53137 0.6539 0.0
C2188 C 0.4499 0.51338 0.6235 0.0
C2189 C 0.47829 0.55453 0.61698 0.0
C2190 C 0.47086 0.57767 0.61826 0.0
C2191 C 0.47704 0.59534 0.6012 0.0
C2192 C 0.49036 0.58867 0.58197 0.0
C2193 C 0.49728 0.5646 0.58018 0.0
C2194 C 0.49182 0.54788 0.59845 0.0
H2195 H 0.77269 0.24414 0.94992 0.0
H2196 H 0.80717 0.18241 0.92531 0.0
H2197 H 0.80372 0.19588 0.88265 0.0
H2198 H 0.72805 0.23821 0.89828 0.0
H2199 H 0.72918 0.2719 0.89749 0.0
H2200 H 0.73691 0.25936 0.92642 0.0
H2201 H 0.78012 0.29028 0.93324 0.0
H2202 H 0.77233 0.30342 0.90462 0.0
H2203 H 0.80042 0.29102 0.90935 0.0
H2204 H 0.79292 0.21409 0.84198 0.0
H2205 H 0.7796 0.23758 0.8075 0.0
H2206 H 0.75135 0.28709 0.85876 0.0
C2207 C 0.78004 0.23371 0.9357 0.0
C2208 C 0.79029 0.21219 0.94102 0.0
C2209 C 0.79954 0.19909 0.9218 0.0
C2210 C 0.79745 0.20651 0.89748 0.0
C2211 C 0.78627 0.22719 0.89277 0.0
C2212 C 0.7781 0.24084 0.91148 0.0
C2213 C 0.76592 0.2617 0.90157 0.0
C2214 C 0.73839 0.25753 0.90622 0.0
C2215 C 0.78058 0.28817 0.91287 0.0
C2216 C 0.76819 0.25759 0.87418 0.0
C2217 C 0.77998 0.23756 0.8695 0.0
C2218 C 0.78388 0.22989 0.84554 0.0
C2219 C 0.77608 0.24331 0.82601 0.0
C2220 C 0.76437 0.26419 0.83036 0.0
C2221 C 0.7602 0.27122 0.85481 0.0
H2222 H 0.0503 0.52177 0.20106 0.0
H2223 H 0.0903 0.46012 0.19476 0.0
H2224 H 0.07857 0.45551 0.14912 0.0
H2225 H 0.99934 0.49695 0.15202 0.0
H2226 H 0.99861 0.5281 0.14203 0.0
H2227 H 0.00862 0.52486 0.17401 0.0
H2228 H 0.05008 0.55664 0.17169 0.0
H2229 H 0.04044 0.55983 0.13964 0.0
H2230 H 0.06953 0.55033 0.1484 0.0
H2231 H 0.06609 0.46137 0.10316 0.0
H2232 H 0.05011 0.47368 0.06233 0.0
H2233 H 0.01751 0.53044 0.09984 0.0
C2234 C 0.05631 0.50691 0.19025 0.0
C2235 C 0.07128 0.49124 0.20164 0.0
C2236 C 0.07869 0.4722 0.18658 0.0
C2237 C 0.07224 0.4696 0.1606 0.0
C2238 C 0.05827 0.48607 0.14997 0.0
C2239 C 0.05013 0.50413 0.16448 0.0
C2240 C 0.03617 0.52024 0.1488 0.0
C2241 C 0.00907 0.51734 0.15455 0.0
C2242 C 0.04988 0.54841 0.15235 0.0
C2243 C 0.03741 0.50829 0.12304 0.0
C2244 C 0.05056 0.48888 0.12398 0.0
C2245 C 0.05546 0.47626 0.1023 0.0
C2246 C 0.04646 0.48345 0.07919 0.0
C2247 C 0.03233 0.50275 0.07792 0.0
C2248 C 0.02784 0.51525 0.10021 0.0
H2249 H 0.73318 0.87199 0.44553 0.0
H2250 H 0.71521 0.80397 0.48325 0.0
H2251 H 0.71515 0.77732 0.44457 0.0
H2252 H 0.70818 0.84062 0.37612 0.0
H2253 H 0.73533 0.8601 0.36631 0.0
H2254 H 0.72009 0.87257 0.39068 0.0
H2255 H 0.76275 0.88318 0.41837 0.0
H2256 H 0.7778 0.86926 0.39505 0.0
H2257 H 0.77873 0.85779 0.42535 0.0
H2258 H 0.7318 0.75968 0.40905 0.0
H2259 H 0.75795 0.75186 0.37622 0.0
H2260 H 0.77198 0.8323 0.36517 0.0
C2261 C 0.72736 0.85145 0.44487 0.0
C2262 C 0.72398 0.83973 0.46678 0.0
C2263 C 0.71752 0.81297 0.46624 0.0
C2264 C 0.71747 0.79778 0.44435 0.0
C2265 C 0.72444 0.80988 0.42364 0.0
C2266 C 0.72867 0.83625 0.42346 0.0
C2267 C 0.74252 0.84504 0.40207 0.0
C2268 C 0.7255 0.85516 0.38264 0.0
C2269 C 0.76687 0.86495 0.41077 0.0
C2270 C 0.74791 0.82009 0.39227 0.0
C2271 C 0.73639 0.79988 0.40404 0.0
C2272 C 0.74036 0.77526 0.39923 0.0
C2273 C 0.75567 0.77108 0.38112 0.0
C2274 C 0.76731 0.79162 0.36886 0.0
C2275 C 0.76368 0.81638 0.37477 0.0
H2276 H 0.43639 0.58046 0.81266 0.0
H2277 H 0.37409 0.51565 0.80384 0.0
H2278 H 0.38756 0.50386 0.84501 0.0
H2279 H 0.47989 0.55366 0.83758 0.0
H2280 H 0.49619 0.57807 0.86142 0.0
H2281 H 0.47883 0.58666 0.83462 0.0
H2282 H 0.45244 0.6089 0.86207 0.0
H2283 H 0.47053 0.60148 0.88916 0.0
H2284 H 0.43696 0.59188 0.88527 0.0
H2285 H 0.41365 0.49153 0.87854 0.0
H2286 H 0.44507 0.4863 0.91246 0.0
H2287 H 0.48908 0.56094 0.90382 0.0
C2288 C 0.42489 0.56479 0.82021 0.0
C2289 C 0.40435 0.54881 0.80538 0.0
C2290 C 0.38992 0.52797 0.81517 0.0
C2291 C 0.39741 0.52112 0.83847 0.0
C2292 C 0.41896 0.53582 0.85192 0.0
C2293 C 0.43192 0.55797 0.84392 0.0
C2294 C 0.45559 0.56888 0.86151 0.0
C2295 C 0.47899 0.57197 0.84796 0.0
C2296 C 0.45376 0.59429 0.87532 0.0
C2297 C 0.45486 0.5481 0.87899 0.0
C2298 C 0.43351 0.52929 0.87302 0.0
C2299 C 0.42991 0.50661 0.88426 0.0
C2300 C 0.44801 0.50361 0.90315 0.0
C2301 C 0.4691 0.52337 0.91074 0.0
C2302 C 0.47278 0.54578 0.89842 0.0
H2303 H 0.75548 0.22301 0.07552 0.0
H2304 H 0.83014 0.20739 0.08488 0.0
H2305 H 0.83661 0.22823 0.12796 0.0
H2306 H 0.77021 0.28467 0.11216 0.0
H2307 H 0.74068 0.27926 0.12443 0.0
H2308 H 0.74298 0.26484 0.0941 0.0
H2309 H 0.72505 0.22021 0.1074 0.0
H2310 H 0.72263 0.23442 0.13771 0.0
H2311 H 0.74005 0.20952 0.13459 0.0
H2312 H 0.8343 0.25116 0.17053 0.0
H2313 H 0.82241 0.26923 0.20922 0.0
H2314 H 0.74804 0.26684 0.17206 0.0
C2315 C 0.77336 0.22406 0.08642 0.0
C2316 C 0.79239 0.21362 0.07659 0.0
C2317 C 0.81533 0.21533 0.09183 0.0
C2318 C 0.81916 0.22721 0.11631 0.0
C2319 C 0.79989 0.23727 0.1253 0.0
C2320 C 0.77739 0.23561 0.11076 0.0
C2321 C 0.75911 0.2467 0.12487 0.0
C2322 C 0.75288 0.27026 0.11319 0.0
C2323 C 0.73531 0.2265 0.12623 0.0
C2324 C 0.77443 0.25416 0.15007 0.0
C2325 C 0.79814 0.24921 0.14979 0.0
C2326 C 0.81574 0.25494 0.17086 0.0
C2327 C 0.80876 0.26532 0.19282 0.0
C2328 C 0.78411 0.26926 0.19392 0.0
C2329 C 0.76694 0.26395 0.172 0.0
H2330 H 0.07115 0.46745 0.3492 0.0
H2331 H 0.09414 0.545 0.32992 0.0
H2332 H 0.07815 0.5615 0.36644 0.0
H2333 H 0.01559 0.47287 0.36787 0.0
H2334 H 0.01619 0.45583 0.39508 0.0
H2335 H 0.03361 0.44837 0.37043 0.0
H2336 H 0.07343 0.45585 0.40041 0.0
H2337 H 0.05953 0.46614 0.4269 0.0
H2338 H 0.08573 0.48672 0.41719 0.0
H2339 H 0.05726 0.57022 0.40314 0.0
H2340 H 0.03049 0.56955 0.43696 0.0
H2341 H 0.01842 0.48709 0.43188 0.0
C2342 C 0.07332 0.48786 0.35307 0.0
C2343 C 0.08375 0.50479 0.3365 0.0
C2344 C 0.08601 0.53148 0.34212 0.0
C2345 C 0.07715 0.54121 0.36299 0.0
C2346 C 0.06624 0.52416 0.37853 0.0
C2347 C 0.06442 0.49809 0.37408 0.0
C2348 C 0.05043 0.48417 0.39325 0.0
C2349 C 0.02762 0.46411 0.38093 0.0
C2350 C 0.06829 0.47245 0.41038 0.0
C2351 C 0.04275 0.50614 0.40736 0.0
C2352 C 0.0531 0.52918 0.3993 0.0
C2353 C 0.04911 0.55229 0.40973 0.0
C2354 C 0.03391 0.55177 0.42884 0.0
C2355 C 0.02231 0.52827 0.43662 0.0
C2356 C 0.02691 0.50523 0.4259 0.0
H2357 H 0.72428 0.82375 0.57498 0.0
H2358 H 0.73176 0.90045 0.60935 0.0
H2359 H 0.72223 0.88316 0.64879 0.0
H2360 H 0.67536 0.79076 0.61819 0.0
H2361 H 0.68987 0.7635 0.61737 0.0
H2362 H 0.68705 0.78068 0.5903 0.0
H2363 H 0.73457 0.78609 0.58932 0.0
H2364 H 0.73793 0.77016 0.61688 0.0
H2365 H 0.75582 0.80197 0.61592 0.0
H2366 H 0.73009 0.86119 0.68459 0.0
H2367 H 0.74365 0.83379 0.71517 0.0
H2368 H 0.72694 0.76922 0.65943 0.0
C2369 C 0.72255 0.83664 0.59062 0.0
C2370 C 0.72888 0.86325 0.58968 0.0
C2371 C 0.72682 0.87999 0.61003 0.0
C2372 C 0.72133 0.87028 0.63236 0.0
C2373 C 0.71734 0.84391 0.63346 0.0
C2374 C 0.71671 0.8271 0.61283 0.0
C2375 C 0.71621 0.80017 0.61979 0.0
C2376 C 0.69059 0.78276 0.6109 0.0
C2377 C 0.73741 0.78899 0.60991 0.0
C2378 C 0.72024 0.80521 0.64771 0.0
C2379 C 0.72026 0.83047 0.65511 0.0
C2380 C 0.7286 0.84111 0.6793 0.0
C2381 C 0.73658 0.82554 0.69643 0.0
C2382 C 0.73561 0.79956 0.68948 0.0
C2383 C 0.72715 0.78902 0.665 0.0
H2384 H 0.65511 0.44038 0.54281 0.0
H2385 H 0.66051 0.43963 0.4638 0.0
H2386 H 0.62671 0.46319 0.45878 0.0
H2387 H 0.58642 0.43512 0.53856 0.0
H2388 H 0.58819 0.45718 0.56552 0.0
H2389 H 0.6115 0.43807 0.56347 0.0
H2390 H 0.64647 0.47882 0.57038 0.0
H2391 H 0.62331 0.49799 0.57273 0.0
H2392 H 0.64515 0.50398 0.5504 0.0
H2393 H 0.59625 0.48979 0.46187 0.0
H2394 H 0.57069 0.5201 0.4734 0.0
H2395 H 0.58086 0.50371 0.55002 0.0
C2396 C 0.64884 0.44484 0.52443 0.0
C2397 C 0.66045 0.43792 0.50361 0.0
C2398 C 0.65204 0.44463 0.48 0.0
C2399 C 0.63269 0.45792 0.47691 0.0
C2400 C 0.62177 0.46457 0.49762 0.0
C2401 C 0.62945 0.45847 0.52099 0.0
C2402 C 0.61543 0.46987 0.5402 0.0
C2403 C 0.59944 0.4488 0.55267 0.0
C2404 C 0.63368 0.48878 0.55957 0.0
C2405 C 0.59907 0.48357 0.52386 0.0
C2406 C 0.60313 0.47992 0.49936 0.0
C2407 C 0.59235 0.49223 0.48084 0.0
C2408 C 0.5775 0.50919 0.48749 0.0
C2409 C 0.57261 0.51329 0.51223 0.0
C2410 C 0.58335 0.50007 0.53074 0.0
H2411 H 0.18767 0.1371 0.53135 0.0
H2412 H 0.20972 0.11097 0.46164 0.0
H2413 H 0.17207 0.07602 0.4551 0.0
H2414 H 0.16331 0.07274 0.54916 0.0
H2415 H 0.13852 0.08287 0.56366 0.0
H2416 H 0.16764 0.10503 0.56308 0.0
H2417 H 0.14381 0.13642 0.54197 0.0
H2418 H 0.11468 0.11444 0.54258 0.0
H2419 H 0.12313 0.12556 0.51361 0.0
H2420 H 0.12966 0.04706 0.45435 0.0
H2421 H 0.08714 0.02493 0.46049 0.0
H2422 H 0.09513 0.06762 0.53255 0.0
C2423 C 0.1846 0.12387 0.51481 0.0
C2424 C 0.20135 0.12666 0.49689 0.0
C2425 C 0.19702 0.10897 0.47558 0.0
C2426 C 0.17575 0.08912 0.47174 0.0
C2427 C 0.15948 0.08688 0.48978 0.0
C2428 C 0.16391 0.10355 0.51108 0.0
C2429 C 0.14351 0.09718 0.52752 0.0
C2430 C 0.15387 0.08896 0.55232 0.0
C2431 C 0.13051 0.11973 0.53164 0.0
C2432 C 0.12637 0.07494 0.51171 0.0
C2433 C 0.13589 0.06923 0.49001 0.0
C2434 C 0.12229 0.05093 0.47153 0.0
C2435 C 0.0982 0.03845 0.47517 0.0
C2436 C 0.08811 0.04416 0.49722 0.0
C2437 C 0.10267 0.06224 0.51588 0.0
H2438 H 0.20169 0.95251 0.78945 0.0
H2439 H 0.13072 0.89858 0.7841 0.0
H2440 H 0.15221 0.86304 0.7782 0.0
H2441 H 0.22814 0.92114 0.74383 0.0
H2442 H 0.25934 0.92713 0.76007 0.0
H2443 H 0.23908 0.94879 0.76591 0.0
H2444 H 0.24494 0.94295 0.81286 0.0
H2445 H 0.26552 0.92153 0.80716 0.0
H2446 H 0.23858 0.91127 0.8228 0.0
H2447 H 0.18021 0.83367 0.77043 0.0
H2448 H 0.21358 0.81149 0.76169 0.0
H2449 H 0.26745 0.88306 0.77308 0.0
C2450 C 0.19073 0.93321 0.78728 0.0
C2451 C 0.16445 0.92838 0.78712 0.0
C2452 C 0.15081 0.90283 0.78428 0.0
C2453 C 0.16285 0.88246 0.78091 0.0
C2454 C 0.18861 0.88787 0.78072 0.0
C2455 C 0.20253 0.91251 0.78413 0.0
C2456 C 0.23002 0.91277 0.78272 0.0
C2457 C 0.2397 0.92838 0.76188 0.0
C2458 C 0.24569 0.92272 0.80788 0.0
C2459 C 0.22903 0.88452 0.77676 0.0
C2460 C 0.20496 0.87062 0.776 0.0
C2461 C 0.19903 0.84433 0.77052 0.0
C2462 C 0.21811 0.83185 0.76533 0.0
C2463 C 0.24294 0.84542 0.76608 0.0
C2464 C 0.24853 0.87216 0.77215 0.0
H2465 H 0.28937 0.94249 0.9853 0.0
H2466 H 0.29082 0.96075 0.0641 0.0
H2467 H 0.32859 0.99458 0.06414 0.0
H2468 H 0.35019 0.94465 0.98617 0.0
H2469 H 0.3547 0.95846 0.95738 0.0
H2470 H 0.32443 0.94086 0.96182 0.0
H2471 H 0.30472 0.97955 0.95246 0.0
H2472 H 0.33491 0.99722 0.94739 0.0
H2473 H 0.31757 0.01014 0.96959 0.0
H2474 H 0.37038 0.01862 0.05757 0.0
H2475 H 0.41198 0.03332 0.04468 0.0
H2476 H 0.38406 0.00063 0.96948 0.0
C2477 C 0.29687 0.95474 0.00218 0.0
C2478 C 0.2868 0.94983 0.02453 0.0
C2479 C 0.29778 0.965 0.04668 0.0
C2480 C 0.31931 0.98412 0.04684 0.0
C2481 C 0.32948 0.98783 0.02464 0.0
C2482 C 0.31836 0.97388 0.00257 0.0
C2483 C 0.33481 0.97902 0.98205 0.0
C2484 C 0.34142 0.95428 0.97125 0.0
C2485 C 0.32225 0.99228 0.96167 0.0
C2486 C 0.35755 0.99695 0.9963 0.0
C2487 C 0.35388 0.00203 0.02077 0.0
C2488 C 0.37315 0.01548 0.03832 0.0
C2489 C 0.39675 0.02367 0.03084 0.0
C2490 C 0.40101 0.01858 0.00599 0.0
C2491 C 0.38102 0.00554 0.98837 0.0
H2492 H 0.86759 0.65903 0.78077 0.0
H2493 H 0.8442 0.61163 0.71101 0.0
H2494 H 0.81205 0.63648 0.70031 0.0
H2495 H 0.80672 0.66662 0.79332 0.0
H2496 H 0.81692 0.69946 0.80592 0.0
H2497 H 0.83831 0.67813 0.80805 0.0
H2498 H 0.86945 0.70914 0.78585 0.0
H2499 H 0.84783 0.73034 0.78431 0.0
H2500 H 0.85856 0.71899 0.75643 0.0
H2501 H 0.78081 0.66488 0.69798 0.0
H2502 H 0.75415 0.69641 0.70329 0.0
H2503 H 0.79869 0.72718 0.77342 0.0
C2504 C 0.85583 0.65398 0.76316 0.0
C2505 C 0.85855 0.63329 0.74672 0.0
C2506 C 0.8427 0.62741 0.72387 0.0
C2507 C 0.82428 0.6414 0.71764 0.0
C2508 C 0.822 0.66152 0.73428 0.0
C2509 C 0.83748 0.66801 0.75648 0.0
C2510 C 0.83102 0.69057 0.771 0.0
C2511 C 0.82274 0.68323 0.79605 0.0
C2512 C 0.85305 0.71362 0.77463 0.0
C2513 C 0.80939 0.69557 0.75356 0.0
C2514 C 0.80444 0.67847 0.73255 0.0
C2515 C 0.78473 0.67857 0.71419 0.0
C2516 C 0.76969 0.69655 0.71735 0.0
C2517 C 0.77453 0.71447 0.73853 0.0
C2518 C 0.7948 0.71402 0.75679 0.0
H2519 H 0.84661 0.61199 0.96605 0.0
H2520 H 0.83133 0.63837 0.03884 0.0
H2521 H 0.86047 0.61414 0.0585 0.0
H2522 H 0.84787 0.54904 0.97921 0.0
H2523 H 0.87293 0.54572 0.9613 0.0
H2524 H 0.85271 0.56707 0.95285 0.0
H2525 H 0.89099 0.6046 0.9557 0.0
H2526 H 0.91135 0.58324 0.96375 0.0
H2527 H 0.91265 0.61179 0.98378 0.0
H2528 H 0.89193 0.58817 0.07023 0.0
H2529 H 0.92237 0.55966 0.07279 0.0
H2530 H 0.91282 0.54666 0.99259 0.0
C2531 C 0.84973 0.61286 0.98609 0.0
C2532 C 0.83694 0.62689 0.00099 0.0
C2533 C 0.84102 0.62749 0.02718 0.0
C2534 C 0.85753 0.61393 0.03852 0.0
C2535 C 0.86947 0.59973 0.02332 0.0
C2536 C 0.86576 0.59901 -0.00229 0.0
C2537 C 0.87999 0.58128 0.98567 0.0
C2538 C 0.86231 0.55948 0.96877 0.0
C2539 C 0.89993 0.59611 0.9714 0.0
C2540 C 0.89172 0.57173 0.00852 0.0
C2541 C 0.88595 0.58305 0.03009 0.0
C2542 C 0.89623 0.57869 0.05353 0.0
C2543 C 0.9132 0.56243 0.05488 0.0
C2544 C 0.91872 0.55037 0.03295 0.0
C2545 C 0.90776 0.55485 0.0096 0.0
H2546 H 0.18577 0.08307 0.74836 0.0
H2547 H 0.18462 0.08088 0.82752 0.0
H2548 H 0.20747 0.12579 0.83451 0.0
H2549 H 0.25014 0.12678 0.75372 0.0
H2550 H 0.24095 0.14252 0.72718 0.0
H2551 H 0.2276 0.10931 0.72884 0.0
H2552 H 0.18343 0.11932 0.72227 0.0
H2553 H 0.19656 0.15261 0.72128 0.0
H2554 H 0.17526 0.14285 0.74336 0.0
H2555 H 0.22372 0.17207 0.83224 0.0
H2556 H 0.23915 0.21574 0.82193 0.0
H2557 H 0.23263 0.18799 0.74413 0.0
C2558 C 0.19151 0.09177 0.76719 0.0
C2559 C 0.1842 0.07851 0.78753 0.0
C2560 C 0.19093 0.09059 0.81188 0.0
C2561 C 0.20361 0.11614 0.81595 0.0
C2562 C 0.20988 0.12904 0.79547 0.0
C2563 C 0.20479 0.1171 0.7716 0.0
C2564 C 0.21287 0.13568 0.75283 0.0
C2565 C 0.23416 0.12812 0.73988 0.0
C2566 C 0.1907 0.13773 0.73383 0.0
C2567 C 0.22214 0.16014 0.76979 0.0
C2568 C 0.22021 0.15581 0.79428 0.0
C2569 C 0.22603 0.1756 0.81323 0.0
C2570 C 0.2347 0.2004 0.80712 0.0
C2571 C 0.23761 0.20529 0.78225 0.0
C2572 C 0.23111 0.18482 0.76336 0.0
H2573 H 0.33121 0.98427 0.21277 0.0
H2574 H 0.36575 0.01451 0.28696 0.0
H2575 H 0.34093 0.97795 0.30417 0.0
H2576 H 0.2675 0.95727 0.23337 0.0
H2577 H 0.26195 0.9303 0.21035 0.0
H2578 H 0.27965 0.9607 0.2041 0.0
H2579 H 0.31628 0.9394 0.19458 0.0
H2580 H 0.29872 0.9091 0.20081 0.0
H2581 H 0.32937 0.9215 0.21749 0.0
H2582 H 0.31797 0.93562 0.31251 0.0
H2583 H 0.29582 0.89087 0.31188 0.0
H2584 H 0.27389 0.88845 0.23268 0.0
C2585 C 0.33261 0.98359 0.23268 0.0
C2586 C 0.34975 0.00233 0.24871 0.0
C2587 C 0.35199 0.00066 0.2746 0.0
C2588 C 0.33811 0.97992 0.2845 0.0
C2589 C 0.32157 0.96146 0.26826 0.0
C2590 C 0.31824 0.96334 0.24296 0.0
C2591 C 0.30009 0.94014 0.22962 0.0
C2592 C 0.27586 0.94754 0.21872 0.0
C2593 C 0.31185 0.92675 0.20946 0.0
C2594 C 0.29554 0.92407 0.25108 0.0
C2595 C 0.30769 0.93699 0.27326 0.0
C2596 C 0.3078 0.92552 0.2954 0.0
C2597 C 0.29522 0.90012 0.29486 0.0
C2598 C 0.28298 0.88644 0.27229 0.0
C2599 C 0.28281 0.89869 0.25023 0.0
H2600 H 0.47678 0.31724 0.57139 0.0
H2601 H 0.51825 0.34514 0.64361 0.0
H2602 H 0.52422 0.38923 0.63184 0.0
H2603 H 0.51156 0.35976 0.53562 0.0
H2604 H 0.48541 0.36523 0.51536 0.0
H2605 H 0.4832 0.33564 0.52935 0.0
H2606 H 0.44372 0.34294 0.5482 0.0
H2607 H 0.44563 0.3724 0.53395 0.0
H2608 H 0.44484 0.37229 0.56693 0.0
H2609 H 0.53036 0.42846 0.61123 0.0
H2610 H 0.5301 0.4639 0.58529 0.0
H2611 H 0.48073 0.41293 0.52715 0.0
C2612 C 0.48649 0.33283 0.58482 0.0
C2613 C 0.49683 0.32816 0.60851 0.0
C2614 C 0.50984 0.34866 0.62561 0.0
C2615 C 0.51348 0.37364 0.61901 0.0
C2616 C 0.50347 0.37773 0.59544 0.0
C2617 C 0.48964 0.35813 0.57876 0.0
C2618 C 0.48069 0.36827 0.55479 0.0
C2619 C 0.49084 0.35652 0.53247 0.0
C2620 C 0.45202 0.36371 0.55074 0.0
C2621 C 0.49235 0.39647 0.56048 0.0
C2622 C 0.50565 0.40122 0.58394 0.0
C2623 C 0.51953 0.4252 0.59307 0.0
C2624 C 0.51935 0.44516 0.57811 0.0
C2625 C 0.50508 0.44117 0.55443 0.0
C2626 C 0.49143 0.41649 0.54539 0.0
H2627 H 0.43367 0.748 0.32379 0.0
H2628 H 0.47227 0.82467 0.31495 0.0
H2629 H 0.43414 0.83217 0.29069 0.0
H2630 H 0.39266 0.73647 0.26149 0.0
H2631 H 0.36698 0.71884 0.27517 0.0
H2632 H 0.39866 0.71804 0.28701 0.0
H2633 H 0.39005 0.73297 0.33093 0.0
H2634 H 0.35867 0.73454 0.3192 0.0
H2635 H 0.37934 0.76234 0.3357 0.0
H2636 H 0.38949 0.8338 0.27488 0.0
H2637 H 0.34373 0.82774 0.26438 0.0
H2638 H 0.33499 0.74951 0.28298 0.0
C2639 C 0.43444 0.7659 0.31563 0.0
C2640 C 0.45597 0.78562 0.32081 0.0
C2641 C 0.45617 0.80911 0.31057 0.0
C2642 C 0.43449 0.8136 0.29701 0.0
C2643 C 0.41305 0.79419 0.29345 0.0
C2644 C 0.4131 0.77053 0.30192 0.0
C2645 C 0.38721 0.75363 0.29772 0.0
C2646 C 0.38634 0.73037 0.27925 0.0
C2647 C 0.37831 0.74541 0.32235 0.0
C2648 C 0.37238 0.77177 0.28652 0.0
C2649 C 0.38753 0.79503 0.28406 0.0
C2650 C 0.37757 0.81542 0.27606 0.0
C2651 C 0.35153 0.81181 0.2702 0.0
C2652 C 0.33573 0.78801 0.27244 0.0
C2653 C 0.34649 0.76778 0.28054 0.0
H2654 H 0.99802 0.66975 0.12079 0.0
H2655 H 0.97832 0.71399 0.06129 0.0
H2656 H 0.9767 0.67735 0.03066 0.0
H2657 H 0.0395 0.6451 0.09364 0.0
H2658 H 0.03324 0.6136 0.10398 0.0
H2659 H 0.02576 0.63978 0.12189 0.0
H2660 H 0.97961 0.616 0.11937 0.0
H2661 H 0.98713 0.58925 0.10209 0.0
H2662 H 0.96221 0.60371 0.08955 0.0
H2663 H 0.98835 0.64154 0.00678 0.0
H2664 H 0.00594 0.60523 0.99123 0.0
H2665 H 0.01632 0.58309 0.06592 0.0
C2666 C 0.99182 0.67098 0.10144 0.0
C2667 C 0.98756 0.69413 0.09322 0.0
C2668 C 0.98089 0.69597 0.06775 0.0
C2669 C 0.98005 0.67534 0.05028 0.0
C2670 C 0.98581 0.6531 0.05876 0.0
C2671 C 0.99089 0.65048 0.08381 0.0
C2672 C -0.00014 0.62606 0.08786 0.0
C2673 C 0.02614 0.63148 0.1027 0.0
C2674 C 0.98107 0.60766 0.10046 0.0
C2675 C 0.00036 0.61618 0.06129 0.0
C2676 C 0.99211 0.63195 0.04475 0.0
C2677 C 0.99405 0.62854 0.01944 0.0
C2678 C 0.00434 0.60822 0.01082 0.0
C2679 C 0.01217 0.59164 0.02751 0.0
C2680 C 0.00996 0.59547 0.0529 0.0
H2681 H 0.12074 0.334 0.84512 0.0
H2682 H 0.07552 0.25716 0.83208 0.0
H2683 H 0.10903 0.24272 0.81229 0.0
H2684 H 0.14524 0.33301 0.78673 0.0
H2685 H 0.17579 0.3514 0.79887 0.0
H2686 H 0.14899 0.35567 0.81362 0.0
H2687 H 0.17034 0.34557 0.85561 0.0
H2688 H 0.19707 0.34192 0.84043 0.0
H2689 H 0.18186 0.31648 0.85693 0.0
H2690 H 0.14583 0.23645 0.79285 0.0
H2691 H 0.18304 0.2392 0.77113 0.0
H2692 H 0.20588 0.31992 0.79562 0.0
C2693 C 0.11798 0.31413 0.83818 0.0
C2694 C 0.09546 0.2967 0.84021 0.0
C2695 C 0.09247 0.27091 0.83066 0.0
C2696 C 0.11151 0.26246 0.81955 0.0
C2697 C 0.13345 0.28001 0.81793 0.0
C2698 C 0.13677 0.30536 0.82667 0.0
C2699 C 0.16165 0.32043 0.82097 0.0
C2700 C 0.15767 0.34136 0.80404 0.0
C2701 C 0.17874 0.33175 0.84495 0.0
C2702 C 0.17166 0.29956 0.80748 0.0
C2703 C 0.15502 0.2764 0.80626 0.0
C2704 C 0.15907 0.25441 0.79377 0.0
C2705 C 0.18025 0.25618 0.78147 0.0
C2706 C 0.19728 0.27971 0.78176 0.0
C2707 C 0.19332 0.30163 0.79547 0.0
H2708 H 0.5021 0.70967 0.98576 0.0
H2709 H 0.52218 0.6923 0.91254 0.0
H2710 H 0.52731 0.6498 0.92364 0.0
H2711 H 0.54741 0.67651 0.01752 0.0
H2712 H 0.52737 0.6659 0.04041 0.0
H2713 H 0.52578 0.69534 0.02701 0.0
H2714 H 0.47834 0.67896 0.01358 0.0
H2715 H 0.47981 0.64946 0.0268 0.0
H2716 H 0.46754 0.64901 0.99468 0.0
H2717 H 0.53167 0.61055 0.94255 0.0
H2718 H 0.53237 0.57444 0.96753 0.0
H2719 H 0.50696 0.61519 0.02811 0.0
C2720 C 0.50763 0.69684 0.9722 0.0
C2721 C 0.51187 0.70406 0.94838 0.0
C2722 C 0.51922 0.68708 0.931 0.0
C2723 C 0.52211 0.66296 0.9371 0.0
C2724 C 0.51801 0.65641 0.96078 0.0
C2725 C 0.51108 0.6728 0.97816 0.0
C2726 C 0.50829 0.66092 0.0024 0.0
C2727 C 0.5284 0.67554 0.02306 0.0
C2728 C 0.48191 0.65949 0.00977 0.0
C2729 C 0.51311 0.63472 0.9953 0.0
C2730 C 0.51941 0.63296 0.97144 0.0
C2731 C 0.5262 0.61141 0.96104 0.0
C2732 C 0.52615 0.59084 0.97525 0.0
C2733 C 0.51838 0.59151 -0.00082 0.0
C2734 C 0.51223 0.61393 0.00956 0.0
H2735 H 0.07387 0.81619 0.70117 0.0
H2736 H 0.05977 0.756 0.64082 0.0
H2737 H 0.09157 0.7358 0.66198 0.0
H2738 H 0.14182 0.82031 0.7079 0.0
H2739 H 0.14487 0.82888 0.7408 0.0
H2740 H 0.1203 0.83734 0.72079 0.0
H2741 H 0.08863 0.8141 0.74807 0.0
H2742 H 0.11332 0.80438 0.76706 0.0
H2743 H 0.08709 0.78076 0.75179 0.0
H2744 H 0.12304 0.72131 0.68966 0.0
H2745 H 0.16227 0.72034 0.71588 0.0
H2746 H 0.15799 0.79073 0.7573 0.0
C2747 C 0.0781 0.79917 0.69223 0.0
C2748 C 0.06485 0.78767 0.66939 0.0
C2749 C 0.07037 0.76528 0.65812 0.0
C2750 C 0.08789 0.75338 0.67023 0.0
C2751 C 0.09992 0.76448 0.69331 0.0
C2752 C 0.09615 0.78744 0.70372 0.0
C2753 C 0.11389 0.79682 0.72716 0.0
C2754 C 0.13126 0.82232 0.72395 0.0
C2755 C 0.09986 0.79914 0.74985 0.0
C2756 C 0.12786 0.77529 0.72843 0.0
C2757 C 0.119 0.75652 0.70905 0.0
C2758 C 0.13007 0.73567 0.70509 0.0
C2759 C 0.15205 0.73503 0.72023 0.0
C2760 C 0.16239 0.75513 0.73876 0.0
C2761 C 0.14966 0.77477 0.74375 0.0
H2762 H 0.03756 0.35587 0.43266 0.0
H2763 H 0.98506 0.3144 0.47691 0.0
H2764 H 0.98094 0.3549 0.49841 0.0
H2765 H 0.06788 0.40927 0.48049 0.0
H2766 H 0.06929 0.43251 0.45813 0.0
H2767 H 0.07094 0.40013 0.44866 0.0
H2768 H 0.03414 0.39812 0.41473 0.0
H2769 H 0.03035 0.42959 0.42464 0.0
H2770 H 0.00455 0.40307 0.42322 0.0
H2771 H 0.97839 0.399 0.51158 0.0
H2772 H 0.97963 0.44516 0.51782 0.0
H2773 H 0.03424 0.45918 0.46597 0.0
C2774 C 0.02588 0.35532 0.44746 0.0
C2775 C 0.01177 0.33196 0.45325 0.0
C2776 C 0.99606 0.33205 0.47219 0.0
C2777 C 0.99364 0.35496 0.48457 0.0
C2778 C 0.00712 0.37767 0.47791 0.0
C2779 C 0.02317 0.37813 0.46003 0.0
C2780 C 0.03352 0.4053 0.45481 0.0
C2781 C 0.06211 0.4122 0.46089 0.0
C2782 C 0.02516 0.40923 0.42774 0.0
C2783 C 0.02101 0.41997 0.47277 0.0
C2784 C 0.00571 0.40353 0.48572 0.0
C2785 C 0.9907 0.41216 0.502 0.0
C2786 C 0.99147 0.43836 0.50537 0.0
C2787 C 0.00737 0.45566 0.49276 0.0
C2788 C 0.02244 0.44636 0.47633 0.0
H2789 H 0.40788 0.25272 0.16007 0.0
H2790 H 0.44918 0.33105 0.16815 0.0
H2791 H 0.42353 0.34156 0.20073 0.0
H2792 H 0.34853 0.26304 0.17247 0.0
H2793 H 0.34251 0.23598 0.19004 0.0
H2794 H 0.36189 0.2357 0.16559 0.0
H2795 H 0.39718 0.22624 0.19554 0.0
H2796 H 0.38068 0.22791 0.22216 0.0
H2797 H 0.41069 0.24834 0.22227 0.0
H2798 H 0.39251 0.34174 0.2339 0.0
H2799 H 0.3587 0.33217 0.26075 0.0
H2800 H 0.34609 0.25211 0.23442 0.0
C2801 C 0.41111 0.27233 0.16807 0.0
C2802 C 0.43029 0.29107 0.1615 0.0
C2803 C 0.43415 0.31645 0.17264 0.0
C2804 C 0.41998 0.32247 0.19143 0.0
C2805 C 0.40251 0.30276 0.19885 0.0
C2806 C 0.39814 0.27829 0.18727 0.0
C2807 C 0.38019 0.25977 0.19936 0.0
C2808 C 0.35692 0.24792 0.1808 0.0
C2809 C 0.39293 0.23934 0.21043 0.0
C2810 C 0.3744 0.27754 0.21941 0.0
C2811 C 0.38718 0.30238 0.21895 0.0
C2812 C 0.38272 0.32229 0.23458 0.0
C2813 C 0.36372 0.31668 0.24994 0.0
C2814 C 0.35005 0.29136 0.24968 0.0
C2815 C 0.35651 0.27155 0.23528 0.0
H2816 H 0.61277 0.53618 0.37167 0.0
H2817 H 0.59288 0.45608 0.34488 0.0
H2818 H 0.56376 0.44851 0.3767 0.0
H2819 H 0.6038 0.53093 0.43802 0.0
H2820 H 0.59067 0.5591 0.43876 0.0
H2821 H 0.61411 0.5559 0.4188 0.0
H2822 H 0.58398 0.56367 0.38153 0.0
H2823 H 0.55991 0.56562 0.40094 0.0
H2824 H 0.55374 0.54271 0.37403 0.0
H2825 H 0.53422 0.45161 0.4105 0.0
H2826 H 0.50956 0.46466 0.44295 0.0
H2827 H 0.54392 0.54386 0.43852 0.0
C2828 C 0.6031 0.51681 0.37321 0.0
C2829 C 0.60516 0.49666 0.35616 0.0
C2830 C 0.59193 0.47164 0.35826 0.0
C2831 C 0.57511 0.4673 0.37602 0.0
C2832 C 0.57189 0.48824 0.39115 0.0
C2833 C 0.58582 0.51246 0.38995 0.0
C2834 C 0.57706 0.53246 0.40546 0.0
C2835 C 0.59762 0.54534 0.42651 0.0
C2836 C 0.56814 0.55226 0.38953 0.0
C2837 C 0.55559 0.51594 0.4153 0.0
C2838 C 0.55318 0.4904 0.40758 0.0
C2839 C 0.53586 0.47159 0.41644 0.0
C2840 C 0.52175 0.47915 0.4346 0.0
C2841 C 0.52457 0.50527 0.44289 0.0
C2842 C 0.54073 0.5238 0.43205 0.0
H2843 H 0.24107 0.87381 0.11534 0.0
H2844 H 0.20913 0.80751 0.06361 0.0
H2845 H 0.20973 0.77987 0.09795 0.0
H2846 H 0.28242 0.84814 0.15088 0.0
H2847 H 0.27876 0.86222 0.18094 0.0
H2848 H 0.27204 0.87789 0.15368 0.0
H2849 H 0.22732 0.878 0.16394 0.0
H2850 H 0.23424 0.86322 0.19182 0.0
H2851 H 0.20751 0.84859 0.16978 0.0
H2852 H 0.22121 0.75888 0.13608 0.0
H2853 H 0.23594 0.74631 0.1769 0.0
H2854 H 0.25796 0.82589 0.20554 0.0
C2855 C 0.23303 0.85363 0.11155 0.0
C2856 C 0.22434 0.84284 0.08688 0.0
C2857 C 0.21509 0.81621 0.08242 0.0
C2858 C 0.2156 0.80035 0.10182 0.0
C2859 C 0.22515 0.81139 0.12578 0.0
C2860 C 0.23297 0.83753 0.13093 0.0
C2861 C 0.24351 0.84428 0.15819 0.0
C2862 C 0.2708 0.85899 0.16107 0.0
C2863 C 0.22716 0.85942 0.17173 0.0
C2864 C 0.24159 0.81786 0.16715 0.0
C2865 C 0.23093 0.79919 0.14812 0.0
C2866 C 0.22897 0.77336 0.15126 0.0
C2867 C 0.2376 0.76638 0.17449 0.0
C2868 C 0.24784 0.78507 0.19456 0.0
C2869 C 0.24978 0.81116 0.19075 0.0
H2870 H 0.97181 0.59034 0.82698 0.0
H2871 H 0.90215 0.53442 0.81368 0.0
H2872 H 0.90719 0.52465 0.85723 0.0
H2873 H 0.00565 0.55792 0.86597 0.0
H2874 H 0.02104 0.58465 0.88782 0.0
H2875 H 0.01094 0.58981 0.85641 0.0
H2876 H 0.98507 0.62153 0.87219 0.0
H2877 H 0.99535 0.6167 0.90374 0.0
H2878 H 0.96247 0.6116 0.893 0.0
H2879 H 0.92074 0.51842 0.90098 0.0
H2880 H 0.94193 0.51664 0.94294 0.0
H2881 H 0.00363 0.57583 0.92938 0.0
C2882 C 0.95727 0.57676 0.8336 0.0
C2883 C 0.93619 0.5636 0.81715 0.0
C2884 C 0.91799 0.54524 0.82618 0.0
C2885 C 0.92078 0.53944 0.85086 0.0
C2886 C 0.94178 0.55241 0.86661 0.0
C2887 C 0.95957 0.571 0.85858 0.0
C2888 C 0.98067 0.58141 0.87949 0.0
C2889 C 0.00608 0.57823 0.87196 0.0
C2890 C 0.98091 0.60948 0.88758 0.0
C2891 C 0.97279 0.56453 0.89978 0.0
C2892 C 0.94992 0.54846 0.89206 0.0
C2893 C 0.9385 0.53116 0.90734 0.0
C2894 C 0.95062 0.53034 0.93119 0.0
C2895 C 0.97423 0.54626 0.93949 0.0
C2896 C 0.98552 0.56353 0.92351 0.0
H2897 H 0.30881 0.2486 0.56961 0.0
H2898 H 0.30132 0.16889 0.58106 0.0
H2899 H 0.30041 0.17897 0.62548 0.0
H2900 H 0.33808 0.27605 0.64095 0.0
H2901 H 0.31987 0.30032 0.63806 0.0
H2902 H 0.33459 0.29027 0.61216 0.0
H2903 H 0.29174 0.2816 0.58538 0.0
H2904 H 0.27624 0.2896 0.61111 0.0
H2905 H 0.26615 0.25864 0.59396 0.0
H2906 H 0.27776 0.19174 0.65761 0.0
H2907 H 0.25234 0.21108 0.68484 0.0
H2908 H 0.27434 0.28364 0.6549 0.0
C2909 C 0.30905 0.2338 0.58207 0.0
C2910 C 0.30452 0.20812 0.57242 0.0
C2911 C 0.30472 0.18871 0.58843 0.0
C2912 C 0.30406 0.19432 0.6137 0.0
C2913 C 0.30386 0.21937 0.6222 0.0
C2914 C 0.308 0.2393 0.60725 0.0
C2915 C 0.30128 0.26313 0.61888 0.0
C2916 C 0.32486 0.28363 0.62808 0.0
C2917 C 0.28275 0.2738 0.60128 0.0
C2918 C 0.28918 0.25227 0.64034 0.0
C2919 C 0.2912 0.2272 0.64218 0.0
C2920 C 0.27731 0.21176 0.65737 0.0
C2921 C 0.26233 0.22267 0.67217 0.0
C2922 C 0.26166 0.24877 0.67175 0.0
C2923 C 0.27491 0.26365 0.6555 0.0
H2924 H 0.56381 0.52087 0.22513 0.0
H2925 H 0.60185 0.45816 0.21482 0.0
H2926 H 0.5914 0.45709 0.16935 0.0
H2927 H 0.51438 0.50354 0.17233 0.0
H2928 H 0.5172 0.53635 0.16578 0.0
H2929 H 0.5241 0.52885 0.19713 0.0
H2930 H 0.56779 0.55856 0.19967 0.0
H2931 H 0.56142 0.56539 0.16804 0.0
H2932 H 0.58849 0.55263 0.1775 0.0
H2933 H 0.58225 0.46706 0.12565 0.0
H2934 H 0.56904 0.48276 0.08595 0.0
H2935 H 0.53788 0.53966 0.12527 0.0
C2936 C 0.56909 0.50618 0.21342 0.0
C2937 C 0.5834 0.48937 0.2234 0.0
C2938 C 0.59068 0.47103 0.20743 0.0
C2939 C 0.58499 0.47041 0.18166 0.0
C2940 C 0.57226 0.48842 0.17241 0.0
C2941 C 0.5641 0.50573 0.1878 0.0
C2942 C 0.55295 0.52466 0.17338 0.0
C2943 C 0.52552 0.52324 0.17738 0.0
C2944 C 0.56859 0.55191 0.18005 0.0
C2945 C 0.55539 0.51481 0.14731 0.0
C2946 C 0.56702 0.49422 0.14721 0.0
C2947 C 0.57269 0.48281 0.12544 0.0
C2948 C 0.56525 0.49195 0.10306 0.0
C2949 C 0.55201 0.51198 0.10271 0.0
C2950 C 0.5476 0.524 0.12511 0.0
H2951 H 0.22447 0.87075 0.9326 0.0
H2952 H 0.23226 0.80355 0.96975 0.0
H2953 H 0.23926 0.78195 0.93055 0.0
H2954 H 0.19344 0.83493 0.87088 0.0
H2955 H 0.2098 0.85868 0.85341 0.0
H2956 H 0.20194 0.86784 0.88356 0.0
H2957 H 0.24849 0.88835 0.89764 0.0
H2958 H 0.25648 0.87874 0.86772 0.0
H2959 H 0.27175 0.86921 0.89539 0.0
H2960 H 0.25212 0.76993 0.88963 0.0
H2961 H 0.26297 0.76535 0.84682 0.0
H2962 H 0.2448 0.83854 0.83387 0.0
C2963 C 0.22653 0.85111 0.93214 0.0
C2964 C 0.22743 0.83868 0.95427 0.0
C2965 C 0.23118 0.81332 0.95306 0.0
C2966 C 0.23535 0.80092 0.93086 0.0
C2967 C 0.23561 0.81399 0.9097 0.0
C2968 C 0.23066 0.83827 0.90984 0.0
C2969 C 0.23322 0.84819 0.88447 0.0
C2970 C 0.2081 0.85267 0.87237 0.0
C2971 C 0.2537 0.87256 0.88644 0.0
C2972 C 0.24087 0.82597 0.87046 0.0
C2973 C 0.24233 0.80657 0.88553 0.0
C2974 C 0.25056 0.78477 0.87749 0.0
C2975 C 0.2569 0.78239 0.85324 0.0
C2976 C 0.25469 0.80151 0.83713 0.0
C2977 C 0.24655 0.82359 0.84586 0.0
H2978 H 0.96499 0.53046 0.67864 0.0
H2979 H 0.92249 0.58906 0.66492 0.0
H2980 H 0.93341 0.58885 0.62185 0.0
H2981 H 0.01478 0.55301 0.64387 0.0
H2982 H 0.0176 0.52141 0.63279 0.0
H2983 H 0.00619 0.52663 0.66205 0.0
H2984 H 0.96629 0.4921 0.64677 0.0
H2985 H 0.9774 0.48714 0.61726 0.0
H2986 H 0.9473 0.49526 0.61852 0.0
H2987 H 0.94975 0.58201 0.57982 0.0
H2988 H 0.97196 0.57152 0.54462 0.0
H2989 H 0.00302 0.51707 0.58623 0.0
C2990 C 0.958 0.54344 0.66675 0.0
C2991 C 0.94289 0.5599 0.67541 0.0
C2992 C 0.93418 0.57639 0.65893 0.0
C2993 C 0.94017 0.57626 0.63435 0.0
C2994 C 0.95476 0.55941 0.62642 0.0
C2995 C 0.96362 0.54342 0.64228 0.0
C2996 C 0.97914 0.52723 0.62958 0.0
C2997 C 0.00602 0.53239 0.64286 0.0
C2998 C 0.96679 0.49875 0.62794 0.0
C2999 C 0.97823 0.53697 0.60415 0.0
C3000 C 0.96381 0.55531 0.60252 0.0
C3001 C 0.96086 0.56752 0.58095 0.0
C3002 C 0.97343 0.56134 0.56094 0.0
C3003 C 0.98873 0.54308 0.56252 0.0
C3004 C 0.99091 0.53061 0.58433 0.0
H3005 H 0.28838 0.19364 0.42586 0.0
H3006 H 0.28075 0.26308 0.46706 0.0
H3007 H 0.28244 0.28524 0.42908 0.0
H3008 H 0.32594 0.226 0.37544 0.0
H3009 H 0.30855 0.20141 0.3523 0.0
H3010 H 0.31628 0.19388 0.38354 0.0
H3011 H 0.26942 0.17532 0.3851 0.0
H3012 H 0.26135 0.18375 0.35446 0.0
H3013 H 0.24707 0.19541 0.37997 0.0
H3014 H 0.27124 0.29521 0.38701 0.0
H3015 H 0.2557 0.295 0.34256 0.0
H3016 H 0.27071 0.21959 0.32806 0.0
C3017 C 0.28846 0.21386 0.42698 0.0
C3018 C 0.28431 0.22679 0.449 0.0
C3019 C 0.28375 0.25299 0.45008 0.0
C3020 C 0.28489 0.26573 0.4287 0.0
C3021 C 0.28663 0.25188 0.40662 0.0
C3022 C 0.28915 0.22667 0.40564 0.0
C3023 C 0.28604 0.2148 0.37916 0.0
C3024 C 0.31068 0.20868 0.37221 0.0
C3025 C 0.2647 0.19094 0.37443 0.0
C3026 C 0.27934 0.23654 0.36572 0.0
C3027 C 0.28015 0.25787 0.38179 0.0
C3028 C 0.27133 0.279 0.37408 0.0
C3029 C 0.26206 0.27853 0.3491 0.0
C3030 C 0.26182 0.2571 0.33251 0.0
C3031 C 0.27071 0.23604 0.34074 0.0
H3032 H 0.34025 0.58144 0.49174 0.0
H3033 H 0.38272 0.65935 0.5046 0.0
H3034 H 0.42204 0.64327 0.50633 0.0
H3035 H 0.37863 0.5538 0.53278 0.0
H3036 H 0.37541 0.5246 0.51311 0.0
H3037 H 0.35092 0.54237 0.51092 0.0
H3038 H 0.35369 0.54445 0.46392 0.0
H3039 H 0.37826 0.52667 0.46596 0.0
H3040 H 0.38326 0.55725 0.45362 0.0
H3041 H 0.45712 0.6179 0.50532 0.0
H3042 H 0.48395 0.58617 0.5071 0.0
H3043 H 0.41866 0.52506 0.49958 0.0
C3044 C 0.35777 0.59524 0.49478 0.0
C3045 C 0.35822 0.62179 0.49792 0.0
C3046 C 0.38173 0.63899 0.50202 0.0
C3047 C 0.4042 0.62999 0.50296 0.0
C3048 C 0.40299 0.60369 0.49984 0.0
C3049 C 0.38031 0.58658 0.49599 0.0
C3050 C 0.38398 0.55924 0.49408 0.0
C3051 C 0.3715 0.54413 0.51391 0.0
C3052 C 0.37421 0.54612 0.46784 0.0
C3053 C 0.41225 0.56348 0.49877 0.0
C3054 C 0.42292 0.58925 0.50108 0.0
C3055 C 0.44881 0.59775 0.50394 0.0
C3056 C 0.46404 0.57955 0.50496 0.0
C3057 C 0.4536 0.55317 0.50412 0.0
C3058 C 0.42727 0.54513 0.50079 0.0
H3059 H 0.83815 0.94877 0.55579 0.0
H3060 H 0.80497 0.93635 0.47899 0.0
H3061 H 0.8414 0.96599 0.46721 0.0
H3062 H 0.86708 0.01853 0.55254 0.0
H3063 H 0.89406 0.01686 0.57376 0.0
H3064 H 0.86407 0.99718 0.57659 0.0
H3065 H 0.88315 0.95687 0.57357 0.0
H3066 H 0.91308 0.97638 0.57082 0.0
H3067 H 0.89919 0.95062 0.54736 0.0
H3068 H 0.88286 0.99301 0.46328 0.0
H3069 H 0.92701 0.01469 0.46701 0.0
H3070 H 0.93345 0.01066 0.54671 0.0
C3071 C 0.83847 0.95284 0.53663 0.0
C3072 C 0.81892 0.94065 0.51822 0.0
C3073 C 0.81977 0.94595 0.49327 0.0
C3074 C 0.84031 0.96274 0.48647 0.0
C3075 C 0.85946 0.97447 0.505 0.0
C3076 C 0.85861 0.97004 0.52963 0.0
C3077 C 0.88223 0.98421 0.54565 0.0
C3078 C 0.87651 0.00545 0.56317 0.0
C3079 C 0.89518 0.96591 0.56018 0.0
C3080 C 0.89732 0.99544 0.52591 0.0
C3081 C 0.88351 0.99028 0.50271 0.0
C3082 C 0.89372 0.99759 0.48139 0.0
C3083 C 0.91887 0.01 0.48375 0.0
C3084 C 0.93372 0.01455 0.50721 0.0
C3085 C 0.92254 0.00768 0.52858 0.0
H3086 H 0.81508 0.10946 0.27571 0.0
H3087 H 0.85929 0.13504 0.21741 0.0
H3088 H 0.84525 0.17581 0.22019 0.0
H3089 H 0.76289 0.13543 0.25566 0.0
H3090 H 0.75646 0.14478 0.28635 0.0
H3091 H 0.77157 0.11838 0.28142 0.0
H3092 H 0.80821 0.14023 0.31475 0.0
H3093 H 0.79325 0.16681 0.31966 0.0
H3094 H 0.8247 0.17217 0.31174 0.0
H3095 H 0.82513 0.21214 0.22709 0.0
H3096 H 0.79805 0.24142 0.23591 0.0
H3097 H 0.76559 0.19391 0.2896 0.0
C3098 C 0.82189 0.1237 0.26361 0.0
C3099 C 0.8383 0.11901 0.24628 0.0
C3100 C 0.84664 0.13808 0.2307 0.0
C3101 C 0.83893 0.1614 0.23229 0.0
C3102 C 0.82283 0.1654 0.24954 0.0
C3103 C 0.81423 0.14711 0.26485 0.0
C3104 C 0.7958 0.15591 0.28068 0.0
C3105 C 0.77016 0.13754 0.27572 0.0
C3106 C 0.80611 0.15896 0.30835 0.0
C3107 C 0.7948 0.18165 0.27119 0.0
C3108 C 0.81099 0.18676 0.2536 0.0
C3109 C 0.81271 0.20853 0.24112 0.0
C3110 C 0.79726 0.22536 0.2464 0.0
C3111 C 0.78025 0.2207 0.26397 0.0
C3112 C 0.77906 0.19849 0.27666 0.0
H3113 H 0.70466 0.11394 0.96593 0.0
H3114 H 0.74425 0.10021 0.03505 0.0
H3115 H 0.70646 0.07015 0.0435 0.0
H3116 H 0.65111 0.11819 0.98632 0.0
H3117 H 0.63 0.102 0.95981 0.0
H3118 H 0.6613 0.11715 0.95597 0.0
H3119 H 0.66928 0.07479 0.93611 0.0
H3120 H 0.63762 0.05958 0.9392 0.0
H3121 H 0.66331 0.04644 0.95217 0.0
H3122 H 0.66204 0.04976 0.04864 0.0
H3123 H 0.61618 0.03646 0.04757 0.0
H3124 H 0.60593 0.06242 0.97438 0.0
C3125 C 0.70569 0.10355 0.98221 0.0
C3126 C 0.72738 0.10905 -0.0003 0.0
C3127 C 0.728 0.09575 0.02116 0.0
C3128 C 0.70653 0.07881 0.02617 0.0
C3129 C 0.68489 0.07493 0.0092 0.0
C3130 C 0.68458 0.08634 0.98722 0.0
C3131 C 0.65847 0.08113 0.9732 0.0
C3132 C 0.64972 0.1061 0.96859 0.0
C3133 C 0.6571 0.06449 0.94873 0.0
C3134 C 0.64385 0.06649 0.99147 0.0
C3135 C 0.6594 0.06278 0.01197 0.0
C3136 C 0.6498 0.05188 0.03234 0.0
C3137 C 0.62374 0.04449 0.03164 0.0
C3138 C 0.60761 0.04815 0.01079 0.0
C3139 C 0.61788 0.05899 0.99038 0.0
H3140 H 0.1757 0.41659 0.31447 0.0
H3141 H 0.1451 0.41808 0.23784 0.0
H3142 H 0.16536 0.38289 0.22541 0.0
H3143 H 0.23484 0.40503 0.30241 0.0
H3144 H 0.23736 0.38392 0.32639 0.0
H3145 H 0.21934 0.40822 0.32962 0.0
H3146 H 0.1807 0.37379 0.33548 0.0
H3147 H 0.19864 0.34937 0.3322 0.0
H3148 H 0.16978 0.34709 0.31228 0.0
H3149 H 0.19001 0.34848 0.22088 0.0
H3150 H 0.21817 0.31825 0.22454 0.0
H3151 H 0.23384 0.33886 0.30372 0.0
C3152 C 0.17308 0.40943 0.29508 0.0
C3153 C 0.15866 0.42024 0.27714 0.0
C3154 C 0.15592 0.41024 0.25197 0.0
C3155 C 0.16734 0.39016 0.24472 0.0
C3156 C 0.18144 0.38005 0.26282 0.0
C3157 C 0.18435 0.3893 0.2875 0.0
C3158 C 0.20115 0.37551 0.3031 0.0
C3159 C 0.22456 0.39429 0.31614 0.0
C3160 C 0.1867 0.36056 0.32187 0.0
C3161 C 0.20774 0.35752 0.28324 0.0
C3162 C 0.19591 0.36032 0.26018 0.0
C3163 C 0.1994 0.34625 0.23884 0.0
C3164 C 0.2157 0.32927 0.24103 0.0
C3165 C 0.2285 0.32645 0.26425 0.0
C3166 C 0.22413 0.34049 0.28572 0.0
H3167 H 0.19579 0.46378 0.97676 0.0
H3168 H 0.17495 0.41662 0.03577 0.0
H3169 H 0.13441 0.42947 0.03352 0.0
H3170 H 0.16984 0.51541 -0.00219 0.0
H3171 H 0.15902 0.52283 0.96731 0.0
H3172 H 0.18569 0.50821 0.97175 0.0
H3173 H 0.16404 0.47128 0.93843 0.0
H3174 H 0.13727 0.48581 0.93388 0.0
H3175 H 0.1334 0.45335 0.94171 0.0
H3176 H 0.0967 0.44654 0.0251 0.0
H3177 H 0.06484 0.47164 0.01432 0.0
H3178 H 0.11086 0.51081 0.9633 0.0
C3179 C 0.18259 0.45614 0.98908 0.0
C3180 C 0.18837 0.4393 0.0064 0.0
C3181 C 0.17088 0.42975 0.02247 0.0
C3182 C 0.14774 0.43671 0.0212 0.0
C3183 C 0.14259 0.45335 0.00393 0.0
C3184 C 0.15952 0.46324 0.98836 0.0
C3185 C 0.14979 0.48219 0.97275 0.0
C3186 C 0.16711 0.50873 0.97772 0.0
C3187 C 0.1459 0.47258 0.94505 0.0
C3188 C 0.12509 0.48187 0.98255 0.0
C3189 C 0.1211 0.4645 0.0 0.0
C3190 C 0.09956 0.46027 0.01154 0.0
C3191 C 0.08167 0.47452 0.0053 0.0
C3192 C 0.08581 0.493 0.98815 0.0
C3193 C 0.10761 0.49676 0.97652 0.0
H3194 H 0.82979 0.96341 0.21064 0.0
H3195 H 0.83634 0.0026 0.28398 0.0
H3196 H 0.8133 0.96344 0.29889 0.0
H3197 H 0.76586 0.92069 0.21287 0.0
H3198 H 0.77461 0.89443 0.196 0.0
H3199 H 0.7873 0.92674 0.19016 0.0
H3200 H 0.83192 0.91834 0.19924 0.0
H3201 H 0.81947 0.88626 0.20566 0.0
H3202 H 0.84144 0.90748 0.22863 0.0
H3203 H 0.79624 0.91854 0.30746 0.0
H3204 H 0.78239 0.87203 0.30814 0.0
H3205 H 0.78595 0.8617 0.22891 0.0
C3206 C 0.825 0.96404 0.22941 0.0
C3207 C 0.83385 0.98622 0.24597 0.0
C3208 C 0.82873 0.98606 0.27084 0.0
C3209 C 0.8159 0.96382 0.27951 0.0
C3210 C 0.80815 0.94192 0.26299 0.0
C3211 C 0.81199 0.94196 0.23829 0.0
C3212 C 0.80364 0.91533 0.22496 0.0
C3213 C 0.78153 0.91424 0.20481 0.0
C3214 C 0.82542 0.90634 0.21399 0.0
C3215 C 0.79556 0.90021 0.24622 0.0
C3216 C 0.79816 0.91592 0.26796 0.0
C3217 C 0.79353 0.90612 0.29042 0.0
C3218 C 0.78575 0.87962 0.29065 0.0
C3219 C 0.78272 0.86312 0.26856 0.0
C3220 C 0.78764 0.87373 0.24608 0.0
H3221 H 0.67001 0.07489 0.80183 0.0
H3222 H 0.6915 0.03459 0.7389 0.0
H3223 H 0.72405 0.0726 0.73446 0.0
H3224 H 0.66847 0.12719 0.77536 0.0
H3225 H 0.67942 0.15003 0.80206 0.0
H3226 H 0.66444 0.11804 0.8061 0.0
H3227 H 0.70281 0.11235 0.83532 0.0
H3228 H 0.7178 0.14477 0.83214 0.0
H3229 H 0.73341 0.11908 0.82532 0.0
H3230 H 0.74572 0.11775 0.73035 0.0
H3231 H 0.75695 0.16458 0.72898 0.0
H3232 H 0.71979 0.17532 0.7939 0.0
C3233 C 0.6827 0.07364 0.78813 0.0
C3234 C 0.67886 0.05185 0.77106 0.0
C3235 C 0.69481 0.05094 0.75257 0.0
C3236 C 0.71316 0.07253 0.74985 0.0
C3237 C 0.71519 0.09459 0.76588 0.0
C3238 C 0.70067 0.09505 0.78505 0.0
C3239 C 0.70287 0.12187 0.79693 0.0
C3240 C 0.67729 0.12972 0.79497 0.0
C3241 C 0.71496 0.12467 0.82403 0.0
C3242 C 0.72002 0.13667 0.78079 0.0
C3243 C 0.72727 0.12069 0.76321 0.0
C3244 C 0.74076 0.13036 0.74448 0.0
C3245 C 0.7469 0.15693 0.74371 0.0
C3246 C 0.73933 0.17341 0.76143 0.0
C3247 C 0.72612 0.16311 0.78036 0.0
loop_
_geom_bond_atom_site_label_1
_geom_bond_atom_site_label_2
_geom_bond_distance
_geom_bond_site_symmetry_2
_ccdc_geom_bond_type
Zn0 O3 2.031 . S
Zn0 O5 2.049 . S
Zn0 O10 2.067 . S
Zn1 O2 1.962 . S
Zn1 O4 1.986 . S
Zn1 O6 1.996 . S
Zn1 O9 1.943 1_455 S
O2 Zn1 1.962 . S
O2 C7 1.254 . S
O3 Zn0 2.031 . S
O3 C7 1.269 1_655 S
O4 Zn1 1.986 . S
O4 C11 1.262 . S
O5 Zn0 2.049 . S
O5 C13 1.260 1_655 S
O6 Zn1 1.996 . S
O6 C13 1.257 . S
C7 O2 1.254 . S
C7 O3 1.269 1_455 S
C8 O9 1.249 . S
C8 O10 1.270 . S
O9 Zn1 1.943 1_655 S
O9 C8 1.249 . S
O10 Zn0 2.067 . S
O10 C8 1.270 . S
C11 O4 1.262 . S
C11 O12 1.232 . S
O12 C11 1.232 . S
C13 O5 1.260 1_455 S
C13 O6 1.257 . S
Zn14 O17 2.031 1_455 S
Zn14 O19 2.049 . S
Zn14 O24 2.067 . S
Zn15 O16 1.960 1_455 S
Zn15 O18 1.986 . S
Zn15 O20 1.997 . S
Zn15 O23 1.943 1_455 S
O16 Zn15 1.960 1_655 S
O16 C21 1.254 . S
O17 Zn14 2.031 1_655 S
O17 C21 1.269 . S
O18 Zn15 1.986 . S
O18 C25 1.262 . S
O19 Zn14 2.049 . S
O19 C27 1.260 . S
O20 Zn15 1.997 . S
O20 C27 1.257 . S
C21 O16 1.254 . S
C21 O17 1.269 . S
C22 O23 1.249 . S
C22 O24 1.270 1_655 S
O23 Zn15 1.943 1_655 S
O23 C22 1.249 . S
O24 Zn14 2.067 . S
O24 C22 1.270 1_455 S
C25 O18 1.262 . S
C25 O26 1.232 1_455 S
O26 C25 1.232 1_655 S
C27 O19 1.260 . S
C27 O20 1.257 . S
Zn28 O31 2.031 . S
Zn28 O33 2.049 . S
Zn28 O38 2.067 . S
Zn29 O30 1.962 . S
Zn29 O32 1.986 . S
Zn29 O34 1.996 . S
Zn29 O37 1.943 . S
O30 Zn29 1.962 . S
O30 C35 1.254 . S
O31 Zn28 2.031 . S
O31 C35 1.269 . S
O32 Zn29 1.986 . S
O32 C39 1.262 . S
O33 Zn28 2.049 . S
O33 C41 1.260 . S
O34 Zn29 1.996 . S
O34 C41 1.257 . S
C35 O30 1.254 . S
C35 O31 1.269 . S
C36 O37 1.249 . S
C36 O38 1.270 . S
O37 Zn29 1.943 . S
O37 C36 1.249 . S
O38 Zn28 2.067 . S
O38 C36 1.270 . S
C39 O32 1.262 . S
C39 O40 1.232 . S
O40 C39 1.232 . S
C41 O33 1.260 . S
C41 O34 1.257 . S
Zn42 O45 2.031 . S
Zn42 O47 2.049 . S
Zn42 O52 2.067 . S
Zn43 O44 1.962 . S
Zn43 O46 1.986 . S
Zn43 O48 1.996 . S
Zn43 O51 1.943 . S
O44 Zn43 1.962 . S
O44 C49 1.254 . S
O45 Zn42 2.031 . S
O45 C49 1.269 . S
O46 Zn43 1.986 . S
O46 C53 1.262 . S
O47 Zn42 2.049 . S
O47 C55 1.260 . S
O48 Zn43 1.996 . S
O48 C55 1.257 . S
C49 O44 1.254 . S
C49 O45 1.269 . S
C50 O51 1.249 . S
C50 O52 1.270 . S
O51 Zn43 1.943 . S
O51 C50 1.249 . S
O52 Zn42 2.067 . S
O52 C50 1.270 . S
C53 O46 1.262 . S
C53 O54 1.232 . S
O54 C53 1.232 . S
C55 O47 1.260 . S
C55 O48 1.257 . S
Zn56 O59 2.031 . S
Zn56 O61 2.049 . S
Zn56 O66 2.067 . S
Zn57 O58 1.962 . S
Zn57 O60 1.986 . S
Zn57 O62 1.983 1_655 S
Zn57 O65 1.943 1_655 S
O58 Zn57 1.962 . S
O58 C63 1.254 1_655 S
O59 Zn56 2.031 . S
O59 C63 1.269 . S
O60 Zn57 1.986 . S
O60 C67 1.262 . S
O61 Zn56 2.049 . S
O61 C69 1.260 . S
O62 Zn57 1.983 1_455 S
O62 C69 1.281 . S
C63 O58 1.254 1_455 S
C63 O59 1.269 . S
C64 O65 1.249 . S
C64 O66 1.270 . S
O65 Zn57 1.943 1_455 S
O65 C64 1.249 . S
O66 Zn56 2.067 . S
O66 C64 1.270 . S
C67 O60 1.262 . S
C67 O68 1.232 . S
O68 C67 1.232 . S
C69 O61 1.260 . S
C69 O62 1.281 . S
Zn70 O73 2.031 . S
Zn70 O75 2.049 . S
Zn70 O80 2.067 . S
Zn71 O72 1.962 . S
Zn71 O74 1.986 . S
Zn71 O76 1.996 . S
Zn71 O79 1.943 . S
O72 Zn71 1.962 . S
O72 C77 1.254 . S
O73 Zn70 2.031 . S
O73 C77 1.269 . S
O74 Zn71 1.986 . S
O74 C81 1.262 . S
O75 Zn70 2.049 . S
O75 C83 1.260 . S
O76 Zn71 1.996 . S
O76 C83 1.257 . S
C77 O72 1.254 . S
C77 O73 1.269 . S
C78 O79 1.249 . S
C78 O80 1.270 . S
O79 Zn71 1.943 . S
O79 C78 1.249 . S
O80 Zn70 2.067 . S
O80 C78 1.270 . S
C81 O74 1.262 . S
C81 O82 1.232 . S
O82 C81 1.232 . S
C83 O75 1.260 . S
C83 O76 1.257 . S
Zn84 O87 2.031 . S
Zn84 O89 2.049 . S
Zn84 O94 2.067 . S
Zn85 O86 1.962 . S
Zn85 O88 1.986 . S
Zn85 O90 1.996 . S
Zn85 O93 1.943 . S
O86 Zn85 1.962 . S
O86 C91 1.254 . S
O87 Zn84 2.031 . S
O87 C91 1.269 . S
O88 Zn85 1.986 . S
O88 C95 1.262 . S
O89 Zn84 2.049 . S
O89 C97 1.260 . S
O90 Zn85 1.996 . S
O90 C97 1.257 . S
C91 O86 1.254 . S
C91 O87 1.269 . S
C92 O93 1.249 . S
C92 O94 1.270 . S
O93 Zn85 1.943 . S
O93 C92 1.249 . S
O94 Zn84 2.067 . S
O94 C92 1.270 . S
C95 O88 1.262 . S
C95 O96 1.232 . S
O96 C95 1.232 . S
C97 O89 1.260 . S
C97 O90 1.257 . S
Zn98 O101 2.031 . S
Zn98 O103 2.049 . S
Zn98 O108 2.067 . S
Zn99 O100 1.962 . S
Zn99 O102 1.986 . S
Zn99 O104 1.996 . S
Zn99 O107 1.943 1_455 S
O100 Zn99 1.962 . S
O100 C105 1.254 . S
O101 Zn98 2.031 . S
O101 C105 1.269 1_655 S
O102 Zn99 1.986 . S
O102 C109 1.262 . S
O103 Zn98 2.049 . S
O103 C111 1.260 . S
O104 Zn99 1.996 . S
O104 C111 1.257 1_455 S
C105 O100 1.254 . S
C105 O101 1.269 1_455 S
C106 O107 1.249 . S
C106 O108 1.270 . S
O107 Zn99 1.943 1_655 S
O107 C106 1.249 . S
O108 Zn98 2.067 . S
O108 C106 1.270 . S
C109 O102 1.262 . S
C109 O110 1.232 . S
O110 C109 1.232 . S
C111 O103 1.260 . S
C111 O104 1.257 1_655 S
Zn112 O115 2.031 . S
Zn112 O117 2.049 . S
Zn112 O122 2.067 1_545 S
Zn113 O114 1.962 . S
Zn113 O116 1.986 . S
Zn113 O118 1.996 . S
Zn113 O121 1.943 . S
O114 Zn113 1.962 . S
O114 C119 1.254 . S
O115 Zn112 2.031 . S
O115 C119 1.269 . S
O116 Zn113 1.986 . S
O116 C123 1.262 . S
O117 Zn112 2.049 . S
O117 C125 1.260 . S
O118 Zn113 1.996 . S
O118 C125 1.257 . S
C119 O114 1.254 . S
C119 O115 1.269 . S
C120 O121 1.249 . S
C120 O122 1.270 1_545 S
O121 Zn113 1.943 . S
O121 C120 1.249 . S
O122 Zn112 2.067 1_565 S
O122 C120 1.270 1_565 S
C123 O116 1.262 . S
C123 O124 1.232 . S
O124 C123 1.232 . S
C125 O117 1.260 . S
C125 O118 1.257 . S
Zn126 O129 2.031 . S
Zn126 O131 2.049 . S
Zn126 O136 2.067 . S
Zn127 O128 1.962 . S
Zn127 O130 1.986 . S
Zn127 O132 1.996 . S
Zn127 O135 1.943 . S
O128 Zn127 1.962 . S
O128 C133 1.254 . S
O129 Zn126 2.031 . S
O129 C133 1.269 . S
O130 Zn127 1.986 . S
O130 C137 1.262 . S
O131 Zn126 2.049 . S
O131 C139 1.260 . S
O132 Zn127 1.996 . S
O132 C139 1.257 . S
C133 O128 1.254 . S
C133 O129 1.269 . S
C134 O135 1.249 . S
C134 O136 1.270 . S
O135 Zn127 1.943 . S
O135 C134 1.249 . S
O136 Zn126 2.067 . S
O136 C134 1.270 . S
C137 O130 1.262 . S
C137 O138 1.232 . S
O138 C137 1.232 . S
C139 O131 1.260 . S
C139 O132 1.257 . S
Zn140 O143 2.031 . S
Zn140 O145 2.049 . S
Zn140 O150 2.067 . S
Zn141 O142 1.962 . S
Zn141 O144 1.986 . S
Zn141 O146 1.996 . S
Zn141 O149 1.943 1_565 S
O142 Zn141 1.962 . S
O142 C147 1.254 1_565 S
O143 Zn140 2.031 . S
O143 C147 1.269 . S
O144 Zn141 1.986 . S
O144 C151 1.262 . S
O145 Zn140 2.049 . S
O145 C153 1.260 . S
O146 Zn141 1.996 . S
O146 C153 1.257 1_565 S
C147 O142 1.254 1_545 S
C147 O143 1.269 . S
C148 O149 1.249 . S
C148 O150 1.270 . S
O149 Zn141 1.943 1_545 S
O149 C148 1.249 . S
O150 Zn140 2.067 . S
O150 C148 1.270 . S
C151 O144 1.262 . S
C151 O152 1.232 . S
O152 C151 1.232 . S
C153 O145 1.260 . S
C153 O146 1.257 1_545 S
Zn154 O157 1.996 1_554 S
Zn154 O159 2.049 . S
Zn154 O164 2.067 . S
Zn155 O156 1.962 1_554 S
Zn155 O158 1.986 . S
Zn155 O160 1.996 . S
Zn155 O163 1.943 . S
O156 Zn155 1.962 1_556 S
O156 C161 1.254 . S
O157 Zn154 1.996 1_556 S
O157 C161 1.284 . S
O158 Zn155 1.986 . S
O158 C165 1.262 . S
O159 Zn154 2.049 . S
O159 C167 1.260 . S
O160 Zn155 1.996 . S
O160 C167 1.257 . S
C161 O156 1.254 . S
C161 O157 1.284 . S
C162 O163 1.249 . S
C162 O164 1.270 . S
O163 Zn155 1.943 . S
O163 C162 1.249 . S
O164 Zn154 2.067 . S
O164 C162 1.270 . S
C165 O158 1.262 . S
C165 O166 1.232 . S
O166 C165 1.232 . S
C167 O159 1.260 . S
C167 O160 1.257 . S
Zn168 O171 2.031 1_554 S
Zn168 O173 2.049 . S
Zn168 O178 2.067 . S
Zn169 O170 1.962 1_554 S
Zn169 O172 1.986 . S
Zn169 O174 1.996 . S
Zn169 O177 1.943 . S
O170 Zn169 1.962 1_556 S
O170 C175 1.254 . S
O171 Zn168 2.031 1_556 S
O171 C175 1.269 . S
O172 Zn169 1.986 . S
O172 C179 1.262 . S
O173 Zn168 2.049 . S
O173 C181 1.260 . S
O174 Zn169 1.996 . S
O174 C181 1.257 . S
C175 O170 1.254 . S
C175 O171 1.269 . S
C176 O177 1.249 . S
C176 O178 1.270 . S
O177 Zn169 1.943 . S
O177 C176 1.249 . S
O178 Zn168 2.067 . S
O178 C176 1.270 . S
C179 O172 1.262 . S
C179 O180 1.232 . S
O180 C179 1.232 . S
C181 O173 1.260 . S
C181 O174 1.257 . S
Zn182 O185 2.031 1_554 S
Zn182 O187 2.049 . S
Zn182 O192 2.067 . S
Zn183 O184 1.962 1_554 S
Zn183 O186 1.986 . S
Zn183 O188 1.996 . S
Zn183 O191 1.942 . S
O184 Zn183 1.962 1_556 S
O184 C189 1.254 . S
O185 Zn182 2.031 1_556 S
O185 C189 1.269 . S
O186 Zn183 1.986 . S
O186 C193 1.262 . S
O187 Zn182 2.049 . S
O187 C195 1.260 . S
O188 Zn183 1.996 . S
O188 C195 1.257 . S
C189 O184 1.254 . S
C189 O185 1.269 . S
C190 O191 1.245 . S
C190 O192 1.287 . S
O191 Zn183 1.942 . S
O191 C190 1.245 . S
O192 Zn182 2.067 . S
O192 C190 1.287 . S
C193 O186 1.262 . S
C193 O194 1.232 1_554 S
O194 C193 1.232 1_556 S
C195 O187 1.260 . S
C195 O188 1.257 . S
Zn196 O199 2.031 . S
Zn196 O201 2.049 . S
Zn196 O206 2.067 . S
Zn197 O198 1.962 . S
Zn197 O200 1.986 . S
Zn197 O202 1.996 . S
Zn197 O205 1.943 . S
O198 Zn197 1.962 . S
O198 C203 1.254 . S
O199 Zn196 2.031 . S
O199 C203 1.269 . S
O200 Zn197 1.986 . S
O200 C207 1.262 . S
O201 Zn196 2.049 . S
O201 C209 1.260 . S
O202 Zn197 1.996 . S
O202 C209 1.257 . S
C203 O198 1.254 . S
C203 O199 1.269 . S
C204 O205 1.249 . S
C204 O206 1.270 . S
O205 Zn197 1.943 . S
O205 C204 1.249 . S
O206 Zn196 2.067 . S
O206 C204 1.270 . S
C207 O200 1.262 . S
C207 O208 1.232 . S
O208 C207 1.232 . S
C209 O201 1.260 . S
C209 O202 1.257 . S
Zn210 O213 2.031 . S
Zn210 O215 2.049 . S
Zn210 O220 2.067 . S
Zn211 O212 1.962 . S
Zn211 O214 1.986 . S
Zn211 O216 1.996 . S
Zn211 O219 1.943 . S
O212 Zn211 1.962 . S
O212 C217 1.254 . S
O213 Zn210 2.031 . S
O213 C217 1.269 . S
O214 Zn211 1.986 . S
O214 C221 1.262 . S
O215 Zn210 2.049 . S
O215 C223 1.260 . S
O216 Zn211 1.996 . S
O216 C223 1.257 . S
C217 O212 1.254 . S
C217 O213 1.269 . S
C218 O219 1.249 . S
C218 O220 1.270 . S
O219 Zn211 1.943 . S
O219 C218 1.249 . S
O220 Zn210 2.067 . S
O220 C218 1.270 . S
C221 O214 1.262 . S
C221 O222 1.232 . S
O222 C221 1.232 . S
C223 O215 1.260 . S
C223 O216 1.257 . S
Zn224 O227 2.031 . S
Zn224 O229 2.049 . S
Zn224 O234 2.067 . S
Zn225 O226 1.962 . S
Zn225 O228 1.986 . S
Zn225 O230 1.996 . S
Zn225 O233 1.943 . S
O226 Zn225 1.962 . S
O226 C231 1.254 . S
O227 Zn224 2.031 . S
O227 C231 1.269 . S
O228 Zn225 1.986 . S
O228 C235 1.262 . S
O229 Zn224 2.049 . S
O229 C237 1.260 . S
O230 Zn225 1.996 . S
O230 C237 1.257 . S
C231 O226 1.254 . S
C231 O227 1.269 . S
C232 O233 1.249 . S
C232 O234 1.270 . S
O233 Zn225 1.943 . S
O233 C232 1.249 . S
O234 Zn224 2.067 . S
O234 C232 1.270 . S
C235 O228 1.262 . S
C235 O236 1.232 . S
O236 C235 1.232 . S
C237 O229 1.260 . S
C237 O230 1.257 . S
Zn238 O241 2.031 . S
Zn238 O243 2.049 . S
Zn238 O248 2.067 . S
Zn239 O240 1.962 . S
Zn239 O242 1.986 . S
Zn239 O244 1.996 . S
Zn239 O247 1.943 . S
O240 Zn239 1.962 . S
O240 C245 1.254 . S
O241 Zn238 2.031 . S
O241 C245 1.269 . S
O242 Zn239 1.986 . S
O242 C249 1.262 . S
O243 Zn238 2.049 . S
O243 C251 1.260 . S
O244 Zn239 1.996 . S
O244 C251 1.257 . S
C245 O240 1.254 . S
C245 O241 1.269 . S
C246 O247 1.249 . S
C246 O248 1.270 . S
O247 Zn239 1.943 . S
O247 C246 1.249 . S
O248 Zn238 2.067 . S
O248 C246 1.270 . S
C249 O242 1.262 . S
C249 O250 1.232 . S
O250 C249 1.232 . S
C251 O243 1.260 . S
C251 O244 1.257 . S
Zn252 O255 2.031 . S
Zn252 O257 2.049 . S
Zn252 O262 2.067 . S
Zn253 O254 1.962 . S
Zn253 O256 1.986 . S
Zn253 O258 1.996 . S
Zn253 O261 1.943 . S
O254 Zn253 1.962 . S
O254 C259 1.254 . S
O255 Zn252 2.031 . S
O255 C259 1.269 . S
O256 Zn253 1.986 . S
O256 C263 1.262 . S
O257 Zn252 2.049 . S
O257 C265 1.260 . S
O258 Zn253 1.996 . S
O258 C265 1.257 . S
C259 O254 1.254 . S
C259 O255 1.269 . S
C260 O261 1.249 . S
C260 O262 1.270 . S
O261 Zn253 1.943 . S
O261 C260 1.249 . S
O262 Zn252 2.067 . S
O262 C260 1.270 . S
C263 O256 1.262 . S
C263 O264 1.232 . S
O264 C263 1.232 . S
C265 O257 1.260 . S
C265 O258 1.257 . S
Zn266 O269 2.031 . S
Zn266 O271 2.049 . S
Zn266 O276 2.067 . S
Zn267 O268 1.961 1_545 S
Zn267 O270 1.978 1_545 S
Zn267 O272 1.999 . S
Zn267 O275 1.950 . S
O268 Zn267 1.961 1_565 S
O268 C273 1.254 1_565 S
O269 Zn266 2.031 . S
O269 C273 1.269 . S
O270 Zn267 1.978 1_565 S
O270 C277 1.262 . S
O271 Zn266 2.049 . S
O271 C279 1.260 . S
O272 Zn267 1.999 . S
O272 C279 1.257 . S
C273 O268 1.254 1_545 S
C273 O269 1.269 . S
C274 O275 1.249 . S
C274 O276 1.270 . S
O275 Zn267 1.950 . S
O275 C274 1.249 . S
O276 Zn266 2.067 . S
O276 C274 1.270 . S
C277 O270 1.262 . S
C277 O278 1.232 . S
O278 C277 1.232 . S
C279 O271 1.260 . S
C279 O272 1.257 . S
Zn280 O283 2.031 1_554 S
Zn280 O285 2.049 . S
Zn280 O290 2.067 . S
Zn281 O282 1.947 1_554 S
Zn281 O284 1.993 . S
Zn281 O286 2.008 . S
Zn281 O289 1.945 1_554 S
O282 Zn281 1.947 1_556 S
O282 C287 1.254 . S
O283 Zn280 2.031 1_556 S
O283 C287 1.269 . S
O284 Zn281 1.993 . S
O284 C291 1.284 . S
O285 Zn280 2.049 . S
O285 C293 1.260 . S
O286 Zn281 2.008 . S
O286 C293 1.257 . S
C287 O282 1.254 . S
C287 O283 1.269 . S
C288 O289 1.252 . S
C288 O290 1.261 1_556 S
O289 Zn281 1.945 1_556 S
O289 C288 1.252 . S
O290 Zn280 2.067 . S
O290 C288 1.261 1_554 S
C291 O284 1.284 . S
C291 O292 1.206 1_554 S
O292 C291 1.206 1_556 S
C293 O285 1.260 . S
C293 O286 1.257 . S
Zn294 O297 2.031 . S
Zn294 O299 2.049 . S
Zn294 O304 2.067 . S
Zn295 O296 1.962 . S
Zn295 O298 1.986 . S
Zn295 O300 1.996 . S
Zn295 O303 1.943 . S
O296 Zn295 1.962 . S
O296 C301 1.254 . S
O297 Zn294 2.031 . S
O297 C301 1.269 . S
O298 Zn295 1.986 . S
O298 C305 1.262 . S
O299 Zn294 2.049 . S
O299 C307 1.260 . S
O300 Zn295 1.996 . S
O300 C307 1.257 . S
C301 O296 1.254 . S
C301 O297 1.269 . S
C302 O303 1.249 . S
C302 O304 1.270 . S
O303 Zn295 1.943 . S
O303 C302 1.249 . S
O304 Zn294 2.067 . S
O304 C302 1.270 . S
C305 O298 1.262 . S
C305 O306 1.232 . S
O306 C305 1.232 . S
C307 O299 1.260 . S
C307 O300 1.257 . S
Zn308 O311 2.031 . S
Zn308 O313 2.049 . S
Zn308 O318 2.067 . S
Zn309 O310 1.962 . S
Zn309 O312 1.986 . S
Zn309 O314 1.996 . S
Zn309 O317 1.943 . S
O310 Zn309 1.962 . S
O310 C315 1.254 . S
O311 Zn308 2.031 . S
O311 C315 1.269 . S
O312 Zn309 1.986 . S
O312 C319 1.262 . S
O313 Zn308 2.049 . S
O313 C321 1.260 . S
O314 Zn309 1.996 . S
O314 C321 1.257 . S
C315 O310 1.254 . S
C315 O311 1.269 . S
C316 O317 1.249 . S
C316 O318 1.270 . S
O317 Zn309 1.943 . S
O317 C316 1.249 . S
O318 Zn308 2.067 . S
O318 C316 1.270 . S
C319 O312 1.262 . S
C319 O320 1.232 . S
O320 C319 1.232 . S
C321 O313 1.260 . S
C321 O314 1.257 . S
Zn322 O325 2.031 . S
Zn322 O327 2.049 . S
Zn322 O332 2.067 . S
Zn323 O324 1.962 . S
Zn323 O326 1.986 . S
Zn323 O328 1.996 . S
Zn323 O331 1.943 . S
O324 Zn323 1.962 . S
O324 C329 1.254 . S
O325 Zn322 2.031 . S
O325 C329 1.269 . S
O326 Zn323 1.986 . S
O326 C333 1.262 . S
O327 Zn322 2.049 . S
O327 C335 1.260 . S
O328 Zn323 1.996 . S
O328 C335 1.257 . S
C329 O324 1.254 . S
C329 O325 1.269 . S
C330 O331 1.249 . S
C330 O332 1.270 . S
O331 Zn323 1.943 . S
O331 C330 1.249 . S
O332 Zn322 2.067 . S
O332 C330 1.270 . S
C333 O326 1.262 . S
C333 O334 1.232 . S
O334 C333 1.232 . S
C335 O327 1.260 . S
C335 O328 1.257 . S
Tb336 O339 2.453 . S
Tb336 O340 2.596 . S
Tb336 O341 2.374 1_554 S
Tb336 O349 2.343 1_455 S
Tb336 O351 2.353 . S
Tb336 O353 2.427 . S
Tb336 O354 2.513 1_554 S
C337 O341 1.251 . S
C337 O343 1.263 . S
Tb338 O340 2.353 1_655 S
Tb338 O343 2.358 1_654 S
Tb338 O346 2.385 1_645 S
Tb338 O347 2.482 1_645 S
Tb338 O348 2.472 1_554 S
Tb338 O349 2.640 . S
Tb338 O350 2.396 . S
O339 Tb336 2.453 . S
O339 C355 1.245 . S
O340 Tb336 2.596 . S
O340 Tb338 2.353 1_455 S
O340 C355 1.259 . S
O341 Tb336 2.374 1_556 S
O341 C337 1.251 . S
C342 O346 1.275 . S
C342 O347 1.246 . S
O343 C337 1.263 . S
O343 Tb338 2.358 1_456 S
C344 O348 1.242 1_554 S
C344 O349 1.259 . S
C345 O350 1.250 1_455 S
C345 O351 1.263 . S
O346 Tb338 2.385 1_465 S
O346 C342 1.275 . S
O347 Tb338 2.482 1_465 S
O347 C342 1.246 . S
O348 Tb338 2.472 1_556 S
O348 C344 1.242 1_556 S
O349 Tb336 2.343 1_655 S
O349 Tb338 2.640 . S
O349 C344 1.259 . S
O350 Tb338 2.396 . S
O350 C345 1.250 1_655 S
O351 Tb336 2.353 . S
O351 C345 1.263 . S
C352 O353 1.275 . S
C352 O354 1.246 1_554 S
O353 Tb336 2.427 . S
O353 C352 1.275 . S
O354 Tb336 2.513 1_556 S
O354 C352 1.246 1_556 S
C355 O339 1.245 . S
C355 O340 1.259 . S
Tb356 O359 2.453 . S
Tb356 O360 2.596 . S
Tb356 O361 2.374 . S
Tb356 O369 2.343 . S
Tb356 O371 2.353 . S
Tb356 O373 2.427 . S
Tb356 O374 2.513 . S
C357 O361 1.251 . S
C357 O363 1.263 . S
Tb358 O360 2.343 . S
Tb358 O363 2.353 . S
Tb358 O366 2.427 . S
Tb358 O367 2.513 . S
Tb358 O368 2.453 . S
Tb358 O369 2.596 . S
Tb358 O370 2.374 . S
O359 Tb356 2.453 . S
O359 C375 1.245 . S
O360 Tb356 2.596 . S
O360 Tb358 2.343 . S
O360 C375 1.259 . S
O361 Tb356 2.374 . S
O361 C357 1.251 . S
C362 O366 1.275 . S
C362 O367 1.246 . S
O363 C357 1.263 . S
O363 Tb358 2.353 . S
C364 O368 1.245 . S
C364 O369 1.259 . S
C365 O370 1.250 . S
C365 O371 1.263 . S
O366 Tb358 2.427 . S
O366 C362 1.275 . S
O367 Tb358 2.513 . S
O367 C362 1.246 . S
O368 Tb358 2.453 . S
O368 C364 1.245 . S
O369 Tb356 2.343 . S
O369 Tb358 2.596 . S
O369 C364 1.259 . S
O370 Tb358 2.374 . S
O370 C365 1.250 . S
O371 Tb356 2.353 . S
O371 C365 1.263 . S
C372 O373 1.275 . S
C372 O374 1.246 . S
O373 Tb356 2.427 . S
O373 C372 1.275 . S
O374 Tb356 2.513 . S
O374 C372 1.246 . S
C375 O359 1.245 . S
C375 O360 1.259 . S
Tb376 O379 2.453 . S
Tb376 O380 2.596 . S
Tb376 O381 2.374 . S
Tb376 O389 2.366 . S
Tb376 O391 2.353 . S
Tb376 O393 2.427 . S
Tb376 O394 2.513 . S
C377 O381 1.251 . S
C377 O383 1.263 . S
Tb378 O380 2.343 . S
Tb378 O383 2.353 . S
Tb378 O386 2.427 . S
Tb378 O387 2.513 . S
Tb378 O388 2.453 1_545 S
Tb378 O389 2.612 . S
Tb378 O390 2.374 . S
O379 Tb376 2.453 . S
O379 C395 1.245 . S
O380 Tb376 2.596 . S
O380 Tb378 2.343 . S
O380 C395 1.259 . S
O381 Tb376 2.374 . S
O381 C377 1.251 . S
C382 O386 1.275 . S
C382 O387 1.246 . S
O383 C377 1.263 . S
O383 Tb378 2.353 . S
C384 O388 1.245 . S
C384 O389 1.231 1_565 S
C385 O390 1.250 . S
C385 O391 1.263 . S
O386 Tb378 2.427 . S
O386 C382 1.275 . S
O387 Tb378 2.513 . S
O387 C382 1.246 . S
O388 Tb378 2.453 1_565 S
O388 C384 1.245 . S
O389 Tb376 2.366 . S
O389 Tb378 2.612 . S
O389 C384 1.231 1_545 S
O390 Tb378 2.374 . S
O390 C385 1.250 . S
O391 Tb376 2.353 . S
O391 C385 1.263 . S
C392 O393 1.261 1_565 S
C392 O394 1.245 1_565 S
O393 Tb376 2.427 . S
O393 C392 1.261 1_545 S
O394 Tb376 2.513 . S
O394 C392 1.245 1_545 S
C395 O379 1.245 . S
C395 O380 1.259 . S
Tb396 O399 2.453 . S
Tb396 O400 2.596 . S
Tb396 O401 2.374 . S
Tb396 O409 2.343 . S
Tb396 O411 2.353 . S
Tb396 O413 2.427 . S
Tb396 O414 2.513 . S
C397 O401 1.251 . S
C397 O403 1.263 . S
Tb398 O400 2.343 . S
Tb398 O403 2.353 . S
Tb398 O406 2.427 . S
Tb398 O407 2.513 . S
Tb398 O408 2.453 . S
Tb398 O409 2.596 . S
Tb398 O410 2.374 . S
O399 Tb396 2.453 . S
O399 C415 1.245 . S
O400 Tb396 2.596 . S
O400 Tb398 2.343 . S
O400 C415 1.259 . S
O401 Tb396 2.374 . S
O401 C397 1.251 . S
C402 O406 1.275 . S
C402 O407 1.246 . S
O403 C397 1.263 . S
O403 Tb398 2.353 . S
C404 O408 1.245 . S
C404 O409 1.259 . S
C405 O410 1.250 . S
C405 O411 1.263 . S
O406 Tb398 2.427 . S
O406 C402 1.275 . S
O407 Tb398 2.513 . S
O407 C402 1.246 . S
O408 Tb398 2.453 . S
O408 C404 1.245 . S
O409 Tb396 2.343 . S
O409 Tb398 2.596 . S
O409 C404 1.259 . S
O410 Tb398 2.374 . S
O410 C405 1.250 . S
O411 Tb396 2.353 . S
O411 C405 1.263 . S
C412 O413 1.275 . S
C412 O414 1.246 . S
O413 Tb396 2.427 . S
O413 C412 1.275 . S
O414 Tb396 2.513 . S
O414 C412 1.246 . S
C415 O399 1.245 . S
C415 O400 1.259 . S
Tb416 O419 2.453 1_545 S
Tb416 O420 2.596 . S
Tb416 O421 2.374 1_455 S
Tb416 O429 2.343 . S
Tb416 O431 2.353 . S
Tb416 O433 2.427 . S
Tb416 O434 2.513 1_455 S
C417 O421 1.251 . S
C417 O423 1.263 . S
Tb418 O420 2.343 . S
Tb418 O423 2.353 1_455 S
Tb418 O426 2.427 . S
Tb418 O427 2.513 . S
Tb418 O428 2.453 . S
Tb418 O429 2.596 . S
Tb418 O430 2.374 . S
O419 Tb416 2.453 1_565 S
O419 C435 1.245 . S
O420 Tb416 2.596 . S
O420 Tb418 2.343 . S
O420 C435 1.259 1_545 S
O421 Tb416 2.374 1_655 S
O421 C417 1.251 . S
C422 O426 1.275 . S
C422 O427 1.246 . S
O423 C417 1.263 . S
O423 Tb418 2.353 1_655 S
C424 O428 1.245 . S
C424 O429 1.259 . S
C425 O430 1.250 . S
C425 O431 1.263 . S
O426 Tb418 2.427 . S
O426 C422 1.275 . S
O427 Tb418 2.513 . S
O427 C422 1.246 . S
O428 Tb418 2.453 . S
O428 C424 1.245 . S
O429 Tb416 2.343 . S
O429 Tb418 2.596 . S
O429 C424 1.259 . S
O430 Tb418 2.374 . S
O430 C425 1.250 . S
O431 Tb416 2.353 . S
O431 C425 1.263 . S
C432 O433 1.275 1_655 S
C432 O434 1.246 . S
O433 Tb416 2.427 . S
O433 C432 1.275 1_455 S
O434 Tb416 2.513 1_655 S
O434 C432 1.246 . S
C435 O419 1.245 . S
C435 O420 1.259 1_565 S
Tb436 O439 2.453 . S
Tb436 O440 2.596 . S
Tb436 O441 2.374 . S
Tb436 O449 2.343 . S
Tb436 O451 2.353 . S
Tb436 O453 2.427 . S
Tb436 O454 2.513 . S
C437 O441 1.251 . S
C437 O443 1.263 . S
Tb438 O440 2.343 . S
Tb438 O443 2.353 . S
Tb438 O446 2.427 . S
Tb438 O447 2.513 . S
Tb438 O448 2.453 . S
Tb438 O449 2.596 . S
Tb438 O450 2.374 . S
O439 Tb436 2.453 . S
O439 C455 1.245 . S
O440 Tb436 2.596 . S
O440 Tb438 2.343 . S
O440 C455 1.259 . S
O441 Tb436 2.374 . S
O441 C437 1.251 . S
C442 O446 1.275 . S
C442 O447 1.246 . S
O443 C437 1.263 . S
O443 Tb438 2.353 . S
C444 O448 1.245 . S
C444 O449 1.259 . S
C445 O450 1.250 . S
C445 O451 1.263 . S
O446 Tb438 2.427 . S
O446 C442 1.275 . S
O447 Tb438 2.513 . S
O447 C442 1.246 . S
O448 Tb438 2.453 . S
O448 C444 1.245 . S
O449 Tb436 2.343 . S
O449 Tb438 2.596 . S
O449 C444 1.259 . S
O450 Tb438 2.374 . S
O450 C445 1.250 . S
O451 Tb436 2.353 . S
O451 C445 1.263 . S
C452 O453 1.275 . S
C452 O454 1.246 . S
O453 Tb436 2.427 . S
O453 C452 1.275 . S
O454 Tb436 2.513 . S
O454 C452 1.246 . S
C455 O439 1.245 . S
C455 O440 1.259 . S
Tb456 O459 2.453 . S
Tb456 O460 2.596 . S
Tb456 O461 2.374 1_545 S
Tb456 O469 2.343 1_556 S
Tb456 O471 2.353 1_556 S
Tb456 O473 2.427 1_556 S
Tb456 O474 2.513 1_546 S
C457 O461 1.251 . S
C457 O463 1.263 1_556 S
Tb458 O460 2.343 1_554 S
Tb458 O463 2.353 1_545 S
Tb458 O466 2.427 . S
Tb458 O467 2.513 . S
Tb458 O468 2.453 . S
Tb458 O469 2.596 . S
Tb458 O470 2.374 . S
O459 Tb456 2.453 . S
O459 C475 1.245 . S
O460 Tb456 2.596 . S
O460 Tb458 2.343 1_556 S
O460 C475 1.259 . S
O461 Tb456 2.374 1_565 S
O461 C457 1.251 . S
C462 O466 1.275 . S
C462 O467 1.246 . S
O463 C457 1.263 1_554 S
O463 Tb458 2.353 1_565 S
C464 O468 1.245 . S
C464 O469 1.259 . S
C465 O470 1.250 . S
C465 O471 1.263 . S
O466 Tb458 2.427 . S
O466 C462 1.275 . S
O467 Tb458 2.513 . S
O467 C462 1.246 . S
O468 Tb458 2.453 . S
O468 C464 1.245 . S
O469 Tb456 2.343 1_554 S
O469 Tb458 2.596 . S
O469 C464 1.259 . S
O470 Tb458 2.374 . S
O470 C465 1.250 . S
O471 Tb456 2.353 1_554 S
O471 C465 1.263 . S
C472 O473 1.275 . S
C472 O474 1.246 1_545 S
O473 Tb456 2.427 1_554 S
O473 C472 1.275 . S
O474 Tb456 2.513 1_564 S
O474 C472 1.246 1_565 S
C475 O459 1.245 . S
C475 O460 1.259 . S
Tb476 O479 2.453 . S
Tb476 O480 2.596 . S
Tb476 O481 2.374 . S
Tb476 O489 2.343 . S
Tb476 O491 2.353 . S
Tb476 O493 2.427 . S
Tb476 O494 2.513 . S
C477 O481 1.251 . S
C477 O483 1.263 . S
Tb478 O480 2.343 . S
Tb478 O483 2.353 . S
Tb478 O486 2.427 . S
Tb478 O487 2.513 . S
Tb478 O488 2.453 . S
Tb478 O489 2.596 . S
Tb478 O490 2.374 . S
O479 Tb476 2.453 . S
O479 C495 1.245 . S
O480 Tb476 2.596 . S
O480 Tb478 2.343 . S
O480 C495 1.259 . S
O481 Tb476 2.374 . S
O481 C477 1.251 . S
C482 O486 1.275 . S
C482 O487 1.246 . S
O483 C477 1.263 . S
O483 Tb478 2.353 . S
C484 O488 1.245 . S
C484 O489 1.259 . S
C485 O490 1.250 . S
C485 O491 1.263 . S
O486 Tb478 2.427 . S
O486 C482 1.275 . S
O487 Tb478 2.513 . S
O487 C482 1.246 . S
O488 Tb478 2.453 . S
O488 C484 1.245 . S
O489 Tb476 2.343 . S
O489 Tb478 2.596 . S
O489 C484 1.259 . S
O490 Tb478 2.374 . S
O490 C485 1.250 . S
O491 Tb476 2.353 . S
O491 C485 1.263 . S
C492 O493 1.275 . S
C492 O494 1.246 . S
O493 Tb476 2.427 . S
O493 C492 1.275 . S
O494 Tb476 2.513 . S
O494 C492 1.246 . S
C495 O479 1.245 . S
C495 O480 1.259 . S
Tb496 O499 2.453 1_556 S
Tb496 O500 2.596 1_556 S
Tb496 O501 2.374 . S
Tb496 O509 2.343 . S
Tb496 O511 2.353 . S
Tb496 O513 2.427 . S
Tb496 O514 2.513 . S
C497 O501 1.251 1_554 S
C497 O503 1.263 . S
Tb498 O500 2.343 . S
Tb498 O503 2.353 . S
Tb498 O506 2.427 . S
Tb498 O507 2.513 . S
Tb498 O508 2.453 . S
Tb498 O509 2.596 1_554 S
Tb498 O510 2.374 . S
O499 Tb496 2.453 1_554 S
O499 C515 1.244 . S
O500 Tb496 2.596 1_554 S
O500 Tb498 2.343 . S
O500 C515 1.259 . S
O501 Tb496 2.374 . S
O501 C497 1.251 1_556 S
C502 O506 1.275 . S
C502 O507 1.246 . S
O503 C497 1.263 . S
O503 Tb498 2.353 . S
C504 O508 1.245 1_556 S
C504 O509 1.259 . S
C505 O510 1.250 . S
C505 O511 1.263 1_554 S
O506 Tb498 2.427 . S
O506 C502 1.275 . S
O507 Tb498 2.513 . S
O507 C502 1.246 . S
O508 Tb498 2.453 . S
O508 C504 1.245 1_554 S
O509 Tb496 2.343 . S
O509 Tb498 2.596 1_556 S
O509 C504 1.259 . S
O510 Tb498 2.374 . S
O510 C505 1.250 . S
O511 Tb496 2.353 . S
O511 C505 1.263 1_556 S
C512 O513 1.275 . S
C512 O514 1.246 . S
O513 Tb496 2.427 . S
O513 C512 1.275 . S
O514 Tb496 2.513 . S
O514 C512 1.246 . S
C515 O499 1.244 . S
C515 O500 1.259 . S
Tb516 O519 2.453 . S
Tb516 O520 2.596 . S
Tb516 O521 2.374 . S
Tb516 O529 2.343 . S
Tb516 O531 2.353 . S
Tb516 O533 2.427 . S
Tb516 O534 2.513 . S
C517 O521 1.251 . S
C517 O523 1.263 . S
Tb518 O520 2.343 . S
Tb518 O523 2.353 . S
Tb518 O526 2.427 . S
Tb518 O527 2.513 . S
Tb518 O528 2.453 . S
Tb518 O529 2.596 . S
Tb518 O530 2.374 . S
O519 Tb516 2.453 . S
O519 C535 1.245 . S
O520 Tb516 2.596 . S
O520 Tb518 2.343 . S
O520 C535 1.259 . S
O521 Tb516 2.374 . S
O521 C517 1.251 . S
C522 O526 1.275 . S
C522 O527 1.246 . S
O523 C517 1.263 . S
O523 Tb518 2.353 . S
C524 O528 1.245 . S
C524 O529 1.259 . S
C525 O530 1.250 . S
C525 O531 1.263 . S
O526 Tb518 2.427 . S
O526 C522 1.275 . S
O527 Tb518 2.513 . S
O527 C522 1.246 . S
O528 Tb518 2.453 . S
O528 C524 1.245 . S
O529 Tb516 2.343 . S
O529 Tb518 2.596 . S
O529 C524 1.259 . S
O530 Tb518 2.374 . S
O530 C525 1.250 . S
O531 Tb516 2.353 . S
O531 C525 1.263 . S
C532 O533 1.275 . S
C532 O534 1.246 . S
O533 Tb516 2.427 . S
O533 C532 1.275 . S
O534 Tb516 2.513 . S
O534 C532 1.246 . S
C535 O519 1.245 . S
C535 O520 1.259 . S
Tb536 O539 2.453 . S
Tb536 O540 2.596 1_655 S
Tb536 O541 2.374 . S
Tb536 O549 2.343 . S
Tb536 O551 2.353 . S
Tb536 O553 2.427 . S
Tb536 O554 2.513 . S
C537 O541 1.251 1_455 S
C537 O543 1.263 . S
Tb538 O540 2.343 . S
Tb538 O543 2.353 . S
Tb538 O546 2.427 . S
Tb538 O547 2.513 . S
Tb538 O548 2.453 . S
Tb538 O549 2.596 1_455 S
Tb538 O550 2.374 . S
O539 Tb536 2.453 . S
O539 C555 1.245 1_655 S
O540 Tb536 2.596 1_455 S
O540 Tb538 2.343 . S
O540 C555 1.259 . S
O541 Tb536 2.374 . S
O541 C537 1.251 1_655 S
C542 O546 1.275 . S
C542 O547 1.246 . S
O543 C537 1.263 . S
O543 Tb538 2.353 . S
C544 O548 1.245 1_655 S
C544 O549 1.259 . S
C545 O550 1.219 1_655 S
C545 O551 1.280 . S
O546 Tb538 2.427 . S
O546 C542 1.275 . S
O547 Tb538 2.513 . S
O547 C542 1.246 . S
O548 Tb538 2.453 . S
O548 C544 1.245 1_455 S
O549 Tb536 2.343 . S
O549 Tb538 2.596 1_655 S
O549 C544 1.259 . S
O550 Tb538 2.374 . S
O550 C545 1.219 1_455 S
O551 Tb536 2.353 . S
O551 C545 1.280 . S
C552 O553 1.275 . S
C552 O554 1.246 . S
O553 Tb536 2.427 . S
O553 C552 1.275 . S
O554 Tb536 2.513 . S
O554 C552 1.246 . S
C555 O539 1.245 1_455 S
C555 O540 1.259 . S
Tb556 O559 2.453 . S
Tb556 O560 2.596 . S
Tb556 O561 2.374 . S
Tb556 O569 2.343 . S
Tb556 O571 2.353 . S
Tb556 O573 2.427 . S
Tb556 O574 2.513 . S
C557 O561 1.251 . S
C557 O563 1.263 . S
Tb558 O560 2.343 . S
Tb558 O563 2.353 . S
Tb558 O566 2.427 . S
Tb558 O567 2.513 . S
Tb558 O568 2.453 . S
Tb558 O569 2.596 . S
Tb558 O570 2.374 . S
O559 Tb556 2.453 . S
O559 C575 1.245 . S
O560 Tb556 2.596 . S
O560 Tb558 2.343 . S
O560 C575 1.259 . S
O561 Tb556 2.374 . S
O561 C557 1.251 . S
C562 O566 1.275 . S
C562 O567 1.246 . S
O563 C557 1.263 . S
O563 Tb558 2.353 . S
C564 O568 1.245 . S
C564 O569 1.259 . S
C565 O570 1.250 . S
C565 O571 1.263 . S
O566 Tb558 2.427 . S
O566 C562 1.275 . S
O567 Tb558 2.513 . S
O567 C562 1.246 . S
O568 Tb558 2.453 . S
O568 C564 1.245 . S
O569 Tb556 2.343 . S
O569 Tb558 2.596 . S
O569 C564 1.259 . S
O570 Tb558 2.374 . S
O570 C565 1.250 . S
O571 Tb556 2.353 . S
O571 C565 1.263 . S
C572 O573 1.275 . S
C572 O574 1.246 . S
O573 Tb556 2.427 . S
O573 C572 1.275 . S
O574 Tb556 2.513 . S
O574 C572 1.246 . S
C575 O559 1.245 . S
C575 O560 1.259 . S
Tb576 O579 2.453 . S
Tb576 O580 2.596 . S
Tb576 O581 2.374 . S
Tb576 O589 2.343 . S
Tb576 O591 2.353 . S
Tb576 O593 2.427 . S
Tb576 O594 2.513 . S
C577 O581 1.251 . S
C577 O583 1.263 . S
Tb578 O580 2.343 . S
Tb578 O583 2.353 . S
Tb578 O586 2.427 . S
Tb578 O587 2.513 . S
Tb578 O588 2.453 . S
Tb578 O589 2.596 . S
Tb578 O590 2.374 . S
O579 Tb576 2.453 . S
O579 C595 1.245 . S
O580 Tb576 2.596 . S
O580 Tb578 2.343 . S
O580 C595 1.259 . S
O581 Tb576 2.374 . S
O581 C577 1.251 . S
C582 O586 1.275 . S
C582 O587 1.246 . S
O583 C577 1.263 . S
O583 Tb578 2.353 . S
C584 O588 1.245 . S
C584 O589 1.259 . S
C585 O590 1.250 . S
C585 O591 1.263 . S
O586 Tb578 2.427 . S
O586 C582 1.275 . S
O587 Tb578 2.513 . S
O587 C582 1.246 . S
O588 Tb578 2.453 . S
O588 C584 1.245 . S
O589 Tb576 2.343 . S
O589 Tb578 2.596 . S
O589 C584 1.259 . S
O590 Tb578 2.374 . S
O590 C585 1.250 . S
O591 Tb576 2.353 . S
O591 C585 1.263 . S
C592 O593 1.275 . S
C592 O594 1.246 . S
O593 Tb576 2.427 . S
O593 C592 1.275 . S
O594 Tb576 2.513 . S
O594 C592 1.246 . S
C595 O579 1.245 . S
C595 O580 1.259 . S
Tb596 O599 2.453 . S
Tb596 O600 2.596 . S
Tb596 O601 2.374 . S
Tb596 O609 2.343 . S
Tb596 O611 2.353 . S
Tb596 O613 2.427 . S
Tb596 O614 2.513 . S
C597 O601 1.251 . S
C597 O603 1.263 . S
Tb598 O600 2.343 . S
Tb598 O603 2.353 . S
Tb598 O606 2.427 . S
Tb598 O607 2.513 . S
Tb598 O608 2.453 . S
Tb598 O609 2.596 . S
Tb598 O610 2.374 . S
O599 Tb596 2.453 . S
O599 C615 1.245 . S
O600 Tb596 2.596 . S
O600 Tb598 2.343 . S
O600 C615 1.259 . S
O601 Tb596 2.374 . S
O601 C597 1.251 . S
C602 O606 1.275 . S
C602 O607 1.246 . S
O603 C597 1.263 . S
O603 Tb598 2.353 . S
C604 O608 1.245 . S
C604 O609 1.259 . S
C605 O610 1.250 . S
C605 O611 1.263 . S
O606 Tb598 2.427 . S
O606 C602 1.275 . S
O607 Tb598 2.513 . S
O607 C602 1.246 . S
O608 Tb598 2.453 . S
O608 C604 1.245 . S
O609 Tb596 2.343 . S
O609 Tb598 2.596 . S
O609 C604 1.259 . S
O610 Tb598 2.374 . S
O610 C605 1.250 . S
O611 Tb596 2.353 . S
O611 C605 1.263 . S
C612 O613 1.275 . S
C612 O614 1.246 . S
O613 Tb596 2.427 . S
O613 C612 1.275 . S
O614 Tb596 2.513 . S
O614 C612 1.246 . S
C615 O599 1.245 . S
C615 O600 1.259 . S
Tb616 O619 2.453 . S
Tb616 O620 2.596 . S
Tb616 O621 2.374 . S
Tb616 O629 2.343 . S
Tb616 O631 2.353 . S
Tb616 O633 2.427 . S
Tb616 O634 2.513 . S
C617 O621 1.251 . S
C617 O623 1.263 . S
Tb618 O620 2.343 . S
Tb618 O623 2.353 . S
Tb618 O626 2.427 . S
Tb618 O627 2.513 . S
Tb618 O628 2.453 . S
Tb618 O629 2.596 . S
Tb618 O630 2.374 . S
O619 Tb616 2.453 . S
O619 C635 1.245 . S
O620 Tb616 2.596 . S
O620 Tb618 2.343 . S
O620 C635 1.259 . S
O621 Tb616 2.374 . S
O621 C617 1.251 . S
C622 O626 1.275 . S
C622 O627 1.246 . S
O623 C617 1.263 . S
O623 Tb618 2.353 . S
C624 O628 1.245 . S
C624 O629 1.259 . S
C625 O630 1.250 . S
C625 O631 1.263 . S
O626 Tb618 2.427 . S
O626 C622 1.275 . S
O627 Tb618 2.513 . S
O627 C622 1.246 . S
O628 Tb618 2.453 . S
O628 C624 1.245 . S
O629 Tb616 2.343 . S
O629 Tb618 2.596 . S
O629 C624 1.259 . S
O630 Tb618 2.374 . S
O630 C625 1.250 . S
O631 Tb616 2.353 . S
O631 C625 1.263 . S
C632 O633 1.275 . S
C632 O634 1.246 . S
O633 Tb616 2.427 . S
O633 C632 1.275 . S
O634 Tb616 2.513 . S
O634 C632 1.246 . S
C635 O619 1.245 . S
C635 O620 1.259 . S
Tb636 O639 2.453 . S
Tb636 O640 2.599 1_455 S
Tb636 O641 2.374 . S
Tb636 O649 2.343 . S
Tb636 O651 2.353 1_554 S
Tb636 O653 2.427 1_554 S
Tb636 O654 2.513 . S
C637 O641 1.251 . S
C637 O643 1.263 1_455 S
Tb638 O640 2.341 . S
Tb638 O643 2.353 . S
Tb638 O646 2.427 . S
Tb638 O647 2.513 . S
Tb638 O648 2.453 . S
Tb638 O649 2.596 1_655 S
Tb638 O650 2.374 1_554 S
O639 Tb636 2.453 . S
O639 C655 1.245 . S
O640 Tb636 2.599 1_655 S
O640 Tb638 2.341 . S
O640 C655 1.261 1_655 S
O641 Tb636 2.374 . S
O641 C637 1.251 . S
C642 O646 1.275 . S
C642 O647 1.246 . S
O643 C637 1.263 1_655 S
O643 Tb638 2.353 . S
C644 O648 1.245 1_556 S
C644 O649 1.259 1_656 S
C645 O650 1.250 . S
C645 O651 1.263 1_655 S
O646 Tb638 2.427 . S
O646 C642 1.275 . S
O647 Tb638 2.513 . S
O647 C642 1.246 . S
O648 Tb638 2.453 . S
O648 C644 1.245 1_554 S
O649 Tb636 2.343 . S
O649 Tb638 2.596 1_455 S
O649 C644 1.259 1_454 S
O650 Tb638 2.374 1_556 S
O650 C645 1.250 . S
O651 Tb636 2.353 1_556 S
O651 C645 1.263 1_455 S
C652 O653 1.298 . S
C652 O654 1.213 1_556 S
O653 Tb636 2.427 1_556 S
O653 C652 1.298 . S
O654 Tb636 2.513 . S
O654 C652 1.213 1_554 S
C655 O639 1.245 . S
C655 O640 1.261 1_455 S
H656 C668 0.930 . S
H657 C670 0.930 . S
H658 C671 0.930 . S
H659 C675 0.959 . S
H660 C675 0.959 . S
H661 C675 0.961 . S
H662 C676 0.960 . S
H663 C676 0.961 1_554 S
H664 C676 0.960 . S
H665 C679 0.929 . S
H666 C680 0.931 . S
H667 C682 0.930 1_554 S
C668 H656 0.930 . S
C668 C669 1.399 . S
C668 C673 1.399 . S
C669 C668 1.399 . S
C669 C670 1.376 1_455 S
C670 H657 0.930 . S
C670 C669 1.376 1_655 S
C670 C671 1.388 . S
C671 H658 0.930 . S
C671 C670 1.388 . S
C671 C672 1.390 . S
C672 C671 1.390 . S
C672 C673 1.394 1_655 S
C672 C678 1.465 . S
C673 C668 1.399 . S
C673 C672 1.394 1_455 S
C673 C674 1.516 . S
C674 C673 1.516 . S
C674 C675 1.502 . S
C674 C676 1.561 . S
C674 C677 1.526 . S
C675 H659 0.959 . S
C675 H660 0.959 . S
C675 H661 0.961 . S
C675 C674 1.502 . S
C676 H662 0.960 . S
C676 H663 0.961 1_556 S
C676 H664 0.960 . S
C676 C674 1.561 . S
C677 C674 1.526 . S
C677 C678 1.396 1_455 S
C677 C682 1.390 . S
C678 C672 1.465 . S
C678 C677 1.396 1_655 S
C678 C679 1.399 . S
C679 H665 0.929 . S
C679 C678 1.399 . S
C679 C680 1.385 . S
C680 H666 0.931 . S
C680 C679 1.385 . S
C680 C681 1.389 1_655 S
C681 C680 1.389 1_455 S
C681 C682 1.387 . S
C682 H667 0.930 1_556 S
C682 C677 1.390 . S
C682 C681 1.387 . S
H683 C695 0.930 . S
H684 C697 0.930 . S
H685 C698 0.930 . S
H686 C702 0.959 . S
H687 C702 0.959 . S
H688 C702 0.961 . S
H689 C703 0.960 . S
H690 C703 0.961 . S
H691 C703 0.959 . S
H692 C706 0.929 . S
H693 C707 0.931 . S
H694 C709 0.930 . S
C695 H683 0.930 . S
C695 C696 1.399 . S
C695 C700 1.399 . S
C696 C695 1.399 . S
C696 C697 1.376 . S
C697 H684 0.930 . S
C697 C696 1.376 . S
C697 C698 1.388 . S
C698 H685 0.930 . S
C698 C697 1.388 . S
C698 C699 1.390 . S
C699 C698 1.390 . S
C699 C700 1.394 . S
C699 C705 1.465 . S
C700 C695 1.399 . S
C700 C699 1.394 . S
C700 C701 1.516 . S
C701 C700 1.516 . S
C701 C702 1.502 . S
C701 C703 1.561 . S
C701 C704 1.526 . S
C702 H686 0.959 . S
C702 H687 0.959 . S
C702 H688 0.961 . S
C702 C701 1.502 . S
C703 H689 0.960 . S
C703 H690 0.961 . S
C703 H691 0.959 . S
C703 C701 1.561 . S
C704 C701 1.526 . S
C704 C705 1.396 . S
C704 C709 1.390 . S
C705 C699 1.465 . S
C705 C704 1.396 . S
C705 C706 1.399 . S
C706 H692 0.929 . S
C706 C705 1.399 . S
C706 C707 1.385 . S
C707 H693 0.931 . S
C707 C706 1.385 . S
C707 C708 1.389 . S
C708 C707 1.389 . S
C708 C709 1.387 . S
C709 H694 0.930 . S
C709 C704 1.390 . S
C709 C708 1.387 . S
H710 C722 0.930 . S
H711 C724 0.930 . S
H712 C725 0.930 . S
H713 C729 0.959 . S
H714 C729 0.959 . S
H715 C729 0.961 . S
H716 C730 0.960 . S
H717 C730 0.961 . S
H718 C730 0.959 . S
H719 C733 0.929 . S
H720 C734 0.931 . S
H721 C736 0.930 . S
C722 H710 0.930 . S
C722 C723 1.399 . S
C722 C727 1.399 . S
C723 C722 1.399 . S
C723 C724 1.376 . S
C724 H711 0.930 . S
C724 C723 1.376 . S
C724 C725 1.388 . S
C725 H712 0.930 . S
C725 C724 1.388 . S
C725 C726 1.390 . S
C726 C725 1.390 . S
C726 C727 1.394 . S
C726 C732 1.465 . S
C727 C722 1.399 . S
C727 C726 1.394 . S
C727 C728 1.516 . S
C728 C727 1.516 . S
C728 C729 1.502 . S
C728 C730 1.561 . S
C728 C731 1.526 . S
C729 H713 0.959 . S
C729 H714 0.959 . S
C729 H715 0.961 . S
C729 C728 1.502 . S
C730 H716 0.960 . S
C730 H717 0.961 . S
C730 H718 0.959 . S
C730 C728 1.561 . S
C731 C728 1.526 . S
C731 C732 1.396 . S
C731 C736 1.390 . S
C732 C726 1.465 . S
C732 C731 1.396 . S
C732 C733 1.399 . S
C733 H719 0.929 . S
C733 C732 1.399 . S
C733 C734 1.385 . S
C734 H720 0.931 . S
C734 C733 1.385 . S
C734 C735 1.389 . S
C735 C734 1.389 . S
C735 C736 1.387 . S
C736 H721 0.930 . S
C736 C731 1.390 . S
C736 C735 1.387 . S
H737 C749 0.930 . S
H738 C751 0.930 . S
H739 C752 0.930 . S
H740 C756 0.959 . S
H741 C756 0.959 . S
H742 C756 0.961 . S
H743 C757 0.960 . S
H744 C757 0.961 . S
H745 C757 0.959 . S
H746 C760 0.929 . S
H747 C761 0.931 . S
H748 C763 0.930 . S
C749 H737 0.930 . S
C749 C750 1.399 . S
C749 C754 1.399 . S
C750 C749 1.399 . S
C750 C751 1.376 . S
C751 H738 0.930 . S
C751 C750 1.376 . S
C751 C752 1.388 . S
C752 H739 0.930 . S
C752 C751 1.388 . S
C752 C753 1.390 . S
C753 C752 1.390 . S
C753 C754 1.394 . S
C753 C759 1.465 . S
C754 C749 1.399 . S
C754 C753 1.394 . S
C754 C755 1.516 . S
C755 C754 1.516 . S
C755 C756 1.502 . S
C755 C757 1.561 . S
C755 C758 1.526 . S
C756 H740 0.959 . S
C756 H741 0.959 . S
C756 H742 0.961 . S
C756 C755 1.502 . S
C757 H743 0.960 . S
C757 H744 0.961 . S
C757 H745 0.959 . S
C757 C755 1.561 . S
C758 C755 1.526 . S
C758 C759 1.396 . S
C758 C763 1.390 . S
C759 C753 1.465 . S
C759 C758 1.396 . S
C759 C760 1.399 . S
C760 H746 0.929 . S
C760 C759 1.399 . S
C760 C761 1.385 . S
C761 H747 0.931 . S
C761 C760 1.385 . S
C761 C762 1.389 . S
C762 C761 1.389 . S
C762 C763 1.387 . S
C763 H748 0.930 . S
C763 C758 1.390 . S
C763 C762 1.387 . S
H764 C776 0.930 . S
H765 C778 0.930 . S
H766 C779 0.930 . S
H767 C783 0.959 . S
H768 C783 0.959 . S
H769 C783 0.961 . S
H770 C784 0.960 . S
H771 C784 0.961 . S
H772 C784 0.959 . S
H773 C787 0.929 . S
H774 C788 0.931 . S
H775 C790 0.930 . S
C776 H764 0.930 . S
C776 C777 1.399 . S
C776 C781 1.399 . S
C777 C776 1.399 . S
C777 C778 1.376 1_455 S
C778 H765 0.930 . S
C778 C777 1.376 1_655 S
C778 C779 1.388 . S
C779 H766 0.930 . S
C779 C778 1.388 . S
C779 C780 1.390 . S
C780 C779 1.390 . S
C780 C781 1.394 1_655 S
C780 C786 1.465 . S
C781 C776 1.399 . S
C781 C780 1.394 1_455 S
C781 C782 1.516 . S
C782 C781 1.516 . S
C782 C783 1.502 . S
C782 C784 1.561 . S
C782 C785 1.526 . S
C783 H767 0.959 . S
C783 H768 0.959 . S
C783 H769 0.961 . S
C783 C782 1.502 . S
C784 H770 0.960 . S
C784 H771 0.961 . S
C784 H772 0.959 . S
C784 C782 1.561 . S
C785 C782 1.526 . S
C785 C786 1.396 1_455 S
C785 C790 1.390 . S
C786 C780 1.465 . S
C786 C785 1.396 1_655 S
C786 C787 1.399 . S
C787 H773 0.929 . S
C787 C786 1.399 . S
C787 C788 1.385 . S
C788 H774 0.931 . S
C788 C787 1.385 . S
C788 C789 1.389 1_655 S
C789 C788 1.389 1_455 S
C789 C790 1.387 . S
C790 H775 0.930 . S
C790 C785 1.390 . S
C790 C789 1.387 . S
H791 C803 0.930 . S
H792 C805 0.930 . S
H793 C806 0.930 . S
H794 C810 0.959 . S
H795 C810 0.959 . S
H796 C810 0.961 . S
H797 C811 0.960 . S
H798 C811 0.961 . S
H799 C811 0.959 . S
H800 C814 0.929 . S
H801 C815 0.931 . S
H802 C817 0.930 . S
C803 H791 0.930 . S
C803 C804 1.399 . S
C803 C808 1.399 . S
C804 C803 1.399 . S
C804 C805 1.376 . S
C805 H792 0.930 . S
C805 C804 1.376 . S
C805 C806 1.388 . S
C806 H793 0.930 . S
C806 C805 1.388 . S
C806 C807 1.390 . S
C807 C806 1.390 . S
C807 C808 1.394 . S
C807 C813 1.465 . S
C808 C803 1.399 . S
C808 C807 1.394 . S
C808 C809 1.516 . S
C809 C808 1.516 . S
C809 C810 1.502 . S
C809 C811 1.561 . S
C809 C812 1.526 . S
C810 H794 0.959 . S
C810 H795 0.959 . S
C810 H796 0.961 . S
C810 C809 1.502 . S
C811 H797 0.960 . S
C811 H798 0.961 . S
C811 H799 0.959 . S
C811 C809 1.561 . S
C812 C809 1.526 . S
C812 C813 1.396 . S
C812 C817 1.390 . S
C813 C807 1.465 . S
C813 C812 1.396 . S
C813 C814 1.399 . S
C814 H800 0.929 . S
C814 C813 1.399 . S
C814 C815 1.385 . S
C815 H801 0.931 . S
C815 C814 1.385 . S
C815 C816 1.389 . S
C816 C815 1.389 . S
C816 C817 1.387 . S
C817 H802 0.930 . S
C817 C812 1.390 . S
C817 C816 1.387 . S
H818 C830 0.930 . S
H819 C832 0.930 . S
H820 C833 0.930 . S
H821 C837 0.959 . S
H822 C837 0.959 . S
H823 C837 0.961 . S
H824 C838 0.960 . S
H825 C838 0.961 . S
H826 C838 0.959 . S
H827 C841 0.929 . S
H828 C842 0.931 . S
H829 C844 0.930 . S
C830 H818 0.930 . S
C830 C831 1.399 . S
C830 C835 1.399 . S
C831 C830 1.399 . S
C831 C832 1.376 . S
C832 H819 0.930 . S
C832 C831 1.376 . S
C832 C833 1.388 . S
C833 H820 0.930 . S
C833 C832 1.388 . S
C833 C834 1.390 . S
C834 C833 1.390 . S
C834 C835 1.394 . S
C834 C840 1.465 . S
C835 C830 1.399 . S
C835 C834 1.394 . S
C835 C836 1.516 . S
C836 C835 1.516 . S
C836 C837 1.502 . S
C836 C838 1.561 . S
C836 C839 1.526 . S
C837 H821 0.959 . S
C837 H822 0.959 . S
C837 H823 0.961 . S
C837 C836 1.502 . S
C838 H824 0.960 . S
C838 H825 0.961 . S
C838 H826 0.959 . S
C838 C836 1.561 . S
C839 C836 1.526 . S
C839 C840 1.396 . S
C839 C844 1.390 . S
C840 C834 1.465 . S
C840 C839 1.396 . S
C840 C841 1.399 . S
C841 H827 0.929 . S
C841 C840 1.399 . S
C841 C842 1.385 . S
C842 H828 0.931 . S
C842 C841 1.385 . S
C842 C843 1.389 . S
C843 C842 1.389 . S
C843 C844 1.387 . S
C844 H829 0.930 . S
C844 C839 1.390 . S
C844 C843 1.387 . S
H845 C857 0.930 . S
H846 C859 0.930 . S
H847 C860 0.930 . S
H848 C864 0.959 . S
H849 C864 0.959 . S
H850 C864 0.961 . S
H851 C865 0.960 . S
H852 C865 0.961 . S
H853 C865 0.959 . S
H854 C868 0.929 . S
H855 C869 0.931 . S
H856 C871 0.930 . S
C857 H845 0.930 . S
C857 C858 1.399 . S
C857 C862 1.399 . S
C858 C857 1.399 . S
C858 C859 1.376 . S
C859 H846 0.930 . S
C859 C858 1.376 . S
C859 C860 1.388 . S
C860 H847 0.930 . S
C860 C859 1.388 . S
C860 C861 1.390 . S
C861 C860 1.390 . S
C861 C862 1.394 . S
C861 C867 1.465 . S
C862 C857 1.399 . S
C862 C861 1.394 . S
C862 C863 1.516 . S
C863 C862 1.516 . S
C863 C864 1.502 . S
C863 C865 1.561 . S
C863 C866 1.526 . S
C864 H848 0.959 . S
C864 H849 0.959 . S
C864 H850 0.961 . S
C864 C863 1.502 . S
C865 H851 0.960 . S
C865 H852 0.961 . S
C865 H853 0.959 . S
C865 C863 1.561 . S
C866 C863 1.526 . S
C866 C867 1.396 . S
C866 C871 1.390 . S
C867 C861 1.465 . S
C867 C866 1.396 . S
C867 C868 1.399 . S
C868 H854 0.929 . S
C868 C867 1.399 . S
C868 C869 1.385 . S
C869 H855 0.931 . S
C869 C868 1.385 . S
C869 C870 1.389 . S
C870 C869 1.389 . S
C870 C871 1.387 . S
C871 H856 0.930 . S
C871 C866 1.390 . S
C871 C870 1.387 . S
H872 C884 0.930 . S
H873 C886 0.930 . S
H874 C887 0.930 . S
H875 C891 0.959 . S
H876 C891 0.959 . S
H877 C891 0.961 . S
H878 C892 0.960 . S
H879 C892 0.961 . S
H880 C892 0.959 . S
H881 C895 0.929 . S
H882 C896 0.931 1_455 S
H883 C898 0.930 . S
C884 H872 0.930 . S
C884 C885 1.399 . S
C884 C889 1.399 . S
C885 C884 1.399 . S
C885 C886 1.376 . S
C886 H873 0.930 . S
C886 C885 1.376 . S
C886 C887 1.388 . S
C887 H874 0.930 . S
C887 C886 1.388 . S
C887 C888 1.390 . S
C888 C887 1.390 . S
C888 C889 1.394 . S
C888 C894 1.465 . S
C889 C884 1.399 . S
C889 C888 1.394 . S
C889 C890 1.516 . S
C890 C889 1.516 . S
C890 C891 1.502 . S
C890 C892 1.561 . S
C890 C893 1.526 . S
C891 H875 0.959 . S
C891 H876 0.959 . S
C891 H877 0.961 . S
C891 C890 1.502 . S
C892 H878 0.960 . S
C892 H879 0.961 . S
C892 H880 0.959 . S
C892 C890 1.561 . S
C893 C890 1.526 . S
C893 C894 1.396 . S
C893 C898 1.390 . S
C894 C888 1.465 . S
C894 C893 1.396 . S
C894 C895 1.399 . S
C895 H881 0.929 . S
C895 C894 1.399 . S
C895 C896 1.385 . S
C896 H882 0.931 1_655 S
C896 C895 1.385 . S
C896 C897 1.389 . S
C897 C896 1.389 . S
C897 C898 1.387 . S
C898 H883 0.930 . S
C898 C893 1.390 . S
C898 C897 1.387 . S
H899 C911 0.930 . S
H900 C913 0.930 . S
H901 C914 0.930 . S
H902 C918 0.959 . S
H903 C918 0.959 . S
H904 C918 0.961 . S
H905 C919 0.960 . S
H906 C919 0.961 . S
H907 C919 0.959 . S
H908 C922 0.929 . S
H909 C923 0.931 . S
H910 C925 0.930 . S
C911 H899 0.930 . S
C911 C912 1.399 . S
C911 C916 1.399 . S
C912 C911 1.399 . S
C912 C913 1.376 . S
C913 H900 0.930 . S
C913 C912 1.376 . S
C913 C914 1.388 . S
C914 H901 0.930 . S
C914 C913 1.388 . S
C914 C915 1.390 . S
C915 C914 1.390 . S
C915 C916 1.394 . S
C915 C921 1.465 . S
C916 C911 1.399 . S
C916 C915 1.394 . S
C916 C917 1.516 . S
C917 C916 1.516 . S
C917 C918 1.502 . S
C917 C919 1.561 . S
C917 C920 1.526 . S
C918 H902 0.959 . S
C918 H903 0.959 . S
C918 H904 0.961 . S
C918 C917 1.502 . S
C919 H905 0.960 . S
C919 H906 0.961 . S
C919 H907 0.959 . S
C919 C917 1.561 . S
C920 C917 1.526 . S
C920 C921 1.396 . S
C920 C925 1.390 . S
C921 C915 1.465 . S
C921 C920 1.396 . S
C921 C922 1.399 . S
C922 H908 0.929 . S
C922 C921 1.399 . S
C922 C923 1.385 . S
C923 H909 0.931 . S
C923 C922 1.385 . S
C923 C924 1.389 . S
C924 C923 1.389 . S
C924 C925 1.387 . S
C925 H910 0.930 . S
C925 C920 1.390 . S
C925 C924 1.387 . S
H926 C938 0.930 . S
H927 C940 0.930 . S
H928 C941 0.930 . S
H929 C945 0.959 . S
H930 C945 0.959 . S
H931 C945 0.961 . S
H932 C946 0.960 . S
H933 C946 0.961 . S
H934 C946 0.959 . S
H935 C949 0.929 . S
H936 C950 0.931 . S
H937 C952 0.930 1_565 S
C938 H926 0.930 . S
C938 C939 1.399 1_565 S
C938 C943 1.393 1_565 S
C939 C938 1.399 1_545 S
C939 C940 1.376 . S
C940 H927 0.930 . S
C940 C939 1.376 . S
C940 C941 1.388 . S
C941 H928 0.930 . S
C941 C940 1.388 . S
C941 C942 1.390 . S
C942 C941 1.390 . S
C942 C943 1.407 . S
C942 C948 1.465 . S
C943 C938 1.393 1_545 S
C943 C942 1.407 . S
C943 C944 1.511 1_545 S
C944 C943 1.511 1_565 S
C944 C945 1.502 . S
C944 C946 1.561 . S
C944 C947 1.526 1_565 S
C945 H929 0.959 . S
C945 H930 0.959 . S
C945 H931 0.961 . S
C945 C944 1.502 . S
C946 H932 0.960 . S
C946 H933 0.961 . S
C946 H934 0.959 . S
C946 C944 1.561 . S
C947 C944 1.526 1_545 S
C947 C948 1.396 . S
C947 C952 1.390 . S
C948 C942 1.465 . S
C948 C947 1.396 . S
C948 C949 1.399 . S
C949 H935 0.929 . S
C949 C948 1.399 . S
C949 C950 1.385 . S
C950 H936 0.931 . S
C950 C949 1.385 . S
C950 C951 1.389 . S
C951 C950 1.389 . S
C951 C952 1.387 . S
C952 H937 0.930 1_545 S
C952 C947 1.390 . S
C952 C951 1.387 . S
H953 C965 0.930 . S
H954 C967 0.930 . S
H955 C968 0.930 . S
H956 C972 0.959 . S
H957 C972 0.959 . S
H958 C972 0.961 . S
H959 C973 0.960 . S
H960 C973 0.961 . S
H961 C973 0.959 . S
H962 C976 0.929 . S
H963 C977 0.931 . S
H964 C979 0.930 . S
C965 H953 0.930 . S
C965 C966 1.399 . S
C965 C970 1.399 . S
C966 C965 1.399 . S
C966 C967 1.376 . S
C967 H954 0.930 . S
C967 C966 1.376 . S
C967 C968 1.388 . S
C968 H955 0.930 . S
C968 C967 1.388 . S
C968 C969 1.390 . S
C969 C968 1.390 . S
C969 C970 1.394 . S
C969 C975 1.465 . S
C970 C965 1.399 . S
C970 C969 1.394 . S
C970 C971 1.516 . S
C971 C970 1.516 . S
C971 C972 1.502 . S
C971 C973 1.561 . S
C971 C974 1.526 . S
C972 H956 0.959 . S
C972 H957 0.959 . S
C972 H958 0.961 . S
C972 C971 1.502 . S
C973 H959 0.960 . S
C973 H960 0.961 . S
C973 H961 0.959 . S
C973 C971 1.561 . S
C974 C971 1.526 . S
C974 C975 1.396 . S
C974 C979 1.390 . S
C975 C969 1.465 . S
C975 C974 1.396 . S
C975 C976 1.399 . S
C976 H962 0.929 . S
C976 C975 1.399 . S
C976 C977 1.385 . S
C977 H963 0.931 . S
C977 C976 1.385 . S
C977 C978 1.389 . S
C978 C977 1.389 . S
C978 C979 1.387 . S
C979 H964 0.930 . S
C979 C974 1.390 . S
C979 C978 1.387 . S
H980 C992 0.930 . S
H981 C994 0.930 . S
H982 C995 0.930 . S
H983 C999 0.952 1_655 S
H984 C999 0.979 . S
H985 C999 0.966 . S
H986 C1000 0.960 . S
H987 C1000 0.961 . S
H988 C1000 0.959 1_655 S
H989 C1003 0.929 . S
H990 C1004 0.931 . S
H991 C1006 0.930 1_455 S
C992 H980 0.930 . S
C992 C993 1.399 . S
C992 C997 1.399 . S
C993 C992 1.399 . S
C993 C994 1.376 . S
C994 H981 0.930 . S
C994 C993 1.376 . S
C994 C995 1.388 . S
C995 H982 0.930 . S
C995 C994 1.388 . S
C995 C996 1.390 . S
C996 C995 1.390 . S
C996 C997 1.394 . S
C996 C1002 1.465 . S
C997 C992 1.399 . S
C997 C996 1.394 . S
C997 C998 1.516 . S
C998 C997 1.516 . S
C998 C999 1.485 1_655 S
C998 C1000 1.561 1_655 S
C998 C1001 1.526 . S
C999 H983 0.952 1_455 S
C999 H984 0.979 . S
C999 H985 0.966 . S
C999 C998 1.485 1_455 S
C1000 H986 0.960 . S
C1000 H987 0.961 . S
C1000 H988 0.959 1_455 S
C1000 C998 1.561 1_455 S
C1001 C998 1.526 . S
C1001 C1002 1.396 . S
C1001 C1006 1.390 . S
C1002 C996 1.465 . S
C1002 C1001 1.396 . S
C1002 C1003 1.399 . S
C1003 H989 0.929 . S
C1003 C1002 1.399 . S
C1003 C1004 1.385 . S
C1004 H990 0.931 . S
C1004 C1003 1.385 . S
C1004 C1005 1.389 . S
C1005 C1004 1.389 . S
C1005 C1006 1.387 . S
C1006 H991 0.930 1_655 S
C1006 C1001 1.390 . S
C1006 C1005 1.387 . S
H1007 C1019 0.930 . S
H1008 C1021 0.930 . S
H1009 C1022 0.930 . S
H1010 C1026 0.959 . S
H1011 C1026 0.959 . S
H1012 C1026 0.961 . S
H1013 C1027 0.960 . S
H1014 C1027 0.961 . S
H1015 C1027 0.959 . S
H1016 C1030 0.929 . S
H1017 C1031 0.931 . S
H1018 C1033 0.930 . S
C1019 H1007 0.930 . S
C1019 C1020 1.399 . S
C1019 C1024 1.399 . S
C1020 C1019 1.399 . S
C1020 C1021 1.376 . S
C1021 H1008 0.930 . S
C1021 C1020 1.376 . S
C1021 C1022 1.388 . S
C1022 H1009 0.930 . S
C1022 C1021 1.388 . S
C1022 C1023 1.390 . S
C1023 C1022 1.390 . S
C1023 C1024 1.394 . S
C1023 C1029 1.465 . S
C1024 C1019 1.399 . S
C1024 C1023 1.394 . S
C1024 C1025 1.516 . S
C1025 C1024 1.516 . S
C1025 C1026 1.502 . S
C1025 C1027 1.561 . S
C1025 C1028 1.526 . S
C1026 H1010 0.959 . S
C1026 H1011 0.959 . S
C1026 H1012 0.961 . S
C1026 C1025 1.502 . S
C1027 H1013 0.960 . S
C1027 H1014 0.961 . S
C1027 H1015 0.959 . S
C1027 C1025 1.561 . S
C1028 C1025 1.526 . S
C1028 C1029 1.396 . S
C1028 C1033 1.390 . S
C1029 C1023 1.465 . S
C1029 C1028 1.396 . S
C1029 C1030 1.399 . S
C1030 H1016 0.929 . S
C1030 C1029 1.399 . S
C1030 C1031 1.385 . S
C1031 H1017 0.931 . S
C1031 C1030 1.385 . S
C1031 C1032 1.389 . S
C1032 C1031 1.389 . S
C1032 C1033 1.387 . S
C1033 H1018 0.930 . S
C1033 C1028 1.390 . S
C1033 C1032 1.387 . S
H1034 C1046 0.930 . S
H1035 C1048 0.930 . S
H1036 C1049 0.930 . S
H1037 C1053 0.959 . S
H1038 C1053 0.959 . S
H1039 C1053 0.961 . S
H1040 C1054 0.960 . S
H1041 C1054 0.961 . S
H1042 C1054 0.959 . S
H1043 C1057 0.929 1_565 S
H1044 C1058 0.956 . S
H1045 C1060 0.930 . S
C1046 H1034 0.930 . S
C1046 C1047 1.399 . S
C1046 C1051 1.399 . S
C1047 C1046 1.399 . S
C1047 C1048 1.376 1_545 S
C1048 H1035 0.930 . S
C1048 C1047 1.376 1_565 S
C1048 C1049 1.388 . S
C1049 H1036 0.930 . S
C1049 C1048 1.388 . S
C1049 C1050 1.390 1_565 S
C1050 C1049 1.390 1_545 S
C1050 C1051 1.394 . S
C1050 C1056 1.465 . S
C1051 C1046 1.399 . S
C1051 C1050 1.394 . S
C1051 C1052 1.516 . S
C1052 C1051 1.516 . S
C1052 C1053 1.502 . S
C1052 C1054 1.561 . S
C1052 C1055 1.526 . S
C1053 H1037 0.959 . S
C1053 H1038 0.959 . S
C1053 H1039 0.961 . S
C1053 C1052 1.502 . S
C1054 H1040 0.960 . S
C1054 H1041 0.961 . S
C1054 H1042 0.959 . S
C1054 C1052 1.561 . S
C1055 C1052 1.526 . S
C1055 C1056 1.396 . S
C1055 C1060 1.390 . S
C1056 C1050 1.465 . S
C1056 C1055 1.396 . S
C1056 C1057 1.399 . S
C1057 H1043 0.929 1_545 S
C1057 C1056 1.399 . S
C1057 C1058 1.385 . S
C1058 H1044 0.956 . S
C1058 C1057 1.385 . S
C1058 C1059 1.389 . S
C1059 C1058 1.389 . S
C1059 C1060 1.387 . S
C1060 H1045 0.930 . S
C1060 C1055 1.390 . S
C1060 C1059 1.387 . S
H1061 C1073 0.930 . S
H1062 C1075 0.930 . S
H1063 C1076 0.930 . S
H1064 C1080 0.959 . S
H1065 C1080 0.959 . S
H1066 C1080 0.961 . S
H1067 C1081 0.960 . S
H1068 C1081 0.961 . S
H1069 C1081 0.959 . S
H1070 C1084 0.929 . S
H1071 C1085 0.931 . S
H1072 C1087 0.930 . S
C1073 H1061 0.930 . S
C1073 C1074 1.399 . S
C1073 C1078 1.399 . S
C1074 C1073 1.399 . S
C1074 C1075 1.376 . S
C1075 H1062 0.930 . S
C1075 C1074 1.376 . S
C1075 C1076 1.388 . S
C1076 H1063 0.930 . S
C1076 C1075 1.388 . S
C1076 C1077 1.390 . S
C1077 C1076 1.390 . S
C1077 C1078 1.394 . S
C1077 C1083 1.465 . S
C1078 C1073 1.399 . S
C1078 C1077 1.394 . S
C1078 C1079 1.516 . S
C1079 C1078 1.516 . S
C1079 C1080 1.502 . S
C1079 C1081 1.561 . S
C1079 C1082 1.526 . S
C1080 H1064 0.959 . S
C1080 H1065 0.959 . S
C1080 H1066 0.961 . S
C1080 C1079 1.502 . S
C1081 H1067 0.960 . S
C1081 H1068 0.961 . S
C1081 H1069 0.959 . S
C1081 C1079 1.561 . S
C1082 C1079 1.526 . S
C1082 C1083 1.396 . S
C1082 C1087 1.390 . S
C1083 C1077 1.465 . S
C1083 C1082 1.396 . S
C1083 C1084 1.399 . S
C1084 H1070 0.929 . S
C1084 C1083 1.399 . S
C1084 C1085 1.385 . S
C1085 H1071 0.931 . S
C1085 C1084 1.385 . S
C1085 C1086 1.389 . S
C1086 C1085 1.389 . S
C1086 C1087 1.387 . S
C1087 H1072 0.930 . S
C1087 C1082 1.390 . S
C1087 C1086 1.387 . S
H1088 C1100 0.930 . S
H1089 C1102 0.930 . S
H1090 C1103 0.930 . S
H1091 C1107 0.959 . S
H1092 C1107 0.959 1_556 S
H1093 C1107 0.951 1_556 S
H1094 C1108 0.960 . S
H1095 C1108 0.961 . S
H1096 C1108 0.959 . S
H1097 C1111 0.929 . S
H1098 C1112 0.931 . S
H1099 C1114 0.930 . S
C1100 H1088 0.930 . S
C1100 C1101 1.399 . S
C1100 C1105 1.399 . S
C1101 C1100 1.399 . S
C1101 C1102 1.376 . S
C1102 H1089 0.930 . S
C1102 C1101 1.376 . S
C1102 C1103 1.388 . S
C1103 H1090 0.930 . S
C1103 C1102 1.388 . S
C1103 C1104 1.390 . S
C1104 C1103 1.390 . S
C1104 C1105 1.394 . S
C1104 C1110 1.465 . S
C1105 C1100 1.399 . S
C1105 C1104 1.394 . S
C1105 C1106 1.516 . S
C1106 C1105 1.516 . S
C1106 C1107 1.502 1_565 S
C1106 C1108 1.561 1_554 S
C1106 C1109 1.526 . S
C1107 H1091 0.959 . S
C1107 H1092 0.959 1_554 S
C1107 H1093 0.951 1_554 S
C1107 C1106 1.502 1_545 S
C1108 H1094 0.960 . S
C1108 H1095 0.961 . S
C1108 H1096 0.959 . S
C1108 C1106 1.561 1_556 S
C1109 C1106 1.526 . S
C1109 C1110 1.396 . S
C1109 C1114 1.390 1_565 S
C1110 C1104 1.465 . S
C1110 C1109 1.396 . S
C1110 C1111 1.399 . S
C1111 H1097 0.929 . S
C1111 C1110 1.399 . S
C1111 C1112 1.385 . S
C1112 H1098 0.931 . S
C1112 C1111 1.385 . S
C1112 C1113 1.389 1_565 S
C1113 C1112 1.389 1_545 S
C1113 C1114 1.387 . S
C1114 H1099 0.930 . S
C1114 C1109 1.390 1_545 S
C1114 C1113 1.387 . S
H1115 C1127 0.930 . S
H1116 C1129 0.930 . S
H1117 C1130 0.930 . S
H1118 C1134 0.959 . S
H1119 C1134 0.959 . S
H1120 C1134 0.961 . S
H1121 C1135 0.960 . S
H1122 C1135 0.961 . S
H1123 C1135 0.959 . S
H1124 C1138 0.929 . S
H1125 C1139 0.931 . S
H1126 C1141 0.930 . S
C1127 H1115 0.930 . S
C1127 C1128 1.399 . S
C1127 C1132 1.399 . S
C1128 C1127 1.399 . S
C1128 C1129 1.376 1_556 S
C1129 H1116 0.930 . S
C1129 C1128 1.376 1_554 S
C1129 C1130 1.388 . S
C1130 H1117 0.930 . S
C1130 C1129 1.388 . S
C1130 C1131 1.390 . S
C1131 C1130 1.390 . S
C1131 C1132 1.394 1_554 S
C1131 C1137 1.465 . S
C1132 C1127 1.399 . S
C1132 C1131 1.394 1_556 S
C1132 C1133 1.516 . S
C1133 C1132 1.516 . S
C1133 C1134 1.502 . S
C1133 C1135 1.561 . S
C1133 C1136 1.526 . S
C1134 H1118 0.959 . S
C1134 H1119 0.959 . S
C1134 H1120 0.961 . S
C1134 C1133 1.502 . S
C1135 H1121 0.960 . S
C1135 H1122 0.961 . S
C1135 H1123 0.959 . S
C1135 C1133 1.561 . S
C1136 C1133 1.526 . S
C1136 C1137 1.396 1_556 S
C1136 C1141 1.390 . S
C1137 C1131 1.465 . S
C1137 C1136 1.396 1_554 S
C1137 C1138 1.399 . S
C1138 H1124 0.929 . S
C1138 C1137 1.399 . S
C1138 C1139 1.385 . S
C1139 H1125 0.931 . S
C1139 C1138 1.385 . S
C1139 C1140 1.418 . S
C1140 C1139 1.418 . S
C1140 C1141 1.357 1_554 S
C1141 H1126 0.930 . S
C1141 C1136 1.390 . S
C1141 C1140 1.357 1_556 S
H1142 C1154 0.930 . S
H1143 C1156 0.930 . S
H1144 C1157 0.930 . S
H1145 C1161 0.959 . S
H1146 C1161 0.959 . S
H1147 C1161 0.961 . S
H1148 C1162 0.960 . S
H1149 C1162 0.961 . S
H1150 C1162 0.959 . S
H1151 C1165 0.929 . S
H1152 C1166 0.931 . S
H1153 C1168 0.930 . S
C1154 H1142 0.930 . S
C1154 C1155 1.399 . S
C1154 C1159 1.399 . S
C1155 C1154 1.399 . S
C1155 C1156 1.376 . S
C1156 H1143 0.930 . S
C1156 C1155 1.376 . S
C1156 C1157 1.388 . S
C1157 H1144 0.930 . S
C1157 C1156 1.388 . S
C1157 C1158 1.390 . S
C1158 C1157 1.390 . S
C1158 C1159 1.394 . S
C1158 C1164 1.465 . S
C1159 C1154 1.399 . S
C1159 C1158 1.394 . S
C1159 C1160 1.516 . S
C1160 C1159 1.516 . S
C1160 C1161 1.502 . S
C1160 C1162 1.561 . S
C1160 C1163 1.526 . S
C1161 H1145 0.959 . S
C1161 H1146 0.959 . S
C1161 H1147 0.961 . S
C1161 C1160 1.502 . S
C1162 H1148 0.960 . S
C1162 H1149 0.961 . S
C1162 H1150 0.959 . S
C1162 C1160 1.561 . S
C1163 C1160 1.526 . S
C1163 C1164 1.396 . S
C1163 C1168 1.390 . S
C1164 C1158 1.465 . S
C1164 C1163 1.396 . S
C1164 C1165 1.399 . S
C1165 H1151 0.929 . S
C1165 C1164 1.399 . S
C1165 C1166 1.385 . S
C1166 H1152 0.931 . S
C1166 C1165 1.385 . S
C1166 C1167 1.389 . S
C1167 C1166 1.389 . S
C1167 C1168 1.387 . S
C1168 H1153 0.930 . S
C1168 C1163 1.390 . S
C1168 C1167 1.387 . S
H1169 C1181 0.930 . S
H1170 C1183 0.930 . S
H1171 C1184 0.930 . S
H1172 C1188 0.959 . S
H1173 C1188 0.959 . S
H1174 C1188 0.961 . S
H1175 C1189 0.960 . S
H1176 C1189 0.961 . S
H1177 C1189 0.959 . S
H1178 C1192 0.929 . S
H1179 C1193 0.931 . S
H1180 C1195 0.930 . S
C1181 H1169 0.930 . S
C1181 C1182 1.399 . S
C1181 C1186 1.399 . S
C1182 C1181 1.399 . S
C1182 C1183 1.376 . S
C1183 H1170 0.930 . S
C1183 C1182 1.376 . S
C1183 C1184 1.388 . S
C1184 H1171 0.930 . S
C1184 C1183 1.388 . S
C1184 C1185 1.390 . S
C1185 C1184 1.390 . S
C1185 C1186 1.394 . S
C1185 C1191 1.465 . S
C1186 C1181 1.399 . S
C1186 C1185 1.394 . S
C1186 C1187 1.516 . S
C1187 C1186 1.516 . S
C1187 C1188 1.502 . S
C1187 C1189 1.561 . S
C1187 C1190 1.526 . S
C1188 H1172 0.959 . S
C1188 H1173 0.959 . S
C1188 H1174 0.961 . S
C1188 C1187 1.502 . S
C1189 H1175 0.960 . S
C1189 H1176 0.961 . S
C1189 H1177 0.959 . S
C1189 C1187 1.561 . S
C1190 C1187 1.526 . S
C1190 C1191 1.396 . S
C1190 C1195 1.390 . S
C1191 C1185 1.465 . S
C1191 C1190 1.396 . S
C1191 C1192 1.399 . S
C1192 H1178 0.929 . S
C1192 C1191 1.399 . S
C1192 C1193 1.385 . S
C1193 H1179 0.931 . S
C1193 C1192 1.385 . S
C1193 C1194 1.389 . S
C1194 C1193 1.389 . S
C1194 C1195 1.387 . S
C1195 H1180 0.930 . S
C1195 C1190 1.390 . S
C1195 C1194 1.387 . S
H1196 C1208 0.930 . S
H1197 C1210 0.930 . S
H1198 C1211 0.930 . S
H1199 C1215 0.959 . S
H1200 C1215 0.959 . S
H1201 C1215 0.961 . S
H1202 C1216 0.960 . S
H1203 C1216 0.961 . S
H1204 C1216 0.959 . S
H1205 C1219 0.929 . S
H1206 C1220 0.931 . S
H1207 C1222 0.930 . S
C1208 H1196 0.930 . S
C1208 C1209 1.399 . S
C1208 C1213 1.399 . S
C1209 C1208 1.399 . S
C1209 C1210 1.376 . S
C1210 H1197 0.930 . S
C1210 C1209 1.376 . S
C1210 C1211 1.388 . S
C1211 H1198 0.930 . S
C1211 C1210 1.388 . S
C1211 C1212 1.390 . S
C1212 C1211 1.390 . S
C1212 C1213 1.394 . S
C1212 C1218 1.465 . S
C1213 C1208 1.399 . S
C1213 C1212 1.394 . S
C1213 C1214 1.516 . S
C1214 C1213 1.516 . S
C1214 C1215 1.502 . S
C1214 C1216 1.561 . S
C1214 C1217 1.526 . S
C1215 H1199 0.959 . S
C1215 H1200 0.959 . S
C1215 H1201 0.961 . S
C1215 C1214 1.502 . S
C1216 H1202 0.960 . S
C1216 H1203 0.961 . S
C1216 H1204 0.959 . S
C1216 C1214 1.561 . S
C1217 C1214 1.526 . S
C1217 C1218 1.396 . S
C1217 C1222 1.390 . S
C1218 C1212 1.465 . S
C1218 C1217 1.396 . S
C1218 C1219 1.399 . S
C1219 H1205 0.929 . S
C1219 C1218 1.399 . S
C1219 C1220 1.385 . S
C1220 H1206 0.931 . S
C1220 C1219 1.385 . S
C1220 C1221 1.389 . S
C1221 C1220 1.389 . S
C1221 C1222 1.387 . S
C1222 H1207 0.930 . S
C1222 C1217 1.390 . S
C1222 C1221 1.387 . S
H1223 C1235 0.930 . S
H1224 C1237 0.930 . S
H1225 C1238 0.930 . S
H1226 C1242 0.959 . S
H1227 C1242 0.959 . S
H1228 C1242 0.961 . S
H1229 C1243 0.960 . S
H1230 C1243 0.961 . S
H1231 C1243 0.959 . S
H1232 C1246 0.929 . S
H1233 C1247 0.931 . S
H1234 C1249 0.930 . S
C1235 H1223 0.930 . S
C1235 C1236 1.399 . S
C1235 C1240 1.399 . S
C1236 C1235 1.399 . S
C1236 C1237 1.376 . S
C1237 H1224 0.930 . S
C1237 C1236 1.376 . S
C1237 C1238 1.388 . S
C1238 H1225 0.930 . S
C1238 C1237 1.388 . S
C1238 C1239 1.390 . S
C1239 C1238 1.390 . S
C1239 C1240 1.394 . S
C1239 C1245 1.465 . S
C1240 C1235 1.399 . S
C1240 C1239 1.394 . S
C1240 C1241 1.516 . S
C1241 C1240 1.516 . S
C1241 C1242 1.502 . S
C1241 C1243 1.561 . S
C1241 C1244 1.526 . S
C1242 H1226 0.959 . S
C1242 H1227 0.959 . S
C1242 H1228 0.961 . S
C1242 C1241 1.502 . S
C1243 H1229 0.960 . S
C1243 H1230 0.961 . S
C1243 H1231 0.959 . S
C1243 C1241 1.561 . S
C1244 C1241 1.526 . S
C1244 C1245 1.396 . S
C1244 C1249 1.390 . S
C1245 C1239 1.465 . S
C1245 C1244 1.396 . S
C1245 C1246 1.399 . S
C1246 H1232 0.929 . S
C1246 C1245 1.399 . S
C1246 C1247 1.385 . S
C1247 H1233 0.931 . S
C1247 C1246 1.385 . S
C1247 C1248 1.389 . S
C1248 C1247 1.389 . S
C1248 C1249 1.387 . S
C1249 H1234 0.930 . S
C1249 C1244 1.390 . S
C1249 C1248 1.387 . S
H1250 C1262 0.930 . S
H1251 C1264 0.930 . S
H1252 C1265 0.930 . S
H1253 C1269 0.959 . S
H1254 C1269 0.959 . S
H1255 C1269 0.961 . S
H1256 C1270 0.960 . S
H1257 C1270 0.961 . S
H1258 C1270 0.959 . S
H1259 C1273 0.929 . S
H1260 C1274 0.931 . S
H1261 C1276 0.930 . S
C1262 H1250 0.930 . S
C1262 C1263 1.399 . S
C1262 C1267 1.399 . S
C1263 C1262 1.399 . S
C1263 C1264 1.376 . S
C1264 H1251 0.930 . S
C1264 C1263 1.376 . S
C1264 C1265 1.388 . S
C1265 H1252 0.930 . S
C1265 C1264 1.388 . S
C1265 C1266 1.390 . S
C1266 C1265 1.390 . S
C1266 C1267 1.394 . S
C1266 C1272 1.465 . S
C1267 C1262 1.399 . S
C1267 C1266 1.394 . S
C1267 C1268 1.516 . S
C1268 C1267 1.516 . S
C1268 C1269 1.502 . S
C1268 C1270 1.561 . S
C1268 C1271 1.526 . S
C1269 H1253 0.959 . S
C1269 H1254 0.959 . S
C1269 H1255 0.961 . S
C1269 C1268 1.502 . S
C1270 H1256 0.960 . S
C1270 H1257 0.961 . S
C1270 H1258 0.959 . S
C1270 C1268 1.561 . S
C1271 C1268 1.526 . S
C1271 C1272 1.396 . S
C1271 C1276 1.390 . S
C1272 C1266 1.465 . S
C1272 C1271 1.396 . S
C1272 C1273 1.399 . S
C1273 H1259 0.929 . S
C1273 C1272 1.399 . S
C1273 C1274 1.385 . S
C1274 H1260 0.931 . S
C1274 C1273 1.385 . S
C1274 C1275 1.389 . S
C1275 C1274 1.389 . S
C1275 C1276 1.387 . S
C1276 H1261 0.930 . S
C1276 C1271 1.390 . S
C1276 C1275 1.387 . S
H1277 C1289 0.930 . S
H1278 C1291 0.930 . S
H1279 C1292 0.930 . S
H1280 C1296 0.959 . S
H1281 C1296 0.959 . S
H1282 C1296 0.961 . S
H1283 C1297 0.960 . S
H1284 C1297 0.961 . S
H1285 C1297 0.959 . S
H1286 C1300 0.929 . S
H1287 C1301 0.931 . S
H1288 C1303 0.930 . S
C1289 H1277 0.930 . S
C1289 C1290 1.399 . S
C1289 C1294 1.399 . S
C1290 C1289 1.399 . S
C1290 C1291 1.376 . S
C1291 H1278 0.930 . S
C1291 C1290 1.376 . S
C1291 C1292 1.388 . S
C1292 H1279 0.930 . S
C1292 C1291 1.388 . S
C1292 C1293 1.390 . S
C1293 C1292 1.390 . S
C1293 C1294 1.394 . S
C1293 C1299 1.465 . S
C1294 C1289 1.399 . S
C1294 C1293 1.394 . S
C1294 C1295 1.516 . S
C1295 C1294 1.516 . S
C1295 C1296 1.502 . S
C1295 C1297 1.561 . S
C1295 C1298 1.526 . S
C1296 H1280 0.959 . S
C1296 H1281 0.959 . S
C1296 H1282 0.961 . S
C1296 C1295 1.502 . S
C1297 H1283 0.960 . S
C1297 H1284 0.961 . S
C1297 H1285 0.959 . S
C1297 C1295 1.561 . S
C1298 C1295 1.526 . S
C1298 C1299 1.396 . S
C1298 C1303 1.390 . S
C1299 C1293 1.465 . S
C1299 C1298 1.396 . S
C1299 C1300 1.399 . S
C1300 H1286 0.929 . S
C1300 C1299 1.399 . S
C1300 C1301 1.385 . S
C1301 H1287 0.931 . S
C1301 C1300 1.385 . S
C1301 C1302 1.389 . S
C1302 C1301 1.389 . S
C1302 C1303 1.387 . S
C1303 H1288 0.930 . S
C1303 C1298 1.390 . S
C1303 C1302 1.387 . S
H1304 C1316 0.933 . S
H1305 C1318 0.930 . S
H1306 C1319 0.930 . S
H1307 C1323 0.959 . S
H1308 C1323 0.959 1_655 S
H1309 C1323 0.961 . S
H1310 C1324 0.960 . S
H1311 C1324 0.961 . S
H1312 C1324 0.959 . S
H1313 C1327 0.929 . S
H1314 C1328 0.931 . S
H1315 C1330 0.930 1_655 S
C1316 H1304 0.933 . S
C1316 C1317 1.399 . S
C1316 C1321 1.399 . S
C1317 C1316 1.399 . S
C1317 C1318 1.376 . S
C1318 H1305 0.930 . S
C1318 C1317 1.376 . S
C1318 C1319 1.388 . S
C1319 H1306 0.930 . S
C1319 C1318 1.388 . S
C1319 C1320 1.390 . S
C1320 C1319 1.390 . S
C1320 C1321 1.394 . S
C1320 C1326 1.465 . S
C1321 C1316 1.399 . S
C1321 C1320 1.394 . S
C1321 C1322 1.516 1_455 S
C1322 C1321 1.516 1_655 S
C1322 C1323 1.502 1_655 S
C1322 C1324 1.561 . S
C1322 C1325 1.526 1_655 S
C1323 H1307 0.959 . S
C1323 H1308 0.959 1_455 S
C1323 H1309 0.961 . S
C1323 C1322 1.502 1_455 S
C1324 H1310 0.960 . S
C1324 H1311 0.961 . S
C1324 H1312 0.959 . S
C1324 C1322 1.561 . S
C1325 C1322 1.526 1_455 S
C1325 C1326 1.396 . S
C1325 C1330 1.390 . S
C1326 C1320 1.465 . S
C1326 C1325 1.396 . S
C1326 C1327 1.399 . S
C1327 H1313 0.929 . S
C1327 C1326 1.399 . S
C1327 C1328 1.385 . S
C1328 H1314 0.931 . S
C1328 C1327 1.385 . S
C1328 C1329 1.389 . S
C1329 C1328 1.389 . S
C1329 C1330 1.387 . S
C1330 H1315 0.930 1_455 S
C1330 C1325 1.390 . S
C1330 C1329 1.387 . S
H1331 C1343 0.930 . S
H1332 C1345 0.930 . S
H1333 C1346 0.930 . S
H1334 C1350 0.959 . S
H1335 C1350 0.959 . S
H1336 C1350 0.961 . S
H1337 C1351 0.960 . S
H1338 C1351 0.961 . S
H1339 C1351 0.959 . S
H1340 C1354 0.929 . S
H1341 C1355 0.931 . S
H1342 C1357 0.930 . S
C1343 H1331 0.930 . S
C1343 C1344 1.399 . S
C1343 C1348 1.399 . S
C1344 C1343 1.399 . S
C1344 C1345 1.376 . S
C1345 H1332 0.930 . S
C1345 C1344 1.376 . S
C1345 C1346 1.388 . S
C1346 H1333 0.930 . S
C1346 C1345 1.388 . S
C1346 C1347 1.390 . S
C1347 C1346 1.390 . S
C1347 C1348 1.394 . S
C1347 C1353 1.465 . S
C1348 C1343 1.399 . S
C1348 C1347 1.394 . S
C1348 C1349 1.516 . S
C1349 C1348 1.516 . S
C1349 C1350 1.502 . S
C1349 C1351 1.561 . S
C1349 C1352 1.526 . S
C1350 H1334 0.959 . S
C1350 H1335 0.959 . S
C1350 H1336 0.961 . S
C1350 C1349 1.502 . S
C1351 H1337 0.960 . S
C1351 H1338 0.961 . S
C1351 H1339 0.959 . S
C1351 C1349 1.561 . S
C1352 C1349 1.526 . S
C1352 C1353 1.396 . S
C1352 C1357 1.390 . S
C1353 C1347 1.465 . S
C1353 C1352 1.396 . S
C1353 C1354 1.399 . S
C1354 H1340 0.929 . S
C1354 C1353 1.399 . S
C1354 C1355 1.385 . S
C1355 H1341 0.931 . S
C1355 C1354 1.385 . S
C1355 C1356 1.389 . S
C1356 C1355 1.389 . S
C1356 C1357 1.387 . S
C1357 H1342 0.930 . S
C1357 C1352 1.390 . S
C1357 C1356 1.387 . S
H1358 C1370 0.930 . S
H1359 C1372 0.930 . S
H1360 C1373 0.930 . S
H1361 C1377 0.959 . S
H1362 C1377 0.959 . S
H1363 C1377 0.961 . S
H1364 C1378 0.960 . S
H1365 C1378 0.961 . S
H1366 C1378 0.959 . S
H1367 C1381 0.929 . S
H1368 C1382 0.931 . S
H1369 C1384 0.930 . S
C1370 H1358 0.930 . S
C1370 C1371 1.399 . S
C1370 C1375 1.399 . S
C1371 C1370 1.399 . S
C1371 C1372 1.376 . S
C1372 H1359 0.930 . S
C1372 C1371 1.376 . S
C1372 C1373 1.388 . S
C1373 H1360 0.930 . S
C1373 C1372 1.388 . S
C1373 C1374 1.390 . S
C1374 C1373 1.390 . S
C1374 C1375 1.394 . S
C1374 C1380 1.465 . S
C1375 C1370 1.399 . S
C1375 C1374 1.394 . S
C1375 C1376 1.516 . S
C1376 C1375 1.516 . S
C1376 C1377 1.502 . S
C1376 C1378 1.561 . S
C1376 C1379 1.526 . S
C1377 H1361 0.959 . S
C1377 H1362 0.959 . S
C1377 H1363 0.961 . S
C1377 C1376 1.502 . S
C1378 H1364 0.960 . S
C1378 H1365 0.961 . S
C1378 H1366 0.959 . S
C1378 C1376 1.561 . S
C1379 C1376 1.526 . S
C1379 C1380 1.396 . S
C1379 C1384 1.390 . S
C1380 C1374 1.465 . S
C1380 C1379 1.396 . S
C1380 C1381 1.399 . S
C1381 H1367 0.929 . S
C1381 C1380 1.399 . S
C1381 C1382 1.385 . S
C1382 H1368 0.931 . S
C1382 C1381 1.385 . S
C1382 C1383 1.389 . S
C1383 C1382 1.389 . S
C1383 C1384 1.387 . S
C1384 H1369 0.930 . S
C1384 C1379 1.390 . S
C1384 C1383 1.387 . S
H1385 C1397 0.930 . S
H1386 C1399 0.930 . S
H1387 C1400 0.930 . S
H1388 C1404 0.959 . S
H1389 C1404 0.959 . S
H1390 C1404 0.961 . S
H1391 C1405 0.960 . S
H1392 C1405 0.961 . S
H1393 C1405 0.959 . S
H1394 C1408 0.929 . S
H1395 C1409 0.931 . S
H1396 C1411 0.930 . S
C1397 H1385 0.930 . S
C1397 C1398 1.399 . S
C1397 C1402 1.399 . S
C1398 C1397 1.399 . S
C1398 C1399 1.376 . S
C1399 H1386 0.930 . S
C1399 C1398 1.376 . S
C1399 C1400 1.388 . S
C1400 H1387 0.930 . S
C1400 C1399 1.388 . S
C1400 C1401 1.390 . S
C1401 C1400 1.390 . S
C1401 C1402 1.394 . S
C1401 C1407 1.465 . S
C1402 C1397 1.399 . S
C1402 C1401 1.394 . S
C1402 C1403 1.516 . S
C1403 C1402 1.516 . S
C1403 C1404 1.502 . S
C1403 C1405 1.561 . S
C1403 C1406 1.526 . S
C1404 H1388 0.959 . S
C1404 H1389 0.959 . S
C1404 H1390 0.961 . S
C1404 C1403 1.502 . S
C1405 H1391 0.960 . S
C1405 H1392 0.961 . S
C1405 H1393 0.959 . S
C1405 C1403 1.561 . S
C1406 C1403 1.526 . S
C1406 C1407 1.396 . S
C1406 C1411 1.390 . S
C1407 C1401 1.465 . S
C1407 C1406 1.396 . S
C1407 C1408 1.399 . S
C1408 H1394 0.929 . S
C1408 C1407 1.399 . S
C1408 C1409 1.385 . S
C1409 H1395 0.931 . S
C1409 C1408 1.385 . S
C1409 C1410 1.389 . S
C1410 C1409 1.389 . S
C1410 C1411 1.387 . S
C1411 H1396 0.930 . S
C1411 C1406 1.390 . S
C1411 C1410 1.387 . S
H1412 C1424 0.930 . S
H1413 C1426 0.930 . S
H1414 C1427 0.930 . S
H1415 C1431 0.959 . S
H1416 C1431 0.959 . S
H1417 C1431 0.961 . S
H1418 C1432 0.960 . S
H1419 C1432 0.961 . S
H1420 C1432 0.959 . S
H1421 C1435 0.929 . S
H1422 C1436 0.931 . S
H1423 C1438 0.930 1_655 S
C1424 H1412 0.930 . S
C1424 C1425 1.399 . S
C1424 C1429 1.399 . S
C1425 C1424 1.399 . S
C1425 C1426 1.376 . S
C1426 H1413 0.930 . S
C1426 C1425 1.376 . S
C1426 C1427 1.388 . S
C1427 H1414 0.930 . S
C1427 C1426 1.388 . S
C1427 C1428 1.390 . S
C1428 C1427 1.390 . S
C1428 C1429 1.394 . S
C1428 C1434 1.465 . S
C1429 C1424 1.399 . S
C1429 C1428 1.394 . S
C1429 C1430 1.516 . S
C1430 C1429 1.516 . S
C1430 C1431 1.502 1_455 S
C1430 C1432 1.561 . S
C1430 C1433 1.526 . S
C1431 H1415 0.959 . S
C1431 H1416 0.959 . S
C1431 H1417 0.961 . S
C1431 C1430 1.502 1_655 S
C1432 H1418 0.960 . S
C1432 H1419 0.961 . S
C1432 H1420 0.959 . S
C1432 C1430 1.561 . S
C1433 C1430 1.526 . S
C1433 C1434 1.396 . S
C1433 C1438 1.390 . S
C1434 C1428 1.465 . S
C1434 C1433 1.396 . S
C1434 C1435 1.399 . S
C1435 H1421 0.929 . S
C1435 C1434 1.399 . S
C1435 C1436 1.385 . S
C1436 H1422 0.931 . S
C1436 C1435 1.385 . S
C1436 C1437 1.389 . S
C1437 C1436 1.389 . S
C1437 C1438 1.387 . S
C1438 H1423 0.930 1_455 S
C1438 C1433 1.390 . S
C1438 C1437 1.387 . S
H1439 C1451 0.930 . S
H1440 C1453 0.930 . S
H1441 C1454 0.930 . S
H1442 C1458 0.959 . S
H1443 C1458 0.959 . S
H1444 C1458 0.961 . S
H1445 C1459 0.960 . S
H1446 C1459 0.961 . S
H1447 C1459 0.959 . S
H1448 C1462 0.929 . S
H1449 C1463 0.931 . S
H1450 C1465 0.930 . S
C1451 H1439 0.930 . S
C1451 C1452 1.399 . S
C1451 C1456 1.399 . S
C1452 C1451 1.399 . S
C1452 C1453 1.376 . S
C1453 H1440 0.930 . S
C1453 C1452 1.376 . S
C1453 C1454 1.388 . S
C1454 H1441 0.930 . S
C1454 C1453 1.388 . S
C1454 C1455 1.390 . S
C1455 C1454 1.390 . S
C1455 C1456 1.394 . S
C1455 C1461 1.465 . S
C1456 C1451 1.399 . S
C1456 C1455 1.394 . S
C1456 C1457 1.516 . S
C1457 C1456 1.516 . S
C1457 C1458 1.502 . S
C1457 C1459 1.561 . S
C1457 C1460 1.526 . S
C1458 H1442 0.959 . S
C1458 H1443 0.959 . S
C1458 H1444 0.961 . S
C1458 C1457 1.502 . S
C1459 H1445 0.960 . S
C1459 H1446 0.961 . S
C1459 H1447 0.959 . S
C1459 C1457 1.561 . S
C1460 C1457 1.526 . S
C1460 C1461 1.396 . S
C1460 C1465 1.390 . S
C1461 C1455 1.465 . S
C1461 C1460 1.396 . S
C1461 C1462 1.399 . S
C1462 H1448 0.929 . S
C1462 C1461 1.399 . S
C1462 C1463 1.385 . S
C1463 H1449 0.931 . S
C1463 C1462 1.385 . S
C1463 C1464 1.389 . S
C1464 C1463 1.389 . S
C1464 C1465 1.387 . S
C1465 H1450 0.930 . S
C1465 C1460 1.390 . S
C1465 C1464 1.387 . S
H1466 C1478 0.930 . S
H1467 C1480 0.930 . S
H1468 C1481 0.930 . S
H1469 C1485 0.959 . S
H1470 C1485 0.959 1_554 S
H1471 C1485 0.961 . S
H1472 C1486 0.963 . S
H1473 C1486 0.961 1_554 S
H1474 C1486 0.959 . S
H1475 C1489 0.929 . S
H1476 C1490 0.931 . S
H1477 C1492 0.930 1_554 S
C1478 H1466 0.930 . S
C1478 C1479 1.399 . S
C1478 C1483 1.399 . S
C1479 C1478 1.399 . S
C1479 C1480 1.376 . S
C1480 H1467 0.930 . S
C1480 C1479 1.376 . S
C1480 C1481 1.388 . S
C1481 H1468 0.930 . S
C1481 C1480 1.388 . S
C1481 C1482 1.390 . S
C1482 C1481 1.390 . S
C1482 C1483 1.394 . S
C1482 C1488 1.465 . S
C1483 C1478 1.399 . S
C1483 C1482 1.394 . S
C1483 C1484 1.516 . S
C1484 C1483 1.516 . S
C1484 C1485 1.502 . S
C1484 C1486 1.561 . S
C1484 C1487 1.526 . S
C1485 H1469 0.959 . S
C1485 H1470 0.959 1_556 S
C1485 H1471 0.961 . S
C1485 C1484 1.502 . S
C1486 H1472 0.963 . S
C1486 H1473 0.961 1_556 S
C1486 H1474 0.959 . S
C1486 C1484 1.561 . S
C1487 C1484 1.526 . S
C1487 C1488 1.396 . S
C1487 C1492 1.390 . S
C1488 C1482 1.465 . S
C1488 C1487 1.396 . S
C1488 C1489 1.399 . S
C1489 H1475 0.929 . S
C1489 C1488 1.399 . S
C1489 C1490 1.385 . S
C1490 H1476 0.931 . S
C1490 C1489 1.385 . S
C1490 C1491 1.389 . S
C1491 C1490 1.389 . S
C1491 C1492 1.387 . S
C1492 H1477 0.930 1_556 S
C1492 C1487 1.390 . S
C1492 C1491 1.387 . S
H1493 C1505 0.930 . S
H1494 C1507 0.930 . S
H1495 C1508 0.930 . S
H1496 C1512 0.959 . S
H1497 C1512 0.959 . S
H1498 C1512 0.961 . S
H1499 C1513 0.960 . S
H1500 C1513 0.961 . S
H1501 C1513 0.959 . S
H1502 C1516 0.929 . S
H1503 C1517 0.931 . S
H1504 C1519 0.930 . S
C1505 H1493 0.930 . S
C1505 C1506 1.399 . S
C1505 C1510 1.399 . S
C1506 C1505 1.399 . S
C1506 C1507 1.376 . S
C1507 H1494 0.930 . S
C1507 C1506 1.376 . S
C1507 C1508 1.388 . S
C1508 H1495 0.930 . S
C1508 C1507 1.388 . S
C1508 C1509 1.390 . S
C1509 C1508 1.390 . S
C1509 C1510 1.394 . S
C1509 C1515 1.465 . S
C1510 C1505 1.399 . S
C1510 C1509 1.394 . S
C1510 C1511 1.516 . S
C1511 C1510 1.516 . S
C1511 C1512 1.502 . S
C1511 C1513 1.561 . S
C1511 C1514 1.526 . S
C1512 H1496 0.959 . S
C1512 H1497 0.959 . S
C1512 H1498 0.961 . S
C1512 C1511 1.502 . S
C1513 H1499 0.960 . S
C1513 H1500 0.961 . S
C1513 H1501 0.959 . S
C1513 C1511 1.561 . S
C1514 C1511 1.526 . S
C1514 C1515 1.396 . S
C1514 C1519 1.390 . S
C1515 C1509 1.465 . S
C1515 C1514 1.396 . S
C1515 C1516 1.399 . S
C1516 H1502 0.929 . S
C1516 C1515 1.399 . S
C1516 C1517 1.385 . S
C1517 H1503 0.931 . S
C1517 C1516 1.385 . S
C1517 C1518 1.389 . S
C1518 C1517 1.389 . S
C1518 C1519 1.387 . S
C1519 H1504 0.930 . S
C1519 C1514 1.390 . S
C1519 C1518 1.387 . S
H1520 C1532 0.930 . S
H1521 C1534 0.930 . S
H1522 C1535 0.930 . S
H1523 C1539 0.959 . S
H1524 C1539 0.959 . S
H1525 C1539 0.961 . S
H1526 C1540 0.960 . S
H1527 C1540 0.961 . S
H1528 C1540 0.959 . S
H1529 C1543 0.929 . S
H1530 C1544 0.931 . S
H1531 C1546 0.930 . S
C1532 H1520 0.930 . S
C1532 C1533 1.399 . S
C1532 C1537 1.399 . S
C1533 C1532 1.399 . S
C1533 C1534 1.376 1_545 S
C1534 H1521 0.930 . S
C1534 C1533 1.376 1_565 S
C1534 C1535 1.388 . S
C1535 H1522 0.930 . S
C1535 C1534 1.388 . S
C1535 C1536 1.390 . S
C1536 C1535 1.390 . S
C1536 C1537 1.394 1_565 S
C1536 C1542 1.465 . S
C1537 C1532 1.399 . S
C1537 C1536 1.394 1_545 S
C1537 C1538 1.516 . S
C1538 C1537 1.516 . S
C1538 C1539 1.502 . S
C1538 C1540 1.561 . S
C1538 C1541 1.526 . S
C1539 H1523 0.959 . S
C1539 H1524 0.959 . S
C1539 H1525 0.961 . S
C1539 C1538 1.502 . S
C1540 H1526 0.960 . S
C1540 H1527 0.961 . S
C1540 H1528 0.959 . S
C1540 C1538 1.561 . S
C1541 C1538 1.526 . S
C1541 C1542 1.396 1_545 S
C1541 C1546 1.390 . S
C1542 C1536 1.465 . S
C1542 C1541 1.396 1_565 S
C1542 C1543 1.399 . S
C1543 H1529 0.929 . S
C1543 C1542 1.399 . S
C1543 C1544 1.385 . S
C1544 H1530 0.931 . S
C1544 C1543 1.385 . S
C1544 C1545 1.389 1_565 S
C1545 C1544 1.389 1_545 S
C1545 C1546 1.387 . S
C1546 H1531 0.930 . S
C1546 C1541 1.390 . S
C1546 C1545 1.387 . S
H1547 C1559 0.930 . S
H1548 C1561 0.930 . S
H1549 C1562 0.930 . S
H1550 C1566 0.959 . S
H1551 C1566 0.959 . S
H1552 C1566 0.961 . S
H1553 C1567 0.960 . S
H1554 C1567 0.961 . S
H1555 C1567 0.959 . S
H1556 C1570 0.929 . S
H1557 C1571 0.931 . S
H1558 C1573 0.930 . S
C1559 H1547 0.930 . S
C1559 C1560 1.399 . S
C1559 C1564 1.399 . S
C1560 C1559 1.399 . S
C1560 C1561 1.376 . S
C1561 H1548 0.930 . S
C1561 C1560 1.376 . S
C1561 C1562 1.388 . S
C1562 H1549 0.930 . S
C1562 C1561 1.388 . S
C1562 C1563 1.390 . S
C1563 C1562 1.390 . S
C1563 C1564 1.394 . S
C1563 C1569 1.465 . S
C1564 C1559 1.399 . S
C1564 C1563 1.394 . S
C1564 C1565 1.516 . S
C1565 C1564 1.516 . S
C1565 C1566 1.502 . S
C1565 C1567 1.561 . S
C1565 C1568 1.526 . S
C1566 H1550 0.959 . S
C1566 H1551 0.959 . S
C1566 H1552 0.961 . S
C1566 C1565 1.502 . S
C1567 H1553 0.960 . S
C1567 H1554 0.961 . S
C1567 H1555 0.959 . S
C1567 C1565 1.561 . S
C1568 C1565 1.526 . S
C1568 C1569 1.396 . S
C1568 C1573 1.390 . S
C1569 C1563 1.465 . S
C1569 C1568 1.396 . S
C1569 C1570 1.399 . S
C1570 H1556 0.929 . S
C1570 C1569 1.399 . S
C1570 C1571 1.385 . S
C1571 H1557 0.931 . S
C1571 C1570 1.385 . S
C1571 C1572 1.389 . S
C1572 C1571 1.389 . S
C1572 C1573 1.387 . S
C1573 H1558 0.930 . S
C1573 C1568 1.390 . S
C1573 C1572 1.387 . S
H1574 C1586 0.930 . S
H1575 C1588 0.930 . S
H1576 C1589 0.930 . S
H1577 C1593 0.959 1_545 S
H1578 C1593 0.959 . S
H1579 C1593 0.961 . S
H1580 C1594 0.960 . S
H1581 C1594 0.961 . S
H1582 C1594 0.959 . S
H1583 C1597 0.929 . S
H1584 C1598 0.931 . S
H1585 C1600 0.939 . S
C1586 H1574 0.930 . S
C1586 C1587 1.399 . S
C1586 C1591 1.399 . S
C1587 C1586 1.399 . S
C1587 C1588 1.376 . S
C1588 H1575 0.930 . S
C1588 C1587 1.376 . S
C1588 C1589 1.388 . S
C1589 H1576 0.930 . S
C1589 C1588 1.388 . S
C1589 C1590 1.390 . S
C1590 C1589 1.390 . S
C1590 C1591 1.394 . S
C1590 C1596 1.465 . S
C1591 C1586 1.399 . S
C1591 C1590 1.394 . S
C1591 C1592 1.516 . S
C1592 C1591 1.516 . S
C1592 C1593 1.502 1_545 S
C1592 C1594 1.561 1_545 S
C1592 C1595 1.526 . S
C1593 H1577 0.959 1_565 S
C1593 H1578 0.959 . S
C1593 H1579 0.961 . S
C1593 C1592 1.502 1_565 S
C1594 H1580 0.960 . S
C1594 H1581 0.961 . S
C1594 H1582 0.959 . S
C1594 C1592 1.561 1_565 S
C1595 C1592 1.526 . S
C1595 C1596 1.396 . S
C1595 C1600 1.390 . S
C1596 C1590 1.465 . S
C1596 C1595 1.396 . S
C1596 C1597 1.399 . S
C1597 H1583 0.929 . S
C1597 C1596 1.399 . S
C1597 C1598 1.385 . S
C1598 H1584 0.931 . S
C1598 C1597 1.385 . S
C1598 C1599 1.389 . S
C1599 C1598 1.389 . S
C1599 C1600 1.387 . S
C1600 H1585 0.939 . S
C1600 C1595 1.390 . S
C1600 C1599 1.387 . S
H1601 C1613 0.930 . S
H1602 C1615 0.930 . S
H1603 C1616 0.930 . S
H1604 C1620 0.959 . S
H1605 C1620 0.959 . S
H1606 C1620 0.961 . S
H1607 C1621 0.960 . S
H1608 C1621 0.961 . S
H1609 C1621 0.959 . S
H1610 C1624 0.929 . S
H1611 C1625 0.931 . S
H1612 C1627 0.930 . S
C1613 H1601 0.930 . S
C1613 C1614 1.399 . S
C1613 C1618 1.399 . S
C1614 C1613 1.399 . S
C1614 C1615 1.376 . S
C1615 H1602 0.930 . S
C1615 C1614 1.376 . S
C1615 C1616 1.388 . S
C1616 H1603 0.930 . S
C1616 C1615 1.388 . S
C1616 C1617 1.390 . S
C1617 C1616 1.390 . S
C1617 C1618 1.394 . S
C1617 C1623 1.465 . S
C1618 C1613 1.399 . S
C1618 C1617 1.394 . S
C1618 C1619 1.516 . S
C1619 C1618 1.516 . S
C1619 C1620 1.502 . S
C1619 C1621 1.561 . S
C1619 C1622 1.526 . S
C1620 H1604 0.959 . S
C1620 H1605 0.959 . S
C1620 H1606 0.961 . S
C1620 C1619 1.502 . S
C1621 H1607 0.960 . S
C1621 H1608 0.961 . S
C1621 H1609 0.959 . S
C1621 C1619 1.561 . S
C1622 C1619 1.526 . S
C1622 C1623 1.396 . S
C1622 C1627 1.390 . S
C1623 C1617 1.465 . S
C1623 C1622 1.396 . S
C1623 C1624 1.399 . S
C1624 H1610 0.929 . S
C1624 C1623 1.399 . S
C1624 C1625 1.385 . S
C1625 H1611 0.931 . S
C1625 C1624 1.385 . S
C1625 C1626 1.389 . S
C1626 C1625 1.389 . S
C1626 C1627 1.387 . S
C1627 H1612 0.930 . S
C1627 C1622 1.390 . S
C1627 C1626 1.387 . S
H1628 C1640 0.930 . S
H1629 C1642 0.930 . S
H1630 C1643 0.930 . S
H1631 C1647 0.959 . S
H1632 C1647 0.959 . S
H1633 C1647 0.961 . S
H1634 C1648 0.960 . S
H1635 C1648 0.961 . S
H1636 C1648 0.959 . S
H1637 C1651 0.929 . S
H1638 C1652 0.931 . S
H1639 C1654 0.930 . S
C1640 H1628 0.930 . S
C1640 C1641 1.399 1_545 S
C1640 C1645 1.399 . S
C1641 C1640 1.399 1_565 S
C1641 C1642 1.376 . S
C1642 H1629 0.930 . S
C1642 C1641 1.376 . S
C1642 C1643 1.388 . S
C1643 H1630 0.930 . S
C1643 C1642 1.388 . S
C1643 C1644 1.390 . S
C1644 C1643 1.390 . S
C1644 C1645 1.394 1_565 S
C1644 C1650 1.476 . S
C1645 C1640 1.399 . S
C1645 C1644 1.394 1_545 S
C1645 C1646 1.516 . S
C1646 C1645 1.516 . S
C1646 C1647 1.502 . S
C1646 C1648 1.561 . S
C1646 C1649 1.526 . S
C1647 H1631 0.959 . S
C1647 H1632 0.959 . S
C1647 H1633 0.961 . S
C1647 C1646 1.502 . S
C1648 H1634 0.960 . S
C1648 H1635 0.961 . S
C1648 H1636 0.959 . S
C1648 C1646 1.561 . S
C1649 C1646 1.526 . S
C1649 C1650 1.363 1_545 S
C1649 C1654 1.390 . S
C1650 C1644 1.476 . S
C1650 C1649 1.363 1_565 S
C1650 C1651 1.416 . S
C1651 H1637 0.929 . S
C1651 C1650 1.416 . S
C1651 C1652 1.385 . S
C1652 H1638 0.931 . S
C1652 C1651 1.385 . S
C1652 C1653 1.389 1_565 S
C1653 C1652 1.389 1_545 S
C1653 C1654 1.387 . S
C1654 H1639 0.930 . S
C1654 C1649 1.390 . S
C1654 C1653 1.387 . S
H1655 C1667 0.930 . S
H1656 C1669 0.930 . S
H1657 C1670 0.930 . S
H1658 C1674 0.959 . S
H1659 C1674 0.959 . S
H1660 C1674 0.961 . S
H1661 C1675 0.960 . S
H1662 C1675 0.961 . S
H1663 C1675 0.959 . S
H1664 C1678 0.929 . S
H1665 C1679 0.931 . S
H1666 C1681 0.930 . S
C1667 H1655 0.930 . S
C1667 C1668 1.399 . S
C1667 C1672 1.399 . S
C1668 C1667 1.399 . S
C1668 C1669 1.376 . S
C1669 H1656 0.930 . S
C1669 C1668 1.376 . S
C1669 C1670 1.388 . S
C1670 H1657 0.930 . S
C1670 C1669 1.388 . S
C1670 C1671 1.390 . S
C1671 C1670 1.390 . S
C1671 C1672 1.394 . S
C1671 C1677 1.465 . S
C1672 C1667 1.399 . S
C1672 C1671 1.394 . S
C1672 C1673 1.516 . S
C1673 C1672 1.516 . S
C1673 C1674 1.502 . S
C1673 C1675 1.561 . S
C1673 C1676 1.526 . S
C1674 H1658 0.959 . S
C1674 H1659 0.959 . S
C1674 H1660 0.961 . S
C1674 C1673 1.502 . S
C1675 H1661 0.960 . S
C1675 H1662 0.961 . S
C1675 H1663 0.959 . S
C1675 C1673 1.561 . S
C1676 C1673 1.526 . S
C1676 C1677 1.396 . S
C1676 C1681 1.390 . S
C1677 C1671 1.465 . S
C1677 C1676 1.396 . S
C1677 C1678 1.399 . S
C1678 H1664 0.929 . S
C1678 C1677 1.399 . S
C1678 C1679 1.385 . S
C1679 H1665 0.931 . S
C1679 C1678 1.385 . S
C1679 C1680 1.389 . S
C1680 C1679 1.389 . S
C1680 C1681 1.387 . S
C1681 H1666 0.930 . S
C1681 C1676 1.390 . S
C1681 C1680 1.387 . S
H1682 C1694 0.930 . S
H1683 C1696 0.930 . S
H1684 C1697 0.930 . S
H1685 C1701 0.959 . S
H1686 C1701 0.959 . S
H1687 C1701 0.961 . S
H1688 C1702 0.960 . S
H1689 C1702 0.961 . S
H1690 C1702 0.959 . S
H1691 C1705 0.929 . S
H1692 C1706 0.931 . S
H1693 C1708 0.930 . S
C1694 H1682 0.930 . S
C1694 C1695 1.399 . S
C1694 C1699 1.399 . S
C1695 C1694 1.399 . S
C1695 C1696 1.376 . S
C1696 H1683 0.930 . S
C1696 C1695 1.376 . S
C1696 C1697 1.388 . S
C1697 H1684 0.930 . S
C1697 C1696 1.388 . S
C1697 C1698 1.390 . S
C1698 C1697 1.390 . S
C1698 C1699 1.394 . S
C1698 C1704 1.465 . S
C1699 C1694 1.399 . S
C1699 C1698 1.394 . S
C1699 C1700 1.516 . S
C1700 C1699 1.516 . S
C1700 C1701 1.502 . S
C1700 C1702 1.561 1_545 S
C1700 C1703 1.526 . S
C1701 H1685 0.959 . S
C1701 H1686 0.959 . S
C1701 H1687 0.961 . S
C1701 C1700 1.502 . S
C1702 H1688 0.960 . S
C1702 H1689 0.961 . S
C1702 H1690 0.959 . S
C1702 C1700 1.561 1_565 S
C1703 C1700 1.526 . S
C1703 C1704 1.396 . S
C1703 C1708 1.390 . S
C1704 C1698 1.465 . S
C1704 C1703 1.396 . S
C1704 C1705 1.399 . S
C1705 H1691 0.929 . S
C1705 C1704 1.399 . S
C1705 C1706 1.385 . S
C1706 H1692 0.931 . S
C1706 C1705 1.385 . S
C1706 C1707 1.389 . S
C1707 C1706 1.389 . S
C1707 C1708 1.387 . S
C1708 H1693 0.930 . S
C1708 C1703 1.390 . S
C1708 C1707 1.387 . S
H1709 C1721 0.930 . S
H1710 C1723 0.930 . S
H1711 C1724 0.930 . S
H1712 C1728 0.959 . S
H1713 C1728 0.959 . S
H1714 C1728 0.961 . S
H1715 C1729 0.960 . S
H1716 C1729 0.961 . S
H1717 C1729 0.959 . S
H1718 C1732 0.929 . S
H1719 C1733 0.931 . S
H1720 C1735 0.930 . S
C1721 H1709 0.930 . S
C1721 C1722 1.399 . S
C1721 C1726 1.399 . S
C1722 C1721 1.399 . S
C1722 C1723 1.376 . S
C1723 H1710 0.930 . S
C1723 C1722 1.376 . S
C1723 C1724 1.388 . S
C1724 H1711 0.930 . S
C1724 C1723 1.388 . S
C1724 C1725 1.390 . S
C1725 C1724 1.390 . S
C1725 C1726 1.394 . S
C1725 C1731 1.465 . S
C1726 C1721 1.399 . S
C1726 C1725 1.394 . S
C1726 C1727 1.516 . S
C1727 C1726 1.516 . S
C1727 C1728 1.502 . S
C1727 C1729 1.561 . S
C1727 C1730 1.526 . S
C1728 H1712 0.959 . S
C1728 H1713 0.959 . S
C1728 H1714 0.961 . S
C1728 C1727 1.502 . S
C1729 H1715 0.960 . S
C1729 H1716 0.961 . S
C1729 H1717 0.959 . S
C1729 C1727 1.561 . S
C1730 C1727 1.526 . S
C1730 C1731 1.396 . S
C1730 C1735 1.390 . S
C1731 C1725 1.465 . S
C1731 C1730 1.396 . S
C1731 C1732 1.399 . S
C1732 H1718 0.929 . S
C1732 C1731 1.399 . S
C1732 C1733 1.385 . S
C1733 H1719 0.931 . S
C1733 C1732 1.385 . S
C1733 C1734 1.389 . S
C1734 C1733 1.389 . S
C1734 C1735 1.387 . S
C1735 H1720 0.930 . S
C1735 C1730 1.390 . S
C1735 C1734 1.387 . S
H1736 C1748 0.930 . S
H1737 C1750 0.930 . S
H1738 C1751 0.930 . S
H1739 C1755 0.959 . S
H1740 C1755 0.959 . S
H1741 C1755 0.961 . S
H1742 C1756 0.960 . S
H1743 C1756 0.961 . S
H1744 C1756 0.959 . S
H1745 C1759 0.929 . S
H1746 C1760 0.931 . S
H1747 C1762 0.930 . S
C1748 H1736 0.930 . S
C1748 C1749 1.399 1_556 S
C1748 C1753 1.399 . S
C1749 C1748 1.399 1_554 S
C1749 C1750 1.376 . S
C1750 H1737 0.930 . S
C1750 C1749 1.376 . S
C1750 C1751 1.388 . S
C1751 H1738 0.930 . S
C1751 C1750 1.388 . S
C1751 C1752 1.390 . S
C1752 C1751 1.390 . S
C1752 C1753 1.394 1_554 S
C1752 C1758 1.465 . S
C1753 C1748 1.399 . S
C1753 C1752 1.394 1_556 S
C1753 C1754 1.516 . S
C1754 C1753 1.516 . S
C1754 C1755 1.502 . S
C1754 C1756 1.561 . S
C1754 C1757 1.526 . S
C1755 H1739 0.959 . S
C1755 H1740 0.959 . S
C1755 H1741 0.961 . S
C1755 C1754 1.502 . S
C1756 H1742 0.960 . S
C1756 H1743 0.961 . S
C1756 H1744 0.959 . S
C1756 C1754 1.561 . S
C1757 C1754 1.526 . S
C1757 C1758 1.396 1_556 S
C1757 C1762 1.390 . S
C1758 C1752 1.465 . S
C1758 C1757 1.396 1_554 S
C1758 C1759 1.399 . S
C1759 H1745 0.929 . S
C1759 C1758 1.399 . S
C1759 C1760 1.385 . S
C1760 H1746 0.931 . S
C1760 C1759 1.385 . S
C1760 C1761 1.389 . S
C1761 C1760 1.389 . S
C1761 C1762 1.387 1_554 S
C1762 H1747 0.930 . S
C1762 C1757 1.390 . S
C1762 C1761 1.387 1_556 S
H1763 C1775 0.930 1_556 S
H1764 C1777 0.930 . S
H1765 C1778 0.930 . S
H1766 C1782 0.959 1_554 S
H1767 C1782 0.959 . S
H1768 C1782 0.961 . S
H1769 C1783 0.960 . S
H1770 C1783 0.961 . S
H1771 C1783 0.959 . S
H1772 C1786 0.929 . S
H1773 C1787 0.931 . S
H1774 C1789 0.930 1_556 S
C1775 H1763 0.930 1_554 S
C1775 C1776 1.399 . S
C1775 C1780 1.399 . S
C1776 C1775 1.399 . S
C1776 C1777 1.376 . S
C1777 H1764 0.930 . S
C1777 C1776 1.376 . S
C1777 C1778 1.388 . S
C1778 H1765 0.930 . S
C1778 C1777 1.388 . S
C1778 C1779 1.390 . S
C1779 C1778 1.390 . S
C1779 C1780 1.394 . S
C1779 C1785 1.465 . S
C1780 C1775 1.399 . S
C1780 C1779 1.394 . S
C1780 C1781 1.516 1_554 S
C1781 C1780 1.516 1_556 S
C1781 C1782 1.502 . S
C1781 C1783 1.561 . S
C1781 C1784 1.526 1_556 S
C1782 H1766 0.959 1_556 S
C1782 H1767 0.959 . S
C1782 H1768 0.961 . S
C1782 C1781 1.502 . S
C1783 H1769 0.960 . S
C1783 H1770 0.961 . S
C1783 H1771 0.959 . S
C1783 C1781 1.561 . S
C1784 C1781 1.526 1_554 S
C1784 C1785 1.396 . S
C1784 C1789 1.390 . S
C1785 C1779 1.465 . S
C1785 C1784 1.396 . S
C1785 C1786 1.399 . S
C1786 H1772 0.929 . S
C1786 C1785 1.399 . S
C1786 C1787 1.385 . S
C1787 H1773 0.931 . S
C1787 C1786 1.385 . S
C1787 C1788 1.389 . S
C1788 C1787 1.389 . S
C1788 C1789 1.387 . S
C1789 H1774 0.930 1_554 S
C1789 C1784 1.390 . S
C1789 C1788 1.387 . S
H1790 C1802 0.930 . S
H1791 C1804 0.930 . S
H1792 C1805 0.930 . S
H1793 C1809 0.959 . S
H1794 C1809 0.959 . S
H1795 C1809 0.961 . S
H1796 C1810 0.960 . S
H1797 C1810 0.961 . S
H1798 C1810 0.959 . S
H1799 C1813 0.929 . S
H1800 C1814 0.931 . S
H1801 C1816 0.930 . S
C1802 H1790 0.930 . S
C1802 C1803 1.399 . S
C1802 C1807 1.399 . S
C1803 C1802 1.399 . S
C1803 C1804 1.376 . S
C1804 H1791 0.930 . S
C1804 C1803 1.376 . S
C1804 C1805 1.388 . S
C1805 H1792 0.930 . S
C1805 C1804 1.388 . S
C1805 C1806 1.390 . S
C1806 C1805 1.390 . S
C1806 C1807 1.394 . S
C1806 C1812 1.465 . S
C1807 C1802 1.399 . S
C1807 C1806 1.394 . S
C1807 C1808 1.516 . S
C1808 C1807 1.516 . S
C1808 C1809 1.502 . S
C1808 C1810 1.561 . S
C1808 C1811 1.526 . S
C1809 H1793 0.959 . S
C1809 H1794 0.959 . S
C1809 H1795 0.961 . S
C1809 C1808 1.502 . S
C1810 H1796 0.960 . S
C1810 H1797 0.961 . S
C1810 H1798 0.959 . S
C1810 C1808 1.561 . S
C1811 C1808 1.526 . S
C1811 C1812 1.396 . S
C1811 C1816 1.390 . S
C1812 C1806 1.465 . S
C1812 C1811 1.396 . S
C1812 C1813 1.399 . S
C1813 H1799 0.929 . S
C1813 C1812 1.399 . S
C1813 C1814 1.385 . S
C1814 H1800 0.931 . S
C1814 C1813 1.385 . S
C1814 C1815 1.389 . S
C1815 C1814 1.389 . S
C1815 C1816 1.387 . S
C1816 H1801 0.930 . S
C1816 C1811 1.390 . S
C1816 C1815 1.387 . S
H1817 C1829 0.930 . S
H1818 C1831 0.930 . S
H1819 C1832 0.930 . S
H1820 C1836 0.959 . S
H1821 C1836 0.959 . S
H1822 C1836 0.961 . S
H1823 C1837 0.960 . S
H1824 C1837 0.961 . S
H1825 C1837 0.959 . S
H1826 C1840 0.929 . S
H1827 C1841 0.931 . S
H1828 C1843 0.930 . S
C1829 H1817 0.930 . S
C1829 C1830 1.399 . S
C1829 C1834 1.399 . S
C1830 C1829 1.399 . S
C1830 C1831 1.376 . S
C1831 H1818 0.930 . S
C1831 C1830 1.376 . S
C1831 C1832 1.388 . S
C1832 H1819 0.930 . S
C1832 C1831 1.388 . S
C1832 C1833 1.390 . S
C1833 C1832 1.390 . S
C1833 C1834 1.394 . S
C1833 C1839 1.465 . S
C1834 C1829 1.399 . S
C1834 C1833 1.394 . S
C1834 C1835 1.516 . S
C1835 C1834 1.516 . S
C1835 C1836 1.502 . S
C1835 C1837 1.561 . S
C1835 C1838 1.526 . S
C1836 H1820 0.959 . S
C1836 H1821 0.959 . S
C1836 H1822 0.961 . S
C1836 C1835 1.502 . S
C1837 H1823 0.960 . S
C1837 H1824 0.961 . S
C1837 H1825 0.959 . S
C1837 C1835 1.561 . S
C1838 C1835 1.526 . S
C1838 C1839 1.396 . S
C1838 C1843 1.390 . S
C1839 C1833 1.465 . S
C1839 C1838 1.396 . S
C1839 C1840 1.399 . S
C1840 H1826 0.929 . S
C1840 C1839 1.399 . S
C1840 C1841 1.385 . S
C1841 H1827 0.931 . S
C1841 C1840 1.385 . S
C1841 C1842 1.389 . S
C1842 C1841 1.389 . S
C1842 C1843 1.387 . S
C1843 H1828 0.930 . S
C1843 C1838 1.390 . S
C1843 C1842 1.387 . S
H1844 C1856 0.930 . S
H1845 C1858 0.930 . S
H1846 C1859 0.930 . S
H1847 C1863 0.959 . S
H1848 C1863 0.959 . S
H1849 C1863 0.961 . S
H1850 C1864 0.960 . S
H1851 C1864 0.961 . S
H1852 C1864 0.959 . S
H1853 C1867 0.929 . S
H1854 C1868 0.931 . S
H1855 C1870 0.930 . S
C1856 H1844 0.930 . S
C1856 C1857 1.399 . S
C1856 C1861 1.399 . S
C1857 C1856 1.399 . S
C1857 C1858 1.376 . S
C1858 H1845 0.930 . S
C1858 C1857 1.376 . S
C1858 C1859 1.388 . S
C1859 H1846 0.930 . S
C1859 C1858 1.388 . S
C1859 C1860 1.390 . S
C1860 C1859 1.390 . S
C1860 C1861 1.394 . S
C1860 C1866 1.465 . S
C1861 C1856 1.399 . S
C1861 C1860 1.394 . S
C1861 C1862 1.516 . S
C1862 C1861 1.516 . S
C1862 C1863 1.502 . S
C1862 C1864 1.561 . S
C1862 C1865 1.526 . S
C1863 H1847 0.959 . S
C1863 H1848 0.959 . S
C1863 H1849 0.961 . S
C1863 C1862 1.502 . S
C1864 H1850 0.960 . S
C1864 H1851 0.961 . S
C1864 H1852 0.959 . S
C1864 C1862 1.561 . S
C1865 C1862 1.526 . S
C1865 C1866 1.396 . S
C1865 C1870 1.390 . S
C1866 C1860 1.465 . S
C1866 C1865 1.396 . S
C1866 C1867 1.399 . S
C1867 H1853 0.929 . S
C1867 C1866 1.399 . S
C1867 C1868 1.385 . S
C1868 H1854 0.931 . S
C1868 C1867 1.385 . S
C1868 C1869 1.389 . S
C1869 C1868 1.389 . S
C1869 C1870 1.387 . S
C1870 H1855 0.930 . S
C1870 C1865 1.390 . S
C1870 C1869 1.387 . S
H1871 C1883 0.930 . S
H1872 C1885 0.930 . S
H1873 C1886 0.930 . S
H1874 C1890 0.959 . S
H1875 C1890 0.959 . S
H1876 C1890 0.961 . S
H1877 C1891 0.960 . S
H1878 C1891 0.964 . S
H1879 C1891 0.937 1_545 S
H1880 C1894 0.929 . S
H1881 C1895 0.931 . S
H1882 C1897 0.930 . S
C1883 H1871 0.930 . S
C1883 C1884 1.399 . S
C1883 C1888 1.399 . S
C1884 C1883 1.399 . S
C1884 C1885 1.376 . S
C1885 H1872 0.930 . S
C1885 C1884 1.376 . S
C1885 C1886 1.388 . S
C1886 H1873 0.930 . S
C1886 C1885 1.388 . S
C1886 C1887 1.390 . S
C1887 C1886 1.390 . S
C1887 C1888 1.394 . S
C1887 C1893 1.465 . S
C1888 C1883 1.399 . S
C1888 C1887 1.394 . S
C1888 C1889 1.516 . S
C1889 C1888 1.516 . S
C1889 C1890 1.502 . S
C1889 C1891 1.561 . S
C1889 C1892 1.526 . S
C1890 H1874 0.959 . S
C1890 H1875 0.959 . S
C1890 H1876 0.961 . S
C1890 C1889 1.502 . S
C1891 H1877 0.960 . S
C1891 H1878 0.964 . S
C1891 H1879 0.937 1_565 S
C1891 C1889 1.561 . S
C1892 C1889 1.526 . S
C1892 C1893 1.396 . S
C1892 C1897 1.390 . S
C1893 C1887 1.465 . S
C1893 C1892 1.396 . S
C1893 C1894 1.399 . S
C1894 H1880 0.929 . S
C1894 C1893 1.399 . S
C1894 C1895 1.385 . S
C1895 H1881 0.931 . S
C1895 C1894 1.385 . S
C1895 C1896 1.389 . S
C1896 C1895 1.389 . S
C1896 C1897 1.387 . S
C1897 H1882 0.930 . S
C1897 C1892 1.390 . S
C1897 C1896 1.387 . S
H1898 C1910 0.930 . S
H1899 C1912 0.930 . S
H1900 C1913 0.930 . S
H1901 C1917 0.959 . S
H1902 C1917 0.959 . S
H1903 C1917 0.961 . S
H1904 C1918 0.960 . S
H1905 C1918 0.961 . S
H1906 C1918 0.959 . S
H1907 C1921 0.929 . S
H1908 C1922 0.931 . S
H1909 C1924 0.930 . S
C1910 H1898 0.930 . S
C1910 C1911 1.399 . S
C1910 C1915 1.399 . S
C1911 C1910 1.399 . S
C1911 C1912 1.376 . S
C1912 H1899 0.930 . S
C1912 C1911 1.376 . S
C1912 C1913 1.388 . S
C1913 H1900 0.930 . S
C1913 C1912 1.388 . S
C1913 C1914 1.390 . S
C1914 C1913 1.390 . S
C1914 C1915 1.394 . S
C1914 C1920 1.465 . S
C1915 C1910 1.399 . S
C1915 C1914 1.394 . S
C1915 C1916 1.516 . S
C1916 C1915 1.516 . S
C1916 C1917 1.502 . S
C1916 C1918 1.561 . S
C1916 C1919 1.526 . S
C1917 H1901 0.959 . S
C1917 H1902 0.959 . S
C1917 H1903 0.961 . S
C1917 C1916 1.502 . S
C1918 H1904 0.960 . S
C1918 H1905 0.961 . S
C1918 H1906 0.959 . S
C1918 C1916 1.561 . S
C1919 C1916 1.526 . S
C1919 C1920 1.396 . S
C1919 C1924 1.390 . S
C1920 C1914 1.465 . S
C1920 C1919 1.396 . S
C1920 C1921 1.399 . S
C1921 H1907 0.929 . S
C1921 C1920 1.399 . S
C1921 C1922 1.385 . S
C1922 H1908 0.931 . S
C1922 C1921 1.385 . S
C1922 C1923 1.389 . S
C1923 C1922 1.389 . S
C1923 C1924 1.387 . S
C1924 H1909 0.930 . S
C1924 C1919 1.390 . S
C1924 C1923 1.387 . S
H1925 C1937 0.930 . S
H1926 C1939 0.930 . S
H1927 C1940 0.930 . S
H1928 C1944 0.959 . S
H1929 C1944 0.959 . S
H1930 C1944 0.961 . S
H1931 C1945 0.960 . S
H1932 C1945 0.961 . S
H1933 C1945 0.959 . S
H1934 C1948 0.929 . S
H1935 C1949 0.931 . S
H1936 C1951 0.930 . S
C1937 H1925 0.930 . S
C1937 C1938 1.399 . S
C1937 C1942 1.399 . S
C1938 C1937 1.399 . S
C1938 C1939 1.376 . S
C1939 H1926 0.930 . S
C1939 C1938 1.376 . S
C1939 C1940 1.388 . S
C1940 H1927 0.930 . S
C1940 C1939 1.388 . S
C1940 C1941 1.390 . S
C1941 C1940 1.390 . S
C1941 C1942 1.394 . S
C1941 C1947 1.465 . S
C1942 C1937 1.399 . S
C1942 C1941 1.394 . S
C1942 C1943 1.516 . S
C1943 C1942 1.516 . S
C1943 C1944 1.502 . S
C1943 C1945 1.561 . S
C1943 C1946 1.526 . S
C1944 H1928 0.959 . S
C1944 H1929 0.959 . S
C1944 H1930 0.961 . S
C1944 C1943 1.502 . S
C1945 H1931 0.960 . S
C1945 H1932 0.961 . S
C1945 H1933 0.959 . S
C1945 C1943 1.561 . S
C1946 C1943 1.526 . S
C1946 C1947 1.396 . S
C1946 C1951 1.390 . S
C1947 C1941 1.465 . S
C1947 C1946 1.396 . S
C1947 C1948 1.399 . S
C1948 H1934 0.929 . S
C1948 C1947 1.399 . S
C1948 C1949 1.385 . S
C1949 H1935 0.931 . S
C1949 C1948 1.385 . S
C1949 C1950 1.389 . S
C1950 C1949 1.389 . S
C1950 C1951 1.387 . S
C1951 H1936 0.930 . S
C1951 C1946 1.390 . S
C1951 C1950 1.387 . S
H1952 C1964 0.930 . S
H1953 C1966 0.930 . S
H1954 C1967 0.930 . S
H1955 C1971 0.959 . S
H1956 C1971 0.959 . S
H1957 C1971 0.961 . S
H1958 C1972 0.960 . S
H1959 C1972 0.961 . S
H1960 C1972 0.959 . S
H1961 C1975 0.929 . S
H1962 C1976 0.931 . S
H1963 C1978 0.930 . S
C1964 H1952 0.930 . S
C1964 C1965 1.399 . S
C1964 C1969 1.399 . S
C1965 C1964 1.399 . S
C1965 C1966 1.376 . S
C1966 H1953 0.930 . S
C1966 C1965 1.376 . S
C1966 C1967 1.388 . S
C1967 H1954 0.930 . S
C1967 C1966 1.388 . S
C1967 C1968 1.390 . S
C1968 C1967 1.390 . S
C1968 C1969 1.394 . S
C1968 C1974 1.465 . S
C1969 C1964 1.399 . S
C1969 C1968 1.394 . S
C1969 C1970 1.516 . S
C1970 C1969 1.516 . S
C1970 C1971 1.502 . S
C1970 C1972 1.561 . S
C1970 C1973 1.526 . S
C1971 H1955 0.959 . S
C1971 H1956 0.959 . S
C1971 H1957 0.961 . S
C1971 C1970 1.502 . S
C1972 H1958 0.960 . S
C1972 H1959 0.961 . S
C1972 H1960 0.959 . S
C1972 C1970 1.561 . S
C1973 C1970 1.526 . S
C1973 C1974 1.396 . S
C1973 C1978 1.390 . S
C1974 C1968 1.465 . S
C1974 C1973 1.396 . S
C1974 C1975 1.399 . S
C1975 H1961 0.929 . S
C1975 C1974 1.399 . S
C1975 C1976 1.385 . S
C1976 H1962 0.931 . S
C1976 C1975 1.385 . S
C1976 C1977 1.389 . S
C1977 C1976 1.389 . S
C1977 C1978 1.387 . S
C1978 H1963 0.930 . S
C1978 C1973 1.390 . S
C1978 C1977 1.387 . S
H1979 C1991 0.930 . S
H1980 C1993 0.930 . S
H1981 C1994 0.930 . S
H1982 C1998 0.959 . S
H1983 C1998 0.959 . S
H1984 C1998 0.961 . S
H1985 C1999 0.960 . S
H1986 C1999 0.961 . S
H1987 C1999 0.959 . S
H1988 C2002 0.929 . S
H1989 C2003 0.931 . S
H1990 C2005 0.930 . S
C1991 H1979 0.930 . S
C1991 C1992 1.399 . S
C1991 C1996 1.399 . S
C1992 C1991 1.399 . S
C1992 C1993 1.376 . S
C1993 H1980 0.930 . S
C1993 C1992 1.376 . S
C1993 C1994 1.388 . S
C1994 H1981 0.930 . S
C1994 C1993 1.388 . S
C1994 C1995 1.390 . S
C1995 C1994 1.390 . S
C1995 C1996 1.394 . S
C1995 C2001 1.465 . S
C1996 C1991 1.399 . S
C1996 C1995 1.394 . S
C1996 C1997 1.516 . S
C1997 C1996 1.516 . S
C1997 C1998 1.502 . S
C1997 C1999 1.561 . S
C1997 C2000 1.526 . S
C1998 H1982 0.959 . S
C1998 H1983 0.959 . S
C1998 H1984 0.961 . S
C1998 C1997 1.502 . S
C1999 H1985 0.960 . S
C1999 H1986 0.961 . S
C1999 H1987 0.959 . S
C1999 C1997 1.561 . S
C2000 C1997 1.526 . S
C2000 C2001 1.396 . S
C2000 C2005 1.390 . S
C2001 C1995 1.465 . S
C2001 C2000 1.396 . S
C2001 C2002 1.399 . S
C2002 H1988 0.929 . S
C2002 C2001 1.399 . S
C2002 C2003 1.385 . S
C2003 H1989 0.931 . S
C2003 C2002 1.385 . S
C2003 C2004 1.389 . S
C2004 C2003 1.389 . S
C2004 C2005 1.387 . S
C2005 H1990 0.930 . S
C2005 C2000 1.390 . S
C2005 C2004 1.387 . S
H2006 C2018 0.930 . S
H2007 C2020 0.930 . S
H2008 C2021 0.930 . S
H2009 C2025 0.959 . S
H2010 C2025 0.959 1_554 S
H2011 C2025 0.961 . S
H2012 C2026 0.960 . S
H2013 C2026 0.961 1_554 S
H2014 C2026 0.959 . S
H2015 C2029 0.929 . S
H2016 C2030 0.922 1_655 S
H2017 C2032 0.930 1_554 S
C2018 H2006 0.930 . S
C2018 C2019 1.399 . S
C2018 C2023 1.399 . S
C2019 C2018 1.399 . S
C2019 C2020 1.376 . S
C2020 H2007 0.930 . S
C2020 C2019 1.376 . S
C2020 C2021 1.388 . S
C2021 H2008 0.930 . S
C2021 C2020 1.388 . S
C2021 C2022 1.390 . S
C2022 C2021 1.390 . S
C2022 C2023 1.394 . S
C2022 C2028 1.465 . S
C2023 C2018 1.399 . S
C2023 C2022 1.394 . S
C2023 C2024 1.516 . S
C2024 C2023 1.516 . S
C2024 C2025 1.502 1_455 S
C2024 C2026 1.561 . S
C2024 C2027 1.526 . S
C2025 H2009 0.959 . S
C2025 H2010 0.959 1_556 S
C2025 H2011 0.961 . S
C2025 C2024 1.502 1_655 S
C2026 H2012 0.960 . S
C2026 H2013 0.961 1_556 S
C2026 H2014 0.959 . S
C2026 C2024 1.561 . S
C2027 C2024 1.526 . S
C2027 C2028 1.396 . S
C2027 C2032 1.390 . S
C2028 C2022 1.465 . S
C2028 C2027 1.396 . S
C2028 C2029 1.399 . S
C2029 H2015 0.929 . S
C2029 C2028 1.399 . S
C2029 C2030 1.398 . S
C2030 H2016 0.922 1_455 S
C2030 C2029 1.398 . S
C2030 C2031 1.388 . S
C2031 C2030 1.388 . S
C2031 C2032 1.393 . S
C2032 H2017 0.930 1_556 S
C2032 C2027 1.390 . S
C2032 C2031 1.393 . S
H2033 C2045 0.930 . S
H2034 C2047 0.930 . S
H2035 C2048 0.930 . S
H2036 C2052 0.959 . S
H2037 C2052 0.959 . S
H2038 C2052 0.961 . S
H2039 C2053 0.960 . S
H2040 C2053 0.961 . S
H2041 C2053 0.959 . S
H2042 C2056 0.929 . S
H2043 C2057 0.931 . S
H2044 C2059 0.930 . S
C2045 H2033 0.930 . S
C2045 C2046 1.399 . S
C2045 C2050 1.399 . S
C2046 C2045 1.399 . S
C2046 C2047 1.376 . S
C2047 H2034 0.930 . S
C2047 C2046 1.376 . S
C2047 C2048 1.388 . S
C2048 H2035 0.930 . S
C2048 C2047 1.388 . S
C2048 C2049 1.390 . S
C2049 C2048 1.390 . S
C2049 C2050 1.394 . S
C2049 C2055 1.465 . S
C2050 C2045 1.399 . S
C2050 C2049 1.394 . S
C2050 C2051 1.516 . S
C2051 C2050 1.516 . S
C2051 C2052 1.502 . S
C2051 C2053 1.561 . S
C2051 C2054 1.526 . S
C2052 H2036 0.959 . S
C2052 H2037 0.959 . S
C2052 H2038 0.961 . S
C2052 C2051 1.502 . S
C2053 H2039 0.960 . S
C2053 H2040 0.961 . S
C2053 H2041 0.959 . S
C2053 C2051 1.561 . S
C2054 C2051 1.526 . S
C2054 C2055 1.396 . S
C2054 C2059 1.390 . S
C2055 C2049 1.465 . S
C2055 C2054 1.396 . S
C2055 C2056 1.399 . S
C2056 H2042 0.929 . S
C2056 C2055 1.399 . S
C2056 C2057 1.385 . S
C2057 H2043 0.931 . S
C2057 C2056 1.385 . S
C2057 C2058 1.389 . S
C2058 C2057 1.389 . S
C2058 C2059 1.387 . S
C2059 H2044 0.930 . S
C2059 C2054 1.390 . S
C2059 C2058 1.387 . S
H2060 C2072 0.930 . S
H2061 C2074 0.930 . S
H2062 C2075 0.930 . S
H2063 C2079 0.959 . S
H2064 C2079 0.959 . S
H2065 C2079 0.961 . S
H2066 C2080 0.960 . S
H2067 C2080 0.961 . S
H2068 C2080 0.959 . S
H2069 C2083 0.929 . S
H2070 C2084 0.931 . S
H2071 C2086 0.930 . S
C2072 H2060 0.930 . S
C2072 C2073 1.399 . S
C2072 C2077 1.399 . S
C2073 C2072 1.399 . S
C2073 C2074 1.376 . S
C2074 H2061 0.930 . S
C2074 C2073 1.376 . S
C2074 C2075 1.388 . S
C2075 H2062 0.930 . S
C2075 C2074 1.388 . S
C2075 C2076 1.390 . S
C2076 C2075 1.390 . S
C2076 C2077 1.394 . S
C2076 C2082 1.465 . S
C2077 C2072 1.399 . S
C2077 C2076 1.394 . S
C2077 C2078 1.516 . S
C2078 C2077 1.516 . S
C2078 C2079 1.502 . S
C2078 C2080 1.561 . S
C2078 C2081 1.526 . S
C2079 H2063 0.959 . S
C2079 H2064 0.959 . S
C2079 H2065 0.961 . S
C2079 C2078 1.502 . S
C2080 H2066 0.960 . S
C2080 H2067 0.961 . S
C2080 H2068 0.959 . S
C2080 C2078 1.561 . S
C2081 C2078 1.526 . S
C2081 C2082 1.396 . S
C2081 C2086 1.390 . S
C2082 C2076 1.465 . S
C2082 C2081 1.396 . S
C2082 C2083 1.399 . S
C2083 H2069 0.929 . S
C2083 C2082 1.399 . S
C2083 C2084 1.385 . S
C2084 H2070 0.931 . S
C2084 C2083 1.385 . S
C2084 C2085 1.389 . S
C2085 C2084 1.389 . S
C2085 C2086 1.387 . S
C2086 H2071 0.930 . S
C2086 C2081 1.390 . S
C2086 C2085 1.387 . S
H2087 C2099 0.930 . S
H2088 C2101 0.930 . S
H2089 C2102 0.930 . S
H2090 C2106 0.959 . S
H2091 C2106 0.959 . S
H2092 C2106 0.961 . S
H2093 C2107 0.960 . S
H2094 C2107 0.961 . S
H2095 C2107 0.959 . S
H2096 C2110 0.929 . S
H2097 C2111 0.931 . S
H2098 C2113 0.930 . S
C2099 H2087 0.930 . S
C2099 C2100 1.399 . S
C2099 C2104 1.399 . S
C2100 C2099 1.399 . S
C2100 C2101 1.376 . S
C2101 H2088 0.930 . S
C2101 C2100 1.376 . S
C2101 C2102 1.388 . S
C2102 H2089 0.930 . S
C2102 C2101 1.388 . S
C2102 C2103 1.390 . S
C2103 C2102 1.390 . S
C2103 C2104 1.394 . S
C2103 C2109 1.465 . S
C2104 C2099 1.399 . S
C2104 C2103 1.394 . S
C2104 C2105 1.516 . S
C2105 C2104 1.516 . S
C2105 C2106 1.502 . S
C2105 C2107 1.561 . S
C2105 C2108 1.526 . S
C2106 H2090 0.959 . S
C2106 H2091 0.959 . S
C2106 H2092 0.961 . S
C2106 C2105 1.502 . S
C2107 H2093 0.960 . S
C2107 H2094 0.961 . S
C2107 H2095 0.959 . S
C2107 C2105 1.561 . S
C2108 C2105 1.526 . S
C2108 C2109 1.396 . S
C2108 C2113 1.390 . S
C2109 C2103 1.465 . S
C2109 C2108 1.396 . S
C2109 C2110 1.399 . S
C2110 H2096 0.929 . S
C2110 C2109 1.399 . S
C2110 C2111 1.385 . S
C2111 H2097 0.931 . S
C2111 C2110 1.385 . S
C2111 C2112 1.389 . S
C2112 C2111 1.389 . S
C2112 C2113 1.387 . S
C2113 H2098 0.930 . S
C2113 C2108 1.390 . S
C2113 C2112 1.387 . S
H2114 C2126 0.932 . S
H2115 C2128 0.930 . S
H2116 C2129 0.930 . S
H2117 C2133 0.959 . S
H2118 C2133 0.959 . S
H2119 C2133 0.961 . S
H2120 C2134 0.960 . S
H2121 C2134 0.961 . S
H2122 C2134 0.959 . S
H2123 C2137 0.929 . S
H2124 C2138 0.931 . S
H2125 C2140 0.930 . S
C2126 H2114 0.932 . S
C2126 C2127 1.396 1_455 S
C2126 C2131 1.400 1_455 S
C2127 C2126 1.396 1_655 S
C2127 C2128 1.376 . S
C2128 H2115 0.930 . S
C2128 C2127 1.376 . S
C2128 C2129 1.388 . S
C2129 H2116 0.930 . S
C2129 C2128 1.388 . S
C2129 C2130 1.390 . S
C2130 C2129 1.390 . S
C2130 C2131 1.394 . S
C2130 C2136 1.465 . S
C2131 C2126 1.400 1_655 S
C2131 C2130 1.394 . S
C2131 C2132 1.516 1_655 S
C2132 C2131 1.516 1_455 S
C2132 C2133 1.502 . S
C2132 C2134 1.561 1_455 S
C2132 C2135 1.526 1_455 S
C2133 H2117 0.959 . S
C2133 H2118 0.959 . S
C2133 H2119 0.961 . S
C2133 C2132 1.502 . S
C2134 H2120 0.960 . S
C2134 H2121 0.961 . S
C2134 H2122 0.959 . S
C2134 C2132 1.561 1_655 S
C2135 C2132 1.526 1_655 S
C2135 C2136 1.396 . S
C2135 C2140 1.390 1_655 S
C2136 C2130 1.465 . S
C2136 C2135 1.396 . S
C2136 C2137 1.399 . S
C2137 H2123 0.929 . S
C2137 C2136 1.399 . S
C2137 C2138 1.385 . S
C2138 H2124 0.931 . S
C2138 C2137 1.385 . S
C2138 C2139 1.389 . S
C2139 C2138 1.389 . S
C2139 C2140 1.387 1_655 S
C2140 H2125 0.930 . S
C2140 C2135 1.390 1_455 S
C2140 C2139 1.387 1_455 S
H2141 C2153 0.930 . S
H2142 C2155 0.930 . S
H2143 C2156 0.930 . S
H2144 C2160 0.959 . S
H2145 C2160 0.959 . S
H2146 C2160 0.961 . S
H2147 C2161 0.960 . S
H2148 C2161 0.961 . S
H2149 C2161 0.959 . S
H2150 C2164 0.929 . S
H2151 C2165 0.931 . S
H2152 C2167 0.930 . S
C2153 H2141 0.930 . S
C2153 C2154 1.399 . S
C2153 C2158 1.399 . S
C2154 C2153 1.399 . S
C2154 C2155 1.376 . S
C2155 H2142 0.930 . S
C2155 C2154 1.376 . S
C2155 C2156 1.388 . S
C2156 H2143 0.930 . S
C2156 C2155 1.388 . S
C2156 C2157 1.390 . S
C2157 C2156 1.390 . S
C2157 C2158 1.394 . S
C2157 C2163 1.465 . S
C2158 C2153 1.399 . S
C2158 C2157 1.394 . S
C2158 C2159 1.516 . S
C2159 C2158 1.516 . S
C2159 C2160 1.502 . S
C2159 C2161 1.561 . S
C2159 C2162 1.526 . S
C2160 H2144 0.959 . S
C2160 H2145 0.959 . S
C2160 H2146 0.961 . S
C2160 C2159 1.502 . S
C2161 H2147 0.960 . S
C2161 H2148 0.961 . S
C2161 H2149 0.959 . S
C2161 C2159 1.561 . S
C2162 C2159 1.526 . S
C2162 C2163 1.396 . S
C2162 C2167 1.390 . S
C2163 C2157 1.465 . S
C2163 C2162 1.396 . S
C2163 C2164 1.399 . S
C2164 H2150 0.929 . S
C2164 C2163 1.399 . S
C2164 C2165 1.385 . S
C2165 H2151 0.931 . S
C2165 C2164 1.385 . S
C2165 C2166 1.389 . S
C2166 C2165 1.389 . S
C2166 C2167 1.387 . S
C2167 H2152 0.930 . S
C2167 C2162 1.390 . S
C2167 C2166 1.387 . S
H2168 C2180 0.930 . S
H2169 C2182 0.930 . S
H2170 C2183 0.930 . S
H2171 C2187 0.959 . S
H2172 C2187 0.959 . S
H2173 C2187 0.961 . S
H2174 C2188 0.960 . S
H2175 C2188 0.961 . S
H2176 C2188 0.959 . S
H2177 C2191 0.929 . S
H2178 C2192 0.931 . S
H2179 C2194 0.930 . S
C2180 H2168 0.930 . S
C2180 C2181 1.399 . S
C2180 C2185 1.399 . S
C2181 C2180 1.399 . S
C2181 C2182 1.376 . S
C2182 H2169 0.930 . S
C2182 C2181 1.376 . S
C2182 C2183 1.388 . S
C2183 H2170 0.930 . S
C2183 C2182 1.388 . S
C2183 C2184 1.390 . S
C2184 C2183 1.390 . S
C2184 C2185 1.394 . S
C2184 C2190 1.465 . S
C2185 C2180 1.399 . S
C2185 C2184 1.394 . S
C2185 C2186 1.516 . S
C2186 C2185 1.516 . S
C2186 C2187 1.502 . S
C2186 C2188 1.561 . S
C2186 C2189 1.526 . S
C2187 H2171 0.959 . S
C2187 H2172 0.959 . S
C2187 H2173 0.961 . S
C2187 C2186 1.502 . S
C2188 H2174 0.960 . S
C2188 H2175 0.961 . S
C2188 H2176 0.959 . S
C2188 C2186 1.561 . S
C2189 C2186 1.526 . S
C2189 C2190 1.396 . S
C2189 C2194 1.390 . S
C2190 C2184 1.465 . S
C2190 C2189 1.396 . S
C2190 C2191 1.399 . S
C2191 H2177 0.929 . S
C2191 C2190 1.399 . S
C2191 C2192 1.385 . S
C2192 H2178 0.931 . S
C2192 C2191 1.385 . S
C2192 C2193 1.389 . S
C2193 C2192 1.389 . S
C2193 C2194 1.387 . S
C2194 H2179 0.930 . S
C2194 C2189 1.390 . S
C2194 C2193 1.387 . S
H2195 C2207 0.930 . S
H2196 C2209 0.930 . S
H2197 C2210 0.930 . S
H2198 C2214 0.959 . S
H2199 C2214 0.959 . S
H2200 C2214 0.961 . S
H2201 C2215 0.960 . S
H2202 C2215 0.961 . S
H2203 C2215 0.959 . S
H2204 C2218 0.929 . S
H2205 C2219 0.931 . S
H2206 C2221 0.930 . S
C2207 H2195 0.930 . S
C2207 C2208 1.399 . S
C2207 C2212 1.399 . S
C2208 C2207 1.399 . S
C2208 C2209 1.376 . S
C2209 H2196 0.930 . S
C2209 C2208 1.376 . S
C2209 C2210 1.388 . S
C2210 H2197 0.930 . S
C2210 C2209 1.388 . S
C2210 C2211 1.390 . S
C2211 C2210 1.390 . S
C2211 C2212 1.394 . S
C2211 C2217 1.465 . S
C2212 C2207 1.399 . S
C2212 C2211 1.394 . S
C2212 C2213 1.516 . S
C2213 C2212 1.516 . S
C2213 C2214 1.502 . S
C2213 C2215 1.561 . S
C2213 C2216 1.526 . S
C2214 H2198 0.959 . S
C2214 H2199 0.959 . S
C2214 H2200 0.961 . S
C2214 C2213 1.502 . S
C2215 H2201 0.960 . S
C2215 H2202 0.961 . S
C2215 H2203 0.959 . S
C2215 C2213 1.561 . S
C2216 C2213 1.526 . S
C2216 C2217 1.396 . S
C2216 C2221 1.390 . S
C2217 C2211 1.465 . S
C2217 C2216 1.396 . S
C2217 C2218 1.399 . S
C2218 H2204 0.929 . S
C2218 C2217 1.399 . S
C2218 C2219 1.385 . S
C2219 H2205 0.931 . S
C2219 C2218 1.385 . S
C2219 C2220 1.389 . S
C2220 C2219 1.389 . S
C2220 C2221 1.387 . S
C2221 H2206 0.930 . S
C2221 C2216 1.390 . S
C2221 C2220 1.387 . S
H2222 C2234 0.930 . S
H2223 C2236 0.930 . S
H2224 C2237 0.930 . S
H2225 C2241 0.959 . S
H2226 C2241 0.959 . S
H2227 C2241 0.961 . S
H2228 C2242 0.960 . S
H2229 C2242 0.961 . S
H2230 C2242 0.959 . S
H2231 C2245 0.929 . S
H2232 C2246 0.931 . S
H2233 C2248 0.930 . S
C2234 H2222 0.930 . S
C2234 C2235 1.399 . S
C2234 C2239 1.399 . S
C2235 C2234 1.399 . S
C2235 C2236 1.376 . S
C2236 H2223 0.930 . S
C2236 C2235 1.376 . S
C2236 C2237 1.388 . S
C2237 H2224 0.930 . S
C2237 C2236 1.388 . S
C2237 C2238 1.390 . S
C2238 C2237 1.390 . S
C2238 C2239 1.394 . S
C2238 C2244 1.465 . S
C2239 C2234 1.399 . S
C2239 C2238 1.394 . S
C2239 C2240 1.516 . S
C2240 C2239 1.516 . S
C2240 C2241 1.502 . S
C2240 C2242 1.561 . S
C2240 C2243 1.526 . S
C2241 H2225 0.959 . S
C2241 H2226 0.959 . S
C2241 H2227 0.961 . S
C2241 C2240 1.502 . S
C2242 H2228 0.960 . S
C2242 H2229 0.961 . S
C2242 H2230 0.959 . S
C2242 C2240 1.561 . S
C2243 C2240 1.526 . S
C2243 C2244 1.396 . S
C2243 C2248 1.390 . S
C2244 C2238 1.465 . S
C2244 C2243 1.396 . S
C2244 C2245 1.399 . S
C2245 H2231 0.929 . S
C2245 C2244 1.399 . S
C2245 C2246 1.385 . S
C2246 H2232 0.931 . S
C2246 C2245 1.385 . S
C2246 C2247 1.389 . S
C2247 C2246 1.389 . S
C2247 C2248 1.387 . S
C2248 H2233 0.930 . S
C2248 C2243 1.390 . S
C2248 C2247 1.387 . S
H2249 C2261 0.930 . S
H2250 C2263 0.930 . S
H2251 C2264 0.930 . S
H2252 C2268 0.959 . S
H2253 C2268 0.959 . S
H2254 C2268 0.961 . S
H2255 C2269 0.960 . S
H2256 C2269 0.961 . S
H2257 C2269 0.959 . S
H2258 C2272 0.929 . S
H2259 C2273 0.931 . S
H2260 C2275 0.930 . S
C2261 H2249 0.930 . S
C2261 C2262 1.399 . S
C2261 C2266 1.399 . S
C2262 C2261 1.399 . S
C2262 C2263 1.376 . S
C2263 H2250 0.930 . S
C2263 C2262 1.376 . S
C2263 C2264 1.388 . S
C2264 H2251 0.930 . S
C2264 C2263 1.388 . S
C2264 C2265 1.390 . S
C2265 C2264 1.390 . S
C2265 C2266 1.394 . S
C2265 C2271 1.465 . S
C2266 C2261 1.399 . S
C2266 C2265 1.394 . S
C2266 C2267 1.516 . S
C2267 C2266 1.516 . S
C2267 C2268 1.502 . S
C2267 C2269 1.561 . S
C2267 C2270 1.526 . S
C2268 H2252 0.959 . S
C2268 H2253 0.959 . S
C2268 H2254 0.961 . S
C2268 C2267 1.502 . S
C2269 H2255 0.960 . S
C2269 H2256 0.961 . S
C2269 H2257 0.959 . S
C2269 C2267 1.561 . S
C2270 C2267 1.526 . S
C2270 C2271 1.396 . S
C2270 C2275 1.390 . S
C2271 C2265 1.465 . S
C2271 C2270 1.396 . S
C2271 C2272 1.399 . S
C2272 H2258 0.929 . S
C2272 C2271 1.399 . S
C2272 C2273 1.385 . S
C2273 H2259 0.931 . S
C2273 C2272 1.385 . S
C2273 C2274 1.389 . S
C2274 C2273 1.389 . S
C2274 C2275 1.387 . S
C2275 H2260 0.930 . S
C2275 C2270 1.390 . S
C2275 C2274 1.387 . S
H2276 C2288 0.930 . S
H2277 C2290 0.930 . S
H2278 C2291 0.930 . S
H2279 C2295 0.959 . S
H2280 C2295 0.959 . S
H2281 C2295 0.961 . S
H2282 C2296 0.960 . S
H2283 C2296 0.961 . S
H2284 C2296 0.959 . S
H2285 C2299 0.929 . S
H2286 C2300 0.931 . S
H2287 C2302 0.930 . S
C2288 H2276 0.930 . S
C2288 C2289 1.399 . S
C2288 C2293 1.399 . S
C2289 C2288 1.399 . S
C2289 C2290 1.376 . S
C2290 H2277 0.930 . S
C2290 C2289 1.376 . S
C2290 C2291 1.388 . S
C2291 H2278 0.930 . S
C2291 C2290 1.388 . S
C2291 C2292 1.390 . S
C2292 C2291 1.390 . S
C2292 C2293 1.394 . S
C2292 C2298 1.465 . S
C2293 C2288 1.399 . S
C2293 C2292 1.394 . S
C2293 C2294 1.516 . S
C2294 C2293 1.516 . S
C2294 C2295 1.502 . S
C2294 C2296 1.561 . S
C2294 C2297 1.526 . S
C2295 H2279 0.959 . S
C2295 H2280 0.959 . S
C2295 H2281 0.961 . S
C2295 C2294 1.502 . S
C2296 H2282 0.960 . S
C2296 H2283 0.961 . S
C2296 H2284 0.959 . S
C2296 C2294 1.561 . S
C2297 C2294 1.526 . S
C2297 C2298 1.396 . S
C2297 C2302 1.390 . S
C2298 C2292 1.465 . S
C2298 C2297 1.396 . S
C2298 C2299 1.399 . S
C2299 H2285 0.929 . S
C2299 C2298 1.399 . S
C2299 C2300 1.385 . S
C2300 H2286 0.931 . S
C2300 C2299 1.385 . S
C2300 C2301 1.389 . S
C2301 C2300 1.389 . S
C2301 C2302 1.387 . S
C2302 H2287 0.930 . S
C2302 C2297 1.390 . S
C2302 C2301 1.387 . S
H2303 C2315 0.930 . S
H2304 C2317 0.930 . S
H2305 C2318 0.930 . S
H2306 C2322 0.959 . S
H2307 C2322 0.959 . S
H2308 C2322 0.961 . S
H2309 C2323 0.960 . S
H2310 C2323 0.961 . S
H2311 C2323 0.959 . S
H2312 C2326 0.929 . S
H2313 C2327 0.931 . S
H2314 C2329 0.930 . S
C2315 H2303 0.930 . S
C2315 C2316 1.399 . S
C2315 C2320 1.399 . S
C2316 C2315 1.399 . S
C2316 C2317 1.376 . S
C2317 H2304 0.930 . S
C2317 C2316 1.376 . S
C2317 C2318 1.388 . S
C2318 H2305 0.930 . S
C2318 C2317 1.388 . S
C2318 C2319 1.390 . S
C2319 C2318 1.390 . S
C2319 C2320 1.394 . S
C2319 C2325 1.465 . S
C2320 C2315 1.399 . S
C2320 C2319 1.394 . S
C2320 C2321 1.516 . S
C2321 C2320 1.516 . S
C2321 C2322 1.502 . S
C2321 C2323 1.561 . S
C2321 C2324 1.526 . S
C2322 H2306 0.959 . S
C2322 H2307 0.959 . S
C2322 H2308 0.961 . S
C2322 C2321 1.502 . S
C2323 H2309 0.960 . S
C2323 H2310 0.961 . S
C2323 H2311 0.959 . S
C2323 C2321 1.561 . S
C2324 C2321 1.526 . S
C2324 C2325 1.396 . S
C2324 C2329 1.390 . S
C2325 C2319 1.465 . S
C2325 C2324 1.396 . S
C2325 C2326 1.399 . S
C2326 H2312 0.929 . S
C2326 C2325 1.399 . S
C2326 C2327 1.385 . S
C2327 H2313 0.931 . S
C2327 C2326 1.385 . S
C2327 C2328 1.389 . S
C2328 C2327 1.389 . S
C2328 C2329 1.387 . S
C2329 H2314 0.930 . S
C2329 C2324 1.390 . S
C2329 C2328 1.387 . S
H2330 C2342 0.930 . S
H2331 C2344 0.930 . S
H2332 C2345 0.930 . S
H2333 C2349 0.959 . S
H2334 C2349 0.959 . S
H2335 C2349 0.961 . S
H2336 C2350 0.960 . S
H2337 C2350 0.961 . S
H2338 C2350 0.959 . S
H2339 C2353 0.929 . S
H2340 C2354 0.931 . S
H2341 C2356 0.930 . S
C2342 H2330 0.930 . S
C2342 C2343 1.399 . S
C2342 C2347 1.399 . S
C2343 C2342 1.399 . S
C2343 C2344 1.376 . S
C2344 H2331 0.930 . S
C2344 C2343 1.376 . S
C2344 C2345 1.388 . S
C2345 H2332 0.930 . S
C2345 C2344 1.388 . S
C2345 C2346 1.390 . S
C2346 C2345 1.390 . S
C2346 C2347 1.394 . S
C2346 C2352 1.465 . S
C2347 C2342 1.399 . S
C2347 C2346 1.394 . S
C2347 C2348 1.516 . S
C2348 C2347 1.516 . S
C2348 C2349 1.502 . S
C2348 C2350 1.561 . S
C2348 C2351 1.526 . S
C2349 H2333 0.959 . S
C2349 H2334 0.959 . S
C2349 H2335 0.961 . S
C2349 C2348 1.502 . S
C2350 H2336 0.960 . S
C2350 H2337 0.961 . S
C2350 H2338 0.959 . S
C2350 C2348 1.561 . S
C2351 C2348 1.526 . S
C2351 C2352 1.396 . S
C2351 C2356 1.390 . S
C2352 C2346 1.465 . S
C2352 C2351 1.396 . S
C2352 C2353 1.399 . S
C2353 H2339 0.929 . S
C2353 C2352 1.399 . S
C2353 C2354 1.385 . S
C2354 H2340 0.931 . S
C2354 C2353 1.385 . S
C2354 C2355 1.389 . S
C2355 C2354 1.389 . S
C2355 C2356 1.387 . S
C2356 H2341 0.930 . S
C2356 C2351 1.390 . S
C2356 C2355 1.387 . S
H2357 C2369 0.930 . S
H2358 C2371 0.930 . S
H2359 C2372 0.930 . S
H2360 C2376 0.959 . S
H2361 C2376 0.959 . S
H2362 C2376 0.961 . S
H2363 C2377 0.960 . S
H2364 C2377 0.961 . S
H2365 C2377 0.959 . S
H2366 C2380 0.929 . S
H2367 C2381 0.931 . S
H2368 C2383 0.930 . S
C2369 H2357 0.930 . S
C2369 C2370 1.399 . S
C2369 C2374 1.399 . S
C2370 C2369 1.399 . S
C2370 C2371 1.376 . S
C2371 H2358 0.930 . S
C2371 C2370 1.376 . S
C2371 C2372 1.388 . S
C2372 H2359 0.930 . S
C2372 C2371 1.388 . S
C2372 C2373 1.390 . S
C2373 C2372 1.390 . S
C2373 C2374 1.394 . S
C2373 C2379 1.465 . S
C2374 C2369 1.399 . S
C2374 C2373 1.394 . S
C2374 C2375 1.516 . S
C2375 C2374 1.516 . S
C2375 C2376 1.502 . S
C2375 C2377 1.561 . S
C2375 C2378 1.526 . S
C2376 H2360 0.959 . S
C2376 H2361 0.959 . S
C2376 H2362 0.961 . S
C2376 C2375 1.502 . S
C2377 H2363 0.960 . S
C2377 H2364 0.961 . S
C2377 H2365 0.959 . S
C2377 C2375 1.561 . S
C2378 C2375 1.526 . S
C2378 C2379 1.396 . S
C2378 C2383 1.390 . S
C2379 C2373 1.465 . S
C2379 C2378 1.396 . S
C2379 C2380 1.399 . S
C2380 H2366 0.929 . S
C2380 C2379 1.399 . S
C2380 C2381 1.385 . S
C2381 H2367 0.931 . S
C2381 C2380 1.385 . S
C2381 C2382 1.389 . S
C2382 C2381 1.389 . S
C2382 C2383 1.387 . S
C2383 H2368 0.930 . S
C2383 C2378 1.390 . S
C2383 C2382 1.387 . S
H2384 C2396 0.930 . S
H2385 C2398 0.930 . S
H2386 C2399 0.930 . S
H2387 C2403 0.959 . S
H2388 C2403 0.959 . S
H2389 C2403 0.961 . S
H2390 C2404 0.960 . S
H2391 C2404 0.961 . S
H2392 C2404 0.959 . S
H2393 C2407 0.929 . S
H2394 C2408 0.931 . S
H2395 C2410 0.930 . S
C2396 H2384 0.930 . S
C2396 C2397 1.399 . S
C2396 C2401 1.399 . S
C2397 C2396 1.399 . S
C2397 C2398 1.376 . S
C2398 H2385 0.930 . S
C2398 C2397 1.376 . S
C2398 C2399 1.388 . S
C2399 H2386 0.930 . S
C2399 C2398 1.388 . S
C2399 C2400 1.390 . S
C2400 C2399 1.390 . S
C2400 C2401 1.394 . S
C2400 C2406 1.465 . S
C2401 C2396 1.399 . S
C2401 C2400 1.394 . S
C2401 C2402 1.516 . S
C2402 C2401 1.516 . S
C2402 C2403 1.502 . S
C2402 C2404 1.561 . S
C2402 C2405 1.526 . S
C2403 H2387 0.959 . S
C2403 H2388 0.959 . S
C2403 H2389 0.961 . S
C2403 C2402 1.502 . S
C2404 H2390 0.960 . S
C2404 H2391 0.961 . S
C2404 H2392 0.959 . S
C2404 C2402 1.561 . S
C2405 C2402 1.526 . S
C2405 C2406 1.396 . S
C2405 C2410 1.390 . S
C2406 C2400 1.465 . S
C2406 C2405 1.396 . S
C2406 C2407 1.399 . S
C2407 H2393 0.929 . S
C2407 C2406 1.399 . S
C2407 C2408 1.385 . S
C2408 H2394 0.931 . S
C2408 C2407 1.385 . S
C2408 C2409 1.389 . S
C2409 C2408 1.389 . S
C2409 C2410 1.387 . S
C2410 H2395 0.930 . S
C2410 C2405 1.390 . S
C2410 C2409 1.387 . S
H2411 C2423 0.930 . S
H2412 C2425 0.930 . S
H2413 C2426 0.930 . S
H2414 C2430 0.959 . S
H2415 C2430 0.959 . S
H2416 C2430 0.961 . S
H2417 C2431 0.960 . S
H2418 C2431 0.961 . S
H2419 C2431 0.959 . S
H2420 C2434 0.929 . S
H2421 C2435 0.931 . S
H2422 C2437 0.930 . S
C2423 H2411 0.930 . S
C2423 C2424 1.399 . S
C2423 C2428 1.399 . S
C2424 C2423 1.399 . S
C2424 C2425 1.376 . S
C2425 H2412 0.930 . S
C2425 C2424 1.376 . S
C2425 C2426 1.388 . S
C2426 H2413 0.930 . S
C2426 C2425 1.388 . S
C2426 C2427 1.390 . S
C2427 C2426 1.390 . S
C2427 C2428 1.394 . S
C2427 C2433 1.465 . S
C2428 C2423 1.399 . S
C2428 C2427 1.394 . S
C2428 C2429 1.516 . S
C2429 C2428 1.516 . S
C2429 C2430 1.502 . S
C2429 C2431 1.561 . S
C2429 C2432 1.526 . S
C2430 H2414 0.959 . S
C2430 H2415 0.959 . S
C2430 H2416 0.961 . S
C2430 C2429 1.502 . S
C2431 H2417 0.960 . S
C2431 H2418 0.961 . S
C2431 H2419 0.959 . S
C2431 C2429 1.561 . S
C2432 C2429 1.526 . S
C2432 C2433 1.396 . S
C2432 C2437 1.390 . S
C2433 C2427 1.465 . S
C2433 C2432 1.396 . S
C2433 C2434 1.399 . S
C2434 H2420 0.929 . S
C2434 C2433 1.399 . S
C2434 C2435 1.385 . S
C2435 H2421 0.931 . S
C2435 C2434 1.385 . S
C2435 C2436 1.389 . S
C2436 C2435 1.389 . S
C2436 C2437 1.387 . S
C2437 H2422 0.930 . S
C2437 C2432 1.390 . S
C2437 C2436 1.387 . S
H2438 C2450 0.930 . S
H2439 C2452 0.930 . S
H2440 C2453 0.930 . S
H2441 C2457 0.959 . S
H2442 C2457 0.959 . S
H2443 C2457 0.961 . S
H2444 C2458 0.960 . S
H2445 C2458 0.961 . S
H2446 C2458 0.959 . S
H2447 C2461 0.929 . S
H2448 C2462 0.931 . S
H2449 C2464 0.930 . S
C2450 H2438 0.930 . S
C2450 C2451 1.399 . S
C2450 C2455 1.399 . S
C2451 C2450 1.399 . S
C2451 C2452 1.376 . S
C2452 H2439 0.930 . S
C2452 C2451 1.376 . S
C2452 C2453 1.388 . S
C2453 H2440 0.930 . S
C2453 C2452 1.388 . S
C2453 C2454 1.390 . S
C2454 C2453 1.390 . S
C2454 C2455 1.394 . S
C2454 C2460 1.465 . S
C2455 C2450 1.399 . S
C2455 C2454 1.394 . S
C2455 C2456 1.516 . S
C2456 C2455 1.516 . S
C2456 C2457 1.502 . S
C2456 C2458 1.561 . S
C2456 C2459 1.526 . S
C2457 H2441 0.959 . S
C2457 H2442 0.959 . S
C2457 H2443 0.961 . S
C2457 C2456 1.502 . S
C2458 H2444 0.960 . S
C2458 H2445 0.961 . S
C2458 H2446 0.959 . S
C2458 C2456 1.561 . S
C2459 C2456 1.526 . S
C2459 C2460 1.396 . S
C2459 C2464 1.390 . S
C2460 C2454 1.465 . S
C2460 C2459 1.396 . S
C2460 C2461 1.399 . S
C2461 H2447 0.929 . S
C2461 C2460 1.399 . S
C2461 C2462 1.385 . S
C2462 H2448 0.931 . S
C2462 C2461 1.385 . S
C2462 C2463 1.389 . S
C2463 C2462 1.389 . S
C2463 C2464 1.387 . S
C2464 H2449 0.930 . S
C2464 C2459 1.390 . S
C2464 C2463 1.387 . S
H2465 C2477 0.930 1_556 S
H2466 C2479 0.930 . S
H2467 C2480 0.930 . S
H2468 C2484 0.959 . S
H2469 C2484 0.959 . S
H2470 C2484 0.961 . S
H2471 C2485 0.960 . S
H2472 C2485 0.961 . S
H2473 C2485 0.959 . S
H2474 C2488 0.926 1_545 S
H2475 C2489 0.931 . S
H2476 C2491 0.930 1_556 S
C2477 H2465 0.930 1_554 S
C2477 C2478 1.399 . S
C2477 C2482 1.399 . S
C2478 C2477 1.399 . S
C2478 C2479 1.376 . S
C2479 H2466 0.930 . S
C2479 C2478 1.376 . S
C2479 C2480 1.388 . S
C2480 H2467 0.930 . S
C2480 C2479 1.388 . S
C2480 C2481 1.390 . S
C2481 C2480 1.390 . S
C2481 C2482 1.394 . S
C2481 C2487 1.465 . S
C2482 C2477 1.399 . S
C2482 C2481 1.394 . S
C2482 C2483 1.516 1_554 S
C2483 C2482 1.516 1_556 S
C2483 C2484 1.502 . S
C2483 C2485 1.561 . S
C2483 C2486 1.526 1_556 S
C2484 H2468 0.959 . S
C2484 H2469 0.959 . S
C2484 H2470 0.961 . S
C2484 C2483 1.502 . S
C2485 H2471 0.960 . S
C2485 H2472 0.961 . S
C2485 H2473 0.959 . S
C2485 C2483 1.561 . S
C2486 C2483 1.526 1_554 S
C2486 C2487 1.396 . S
C2486 C2491 1.390 . S
C2487 C2481 1.465 . S
C2487 C2486 1.396 . S
C2487 C2488 1.399 . S
C2488 H2474 0.926 1_565 S
C2488 C2487 1.399 . S
C2488 C2489 1.385 1_565 S
C2489 H2475 0.931 . S
C2489 C2488 1.385 1_545 S
C2489 C2490 1.389 . S
C2490 C2489 1.389 . S
C2490 C2491 1.387 1_545 S
C2491 H2476 0.930 1_554 S
C2491 C2486 1.390 . S
C2491 C2490 1.387 1_565 S
H2492 C2504 0.930 . S
H2493 C2506 0.930 . S
H2494 C2507 0.930 . S
H2495 C2511 0.959 . S
H2496 C2511 0.959 . S
H2497 C2511 0.961 . S
H2498 C2512 0.960 . S
H2499 C2512 0.961 . S
H2500 C2512 0.959 . S
H2501 C2515 0.929 . S
H2502 C2516 0.931 . S
H2503 C2518 0.930 . S
C2504 H2492 0.930 . S
C2504 C2505 1.399 . S
C2504 C2509 1.399 . S
C2505 C2504 1.399 . S
C2505 C2506 1.376 . S
C2506 H2493 0.930 . S
C2506 C2505 1.376 . S
C2506 C2507 1.388 . S
C2507 H2494 0.930 . S
C2507 C2506 1.388 . S
C2507 C2508 1.390 . S
C2508 C2507 1.390 . S
C2508 C2509 1.394 . S
C2508 C2514 1.465 . S
C2509 C2504 1.399 . S
C2509 C2508 1.394 . S
C2509 C2510 1.516 . S
C2510 C2509 1.516 . S
C2510 C2511 1.502 . S
C2510 C2512 1.561 . S
C2510 C2513 1.526 . S
C2511 H2495 0.959 . S
C2511 H2496 0.959 . S
C2511 H2497 0.961 . S
C2511 C2510 1.502 . S
C2512 H2498 0.960 . S
C2512 H2499 0.961 . S
C2512 H2500 0.959 . S
C2512 C2510 1.561 . S
C2513 C2510 1.526 . S
C2513 C2514 1.396 . S
C2513 C2518 1.390 . S
C2514 C2508 1.465 . S
C2514 C2513 1.396 . S
C2514 C2515 1.399 . S
C2515 H2501 0.929 . S
C2515 C2514 1.399 . S
C2515 C2516 1.385 . S
C2516 H2502 0.931 . S
C2516 C2515 1.385 . S
C2516 C2517 1.389 . S
C2517 C2516 1.389 . S
C2517 C2518 1.387 . S
C2518 H2503 0.930 . S
C2518 C2513 1.390 . S
C2518 C2517 1.387 . S
H2519 C2531 0.930 . S
H2520 C2533 0.930 . S
H2521 C2534 0.930 . S
H2522 C2538 0.959 . S
H2523 C2538 0.959 . S
H2524 C2538 0.961 . S
H2525 C2539 0.960 . S
H2526 C2539 0.961 . S
H2527 C2539 0.959 . S
H2528 C2542 0.929 . S
H2529 C2543 0.931 . S
H2530 C2545 0.930 1_556 S
C2531 H2519 0.930 . S
C2531 C2532 1.399 1_556 S
C2531 C2536 1.399 1_556 S
C2532 C2531 1.399 1_554 S
C2532 C2533 1.376 . S
C2533 H2520 0.930 . S
C2533 C2532 1.376 . S
C2533 C2534 1.388 . S
C2534 H2521 0.930 . S
C2534 C2533 1.388 . S
C2534 C2535 1.390 . S
C2535 C2534 1.390 . S
C2535 C2536 1.394 . S
C2535 C2541 1.465 . S
C2536 C2531 1.399 1_554 S
C2536 C2535 1.394 . S
C2536 C2537 1.516 1_554 S
C2537 C2536 1.516 1_556 S
C2537 C2538 1.502 . S
C2537 C2539 1.561 . S
C2537 C2540 1.526 1_556 S
C2538 H2522 0.959 . S
C2538 H2523 0.959 . S
C2538 H2524 0.961 . S
C2538 C2537 1.502 . S
C2539 H2525 0.960 . S
C2539 H2526 0.961 . S
C2539 H2527 0.959 . S
C2539 C2537 1.561 . S
C2540 C2537 1.526 1_554 S
C2540 C2541 1.396 . S
C2540 C2545 1.390 . S
C2541 C2535 1.465 . S
C2541 C2540 1.396 . S
C2541 C2542 1.399 . S
C2542 H2528 0.929 . S
C2542 C2541 1.399 . S
C2542 C2543 1.385 . S
C2543 H2529 0.931 . S
C2543 C2542 1.385 . S
C2543 C2544 1.389 . S
C2544 C2543 1.389 . S
C2544 C2545 1.387 . S
C2545 H2530 0.930 1_554 S
C2545 C2540 1.390 . S
C2545 C2544 1.387 . S
H2546 C2558 0.930 . S
H2547 C2560 0.930 . S
H2548 C2561 0.930 . S
H2549 C2565 0.959 . S
H2550 C2565 0.959 . S
H2551 C2565 0.961 . S
H2552 C2566 0.960 . S
H2553 C2566 0.961 . S
H2554 C2566 0.959 . S
H2555 C2569 0.929 . S
H2556 C2570 0.931 . S
H2557 C2572 0.930 . S
C2558 H2546 0.930 . S
C2558 C2559 1.399 . S
C2558 C2563 1.399 . S
C2559 C2558 1.399 . S
C2559 C2560 1.376 . S
C2560 H2547 0.930 . S
C2560 C2559 1.376 . S
C2560 C2561 1.388 . S
C2561 H2548 0.930 . S
C2561 C2560 1.388 . S
C2561 C2562 1.390 . S
C2562 C2561 1.390 . S
C2562 C2563 1.394 . S
C2562 C2568 1.465 . S
C2563 C2558 1.399 . S
C2563 C2562 1.394 . S
C2563 C2564 1.516 . S
C2564 C2563 1.516 . S
C2564 C2565 1.502 . S
C2564 C2566 1.561 . S
C2564 C2567 1.526 . S
C2565 H2549 0.959 . S
C2565 H2550 0.959 . S
C2565 H2551 0.961 . S
C2565 C2564 1.502 . S
C2566 H2552 0.960 . S
C2566 H2553 0.961 . S
C2566 H2554 0.959 . S
C2566 C2564 1.561 . S
C2567 C2564 1.526 . S
C2567 C2568 1.396 . S
C2567 C2572 1.390 . S
C2568 C2562 1.465 . S
C2568 C2567 1.396 . S
C2568 C2569 1.399 . S
C2569 H2555 0.929 . S
C2569 C2568 1.399 . S
C2569 C2570 1.385 . S
C2570 H2556 0.931 . S
C2570 C2569 1.385 . S
C2570 C2571 1.389 . S
C2571 C2570 1.389 . S
C2571 C2572 1.387 . S
C2572 H2557 0.930 . S
C2572 C2567 1.390 . S
C2572 C2571 1.387 . S
H2573 C2585 0.930 . S
H2574 C2587 0.930 . S
H2575 C2588 0.930 . S
H2576 C2592 0.959 . S
H2577 C2592 0.959 . S
H2578 C2592 0.961 . S
H2579 C2593 0.960 . S
H2580 C2593 0.961 . S
H2581 C2593 0.959 . S
H2582 C2596 0.929 . S
H2583 C2597 0.931 . S
H2584 C2599 0.930 . S
C2585 H2573 0.930 . S
C2585 C2586 1.399 . S
C2585 C2590 1.399 . S
C2586 C2585 1.399 . S
C2586 C2587 1.376 . S
C2587 H2574 0.930 . S
C2587 C2586 1.376 . S
C2587 C2588 1.388 . S
C2588 H2575 0.930 . S
C2588 C2587 1.388 . S
C2588 C2589 1.390 . S
C2589 C2588 1.390 . S
C2589 C2590 1.394 . S
C2589 C2595 1.465 . S
C2590 C2585 1.399 . S
C2590 C2589 1.394 . S
C2590 C2591 1.516 . S
C2591 C2590 1.516 . S
C2591 C2592 1.502 . S
C2591 C2593 1.561 . S
C2591 C2594 1.526 . S
C2592 H2576 0.959 . S
C2592 H2577 0.959 . S
C2592 H2578 0.961 . S
C2592 C2591 1.502 . S
C2593 H2579 0.960 . S
C2593 H2580 0.961 . S
C2593 H2581 0.959 . S
C2593 C2591 1.561 . S
C2594 C2591 1.526 . S
C2594 C2595 1.396 . S
C2594 C2599 1.390 . S
C2595 C2589 1.465 . S
C2595 C2594 1.396 . S
C2595 C2596 1.399 . S
C2596 H2582 0.929 . S
C2596 C2595 1.399 . S
C2596 C2597 1.385 . S
C2597 H2583 0.931 . S
C2597 C2596 1.385 . S
C2597 C2598 1.389 . S
C2598 C2597 1.389 . S
C2598 C2599 1.387 . S
C2599 H2584 0.930 . S
C2599 C2594 1.390 . S
C2599 C2598 1.387 . S
H2600 C2612 0.930 . S
H2601 C2614 0.930 . S
H2602 C2615 0.930 . S
H2603 C2619 0.959 . S
H2604 C2619 0.959 . S
H2605 C2619 0.961 . S
H2606 C2620 0.960 . S
H2607 C2620 0.961 . S
H2608 C2620 0.959 . S
H2609 C2623 0.929 . S
H2610 C2624 0.931 . S
H2611 C2626 0.930 . S
C2612 H2600 0.930 . S
C2612 C2613 1.399 . S
C2612 C2617 1.399 . S
C2613 C2612 1.399 . S
C2613 C2614 1.376 . S
C2614 H2601 0.930 . S
C2614 C2613 1.376 . S
C2614 C2615 1.388 . S
C2615 H2602 0.930 . S
C2615 C2614 1.388 . S
C2615 C2616 1.390 . S
C2616 C2615 1.390 . S
C2616 C2617 1.394 . S
C2616 C2622 1.465 . S
C2617 C2612 1.399 . S
C2617 C2616 1.394 . S
C2617 C2618 1.516 . S
C2618 C2617 1.516 . S
C2618 C2619 1.502 . S
C2618 C2620 1.561 . S
C2618 C2621 1.526 . S
C2619 H2603 0.959 . S
C2619 H2604 0.959 . S
C2619 H2605 0.961 . S
C2619 C2618 1.502 . S
C2620 H2606 0.960 . S
C2620 H2607 0.961 . S
C2620 H2608 0.959 . S
C2620 C2618 1.561 . S
C2621 C2618 1.526 . S
C2621 C2622 1.396 . S
C2621 C2626 1.390 . S
C2622 C2616 1.465 . S
C2622 C2621 1.396 . S
C2622 C2623 1.399 . S
C2623 H2609 0.929 . S
C2623 C2622 1.399 . S
C2623 C2624 1.385 . S
C2624 H2610 0.931 . S
C2624 C2623 1.385 . S
C2624 C2625 1.389 . S
C2625 C2624 1.389 . S
C2625 C2626 1.387 . S
C2626 H2611 0.930 . S
C2626 C2621 1.390 . S
C2626 C2625 1.387 . S
H2627 C2639 0.930 . S
H2628 C2641 0.930 . S
H2629 C2642 0.930 . S
H2630 C2646 0.959 . S
H2631 C2646 0.959 . S
H2632 C2646 0.961 . S
H2633 C2647 0.960 . S
H2634 C2647 0.961 . S
H2635 C2647 0.959 . S
H2636 C2650 0.929 . S
H2637 C2651 0.931 . S
H2638 C2653 0.930 . S
C2639 H2627 0.930 . S
C2639 C2640 1.399 . S
C2639 C2644 1.399 . S
C2640 C2639 1.399 . S
C2640 C2641 1.376 . S
C2641 H2628 0.930 . S
C2641 C2640 1.376 . S
C2641 C2642 1.388 . S
C2642 H2629 0.930 . S
C2642 C2641 1.388 . S
C2642 C2643 1.390 . S
C2643 C2642 1.390 . S
C2643 C2644 1.394 . S
C2643 C2649 1.465 . S
C2644 C2639 1.399 . S
C2644 C2643 1.394 . S
C2644 C2645 1.516 . S
C2645 C2644 1.516 . S
C2645 C2646 1.502 . S
C2645 C2647 1.561 . S
C2645 C2648 1.526 . S
C2646 H2630 0.959 . S
C2646 H2631 0.959 . S
C2646 H2632 0.961 . S
C2646 C2645 1.502 . S
C2647 H2633 0.960 . S
C2647 H2634 0.961 . S
C2647 H2635 0.959 . S
C2647 C2645 1.561 . S
C2648 C2645 1.526 . S
C2648 C2649 1.396 . S
C2648 C2653 1.390 . S
C2649 C2643 1.465 . S
C2649 C2648 1.396 . S
C2649 C2650 1.399 . S
C2650 H2636 0.929 . S
C2650 C2649 1.399 . S
C2650 C2651 1.385 . S
C2651 H2637 0.931 . S
C2651 C2650 1.385 . S
C2651 C2652 1.389 . S
C2652 C2651 1.389 . S
C2652 C2653 1.387 . S
C2653 H2638 0.930 . S
C2653 C2648 1.390 . S
C2653 C2652 1.387 . S
H2654 C2666 0.930 . S
H2655 C2668 0.930 . S
H2656 C2669 0.930 . S
H2657 C2673 0.959 . S
H2658 C2673 0.959 . S
H2659 C2673 0.961 . S
H2660 C2674 0.960 . S
H2661 C2674 0.961 . S
H2662 C2674 0.959 . S
H2663 C2677 0.929 . S
H2664 C2678 0.931 . S
H2665 C2680 0.930 . S
C2666 H2654 0.930 . S
C2666 C2667 1.400 1_455 S
C2666 C2671 1.399 . S
C2667 C2666 1.400 1_655 S
C2667 C2668 1.376 . S
C2668 H2655 0.930 . S
C2668 C2667 1.376 . S
C2668 C2669 1.388 . S
C2669 H2656 0.930 . S
C2669 C2668 1.388 . S
C2669 C2670 1.390 . S
C2670 C2669 1.390 . S
C2670 C2671 1.394 1_655 S
C2670 C2676 1.474 . S
C2671 C2666 1.399 . S
C2671 C2670 1.394 1_455 S
C2671 C2672 1.516 . S
C2672 C2671 1.516 . S
C2672 C2673 1.502 . S
C2672 C2674 1.561 1_455 S
C2672 C2675 1.526 . S
C2673 H2657 0.959 . S
C2673 H2658 0.959 . S
C2673 H2659 0.961 . S
C2673 C2672 1.502 . S
C2674 H2660 0.960 . S
C2674 H2661 0.961 . S
C2674 H2662 0.959 . S
C2674 C2672 1.561 1_655 S
C2675 C2672 1.526 . S
C2675 C2676 1.387 1_455 S
C2675 C2680 1.390 . S
C2676 C2670 1.474 . S
C2676 C2675 1.387 1_655 S
C2676 C2677 1.399 . S
C2677 H2663 0.929 . S
C2677 C2676 1.399 . S
C2677 C2678 1.385 . S
C2678 H2664 0.931 . S
C2678 C2677 1.385 . S
C2678 C2679 1.389 1_655 S
C2679 C2678 1.389 1_455 S
C2679 C2680 1.387 . S
C2680 H2665 0.930 . S
C2680 C2675 1.390 . S
C2680 C2679 1.387 . S
H2681 C2693 0.930 . S
H2682 C2695 0.930 . S
H2683 C2696 0.930 . S
H2684 C2700 0.959 . S
H2685 C2700 0.959 . S
H2686 C2700 0.961 . S
H2687 C2701 0.960 . S
H2688 C2701 0.961 . S
H2689 C2701 0.959 . S
H2690 C2704 0.929 . S
H2691 C2705 0.931 . S
H2692 C2707 0.930 . S
C2693 H2681 0.930 . S
C2693 C2694 1.399 . S
C2693 C2698 1.399 . S
C2694 C2693 1.399 . S
C2694 C2695 1.376 . S
C2695 H2682 0.930 . S
C2695 C2694 1.376 . S
C2695 C2696 1.388 . S
C2696 H2683 0.930 . S
C2696 C2695 1.388 . S
C2696 C2697 1.390 . S
C2697 C2696 1.390 . S
C2697 C2698 1.394 . S
C2697 C2703 1.465 . S
C2698 C2693 1.399 . S
C2698 C2697 1.394 . S
C2698 C2699 1.516 . S
C2699 C2698 1.516 . S
C2699 C2700 1.502 . S
C2699 C2701 1.561 . S
C2699 C2702 1.526 . S
C2700 H2684 0.959 . S
C2700 H2685 0.959 . S
C2700 H2686 0.961 . S
C2700 C2699 1.502 . S
C2701 H2687 0.960 . S
C2701 H2688 0.961 . S
C2701 H2689 0.959 . S
C2701 C2699 1.561 . S
C2702 C2699 1.526 . S
C2702 C2703 1.396 . S
C2702 C2707 1.390 . S
C2703 C2697 1.465 . S
C2703 C2702 1.396 . S
C2703 C2704 1.399 . S
C2704 H2690 0.929 . S
C2704 C2703 1.399 . S
C2704 C2705 1.385 . S
C2705 H2691 0.931 . S
C2705 C2704 1.385 . S
C2705 C2706 1.389 . S
C2706 C2705 1.389 . S
C2706 C2707 1.387 . S
C2707 H2692 0.930 . S
C2707 C2702 1.390 . S
C2707 C2706 1.387 . S
H2708 C2720 0.930 . S
H2709 C2722 0.930 . S
H2710 C2723 0.930 . S
H2711 C2727 0.959 . S
H2712 C2727 0.959 1_554 S
H2713 C2727 0.960 1_554 S
H2714 C2728 0.960 . S
H2715 C2728 0.961 1_554 S
H2716 C2728 0.959 . S
H2717 C2731 0.929 . S
H2718 C2732 0.931 . S
H2719 C2734 0.930 1_554 S
C2720 H2708 0.930 . S
C2720 C2721 1.399 . S
C2720 C2725 1.399 . S
C2721 C2720 1.399 . S
C2721 C2722 1.376 . S
C2722 H2709 0.930 . S
C2722 C2721 1.376 . S
C2722 C2723 1.388 . S
C2723 H2710 0.930 . S
C2723 C2722 1.388 . S
C2723 C2724 1.390 . S
C2724 C2723 1.390 . S
C2724 C2725 1.394 . S
C2724 C2730 1.465 . S
C2725 C2720 1.399 . S
C2725 C2724 1.394 . S
C2725 C2726 1.516 . S
C2726 C2725 1.516 . S
C2726 C2727 1.502 . S
C2726 C2728 1.561 . S
C2726 C2729 1.526 . S
C2727 H2711 0.959 . S
C2727 H2712 0.959 1_556 S
C2727 H2713 0.960 1_556 S
C2727 C2726 1.502 . S
C2728 H2714 0.960 . S
C2728 H2715 0.961 1_556 S
C2728 H2716 0.959 . S
C2728 C2726 1.561 . S
C2729 C2726 1.526 . S
C2729 C2730 1.396 . S
C2729 C2734 1.390 . S
C2730 C2724 1.465 . S
C2730 C2729 1.396 . S
C2730 C2731 1.399 . S
C2731 H2717 0.929 . S
C2731 C2730 1.399 . S
C2731 C2732 1.385 . S
C2732 H2718 0.931 . S
C2732 C2731 1.385 . S
C2732 C2733 1.389 . S
C2733 C2732 1.389 . S
C2733 C2734 1.387 . S
C2734 H2719 0.930 1_556 S
C2734 C2729 1.390 . S
C2734 C2733 1.387 . S
H2735 C2747 0.930 . S
H2736 C2749 0.930 . S
H2737 C2750 0.930 . S
H2738 C2754 0.959 . S
H2739 C2754 0.959 . S
H2740 C2754 0.961 . S
H2741 C2755 0.960 . S
H2742 C2755 0.961 . S
H2743 C2755 0.959 . S
H2744 C2758 0.929 . S
H2745 C2759 0.931 . S
H2746 C2761 0.930 . S
C2747 H2735 0.930 . S
C2747 C2748 1.399 . S
C2747 C2752 1.399 . S
C2748 C2747 1.399 . S
C2748 C2749 1.376 . S
C2749 H2736 0.930 . S
C2749 C2748 1.376 . S
C2749 C2750 1.388 . S
C2750 H2737 0.930 . S
C2750 C2749 1.388 . S
C2750 C2751 1.390 . S
C2751 C2750 1.390 . S
C2751 C2752 1.394 . S
C2751 C2757 1.465 . S
C2752 C2747 1.399 . S
C2752 C2751 1.394 . S
C2752 C2753 1.516 . S
C2753 C2752 1.516 . S
C2753 C2754 1.502 . S
C2753 C2755 1.561 . S
C2753 C2756 1.526 . S
C2754 H2738 0.959 . S
C2754 H2739 0.959 . S
C2754 H2740 0.961 . S
C2754 C2753 1.502 . S
C2755 H2741 0.960 . S
C2755 H2742 0.961 . S
C2755 H2743 0.959 . S
C2755 C2753 1.561 . S
C2756 C2753 1.526 . S
C2756 C2757 1.396 . S
C2756 C2761 1.390 . S
C2757 C2751 1.465 . S
C2757 C2756 1.396 . S
C2757 C2758 1.399 . S
C2758 H2744 0.929 . S
C2758 C2757 1.399 . S
C2758 C2759 1.385 . S
C2759 H2745 0.931 . S
C2759 C2758 1.385 . S
C2759 C2760 1.389 . S
C2760 C2759 1.389 . S
C2760 C2761 1.387 . S
C2761 H2746 0.930 . S
C2761 C2756 1.390 . S
C2761 C2760 1.387 . S
H2762 C2774 0.930 . S
H2763 C2776 0.930 . S
H2764 C2777 0.930 . S
H2765 C2781 0.959 . S
H2766 C2781 0.959 . S
H2767 C2781 0.961 . S
H2768 C2782 0.960 . S
H2769 C2782 0.961 . S
H2770 C2782 0.959 . S
H2771 C2785 0.929 . S
H2772 C2786 0.931 . S
H2773 C2788 0.930 . S
C2774 H2762 0.930 . S
C2774 C2775 1.399 . S
C2774 C2779 1.399 . S
C2775 C2774 1.399 . S
C2775 C2776 1.376 1_455 S
C2776 H2763 0.930 . S
C2776 C2775 1.376 1_655 S
C2776 C2777 1.388 . S
C2777 H2764 0.930 . S
C2777 C2776 1.388 . S
C2777 C2778 1.390 1_655 S
C2778 C2777 1.390 1_455 S
C2778 C2779 1.394 . S
C2778 C2784 1.465 . S
C2779 C2774 1.399 . S
C2779 C2778 1.394 . S
C2779 C2780 1.516 . S
C2780 C2779 1.516 . S
C2780 C2781 1.502 . S
C2780 C2782 1.561 . S
C2780 C2783 1.526 . S
C2781 H2765 0.959 . S
C2781 H2766 0.959 . S
C2781 H2767 0.961 . S
C2781 C2780 1.502 . S
C2782 H2768 0.960 . S
C2782 H2769 0.961 . S
C2782 H2770 0.959 . S
C2782 C2780 1.561 . S
C2783 C2780 1.526 . S
C2783 C2784 1.396 . S
C2783 C2788 1.390 . S
C2784 C2778 1.465 . S
C2784 C2783 1.396 . S
C2784 C2785 1.399 1_455 S
C2785 H2771 0.929 . S
C2785 C2784 1.399 1_655 S
C2785 C2786 1.385 . S
C2786 H2772 0.931 . S
C2786 C2785 1.385 . S
C2786 C2787 1.389 1_655 S
C2787 C2786 1.389 1_455 S
C2787 C2788 1.387 . S
C2788 H2773 0.930 . S
C2788 C2783 1.390 . S
C2788 C2787 1.387 . S
H2789 C2801 0.930 . S
H2790 C2803 0.930 . S
H2791 C2804 0.930 . S
H2792 C2808 0.959 . S
H2793 C2808 0.959 . S
H2794 C2808 0.961 . S
H2795 C2809 0.960 . S
H2796 C2809 0.961 . S
H2797 C2809 0.959 . S
H2798 C2812 0.929 . S
H2799 C2813 0.931 . S
H2800 C2815 0.930 . S
C2801 H2789 0.930 . S
C2801 C2802 1.399 . S
C2801 C2806 1.399 . S
C2802 C2801 1.399 . S
C2802 C2803 1.376 . S
C2803 H2790 0.930 . S
C2803 C2802 1.376 . S
C2803 C2804 1.388 . S
C2804 H2791 0.930 . S
C2804 C2803 1.388 . S
C2804 C2805 1.390 . S
C2805 C2804 1.390 . S
C2805 C2806 1.394 . S
C2805 C2811 1.465 . S
C2806 C2801 1.399 . S
C2806 C2805 1.394 . S
C2806 C2807 1.516 . S
C2807 C2806 1.516 . S
C2807 C2808 1.502 . S
C2807 C2809 1.561 . S
C2807 C2810 1.526 . S
C2808 H2792 0.959 . S
C2808 H2793 0.959 . S
C2808 H2794 0.961 . S
C2808 C2807 1.502 . S
C2809 H2795 0.960 . S
C2809 H2796 0.961 . S
C2809 H2797 0.959 . S
C2809 C2807 1.561 . S
C2810 C2807 1.526 . S
C2810 C2811 1.396 . S
C2810 C2815 1.390 . S
C2811 C2805 1.465 . S
C2811 C2810 1.396 . S
C2811 C2812 1.399 . S
C2812 H2798 0.929 . S
C2812 C2811 1.399 . S
C2812 C2813 1.385 . S
C2813 H2799 0.931 . S
C2813 C2812 1.385 . S
C2813 C2814 1.389 . S
C2814 C2813 1.389 . S
C2814 C2815 1.387 . S
C2815 H2800 0.930 . S
C2815 C2810 1.390 . S
C2815 C2814 1.387 . S
H2816 C2828 0.930 . S
H2817 C2830 0.930 . S
H2818 C2831 0.930 . S
H2819 C2835 0.959 . S
H2820 C2835 0.959 . S
H2821 C2835 0.961 . S
H2822 C2836 0.960 . S
H2823 C2836 0.961 . S
H2824 C2836 0.959 . S
H2825 C2839 0.929 . S
H2826 C2840 0.931 . S
H2827 C2842 0.930 . S
C2828 H2816 0.930 . S
C2828 C2829 1.399 . S
C2828 C2833 1.399 . S
C2829 C2828 1.399 . S
C2829 C2830 1.376 . S
C2830 H2817 0.930 . S
C2830 C2829 1.376 . S
C2830 C2831 1.388 . S
C2831 H2818 0.930 . S
C2831 C2830 1.388 . S
C2831 C2832 1.390 . S
C2832 C2831 1.390 . S
C2832 C2833 1.394 . S
C2832 C2838 1.465 . S
C2833 C2828 1.399 . S
C2833 C2832 1.394 . S
C2833 C2834 1.516 . S
C2834 C2833 1.516 . S
C2834 C2835 1.502 . S
C2834 C2836 1.561 . S
C2834 C2837 1.526 . S
C2835 H2819 0.959 . S
C2835 H2820 0.959 . S
C2835 H2821 0.961 . S
C2835 C2834 1.502 . S
C2836 H2822 0.960 . S
C2836 H2823 0.961 . S
C2836 H2824 0.959 . S
C2836 C2834 1.561 . S
C2837 C2834 1.526 . S
C2837 C2838 1.396 . S
C2837 C2842 1.390 . S
C2838 C2832 1.465 . S
C2838 C2837 1.396 . S
C2838 C2839 1.399 . S
C2839 H2825 0.929 . S
C2839 C2838 1.399 . S
C2839 C2840 1.385 . S
C2840 H2826 0.931 . S
C2840 C2839 1.385 . S
C2840 C2841 1.389 . S
C2841 C2840 1.389 . S
C2841 C2842 1.387 . S
C2842 H2827 0.930 . S
C2842 C2837 1.390 . S
C2842 C2841 1.387 . S
H2843 C2855 0.930 . S
H2844 C2857 0.930 . S
H2845 C2858 0.930 . S
H2846 C2862 0.959 . S
H2847 C2862 0.959 . S
H2848 C2862 0.961 . S
H2849 C2863 0.960 . S
H2850 C2863 0.961 . S
H2851 C2863 0.959 . S
H2852 C2866 0.929 . S
H2853 C2867 0.931 . S
H2854 C2869 0.930 . S
C2855 H2843 0.930 . S
C2855 C2856 1.399 . S
C2855 C2860 1.399 . S
C2856 C2855 1.399 . S
C2856 C2857 1.376 . S
C2857 H2844 0.930 . S
C2857 C2856 1.376 . S
C2857 C2858 1.388 . S
C2858 H2845 0.930 . S
C2858 C2857 1.388 . S
C2858 C2859 1.390 . S
C2859 C2858 1.390 . S
C2859 C2860 1.394 . S
C2859 C2865 1.465 . S
C2860 C2855 1.399 . S
C2860 C2859 1.394 . S
C2860 C2861 1.516 . S
C2861 C2860 1.516 . S
C2861 C2862 1.502 . S
C2861 C2863 1.561 . S
C2861 C2864 1.526 . S
C2862 H2846 0.959 . S
C2862 H2847 0.959 . S
C2862 H2848 0.961 . S
C2862 C2861 1.502 . S
C2863 H2849 0.960 . S
C2863 H2850 0.961 . S
C2863 H2851 0.959 . S
C2863 C2861 1.561 . S
C2864 C2861 1.526 . S
C2864 C2865 1.396 . S
C2864 C2869 1.390 . S
C2865 C2859 1.465 . S
C2865 C2864 1.396 . S
C2865 C2866 1.399 . S
C2866 H2852 0.929 . S
C2866 C2865 1.399 . S
C2866 C2867 1.385 . S
C2867 H2853 0.931 . S
C2867 C2866 1.385 . S
C2867 C2868 1.389 . S
C2868 C2867 1.389 . S
C2868 C2869 1.387 . S
C2869 H2854 0.930 . S
C2869 C2864 1.390 . S
C2869 C2868 1.387 . S
H2870 C2882 0.930 . S
H2871 C2884 0.930 . S
H2872 C2885 0.930 . S
H2873 C2889 0.959 . S
H2874 C2889 0.959 . S
H2875 C2889 0.961 . S
H2876 C2890 0.960 . S
H2877 C2890 0.961 . S
H2878 C2890 0.959 . S
H2879 C2893 0.929 . S
H2880 C2894 0.931 . S
H2881 C2896 0.930 1_455 S
C2882 H2870 0.930 . S
C2882 C2883 1.399 . S
C2882 C2887 1.399 . S
C2883 C2882 1.399 . S
C2883 C2884 1.376 . S
C2884 H2871 0.930 . S
C2884 C2883 1.376 . S
C2884 C2885 1.388 . S
C2885 H2872 0.930 . S
C2885 C2884 1.388 . S
C2885 C2886 1.390 . S
C2886 C2885 1.390 . S
C2886 C2887 1.394 . S
C2886 C2892 1.465 . S
C2887 C2882 1.399 . S
C2887 C2886 1.394 . S
C2887 C2888 1.516 . S
C2888 C2887 1.516 . S
C2888 C2889 1.502 1_655 S
C2888 C2890 1.561 . S
C2888 C2891 1.526 . S
C2889 H2873 0.959 . S
C2889 H2874 0.959 . S
C2889 H2875 0.961 . S
C2889 C2888 1.502 1_455 S
C2890 H2876 0.960 . S
C2890 H2877 0.961 . S
C2890 H2878 0.959 . S
C2890 C2888 1.561 . S
C2891 C2888 1.526 . S
C2891 C2892 1.396 . S
C2891 C2896 1.390 . S
C2892 C2886 1.465 . S
C2892 C2891 1.396 . S
C2892 C2893 1.399 . S
C2893 H2879 0.929 . S
C2893 C2892 1.399 . S
C2893 C2894 1.385 . S
C2894 H2880 0.931 . S
C2894 C2893 1.385 . S
C2894 C2895 1.389 . S
C2895 C2894 1.389 . S
C2895 C2896 1.387 . S
C2896 H2881 0.930 1_655 S
C2896 C2891 1.390 . S
C2896 C2895 1.387 . S
H2897 C2909 0.930 . S
H2898 C2911 0.930 . S
H2899 C2912 0.930 . S
H2900 C2916 0.959 . S
H2901 C2916 0.959 . S
H2902 C2916 0.961 . S
H2903 C2917 0.960 . S
H2904 C2917 0.961 . S
H2905 C2917 0.959 . S
H2906 C2920 0.929 . S
H2907 C2921 0.931 . S
H2908 C2923 0.930 . S
C2909 H2897 0.930 . S
C2909 C2910 1.399 . S
C2909 C2914 1.399 . S
C2910 C2909 1.399 . S
C2910 C2911 1.376 . S
C2911 H2898 0.930 . S
C2911 C2910 1.376 . S
C2911 C2912 1.388 . S
C2912 H2899 0.930 . S
C2912 C2911 1.388 . S
C2912 C2913 1.390 . S
C2913 C2912 1.390 . S
C2913 C2914 1.394 . S
C2913 C2919 1.465 . S
C2914 C2909 1.399 . S
C2914 C2913 1.394 . S
C2914 C2915 1.516 . S
C2915 C2914 1.516 . S
C2915 C2916 1.502 . S
C2915 C2917 1.561 . S
C2915 C2918 1.526 . S
C2916 H2900 0.959 . S
C2916 H2901 0.959 . S
C2916 H2902 0.961 . S
C2916 C2915 1.502 . S
C2917 H2903 0.960 . S
C2917 H2904 0.961 . S
C2917 H2905 0.959 . S
C2917 C2915 1.561 . S
C2918 C2915 1.526 . S
C2918 C2919 1.396 . S
C2918 C2923 1.390 . S
C2919 C2913 1.465 . S
C2919 C2918 1.396 . S
C2919 C2920 1.399 . S
C2920 H2906 0.929 . S
C2920 C2919 1.399 . S
C2920 C2921 1.385 . S
C2921 H2907 0.931 . S
C2921 C2920 1.385 . S
C2921 C2922 1.389 . S
C2922 C2921 1.389 . S
C2922 C2923 1.387 . S
C2923 H2908 0.930 . S
C2923 C2918 1.390 . S
C2923 C2922 1.387 . S
H2924 C2936 0.930 . S
H2925 C2938 0.930 . S
H2926 C2939 0.930 . S
H2927 C2943 0.959 . S
H2928 C2943 0.959 . S
H2929 C2943 0.961 . S
H2930 C2944 0.960 . S
H2931 C2944 0.961 . S
H2932 C2944 0.959 . S
H2933 C2947 0.929 . S
H2934 C2948 0.931 . S
H2935 C2950 0.930 . S
C2936 H2924 0.930 . S
C2936 C2937 1.399 . S
C2936 C2941 1.399 . S
C2937 C2936 1.399 . S
C2937 C2938 1.376 . S
C2938 H2925 0.930 . S
C2938 C2937 1.376 . S
C2938 C2939 1.388 . S
C2939 H2926 0.930 . S
C2939 C2938 1.388 . S
C2939 C2940 1.390 . S
C2940 C2939 1.390 . S
C2940 C2941 1.394 . S
C2940 C2946 1.465 . S
C2941 C2936 1.399 . S
C2941 C2940 1.394 . S
C2941 C2942 1.516 . S
C2942 C2941 1.516 . S
C2942 C2943 1.502 . S
C2942 C2944 1.561 . S
C2942 C2945 1.526 . S
C2943 H2927 0.959 . S
C2943 H2928 0.959 . S
C2943 H2929 0.961 . S
C2943 C2942 1.502 . S
C2944 H2930 0.960 . S
C2944 H2931 0.961 . S
C2944 H2932 0.959 . S
C2944 C2942 1.561 . S
C2945 C2942 1.526 . S
C2945 C2946 1.396 . S
C2945 C2950 1.390 . S
C2946 C2940 1.465 . S
C2946 C2945 1.396 . S
C2946 C2947 1.399 . S
C2947 H2933 0.929 . S
C2947 C2946 1.399 . S
C2947 C2948 1.385 . S
C2948 H2934 0.931 . S
C2948 C2947 1.385 . S
C2948 C2949 1.389 . S
C2949 C2948 1.389 . S
C2949 C2950 1.387 . S
C2950 H2935 0.930 . S
C2950 C2945 1.390 . S
C2950 C2949 1.387 . S
H2951 C2963 0.930 . S
H2952 C2965 0.930 . S
H2953 C2966 0.930 . S
H2954 C2970 0.959 . S
H2955 C2970 0.959 . S
H2956 C2970 0.961 . S
H2957 C2971 0.960 . S
H2958 C2971 0.961 . S
H2959 C2971 0.959 . S
H2960 C2974 0.929 . S
H2961 C2975 0.931 . S
H2962 C2977 0.930 . S
C2963 H2951 0.930 . S
C2963 C2964 1.399 . S
C2963 C2968 1.399 . S
C2964 C2963 1.399 . S
C2964 C2965 1.376 . S
C2965 H2952 0.930 . S
C2965 C2964 1.376 . S
C2965 C2966 1.388 . S
C2966 H2953 0.930 . S
C2966 C2965 1.388 . S
C2966 C2967 1.390 . S
C2967 C2966 1.390 . S
C2967 C2968 1.394 . S
C2967 C2973 1.465 . S
C2968 C2963 1.399 . S
C2968 C2967 1.394 . S
C2968 C2969 1.516 . S
C2969 C2968 1.516 . S
C2969 C2970 1.502 . S
C2969 C2971 1.561 . S
C2969 C2972 1.526 . S
C2970 H2954 0.959 . S
C2970 H2955 0.959 . S
C2970 H2956 0.961 . S
C2970 C2969 1.502 . S
C2971 H2957 0.960 . S
C2971 H2958 0.961 . S
C2971 H2959 0.959 . S
C2971 C2969 1.561 . S
C2972 C2969 1.526 . S
C2972 C2973 1.396 . S
C2972 C2977 1.390 . S
C2973 C2967 1.465 . S
C2973 C2972 1.396 . S
C2973 C2974 1.399 . S
C2974 H2960 0.929 . S
C2974 C2973 1.399 . S
C2974 C2975 1.385 . S
C2975 H2961 0.931 . S
C2975 C2974 1.385 . S
C2975 C2976 1.389 . S
C2976 C2975 1.389 . S
C2976 C2977 1.387 . S
C2977 H2962 0.930 . S
C2977 C2972 1.390 . S
C2977 C2976 1.387 . S
H2978 C2990 0.930 . S
H2979 C2992 0.930 . S
H2980 C2993 0.930 . S
H2981 C2997 0.959 1_455 S
H2982 C2997 0.959 1_455 S
H2983 C2997 0.961 . S
H2984 C2998 0.960 . S
H2985 C2998 0.961 . S
H2986 C2998 0.959 . S
H2987 C3001 0.929 . S
H2988 C3002 0.931 . S
H2989 C3004 0.930 . S
C2990 H2978 0.930 . S
C2990 C2991 1.399 . S
C2990 C2995 1.399 . S
C2991 C2990 1.399 . S
C2991 C2992 1.376 . S
C2992 H2979 0.930 . S
C2992 C2991 1.376 . S
C2992 C2993 1.388 . S
C2993 H2980 0.930 . S
C2993 C2992 1.388 . S
C2993 C2994 1.390 . S
C2994 C2993 1.390 . S
C2994 C2995 1.394 . S
C2994 C3000 1.465 . S
C2995 C2990 1.399 . S
C2995 C2994 1.394 . S
C2995 C2996 1.516 . S
C2996 C2995 1.516 . S
C2996 C2997 1.502 . S
C2996 C2998 1.561 . S
C2996 C2999 1.526 . S
C2997 H2981 0.959 1_655 S
C2997 H2982 0.959 1_655 S
C2997 H2983 0.961 . S
C2997 C2996 1.502 . S
C2998 H2984 0.960 . S
C2998 H2985 0.961 . S
C2998 H2986 0.959 . S
C2998 C2996 1.561 . S
C2999 C2996 1.526 . S
C2999 C3000 1.396 . S
C2999 C3004 1.390 . S
C3000 C2994 1.465 . S
C3000 C2999 1.396 . S
C3000 C3001 1.399 . S
C3001 H2987 0.929 . S
C3001 C3000 1.399 . S
C3001 C3002 1.385 . S
C3002 H2988 0.931 . S
C3002 C3001 1.385 . S
C3002 C3003 1.389 . S
C3003 C3002 1.389 . S
C3003 C3004 1.387 . S
C3004 H2989 0.930 . S
C3004 C2999 1.390 . S
C3004 C3003 1.387 . S
H3005 C3017 0.930 . S
H3006 C3019 0.930 . S
H3007 C3020 0.930 . S
H3008 C3024 0.959 . S
H3009 C3024 0.959 . S
H3010 C3024 0.961 . S
H3011 C3025 0.960 . S
H3012 C3025 0.961 . S
H3013 C3025 0.959 . S
H3014 C3028 0.929 . S
H3015 C3029 0.931 . S
H3016 C3031 0.930 . S
C3017 H3005 0.930 . S
C3017 C3018 1.399 . S
C3017 C3022 1.399 . S
C3018 C3017 1.399 . S
C3018 C3019 1.376 . S
C3019 H3006 0.930 . S
C3019 C3018 1.376 . S
C3019 C3020 1.388 . S
C3020 H3007 0.930 . S
C3020 C3019 1.388 . S
C3020 C3021 1.390 . S
C3021 C3020 1.390 . S
C3021 C3022 1.394 . S
C3021 C3027 1.465 . S
C3022 C3017 1.399 . S
C3022 C3021 1.394 . S
C3022 C3023 1.516 . S
C3023 C3022 1.516 . S
C3023 C3024 1.502 . S
C3023 C3025 1.561 . S
C3023 C3026 1.526 . S
C3024 H3008 0.959 . S
C3024 H3009 0.959 . S
C3024 H3010 0.961 . S
C3024 C3023 1.502 . S
C3025 H3011 0.960 . S
C3025 H3012 0.961 . S
C3025 H3013 0.959 . S
C3025 C3023 1.561 . S
C3026 C3023 1.526 . S
C3026 C3027 1.396 . S
C3026 C3031 1.390 . S
C3027 C3021 1.465 . S
C3027 C3026 1.396 . S
C3027 C3028 1.399 . S
C3028 H3014 0.929 . S
C3028 C3027 1.399 . S
C3028 C3029 1.385 . S
C3029 H3015 0.931 . S
C3029 C3028 1.385 . S
C3029 C3030 1.389 . S
C3030 C3029 1.389 . S
C3030 C3031 1.387 . S
C3031 H3016 0.930 . S
C3031 C3026 1.390 . S
C3031 C3030 1.387 . S
H3032 C3044 0.930 . S
H3033 C3046 0.930 . S
H3034 C3047 0.930 . S
H3035 C3051 0.959 . S
H3036 C3051 0.959 . S
H3037 C3051 0.961 . S
H3038 C3052 0.960 . S
H3039 C3052 0.961 . S
H3040 C3052 0.959 . S
H3041 C3055 0.929 . S
H3042 C3056 0.931 . S
H3043 C3058 0.930 . S
C3044 H3032 0.930 . S
C3044 C3045 1.399 . S
C3044 C3049 1.399 . S
C3045 C3044 1.399 . S
C3045 C3046 1.376 . S
C3046 H3033 0.930 . S
C3046 C3045 1.376 . S
C3046 C3047 1.388 . S
C3047 H3034 0.930 . S
C3047 C3046 1.388 . S
C3047 C3048 1.390 . S
C3048 C3047 1.390 . S
C3048 C3049 1.394 . S
C3048 C3054 1.465 . S
C3049 C3044 1.399 . S
C3049 C3048 1.394 . S
C3049 C3050 1.516 . S
C3050 C3049 1.516 . S
C3050 C3051 1.502 . S
C3050 C3052 1.561 . S
C3050 C3053 1.526 . S
C3051 H3035 0.959 . S
C3051 H3036 0.959 . S
C3051 H3037 0.961 . S
C3051 C3050 1.502 . S
C3052 H3038 0.960 . S
C3052 H3039 0.961 . S
C3052 H3040 0.959 . S
C3052 C3050 1.561 . S
C3053 C3050 1.526 . S
C3053 C3054 1.396 . S
C3053 C3058 1.390 . S
C3054 C3048 1.465 . S
C3054 C3053 1.396 . S
C3054 C3055 1.399 . S
C3055 H3041 0.929 . S
C3055 C3054 1.399 . S
C3055 C3056 1.385 . S
C3056 H3042 0.931 . S
C3056 C3055 1.385 . S
C3056 C3057 1.389 . S
C3057 C3056 1.389 . S
C3057 C3058 1.387 . S
C3058 H3043 0.930 . S
C3058 C3053 1.390 . S
C3058 C3057 1.387 . S
H3059 C3071 0.930 . S
H3060 C3073 0.930 . S
H3061 C3074 0.930 . S
H3062 C3078 0.940 1_545 S
H3063 C3078 0.947 1_545 S
H3064 C3078 0.962 . S
H3065 C3079 0.960 . S
H3066 C3079 0.961 . S
H3067 C3079 0.959 . S
H3068 C3082 0.929 . S
H3069 C3083 0.931 . S
H3070 C3085 0.930 1_545 S
C3071 H3059 0.930 . S
C3071 C3072 1.399 . S
C3071 C3076 1.399 . S
C3072 C3071 1.399 . S
C3072 C3073 1.376 . S
C3073 H3060 0.930 . S
C3073 C3072 1.376 . S
C3073 C3074 1.388 . S
C3074 H3061 0.930 . S
C3074 C3073 1.388 . S
C3074 C3075 1.390 . S
C3075 C3074 1.390 . S
C3075 C3076 1.394 . S
C3075 C3081 1.465 . S
C3076 C3071 1.399 . S
C3076 C3075 1.394 . S
C3076 C3077 1.516 . S
C3077 C3076 1.516 . S
C3077 C3078 1.533 . S
C3077 C3079 1.561 . S
C3077 C3080 1.526 . S
C3078 H3062 0.940 1_565 S
C3078 H3063 0.947 1_565 S
C3078 H3064 0.962 . S
C3078 C3077 1.533 . S
C3079 H3065 0.960 . S
C3079 H3066 0.961 . S
C3079 H3067 0.959 . S
C3079 C3077 1.561 . S
C3080 C3077 1.526 . S
C3080 C3081 1.396 . S
C3080 C3085 1.390 . S
C3081 C3075 1.465 . S
C3081 C3080 1.396 . S
C3081 C3082 1.399 . S
C3082 H3068 0.929 . S
C3082 C3081 1.399 . S
C3082 C3083 1.385 . S
C3083 H3069 0.931 . S
C3083 C3082 1.385 . S
C3083 C3084 1.389 . S
C3084 C3083 1.389 . S
C3084 C3085 1.387 . S
C3085 H3070 0.930 1_565 S
C3085 C3080 1.390 . S
C3085 C3084 1.387 . S
H3086 C3098 0.930 . S
H3087 C3100 0.930 . S
H3088 C3101 0.930 . S
H3089 C3105 0.959 . S
H3090 C3105 0.959 . S
H3091 C3105 0.961 . S
H3092 C3106 0.960 . S
H3093 C3106 0.961 . S
H3094 C3106 0.959 . S
H3095 C3109 0.929 . S
H3096 C3110 0.931 . S
H3097 C3112 0.930 . S
C3098 H3086 0.930 . S
C3098 C3099 1.399 . S
C3098 C3103 1.399 . S
C3099 C3098 1.399 . S
C3099 C3100 1.376 . S
C3100 H3087 0.930 . S
C3100 C3099 1.376 . S
C3100 C3101 1.388 . S
C3101 H3088 0.930 . S
C3101 C3100 1.388 . S
C3101 C3102 1.390 . S
C3102 C3101 1.390 . S
C3102 C3103 1.394 . S
C3102 C3108 1.465 . S
C3103 C3098 1.399 . S
C3103 C3102 1.394 . S
C3103 C3104 1.516 . S
C3104 C3103 1.516 . S
C3104 C3105 1.502 . S
C3104 C3106 1.561 . S
C3104 C3107 1.526 . S
C3105 H3089 0.959 . S
C3105 H3090 0.959 . S
C3105 H3091 0.961 . S
C3105 C3104 1.502 . S
C3106 H3092 0.960 . S
C3106 H3093 0.961 . S
C3106 H3094 0.959 . S
C3106 C3104 1.561 . S
C3107 C3104 1.526 . S
C3107 C3108 1.396 . S
C3107 C3112 1.390 . S
C3108 C3102 1.465 . S
C3108 C3107 1.396 . S
C3108 C3109 1.399 . S
C3109 H3095 0.929 . S
C3109 C3108 1.399 . S
C3109 C3110 1.385 . S
C3110 H3096 0.931 . S
C3110 C3109 1.385 . S
C3110 C3111 1.389 . S
C3111 C3110 1.389 . S
C3111 C3112 1.387 . S
C3112 H3097 0.930 . S
C3112 C3107 1.390 . S
C3112 C3111 1.387 . S
H3113 C3125 0.930 . S
H3114 C3127 0.930 . S
H3115 C3128 0.930 . S
H3116 C3132 0.959 . S
H3117 C3132 0.959 . S
H3118 C3132 0.961 . S
H3119 C3133 0.960 . S
H3120 C3133 0.961 . S
H3121 C3133 0.959 . S
H3122 C3136 0.929 . S
H3123 C3137 0.931 . S
H3124 C3139 0.930 . S
C3125 H3113 0.930 . S
C3125 C3126 1.399 . S
C3125 C3130 1.399 . S
C3126 C3125 1.399 . S
C3126 C3127 1.376 1_556 S
C3127 H3114 0.930 . S
C3127 C3126 1.376 1_554 S
C3127 C3128 1.388 . S
C3128 H3115 0.930 . S
C3128 C3127 1.388 . S
C3128 C3129 1.390 . S
C3129 C3128 1.390 . S
C3129 C3130 1.394 1_554 S
C3129 C3135 1.465 . S
C3130 C3125 1.399 . S
C3130 C3129 1.394 1_556 S
C3130 C3131 1.516 . S
C3131 C3130 1.516 . S
C3131 C3132 1.502 . S
C3131 C3133 1.561 . S
C3131 C3134 1.526 . S
C3132 H3116 0.959 . S
C3132 H3117 0.959 . S
C3132 H3118 0.961 . S
C3132 C3131 1.502 . S
C3133 H3119 0.960 . S
C3133 H3120 0.961 . S
C3133 H3121 0.959 . S
C3133 C3131 1.561 . S
C3134 C3131 1.526 . S
C3134 C3135 1.396 1_556 S
C3134 C3139 1.390 . S
C3135 C3129 1.465 . S
C3135 C3134 1.396 1_554 S
C3135 C3136 1.399 . S
C3136 H3122 0.929 . S
C3136 C3135 1.399 . S
C3136 C3137 1.385 . S
C3137 H3123 0.931 . S
C3137 C3136 1.385 . S
C3137 C3138 1.389 . S
C3138 C3137 1.389 . S
C3138 C3139 1.387 1_554 S
C3139 H3124 0.930 . S
C3139 C3134 1.390 . S
C3139 C3138 1.387 1_556 S
H3140 C3152 0.930 . S
H3141 C3154 0.930 . S
H3142 C3155 0.930 . S
H3143 C3159 0.959 . S
H3144 C3159 0.959 . S
H3145 C3159 0.961 . S
H3146 C3160 0.960 . S
H3147 C3160 0.961 . S
H3148 C3160 0.959 . S
H3149 C3163 0.929 . S
H3150 C3164 0.931 . S
H3151 C3166 0.930 . S
C3152 H3140 0.930 . S
C3152 C3153 1.399 . S
C3152 C3157 1.399 . S
C3153 C3152 1.399 . S
C3153 C3154 1.376 . S
C3154 H3141 0.930 . S
C3154 C3153 1.376 . S
C3154 C3155 1.388 . S
C3155 H3142 0.930 . S
C3155 C3154 1.388 . S
C3155 C3156 1.390 . S
C3156 C3155 1.390 . S
C3156 C3157 1.394 . S
C3156 C3162 1.465 . S
C3157 C3152 1.399 . S
C3157 C3156 1.394 . S
C3157 C3158 1.516 . S
C3158 C3157 1.516 . S
C3158 C3159 1.502 . S
C3158 C3160 1.561 . S
C3158 C3161 1.526 . S
C3159 H3143 0.959 . S
C3159 H3144 0.959 . S
C3159 H3145 0.961 . S
C3159 C3158 1.502 . S
C3160 H3146 0.960 . S
C3160 H3147 0.961 . S
C3160 H3148 0.959 . S
C3160 C3158 1.561 . S
C3161 C3158 1.526 . S
C3161 C3162 1.396 . S
C3161 C3166 1.390 . S
C3162 C3156 1.465 . S
C3162 C3161 1.396 . S
C3162 C3163 1.399 . S
C3163 H3149 0.929 . S
C3163 C3162 1.399 . S
C3163 C3164 1.385 . S
C3164 H3150 0.931 . S
C3164 C3163 1.385 . S
C3164 C3165 1.389 . S
C3165 C3164 1.389 . S
C3165 C3166 1.387 . S
C3166 H3151 0.930 . S
C3166 C3161 1.390 . S
C3166 C3165 1.387 . S
H3167 C3179 0.924 1_556 S
H3168 C3181 0.930 . S
H3169 C3182 0.930 . S
H3170 C3186 0.959 1_554 S
H3171 C3186 0.959 . S
H3172 C3186 0.961 . S
H3173 C3187 0.960 . S
H3174 C3187 0.961 . S
H3175 C3187 0.959 . S
H3176 C3190 0.929 . S
H3177 C3191 0.931 . S
H3178 C3193 0.930 . S
C3179 H3167 0.924 1_554 S
C3179 C3180 1.399 . S
C3179 C3184 1.399 . S
C3180 C3179 1.399 . S
C3180 C3181 1.376 . S
C3181 H3168 0.930 . S
C3181 C3180 1.376 . S
C3181 C3182 1.388 . S
C3182 H3169 0.930 . S
C3182 C3181 1.388 . S
C3182 C3183 1.390 . S
C3183 C3182 1.390 . S
C3183 C3184 1.394 . S
C3183 C3189 1.465 . S
C3184 C3179 1.399 . S
C3184 C3183 1.394 . S
C3184 C3185 1.516 1_554 S
C3185 C3184 1.516 1_556 S
C3185 C3186 1.502 . S
C3185 C3187 1.561 . S
C3185 C3188 1.526 . S
C3186 H3170 0.959 1_556 S
C3186 H3171 0.959 . S
C3186 H3172 0.961 . S
C3186 C3185 1.502 . S
C3187 H3173 0.960 . S
C3187 H3174 0.961 . S
C3187 H3175 0.959 . S
C3187 C3185 1.561 . S
C3188 C3185 1.526 . S
C3188 C3189 1.396 1_556 S
C3188 C3193 1.390 . S
C3189 C3183 1.465 . S
C3189 C3188 1.396 1_554 S
C3189 C3190 1.399 . S
C3190 H3176 0.929 . S
C3190 C3189 1.399 . S
C3190 C3191 1.385 . S
C3191 H3177 0.931 . S
C3191 C3190 1.385 . S
C3191 C3192 1.389 1_554 S
C3192 C3191 1.389 1_556 S
C3192 C3193 1.387 . S
C3193 H3178 0.930 . S
C3193 C3188 1.390 . S
C3193 C3192 1.387 . S
H3194 C3206 0.930 . S
H3195 C3208 0.930 . S
H3196 C3209 0.930 . S
H3197 C3213 0.959 . S
H3198 C3213 0.959 . S
H3199 C3213 0.961 . S
H3200 C3214 0.960 . S
H3201 C3214 0.961 . S
H3202 C3214 0.959 . S
H3203 C3217 0.929 . S
H3204 C3218 0.931 . S
H3205 C3220 0.930 . S
C3206 H3194 0.930 . S
C3206 C3207 1.399 . S
C3206 C3211 1.399 . S
C3207 C3206 1.399 . S
C3207 C3208 1.376 . S
C3208 H3195 0.930 . S
C3208 C3207 1.376 . S
C3208 C3209 1.388 . S
C3209 H3196 0.930 . S
C3209 C3208 1.388 . S
C3209 C3210 1.390 . S
C3210 C3209 1.390 . S
C3210 C3211 1.394 . S
C3210 C3216 1.465 . S
C3211 C3206 1.399 . S
C3211 C3210 1.394 . S
C3211 C3212 1.516 . S
C3212 C3211 1.516 . S
C3212 C3213 1.502 . S
C3212 C3214 1.561 . S
C3212 C3215 1.526 . S
C3213 H3197 0.959 . S
C3213 H3198 0.959 . S
C3213 H3199 0.961 . S
C3213 C3212 1.502 . S
C3214 H3200 0.960 . S
C3214 H3201 0.961 . S
C3214 H3202 0.959 . S
C3214 C3212 1.561 . S
C3215 C3212 1.526 . S
C3215 C3216 1.396 . S
C3215 C3220 1.390 . S
C3216 C3210 1.465 . S
C3216 C3215 1.396 . S
C3216 C3217 1.399 . S
C3217 H3203 0.929 . S
C3217 C3216 1.399 . S
C3217 C3218 1.385 . S
C3218 H3204 0.931 . S
C3218 C3217 1.385 . S
C3218 C3219 1.389 . S
C3219 C3218 1.389 . S
C3219 C3220 1.387 . S
C3220 H3205 0.930 . S
C3220 C3215 1.390 . S
C3220 C3219 1.387 . S
H3221 C3233 0.930 . S
H3222 C3235 0.930 . S
H3223 C3236 0.930 . S
H3224 C3240 0.959 . S
H3225 C3240 0.959 . S
H3226 C3240 0.961 . S
H3227 C3241 0.960 . S
H3228 C3241 0.961 . S
H3229 C3241 0.959 . S
H3230 C3244 0.929 . S
H3231 C3245 0.931 . S
H3232 C3247 0.930 . S
C3233 H3221 0.930 . S
C3233 C3234 1.399 . S
C3233 C3238 1.399 . S
C3234 C3233 1.399 . S
C3234 C3235 1.376 . S
C3235 H3222 0.930 . S
C3235 C3234 1.376 . S
C3235 C3236 1.388 . S
C3236 H3223 0.930 . S
C3236 C3235 1.388 . S
C3236 C3237 1.390 . S
C3237 C3236 1.390 . S
C3237 C3238 1.394 . S
C3237 C3243 1.465 . S
C3238 C3233 1.399 . S
C3238 C3237 1.394 . S
C3238 C3239 1.516 . S
C3239 C3238 1.516 . S
C3239 C3240 1.502 . S
C3239 C3241 1.561 . S
C3239 C3242 1.526 . S
C3240 H3224 0.959 . S
C3240 H3225 0.959 . S
C3240 H3226 0.961 . S
C3240 C3239 1.502 . S
C3241 H3227 0.960 . S
C3241 H3228 0.961 . S
C3241 H3229 0.959 . S
C3241 C3239 1.561 . S
C3242 C3239 1.526 . S
C3242 C3243 1.396 . S
C3242 C3247 1.390 . S
C3243 C3237 1.465 . S
C3243 C3242 1.396 . S
C3243 C3244 1.399 . S
C3244 H3230 0.929 . S
C3244 C3243 1.399 . S
C3244 C3245 1.385 . S
C3245 H3231 0.931 . S
C3245 C3244 1.385 . S
C3245 C3246 1.389 . S
C3246 C3245 1.389 . S
C3246 C3247 1.387 . S
C3247 H3232 0.930 . S
C3247 C3242 1.390 . S
C3247 C3246 1.387 . S
C669 C111 1.089 1_455 S
C681 C352 1.147 1_556 S
C696 C64 1.282 . S
C708 C365 1.302 . S
C723 C77 1.208 . S
C735 C384 1.197 . S
C762 C415 1.704 . S
C750 C95 1.730 . S
C777 C25 1.517 . S
C789 C435 1.508 . S
C816 C452 0.887 . S
C804 C36 0.873 . S
C843 C465 1.484 . S
C831 C50 1.391 . S
C858 C11 0.889 . S
C870 C492 0.922 . S
C897 C345 1.107 1_655 S
C885 C237 1.008 . S
C912 C245 1.380 . S
C924 C375 1.372 . S
C951 C377 1.613 . S
C939 C279 1.462 . S
C978 C412 0.791 . S
C966 C175 0.816 . S
C993 C231 1.025 . S
C1005 C432 0.992 . S
C1032 C445 1.669 . S
C1020 C251 1.551 . S
C1059 C475 1.236 . S
C1047 C273 1.292 . S
C1086 C485 1.113 . S
C1074 C181 1.089 . S
C1113 C355 1.485 . S
C1101 C165 1.486 . S
C1128 C288 1.740 . S
C1140 C505 1.786 . S
C1167 C535 1.490 . S
C1155 C333 1.531 . S
C1194 C552 1.129 . S
C1182 C316 1.120 . S
C1209 C123 1.767 . S
C1221 C495 1.745 . S
C1236 C137 1.115 . S
C1248 C382 1.022 . S
C1263 C330 1.821 . S
C1275 C565 1.858 . S
C1302 C592 0.895 . S
C1290 C302 0.946 . S
C1329 C342 1.235 . S
C1317 C63 1.295 . S
C1356 C577 1.350 . S
C1344 C106 1.278 . S
C1371 C97 1.252 . S
C1383 C395 1.309 . S
C1398 C81 1.811 . S
C1410 C564 1.804 . S
C1437 C424 1.591 . S
C1425 C13 1.585 . S
C1452 C55 0.795 . S
C1464 C522 0.878 . S
C1491 C457 1.425 . S
C1479 C35 1.427 . S
C1518 C602 1.023 . S
C1506 C21 1.049 . S
C1545 C337 1.275 . S
C1533 C147 1.269 . S
C1572 C584 1.372 . S
C1560 C321 1.367 . S
C1587 C119 1.688 . S
C1599 C385 1.637 . S
C1614 C293 0.937 . S
C1626 C562 0.937 . S
C1641 C153 1.155 1_565 S
C1653 C422 1.177 . S
C1680 C517 1.742 . S
C1668 C315 1.740 . S
C1695 C125 1.246 . S
C1707 C464 1.279 . S
C1722 C287 1.255 . S
C1734 C597 1.202 . S
C1749 C193 1.577 . S
C1761 C344 1.557 . S
C1776 C176 1.795 . S
C1788 C497 1.818 . S
C1803 C263 1.534 . S
C1815 C444 1.495 . S
C1830 C246 1.228 . S
C1842 C542 1.249 . S
C1869 C604 1.865 . S
C1857 C277 1.917 . S
C1884 C221 1.101 . S
C1896 C392 1.166 . S
C1923 C397 1.902 . S
C1911 C260 1.832 . S
C1950 C362 1.015 . S
C1938 C204 1.017 . S
C1965 C83 1.104 . S
C1977 C632 1.136 . S
C2004 C585 1.302 . S
C1992 C92 1.287 . S
C2019 C105 1.252 . S
C2031 C644 1.228 1_455 S
C2046 C67 1.737 . S
C2058 C575 1.718 . S
C2073 C53 1.542 . S
C2085 C515 1.474 . S
C2112 C532 0.881 . S
C2100 C8 0.853 . S
C2139 C545 1.516 . S
C2127 C22 1.477 . S
C2166 C612 0.831 . S
C2154 C39 0.902 . S
C2193 C625 1.168 . S
C2181 C265 1.148 . S
C2208 C189 1.422 . S
C2220 C595 1.398 . S
C2247 C637 1.552 . S
C2235 C209 1.554 . S
C2274 C572 0.794 . S
C2262 C217 0.758 . S
C2301 C512 0.974 . S
C2289 C259 0.987 . S
C2316 C195 1.593 . S
C2328 C525 1.684 . S
C2355 C555 1.270 . S
C2343 C203 1.265 . S
C2370 C223 1.104 . S
C2382 C605 1.123 . S
C2409 C635 1.447 . S
C2397 C319 1.479 . S
C2424 C134 1.755 . S
C2436 C425 1.810 . S
C2463 C455 1.530 . S
C2451 C151 1.535 . S
C2490 C472 1.192 . S
C2478 C162 1.165 . S
C2517 C615 1.743 . S
C2505 C305 1.788 . S
C2532 C291 1.118 . S
C2544 C642 1.127 . S
C2571 C405 1.875 . S
C2559 C148 1.776 . S
C2598 C372 0.883 . S
C2586 C120 0.925 1_565 S
C2613 C91 1.296 . S
C2625 C622 1.244 . S
C2652 C357 1.327 . S
C2640 C78 1.312 . S
C2667 C69 1.238 1_655 S
C2679 C655 1.301 . S
C2694 C109 1.828 . S
C2706 C404 1.775 . S
C2721 C41 1.593 . S
C2733 C504 1.648 . S
C2760 C442 0.819 . S
C2748 C27 0.760 . S
C2775 C7 1.395 . S
C2787 C537 1.399 . S
C2802 C49 1.045 . S
C2814 C482 1.034 . S
C2841 C617 1.265 . S
C2829 C329 1.258 . S
C2856 C167 1.344 . S
C2868 C364 1.368 . S
C2895 C645 1.653 . S
C2883 C301 1.666 . S
C2910 C139 0.839 . S
C2922 C402 0.877 . S
C2937 C335 1.157 . S
C2949 C502 1.182 . S
C2976 C437 1.716 . S
C2964 C161 1.710 . S
C2991 C307 1.252 . S
C3003 C544 1.275 . S
C3030 C477 1.194 . S
C3018 C133 1.254 . S
C3057 C624 1.575 . S
C3045 C249 1.563 . S
C3084 C417 1.807 1_565 S
C3072 C218 1.766 . S
C3099 C235 1.519 . S
C3111 C524 1.515 . S
C3138 C462 1.249 . S
C3126 C190 1.228 1_556 S
C3153 C207 1.920 . S
C3165 C484 1.887 . S
C3180 C179 1.137 . S
C3192 C652 1.101 . S
C3219 C557 1.888 . S
C3207 C232 1.848 1_565 S
C3246 C582 1.010 . S
C3234 C274 1.012 . S
