# Generated by pormake.
# Topology scu, (8,4)-cn, num edge types: 1
# Building blocks:
#     Node 0, Type 0, BuildingBlock: TAGTUT_clean_sbu_3, # of connection points: 8
#     Node 1, Type 1, BuildingBlock: MUDLON_clean_sbu_0, # of connection points: 4
#     Node 2, Type 1, BuildingBlock: MUDLON_clean_sbu_0, # of connection points: 4
#     Edge 3, Type (0, 1), BuildingBlock: FUNLAD_clean_linker_1, # of connection points: 2
#     Edge 4, Type (0, 1), BuildingBlock: FUNLAD_clean_linker_1, # of connection points: 2
#     Edge 5, Type (0, 1), BuildingBlock: FUNLAD_clean_linker_1, # of connection points: 2
#     Edge 6, Type (0, 1), BuildingBlock: FUNLAD_clean_linker_1, # of connection points: 2
#     Edge 7, Type (0, 1), BuildingBlock: FUNLAD_clean_linker_1, # of connection points: 2
#     Edge 8, Type (0, 1), BuildingBlock: FUNLAD_clean_linker_1, # of connection points: 2
#     Edge 9, Type (0, 1), BuildingBlock: FUNLAD_clean_linker_1, # of connection points: 2
#     Edge 10, Type (0, 1), BuildingBlock: FUNLAD_clean_linker_1, # of connection points: 2
# Relax obj value: 0.056
# Max RMSD: 0.123
# Mean RMSD: 0.086
data_MOF--net-scu--node1-TAGTUT_clean_sbu_3--node2-MUDLON_clean_sbu_0--edge1-FUNLAD_clean_linker_1
_symmetry_space_group_name_H-M    P1
_symmetry_Int_Tables_number       1
_symmetry_cell_setting            triclinic
loop_
_symmetry_equiv_pos_as_xyz
'x, y, z'
_cell_length_a     28.05818
_cell_length_b     23.145541
_cell_length_c     21.514853
_cell_angle_alpha  89.183734
_cell_angle_beta   91.110198
_cell_angle_gamma 90.542656
loop_
_atom_site_label
_atom_site_type_symbol
_atom_site_fract_x
_atom_site_fract_y
_atom_site_fract_z
_atom_type_partial_charge
C0 C 0.9942 0.89772 0.09442 0.0
C1 C 0.82122 0.97447 0.08986 0.0
C2 C 0.85793 0.04647 0.9097 0.0
Mg3 Mg 0.08973 0.93809 0.02492 0.0
Mg4 Mg 0.11171 0.07156 0.97738 0.0
O5 O 0.06803 0.0109 0.98106 0.0
Mg6 Mg 1.00089 0.01629 0.01093 0.0
O7 O 0.93324 0.01064 0.04067 0.0
Mg8 Mg 0.91088 0.93969 0.99512 0.0
Mg9 Mg 0.89 0.07108 0.04412 0.0
C10 C 0.01891 0.13303 0.92043 0.0
O11 O 0.01333 0.09061 0.08229 0.0
O12 O 0.15791 0.94004 0.9644 0.0
O13 O 0.93998 0.13039 0.08822 0.0
O14 O 0.13131 0.99046 0.10137 0.0
O15 O 0.1649 0.0297 0.92354 0.0
O16 O 0.14018 0.08232 0.06938 0.0
O17 O 0.98148 0.94539 0.94315 0.0
O18 O 0.04649 0.89029 0.94771 0.0
C19 C 1.00454 0.90126 0.92596 0.0
C20 C 0.1784 0.97708 0.92858 0.0
O21 O 0.98987 0.09277 0.93862 0.0
O22 O 0.84232 0.93921 0.0543 0.0
O23 O 0.06361 0.13332 0.93471 0.0
O24 O 0.87204 0.99447 0.91864 0.0
O25 O 0.83495 0.0271 0.09607 0.0
O26 O 0.86291 0.08502 0.95114 0.0
O27 O 0.01921 0.94216 0.07902 0.0
O28 O 0.95223 0.88925 0.07152 0.0
C29 C 0.14615 0.0424 0.11012 0.0
C30 C 0.98489 0.12977 0.10163 0.0
Mg31 Mg 0.01901 0.54566 0.5019 0.0
C32 C 0.97328 0.4438 0.4376 0.0
O33 O 0.96394 0.42838 0.49505 0.0
C34 C 0.97151 0.65417 0.54178 0.0
O35 O 0.99493 0.6744 0.49386 0.0
C36 C 0.04876 0.49554 0.62831 0.0
O37 O 0.04776 0.54976 0.64525 0.0
O38 O 0.04344 0.4831 0.57122 0.0
O39 O 0.99136 0.49334 0.42661 0.0
O40 O 0.06951 0.60411 0.45738 0.0
C41 C 0.09344 0.58944 0.41064 0.0
O42 O 0.09582 0.53461 0.39637 0.0
O43 O 0.97013 0.5999 0.55171 0.0
Mg44 Mg 0.50584 0.98789 0.50248 0.0
C45 C 0.43609 0.02742 0.40391 0.0
O46 O 0.4611 0.99069 0.37224 0.0
C47 C 0.58333 0.01129 0.5967 0.0
O48 O 0.56595 0.96194 0.61756 0.0
C49 C 0.45569 0.96378 0.61895 0.0
O50 O 0.47497 0.01496 0.62826 0.0
O51 O 0.46464 0.93757 0.56903 0.0
O52 O 0.44965 0.03972 0.4589 0.0
O53 O 0.54182 0.94051 0.43053 0.0
C54 C 0.58281 0.9195 0.44213 0.0
O55 O 0.59917 0.91831 0.49962 0.0
O56 O 0.5636 0.03536 0.54944 0.0
H57 H 0.04226 0.1807 0.14907 0.0
C58 C 1.00397 0.17634 0.14181 0.0
H59 H 0.93584 0.20881 0.1614 0.0
H60 H 0.04444 0.32665 0.40037 0.0
H61 H 0.0695 0.23054 0.43246 0.0
H62 H 0.05662 0.14741 0.36341 0.0
H63 H 0.01963 0.16005 0.26161 0.0
C64 C 0.97406 0.21268 0.1697 0.0
C65 C 0.98963 0.2624 0.20837 0.0
C66 C 0.00994 0.25355 0.2686 0.0
C67 C 0.01523 0.30097 0.30966 0.0
C68 C 0.03764 0.2917 0.36847 0.0
C69 C 0.05253 0.23683 0.38728 0.0
C70 C 0.04542 0.19008 0.34832 0.0
C71 C 0.02424 0.19802 0.28976 0.0
H72 H 0.94917 0.36132 0.39705 0.0
C73 C 0.97012 0.40025 0.38833 0.0
H74 H 0.0185 0.44246 0.32826 0.0
H75 H 0.95712 0.29563 0.09279 0.0
H76 H 0.93383 0.39232 0.06007 0.0
H77 H 0.93953 0.47359 0.13293 0.0
H78 H 0.96871 0.45876 0.23878 0.0
C79 C 0.99687 0.40412 0.33714 0.0
C80 C 0.99804 0.35635 0.2915 0.0
C81 C 0.98112 0.36595 0.22982 0.0
C82 C 0.97714 0.31896 0.18816 0.0
C83 C 0.96001 0.32965 0.12671 0.0
C84 C 0.94675 0.38496 0.10723 0.0
C85 C 0.95003 0.43072 0.14823 0.0
C86 C 0.96687 0.42159 0.20889 0.0
H87 H 0.76297 0.91253 0.11029 0.0
C88 C 0.77974 0.95282 0.12473 0.0
H89 H 0.77981 0.02089 0.18873 0.0
H90 H 0.57283 0.01225 0.28333 0.0
H91 H 0.57338 0.10198 0.22467 0.0
H92 H 0.64024 0.12731 0.15645 0.0
H93 H 0.70739 0.06318 0.14737 0.0
C94 C 0.76341 0.98032 0.17451 0.0
C95 C 0.72056 0.95997 0.20886 0.0
C96 C 0.68061 0.99686 0.21195 0.0
C97 C 0.64138 0.98138 0.24991 0.0
C98 C 0.60319 0.02073 0.25434 0.0
C99 C 0.60302 0.0727 0.22092 0.0
C100 C 0.64069 0.08702 0.18262 0.0
C101 C 0.67911 0.04981 0.17805 0.0
H102 H 0.65407 0.90702 0.40484 0.0
C103 C 0.61664 0.91096 0.39155 0.0
H104 H 0.56704 0.92182 0.3178 0.0
H105 H 0.79245 0.87997 0.21759 0.0
H106 H 0.78847 0.786 0.26804 0.0
H107 H 0.71603 0.75418 0.32252 0.0
H108 H 0.64767 0.81737 0.32847 0.0
C109 C 0.60432 0.9168 0.33109 0.0
C110 C 0.64158 0.92815 0.28357 0.0
C111 C 0.67969 0.8891 0.27622 0.0
C112 C 0.7201 0.9059 0.24098 0.0
C113 C 0.75966 0.86834 0.24028 0.0
C114 C 0.75804 0.81433 0.26962 0.0
C115 C 0.71737 0.79653 0.30056 0.0
C116 C 0.67857 0.83333 0.30405 0.0
H117 H 0.98774 0.82194 0.15617 0.0
C118 C 0.01299 0.854 0.13886 0.0
H119 H 0.08448 0.8833 0.1422 0.0
H120 H 0.12792 0.76997 0.40731 0.0
H121 H 0.14829 0.87105 0.42319 0.0
H122 H 0.1332 0.94386 0.34042 0.0
H123 H 0.09827 0.91595 0.24119 0.0
C124 C 0.05882 0.85126 0.15821 0.0
C125 C 0.07416 0.80651 0.20523 0.0
C126 C 0.0934 0.82367 0.26359 0.0
C127 C 0.10059 0.78195 0.31208 0.0
C128 C 0.12076 0.80015 0.36946 0.0
C129 C 0.13272 0.85794 0.37911 0.0
C130 C 0.12429 0.89892 0.3325 0.0
C131 C 0.1045 0.88228 0.27555 0.0
H132 H 0.13149 0.62108 0.32746 0.0
C133 C 0.10745 0.63355 0.36383 0.0
H134 H 0.05943 0.69618 0.39438 0.0
H135 H 0.05177 0.75655 0.09395 0.0
H136 H 0.02986 0.6561 0.07758 0.0
H137 H 0.03007 0.58617 0.16521 0.0
H138 H 0.05396 0.61538 0.26847 0.0
C139 C 0.08386 0.68384 0.35841 0.0
C140 C 0.08679 0.72348 0.30315 0.0
C141 C 0.06979 0.70575 0.24357 0.0
C142 C 0.06582 0.74694 0.19396 0.0
C143 C 0.05257 0.72758 0.13387 0.0
C144 C 0.04029 0.67003 0.12375 0.0
C145 C 0.04067 0.63063 0.17299 0.0
C146 C 0.05501 0.64803 0.23225 0.0
H147 H 0.20496 0.08924 0.15568 0.0
C148 C 0.17896 0.05476 0.16274 0.0
H149 H 0.15601 0.98696 0.22038 0.0
H150 H 0.3601 0.92065 0.32218 0.0
H151 H 0.32573 0.82911 0.29033 0.0
H152 H 0.24605 0.82458 0.24012 0.0
H153 H 0.20027 0.91093 0.22213 0.0
C154 C 0.18235 0.02083 0.21378 0.0
C155 C 0.22626 0.022 0.25443 0.0
C156 C 0.25296 0.97063 0.2634 0.0
C157 C 0.29959 0.97341 0.2905 0.0
C158 C 0.32509 0.92134 0.3002 0.0
C159 C 0.30571 0.86838 0.28243 0.0
C160 C 0.26085 0.86582 0.25429 0.0
C161 C 0.23478 0.91611 0.24442 0.0
H162 H 0.36311 0.06063 0.41526 0.0
C163 C 0.38765 0.04338 0.38189 0.0
H164 H 0.39636 0.01097 0.29209 0.0
H165 H 0.17875 0.12377 0.26456 0.0
H166 H 0.21249 0.2156 0.29818 0.0
H167 H 0.29676 0.22296 0.3324 0.0
H168 H 0.34724 0.13848 0.33541 0.0
C169 C 0.37185 0.02987 0.32445 0.0
C170 C 0.32015 0.02755 0.30677 0.0
C171 C 0.29209 0.07817 0.30235 0.0
C172 C 0.24443 0.07481 0.27852 0.0
C173 C 0.21593 0.1249 0.27889 0.0
C174 C 0.23473 0.17762 0.29855 0.0
C175 C 0.28212 0.1817 0.31809 0.0
C176 C 0.31067 0.13273 0.31993 0.0
H177 H 0.94216 0.86211 0.87809 0.0
C178 C 0.98083 0.86128 0.88218 0.0
H179 H 0.04432 0.82664 0.84875 0.0
H180 H 0.97727 0.60046 0.72381 0.0
H181 H 0.02261 0.56389 0.81205 0.0
H182 H 0.04888 0.6286 0.89641 0.0
H183 H 0.03036 0.73066 0.89219 0.0
C184 C 1.00565 0.82753 0.84451 0.0
C185 C 0.98229 0.78805 0.79855 0.0
C186 C 0.99187 0.728 0.80261 0.0
C187 C 0.97568 0.69044 0.75464 0.0
C188 C 0.98788 0.63116 0.75886 0.0
C189 C 0.014 0.60939 0.80952 0.0
C190 C 0.02883 0.6458 0.85694 0.0
C191 C 0.01809 0.7044 0.85376 0.0
H192 H 0.9743 0.73816 0.58723 0.0
C193 C 0.96035 0.69436 0.59194 0.0
H194 H 0.92861 0.6329 0.65132 0.0
H195 H 0.95805 0.90145 0.77317 0.0
H196 H 0.90395 0.93533 0.69214 0.0
H197 H 0.86693 0.86736 0.61784 0.0
H198 H 0.88575 0.76499 0.62297 0.0
C199 C 0.94192 0.67687 0.64642 0.0
C200 C 0.94895 0.71288 0.70316 0.0
C201 C 0.93466 0.77152 0.70295 0.0
C202 C 0.95306 0.80981 0.74893 0.0
C203 C 0.94268 0.86945 0.74258 0.0
C204 C 0.91202 0.88973 0.69561 0.0
C205 C 0.89139 0.85154 0.65356 0.0
C206 C 0.90265 0.7931 0.65678 0.0
H207 H 0.24366 0.92643 0.91472 0.0
C208 C 0.22053 0.95917 0.89407 0.0
H209 H 0.20769 0.0166 0.81923 0.0
H210 H 0.4116 0.07161 0.73094 0.0
H211 H 0.38476 0.16416 0.76589 0.0
H212 H 0.31016 0.17237 0.82365 0.0
H213 H 0.26158 0.08807 0.84556 0.0
C214 C 0.23148 0.98429 0.83943 0.0
C215 C 0.27857 0.97674 0.80975 0.0
C216 C 0.30777 0.02626 0.79969 0.0
C217 C 0.35186 0.02111 0.76889 0.0
C218 C 0.37872 0.0721 0.75624 0.0
C219 C 0.36359 0.12588 0.77573 0.0
C220 C 0.32155 0.13053 0.80804 0.0
C221 C 0.29385 0.08159 0.82 0.0
H222 H 0.38641 0.92178 0.63721 0.0
C223 C 0.41648 0.94417 0.65885 0.0
H224 H 0.44487 0.98424 0.73835 0.0
H225 H 0.22893 0.874 0.81364 0.0
H226 H 0.25851 0.77993 0.786 0.0
H227 H 0.33964 0.76928 0.74573 0.0
H228 H 0.39107 0.85304 0.73097 0.0
C229 C 0.41413 0.96221 0.71782 0.0
C230 C 0.36794 0.96593 0.75069 0.0
C231 C 0.33963 0.91607 0.76293 0.0
C232 C 0.29408 0.92174 0.79027 0.0
C233 C 0.26484 0.87189 0.79657 0.0
C234 C 0.28123 0.81763 0.78034 0.0
C235 C 0.32681 0.81167 0.75737 0.0
C236 C 0.35583 0.86016 0.74867 0.0
H237 H 0.96657 0.17572 0.8559 0.0
C238 C 1.00181 0.17937 0.87738 0.0
H239 H 0.06667 0.22674 0.88221 0.0
H240 H 0.06503 0.31715 0.60835 0.0
H241 H 0.09797 0.22281 0.58948 0.0
H242 H 0.0961 0.14614 0.67026 0.0
H243 H 0.06108 0.16346 0.77045 0.0
C244 C 0.03133 0.22317 0.86101 0.0
C245 C 0.0215 0.2641 0.8086 0.0
C246 C 0.04102 0.25302 0.74973 0.0
C247 C 0.04168 0.29711 0.703 0.0
C248 C 0.06284 0.28516 0.64533 0.0
C249 C 0.08209 0.23116 0.63389 0.0
C250 C 0.08109 0.18803 0.67938 0.0
C251 C 0.06098 0.19861 0.73674 0.0
H252 H 0.06432 0.45839 0.72175 0.0
C253 C 0.04879 0.44926 0.67624 0.0
H254 H 0.00919 0.3904 0.62141 0.0
H255 H 0.97857 0.2975 0.91471 0.0
H256 H 0.94119 0.39001 0.93234 0.0
H257 H 0.93845 0.46505 0.84972 0.0
H258 H 0.97356 0.44857 0.74955 0.0
C259 C 0.0256 0.39886 0.66659 0.0
C260 C 0.02261 0.3523 0.71515 0.0
C261 C 0.99997 0.36195 0.77262 0.0
C262 C 1.00016 0.31804 0.8197 0.0
C263 C 0.97906 0.32938 0.87742 0.0
C264 C 0.95736 0.38213 0.88801 0.0
C265 C 0.95589 0.42441 0.84152 0.0
C266 C 0.97663 0.41458 0.78434 0.0
H267 H 0.79697 0.08759 0.86297 0.0
C268 C 0.82699 0.0594 0.85536 0.0
H269 H 0.86119 1.00424 0.79463 0.0
H270 H 0.67541 0.90968 0.66223 0.0
H271 H 0.72131 0.82358 0.68518 0.0
H272 H 0.79799 0.82966 0.74278 0.0
H273 H 0.8295 0.92131 0.77664 0.0
C274 C 0.83045 0.0314 0.80132 0.0
C275 C 0.78909 0.02854 0.75632 0.0
C276 C 0.77077 0.97376 0.73815 0.0
C277 C 0.72567 0.9699 0.70703 0.0
C278 C 0.70873 0.91494 0.68778 0.0
C279 C 0.73482 0.86513 0.70034 0.0
C280 C 0.77799 0.86857 0.73264 0.0
C281 C 0.79579 0.92194 0.75172 0.0
H282 H 0.65079 0.06159 0.59252 0.0
C283 C 0.62954 0.03284 0.62144 0.0
H284 H 0.62562 0.98333 0.70382 0.0
H285 H 0.82173 0.13992 0.76221 0.0
H286 H 0.77614 0.22666 0.73852 0.0
H287 H 0.69299 0.21964 0.69964 0.0
H288 H 0.65567 0.1264 0.68172 0.0
C289 C 0.64714 0.01296 0.67618 0.0
C290 C 0.69797 0.02024 0.69647 0.0
C291 C 0.7179 0.07529 0.7101 0.0
C292 C 0.76451 0.07937 0.73723 0.0
C293 C 0.78536 0.1347 0.7454 0.0
C294 C 0.75977 0.18466 0.73148 0.0
C295 C 0.71304 0.1807 0.7093 0.0
C296 C 0.69211 0.12678 0.69879 0.0
loop_
_geom_bond_atom_site_label_1
_geom_bond_atom_site_label_2
_geom_bond_distance
_geom_bond_site_symmetry_2
_ccdc_geom_bond_type
C0 O27 1.312 1_655 S
C0 O28 1.208 . S
C1 O22 1.331 . S
C1 O25 1.244 1_565 S
C2 O24 1.264 1_545 S
C2 O26 1.273 . S
Mg3 O5 1.938 1_565 S
Mg3 O12 2.088 . S
Mg3 O14 2.016 1_556 S
Mg3 O18 2.037 . S
Mg3 O27 2.285 1_556 S
Mg4 O5 1.963 . S
Mg4 O15 1.942 . S
Mg4 O16 1.955 1_556 S
Mg4 O23 1.986 . S
O5 Mg3 1.938 1_545 S
O5 Mg4 1.963 . S
O5 Mg6 1.915 1_556 S
Mg6 O5 1.915 1_554 S
Mg6 O7 1.915 1_455 S
Mg6 O11 2.013 . S
Mg6 O17 2.114 1_444 S
Mg6 O21 2.013 1_454 S
Mg6 O27 2.114 1_545 S
O7 Mg6 1.915 1_655 S
O7 Mg8 1.936 1_545 S
O7 Mg9 1.963 . S
Mg8 O7 1.936 1_565 S
Mg8 O17 2.291 1_554 S
Mg8 O22 2.081 . S
Mg8 O24 2.023 1_554 S
Mg8 O28 2.031 . S
Mg9 O7 1.963 . S
Mg9 O13 1.986 . S
Mg9 O25 1.942 . S
Mg9 O26 1.955 1_554 S
C10 O21 1.191 1_455 S
C10 O23 1.307 . S
O11 Mg6 2.013 . S
O11 C30 1.191 1_455 S
O12 Mg3 2.088 . S
O12 C20 1.331 . S
O13 Mg9 1.986 . S
O13 C30 1.307 . S
O14 Mg3 2.016 1_554 S
O14 C29 1.264 1_565 S
O15 Mg4 1.942 . S
O15 C20 1.244 1_545 S
O16 Mg4 1.955 1_554 S
O16 C29 1.273 . S
O17 Mg6 2.114 1_666 S
O17 Mg8 2.291 1_556 S
O17 C19 1.312 1_655 S
O18 Mg3 2.037 . S
O18 C19 1.208 . S
C19 O17 1.312 1_455 S
C19 O18 1.208 . S
C20 O12 1.331 . S
C20 O15 1.244 1_565 S
O21 Mg6 2.013 1_656 S
O21 C10 1.191 1_655 S
O22 C1 1.331 . S
O22 Mg8 2.081 . S
O23 Mg4 1.986 . S
O23 C10 1.307 . S
O24 C2 1.264 1_565 S
O24 Mg8 2.023 1_556 S
O25 C1 1.244 1_545 S
O25 Mg9 1.942 . S
O26 C2 1.273 . S
O26 Mg9 1.955 1_556 S
O27 C0 1.312 1_455 S
O27 Mg3 2.285 1_554 S
O27 Mg6 2.114 1_565 S
O28 C0 1.208 . S
O28 Mg8 2.031 . S
C29 O14 1.264 1_545 S
C29 O16 1.273 . S
C30 O11 1.191 1_655 S
C30 O13 1.307 . S
Mg31 O38 2.141 . S
Mg31 O39 2.048 . S
Mg31 O40 2.048 . S
Mg31 O43 2.141 . S
C32 O33 1.313 . S
C32 O39 1.195 1_455 S
O33 C32 1.313 . S
C34 O35 1.245 . S
C34 O43 1.289 1_455 S
O35 C34 1.245 . S
C36 O37 1.245 . S
C36 O38 1.289 1_455 S
O37 C36 1.245 . S
O38 Mg31 2.141 . S
O38 C36 1.289 1_655 S
O39 Mg31 2.048 . S
O39 C32 1.195 1_655 S
O40 Mg31 2.048 . S
O40 C41 1.195 1_655 S
C41 O40 1.195 1_455 S
C41 O42 1.313 . S
O42 C41 1.313 . S
O43 Mg31 2.141 . S
O43 C34 1.289 1_655 S
Mg44 O51 2.141 . S
Mg44 O52 2.048 . S
Mg44 O53 2.048 . S
Mg44 O56 2.141 . S
C45 O46 1.313 . S
C45 O52 1.195 1_565 S
O46 C45 1.313 . S
C47 O48 1.245 . S
C47 O56 1.289 1_565 S
O48 C47 1.245 . S
C49 O50 1.245 . S
C49 O51 1.289 1_565 S
O50 C49 1.245 . S
O51 Mg44 2.141 . S
O51 C49 1.289 1_545 S
O52 Mg44 2.048 . S
O52 C45 1.195 1_545 S
O53 Mg44 2.048 . S
O53 C54 1.195 1_545 S
C54 O53 1.195 1_565 S
C54 O55 1.313 . S
O55 C54 1.313 . S
O56 Mg44 2.141 . S
O56 C47 1.289 1_545 S
H57 C58 0.951 . S
C58 H57 0.951 . S
C58 C64 1.265 1_655 S
H59 C64 0.950 . S
H60 C68 0.949 . S
H61 C69 0.950 . S
H62 C70 0.951 . S
H63 C71 0.951 . S
C64 C58 1.265 1_455 S
C64 H59 0.950 . S
C64 C65 1.478 . S
C65 C64 1.478 . S
C65 C66 1.397 . S
C65 C82 1.394 1_455 S
C66 C65 1.397 . S
C66 C67 1.438 . S
C66 C71 1.429 . S
C67 C66 1.438 . S
C67 C68 1.428 . S
C67 C80 1.394 1_455 S
C68 H60 0.949 . S
C68 C67 1.428 . S
C68 C69 1.345 . S
C69 H61 0.950 . S
C69 C68 1.345 . S
C69 C70 1.424 . S
C70 H62 0.951 . S
C70 C69 1.424 . S
C70 C71 1.347 . S
C71 H63 0.951 . S
C71 C66 1.429 . S
C71 C70 1.347 . S
H72 C73 0.951 . S
C73 H72 0.951 . S
C73 C79 1.265 1_455 S
H74 C79 0.950 . S
H75 C83 0.949 . S
H76 C84 0.950 . S
H77 C85 0.951 . S
H78 C86 0.951 . S
C79 C73 1.265 1_655 S
C79 H74 0.950 . S
C79 C80 1.478 . S
C80 C67 1.394 1_655 S
C80 C79 1.478 . S
C80 C81 1.397 . S
C81 C80 1.397 . S
C81 C82 1.438 . S
C81 C86 1.429 . S
C82 C65 1.394 1_655 S
C82 C81 1.438 . S
C82 C83 1.428 . S
C83 H75 0.949 . S
C83 C82 1.428 . S
C83 C84 1.345 . S
C84 H76 0.950 . S
C84 C83 1.345 . S
C84 C85 1.424 . S
C85 H77 0.951 . S
C85 C84 1.424 . S
C85 C86 1.347 . S
C86 H78 0.951 . S
C86 C81 1.429 . S
C86 C85 1.347 . S
H87 C88 0.951 1_545 S
C88 H87 0.951 1_565 S
C88 C94 1.265 . S
H89 C94 0.950 . S
H90 C98 0.949 . S
H91 C99 0.950 . S
H92 C100 0.951 . S
H93 C101 0.951 . S
C94 C88 1.265 . S
C94 H89 0.950 . S
C94 C95 1.478 . S
C95 C94 1.478 . S
C95 C96 1.397 1_565 S
C95 C112 1.394 . S
C96 C95 1.397 1_545 S
C96 C97 1.438 . S
C96 C101 1.429 . S
C97 C96 1.438 . S
C97 C98 1.428 . S
C97 C110 1.394 . S
C98 H90 0.949 . S
C98 C97 1.428 . S
C98 C99 1.345 . S
C99 H91 0.950 . S
C99 C98 1.345 . S
C99 C100 1.424 . S
C100 H92 0.951 . S
C100 C99 1.424 . S
C100 C101 1.347 . S
C101 H93 0.951 . S
C101 C96 1.429 . S
C101 C100 1.347 . S
H102 C103 0.951 1_565 S
C103 H102 0.951 1_545 S
C103 C109 1.265 . S
H104 C109 0.950 . S
H105 C113 0.949 . S
H106 C114 0.950 . S
H107 C115 0.951 . S
H108 C116 0.951 . S
C109 C103 1.265 . S
C109 H104 0.950 . S
C109 C110 1.478 . S
C110 C97 1.394 . S
C110 C109 1.478 . S
C110 C111 1.397 1_545 S
C111 C110 1.397 1_565 S
C111 C112 1.438 . S
C111 C116 1.429 . S
C112 C95 1.394 . S
C112 C111 1.438 . S
C112 C113 1.428 . S
C113 H105 0.949 . S
C113 C112 1.428 . S
C113 C114 1.345 . S
C114 H106 0.950 . S
C114 C113 1.345 . S
C114 C115 1.424 . S
C115 H107 0.951 . S
C115 C114 1.424 . S
C115 C116 1.347 . S
C116 H108 0.951 . S
C116 C111 1.429 . S
C116 C115 1.347 . S
H117 C118 0.974 . S
C118 H117 0.974 . S
C118 C124 1.250 1_655 S
H119 C124 0.950 . S
H120 C128 0.949 . S
H121 C129 0.950 . S
H122 C130 0.951 . S
H123 C131 0.951 . S
C124 C118 1.250 1_455 S
C124 H119 0.950 . S
C124 C125 1.478 . S
C125 C124 1.478 . S
C125 C126 1.397 . S
C125 C142 1.394 1_455 S
C126 C125 1.397 . S
C126 C127 1.438 . S
C126 C131 1.429 . S
C127 C126 1.438 . S
C127 C128 1.428 . S
C127 C140 1.394 1_455 S
C128 H120 0.949 . S
C128 C127 1.428 . S
C128 C129 1.345 . S
C129 H121 0.950 . S
C129 C128 1.345 . S
C129 C130 1.424 . S
C130 H122 0.951 . S
C130 C129 1.424 . S
C130 C131 1.347 . S
C131 H123 0.951 . S
C131 C126 1.429 . S
C131 C130 1.347 . S
H132 C133 0.951 . S
C133 H132 0.951 . S
C133 C139 1.265 1_455 S
H134 C139 0.950 . S
H135 C143 0.949 . S
H136 C144 0.950 . S
H137 C145 0.951 . S
H138 C146 0.951 . S
C139 C133 1.265 1_655 S
C139 H134 0.950 . S
C139 C140 1.478 . S
C140 C127 1.394 1_655 S
C140 C139 1.478 . S
C140 C141 1.397 . S
C141 C140 1.397 . S
C141 C142 1.438 . S
C141 C146 1.429 . S
C142 C125 1.394 1_655 S
C142 C141 1.438 . S
C142 C143 1.428 . S
C143 H135 0.949 . S
C143 C142 1.428 . S
C143 C144 1.345 . S
C144 H136 0.950 . S
C144 C143 1.345 . S
C144 C145 1.424 . S
C145 H137 0.951 . S
C145 C144 1.424 . S
C145 C146 1.347 . S
C146 H138 0.951 . S
C146 C141 1.429 . S
C146 C145 1.347 . S
H147 C148 0.951 . S
C148 H147 0.951 . S
C148 C154 1.265 . S
H149 C154 0.950 . S
H150 C158 0.949 . S
H151 C159 0.950 . S
H152 C160 0.951 . S
H153 C161 0.951 . S
C154 C148 1.265 . S
C154 H149 0.950 . S
C154 C155 1.478 . S
C155 C154 1.478 . S
C155 C156 1.397 1_545 S
C155 C172 1.394 . S
C156 C155 1.397 1_565 S
C156 C157 1.438 . S
C156 C161 1.429 . S
C157 C156 1.438 . S
C157 C158 1.428 . S
C157 C170 1.394 1_565 S
C158 H150 0.949 . S
C158 C157 1.428 . S
C158 C159 1.345 . S
C159 H151 0.950 . S
C159 C158 1.345 . S
C159 C160 1.424 . S
C160 H152 0.951 . S
C160 C159 1.424 . S
C160 C161 1.347 . S
C161 H153 0.951 . S
C161 C156 1.429 . S
C161 C160 1.347 . S
H162 C163 0.951 . S
C163 H162 0.951 . S
C163 C169 1.265 . S
H164 C169 0.950 . S
H165 C173 0.949 . S
H166 C174 0.950 . S
H167 C175 0.951 . S
H168 C176 0.951 . S
C169 C163 1.265 . S
C169 H164 0.950 . S
C169 C170 1.478 . S
C170 C157 1.394 1_545 S
C170 C169 1.478 . S
C170 C171 1.397 . S
C171 C170 1.397 . S
C171 C172 1.438 . S
C171 C176 1.429 . S
C172 C155 1.394 . S
C172 C171 1.438 . S
C172 C173 1.428 . S
C173 H165 0.949 . S
C173 C172 1.428 . S
C173 C174 1.345 . S
C174 H166 0.950 . S
C174 C173 1.345 . S
C174 C175 1.424 . S
C175 H167 0.951 . S
C175 C174 1.424 . S
C175 C176 1.347 . S
C176 H168 0.951 . S
C176 C171 1.429 . S
C176 C175 1.347 . S
H177 C178 0.951 . S
C178 H177 0.951 . S
C178 C184 1.265 1_655 S
H179 C184 0.950 . S
H180 C188 0.949 . S
H181 C189 0.950 . S
H182 C190 0.951 . S
H183 C191 0.951 . S
C184 C178 1.265 1_455 S
C184 H179 0.950 . S
C184 C185 1.478 . S
C185 C184 1.478 . S
C185 C186 1.397 . S
C185 C202 1.394 1_455 S
C186 C185 1.397 . S
C186 C187 1.438 . S
C186 C191 1.429 . S
C187 C186 1.438 . S
C187 C188 1.428 . S
C187 C200 1.394 1_455 S
C188 H180 0.949 . S
C188 C187 1.428 . S
C188 C189 1.345 . S
C189 H181 0.950 . S
C189 C188 1.345 . S
C189 C190 1.424 . S
C190 H182 0.951 . S
C190 C189 1.424 . S
C190 C191 1.347 . S
C191 H183 0.951 . S
C191 C186 1.429 . S
C191 C190 1.347 . S
H192 C193 0.951 . S
C193 H192 0.951 . S
C193 C199 1.265 1_455 S
H194 C199 0.950 . S
H195 C203 0.949 . S
H196 C204 0.950 . S
H197 C205 0.951 . S
H198 C206 0.951 . S
C199 C193 1.265 1_655 S
C199 H194 0.950 . S
C199 C200 1.478 . S
C200 C187 1.394 1_655 S
C200 C199 1.478 . S
C200 C201 1.397 . S
C201 C200 1.397 . S
C201 C202 1.438 . S
C201 C206 1.429 . S
C202 C185 1.394 1_655 S
C202 C201 1.438 . S
C202 C203 1.428 . S
C203 H195 0.949 . S
C203 C202 1.428 . S
C203 C204 1.345 . S
C204 H196 0.950 . S
C204 C203 1.345 . S
C204 C205 1.424 . S
C205 H197 0.951 . S
C205 C204 1.424 . S
C205 C206 1.347 . S
C206 H198 0.951 . S
C206 C201 1.429 . S
C206 C205 1.347 . S
H207 C208 0.951 . S
C208 H207 0.951 . S
C208 C214 1.265 . S
H209 C214 0.950 1_545 S
H210 C218 0.949 . S
H211 C219 0.950 . S
H212 C220 0.951 . S
H213 C221 0.951 . S
C214 C208 1.265 . S
C214 H209 0.950 1_565 S
C214 C215 1.478 . S
C215 C214 1.478 . S
C215 C216 1.397 1_565 S
C215 C232 1.394 . S
C216 C215 1.397 1_545 S
C216 C217 1.438 . S
C216 C221 1.429 . S
C217 C216 1.438 . S
C217 C218 1.428 . S
C217 C230 1.394 1_545 S
C218 H210 0.949 . S
C218 C217 1.428 . S
C218 C219 1.345 . S
C219 H211 0.950 . S
C219 C218 1.345 . S
C219 C220 1.424 . S
C220 H212 0.951 . S
C220 C219 1.424 . S
C220 C221 1.347 . S
C221 H213 0.951 . S
C221 C216 1.429 . S
C221 C220 1.347 . S
H222 C223 0.951 . S
C223 H222 0.951 . S
C223 C229 1.265 1_545 S
H224 C229 0.950 . S
H225 C233 0.949 . S
H226 C234 0.950 . S
H227 C235 0.951 . S
H228 C236 0.951 . S
C229 C223 1.265 1_565 S
C229 H224 0.950 . S
C229 C230 1.478 . S
C230 C217 1.394 1_565 S
C230 C229 1.478 . S
C230 C231 1.397 . S
C231 C230 1.397 . S
C231 C232 1.438 . S
C231 C236 1.429 . S
C232 C215 1.394 . S
C232 C231 1.438 . S
C232 C233 1.428 . S
C233 H225 0.949 . S
C233 C232 1.428 . S
C233 C234 1.345 . S
C234 H226 0.950 . S
C234 C233 1.345 . S
C234 C235 1.424 . S
C235 H227 0.951 . S
C235 C234 1.424 . S
C235 C236 1.347 . S
C236 H228 0.951 . S
C236 C231 1.429 . S
C236 C235 1.347 . S
H237 C238 0.951 . S
C238 H237 0.951 . S
C238 C244 1.265 1_655 S
H239 C244 0.950 . S
H240 C248 0.949 . S
H241 C249 0.950 . S
H242 C250 0.951 . S
H243 C251 0.951 . S
C244 C238 1.265 1_455 S
C244 H239 0.950 . S
C244 C245 1.478 . S
C245 C244 1.478 . S
C245 C246 1.397 . S
C245 C262 1.394 1_455 S
C246 C245 1.397 . S
C246 C247 1.438 . S
C246 C251 1.429 . S
C247 C246 1.438 . S
C247 C248 1.428 . S
C247 C260 1.394 1_455 S
C248 H240 0.949 . S
C248 C247 1.428 . S
C248 C249 1.345 . S
C249 H241 0.950 . S
C249 C248 1.345 . S
C249 C250 1.424 . S
C250 H242 0.951 . S
C250 C249 1.424 . S
C250 C251 1.347 . S
C251 H243 0.951 . S
C251 C246 1.429 . S
C251 C250 1.347 . S
H252 C253 0.951 . S
C253 H252 0.951 . S
C253 C259 1.265 1_455 S
H254 C259 0.950 . S
H255 C263 0.949 . S
H256 C264 0.950 . S
H257 C265 0.951 . S
H258 C266 0.951 . S
C259 C253 1.265 1_655 S
C259 H254 0.950 . S
C259 C260 1.478 . S
C260 C247 1.394 1_655 S
C260 C259 1.478 . S
C260 C261 1.397 . S
C261 C260 1.397 . S
C261 C262 1.438 . S
C261 C266 1.429 . S
C262 C245 1.394 1_655 S
C262 C261 1.438 . S
C262 C263 1.428 . S
C263 H255 0.949 . S
C263 C262 1.428 . S
C263 C264 1.345 . S
C264 H256 0.950 . S
C264 C263 1.345 . S
C264 C265 1.424 . S
C265 H257 0.951 . S
C265 C264 1.424 . S
C265 C266 1.347 . S
C266 H258 0.951 . S
C266 C261 1.429 . S
C266 C265 1.347 . S
H267 C268 0.951 . S
C268 H267 0.951 . S
C268 C274 1.265 . S
H269 C274 0.950 . S
H270 C278 0.949 . S
H271 C279 0.950 . S
H272 C280 0.951 . S
H273 C281 0.951 . S
C274 C268 1.265 . S
C274 H269 0.950 . S
C274 C275 1.478 . S
C275 C274 1.478 . S
C275 C276 1.397 1_545 S
C275 C292 1.394 . S
C276 C275 1.397 1_565 S
C276 C277 1.438 . S
C276 C281 1.429 . S
C277 C276 1.438 . S
C277 C278 1.428 . S
C277 C290 1.394 1_565 S
C278 H270 0.949 . S
C278 C277 1.428 . S
C278 C279 1.345 . S
C279 H271 0.950 . S
C279 C278 1.345 . S
C279 C280 1.424 . S
C280 H272 0.951 . S
C280 C279 1.424 . S
C280 C281 1.347 . S
C281 H273 0.951 . S
C281 C276 1.429 . S
C281 C280 1.347 . S
H282 C283 0.951 . S
C283 H282 0.951 . S
C283 C289 1.265 . S
H284 C289 0.950 . S
H285 C293 0.949 . S
H286 C294 0.950 . S
H287 C295 0.951 . S
H288 C296 0.951 . S
C289 C283 1.265 . S
C289 H284 0.950 . S
C289 C290 1.478 . S
C290 C277 1.394 1_545 S
C290 C289 1.478 . S
C290 C291 1.397 . S
C291 C290 1.397 . S
C291 C292 1.438 . S
C291 C296 1.429 . S
C292 C275 1.394 . S
C292 C291 1.438 . S
C292 C293 1.428 . S
C293 H285 0.949 . S
C293 C292 1.428 . S
C293 C294 1.345 . S
C294 H286 0.950 . S
C294 C293 1.345 . S
C294 C295 1.424 . S
C295 H287 0.951 . S
C295 C294 1.424 . S
C295 C296 1.347 . S
C296 H288 0.951 . S
C296 C291 1.429 . S
C296 C295 1.347 . S
C58 C30 1.287 . S
C73 C32 1.346 . S
C88 C1 1.486 . S
C103 C54 1.527 1_545 S
C118 C0 1.293 . S
C133 C41 1.352 . S
C148 C29 1.523 . S
C163 C45 1.575 1_545 S
C178 C19 1.293 1_655 S
C193 C34 1.281 . S
C208 C20 1.417 . S
C223 C49 1.453 1_545 S
C253 C36 1.263 . S
C238 C10 1.300 1_655 S
C268 C2 1.449 . S
C283 C47 1.494 1_545 S
