# Generated by pormake.
# Topology apo, (3,6)-cn, num edge types: 1
# Building blocks:
#     Node 0, Type 0, BuildingBlock: OLANEW_clean_sbu_2, # of connection points: 3
#     Node 1, Type 0, BuildingBlock: OLANEW_clean_sbu_2, # of connection points: 3
#     Node 2, Type 0, BuildingBlock: OLANEW_clean_sbu_2, # of connection points: 3
#     Node 3, Type 0, BuildingBlock: OLANEW_clean_sbu_2, # of connection points: 3
#     Node 4, Type 0, BuildingBlock: OLANEW_clean_sbu_2, # of connection points: 3
#     Node 5, Type 0, BuildingBlock: OLANEW_clean_sbu_2, # of connection points: 3
#     Node 6, Type 0, BuildingBlock: OLANEW_clean_sbu_2, # of connection points: 3
#     Node 7, Type 0, BuildingBlock: OLANEW_clean_sbu_2, # of connection points: 3
#     Node 8, Type 1, BuildingBlock: MIDCAF_clean_sbu_0, # of connection points: 6
#     Node 9, Type 1, BuildingBlock: MIDCAF_clean_sbu_0, # of connection points: 6
#     Node 10, Type 1, BuildingBlock: MIDCAF_clean_sbu_0, # of connection points: 6
#     Node 11, Type 1, BuildingBlock: MIDCAF_clean_sbu_0, # of connection points: 6
#     Edge 12, Type (0, 1), BuildingBlock: KIFKEQ_clean_linker_1, # of connection points: 2
#     Edge 13, Type (0, 1), BuildingBlock: KIFKEQ_clean_linker_1, # of connection points: 2
#     Edge 14, Type (0, 1), BuildingBlock: KIFKEQ_clean_linker_1, # of connection points: 2
#     Edge 15, Type (0, 1), BuildingBlock: KIFKEQ_clean_linker_1, # of connection points: 2
#     Edge 16, Type (0, 1), BuildingBlock: KIFKEQ_clean_linker_1, # of connection points: 2
#     Edge 17, Type (0, 1), BuildingBlock: KIFKEQ_clean_linker_1, # of connection points: 2
#     Edge 18, Type (0, 1), BuildingBlock: KIFKEQ_clean_linker_1, # of connection points: 2
#     Edge 19, Type (0, 1), BuildingBlock: KIFKEQ_clean_linker_1, # of connection points: 2
#     Edge 20, Type (0, 1), BuildingBlock: KIFKEQ_clean_linker_1, # of connection points: 2
#     Edge 21, Type (0, 1), BuildingBlock: KIFKEQ_clean_linker_1, # of connection points: 2
#     Edge 22, Type (0, 1), BuildingBlock: KIFKEQ_clean_linker_1, # of connection points: 2
#     Edge 23, Type (0, 1), BuildingBlock: KIFKEQ_clean_linker_1, # of connection points: 2
#     Edge 24, Type (0, 1), BuildingBlock: KIFKEQ_clean_linker_1, # of connection points: 2
#     Edge 25, Type (0, 1), BuildingBlock: KIFKEQ_clean_linker_1, # of connection points: 2
#     Edge 26, Type (0, 1), BuildingBlock: KIFKEQ_clean_linker_1, # of connection points: 2
#     Edge 27, Type (0, 1), BuildingBlock: KIFKEQ_clean_linker_1, # of connection points: 2
#     Edge 28, Type (0, 1), BuildingBlock: KIFKEQ_clean_linker_1, # of connection points: 2
#     Edge 29, Type (0, 1), BuildingBlock: KIFKEQ_clean_linker_1, # of connection points: 2
#     Edge 30, Type (0, 1), BuildingBlock: KIFKEQ_clean_linker_1, # of connection points: 2
#     Edge 31, Type (0, 1), BuildingBlock: KIFKEQ_clean_linker_1, # of connection points: 2
#     Edge 32, Type (0, 1), BuildingBlock: KIFKEQ_clean_linker_1, # of connection points: 2
#     Edge 33, Type (0, 1), BuildingBlock: KIFKEQ_clean_linker_1, # of connection points: 2
#     Edge 34, Type (0, 1), BuildingBlock: KIFKEQ_clean_linker_1, # of connection points: 2
#     Edge 35, Type (0, 1), BuildingBlock: KIFKEQ_clean_linker_1, # of connection points: 2
# Relax obj value: 0.030
# Max RMSD: 0.082
# Mean RMSD: 0.069
data_MOF--net-apo--node1-OLANEW_clean_sbu_2--node2-MIDCAF_clean_sbu_0--edge1-KIFKEQ_clean_linker_1
_symmetry_space_group_name_H-M    P1
_symmetry_Int_Tables_number       1
_symmetry_cell_setting            triclinic
loop_
_symmetry_equiv_pos_as_xyz
'x, y, z'
_cell_length_a     40.529712
_cell_length_b     45.159225
_cell_length_c     39.066667
_cell_angle_alpha  88.255802
_cell_angle_beta   89.531694
_cell_angle_gamma 90.432003
loop_
_atom_site_label
_atom_site_type_symbol
_atom_site_fract_x
_atom_site_fract_y
_atom_site_fract_z
_atom_type_partial_charge
O0 O 0.33499 0.33684 0.32301 0.0
Cd1 Cd 0.29879 0.29791 0.34905 0.0
O2 O 0.36745 0.34079 0.36811 0.0
Cd3 Cd 0.34609 0.31309 0.41003 0.0
O4 O 0.35271 0.30572 0.46572 0.0
C5 C 0.35026 0.32802 0.48474 0.0
O6 O 0.34151 0.35354 0.47067 0.0
C7 C 0.36018 0.34802 0.3373 0.0
C8 C 0.25423 0.26879 0.30589 0.0
O9 O 0.24588 0.29217 0.32153 0.0
O10 O 0.28391 0.25968 0.30966 0.0
O11 O 0.18244 0.24835 0.9562 0.0
Cd12 Cd 0.1871 0.26854 0.8969 0.0
O13 O 0.16734 0.20892 0.92939 0.0
Cd14 Cd 0.14546 0.16532 0.92138 0.0
O15 O 0.12827 0.12663 0.8941 0.0
C16 C 0.0979 0.11999 0.89114 0.0
O17 O 0.07557 0.13626 0.90607 0.0
C18 C 0.17181 0.22179 0.9575 0.0
C19 C 0.24916 0.27818 0.86634 0.0
O20 O 0.23405 0.29894 0.88156 0.0
O21 O 0.23561 0.25242 0.86677 0.0
O22 O 0.86358 0.13793 0.66317 0.0
Cd23 Cd 0.82813 0.17719 0.63802 0.0
O24 O 0.88519 0.12568 0.61336 0.0
Cd25 Cd 0.86396 0.15559 0.57394 0.0
O26 O 0.87056 0.16871 0.51933 0.0
C27 C 0.85166 0.16023 0.49557 0.0
O28 O 0.82517 0.14455 0.50376 0.0
C29 C 0.88288 0.12188 0.64579 0.0
C30 C 0.78116 0.20488 0.68004 0.0
O31 O 0.77496 0.18005 0.66625 0.0
O32 O 0.81 0.21618 0.67518 0.0
O33 O 0.6794 0.28532 0.04505 0.0
Cd34 Cd 0.68261 0.28359 0.10819 0.0
O35 O 0.6829 0.33406 0.04322 0.0
Cd36 Cd 0.67368 0.34075 0.09785 0.0
O37 O 0.64473 0.3658 0.13481 0.0
C38 C 0.61345 0.3646 0.13247 0.0
O39 O 0.60039 0.3469 0.1101 0.0
C40 C 0.6818 0.30964 0.02783 0.0
C41 C 0.73935 0.25681 0.13562 0.0
O42 O 0.71303 0.24167 0.13066 0.0
O43 O 0.73904 0.28446 0.12716 0.0
O44 O 0.65677 0.65533 0.71061 0.0
Cd45 Cd 0.67649 0.7063 0.70033 0.0
O46 O 0.64382 0.6573 0.65637 0.0
Cd47 Cd 0.6283 0.64293 0.60571 0.0
O48 O 0.61995 0.64165 0.55024 0.0
C49 C 0.59931 0.6595 0.53681 0.0
O50 O 0.5832 0.67747 0.55672 0.0
C51 C 0.64428 0.6429 0.6849 0.0
C52 C 0.73338 0.7245 0.73415 0.0
O53 O 0.70464 0.72948 0.74658 0.0
O54 O 0.7352 0.70994 0.70654 0.0
O55 O 0.83822 0.83933 0.22724 0.0
Cd56 Cd 0.8177 0.78742 0.23097 0.0
O57 O 0.83949 0.83778 0.17127 0.0
Cd58 Cd 0.85207 0.84959 0.11761 0.0
O59 O 0.86258 0.85081 0.06222 0.0
C60 C 0.85995 0.82704 0.04572 0.0
O61 O 0.85068 0.80258 0.06229 0.0
C62 C 0.84616 0.85147 0.19844 0.0
C63 C 0.75123 0.7694 0.236 0.0
O64 O 0.76817 0.77368 0.26303 0.0
O65 O 0.765 0.77558 0.20693 0.0
O66 O 0.14399 0.83678 0.30678 0.0
Cd67 Cd 0.17275 0.79357 0.33161 0.0
O68 O 0.13641 0.85414 0.35846 0.0
Cd69 Cd 0.15544 0.81927 0.39302 0.0
O70 O 0.14919 0.80522 0.4471 0.0
C71 C 0.15817 0.8232 0.46976 0.0
O72 O 0.17332 0.84785 0.4598 0.0
C73 C 0.13323 0.85683 0.3261 0.0
C74 C 0.22095 0.76636 0.29143 0.0
O75 O 0.19066 0.75803 0.29068 0.0
O76 O 0.22828 0.78826 0.31016 0.0
O77 O 0.33812 0.62219 0.80441 0.0
Cd78 Cd 0.30189 0.66132 0.8264 0.0
O79 O 0.35175 0.6104 0.85766 0.0
Cd80 Cd 0.32447 0.64177 0.88881 0.0
O81 O 0.32386 0.65781 0.94145 0.0
C82 C 0.31718 0.63917 0.96566 0.0
O83 O 0.30812 0.61223 0.9578 0.0
C84 C 0.35441 0.60618 0.82566 0.0
C85 C 0.25479 0.69015 0.78476 0.0
O86 O 0.28487 0.69914 0.78528 0.0
O87 O 0.24731 0.66663 0.80244 0.0
Zn88 Zn 0.02644 0.10432 0.27758 0.0
Zn89 Zn 0.98334 0.10057 0.15609 0.0
Zn90 Zn 0.00376 0.1056 0.21585 0.0
C91 C 0.04656 0.12115 0.14735 0.0
C92 C 0.97275 0.04541 0.18272 0.0
O93 O 0.96727 0.12945 0.24832 0.0
O94 O -0.00957 0.1261 0.29942 0.0
C95 C 0.0734 0.13543 0.2379 0.0
O96 O 0.04221 0.12555 0.17962 0.0
O97 O 0.02509 0.107 0.1312 0.0
O98 O 0.96437 0.06022 0.15637 0.0
O99 O -0.0103 0.05807 0.20615 0.0
O100 O 0.06815 0.12588 0.26814 0.0
O101 O 0.05243 0.13008 0.21407 0.0
O102 O 0.01165 0.05845 0.23357 0.0
O103 O 0.02931 0.06127 0.28681 0.0
C104 C 0.02204 0.04583 0.26155 0.0
O105 O 0.95789 0.13225 0.21371 0.0
O106 O 0.95247 0.13452 0.15749 0.0
C107 C 0.96702 0.13468 0.28062 0.0
C108 C 0.94356 0.14281 0.1867 0.0
Zn109 Zn 0.55465 0.37389 0.68971 0.0
Zn110 Zn 0.51168 0.37999 0.80785 0.0
Zn111 Zn 0.53032 0.37568 0.74882 0.0
C112 C 0.50009 0.43495 0.78035 0.0
C113 C 0.46949 0.33964 0.77984 0.0
O114 O 0.57633 0.34757 0.7517 0.0
O115 O 0.58522 0.34067 0.69667 0.0
C116 C 0.56155 0.43215 0.70749 0.0
O117 O 0.51846 0.42349 0.75713 0.0
O118 O 0.49087 0.41941 0.80606 0.0
O119 O 0.48175 0.34487 0.80865 0.0
O120 O 0.48226 0.35181 0.75251 0.0
O121 O 0.57367 0.41465 0.68627 0.0
O122 O 0.54169 0.42215 0.73119 0.0
O123 O 0.49204 0.35388 0.71723 0.0
O124 O 0.51344 0.36382 0.66585 0.0
C125 C 0.49012 0.35347 0.68431 0.0
O126 O 0.56859 0.35602 0.78466 0.0
O127 O 0.55342 0.37691 0.83257 0.0
C128 C 0.59201 0.33458 0.72749 0.0
C129 C 0.57412 0.36208 0.81624 0.0
Zn130 Zn 0.04418 0.86155 0.80965 0.0
Zn131 Zn 0.97128 0.87567 0.70052 0.0
Zn132 Zn 0.00791 0.86995 0.75574 0.0
C133 C 0.98434 0.93299 0.72128 0.0
C134 C 0.933 0.84429 0.74853 0.0
O135 O 0.05286 0.84276 0.7425 0.0
O136 O 0.07969 0.83751 0.79141 0.0
C137 C 0.04126 0.92289 0.79676 0.0
O138 O 4e-05 0.91853 0.74499 0.0
O139 O 0.97008 0.91942 0.69778 0.0
O140 O 0.93118 0.85531 0.71855 0.0
O141 O 0.95961 0.84728 0.76602 0.0
O142 O 0.05477 0.9037 0.81605 0.0
O143 O 0.02172 0.91482 0.77283 0.0
O144 O 0.97711 0.84796 0.79678 0.0
O145 O 0.01108 0.84207 0.84042 0.0
C146 C 0.98262 0.83934 0.82798 0.0
O147 O 0.03496 0.84932 0.71261 0.0
O148 O 0.00073 0.85441 0.66902 0.0
C149 C 0.07742 0.83243 0.75999 0.0
C150 C 0.02793 0.8455 0.68085 0.0
Zn151 Zn 0.50864 0.60847 0.17972 0.0
Zn152 Zn 0.44895 0.60133 0.29803 0.0
Zn153 Zn 0.47974 0.60573 0.23913 0.0
C154 C 0.50803 0.6311 0.30968 0.0
C155 C 0.45802 0.54362 0.27913 0.0
O156 O 0.44597 0.62847 0.20175 0.0
O157 O 0.47542 0.63131 0.15388 0.0
C158 C 0.55086 0.6379 0.22361 0.0
O159 O 0.51209 0.62675 0.27745 0.0
O160 O 0.48185 0.62281 0.3249 0.0
O161 O 0.44716 0.55787 0.30404 0.0
O162 O 0.47092 0.5576 0.25291 0.0
O163 O 0.549 0.62954 0.19315 0.0
O164 O 0.52728 0.63139 0.24508 0.0
O165 O 0.49064 0.55972 0.2233 0.0
O166 O 0.51208 0.56559 0.17129 0.0
C167 C 0.50312 0.54872 0.19603 0.0
O168 O 0.43154 0.62956 0.23451 0.0
O169 O 0.4078 0.62168 0.28521 0.0
C170 C 0.44901 0.63646 0.16985 0.0
C171 C 0.40699 0.63293 0.25528 0.0
H172 H 0.12045 0.90771 0.35859 0.0
H173 H 0.10624 0.86578 0.2618 0.0
H174 H 0.08852 0.94969 0.33871 0.0
H175 H 0.07312 0.90823 0.24185 0.0
H176 H 0.00835 0.00915 0.31575 0.0
H177 H 0.03179 0.96049 0.32743 0.0
H178 H 0.07596 0.96211 0.22635 0.0
H179 H 0.05092 0.01061 0.2142 0.0
C180 C 0.11037 0.90737 0.333 0.0
C181 C 0.1157 0.88317 0.31194 0.0
C182 C 0.0917 0.93143 0.32167 0.0
C183 C 0.07743 0.93205 0.28898 0.0
C184 C 0.0836 0.90835 0.26726 0.0
C185 C 0.10259 0.88409 0.27865 0.0
C186 C 0.02218 -0.00133 0.29566 0.0
C187 C 0.02821 0.0137 0.26428 0.0
C188 C 0.03595 0.97094 0.30242 0.0
C189 C 0.05678 0.95786 0.27828 0.0
C190 C 0.06024 0.97163 0.24559 0.0
C191 C 0.04585 -0.00065 0.23858 0.0
H192 H 0.38673 0.56589 0.86578 0.0
H193 H 0.37466 0.59339 0.75974 0.0
H194 H 0.42591 0.52888 0.84921 0.0
H195 H 0.41503 0.55601 0.74295 0.0
H196 H 0.4565 0.45738 0.73389 0.0
H197 H 0.42284 0.50177 0.74079 0.0
H198 H 0.48115 0.52484 0.82831 0.0
H199 H 0.51355 0.48 0.82201 0.0
C200 C 0.39256 0.56421 0.83881 0.0
C201 C 0.37751 0.58288 0.81415 0.0
C202 C 0.41545 0.54303 0.82929 0.0
C203 C 0.42431 0.53977 0.79476 0.0
C204 C 0.40888 0.55799 0.76981 0.0
C205 C 0.38574 0.57939 0.77941 0.0
C206 C 0.46274 0.47262 0.75377 0.0
C207 C 0.48767 0.4655 0.77732 0.0
C208 C 0.44341 0.49799 0.75784 0.0
C209 C 0.44873 0.51657 0.78561 0.0
C210 C 0.47574 0.51065 0.80718 0.0
C211 C 0.49467 0.48521 0.80334 0.0
H212 H 0.66607 0.5988 0.72763 0.0
H213 H 0.59237 0.61819 0.65115 0.0
H214 H 0.64451 0.54819 0.73443 0.0
H215 H 0.57047 0.56753 0.65843 0.0
H216 H 0.52426 0.48193 0.71647 0.0
H217 H 0.54311 0.53385 0.71159 0.0
H218 H 0.64185 0.5044 0.68947 0.0
H219 H 0.623 0.45292 0.69384 0.0
C220 C 0.64525 0.59224 0.7123 0.0
C221 C 0.63123 0.61226 0.68846 0.0
C222 C 0.63294 0.56333 0.71622 0.0
C223 C 0.60585 0.55407 0.69698 0.0
C224 C 0.59131 0.57423 0.67365 0.0
C225 C 0.60409 0.60302 0.66918 0.0
C226 C 0.54998 0.48667 0.711 0.0
C227 C 0.57222 0.46351 0.70583 0.0
C228 C 0.56069 0.51626 0.70785 0.0
C229 C 0.59394 0.523 0.70024 0.0
C230 C 0.61615 0.49978 0.69555 0.0
C231 C 0.60533 0.47038 0.69793 0.0
H232 H 0.88916 0.87132 0.246 0.0
H233 H 0.84634 0.89563 0.14853 0.0
H234 H 0.9234 0.91595 0.24317 0.0
H235 H 0.87959 0.94078 0.146 0.0
H236 H 0.95521 0.01473 0.24201 0.0
H237 H 0.92516 0.96764 0.24672 0.0
H238 H 0.93284 0.95911 0.13699 0.0
H239 H 0.96142 0.00658 0.13244 0.0
C240 C 0.88684 0.88639 0.22406 0.0
C241 C 0.86535 0.87968 0.19722 0.0
C242 C 0.90645 0.91211 0.22247 0.0
C243 C 0.90476 0.93209 0.19418 0.0
C244 C 0.88251 0.92563 0.16776 0.0
C245 C 0.86326 0.89971 0.16917 0.0
C246 C 0.95103 0.00243 0.21906 0.0
C247 C 0.96058 0.01442 0.18686 0.0
C248 C 0.93366 0.97539 0.22167 0.0
C249 C 0.92578 0.9596 0.19214 0.0
C250 C 0.93731 0.97092 0.16023 0.0
C251 C 0.95415 -0.00198 0.15762 0.0
H252 H 0.92683 0.08534 0.6154 0.0
H253 H 0.8842 0.10393 0.7141 0.0
H254 H 0.95669 0.04415 0.64065 0.0
H255 H 0.91517 0.06267 0.73989 0.0
H256 H 0.93438 0.95998 0.75336 0.0
H257 H 0.91375 0.00958 0.74008 0.0
H258 H -0.00011 0.02762 0.67663 0.0
H259 H 0.01964 0.97738 0.6892 0.0
C260 C 0.92411 0.08092 0.64269 0.0
C261 C 0.90276 0.09796 0.66259 0.0
C262 C 0.94168 0.05734 0.65734 0.0
C263 C 0.93866 0.04998 0.69247 0.0
C264 C 0.91797 0.06748 0.71269 0.0
C265 C 0.90025 0.09122 0.69794 0.0
C266 C 0.94945 0.97505 0.73767 0.0
C267 C 0.97873 0.96511 0.7226 0.0
C268 C 0.93763 0.00352 0.72994 0.0
C269 C 0.95479 0.0226 0.70673 0.0
C270 C 0.98561 0.01335 0.694 0.0
C271 C -0.00273 0.98477 0.70158 0.0
H272 H 0.54688 0.37191 0.1266 0.0
H273 H 0.632 0.40571 0.17917 0.0
H274 H 0.5136 0.41192 0.14868 0.0
H275 H 0.5985 0.44577 0.20126 0.0
H276 H 0.52582 0.51046 0.24605 0.0
H277 H 0.54821 0.46075 0.23755 0.0
H278 H 0.51831 0.46607 0.1317 0.0
H279 H 0.49655 0.51545 0.14011 0.0
C280 C 0.5584 0.38751 0.14339 0.0
C281 C 0.59229 0.38586 0.15065 0.0
C282 C 0.53927 0.41044 0.15602 0.0
C283 C 0.55348 0.43211 0.17646 0.0
C284 C 0.58678 0.42928 0.18577 0.0
C285 C 0.60603 0.40643 0.1729 0.0
C286 C 0.52324 0.50053 0.22131 0.0
C287 C 0.50957 0.51672 0.19368 0.0
C288 C 0.53626 0.47226 0.21637 0.0
C289 C 0.53517 0.4596 0.18392 0.0
C290 C 0.5193 0.47506 0.15707 0.0
C291 C 0.50692 0.50339 0.16183 0.0
H292 H 0.34252 0.3866 0.28476 0.0
H293 H 0.42415 0.36218 0.34979 0.0
H294 H 0.37326 0.43062 0.26415 0.0
H295 H 0.45508 0.40539 0.32859 0.0
H296 H 0.44012 0.50682 0.22745 0.0
H297 H 0.42157 0.45496 0.23443 0.0
H298 H 0.44619 0.45639 0.34179 0.0
H299 H 0.46468 0.50739 0.33465 0.0
C300 C 0.36734 0.39016 0.29391 0.0
C301 C 0.38062 0.37124 0.31943 0.0
C302 C 0.38505 0.41532 0.28198 0.0
C303 C 0.41645 0.42185 0.29518 0.0
C304 C 0.43069 0.40144 0.31847 0.0
C305 C 0.41294 0.37661 0.33059 0.0
C306 C 0.44247 0.49559 0.2522 0.0
C307 C 0.45384 0.51104 0.28054 0.0
C308 C 0.43152 0.46606 0.2563 0.0
C309 C 0.43222 0.45149 0.28871 0.0
C310 C 0.44561 0.46662 0.31637 0.0
C311 C 0.45612 0.49598 0.31235 0.0
H312 H 0.13603 0.08888 0.8473 0.0
H313 H 0.03739 0.09257 0.88965 0.0
H314 H 0.12116 0.04449 0.8171 0.0
H315 H 0.02278 0.04737 0.8603 0.0
H316 H 0.0008 0.9714 0.79014 0.0
H317 H 0.01355 0.02224 0.8066 0.0
H318 H 0.11156 -0.00543 0.83572 0.0
H319 H 0.09923 0.94483 0.81801 0.0
C320 C 0.11114 0.0802 0.85018 0.0
C321 C 0.08804 0.094 0.87129 0.0
C322 C 0.1026 0.05471 0.83287 0.0
C323 C 0.07088 0.04211 0.83658 0.0
C324 C 0.04733 0.0566 0.8566 0.0
C325 C 0.0558 0.08236 0.87368 0.0
C326 C 0.02533 0.97662 0.79889 0.0
C327 C 0.0491 0.95433 0.80243 0.0
C328 C 0.03251 0.00554 0.80888 0.0
C329 C 0.06362 0.01254 0.82249 0.0
C330 C 0.08757 -0.00974 0.82483 0.0
C331 C 0.0804 0.9616 0.81495 0.0
H332 H 0.18002 0.16391 0.97727 0.0
H333 H 0.14225 0.24676 0.01231 0.0
H334 H 0.1595 0.13878 0.0293 0.0
H335 H 0.1194 0.22155 0.06329 0.0
H336 H 0.08201 0.17267 0.15661 0.0
H337 H 0.12092 0.19646 0.11591 0.0
H338 H 0.11009 0.12196 0.04966 0.0
H339 H 0.07391 0.09789 0.09119 0.0
C340 C 0.16715 0.17669 -0.00385 0.0
C341 C 0.16225 0.20714 0.99055 0.0
C342 C 0.15515 0.1623 0.026 0.0
C343 C 0.13692 0.17782 0.05053 0.0
C344 C 0.13348 0.20868 0.04547 0.0
C345 C 0.14635 0.2232 0.01602 0.0
C346 C 0.08931 0.16097 0.1341 0.0
C347 C 0.07503 0.1334 0.12729 0.0
C348 C 0.11106 0.17483 0.11026 0.0
C349 C 0.11861 0.16148 0.07892 0.0
C350 C 0.10565 0.13305 0.0734 0.0
C351 C 0.08445 0.11921 0.09726 0.0
H352 H 0.35258 0.37303 0.52984 0.0
H353 H 0.37363 0.27988 0.52166 0.0
H354 H 0.37916 0.37316 0.58529 0.0
H355 H 0.39946 0.27976 0.57792 0.0
H356 H 0.49206 0.30998 0.63908 0.0
H357 H 0.45085 0.29907 0.59644 0.0
H358 H 0.38308 0.35871 0.64474 0.0
H359 H 0.42533 0.37015 0.68711 0.0
C360 C 0.36222 0.35236 0.54021 0.0
C361 C 0.36146 0.32656 0.52092 0.0
C362 C 0.37725 0.35237 0.57232 0.0
C363 C 0.39184 0.32654 0.58614 0.0
C364 C 0.38903 0.30022 0.56786 0.0
C365 C 0.3741 0.30024 0.53562 0.0
C366 C 0.46788 0.31987 0.64131 0.0
C367 C 0.46169 0.34064 0.66653 0.0
C368 C 0.44412 0.3136 0.61686 0.0
C369 C 0.41359 0.3282 0.61677 0.0
C370 C 0.40647 0.34732 0.64374 0.0
C371 C 0.43038 0.35352 0.66841 0.0
H372 H 0.646 0.27276 0.98785 0.0
H373 H 0.71083 0.34896 0.98255 0.0
H374 H 0.63022 0.28224 0.92842 0.0
H375 H 0.69682 0.35749 0.92256 0.0
H376 H 0.61342 0.39533 0.85451 0.0
H377 H 0.64933 0.37818 0.89982 0.0
H378 H 0.63655 0.288 0.86772 0.0
H379 H 0.59936 0.30575 0.82224 0.0
C380 C 0.65787 0.29085 0.97353 0.0
C381 C 0.67916 0.31046 0.98999 0.0
C382 C 0.64895 0.29626 0.93929 0.0
C383 C 0.66158 0.32113 0.92067 0.0
C384 C 0.6857 0.33872 0.93628 0.0
C385 C 0.69397 0.33373 0.97065 0.0
C386 C 0.61924 0.37195 0.85634 0.0
C387 C 0.6036 0.35188 0.83499 0.0
C388 C 0.64004 0.36198 0.88238 0.0
C389 C 0.64577 0.33152 0.88797 0.0
C390 C 0.63232 0.31156 0.86459 0.0
C391 C 0.61141 0.32169 0.83822 0.0
H392 H 0.81707 0.14587 0.43814 0.0
H393 H 0.90936 0.18412 0.47015 0.0
H394 H 0.83667 0.1474 0.37885 0.0
H395 H 0.92938 0.18466 0.41153 0.0
H396 H 0.9639 0.18933 0.30688 0.0
H397 H 0.92869 0.20279 0.35485 0.0
H398 H 0.87441 0.12063 0.34575 0.0
H399 H 0.90867 0.10832 0.29674 0.0
C400 C 0.84142 0.15489 0.43251 0.0
C401 C 0.86174 0.16461 0.45904 0.0
C402 C 0.85275 0.15564 0.39847 0.0
C403 C 0.88476 0.16598 0.39009 0.0
C404 C 0.90439 0.17699 0.41655 0.0
C405 C 0.89299 0.17644 0.45046 0.0
C406 C 0.94322 0.17505 0.31404 0.0
C407 C 0.93868 0.148 0.29796 0.0
C408 C 0.92343 0.18239 0.34201 0.0
C409 C 0.89925 0.16241 0.35507 0.0
C410 C 0.89261 0.13672 0.33659 0.0
C411 C 0.91212 0.12965 0.30824 0.0
H412 H 0.86813 0.77836 0.0067 0.0
H413 H 0.8735 0.874 0.00156 0.0
H414 H 0.88959 0.77676 0.94821 0.0
H415 H 0.89478 0.87228 0.94296 0.0
H416 H 0.9204 0.86186 0.83188 0.0
H417 H 0.8827 0.85635 0.88121 0.0
H418 H 0.94717 0.79076 0.92677 0.0
H419 H 0.98484 0.79667 0.87808 0.0
C420 C 0.87338 0.79907 0.99295 0.0
C421 C 0.86952 0.82632 0.009 0.0
C422 C 0.88564 0.79811 0.95943 0.0
C423 C 0.89387 0.82437 0.94102 0.0
C424 C 0.8883 0.85168 0.95636 0.0
C425 C 0.87642 0.85264 0.99006 0.0
C426 C 0.92579 0.84551 0.85189 0.0
C427 C 0.95555 0.82977 0.85135 0.0
C428 C 0.90443 0.84258 0.88023 0.0
C429 C 0.9122 0.82338 0.908 0.0
C430 C 0.94041 0.80563 0.90575 0.0
C431 C 0.962 0.809 0.87787 0.0
H432 H 0.63569 0.63404 0.48609 0.0
H433 H 0.54822 0.68573 0.50309 0.0
H434 H 0.62345 0.63329 0.42503 0.0
H435 H 0.53502 0.68382 0.44287 0.0
H436 H 0.55843 0.59952 0.33562 0.0
H437 H 0.58706 0.61019 0.38835 0.0
H438 H 0.54514 0.69806 0.38628 0.0
H439 H 0.51487 0.68619 0.3346 0.0
C440 C 0.61382 0.64521 0.47678 0.0
C441 C 0.5928 0.65975 0.4995 0.0
C442 C 0.60673 0.64475 0.44174 0.0
C443 C 0.57818 0.65848 0.42865 0.0
C444 C 0.55765 0.67355 0.45149 0.0
C445 C 0.56499 0.67436 0.48632 0.0
C446 C 0.55658 0.62154 0.34573 0.0
C447 C 0.53473 0.64213 0.33111 0.0
C448 C 0.57289 0.62771 0.37615 0.0
C449 C 0.56781 0.65478 0.39235 0.0
C450 C 0.54883 0.67661 0.37528 0.0
C451 C 0.53198 0.67013 0.34527 0.0
H452 H 0.31393 0.60153 0.02165 0.0
H453 H 0.33866 0.69182 0.99137 0.0
H454 H 0.33751 0.60894 0.07762 0.0
H455 H 0.36132 0.69966 0.0481 0.0
H456 H 0.45237 0.67568 0.11631 0.0
H457 H 0.41146 0.68284 0.07209 0.0
H458 H 0.34126 0.63061 0.1326 0.0
H459 H 0.38314 0.62272 0.17671 0.0
C460 C 0.32359 0.62326 0.02724 0.0
C461 C 0.32509 0.64586 0.00169 0.0
C462 C 0.33689 0.62763 0.05962 0.0
C463 C 0.35186 0.6548 0.0674 0.0
C464 C 0.35066 0.67823 0.0428 0.0
C465 C 0.33756 0.67378 0.01027 0.0
C466 C 0.42784 0.66654 0.1207 0.0
C467 C 0.42107 0.64837 0.14975 0.0
C468 C 0.40418 0.67077 0.09534 0.0
C469 C 0.37309 0.65685 0.09833 0.0
C470 C 0.36518 0.64118 0.12913 0.0
C471 C 0.389 0.63698 0.15466 0.0
H472 H 0.16881 0.86004 0.52283 0.0
H473 H 0.12196 0.77711 0.49861 0.0
H474 H 0.1423 0.85817 0.57887 0.0
H475 H 0.09603 0.77483 0.55525 0.0
H476 H 0.01404 0.81449 0.62448 0.0
H477 H 0.05126 0.80271 0.57801 0.0
H478 H 0.13355 0.83603 0.6355 0.0
H479 H 0.09567 0.84875 0.68186 0.0
C480 C 0.15347 0.84101 0.52974 0.0
C481 C 0.14703 0.81901 0.50591 0.0
C482 C 0.13843 0.83981 0.56211 0.0
C483 C 0.11665 0.81652 0.57153 0.0
C484 C 0.11218 0.79338 0.54862 0.0
C485 C 0.12716 0.79462 0.51617 0.0
C486 C 0.04019 0.8187 0.62756 0.0
C487 C 0.0519 0.83262 0.65679 0.0
C488 C 0.06166 0.81171 0.60096 0.0
C489 C 0.09547 0.81859 0.60278 0.0
C490 C 0.10758 0.83074 0.63308 0.0
C491 C 0.08598 0.83767 0.65987 0.0
H492 H 0.18811 0.27924 0.29873 0.0
H493 H 0.26481 0.21946 0.26815 0.0
H494 H 0.14695 0.24791 0.27238 0.0
H495 H 0.22373 0.18848 0.24085 0.0
H496 H 0.13627 0.12083 0.25219 0.0
H497 H 0.18197 0.15489 0.26099 0.0
H498 H 0.12258 0.2275 0.22253 0.0
H499 H 0.0764 0.19306 0.2148 0.0
C500 C 0.19631 0.25971 0.28579 0.0
C501 C 0.22979 0.25174 0.28595 0.0
C502 C 0.17265 0.24178 0.27037 0.0
C503 C 0.18183 0.21543 0.25454 0.0
C504 C 0.21558 0.2083 0.25324 0.0
C505 C 0.23922 0.22616 0.2688 0.0
C506 C 0.13348 0.1439 0.24435 0.0
C507 C 0.10305 0.15421 0.23214 0.0
C508 C 0.1597 0.16354 0.24945 0.0
C509 C 0.15606 0.19415 0.24279 0.0
C510 C 0.12621 0.20417 0.22837 0.0
C511 C 0.09991 0.18439 0.22327 0.0
H512 H 0.27665 0.33192 0.84894 0.0
H513 H 0.29295 0.23789 0.84154 0.0
H514 H 0.32865 0.34203 0.81888 0.0
H515 H 0.34532 0.24813 0.81157 0.0
H516 H 0.41304 0.35465 0.74646 0.0
H517 H 0.35746 0.33648 0.76139 0.0
H518 H 0.39939 0.27075 0.83047 0.0
H519 H 0.45463 0.28901 0.81557 0.0
C520 C 0.29129 0.31339 0.84082 0.0
C521 C 0.28078 0.2841 0.8479 0.0
C522 C 0.32091 0.3192 0.8232 0.0
C523 C 0.34094 0.29588 0.81258 0.0
C524 C 0.33035 0.26655 0.81939 0.0
C525 C 0.30043 0.26071 0.83662 0.0
C526 C 0.41035 0.33544 0.76353 0.0
C527 C 0.43803 0.32306 0.77966 0.0
C528 C 0.37857 0.32533 0.77252 0.0
C529 C 0.37408 0.30244 0.79745 0.0
C530 C 0.402 0.2883 0.81109 0.0
C531 C 0.43364 0.2987 0.80251 0.0
H532 H 0.72067 0.18392 0.70138 0.0
H533 H 0.78197 0.26254 0.70038 0.0
H534 H 0.67478 0.21206 0.72405 0.0
H535 H 0.73569 0.291 0.72199 0.0
H536 H 0.64762 0.33687 0.76779 0.0
H537 H 0.69464 0.30269 0.76576 0.0
H538 H 0.64004 0.24761 0.69714 0.0
H539 H 0.59381 0.28116 0.69972 0.0
C540 C 0.72449 0.20716 0.70634 0.0
C541 C 0.75491 0.22102 0.69856 0.0
C542 C 0.69809 0.22337 0.71926 0.0
C543 C 0.70121 0.25401 0.72437 0.0
C544 C 0.73231 0.26746 0.71865 0.0
C545 C 0.75886 0.25114 0.706 0.0
C546 C 0.64548 0.31685 0.75335 0.0
C547 C 0.6171 0.31152 0.73403 0.0
C548 C 0.67249 0.29747 0.75177 0.0
C549 C 0.67135 0.27236 0.7311 0.0
C550 C 0.64192 0.26632 0.71372 0.0
C551 C 0.61533 0.28566 0.71508 0.0
H552 H 0.80024 0.282 0.14407 0.0
H553 H 0.7464 0.19978 0.16039 0.0
H554 H 0.85048 0.25802 0.16439 0.0
H555 H 0.79679 0.1758 0.18055 0.0
H556 H 0.93404 0.18958 0.14369 0.0
H557 H 0.88492 0.21974 0.13778 0.0
H558 H 0.8414 0.17431 0.22616 0.0
H559 H 0.89135 0.14393 0.23219 0.0
C560 C 0.79902 0.25888 0.15226 0.0
C561 C 0.76936 0.24272 0.15017 0.0
C562 C 0.82783 0.24515 0.16393 0.0
C563 C 0.82766 0.21498 0.17402 0.0
C564 C 0.79769 0.19914 0.17334 0.0
C565 C 0.76888 0.21283 0.16143 0.0
C566 C 0.91431 0.18649 0.16238 0.0
C567 C 0.91643 0.1644 0.18834 0.0
C568 C 0.88618 0.20387 0.15907 0.0
C569 C 0.85915 0.19934 0.18137 0.0
C570 C 0.86179 0.17815 0.20845 0.0
C571 C 0.89041 0.16099 0.21213 0.0
H572 H 0.7977 0.71062 0.72117 0.0
H573 H 0.73689 0.76851 0.78055 0.0
H574 H 0.84676 0.73828 0.73763 0.0
H575 H 0.78605 0.79637 0.79664 0.0
H576 H 0.86922 0.86055 0.74584 0.0
H577 H 0.82097 0.82858 0.75425 0.0
H578 H 0.88385 0.75668 0.7875 0.0
H579 H 0.93243 0.78931 0.77986 0.0
C580 C 0.79488 0.72881 0.73836 0.0
C581 C 0.76338 0.73759 0.7492 0.0
C582 C 0.82303 0.74451 0.74802 0.0
C583 C 0.82018 0.76953 0.76832 0.0
C584 C 0.78891 0.77718 0.78092 0.0
C585 C 0.7608 0.76121 0.77169 0.0
C586 C 0.8726 0.83823 0.75612 0.0
C587 C 0.90439 0.82727 0.76209 0.0
C588 C 0.84499 0.81994 0.76104 0.0
C589 C 0.84869 0.79009 0.77131 0.0
C590 C 0.88038 0.77961 0.77948 0.0
C591 C 0.90807 0.79824 0.77532 0.0
H592 H 0.71067 0.75652 0.18301 0.0
H593 H 0.71715 0.74854 0.29323 0.0
H594 H 0.66125 0.72558 0.18469 0.0
H595 H 0.66731 0.71729 0.29476 0.0
H596 H 0.55689 0.6806 0.27283 0.0
H597 H 0.60365 0.71515 0.27939 0.0
H598 H 0.65683 0.67081 0.19993 0.0
H599 H 0.6111 0.63654 0.19383 0.0
C600 C 0.70131 0.74857 0.20768 0.0
C601 C 0.71819 0.7548 0.23793 0.0
C602 C 0.67302 0.73068 0.20862 0.0
C603 C 0.66071 0.71856 0.23982 0.0
C604 C 0.67624 0.72628 0.27036 0.0
C605 C 0.7048 0.74414 0.26942 0.0
C606 C 0.57896 0.67781 0.25754 0.0
C607 C 0.58018 0.6559 0.23272 0.0
C608 C 0.60558 0.69772 0.26106 0.0
C609 C 0.63357 0.69611 0.23956 0.0
C610 C 0.63531 0.67315 0.21624 0.0
C611 C 0.60909 0.65337 0.21291 0.0
H612 H 0.28721 0.77868 0.28778 0.0
H613 H 0.21396 0.7157 0.25533 0.0
H614 H 0.33089 0.74667 0.26726 0.0
H615 H 0.2577 0.68382 0.23459 0.0
H616 H 0.34339 0.62043 0.27091 0.0
H617 H 0.29712 0.65434 0.26905 0.0
H618 H 0.35881 0.72102 0.21852 0.0
H619 H 0.40548 0.68651 0.22024 0.0
C620 C 0.28037 0.75833 0.27558 0.0
C621 C 0.24708 0.74956 0.2737 0.0
C622 C 0.30545 0.74007 0.26355 0.0
C623 C 0.2978 0.71256 0.24953 0.0
C624 C 0.26441 0.70473 0.2456 0.0
C625 C 0.23934 0.72305 0.25746 0.0
C626 C 0.3468 0.64202 0.25845 0.0
C627 C 0.37798 0.65094 0.24588 0.0
C628 C 0.32024 0.66146 0.25725 0.0
C629 C 0.3243 0.69051 0.2439 0.0
C630 C 0.35501 0.69884 0.22922 0.0
C631 C 0.3816 0.67907 0.22992 0.0
H632 H 0.26297 0.74029 0.74414 0.0
H633 H 0.18785 0.68102 0.78608 0.0
H634 H 0.22033 0.77428 0.72402 0.0
H635 H 0.14529 0.71531 0.7668 0.0
H636 H 0.07071 0.77936 0.72847 0.0
H637 H 0.11452 0.74243 0.72274 0.0
H638 H 0.18611 0.80683 0.75557 0.0
H639 H 0.14266 0.84311 0.76095 0.0
C640 C 0.23735 0.73424 0.74859 0.0
C641 C 0.22891 0.70809 0.76721 0.0
C642 C 0.21285 0.75381 0.73714 0.0
C643 C 0.17928 0.74784 0.74416 0.0
C644 C 0.17079 0.72064 0.76061 0.0
C645 C 0.19529 0.701 0.77194 0.0
C646 C 0.09608 0.7858 0.73294 0.0
C647 C 0.10344 0.81402 0.74504 0.0
C648 C 0.12112 0.7646 0.73015 0.0
C649 C 0.15389 0.77144 0.73917 0.0
C650 C 0.16139 0.80066 0.7481 0.0
C651 C 0.13645 0.82158 0.75119 0.0
loop_
_geom_bond_atom_site_label_1
_geom_bond_atom_site_label_2
_geom_bond_distance
_geom_bond_site_symmetry_2
_ccdc_geom_bond_type
O0 Cd1 2.300 . S
O0 C7 1.275 . S
Cd1 O0 2.300 . S
Cd1 O9 2.381 . S
Cd1 O10 2.378 . S
O2 Cd3 2.385 . S
O2 C7 1.255 . S
Cd3 O2 2.385 . S
Cd3 O4 2.317 . S
O4 Cd3 2.317 . S
O4 C5 1.232 . S
C5 O4 1.232 . S
C5 O6 1.218 . S
O6 C5 1.218 . S
C7 O0 1.275 . S
C7 O2 1.255 . S
C8 O9 1.258 . S
C8 O10 1.256 . S
O9 Cd1 2.381 . S
O9 C8 1.258 . S
O10 Cd1 2.378 . S
O10 C8 1.256 . S
O11 Cd12 2.300 . S
O11 C18 1.275 . S
Cd12 O11 2.300 . S
Cd12 O20 2.381 . S
Cd12 O21 2.378 . S
O13 Cd14 2.385 . S
O13 C18 1.255 . S
Cd14 O13 2.385 . S
Cd14 O15 2.317 . S
O15 Cd14 2.317 . S
O15 C16 1.232 . S
C16 O15 1.232 . S
C16 O17 1.218 . S
O17 C16 1.218 . S
C18 O11 1.275 . S
C18 O13 1.255 . S
C19 O20 1.258 . S
C19 O21 1.256 . S
O20 Cd12 2.381 . S
O20 C19 1.258 . S
O21 Cd12 2.378 . S
O21 C19 1.256 . S
O22 Cd23 2.300 . S
O22 C29 1.275 . S
Cd23 O22 2.300 . S
Cd23 O31 2.381 . S
Cd23 O32 2.378 . S
O24 Cd25 2.385 . S
O24 C29 1.255 . S
Cd25 O24 2.385 . S
Cd25 O26 2.317 . S
O26 Cd25 2.317 . S
O26 C27 1.232 . S
C27 O26 1.232 . S
C27 O28 1.218 . S
O28 C27 1.218 . S
C29 O22 1.275 . S
C29 O24 1.255 . S
C30 O31 1.258 . S
C30 O32 1.256 . S
O31 Cd23 2.381 . S
O31 C30 1.258 . S
O32 Cd23 2.378 . S
O32 C30 1.256 . S
O33 Cd34 2.300 . S
O33 C40 1.275 . S
Cd34 O33 2.300 . S
Cd34 O42 2.381 . S
Cd34 O43 2.378 . S
O35 Cd36 2.385 . S
O35 C40 1.255 . S
Cd36 O35 2.385 . S
Cd36 O37 2.317 . S
O37 Cd36 2.317 . S
O37 C38 1.232 . S
C38 O37 1.232 . S
C38 O39 1.218 . S
O39 C38 1.218 . S
C40 O33 1.275 . S
C40 O35 1.255 . S
C41 O42 1.258 . S
C41 O43 1.256 . S
O42 Cd34 2.381 . S
O42 C41 1.258 . S
O43 Cd34 2.378 . S
O43 C41 1.256 . S
O44 Cd45 2.300 . S
O44 C51 1.275 . S
Cd45 O44 2.300 . S
Cd45 O53 2.381 . S
Cd45 O54 2.378 . S
O46 Cd47 2.385 . S
O46 C51 1.255 . S
Cd47 O46 2.385 . S
Cd47 O48 2.317 . S
O48 Cd47 2.317 . S
O48 C49 1.232 . S
C49 O48 1.232 . S
C49 O50 1.218 . S
O50 C49 1.218 . S
C51 O44 1.275 . S
C51 O46 1.255 . S
C52 O53 1.258 . S
C52 O54 1.256 . S
O53 Cd45 2.381 . S
O53 C52 1.258 . S
O54 Cd45 2.378 . S
O54 C52 1.256 . S
O55 Cd56 2.300 . S
O55 C62 1.275 . S
Cd56 O55 2.300 . S
Cd56 O64 2.381 . S
Cd56 O65 2.378 . S
O57 Cd58 2.385 . S
O57 C62 1.255 . S
Cd58 O57 2.385 . S
Cd58 O59 2.317 . S
O59 Cd58 2.317 . S
O59 C60 1.232 . S
C60 O59 1.232 . S
C60 O61 1.218 . S
O61 C60 1.218 . S
C62 O55 1.275 . S
C62 O57 1.255 . S
C63 O64 1.258 . S
C63 O65 1.256 . S
O64 Cd56 2.381 . S
O64 C63 1.258 . S
O65 Cd56 2.378 . S
O65 C63 1.256 . S
O66 Cd67 2.300 . S
O66 C73 1.275 . S
Cd67 O66 2.300 . S
Cd67 O75 2.381 . S
Cd67 O76 2.378 . S
O68 Cd69 2.385 . S
O68 C73 1.255 . S
Cd69 O68 2.385 . S
Cd69 O70 2.317 . S
O70 Cd69 2.317 . S
O70 C71 1.232 . S
C71 O70 1.232 . S
C71 O72 1.218 . S
O72 C71 1.218 . S
C73 O66 1.275 . S
C73 O68 1.255 . S
C74 O75 1.258 . S
C74 O76 1.256 . S
O75 Cd67 2.381 . S
O75 C74 1.258 . S
O76 Cd67 2.378 . S
O76 C74 1.256 . S
O77 Cd78 2.300 . S
O77 C84 1.275 . S
Cd78 O77 2.300 . S
Cd78 O86 2.381 . S
Cd78 O87 2.378 . S
O79 Cd80 2.385 . S
O79 C84 1.255 . S
Cd80 O79 2.385 . S
Cd80 O81 2.317 . S
O81 Cd80 2.317 . S
O81 C82 1.232 . S
C82 O81 1.232 . S
C82 O83 1.218 . S
O83 C82 1.218 . S
C84 O77 1.275 . S
C84 O79 1.255 . S
C85 O86 1.258 . S
C85 O87 1.256 . S
O86 Cd78 2.381 . S
O86 C85 1.258 . S
O87 Cd78 2.378 . S
O87 C85 1.256 . S
Zn88 O94 1.920 . S
Zn88 O100 1.898 . S
Zn88 O103 1.905 . S
Zn89 O97 1.905 1_655 S
Zn89 O98 1.898 . S
Zn89 O106 1.920 . S
Zn90 O93 2.080 1_455 S
Zn90 O96 2.114 . S
Zn90 O99 2.120 1_455 S
Zn90 O101 2.120 . S
Zn90 O102 2.114 . S
Zn90 O105 2.080 1_455 S
C91 O96 1.166 . S
C91 O97 1.182 . S
C92 O98 1.167 . S
C92 O99 1.299 . S
O93 Zn90 2.080 1_655 S
O93 C107 1.305 . S
O94 Zn88 1.920 . S
O94 C107 1.234 1_455 S
C95 O100 1.167 . S
C95 O101 1.299 . S
O96 Zn90 2.114 . S
O96 C91 1.166 . S
O97 Zn89 1.905 1_455 S
O97 C91 1.182 . S
O98 Zn89 1.898 . S
O98 C92 1.167 . S
O99 Zn90 2.120 1_655 S
O99 C92 1.299 . S
O100 Zn88 1.898 . S
O100 C95 1.167 . S
O101 Zn90 2.120 . S
O101 C95 1.299 . S
O102 Zn90 2.114 . S
O102 C104 1.166 . S
O103 Zn88 1.905 . S
O103 C104 1.182 . S
C104 O102 1.166 . S
C104 O103 1.182 . S
O105 Zn90 2.080 1_655 S
O105 C108 1.305 . S
O106 Zn89 1.920 . S
O106 C108 1.234 . S
C107 O93 1.305 . S
C107 O94 1.234 1_655 S
C108 O105 1.305 . S
C108 O106 1.234 . S
Zn109 O115 1.920 . S
Zn109 O121 1.898 . S
Zn109 O124 1.905 . S
Zn110 O118 1.905 . S
Zn110 O119 1.898 . S
Zn110 O127 1.920 . S
Zn111 O114 2.080 . S
Zn111 O117 2.114 . S
Zn111 O120 2.120 . S
Zn111 O122 2.120 . S
Zn111 O123 2.114 . S
Zn111 O126 2.080 . S
C112 O117 1.166 . S
C112 O118 1.182 . S
C113 O119 1.167 . S
C113 O120 1.299 . S
O114 Zn111 2.080 . S
O114 C128 1.305 . S
O115 Zn109 1.920 . S
O115 C128 1.234 . S
C116 O121 1.167 . S
C116 O122 1.299 . S
O117 Zn111 2.114 . S
O117 C112 1.166 . S
O118 Zn110 1.905 . S
O118 C112 1.182 . S
O119 Zn110 1.898 . S
O119 C113 1.167 . S
O120 Zn111 2.120 . S
O120 C113 1.299 . S
O121 Zn109 1.898 . S
O121 C116 1.167 . S
O122 Zn111 2.120 . S
O122 C116 1.299 . S
O123 Zn111 2.114 . S
O123 C125 1.166 . S
O124 Zn109 1.905 . S
O124 C125 1.182 . S
C125 O123 1.166 . S
C125 O124 1.182 . S
O126 Zn111 2.080 . S
O126 C129 1.305 . S
O127 Zn110 1.920 . S
O127 C129 1.234 . S
C128 O114 1.305 . S
C128 O115 1.234 . S
C129 O126 1.305 . S
C129 O127 1.234 . S
Zn130 O136 1.920 . S
Zn130 O142 1.898 . S
Zn130 O145 1.905 1_455 S
Zn131 O139 1.905 . S
Zn131 O140 1.898 . S
Zn131 O148 1.920 1_655 S
Zn132 O135 2.080 . S
Zn132 O138 2.114 1_455 S
Zn132 O141 2.120 1_455 S
Zn132 O143 2.120 . S
Zn132 O144 2.114 1_455 S
Zn132 O147 2.080 . S
C133 O138 1.166 . S
C133 O139 1.182 . S
C134 O140 1.167 . S
C134 O141 1.299 . S
O135 Zn132 2.080 . S
O135 C149 1.305 . S
O136 Zn130 1.920 . S
O136 C149 1.234 . S
C137 O142 1.167 . S
C137 O143 1.299 . S
O138 Zn132 2.114 1_655 S
O138 C133 1.166 . S
O139 Zn131 1.905 . S
O139 C133 1.182 . S
O140 Zn131 1.898 . S
O140 C134 1.167 . S
O141 Zn132 2.120 1_655 S
O141 C134 1.299 . S
O142 Zn130 1.898 . S
O142 C137 1.167 . S
O143 Zn132 2.120 . S
O143 C137 1.299 . S
O144 Zn132 2.114 1_655 S
O144 C146 1.166 . S
O145 Zn130 1.905 1_655 S
O145 C146 1.182 . S
C146 O144 1.166 . S
C146 O145 1.182 . S
O147 Zn132 2.080 . S
O147 C150 1.305 . S
O148 Zn131 1.920 1_455 S
O148 C150 1.234 . S
C149 O135 1.305 . S
C149 O136 1.234 . S
C150 O147 1.305 . S
C150 O148 1.234 . S
Zn151 O157 1.920 . S
Zn151 O163 1.898 . S
Zn151 O166 1.905 . S
Zn152 O160 1.905 . S
Zn152 O161 1.898 . S
Zn152 O169 1.920 . S
Zn153 O156 2.080 . S
Zn153 O159 2.114 . S
Zn153 O162 2.120 . S
Zn153 O164 2.120 . S
Zn153 O165 2.114 . S
Zn153 O168 2.080 . S
C154 O159 1.166 . S
C154 O160 1.182 . S
C155 O161 1.167 . S
C155 O162 1.299 . S
O156 Zn153 2.080 . S
O156 C170 1.305 . S
O157 Zn151 1.920 . S
O157 C170 1.234 . S
C158 O163 1.167 . S
C158 O164 1.299 . S
O159 Zn153 2.114 . S
O159 C154 1.166 . S
O160 Zn152 1.905 . S
O160 C154 1.182 . S
O161 Zn152 1.898 . S
O161 C155 1.167 . S
O162 Zn153 2.120 . S
O162 C155 1.299 . S
O163 Zn151 1.898 . S
O163 C158 1.167 . S
O164 Zn153 2.120 . S
O164 C158 1.299 . S
O165 Zn153 2.114 . S
O165 C167 1.166 . S
O166 Zn151 1.905 . S
O166 C167 1.182 . S
C167 O165 1.166 . S
C167 O166 1.182 . S
O168 Zn153 2.080 . S
O168 C171 1.305 . S
O169 Zn152 1.920 . S
O169 C171 1.234 . S
C170 O156 1.305 . S
C170 O157 1.234 . S
C171 O168 1.305 . S
C171 O169 1.234 . S
H172 C180 0.950 . S
H173 C185 0.950 . S
H174 C182 0.950 . S
H175 C184 0.950 . S
H176 C186 0.950 . S
H177 C188 0.950 . S
H178 C190 0.950 . S
H179 C191 0.950 . S
C180 H172 0.950 . S
C180 C181 1.386 . S
C180 C182 1.391 . S
C181 C180 1.386 . S
C181 C185 1.393 . S
C182 H174 0.950 . S
C182 C180 1.391 . S
C182 C183 1.400 . S
C183 C182 1.400 . S
C183 C184 1.398 . S
C183 C189 1.491 . S
C184 H175 0.950 . S
C184 C183 1.398 . S
C184 C185 1.391 . S
C185 H173 0.950 . S
C185 C181 1.393 . S
C185 C184 1.391 . S
C186 H176 0.950 . S
C186 C187 1.386 . S
C186 C188 1.391 1_545 S
C187 C186 1.386 . S
C187 C191 1.393 . S
C188 H177 0.950 . S
C188 C186 1.391 1_565 S
C188 C189 1.400 . S
C189 C183 1.491 . S
C189 C188 1.400 . S
C189 C190 1.398 1_565 S
C190 H178 0.950 . S
C190 C189 1.398 1_545 S
C190 C191 1.391 . S
C191 H179 0.950 . S
C191 C187 1.393 . S
C191 C190 1.391 . S
H192 C200 0.950 . S
H193 C205 0.950 . S
H194 C202 0.950 . S
H195 C204 0.950 . S
H196 C206 0.950 . S
H197 C208 0.950 . S
H198 C210 0.950 . S
H199 C211 0.950 . S
C200 H192 0.950 . S
C200 C201 1.386 . S
C200 C202 1.391 . S
C201 C200 1.386 . S
C201 C205 1.393 . S
C202 H194 0.950 . S
C202 C200 1.391 . S
C202 C203 1.400 . S
C203 C202 1.400 . S
C203 C204 1.398 . S
C203 C209 1.491 . S
C204 H195 0.950 . S
C204 C203 1.398 . S
C204 C205 1.391 . S
C205 H193 0.950 . S
C205 C201 1.393 . S
C205 C204 1.391 . S
C206 H196 0.950 . S
C206 C207 1.386 . S
C206 C208 1.391 . S
C207 C206 1.386 . S
C207 C211 1.393 . S
C208 H197 0.950 . S
C208 C206 1.391 . S
C208 C209 1.400 . S
C209 C203 1.491 . S
C209 C208 1.400 . S
C209 C210 1.398 . S
C210 H198 0.950 . S
C210 C209 1.398 . S
C210 C211 1.391 . S
C211 H199 0.950 . S
C211 C207 1.393 . S
C211 C210 1.391 . S
H212 C220 0.950 . S
H213 C225 0.950 . S
H214 C222 0.950 . S
H215 C224 0.950 . S
H216 C226 0.950 . S
H217 C228 0.950 . S
H218 C230 0.950 . S
H219 C231 0.950 . S
C220 H212 0.950 . S
C220 C221 1.386 . S
C220 C222 1.391 . S
C221 C220 1.386 . S
C221 C225 1.393 . S
C222 H214 0.950 . S
C222 C220 1.391 . S
C222 C223 1.400 . S
C223 C222 1.400 . S
C223 C224 1.398 . S
C223 C229 1.491 . S
C224 H215 0.950 . S
C224 C223 1.398 . S
C224 C225 1.391 . S
C225 H213 0.950 . S
C225 C221 1.393 . S
C225 C224 1.391 . S
C226 H216 0.950 . S
C226 C227 1.386 . S
C226 C228 1.391 . S
C227 C226 1.386 . S
C227 C231 1.393 . S
C228 H217 0.950 . S
C228 C226 1.391 . S
C228 C229 1.400 . S
C229 C223 1.491 . S
C229 C228 1.400 . S
C229 C230 1.398 . S
C230 H218 0.950 . S
C230 C229 1.398 . S
C230 C231 1.391 . S
C231 H219 0.950 . S
C231 C227 1.393 . S
C231 C230 1.391 . S
H232 C240 0.950 . S
H233 C245 0.950 . S
H234 C242 0.950 . S
H235 C244 0.950 . S
H236 C246 0.950 . S
H237 C248 0.950 . S
H238 C250 0.950 . S
H239 C251 0.950 1_455 S
C240 H232 0.950 . S
C240 C241 1.386 . S
C240 C242 1.391 . S
C241 C240 1.386 . S
C241 C245 1.393 . S
C242 H234 0.950 . S
C242 C240 1.391 . S
C242 C243 1.400 . S
C243 C242 1.400 . S
C243 C244 1.398 . S
C243 C249 1.491 . S
C244 H235 0.950 . S
C244 C243 1.398 . S
C244 C245 1.391 . S
C245 H233 0.950 . S
C245 C241 1.393 . S
C245 C244 1.391 . S
C246 H236 0.950 . S
C246 C247 1.386 . S
C246 C248 1.391 . S
C247 C246 1.386 . S
C247 C251 1.393 . S
C248 H237 0.950 . S
C248 C246 1.391 . S
C248 C249 1.400 1_545 S
C249 C243 1.491 . S
C249 C248 1.400 1_565 S
C249 C250 1.398 . S
C250 H238 0.950 . S
C250 C249 1.398 . S
C250 C251 1.391 1_565 S
C251 H239 0.950 1_655 S
C251 C247 1.393 . S
C251 C250 1.391 1_545 S
H252 C260 0.950 . S
H253 C265 0.950 . S
H254 C262 0.950 . S
H255 C264 0.950 . S
H256 C266 0.950 . S
H257 C268 0.950 . S
H258 C270 0.950 . S
H259 C271 0.950 . S
C260 H252 0.950 . S
C260 C261 1.386 . S
C260 C262 1.391 . S
C261 C260 1.386 . S
C261 C265 1.393 . S
C262 H254 0.950 . S
C262 C260 1.391 . S
C262 C263 1.400 . S
C263 C262 1.400 . S
C263 C264 1.398 . S
C263 C269 1.491 . S
C264 H255 0.950 . S
C264 C263 1.398 . S
C264 C265 1.391 . S
C265 H253 0.950 . S
C265 C261 1.393 . S
C265 C264 1.391 . S
C266 H256 0.950 . S
C266 C267 1.386 . S
C266 C268 1.391 1_565 S
C267 C266 1.386 . S
C267 C271 1.393 . S
C268 H257 0.950 . S
C268 C266 1.391 1_545 S
C268 C269 1.400 . S
C269 C263 1.491 . S
C269 C268 1.400 . S
C269 C270 1.398 . S
C270 H258 0.950 . S
C270 C269 1.398 . S
C270 C271 1.391 1_545 S
C271 H259 0.950 . S
C271 C267 1.393 . S
C271 C270 1.391 1_565 S
H272 C280 0.950 . S
H273 C285 0.950 . S
H274 C282 0.950 . S
H275 C284 0.950 . S
H276 C286 0.950 . S
H277 C288 0.950 . S
H278 C290 0.950 . S
H279 C291 0.950 . S
C280 H272 0.950 . S
C280 C281 1.386 . S
C280 C282 1.391 . S
C281 C280 1.386 . S
C281 C285 1.393 . S
C282 H274 0.950 . S
C282 C280 1.391 . S
C282 C283 1.400 . S
C283 C282 1.400 . S
C283 C284 1.398 . S
C283 C289 1.491 . S
C284 H275 0.950 . S
C284 C283 1.398 . S
C284 C285 1.391 . S
C285 H273 0.950 . S
C285 C281 1.393 . S
C285 C284 1.391 . S
C286 H276 0.950 . S
C286 C287 1.386 . S
C286 C288 1.391 . S
C287 C286 1.386 . S
C287 C291 1.393 . S
C288 H277 0.950 . S
C288 C286 1.391 . S
C288 C289 1.400 . S
C289 C283 1.491 . S
C289 C288 1.400 . S
C289 C290 1.398 . S
C290 H278 0.950 . S
C290 C289 1.398 . S
C290 C291 1.391 . S
C291 H279 0.950 . S
C291 C287 1.393 . S
C291 C290 1.391 . S
H292 C300 0.950 . S
H293 C305 0.950 . S
H294 C302 0.950 . S
H295 C304 0.950 . S
H296 C306 0.950 . S
H297 C308 0.950 . S
H298 C310 0.950 . S
H299 C311 0.950 . S
C300 H292 0.950 . S
C300 C301 1.386 . S
C300 C302 1.391 . S
C301 C300 1.386 . S
C301 C305 1.393 . S
C302 H294 0.950 . S
C302 C300 1.391 . S
C302 C303 1.400 . S
C303 C302 1.400 . S
C303 C304 1.398 . S
C303 C309 1.491 . S
C304 H295 0.950 . S
C304 C303 1.398 . S
C304 C305 1.391 . S
C305 H293 0.950 . S
C305 C301 1.393 . S
C305 C304 1.391 . S
C306 H296 0.950 . S
C306 C307 1.386 . S
C306 C308 1.391 . S
C307 C306 1.386 . S
C307 C311 1.393 . S
C308 H297 0.950 . S
C308 C306 1.391 . S
C308 C309 1.400 . S
C309 C303 1.491 . S
C309 C308 1.400 . S
C309 C310 1.398 . S
C310 H298 0.950 . S
C310 C309 1.398 . S
C310 C311 1.391 . S
C311 H299 0.950 . S
C311 C307 1.393 . S
C311 C310 1.391 . S
H312 C320 0.950 . S
H313 C325 0.950 . S
H314 C322 0.950 . S
H315 C324 0.950 . S
H316 C326 0.950 . S
H317 C328 0.950 . S
H318 C330 0.950 . S
H319 C331 0.950 . S
C320 H312 0.950 . S
C320 C321 1.386 . S
C320 C322 1.391 . S
C321 C320 1.386 . S
C321 C325 1.393 . S
C322 H314 0.950 . S
C322 C320 1.391 . S
C322 C323 1.400 . S
C323 C322 1.400 . S
C323 C324 1.398 . S
C323 C329 1.491 . S
C324 H315 0.950 . S
C324 C323 1.398 . S
C324 C325 1.391 . S
C325 H313 0.950 . S
C325 C321 1.393 . S
C325 C324 1.391 . S
C326 H316 0.950 . S
C326 C327 1.386 . S
C326 C328 1.391 1_565 S
C327 C326 1.386 . S
C327 C331 1.393 . S
C328 H317 0.950 . S
C328 C326 1.391 1_545 S
C328 C329 1.400 . S
C329 C323 1.491 . S
C329 C328 1.400 . S
C329 C330 1.398 1_545 S
C330 H318 0.950 . S
C330 C329 1.398 1_565 S
C330 C331 1.391 . S
C331 H319 0.950 . S
C331 C327 1.393 . S
C331 C330 1.391 . S
H332 C340 0.950 . S
H333 C345 0.950 . S
H334 C342 0.950 . S
H335 C344 0.950 . S
H336 C346 0.950 . S
H337 C348 0.950 . S
H338 C350 0.950 . S
H339 C351 0.950 . S
C340 H332 0.950 . S
C340 C341 1.386 . S
C340 C342 1.391 1_556 S
C341 C340 1.386 . S
C341 C345 1.393 1_556 S
C342 H334 0.950 . S
C342 C340 1.391 1_554 S
C342 C343 1.400 . S
C343 C342 1.400 . S
C343 C344 1.398 . S
C343 C349 1.491 . S
C344 H335 0.950 . S
C344 C343 1.398 . S
C344 C345 1.391 . S
C345 H333 0.950 . S
C345 C341 1.393 1_554 S
C345 C344 1.391 . S
C346 H336 0.950 . S
C346 C347 1.386 . S
C346 C348 1.391 . S
C347 C346 1.386 . S
C347 C351 1.393 . S
C348 H337 0.950 . S
C348 C346 1.391 . S
C348 C349 1.400 . S
C349 C343 1.491 . S
C349 C348 1.400 . S
C349 C350 1.398 . S
C350 H338 0.950 . S
C350 C349 1.398 . S
C350 C351 1.391 . S
C351 H339 0.950 . S
C351 C347 1.393 . S
C351 C350 1.391 . S
H352 C360 0.950 . S
H353 C365 0.950 . S
H354 C362 0.950 . S
H355 C364 0.950 . S
H356 C366 0.950 . S
H357 C368 0.950 . S
H358 C370 0.950 . S
H359 C371 0.950 . S
C360 H352 0.950 . S
C360 C361 1.386 . S
C360 C362 1.391 . S
C361 C360 1.386 . S
C361 C365 1.393 . S
C362 H354 0.950 . S
C362 C360 1.391 . S
C362 C363 1.400 . S
C363 C362 1.400 . S
C363 C364 1.398 . S
C363 C369 1.491 . S
C364 H355 0.950 . S
C364 C363 1.398 . S
C364 C365 1.391 . S
C365 H353 0.950 . S
C365 C361 1.393 . S
C365 C364 1.391 . S
C366 H356 0.950 . S
C366 C367 1.386 . S
C366 C368 1.391 . S
C367 C366 1.386 . S
C367 C371 1.393 . S
C368 H357 0.950 . S
C368 C366 1.391 . S
C368 C369 1.400 . S
C369 C363 1.491 . S
C369 C368 1.400 . S
C369 C370 1.398 . S
C370 H358 0.950 . S
C370 C369 1.398 . S
C370 C371 1.391 . S
C371 H359 0.950 . S
C371 C367 1.393 . S
C371 C370 1.391 . S
H372 C380 0.950 . S
H373 C385 0.950 1_554 S
H374 C382 0.950 . S
H375 C384 0.950 . S
H376 C386 0.950 . S
H377 C388 0.950 . S
H378 C390 0.950 . S
H379 C391 0.950 . S
C380 H372 0.950 . S
C380 C381 1.386 . S
C380 C382 1.391 1_554 S
C381 C380 1.386 . S
C381 C385 1.393 1_554 S
C382 H374 0.950 . S
C382 C380 1.391 1_556 S
C382 C383 1.400 . S
C383 C382 1.400 . S
C383 C384 1.398 . S
C383 C389 1.491 . S
C384 H375 0.950 . S
C384 C383 1.398 . S
C384 C385 1.391 . S
C385 H373 0.950 1_556 S
C385 C381 1.393 1_556 S
C385 C384 1.391 . S
C386 H376 0.950 . S
C386 C387 1.386 . S
C386 C388 1.391 . S
C387 C386 1.386 . S
C387 C391 1.393 . S
C388 H377 0.950 . S
C388 C386 1.391 . S
C388 C389 1.400 . S
C389 C383 1.491 . S
C389 C388 1.400 . S
C389 C390 1.398 . S
C390 H378 0.950 . S
C390 C389 1.398 . S
C390 C391 1.391 . S
C391 H379 0.950 . S
C391 C387 1.393 . S
C391 C390 1.391 . S
H392 C400 0.950 . S
H393 C405 0.950 . S
H394 C402 0.950 . S
H395 C404 0.950 . S
H396 C406 0.950 . S
H397 C408 0.950 . S
H398 C410 0.950 . S
H399 C411 0.950 . S
C400 H392 0.950 . S
C400 C401 1.386 . S
C400 C402 1.391 . S
C401 C400 1.386 . S
C401 C405 1.393 . S
C402 H394 0.950 . S
C402 C400 1.391 . S
C402 C403 1.400 . S
C403 C402 1.400 . S
C403 C404 1.398 . S
C403 C409 1.491 . S
C404 H395 0.950 . S
C404 C403 1.398 . S
C404 C405 1.391 . S
C405 H393 0.950 . S
C405 C401 1.393 . S
C405 C404 1.391 . S
C406 H396 0.950 . S
C406 C407 1.386 . S
C406 C408 1.391 . S
C407 C406 1.386 . S
C407 C411 1.393 . S
C408 H397 0.950 . S
C408 C406 1.391 . S
C408 C409 1.400 . S
C409 C403 1.491 . S
C409 C408 1.400 . S
C409 C410 1.398 . S
C410 H398 0.950 . S
C410 C409 1.398 . S
C410 C411 1.391 . S
C411 H399 0.950 . S
C411 C407 1.393 . S
C411 C410 1.391 . S
H412 C420 0.950 . S
H413 C425 0.950 . S
H414 C422 0.950 . S
H415 C424 0.950 . S
H416 C426 0.950 . S
H417 C428 0.950 . S
H418 C430 0.950 . S
H419 C431 0.950 . S
C420 H412 0.950 . S
C420 C421 1.386 . S
C420 C422 1.391 1_554 S
C421 C420 1.386 . S
C421 C425 1.393 1_554 S
C422 H414 0.950 . S
C422 C420 1.391 1_556 S
C422 C423 1.400 . S
C423 C422 1.400 . S
C423 C424 1.398 . S
C423 C429 1.491 . S
C424 H415 0.950 . S
C424 C423 1.398 . S
C424 C425 1.391 . S
C425 H413 0.950 . S
C425 C421 1.393 1_556 S
C425 C424 1.391 . S
C426 H416 0.950 . S
C426 C427 1.386 . S
C426 C428 1.391 . S
C427 C426 1.386 . S
C427 C431 1.393 . S
C428 H417 0.950 . S
C428 C426 1.391 . S
C428 C429 1.400 . S
C429 C423 1.491 . S
C429 C428 1.400 . S
C429 C430 1.398 . S
C430 H418 0.950 . S
C430 C429 1.398 . S
C430 C431 1.391 . S
C431 H419 0.950 . S
C431 C427 1.393 . S
C431 C430 1.391 . S
H432 C440 0.950 . S
H433 C445 0.950 . S
H434 C442 0.950 . S
H435 C444 0.950 . S
H436 C446 0.950 . S
H437 C448 0.950 . S
H438 C450 0.950 . S
H439 C451 0.950 . S
C440 H432 0.950 . S
C440 C441 1.386 . S
C440 C442 1.391 . S
C441 C440 1.386 . S
C441 C445 1.393 . S
C442 H434 0.950 . S
C442 C440 1.391 . S
C442 C443 1.400 . S
C443 C442 1.400 . S
C443 C444 1.398 . S
C443 C449 1.491 . S
C444 H435 0.950 . S
C444 C443 1.398 . S
C444 C445 1.391 . S
C445 H433 0.950 . S
C445 C441 1.393 . S
C445 C444 1.391 . S
C446 H436 0.950 . S
C446 C447 1.386 . S
C446 C448 1.391 . S
C447 C446 1.386 . S
C447 C451 1.393 . S
C448 H437 0.950 . S
C448 C446 1.391 . S
C448 C449 1.400 . S
C449 C443 1.491 . S
C449 C448 1.400 . S
C449 C450 1.398 . S
C450 H438 0.950 . S
C450 C449 1.398 . S
C450 C451 1.391 . S
C451 H439 0.950 . S
C451 C447 1.393 . S
C451 C450 1.391 . S
H452 C460 0.950 1_556 S
H453 C465 0.950 . S
H454 C462 0.950 . S
H455 C464 0.950 . S
H456 C466 0.950 . S
H457 C468 0.950 . S
H458 C470 0.950 . S
H459 C471 0.950 . S
C460 H452 0.950 1_554 S
C460 C461 1.386 1_554 S
C460 C462 1.391 . S
C461 C460 1.386 1_556 S
C461 C465 1.393 1_556 S
C462 H454 0.950 . S
C462 C460 1.391 . S
C462 C463 1.400 . S
C463 C462 1.400 . S
C463 C464 1.398 . S
C463 C469 1.491 . S
C464 H455 0.950 . S
C464 C463 1.398 . S
C464 C465 1.391 . S
C465 H453 0.950 . S
C465 C461 1.393 1_554 S
C465 C464 1.391 . S
C466 H456 0.950 . S
C466 C467 1.386 . S
C466 C468 1.391 . S
C467 C466 1.386 . S
C467 C471 1.393 . S
C468 H457 0.950 . S
C468 C466 1.391 . S
C468 C469 1.400 . S
C469 C463 1.491 . S
C469 C468 1.400 . S
C469 C470 1.398 . S
C470 H458 0.950 . S
C470 C469 1.398 . S
C470 C471 1.391 . S
C471 H459 0.950 . S
C471 C467 1.393 . S
C471 C470 1.391 . S
H472 C480 0.950 . S
H473 C485 0.950 . S
H474 C482 0.950 . S
H475 C484 0.950 . S
H476 C486 0.950 . S
H477 C488 0.950 . S
H478 C490 0.950 . S
H479 C491 0.950 . S
C480 H472 0.950 . S
C480 C481 1.386 . S
C480 C482 1.391 . S
C481 C480 1.386 . S
C481 C485 1.393 . S
C482 H474 0.950 . S
C482 C480 1.391 . S
C482 C483 1.400 . S
C483 C482 1.400 . S
C483 C484 1.398 . S
C483 C489 1.491 . S
C484 H475 0.950 . S
C484 C483 1.398 . S
C484 C485 1.391 . S
C485 H473 0.950 . S
C485 C481 1.393 . S
C485 C484 1.391 . S
C486 H476 0.950 . S
C486 C487 1.386 . S
C486 C488 1.391 . S
C487 C486 1.386 . S
C487 C491 1.393 . S
C488 H477 0.950 . S
C488 C486 1.391 . S
C488 C489 1.400 . S
C489 C483 1.491 . S
C489 C488 1.400 . S
C489 C490 1.398 . S
C490 H478 0.950 . S
C490 C489 1.398 . S
C490 C491 1.391 . S
C491 H479 0.950 . S
C491 C487 1.393 . S
C491 C490 1.391 . S
H492 C500 0.950 . S
H493 C505 0.950 . S
H494 C502 0.950 . S
H495 C504 0.950 . S
H496 C506 0.950 . S
H497 C508 0.950 . S
H498 C510 0.950 . S
H499 C511 0.950 . S
C500 H492 0.950 . S
C500 C501 1.386 . S
C500 C502 1.391 . S
C501 C500 1.386 . S
C501 C505 1.393 . S
C502 H494 0.950 . S
C502 C500 1.391 . S
C502 C503 1.400 . S
C503 C502 1.400 . S
C503 C504 1.398 . S
C503 C509 1.491 . S
C504 H495 0.950 . S
C504 C503 1.398 . S
C504 C505 1.391 . S
C505 H493 0.950 . S
C505 C501 1.393 . S
C505 C504 1.391 . S
C506 H496 0.950 . S
C506 C507 1.386 . S
C506 C508 1.391 . S
C507 C506 1.386 . S
C507 C511 1.393 . S
C508 H497 0.950 . S
C508 C506 1.391 . S
C508 C509 1.400 . S
C509 C503 1.491 . S
C509 C508 1.400 . S
C509 C510 1.398 . S
C510 H498 0.950 . S
C510 C509 1.398 . S
C510 C511 1.391 . S
C511 H499 0.950 . S
C511 C507 1.393 . S
C511 C510 1.391 . S
H512 C520 0.950 . S
H513 C525 0.950 . S
H514 C522 0.950 . S
H515 C524 0.950 . S
H516 C526 0.950 . S
H517 C528 0.950 . S
H518 C530 0.950 . S
H519 C531 0.950 . S
C520 H512 0.950 . S
C520 C521 1.386 . S
C520 C522 1.391 . S
C521 C520 1.386 . S
C521 C525 1.393 . S
C522 H514 0.950 . S
C522 C520 1.391 . S
C522 C523 1.400 . S
C523 C522 1.400 . S
C523 C524 1.398 . S
C523 C529 1.491 . S
C524 H515 0.950 . S
C524 C523 1.398 . S
C524 C525 1.391 . S
C525 H513 0.950 . S
C525 C521 1.393 . S
C525 C524 1.391 . S
C526 H516 0.950 . S
C526 C527 1.386 . S
C526 C528 1.391 . S
C527 C526 1.386 . S
C527 C531 1.393 . S
C528 H517 0.950 . S
C528 C526 1.391 . S
C528 C529 1.400 . S
C529 C523 1.491 . S
C529 C528 1.400 . S
C529 C530 1.398 . S
C530 H518 0.950 . S
C530 C529 1.398 . S
C530 C531 1.391 . S
C531 H519 0.950 . S
C531 C527 1.393 . S
C531 C530 1.391 . S
H532 C540 0.950 . S
H533 C545 0.950 . S
H534 C542 0.950 . S
H535 C544 0.950 . S
H536 C546 0.950 . S
H537 C548 0.950 . S
H538 C550 0.950 . S
H539 C551 0.950 . S
C540 H532 0.950 . S
C540 C541 1.386 . S
C540 C542 1.391 . S
C541 C540 1.386 . S
C541 C545 1.393 . S
C542 H534 0.950 . S
C542 C540 1.391 . S
C542 C543 1.400 . S
C543 C542 1.400 . S
C543 C544 1.398 . S
C543 C549 1.491 . S
C544 H535 0.950 . S
C544 C543 1.398 . S
C544 C545 1.391 . S
C545 H533 0.950 . S
C545 C541 1.393 . S
C545 C544 1.391 . S
C546 H536 0.950 . S
C546 C547 1.386 . S
C546 C548 1.391 . S
C547 C546 1.386 . S
C547 C551 1.393 . S
C548 H537 0.950 . S
C548 C546 1.391 . S
C548 C549 1.400 . S
C549 C543 1.491 . S
C549 C548 1.400 . S
C549 C550 1.398 . S
C550 H538 0.950 . S
C550 C549 1.398 . S
C550 C551 1.391 . S
C551 H539 0.950 . S
C551 C547 1.393 . S
C551 C550 1.391 . S
H552 C560 0.950 . S
H553 C565 0.950 . S
H554 C562 0.950 . S
H555 C564 0.950 . S
H556 C566 0.950 . S
H557 C568 0.950 . S
H558 C570 0.950 . S
H559 C571 0.950 . S
C560 H552 0.950 . S
C560 C561 1.386 . S
C560 C562 1.391 . S
C561 C560 1.386 . S
C561 C565 1.393 . S
C562 H554 0.950 . S
C562 C560 1.391 . S
C562 C563 1.400 . S
C563 C562 1.400 . S
C563 C564 1.398 . S
C563 C569 1.491 . S
C564 H555 0.950 . S
C564 C563 1.398 . S
C564 C565 1.391 . S
C565 H553 0.950 . S
C565 C561 1.393 . S
C565 C564 1.391 . S
C566 H556 0.950 . S
C566 C567 1.386 . S
C566 C568 1.391 . S
C567 C566 1.386 . S
C567 C571 1.393 . S
C568 H557 0.950 . S
C568 C566 1.391 . S
C568 C569 1.400 . S
C569 C563 1.491 . S
C569 C568 1.400 . S
C569 C570 1.398 . S
C570 H558 0.950 . S
C570 C569 1.398 . S
C570 C571 1.391 . S
C571 H559 0.950 . S
C571 C567 1.393 . S
C571 C570 1.391 . S
H572 C580 0.950 . S
H573 C585 0.950 . S
H574 C582 0.950 . S
H575 C584 0.950 . S
H576 C586 0.950 . S
H577 C588 0.950 . S
H578 C590 0.950 . S
H579 C591 0.950 . S
C580 H572 0.950 . S
C580 C581 1.386 . S
C580 C582 1.391 . S
C581 C580 1.386 . S
C581 C585 1.393 . S
C582 H574 0.950 . S
C582 C580 1.391 . S
C582 C583 1.400 . S
C583 C582 1.400 . S
C583 C584 1.398 . S
C583 C589 1.491 . S
C584 H575 0.950 . S
C584 C583 1.398 . S
C584 C585 1.391 . S
C585 H573 0.950 . S
C585 C581 1.393 . S
C585 C584 1.391 . S
C586 H576 0.950 . S
C586 C587 1.386 . S
C586 C588 1.391 . S
C587 C586 1.386 . S
C587 C591 1.393 . S
C588 H577 0.950 . S
C588 C586 1.391 . S
C588 C589 1.400 . S
C589 C583 1.491 . S
C589 C588 1.400 . S
C589 C590 1.398 . S
C590 H578 0.950 . S
C590 C589 1.398 . S
C590 C591 1.391 . S
C591 H579 0.950 . S
C591 C587 1.393 . S
C591 C590 1.391 . S
H592 C600 0.950 . S
H593 C605 0.950 . S
H594 C602 0.950 . S
H595 C604 0.950 . S
H596 C606 0.950 . S
H597 C608 0.950 . S
H598 C610 0.950 . S
H599 C611 0.950 . S
C600 H592 0.950 . S
C600 C601 1.386 . S
C600 C602 1.391 . S
C601 C600 1.386 . S
C601 C605 1.393 . S
C602 H594 0.950 . S
C602 C600 1.391 . S
C602 C603 1.400 . S
C603 C602 1.400 . S
C603 C604 1.398 . S
C603 C609 1.491 . S
C604 H595 0.950 . S
C604 C603 1.398 . S
C604 C605 1.391 . S
C605 H593 0.950 . S
C605 C601 1.393 . S
C605 C604 1.391 . S
C606 H596 0.950 . S
C606 C607 1.386 . S
C606 C608 1.391 . S
C607 C606 1.386 . S
C607 C611 1.393 . S
C608 H597 0.950 . S
C608 C606 1.391 . S
C608 C609 1.400 . S
C609 C603 1.491 . S
C609 C608 1.400 . S
C609 C610 1.398 . S
C610 H598 0.950 . S
C610 C609 1.398 . S
C610 C611 1.391 . S
C611 H599 0.950 . S
C611 C607 1.393 . S
C611 C610 1.391 . S
H612 C620 0.950 . S
H613 C625 0.950 . S
H614 C622 0.950 . S
H615 C624 0.950 . S
H616 C626 0.950 . S
H617 C628 0.950 . S
H618 C630 0.950 . S
H619 C631 0.950 . S
C620 H612 0.950 . S
C620 C621 1.386 . S
C620 C622 1.391 . S
C621 C620 1.386 . S
C621 C625 1.393 . S
C622 H614 0.950 . S
C622 C620 1.391 . S
C622 C623 1.400 . S
C623 C622 1.400 . S
C623 C624 1.398 . S
C623 C629 1.491 . S
C624 H615 0.950 . S
C624 C623 1.398 . S
C624 C625 1.391 . S
C625 H613 0.950 . S
C625 C621 1.393 . S
C625 C624 1.391 . S
C626 H616 0.950 . S
C626 C627 1.386 . S
C626 C628 1.391 . S
C627 C626 1.386 . S
C627 C631 1.393 . S
C628 H617 0.950 . S
C628 C626 1.391 . S
C628 C629 1.400 . S
C629 C623 1.491 . S
C629 C628 1.400 . S
C629 C630 1.398 . S
C630 H618 0.950 . S
C630 C629 1.398 . S
C630 C631 1.391 . S
C631 H619 0.950 . S
C631 C627 1.393 . S
C631 C630 1.391 . S
H632 C640 0.950 . S
H633 C645 0.950 . S
H634 C642 0.950 . S
H635 C644 0.950 . S
H636 C646 0.950 . S
H637 C648 0.950 . S
H638 C650 0.950 . S
H639 C651 0.950 . S
C640 H632 0.950 . S
C640 C641 1.386 . S
C640 C642 1.391 . S
C641 C640 1.386 . S
C641 C645 1.393 . S
C642 H634 0.950 . S
C642 C640 1.391 . S
C642 C643 1.400 . S
C643 C642 1.400 . S
C643 C644 1.398 . S
C643 C649 1.491 . S
C644 H635 0.950 . S
C644 C643 1.398 . S
C644 C645 1.391 . S
C645 H633 0.950 . S
C645 C641 1.393 . S
C645 C644 1.391 . S
C646 H636 0.950 . S
C646 C647 1.386 . S
C646 C648 1.391 . S
C647 C646 1.386 . S
C647 C651 1.393 . S
C648 H637 0.950 . S
C648 C646 1.391 . S
C648 C649 1.400 . S
C649 C643 1.491 . S
C649 C648 1.400 . S
C649 C650 1.398 . S
C650 H638 0.950 . S
C650 C649 1.398 . S
C650 C651 1.391 . S
C651 H639 0.950 . S
C651 C647 1.393 . S
C651 C650 1.391 . S
C181 C73 1.404 . S
C187 C104 1.332 . S
C207 C112 1.466 . S
C201 C84 1.527 . S
C227 C116 1.322 . S
C221 C51 1.405 . S
C241 C62 1.518 . S
C247 C92 1.460 . S
C267 C133 1.408 . S
C261 C29 1.497 . S
C287 C167 1.147 . S
C281 C38 1.085 . S
C301 C7 1.501 . S
C307 C155 1.415 . S
C321 C16 1.049 . S
C327 C137 1.164 . S
C347 C91 1.430 . S
C341 C18 1.540 . S
C367 C125 1.369 . S
C361 C5 1.404 . S
C387 C129 1.455 . S
C381 C40 1.556 . S
C407 C107 1.369 . S
C401 C27 1.395 . S
C427 C146 1.200 . S
C421 C60 1.172 . S
C441 C49 1.142 . S
C447 C154 1.259 . S
C467 C170 1.224 . S
C461 C82 1.175 . S
C481 C71 1.200 . S
C487 C150 1.277 . S
C507 C95 1.435 . S
C501 C8 1.634 . S
C527 C113 1.328 . S
C521 C19 1.481 . S
C541 C30 1.622 . S
C547 C128 1.426 . S
C567 C108 1.326 . S
C561 C41 1.486 . S
C587 C134 1.301 . S
C581 C52 1.409 . S
C601 C63 1.554 . S
C607 C158 1.393 . S
C621 C74 1.401 . S
C627 C171 1.304 . S
C641 C85 1.540 . S
C647 C149 1.406 . S
