# Generated by pormake.
# Topology ocu, (6,8)-cn, num edge types: 1
# Building blocks:
#     Node 0, Type 0, BuildingBlock: KUMJIN_clean_sbu_0, # of connection points: 6
#     Node 1, Type 0, BuildingBlock: KUMJIN_clean_sbu_0, # of connection points: 6
#     Node 2, Type 0, BuildingBlock: KUMJIN_clean_sbu_0, # of connection points: 6
#     Node 3, Type 0, BuildingBlock: KUMJIN_clean_sbu_0, # of connection points: 6
#     Node 4, Type 0, BuildingBlock: KUMJIN_clean_sbu_0, # of connection points: 6
#     Node 5, Type 0, BuildingBlock: KUMJIN_clean_sbu_0, # of connection points: 6
#     Node 6, Type 0, BuildingBlock: KUMJIN_clean_sbu_0, # of connection points: 6
#     Node 7, Type 0, BuildingBlock: KUMJIN_clean_sbu_0, # of connection points: 6
#     Node 8, Type 1, BuildingBlock: GIZVER_clean_sbu_0, # of connection points: 8
#     Node 9, Type 1, BuildingBlock: GIZVER_clean_sbu_0, # of connection points: 8
#     Node 10, Type 1, BuildingBlock: GIZVER_clean_sbu_0, # of connection points: 8
#     Node 11, Type 1, BuildingBlock: GIZVER_clean_sbu_0, # of connection points: 8
#     Node 12, Type 1, BuildingBlock: GIZVER_clean_sbu_0, # of connection points: 8
#     Node 13, Type 1, BuildingBlock: GIZVER_clean_sbu_0, # of connection points: 8
#     Edge 14, Type (0, 1), BuildingBlock: UVAHIK_clean_linker_0, # of connection points: 2
#     Edge 15, Type (0, 1), BuildingBlock: UVAHIK_clean_linker_0, # of connection points: 2
#     Edge 16, Type (0, 1), BuildingBlock: UVAHIK_clean_linker_0, # of connection points: 2
#     Edge 17, Type (0, 1), BuildingBlock: UVAHIK_clean_linker_0, # of connection points: 2
#     Edge 18, Type (0, 1), BuildingBlock: UVAHIK_clean_linker_0, # of connection points: 2
#     Edge 19, Type (0, 1), BuildingBlock: UVAHIK_clean_linker_0, # of connection points: 2
#     Edge 20, Type (0, 1), BuildingBlock: UVAHIK_clean_linker_0, # of connection points: 2
#     Edge 21, Type (0, 1), BuildingBlock: UVAHIK_clean_linker_0, # of connection points: 2
#     Edge 22, Type (0, 1), BuildingBlock: UVAHIK_clean_linker_0, # of connection points: 2
#     Edge 23, Type (0, 1), BuildingBlock: UVAHIK_clean_linker_0, # of connection points: 2
#     Edge 24, Type (0, 1), BuildingBlock: UVAHIK_clean_linker_0, # of connection points: 2
#     Edge 25, Type (0, 1), BuildingBlock: UVAHIK_clean_linker_0, # of connection points: 2
#     Edge 26, Type (0, 1), BuildingBlock: UVAHIK_clean_linker_0, # of connection points: 2
#     Edge 27, Type (0, 1), BuildingBlock: UVAHIK_clean_linker_0, # of connection points: 2
#     Edge 28, Type (0, 1), BuildingBlock: UVAHIK_clean_linker_0, # of connection points: 2
#     Edge 29, Type (0, 1), BuildingBlock: UVAHIK_clean_linker_0, # of connection points: 2
#     Edge 30, Type (0, 1), BuildingBlock: UVAHIK_clean_linker_0, # of connection points: 2
#     Edge 31, Type (0, 1), BuildingBlock: UVAHIK_clean_linker_0, # of connection points: 2
#     Edge 32, Type (0, 1), BuildingBlock: UVAHIK_clean_linker_0, # of connection points: 2
#     Edge 33, Type (0, 1), BuildingBlock: UVAHIK_clean_linker_0, # of connection points: 2
#     Edge 34, Type (0, 1), BuildingBlock: UVAHIK_clean_linker_0, # of connection points: 2
#     Edge 35, Type (0, 1), BuildingBlock: UVAHIK_clean_linker_0, # of connection points: 2
#     Edge 36, Type (0, 1), BuildingBlock: UVAHIK_clean_linker_0, # of connection points: 2
#     Edge 37, Type (0, 1), BuildingBlock: UVAHIK_clean_linker_0, # of connection points: 2
#     Edge 38, Type (0, 1), BuildingBlock: UVAHIK_clean_linker_0, # of connection points: 2
#     Edge 39, Type (0, 1), BuildingBlock: UVAHIK_clean_linker_0, # of connection points: 2
#     Edge 40, Type (0, 1), BuildingBlock: UVAHIK_clean_linker_0, # of connection points: 2
#     Edge 41, Type (0, 1), BuildingBlock: UVAHIK_clean_linker_0, # of connection points: 2
#     Edge 42, Type (0, 1), BuildingBlock: UVAHIK_clean_linker_0, # of connection points: 2
#     Edge 43, Type (0, 1), BuildingBlock: UVAHIK_clean_linker_0, # of connection points: 2
#     Edge 44, Type (0, 1), BuildingBlock: UVAHIK_clean_linker_0, # of connection points: 2
#     Edge 45, Type (0, 1), BuildingBlock: UVAHIK_clean_linker_0, # of connection points: 2
#     Edge 46, Type (0, 1), BuildingBlock: UVAHIK_clean_linker_0, # of connection points: 2
#     Edge 47, Type (0, 1), BuildingBlock: UVAHIK_clean_linker_0, # of connection points: 2
#     Edge 48, Type (0, 1), BuildingBlock: UVAHIK_clean_linker_0, # of connection points: 2
#     Edge 49, Type (0, 1), BuildingBlock: UVAHIK_clean_linker_0, # of connection points: 2
#     Edge 50, Type (0, 1), BuildingBlock: UVAHIK_clean_linker_0, # of connection points: 2
#     Edge 51, Type (0, 1), BuildingBlock: UVAHIK_clean_linker_0, # of connection points: 2
#     Edge 52, Type (0, 1), BuildingBlock: UVAHIK_clean_linker_0, # of connection points: 2
#     Edge 53, Type (0, 1), BuildingBlock: UVAHIK_clean_linker_0, # of connection points: 2
#     Edge 54, Type (0, 1), BuildingBlock: UVAHIK_clean_linker_0, # of connection points: 2
#     Edge 55, Type (0, 1), BuildingBlock: UVAHIK_clean_linker_0, # of connection points: 2
#     Edge 56, Type (0, 1), BuildingBlock: UVAHIK_clean_linker_0, # of connection points: 2
#     Edge 57, Type (0, 1), BuildingBlock: UVAHIK_clean_linker_0, # of connection points: 2
#     Edge 58, Type (0, 1), BuildingBlock: UVAHIK_clean_linker_0, # of connection points: 2
#     Edge 59, Type (0, 1), BuildingBlock: UVAHIK_clean_linker_0, # of connection points: 2
#     Edge 60, Type (0, 1), BuildingBlock: UVAHIK_clean_linker_0, # of connection points: 2
#     Edge 61, Type (0, 1), BuildingBlock: UVAHIK_clean_linker_0, # of connection points: 2
# Relax obj value: 0.163
# Max RMSD: 0.303
# Mean RMSD: 0.215
data_MOF--net-ocu--node1-KUMJIN_clean_sbu_0--node2-GIZVER_clean_sbu_0--edge1-UVAHIK_clean_linker_0
_symmetry_space_group_name_H-M    P1
_symmetry_Int_Tables_number       1
_symmetry_cell_setting            triclinic
loop_
_symmetry_equiv_pos_as_xyz
'x, y, z'
_cell_length_a     53.049574
_cell_length_b     55.157829
_cell_length_c     43.386255
_cell_angle_alpha  79.139192
_cell_angle_beta   100.34247
_cell_angle_gamma 108.08395
loop_
_atom_site_label
_atom_site_type_symbol
_atom_site_fract_x
_atom_site_fract_y
_atom_site_fract_z
_atom_type_partial_charge
Eu0 Eu 0.25954 0.23862 0.21468 0.0
C1 C 0.33595 0.29127 0.32512 0.0
C2 C 0.34201 0.25558 0.3648 0.0
C3 C 0.37757 0.29591 0.36084 0.0
C4 C 0.32642 0.26609 0.33904 0.0
C5 C 0.36127 0.30676 0.33654 0.0
C6 C 0.36797 0.27033 0.37491 0.0
C7 C 0.35104 0.34324 0.30196 0.0
N8 N 0.31946 0.30125 0.30221 0.0
C9 C 0.3261 0.32708 0.29145 0.0
C10 C 0.36891 0.33294 0.32419 0.0
Eu11 Eu 0.27784 0.27274 0.28489 0.0
N12 N 0.30104 0.25264 0.32914 0.0
C13 C 0.28922 0.22945 0.34576 0.0
C14 C 0.3306 0.23101 0.38048 0.0
C15 C 0.3039 0.21812 0.37133 0.0
H16 H 0.31241 0.33508 0.27408 0.0
H17 H 0.29465 0.19939 0.38381 0.0
H18 H 0.38037 0.26247 0.39439 0.0
H19 H 0.35649 0.36357 0.29281 0.0
H20 H 0.26866 0.21919 0.33883 0.0
H21 H 0.24014 0.31003 0.11447 0.0
H22 H 0.34192 0.2222 0.4003 0.0
H23 H 0.22621 0.17595 0.22696 0.0
H24 H 0.26705 0.29134 0.15937 0.0
H25 H 0.18195 0.14671 0.21037 0.0
H26 H 0.39723 0.3074 0.36967 0.0
H27 H 0.19302 0.28618 0.09898 0.0
H28 H 0.15534 0.24539 0.10613 0.0
H29 H 0.38818 0.34551 0.33239 0.0
H30 H 0.13949 0.20071 0.13216 0.0
N31 N 0.23544 0.25751 0.1701 0.0
C32 C 0.24662 0.28062 0.15289 0.0
C33 C 0.20477 0.27787 0.11879 0.0
C34 C 0.19402 0.25336 0.13503 0.0
C35 C 0.23138 0.29133 0.12737 0.0
C36 C 0.21018 0.24349 0.16073 0.0
H37 H 0.14946 0.16356 0.17067 0.0
N38 N 0.21827 0.20912 0.19813 0.0
C39 C 0.18705 0.16688 0.20043 0.0
C40 C 0.2013 0.21842 0.17518 0.0
C41 C 0.21207 0.18347 0.2098 0.0
C42 C 0.16875 0.17649 0.17808 0.0
C43 C 0.17597 0.20243 0.16466 0.0
O44 O 0.27428 0.20864 0.20381 0.0
O45 O 0.28547 0.24337 0.26138 0.0
O46 O 0.31367 0.28615 0.25801 0.0
O47 O 0.29235 0.27639 0.20807 0.0
O48 O 0.26867 0.20616 0.25159 0.0
O49 O 0.28277 0.24602 0.17528 0.0
O50 O 0.26378 0.30302 0.29602 0.0
O51 O 0.25207 0.26855 0.23785 0.0
O52 O 0.22359 0.22555 0.24064 0.0
O53 O 0.24339 0.23581 0.29106 0.0
O54 O 0.26939 0.30561 0.24869 0.0
O55 O 0.25539 0.26578 0.32494 0.0
C56 C 0.28444 0.22009 0.27191 0.0
C57 C 0.27836 0.21001 0.15023 0.0
C58 C 0.29043 0.18603 0.11568 0.0
C59 C 0.29632 0.19828 0.14302 0.0
C60 C 0.26614 0.1856 0.096 0.0
C61 C 0.2544 0.20934 0.13012 0.0
C62 C 0.24836 0.19718 0.1032 0.0
C63 C 0.31292 0.2888 0.22692 0.0
C64 C 0.28458 0.22258 0.17894 0.0
C65 C 0.15914 0.2126 0.14036 0.0
C66 C 0.16816 0.23804 0.12556 0.0
C67 C 0.25373 0.29214 0.22786 0.0
C68 C 0.26132 0.3022 0.34988 0.0
C69 C 0.24327 0.31276 0.35903 0.0
C70 C 0.25063 0.32636 0.38537 0.0
C71 C 0.27649 0.3291 0.40216 0.0
C72 C 0.28664 0.3048 0.36748 0.0
C73 C 0.29416 0.31821 0.3934 0.0
C74 C 0.22341 0.22363 0.27136 0.0
C75 C 0.25397 0.28935 0.32133 0.0
H76 H 0.31494 0.199 0.15848 0.0
H77 H 0.26064 0.17598 0.07518 0.0
H78 H 0.24034 0.21818 0.13523 0.0
H79 H 0.22974 0.19664 0.08787 0.0
H80 H 0.22354 0.31019 0.34565 0.0
H81 H 0.28338 0.34001 0.42185 0.0
H82 H 0.30067 0.29664 0.36108 0.0
H83 H 0.31391 0.32041 0.4066 0.0
Eu84 Eu 0.79738 0.25857 0.25152 0.0
C85 C 0.68808 0.25746 0.27636 0.0
C86 C 0.65199 0.24825 0.2332 0.0
C87 C 0.64316 0.23204 0.28735 0.0
C88 C 0.6792 0.25922 0.2442 0.0
C89 C 0.6698 0.24443 0.29827 0.0
C90 C 0.63426 0.23398 0.25488 0.0
C91 C 0.70452 0.25898 0.34027 0.0
N92 N 0.71405 0.26968 0.28626 0.0
C93 C 0.72195 0.27157 0.31785 0.0
C94 C 0.67852 0.24488 0.33053 0.0
Eu95 Eu 0.74218 0.28809 0.24511 0.0
N96 N 0.69666 0.27318 0.22373 0.0
C97 C 0.68774 0.27914 0.19242 0.0
C98 C 0.64317 0.25273 0.20082 0.0
C99 C 0.66104 0.26867 0.18043 0.0
H100 H 0.7417 0.28223 0.32678 0.0
H101 H 0.65432 0.27279 0.15545 0.0
H102 H 0.61342 0.22509 0.24683 0.0
H103 H 0.71126 0.26006 0.36518 0.0
H104 H 0.70164 0.29102 0.17643 0.0
H105 H 0.89773 0.30334 0.30883 0.0
H106 H 0.62246 0.24465 0.1915 0.0
H107 H 0.78016 0.24936 0.1729 0.0
H108 H 0.85166 0.27441 0.30567 0.0
H109 H 0.79815 0.26545 0.12306 0.0
H110 H 0.62906 0.22162 0.30388 0.0
H111 H 0.91654 0.32667 0.25978 0.0
H112 H 0.91151 0.33354 0.20059 0.0
H113 H 0.66512 0.23509 0.34803 0.0
H114 H 0.8847 0.3225 0.15014 0.0
N115 N 0.8431 0.28385 0.25586 0.0
C116 C 0.85918 0.28557 0.28427 0.0
C117 C 0.89603 0.31455 0.2584 0.0
C118 C 0.88051 0.31052 0.22916 0.0
C119 C 0.88549 0.3015 0.2861 0.0
C120 C 0.85384 0.29457 0.22865 0.0
H121 H 0.84291 0.29669 0.1212 0.0
N122 N 0.81363 0.27187 0.20087 0.0
C123 C 0.80976 0.27218 0.14458 0.0
C124 C 0.83881 0.28814 0.20036 0.0
C125 C 0.79945 0.26323 0.17342 0.0
C126 C 0.83502 0.28975 0.14363 0.0
C127 C 0.85003 0.29773 0.1717 0.0
O128 O 0.79321 0.22047 0.23977 0.0
O129 O 0.75707 0.25392 0.26412 0.0
O130 O 0.77008 0.29662 0.29014 0.0
O131 O 0.80942 0.2869 0.28702 0.0
O132 O 0.78308 0.24056 0.29952 0.0
O133 O 0.82264 0.2354 0.27818 0.0
O134 O 0.76312 0.32831 0.25101 0.0
O135 O 0.78198 0.29227 0.23186 0.0
O136 O 0.76175 0.2379 0.21929 0.0
O137 O 0.72875 0.25932 0.21031 0.0
O138 O 0.75449 0.3028 0.19581 0.0
O139 O 0.72107 0.31761 0.23419 0.0
C140 C 0.75896 0.24232 0.29198 0.0
C141 C 0.80144 0.19049 0.28453 0.0
C142 C 0.80074 0.16528 0.33751 0.0
C143 C 0.80528 0.18917 0.31768 0.0
C144 C 0.79013 0.14263 0.32318 0.0
C145 C 0.79079 0.16771 0.271 0.0
C146 C 0.78478 0.14395 0.29029 0.0
C147 C 0.79544 0.29762 0.29987 0.0
C148 C 0.8101 0.21535 0.26405 0.0
C149 C 0.876 0.31466 0.17195 0.0
C150 C 0.89122 0.32103 0.20064 0.0
C151 C 0.77906 0.30234 0.20333 0.0
C152 C 0.74826 0.35654 0.20917 0.0
C153 C 0.73294 0.35265 0.17961 0.0
C154 C 0.73889 0.37059 0.15237 0.0
C155 C 0.76093 0.39261 0.15504 0.0
C156 C 0.77009 0.37867 0.21133 0.0
C157 C 0.77639 0.39655 0.18436 0.0
C158 C 0.73862 0.24141 0.20517 0.0
C159 C 0.74294 0.33651 0.23701 0.0
H160 H 0.81255 0.20687 0.32793 0.0
H161 H 0.78688 0.12372 0.33704 0.0
H162 H 0.78755 0.16828 0.24553 0.0
H163 H 0.77684 0.12639 0.27969 0.0
H164 H 0.71655 0.33531 0.17766 0.0
H165 H 0.76594 0.40705 0.13469 0.0
H166 H 0.78248 0.38192 0.23376 0.0
H167 H 0.79331 0.41356 0.18619 0.0
Eu168 Eu 0.75868 0.75417 0.28883 0.0
C169 C 0.80908 0.82277 0.1695 0.0
C170 C 0.771 0.82667 0.13087 0.0
C171 C 0.81294 0.86083 0.1298 0.0
C172 C 0.78266 0.81299 0.15751 0.0
C173 C 0.82476 0.84651 0.15533 0.0
C174 C 0.78608 0.85093 0.11759 0.0
C175 C 0.86319 0.83887 0.19052 0.0
N176 N 0.81993 0.80823 0.19379 0.0
C177 C 0.84684 0.81536 0.20354 0.0
C178 C 0.85204 0.8547 0.16656 0.0
Eu179 Eu 0.791 0.76919 0.21601 0.0
N180 N 0.7688 0.78939 0.17073 0.0
C181 C 0.74385 0.77749 0.15686 0.0
C182 C 0.74483 0.8152 0.1178 0.0
C183 C 0.73135 0.79034 0.13058 0.0
H184 H 0.85558 0.80312 0.22194 0.0
H185 H 0.7113 0.78106 0.12028 0.0
H186 H 0.77739 0.86184 0.09735 0.0
H187 H 0.88438 0.84472 0.19886 0.0
H188 H 0.73309 0.75832 0.1664 0.0
H189 H 0.83737 0.74378 0.38654 0.0
H190 H 0.73512 0.82509 0.09742 0.0
H191 H 0.69489 0.71835 0.27937 0.0
H192 H 0.81603 0.76599 0.33953 0.0
H193 H 0.66626 0.67658 0.30232 0.0
H194 H 0.82458 0.87923 0.11878 0.0
H195 H 0.81364 0.69972 0.4094 0.0
H196 H 0.77178 0.66254 0.40879 0.0
H197 H 0.86477 0.87282 0.15632 0.0
H198 H 0.72516 0.6443 0.38601 0.0
N199 N 0.78069 0.73456 0.33468 0.0
C200 C 0.80532 0.74678 0.34901 0.0
C201 C 0.80413 0.70936 0.3886 0.0
C202 C 0.77826 0.69754 0.37496 0.0
C203 C 0.81756 0.73424 0.37581 0.0
C204 C 0.76685 0.7109 0.34781 0.0
H205 H 0.68552 0.64957 0.34666 0.0
N206 N 0.72998 0.7147 0.31006 0.0
C207 C 0.68718 0.68307 0.3117 0.0
C208 C 0.74066 0.70066 0.33511 0.0
C209 C 0.70341 0.70672 0.29882 0.0
C210 C 0.69814 0.66785 0.33667 0.0
C211 C 0.7251 0.67673 0.34899 0.0
O212 O 0.72708 0.76531 0.30406 0.0
O213 O 0.76134 0.77744 0.24048 0.0
O214 O 0.8068 0.80487 0.24011 0.0
O215 O 0.7972 0.78699 0.29159 0.0
O216 O 0.72353 0.76104 0.25346 0.0
O217 O 0.76846 0.78207 0.32187 0.0
O218 O 0.82126 0.75434 0.20406 0.0
O219 O 0.78879 0.74647 0.26471 0.0
O220 O 0.74671 0.71768 0.26605 0.0
O221 O 0.75197 0.73682 0.21425 0.0
O222 O 0.82639 0.76245 0.25088 0.0
O223 O 0.78097 0.74356 0.1801 0.0
C224 C 0.73686 0.77588 0.2316 0.0
C225 C 0.73624 0.77873 0.35479 0.0
C226 C 0.71967 0.79663 0.39204 0.0
C227 C 0.72535 0.79723 0.36128 0.0
C228 C 0.72482 0.77706 0.416 0.0
C229 C 0.74098 0.75932 0.37905 0.0
C230 C 0.73526 0.75851 0.40946 0.0
C231 C 0.80957 0.80572 0.27081 0.0
C232 C 0.74362 0.78055 0.32307 0.0
C233 C 0.73671 0.66281 0.37517 0.0
C234 C 0.76326 0.6732 0.38813 0.0
C235 C 0.81339 0.74827 0.27339 0.0
C236 C 0.81571 0.74479 0.1521 0.0
C237 C 0.82332 0.72446 0.14485 0.0
C238 C 0.83389 0.7269 0.11642 0.0
C239 C 0.83656 0.75013 0.09542 0.0
C240 C 0.81844 0.76763 0.13075 0.0
C241 C 0.8288 0.77024 0.10255 0.0
C242 C 0.7428 0.71661 0.23527 0.0
C243 C 0.80519 0.74193 0.18212 0.0
H244 H 0.72184 0.81236 0.3426 0.0
H245 H 0.72038 0.77586 0.43975 0.0
H246 H 0.74933 0.74495 0.37458 0.0
H247 H 0.73902 0.74348 0.42807 0.0
H248 H 0.82081 0.70673 0.16132 0.0
H249 H 0.8451 0.75303 0.07369 0.0
H250 H 0.81265 0.78344 0.13592 0.0
H251 H 0.83102 0.788 0.08623 0.0
Eu252 Eu 0.29541 0.73808 0.25762 0.0
C253 C 0.28677 0.83866 0.19924 0.0
C254 C 0.31096 0.87365 0.22925 0.0
C255 C 0.31005 0.88044 0.17222 0.0
C256 C 0.29539 0.84781 0.22803 0.0
C257 C 0.29365 0.85511 0.17094 0.0
C258 C 0.31873 0.88968 0.20132 0.0
C259 C 0.26705 0.82063 0.14184 0.0
N260 N 0.2714 0.81387 0.19876 0.0
C261 C 0.26095 0.80499 0.17041 0.0
C262 C 0.28371 0.84572 0.1421 0.0
Eu263 Eu 0.2616 0.7887 0.24868 0.0
N264 N 0.28755 0.83191 0.25465 0.0
C265 C 0.29173 0.8418 0.28247 0.0
C266 C 0.31757 0.88293 0.25836 0.0
C267 C 0.30744 0.86706 0.28499 0.0
H268 H 0.24774 0.78594 0.16918 0.0
H269 H 0.3114 0.87435 0.30738 0.0
H270 H 0.33092 0.90944 0.20189 0.0
H271 H 0.25889 0.81328 0.11961 0.0
H272 H 0.28306 0.83019 0.30306 0.0
H273 H 0.2443 0.649 0.20646 0.0
H274 H 0.32953 0.9026 0.26027 0.0
H275 H 0.31327 0.74394 0.33662 0.0
H276 H 0.27256 0.69365 0.20712 0.0
H277 H 0.30217 0.71955 0.38761 0.0
H278 H 0.31579 0.89316 0.15077 0.0
H279 H 0.22731 0.62314 0.25543 0.0
H280 H 0.22705 0.61942 0.3137 0.0
H281 H 0.28853 0.85774 0.11991 0.0
H282 H 0.2432 0.63845 0.36295 0.0
N283 N 0.26932 0.69444 0.25525 0.0
C284 C 0.26444 0.68305 0.22847 0.0
C285 C 0.23932 0.64299 0.25572 0.0
C286 C 0.24663 0.65384 0.2838 0.0
C287 C 0.24877 0.65753 0.22805 0.0
C288 C 0.2623 0.67983 0.28294 0.0
H289 H 0.2714 0.67543 0.39069 0.0
N290 N 0.28753 0.71525 0.30928 0.0
C291 C 0.29318 0.71121 0.36615 0.0
C292 C 0.27174 0.69046 0.31072 0.0
C293 C 0.29907 0.7253 0.3367 0.0
C294 C 0.27592 0.6863 0.36781 0.0
C295 C 0.26527 0.67546 0.34 0.0
O296 O 0.3332 0.73103 0.28048 0.0
O297 O 0.29797 0.77955 0.24065 0.0
O298 O 0.23738 0.75869 0.21661 0.0
O299 O 0.26384 0.73206 0.21536 0.0
O300 O 0.30891 0.76018 0.21107 0.0
O301 O 0.31872 0.7239 0.23223 0.0
O302 O 0.22328 0.79328 0.22407 0.0
O303 O 0.25861 0.74701 0.26518 0.0
O304 O 0.32072 0.76979 0.28724 0.0
O305 O 0.29177 0.7928 0.29245 0.0
O306 O 0.24767 0.76646 0.29479 0.0
O307 O 0.23685 0.80345 0.27124 0.0
C308 C 0.30699 0.78215 0.21483 0.0
C309 C 0.34027 0.69493 0.2643 0.0
C310 C 0.35333 0.66079 0.24816 0.0
C311 C 0.34985 0.68565 0.24194 0.0
C312 C 0.34678 0.64525 0.2769 0.0
C313 C 0.33382 0.67897 0.29279 0.0
C314 C 0.33705 0.65429 0.29895 0.0
C315 C 0.24273 0.74049 0.205 0.0
C316 C 0.33591 0.72071 0.25696 0.0
C317 C 0.24863 0.65006 0.34074 0.0
C318 C 0.23937 0.63925 0.3127 0.0
C319 C 0.24933 0.74442 0.29088 0.0
C320 C 0.21425 0.82997 0.23575 0.0
C321 C 0.20451 0.84041 0.2567 0.0
C322 C 0.20077 0.86513 0.2485 0.0
C323 C 0.20676 0.8792 0.21882 0.0
C324 C 0.22009 0.8444 0.20622 0.0
C325 C 0.21629 0.86884 0.19787 0.0
C326 C 0.31434 0.78658 0.30048 0.0
C327 C 0.2197 0.80479 0.24591 0.0
H328 H 0.35485 0.69788 0.21991 0.0
H329 H 0.34896 0.62596 0.28222 0.0
H330 H 0.32612 0.68544 0.31026 0.0
H331 H 0.33193 0.64209 0.3209 0.0
H332 H 0.2005 0.82951 0.27972 0.0
H333 H 0.20379 0.89813 0.21165 0.0
H334 H 0.22779 0.83696 0.18967 0.0
H335 H 0.22085 0.87983 0.1751 0.0
Eu336 Eu 0.31415 0.73285 0.75878 0.0
C337 C 0.21349 0.73603 0.79691 0.0
C338 C 0.17223 0.71907 0.76348 0.0
C339 C 0.17302 0.71156 0.8205 0.0
C340 C 0.19977 0.73248 0.76719 0.0
C341 C 0.20002 0.72605 0.82392 0.0
C342 C 0.15914 0.70806 0.79031 0.0
C343 C 0.24035 0.74658 0.85572 0.0
N344 N 0.2397 0.74995 0.79938 0.0
C345 C 0.2529 0.75591 0.8284 0.0
C346 C 0.21391 0.73128 0.85356 0.0
Eu347 Eu 0.25975 0.76363 0.75114 0.0
N348 N 0.2129 0.7435 0.74176 0.0
C349 C 0.19896 0.74427 0.712 0.0
C350 C 0.15844 0.71791 0.73288 0.0
C351 C 0.17178 0.73103 0.70702 0.0
H352 H 0.27322 0.76765 0.83139 0.0
H353 H 0.16112 0.73113 0.68328 0.0
H354 H 0.13812 0.69739 0.78794 0.0
H355 H 0.25119 0.75113 0.87852 0.0
H356 H 0.20902 0.75499 0.69197 0.0
H357 H 0.40536 0.75594 0.84328 0.0
H358 H 0.13732 0.70779 0.72904 0.0
H359 H 0.31258 0.73477 0.67795 0.0
H360 H 0.35855 0.733 0.82527 0.0
H361 H 0.3405 0.75775 0.63694 0.0
H362 H 0.16254 0.70342 0.84101 0.0
H363 H 0.43343 0.78677 0.805 0.0
H364 H 0.43888 0.80597 0.74862 0.0
H365 H 0.2043 0.72396 0.87482 0.0
H366 H 0.42117 0.80621 0.69224 0.0
N367 N 0.35975 0.75161 0.77773 0.0
C368 C 0.37074 0.74635 0.80841 0.0
C369 C 0.41288 0.77681 0.79704 0.0
C370 C 0.40238 0.78005 0.76506 0.0
C371 C 0.39716 0.75937 0.81869 0.0
C372 C 0.37545 0.76666 0.75588 0.0
H373 H 0.38506 0.78754 0.65055 0.0
N374 N 0.34005 0.75196 0.71593 0.0
C375 C 0.34765 0.7607 0.66132 0.0
C376 C 0.36542 0.76667 0.72408 0.0
C377 C 0.33163 0.74777 0.68508 0.0
C378 C 0.37276 0.7775 0.66908 0.0
C379 C 0.38222 0.78023 0.70078 0.0
O380 O 0.29681 0.69143 0.75676 0.0
O381 O 0.27407 0.72929 0.7705 0.0
O382 O 0.29415 0.78159 0.78664 0.0
O383 O 0.32581 0.75862 0.79677 0.0
O384 O 0.29984 0.71636 0.80696 0.0
O385 O 0.33946 0.70723 0.76595 0.0
O386 O 0.26827 0.80238 0.76331 0.0
O387 O 0.30002 0.76749 0.73871 0.0
O388 O 0.2845 0.72185 0.71554 0.0
O389 O 0.24595 0.73298 0.71871 0.0
O390 O 0.27289 0.77819 0.70231 0.0
O391 O 0.23991 0.79098 0.72259 0.0
C392 C 0.27577 0.7183 0.79869 0.0
C393 C 0.32083 0.66523 0.79081 0.0
C394 C 0.33326 0.65037 0.84674 0.0
C395 C 0.32911 0.67009 0.82225 0.0
C396 C 0.3276 0.62531 0.83896 0.0
C397 C 0.31501 0.64018 0.78387 0.0
C398 C 0.31817 0.62028 0.80793 0.0
C399 C 0.31637 0.77676 0.80192 0.0
C400 C 0.3196 0.68637 0.76486 0.0
C401 C 0.40828 0.79527 0.70987 0.0
C402 C 0.41834 0.79518 0.74196 0.0
C403 C 0.29738 0.77764 0.71015 0.0
C404 C 0.26957 0.83291 0.71639 0.0
C405 C 0.25857 0.8382 0.68481 0.0
C406 C 0.27193 0.85933 0.66421 0.0
C407 C 0.29726 0.87473 0.6756 0.0
C408 C 0.29483 0.84862 0.7272 0.0
C409 C 0.30863 0.86925 0.70679 0.0
C410 C 0.25913 0.72112 0.70636 0.0
C411 C 0.25499 0.81016 0.73697 0.0
H412 H 0.33277 0.68939 0.82727 0.0
H413 H 0.3312 0.60956 0.85642 0.0
H414 H 0.30849 0.63612 0.75976 0.0
H415 H 0.31403 0.60099 0.80238 0.0
H416 H 0.23953 0.82553 0.67625 0.0
H417 H 0.3081 0.89142 0.66081 0.0
H418 H 0.30406 0.8449 0.75126 0.0
H419 H 0.32811 0.88123 0.71529 0.0
Eu420 Eu 0.26572 0.25558 0.78813 0.0
C421 C 0.32006 0.3267 0.67358 0.0
C422 C 0.28337 0.3307 0.63269 0.0
C423 C 0.32485 0.3655 0.63498 0.0
C424 C 0.29418 0.31671 0.65971 0.0
C425 C 0.33594 0.35092 0.66091 0.0
C426 C 0.29859 0.35541 0.62092 0.0
C427 C 0.37326 0.34343 0.69849 0.0
N428 N 0.33026 0.31198 0.69829 0.0
C429 C 0.35672 0.31951 0.71017 0.0
C430 C 0.36274 0.35938 0.67403 0.0
Eu431 Eu 0.30097 0.27207 0.71738 0.0
N432 N 0.28019 0.29264 0.67139 0.0
C433 C 0.25615 0.28061 0.65565 0.0
C434 C 0.25795 0.31908 0.6177 0.0
C435 C 0.24447 0.29376 0.62895 0.0
H436 H 0.36489 0.30732 0.72923 0.0
H437 H 0.22506 0.28438 0.61713 0.0
H438 H 0.29052 0.36655 0.60039 0.0
H439 H 0.39407 0.34957 0.70841 0.0
H440 H 0.24545 0.26108 0.66408 0.0
H441 H 0.34481 0.24495 0.88541 0.0
H442 H 0.2489 0.3292 0.59696 0.0
H443 H 0.20158 0.22091 0.78196 0.0
H444 H 0.32286 0.26749 0.83932 0.0
H445 H 0.17329 0.17861 0.80412 0.0
H446 H 0.33664 0.38427 0.6251 0.0
H447 H 0.32194 0.20023 0.90708 0.0
H448 H 0.28051 0.16256 0.90588 0.0
H449 H 0.37561 0.37786 0.66496 0.0
H450 H 0.23369 0.14438 0.88365 0.0
N451 N 0.28799 0.23568 0.83374 0.0
C452 C 0.31248 0.24803 0.8483 0.0
C453 C 0.31216 0.21004 0.88668 0.0
C454 C 0.28636 0.19809 0.87299 0.0
C455 C 0.32509 0.23529 0.87458 0.0
C456 C 0.2746 0.21168 0.84636 0.0
H457 H 0.19336 0.1504 0.84602 0.0
N458 N 0.23737 0.21598 0.80983 0.0
C459 C 0.19445 0.18469 0.81256 0.0
C460 C 0.24842 0.20145 0.83391 0.0
C461 C 0.2105 0.20857 0.80003 0.0
C462 C 0.20586 0.1688 0.83615 0.0
C463 C 0.23306 0.17735 0.84761 0.0
O464 O 0.23376 0.26864 0.79914 0.0
O465 O 0.26928 0.27883 0.73984 0.0
O466 O 0.31198 0.30816 0.74065 0.0
O467 O 0.30399 0.28879 0.79179 0.0
O468 O 0.23105 0.26176 0.7516 0.0
O469 O 0.27357 0.28121 0.82369 0.0
O470 O 0.33318 0.25966 0.70591 0.0
O471 O 0.29662 0.24797 0.76507 0.0
O472 O 0.25083 0.22037 0.76304 0.0
O473 O 0.2633 0.23854 0.71268 0.0
O474 O 0.3351 0.26521 0.75441 0.0
O475 O 0.29348 0.24742 0.6807 0.0
C476 C 0.24473 0.27646 0.72993 0.0
C477 C 0.23766 0.27712 0.85135 0.0
C478 C 0.21547 0.29111 0.88674 0.0
C479 C 0.2267 0.29537 0.85837 0.0
C480 C 0.21574 0.26847 0.90801 0.0
C481 C 0.23763 0.25474 0.87294 0.0
C482 C 0.22677 0.2505 0.90112 0.0
C483 C 0.31444 0.30896 0.77137 0.0
C484 C 0.24881 0.28137 0.8214 0.0
C485 C 0.24506 0.16307 0.87301 0.0
C486 C 0.2717 0.17343 0.88568 0.0
C487 C 0.32099 0.24975 0.77524 0.0
C488 C 0.32973 0.25133 0.65353 0.0
C489 C 0.33571 0.231 0.64362 0.0
C490 C 0.34676 0.23489 0.61509 0.0
C491 C 0.35181 0.25957 0.59702 0.0
C492 C 0.33477 0.27555 0.63485 0.0
C493 C 0.34578 0.27961 0.60681 0.0
C494 C 0.24995 0.21964 0.73253 0.0
C495 C 0.31826 0.24716 0.68332 0.0
H496 H 0.2265 0.31257 0.84155 0.0
H497 H 0.20766 0.26476 0.93021 0.0
H498 H 0.24604 0.24057 0.86803 0.0
H499 H 0.2269 0.23321 0.91771 0.0
H500 H 0.33149 0.2122 0.65793 0.0
H501 H 0.36086 0.26361 0.57545 0.0
H502 H 0.33029 0.29133 0.64197 0.0
H503 H 0.3498 0.29845 0.59264 0.0
Eu504 Eu 0.7982 0.22885 0.76098 0.0
C505 C 0.76654 0.31637 0.67155 0.0
C506 C 0.80815 0.35062 0.67327 0.0
C507 C 0.77631 0.34869 0.62534 0.0
C508 C 0.7909 0.32796 0.68768 0.0
C509 C 0.75858 0.32705 0.6405 0.0
C510 C 0.80102 0.36054 0.64176 0.0
C511 C 0.71465 0.29702 0.64375 0.0
N512 N 0.74951 0.29625 0.68743 0.0
C513 C 0.72333 0.28758 0.67475 0.0
C514 C 0.73251 0.31657 0.62631 0.0
Eu515 Eu 0.7654 0.28064 0.73988 0.0
N516 N 0.79694 0.31805 0.71819 0.0
C517 C 0.8193 0.33072 0.73621 0.0
C518 C 0.83164 0.36307 0.69128 0.0
C519 C 0.83705 0.35324 0.72302 0.0
H520 H 0.70933 0.27285 0.68848 0.0
H521 H 0.85493 0.36295 0.73735 0.0
H522 H 0.81407 0.37782 0.63022 0.0
H523 H 0.69413 0.28945 0.6335 0.0
H524 H 0.82368 0.32353 0.76077 0.0
H525 H 0.76975 0.14084 0.70696 0.0
H526 H 0.84543 0.38051 0.68111 0.0
H527 H 0.79604 0.23539 0.83611 0.0
H528 H 0.79084 0.18709 0.71099 0.0
H529 H 0.77954 0.2087 0.88444 0.0
H530 H 0.77066 0.35704 0.6014 0.0
H531 H 0.74662 0.1121 0.75075 0.0
H532 H 0.73493 0.10624 0.80575 0.0
H533 H 0.72563 0.32419 0.60249 0.0
H534 H 0.73841 0.12454 0.85436 0.0
N535 N 0.77743 0.18495 0.755 0.0
C536 C 0.77997 0.17478 0.72968 0.0
C537 C 0.75538 0.13245 0.75229 0.0
C538 C 0.75503 0.14254 0.77945 0.0
C539 C 0.76836 0.1486 0.72752 0.0
C540 C 0.76677 0.16918 0.78028 0.0
H541 H 0.75559 0.16246 0.88413 0.0
N542 N 0.78133 0.20496 0.80807 0.0
C543 C 0.77633 0.20022 0.86299 0.0
C544 C 0.76901 0.17943 0.80773 0.0
C545 C 0.78559 0.21539 0.83537 0.0
C546 C 0.76285 0.17414 0.86274 0.0
C547 C 0.75917 0.16337 0.83497 0.0
O548 O 0.83198 0.22231 0.79503 0.0
O549 O 0.80231 0.26967 0.73793 0.0
O550 O 0.75191 0.25523 0.70044 0.0
O551 O 0.76496 0.21773 0.72109 0.0
O552 O 0.81147 0.24552 0.71288 0.0
O553 O 0.83049 0.21894 0.74593 0.0
O554 O 0.72919 0.28922 0.74655 0.0
O555 O 0.76584 0.24322 0.7707 0.0
O556 O 0.82106 0.26067 0.79012 0.0
O557 O 0.79155 0.28492 0.78701 0.0
O558 O 0.72875 0.24723 0.74817 0.0
O559 O 0.76732 0.30951 0.76922 0.0
C560 C 0.81046 0.26863 0.71261 0.0
C561 C 0.84586 0.18823 0.78368 0.0
C562 C 0.85868 0.15316 0.76957 0.0
C563 C 0.85667 0.17854 0.76296 0.0
C564 C 0.85007 0.13767 0.79754 0.0
C565 C 0.83742 0.17234 0.81152 0.0
C566 C 0.8396 0.14727 0.81835 0.0
C567 C 0.75186 0.2313 0.69939 0.0
C568 C 0.84164 0.21406 0.77476 0.0
C569 C 0.74635 0.13708 0.83379 0.0
C570 C 0.74428 0.12668 0.80608 0.0
C571 C 0.74095 0.232 0.7665 0.0
C572 C 0.73502 0.33204 0.75432 0.0
C573 C 0.72492 0.34166 0.77586 0.0
C574 C 0.71886 0.36542 0.76739 0.0
C575 C 0.72341 0.37939 0.7372 0.0
C576 C 0.73921 0.34633 0.72443 0.0
C577 C 0.73345 0.36986 0.71595 0.0
C578 C 0.81351 0.27843 0.79956 0.0
C579 C 0.74194 0.30754 0.76342 0.0
H580 H 0.86272 0.19052 0.74117 0.0
H581 H 0.85165 0.11817 0.80348 0.0
H582 H 0.82876 0.17908 0.82784 0.0
H583 H 0.83297 0.13516 0.83978 0.0
H584 H 0.72158 0.33056 0.79895 0.0
H585 H 0.71955 0.39795 0.7301 0.0
H586 H 0.7471 0.33943 0.7077 0.0
H587 H 0.73692 0.38082 0.69286 0.0
Eu588 Eu 0.77406 0.74769 0.71159 0.0
C589 C 0.8485 0.79762 0.82503 0.0
C590 C 0.85276 0.76162 0.86517 0.0
C591 C 0.88921 0.80133 0.86223 0.0
C592 C 0.83805 0.77254 0.83882 0.0
C593 C 0.87391 0.81253 0.83705 0.0
C594 C 0.87866 0.77589 0.87625 0.0
C595 C 0.86612 0.84912 0.8004 0.0
N596 N 0.83307 0.80794 0.801 0.0
C597 C 0.84103 0.83356 0.78934 0.0
C598 C 0.88281 0.83848 0.82407 0.0
Eu599 Eu 0.79128 0.78024 0.78269 0.0
N600 N 0.81279 0.75948 0.8279 0.0
C601 C 0.80025 0.73624 0.84386 0.0
C602 C 0.84061 0.73705 0.88031 0.0
C603 C 0.81407 0.72452 0.86994 0.0
H604 H 0.82827 0.84182 0.77087 0.0
H605 H 0.80427 0.70576 0.88193 0.0
H606 H 0.89037 0.76772 0.89624 0.0
H607 H 0.87261 0.86927 0.79061 0.0
H608 H 0.77981 0.72626 0.83607 0.0
H609 H 0.76054 0.82384 0.61481 0.0
H610 H 0.85125 0.72794 0.90055 0.0
H611 H 0.73881 0.68559 0.71973 0.0
H612 H 0.78497 0.80287 0.66019 0.0
H613 H 0.69554 0.65765 0.69791 0.0
H614 H 0.90891 0.81238 0.8716 0.0
H615 H 0.71404 0.80127 0.59482 0.0
H616 H 0.67562 0.76077 0.59713 0.0
H617 H 0.90221 0.85059 0.83266 0.0
H618 H 0.65796 0.71532 0.61959 0.0
N619 N 0.75239 0.769 0.66694 0.0
C620 C 0.76473 0.79271 0.65185 0.0
C621 C 0.72466 0.79196 0.61489 0.0
C622 C 0.71281 0.76693 0.62899 0.0
C623 C 0.75093 0.80472 0.62603 0.0
C624 C 0.72747 0.75577 0.65517 0.0
H625 H 0.66554 0.67651 0.65662 0.0
N626 N 0.73307 0.71985 0.69144 0.0
C627 C 0.70141 0.67809 0.68933 0.0
C628 C 0.71752 0.7303 0.66777 0.0
C629 C 0.7259 0.69393 0.70159 0.0
C630 C 0.68448 0.68882 0.66612 0.0
C631 C 0.69265 0.71516 0.65465 0.0
O632 O 0.78682 0.71735 0.69823 0.0
O633 O 0.79846 0.75049 0.75937 0.0
O634 O 0.82847 0.79082 0.75899 0.0
O635 O 0.80856 0.78475 0.70762 0.0
O636 O 0.78131 0.71393 0.74758 0.0
O637 O 0.80029 0.75644 0.67502 0.0
O638 O 0.77852 0.81135 0.79393 0.0
O639 O 0.76598 0.77689 0.73528 0.0
O640 O 0.73715 0.73436 0.73657 0.0
O641 O 0.75689 0.74349 0.78728 0.0
O642 O 0.78442 0.81365 0.74608 0.0
O643 O 0.76705 0.77347 0.82099 0.0
C644 C 0.79649 0.7269 0.76912 0.0
C645 C 0.79468 0.72307 0.64505 0.0
C646 C 0.80761 0.70235 0.6076 0.0
C647 C 0.81194 0.7108 0.63739 0.0
C648 C 0.78556 0.7061 0.58588 0.0
C649 C 0.77284 0.72652 0.62296 0.0
C650 C 0.76831 0.71803 0.5936 0.0
C651 C 0.82926 0.79462 0.72817 0.0
C652 C 0.79979 0.73254 0.67583 0.0
C653 C 0.67726 0.72655 0.62977 0.0
C654 C 0.68732 0.75243 0.61699 0.0
C655 C 0.76814 0.80049 0.72535 0.0
C656 C 0.7729 0.80923 0.84721 0.0
C657 C 0.75522 0.82118 0.85463 0.0
C658 C 0.76103 0.83273 0.88253 0.0
C659 C 0.785 0.83227 0.90252 0.0
C660 C 0.79647 0.80893 0.86772 0.0
C661 C 0.80247 0.82043 0.89514 0.0
C662 C 0.7366 0.73194 0.7674 0.0
C663 C 0.76682 0.7974 0.81793 0.0
H664 H 0.82895 0.70828 0.65434 0.0
H665 H 0.78146 0.69955 0.56299 0.0
H666 H 0.75938 0.7359 0.6283 0.0
H667 H 0.75138 0.72075 0.57672 0.0
H668 H 0.73687 0.82117 0.83891 0.0
H669 H 0.79048 0.84136 0.92375 0.0
H670 H 0.81026 0.79985 0.86252 0.0
H671 H 0.82081 0.82024 0.91074 0.0
Co672 Co 0.05461 0.9729 0.47427 0.0
Co673 Co 0.07677 0.98608 0.52922 0.0
Co674 Co 1.02822 1.01082 0.50524 0.0
O675 O 0.05905 1.00208 0.49468 0.0
H676 H 0.07177 0.0172 0.48542 0.0
O677 O 0.99741 0.01983 0.51576 0.0
Co678 Co 1.00313 0.04858 0.53774 0.0
Co679 Co 0.9803 0.03753 0.48225 0.0
H680 H 0.9844 1.00472 0.52457 0.0
O681 O 0.11243 0.98933 0.52942 0.0
O682 O 0.07648 0.95861 0.51097 0.0
O683 O 0.05934 0.97338 0.56662 0.0
O684 O 1.02245 0.98454 0.54421 0.0
O685 O 0.05455 0.03568 0.53145 0.0
O686 O 1.00582 0.0734 0.55985 0.0
O687 O 0.97429 0.03515 0.5589 0.0
O688 O 0.0344 0.06618 0.51889 0.0
O689 O 0.03392 0.03712 0.46624 0.0
O690 O 0.99833 0.05109 0.44546 0.0
O691 O 0.98189 0.06456 0.50233 0.0
O692 O 0.9449 0.03622 0.48202 0.0
C693 C 0.07489 0.96369 0.44421 0.0
C694 C 1.0022 0.96239 0.48027 0.0
C695 C 0.03546 0.97326 0.56701 0.0
C696 C 0.10231 0.96824 0.5168 0.0
C697 C 0.98399 0.05737 0.56937 0.0
C698 C 0.05512 0.05903 0.53026 0.0
C699 C 1.02165 0.04992 0.44438 0.0
C700 C 0.95599 0.05657 0.49594 0.0
O701 O 0.05317 0.94745 0.45377 0.0
O702 O 0.08365 0.98638 0.45347 0.0
O703 O 1.00218 0.98563 0.47912 0.0
O704 O 1.02295 0.95545 0.49262 0.0
Co705 Co 0.56096 0.96619 0.99811 0.0
Co706 Co 0.56567 0.9803 0.05171 0.0
Co707 Co 0.52768 1.01061 1.00017 0.0
O708 O 0.56054 0.9976 0.01113 0.0
H709 H 0.57654 0.01137 0.00698 0.0
O710 O 0.49485 0.02376 0.98968 0.0
Co711 Co 0.49431 0.05479 0.0041 0.0
Co712 Co 0.48959 0.04202 0.95006 0.0
H713 H 0.47879 1.00989 0.99343 0.0
O714 O 0.59939 0.97969 0.07238 0.0
O715 O 0.5711 0.95053 0.04279 0.0
O716 O 0.53578 0.9716 0.07504 0.0
O717 O 0.5088 0.98804 0.03674 0.0
O718 O 0.54667 0.03795 0.02714 0.0
O719 O 0.49119 0.08139 0.01909 0.0
O720 O 0.45938 0.04439 0.01088 0.0
O721 O 0.53113 0.06975 0.99992 0.0
O722 O 0.54655 0.03319 0.96326 0.0
O723 O 0.51936 0.0512 0.92715 0.0
O724 O 0.48426 0.07145 0.95996 0.0
O725 O 0.45597 0.04292 0.92949 0.0
C726 C 0.58827 0.95332 0.98219 0.0
C727 C 0.5062 0.95904 0.98319 0.0
C728 C 0.51312 0.97507 0.06394 0.0
C729 C 0.59319 0.95762 0.06215 0.0
C730 C 0.46671 0.06697 0.02049 0.0
C731 C 0.54929 0.06191 0.01863 0.0
C732 C 0.54191 0.04706 0.93677 0.0
C733 C 0.46227 0.06476 0.94032 0.0
O734 O 0.56384 0.93897 0.98424 0.0
O735 O 0.5958 0.97617 0.99107 0.0
O736 O 0.50866 0.98289 0.9735 0.0
O737 O 0.52433 0.95181 0.00272 0.0
Co738 Co 0.05518 0.46398 0.99978 0.0
Co739 Co 0.05996 0.47793 0.0529 0.0
Co740 Co 1.02574 0.51154 1.00011 0.0
O741 O 0.05725 0.49639 0.0127 0.0
H742 H 0.07402 0.50928 0.00922 0.0
O743 O 0.99401 0.52639 0.98748 0.0
Co744 Co 0.99544 0.55785 0.00189 0.0
Co745 Co 0.99148 0.54596 0.94817 0.0
H746 H 0.97728 0.51327 0.99032 0.0
O747 O 0.09267 0.47576 0.07528 0.0
O748 O 0.06438 0.44761 0.04443 0.0
O749 O 0.02873 0.46947 0.07336 0.0
O750 O 1.00451 0.48956 0.03558 0.0
O751 O 0.04497 0.53862 0.02777 0.0
O752 O 0.99463 0.58509 0.017 0.0
O753 O 0.96075 0.54935 0.00924 0.0
O754 O 0.03202 0.57061 0.99715 0.0
O755 O 0.04694 0.53365 0.96461 0.0
O756 O 1.02314 0.55551 0.92853 0.0
O757 O 0.98585 0.57532 0.95793 0.0
O758 O 0.95898 0.54797 0.92508 0.0
C759 C 0.08059 0.44823 0.98477 0.0
C760 C 1.00213 0.46044 0.98264 0.0
C761 C 1.00699 0.47483 0.06197 0.0
C762 C 0.08608 0.45382 0.06464 0.0
C763 C 0.96981 0.57196 0.01886 0.0
C764 C 0.04857 0.56268 0.01849 0.0
C765 C 0.04463 0.54944 0.93908 0.0
C766 C 0.96477 0.56938 0.93675 0.0
O767 O 0.05555 0.43578 0.98637 0.0
O768 O 0.08993 0.47138 0.99286 0.0
O769 O 1.00661 0.48447 0.9726 0.0
O770 O 1.01837 0.45216 0.00415 0.0
Co771 Co 0.56043 0.48441 0.95775 0.0
Co772 Co 0.53518 0.45688 1.00022 0.0
Co773 Co 0.53194 0.51049 0.00466 0.0
O774 O 0.55519 0.49007 0.99861 0.0
H775 H 0.57106 0.49185 0.01398 0.0
O776 O 0.50842 0.53075 0.01077 0.0
Co777 Co 0.5037 0.53782 0.05121 0.0
Co778 Co 0.52841 0.56374 0.00857 0.0
H779 H 0.4925 0.52885 0.99552 0.0
O780 O 0.55285 0.43427 0.02086 0.0
O781 O 0.54472 0.44574 0.96782 0.0
O782 O 0.49997 0.44886 0.01336 0.0
O783 O 0.5147 0.48338 0.03826 0.0
O784 O 0.56118 0.52591 0.03751 0.0
O785 O 0.49623 0.5434 0.0867 0.0
O786 O 0.46972 0.54056 0.04002 0.0
O787 O 0.5383 0.53641 0.06866 0.0
O788 O 0.54921 0.53768 0.9709 0.0
O789 O 0.56366 0.57184 0.99623 0.0
O790 O 0.51889 0.57647 0.03938 0.0
O791 O 0.51073 0.58535 0.98586 0.0
C792 C 0.59117 0.47914 0.9395 0.0
C793 C 0.50443 0.48859 0.94584 0.0
C794 C 0.49846 0.46121 0.03466 0.0
C795 C 0.55313 0.43086 0.99209 0.0
C796 C 0.47363 0.5442 0.06965 0.0
C797 C 0.55957 0.53312 0.0631 0.0
C798 C 0.56488 0.56019 0.97411 0.0
C799 C 0.51068 0.59043 0.01392 0.0
O800 O 0.56875 0.48 0.92198 0.0
O801 O 0.59422 0.48166 0.96942 0.0
O802 O 0.50273 0.49502 0.97188 0.0
O803 O 0.52591 0.48606 0.93977 0.0
Co804 Co 0.0766 0.47772 0.52522 0.0
Co805 Co 0.05244 0.47737 0.46791 0.0
Co806 Co 1.02687 0.50968 0.50133 0.0
O807 O 0.04074 0.47869 0.5051 0.0
H808 H 1.02736 0.46273 0.5109 0.0
O809 O 1.01324 0.54087 0.49772 0.0
Co810 Co 0.97857 0.54344 0.47526 0.0
Co811 Co 0.99956 0.54196 0.53365 0.0
H812 H 1.02714 0.55671 0.49316 0.0
O813 O 0.05226 0.44678 0.45714 0.0
O814 O 0.08631 0.47406 0.48412 0.0
O815 O 0.05655 0.50722 0.43626 0.0
O816 O 0.04924 0.53166 0.46716 0.0
O817 O 0.99693 0.49437 0.4694 0.0
O818 O 0.94809 0.54838 0.45329 0.0
O819 O 0.98676 0.57875 0.46403 0.0
O820 O 0.96491 0.50705 0.48292 0.0
O821 O 1.0046 0.48759 0.53558 0.0
O822 O 0.99206 0.51109 0.56324 0.0
O823 O 0.96692 0.54693 0.51511 0.0
O824 O 1.00016 0.57288 0.54447 0.0
C825 C 0.09548 0.44982 0.54895 0.0
C826 C 0.08124 0.52915 0.52998 0.0
C827 C 0.05777 0.52912 0.44249 0.0
C828 C 0.07723 0.45385 0.46929 0.0
C829 C 0.9618 0.57255 0.4508 0.0
C830 C 0.97236 0.49101 0.47169 0.0
C831 C 0.99326 0.48956 0.55833 0.0
C832 C 0.97584 0.56706 0.53002 0.0
O833 O 0.1082 0.47424 0.54481 0.0
O834 O 0.07005 0.44255 0.53765 0.0
O835 O 0.05671 0.52485 0.53317 0.0
O836 O 0.08888 0.51431 0.51678 0.0
Co837 Co 0.57628 0.98079 0.52557 0.0
Co838 Co 0.55479 0.98317 0.46744 0.0
Co839 Co 0.52603 0.01217 0.50008 0.0
O840 O 0.54096 0.98199 0.50388 0.0
H841 H 0.5276 0.96571 0.5081 0.0
O842 O 0.51105 0.04236 0.49615 0.0
Co843 Co 0.47673 0.04471 0.4718 0.0
Co844 Co 0.49547 0.04156 0.5311 0.0
H845 H 0.52479 0.05857 0.49297 0.0
O846 O 0.55361 0.95351 0.45475 0.0
O847 O 0.58794 0.97853 0.48449 0.0
O848 O 0.55941 0.01386 0.43692 0.0
O849 O 0.55075 0.03628 0.46922 0.0
O850 O 0.49894 0.99838 0.46509 0.0
O851 O 0.44681 0.04981 0.44835 0.0
O852 O 0.48442 0.08015 0.46281 0.0
O853 O 0.46366 1.00766 0.47596 0.0
O854 O 0.50125 0.98818 0.53109 0.0
O855 O 0.48993 1.01076 0.56117 0.0
O856 O 0.46278 0.04617 0.51157 0.0
O857 O 0.4954 0.07165 0.54253 0.0
C858 C 0.59499 0.95255 0.54874 0.0
C859 C 0.57853 0.03179 0.53265 0.0
C860 C 0.56021 0.03516 0.44456 0.0
C861 C 0.57837 0.95922 0.46792 0.0
C862 C 0.4601 0.07403 0.44767 0.0
C863 C 0.47382 0.99305 0.46555 0.0
C864 C 0.49051 0.98948 0.55473 0.0
C865 C 0.47131 0.06593 0.52736 0.0
O866 O 0.60744 0.97705 0.54636 0.0
O867 O 0.5699 0.94539 0.53608 0.0
O868 O 0.55357 0.02583 0.53486 0.0
O869 O 0.58808 0.01792 0.51994 0.0
C870 C 0.18199 0.21388 0.29599 0.0
C871 C 0.20038 0.20524 0.28479 0.0
C872 C 0.15993 0.19609 0.30873 0.0
C873 C 0.13959 0.13103 0.34986 0.0
H874 H 0.06709 0.13605 0.32681 0.0
C875 C 0.05484 0.05581 0.40797 0.0
C876 C 0.03632 0.06503 0.4181 0.0
C877 C 0.07194 0.07152 0.38668 0.0
C878 C 0.08725 0.13451 0.33368 0.0
H879 H 0.21101 0.17191 0.2783 0.0
H880 H 0.17252 0.14066 0.30076 0.0
H881 H 0.1033 0.16715 0.29998 0.0
H882 H 1.02007 0.09727 0.41294 0.0
H883 H 0.05077 0.12529 0.37664 0.0
H884 H 0.12424 0.09932 0.38439 0.0
C885 C 0.17488 0.16104 0.29945 0.0
C886 C 0.1079 0.15226 0.31828 0.0
C887 C 0.19672 0.17881 0.28646 0.0
C888 C 0.03415 0.08974 0.40531 0.0
C889 C 0.0517 0.10572 0.38445 0.0
C890 C 0.11911 0.11356 0.36549 0.0
C891 C 0.15636 0.16952 0.31079 0.0
C892 C 0.13423 0.15062 0.3263 0.0
C893 C 0.07136 0.09704 0.3757 0.0
C894 C 0.09267 0.11504 0.35763 0.0
H895 H 0.1847 0.23431 0.29484 0.0
H896 H 0.14606 0.20305 0.31767 0.0
H897 H 0.15981 0.12963 0.35682 0.0
H898 H 0.0566 0.03665 0.41721 0.0
H899 H 0.08624 0.06391 0.37967 0.0
C900 C 0.79965 0.14173 0.3935 0.0
C901 C 0.81007 0.16392 0.37238 0.0
C902 C 0.81305 0.13749 0.42393 0.0
C903 C 0.88352 0.15705 0.45897 0.0
H904 H 0.8567 0.09727 0.51971 0.0
C905 C 0.95108 0.09578 0.51264 0.0
C906 C 0.9393 0.07137 0.50297 0.0
C907 C 0.9352 0.11135 0.5145 0.0
C908 C 0.86456 0.11434 0.50337 0.0
H909 H 0.84063 0.20115 0.36971 0.0
H910 H 0.86166 0.19489 0.42307 0.0
H911 H 0.82613 0.1207 0.48893 0.0
H912 H 0.90161 0.04292 0.49135 0.0
H913 H 0.87405 0.07021 0.49363 0.0
H914 H 0.92153 0.15008 0.47217 0.0
C915 C 0.84438 0.17973 0.41532 0.0
C916 C 0.84701 0.12765 0.48547 0.0
C917 C 0.83176 0.18351 0.38446 0.0
C918 C 0.91131 0.06186 0.49821 0.0
C919 C 0.89546 0.07739 0.50006 0.0
C920 C 0.90102 0.14405 0.47715 0.0
C921 C 0.83669 0.1558 0.43449 0.0
C922 C 0.85589 0.14793 0.46123 0.0
C923 C 0.9073 0.10278 0.50661 0.0
C924 C 0.89135 0.12142 0.49776 0.0
H925 H 0.78211 0.12673 0.38604 0.0
H926 H 0.80595 0.11888 0.4379 0.0
H927 H 0.89154 0.17249 0.4408 0.0
H928 H 0.97261 0.10348 0.51709 0.0
H929 H 0.94485 0.13073 0.51998 0.0
C930 C 0.82179 0.84333 0.29947 0.0
C931 C 0.82971 0.8273 0.28399 0.0
C932 C 0.84079 0.86023 0.31817 0.0
C933 C 0.90107 0.86221 0.37077 0.0
H934 H 0.91137 0.9354 0.36666 0.0
C935 C 0.98439 0.92352 0.45239 0.0
C936 C 0.98049 0.94522 0.46115 0.0
C937 C 0.96548 0.90936 0.43078 0.0
C938 C 0.90841 0.91488 0.36856 0.0
H939 H 0.86316 0.81602 0.27553 0.0
H940 H 0.89652 0.84539 0.30872 0.0
H941 H 0.87991 0.91189 0.32649 0.0
H942 H 0.95286 0.96806 0.45574 0.0
H943 H 0.9192 0.94256 0.41933 0.0
H944 H 0.92839 0.86456 0.41341 0.0
C945 C 0.87578 0.84533 0.30578 0.0
C946 C 0.89061 0.90155 0.34533 0.0
C947 C 0.85684 0.82881 0.28658 0.0
C948 C 0.95658 0.9516 0.44918 0.0
C949 C 0.93741 0.93712 0.428 0.0
C950 C 0.91843 0.87536 0.39433 0.0
C951 C 0.86778 0.86071 0.32228 0.0
C952 C 0.88701 0.87518 0.34614 0.0
C953 C 0.94189 0.91617 0.41792 0.0
C954 C 0.92252 0.90194 0.39346 0.0
H955 H 0.80081 0.84193 0.29822 0.0
H956 H 0.83418 0.87175 0.33094 0.0
H957 H 0.89818 0.84172 0.37216 0.0
H958 H 1.00255 0.91802 0.4612 0.0
H959 H 0.96992 0.89361 0.42339 0.0
C960 C 0.16982 0.86096 0.28797 0.0
C961 C 0.19075 0.87625 0.27086 0.0
C962 C 0.16005 0.8715 0.30856 0.0
C963 C 0.15638 0.9336 0.3249 0.0
H964 H 0.13389 0.89297 0.40364 0.0
C965 C 0.11384 0.9723 0.41404 0.0
C966 C 0.09039 0.95537 0.42515 0.0
C967 C 0.12865 0.96378 0.39688 0.0
C968 C 0.14 0.90451 0.38167 0.0
H969 H 0.21832 0.91448 0.26262 0.0
H970 H 0.20132 0.93289 0.29862 0.0
H971 H 0.15511 0.87584 0.37072 0.0
H972 H 0.06433 0.91613 0.42727 0.0
H973 H 0.08997 0.90146 0.39743 0.0
H974 H 0.14098 0.96217 0.33583 0.0
C975 C 0.19214 0.91283 0.29572 0.0
C976 C 0.1521 0.89468 0.36276 0.0
C977 C 0.20188 0.90229 0.27507 0.0
C978 C 0.08221 0.92976 0.41895 0.0
C979 C 0.09705 0.92124 0.40208 0.0
C980 C 0.14435 0.94348 0.3439 0.0
C981 C 0.17103 0.89759 0.31263 0.0
C982 C 0.16 0.90889 0.33386 0.0
C983 C 0.12042 0.93811 0.39082 0.0
C984 C 0.13558 0.92883 0.37219 0.0
H985 H 0.16056 0.84093 0.28494 0.0
H986 H 0.14346 0.8593 0.32076 0.0
H987 H 0.16198 0.94497 0.30265 0.0
H988 H 0.12081 0.99208 0.41868 0.0
H989 H 0.1467 0.97716 0.38867 0.0
C990 C 0.27348 0.87854 0.60644 0.0
C991 C 0.2586 0.86588 0.63168 0.0
C992 C 0.26071 0.88688 0.57699 0.0
C993 C 0.19561 0.88096 0.52759 0.0
H994 H 0.2115 0.9547 0.52445 0.0
C995 C 0.11425 0.92856 0.51394 0.0
C996 C 0.12033 0.95545 0.50885 0.0
C997 C 0.13347 0.9167 0.51173 0.0
C998 C 0.20697 0.93428 0.52366 0.0
H999 H 0.21823 0.85166 0.64476 0.0
H1000 H 0.19638 0.86472 0.59353 0.0
H1001 H 0.24367 0.93306 0.5529 0.0
H1002 H 0.14926 0.99098 0.49279 0.0
H1003 H 0.18229 0.97032 0.487 0.0
H1004 H 0.15838 0.8819 0.49946 0.0
C1005 C 0.21787 0.8681 0.59651 0.0
C1006 C 0.22564 0.92187 0.54014 0.0
C1007 C 0.23056 0.86054 0.62603 0.0
C1008 C 0.14458 0.97018 0.49791 0.0
C1009 C 0.16347 0.9583 0.49466 0.0
C1010 C 0.17714 0.89344 0.5104 0.0
C1011 C 0.23281 0.88192 0.572 0.0
C1012 C 0.2192 0.89495 0.54423 0.0
C1013 C 0.1589 0.93155 0.50357 0.0
C1014 C 0.18164 0.91998 0.51051 0.0
H1015 H 0.29502 0.88257 0.60953 0.0
H1016 H 0.27261 0.89782 0.55845 0.0
H1017 H 0.19039 0.86013 0.53023 0.0
H1018 H 0.09544 0.91683 0.52196 0.0
H1019 H 0.12895 0.89611 0.51895 0.0
C1020 C 0.20421 0.19026 0.72147 0.0
C1021 C 0.23152 0.19754 0.71842 0.0
C1022 C 0.18591 0.17297 0.7027 0.0
C1023 C 0.17054 0.12112 0.66037 0.0
H1024 H 0.13477 0.15801 0.58989 0.0
C1025 C 0.10139 0.06928 0.55962 0.0
C1026 C 0.07774 0.07626 0.54813 0.0
C1027 C 0.12153 0.08399 0.57966 0.0
C1028 C 0.14426 0.14732 0.6096 0.0
H1029 H 0.26149 0.19195 0.69473 0.0
H1030 H 0.22938 0.16095 0.66246 0.0
H1031 H 0.16627 0.18156 0.6299 0.0
H1032 H 0.05709 0.1047 0.54773 0.0
H1033 H 0.09163 0.12976 0.58338 0.0
H1034 H 0.14802 0.08672 0.64097 0.0
C1035 C 0.22225 0.16868 0.67929 0.0
C1036 C 0.16233 0.16084 0.63234 0.0
C1037 C 0.24049 0.18631 0.69764 0.0
C1038 C 0.07506 0.09877 0.55614 0.0
C1039 C 0.09501 0.11326 0.57651 0.0
C1040 C 0.15211 0.10746 0.63787 0.0
C1041 C 0.19484 0.16252 0.68111 0.0
C1042 C 0.17548 0.14781 0.65782 0.0
C1043 C 0.11833 0.10585 0.58891 0.0
C1044 C 0.13869 0.12041 0.61222 0.0
H1045 H 0.19679 0.19928 0.73657 0.0
H1046 H 0.16472 0.16858 0.70403 0.0
H1047 H 0.18066 0.11085 0.67994 0.0
H1048 H 0.10415 0.05215 0.55361 0.0
H1049 H 0.13949 0.07805 0.58815 0.0
C1050 C 0.85722 0.11753 0.7401 0.0
C1051 C 0.86945 0.14273 0.7472 0.0
C1052 C 0.86757 0.10757 0.71944 0.0
C1053 C 0.91213 0.12727 0.6568 0.0
H1054 H 0.91694 0.05719 0.67834 0.0
C1055 C 0.9794 0.09036 0.59859 0.0
C1056 C 0.96944 0.06552 0.58979 0.0
C1057 C 0.96533 0.09895 0.6164 0.0
C1058 C 0.91539 0.07667 0.67177 0.0
H1059 H 0.90222 0.17719 0.73823 0.0
H1060 H 0.92038 0.15982 0.70236 0.0
H1061 H 0.89594 0.07397 0.71197 0.0
H1062 H 0.93678 0.03022 0.59282 0.0
H1063 H 0.9122 0.04525 0.62438 0.0
H1064 H 0.93199 0.1301 0.61691 0.0
C1065 C 0.90251 0.14786 0.71233 0.0
C1066 C 0.90335 0.0863 0.69103 0.0
C1067 C 0.89213 0.15782 0.73295 0.0
C1068 C 0.9451 0.04938 0.59944 0.0
C1069 C 0.93103 0.05797 0.6175 0.0
C1070 C 0.92421 0.11767 0.63762 0.0
C1071 C 0.8904 0.12258 0.70539 0.0
C1072 C 0.90189 0.11184 0.684 0.0
C1073 C 0.94095 0.08293 0.626 0.0
C1074 C 0.92631 0.09238 0.64512 0.0
H1075 H 0.83945 0.10555 0.75028 0.0
H1076 H 0.8575 0.08818 0.71424 0.0
H1077 H 0.91084 0.14684 0.65031 0.0
H1078 H 0.99804 0.10337 0.59151 0.0
H1079 H 0.97373 0.11813 0.62295 0.0
C1080 C 0.85353 0.82044 0.68309 0.0
C1081 C 0.85363 0.81229 0.71577 0.0
C1082 C 0.8758 0.83846 0.67137 0.0
C1083 C 0.94801 0.86952 0.69053 0.0
H1084 H 0.93263 0.9215 0.62236 0.0
C1085 C 1.00165 0.96699 0.60267 0.0
C1086 C 1.02105 0.95832 0.59357 0.0
C1087 C 0.98446 0.9511 0.62376 0.0
C1088 C 0.93743 0.90748 0.64178 0.0
H1089 H 0.87791 0.81538 0.76159 0.0
H1090 H 0.91654 0.84764 0.74113 0.0
H1091 H 0.8962 0.88966 0.64657 0.0
H1092 H 0.03902 0.92708 0.6007 0.0
H1093 H 1.0082 0.89869 0.63672 0.0
H1094 H 0.98945 0.88776 0.68584 0.0
C1095 C 0.8992 0.84001 0.72462 0.0
C1096 C 0.91644 0.8889 0.65529 0.0
C1097 C 0.87693 0.82178 0.73636 0.0
C1098 C 1.02421 0.93416 0.60748 0.0
C1099 C 1.0066 0.91798 0.62818 0.0
C1100 C 0.96916 0.8883 0.67707 0.0
C1101 C 0.89866 0.84888 0.69202 0.0
C1102 C 0.92141 0.86942 0.67937 0.0
C1103 C 0.98589 0.92595 0.63557 0.0
C1104 C 0.96405 0.90731 0.65226 0.0
H1105 H 0.8361 0.81327 0.66647 0.0
H1106 H 0.87501 0.84439 0.64603 0.0
H1107 H 0.95246 0.8547 0.70904 0.0
H1108 H 0.99914 0.98577 0.59258 0.0
H1109 H 0.96928 0.95814 0.62972 0.0
C1110 C 0.31299 0.1753 0.07574 0.0
C1111 C 0.30922 0.17354 0.10748 0.0
C1112 C 0.32938 0.16254 0.06761 0.0
C1113 C 0.38438 0.13319 0.10033 0.0
H1114 H 0.36222 0.10068 0.02414 0.0
C1115 C 0.457 0.10034 0.04471 0.0
C1116 C 0.4476 0.07701 0.03197 0.0
C1117 C 0.43948 0.11054 0.05507 0.0
C1118 C 0.36861 0.10942 0.04566 0.0
H1119 H 0.32017 0.15702 0.15559 0.0
H1120 H 0.34895 0.13491 0.14143 0.0
H1121 H 0.33312 0.1214 0.04023 0.0
H1122 H 0.41214 0.04617 0.02006 0.0
H1123 H 0.38135 0.06403 0.03828 0.0
H1124 H 0.4198 0.12111 0.10584 0.0
C1125 C 0.33928 0.14632 0.1228 0.0
C1126 C 0.35205 0.1216 0.0547 0.0
C1127 C 0.3228 0.15907 0.13096 0.0
C1128 C 0.42008 0.06412 0.02986 0.0
C1129 C 0.40243 0.07445 0.04012 0.0
C1130 C 0.40097 0.1211 0.09122 0.0
C1131 C 0.3426 0.14769 0.09096 0.0
C1132 C 0.35981 0.13386 0.08201 0.0
C1133 C 0.41195 0.09779 0.05294 0.0
C1134 C 0.39344 0.10926 0.0636 0.0
H1135 H 0.30334 0.18668 0.05705 0.0
H1136 H 0.3319 0.16456 0.04294 0.0
H1137 H 0.39113 0.14253 0.12137 0.0
H1138 H 0.47803 0.11093 0.04663 0.0
H1139 H 0.44752 0.12874 0.06426 0.0
C1140 C 0.82123 0.3383 0.20812 0.0
C1141 C 0.80058 0.32309 0.18885 0.0
C1142 C 0.84179 0.35792 0.19483 0.0
C1143 C 0.86382 0.3949 0.11705 0.0
H1144 H 0.93345 0.40634 0.16748 0.0
C1145 C 0.95901 0.46806 0.06972 0.0
C1146 C 0.98303 0.46122 0.07838 0.0
C1147 C 0.93609 0.45369 0.08392 0.0
C1148 C 0.91426 0.40326 0.15277 0.0
H1149 H 0.78398 0.3176 0.14057 0.0
H1150 H 0.82079 0.3506 0.11717 0.0
H1151 H 0.89502 0.3766 0.18955 0.0
H1152 H 1.0015 0.43364 0.10872 0.0
H1153 H 0.96187 0.40839 0.13231 0.0
H1154 H 0.88372 0.42051 0.07951 0.0
C1155 C 0.82108 0.34795 0.14256 0.0
C1156 C 0.89188 0.38639 0.16576 0.0
C1157 C 0.80007 0.32874 0.15591 0.0
C1158 C 0.98356 0.43981 0.10169 0.0
C1159 C 0.96067 0.4253 0.11546 0.0
C1160 C 0.88639 0.4115 0.10382 0.0
C1161 C 0.84257 0.36259 0.16187 0.0
C1162 C 0.86624 0.3817 0.14811 0.0
C1163 C 0.93653 0.43193 0.10685 0.0
C1164 C 0.91203 0.41569 0.12138 0.0
H1165 H 0.82155 0.33498 0.23359 0.0
H1166 H 0.85715 0.36925 0.21064 0.0
H1167 H 0.84451 0.3924 0.10273 0.0
H1168 H 0.95786 0.48442 0.05183 0.0
H1169 H 0.91805 0.45968 0.0769 0.0
C1170 C 0.69767 0.78763 0.19823 0.0
C1171 C 0.72527 0.79473 0.20866 0.0
C1172 C 0.68525 0.80542 0.17947 0.0
C1173 C 0.69564 0.87679 0.15445 0.0
H1174 H 0.62913 0.85253 0.10049 0.0
C1175 C 0.6276 0.94353 0.10374 0.0
C1176 C 0.60981 0.93954 0.07566 0.0
C1177 C 0.6427 0.92644 0.11747 0.0
C1178 C 0.64785 0.85998 0.11497 0.0
H1179 H 0.76142 0.8266 0.20799 0.0
H1180 H 0.74025 0.85744 0.1737 0.0
H1181 H 0.65404 0.82264 0.12646 0.0
H1182 H 0.59461 0.91431 0.03974 0.0
H1183 H 0.62184 0.88525 0.06255 0.0
H1184 H 0.69022 0.91439 0.14157 0.0
C1185 C 0.72785 0.83812 0.18043 0.0
C1186 C 0.66209 0.8425 0.13058 0.0
C1187 C 0.74023 0.82029 0.19972 0.0
C1188 C 0.60797 0.91804 0.06141 0.0
C1189 C 0.62355 0.90115 0.07482 0.0
C1190 C 0.68166 0.89436 0.13836 0.0
C1191 C 0.69998 0.8311 0.1702 0.0
C1192 C 0.68599 0.8504 0.15122 0.0
C1193 C 0.64111 0.90488 0.10334 0.0
C1194 C 0.65715 0.88627 0.11878 0.0
H1195 H 0.68543 0.76824 0.20518 0.0
H1196 H 0.6638 0.79901 0.17319 0.0
H1197 H 0.71373 0.884 0.17008 0.0
H1198 H 0.62947 0.95968 0.11571 0.0
H1199 H 0.65521 0.93002 0.1397 0.0
C1200 C 0.23187 0.71602 0.15947 0.0
C1201 C 0.22315 0.72704 0.18069 0.0
C1202 C 0.21345 0.70017 0.13925 0.0
C1203 C 0.14205 0.67973 0.10581 0.0
H1204 H 0.15906 0.61766 0.09858 0.0
C1205 C 0.08586 0.57419 0.06251 0.0
C1206 C 0.07057 0.58183 0.03457 0.0
C1207 C 0.1052 0.59261 0.07889 0.0
C1208 C 0.15391 0.6348 0.10051 0.0
H1209 H 0.18844 0.73115 0.19657 0.0
H1210 H 0.15602 0.70304 0.16142 0.0
H1211 H 0.19064 0.64917 0.12968 0.0
H1212 H 0.06432 0.61476 0.00118 0.0
H1213 H 0.09836 0.64676 0.02936 0.0
H1214 H 0.10487 0.66485 0.07757 0.0
C1215 C 0.17713 0.70689 0.16015 0.0
C1216 C 0.17219 0.65306 0.11799 0.0
C1217 C 0.19565 0.72298 0.18027 0.0
C1218 C 0.07559 0.60822 0.02283 0.0
C1219 C 0.09498 0.6266 0.03909 0.0
C1220 C 0.12371 0.6614 0.08842 0.0
C1221 C 0.18587 0.69482 0.13996 0.0
C1222 C 0.16649 0.67575 0.12083 0.0
C1223 C 0.10975 0.61905 0.06754 0.0
C1224 C 0.12943 0.63871 0.08561 0.0
H1225 H 0.25301 0.71924 0.15893 0.0
H1226 H 0.22085 0.69175 0.12341 0.0
H1227 H 0.13713 0.69707 0.10736 0.0
H1228 H 0.08244 0.55402 0.07222 0.0
H1229 H 0.11606 0.58615 0.1009 0.0
C1230 C 0.33012 0.81846 0.8235 0.0
C1231 C 0.33203 0.79335 0.82576 0.0
C1232 C 0.34645 0.83497 0.84447 0.0
C1233 C 0.41065 0.84456 0.89632 0.0
H1234 H 0.38757 0.89561 0.92539 0.0
C1235 C 0.48103 0.91295 0.97956 0.0
C1236 C 0.48291 0.93922 0.97018 0.0
C1237 C 0.46042 0.89414 0.96544 0.0
C1238 C 0.39426 0.88148 0.91733 0.0
H1239 H 0.35093 0.76511 0.85329 0.0
H1240 H 0.37936 0.79381 0.89005 0.0
H1241 H 0.35517 0.86384 0.89475 0.0
H1242 H 0.46381 0.96626 0.93975 0.0
H1243 H 0.42779 0.93325 0.9149 0.0
H1244 H 0.44971 0.86225 0.91863 0.0
C1245 C 0.36586 0.80106 0.87144 0.0
C1246 C 0.37577 0.86334 0.89978 0.0
C1247 C 0.34965 0.78463 0.85032 0.0
C1248 C 0.46302 0.9462 0.94735 0.0
C1249 C 0.4423 0.92731 0.93327 0.0
C1250 C 0.42904 0.86256 0.91398 0.0
C1251 C 0.36483 0.82659 0.86836 0.0
C1252 C 0.38384 0.84482 0.88882 0.0
C1253 C 0.44117 0.90115 0.94171 0.0
C1254 C 0.4211 0.88133 0.92445 0.0
H1255 H 0.31664 0.8257 0.80489 0.0
H1256 H 0.34531 0.85457 0.84121 0.0
H1257 H 0.41768 0.83093 0.88771 0.0
H1258 H 0.49585 0.90685 0.99731 0.0
H1259 H 0.45978 0.87409 0.97275 0.0
C1260 C 0.21602 0.33652 0.89034 0.0
C1261 C 0.20324 0.30985 0.89449 0.0
C1262 C 0.20529 0.35369 0.90014 0.0
C1263 C 0.15887 0.35426 0.95467 0.0
H1264 H 0.15779 0.42071 0.90621 0.0
C1265 C 0.08832 0.40838 0.97412 0.0
C1266 C 0.09797 0.43505 0.9753 0.0
C1267 C 0.10391 0.39525 0.96533 0.0
C1268 C 0.15832 0.40237 0.92022 0.0
H1269 H 0.16835 0.28055 0.91044 0.0
H1270 H 0.14957 0.31024 0.92702 0.0
H1271 H 0.17925 0.3936 0.8877 0.0
H1272 H 0.13176 0.46883 0.96795 0.0
H1273 H 0.15912 0.44569 0.95192 0.0
H1274 H 0.13743 0.36264 0.98672 0.0
C1275 C 0.16831 0.31796 0.91717 0.0
C1276 C 0.17058 0.38681 0.90962 0.0
C1277 C 0.17904 0.3009 0.90754 0.0
C1278 C 0.12375 0.4483 0.9673 0.0
C1279 C 0.13935 0.43509 0.95802 0.0
C1280 C 0.14657 0.36968 0.96512 0.0
C1281 C 0.1815 0.34455 0.91421 0.0
C1282 C 0.17047 0.36227 0.92637 0.0
C1283 C 0.12959 0.40835 0.95716 0.0
C1284 C 0.14561 0.39367 0.94771 0.0
H1285 H 0.23477 0.34404 0.88051 0.0
H1286 H 0.21604 0.374 0.89756 0.0
H1287 H 0.15905 0.33586 0.96873 0.0
H1288 H 0.06862 0.39744 0.9802 0.0
H1289 H 0.09562 0.37475 0.96453 0.0
C1290 C 0.72292 0.21185 0.81693 0.0
C1291 C 0.72614 0.2094 0.78644 0.0
C1292 C 0.7057 0.19184 0.83464 0.0
C1293 C 0.66881 0.12287 0.84295 0.0
H1294 H 0.61772 0.14481 0.87653 0.0
C1295 C 0.59023 0.0587 0.92749 0.0
C1296 C 0.56418 0.06103 0.91778 0.0
C1297 C 0.61156 0.07444 0.91132 0.0
C1298 C 0.6319 0.1384 0.86737 0.0
H1299 H 0.71333 0.18492 0.7497 0.0
H1300 H 0.68346 0.14936 0.78107 0.0
H1301 H 0.65295 0.17689 0.84964 0.0
H1302 H 0.54011 0.08095 0.88235 0.0
H1303 H 0.57716 0.10835 0.85486 0.0
H1304 H 0.64738 0.0842 0.86085 0.0
C1305 C 0.69471 0.16652 0.79155 0.0
C1306 C 0.65217 0.15676 0.85218 0.0
C1307 C 0.71169 0.18678 0.77363 0.0
C1308 C 0.55984 0.07864 0.89077 0.0
C1309 C 0.58108 0.09445 0.87497 0.0
C1310 C 0.64865 0.10442 0.85869 0.0
C1311 C 0.69119 0.16908 0.82203 0.0
C1312 C 0.67069 0.14923 0.83952 0.0
C1313 C 0.60721 0.09294 0.88546 0.0
C1314 C 0.62978 0.11206 0.87059 0.0
H1315 H 0.73324 0.22954 0.82675 0.0
H1316 H 0.70335 0.19435 0.85803 0.0
H1317 H 0.6829 0.11659 0.83347 0.0
H1318 H 0.5943 0.04532 0.94812 0.0
H1319 H 0.63158 0.07295 0.91985 0.0
C1320 C 0.80625 0.6904 0.80833 0.0
C1321 C 0.81555 0.71565 0.79271 0.0
C1322 C 0.824 0.67772 0.82743 0.0
C1323 C 0.89111 0.67208 0.83364 0.0
H1324 H 0.88009 0.63545 0.91796 0.0
C1325 C 0.93492 0.58708 0.892 0.0
C1326 C 0.94918 0.5883 0.92267 0.0
C1327 C 0.92053 0.60476 0.87806 0.0
C1328 C 0.88356 0.64568 0.89452 0.0
H1329 H 0.8511 0.74719 0.78448 0.0
H1330 H 0.8824 0.72466 0.81711 0.0
H1331 H 0.85158 0.66281 0.89099 0.0
H1332 H 0.95899 0.60934 0.96269 0.0
H1333 H 0.93271 0.63953 0.93884 0.0
H1334 H 0.92214 0.65395 0.83645 0.0
C1335 C 0.86115 0.71496 0.81517 0.0
C1336 C 0.86716 0.6613 0.87902 0.0
C1337 C 0.84323 0.72795 0.79667 0.0
C1338 C 0.94827 0.60769 0.93912 0.0
C1339 C 0.93318 0.625 0.92545 0.0
C1340 C 0.90703 0.65596 0.84879 0.0
C1341 C 0.85176 0.68955 0.8306 0.0
C1342 C 0.87062 0.67463 0.84828 0.0
C1343 C 0.91929 0.62391 0.89457 0.0
C1344 C 0.90339 0.64239 0.87938 0.0
H1345 H 0.78509 0.68026 0.8054 0.0
H1346 H 0.81606 0.65816 0.83867 0.0
H1347 H 0.89421 0.68185 0.80992 0.0
H1348 H 0.93516 0.57258 0.87842 0.0
H1349 H 0.90998 0.6032 0.85438 0.0
C1350 C 0.2073 0.29284 0.20016 0.0
C1351 C 0.23525 0.30367 0.20372 0.0
C1352 C 0.19032 0.30712 0.18202 0.0
C1353 C 0.19234 0.37635 0.15063 0.0
H1354 H 0.12117 0.3468 0.10921 0.0
C1355 C 0.1209 0.43969 0.10553 0.0
C1356 C 0.10197 0.43505 0.07847 0.0
C1357 C 0.13594 0.42255 0.11916 0.0
C1358 C 0.14111 0.35553 0.12031 0.0
H1359 H 0.26716 0.33738 0.18996 0.0
H1360 H 0.23825 0.36134 0.15721 0.0
H1361 H 0.14933 0.31886 0.13391 0.0
H1362 H 0.08416 0.40808 0.0448 0.0
H1363 H 0.11119 0.37859 0.06778 0.0
H1364 H 0.1849 0.41295 0.13624 0.0
C1365 C 0.22896 0.34242 0.1692 0.0
C1366 C 0.15725 0.33933 0.13497 0.0
C1367 C 0.24573 0.32847 0.18768 0.0
C1368 C 0.09857 0.41246 0.06553 0.0
C1369 C 0.11401 0.39536 0.07898 0.0
C1370 C 0.17645 0.39244 0.13579 0.0
C1371 C 0.20087 0.33254 0.16692 0.0
C1372 C 0.18322 0.34945 0.1505 0.0
C1373 C 0.13313 0.40017 0.10604 0.0
C1374 C 0.15037 0.38245 0.12062 0.0
H1375 H 0.19857 0.27395 0.21268 0.0
H1376 H 0.16892 0.29861 0.18113 0.0
H1377 H 0.21181 0.38524 0.16272 0.0
H1378 H 0.12399 0.45659 0.11662 0.0
H1379 H 0.14965 0.42689 0.14042 0.0
C1380 C 0.25355 0.69303 0.84575 0.0
C1381 C 0.25289 0.69931 0.81283 0.0
C1382 C 0.23172 0.67499 0.85892 0.0
C1383 C 0.18775 0.62868 0.88313 0.0
H1384 H 0.11746 0.62247 0.83553 0.0
C1385 C 0.09204 0.55568 0.9294 0.0
C1386 C 0.06855 0.56348 0.92278 0.0
C1387 C 0.11489 0.57032 0.91518 0.0
C1388 C 0.13685 0.62408 0.84948 0.0
H1389 H 0.23015 0.69003 0.76777 0.0
H1390 H 0.19283 0.65785 0.79033 0.0
H1391 H 0.15612 0.65216 0.81373 0.0
H1392 H 0.05098 0.59313 0.8963 0.0
H1393 H 0.0905 0.61879 0.87285 0.0
H1394 H 0.16802 0.60166 0.9198 0.0
C1395 C 0.20926 0.66774 0.80634 0.0
C1396 C 0.1593 0.64092 0.8366 0.0
C1397 C 0.23078 0.68616 0.79327 0.0
C1398 C 0.06849 0.58618 0.90164 0.0
C1399 C 0.0913 0.60095 0.88793 0.0
C1400 C 0.16516 0.61213 0.89631 0.0
C1401 C 0.20908 0.66217 0.83939 0.0
C1402 C 0.18517 0.64362 0.8532 0.0
C1403 C 0.1149 0.59331 0.89436 0.0
C1404 C 0.1393 0.60973 0.87979 0.0
H1405 H 0.27064 0.70264 0.86129 0.0
H1406 H 0.23242 0.67164 0.8844 0.0
H1407 H 0.20724 0.62969 0.89654 0.0
H1408 H 0.09281 0.53832 0.94562 0.0
H1409 H 0.13249 0.56354 0.92048 0.0
C1410 C 0.31705 0.20458 0.80518 0.0
C1411 C 0.33212 0.23035 0.79774 0.0
C1412 C 0.32912 0.18634 0.82404 0.0
C1413 C 0.39404 0.1808 0.87526 0.0
H1414 H 0.36646 0.10971 0.86066 0.0
C1415 C 0.44742 0.10407 0.94228 0.0
C1416 C 0.44586 0.08309 0.92719 0.0
C1417 C 0.43199 0.12116 0.92926 0.0
C1418 C 0.37488 0.12952 0.86488 0.0
H1419 H 0.37186 0.25682 0.8035 0.0
H1420 H 0.393 0.2254 0.83468 0.0
H1421 H 0.34334 0.14062 0.83293 0.0
H1422 H 0.42691 0.06415 0.88603 0.0
H1423 H 0.40149 0.09421 0.86271 0.0
H1424 H 0.42653 0.17011 0.90559 0.0
C1425 C 0.37165 0.21908 0.82757 0.0
C1426 C 0.3611 0.14738 0.84925 0.0
C1427 C 0.35952 0.23725 0.80927 0.0
C1428 C 0.42854 0.07985 0.89865 0.0
C1429 C 0.41361 0.09718 0.88531 0.0
C1430 C 0.4081 0.16306 0.89042 0.0
C1431 C 0.35681 0.19317 0.83532 0.0
C1432 C 0.37054 0.1735 0.85379 0.0
C1433 C 0.41489 0.1182 0.9003 0.0
C1434 C 0.39901 0.13706 0.88531 0.0
H1435 H 0.29603 0.19842 0.79605 0.0
H1436 H 0.31662 0.16686 0.82959 0.0
H1437 H 0.40189 0.2004 0.88042 0.0
H1438 H 0.46043 0.10721 0.96432 0.0
H1439 H 0.43345 0.1366 0.94219 0.0
C1440 C 0.82159 0.30729 0.84045 0.0
C1441 C 0.83137 0.29321 0.82398 0.0
C1442 C 0.83903 0.32367 0.86088 0.0
C1443 C 0.88113 0.3476 0.91392 0.0
H1444 H 0.94129 0.39671 0.87605 0.0
C1445 C 0.97109 0.41596 0.98179 0.0
C1446 C 0.97937 0.44165 0.96722 0.0
C1447 C 0.95115 0.39759 0.96606 0.0
C1448 C 0.9245 0.38318 0.88682 0.0
H1449 H 0.8669 0.28457 0.81671 0.0
H1450 H 0.89745 0.31355 0.85215 0.0
H1451 H 0.91067 0.36337 0.84636 0.0
H1452 H 0.97262 0.46848 0.92529 0.0
H1453 H 0.93804 0.43617 0.89759 0.0
H1454 H 0.89521 0.3674 0.95454 0.0
C1455 C 0.87627 0.31178 0.84925 0.0
C1456 C 0.9072 0.36399 0.87002 0.0
C1457 C 0.85878 0.29511 0.82917 0.0
C1458 C 0.9667 0.44882 0.93707 0.0
C1459 C 0.94703 0.43036 0.92117 0.0
C1460 C 0.89871 0.36661 0.93096 0.0
C1461 C 0.86658 0.32651 0.86482 0.0
C1462 C 0.88534 0.34609 0.88338 0.0
C1463 C 0.93941 0.40454 0.93536 0.0
C1464 C 0.92044 0.38463 0.91743 0.0
H1465 H 0.80053 0.30612 0.83701 0.0
H1466 H 0.83114 0.33494 0.87254 0.0
H1467 H 0.86438 0.33397 0.92466 0.0
H1468 H 0.98036 0.40993 0.00513 0.0
H1469 H 0.94565 0.37777 0.97741 0.0
C1470 C 0.72939 0.8605 0.86795 0.0
C1471 C 0.74253 0.84539 0.89107 0.0
C1472 C 0.71326 0.87343 0.87651 0.0
C1473 C 0.70125 0.89762 0.9454 0.0
H1474 H 0.63344 0.89924 0.89511 0.0
C1475 C 0.63461 0.95579 0.97215 0.0
C1476 C 0.60708 0.94301 0.97051 0.0
C1477 C 0.65194 0.94534 0.96143 0.0
C1478 C 0.65231 0.89894 0.90948 0.0
H1479 H 0.74789 0.83128 0.9413 0.0
H1480 H 0.72003 0.85379 0.9561 0.0
H1481 H 0.66155 0.87768 0.87861 0.0
H1482 H 0.57628 0.90918 0.95623 0.0
H1483 H 0.60624 0.8912 0.93773 0.0
H1484 H 0.69172 0.91844 0.97663 0.0
C1485 C 0.72263 0.85614 0.93141 0.0
C1486 C 0.66856 0.88678 0.89983 0.0
C1487 C 0.73863 0.84318 0.92287 0.0
C1488 C 0.59733 0.91966 0.95781 0.0
C1489 C 0.61453 0.90938 0.94695 0.0
C1490 C 0.68506 0.90993 0.95496 0.0
C1491 C 0.70989 0.87163 0.90842 0.0
C1492 C 0.69311 0.88567 0.91785 0.0
C1493 C 0.64207 0.92202 0.94858 0.0
C1494 C 0.66021 0.91048 0.93734 0.0
H1495 H 0.73211 0.86292 0.8433 0.0
H1496 H 0.70391 0.88532 0.85818 0.0
H1497 H 0.72019 0.89746 0.95967 0.0
H1498 H 0.64281 0.97375 0.98188 0.0
H1499 H 0.67303 0.95566 0.9629 0.0
C1500 C 0.8557 0.69093 0.13281 0.0
C1501 C 0.84282 0.70572 0.10891 0.0
C1502 C 0.86574 0.67236 0.12539 0.0
C1503 C 0.86501 0.63569 0.06054 0.0
H1504 H 0.93498 0.63414 0.10448 0.0
C1505 C 0.92499 0.57136 0.03217 0.0
C1506 C 0.95241 0.58362 0.03095 0.0
C1507 C 0.90921 0.58321 0.04351 0.0
C1508 C 0.91545 0.63433 0.09189 0.0
H1509 H 0.82928 0.7114 0.05852 0.0
H1510 H 0.84769 0.67993 0.04549 0.0
H1511 H 0.91161 0.66028 0.12038 0.0
H1512 H 0.98453 0.61812 0.04038 0.0
H1513 H 0.95731 0.63853 0.0595 0.0
H1514 H 0.86968 0.61063 0.03101 0.0
C1515 C 0.84974 0.68237 0.07009 0.0
C1516 C 0.90182 0.6491 0.10133 0.0
C1517 C 0.83952 0.70079 0.07753 0.0
C1518 C 0.96356 0.60791 0.04115 0.0
C1519 C 0.94793 0.61963 0.05241 0.0
C1520 C 0.87876 0.62095 0.05099 0.0
C1521 C 0.86339 0.66817 0.09384 0.0
C1522 C 0.87661 0.65039 0.08546 0.0
C1523 C 0.9206 0.60745 0.05397 0.0
C1524 C 0.90442 0.62056 0.06612 0.0
H1525 H 0.85881 0.69421 0.15722 0.0
H1526 H 0.87571 0.66153 0.14444 0.0
H1527 H 0.84545 0.63585 0.04806 0.0
H1528 H 0.91575 0.5527 0.02437 0.0
H1529 H 0.8882 0.57327 0.04444 0.0
C1530 C 0.32774 0.80985 0.16838 0.0
C1531 C 0.32519 0.80613 0.20069 0.0
C1532 C 0.34624 0.83173 0.15515 0.0
C1533 C 0.41127 0.8741 0.1727 0.0
H1534 H 0.39268 0.92156 0.10058 0.0
C1535 C 0.49406 0.95515 0.11473 0.0
C1536 C 0.49019 0.96127 0.08166 0.0
C1537 C 0.47283 0.93972 0.13106 0.0
C1538 C 0.39835 0.90834 0.12044 0.0
H1539 H 0.34061 0.82162 0.24485 0.0
H1540 H 0.37378 0.8595 0.22189 0.0
H1541 H 0.35734 0.88737 0.12511 0.0
H1542 H 0.46099 0.95638 0.03974 0.0
H1543 H 0.42441 0.92852 0.06775 0.0
H1544 H 0.45208 0.89349 0.16717 0.0
C1545 C 0.36085 0.84589 0.20669 0.0
C1546 C 0.37803 0.88892 0.13461 0.0
C1547 C 0.34191 0.8243 0.21977 0.0
C1548 C 0.46452 0.95222 0.06531 0.0
C1549 C 0.44344 0.93628 0.08152 0.0
C1550 C 0.4316 0.8931 0.15815 0.0
C1551 C 0.36317 0.84975 0.17427 0.0
C1552 C 0.38436 0.87154 0.16069 0.0
C1553 C 0.44735 0.92942 0.11463 0.0
C1554 C 0.4255 0.91041 0.13157 0.0
H1555 H 0.31536 0.79583 0.15338 0.0
H1556 H 0.34793 0.83417 0.13016 0.0
H1557 H 0.41661 0.86071 0.19262 0.0
H1558 H 0.5136 0.96205 0.12798 0.0
H1559 H 0.47661 0.9356 0.15658 0.0
C1560 C 0.72583 0.19888 0.18567 0.0
C1561 C 0.72245 0.2235 0.18299 0.0
C1562 C 0.70991 0.18154 0.16543 0.0
C1563 C 0.66581 0.1773 0.08918 0.0
H1564 H 0.63385 0.10739 0.1274 0.0
C1565 C 0.57408 0.10715 0.02798 0.0
C1566 C 0.57271 0.08087 0.03295 0.0
C1567 C 0.59504 0.12467 0.04378 0.0
C1568 C 0.64296 0.1267 0.11622 0.0
H1569 H 0.7008 0.24971 0.15597 0.0
H1570 H 0.67252 0.21928 0.12117 0.0
H1571 H 0.66553 0.13781 0.15991 0.0
H1572 H 0.59305 0.0526 0.05711 0.0
H1573 H 0.62973 0.08326 0.08439 0.0
H1574 H 0.64285 0.16624 0.04556 0.0
C1575 C 0.68749 0.21337 0.13887 0.0
C1576 C 0.6611 0.14414 0.13488 0.0
C1577 C 0.70337 0.23068 0.15915 0.0
C1578 C 0.59333 0.07267 0.05303 0.0
C1579 C 0.6143 0.09021 0.06877 0.0
C1580 C 0.64768 0.15983 0.07049 0.0
C1581 C 0.69041 0.18853 0.14199 0.0
C1582 C 0.67248 0.1697 0.12164 0.0
C1583 C 0.6151 0.1163 0.06479 0.0
C1584 C 0.63584 0.13442 0.0839 0.0
H1585 H 0.74044 0.1928 0.20377 0.0
H1586 H 0.71283 0.16263 0.16815 0.0
H1587 H 0.67458 0.19679 0.07825 0.0
H1588 H 0.55854 0.11411 0.01263 0.0
H1589 H 0.59494 0.14461 0.04043 0.0
C1590 C 0.71199 0.71251 0.81392 0.0
C1591 C 0.7129 0.71437 0.78134 0.0
C1592 C 0.69069 0.69509 0.82802 0.0
C1593 C 0.64666 0.63326 0.82883 0.0
H1594 H 0.60872 0.65667 0.88041 0.0
C1595 C 0.57763 0.56551 0.91981 0.0
C1596 C 0.5812 0.57478 0.94885 0.0
C1597 C 0.59026 0.58114 0.89441 0.0
C1598 C 0.61911 0.64982 0.86608 0.0
H1599 H 0.69115 0.70037 0.73783 0.0
H1600 H 0.65434 0.66858 0.7632 0.0
H1601 H 0.63568 0.68781 0.84256 0.0
H1602 H 0.60228 0.60685 0.97475 0.0
H1603 H 0.62457 0.63375 0.93081 0.0
H1604 H 0.63157 0.59546 0.85397 0.0
C1605 C 0.67035 0.68086 0.77743 0.0
C1606 C 0.63422 0.66757 0.84426 0.0
C1607 C 0.6915 0.69885 0.76306 0.0
C1608 C 0.59878 0.59929 0.95256 0.0
C1609 C 0.61136 0.6148 0.9273 0.0
C1610 C 0.63163 0.61542 0.85094 0.0
C1611 C 0.66997 0.67891 0.81003 0.0
C1612 C 0.64886 0.65954 0.82636 0.0
C1613 C 0.60662 0.6062 0.89773 0.0
C1614 C 0.61867 0.62379 0.87067 0.0
H1615 H 0.72787 0.72428 0.82881 0.0
H1616 H 0.69076 0.69375 0.85328 0.0
H1617 H 0.65808 0.62681 0.81536 0.0
H1618 H 0.56427 0.54662 0.91628 0.0
H1619 H 0.58644 0.57399 0.87192 0.0
C1620 C 0.36272 0.68078 0.88457 0.0
C1621 C 0.3456 0.6562 0.87947 0.0
C1622 C 0.37776 0.68494 0.91402 0.0
C1623 C 0.42512 0.68386 0.96238 0.0
H1624 H 0.41837 0.62551 0.02885 0.0
C1625 C 0.49898 0.63035 0.98893 0.0
C1626 C 0.50031 0.61199 0.01586 0.0
C1627 C 0.48354 0.647 0.98655 0.0
C1628 C 0.42069 0.64249 0.01122 0.0
H1629 H 0.3283 0.61784 0.90366 0.0
H1630 H 0.35659 0.62391 0.95282 0.0
H1631 H 0.37851 0.63437 0.99851 0.0
H1632 H 0.4903 0.59963 0.06366 0.0
H1633 H 0.46195 0.62822 0.05912 0.0
H1634 H 0.46731 0.6923 0.97594 0.0
C1635 C 0.35826 0.6405 0.9347 0.0
C1636 C 0.39767 0.64724 0.99301 0.0
C1637 C 0.34229 0.63668 0.90571 0.0
C1638 C 0.48861 0.61284 0.04209 0.0
C1639 C 0.47257 0.62933 0.03954 0.0
C1640 C 0.44797 0.67969 0.98138 0.0
C1641 C 0.3774 0.66437 0.93891 0.0
C1642 C 0.3997 0.66622 0.96602 0.0
C1643 C 0.46879 0.64569 0.01103 0.0
C1644 C 0.44612 0.65727 0.0035 0.0
H1645 H 0.36604 0.69668 0.86554 0.0
H1646 H 0.39086 0.70409 0.91633 0.0
H1647 H 0.42822 0.69938 0.94288 0.0
H1648 H 0.50845 0.63076 0.96861 0.0
H1649 H 0.48127 0.65912 0.96411 0.0
C1650 C 0.34362 0.35497 0.76476 0.0
C1651 C 0.33042 0.33298 0.7843 0.0
C1652 C 0.35952 0.37705 0.77776 0.0
C1653 C 0.3717 0.41059 0.8471 0.0
H1654 H 0.44603 0.43319 0.83303 0.0
C1655 C 0.4561 0.46483 0.93435 0.0
C1656 C 0.48017 0.48012 0.92337 0.0
C1657 C 0.43504 0.45198 0.91344 0.0
C1658 C 0.42525 0.42776 0.83672 0.0
H1659 H 0.32268 0.31759 0.83277 0.0
H1660 H 0.34973 0.35607 0.85499 0.0
H1661 H 0.414 0.40143 0.80276 0.0
H1662 H 0.50038 0.49599 0.88178 0.0
H1663 H 0.46322 0.47489 0.84503 0.0
H1664 H 0.38282 0.43672 0.88121 0.0
C1665 C 0.348 0.35616 0.8297 0.0
C1666 C 0.40691 0.40941 0.81936 0.0
C1667 C 0.33261 0.334 0.81688 0.0
C1668 C 0.48206 0.48407 0.89085 0.0
C1669 C 0.46084 0.47173 0.86987 0.0
C1670 C 0.38996 0.42926 0.86416 0.0
C1671 C 0.36189 0.37777 0.8104 0.0
C1672 C 0.38014 0.40013 0.82502 0.0
C1673 C 0.43749 0.45458 0.88106 0.0
C1674 C 0.41717 0.43758 0.85986 0.0
H1675 H 0.34187 0.35512 0.73951 0.0
H1676 H 0.36997 0.39356 0.76236 0.0
H1677 H 0.35107 0.40388 0.85168 0.0
H1678 H 0.45426 0.46127 0.95939 0.0
H1679 H 0.41756 0.43881 0.92314 0.0
C1680 C 0.71808 0.37511 0.82191 0.0
C1681 C 0.70793 0.37605 0.78953 0.0
C1682 C 0.70926 0.38735 0.84173 0.0
C1683 C 0.67973 0.44038 0.83705 0.0
H1684 H 0.65723 0.40822 0.91897 0.0
C1685 C 0.60855 0.47319 0.89263 0.0
C1686 C 0.61158 0.4729 0.92553 0.0
C1687 C 0.62491 0.46383 0.87909 0.0
C1688 C 0.66397 0.41767 0.89643 0.0
H1689 H 0.67923 0.3891 0.75325 0.0
H1690 H 0.66421 0.41049 0.78749 0.0
H1691 H 0.67621 0.38553 0.88977 0.0
H1692 H 0.63504 0.46341 0.96996 0.0
H1693 H 0.6643 0.44746 0.94591 0.0
H1694 H 0.66709 0.47221 0.84314 0.0
C1695 C 0.67939 0.40084 0.79747 0.0
C1696 C 0.67473 0.40463 0.87968 0.0
C1697 C 0.68803 0.38856 0.77783 0.0
C1698 C 0.63228 0.46404 0.94451 0.0
C1699 C 0.64876 0.45457 0.93084 0.0
C1700 C 0.66911 0.45337 0.85374 0.0
C1701 C 0.69026 0.40086 0.82948 0.0
C1702 C 0.68194 0.41556 0.84935 0.0
C1703 C 0.64489 0.45393 0.89801 0.0
C1704 C 0.66033 0.44188 0.88316 0.0
H1705 H 0.7335 0.36573 0.83168 0.0
H1706 H 0.71795 0.38699 0.86633 0.0
H1707 H 0.6857 0.44959 0.81408 0.0
H1708 H 0.59286 0.47989 0.87724 0.0
H1709 H 0.62115 0.46342 0.85379 0.0
C1710 C 0.73178 0.37407 0.0926 0.0
C1711 C 0.72137 0.3665 0.12173 0.0
C1712 C 0.71469 0.37138 0.06399 0.0
C1713 C 0.64409 0.3417 0.03078 0.0
H1714 H 0.64931 0.4094 0.98292 0.0
C1715 C 0.5764 0.41217 0.96082 0.0
C1716 C 0.56442 0.41053 0.98781 0.0
C1717 C 0.59395 0.39752 0.96154 0.0
C1718 C 0.64783 0.39002 0.99484 0.0
H1719 H 0.68466 0.34989 0.14325 0.0
H1720 H 0.65541 0.3448 0.09406 0.0
H1721 H 0.68835 0.40118 0.01671 0.0
H1722 H 0.55695 0.38874 0.03403 0.0
H1723 H 0.58628 0.36269 0.03482 0.0
H1724 H 0.60269 0.33158 0.01161 0.0
C1725 C 0.67675 0.35235 0.09314 0.0
C1726 C 0.67025 0.38532 0.01444 0.0
C1727 C 0.69364 0.35538 0.12151 0.0
C1728 C 0.56661 0.39106 0.01324 0.0
C1729 C 0.58325 0.37587 0.01353 0.0
C1730 C 0.62166 0.34644 0.01122 0.0
C1731 C 0.68695 0.36072 0.06402 0.0
C1732 C 0.6679 0.36181 0.03459 0.0
C1733 C 0.5985 0.38016 0.98866 0.0
C1734 C 0.62284 0.37133 0.99525 0.0
H1735 H 0.75308 0.38231 0.09186 0.0
H1736 H 0.72307 0.37813 0.04187 0.0
H1737 H 0.64193 0.32317 0.04553 0.0
H1738 H 0.57389 0.42606 0.94023 0.0
H1739 H 0.60526 0.40098 0.9419 0.0
C1740 C 0.71506 0.6701 0.24331 0.0
C1741 C 0.72714 0.69219 0.22309 0.0
C1742 C 0.70003 0.6474 0.23103 0.0
C1743 C 0.68976 0.61307 0.16288 0.0
H1744 H 0.61533 0.58756 0.17653 0.0
C1745 C 0.60766 0.55727 0.07508 0.0
C1746 C 0.5837 0.54139 0.08576 0.0
C1747 C 0.62834 0.57024 0.09628 0.0
C1748 C 0.6362 0.59379 0.17299 0.0
H1749 H 0.73346 0.7073 0.17413 0.0
H1750 H 0.70803 0.66783 0.15323 0.0
H1751 H 0.64589 0.62032 0.20654 0.0
H1752 H 0.56332 0.52454 0.12704 0.0
H1753 H 0.59986 0.54585 0.16433 0.0
H1754 H 0.68018 0.58683 0.1291 0.0
C1755 C 0.71002 0.66808 0.17848 0.0
C1756 C 0.65368 0.61271 0.19021 0.0
C1757 C 0.72448 0.6908 0.19055 0.0
C1758 C 0.5816 0.5369 0.11825 0.0
C1759 C 0.60244 0.54936 0.13952 0.0
C1760 C 0.67239 0.59384 0.14598 0.0
C1761 C 0.69747 0.64624 0.19848 0.0
C1762 C 0.68039 0.62308 0.18459 0.0
C1763 C 0.62557 0.56718 0.12864 0.0
C1764 C 0.64514 0.58452 0.15006 0.0
H1765 H 0.71708 0.67032 0.26852 0.0
H1766 H 0.6905 0.63075 0.24693 0.0
H1767 H 0.7104 0.62065 0.15835 0.0
H1768 H 0.60962 0.56123 0.05005 0.0
H1769 H 0.64567 0.58392 0.08682 0.0
C1770 C 0.35425 0.65319 0.19279 0.0
C1771 C 0.36418 0.65098 0.22523 0.0
C1772 C 0.36396 0.64282 0.17177 0.0
C1773 C 0.42241 0.62261 0.16392 0.0
H1774 H 0.37427 0.57805 0.10574 0.0
C1775 C 0.45818 0.55209 0.11665 0.0
C1776 C 0.45437 0.55203 0.08376 0.0
C1777 C 0.44453 0.56434 0.13024 0.0
C1778 C 0.38793 0.59073 0.12156 0.0
H1779 H 0.39245 0.63675 0.26083 0.0
H1780 H 0.40935 0.61884 0.22444 0.0
H1781 H 0.35628 0.60083 0.13613 0.0
H1782 H 0.43147 0.56307 0.03961 0.0
H1783 H 0.40688 0.58421 0.06383 0.0
H1784 H 0.45394 0.61226 0.15012 0.0
C1785 C 0.39409 0.62853 0.21511 0.0
C1786 C 0.37768 0.60379 0.13891 0.0
C1787 C 0.38425 0.6386 0.23605 0.0
C1788 C 0.43482 0.56275 0.06503 0.0
C1789 C 0.42091 0.57501 0.07883 0.0
C1790 C 0.43257 0.60964 0.14673 0.0
C1791 C 0.38407 0.63043 0.18273 0.0
C1792 C 0.39478 0.61925 0.16101 0.0
C1793 C 0.42655 0.57684 0.11141 0.0
C1794 C 0.41542 0.59291 0.12612 0.0
H1795 H 0.33864 0.66248 0.18382 0.0
H1796 H 0.35591 0.64467 0.14695 0.0
H1797 H 0.4362 0.63487 0.18011 0.0
H1798 H 0.47273 0.54366 0.13192 0.0
H1799 H 0.44872 0.56475 0.15555 0.0
C1800 C 0.33149 0.31473 0.17842 0.0
C1801 C 0.33442 0.30883 0.21156 0.0
C1802 C 0.34997 0.33526 0.16348 0.0
C1803 C 0.41859 0.37692 0.17256 0.0
H1804 H 0.39054 0.41627 0.09773 0.0
C1805 C 0.48415 0.4561 0.0878 0.0
C1806 C 0.4792 0.44882 0.0574 0.0
C1807 C 0.46671 0.44324 0.11007 0.0
C1808 C 0.39858 0.40562 0.11879 0.0
H1809 H 0.36053 0.31843 0.25478 0.0
H1810 H 0.39268 0.35514 0.22854 0.0
H1811 H 0.35985 0.38555 0.13208 0.0
H1812 H 0.45176 0.42335 0.02591 0.0
H1813 H 0.42089 0.40131 0.06467 0.0
H1814 H 0.45737 0.39694 0.15867 0.0
C1815 C 0.3757 0.34395 0.21429 0.0
C1816 C 0.38111 0.38797 0.13832 0.0
C1817 C 0.35716 0.32313 0.22933 0.0
C1818 C 0.4561 0.42917 0.04924 0.0
C1819 C 0.43841 0.41672 0.07127 0.0
C1820 C 0.43614 0.39491 0.15319 0.0
C1821 C 0.3719 0.3505 0.18122 0.0
C1822 C 0.39084 0.3726 0.16456 0.0
C1823 C 0.44381 0.42344 0.10191 0.0
C1824 C 0.42609 0.40858 0.12555 0.0
H1825 H 0.31469 0.3038 0.16376 0.0
H1826 H 0.34703 0.33916 0.13787 0.0
H1827 H 0.42664 0.36533 0.19258 0.0
H1828 H 0.50186 0.47121 0.09468 0.0
H1829 H 0.47114 0.44862 0.13363 0.0
C1830 C 0.83422 0.69641 0.56857 0.0
C1831 C 0.82585 0.68968 0.59882 0.0
C1832 C 0.85026 0.68374 0.55954 0.0
C1833 C 0.86878 0.62299 0.57722 0.0
H1834 H 0.92903 0.6617 0.53208 0.0
C1835 C 0.93004 0.57314 0.52519 0.0
C1836 C 0.95794 0.58238 0.53278 0.0
C1837 C 0.91326 0.5867 0.53078 0.0
C1838 C 0.91226 0.65061 0.54465 0.0
H1839 H 0.82799 0.66442 0.64336 0.0
H1840 H 0.8561 0.64226 0.6276 0.0
H1841 H 0.90177 0.6844 0.54827 0.0
H1842 H 0.99008 0.6138 0.55065 0.0
H1843 H 0.96094 0.63741 0.56001 0.0
H1844 H 0.87947 0.58921 0.57386 0.0
C1845 C 0.85009 0.6573 0.61082 0.0
C1846 C 0.89654 0.6636 0.55376 0.0
C1847 C 0.83423 0.67016 0.61998 0.0
C1848 C 0.96868 0.60599 0.54475 0.0
C1849 C 0.95198 0.61965 0.54995 0.0
C1850 C 0.88434 0.60997 0.56782 0.0
C1851 C 0.8582 0.66386 0.58043 0.0
C1852 C 0.87474 0.64998 0.5704 0.0
C1853 C 0.92405 0.60996 0.5436 0.0
C1854 C 0.90642 0.62364 0.55166 0.0
H1855 H 0.82833 0.71152 0.5518 0.0
H1856 H 0.85601 0.68919 0.53592 0.0
H1857 H 0.85196 0.61189 0.58968 0.0
H1858 H 0.92112 0.5551 0.51579 0.0
H1859 H 0.89183 0.57889 0.52527 0.0
C1860 C 0.31695 0.80389 0.662 0.0
C1861 C 0.31889 0.79804 0.6951 0.0
C1862 C 0.33684 0.82372 0.64761 0.0
C1863 C 0.38557 0.88499 0.65792 0.0
H1864 H 0.42372 0.87058 0.59844 0.0
C1865 C 0.47176 0.96511 0.60435 0.0
C1866 C 0.47518 0.96547 0.57289 0.0
C1867 C 0.45449 0.94374 0.62033 0.0
C1868 C 0.41307 0.87516 0.61458 0.0
H1869 H 0.34184 0.80963 0.73922 0.0
H1870 H 0.37628 0.84481 0.71402 0.0
H1871 H 0.38908 0.83583 0.62334 0.0
H1872 H 0.46342 0.94347 0.53363 0.0
H1873 H 0.43247 0.90666 0.56084 0.0
H1874 H 0.40826 0.92436 0.64838 0.0
C1875 C 0.35986 0.83347 0.69925 0.0
C1876 C 0.39331 0.85513 0.62898 0.0
C1877 C 0.34031 0.81326 0.71362 0.0
C1878 C 0.46148 0.94365 0.55802 0.0
C1879 C 0.4437 0.92246 0.57377 0.0
C1880 C 0.40491 0.90512 0.64308 0.0
C1881 C 0.35849 0.83868 0.66611 0.0
C1882 C 0.37945 0.85985 0.65085 0.0
C1883 C 0.43956 0.92233 0.60505 0.0
C1884 C 0.4191 0.90057 0.62122 0.0
H1885 H 0.30026 0.79281 0.64727 0.0
H1886 H 0.33513 0.8276 0.62202 0.0
H1887 H 0.37493 0.88918 0.67444 0.0
H1888 H 0.48219 0.98157 0.61652 0.0
H1889 H 0.45267 0.94425 0.64463 0.0
C1890 C 0.24572 0.32062 0.69875 0.0
C1891 C 0.23268 0.29419 0.70566 0.0
C1892 C 0.23204 0.3374 0.67937 0.0
C1893 C 0.16925 0.3385 0.62257 0.0
H1894 H 0.18152 0.40539 0.64767 0.0
C1895 C 0.09879 0.40429 0.57041 0.0
C1896 C 0.11073 0.43111 0.56546 0.0
C1897 C 0.11389 0.38742 0.58608 0.0
C1898 C 0.17795 0.38693 0.63992 0.0
H1899 H 0.19512 0.26478 0.69766 0.0
H1900 H 0.17145 0.29362 0.66424 0.0
H1901 H 0.20823 0.37731 0.67576 0.0
H1902 H 0.14837 0.46086 0.5728 0.0
H1903 H 0.17426 0.43189 0.59936 0.0
H1904 H 0.13878 0.34811 0.58685 0.0
C1905 C 0.1923 0.30159 0.67305 0.0
C1906 C 0.19345 0.37074 0.65613 0.0
C1907 C 0.20588 0.28497 0.6924 0.0
C1908 C 0.13819 0.44042 0.57633 0.0
C1909 C 0.15317 0.42369 0.59188 0.0
C1910 C 0.15372 0.35471 0.60634 0.0
C1911 C 0.20492 0.3282 0.66654 0.0
C1912 C 0.18933 0.34616 0.64788 0.0
C1913 C 0.14135 0.39688 0.59731 0.0
C1914 C 0.15774 0.37923 0.61475 0.0
H1915 H 0.26619 0.32846 0.70906 0.0
H1916 H 0.24268 0.35765 0.67472 0.0
H1917 H 0.16558 0.31994 0.61503 0.0
H1918 H 0.07778 0.39632 0.56233 0.0
H1919 H 0.10388 0.36696 0.58988 0.0
C1920 C 0.70833 0.21844 0.66479 0.0
C1921 C 0.73496 0.21793 0.67335 0.0
C1922 C 0.69107 0.20222 0.64392 0.0
C1923 C 0.6884 0.15911 0.58631 0.0
H1924 H 0.62127 0.11983 0.61739 0.0
C1925 C 0.62421 0.06177 0.54611 0.0
C1926 C 0.59625 0.05604 0.54352 0.0
C1927 C 0.64073 0.08416 0.55786 0.0
C1928 C 0.63969 0.13089 0.60797 0.0
H1929 H 0.76504 0.20168 0.66526 0.0
H1930 H 0.73497 0.17309 0.62927 0.0
H1931 H 0.65068 0.15535 0.64389 0.0
H1932 H 0.56373 0.07002 0.54979 0.0
H1933 H 0.59245 0.10907 0.56972 0.0
H1934 H 0.67754 0.13423 0.55069 0.0
C1935 C 0.7273 0.18596 0.63848 0.0
C1936 C 0.65655 0.15131 0.62318 0.0
C1937 C 0.74446 0.20208 0.65938 0.0
C1938 C 0.58519 0.0736 0.55192 0.0
C1939 C 0.60167 0.096 0.56346 0.0
C1940 C 0.67146 0.13868 0.57099 0.0
C1941 C 0.70022 0.18531 0.6312 0.0
C1942 C 0.68125 0.16545 0.6128 0.0
C1943 C 0.62964 0.10136 0.56708 0.0
C1944 C 0.64704 0.12412 0.5819 0.0
H1945 H 0.70044 0.23022 0.67557 0.0
H1946 H 0.67036 0.20234 0.6385 0.0
H1947 H 0.70721 0.16981 0.57757 0.0
H1948 H 0.63335 0.04866 0.53979 0.0
H1949 H 0.66219 0.08757 0.56063 0.0
C1950 C 0.79826 0.33047 0.33406 0.0
C1951 C 0.80918 0.31264 0.32607 0.0
C1952 C 0.81269 0.34693 0.35602 0.0
C1953 C 0.8736 0.35977 0.416 0.0
H1954 H 0.87324 0.43084 0.38924 0.0
C1955 C 0.95916 0.44784 0.45319 0.0
C1956 C 0.95184 0.46816 0.46087 0.0
C1957 C 0.93961 0.42681 0.44176 0.0
C1958 C 0.87328 0.41102 0.3973 0.0
H1959 H 0.84264 0.29652 0.3375 0.0
H1960 H 0.86835 0.32588 0.3742 0.0
H1961 H 0.84208 0.39731 0.36084 0.0
H1962 H 0.91823 0.48198 0.46344 0.0
H1963 H 0.88427 0.44544 0.44313 0.0
H1964 H 0.90586 0.37399 0.45157 0.0
C1965 C 0.8486 0.32717 0.36373 0.0
C1966 C 0.85531 0.39175 0.38113 0.0
C1967 C 0.83404 0.31057 0.34206 0.0
C1968 C 0.92457 0.46671 0.45761 0.0
C1969 C 0.9051 0.44584 0.44593 0.0
C1970 C 0.8918 0.37915 0.43197 0.0
C1971 C 0.83841 0.34602 0.37036 0.0
C1972 C 0.8555 0.36592 0.38996 0.0
C1973 C 0.91245 0.42586 0.43754 0.0
C1974 C 0.892 0.40498 0.42247 0.0
H1975 H 0.77897 0.33243 0.32254 0.0
H1976 H 0.80395 0.36082 0.36114 0.0
H1977 H 0.87398 0.34004 0.42378 0.0
H1978 H 0.97999 0.4483 0.45567 0.0
H1979 H 0.9458 0.41171 0.43522 0.0
C1980 C 0.68611 0.82201 0.37962 0.0
C1981 C 0.70807 0.81599 0.39934 0.0
C1982 C 0.67382 0.83855 0.38793 0.0
C1983 C 0.68327 0.88964 0.43658 0.0
H1984 H 0.60605 0.8655 0.43182 0.0
C1985 C 0.62068 0.94487 0.47949 0.0
C1986 C 0.59561 0.94432 0.46174 0.0
C1987 C 0.63574 0.92964 0.47349 0.0
C1988 C 0.62759 0.87284 0.4329 0.0
H1989 H 0.73508 0.82356 0.44255 0.0
H1990 H 0.7138 0.8527 0.45682 0.0
H1991 H 0.62989 0.83934 0.41671 0.0
H1992 H 0.56745 0.9282 0.42274 0.0
H1993 H 0.5937 0.90293 0.41171 0.0
H1994 H 0.68087 0.9235 0.45208 0.0
C1995 C 0.70598 0.84447 0.43507 0.0
C1996 C 0.64126 0.85772 0.42427 0.0
C1997 C 0.71804 0.82764 0.42699 0.0
C1998 C 0.58641 0.92885 0.43738 0.0
C1999 C 0.60148 0.91407 0.43115 0.0
C2000 C 0.66951 0.90502 0.44486 0.0
C2001 C 0.68343 0.84976 0.41593 0.0
C2002 C 0.66922 0.86599 0.42569 0.0
C2003 C 0.62617 0.91382 0.44936 0.0
C2004 C 0.64139 0.89697 0.44274 0.0
H2005 H 0.67787 0.81328 0.35827 0.0
H2006 H 0.65663 0.84244 0.37253 0.0
H2007 H 0.70485 0.89655 0.43793 0.0
H2008 H 0.62847 0.95669 0.49826 0.0
H2009 H 0.65462 0.92994 0.48813 0.0
C2010 C 0.21495 0.70155 0.28703 0.0
C2011 C 0.23098 0.72062 0.30531 0.0
C2012 C 0.19569 0.68037 0.30048 0.0
C2013 C 0.15254 0.66201 0.36302 0.0
H2014 H 0.14601 0.5915 0.35485 0.0
C2015 C 0.08502 0.57551 0.43605 0.0
C2016 C 0.07322 0.55238 0.42321 0.0
C2017 C 0.10289 0.59626 0.41995 0.0
C2018 C 0.14715 0.61108 0.35692 0.0
H2019 H 0.23896 0.73306 0.35138 0.0
H2020 H 0.20517 0.69627 0.37481 0.0
H2021 H 0.18033 0.62668 0.33008 0.0
H2022 H 0.06998 0.53344 0.38259 0.0
H2023 H 0.10019 0.56993 0.35392 0.0
H2024 H 0.11918 0.64677 0.3892 0.0
C2025 C 0.20771 0.69744 0.3503 0.0
C2026 C 0.16698 0.63122 0.34283 0.0
C2027 C 0.22711 0.71839 0.33698 0.0
C2028 C 0.07881 0.55094 0.39323 0.0
C2029 C 0.0964 0.57182 0.37693 0.0
C2030 C 0.13251 0.64195 0.37673 0.0
C2031 C 0.19162 0.67832 0.33214 0.0
C2032 C 0.17007 0.65687 0.34605 0.0
C2033 C 0.10919 0.5946 0.39036 0.0
C2034 C 0.12967 0.61613 0.37421 0.0
H2035 H 0.217 0.70323 0.26227 0.0
H2036 H 0.18342 0.66603 0.28585 0.0
H2037 H 0.15418 0.68165 0.36546 0.0
H2038 H 0.08146 0.5772 0.45927 0.0
H2039 H 0.11253 0.61324 0.4314 0.0
C2040 C 0.29772 0.18517 0.31101 0.0
C2041 C 0.30515 0.21023 0.29423 0.0
C2042 C 0.31696 0.17425 0.32992 0.0
C2043 C 0.38355 0.17033 0.33411 0.0
H2044 H 0.38081 0.14367 0.42323 0.0
C2045 C 0.42929 0.08883 0.40216 0.0
C2046 C 0.4468 0.09384 0.43021 0.0
C2047 C 0.4149 0.10607 0.38644 0.0
C2048 C 0.38198 0.15118 0.39843 0.0
H2049 H 0.33892 0.2431 0.2833 0.0
H2050 H 0.37281 0.22353 0.31552 0.0
H2051 H 0.34989 0.1682 0.39483 0.0
H2052 H 0.4626 0.12101 0.46386 0.0
H2053 H 0.43636 0.15071 0.43706 0.0
H2054 H 0.41446 0.152 0.33716 0.0
C2055 C 0.35188 0.21272 0.31473 0.0
C2056 C 0.36423 0.16515 0.38215 0.0
C2057 C 0.33249 0.22398 0.29644 0.0
C2058 C 0.44951 0.11668 0.44217 0.0
C2059 C 0.43438 0.1336 0.42691 0.0
C2060 C 0.40077 0.15578 0.35015 0.0
C2061 C 0.34432 0.18768 0.33167 0.0
C2062 C 0.36469 0.17479 0.34973 0.0
C2063 C 0.4169 0.1285 0.39877 0.0
C2064 C 0.40013 0.14586 0.38248 0.0
H2065 H 0.27688 0.17395 0.30941 0.0
H2066 H 0.31049 0.15488 0.34239 0.0
H2067 H 0.38427 0.17729 0.30912 0.0
H2068 H 0.42661 0.0714 0.39235 0.0
H2069 H 0.40154 0.10145 0.36499 0.0
C2070 C 0.72115 0.79835 0.69671 0.0
C2071 C 0.74839 0.81188 0.70307 0.0
C2072 C 0.70271 0.81101 0.67863 0.0
C2073 C 0.69446 0.87701 0.65726 0.0
H2074 H 0.63819 0.84944 0.59197 0.0
C2075 C 0.63785 0.94294 0.57472 0.0
C2076 C 0.61019 0.9337 0.56497 0.0
C2077 C 0.65277 0.92631 0.59069 0.0
C2078 C 0.65357 0.85735 0.6104 0.0
H2079 H 0.77745 0.84916 0.69514 0.0
H2080 H 0.74579 0.87098 0.66396 0.0
H2081 H 0.66752 0.8235 0.62092 0.0
H2082 H 0.57687 0.89902 0.56394 0.0
H2083 H 0.60299 0.86979 0.59244 0.0
H2084 H 0.68076 0.91059 0.64738 0.0
C2085 C 0.7384 0.85071 0.67287 0.0
C2086 C 0.67046 0.84243 0.62701 0.0
C2087 C 0.75667 0.83812 0.69064 0.0
C2088 C 0.59805 0.90694 0.5712 0.0
C2089 C 0.61312 0.89014 0.58744 0.0
C2090 C 0.67764 0.89176 0.64091 0.0
C2091 C 0.71101 0.83759 0.66704 0.0
C2092 C 0.69153 0.85227 0.65032 0.0
C2093 C 0.64073 0.89966 0.5979 0.0
C2094 C 0.65721 0.88251 0.61671 0.0
H2095 H 0.71399 0.77823 0.70641 0.0
H2096 H 0.68182 0.80021 0.67476 0.0
H2097 H 0.70988 0.88511 0.67557 0.0
H2098 H 0.64822 0.96327 0.57005 0.0
H2099 H 0.674 0.93453 0.59732 0.0
C2100 C 0.73847 0.21677 0.33996 0.0
C2101 C 0.7364 0.22346 0.30693 0.0
C2102 C 0.71759 0.19804 0.3541 0.0
C2103 C 0.66503 0.13961 0.34113 0.0
H2104 H 0.63122 0.15341 0.40542 0.0
C2105 C 0.57822 0.06047 0.39486 0.0
C2106 C 0.57599 0.0592 0.42692 0.0
C2107 C 0.59568 0.08187 0.37915 0.0
C2108 C 0.64064 0.14897 0.38789 0.0
H2109 H 0.71163 0.21486 0.26264 0.0
H2110 H 0.67548 0.18158 0.2873 0.0
H2111 H 0.66654 0.1877 0.38098 0.0
H2112 H 0.59016 0.07958 0.46761 0.0
H2113 H 0.62148 0.11627 0.44089 0.0
H2114 H 0.64057 0.10075 0.34879 0.0
C2115 C 0.6929 0.19134 0.30227 0.0
C2116 C 0.66079 0.16876 0.37376 0.0
C2117 C 0.71349 0.21046 0.2882 0.0
C2118 C 0.59116 0.08012 0.44275 0.0
C2119 C 0.60914 0.10128 0.42727 0.0
C2120 C 0.64536 0.11969 0.35568 0.0
C2121 C 0.69468 0.18502 0.33536 0.0
C2122 C 0.67312 0.16426 0.3502 0.0
C2123 C 0.61204 0.10234 0.3953 0.0
C2124 C 0.63272 0.12399 0.37929 0.0
H2125 H 0.75616 0.22621 0.35484 0.0
H2126 H 0.71958 0.1933 0.37963 0.0
H2127 H 0.67445 0.13555 0.32326 0.0
H2128 H 0.56666 0.0447 0.38197 0.0
H2129 H 0.59652 0.08211 0.35436 0.0
C2130 C 0.85341 0.73912 0.30754 0.0
C2131 C 0.82579 0.7307 0.29755 0.0
C2132 C 0.86701 0.7224 0.32658 0.0
C2133 C 0.85991 0.6516 0.35412 0.0
H2134 H 0.92794 0.67941 0.40353 0.0
C2135 C 0.92947 0.58676 0.40686 0.0
C2136 C 0.94817 0.59222 0.43384 0.0
C2137 C 0.91459 0.60376 0.3919 0.0
C2138 C 0.90886 0.67096 0.39035 0.0
H2139 H 0.79084 0.69761 0.29961 0.0
H2140 H 0.81398 0.6687 0.3347 0.0
H2141 H 0.9011 0.70757 0.37788 0.0
H2142 H 0.96545 0.61985 0.46666 0.0
H2143 H 0.93867 0.64898 0.44182 0.0
H2144 H 0.86676 0.6147 0.36836 0.0
C2145 C 0.82555 0.68821 0.32724 0.0
C2146 C 0.89344 0.68746 0.37485 0.0
C2147 C 0.81198 0.70496 0.30753 0.0
C2148 C 0.95159 0.61528 0.44555 0.0
C2149 C 0.9361 0.63206 0.43107 0.0
C2150 C 0.87503 0.635 0.37022 0.0
C2151 C 0.85351 0.69649 0.33676 0.0
C2152 C 0.86889 0.67827 0.35578 0.0
C2153 C 0.91713 0.6266 0.40394 0.0
C2154 C 0.90014 0.64436 0.38816 0.0
H2155 H 0.86481 0.75868 0.29978 0.0
H2156 H 0.88844 0.72983 0.33221 0.0
H2157 H 0.8414 0.64335 0.33975 0.0
H2158 H 0.92635 0.56918 0.39716 0.0
H2159 H 0.90113 0.59881 0.37069 0.0
C2160 C 0.32528 0.80607 0.34999 0.0
C2161 C 0.334 0.80122 0.32367 0.0
C2162 C 0.34207 0.82426 0.36864 0.0
C2163 C 0.39067 0.85668 0.41038 0.0
H2164 H 0.40805 0.92559 0.36308 0.0
C2165 C 0.46623 0.94787 0.45663 0.0
C2166 C 0.45644 0.96927 0.45353 0.0
C2167 C 0.45091 0.92593 0.44323 0.0
C2168 C 0.40327 0.90644 0.37651 0.0
H2169 H 0.36718 0.81073 0.29665 0.0
H2170 H 0.39642 0.84343 0.32882 0.0
H2171 H 0.38422 0.88849 0.33526 0.0
H2172 H 0.42287 0.98443 0.43448 0.0
H2173 H 0.39628 0.94615 0.40995 0.0
H2174 H 0.41019 0.87464 0.45157 0.0
C2175 C 0.37676 0.83274 0.33523 0.0
C2176 C 0.38995 0.88529 0.36062 0.0
C2177 C 0.36018 0.81399 0.31705 0.0
C2178 C 0.4308 0.96814 0.4373 0.0
C2179 C 0.41571 0.94638 0.42318 0.0
C2180 C 0.40457 0.8778 0.42619 0.0
C2181 C 0.36758 0.83833 0.36077 0.0
C2182 C 0.38343 0.86029 0.37746 0.0
C2183 C 0.42577 0.92521 0.42587 0.0
C2184 C 0.41074 0.90286 0.40939 0.0
H2185 H 0.30506 0.79654 0.35534 0.0
H2186 H 0.33456 0.82839 0.38812 0.0
H2187 H 0.38565 0.83754 0.42379 0.0
H2188 H 0.4859 0.94818 0.46918 0.0
H2189 H 0.45908 0.90986 0.44551 0.0
C2190 C 0.21363 0.34807 0.37263 0.0
C2191 C 0.23188 0.33814 0.39515 0.0
C2192 C 0.19694 0.36 0.3818 0.0
C2193 C 0.17226 0.36969 0.45341 0.0
H2194 H 0.15199 0.4249 0.39478 0.0
C2195 C 0.12132 0.44326 0.48048 0.0
C2196 C 0.09562 0.4402 0.46333 0.0
C2197 C 0.13849 0.4305 0.47395 0.0
C2198 C 0.15762 0.40955 0.41138 0.0
H2199 H 0.24587 0.3324 0.44549 0.0
H2200 H 0.21841 0.35459 0.46103 0.0
H2201 H 0.18088 0.4035 0.37974 0.0
H2202 H 0.06805 0.42154 0.42559 0.0
H2203 H 0.0984 0.40027 0.41356 0.0
H2204 H 0.14956 0.37678 0.48539 0.0
C2205 C 0.21636 0.35265 0.43627 0.0
C2206 C 0.17392 0.397 0.40268 0.0
C2207 C 0.23262 0.34026 0.42719 0.0
C2208 C 0.08761 0.42426 0.43943 0.0
C2209 C 0.10496 0.4121 0.43241 0.0
C2210 C 0.15643 0.38269 0.46234 0.0
C2211 C 0.1983 0.36285 0.41373 0.0
C2212 C 0.18128 0.37662 0.42339 0.0
C2213 C 0.1305 0.4151 0.44957 0.0
C2214 C 0.14879 0.40253 0.44125 0.0
H2215 H 0.21249 0.34715 0.3477 0.0
H2216 H 0.18295 0.36698 0.36368 0.0
H2217 H 0.17693 0.35387 0.46992 0.0
H2218 H 0.12822 0.45552 0.49884 0.0
H2219 H 0.15819 0.4331 0.48741 0.0
C2220 C 0.35022 0.21194 0.57154 0.0
C2221 C 0.35356 0.21375 0.60407 0.0
C2222 C 0.35897 0.19397 0.56069 0.0
C2223 C 0.3791 0.13378 0.58436 0.0
H2224 H 0.42237 0.1612 0.51564 0.0
C2225 C 0.42606 0.07151 0.52907 0.0
C2226 C 0.45387 0.08194 0.5293 0.0
C2227 C 0.41064 0.08632 0.53518 0.0
C2228 C 0.41017 0.15319 0.53468 0.0
H2229 H 0.36786 0.19698 0.65071 0.0
H2230 H 0.38269 0.16527 0.63174 0.0
H2231 H 0.40116 0.18864 0.53343 0.0
H2232 H 0.48701 0.11642 0.53434 0.0
H2233 H 0.46018 0.14229 0.54386 0.0
H2234 H 0.38862 0.09839 0.58581 0.0
C2235 C 0.37331 0.17793 0.61465 0.0
C2236 C 0.39789 0.16887 0.5448 0.0
C2237 C 0.36474 0.19612 0.62554 0.0
C2238 C 0.46566 0.10775 0.53419 0.0
C2239 C 0.45026 0.12264 0.53951 0.0
C2240 C 0.3911 0.11794 0.57389 0.0
C2241 C 0.37105 0.17702 0.58202 0.0
C2242 C 0.38254 0.15953 0.5701 0.0
C2243 C 0.42268 0.11201 0.54076 0.0
C2244 C 0.40718 0.12763 0.5493 0.0
H2245 H 0.34106 0.22466 0.55426 0.0
H2246 H 0.35645 0.19348 0.53545 0.0
H2247 H 0.36725 0.12592 0.60373 0.0
H2248 H 0.41644 0.05165 0.5255 0.0
H2249 H 0.38938 0.07766 0.53582 0.0
C2250 C 0.85417 0.30238 0.7123 0.0
C2251 C 0.8295 0.2903 0.69586 0.0
C2252 C 0.87308 0.32219 0.6965 0.0
C2253 C 0.91454 0.35465 0.65279 0.0
H2254 H 0.88936 0.40969 0.60007 0.0
C2255 C 0.9798 0.44133 0.57422 0.0
C2256 C 0.97794 0.46574 0.57697 0.0
C2257 C 0.96292 0.41883 0.58897 0.0
C2258 C 0.89667 0.39444 0.61471 0.0
H2259 H 0.80577 0.28786 0.64991 0.0
H2260 H 0.83855 0.32332 0.62217 0.0
H2261 H 0.85731 0.37164 0.62403 0.0
H2262 H 0.95717 0.48544 0.59814 0.0
H2263 H 0.92771 0.44631 0.62332 0.0
H2264 H 0.95398 0.37753 0.64324 0.0
C2265 C 0.84317 0.31764 0.64734 0.0
C2266 C 0.87831 0.37259 0.62823 0.0
C2267 C 0.82443 0.29747 0.66311 0.0
C2268 C 0.9593 0.46706 0.59551 0.0
C2269 C 0.94222 0.44463 0.60978 0.0
C2270 C 0.9329 0.37633 0.63877 0.0
C2271 C 0.86764 0.33032 0.66393 0.0
C2272 C 0.88705 0.35261 0.64778 0.0
C2273 C 0.94357 0.42028 0.6063 0.0
C2274 C 0.92417 0.39661 0.61997 0.0
H2275 H 0.85873 0.29657 0.73747 0.0
H2276 H 0.89166 0.33164 0.70996 0.0
H2277 H 0.92184 0.33947 0.66759 0.0
H2278 H 0.99386 0.43957 0.56009 0.0
H2279 H 0.96436 0.40029 0.5859 0.0
C2280 C 0.25217 0.68439 0.6765 0.0
C2281 C 0.24432 0.70538 0.68129 0.0
C2282 C 0.23635 0.66781 0.65522 0.0
C2283 C 0.20269 0.64254 0.59752 0.0
H2284 H 0.12826 0.61815 0.61172 0.0
C2285 C 0.12818 0.55247 0.54954 0.0
C2286 C 0.10115 0.55187 0.54168 0.0
C2287 C 0.14668 0.57318 0.56284 0.0
C2288 C 0.14881 0.62508 0.60687 0.0
H2289 H 0.21537 0.72686 0.66505 0.0
H2290 H 0.18744 0.69767 0.62883 0.0
H2291 H 0.15931 0.65117 0.64087 0.0
H2292 H 0.07253 0.5731 0.53963 0.0
H2293 H 0.10491 0.60965 0.56174 0.0
H2294 H 0.19213 0.61653 0.56329 0.0
C2295 C 0.20547 0.69373 0.64199 0.0
C2296 C 0.16663 0.64394 0.62373 0.0
C2297 C 0.22133 0.71032 0.66301 0.0
C2298 C 0.09317 0.57286 0.546 0.0
C2299 C 0.11172 0.59374 0.5588 0.0
C2300 C 0.18474 0.62383 0.58028 0.0
C2301 C 0.21246 0.67197 0.6385 0.0
C2302 C 0.19373 0.65273 0.61938 0.0
C2303 C 0.13858 0.59388 0.5681 0.0
C2304 C 0.1576 0.61475 0.58493 0.0
H2305 H 0.2699 0.68015 0.6901 0.0
H2306 H 0.24213 0.6511 0.65296 0.0
H2307 H 0.2235 0.64915 0.59365 0.0
H2308 H 0.13486 0.5365 0.54648 0.0
H2309 H 0.16709 0.57246 0.57003 0.0
loop_
_geom_bond_atom_site_label_1
_geom_bond_atom_site_label_2
_geom_bond_distance
_geom_bond_site_symmetry_2
_ccdc_geom_bond_type
Eu0 N31 2.657 . S
Eu0 N38 2.609 . S
Eu0 O44 2.558 . S
Eu0 O45 2.612 . S
Eu0 O47 2.339 . S
Eu0 O48 2.563 . S
Eu0 O49 2.419 . S
Eu0 O51 2.380 . S
Eu0 O52 2.432 . S
Eu0 C64 2.848 . S
C1 C4 1.429 . S
C1 C5 1.411 . S
C1 N8 1.377 . S
C2 C4 1.420 . S
C2 C6 1.423 . S
C2 C14 1.392 . S
C3 C5 1.420 . S
C3 C6 1.351 . S
C3 H26 0.931 . S
C4 C1 1.429 . S
C4 C2 1.420 . S
C4 N12 1.362 . S
C5 C1 1.411 . S
C5 C3 1.420 . S
C5 C10 1.395 . S
C6 C2 1.423 . S
C6 C3 1.351 . S
C6 H18 0.930 . S
C7 C9 1.400 . S
C7 C10 1.386 . S
C7 H19 0.930 . S
N8 C1 1.377 . S
N8 C9 1.321 . S
N8 Eu11 2.609 . S
C9 C7 1.400 . S
C9 N8 1.321 . S
C9 H16 0.930 . S
C10 C5 1.395 . S
C10 C7 1.386 . S
C10 H29 0.930 . S
Eu11 N8 2.609 . S
Eu11 N12 2.657 . S
Eu11 O45 2.380 . S
Eu11 O46 2.432 . S
Eu11 O50 2.558 . S
Eu11 O51 2.612 . S
Eu11 O53 2.339 . S
Eu11 O54 2.563 . S
Eu11 O55 2.419 . S
Eu11 C75 2.848 . S
N12 C4 1.362 . S
N12 Eu11 2.657 . S
N12 C13 1.334 . S
C13 N12 1.334 . S
C13 C15 1.413 . S
C13 H20 0.929 . S
C14 C2 1.392 . S
C14 C15 1.367 . S
C14 H22 0.930 . S
C15 C13 1.413 . S
C15 C14 1.367 . S
C15 H17 0.930 . S
H16 C9 0.930 . S
H17 C15 0.930 . S
H18 C6 0.930 . S
H19 C7 0.930 . S
H20 C13 0.929 . S
H21 C35 0.930 . S
H22 C14 0.930 . S
H23 C41 0.930 . S
H24 C32 0.929 . S
H25 C39 0.930 . S
H26 C3 0.931 . S
H27 C33 0.930 . S
H28 C66 0.930 . S
H29 C10 0.930 . S
H30 C65 0.931 . S
N31 Eu0 2.657 . S
N31 C32 1.334 . S
N31 C36 1.362 . S
C32 H24 0.929 . S
C32 N31 1.334 . S
C32 C35 1.413 . S
C33 H27 0.930 . S
C33 C34 1.392 . S
C33 C35 1.367 . S
C34 C33 1.392 . S
C34 C36 1.420 . S
C34 C66 1.423 . S
C35 H21 0.930 . S
C35 C32 1.413 . S
C35 C33 1.367 . S
C36 N31 1.362 . S
C36 C34 1.420 . S
C36 C40 1.429 . S
H37 C42 0.930 . S
N38 Eu0 2.609 . S
N38 C40 1.377 . S
N38 C41 1.321 . S
C39 H25 0.930 . S
C39 C41 1.400 . S
C39 C42 1.386 . S
C40 C36 1.429 . S
C40 N38 1.377 . S
C40 C43 1.411 . S
C41 H23 0.930 . S
C41 N38 1.321 . S
C41 C39 1.400 . S
C42 H37 0.930 . S
C42 C39 1.386 . S
C42 C43 1.395 . S
C43 C40 1.411 . S
C43 C42 1.395 . S
C43 C65 1.420 . S
O44 Eu0 2.558 . S
O44 C64 1.257 . S
O45 Eu0 2.612 . S
O45 Eu11 2.380 . S
O45 C56 1.276 . S
O46 Eu11 2.432 . S
O46 C63 1.264 . S
O47 Eu0 2.339 . S
O47 C63 1.254 . S
O48 Eu0 2.563 . S
O48 C56 1.235 . S
O49 Eu0 2.419 . S
O49 C64 1.249 . S
O50 Eu11 2.558 . S
O50 C75 1.257 . S
O51 Eu0 2.380 . S
O51 Eu11 2.612 . S
O51 C67 1.276 . S
O52 Eu0 2.432 . S
O52 C74 1.264 . S
O53 Eu11 2.339 . S
O53 C74 1.254 . S
O54 Eu11 2.563 . S
O54 C67 1.235 . S
O55 Eu11 2.419 . S
O55 C75 1.249 . S
C56 O45 1.276 . S
C56 O48 1.235 . S
C57 C59 1.393 . S
C57 C61 1.395 . S
C57 C64 1.492 . S
C58 C59 1.392 . S
C58 C60 1.386 . S
C59 C57 1.393 . S
C59 C58 1.392 . S
C59 H76 0.930 . S
C60 C58 1.386 . S
C60 C62 1.395 . S
C60 H77 0.930 . S
C61 C57 1.395 . S
C61 C62 1.379 . S
C61 H78 0.930 . S
C62 C60 1.395 . S
C62 C61 1.379 . S
C62 H79 0.930 . S
C63 O46 1.264 . S
C63 O47 1.254 . S
C64 Eu0 2.848 . S
C64 O44 1.257 . S
C64 O49 1.249 . S
C64 C57 1.492 . S
C65 H30 0.931 . S
C65 C43 1.420 . S
C65 C66 1.351 . S
C66 H28 0.930 . S
C66 C34 1.423 . S
C66 C65 1.351 . S
C67 O51 1.276 . S
C67 O54 1.235 . S
C68 C69 1.393 . S
C68 C72 1.395 . S
C68 C75 1.492 . S
C69 C68 1.393 . S
C69 C70 1.392 . S
C69 H80 0.930 . S
C70 C69 1.392 . S
C70 C71 1.386 . S
C71 C70 1.386 . S
C71 C73 1.395 . S
C71 H81 0.930 . S
C72 C68 1.395 . S
C72 C73 1.379 . S
C72 H82 0.930 . S
C73 C71 1.395 . S
C73 C72 1.379 . S
C73 H83 0.930 . S
C74 O52 1.264 . S
C74 O53 1.254 . S
C75 Eu11 2.848 . S
C75 O50 1.257 . S
C75 O55 1.249 . S
C75 C68 1.492 . S
H76 C59 0.930 . S
H77 C60 0.930 . S
H78 C61 0.930 . S
H79 C62 0.930 . S
H80 C69 0.930 . S
H81 C71 0.930 . S
H82 C72 0.930 . S
H83 C73 0.930 . S
Eu84 N115 2.657 . S
Eu84 N122 2.609 . S
Eu84 O128 2.558 . S
Eu84 O129 2.612 . S
Eu84 O131 2.339 . S
Eu84 O132 2.563 . S
Eu84 O133 2.419 . S
Eu84 O135 2.380 . S
Eu84 O136 2.432 . S
Eu84 C148 2.848 . S
C85 C88 1.429 . S
C85 C89 1.411 . S
C85 N92 1.377 . S
C86 C88 1.420 . S
C86 C90 1.423 . S
C86 C98 1.392 . S
C87 C89 1.420 . S
C87 C90 1.351 . S
C87 H110 0.931 . S
C88 C85 1.429 . S
C88 C86 1.420 . S
C88 N96 1.362 . S
C89 C85 1.411 . S
C89 C87 1.420 . S
C89 C94 1.395 . S
C90 C86 1.423 . S
C90 C87 1.351 . S
C90 H102 0.930 . S
C91 C93 1.400 . S
C91 C94 1.386 . S
C91 H103 0.930 . S
N92 C85 1.377 . S
N92 C93 1.321 . S
N92 Eu95 2.609 . S
C93 C91 1.400 . S
C93 N92 1.321 . S
C93 H100 0.930 . S
C94 C89 1.395 . S
C94 C91 1.386 . S
C94 H113 0.930 . S
Eu95 N92 2.609 . S
Eu95 N96 2.657 . S
Eu95 O129 2.380 . S
Eu95 O130 2.432 . S
Eu95 O134 2.558 . S
Eu95 O135 2.612 . S
Eu95 O137 2.339 . S
Eu95 O138 2.563 . S
Eu95 O139 2.419 . S
Eu95 C159 2.848 . S
N96 C88 1.362 . S
N96 Eu95 2.657 . S
N96 C97 1.334 . S
C97 N96 1.334 . S
C97 C99 1.413 . S
C97 H104 0.929 . S
C98 C86 1.392 . S
C98 C99 1.367 . S
C98 H106 0.930 . S
C99 C97 1.413 . S
C99 C98 1.367 . S
C99 H101 0.930 . S
H100 C93 0.930 . S
H101 C99 0.930 . S
H102 C90 0.930 . S
H103 C91 0.930 . S
H104 C97 0.929 . S
H105 C119 0.930 . S
H106 C98 0.930 . S
H107 C125 0.930 . S
H108 C116 0.929 . S
H109 C123 0.930 . S
H110 C87 0.931 . S
H111 C117 0.930 . S
H112 C150 0.930 . S
H113 C94 0.930 . S
H114 C149 0.931 . S
N115 Eu84 2.657 . S
N115 C116 1.334 . S
N115 C120 1.362 . S
C116 H108 0.929 . S
C116 N115 1.334 . S
C116 C119 1.413 . S
C117 H111 0.930 . S
C117 C118 1.392 . S
C117 C119 1.367 . S
C118 C117 1.392 . S
C118 C120 1.420 . S
C118 C150 1.423 . S
C119 H105 0.930 . S
C119 C116 1.413 . S
C119 C117 1.367 . S
C120 N115 1.362 . S
C120 C118 1.420 . S
C120 C124 1.429 . S
H121 C126 0.930 . S
N122 Eu84 2.609 . S
N122 C124 1.377 . S
N122 C125 1.321 . S
C123 H109 0.930 . S
C123 C125 1.400 . S
C123 C126 1.386 . S
C124 C120 1.429 . S
C124 N122 1.377 . S
C124 C127 1.411 . S
C125 H107 0.930 . S
C125 N122 1.321 . S
C125 C123 1.400 . S
C126 H121 0.930 . S
C126 C123 1.386 . S
C126 C127 1.395 . S
C127 C124 1.411 . S
C127 C126 1.395 . S
C127 C149 1.420 . S
O128 Eu84 2.558 . S
O128 C148 1.257 . S
O129 Eu84 2.612 . S
O129 Eu95 2.380 . S
O129 C140 1.276 . S
O130 Eu95 2.432 . S
O130 C147 1.264 . S
O131 Eu84 2.339 . S
O131 C147 1.254 . S
O132 Eu84 2.563 . S
O132 C140 1.235 . S
O133 Eu84 2.419 . S
O133 C148 1.249 . S
O134 Eu95 2.558 . S
O134 C159 1.257 . S
O135 Eu84 2.380 . S
O135 Eu95 2.612 . S
O135 C151 1.276 . S
O136 Eu84 2.432 . S
O136 C158 1.264 . S
O137 Eu95 2.339 . S
O137 C158 1.254 . S
O138 Eu95 2.563 . S
O138 C151 1.235 . S
O139 Eu95 2.419 . S
O139 C159 1.249 . S
C140 O129 1.276 . S
C140 O132 1.235 . S
C141 C143 1.393 . S
C141 C145 1.395 . S
C141 C148 1.492 . S
C142 C143 1.392 . S
C142 C144 1.386 . S
C143 C141 1.393 . S
C143 C142 1.392 . S
C143 H160 0.930 . S
C144 C142 1.386 . S
C144 C146 1.395 . S
C144 H161 0.930 . S
C145 C141 1.395 . S
C145 C146 1.379 . S
C145 H162 0.930 . S
C146 C144 1.395 . S
C146 C145 1.379 . S
C146 H163 0.930 . S
C147 O130 1.264 . S
C147 O131 1.254 . S
C148 Eu84 2.848 . S
C148 O128 1.257 . S
C148 O133 1.249 . S
C148 C141 1.492 . S
C149 H114 0.931 . S
C149 C127 1.420 . S
C149 C150 1.351 . S
C150 H112 0.930 . S
C150 C118 1.423 . S
C150 C149 1.351 . S
C151 O135 1.276 . S
C151 O138 1.235 . S
C152 C153 1.393 . S
C152 C156 1.395 . S
C152 C159 1.492 . S
C153 C152 1.393 . S
C153 C154 1.392 . S
C153 H164 0.930 . S
C154 C153 1.392 . S
C154 C155 1.386 . S
C155 C154 1.386 . S
C155 C157 1.395 . S
C155 H165 0.930 . S
C156 C152 1.395 . S
C156 C157 1.379 . S
C156 H166 0.930 . S
C157 C155 1.395 . S
C157 C156 1.379 . S
C157 H167 0.930 . S
C158 O136 1.264 . S
C158 O137 1.254 . S
C159 Eu95 2.848 . S
C159 O134 1.257 . S
C159 O139 1.249 . S
C159 C152 1.492 . S
H160 C143 0.930 . S
H161 C144 0.930 . S
H162 C145 0.930 . S
H163 C146 0.930 . S
H164 C153 0.930 . S
H165 C155 0.930 . S
H166 C156 0.930 . S
H167 C157 0.930 . S
Eu168 N199 2.657 . S
Eu168 N206 2.609 . S
Eu168 O212 2.558 . S
Eu168 O213 2.612 . S
Eu168 O215 2.339 . S
Eu168 O216 2.563 . S
Eu168 O217 2.419 . S
Eu168 O219 2.380 . S
Eu168 O220 2.432 . S
Eu168 C232 2.848 . S
C169 C172 1.429 . S
C169 C173 1.411 . S
C169 N176 1.377 . S
C170 C172 1.420 . S
C170 C174 1.423 . S
C170 C182 1.392 . S
C171 C173 1.420 . S
C171 C174 1.351 . S
C171 H194 0.931 . S
C172 C169 1.429 . S
C172 C170 1.420 . S
C172 N180 1.362 . S
C173 C169 1.411 . S
C173 C171 1.420 . S
C173 C178 1.395 . S
C174 C170 1.423 . S
C174 C171 1.351 . S
C174 H186 0.930 . S
C175 C177 1.400 . S
C175 C178 1.386 . S
C175 H187 0.930 . S
N176 C169 1.377 . S
N176 C177 1.321 . S
N176 Eu179 2.609 . S
C177 C175 1.400 . S
C177 N176 1.321 . S
C177 H184 0.930 . S
C178 C173 1.395 . S
C178 C175 1.386 . S
C178 H197 0.930 . S
Eu179 N176 2.609 . S
Eu179 N180 2.657 . S
Eu179 O213 2.380 . S
Eu179 O214 2.432 . S
Eu179 O218 2.558 . S
Eu179 O219 2.612 . S
Eu179 O221 2.339 . S
Eu179 O222 2.563 . S
Eu179 O223 2.419 . S
Eu179 C243 2.848 . S
N180 C172 1.362 . S
N180 Eu179 2.657 . S
N180 C181 1.334 . S
C181 N180 1.334 . S
C181 C183 1.413 . S
C181 H188 0.929 . S
C182 C170 1.392 . S
C182 C183 1.367 . S
C182 H190 0.930 . S
C183 C181 1.413 . S
C183 C182 1.367 . S
C183 H185 0.930 . S
H184 C177 0.930 . S
H185 C183 0.930 . S
H186 C174 0.930 . S
H187 C175 0.930 . S
H188 C181 0.929 . S
H189 C203 0.930 . S
H190 C182 0.930 . S
H191 C209 0.930 . S
H192 C200 0.929 . S
H193 C207 0.930 . S
H194 C171 0.931 . S
H195 C201 0.930 . S
H196 C234 0.930 . S
H197 C178 0.930 . S
H198 C233 0.931 . S
N199 Eu168 2.657 . S
N199 C200 1.334 . S
N199 C204 1.362 . S
C200 H192 0.929 . S
C200 N199 1.334 . S
C200 C203 1.413 . S
C201 H195 0.930 . S
C201 C202 1.392 . S
C201 C203 1.367 . S
C202 C201 1.392 . S
C202 C204 1.420 . S
C202 C234 1.423 . S
C203 H189 0.930 . S
C203 C200 1.413 . S
C203 C201 1.367 . S
C204 N199 1.362 . S
C204 C202 1.420 . S
C204 C208 1.429 . S
H205 C210 0.930 . S
N206 Eu168 2.609 . S
N206 C208 1.377 . S
N206 C209 1.321 . S
C207 H193 0.930 . S
C207 C209 1.400 . S
C207 C210 1.386 . S
C208 C204 1.429 . S
C208 N206 1.377 . S
C208 C211 1.411 . S
C209 H191 0.930 . S
C209 N206 1.321 . S
C209 C207 1.400 . S
C210 H205 0.930 . S
C210 C207 1.386 . S
C210 C211 1.395 . S
C211 C208 1.411 . S
C211 C210 1.395 . S
C211 C233 1.420 . S
O212 Eu168 2.558 . S
O212 C232 1.257 . S
O213 Eu168 2.612 . S
O213 Eu179 2.380 . S
O213 C224 1.276 . S
O214 Eu179 2.432 . S
O214 C231 1.264 . S
O215 Eu168 2.339 . S
O215 C231 1.254 . S
O216 Eu168 2.563 . S
O216 C224 1.235 . S
O217 Eu168 2.419 . S
O217 C232 1.249 . S
O218 Eu179 2.558 . S
O218 C243 1.257 . S
O219 Eu168 2.380 . S
O219 Eu179 2.612 . S
O219 C235 1.276 . S
O220 Eu168 2.432 . S
O220 C242 1.264 . S
O221 Eu179 2.339 . S
O221 C242 1.254 . S
O222 Eu179 2.563 . S
O222 C235 1.235 . S
O223 Eu179 2.419 . S
O223 C243 1.249 . S
C224 O213 1.276 . S
C224 O216 1.235 . S
C225 C227 1.393 . S
C225 C229 1.395 . S
C225 C232 1.492 . S
C226 C227 1.392 . S
C226 C228 1.386 . S
C227 C225 1.393 . S
C227 C226 1.392 . S
C227 H244 0.930 . S
C228 C226 1.386 . S
C228 C230 1.395 . S
C228 H245 0.930 . S
C229 C225 1.395 . S
C229 C230 1.379 . S
C229 H246 0.930 . S
C230 C228 1.395 . S
C230 C229 1.379 . S
C230 H247 0.930 . S
C231 O214 1.264 . S
C231 O215 1.254 . S
C232 Eu168 2.848 . S
C232 O212 1.257 . S
C232 O217 1.249 . S
C232 C225 1.492 . S
C233 H198 0.931 . S
C233 C211 1.420 . S
C233 C234 1.351 . S
C234 H196 0.930 . S
C234 C202 1.423 . S
C234 C233 1.351 . S
C235 O219 1.276 . S
C235 O222 1.235 . S
C236 C237 1.393 . S
C236 C240 1.395 . S
C236 C243 1.492 . S
C237 C236 1.393 . S
C237 C238 1.392 . S
C237 H248 0.930 . S
C238 C237 1.392 . S
C238 C239 1.386 . S
C239 C238 1.386 . S
C239 C241 1.395 . S
C239 H249 0.930 . S
C240 C236 1.395 . S
C240 C241 1.379 . S
C240 H250 0.930 . S
C241 C239 1.395 . S
C241 C240 1.379 . S
C241 H251 0.930 . S
C242 O220 1.264 . S
C242 O221 1.254 . S
C243 Eu179 2.848 . S
C243 O218 1.257 . S
C243 O223 1.249 . S
C243 C236 1.492 . S
H244 C227 0.930 . S
H245 C228 0.930 . S
H246 C229 0.930 . S
H247 C230 0.930 . S
H248 C237 0.930 . S
H249 C239 0.930 . S
H250 C240 0.930 . S
H251 C241 0.930 . S
Eu252 N283 2.657 . S
Eu252 N290 2.609 . S
Eu252 O296 2.558 . S
Eu252 O297 2.612 . S
Eu252 O299 2.339 . S
Eu252 O300 2.563 . S
Eu252 O301 2.419 . S
Eu252 O303 2.380 . S
Eu252 O304 2.432 . S
Eu252 C316 2.848 . S
C253 C256 1.429 . S
C253 C257 1.411 . S
C253 N260 1.377 . S
C254 C256 1.420 . S
C254 C258 1.423 . S
C254 C266 1.392 . S
C255 C257 1.420 . S
C255 C258 1.351 . S
C255 H278 0.931 . S
C256 C253 1.429 . S
C256 C254 1.420 . S
C256 N264 1.362 . S
C257 C253 1.411 . S
C257 C255 1.420 . S
C257 C262 1.395 . S
C258 C254 1.423 . S
C258 C255 1.351 . S
C258 H270 0.930 . S
C259 C261 1.400 . S
C259 C262 1.386 . S
C259 H271 0.930 . S
N260 C253 1.377 . S
N260 C261 1.321 . S
N260 Eu263 2.609 . S
C261 C259 1.400 . S
C261 N260 1.321 . S
C261 H268 0.930 . S
C262 C257 1.395 . S
C262 C259 1.386 . S
C262 H281 0.930 . S
Eu263 N260 2.609 . S
Eu263 N264 2.657 . S
Eu263 O297 2.380 . S
Eu263 O298 2.432 . S
Eu263 O302 2.558 . S
Eu263 O303 2.612 . S
Eu263 O305 2.339 . S
Eu263 O306 2.563 . S
Eu263 O307 2.419 . S
Eu263 C327 2.848 . S
N264 C256 1.362 . S
N264 Eu263 2.657 . S
N264 C265 1.334 . S
C265 N264 1.334 . S
C265 C267 1.413 . S
C265 H272 0.929 . S
C266 C254 1.392 . S
C266 C267 1.367 . S
C266 H274 0.930 . S
C267 C265 1.413 . S
C267 C266 1.367 . S
C267 H269 0.930 . S
H268 C261 0.930 . S
H269 C267 0.930 . S
H270 C258 0.930 . S
H271 C259 0.930 . S
H272 C265 0.929 . S
H273 C287 0.930 . S
H274 C266 0.930 . S
H275 C293 0.930 . S
H276 C284 0.929 . S
H277 C291 0.930 . S
H278 C255 0.931 . S
H279 C285 0.930 . S
H280 C318 0.930 . S
H281 C262 0.930 . S
H282 C317 0.931 . S
N283 Eu252 2.657 . S
N283 C284 1.334 . S
N283 C288 1.362 . S
C284 H276 0.929 . S
C284 N283 1.334 . S
C284 C287 1.413 . S
C285 H279 0.930 . S
C285 C286 1.392 . S
C285 C287 1.367 . S
C286 C285 1.392 . S
C286 C288 1.420 . S
C286 C318 1.423 . S
C287 H273 0.930 . S
C287 C284 1.413 . S
C287 C285 1.367 . S
C288 N283 1.362 . S
C288 C286 1.420 . S
C288 C292 1.429 . S
H289 C294 0.930 . S
N290 Eu252 2.609 . S
N290 C292 1.377 . S
N290 C293 1.321 . S
C291 H277 0.930 . S
C291 C293 1.400 . S
C291 C294 1.386 . S
C292 C288 1.429 . S
C292 N290 1.377 . S
C292 C295 1.411 . S
C293 H275 0.930 . S
C293 N290 1.321 . S
C293 C291 1.400 . S
C294 H289 0.930 . S
C294 C291 1.386 . S
C294 C295 1.395 . S
C295 C292 1.411 . S
C295 C294 1.395 . S
C295 C317 1.420 . S
O296 Eu252 2.558 . S
O296 C316 1.257 . S
O297 Eu252 2.612 . S
O297 Eu263 2.380 . S
O297 C308 1.276 . S
O298 Eu263 2.432 . S
O298 C315 1.264 . S
O299 Eu252 2.339 . S
O299 C315 1.254 . S
O300 Eu252 2.563 . S
O300 C308 1.235 . S
O301 Eu252 2.419 . S
O301 C316 1.249 . S
O302 Eu263 2.558 . S
O302 C327 1.257 . S
O303 Eu252 2.380 . S
O303 Eu263 2.612 . S
O303 C319 1.276 . S
O304 Eu252 2.432 . S
O304 C326 1.264 . S
O305 Eu263 2.339 . S
O305 C326 1.254 . S
O306 Eu263 2.563 . S
O306 C319 1.235 . S
O307 Eu263 2.419 . S
O307 C327 1.249 . S
C308 O297 1.276 . S
C308 O300 1.235 . S
C309 C311 1.393 . S
C309 C313 1.395 . S
C309 C316 1.492 . S
C310 C311 1.392 . S
C310 C312 1.386 . S
C311 C309 1.393 . S
C311 C310 1.392 . S
C311 H328 0.930 . S
C312 C310 1.386 . S
C312 C314 1.395 . S
C312 H329 0.930 . S
C313 C309 1.395 . S
C313 C314 1.379 . S
C313 H330 0.930 . S
C314 C312 1.395 . S
C314 C313 1.379 . S
C314 H331 0.930 . S
C315 O298 1.264 . S
C315 O299 1.254 . S
C316 Eu252 2.848 . S
C316 O296 1.257 . S
C316 O301 1.249 . S
C316 C309 1.492 . S
C317 H282 0.931 . S
C317 C295 1.420 . S
C317 C318 1.351 . S
C318 H280 0.930 . S
C318 C286 1.423 . S
C318 C317 1.351 . S
C319 O303 1.276 . S
C319 O306 1.235 . S
C320 C321 1.393 . S
C320 C324 1.395 . S
C320 C327 1.492 . S
C321 C320 1.393 . S
C321 C322 1.392 . S
C321 H332 0.930 . S
C322 C321 1.392 . S
C322 C323 1.386 . S
C323 C322 1.386 . S
C323 C325 1.395 . S
C323 H333 0.930 . S
C324 C320 1.395 . S
C324 C325 1.379 . S
C324 H334 0.930 . S
C325 C323 1.395 . S
C325 C324 1.379 . S
C325 H335 0.930 . S
C326 O304 1.264 . S
C326 O305 1.254 . S
C327 Eu263 2.848 . S
C327 O302 1.257 . S
C327 O307 1.249 . S
C327 C320 1.492 . S
H328 C311 0.930 . S
H329 C312 0.930 . S
H330 C313 0.930 . S
H331 C314 0.930 . S
H332 C321 0.930 . S
H333 C323 0.930 . S
H334 C324 0.930 . S
H335 C325 0.930 . S
Eu336 N367 2.657 . S
Eu336 N374 2.609 . S
Eu336 O380 2.558 . S
Eu336 O381 2.612 . S
Eu336 O383 2.339 . S
Eu336 O384 2.563 . S
Eu336 O385 2.419 . S
Eu336 O387 2.380 . S
Eu336 O388 2.432 . S
Eu336 C400 2.848 . S
C337 C340 1.429 . S
C337 C341 1.411 . S
C337 N344 1.377 . S
C338 C340 1.420 . S
C338 C342 1.423 . S
C338 C350 1.392 . S
C339 C341 1.420 . S
C339 C342 1.351 . S
C339 H362 0.931 . S
C340 C337 1.429 . S
C340 C338 1.420 . S
C340 N348 1.362 . S
C341 C337 1.411 . S
C341 C339 1.420 . S
C341 C346 1.395 . S
C342 C338 1.423 . S
C342 C339 1.351 . S
C342 H354 0.930 . S
C343 C345 1.400 . S
C343 C346 1.386 . S
C343 H355 0.930 . S
N344 C337 1.377 . S
N344 C345 1.321 . S
N344 Eu347 2.609 . S
C345 C343 1.400 . S
C345 N344 1.321 . S
C345 H352 0.930 . S
C346 C341 1.395 . S
C346 C343 1.386 . S
C346 H365 0.930 . S
Eu347 N344 2.609 . S
Eu347 N348 2.657 . S
Eu347 O381 2.380 . S
Eu347 O382 2.432 . S
Eu347 O386 2.558 . S
Eu347 O387 2.612 . S
Eu347 O389 2.339 . S
Eu347 O390 2.563 . S
Eu347 O391 2.419 . S
Eu347 C411 2.848 . S
N348 C340 1.362 . S
N348 Eu347 2.657 . S
N348 C349 1.334 . S
C349 N348 1.334 . S
C349 C351 1.413 . S
C349 H356 0.929 . S
C350 C338 1.392 . S
C350 C351 1.367 . S
C350 H358 0.930 . S
C351 C349 1.413 . S
C351 C350 1.367 . S
C351 H353 0.930 . S
H352 C345 0.930 . S
H353 C351 0.930 . S
H354 C342 0.930 . S
H355 C343 0.930 . S
H356 C349 0.929 . S
H357 C371 0.930 . S
H358 C350 0.930 . S
H359 C377 0.930 . S
H360 C368 0.929 . S
H361 C375 0.930 . S
H362 C339 0.931 . S
H363 C369 0.930 . S
H364 C402 0.930 . S
H365 C346 0.930 . S
H366 C401 0.931 . S
N367 Eu336 2.657 . S
N367 C368 1.334 . S
N367 C372 1.362 . S
C368 H360 0.929 . S
C368 N367 1.334 . S
C368 C371 1.413 . S
C369 H363 0.930 . S
C369 C370 1.392 . S
C369 C371 1.367 . S
C370 C369 1.392 . S
C370 C372 1.420 . S
C370 C402 1.423 . S
C371 H357 0.930 . S
C371 C368 1.413 . S
C371 C369 1.367 . S
C372 N367 1.362 . S
C372 C370 1.420 . S
C372 C376 1.429 . S
H373 C378 0.930 . S
N374 Eu336 2.609 . S
N374 C376 1.377 . S
N374 C377 1.321 . S
C375 H361 0.930 . S
C375 C377 1.400 . S
C375 C378 1.386 . S
C376 C372 1.429 . S
C376 N374 1.377 . S
C376 C379 1.411 . S
C377 H359 0.930 . S
C377 N374 1.321 . S
C377 C375 1.400 . S
C378 H373 0.930 . S
C378 C375 1.386 . S
C378 C379 1.395 . S
C379 C376 1.411 . S
C379 C378 1.395 . S
C379 C401 1.420 . S
O380 Eu336 2.558 . S
O380 C400 1.257 . S
O381 Eu336 2.612 . S
O381 Eu347 2.380 . S
O381 C392 1.276 . S
O382 Eu347 2.432 . S
O382 C399 1.264 . S
O383 Eu336 2.339 . S
O383 C399 1.254 . S
O384 Eu336 2.563 . S
O384 C392 1.235 . S
O385 Eu336 2.419 . S
O385 C400 1.249 . S
O386 Eu347 2.558 . S
O386 C411 1.257 . S
O387 Eu336 2.380 . S
O387 Eu347 2.612 . S
O387 C403 1.276 . S
O388 Eu336 2.432 . S
O388 C410 1.264 . S
O389 Eu347 2.339 . S
O389 C410 1.254 . S
O390 Eu347 2.563 . S
O390 C403 1.235 . S
O391 Eu347 2.419 . S
O391 C411 1.249 . S
C392 O381 1.276 . S
C392 O384 1.235 . S
C393 C395 1.393 . S
C393 C397 1.395 . S
C393 C400 1.492 . S
C394 C395 1.392 . S
C394 C396 1.386 . S
C395 C393 1.393 . S
C395 C394 1.392 . S
C395 H412 0.930 . S
C396 C394 1.386 . S
C396 C398 1.395 . S
C396 H413 0.930 . S
C397 C393 1.395 . S
C397 C398 1.379 . S
C397 H414 0.930 . S
C398 C396 1.395 . S
C398 C397 1.379 . S
C398 H415 0.930 . S
C399 O382 1.264 . S
C399 O383 1.254 . S
C400 Eu336 2.848 . S
C400 O380 1.257 . S
C400 O385 1.249 . S
C400 C393 1.492 . S
C401 H366 0.931 . S
C401 C379 1.420 . S
C401 C402 1.351 . S
C402 H364 0.930 . S
C402 C370 1.423 . S
C402 C401 1.351 . S
C403 O387 1.276 . S
C403 O390 1.235 . S
C404 C405 1.393 . S
C404 C408 1.395 . S
C404 C411 1.492 . S
C405 C404 1.393 . S
C405 C406 1.392 . S
C405 H416 0.930 . S
C406 C405 1.392 . S
C406 C407 1.386 . S
C407 C406 1.386 . S
C407 C409 1.395 . S
C407 H417 0.930 . S
C408 C404 1.395 . S
C408 C409 1.379 . S
C408 H418 0.930 . S
C409 C407 1.395 . S
C409 C408 1.379 . S
C409 H419 0.930 . S
C410 O388 1.264 . S
C410 O389 1.254 . S
C411 Eu347 2.848 . S
C411 O386 1.257 . S
C411 O391 1.249 . S
C411 C404 1.492 . S
H412 C395 0.930 . S
H413 C396 0.930 . S
H414 C397 0.930 . S
H415 C398 0.930 . S
H416 C405 0.930 . S
H417 C407 0.930 . S
H418 C408 0.930 . S
H419 C409 0.930 . S
Eu420 N451 2.657 . S
Eu420 N458 2.609 . S
Eu420 O464 2.558 . S
Eu420 O465 2.612 . S
Eu420 O467 2.339 . S
Eu420 O468 2.563 . S
Eu420 O469 2.419 . S
Eu420 O471 2.380 . S
Eu420 O472 2.432 . S
Eu420 C484 2.848 . S
C421 C424 1.429 . S
C421 C425 1.411 . S
C421 N428 1.377 . S
C422 C424 1.420 . S
C422 C426 1.423 . S
C422 C434 1.392 . S
C423 C425 1.420 . S
C423 C426 1.351 . S
C423 H446 0.931 . S
C424 C421 1.429 . S
C424 C422 1.420 . S
C424 N432 1.362 . S
C425 C421 1.411 . S
C425 C423 1.420 . S
C425 C430 1.395 . S
C426 C422 1.423 . S
C426 C423 1.351 . S
C426 H438 0.930 . S
C427 C429 1.400 . S
C427 C430 1.386 . S
C427 H439 0.930 . S
N428 C421 1.377 . S
N428 C429 1.321 . S
N428 Eu431 2.609 . S
C429 C427 1.400 . S
C429 N428 1.321 . S
C429 H436 0.930 . S
C430 C425 1.395 . S
C430 C427 1.386 . S
C430 H449 0.930 . S
Eu431 N428 2.609 . S
Eu431 N432 2.657 . S
Eu431 O465 2.380 . S
Eu431 O466 2.432 . S
Eu431 O470 2.558 . S
Eu431 O471 2.612 . S
Eu431 O473 2.339 . S
Eu431 O474 2.563 . S
Eu431 O475 2.419 . S
Eu431 C495 2.848 . S
N432 C424 1.362 . S
N432 Eu431 2.657 . S
N432 C433 1.334 . S
C433 N432 1.334 . S
C433 C435 1.413 . S
C433 H440 0.929 . S
C434 C422 1.392 . S
C434 C435 1.367 . S
C434 H442 0.930 . S
C435 C433 1.413 . S
C435 C434 1.367 . S
C435 H437 0.930 . S
H436 C429 0.930 . S
H437 C435 0.930 . S
H438 C426 0.930 . S
H439 C427 0.930 . S
H440 C433 0.929 . S
H441 C455 0.930 . S
H442 C434 0.930 . S
H443 C461 0.930 . S
H444 C452 0.929 . S
H445 C459 0.930 . S
H446 C423 0.931 . S
H447 C453 0.930 . S
H448 C486 0.930 . S
H449 C430 0.930 . S
H450 C485 0.931 . S
N451 Eu420 2.657 . S
N451 C452 1.334 . S
N451 C456 1.362 . S
C452 H444 0.929 . S
C452 N451 1.334 . S
C452 C455 1.413 . S
C453 H447 0.930 . S
C453 C454 1.392 . S
C453 C455 1.367 . S
C454 C453 1.392 . S
C454 C456 1.420 . S
C454 C486 1.423 . S
C455 H441 0.930 . S
C455 C452 1.413 . S
C455 C453 1.367 . S
C456 N451 1.362 . S
C456 C454 1.420 . S
C456 C460 1.429 . S
H457 C462 0.930 . S
N458 Eu420 2.609 . S
N458 C460 1.377 . S
N458 C461 1.321 . S
C459 H445 0.930 . S
C459 C461 1.400 . S
C459 C462 1.386 . S
C460 C456 1.429 . S
C460 N458 1.377 . S
C460 C463 1.411 . S
C461 H443 0.930 . S
C461 N458 1.321 . S
C461 C459 1.400 . S
C462 H457 0.930 . S
C462 C459 1.386 . S
C462 C463 1.395 . S
C463 C460 1.411 . S
C463 C462 1.395 . S
C463 C485 1.420 . S
O464 Eu420 2.558 . S
O464 C484 1.257 . S
O465 Eu420 2.612 . S
O465 Eu431 2.380 . S
O465 C476 1.276 . S
O466 Eu431 2.432 . S
O466 C483 1.264 . S
O467 Eu420 2.339 . S
O467 C483 1.254 . S
O468 Eu420 2.563 . S
O468 C476 1.235 . S
O469 Eu420 2.419 . S
O469 C484 1.249 . S
O470 Eu431 2.558 . S
O470 C495 1.257 . S
O471 Eu420 2.380 . S
O471 Eu431 2.612 . S
O471 C487 1.276 . S
O472 Eu420 2.432 . S
O472 C494 1.264 . S
O473 Eu431 2.339 . S
O473 C494 1.254 . S
O474 Eu431 2.563 . S
O474 C487 1.235 . S
O475 Eu431 2.419 . S
O475 C495 1.249 . S
C476 O465 1.276 . S
C476 O468 1.235 . S
C477 C479 1.393 . S
C477 C481 1.395 . S
C477 C484 1.492 . S
C478 C479 1.392 . S
C478 C480 1.386 . S
C479 C477 1.393 . S
C479 C478 1.392 . S
C479 H496 0.930 . S
C480 C478 1.386 . S
C480 C482 1.395 . S
C480 H497 0.930 . S
C481 C477 1.395 . S
C481 C482 1.379 . S
C481 H498 0.930 . S
C482 C480 1.395 . S
C482 C481 1.379 . S
C482 H499 0.930 . S
C483 O466 1.264 . S
C483 O467 1.254 . S
C484 Eu420 2.848 . S
C484 O464 1.257 . S
C484 O469 1.249 . S
C484 C477 1.492 . S
C485 H450 0.931 . S
C485 C463 1.420 . S
C485 C486 1.351 . S
C486 H448 0.930 . S
C486 C454 1.423 . S
C486 C485 1.351 . S
C487 O471 1.276 . S
C487 O474 1.235 . S
C488 C489 1.393 . S
C488 C492 1.395 . S
C488 C495 1.492 . S
C489 C488 1.393 . S
C489 C490 1.392 . S
C489 H500 0.930 . S
C490 C489 1.392 . S
C490 C491 1.386 . S
C491 C490 1.386 . S
C491 C493 1.395 . S
C491 H501 0.930 . S
C492 C488 1.395 . S
C492 C493 1.379 . S
C492 H502 0.930 . S
C493 C491 1.395 . S
C493 C492 1.379 . S
C493 H503 0.930 . S
C494 O472 1.264 . S
C494 O473 1.254 . S
C495 Eu431 2.848 . S
C495 O470 1.257 . S
C495 O475 1.249 . S
C495 C488 1.492 . S
H496 C479 0.930 . S
H497 C480 0.930 . S
H498 C481 0.930 . S
H499 C482 0.930 . S
H500 C489 0.930 . S
H501 C491 0.930 . S
H502 C492 0.930 . S
H503 C493 0.930 . S
Eu504 N535 2.657 . S
Eu504 N542 2.609 . S
Eu504 O548 2.558 . S
Eu504 O549 2.612 . S
Eu504 O551 2.339 . S
Eu504 O552 2.563 . S
Eu504 O553 2.419 . S
Eu504 O555 2.380 . S
Eu504 O556 2.432 . S
Eu504 C568 2.848 . S
C505 C508 1.429 . S
C505 C509 1.411 . S
C505 N512 1.377 . S
C506 C508 1.420 . S
C506 C510 1.423 . S
C506 C518 1.392 . S
C507 C509 1.420 . S
C507 C510 1.351 . S
C507 H530 0.931 . S
C508 C505 1.429 . S
C508 C506 1.420 . S
C508 N516 1.362 . S
C509 C505 1.411 . S
C509 C507 1.420 . S
C509 C514 1.395 . S
C510 C506 1.423 . S
C510 C507 1.351 . S
C510 H522 0.930 . S
C511 C513 1.400 . S
C511 C514 1.386 . S
C511 H523 0.930 . S
N512 C505 1.377 . S
N512 C513 1.321 . S
N512 Eu515 2.609 . S
C513 C511 1.400 . S
C513 N512 1.321 . S
C513 H520 0.930 . S
C514 C509 1.395 . S
C514 C511 1.386 . S
C514 H533 0.930 . S
Eu515 N512 2.609 . S
Eu515 N516 2.657 . S
Eu515 O549 2.380 . S
Eu515 O550 2.432 . S
Eu515 O554 2.558 . S
Eu515 O555 2.612 . S
Eu515 O557 2.339 . S
Eu515 O558 2.563 . S
Eu515 O559 2.419 . S
Eu515 C579 2.848 . S
N516 C508 1.362 . S
N516 Eu515 2.657 . S
N516 C517 1.334 . S
C517 N516 1.334 . S
C517 C519 1.413 . S
C517 H524 0.929 . S
C518 C506 1.392 . S
C518 C519 1.367 . S
C518 H526 0.930 . S
C519 C517 1.413 . S
C519 C518 1.367 . S
C519 H521 0.930 . S
H520 C513 0.930 . S
H521 C519 0.930 . S
H522 C510 0.930 . S
H523 C511 0.930 . S
H524 C517 0.929 . S
H525 C539 0.930 . S
H526 C518 0.930 . S
H527 C545 0.930 . S
H528 C536 0.929 . S
H529 C543 0.930 . S
H530 C507 0.931 . S
H531 C537 0.930 . S
H532 C570 0.930 . S
H533 C514 0.930 . S
H534 C569 0.931 . S
N535 Eu504 2.657 . S
N535 C536 1.334 . S
N535 C540 1.362 . S
C536 H528 0.929 . S
C536 N535 1.334 . S
C536 C539 1.413 . S
C537 H531 0.930 . S
C537 C538 1.392 . S
C537 C539 1.367 . S
C538 C537 1.392 . S
C538 C540 1.420 . S
C538 C570 1.423 . S
C539 H525 0.930 . S
C539 C536 1.413 . S
C539 C537 1.367 . S
C540 N535 1.362 . S
C540 C538 1.420 . S
C540 C544 1.429 . S
H541 C546 0.930 . S
N542 Eu504 2.609 . S
N542 C544 1.377 . S
N542 C545 1.321 . S
C543 H529 0.930 . S
C543 C545 1.400 . S
C543 C546 1.386 . S
C544 C540 1.429 . S
C544 N542 1.377 . S
C544 C547 1.411 . S
C545 H527 0.930 . S
C545 N542 1.321 . S
C545 C543 1.400 . S
C546 H541 0.930 . S
C546 C543 1.386 . S
C546 C547 1.395 . S
C547 C544 1.411 . S
C547 C546 1.395 . S
C547 C569 1.420 . S
O548 Eu504 2.558 . S
O548 C568 1.257 . S
O549 Eu504 2.612 . S
O549 Eu515 2.380 . S
O549 C560 1.276 . S
O550 Eu515 2.432 . S
O550 C567 1.264 . S
O551 Eu504 2.339 . S
O551 C567 1.254 . S
O552 Eu504 2.563 . S
O552 C560 1.235 . S
O553 Eu504 2.419 . S
O553 C568 1.249 . S
O554 Eu515 2.558 . S
O554 C579 1.257 . S
O555 Eu504 2.380 . S
O555 Eu515 2.612 . S
O555 C571 1.276 . S
O556 Eu504 2.432 . S
O556 C578 1.264 . S
O557 Eu515 2.339 . S
O557 C578 1.254 . S
O558 Eu515 2.563 . S
O558 C571 1.235 . S
O559 Eu515 2.419 . S
O559 C579 1.249 . S
C560 O549 1.276 . S
C560 O552 1.235 . S
C561 C563 1.393 . S
C561 C565 1.395 . S
C561 C568 1.492 . S
C562 C563 1.392 . S
C562 C564 1.386 . S
C563 C561 1.393 . S
C563 C562 1.392 . S
C563 H580 0.930 . S
C564 C562 1.386 . S
C564 C566 1.395 . S
C564 H581 0.930 . S
C565 C561 1.395 . S
C565 C566 1.379 . S
C565 H582 0.930 . S
C566 C564 1.395 . S
C566 C565 1.379 . S
C566 H583 0.930 . S
C567 O550 1.264 . S
C567 O551 1.254 . S
C568 Eu504 2.848 . S
C568 O548 1.257 . S
C568 O553 1.249 . S
C568 C561 1.492 . S
C569 H534 0.931 . S
C569 C547 1.420 . S
C569 C570 1.351 . S
C570 H532 0.930 . S
C570 C538 1.423 . S
C570 C569 1.351 . S
C571 O555 1.276 . S
C571 O558 1.235 . S
C572 C573 1.393 . S
C572 C576 1.395 . S
C572 C579 1.492 . S
C573 C572 1.393 . S
C573 C574 1.392 . S
C573 H584 0.930 . S
C574 C573 1.392 . S
C574 C575 1.386 . S
C575 C574 1.386 . S
C575 C577 1.395 . S
C575 H585 0.930 . S
C576 C572 1.395 . S
C576 C577 1.379 . S
C576 H586 0.930 . S
C577 C575 1.395 . S
C577 C576 1.379 . S
C577 H587 0.930 . S
C578 O556 1.264 . S
C578 O557 1.254 . S
C579 Eu515 2.848 . S
C579 O554 1.257 . S
C579 O559 1.249 . S
C579 C572 1.492 . S
H580 C563 0.930 . S
H581 C564 0.930 . S
H582 C565 0.930 . S
H583 C566 0.930 . S
H584 C573 0.930 . S
H585 C575 0.930 . S
H586 C576 0.930 . S
H587 C577 0.930 . S
Eu588 N619 2.657 . S
Eu588 N626 2.609 . S
Eu588 O632 2.558 . S
Eu588 O633 2.612 . S
Eu588 O635 2.339 . S
Eu588 O636 2.563 . S
Eu588 O637 2.419 . S
Eu588 O639 2.380 . S
Eu588 O640 2.432 . S
Eu588 C652 2.848 . S
C589 C592 1.429 . S
C589 C593 1.411 . S
C589 N596 1.377 . S
C590 C592 1.420 . S
C590 C594 1.423 . S
C590 C602 1.392 . S
C591 C593 1.420 . S
C591 C594 1.351 . S
C591 H614 0.931 . S
C592 C589 1.429 . S
C592 C590 1.420 . S
C592 N600 1.362 . S
C593 C589 1.411 . S
C593 C591 1.420 . S
C593 C598 1.395 . S
C594 C590 1.423 . S
C594 C591 1.351 . S
C594 H606 0.930 . S
C595 C597 1.400 . S
C595 C598 1.386 . S
C595 H607 0.930 . S
N596 C589 1.377 . S
N596 C597 1.321 . S
N596 Eu599 2.609 . S
C597 C595 1.400 . S
C597 N596 1.321 . S
C597 H604 0.930 . S
C598 C593 1.395 . S
C598 C595 1.386 . S
C598 H617 0.930 . S
Eu599 N596 2.609 . S
Eu599 N600 2.657 . S
Eu599 O633 2.380 . S
Eu599 O634 2.432 . S
Eu599 O638 2.558 . S
Eu599 O639 2.612 . S
Eu599 O641 2.339 . S
Eu599 O642 2.563 . S
Eu599 O643 2.419 . S
Eu599 C663 2.848 . S
N600 C592 1.362 . S
N600 Eu599 2.657 . S
N600 C601 1.334 . S
C601 N600 1.334 . S
C601 C603 1.413 . S
C601 H608 0.929 . S
C602 C590 1.392 . S
C602 C603 1.367 . S
C602 H610 0.930 . S
C603 C601 1.413 . S
C603 C602 1.367 . S
C603 H605 0.930 . S
H604 C597 0.930 . S
H605 C603 0.930 . S
H606 C594 0.930 . S
H607 C595 0.930 . S
H608 C601 0.929 . S
H609 C623 0.930 . S
H610 C602 0.930 . S
H611 C629 0.930 . S
H612 C620 0.929 . S
H613 C627 0.930 . S
H614 C591 0.931 . S
H615 C621 0.930 . S
H616 C654 0.930 . S
H617 C598 0.930 . S
H618 C653 0.931 . S
N619 Eu588 2.657 . S
N619 C620 1.334 . S
N619 C624 1.362 . S
C620 H612 0.929 . S
C620 N619 1.334 . S
C620 C623 1.413 . S
C621 H615 0.930 . S
C621 C622 1.392 . S
C621 C623 1.367 . S
C622 C621 1.392 . S
C622 C624 1.420 . S
C622 C654 1.423 . S
C623 H609 0.930 . S
C623 C620 1.413 . S
C623 C621 1.367 . S
C624 N619 1.362 . S
C624 C622 1.420 . S
C624 C628 1.429 . S
H625 C630 0.930 . S
N626 Eu588 2.609 . S
N626 C628 1.377 . S
N626 C629 1.321 . S
C627 H613 0.930 . S
C627 C629 1.400 . S
C627 C630 1.386 . S
C628 C624 1.429 . S
C628 N626 1.377 . S
C628 C631 1.411 . S
C629 H611 0.930 . S
C629 N626 1.321 . S
C629 C627 1.400 . S
C630 H625 0.930 . S
C630 C627 1.386 . S
C630 C631 1.395 . S
C631 C628 1.411 . S
C631 C630 1.395 . S
C631 C653 1.420 . S
O632 Eu588 2.558 . S
O632 C652 1.257 . S
O633 Eu588 2.612 . S
O633 Eu599 2.380 . S
O633 C644 1.276 . S
O634 Eu599 2.432 . S
O634 C651 1.264 . S
O635 Eu588 2.339 . S
O635 C651 1.254 . S
O636 Eu588 2.563 . S
O636 C644 1.235 . S
O637 Eu588 2.419 . S
O637 C652 1.249 . S
O638 Eu599 2.558 . S
O638 C663 1.257 . S
O639 Eu588 2.380 . S
O639 Eu599 2.612 . S
O639 C655 1.276 . S
O640 Eu588 2.432 . S
O640 C662 1.264 . S
O641 Eu599 2.339 . S
O641 C662 1.254 . S
O642 Eu599 2.563 . S
O642 C655 1.235 . S
O643 Eu599 2.419 . S
O643 C663 1.249 . S
C644 O633 1.276 . S
C644 O636 1.235 . S
C645 C647 1.393 . S
C645 C649 1.395 . S
C645 C652 1.492 . S
C646 C647 1.392 . S
C646 C648 1.386 . S
C647 C645 1.393 . S
C647 C646 1.392 . S
C647 H664 0.930 . S
C648 C646 1.386 . S
C648 C650 1.395 . S
C648 H665 0.930 . S
C649 C645 1.395 . S
C649 C650 1.379 . S
C649 H666 0.930 . S
C650 C648 1.395 . S
C650 C649 1.379 . S
C650 H667 0.930 . S
C651 O634 1.264 . S
C651 O635 1.254 . S
C652 Eu588 2.848 . S
C652 O632 1.257 . S
C652 O637 1.249 . S
C652 C645 1.492 . S
C653 H618 0.931 . S
C653 C631 1.420 . S
C653 C654 1.351 . S
C654 H616 0.930 . S
C654 C622 1.423 . S
C654 C653 1.351 . S
C655 O639 1.276 . S
C655 O642 1.235 . S
C656 C657 1.393 . S
C656 C660 1.395 . S
C656 C663 1.492 . S
C657 C656 1.393 . S
C657 C658 1.392 . S
C657 H668 0.930 . S
C658 C657 1.392 . S
C658 C659 1.386 . S
C659 C658 1.386 . S
C659 C661 1.395 . S
C659 H669 0.930 . S
C660 C656 1.395 . S
C660 C661 1.379 . S
C660 H670 0.930 . S
C661 C659 1.395 . S
C661 C660 1.379 . S
C661 H671 0.930 . S
C662 O640 1.264 . S
C662 O641 1.254 . S
C663 Eu599 2.848 . S
C663 O638 1.257 . S
C663 O643 1.249 . S
C663 C656 1.492 . S
H664 C647 0.930 . S
H665 C648 0.930 . S
H666 C649 0.930 . S
H667 C650 0.930 . S
H668 C657 0.930 . S
H669 C659 0.930 . S
H670 C660 0.930 . S
H671 C661 0.930 . S
Co672 O675 2.042 . S
Co672 O682 2.264 . S
Co672 O701 2.286 . S
Co672 O702 2.069 . S
Co672 O704 2.015 1_455 S
Co673 O675 2.122 . S
Co673 O681 2.073 . S
Co673 O682 2.327 . S
Co673 O683 1.976 1_455 S
Co674 O675 2.083 1_545 S
Co674 O677 2.091 1_455 S
Co674 O684 2.108 1_445 S
Co674 O685 2.148 . S
Co674 O689 2.114 . S
Co674 O703 2.139 1_445 S
O675 Co672 2.042 . S
O675 Co673 2.122 . S
O675 Co674 2.083 1_565 S
O675 H676 0.980 . S
H676 O675 0.980 . S
O677 Co674 2.091 1_655 S
O677 Co678 2.042 . S
O677 Co679 2.122 . S
O677 H680 0.980 . S
Co678 O677 2.042 . S
Co678 O686 2.286 . S
Co678 O687 2.069 . S
Co678 O688 2.015 1_655 S
Co678 O691 2.264 . S
Co679 O677 2.122 . S
Co679 O690 1.976 1_655 S
Co679 O691 2.327 . S
Co679 O692 2.073 . S
H680 O677 0.980 . S
O681 Co673 2.073 . S
O681 C696 1.245 . S
O682 Co672 2.264 . S
O682 Co673 2.327 . S
O682 C696 1.257 . S
O683 Co673 1.976 1_655 S
O683 C695 1.251 . S
O684 Co674 2.108 1_665 S
O684 C695 1.274 . S
O685 Co674 2.148 . S
O685 C698 1.246 . S
O686 Co678 2.286 . S
O686 C697 1.259 . S
O687 Co678 2.069 . S
O687 C697 1.289 . S
O688 Co678 2.015 1_455 S
O688 C698 1.257 . S
O689 Co674 2.114 . S
O689 C699 1.274 . S
O690 Co679 1.976 1_455 S
O690 C699 1.251 . S
O691 Co678 2.264 . S
O691 Co679 2.327 . S
O691 C700 1.257 . S
O692 Co679 2.073 . S
O692 C700 1.245 . S
C693 O701 1.259 . S
C693 O702 1.289 . S
C694 O703 1.246 . S
C694 O704 1.257 . S
C695 O683 1.251 . S
C695 O684 1.274 . S
C696 O681 1.245 . S
C696 O682 1.257 . S
C697 O686 1.259 . S
C697 O687 1.289 . S
C698 O685 1.246 . S
C698 O688 1.257 . S
C699 O689 1.274 . S
C699 O690 1.251 . S
C700 O691 1.257 . S
C700 O692 1.245 . S
O701 Co672 2.286 . S
O701 C693 1.259 . S
O702 Co672 2.069 . S
O702 C693 1.289 . S
O703 Co674 2.139 1_665 S
O703 C694 1.246 . S
O704 Co672 2.015 1_655 S
O704 C694 1.257 . S
Co705 O708 2.042 1_556 S
Co705 O715 2.264 1_556 S
Co705 O734 2.286 . S
Co705 O735 2.069 . S
Co705 O737 2.015 . S
Co706 O708 2.122 . S
Co706 O714 2.073 . S
Co706 O715 2.327 . S
Co706 O716 1.976 . S
Co707 O708 2.081 1_545 S
Co707 O710 2.093 1_554 S
Co707 O717 2.110 1_545 S
Co707 O718 2.147 . S
Co707 O722 2.113 1_554 S
Co707 O736 2.140 1_544 S
O708 Co705 2.042 1_554 S
O708 Co706 2.122 . S
O708 Co707 2.081 1_565 S
O708 H709 0.980 . S
H709 O708 0.980 . S
O710 Co707 2.093 1_556 S
O710 Co711 2.042 1_556 S
O710 Co712 2.122 . S
O710 H713 0.980 . S
Co711 O710 2.042 1_554 S
Co711 O719 2.286 . S
Co711 O720 2.069 . S
Co711 O721 2.015 . S
Co711 O724 2.264 1_554 S
Co712 O710 2.122 . S
Co712 O723 1.976 . S
Co712 O724 2.327 . S
Co712 O725 2.073 . S
H713 O710 0.980 . S
O714 Co706 2.073 . S
O714 C729 1.245 . S
O715 Co705 2.264 1_554 S
O715 Co706 2.327 . S
O715 C729 1.257 . S
O716 Co706 1.976 . S
O716 C728 1.251 . S
O717 Co707 2.110 1_565 S
O717 C728 1.274 . S
O718 Co707 2.147 . S
O718 C731 1.246 . S
O719 Co711 2.286 . S
O719 C730 1.259 . S
O720 Co711 2.069 . S
O720 C730 1.289 . S
O721 Co711 2.015 . S
O721 C731 1.257 . S
O722 Co707 2.113 1_556 S
O722 C732 1.274 . S
O723 Co712 1.976 . S
O723 C732 1.251 . S
O724 Co711 2.264 1_556 S
O724 Co712 2.327 . S
O724 C733 1.257 . S
O725 Co712 2.073 . S
O725 C733 1.245 . S
C726 O734 1.259 . S
C726 O735 1.289 . S
C727 O736 1.246 . S
C727 O737 1.257 . S
C728 O716 1.251 . S
C728 O717 1.274 . S
C729 O714 1.245 . S
C729 O715 1.257 . S
C730 O719 1.259 . S
C730 O720 1.289 . S
C731 O718 1.246 . S
C731 O721 1.257 . S
C732 O722 1.274 . S
C732 O723 1.251 . S
C733 O724 1.257 . S
C733 O725 1.245 . S
O734 Co705 2.286 . S
O734 C726 1.259 . S
O735 Co705 2.069 . S
O735 C726 1.289 . S
O736 Co707 2.140 1_566 S
O736 C727 1.246 . S
O737 Co705 2.015 . S
O737 C727 1.257 . S
Co738 O741 2.042 1_556 S
Co738 O748 2.264 1_556 S
Co738 O767 2.286 . S
Co738 O768 2.069 . S
Co738 O770 2.015 1_455 S
Co739 O741 2.122 . S
Co739 O747 2.073 . S
Co739 O748 2.327 . S
Co739 O749 1.976 1_455 S
Co740 O741 2.089 . S
Co740 O743 2.085 1_454 S
Co740 O750 2.110 1_455 S
Co740 O751 2.144 . S
Co740 O755 2.113 1_554 S
Co740 O769 2.143 1_454 S
O741 Co738 2.042 1_554 S
O741 Co739 2.122 . S
O741 Co740 2.089 . S
O741 H742 0.980 . S
H742 O741 0.980 . S
O743 Co740 2.085 1_656 S
O743 Co744 2.042 1_556 S
O743 Co745 2.122 . S
O743 H746 0.980 . S
Co744 O743 2.042 1_554 S
Co744 O752 2.286 . S
Co744 O753 2.069 . S
Co744 O754 2.015 1_655 S
Co744 O757 2.264 1_554 S
Co745 O743 2.122 . S
Co745 O756 1.976 1_655 S
Co745 O757 2.327 . S
Co745 O758 2.073 . S
H746 O743 0.980 . S
O747 Co739 2.073 . S
O747 C762 1.245 . S
O748 Co738 2.264 1_554 S
O748 Co739 2.327 . S
O748 C762 1.257 . S
O749 Co739 1.976 1_655 S
O749 C761 1.251 . S
O750 Co740 2.110 1_655 S
O750 C761 1.274 . S
O751 Co740 2.144 . S
O751 C764 1.246 . S
O752 Co744 2.286 . S
O752 C763 1.259 . S
O753 Co744 2.069 . S
O753 C763 1.289 . S
O754 Co744 2.015 1_455 S
O754 C764 1.257 . S
O755 Co740 2.113 1_556 S
O755 C765 1.274 . S
O756 Co745 1.976 1_455 S
O756 C765 1.251 . S
O757 Co744 2.264 1_556 S
O757 Co745 2.327 . S
O757 C766 1.257 . S
O758 Co745 2.073 . S
O758 C766 1.245 . S
C759 O767 1.259 . S
C759 O768 1.289 . S
C760 O769 1.246 . S
C760 O770 1.257 . S
C761 O749 1.251 . S
C761 O750 1.274 . S
C762 O747 1.245 . S
C762 O748 1.257 . S
C763 O752 1.259 . S
C763 O753 1.289 . S
C764 O751 1.246 . S
C764 O754 1.257 . S
C765 O755 1.274 . S
C765 O756 1.251 . S
C766 O757 1.257 . S
C766 O758 1.245 . S
O767 Co738 2.286 . S
O767 C759 1.259 . S
O768 Co738 2.069 . S
O768 C759 1.289 . S
O769 Co740 2.143 1_656 S
O769 C760 1.246 . S
O770 Co738 2.015 1_655 S
O770 C760 1.257 . S
Co771 O774 2.042 1_556 S
Co771 O781 2.264 1_556 S
Co771 O800 2.286 . S
Co771 O801 2.069 . S
Co771 O803 2.015 . S
Co772 O774 2.122 . S
Co772 O780 2.073 . S
Co772 O781 2.327 . S
Co772 O782 1.976 . S
Co773 O774 2.087 . S
Co773 O776 2.087 1_554 S
Co773 O783 2.111 . S
Co773 O784 2.143 . S
Co773 O788 2.111 1_554 S
Co773 O802 2.143 1_554 S
O774 Co771 2.042 1_554 S
O774 Co772 2.122 . S
O774 Co773 2.087 . S
O774 H775 0.980 . S
H775 O774 0.980 . S
O776 Co773 2.087 1_556 S
O776 Co777 2.042 1_556 S
O776 Co778 2.122 . S
O776 H779 0.980 . S
Co777 O776 2.042 1_554 S
Co777 O785 2.286 . S
Co777 O786 2.069 . S
Co777 O787 2.015 . S
Co777 O790 2.264 1_554 S
Co778 O776 2.122 . S
Co778 O789 1.976 . S
Co778 O790 2.327 . S
Co778 O791 2.073 . S
H779 O776 0.980 . S
O780 Co772 2.073 . S
O780 C795 1.245 . S
O781 Co771 2.264 1_554 S
O781 Co772 2.327 . S
O781 C795 1.257 . S
O782 Co772 1.976 . S
O782 C794 1.251 . S
O783 Co773 2.111 . S
O783 C794 1.274 . S
O784 Co773 2.143 . S
O784 C797 1.246 . S
O785 Co777 2.286 . S
O785 C796 1.259 . S
O786 Co777 2.069 . S
O786 C796 1.289 . S
O787 Co777 2.015 . S
O787 C797 1.257 . S
O788 Co773 2.111 1_556 S
O788 C798 1.274 . S
O789 Co778 1.976 . S
O789 C798 1.251 . S
O790 Co777 2.264 1_556 S
O790 Co778 2.327 . S
O790 C799 1.257 . S
O791 Co778 2.073 . S
O791 C799 1.245 . S
C792 O800 1.259 . S
C792 O801 1.289 . S
C793 O802 1.246 . S
C793 O803 1.257 . S
C794 O782 1.251 . S
C794 O783 1.274 . S
C795 O780 1.245 . S
C795 O781 1.257 . S
C796 O785 1.259 . S
C796 O786 1.289 . S
C797 O784 1.246 . S
C797 O787 1.257 . S
C798 O788 1.274 . S
C798 O789 1.251 . S
C799 O790 1.257 . S
C799 O791 1.245 . S
O800 Co771 2.286 . S
O800 C792 1.259 . S
O801 Co771 2.069 . S
O801 C792 1.289 . S
O802 Co773 2.143 1_556 S
O802 C793 1.246 . S
O803 Co771 2.015 . S
O803 C793 1.257 . S
Co804 O807 2.042 . S
Co804 O814 2.264 . S
Co804 O833 2.286 . S
Co804 O834 2.069 . S
Co804 O836 2.015 . S
Co805 O807 2.122 . S
Co805 O813 2.073 . S
Co805 O814 2.327 . S
Co805 O815 1.976 . S
Co806 O807 2.089 . S
Co806 O809 2.085 1_455 S
Co806 O816 2.112 . S
Co806 O817 2.142 1_455 S
Co806 O821 2.111 1_455 S
Co806 O835 2.145 . S
O807 Co804 2.042 . S
O807 Co805 2.122 . S
O807 Co806 2.089 . S
O807 H808 0.980 . S
H808 O807 0.980 . S
O809 Co806 2.085 1_655 S
O809 Co810 2.042 . S
O809 Co811 2.122 . S
O809 H812 0.980 . S
Co810 O809 2.042 . S
Co810 O818 2.286 . S
Co810 O819 2.069 . S
Co810 O820 2.015 . S
Co810 O823 2.264 . S
Co811 O809 2.122 . S
Co811 O822 1.976 . S
Co811 O823 2.327 . S
Co811 O824 2.073 . S
H812 O809 0.980 . S
O813 Co805 2.073 . S
O813 C828 1.245 . S
O814 Co804 2.264 . S
O814 Co805 2.327 . S
O814 C828 1.257 . S
O815 Co805 1.976 . S
O815 C827 1.251 . S
O816 Co806 2.112 . S
O816 C827 1.274 . S
O817 Co806 2.142 1_655 S
O817 C830 1.246 . S
O818 Co810 2.286 . S
O818 C829 1.259 . S
O819 Co810 2.069 . S
O819 C829 1.289 . S
O820 Co810 2.015 . S
O820 C830 1.257 . S
O821 Co806 2.111 1_655 S
O821 C831 1.274 . S
O822 Co811 1.976 . S
O822 C831 1.251 . S
O823 Co810 2.264 . S
O823 Co811 2.327 . S
O823 C832 1.257 . S
O824 Co811 2.073 . S
O824 C832 1.245 . S
C825 O833 1.259 . S
C825 O834 1.289 . S
C826 O835 1.246 . S
C826 O836 1.257 . S
C827 O815 1.251 . S
C827 O816 1.274 . S
C828 O813 1.245 . S
C828 O814 1.257 . S
C829 O818 1.259 . S
C829 O819 1.289 . S
C830 O817 1.246 . S
C830 O820 1.257 . S
C831 O821 1.274 . S
C831 O822 1.251 . S
C832 O823 1.257 . S
C832 O824 1.245 . S
O833 Co804 2.286 . S
O833 C825 1.259 . S
O834 Co804 2.069 . S
O834 C825 1.289 . S
O835 Co806 2.145 . S
O835 C826 1.246 . S
O836 Co804 2.015 . S
O836 C826 1.257 . S
Co837 O840 2.042 . S
Co837 O847 2.264 . S
Co837 O866 2.286 . S
Co837 O867 2.069 . S
Co837 O869 2.015 1_565 S
Co838 O840 2.122 . S
Co838 O846 2.073 . S
Co838 O847 2.327 . S
Co838 O848 1.976 1_565 S
Co839 O840 2.081 1_545 S
Co839 O842 2.093 . S
Co839 O849 2.115 . S
Co839 O850 2.141 1_545 S
Co839 O854 2.108 1_545 S
Co839 O868 2.146 . S
O840 Co837 2.042 . S
O840 Co838 2.122 . S
O840 Co839 2.081 1_565 S
O840 H841 0.980 . S
H841 O840 0.980 . S
O842 Co839 2.093 . S
O842 Co843 2.042 . S
O842 Co844 2.122 . S
O842 H845 0.980 . S
Co843 O842 2.042 . S
Co843 O851 2.286 . S
Co843 O852 2.069 . S
Co843 O853 2.015 1_545 S
Co843 O856 2.264 . S
Co844 O842 2.122 . S
Co844 O855 1.976 1_545 S
Co844 O856 2.327 . S
Co844 O857 2.073 . S
H845 O842 0.980 . S
O846 Co838 2.073 . S
O846 C861 1.245 . S
O847 Co837 2.264 . S
O847 Co838 2.327 . S
O847 C861 1.257 . S
O848 Co838 1.976 1_545 S
O848 C860 1.251 . S
O849 Co839 2.115 . S
O849 C860 1.274 . S
O850 Co839 2.141 1_565 S
O850 C863 1.246 . S
O851 Co843 2.286 . S
O851 C862 1.259 . S
O852 Co843 2.069 . S
O852 C862 1.289 . S
O853 Co843 2.015 1_565 S
O853 C863 1.257 . S
O854 Co839 2.108 1_565 S
O854 C864 1.274 . S
O855 Co844 1.976 1_565 S
O855 C864 1.251 . S
O856 Co843 2.264 . S
O856 Co844 2.327 . S
O856 C865 1.257 . S
O857 Co844 2.073 . S
O857 C865 1.245 . S
C858 O866 1.259 . S
C858 O867 1.289 . S
C859 O868 1.246 . S
C859 O869 1.257 . S
C860 O848 1.251 . S
C860 O849 1.274 . S
C861 O846 1.245 . S
C861 O847 1.257 . S
C862 O851 1.259 . S
C862 O852 1.289 . S
C863 O850 1.246 . S
C863 O853 1.257 . S
C864 O854 1.274 . S
C864 O855 1.251 . S
C865 O856 1.257 . S
C865 O857 1.245 . S
O866 Co837 2.286 . S
O866 C858 1.259 . S
O867 Co837 2.069 . S
O867 C858 1.289 . S
O868 Co839 2.146 . S
O868 C859 1.246 . S
O869 Co837 2.015 1_545 S
O869 C859 1.257 . S
C870 C871 1.349 . S
C870 C872 1.327 . S
C870 H895 0.950 . S
C871 C870 1.349 . S
C871 C887 1.349 . S
C872 C870 1.327 . S
C872 C891 1.429 . S
C872 H896 0.950 . S
C873 C890 1.574 . S
C873 C892 1.368 . S
C873 H897 0.949 . S
H874 C878 0.949 . S
C875 C876 1.349 . S
C875 C877 1.327 . S
C875 H898 0.950 . S
C876 C875 1.349 . S
C876 C888 1.349 . S
C877 C875 1.327 . S
C877 C893 1.429 . S
C877 H899 0.950 . S
C878 H874 0.949 . S
C878 C886 1.574 . S
C878 C894 1.368 . S
H879 C887 0.950 . S
H880 C885 0.950 . S
H881 C886 0.949 . S
H882 C888 0.950 . S
H883 C889 0.950 . S
H884 C890 0.949 . S
C885 H880 0.950 . S
C885 C887 1.327 . S
C885 C891 1.429 . S
C886 C878 1.574 . S
C886 H881 0.949 . S
C886 C892 1.368 . S
C887 C871 1.349 . S
C887 H879 0.950 . S
C887 C885 1.327 . S
C888 C876 1.349 . S
C888 H882 0.950 . S
C888 C889 1.327 . S
C889 H883 0.950 . S
C889 C888 1.327 . S
C889 C893 1.429 . S
C890 C873 1.574 . S
C890 H884 0.949 . S
C890 C894 1.368 . S
C891 C872 1.429 . S
C891 C885 1.429 . S
C891 C892 1.523 . S
C892 C873 1.368 . S
C892 C886 1.368 . S
C892 C891 1.523 . S
C893 C877 1.429 . S
C893 C889 1.429 . S
C893 C894 1.523 . S
C894 C878 1.368 . S
C894 C890 1.368 . S
C894 C893 1.523 . S
H895 C870 0.950 . S
H896 C872 0.950 . S
H897 C873 0.949 . S
H898 C875 0.950 . S
H899 C877 0.950 . S
C900 C901 1.349 . S
C900 C902 1.327 . S
C900 H925 0.950 . S
C901 C900 1.349 . S
C901 C917 1.349 . S
C902 C900 1.327 . S
C902 C921 1.429 . S
C902 H926 0.950 . S
C903 C920 1.574 . S
C903 C922 1.368 . S
C903 H927 0.949 . S
H904 C908 0.949 . S
C905 C906 1.349 . S
C905 C907 1.327 . S
C905 H928 0.950 . S
C906 C905 1.349 . S
C906 C918 1.349 . S
C907 C905 1.327 . S
C907 C923 1.429 . S
C907 H929 0.950 . S
C908 H904 0.949 . S
C908 C916 1.574 . S
C908 C924 1.368 . S
H909 C917 0.950 . S
H910 C915 0.950 . S
H911 C916 0.949 . S
H912 C918 0.950 . S
H913 C919 0.950 . S
H914 C920 0.949 . S
C915 H910 0.950 . S
C915 C917 1.327 . S
C915 C921 1.429 . S
C916 C908 1.574 . S
C916 H911 0.949 . S
C916 C922 1.368 . S
C917 C901 1.349 . S
C917 H909 0.950 . S
C917 C915 1.327 . S
C918 C906 1.349 . S
C918 H912 0.950 . S
C918 C919 1.327 . S
C919 H913 0.950 . S
C919 C918 1.327 . S
C919 C923 1.429 . S
C920 C903 1.574 . S
C920 H914 0.949 . S
C920 C924 1.368 . S
C921 C902 1.429 . S
C921 C915 1.429 . S
C921 C922 1.523 . S
C922 C903 1.368 . S
C922 C916 1.368 . S
C922 C921 1.523 . S
C923 C907 1.429 . S
C923 C919 1.429 . S
C923 C924 1.523 . S
C924 C908 1.368 . S
C924 C920 1.368 . S
C924 C923 1.523 . S
H925 C900 0.950 . S
H926 C902 0.950 . S
H927 C903 0.949 . S
H928 C905 0.950 . S
H929 C907 0.950 . S
C930 C931 1.349 . S
C930 C932 1.327 . S
C930 H955 0.950 . S
C931 C930 1.349 . S
C931 C947 1.349 . S
C932 C930 1.327 . S
C932 C951 1.429 . S
C932 H956 0.950 . S
C933 C950 1.574 . S
C933 C952 1.368 . S
C933 H957 0.949 . S
H934 C938 0.949 . S
C935 C936 1.349 . S
C935 C937 1.327 . S
C935 H958 0.950 . S
C936 C935 1.349 . S
C936 C948 1.349 . S
C937 C935 1.327 . S
C937 C953 1.429 . S
C937 H959 0.950 . S
C938 H934 0.949 . S
C938 C946 1.574 . S
C938 C954 1.368 . S
H939 C947 0.950 . S
H940 C945 0.950 . S
H941 C946 0.949 . S
H942 C948 0.950 . S
H943 C949 0.950 . S
H944 C950 0.949 . S
C945 H940 0.950 . S
C945 C947 1.327 . S
C945 C951 1.429 . S
C946 C938 1.574 . S
C946 H941 0.949 . S
C946 C952 1.368 . S
C947 C931 1.349 . S
C947 H939 0.950 . S
C947 C945 1.327 . S
C948 C936 1.349 . S
C948 H942 0.950 . S
C948 C949 1.327 . S
C949 H943 0.950 . S
C949 C948 1.327 . S
C949 C953 1.429 . S
C950 C933 1.574 . S
C950 H944 0.949 . S
C950 C954 1.368 . S
C951 C932 1.429 . S
C951 C945 1.429 . S
C951 C952 1.523 . S
C952 C933 1.368 . S
C952 C946 1.368 . S
C952 C951 1.523 . S
C953 C937 1.429 . S
C953 C949 1.429 . S
C953 C954 1.523 . S
C954 C938 1.368 . S
C954 C950 1.368 . S
C954 C953 1.523 . S
H955 C930 0.950 . S
H956 C932 0.950 . S
H957 C933 0.949 . S
H958 C935 0.950 . S
H959 C937 0.950 . S
C960 C961 1.349 . S
C960 C962 1.327 . S
C960 H985 0.950 . S
C961 C960 1.349 . S
C961 C977 1.349 . S
C962 C960 1.327 . S
C962 C981 1.429 . S
C962 H986 0.950 . S
C963 C980 1.574 . S
C963 C982 1.368 . S
C963 H987 0.949 . S
H964 C968 0.949 . S
C965 C966 1.349 . S
C965 C967 1.327 . S
C965 H988 0.950 . S
C966 C965 1.349 . S
C966 C978 1.349 . S
C967 C965 1.327 . S
C967 C983 1.429 . S
C967 H989 0.950 . S
C968 H964 0.949 . S
C968 C976 1.574 . S
C968 C984 1.368 . S
H969 C977 0.950 . S
H970 C975 0.950 . S
H971 C976 0.949 . S
H972 C978 0.950 . S
H973 C979 0.950 . S
H974 C980 0.949 . S
C975 H970 0.950 . S
C975 C977 1.327 . S
C975 C981 1.429 . S
C976 C968 1.574 . S
C976 H971 0.949 . S
C976 C982 1.368 . S
C977 C961 1.349 . S
C977 H969 0.950 . S
C977 C975 1.327 . S
C978 C966 1.349 . S
C978 H972 0.950 . S
C978 C979 1.327 . S
C979 H973 0.950 . S
C979 C978 1.327 . S
C979 C983 1.429 . S
C980 C963 1.574 . S
C980 H974 0.949 . S
C980 C984 1.368 . S
C981 C962 1.429 . S
C981 C975 1.429 . S
C981 C982 1.523 . S
C982 C963 1.368 . S
C982 C976 1.368 . S
C982 C981 1.523 . S
C983 C967 1.429 . S
C983 C979 1.429 . S
C983 C984 1.523 . S
C984 C968 1.368 . S
C984 C980 1.368 . S
C984 C983 1.523 . S
H985 C960 0.950 . S
H986 C962 0.950 . S
H987 C963 0.949 . S
H988 C965 0.950 . S
H989 C967 0.950 . S
C990 C991 1.349 . S
C990 C992 1.327 . S
C990 H1015 0.950 . S
C991 C990 1.349 . S
C991 C1007 1.349 . S
C992 C990 1.327 . S
C992 C1011 1.429 . S
C992 H1016 0.950 . S
C993 C1010 1.574 . S
C993 C1012 1.368 . S
C993 H1017 0.949 . S
H994 C998 0.949 . S
C995 C996 1.349 . S
C995 C997 1.327 . S
C995 H1018 0.950 . S
C996 C995 1.349 . S
C996 C1008 1.349 . S
C997 C995 1.327 . S
C997 C1013 1.429 . S
C997 H1019 0.950 . S
C998 H994 0.949 . S
C998 C1006 1.574 . S
C998 C1014 1.368 . S
H999 C1007 0.950 . S
H1000 C1005 0.950 . S
H1001 C1006 0.949 . S
H1002 C1008 0.950 . S
H1003 C1009 0.950 . S
H1004 C1010 0.949 . S
C1005 H1000 0.950 . S
C1005 C1007 1.327 . S
C1005 C1011 1.429 . S
C1006 C998 1.574 . S
C1006 H1001 0.949 . S
C1006 C1012 1.368 . S
C1007 C991 1.349 . S
C1007 H999 0.950 . S
C1007 C1005 1.327 . S
C1008 C996 1.349 . S
C1008 H1002 0.950 . S
C1008 C1009 1.327 . S
C1009 H1003 0.950 . S
C1009 C1008 1.327 . S
C1009 C1013 1.429 . S
C1010 C993 1.574 . S
C1010 H1004 0.949 . S
C1010 C1014 1.368 . S
C1011 C992 1.429 . S
C1011 C1005 1.429 . S
C1011 C1012 1.523 . S
C1012 C993 1.368 . S
C1012 C1006 1.368 . S
C1012 C1011 1.523 . S
C1013 C997 1.429 . S
C1013 C1009 1.429 . S
C1013 C1014 1.523 . S
C1014 C998 1.368 . S
C1014 C1010 1.368 . S
C1014 C1013 1.523 . S
H1015 C990 0.950 . S
H1016 C992 0.950 . S
H1017 C993 0.949 . S
H1018 C995 0.950 . S
H1019 C997 0.950 . S
C1020 C1021 1.349 . S
C1020 C1022 1.327 . S
C1020 H1045 0.950 . S
C1021 C1020 1.349 . S
C1021 C1037 1.349 . S
C1022 C1020 1.327 . S
C1022 C1041 1.429 . S
C1022 H1046 0.950 . S
C1023 C1040 1.574 . S
C1023 C1042 1.368 . S
C1023 H1047 0.949 . S
H1024 C1028 0.949 . S
C1025 C1026 1.349 . S
C1025 C1027 1.327 . S
C1025 H1048 0.950 . S
C1026 C1025 1.349 . S
C1026 C1038 1.349 . S
C1027 C1025 1.327 . S
C1027 C1043 1.429 . S
C1027 H1049 0.950 . S
C1028 H1024 0.949 . S
C1028 C1036 1.574 . S
C1028 C1044 1.368 . S
H1029 C1037 0.950 . S
H1030 C1035 0.950 . S
H1031 C1036 0.949 . S
H1032 C1038 0.950 . S
H1033 C1039 0.950 . S
H1034 C1040 0.949 . S
C1035 H1030 0.950 . S
C1035 C1037 1.327 . S
C1035 C1041 1.429 . S
C1036 C1028 1.574 . S
C1036 H1031 0.949 . S
C1036 C1042 1.368 . S
C1037 C1021 1.349 . S
C1037 H1029 0.950 . S
C1037 C1035 1.327 . S
C1038 C1026 1.349 . S
C1038 H1032 0.950 . S
C1038 C1039 1.327 . S
C1039 H1033 0.950 . S
C1039 C1038 1.327 . S
C1039 C1043 1.429 . S
C1040 C1023 1.574 . S
C1040 H1034 0.949 . S
C1040 C1044 1.368 . S
C1041 C1022 1.429 . S
C1041 C1035 1.429 . S
C1041 C1042 1.523 . S
C1042 C1023 1.368 . S
C1042 C1036 1.368 . S
C1042 C1041 1.523 . S
C1043 C1027 1.429 . S
C1043 C1039 1.429 . S
C1043 C1044 1.523 . S
C1044 C1028 1.368 . S
C1044 C1040 1.368 . S
C1044 C1043 1.523 . S
H1045 C1020 0.950 . S
H1046 C1022 0.950 . S
H1047 C1023 0.949 . S
H1048 C1025 0.950 . S
H1049 C1027 0.950 . S
C1050 C1051 1.349 . S
C1050 C1052 1.327 . S
C1050 H1075 0.950 . S
C1051 C1050 1.349 . S
C1051 C1067 1.349 . S
C1052 C1050 1.327 . S
C1052 C1071 1.429 . S
C1052 H1076 0.950 . S
C1053 C1070 1.574 . S
C1053 C1072 1.368 . S
C1053 H1077 0.949 . S
H1054 C1058 0.949 . S
C1055 C1056 1.349 . S
C1055 C1057 1.327 . S
C1055 H1078 0.950 . S
C1056 C1055 1.349 . S
C1056 C1068 1.349 . S
C1057 C1055 1.327 . S
C1057 C1073 1.429 . S
C1057 H1079 0.950 . S
C1058 H1054 0.949 . S
C1058 C1066 1.574 . S
C1058 C1074 1.368 . S
H1059 C1067 0.950 . S
H1060 C1065 0.950 . S
H1061 C1066 0.949 . S
H1062 C1068 0.950 . S
H1063 C1069 0.950 . S
H1064 C1070 0.949 . S
C1065 H1060 0.950 . S
C1065 C1067 1.327 . S
C1065 C1071 1.429 . S
C1066 C1058 1.574 . S
C1066 H1061 0.949 . S
C1066 C1072 1.368 . S
C1067 C1051 1.349 . S
C1067 H1059 0.950 . S
C1067 C1065 1.327 . S
C1068 C1056 1.349 . S
C1068 H1062 0.950 . S
C1068 C1069 1.327 . S
C1069 H1063 0.950 . S
C1069 C1068 1.327 . S
C1069 C1073 1.429 . S
C1070 C1053 1.574 . S
C1070 H1064 0.949 . S
C1070 C1074 1.368 . S
C1071 C1052 1.429 . S
C1071 C1065 1.429 . S
C1071 C1072 1.523 . S
C1072 C1053 1.368 . S
C1072 C1066 1.368 . S
C1072 C1071 1.523 . S
C1073 C1057 1.429 . S
C1073 C1069 1.429 . S
C1073 C1074 1.523 . S
C1074 C1058 1.368 . S
C1074 C1070 1.368 . S
C1074 C1073 1.523 . S
H1075 C1050 0.950 . S
H1076 C1052 0.950 . S
H1077 C1053 0.949 . S
H1078 C1055 0.950 . S
H1079 C1057 0.950 . S
C1080 C1081 1.349 . S
C1080 C1082 1.327 . S
C1080 H1105 0.950 . S
C1081 C1080 1.349 . S
C1081 C1097 1.349 . S
C1082 C1080 1.327 . S
C1082 C1101 1.429 . S
C1082 H1106 0.950 . S
C1083 C1100 1.574 . S
C1083 C1102 1.368 . S
C1083 H1107 0.949 . S
H1084 C1088 0.949 . S
C1085 C1086 1.349 . S
C1085 C1087 1.327 . S
C1085 H1108 0.950 . S
C1086 C1085 1.349 . S
C1086 C1098 1.349 . S
C1087 C1085 1.327 . S
C1087 C1103 1.429 . S
C1087 H1109 0.950 . S
C1088 H1084 0.949 . S
C1088 C1096 1.574 . S
C1088 C1104 1.368 . S
H1089 C1097 0.950 . S
H1090 C1095 0.950 . S
H1091 C1096 0.949 . S
H1092 C1098 0.950 . S
H1093 C1099 0.950 . S
H1094 C1100 0.949 . S
C1095 H1090 0.950 . S
C1095 C1097 1.327 . S
C1095 C1101 1.429 . S
C1096 C1088 1.574 . S
C1096 H1091 0.949 . S
C1096 C1102 1.368 . S
C1097 C1081 1.349 . S
C1097 H1089 0.950 . S
C1097 C1095 1.327 . S
C1098 C1086 1.349 . S
C1098 H1092 0.950 . S
C1098 C1099 1.327 . S
C1099 H1093 0.950 . S
C1099 C1098 1.327 . S
C1099 C1103 1.429 . S
C1100 C1083 1.574 . S
C1100 H1094 0.949 . S
C1100 C1104 1.368 . S
C1101 C1082 1.429 . S
C1101 C1095 1.429 . S
C1101 C1102 1.523 . S
C1102 C1083 1.368 . S
C1102 C1096 1.368 . S
C1102 C1101 1.523 . S
C1103 C1087 1.429 . S
C1103 C1099 1.429 . S
C1103 C1104 1.523 . S
C1104 C1088 1.368 . S
C1104 C1100 1.368 . S
C1104 C1103 1.523 . S
H1105 C1080 0.950 . S
H1106 C1082 0.950 . S
H1107 C1083 0.949 . S
H1108 C1085 0.950 . S
H1109 C1087 0.950 . S
C1110 C1111 1.349 . S
C1110 C1112 1.327 . S
C1110 H1135 0.950 . S
C1111 C1110 1.349 . S
C1111 C1127 1.349 . S
C1112 C1110 1.327 . S
C1112 C1131 1.429 . S
C1112 H1136 0.950 . S
C1113 C1130 1.574 . S
C1113 C1132 1.368 . S
C1113 H1137 0.949 . S
H1114 C1118 0.949 . S
C1115 C1116 1.349 . S
C1115 C1117 1.327 . S
C1115 H1138 0.950 . S
C1116 C1115 1.349 . S
C1116 C1128 1.349 . S
C1117 C1115 1.327 . S
C1117 C1133 1.429 . S
C1117 H1139 0.950 . S
C1118 H1114 0.949 . S
C1118 C1126 1.574 . S
C1118 C1134 1.368 . S
H1119 C1127 0.950 . S
H1120 C1125 0.950 . S
H1121 C1126 0.949 . S
H1122 C1128 0.950 . S
H1123 C1129 0.950 . S
H1124 C1130 0.949 . S
C1125 H1120 0.950 . S
C1125 C1127 1.327 . S
C1125 C1131 1.429 . S
C1126 C1118 1.574 . S
C1126 H1121 0.949 . S
C1126 C1132 1.368 . S
C1127 C1111 1.349 . S
C1127 H1119 0.950 . S
C1127 C1125 1.327 . S
C1128 C1116 1.349 . S
C1128 H1122 0.950 . S
C1128 C1129 1.327 . S
C1129 H1123 0.950 . S
C1129 C1128 1.327 . S
C1129 C1133 1.429 . S
C1130 C1113 1.574 . S
C1130 H1124 0.949 . S
C1130 C1134 1.368 . S
C1131 C1112 1.429 . S
C1131 C1125 1.429 . S
C1131 C1132 1.523 . S
C1132 C1113 1.368 . S
C1132 C1126 1.368 . S
C1132 C1131 1.523 . S
C1133 C1117 1.429 . S
C1133 C1129 1.429 . S
C1133 C1134 1.523 . S
C1134 C1118 1.368 . S
C1134 C1130 1.368 . S
C1134 C1133 1.523 . S
H1135 C1110 0.950 . S
H1136 C1112 0.950 . S
H1137 C1113 0.949 . S
H1138 C1115 0.950 . S
H1139 C1117 0.950 . S
C1140 C1141 1.349 . S
C1140 C1142 1.327 . S
C1140 H1165 0.950 . S
C1141 C1140 1.349 . S
C1141 C1157 1.349 . S
C1142 C1140 1.327 . S
C1142 C1161 1.429 . S
C1142 H1166 0.950 . S
C1143 C1160 1.574 . S
C1143 C1162 1.368 . S
C1143 H1167 0.949 . S
H1144 C1148 0.949 . S
C1145 C1146 1.349 . S
C1145 C1147 1.327 . S
C1145 H1168 0.950 . S
C1146 C1145 1.349 . S
C1146 C1158 1.349 . S
C1147 C1145 1.327 . S
C1147 C1163 1.429 . S
C1147 H1169 0.950 . S
C1148 H1144 0.949 . S
C1148 C1156 1.574 . S
C1148 C1164 1.368 . S
H1149 C1157 0.950 . S
H1150 C1155 0.950 . S
H1151 C1156 0.949 . S
H1152 C1158 0.950 . S
H1153 C1159 0.950 . S
H1154 C1160 0.949 . S
C1155 H1150 0.950 . S
C1155 C1157 1.327 . S
C1155 C1161 1.429 . S
C1156 C1148 1.574 . S
C1156 H1151 0.949 . S
C1156 C1162 1.368 . S
C1157 C1141 1.349 . S
C1157 H1149 0.950 . S
C1157 C1155 1.327 . S
C1158 C1146 1.349 . S
C1158 H1152 0.950 . S
C1158 C1159 1.327 . S
C1159 H1153 0.950 . S
C1159 C1158 1.327 . S
C1159 C1163 1.429 . S
C1160 C1143 1.574 . S
C1160 H1154 0.949 . S
C1160 C1164 1.368 . S
C1161 C1142 1.429 . S
C1161 C1155 1.429 . S
C1161 C1162 1.523 . S
C1162 C1143 1.368 . S
C1162 C1156 1.368 . S
C1162 C1161 1.523 . S
C1163 C1147 1.429 . S
C1163 C1159 1.429 . S
C1163 C1164 1.523 . S
C1164 C1148 1.368 . S
C1164 C1160 1.368 . S
C1164 C1163 1.523 . S
H1165 C1140 0.950 . S
H1166 C1142 0.950 . S
H1167 C1143 0.949 . S
H1168 C1145 0.950 . S
H1169 C1147 0.950 . S
C1170 C1171 1.349 . S
C1170 C1172 1.327 . S
C1170 H1195 0.950 . S
C1171 C1170 1.349 . S
C1171 C1187 1.349 . S
C1172 C1170 1.327 . S
C1172 C1191 1.429 . S
C1172 H1196 0.950 . S
C1173 C1190 1.574 . S
C1173 C1192 1.368 . S
C1173 H1197 0.949 . S
H1174 C1178 0.949 . S
C1175 C1176 1.349 . S
C1175 C1177 1.327 . S
C1175 H1198 0.950 . S
C1176 C1175 1.349 . S
C1176 C1188 1.349 . S
C1177 C1175 1.327 . S
C1177 C1193 1.429 . S
C1177 H1199 0.950 . S
C1178 H1174 0.949 . S
C1178 C1186 1.574 . S
C1178 C1194 1.368 . S
H1179 C1187 0.950 . S
H1180 C1185 0.950 . S
H1181 C1186 0.949 . S
H1182 C1188 0.950 . S
H1183 C1189 0.950 . S
H1184 C1190 0.949 . S
C1185 H1180 0.950 . S
C1185 C1187 1.327 . S
C1185 C1191 1.429 . S
C1186 C1178 1.574 . S
C1186 H1181 0.949 . S
C1186 C1192 1.368 . S
C1187 C1171 1.349 . S
C1187 H1179 0.950 . S
C1187 C1185 1.327 . S
C1188 C1176 1.349 . S
C1188 H1182 0.950 . S
C1188 C1189 1.327 . S
C1189 H1183 0.950 . S
C1189 C1188 1.327 . S
C1189 C1193 1.429 . S
C1190 C1173 1.574 . S
C1190 H1184 0.949 . S
C1190 C1194 1.368 . S
C1191 C1172 1.429 . S
C1191 C1185 1.429 . S
C1191 C1192 1.523 . S
C1192 C1173 1.368 . S
C1192 C1186 1.368 . S
C1192 C1191 1.523 . S
C1193 C1177 1.429 . S
C1193 C1189 1.429 . S
C1193 C1194 1.523 . S
C1194 C1178 1.368 . S
C1194 C1190 1.368 . S
C1194 C1193 1.523 . S
H1195 C1170 0.950 . S
H1196 C1172 0.950 . S
H1197 C1173 0.949 . S
H1198 C1175 0.950 . S
H1199 C1177 0.950 . S
C1200 C1201 1.349 . S
C1200 C1202 1.327 . S
C1200 H1225 0.950 . S
C1201 C1200 1.349 . S
C1201 C1217 1.349 . S
C1202 C1200 1.327 . S
C1202 C1221 1.429 . S
C1202 H1226 0.950 . S
C1203 C1220 1.574 . S
C1203 C1222 1.368 . S
C1203 H1227 0.949 . S
H1204 C1208 0.949 . S
C1205 C1206 1.349 . S
C1205 C1207 1.327 . S
C1205 H1228 0.950 . S
C1206 C1205 1.349 . S
C1206 C1218 1.349 . S
C1207 C1205 1.327 . S
C1207 C1223 1.429 . S
C1207 H1229 0.950 . S
C1208 H1204 0.949 . S
C1208 C1216 1.574 . S
C1208 C1224 1.368 . S
H1209 C1217 0.950 . S
H1210 C1215 0.950 . S
H1211 C1216 0.949 . S
H1212 C1218 0.950 . S
H1213 C1219 0.950 . S
H1214 C1220 0.949 . S
C1215 H1210 0.950 . S
C1215 C1217 1.327 . S
C1215 C1221 1.429 . S
C1216 C1208 1.574 . S
C1216 H1211 0.949 . S
C1216 C1222 1.368 . S
C1217 C1201 1.349 . S
C1217 H1209 0.950 . S
C1217 C1215 1.327 . S
C1218 C1206 1.349 . S
C1218 H1212 0.950 . S
C1218 C1219 1.327 . S
C1219 H1213 0.950 . S
C1219 C1218 1.327 . S
C1219 C1223 1.429 . S
C1220 C1203 1.574 . S
C1220 H1214 0.949 . S
C1220 C1224 1.368 . S
C1221 C1202 1.429 . S
C1221 C1215 1.429 . S
C1221 C1222 1.523 . S
C1222 C1203 1.368 . S
C1222 C1216 1.368 . S
C1222 C1221 1.523 . S
C1223 C1207 1.429 . S
C1223 C1219 1.429 . S
C1223 C1224 1.523 . S
C1224 C1208 1.368 . S
C1224 C1220 1.368 . S
C1224 C1223 1.523 . S
H1225 C1200 0.950 . S
H1226 C1202 0.950 . S
H1227 C1203 0.949 . S
H1228 C1205 0.950 . S
H1229 C1207 0.950 . S
C1230 C1231 1.349 . S
C1230 C1232 1.327 . S
C1230 H1255 0.950 . S
C1231 C1230 1.349 . S
C1231 C1247 1.349 . S
C1232 C1230 1.327 . S
C1232 C1251 1.429 . S
C1232 H1256 0.950 . S
C1233 C1250 1.574 . S
C1233 C1252 1.368 . S
C1233 H1257 0.949 . S
H1234 C1238 0.949 . S
C1235 C1236 1.349 . S
C1235 C1237 1.327 . S
C1235 H1258 0.950 . S
C1236 C1235 1.349 . S
C1236 C1248 1.349 . S
C1237 C1235 1.327 . S
C1237 C1253 1.429 . S
C1237 H1259 0.950 . S
C1238 H1234 0.949 . S
C1238 C1246 1.574 . S
C1238 C1254 1.368 . S
H1239 C1247 0.950 . S
H1240 C1245 0.950 . S
H1241 C1246 0.949 . S
H1242 C1248 0.950 . S
H1243 C1249 0.950 . S
H1244 C1250 0.949 . S
C1245 H1240 0.950 . S
C1245 C1247 1.327 . S
C1245 C1251 1.429 . S
C1246 C1238 1.574 . S
C1246 H1241 0.949 . S
C1246 C1252 1.368 . S
C1247 C1231 1.349 . S
C1247 H1239 0.950 . S
C1247 C1245 1.327 . S
C1248 C1236 1.349 . S
C1248 H1242 0.950 . S
C1248 C1249 1.327 . S
C1249 H1243 0.950 . S
C1249 C1248 1.327 . S
C1249 C1253 1.429 . S
C1250 C1233 1.574 . S
C1250 H1244 0.949 . S
C1250 C1254 1.368 . S
C1251 C1232 1.429 . S
C1251 C1245 1.429 . S
C1251 C1252 1.523 . S
C1252 C1233 1.368 . S
C1252 C1246 1.368 . S
C1252 C1251 1.523 . S
C1253 C1237 1.429 . S
C1253 C1249 1.429 . S
C1253 C1254 1.523 . S
C1254 C1238 1.368 . S
C1254 C1250 1.368 . S
C1254 C1253 1.523 . S
H1255 C1230 0.950 . S
H1256 C1232 0.950 . S
H1257 C1233 0.949 . S
H1258 C1235 0.950 . S
H1259 C1237 0.950 . S
C1260 C1261 1.349 . S
C1260 C1262 1.327 . S
C1260 H1285 0.950 . S
C1261 C1260 1.349 . S
C1261 C1277 1.349 . S
C1262 C1260 1.327 . S
C1262 C1281 1.429 . S
C1262 H1286 0.950 . S
C1263 C1280 1.574 . S
C1263 C1282 1.368 . S
C1263 H1287 0.949 . S
H1264 C1268 0.949 . S
C1265 C1266 1.349 . S
C1265 C1267 1.327 . S
C1265 H1288 0.950 . S
C1266 C1265 1.349 . S
C1266 C1278 1.349 . S
C1267 C1265 1.327 . S
C1267 C1283 1.429 . S
C1267 H1289 0.950 . S
C1268 H1264 0.949 . S
C1268 C1276 1.574 . S
C1268 C1284 1.368 . S
H1269 C1277 0.950 . S
H1270 C1275 0.950 . S
H1271 C1276 0.949 . S
H1272 C1278 0.950 . S
H1273 C1279 0.950 . S
H1274 C1280 0.949 . S
C1275 H1270 0.950 . S
C1275 C1277 1.327 . S
C1275 C1281 1.429 . S
C1276 C1268 1.574 . S
C1276 H1271 0.949 . S
C1276 C1282 1.368 . S
C1277 C1261 1.349 . S
C1277 H1269 0.950 . S
C1277 C1275 1.327 . S
C1278 C1266 1.349 . S
C1278 H1272 0.950 . S
C1278 C1279 1.327 . S
C1279 H1273 0.950 . S
C1279 C1278 1.327 . S
C1279 C1283 1.429 . S
C1280 C1263 1.574 . S
C1280 H1274 0.949 . S
C1280 C1284 1.368 . S
C1281 C1262 1.429 . S
C1281 C1275 1.429 . S
C1281 C1282 1.523 . S
C1282 C1263 1.368 . S
C1282 C1276 1.368 . S
C1282 C1281 1.523 . S
C1283 C1267 1.429 . S
C1283 C1279 1.429 . S
C1283 C1284 1.523 . S
C1284 C1268 1.368 . S
C1284 C1280 1.368 . S
C1284 C1283 1.523 . S
H1285 C1260 0.950 . S
H1286 C1262 0.950 . S
H1287 C1263 0.949 . S
H1288 C1265 0.950 . S
H1289 C1267 0.950 . S
C1290 C1291 1.349 . S
C1290 C1292 1.327 . S
C1290 H1315 0.950 . S
C1291 C1290 1.349 . S
C1291 C1307 1.349 . S
C1292 C1290 1.327 . S
C1292 C1311 1.429 . S
C1292 H1316 0.950 . S
C1293 C1310 1.574 . S
C1293 C1312 1.368 . S
C1293 H1317 0.949 . S
H1294 C1298 0.949 . S
C1295 C1296 1.349 . S
C1295 C1297 1.327 . S
C1295 H1318 0.950 . S
C1296 C1295 1.349 . S
C1296 C1308 1.349 . S
C1297 C1295 1.327 . S
C1297 C1313 1.429 . S
C1297 H1319 0.950 . S
C1298 H1294 0.949 . S
C1298 C1306 1.574 . S
C1298 C1314 1.368 . S
H1299 C1307 0.950 . S
H1300 C1305 0.950 . S
H1301 C1306 0.949 . S
H1302 C1308 0.950 . S
H1303 C1309 0.950 . S
H1304 C1310 0.949 . S
C1305 H1300 0.950 . S
C1305 C1307 1.327 . S
C1305 C1311 1.429 . S
C1306 C1298 1.574 . S
C1306 H1301 0.949 . S
C1306 C1312 1.368 . S
C1307 C1291 1.349 . S
C1307 H1299 0.950 . S
C1307 C1305 1.327 . S
C1308 C1296 1.349 . S
C1308 H1302 0.950 . S
C1308 C1309 1.327 . S
C1309 H1303 0.950 . S
C1309 C1308 1.327 . S
C1309 C1313 1.429 . S
C1310 C1293 1.574 . S
C1310 H1304 0.949 . S
C1310 C1314 1.368 . S
C1311 C1292 1.429 . S
C1311 C1305 1.429 . S
C1311 C1312 1.523 . S
C1312 C1293 1.368 . S
C1312 C1306 1.368 . S
C1312 C1311 1.523 . S
C1313 C1297 1.429 . S
C1313 C1309 1.429 . S
C1313 C1314 1.523 . S
C1314 C1298 1.368 . S
C1314 C1310 1.368 . S
C1314 C1313 1.523 . S
H1315 C1290 0.950 . S
H1316 C1292 0.950 . S
H1317 C1293 0.949 . S
H1318 C1295 0.950 . S
H1319 C1297 0.950 . S
C1320 C1321 1.349 . S
C1320 C1322 1.327 . S
C1320 H1345 0.950 . S
C1321 C1320 1.349 . S
C1321 C1337 1.349 . S
C1322 C1320 1.327 . S
C1322 C1341 1.429 . S
C1322 H1346 0.950 . S
C1323 C1340 1.574 . S
C1323 C1342 1.368 . S
C1323 H1347 0.949 . S
H1324 C1328 0.949 . S
C1325 C1326 1.349 . S
C1325 C1327 1.327 . S
C1325 H1348 0.950 . S
C1326 C1325 1.349 . S
C1326 C1338 1.349 . S
C1327 C1325 1.327 . S
C1327 C1343 1.429 . S
C1327 H1349 0.950 . S
C1328 H1324 0.949 . S
C1328 C1336 1.574 . S
C1328 C1344 1.368 . S
H1329 C1337 0.950 . S
H1330 C1335 0.950 . S
H1331 C1336 0.949 . S
H1332 C1338 0.950 . S
H1333 C1339 0.950 . S
H1334 C1340 0.949 . S
C1335 H1330 0.950 . S
C1335 C1337 1.327 . S
C1335 C1341 1.429 . S
C1336 C1328 1.574 . S
C1336 H1331 0.949 . S
C1336 C1342 1.368 . S
C1337 C1321 1.349 . S
C1337 H1329 0.950 . S
C1337 C1335 1.327 . S
C1338 C1326 1.349 . S
C1338 H1332 0.950 . S
C1338 C1339 1.327 . S
C1339 H1333 0.950 . S
C1339 C1338 1.327 . S
C1339 C1343 1.429 . S
C1340 C1323 1.574 . S
C1340 H1334 0.949 . S
C1340 C1344 1.368 . S
C1341 C1322 1.429 . S
C1341 C1335 1.429 . S
C1341 C1342 1.523 . S
C1342 C1323 1.368 . S
C1342 C1336 1.368 . S
C1342 C1341 1.523 . S
C1343 C1327 1.429 . S
C1343 C1339 1.429 . S
C1343 C1344 1.523 . S
C1344 C1328 1.368 . S
C1344 C1340 1.368 . S
C1344 C1343 1.523 . S
H1345 C1320 0.950 . S
H1346 C1322 0.950 . S
H1347 C1323 0.949 . S
H1348 C1325 0.950 . S
H1349 C1327 0.950 . S
C1350 C1351 1.349 . S
C1350 C1352 1.327 . S
C1350 H1375 0.950 . S
C1351 C1350 1.349 . S
C1351 C1367 1.349 . S
C1352 C1350 1.327 . S
C1352 C1371 1.429 . S
C1352 H1376 0.950 . S
C1353 C1370 1.574 . S
C1353 C1372 1.368 . S
C1353 H1377 0.949 . S
H1354 C1358 0.949 . S
C1355 C1356 1.349 . S
C1355 C1357 1.327 . S
C1355 H1378 0.950 . S
C1356 C1355 1.349 . S
C1356 C1368 1.349 . S
C1357 C1355 1.327 . S
C1357 C1373 1.429 . S
C1357 H1379 0.950 . S
C1358 H1354 0.949 . S
C1358 C1366 1.574 . S
C1358 C1374 1.368 . S
H1359 C1367 0.950 . S
H1360 C1365 0.950 . S
H1361 C1366 0.949 . S
H1362 C1368 0.950 . S
H1363 C1369 0.950 . S
H1364 C1370 0.949 . S
C1365 H1360 0.950 . S
C1365 C1367 1.327 . S
C1365 C1371 1.429 . S
C1366 C1358 1.574 . S
C1366 H1361 0.949 . S
C1366 C1372 1.368 . S
C1367 C1351 1.349 . S
C1367 H1359 0.950 . S
C1367 C1365 1.327 . S
C1368 C1356 1.349 . S
C1368 H1362 0.950 . S
C1368 C1369 1.327 . S
C1369 H1363 0.950 . S
C1369 C1368 1.327 . S
C1369 C1373 1.429 . S
C1370 C1353 1.574 . S
C1370 H1364 0.949 . S
C1370 C1374 1.368 . S
C1371 C1352 1.429 . S
C1371 C1365 1.429 . S
C1371 C1372 1.523 . S
C1372 C1353 1.368 . S
C1372 C1366 1.368 . S
C1372 C1371 1.523 . S
C1373 C1357 1.429 . S
C1373 C1369 1.429 . S
C1373 C1374 1.523 . S
C1374 C1358 1.368 . S
C1374 C1370 1.368 . S
C1374 C1373 1.523 . S
H1375 C1350 0.950 . S
H1376 C1352 0.950 . S
H1377 C1353 0.949 . S
H1378 C1355 0.950 . S
H1379 C1357 0.950 . S
C1380 C1381 1.349 . S
C1380 C1382 1.327 . S
C1380 H1405 0.950 . S
C1381 C1380 1.349 . S
C1381 C1397 1.349 . S
C1382 C1380 1.327 . S
C1382 C1401 1.429 . S
C1382 H1406 0.950 . S
C1383 C1400 1.574 . S
C1383 C1402 1.368 . S
C1383 H1407 0.949 . S
H1384 C1388 0.949 . S
C1385 C1386 1.349 . S
C1385 C1387 1.327 . S
C1385 H1408 0.950 . S
C1386 C1385 1.349 . S
C1386 C1398 1.349 . S
C1387 C1385 1.327 . S
C1387 C1403 1.429 . S
C1387 H1409 0.950 . S
C1388 H1384 0.949 . S
C1388 C1396 1.574 . S
C1388 C1404 1.368 . S
H1389 C1397 0.950 . S
H1390 C1395 0.950 . S
H1391 C1396 0.949 . S
H1392 C1398 0.950 . S
H1393 C1399 0.950 . S
H1394 C1400 0.949 . S
C1395 H1390 0.950 . S
C1395 C1397 1.327 . S
C1395 C1401 1.429 . S
C1396 C1388 1.574 . S
C1396 H1391 0.949 . S
C1396 C1402 1.368 . S
C1397 C1381 1.349 . S
C1397 H1389 0.950 . S
C1397 C1395 1.327 . S
C1398 C1386 1.349 . S
C1398 H1392 0.950 . S
C1398 C1399 1.327 . S
C1399 H1393 0.950 . S
C1399 C1398 1.327 . S
C1399 C1403 1.429 . S
C1400 C1383 1.574 . S
C1400 H1394 0.949 . S
C1400 C1404 1.368 . S
C1401 C1382 1.429 . S
C1401 C1395 1.429 . S
C1401 C1402 1.523 . S
C1402 C1383 1.368 . S
C1402 C1396 1.368 . S
C1402 C1401 1.523 . S
C1403 C1387 1.429 . S
C1403 C1399 1.429 . S
C1403 C1404 1.523 . S
C1404 C1388 1.368 . S
C1404 C1400 1.368 . S
C1404 C1403 1.523 . S
H1405 C1380 0.950 . S
H1406 C1382 0.950 . S
H1407 C1383 0.949 . S
H1408 C1385 0.950 . S
H1409 C1387 0.950 . S
C1410 C1411 1.349 . S
C1410 C1412 1.327 . S
C1410 H1435 0.950 . S
C1411 C1410 1.349 . S
C1411 C1427 1.349 . S
C1412 C1410 1.327 . S
C1412 C1431 1.429 . S
C1412 H1436 0.950 . S
C1413 C1430 1.574 . S
C1413 C1432 1.368 . S
C1413 H1437 0.949 . S
H1414 C1418 0.949 . S
C1415 C1416 1.349 . S
C1415 C1417 1.327 . S
C1415 H1438 0.950 . S
C1416 C1415 1.349 . S
C1416 C1428 1.349 . S
C1417 C1415 1.327 . S
C1417 C1433 1.429 . S
C1417 H1439 0.950 . S
C1418 H1414 0.949 . S
C1418 C1426 1.574 . S
C1418 C1434 1.368 . S
H1419 C1427 0.950 . S
H1420 C1425 0.950 . S
H1421 C1426 0.949 . S
H1422 C1428 0.950 . S
H1423 C1429 0.950 . S
H1424 C1430 0.949 . S
C1425 H1420 0.950 . S
C1425 C1427 1.327 . S
C1425 C1431 1.429 . S
C1426 C1418 1.574 . S
C1426 H1421 0.949 . S
C1426 C1432 1.368 . S
C1427 C1411 1.349 . S
C1427 H1419 0.950 . S
C1427 C1425 1.327 . S
C1428 C1416 1.349 . S
C1428 H1422 0.950 . S
C1428 C1429 1.327 . S
C1429 H1423 0.950 . S
C1429 C1428 1.327 . S
C1429 C1433 1.429 . S
C1430 C1413 1.574 . S
C1430 H1424 0.949 . S
C1430 C1434 1.368 . S
C1431 C1412 1.429 . S
C1431 C1425 1.429 . S
C1431 C1432 1.523 . S
C1432 C1413 1.368 . S
C1432 C1426 1.368 . S
C1432 C1431 1.523 . S
C1433 C1417 1.429 . S
C1433 C1429 1.429 . S
C1433 C1434 1.523 . S
C1434 C1418 1.368 . S
C1434 C1430 1.368 . S
C1434 C1433 1.523 . S
H1435 C1410 0.950 . S
H1436 C1412 0.950 . S
H1437 C1413 0.949 . S
H1438 C1415 0.950 . S
H1439 C1417 0.950 . S
C1440 C1441 1.349 . S
C1440 C1442 1.327 . S
C1440 H1465 0.950 . S
C1441 C1440 1.349 . S
C1441 C1457 1.349 . S
C1442 C1440 1.327 . S
C1442 C1461 1.429 . S
C1442 H1466 0.950 . S
C1443 C1460 1.574 . S
C1443 C1462 1.368 . S
C1443 H1467 0.949 . S
H1444 C1448 0.949 . S
C1445 C1446 1.349 . S
C1445 C1447 1.327 . S
C1445 H1468 0.950 . S
C1446 C1445 1.349 . S
C1446 C1458 1.349 . S
C1447 C1445 1.327 . S
C1447 C1463 1.429 . S
C1447 H1469 0.950 . S
C1448 H1444 0.949 . S
C1448 C1456 1.574 . S
C1448 C1464 1.368 . S
H1449 C1457 0.950 . S
H1450 C1455 0.950 . S
H1451 C1456 0.949 . S
H1452 C1458 0.950 . S
H1453 C1459 0.950 . S
H1454 C1460 0.949 . S
C1455 H1450 0.950 . S
C1455 C1457 1.327 . S
C1455 C1461 1.429 . S
C1456 C1448 1.574 . S
C1456 H1451 0.949 . S
C1456 C1462 1.368 . S
C1457 C1441 1.349 . S
C1457 H1449 0.950 . S
C1457 C1455 1.327 . S
C1458 C1446 1.349 . S
C1458 H1452 0.950 . S
C1458 C1459 1.327 . S
C1459 H1453 0.950 . S
C1459 C1458 1.327 . S
C1459 C1463 1.429 . S
C1460 C1443 1.574 . S
C1460 H1454 0.949 . S
C1460 C1464 1.368 . S
C1461 C1442 1.429 . S
C1461 C1455 1.429 . S
C1461 C1462 1.523 . S
C1462 C1443 1.368 . S
C1462 C1456 1.368 . S
C1462 C1461 1.523 . S
C1463 C1447 1.429 . S
C1463 C1459 1.429 . S
C1463 C1464 1.523 . S
C1464 C1448 1.368 . S
C1464 C1460 1.368 . S
C1464 C1463 1.523 . S
H1465 C1440 0.950 . S
H1466 C1442 0.950 . S
H1467 C1443 0.949 . S
H1468 C1445 0.950 . S
H1469 C1447 0.950 . S
C1470 C1471 1.349 . S
C1470 C1472 1.327 . S
C1470 H1495 0.950 . S
C1471 C1470 1.349 . S
C1471 C1487 1.349 . S
C1472 C1470 1.327 . S
C1472 C1491 1.429 . S
C1472 H1496 0.950 . S
C1473 C1490 1.574 . S
C1473 C1492 1.368 . S
C1473 H1497 0.949 . S
H1474 C1478 0.949 . S
C1475 C1476 1.349 . S
C1475 C1477 1.327 . S
C1475 H1498 0.950 . S
C1476 C1475 1.349 . S
C1476 C1488 1.349 . S
C1477 C1475 1.327 . S
C1477 C1493 1.429 . S
C1477 H1499 0.950 . S
C1478 H1474 0.949 . S
C1478 C1486 1.574 . S
C1478 C1494 1.368 . S
H1479 C1487 0.950 . S
H1480 C1485 0.950 . S
H1481 C1486 0.949 . S
H1482 C1488 0.950 . S
H1483 C1489 0.950 . S
H1484 C1490 0.949 . S
C1485 H1480 0.950 . S
C1485 C1487 1.327 . S
C1485 C1491 1.429 . S
C1486 C1478 1.574 . S
C1486 H1481 0.949 . S
C1486 C1492 1.368 . S
C1487 C1471 1.349 . S
C1487 H1479 0.950 . S
C1487 C1485 1.327 . S
C1488 C1476 1.349 . S
C1488 H1482 0.950 . S
C1488 C1489 1.327 . S
C1489 H1483 0.950 . S
C1489 C1488 1.327 . S
C1489 C1493 1.429 . S
C1490 C1473 1.574 . S
C1490 H1484 0.949 . S
C1490 C1494 1.368 . S
C1491 C1472 1.429 . S
C1491 C1485 1.429 . S
C1491 C1492 1.523 . S
C1492 C1473 1.368 . S
C1492 C1486 1.368 . S
C1492 C1491 1.523 . S
C1493 C1477 1.429 . S
C1493 C1489 1.429 . S
C1493 C1494 1.523 . S
C1494 C1478 1.368 . S
C1494 C1490 1.368 . S
C1494 C1493 1.523 . S
H1495 C1470 0.950 . S
H1496 C1472 0.950 . S
H1497 C1473 0.949 . S
H1498 C1475 0.950 . S
H1499 C1477 0.950 . S
C1500 C1501 1.349 . S
C1500 C1502 1.327 . S
C1500 H1525 0.950 . S
C1501 C1500 1.349 . S
C1501 C1517 1.349 . S
C1502 C1500 1.327 . S
C1502 C1521 1.429 . S
C1502 H1526 0.950 . S
C1503 C1520 1.574 . S
C1503 C1522 1.368 . S
C1503 H1527 0.949 . S
H1504 C1508 0.949 . S
C1505 C1506 1.349 . S
C1505 C1507 1.327 . S
C1505 H1528 0.950 . S
C1506 C1505 1.349 . S
C1506 C1518 1.349 . S
C1507 C1505 1.327 . S
C1507 C1523 1.429 . S
C1507 H1529 0.950 . S
C1508 H1504 0.949 . S
C1508 C1516 1.574 . S
C1508 C1524 1.368 . S
H1509 C1517 0.950 . S
H1510 C1515 0.950 . S
H1511 C1516 0.949 . S
H1512 C1518 0.950 . S
H1513 C1519 0.950 . S
H1514 C1520 0.949 . S
C1515 H1510 0.950 . S
C1515 C1517 1.327 . S
C1515 C1521 1.429 . S
C1516 C1508 1.574 . S
C1516 H1511 0.949 . S
C1516 C1522 1.368 . S
C1517 C1501 1.349 . S
C1517 H1509 0.950 . S
C1517 C1515 1.327 . S
C1518 C1506 1.349 . S
C1518 H1512 0.950 . S
C1518 C1519 1.327 . S
C1519 H1513 0.950 . S
C1519 C1518 1.327 . S
C1519 C1523 1.429 . S
C1520 C1503 1.574 . S
C1520 H1514 0.949 . S
C1520 C1524 1.368 . S
C1521 C1502 1.429 . S
C1521 C1515 1.429 . S
C1521 C1522 1.523 . S
C1522 C1503 1.368 . S
C1522 C1516 1.368 . S
C1522 C1521 1.523 . S
C1523 C1507 1.429 . S
C1523 C1519 1.429 . S
C1523 C1524 1.523 . S
C1524 C1508 1.368 . S
C1524 C1520 1.368 . S
C1524 C1523 1.523 . S
H1525 C1500 0.950 . S
H1526 C1502 0.950 . S
H1527 C1503 0.949 . S
H1528 C1505 0.950 . S
H1529 C1507 0.950 . S
C1530 C1531 1.349 . S
C1530 C1532 1.327 . S
C1530 H1555 0.950 . S
C1531 C1530 1.349 . S
C1531 C1547 1.349 . S
C1532 C1530 1.327 . S
C1532 C1551 1.429 . S
C1532 H1556 0.950 . S
C1533 C1550 1.574 . S
C1533 C1552 1.368 . S
C1533 H1557 0.949 . S
H1534 C1538 0.949 . S
C1535 C1536 1.349 . S
C1535 C1537 1.327 . S
C1535 H1558 0.950 . S
C1536 C1535 1.349 . S
C1536 C1548 1.349 . S
C1537 C1535 1.327 . S
C1537 C1553 1.429 . S
C1537 H1559 0.950 . S
C1538 H1534 0.949 . S
C1538 C1546 1.574 . S
C1538 C1554 1.368 . S
H1539 C1547 0.950 . S
H1540 C1545 0.950 . S
H1541 C1546 0.949 . S
H1542 C1548 0.950 . S
H1543 C1549 0.950 . S
H1544 C1550 0.949 . S
C1545 H1540 0.950 . S
C1545 C1547 1.327 . S
C1545 C1551 1.429 . S
C1546 C1538 1.574 . S
C1546 H1541 0.949 . S
C1546 C1552 1.368 . S
C1547 C1531 1.349 . S
C1547 H1539 0.950 . S
C1547 C1545 1.327 . S
C1548 C1536 1.349 . S
C1548 H1542 0.950 . S
C1548 C1549 1.327 . S
C1549 H1543 0.950 . S
C1549 C1548 1.327 . S
C1549 C1553 1.429 . S
C1550 C1533 1.574 . S
C1550 H1544 0.949 . S
C1550 C1554 1.368 . S
C1551 C1532 1.429 . S
C1551 C1545 1.429 . S
C1551 C1552 1.523 . S
C1552 C1533 1.368 . S
C1552 C1546 1.368 . S
C1552 C1551 1.523 . S
C1553 C1537 1.429 . S
C1553 C1549 1.429 . S
C1553 C1554 1.523 . S
C1554 C1538 1.368 . S
C1554 C1550 1.368 . S
C1554 C1553 1.523 . S
H1555 C1530 0.950 . S
H1556 C1532 0.950 . S
H1557 C1533 0.949 . S
H1558 C1535 0.950 . S
H1559 C1537 0.950 . S
C1560 C1561 1.349 . S
C1560 C1562 1.327 . S
C1560 H1585 0.950 . S
C1561 C1560 1.349 . S
C1561 C1577 1.349 . S
C1562 C1560 1.327 . S
C1562 C1581 1.429 . S
C1562 H1586 0.950 . S
C1563 C1580 1.574 . S
C1563 C1582 1.368 . S
C1563 H1587 0.949 . S
H1564 C1568 0.949 . S
C1565 C1566 1.349 . S
C1565 C1567 1.327 . S
C1565 H1588 0.950 . S
C1566 C1565 1.349 . S
C1566 C1578 1.349 . S
C1567 C1565 1.327 . S
C1567 C1583 1.429 . S
C1567 H1589 0.950 . S
C1568 H1564 0.949 . S
C1568 C1576 1.574 . S
C1568 C1584 1.368 . S
H1569 C1577 0.950 . S
H1570 C1575 0.950 . S
H1571 C1576 0.949 . S
H1572 C1578 0.950 . S
H1573 C1579 0.950 . S
H1574 C1580 0.949 . S
C1575 H1570 0.950 . S
C1575 C1577 1.327 . S
C1575 C1581 1.429 . S
C1576 C1568 1.574 . S
C1576 H1571 0.949 . S
C1576 C1582 1.368 . S
C1577 C1561 1.349 . S
C1577 H1569 0.950 . S
C1577 C1575 1.327 . S
C1578 C1566 1.349 . S
C1578 H1572 0.950 . S
C1578 C1579 1.327 . S
C1579 H1573 0.950 . S
C1579 C1578 1.327 . S
C1579 C1583 1.429 . S
C1580 C1563 1.574 . S
C1580 H1574 0.949 . S
C1580 C1584 1.368 . S
C1581 C1562 1.429 . S
C1581 C1575 1.429 . S
C1581 C1582 1.523 . S
C1582 C1563 1.368 . S
C1582 C1576 1.368 . S
C1582 C1581 1.523 . S
C1583 C1567 1.429 . S
C1583 C1579 1.429 . S
C1583 C1584 1.523 . S
C1584 C1568 1.368 . S
C1584 C1580 1.368 . S
C1584 C1583 1.523 . S
H1585 C1560 0.950 . S
H1586 C1562 0.950 . S
H1587 C1563 0.949 . S
H1588 C1565 0.950 . S
H1589 C1567 0.950 . S
C1590 C1591 1.349 . S
C1590 C1592 1.327 . S
C1590 H1615 0.950 . S
C1591 C1590 1.349 . S
C1591 C1607 1.349 . S
C1592 C1590 1.327 . S
C1592 C1611 1.429 . S
C1592 H1616 0.950 . S
C1593 C1610 1.574 . S
C1593 C1612 1.368 . S
C1593 H1617 0.949 . S
H1594 C1598 0.949 . S
C1595 C1596 1.349 . S
C1595 C1597 1.327 . S
C1595 H1618 0.950 . S
C1596 C1595 1.349 . S
C1596 C1608 1.349 . S
C1597 C1595 1.327 . S
C1597 C1613 1.429 . S
C1597 H1619 0.950 . S
C1598 H1594 0.949 . S
C1598 C1606 1.574 . S
C1598 C1614 1.368 . S
H1599 C1607 0.950 . S
H1600 C1605 0.950 . S
H1601 C1606 0.949 . S
H1602 C1608 0.950 . S
H1603 C1609 0.950 . S
H1604 C1610 0.949 . S
C1605 H1600 0.950 . S
C1605 C1607 1.327 . S
C1605 C1611 1.429 . S
C1606 C1598 1.574 . S
C1606 H1601 0.949 . S
C1606 C1612 1.368 . S
C1607 C1591 1.349 . S
C1607 H1599 0.950 . S
C1607 C1605 1.327 . S
C1608 C1596 1.349 . S
C1608 H1602 0.950 . S
C1608 C1609 1.327 . S
C1609 H1603 0.950 . S
C1609 C1608 1.327 . S
C1609 C1613 1.429 . S
C1610 C1593 1.574 . S
C1610 H1604 0.949 . S
C1610 C1614 1.368 . S
C1611 C1592 1.429 . S
C1611 C1605 1.429 . S
C1611 C1612 1.523 . S
C1612 C1593 1.368 . S
C1612 C1606 1.368 . S
C1612 C1611 1.523 . S
C1613 C1597 1.429 . S
C1613 C1609 1.429 . S
C1613 C1614 1.523 . S
C1614 C1598 1.368 . S
C1614 C1610 1.368 . S
C1614 C1613 1.523 . S
H1615 C1590 0.950 . S
H1616 C1592 0.950 . S
H1617 C1593 0.949 . S
H1618 C1595 0.950 . S
H1619 C1597 0.950 . S
C1620 C1621 1.349 . S
C1620 C1622 1.327 . S
C1620 H1645 0.950 . S
C1621 C1620 1.349 . S
C1621 C1637 1.349 . S
C1622 C1620 1.327 . S
C1622 C1641 1.429 . S
C1622 H1646 0.950 . S
C1623 C1640 1.574 . S
C1623 C1642 1.368 . S
C1623 H1647 0.949 . S
H1624 C1628 0.949 . S
C1625 C1626 1.349 . S
C1625 C1627 1.327 . S
C1625 H1648 0.950 . S
C1626 C1625 1.349 . S
C1626 C1638 1.349 . S
C1627 C1625 1.327 . S
C1627 C1643 1.429 . S
C1627 H1649 0.950 . S
C1628 H1624 0.949 . S
C1628 C1636 1.574 . S
C1628 C1644 1.368 . S
H1629 C1637 0.950 . S
H1630 C1635 0.950 . S
H1631 C1636 0.949 . S
H1632 C1638 0.950 . S
H1633 C1639 0.950 . S
H1634 C1640 0.949 . S
C1635 H1630 0.950 . S
C1635 C1637 1.327 . S
C1635 C1641 1.429 . S
C1636 C1628 1.574 . S
C1636 H1631 0.949 . S
C1636 C1642 1.368 . S
C1637 C1621 1.349 . S
C1637 H1629 0.950 . S
C1637 C1635 1.327 . S
C1638 C1626 1.349 . S
C1638 H1632 0.950 . S
C1638 C1639 1.327 . S
C1639 H1633 0.950 . S
C1639 C1638 1.327 . S
C1639 C1643 1.429 . S
C1640 C1623 1.574 . S
C1640 H1634 0.949 . S
C1640 C1644 1.368 . S
C1641 C1622 1.429 . S
C1641 C1635 1.429 . S
C1641 C1642 1.523 . S
C1642 C1623 1.368 . S
C1642 C1636 1.368 . S
C1642 C1641 1.523 . S
C1643 C1627 1.429 . S
C1643 C1639 1.429 . S
C1643 C1644 1.523 . S
C1644 C1628 1.368 . S
C1644 C1640 1.368 . S
C1644 C1643 1.523 . S
H1645 C1620 0.950 . S
H1646 C1622 0.950 . S
H1647 C1623 0.949 . S
H1648 C1625 0.950 . S
H1649 C1627 0.950 . S
C1650 C1651 1.349 . S
C1650 C1652 1.327 . S
C1650 H1675 0.950 . S
C1651 C1650 1.349 . S
C1651 C1667 1.349 . S
C1652 C1650 1.327 . S
C1652 C1671 1.429 . S
C1652 H1676 0.950 . S
C1653 C1670 1.574 . S
C1653 C1672 1.368 . S
C1653 H1677 0.949 . S
H1654 C1658 0.949 . S
C1655 C1656 1.349 . S
C1655 C1657 1.327 . S
C1655 H1678 0.950 . S
C1656 C1655 1.349 . S
C1656 C1668 1.349 . S
C1657 C1655 1.327 . S
C1657 C1673 1.429 . S
C1657 H1679 0.950 . S
C1658 H1654 0.949 . S
C1658 C1666 1.574 . S
C1658 C1674 1.368 . S
H1659 C1667 0.950 . S
H1660 C1665 0.950 . S
H1661 C1666 0.949 . S
H1662 C1668 0.950 . S
H1663 C1669 0.950 . S
H1664 C1670 0.949 . S
C1665 H1660 0.950 . S
C1665 C1667 1.327 . S
C1665 C1671 1.429 . S
C1666 C1658 1.574 . S
C1666 H1661 0.949 . S
C1666 C1672 1.368 . S
C1667 C1651 1.349 . S
C1667 H1659 0.950 . S
C1667 C1665 1.327 . S
C1668 C1656 1.349 . S
C1668 H1662 0.950 . S
C1668 C1669 1.327 . S
C1669 H1663 0.950 . S
C1669 C1668 1.327 . S
C1669 C1673 1.429 . S
C1670 C1653 1.574 . S
C1670 H1664 0.949 . S
C1670 C1674 1.368 . S
C1671 C1652 1.429 . S
C1671 C1665 1.429 . S
C1671 C1672 1.523 . S
C1672 C1653 1.368 . S
C1672 C1666 1.368 . S
C1672 C1671 1.523 . S
C1673 C1657 1.429 . S
C1673 C1669 1.429 . S
C1673 C1674 1.523 . S
C1674 C1658 1.368 . S
C1674 C1670 1.368 . S
C1674 C1673 1.523 . S
H1675 C1650 0.950 . S
H1676 C1652 0.950 . S
H1677 C1653 0.949 . S
H1678 C1655 0.950 . S
H1679 C1657 0.950 . S
C1680 C1681 1.349 . S
C1680 C1682 1.327 . S
C1680 H1705 0.950 . S
C1681 C1680 1.349 . S
C1681 C1697 1.349 . S
C1682 C1680 1.327 . S
C1682 C1701 1.429 . S
C1682 H1706 0.950 . S
C1683 C1700 1.574 . S
C1683 C1702 1.368 . S
C1683 H1707 0.949 . S
H1684 C1688 0.949 . S
C1685 C1686 1.349 . S
C1685 C1687 1.327 . S
C1685 H1708 0.950 . S
C1686 C1685 1.349 . S
C1686 C1698 1.349 . S
C1687 C1685 1.327 . S
C1687 C1703 1.429 . S
C1687 H1709 0.950 . S
C1688 H1684 0.949 . S
C1688 C1696 1.574 . S
C1688 C1704 1.368 . S
H1689 C1697 0.950 . S
H1690 C1695 0.950 . S
H1691 C1696 0.949 . S
H1692 C1698 0.950 . S
H1693 C1699 0.950 . S
H1694 C1700 0.949 . S
C1695 H1690 0.950 . S
C1695 C1697 1.327 . S
C1695 C1701 1.429 . S
C1696 C1688 1.574 . S
C1696 H1691 0.949 . S
C1696 C1702 1.368 . S
C1697 C1681 1.349 . S
C1697 H1689 0.950 . S
C1697 C1695 1.327 . S
C1698 C1686 1.349 . S
C1698 H1692 0.950 . S
C1698 C1699 1.327 . S
C1699 H1693 0.950 . S
C1699 C1698 1.327 . S
C1699 C1703 1.429 . S
C1700 C1683 1.574 . S
C1700 H1694 0.949 . S
C1700 C1704 1.368 . S
C1701 C1682 1.429 . S
C1701 C1695 1.429 . S
C1701 C1702 1.523 . S
C1702 C1683 1.368 . S
C1702 C1696 1.368 . S
C1702 C1701 1.523 . S
C1703 C1687 1.429 . S
C1703 C1699 1.429 . S
C1703 C1704 1.523 . S
C1704 C1688 1.368 . S
C1704 C1700 1.368 . S
C1704 C1703 1.523 . S
H1705 C1680 0.950 . S
H1706 C1682 0.950 . S
H1707 C1683 0.949 . S
H1708 C1685 0.950 . S
H1709 C1687 0.950 . S
C1710 C1711 1.349 . S
C1710 C1712 1.327 . S
C1710 H1735 0.950 . S
C1711 C1710 1.349 . S
C1711 C1727 1.349 . S
C1712 C1710 1.327 . S
C1712 C1731 1.429 . S
C1712 H1736 0.950 . S
C1713 C1730 1.574 . S
C1713 C1732 1.368 . S
C1713 H1737 0.949 . S
H1714 C1718 0.949 . S
C1715 C1716 1.349 . S
C1715 C1717 1.327 . S
C1715 H1738 0.950 . S
C1716 C1715 1.349 . S
C1716 C1728 1.349 . S
C1717 C1715 1.327 . S
C1717 C1733 1.429 . S
C1717 H1739 0.950 . S
C1718 H1714 0.949 . S
C1718 C1726 1.574 . S
C1718 C1734 1.368 . S
H1719 C1727 0.950 . S
H1720 C1725 0.950 . S
H1721 C1726 0.949 . S
H1722 C1728 0.950 . S
H1723 C1729 0.950 . S
H1724 C1730 0.949 . S
C1725 H1720 0.950 . S
C1725 C1727 1.327 . S
C1725 C1731 1.429 . S
C1726 C1718 1.574 . S
C1726 H1721 0.949 . S
C1726 C1732 1.368 . S
C1727 C1711 1.349 . S
C1727 H1719 0.950 . S
C1727 C1725 1.327 . S
C1728 C1716 1.349 . S
C1728 H1722 0.950 . S
C1728 C1729 1.327 . S
C1729 H1723 0.950 . S
C1729 C1728 1.327 . S
C1729 C1733 1.429 . S
C1730 C1713 1.574 . S
C1730 H1724 0.949 . S
C1730 C1734 1.368 . S
C1731 C1712 1.429 . S
C1731 C1725 1.429 . S
C1731 C1732 1.523 . S
C1732 C1713 1.368 . S
C1732 C1726 1.368 . S
C1732 C1731 1.523 . S
C1733 C1717 1.429 . S
C1733 C1729 1.429 . S
C1733 C1734 1.523 . S
C1734 C1718 1.368 . S
C1734 C1730 1.368 . S
C1734 C1733 1.523 . S
H1735 C1710 0.950 . S
H1736 C1712 0.950 . S
H1737 C1713 0.949 . S
H1738 C1715 0.950 . S
H1739 C1717 0.950 . S
C1740 C1741 1.349 . S
C1740 C1742 1.327 . S
C1740 H1765 0.950 . S
C1741 C1740 1.349 . S
C1741 C1757 1.349 . S
C1742 C1740 1.327 . S
C1742 C1761 1.429 . S
C1742 H1766 0.950 . S
C1743 C1760 1.574 . S
C1743 C1762 1.368 . S
C1743 H1767 0.949 . S
H1744 C1748 0.949 . S
C1745 C1746 1.349 . S
C1745 C1747 1.327 . S
C1745 H1768 0.950 . S
C1746 C1745 1.349 . S
C1746 C1758 1.349 . S
C1747 C1745 1.327 . S
C1747 C1763 1.429 . S
C1747 H1769 0.950 . S
C1748 H1744 0.949 . S
C1748 C1756 1.574 . S
C1748 C1764 1.368 . S
H1749 C1757 0.950 . S
H1750 C1755 0.950 . S
H1751 C1756 0.949 . S
H1752 C1758 0.950 . S
H1753 C1759 0.950 . S
H1754 C1760 0.949 . S
C1755 H1750 0.950 . S
C1755 C1757 1.327 . S
C1755 C1761 1.429 . S
C1756 C1748 1.574 . S
C1756 H1751 0.949 . S
C1756 C1762 1.368 . S
C1757 C1741 1.349 . S
C1757 H1749 0.950 . S
C1757 C1755 1.327 . S
C1758 C1746 1.349 . S
C1758 H1752 0.950 . S
C1758 C1759 1.327 . S
C1759 H1753 0.950 . S
C1759 C1758 1.327 . S
C1759 C1763 1.429 . S
C1760 C1743 1.574 . S
C1760 H1754 0.949 . S
C1760 C1764 1.368 . S
C1761 C1742 1.429 . S
C1761 C1755 1.429 . S
C1761 C1762 1.523 . S
C1762 C1743 1.368 . S
C1762 C1756 1.368 . S
C1762 C1761 1.523 . S
C1763 C1747 1.429 . S
C1763 C1759 1.429 . S
C1763 C1764 1.523 . S
C1764 C1748 1.368 . S
C1764 C1760 1.368 . S
C1764 C1763 1.523 . S
H1765 C1740 0.950 . S
H1766 C1742 0.950 . S
H1767 C1743 0.949 . S
H1768 C1745 0.950 . S
H1769 C1747 0.950 . S
C1770 C1771 1.349 . S
C1770 C1772 1.327 . S
C1770 H1795 0.950 . S
C1771 C1770 1.349 . S
C1771 C1787 1.349 . S
C1772 C1770 1.327 . S
C1772 C1791 1.429 . S
C1772 H1796 0.950 . S
C1773 C1790 1.574 . S
C1773 C1792 1.368 . S
C1773 H1797 0.949 . S
H1774 C1778 0.949 . S
C1775 C1776 1.349 . S
C1775 C1777 1.327 . S
C1775 H1798 0.950 . S
C1776 C1775 1.349 . S
C1776 C1788 1.349 . S
C1777 C1775 1.327 . S
C1777 C1793 1.429 . S
C1777 H1799 0.950 . S
C1778 H1774 0.949 . S
C1778 C1786 1.574 . S
C1778 C1794 1.368 . S
H1779 C1787 0.950 . S
H1780 C1785 0.950 . S
H1781 C1786 0.949 . S
H1782 C1788 0.950 . S
H1783 C1789 0.950 . S
H1784 C1790 0.949 . S
C1785 H1780 0.950 . S
C1785 C1787 1.327 . S
C1785 C1791 1.429 . S
C1786 C1778 1.574 . S
C1786 H1781 0.949 . S
C1786 C1792 1.368 . S
C1787 C1771 1.349 . S
C1787 H1779 0.950 . S
C1787 C1785 1.327 . S
C1788 C1776 1.349 . S
C1788 H1782 0.950 . S
C1788 C1789 1.327 . S
C1789 H1783 0.950 . S
C1789 C1788 1.327 . S
C1789 C1793 1.429 . S
C1790 C1773 1.574 . S
C1790 H1784 0.949 . S
C1790 C1794 1.368 . S
C1791 C1772 1.429 . S
C1791 C1785 1.429 . S
C1791 C1792 1.523 . S
C1792 C1773 1.368 . S
C1792 C1786 1.368 . S
C1792 C1791 1.523 . S
C1793 C1777 1.429 . S
C1793 C1789 1.429 . S
C1793 C1794 1.523 . S
C1794 C1778 1.368 . S
C1794 C1790 1.368 . S
C1794 C1793 1.523 . S
H1795 C1770 0.950 . S
H1796 C1772 0.950 . S
H1797 C1773 0.949 . S
H1798 C1775 0.950 . S
H1799 C1777 0.950 . S
C1800 C1801 1.349 . S
C1800 C1802 1.327 . S
C1800 H1825 0.950 . S
C1801 C1800 1.349 . S
C1801 C1817 1.349 . S
C1802 C1800 1.327 . S
C1802 C1821 1.429 . S
C1802 H1826 0.950 . S
C1803 C1820 1.574 . S
C1803 C1822 1.368 . S
C1803 H1827 0.949 . S
H1804 C1808 0.949 . S
C1805 C1806 1.349 . S
C1805 C1807 1.327 . S
C1805 H1828 0.950 . S
C1806 C1805 1.349 . S
C1806 C1818 1.349 . S
C1807 C1805 1.327 . S
C1807 C1823 1.429 . S
C1807 H1829 0.950 . S
C1808 H1804 0.949 . S
C1808 C1816 1.574 . S
C1808 C1824 1.368 . S
H1809 C1817 0.950 . S
H1810 C1815 0.950 . S
H1811 C1816 0.949 . S
H1812 C1818 0.950 . S
H1813 C1819 0.950 . S
H1814 C1820 0.949 . S
C1815 H1810 0.950 . S
C1815 C1817 1.327 . S
C1815 C1821 1.429 . S
C1816 C1808 1.574 . S
C1816 H1811 0.949 . S
C1816 C1822 1.368 . S
C1817 C1801 1.349 . S
C1817 H1809 0.950 . S
C1817 C1815 1.327 . S
C1818 C1806 1.349 . S
C1818 H1812 0.950 . S
C1818 C1819 1.327 . S
C1819 H1813 0.950 . S
C1819 C1818 1.327 . S
C1819 C1823 1.429 . S
C1820 C1803 1.574 . S
C1820 H1814 0.949 . S
C1820 C1824 1.368 . S
C1821 C1802 1.429 . S
C1821 C1815 1.429 . S
C1821 C1822 1.523 . S
C1822 C1803 1.368 . S
C1822 C1816 1.368 . S
C1822 C1821 1.523 . S
C1823 C1807 1.429 . S
C1823 C1819 1.429 . S
C1823 C1824 1.523 . S
C1824 C1808 1.368 . S
C1824 C1820 1.368 . S
C1824 C1823 1.523 . S
H1825 C1800 0.950 . S
H1826 C1802 0.950 . S
H1827 C1803 0.949 . S
H1828 C1805 0.950 . S
H1829 C1807 0.950 . S
C1830 C1831 1.349 . S
C1830 C1832 1.327 . S
C1830 H1855 0.950 . S
C1831 C1830 1.349 . S
C1831 C1847 1.349 . S
C1832 C1830 1.327 . S
C1832 C1851 1.429 . S
C1832 H1856 0.950 . S
C1833 C1850 1.574 . S
C1833 C1852 1.368 . S
C1833 H1857 0.949 . S
H1834 C1838 0.949 . S
C1835 C1836 1.349 . S
C1835 C1837 1.327 . S
C1835 H1858 0.950 . S
C1836 C1835 1.349 . S
C1836 C1848 1.349 . S
C1837 C1835 1.327 . S
C1837 C1853 1.429 . S
C1837 H1859 0.950 . S
C1838 H1834 0.949 . S
C1838 C1846 1.574 . S
C1838 C1854 1.368 . S
H1839 C1847 0.950 . S
H1840 C1845 0.950 . S
H1841 C1846 0.949 . S
H1842 C1848 0.950 . S
H1843 C1849 0.950 . S
H1844 C1850 0.949 . S
C1845 H1840 0.950 . S
C1845 C1847 1.327 . S
C1845 C1851 1.429 . S
C1846 C1838 1.574 . S
C1846 H1841 0.949 . S
C1846 C1852 1.368 . S
C1847 C1831 1.349 . S
C1847 H1839 0.950 . S
C1847 C1845 1.327 . S
C1848 C1836 1.349 . S
C1848 H1842 0.950 . S
C1848 C1849 1.327 . S
C1849 H1843 0.950 . S
C1849 C1848 1.327 . S
C1849 C1853 1.429 . S
C1850 C1833 1.574 . S
C1850 H1844 0.949 . S
C1850 C1854 1.368 . S
C1851 C1832 1.429 . S
C1851 C1845 1.429 . S
C1851 C1852 1.523 . S
C1852 C1833 1.368 . S
C1852 C1846 1.368 . S
C1852 C1851 1.523 . S
C1853 C1837 1.429 . S
C1853 C1849 1.429 . S
C1853 C1854 1.523 . S
C1854 C1838 1.368 . S
C1854 C1850 1.368 . S
C1854 C1853 1.523 . S
H1855 C1830 0.950 . S
H1856 C1832 0.950 . S
H1857 C1833 0.949 . S
H1858 C1835 0.950 . S
H1859 C1837 0.950 . S
C1860 C1861 1.349 . S
C1860 C1862 1.327 . S
C1860 H1885 0.950 . S
C1861 C1860 1.349 . S
C1861 C1877 1.349 . S
C1862 C1860 1.327 . S
C1862 C1881 1.429 . S
C1862 H1886 0.950 . S
C1863 C1880 1.574 . S
C1863 C1882 1.368 . S
C1863 H1887 0.949 . S
H1864 C1868 0.949 . S
C1865 C1866 1.349 . S
C1865 C1867 1.327 . S
C1865 H1888 0.950 . S
C1866 C1865 1.349 . S
C1866 C1878 1.349 . S
C1867 C1865 1.327 . S
C1867 C1883 1.429 . S
C1867 H1889 0.950 . S
C1868 H1864 0.949 . S
C1868 C1876 1.574 . S
C1868 C1884 1.368 . S
H1869 C1877 0.950 . S
H1870 C1875 0.950 . S
H1871 C1876 0.949 . S
H1872 C1878 0.950 . S
H1873 C1879 0.950 . S
H1874 C1880 0.949 . S
C1875 H1870 0.950 . S
C1875 C1877 1.327 . S
C1875 C1881 1.429 . S
C1876 C1868 1.574 . S
C1876 H1871 0.949 . S
C1876 C1882 1.368 . S
C1877 C1861 1.349 . S
C1877 H1869 0.950 . S
C1877 C1875 1.327 . S
C1878 C1866 1.349 . S
C1878 H1872 0.950 . S
C1878 C1879 1.327 . S
C1879 H1873 0.950 . S
C1879 C1878 1.327 . S
C1879 C1883 1.429 . S
C1880 C1863 1.574 . S
C1880 H1874 0.949 . S
C1880 C1884 1.368 . S
C1881 C1862 1.429 . S
C1881 C1875 1.429 . S
C1881 C1882 1.523 . S
C1882 C1863 1.368 . S
C1882 C1876 1.368 . S
C1882 C1881 1.523 . S
C1883 C1867 1.429 . S
C1883 C1879 1.429 . S
C1883 C1884 1.523 . S
C1884 C1868 1.368 . S
C1884 C1880 1.368 . S
C1884 C1883 1.523 . S
H1885 C1860 0.950 . S
H1886 C1862 0.950 . S
H1887 C1863 0.949 . S
H1888 C1865 0.950 . S
H1889 C1867 0.950 . S
C1890 C1891 1.349 . S
C1890 C1892 1.327 . S
C1890 H1915 0.950 . S
C1891 C1890 1.349 . S
C1891 C1907 1.349 . S
C1892 C1890 1.327 . S
C1892 C1911 1.429 . S
C1892 H1916 0.950 . S
C1893 C1910 1.574 . S
C1893 C1912 1.368 . S
C1893 H1917 0.949 . S
H1894 C1898 0.949 . S
C1895 C1896 1.349 . S
C1895 C1897 1.327 . S
C1895 H1918 0.950 . S
C1896 C1895 1.349 . S
C1896 C1908 1.349 . S
C1897 C1895 1.327 . S
C1897 C1913 1.429 . S
C1897 H1919 0.950 . S
C1898 H1894 0.949 . S
C1898 C1906 1.574 . S
C1898 C1914 1.368 . S
H1899 C1907 0.950 . S
H1900 C1905 0.950 . S
H1901 C1906 0.949 . S
H1902 C1908 0.950 . S
H1903 C1909 0.950 . S
H1904 C1910 0.949 . S
C1905 H1900 0.950 . S
C1905 C1907 1.327 . S
C1905 C1911 1.429 . S
C1906 C1898 1.574 . S
C1906 H1901 0.949 . S
C1906 C1912 1.368 . S
C1907 C1891 1.349 . S
C1907 H1899 0.950 . S
C1907 C1905 1.327 . S
C1908 C1896 1.349 . S
C1908 H1902 0.950 . S
C1908 C1909 1.327 . S
C1909 H1903 0.950 . S
C1909 C1908 1.327 . S
C1909 C1913 1.429 . S
C1910 C1893 1.574 . S
C1910 H1904 0.949 . S
C1910 C1914 1.368 . S
C1911 C1892 1.429 . S
C1911 C1905 1.429 . S
C1911 C1912 1.523 . S
C1912 C1893 1.368 . S
C1912 C1906 1.368 . S
C1912 C1911 1.523 . S
C1913 C1897 1.429 . S
C1913 C1909 1.429 . S
C1913 C1914 1.523 . S
C1914 C1898 1.368 . S
C1914 C1910 1.368 . S
C1914 C1913 1.523 . S
H1915 C1890 0.950 . S
H1916 C1892 0.950 . S
H1917 C1893 0.949 . S
H1918 C1895 0.950 . S
H1919 C1897 0.950 . S
C1920 C1921 1.349 . S
C1920 C1922 1.327 . S
C1920 H1945 0.950 . S
C1921 C1920 1.349 . S
C1921 C1937 1.349 . S
C1922 C1920 1.327 . S
C1922 C1941 1.429 . S
C1922 H1946 0.950 . S
C1923 C1940 1.574 . S
C1923 C1942 1.368 . S
C1923 H1947 0.949 . S
H1924 C1928 0.949 . S
C1925 C1926 1.349 . S
C1925 C1927 1.327 . S
C1925 H1948 0.950 . S
C1926 C1925 1.349 . S
C1926 C1938 1.349 . S
C1927 C1925 1.327 . S
C1927 C1943 1.429 . S
C1927 H1949 0.950 . S
C1928 H1924 0.949 . S
C1928 C1936 1.574 . S
C1928 C1944 1.368 . S
H1929 C1937 0.950 . S
H1930 C1935 0.950 . S
H1931 C1936 0.949 . S
H1932 C1938 0.950 . S
H1933 C1939 0.950 . S
H1934 C1940 0.949 . S
C1935 H1930 0.950 . S
C1935 C1937 1.327 . S
C1935 C1941 1.429 . S
C1936 C1928 1.574 . S
C1936 H1931 0.949 . S
C1936 C1942 1.368 . S
C1937 C1921 1.349 . S
C1937 H1929 0.950 . S
C1937 C1935 1.327 . S
C1938 C1926 1.349 . S
C1938 H1932 0.950 . S
C1938 C1939 1.327 . S
C1939 H1933 0.950 . S
C1939 C1938 1.327 . S
C1939 C1943 1.429 . S
C1940 C1923 1.574 . S
C1940 H1934 0.949 . S
C1940 C1944 1.368 . S
C1941 C1922 1.429 . S
C1941 C1935 1.429 . S
C1941 C1942 1.523 . S
C1942 C1923 1.368 . S
C1942 C1936 1.368 . S
C1942 C1941 1.523 . S
C1943 C1927 1.429 . S
C1943 C1939 1.429 . S
C1943 C1944 1.523 . S
C1944 C1928 1.368 . S
C1944 C1940 1.368 . S
C1944 C1943 1.523 . S
H1945 C1920 0.950 . S
H1946 C1922 0.950 . S
H1947 C1923 0.949 . S
H1948 C1925 0.950 . S
H1949 C1927 0.950 . S
C1950 C1951 1.349 . S
C1950 C1952 1.327 . S
C1950 H1975 0.950 . S
C1951 C1950 1.349 . S
C1951 C1967 1.349 . S
C1952 C1950 1.327 . S
C1952 C1971 1.429 . S
C1952 H1976 0.950 . S
C1953 C1970 1.574 . S
C1953 C1972 1.368 . S
C1953 H1977 0.949 . S
H1954 C1958 0.949 . S
C1955 C1956 1.349 . S
C1955 C1957 1.327 . S
C1955 H1978 0.950 . S
C1956 C1955 1.349 . S
C1956 C1968 1.349 . S
C1957 C1955 1.327 . S
C1957 C1973 1.429 . S
C1957 H1979 0.950 . S
C1958 H1954 0.949 . S
C1958 C1966 1.574 . S
C1958 C1974 1.368 . S
H1959 C1967 0.950 . S
H1960 C1965 0.950 . S
H1961 C1966 0.949 . S
H1962 C1968 0.950 . S
H1963 C1969 0.950 . S
H1964 C1970 0.949 . S
C1965 H1960 0.950 . S
C1965 C1967 1.327 . S
C1965 C1971 1.429 . S
C1966 C1958 1.574 . S
C1966 H1961 0.949 . S
C1966 C1972 1.368 . S
C1967 C1951 1.349 . S
C1967 H1959 0.950 . S
C1967 C1965 1.327 . S
C1968 C1956 1.349 . S
C1968 H1962 0.950 . S
C1968 C1969 1.327 . S
C1969 H1963 0.950 . S
C1969 C1968 1.327 . S
C1969 C1973 1.429 . S
C1970 C1953 1.574 . S
C1970 H1964 0.949 . S
C1970 C1974 1.368 . S
C1971 C1952 1.429 . S
C1971 C1965 1.429 . S
C1971 C1972 1.523 . S
C1972 C1953 1.368 . S
C1972 C1966 1.368 . S
C1972 C1971 1.523 . S
C1973 C1957 1.429 . S
C1973 C1969 1.429 . S
C1973 C1974 1.523 . S
C1974 C1958 1.368 . S
C1974 C1970 1.368 . S
C1974 C1973 1.523 . S
H1975 C1950 0.950 . S
H1976 C1952 0.950 . S
H1977 C1953 0.949 . S
H1978 C1955 0.950 . S
H1979 C1957 0.950 . S
C1980 C1981 1.349 . S
C1980 C1982 1.327 . S
C1980 H2005 0.950 . S
C1981 C1980 1.349 . S
C1981 C1997 1.349 . S
C1982 C1980 1.327 . S
C1982 C2001 1.429 . S
C1982 H2006 0.950 . S
C1983 C2000 1.574 . S
C1983 C2002 1.368 . S
C1983 H2007 0.949 . S
H1984 C1988 0.949 . S
C1985 C1986 1.349 . S
C1985 C1987 1.327 . S
C1985 H2008 0.950 . S
C1986 C1985 1.349 . S
C1986 C1998 1.349 . S
C1987 C1985 1.327 . S
C1987 C2003 1.429 . S
C1987 H2009 0.950 . S
C1988 H1984 0.949 . S
C1988 C1996 1.574 . S
C1988 C2004 1.368 . S
H1989 C1997 0.950 . S
H1990 C1995 0.950 . S
H1991 C1996 0.949 . S
H1992 C1998 0.950 . S
H1993 C1999 0.950 . S
H1994 C2000 0.949 . S
C1995 H1990 0.950 . S
C1995 C1997 1.327 . S
C1995 C2001 1.429 . S
C1996 C1988 1.574 . S
C1996 H1991 0.949 . S
C1996 C2002 1.368 . S
C1997 C1981 1.349 . S
C1997 H1989 0.950 . S
C1997 C1995 1.327 . S
C1998 C1986 1.349 . S
C1998 H1992 0.950 . S
C1998 C1999 1.327 . S
C1999 H1993 0.950 . S
C1999 C1998 1.327 . S
C1999 C2003 1.429 . S
C2000 C1983 1.574 . S
C2000 H1994 0.949 . S
C2000 C2004 1.368 . S
C2001 C1982 1.429 . S
C2001 C1995 1.429 . S
C2001 C2002 1.523 . S
C2002 C1983 1.368 . S
C2002 C1996 1.368 . S
C2002 C2001 1.523 . S
C2003 C1987 1.429 . S
C2003 C1999 1.429 . S
C2003 C2004 1.523 . S
C2004 C1988 1.368 . S
C2004 C2000 1.368 . S
C2004 C2003 1.523 . S
H2005 C1980 0.950 . S
H2006 C1982 0.950 . S
H2007 C1983 0.949 . S
H2008 C1985 0.950 . S
H2009 C1987 0.950 . S
C2010 C2011 1.349 . S
C2010 C2012 1.327 . S
C2010 H2035 0.950 . S
C2011 C2010 1.349 . S
C2011 C2027 1.349 . S
C2012 C2010 1.327 . S
C2012 C2031 1.429 . S
C2012 H2036 0.950 . S
C2013 C2030 1.574 . S
C2013 C2032 1.368 . S
C2013 H2037 0.949 . S
H2014 C2018 0.949 . S
C2015 C2016 1.349 . S
C2015 C2017 1.327 . S
C2015 H2038 0.950 . S
C2016 C2015 1.349 . S
C2016 C2028 1.349 . S
C2017 C2015 1.327 . S
C2017 C2033 1.429 . S
C2017 H2039 0.950 . S
C2018 H2014 0.949 . S
C2018 C2026 1.574 . S
C2018 C2034 1.368 . S
H2019 C2027 0.950 . S
H2020 C2025 0.950 . S
H2021 C2026 0.949 . S
H2022 C2028 0.950 . S
H2023 C2029 0.950 . S
H2024 C2030 0.949 . S
C2025 H2020 0.950 . S
C2025 C2027 1.327 . S
C2025 C2031 1.429 . S
C2026 C2018 1.574 . S
C2026 H2021 0.949 . S
C2026 C2032 1.368 . S
C2027 C2011 1.349 . S
C2027 H2019 0.950 . S
C2027 C2025 1.327 . S
C2028 C2016 1.349 . S
C2028 H2022 0.950 . S
C2028 C2029 1.327 . S
C2029 H2023 0.950 . S
C2029 C2028 1.327 . S
C2029 C2033 1.429 . S
C2030 C2013 1.574 . S
C2030 H2024 0.949 . S
C2030 C2034 1.368 . S
C2031 C2012 1.429 . S
C2031 C2025 1.429 . S
C2031 C2032 1.523 . S
C2032 C2013 1.368 . S
C2032 C2026 1.368 . S
C2032 C2031 1.523 . S
C2033 C2017 1.429 . S
C2033 C2029 1.429 . S
C2033 C2034 1.523 . S
C2034 C2018 1.368 . S
C2034 C2030 1.368 . S
C2034 C2033 1.523 . S
H2035 C2010 0.950 . S
H2036 C2012 0.950 . S
H2037 C2013 0.949 . S
H2038 C2015 0.950 . S
H2039 C2017 0.950 . S
C2040 C2041 1.349 . S
C2040 C2042 1.327 . S
C2040 H2065 0.950 . S
C2041 C2040 1.349 . S
C2041 C2057 1.349 . S
C2042 C2040 1.327 . S
C2042 C2061 1.429 . S
C2042 H2066 0.950 . S
C2043 C2060 1.574 . S
C2043 C2062 1.368 . S
C2043 H2067 0.949 . S
H2044 C2048 0.949 . S
C2045 C2046 1.349 . S
C2045 C2047 1.327 . S
C2045 H2068 0.950 . S
C2046 C2045 1.349 . S
C2046 C2058 1.349 . S
C2047 C2045 1.327 . S
C2047 C2063 1.429 . S
C2047 H2069 0.950 . S
C2048 H2044 0.949 . S
C2048 C2056 1.574 . S
C2048 C2064 1.368 . S
H2049 C2057 0.950 . S
H2050 C2055 0.950 . S
H2051 C2056 0.949 . S
H2052 C2058 0.950 . S
H2053 C2059 0.950 . S
H2054 C2060 0.949 . S
C2055 H2050 0.950 . S
C2055 C2057 1.327 . S
C2055 C2061 1.429 . S
C2056 C2048 1.574 . S
C2056 H2051 0.949 . S
C2056 C2062 1.368 . S
C2057 C2041 1.349 . S
C2057 H2049 0.950 . S
C2057 C2055 1.327 . S
C2058 C2046 1.349 . S
C2058 H2052 0.950 . S
C2058 C2059 1.327 . S
C2059 H2053 0.950 . S
C2059 C2058 1.327 . S
C2059 C2063 1.429 . S
C2060 C2043 1.574 . S
C2060 H2054 0.949 . S
C2060 C2064 1.368 . S
C2061 C2042 1.429 . S
C2061 C2055 1.429 . S
C2061 C2062 1.523 . S
C2062 C2043 1.368 . S
C2062 C2056 1.368 . S
C2062 C2061 1.523 . S
C2063 C2047 1.429 . S
C2063 C2059 1.429 . S
C2063 C2064 1.523 . S
C2064 C2048 1.368 . S
C2064 C2060 1.368 . S
C2064 C2063 1.523 . S
H2065 C2040 0.950 . S
H2066 C2042 0.950 . S
H2067 C2043 0.949 . S
H2068 C2045 0.950 . S
H2069 C2047 0.950 . S
C2070 C2071 1.349 . S
C2070 C2072 1.327 . S
C2070 H2095 0.950 . S
C2071 C2070 1.349 . S
C2071 C2087 1.349 . S
C2072 C2070 1.327 . S
C2072 C2091 1.429 . S
C2072 H2096 0.950 . S
C2073 C2090 1.574 . S
C2073 C2092 1.368 . S
C2073 H2097 0.949 . S
H2074 C2078 0.949 . S
C2075 C2076 1.349 . S
C2075 C2077 1.327 . S
C2075 H2098 0.950 . S
C2076 C2075 1.349 . S
C2076 C2088 1.349 . S
C2077 C2075 1.327 . S
C2077 C2093 1.429 . S
C2077 H2099 0.950 . S
C2078 H2074 0.949 . S
C2078 C2086 1.574 . S
C2078 C2094 1.368 . S
H2079 C2087 0.950 . S
H2080 C2085 0.950 . S
H2081 C2086 0.949 . S
H2082 C2088 0.950 . S
H2083 C2089 0.950 . S
H2084 C2090 0.949 . S
C2085 H2080 0.950 . S
C2085 C2087 1.327 . S
C2085 C2091 1.429 . S
C2086 C2078 1.574 . S
C2086 H2081 0.949 . S
C2086 C2092 1.368 . S
C2087 C2071 1.349 . S
C2087 H2079 0.950 . S
C2087 C2085 1.327 . S
C2088 C2076 1.349 . S
C2088 H2082 0.950 . S
C2088 C2089 1.327 . S
C2089 H2083 0.950 . S
C2089 C2088 1.327 . S
C2089 C2093 1.429 . S
C2090 C2073 1.574 . S
C2090 H2084 0.949 . S
C2090 C2094 1.368 . S
C2091 C2072 1.429 . S
C2091 C2085 1.429 . S
C2091 C2092 1.523 . S
C2092 C2073 1.368 . S
C2092 C2086 1.368 . S
C2092 C2091 1.523 . S
C2093 C2077 1.429 . S
C2093 C2089 1.429 . S
C2093 C2094 1.523 . S
C2094 C2078 1.368 . S
C2094 C2090 1.368 . S
C2094 C2093 1.523 . S
H2095 C2070 0.950 . S
H2096 C2072 0.950 . S
H2097 C2073 0.949 . S
H2098 C2075 0.950 . S
H2099 C2077 0.950 . S
C2100 C2101 1.349 . S
C2100 C2102 1.327 . S
C2100 H2125 0.950 . S
C2101 C2100 1.349 . S
C2101 C2117 1.349 . S
C2102 C2100 1.327 . S
C2102 C2121 1.429 . S
C2102 H2126 0.950 . S
C2103 C2120 1.574 . S
C2103 C2122 1.368 . S
C2103 H2127 0.949 . S
H2104 C2108 0.949 . S
C2105 C2106 1.349 . S
C2105 C2107 1.327 . S
C2105 H2128 0.950 . S
C2106 C2105 1.349 . S
C2106 C2118 1.349 . S
C2107 C2105 1.327 . S
C2107 C2123 1.429 . S
C2107 H2129 0.950 . S
C2108 H2104 0.949 . S
C2108 C2116 1.574 . S
C2108 C2124 1.368 . S
H2109 C2117 0.950 . S
H2110 C2115 0.950 . S
H2111 C2116 0.949 . S
H2112 C2118 0.950 . S
H2113 C2119 0.950 . S
H2114 C2120 0.949 . S
C2115 H2110 0.950 . S
C2115 C2117 1.327 . S
C2115 C2121 1.429 . S
C2116 C2108 1.574 . S
C2116 H2111 0.949 . S
C2116 C2122 1.368 . S
C2117 C2101 1.349 . S
C2117 H2109 0.950 . S
C2117 C2115 1.327 . S
C2118 C2106 1.349 . S
C2118 H2112 0.950 . S
C2118 C2119 1.327 . S
C2119 H2113 0.950 . S
C2119 C2118 1.327 . S
C2119 C2123 1.429 . S
C2120 C2103 1.574 . S
C2120 H2114 0.949 . S
C2120 C2124 1.368 . S
C2121 C2102 1.429 . S
C2121 C2115 1.429 . S
C2121 C2122 1.523 . S
C2122 C2103 1.368 . S
C2122 C2116 1.368 . S
C2122 C2121 1.523 . S
C2123 C2107 1.429 . S
C2123 C2119 1.429 . S
C2123 C2124 1.523 . S
C2124 C2108 1.368 . S
C2124 C2120 1.368 . S
C2124 C2123 1.523 . S
H2125 C2100 0.950 . S
H2126 C2102 0.950 . S
H2127 C2103 0.949 . S
H2128 C2105 0.950 . S
H2129 C2107 0.950 . S
C2130 C2131 1.349 . S
C2130 C2132 1.327 . S
C2130 H2155 0.950 . S
C2131 C2130 1.349 . S
C2131 C2147 1.349 . S
C2132 C2130 1.327 . S
C2132 C2151 1.429 . S
C2132 H2156 0.950 . S
C2133 C2150 1.574 . S
C2133 C2152 1.368 . S
C2133 H2157 0.949 . S
H2134 C2138 0.949 . S
C2135 C2136 1.349 . S
C2135 C2137 1.327 . S
C2135 H2158 0.950 . S
C2136 C2135 1.349 . S
C2136 C2148 1.349 . S
C2137 C2135 1.327 . S
C2137 C2153 1.429 . S
C2137 H2159 0.950 . S
C2138 H2134 0.949 . S
C2138 C2146 1.574 . S
C2138 C2154 1.368 . S
H2139 C2147 0.950 . S
H2140 C2145 0.950 . S
H2141 C2146 0.949 . S
H2142 C2148 0.950 . S
H2143 C2149 0.950 . S
H2144 C2150 0.949 . S
C2145 H2140 0.950 . S
C2145 C2147 1.327 . S
C2145 C2151 1.429 . S
C2146 C2138 1.574 . S
C2146 H2141 0.949 . S
C2146 C2152 1.368 . S
C2147 C2131 1.349 . S
C2147 H2139 0.950 . S
C2147 C2145 1.327 . S
C2148 C2136 1.349 . S
C2148 H2142 0.950 . S
C2148 C2149 1.327 . S
C2149 H2143 0.950 . S
C2149 C2148 1.327 . S
C2149 C2153 1.429 . S
C2150 C2133 1.574 . S
C2150 H2144 0.949 . S
C2150 C2154 1.368 . S
C2151 C2132 1.429 . S
C2151 C2145 1.429 . S
C2151 C2152 1.523 . S
C2152 C2133 1.368 . S
C2152 C2146 1.368 . S
C2152 C2151 1.523 . S
C2153 C2137 1.429 . S
C2153 C2149 1.429 . S
C2153 C2154 1.523 . S
C2154 C2138 1.368 . S
C2154 C2150 1.368 . S
C2154 C2153 1.523 . S
H2155 C2130 0.950 . S
H2156 C2132 0.950 . S
H2157 C2133 0.949 . S
H2158 C2135 0.950 . S
H2159 C2137 0.950 . S
C2160 C2161 1.349 . S
C2160 C2162 1.327 . S
C2160 H2185 0.950 . S
C2161 C2160 1.349 . S
C2161 C2177 1.349 . S
C2162 C2160 1.327 . S
C2162 C2181 1.429 . S
C2162 H2186 0.950 . S
C2163 C2180 1.574 . S
C2163 C2182 1.368 . S
C2163 H2187 0.949 . S
H2164 C2168 0.949 . S
C2165 C2166 1.349 . S
C2165 C2167 1.327 . S
C2165 H2188 0.950 . S
C2166 C2165 1.349 . S
C2166 C2178 1.349 . S
C2167 C2165 1.327 . S
C2167 C2183 1.429 . S
C2167 H2189 0.950 . S
C2168 H2164 0.949 . S
C2168 C2176 1.574 . S
C2168 C2184 1.368 . S
H2169 C2177 0.950 . S
H2170 C2175 0.950 . S
H2171 C2176 0.949 . S
H2172 C2178 0.950 . S
H2173 C2179 0.950 . S
H2174 C2180 0.949 . S
C2175 H2170 0.950 . S
C2175 C2177 1.327 . S
C2175 C2181 1.429 . S
C2176 C2168 1.574 . S
C2176 H2171 0.949 . S
C2176 C2182 1.368 . S
C2177 C2161 1.349 . S
C2177 H2169 0.950 . S
C2177 C2175 1.327 . S
C2178 C2166 1.349 . S
C2178 H2172 0.950 . S
C2178 C2179 1.327 . S
C2179 H2173 0.950 . S
C2179 C2178 1.327 . S
C2179 C2183 1.429 . S
C2180 C2163 1.574 . S
C2180 H2174 0.949 . S
C2180 C2184 1.368 . S
C2181 C2162 1.429 . S
C2181 C2175 1.429 . S
C2181 C2182 1.523 . S
C2182 C2163 1.368 . S
C2182 C2176 1.368 . S
C2182 C2181 1.523 . S
C2183 C2167 1.429 . S
C2183 C2179 1.429 . S
C2183 C2184 1.523 . S
C2184 C2168 1.368 . S
C2184 C2180 1.368 . S
C2184 C2183 1.523 . S
H2185 C2160 0.950 . S
H2186 C2162 0.950 . S
H2187 C2163 0.949 . S
H2188 C2165 0.950 . S
H2189 C2167 0.950 . S
C2190 C2191 1.349 . S
C2190 C2192 1.327 . S
C2190 H2215 0.950 . S
C2191 C2190 1.349 . S
C2191 C2207 1.349 . S
C2192 C2190 1.327 . S
C2192 C2211 1.429 . S
C2192 H2216 0.950 . S
C2193 C2210 1.574 . S
C2193 C2212 1.368 . S
C2193 H2217 0.949 . S
H2194 C2198 0.949 . S
C2195 C2196 1.349 . S
C2195 C2197 1.327 . S
C2195 H2218 0.950 . S
C2196 C2195 1.349 . S
C2196 C2208 1.349 . S
C2197 C2195 1.327 . S
C2197 C2213 1.429 . S
C2197 H2219 0.950 . S
C2198 H2194 0.949 . S
C2198 C2206 1.574 . S
C2198 C2214 1.368 . S
H2199 C2207 0.950 . S
H2200 C2205 0.950 . S
H2201 C2206 0.949 . S
H2202 C2208 0.950 . S
H2203 C2209 0.950 . S
H2204 C2210 0.949 . S
C2205 H2200 0.950 . S
C2205 C2207 1.327 . S
C2205 C2211 1.429 . S
C2206 C2198 1.574 . S
C2206 H2201 0.949 . S
C2206 C2212 1.368 . S
C2207 C2191 1.349 . S
C2207 H2199 0.950 . S
C2207 C2205 1.327 . S
C2208 C2196 1.349 . S
C2208 H2202 0.950 . S
C2208 C2209 1.327 . S
C2209 H2203 0.950 . S
C2209 C2208 1.327 . S
C2209 C2213 1.429 . S
C2210 C2193 1.574 . S
C2210 H2204 0.949 . S
C2210 C2214 1.368 . S
C2211 C2192 1.429 . S
C2211 C2205 1.429 . S
C2211 C2212 1.523 . S
C2212 C2193 1.368 . S
C2212 C2206 1.368 . S
C2212 C2211 1.523 . S
C2213 C2197 1.429 . S
C2213 C2209 1.429 . S
C2213 C2214 1.523 . S
C2214 C2198 1.368 . S
C2214 C2210 1.368 . S
C2214 C2213 1.523 . S
H2215 C2190 0.950 . S
H2216 C2192 0.950 . S
H2217 C2193 0.949 . S
H2218 C2195 0.950 . S
H2219 C2197 0.950 . S
C2220 C2221 1.349 . S
C2220 C2222 1.327 . S
C2220 H2245 0.950 . S
C2221 C2220 1.349 . S
C2221 C2237 1.349 . S
C2222 C2220 1.327 . S
C2222 C2241 1.429 . S
C2222 H2246 0.950 . S
C2223 C2240 1.574 . S
C2223 C2242 1.368 . S
C2223 H2247 0.949 . S
H2224 C2228 0.949 . S
C2225 C2226 1.349 . S
C2225 C2227 1.327 . S
C2225 H2248 0.950 . S
C2226 C2225 1.349 . S
C2226 C2238 1.349 . S
C2227 C2225 1.327 . S
C2227 C2243 1.429 . S
C2227 H2249 0.950 . S
C2228 H2224 0.949 . S
C2228 C2236 1.574 . S
C2228 C2244 1.368 . S
H2229 C2237 0.950 . S
H2230 C2235 0.950 . S
H2231 C2236 0.949 . S
H2232 C2238 0.950 . S
H2233 C2239 0.950 . S
H2234 C2240 0.949 . S
C2235 H2230 0.950 . S
C2235 C2237 1.327 . S
C2235 C2241 1.429 . S
C2236 C2228 1.574 . S
C2236 H2231 0.949 . S
C2236 C2242 1.368 . S
C2237 C2221 1.349 . S
C2237 H2229 0.950 . S
C2237 C2235 1.327 . S
C2238 C2226 1.349 . S
C2238 H2232 0.950 . S
C2238 C2239 1.327 . S
C2239 H2233 0.950 . S
C2239 C2238 1.327 . S
C2239 C2243 1.429 . S
C2240 C2223 1.574 . S
C2240 H2234 0.949 . S
C2240 C2244 1.368 . S
C2241 C2222 1.429 . S
C2241 C2235 1.429 . S
C2241 C2242 1.523 . S
C2242 C2223 1.368 . S
C2242 C2236 1.368 . S
C2242 C2241 1.523 . S
C2243 C2227 1.429 . S
C2243 C2239 1.429 . S
C2243 C2244 1.523 . S
C2244 C2228 1.368 . S
C2244 C2240 1.368 . S
C2244 C2243 1.523 . S
H2245 C2220 0.950 . S
H2246 C2222 0.950 . S
H2247 C2223 0.949 . S
H2248 C2225 0.950 . S
H2249 C2227 0.950 . S
C2250 C2251 1.349 . S
C2250 C2252 1.327 . S
C2250 H2275 0.950 . S
C2251 C2250 1.349 . S
C2251 C2267 1.349 . S
C2252 C2250 1.327 . S
C2252 C2271 1.429 . S
C2252 H2276 0.950 . S
C2253 C2270 1.574 . S
C2253 C2272 1.368 . S
C2253 H2277 0.949 . S
H2254 C2258 0.949 . S
C2255 C2256 1.349 . S
C2255 C2257 1.327 . S
C2255 H2278 0.950 . S
C2256 C2255 1.349 . S
C2256 C2268 1.349 . S
C2257 C2255 1.327 . S
C2257 C2273 1.429 . S
C2257 H2279 0.950 . S
C2258 H2254 0.949 . S
C2258 C2266 1.574 . S
C2258 C2274 1.368 . S
H2259 C2267 0.950 . S
H2260 C2265 0.950 . S
H2261 C2266 0.949 . S
H2262 C2268 0.950 . S
H2263 C2269 0.950 . S
H2264 C2270 0.949 . S
C2265 H2260 0.950 . S
C2265 C2267 1.327 . S
C2265 C2271 1.429 . S
C2266 C2258 1.574 . S
C2266 H2261 0.949 . S
C2266 C2272 1.368 . S
C2267 C2251 1.349 . S
C2267 H2259 0.950 . S
C2267 C2265 1.327 . S
C2268 C2256 1.349 . S
C2268 H2262 0.950 . S
C2268 C2269 1.327 . S
C2269 H2263 0.950 . S
C2269 C2268 1.327 . S
C2269 C2273 1.429 . S
C2270 C2253 1.574 . S
C2270 H2264 0.949 . S
C2270 C2274 1.368 . S
C2271 C2252 1.429 . S
C2271 C2265 1.429 . S
C2271 C2272 1.523 . S
C2272 C2253 1.368 . S
C2272 C2266 1.368 . S
C2272 C2271 1.523 . S
C2273 C2257 1.429 . S
C2273 C2269 1.429 . S
C2273 C2274 1.523 . S
C2274 C2258 1.368 . S
C2274 C2270 1.368 . S
C2274 C2273 1.523 . S
H2275 C2250 0.950 . S
H2276 C2252 0.950 . S
H2277 C2253 0.949 . S
H2278 C2255 0.950 . S
H2279 C2257 0.950 . S
C2280 C2281 1.349 . S
C2280 C2282 1.327 . S
C2280 H2305 0.950 . S
C2281 C2280 1.349 . S
C2281 C2297 1.349 . S
C2282 C2280 1.327 . S
C2282 C2301 1.429 . S
C2282 H2306 0.950 . S
C2283 C2300 1.574 . S
C2283 C2302 1.368 . S
C2283 H2307 0.949 . S
H2284 C2288 0.949 . S
C2285 C2286 1.349 . S
C2285 C2287 1.327 . S
C2285 H2308 0.950 . S
C2286 C2285 1.349 . S
C2286 C2298 1.349 . S
C2287 C2285 1.327 . S
C2287 C2303 1.429 . S
C2287 H2309 0.950 . S
C2288 H2284 0.949 . S
C2288 C2296 1.574 . S
C2288 C2304 1.368 . S
H2289 C2297 0.950 . S
H2290 C2295 0.950 . S
H2291 C2296 0.949 . S
H2292 C2298 0.950 . S
H2293 C2299 0.950 . S
H2294 C2300 0.949 . S
C2295 H2290 0.950 . S
C2295 C2297 1.327 . S
C2295 C2301 1.429 . S
C2296 C2288 1.574 . S
C2296 H2291 0.949 . S
C2296 C2302 1.368 . S
C2297 C2281 1.349 . S
C2297 H2289 0.950 . S
C2297 C2295 1.327 . S
C2298 C2286 1.349 . S
C2298 H2292 0.950 . S
C2298 C2299 1.327 . S
C2299 H2293 0.950 . S
C2299 C2298 1.327 . S
C2299 C2303 1.429 . S
C2300 C2283 1.574 . S
C2300 H2294 0.949 . S
C2300 C2304 1.368 . S
C2301 C2282 1.429 . S
C2301 C2295 1.429 . S
C2301 C2302 1.523 . S
C2302 C2283 1.368 . S
C2302 C2296 1.368 . S
C2302 C2301 1.523 . S
C2303 C2287 1.429 . S
C2303 C2299 1.429 . S
C2303 C2304 1.523 . S
C2304 C2288 1.368 . S
C2304 C2300 1.368 . S
C2304 C2303 1.523 . S
H2305 C2280 0.950 . S
H2306 C2282 0.950 . S
H2307 C2283 0.949 . S
H2308 C2285 0.950 . S
H2309 C2287 0.950 . S
C876 C699 1.176 . S
C871 C74 1.198 . S
C906 C700 0.453 . S
C901 C142 0.720 . S
C936 C694 1.110 . S
C931 C231 1.083 . S
C961 C322 1.167 . S
C966 C693 1.263 . S
C991 C406 0.720 . S
C996 C696 0.453 . S
C1026 C698 1.110 . S
C1021 C494 1.083 . S
C1051 C562 1.167 . S
C1056 C697 1.263 . S
C1081 C651 1.198 . S
C1086 C695 1.176 . S
C1116 C730 1.690 . S
C1111 C58 1.547 . S
C1141 C151 1.539 . S
C1146 C761 1.514 . S
C1176 C729 2.521 . S
C1171 C224 2.434 . S
C1206 C764 1.076 . S
C1201 C315 1.043 . S
C1231 C399 1.372 . S
C1236 C727 1.411 . S
C1266 C759 1.649 . S
C1261 C478 1.516 . S
C1291 C571 1.146 . S
C1296 C732 1.174 . S
C1321 C644 2.478 . S
C1326 C766 2.535 . S
C1351 C67 2.478 . S
C1356 C762 2.535 . S
C1381 C392 1.539 . S
C1386 C765 1.515 . S
C1416 C733 2.521 . S
C1411 C487 2.435 . S
C1446 C760 1.076 . S
C1441 C578 1.046 . S
C1471 C658 1.548 . S
C1476 C726 1.691 . S
C1501 C238 1.515 . S
C1506 C763 1.649 . S
C1536 C728 1.174 . S
C1531 C308 1.144 . S
C1561 C158 1.372 . S
C1566 C731 1.410 . S
C1591 C662 1.143 . S
C1596 C798 1.115 . S
C1621 C394 0.925 . S
C1626 C799 0.503 . S
C1656 C793 1.278 . S
C1651 C483 1.252 . S
C1686 C792 1.723 . S
C1681 C574 1.539 . S
C1711 C154 0.925 . S
C1716 C795 0.506 . S
C1746 C797 1.278 . S
C1741 C242 1.250 . S
C1771 C310 1.538 . S
C1776 C796 1.722 . S
C1801 C63 1.143 . S
C1806 C794 1.114 . S
C1831 C646 1.615 . S
C1836 C832 1.717 . S
C1866 C864 1.101 . S
C1861 C403 1.109 . S
C1891 C476 2.327 . S
C1896 C825 2.456 . S
C1921 C567 1.383 . S
C1926 C859 1.446 . S
C1956 C830 1.153 . S
C1951 C147 1.075 . S
C1981 C226 1.707 . S
C1986 C861 1.775 . S
C2016 C827 1.433 . S
C2011 C319 1.459 . S
C2046 C862 2.464 . S
C2041 C56 2.275 . S
C2076 C858 2.464 . S
C2071 C655 2.275 . S
C2101 C140 1.109 . S
C2106 C860 1.101 . S
C2131 C235 2.327 . S
C2136 C829 2.456 . S
C2166 C863 1.446 . S
C2161 C326 1.383 . S
C2191 C70 1.615 . S
C2196 C828 1.717 . S
C2221 C490 1.707 . S
C2226 C865 1.775 . S
C2256 C831 1.433 . S
C2251 C560 1.459 . S
C2286 C826 1.153 . S
C2281 C410 1.075 . S
