# Generated by pormake.
# Topology ocu, (6,8)-cn, num edge types: 1
# Building blocks:
#     Node 0, Type 0, BuildingBlock: KUMJIN_clean_sbu_0, # of connection points: 6
#     Node 1, Type 0, BuildingBlock: KUMJIN_clean_sbu_0, # of connection points: 6
#     Node 2, Type 0, BuildingBlock: KUMJIN_clean_sbu_0, # of connection points: 6
#     Node 3, Type 0, BuildingBlock: KUMJIN_clean_sbu_0, # of connection points: 6
#     Node 4, Type 0, BuildingBlock: KUMJIN_clean_sbu_0, # of connection points: 6
#     Node 5, Type 0, BuildingBlock: KUMJIN_clean_sbu_0, # of connection points: 6
#     Node 6, Type 0, BuildingBlock: KUMJIN_clean_sbu_0, # of connection points: 6
#     Node 7, Type 0, BuildingBlock: KUMJIN_clean_sbu_0, # of connection points: 6
#     Node 8, Type 1, BuildingBlock: TAGTUT_clean_sbu_1, # of connection points: 8
#     Node 9, Type 1, BuildingBlock: TAGTUT_clean_sbu_1, # of connection points: 8
#     Node 10, Type 1, BuildingBlock: TAGTUT_clean_sbu_1, # of connection points: 8
#     Node 11, Type 1, BuildingBlock: TAGTUT_clean_sbu_1, # of connection points: 8
#     Node 12, Type 1, BuildingBlock: TAGTUT_clean_sbu_1, # of connection points: 8
#     Node 13, Type 1, BuildingBlock: TAGTUT_clean_sbu_1, # of connection points: 8
#     Edge 14, Type (0, 1), BuildingBlock: TEMPAE_clean_linker_10, # of connection points: 2
#     Edge 15, Type (0, 1), BuildingBlock: TEMPAE_clean_linker_10, # of connection points: 2
#     Edge 16, Type (0, 1), BuildingBlock: TEMPAE_clean_linker_10, # of connection points: 2
#     Edge 17, Type (0, 1), BuildingBlock: TEMPAE_clean_linker_10, # of connection points: 2
#     Edge 18, Type (0, 1), BuildingBlock: TEMPAE_clean_linker_10, # of connection points: 2
#     Edge 19, Type (0, 1), BuildingBlock: TEMPAE_clean_linker_10, # of connection points: 2
#     Edge 20, Type (0, 1), BuildingBlock: TEMPAE_clean_linker_10, # of connection points: 2
#     Edge 21, Type (0, 1), BuildingBlock: TEMPAE_clean_linker_10, # of connection points: 2
#     Edge 22, Type (0, 1), BuildingBlock: TEMPAE_clean_linker_10, # of connection points: 2
#     Edge 23, Type (0, 1), BuildingBlock: TEMPAE_clean_linker_10, # of connection points: 2
#     Edge 24, Type (0, 1), BuildingBlock: TEMPAE_clean_linker_10, # of connection points: 2
#     Edge 25, Type (0, 1), BuildingBlock: TEMPAE_clean_linker_10, # of connection points: 2
#     Edge 26, Type (0, 1), BuildingBlock: TEMPAE_clean_linker_10, # of connection points: 2
#     Edge 27, Type (0, 1), BuildingBlock: TEMPAE_clean_linker_10, # of connection points: 2
#     Edge 28, Type (0, 1), BuildingBlock: TEMPAE_clean_linker_10, # of connection points: 2
#     Edge 29, Type (0, 1), BuildingBlock: TEMPAE_clean_linker_10, # of connection points: 2
#     Edge 30, Type (0, 1), BuildingBlock: TEMPAE_clean_linker_10, # of connection points: 2
#     Edge 31, Type (0, 1), BuildingBlock: TEMPAE_clean_linker_10, # of connection points: 2
#     Edge 32, Type (0, 1), BuildingBlock: TEMPAE_clean_linker_10, # of connection points: 2
#     Edge 33, Type (0, 1), BuildingBlock: TEMPAE_clean_linker_10, # of connection points: 2
#     Edge 34, Type (0, 1), BuildingBlock: TEMPAE_clean_linker_10, # of connection points: 2
#     Edge 35, Type (0, 1), BuildingBlock: TEMPAE_clean_linker_10, # of connection points: 2
#     Edge 36, Type (0, 1), BuildingBlock: TEMPAE_clean_linker_10, # of connection points: 2
#     Edge 37, Type (0, 1), BuildingBlock: TEMPAE_clean_linker_10, # of connection points: 2
#     Edge 38, Type (0, 1), BuildingBlock: TEMPAE_clean_linker_10, # of connection points: 2
#     Edge 39, Type (0, 1), BuildingBlock: TEMPAE_clean_linker_10, # of connection points: 2
#     Edge 40, Type (0, 1), BuildingBlock: TEMPAE_clean_linker_10, # of connection points: 2
#     Edge 41, Type (0, 1), BuildingBlock: TEMPAE_clean_linker_10, # of connection points: 2
#     Edge 42, Type (0, 1), BuildingBlock: TEMPAE_clean_linker_10, # of connection points: 2
#     Edge 43, Type (0, 1), BuildingBlock: TEMPAE_clean_linker_10, # of connection points: 2
#     Edge 44, Type (0, 1), BuildingBlock: TEMPAE_clean_linker_10, # of connection points: 2
#     Edge 45, Type (0, 1), BuildingBlock: TEMPAE_clean_linker_10, # of connection points: 2
#     Edge 46, Type (0, 1), BuildingBlock: TEMPAE_clean_linker_10, # of connection points: 2
#     Edge 47, Type (0, 1), BuildingBlock: TEMPAE_clean_linker_10, # of connection points: 2
#     Edge 48, Type (0, 1), BuildingBlock: TEMPAE_clean_linker_10, # of connection points: 2
#     Edge 49, Type (0, 1), BuildingBlock: TEMPAE_clean_linker_10, # of connection points: 2
#     Edge 50, Type (0, 1), BuildingBlock: TEMPAE_clean_linker_10, # of connection points: 2
#     Edge 51, Type (0, 1), BuildingBlock: TEMPAE_clean_linker_10, # of connection points: 2
#     Edge 52, Type (0, 1), BuildingBlock: TEMPAE_clean_linker_10, # of connection points: 2
#     Edge 53, Type (0, 1), BuildingBlock: TEMPAE_clean_linker_10, # of connection points: 2
#     Edge 54, Type (0, 1), BuildingBlock: TEMPAE_clean_linker_10, # of connection points: 2
#     Edge 55, Type (0, 1), BuildingBlock: TEMPAE_clean_linker_10, # of connection points: 2
#     Edge 56, Type (0, 1), BuildingBlock: TEMPAE_clean_linker_10, # of connection points: 2
#     Edge 57, Type (0, 1), BuildingBlock: TEMPAE_clean_linker_10, # of connection points: 2
#     Edge 58, Type (0, 1), BuildingBlock: TEMPAE_clean_linker_10, # of connection points: 2
#     Edge 59, Type (0, 1), BuildingBlock: TEMPAE_clean_linker_10, # of connection points: 2
#     Edge 60, Type (0, 1), BuildingBlock: TEMPAE_clean_linker_10, # of connection points: 2
#     Edge 61, Type (0, 1), BuildingBlock: TEMPAE_clean_linker_10, # of connection points: 2
# Relax obj value: 0.099
# Max RMSD: 0.264
# Mean RMSD: 0.150
data_MOF--net-ocu--node1-KUMJIN_clean_sbu_0--node2-TAGTUT_clean_sbu_1--edge1-TEMPAE_clean_linker_10
_symmetry_space_group_name_H-M    P1
_symmetry_Int_Tables_number       1
_symmetry_cell_setting            triclinic
loop_
_symmetry_equiv_pos_as_xyz
'x, y, z'
_cell_length_a     40.65016
_cell_length_b     38.470761
_cell_length_c     43.859888
_cell_angle_alpha  79.235444
_cell_angle_beta   101.74477
_cell_angle_gamma 115.27246
loop_
_atom_site_label
_atom_site_type_symbol
_atom_site_fract_x
_atom_site_fract_y
_atom_site_fract_z
_atom_type_partial_charge
Eu0 Eu 0.2547 0.21517 0.21799 0.0
C1 C 0.36745 0.32386 0.30932 0.0
C2 C 0.3677 0.2794 0.35631 0.0
C3 C 0.42333 0.33627 0.3466 0.0
C4 C 0.34948 0.28988 0.32752 0.0
C5 C 0.40419 0.34817 0.31926 0.0
C6 C 0.40509 0.30193 0.36513 0.0
C7 C 0.39842 0.39689 0.27749 0.0
N8 N 0.34784 0.33508 0.28364 0.0
C9 C 0.36195 0.37196 0.26887 0.0
C10 C 0.41989 0.38464 0.30242 0.0
Eu11 Eu 0.28646 0.29085 0.27016 0.0
N12 N 0.31322 0.26911 0.31863 0.0
C13 C 0.29279 0.23984 0.3387 0.0
C14 C 0.34726 0.24799 0.37624 0.0
C15 C 0.30946 0.22875 0.36773 0.0
H16 H 0.34506 0.38166 0.24996 0.0
H17 H 0.29316 0.20518 0.38337 0.0
H18 H 0.41969 0.29399 0.38692 0.0
H19 H 0.40979 0.42562 0.26512 0.0
H20 H 0.26361 0.22502 0.3325 0.0
H21 H 0.27819 0.29552 0.10123 0.0
H22 H 0.36006 0.23943 0.39879 0.0
H23 H 0.17168 0.14965 0.24045 0.0
H24 H 0.29562 0.26799 0.15311 0.0
H25 H 0.10677 0.13531 0.2245 0.0
H26 H 0.45173 0.35428 0.35438 0.0
H27 H 0.21347 0.28471 0.08265 0.0
H28 H 0.14835 0.25247 0.0918 0.0
H29 H 0.448 0.4042 0.30937 0.0
H30 H 0.10209 0.2113 0.12599 0.0
N31 N 0.24181 0.24461 0.16683 0.0
C32 C 0.26747 0.26442 0.14683 0.0
C33 C 0.22104 0.27313 0.10618 0.0
C34 C 0.1945 0.25094 0.12581 0.0
C35 C 0.2576 0.27951 0.11663 0.0
C36 C 0.20566 0.23653 0.15639 0.0
H37 H 0.08639 0.16838 0.17548 0.0
N38 N 0.19013 0.19629 0.204 0.0
C39 C 0.12686 0.15776 0.2109 0.0
C40 C 0.17935 0.21253 0.17565 0.0
C41 C 0.16425 0.16716 0.22044 0.0
C42 C 0.1155 0.17634 0.18318 0.0
C43 C 0.14164 0.20297 0.16462 0.0
O44 O 0.22787 0.15405 0.21061 0.0
O45 O 0.28885 0.23603 0.26302 0.0
O46 O 0.33212 0.30732 0.24179 0.0
O47 O 0.30932 0.26117 0.20627 0.0
O48 O 0.294 0.19079 0.24914 0.0
O49 O 0.27541 0.19343 0.18676 0.0
O50 O 0.27696 0.34262 0.2699 0.0
O51 O 0.24602 0.26667 0.22747 0.0
O52 O 0.22943 0.18875 0.26241 0.0
O53 O 0.23108 0.24346 0.27893 0.0
O54 O 0.27768 0.32585 0.22417 0.0
O55 O 0.26098 0.29622 0.30741 0.0
C56 C 0.30608 0.21385 0.27046 0.0
C57 C 0.24771 0.12608 0.1761 0.0
C58 C 0.27163 0.10047 0.14308 0.0
C59 C 0.27521 0.13078 0.15879 0.0
C60 C 0.24065 0.06528 0.14503 0.0
C61 C 0.21704 0.09056 0.17799 0.0
C62 C 0.21364 0.06035 0.16256 0.0
C63 C 0.33442 0.29297 0.21768 0.0
C64 C 0.25027 0.1584 0.19127 0.0
C65 C 0.13089 0.21848 0.13475 0.0
C66 C 0.1572 0.24206 0.11532 0.0
C67 C 0.25133 0.29848 0.20971 0.0
C68 C 0.27723 0.35939 0.31899 0.0
C69 C 0.25164 0.36657 0.33095 0.0
C70 C 0.26351 0.39485 0.35144 0.0
C71 C 0.30128 0.41594 0.35997 0.0
C72 C 0.31491 0.3799 0.32831 0.0
C73 C 0.32684 0.40823 0.34859 0.0
C74 C 0.21819 0.20571 0.27902 0.0
C75 C 0.26376 0.33102 0.29638 0.0
H76 H 0.29902 0.15803 0.15707 0.0
H77 H 0.23757 0.0415 0.13321 0.0
H78 H 0.19547 0.08624 0.19113 0.0
H79 H 0.1899 0.03309 0.16407 0.0
H80 H 0.22248 0.35051 0.32401 0.0
H81 H 0.31093 0.43776 0.37592 0.0
H82 H 0.3351 0.37427 0.31997 0.0
H83 H 0.35593 0.42416 0.35555 0.0
Eu84 Eu 0.79622 0.22577 0.24922 0.0
C85 C 0.71382 0.28855 0.3075 0.0
C86 C 0.64898 0.24919 0.29365 0.0
C87 C 0.67004 0.27814 0.3424 0.0
C88 C 0.68541 0.266 0.28652 0.0
C89 C 0.70585 0.29628 0.33482 0.0
C90 C 0.64169 0.25495 0.32176 0.0
C91 C 0.76733 0.34564 0.34202 0.0
N92 N 0.74841 0.30631 0.29976 0.0
C93 C 0.77434 0.33647 0.31536 0.0
C94 C 0.73334 0.32456 0.3524 0.0
Eu95 Eu 0.7564 0.29294 0.25182 0.0
N96 N 0.69269 0.26293 0.25833 0.0
C97 C 0.6641 0.245 0.23604 0.0
C98 C 0.62044 0.2285 0.27174 0.0
C99 C 0.62801 0.22685 0.24269 0.0
H100 H 0.80093 0.35288 0.30762 0.0
H101 H 0.6059 0.21207 0.2251 0.0
H102 H 0.61382 0.24311 0.32705 0.0
H103 H 0.78806 0.36902 0.35453 0.0
H104 H 0.66775 0.24447 0.21265 0.0
H105 H 0.93671 0.32421 0.2946 0.0
H106 H 0.5923 0.21482 0.2766 0.0
H107 H 0.76814 0.18166 0.18305 0.0
H108 H 0.8707 0.29217 0.2926 0.0
H109 H 0.7938 0.17908 0.1379 0.0
H110 H 0.66361 0.28349 0.36341 0.0
H111 H 0.96673 0.31862 0.25336 0.0
H112 H 0.9609 0.29411 0.20315 0.0
H113 H 0.72801 0.3317 0.37314 0.0
H114 H 0.92203 0.25739 0.15959 0.0
N115 N 0.8615 0.26237 0.253 0.0
C116 C 0.88255 0.28609 0.27569 0.0
C117 C 0.93733 0.30275 0.25301 0.0
C118 C 0.9158 0.28083 0.22862 0.0
C119 C 0.92053 0.30578 0.27641 0.0
C120 C 0.87744 0.26094 0.22898 0.0
H121 H 0.85994 0.21626 0.13441 0.0
N122 N 0.81853 0.22301 0.20398 0.0
C123 C 0.8114 0.19708 0.15599 0.0
C124 C 0.85538 0.24116 0.20377 0.0
C125 C 0.79696 0.19899 0.18158 0.0
C126 C 0.8487 0.21796 0.15419 0.0
C127 C 0.87133 0.23952 0.17855 0.0
O128 O 0.75753 0.16682 0.24034 0.0
O129 O 0.74429 0.23064 0.25549 0.0
O130 O 0.78768 0.28208 0.29925 0.0
O131 O 0.81604 0.24006 0.29966 0.0
O132 O 0.76288 0.19471 0.28873 0.0
O133 O 0.81519 0.1797 0.25765 0.0
O134 O 0.79186 0.35496 0.24855 0.0
O135 O 0.8079 0.28812 0.24485 0.0
O136 O 0.7687 0.23926 0.20143 0.0
O137 O 0.72644 0.26166 0.20831 0.0
O138 O 0.78675 0.32037 0.20994 0.0
O139 O 0.73248 0.33499 0.23691 0.0
C140 C 0.73694 0.20646 0.27986 0.0
C141 C 0.77204 0.12078 0.27714 0.0
C142 C 0.79549 0.10395 0.32998 0.0
C143 C 0.78559 0.12977 0.30775 0.0
C144 C 0.78042 0.0648 0.32467 0.0
C145 C 0.75726 0.08214 0.27117 0.0
C146 C 0.75973 0.05375 0.29562 0.0
C147 C 0.80783 0.26278 0.31353 0.0
C148 C 0.78203 0.15269 0.25203 0.0
C149 C 0.9094 0.25855 0.17867 0.0
C150 C 0.93154 0.2792 0.20358 0.0
C151 C 0.8138 0.31048 0.21945 0.0
C152 C 0.76853 0.38748 0.20495 0.0
C153 C 0.74917 0.36872 0.1785 0.0
C154 C 0.73661 0.38878 0.15256 0.0
C155 C 0.75413 0.42954 0.14897 0.0
C156 C 0.78576 0.42787 0.20208 0.0
C157 C 0.78006 0.44887 0.17328 0.0
C158 C 0.73869 0.24523 0.19185 0.0
C159 C 0.76449 0.36423 0.23547 0.0
H160 H 0.79655 0.15941 0.31259 0.0
H161 H 0.78699 0.04353 0.34159 0.0
H162 H 0.74582 0.07437 0.24763 0.0
H163 H 0.74888 0.02387 0.29115 0.0
H164 H 0.73718 0.33741 0.18045 0.0
H165 H 0.74573 0.44653 0.12892 0.0
H166 H 0.802 0.44294 0.22214 0.0
H167 H 0.79288 0.48016 0.17086 0.0
Eu168 Eu 0.73526 0.73526 0.27829 0.0
C169 C 0.84051 0.8538 0.18864 0.0
C170 C 0.80197 0.85607 0.13891 0.0
C171 C 0.85849 0.91188 0.15155 0.0
C172 C 0.80905 0.83621 0.16821 0.0
C173 C 0.86584 0.89163 0.18038 0.0
C174 C 0.82661 0.89415 0.13088 0.0
C175 C 0.90489 0.88582 0.2289 0.0
N176 N 0.84704 0.83336 0.21614 0.0
C177 C 0.87907 0.8483 0.23596 0.0
C178 C 0.89815 0.90771 0.20108 0.0
Eu179 Eu 0.80223 0.77022 0.22614 0.0
N180 N 0.78584 0.79935 0.17658 0.0
C181 C 0.75614 0.77985 0.15609 0.0
C182 C 0.77061 0.83684 0.11837 0.0
C183 C 0.74778 0.79844 0.1269 0.0
H184 H 0.88441 0.83155 0.25753 0.0
H185 H 0.72373 0.78313 0.11104 0.0
H186 H 0.82153 0.90994 0.10855 0.0
H187 H 0.92994 0.89781 0.24491 0.0
H188 H 0.73831 0.75014 0.1623 0.0
H189 H 0.80488 0.70906 0.39452 0.0
H190 H 0.76409 0.85117 0.09573 0.0
H191 H 0.64607 0.68311 0.24673 0.0
H192 H 0.79493 0.74723 0.34459 0.0
H193 H 0.5974 0.61916 0.2568 0.0
H194 H 0.87755 0.94105 0.14483 0.0
H195 H 0.76187 0.6409 0.40489 0.0
H196 H 0.70296 0.58612 0.38828 0.0
H197 H 0.91828 0.93672 0.19558 0.0
H198 H 0.64636 0.56203 0.35107 0.0
N199 N 0.74801 0.70054 0.32596 0.0
C200 C 0.77645 0.71725 0.34844 0.0
C201 C 0.75759 0.65738 0.38271 0.0
C202 C 0.72683 0.64137 0.36054 0.0
C203 C 0.78196 0.69582 0.37695 0.0
C204 C 0.72229 0.66419 0.33214 0.0
H205 H 0.60671 0.57424 0.30245 0.0
N206 N 0.6845 0.67488 0.28561 0.0
C207 C 0.62327 0.62767 0.27227 0.0
C208 C 0.68976 0.65098 0.31143 0.0
C209 C 0.65128 0.66416 0.26665 0.0
C210 C 0.62868 0.60237 0.298 0.0
C211 C 0.66187 0.61409 0.31827 0.0
O212 O 0.71693 0.78112 0.27767 0.0
O213 O 0.75116 0.77468 0.2339 0.0
O214 O 0.80741 0.82125 0.24897 0.0
O215 O 0.78823 0.78421 0.29456 0.0
O216 O 0.6964 0.73919 0.23417 0.0
O217 O 0.71684 0.74162 0.31954 0.0
O218 O 0.85212 0.76387 0.22264 0.0
O219 O 0.78537 0.72944 0.26957 0.0
O220 O 0.72069 0.68405 0.25278 0.0
O221 O 0.75414 0.71528 0.21108 0.0
O222 O 0.84011 0.76387 0.27092 0.0
O223 O 0.8015 0.73452 0.19261 0.0
C224 C 0.71949 0.76638 0.21746 0.0
C225 C 0.67364 0.76875 0.31045 0.0
C226 C 0.64049 0.79054 0.33715 0.0
C227 C 0.67356 0.79087 0.33221 0.0
C228 C 0.6073 0.76727 0.32025 0.0
C229 C 0.64062 0.74591 0.29342 0.0
C230 C 0.60747 0.74507 0.29847 0.0
C231 C 0.80283 0.81836 0.27844 0.0
C232 C 0.70871 0.77044 0.30593 0.0
C233 C 0.66743 0.59047 0.34558 0.0
C234 C 0.69972 0.60413 0.36672 0.0
C235 C 0.81641 0.73607 0.28652 0.0
C236 C 0.85672 0.75107 0.17334 0.0
C237 C 0.85749 0.72044 0.16091 0.0
C238 C 0.87565 0.72784 0.13497 0.0
C239 C 0.89332 0.76612 0.12166 0.0
C240 C 0.87462 0.78925 0.16001 0.0
C241 C 0.89293 0.79667 0.13428 0.0
C242 C 0.72986 0.68463 0.22555 0.0
C243 C 0.83646 0.74223 0.19978 0.0
H244 H 0.69932 0.80823 0.34541 0.0
H245 H 0.58138 0.76675 0.32348 0.0
H246 H 0.64054 0.72906 0.27624 0.0
H247 H 0.58193 0.72745 0.28532 0.0
H248 H 0.84367 0.69088 0.17117 0.0
H249 H 0.90782 0.77234 0.1018 0.0
H250 H 0.87452 0.8132 0.16945 0.0
H251 H 0.90684 0.82615 0.1241 0.0
Eu252 Eu 0.29446 0.7211 0.2614 0.0
C253 C 0.22565 0.82128 0.16514 0.0
C254 C 0.27536 0.88461 0.1588 0.0
C255 C 0.22613 0.86234 0.11572 0.0
C256 C 0.25861 0.84911 0.17701 0.0
C257 C 0.20889 0.82761 0.13441 0.0
C258 C 0.25923 0.89085 0.12794 0.0
C259 C 0.15856 0.76555 0.14343 0.0
N260 N 0.20956 0.78828 0.1839 0.0
C261 C 0.17603 0.76084 0.17387 0.0
C262 C 0.17515 0.79899 0.12353 0.0
Eu263 Eu 0.24255 0.78087 0.2338 0.0
N264 N 0.27361 0.84206 0.20679 0.0
C265 C 0.30427 0.87004 0.22048 0.0
C266 C 0.30741 0.91304 0.17239 0.0
C267 C 0.32184 0.90576 0.20342 0.0
H268 H 0.16322 0.73475 0.18901 0.0
H269 H 0.3465 0.92761 0.21421 0.0
H270 H 0.2719 0.9178 0.11346 0.0
H271 H 0.13238 0.74336 0.13531 0.0
H272 H 0.31569 0.86477 0.24445 0.0
H273 H 0.18974 0.57462 0.28174 0.0
H274 H 0.32087 0.94086 0.1593 0.0
H275 H 0.37504 0.76575 0.30505 0.0
H276 H 0.22071 0.63679 0.25115 0.0
H277 H 0.40678 0.75669 0.35822 0.0
H278 H 0.2138 0.86768 0.09198 0.0
H279 H 0.21572 0.56148 0.33645 0.0
H280 H 0.26562 0.58403 0.38177 0.0
H281 H 0.1615 0.80263 0.09997 0.0
H282 H 0.32455 0.63355 0.40264 0.0
N283 N 0.26356 0.65964 0.28841 0.0
C284 C 0.23251 0.63176 0.275 0.0
C285 C 0.22939 0.58907 0.32321 0.0
C286 C 0.26191 0.6172 0.33647 0.0
C287 C 0.21474 0.59631 0.29228 0.0
C288 C 0.27879 0.6525 0.31807 0.0
H289 H 0.37752 0.69791 0.39398 0.0
N290 N 0.32816 0.71285 0.31073 0.0
C291 C 0.3802 0.73483 0.35046 0.0
C292 C 0.31209 0.68002 0.32964 0.0
C293 C 0.36219 0.7398 0.32029 0.0
C294 C 0.36353 0.70168 0.3706 0.0
C295 C 0.32926 0.67351 0.36015 0.0
O296 O 0.3442 0.72433 0.24739 0.0
O297 O 0.29214 0.77256 0.2299 0.0
O298 O 0.24214 0.75236 0.19274 0.0
O299 O 0.24847 0.69795 0.2215 0.0
O300 O 0.34281 0.7792 0.25354 0.0
O301 O 0.29105 0.68081 0.23093 0.0
O302 O 0.19271 0.77609 0.24867 0.0
O303 O 0.24521 0.72992 0.26559 0.0
O304 O 0.29524 0.74866 0.3029 0.0
O305 O 0.28662 0.8026 0.2756 0.0
O306 O 0.19409 0.72315 0.24227 0.0
O307 O 0.24468 0.8239 0.26099 0.0
C308 C 0.32542 0.79608 0.23283 0.0
C309 C 0.34247 0.66756 0.23307 0.0
C310 C 0.36458 0.63338 0.20658 0.0
C311 C 0.34877 0.65966 0.20545 0.0
C312 C 0.37374 0.61487 0.23583 0.0
C313 C 0.3513 0.64879 0.26205 0.0
C314 C 0.36697 0.62249 0.26336 0.0
C315 C 0.24035 0.7169 0.19481 0.0
C316 C 0.3264 0.69534 0.23073 0.0
C317 C 0.31193 0.63901 0.37904 0.0
C318 C 0.27836 0.61084 0.36718 0.0
C319 C 0.21181 0.70665 0.2631 0.0
C320 C 0.19049 0.83173 0.26157 0.0
C321 C 0.18569 0.84031 0.2896 0.0
C322 C 0.16471 0.86141 0.28902 0.0
C323 C 0.14921 0.8745 0.25997 0.0
C324 C 0.17541 0.84529 0.23272 0.0
C325 C 0.15486 0.86674 0.232 0.0
C326 C 0.29511 0.78315 0.30204 0.0
C327 C 0.20974 0.8069 0.26337 0.0
H328 H 0.34199 0.67458 0.18314 0.0
H329 H 0.38588 0.59432 0.23735 0.0
H330 H 0.34618 0.65458 0.28349 0.0
H331 H 0.37394 0.60802 0.28574 0.0
H332 H 0.19724 0.82946 0.31189 0.0
H333 H 0.13287 0.89085 0.25896 0.0
H334 H 0.17911 0.83882 0.21096 0.0
H335 H 0.14294 0.87701 0.20974 0.0
Eu336 Eu 0.29711 0.7281 0.75424 0.0
C337 C 0.20591 0.79476 0.79744 0.0
C338 C 0.14399 0.74587 0.78748 0.0
C339 C 0.15942 0.7865 0.8288 0.0
C340 C 0.18014 0.7659 0.7797 0.0
C341 C 0.19554 0.8056 0.82188 0.0
C342 C 0.13381 0.75656 0.8118 0.0
C343 C 0.25697 0.8548 0.83045 0.0
N344 N 0.24114 0.81191 0.79128 0.0
C345 C 0.26605 0.84307 0.80625 0.0
C346 C 0.22171 0.83558 0.83866 0.0
Eu347 Eu 0.25371 0.7935 0.74766 0.0
N348 N 0.19082 0.75559 0.75647 0.0
C349 C 0.1668 0.7235 0.74201 0.0
C350 C 0.11932 0.71456 0.77151 0.0
C351 C 0.13096 0.70307 0.74899 0.0
H352 H 0.29336 0.85878 0.7998 0.0
H353 H 0.11254 0.67778 0.73742 0.0
H354 H 0.10624 0.74143 0.81795 0.0
H355 H 0.27707 0.87887 0.84259 0.0
H356 H 0.17477 0.71143 0.72616 0.0
H357 H 0.43033 0.85338 0.77453 0.0
H358 H 0.09162 0.69824 0.77713 0.0
H359 H 0.26983 0.67147 0.69613 0.0
H360 H 0.36548 0.81506 0.77736 0.0
H361 H 0.2962 0.65528 0.6583 0.0
H362 H 0.15114 0.79435 0.84756 0.0
H363 H 0.46319 0.83501 0.7432 0.0
H364 H 0.46064 0.7919 0.706 0.0
H365 H 0.21476 0.84464 0.85754 0.0
H366 H 0.42403 0.73856 0.67387 0.0
N367 N 0.36065 0.77093 0.75125 0.0
C368 C 0.37912 0.80436 0.76535 0.0
C369 C 0.43456 0.81691 0.74526 0.0
C370 C 0.41524 0.78461 0.72889 0.0
C371 C 0.41618 0.82726 0.76304 0.0
C372 C 0.37776 0.76226 0.73199 0.0
H373 H 0.36276 0.68852 0.65524 0.0
N374 N 0.3202 0.71563 0.71369 0.0
C375 C 0.31363 0.67754 0.67332 0.0
C376 C 0.35694 0.73336 0.71295 0.0
C377 C 0.29864 0.68742 0.6946 0.0
C378 C 0.35119 0.69608 0.67188 0.0
C379 C 0.37333 0.7245 0.69165 0.0
O380 O 0.25891 0.668 0.75079 0.0
O381 O 0.24661 0.73283 0.76205 0.0
O382 O 0.29162 0.79479 0.79388 0.0
O383 O 0.32255 0.75399 0.80011 0.0
O384 O 0.27169 0.70615 0.79921 0.0
O385 O 0.31645 0.68259 0.7705 0.0
O386 O 0.28978 0.8551 0.74133 0.0
O387 O 0.30347 0.78796 0.73834 0.0
O388 O 0.25666 0.72299 0.70974 0.0
O389 O 0.22331 0.76107 0.70543 0.0
O390 O 0.27567 0.81035 0.70119 0.0
O391 O 0.23033 0.83587 0.73137 0.0
C392 C 0.24413 0.71574 0.78974 0.0
C393 C 0.27103 0.62869 0.79514 0.0
C394 C 0.28949 0.60628 0.84794 0.0
C395 C 0.29441 0.63555 0.82327 0.0
C396 C 0.25661 0.57306 0.84742 0.0
C397 C 0.23763 0.59587 0.79419 0.0
C398 C 0.22988 0.56878 0.82088 0.0
C399 C 0.31458 0.7797 0.81006 0.0
C400 C 0.28298 0.65538 0.76717 0.0
C401 C 0.41103 0.74499 0.69005 0.0
C402 C 0.43188 0.77524 0.70842 0.0
C403 C 0.30354 0.80167 0.70978 0.0
C404 C 0.26537 0.88648 0.69748 0.0
C405 C 0.24564 0.86635 0.67181 0.0
C406 C 0.23366 0.88497 0.64453 0.0
C407 C 0.25055 0.92578 0.63992 0.0
C408 C 0.28201 0.92687 0.69331 0.0
C409 C 0.27589 0.94646 0.66389 0.0
C410 C 0.23 0.73405 0.69611 0.0
C411 C 0.26241 0.86461 0.7286 0.0
H412 H 0.3199 0.66133 0.82465 0.0
H413 H 0.25261 0.54984 0.86643 0.0
H414 H 0.21817 0.59086 0.77288 0.0
H415 H 0.20437 0.54322 0.82016 0.0
H416 H 0.2342 0.83526 0.67482 0.0
H417 H 0.24252 0.94193 0.61905 0.0
H418 H 0.29824 0.94303 0.71283 0.0
H419 H 0.28828 0.97776 0.66053 0.0
Eu420 Eu 0.23684 0.23396 0.7732 0.0
C421 C 0.32345 0.35433 0.67472 0.0
C422 C 0.2771 0.34198 0.62878 0.0
C423 C 0.3256 0.40632 0.63293 0.0
C424 C 0.29188 0.32903 0.65839 0.0
C425 C 0.34121 0.39294 0.6617 0.0
C426 C 0.29361 0.3809 0.61653 0.0
C427 C 0.39074 0.40117 0.70471 0.0
N428 N 0.33803 0.34071 0.70244 0.0
C429 C 0.37222 0.36267 0.71656 0.0
C430 C 0.37485 0.4166 0.67744 0.0
Eu431 Eu 0.30512 0.27541 0.72077 0.0
N432 N 0.27636 0.29153 0.67082 0.0
C433 C 0.24752 0.26502 0.65389 0.0
C434 C 0.24659 0.31525 0.61203 0.0
C435 C 0.23196 0.27655 0.62453 0.0
H436 H 0.38463 0.3506 0.73757 0.0
H437 H 0.20866 0.25555 0.61157 0.0
H438 H 0.28231 0.39144 0.59404 0.0
H439 H 0.41726 0.41882 0.71655 0.0
H440 H 0.23549 0.23501 0.66307 0.0
H441 H 0.32563 0.23572 0.88555 0.0
H442 H 0.23465 0.324 0.58913 0.0
H443 H 0.15328 0.16699 0.7521 0.0
H444 H 0.30304 0.26367 0.83536 0.0
H445 H 0.11454 0.09867 0.76835 0.0
H446 H 0.3386 0.43602 0.62277 0.0
H447 H 0.29521 0.16574 0.90238 0.0
H448 H 0.24374 0.10154 0.89234 0.0
H449 H 0.38934 0.44641 0.66816 0.0
H450 H 0.18602 0.06415 0.86052 0.0
N451 N 0.26057 0.20989 0.82254 0.0
C452 C 0.28923 0.23308 0.842 0.0
C453 C 0.28526 0.1778 0.87998 0.0
C454 C 0.25449 0.15465 0.86095 0.0
C455 C 0.30232 0.21733 0.87069 0.0
C456 C 0.24238 0.17187 0.83215 0.0
H457 H 0.13722 0.06304 0.81463 0.0
N458 N 0.19779 0.16922 0.78805 0.0
C459 C 0.14141 0.11289 0.78137 0.0
C460 C 0.20995 0.15086 0.81432 0.0
C461 C 0.16333 0.15149 0.77228 0.0
C462 C 0.15437 0.09287 0.80744 0.0
C463 C 0.18871 0.11203 0.82464 0.0
O464 O 0.18483 0.23725 0.77467 0.0
O465 O 0.25306 0.27636 0.73024 0.0
O466 O 0.31239 0.32559 0.74542 0.0
O467 O 0.28113 0.2911 0.78754 0.0
O468 O 0.19884 0.23725 0.72839 0.0
O469 O 0.2327 0.26635 0.80705 0.0
O470 O 0.36058 0.28124 0.72077 0.0
O471 O 0.28849 0.23259 0.76329 0.0
O472 O 0.22522 0.18471 0.74569 0.0
O473 O 0.26672 0.21464 0.70946 0.0
O474 O 0.34271 0.27131 0.76628 0.0
O475 O 0.31659 0.25078 0.6846 0.0
C476 C 0.22161 0.26707 0.71348 0.0
C477 C 0.17519 0.24689 0.82324 0.0
C478 C 0.1491 0.26676 0.85871 0.0
C479 C 0.17098 0.27606 0.83493 0.0
C480 C 0.13168 0.22774 0.87075 0.0
C481 C 0.15786 0.2082 0.83562 0.0
C482 C 0.13613 0.19874 0.85926 0.0
C483 C 0.30295 0.32357 0.77297 0.0
C484 C 0.19787 0.25778 0.7982 0.0
C485 C 0.20174 0.09409 0.85236 0.0
C486 C 0.2346 0.11537 0.87048 0.0
C487 C 0.31946 0.24124 0.78064 0.0
C488 C 0.37915 0.25857 0.68222 0.0
C489 C 0.36895 0.23023 0.66189 0.0
C490 C 0.39574 0.22794 0.64748 0.0
C491 C 0.43266 0.25376 0.65389 0.0
C492 C 0.41621 0.28396 0.68838 0.0
C493 C 0.44277 0.28147 0.6743 0.0
C494 C 0.23937 0.18465 0.72114 0.0
C495 C 0.35147 0.26361 0.69576 0.0
H496 H 0.18435 0.30593 0.82517 0.0
H497 H 0.115 0.21968 0.88936 0.0
H498 H 0.16105 0.18539 0.82703 0.0
H499 H 0.12274 0.16885 0.86878 0.0
H500 H 0.3404 0.21058 0.65688 0.0
H501 H 0.45379 0.25223 0.64328 0.0
H502 H 0.42462 0.30624 0.7037 0.0
H503 H 0.47125 0.30124 0.67907 0.0
Eu504 Eu 0.79912 0.22529 0.76152 0.0
C505 C 0.73937 0.34555 0.68361 0.0
C506 C 0.78812 0.40939 0.68765 0.0
C507 C 0.74121 0.39756 0.64196 0.0
C508 C 0.77148 0.37009 0.69957 0.0
C509 C 0.72334 0.35921 0.65501 0.0
C510 C 0.7735 0.42266 0.65831 0.0
C511 C 0.67084 0.29773 0.65648 0.0
N512 N 0.72221 0.30914 0.69727 0.0
C513 C 0.68759 0.28586 0.6851 0.0
C514 C 0.68907 0.33439 0.64108 0.0
Eu515 Eu 0.75262 0.28964 0.74447 0.0
N516 N 0.78483 0.35632 0.72787 0.0
C517 C 0.81303 0.38124 0.74658 0.0
C518 C 0.81803 0.43453 0.7061 0.0
C519 C 0.83016 0.42049 0.73589 0.0
H520 H 0.67335 0.25758 0.69707 0.0
H521 H 0.85282 0.43984 0.75061 0.0
H522 H 0.78627 0.45258 0.64855 0.0
H523 H 0.64389 0.27867 0.6464 0.0
H524 H 0.82297 0.3715 0.76975 0.0
H525 H 0.68667 0.08228 0.77304 0.0
H526 H 0.8314 0.46494 0.69784 0.0
H527 H 0.87985 0.26245 0.8069 0.0
H528 H 0.7201 0.14722 0.74706 0.0
H529 H 0.91164 0.24456 0.85761 0.0
H530 H 0.72956 0.40848 0.61983 0.0
H531 H 0.71345 0.05989 0.82466 0.0
H532 H 0.76593 0.07308 0.86873 0.0
H533 H 0.6759 0.34373 0.61905 0.0
H534 H 0.82683 0.11714 0.89177 0.0
N535 N 0.76521 0.16207 0.78385 0.0
C536 C 0.73223 0.13794 0.76953 0.0
C537 C 0.72835 0.08849 0.8133 0.0
C538 C 0.76277 0.11288 0.82731 0.0
C539 C 0.71314 0.10102 0.78419 0.0
C540 C 0.78089 0.14994 0.81171 0.0
H541 H 0.88125 0.18113 0.88791 0.0
N542 N 0.83182 0.21014 0.80909 0.0
C543 C 0.8845 0.22468 0.84867 0.0
C544 C 0.81507 0.1748 0.82481 0.0
C545 C 0.86651 0.2347 0.81999 0.0
C546 C 0.86721 0.18887 0.8657 0.0
C547 C 0.83224 0.16324 0.85369 0.0
O548 O 0.84812 0.22677 0.74788 0.0
O549 O 0.79858 0.27961 0.73291 0.0
O550 O 0.74689 0.26636 0.6987 0.0
O551 O 0.75439 0.20954 0.71952 0.0
O552 O 0.84844 0.28264 0.75475 0.0
O553 O 0.79437 0.18568 0.72955 0.0
O554 O 0.70189 0.28324 0.75864 0.0
O555 O 0.75241 0.23474 0.77199 0.0
O556 O 0.80322 0.24736 0.80705 0.0
O557 O 0.80034 0.30532 0.78423 0.0
O558 O 0.70309 0.2324 0.74766 0.0
O559 O 0.75434 0.32098 0.78176 0.0
C560 C 0.83242 0.30155 0.73457 0.0
C561 C 0.84499 0.16994 0.73272 0.0
C562 C 0.86832 0.13628 0.7069 0.0
C563 C 0.8507 0.16108 0.7052 0.0
C564 C 0.87944 0.11984 0.73638 0.0
C565 C 0.85581 0.1531 0.76198 0.0
C566 C 0.8729 0.12801 0.76373 0.0
C567 C 0.74475 0.23173 0.69586 0.0
C568 C 0.82985 0.19865 0.73036 0.0
C569 C 0.81415 0.1265 0.86947 0.0
C570 C 0.7795 0.10138 0.85633 0.0
C571 C 0.71846 0.21325 0.76823 0.0
C572 C 0.70453 0.33777 0.77741 0.0
C573 C 0.70277 0.3487 0.80548 0.0
C574 C 0.68672 0.37467 0.80523 0.0
C575 C 0.67349 0.39029 0.7761 0.0
C576 C 0.692 0.35416 0.74867 0.0
C577 C 0.67663 0.38045 0.74809 0.0
C578 C 0.80714 0.28272 0.80892 0.0
C579 C 0.71876 0.30852 0.77875 0.0
H580 H 0.84267 0.17455 0.6826 0.0
H581 H 0.89315 0.10065 0.73821 0.0
H582 H 0.85166 0.15986 0.78337 0.0
H583 H 0.88154 0.11529 0.78636 0.0
H584 H 0.71366 0.33657 0.82743 0.0
H585 H 0.65992 0.40946 0.7748 0.0
H586 H 0.69354 0.34622 0.72678 0.0
H587 H 0.66644 0.39263 0.72588 0.0
Eu588 Eu 0.75416 0.71598 0.71554 0.0
C589 C 0.86305 0.81763 0.81186 0.0
C590 C 0.8589 0.77085 0.85795 0.0
C591 C 0.91663 0.82615 0.85137 0.0
C592 C 0.84289 0.78341 0.82879 0.0
C593 C 0.89983 0.84 0.82349 0.0
C594 C 0.89619 0.79164 0.86858 0.0
C595 C 0.8992 0.89049 0.78159 0.0
N596 N 0.84581 0.83068 0.78544 0.0
C597 C 0.86266 0.86743 0.77116 0.0
C598 C 0.91809 0.87645 0.80758 0.0
Eu599 Eu 0.78397 0.78927 0.76927 0.0
N600 N 0.80682 0.76413 0.8181 0.0
C601 C 0.78447 0.73438 0.83665 0.0
C602 C 0.83648 0.739 0.87634 0.0
C603 C 0.7989 0.72136 0.86601 0.0
H604 H 0.8478 0.87855 0.75136 0.0
H605 H 0.78109 0.69745 0.88044 0.0
H606 H 0.90908 0.78209 0.89068 0.0
H607 H 0.91262 0.91917 0.76978 0.0
H608 H 0.75545 0.72065 0.82903 0.0
H609 H 0.77832 0.81923 0.60884 0.0
H610 H 0.84763 0.72872 0.89901 0.0
H611 H 0.67215 0.64254 0.7346 0.0
H612 H 0.79345 0.79578 0.66293 0.0
H613 H 0.60952 0.61188 0.7095 0.0
H614 H 0.94498 0.8427 0.86046 0.0
H615 H 0.71757 0.7851 0.57926 0.0
H616 H 0.65527 0.73168 0.57813 0.0
H617 H 0.94629 0.89454 0.81586 0.0
H618 H 0.60917 0.67708 0.60578 0.0
N619 N 0.7414 0.7478 0.66556 0.0
C620 C 0.7667 0.77989 0.65102 0.0
C621 C 0.72396 0.7743 0.60337 0.0
C622 C 0.69801 0.74174 0.61817 0.0
C623 C 0.75826 0.79366 0.61999 0.0
C624 C 0.70747 0.72893 0.64977 0.0
H625 H 0.59149 0.63364 0.65467 0.0
N626 N 0.69023 0.68679 0.69631 0.0
C627 C 0.62914 0.63654 0.69705 0.0
C628 C 0.68117 0.69805 0.66559 0.0
C629 C 0.66494 0.65532 0.71165 0.0
C630 C 0.6192 0.64866 0.66604 0.0
C631 C 0.6453 0.67931 0.64979 0.0
O632 O 0.73441 0.65578 0.70855 0.0
O633 O 0.78674 0.73484 0.76172 0.0
O634 O 0.83041 0.80632 0.74113 0.0
O635 O 0.81054 0.75942 0.7066 0.0
O636 O 0.78818 0.68693 0.74908 0.0
O637 O 0.77851 0.69966 0.68281 0.0
O638 O 0.77435 0.84125 0.76796 0.0
O639 O 0.74312 0.76655 0.7257 0.0
O640 O 0.72375 0.68932 0.75688 0.0
O641 O 0.72732 0.74332 0.77589 0.0
O642 O 0.77859 0.82489 0.72357 0.0
O643 O 0.76033 0.79719 0.80705 0.0
C644 C 0.80082 0.70982 0.7705 0.0
C645 C 0.75611 0.63169 0.67313 0.0
C646 C 0.78185 0.60748 0.6406 0.0
C647 C 0.78394 0.63773 0.65565 0.0
C648 C 0.75224 0.57128 0.64336 0.0
C649 C 0.72674 0.59511 0.67568 0.0
C650 C 0.72494 0.56514 0.66092 0.0
C651 C 0.83482 0.79132 0.71835 0.0
C652 C 0.75656 0.66314 0.68819 0.0
C653 C 0.63646 0.69136 0.61819 0.0
C654 C 0.66276 0.72234 0.60241 0.0
C655 C 0.74956 0.79967 0.70931 0.0
C656 C 0.77536 0.86181 0.81598 0.0
C657 C 0.75102 0.86413 0.83349 0.0
C658 C 0.76246 0.89505 0.85171 0.0
C659 C 0.79866 0.92343 0.85198 0.0
C660 C 0.81141 0.8902 0.81732 0.0
C661 C 0.82292 0.92073 0.83518 0.0
C662 C 0.71249 0.7059 0.77367 0.0
C663 C 0.7621 0.83134 0.79482 0.0
H664 H 0.80676 0.66575 0.65342 0.0
H665 H 0.75041 0.54764 0.63203 0.0
H666 H 0.70488 0.58968 0.68887 0.0
H667 H 0.70222 0.53711 0.663 0.0
H668 H 0.72325 0.84201 0.83272 0.0
H669 H 0.80821 0.94827 0.86476 0.0
H670 H 0.83053 0.8894 0.80407 0.0
H671 H 0.85065 0.9428 0.83559 0.0
C672 C 0.94856 0.06731 0.5356 0.0
C673 C 0.99911 0.09742 0.45067 0.0
C674 C 0.95838 0.94888 0.4459 0.0
Mg675 Mg 0.02353 0.08103 0.51843 0.0
O676 O 0.99838 0.02818 0.51454 0.0
Mg677 Mg 0.95027 0.00937 0.48673 0.0
Mg678 Mg 0.02234 1.00231 0.49794 0.0
O679 O 0.04622 0.9756 0.48197 0.0
Mg680 Mg 0.01995 0.92233 0.4817 0.0
Mg681 Mg 0.09338 0.99298 0.51102 0.0
C682 C 0.08897 0.05733 0.54756 0.0
C683 C 0.08721 0.06277 0.45956 0.0
O684 O 0.9323 0.03958 0.51814 0.0
O685 O 0.98334 0.08711 0.53907 0.0
O686 O 0.97129 0.0651 0.45371 0.0
O687 O 0.02534 0.10937 0.4727 0.0
O688 O 0.07493 0.08223 0.54394 0.0
O689 O 0.07191 0.02503 0.5357 0.0
C690 C 0.95785 0.93982 0.53695 0.0
O691 O 0.99102 0.95199 0.53171 0.0
O692 O 0.93612 0.95533 0.5218 0.0
O693 O 0.11055 0.95997 0.48173 0.0
O694 O 0.05887 0.9114 0.46322 0.0
O695 O 0.07049 0.93858 0.5462 0.0
C696 C 0.09367 0.9308 0.46586 0.0
O697 O 1.01466 0.89732 0.52765 0.0
O698 O 0.97129 0.92292 0.45356 0.0
C699 C 0.04087 0.90816 0.54979 0.0
O700 O 0.97317 0.98053 0.45891 0.0
O701 O 0.05419 0.05258 0.46455 0.0
O702 O 0.10782 0.04572 0.4745 0.0
C703 C 0.43457 0.06844 0.01885 0.0
C704 C 0.44875 0.07924 0.92591 0.0
C705 C 0.45865 0.92734 0.97619 0.0
Mg706 Mg 0.50344 0.0881 0.98882 0.0
O707 O 0.48952 0.03522 0.99885 0.0
Mg708 Mg 0.43839 1.00048 0.98293 0.0
Mg709 Mg 0.52095 0.00583 0.0003 0.0
O710 O 0.55219 0.97683 0.00104 0.0
Mg711 Mg 0.53871 0.92393 0.00542 0.0
Mg712 Mg 0.60373 0.01148 0.01595 0.0
C713 C 0.58255 0.08456 0.02458 0.0
C714 C 0.58041 0.05658 0.95011 0.0
O715 O 0.41877 0.03676 0.00599 0.0
O716 O 0.46802 0.0918 0.01688 0.0
O717 O 0.43377 0.04284 0.93567 0.0
O718 O 0.4784 0.10176 0.94111 0.0
O719 O 0.56073 0.10077 0.01009 0.0
O720 O 0.5724 0.04739 0.02905 0.0
C721 C 0.46086 0.95707 0.05036 0.0
O722 O 0.49467 0.96864 0.04635 0.0
O723 O 0.43785 0.96486 0.02909 0.0
O724 O 0.62329 0.97651 0.99048 0.0
O725 O 0.57344 0.92414 0.97493 0.0
O726 O 0.60729 0.96686 0.06262 0.0
C727 C 0.60737 0.9469 0.97497 0.0
O728 O 0.566 0.90813 0.05084 0.0
O729 O 0.48005 0.90978 0.98815 0.0
C730 C 0.59364 0.92953 0.06869 0.0
O731 O 0.47009 0.96454 0.97173 0.0
O732 O 0.54661 0.04282 0.95461 0.0
O733 O 0.60468 0.04965 0.97038 0.0
C734 C 0.94815 0.57826 0.02149 0.0
C735 C 0.95356 0.58377 0.92756 0.0
C736 C 0.95185 0.42726 0.97522 0.0
Mg737 Mg 1.01208 0.58959 0.98829 0.0
O738 O 0.99412 0.53678 0.99815 0.0
Mg739 Mg 0.94109 0.50557 0.98458 0.0
Mg740 Mg 0.02111 0.50393 0.99753 0.0
O741 O 0.04763 0.4707 0.99702 0.0
Mg742 Mg 0.02938 0.41737 0.00418 0.0
Mg743 Mg 0.10016 0.50144 0.01254 0.0
C744 C 0.08898 0.58042 0.02075 0.0
C745 C 0.08039 0.54931 0.94693 0.0
O746 O 0.92796 0.54704 0.00855 0.0
O747 O 0.9822 0.59726 0.01871 0.0
O748 O 0.93733 0.54717 0.93629 0.0
O749 O 0.98411 0.60462 0.94284 0.0
O750 O 0.06952 0.59949 0.00672 0.0
O751 O 0.07536 0.54298 0.02543 0.0
C752 C 0.96463 0.46005 0.05064 0.0
O753 O 0.9967 0.46853 0.04383 0.0
O754 O 0.94134 0.47033 0.03165 0.0
O755 O 0.11462 0.46104 0.98844 0.0
O756 O 0.06072 0.41265 0.97299 0.0
O757 O 0.10176 0.45893 0.05975 0.0
C758 C 0.0953 0.43191 0.97281 0.0
O759 O 0.05677 0.4014 0.04991 0.0
O760 O 0.9711 0.40732 0.98738 0.0
C761 C 0.08607 0.42199 0.06683 0.0
O762 O 0.96619 0.46465 0.97073 0.0
O763 O 0.04703 0.54015 0.9511 0.0
O764 O 0.10171 0.53789 0.96741 0.0
C765 C 0.44699 0.57538 0.03244 0.0
C766 C 0.51622 0.59913 0.96872 0.0
C767 C 0.45371 0.4464 0.95168 0.0
Mg768 Mg 0.52903 0.59017 0.02778 0.0
O769 O 0.50063 0.54028 0.00905 0.0
Mg770 Mg 0.4475 0.51549 0.98355 0.0
Mg771 Mg 0.52275 0.50719 0.99773 0.0
O772 O 0.54442 0.47562 0.98578 0.0
Mg773 Mg 0.51687 0.42241 0.98865 0.0
Mg774 Mg 0.59263 0.49482 0.01353 0.0
C775 C 0.5871 0.55589 0.05477 0.0
C776 C 0.58721 0.55965 0.95626 0.0
O777 O 0.43184 0.55058 0.01227 0.0
O778 O 0.4817 0.59123 0.04156 0.0
O779 O 0.50548 0.56464 0.98336 0.0
O780 O 0.54164 0.62565 0.98375 0.0
O781 O 0.57307 0.57912 0.0573 0.0
O782 O 0.57341 0.53195 0.03416 0.0
C783 C 0.46349 0.45513 0.04244 0.0
O784 O 0.49489 0.46284 0.0355 0.0
O785 O 0.44307 0.47168 0.02681 0.0
O786 O 0.60739 0.45614 0.98854 0.0
O787 O 0.55426 0.40859 0.97121 0.0
O788 O 0.5701 0.44504 0.05205 0.0
C789 C 0.58924 0.42627 0.9736 0.0
O790 O 0.51396 0.40203 0.03618 0.0
O791 O 0.46766 0.42131 0.95977 0.0
C792 C 0.54076 0.41516 0.05753 0.0
O793 O 0.46973 0.48 0.96181 0.0
O794 O 0.55423 0.55083 0.96053 0.0
O795 O 0.60773 0.54378 0.97355 0.0
C796 C 0.93475 0.56295 0.51419 0.0
C797 C 0.94877 0.57319 0.42162 0.0
C798 C 0.95522 0.41962 0.47074 0.0
Mg799 Mg 1.00328 0.58062 0.48385 0.0
O800 O 0.98702 0.52742 0.49417 0.0
Mg801 Mg 0.93586 0.49344 0.47791 0.0
Mg802 Mg 1.01737 0.49789 0.49487 0.0
O803 O 0.04819 0.46872 0.4961 0.0
Mg804 Mg 0.03519 0.41627 0.49992 0.0
Mg805 Mg 0.09895 0.5028 0.5125 0.0
C806 C 0.07924 0.57541 0.52237 0.0
C807 C 0.07749 0.54683 0.4453 0.0
O808 O 0.91803 0.53073 0.50203 0.0
O809 O 0.96816 0.58574 0.51132 0.0
O810 O 0.93278 0.53702 0.43157 0.0
O811 O 0.97931 0.59494 0.4363 0.0
O812 O 0.06048 0.59427 0.50625 0.0
O813 O 0.06739 0.53825 0.525 0.0
C814 C 0.95699 0.44629 0.54338 0.0
O815 O 0.99104 0.45983 0.53978 0.0
O816 O 0.93383 0.4549 0.52288 0.0
O817 O 0.11989 0.46768 0.48923 0.0
O818 O 0.06947 0.42006 0.46786 0.0
O819 O 0.10109 0.45956 0.55944 0.0
C820 C 0.10395 0.44121 0.47057 0.0
O821 O 0.06352 0.4008 0.54514 0.0
O822 O 0.97678 0.40239 0.48303 0.0
C823 C 0.08919 0.4223 0.56432 0.0
O824 O 0.96644 0.45685 0.4655 0.0
O825 O 0.04384 0.53534 0.44954 0.0
O826 O 0.10077 0.53915 0.46631 0.0
C827 C 0.44617 0.07725 0.5234 0.0
C828 C 0.46137 0.09459 0.42948 0.0
C829 C 0.4563 0.93602 0.46891 0.0
Mg830 Mg 0.51488 0.09576 0.49365 0.0
O831 O 0.49629 0.04228 0.49861 0.0
Mg832 Mg 0.44447 0.0121 0.48074 0.0
Mg833 Mg 0.5231 0.00987 0.49722 0.0
O834 O 0.54987 0.97725 0.49594 0.0
Mg835 Mg 0.53053 0.92392 0.50566 0.0
Mg836 Mg 0.60216 0.00839 0.51212 0.0
C837 C 0.59064 0.08434 0.52592 0.0
C838 C 0.58194 0.0564 0.44651 0.0
O839 O 0.42764 0.04953 0.50612 0.0
O840 O 0.48088 0.09676 0.52414 0.0
O841 O 0.44559 0.05747 0.43513 0.0
O842 O 0.48955 0.11445 0.44783 0.0
O843 O 0.57272 0.10564 0.51373 0.0
O844 O 0.57592 0.0471 0.52717 0.0
C845 C 0.46113 0.95938 0.54452 0.0
O846 O 0.49507 0.9703 0.54137 0.0
O847 O 0.44009 0.97169 0.52442 0.0
O848 O 0.61728 0.96878 0.48877 0.0
O849 O 0.56346 0.91842 0.47649 0.0
O850 O 0.60355 0.96531 0.55831 0.0
C851 C 0.59771 0.93828 0.47489 0.0
O852 O 0.55596 0.90812 0.55297 0.0
O853 O 0.47352 0.91467 0.48312 0.0
C854 C 0.58674 0.92924 0.56791 0.0
O855 O 0.47116 0.97332 0.46655 0.0
O856 O 0.54959 0.04791 0.45259 0.0
O857 O 0.60458 0.04553 0.46582 0.0
C858 C 0.1636 0.19168 0.30365 0.0
C859 C 0.19205 0.18178 0.30067 0.0
C860 C 0.14144 0.17223 0.32725 0.0
C861 C 0.14916 0.14354 0.34886 0.0
C862 C 0.17722 0.13269 0.34522 0.0
C863 C 0.19796 0.15157 0.32066 0.0
C864 C 0.11082 0.1834 0.32984 0.0
C865 C 0.18656 0.10256 0.36813 0.0
C866 C 0.12895 0.12301 0.43216 0.0
C867 C 0.09861 0.08764 0.43094 0.0
C868 C 0.14423 0.14304 0.40487 0.0
C869 C 0.12942 0.12623 0.37634 0.0
C870 C 0.0978 0.09112 0.37493 0.0
C871 C 0.08244 0.0724 0.40236 0.0
C872 C 0.17747 0.18097 0.40694 0.0
C873 C 0.08176 0.072 0.34508 0.0
H874 H 0.1591 0.215 0.28781 0.0
H875 H 0.22023 0.14432 0.31823 0.0
H876 H 0.08505 0.15723 0.3326 0.0
H877 H 0.11807 0.19857 0.35097 0.0
H878 H 0.10557 0.20269 0.309 0.0
H879 H 0.20864 0.09694 0.36145 0.0
H880 H 0.19579 0.11235 0.39186 0.0
H881 H 0.16185 0.07498 0.36969 0.0
H882 H 0.14134 0.13426 0.45454 0.0
H883 H 0.05926 0.04449 0.40189 0.0
H884 H 0.17329 0.2033 0.38848 0.0
H885 H 0.20184 0.17735 0.4029 0.0
H886 H 0.18343 0.19168 0.43014 0.0
H887 H 0.0784 0.09316 0.32508 0.0
H888 H 0.05473 0.04729 0.34705 0.0
H889 H 0.10084 0.06105 0.33956 0.0
C890 C 0.83552 0.10035 0.38104 0.0
C891 C 0.82942 0.12071 0.35217 0.0
C892 C 0.8709 0.11152 0.39786 0.0
C893 C 0.90024 0.14381 0.38529 0.0
C894 C 0.89333 0.16766 0.35876 0.0
C895 C 0.85824 0.1554 0.34206 0.0
C896 C 0.87756 0.08597 0.42687 0.0
C897 C 0.92381 0.20288 0.34524 0.0
C898 C 0.98966 0.15599 0.43479 0.0
C899 C 0.99406 0.12554 0.42545 0.0
C900 C 0.96041 0.16558 0.41998 0.0
C901 C 0.93764 0.14584 0.39441 0.0
C902 C 0.94788 0.12205 0.38064 0.0
C903 C 0.97652 0.11214 0.39656 0.0
C904 C 0.95075 0.19174 0.43483 0.0
C905 C 0.92523 0.10229 0.35205 0.0
H906 H 0.81336 0.07428 0.38932 0.0
H907 H 0.85484 0.17156 0.31952 0.0
H908 H 0.88925 0.06721 0.42081 0.0
H909 H 0.89757 0.10359 0.44514 0.0
H910 H 0.85173 0.06704 0.43674 0.0
H911 H 0.91322 0.22434 0.33172 0.0
H912 H 0.94625 0.21713 0.36376 0.0
H913 H 0.93567 0.19393 0.32899 0.0
H914 H 1.00405 0.16678 0.45704 0.0
H915 H 0.98085 0.08911 0.38931 0.0
H916 H 0.93216 0.17399 0.45242 0.0
H917 H 0.93642 0.20726 0.41731 0.0
H918 H 0.97572 0.21323 0.44719 0.0
H919 H 0.89822 0.08031 0.35804 0.0
H920 H 0.93896 0.0876 0.34295 0.0
H921 H 0.91997 0.12358 0.33311 0.0
C922 C 0.80589 0.84889 0.32468 0.0
C923 C 0.81634 0.85306 0.29518 0.0
C924 C 0.82379 0.87817 0.34442 0.0
C925 C 0.85324 0.91233 0.33455 0.0
C926 C 0.85909 0.91949 0.30275 0.0
C927 C 0.84084 0.88944 0.28338 0.0
C928 C 0.81499 0.8698 0.37753 0.0
C929 C 0.88778 0.95698 0.29026 0.0
C930 C 0.91004 0.96443 0.40589 0.0
C931 C 0.93336 0.94498 0.41571 0.0
C932 C 0.88566 0.95736 0.37747 0.0
C933 C 0.88457 0.92996 0.35908 0.0
C934 C 0.91047 0.91313 0.36778 0.0
C935 C 0.93437 0.92105 0.39558 0.0
C936 C 0.86078 0.97855 0.36781 0.0
C937 C 0.91178 0.88462 0.34886 0.0
H938 H 0.78546 0.82158 0.33343 0.0
H939 H 0.84766 0.89376 0.25994 0.0
H940 H 0.83685 0.86306 0.39376 0.0
H941 H 0.81402 0.89539 0.38477 0.0
H942 H 0.78826 0.84482 0.3801 0.0
H943 H 0.87807 0.96575 0.26571 0.0
H944 H 0.89461 0.98058 0.30474 0.0
H945 H 0.91317 0.95296 0.29 0.0
H946 H 0.91013 0.98421 0.4206 0.0
H947 H 0.95366 0.90742 0.40178 0.0
H948 H 0.83622 0.9634 0.38005 0.0
H949 H 0.85165 0.98023 0.34215 0.0
H950 H 0.87494 0.00832 0.37483 0.0
H951 H 0.88502 0.85924 0.34685 0.0
H952 H 0.9334 0.87384 0.35944 0.0
H953 H 0.91739 0.89847 0.32487 0.0
C954 C 0.12174 0.85819 0.32362 0.0
C955 C 0.15783 0.86857 0.31863 0.0
C956 C 0.11447 0.8665 0.35068 0.0
C957 C 0.14411 0.88614 0.37311 0.0
C958 C 0.18062 0.89526 0.36881 0.0
C959 C 0.18707 0.88615 0.34161 0.0
C960 C 0.07508 0.85558 0.3546 0.0
C961 C 0.21285 0.91587 0.39235 0.0
C962 C 0.12416 0.94775 0.41875 0.0
C963 C 0.11354 0.9225 0.4458 0.0
C964 C 0.13538 0.9367 0.3953 0.0
C965 C 0.13678 0.8999 0.3995 0.0
C966 C 0.12818 0.87532 0.42776 0.0
C967 C 0.11586 0.88664 0.45036 0.0
C968 C 0.14346 0.96337 0.36523 0.0
C969 C 0.13021 0.83634 0.43351 0.0
H970 H 0.09916 0.8438 0.30613 0.0
H971 H 0.21501 0.89391 0.33781 0.0
H972 H 0.06924 0.83887 0.37781 0.0
H973 H 0.0704 0.88218 0.35361 0.0
H974 H 0.05524 0.83802 0.33615 0.0
H975 H 0.23905 0.9169 0.38747 0.0
H976 H 0.2157 0.94596 0.39181 0.0
H977 H 0.20822 0.90139 0.41641 0.0
H978 H 0.12139 0.97512 0.41506 0.0
H979 H 0.10702 0.86704 0.47118 0.0
H980 H 0.12293 0.94949 0.34545 0.0
H981 H 0.17089 0.96865 0.36001 0.0
H982 H 0.14271 0.99166 0.36623 0.0
H983 H 0.10711 0.81607 0.41866 0.0
H984 H 0.12856 0.82379 0.4584 0.0
H985 H 0.15612 0.83864 0.42704 0.0
C986 C 0.18682 0.87664 0.59634 0.0
C987 C 0.19758 0.86237 0.62662 0.0
C988 C 0.14949 0.86547 0.5848 0.0
C989 C 0.12307 0.83906 0.60404 0.0
C990 C 0.13366 0.81814 0.63091 0.0
C991 C 0.17083 0.83049 0.64237 0.0
C992 C 0.13869 0.88669 0.55459 0.0
C993 C 0.10601 0.78805 0.65092 0.0
C994 C 0.06644 0.89265 0.60295 0.0
C995 C 0.04211 0.87944 0.57616 0.0
C996 C 0.09051 0.87512 0.61631 0.0
C997 C 0.08888 0.84396 0.60218 0.0
C998 C 0.05814 0.82493 0.58069 0.0
C999 C 0.03375 0.84246 0.5686 0.0
C1000 C 0.12154 0.89458 0.64122 0.0
C1001 C 0.05434 0.79053 0.56625 0.0
H1002 H 0.20713 0.89934 0.58306 0.0
H1003 H 0.17737 0.81781 0.66566 0.0
H1004 H 0.11374 0.86691 0.54097 0.0
H1005 H 0.13247 0.91011 0.56004 0.0
H1006 H 0.16113 0.90002 0.53976 0.0
H1007 H 0.11583 0.7654 0.66287 0.0
H1008 H 0.1026 0.80203 0.66934 0.0
H1009 H 0.07874 0.77409 0.63698 0.0
H1010 H 0.07132 0.92043 0.60959 0.0
H1011 H 1.01326 0.83121 0.54874 0.0
H1012 H 0.14701 0.91201 0.63045 0.0
H1013 H 0.12692 0.87285 0.65957 0.0
H1014 H 0.11541 0.9142 0.65263 0.0
H1015 H 0.06549 0.80072 0.54359 0.0
H1016 H 0.02492 0.77083 0.56122 0.0
H1017 H 0.06943 0.77409 0.5815 0.0
C1018 C 0.18365 0.13351 0.69634 0.0
C1019 C 0.22192 0.15077 0.70334 0.0
C1020 C 0.16684 0.10927 0.67238 0.0
C1021 C 0.18893 0.10151 0.6556 0.0
C1022 C 0.22725 0.11491 0.66546 0.0
C1023 C 0.24342 0.14013 0.68879 0.0
C1024 C 0.12584 0.09576 0.66268 0.0
C1025 C 0.25175 0.10567 0.64964 0.0
C1026 C 0.12717 0.03724 0.59324 0.0
C1027 C 0.12352 0.06552 0.56925 0.0
C1028 C 0.15194 0.04802 0.62079 0.0
C1029 C 0.17295 0.08783 0.62412 0.0
C1030 C 0.17294 0.11578 0.59802 0.0
C1031 C 0.14826 0.10419 0.57084 0.0
C1032 C 0.1528 0.01705 0.64724 0.0
C1033 C 0.19572 0.15851 0.6 0.0
H1034 H 0.16701 0.14186 0.70742 0.0
H1035 H 0.27309 0.15308 0.69452 0.0
H1036 H 0.12033 0.11157 0.63968 0.0
H1037 H 0.11315 0.06448 0.65986 0.0
H1038 H 0.11224 0.10081 0.67995 0.0
H1039 H 0.27583 0.10446 0.66643 0.0
H1040 H 0.23677 0.07773 0.63953 0.0
H1041 H 0.26238 0.12885 0.63043 0.0
H1042 H 0.10825 0.00722 0.59192 0.0
H1043 H 0.14583 0.12597 0.55193 0.0
H1044 H 0.13284 0.01281 0.66293 0.0
H1045 H 0.18045 0.02529 0.66131 0.0
H1046 H 0.14489 0.98902 0.63821 0.0
H1047 H 0.18573 0.16874 0.61684 0.0
H1048 H 0.19443 0.17609 0.57697 0.0
H1049 H 0.22486 0.1639 0.6087 0.0
C1050 C 0.91269 0.13511 0.67606 0.0
C1051 C 0.87664 0.12878 0.67814 0.0
C1052 C 0.92112 0.12613 0.64993 0.0
C1053 C 0.89267 0.11006 0.62542 0.0
C1054 C 0.85637 0.10495 0.62686 0.0
C1055 C 0.84878 0.11461 0.65324 0.0
C1056 C 0.96035 0.13279 0.64907 0.0
C1057 C 0.82545 0.08824 0.60104 0.0
C1058 C 0.92806 0.11258 0.55121 0.0
C1059 C 0.9274 0.07545 0.55453 0.0
C1060 C 0.91429 0.12347 0.57296 0.0
C1061 C 0.90096 0.09694 0.59923 0.0
C1062 C 0.89908 0.05884 0.60201 0.0
C1063 C 0.912 0.04838 0.57932 0.0
C1064 C 0.91593 0.16399 0.56872 0.0
C1065 C 0.88578 0.03 0.63003 0.0
H1066 H 0.93428 0.14687 0.6951 0.0
H1067 H 0.82091 0.10998 0.65485 0.0
H1068 H 0.96196 0.10471 0.64907 0.0
H1069 H 0.96994 0.15108 0.62724 0.0
H1070 H 0.97939 0.14707 0.6694 0.0
H1071 H 0.79974 0.09001 0.60405 0.0
H1072 H 0.83335 0.10358 0.57787 0.0
H1073 H 0.81981 0.05741 0.6008 0.0
H1074 H 0.94042 0.13348 0.53209 0.0
H1075 H 0.91232 0.01991 0.58209 0.0
H1076 H 0.9379 0.18122 0.58619 0.0
H1077 H 0.88963 0.16349 0.5727 0.0
H1078 H 0.92176 0.17886 0.54492 0.0
H1079 H 0.90488 0.04047 0.65155 0.0
H1080 H 0.88399 1.00093 0.62778 0.0
H1081 H 0.85836 0.02722 0.63323 0.0
C1082 C 0.87448 0.85411 0.69236 0.0
C1083 C 0.86587 0.81458 0.70087 0.0
C1084 C 0.89548 0.87445 0.66808 0.0
C1085 C 0.90845 0.8547 0.65246 0.0
C1086 C 0.90297 0.81587 0.66323 0.0
C1087 C 0.8813 0.79607 0.68714 0.0
C1088 C 0.90057 0.91584 0.65715 0.0
C1089 C 0.91706 0.79418 0.64759 0.0
C1090 C 0.90936 0.88826 0.56584 0.0
C1091 C 0.94645 0.9124 0.56487 0.0
C1092 C 0.89701 0.86789 0.59412 0.0
C1093 C 0.92234 0.87254 0.62211 0.0
C1094 C 0.96013 0.89555 0.62102 0.0
C1095 C 0.97183 0.91497 0.59225 0.0
C1096 C 0.85653 0.84306 0.59428 0.0
C1097 C 0.98784 0.90161 0.65038 0.0
H1098 H 0.86196 0.86826 0.70252 0.0
H1099 H 0.87456 0.76545 0.6938 0.0
H1100 H 0.92935 0.93407 0.65309 0.0
H1101 H 0.88267 0.91697 0.63454 0.0
H1102 H 0.8934 0.92851 0.6743 0.0
H1103 H 0.91623 0.76689 0.66203 0.0
H1104 H 0.89982 0.78687 0.62467 0.0
H1105 H 0.94568 0.81234 0.64298 0.0
H1106 H 0.88983 0.88638 0.54463 0.0
H1107 H 1.00051 0.93419 0.59162 0.0
H1108 H 0.84497 0.85585 0.60775 0.0
H1109 H 0.85226 0.8136 0.60606 0.0
H1110 H 0.84093 0.84047 0.57027 0.0
H1111 H 0.98406 0.92052 0.66439 0.0
H1112 H 1.01654 0.91547 0.64502 0.0
H1113 H 0.98369 0.87371 0.66517 0.0
C1114 C 0.29013 0.09874 0.09296 0.0
C1115 C 0.3 0.10503 0.12457 0.0
C1116 C 0.31546 0.09824 0.07588 0.0
C1117 C 0.35114 0.10314 0.09108 0.0
C1118 C 0.36178 0.11126 0.12267 0.0
C1119 C 0.33605 0.11253 0.13901 0.0
C1120 C 0.30337 0.09028 0.04203 0.0
C1121 C 0.39931 0.11584 0.13987 0.0
C1122 C 0.38919 0.04786 0.05605 0.0
C1123 C 0.41409 0.07756 0.03797 0.0
C1124 C 0.37009 0.05624 0.07488 0.0
C1125 C 0.37528 0.09506 0.07481 0.0
C1126 C 0.40084 0.1252 0.05696 0.0
C1127 C 0.4204 0.11609 0.03906 0.0
C1128 C 0.34384 0.02357 0.09448 0.0
C1129 C 0.40636 0.16679 0.05564 0.0
H1130 H 0.26226 0.09327 0.08185 0.0
H1131 H 0.34348 0.11728 0.16354 0.0
H1132 H 0.32428 0.11106 0.02726 0.0
H1133 H 0.30058 0.06081 0.03992 0.0
H1134 H 0.27659 0.09214 0.03261 0.0
H1135 H 0.40504 0.12748 0.16263 0.0
H1136 H 0.40097 0.08723 0.14448 0.0
H1137 H 0.42112 0.13529 0.12547 0.0
H1138 H 0.38496 0.01812 0.05575 0.0
H1139 H 0.43986 0.13904 0.02515 0.0
H1140 H 0.31543 0.02159 0.08674 0.0
H1141 H 0.35118 0.02915 0.11942 0.0
H1142 H 0.34395 0.99527 0.09283 0.0
H1143 H 0.38091 0.17017 0.04365 0.0
H1144 H 0.42951 0.18706 0.04283 0.0
H1145 H 0.41165 0.17514 0.0796 0.0
C1146 C 0.87977 0.34828 0.21074 0.0
C1147 C 0.84396 0.32279 0.20034 0.0
C1148 C 0.90584 0.36812 0.1897 0.0
C1149 C 0.89552 0.36322 0.15732 0.0
C1150 C 0.85983 0.33623 0.14716 0.0
C1151 C 0.83454 0.31739 0.16859 0.0
C1152 C 0.94345 0.39651 0.20174 0.0
C1153 C 0.84698 0.32982 0.11306 0.0
C1154 C 0.92959 0.44792 0.09464 0.0
C1155 C 0.95288 0.4386 0.08114 0.0
C1156 C 0.91264 0.42486 0.12052 0.0
C1157 C 0.91862 0.39105 0.13329 0.0
C1158 C 0.94347 0.38243 0.12063 0.0
C1159 C 0.96057 0.40649 0.09484 0.0
C1160 C 0.88665 0.43566 0.13304 0.0
C1161 C 0.95048 0.34673 0.1332 0.0
H1162 H 0.8867 0.35467 0.23483 0.0
H1163 H 0.80641 0.30034 0.16009 0.0
H1164 H 0.96491 0.39414 0.19121 0.0
H1165 H 0.94502 0.42639 0.19494 0.0
H1166 H 0.94957 0.39191 0.22768 0.0
H1167 H 0.82111 0.3035 0.10987 0.0
H1168 H 0.84199 0.35512 0.09992 0.0
H1169 H 0.86823 0.32699 0.10258 0.0
H1170 H 0.92368 0.4729 0.08426 0.0
H1171 H 0.97825 0.39897 0.08433 0.0
H1172 H 0.89364 0.43605 0.15881 0.0
H1173 H 0.85814 0.41369 0.12828 0.0
H1174 H 0.88728 0.46442 0.12223 0.0
H1175 H 0.95841 0.34578 0.15895 0.0
H1176 H 0.9725 0.34551 0.12257 0.0
H1177 H 0.92489 0.32076 0.12825 0.0
C1178 C 0.66764 0.77979 0.18296 0.0
C1179 C 0.70554 0.79342 0.1942 0.0
C1180 C 0.65135 0.80393 0.16407 0.0
C1181 C 0.67334 0.84301 0.1542 0.0
C1182 C 0.71191 0.85692 0.16471 0.0
C1183 C 0.72723 0.83256 0.18538 0.0
C1184 C 0.61013 0.78746 0.15515 0.0
C1185 C 0.73717 0.89745 0.15376 0.0
C1186 C 0.62743 0.88572 0.0799 0.0
C1187 C 0.61556 0.90967 0.09141 0.0
C1188 C 0.6477 0.86584 0.0996 0.0
C1189 C 0.65564 0.86831 0.13239 0.0
C1190 C 0.6438 0.89256 0.14424 0.0
C1191 C 0.62471 0.91346 0.12367 0.0
C1192 C 0.66032 0.84176 0.08515 0.0
C1193 C 0.65012 0.89532 0.17895 0.0
H1194 H 0.65009 0.74995 0.18975 0.0
H1195 H 0.75613 0.84427 0.19461 0.0
H1196 H 0.59873 0.80633 0.16142 0.0
H1197 H 0.60304 0.78645 0.12946 0.0
H1198 H 0.5965 0.75777 0.16693 0.0
H1199 H 0.76648 0.90358 0.16278 0.0
H1200 H 0.73383 0.90178 0.12776 0.0
H1201 H 0.72986 0.91874 0.16152 0.0
H1202 H 0.62107 0.88276 0.05503 0.0
H1203 H 0.61585 0.9317 0.13302 0.0
H1204 H 0.64463 0.81061 0.09227 0.0
H1205 H 0.6898 0.84837 0.09364 0.0
H1206 H 0.65644 0.84677 0.05913 0.0
H1207 H 0.63639 0.86619 0.19153 0.0
H1208 H 0.63948 0.91517 0.18473 0.0
H1209 H 0.67988 0.90565 0.18786 0.0
C1210 C 0.24773 0.70971 0.14173 0.0
C1211 C 0.22738 0.6965 0.16682 0.0
C1212 C 0.23581 0.68984 0.11512 0.0
C1213 C 0.20193 0.65704 0.11322 0.0
C1214 C 0.18229 0.64262 0.13937 0.0
C1215 C 0.19569 0.66225 0.1661 0.0
C1216 C 0.25898 0.70519 0.08884 0.0
C1217 C 0.14575 0.60806 0.13835 0.0
C1218 C 0.13373 0.6422 0.04042 0.0
C1219 C 0.12558 0.60359 0.0371 0.0
C1220 C 0.16121 0.6616 0.06354 0.0
C1221 C 0.18268 0.64284 0.08255 0.0
C1222 C 0.17912 0.60683 0.07545 0.0
C1223 C 0.1497 0.58687 0.05334 0.0
C1224 C 0.16417 0.70024 0.06993 0.0
C1225 C 0.2047 0.58833 0.09267 0.0
H1226 H 0.27309 0.73536 0.14295 0.0
H1227 H 0.1806 0.65174 0.18601 0.0
H1228 H 0.25203 0.68333 0.07262 0.0
H1229 H 0.25503 0.73087 0.07532 0.0
H1230 H 0.28858 0.71492 0.0985 0.0
H1231 H 0.13448 0.60018 0.1609 0.0
H1232 H 0.12555 0.61438 0.11957 0.0
H1233 H 0.14864 0.58263 0.1328 0.0
H1234 H 0.11624 0.6562 0.0272 0.0
H1235 H 0.1446 0.55769 0.05001 0.0
H1236 H 0.1926 0.72228 0.06894 0.0
H1237 H 0.15761 0.69782 0.09381 0.0
H1238 H 0.14529 0.71081 0.05286 0.0
H1239 H 0.23308 0.61059 0.09746 0.0
H1240 H 0.20505 0.56689 0.07905 0.0
H1241 H 0.19553 0.57309 0.11547 0.0
C1242 C 0.36653 0.8064 0.85221 0.0
C1243 C 0.32889 0.79066 0.84189 0.0
C1244 C 0.38 0.82482 0.87966 0.0
C1245 C 0.35495 0.82648 0.89716 0.0
C1246 C 0.31684 0.80772 0.88808 0.0
C1247 C 0.30441 0.79066 0.86024 0.0
C1248 C 0.42103 0.84472 0.88879 0.0
C1249 C 0.28916 0.80794 0.90632 0.0
C1250 C 0.40712 0.86307 0.97305 0.0
C1251 C 0.42117 0.90294 0.96319 0.0
C1252 C 0.38118 0.83687 0.95295 0.0
C1253 C 0.36919 0.85134 0.9228 0.0
C1254 C 0.37799 0.89149 0.91538 0.0
C1255 C 0.40404 0.91709 0.93593 0.0
C1256 C 0.37088 0.79413 0.96233 0.0
C1257 C 0.36424 0.90786 0.88393 0.0
H1258 H 0.38542 0.8067 0.83782 0.0
H1259 H 0.27544 0.77905 0.85204 0.0
H1260 H 0.4293 0.87644 0.88689 0.0
H1261 H 0.42894 0.83495 0.91353 0.0
H1262 H 0.43664 0.839 0.87369 0.0
H1263 H 0.26136 0.78523 0.90007 0.0
H1264 H 0.2976 0.80351 0.93193 0.0
H1265 H 0.28727 0.83641 0.90098 0.0
H1266 H 0.41939 0.85216 0.99489 0.0
H1267 H 0.41413 0.94797 0.9287 0.0
H1268 H 0.38888 0.7851 0.9527 0.0
H1269 H 0.34204 0.77687 0.95278 0.0
H1270 H 0.37452 0.78725 0.98822 0.0
H1271 H 0.38056 0.90862 0.86618 0.0
H1272 H 0.36696 0.93776 0.8844 0.0
H1273 H 0.3351 0.8895 0.87637 0.0
C1274 C 0.17464 0.33202 0.87807 0.0
C1275 C 0.14442 0.29749 0.87111 0.0
C1276 C 0.1708 0.35975 0.89218 0.0
C1277 C 0.13603 0.35253 0.89968 0.0
C1278 C 0.10515 0.31864 0.89127 0.0
C1279 C 0.10973 0.29163 0.87702 0.0
C1280 C 0.20418 0.39593 0.90024 0.0
C1281 C 0.06745 0.31008 0.89846 0.0
C1282 C 0.1265 0.39053 0.9695 0.0
C1283 C 0.11316 0.41829 0.95484 0.0
C1284 C 0.13602 0.37032 0.9518 0.0
C1285 C 0.13216 0.37838 0.9187 0.0
C1286 C 0.12077 0.40823 0.90396 0.0
C1287 C 0.11091 0.42761 0.92228 0.0
C1288 C 0.14774 0.33851 0.96841 0.0
C1289 C 0.1169 0.41805 0.86881 0.0
H1290 H 0.20156 0.33675 0.87353 0.0
H1291 H 0.08614 0.26548 0.87091 0.0
H1292 H 0.19789 0.42186 0.89263 0.0
H1293 H 0.21222 0.39449 0.92603 0.0
H1294 H 0.22797 0.39966 0.88923 0.0
H1295 H 0.04602 0.28344 0.8889 0.0
H1296 H 0.06781 0.3064 0.92421 0.0
H1297 H 0.05962 0.33464 0.88857 0.0
H1298 H 0.12746 0.38308 0.99468 0.0
H1299 H 0.09997 0.44884 0.91109 0.0
H1300 H 0.17359 0.34213 0.96092 0.0
H1301 H 0.12636 0.31011 0.96202 0.0
H1302 H 0.15199 0.3379 0.99431 0.0
H1303 H 0.14159 0.42093 0.8597 0.0
H1304 H 0.11278 0.44532 0.86147 0.0
H1305 H 0.093 0.3943 0.85772 0.0
C1306 C 0.71532 0.17711 0.82316 0.0
C1307 C 0.69768 0.18774 0.79431 0.0
C1308 C 0.6953 0.15419 0.84778 0.0
C1309 C 0.65709 0.14485 0.84478 0.0
C1310 C 0.63956 0.15759 0.81644 0.0
C1311 C 0.65963 0.17745 0.79133 0.0
C1312 C 0.71498 0.13929 0.87662 0.0
C1313 C 0.59972 0.15129 0.81292 0.0
C1314 C 0.59344 0.06116 0.89609 0.0
C1315 C 0.59324 0.0798 0.92059 0.0
C1316 C 0.6143 0.08183 0.87149 0.0
C1317 C 0.6353 0.1223 0.87118 0.0
C1318 C 0.63466 0.1413 0.89574 0.0
C1319 C 0.61415 0.11972 0.92033 0.0
C1320 C 0.61517 0.06007 0.84657 0.0
C1321 C 0.65628 0.18433 0.89648 0.0
H1322 H 0.74479 0.18682 0.82668 0.0
H1323 H 0.64558 0.18636 0.76961 0.0
H1324 H 0.70926 0.14538 0.89824 0.0
H1325 H 0.70471 0.10739 0.87758 0.0
H1326 H 0.74519 0.15202 0.8766 0.0
H1327 H 0.59095 0.1659 0.79047 0.0
H1328 H 0.58191 0.11993 0.81401 0.0
H1329 H 0.59511 0.16246 0.83254 0.0
H1330 H 0.57876 0.02998 0.89705 0.0
H1331 H 0.61542 0.13385 0.94001 0.0
H1332 H 0.64394 0.06484 0.8458 0.0
H1333 H 0.60463 0.07111 0.82319 0.0
H1334 H 0.59849 0.02848 0.85073 0.0
H1335 H 0.68613 0.19138 0.89957 0.0
H1336 H 0.65069 0.19511 0.91583 0.0
H1337 H 0.64957 0.20013 0.8739 0.0
C1338 C 0.81042 0.67275 0.82264 0.0
C1339 C 0.8258 0.70239 0.79897 0.0
C1340 C 0.83156 0.65558 0.84468 0.0
C1341 C 0.86869 0.66513 0.84154 0.0
C1342 C 0.88423 0.69446 0.81717 0.0
C1343 C 0.86295 0.7129 0.79672 0.0
C1344 C 0.81333 0.62611 0.87063 0.0
C1345 C 0.9226 0.70434 0.81108 0.0
C1346 C 0.93662 0.64126 0.90884 0.0
C1347 C 0.93305 0.60454 0.9038 0.0
C1348 C 0.91556 0.66053 0.88947 0.0
C1349 C 0.89088 0.64399 0.86299 0.0
C1350 C 0.88744 0.60711 0.85742 0.0
C1351 C 0.90765 0.58754 0.87817 0.0
C1352 C 0.91877 0.69814 0.89816 0.0
C1353 C 0.8622 0.58801 0.82949 0.0
H1354 H 0.7812 0.66205 0.82348 0.0
H1355 H 0.87468 0.73362 0.7773 0.0
H1356 H 0.80395 0.59661 0.86393 0.0
H1357 H 0.83274 0.62852 0.89275 0.0
H1358 H 0.78895 0.62951 0.87503 0.0
H1359 H 0.93112 0.72797 0.79165 0.0
H1360 H 0.94261 0.71318 0.83245 0.0
H1361 H 0.92397 0.67828 0.805 0.0
H1362 H 0.95504 0.65451 0.92899 0.0
H1363 H 0.90382 0.55905 0.87408 0.0
H1364 H 0.89125 0.69564 0.90083 0.0
H1365 H 0.92906 0.72185 0.87924 0.0
H1366 H 0.93752 0.70633 0.92034 0.0
H1367 H 0.83329 0.57652 0.83382 0.0
H1368 H 0.86758 0.56361 0.82488 0.0
H1369 H 0.86526 0.60926 0.80818 0.0
C1370 C 0.18892 0.30227 0.19657 0.0
C1371 C 0.2225 0.3089 0.1874 0.0
C1372 C 0.16533 0.31951 0.17844 0.0
C1373 C 0.17444 0.34286 0.14954 0.0
C1374 C 0.20751 0.34782 0.13959 0.0
C1375 C 0.23158 0.33236 0.15911 0.0
C1376 C 0.13125 0.31394 0.19086 0.0
C1377 C 0.21777 0.36974 0.10826 0.0
C1378 C 0.09777 0.36201 0.08987 0.0
C1379 C 0.1062 0.40132 0.09108 0.0
C1380 C 0.11917 0.34283 0.10862 0.0
C1381 C 0.15006 0.3627 0.13015 0.0
C1382 C 0.15815 0.40211 0.13229 0.0
C1383 C 0.13674 0.42098 0.11255 0.0
C1384 C 0.10979 0.30183 0.10357 0.0
C1385 C 0.1898 0.42464 0.15535 0.0
H1386 H 0.18203 0.28534 0.21884 0.0
H1387 H 0.25782 0.33863 0.15214 0.0
H1388 H 0.1317 0.34255 0.19271 0.0
H1389 H 0.10649 0.29909 0.17437 0.0
H1390 H 0.12868 0.29667 0.21425 0.0
H1391 H 0.24163 0.36683 0.10215 0.0
H1392 H 0.19413 0.35904 0.08957 0.0
H1393 H 0.2248 0.40087 0.10858 0.0
H1394 H 0.07516 0.34631 0.07297 0.0
H1395 H 0.14425 0.45137 0.11373 0.0
H1396 H 0.11324 0.28415 0.126 0.0
H1397 H 0.1287 0.30235 0.08835 0.0
H1398 H 0.0812 0.28769 0.09179 0.0
H1399 H 0.18802 0.40817 0.17905 0.0
H1400 H 0.19042 0.45347 0.15669 0.0
H1401 H 0.21614 0.42893 0.14841 0.0
C1402 C 0.18675 0.65713 0.79793 0.0
C1403 C 0.21012 0.69494 0.80435 0.0
C1404 C 0.15929 0.63333 0.81674 0.0
C1405 C 0.15477 0.64799 0.84229 0.0
C1406 C 0.17694 0.68698 0.8475 0.0
C1407 C 0.20489 0.70941 0.82903 0.0
C1408 C 0.13772 0.59149 0.81116 0.0
C1409 C 0.17322 0.7041 0.87427 0.0
C1410 C 0.07814 0.58898 0.89338 0.0
C1411 C 0.09711 0.57369 0.91869 0.0
C1412 C 0.09609 0.61263 0.86773 0.0
C1413 C 0.13367 0.621 0.86752 0.0
C1414 C 0.15257 0.60509 0.89275 0.0
C1415 C 0.13424 0.58193 0.9177 0.0
C1416 C 0.07521 0.62923 0.84115 0.0
C1417 C 0.19269 0.61324 0.89391 0.0
H1418 H 0.19146 0.64539 0.7794 0.0
H1419 H 0.22315 0.7381 0.8344 0.0
H1420 H 0.14869 0.57319 0.82911 0.0
H1421 H 0.10838 0.58206 0.81344 0.0
H1422 H 0.1397 0.58628 0.78765 0.0
H1423 H 0.19006 0.73575 0.87333 0.0
H1424 H 0.14405 0.69861 0.87392 0.0
H1425 H 0.18219 0.6901 0.89693 0.0
H1426 H 0.04959 0.58282 0.89372 0.0
H1427 H 0.14972 0.57055 0.93683 0.0
H1428 H 0.07735 0.62202 0.81848 0.0
H1429 H 0.08757 0.66124 0.84013 0.0
H1430 H 0.04572 0.6183 0.84374 0.0
H1431 H 0.19706 0.60556 0.87235 0.0
H1432 H 0.20283 0.59696 0.91449 0.0
H1433 H 0.2098 0.64455 0.89508 0.0
C1434 C 0.31828 0.17379 0.80158 0.0
C1435 C 0.33311 0.21385 0.80352 0.0
C1436 C 0.33511 0.14965 0.82033 0.0
C1437 C 0.36712 0.16533 0.84252 0.0
C1438 C 0.38102 0.20551 0.84537 0.0
C1439 C 0.36459 0.22908 0.82552 0.0
C1440 C 0.31926 0.10746 0.81559 0.0
C1441 C 0.41363 0.22397 0.86935 0.0
C1442 C 0.39459 0.09812 0.91065 0.0
C1443 C 0.42613 0.09763 0.90235 0.0
C1444 C 0.37518 0.11943 0.89157 0.0
C1445 C 0.38643 0.14031 0.86249 0.0
C1446 C 0.41768 0.13896 0.85356 0.0
C1447 C 0.4375 0.11862 0.87376 0.0
C1448 C 0.34373 0.1213 0.90348 0.0
C1449 C 0.43059 0.15956 0.82267 0.0
H1450 H 0.29437 0.16154 0.78445 0.0
H1451 H 0.37647 0.2599 0.82732 0.0
H1452 H 0.34065 0.10028 0.80946 0.0
H1453 H 0.31044 0.08924 0.83765 0.0
H1454 H 0.29531 0.09979 0.79677 0.0
H1455 H 0.41858 0.25428 0.87117 0.0
H1456 H 0.40943 0.2071 0.89275 0.0
H1457 H 0.43865 0.224 0.86294 0.0
H1458 H 0.38598 0.0831 0.93304 0.0
H1459 H 0.46202 0.11921 0.86714 0.0
H1460 H 0.31885 0.11326 0.8857 0.0
H1461 H 0.35118 0.15146 0.90779 0.0
H1462 H 0.33688 0.10205 0.92562 0.0
H1463 H 0.40715 0.15202 0.80343 0.0
H1464 H 0.45222 0.15219 0.81724 0.0
H1465 H 0.44185 0.19129 0.82323 0.0
C1466 C 0.79325 0.29701 0.85644 0.0
C1467 C 0.81919 0.29802 0.83923 0.0
C1468 C 0.8044 0.31569 0.88372 0.0
C1469 C 0.84238 0.33628 0.8934 0.0
C1470 C 0.86857 0.33654 0.87614 0.0
C1471 C 0.85655 0.31736 0.84922 0.0
C1472 C 0.7754 0.31449 0.90108 0.0
C1473 C 0.90941 0.35792 0.88563 0.0
C1474 C 0.89572 0.42216 0.93696 0.0
C1475 C 0.91326 0.40521 0.96216 0.0
C1476 C 0.86678 0.3989 0.91635 0.0
C1477 C 0.85599 0.3583 0.9211 0.0
C1478 C 0.86846 0.34118 0.94984 0.0
C1479 C 0.8971 0.36496 0.97019 0.0
C1480 C 0.85168 0.41803 0.88718 0.0
C1481 C 0.85577 0.29788 0.95685 0.0
H1482 H 0.76421 0.28229 0.84817 0.0
H1483 H 0.87634 0.31838 0.83542 0.0
H1484 H 0.78498 0.31579 0.92656 0.0
H1485 H 0.76844 0.33974 0.89171 0.0
H1486 H 0.74982 0.2879 0.89766 0.0
H1487 H 0.92595 0.3547 0.86992 0.0
H1488 H 0.91635 0.3892 0.88515 0.0
H1489 H 0.91762 0.347 0.90992 0.0
H1490 H 0.90707 0.45333 0.93127 0.0
H1491 H 0.90938 0.35166 0.99058 0.0
H1492 H 0.82192 0.40073 0.88069 0.0
H1493 H 0.86601 0.42007 0.86749 0.0
H1494 H 0.85589 0.44771 0.89034 0.0
H1495 H 0.82607 0.28293 0.94837 0.0
H1496 H 0.86088 0.28903 0.98236 0.0
H1497 H 0.8711 0.28812 0.94455 0.0
C1498 C 0.75049 0.91399 0.89881 0.0
C1499 C 0.73699 0.89883 0.86984 0.0
C1500 C 0.72806 0.92112 0.91504 0.0
C1501 C 0.69085 0.91218 0.90243 0.0
C1502 C 0.67652 0.89561 0.8738 0.0
C1503 C 0.6998 0.88932 0.85775 0.0
C1504 C 0.74435 0.93866 0.94559 0.0
C1505 C 0.63686 0.88547 0.85972 0.0
C1506 C 0.62791 0.90115 0.96 0.0
C1507 C 0.62861 0.93835 0.95628 0.0
C1508 C 0.64757 0.892 0.94224 0.0
C1509 C 0.6673 0.92044 0.91946 0.0
C1510 C 0.66684 0.95773 0.9148 0.0
C1511 C 0.64796 0.96648 0.93372 0.0
C1512 C 0.6481 0.85228 0.94854 0.0
C1513 C 0.68661 0.98848 0.89011 0.0
H1514 H 0.77886 0.92056 0.90886 0.0
H1515 H 0.68907 0.878 0.83529 0.0
H1516 H 0.74258 0.96703 0.94347 0.0
H1517 H 0.72847 0.91973 0.96458 0.0
H1518 H 0.77358 0.94311 0.95261 0.0
H1519 H 0.62949 0.87092 0.83818 0.0
H1520 H 0.6184 0.86616 0.87693 0.0
H1521 H 0.63163 0.91216 0.85379 0.0
H1522 H 0.61265 0.87947 0.9774 0.0
H1523 H 0.64771 0.99502 0.9305 0.0
H1524 H 0.67661 0.85488 0.95705 0.0
H1525 H 0.63887 0.83831 0.9266 0.0
H1526 H 0.6303 0.83313 0.96632 0.0
H1527 H 0.71669 0.99727 0.89644 0.0
H1528 H 0.68063 0.0146 0.8874 0.0
H1529 H 0.67861 0.97683 0.86715 0.0
C1530 C 0.86222 0.68936 0.09094 0.0
C1531 C 0.87709 0.69593 0.12206 0.0
C1532 C 0.86799 0.66299 0.07685 0.0
C1533 C 0.88986 0.64361 0.09421 0.0
C1534 C 0.90282 0.64826 0.12633 0.0
C1535 C 0.89601 0.6743 0.13999 0.0
C1536 C 0.85342 0.6585 0.04264 0.0
C1537 C 0.92658 0.62846 0.14551 0.0
C1538 C 0.90021 0.57041 0.05356 0.0
C1539 C 0.93239 0.59378 0.04032 0.0
C1540 C 0.88639 0.58573 0.07218 0.0
C1541 C 0.90505 0.62526 0.07716 0.0
C1542 C 0.9377 0.6487 0.06406 0.0
C1543 C 0.95093 0.63267 0.04593 0.0
C1544 C 0.85181 0.55989 0.08625 0.0
C1545 C 0.95839 0.6911 0.06859 0.0
H1546 H 0.84725 0.70595 0.07731 0.0
H1547 H 0.90743 0.67956 0.16412 0.0
H1548 H 0.87642 0.67384 0.02855 0.0
H1549 H 0.84118 0.62758 0.03864 0.0
H1550 H 0.83239 0.6706 0.03393 0.0
H1551 H 0.92883 0.62949 0.17103 0.0
H1552 H 0.91556 0.59783 0.14095 0.0
H1553 H 0.95462 0.64311 0.13873 0.0
H1554 H 0.88612 0.54019 0.04965 0.0
H1555 H 0.97579 0.65098 0.03573 0.0
H1556 H 0.82984 0.57033 0.07637 0.0
H1557 H 0.85673 0.56102 0.11195 0.0
H1558 H 0.84183 0.52931 0.08172 0.0
H1559 H 0.94075 0.70692 0.05804 0.0
H1560 H 0.98409 0.70482 0.05773 0.0
H1561 H 0.96558 0.69468 0.09393 0.0
C1562 C 0.33344 0.8128 0.17594 0.0
C1563 C 0.34448 0.82281 0.20665 0.0
C1564 C 0.35486 0.83422 0.15188 0.0
C1565 C 0.38754 0.86754 0.15829 0.0
C1566 C 0.39792 0.87868 0.18905 0.0
C1567 C 0.37693 0.85554 0.21301 0.0
C1568 C 0.3424 0.82134 0.11946 0.0
C1569 C 0.43084 0.91539 0.19654 0.0
C1570 C 0.45788 0.90945 0.0998 0.0
C1571 C 0.44636 0.93665 0.0804 0.0
C1572 C 0.43944 0.88707 0.12559 0.0
C1573 C 0.40903 0.89224 0.13222 0.0
C1574 C 0.39817 0.92045 0.11307 0.0
C1575 C 0.41706 0.94236 0.08788 0.0
C1576 C 0.45145 0.85675 0.14497 0.0
C1577 C 0.36641 0.92776 0.11879 0.0
H1578 H 0.30878 0.78727 0.17103 0.0
H1579 H 0.38569 0.86325 0.23677 0.0
H1580 H 0.33446 0.84305 0.10304 0.0
H1581 H 0.36524 0.81931 0.11073 0.0
H1582 H 0.31855 0.79292 0.11887 0.0
H1583 H 0.43555 0.91987 0.22163 0.0
H1584 H 0.45585 0.91481 0.19063 0.0
H1585 H 0.42677 0.94054 0.182 0.0
H1586 H 0.4802 0.90458 0.09413 0.0
H1587 H 0.40817 0.96378 0.07346 0.0
H1588 H 0.42868 0.82773 0.14294 0.0
H1589 H 0.4578 0.86151 0.17006 0.0
H1590 H 0.47602 0.85685 0.1375 0.0
H1591 H 0.34379 0.90078 0.1268 0.0
H1592 H 0.35491 0.94129 0.09721 0.0
H1593 H 0.37623 0.94754 0.13722 0.0
C1594 C 0.73658 0.23196 0.13829 0.0
C1595 C 0.71753 0.22862 0.16277 0.0
C1596 C 0.72043 0.20816 0.11422 0.0
C1597 C 0.684 0.18038 0.11441 0.0
C1598 C 0.66421 0.17703 0.13877 0.0
C1599 C 0.68127 0.2013 0.16274 0.0
C1600 C 0.74264 0.21233 0.08895 0.0
C1601 C 0.62524 0.14736 0.13974 0.0
C1602 C 0.62464 0.15011 0.03831 0.0
C1603 C 0.61703 0.11043 0.04182 0.0
C1604 C 0.64734 0.17349 0.06143 0.0
C1605 C 0.66522 0.15762 0.08751 0.0
C1606 C 0.66241 0.11938 0.0887 0.0
C1607 C 0.63762 0.09576 0.06602 0.0
C1608 C 0.64907 0.2139 0.05948 0.0
C1609 C 0.68365 0.10272 0.11496 0.0
H1610 H 0.76495 0.25174 0.13869 0.0
H1611 H 0.66704 0.19728 0.18234 0.0
H1612 H 0.74148 0.18375 0.0861 0.0
H1613 H 0.73089 0.22341 0.06617 0.0
H1614 H 0.77189 0.23245 0.09415 0.0
H1615 H 0.61393 0.14792 0.16057 0.0
H1616 H 0.60737 0.15267 0.11828 0.0
H1617 H 0.62408 0.11794 0.14012 0.0
H1618 H 0.60996 0.16225 0.01901 0.0
H1619 H 0.63268 0.06543 0.06843 0.0
H1620 H 0.67796 0.23536 0.06234 0.0
H1621 H 0.63605 0.21547 0.07882 0.0
H1622 H 0.63473 0.22242 0.0369 0.0
H1623 H 0.71298 0.1231 0.11834 0.0
H1624 H 0.6819 0.07448 0.11039 0.0
H1625 H 0.6727 0.09845 0.13719 0.0
C1626 C 0.66222 0.69511 0.80284 0.0
C1627 C 0.68543 0.68126 0.79441 0.0
C1628 C 0.64093 0.67485 0.82684 0.0
C1629 C 0.64396 0.64072 0.84304 0.0
C1630 C 0.66584 0.62552 0.8334 0.0
C1631 C 0.68611 0.64588 0.80882 0.0
C1632 C 0.61712 0.69123 0.83615 0.0
C1633 C 0.66993 0.58932 0.85042 0.0
C1634 C 0.63446 0.61447 0.92889 0.0
C1635 C 0.59977 0.58405 0.92776 0.0
C1636 C 0.64836 0.63474 0.90118 0.0
C1637 C 0.62739 0.62303 0.87203 0.0
C1638 C 0.59187 0.59288 0.87086 0.0
C1639 C 0.57818 0.57403 0.89893 0.0
C1640 C 0.68602 0.66758 0.90309 0.0
C1641 C 0.56924 0.57918 0.84017 0.0
H1642 H 0.66166 0.72243 0.79137 0.0
H1643 H 0.70441 0.63546 0.80237 0.0
H1644 H 0.58968 0.66815 0.83972 0.0
H1645 H 0.63002 0.70359 0.8587 0.0
H1646 H 0.61345 0.71437 0.81828 0.0
H1647 H 0.68526 0.5795 0.83814 0.0
H1648 H 0.68496 0.59497 0.87434 0.0
H1649 H 0.64259 0.56552 0.85301 0.0
H1650 H 0.65082 0.62194 0.95142 0.0
H1651 H 0.55144 0.54997 0.89839 0.0
H1652 H 0.68481 0.69387 0.88829 0.0
H1653 H 0.70518 0.65971 0.89398 0.0
H1654 H 0.69747 0.67475 0.92748 0.0
H1655 H 0.56776 0.604 0.82329 0.0
H1656 H 0.54087 0.55786 0.84321 0.0
H1657 H 0.58259 0.56536 0.82961 0.0
C1658 C 0.33217 0.61497 0.8981 0.0
C1659 C 0.32348 0.60694 0.86705 0.0
C1660 C 0.36783 0.62275 0.91376 0.0
C1661 C 0.39485 0.62385 0.8972 0.0
C1662 C 0.38644 0.61801 0.86528 0.0
C1663 C 0.35046 0.60792 0.85102 0.0
C1664 C 0.37612 0.62755 0.94822 0.0
C1665 C 0.41476 0.61956 0.84676 0.0
C1666 C 0.49199 0.64599 0.93681 0.0
C1667 C 0.49027 0.60828 0.94402 0.0
C1668 C 0.46124 0.65224 0.92055 0.0
C1669 C 0.42795 0.61977 0.91436 0.0
C1670 C 0.42667 0.58197 0.92126 0.0
C1671 C 0.45896 0.57732 0.93296 0.0
C1672 C 0.4641 0.69306 0.91113 0.0
C1673 C 0.39098 0.54646 0.91735 0.0
H1674 H 0.31132 0.61528 0.90988 0.0
H1675 H 0.34356 0.6024 0.82664 0.0
H1676 H 0.38096 0.60237 0.96182 0.0
H1677 H 0.40153 0.65376 0.95297 0.0
H1678 H 0.35327 0.62976 0.95682 0.0
H1679 H 0.40632 0.62399 0.8211 0.0
H1680 H 0.44187 0.64313 0.85317 0.0
H1681 H 0.41817 0.59183 0.85209 0.0
H1682 H 0.51666 0.67023 0.94467 0.0
H1683 H 0.45885 0.54882 0.9361 0.0
H1684 H 0.45083 0.70036 0.92724 0.0
H1685 H 0.44975 0.69605 0.88702 0.0
H1686 H 0.49319 0.71431 0.91214 0.0
H1687 H 0.36965 0.54901 0.92794 0.0
H1688 H 0.39398 0.51949 0.9287 0.0
H1689 H 0.38067 0.54379 0.89214 0.0
C1690 C 0.35569 0.38415 0.78952 0.0
C1691 C 0.31908 0.35796 0.79031 0.0
C1692 C 0.37406 0.40947 0.81265 0.0
C1693 C 0.35519 0.40815 0.837 0.0
C1694 C 0.31681 0.38653 0.83466 0.0
C1695 C 0.29923 0.36127 0.81153 0.0
C1696 C 0.41472 0.43362 0.81332 0.0
C1697 C 0.29519 0.38635 0.85892 0.0
C1698 C 0.40497 0.3985 0.91859 0.0
C1699 C 0.4223 0.43686 0.92597 0.0
C1700 C 0.38339 0.38924 0.88972 0.0
C1701 C 0.37641 0.41854 0.86828 0.0
C1702 C 0.39106 0.45673 0.87656 0.0
C1703 C 0.41457 0.4656 0.90509 0.0
C1704 C 0.36999 0.34837 0.88151 0.0
C1705 C 0.38256 0.48842 0.8554 0.0
H1706 H 0.37106 0.38241 0.7729 0.0
H1707 H 0.27043 0.34223 0.81146 0.0
H1708 H 0.42248 0.46228 0.82107 0.0
H1709 H 0.43008 0.41864 0.83026 0.0
H1710 H 0.42338 0.43808 0.78994 0.0
H1711 H 0.26544 0.3766 0.84983 0.0
H1712 H 0.2984 0.36618 0.87982 0.0
H1713 H 0.30551 0.41559 0.86653 0.0
H1714 H 0.41046 0.3758 0.93454 0.0
H1715 H 0.42846 0.49527 0.91009 0.0
H1716 H 0.37939 0.34884 0.85932 0.0
H1717 H 0.33954 0.33467 0.87792 0.0
H1718 H 0.38005 0.3298 0.90001 0.0
H1719 H 0.40486 0.51733 0.85923 0.0
H1720 H 0.35685 0.48788 0.86087 0.0
H1721 H 0.37816 0.48451 0.83027 0.0
C1722 C 0.67432 0.35559 0.86118 0.0
C1723 C 0.68191 0.38384 0.83509 0.0
C1724 C 0.66556 0.36255 0.88809 0.0
C1725 C 0.66282 0.39788 0.88838 0.0
C1726 C 0.67235 0.42725 0.86297 0.0
C1727 C 0.68259 0.42015 0.83695 0.0
C1728 C 0.65676 0.33106 0.91529 0.0
C1729 C 0.66886 0.46501 0.86204 0.0
C1730 C 0.58808 0.39406 0.9292 0.0
C1731 C 0.60837 0.41497 0.95466 0.0
C1732 C 0.6056 0.38771 0.90787 0.0
C1733 C 0.64436 0.40175 0.91255 0.0
C1734 C 0.66498 0.42105 0.9391 0.0
C1735 C 0.64671 0.42796 0.9597 0.0
C1736 C 0.58261 0.36758 0.8795 0.0
C1737 C 0.70625 0.43509 0.94533 0.0
H1738 H 0.6734 0.32726 0.86022 0.0
H1739 H 0.68974 0.44268 0.81749 0.0
H1740 H 0.66822 0.34346 0.93796 0.0
H1741 H 0.62654 0.3159 0.91465 0.0
H1742 H 0.66772 0.30934 0.91443 0.0
H1743 H 0.68024 0.486 0.84181 0.0
H1744 H 0.63941 0.45937 0.86027 0.0
H1745 H 0.68314 0.47848 0.88391 0.0
H1746 H 0.55844 0.3842 0.92495 0.0
H1747 H 0.66243 0.444 0.97942 0.0
H1748 H 0.58733 0.34142 0.87883 0.0
H1749 H 0.59081 0.38709 0.85776 0.0
H1750 H 0.55274 0.35871 0.87932 0.0
H1751 H 0.71445 0.41137 0.94413 0.0
H1752 H 0.71773 0.44592 0.96863 0.0
H1753 H 0.71878 0.45884 0.9271 0.0
C1754 C 0.67221 0.33973 0.15491 0.0
C1755 C 0.69877 0.36816 0.13685 0.0
C1756 C 0.63489 0.32985 0.14534 0.0
C1757 C 0.62407 0.3493 0.1175 0.0
C1758 C 0.64979 0.37253 0.0966 0.0
C1759 C 0.68718 0.38173 0.10664 0.0
C1760 C 0.60815 0.30395 0.16776 0.0
C1761 C 0.63868 0.39242 0.06575 0.0
C1762 C 0.53405 0.351 0.08166 0.0
C1763 C 0.543 0.38937 0.08596 0.0
C1764 C 0.55861 0.33405 0.09521 0.0
C1765 C 0.59032 0.35537 0.11484 0.0
C1766 C 0.59307 0.38897 0.12596 0.0
C1767 C 0.56867 0.40566 0.11129 0.0
C1768 C 0.5539 0.29723 0.08401 0.0
C1769 C 0.62544 0.41122 0.14872 0.0
H1770 H 0.67997 0.32832 0.17841 0.0
H1771 H 0.70732 0.40233 0.09211 0.0
H1772 H 0.60853 0.3212 0.18559 0.0
H1773 H 0.57961 0.29093 0.1557 0.0
H1774 H 0.61637 0.2804 0.18034 0.0
H1775 H 0.65995 0.40273 0.04993 0.0
H1776 H 0.61232 0.37273 0.05364 0.0
H1777 H 0.63485 0.41787 0.07014 0.0
H1778 H 0.51267 0.3375 0.06302 0.0
H1779 H 0.57412 0.43462 0.11554 0.0
H1780 H 0.56706 0.28076 0.10176 0.0
H1781 H 0.56693 0.30457 0.06243 0.0
H1782 H 0.52433 0.27852 0.07809 0.0
H1783 H 0.6324 0.39138 0.16808 0.0
H1784 H 0.61989 0.4321 0.15899 0.0
H1785 H 0.64979 0.42765 0.13629 0.0
C1786 C 0.72865 0.63015 0.20215 0.0
C1787 C 0.70992 0.65058 0.20857 0.0
C1788 C 0.71195 0.60255 0.18071 0.0
C1789 C 0.67659 0.59701 0.16437 0.0
C1790 C 0.65662 0.61556 0.17277 0.0
C1791 C 0.67352 0.64192 0.19511 0.0
C1792 C 0.73339 0.58172 0.17405 0.0
C1793 C 0.61876 0.61058 0.15601 0.0
C1794 C 0.65019 0.59187 0.07808 0.0
C1795 C 0.619 0.55705 0.07769 0.0
C1796 C 0.67267 0.60318 0.10631 0.0
C1797 C 0.66324 0.57899 0.13459 0.0
C1798 C 0.63505 0.54127 0.13346 0.0
C1799 C 0.61308 0.53067 0.10475 0.0
C1800 C 0.70315 0.64329 0.1063 0.0
C1801 C 0.62563 0.5139 0.16291 0.0
H1802 H 0.75683 0.63682 0.21297 0.0
H1803 H 0.65931 0.65802 0.20019 0.0
H1804 H 0.71506 0.55365 0.16499 0.0
H1805 H 0.7515 0.60003 0.1563 0.0
H1806 H 0.75124 0.57642 0.19557 0.0
H1807 H 0.60612 0.62495 0.16681 0.0
H1808 H 0.62056 0.62312 0.13115 0.0
H1809 H 0.60026 0.57946 0.15616 0.0
H1810 H 0.65442 0.61226 0.05701 0.0
H1811 H 0.58863 0.50388 0.10425 0.0
H1812 H 0.72876 0.64225 0.12027 0.0
H1813 H 0.69537 0.66198 0.11727 0.0
H1814 H 0.70895 0.65698 0.08224 0.0
H1815 H 0.6502 0.50884 0.17514 0.0
H1816 H 0.60277 0.48569 0.15794 0.0
H1817 H 0.61754 0.52677 0.17919 0.0
C1818 C 0.34612 0.61957 0.15047 0.0
C1819 C 0.37249 0.62624 0.1774 0.0
C1820 C 0.35347 0.61224 0.12294 0.0
C1821 C 0.38788 0.61153 0.12252 0.0
C1822 C 0.41487 0.6193 0.14939 0.0
C1823 C 0.40682 0.62659 0.17647 0.0
C1824 C 0.32435 0.60475 0.09452 0.0
C1825 C 0.45212 0.61929 0.14978 0.0
C1826 C 0.40161 0.55364 0.06916 0.0
C1827 C 0.42372 0.58332 0.04912 0.0
C1828 C 0.38776 0.56225 0.09222 0.0
C1829 C 0.39566 0.60136 0.09455 0.0
C1830 C 0.41525 0.63102 0.07241 0.0
C1831 C 0.42969 0.62166 0.05025 0.0
C1832 C 0.3676 0.52992 0.11579 0.0
C1833 C 0.42335 0.6729 0.07353 0.0
H1834 H 0.31953 0.6194 0.15112 0.0
H1835 H 0.4275 0.63272 0.19701 0.0
H1836 H 0.33602 0.62363 0.07356 0.0
H1837 H 0.31457 0.57438 0.08966 0.0
H1838 H 0.30037 0.60978 0.09771 0.0
H1839 H 0.47004 0.62621 0.17253 0.0
H1840 H 0.4488 0.59049 0.14519 0.0
H1841 H 0.46626 0.64081 0.13095 0.0
H1842 H 0.39779 0.52407 0.06854 0.0
H1843 H 0.44717 0.64448 0.03479 0.0
H1844 H 0.34177 0.53161 0.11836 0.0
H1845 H 0.3849 0.53292 0.13907 0.0
H1846 H 0.36092 0.50092 0.10913 0.0
H1847 H 0.39851 0.67594 0.07713 0.0
H1848 H 0.43319 0.69121 0.05171 0.0
H1849 H 0.44493 0.68404 0.09356 0.0
C1850 C 0.37879 0.29897 0.18345 0.0
C1851 C 0.36469 0.3166 0.1995 0.0
C1852 C 0.40186 0.32082 0.16086 0.0
C1853 C 0.41004 0.36082 0.15386 0.0
C1854 C 0.39799 0.37916 0.17162 0.0
C1855 C 0.37546 0.35673 0.19434 0.0
C1856 C 0.4148 0.30054 0.14265 0.0
C1857 C 0.40561 0.42168 0.1645 0.0
C1858 C 0.47568 0.42679 0.09706 0.0
C1859 C 0.45087 0.42786 0.06995 0.0
C1860 C 0.46304 0.4041 0.12463 0.0
C1861 C 0.42492 0.38183 0.12459 0.0
C1862 C 0.40006 0.38149 0.09673 0.0
C1863 C 0.41339 0.40484 0.06977 0.0
C1864 C 0.49016 0.40536 0.15402 0.0
C1865 C 0.35919 0.35766 0.09568 0.0
H1866 H 0.37038 0.26787 0.1875 0.0
H1867 H 0.36375 0.37023 0.20601 0.0
H1868 H 0.39799 0.29668 0.1192 0.0
H1869 H 0.44385 0.31812 0.13901 0.0
H1870 H 0.41223 0.27159 0.1547 0.0
H1871 H 0.39908 0.43249 0.1833 0.0
H1872 H 0.43481 0.43917 0.1614 0.0
H1873 H 0.38858 0.4264 0.14223 0.0
H1874 H 0.5047 0.44502 0.09712 0.0
H1875 H 0.3944 0.40557 0.04859 0.0
H1876 H 0.48538 0.37566 0.16545 0.0
H1877 H 0.48627 0.42097 0.17093 0.0
H1878 H 0.51906 0.42031 0.1492 0.0
H1879 H 0.35369 0.32691 0.10404 0.0
H1880 H 0.34399 0.3592 0.07171 0.0
H1881 H 0.34805 0.36804 0.1115 0.0
C1882 C 0.80022 0.60845 0.58986 0.0
C1883 C 0.81015 0.61261 0.62185 0.0
C1884 C 0.82406 0.6052 0.57267 0.0
C1885 C 0.85824 0.60527 0.58812 0.0
C1886 C 0.86927 0.61172 0.6201 0.0
C1887 C 0.84503 0.61559 0.63662 0.0
C1888 C 0.8117 0.59927 0.53843 0.0
C1889 C 0.90533 0.61161 0.63746 0.0
C1890 C 0.88906 0.54511 0.55083 0.0
C1891 C 0.91559 0.57373 0.5335 0.0
C1892 C 0.87167 0.55515 0.57014 0.0
C1893 C 0.88031 0.59472 0.57137 0.0
C1894 C 0.90753 0.62371 0.55429 0.0
C1895 C 0.92517 0.61283 0.53583 0.0
C1896 C 0.84357 0.52339 0.58881 0.0
C1897 C 0.91703 0.66614 0.55455 0.0
H1898 H 0.77311 0.60611 0.57861 0.0
H1899 H 0.85236 0.61844 0.6615 0.0
H1900 H 0.83374 0.61884 0.52427 0.0
H1901 H 0.80591 0.56914 0.53531 0.0
H1902 H 0.78648 0.60451 0.52911 0.0
H1903 H 0.9121 0.6225 0.66067 0.0
H1904 H 0.9037 0.58161 0.64118 0.0
H1905 H 0.9281 0.62952 0.6236 0.0
H1906 H 0.88228 0.51486 0.54964 0.0
H1907 H 0.9459 0.635 0.52258 0.0
H1908 H 0.81588 0.52297 0.57966 0.0
H1909 H 0.8497 0.5289 0.61373 0.0
H1910 H 0.84271 0.49439 0.58774 0.0
H1911 H 0.89308 0.67273 0.54299 0.0
H1912 H 0.94097 0.68504 0.54215 0.0
H1913 H 0.92323 0.67343 0.57895 0.0
C1914 C 0.34101 0.8022 0.67092 0.0
C1915 C 0.33561 0.82107 0.69259 0.0
C1916 C 0.36764 0.82225 0.65064 0.0
C1917 C 0.38616 0.86305 0.64932 0.0
C1918 C 0.3796 0.88254 0.67034 0.0
C1919 C 0.3553 0.86115 0.69233 0.0
C1920 C 0.37486 0.80002 0.62968 0.0
C1921 C 0.39528 0.92617 0.66759 0.0
C1922 C 0.46377 0.92436 0.59978 0.0
C1923 C 0.44371 0.93191 0.57123 0.0
C1924 C 0.44553 0.90101 0.62534 0.0
C1925 C 0.40656 0.88561 0.62235 0.0
C1926 C 0.38637 0.89248 0.59331 0.0
C1927 C 0.40506 0.91475 0.56823 0.0
C1928 C 0.46786 0.89308 0.65559 0.0
C1929 C 0.34485 0.87717 0.58876 0.0
H1930 H 0.32349 0.77204 0.66896 0.0
H1931 H 0.34949 0.87619 0.70776 0.0
H1932 H 0.37043 0.81114 0.60469 0.0
H1933 H 0.40406 0.80402 0.63524 0.0
H1934 H 0.35707 0.76864 0.63257 0.0
H1935 H 0.38895 0.93688 0.68656 0.0
H1936 H 0.42547 0.93847 0.66812 0.0
H1937 H 0.38361 0.93728 0.64472 0.0
H1938 H 0.49352 0.93727 0.60235 0.0
H1939 H 0.38897 0.91946 0.54616 0.0
H1940 H 0.45731 0.86149 0.66316 0.0
H1941 H 0.46511 0.90701 0.67434 0.0
H1942 H 0.49746 0.90407 0.65338 0.0
H1943 H 0.33263 0.84511 0.59126 0.0
H1944 H 0.33356 0.88746 0.56533 0.0
H1945 H 0.3357 0.88623 0.60695 0.0
C1946 C 0.22616 0.33367 0.68485 0.0
C1947 C 0.20681 0.29333 0.69031 0.0
C1948 C 0.20994 0.35722 0.66428 0.0
C1949 C 0.17262 0.34067 0.65003 0.0
C1950 C 0.15298 0.30007 0.65609 0.0
C1951 C 0.17031 0.27721 0.67545 0.0
C1952 C 0.23288 0.39986 0.65769 0.0
C1953 C 0.11313 0.28055 0.64245 0.0
C1954 C 0.11519 0.40225 0.61991 0.0
C1955 C 0.11191 0.4038 0.58722 0.0
C1956 C 0.13532 0.3826 0.64056 0.0
C1957 C 0.15382 0.36498 0.62851 0.0
C1958 C 0.15158 0.36792 0.59545 0.0
C1959 C 0.13048 0.38662 0.57548 0.0
C1960 C 0.13576 0.37955 0.6754 0.0
C1961 C 0.17161 0.35129 0.58104 0.0
H1962 H 0.25393 0.3469 0.69671 0.0
H1963 H 0.15469 0.24624 0.67954 0.0
H1964 H 0.23241 0.40817 0.63202 0.0
H1965 H 0.22117 0.41677 0.66644 0.0
H1966 H 0.26189 0.40802 0.66883 0.0
H1967 H 0.10101 0.24915 0.65069 0.0
H1968 H 0.09687 0.29435 0.64892 0.0
H1969 H 0.11043 0.28408 0.6165 0.0
H1970 H 0.1011 0.41533 0.62935 0.0
H1971 H 0.12863 0.38802 0.55029 0.0
H1972 H 0.16448 0.39176 0.68726 0.0
H1973 H 0.12324 0.34864 0.68494 0.0
H1974 H 0.12054 0.3949 0.6813 0.0
H1975 H 0.20144 0.36489 0.58954 0.0
H1976 H 0.1675 0.3561 0.55502 0.0
H1977 H 0.16225 0.31975 0.58839 0.0
C1978 C 0.75176 0.20135 0.65361 0.0
C1979 C 0.73157 0.21659 0.6652 0.0
C1980 C 0.73747 0.18206 0.62657 0.0
C1981 C 0.70175 0.17707 0.61144 0.0
C1982 C 0.68223 0.19438 0.62217 0.0
C1983 C 0.69752 0.21409 0.64886 0.0
C1984 C 0.75988 0.16554 0.61522 0.0
C1985 C 0.64403 0.18984 0.60676 0.0
C1986 C 0.65058 0.14099 0.53407 0.0
C1987 C 0.6268 0.10344 0.54432 0.0
C1988 C 0.67901 0.16411 0.55511 0.0
C1989 C 0.68229 0.14983 0.58726 0.0
C1990 C 0.66076 0.11057 0.59692 0.0
C1991 C 0.63365 0.0876 0.57511 0.0
C1992 C 0.70309 0.20491 0.54346 0.0
C1993 C 0.66307 0.09413 0.63097 0.0
H1994 H 0.77847 0.20385 0.66606 0.0
H1995 H 0.68172 0.22526 0.65804 0.0
H1996 H 0.74966 0.13399 0.62269 0.0
H1997 H 0.75723 0.1697 0.58925 0.0
H1998 H 0.78942 0.17899 0.62495 0.0
H1999 H 0.63321 0.20629 0.61725 0.0
H2000 H 0.64402 0.19997 0.58138 0.0
H2001 H 0.625 0.15881 0.60911 0.0
H2002 H 0.64555 0.15308 0.51007 0.0
H2003 H 0.61519 0.05858 0.58306 0.0
H2004 H 0.73152 0.21363 0.55606 0.0
H2005 H 0.69199 0.2251 0.54773 0.0
H2006 H 0.70398 0.20805 0.5179 0.0
H2007 H 0.69205 0.10121 0.64154 0.0
H2008 H 0.6476 0.06222 0.6341 0.0
H2009 H 0.65147 0.10729 0.64409 0.0
C2010 C 0.79843 0.27256 0.36499 0.0
C2011 C 0.82106 0.26801 0.34703 0.0
C2012 C 0.81269 0.28861 0.39332 0.0
C2013 C 0.85087 0.30275 0.40279 0.0
C2014 C 0.8731 0.29385 0.3871 0.0
C2015 C 0.85768 0.27579 0.35948 0.0
C2016 C 0.78776 0.2948 0.41101 0.0
C2017 C 0.91386 0.30705 0.39761 0.0
C2018 C 0.90421 0.40291 0.42738 0.0
C2019 C 0.91802 0.39416 0.45825 0.0
C2020 C 0.87968 0.37317 0.40956 0.0
C2021 C 0.86839 0.33411 0.42341 0.0
C2022 C 0.87785 0.32592 0.45594 0.0
C2023 C 0.90257 0.35629 0.47309 0.0
C2024 C 0.87039 0.38385 0.37497 0.0
C2025 C 0.86597 0.2851 0.47209 0.0
H2026 H 0.77001 0.26652 0.35583 0.0
H2027 H 0.87512 0.2714 0.34628 0.0
H2028 H 0.79363 0.2867 0.43649 0.0
H2029 H 0.7929 0.32591 0.4077 0.0
H2030 H 0.75829 0.27761 0.40303 0.0
H2031 H 0.92613 0.29276 0.38629 0.0
H2032 H 0.92755 0.33881 0.39145 0.0
H2033 H 0.91952 0.30095 0.42343 0.0
H2034 H 0.91606 0.4322 0.41595 0.0
H2035 H 0.91295 0.34974 0.49731 0.0
H2036 H 0.84468 0.36179 0.36435 0.0
H2037 H 0.893 0.38689 0.36274 0.0
H2038 H 0.86786 0.41206 0.37068 0.0
H2039 H 0.8396 0.26506 0.46032 0.0
H2040 H 0.86328 0.28427 0.49696 0.0
H2041 H 0.88728 0.27435 0.47193 0.0
C2042 C 0.61538 0.79974 0.38084 0.0
C2043 C 0.64095 0.81489 0.35967 0.0
C2044 C 0.61447 0.82293 0.40142 0.0
C2045 C 0.63968 0.86219 0.40061 0.0
C2046 C 0.66655 0.87727 0.38019 0.0
C2047 C 0.66686 0.85337 0.35987 0.0
C2048 C 0.58544 0.80584 0.42302 0.0
C2049 C 0.69359 0.9191 0.37856 0.0
C2050 C 0.59852 0.92272 0.4234 0.0
C2051 C 0.61419 0.92606 0.45475 0.0
C2052 C 0.60881 0.90439 0.40476 0.0
C2053 C 0.63459 0.88823 0.41827 0.0
C2054 C 0.652 0.89351 0.44952 0.0
C2055 C 0.64173 0.91287 0.46745 0.0
C2056 C 0.59027 0.90004 0.37128 0.0
C2057 C 0.67927 0.87628 0.46473 0.0
H2058 H 0.59586 0.76979 0.3811 0.0
H2059 H 0.68661 0.8652 0.34339 0.0
H2060 H 0.59797 0.81252 0.44732 0.0
H2061 H 0.56505 0.8189 0.41539 0.0
H2062 H 0.57065 0.77397 0.42317 0.0
H2063 H 0.71576 0.92487 0.36467 0.0
H2064 H 0.67892 0.93787 0.3675 0.0
H2065 H 0.70626 0.92757 0.40241 0.0
H2066 H 0.57719 0.93321 0.41384 0.0
H2067 H 0.65338 0.9154 0.4919 0.0
H2068 H 0.57147 0.86932 0.36911 0.0
H2069 H 0.61096 0.90837 0.35525 0.0
H2070 H 0.57407 0.91796 0.36342 0.0
H2071 H 0.66464 0.84436 0.46882 0.0
H2072 H 0.69373 0.8873 0.48757 0.0
H2073 H 0.69994 0.88265 0.44913 0.0
C2074 C 0.15756 0.65037 0.28197 0.0
C2075 C 0.19309 0.67869 0.28889 0.0
C2076 C 0.1368 0.62701 0.30593 0.0
C2077 C 0.15147 0.63271 0.3377 0.0
C2078 C 0.18771 0.66084 0.34481 0.0
C2079 C 0.2081 0.68329 0.32037 0.0
C2080 C 0.09897 0.59648 0.29721 0.0
C2081 C 0.20468 0.66795 0.37824 0.0
C2082 C 0.08642 0.59948 0.39968 0.0
C2083 C 0.09085 0.56607 0.41486 0.0
C2084 C 0.10556 0.62123 0.37422 0.0
C2085 C 0.12918 0.60891 0.36346 0.0
C2086 C 0.13218 0.57409 0.37791 0.0
C2087 C 0.11332 0.55342 0.40344 0.0
C2088 C 0.10174 0.65829 0.35967 0.0
C2089 C 0.15649 0.55935 0.3673 0.0
H2090 H 0.14578 0.64684 0.25766 0.0
H2091 H 0.23521 0.70553 0.32596 0.0
H2092 H 0.09721 0.56771 0.30903 0.0
H2093 H 0.07812 0.60264 0.30541 0.0
H2094 H 0.09189 0.59492 0.27153 0.0
H2095 H 0.23271 0.69156 0.37981 0.0
H2096 H 0.1871 0.67563 0.38968 0.0
H2097 H 0.20642 0.6412 0.39166 0.0
H2098 H 0.06959 0.60966 0.40872 0.0
H2099 H 0.11693 0.52756 0.41516 0.0
H2100 H 0.09307 0.65768 0.33403 0.0
H2101 H 0.12876 0.68308 0.36318 0.0
H2102 H 0.08149 0.66329 0.3699 0.0
H2103 H 0.15127 0.5595 0.34145 0.0
H2104 H 0.15233 0.52956 0.37826 0.0
H2105 H 0.18568 0.57876 0.37368 0.0
C2106 C 0.36882 0.2194 0.29648 0.0
C2107 C 0.33154 0.20768 0.29885 0.0
C2108 C 0.39106 0.20263 0.31745 0.0
C2109 C 0.37623 0.17367 0.34222 0.0
C2110 C 0.33892 0.16291 0.34545 0.0
C2111 C 0.31692 0.17861 0.32308 0.0
C2112 C 0.42984 0.214 0.31166 0.0
C2113 C 0.32158 0.13375 0.37193 0.0
C2114 C 0.41777 0.09876 0.37898 0.0
C2115 C 0.44206 0.11581 0.40508 0.0
C2116 C 0.39711 0.11754 0.35806 0.0
C2117 C 0.39919 0.15374 0.36378 0.0
C2118 C 0.42315 0.17064 0.39042 0.0
C2119 C 0.44449 0.15201 0.41018 0.0
C2120 C 0.37283 0.09841 0.32979 0.0
C2121 C 0.42502 0.2077 0.39899 0.0
H2122 H 0.37999 0.23988 0.27674 0.0
H2123 H 0.28771 0.16725 0.3241 0.0
H2124 H 0.44949 0.22377 0.33304 0.0
H2125 H 0.43251 0.18841 0.30607 0.0
H2126 H 0.43778 0.23744 0.29202 0.0
H2127 H 0.29535 0.13439 0.37493 0.0
H2128 H 0.3157 0.10425 0.36706 0.0
H2129 H 0.34052 0.13925 0.39432 0.0
H2130 H 0.41488 0.07062 0.37485 0.0
H2131 H 0.46202 0.1652 0.43068 0.0
H2132 H 0.378 0.11936 0.30832 0.0
H2133 H 0.34358 0.08872 0.33246 0.0
H2134 H 0.37731 0.0729 0.32645 0.0
H2135 H 0.43215 0.23093 0.37918 0.0
H2136 H 0.44543 0.21777 0.41999 0.0
H2137 H 0.39763 0.20304 0.40386 0.0
C2138 C 0.68757 0.7921 0.67373 0.0
C2139 C 0.72125 0.81469 0.69037 0.0
C2140 C 0.66475 0.80897 0.65341 0.0
C2141 C 0.6729 0.84908 0.65264 0.0
C2142 C 0.70462 0.87098 0.67246 0.0
C2143 C 0.72877 0.85425 0.68949 0.0
C2144 C 0.63372 0.78385 0.63132 0.0
C2145 C 0.714 0.91253 0.67622 0.0
C2146 C 0.64379 0.91615 0.58601 0.0
C2147 C 0.60843 0.90967 0.59114 0.0
C2148 C 0.66394 0.89553 0.60464 0.0
C2149 C 0.64973 0.86877 0.63077 0.0
C2150 C 0.61433 0.86295 0.63665 0.0
C2151 C 0.59373 0.88223 0.61621 0.0
C2152 C 0.70053 0.90272 0.59581 0.0
C2153 C 0.59791 0.83651 0.66465 0.0
H2154 H 0.67897 0.76135 0.67613 0.0
H2155 H 0.75359 0.87273 0.70295 0.0
H2156 H 0.61206 0.79483 0.62236 0.0
H2157 H 0.64516 0.78305 0.61069 0.0
H2158 H 0.62108 0.75371 0.64261 0.0
H2159 H 0.72427 0.91773 0.70116 0.0
H2160 H 0.73661 0.93187 0.66258 0.0
H2161 H 0.6903 0.92075 0.66857 0.0
H2162 H 0.65536 0.93654 0.56636 0.0
H2163 H 0.56635 0.87639 0.62031 0.0
H2164 H 0.70733 0.87703 0.60271 0.0
H2165 H 0.72242 0.92724 0.60765 0.0
H2166 H 0.70088 0.91089 0.57017 0.0
H2167 H 0.58414 0.80624 0.65887 0.0
H2168 H 0.57694 0.84393 0.67131 0.0
H2169 H 0.61933 0.83787 0.6852 0.0
C2170 C 0.71636 0.19512 0.33145 0.0
C2171 C 0.70677 0.19396 0.29904 0.0
C2172 C 0.69044 0.17625 0.35231 0.0
C2173 C 0.654 0.15209 0.34097 0.0
C2174 C 0.64379 0.1504 0.30811 0.0
C2175 C 0.67028 0.17145 0.28752 0.0
C2176 C 0.70308 0.17967 0.3869 0.0
C2177 C 0.60576 0.1241 0.29486 0.0
C2178 C 0.6163 0.06678 0.40234 0.0
C2179 C 0.59431 0.07764 0.41616 0.0
C2180 C 0.63347 0.08926 0.37636 0.0
C2181 C 0.62941 0.1242 0.36407 0.0
C2182 C 0.60565 0.13419 0.37699 0.0
C2183 C 0.5881 0.11062 0.4027 0.0
C2184 C 0.65773 0.0766 0.36325 0.0
C2185 C 0.60061 0.17102 0.36508 0.0
H2186 H 0.74493 0.2085 0.34083 0.0
H2187 H 0.66306 0.16808 0.26274 0.0
H2188 H 0.68304 0.18447 0.39754 0.0
H2189 H 0.70496 0.15238 0.39891 0.0
H2190 H 0.73044 0.20378 0.39137 0.0
H2191 H 0.59988 0.13148 0.26919 0.0
H2192 H 0.60331 0.09378 0.29925 0.0
H2193 H 0.58464 0.12554 0.3065 0.0
H2194 H 0.62093 0.041 0.41249 0.0
H2195 H 0.57135 0.11924 0.4134 0.0
H2196 H 0.68697 0.09599 0.36953 0.0
H2197 H 0.65178 0.07871 0.3373 0.0
H2198 H 0.65408 0.04644 0.37248 0.0
H2199 H 0.6261 0.19573 0.37286 0.0
H2200 H 0.57735 0.17193 0.37404 0.0
H2201 H 0.59567 0.17442 0.3391 0.0
C2202 C 0.8287 0.67566 0.29376 0.0
C2203 C 0.82857 0.70633 0.30679 0.0
C2204 C 0.8479 0.65283 0.31023 0.0
C2205 C 0.86568 0.65886 0.3415 0.0
C2206 C 0.86436 0.68898 0.35503 0.0
C2207 C 0.848 0.71352 0.33695 0.0
C2208 C 0.85109 0.62386 0.29337 0.0
C2209 C 0.88083 0.69603 0.38855 0.0
C2210 C 0.88881 0.57713 0.39386 0.0
C2211 C 0.92752 0.59235 0.39721 0.0
C2212 C 0.86853 0.59813 0.37591 0.0
C2213 C 0.88687 0.63507 0.35957 0.0
C2214 C 0.92582 0.64991 0.36185 0.0
C2215 C 0.94549 0.62897 0.38099 0.0
C2216 C 0.82751 0.58168 0.37593 0.0
C2217 C 0.94717 0.68858 0.34471 0.0
H2218 H 0.81584 0.6712 0.26977 0.0
H2219 H 0.85065 0.73871 0.34656 0.0
H2220 H 0.88051 0.63002 0.29408 0.0
H2221 H 0.83791 0.59425 0.30526 0.0
H2222 H 0.83815 0.62446 0.2685 0.0
H2223 H 0.8705 0.71408 0.39756 0.0
H2224 H 0.8745 0.66825 0.40399 0.0
H2225 H 0.9111 0.71136 0.39015 0.0
H2226 H 0.8743 0.54955 0.40684 0.0
H2227 H 0.97525 0.64169 0.38361 0.0
H2228 H 0.81295 0.57795 0.35171 0.0
H2229 H 0.82021 0.60219 0.385 0.0
H2230 H 0.81726 0.5533 0.3905 0.0
H2231 H 0.93249 0.6927 0.32096 0.0
H2232 H 0.97504 0.69166 0.34242 0.0
H2233 H 0.95048 0.71207 0.35789 0.0
C2234 C 0.32163 0.78515 0.35876 0.0
C2235 C 0.3067 0.80169 0.33136 0.0
C2236 C 0.33805 0.80543 0.38508 0.0
C2237 C 0.33843 0.84259 0.38424 0.0
C2238 C 0.31881 0.85687 0.35836 0.0
C2239 C 0.30378 0.83662 0.33194 0.0
C2240 C 0.35849 0.78888 0.4122 0.0
C2241 C 0.31675 0.89534 0.35725 0.0
C2242 C 0.38925 0.89551 0.45622 0.0
C2243 C 0.42387 0.91732 0.44674 0.0
C2244 C 0.36009 0.87231 0.43556 0.0
C2245 C 0.36668 0.86994 0.40562 0.0
C2246 C 0.40166 0.89274 0.39606 0.0
C2247 C 0.42961 0.91652 0.41664 0.0
C2248 C 0.32281 0.84965 0.44607 0.0
C2249 C 0.41022 0.89075 0.3646 0.0
H2250 H 0.32246 0.75733 0.35913 0.0
H2251 H 0.29106 0.84911 0.31138 0.0
H2252 H 0.38834 0.80341 0.4105 0.0
H2253 H 0.35447 0.79409 0.43491 0.0
H2254 H 0.34968 0.75728 0.41213 0.0
H2255 H 0.29301 0.89729 0.34038 0.0
H2256 H 0.31442 0.90025 0.38072 0.0
H2257 H 0.34222 0.9189 0.34965 0.0
H2258 H 0.38528 0.89598 0.47983 0.0
H2259 H 0.45679 0.93303 0.40981 0.0
H2260 H 0.31736 0.81848 0.45075 0.0
H2261 H 0.30096 0.85271 0.42738 0.0
H2262 H 0.32085 0.85923 0.46777 0.0
H2263 H 0.40515 0.86057 0.36227 0.0
H2264 H 0.43916 0.90965 0.36126 0.0
H2265 H 0.39197 0.89964 0.34544 0.0
C2266 C 0.23819 0.43911 0.36237 0.0
C2267 C 0.23654 0.40165 0.36463 0.0
C2268 C 0.21432 0.44633 0.37674 0.0
C2269 C 0.18903 0.41543 0.39432 0.0
C2270 C 0.18645 0.3773 0.39577 0.0
C2271 C 0.21011 0.37081 0.38058 0.0
C2272 C 0.21686 0.48711 0.37384 0.0
C2273 C 0.16004 0.34373 0.41462 0.0
C2274 C 0.16208 0.44033 0.46222 0.0
C2275 C 0.1259 0.43551 0.45082 0.0
C2276 C 0.18292 0.43377 0.44397 0.0
C2277 C 0.16741 0.42336 0.41332 0.0
C2278 C 0.13117 0.4196 0.40132 0.0
C2279 C 0.11058 0.42521 0.42046 0.0
C2280 C 0.22122 0.43714 0.45777 0.0
C2281 C 0.11428 0.40978 0.36836 0.0
H2282 H 0.25837 0.46276 0.34956 0.0
H2283 H 0.20901 0.34186 0.38225 0.0
H2284 H 0.18928 0.48751 0.36593 0.0
H2285 H 0.22691 0.49826 0.39703 0.0
H2286 H 0.23577 0.50707 0.35711 0.0
H2287 H 0.16034 0.31565 0.41215 0.0
H2288 H 0.16738 0.34834 0.43978 0.0
H2289 H 0.13164 0.34187 0.40723 0.0
H2290 H 0.17372 0.44818 0.48575 0.0
H2291 H 0.08266 0.4221 0.41154 0.0
H2292 H 0.24151 0.45952 0.44325 0.0
H2293 H 0.22328 0.4093 0.45775 0.0
H2294 H 0.22886 0.44485 0.48218 0.0
H2295 H 0.13148 0.43168 0.35133 0.0
H2296 H 0.08595 0.40863 0.36247 0.0
H2297 H 0.11338 0.3814 0.36533 0.0
C2298 C 0.37007 0.15915 0.63619 0.0
C2299 C 0.38622 0.19873 0.62591 0.0
C2300 C 0.36968 0.13163 0.61888 0.0
C2301 C 0.38569 0.14433 0.59082 0.0
C2302 C 0.39816 0.18392 0.57877 0.0
C2303 C 0.39842 0.21067 0.59657 0.0
C2304 C 0.35565 0.08968 0.63239 0.0
C2305 C 0.41507 0.19873 0.54876 0.0
C2306 C 0.4478 0.10508 0.57057 0.0
C2307 C 0.42753 0.08768 0.5435 0.0
C2308 C 0.43299 0.12054 0.58786 0.0
C2309 C 0.39708 0.11896 0.57763 0.0
C2310 C 0.37535 0.09861 0.55182 0.0
C2311 C 0.39085 0.08296 0.53505 0.0
C2312 C 0.45694 0.14124 0.61566 0.0
C2313 C 0.3368 0.09581 0.54052 0.0
H2314 H 0.36041 0.14993 0.65885 0.0
H2315 H 0.41038 0.24131 0.58847 0.0
H2316 H 0.34345 0.07013 0.61368 0.0
H2317 H 0.37892 0.08356 0.64654 0.0
H2318 H 0.3348 0.08292 0.64797 0.0
H2319 H 0.41807 0.22885 0.5402 0.0
H2320 H 0.44275 0.19825 0.5529 0.0
H2321 H 0.39821 0.17994 0.53012 0.0
H2322 H 0.4759 0.10786 0.57768 0.0
H2323 H 0.37499 0.06908 0.51433 0.0
H2324 H 0.44171 0.13165 0.6361 0.0
H2325 H 0.46474 0.17284 0.60982 0.0
H2326 H 0.48251 0.13614 0.62258 0.0
H2327 H 0.32169 0.09017 0.56054 0.0
H2328 H 0.32118 0.07263 0.52491 0.0
H2329 H 0.33799 0.12373 0.52717 0.0
C2330 C 0.86557 0.30322 0.69147 0.0
C2331 C 0.85026 0.32161 0.70575 0.0
C2332 C 0.8851 0.3219 0.66588 0.0
C2333 C 0.88909 0.35997 0.65359 0.0
C2334 C 0.8733 0.37859 0.66742 0.0
C2335 C 0.85456 0.35934 0.69344 0.0
C2336 C 0.90164 0.30092 0.65208 0.0
C2337 C 0.87582 0.41875 0.65448 0.0
C2338 C 0.9629 0.42457 0.60154 0.0
C2339 C 0.94235 0.42057 0.57164 0.0
C2340 C 0.94618 0.40435 0.62849 0.0
C2341 C 0.90815 0.3796 0.62537 0.0
C2342 C 0.88779 0.37442 0.59509 0.0
C2343 C 0.90511 0.39479 0.56876 0.0
C2344 C 0.96887 0.41052 0.66037 0.0
C2345 C 0.84728 0.34852 0.59045 0.0
H2346 H 0.86262 0.27411 0.7004 0.0
H2347 H 0.8441 0.37437 0.70428 0.0
H2348 H 0.88965 0.29761 0.62717 0.0
H2349 H 0.93165 0.31816 0.65264 0.0
H2350 H 0.897 0.27178 0.66486 0.0
H2351 H 0.8657 0.43095 0.6697 0.0
H2352 H 0.90461 0.43868 0.65164 0.0
H2353 H 0.85924 0.41782 0.63094 0.0
H2354 H 0.9915 0.44473 0.60396 0.0
H2355 H 0.88902 0.39131 0.54568 0.0
H2356 H 0.96631 0.38225 0.67386 0.0
H2357 H 0.95842 0.42458 0.67372 0.0
H2358 H 0.99838 0.42889 0.65885 0.0
H2359 H 0.84238 0.31896 0.60225 0.0
H2360 H 0.83575 0.34646 0.56528 0.0
H2361 H 0.83196 0.35985 0.60126 0.0
C2362 C 0.19889 0.67239 0.67347 0.0
C2363 C 0.2054 0.71162 0.67076 0.0
C2364 C 0.18006 0.65031 0.64875 0.0
C2365 C 0.1655 0.66733 0.62115 0.0
C2366 C 0.1697 0.70626 0.61893 0.0
C2367 C 0.19008 0.7283 0.64386 0.0
C2368 C 0.1762 0.60892 0.65211 0.0
C2369 C 0.15284 0.72452 0.59025 0.0
C2370 C 0.14077 0.61816 0.54738 0.0
C2371 C 0.10369 0.59472 0.54884 0.0
C2372 C 0.1616 0.64205 0.57105 0.0
C2373 C 0.14417 0.64325 0.59554 0.0
C2374 C 0.10664 0.61934 0.59687 0.0
C2375 C 0.08704 0.5949 0.5737 0.0
C2376 C 0.20202 0.66604 0.56989 0.0
C2377 C 0.08695 0.6201 0.62235 0.0
H2378 H 0.20896 0.65887 0.69504 0.0
H2379 H 0.19466 0.75847 0.64208 0.0
H2380 H 0.14679 0.58877 0.65022 0.0
H2381 H 0.18771 0.60474 0.63288 0.0
H2382 H 0.19047 0.60071 0.67485 0.0
H2383 H 0.1572 0.75444 0.59282 0.0
H2384 H 0.16492 0.72534 0.56948 0.0
H2385 H 0.12287 0.7068 0.58561 0.0
H2386 H 0.15311 0.61828 0.52763 0.0
H2387 H 0.05796 0.57712 0.57411 0.0
H2388 H 0.21824 0.65871 0.59172 0.0
H2389 H 0.20796 0.69719 0.56856 0.0
H2390 H 0.21144 0.66139 0.54952 0.0
H2391 H 0.09913 0.61039 0.64553 0.0
H2392 H 0.05714 0.60121 0.61879 0.0
H2393 H 0.09027 0.65009 0.62315 0.0
loop_
_geom_bond_atom_site_label_1
_geom_bond_atom_site_label_2
_geom_bond_distance
_geom_bond_site_symmetry_2
_ccdc_geom_bond_type
Eu0 N31 2.657 . S
Eu0 N38 2.609 . S
Eu0 O44 2.558 . S
Eu0 O45 2.612 . S
Eu0 O47 2.339 . S
Eu0 O48 2.563 . S
Eu0 O49 2.419 . S
Eu0 O51 2.380 . S
Eu0 O52 2.432 . S
Eu0 C64 2.848 . S
C1 C4 1.429 . S
C1 C5 1.411 . S
C1 N8 1.377 . S
C2 C4 1.420 . S
C2 C6 1.423 . S
C2 C14 1.392 . S
C3 C5 1.420 . S
C3 C6 1.351 . S
C3 H26 0.931 . S
C4 C1 1.429 . S
C4 C2 1.420 . S
C4 N12 1.362 . S
C5 C1 1.411 . S
C5 C3 1.420 . S
C5 C10 1.395 . S
C6 C2 1.423 . S
C6 C3 1.351 . S
C6 H18 0.930 . S
C7 C9 1.400 . S
C7 C10 1.386 . S
C7 H19 0.930 . S
N8 C1 1.377 . S
N8 C9 1.321 . S
N8 Eu11 2.609 . S
C9 C7 1.400 . S
C9 N8 1.321 . S
C9 H16 0.930 . S
C10 C5 1.395 . S
C10 C7 1.386 . S
C10 H29 0.930 . S
Eu11 N8 2.609 . S
Eu11 N12 2.657 . S
Eu11 O45 2.380 . S
Eu11 O46 2.432 . S
Eu11 O50 2.558 . S
Eu11 O51 2.612 . S
Eu11 O53 2.339 . S
Eu11 O54 2.563 . S
Eu11 O55 2.419 . S
Eu11 C75 2.848 . S
N12 C4 1.362 . S
N12 Eu11 2.657 . S
N12 C13 1.334 . S
C13 N12 1.334 . S
C13 C15 1.413 . S
C13 H20 0.929 . S
C14 C2 1.392 . S
C14 C15 1.367 . S
C14 H22 0.930 . S
C15 C13 1.413 . S
C15 C14 1.367 . S
C15 H17 0.930 . S
H16 C9 0.930 . S
H17 C15 0.930 . S
H18 C6 0.930 . S
H19 C7 0.930 . S
H20 C13 0.929 . S
H21 C35 0.930 . S
H22 C14 0.930 . S
H23 C41 0.930 . S
H24 C32 0.929 . S
H25 C39 0.930 . S
H26 C3 0.931 . S
H27 C33 0.930 . S
H28 C66 0.930 . S
H29 C10 0.930 . S
H30 C65 0.931 . S
N31 Eu0 2.657 . S
N31 C32 1.334 . S
N31 C36 1.362 . S
C32 H24 0.929 . S
C32 N31 1.334 . S
C32 C35 1.413 . S
C33 H27 0.930 . S
C33 C34 1.392 . S
C33 C35 1.367 . S
C34 C33 1.392 . S
C34 C36 1.420 . S
C34 C66 1.423 . S
C35 H21 0.930 . S
C35 C32 1.413 . S
C35 C33 1.367 . S
C36 N31 1.362 . S
C36 C34 1.420 . S
C36 C40 1.429 . S
H37 C42 0.930 . S
N38 Eu0 2.609 . S
N38 C40 1.377 . S
N38 C41 1.321 . S
C39 H25 0.930 . S
C39 C41 1.400 . S
C39 C42 1.386 . S
C40 C36 1.429 . S
C40 N38 1.377 . S
C40 C43 1.411 . S
C41 H23 0.930 . S
C41 N38 1.321 . S
C41 C39 1.400 . S
C42 H37 0.930 . S
C42 C39 1.386 . S
C42 C43 1.395 . S
C43 C40 1.411 . S
C43 C42 1.395 . S
C43 C65 1.420 . S
O44 Eu0 2.558 . S
O44 C64 1.257 . S
O45 Eu0 2.612 . S
O45 Eu11 2.380 . S
O45 C56 1.276 . S
O46 Eu11 2.432 . S
O46 C63 1.264 . S
O47 Eu0 2.339 . S
O47 C63 1.254 . S
O48 Eu0 2.563 . S
O48 C56 1.235 . S
O49 Eu0 2.419 . S
O49 C64 1.249 . S
O50 Eu11 2.558 . S
O50 C75 1.257 . S
O51 Eu0 2.380 . S
O51 Eu11 2.612 . S
O51 C67 1.276 . S
O52 Eu0 2.432 . S
O52 C74 1.264 . S
O53 Eu11 2.339 . S
O53 C74 1.254 . S
O54 Eu11 2.563 . S
O54 C67 1.235 . S
O55 Eu11 2.419 . S
O55 C75 1.249 . S
C56 O45 1.276 . S
C56 O48 1.235 . S
C57 C59 1.393 . S
C57 C61 1.395 . S
C57 C64 1.492 . S
C58 C59 1.392 . S
C58 C60 1.386 . S
C59 C57 1.393 . S
C59 C58 1.392 . S
C59 H76 0.930 . S
C60 C58 1.386 . S
C60 C62 1.395 . S
C60 H77 0.930 . S
C61 C57 1.395 . S
C61 C62 1.379 . S
C61 H78 0.930 . S
C62 C60 1.395 . S
C62 C61 1.379 . S
C62 H79 0.930 . S
C63 O46 1.264 . S
C63 O47 1.254 . S
C64 Eu0 2.848 . S
C64 O44 1.257 . S
C64 O49 1.249 . S
C64 C57 1.492 . S
C65 H30 0.931 . S
C65 C43 1.420 . S
C65 C66 1.351 . S
C66 H28 0.930 . S
C66 C34 1.423 . S
C66 C65 1.351 . S
C67 O51 1.276 . S
C67 O54 1.235 . S
C68 C69 1.393 . S
C68 C72 1.395 . S
C68 C75 1.492 . S
C69 C68 1.393 . S
C69 C70 1.392 . S
C69 H80 0.930 . S
C70 C69 1.392 . S
C70 C71 1.386 . S
C71 C70 1.386 . S
C71 C73 1.395 . S
C71 H81 0.930 . S
C72 C68 1.395 . S
C72 C73 1.379 . S
C72 H82 0.930 . S
C73 C71 1.395 . S
C73 C72 1.379 . S
C73 H83 0.930 . S
C74 O52 1.264 . S
C74 O53 1.254 . S
C75 Eu11 2.848 . S
C75 O50 1.257 . S
C75 O55 1.249 . S
C75 C68 1.492 . S
H76 C59 0.930 . S
H77 C60 0.930 . S
H78 C61 0.930 . S
H79 C62 0.930 . S
H80 C69 0.930 . S
H81 C71 0.930 . S
H82 C72 0.930 . S
H83 C73 0.930 . S
Eu84 N115 2.657 . S
Eu84 N122 2.609 . S
Eu84 O128 2.558 . S
Eu84 O129 2.612 . S
Eu84 O131 2.339 . S
Eu84 O132 2.563 . S
Eu84 O133 2.419 . S
Eu84 O135 2.380 . S
Eu84 O136 2.432 . S
Eu84 C148 2.848 . S
C85 C88 1.429 . S
C85 C89 1.411 . S
C85 N92 1.377 . S
C86 C88 1.420 . S
C86 C90 1.423 . S
C86 C98 1.392 . S
C87 C89 1.420 . S
C87 C90 1.351 . S
C87 H110 0.931 . S
C88 C85 1.429 . S
C88 C86 1.420 . S
C88 N96 1.362 . S
C89 C85 1.411 . S
C89 C87 1.420 . S
C89 C94 1.395 . S
C90 C86 1.423 . S
C90 C87 1.351 . S
C90 H102 0.930 . S
C91 C93 1.400 . S
C91 C94 1.386 . S
C91 H103 0.930 . S
N92 C85 1.377 . S
N92 C93 1.321 . S
N92 Eu95 2.609 . S
C93 C91 1.400 . S
C93 N92 1.321 . S
C93 H100 0.930 . S
C94 C89 1.395 . S
C94 C91 1.386 . S
C94 H113 0.930 . S
Eu95 N92 2.609 . S
Eu95 N96 2.657 . S
Eu95 O129 2.380 . S
Eu95 O130 2.432 . S
Eu95 O134 2.558 . S
Eu95 O135 2.612 . S
Eu95 O137 2.339 . S
Eu95 O138 2.563 . S
Eu95 O139 2.419 . S
Eu95 C159 2.848 . S
N96 C88 1.362 . S
N96 Eu95 2.657 . S
N96 C97 1.334 . S
C97 N96 1.334 . S
C97 C99 1.413 . S
C97 H104 0.929 . S
C98 C86 1.392 . S
C98 C99 1.367 . S
C98 H106 0.930 . S
C99 C97 1.413 . S
C99 C98 1.367 . S
C99 H101 0.930 . S
H100 C93 0.930 . S
H101 C99 0.930 . S
H102 C90 0.930 . S
H103 C91 0.930 . S
H104 C97 0.929 . S
H105 C119 0.930 . S
H106 C98 0.930 . S
H107 C125 0.930 . S
H108 C116 0.929 . S
H109 C123 0.930 . S
H110 C87 0.931 . S
H111 C117 0.930 . S
H112 C150 0.930 . S
H113 C94 0.930 . S
H114 C149 0.931 . S
N115 Eu84 2.657 . S
N115 C116 1.334 . S
N115 C120 1.362 . S
C116 H108 0.929 . S
C116 N115 1.334 . S
C116 C119 1.413 . S
C117 H111 0.930 . S
C117 C118 1.392 . S
C117 C119 1.367 . S
C118 C117 1.392 . S
C118 C120 1.420 . S
C118 C150 1.423 . S
C119 H105 0.930 . S
C119 C116 1.413 . S
C119 C117 1.367 . S
C120 N115 1.362 . S
C120 C118 1.420 . S
C120 C124 1.429 . S
H121 C126 0.930 . S
N122 Eu84 2.609 . S
N122 C124 1.377 . S
N122 C125 1.321 . S
C123 H109 0.930 . S
C123 C125 1.400 . S
C123 C126 1.386 . S
C124 C120 1.429 . S
C124 N122 1.377 . S
C124 C127 1.411 . S
C125 H107 0.930 . S
C125 N122 1.321 . S
C125 C123 1.400 . S
C126 H121 0.930 . S
C126 C123 1.386 . S
C126 C127 1.395 . S
C127 C124 1.411 . S
C127 C126 1.395 . S
C127 C149 1.420 . S
O128 Eu84 2.558 . S
O128 C148 1.257 . S
O129 Eu84 2.612 . S
O129 Eu95 2.380 . S
O129 C140 1.276 . S
O130 Eu95 2.432 . S
O130 C147 1.264 . S
O131 Eu84 2.339 . S
O131 C147 1.254 . S
O132 Eu84 2.563 . S
O132 C140 1.235 . S
O133 Eu84 2.419 . S
O133 C148 1.249 . S
O134 Eu95 2.558 . S
O134 C159 1.257 . S
O135 Eu84 2.380 . S
O135 Eu95 2.612 . S
O135 C151 1.276 . S
O136 Eu84 2.432 . S
O136 C158 1.264 . S
O137 Eu95 2.339 . S
O137 C158 1.254 . S
O138 Eu95 2.563 . S
O138 C151 1.235 . S
O139 Eu95 2.419 . S
O139 C159 1.249 . S
C140 O129 1.276 . S
C140 O132 1.235 . S
C141 C143 1.393 . S
C141 C145 1.395 . S
C141 C148 1.492 . S
C142 C143 1.392 . S
C142 C144 1.386 . S
C143 C141 1.393 . S
C143 C142 1.392 . S
C143 H160 0.930 . S
C144 C142 1.386 . S
C144 C146 1.395 . S
C144 H161 0.930 . S
C145 C141 1.395 . S
C145 C146 1.379 . S
C145 H162 0.930 . S
C146 C144 1.395 . S
C146 C145 1.379 . S
C146 H163 0.930 . S
C147 O130 1.264 . S
C147 O131 1.254 . S
C148 Eu84 2.848 . S
C148 O128 1.257 . S
C148 O133 1.249 . S
C148 C141 1.492 . S
C149 H114 0.931 . S
C149 C127 1.420 . S
C149 C150 1.351 . S
C150 H112 0.930 . S
C150 C118 1.423 . S
C150 C149 1.351 . S
C151 O135 1.276 . S
C151 O138 1.235 . S
C152 C153 1.393 . S
C152 C156 1.395 . S
C152 C159 1.492 . S
C153 C152 1.393 . S
C153 C154 1.392 . S
C153 H164 0.930 . S
C154 C153 1.392 . S
C154 C155 1.386 . S
C155 C154 1.386 . S
C155 C157 1.395 . S
C155 H165 0.930 . S
C156 C152 1.395 . S
C156 C157 1.379 . S
C156 H166 0.930 . S
C157 C155 1.395 . S
C157 C156 1.379 . S
C157 H167 0.930 . S
C158 O136 1.264 . S
C158 O137 1.254 . S
C159 Eu95 2.848 . S
C159 O134 1.257 . S
C159 O139 1.249 . S
C159 C152 1.492 . S
H160 C143 0.930 . S
H161 C144 0.930 . S
H162 C145 0.930 . S
H163 C146 0.930 . S
H164 C153 0.930 . S
H165 C155 0.930 . S
H166 C156 0.930 . S
H167 C157 0.930 . S
Eu168 N199 2.657 . S
Eu168 N206 2.609 . S
Eu168 O212 2.558 . S
Eu168 O213 2.612 . S
Eu168 O215 2.339 . S
Eu168 O216 2.563 . S
Eu168 O217 2.419 . S
Eu168 O219 2.380 . S
Eu168 O220 2.432 . S
Eu168 C232 2.848 . S
C169 C172 1.429 . S
C169 C173 1.411 . S
C169 N176 1.377 . S
C170 C172 1.420 . S
C170 C174 1.423 . S
C170 C182 1.392 . S
C171 C173 1.420 . S
C171 C174 1.351 . S
C171 H194 0.931 . S
C172 C169 1.429 . S
C172 C170 1.420 . S
C172 N180 1.362 . S
C173 C169 1.411 . S
C173 C171 1.420 . S
C173 C178 1.395 . S
C174 C170 1.423 . S
C174 C171 1.351 . S
C174 H186 0.930 . S
C175 C177 1.400 . S
C175 C178 1.386 . S
C175 H187 0.930 . S
N176 C169 1.377 . S
N176 C177 1.321 . S
N176 Eu179 2.609 . S
C177 C175 1.400 . S
C177 N176 1.321 . S
C177 H184 0.930 . S
C178 C173 1.395 . S
C178 C175 1.386 . S
C178 H197 0.930 . S
Eu179 N176 2.609 . S
Eu179 N180 2.657 . S
Eu179 O213 2.380 . S
Eu179 O214 2.432 . S
Eu179 O218 2.558 . S
Eu179 O219 2.612 . S
Eu179 O221 2.339 . S
Eu179 O222 2.563 . S
Eu179 O223 2.419 . S
Eu179 C243 2.848 . S
N180 C172 1.362 . S
N180 Eu179 2.657 . S
N180 C181 1.334 . S
C181 N180 1.334 . S
C181 C183 1.413 . S
C181 H188 0.929 . S
C182 C170 1.392 . S
C182 C183 1.367 . S
C182 H190 0.930 . S
C183 C181 1.413 . S
C183 C182 1.367 . S
C183 H185 0.930 . S
H184 C177 0.930 . S
H185 C183 0.930 . S
H186 C174 0.930 . S
H187 C175 0.930 . S
H188 C181 0.929 . S
H189 C203 0.930 . S
H190 C182 0.930 . S
H191 C209 0.930 . S
H192 C200 0.929 . S
H193 C207 0.930 . S
H194 C171 0.931 . S
H195 C201 0.930 . S
H196 C234 0.930 . S
H197 C178 0.930 . S
H198 C233 0.931 . S
N199 Eu168 2.657 . S
N199 C200 1.334 . S
N199 C204 1.362 . S
C200 H192 0.929 . S
C200 N199 1.334 . S
C200 C203 1.413 . S
C201 H195 0.930 . S
C201 C202 1.392 . S
C201 C203 1.367 . S
C202 C201 1.392 . S
C202 C204 1.420 . S
C202 C234 1.423 . S
C203 H189 0.930 . S
C203 C200 1.413 . S
C203 C201 1.367 . S
C204 N199 1.362 . S
C204 C202 1.420 . S
C204 C208 1.429 . S
H205 C210 0.930 . S
N206 Eu168 2.609 . S
N206 C208 1.377 . S
N206 C209 1.321 . S
C207 H193 0.930 . S
C207 C209 1.400 . S
C207 C210 1.386 . S
C208 C204 1.429 . S
C208 N206 1.377 . S
C208 C211 1.411 . S
C209 H191 0.930 . S
C209 N206 1.321 . S
C209 C207 1.400 . S
C210 H205 0.930 . S
C210 C207 1.386 . S
C210 C211 1.395 . S
C211 C208 1.411 . S
C211 C210 1.395 . S
C211 C233 1.420 . S
O212 Eu168 2.558 . S
O212 C232 1.257 . S
O213 Eu168 2.612 . S
O213 Eu179 2.380 . S
O213 C224 1.276 . S
O214 Eu179 2.432 . S
O214 C231 1.264 . S
O215 Eu168 2.339 . S
O215 C231 1.254 . S
O216 Eu168 2.563 . S
O216 C224 1.235 . S
O217 Eu168 2.419 . S
O217 C232 1.249 . S
O218 Eu179 2.558 . S
O218 C243 1.257 . S
O219 Eu168 2.380 . S
O219 Eu179 2.612 . S
O219 C235 1.276 . S
O220 Eu168 2.432 . S
O220 C242 1.264 . S
O221 Eu179 2.339 . S
O221 C242 1.254 . S
O222 Eu179 2.563 . S
O222 C235 1.235 . S
O223 Eu179 2.419 . S
O223 C243 1.249 . S
C224 O213 1.276 . S
C224 O216 1.235 . S
C225 C227 1.393 . S
C225 C229 1.395 . S
C225 C232 1.492 . S
C226 C227 1.392 . S
C226 C228 1.386 . S
C227 C225 1.393 . S
C227 C226 1.392 . S
C227 H244 0.930 . S
C228 C226 1.386 . S
C228 C230 1.395 . S
C228 H245 0.930 . S
C229 C225 1.395 . S
C229 C230 1.379 . S
C229 H246 0.930 . S
C230 C228 1.395 . S
C230 C229 1.379 . S
C230 H247 0.930 . S
C231 O214 1.264 . S
C231 O215 1.254 . S
C232 Eu168 2.848 . S
C232 O212 1.257 . S
C232 O217 1.249 . S
C232 C225 1.492 . S
C233 H198 0.931 . S
C233 C211 1.420 . S
C233 C234 1.351 . S
C234 H196 0.930 . S
C234 C202 1.423 . S
C234 C233 1.351 . S
C235 O219 1.276 . S
C235 O222 1.235 . S
C236 C237 1.393 . S
C236 C240 1.395 . S
C236 C243 1.492 . S
C237 C236 1.393 . S
C237 C238 1.392 . S
C237 H248 0.930 . S
C238 C237 1.392 . S
C238 C239 1.386 . S
C239 C238 1.386 . S
C239 C241 1.395 . S
C239 H249 0.930 . S
C240 C236 1.395 . S
C240 C241 1.379 . S
C240 H250 0.930 . S
C241 C239 1.395 . S
C241 C240 1.379 . S
C241 H251 0.930 . S
C242 O220 1.264 . S
C242 O221 1.254 . S
C243 Eu179 2.848 . S
C243 O218 1.257 . S
C243 O223 1.249 . S
C243 C236 1.492 . S
H244 C227 0.930 . S
H245 C228 0.930 . S
H246 C229 0.930 . S
H247 C230 0.930 . S
H248 C237 0.930 . S
H249 C239 0.930 . S
H250 C240 0.930 . S
H251 C241 0.930 . S
Eu252 N283 2.657 . S
Eu252 N290 2.609 . S
Eu252 O296 2.558 . S
Eu252 O297 2.612 . S
Eu252 O299 2.339 . S
Eu252 O300 2.563 . S
Eu252 O301 2.419 . S
Eu252 O303 2.380 . S
Eu252 O304 2.432 . S
Eu252 C316 2.848 . S
C253 C256 1.429 . S
C253 C257 1.411 . S
C253 N260 1.377 . S
C254 C256 1.420 . S
C254 C258 1.423 . S
C254 C266 1.392 . S
C255 C257 1.420 . S
C255 C258 1.351 . S
C255 H278 0.931 . S
C256 C253 1.429 . S
C256 C254 1.420 . S
C256 N264 1.362 . S
C257 C253 1.411 . S
C257 C255 1.420 . S
C257 C262 1.395 . S
C258 C254 1.423 . S
C258 C255 1.351 . S
C258 H270 0.930 . S
C259 C261 1.400 . S
C259 C262 1.386 . S
C259 H271 0.930 . S
N260 C253 1.377 . S
N260 C261 1.321 . S
N260 Eu263 2.609 . S
C261 C259 1.400 . S
C261 N260 1.321 . S
C261 H268 0.930 . S
C262 C257 1.395 . S
C262 C259 1.386 . S
C262 H281 0.930 . S
Eu263 N260 2.609 . S
Eu263 N264 2.657 . S
Eu263 O297 2.380 . S
Eu263 O298 2.432 . S
Eu263 O302 2.558 . S
Eu263 O303 2.612 . S
Eu263 O305 2.339 . S
Eu263 O306 2.563 . S
Eu263 O307 2.419 . S
Eu263 C327 2.848 . S
N264 C256 1.362 . S
N264 Eu263 2.657 . S
N264 C265 1.334 . S
C265 N264 1.334 . S
C265 C267 1.413 . S
C265 H272 0.929 . S
C266 C254 1.392 . S
C266 C267 1.367 . S
C266 H274 0.930 . S
C267 C265 1.413 . S
C267 C266 1.367 . S
C267 H269 0.930 . S
H268 C261 0.930 . S
H269 C267 0.930 . S
H270 C258 0.930 . S
H271 C259 0.930 . S
H272 C265 0.929 . S
H273 C287 0.930 . S
H274 C266 0.930 . S
H275 C293 0.930 . S
H276 C284 0.929 . S
H277 C291 0.930 . S
H278 C255 0.931 . S
H279 C285 0.930 . S
H280 C318 0.930 . S
H281 C262 0.930 . S
H282 C317 0.931 . S
N283 Eu252 2.657 . S
N283 C284 1.334 . S
N283 C288 1.362 . S
C284 H276 0.929 . S
C284 N283 1.334 . S
C284 C287 1.413 . S
C285 H279 0.930 . S
C285 C286 1.392 . S
C285 C287 1.367 . S
C286 C285 1.392 . S
C286 C288 1.420 . S
C286 C318 1.423 . S
C287 H273 0.930 . S
C287 C284 1.413 . S
C287 C285 1.367 . S
C288 N283 1.362 . S
C288 C286 1.420 . S
C288 C292 1.429 . S
H289 C294 0.930 . S
N290 Eu252 2.609 . S
N290 C292 1.377 . S
N290 C293 1.321 . S
C291 H277 0.930 . S
C291 C293 1.400 . S
C291 C294 1.386 . S
C292 C288 1.429 . S
C292 N290 1.377 . S
C292 C295 1.411 . S
C293 H275 0.930 . S
C293 N290 1.321 . S
C293 C291 1.400 . S
C294 H289 0.930 . S
C294 C291 1.386 . S
C294 C295 1.395 . S
C295 C292 1.411 . S
C295 C294 1.395 . S
C295 C317 1.420 . S
O296 Eu252 2.558 . S
O296 C316 1.257 . S
O297 Eu252 2.612 . S
O297 Eu263 2.380 . S
O297 C308 1.276 . S
O298 Eu263 2.432 . S
O298 C315 1.264 . S
O299 Eu252 2.339 . S
O299 C315 1.254 . S
O300 Eu252 2.563 . S
O300 C308 1.235 . S
O301 Eu252 2.419 . S
O301 C316 1.249 . S
O302 Eu263 2.558 . S
O302 C327 1.257 . S
O303 Eu252 2.380 . S
O303 Eu263 2.612 . S
O303 C319 1.276 . S
O304 Eu252 2.432 . S
O304 C326 1.264 . S
O305 Eu263 2.339 . S
O305 C326 1.254 . S
O306 Eu263 2.563 . S
O306 C319 1.235 . S
O307 Eu263 2.419 . S
O307 C327 1.249 . S
C308 O297 1.276 . S
C308 O300 1.235 . S
C309 C311 1.393 . S
C309 C313 1.395 . S
C309 C316 1.492 . S
C310 C311 1.392 . S
C310 C312 1.386 . S
C311 C309 1.393 . S
C311 C310 1.392 . S
C311 H328 0.930 . S
C312 C310 1.386 . S
C312 C314 1.395 . S
C312 H329 0.930 . S
C313 C309 1.395 . S
C313 C314 1.379 . S
C313 H330 0.930 . S
C314 C312 1.395 . S
C314 C313 1.379 . S
C314 H331 0.930 . S
C315 O298 1.264 . S
C315 O299 1.254 . S
C316 Eu252 2.848 . S
C316 O296 1.257 . S
C316 O301 1.249 . S
C316 C309 1.492 . S
C317 H282 0.931 . S
C317 C295 1.420 . S
C317 C318 1.351 . S
C318 H280 0.930 . S
C318 C286 1.423 . S
C318 C317 1.351 . S
C319 O303 1.276 . S
C319 O306 1.235 . S
C320 C321 1.393 . S
C320 C324 1.395 . S
C320 C327 1.492 . S
C321 C320 1.393 . S
C321 C322 1.392 . S
C321 H332 0.930 . S
C322 C321 1.392 . S
C322 C323 1.386 . S
C323 C322 1.386 . S
C323 C325 1.395 . S
C323 H333 0.930 . S
C324 C320 1.395 . S
C324 C325 1.379 . S
C324 H334 0.930 . S
C325 C323 1.395 . S
C325 C324 1.379 . S
C325 H335 0.930 . S
C326 O304 1.264 . S
C326 O305 1.254 . S
C327 Eu263 2.848 . S
C327 O302 1.257 . S
C327 O307 1.249 . S
C327 C320 1.492 . S
H328 C311 0.930 . S
H329 C312 0.930 . S
H330 C313 0.930 . S
H331 C314 0.930 . S
H332 C321 0.930 . S
H333 C323 0.930 . S
H334 C324 0.930 . S
H335 C325 0.930 . S
Eu336 N367 2.657 . S
Eu336 N374 2.609 . S
Eu336 O380 2.558 . S
Eu336 O381 2.612 . S
Eu336 O383 2.339 . S
Eu336 O384 2.563 . S
Eu336 O385 2.419 . S
Eu336 O387 2.380 . S
Eu336 O388 2.432 . S
Eu336 C400 2.848 . S
C337 C340 1.429 . S
C337 C341 1.411 . S
C337 N344 1.377 . S
C338 C340 1.420 . S
C338 C342 1.423 . S
C338 C350 1.392 . S
C339 C341 1.420 . S
C339 C342 1.351 . S
C339 H362 0.931 . S
C340 C337 1.429 . S
C340 C338 1.420 . S
C340 N348 1.362 . S
C341 C337 1.411 . S
C341 C339 1.420 . S
C341 C346 1.395 . S
C342 C338 1.423 . S
C342 C339 1.351 . S
C342 H354 0.930 . S
C343 C345 1.400 . S
C343 C346 1.386 . S
C343 H355 0.930 . S
N344 C337 1.377 . S
N344 C345 1.321 . S
N344 Eu347 2.609 . S
C345 C343 1.400 . S
C345 N344 1.321 . S
C345 H352 0.930 . S
C346 C341 1.395 . S
C346 C343 1.386 . S
C346 H365 0.930 . S
Eu347 N344 2.609 . S
Eu347 N348 2.657 . S
Eu347 O381 2.380 . S
Eu347 O382 2.432 . S
Eu347 O386 2.558 . S
Eu347 O387 2.612 . S
Eu347 O389 2.339 . S
Eu347 O390 2.563 . S
Eu347 O391 2.419 . S
Eu347 C411 2.848 . S
N348 C340 1.362 . S
N348 Eu347 2.657 . S
N348 C349 1.334 . S
C349 N348 1.334 . S
C349 C351 1.413 . S
C349 H356 0.929 . S
C350 C338 1.392 . S
C350 C351 1.367 . S
C350 H358 0.930 . S
C351 C349 1.413 . S
C351 C350 1.367 . S
C351 H353 0.930 . S
H352 C345 0.930 . S
H353 C351 0.930 . S
H354 C342 0.930 . S
H355 C343 0.930 . S
H356 C349 0.929 . S
H357 C371 0.930 . S
H358 C350 0.930 . S
H359 C377 0.930 . S
H360 C368 0.929 . S
H361 C375 0.930 . S
H362 C339 0.931 . S
H363 C369 0.930 . S
H364 C402 0.930 . S
H365 C346 0.930 . S
H366 C401 0.931 . S
N367 Eu336 2.657 . S
N367 C368 1.334 . S
N367 C372 1.362 . S
C368 H360 0.929 . S
C368 N367 1.334 . S
C368 C371 1.413 . S
C369 H363 0.930 . S
C369 C370 1.392 . S
C369 C371 1.367 . S
C370 C369 1.392 . S
C370 C372 1.420 . S
C370 C402 1.423 . S
C371 H357 0.930 . S
C371 C368 1.413 . S
C371 C369 1.367 . S
C372 N367 1.362 . S
C372 C370 1.420 . S
C372 C376 1.429 . S
H373 C378 0.930 . S
N374 Eu336 2.609 . S
N374 C376 1.377 . S
N374 C377 1.321 . S
C375 H361 0.930 . S
C375 C377 1.400 . S
C375 C378 1.386 . S
C376 C372 1.429 . S
C376 N374 1.377 . S
C376 C379 1.411 . S
C377 H359 0.930 . S
C377 N374 1.321 . S
C377 C375 1.400 . S
C378 H373 0.930 . S
C378 C375 1.386 . S
C378 C379 1.395 . S
C379 C376 1.411 . S
C379 C378 1.395 . S
C379 C401 1.420 . S
O380 Eu336 2.558 . S
O380 C400 1.257 . S
O381 Eu336 2.612 . S
O381 Eu347 2.380 . S
O381 C392 1.276 . S
O382 Eu347 2.432 . S
O382 C399 1.264 . S
O383 Eu336 2.339 . S
O383 C399 1.254 . S
O384 Eu336 2.563 . S
O384 C392 1.235 . S
O385 Eu336 2.419 . S
O385 C400 1.249 . S
O386 Eu347 2.558 . S
O386 C411 1.257 . S
O387 Eu336 2.380 . S
O387 Eu347 2.612 . S
O387 C403 1.276 . S
O388 Eu336 2.432 . S
O388 C410 1.264 . S
O389 Eu347 2.339 . S
O389 C410 1.254 . S
O390 Eu347 2.563 . S
O390 C403 1.235 . S
O391 Eu347 2.419 . S
O391 C411 1.249 . S
C392 O381 1.276 . S
C392 O384 1.235 . S
C393 C395 1.393 . S
C393 C397 1.395 . S
C393 C400 1.492 . S
C394 C395 1.392 . S
C394 C396 1.386 . S
C395 C393 1.393 . S
C395 C394 1.392 . S
C395 H412 0.930 . S
C396 C394 1.386 . S
C396 C398 1.395 . S
C396 H413 0.930 . S
C397 C393 1.395 . S
C397 C398 1.379 . S
C397 H414 0.930 . S
C398 C396 1.395 . S
C398 C397 1.379 . S
C398 H415 0.930 . S
C399 O382 1.264 . S
C399 O383 1.254 . S
C400 Eu336 2.848 . S
C400 O380 1.257 . S
C400 O385 1.249 . S
C400 C393 1.492 . S
C401 H366 0.931 . S
C401 C379 1.420 . S
C401 C402 1.351 . S
C402 H364 0.930 . S
C402 C370 1.423 . S
C402 C401 1.351 . S
C403 O387 1.276 . S
C403 O390 1.235 . S
C404 C405 1.393 . S
C404 C408 1.395 . S
C404 C411 1.492 . S
C405 C404 1.393 . S
C405 C406 1.392 . S
C405 H416 0.930 . S
C406 C405 1.392 . S
C406 C407 1.386 . S
C407 C406 1.386 . S
C407 C409 1.395 . S
C407 H417 0.930 . S
C408 C404 1.395 . S
C408 C409 1.379 . S
C408 H418 0.930 . S
C409 C407 1.395 . S
C409 C408 1.379 . S
C409 H419 0.930 . S
C410 O388 1.264 . S
C410 O389 1.254 . S
C411 Eu347 2.848 . S
C411 O386 1.257 . S
C411 O391 1.249 . S
C411 C404 1.492 . S
H412 C395 0.930 . S
H413 C396 0.930 . S
H414 C397 0.930 . S
H415 C398 0.930 . S
H416 C405 0.930 . S
H417 C407 0.930 . S
H418 C408 0.930 . S
H419 C409 0.930 . S
Eu420 N451 2.657 . S
Eu420 N458 2.609 . S
Eu420 O464 2.558 . S
Eu420 O465 2.612 . S
Eu420 O467 2.339 . S
Eu420 O468 2.563 . S
Eu420 O469 2.419 . S
Eu420 O471 2.380 . S
Eu420 O472 2.432 . S
Eu420 C484 2.848 . S
C421 C424 1.429 . S
C421 C425 1.411 . S
C421 N428 1.377 . S
C422 C424 1.420 . S
C422 C426 1.423 . S
C422 C434 1.392 . S
C423 C425 1.420 . S
C423 C426 1.351 . S
C423 H446 0.931 . S
C424 C421 1.429 . S
C424 C422 1.420 . S
C424 N432 1.362 . S
C425 C421 1.411 . S
C425 C423 1.420 . S
C425 C430 1.395 . S
C426 C422 1.423 . S
C426 C423 1.351 . S
C426 H438 0.930 . S
C427 C429 1.400 . S
C427 C430 1.386 . S
C427 H439 0.930 . S
N428 C421 1.377 . S
N428 C429 1.321 . S
N428 Eu431 2.609 . S
C429 C427 1.400 . S
C429 N428 1.321 . S
C429 H436 0.930 . S
C430 C425 1.395 . S
C430 C427 1.386 . S
C430 H449 0.930 . S
Eu431 N428 2.609 . S
Eu431 N432 2.657 . S
Eu431 O465 2.380 . S
Eu431 O466 2.432 . S
Eu431 O470 2.558 . S
Eu431 O471 2.612 . S
Eu431 O473 2.339 . S
Eu431 O474 2.563 . S
Eu431 O475 2.419 . S
Eu431 C495 2.848 . S
N432 C424 1.362 . S
N432 Eu431 2.657 . S
N432 C433 1.334 . S
C433 N432 1.334 . S
C433 C435 1.413 . S
C433 H440 0.929 . S
C434 C422 1.392 . S
C434 C435 1.367 . S
C434 H442 0.930 . S
C435 C433 1.413 . S
C435 C434 1.367 . S
C435 H437 0.930 . S
H436 C429 0.930 . S
H437 C435 0.930 . S
H438 C426 0.930 . S
H439 C427 0.930 . S
H440 C433 0.929 . S
H441 C455 0.930 . S
H442 C434 0.930 . S
H443 C461 0.930 . S
H444 C452 0.929 . S
H445 C459 0.930 . S
H446 C423 0.931 . S
H447 C453 0.930 . S
H448 C486 0.930 . S
H449 C430 0.930 . S
H450 C485 0.931 . S
N451 Eu420 2.657 . S
N451 C452 1.334 . S
N451 C456 1.362 . S
C452 H444 0.929 . S
C452 N451 1.334 . S
C452 C455 1.413 . S
C453 H447 0.930 . S
C453 C454 1.392 . S
C453 C455 1.367 . S
C454 C453 1.392 . S
C454 C456 1.420 . S
C454 C486 1.423 . S
C455 H441 0.930 . S
C455 C452 1.413 . S
C455 C453 1.367 . S
C456 N451 1.362 . S
C456 C454 1.420 . S
C456 C460 1.429 . S
H457 C462 0.930 . S
N458 Eu420 2.609 . S
N458 C460 1.377 . S
N458 C461 1.321 . S
C459 H445 0.930 . S
C459 C461 1.400 . S
C459 C462 1.386 . S
C460 C456 1.429 . S
C460 N458 1.377 . S
C460 C463 1.411 . S
C461 H443 0.930 . S
C461 N458 1.321 . S
C461 C459 1.400 . S
C462 H457 0.930 . S
C462 C459 1.386 . S
C462 C463 1.395 . S
C463 C460 1.411 . S
C463 C462 1.395 . S
C463 C485 1.420 . S
O464 Eu420 2.558 . S
O464 C484 1.257 . S
O465 Eu420 2.612 . S
O465 Eu431 2.380 . S
O465 C476 1.276 . S
O466 Eu431 2.432 . S
O466 C483 1.264 . S
O467 Eu420 2.339 . S
O467 C483 1.254 . S
O468 Eu420 2.563 . S
O468 C476 1.235 . S
O469 Eu420 2.419 . S
O469 C484 1.249 . S
O470 Eu431 2.558 . S
O470 C495 1.257 . S
O471 Eu420 2.380 . S
O471 Eu431 2.612 . S
O471 C487 1.276 . S
O472 Eu420 2.432 . S
O472 C494 1.264 . S
O473 Eu431 2.339 . S
O473 C494 1.254 . S
O474 Eu431 2.563 . S
O474 C487 1.235 . S
O475 Eu431 2.419 . S
O475 C495 1.249 . S
C476 O465 1.276 . S
C476 O468 1.235 . S
C477 C479 1.393 . S
C477 C481 1.395 . S
C477 C484 1.492 . S
C478 C479 1.392 . S
C478 C480 1.386 . S
C479 C477 1.393 . S
C479 C478 1.392 . S
C479 H496 0.930 . S
C480 C478 1.386 . S
C480 C482 1.395 . S
C480 H497 0.930 . S
C481 C477 1.395 . S
C481 C482 1.379 . S
C481 H498 0.930 . S
C482 C480 1.395 . S
C482 C481 1.379 . S
C482 H499 0.930 . S
C483 O466 1.264 . S
C483 O467 1.254 . S
C484 Eu420 2.848 . S
C484 O464 1.257 . S
C484 O469 1.249 . S
C484 C477 1.492 . S
C485 H450 0.931 . S
C485 C463 1.420 . S
C485 C486 1.351 . S
C486 H448 0.930 . S
C486 C454 1.423 . S
C486 C485 1.351 . S
C487 O471 1.276 . S
C487 O474 1.235 . S
C488 C489 1.393 . S
C488 C492 1.395 . S
C488 C495 1.492 . S
C489 C488 1.393 . S
C489 C490 1.392 . S
C489 H500 0.930 . S
C490 C489 1.392 . S
C490 C491 1.386 . S
C491 C490 1.386 . S
C491 C493 1.395 . S
C491 H501 0.930 . S
C492 C488 1.395 . S
C492 C493 1.379 . S
C492 H502 0.930 . S
C493 C491 1.395 . S
C493 C492 1.379 . S
C493 H503 0.930 . S
C494 O472 1.264 . S
C494 O473 1.254 . S
C495 Eu431 2.848 . S
C495 O470 1.257 . S
C495 O475 1.249 . S
C495 C488 1.492 . S
H496 C479 0.930 . S
H497 C480 0.930 . S
H498 C481 0.930 . S
H499 C482 0.930 . S
H500 C489 0.930 . S
H501 C491 0.930 . S
H502 C492 0.930 . S
H503 C493 0.930 . S
Eu504 N535 2.657 . S
Eu504 N542 2.609 . S
Eu504 O548 2.558 . S
Eu504 O549 2.612 . S
Eu504 O551 2.339 . S
Eu504 O552 2.563 . S
Eu504 O553 2.419 . S
Eu504 O555 2.380 . S
Eu504 O556 2.432 . S
Eu504 C568 2.848 . S
C505 C508 1.429 . S
C505 C509 1.411 . S
C505 N512 1.377 . S
C506 C508 1.420 . S
C506 C510 1.423 . S
C506 C518 1.392 . S
C507 C509 1.420 . S
C507 C510 1.351 . S
C507 H530 0.931 . S
C508 C505 1.429 . S
C508 C506 1.420 . S
C508 N516 1.362 . S
C509 C505 1.411 . S
C509 C507 1.420 . S
C509 C514 1.395 . S
C510 C506 1.423 . S
C510 C507 1.351 . S
C510 H522 0.930 . S
C511 C513 1.400 . S
C511 C514 1.386 . S
C511 H523 0.930 . S
N512 C505 1.377 . S
N512 C513 1.321 . S
N512 Eu515 2.609 . S
C513 C511 1.400 . S
C513 N512 1.321 . S
C513 H520 0.930 . S
C514 C509 1.395 . S
C514 C511 1.386 . S
C514 H533 0.930 . S
Eu515 N512 2.609 . S
Eu515 N516 2.657 . S
Eu515 O549 2.380 . S
Eu515 O550 2.432 . S
Eu515 O554 2.558 . S
Eu515 O555 2.612 . S
Eu515 O557 2.339 . S
Eu515 O558 2.563 . S
Eu515 O559 2.419 . S
Eu515 C579 2.848 . S
N516 C508 1.362 . S
N516 Eu515 2.657 . S
N516 C517 1.334 . S
C517 N516 1.334 . S
C517 C519 1.413 . S
C517 H524 0.929 . S
C518 C506 1.392 . S
C518 C519 1.367 . S
C518 H526 0.930 . S
C519 C517 1.413 . S
C519 C518 1.367 . S
C519 H521 0.930 . S
H520 C513 0.930 . S
H521 C519 0.930 . S
H522 C510 0.930 . S
H523 C511 0.930 . S
H524 C517 0.929 . S
H525 C539 0.930 . S
H526 C518 0.930 . S
H527 C545 0.930 . S
H528 C536 0.929 . S
H529 C543 0.930 . S
H530 C507 0.931 . S
H531 C537 0.930 . S
H532 C570 0.930 . S
H533 C514 0.930 . S
H534 C569 0.931 . S
N535 Eu504 2.657 . S
N535 C536 1.334 . S
N535 C540 1.362 . S
C536 H528 0.929 . S
C536 N535 1.334 . S
C536 C539 1.413 . S
C537 H531 0.930 . S
C537 C538 1.392 . S
C537 C539 1.367 . S
C538 C537 1.392 . S
C538 C540 1.420 . S
C538 C570 1.423 . S
C539 H525 0.930 . S
C539 C536 1.413 . S
C539 C537 1.367 . S
C540 N535 1.362 . S
C540 C538 1.420 . S
C540 C544 1.429 . S
H541 C546 0.930 . S
N542 Eu504 2.609 . S
N542 C544 1.377 . S
N542 C545 1.321 . S
C543 H529 0.930 . S
C543 C545 1.400 . S
C543 C546 1.386 . S
C544 C540 1.429 . S
C544 N542 1.377 . S
C544 C547 1.411 . S
C545 H527 0.930 . S
C545 N542 1.321 . S
C545 C543 1.400 . S
C546 H541 0.930 . S
C546 C543 1.386 . S
C546 C547 1.395 . S
C547 C544 1.411 . S
C547 C546 1.395 . S
C547 C569 1.420 . S
O548 Eu504 2.558 . S
O548 C568 1.257 . S
O549 Eu504 2.612 . S
O549 Eu515 2.380 . S
O549 C560 1.276 . S
O550 Eu515 2.432 . S
O550 C567 1.264 . S
O551 Eu504 2.339 . S
O551 C567 1.254 . S
O552 Eu504 2.563 . S
O552 C560 1.235 . S
O553 Eu504 2.419 . S
O553 C568 1.249 . S
O554 Eu515 2.558 . S
O554 C579 1.257 . S
O555 Eu504 2.380 . S
O555 Eu515 2.612 . S
O555 C571 1.276 . S
O556 Eu504 2.432 . S
O556 C578 1.264 . S
O557 Eu515 2.339 . S
O557 C578 1.254 . S
O558 Eu515 2.563 . S
O558 C571 1.235 . S
O559 Eu515 2.419 . S
O559 C579 1.249 . S
C560 O549 1.276 . S
C560 O552 1.235 . S
C561 C563 1.393 . S
C561 C565 1.395 . S
C561 C568 1.492 . S
C562 C563 1.392 . S
C562 C564 1.386 . S
C563 C561 1.393 . S
C563 C562 1.392 . S
C563 H580 0.930 . S
C564 C562 1.386 . S
C564 C566 1.395 . S
C564 H581 0.930 . S
C565 C561 1.395 . S
C565 C566 1.379 . S
C565 H582 0.930 . S
C566 C564 1.395 . S
C566 C565 1.379 . S
C566 H583 0.930 . S
C567 O550 1.264 . S
C567 O551 1.254 . S
C568 Eu504 2.848 . S
C568 O548 1.257 . S
C568 O553 1.249 . S
C568 C561 1.492 . S
C569 H534 0.931 . S
C569 C547 1.420 . S
C569 C570 1.351 . S
C570 H532 0.930 . S
C570 C538 1.423 . S
C570 C569 1.351 . S
C571 O555 1.276 . S
C571 O558 1.235 . S
C572 C573 1.393 . S
C572 C576 1.395 . S
C572 C579 1.492 . S
C573 C572 1.393 . S
C573 C574 1.392 . S
C573 H584 0.930 . S
C574 C573 1.392 . S
C574 C575 1.386 . S
C575 C574 1.386 . S
C575 C577 1.395 . S
C575 H585 0.930 . S
C576 C572 1.395 . S
C576 C577 1.379 . S
C576 H586 0.930 . S
C577 C575 1.395 . S
C577 C576 1.379 . S
C577 H587 0.930 . S
C578 O556 1.264 . S
C578 O557 1.254 . S
C579 Eu515 2.848 . S
C579 O554 1.257 . S
C579 O559 1.249 . S
C579 C572 1.492 . S
H580 C563 0.930 . S
H581 C564 0.930 . S
H582 C565 0.930 . S
H583 C566 0.930 . S
H584 C573 0.930 . S
H585 C575 0.930 . S
H586 C576 0.930 . S
H587 C577 0.930 . S
Eu588 N619 2.657 . S
Eu588 N626 2.609 . S
Eu588 O632 2.558 . S
Eu588 O633 2.612 . S
Eu588 O635 2.339 . S
Eu588 O636 2.563 . S
Eu588 O637 2.419 . S
Eu588 O639 2.380 . S
Eu588 O640 2.432 . S
Eu588 C652 2.848 . S
C589 C592 1.429 . S
C589 C593 1.411 . S
C589 N596 1.377 . S
C590 C592 1.420 . S
C590 C594 1.423 . S
C590 C602 1.392 . S
C591 C593 1.420 . S
C591 C594 1.351 . S
C591 H614 0.931 . S
C592 C589 1.429 . S
C592 C590 1.420 . S
C592 N600 1.362 . S
C593 C589 1.411 . S
C593 C591 1.420 . S
C593 C598 1.395 . S
C594 C590 1.423 . S
C594 C591 1.351 . S
C594 H606 0.930 . S
C595 C597 1.400 . S
C595 C598 1.386 . S
C595 H607 0.930 . S
N596 C589 1.377 . S
N596 C597 1.321 . S
N596 Eu599 2.609 . S
C597 C595 1.400 . S
C597 N596 1.321 . S
C597 H604 0.930 . S
C598 C593 1.395 . S
C598 C595 1.386 . S
C598 H617 0.930 . S
Eu599 N596 2.609 . S
Eu599 N600 2.657 . S
Eu599 O633 2.380 . S
Eu599 O634 2.432 . S
Eu599 O638 2.558 . S
Eu599 O639 2.612 . S
Eu599 O641 2.339 . S
Eu599 O642 2.563 . S
Eu599 O643 2.419 . S
Eu599 C663 2.848 . S
N600 C592 1.362 . S
N600 Eu599 2.657 . S
N600 C601 1.334 . S
C601 N600 1.334 . S
C601 C603 1.413 . S
C601 H608 0.929 . S
C602 C590 1.392 . S
C602 C603 1.367 . S
C602 H610 0.930 . S
C603 C601 1.413 . S
C603 C602 1.367 . S
C603 H605 0.930 . S
H604 C597 0.930 . S
H605 C603 0.930 . S
H606 C594 0.930 . S
H607 C595 0.930 . S
H608 C601 0.929 . S
H609 C623 0.930 . S
H610 C602 0.930 . S
H611 C629 0.930 . S
H612 C620 0.929 . S
H613 C627 0.930 . S
H614 C591 0.931 . S
H615 C621 0.930 . S
H616 C654 0.930 . S
H617 C598 0.930 . S
H618 C653 0.931 . S
N619 Eu588 2.657 . S
N619 C620 1.334 . S
N619 C624 1.362 . S
C620 H612 0.929 . S
C620 N619 1.334 . S
C620 C623 1.413 . S
C621 H615 0.930 . S
C621 C622 1.392 . S
C621 C623 1.367 . S
C622 C621 1.392 . S
C622 C624 1.420 . S
C622 C654 1.423 . S
C623 H609 0.930 . S
C623 C620 1.413 . S
C623 C621 1.367 . S
C624 N619 1.362 . S
C624 C622 1.420 . S
C624 C628 1.429 . S
H625 C630 0.930 . S
N626 Eu588 2.609 . S
N626 C628 1.377 . S
N626 C629 1.321 . S
C627 H613 0.930 . S
C627 C629 1.400 . S
C627 C630 1.386 . S
C628 C624 1.429 . S
C628 N626 1.377 . S
C628 C631 1.411 . S
C629 H611 0.930 . S
C629 N626 1.321 . S
C629 C627 1.400 . S
C630 H625 0.930 . S
C630 C627 1.386 . S
C630 C631 1.395 . S
C631 C628 1.411 . S
C631 C630 1.395 . S
C631 C653 1.420 . S
O632 Eu588 2.558 . S
O632 C652 1.257 . S
O633 Eu588 2.612 . S
O633 Eu599 2.380 . S
O633 C644 1.276 . S
O634 Eu599 2.432 . S
O634 C651 1.264 . S
O635 Eu588 2.339 . S
O635 C651 1.254 . S
O636 Eu588 2.563 . S
O636 C644 1.235 . S
O637 Eu588 2.419 . S
O637 C652 1.249 . S
O638 Eu599 2.558 . S
O638 C663 1.257 . S
O639 Eu588 2.380 . S
O639 Eu599 2.612 . S
O639 C655 1.276 . S
O640 Eu588 2.432 . S
O640 C662 1.264 . S
O641 Eu599 2.339 . S
O641 C662 1.254 . S
O642 Eu599 2.563 . S
O642 C655 1.235 . S
O643 Eu599 2.419 . S
O643 C663 1.249 . S
C644 O633 1.276 . S
C644 O636 1.235 . S
C645 C647 1.393 . S
C645 C649 1.395 . S
C645 C652 1.492 . S
C646 C647 1.392 . S
C646 C648 1.386 . S
C647 C645 1.393 . S
C647 C646 1.392 . S
C647 H664 0.930 . S
C648 C646 1.386 . S
C648 C650 1.395 . S
C648 H665 0.930 . S
C649 C645 1.395 . S
C649 C650 1.379 . S
C649 H666 0.930 . S
C650 C648 1.395 . S
C650 C649 1.379 . S
C650 H667 0.930 . S
C651 O634 1.264 . S
C651 O635 1.254 . S
C652 Eu588 2.848 . S
C652 O632 1.257 . S
C652 O637 1.249 . S
C652 C645 1.492 . S
C653 H618 0.931 . S
C653 C631 1.420 . S
C653 C654 1.351 . S
C654 H616 0.930 . S
C654 C622 1.423 . S
C654 C653 1.351 . S
C655 O639 1.276 . S
C655 O642 1.235 . S
C656 C657 1.393 . S
C656 C660 1.395 . S
C656 C663 1.492 . S
C657 C656 1.393 . S
C657 C658 1.392 . S
C657 H668 0.930 . S
C658 C657 1.392 . S
C658 C659 1.386 . S
C659 C658 1.386 . S
C659 C661 1.395 . S
C659 H669 0.930 . S
C660 C656 1.395 . S
C660 C661 1.379 . S
C660 H670 0.930 . S
C661 C659 1.395 . S
C661 C660 1.379 . S
C661 H671 0.930 . S
C662 O640 1.264 . S
C662 O641 1.254 . S
C663 Eu599 2.848 . S
C663 O638 1.257 . S
C663 O643 1.249 . S
C663 C656 1.492 . S
H664 C647 0.930 . S
H665 C648 0.930 . S
H666 C649 0.930 . S
H667 C650 0.930 . S
H668 C657 0.930 . S
H669 C659 0.930 . S
H670 C660 0.930 . S
H671 C661 0.930 . S
C672 O684 1.241 . S
C672 O685 1.280 . S
C673 O686 1.277 . S
C673 O687 1.245 . S
C674 O698 1.247 . S
C674 O700 1.289 . S
Mg675 O676 1.926 . S
Mg675 O685 1.984 . S
Mg675 O687 1.988 . S
Mg675 O688 2.061 1_655 S
O676 Mg675 1.926 . S
O676 Mg677 1.986 1_545 S
O676 Mg678 1.900 1_655 S
Mg677 O676 1.986 1_565 S
Mg677 O684 2.042 1_565 S
Mg677 O686 2.041 1_565 S
Mg677 O692 2.038 . S
Mg677 O700 2.238 . S
Mg678 O676 1.900 1_455 S
Mg678 O679 1.934 1_545 S
Mg678 O689 2.125 . S
Mg678 O691 2.070 1_445 S
Mg678 O700 2.088 1_445 S
Mg678 O701 2.088 . S
O679 Mg678 1.934 1_565 S
O679 Mg680 1.926 . S
O679 Mg681 1.986 1_565 S
Mg680 O679 1.926 . S
Mg680 O694 1.984 . S
Mg680 O697 1.988 . S
Mg680 O698 2.061 1_455 S
Mg681 O679 1.986 1_545 S
Mg681 O689 2.238 . S
Mg681 O693 2.042 1_545 S
Mg681 O695 2.041 1_545 S
Mg681 O702 2.038 . S
C682 O688 1.247 . S
C682 O689 1.289 . S
C683 O701 1.245 . S
C683 O702 1.274 . S
O684 C672 1.241 . S
O684 Mg677 2.042 1_545 S
O685 C672 1.280 . S
O685 Mg675 1.984 . S
O686 C673 1.277 . S
O686 Mg677 2.041 1_545 S
O687 C673 1.245 . S
O687 Mg675 1.988 . S
O688 Mg675 2.061 1_455 S
O688 C682 1.247 . S
O689 Mg678 2.125 . S
O689 Mg681 2.238 . S
O689 C682 1.289 . S
C690 O691 1.245 . S
C690 O692 1.274 . S
O691 Mg678 2.070 1_665 S
O691 C690 1.245 . S
O692 Mg677 2.038 . S
O692 C690 1.274 . S
O693 Mg681 2.042 1_565 S
O693 C696 1.241 . S
O694 Mg680 1.984 . S
O694 C696 1.280 . S
O695 Mg681 2.041 1_565 S
O695 C699 1.277 . S
C696 O693 1.241 . S
C696 O694 1.280 . S
O697 Mg680 1.988 . S
O697 C699 1.245 . S
O698 C674 1.247 . S
O698 Mg680 2.061 1_655 S
C699 O695 1.277 . S
C699 O697 1.245 . S
O700 C674 1.289 . S
O700 Mg677 2.238 . S
O700 Mg678 2.088 1_665 S
O701 Mg678 2.088 . S
O701 C683 1.245 . S
O702 Mg681 2.038 . S
O702 C683 1.274 . S
C703 O715 1.241 . S
C703 O716 1.280 . S
C704 O717 1.277 . S
C704 O718 1.245 . S
C705 O729 1.247 . S
C705 O731 1.289 . S
Mg706 O707 1.926 . S
Mg706 O716 1.984 . S
Mg706 O718 1.988 1_554 S
Mg706 O719 2.061 . S
O707 Mg706 1.926 . S
O707 Mg708 1.986 1_544 S
O707 Mg709 1.923 . S
Mg708 O707 1.986 1_566 S
Mg708 O715 2.042 1_566 S
Mg708 O717 2.041 1_565 S
Mg708 O723 2.038 1_556 S
Mg708 O731 2.238 . S
Mg709 O707 1.923 . S
Mg709 O710 1.911 1_544 S
Mg709 O720 2.109 . S
Mg709 O722 2.079 1_545 S
Mg709 O731 2.104 1_544 S
Mg709 O732 2.078 1_554 S
O710 Mg709 1.911 1_566 S
O710 Mg711 1.926 . S
O710 Mg712 1.986 1_566 S
Mg711 O710 1.926 . S
Mg711 O725 1.984 . S
Mg711 O728 1.988 1_556 S
Mg711 O729 2.061 . S
Mg712 O710 1.986 1_544 S
Mg712 O720 2.238 . S
Mg712 O724 2.042 1_544 S
Mg712 O726 2.041 1_545 S
Mg712 O733 2.038 1_554 S
C713 O719 1.247 . S
C713 O720 1.289 . S
C714 O732 1.245 . S
C714 O733 1.274 . S
O715 C703 1.241 . S
O715 Mg708 2.042 1_544 S
O716 C703 1.280 . S
O716 Mg706 1.984 . S
O717 C704 1.277 . S
O717 Mg708 2.041 1_545 S
O718 C704 1.245 . S
O718 Mg706 1.988 1_556 S
O719 Mg706 2.061 . S
O719 C713 1.247 . S
O720 Mg709 2.109 . S
O720 Mg712 2.238 . S
O720 C713 1.289 . S
C721 O722 1.245 . S
C721 O723 1.274 . S
O722 Mg709 2.079 1_565 S
O722 C721 1.245 . S
O723 Mg708 2.038 1_554 S
O723 C721 1.274 . S
O724 Mg712 2.042 1_566 S
O724 C727 1.241 . S
O725 Mg711 1.984 . S
O725 C727 1.280 . S
O726 Mg712 2.041 1_565 S
O726 C730 1.277 . S
C727 O724 1.241 . S
C727 O725 1.280 . S
O728 Mg711 1.988 1_554 S
O728 C730 1.245 . S
O729 C705 1.247 . S
O729 Mg711 2.061 . S
C730 O726 1.277 . S
C730 O728 1.245 . S
O731 C705 1.289 . S
O731 Mg708 2.238 . S
O731 Mg709 2.104 1_566 S
O732 Mg709 2.078 1_556 S
O732 C714 1.245 . S
O733 Mg712 2.038 1_556 S
O733 C714 1.274 . S
C734 O746 1.241 . S
C734 O747 1.280 . S
C735 O748 1.277 . S
C735 O749 1.245 . S
C736 O760 1.247 . S
C736 O762 1.289 . S
Mg737 O738 1.926 . S
Mg737 O747 1.984 . S
Mg737 O749 1.988 1_554 S
Mg737 O750 2.061 1_655 S
O738 Mg737 1.926 . S
O738 Mg739 1.986 1_554 S
O738 Mg740 1.895 1_655 S
Mg739 O738 1.986 1_556 S
Mg739 O746 2.042 1_556 S
Mg739 O748 2.041 . S
Mg739 O754 2.038 1_556 S
Mg739 O762 2.238 . S
Mg740 O738 1.895 1_455 S
Mg740 O741 1.939 1_554 S
Mg740 O751 2.125 . S
Mg740 O753 2.075 1_455 S
Mg740 O762 2.088 1_454 S
Mg740 O763 2.082 1_554 S
O741 Mg740 1.939 1_556 S
O741 Mg742 1.926 . S
O741 Mg743 1.986 1_556 S
Mg742 O741 1.926 . S
Mg742 O756 1.984 . S
Mg742 O759 1.988 1_556 S
Mg742 O760 2.061 1_455 S
Mg743 O741 1.986 1_554 S
Mg743 O751 2.238 . S
Mg743 O755 2.042 1_554 S
Mg743 O757 2.041 . S
Mg743 O764 2.038 1_554 S
C744 O750 1.247 . S
C744 O751 1.289 . S
C745 O763 1.245 . S
C745 O764 1.274 . S
O746 C734 1.241 . S
O746 Mg739 2.042 1_554 S
O747 C734 1.280 . S
O747 Mg737 1.984 . S
O748 C735 1.277 . S
O748 Mg739 2.041 . S
O749 C735 1.245 . S
O749 Mg737 1.988 1_556 S
O750 Mg737 2.061 1_455 S
O750 C744 1.247 . S
O751 Mg740 2.125 . S
O751 Mg743 2.238 . S
O751 C744 1.289 . S
C752 O753 1.245 . S
C752 O754 1.274 . S
O753 Mg740 2.075 1_655 S
O753 C752 1.245 . S
O754 Mg739 2.038 1_554 S
O754 C752 1.274 . S
O755 Mg743 2.042 1_556 S
O755 C758 1.241 . S
O756 Mg742 1.984 . S
O756 C758 1.280 . S
O757 Mg743 2.041 . S
O757 C761 1.277 . S
C758 O755 1.241 . S
C758 O756 1.280 . S
O759 Mg742 1.988 1_554 S
O759 C761 1.245 . S
O760 C736 1.247 . S
O760 Mg742 2.061 1_655 S
C761 O757 1.277 . S
C761 O759 1.245 . S
O762 C736 1.289 . S
O762 Mg739 2.238 . S
O762 Mg740 2.088 1_656 S
O763 Mg740 2.082 1_556 S
O763 C745 1.245 . S
O764 Mg743 2.038 1_556 S
O764 C745 1.274 . S
C765 O777 1.241 . S
C765 O778 1.280 . S
C766 O779 1.277 . S
C766 O780 1.245 . S
C767 O791 1.247 . S
C767 O793 1.289 . S
Mg768 O769 1.926 . S
Mg768 O778 1.984 . S
Mg768 O780 1.988 1_554 S
Mg768 O781 2.061 . S
O769 Mg768 1.926 . S
O769 Mg770 1.986 1_554 S
O769 Mg771 1.918 . S
Mg770 O769 1.986 1_556 S
Mg770 O777 2.042 1_556 S
Mg770 O779 2.041 . S
Mg770 O785 2.038 1_556 S
Mg770 O793 2.238 . S
Mg771 O769 1.918 . S
Mg771 O772 1.916 1_554 S
Mg771 O782 2.108 . S
Mg771 O784 2.081 . S
Mg771 O793 2.105 1_554 S
Mg771 O794 2.076 1_554 S
O772 Mg771 1.916 1_556 S
O772 Mg773 1.926 . S
O772 Mg774 1.986 1_556 S
Mg773 O772 1.926 . S
Mg773 O787 1.984 . S
Mg773 O790 1.988 1_556 S
Mg773 O791 2.061 . S
Mg774 O772 1.986 1_554 S
Mg774 O782 2.238 . S
Mg774 O786 2.042 1_554 S
Mg774 O788 2.041 . S
Mg774 O795 2.038 1_554 S
C775 O781 1.247 . S
C775 O782 1.289 . S
C776 O794 1.245 . S
C776 O795 1.274 . S
O777 C765 1.241 . S
O777 Mg770 2.042 1_554 S
O778 C765 1.280 . S
O778 Mg768 1.984 . S
O779 C766 1.277 . S
O779 Mg770 2.041 . S
O780 C766 1.245 . S
O780 Mg768 1.988 1_556 S
O781 Mg768 2.061 . S
O781 C775 1.247 . S
O782 Mg771 2.108 . S
O782 Mg774 2.238 . S
O782 C775 1.289 . S
C783 O784 1.245 . S
C783 O785 1.274 . S
O784 Mg771 2.081 . S
O784 C783 1.245 . S
O785 Mg770 2.038 1_554 S
O785 C783 1.274 . S
O786 Mg774 2.042 1_556 S
O786 C789 1.241 . S
O787 Mg773 1.984 . S
O787 C789 1.280 . S
O788 Mg774 2.041 . S
O788 C792 1.277 . S
C789 O786 1.241 . S
C789 O787 1.280 . S
O790 Mg773 1.988 1_554 S
O790 C792 1.245 . S
O791 C767 1.247 . S
O791 Mg773 2.061 . S
C792 O788 1.277 . S
C792 O790 1.245 . S
O793 C767 1.289 . S
O793 Mg770 2.238 . S
O793 Mg771 2.105 1_556 S
O794 Mg771 2.076 1_556 S
O794 C776 1.245 . S
O795 Mg774 2.038 1_556 S
O795 C776 1.274 . S
C796 O808 1.241 . S
C796 O809 1.280 . S
C797 O810 1.277 . S
C797 O811 1.245 . S
C798 O822 1.247 . S
C798 O824 1.289 . S
Mg799 O800 1.926 . S
Mg799 O809 1.984 . S
Mg799 O811 1.988 . S
Mg799 O812 2.061 1_655 S
O800 Mg799 1.926 . S
O800 Mg801 1.986 . S
O800 Mg802 1.894 1_655 S
Mg801 O800 1.986 . S
Mg801 O808 2.042 . S
Mg801 O810 2.041 . S
Mg801 O816 2.038 . S
Mg801 O824 2.238 . S
Mg802 O800 1.894 1_455 S
Mg802 O803 1.940 . S
Mg802 O813 2.124 . S
Mg802 O815 2.073 1_455 S
Mg802 O824 2.089 1_455 S
Mg802 O825 2.085 . S
O803 Mg802 1.940 . S
O803 Mg804 1.926 . S
O803 Mg805 1.986 . S
Mg804 O803 1.926 . S
Mg804 O818 1.984 . S
Mg804 O821 1.988 . S
Mg804 O822 2.061 1_455 S
Mg805 O803 1.986 . S
Mg805 O813 2.238 . S
Mg805 O817 2.042 . S
Mg805 O819 2.041 . S
Mg805 O826 2.038 . S
C806 O812 1.247 . S
C806 O813 1.289 . S
C807 O825 1.245 . S
C807 O826 1.274 . S
O808 C796 1.241 . S
O808 Mg801 2.042 . S
O809 C796 1.280 . S
O809 Mg799 1.984 . S
O810 C797 1.277 . S
O810 Mg801 2.041 . S
O811 C797 1.245 . S
O811 Mg799 1.988 . S
O812 Mg799 2.061 1_455 S
O812 C806 1.247 . S
O813 Mg802 2.124 . S
O813 Mg805 2.238 . S
O813 C806 1.289 . S
C814 O815 1.245 . S
C814 O816 1.274 . S
O815 Mg802 2.073 1_655 S
O815 C814 1.245 . S
O816 Mg801 2.038 . S
O816 C814 1.274 . S
O817 Mg805 2.042 . S
O817 C820 1.241 . S
O818 Mg804 1.984 . S
O818 C820 1.280 . S
O819 Mg805 2.041 . S
O819 C823 1.277 . S
C820 O817 1.241 . S
C820 O818 1.280 . S
O821 Mg804 1.988 . S
O821 C823 1.245 . S
O822 C798 1.247 . S
O822 Mg804 2.061 1_655 S
C823 O819 1.277 . S
C823 O821 1.245 . S
O824 C798 1.289 . S
O824 Mg801 2.238 . S
O824 Mg802 2.089 1_655 S
O825 Mg802 2.085 . S
O825 C807 1.245 . S
O826 Mg805 2.038 . S
O826 C807 1.274 . S
C827 O839 1.241 . S
C827 O840 1.280 . S
C828 O841 1.277 . S
C828 O842 1.245 . S
C829 O853 1.247 . S
C829 O855 1.289 . S
Mg830 O831 1.926 . S
Mg830 O840 1.984 . S
Mg830 O842 1.988 . S
Mg830 O843 2.061 . S
O831 Mg830 1.926 . S
O831 Mg832 1.986 1_545 S
O831 Mg833 1.922 . S
Mg832 O831 1.986 1_565 S
Mg832 O839 2.042 1_565 S
Mg832 O841 2.041 1_565 S
Mg832 O847 2.038 . S
Mg832 O855 2.238 . S
Mg833 O831 1.922 . S
Mg833 O834 1.912 1_545 S
Mg833 O844 2.107 . S
Mg833 O846 2.076 1_545 S
Mg833 O855 2.105 1_545 S
Mg833 O856 2.081 . S
O834 Mg833 1.912 1_565 S
O834 Mg835 1.926 . S
O834 Mg836 1.986 1_565 S
Mg835 O834 1.926 . S
Mg835 O849 1.984 . S
Mg835 O852 1.988 . S
Mg835 O853 2.061 . S
Mg836 O834 1.986 1_545 S
Mg836 O844 2.238 . S
Mg836 O848 2.042 1_545 S
Mg836 O850 2.041 1_545 S
Mg836 O857 2.038 . S
C837 O843 1.247 . S
C837 O844 1.289 . S
C838 O856 1.245 . S
C838 O857 1.274 . S
O839 C827 1.241 . S
O839 Mg832 2.042 1_545 S
O840 C827 1.280 . S
O840 Mg830 1.984 . S
O841 C828 1.277 . S
O841 Mg832 2.041 1_545 S
O842 C828 1.245 . S
O842 Mg830 1.988 . S
O843 Mg830 2.061 . S
O843 C837 1.247 . S
O844 Mg833 2.107 . S
O844 Mg836 2.238 . S
O844 C837 1.289 . S
C845 O846 1.245 . S
C845 O847 1.274 . S
O846 Mg833 2.076 1_565 S
O846 C845 1.245 . S
O847 Mg832 2.038 . S
O847 C845 1.274 . S
O848 Mg836 2.042 1_565 S
O848 C851 1.241 . S
O849 Mg835 1.984 . S
O849 C851 1.280 . S
O850 Mg836 2.041 1_565 S
O850 C854 1.277 . S
C851 O848 1.241 . S
C851 O849 1.280 . S
O852 Mg835 1.988 . S
O852 C854 1.245 . S
O853 C829 1.247 . S
O853 Mg835 2.061 . S
C854 O850 1.277 . S
C854 O852 1.245 . S
O855 C829 1.289 . S
O855 Mg832 2.238 . S
O855 Mg833 2.105 1_565 S
O856 Mg833 2.081 . S
O856 C838 1.245 . S
O857 Mg836 2.038 . S
O857 C838 1.274 . S
C858 C859 1.391 . S
C858 C860 1.394 . S
C858 H874 0.931 . S
C859 C858 1.391 . S
C859 C863 1.376 . S
C860 C858 1.394 . S
C860 C861 1.369 . S
C860 C864 1.531 . S
C861 C860 1.369 . S
C861 C862 1.410 . S
C861 C869 1.503 . S
C862 C861 1.410 . S
C862 C863 1.392 . S
C862 C865 1.511 . S
C863 C859 1.376 . S
C863 C862 1.392 . S
C863 H875 0.929 . S
C864 C860 1.531 . S
C864 H876 0.960 . S
C864 H877 0.962 . S
C864 H878 0.960 . S
C865 C862 1.511 . S
C865 H879 0.961 . S
C865 H880 0.961 . S
C865 H881 0.961 . S
C866 C867 1.370 . S
C866 C868 1.363 . S
C866 H882 0.931 . S
C867 C866 1.370 . S
C867 C871 1.408 . S
C868 C866 1.363 . S
C868 C869 1.370 . S
C868 C872 1.524 . S
C869 C861 1.503 . S
C869 C868 1.370 . S
C869 C870 1.403 . S
C870 C869 1.403 . S
C870 C871 1.404 . S
C870 C873 1.539 . S
C871 C867 1.408 . S
C871 C870 1.404 . S
C871 H883 0.930 . S
C872 C868 1.524 . S
C872 H884 0.956 . S
C872 H885 0.961 . S
C872 H886 0.961 . S
C873 C870 1.539 . S
C873 H887 0.958 . S
C873 H888 0.961 . S
C873 H889 0.960 . S
H874 C858 0.931 . S
H875 C863 0.929 . S
H876 C864 0.960 . S
H877 C864 0.962 . S
H878 C864 0.960 . S
H879 C865 0.961 . S
H880 C865 0.961 . S
H881 C865 0.961 . S
H882 C866 0.931 . S
H883 C871 0.930 . S
H884 C872 0.956 . S
H885 C872 0.961 . S
H886 C872 0.961 . S
H887 C873 0.958 . S
H888 C873 0.961 . S
H889 C873 0.960 . S
C890 C891 1.391 . S
C890 C892 1.394 . S
C890 H906 0.931 . S
C891 C890 1.391 . S
C891 C895 1.376 . S
C892 C890 1.394 . S
C892 C893 1.369 . S
C892 C896 1.531 . S
C893 C892 1.369 . S
C893 C894 1.410 . S
C893 C901 1.503 . S
C894 C893 1.410 . S
C894 C895 1.392 . S
C894 C897 1.511 . S
C895 C891 1.376 . S
C895 C894 1.392 . S
C895 H907 0.929 . S
C896 C892 1.531 . S
C896 H908 0.960 . S
C896 H909 0.962 . S
C896 H910 0.960 . S
C897 C894 1.511 . S
C897 H911 0.961 . S
C897 H912 0.961 . S
C897 H913 0.961 . S
C898 C899 1.370 . S
C898 C900 1.363 . S
C898 H914 0.931 . S
C899 C898 1.370 . S
C899 C903 1.408 . S
C900 C898 1.363 . S
C900 C901 1.370 . S
C900 C904 1.524 . S
C901 C893 1.503 . S
C901 C900 1.370 . S
C901 C902 1.403 . S
C902 C901 1.403 . S
C902 C903 1.404 . S
C902 C905 1.539 . S
C903 C899 1.408 . S
C903 C902 1.404 . S
C903 H915 0.930 . S
C904 C900 1.524 . S
C904 H916 0.956 . S
C904 H917 0.961 . S
C904 H918 0.961 . S
C905 C902 1.539 . S
C905 H919 0.958 . S
C905 H920 0.961 . S
C905 H921 0.960 . S
H906 C890 0.931 . S
H907 C895 0.929 . S
H908 C896 0.960 . S
H909 C896 0.962 . S
H910 C896 0.960 . S
H911 C897 0.961 . S
H912 C897 0.961 . S
H913 C897 0.961 . S
H914 C898 0.931 . S
H915 C903 0.930 . S
H916 C904 0.956 . S
H917 C904 0.961 . S
H918 C904 0.961 . S
H919 C905 0.958 . S
H920 C905 0.961 . S
H921 C905 0.960 . S
C922 C923 1.391 . S
C922 C924 1.394 . S
C922 H938 0.931 . S
C923 C922 1.391 . S
C923 C927 1.376 . S
C924 C922 1.394 . S
C924 C925 1.369 . S
C924 C928 1.531 . S
C925 C924 1.369 . S
C925 C926 1.410 . S
C925 C933 1.503 . S
C926 C925 1.410 . S
C926 C927 1.392 . S
C926 C929 1.511 . S
C927 C923 1.376 . S
C927 C926 1.392 . S
C927 H939 0.929 . S
C928 C924 1.531 . S
C928 H940 0.960 . S
C928 H941 0.962 . S
C928 H942 0.960 . S
C929 C926 1.511 . S
C929 H943 0.961 . S
C929 H944 0.961 . S
C929 H945 0.961 . S
C930 C931 1.370 . S
C930 C932 1.363 . S
C930 H946 0.931 . S
C931 C930 1.370 . S
C931 C935 1.408 . S
C932 C930 1.363 . S
C932 C933 1.370 . S
C932 C936 1.524 . S
C933 C925 1.503 . S
C933 C932 1.370 . S
C933 C934 1.403 . S
C934 C933 1.403 . S
C934 C935 1.404 . S
C934 C937 1.539 . S
C935 C931 1.408 . S
C935 C934 1.404 . S
C935 H947 0.930 . S
C936 C932 1.524 . S
C936 H948 0.956 . S
C936 H949 0.961 . S
C936 H950 0.961 . S
C937 C934 1.539 . S
C937 H951 0.958 . S
C937 H952 0.961 . S
C937 H953 0.960 . S
H938 C922 0.931 . S
H939 C927 0.929 . S
H940 C928 0.960 . S
H941 C928 0.962 . S
H942 C928 0.960 . S
H943 C929 0.961 . S
H944 C929 0.961 . S
H945 C929 0.961 . S
H946 C930 0.931 . S
H947 C935 0.930 . S
H948 C936 0.956 . S
H949 C936 0.961 . S
H950 C936 0.961 . S
H951 C937 0.958 . S
H952 C937 0.961 . S
H953 C937 0.960 . S
C954 C955 1.391 . S
C954 C956 1.394 . S
C954 H970 0.931 . S
C955 C954 1.391 . S
C955 C959 1.376 . S
C956 C954 1.394 . S
C956 C957 1.369 . S
C956 C960 1.531 . S
C957 C956 1.369 . S
C957 C958 1.410 . S
C957 C965 1.503 . S
C958 C957 1.410 . S
C958 C959 1.392 . S
C958 C961 1.511 . S
C959 C955 1.376 . S
C959 C958 1.392 . S
C959 H971 0.929 . S
C960 C956 1.531 . S
C960 H972 0.960 . S
C960 H973 0.962 . S
C960 H974 0.960 . S
C961 C958 1.511 . S
C961 H975 0.961 . S
C961 H976 0.961 . S
C961 H977 0.961 . S
C962 C963 1.370 . S
C962 C964 1.363 . S
C962 H978 0.931 . S
C963 C962 1.370 . S
C963 C967 1.408 . S
C964 C962 1.363 . S
C964 C965 1.370 . S
C964 C968 1.524 . S
C965 C957 1.503 . S
C965 C964 1.370 . S
C965 C966 1.403 . S
C966 C965 1.403 . S
C966 C967 1.404 . S
C966 C969 1.539 . S
C967 C963 1.408 . S
C967 C966 1.404 . S
C967 H979 0.930 . S
C968 C964 1.524 . S
C968 H980 0.956 . S
C968 H981 0.961 . S
C968 H982 0.961 . S
C969 C966 1.539 . S
C969 H983 0.958 . S
C969 H984 0.961 . S
C969 H985 0.960 . S
H970 C954 0.931 . S
H971 C959 0.929 . S
H972 C960 0.960 . S
H973 C960 0.962 . S
H974 C960 0.960 . S
H975 C961 0.961 . S
H976 C961 0.961 . S
H977 C961 0.961 . S
H978 C962 0.931 . S
H979 C967 0.930 . S
H980 C968 0.956 . S
H981 C968 0.961 . S
H982 C968 0.961 . S
H983 C969 0.958 . S
H984 C969 0.961 . S
H985 C969 0.960 . S
C986 C987 1.391 . S
C986 C988 1.394 . S
C986 H1002 0.931 . S
C987 C986 1.391 . S
C987 C991 1.376 . S
C988 C986 1.394 . S
C988 C989 1.369 . S
C988 C992 1.531 . S
C989 C988 1.369 . S
C989 C990 1.410 . S
C989 C997 1.503 . S
C990 C989 1.410 . S
C990 C991 1.392 . S
C990 C993 1.511 . S
C991 C987 1.376 . S
C991 C990 1.392 . S
C991 H1003 0.929 . S
C992 C988 1.531 . S
C992 H1004 0.960 . S
C992 H1005 0.962 . S
C992 H1006 0.960 . S
C993 C990 1.511 . S
C993 H1007 0.961 . S
C993 H1008 0.961 . S
C993 H1009 0.961 . S
C994 C995 1.370 . S
C994 C996 1.363 . S
C994 H1010 0.931 . S
C995 C994 1.370 . S
C995 C999 1.408 . S
C996 C994 1.363 . S
C996 C997 1.370 . S
C996 C1000 1.524 . S
C997 C989 1.503 . S
C997 C996 1.370 . S
C997 C998 1.403 . S
C998 C997 1.403 . S
C998 C999 1.404 . S
C998 C1001 1.539 . S
C999 C995 1.408 . S
C999 C998 1.404 . S
C999 H1011 0.930 . S
C1000 C996 1.524 . S
C1000 H1012 0.956 . S
C1000 H1013 0.961 . S
C1000 H1014 0.961 . S
C1001 C998 1.539 . S
C1001 H1015 0.958 . S
C1001 H1016 0.961 . S
C1001 H1017 0.960 . S
H1002 C986 0.931 . S
H1003 C991 0.929 . S
H1004 C992 0.960 . S
H1005 C992 0.962 . S
H1006 C992 0.960 . S
H1007 C993 0.961 . S
H1008 C993 0.961 . S
H1009 C993 0.961 . S
H1010 C994 0.931 . S
H1011 C999 0.930 . S
H1012 C1000 0.956 . S
H1013 C1000 0.961 . S
H1014 C1000 0.961 . S
H1015 C1001 0.958 . S
H1016 C1001 0.961 . S
H1017 C1001 0.960 . S
C1018 C1019 1.391 . S
C1018 C1020 1.394 . S
C1018 H1034 0.931 . S
C1019 C1018 1.391 . S
C1019 C1023 1.376 . S
C1020 C1018 1.394 . S
C1020 C1021 1.369 . S
C1020 C1024 1.531 . S
C1021 C1020 1.369 . S
C1021 C1022 1.410 . S
C1021 C1029 1.503 . S
C1022 C1021 1.410 . S
C1022 C1023 1.392 . S
C1022 C1025 1.511 . S
C1023 C1019 1.376 . S
C1023 C1022 1.392 . S
C1023 H1035 0.929 . S
C1024 C1020 1.531 . S
C1024 H1036 0.960 . S
C1024 H1037 0.962 . S
C1024 H1038 0.960 . S
C1025 C1022 1.511 . S
C1025 H1039 0.961 . S
C1025 H1040 0.961 . S
C1025 H1041 0.961 . S
C1026 C1027 1.370 . S
C1026 C1028 1.363 . S
C1026 H1042 0.931 . S
C1027 C1026 1.370 . S
C1027 C1031 1.408 . S
C1028 C1026 1.363 . S
C1028 C1029 1.370 . S
C1028 C1032 1.524 . S
C1029 C1021 1.503 . S
C1029 C1028 1.370 . S
C1029 C1030 1.403 . S
C1030 C1029 1.403 . S
C1030 C1031 1.404 . S
C1030 C1033 1.539 . S
C1031 C1027 1.408 . S
C1031 C1030 1.404 . S
C1031 H1043 0.930 . S
C1032 C1028 1.524 . S
C1032 H1044 0.956 . S
C1032 H1045 0.961 . S
C1032 H1046 0.961 . S
C1033 C1030 1.539 . S
C1033 H1047 0.958 . S
C1033 H1048 0.961 . S
C1033 H1049 0.960 . S
H1034 C1018 0.931 . S
H1035 C1023 0.929 . S
H1036 C1024 0.960 . S
H1037 C1024 0.962 . S
H1038 C1024 0.960 . S
H1039 C1025 0.961 . S
H1040 C1025 0.961 . S
H1041 C1025 0.961 . S
H1042 C1026 0.931 . S
H1043 C1031 0.930 . S
H1044 C1032 0.956 . S
H1045 C1032 0.961 . S
H1046 C1032 0.961 . S
H1047 C1033 0.958 . S
H1048 C1033 0.961 . S
H1049 C1033 0.960 . S
C1050 C1051 1.391 . S
C1050 C1052 1.394 . S
C1050 H1066 0.931 . S
C1051 C1050 1.391 . S
C1051 C1055 1.376 . S
C1052 C1050 1.394 . S
C1052 C1053 1.369 . S
C1052 C1056 1.531 . S
C1053 C1052 1.369 . S
C1053 C1054 1.410 . S
C1053 C1061 1.503 . S
C1054 C1053 1.410 . S
C1054 C1055 1.392 . S
C1054 C1057 1.511 . S
C1055 C1051 1.376 . S
C1055 C1054 1.392 . S
C1055 H1067 0.929 . S
C1056 C1052 1.531 . S
C1056 H1068 0.960 . S
C1056 H1069 0.962 . S
C1056 H1070 0.960 . S
C1057 C1054 1.511 . S
C1057 H1071 0.961 . S
C1057 H1072 0.961 . S
C1057 H1073 0.961 . S
C1058 C1059 1.370 . S
C1058 C1060 1.363 . S
C1058 H1074 0.931 . S
C1059 C1058 1.370 . S
C1059 C1063 1.408 . S
C1060 C1058 1.363 . S
C1060 C1061 1.370 . S
C1060 C1064 1.524 . S
C1061 C1053 1.503 . S
C1061 C1060 1.370 . S
C1061 C1062 1.403 . S
C1062 C1061 1.403 . S
C1062 C1063 1.404 . S
C1062 C1065 1.539 . S
C1063 C1059 1.408 . S
C1063 C1062 1.404 . S
C1063 H1075 0.930 . S
C1064 C1060 1.524 . S
C1064 H1076 0.956 . S
C1064 H1077 0.961 . S
C1064 H1078 0.961 . S
C1065 C1062 1.539 . S
C1065 H1079 0.958 . S
C1065 H1080 0.961 . S
C1065 H1081 0.960 . S
H1066 C1050 0.931 . S
H1067 C1055 0.929 . S
H1068 C1056 0.960 . S
H1069 C1056 0.962 . S
H1070 C1056 0.960 . S
H1071 C1057 0.961 . S
H1072 C1057 0.961 . S
H1073 C1057 0.961 . S
H1074 C1058 0.931 . S
H1075 C1063 0.930 . S
H1076 C1064 0.956 . S
H1077 C1064 0.961 . S
H1078 C1064 0.961 . S
H1079 C1065 0.958 . S
H1080 C1065 0.961 . S
H1081 C1065 0.960 . S
C1082 C1083 1.391 . S
C1082 C1084 1.394 . S
C1082 H1098 0.931 . S
C1083 C1082 1.391 . S
C1083 C1087 1.376 . S
C1084 C1082 1.394 . S
C1084 C1085 1.369 . S
C1084 C1088 1.531 . S
C1085 C1084 1.369 . S
C1085 C1086 1.410 . S
C1085 C1093 1.503 . S
C1086 C1085 1.410 . S
C1086 C1087 1.392 . S
C1086 C1089 1.511 . S
C1087 C1083 1.376 . S
C1087 C1086 1.392 . S
C1087 H1099 0.929 . S
C1088 C1084 1.531 . S
C1088 H1100 0.960 . S
C1088 H1101 0.962 . S
C1088 H1102 0.960 . S
C1089 C1086 1.511 . S
C1089 H1103 0.961 . S
C1089 H1104 0.961 . S
C1089 H1105 0.961 . S
C1090 C1091 1.370 . S
C1090 C1092 1.363 . S
C1090 H1106 0.931 . S
C1091 C1090 1.370 . S
C1091 C1095 1.408 . S
C1092 C1090 1.363 . S
C1092 C1093 1.370 . S
C1092 C1096 1.524 . S
C1093 C1085 1.503 . S
C1093 C1092 1.370 . S
C1093 C1094 1.403 . S
C1094 C1093 1.403 . S
C1094 C1095 1.404 . S
C1094 C1097 1.539 . S
C1095 C1091 1.408 . S
C1095 C1094 1.404 . S
C1095 H1107 0.930 . S
C1096 C1092 1.524 . S
C1096 H1108 0.956 . S
C1096 H1109 0.961 . S
C1096 H1110 0.961 . S
C1097 C1094 1.539 . S
C1097 H1111 0.958 . S
C1097 H1112 0.961 . S
C1097 H1113 0.960 . S
H1098 C1082 0.931 . S
H1099 C1087 0.929 . S
H1100 C1088 0.960 . S
H1101 C1088 0.962 . S
H1102 C1088 0.960 . S
H1103 C1089 0.961 . S
H1104 C1089 0.961 . S
H1105 C1089 0.961 . S
H1106 C1090 0.931 . S
H1107 C1095 0.930 . S
H1108 C1096 0.956 . S
H1109 C1096 0.961 . S
H1110 C1096 0.961 . S
H1111 C1097 0.958 . S
H1112 C1097 0.961 . S
H1113 C1097 0.960 . S
C1114 C1115 1.391 . S
C1114 C1116 1.394 . S
C1114 H1130 0.931 . S
C1115 C1114 1.391 . S
C1115 C1119 1.376 . S
C1116 C1114 1.394 . S
C1116 C1117 1.369 . S
C1116 C1120 1.531 . S
C1117 C1116 1.369 . S
C1117 C1118 1.410 . S
C1117 C1125 1.503 . S
C1118 C1117 1.410 . S
C1118 C1119 1.392 . S
C1118 C1121 1.511 . S
C1119 C1115 1.376 . S
C1119 C1118 1.392 . S
C1119 H1131 0.929 . S
C1120 C1116 1.531 . S
C1120 H1132 0.960 . S
C1120 H1133 0.962 . S
C1120 H1134 0.960 . S
C1121 C1118 1.511 . S
C1121 H1135 0.961 . S
C1121 H1136 0.961 . S
C1121 H1137 0.961 . S
C1122 C1123 1.370 . S
C1122 C1124 1.363 . S
C1122 H1138 0.931 . S
C1123 C1122 1.370 . S
C1123 C1127 1.408 . S
C1124 C1122 1.363 . S
C1124 C1125 1.370 . S
C1124 C1128 1.524 . S
C1125 C1117 1.503 . S
C1125 C1124 1.370 . S
C1125 C1126 1.403 . S
C1126 C1125 1.403 . S
C1126 C1127 1.404 . S
C1126 C1129 1.539 . S
C1127 C1123 1.408 . S
C1127 C1126 1.404 . S
C1127 H1139 0.930 . S
C1128 C1124 1.524 . S
C1128 H1140 0.956 . S
C1128 H1141 0.961 . S
C1128 H1142 0.961 . S
C1129 C1126 1.539 . S
C1129 H1143 0.958 . S
C1129 H1144 0.961 . S
C1129 H1145 0.960 . S
H1130 C1114 0.931 . S
H1131 C1119 0.929 . S
H1132 C1120 0.960 . S
H1133 C1120 0.962 . S
H1134 C1120 0.960 . S
H1135 C1121 0.961 . S
H1136 C1121 0.961 . S
H1137 C1121 0.961 . S
H1138 C1122 0.931 . S
H1139 C1127 0.930 . S
H1140 C1128 0.956 . S
H1141 C1128 0.961 . S
H1142 C1128 0.961 . S
H1143 C1129 0.958 . S
H1144 C1129 0.961 . S
H1145 C1129 0.960 . S
C1146 C1147 1.391 . S
C1146 C1148 1.394 . S
C1146 H1162 0.931 . S
C1147 C1146 1.391 . S
C1147 C1151 1.376 . S
C1148 C1146 1.394 . S
C1148 C1149 1.369 . S
C1148 C1152 1.531 . S
C1149 C1148 1.369 . S
C1149 C1150 1.410 . S
C1149 C1157 1.503 . S
C1150 C1149 1.410 . S
C1150 C1151 1.392 . S
C1150 C1153 1.511 . S
C1151 C1147 1.376 . S
C1151 C1150 1.392 . S
C1151 H1163 0.929 . S
C1152 C1148 1.531 . S
C1152 H1164 0.960 . S
C1152 H1165 0.962 . S
C1152 H1166 0.960 . S
C1153 C1150 1.511 . S
C1153 H1167 0.961 . S
C1153 H1168 0.961 . S
C1153 H1169 0.961 . S
C1154 C1155 1.370 . S
C1154 C1156 1.363 . S
C1154 H1170 0.931 . S
C1155 C1154 1.370 . S
C1155 C1159 1.408 . S
C1156 C1154 1.363 . S
C1156 C1157 1.370 . S
C1156 C1160 1.524 . S
C1157 C1149 1.503 . S
C1157 C1156 1.370 . S
C1157 C1158 1.403 . S
C1158 C1157 1.403 . S
C1158 C1159 1.404 . S
C1158 C1161 1.539 . S
C1159 C1155 1.408 . S
C1159 C1158 1.404 . S
C1159 H1171 0.930 . S
C1160 C1156 1.524 . S
C1160 H1172 0.956 . S
C1160 H1173 0.961 . S
C1160 H1174 0.961 . S
C1161 C1158 1.539 . S
C1161 H1175 0.958 . S
C1161 H1176 0.961 . S
C1161 H1177 0.960 . S
H1162 C1146 0.931 . S
H1163 C1151 0.929 . S
H1164 C1152 0.960 . S
H1165 C1152 0.962 . S
H1166 C1152 0.960 . S
H1167 C1153 0.961 . S
H1168 C1153 0.961 . S
H1169 C1153 0.961 . S
H1170 C1154 0.931 . S
H1171 C1159 0.930 . S
H1172 C1160 0.956 . S
H1173 C1160 0.961 . S
H1174 C1160 0.961 . S
H1175 C1161 0.958 . S
H1176 C1161 0.961 . S
H1177 C1161 0.960 . S
C1178 C1179 1.391 . S
C1178 C1180 1.394 . S
C1178 H1194 0.931 . S
C1179 C1178 1.391 . S
C1179 C1183 1.376 . S
C1180 C1178 1.394 . S
C1180 C1181 1.369 . S
C1180 C1184 1.531 . S
C1181 C1180 1.369 . S
C1181 C1182 1.410 . S
C1181 C1189 1.503 . S
C1182 C1181 1.410 . S
C1182 C1183 1.392 . S
C1182 C1185 1.511 . S
C1183 C1179 1.376 . S
C1183 C1182 1.392 . S
C1183 H1195 0.929 . S
C1184 C1180 1.531 . S
C1184 H1196 0.960 . S
C1184 H1197 0.962 . S
C1184 H1198 0.960 . S
C1185 C1182 1.511 . S
C1185 H1199 0.961 . S
C1185 H1200 0.961 . S
C1185 H1201 0.961 . S
C1186 C1187 1.370 . S
C1186 C1188 1.363 . S
C1186 H1202 0.931 . S
C1187 C1186 1.370 . S
C1187 C1191 1.408 . S
C1188 C1186 1.363 . S
C1188 C1189 1.370 . S
C1188 C1192 1.524 . S
C1189 C1181 1.503 . S
C1189 C1188 1.370 . S
C1189 C1190 1.403 . S
C1190 C1189 1.403 . S
C1190 C1191 1.404 . S
C1190 C1193 1.539 . S
C1191 C1187 1.408 . S
C1191 C1190 1.404 . S
C1191 H1203 0.930 . S
C1192 C1188 1.524 . S
C1192 H1204 0.956 . S
C1192 H1205 0.961 . S
C1192 H1206 0.961 . S
C1193 C1190 1.539 . S
C1193 H1207 0.958 . S
C1193 H1208 0.961 . S
C1193 H1209 0.960 . S
H1194 C1178 0.931 . S
H1195 C1183 0.929 . S
H1196 C1184 0.960 . S
H1197 C1184 0.962 . S
H1198 C1184 0.960 . S
H1199 C1185 0.961 . S
H1200 C1185 0.961 . S
H1201 C1185 0.961 . S
H1202 C1186 0.931 . S
H1203 C1191 0.930 . S
H1204 C1192 0.956 . S
H1205 C1192 0.961 . S
H1206 C1192 0.961 . S
H1207 C1193 0.958 . S
H1208 C1193 0.961 . S
H1209 C1193 0.960 . S
C1210 C1211 1.391 . S
C1210 C1212 1.394 . S
C1210 H1226 0.931 . S
C1211 C1210 1.391 . S
C1211 C1215 1.376 . S
C1212 C1210 1.394 . S
C1212 C1213 1.369 . S
C1212 C1216 1.531 . S
C1213 C1212 1.369 . S
C1213 C1214 1.410 . S
C1213 C1221 1.503 . S
C1214 C1213 1.410 . S
C1214 C1215 1.392 . S
C1214 C1217 1.511 . S
C1215 C1211 1.376 . S
C1215 C1214 1.392 . S
C1215 H1227 0.929 . S
C1216 C1212 1.531 . S
C1216 H1228 0.960 . S
C1216 H1229 0.962 . S
C1216 H1230 0.960 . S
C1217 C1214 1.511 . S
C1217 H1231 0.961 . S
C1217 H1232 0.961 . S
C1217 H1233 0.961 . S
C1218 C1219 1.370 . S
C1218 C1220 1.363 . S
C1218 H1234 0.931 . S
C1219 C1218 1.370 . S
C1219 C1223 1.408 . S
C1220 C1218 1.363 . S
C1220 C1221 1.370 . S
C1220 C1224 1.524 . S
C1221 C1213 1.503 . S
C1221 C1220 1.370 . S
C1221 C1222 1.403 . S
C1222 C1221 1.403 . S
C1222 C1223 1.404 . S
C1222 C1225 1.539 . S
C1223 C1219 1.408 . S
C1223 C1222 1.404 . S
C1223 H1235 0.930 . S
C1224 C1220 1.524 . S
C1224 H1236 0.956 . S
C1224 H1237 0.961 . S
C1224 H1238 0.961 . S
C1225 C1222 1.539 . S
C1225 H1239 0.958 . S
C1225 H1240 0.961 . S
C1225 H1241 0.960 . S
H1226 C1210 0.931 . S
H1227 C1215 0.929 . S
H1228 C1216 0.960 . S
H1229 C1216 0.962 . S
H1230 C1216 0.960 . S
H1231 C1217 0.961 . S
H1232 C1217 0.961 . S
H1233 C1217 0.961 . S
H1234 C1218 0.931 . S
H1235 C1223 0.930 . S
H1236 C1224 0.956 . S
H1237 C1224 0.961 . S
H1238 C1224 0.961 . S
H1239 C1225 0.958 . S
H1240 C1225 0.961 . S
H1241 C1225 0.960 . S
C1242 C1243 1.391 . S
C1242 C1244 1.394 . S
C1242 H1258 0.931 . S
C1243 C1242 1.391 . S
C1243 C1247 1.376 . S
C1244 C1242 1.394 . S
C1244 C1245 1.369 . S
C1244 C1248 1.531 . S
C1245 C1244 1.369 . S
C1245 C1246 1.410 . S
C1245 C1253 1.503 . S
C1246 C1245 1.410 . S
C1246 C1247 1.392 . S
C1246 C1249 1.511 . S
C1247 C1243 1.376 . S
C1247 C1246 1.392 . S
C1247 H1259 0.929 . S
C1248 C1244 1.531 . S
C1248 H1260 0.960 . S
C1248 H1261 0.962 . S
C1248 H1262 0.960 . S
C1249 C1246 1.511 . S
C1249 H1263 0.961 . S
C1249 H1264 0.961 . S
C1249 H1265 0.961 . S
C1250 C1251 1.370 . S
C1250 C1252 1.363 . S
C1250 H1266 0.931 . S
C1251 C1250 1.370 . S
C1251 C1255 1.408 . S
C1252 C1250 1.363 . S
C1252 C1253 1.370 . S
C1252 C1256 1.524 . S
C1253 C1245 1.503 . S
C1253 C1252 1.370 . S
C1253 C1254 1.403 . S
C1254 C1253 1.403 . S
C1254 C1255 1.404 . S
C1254 C1257 1.539 . S
C1255 C1251 1.408 . S
C1255 C1254 1.404 . S
C1255 H1267 0.930 . S
C1256 C1252 1.524 . S
C1256 H1268 0.956 . S
C1256 H1269 0.961 . S
C1256 H1270 0.961 . S
C1257 C1254 1.539 . S
C1257 H1271 0.958 . S
C1257 H1272 0.961 . S
C1257 H1273 0.960 . S
H1258 C1242 0.931 . S
H1259 C1247 0.929 . S
H1260 C1248 0.960 . S
H1261 C1248 0.962 . S
H1262 C1248 0.960 . S
H1263 C1249 0.961 . S
H1264 C1249 0.961 . S
H1265 C1249 0.961 . S
H1266 C1250 0.931 . S
H1267 C1255 0.930 . S
H1268 C1256 0.956 . S
H1269 C1256 0.961 . S
H1270 C1256 0.961 . S
H1271 C1257 0.958 . S
H1272 C1257 0.961 . S
H1273 C1257 0.960 . S
C1274 C1275 1.391 . S
C1274 C1276 1.394 . S
C1274 H1290 0.931 . S
C1275 C1274 1.391 . S
C1275 C1279 1.376 . S
C1276 C1274 1.394 . S
C1276 C1277 1.369 . S
C1276 C1280 1.531 . S
C1277 C1276 1.369 . S
C1277 C1278 1.410 . S
C1277 C1285 1.503 . S
C1278 C1277 1.410 . S
C1278 C1279 1.392 . S
C1278 C1281 1.511 . S
C1279 C1275 1.376 . S
C1279 C1278 1.392 . S
C1279 H1291 0.929 . S
C1280 C1276 1.531 . S
C1280 H1292 0.960 . S
C1280 H1293 0.962 . S
C1280 H1294 0.960 . S
C1281 C1278 1.511 . S
C1281 H1295 0.961 . S
C1281 H1296 0.961 . S
C1281 H1297 0.961 . S
C1282 C1283 1.370 . S
C1282 C1284 1.363 . S
C1282 H1298 0.931 . S
C1283 C1282 1.370 . S
C1283 C1287 1.408 . S
C1284 C1282 1.363 . S
C1284 C1285 1.370 . S
C1284 C1288 1.524 . S
C1285 C1277 1.503 . S
C1285 C1284 1.370 . S
C1285 C1286 1.403 . S
C1286 C1285 1.403 . S
C1286 C1287 1.404 . S
C1286 C1289 1.539 . S
C1287 C1283 1.408 . S
C1287 C1286 1.404 . S
C1287 H1299 0.930 . S
C1288 C1284 1.524 . S
C1288 H1300 0.956 . S
C1288 H1301 0.961 . S
C1288 H1302 0.961 . S
C1289 C1286 1.539 . S
C1289 H1303 0.958 . S
C1289 H1304 0.961 . S
C1289 H1305 0.960 . S
H1290 C1274 0.931 . S
H1291 C1279 0.929 . S
H1292 C1280 0.960 . S
H1293 C1280 0.962 . S
H1294 C1280 0.960 . S
H1295 C1281 0.961 . S
H1296 C1281 0.961 . S
H1297 C1281 0.961 . S
H1298 C1282 0.931 . S
H1299 C1287 0.930 . S
H1300 C1288 0.956 . S
H1301 C1288 0.961 . S
H1302 C1288 0.961 . S
H1303 C1289 0.958 . S
H1304 C1289 0.961 . S
H1305 C1289 0.960 . S
C1306 C1307 1.391 . S
C1306 C1308 1.394 . S
C1306 H1322 0.931 . S
C1307 C1306 1.391 . S
C1307 C1311 1.376 . S
C1308 C1306 1.394 . S
C1308 C1309 1.369 . S
C1308 C1312 1.531 . S
C1309 C1308 1.369 . S
C1309 C1310 1.410 . S
C1309 C1317 1.503 . S
C1310 C1309 1.410 . S
C1310 C1311 1.392 . S
C1310 C1313 1.511 . S
C1311 C1307 1.376 . S
C1311 C1310 1.392 . S
C1311 H1323 0.929 . S
C1312 C1308 1.531 . S
C1312 H1324 0.960 . S
C1312 H1325 0.962 . S
C1312 H1326 0.960 . S
C1313 C1310 1.511 . S
C1313 H1327 0.961 . S
C1313 H1328 0.961 . S
C1313 H1329 0.961 . S
C1314 C1315 1.370 . S
C1314 C1316 1.363 . S
C1314 H1330 0.931 . S
C1315 C1314 1.370 . S
C1315 C1319 1.408 . S
C1316 C1314 1.363 . S
C1316 C1317 1.370 . S
C1316 C1320 1.524 . S
C1317 C1309 1.503 . S
C1317 C1316 1.370 . S
C1317 C1318 1.403 . S
C1318 C1317 1.403 . S
C1318 C1319 1.404 . S
C1318 C1321 1.539 . S
C1319 C1315 1.408 . S
C1319 C1318 1.404 . S
C1319 H1331 0.930 . S
C1320 C1316 1.524 . S
C1320 H1332 0.956 . S
C1320 H1333 0.961 . S
C1320 H1334 0.961 . S
C1321 C1318 1.539 . S
C1321 H1335 0.958 . S
C1321 H1336 0.961 . S
C1321 H1337 0.960 . S
H1322 C1306 0.931 . S
H1323 C1311 0.929 . S
H1324 C1312 0.960 . S
H1325 C1312 0.962 . S
H1326 C1312 0.960 . S
H1327 C1313 0.961 . S
H1328 C1313 0.961 . S
H1329 C1313 0.961 . S
H1330 C1314 0.931 . S
H1331 C1319 0.930 . S
H1332 C1320 0.956 . S
H1333 C1320 0.961 . S
H1334 C1320 0.961 . S
H1335 C1321 0.958 . S
H1336 C1321 0.961 . S
H1337 C1321 0.960 . S
C1338 C1339 1.391 . S
C1338 C1340 1.394 . S
C1338 H1354 0.931 . S
C1339 C1338 1.391 . S
C1339 C1343 1.376 . S
C1340 C1338 1.394 . S
C1340 C1341 1.369 . S
C1340 C1344 1.531 . S
C1341 C1340 1.369 . S
C1341 C1342 1.410 . S
C1341 C1349 1.503 . S
C1342 C1341 1.410 . S
C1342 C1343 1.392 . S
C1342 C1345 1.511 . S
C1343 C1339 1.376 . S
C1343 C1342 1.392 . S
C1343 H1355 0.929 . S
C1344 C1340 1.531 . S
C1344 H1356 0.960 . S
C1344 H1357 0.962 . S
C1344 H1358 0.960 . S
C1345 C1342 1.511 . S
C1345 H1359 0.961 . S
C1345 H1360 0.961 . S
C1345 H1361 0.961 . S
C1346 C1347 1.370 . S
C1346 C1348 1.363 . S
C1346 H1362 0.931 . S
C1347 C1346 1.370 . S
C1347 C1351 1.408 . S
C1348 C1346 1.363 . S
C1348 C1349 1.370 . S
C1348 C1352 1.524 . S
C1349 C1341 1.503 . S
C1349 C1348 1.370 . S
C1349 C1350 1.403 . S
C1350 C1349 1.403 . S
C1350 C1351 1.404 . S
C1350 C1353 1.539 . S
C1351 C1347 1.408 . S
C1351 C1350 1.404 . S
C1351 H1363 0.930 . S
C1352 C1348 1.524 . S
C1352 H1364 0.956 . S
C1352 H1365 0.961 . S
C1352 H1366 0.961 . S
C1353 C1350 1.539 . S
C1353 H1367 0.958 . S
C1353 H1368 0.961 . S
C1353 H1369 0.960 . S
H1354 C1338 0.931 . S
H1355 C1343 0.929 . S
H1356 C1344 0.960 . S
H1357 C1344 0.962 . S
H1358 C1344 0.960 . S
H1359 C1345 0.961 . S
H1360 C1345 0.961 . S
H1361 C1345 0.961 . S
H1362 C1346 0.931 . S
H1363 C1351 0.930 . S
H1364 C1352 0.956 . S
H1365 C1352 0.961 . S
H1366 C1352 0.961 . S
H1367 C1353 0.958 . S
H1368 C1353 0.961 . S
H1369 C1353 0.960 . S
C1370 C1371 1.391 . S
C1370 C1372 1.394 . S
C1370 H1386 0.931 . S
C1371 C1370 1.391 . S
C1371 C1375 1.376 . S
C1372 C1370 1.394 . S
C1372 C1373 1.369 . S
C1372 C1376 1.531 . S
C1373 C1372 1.369 . S
C1373 C1374 1.410 . S
C1373 C1381 1.503 . S
C1374 C1373 1.410 . S
C1374 C1375 1.392 . S
C1374 C1377 1.511 . S
C1375 C1371 1.376 . S
C1375 C1374 1.392 . S
C1375 H1387 0.929 . S
C1376 C1372 1.531 . S
C1376 H1388 0.960 . S
C1376 H1389 0.962 . S
C1376 H1390 0.960 . S
C1377 C1374 1.511 . S
C1377 H1391 0.961 . S
C1377 H1392 0.961 . S
C1377 H1393 0.961 . S
C1378 C1379 1.370 . S
C1378 C1380 1.363 . S
C1378 H1394 0.931 . S
C1379 C1378 1.370 . S
C1379 C1383 1.408 . S
C1380 C1378 1.363 . S
C1380 C1381 1.370 . S
C1380 C1384 1.524 . S
C1381 C1373 1.503 . S
C1381 C1380 1.370 . S
C1381 C1382 1.403 . S
C1382 C1381 1.403 . S
C1382 C1383 1.404 . S
C1382 C1385 1.539 . S
C1383 C1379 1.408 . S
C1383 C1382 1.404 . S
C1383 H1395 0.930 . S
C1384 C1380 1.524 . S
C1384 H1396 0.956 . S
C1384 H1397 0.961 . S
C1384 H1398 0.961 . S
C1385 C1382 1.539 . S
C1385 H1399 0.958 . S
C1385 H1400 0.961 . S
C1385 H1401 0.960 . S
H1386 C1370 0.931 . S
H1387 C1375 0.929 . S
H1388 C1376 0.960 . S
H1389 C1376 0.962 . S
H1390 C1376 0.960 . S
H1391 C1377 0.961 . S
H1392 C1377 0.961 . S
H1393 C1377 0.961 . S
H1394 C1378 0.931 . S
H1395 C1383 0.930 . S
H1396 C1384 0.956 . S
H1397 C1384 0.961 . S
H1398 C1384 0.961 . S
H1399 C1385 0.958 . S
H1400 C1385 0.961 . S
H1401 C1385 0.960 . S
C1402 C1403 1.391 . S
C1402 C1404 1.394 . S
C1402 H1418 0.931 . S
C1403 C1402 1.391 . S
C1403 C1407 1.376 . S
C1404 C1402 1.394 . S
C1404 C1405 1.369 . S
C1404 C1408 1.531 . S
C1405 C1404 1.369 . S
C1405 C1406 1.410 . S
C1405 C1413 1.503 . S
C1406 C1405 1.410 . S
C1406 C1407 1.392 . S
C1406 C1409 1.511 . S
C1407 C1403 1.376 . S
C1407 C1406 1.392 . S
C1407 H1419 0.929 . S
C1408 C1404 1.531 . S
C1408 H1420 0.960 . S
C1408 H1421 0.962 . S
C1408 H1422 0.960 . S
C1409 C1406 1.511 . S
C1409 H1423 0.961 . S
C1409 H1424 0.961 . S
C1409 H1425 0.961 . S
C1410 C1411 1.370 . S
C1410 C1412 1.363 . S
C1410 H1426 0.931 . S
C1411 C1410 1.370 . S
C1411 C1415 1.408 . S
C1412 C1410 1.363 . S
C1412 C1413 1.370 . S
C1412 C1416 1.524 . S
C1413 C1405 1.503 . S
C1413 C1412 1.370 . S
C1413 C1414 1.403 . S
C1414 C1413 1.403 . S
C1414 C1415 1.404 . S
C1414 C1417 1.539 . S
C1415 C1411 1.408 . S
C1415 C1414 1.404 . S
C1415 H1427 0.930 . S
C1416 C1412 1.524 . S
C1416 H1428 0.956 . S
C1416 H1429 0.961 . S
C1416 H1430 0.961 . S
C1417 C1414 1.539 . S
C1417 H1431 0.958 . S
C1417 H1432 0.961 . S
C1417 H1433 0.960 . S
H1418 C1402 0.931 . S
H1419 C1407 0.929 . S
H1420 C1408 0.960 . S
H1421 C1408 0.962 . S
H1422 C1408 0.960 . S
H1423 C1409 0.961 . S
H1424 C1409 0.961 . S
H1425 C1409 0.961 . S
H1426 C1410 0.931 . S
H1427 C1415 0.930 . S
H1428 C1416 0.956 . S
H1429 C1416 0.961 . S
H1430 C1416 0.961 . S
H1431 C1417 0.958 . S
H1432 C1417 0.961 . S
H1433 C1417 0.960 . S
C1434 C1435 1.391 . S
C1434 C1436 1.394 . S
C1434 H1450 0.931 . S
C1435 C1434 1.391 . S
C1435 C1439 1.376 . S
C1436 C1434 1.394 . S
C1436 C1437 1.369 . S
C1436 C1440 1.531 . S
C1437 C1436 1.369 . S
C1437 C1438 1.410 . S
C1437 C1445 1.503 . S
C1438 C1437 1.410 . S
C1438 C1439 1.392 . S
C1438 C1441 1.511 . S
C1439 C1435 1.376 . S
C1439 C1438 1.392 . S
C1439 H1451 0.929 . S
C1440 C1436 1.531 . S
C1440 H1452 0.960 . S
C1440 H1453 0.962 . S
C1440 H1454 0.960 . S
C1441 C1438 1.511 . S
C1441 H1455 0.961 . S
C1441 H1456 0.961 . S
C1441 H1457 0.961 . S
C1442 C1443 1.370 . S
C1442 C1444 1.363 . S
C1442 H1458 0.931 . S
C1443 C1442 1.370 . S
C1443 C1447 1.408 . S
C1444 C1442 1.363 . S
C1444 C1445 1.370 . S
C1444 C1448 1.524 . S
C1445 C1437 1.503 . S
C1445 C1444 1.370 . S
C1445 C1446 1.403 . S
C1446 C1445 1.403 . S
C1446 C1447 1.404 . S
C1446 C1449 1.539 . S
C1447 C1443 1.408 . S
C1447 C1446 1.404 . S
C1447 H1459 0.930 . S
C1448 C1444 1.524 . S
C1448 H1460 0.956 . S
C1448 H1461 0.961 . S
C1448 H1462 0.961 . S
C1449 C1446 1.539 . S
C1449 H1463 0.958 . S
C1449 H1464 0.961 . S
C1449 H1465 0.960 . S
H1450 C1434 0.931 . S
H1451 C1439 0.929 . S
H1452 C1440 0.960 . S
H1453 C1440 0.962 . S
H1454 C1440 0.960 . S
H1455 C1441 0.961 . S
H1456 C1441 0.961 . S
H1457 C1441 0.961 . S
H1458 C1442 0.931 . S
H1459 C1447 0.930 . S
H1460 C1448 0.956 . S
H1461 C1448 0.961 . S
H1462 C1448 0.961 . S
H1463 C1449 0.958 . S
H1464 C1449 0.961 . S
H1465 C1449 0.960 . S
C1466 C1467 1.391 . S
C1466 C1468 1.394 . S
C1466 H1482 0.931 . S
C1467 C1466 1.391 . S
C1467 C1471 1.376 . S
C1468 C1466 1.394 . S
C1468 C1469 1.369 . S
C1468 C1472 1.531 . S
C1469 C1468 1.369 . S
C1469 C1470 1.410 . S
C1469 C1477 1.503 . S
C1470 C1469 1.410 . S
C1470 C1471 1.392 . S
C1470 C1473 1.511 . S
C1471 C1467 1.376 . S
C1471 C1470 1.392 . S
C1471 H1483 0.929 . S
C1472 C1468 1.531 . S
C1472 H1484 0.960 . S
C1472 H1485 0.962 . S
C1472 H1486 0.960 . S
C1473 C1470 1.511 . S
C1473 H1487 0.961 . S
C1473 H1488 0.961 . S
C1473 H1489 0.961 . S
C1474 C1475 1.370 . S
C1474 C1476 1.363 . S
C1474 H1490 0.931 . S
C1475 C1474 1.370 . S
C1475 C1479 1.408 . S
C1476 C1474 1.363 . S
C1476 C1477 1.370 . S
C1476 C1480 1.524 . S
C1477 C1469 1.503 . S
C1477 C1476 1.370 . S
C1477 C1478 1.403 . S
C1478 C1477 1.403 . S
C1478 C1479 1.404 . S
C1478 C1481 1.539 . S
C1479 C1475 1.408 . S
C1479 C1478 1.404 . S
C1479 H1491 0.930 . S
C1480 C1476 1.524 . S
C1480 H1492 0.956 . S
C1480 H1493 0.961 . S
C1480 H1494 0.961 . S
C1481 C1478 1.539 . S
C1481 H1495 0.958 . S
C1481 H1496 0.961 . S
C1481 H1497 0.960 . S
H1482 C1466 0.931 . S
H1483 C1471 0.929 . S
H1484 C1472 0.960 . S
H1485 C1472 0.962 . S
H1486 C1472 0.960 . S
H1487 C1473 0.961 . S
H1488 C1473 0.961 . S
H1489 C1473 0.961 . S
H1490 C1474 0.931 . S
H1491 C1479 0.930 . S
H1492 C1480 0.956 . S
H1493 C1480 0.961 . S
H1494 C1480 0.961 . S
H1495 C1481 0.958 . S
H1496 C1481 0.961 . S
H1497 C1481 0.960 . S
C1498 C1499 1.391 . S
C1498 C1500 1.394 . S
C1498 H1514 0.931 . S
C1499 C1498 1.391 . S
C1499 C1503 1.376 . S
C1500 C1498 1.394 . S
C1500 C1501 1.369 . S
C1500 C1504 1.531 . S
C1501 C1500 1.369 . S
C1501 C1502 1.410 . S
C1501 C1509 1.503 . S
C1502 C1501 1.410 . S
C1502 C1503 1.392 . S
C1502 C1505 1.511 . S
C1503 C1499 1.376 . S
C1503 C1502 1.392 . S
C1503 H1515 0.929 . S
C1504 C1500 1.531 . S
C1504 H1516 0.960 . S
C1504 H1517 0.962 . S
C1504 H1518 0.960 . S
C1505 C1502 1.511 . S
C1505 H1519 0.961 . S
C1505 H1520 0.961 . S
C1505 H1521 0.961 . S
C1506 C1507 1.370 . S
C1506 C1508 1.363 . S
C1506 H1522 0.931 . S
C1507 C1506 1.370 . S
C1507 C1511 1.408 . S
C1508 C1506 1.363 . S
C1508 C1509 1.370 . S
C1508 C1512 1.524 . S
C1509 C1501 1.503 . S
C1509 C1508 1.370 . S
C1509 C1510 1.403 . S
C1510 C1509 1.403 . S
C1510 C1511 1.404 . S
C1510 C1513 1.539 . S
C1511 C1507 1.408 . S
C1511 C1510 1.404 . S
C1511 H1523 0.930 . S
C1512 C1508 1.524 . S
C1512 H1524 0.956 . S
C1512 H1525 0.961 . S
C1512 H1526 0.961 . S
C1513 C1510 1.539 . S
C1513 H1527 0.958 . S
C1513 H1528 0.961 . S
C1513 H1529 0.960 . S
H1514 C1498 0.931 . S
H1515 C1503 0.929 . S
H1516 C1504 0.960 . S
H1517 C1504 0.962 . S
H1518 C1504 0.960 . S
H1519 C1505 0.961 . S
H1520 C1505 0.961 . S
H1521 C1505 0.961 . S
H1522 C1506 0.931 . S
H1523 C1511 0.930 . S
H1524 C1512 0.956 . S
H1525 C1512 0.961 . S
H1526 C1512 0.961 . S
H1527 C1513 0.958 . S
H1528 C1513 0.961 . S
H1529 C1513 0.960 . S
C1530 C1531 1.391 . S
C1530 C1532 1.394 . S
C1530 H1546 0.931 . S
C1531 C1530 1.391 . S
C1531 C1535 1.376 . S
C1532 C1530 1.394 . S
C1532 C1533 1.369 . S
C1532 C1536 1.531 . S
C1533 C1532 1.369 . S
C1533 C1534 1.410 . S
C1533 C1541 1.503 . S
C1534 C1533 1.410 . S
C1534 C1535 1.392 . S
C1534 C1537 1.511 . S
C1535 C1531 1.376 . S
C1535 C1534 1.392 . S
C1535 H1547 0.929 . S
C1536 C1532 1.531 . S
C1536 H1548 0.960 . S
C1536 H1549 0.962 . S
C1536 H1550 0.960 . S
C1537 C1534 1.511 . S
C1537 H1551 0.961 . S
C1537 H1552 0.961 . S
C1537 H1553 0.961 . S
C1538 C1539 1.370 . S
C1538 C1540 1.363 . S
C1538 H1554 0.931 . S
C1539 C1538 1.370 . S
C1539 C1543 1.408 . S
C1540 C1538 1.363 . S
C1540 C1541 1.370 . S
C1540 C1544 1.524 . S
C1541 C1533 1.503 . S
C1541 C1540 1.370 . S
C1541 C1542 1.403 . S
C1542 C1541 1.403 . S
C1542 C1543 1.404 . S
C1542 C1545 1.539 . S
C1543 C1539 1.408 . S
C1543 C1542 1.404 . S
C1543 H1555 0.930 . S
C1544 C1540 1.524 . S
C1544 H1556 0.956 . S
C1544 H1557 0.961 . S
C1544 H1558 0.961 . S
C1545 C1542 1.539 . S
C1545 H1559 0.958 . S
C1545 H1560 0.961 . S
C1545 H1561 0.960 . S
H1546 C1530 0.931 . S
H1547 C1535 0.929 . S
H1548 C1536 0.960 . S
H1549 C1536 0.962 . S
H1550 C1536 0.960 . S
H1551 C1537 0.961 . S
H1552 C1537 0.961 . S
H1553 C1537 0.961 . S
H1554 C1538 0.931 . S
H1555 C1543 0.930 . S
H1556 C1544 0.956 . S
H1557 C1544 0.961 . S
H1558 C1544 0.961 . S
H1559 C1545 0.958 . S
H1560 C1545 0.961 . S
H1561 C1545 0.960 . S
C1562 C1563 1.391 . S
C1562 C1564 1.394 . S
C1562 H1578 0.931 . S
C1563 C1562 1.391 . S
C1563 C1567 1.376 . S
C1564 C1562 1.394 . S
C1564 C1565 1.369 . S
C1564 C1568 1.531 . S
C1565 C1564 1.369 . S
C1565 C1566 1.410 . S
C1565 C1573 1.503 . S
C1566 C1565 1.410 . S
C1566 C1567 1.392 . S
C1566 C1569 1.511 . S
C1567 C1563 1.376 . S
C1567 C1566 1.392 . S
C1567 H1579 0.929 . S
C1568 C1564 1.531 . S
C1568 H1580 0.960 . S
C1568 H1581 0.962 . S
C1568 H1582 0.960 . S
C1569 C1566 1.511 . S
C1569 H1583 0.961 . S
C1569 H1584 0.961 . S
C1569 H1585 0.961 . S
C1570 C1571 1.370 . S
C1570 C1572 1.363 . S
C1570 H1586 0.931 . S
C1571 C1570 1.370 . S
C1571 C1575 1.408 . S
C1572 C1570 1.363 . S
C1572 C1573 1.370 . S
C1572 C1576 1.524 . S
C1573 C1565 1.503 . S
C1573 C1572 1.370 . S
C1573 C1574 1.403 . S
C1574 C1573 1.403 . S
C1574 C1575 1.404 . S
C1574 C1577 1.539 . S
C1575 C1571 1.408 . S
C1575 C1574 1.404 . S
C1575 H1587 0.930 . S
C1576 C1572 1.524 . S
C1576 H1588 0.956 . S
C1576 H1589 0.961 . S
C1576 H1590 0.961 . S
C1577 C1574 1.539 . S
C1577 H1591 0.958 . S
C1577 H1592 0.961 . S
C1577 H1593 0.960 . S
H1578 C1562 0.931 . S
H1579 C1567 0.929 . S
H1580 C1568 0.960 . S
H1581 C1568 0.962 . S
H1582 C1568 0.960 . S
H1583 C1569 0.961 . S
H1584 C1569 0.961 . S
H1585 C1569 0.961 . S
H1586 C1570 0.931 . S
H1587 C1575 0.930 . S
H1588 C1576 0.956 . S
H1589 C1576 0.961 . S
H1590 C1576 0.961 . S
H1591 C1577 0.958 . S
H1592 C1577 0.961 . S
H1593 C1577 0.960 . S
C1594 C1595 1.391 . S
C1594 C1596 1.394 . S
C1594 H1610 0.931 . S
C1595 C1594 1.391 . S
C1595 C1599 1.376 . S
C1596 C1594 1.394 . S
C1596 C1597 1.369 . S
C1596 C1600 1.531 . S
C1597 C1596 1.369 . S
C1597 C1598 1.410 . S
C1597 C1605 1.503 . S
C1598 C1597 1.410 . S
C1598 C1599 1.392 . S
C1598 C1601 1.511 . S
C1599 C1595 1.376 . S
C1599 C1598 1.392 . S
C1599 H1611 0.929 . S
C1600 C1596 1.531 . S
C1600 H1612 0.960 . S
C1600 H1613 0.962 . S
C1600 H1614 0.960 . S
C1601 C1598 1.511 . S
C1601 H1615 0.961 . S
C1601 H1616 0.961 . S
C1601 H1617 0.961 . S
C1602 C1603 1.370 . S
C1602 C1604 1.363 . S
C1602 H1618 0.931 . S
C1603 C1602 1.370 . S
C1603 C1607 1.408 . S
C1604 C1602 1.363 . S
C1604 C1605 1.370 . S
C1604 C1608 1.524 . S
C1605 C1597 1.503 . S
C1605 C1604 1.370 . S
C1605 C1606 1.403 . S
C1606 C1605 1.403 . S
C1606 C1607 1.404 . S
C1606 C1609 1.539 . S
C1607 C1603 1.408 . S
C1607 C1606 1.404 . S
C1607 H1619 0.930 . S
C1608 C1604 1.524 . S
C1608 H1620 0.956 . S
C1608 H1621 0.961 . S
C1608 H1622 0.961 . S
C1609 C1606 1.539 . S
C1609 H1623 0.958 . S
C1609 H1624 0.961 . S
C1609 H1625 0.960 . S
H1610 C1594 0.931 . S
H1611 C1599 0.929 . S
H1612 C1600 0.960 . S
H1613 C1600 0.962 . S
H1614 C1600 0.960 . S
H1615 C1601 0.961 . S
H1616 C1601 0.961 . S
H1617 C1601 0.961 . S
H1618 C1602 0.931 . S
H1619 C1607 0.930 . S
H1620 C1608 0.956 . S
H1621 C1608 0.961 . S
H1622 C1608 0.961 . S
H1623 C1609 0.958 . S
H1624 C1609 0.961 . S
H1625 C1609 0.960 . S
C1626 C1627 1.391 . S
C1626 C1628 1.394 . S
C1626 H1642 0.931 . S
C1627 C1626 1.391 . S
C1627 C1631 1.376 . S
C1628 C1626 1.394 . S
C1628 C1629 1.369 . S
C1628 C1632 1.531 . S
C1629 C1628 1.369 . S
C1629 C1630 1.410 . S
C1629 C1637 1.503 . S
C1630 C1629 1.410 . S
C1630 C1631 1.392 . S
C1630 C1633 1.511 . S
C1631 C1627 1.376 . S
C1631 C1630 1.392 . S
C1631 H1643 0.929 . S
C1632 C1628 1.531 . S
C1632 H1644 0.960 . S
C1632 H1645 0.962 . S
C1632 H1646 0.960 . S
C1633 C1630 1.511 . S
C1633 H1647 0.961 . S
C1633 H1648 0.961 . S
C1633 H1649 0.961 . S
C1634 C1635 1.370 . S
C1634 C1636 1.363 . S
C1634 H1650 0.931 . S
C1635 C1634 1.370 . S
C1635 C1639 1.408 . S
C1636 C1634 1.363 . S
C1636 C1637 1.370 . S
C1636 C1640 1.524 . S
C1637 C1629 1.503 . S
C1637 C1636 1.370 . S
C1637 C1638 1.403 . S
C1638 C1637 1.403 . S
C1638 C1639 1.404 . S
C1638 C1641 1.539 . S
C1639 C1635 1.408 . S
C1639 C1638 1.404 . S
C1639 H1651 0.930 . S
C1640 C1636 1.524 . S
C1640 H1652 0.956 . S
C1640 H1653 0.961 . S
C1640 H1654 0.961 . S
C1641 C1638 1.539 . S
C1641 H1655 0.958 . S
C1641 H1656 0.961 . S
C1641 H1657 0.960 . S
H1642 C1626 0.931 . S
H1643 C1631 0.929 . S
H1644 C1632 0.960 . S
H1645 C1632 0.962 . S
H1646 C1632 0.960 . S
H1647 C1633 0.961 . S
H1648 C1633 0.961 . S
H1649 C1633 0.961 . S
H1650 C1634 0.931 . S
H1651 C1639 0.930 . S
H1652 C1640 0.956 . S
H1653 C1640 0.961 . S
H1654 C1640 0.961 . S
H1655 C1641 0.958 . S
H1656 C1641 0.961 . S
H1657 C1641 0.960 . S
C1658 C1659 1.391 . S
C1658 C1660 1.394 . S
C1658 H1674 0.931 . S
C1659 C1658 1.391 . S
C1659 C1663 1.376 . S
C1660 C1658 1.394 . S
C1660 C1661 1.369 . S
C1660 C1664 1.531 . S
C1661 C1660 1.369 . S
C1661 C1662 1.410 . S
C1661 C1669 1.503 . S
C1662 C1661 1.410 . S
C1662 C1663 1.392 . S
C1662 C1665 1.511 . S
C1663 C1659 1.376 . S
C1663 C1662 1.392 . S
C1663 H1675 0.929 . S
C1664 C1660 1.531 . S
C1664 H1676 0.960 . S
C1664 H1677 0.962 . S
C1664 H1678 0.960 . S
C1665 C1662 1.511 . S
C1665 H1679 0.961 . S
C1665 H1680 0.961 . S
C1665 H1681 0.961 . S
C1666 C1667 1.370 . S
C1666 C1668 1.363 . S
C1666 H1682 0.931 . S
C1667 C1666 1.370 . S
C1667 C1671 1.408 . S
C1668 C1666 1.363 . S
C1668 C1669 1.370 . S
C1668 C1672 1.524 . S
C1669 C1661 1.503 . S
C1669 C1668 1.370 . S
C1669 C1670 1.403 . S
C1670 C1669 1.403 . S
C1670 C1671 1.404 . S
C1670 C1673 1.539 . S
C1671 C1667 1.408 . S
C1671 C1670 1.404 . S
C1671 H1683 0.930 . S
C1672 C1668 1.524 . S
C1672 H1684 0.956 . S
C1672 H1685 0.961 . S
C1672 H1686 0.961 . S
C1673 C1670 1.539 . S
C1673 H1687 0.958 . S
C1673 H1688 0.961 . S
C1673 H1689 0.960 . S
H1674 C1658 0.931 . S
H1675 C1663 0.929 . S
H1676 C1664 0.960 . S
H1677 C1664 0.962 . S
H1678 C1664 0.960 . S
H1679 C1665 0.961 . S
H1680 C1665 0.961 . S
H1681 C1665 0.961 . S
H1682 C1666 0.931 . S
H1683 C1671 0.930 . S
H1684 C1672 0.956 . S
H1685 C1672 0.961 . S
H1686 C1672 0.961 . S
H1687 C1673 0.958 . S
H1688 C1673 0.961 . S
H1689 C1673 0.960 . S
C1690 C1691 1.391 . S
C1690 C1692 1.394 . S
C1690 H1706 0.931 . S
C1691 C1690 1.391 . S
C1691 C1695 1.376 . S
C1692 C1690 1.394 . S
C1692 C1693 1.369 . S
C1692 C1696 1.531 . S
C1693 C1692 1.369 . S
C1693 C1694 1.410 . S
C1693 C1701 1.503 . S
C1694 C1693 1.410 . S
C1694 C1695 1.392 . S
C1694 C1697 1.511 . S
C1695 C1691 1.376 . S
C1695 C1694 1.392 . S
C1695 H1707 0.929 . S
C1696 C1692 1.531 . S
C1696 H1708 0.960 . S
C1696 H1709 0.962 . S
C1696 H1710 0.960 . S
C1697 C1694 1.511 . S
C1697 H1711 0.961 . S
C1697 H1712 0.961 . S
C1697 H1713 0.961 . S
C1698 C1699 1.370 . S
C1698 C1700 1.363 . S
C1698 H1714 0.931 . S
C1699 C1698 1.370 . S
C1699 C1703 1.408 . S
C1700 C1698 1.363 . S
C1700 C1701 1.370 . S
C1700 C1704 1.524 . S
C1701 C1693 1.503 . S
C1701 C1700 1.370 . S
C1701 C1702 1.403 . S
C1702 C1701 1.403 . S
C1702 C1703 1.404 . S
C1702 C1705 1.539 . S
C1703 C1699 1.408 . S
C1703 C1702 1.404 . S
C1703 H1715 0.930 . S
C1704 C1700 1.524 . S
C1704 H1716 0.956 . S
C1704 H1717 0.961 . S
C1704 H1718 0.961 . S
C1705 C1702 1.539 . S
C1705 H1719 0.958 . S
C1705 H1720 0.961 . S
C1705 H1721 0.960 . S
H1706 C1690 0.931 . S
H1707 C1695 0.929 . S
H1708 C1696 0.960 . S
H1709 C1696 0.962 . S
H1710 C1696 0.960 . S
H1711 C1697 0.961 . S
H1712 C1697 0.961 . S
H1713 C1697 0.961 . S
H1714 C1698 0.931 . S
H1715 C1703 0.930 . S
H1716 C1704 0.956 . S
H1717 C1704 0.961 . S
H1718 C1704 0.961 . S
H1719 C1705 0.958 . S
H1720 C1705 0.961 . S
H1721 C1705 0.960 . S
C1722 C1723 1.391 . S
C1722 C1724 1.394 . S
C1722 H1738 0.931 . S
C1723 C1722 1.391 . S
C1723 C1727 1.376 . S
C1724 C1722 1.394 . S
C1724 C1725 1.369 . S
C1724 C1728 1.531 . S
C1725 C1724 1.369 . S
C1725 C1726 1.410 . S
C1725 C1733 1.503 . S
C1726 C1725 1.410 . S
C1726 C1727 1.392 . S
C1726 C1729 1.511 . S
C1727 C1723 1.376 . S
C1727 C1726 1.392 . S
C1727 H1739 0.929 . S
C1728 C1724 1.531 . S
C1728 H1740 0.960 . S
C1728 H1741 0.962 . S
C1728 H1742 0.960 . S
C1729 C1726 1.511 . S
C1729 H1743 0.961 . S
C1729 H1744 0.961 . S
C1729 H1745 0.961 . S
C1730 C1731 1.370 . S
C1730 C1732 1.363 . S
C1730 H1746 0.931 . S
C1731 C1730 1.370 . S
C1731 C1735 1.408 . S
C1732 C1730 1.363 . S
C1732 C1733 1.370 . S
C1732 C1736 1.524 . S
C1733 C1725 1.503 . S
C1733 C1732 1.370 . S
C1733 C1734 1.403 . S
C1734 C1733 1.403 . S
C1734 C1735 1.404 . S
C1734 C1737 1.539 . S
C1735 C1731 1.408 . S
C1735 C1734 1.404 . S
C1735 H1747 0.930 . S
C1736 C1732 1.524 . S
C1736 H1748 0.956 . S
C1736 H1749 0.961 . S
C1736 H1750 0.961 . S
C1737 C1734 1.539 . S
C1737 H1751 0.958 . S
C1737 H1752 0.961 . S
C1737 H1753 0.960 . S
H1738 C1722 0.931 . S
H1739 C1727 0.929 . S
H1740 C1728 0.960 . S
H1741 C1728 0.962 . S
H1742 C1728 0.960 . S
H1743 C1729 0.961 . S
H1744 C1729 0.961 . S
H1745 C1729 0.961 . S
H1746 C1730 0.931 . S
H1747 C1735 0.930 . S
H1748 C1736 0.956 . S
H1749 C1736 0.961 . S
H1750 C1736 0.961 . S
H1751 C1737 0.958 . S
H1752 C1737 0.961 . S
H1753 C1737 0.960 . S
C1754 C1755 1.391 . S
C1754 C1756 1.394 . S
C1754 H1770 0.931 . S
C1755 C1754 1.391 . S
C1755 C1759 1.376 . S
C1756 C1754 1.394 . S
C1756 C1757 1.369 . S
C1756 C1760 1.531 . S
C1757 C1756 1.369 . S
C1757 C1758 1.410 . S
C1757 C1765 1.503 . S
C1758 C1757 1.410 . S
C1758 C1759 1.392 . S
C1758 C1761 1.511 . S
C1759 C1755 1.376 . S
C1759 C1758 1.392 . S
C1759 H1771 0.929 . S
C1760 C1756 1.531 . S
C1760 H1772 0.960 . S
C1760 H1773 0.962 . S
C1760 H1774 0.960 . S
C1761 C1758 1.511 . S
C1761 H1775 0.961 . S
C1761 H1776 0.961 . S
C1761 H1777 0.961 . S
C1762 C1763 1.370 . S
C1762 C1764 1.363 . S
C1762 H1778 0.931 . S
C1763 C1762 1.370 . S
C1763 C1767 1.408 . S
C1764 C1762 1.363 . S
C1764 C1765 1.370 . S
C1764 C1768 1.524 . S
C1765 C1757 1.503 . S
C1765 C1764 1.370 . S
C1765 C1766 1.403 . S
C1766 C1765 1.403 . S
C1766 C1767 1.404 . S
C1766 C1769 1.539 . S
C1767 C1763 1.408 . S
C1767 C1766 1.404 . S
C1767 H1779 0.930 . S
C1768 C1764 1.524 . S
C1768 H1780 0.956 . S
C1768 H1781 0.961 . S
C1768 H1782 0.961 . S
C1769 C1766 1.539 . S
C1769 H1783 0.958 . S
C1769 H1784 0.961 . S
C1769 H1785 0.960 . S
H1770 C1754 0.931 . S
H1771 C1759 0.929 . S
H1772 C1760 0.960 . S
H1773 C1760 0.962 . S
H1774 C1760 0.960 . S
H1775 C1761 0.961 . S
H1776 C1761 0.961 . S
H1777 C1761 0.961 . S
H1778 C1762 0.931 . S
H1779 C1767 0.930 . S
H1780 C1768 0.956 . S
H1781 C1768 0.961 . S
H1782 C1768 0.961 . S
H1783 C1769 0.958 . S
H1784 C1769 0.961 . S
H1785 C1769 0.960 . S
C1786 C1787 1.391 . S
C1786 C1788 1.394 . S
C1786 H1802 0.931 . S
C1787 C1786 1.391 . S
C1787 C1791 1.376 . S
C1788 C1786 1.394 . S
C1788 C1789 1.369 . S
C1788 C1792 1.531 . S
C1789 C1788 1.369 . S
C1789 C1790 1.410 . S
C1789 C1797 1.503 . S
C1790 C1789 1.410 . S
C1790 C1791 1.392 . S
C1790 C1793 1.511 . S
C1791 C1787 1.376 . S
C1791 C1790 1.392 . S
C1791 H1803 0.929 . S
C1792 C1788 1.531 . S
C1792 H1804 0.960 . S
C1792 H1805 0.962 . S
C1792 H1806 0.960 . S
C1793 C1790 1.511 . S
C1793 H1807 0.961 . S
C1793 H1808 0.961 . S
C1793 H1809 0.961 . S
C1794 C1795 1.370 . S
C1794 C1796 1.363 . S
C1794 H1810 0.931 . S
C1795 C1794 1.370 . S
C1795 C1799 1.408 . S
C1796 C1794 1.363 . S
C1796 C1797 1.370 . S
C1796 C1800 1.524 . S
C1797 C1789 1.503 . S
C1797 C1796 1.370 . S
C1797 C1798 1.403 . S
C1798 C1797 1.403 . S
C1798 C1799 1.404 . S
C1798 C1801 1.539 . S
C1799 C1795 1.408 . S
C1799 C1798 1.404 . S
C1799 H1811 0.930 . S
C1800 C1796 1.524 . S
C1800 H1812 0.956 . S
C1800 H1813 0.961 . S
C1800 H1814 0.961 . S
C1801 C1798 1.539 . S
C1801 H1815 0.958 . S
C1801 H1816 0.961 . S
C1801 H1817 0.960 . S
H1802 C1786 0.931 . S
H1803 C1791 0.929 . S
H1804 C1792 0.960 . S
H1805 C1792 0.962 . S
H1806 C1792 0.960 . S
H1807 C1793 0.961 . S
H1808 C1793 0.961 . S
H1809 C1793 0.961 . S
H1810 C1794 0.931 . S
H1811 C1799 0.930 . S
H1812 C1800 0.956 . S
H1813 C1800 0.961 . S
H1814 C1800 0.961 . S
H1815 C1801 0.958 . S
H1816 C1801 0.961 . S
H1817 C1801 0.960 . S
C1818 C1819 1.391 . S
C1818 C1820 1.394 . S
C1818 H1834 0.931 . S
C1819 C1818 1.391 . S
C1819 C1823 1.376 . S
C1820 C1818 1.394 . S
C1820 C1821 1.369 . S
C1820 C1824 1.531 . S
C1821 C1820 1.369 . S
C1821 C1822 1.410 . S
C1821 C1829 1.503 . S
C1822 C1821 1.410 . S
C1822 C1823 1.392 . S
C1822 C1825 1.511 . S
C1823 C1819 1.376 . S
C1823 C1822 1.392 . S
C1823 H1835 0.929 . S
C1824 C1820 1.531 . S
C1824 H1836 0.960 . S
C1824 H1837 0.962 . S
C1824 H1838 0.960 . S
C1825 C1822 1.511 . S
C1825 H1839 0.961 . S
C1825 H1840 0.961 . S
C1825 H1841 0.961 . S
C1826 C1827 1.370 . S
C1826 C1828 1.363 . S
C1826 H1842 0.931 . S
C1827 C1826 1.370 . S
C1827 C1831 1.408 . S
C1828 C1826 1.363 . S
C1828 C1829 1.370 . S
C1828 C1832 1.524 . S
C1829 C1821 1.503 . S
C1829 C1828 1.370 . S
C1829 C1830 1.403 . S
C1830 C1829 1.403 . S
C1830 C1831 1.404 . S
C1830 C1833 1.539 . S
C1831 C1827 1.408 . S
C1831 C1830 1.404 . S
C1831 H1843 0.930 . S
C1832 C1828 1.524 . S
C1832 H1844 0.956 . S
C1832 H1845 0.961 . S
C1832 H1846 0.961 . S
C1833 C1830 1.539 . S
C1833 H1847 0.958 . S
C1833 H1848 0.961 . S
C1833 H1849 0.960 . S
H1834 C1818 0.931 . S
H1835 C1823 0.929 . S
H1836 C1824 0.960 . S
H1837 C1824 0.962 . S
H1838 C1824 0.960 . S
H1839 C1825 0.961 . S
H1840 C1825 0.961 . S
H1841 C1825 0.961 . S
H1842 C1826 0.931 . S
H1843 C1831 0.930 . S
H1844 C1832 0.956 . S
H1845 C1832 0.961 . S
H1846 C1832 0.961 . S
H1847 C1833 0.958 . S
H1848 C1833 0.961 . S
H1849 C1833 0.960 . S
C1850 C1851 1.391 . S
C1850 C1852 1.394 . S
C1850 H1866 0.931 . S
C1851 C1850 1.391 . S
C1851 C1855 1.376 . S
C1852 C1850 1.394 . S
C1852 C1853 1.369 . S
C1852 C1856 1.531 . S
C1853 C1852 1.369 . S
C1853 C1854 1.410 . S
C1853 C1861 1.503 . S
C1854 C1853 1.410 . S
C1854 C1855 1.392 . S
C1854 C1857 1.511 . S
C1855 C1851 1.376 . S
C1855 C1854 1.392 . S
C1855 H1867 0.929 . S
C1856 C1852 1.531 . S
C1856 H1868 0.960 . S
C1856 H1869 0.962 . S
C1856 H1870 0.960 . S
C1857 C1854 1.511 . S
C1857 H1871 0.961 . S
C1857 H1872 0.961 . S
C1857 H1873 0.961 . S
C1858 C1859 1.370 . S
C1858 C1860 1.363 . S
C1858 H1874 0.931 . S
C1859 C1858 1.370 . S
C1859 C1863 1.408 . S
C1860 C1858 1.363 . S
C1860 C1861 1.370 . S
C1860 C1864 1.524 . S
C1861 C1853 1.503 . S
C1861 C1860 1.370 . S
C1861 C1862 1.403 . S
C1862 C1861 1.403 . S
C1862 C1863 1.404 . S
C1862 C1865 1.539 . S
C1863 C1859 1.408 . S
C1863 C1862 1.404 . S
C1863 H1875 0.930 . S
C1864 C1860 1.524 . S
C1864 H1876 0.956 . S
C1864 H1877 0.961 . S
C1864 H1878 0.961 . S
C1865 C1862 1.539 . S
C1865 H1879 0.958 . S
C1865 H1880 0.961 . S
C1865 H1881 0.960 . S
H1866 C1850 0.931 . S
H1867 C1855 0.929 . S
H1868 C1856 0.960 . S
H1869 C1856 0.962 . S
H1870 C1856 0.960 . S
H1871 C1857 0.961 . S
H1872 C1857 0.961 . S
H1873 C1857 0.961 . S
H1874 C1858 0.931 . S
H1875 C1863 0.930 . S
H1876 C1864 0.956 . S
H1877 C1864 0.961 . S
H1878 C1864 0.961 . S
H1879 C1865 0.958 . S
H1880 C1865 0.961 . S
H1881 C1865 0.960 . S
C1882 C1883 1.391 . S
C1882 C1884 1.394 . S
C1882 H1898 0.931 . S
C1883 C1882 1.391 . S
C1883 C1887 1.376 . S
C1884 C1882 1.394 . S
C1884 C1885 1.369 . S
C1884 C1888 1.531 . S
C1885 C1884 1.369 . S
C1885 C1886 1.410 . S
C1885 C1893 1.503 . S
C1886 C1885 1.410 . S
C1886 C1887 1.392 . S
C1886 C1889 1.511 . S
C1887 C1883 1.376 . S
C1887 C1886 1.392 . S
C1887 H1899 0.929 . S
C1888 C1884 1.531 . S
C1888 H1900 0.960 . S
C1888 H1901 0.962 . S
C1888 H1902 0.960 . S
C1889 C1886 1.511 . S
C1889 H1903 0.961 . S
C1889 H1904 0.961 . S
C1889 H1905 0.961 . S
C1890 C1891 1.370 . S
C1890 C1892 1.363 . S
C1890 H1906 0.931 . S
C1891 C1890 1.370 . S
C1891 C1895 1.408 . S
C1892 C1890 1.363 . S
C1892 C1893 1.370 . S
C1892 C1896 1.524 . S
C1893 C1885 1.503 . S
C1893 C1892 1.370 . S
C1893 C1894 1.403 . S
C1894 C1893 1.403 . S
C1894 C1895 1.404 . S
C1894 C1897 1.539 . S
C1895 C1891 1.408 . S
C1895 C1894 1.404 . S
C1895 H1907 0.930 . S
C1896 C1892 1.524 . S
C1896 H1908 0.956 . S
C1896 H1909 0.961 . S
C1896 H1910 0.961 . S
C1897 C1894 1.539 . S
C1897 H1911 0.958 . S
C1897 H1912 0.961 . S
C1897 H1913 0.960 . S
H1898 C1882 0.931 . S
H1899 C1887 0.929 . S
H1900 C1888 0.960 . S
H1901 C1888 0.962 . S
H1902 C1888 0.960 . S
H1903 C1889 0.961 . S
H1904 C1889 0.961 . S
H1905 C1889 0.961 . S
H1906 C1890 0.931 . S
H1907 C1895 0.930 . S
H1908 C1896 0.956 . S
H1909 C1896 0.961 . S
H1910 C1896 0.961 . S
H1911 C1897 0.958 . S
H1912 C1897 0.961 . S
H1913 C1897 0.960 . S
C1914 C1915 1.391 . S
C1914 C1916 1.394 . S
C1914 H1930 0.931 . S
C1915 C1914 1.391 . S
C1915 C1919 1.376 . S
C1916 C1914 1.394 . S
C1916 C1917 1.369 . S
C1916 C1920 1.531 . S
C1917 C1916 1.369 . S
C1917 C1918 1.410 . S
C1917 C1925 1.503 . S
C1918 C1917 1.410 . S
C1918 C1919 1.392 . S
C1918 C1921 1.511 . S
C1919 C1915 1.376 . S
C1919 C1918 1.392 . S
C1919 H1931 0.929 . S
C1920 C1916 1.531 . S
C1920 H1932 0.960 . S
C1920 H1933 0.962 . S
C1920 H1934 0.960 . S
C1921 C1918 1.511 . S
C1921 H1935 0.961 . S
C1921 H1936 0.961 . S
C1921 H1937 0.961 . S
C1922 C1923 1.370 . S
C1922 C1924 1.363 . S
C1922 H1938 0.931 . S
C1923 C1922 1.370 . S
C1923 C1927 1.408 . S
C1924 C1922 1.363 . S
C1924 C1925 1.370 . S
C1924 C1928 1.524 . S
C1925 C1917 1.503 . S
C1925 C1924 1.370 . S
C1925 C1926 1.403 . S
C1926 C1925 1.403 . S
C1926 C1927 1.404 . S
C1926 C1929 1.539 . S
C1927 C1923 1.408 . S
C1927 C1926 1.404 . S
C1927 H1939 0.930 . S
C1928 C1924 1.524 . S
C1928 H1940 0.956 . S
C1928 H1941 0.961 . S
C1928 H1942 0.961 . S
C1929 C1926 1.539 . S
C1929 H1943 0.958 . S
C1929 H1944 0.961 . S
C1929 H1945 0.960 . S
H1930 C1914 0.931 . S
H1931 C1919 0.929 . S
H1932 C1920 0.960 . S
H1933 C1920 0.962 . S
H1934 C1920 0.960 . S
H1935 C1921 0.961 . S
H1936 C1921 0.961 . S
H1937 C1921 0.961 . S
H1938 C1922 0.931 . S
H1939 C1927 0.930 . S
H1940 C1928 0.956 . S
H1941 C1928 0.961 . S
H1942 C1928 0.961 . S
H1943 C1929 0.958 . S
H1944 C1929 0.961 . S
H1945 C1929 0.960 . S
C1946 C1947 1.391 . S
C1946 C1948 1.394 . S
C1946 H1962 0.931 . S
C1947 C1946 1.391 . S
C1947 C1951 1.376 . S
C1948 C1946 1.394 . S
C1948 C1949 1.369 . S
C1948 C1952 1.531 . S
C1949 C1948 1.369 . S
C1949 C1950 1.410 . S
C1949 C1957 1.503 . S
C1950 C1949 1.410 . S
C1950 C1951 1.392 . S
C1950 C1953 1.511 . S
C1951 C1947 1.376 . S
C1951 C1950 1.392 . S
C1951 H1963 0.929 . S
C1952 C1948 1.531 . S
C1952 H1964 0.960 . S
C1952 H1965 0.962 . S
C1952 H1966 0.960 . S
C1953 C1950 1.511 . S
C1953 H1967 0.961 . S
C1953 H1968 0.961 . S
C1953 H1969 0.961 . S
C1954 C1955 1.370 . S
C1954 C1956 1.363 . S
C1954 H1970 0.931 . S
C1955 C1954 1.370 . S
C1955 C1959 1.408 . S
C1956 C1954 1.363 . S
C1956 C1957 1.370 . S
C1956 C1960 1.524 . S
C1957 C1949 1.503 . S
C1957 C1956 1.370 . S
C1957 C1958 1.403 . S
C1958 C1957 1.403 . S
C1958 C1959 1.404 . S
C1958 C1961 1.539 . S
C1959 C1955 1.408 . S
C1959 C1958 1.404 . S
C1959 H1971 0.930 . S
C1960 C1956 1.524 . S
C1960 H1972 0.956 . S
C1960 H1973 0.961 . S
C1960 H1974 0.961 . S
C1961 C1958 1.539 . S
C1961 H1975 0.958 . S
C1961 H1976 0.961 . S
C1961 H1977 0.960 . S
H1962 C1946 0.931 . S
H1963 C1951 0.929 . S
H1964 C1952 0.960 . S
H1965 C1952 0.962 . S
H1966 C1952 0.960 . S
H1967 C1953 0.961 . S
H1968 C1953 0.961 . S
H1969 C1953 0.961 . S
H1970 C1954 0.931 . S
H1971 C1959 0.930 . S
H1972 C1960 0.956 . S
H1973 C1960 0.961 . S
H1974 C1960 0.961 . S
H1975 C1961 0.958 . S
H1976 C1961 0.961 . S
H1977 C1961 0.960 . S
C1978 C1979 1.391 . S
C1978 C1980 1.394 . S
C1978 H1994 0.931 . S
C1979 C1978 1.391 . S
C1979 C1983 1.376 . S
C1980 C1978 1.394 . S
C1980 C1981 1.369 . S
C1980 C1984 1.531 . S
C1981 C1980 1.369 . S
C1981 C1982 1.410 . S
C1981 C1989 1.503 . S
C1982 C1981 1.410 . S
C1982 C1983 1.392 . S
C1982 C1985 1.511 . S
C1983 C1979 1.376 . S
C1983 C1982 1.392 . S
C1983 H1995 0.929 . S
C1984 C1980 1.531 . S
C1984 H1996 0.960 . S
C1984 H1997 0.962 . S
C1984 H1998 0.960 . S
C1985 C1982 1.511 . S
C1985 H1999 0.961 . S
C1985 H2000 0.961 . S
C1985 H2001 0.961 . S
C1986 C1987 1.370 . S
C1986 C1988 1.363 . S
C1986 H2002 0.931 . S
C1987 C1986 1.370 . S
C1987 C1991 1.408 . S
C1988 C1986 1.363 . S
C1988 C1989 1.370 . S
C1988 C1992 1.524 . S
C1989 C1981 1.503 . S
C1989 C1988 1.370 . S
C1989 C1990 1.403 . S
C1990 C1989 1.403 . S
C1990 C1991 1.404 . S
C1990 C1993 1.539 . S
C1991 C1987 1.408 . S
C1991 C1990 1.404 . S
C1991 H2003 0.930 . S
C1992 C1988 1.524 . S
C1992 H2004 0.956 . S
C1992 H2005 0.961 . S
C1992 H2006 0.961 . S
C1993 C1990 1.539 . S
C1993 H2007 0.958 . S
C1993 H2008 0.961 . S
C1993 H2009 0.960 . S
H1994 C1978 0.931 . S
H1995 C1983 0.929 . S
H1996 C1984 0.960 . S
H1997 C1984 0.962 . S
H1998 C1984 0.960 . S
H1999 C1985 0.961 . S
H2000 C1985 0.961 . S
H2001 C1985 0.961 . S
H2002 C1986 0.931 . S
H2003 C1991 0.930 . S
H2004 C1992 0.956 . S
H2005 C1992 0.961 . S
H2006 C1992 0.961 . S
H2007 C1993 0.958 . S
H2008 C1993 0.961 . S
H2009 C1993 0.960 . S
C2010 C2011 1.391 . S
C2010 C2012 1.394 . S
C2010 H2026 0.931 . S
C2011 C2010 1.391 . S
C2011 C2015 1.376 . S
C2012 C2010 1.394 . S
C2012 C2013 1.369 . S
C2012 C2016 1.531 . S
C2013 C2012 1.369 . S
C2013 C2014 1.410 . S
C2013 C2021 1.503 . S
C2014 C2013 1.410 . S
C2014 C2015 1.392 . S
C2014 C2017 1.511 . S
C2015 C2011 1.376 . S
C2015 C2014 1.392 . S
C2015 H2027 0.929 . S
C2016 C2012 1.531 . S
C2016 H2028 0.960 . S
C2016 H2029 0.962 . S
C2016 H2030 0.960 . S
C2017 C2014 1.511 . S
C2017 H2031 0.961 . S
C2017 H2032 0.961 . S
C2017 H2033 0.961 . S
C2018 C2019 1.370 . S
C2018 C2020 1.363 . S
C2018 H2034 0.931 . S
C2019 C2018 1.370 . S
C2019 C2023 1.408 . S
C2020 C2018 1.363 . S
C2020 C2021 1.370 . S
C2020 C2024 1.524 . S
C2021 C2013 1.503 . S
C2021 C2020 1.370 . S
C2021 C2022 1.403 . S
C2022 C2021 1.403 . S
C2022 C2023 1.404 . S
C2022 C2025 1.539 . S
C2023 C2019 1.408 . S
C2023 C2022 1.404 . S
C2023 H2035 0.930 . S
C2024 C2020 1.524 . S
C2024 H2036 0.956 . S
C2024 H2037 0.961 . S
C2024 H2038 0.961 . S
C2025 C2022 1.539 . S
C2025 H2039 0.958 . S
C2025 H2040 0.961 . S
C2025 H2041 0.960 . S
H2026 C2010 0.931 . S
H2027 C2015 0.929 . S
H2028 C2016 0.960 . S
H2029 C2016 0.962 . S
H2030 C2016 0.960 . S
H2031 C2017 0.961 . S
H2032 C2017 0.961 . S
H2033 C2017 0.961 . S
H2034 C2018 0.931 . S
H2035 C2023 0.930 . S
H2036 C2024 0.956 . S
H2037 C2024 0.961 . S
H2038 C2024 0.961 . S
H2039 C2025 0.958 . S
H2040 C2025 0.961 . S
H2041 C2025 0.960 . S
C2042 C2043 1.391 . S
C2042 C2044 1.394 . S
C2042 H2058 0.931 . S
C2043 C2042 1.391 . S
C2043 C2047 1.376 . S
C2044 C2042 1.394 . S
C2044 C2045 1.369 . S
C2044 C2048 1.531 . S
C2045 C2044 1.369 . S
C2045 C2046 1.410 . S
C2045 C2053 1.503 . S
C2046 C2045 1.410 . S
C2046 C2047 1.392 . S
C2046 C2049 1.511 . S
C2047 C2043 1.376 . S
C2047 C2046 1.392 . S
C2047 H2059 0.929 . S
C2048 C2044 1.531 . S
C2048 H2060 0.960 . S
C2048 H2061 0.962 . S
C2048 H2062 0.960 . S
C2049 C2046 1.511 . S
C2049 H2063 0.961 . S
C2049 H2064 0.961 . S
C2049 H2065 0.961 . S
C2050 C2051 1.370 . S
C2050 C2052 1.363 . S
C2050 H2066 0.931 . S
C2051 C2050 1.370 . S
C2051 C2055 1.408 . S
C2052 C2050 1.363 . S
C2052 C2053 1.370 . S
C2052 C2056 1.524 . S
C2053 C2045 1.503 . S
C2053 C2052 1.370 . S
C2053 C2054 1.403 . S
C2054 C2053 1.403 . S
C2054 C2055 1.404 . S
C2054 C2057 1.539 . S
C2055 C2051 1.408 . S
C2055 C2054 1.404 . S
C2055 H2067 0.930 . S
C2056 C2052 1.524 . S
C2056 H2068 0.956 . S
C2056 H2069 0.961 . S
C2056 H2070 0.961 . S
C2057 C2054 1.539 . S
C2057 H2071 0.958 . S
C2057 H2072 0.961 . S
C2057 H2073 0.960 . S
H2058 C2042 0.931 . S
H2059 C2047 0.929 . S
H2060 C2048 0.960 . S
H2061 C2048 0.962 . S
H2062 C2048 0.960 . S
H2063 C2049 0.961 . S
H2064 C2049 0.961 . S
H2065 C2049 0.961 . S
H2066 C2050 0.931 . S
H2067 C2055 0.930 . S
H2068 C2056 0.956 . S
H2069 C2056 0.961 . S
H2070 C2056 0.961 . S
H2071 C2057 0.958 . S
H2072 C2057 0.961 . S
H2073 C2057 0.960 . S
C2074 C2075 1.391 . S
C2074 C2076 1.394 . S
C2074 H2090 0.931 . S
C2075 C2074 1.391 . S
C2075 C2079 1.376 . S
C2076 C2074 1.394 . S
C2076 C2077 1.369 . S
C2076 C2080 1.531 . S
C2077 C2076 1.369 . S
C2077 C2078 1.410 . S
C2077 C2085 1.503 . S
C2078 C2077 1.410 . S
C2078 C2079 1.392 . S
C2078 C2081 1.511 . S
C2079 C2075 1.376 . S
C2079 C2078 1.392 . S
C2079 H2091 0.929 . S
C2080 C2076 1.531 . S
C2080 H2092 0.960 . S
C2080 H2093 0.962 . S
C2080 H2094 0.960 . S
C2081 C2078 1.511 . S
C2081 H2095 0.961 . S
C2081 H2096 0.961 . S
C2081 H2097 0.961 . S
C2082 C2083 1.370 . S
C2082 C2084 1.363 . S
C2082 H2098 0.931 . S
C2083 C2082 1.370 . S
C2083 C2087 1.408 . S
C2084 C2082 1.363 . S
C2084 C2085 1.370 . S
C2084 C2088 1.524 . S
C2085 C2077 1.503 . S
C2085 C2084 1.370 . S
C2085 C2086 1.403 . S
C2086 C2085 1.403 . S
C2086 C2087 1.404 . S
C2086 C2089 1.539 . S
C2087 C2083 1.408 . S
C2087 C2086 1.404 . S
C2087 H2099 0.930 . S
C2088 C2084 1.524 . S
C2088 H2100 0.956 . S
C2088 H2101 0.961 . S
C2088 H2102 0.961 . S
C2089 C2086 1.539 . S
C2089 H2103 0.958 . S
C2089 H2104 0.961 . S
C2089 H2105 0.960 . S
H2090 C2074 0.931 . S
H2091 C2079 0.929 . S
H2092 C2080 0.960 . S
H2093 C2080 0.962 . S
H2094 C2080 0.960 . S
H2095 C2081 0.961 . S
H2096 C2081 0.961 . S
H2097 C2081 0.961 . S
H2098 C2082 0.931 . S
H2099 C2087 0.930 . S
H2100 C2088 0.956 . S
H2101 C2088 0.961 . S
H2102 C2088 0.961 . S
H2103 C2089 0.958 . S
H2104 C2089 0.961 . S
H2105 C2089 0.960 . S
C2106 C2107 1.391 . S
C2106 C2108 1.394 . S
C2106 H2122 0.931 . S
C2107 C2106 1.391 . S
C2107 C2111 1.376 . S
C2108 C2106 1.394 . S
C2108 C2109 1.369 . S
C2108 C2112 1.531 . S
C2109 C2108 1.369 . S
C2109 C2110 1.410 . S
C2109 C2117 1.503 . S
C2110 C2109 1.410 . S
C2110 C2111 1.392 . S
C2110 C2113 1.511 . S
C2111 C2107 1.376 . S
C2111 C2110 1.392 . S
C2111 H2123 0.929 . S
C2112 C2108 1.531 . S
C2112 H2124 0.960 . S
C2112 H2125 0.962 . S
C2112 H2126 0.960 . S
C2113 C2110 1.511 . S
C2113 H2127 0.961 . S
C2113 H2128 0.961 . S
C2113 H2129 0.961 . S
C2114 C2115 1.370 . S
C2114 C2116 1.363 . S
C2114 H2130 0.931 . S
C2115 C2114 1.370 . S
C2115 C2119 1.408 . S
C2116 C2114 1.363 . S
C2116 C2117 1.370 . S
C2116 C2120 1.524 . S
C2117 C2109 1.503 . S
C2117 C2116 1.370 . S
C2117 C2118 1.403 . S
C2118 C2117 1.403 . S
C2118 C2119 1.404 . S
C2118 C2121 1.539 . S
C2119 C2115 1.408 . S
C2119 C2118 1.404 . S
C2119 H2131 0.930 . S
C2120 C2116 1.524 . S
C2120 H2132 0.956 . S
C2120 H2133 0.961 . S
C2120 H2134 0.961 . S
C2121 C2118 1.539 . S
C2121 H2135 0.958 . S
C2121 H2136 0.961 . S
C2121 H2137 0.960 . S
H2122 C2106 0.931 . S
H2123 C2111 0.929 . S
H2124 C2112 0.960 . S
H2125 C2112 0.962 . S
H2126 C2112 0.960 . S
H2127 C2113 0.961 . S
H2128 C2113 0.961 . S
H2129 C2113 0.961 . S
H2130 C2114 0.931 . S
H2131 C2119 0.930 . S
H2132 C2120 0.956 . S
H2133 C2120 0.961 . S
H2134 C2120 0.961 . S
H2135 C2121 0.958 . S
H2136 C2121 0.961 . S
H2137 C2121 0.960 . S
C2138 C2139 1.391 . S
C2138 C2140 1.394 . S
C2138 H2154 0.931 . S
C2139 C2138 1.391 . S
C2139 C2143 1.376 . S
C2140 C2138 1.394 . S
C2140 C2141 1.369 . S
C2140 C2144 1.531 . S
C2141 C2140 1.369 . S
C2141 C2142 1.410 . S
C2141 C2149 1.503 . S
C2142 C2141 1.410 . S
C2142 C2143 1.392 . S
C2142 C2145 1.511 . S
C2143 C2139 1.376 . S
C2143 C2142 1.392 . S
C2143 H2155 0.929 . S
C2144 C2140 1.531 . S
C2144 H2156 0.960 . S
C2144 H2157 0.962 . S
C2144 H2158 0.960 . S
C2145 C2142 1.511 . S
C2145 H2159 0.961 . S
C2145 H2160 0.961 . S
C2145 H2161 0.961 . S
C2146 C2147 1.370 . S
C2146 C2148 1.363 . S
C2146 H2162 0.931 . S
C2147 C2146 1.370 . S
C2147 C2151 1.408 . S
C2148 C2146 1.363 . S
C2148 C2149 1.370 . S
C2148 C2152 1.524 . S
C2149 C2141 1.503 . S
C2149 C2148 1.370 . S
C2149 C2150 1.403 . S
C2150 C2149 1.403 . S
C2150 C2151 1.404 . S
C2150 C2153 1.539 . S
C2151 C2147 1.408 . S
C2151 C2150 1.404 . S
C2151 H2163 0.930 . S
C2152 C2148 1.524 . S
C2152 H2164 0.956 . S
C2152 H2165 0.961 . S
C2152 H2166 0.961 . S
C2153 C2150 1.539 . S
C2153 H2167 0.958 . S
C2153 H2168 0.961 . S
C2153 H2169 0.960 . S
H2154 C2138 0.931 . S
H2155 C2143 0.929 . S
H2156 C2144 0.960 . S
H2157 C2144 0.962 . S
H2158 C2144 0.960 . S
H2159 C2145 0.961 . S
H2160 C2145 0.961 . S
H2161 C2145 0.961 . S
H2162 C2146 0.931 . S
H2163 C2151 0.930 . S
H2164 C2152 0.956 . S
H2165 C2152 0.961 . S
H2166 C2152 0.961 . S
H2167 C2153 0.958 . S
H2168 C2153 0.961 . S
H2169 C2153 0.960 . S
C2170 C2171 1.391 . S
C2170 C2172 1.394 . S
C2170 H2186 0.931 . S
C2171 C2170 1.391 . S
C2171 C2175 1.376 . S
C2172 C2170 1.394 . S
C2172 C2173 1.369 . S
C2172 C2176 1.531 . S
C2173 C2172 1.369 . S
C2173 C2174 1.410 . S
C2173 C2181 1.503 . S
C2174 C2173 1.410 . S
C2174 C2175 1.392 . S
C2174 C2177 1.511 . S
C2175 C2171 1.376 . S
C2175 C2174 1.392 . S
C2175 H2187 0.929 . S
C2176 C2172 1.531 . S
C2176 H2188 0.960 . S
C2176 H2189 0.962 . S
C2176 H2190 0.960 . S
C2177 C2174 1.511 . S
C2177 H2191 0.961 . S
C2177 H2192 0.961 . S
C2177 H2193 0.961 . S
C2178 C2179 1.370 . S
C2178 C2180 1.363 . S
C2178 H2194 0.931 . S
C2179 C2178 1.370 . S
C2179 C2183 1.408 . S
C2180 C2178 1.363 . S
C2180 C2181 1.370 . S
C2180 C2184 1.524 . S
C2181 C2173 1.503 . S
C2181 C2180 1.370 . S
C2181 C2182 1.403 . S
C2182 C2181 1.403 . S
C2182 C2183 1.404 . S
C2182 C2185 1.539 . S
C2183 C2179 1.408 . S
C2183 C2182 1.404 . S
C2183 H2195 0.930 . S
C2184 C2180 1.524 . S
C2184 H2196 0.956 . S
C2184 H2197 0.961 . S
C2184 H2198 0.961 . S
C2185 C2182 1.539 . S
C2185 H2199 0.958 . S
C2185 H2200 0.961 . S
C2185 H2201 0.960 . S
H2186 C2170 0.931 . S
H2187 C2175 0.929 . S
H2188 C2176 0.960 . S
H2189 C2176 0.962 . S
H2190 C2176 0.960 . S
H2191 C2177 0.961 . S
H2192 C2177 0.961 . S
H2193 C2177 0.961 . S
H2194 C2178 0.931 . S
H2195 C2183 0.930 . S
H2196 C2184 0.956 . S
H2197 C2184 0.961 . S
H2198 C2184 0.961 . S
H2199 C2185 0.958 . S
H2200 C2185 0.961 . S
H2201 C2185 0.960 . S
C2202 C2203 1.391 . S
C2202 C2204 1.394 . S
C2202 H2218 0.931 . S
C2203 C2202 1.391 . S
C2203 C2207 1.376 . S
C2204 C2202 1.394 . S
C2204 C2205 1.369 . S
C2204 C2208 1.531 . S
C2205 C2204 1.369 . S
C2205 C2206 1.410 . S
C2205 C2213 1.503 . S
C2206 C2205 1.410 . S
C2206 C2207 1.392 . S
C2206 C2209 1.511 . S
C2207 C2203 1.376 . S
C2207 C2206 1.392 . S
C2207 H2219 0.929 . S
C2208 C2204 1.531 . S
C2208 H2220 0.960 . S
C2208 H2221 0.962 . S
C2208 H2222 0.960 . S
C2209 C2206 1.511 . S
C2209 H2223 0.961 . S
C2209 H2224 0.961 . S
C2209 H2225 0.961 . S
C2210 C2211 1.370 . S
C2210 C2212 1.363 . S
C2210 H2226 0.931 . S
C2211 C2210 1.370 . S
C2211 C2215 1.408 . S
C2212 C2210 1.363 . S
C2212 C2213 1.370 . S
C2212 C2216 1.524 . S
C2213 C2205 1.503 . S
C2213 C2212 1.370 . S
C2213 C2214 1.403 . S
C2214 C2213 1.403 . S
C2214 C2215 1.404 . S
C2214 C2217 1.539 . S
C2215 C2211 1.408 . S
C2215 C2214 1.404 . S
C2215 H2227 0.930 . S
C2216 C2212 1.524 . S
C2216 H2228 0.956 . S
C2216 H2229 0.961 . S
C2216 H2230 0.961 . S
C2217 C2214 1.539 . S
C2217 H2231 0.958 . S
C2217 H2232 0.961 . S
C2217 H2233 0.960 . S
H2218 C2202 0.931 . S
H2219 C2207 0.929 . S
H2220 C2208 0.960 . S
H2221 C2208 0.962 . S
H2222 C2208 0.960 . S
H2223 C2209 0.961 . S
H2224 C2209 0.961 . S
H2225 C2209 0.961 . S
H2226 C2210 0.931 . S
H2227 C2215 0.930 . S
H2228 C2216 0.956 . S
H2229 C2216 0.961 . S
H2230 C2216 0.961 . S
H2231 C2217 0.958 . S
H2232 C2217 0.961 . S
H2233 C2217 0.960 . S
C2234 C2235 1.391 . S
C2234 C2236 1.394 . S
C2234 H2250 0.931 . S
C2235 C2234 1.391 . S
C2235 C2239 1.376 . S
C2236 C2234 1.394 . S
C2236 C2237 1.369 . S
C2236 C2240 1.531 . S
C2237 C2236 1.369 . S
C2237 C2238 1.410 . S
C2237 C2245 1.503 . S
C2238 C2237 1.410 . S
C2238 C2239 1.392 . S
C2238 C2241 1.511 . S
C2239 C2235 1.376 . S
C2239 C2238 1.392 . S
C2239 H2251 0.929 . S
C2240 C2236 1.531 . S
C2240 H2252 0.960 . S
C2240 H2253 0.962 . S
C2240 H2254 0.960 . S
C2241 C2238 1.511 . S
C2241 H2255 0.961 . S
C2241 H2256 0.961 . S
C2241 H2257 0.961 . S
C2242 C2243 1.370 . S
C2242 C2244 1.363 . S
C2242 H2258 0.931 . S
C2243 C2242 1.370 . S
C2243 C2247 1.408 . S
C2244 C2242 1.363 . S
C2244 C2245 1.370 . S
C2244 C2248 1.524 . S
C2245 C2237 1.503 . S
C2245 C2244 1.370 . S
C2245 C2246 1.403 . S
C2246 C2245 1.403 . S
C2246 C2247 1.404 . S
C2246 C2249 1.539 . S
C2247 C2243 1.408 . S
C2247 C2246 1.404 . S
C2247 H2259 0.930 . S
C2248 C2244 1.524 . S
C2248 H2260 0.956 . S
C2248 H2261 0.961 . S
C2248 H2262 0.961 . S
C2249 C2246 1.539 . S
C2249 H2263 0.958 . S
C2249 H2264 0.961 . S
C2249 H2265 0.960 . S
H2250 C2234 0.931 . S
H2251 C2239 0.929 . S
H2252 C2240 0.960 . S
H2253 C2240 0.962 . S
H2254 C2240 0.960 . S
H2255 C2241 0.961 . S
H2256 C2241 0.961 . S
H2257 C2241 0.961 . S
H2258 C2242 0.931 . S
H2259 C2247 0.930 . S
H2260 C2248 0.956 . S
H2261 C2248 0.961 . S
H2262 C2248 0.961 . S
H2263 C2249 0.958 . S
H2264 C2249 0.961 . S
H2265 C2249 0.960 . S
C2266 C2267 1.391 . S
C2266 C2268 1.394 . S
C2266 H2282 0.931 . S
C2267 C2266 1.391 . S
C2267 C2271 1.376 . S
C2268 C2266 1.394 . S
C2268 C2269 1.369 . S
C2268 C2272 1.531 . S
C2269 C2268 1.369 . S
C2269 C2270 1.410 . S
C2269 C2277 1.503 . S
C2270 C2269 1.410 . S
C2270 C2271 1.392 . S
C2270 C2273 1.511 . S
C2271 C2267 1.376 . S
C2271 C2270 1.392 . S
C2271 H2283 0.929 . S
C2272 C2268 1.531 . S
C2272 H2284 0.960 . S
C2272 H2285 0.962 . S
C2272 H2286 0.960 . S
C2273 C2270 1.511 . S
C2273 H2287 0.961 . S
C2273 H2288 0.961 . S
C2273 H2289 0.961 . S
C2274 C2275 1.370 . S
C2274 C2276 1.363 . S
C2274 H2290 0.931 . S
C2275 C2274 1.370 . S
C2275 C2279 1.408 . S
C2276 C2274 1.363 . S
C2276 C2277 1.370 . S
C2276 C2280 1.524 . S
C2277 C2269 1.503 . S
C2277 C2276 1.370 . S
C2277 C2278 1.403 . S
C2278 C2277 1.403 . S
C2278 C2279 1.404 . S
C2278 C2281 1.539 . S
C2279 C2275 1.408 . S
C2279 C2278 1.404 . S
C2279 H2291 0.930 . S
C2280 C2276 1.524 . S
C2280 H2292 0.956 . S
C2280 H2293 0.961 . S
C2280 H2294 0.961 . S
C2281 C2278 1.539 . S
C2281 H2295 0.958 . S
C2281 H2296 0.961 . S
C2281 H2297 0.960 . S
H2282 C2266 0.931 . S
H2283 C2271 0.929 . S
H2284 C2272 0.960 . S
H2285 C2272 0.962 . S
H2286 C2272 0.960 . S
H2287 C2273 0.961 . S
H2288 C2273 0.961 . S
H2289 C2273 0.961 . S
H2290 C2274 0.931 . S
H2291 C2279 0.930 . S
H2292 C2280 0.956 . S
H2293 C2280 0.961 . S
H2294 C2280 0.961 . S
H2295 C2281 0.958 . S
H2296 C2281 0.961 . S
H2297 C2281 0.960 . S
C2298 C2299 1.391 . S
C2298 C2300 1.394 . S
C2298 H2314 0.931 . S
C2299 C2298 1.391 . S
C2299 C2303 1.376 . S
C2300 C2298 1.394 . S
C2300 C2301 1.369 . S
C2300 C2304 1.531 . S
C2301 C2300 1.369 . S
C2301 C2302 1.410 . S
C2301 C2309 1.503 . S
C2302 C2301 1.410 . S
C2302 C2303 1.392 . S
C2302 C2305 1.511 . S
C2303 C2299 1.376 . S
C2303 C2302 1.392 . S
C2303 H2315 0.929 . S
C2304 C2300 1.531 . S
C2304 H2316 0.960 . S
C2304 H2317 0.962 . S
C2304 H2318 0.960 . S
C2305 C2302 1.511 . S
C2305 H2319 0.961 . S
C2305 H2320 0.961 . S
C2305 H2321 0.961 . S
C2306 C2307 1.370 . S
C2306 C2308 1.363 . S
C2306 H2322 0.931 . S
C2307 C2306 1.370 . S
C2307 C2311 1.408 . S
C2308 C2306 1.363 . S
C2308 C2309 1.370 . S
C2308 C2312 1.524 . S
C2309 C2301 1.503 . S
C2309 C2308 1.370 . S
C2309 C2310 1.403 . S
C2310 C2309 1.403 . S
C2310 C2311 1.404 . S
C2310 C2313 1.539 . S
C2311 C2307 1.408 . S
C2311 C2310 1.404 . S
C2311 H2323 0.930 . S
C2312 C2308 1.524 . S
C2312 H2324 0.956 . S
C2312 H2325 0.961 . S
C2312 H2326 0.961 . S
C2313 C2310 1.539 . S
C2313 H2327 0.958 . S
C2313 H2328 0.961 . S
C2313 H2329 0.960 . S
H2314 C2298 0.931 . S
H2315 C2303 0.929 . S
H2316 C2304 0.960 . S
H2317 C2304 0.962 . S
H2318 C2304 0.960 . S
H2319 C2305 0.961 . S
H2320 C2305 0.961 . S
H2321 C2305 0.961 . S
H2322 C2306 0.931 . S
H2323 C2311 0.930 . S
H2324 C2312 0.956 . S
H2325 C2312 0.961 . S
H2326 C2312 0.961 . S
H2327 C2313 0.958 . S
H2328 C2313 0.961 . S
H2329 C2313 0.960 . S
C2330 C2331 1.391 . S
C2330 C2332 1.394 . S
C2330 H2346 0.931 . S
C2331 C2330 1.391 . S
C2331 C2335 1.376 . S
C2332 C2330 1.394 . S
C2332 C2333 1.369 . S
C2332 C2336 1.531 . S
C2333 C2332 1.369 . S
C2333 C2334 1.410 . S
C2333 C2341 1.503 . S
C2334 C2333 1.410 . S
C2334 C2335 1.392 . S
C2334 C2337 1.511 . S
C2335 C2331 1.376 . S
C2335 C2334 1.392 . S
C2335 H2347 0.929 . S
C2336 C2332 1.531 . S
C2336 H2348 0.960 . S
C2336 H2349 0.962 . S
C2336 H2350 0.960 . S
C2337 C2334 1.511 . S
C2337 H2351 0.961 . S
C2337 H2352 0.961 . S
C2337 H2353 0.961 . S
C2338 C2339 1.370 . S
C2338 C2340 1.363 . S
C2338 H2354 0.931 . S
C2339 C2338 1.370 . S
C2339 C2343 1.408 . S
C2340 C2338 1.363 . S
C2340 C2341 1.370 . S
C2340 C2344 1.524 . S
C2341 C2333 1.503 . S
C2341 C2340 1.370 . S
C2341 C2342 1.403 . S
C2342 C2341 1.403 . S
C2342 C2343 1.404 . S
C2342 C2345 1.539 . S
C2343 C2339 1.408 . S
C2343 C2342 1.404 . S
C2343 H2355 0.930 . S
C2344 C2340 1.524 . S
C2344 H2356 0.956 . S
C2344 H2357 0.961 . S
C2344 H2358 0.961 . S
C2345 C2342 1.539 . S
C2345 H2359 0.958 . S
C2345 H2360 0.961 . S
C2345 H2361 0.960 . S
H2346 C2330 0.931 . S
H2347 C2335 0.929 . S
H2348 C2336 0.960 . S
H2349 C2336 0.962 . S
H2350 C2336 0.960 . S
H2351 C2337 0.961 . S
H2352 C2337 0.961 . S
H2353 C2337 0.961 . S
H2354 C2338 0.931 . S
H2355 C2343 0.930 . S
H2356 C2344 0.956 . S
H2357 C2344 0.961 . S
H2358 C2344 0.961 . S
H2359 C2345 0.958 . S
H2360 C2345 0.961 . S
H2361 C2345 0.960 . S
C2362 C2363 1.391 . S
C2362 C2364 1.394 . S
C2362 H2378 0.931 . S
C2363 C2362 1.391 . S
C2363 C2367 1.376 . S
C2364 C2362 1.394 . S
C2364 C2365 1.369 . S
C2364 C2368 1.531 . S
C2365 C2364 1.369 . S
C2365 C2366 1.410 . S
C2365 C2373 1.503 . S
C2366 C2365 1.410 . S
C2366 C2367 1.392 . S
C2366 C2369 1.511 . S
C2367 C2363 1.376 . S
C2367 C2366 1.392 . S
C2367 H2379 0.929 . S
C2368 C2364 1.531 . S
C2368 H2380 0.960 . S
C2368 H2381 0.962 . S
C2368 H2382 0.960 . S
C2369 C2366 1.511 . S
C2369 H2383 0.961 . S
C2369 H2384 0.961 . S
C2369 H2385 0.961 . S
C2370 C2371 1.370 . S
C2370 C2372 1.363 . S
C2370 H2386 0.931 . S
C2371 C2370 1.370 . S
C2371 C2375 1.408 . S
C2372 C2370 1.363 . S
C2372 C2373 1.370 . S
C2372 C2376 1.524 . S
C2373 C2365 1.503 . S
C2373 C2372 1.370 . S
C2373 C2374 1.403 . S
C2374 C2373 1.403 . S
C2374 C2375 1.404 . S
C2374 C2377 1.539 . S
C2375 C2371 1.408 . S
C2375 C2374 1.404 . S
C2375 H2387 0.930 . S
C2376 C2372 1.524 . S
C2376 H2388 0.956 . S
C2376 H2389 0.961 . S
C2376 H2390 0.961 . S
C2377 C2374 1.539 . S
C2377 H2391 0.958 . S
C2377 H2392 0.961 . S
C2377 H2393 0.960 . S
H2378 C2362 0.931 . S
H2379 C2367 0.929 . S
H2380 C2368 0.960 . S
H2381 C2368 0.962 . S
H2382 C2368 0.960 . S
H2383 C2369 0.961 . S
H2384 C2369 0.961 . S
H2385 C2369 0.961 . S
H2386 C2370 0.931 . S
H2387 C2375 0.930 . S
H2388 C2376 0.956 . S
H2389 C2376 0.961 . S
H2390 C2376 0.961 . S
H2391 C2377 0.958 . S
H2392 C2377 0.961 . S
H2393 C2377 0.960 . S
C867 C683 1.513 . S
C859 C74 1.442 . S
C899 C673 0.606 . S
C891 C142 0.748 . S
C931 C674 1.147 . S
C923 C231 1.051 . S
C955 C322 1.373 . S
C963 C696 1.412 . S
C987 C406 0.935 . S
C995 C699 0.544 . S
C1027 C682 1.150 . S
C1019 C494 1.059 . S
C1051 C562 1.295 . S
C1059 C672 1.434 . S
C1083 C651 1.463 . S
C1091 C690 1.521 . S
C1123 C703 1.448 . S
C1115 C58 1.417 . S
C1147 C151 1.577 . S
C1155 C752 1.534 . S
C1187 C730 2.641 . S
C1179 C224 2.515 . S
C1219 C744 1.063 . S
C1211 C315 1.054 . S
C1243 C399 1.003 . S
C1251 C705 1.064 . S
C1283 C758 1.469 . S
C1275 C478 1.437 . S
C1307 C571 1.510 . S
C1315 C714 1.511 . S
C1339 C644 2.492 . S
C1347 C735 2.609 . S
C1371 C67 2.490 . S
C1379 C761 2.603 . S
C1403 C392 1.548 . S
C1411 C745 1.518 . S
C1443 C704 2.642 . S
C1435 C487 2.505 . S
C1475 C736 1.028 . S
C1467 C578 1.068 . S
C1499 C658 1.379 . S
C1507 C727 1.469 . S
C1531 C238 1.389 . S
C1539 C734 1.449 . S
C1571 C721 1.507 . S
C1563 C308 1.527 . S
C1595 C158 1.030 . S
C1603 C713 1.064 . S
C1627 C662 1.454 . S
C1635 C776 1.516 . S
C1659 C394 0.856 . S
C1667 C766 0.548 . S
C1699 C767 1.163 . S
C1691 C483 1.137 . S
C1731 C789 1.423 . S
C1723 C574 1.374 . S
C1755 C154 0.783 . S
C1763 C792 0.569 . S
C1795 C775 1.160 . S
C1787 C242 1.124 . S
C1819 C310 1.355 . S
C1827 C765 1.411 . S
C1851 C63 1.425 . S
C1859 C783 1.506 . S
C1883 C646 1.419 . S
C1891 C796 1.448 . S
C1923 C845 1.521 . S
C1915 C403 1.568 . S
C1947 C476 2.531 . S
C1955 C823 2.628 . S
C1979 C567 1.003 . S
C1987 C837 1.054 . S
C2019 C798 1.027 . S
C2011 C147 1.087 . S
C2043 C226 1.424 . S
C2051 C851 1.448 . S
C2083 C807 1.509 . S
C2075 C319 1.523 . S
C2115 C828 2.597 . S
C2107 C56 2.537 . S
C2147 C854 2.608 . S
C2139 C655 2.530 . S
C2171 C140 1.573 . S
C2179 C838 1.543 . S
C2203 C235 2.497 . S
C2211 C797 2.636 . S
C2243 C829 1.050 . S
C2235 C326 1.008 . S
C2267 C70 1.414 . S
C2275 C820 1.464 . S
C2299 C490 1.449 . S
C2307 C827 1.452 . S
C2339 C814 1.507 . S
C2331 C560 1.515 . S
C2371 C806 1.044 . S
C2363 C410 1.014 . S
