# Generated by pormake.
# Topology iac, (4,6)-cn, num edge types: 1
# Building blocks:
#     Node 0, Type 0, BuildingBlock: UXUYUI_clean_sbu_0, # of connection points: 4
#     Node 1, Type 0, BuildingBlock: UXUYUI_clean_sbu_0, # of connection points: 4
#     Node 2, Type 0, BuildingBlock: UXUYUI_clean_sbu_0, # of connection points: 4
#     Node 3, Type 0, BuildingBlock: UXUYUI_clean_sbu_0, # of connection points: 4
#     Node 4, Type 0, BuildingBlock: UXUYUI_clean_sbu_0, # of connection points: 4
#     Node 5, Type 0, BuildingBlock: UXUYUI_clean_sbu_0, # of connection points: 4
#     Node 6, Type 0, BuildingBlock: UXUYUI_clean_sbu_0, # of connection points: 4
#     Node 7, Type 0, BuildingBlock: UXUYUI_clean_sbu_0, # of connection points: 4
#     Node 8, Type 0, BuildingBlock: UXUYUI_clean_sbu_0, # of connection points: 4
#     Node 9, Type 0, BuildingBlock: UXUYUI_clean_sbu_0, # of connection points: 4
#     Node 10, Type 0, BuildingBlock: UXUYUI_clean_sbu_0, # of connection points: 4
#     Node 11, Type 0, BuildingBlock: UXUYUI_clean_sbu_0, # of connection points: 4
#     Node 12, Type 0, BuildingBlock: UXUYUI_clean_sbu_0, # of connection points: 4
#     Node 13, Type 0, BuildingBlock: UXUYUI_clean_sbu_0, # of connection points: 4
#     Node 14, Type 0, BuildingBlock: UXUYUI_clean_sbu_0, # of connection points: 4
#     Node 15, Type 0, BuildingBlock: UXUYUI_clean_sbu_0, # of connection points: 4
#     Node 16, Type 0, BuildingBlock: UXUYUI_clean_sbu_0, # of connection points: 4
#     Node 17, Type 0, BuildingBlock: UXUYUI_clean_sbu_0, # of connection points: 4
#     Node 18, Type 0, BuildingBlock: UXUYUI_clean_sbu_0, # of connection points: 4
#     Node 19, Type 0, BuildingBlock: UXUYUI_clean_sbu_0, # of connection points: 4
#     Node 20, Type 0, BuildingBlock: UXUYUI_clean_sbu_0, # of connection points: 4
#     Node 21, Type 0, BuildingBlock: UXUYUI_clean_sbu_0, # of connection points: 4
#     Node 22, Type 0, BuildingBlock: UXUYUI_clean_sbu_0, # of connection points: 4
#     Node 23, Type 0, BuildingBlock: UXUYUI_clean_sbu_0, # of connection points: 4
#     Node 24, Type 1, BuildingBlock: FUNLAD_clean_sbu_0, # of connection points: 6
#     Node 25, Type 1, BuildingBlock: FUNLAD_clean_sbu_0, # of connection points: 6
#     Node 26, Type 1, BuildingBlock: FUNLAD_clean_sbu_0, # of connection points: 6
#     Node 27, Type 1, BuildingBlock: FUNLAD_clean_sbu_0, # of connection points: 6
#     Node 28, Type 1, BuildingBlock: FUNLAD_clean_sbu_0, # of connection points: 6
#     Node 29, Type 1, BuildingBlock: FUNLAD_clean_sbu_0, # of connection points: 6
#     Node 30, Type 1, BuildingBlock: FUNLAD_clean_sbu_0, # of connection points: 6
#     Node 31, Type 1, BuildingBlock: FUNLAD_clean_sbu_0, # of connection points: 6
#     Node 32, Type 1, BuildingBlock: FUNLAD_clean_sbu_0, # of connection points: 6
#     Node 33, Type 1, BuildingBlock: FUNLAD_clean_sbu_0, # of connection points: 6
#     Node 34, Type 1, BuildingBlock: FUNLAD_clean_sbu_0, # of connection points: 6
#     Node 35, Type 1, BuildingBlock: FUNLAD_clean_sbu_0, # of connection points: 6
#     Node 36, Type 1, BuildingBlock: FUNLAD_clean_sbu_0, # of connection points: 6
#     Node 37, Type 1, BuildingBlock: FUNLAD_clean_sbu_0, # of connection points: 6
#     Node 38, Type 1, BuildingBlock: FUNLAD_clean_sbu_0, # of connection points: 6
#     Node 39, Type 1, BuildingBlock: FUNLAD_clean_sbu_0, # of connection points: 6
#     Edge 40, Type (0, 1), BuildingBlock: AJUNOK_clean_linker_0, # of connection points: 2
#     Edge 41, Type (0, 1), BuildingBlock: AJUNOK_clean_linker_0, # of connection points: 2
#     Edge 42, Type (0, 1), BuildingBlock: AJUNOK_clean_linker_0, # of connection points: 2
#     Edge 43, Type (0, 1), BuildingBlock: AJUNOK_clean_linker_0, # of connection points: 2
#     Edge 44, Type (0, 1), BuildingBlock: AJUNOK_clean_linker_0, # of connection points: 2
#     Edge 45, Type (0, 1), BuildingBlock: AJUNOK_clean_linker_0, # of connection points: 2
#     Edge 46, Type (0, 1), BuildingBlock: AJUNOK_clean_linker_0, # of connection points: 2
#     Edge 47, Type (0, 1), BuildingBlock: AJUNOK_clean_linker_0, # of connection points: 2
#     Edge 48, Type (0, 1), BuildingBlock: AJUNOK_clean_linker_0, # of connection points: 2
#     Edge 49, Type (0, 1), BuildingBlock: AJUNOK_clean_linker_0, # of connection points: 2
#     Edge 50, Type (0, 1), BuildingBlock: AJUNOK_clean_linker_0, # of connection points: 2
#     Edge 51, Type (0, 1), BuildingBlock: AJUNOK_clean_linker_0, # of connection points: 2
#     Edge 52, Type (0, 1), BuildingBlock: AJUNOK_clean_linker_0, # of connection points: 2
#     Edge 53, Type (0, 1), BuildingBlock: AJUNOK_clean_linker_0, # of connection points: 2
#     Edge 54, Type (0, 1), BuildingBlock: AJUNOK_clean_linker_0, # of connection points: 2
#     Edge 55, Type (0, 1), BuildingBlock: AJUNOK_clean_linker_0, # of connection points: 2
#     Edge 56, Type (0, 1), BuildingBlock: AJUNOK_clean_linker_0, # of connection points: 2
#     Edge 57, Type (0, 1), BuildingBlock: AJUNOK_clean_linker_0, # of connection points: 2
#     Edge 58, Type (0, 1), BuildingBlock: AJUNOK_clean_linker_0, # of connection points: 2
#     Edge 59, Type (0, 1), BuildingBlock: AJUNOK_clean_linker_0, # of connection points: 2
#     Edge 60, Type (0, 1), BuildingBlock: AJUNOK_clean_linker_0, # of connection points: 2
#     Edge 61, Type (0, 1), BuildingBlock: AJUNOK_clean_linker_0, # of connection points: 2
#     Edge 62, Type (0, 1), BuildingBlock: AJUNOK_clean_linker_0, # of connection points: 2
#     Edge 63, Type (0, 1), BuildingBlock: AJUNOK_clean_linker_0, # of connection points: 2
#     Edge 64, Type (0, 1), BuildingBlock: AJUNOK_clean_linker_0, # of connection points: 2
#     Edge 65, Type (0, 1), BuildingBlock: AJUNOK_clean_linker_0, # of connection points: 2
#     Edge 66, Type (0, 1), BuildingBlock: AJUNOK_clean_linker_0, # of connection points: 2
#     Edge 67, Type (0, 1), BuildingBlock: AJUNOK_clean_linker_0, # of connection points: 2
#     Edge 68, Type (0, 1), BuildingBlock: AJUNOK_clean_linker_0, # of connection points: 2
#     Edge 69, Type (0, 1), BuildingBlock: AJUNOK_clean_linker_0, # of connection points: 2
#     Edge 70, Type (0, 1), BuildingBlock: AJUNOK_clean_linker_0, # of connection points: 2
#     Edge 71, Type (0, 1), BuildingBlock: AJUNOK_clean_linker_0, # of connection points: 2
#     Edge 72, Type (0, 1), BuildingBlock: AJUNOK_clean_linker_0, # of connection points: 2
#     Edge 73, Type (0, 1), BuildingBlock: AJUNOK_clean_linker_0, # of connection points: 2
#     Edge 74, Type (0, 1), BuildingBlock: AJUNOK_clean_linker_0, # of connection points: 2
#     Edge 75, Type (0, 1), BuildingBlock: AJUNOK_clean_linker_0, # of connection points: 2
#     Edge 76, Type (0, 1), BuildingBlock: AJUNOK_clean_linker_0, # of connection points: 2
#     Edge 77, Type (0, 1), BuildingBlock: AJUNOK_clean_linker_0, # of connection points: 2
#     Edge 78, Type (0, 1), BuildingBlock: AJUNOK_clean_linker_0, # of connection points: 2
#     Edge 79, Type (0, 1), BuildingBlock: AJUNOK_clean_linker_0, # of connection points: 2
#     Edge 80, Type (0, 1), BuildingBlock: AJUNOK_clean_linker_0, # of connection points: 2
#     Edge 81, Type (0, 1), BuildingBlock: AJUNOK_clean_linker_0, # of connection points: 2
#     Edge 82, Type (0, 1), BuildingBlock: AJUNOK_clean_linker_0, # of connection points: 2
#     Edge 83, Type (0, 1), BuildingBlock: AJUNOK_clean_linker_0, # of connection points: 2
#     Edge 84, Type (0, 1), BuildingBlock: AJUNOK_clean_linker_0, # of connection points: 2
#     Edge 85, Type (0, 1), BuildingBlock: AJUNOK_clean_linker_0, # of connection points: 2
#     Edge 86, Type (0, 1), BuildingBlock: AJUNOK_clean_linker_0, # of connection points: 2
#     Edge 87, Type (0, 1), BuildingBlock: AJUNOK_clean_linker_0, # of connection points: 2
#     Edge 88, Type (0, 1), BuildingBlock: AJUNOK_clean_linker_0, # of connection points: 2
#     Edge 89, Type (0, 1), BuildingBlock: AJUNOK_clean_linker_0, # of connection points: 2
#     Edge 90, Type (0, 1), BuildingBlock: AJUNOK_clean_linker_0, # of connection points: 2
#     Edge 91, Type (0, 1), BuildingBlock: AJUNOK_clean_linker_0, # of connection points: 2
#     Edge 92, Type (0, 1), BuildingBlock: AJUNOK_clean_linker_0, # of connection points: 2
#     Edge 93, Type (0, 1), BuildingBlock: AJUNOK_clean_linker_0, # of connection points: 2
#     Edge 94, Type (0, 1), BuildingBlock: AJUNOK_clean_linker_0, # of connection points: 2
#     Edge 95, Type (0, 1), BuildingBlock: AJUNOK_clean_linker_0, # of connection points: 2
#     Edge 96, Type (0, 1), BuildingBlock: AJUNOK_clean_linker_0, # of connection points: 2
#     Edge 97, Type (0, 1), BuildingBlock: AJUNOK_clean_linker_0, # of connection points: 2
#     Edge 98, Type (0, 1), BuildingBlock: AJUNOK_clean_linker_0, # of connection points: 2
#     Edge 99, Type (0, 1), BuildingBlock: AJUNOK_clean_linker_0, # of connection points: 2
#     Edge 100, Type (0, 1), BuildingBlock: AJUNOK_clean_linker_0, # of connection points: 2
#     Edge 101, Type (0, 1), BuildingBlock: AJUNOK_clean_linker_0, # of connection points: 2
#     Edge 102, Type (0, 1), BuildingBlock: AJUNOK_clean_linker_0, # of connection points: 2
#     Edge 103, Type (0, 1), BuildingBlock: AJUNOK_clean_linker_0, # of connection points: 2
#     Edge 104, Type (0, 1), BuildingBlock: AJUNOK_clean_linker_0, # of connection points: 2
#     Edge 105, Type (0, 1), BuildingBlock: AJUNOK_clean_linker_0, # of connection points: 2
#     Edge 106, Type (0, 1), BuildingBlock: AJUNOK_clean_linker_0, # of connection points: 2
#     Edge 107, Type (0, 1), BuildingBlock: AJUNOK_clean_linker_0, # of connection points: 2
#     Edge 108, Type (0, 1), BuildingBlock: AJUNOK_clean_linker_0, # of connection points: 2
#     Edge 109, Type (0, 1), BuildingBlock: AJUNOK_clean_linker_0, # of connection points: 2
#     Edge 110, Type (0, 1), BuildingBlock: AJUNOK_clean_linker_0, # of connection points: 2
#     Edge 111, Type (0, 1), BuildingBlock: AJUNOK_clean_linker_0, # of connection points: 2
#     Edge 112, Type (0, 1), BuildingBlock: AJUNOK_clean_linker_0, # of connection points: 2
#     Edge 113, Type (0, 1), BuildingBlock: AJUNOK_clean_linker_0, # of connection points: 2
#     Edge 114, Type (0, 1), BuildingBlock: AJUNOK_clean_linker_0, # of connection points: 2
#     Edge 115, Type (0, 1), BuildingBlock: AJUNOK_clean_linker_0, # of connection points: 2
#     Edge 116, Type (0, 1), BuildingBlock: AJUNOK_clean_linker_0, # of connection points: 2
#     Edge 117, Type (0, 1), BuildingBlock: AJUNOK_clean_linker_0, # of connection points: 2
#     Edge 118, Type (0, 1), BuildingBlock: AJUNOK_clean_linker_0, # of connection points: 2
#     Edge 119, Type (0, 1), BuildingBlock: AJUNOK_clean_linker_0, # of connection points: 2
#     Edge 120, Type (0, 1), BuildingBlock: AJUNOK_clean_linker_0, # of connection points: 2
#     Edge 121, Type (0, 1), BuildingBlock: AJUNOK_clean_linker_0, # of connection points: 2
#     Edge 122, Type (0, 1), BuildingBlock: AJUNOK_clean_linker_0, # of connection points: 2
#     Edge 123, Type (0, 1), BuildingBlock: AJUNOK_clean_linker_0, # of connection points: 2
#     Edge 124, Type (0, 1), BuildingBlock: AJUNOK_clean_linker_0, # of connection points: 2
#     Edge 125, Type (0, 1), BuildingBlock: AJUNOK_clean_linker_0, # of connection points: 2
#     Edge 126, Type (0, 1), BuildingBlock: AJUNOK_clean_linker_0, # of connection points: 2
#     Edge 127, Type (0, 1), BuildingBlock: AJUNOK_clean_linker_0, # of connection points: 2
#     Edge 128, Type (0, 1), BuildingBlock: AJUNOK_clean_linker_0, # of connection points: 2
#     Edge 129, Type (0, 1), BuildingBlock: AJUNOK_clean_linker_0, # of connection points: 2
#     Edge 130, Type (0, 1), BuildingBlock: AJUNOK_clean_linker_0, # of connection points: 2
#     Edge 131, Type (0, 1), BuildingBlock: AJUNOK_clean_linker_0, # of connection points: 2
#     Edge 132, Type (0, 1), BuildingBlock: AJUNOK_clean_linker_0, # of connection points: 2
#     Edge 133, Type (0, 1), BuildingBlock: AJUNOK_clean_linker_0, # of connection points: 2
#     Edge 134, Type (0, 1), BuildingBlock: AJUNOK_clean_linker_0, # of connection points: 2
#     Edge 135, Type (0, 1), BuildingBlock: AJUNOK_clean_linker_0, # of connection points: 2
# Relax obj value: 0.365
# Max RMSD: 0.286
# Mean RMSD: 0.189
data_MOF--net-iac--node1-UXUYUI_clean_sbu_0--node2-FUNLAD_clean_sbu_0--edge1-AJUNOK_clean_linker_0
_symmetry_space_group_name_H-M    P1
_symmetry_Int_Tables_number       1
_symmetry_cell_setting            triclinic
loop_
_symmetry_equiv_pos_as_xyz
'x, y, z'
_cell_length_a     53.93459
_cell_length_b     52.004108
_cell_length_c     57.372102
_cell_angle_alpha  89.919672
_cell_angle_beta   92.167418
_cell_angle_gamma 89.869767
loop_
_atom_site_label
_atom_site_type_symbol
_atom_site_fract_x
_atom_site_fract_y
_atom_site_fract_z
_atom_type_partial_charge
Li0 Li 0.05654 0.2447 0.14962 0.0
Li1 Li 0.08384 0.23336 0.18151 0.0
Li2 Li 0.06979 0.20055 0.15399 0.0
Li3 Li 0.04356 0.21877 0.18259 0.0
C4 C 0.10853 0.22355 0.13453 0.0
N5 N 0.14661 0.20919 0.10638 0.0
C6 C 0.13227 0.21891 0.14427 0.0
C7 C 0.10417 0.22094 0.11047 0.0
C8 C 0.15128 0.21169 0.12973 0.0
C9 C 0.12365 0.21361 0.09654 0.0
C10 C 0.06056 0.27457 0.19667 0.0
C11 C 0.07328 0.29049 0.23475 0.0
N12 N 0.07669 0.31422 0.22543 0.0
C13 C 0.06401 0.29917 0.1875 0.0
C14 C 0.06504 0.27023 0.22053 0.0
C15 C 0.07224 0.31894 0.20233 0.0
C16 C 0.0301 0.28335 0.12262 0.0
N17 N 0.05198 0.27137 0.12805 0.0
C18 C 0.07405 0.30002 0.10408 0.0
C19 C 0.07369 0.27951 0.11935 0.0
C20 C 0.05191 0.3127 0.09811 0.0
C21 C 0.02963 0.30433 0.10743 0.0
H22 H 0.01327 0.27717 0.13056 0.0
H23 H 0.09103 0.2709 0.12496 0.0
C24 C 0.12116 0.24257 0.2168 0.0
N25 N 0.11055 0.24913 0.19586 0.0
C26 C 0.14109 0.25688 0.2257 0.0
C27 C 0.13785 0.28448 0.19156 0.0
C28 C 0.11815 0.26967 0.18335 0.0
C29 C 0.1497 0.27775 0.2127 0.0
H30 H 0.11432 0.22624 0.2263 0.0
H31 H 0.10885 0.2744 0.16688 0.0
C32 C 0.01681 0.22069 0.13366 0.0
N33 N 0.97889 0.23497 0.10253 0.0
C34 C 0.99347 0.22711 0.14175 0.0
C35 C 0.02085 0.22156 0.10973 0.0
C36 C 0.97453 0.23428 0.12572 0.0
C37 C 0.00145 0.22882 0.09428 0.0
C38 C 0.0664 0.17948 0.20351 0.0
C39 C 0.06058 0.1548 0.19543 0.0
C40 C 0.06366 0.1855 0.22701 0.0
C41 C 0.05169 0.13661 0.21098 0.0
C42 C 0.05466 0.16678 0.24199 0.0
N43 N 0.04889 0.14295 0.23373 0.0
C44 C 0.09919 0.16167 0.13178 0.0
C45 C 0.05634 0.16598 0.12145 0.0
C46 C 0.10211 0.14379 0.11387 0.0
N47 N 0.07656 0.17257 0.13483 0.0
C48 C 0.05853 0.14909 0.10316 0.0
C49 C 0.08154 0.13787 0.09924 0.0
H50 H 0.1149 0.16704 0.14296 0.0
H51 H 0.03841 0.17386 0.12489 0.0
C52 C 0.00832 0.23 0.21507 0.0
N53 N 0.01678 0.21137 0.20084 0.0
C54 C 0.98597 0.22671 0.22589 0.0
C55 C 0.98206 0.18468 0.20794 0.0
C56 C 0.0045 0.18883 0.19737 0.0
C57 C 0.97244 0.20415 0.22175 0.0
H58 H 0.01808 0.24799 0.21688 0.0
H59 H 0.01143 0.17479 0.18534 0.0
O60 O 0.08971 0.23112 0.14836 0.0
O61 O 0.05298 0.25484 0.18233 0.0
O62 O 0.03551 0.21315 0.14899 0.0
O63 O 0.07504 0.19756 0.18853 0.0
H64 H 0.13599 0.22076 0.16285 0.0
H65 H 0.08589 0.22447 0.10266 0.0
H66 H 0.16975 0.20804 0.13702 0.0
H67 H 0.12052 0.21143 0.07791 0.0
H68 H 0.07704 0.28732 0.25319 0.0
H69 H 0.0606 0.3029 0.1691 0.0
H70 H 0.06261 0.25129 0.2279 0.0
H71 H 0.07514 0.33803 0.19545 0.0
H72 H 0.09168 0.30677 0.09799 0.0
H73 H 0.01233 0.31433 0.10351 0.0
H74 H 0.15039 0.25106 0.24194 0.0
H75 H 0.14435 0.30034 0.18118 0.0
H76 H 0.98997 0.22661 0.16018 0.0
H77 H 0.03884 0.21679 0.10317 0.0
H78 H 0.95638 0.23931 0.13173 0.0
H79 H 0.00435 0.22959 0.07573 0.0
H80 H 0.06274 0.14979 0.17732 0.0
H81 H 0.06827 0.20445 0.23356 0.0
H82 H 0.047 0.11746 0.20497 0.0
H83 H 0.05226 0.17121 0.26018 0.0
H84 H 0.11984 0.13446 0.11172 0.0
H85 H 0.04209 0.14383 0.09279 0.0
H86 H 0.97853 0.24223 0.23612 0.0
H87 H 0.97155 0.16736 0.20411 0.0
Li88 Li 0.01037 0.76186 0.37972 0.0
Li89 Li 0.03435 0.78632 0.41212 0.0
Li90 Li 0.05879 0.76038 0.38065 0.0
Li91 Li 0.03508 0.73748 0.41287 0.0
C92 C 0.0315 0.80914 0.36055 0.0
N93 N 0.02375 0.84644 0.32676 0.0
C94 C 0.02045 0.83253 0.36621 0.0
C95 C 0.03872 0.80471 0.33778 0.0
C96 C 0.01666 0.85114 0.34886 0.0
C97 C 0.03461 0.82383 0.32092 0.0
C98 C 0.98964 0.7648 0.43126 0.0
C99 C 0.97958 0.76385 0.47183 0.0
N100 N 0.95578 0.77047 0.46581 0.0
C101 C 0.9651 0.7716 0.42545 0.0
C102 C 0.99699 0.7609 0.45461 0.0
C103 C 0.94825 0.77439 0.44319 0.0
C104 C 0.96222 0.74205 0.36417 0.0
N105 N 0.97823 0.76197 0.36124 0.0
C106 C 0.94757 0.78318 0.33621 0.0
C107 C 0.9712 0.78232 0.34747 0.0
C108 C 0.93058 0.76296 0.33895 0.0
C109 C 0.93834 0.74219 0.35327 0.0
H110 H 0.9678 0.72616 0.37539 0.0
H111 H 0.98366 0.79829 0.3455 0.0
C112 C 0.05369 0.8288 0.44085 0.0
N113 N 0.03282 0.81784 0.43112 0.0
C114 C 0.0522 0.85157 0.45399 0.0
C115 C 0.00788 0.8515 0.44701 0.0
C116 C 0.01018 0.82877 0.43409 0.0
C117 C 0.02907 0.86346 0.45704 0.0
H118 H 0.07157 0.82002 0.43825 0.0
H119 H 0.99379 0.82001 0.42615 0.0
C120 C 0.03451 0.71368 0.3609 0.0
N121 N 0.03573 0.67754 0.32577 0.0
C122 C 0.04052 0.68813 0.36619 0.0
C123 C 0.02907 0.7209 0.33781 0.0
C124 C 0.04107 0.67013 0.34816 0.0
C125 C 0.0298 0.70232 0.32028 0.0
C126 C 0.08044 0.75802 0.43371 0.0
C127 C 0.10377 0.74775 0.42929 0.0
C128 C 0.07461 0.7644 0.45651 0.0
C129 C 0.12087 0.74388 0.44788 0.0
C130 C 0.09222 0.76022 0.47461 0.0
N131 N 0.11479 0.75014 0.46996 0.0
C132 C 0.10412 0.78071 0.36082 0.0
C133 C 0.09767 0.73671 0.35267 0.0
C134 C 0.12678 0.78024 0.3493 0.0
N135 N 0.08993 0.75913 0.36243 0.0
C136 C 0.12012 0.73546 0.34085 0.0
C137 C 0.13523 0.7574 0.33897 0.0
H138 H 0.09799 0.79837 0.36875 0.0
H139 H 0.08665 0.71953 0.35434 0.0
C140 C 0.01298 0.69798 0.4411 0.0
N141 N 0.03482 0.70664 0.43281 0.0
C142 C 0.01221 0.67542 0.4546 0.0
C143 C 0.05633 0.67074 0.45073 0.0
C144 C 0.05631 0.69351 0.43752 0.0
C145 C 0.03403 0.66121 0.45931 0.0
H146 H 0.99598 0.7083 0.4369 0.0
H147 H 0.07346 0.70042 0.43064 0.0
O148 O 0.03543 0.79075 0.37731 0.0
O149 O 0.00623 0.76147 0.41407 0.0
O150 O 0.0337 0.73147 0.37835 0.0
O151 O 0.06371 0.76251 0.41566 0.0
H152 H 0.0148 0.83623 0.38379 0.0
H153 H 0.04738 0.78671 0.33319 0.0
H154 H 0.00807 0.86932 0.35296 0.0
H155 H 0.04006 0.82069 0.30319 0.0
H156 H 0.98498 0.76078 0.48998 0.0
H157 H 0.95913 0.7747 0.40745 0.0
H158 H 0.01584 0.75533 0.45935 0.0
H159 H 0.92918 0.77962 0.43896 0.0
H160 H 0.94246 0.79995 0.32589 0.0
H161 H 0.92605 0.72611 0.35601 0.0
H162 H 0.06908 0.8601 0.46127 0.0
H163 H 0.9896 0.85962 0.44915 0.0
H164 H 0.04472 0.68228 0.38402 0.0
H165 H 0.0243 0.74062 0.33351 0.0
H166 H 0.0457 0.65028 0.35196 0.0
H167 H 0.02562 0.70758 0.30231 0.0
H168 H 0.10861 0.7429 0.41169 0.0
H169 H 0.05679 0.77273 0.46015 0.0
H170 H 0.13901 0.73596 0.44474 0.0
H171 H 0.08798 0.76509 0.49235 0.0
H172 H 0.13758 0.79771 0.3484 0.0
H173 H 0.12588 0.7172 0.33377 0.0
H174 H 0.99458 0.66868 0.46064 0.0
H175 H 0.07363 0.66051 0.45402 0.0
Li176 Li 0.58319 0.71193 0.6807 0.0
Li177 Li 0.57094 0.74689 0.65417 0.0
Li178 Li 0.54239 0.72434 0.67962 0.0
Li179 Li 0.55983 0.70275 0.64623 0.0
C180 C 0.56118 0.76488 0.70318 0.0
N181 N 0.54065 0.80146 0.73168 0.0
C182 C 0.55903 0.79046 0.6958 0.0
C183 C 0.5534 0.75807 0.72533 0.0
C184 C 0.54848 0.80862 0.71038 0.0
C185 C 0.54291 0.7768 0.7394 0.0
C186 C 0.60922 0.72092 0.63118 0.0
C187 C 0.61747 0.72789 0.59064 0.0
N188 N 0.64222 0.72831 0.59612 0.0
C189 C 0.63475 0.72145 0.63642 0.0
C190 C 0.60049 0.7242 0.60812 0.0
C191 C 0.65113 0.72521 0.61844 0.0
C192 C 0.62576 0.68334 0.69056 0.0
N193 N 0.60866 0.69943 0.69939 0.0
C194 C 0.63268 0.70546 0.73416 0.0
C195 C 0.61085 0.70907 0.72124 0.0
C196 C 0.65252 0.69295 0.7237 0.0
C197 C 0.6482 0.67951 0.70277 0.0
H198 H 0.62293 0.67565 0.67316 0.0
H199 H 0.59656 0.72145 0.72771 0.0
C200 C 0.55602 0.79052 0.63199 0.0
N201 N 0.57702 0.77725 0.6379 0.0
C202 C 0.55709 0.81212 0.61794 0.0
C203 C 0.60157 0.80631 0.61637 0.0
C204 C 0.59964 0.78474 0.63069 0.0
C205 C 0.58003 0.82009 0.60997 0.0
H206 H 0.53838 0.78429 0.63827 0.0
H207 H 0.61608 0.77397 0.63589 0.0
C208 C 0.56305 0.66869 0.69074 0.0
N209 N 0.58075 0.62831 0.7179 0.0
C210 C 0.57072 0.64595 0.68026 0.0
C211 C 0.56424 0.6708 0.71509 0.0
C212 C 0.57962 0.62573 0.69431 0.0
C213 C 0.5733 0.65021 0.7285 0.0
C214 C 0.51917 0.73426 0.62992 0.0
C215 C 0.49489 0.72817 0.63564 0.0
C216 C 0.52433 0.74015 0.60681 0.0
C217 C 0.47631 0.72742 0.61801 0.0
C218 C 0.50524 0.73913 0.58969 0.0
N219 N 0.48184 0.73278 0.59559 0.0
C220 C 0.50037 0.74811 0.69868 0.0
C221 C 0.50823 0.70427 0.70783 0.0
C222 C 0.47977 0.74805 0.71259 0.0
N223 N 0.51418 0.7264 0.6969 0.0
C224 C 0.48857 0.70358 0.72249 0.0
C225 C 0.47397 0.72556 0.72491 0.0
H226 H 0.50529 0.76525 0.68922 0.0
H227 H 0.51849 0.68692 0.70503 0.0
C228 C 0.57488 0.66745 0.61352 0.0
N229 N 0.55507 0.68001 0.622 0.0
C230 C 0.57174 0.65179 0.59403 0.0
C231 C 0.52813 0.66314 0.59235 0.0
C232 C 0.53188 0.67714 0.61257 0.0
C233 C 0.5481 0.64984 0.58304 0.0
H234 H 0.59299 0.66936 0.62209 0.0
H235 H 0.51623 0.68551 0.62075 0.0
O236 O 0.57162 0.74684 0.68913 0.0
O237 O 0.59299 0.7171 0.64861 0.0
O238 O 0.5542 0.68872 0.67727 0.0
O239 O 0.53783 0.73379 0.64678 0.0
H240 H 0.56567 0.79638 0.67914 0.0
H241 H 0.55502 0.73843 0.73146 0.0
H242 H 0.54662 0.82844 0.70479 0.0
H243 H 0.5365 0.77171 0.75644 0.0
H244 H 0.61096 0.73039 0.57271 0.0
H245 H 0.64183 0.7191 0.6542 0.0
H246 H 0.58085 0.72377 0.60376 0.0
H247 H 0.67092 0.72568 0.62224 0.0
H248 H 0.63519 0.71613 0.75028 0.0
H249 H 0.66313 0.66956 0.69443 0.0
H250 H 0.54019 0.8226 0.6134 0.0
H251 H 0.61957 0.81242 0.61072 0.0
H252 H 0.56982 0.64394 0.66148 0.0
H253 H 0.55863 0.68836 0.72355 0.0
H254 H 0.58565 0.60798 0.68647 0.0
H255 H 0.57449 0.65167 0.74732 0.0
H256 H 0.49053 0.72341 0.65336 0.0
H257 H 0.54291 0.74514 0.60207 0.0
H258 H 0.45752 0.72237 0.62213 0.0
H259 H 0.50904 0.7433 0.5717 0.0
H260 H 0.46828 0.76511 0.71324 0.0
H261 H 0.48455 0.68582 0.73147 0.0
H262 H 0.58739 0.64077 0.58824 0.0
H263 H 0.50952 0.66193 0.58466 0.0
Li264 Li 0.51047 0.26284 0.87821 0.0
Li265 Li 0.53492 0.28693 0.91044 0.0
Li266 Li 0.55854 0.26099 0.8789 0.0
Li267 Li 0.53521 0.23786 0.9112 0.0
C268 C 0.53107 0.30931 0.85834 0.0
N269 N 0.52208 0.34508 0.8234 0.0
C270 C 0.5219 0.33365 0.86373 0.0
C271 C 0.53572 0.30313 0.83521 0.0
C272 C 0.51745 0.35147 0.84581 0.0
C273 C 0.53105 0.3215 0.81779 0.0
C274 C 0.49033 0.2654 0.92996 0.0
C275 C 0.47985 0.26131 0.97026 0.0
N276 N 0.4568 0.27075 0.96482 0.0
C277 C 0.46654 0.27497 0.92473 0.0
C278 C 0.49706 0.25841 0.95285 0.0
C279 C 0.44986 0.27758 0.94262 0.0
C280 C 0.46246 0.24282 0.86332 0.0
N281 N 0.47825 0.26285 0.86004 0.0
C282 C 0.44743 0.28319 0.83459 0.0
C283 C 0.47101 0.28288 0.84597 0.0
C284 C 0.43072 0.26281 0.83765 0.0
C285 C 0.43862 0.24246 0.85239 0.0
H286 H 0.46824 0.2272 0.87477 0.0
H287 H 0.48322 0.299 0.8438 0.0
C288 C 0.55474 0.32805 0.9405 0.0
N289 N 0.53389 0.31843 0.92955 0.0
C290 C 0.55369 0.35061 0.95394 0.0
C291 C 0.50992 0.35358 0.94423 0.0
C292 C 0.51173 0.3308 0.93124 0.0
C293 C 0.53104 0.36378 0.95596 0.0
H294 H 0.57231 0.31836 0.93868 0.0
H295 H 0.4954 0.32316 0.92224 0.0
C296 C 0.53574 0.21437 0.85945 0.0
N297 N 0.53933 0.17769 0.82499 0.0
C298 C 0.54423 0.18965 0.86508 0.0
C299 C 0.52903 0.22048 0.83634 0.0
C300 C 0.54592 0.17136 0.8474 0.0
C301 C 0.53101 0.20166 0.81915 0.0
C302 C 0.58071 0.26 0.93224 0.0
C303 C 0.60495 0.25193 0.9284 0.0
C304 C 0.57375 0.26567 0.95489 0.0
C305 C 0.62185 0.24959 0.94736 0.0
C306 C 0.59119 0.2631 0.97338 0.0
N307 N 0.61468 0.25518 0.96926 0.0
C308 C 0.59804 0.28024 0.84928 0.0
C309 C 0.60222 0.23657 0.86009 0.0
C310 C 0.62042 0.27917 0.83735 0.0
N311 N 0.58927 0.25912 0.86045 0.0
C312 C 0.62484 0.23478 0.84866 0.0
C313 C 0.63446 0.25631 0.83716 0.0
H314 H 0.58791 0.29817 0.84993 0.0
H315 H 0.59523 0.21996 0.86909 0.0
C316 C 0.51273 0.19234 0.92883 0.0
N317 N 0.53374 0.2068 0.93087 0.0
C318 C 0.51021 0.16979 0.94205 0.0
C319 C 0.55082 0.17725 0.95961 0.0
C320 C 0.55269 0.19954 0.94588 0.0
C321 C 0.52935 0.16196 0.95786 0.0
H322 H 0.49788 0.19829 0.91679 0.0
H323 H 0.56946 0.2108 0.94714 0.0
O324 O 0.53558 0.29167 0.87566 0.0
O325 O 0.5067 0.26223 0.91259 0.0
O326 O 0.53329 0.23225 0.87662 0.0
O327 O 0.56402 0.2626 0.91385 0.0
H328 H 0.51824 0.33872 0.88155 0.0
H329 H 0.54282 0.28435 0.83078 0.0
H330 H 0.51032 0.37037 0.84971 0.0
H331 H 0.53455 0.31702 0.7998 0.0
H332 H 0.48478 0.25596 0.98807 0.0
H333 H 0.46104 0.28033 0.90704 0.0
H334 H 0.51529 0.25063 0.95711 0.0
H335 H 0.43137 0.28498 0.93885 0.0
H336 H 0.44214 0.29964 0.82392 0.0
H337 H 0.4265 0.22631 0.85538 0.0
H338 H 0.57056 0.35799 0.96227 0.0
H339 H 0.49209 0.36307 0.94519 0.0
H340 H 0.54933 0.18463 0.88296 0.0
H341 H 0.52222 0.2395 0.83178 0.0
H342 H 0.55241 0.15212 0.85149 0.0
H343 H 0.52585 0.20607 0.80118 0.0
H344 H 0.61066 0.24755 0.91097 0.0
H345 H 0.55511 0.27211 0.95813 0.0
H346 H 0.64068 0.24337 0.94465 0.0
H347 H 0.58607 0.26745 0.99099 0.0
H348 H 0.62707 0.29634 0.82891 0.0
H349 H 0.63476 0.21665 0.84885 0.0
H350 H 0.49334 0.15863 0.94001 0.0
H351 H 0.56632 0.17174 0.97111 0.0
Li352 Li 0.14278 0.01287 0.27286 0.0
Li353 Li 0.17653 0.03293 0.252 0.0
Li354 Li 0.14323 0.00848 0.23032 0.0
Li355 Li 0.17612 0.98614 0.25373 0.0
C356 C 0.12196 0.05804 0.24912 0.0
N357 N 0.08426 0.09411 0.24949 0.0
C358 C 0.12741 0.08393 0.25339 0.0
C359 C 0.09737 0.05058 0.24472 0.0
C360 C 0.10809 0.10186 0.25358 0.0
C361 C 0.07856 0.06909 0.24507 0.0
C362 C 0.19713 0.01754 0.29618 0.0
C363 C 0.24036 0.02176 0.30792 0.0
N364 N 0.2337 0.03086 0.329 0.0
C365 C 0.19072 0.02683 0.31801 0.0
C366 C 0.22215 0.01486 0.29113 0.0
C367 C 0.20947 0.0335 0.33434 0.0
C368 C 0.11591 0.99604 0.31113 0.0
N369 N 0.12362 0.01706 0.29936 0.0
C370 C 0.10809 0.04512 0.32832 0.0
C371 C 0.1199 0.04128 0.30741 0.0
C372 C 0.10058 0.02378 0.34116 0.0
C373 C 0.10423 0.99898 0.33225 0.0
H374 H 0.11952 0.97701 0.30444 0.0
H375 H 0.12696 0.05759 0.29808 0.0
C376 C 0.20929 0.07144 0.23536 0.0
N377 N 0.19579 0.06264 0.25322 0.0
C378 C 0.22107 0.09528 0.23724 0.0
C379 C 0.2049 0.09999 0.2758 0.0
C380 C 0.1935 0.07626 0.27317 0.0
C381 C 0.21863 0.1099 0.25759 0.0
H382 H 0.21037 0.06034 0.21952 0.0
H383 H 0.18188 0.0691 0.28667 0.0
C384 C 0.12008 0.96435 0.25019 0.0
N385 N 0.08089 0.93105 0.24195 0.0
C386 C 0.12449 0.93915 0.24294 0.0
C387 C 0.09579 0.97246 0.25368 0.0
C388 C 0.10442 0.92265 0.23875 0.0
C389 C 0.07621 0.95538 0.2493 0.0
C390 C 0.19713 0.0059 0.20993 0.0
C391 C 0.19022 0.00487 0.18622 0.0
C392 C 0.22222 0.00483 0.21684 0.0
C393 C 0.20859 0.00286 0.16979 0.0
C394 C 0.24004 0.00283 0.19988 0.0
N395 N 0.23292 0.0019 0.1769 0.0
C396 C 0.11806 0.02831 0.19048 0.0
C397 C 0.11972 0.98276 0.19277 0.0
C398 C 0.10611 0.02703 0.16852 0.0
N399 N 0.1245 0.00633 0.20207 0.0
C400 C 0.10744 0.98058 0.17109 0.0
C401 C 0.10072 0.0029 0.15875 0.0
H402 H 0.12277 0.04679 0.19804 0.0
H403 H 0.12611 0.96567 0.20182 0.0
C404 C 0.20725 0.94976 0.27579 0.0
N405 N 0.19567 0.95637 0.25524 0.0
C406 C 0.22083 0.92701 0.27758 0.0
C407 C 0.2103 0.91835 0.23697 0.0
C408 C 0.1972 0.94152 0.23588 0.0
C409 C 0.22188 0.91065 0.25817 0.0
H410 H 0.20557 0.96193 0.2909 0.0
H411 H 0.18768 0.94738 0.2198 0.0
O412 O 0.14073 0.04029 0.2488 0.0
O413 O 0.17896 0.01051 0.28014 0.0
O414 O 0.13954 0.98075 0.25428 0.0
O415 O 0.17931 0.00821 0.22616 0.0
H416 H 0.14634 0.09018 0.25648 0.0
H417 H 0.09286 0.03079 0.24082 0.0
H418 H 0.11204 0.12194 0.25692 0.0
H419 H 0.05943 0.06357 0.24173 0.0
H420 H 0.25979 0.01977 0.30422 0.0
H421 H 0.17146 0.0288 0.32232 0.0
H422 H 0.22747 0.00732 0.27454 0.0
H423 H 0.20476 0.04072 0.35129 0.0
H424 H 0.1058 0.06447 0.33489 0.0
H425 H 0.09854 0.98212 0.34176 0.0
H426 H 0.23171 0.1023 0.22292 0.0
H427 H 0.20221 0.11091 0.29158 0.0
H428 H 0.14322 0.93249 0.24039 0.0
H429 H 0.09211 0.99164 0.2599 0.0
H430 H 0.10754 0.90316 0.23295 0.0
H431 H 0.05731 0.96144 0.25183 0.0
H432 H 0.17088 0.00573 0.18054 0.0
H433 H 0.22791 0.00565 0.23505 0.0
H434 H 0.20351 0.00211 0.15138 0.0
H435 H 0.25955 0.00205 0.20498 0.0
H436 H 0.10125 0.04458 0.15921 0.0
H437 H 0.10387 0.96172 0.16372 0.0
H438 H 0.23003 0.92204 0.29408 0.0
H439 H 0.21067 0.90623 0.22165 0.0
Li440 Li 0.26011 0.92163 0.5532 0.0
Li441 Li 0.28367 0.88683 0.57551 0.0
Li442 Li 0.30684 0.9222 0.55508 0.0
Li443 Li 0.28568 0.88755 0.53235 0.0
C444 C 0.28343 0.94465 0.59668 0.0
N445 N 0.28399 0.98485 0.62809 0.0
C446 C 0.27933 0.94 0.62022 0.0
C447 C 0.28786 0.9697 0.58908 0.0
C448 C 0.27966 0.9606 0.63584 0.0
C449 C 0.28807 0.98978 0.60525 0.0
C450 C 0.23943 0.86387 0.55238 0.0
C451 C 0.22876 0.81928 0.54658 0.0
N452 N 0.20552 0.82423 0.55385 0.0
C453 C 0.21538 0.86859 0.5596 0.0
C454 C 0.24614 0.83909 0.54561 0.0
C455 C 0.19853 0.84826 0.5603 0.0
C456 C 0.2149 0.93661 0.53134 0.0
N457 N 0.22955 0.94076 0.55077 0.0
C458 C 0.199 0.96899 0.56606 0.0
C459 C 0.22217 0.95676 0.56794 0.0
C460 C 0.18314 0.96448 0.54646 0.0
C461 C 0.19158 0.94834 0.52879 0.0
H462 H 0.22116 0.92369 0.518 0.0
H463 H 0.23402 0.95974 0.58329 0.0
C464 C 0.3041 0.85712 0.61358 0.0
N465 N 0.28266 0.86545 0.60274 0.0
C466 C 0.30338 0.84137 0.63336 0.0
C467 C 0.25862 0.84349 0.63071 0.0
C468 C 0.26019 0.85909 0.61099 0.0
C469 C 0.28041 0.83456 0.64225 0.0
H470 H 0.32177 0.86279 0.60693 0.0
H471 H 0.24343 0.86632 0.60239 0.0
C472 C 0.28622 0.94231 0.50995 0.0
N473 N 0.29078 0.9765 0.4735 0.0
C474 C 0.30063 0.93589 0.49108 0.0
C475 C 0.27413 0.9661 0.51033 0.0
C476 C 0.30269 0.95345 0.4728 0.0
C477 C 0.27669 0.98314 0.49174 0.0
C478 C 0.32798 0.86285 0.55497 0.0
C479 C 0.3528 0.86485 0.54893 0.0
C480 C 0.31822 0.83871 0.56006 0.0
C481 C 0.36741 0.84269 0.54816 0.0
C482 C 0.33345 0.817 0.55915 0.0
N483 N 0.35753 0.81942 0.55327 0.0
C484 C 0.35702 0.93084 0.5654 0.0
C485 C 0.33907 0.96299 0.54083 0.0
C486 C 0.38085 0.93945 0.56077 0.0
N487 N 0.33682 0.94187 0.5546 0.0
C488 C 0.36259 0.97258 0.53607 0.0
C489 C 0.38397 0.96001 0.5452 0.0
H490 H 0.35471 0.9142 0.57642 0.0
H491 H 0.32277 0.97176 0.53271 0.0
C492 C 0.26709 0.86317 0.49092 0.0
N493 N 0.28787 0.86837 0.50424 0.0
C494 C 0.26897 0.85057 0.46951 0.0
C495 C 0.31346 0.84867 0.47618 0.0
C496 C 0.31077 0.86166 0.49715 0.0
C497 C 0.29241 0.84309 0.46207 0.0
H498 H 0.24915 0.86921 0.49674 0.0
H499 H 0.32707 0.86709 0.50738 0.0
O500 O 0.28334 0.92463 0.58127 0.0
O501 O 0.25603 0.88363 0.55133 0.0
O502 O 0.28336 0.92514 0.52769 0.0
O503 O 0.31352 0.88448 0.55621 0.0
H504 H 0.27593 0.92066 0.62634 0.0
H505 H 0.29107 0.97356 0.57089 0.0
H506 H 0.2765 0.95731 0.65411 0.0
H507 H 0.29149 0.00928 0.59967 0.0
H508 H 0.23372 0.79999 0.54143 0.0
H509 H 0.20984 0.88773 0.56469 0.0
H510 H 0.26445 0.83523 0.53941 0.0
H511 H 0.17988 0.8516 0.56593 0.0
H512 H 0.19349 0.98168 0.5799 0.0
H513 H 0.17995 0.94421 0.51345 0.0
H514 H 0.32059 0.8351 0.64194 0.0
H515 H 0.24053 0.83855 0.63695 0.0
H516 H 0.31009 0.91755 0.49053 0.0
H517 H 0.26292 0.97135 0.52485 0.0
H518 H 0.31374 0.94873 0.45804 0.0
H519 H 0.26744 0.00162 0.49178 0.0
H520 H 0.36063 0.88323 0.54446 0.0
H521 H 0.29918 0.83677 0.56499 0.0
H522 H 0.3866 0.84399 0.54344 0.0
H523 H 0.32615 0.79822 0.56318 0.0
H524 H 0.39666 0.9292 0.56841 0.0
H525 H 0.36396 0.98924 0.52486 0.0
H526 H 0.25237 0.84675 0.45887 0.0
H527 H 0.33186 0.84372 0.47068 0.0
Li528 Li 0.37808 0.98494 0.74151 0.0
Li529 Li 0.41256 0.0085 0.76372 0.0
Li530 Li 0.3785 0.03229 0.74198 0.0
Li531 Li 0.41116 0.0108 0.72033 0.0
C532 C 0.35938 0.01701 0.78362 0.0
N533 N 0.32454 0.03465 0.81388 0.0
C534 C 0.3665 0.02339 0.80655 0.0
C535 C 0.33453 0.01944 0.7761 0.0
C536 C 0.3486 0.03226 0.8216 0.0
C537 C 0.31721 0.02851 0.79164 0.0
C538 C 0.43351 0.96227 0.74279 0.0
C539 C 0.47693 0.95131 0.74224 0.0
N540 N 0.4713 0.92648 0.74728 0.0
C541 C 0.42813 0.93664 0.74792 0.0
C542 C 0.45807 0.9697 0.7399 0.0
C543 C 0.4475 0.91884 0.75014 0.0
C544 C 0.35899 0.93494 0.72871 0.0
N545 N 0.35951 0.95427 0.74466 0.0
C546 C 0.33801 0.92844 0.77175 0.0
C547 C 0.3492 0.95142 0.76577 0.0
C548 C 0.33766 0.90795 0.75598 0.0
C549 C 0.34814 0.91131 0.73412 0.0
H550 H 0.36783 0.93752 0.71225 0.0
H551 H 0.35055 0.96659 0.77849 0.0
C552 C 0.43824 0.02754 0.80421 0.0
N553 N 0.43234 0.00604 0.79176 0.0
C554 C 0.45019 0.02542 0.8262 0.0
C555 C 0.4505 0.9792 0.82167 0.0
C556 C 0.43812 0.98218 0.80006 0.0
C557 C 0.45628 0.00096 0.83512 0.0
H558 H 0.43291 0.04625 0.79741 0.0
H559 H 0.4324 0.96536 0.7903 0.0
C560 C 0.35483 0.0126 0.69891 0.0
N561 N 0.31548 0.01991 0.66735 0.0
C562 C 0.35851 0.02502 0.6777 0.0
C563 C 0.33122 0.00364 0.70398 0.0
C564 C 0.33835 0.02858 0.66199 0.0
C565 C 0.31153 0.00761 0.68782 0.0
C566 C 0.43261 0.05706 0.74184 0.0
C567 C 0.42649 0.08215 0.73498 0.0
C568 C 0.45732 0.05063 0.74726 0.0
C569 C 0.44532 0.1004 0.73344 0.0
C570 C 0.47561 0.06944 0.7455 0.0
N571 N 0.46929 0.09372 0.73868 0.0
C572 C 0.36274 0.07663 0.76399 0.0
C573 C 0.34157 0.07038 0.7275 0.0
C574 C 0.34918 0.099 0.76784 0.0
N575 N 0.3586 0.06268 0.7442 0.0
C576 C 0.32779 0.09285 0.73051 0.0
C577 C 0.33144 0.10733 0.75097 0.0
H578 H 0.3767 0.07034 0.7768 0.0
H579 H 0.3387 0.05935 0.71176 0.0
C580 C 0.44117 0.99166 0.68403 0.0
N581 N 0.43132 0.01313 0.6936 0.0
C582 C 0.45618 0.99365 0.66472 0.0
C583 C 0.45052 0.03973 0.66543 0.0
C584 C 0.43555 0.03684 0.6846 0.0
C585 C 0.46092 0.01795 0.6551 0.0
H586 H 0.43729 0.97297 0.6913 0.0
H587 H 0.42722 0.05358 0.69225 0.0
O588 O 0.37658 0.00779 0.76879 0.0
O589 O 0.41472 0.97991 0.74058 0.0
O590 O 0.37442 0.00863 0.71431 0.0
O591 O 0.41434 0.0391 0.74376 0.0
H592 H 0.38559 0.02133 0.81273 0.0
H593 H 0.32872 0.01449 0.75843 0.0
H594 H 0.35383 0.03719 0.83942 0.0
H595 H 0.29794 0.03063 0.78603 0.0
H596 H 0.49604 0.95677 0.74003 0.0
H597 H 0.40921 0.9306 0.7503 0.0
H598 H 0.46251 0.98941 0.73575 0.0
H599 H 0.44362 0.89895 0.75416 0.0
H600 H 0.33061 0.92635 0.78894 0.0
H601 H 0.34828 0.89575 0.72159 0.0
H602 H 0.45437 0.04259 0.83625 0.0
H603 H 0.45467 0.96006 0.82822 0.0
H604 H 0.37674 0.03185 0.67345 0.0
H605 H 0.32815 0.99366 0.72017 0.0
H606 H 0.34088 0.03822 0.64553 0.0
H607 H 0.29314 0.00084 0.69151 0.0
H608 H 0.40739 0.08743 0.73086 0.0
H609 H 0.46229 0.0314 0.75293 0.0
H610 H 0.44087 0.11989 0.72811 0.0
H611 H 0.49483 0.06475 0.74963 0.0
H612 H 0.35296 0.11 0.78359 0.0
H613 H 0.31441 0.09886 0.71702 0.0
H614 H 0.46363 0.97635 0.65714 0.0
H615 H 0.45396 0.05885 0.6588 0.0
Li616 Li 0.32465 0.12481 0.05347 0.0
Li617 Li 0.33194 0.08513 0.03193 0.0
Li618 Li 0.31811 0.12366 0.01172 0.0
Li619 Li 0.2904 0.09804 0.03553 0.0
C620 C 0.36658 0.13828 0.02674 0.0
N621 N 0.3998 0.17822 0.02226 0.0
C622 C 0.39189 0.13314 0.02501 0.0
C623 C 0.35818 0.1637 0.02611 0.0
C624 C 0.4084 0.15361 0.02278 0.0
C625 C 0.37524 0.18363 0.02386 0.0
C626 C 0.30254 0.07714 0.07887 0.0
C627 C 0.28039 0.04066 0.09363 0.0
N628 N 0.27988 0.05216 0.11488 0.0
C629 C 0.30184 0.08854 0.10088 0.0
C630 C 0.2918 0.05295 0.07522 0.0
C631 C 0.29027 0.07563 0.11884 0.0
C632 C 0.3148 0.15852 0.08864 0.0
N633 N 0.33388 0.14716 0.07784 0.0
C634 C 0.36347 0.17252 0.09954 0.0
C635 C 0.35792 0.15339 0.08314 0.0
C636 C 0.34405 0.18476 0.1108 0.0
C637 C 0.31948 0.17738 0.10531 0.0
H638 H 0.29591 0.153 0.08409 0.0
H639 H 0.37275 0.14386 0.07439 0.0
C640 C 0.3666 0.05202 0.01352 0.0
N641 N 0.35069 0.05533 0.031 0.0
C642 C 0.38329 0.03169 0.01455 0.0
C643 C 0.36546 0.01758 0.05051 0.0
C644 C 0.34917 0.0382 0.04878 0.0
C645 C 0.38377 0.01536 0.03409 0.0
H646 H 0.36749 0.06618 -0.00024 0.0
H647 H 0.3368 0.04161 0.06267 0.0
C648 C 0.27901 0.15599 0.03258 0.0
N649 N 0.24666 0.19721 0.02763 0.0
C650 C 0.25434 0.15209 0.02503 0.0
C651 C 0.28706 0.18093 0.03794 0.0
C652 C 0.23833 0.17314 0.02254 0.0
C653 C 0.27048 0.20149 0.03523 0.0
C654 C 0.31194 0.07032 0.99074 0.0
C655 C 0.32439 0.07701 0.97068 0.0
C656 C 0.30449 0.04489 0.994 0.0
C657 C 0.32937 0.05804 0.95427 0.0
C658 C 0.30986 0.02647 0.97721 0.0
N659 N 0.32208 0.03337 0.95786 0.0
C660 C 0.33312 0.1555 0.97312 0.0
C661 C 0.29096 0.14395 0.97761 0.0
C662 C 0.32644 0.1707 0.95382 0.0
N663 N 0.31519 0.14307 0.98475 0.0
C664 C 0.28344 0.15914 0.95887 0.0
C665 C 0.30126 0.17281 0.947 0.0
H666 H 0.35239 0.15368 0.97874 0.0
H667 H 0.27747 0.13281 0.98667 0.0
C668 C 0.2438 0.07747 0.05133 0.0
N669 N 0.2582 0.08463 0.03352 0.0
C670 C 0.22233 0.06317 0.04657 0.0
C671 C 0.23012 0.06603 0.00538 0.0
C672 C 0.25125 0.08007 0.01089 0.0
C673 C 0.21574 0.05696 0.02333 0.0
H674 H 0.2493 0.08211 0.06913 0.0
H675 H 0.26231 0.08703 0.99695 0.0
O676 O 0.35027 0.11841 0.02911 0.0
O677 O 0.31494 0.08898 0.06145 0.0
O678 O 0.29473 0.13538 0.03574 0.0
O679 O 0.30666 0.08867 0.00691 0.0
H680 H 0.3987 0.11354 0.02546 0.0
H681 H 0.33868 0.16789 0.02704 0.0
H682 H 0.42805 0.14992 0.02147 0.0
H683 H 0.36894 0.2034 0.0233 0.0
H684 H 0.27195 0.02199 0.09101 0.0
H685 H 0.3105 0.10696 0.10419 0.0
H686 H 0.29215 0.04382 0.05828 0.0
H687 H 0.2897 0.0842 0.13599 0.0
H688 H 0.38263 0.17775 0.10325 0.0
H689 H 0.30401 0.18592 0.11402 0.0
H690 H 0.39755 0.0307 0.00177 0.0
H691 H 0.36572 0.00548 0.06591 0.0
H692 H 0.24754 0.13304 0.02106 0.0
H693 H 0.30577 0.18448 0.04449 0.0
H694 H 0.21925 0.17033 0.01662 0.0
H695 H 0.27651 0.22084 0.03932 0.0
H696 H 0.33028 0.09659 0.96784 0.0
H697 H 0.29477 0.03944 0.00942 0.0
H698 H 0.33904 0.06292 0.93869 0.0
H699 H 0.30431 0.00669 0.97955 0.0
H700 H 0.34055 0.18077 0.94447 0.0
H701 H 0.26398 0.15992 0.95347 0.0
H702 H 0.21129 0.05667 0.06081 0.0
H703 H 0.22503 0.06233 0.98723 0.0
Li704 Li 0.75959 0.42117 0.05358 0.0
Li705 Li 0.78145 0.3856 0.07628 0.0
Li706 Li 0.80606 0.41944 0.05466 0.0
Li707 Li 0.78295 0.38591 0.03283 0.0
C708 C 0.78068 0.44433 0.09561 0.0
N709 N 0.77633 0.48604 0.12492 0.0
C710 C 0.77391 0.4407 0.11866 0.0
C711 C 0.7852 0.46913 0.08742 0.0
C712 C 0.77182 0.46205 0.13322 0.0
C713 C 0.7829 0.48998 0.10253 0.0
C714 C 0.73803 0.36287 0.05181 0.0
C715 C 0.73142 0.31711 0.04978 0.0
N716 N 0.7065 0.32113 0.05014 0.0
C717 C 0.71238 0.36659 0.05216 0.0
C718 C 0.7477 0.33799 0.05066 0.0
C719 C 0.69674 0.34521 0.05132 0.0
C720 C 0.7201 0.44765 0.03037 0.0
N721 N 0.72946 0.44098 0.05187 0.0
C722 C 0.69303 0.45721 0.06954 0.0
C723 C 0.71652 0.4456 0.07133 0.0
C724 C 0.68282 0.46434 0.0475 0.0
C725 C 0.69693 0.45965 0.02781 0.0
H726 H 0.73035 0.44304 0.01509 0.0
H727 H 0.72402 0.43941 0.08817 0.0
C728 C 0.8009 0.3567 0.11493 0.0
N729 N 0.77969 0.36465 0.10349 0.0
C730 C 0.79977 0.34113 0.13477 0.0
C731 C 0.755 0.34294 0.13111 0.0
C732 C 0.75699 0.3582 0.11121 0.0
C733 C 0.77658 0.33423 0.1431 0.0
H734 H 0.81871 0.36257 0.10871 0.0
H735 H 0.74041 0.36509 0.10201 0.0
C736 C 0.78927 0.44075 0.01083 0.0
N737 N 0.80222 0.4752 0.97671 0.0
C738 C 0.80538 0.43323 0.99357 0.0
C739 C 0.77983 0.46582 0.01081 0.0
C740 C 0.81168 0.45094 0.97646 0.0
C741 C 0.78659 0.48294 0.99339 0.0
C742 C 0.82944 0.36585 0.0499 0.0
C743 C 0.84503 0.3738 0.03237 0.0
C744 C 0.83347 0.34204 0.06076 0.0
C745 C 0.86466 0.35791 0.02624 0.0
C746 C 0.85327 0.3267 0.05411 0.0
N747 N 0.86835 0.33491 0.03716 0.0
C748 C 0.85736 0.42495 0.06407 0.0
C749 C 0.84015 0.46006 0.04272 0.0
C750 C 0.88139 0.4337 0.06043 0.0
N751 N 0.83734 0.43757 0.05448 0.0
C752 C 0.86388 0.46965 0.03882 0.0
C753 C 0.88496 0.45609 0.04723 0.0
H754 H 0.85474 0.40725 0.07357 0.0
H755 H 0.82411 0.47022 0.0357 0.0
C756 C 0.77232 0.37579 0.98532 0.0
N757 N 0.78332 0.36559 0.00497 0.0
C758 C 0.77463 0.3636 0.9638 0.0
C759 C 0.79899 0.33029 0.98318 0.0
C760 C 0.79579 0.34283 0.00438 0.0
C761 C 0.78866 0.34094 0.96257 0.0
H762 H 0.76235 0.3938 0.98627 0.0
H763 H 0.8037 0.33457 0.02022 0.0
O764 O 0.78343 0.42356 0.08138 0.0
O765 O 0.75352 0.38361 0.05271 0.0
O766 O 0.78227 0.42353 0.02734 0.0
O767 O 0.81043 0.38132 0.05657 0.0
H768 H 0.77045 0.42157 0.12524 0.0
H769 H 0.7905 0.4722 0.06962 0.0
H770 H 0.76667 0.45955 0.15112 0.0
H771 H 0.78639 0.5093 0.09648 0.0
H772 H 0.7386 0.29772 0.04885 0.0
H773 H 0.70467 0.38579 0.05311 0.0
H774 H 0.76754 0.33486 0.05052 0.0
H775 H 0.67684 0.34777 0.0516 0.0
H776 H 0.68264 0.45958 0.08516 0.0
H777 H 0.68994 0.46477 0.01048 0.0
H778 H 0.81678 0.33505 0.14383 0.0
H779 H 0.73681 0.33802 0.13711 0.0
H780 H 0.81285 0.41391 0.99335 0.0
H781 H 0.76758 0.47204 0.02421 0.0
H782 H 0.82407 0.44537 0.96294 0.0
H783 H 0.77942 0.50239 0.99316 0.0
H784 H 0.84205 0.39207 0.02366 0.0
H785 H 0.82131 0.33534 0.07403 0.0
H786 H 0.87697 0.36387 0.01281 0.0
H787 H 0.85662 0.30825 0.0624 0.0
H788 H 0.89699 0.42235 0.06701 0.0
H789 H 0.86572 0.48724 0.0289 0.0
H790 H 0.76626 0.37221 0.94819 0.0
H791 H 0.80953 0.31254 0.98286 0.0
Li792 Li 0.91284 0.51066 0.2646 0.0
Li793 Li 0.87949 0.48656 0.24168 0.0
Li794 Li 0.91215 0.51267 0.2209 0.0
Li795 Li 0.87837 0.5339 0.24153 0.0
C796 C 0.9348 0.46466 0.24192 0.0
N797 N 0.97267 0.4288 0.24271 0.0
C798 C 0.92948 0.43853 0.2444 0.0
C799 C 0.95933 0.47257 0.23974 0.0
C800 C 0.9489 0.4207 0.2448 0.0
C801 C 0.97823 0.45414 0.24019 0.0
C802 C 0.85736 0.51233 0.28287 0.0
C803 C 0.81367 0.5177 0.28894 0.0
N804 N 0.81832 0.51672 0.3124 0.0
C805 C 0.86174 0.51147 0.30702 0.0
C806 C 0.83317 0.51547 0.27371 0.0
C807 C 0.84174 0.51367 0.32167 0.0
C808 C 0.93577 0.52905 0.3071 0.0
N809 N 0.93181 0.50811 0.29327 0.0
C810 C 0.952 0.4808 0.32173 0.0
C811 C 0.9394 0.48426 0.30027 0.0
C812 C 0.95632 0.50199 0.33636 0.0
C813 C 0.94797 0.52637 0.32896 0.0
H814 H 0.92907 0.5477 0.30131 0.0
H815 H 0.93522 0.46778 0.28943 0.0
C816 C 0.8533 0.44007 0.22782 0.0
N817 N 0.86264 0.45518 0.24536 0.0
C818 C 0.84385 0.41572 0.23294 0.0
C819 C 0.85351 0.42346 0.27385 0.0
C820 C 0.86283 0.4474 0.26798 0.0
C821 C 0.84425 0.40714 0.25622 0.0
H822 H 0.85375 0.44663 0.20994 0.0
H823 H 0.87107 0.45951 0.28145 0.0
C824 C 0.93249 0.5595 0.24357 0.0
N825 N 0.96891 0.59669 0.24272 0.0
C826 C 0.92645 0.58463 0.23674 0.0
C827 C 0.95699 0.55331 0.25013 0.0
C828 C 0.94514 0.60315 0.23639 0.0
C829 C 0.97516 0.57238 0.24952 0.0
C830 C 0.85599 0.51344 0.19849 0.0
C831 C 0.8596 0.52648 0.17757 0.0
C832 C 0.83258 0.50352 0.20301 0.0
C833 C 0.8396 0.52962 0.1616 0.0
C834 C 0.81305 0.50712 0.18662 0.0
N835 N 0.81693 0.51998 0.16642 0.0
C836 C 0.93996 0.49229 0.18391 0.0
C837 C 0.94125 0.53764 0.18734 0.0
C838 C 0.95571 0.49314 0.16508 0.0
N839 N 0.93323 0.51434 0.19473 0.0
C840 C 0.95721 0.53936 0.16879 0.0
C841 C 0.9648 0.51692 0.15743 0.0
H842 H 0.933 0.47402 0.18984 0.0
H843 H 0.93522 0.55497 0.19578 0.0
C844 C 0.86404 0.57891 0.26219 0.0
N845 N 0.85813 0.56392 0.24341 0.0
C846 C 0.85194 0.6023 0.26531 0.0
C847 C 0.82706 0.59408 0.23018 0.0
C848 C 0.83988 0.57089 0.22758 0.0
C849 C 0.83335 0.61015 0.24909 0.0
H850 H 0.87859 0.57285 0.2745 0.0
H851 H 0.83548 0.5588 0.21275 0.0
O852 O 0.91601 0.48236 0.24178 0.0
O853 O 0.87677 0.51014 0.26836 0.0
O854 O 0.91437 0.54123 0.24419 0.0
O855 O 0.87552 0.50962 0.21401 0.0
H856 H 0.91058 0.43207 0.24608 0.0
H857 H 0.96372 0.49269 0.23763 0.0
H858 H 0.94507 0.40041 0.24678 0.0
H859 H 0.99732 0.45997 0.23852 0.0
H860 H 0.79485 0.52021 0.28212 0.0
H861 H 0.88039 0.50901 0.31434 0.0
H862 H 0.82952 0.51639 0.25507 0.0
H863 H 0.84483 0.51295 0.3404 0.0
H864 H 0.95785 0.46167 0.3271 0.0
H865 H 0.9509 0.54309 0.33995 0.0
H866 H 0.83658 0.40366 0.21891 0.0
H867 H 0.85433 0.41739 0.29193 0.0
H868 H 0.90753 0.58972 0.23167 0.0
H869 H 0.96188 0.53404 0.25576 0.0
H870 H 0.94076 0.62266 0.2311 0.0
H871 H 0.99422 0.56787 0.25452 0.0
H872 H 0.87769 0.53402 0.1737 0.0
H873 H 0.82956 0.49304 0.21894 0.0
H874 H 0.8421 0.53968 0.14534 0.0
H875 H 0.79482 0.49959 0.1899 0.0
H876 H 0.96034 0.47541 0.15637 0.0
H877 H 0.9636 0.55811 0.16341 0.0
H878 H 0.8572 0.6143 0.2801 0.0
H879 H 0.81294 0.59976 0.21725 0.0
Li880 Li 0.82745 0.62297 0.5491 0.0
Li881 Li 0.83492 0.58435 0.52529 0.0
Li882 Li 0.82272 0.6258 0.5081 0.0
Li883 Li 0.79463 0.59968 0.5294 0.0
C884 C 0.86938 0.63889 0.52565 0.0
N885 N 0.9001 0.68133 0.52455 0.0
C886 C 0.89453 0.63589 0.52126 0.0
C887 C 0.85984 0.66352 0.52934 0.0
C888 C 0.90977 0.65757 0.52082 0.0
C889 C 0.87566 0.68471 0.52875 0.0
C890 C 0.80495 0.5742 0.57127 0.0
C891 C 0.78664 0.53513 0.58556 0.0
N892 N 0.78177 0.54719 0.60589 0.0
C893 C 0.79987 0.58609 0.59241 0.0
C894 C 0.79848 0.54837 0.56796 0.0
C895 C 0.78812 0.57216 0.60966 0.0
C896 C 0.81374 0.65427 0.5825 0.0
N897 N 0.83471 0.64307 0.57505 0.0
C898 C 0.85969 0.66649 0.60276 0.0
C899 C 0.85754 0.64869 0.58458 0.0
C900 C 0.8381 0.67801 0.61075 0.0
C901 C 0.81501 0.67197 0.60036 0.0
H902 H 0.79593 0.64919 0.57461 0.0
H903 H 0.87391 0.63967 0.57791 0.0
C904 C 0.86059 0.54726 0.50127 0.0
N905 N 0.85138 0.55388 0.52211 0.0
C906 C 0.87643 0.52625 0.50007 0.0
C907 C 0.87001 0.51766 0.54086 0.0
C908 C 0.85462 0.53896 0.5414 0.0
C909 C 0.88347 0.51358 0.52088 0.0
H910 H 0.85729 0.55949 0.48621 0.0
H911 H 0.84737 0.545 0.55777 0.0
C912 C 0.7788 0.6513 0.52247 0.0
N913 N 0.73917 0.67996 0.50464 0.0
C914 C 0.76347 0.64155 0.50445 0.0
C915 C 0.77386 0.67567 0.53152 0.0
C916 C 0.74358 0.6563 0.49562 0.0
C917 C 0.75377 0.68985 0.52227 0.0
C918 C 0.80042 0.58022 0.48043 0.0
C919 C 0.78841 0.59534 0.46319 0.0
C920 C 0.80247 0.55368 0.47681 0.0
C921 C 0.77865 0.58375 0.44291 0.0
C922 C 0.7924 0.5428 0.45633 0.0
N923 N 0.78082 0.55793 0.43992 0.0
C924 C 0.83241 0.63716 0.46219 0.0
C925 C 0.81705 0.67186 0.48437 0.0
C926 C 0.8261 0.64997 0.4415 0.0
N927 N 0.82598 0.64754 0.4828 0.0
C928 C 0.81044 0.68531 0.46425 0.0
C929 C 0.81356 0.67353 0.44266 0.0
H930 H 0.83979 0.61782 0.46171 0.0
H931 H 0.81309 0.67998 0.50111 0.0
C932 C 0.7421 0.59628 0.53602 0.0
N933 N 0.76371 0.58493 0.53024 0.0
C934 C 0.7198 0.58354 0.53121 0.0
C935 C 0.74308 0.5474 0.51657 0.0
C936 C 0.76464 0.56067 0.52177 0.0
C937 C 0.72052 0.55931 0.52059 0.0
H938 H 0.74213 0.6155 0.54321 0.0
H939 H 0.78225 0.552 0.51836 0.0
O940 O 0.85423 0.61779 0.5259 0.0
O941 O 0.81779 0.58717 0.55471 0.0
O942 O 0.79842 0.63717 0.53148 0.0
O943 O 0.8111 0.59134 0.50015 0.0
H944 H 0.90216 0.617 0.51817 0.0
H945 H 0.84045 0.66626 0.53276 0.0
H946 H 0.92928 0.65552 0.51747 0.0
H947 H 0.86851 0.70385 0.53165 0.0
H948 H 0.78153 0.51518 0.58313 0.0
H949 H 0.80535 0.60569 0.59577 0.0
H950 H 0.80288 0.53842 0.55212 0.0
H951 H 0.78423 0.58117 0.62611 0.0
H952 H 0.87773 0.67089 0.61069 0.0
H953 H 0.79806 0.68061 0.6063 0.0
H954 H 0.88662 0.52331 0.48437 0.0
H955 H 0.87522 0.50812 0.55714 0.0
H956 H 0.76643 0.62249 0.49782 0.0
H957 H 0.78556 0.68366 0.54542 0.0
H958 H 0.73154 0.64884 0.48173 0.0
H959 H 0.74978 0.70873 0.52909 0.0
H960 H 0.7868 0.6159 0.46512 0.0
H961 H 0.81151 0.54144 0.48978 0.0
H962 H 0.76945 0.59533 0.42948 0.0
H963 H 0.79382 0.5223 0.45346 0.0
H964 H 0.8288 0.64053 0.42497 0.0
H965 H 0.80127 0.7038 0.46551 0.0
H966 H 0.70232 0.59281 0.5347 0.0
H967 H 0.74393 0.52844 0.50882 0.0
Li968 Li 0.68167 0.53678 0.75164 0.0
Li969 Li 0.64806 0.51731 0.77333 0.0
Li970 Li 0.68079 0.48956 0.75487 0.0
Li971 Li 0.64796 0.51265 0.73069 0.0
C972 C 0.70023 0.52055 0.79838 0.0
N973 N 0.7317 0.53001 0.8365 0.0
C974 C 0.69297 0.53729 0.8159 0.0
C975 C 0.72355 0.50875 0.80016 0.0
C976 C 0.70913 0.54176 0.83508 0.0
C977 C 0.73919 0.51378 0.81956 0.0
C978 C 0.62924 0.56358 0.75338 0.0
C979 C 0.58774 0.58087 0.75058 0.0
N980 N 0.59515 0.60087 0.76442 0.0
C981 C 0.63651 0.58438 0.76742 0.0
C982 C 0.60475 0.56194 0.74461 0.0
C983 C 0.61899 0.60309 0.77275 0.0
C984 C 0.69411 0.58711 0.73841 0.0
N985 N 0.70267 0.56613 0.75043 0.0
C986 C 0.73779 0.58963 0.76535 0.0
C987 C 0.72452 0.56673 0.76304 0.0
C988 C 0.7287 0.61186 0.75414 0.0
C989 C 0.70702 0.61036 0.73994 0.0
H990 H 0.67673 0.58604 0.72841 0.0
H991 H 0.73131 0.54971 0.77189 0.0
C992 C 0.63695 0.50379 0.81873 0.0
N993 N 0.6292 0.51936 0.80081 0.0
C994 C 0.62559 0.50507 0.84018 0.0
C995 C 0.5982 0.53802 0.82424 0.0
C996 C 0.60984 0.53586 0.80308 0.0
C997 C 0.60618 0.52264 0.8431 0.0
H998 H 0.6523 0.49072 0.81645 0.0
H999 H 0.60335 0.54754 0.78873 0.0
C1000 C 0.7024 0.51625 0.71166 0.0
N1001 N 0.73943 0.52694 0.68119 0.0
C1002 C 0.69633 0.52279 0.68851 0.0
C1003 C 0.72725 0.5151 0.71936 0.0
C1004 C 0.71533 0.52807 0.67335 0.0
C1005 C 0.74572 0.52068 0.70369 0.0
C1006 C 0.6238 0.47008 0.75126 0.0
C1007 C 0.6268 0.44401 0.74614 0.0
C1008 C 0.59997 0.48048 0.75241 0.0
C1009 C 0.60581 0.42877 0.742 0.0
C1010 C 0.57944 0.46457 0.74819 0.0
N1011 N 0.58276 0.43928 0.7431 0.0
C1012 C 0.70441 0.44886 0.77862 0.0
C1013 C 0.70667 0.44772 0.73741 0.0
C1014 C 0.71783 0.42601 0.78068 0.0
N1015 N 0.69935 0.45922 0.75724 0.0
C1016 C 0.71976 0.42457 0.73863 0.0
C1017 C 0.72557 0.41348 0.76051 0.0
H1018 H 0.69793 0.45833 0.79402 0.0
H1019 H 0.70191 0.45631 0.72064 0.0
C1020 C 0.62272 0.53229 0.69096 0.0
N1021 N 0.62888 0.51027 0.7026 0.0
C1022 C 0.61017 0.53113 0.66928 0.0
C1023 C 0.61047 0.4847 0.67213 0.0
C1024 C 0.62327 0.48675 0.69359 0.0
C1025 C 0.60395 0.50709 0.65972 0.0
H1026 H 0.62802 0.5507 0.69831 0.0
H1027 H 0.62927 0.46956 0.70277 0.0
O1028 O 0.68428 0.51501 0.77998 0.0
O1029 O 0.64589 0.5447 0.74854 0.0
O1030 O 0.68407 0.51021 0.72648 0.0
O1031 O 0.64417 0.48529 0.755 0.0
H1032 H 0.67499 0.54659 0.81478 0.0
H1033 H 0.7296 0.49602 0.7866 0.0
H1034 H 0.70372 0.55454 0.84886 0.0
H1035 H 0.75728 0.50478 0.82116 0.0
H1036 H 0.56862 0.57965 0.74426 0.0
H1037 H 0.6554 0.58587 0.77437 0.0
H1038 H 0.59878 0.54583 0.7339 0.0
H1039 H 0.62429 0.61926 0.78367 0.0
H1040 H 0.75463 0.59017 0.77625 0.0
H1041 H 0.69954 0.62725 0.73108 0.0
H1042 H 0.63227 0.49296 0.85446 0.0
H1043 H 0.58306 0.55156 0.82586 0.0
H1044 H 0.67715 0.52349 0.68225 0.0
H1045 H 0.73219 0.50993 0.73723 0.0
H1046 H 0.71093 0.533 0.65533 0.0
H1047 H 0.76506 0.51994 0.70938 0.0
H1048 H 0.64518 0.43573 0.74519 0.0
H1049 H 0.59739 0.50063 0.7564 0.0
H1050 H 0.60784 0.40859 0.73789 0.0
H1051 H 0.56087 0.47233 0.74894 0.0
H1052 H 0.72191 0.4181 0.79788 0.0
H1053 H 0.72462 0.41515 0.72261 0.0
H1054 H 0.6055 0.54876 0.66001 0.0
H1055 H 0.60636 0.46585 0.66496 0.0
Li1056 Li 0.9842 0.80396 0.87279 0.0
Li1057 Li 0.00466 0.82235 0.90701 0.0
Li1058 Li 0.02803 0.80806 0.87385 0.0
Li1059 Li 0.00917 0.77682 0.90028 0.0
C1060 C 0.99896 0.85243 0.85625 0.0
N1061 N 0.99119 0.88504 0.81861 0.0
C1062 C 0.99269 0.87817 0.85982 0.0
C1063 C 0.00118 0.84324 0.83355 0.0
C1064 C 0.98883 0.89437 0.84056 0.0
C1065 C 0.99722 0.86004 0.81475 0.0
C1066 C 0.96035 0.79287 0.92055 0.0
C1067 C 0.94639 0.78118 0.95859 0.0
N1068 N 0.92265 0.78673 0.95142 0.0
C1069 C 0.93577 0.79838 0.91356 0.0
C1070 C 0.96569 0.78413 0.94325 0.0
C1071 C 0.917 0.79518 0.92941 0.0
C1072 C 0.94814 0.77763 0.85271 0.0
N1073 N 0.95562 0.80229 0.85566 0.0
C1074 C 0.9176 0.81859 0.83965 0.0
C1075 C 0.94116 0.82278 0.84952 0.0
C1076 C 0.90959 0.79322 0.83659 0.0
C1077 C 0.92494 0.77257 0.84292 0.0
H1078 H 0.95993 0.76197 0.85874 0.0
H1079 H 0.94751 0.84213 0.85304 0.0
C1080 C 0.02232 0.85671 0.93976 0.0
N1081 N 0.00146 0.84563 0.9306 0.0
C1082 C 0.02081 0.87308 0.95868 0.0
C1083 C 0.97634 0.8662 0.95819 0.0
C1084 C 0.97869 0.85042 0.93895 0.0
C1085 C 0.99758 0.87786 0.96809 0.0
H1086 H 0.04006 0.85284 0.93229 0.0
H1087 H 0.96234 0.84217 0.93064 0.0
C1088 C 0.01186 0.75906 0.84927 0.0
N1089 N 0.01752 0.72172 0.8156 0.0
C1090 C 0.02218 0.73516 0.85532 0.0
C1091 C 0.00427 0.76388 0.82609 0.0
C1092 C 0.02487 0.71654 0.83806 0.0
C1093 C 0.0074 0.7448 0.80932 0.0
C1094 C 0.05203 0.79941 0.92607 0.0
C1095 C 0.07758 0.7992 0.92286 0.0
C1096 C 0.04316 0.79737 0.94857 0.0
C1097 C 0.09389 0.79693 0.94226 0.0
C1098 C 0.06006 0.79512 0.96753 0.0
N1099 N 0.08486 0.79495 0.96401 0.0
C1100 C 0.05961 0.83826 0.84786 0.0
C1101 C 0.06635 0.79314 0.84704 0.0
C1102 C 0.07683 0.84206 0.83075 0.0
N1103 N 0.05427 0.81403 0.85496 0.0
C1104 C 0.08401 0.79606 0.83033 0.0
C1105 C 0.08886 0.82069 0.82149 0.0
H1106 H 0.05008 0.85455 0.85505 0.0
H1107 H 0.06209 0.77423 0.85359 0.0
C1108 C 0.98586 0.73383 0.91427 0.0
N1109 N 0.00842 0.74543 0.91519 0.0
C1110 C 0.98168 0.71242 0.92804 0.0
C1111 C 0.02456 0.71451 0.9422 0.0
C1112 C 0.02781 0.73613 0.92839 0.0
C1113 C 0.00113 0.70288 0.94235 0.0
H1114 H 0.97092 0.74179 0.9034 0.0
H1115 H 0.04554 0.74575 0.92857 0.0
O1116 O 0.00301 0.83649 0.87502 0.0
O1117 O 0.97899 0.79617 0.90525 0.0
O1118 O 0.00823 0.7771 0.86619 0.0
O1119 O 0.03596 0.80209 0.90721 0.0
H1120 H 0.9909 0.88556 0.87731 0.0
H1121 H 0.00626 0.82347 0.83054 0.0
H1122 H 0.98401 0.91436 0.84304 0.0
H1123 H -0.00097 0.85322 0.79709 0.0
H1124 H 0.95028 0.77444 0.9762 0.0
H1125 H 0.9312 0.8053 0.89616 0.0
H1126 H 0.98449 0.77954 0.94895 0.0
H1127 H 0.89794 0.79946 0.92422 0.0
H1128 H 0.90577 0.8347 0.83468 0.0
H1129 H 0.91888 0.75286 0.84057 0.0
H1130 H 0.0375 0.88239 0.96548 0.0
H1131 H 0.95816 0.86961 0.96497 0.0
H1132 H 0.02797 0.73099 0.87318 0.0
H1133 H 0.9957 0.78196 0.82111 0.0
H1134 H 0.03275 0.69795 0.84253 0.0
H1135 H 0.00163 0.74829 0.79133 0.0
H1136 H 0.08472 0.80087 0.90553 0.0
H1137 H 0.02348 0.79778 0.95138 0.0
H1138 H 0.11371 0.79678 0.94003 0.0
H1139 H 0.05346 0.79359 0.98505 0.0
H1140 H 0.08061 0.86137 0.82479 0.0
H1141 H 0.09396 0.77922 0.82463 0.0
H1142 H 0.96358 0.7034 0.9275 0.0
H1143 H 0.03995 0.70718 0.95294 0.0
Li1144 Li 0.02711 0.2867 0.6391 0.0
Li1145 Li 0.05013 0.26234 0.67223 0.0
Li1146 Li 0.0249 0.23774 0.63978 0.0
Li1147 Li 0.002 0.26306 0.67133 0.0
C1148 C 0.07121 0.26268 0.62098 0.0
N1149 N 0.10551 0.2665 0.58663 0.0
C1150 C 0.09552 0.27028 0.62669 0.0
C1151 C 0.06435 0.25684 0.59788 0.0
C1152 C 0.11258 0.27215 0.60905 0.0
C1153 C 0.08197 0.25894 0.58074 0.0
C1154 C 0.03194 0.31044 0.6906 0.0
C1155 C 0.03348 0.32366 0.73088 0.0
N1156 N 0.04282 0.3468 0.72448 0.0
C1157 C 0.04148 0.33436 0.68439 0.0
C1158 C 0.02785 0.30502 0.714 0.0
C1159 C 0.04691 0.35247 0.7018 0.0
C1160 C 0.00926 0.32884 0.60881 0.0
N1161 N 0.02967 0.3175 0.61919 0.0
C1162 C 0.05573 0.34998 0.60304 0.0
C1163 C 0.05263 0.32767 0.61641 0.0
C1164 C 0.03502 0.36239 0.5924 0.0
C1165 C 0.01154 0.35125 0.59523 0.0
H1166 H 0.99111 0.32068 0.61127 0.0
H1167 H 0.06864 0.31867 0.62489 0.0
C1168 C 0.09404 0.23853 0.694 0.0
N1169 N 0.08206 0.26146 0.69077 0.0
C1170 C 0.11789 0.2374 0.7049 0.0
C1171 C 0.11683 0.2834 0.70932 0.0
C1172 C 0.09304 0.28367 0.69835 0.0
C1173 C 0.12991 0.2601 0.71244 0.0
H1174 H 0.08534 0.22106 0.68759 0.0
H1175 H 0.08368 0.30181 0.69543 0.0
C1176 C 0.98058 0.25927 0.61787 0.0
N1177 N 0.9474 0.24999 0.581 0.0
C1178 C 0.95697 0.24966 0.622 0.0
C1179 C 0.98729 0.26431 0.59502 0.0
C1180 C 0.94046 0.24505 0.60311 0.0
C1181 C 0.97026 0.25944 0.57661 0.0
C1182 C 0.02488 0.21496 0.69155 0.0
C1183 C 0.01829 0.18971 0.68584 0.0
C1184 C 0.03126 0.22129 0.71466 0.0
C1185 C 0.01816 0.17113 0.70344 0.0
C1186 C 0.03091 0.20215 0.73175 0.0
N1187 N 0.02443 0.17768 0.72584 0.0
C1188 C 0.04775 0.19304 0.62074 0.0
C1189 C 0.0056 0.1969 0.60839 0.0
C1190 C 0.05006 0.17015 0.60797 0.0
N1191 N 0.02577 0.20602 0.6208 0.0
C1192 C 0.00718 0.17422 0.59517 0.0
C1193 C 0.02965 0.16043 0.59479 0.0
H1194 H 0.06358 0.20043 0.63073 0.0
H1195 H 0.98813 0.20699 0.60882 0.0
C1196 C 0.96328 0.28637 0.69931 0.0
N1197 N 0.97123 0.2639 0.68984 0.0
C1198 C 0.941 0.28746 0.71142 0.0
C1199 C 0.93505 0.24237 0.70383 0.0
C1200 C 0.95754 0.24207 0.69206 0.0
C1201 C 0.92633 0.26528 0.71381 0.0
H1202 H 0.97402 0.3037 0.6972 0.0
H1203 H 0.96388 0.22436 0.68437 0.0
O1204 O 0.05433 0.26059 0.63805 0.0
O1205 O 0.02636 0.29258 0.67377 0.0
O1206 O 0.99695 0.26391 0.63614 0.0
O1207 O 0.02581 0.23317 0.67445 0.0
H1208 H 0.10111 0.27476 0.64454 0.0
H1209 H 0.04568 0.25064 0.59325 0.0
H1210 H 0.13145 0.27808 0.61319 0.0
H1211 H 0.07694 0.25451 0.56276 0.0
H1212 H 0.0304 0.31976 0.74907 0.0
H1213 H 0.04468 0.33886 0.66634 0.0
H1214 H 0.02033 0.28664 0.71903 0.0
H1215 H 0.05434 0.37105 0.69726 0.0
H1216 H 0.07425 0.35748 0.60108 0.0
H1217 H 0.99501 0.36012 0.58749 0.0
H1218 H 0.12714 0.21897 0.70678 0.0
H1219 H 0.12497 0.30139 0.71517 0.0
H1220 H 0.95148 0.24573 0.6396 0.0
H1221 H 0.00542 0.27196 0.59156 0.0
H1222 H 0.92214 0.23756 0.60603 0.0
H1223 H 0.9752 0.26321 0.55883 0.0
H1224 H 0.01345 0.18452 0.66797 0.0
H1225 H 0.03663 0.24072 0.71927 0.0
H1226 H 0.01314 0.15149 0.69928 0.0
H1227 H 0.03588 0.20673 0.74971 0.0
H1228 H 0.06774 0.16022 0.60827 0.0
H1229 H 0.99079 0.16725 0.58571 0.0
H1230 H 0.935 0.30572 0.7183 0.0
H1231 H 0.92455 0.22473 0.70513 0.0
Li1232 Li 0.47811 0.29658 0.36091 0.0
Li1233 Li 0.48939 0.32359 0.3939 0.0
Li1234 Li 0.51957 0.3062 0.36787 0.0
Li1235 Li 0.49788 0.27765 0.39518 0.0
C1236 C 0.49963 0.34856 0.34464 0.0
N1237 N 0.51421 0.38432 0.31227 0.0
C1238 C 0.50361 0.37413 0.35124 0.0
C1239 C 0.50271 0.34127 0.32151 0.0
C1240 C 0.51103 0.39191 0.33463 0.0
C1241 C 0.51022 0.3596 0.30542 0.0
C1242 C 0.45132 0.29558 0.41234 0.0
C1243 C 0.44836 0.29565 0.45418 0.0
N1244 N 0.42332 0.2984 0.4516 0.0
C1245 C 0.42557 0.29836 0.41009 0.0
C1246 C 0.46285 0.29424 0.43455 0.0
C1247 C 0.41173 0.29977 0.43015 0.0
C1248 C 0.44779 0.26548 0.33654 0.0
N1249 N 0.45406 0.29054 0.33878 0.0
C1250 C 0.41916 0.30388 0.31533 0.0
C1251 C 0.44078 0.3098 0.3282 0.0
C1252 C 0.41234 0.278 0.31316 0.0
C1253 C 0.42741 0.25865 0.32292 0.0
H1254 H 0.45742 0.25094 0.34677 0.0
H1255 H 0.44593 0.32963 0.33128 0.0
C1256 C 0.50862 0.36136 0.41568 0.0
N1257 N 0.4857 0.35105 0.4132 0.0
C1258 C 0.51427 0.37739 0.43411 0.0
C1259 C 0.47152 0.37465 0.44557 0.0
C1260 C 0.4669 0.35757 0.42716 0.0
C1261 C 0.49571 0.38411 0.44943 0.0
H1262 H 0.52303 0.3556 0.40418 0.0
H1263 H 0.44884 0.34884 0.42469 0.0
C1264 C 0.50544 0.25244 0.34636 0.0
N1265 N 0.50298 0.21336 0.31374 0.0
C1266 C 0.50425 0.22678 0.35356 0.0
C1267 C 0.50563 0.25817 0.32255 0.0
C1268 C 0.50295 0.20732 0.33681 0.0
C1269 C 0.5043 0.23816 0.30633 0.0
C1270 C 0.54029 0.3034 0.41773 0.0
C1271 C 0.56267 0.29291 0.41064 0.0
C1272 C 0.538 0.31092 0.44095 0.0
C1273 C 0.58245 0.29024 0.4269 0.0
C1274 C 0.55821 0.3079 0.45668 0.0
N1275 N 0.57983 0.29773 0.44939 0.0
C1276 C 0.55968 0.33695 0.3576 0.0
C1277 C 0.55942 0.29508 0.341 0.0
C1278 C 0.58234 0.34234 0.34788 0.0
N1279 N 0.54897 0.31359 0.35407 0.0
C1280 C 0.58191 0.29965 0.33092 0.0
C1281 C 0.59355 0.32335 0.33465 0.0
H1282 H 0.55092 0.35105 0.36842 0.0
H1283 H 0.55077 0.27651 0.33908 0.0
C1284 C 0.47715 0.23404 0.41285 0.0
N1285 N 0.49771 0.24904 0.41492 0.0
C1286 C 0.47447 0.21302 0.42758 0.0
C1287 C 0.51388 0.22385 0.44661 0.0
C1288 C 0.51595 0.24437 0.43133 0.0
C1289 C 0.49305 0.20779 0.44468 0.0
H1290 H 0.46292 0.2384 0.39963 0.0
H1291 H 0.5321 0.25643 0.43267 0.0
O1292 O 0.49203 0.33098 0.36062 0.0
O1293 O 0.46511 0.29515 0.39281 0.0
O1294 O 0.50636 0.2717 0.36264 0.0
O1295 O 0.52075 0.30642 0.40203 0.0
H1296 H 0.50088 0.38023 0.36897 0.0
H1297 H 0.49927 0.3217 0.31602 0.0
H1298 H 0.51418 0.41176 0.3395 0.0
H1299 H 0.51279 0.35419 0.28747 0.0
H1300 H 0.45704 0.29475 0.47147 0.0
H1301 H 0.41641 0.29966 0.393 0.0
H1302 H 0.48279 0.29258 0.43663 0.0
H1303 H 0.39179 0.30206 0.42868 0.0
H1304 H 0.40716 0.31912 0.30861 0.0
H1305 H 0.42184 0.23862 0.32233 0.0
H1306 H 0.53323 0.38399 0.4366 0.0
H1307 H 0.45662 0.38005 0.45671 0.0
H1308 H 0.50431 0.22194 0.3719 0.0
H1309 H 0.50666 0.27785 0.31664 0.0
H1310 H 0.50194 0.1874 0.34215 0.0
H1311 H 0.5043 0.24234 0.28786 0.0
H1312 H 0.56471 0.28671 0.39284 0.0
H1313 H 0.52077 0.3189 0.44682 0.0
H1314 H 0.59988 0.28217 0.42166 0.0
H1315 H 0.55669 0.31363 0.47469 0.0
H1316 H 0.59143 0.36056 0.35137 0.0
H1317 H 0.5907 0.28449 0.32123 0.0
H1318 H 0.45844 0.20066 0.42519 0.0
H1319 H 0.52858 0.22035 0.45963 0.0
Li1320 Li 0.52762 0.78762 0.13787 0.0
Li1321 Li 0.551 0.76355 0.17078 0.0
Li1322 Li 0.52555 0.73882 0.1386 0.0
Li1323 Li 0.50267 0.76394 0.1702 0.0
C1324 C 0.57126 0.76594 0.11925 0.0
N1325 N 0.60454 0.77377 0.08453 0.0
C1326 C 0.59503 0.77524 0.12484 0.0
C1327 C 0.56442 0.76055 0.09604 0.0
C1328 C 0.61159 0.77911 0.10702 0.0
C1329 C 0.58151 0.76465 0.07873 0.0
C1330 C 0.53229 0.81081 0.19007 0.0
C1331 C 0.53168 0.82305 0.23057 0.0
N1332 N 0.54269 0.84573 0.22531 0.0
C1333 C 0.54355 0.83425 0.18505 0.0
C1334 C 0.52625 0.80513 0.21299 0.0
C1335 C 0.54867 0.85165 0.20311 0.0
C1336 C 0.51019 0.82806 0.1053 0.0
N1337 N 0.53008 0.81844 0.11789 0.0
C1338 C 0.55563 0.85262 0.10393 0.0
C1339 C 0.55254 0.83029 0.11728 0.0
C1340 C 0.53539 0.86332 0.09107 0.0
C1341 C 0.51248 0.85044 0.09168 0.0
H1342 H 0.49241 0.81857 0.10603 0.0
H1343 H 0.56812 0.82262 0.12746 0.0
C1344 C 0.59932 0.74297 0.18325 0.0
N1345 N 0.5833 0.76215 0.18882 0.0
C1346 C 0.6233 0.74153 0.19379 0.0
C1347 C 0.61413 0.77935 0.21603 0.0
C1348 C 0.59041 0.78021 0.20494 0.0
C1349 C 0.63109 0.75983 0.21055 0.0
H1350 H 0.59361 0.72892 0.17024 0.0
H1351 H 0.57795 0.79564 0.20905 0.0
C1352 C 0.4811 0.75811 0.11722 0.0
N1353 N 0.44778 0.74525 0.0814 0.0
C1354 C 0.45805 0.74764 0.12221 0.0
C1355 C 0.48717 0.76216 0.09405 0.0
C1356 C 0.44146 0.74124 0.10384 0.0
C1357 C 0.47009 0.75549 0.07617 0.0
C1358 C 0.52547 0.7164 0.19058 0.0
C1359 C 0.5179 0.69134 0.18526 0.0
C1360 C 0.53239 0.72286 0.21354 0.0
C1361 C 0.51736 0.67306 0.2031 0.0
C1362 C 0.53159 0.70402 0.23089 0.0
N1363 N 0.52416 0.67973 0.22535 0.0
C1364 C 0.54874 0.69802 0.11344 0.0
C1365 C 0.50516 0.69363 0.11402 0.0
C1366 C 0.5507 0.67514 0.1006 0.0
N1367 N 0.52621 0.70698 0.11982 0.0
C1368 C 0.50631 0.67053 0.10134 0.0
C1369 C 0.52931 0.66094 0.09432 0.0
H1370 H 0.56536 0.70847 0.11858 0.0
H1371 H 0.48743 0.70065 0.11949 0.0
C1372 C 0.46314 0.78681 0.19806 0.0
N1373 N 0.47176 0.76445 0.18883 0.0
C1374 C 0.44069 0.78744 0.20996 0.0
C1375 C 0.43595 0.74214 0.20276 0.0
C1376 C 0.45863 0.74228 0.19128 0.0
C1377 C 0.42639 0.76499 0.21217 0.0
H1378 H 0.47347 0.80439 0.19587 0.0
H1379 H 0.46551 0.72463 0.1839 0.0
O1380 O 0.55496 0.76165 0.1365 0.0
O1381 O 0.52699 0.79363 0.17259 0.0
O1382 O 0.49743 0.7648 0.13499 0.0
O1383 O 0.5268 0.73429 0.17324 0.0
H1384 H 0.60061 0.77952 0.14273 0.0
H1385 H 0.54619 0.75306 0.09148 0.0
H1386 H 0.63005 0.78632 0.11107 0.0
H1387 H 0.57649 0.76052 0.06069 0.0
H1388 H 0.52716 0.81891 0.24839 0.0
H1389 H 0.54826 0.83896 0.16739 0.0
H1390 H 0.51753 0.78705 0.21714 0.0
H1391 H 0.55738 0.86987 0.19949 0.0
H1392 H 0.57376 0.8615 0.10377 0.0
H1393 H 0.4963 0.85796 0.08218 0.0
H1394 H 0.63561 0.72612 0.18894 0.0
H1395 H 0.61933 0.79421 0.22847 0.0
H1396 H 0.45301 0.74452 0.14006 0.0
H1397 H 0.50481 0.77053 0.08992 0.0
H1398 H 0.42355 0.73311 0.10743 0.0
H1399 H 0.47453 0.75852 0.05815 0.0
H1400 H 0.51263 0.68605 0.16752 0.0
H1401 H 0.5385 0.74214 0.21785 0.0
H1402 H 0.51159 0.65357 0.19924 0.0
H1403 H 0.53694 0.70869 0.24874 0.0
H1404 H 0.56889 0.66831 0.09614 0.0
H1405 H 0.48931 0.66026 0.09702 0.0
H1406 H 0.43419 0.80556 0.21677 0.0
H1407 H 0.42594 0.72423 0.20423 0.0
Li1408 Li 0.91449 0.01278 0.8208 0.0
Li1409 Li 0.88201 0.9858 0.80013 0.0
Li1410 Li 0.91475 0.00743 0.77895 0.0
Li1411 Li 0.8808 0.0333 0.7957 0.0
C1412 C 0.93454 0.96213 0.79562 0.0
N1413 N 0.96735 0.92556 0.78016 0.0
C1414 C 0.92654 0.93698 0.79124 0.0
C1415 C 0.95932 0.96858 0.79237 0.0
C1416 C 0.94341 0.91877 0.78346 0.0
C1417 C 0.97557 0.94987 0.78438 0.0
C1418 C 0.86157 0.00582 0.84068 0.0
C1419 C 0.81967 0.00188 0.85335 0.0
N1420 N 0.82849 0.99178 0.87393 0.0
C1421 C 0.87026 0.99545 0.86194 0.0
C1422 C 0.83611 0.00916 0.83631 0.0
C1423 C 0.85322 0.98846 0.87854 0.0
C1424 C 0.92968 0.04033 0.86044 0.0
N1425 N 0.93282 0.0178 0.84895 0.0
C1426 C 0.9607 0.00236 0.87905 0.0
C1427 C 0.94802 0.99897 0.85763 0.0
C1428 C 0.95739 0.0252 0.89161 0.0
C1429 C 0.9419 0.04448 0.88198 0.0
H1430 H 0.91746 0.05492 0.85295 0.0
H1431 H 0.95 0.98123 0.84804 0.0
C1432 C 0.85894 0.94697 0.77654 0.0
N1433 N 0.86185 0.95597 0.79866 0.0
C1434 C 0.84351 0.92622 0.77159 0.0
C1435 C 0.83582 0.92263 0.81269 0.0
C1436 C 0.85094 0.94416 0.81677 0.0
C1437 C 0.83165 0.91363 0.78972 0.0
H1438 H 0.86848 0.9562 0.76258 0.0
H1439 H 0.85408 0.9512 0.83433 0.0
C1440 C 0.93723 0.05608 0.79712 0.0
N1441 N 0.97733 0.08913 0.79924 0.0
C1442 C 0.93468 0.08133 0.78895 0.0
C1443 C 0.96021 0.04765 0.80631 0.0
C1444 C 0.95516 0.09776 0.79022 0.0
C1445 C 0.98026 0.06462 0.8072 0.0
C1446 C 0.86231 0.01015 0.75309 0.0
C1447 C 0.86998 0.02218 0.73281 0.0
C1448 C 0.8379 0.00134 0.75421 0.0
C1449 C 0.85308 0.02511 0.71391 0.0
C1450 C 0.82157 0.00464 0.73495 0.0
N1451 N 0.82945 0.01634 0.71535 0.0
C1452 C 0.92554 0.98387 0.73726 0.0
C1453 C 0.95404 0.01696 0.74755 0.0
C1454 C 0.93761 0.9792 0.7166 0.0
N1455 N 0.93376 0.00261 0.7521 0.0
C1456 C 0.96682 0.01279 0.72718 0.0
C1457 C 0.95854 0.9938 0.71132 0.0
H1458 H 0.9093 0.97281 0.74134 0.0
H1459 H 0.96025 0.03173 0.75958 0.0
C1460 C 0.86955 0.08395 0.80526 0.0
N1461 N 0.86041 0.06293 0.79388 0.0
C1462 C 0.85636 0.10703 0.80457 0.0
C1463 C 0.82395 0.08605 0.78144 0.0
C1464 C 0.83781 0.06337 0.78257 0.0
C1465 C 0.83346 0.10834 0.79218 0.0
H1466 H 0.88725 0.08281 0.81472 0.0
H1467 H 0.83044 0.04624 0.77446 0.0
O1468 O 0.9184 0.97996 0.80394 0.0
O1469 O 0.87795 0.01314 0.82439 0.0
O1470 O 0.91711 0.04007 0.79674 0.0
O1471 O 0.87885 0.00624 0.77146 0.0
H1472 H 0.9076 0.93145 0.79415 0.0
H1473 H 0.96593 0.98784 0.79582 0.0
H1474 H 0.93749 0.89921 0.78015 0.0
H1475 H 0.99475 0.95467 0.78161 0.0
H1476 H 0.7999 0.00429 0.85023 0.0
H1477 H 0.88994 0.99281 0.86558 0.0
H1478 H 0.82917 0.01724 0.81992 0.0
H1479 H 0.85965 0.9804 0.89509 0.0
H1480 H 0.97246 0.98705 0.88602 0.0
H1481 H 0.93921 0.06247 0.89105 0.0
H1482 H 0.84092 0.92011 0.75363 0.0
H1483 H 0.82789 0.91297 0.82736 0.0
H1484 H 0.91707 0.0882 0.78172 0.0
H1485 H 0.96254 0.02826 0.8128 0.0
H1486 H 0.95341 0.11737 0.78405 0.0
H1487 H 0.99813 0.05834 0.8143 0.0
H1488 H 0.88882 0.02906 0.73163 0.0
H1489 H 0.83151 0.99233 0.76989 0.0
H1490 H 0.85878 0.0343 0.69806 0.0
H1491 H 0.80263 0.99795 0.7356 0.0
H1492 H 0.93021 0.96483 0.70462 0.0
H1493 H 0.98291 0.02443 0.72377 0.0
H1494 H 0.86426 0.12382 0.81316 0.0
H1495 H 0.80604 0.08616 0.77224 0.0
Li1496 Li 0.7793 0.13811 0.51927 0.0
Li1497 Li 0.80194 0.10226 0.49934 0.0
Li1498 Li 0.77809 0.13724 0.47595 0.0
Li1499 Li 0.7553 0.10369 0.49826 0.0
C1500 C 0.82351 0.15994 0.50304 0.0
N1501 N 0.85606 0.19965 0.51315 0.0
C1502 C 0.84661 0.1548 0.51393 0.0
C1503 C 0.81702 0.18519 0.4971 0.0
C1504 C 0.86279 0.17517 0.51894 0.0
C1505 C 0.83371 0.20503 0.50243 0.0
C1506 C 0.77783 0.08132 0.54125 0.0
C1507 C 0.77211 0.03644 0.55003 0.0
N1508 N 0.77532 0.04173 0.57317 0.0
C1509 C 0.78097 0.08636 0.56509 0.0
C1510 C 0.77328 0.05621 0.5336 0.0
C1511 C 0.77968 0.06605 0.58096 0.0
C1512 C 0.75412 0.16294 0.55381 0.0
N1513 N 0.77747 0.15834 0.54665 0.0
C1514 C 0.79495 0.17857 0.58084 0.0
C1515 C 0.7978 0.1658 0.55965 0.0
C1516 C 0.771 0.18375 0.58843 0.0
C1517 C 0.75043 0.17595 0.57461 0.0
H1518 H 0.73831 0.15589 0.54362 0.0
H1519 H 0.81615 0.16125 0.55394 0.0
C1520 C 0.84806 0.08488 0.48328 0.0
N1521 N 0.83203 0.08217 0.50085 0.0
C1522 C 0.87142 0.07301 0.48468 0.0
C1523 C 0.86109 0.05511 0.52191 0.0
C1524 C 0.83809 0.06755 0.51992 0.0
C1525 C 0.87833 0.05797 0.5043 0.0
H1526 H 0.84301 0.09701 0.4685 0.0
H1527 H 0.82544 0.06605 0.53396 0.0
C1528 C 0.73314 0.16018 0.49467 0.0
N1529 N 0.69771 0.19847 0.49023 0.0
C1530 C 0.70863 0.15402 0.48819 0.0
C1531 C 0.73965 0.18579 0.49892 0.0
C1532 C 0.69099 0.17367 0.48602 0.0
C1533 C 0.72145 0.20488 0.49657 0.0
C1534 C 0.77263 0.08048 0.45546 0.0
C1535 C 0.76066 0.08729 0.43431 0.0
C1536 C 0.77998 0.05501 0.45939 0.0
C1537 C 0.75616 0.06839 0.41739 0.0
C1538 C 0.7751 0.03667 0.44205 0.0
N1539 N 0.76343 0.0437 0.42158 0.0
C1540 C 0.80104 0.15954 0.438 0.0
C1541 C 0.75858 0.17096 0.43972 0.0
C1542 C 0.80343 0.17441 0.41791 0.0
N1543 N 0.77887 0.15803 0.44842 0.0
C1544 C 0.76022 0.18629 0.41976 0.0
C1545 C 0.78282 0.18794 0.40851 0.0
H1546 H 0.81688 0.14912 0.44533 0.0
H1547 H 0.74107 0.16929 0.44809 0.0
C1548 C 0.71623 0.0877 0.52397 0.0
N1549 N 0.72449 0.08616 0.5019 0.0
C1550 C 0.69282 0.07852 0.52919 0.0
C1551 C 0.68626 0.06673 0.48871 0.0
C1552 C 0.71012 0.07586 0.48429 0.0
C1553 C 0.67741 0.06808 0.51143 0.0
H1554 H 0.72759 0.09688 0.53746 0.0
H1555 H 0.7168 0.07546 0.46676 0.0
O1556 O 0.80762 0.14021 0.49771 0.0
O1557 O 0.77909 0.10099 0.52553 0.0
O1558 O 0.75051 0.14111 0.49731 0.0
O1559 O 0.77835 0.09895 0.4717 0.0
H1560 H 0.85194 0.13529 0.51847 0.0
H1561 H 0.79936 0.18941 0.48835 0.0
H1562 H 0.88072 0.17151 0.5274 0.0
H1563 H 0.82894 0.22469 0.49797 0.0
H1564 H 0.76864 0.01689 0.5444 0.0
H1565 H 0.78443 0.10574 0.57124 0.0
H1566 H 0.77069 0.05208 0.51519 0.0
H1567 H 0.78214 0.06964 0.59947 0.0
H1568 H 0.8112 0.18413 0.59129 0.0
H1569 H 0.73172 0.17914 0.58023 0.0
H1570 H 0.88425 0.07646 0.47097 0.0
H1571 H 0.86551 0.04373 0.53734 0.0
H1572 H 0.70329 0.13427 0.4849 0.0
H1573 H 0.75847 0.19083 0.5042 0.0
H1574 H 0.67194 0.16919 0.48103 0.0
H1575 H 0.72619 0.22478 0.49987 0.0
H1576 H 0.75514 0.10702 0.43092 0.0
H1577 H 0.78961 0.04955 0.47555 0.0
H1578 H 0.747 0.07336 0.40088 0.0
H1579 H 0.78073 0.01689 0.4448 0.0
H1580 H 0.82123 0.17539 0.40983 0.0
H1581 H 0.74387 0.19628 0.41289 0.0
H1582 H 0.68647 0.08036 0.5468 0.0
H1583 H 0.67478 0.05892 0.47454 0.0
Li1584 Li 0.64918 0.01084 0.33038 0.0
Li1585 Li 0.6815 0.03626 0.30895 0.0
Li1586 Li 0.64914 0.01026 0.28703 0.0
Li1587 Li 0.68377 0.98897 0.31015 0.0
C1588 C 0.62676 0.05768 0.30955 0.0
N1589 N 0.5901 0.09461 0.31196 0.0
C1590 C 0.63275 0.08261 0.31683 0.0
C1591 C 0.60217 0.05149 0.30347 0.0
C1592 C 0.61393 0.10102 0.31794 0.0
C1593 C 0.58389 0.07045 0.30483 0.0
C1594 C 0.7058 0.00981 0.35203 0.0
C1595 C 0.74994 0.00546 0.3593 0.0
N1596 N 0.7461 0.00204 0.3824 0.0
C1597 C 0.70227 0.00619 0.37582 0.0
C1598 C 0.7298 0.0095 0.34367 0.0
C1599 C 0.7229 0.00237 0.39091 0.0
C1600 C 0.62304 0.98552 0.36476 0.0
N1601 N 0.62839 0.00929 0.35648 0.0
C1602 C 0.60403 0.02899 0.38557 0.0
C1603 C 0.61924 0.03089 0.36642 0.0
C1604 C 0.59835 0.00466 0.39462 0.0
C1605 C 0.60788 0.98273 0.3838 0.0
H1606 H 0.63059 0.96867 0.35654 0.0
H1607 H 0.62391 0.04958 0.35962 0.0
C1608 C 0.69283 0.07828 0.28364 0.0
N1609 N 0.69768 0.06791 0.30508 0.0
C1610 C 0.7024 0.10217 0.27791 0.0
C1611 C 0.7218 0.1045 0.31658 0.0
C1612 C 0.71196 0.08029 0.32153 0.0
C1613 C 0.7168 0.1157 0.29455 0.0
H1614 H 0.68125 0.06797 0.27104 0.0
H1615 H 0.71542 0.07155 0.33847 0.0
C1616 C 0.62947 0.9636 0.30286 0.0
N1617 N 0.59268 0.92894 0.29021 0.0
C1618 C 0.63561 0.9402 0.29257 0.0
C1619 C 0.60466 0.96939 0.30675 0.0
C1620 C 0.61672 0.92293 0.28629 0.0
C1621 C 0.58632 0.95161 0.30022 0.0
C1622 C 0.70152 0.01439 0.26559 0.0
C1623 C 0.69464 0.00683 0.2429 0.0
C1624 C 0.725 0.02497 0.2702 0.0
C1625 C 0.71145 0.00988 0.22517 0.0
C1626 C 0.74129 0.02769 0.252 0.0
N1627 N 0.73423 0.02015 0.23005 0.0
C1628 C 0.63003 0.03651 0.24885 0.0
C1629 C 0.61937 0.99235 0.2471 0.0
C1630 C 0.61894 0.04084 0.22684 0.0
N1631 N 0.63025 0.01257 0.25842 0.0
C1632 C 0.60793 0.99585 0.22503 0.0
C1633 C 0.60805 0.02028 0.21447 0.0
H1634 H 0.63908 0.05217 0.25814 0.0
H1635 H 0.62001 0.97343 0.25485 0.0
C1636 C 0.69774 0.93872 0.32291 0.0
N1637 N 0.70498 0.95964 0.31071 0.0
C1638 C 0.71058 0.91547 0.32124 0.0
C1639 C 0.73874 0.93606 0.29531 0.0
C1640 C 0.72536 0.95889 0.29748 0.0
C1641 C 0.73111 0.91384 0.30694 0.0
H1642 H 0.68132 0.93982 0.33313 0.0
H1643 H 0.73081 0.97574 0.288 0.0
O1644 O 0.64504 0.03963 0.30785 0.0
O1645 O 0.68581 0.01402 0.33714 0.0
O1646 O 0.64775 0.98056 0.30939 0.0
O1647 O 0.68508 0.01196 0.28305 0.0
H1648 H 0.65173 0.08769 0.32154 0.0
H1649 H 0.59731 0.03231 0.29763 0.0
H1650 H 0.61829 0.1204 0.32352 0.0
H1651 H 0.56477 0.06598 0.30014 0.0
H1652 H 0.76862 0.00508 0.35308 0.0
H1653 H 0.68379 0.00653 0.38255 0.0
H1654 H 0.73282 0.01223 0.32532 0.0
H1655 H 0.72048 -0.0003 0.40939 0.0
H1656 H 0.59721 0.04637 0.39352 0.0
H1657 H 0.60363 0.96361 0.38996 0.0
H1658 H 0.69808 0.11027 0.26083 0.0
H1659 H 0.73309 0.11437 0.32975 0.0
H1660 H 0.65474 0.93548 0.28939 0.0
H1661 H 0.59965 0.9874 0.31476 0.0
H1662 H 0.62118 0.90476 0.27829 0.0
H1663 H 0.56703 0.9558 0.30312 0.0
H1664 H 0.67652 0.99866 0.23902 0.0
H1665 H 0.7306 0.0311 0.2876 0.0
H1666 H 0.70638 0.00411 0.20753 0.0
H1667 H 0.75952 0.03583 0.25532 0.0
H1668 H 0.61953 0.05992 0.21928 0.0
H1669 H 0.59933 0.97957 0.21621 0.0
H1670 H 0.70378 0.89867 0.33015 0.0
H1671 H 0.75453 0.9356 0.2842 0.0
Li1672 Li 0.73225 0.93554 0.01997 0.0
Li1673 Li 0.73858 0.89811 0.04437 0.0
Li1674 Li 0.77283 0.92362 0.03145 0.0
Li1675 Li 0.74838 0.8959 0.00458 0.0
C1676 C 0.75563 0.95074 0.06879 0.0
N1677 N 0.77474 0.98388 0.10269 0.0
C1678 C 0.75531 0.94405 0.09242 0.0
C1679 C 0.76631 0.97412 0.06251 0.0
C1680 C 0.76484 0.96111 0.10926 0.0
C1681 C 0.77576 0.99063 0.07985 0.0
C1682 C 0.69753 0.88512 0.02405 0.0
C1683 C 0.68273 0.84195 0.03015 0.0
N1684 N 0.66183 0.85168 0.03934 0.0
C1685 C 0.67592 0.8947 0.03357 0.0
C1686 C 0.70097 0.85853 0.02231 0.0
C1687 C 0.65807 0.87747 0.04119 0.0
C1688 C 0.69297 0.95772 0.99625 0.0
N1689 N 0.71208 0.96326 0.01139 0.0
C1690 C 0.70092 0.00756 0.0119 0.0
C1691 C 0.71674 0.98765 0.01875 0.0
C1692 C 0.67972 0.00197 0.99801 0.0
C1693 C 0.67639 0.97689 0.98929 0.0
H1694 H 0.69013 0.93817 0.99033 0.0
H1695 H 0.73227 0.99168 0.03037 0.0
C1696 C 0.73781 0.85392 0.06946 0.0
N1697 N 0.72814 0.87799 0.06913 0.0
C1698 C 0.73999 0.84043 0.09022 0.0
C1699 C 0.71969 0.87573 0.10942 0.0
C1700 C 0.71714 0.88821 0.08791 0.0
C1701 C 0.73266 0.85238 0.11063 0.0
H1702 H 0.74616 0.84632 0.05422 0.0
H1703 H 0.70924 0.90733 0.08685 0.0
C1704 C 0.75491 0.94854 0.98212 0.0
N1705 N 0.74151 0.98414 0.94803 0.0
C1706 C 0.74184 0.94078 0.96183 0.0
C1707 C 0.76131 0.97444 0.98495 0.0
C1708 C 0.73523 0.95906 0.94482 0.0
C1709 C 0.75431 0.99213 0.96757 0.0
C1710 C 0.78747 0.86873 0.0235 0.0
C1711 C 0.81176 0.8769 0.02002 0.0
C1712 C 0.78098 0.84326 0.01827 0.0
C1713 C 0.82901 0.85965 0.01135 0.0
C1714 C 0.79879 0.82657 0.00966 0.0
N1715 N 0.82223 0.83504 0.00639 0.0
C1716 C 0.81295 0.93781 0.06175 0.0
C1717 C 0.81379 0.95267 0.02259 0.0
C1718 C 0.8332 0.95322 0.06806 0.0
N1719 N 0.80334 0.93855 0.0395 0.0
C1720 C 0.83413 0.96804 0.02803 0.0
C1721 C 0.84362 0.9687 0.05104 0.0
H1722 H 0.80425 0.92612 0.07471 0.0
H1723 H 0.80607 0.95227 0.00497 0.0
C1724 C 0.72375 0.86939 0.9694 0.0
N1725 N 0.74689 0.87484 0.9782 0.0
C1726 C 0.7206 0.85292 0.95055 0.0
C1727 C 0.76526 0.84862 0.94963 0.0
C1728 C 0.76754 0.86562 0.96825 0.0
C1729 C 0.74152 0.84226 0.94059 0.0
H1730 H 0.70768 0.87808 0.97684 0.0
H1731 H 0.78572 0.87125 0.97488 0.0
O1732 O 0.74551 0.93457 0.05205 0.0
O1733 O 0.71543 0.90165 0.0168 0.0
O1734 O 0.76098 0.93101 -0.00072 0.0
O1735 O 0.77033 0.88535 0.0323 0.0
H1736 H 0.74802 0.92587 0.09788 0.0
H1737 H 0.7683 0.97905 0.04439 0.0
H1738 H 0.76446 0.95616 0.12757 0.0
H1739 H 0.78416 0.00868 0.07513 0.0
H1740 H 0.68525 0.82135 0.02901 0.0
H1741 H 0.67301 0.91522 0.03511 0.0
H1742 H 0.71774 0.85074 0.01531 0.0
H1743 H 0.64125 0.88459 0.04861 0.0
H1744 H 0.70401 0.02663 0.01899 0.0
H1745 H 0.65998 0.9715 0.979 0.0
H1746 H 0.75018 0.82243 0.09082 0.0
H1747 H 0.71398 0.8853 0.12509 0.0
H1748 H 0.73661 0.92094 0.95927 0.0
H1749 H 0.7711 0.98096 0.00063 0.0
H1750 H 0.72502 0.9533 0.9291 0.0
H1751 H 0.75892 0.01225 0.96967 0.0
H1752 H 0.81743 0.8963 0.02388 0.0
H1753 H 0.76224 0.8365 0.02012 0.0
H1754 H 0.84781 0.86584 0.00856 0.0
H1755 H 0.79391 0.80693 0.00537 0.0
H1756 H 0.84072 0.95297 0.08584 0.0
H1757 H 0.84234 0.97939 0.01448 0.0
H1758 H 0.70206 0.84897 0.94355 0.0
H1759 H 0.78184 0.84067 0.94233 0.0
Li1760 Li 0.27924 0.63812 0.01824 0.0
Li1761 Li 0.30217 0.60273 -0.00076 0.0
Li1762 Li 0.2779 0.63657 0.97532 0.0
Li1763 Li 0.25556 0.60285 0.99765 0.0
C1764 C 0.32275 0.66021 0.00431 0.0
N1765 N 0.35413 0.69958 0.01844 0.0
C1766 C 0.34449 0.65477 0.01743 0.0
C1767 C 0.31704 0.68563 0.99824 0.0
C1768 C 0.36009 0.67496 0.02446 0.0
C1769 C 0.33311 0.70528 0.0056 0.0
C1770 C 0.28104 0.58017 0.03968 0.0
C1771 C 0.27972 0.53435 0.04583 0.0
N1772 N 0.2845 0.5381 0.06904 0.0
C1773 C 0.28587 0.5836 0.06357 0.0
C1774 C 0.27787 0.5554 0.0307 0.0
C1775 C 0.28757 0.56207 0.07813 0.0
C1776 C 0.25535 0.66932 0.04996 0.0
N1777 N 0.27764 0.65852 0.04549 0.0
C1778 C 0.29403 0.67109 0.08303 0.0
C1779 C 0.29695 0.65934 0.0614 0.0
C1780 C 0.27098 0.68189 0.08828 0.0
C1781 C 0.25172 0.68152 0.07115 0.0
H1782 H 0.24 0.66764 0.03747 0.0
H1783 H 0.31423 0.64987 0.05771 0.0
C1784 C 0.34324 0.57471 0.98185 0.0
N1785 N 0.3322 0.5827 0.00152 0.0
C1786 C 0.3663 0.56223 0.98334 0.0
C1787 C 0.36613 0.56621 0.02525 0.0
C1788 C 0.34311 0.5786 0.02297 0.0
C1789 C 0.37815 0.55795 0.00527 0.0
H1790 H 0.33441 0.57858 0.96496 0.0
H1791 H 0.33434 0.58574 0.03831 0.0
C1792 C 0.23296 0.65879 0.99031 0.0
N1793 N 0.19809 0.69603 0.97847 0.0
C1794 C 0.20877 0.65172 0.9835 0.0
C1795 C 0.2394 0.6848 0.99115 0.0
C1796 C 0.19141 0.67084 0.97758 0.0
C1797 C 0.22151 0.70334 0.98506 0.0
C1798 C 0.27397 0.58023 0.95473 0.0
C1799 C 0.26203 0.58734 0.93365 0.0
C1800 C 0.28223 0.55495 0.95799 0.0
C1801 C 0.25862 0.56897 0.91608 0.0
C1802 C 0.27843 0.53714 0.94001 0.0
N1803 N 0.26688 0.5445 0.9196 0.0
C1804 C 0.30015 0.66533 0.94017 0.0
C1805 C 0.25628 0.66432 0.9363 0.0
C1806 C 0.30137 0.68141 0.92071 0.0
N1807 N 0.27784 0.65732 0.94768 0.0
C1808 C 0.25662 0.68057 0.91687 0.0
C1809 C 0.27939 0.68945 0.90893 0.0
H1810 H 0.31704 0.65932 0.94941 0.0
H1811 H 0.23878 0.65724 0.9422 0.0
C1812 C 0.21719 0.58433 0.02326 0.0
N1813 N 0.22509 0.58458 0.00102 0.0
C1814 C 0.19354 0.5754 0.02807 0.0
C1815 C 0.18636 0.56698 0.98697 0.0
C1816 C 0.21037 0.57587 0.98294 0.0
C1817 C 0.17758 0.5671 0.00978 0.0
H1818 H 0.22892 0.59209 0.03722 0.0
H1819 H 0.21685 0.5768 0.96535 0.0
O1820 O 0.30758 0.64064 0.99679 0.0
O1821 O 0.27907 0.60107 0.02527 0.0
O1822 O 0.25004 0.64033 0.99663 0.0
O1823 O 0.27889 0.59832 0.97151 0.0
H1824 H 0.34928 0.63517 0.02211 0.0
H1825 H 0.3005 0.69012 0.98777 0.0
H1826 H 0.37697 0.67105 0.03464 0.0
H1827 H 0.32893 0.72504 0.001 0.0
H1828 H 0.27731 0.51504 0.03915 0.0
H1829 H 0.28824 0.6027 0.07077 0.0
H1830 H 0.27386 0.55249 0.01228 0.0
H1831 H 0.2913 0.56443 0.09666 0.0
H1832 H 0.30932 0.67085 0.09582 0.0
H1833 H 0.23385 0.69013 0.07424 0.0
H1834 H 0.37494 0.55627 0.96748 0.0
H1835 H 0.37484 0.56401 0.04246 0.0
H1836 H 0.20342 0.6317 0.98287 0.0
H1837 H 0.25794 0.6906 0.99666 0.0
H1838 H 0.17261 0.66564 0.97231 0.0
H1839 H 0.22623 0.72354 0.98567 0.0
H1840 H 0.25574 0.6069 0.93079 0.0
H1841 H 0.29184 0.54923 0.97407 0.0
H1842 H 0.24954 0.57419 0.8996 0.0
H1843 H 0.28483 0.51753 0.94222 0.0
H1844 H 0.31931 0.68767 0.91501 0.0
H1845 H 0.2393 0.68573 0.90788 0.0
H1846 H 0.18742 0.57598 0.04583 0.0
H1847 H 0.17464 0.56048 0.97241 0.0
Li1848 Li 0.183 0.53501 0.80913 0.0
Li1849 Li 0.15051 0.51022 0.83147 0.0
Li1850 Li 0.18355 0.48744 0.8088 0.0
Li1851 Li 0.14869 0.51066 0.78812 0.0
C1852 C 0.20661 0.50973 0.85285 0.0
N1853 N 0.24447 0.50509 0.88639 0.0
C1854 C 0.20141 0.51093 0.87651 0.0
C1855 C 0.23107 0.50633 0.84626 0.0
C1856 C 0.22082 0.50858 0.89321 0.0
C1857 C 0.24996 0.50398 0.86348 0.0
C1858 C 0.1282 0.55772 0.8098 0.0
C1859 C 0.0849 0.56903 0.80572 0.0
N1860 N 0.09088 0.59416 0.80929 0.0
C1861 C 0.13395 0.58363 0.8134 0.0
C1862 C 0.10352 0.55029 0.80592 0.0
C1863 C 0.1148 0.60177 0.8131 0.0
C1864 C 0.19818 0.57419 0.7822 0.0
N1865 N 0.20063 0.56589 0.80464 0.0
C1866 C 0.22398 0.60333 0.81529 0.0
C1867 C 0.21333 0.57975 0.82122 0.0
C1868 C 0.22166 0.61218 0.79212 0.0
C1869 C 0.20875 0.59724 0.77548 0.0
H1870 H 0.1876 0.56302 0.76952 0.0
H1871 H 0.21476 0.5728 0.83901 0.0
C1872 C 0.12229 0.48611 0.86564 0.0
N1873 N 0.13029 0.50938 0.85819 0.0
C1874 C 0.10616 0.48446 0.88408 0.0
C1875 C 0.10753 0.53071 0.88756 0.0
C1876 C 0.1234 0.5315 0.86881 0.0
C1877 C 0.09836 0.50696 0.89525 0.0
H1878 H 0.12818 0.46879 0.85701 0.0
H1879 H 0.1302 0.54976 0.86268 0.0
C1880 C 0.20273 0.51091 0.76669 0.0
N1881 N 0.23978 0.51071 0.73474 0.0
C1882 C 0.19716 0.50493 0.74334 0.0
C1883 C 0.22709 0.51696 0.77376 0.0
C1884 C 0.21617 0.50488 0.72746 0.0
C1885 C 0.24558 0.5167 0.75736 0.0
C1886 C 0.12894 0.4634 0.80351 0.0
C1887 C 0.13479 0.44084 0.79168 0.0
C1888 C 0.1044 0.46823 0.80922 0.0
C1889 C 0.1159 0.42347 0.78566 0.0
C1890 C 0.08604 0.45037 0.80289 0.0
N1891 N 0.09212 0.42855 0.79134 0.0
C1892 C 0.2155 0.44646 0.82531 0.0
C1893 C 0.20681 0.44836 0.78454 0.0
C1894 C 0.22987 0.42431 0.82262 0.0
N1895 N 0.20437 0.45799 0.80635 0.0
C1896 C 0.22095 0.42633 0.78106 0.0
C1897 C 0.23265 0.41394 0.80024 0.0
H1898 H 0.21285 0.45414 0.84254 0.0
H1899 H 0.19712 0.45737 0.76987 0.0
C1900 C 0.13448 0.53565 0.74781 0.0
N1901 N 0.1289 0.51419 0.76007 0.0
C1902 C 0.12321 0.54032 0.72594 0.0
C1903 C 0.09977 0.50115 0.72998 0.0
C1904 C 0.11182 0.49703 0.75168 0.0
C1905 C 0.10558 0.52294 0.7167 0.0
H1906 H 0.14825 0.54886 0.75484 0.0
H1907 H 0.10777 0.47995 0.76148 0.0
O1908 O 0.18765 0.51127 0.83638 0.0
O1909 O 0.14676 0.53982 0.80987 0.0
O1910 O 0.18421 0.51155 0.78234 0.0
O1911 O 0.14726 0.48039 0.80987 0.0
H1912 H 0.18255 0.51353 0.88191 0.0
H1913 H 0.2354 0.50493 0.82809 0.0
H1914 H 0.21709 0.50947 0.91159 0.0
H1915 H 0.26896 0.50112 0.85863 0.0
H1916 H 0.06571 0.5636 0.80269 0.0
H1917 H 0.153 0.58965 0.81641 0.0
H1918 H 0.09883 0.53031 0.80296 0.0
H1919 H 0.11896 0.6219 0.81588 0.0
H1920 H 0.23371 0.6146 0.82858 0.0
H1921 H 0.20617 0.60374 0.7576 0.0
H1922 H 0.09966 0.46573 0.88939 0.0
H1923 H 0.10276 0.5485 0.8961 0.0
H1924 H 0.17835 0.50035 0.73756 0.0
H1925 H 0.23161 0.52223 0.79161 0.0
H1926 H 0.21214 0.50025 0.70933 0.0
H1927 H 0.2645 0.52141 0.76259 0.0
H1928 H 0.15371 0.43677 0.78724 0.0
H1929 H 0.09956 0.48559 0.81837 0.0
H1930 H 0.12014 0.40592 0.7765 0.0
H1931 H 0.06696 0.45386 0.80716 0.0
H1932 H 0.23839 0.41514 0.83789 0.0
H1933 H 0.22187 0.4185 0.76363 0.0
H1934 H 0.12887 0.55695 0.71611 0.0
H1935 H 0.08624 0.48726 0.72355 0.0
Li1936 Li 0.23003 0.43807 0.51674 0.0
Li1937 Li 0.23844 0.40436 0.5441 0.0
Li1938 Li 0.27134 0.42554 0.52174 0.0
Li1939 Li 0.23859 0.39779 0.50222 0.0
C1940 C 0.24419 0.45518 0.56355 0.0
N1941 N 0.2336 0.48415 0.6023 0.0
C1942 C 0.2232 0.44969 0.5762 0.0
C1943 C 0.25967 0.47554 0.57051 0.0
C1944 C 0.21823 0.4645 0.59581 0.0
C1945 C 0.25398 0.48997 0.59011 0.0
C1946 C 0.19502 0.38555 0.52545 0.0
C1947 C 0.1908 0.33994 0.53197 0.0
N1948 N 0.16586 0.34303 0.53347 0.0
C1949 C 0.16936 0.38826 0.52711 0.0
C1950 C 0.20585 0.36121 0.52801 0.0
C1951 C 0.15494 0.36654 0.53117 0.0
C1952 C 0.19339 0.46449 0.49404 0.0
N1953 N 0.21257 0.46771 0.50962 0.0
C1954 C 0.20415 0.51244 0.51298 0.0
C1955 C 0.21908 0.49119 0.51818 0.0
C1956 C 0.18259 0.50906 0.4989 0.0
C1957 C 0.17819 0.48512 0.48813 0.0
H1958 H 0.18939 0.44558 0.48702 0.0
H1959 H 0.23531 0.49327 0.52958 0.0
C1960 C 0.26232 0.38608 0.57991 0.0
N1961 N 0.23818 0.38738 0.57257 0.0
C1962 C 0.26963 0.3701 0.59806 0.0
C1963 C 0.22667 0.35777 0.60194 0.0
C1964 C 0.22011 0.37416 0.58333 0.0
C1965 C 0.25183 0.3553 0.60876 0.0
H1966 H 0.27614 0.39623 0.57056 0.0
H1967 H 0.20105 0.37535 0.57686 0.0
C1968 C 0.25098 0.44996 0.47637 0.0
N1969 N 0.24601 0.49017 0.44504 0.0
C1970 C 0.23819 0.44638 0.455 0.0
C1971 C 0.26138 0.47392 0.48177 0.0
C1972 C 0.2359 0.46696 0.43937 0.0
C1973 C 0.25856 0.49405 0.46574 0.0
C1974 C 0.28157 0.36956 0.52279 0.0
C1975 C 0.30227 0.37417 0.50947 0.0
C1976 C 0.27876 0.34558 0.53342 0.0
C1977 C 0.31958 0.35452 0.50659 0.0
C1978 C 0.29649 0.32643 0.53012 0.0
N1979 N 0.31635 0.33125 0.51688 0.0
C1980 C 0.30844 0.4397 0.55016 0.0
C1981 C 0.3165 0.44991 0.51075 0.0
C1982 C 0.32865 0.45383 0.55813 0.0
N1983 N 0.30269 0.43823 0.52697 0.0
C1984 C 0.33724 0.46413 0.518 0.0
C1985 C 0.34295 0.46633 0.54196 0.0
H1986 H 0.29655 0.43108 0.56258 0.0
H1987 H 0.31095 0.44885 0.49246 0.0
C1988 C 0.2093 0.36472 0.47297 0.0
N1989 N 0.23261 0.37317 0.4786 0.0
C1990 C 0.20574 0.34434 0.45751 0.0
C1991 C 0.24994 0.34384 0.45187 0.0
C1992 C 0.25268 0.36374 0.46789 0.0
C1993 C 0.22631 0.33332 0.44708 0.0
H1994 H 0.19341 0.37352 0.48061 0.0
H1995 H 0.27079 0.3718 0.47169 0.0
O1996 O 0.2505 0.43981 0.54534 0.0
O1997 O 0.20927 0.40687 0.52191 0.0
O1998 O 0.25372 0.42993 0.49171 0.0
O1999 O 0.26476 0.38879 0.52626 0.0
H2000 H 0.21107 0.43395 0.57113 0.0
H2001 H 0.27592 0.48018 0.56085 0.0
H2002 H 0.20221 0.46031 0.60593 0.0
H2003 H 0.26584 0.50574 0.59568 0.0
H2004 H 0.19895 0.32099 0.53387 0.0
H2005 H 0.1607 0.407 0.52534 0.0
H2006 H 0.22561 0.35871 0.52677 0.0
H2007 H 0.13506 0.36838 0.53251 0.0
H2008 H 0.20804 0.53061 0.52155 0.0
H2009 H 0.16162 0.48148 0.47741 0.0
H2010 H 0.28914 0.36865 0.60322 0.0
H2011 H 0.21262 0.3465 0.61024 0.0
H2012 H 0.23018 0.42788 0.45053 0.0
H2013 H 0.27116 0.47706 0.49834 0.0
H2014 H 0.22608 0.46448 0.42274 0.0
H2015 H 0.26632 0.51276 0.46978 0.0
H2016 H 0.30483 0.39267 0.50126 0.0
H2017 H 0.26316 0.3418 0.54422 0.0
H2018 H 0.33561 0.35778 0.4962 0.0
H2019 H 0.29451 0.30776 0.53819 0.0
H2020 H 0.33313 0.45494 0.57669 0.0
H2021 H 0.3486 0.47333 0.50525 0.0
H2022 H 0.18713 0.3373 0.45377 0.0
H2023 H 0.26612 0.33709 0.44309 0.0
Li2024 Li 0.4154 0.51076 0.31887 0.0
Li2025 Li 0.38165 0.48477 0.2999 0.0
Li2026 Li 0.41418 0.50522 0.27666 0.0
Li2027 Li 0.38136 0.53149 0.29505 0.0
C2028 C 0.43443 0.4591 0.29812 0.0
N2029 N 0.46806 0.41969 0.29197 0.0
C2030 C 0.42671 0.43346 0.29885 0.0
C2031 C 0.4593 0.46465 0.29433 0.0
C2032 C 0.44398 0.41382 0.29574 0.0
C2033 C 0.476 0.44447 0.29119 0.0
C2034 C 0.36272 0.50534 0.34065 0.0
C2035 C 0.32064 0.50162 0.35295 0.0
N2036 N 0.32926 0.49266 0.37403 0.0
C2037 C 0.3712 0.49623 0.36246 0.0
C2038 C 0.33728 0.5082 0.33585 0.0
C2039 C 0.35396 0.48986 0.37909 0.0
C2040 C 0.43427 0.53599 0.35885 0.0
N2041 N 0.43553 0.51396 0.34625 0.0
C2042 C 0.46178 0.49435 0.37562 0.0
C2043 C 0.44908 0.4934 0.35402 0.0
C2044 C 0.46018 0.51654 0.38937 0.0
C2045 C 0.44659 0.53773 0.38063 0.0
H2046 H 0.4231 0.55191 0.35226 0.0
H2047 H 0.44935 0.47597 0.34383 0.0
C2048 C 0.35852 0.44325 0.27952 0.0
N2049 N 0.36326 0.4541 0.30074 0.0
C2050 C 0.34897 0.41845 0.27789 0.0
C2051 C 0.34859 0.41671 0.32002 0.0
C2052 C 0.35839 0.44155 0.32085 0.0
C2053 C 0.3444 0.40476 0.29833 0.0
H2054 H 0.36319 0.45345 0.26386 0.0
H2055 H 0.36312 0.45024 0.3375 0.0
C2056 C 0.43581 0.55542 0.29862 0.0
N2057 N 0.47269 0.59148 0.3066 0.0
C2058 C 0.42972 0.58144 0.3006 0.0
C2059 C 0.46063 0.54773 0.30071 0.0
C2060 C 0.44865 0.59939 0.30457 0.0
C2061 C 0.47901 0.56624 0.30483 0.0
C2062 C 0.3588 0.50953 0.2549 0.0
C2063 C 0.36393 0.51702 0.23218 0.0
C2064 C 0.33421 0.50706 0.26136 0.0
C2065 C 0.34426 0.52216 0.2163 0.0
C2066 C 0.31506 0.51242 0.24497 0.0
N2067 N 0.32044 0.5198 0.22298 0.0
C2068 C 0.43316 0.47679 0.24035 0.0
C2069 C 0.44383 0.52106 0.23996 0.0
C2070 C 0.44557 0.47262 0.21983 0.0
N2071 N 0.43265 0.50065 0.24995 0.0
C2072 C 0.45615 0.51783 0.21922 0.0
C2073 C 0.45705 0.49336 0.20901 0.0
H2074 H 0.42355 0.4611 0.24845 0.0
H2075 H 0.44272 0.53988 0.24786 0.0
C2076 C 0.3541 0.57144 0.31359 0.0
N2077 N 0.36146 0.56144 0.29309 0.0
C2078 C 0.34108 0.59461 0.31386 0.0
C2079 C 0.34317 0.59662 0.27186 0.0
C2080 C 0.35624 0.57341 0.27241 0.0
C2081 C 0.33584 0.60767 0.29283 0.0
H2082 H 0.35888 0.56171 0.32981 0.0
H2083 H 0.36283 0.56536 0.25643 0.0
O2084 O 0.41775 0.47853 0.30147 0.0
O2085 O 0.37933 0.51207 0.32432 0.0
O2086 O 0.41756 0.53774 0.29402 0.0
O2087 O 0.37784 0.50419 0.27058 0.0
H2088 H 0.40763 0.4287 0.30199 0.0
H2089 H 0.46564 0.48429 0.29368 0.0
H2090 H 0.43826 0.39391 0.29636 0.0
H2091 H 0.49528 0.44851 0.28816 0.0
H2092 H 0.30089 0.50371 0.34949 0.0
H2093 H 0.39086 0.49405 0.36647 0.0
H2094 H 0.33047 0.51556 0.31916 0.0
H2095 H 0.36023 0.48272 0.39603 0.0
H2096 H 0.47199 0.4776 0.3819 0.0
H2097 H 0.44522 0.55526 0.39069 0.0
H2098 H 0.34562 0.40989 0.26086 0.0
H2099 H 0.34527 0.40658 0.33611 0.0
H2100 H 0.41059 0.58773 0.29884 0.0
H2101 H 0.46565 0.52773 0.29918 0.0
H2102 H 0.44423 0.61962 0.30599 0.0
H2103 H 0.49829 0.56054 0.30652 0.0
H2104 H 0.38291 0.51885 0.2269 0.0
H2105 H 0.32997 0.50099 0.2788 0.0
H2106 H 0.34793 0.52801 0.19866 0.0
H2107 H 0.29591 0.51066 0.24973 0.0
H2108 H 0.44555 0.45363 0.21211 0.0
H2109 H 0.46472 0.53424 0.21113 0.0
H2110 H 0.33552 0.60245 0.33035 0.0
H2111 H 0.33963 0.60631 0.25533 0.0
C2112 C 0.00588 0.02772 0.98368 0.0
N2113 N 0.98146 0.02824 0.05235 0.0
C2114 C 0.96431 0.04514 0.04338 0.0
C2115 C 0.93987 0.04383 0.05039 0.0
C2116 C 0.93369 0.02532 0.06692 0.0
C2117 C 0.95256 0.01171 0.07889 0.0
C2118 C 0.97644 0.01294 0.07085 0.0
Zn2119 Zn 0.0122 0.01993 0.03445 0.0
C2120 C 0.01305 0.96656 0.02039 0.0
N2121 N 0.07734 0.0017 -0.00037 0.0
C2122 C 0.08488 0.01888 0.98351 0.0
C2123 C 0.09272 0.98295 0.00827 0.0
C2124 C 0.11801 0.9844 0.00451 0.0
C2125 C 0.12675 0.00522 0.99176 0.0
C2126 C 0.10989 0.02061 0.97884 0.0
Zn2127 Zn 0.0468 0.01048 0.01708 0.0
O2128 O 0.99407 0.03056 0.00224 0.0
C2129 C 0.04709 0.06324 0.03483 0.0
O2130 O 0.02825 0.02016 0.98524 0.0
H2131 H 0.08608 0.96915 0.02068 0.0
H2132 H 0.9688 0.05754 0.02902 0.0
H2133 H 0.0723 0.03359 0.97684 0.0
O2134 O 0.02532 0.05674 0.03998 0.0
O2135 O 0.05994 0.04838 0.02255 0.0
H2136 H 0.98995 -0.0007 0.07766 0.0
O2137 O 0.06552 0.00076 0.04864 0.0
O2138 O 0.03086 0.0085 0.06588 0.0
O2139 O 0.03419 0.97302 0.01342 0.0
O2140 O -0.00091 0.98295 0.02953 0.0
C2141 C 0.05342 0.00161 0.06707 0.0
H2142 H 0.92554 0.05442 0.0407 0.0
H2143 H 0.94818 0.99701 0.09149 0.0
H2144 H 0.13071 0.97217 0.01458 0.0
H2145 H 0.11628 0.03683 0.96883 0.0
C2146 C 0.32886 0.76608 0.2573 0.0
N2147 N 0.26079 0.74374 0.22609 0.0
C2148 C 0.2667 0.7595 0.20818 0.0
C2149 C 0.2649 0.75079 0.18523 0.0
C2150 C 0.25754 0.72539 0.18058 0.0
C2151 C 0.25036 0.70993 0.19928 0.0
C2152 C 0.25186 0.71965 0.22199 0.0
Zn2153 Zn 0.27237 0.75462 0.25901 0.0
C2154 C 0.29361 0.71025 0.28608 0.0
N2155 N 0.30121 0.77734 0.326 0.0
C2156 C 0.312 0.80065 0.32993 0.0
C2157 C 0.29336 0.7627 0.34396 0.0
C2158 C 0.29487 0.77196 0.36676 0.0
C2159 C 0.30448 0.79657 0.37115 0.0
C2160 C 0.31373 0.81074 0.35253 0.0
Zn2161 Zn 0.28967 0.76645 0.29308 0.0
O2162 O 0.30927 0.75939 0.24577 0.0
C2163 C 0.26859 0.81068 0.26649 0.0
O2164 O 0.32687 0.77152 0.27889 0.0
H2165 H 0.28434 0.74449 0.34046 0.0
H2166 H 0.27432 0.77835 0.21169 0.0
H2167 H 0.31789 0.8121 0.31541 0.0
O2168 O 0.26326 0.79354 0.25143 0.0
O2169 O 0.28009 0.8046 0.28537 0.0
H2170 H 0.24743 0.70732 0.23643 0.0
O2171 O 0.25226 0.76152 0.30633 0.0
O2172 O 0.23543 0.74983 0.27272 0.0
O2173 O 0.29907 0.72792 0.30061 0.0
O2174 O 0.28167 0.71596 0.26728 0.0
C2175 C 0.23293 0.755 0.29426 0.0
H2176 H 0.2704 0.76346 0.17134 0.0
H2177 H 0.24511 0.69004 0.19667 0.0
H2178 H 0.28712 0.76065 0.38057 0.0
H2179 H 0.32131 0.82981 0.3553 0.0
C2180 C 0.51775 0.02116 0.57069 0.0
N2181 N 0.55402 0.96017 0.54048 0.0
C2182 C 0.57067 0.96043 0.55885 0.0
C2183 C 0.58037 0.93755 0.56768 0.0
C2184 C 0.57252 0.91425 0.55774 0.0
C2185 C 0.55647 0.91448 0.53793 0.0
C2186 C 0.54739 0.93796 0.52944 0.0
Zn2187 Zn 0.53853 0.99391 0.53104 0.0
C2188 C 0.48387 0.98968 0.52101 0.0
N2189 N 0.50706 0.06443 0.51043 0.0
C2190 C 0.51413 0.08517 0.52344 0.0
C2191 C 0.49153 0.06669 0.49132 0.0
C2192 C 0.48387 0.09094 0.48363 0.0
C2193 C 0.49248 0.11264 0.49582 0.0
C2194 C 0.50706 0.10972 0.51631 0.0
Zn2195 Zn 0.52202 0.03029 0.51911 0.0
O2196 O 0.53044 0.00126 0.56638 0.0
C2197 C 0.57688 0.03463 0.52929 0.0
O2198 O 0.51305 0.03712 0.55435 0.0
H2199 H 0.48618 0.04982 0.48136 0.0
H2200 H 0.57564 0.97833 0.56734 0.0
H2201 H 0.5264 0.08277 0.53864 0.0
O2202 O 0.57386 0.01123 0.53461 0.0
O2203 O 0.55798 0.048 0.52314 0.0
H2204 H 0.53423 0.9384 0.51475 0.0
O2205 O 0.53066 0.02325 0.48396 0.0
O2206 O 0.54664 0.98649 0.49569 0.0
O2207 O 0.48666 0.01284 0.51467 0.0
O2208 O 0.50273 0.97663 0.52788 0.0
C2209 C 0.54246 0.00279 0.47947 0.0
H2210 H 0.5927 0.93794 0.58303 0.0
H2211 H 0.54975 0.89676 0.5301 0.0
H2212 H 0.47302 0.09285 0.46744 0.0
H2213 H 0.51429 0.1263 0.52573 0.0
C2214 C 0.28954 0.20871 0.76563 0.0
N2215 N 0.2615 0.24651 0.82261 0.0
C2216 C 0.24928 0.22417 0.8264 0.0
C2217 C 0.2493 0.21391 0.84878 0.0
C2218 C 0.26195 0.22705 0.86689 0.0
C2219 C 0.2712 0.2517 0.86308 0.0
C2220 C 0.27095 0.26111 0.84046 0.0
Zn2221 Zn 0.27281 0.2547 0.79076 0.0
C2222 C 0.32968 0.26363 0.7934 0.0
N2223 N 0.29953 0.27408 0.72578 0.0
C2224 C 0.28954 0.25988 0.70791 0.0
C2225 C 0.31161 0.29651 0.72203 0.0
C2226 C 0.3106 0.30741 0.69988 0.0
C2227 C 0.2972 0.29478 0.6819 0.0
C2228 C 0.28835 0.26991 0.68549 0.0
Zn2229 Zn 0.28835 0.26574 0.75774 0.0
O2230 O 0.27986 0.21518 0.78456 0.0
C2231 C 0.23157 0.25719 0.75491 0.0
O2232 O 0.29439 0.22612 0.75099 0.0
H2233 H 0.31953 0.30728 0.7366 0.0
H2234 H 0.24184 0.21308 0.81183 0.0
H2235 H 0.27985 0.2422 0.71138 0.0
O2236 O 0.2352 0.25092 0.77623 0.0
O2237 O 0.25027 0.26378 0.74341 0.0
H2238 H 0.28072 0.27873 0.83694 0.0
O2239 O 0.28243 0.30571 0.76474 0.0
O2240 O 0.2657 0.29383 0.79706 0.0
O2241 O 0.32582 0.26815 0.77177 0.0
O2242 O 0.311 0.25822 0.80546 0.0
C2243 C 0.27169 0.31164 0.7833 0.0
H2244 H 0.242 0.19478 0.85144 0.0
H2245 H 0.28119 0.2621 0.87681 0.0
H2246 H 0.31763 0.3267 0.69745 0.0
H2247 H 0.27771 0.25987 0.67195 0.0
C2248 C 0.08071 0.00138 0.53562 0.0
N2249 N 0.04252 0.03283 0.4768 0.0
C2250 C 0.06431 0.04525 0.47359 0.0
C2251 C 0.0733 0.04779 0.45121 0.0
C2252 C 0.05953 0.03772 0.43213 0.0
C2253 C 0.03619 0.02699 0.43569 0.0
C2254 C 0.02805 0.02454 0.45835 0.0
Zn2255 Zn 0.0343 0.02024 0.50924 0.0
C2256 C 0.0259 0.96209 0.50693 0.0
N2257 N 0.01881 0.99027 0.57608 0.0
C2258 C 0.03286 -1e-05 0.59419 0.0
C2259 C 0.99815 0.97607 0.5798 0.0
C2260 C 0.99004 0.97265 0.60246 0.0
C2261 C 0.00326 0.98417 0.6212 0.0
C2262 C 0.0253 0.99727 0.61699 0.0
Zn2263 Zn 0.02667 0.00287 0.54353 0.0
O2264 O 0.07324 0.01255 0.51687 0.0
C2265 C 0.03464 0.06128 0.54561 0.0
O2266 O 0.06481 0.99526 0.5504 0.0
H2267 H 0.98718 0.96873 0.56512 0.0
H2268 H 0.0755 0.05166 0.48849 0.0
H2269 H 0.04915 0.0113 0.59087 0.0
O2270 O 0.03748 0.05873 0.52377 0.0
O2271 O 0.03071 0.04126 0.55768 0.0
H2272 H 0.01098 0.01437 0.46129 0.0
O2273 O 0.98806 0.01095 0.53635 0.0
O2274 O 0.99587 0.02721 0.5021 0.0
O2275 O 0.023 0.9644 0.52879 0.0
O2276 O 0.03047 0.9821 0.49507 0.0
C2277 C 0.98035 0.02139 0.51735 0.0
H2278 H 0.09137 0.05628 0.44894 0.0
H2279 H 0.02523 0.01888 0.4213 0.0
H2280 H 0.9728 0.96262 0.60516 0.0
H2281 H 0.0359 0.00638 0.6311 0.0
C2282 C 0.27713 0.77537 0.72854 0.0
N2283 N 0.32964 0.7368 0.76983 0.0
C2284 C 0.33585 0.7243 0.75016 0.0
C2285 C 0.3604 0.71768 0.747 0.0
C2286 C 0.37838 0.72352 0.76454 0.0
C2287 C 0.37095 0.73383 0.78568 0.0
C2288 C 0.34637 0.74099 0.78775 0.0
Zn2289 Zn 0.29598 0.75206 0.77162 0.0
C2290 C 0.2994 0.80827 0.78215 0.0
N2291 N 0.22662 0.7859 0.78002 0.0
C2292 C 0.21099 0.78535 0.76084 0.0
C2293 C 0.22068 0.79874 0.79962 0.0
C2294 C 0.19763 0.81046 0.80088 0.0
C2295 C 0.18092 0.80986 0.78145 0.0
C2296 C 0.18833 0.79806 0.76091 0.0
Zn2297 Zn 0.26027 0.76957 0.77847 0.0
O2298 O 0.29569 0.76199 0.73536 0.0
C2299 C 0.25667 0.71351 0.76776 0.0
O2300 O 0.26004 0.77938 0.74261 0.0
H2301 H 0.23365 0.79955 0.81442 0.0
H2302 H 0.32205 0.72083 0.73638 0.0
H2303 H 0.21591 0.77496 0.7454 0.0
O2304 O 0.27976 0.71592 0.76482 0.0
O2305 O 0.24382 0.73326 0.77227 0.0
H2306 H 0.34098 0.75106 0.80323 0.0
O2307 O 0.26103 0.76015 0.81471 0.0
O2308 O 0.2965 0.74208 0.80759 0.0
O2309 O 0.27635 0.80549 0.78483 0.0
O2310 O 0.31246 0.78853 0.77814 0.0
C2311 C 0.27971 0.74703 0.8218 0.0
H2312 H 0.36543 0.70971 0.73039 0.0
H2313 H 0.38421 0.73778 0.79986 0.0
H2314 H 0.1927 0.81906 0.81725 0.0
H2315 H 0.17652 0.79793 0.74523 0.0
C2316 C 0.54103 0.96201 0.04066 0.0
N2317 N 0.54595 0.03237 0.07559 0.0
C2318 C 0.53521 0.01823 0.09248 0.0
C2319 C 0.54423 0.01932 0.11552 0.0
C2320 C 0.56444 0.03513 0.1213 0.0
C2321 C 0.57435 0.05075 0.10403 0.0
C2322 C 0.56471 0.04908 0.08105 0.0
Zn2323 Zn 0.53738 0.02156 0.04173 0.0
C2324 C 0.5815 0.01955 0.01327 0.0
N2325 N 0.52104 0.99254 0.97313 0.0
C2326 C 0.50172 0.97633 0.96829 0.0
C2327 C 0.53202 0.00574 0.95578 0.0
C2328 C 0.52288 0.00395 0.93279 0.0
C2329 C 0.50191 0.98891 0.92767 0.0
C2330 C 0.49164 0.97441 0.94552 0.0
Zn2331 Zn 0.52987 0.00362 0.00684 0.0
O2332 O 0.54359 0.9824 0.05273 0.0
C2333 C 0.48564 0.00601 0.03485 0.0
O2334 O 0.53573 0.96427 0.01887 0.0
H2335 H 0.54683 0.0191 0.95991 0.0
H2336 H 0.52073 0.00462 0.0879 0.0
H2337 H 0.49313 0.96607 0.98225 0.0
O2338 O 0.50016 0.01719 0.04945 0.0
O2339 O 0.49334 -0.00036 0.01512 0.0
H2340 H 0.57323 0.05992 0.06739 0.0
O2341 O 0.52386 0.04302 0.99573 0.0
O2342 O 0.53119 0.0606 0.02998 0.0
O2343 O 0.56687 0.00794 -0.00094 0.0
O2344 O 0.57422 0.02589 0.03322 0.0
C2345 C 0.52618 0.06321 0.00818 0.0
H2346 H 0.53641 0.00683 0.12846 0.0
H2347 H 0.59018 0.06297 0.10802 0.0
H2348 H 0.53108 0.01556 0.91942 0.0
H2349 H 0.47542 0.96257 0.94205 0.0
C2350 C 0.25515 0.21218 0.26816 0.0
N2351 N 0.308 0.25025 0.23254 0.0
C2352 C 0.31471 0.22558 0.22816 0.0
C2353 C 0.32843 0.21983 0.20892 0.0
C2354 C 0.33538 0.23962 0.1939 0.0
C2355 C 0.32877 0.26505 0.19901 0.0
C2356 C 0.31505 0.27001 0.21871 0.0
Zn2357 Zn 0.28766 0.25583 0.26095 0.0
C2358 C 0.24338 0.28377 0.25286 0.0
N2359 N 0.25018 0.26337 0.3225 0.0
C2360 C 0.24914 0.24426 0.33864 0.0
C2361 C 0.23962 0.2867 0.32596 0.0
C2362 C 0.22926 0.29232 0.3471 0.0
C2363 C 0.2295 0.27366 0.36482 0.0
C2364 C 0.23852 0.24894 0.36004 0.0
Zn2365 Zn 0.26973 0.25932 0.29355 0.0
O2366 O 0.26555 0.22384 0.25176 0.0
C2367 C 0.31652 0.23532 0.30046 0.0
O2368 O 0.25515 0.22222 0.28831 0.0
H2369 H 0.24044 0.30151 0.31277 0.0
H2370 H 0.30897 0.21014 0.23935 0.0
H2371 H 0.25751 0.22576 0.33533 0.0
O2372 O 0.3115 0.23174 0.27908 0.0
O2373 O 0.29984 0.24472 0.31292 0.0
H2374 H 0.3096 0.2895 0.22268 0.0
O2375 O 0.28498 0.29606 0.29872 0.0
O2376 O 0.30986 0.28816 0.27036 0.0
O2377 O 0.24062 0.27538 0.27342 0.0
O2378 O 0.26348 0.27961 0.2428 0.0
C2379 C 0.30323 0.30267 0.2868 0.0
H2380 H 0.33235 0.19985 0.20518 0.0
H2381 H 0.3335 0.28071 0.18755 0.0
H2382 H 0.22274 0.31172 0.35004 0.0
H2383 H 0.23848 0.23384 0.37305 0.0
C2384 C 0.58082 0.50137 0.03551 0.0
N2385 N 0.54328 0.53321 0.977 0.0
C2386 C 0.56547 0.54468 0.97349 0.0
C2387 C 0.57455 0.54607 0.95103 0.0
C2388 C 0.56058 0.5355 0.93228 0.0
C2389 C 0.53678 0.52605 0.93614 0.0
C2390 C 0.52848 0.52496 0.9588 0.0
Zn2391 Zn 0.53486 0.52049 0.00928 0.0
C2392 C 0.52686 0.46221 0.00625 0.0
N2393 N 0.51806 0.48931 0.07501 0.0
C2394 C 0.53213 0.49736 0.09379 0.0
C2395 C 0.49651 0.47623 0.07763 0.0
C2396 C 0.48737 0.47263 0.09982 0.0
C2397 C 0.50091 0.48205 0.11929 0.0
C2398 C 0.52392 0.4937 0.11629 0.0
Zn2399 Zn 0.52676 0.5026 0.04301 0.0
O2400 O 0.57312 0.51095 0.01618 0.0
C2401 C 0.53458 0.56094 0.04613 0.0
O2402 O 0.56538 0.49666 0.05112 0.0
H2403 H 0.48564 0.47002 0.06246 0.0
H2404 H 0.57695 0.55099 0.98824 0.0
H2405 H 0.54895 0.50813 0.09132 0.0
O2406 O 0.53988 0.55847 0.02475 0.0
O2407 O 0.52851 0.54092 0.05735 0.0
H2408 H 0.511 0.51569 0.96197 0.0
O2409 O 0.48802 0.50892 0.03452 0.0
O2410 O 0.4967 0.52954 0.00263 0.0
O2411 O 0.5251 0.46426 0.02826 0.0
O2412 O 0.52967 0.48257 0.99433 0.0
C2413 C 0.48066 0.52165 0.01661 0.0
H2414 H 0.59297 0.55363 0.94861 0.0
H2415 H 0.52531 0.51823 0.92196 0.0
H2416 H 0.46941 0.46373 0.10171 0.0
H2417 H 0.53455 0.50149 0.13104 0.0
C2418 C 0.77403 0.27628 0.22984 0.0
N2419 N 0.82823 0.23161 0.2636 0.0
C2420 C 0.82892 0.21666 0.24422 0.0
C2421 C 0.85125 0.20584 0.23783 0.0
C2422 C 0.87271 0.21051 0.25166 0.0
C2423 C 0.87115 0.22439 0.27242 0.0
C2424 C 0.84851 0.235 0.27805 0.0
Zn2425 Zn 0.79725 0.25076 0.27053 0.0
C2426 C 0.80764 0.30617 0.28013 0.0
N2427 N 0.73403 0.29137 0.28846 0.0
C2428 C 0.71289 0.28726 0.27538 0.0
C2429 C 0.73487 0.30812 0.30663 0.0
C2430 C 0.71338 0.32043 0.31319 0.0
C2431 C 0.691 0.31501 0.30108 0.0
C2432 C 0.69091 0.29902 0.28145 0.0
Zn2433 Zn 0.76467 0.27189 0.28129 0.0
O2434 O 0.79213 0.2614 0.2349 0.0
C2435 C 0.75434 0.21652 0.27166 0.0
O2436 O 0.75906 0.282 0.2456 0.0
H2437 H 0.75202 0.31116 0.3166 0.0
H2438 H 0.81241 0.21415 0.23318 0.0
H2439 H 0.7129 0.27403 0.26085 0.0
O2440 O 0.77674 0.21679 0.26575 0.0
O2441 O 0.74408 0.23737 0.27767 0.0
H2442 H 0.84739 0.24699 0.29336 0.0
O2443 O 0.7701 0.26204 0.31709 0.0
O2444 O 0.80211 0.23986 0.30617 0.0
O2445 O 0.78501 0.30588 0.2852 0.0
O2446 O 0.81817 0.28521 0.27491 0.0
C2447 C 0.78751 0.24628 0.32201 0.0
H2448 H 0.85211 0.1953 0.2216 0.0
H2449 H 0.88758 0.22859 0.28319 0.0
H2450 H 0.7139 0.33278 0.32839 0.0
H2451 H 0.67379 0.29431 0.27191 0.0
C2452 C 0.04199 0.46042 0.54139 0.0
N2453 N 0.04603 0.53121 0.5762 0.0
C2454 C 0.03483 0.51682 0.59263 0.0
C2455 C 0.04291 0.51799 0.61593 0.0
C2456 C 0.06255 0.53429 0.62256 0.0
C2457 C 0.07274 0.55027 0.60566 0.0
C2458 C 0.0642 0.54832 0.58235 0.0
Zn2459 Zn 0.03889 0.52032 0.54217 0.0
C2460 C 0.08468 0.51753 0.51591 0.0
N2461 N 0.02541 0.4906 0.47306 0.0
C2462 C 0.00539 0.47533 0.46808 0.0
C2463 C 0.03685 0.50341 0.45577 0.0
C2464 C 0.0273 0.50255 0.43281 0.0
C2465 C 0.00564 0.48852 0.42756 0.0
C2466 C 0.99501 0.47423 0.44537 0.0
Zn2467 Zn 0.03368 0.50172 0.50709 0.0
O2468 O 0.04376 0.48086 0.55354 0.0
C2469 C 0.98787 0.50641 0.53268 0.0
O2470 O 0.03818 0.46252 0.51938 0.0
H2471 H 0.05238 0.5158 0.45997 0.0
H2472 H 0.02066 0.50308 0.58749 0.0
H2473 H 0.99643 0.46527 0.48195 0.0
O2474 O 0.0014 0.51753 0.54808 0.0
O2475 O 0.99683 0.49877 0.5139 0.0
H2476 H 0.07311 0.55933 0.56903 0.0
O2477 O 0.02917 0.54103 0.49568 0.0
O2478 O 0.03397 0.55952 0.5299 0.0
O2479 O 0.07117 0.50567 0.50085 0.0
O2480 O 0.07612 0.52375 0.53539 0.0
C2481 C 0.03079 0.56149 0.50781 0.0
H2482 H 0.0346 0.50544 0.62853 0.0
H2483 H 0.0881 0.56293 0.61019 0.0
H2484 H 0.03587 0.51408 0.4196 0.0
H2485 H 0.97832 0.46309 0.44191 0.0
C2486 C 0.79241 0.71188 0.26266 0.0
N2487 N 0.7612 0.74314 0.32161 0.0
C2488 C 0.7512 0.71928 0.32357 0.0
C2489 C 0.7519 0.70703 0.34517 0.0
C2490 C 0.76234 0.7201 0.36441 0.0
C2491 C 0.76858 0.74603 0.36256 0.0
C2492 C 0.76838 0.75717 0.34066 0.0
Zn2493 Zn 0.773 0.75531 0.29084 0.0
C2494 C 0.82932 0.76594 0.29488 0.0
N2495 N 0.79968 0.78097 0.22726 0.0
C2496 C 0.79248 0.76665 0.20841 0.0
C2497 C 0.80605 0.80612 0.22514 0.0
C2498 C 0.80035 0.81907 0.20438 0.0
C2499 C 0.7891 0.80543 0.18576 0.0
C2500 C 0.78748 0.77859 0.18714 0.0
Zn2501 Zn 0.78848 0.76847 0.25832 0.0
O2502 O 0.78037 0.71641 0.28079 0.0
C2503 C 0.73219 0.75761 0.2544 0.0
O2504 O 0.79871 0.73046 0.24989 0.0
H2505 H 0.81228 0.81695 0.24032 0.0
H2506 H 0.74528 0.7087 0.30814 0.0
H2507 H 0.78735 0.74673 0.21044 0.0
O2508 O 0.73591 0.75297 0.27602 0.0
O2509 O 0.75089 0.76333 0.24247 0.0
H2510 H 0.77671 0.77587 0.33877 0.0
O2511 O 0.77844 0.80696 0.2672 0.0
O2512 O 0.76561 0.79372 0.30071 0.0
O2513 O 0.82524 0.77337 0.27391 0.0
O2514 O 0.81096 0.75766 0.30607 0.0
C2515 C 0.76941 0.81202 0.28675 0.0
H2516 H 0.74715 0.68685 0.34629 0.0
H2517 H 0.77697 0.75632 0.37726 0.0
H2518 H 0.802 0.83981 0.20398 0.0
H2519 H 0.77947 0.76742 0.17282 0.0
C2520 C 0.8287 0.26669 0.75834 0.0
N2521 N 0.76062 0.24768 0.72469 0.0
C2522 C 0.76881 0.26248 0.70697 0.0
C2523 C 0.76705 0.25367 0.68401 0.0
C2524 C 0.75707 0.22929 0.67931 0.0
C2525 C 0.74751 0.215 0.69767 0.0
C2526 C 0.74928 0.22472 0.72037 0.0
Zn2527 Zn 0.77202 0.25723 0.75804 0.0
C2528 C 0.79091 0.21041 0.78359 0.0
N2529 N 0.79982 0.27497 0.82683 0.0
C2530 C 0.81194 0.29743 0.83149 0.0
C2531 C 0.79054 0.26055 0.84429 0.0
C2532 C 0.79154 0.26952 0.8672 0.0
C2533 C 0.80246 0.2934 0.87228 0.0
C2534 C 0.81356 0.30702 0.85429 0.0
Zn2535 Zn 0.78857 0.26565 0.79332 0.0
O2536 O 0.80957 0.26072 0.7458 0.0
C2537 C 0.76973 0.3123 0.76771 0.0
O2538 O 0.82586 0.27121 0.77998 0.0
H2539 H 0.78083 0.24286 0.84024 0.0
H2540 H 0.77824 0.2804 0.71077 0.0
H2541 H 0.81891 0.30875 0.81733 0.0
O2542 O 0.76507 0.29643 0.75137 0.0
O2543 O 0.77932 0.30455 0.787 0.0
H2544 H 0.74301 0.21318 0.73468 0.0
O2545 O 0.75137 0.25986 0.80576 0.0
O2546 O 0.73435 0.2538 0.77097 0.0
O2547 O 0.79727 0.22658 0.79926 0.0
O2548 O 0.77936 0.21815 0.76521 0.0
C2549 C 0.73196 0.25581 0.79296 0.0
H2550 H 0.77493 0.26504 0.6703 0.0
H2551 H 0.7397 0.19607 0.69461 0.0
H2552 H 0.78287 0.25845 0.88067 0.0
H2553 H 0.82194 0.32565 0.85753 0.0
C2554 C 0.7681 0.71416 0.76983 0.0
N2555 N 0.80171 0.76369 0.72454 0.0
C2556 C 0.82237 0.74874 0.72713 0.0
C2557 C 0.83562 0.74183 0.70798 0.0
C2558 C 0.82631 0.7486 0.68581 0.0
C2559 C 0.8063 0.76579 0.68345 0.0
C2560 C 0.79425 0.77346 0.70342 0.0
Zn2561 Zn 0.78109 0.76634 0.753 0.0
C2562 C 0.72934 0.76343 0.74572 0.0
N2563 N 0.74383 0.76914 0.81521 0.0
C2564 C 0.75035 0.75369 0.83358 0.0
C2565 C 0.72616 0.78766 0.81678 0.0
C2566 C 0.71689 0.79364 0.83834 0.0
C2567 C 0.72667 0.78087 0.85812 0.0
C2568 C 0.74181 0.75928 0.85556 0.0
Zn2569 Zn 0.76358 0.76764 0.78649 0.0
O2570 O 0.78021 0.72549 0.75433 0.0
C2571 C 0.81551 0.7667 0.7949 0.0
O2572 O 0.75911 0.72741 0.78599 0.0
H2573 H 0.72115 0.79951 0.80183 0.0
H2574 H 0.82737 0.73998 0.74369 0.0
H2575 H 0.7641 0.73875 0.83168 0.0
O2576 O 0.81321 0.76827 0.77301 0.0
O2577 O 0.79636 0.76441 0.80679 0.0
H2578 H 0.77773 0.78526 0.70182 0.0
O2579 O 0.76855 0.80797 0.78707 0.0
O2580 O 0.78213 0.80668 0.75152 0.0
O2581 O 0.73108 0.771 0.76664 0.0
O2582 O 0.74838 0.76369 0.73342 0.0
C2583 C 0.77746 0.81945 0.76973 0.0
H2584 H 0.85065 0.72805 0.71019 0.0
H2585 H 0.7985 0.7709 0.66638 0.0
H2586 H 0.70533 0.81057 0.83999 0.0
H2587 H 0.74975 0.74926 0.87065 0.0
C2588 C 0.50727 0.51343 0.48212 0.0
N2589 N 0.48251 0.51123 0.55003 0.0
C2590 C 0.46545 0.52861 0.54184 0.0
C2591 C 0.44181 0.52871 0.55055 0.0
C2592 C 0.43612 0.51065 0.56767 0.0
C2593 C 0.45528 0.49637 0.57867 0.0
C2594 C 0.47843 0.49633 0.56897 0.0
Zn2595 Zn 0.5139 0.50704 0.53322 0.0
C2596 C 0.52581 0.45696 0.51957 0.0
N2597 N 0.58141 0.5056 0.50069 0.0
C2598 C 0.58836 0.5246 0.48607 0.0
C2599 C 0.59715 0.48634 0.5075 0.0
C2600 C 0.62199 0.48781 0.50235 0.0
C2601 C 0.63041 0.50988 0.49114 0.0
C2602 C 0.61319 0.52721 0.48104 0.0
Zn2603 Zn 0.54952 0.50914 0.5168 0.0
O2604 O 0.49481 0.51191 0.5004 0.0
C2605 C 0.53583 0.55958 0.52884 0.0
O2606 O 0.53077 0.51263 0.48403 0.0
H2607 H 0.59114 0.47135 0.51904 0.0
H2608 H 0.46951 0.54092 0.52727 0.0
H2609 H 0.57525 0.53932 0.48048 0.0
O2610 O 0.51847 0.54568 0.53588 0.0
O2611 O 0.55373 0.54918 0.51876 0.0
H2612 H 0.49239 0.48289 0.57538 0.0
O2613 O 0.56885 0.50589 0.5495 0.0
O2614 O 0.53298 0.50217 0.56561 0.0
O2615 O 0.54502 0.46969 0.51496 0.0
O2616 O 0.50838 0.4678 0.52998 0.0
C2617 C 0.55641 0.50295 0.56762 0.0
H2618 H 0.42745 0.54004 0.54167 0.0
H2619 H 0.45136 0.48234 0.59202 0.0
H2620 H 0.63494 0.47403 0.51015 0.0
H2621 H 0.6191 0.54451 0.47231 0.0
C2622 C 0.02029 0.51927 0.0723 0.0
N2623 N 0.05374 0.45921 0.03778 0.0
C2624 C 0.06804 0.45575 0.05754 0.0
C2625 C 0.07315 0.43099 0.06552 0.0
C2626 C 0.06348 0.41004 0.05284 0.0
C2627 C 0.05091 0.41414 0.0314 0.0
C2628 C 0.04609 0.43917 0.02416 0.0
Zn2629 Zn 0.03916 0.49364 0.03051 0.0
C2630 C 0.9838 0.48938 0.0229 0.0
N2631 N 0.00602 0.56402 0.0133 0.0
C2632 C 0.01311 0.58534 0.02546 0.0
C2633 C 0.99003 0.56527 0.99445 0.0
C2634 C 0.98234 0.58899 0.98576 0.0
C2635 C 0.9913 0.61128 0.9967 0.0
C2636 C 0.00583 0.60952 0.01736 0.0
Zn2637 Zn 0.02155 0.53008 0.02102 0.0
O2638 O 0.03236 0.49952 0.06632 0.0
C2639 C 0.07704 0.53414 0.02883 0.0
O2640 O 0.01449 0.536 0.05687 0.0
H2641 H 0.98467 0.54796 0.98515 0.0
H2642 H 0.07392 0.47212 0.06793 0.0
H2643 H 0.0258 0.58366 0.04045 0.0
O2644 O 0.07467 0.51052 0.03383 0.0
O2645 O 0.05768 0.54746 0.02402 0.0
H2646 H 0.03458 0.44252 0.00862 0.0
O2647 O 0.02861 0.52434 0.98512 0.0
O2648 O 0.04622 0.48781 0.99464 0.0
O2649 O 0.98593 0.51292 0.0177 0.0
O2650 O 0.0032 0.47633 0.02791 0.0
C2651 C 0.04071 0.5046 0.97921 0.0
H2652 H 0.08288 0.42825 0.08222 0.0
H2653 H 0.0429 0.39831 0.02146 0.0
H2654 H 0.9715 0.58999 0.96949 0.0
H2655 H 0.01338 0.62658 0.02578 0.0
C2656 C 0.08351 0.12002 0.0592 0.0
C2657 C 0.08138 0.11605 0.08332 0.0
C2658 C 0.07339 0.10225 0.04304 0.0
C2659 C 0.05994 0.08106 0.05085 0.0
H2660 H 0.09147 0.1377 0.05287 0.0
H2661 H 0.07469 0.10593 0.02454 0.0
S2662 S 0.05043 0.06216 0.11238 0.0
N2663 N 0.06725 0.08855 0.11417 0.0
N2664 N 0.04618 0.05664 0.08422 0.0
C2665 C 0.05883 0.07652 0.07497 0.0
C2666 C 0.07021 0.09364 0.09115 0.0
C2667 C 0.18133 0.7676 0.3376 0.0
C2668 C 0.1599 0.75638 0.32705 0.0
C2669 C 0.20462 0.76669 0.32708 0.0
C2670 C 0.20779 0.75481 0.30523 0.0
H2671 H 0.18021 0.77696 0.35438 0.0
H2672 H 0.22029 0.7757 0.33615 0.0
S2673 S 0.15752 0.72335 0.26958 0.0
N2674 N 0.14349 0.73345 0.29299 0.0
N2675 N 0.18687 0.73191 0.27327 0.0
C2676 C 0.18645 0.74373 0.29435 0.0
C2677 C 0.16275 0.74443 0.30521 0.0
C2678 C 0.57254 0.86664 0.60691 0.0
C2679 C 0.58116 0.84405 0.59665 0.0
C2680 C 0.57063 0.88937 0.5942 0.0
C2681 C 0.5772 0.89027 0.57075 0.0
H2682 H 0.56666 0.86654 0.62477 0.0
H2683 H 0.5631 0.90618 0.60259 0.0
S2684 S 0.60147 0.83635 0.53611 0.0
N2685 N 0.5969 0.82372 0.56206 0.0
N2686 N 0.59328 0.86693 0.53785 0.0
C2687 C 0.58632 0.86793 0.56034 0.0
C2688 C 0.58843 0.84467 0.57343 0.0
C2689 C 0.38394 0.25726 0.83867 0.0
C2690 C 0.40514 0.26302 0.82596 0.0
C2691 C 0.35981 0.25778 0.82816 0.0
C2692 C 0.35561 0.26388 0.80433 0.0
H2693 H 0.38597 0.25261 0.85706 0.0
H2694 H 0.3443 0.25324 0.83889 0.0
S2695 S 0.4049 0.27907 0.76284 0.0
N2696 N 0.42023 0.27409 0.78789 0.0
N2697 N 0.3753 0.27514 0.76824 0.0
C2698 C 0.37672 0.26943 0.79137 0.0
C2699 C 0.40126 0.269 0.80212 0.0
C2700 C 0.03904 0.89164 0.49227 0.0
C2701 C 0.02711 0.88842 0.47013 0.0
C2702 C 0.0377 0.91509 0.50461 0.0
C2703 C 0.02486 0.93651 0.49507 0.0
H2704 H 0.0495 0.87587 0.50017 0.0
H2705 H 0.04747 0.91673 0.52138 0.0
S2706 S 0.99027 0.93842 0.43795 0.0
N2707 N 0.00163 0.90892 0.43954 0.0
N2708 N -0.00036 0.95281 0.46235 0.0
C2709 C 0.01278 0.93353 0.47307 0.0
C2710 C 0.01373 0.90959 0.46074 0.0
C2711 C 0.43608 0.70227 0.73584 0.0
C2712 C 0.45148 0.72395 0.73848 0.0
C2713 C 0.41326 0.70129 0.74626 0.0
C2714 C 0.40475 0.72221 0.75913 0.0
H2715 H 0.44106 0.68643 0.72469 0.0
H2716 H 0.40158 0.68463 0.74309 0.0
S2717 S 0.43954 0.78207 0.7736 0.0
N2718 N 0.45833 0.76522 0.75745 0.0
N2719 N 0.41429 0.76446 0.77559 0.0
C2720 C 0.4206 0.74339 0.7631 0.0
C2721 C 0.4442 0.74406 0.75296 0.0
C2722 C 0.52 0.11449 0.9603 0.0
C2723 C 0.52731 0.13743 0.97159 0.0
C2724 C 0.51905 0.09096 0.97242 0.0
C2725 C 0.52513 0.08916 0.99654 0.0
H2726 H 0.51559 0.11455 0.94172 0.0
H2727 H 0.51389 0.07391 0.96257 0.0
S2728 S 0.54359 0.14404 0.03477 0.0
N2729 N 0.53944 0.15711 0.00865 0.0
N2730 N 0.53764 0.11309 0.03143 0.0
C2731 C 0.53177 0.11214 0.00821 0.0
C2732 C 0.53291 0.13613 0.99577 0.0
C2733 C 0.17716 0.29937 0.24182 0.0
C2734 C 0.17352 0.28923 0.21936 0.0
C2735 C 0.20103 0.30141 0.25175 0.0
C2736 C 0.22158 0.29294 0.23949 0.0
H2737 H 0.16144 0.30331 0.25249 0.0
H2738 H 0.20313 0.30687 0.26994 0.0
S2739 S 0.22156 0.26993 0.17836 0.0
N2740 N 0.19207 0.27474 0.18371 0.0
N2741 N 0.23718 0.27862 0.20234 0.0
C2742 C 0.21834 0.28635 0.21584 0.0
C2743 C 0.19405 0.28431 0.20575 0.0
C2744 C 0.10133 0.01001 0.11593 0.0
C2745 C 0.08887 0.00095 0.13534 0.0
C2746 C 0.09025 0.00865 0.09351 0.0
C2747 C 0.06617 0.9987 0.08998 0.0
H2748 H 0.11966 0.01836 0.11814 0.0
H2749 H 0.10012 0.01655 0.07904 0.0
S2750 S 0.02622 0.97202 0.13521 0.0
N2751 N 0.05179 0.98096 0.14972 0.0
N2752 N 0.03055 0.97906 0.10758 0.0
C2753 C 0.05373 0.98924 0.10925 0.0
C2754 C 0.0652 0.9902 0.13197 0.0
C2755 C 0.28713 0.84329 0.41865 0.0
C2756 C 0.29525 0.8306 0.43919 0.0
C2757 C 0.29081 0.83242 0.3967 0.0
C2758 C 0.30246 0.80833 0.39455 0.0
H2759 H 0.27816 0.86191 0.41957 0.0
H2760 H 0.28406 0.84273 0.3813 0.0
S2761 S 0.32676 0.76726 0.44317 0.0
N2762 N 0.31529 0.79274 0.45616 0.0
N2763 N 0.32206 0.77214 0.41489 0.0
C2764 C 0.31053 0.7954 0.41501 0.0
C2765 C 0.307 0.8066 0.43733 0.0
C2766 C 0.49887 0.00732 0.63271 0.0
C2767 C 0.47611 0.02047 0.63404 0.0
C2768 C 0.5129 0.00859 0.61258 0.0
C2769 C 0.5048 0.0232 0.59305 0.0
H2770 H 0.50579 0.99576 0.64728 0.0
H2771 H 0.52997 0.99762 0.61216 0.0
S2772 S 0.44574 0.06005 0.58722 0.0
N2773 N 0.44566 0.04772 0.61373 0.0
N2774 N 0.47207 0.05059 0.57622 0.0
C2775 C 0.48219 0.03672 0.59431 0.0
C2776 C 0.46785 0.03522 0.6147 0.0
C2777 C 0.27648 0.20844 0.92935 0.0
C2778 C 0.29313 0.18791 0.92668 0.0
C2779 C 0.26597 0.22104 0.90984 0.0
C2780 C 0.27141 0.21288 0.88733 0.0
H2781 H 0.27144 0.21454 0.94659 0.0
H2782 H 0.25343 0.23704 0.9123 0.0
S2783 S 0.31458 0.16074 0.87139 0.0
N2784 N 0.31516 0.16048 0.9002 0.0
N2785 N 0.29526 0.18406 0.86335 0.0
C2786 C 0.28831 0.19263 0.88452 0.0
C2787 C 0.29925 0.18013 0.90431 0.0
C2788 C 0.06915 0.04274 0.36715 0.0
C2789 C 0.09036 0.02741 0.36444 0.0
C2790 C 0.05927 0.04632 0.38919 0.0
C2791 C 0.07072 0.03518 0.40918 0.0
H2792 H 0.05995 0.05168 0.35209 0.0
H2793 H 0.04264 0.05784 0.39065 0.0
S2794 S 0.12684 0.99385 0.41136 0.0
N2795 N 0.12259 0.00129 0.3835 0.0
N2796 N 0.10421 0.00825 0.42494 0.0
C2797 C 0.09208 0.02011 0.4067 0.0
C2798 C 0.10187 0.01615 0.3843 0.0
C2799 C 0.29209 0.79579 0.66673 0.0
C2800 C 0.27909 0.81921 0.66406 0.0
C2801 C 0.29106 0.78128 0.68741 0.0
C2802 C 0.27687 0.78963 0.70606 0.0
H2803 H 0.30308 0.78861 0.6527 0.0
H2804 H 0.30146 0.76347 0.68881 0.0
S2805 S 0.24175 0.85114 0.70867 0.0
N2806 N 0.25323 0.85099 0.68242 0.0
N2807 N 0.25098 0.8239 0.72099 0.0
C2808 C 0.26408 0.81325 0.70363 0.0
C2809 C 0.26527 0.82798 0.68272 0.0
C2810 C 0.49105 0.98623 0.86199 0.0
C2811 C 0.4676 0.99787 0.85882 0.0
C2812 C 0.50199 0.983 0.8844 0.0
C2813 C 0.4895 0.99068 0.90431 0.0
H2814 H 0.50111 0.97994 0.84703 0.0
H2815 H 0.52032 0.97448 0.8862 0.0
S2816 S 0.42753 0.02152 0.9053 0.0
N2817 N 0.43219 0.01685 0.87732 0.0
N2818 N 0.45251 0.01028 0.91947 0.0
C2819 C 0.46591 0.00195 0.90136 0.0
C2820 C 0.455 0.00569 0.87858 0.0
C2821 C 0.33355 0.2259 0.13022 0.0
C2822 C 0.34878 0.20393 0.12942 0.0
C2823 C 0.33173 0.23996 0.15081 0.0
C2824 C 0.34521 0.23252 0.17114 0.0
H2825 H 0.32134 0.23089 0.11547 0.0
H2826 H 0.31774 0.25491 0.15142 0.0
S2827 S 0.39246 0.18084 0.17641 0.0
N2828 N 0.38092 0.17835 0.14943 0.0
N2829 N 0.37812 0.20557 0.18795 0.0
C2830 C 0.36315 0.21304 0.16956 0.0
C2831 C 0.3648 0.19848 0.14869 0.0
C2832 C 0.19456 0.02103 0.00194 0.0
C2833 C 0.19329 0.0422 0.01721 0.0
C2834 C 0.17297 0.00862 0.99366 0.0
C2835 C 0.14974 0.01736 0.0003 0.0
H2836 H 0.21234 0.01435 0.99612 0.0
H2837 H 0.17439 0.99253 0.9818 0.0
S2838 S 0.13652 0.07117 0.0404 0.0
N2839 N 0.16702 0.07084 0.0389 0.0
N2840 N 0.12646 0.04731 0.02366 0.0
C2841 C 0.14829 0.03798 0.01602 0.0
C2842 C 0.17012 0.05048 0.02443 0.0
C2843 C 0.64119 0.46623 0.0262 0.0
C2844 C 0.65701 0.47493 0.04468 0.0
C2845 C 0.61678 0.47536 0.02317 0.0
C2846 C 0.60697 0.49316 0.03873 0.0
H2847 H 0.64752 0.45186 0.01414 0.0
H2848 H 0.60526 0.46793 0.00884 0.0
S2849 S 0.64056 0.52364 0.08889 0.0
N2850 N 0.66119 0.50403 0.07783 0.0
N2851 N 0.61483 0.52006 0.07267 0.0
C2852 C 0.62236 0.5022 0.05718 0.0
C2853 C 0.64747 0.49335 0.06004 0.0
C2854 C 0.81861 0.37795 0.28008 0.0
C2855 C 0.83577 0.38106 0.26244 0.0
C2856 C 0.81054 0.35349 0.28657 0.0
C2857 C 0.81966 0.33119 0.27596 0.0
H2858 H 0.81097 0.39462 0.28858 0.0
H2859 H 0.79665 0.35206 0.29967 0.0
S2860 S 0.8656 0.32901 0.22937 0.0
N2861 N 0.86219 0.35994 0.23492 0.0
N2862 N 0.84715 0.31385 0.24712 0.0
C2863 C 0.83734 0.33402 0.2587 0.0
C2864 C 0.84529 0.35899 0.25188 0.0
C2865 C 0.92157 0.48657 0.52512 0.0
C2866 C 0.90996 0.51062 0.52531 0.0
C2867 C 0.94725 0.48489 0.52907 0.0
C2868 C 0.96129 0.50715 0.53389 0.0
H2869 H 0.91093 0.46933 0.52134 0.0
H2870 H 0.9563 0.46635 0.52771 0.0
S2871 S 0.93902 0.57431 0.53626 0.0
N2872 N 0.91394 0.55695 0.53063 0.0
N2873 N 0.96212 0.55351 0.53855 0.0
C2874 C 0.94966 0.53106 0.53488 0.0
C2875 C 0.92389 0.53287 0.53042 0.0
C2876 C 0.24099 0.1435 0.28044 0.0
C2877 C 0.2293 0.13591 0.25977 0.0
C2878 C 0.24839 0.16863 0.28278 0.0
C2879 C 0.24509 0.18634 0.26434 0.0
H2880 H 0.24413 0.1302 0.29482 0.0
H2881 H 0.25756 0.17433 0.29911 0.0
S2882 S 0.21025 0.17433 0.20084 0.0
N2883 N 0.21361 0.15133 0.22115 0.0
N2884 N 0.22074 0.16316 0.22783 0.0
C2885 C 0.23391 0.18139 0.24195 0.0
C2886 C 0.22559 0.15593 0.24053 0.0
C2887 C 0.42918 0.96772 0.55496 0.0
C2888 C 0.40938 0.96754 0.53821 0.0
C2889 C 0.45339 0.97383 0.54885 0.0
C2890 C 0.45876 0.98042 0.52583 0.0
H2891 H 0.42595 0.96347 0.57308 0.0
H2892 H 0.4679 0.97425 0.56245 0.0
S2893 S 0.41444 0.98181 0.47502 0.0
N2894 N 0.39748 0.97314 0.49707 0.0
N2895 N 0.44284 0.98615 0.48611 0.0
C2896 C 0.43939 0.98046 0.50887 0.0
C2897 C 0.41475 0.97365 0.51493 0.0
C2898 C 0.83681 0.65783 0.25016 0.0
C2899 C 0.82186 0.63582 0.25131 0.0
C2900 C 0.82681 0.68243 0.25313 0.0
C2901 C 0.80165 0.6858 0.25796 0.0
H2902 H 0.85642 0.65598 0.24702 0.0
H2903 H 0.83903 0.69889 0.25235 0.0
S2904 S 0.75457 0.6344 0.26209 0.0
N2905 N 0.78051 0.61889 0.25666 0.0
N2906 N 0.76185 0.66525 0.26319 0.0
C2907 C 0.78645 0.66398 0.25903 0.0
C2908 C 0.79652 0.63893 0.25541 0.0
C2909 C 0.72899 0.36947 0.77767 0.0
C2910 C 0.73809 0.38811 0.76238 0.0
C2911 C 0.73987 0.34514 0.77955 0.0
C2912 C 0.75992 0.33844 0.76594 0.0
H2913 H 0.71303 0.37352 0.78798 0.0
H2914 H 0.73216 0.33122 0.79134 0.0
S2915 S 0.79177 0.38015 0.72434 0.0
N2916 N 0.76948 0.39844 0.73438 0.0
N2917 N 0.78913 0.35195 0.7373 0.0
C2918 C 0.76938 0.35664 0.75069 0.0
C2919 C 0.75862 0.38169 0.74904 0.0
C2920 C 0.01353 0.89754 0.00487 0.0
C2921 C 0.99566 0.89729 0.98639 0.0
C2922 C 0.01755 0.91973 0.01801 0.0
C2923 C 0.00325 0.94177 0.01342 0.0
H2924 H 0.02592 0.88132 0.00777 0.0
H2925 H 0.03313 0.92034 0.03051 0.0
S2926 S 0.95199 0.94988 0.96938 0.0
N2927 N 0.96202 0.9202 0.9657 0.0
N2928 N 0.96887 0.96153 0.99149 0.0
C2929 C 0.98343 0.94084 0.997 0.0
C2930 C 0.97972 0.91853 0.98316 0.0
C2931 C 0.88042 0.25478 0.71514 0.0
C2932 C 0.90174 0.2661 0.72576 0.0
C2933 C 0.85715 0.25543 0.72566 0.0
C2934 C 0.85391 0.26708 0.7476 0.0
H2935 H 0.88161 0.24556 0.69831 0.0
H2936 H 0.84156 0.2464 0.71649 0.0
S2937 S 0.90384 0.29897 0.78329 0.0
N2938 N 0.91796 0.28913 0.75985 0.0
N2939 N 0.87457 0.29006 0.77964 0.0
C2940 C 0.87512 0.27831 0.75854 0.0
C2941 C 0.89881 0.27793 0.74765 0.0
C2942 C 0.51335 0.16855 0.46071 0.0
C2943 C 0.49216 0.1843 0.45896 0.0
C2944 C 0.51318 0.14563 0.4732 0.0
C2945 C 0.49178 0.13759 0.48419 0.0
H2946 H 0.53007 0.17367 0.45191 0.0
H2947 H 0.52977 0.1338 0.47389 0.0
S2948 S 0.43189 0.17209 0.48603 0.0
N2949 N 0.44948 0.19078 0.47023 0.0
N2950 N 0.44915 0.14684 0.49338 0.0
C2951 C 0.47051 0.15302 0.48291 0.0
C2952 C 0.47069 0.17664 0.47031 0.0
C2953 C 0.67803 0.75613 0.20865 0.0
C2954 C 0.65673 0.75872 0.22205 0.0
C2955 C 0.70222 0.75579 0.21911 0.0
C2956 C 0.70627 0.75746 0.24353 0.0
H2957 H 0.67602 0.75484 0.18984 0.0
H2958 H 0.71787 0.75412 0.20792 0.0
S2959 S 0.65681 0.76382 0.2866 0.0
N2960 N 0.64149 0.76261 0.26117 0.0
N2961 N 0.68647 0.76164 0.28074 0.0
C2962 C 0.68507 0.7597 0.25711 0.0
C2963 C 0.66052 0.76044 0.24643 0.0
C2964 C 0.04139 0.1134 0.59251 0.0
C2965 C 0.03165 0.13565 0.58144 0.0
C2966 C 0.04257 0.08967 0.58073 0.0
C2967 C 0.03469 0.08717 0.55711 0.0
H2968 H 0.0476 0.11417 0.61067 0.0
H2969 H 0.04972 0.07307 0.59026 0.0
S2970 S 0.00827 0.13961 0.51981 0.0
N2971 N 0.0142 0.15357 0.54526 0.0
N2972 N 0.01697 0.1093 0.52306 0.0
C2973 C 0.02541 0.10938 0.54567 0.0
C2974 C 0.02372 0.13345 0.55782 0.0
C2975 C 0.62451 0.33592 0.30597 0.0
C2976 C 0.61913 0.3261 0.32796 0.0
C2977 C 0.64848 0.33374 0.29768 0.0
C2978 C 0.6674 0.32174 0.3113 0.0
H2979 H 0.6099 0.3441 0.29476 0.0
H2980 H 0.65202 0.34043 0.28023 0.0
S2981 S 0.66182 0.29269 0.36993 0.0
N2982 N 0.63394 0.3043 0.3632 0.0
N2983 N 0.67903 0.29989 0.34766 0.0
C2984 C 0.66221 0.31264 0.33364 0.0
C2985 C 0.63796 0.31489 0.34198 0.0
C2986 C 0.52883 0.8909 0.05466 0.0
C2987 C 0.538 0.88822 0.07791 0.0
C2988 C 0.53083 0.91434 0.04232 0.0
C2989 C 0.54182 0.9363 0.05278 0.0
H2990 H 0.51998 0.87472 0.0459 0.0
H2991 H 0.52304 0.91544 0.02467 0.0
S2992 S 0.56835 0.93965 0.11352 0.0
N2993 N 0.55826 0.90984 0.11091 0.0
N2994 N 0.56216 0.95344 0.08804 0.0
C2995 C 0.55125 0.93373 0.076 0.0
C2996 C 0.54931 0.90989 0.08843 0.0
C2997 C 0.86456 0.78697 0.83929 0.0
C2998 C 0.88562 0.78767 0.82578 0.0
C2999 C 0.84186 0.7789 0.82946 0.0
C3000 C 0.83991 0.77134 0.80594 0.0
H3001 H 0.86576 0.79248 0.85751 0.0
H3002 H 0.82572 0.77917 0.84015 0.0
S3003 S 0.89091 0.76899 0.76409 0.0
N3004 N 0.90401 0.77982 0.7886 0.0
N3005 N 0.86152 0.76426 0.7698 0.0
C3006 C 0.86128 0.77157 0.79253 0.0
C3007 C 0.88416 0.77992 0.80255 0.0
C3008 C 0.99522 0.02416 0.91805 0.0
C3009 C 0.96961 0.02844 0.91497 0.0
C3010 C 0.00691 0.02522 0.94023 0.0
C3011 C 0.99338 0.03033 0.96028 0.0
H3012 H 0.00628 0.01962 0.90321 0.0
H3013 H 0.02663 0.02123 0.94166 0.0
S3014 S 0.92568 0.0433 0.96129 0.0
N3015 N 0.93101 0.03847 0.93349 0.0
N3016 N 0.95286 0.0404 0.9753 0.0
C3017 C 0.96778 0.03532 0.9573 0.0
C3018 C 0.95593 0.03438 0.93462 0.0
C3019 C 0.77664 0.18389 0.63178 0.0
C3020 C 0.76732 0.19591 0.61131 0.0
C3021 C 0.77257 0.1945 0.65375 0.0
C3022 C 0.75937 0.21768 0.65595 0.0
H3023 H 0.78692 0.16602 0.63078 0.0
H3024 H 0.78023 0.18476 0.66911 0.0
S3025 S 0.73129 0.25663 0.60764 0.0
N3026 N 0.74421 0.232 0.59452 0.0
N3027 N 0.73697 0.25227 0.63588 0.0
C3028 C 0.75004 0.22992 0.63561 0.0
C3029 C 0.75387 0.21891 0.61326 0.0
C3030 C 0.56093 0.0162 0.41732 0.0
C3031 C 0.58318 0.00223 0.41566 0.0
C3032 C 0.54711 0.01528 0.43758 0.0
C3033 C 0.55494 0.00024 0.45693 0.0
H3034 H 0.55429 0.0282 0.40293 0.0
H3035 H 0.53047 0.02692 0.43828 0.0
S3036 S 0.61253 0.96089 0.46174 0.0
N3037 N 0.61277 0.9735 0.43534 0.0
N3038 N 0.58673 0.97131 0.47314 0.0
C3039 C 0.57695 0.98577 0.45528 0.0
C3040 C 0.59108 0.9869 0.43475 0.0
C3041 C 0.73548 0.82309 0.14455 0.0
C3042 C 0.74492 0.84393 0.13237 0.0
C3043 C 0.74995 0.81105 0.16205 0.0
C3044 C 0.77449 0.8191 0.16739 0.0
H3045 H 0.71722 0.81557 0.13998 0.0
H3046 H 0.74193 0.79508 0.17126 0.0
S3047 S 0.80721 0.87327 0.14009 0.0
N3048 N 0.77949 0.87288 0.12684 0.0
N3049 N 0.8072 0.84961 0.15933 0.0
C3050 C 0.78381 0.84044 0.15564 0.0
C3051 C 0.76888 0.85297 0.13813 0.0
C3052 C 0.97653 0.0123 0.67551 0.0
C3053 C 0.97074 0.99046 0.68874 0.0
C3054 C 0.98731 0.00994 0.65383 0.0
C3055 C 0.99255 0.98567 0.64446 0.0
H3056 H 0.97225 0.0314 0.68174 0.0
H3057 H 0.99117 0.02726 0.6441 0.0
S3058 S 0.98259 0.92257 0.67248 0.0
N3059 N 0.97237 0.94374 0.69133 0.0
N3060 N 0.99211 0.93945 0.65011 0.0
C3061 C 0.9871 0.96367 0.65743 0.0
C3062 C 0.97633 0.96604 0.67969 0.0
C3063 C 0.77715 0.22888 0.38543 0.0
C3064 C 0.78475 0.20297 0.3866 0.0
C3065 C 0.7787 0.24316 0.36468 0.0
C3066 C 0.78809 0.23204 0.34445 0.0
H3067 H 0.76997 0.23817 0.40067 0.0
H3068 H 0.77239 0.26295 0.36443 0.0
S3069 S 0.80743 0.16392 0.33774 0.0
N3070 N 0.8 0.16626 0.3653 0.0
N3071 N 0.80316 0.19289 0.32651 0.0
C3072 C 0.79538 0.20601 0.34538 0.0
C3073 C 0.79365 0.19153 0.36639 0.0
C3074 C 0.58136 0.04508 0.18542 0.0
C3075 C 0.59754 0.02429 0.19041 0.0
C3076 C 0.5711 0.04905 0.16282 0.0
C3077 C 0.57689 0.03248 0.14452 0.0
H3078 H 0.57622 0.05808 0.19918 0.0
H3079 H 0.55826 0.06485 0.15971 0.0
S3080 S 0.61959 0.97662 0.14777 0.0
N3081 N 0.61989 0.98794 0.17466 0.0
N3082 N 0.60042 0.99538 0.13234 0.0
C3083 C 0.5934 0.01206 0.14908 0.0
C3084 C 0.60378 0.00796 0.172 0.0
C3085 C 0.72107 0.80561 0.91946 0.0
C3086 C 0.73843 0.82587 0.91988 0.0
C3087 C 0.71706 0.79068 0.89939 0.0
C3088 C 0.73019 0.79592 0.87938 0.0
H3089 H 0.71059 0.80134 0.93473 0.0
H3090 H 0.70364 0.77521 0.89944 0.0
S3091 S 0.77754 0.8464 0.87146 0.0
N3092 N 0.76852 0.85032 0.8984 0.0
N3093 N 0.76143 0.8218 0.86097 0.0
C3094 C 0.74773 0.8158 0.87965 0.0
C3095 C 0.75175 0.83095 0.89988 0.0
C3096 C 0.88784 0.97629 0.04564 0.0
C3097 C 0.86604 0.98355 0.05637 0.0
C3098 C 0.90947 0.99036 0.04929 0.0
C3099 C 0.90995 0.01214 0.06375 0.0
H3100 H 0.88812 0.95963 0.03432 0.0
H3101 H 0.92605 0.98417 0.04073 0.0
S3102 S 0.85747 0.03949 0.09515 0.0
N3103 N 0.84572 0.01398 0.08158 0.0
N3104 N 0.88701 0.04077 0.08848 0.0
C3105 C 0.8883 0.01981 0.0745 0.0
C3106 C 0.86612 0.00531 0.07084 0.0
C3107 C 0.42239 0.55598 0.99307 0.0
C3108 C 0.40364 0.54664 0.00724 0.0
C3109 C 0.44699 0.54724 0.9958 0.0
C3110 C 0.45397 0.52878 0.01283 0.0
H3111 H 0.4182 0.57082 0.98024 0.0
H3112 H 0.46075 0.55562 0.98482 0.0
S3113 S 0.41134 0.49605 0.05266 0.0
N3114 N 0.39333 0.51629 0.03761 0.0
N3115 N 0.43951 0.50005 0.04295 0.0
C3116 C 0.4352 0.51857 0.02655 0.0
C3117 C 0.41011 0.52746 0.02372 0.0
C3118 C 0.22228 0.65977 0.79658 0.0
C3119 C 0.23096 0.63773 0.78538 0.0
C3120 C 0.22962 0.68433 0.78968 0.0
C3121 C 0.24628 0.68771 0.7716 0.0
H3122 H 0.20955 0.65801 0.81066 0.0
H3123 H 0.22291 0.70075 0.79921 0.0
S3124 S 0.27414 0.63604 0.73662 0.0
N3125 N 0.25656 0.62065 0.75502 0.0
N3126 N 0.27105 0.66695 0.74251 0.0
C3127 C 0.25503 0.66581 0.7602 0.0
C3128 C 0.24718 0.64078 0.76696 0.0
C3129 C 0.15295 0.52789 0.52497 0.0
C3130 C 0.16099 0.52576 0.50199 0.0
C3131 C 0.12776 0.52693 0.52938 0.0
C3132 C 0.11017 0.52439 0.5109 0.0
H3133 H 0.16597 0.52618 0.53975 0.0
H3134 H 0.12231 0.52568 0.54734 0.0
S3135 S 0.12173 0.53026 0.44787 0.0
N3136 N 0.14963 0.52994 0.4608 0.0
N3137 N 0.10188 0.52833 0.46903 0.0
C3138 C 0.11779 0.52758 0.48796 0.0
C3139 C 0.14345 0.52877 0.48352 0.0
C3140 C 0.82429 0.8728 0.76768 0.0
C3141 C 0.81625 0.89051 0.78436 0.0
C3142 C 0.81052 0.85088 0.76193 0.0
C3143 C 0.78837 0.84527 0.77299 0.0
H3144 H 0.84179 0.87547 0.75935 0.0
H3145 H 0.81809 0.83753 0.74955 0.0
S3146 S 0.7583 0.88567 0.81706 0.0
N3147 N 0.78367 0.90163 0.81087 0.0
N3148 N 0.75849 0.85936 0.80096 0.0
C3149 C 0.77985 0.86278 0.78955 0.0
C3150 C 0.79365 0.88557 0.79507 0.0
C3151 C 0.63125 0.07053 0.50453 0.0
C3152 C 0.65189 0.05967 0.51665 0.0
C3153 C 0.60694 0.06337 0.50965 0.0
C3154 C 0.60238 0.04473 0.52681 0.0
H3155 H 0.63393 0.08476 0.49105 0.0
H3156 H 0.59166 0.07184 0.4995 0.0
S3157 S 0.65013 0.01077 0.56366 0.0
N3158 N 0.66623 0.02981 0.54685 0.0
N3159 N 0.62067 0.01593 0.55617 0.0
C3160 C 0.6229 0.03393 0.53919 0.0
C3161 C 0.6476 0.0415 0.53419 0.0
C3162 C 0.23926 0.3679 0.81117 0.0
C3163 C 0.24539 0.38889 0.79708 0.0
C3164 C 0.24858 0.34329 0.80696 0.0
C3165 C 0.26438 0.33854 0.78842 0.0
H3166 H 0.22634 0.37027 0.82501 0.0
H3167 H 0.24261 0.32771 0.81797 0.0
S3168 S 0.2885 0.38768 0.74817 0.0
N3169 N 0.27008 0.40394 0.76521 0.0
N3170 N 0.28741 0.35749 0.75704 0.0
C3171 C 0.27156 0.35959 0.7748 0.0
C3172 C 0.26209 0.38477 0.77917 0.0
C3173 C 0.3036 0.63871 0.27761 0.0
C3174 C 0.32402 0.6334 0.2928 0.0
C3175 C 0.29326 0.66344 0.27618 0.0
C3176 C 0.303 0.68375 0.28989 0.0
H3177 H 0.29573 0.6237 0.26657 0.0
H3178 H 0.2778 0.66674 0.26392 0.0
S3179 S 0.35692 0.67979 0.33199 0.0
N3180 N 0.35391 0.65037 0.32154 0.0
N3181 N 0.33441 0.69676 0.31912 0.0
C3182 C 0.32317 0.67851 0.30549 0.0
C3183 C 0.33371 0.65336 0.30687 0.0
C3184 C 0.52187 0.61536 0.56622 0.0
C3185 C 0.54316 0.63063 0.56469 0.0
C3186 C 0.51839 0.59404 0.55219 0.0
C3187 C 0.53667 0.58626 0.53686 0.0
H3188 H 0.50846 0.61861 0.57949 0.0
H3189 H 0.50216 0.58238 0.55509 0.0
S3190 S 0.59294 0.6228 0.52238 0.0
N3191 N 0.58032 0.63966 0.54327 0.0
N3192 N 0.57465 0.59773 0.51778 0.0
C3193 C 0.55694 0.60252 0.53344 0.0
C3194 C 0.56009 0.62503 0.54733 0.0
C3195 C 0.6619 0.26338 0.80247 0.0
C3196 C 0.65928 0.2552 0.82574 0.0
C3197 C 0.68513 0.26271 0.79169 0.0
C3198 C 0.70696 0.25444 0.80387 0.0
H3199 H 0.64582 0.27027 0.79243 0.0
H3200 H 0.68607 0.2694 0.77386 0.0
S3201 S 0.71043 0.23133 0.86525 0.0
N3202 N 0.68081 0.23846 0.86047 0.0
N3203 N 0.72411 0.23775 0.84066 0.0
C3204 C 0.70454 0.24626 0.82715 0.0
C3205 C 0.68088 0.24648 0.83793 0.0
C3206 C 0.04539 0.35952 0.09559 0.0
C3207 C 0.05316 0.33676 0.08501 0.0
C3208 C 0.04964 0.38326 0.08528 0.0
C3209 C 0.06169 0.38489 0.06405 0.0
H3210 H 0.03661 0.359 0.11227 0.0
H3211 H 0.04316 0.40046 0.09381 0.0
S3212 S 0.08522 0.33079 0.02927 0.0
N3213 N 0.07318 0.31701 0.05221 0.0
N3214 N 0.08103 0.36204 0.03258 0.0
C3215 C 0.06928 0.36229 0.05312 0.0
C3216 C 0.06508 0.33807 0.0637 0.0
C3217 C 0.88371 0.75733 0.33982 0.0
C3218 C 0.90491 0.76376 0.32734 0.0
C3219 C 0.85953 0.75839 0.32938 0.0
C3220 C 0.85526 0.76583 0.30586 0.0
H3221 H 0.88575 0.7517 0.35798 0.0
H3222 H 0.84405 0.75326 0.33992 0.0
S3223 S 0.90449 0.78287 0.26489 0.0
N3224 N 0.91988 0.77663 0.28968 0.0
N3225 N 0.8749 0.77882 0.27023 0.0
C3226 C 0.87636 0.77203 0.29313 0.0
C3227 C 0.90095 0.77097 0.30377 0.0
C3228 C 0.51878 0.41057 0.95908 0.0
C3229 C 0.5295 0.38843 0.96952 0.0
C3230 C 0.5178 0.43415 0.97113 0.0
C3231 C 0.52688 0.43653 0.99441 0.0
H3232 H 0.51157 0.40982 0.94122 0.0
H3233 H 0.50981 0.45069 0.9621 0.0
S3234 S 0.5564 0.38434 0.02995 0.0
N3235 N 0.54933 0.37051 0.00466 0.0
N3236 N 0.54693 0.41448 0.0274 0.0
C3237 C 0.53724 0.41444 0.0052 0.0
C3238 C 0.53873 0.39055 0.99275 0.0
C3239 C 0.93922 0.18912 0.24741 0.0
C3240 C 0.94653 0.20335 0.22807 0.0
C3241 C 0.91474 0.19053 0.25462 0.0
C3242 C 0.89715 0.20583 0.24233 0.0
H3243 H 0.95265 0.17764 0.25738 0.0
H3244 H 0.90966 0.18021 0.27014 0.0
S3245 S 0.9076 0.24653 0.19058 0.0
N3246 N 0.93474 0.23288 0.19673 0.0
N3247 N 0.88866 0.23543 0.21015 0.0
C3248 C 0.90425 0.21957 0.22263 0.0
C3249 C 0.92905 0.21833 0.2155 0.0
C3250 C 0.02301 0.63354 0.49398 0.0
C3251 C 0.03331 0.63585 0.47181 0.0
C3252 C 0.02241 0.60965 0.5058 0.0
C3253 C 0.03146 0.58699 0.49561 0.0
H3254 H 0.01563 0.6504 0.50238 0.0
H3255 H 0.0145 0.60885 0.52286 0.0
S3256 S 0.06013 0.58264 0.43781 0.0
N3257 N 0.05275 0.61331 0.44029 0.0
N3258 N 0.05134 0.56878 0.46202 0.0
C3259 C 0.04164 0.58915 0.47339 0.0
C3260 C 0.04264 0.61342 0.46164 0.0
C3261 C 0.68861 0.71743 0.71146 0.0
C3262 C 0.67724 0.70339 0.72917 0.0
C3263 C 0.70508 0.73732 0.71693 0.0
C3264 C 0.71041 0.74399 0.74021 0.0
H3265 H 0.68313 0.71464 0.69328 0.0
H3266 H 0.71306 0.74807 0.70287 0.0
S3267 S 0.68932 0.70919 0.79276 0.0
N3268 N 0.67577 0.69411 0.77046 0.0
N3269 N 0.70568 0.7324 0.78123 0.0
C3270 C 0.70068 0.72861 0.75807 0.0
C3271 C 0.68465 0.70783 0.75238 0.0
C3272 C 0.60291 0.51641 0.6171 0.0
C3273 C 0.59167 0.50532 0.63638 0.0
C3274 C 0.59176 0.51477 0.59472 0.0
C3275 C 0.5688 0.50239 0.59098 0.0
H3276 H 0.62049 0.5263 0.61935 0.0
H3277 H 0.6009 0.52385 0.58037 0.0
S3278 S 0.53201 0.47013 0.63589 0.0
N3279 N 0.55669 0.4813 0.65045 0.0
N3280 N 0.53543 0.47849 0.60842 0.0
C3281 C 0.55746 0.49111 0.61016 0.0
C3282 C 0.569 0.49249 0.63287 0.0
C3283 C 0.77244 0.31952 0.92617 0.0
C3284 C 0.79274 0.32862 0.93979 0.0
C3285 C 0.7759 0.30779 0.90454 0.0
C3286 C 0.79973 0.30516 0.89559 0.0
H3287 H 0.75379 0.32135 0.93237 0.0
H3288 H 0.75974 0.30108 0.89455 0.0
S3289 S 0.85884 0.32641 0.9244 0.0
N3290 N 0.83741 0.33444 0.94292 0.0
N3291 N 0.84389 0.31279 0.90199 0.0
C3292 C 0.82015 0.31441 0.90898 0.0
C3293 C 0.81666 0.32599 0.93117 0.0
C3294 C 0.9761 0.53717 0.11958 0.0
C3295 C 0.98103 0.51857 0.13699 0.0
C3296 C 0.98994 0.5382 0.09941 0.0
C3297 C 0.00926 0.52058 0.09566 0.0
H3298 H 0.9608 0.55051 0.1211 0.0
H3299 H 0.98464 0.55229 0.0862 0.0
S3300 S 0.03151 0.46991 0.13712 0.0
N3301 N 0.00814 0.48362 0.15017 0.0
N3302 N 0.03382 0.48514 0.11203 0.0
C3303 C 0.01511 0.50256 0.1134 0.0
C3304 C 0.00106 0.50161 0.13405 0.0
C3305 C 0.77477 0.68814 0.42233 0.0
C3306 C 0.80059 0.68403 0.42197 0.0
C3307 C 0.76185 0.69888 0.40312 0.0
C3308 C 0.77456 0.70557 0.38324 0.0
H3309 H 0.76459 0.68325 0.43765 0.0
H3310 H 0.74214 0.7026 0.40403 0.0
S3311 S 0.84172 0.69808 0.37344 0.0
N3312 N 0.83813 0.6869 0.40007 0.0
N3313 N 0.81378 0.70696 0.36371 0.0
C3314 C 0.80016 0.70085 0.3824 0.0
C3315 C 0.81325 0.69004 0.40189 0.0
C3316 C 0.59362 0.54972 0.87655 0.0
C3317 C 0.59449 0.52544 0.86581 0.0
C3318 C 0.58259 0.55292 0.89808 0.0
C3319 C 0.57172 0.53202 0.90934 0.0
H3320 H 0.60177 0.56629 0.86833 0.0
H3321 H 0.58241 0.57187 0.90589 0.0
S3322 S 0.56919 0.46452 0.88842 0.0
N3323 N 0.58361 0.48024 0.8679 0.0
N3324 N 0.56288 0.48614 0.90842 0.0
C3325 C 0.57245 0.50764 0.89874 0.0
C3326 C 0.58387 0.50437 0.87696 0.0
C3327 C 0.78596 0.29462 0.16697 0.0
C3328 C 0.77485 0.31906 0.16487 0.0
C3329 C 0.78488 0.28038 0.18776 0.0
C3330 C 0.77263 0.29009 0.20715 0.0
H3331 H 0.7956 0.28652 0.15246 0.0
H3332 H 0.79397 0.26179 0.18875 0.0
S3333 S 0.74269 0.35434 0.21099 0.0
N3334 N 0.75255 0.353 0.18413 0.0
N3335 N 0.75042 0.32652 0.22312 0.0
C3336 C 0.76158 0.31465 0.20519 0.0
C3337 C 0.76274 0.32906 0.18408 0.0
C3338 C 0.95667 0.50339 0.37999 0.0
C3339 C 0.96917 0.49841 0.35942 0.0
C3340 C 0.96838 0.4994 0.40199 0.0
C3341 C 0.99312 0.4907 0.40413 0.0
H3342 H 0.93766 0.51022 0.37905 0.0
H3343 H 0.95819 0.50366 0.41745 0.0
S3344 S 0.03376 0.47489 0.35546 0.0
N3345 N 0.00736 0.48409 0.34246 0.0
N3346 N 0.02956 0.47707 0.38377 0.0
C3347 C 0.00576 0.48569 0.38365 0.0
C3348 C 0.99372 0.48939 0.3613 0.0
C3349 C 0.84853 0.71982 0.6298 0.0
C3350 C 0.83859 0.6949 0.63105 0.0
C3351 C 0.84475 0.73763 0.64767 0.0
C3352 C 0.83104 0.73063 0.66696 0.0
H3353 H 0.85834 0.72579 0.61458 0.0
H3354 H 0.85219 0.75687 0.6463 0.0
S3355 S 0.80168 0.66764 0.67823 0.0
N3356 N 0.81524 0.66399 0.65313 0.0
N3357 N 0.80769 0.69746 0.68643 0.0
C3358 C 0.82148 0.70564 0.66847 0.0
C3359 C 0.82545 0.68768 0.65058 0.0
C3360 C 0.68325 0.53443 0.52879 0.0
C3361 C 0.69796 0.54651 0.51258 0.0
C3362 C 0.66218 0.52101 0.52131 0.0
C3363 C 0.65529 0.51938 0.4974 0.0
H3364 H 0.68802 0.53549 0.54729 0.0
H3365 H 0.65062 0.51284 0.53446 0.0
S3366 S 0.68871 0.54748 0.44833 0.0
N3367 N 0.70531 0.5558 0.47191 0.0
N3368 N 0.66516 0.53053 0.45766 0.0
C3369 C 0.67024 0.53107 0.48103 0.0
C3370 C 0.6918 0.54466 0.48869 0.0
C3371 C 0.14856 0.98711 0.52381 0.0
C3372 C 0.15756 0.97561 0.54471 0.0
C3373 C 0.12401 0.99618 0.52129 0.0
C3374 C 0.10732 0.99394 0.5395 0.0
H3375 H 0.16055 0.98894 0.50917 0.0
H3376 H 0.11795 0.00445 0.50469 0.0
S3377 S 0.12181 0.96562 0.598 0.0
N3378 N 0.14786 0.96269 0.58405 0.0
N3379 N 0.10202 0.9799 0.57953 0.0
C3380 C 0.11629 0.98296 0.5607 0.0
C3381 C 0.14129 0.97379 0.56325 0.0
C3382 C 0.34264 0.86075 0.76268 0.0
C3383 C 0.32766 0.88284 0.76319 0.0
C3384 C 0.33391 0.83695 0.77035 0.0
C3385 C 0.30976 0.83432 0.77864 0.0
H3386 H 0.36129 0.86189 0.75637 0.0
H3387 H 0.34595 0.82036 0.76903 0.0
S3388 S 0.26339 0.88684 0.78362 0.0
N3389 N 0.28783 0.90096 0.77283 0.0
N3390 N 0.27124 0.85637 0.78729 0.0
C3391 C 0.2948 0.85654 0.77967 0.0
C3392 C 0.30377 0.88073 0.77189 0.0
C3393 C 0.41906 0.98776 0.02463 0.0
C3394 C 0.40753 0.00347 0.04079 0.0
C3395 C 0.44485 0.98675 0.02421 0.0
C3396 C 0.45959 0.00159 0.03986 0.0
H3397 H 0.40821 0.97865 0.01067 0.0
H3398 H 0.45313 0.97604 0.01029 0.0
S3399 S 0.4378 0.04074 0.089 0.0
N3400 N 0.41228 0.03015 0.0755 0.0
N3401 N 0.46092 0.02821 0.07476 0.0
C3402 C 0.44824 0.01432 0.05817 0.0
C3403 C 0.422 0.01518 0.05868 0.0
C3404 C 0.75089 0.651 0.7406 0.0
C3405 C 0.74065 0.63695 0.75878 0.0
C3406 C 0.76113 0.67544 0.74466 0.0
C3407 C 0.76104 0.68681 0.76696 0.0
H3408 H 0.75071 0.64316 0.72311 0.0
H3409 H 0.76821 0.68588 0.72998 0.0
S3410 S 0.73629 0.65749 0.8203 0.0
N3411 N 0.73121 0.63569 0.79978 0.0
N3412 N 0.75012 0.68171 0.80748 0.0
C3413 C 0.75114 0.67265 0.78532 0.0
C3414 C 0.74101 0.6477 0.78121 0.0
C3415 C 0.91536 0.47224 0.01831 0.0
C3416 C 0.91043 0.46449 0.04128 0.0
C3417 C 0.93927 0.47981 0.01215 0.0
C3418 C 0.95921 0.47926 0.02858 0.0
H3419 H 0.90064 0.47235 0.00493 0.0
H3420 H 0.94219 0.48606 0.99444 0.0
S3421 S 0.95607 0.4634 0.09142 0.0
N3422 N 0.92746 0.45909 0.08089 0.0
N3423 N 0.97241 0.47214 0.06899 0.0
C3424 C 0.95462 0.47179 0.05156 0.0
C3425 C 0.93025 0.46465 0.05798 0.0
C3426 C 0.31874 0.15101 0.73683 0.0
C3427 C 0.31803 0.13192 0.75412 0.0
C3428 C 0.30858 0.17544 0.74038 0.0
C3429 C 0.29719 0.18172 0.76135 0.0
H3430 H 0.32809 0.14738 0.72077 0.0
H3431 H 0.31037 0.18973 0.7268 0.0
S3432 S 0.28788 0.13717 0.81094 0.0
N3433 N 0.30317 0.11992 0.79206 0.0
N3434 N 0.28398 0.16582 0.79888 0.0
C3435 C 0.29524 0.16228 0.77832 0.0
C3436 C 0.30573 0.13742 0.7747 0.0
C3437 C 0.25019 0.87645 0.24338 0.0
C3438 C 0.23395 0.88513 0.2604 0.0
C3439 C 0.26154 0.85218 0.24526 0.0
C3440 C 0.25727 0.83621 0.2644 0.0
H3441 H 0.25424 0.88855 0.22863 0.0
H3442 H 0.27389 0.84601 0.23188 0.0
S3443 S 0.21437 0.84837 0.31207 0.0
N3444 N 0.21251 0.87453 0.29575 0.0
N3445 N 0.23469 0.82953 0.29968 0.0
C3446 C 0.24089 0.8444 0.28127 0.0
C3447 C 0.22902 0.86875 0.27919 0.0
C3448 C 0.51759 0.42272 0.4633 0.0
C3449 C 0.50223 0.40196 0.46845 0.0
C3450 C 0.5266 0.43886 0.48065 0.0
C3451 C 0.51972 0.43576 0.50385 0.0
H3452 H 0.52276 0.42668 0.44558 0.0
H3453 H 0.53805 0.45481 0.47539 0.0
S3454 S 0.47902 0.38514 0.52658 0.0
N3455 N 0.48056 0.3787 0.49846 0.0
N3456 N 0.496 0.41119 0.53127 0.0
C3457 C 0.50379 0.4156 0.5094 0.0
C3458 C 0.49527 0.39826 0.49162 0.0
C3459 C 0.39841 0.7767 0.24564 0.0
C3460 C 0.4014 0.76551 0.22347 0.0
C3461 C 0.37517 0.77686 0.25649 0.0
C3462 C 0.35361 0.76628 0.24553 0.0
H3463 H 0.41429 0.78507 0.25489 0.0
H3464 H 0.37413 0.78542 0.27362 0.0
S3465 S 0.35102 0.73587 0.18673 0.0
N3466 N 0.38035 0.74433 0.19071 0.0
N3467 N 0.33715 0.74481 0.21056 0.0
C3468 C 0.35637 0.75544 0.22314 0.0
C3469 C 0.38002 0.755 0.2123 0.0
C3470 C 0.01226 0.65823 0.95239 0.0
C3471 C 0.99751 0.67985 0.9564 0.0
C3472 C 0.00957 0.63597 0.96546 0.0
C3473 C 0.9922 0.63481 0.98301 0.0
H3474 H 0.02591 0.65854 0.939 0.0
H3475 H 0.02136 0.61959 0.96204 0.0
S3476 S 0.94934 0.68627 0.00043 0.0
N3477 N 0.96489 0.69898 0.97897 0.0
N3478 N 0.96014 0.65669 0.00402 0.0
C3479 C 0.9773 0.65619 0.9873 0.0
C3480 C 0.97984 0.67889 0.97377 0.0
C3481 C 0.16284 0.2418 0.74083 0.0
C3482 C 0.156 0.25952 0.72302 0.0
C3483 C 0.18709 0.24124 0.75116 0.0
C3484 C 0.20585 0.25791 0.74376 0.0
H3485 H 0.14921 0.22848 0.74712 0.0
H3486 H 0.19124 0.2274 0.7649 0.0
S3487 S 0.19804 0.30764 0.69747 0.0
N3488 N 0.17044 0.29407 0.69841 0.0
N3489 N 0.2157 0.29272 0.71737 0.0
C3490 C 0.19935 0.2755 0.7258 0.0
C3491 C 0.17459 0.27639 0.71559 0.0
C3492 C 0.51882 0.61383 0.08966 0.0
C3493 C 0.53102 0.6358 0.08146 0.0
C3494 C 0.52043 0.5899 0.07831 0.0
C3495 C 0.53399 0.58675 0.05791 0.0
H3496 H 0.50815 0.61503 0.10524 0.0
H3497 H 0.51065 0.57374 0.08552 0.0
S3498 S 0.56905 0.63831 0.02885 0.0
N3499 N 0.55707 0.6528 0.05144 0.0
N3500 N 0.55981 0.60808 0.02998 0.0
C3501 C 0.54615 0.60861 0.04939 0.0
C3502 C 0.54478 0.63297 0.06118 0.0
C3503 C 0.12747 0.84179 0.80928 0.0
C3504 C 0.1085 0.82389 0.80462 0.0
C3505 C 0.15031 0.83927 0.79889 0.0
C3506 C 0.15501 0.81831 0.78419 0.0
H3507 H 0.12565 0.85623 0.8227 0.0
H3508 H 0.16511 0.85227 0.80427 0.0
S3509 S 0.10834 0.77133 0.76118 0.0
N3510 N 0.09322 0.7893 0.77961 0.0
N3511 N 0.13685 0.78281 0.76157 0.0
C3512 C 0.13492 0.80265 0.7768 0.0
C3513 C 0.11144 0.80586 0.78678 0.0
C3514 C 0.02635 0.39057 0.55674 0.0
C3515 C 0.03787 0.38711 0.57904 0.0
C3516 C 0.02867 0.4138 0.54417 0.0
C3517 C 0.04224 0.4348 0.55351 0.0
H3518 H 0.01545 0.37515 0.54891 0.0
H3519 H 0.01907 0.41558 0.52731 0.0
S3520 S 0.07573 0.43597 0.61131 0.0
N3521 N 0.06334 0.40699 0.60984 0.0
N3522 N 0.06751 0.45032 0.58652 0.0
C3523 C 0.05392 0.43151 0.57573 0.0
C3524 C 0.05181 0.40783 0.58837 0.0
C3525 C 0.36917 0.27516 0.32355 0.0
C3526 C 0.38711 0.27057 0.30701 0.0
C3527 C 0.34718 0.26122 0.32309 0.0
C3528 C 0.34236 0.24246 0.30585 0.0
H3529 H 0.37268 0.28879 0.33756 0.0
H3530 H 0.33351 0.26601 0.33576 0.0
S3531 S 0.3843 0.22368 0.25871 0.0
N3532 N 0.39931 0.24665 0.27314 0.0
N3533 N 0.35809 0.21967 0.2722 0.0
C3534 C 0.36064 0.23751 0.28944 0.0
C3535 C 0.38279 0.25206 0.28978 0.0
C3536 C 0.49711 0.51048 0.4164 0.0
C3537 C 0.47194 0.51701 0.41308 0.0
C3538 C 0.50839 0.50977 0.43877 0.0
C3539 C 0.49484 0.51523 0.45871 0.0
H3540 H 0.50815 0.50588 0.40157 0.0
H3541 H 0.52782 0.50447 0.44043 0.0
S3542 S 0.42813 0.5329 0.45924 0.0
N3543 N 0.43365 0.52879 0.43137 0.0
N3544 N 0.45477 0.52739 0.47352 0.0
C3545 C 0.46961 0.52179 0.45557 0.0
C3546 C 0.45819 0.52274 0.43274 0.0
C3547 C 0.28461 0.70941 0.12212 0.0
C3548 C 0.26685 0.6929 0.11169 0.0
C3549 C 0.28123 0.71996 0.14421 0.0
C3550 C 0.25988 0.71455 0.15677 0.0
H3551 H 0.30125 0.71431 0.1131 0.0
H3552 H 0.29574 0.73213 0.15166 0.0
S3553 S 0.20791 0.67212 0.1373 0.0
N3554 N 0.22747 0.67092 0.11588 0.0
N3555 N 0.22054 0.69178 0.15692 0.0
C3556 C 0.2419 0.69814 0.1465 0.0
C3557 C 0.24549 0.68714 0.12408 0.0
C3558 C 0.08583 0.48656 0.93271 0.0
C3559 C 0.08161 0.50541 0.91537 0.0
C3560 C 0.07145 0.4855 0.95254 0.0
C3561 C 0.05227 0.50336 0.95606 0.0
H3562 H 0.101 0.473 0.93142 0.0
H3563 H 0.07623 0.47118 0.9657 0.0
S3564 S 0.03164 0.5547 0.91459 0.0
N3565 N 0.05517 0.54081 0.90193 0.0
N3566 N 0.02856 0.53928 0.93949 0.0
C3567 C 0.04711 0.52164 0.93838 0.0
C3568 C 0.06169 0.5226 0.91805 0.0
C3569 C 0.25797 0.34426 0.65024 0.0
C3570 C 0.26046 0.33743 0.62689 0.0
C3571 C 0.27068 0.3306 0.66788 0.0
C3572 C 0.28617 0.30978 0.66257 0.0
H3573 H 0.2469 0.36079 0.65481 0.0
H3574 H 0.26825 0.33625 0.68583 0.0
S3575 S 0.298 0.28405 0.60394 0.0
N3576 N 0.27894 0.30857 0.59908 0.0
N3577 N 0.30259 0.28236 0.63255 0.0
C3578 C 0.28826 0.30234 0.6393 0.0
C3579 C 0.27546 0.31638 0.62132 0.0
C3580 C 0.45981 0.50421 0.16698 0.0
C3581 C 0.46855 0.48981 0.18634 0.0
C3582 C 0.47002 0.50093 0.14514 0.0
C3583 C 0.48948 0.48343 0.14209 0.0
H3584 H 0.44486 0.51795 0.16872 0.0
H3585 H 0.46296 0.51249 0.13061 0.0
S3586 S 0.5192 0.44151 0.18727 0.0
N3587 N 0.49769 0.45743 0.20114 0.0
N3588 N 0.51732 0.45175 0.15997 0.0
C3589 C 0.49849 0.46902 0.16126 0.0
C3590 C 0.48785 0.47205 0.18345 0.0
C3591 C 0.29598 0.69887 0.86973 0.0
C3592 C 0.28032 0.70583 0.88771 0.0
C3593 C 0.29623 0.71296 0.84892 0.0
C3594 C 0.28076 0.73458 0.84514 0.0
H3595 H 0.30762 0.68191 0.87145 0.0
H3596 H 0.3081 0.70623 0.83537 0.0
S3597 S 0.23852 0.76258 0.88794 0.0
N3598 N 0.25057 0.73705 0.90132 0.0
N3599 N 0.25078 0.76342 0.862 0.0
C3600 C 0.26565 0.74231 0.86333 0.0
C3601 C 0.26548 0.72796 0.88462 0.0
C3602 C 0.09238 0.50558 0.67749 0.0
C3603 C 0.09435 0.52666 0.69281 0.0
C3604 C 0.08218 0.50837 0.65483 0.0
C3605 C 0.07375 0.5324 0.64647 0.0
H3606 H 0.09904 0.48676 0.68293 0.0
H3607 H 0.08106 0.4916 0.64365 0.0
S3608 S 0.07375 0.59349 0.67954 0.0
N3609 N 0.08609 0.57231 0.6981 0.0
N3610 N 0.06758 0.57755 0.65513 0.0
C3611 C 0.07569 0.55368 0.6614 0.0
C3612 C 0.08582 0.55082 0.68465 0.0
C3613 C 0.20433 0.31484 0.41196 0.0
C3614 C 0.22311 0.31267 0.42953 0.0
C3615 C 0.20466 0.29948 0.39203 0.0
C3616 C 0.22408 0.28189 0.38877 0.0
H3617 H 0.19044 0.32987 0.41262 0.0
H3618 H 0.19087 0.30303 0.37817 0.0
S3619 S 0.27403 0.26464 0.43237 0.0
N3620 N 0.25826 0.28772 0.44488 0.0
N3621 N 0.2601 0.26012 0.4066 0.0
C3622 C 0.24124 0.27744 0.40743 0.0
C3623 C 0.24052 0.29266 0.42799 0.0
C3624 C 0.3873 0.46333 0.55065 0.0
C3625 C 0.36582 0.47832 0.55021 0.0
C3626 C 0.40973 0.47361 0.55855 0.0
C3627 C 0.41135 0.4993 0.56616 0.0
H3628 H 0.38681 0.44366 0.5444 0.0
H3629 H 0.42617 0.46176 0.55725 0.0
S3630 S 0.35942 0.54554 0.57017 0.0
N3631 N 0.34642 0.51907 0.5595 0.0
N3632 N 0.38932 0.53901 0.57404 0.0
C3633 C 0.38968 0.51421 0.56668 0.0
C3634 C 0.36664 0.50353 0.55877 0.0
C3635 C 0.91675 0.04863 0.52913 0.0
C3636 C 0.90389 0.04688 0.50732 0.0
C3637 C 0.94115 0.03952 0.53237 0.0
C3638 C 0.95391 0.0287 0.51385 0.0
H3639 H 0.90814 0.05773 0.54376 0.0
H3640 H 0.95041 0.0418 0.54933 0.0
S3641 S 0.92819 0.01697 0.454 0.0
N3642 N 0.90531 0.03112 0.46745 0.0
N3643 N 0.95157 0.01511 0.47338 0.0
C3644 C 0.94127 0.02629 0.4921 0.0
C3645 C 0.9162 0.03511 0.48888 0.0
C3646 C 0.73915 0.1456 0.26845 0.0
C3647 C 0.7259 0.14168 0.28882 0.0
C3648 C 0.74758 0.17012 0.26244 0.0
C3649 C 0.74244 0.19164 0.27625 0.0
H3650 H 0.74343 0.12948 0.25733 0.0
H3651 H 0.75842 0.17223 0.24703 0.0
S3652 S 0.70854 0.19151 0.33138 0.0
N3653 N 0.7081 0.16121 0.32281 0.0
N3654 N 0.72362 0.20737 0.31141 0.0
C3655 C 0.7289 0.188 0.29649 0.0
C3656 C 0.72075 0.16299 0.30282 0.0
C3657 C 0.65018 0.02615 0.02096 0.0
C3658 C 0.65792 0.01889 0.99875 0.0
C3659 C 0.62508 0.02872 0.02517 0.0
C3660 C 0.6072 0.02428 0.00724 0.0
H3661 H 0.66307 0.02629 0.03591 0.0
H3662 H 0.61973 0.03157 0.043 0.0
S3663 S 0.61888 0.01602 0.94441 0.0
N3664 N 0.64671 0.01563 0.95746 0.0
N3665 N 0.59907 0.02039 0.96531 0.0
C3666 C 0.61495 0.02198 0.98422 0.0
C3667 C 0.64058 0.01957 0.97994 0.0
C3668 C 0.31355 0.37101 0.30759 0.0
C3669 C 0.3355 0.37797 0.29687 0.0
C3670 C 0.30368 0.3463 0.3048 0.0
C3671 C 0.31545 0.32769 0.29119 0.0
H3672 H 0.30352 0.38501 0.31758 0.0
H3673 H 0.28629 0.34206 0.31282 0.0
S3674 S 0.37544 0.33548 0.26237 0.0
N3675 N 0.37015 0.36382 0.27418 0.0
N3676 N 0.35166 0.31724 0.26891 0.0
C3677 C 0.33812 0.33408 0.28135 0.0
C3678 C 0.34813 0.35927 0.28418 0.0
C3679 C 0.14724 0.54119 0.03216 0.0
C3680 C 0.15169 0.55944 0.01467 0.0
C3681 C 0.123 0.53374 0.0372 0.0
C3682 C 0.10221 0.54469 0.02534 0.0
H3683 H 0.16267 0.53222 0.04172 0.0
H3684 H 0.12054 0.51907 0.05033 0.0
S3685 S 0.10381 0.59397 0.97851 0.0
N3686 N 0.1333 0.58872 0.98583 0.0
N3687 N 0.08778 0.575 0.99543 0.0
C3688 C 0.10641 0.56342 0.00818 0.0
C3689 C 0.13111 0.57068 0.00278 0.0
C3690 C 0.74681 0.88077 0.27946 0.0
C3691 C 0.7431 0.88865 0.30254 0.0
C3692 C 0.75612 0.85625 0.27457 0.0
C3693 C 0.7619 0.83859 0.29256 0.0
H3694 H 0.7417 0.89333 0.26498 0.0
H3695 H 0.75796 0.85082 0.25649 0.0
S3696 S 0.75856 0.85096 0.35608 0.0
N3697 N 0.74819 0.87776 0.34365 0.0
N3698 N 0.76531 0.8315 0.33449 0.0
C3699 C 0.75919 0.84657 0.31577 0.0
C3700 C 0.74986 0.87161 0.32074 0.0
C3701 C 0.81695 0.14863 0.80964 0.0
C3702 C 0.82016 0.13319 0.78988 0.0
C3703 C 0.80658 0.17328 0.80758 0.0
C3704 C 0.79897 0.18331 0.78568 0.0
H3705 H 0.8229 0.14177 0.8268 0.0
H3706 H 0.80497 0.18473 0.82321 0.0
S3707 S 0.80353 0.1505 0.7285 0.0
N3708 N 0.81501 0.1296 0.74773 0.0
N3709 N 0.79513 0.1757 0.7438 0.0
C3710 C 0.80141 0.16773 0.76582 0.0
C3711 C 0.81211 0.14271 0.76794 0.0
loop_
_geom_bond_atom_site_label_1
_geom_bond_atom_site_label_2
_geom_bond_distance
_geom_bond_site_symmetry_2
_ccdc_geom_bond_type
Li0 N17 1.990 . S
Li0 O60 1.956 . S
Li0 O61 1.970 . S
Li0 O62 1.961 . S
Li1 N25 1.990 . S
Li1 O60 1.970 . S
Li1 O61 1.956 . S
Li1 O63 1.961 . S
Li2 N47 1.990 . S
Li2 O60 1.961 . S
Li2 O62 1.956 . S
Li2 O63 1.970 . S
Li3 N53 1.990 . S
Li3 O61 1.961 . S
Li3 O62 1.970 . S
Li3 O63 1.956 . S
C4 C6 1.348 . S
C4 C7 1.356 . S
C4 O60 1.325 . S
N5 C8 1.314 . S
N5 C9 1.279 . S
C6 C4 1.348 . S
C6 C8 1.353 . S
C6 H64 0.929 . S
C7 C4 1.356 . S
C7 C9 1.358 . S
C7 H65 0.930 . S
C8 N5 1.314 . S
C8 C6 1.353 . S
C8 H66 0.930 . S
C9 N5 1.279 . S
C9 C7 1.358 . S
C9 H67 0.930 . S
C10 C13 1.348 . S
C10 C14 1.356 . S
C10 O61 1.325 . S
C11 N12 1.279 . S
C11 C14 1.358 . S
C11 H68 0.930 . S
N12 C11 1.279 . S
N12 C15 1.314 . S
C13 C10 1.348 . S
C13 C15 1.353 . S
C13 H69 0.929 . S
C14 C10 1.356 . S
C14 C11 1.358 . S
C14 H70 0.930 . S
C15 N12 1.314 . S
C15 C13 1.353 . S
C15 H71 0.930 . S
C16 N17 1.314 . S
C16 C21 1.353 . S
C16 H22 0.930 . S
N17 Li0 1.990 . S
N17 C16 1.314 . S
N17 C19 1.279 . S
C18 C19 1.358 . S
C18 C20 1.356 . S
C18 H72 0.930 . S
C19 N17 1.279 . S
C19 C18 1.358 . S
C19 H23 0.930 . S
C20 C18 1.356 . S
C20 C21 1.348 . S
C21 C16 1.353 . S
C21 C20 1.348 . S
C21 H73 0.929 . S
H22 C16 0.930 . S
H23 C19 0.930 . S
C24 N25 1.314 . S
C24 C26 1.353 . S
C24 H30 0.930 . S
N25 Li1 1.990 . S
N25 C24 1.314 . S
N25 C28 1.279 . S
C26 C24 1.353 . S
C26 C29 1.348 . S
C26 H74 0.929 . S
C27 C28 1.358 . S
C27 C29 1.356 . S
C27 H75 0.930 . S
C28 N25 1.279 . S
C28 C27 1.358 . S
C28 H31 0.930 . S
C29 C26 1.348 . S
C29 C27 1.356 . S
H30 C24 0.930 . S
H31 C28 0.930 . S
C32 C34 1.348 1_455 S
C32 C35 1.356 . S
C32 O62 1.325 . S
N33 C36 1.314 . S
N33 C37 1.279 . S
C34 C32 1.348 1_655 S
C34 C36 1.353 . S
C34 H76 0.929 . S
C35 C32 1.356 . S
C35 C37 1.358 1_455 S
C35 H77 0.930 . S
C36 N33 1.314 . S
C36 C34 1.353 . S
C36 H78 0.930 . S
C37 N33 1.279 . S
C37 C35 1.358 1_655 S
C37 H79 0.930 . S
C38 C39 1.348 . S
C38 C40 1.356 . S
C38 O63 1.325 . S
C39 C38 1.348 . S
C39 C41 1.353 . S
C39 H80 0.929 . S
C40 C38 1.356 . S
C40 C42 1.358 . S
C40 H81 0.930 . S
C41 C39 1.353 . S
C41 N43 1.314 . S
C41 H82 0.930 . S
C42 C40 1.358 . S
C42 N43 1.279 . S
C42 H83 0.930 . S
N43 C41 1.314 . S
N43 C42 1.279 . S
C44 C46 1.353 . S
C44 N47 1.314 . S
C44 H50 0.930 . S
C45 N47 1.279 . S
C45 C48 1.358 . S
C45 H51 0.930 . S
C46 C44 1.353 . S
C46 C49 1.348 . S
C46 H84 0.929 . S
N47 Li2 1.990 . S
N47 C44 1.314 . S
N47 C45 1.279 . S
C48 C45 1.358 . S
C48 C49 1.356 . S
C48 H85 0.930 . S
C49 C46 1.348 . S
C49 C48 1.356 . S
H50 C44 0.930 . S
H51 C45 0.930 . S
C52 N53 1.314 1_655 S
C52 C54 1.353 . S
C52 H58 0.930 1_655 S
N53 Li3 1.990 . S
N53 C52 1.314 1_455 S
N53 C56 1.279 . S
C54 C52 1.353 . S
C54 C57 1.348 . S
C54 H86 0.929 . S
C55 C56 1.358 1_655 S
C55 C57 1.356 . S
C55 H87 0.930 . S
C56 N53 1.279 . S
C56 C55 1.358 1_455 S
C56 H59 0.930 . S
C57 C54 1.348 . S
C57 C55 1.356 . S
H58 C52 0.930 1_455 S
H59 C56 0.930 . S
O60 Li0 1.956 . S
O60 Li1 1.970 . S
O60 Li2 1.961 . S
O60 C4 1.325 . S
O61 Li0 1.970 . S
O61 Li1 1.956 . S
O61 Li3 1.961 . S
O61 C10 1.325 . S
O62 Li0 1.961 . S
O62 Li2 1.956 . S
O62 Li3 1.970 . S
O62 C32 1.325 . S
O63 Li1 1.961 . S
O63 Li2 1.970 . S
O63 Li3 1.956 . S
O63 C38 1.325 . S
H64 C6 0.929 . S
H65 C7 0.930 . S
H66 C8 0.930 . S
H67 C9 0.930 . S
H68 C11 0.930 . S
H69 C13 0.929 . S
H70 C14 0.930 . S
H71 C15 0.930 . S
H72 C18 0.930 . S
H73 C21 0.929 . S
H74 C26 0.929 . S
H75 C27 0.930 . S
H76 C34 0.929 . S
H77 C35 0.930 . S
H78 C36 0.930 . S
H79 C37 0.930 . S
H80 C39 0.929 . S
H81 C40 0.930 . S
H82 C41 0.930 . S
H83 C42 0.930 . S
H84 C46 0.929 . S
H85 C48 0.930 . S
H86 C54 0.929 . S
H87 C55 0.930 . S
Li88 N105 1.990 1_455 S
Li88 O148 1.956 . S
Li88 O149 1.970 . S
Li88 O150 1.961 . S
Li89 N113 1.990 . S
Li89 O148 1.970 . S
Li89 O149 1.956 . S
Li89 O151 1.961 . S
Li90 N135 1.990 . S
Li90 O148 1.961 . S
Li90 O150 1.956 . S
Li90 O151 1.970 . S
Li91 N141 1.990 . S
Li91 O149 1.961 . S
Li91 O150 1.970 . S
Li91 O151 1.956 . S
C92 C94 1.348 . S
C92 C95 1.356 . S
C92 O148 1.325 . S
N93 C96 1.314 . S
N93 C97 1.279 . S
C94 C92 1.348 . S
C94 C96 1.353 . S
C94 H152 0.929 . S
C95 C92 1.356 . S
C95 C97 1.358 . S
C95 H153 0.930 . S
C96 N93 1.314 . S
C96 C94 1.353 . S
C96 H154 0.930 . S
C97 N93 1.279 . S
C97 C95 1.358 . S
C97 H155 0.930 . S
C98 C101 1.348 . S
C98 C102 1.356 . S
C98 O149 1.325 1_655 S
C99 N100 1.279 . S
C99 C102 1.358 . S
C99 H156 0.930 . S
N100 C99 1.279 . S
N100 C103 1.314 . S
C101 C98 1.348 . S
C101 C103 1.353 . S
C101 H157 0.929 . S
C102 C98 1.356 . S
C102 C99 1.358 . S
C102 H158 0.930 1_655 S
C103 N100 1.314 . S
C103 C101 1.353 . S
C103 H159 0.930 . S
C104 N105 1.314 . S
C104 C109 1.353 . S
C104 H110 0.930 . S
N105 Li88 1.990 1_655 S
N105 C104 1.314 . S
N105 C107 1.279 . S
C106 C107 1.358 . S
C106 C108 1.356 . S
C106 H160 0.930 . S
C107 N105 1.279 . S
C107 C106 1.358 . S
C107 H111 0.930 . S
C108 C106 1.356 . S
C108 C109 1.348 . S
C109 C104 1.353 . S
C109 C108 1.348 . S
C109 H161 0.929 . S
H110 C104 0.930 . S
H111 C107 0.930 . S
C112 N113 1.314 . S
C112 C114 1.353 . S
C112 H118 0.930 . S
N113 Li89 1.990 . S
N113 C112 1.314 . S
N113 C116 1.279 . S
C114 C112 1.353 . S
C114 C117 1.348 . S
C114 H162 0.929 . S
C115 C116 1.358 . S
C115 C117 1.356 . S
C115 H163 0.930 1_455 S
C116 N113 1.279 . S
C116 C115 1.358 . S
C116 H119 0.930 1_455 S
C117 C114 1.348 . S
C117 C115 1.356 . S
H118 C112 0.930 . S
H119 C116 0.930 1_655 S
C120 C122 1.348 . S
C120 C123 1.356 . S
C120 O150 1.325 . S
N121 C124 1.314 . S
N121 C125 1.279 . S
C122 C120 1.348 . S
C122 C124 1.353 . S
C122 H164 0.929 . S
C123 C120 1.356 . S
C123 C125 1.358 . S
C123 H165 0.930 . S
C124 N121 1.314 . S
C124 C122 1.353 . S
C124 H166 0.930 . S
C125 N121 1.279 . S
C125 C123 1.358 . S
C125 H167 0.930 . S
C126 C127 1.348 . S
C126 C128 1.356 . S
C126 O151 1.325 . S
C127 C126 1.348 . S
C127 C129 1.353 . S
C127 H168 0.929 . S
C128 C126 1.356 . S
C128 C130 1.358 . S
C128 H169 0.930 . S
C129 C127 1.353 . S
C129 N131 1.314 . S
C129 H170 0.930 . S
C130 C128 1.358 . S
C130 N131 1.279 . S
C130 H171 0.930 . S
N131 C129 1.314 . S
N131 C130 1.279 . S
C132 C134 1.353 . S
C132 N135 1.314 . S
C132 H138 0.930 . S
C133 N135 1.279 . S
C133 C136 1.358 . S
C133 H139 0.930 . S
C134 C132 1.353 . S
C134 C137 1.348 . S
C134 H172 0.929 . S
N135 Li90 1.990 . S
N135 C132 1.314 . S
N135 C133 1.279 . S
C136 C133 1.358 . S
C136 C137 1.356 . S
C136 H173 0.930 . S
C137 C134 1.348 . S
C137 C136 1.356 . S
H138 C132 0.930 . S
H139 C133 0.930 . S
C140 N141 1.314 . S
C140 C142 1.353 . S
C140 H146 0.917 1_455 S
N141 Li91 1.990 . S
N141 C140 1.314 . S
N141 C144 1.279 . S
C142 C140 1.353 . S
C142 C145 1.348 . S
C142 H174 0.929 1_455 S
C143 C144 1.358 . S
C143 C145 1.356 . S
C143 H175 0.930 . S
C144 N141 1.279 . S
C144 C143 1.358 . S
C144 H147 0.930 . S
C145 C142 1.348 . S
C145 C143 1.356 . S
H146 C140 0.917 1_655 S
H147 C144 0.930 . S
O148 Li88 1.956 . S
O148 Li89 1.970 . S
O148 Li90 1.961 . S
O148 C92 1.325 . S
O149 Li88 1.970 . S
O149 Li89 1.956 . S
O149 Li91 1.961 . S
O149 C98 1.325 1_455 S
O150 Li88 1.961 . S
O150 Li90 1.956 . S
O150 Li91 1.970 . S
O150 C120 1.325 . S
O151 Li89 1.961 . S
O151 Li90 1.970 . S
O151 Li91 1.956 . S
O151 C126 1.325 . S
H152 C94 0.929 . S
H153 C95 0.930 . S
H154 C96 0.930 . S
H155 C97 0.930 . S
H156 C99 0.930 . S
H157 C101 0.929 . S
H158 C102 0.930 1_455 S
H159 C103 0.930 . S
H160 C106 0.930 . S
H161 C109 0.929 . S
H162 C114 0.929 . S
H163 C115 0.930 1_655 S
H164 C122 0.929 . S
H165 C123 0.930 . S
H166 C124 0.930 . S
H167 C125 0.930 . S
H168 C127 0.929 . S
H169 C128 0.930 . S
H170 C129 0.930 . S
H171 C130 0.930 . S
H172 C134 0.929 . S
H173 C136 0.930 . S
H174 C142 0.929 1_655 S
H175 C143 0.930 . S
Li176 N193 1.990 . S
Li176 O236 1.956 . S
Li176 O237 1.970 . S
Li176 O238 1.961 . S
Li177 N201 1.990 . S
Li177 O236 1.970 . S
Li177 O237 1.956 . S
Li177 O239 1.961 . S
Li178 N223 1.990 . S
Li178 O236 1.961 . S
Li178 O238 1.956 . S
Li178 O239 1.970 . S
Li179 N229 1.990 . S
Li179 O237 1.961 . S
Li179 O238 1.970 . S
Li179 O239 1.956 . S
C180 C182 1.348 . S
C180 C183 1.356 . S
C180 O236 1.325 . S
N181 C184 1.314 . S
N181 C185 1.279 . S
C182 C180 1.348 . S
C182 C184 1.353 . S
C182 H240 0.929 . S
C183 C180 1.356 . S
C183 C185 1.358 . S
C183 H241 0.930 . S
C184 N181 1.314 . S
C184 C182 1.353 . S
C184 H242 0.930 . S
C185 N181 1.279 . S
C185 C183 1.358 . S
C185 H243 0.930 . S
C186 C189 1.348 . S
C186 C190 1.356 . S
C186 O237 1.325 . S
C187 N188 1.279 . S
C187 C190 1.358 . S
C187 H244 0.930 . S
N188 C187 1.279 . S
N188 C191 1.314 . S
C189 C186 1.348 . S
C189 C191 1.353 . S
C189 H245 0.929 . S
C190 C186 1.356 . S
C190 C187 1.358 . S
C190 H246 0.930 . S
C191 N188 1.314 . S
C191 C189 1.353 . S
C191 H247 0.930 . S
C192 N193 1.314 . S
C192 C197 1.353 . S
C192 H198 0.930 . S
N193 Li176 1.990 . S
N193 C192 1.314 . S
N193 C195 1.279 . S
C194 C195 1.358 . S
C194 C196 1.356 . S
C194 H248 0.930 . S
C195 N193 1.279 . S
C195 C194 1.358 . S
C195 H199 0.930 . S
C196 C194 1.356 . S
C196 C197 1.348 . S
C197 C192 1.353 . S
C197 C196 1.348 . S
C197 H249 0.929 . S
H198 C192 0.930 . S
H199 C195 0.930 . S
C200 N201 1.314 . S
C200 C202 1.353 . S
C200 H206 0.930 . S
N201 Li177 1.990 . S
N201 C200 1.314 . S
N201 C204 1.279 . S
C202 C200 1.353 . S
C202 C205 1.348 . S
C202 H250 0.929 . S
C203 C204 1.358 . S
C203 C205 1.356 . S
C203 H251 0.930 . S
C204 N201 1.279 . S
C204 C203 1.358 . S
C204 H207 0.930 . S
C205 C202 1.348 . S
C205 C203 1.356 . S
H206 C200 0.930 . S
H207 C204 0.930 . S
C208 C210 1.348 . S
C208 C211 1.356 . S
C208 O238 1.325 . S
N209 C212 1.314 . S
N209 C213 1.279 . S
C210 C208 1.348 . S
C210 C212 1.353 . S
C210 H252 0.929 . S
C211 C208 1.356 . S
C211 C213 1.358 . S
C211 H253 0.930 . S
C212 N209 1.314 . S
C212 C210 1.353 . S
C212 H254 0.930 . S
C213 N209 1.279 . S
C213 C211 1.358 . S
C213 H255 0.930 . S
C214 C215 1.348 . S
C214 C216 1.356 . S
C214 O239 1.325 . S
C215 C214 1.348 . S
C215 C217 1.353 . S
C215 H256 0.929 . S
C216 C214 1.356 . S
C216 C218 1.358 . S
C216 H257 0.930 . S
C217 C215 1.353 . S
C217 N219 1.314 . S
C217 H258 0.930 . S
C218 C216 1.358 . S
C218 N219 1.279 . S
C218 H259 0.930 . S
N219 C217 1.314 . S
N219 C218 1.279 . S
C220 C222 1.353 . S
C220 N223 1.314 . S
C220 H226 0.930 . S
C221 N223 1.279 . S
C221 C224 1.358 . S
C221 H227 0.930 . S
C222 C220 1.353 . S
C222 C225 1.348 . S
C222 H260 0.929 . S
N223 Li178 1.990 . S
N223 C220 1.314 . S
N223 C221 1.279 . S
C224 C221 1.358 . S
C224 C225 1.356 . S
C224 H261 0.930 . S
C225 C222 1.348 . S
C225 C224 1.356 . S
H226 C220 0.930 . S
H227 C221 0.930 . S
C228 N229 1.314 . S
C228 C230 1.353 . S
C228 H234 0.930 . S
N229 Li179 1.990 . S
N229 C228 1.314 . S
N229 C232 1.279 . S
C230 C228 1.353 . S
C230 C233 1.348 . S
C230 H262 0.929 . S
C231 C232 1.358 . S
C231 C233 1.356 . S
C231 H263 0.930 . S
C232 N229 1.279 . S
C232 C231 1.358 . S
C232 H235 0.930 . S
C233 C230 1.348 . S
C233 C231 1.356 . S
H234 C228 0.930 . S
H235 C232 0.930 . S
O236 Li176 1.956 . S
O236 Li177 1.970 . S
O236 Li178 1.961 . S
O236 C180 1.325 . S
O237 Li176 1.970 . S
O237 Li177 1.956 . S
O237 Li179 1.961 . S
O237 C186 1.325 . S
O238 Li176 1.961 . S
O238 Li178 1.956 . S
O238 Li179 1.970 . S
O238 C208 1.325 . S
O239 Li177 1.961 . S
O239 Li178 1.970 . S
O239 Li179 1.956 . S
O239 C214 1.325 . S
H240 C182 0.929 . S
H241 C183 0.930 . S
H242 C184 0.930 . S
H243 C185 0.930 . S
H244 C187 0.930 . S
H245 C189 0.929 . S
H246 C190 0.930 . S
H247 C191 0.930 . S
H248 C194 0.930 . S
H249 C197 0.929 . S
H250 C202 0.929 . S
H251 C203 0.930 . S
H252 C210 0.929 . S
H253 C211 0.930 . S
H254 C212 0.930 . S
H255 C213 0.930 . S
H256 C215 0.929 . S
H257 C216 0.930 . S
H258 C217 0.930 . S
H259 C218 0.930 . S
H260 C222 0.929 . S
H261 C224 0.930 . S
H262 C230 0.929 . S
H263 C231 0.930 . S
Li264 N281 1.990 . S
Li264 O324 1.956 . S
Li264 O325 1.970 . S
Li264 O326 1.961 . S
Li265 N289 1.990 . S
Li265 O324 1.970 . S
Li265 O325 1.956 . S
Li265 O327 1.961 . S
Li266 N311 1.990 . S
Li266 O324 1.961 . S
Li266 O326 1.956 . S
Li266 O327 1.970 . S
Li267 N317 1.990 . S
Li267 O325 1.961 . S
Li267 O326 1.970 . S
Li267 O327 1.956 . S
C268 C270 1.348 . S
C268 C271 1.356 . S
C268 O324 1.325 . S
N269 C272 1.314 . S
N269 C273 1.279 . S
C270 C268 1.348 . S
C270 C272 1.353 . S
C270 H328 0.929 . S
C271 C268 1.356 . S
C271 C273 1.358 . S
C271 H329 0.930 . S
C272 N269 1.314 . S
C272 C270 1.353 . S
C272 H330 0.930 . S
C273 N269 1.279 . S
C273 C271 1.358 . S
C273 H331 0.930 . S
C274 C277 1.348 . S
C274 C278 1.356 . S
C274 O325 1.325 . S
C275 N276 1.279 . S
C275 C278 1.358 . S
C275 H332 0.930 . S
N276 C275 1.279 . S
N276 C279 1.314 . S
C277 C274 1.348 . S
C277 C279 1.353 . S
C277 H333 0.929 . S
C278 C274 1.356 . S
C278 C275 1.358 . S
C278 H334 0.930 . S
C279 N276 1.314 . S
C279 C277 1.353 . S
C279 H335 0.930 . S
C280 N281 1.314 . S
C280 C285 1.353 . S
C280 H286 0.930 . S
N281 Li264 1.990 . S
N281 C280 1.314 . S
N281 C283 1.279 . S
C282 C283 1.358 . S
C282 C284 1.356 . S
C282 H336 0.930 . S
C283 N281 1.279 . S
C283 C282 1.358 . S
C283 H287 0.930 . S
C284 C282 1.356 . S
C284 C285 1.348 . S
C285 C280 1.353 . S
C285 C284 1.348 . S
C285 H337 0.929 . S
H286 C280 0.930 . S
H287 C283 0.930 . S
C288 N289 1.314 . S
C288 C290 1.353 . S
C288 H294 0.930 . S
N289 Li265 1.990 . S
N289 C288 1.314 . S
N289 C292 1.279 . S
C290 C288 1.353 . S
C290 C293 1.348 . S
C290 H338 0.929 . S
C291 C292 1.358 . S
C291 C293 1.356 . S
C291 H339 0.930 . S
C292 N289 1.279 . S
C292 C291 1.358 . S
C292 H295 0.930 . S
C293 C290 1.348 . S
C293 C291 1.356 . S
H294 C288 0.930 . S
H295 C292 0.930 . S
C296 C298 1.348 . S
C296 C299 1.356 . S
C296 O326 1.325 . S
N297 C300 1.314 . S
N297 C301 1.279 . S
C298 C296 1.348 . S
C298 C300 1.353 . S
C298 H340 0.929 . S
C299 C296 1.356 . S
C299 C301 1.358 . S
C299 H341 0.930 . S
C300 N297 1.314 . S
C300 C298 1.353 . S
C300 H342 0.930 . S
C301 N297 1.279 . S
C301 C299 1.358 . S
C301 H343 0.930 . S
C302 C303 1.348 . S
C302 C304 1.356 . S
C302 O327 1.325 . S
C303 C302 1.348 . S
C303 C305 1.353 . S
C303 H344 0.929 . S
C304 C302 1.356 . S
C304 C306 1.358 . S
C304 H345 0.930 . S
C305 C303 1.353 . S
C305 N307 1.314 . S
C305 H346 0.930 . S
C306 C304 1.358 . S
C306 N307 1.279 . S
C306 H347 0.930 . S
N307 C305 1.314 . S
N307 C306 1.279 . S
C308 C310 1.353 . S
C308 N311 1.314 . S
C308 H314 0.930 . S
C309 N311 1.279 . S
C309 C312 1.358 . S
C309 H315 0.930 . S
C310 C308 1.353 . S
C310 C313 1.348 . S
C310 H348 0.929 . S
N311 Li266 1.990 . S
N311 C308 1.314 . S
N311 C309 1.279 . S
C312 C309 1.358 . S
C312 C313 1.356 . S
C312 H349 0.930 . S
C313 C310 1.348 . S
C313 C312 1.356 . S
H314 C308 0.930 . S
H315 C309 0.930 . S
C316 N317 1.314 . S
C316 C318 1.353 . S
C316 H322 0.930 . S
N317 Li267 1.990 . S
N317 C316 1.314 . S
N317 C320 1.279 . S
C318 C316 1.353 . S
C318 C321 1.348 . S
C318 H350 0.929 . S
C319 C320 1.358 . S
C319 C321 1.356 . S
C319 H351 0.930 . S
C320 N317 1.279 . S
C320 C319 1.358 . S
C320 H323 0.930 . S
C321 C318 1.348 . S
C321 C319 1.356 . S
H322 C316 0.930 . S
H323 C320 0.930 . S
O324 Li264 1.956 . S
O324 Li265 1.970 . S
O324 Li266 1.961 . S
O324 C268 1.325 . S
O325 Li264 1.970 . S
O325 Li265 1.956 . S
O325 Li267 1.961 . S
O325 C274 1.325 . S
O326 Li264 1.961 . S
O326 Li266 1.956 . S
O326 Li267 1.970 . S
O326 C296 1.325 . S
O327 Li265 1.961 . S
O327 Li266 1.970 . S
O327 Li267 1.956 . S
O327 C302 1.325 . S
H328 C270 0.929 . S
H329 C271 0.930 . S
H330 C272 0.930 . S
H331 C273 0.930 . S
H332 C275 0.930 . S
H333 C277 0.929 . S
H334 C278 0.930 . S
H335 C279 0.930 . S
H336 C282 0.930 . S
H337 C285 0.929 . S
H338 C290 0.929 . S
H339 C291 0.930 . S
H340 C298 0.929 . S
H341 C299 0.930 . S
H342 C300 0.930 . S
H343 C301 0.930 . S
H344 C303 0.929 . S
H345 C304 0.930 . S
H346 C305 0.930 . S
H347 C306 0.930 . S
H348 C310 0.929 . S
H349 C312 0.930 . S
H350 C318 0.929 . S
H351 C319 0.930 . S
Li352 N369 1.990 . S
Li352 O412 1.956 . S
Li352 O413 1.970 . S
Li352 O414 1.961 1_545 S
Li353 N377 1.990 . S
Li353 O412 1.970 . S
Li353 O413 1.956 . S
Li353 O415 1.961 . S
Li354 N399 1.990 . S
Li354 O412 1.961 . S
Li354 O414 1.956 1_545 S
Li354 O415 1.970 . S
Li355 N405 1.990 . S
Li355 O413 1.961 1_565 S
Li355 O414 1.970 . S
Li355 O415 1.956 1_565 S
C356 C358 1.348 . S
C356 C359 1.356 . S
C356 O412 1.325 . S
N357 C360 1.314 . S
N357 C361 1.279 . S
C358 C356 1.348 . S
C358 C360 1.353 . S
C358 H416 0.929 . S
C359 C356 1.356 . S
C359 C361 1.358 . S
C359 H417 0.930 . S
C360 N357 1.314 . S
C360 C358 1.353 . S
C360 H418 0.930 . S
C361 N357 1.279 . S
C361 C359 1.358 . S
C361 H419 0.930 . S
C362 C365 1.348 . S
C362 C366 1.356 . S
C362 O413 1.325 . S
C363 N364 1.279 . S
C363 C366 1.358 . S
C363 H420 0.930 . S
N364 C363 1.279 . S
N364 C367 1.314 . S
C365 C362 1.348 . S
C365 C367 1.353 . S
C365 H421 0.929 . S
C366 C362 1.356 . S
C366 C363 1.358 . S
C366 H422 0.930 . S
C367 N364 1.314 . S
C367 C365 1.353 . S
C367 H423 0.930 . S
C368 N369 1.319 . S
C368 C373 1.353 1_545 S
C368 H374 0.925 1_545 S
N369 Li352 1.990 . S
N369 C368 1.319 . S
N369 C371 1.279 . S
C370 C371 1.358 . S
C370 C372 1.356 . S
C370 H424 0.930 . S
C371 N369 1.279 . S
C371 C370 1.358 . S
C371 H375 0.930 . S
C372 C370 1.356 . S
C372 C373 1.348 1_545 S
C373 C368 1.353 1_565 S
C373 C372 1.348 1_565 S
C373 H425 0.929 . S
H374 C368 0.925 1_565 S
H375 C371 0.930 . S
C376 N377 1.314 . S
C376 C378 1.353 . S
C376 H382 0.930 . S
N377 Li353 1.990 . S
N377 C376 1.314 . S
N377 C380 1.279 . S
C378 C376 1.353 . S
C378 C381 1.348 . S
C378 H426 0.929 . S
C379 C380 1.358 . S
C379 C381 1.356 . S
C379 H427 0.930 . S
C380 N377 1.279 . S
C380 C379 1.358 . S
C380 H383 0.930 . S
C381 C378 1.348 . S
C381 C379 1.356 . S
H382 C376 0.930 . S
H383 C380 0.930 . S
C384 C386 1.348 . S
C384 C387 1.356 . S
C384 O414 1.325 . S
N385 C388 1.314 . S
N385 C389 1.279 . S
C386 C384 1.348 . S
C386 C388 1.353 . S
C386 H428 0.929 . S
C387 C384 1.356 . S
C387 C389 1.358 . S
C387 H429 0.930 . S
C388 N385 1.314 . S
C388 C386 1.353 . S
C388 H430 0.930 . S
C389 N385 1.279 . S
C389 C387 1.358 . S
C389 H431 0.930 . S
C390 C391 1.348 . S
C390 C392 1.356 . S
C390 O415 1.325 . S
C391 C390 1.348 . S
C391 C393 1.353 . S
C391 H432 0.929 . S
C392 C390 1.356 . S
C392 C394 1.358 . S
C392 H433 0.930 . S
C393 C391 1.353 . S
C393 N395 1.314 . S
C393 H434 0.930 . S
C394 C392 1.358 . S
C394 N395 1.279 . S
C394 H435 0.930 . S
N395 C393 1.314 . S
N395 C394 1.279 . S
C396 C398 1.353 . S
C396 N399 1.314 . S
C396 H402 0.930 . S
C397 N399 1.279 1_565 S
C397 C400 1.358 . S
C397 H403 0.930 . S
C398 C396 1.353 . S
C398 C401 1.348 . S
C398 H436 0.929 . S
N399 Li354 1.990 . S
N399 C396 1.314 . S
N399 C397 1.279 1_545 S
C400 C397 1.358 . S
C400 C401 1.356 1_565 S
C400 H437 0.930 . S
C401 C398 1.348 . S
C401 C400 1.356 1_545 S
H402 C396 0.930 . S
H403 C397 0.930 . S
C404 N405 1.314 . S
C404 C406 1.353 . S
C404 H410 0.930 . S
N405 Li355 1.990 . S
N405 C404 1.314 . S
N405 C408 1.279 . S
C406 C404 1.353 . S
C406 C409 1.348 . S
C406 H438 0.929 . S
C407 C408 1.358 . S
C407 C409 1.356 . S
C407 H439 0.930 . S
C408 N405 1.279 . S
C408 C407 1.358 . S
C408 H411 0.930 . S
C409 C406 1.348 . S
C409 C407 1.356 . S
H410 C404 0.930 . S
H411 C408 0.930 . S
O412 Li352 1.956 . S
O412 Li353 1.970 . S
O412 Li354 1.961 . S
O412 C356 1.325 . S
O413 Li352 1.970 . S
O413 Li353 1.956 . S
O413 Li355 1.961 1_545 S
O413 C362 1.325 . S
O414 Li352 1.961 1_565 S
O414 Li354 1.956 1_565 S
O414 Li355 1.970 . S
O414 C384 1.325 . S
O415 Li353 1.961 . S
O415 Li354 1.970 . S
O415 Li355 1.956 1_545 S
O415 C390 1.325 . S
H416 C358 0.929 . S
H417 C359 0.930 . S
H418 C360 0.930 . S
H419 C361 0.930 . S
H420 C363 0.930 . S
H421 C365 0.929 . S
H422 C366 0.930 . S
H423 C367 0.930 . S
H424 C370 0.930 . S
H425 C373 0.929 . S
H426 C378 0.929 . S
H427 C379 0.930 . S
H428 C386 0.929 . S
H429 C387 0.930 . S
H430 C388 0.930 . S
H431 C389 0.930 . S
H432 C391 0.929 . S
H433 C392 0.930 . S
H434 C393 0.930 . S
H435 C394 0.930 . S
H436 C398 0.929 . S
H437 C400 0.930 . S
H438 C406 0.929 . S
H439 C407 0.930 . S
Li440 N457 1.990 . S
Li440 O500 1.956 . S
Li440 O501 1.970 . S
Li440 O502 1.961 . S
Li441 N465 1.990 . S
Li441 O500 1.970 . S
Li441 O501 1.956 . S
Li441 O503 1.961 . S
Li442 N487 1.990 . S
Li442 O500 1.961 . S
Li442 O502 1.956 . S
Li442 O503 1.970 . S
Li443 N493 1.990 . S
Li443 O501 1.961 . S
Li443 O502 1.970 . S
Li443 O503 1.956 . S
C444 C446 1.348 . S
C444 C447 1.356 . S
C444 O500 1.325 . S
N445 C448 1.314 . S
N445 C449 1.279 . S
C446 C444 1.348 . S
C446 C448 1.353 . S
C446 H504 0.929 . S
C447 C444 1.356 . S
C447 C449 1.358 . S
C447 H505 0.930 . S
C448 N445 1.314 . S
C448 C446 1.353 . S
C448 H506 0.930 . S
C449 N445 1.279 . S
C449 C447 1.358 . S
C449 H507 0.930 . S
C450 C453 1.348 . S
C450 C454 1.356 . S
C450 O501 1.325 . S
C451 N452 1.279 . S
C451 C454 1.358 . S
C451 H508 0.930 . S
N452 C451 1.279 . S
N452 C455 1.314 . S
C453 C450 1.348 . S
C453 C455 1.353 . S
C453 H509 0.929 . S
C454 C450 1.356 . S
C454 C451 1.358 . S
C454 H510 0.930 . S
C455 N452 1.314 . S
C455 C453 1.353 . S
C455 H511 0.930 . S
C456 N457 1.314 . S
C456 C461 1.353 . S
C456 H462 0.930 . S
N457 Li440 1.990 . S
N457 C456 1.314 . S
N457 C459 1.279 . S
C458 C459 1.358 . S
C458 C460 1.356 . S
C458 H512 0.930 . S
C459 N457 1.279 . S
C459 C458 1.358 . S
C459 H463 0.930 . S
C460 C458 1.356 . S
C460 C461 1.348 . S
C461 C456 1.353 . S
C461 C460 1.348 . S
C461 H513 0.929 . S
H462 C456 0.930 . S
H463 C459 0.930 . S
C464 N465 1.314 . S
C464 C466 1.353 . S
C464 H470 0.930 . S
N465 Li441 1.990 . S
N465 C464 1.314 . S
N465 C468 1.279 . S
C466 C464 1.353 . S
C466 C469 1.348 . S
C466 H514 0.929 . S
C467 C468 1.358 . S
C467 C469 1.356 . S
C467 H515 0.930 . S
C468 N465 1.279 . S
C468 C467 1.358 . S
C468 H471 0.930 . S
C469 C466 1.348 . S
C469 C467 1.356 . S
H470 C464 0.930 . S
H471 C468 0.930 . S
C472 C474 1.348 . S
C472 C475 1.356 . S
C472 O502 1.325 . S
N473 C476 1.314 . S
N473 C477 1.279 . S
C474 C472 1.348 . S
C474 C476 1.353 . S
C474 H516 0.929 . S
C475 C472 1.356 . S
C475 C477 1.358 . S
C475 H517 0.930 . S
C476 N473 1.314 . S
C476 C474 1.353 . S
C476 H518 0.930 . S
C477 N473 1.279 . S
C477 C475 1.358 . S
C477 H519 0.930 . S
C478 C479 1.348 . S
C478 C480 1.356 . S
C478 O503 1.325 . S
C479 C478 1.348 . S
C479 C481 1.353 . S
C479 H520 0.929 . S
C480 C478 1.356 . S
C480 C482 1.358 . S
C480 H521 0.930 . S
C481 C479 1.353 . S
C481 N483 1.314 . S
C481 H522 0.930 . S
C482 C480 1.358 . S
C482 N483 1.279 . S
C482 H523 0.930 . S
N483 C481 1.314 . S
N483 C482 1.279 . S
C484 C486 1.353 . S
C484 N487 1.314 . S
C484 H490 0.930 . S
C485 N487 1.279 . S
C485 C488 1.358 . S
C485 H491 0.930 . S
C486 C484 1.353 . S
C486 C489 1.348 . S
C486 H524 0.929 . S
N487 Li442 1.990 . S
N487 C484 1.314 . S
N487 C485 1.279 . S
C488 C485 1.358 . S
C488 C489 1.356 . S
C488 H525 0.930 . S
C489 C486 1.348 . S
C489 C488 1.356 . S
H490 C484 0.930 . S
H491 C485 0.930 . S
C492 N493 1.314 . S
C492 C494 1.353 . S
C492 H498 0.930 . S
N493 Li443 1.990 . S
N493 C492 1.314 . S
N493 C496 1.279 . S
C494 C492 1.353 . S
C494 C497 1.348 . S
C494 H526 0.929 . S
C495 C496 1.358 . S
C495 C497 1.356 . S
C495 H527 0.930 . S
C496 N493 1.279 . S
C496 C495 1.358 . S
C496 H499 0.930 . S
C497 C494 1.348 . S
C497 C495 1.356 . S
H498 C492 0.930 . S
H499 C496 0.930 . S
O500 Li440 1.956 . S
O500 Li441 1.970 . S
O500 Li442 1.961 . S
O500 C444 1.325 . S
O501 Li440 1.970 . S
O501 Li441 1.956 . S
O501 Li443 1.961 . S
O501 C450 1.325 . S
O502 Li440 1.961 . S
O502 Li442 1.956 . S
O502 Li443 1.970 . S
O502 C472 1.325 . S
O503 Li441 1.961 . S
O503 Li442 1.970 . S
O503 Li443 1.956 . S
O503 C478 1.325 . S
H504 C446 0.929 . S
H505 C447 0.930 . S
H506 C448 0.930 . S
H507 C449 0.930 . S
H508 C451 0.930 . S
H509 C453 0.929 . S
H510 C454 0.930 . S
H511 C455 0.930 . S
H512 C458 0.930 . S
H513 C461 0.929 . S
H514 C466 0.929 . S
H515 C467 0.930 . S
H516 C474 0.929 . S
H517 C475 0.930 . S
H518 C476 0.930 . S
H519 C477 0.930 . S
H520 C479 0.929 . S
H521 C480 0.930 . S
H522 C481 0.930 . S
H523 C482 0.930 . S
H524 C486 0.929 . S
H525 C488 0.930 . S
H526 C494 0.929 . S
H527 C495 0.930 . S
Li528 N545 1.990 . S
Li528 O588 1.956 1_565 S
Li528 O589 1.970 . S
Li528 O590 1.961 1_565 S
Li529 N553 1.990 . S
Li529 O588 1.970 . S
Li529 O589 1.956 1_545 S
Li529 O591 1.961 . S
Li530 N575 1.990 . S
Li530 O588 1.961 . S
Li530 O590 1.956 . S
Li530 O591 1.970 . S
Li531 N581 1.990 . S
Li531 O589 1.961 1_545 S
Li531 O590 1.970 . S
Li531 O591 1.956 . S
C532 C534 1.348 . S
C532 C535 1.356 . S
C532 O588 1.325 . S
N533 C536 1.314 . S
N533 C537 1.279 . S
C534 C532 1.348 . S
C534 C536 1.353 . S
C534 H592 0.929 1_545 S
C535 C532 1.356 . S
C535 C537 1.358 . S
C535 H593 0.930 . S
C536 N533 1.314 . S
C536 C534 1.353 . S
C536 H594 0.926 1_545 S
C537 N533 1.279 . S
C537 C535 1.358 . S
C537 H595 0.930 . S
C538 C541 1.348 . S
C538 C542 1.356 . S
C538 O589 1.325 . S
C539 N540 1.279 . S
C539 C542 1.358 . S
C539 H596 0.930 . S
N540 C539 1.279 . S
N540 C543 1.314 . S
C541 C538 1.348 . S
C541 C543 1.353 . S
C541 H597 0.929 . S
C542 C538 1.356 . S
C542 C539 1.358 . S
C542 H598 0.930 . S
C543 N540 1.314 . S
C543 C541 1.353 . S
C543 H599 0.930 . S
C544 N545 1.314 . S
C544 C549 1.353 . S
C544 H550 0.930 . S
N545 Li528 1.990 . S
N545 C544 1.314 . S
N545 C547 1.279 . S
C546 C547 1.358 . S
C546 C548 1.356 . S
C546 H600 0.930 . S
C547 N545 1.279 . S
C547 C546 1.358 . S
C547 H551 0.930 . S
C548 C546 1.356 . S
C548 C549 1.348 . S
C549 C544 1.353 . S
C549 C548 1.348 . S
C549 H601 0.929 . S
H550 C544 0.930 . S
H551 C547 0.930 . S
C552 N553 1.314 . S
C552 C554 1.353 . S
C552 H558 0.930 . S
N553 Li529 1.990 . S
N553 C552 1.314 . S
N553 C556 1.279 1_545 S
C554 C552 1.353 . S
C554 C557 1.348 . S
C554 H602 0.929 . S
C555 C556 1.358 . S
C555 C557 1.356 1_565 S
C555 H603 0.930 . S
C556 N553 1.279 1_565 S
C556 C555 1.358 . S
C556 H559 0.930 . S
C557 C554 1.348 . S
C557 C555 1.356 1_545 S
H558 C552 0.930 . S
H559 C556 0.930 . S
C560 C562 1.348 . S
C560 C563 1.356 . S
C560 O590 1.325 . S
N561 C564 1.314 . S
N561 C565 1.279 . S
C562 C560 1.348 . S
C562 C564 1.353 . S
C562 H604 0.929 . S
C563 C560 1.356 . S
C563 C565 1.358 . S
C563 H605 0.930 . S
C564 N561 1.314 . S
C564 C562 1.353 . S
C564 H606 0.930 . S
C565 N561 1.279 . S
C565 C563 1.358 . S
C565 H607 0.930 . S
C566 C567 1.348 . S
C566 C568 1.356 . S
C566 O591 1.325 . S
C567 C566 1.348 . S
C567 C569 1.353 . S
C567 H608 0.929 . S
C568 C566 1.356 . S
C568 C570 1.358 . S
C568 H609 0.930 . S
C569 C567 1.353 . S
C569 N571 1.314 . S
C569 H610 0.930 . S
C570 C568 1.358 . S
C570 N571 1.279 . S
C570 H611 0.930 . S
N571 C569 1.314 . S
N571 C570 1.279 . S
C572 C574 1.353 . S
C572 N575 1.314 . S
C572 H578 0.930 . S
C573 N575 1.279 . S
C573 C576 1.358 . S
C573 H579 0.930 . S
C574 C572 1.353 . S
C574 C577 1.348 . S
C574 H612 0.929 . S
N575 Li530 1.990 . S
N575 C572 1.314 . S
N575 C573 1.279 . S
C576 C573 1.358 . S
C576 C577 1.356 . S
C576 H613 0.930 . S
C577 C574 1.348 . S
C577 C576 1.356 . S
H578 C572 0.930 . S
H579 C573 0.930 . S
C580 N581 1.314 1_565 S
C580 C582 1.353 . S
C580 H586 0.930 . S
N581 Li531 1.990 . S
N581 C580 1.314 1_545 S
N581 C584 1.279 . S
C582 C580 1.353 . S
C582 C585 1.348 1_565 S
C582 H614 0.929 . S
C583 C584 1.358 . S
C583 C585 1.356 . S
C583 H615 0.930 . S
C584 N581 1.279 . S
C584 C583 1.358 . S
C584 H587 0.930 . S
C585 C582 1.348 1_545 S
C585 C583 1.356 . S
H586 C580 0.930 . S
H587 C584 0.930 . S
O588 Li528 1.956 1_545 S
O588 Li529 1.970 . S
O588 Li530 1.961 . S
O588 C532 1.325 . S
O589 Li528 1.970 . S
O589 Li529 1.956 1_565 S
O589 Li531 1.961 1_565 S
O589 C538 1.325 . S
O590 Li528 1.961 1_545 S
O590 Li530 1.956 . S
O590 Li531 1.970 . S
O590 C560 1.325 . S
O591 Li529 1.961 . S
O591 Li530 1.970 . S
O591 Li531 1.956 . S
O591 C566 1.325 . S
H592 C534 0.929 1_565 S
H593 C535 0.930 . S
H594 C536 0.926 1_565 S
H595 C537 0.930 . S
H596 C539 0.930 . S
H597 C541 0.929 . S
H598 C542 0.930 . S
H599 C543 0.930 . S
H600 C546 0.930 . S
H601 C549 0.929 . S
H602 C554 0.929 . S
H603 C555 0.930 . S
H604 C562 0.929 . S
H605 C563 0.930 . S
H606 C564 0.930 . S
H607 C565 0.930 . S
H608 C567 0.929 . S
H609 C568 0.930 . S
H610 C569 0.930 . S
H611 C570 0.930 . S
H612 C574 0.929 . S
H613 C576 0.930 . S
H614 C582 0.929 . S
H615 C583 0.930 . S
Li616 N633 1.990 . S
Li616 O676 1.956 . S
Li616 O677 1.970 . S
Li616 O678 1.961 . S
Li617 N641 1.990 . S
Li617 O676 1.970 . S
Li617 O677 1.956 . S
Li617 O679 1.961 . S
Li618 N663 1.990 1_554 S
Li618 O676 1.961 . S
Li618 O678 1.956 . S
Li618 O679 1.970 . S
Li619 N669 1.990 . S
Li619 O677 1.961 . S
Li619 O678 1.970 . S
Li619 O679 1.956 . S
C620 C622 1.348 . S
C620 C623 1.356 . S
C620 O676 1.325 . S
N621 C624 1.314 . S
N621 C625 1.279 . S
C622 C620 1.348 . S
C622 C624 1.353 . S
C622 H680 0.929 . S
C623 C620 1.356 . S
C623 C625 1.358 . S
C623 H681 0.930 . S
C624 N621 1.314 . S
C624 C622 1.353 . S
C624 H682 0.930 . S
C625 N621 1.279 . S
C625 C623 1.358 . S
C625 H683 0.930 . S
C626 C629 1.348 . S
C626 C630 1.356 . S
C626 O677 1.325 . S
C627 N628 1.279 . S
C627 C630 1.358 . S
C627 H684 0.930 . S
N628 C627 1.279 . S
N628 C631 1.314 . S
C629 C626 1.348 . S
C629 C631 1.353 . S
C629 H685 0.929 . S
C630 C626 1.356 . S
C630 C627 1.358 . S
C630 H686 0.930 . S
C631 N628 1.314 . S
C631 C629 1.353 . S
C631 H687 0.930 . S
C632 N633 1.314 . S
C632 C637 1.353 . S
C632 H638 0.930 . S
N633 Li616 1.990 . S
N633 C632 1.314 . S
N633 C635 1.279 . S
C634 C635 1.358 . S
C634 C636 1.356 . S
C634 H688 0.930 . S
C635 N633 1.279 . S
C635 C634 1.358 . S
C635 H639 0.930 . S
C636 C634 1.356 . S
C636 C637 1.348 . S
C637 C632 1.353 . S
C637 C636 1.348 . S
C637 H689 0.929 . S
H638 C632 0.930 . S
H639 C635 0.930 . S
C640 N641 1.314 . S
C640 C642 1.353 . S
C640 H646 0.930 1_554 S
N641 Li617 1.990 . S
N641 C640 1.314 . S
N641 C644 1.279 . S
C642 C640 1.353 . S
C642 C645 1.348 . S
C642 H690 0.929 1_554 S
C643 C644 1.358 . S
C643 C645 1.356 . S
C643 H691 0.930 . S
C644 N641 1.279 . S
C644 C643 1.358 . S
C644 H647 0.930 . S
C645 C642 1.348 . S
C645 C643 1.356 . S
H646 C640 0.930 1_556 S
H647 C644 0.930 . S
C648 C650 1.348 . S
C648 C651 1.356 . S
C648 O678 1.325 . S
N649 C652 1.314 . S
N649 C653 1.279 . S
C650 C648 1.348 . S
C650 C652 1.353 . S
C650 H692 0.929 . S
C651 C648 1.356 . S
C651 C653 1.358 . S
C651 H693 0.930 . S
C652 N649 1.314 . S
C652 C650 1.353 . S
C652 H694 0.930 . S
C653 N649 1.279 . S
C653 C651 1.358 . S
C653 H695 0.930 . S
C654 C655 1.348 . S
C654 C656 1.356 . S
C654 O679 1.325 1_556 S
C655 C654 1.348 . S
C655 C657 1.353 . S
C655 H696 0.929 . S
C656 C654 1.356 . S
C656 C658 1.358 . S
C656 H697 0.930 . S
C657 C655 1.353 . S
C657 N659 1.314 . S
C657 H698 0.930 . S
C658 C656 1.358 . S
C658 N659 1.279 . S
C658 H699 0.930 . S
N659 C657 1.314 . S
N659 C658 1.279 . S
C660 C662 1.353 . S
C660 N663 1.314 . S
C660 H666 0.930 . S
C661 N663 1.279 . S
C661 C664 1.358 . S
C661 H667 0.930 . S
C662 C660 1.353 . S
C662 C665 1.348 . S
C662 H700 0.929 . S
N663 Li618 1.990 1_556 S
N663 C660 1.314 . S
N663 C661 1.279 . S
C664 C661 1.358 . S
C664 C665 1.356 . S
C664 H701 0.930 . S
C665 C662 1.348 . S
C665 C664 1.356 . S
H666 C660 0.930 . S
H667 C661 0.930 . S
C668 N669 1.314 . S
C668 C670 1.353 . S
C668 H674 0.930 . S
N669 Li619 1.990 . S
N669 C668 1.314 . S
N669 C672 1.279 . S
C670 C668 1.353 . S
C670 C673 1.348 . S
C670 H702 0.929 . S
C671 C672 1.358 . S
C671 C673 1.356 . S
C671 H703 0.930 1_554 S
C672 N669 1.279 . S
C672 C671 1.358 . S
C672 H675 0.930 1_554 S
C673 C670 1.348 . S
C673 C671 1.356 . S
H674 C668 0.930 . S
H675 C672 0.930 1_556 S
O676 Li616 1.956 . S
O676 Li617 1.970 . S
O676 Li618 1.961 . S
O676 C620 1.325 . S
O677 Li616 1.970 . S
O677 Li617 1.956 . S
O677 Li619 1.961 . S
O677 C626 1.325 . S
O678 Li616 1.961 . S
O678 Li618 1.956 . S
O678 Li619 1.970 . S
O678 C648 1.325 . S
O679 Li617 1.961 . S
O679 Li618 1.970 . S
O679 Li619 1.956 . S
O679 C654 1.325 1_554 S
H680 C622 0.929 . S
H681 C623 0.930 . S
H682 C624 0.930 . S
H683 C625 0.930 . S
H684 C627 0.930 . S
H685 C629 0.929 . S
H686 C630 0.930 . S
H687 C631 0.930 . S
H688 C634 0.930 . S
H689 C637 0.929 . S
H690 C642 0.929 1_556 S
H691 C643 0.930 . S
H692 C650 0.929 . S
H693 C651 0.930 . S
H694 C652 0.930 . S
H695 C653 0.930 . S
H696 C655 0.929 . S
H697 C656 0.930 . S
H698 C657 0.930 . S
H699 C658 0.930 . S
H700 C662 0.929 . S
H701 C664 0.930 . S
H702 C670 0.929 . S
H703 C671 0.930 1_556 S
Li704 N721 1.990 . S
Li704 O764 1.956 . S
Li704 O765 1.970 . S
Li704 O766 1.961 . S
Li705 N729 1.990 . S
Li705 O764 1.970 . S
Li705 O765 1.956 . S
Li705 O767 1.961 . S
Li706 N751 1.990 . S
Li706 O764 1.961 . S
Li706 O766 1.956 . S
Li706 O767 1.970 . S
Li707 N757 1.990 . S
Li707 O765 1.961 . S
Li707 O766 1.970 . S
Li707 O767 1.956 . S
C708 C710 1.348 . S
C708 C711 1.356 . S
C708 O764 1.325 . S
N709 C712 1.314 . S
N709 C713 1.279 . S
C710 C708 1.348 . S
C710 C712 1.353 . S
C710 H768 0.929 . S
C711 C708 1.356 . S
C711 C713 1.358 . S
C711 H769 0.930 . S
C712 N709 1.314 . S
C712 C710 1.353 . S
C712 H770 0.930 . S
C713 N709 1.279 . S
C713 C711 1.358 . S
C713 H771 0.930 . S
C714 C717 1.348 . S
C714 C718 1.356 . S
C714 O765 1.325 . S
C715 N716 1.279 . S
C715 C718 1.358 . S
C715 H772 0.930 . S
N716 C715 1.279 . S
N716 C719 1.314 . S
C717 C714 1.348 . S
C717 C719 1.353 . S
C717 H773 0.929 . S
C718 C714 1.356 . S
C718 C715 1.358 . S
C718 H774 0.930 . S
C719 N716 1.314 . S
C719 C717 1.353 . S
C719 H775 0.930 . S
C720 N721 1.314 . S
C720 C725 1.353 . S
C720 H726 0.930 . S
N721 Li704 1.990 . S
N721 C720 1.314 . S
N721 C723 1.279 . S
C722 C723 1.358 . S
C722 C724 1.356 . S
C722 H776 0.930 . S
C723 N721 1.279 . S
C723 C722 1.358 . S
C723 H727 0.930 . S
C724 C722 1.356 . S
C724 C725 1.348 . S
C725 C720 1.353 . S
C725 C724 1.348 . S
C725 H777 0.929 . S
H726 C720 0.930 . S
H727 C723 0.930 . S
C728 N729 1.314 . S
C728 C730 1.353 . S
C728 H734 0.930 . S
N729 Li705 1.990 . S
N729 C728 1.314 . S
N729 C732 1.279 . S
C730 C728 1.353 . S
C730 C733 1.348 . S
C730 H778 0.929 . S
C731 C732 1.358 . S
C731 C733 1.356 . S
C731 H779 0.930 . S
C732 N729 1.279 . S
C732 C731 1.358 . S
C732 H735 0.930 . S
C733 C730 1.348 . S
C733 C731 1.356 . S
H734 C728 0.930 . S
H735 C732 0.930 . S
C736 C738 1.348 1_554 S
C736 C739 1.356 . S
C736 O766 1.325 . S
N737 C740 1.314 . S
N737 C741 1.279 . S
C738 C736 1.348 1_556 S
C738 C740 1.353 . S
C738 H780 0.929 . S
C739 C736 1.356 . S
C739 C741 1.358 1_554 S
C739 H781 0.930 . S
C740 N737 1.314 . S
C740 C738 1.353 . S
C740 H782 0.930 . S
C741 N737 1.279 . S
C741 C739 1.358 1_556 S
C741 H783 0.930 . S
C742 C743 1.348 . S
C742 C744 1.356 . S
C742 O767 1.325 . S
C743 C742 1.348 . S
C743 C745 1.353 . S
C743 H784 0.929 . S
C744 C742 1.356 . S
C744 C746 1.358 . S
C744 H785 0.930 . S
C745 C743 1.353 . S
C745 N747 1.314 . S
C745 H786 0.930 . S
C746 C744 1.358 . S
C746 N747 1.279 . S
C746 H787 0.930 . S
N747 C745 1.314 . S
N747 C746 1.279 . S
C748 C750 1.353 . S
C748 N751 1.314 . S
C748 H754 0.930 . S
C749 N751 1.279 . S
C749 C752 1.358 . S
C749 H755 0.930 . S
C750 C748 1.353 . S
C750 C753 1.348 . S
C750 H788 0.929 . S
N751 Li706 1.990 . S
N751 C748 1.314 . S
N751 C749 1.279 . S
C752 C749 1.358 . S
C752 C753 1.356 . S
C752 H789 0.930 . S
C753 C750 1.348 . S
C753 C752 1.356 . S
H754 C748 0.930 . S
H755 C749 0.930 . S
C756 N757 1.314 1_556 S
C756 C758 1.353 . S
C756 H762 0.930 . S
N757 Li707 1.990 . S
N757 C756 1.314 1_554 S
N757 C760 1.279 1_554 S
C758 C756 1.353 . S
C758 C761 1.348 . S
C758 H790 0.929 . S
C759 C760 1.358 . S
C759 C761 1.356 . S
C759 H791 0.930 . S
C760 N757 1.279 1_556 S
C760 C759 1.358 . S
C760 H763 0.930 1_556 S
C761 C758 1.348 . S
C761 C759 1.356 . S
H762 C756 0.930 . S
H763 C760 0.930 1_554 S
O764 Li704 1.956 . S
O764 Li705 1.970 . S
O764 Li706 1.961 . S
O764 C708 1.325 . S
O765 Li704 1.970 . S
O765 Li705 1.956 . S
O765 Li707 1.961 . S
O765 C714 1.325 . S
O766 Li704 1.961 . S
O766 Li706 1.956 . S
O766 Li707 1.970 . S
O766 C736 1.325 . S
O767 Li705 1.961 . S
O767 Li706 1.970 . S
O767 Li707 1.956 . S
O767 C742 1.325 . S
H768 C710 0.929 . S
H769 C711 0.930 . S
H770 C712 0.930 . S
H771 C713 0.930 . S
H772 C715 0.930 . S
H773 C717 0.929 . S
H774 C718 0.930 . S
H775 C719 0.930 . S
H776 C722 0.930 . S
H777 C725 0.929 . S
H778 C730 0.929 . S
H779 C731 0.930 . S
H780 C738 0.929 . S
H781 C739 0.930 . S
H782 C740 0.930 . S
H783 C741 0.930 . S
H784 C743 0.929 . S
H785 C744 0.930 . S
H786 C745 0.930 . S
H787 C746 0.930 . S
H788 C750 0.929 . S
H789 C752 0.930 . S
H790 C758 0.929 . S
H791 C759 0.930 . S
Li792 N809 1.990 . S
Li792 O852 1.956 . S
Li792 O853 1.970 . S
Li792 O854 1.961 . S
Li793 N817 1.990 . S
Li793 O852 1.970 . S
Li793 O853 1.956 . S
Li793 O855 1.961 . S
Li794 N839 1.990 . S
Li794 O852 1.961 . S
Li794 O854 1.956 . S
Li794 O855 1.970 . S
Li795 N845 1.990 . S
Li795 O853 1.961 . S
Li795 O854 1.970 . S
Li795 O855 1.956 . S
C796 C798 1.348 . S
C796 C799 1.356 . S
C796 O852 1.325 . S
N797 C800 1.314 . S
N797 C801 1.279 . S
C798 C796 1.348 . S
C798 C800 1.353 . S
C798 H856 0.929 . S
C799 C796 1.356 . S
C799 C801 1.358 . S
C799 H857 0.930 . S
C800 N797 1.314 . S
C800 C798 1.353 . S
C800 H858 0.930 . S
C801 N797 1.279 . S
C801 C799 1.358 . S
C801 H859 0.930 . S
C802 C805 1.348 . S
C802 C806 1.356 . S
C802 O853 1.325 . S
C803 N804 1.279 . S
C803 C806 1.358 . S
C803 H860 0.930 . S
N804 C803 1.279 . S
N804 C807 1.314 . S
C805 C802 1.348 . S
C805 C807 1.353 . S
C805 H861 0.929 . S
C806 C802 1.356 . S
C806 C803 1.358 . S
C806 H862 0.930 . S
C807 N804 1.314 . S
C807 C805 1.353 . S
C807 H863 0.930 . S
C808 N809 1.314 . S
C808 C813 1.353 . S
C808 H814 0.930 . S
N809 Li792 1.990 . S
N809 C808 1.314 . S
N809 C811 1.279 . S
C810 C811 1.358 . S
C810 C812 1.356 . S
C810 H864 0.930 . S
C811 N809 1.279 . S
C811 C810 1.358 . S
C811 H815 0.930 . S
C812 C810 1.356 . S
C812 C813 1.348 . S
C813 C808 1.353 . S
C813 C812 1.348 . S
C813 H865 0.929 . S
H814 C808 0.930 . S
H815 C811 0.930 . S
C816 N817 1.314 . S
C816 C818 1.353 . S
C816 H822 0.930 . S
N817 Li793 1.990 . S
N817 C816 1.314 . S
N817 C820 1.279 . S
C818 C816 1.353 . S
C818 C821 1.348 . S
C818 H866 0.929 . S
C819 C820 1.358 . S
C819 C821 1.356 . S
C819 H867 0.930 . S
C820 N817 1.279 . S
C820 C819 1.358 . S
C820 H823 0.930 . S
C821 C818 1.348 . S
C821 C819 1.356 . S
H822 C816 0.930 . S
H823 C820 0.930 . S
C824 C826 1.348 . S
C824 C827 1.356 . S
C824 O854 1.325 . S
N825 C828 1.314 . S
N825 C829 1.279 . S
C826 C824 1.348 . S
C826 C828 1.353 . S
C826 H868 0.929 . S
C827 C824 1.356 . S
C827 C829 1.358 . S
C827 H869 0.930 . S
C828 N825 1.314 . S
C828 C826 1.353 . S
C828 H870 0.930 . S
C829 N825 1.279 . S
C829 C827 1.358 . S
C829 H871 0.930 . S
C830 C831 1.348 . S
C830 C832 1.356 . S
C830 O855 1.325 . S
C831 C830 1.348 . S
C831 C833 1.353 . S
C831 H872 0.929 . S
C832 C830 1.356 . S
C832 C834 1.358 . S
C832 H873 0.930 . S
C833 C831 1.353 . S
C833 N835 1.314 . S
C833 H874 0.930 . S
C834 C832 1.358 . S
C834 N835 1.279 . S
C834 H875 0.930 . S
N835 C833 1.314 . S
N835 C834 1.279 . S
C836 C838 1.353 . S
C836 N839 1.314 . S
C836 H842 0.930 . S
C837 N839 1.279 . S
C837 C840 1.358 . S
C837 H843 0.930 . S
C838 C836 1.353 . S
C838 C841 1.348 . S
C838 H876 0.929 . S
N839 Li794 1.990 . S
N839 C836 1.314 . S
N839 C837 1.279 . S
C840 C837 1.358 . S
C840 C841 1.356 . S
C840 H877 0.930 . S
C841 C838 1.348 . S
C841 C840 1.356 . S
H842 C836 0.930 . S
H843 C837 0.930 . S
C844 N845 1.314 . S
C844 C846 1.353 . S
C844 H850 0.930 . S
N845 Li795 1.990 . S
N845 C844 1.314 . S
N845 C848 1.279 . S
C846 C844 1.353 . S
C846 C849 1.348 . S
C846 H878 0.929 . S
C847 C848 1.358 . S
C847 C849 1.356 . S
C847 H879 0.930 . S
C848 N845 1.279 . S
C848 C847 1.358 . S
C848 H851 0.930 . S
C849 C846 1.348 . S
C849 C847 1.356 . S
H850 C844 0.930 . S
H851 C848 0.930 . S
O852 Li792 1.956 . S
O852 Li793 1.970 . S
O852 Li794 1.961 . S
O852 C796 1.325 . S
O853 Li792 1.970 . S
O853 Li793 1.956 . S
O853 Li795 1.961 . S
O853 C802 1.325 . S
O854 Li792 1.961 . S
O854 Li794 1.956 . S
O854 Li795 1.970 . S
O854 C824 1.325 . S
O855 Li793 1.961 . S
O855 Li794 1.970 . S
O855 Li795 1.956 . S
O855 C830 1.325 . S
H856 C798 0.929 . S
H857 C799 0.930 . S
H858 C800 0.930 . S
H859 C801 0.930 . S
H860 C803 0.930 . S
H861 C805 0.929 . S
H862 C806 0.930 . S
H863 C807 0.930 . S
H864 C810 0.930 . S
H865 C813 0.929 . S
H866 C818 0.929 . S
H867 C819 0.930 . S
H868 C826 0.929 . S
H869 C827 0.930 . S
H870 C828 0.930 . S
H871 C829 0.930 . S
H872 C831 0.929 . S
H873 C832 0.930 . S
H874 C833 0.930 . S
H875 C834 0.930 . S
H876 C838 0.929 . S
H877 C840 0.930 . S
H878 C846 0.929 . S
H879 C847 0.930 . S
Li880 N897 1.990 . S
Li880 O940 1.956 . S
Li880 O941 1.970 . S
Li880 O942 1.961 . S
Li881 N905 1.990 . S
Li881 O940 1.970 . S
Li881 O941 1.956 . S
Li881 O943 1.961 . S
Li882 N927 1.990 . S
Li882 O940 1.961 . S
Li882 O942 1.956 . S
Li882 O943 1.970 . S
Li883 N933 1.990 . S
Li883 O941 1.961 . S
Li883 O942 1.970 . S
Li883 O943 1.956 . S
C884 C886 1.348 . S
C884 C887 1.356 . S
C884 O940 1.325 . S
N885 C888 1.314 . S
N885 C889 1.279 . S
C886 C884 1.348 . S
C886 C888 1.353 . S
C886 H944 0.929 . S
C887 C884 1.356 . S
C887 C889 1.358 . S
C887 H945 0.930 . S
C888 N885 1.314 . S
C888 C886 1.353 . S
C888 H946 0.930 . S
C889 N885 1.279 . S
C889 C887 1.358 . S
C889 H947 0.930 . S
C890 C893 1.348 . S
C890 C894 1.356 . S
C890 O941 1.325 . S
C891 N892 1.279 . S
C891 C894 1.358 . S
C891 H948 0.930 . S
N892 C891 1.279 . S
N892 C895 1.314 . S
C893 C890 1.348 . S
C893 C895 1.353 . S
C893 H949 0.929 . S
C894 C890 1.356 . S
C894 C891 1.358 . S
C894 H950 0.930 . S
C895 N892 1.314 . S
C895 C893 1.353 . S
C895 H951 0.930 . S
C896 N897 1.314 . S
C896 C901 1.353 . S
C896 H902 0.930 . S
N897 Li880 1.990 . S
N897 C896 1.314 . S
N897 C899 1.279 . S
C898 C899 1.358 . S
C898 C900 1.356 . S
C898 H952 0.930 . S
C899 N897 1.279 . S
C899 C898 1.358 . S
C899 H903 0.930 . S
C900 C898 1.356 . S
C900 C901 1.348 . S
C901 C896 1.353 . S
C901 C900 1.348 . S
C901 H953 0.929 . S
H902 C896 0.930 . S
H903 C899 0.930 . S
C904 N905 1.314 . S
C904 C906 1.353 . S
C904 H910 0.930 . S
N905 Li881 1.990 . S
N905 C904 1.314 . S
N905 C908 1.279 . S
C906 C904 1.353 . S
C906 C909 1.348 . S
C906 H954 0.929 . S
C907 C908 1.358 . S
C907 C909 1.356 . S
C907 H955 0.930 . S
C908 N905 1.279 . S
C908 C907 1.358 . S
C908 H911 0.930 . S
C909 C906 1.348 . S
C909 C907 1.356 . S
H910 C904 0.930 . S
H911 C908 0.930 . S
C912 C914 1.348 . S
C912 C915 1.356 . S
C912 O942 1.325 . S
N913 C916 1.314 . S
N913 C917 1.279 . S
C914 C912 1.348 . S
C914 C916 1.353 . S
C914 H956 0.929 . S
C915 C912 1.356 . S
C915 C917 1.358 . S
C915 H957 0.930 . S
C916 N913 1.314 . S
C916 C914 1.353 . S
C916 H958 0.930 . S
C917 N913 1.279 . S
C917 C915 1.358 . S
C917 H959 0.930 . S
C918 C919 1.348 . S
C918 C920 1.356 . S
C918 O943 1.325 . S
C919 C918 1.348 . S
C919 C921 1.353 . S
C919 H960 0.929 . S
C920 C918 1.356 . S
C920 C922 1.358 . S
C920 H961 0.930 . S
C921 C919 1.353 . S
C921 N923 1.314 . S
C921 H962 0.930 . S
C922 C920 1.358 . S
C922 N923 1.279 . S
C922 H963 0.930 . S
N923 C921 1.314 . S
N923 C922 1.279 . S
C924 C926 1.353 . S
C924 N927 1.314 . S
C924 H930 0.930 . S
C925 N927 1.279 . S
C925 C928 1.358 . S
C925 H931 0.930 . S
C926 C924 1.353 . S
C926 C929 1.348 . S
C926 H964 0.929 . S
N927 Li882 1.990 . S
N927 C924 1.314 . S
N927 C925 1.279 . S
C928 C925 1.358 . S
C928 C929 1.356 . S
C928 H965 0.930 . S
C929 C926 1.348 . S
C929 C928 1.356 . S
H930 C924 0.930 . S
H931 C925 0.930 . S
C932 N933 1.314 . S
C932 C934 1.353 . S
C932 H938 0.930 . S
N933 Li883 1.990 . S
N933 C932 1.314 . S
N933 C936 1.279 . S
C934 C932 1.353 . S
C934 C937 1.348 . S
C934 H966 0.929 . S
C935 C936 1.358 . S
C935 C937 1.356 . S
C935 H967 0.930 . S
C936 N933 1.279 . S
C936 C935 1.358 . S
C936 H939 0.930 . S
C937 C934 1.348 . S
C937 C935 1.356 . S
H938 C932 0.930 . S
H939 C936 0.930 . S
O940 Li880 1.956 . S
O940 Li881 1.970 . S
O940 Li882 1.961 . S
O940 C884 1.325 . S
O941 Li880 1.970 . S
O941 Li881 1.956 . S
O941 Li883 1.961 . S
O941 C890 1.325 . S
O942 Li880 1.961 . S
O942 Li882 1.956 . S
O942 Li883 1.970 . S
O942 C912 1.325 . S
O943 Li881 1.961 . S
O943 Li882 1.970 . S
O943 Li883 1.956 . S
O943 C918 1.325 . S
H944 C886 0.929 . S
H945 C887 0.930 . S
H946 C888 0.930 . S
H947 C889 0.930 . S
H948 C891 0.930 . S
H949 C893 0.929 . S
H950 C894 0.930 . S
H951 C895 0.930 . S
H952 C898 0.930 . S
H953 C901 0.929 . S
H954 C906 0.929 . S
H955 C907 0.930 . S
H956 C914 0.929 . S
H957 C915 0.930 . S
H958 C916 0.930 . S
H959 C917 0.930 . S
H960 C919 0.929 . S
H961 C920 0.930 . S
H962 C921 0.930 . S
H963 C922 0.930 . S
H964 C926 0.929 . S
H965 C928 0.930 . S
H966 C934 0.929 . S
H967 C935 0.930 . S
Li968 N985 1.990 . S
Li968 O1028 1.956 . S
Li968 O1029 1.970 . S
Li968 O1030 1.961 . S
Li969 N993 1.990 . S
Li969 O1028 1.970 . S
Li969 O1029 1.956 . S
Li969 O1031 1.961 . S
Li970 N1015 1.990 . S
Li970 O1028 1.961 . S
Li970 O1030 1.956 . S
Li970 O1031 1.970 . S
Li971 N1021 1.990 . S
Li971 O1029 1.961 . S
Li971 O1030 1.970 . S
Li971 O1031 1.956 . S
C972 C974 1.348 . S
C972 C975 1.356 . S
C972 O1028 1.325 . S
N973 C976 1.314 . S
N973 C977 1.279 . S
C974 C972 1.348 . S
C974 C976 1.353 . S
C974 H1032 0.929 . S
C975 C972 1.356 . S
C975 C977 1.358 . S
C975 H1033 0.930 . S
C976 N973 1.314 . S
C976 C974 1.353 . S
C976 H1034 0.930 . S
C977 N973 1.279 . S
C977 C975 1.358 . S
C977 H1035 0.930 . S
C978 C981 1.348 . S
C978 C982 1.356 . S
C978 O1029 1.325 . S
C979 N980 1.279 . S
C979 C982 1.358 . S
C979 H1036 0.930 . S
N980 C979 1.279 . S
N980 C983 1.314 . S
C981 C978 1.348 . S
C981 C983 1.353 . S
C981 H1037 0.929 . S
C982 C978 1.356 . S
C982 C979 1.358 . S
C982 H1038 0.930 . S
C983 N980 1.314 . S
C983 C981 1.353 . S
C983 H1039 0.930 . S
C984 N985 1.314 . S
C984 C989 1.353 . S
C984 H990 0.930 . S
N985 Li968 1.990 . S
N985 C984 1.314 . S
N985 C987 1.279 . S
C986 C987 1.358 . S
C986 C988 1.356 . S
C986 H1040 0.930 . S
C987 N985 1.279 . S
C987 C986 1.358 . S
C987 H991 0.930 . S
C988 C986 1.356 . S
C988 C989 1.348 . S
C989 C984 1.353 . S
C989 C988 1.348 . S
C989 H1041 0.929 . S
H990 C984 0.930 . S
H991 C987 0.930 . S
C992 N993 1.314 . S
C992 C994 1.353 . S
C992 H998 0.930 . S
N993 Li969 1.990 . S
N993 C992 1.314 . S
N993 C996 1.279 . S
C994 C992 1.353 . S
C994 C997 1.348 . S
C994 H1042 0.929 . S
C995 C996 1.358 . S
C995 C997 1.356 . S
C995 H1043 0.930 . S
C996 N993 1.279 . S
C996 C995 1.358 . S
C996 H999 0.930 . S
C997 C994 1.348 . S
C997 C995 1.356 . S
H998 C992 0.930 . S
H999 C996 0.930 . S
C1000 C1002 1.348 . S
C1000 C1003 1.356 . S
C1000 O1030 1.325 . S
N1001 C1004 1.314 . S
N1001 C1005 1.279 . S
C1002 C1000 1.348 . S
C1002 C1004 1.353 . S
C1002 H1044 0.929 . S
C1003 C1000 1.356 . S
C1003 C1005 1.358 . S
C1003 H1045 0.930 . S
C1004 N1001 1.314 . S
C1004 C1002 1.353 . S
C1004 H1046 0.930 . S
C1005 N1001 1.279 . S
C1005 C1003 1.358 . S
C1005 H1047 0.930 . S
C1006 C1007 1.348 . S
C1006 C1008 1.356 . S
C1006 O1031 1.325 . S
C1007 C1006 1.348 . S
C1007 C1009 1.353 . S
C1007 H1048 0.929 . S
C1008 C1006 1.356 . S
C1008 C1010 1.358 . S
C1008 H1049 0.930 . S
C1009 C1007 1.353 . S
C1009 N1011 1.314 . S
C1009 H1050 0.930 . S
C1010 C1008 1.358 . S
C1010 N1011 1.279 . S
C1010 H1051 0.930 . S
N1011 C1009 1.314 . S
N1011 C1010 1.279 . S
C1012 C1014 1.353 . S
C1012 N1015 1.314 . S
C1012 H1018 0.930 . S
C1013 N1015 1.279 . S
C1013 C1016 1.358 . S
C1013 H1019 0.930 . S
C1014 C1012 1.353 . S
C1014 C1017 1.348 . S
C1014 H1052 0.929 . S
N1015 Li970 1.990 . S
N1015 C1012 1.314 . S
N1015 C1013 1.279 . S
C1016 C1013 1.358 . S
C1016 C1017 1.356 . S
C1016 H1053 0.930 . S
C1017 C1014 1.348 . S
C1017 C1016 1.356 . S
H1018 C1012 0.930 . S
H1019 C1013 0.930 . S
C1020 N1021 1.314 . S
C1020 C1022 1.353 . S
C1020 H1026 0.930 . S
N1021 Li971 1.990 . S
N1021 C1020 1.314 . S
N1021 C1024 1.279 . S
C1022 C1020 1.353 . S
C1022 C1025 1.348 . S
C1022 H1054 0.929 . S
C1023 C1024 1.358 . S
C1023 C1025 1.356 . S
C1023 H1055 0.930 . S
C1024 N1021 1.279 . S
C1024 C1023 1.358 . S
C1024 H1027 0.930 . S
C1025 C1022 1.348 . S
C1025 C1023 1.356 . S
H1026 C1020 0.930 . S
H1027 C1024 0.930 . S
O1028 Li968 1.956 . S
O1028 Li969 1.970 . S
O1028 Li970 1.961 . S
O1028 C972 1.325 . S
O1029 Li968 1.970 . S
O1029 Li969 1.956 . S
O1029 Li971 1.961 . S
O1029 C978 1.325 . S
O1030 Li968 1.961 . S
O1030 Li970 1.956 . S
O1030 Li971 1.970 . S
O1030 C1000 1.325 . S
O1031 Li969 1.961 . S
O1031 Li970 1.970 . S
O1031 Li971 1.956 . S
O1031 C1006 1.325 . S
H1032 C974 0.929 . S
H1033 C975 0.930 . S
H1034 C976 0.930 . S
H1035 C977 0.930 . S
H1036 C979 0.930 . S
H1037 C981 0.929 . S
H1038 C982 0.930 . S
H1039 C983 0.930 . S
H1040 C986 0.930 . S
H1041 C989 0.929 . S
H1042 C994 0.929 . S
H1043 C995 0.930 . S
H1044 C1002 0.929 . S
H1045 C1003 0.930 . S
H1046 C1004 0.930 . S
H1047 C1005 0.930 . S
H1048 C1007 0.929 . S
H1049 C1008 0.930 . S
H1050 C1009 0.930 . S
H1051 C1010 0.930 . S
H1052 C1014 0.929 . S
H1053 C1016 0.930 . S
H1054 C1022 0.929 . S
H1055 C1023 0.930 . S
Li1056 N1073 1.990 . S
Li1056 O1116 1.948 1_655 S
Li1056 O1117 1.970 . S
Li1056 O1118 1.961 . S
Li1057 N1081 1.990 1_655 S
Li1057 O1116 1.970 1_655 S
Li1057 O1117 1.957 . S
Li1057 O1119 1.960 1_655 S
Li1058 N1103 1.990 . S
Li1058 O1116 1.969 . S
Li1058 O1118 1.956 1_455 S
Li1058 O1119 1.970 . S
Li1059 N1109 1.990 . S
Li1059 O1117 1.961 1_455 S
Li1059 O1118 1.970 1_455 S
Li1059 O1119 1.956 . S
C1060 C1062 1.357 . S
C1060 C1063 1.350 1_655 S
C1060 O1116 1.325 1_655 S
N1061 C1064 1.314 . S
N1061 C1065 1.279 1_655 S
C1062 C1060 1.357 . S
C1062 C1064 1.353 . S
C1062 H1120 0.929 . S
C1063 C1060 1.350 1_455 S
C1063 C1065 1.358 . S
C1063 H1121 0.930 . S
C1064 N1061 1.314 . S
C1064 C1062 1.353 . S
C1064 H1122 0.930 . S
C1065 N1061 1.279 1_455 S
C1065 C1063 1.358 . S
C1065 H1123 0.930 . S
C1066 C1069 1.348 . S
C1066 C1070 1.356 . S
C1066 O1117 1.325 . S
C1067 N1068 1.279 . S
C1067 C1070 1.358 . S
C1067 H1124 0.930 . S
N1068 C1067 1.279 . S
N1068 C1071 1.314 . S
C1069 C1066 1.348 . S
C1069 C1071 1.353 . S
C1069 H1125 0.929 . S
C1070 C1066 1.356 . S
C1070 C1067 1.358 . S
C1070 H1126 0.930 . S
C1071 N1068 1.314 . S
C1071 C1069 1.353 . S
C1071 H1127 0.930 . S
C1072 N1073 1.314 . S
C1072 C1077 1.353 . S
C1072 H1078 0.930 . S
N1073 Li1056 1.990 . S
N1073 C1072 1.314 . S
N1073 C1075 1.279 . S
C1074 C1075 1.358 . S
C1074 C1076 1.356 . S
C1074 H1128 0.930 . S
C1075 N1073 1.279 . S
C1075 C1074 1.358 . S
C1075 H1079 0.930 . S
C1076 C1074 1.356 . S
C1076 C1077 1.348 . S
C1077 C1072 1.353 . S
C1077 C1076 1.348 . S
C1077 H1129 0.929 . S
H1078 C1072 0.930 . S
H1079 C1075 0.930 . S
C1080 N1081 1.312 . S
C1080 C1082 1.353 . S
C1080 H1086 0.930 . S
N1081 Li1057 1.990 1_455 S
N1081 C1080 1.312 . S
N1081 C1084 1.281 1_455 S
C1082 C1080 1.353 . S
C1082 C1085 1.348 . S
C1082 H1130 0.929 . S
C1083 C1084 1.358 . S
C1083 C1085 1.356 1_655 S
C1083 H1131 0.930 . S
C1084 N1081 1.281 1_655 S
C1084 C1083 1.358 . S
C1084 H1087 0.930 . S
C1085 C1082 1.348 . S
C1085 C1083 1.356 1_455 S
H1086 C1080 0.930 . S
H1087 C1084 0.930 . S
C1088 C1090 1.337 1_655 S
C1088 C1091 1.363 . S
C1088 O1118 1.327 . S
N1089 C1092 1.316 . S
N1089 C1093 1.277 1_455 S
C1090 C1088 1.337 1_455 S
C1090 C1092 1.353 . S
C1090 H1132 0.929 . S
C1091 C1088 1.363 . S
C1091 C1093 1.358 . S
C1091 H1133 0.930 . S
C1092 N1089 1.316 . S
C1092 C1090 1.353 . S
C1092 H1134 0.930 . S
C1093 N1089 1.277 1_655 S
C1093 C1091 1.358 . S
C1093 H1135 0.930 . S
C1094 C1095 1.348 . S
C1094 C1096 1.356 . S
C1094 O1119 1.325 . S
C1095 C1094 1.348 . S
C1095 C1097 1.353 . S
C1095 H1136 0.929 . S
C1096 C1094 1.356 . S
C1096 C1098 1.358 . S
C1096 H1137 0.930 . S
C1097 C1095 1.353 . S
C1097 N1099 1.314 . S
C1097 H1138 0.930 . S
C1098 C1096 1.358 . S
C1098 N1099 1.279 . S
C1098 H1139 0.930 . S
N1099 C1097 1.314 . S
N1099 C1098 1.279 . S
C1100 C1102 1.353 . S
C1100 N1103 1.314 . S
C1100 H1106 0.930 . S
C1101 N1103 1.279 . S
C1101 C1104 1.358 . S
C1101 H1107 0.930 . S
C1102 C1100 1.353 . S
C1102 C1105 1.348 . S
C1102 H1140 0.929 . S
N1103 Li1058 1.990 . S
N1103 C1100 1.314 . S
N1103 C1101 1.279 . S
C1104 C1101 1.358 . S
C1104 C1105 1.356 . S
C1104 H1141 0.930 . S
C1105 C1102 1.348 . S
C1105 C1104 1.356 . S
H1106 C1100 0.930 . S
H1107 C1101 0.930 . S
C1108 N1109 1.314 1_655 S
C1108 C1110 1.353 . S
C1108 H1114 0.930 . S
N1109 Li1059 1.990 . S
N1109 C1108 1.314 1_455 S
N1109 C1112 1.279 . S
C1110 C1108 1.353 . S
C1110 C1113 1.348 1_655 S
C1110 H1142 0.929 . S
C1111 C1112 1.358 . S
C1111 C1113 1.356 . S
C1111 H1143 0.930 . S
C1112 N1109 1.279 . S
C1112 C1111 1.358 . S
C1112 H1115 0.930 . S
C1113 C1110 1.348 1_455 S
C1113 C1111 1.356 . S
H1114 C1108 0.930 . S
H1115 C1112 0.930 . S
O1116 Li1056 1.948 1_455 S
O1116 Li1057 1.970 1_455 S
O1116 Li1058 1.969 . S
O1116 C1060 1.325 1_455 S
O1117 Li1056 1.970 . S
O1117 Li1057 1.957 . S
O1117 Li1059 1.961 1_655 S
O1117 C1066 1.325 . S
O1118 Li1056 1.961 . S
O1118 Li1058 1.956 1_655 S
O1118 Li1059 1.970 1_655 S
O1118 C1088 1.327 . S
O1119 Li1057 1.960 1_455 S
O1119 Li1058 1.970 . S
O1119 Li1059 1.956 . S
O1119 C1094 1.325 . S
H1120 C1062 0.929 . S
H1121 C1063 0.930 . S
H1122 C1064 0.930 . S
H1123 C1065 0.930 . S
H1124 C1067 0.930 . S
H1125 C1069 0.929 . S
H1126 C1070 0.930 . S
H1127 C1071 0.930 . S
H1128 C1074 0.930 . S
H1129 C1077 0.929 . S
H1130 C1082 0.929 . S
H1131 C1083 0.930 . S
H1132 C1090 0.929 . S
H1133 C1091 0.930 . S
H1134 C1092 0.930 . S
H1135 C1093 0.930 . S
H1136 C1095 0.929 . S
H1137 C1096 0.930 . S
H1138 C1097 0.930 . S
H1139 C1098 0.930 . S
H1140 C1102 0.929 . S
H1141 C1104 0.930 . S
H1142 C1110 0.929 . S
H1143 C1111 0.930 . S
Li1144 N1161 1.990 . S
Li1144 O1204 1.956 . S
Li1144 O1205 1.970 . S
Li1144 O1206 1.961 . S
Li1145 N1169 1.990 . S
Li1145 O1204 1.970 . S
Li1145 O1205 1.956 . S
Li1145 O1207 1.961 . S
Li1146 N1191 1.990 . S
Li1146 O1204 1.961 . S
Li1146 O1206 1.956 . S
Li1146 O1207 1.970 . S
Li1147 N1197 1.990 1_455 S
Li1147 O1205 1.961 . S
Li1147 O1206 1.970 . S
Li1147 O1207 1.956 . S
C1148 C1150 1.348 . S
C1148 C1151 1.356 . S
C1148 O1204 1.325 . S
N1149 C1152 1.314 . S
N1149 C1153 1.279 . S
C1150 C1148 1.348 . S
C1150 C1152 1.353 . S
C1150 H1208 0.929 . S
C1151 C1148 1.356 . S
C1151 C1153 1.358 . S
C1151 H1209 0.930 . S
C1152 N1149 1.314 . S
C1152 C1150 1.353 . S
C1152 H1210 0.930 . S
C1153 N1149 1.279 . S
C1153 C1151 1.358 . S
C1153 H1211 0.930 . S
C1154 C1157 1.348 . S
C1154 C1158 1.356 . S
C1154 O1205 1.325 . S
C1155 N1156 1.279 . S
C1155 C1158 1.358 . S
C1155 H1212 0.930 . S
N1156 C1155 1.279 . S
N1156 C1159 1.314 . S
C1157 C1154 1.348 . S
C1157 C1159 1.353 . S
C1157 H1213 0.929 . S
C1158 C1154 1.356 . S
C1158 C1155 1.358 . S
C1158 H1214 0.930 . S
C1159 N1156 1.314 . S
C1159 C1157 1.353 . S
C1159 H1215 0.930 . S
C1160 N1161 1.314 . S
C1160 C1165 1.353 . S
C1160 H1166 0.930 1_455 S
N1161 Li1144 1.990 . S
N1161 C1160 1.314 . S
N1161 C1163 1.279 . S
C1162 C1163 1.358 . S
C1162 C1164 1.356 . S
C1162 H1216 0.930 . S
C1163 N1161 1.279 . S
C1163 C1162 1.358 . S
C1163 H1167 0.930 . S
C1164 C1162 1.356 . S
C1164 C1165 1.348 . S
C1165 C1160 1.353 . S
C1165 C1164 1.348 . S
C1165 H1217 0.929 1_455 S
H1166 C1160 0.930 1_655 S
H1167 C1163 0.930 . S
C1168 N1169 1.314 . S
C1168 C1170 1.353 . S
C1168 H1174 0.930 . S
N1169 Li1145 1.990 . S
N1169 C1168 1.314 . S
N1169 C1172 1.279 . S
C1170 C1168 1.353 . S
C1170 C1173 1.348 . S
C1170 H1218 0.929 . S
C1171 C1172 1.358 . S
C1171 C1173 1.356 . S
C1171 H1219 0.930 . S
C1172 N1169 1.279 . S
C1172 C1171 1.358 . S
C1172 H1175 0.930 . S
C1173 C1170 1.348 . S
C1173 C1171 1.356 . S
H1174 C1168 0.930 . S
H1175 C1172 0.930 . S
C1176 C1178 1.348 . S
C1176 C1179 1.356 . S
C1176 O1206 1.325 1_655 S
N1177 C1180 1.314 . S
N1177 C1181 1.279 . S
C1178 C1176 1.348 . S
C1178 C1180 1.353 . S
C1178 H1220 0.929 . S
C1179 C1176 1.356 . S
C1179 C1181 1.358 . S
C1179 H1221 0.934 . S
C1180 N1177 1.314 . S
C1180 C1178 1.353 . S
C1180 H1222 0.930 . S
C1181 N1177 1.279 . S
C1181 C1179 1.358 . S
C1181 H1223 0.930 . S
C1182 C1183 1.348 . S
C1182 C1184 1.356 . S
C1182 O1207 1.325 . S
C1183 C1182 1.348 . S
C1183 C1185 1.353 . S
C1183 H1224 0.929 . S
C1184 C1182 1.356 . S
C1184 C1186 1.358 . S
C1184 H1225 0.930 . S
C1185 C1183 1.353 . S
C1185 N1187 1.314 . S
C1185 H1226 0.930 . S
C1186 C1184 1.358 . S
C1186 N1187 1.279 . S
C1186 H1227 0.930 . S
N1187 C1185 1.314 . S
N1187 C1186 1.279 . S
C1188 C1190 1.353 . S
C1188 N1191 1.314 . S
C1188 H1194 0.930 . S
C1189 N1191 1.279 . S
C1189 C1192 1.358 . S
C1189 H1195 0.930 1_455 S
C1190 C1188 1.353 . S
C1190 C1193 1.348 . S
C1190 H1228 0.929 . S
N1191 Li1146 1.990 . S
N1191 C1188 1.314 . S
N1191 C1189 1.279 . S
C1192 C1189 1.358 . S
C1192 C1193 1.356 . S
C1192 H1229 0.930 1_455 S
C1193 C1190 1.348 . S
C1193 C1192 1.356 . S
H1194 C1188 0.930 . S
H1195 C1189 0.930 1_655 S
C1196 N1197 1.314 . S
C1196 C1198 1.353 . S
C1196 H1202 0.930 . S
N1197 Li1147 1.990 1_655 S
N1197 C1196 1.314 . S
N1197 C1200 1.279 . S
C1198 C1196 1.353 . S
C1198 C1201 1.348 . S
C1198 H1230 0.929 . S
C1199 C1200 1.358 . S
C1199 C1201 1.356 . S
C1199 H1231 0.930 . S
C1200 N1197 1.279 . S
C1200 C1199 1.358 . S
C1200 H1203 0.930 . S
C1201 C1198 1.348 . S
C1201 C1199 1.356 . S
H1202 C1196 0.930 . S
H1203 C1200 0.930 . S
O1204 Li1144 1.956 . S
O1204 Li1145 1.970 . S
O1204 Li1146 1.961 . S
O1204 C1148 1.325 . S
O1205 Li1144 1.970 . S
O1205 Li1145 1.956 . S
O1205 Li1147 1.961 . S
O1205 C1154 1.325 . S
O1206 Li1144 1.961 . S
O1206 Li1146 1.956 . S
O1206 Li1147 1.970 . S
O1206 C1176 1.325 1_455 S
O1207 Li1145 1.961 . S
O1207 Li1146 1.970 . S
O1207 Li1147 1.956 . S
O1207 C1182 1.325 . S
H1208 C1150 0.929 . S
H1209 C1151 0.930 . S
H1210 C1152 0.930 . S
H1211 C1153 0.930 . S
H1212 C1155 0.930 . S
H1213 C1157 0.929 . S
H1214 C1158 0.930 . S
H1215 C1159 0.930 . S
H1216 C1162 0.930 . S
H1217 C1165 0.929 1_655 S
H1218 C1170 0.929 . S
H1219 C1171 0.930 . S
H1220 C1178 0.929 . S
H1221 C1179 0.934 . S
H1222 C1180 0.930 . S
H1223 C1181 0.930 . S
H1224 C1183 0.929 . S
H1225 C1184 0.930 . S
H1226 C1185 0.930 . S
H1227 C1186 0.930 . S
H1228 C1190 0.929 . S
H1229 C1192 0.930 1_655 S
H1230 C1198 0.929 . S
H1231 C1199 0.930 . S
Li1232 N1249 1.990 . S
Li1232 O1292 1.956 . S
Li1232 O1293 1.970 . S
Li1232 O1294 1.961 . S
Li1233 N1257 1.990 . S
Li1233 O1292 1.970 . S
Li1233 O1293 1.956 . S
Li1233 O1295 1.961 . S
Li1234 N1279 1.990 . S
Li1234 O1292 1.961 . S
Li1234 O1294 1.956 . S
Li1234 O1295 1.970 . S
Li1235 N1285 1.990 . S
Li1235 O1293 1.961 . S
Li1235 O1294 1.970 . S
Li1235 O1295 1.956 . S
C1236 C1238 1.348 . S
C1236 C1239 1.356 . S
C1236 O1292 1.325 . S
N1237 C1240 1.314 . S
N1237 C1241 1.279 . S
C1238 C1236 1.348 . S
C1238 C1240 1.353 . S
C1238 H1296 0.929 . S
C1239 C1236 1.356 . S
C1239 C1241 1.358 . S
C1239 H1297 0.930 . S
C1240 N1237 1.314 . S
C1240 C1238 1.353 . S
C1240 H1298 0.930 . S
C1241 N1237 1.279 . S
C1241 C1239 1.358 . S
C1241 H1299 0.930 . S
C1242 C1245 1.348 . S
C1242 C1246 1.356 . S
C1242 O1293 1.325 . S
C1243 N1244 1.279 . S
C1243 C1246 1.358 . S
C1243 H1300 0.930 . S
N1244 C1243 1.279 . S
N1244 C1247 1.314 . S
C1245 C1242 1.348 . S
C1245 C1247 1.353 . S
C1245 H1301 0.929 . S
C1246 C1242 1.356 . S
C1246 C1243 1.358 . S
C1246 H1302 0.930 . S
C1247 N1244 1.314 . S
C1247 C1245 1.353 . S
C1247 H1303 0.930 . S
C1248 N1249 1.314 . S
C1248 C1253 1.353 . S
C1248 H1254 0.930 . S
N1249 Li1232 1.990 . S
N1249 C1248 1.314 . S
N1249 C1251 1.279 . S
C1250 C1251 1.358 . S
C1250 C1252 1.356 . S
C1250 H1304 0.930 . S
C1251 N1249 1.279 . S
C1251 C1250 1.358 . S
C1251 H1255 0.930 . S
C1252 C1250 1.356 . S
C1252 C1253 1.348 . S
C1253 C1248 1.353 . S
C1253 C1252 1.348 . S
C1253 H1305 0.929 . S
H1254 C1248 0.930 . S
H1255 C1251 0.930 . S
C1256 N1257 1.314 . S
C1256 C1258 1.353 . S
C1256 H1262 0.930 . S
N1257 Li1233 1.990 . S
N1257 C1256 1.314 . S
N1257 C1260 1.279 . S
C1258 C1256 1.353 . S
C1258 C1261 1.348 . S
C1258 H1306 0.929 . S
C1259 C1260 1.358 . S
C1259 C1261 1.356 . S
C1259 H1307 0.930 . S
C1260 N1257 1.279 . S
C1260 C1259 1.358 . S
C1260 H1263 0.930 . S
C1261 C1258 1.348 . S
C1261 C1259 1.356 . S
H1262 C1256 0.930 . S
H1263 C1260 0.930 . S
C1264 C1266 1.348 . S
C1264 C1267 1.356 . S
C1264 O1294 1.325 . S
N1265 C1268 1.314 . S
N1265 C1269 1.279 . S
C1266 C1264 1.348 . S
C1266 C1268 1.353 . S
C1266 H1308 0.929 . S
C1267 C1264 1.356 . S
C1267 C1269 1.358 . S
C1267 H1309 0.930 . S
C1268 N1265 1.314 . S
C1268 C1266 1.353 . S
C1268 H1310 0.930 . S
C1269 N1265 1.279 . S
C1269 C1267 1.358 . S
C1269 H1311 0.930 . S
C1270 C1271 1.348 . S
C1270 C1272 1.356 . S
C1270 O1295 1.325 . S
C1271 C1270 1.348 . S
C1271 C1273 1.353 . S
C1271 H1312 0.929 . S
C1272 C1270 1.356 . S
C1272 C1274 1.358 . S
C1272 H1313 0.930 . S
C1273 C1271 1.353 . S
C1273 N1275 1.314 . S
C1273 H1314 0.930 . S
C1274 C1272 1.358 . S
C1274 N1275 1.279 . S
C1274 H1315 0.930 . S
N1275 C1273 1.314 . S
N1275 C1274 1.279 . S
C1276 C1278 1.353 . S
C1276 N1279 1.314 . S
C1276 H1282 0.930 . S
C1277 N1279 1.279 . S
C1277 C1280 1.358 . S
C1277 H1283 0.930 . S
C1278 C1276 1.353 . S
C1278 C1281 1.348 . S
C1278 H1316 0.929 . S
N1279 Li1234 1.990 . S
N1279 C1276 1.314 . S
N1279 C1277 1.279 . S
C1280 C1277 1.358 . S
C1280 C1281 1.356 . S
C1280 H1317 0.930 . S
C1281 C1278 1.348 . S
C1281 C1280 1.356 . S
H1282 C1276 0.930 . S
H1283 C1277 0.930 . S
C1284 N1285 1.314 . S
C1284 C1286 1.353 . S
C1284 H1290 0.930 . S
N1285 Li1235 1.990 . S
N1285 C1284 1.314 . S
N1285 C1288 1.279 . S
C1286 C1284 1.353 . S
C1286 C1289 1.348 . S
C1286 H1318 0.929 . S
C1287 C1288 1.358 . S
C1287 C1289 1.356 . S
C1287 H1319 0.930 . S
C1288 N1285 1.279 . S
C1288 C1287 1.358 . S
C1288 H1291 0.930 . S
C1289 C1286 1.348 . S
C1289 C1287 1.356 . S
H1290 C1284 0.930 . S
H1291 C1288 0.930 . S
O1292 Li1232 1.956 . S
O1292 Li1233 1.970 . S
O1292 Li1234 1.961 . S
O1292 C1236 1.325 . S
O1293 Li1232 1.970 . S
O1293 Li1233 1.956 . S
O1293 Li1235 1.961 . S
O1293 C1242 1.325 . S
O1294 Li1232 1.961 . S
O1294 Li1234 1.956 . S
O1294 Li1235 1.970 . S
O1294 C1264 1.325 . S
O1295 Li1233 1.961 . S
O1295 Li1234 1.970 . S
O1295 Li1235 1.956 . S
O1295 C1270 1.325 . S
H1296 C1238 0.929 . S
H1297 C1239 0.930 . S
H1298 C1240 0.930 . S
H1299 C1241 0.930 . S
H1300 C1243 0.930 . S
H1301 C1245 0.929 . S
H1302 C1246 0.930 . S
H1303 C1247 0.930 . S
H1304 C1250 0.930 . S
H1305 C1253 0.929 . S
H1306 C1258 0.929 . S
H1307 C1259 0.930 . S
H1308 C1266 0.929 . S
H1309 C1267 0.930 . S
H1310 C1268 0.930 . S
H1311 C1269 0.930 . S
H1312 C1271 0.929 . S
H1313 C1272 0.930 . S
H1314 C1273 0.930 . S
H1315 C1274 0.930 . S
H1316 C1278 0.929 . S
H1317 C1280 0.930 . S
H1318 C1286 0.929 . S
H1319 C1287 0.930 . S
Li1320 N1337 1.990 . S
Li1320 O1380 1.956 . S
Li1320 O1381 1.970 . S
Li1320 O1382 1.961 . S
Li1321 N1345 1.990 . S
Li1321 O1380 1.970 . S
Li1321 O1381 1.956 . S
Li1321 O1383 1.961 . S
Li1322 N1367 1.990 . S
Li1322 O1380 1.961 . S
Li1322 O1382 1.956 . S
Li1322 O1383 1.970 . S
Li1323 N1373 1.990 . S
Li1323 O1381 1.961 . S
Li1323 O1382 1.970 . S
Li1323 O1383 1.956 . S
C1324 C1326 1.348 . S
C1324 C1327 1.356 . S
C1324 O1380 1.325 . S
N1325 C1328 1.314 . S
N1325 C1329 1.279 . S
C1326 C1324 1.348 . S
C1326 C1328 1.353 . S
C1326 H1384 0.929 . S
C1327 C1324 1.356 . S
C1327 C1329 1.358 . S
C1327 H1385 0.930 . S
C1328 N1325 1.314 . S
C1328 C1326 1.353 . S
C1328 H1386 0.930 . S
C1329 N1325 1.279 . S
C1329 C1327 1.358 . S
C1329 H1387 0.930 . S
C1330 C1333 1.348 . S
C1330 C1334 1.356 . S
C1330 O1381 1.325 . S
C1331 N1332 1.279 . S
C1331 C1334 1.358 . S
C1331 H1388 0.930 . S
N1332 C1331 1.279 . S
N1332 C1335 1.314 . S
C1333 C1330 1.348 . S
C1333 C1335 1.353 . S
C1333 H1389 0.929 . S
C1334 C1330 1.356 . S
C1334 C1331 1.358 . S
C1334 H1390 0.930 . S
C1335 N1332 1.314 . S
C1335 C1333 1.353 . S
C1335 H1391 0.930 . S
C1336 N1337 1.314 . S
C1336 C1341 1.353 . S
C1336 H1342 0.930 . S
N1337 Li1320 1.990 . S
N1337 C1336 1.314 . S
N1337 C1339 1.279 . S
C1338 C1339 1.358 . S
C1338 C1340 1.356 . S
C1338 H1392 0.930 . S
C1339 N1337 1.279 . S
C1339 C1338 1.358 . S
C1339 H1343 0.930 . S
C1340 C1338 1.356 . S
C1340 C1341 1.348 . S
C1341 C1336 1.353 . S
C1341 C1340 1.348 . S
C1341 H1393 0.929 . S
H1342 C1336 0.930 . S
H1343 C1339 0.930 . S
C1344 N1345 1.314 . S
C1344 C1346 1.353 . S
C1344 H1350 0.930 . S
N1345 Li1321 1.990 . S
N1345 C1344 1.314 . S
N1345 C1348 1.279 . S
C1346 C1344 1.353 . S
C1346 C1349 1.348 . S
C1346 H1394 0.929 . S
C1347 C1348 1.358 . S
C1347 C1349 1.356 . S
C1347 H1395 0.930 . S
C1348 N1345 1.279 . S
C1348 C1347 1.358 . S
C1348 H1351 0.930 . S
C1349 C1346 1.348 . S
C1349 C1347 1.356 . S
H1350 C1344 0.930 . S
H1351 C1348 0.930 . S
C1352 C1354 1.348 . S
C1352 C1355 1.356 . S
C1352 O1382 1.325 . S
N1353 C1356 1.314 . S
N1353 C1357 1.279 . S
C1354 C1352 1.348 . S
C1354 C1356 1.353 . S
C1354 H1396 0.929 . S
C1355 C1352 1.356 . S
C1355 C1357 1.358 . S
C1355 H1397 0.930 . S
C1356 N1353 1.314 . S
C1356 C1354 1.353 . S
C1356 H1398 0.930 . S
C1357 N1353 1.279 . S
C1357 C1355 1.358 . S
C1357 H1399 0.930 . S
C1358 C1359 1.348 . S
C1358 C1360 1.356 . S
C1358 O1383 1.325 . S
C1359 C1358 1.348 . S
C1359 C1361 1.353 . S
C1359 H1400 0.929 . S
C1360 C1358 1.356 . S
C1360 C1362 1.358 . S
C1360 H1401 0.930 . S
C1361 C1359 1.353 . S
C1361 N1363 1.314 . S
C1361 H1402 0.930 . S
C1362 C1360 1.358 . S
C1362 N1363 1.279 . S
C1362 H1403 0.930 . S
N1363 C1361 1.314 . S
N1363 C1362 1.279 . S
C1364 C1366 1.353 . S
C1364 N1367 1.314 . S
C1364 H1370 0.930 . S
C1365 N1367 1.279 . S
C1365 C1368 1.358 . S
C1365 H1371 0.930 . S
C1366 C1364 1.353 . S
C1366 C1369 1.348 . S
C1366 H1404 0.929 . S
N1367 Li1322 1.990 . S
N1367 C1364 1.314 . S
N1367 C1365 1.279 . S
C1368 C1365 1.358 . S
C1368 C1369 1.356 . S
C1368 H1405 0.930 . S
C1369 C1366 1.348 . S
C1369 C1368 1.356 . S
H1370 C1364 0.930 . S
H1371 C1365 0.930 . S
C1372 N1373 1.314 . S
C1372 C1374 1.353 . S
C1372 H1378 0.930 . S
N1373 Li1323 1.990 . S
N1373 C1372 1.314 . S
N1373 C1376 1.279 . S
C1374 C1372 1.353 . S
C1374 C1377 1.348 . S
C1374 H1406 0.929 . S
C1375 C1376 1.358 . S
C1375 C1377 1.356 . S
C1375 H1407 0.930 . S
C1376 N1373 1.279 . S
C1376 C1375 1.358 . S
C1376 H1379 0.930 . S
C1377 C1374 1.348 . S
C1377 C1375 1.356 . S
H1378 C1372 0.930 . S
H1379 C1376 0.930 . S
O1380 Li1320 1.956 . S
O1380 Li1321 1.970 . S
O1380 Li1322 1.961 . S
O1380 C1324 1.325 . S
O1381 Li1320 1.970 . S
O1381 Li1321 1.956 . S
O1381 Li1323 1.961 . S
O1381 C1330 1.325 . S
O1382 Li1320 1.961 . S
O1382 Li1322 1.956 . S
O1382 Li1323 1.970 . S
O1382 C1352 1.325 . S
O1383 Li1321 1.961 . S
O1383 Li1322 1.970 . S
O1383 Li1323 1.956 . S
O1383 C1358 1.325 . S
H1384 C1326 0.929 . S
H1385 C1327 0.930 . S
H1386 C1328 0.930 . S
H1387 C1329 0.930 . S
H1388 C1331 0.930 . S
H1389 C1333 0.929 . S
H1390 C1334 0.930 . S
H1391 C1335 0.930 . S
H1392 C1338 0.930 . S
H1393 C1341 0.929 . S
H1394 C1346 0.929 . S
H1395 C1347 0.930 . S
H1396 C1354 0.929 . S
H1397 C1355 0.930 . S
H1398 C1356 0.930 . S
H1399 C1357 0.930 . S
H1400 C1359 0.929 . S
H1401 C1360 0.930 . S
H1402 C1361 0.930 . S
H1403 C1362 0.930 . S
H1404 C1366 0.929 . S
H1405 C1368 0.930 . S
H1406 C1374 0.929 . S
H1407 C1375 0.930 . S
Li1408 N1425 1.990 . S
Li1408 O1468 1.956 1_545 S
Li1408 O1469 1.970 . S
Li1408 O1470 1.961 . S
Li1409 N1433 1.990 . S
Li1409 O1468 1.970 . S
Li1409 O1469 1.956 1_565 S
Li1409 O1471 1.961 1_565 S
Li1410 N1455 1.990 . S
Li1410 O1468 1.961 1_545 S
Li1410 O1470 1.956 . S
Li1410 O1471 1.970 . S
Li1411 N1461 1.990 . S
Li1411 O1469 1.961 . S
Li1411 O1470 1.970 . S
Li1411 O1471 1.956 . S
C1412 C1414 1.348 . S
C1412 C1415 1.356 . S
C1412 O1468 1.325 . S
N1413 C1416 1.314 . S
N1413 C1417 1.279 . S
C1414 C1412 1.348 . S
C1414 C1416 1.353 . S
C1414 H1472 0.929 . S
C1415 C1412 1.356 . S
C1415 C1417 1.358 . S
C1415 H1473 0.930 . S
C1416 N1413 1.314 . S
C1416 C1414 1.353 . S
C1416 H1474 0.930 . S
C1417 N1413 1.279 . S
C1417 C1415 1.358 . S
C1417 H1475 0.930 . S
C1418 C1421 1.348 1_545 S
C1418 C1422 1.356 . S
C1418 O1469 1.325 . S
C1419 N1420 1.279 . S
C1419 C1422 1.358 . S
C1419 H1476 0.930 . S
N1420 C1419 1.279 . S
N1420 C1423 1.314 1_545 S
C1421 C1418 1.348 1_565 S
C1421 C1423 1.353 . S
C1421 H1477 0.929 . S
C1422 C1418 1.356 . S
C1422 C1419 1.358 . S
C1422 H1478 0.930 . S
C1423 N1420 1.314 1_565 S
C1423 C1421 1.353 . S
C1423 H1479 0.930 . S
C1424 N1425 1.314 . S
C1424 C1429 1.353 . S
C1424 H1430 0.930 . S
N1425 Li1408 1.990 . S
N1425 C1424 1.314 . S
N1425 C1427 1.279 1_545 S
C1426 C1427 1.358 . S
C1426 C1428 1.356 1_565 S
C1426 H1480 0.930 . S
C1427 N1425 1.279 1_565 S
C1427 C1426 1.358 . S
C1427 H1431 0.930 . S
C1428 C1426 1.356 1_545 S
C1428 C1429 1.348 . S
C1429 C1424 1.353 . S
C1429 C1428 1.348 . S
C1429 H1481 0.929 . S
H1430 C1424 0.930 . S
H1431 C1427 0.930 . S
C1432 N1433 1.314 . S
C1432 C1434 1.353 . S
C1432 H1438 0.930 . S
N1433 Li1409 1.990 . S
N1433 C1432 1.314 . S
N1433 C1436 1.279 . S
C1434 C1432 1.353 . S
C1434 C1437 1.348 . S
C1434 H1482 0.929 . S
C1435 C1436 1.358 . S
C1435 C1437 1.356 . S
C1435 H1483 0.930 . S
C1436 N1433 1.279 . S
C1436 C1435 1.358 . S
C1436 H1439 0.930 . S
C1437 C1434 1.348 . S
C1437 C1435 1.356 . S
H1438 C1432 0.930 . S
H1439 C1436 0.930 . S
C1440 C1442 1.348 . S
C1440 C1443 1.356 . S
C1440 O1470 1.325 . S
N1441 C1444 1.314 . S
N1441 C1445 1.279 . S
C1442 C1440 1.348 . S
C1442 C1444 1.353 . S
C1442 H1484 0.929 . S
C1443 C1440 1.356 . S
C1443 C1445 1.358 . S
C1443 H1485 0.930 . S
C1444 N1441 1.314 . S
C1444 C1442 1.353 . S
C1444 H1486 0.930 . S
C1445 N1441 1.279 . S
C1445 C1443 1.358 . S
C1445 H1487 0.930 . S
C1446 C1447 1.348 . S
C1446 C1448 1.356 . S
C1446 O1471 1.325 . S
C1447 C1446 1.348 . S
C1447 C1449 1.353 . S
C1447 H1488 0.929 . S
C1448 C1446 1.356 . S
C1448 C1450 1.358 . S
C1448 H1489 0.930 1_545 S
C1449 C1447 1.353 . S
C1449 N1451 1.314 . S
C1449 H1490 0.930 . S
C1450 C1448 1.358 . S
C1450 N1451 1.279 . S
C1450 H1491 0.930 1_545 S
N1451 C1449 1.314 . S
N1451 C1450 1.279 . S
C1452 C1454 1.353 . S
C1452 N1455 1.314 1_565 S
C1452 H1458 0.930 . S
C1453 N1455 1.279 . S
C1453 C1456 1.358 . S
C1453 H1459 0.930 . S
C1454 C1452 1.353 . S
C1454 C1457 1.348 1_565 S
C1454 H1492 0.929 . S
N1455 Li1410 1.990 . S
N1455 C1452 1.314 1_545 S
N1455 C1453 1.279 . S
C1456 C1453 1.358 . S
C1456 C1457 1.356 . S
C1456 H1493 0.930 . S
C1457 C1454 1.348 1_545 S
C1457 C1456 1.356 . S
H1458 C1452 0.930 . S
H1459 C1453 0.930 . S
C1460 N1461 1.314 . S
C1460 C1462 1.353 . S
C1460 H1466 0.930 . S
N1461 Li1411 1.990 . S
N1461 C1460 1.314 . S
N1461 C1464 1.279 . S
C1462 C1460 1.353 . S
C1462 C1465 1.348 . S
C1462 H1494 0.929 . S
C1463 C1464 1.358 . S
C1463 C1465 1.356 . S
C1463 H1495 0.930 . S
C1464 N1461 1.279 . S
C1464 C1463 1.358 . S
C1464 H1467 0.930 . S
C1465 C1462 1.348 . S
C1465 C1463 1.356 . S
H1466 C1460 0.930 . S
H1467 C1464 0.930 . S
O1468 Li1408 1.956 1_565 S
O1468 Li1409 1.970 . S
O1468 Li1410 1.961 1_565 S
O1468 C1412 1.325 . S
O1469 Li1408 1.970 . S
O1469 Li1409 1.956 1_545 S
O1469 Li1411 1.961 . S
O1469 C1418 1.325 . S
O1470 Li1408 1.961 . S
O1470 Li1410 1.956 . S
O1470 Li1411 1.970 . S
O1470 C1440 1.325 . S
O1471 Li1409 1.961 1_545 S
O1471 Li1410 1.970 . S
O1471 Li1411 1.956 . S
O1471 C1446 1.325 . S
H1472 C1414 0.929 . S
H1473 C1415 0.930 . S
H1474 C1416 0.930 . S
H1475 C1417 0.930 . S
H1476 C1419 0.930 . S
H1477 C1421 0.929 . S
H1478 C1422 0.930 . S
H1479 C1423 0.930 . S
H1480 C1426 0.930 . S
H1481 C1429 0.929 . S
H1482 C1434 0.929 . S
H1483 C1435 0.930 . S
H1484 C1442 0.929 . S
H1485 C1443 0.930 . S
H1486 C1444 0.930 . S
H1487 C1445 0.930 . S
H1488 C1447 0.929 . S
H1489 C1448 0.930 1_565 S
H1490 C1449 0.930 . S
H1491 C1450 0.930 1_565 S
H1492 C1454 0.929 . S
H1493 C1456 0.930 . S
H1494 C1462 0.929 . S
H1495 C1463 0.930 . S
Li1496 N1513 1.990 . S
Li1496 O1556 1.956 . S
Li1496 O1557 1.970 . S
Li1496 O1558 1.961 . S
Li1497 N1521 1.990 . S
Li1497 O1556 1.970 . S
Li1497 O1557 1.956 . S
Li1497 O1559 1.961 . S
Li1498 N1543 1.990 . S
Li1498 O1556 1.961 . S
Li1498 O1558 1.956 . S
Li1498 O1559 1.970 . S
Li1499 N1549 1.990 . S
Li1499 O1557 1.961 . S
Li1499 O1558 1.970 . S
Li1499 O1559 1.956 . S
C1500 C1502 1.348 . S
C1500 C1503 1.356 . S
C1500 O1556 1.325 . S
N1501 C1504 1.314 . S
N1501 C1505 1.279 . S
C1502 C1500 1.348 . S
C1502 C1504 1.353 . S
C1502 H1560 0.929 . S
C1503 C1500 1.356 . S
C1503 C1505 1.358 . S
C1503 H1561 0.930 . S
C1504 N1501 1.314 . S
C1504 C1502 1.353 . S
C1504 H1562 0.930 . S
C1505 N1501 1.279 . S
C1505 C1503 1.358 . S
C1505 H1563 0.930 . S
C1506 C1509 1.348 . S
C1506 C1510 1.356 . S
C1506 O1557 1.325 . S
C1507 N1508 1.279 . S
C1507 C1510 1.358 . S
C1507 H1564 0.930 . S
N1508 C1507 1.279 . S
N1508 C1511 1.314 . S
C1509 C1506 1.348 . S
C1509 C1511 1.353 . S
C1509 H1565 0.929 . S
C1510 C1506 1.356 . S
C1510 C1507 1.358 . S
C1510 H1566 0.930 . S
C1511 N1508 1.314 . S
C1511 C1509 1.353 . S
C1511 H1567 0.930 . S
C1512 N1513 1.314 . S
C1512 C1517 1.353 . S
C1512 H1518 0.930 . S
N1513 Li1496 1.990 . S
N1513 C1512 1.314 . S
N1513 C1515 1.279 . S
C1514 C1515 1.358 . S
C1514 C1516 1.356 . S
C1514 H1568 0.930 . S
C1515 N1513 1.279 . S
C1515 C1514 1.358 . S
C1515 H1519 0.930 . S
C1516 C1514 1.356 . S
C1516 C1517 1.348 . S
C1517 C1512 1.353 . S
C1517 C1516 1.348 . S
C1517 H1569 0.929 . S
H1518 C1512 0.930 . S
H1519 C1515 0.930 . S
C1520 N1521 1.314 . S
C1520 C1522 1.353 . S
C1520 H1526 0.930 . S
N1521 Li1497 1.990 . S
N1521 C1520 1.314 . S
N1521 C1524 1.279 . S
C1522 C1520 1.353 . S
C1522 C1525 1.348 . S
C1522 H1570 0.929 . S
C1523 C1524 1.358 . S
C1523 C1525 1.356 . S
C1523 H1571 0.930 . S
C1524 N1521 1.279 . S
C1524 C1523 1.358 . S
C1524 H1527 0.930 . S
C1525 C1522 1.348 . S
C1525 C1523 1.356 . S
H1526 C1520 0.930 . S
H1527 C1524 0.930 . S
C1528 C1530 1.348 . S
C1528 C1531 1.356 . S
C1528 O1558 1.325 . S
N1529 C1532 1.314 . S
N1529 C1533 1.279 . S
C1530 C1528 1.348 . S
C1530 C1532 1.353 . S
C1530 H1572 0.929 . S
C1531 C1528 1.356 . S
C1531 C1533 1.358 . S
C1531 H1573 0.930 . S
C1532 N1529 1.314 . S
C1532 C1530 1.353 . S
C1532 H1574 0.930 . S
C1533 N1529 1.279 . S
C1533 C1531 1.358 . S
C1533 H1575 0.930 . S
C1534 C1535 1.348 . S
C1534 C1536 1.356 . S
C1534 O1559 1.325 . S
C1535 C1534 1.348 . S
C1535 C1537 1.353 . S
C1535 H1576 0.929 . S
C1536 C1534 1.356 . S
C1536 C1538 1.358 . S
C1536 H1577 0.930 . S
C1537 C1535 1.353 . S
C1537 N1539 1.314 . S
C1537 H1578 0.930 . S
C1538 C1536 1.358 . S
C1538 N1539 1.279 . S
C1538 H1579 0.930 . S
N1539 C1537 1.314 . S
N1539 C1538 1.279 . S
C1540 C1542 1.353 . S
C1540 N1543 1.314 . S
C1540 H1546 0.930 . S
C1541 N1543 1.279 . S
C1541 C1544 1.358 . S
C1541 H1547 0.930 . S
C1542 C1540 1.353 . S
C1542 C1545 1.348 . S
C1542 H1580 0.929 . S
N1543 Li1498 1.990 . S
N1543 C1540 1.314 . S
N1543 C1541 1.279 . S
C1544 C1541 1.358 . S
C1544 C1545 1.356 . S
C1544 H1581 0.930 . S
C1545 C1542 1.348 . S
C1545 C1544 1.356 . S
H1546 C1540 0.930 . S
H1547 C1541 0.930 . S
C1548 N1549 1.314 . S
C1548 C1550 1.353 . S
C1548 H1554 0.930 . S
N1549 Li1499 1.990 . S
N1549 C1548 1.314 . S
N1549 C1552 1.279 . S
C1550 C1548 1.353 . S
C1550 C1553 1.348 . S
C1550 H1582 0.929 . S
C1551 C1552 1.358 . S
C1551 C1553 1.356 . S
C1551 H1583 0.930 . S
C1552 N1549 1.279 . S
C1552 C1551 1.358 . S
C1552 H1555 0.930 . S
C1553 C1550 1.348 . S
C1553 C1551 1.356 . S
H1554 C1548 0.930 . S
H1555 C1552 0.930 . S
O1556 Li1496 1.956 . S
O1556 Li1497 1.970 . S
O1556 Li1498 1.961 . S
O1556 C1500 1.325 . S
O1557 Li1496 1.970 . S
O1557 Li1497 1.956 . S
O1557 Li1499 1.961 . S
O1557 C1506 1.325 . S
O1558 Li1496 1.961 . S
O1558 Li1498 1.956 . S
O1558 Li1499 1.970 . S
O1558 C1528 1.325 . S
O1559 Li1497 1.961 . S
O1559 Li1498 1.970 . S
O1559 Li1499 1.956 . S
O1559 C1534 1.325 . S
H1560 C1502 0.929 . S
H1561 C1503 0.930 . S
H1562 C1504 0.930 . S
H1563 C1505 0.930 . S
H1564 C1507 0.930 . S
H1565 C1509 0.929 . S
H1566 C1510 0.930 . S
H1567 C1511 0.930 . S
H1568 C1514 0.930 . S
H1569 C1517 0.929 . S
H1570 C1522 0.929 . S
H1571 C1523 0.930 . S
H1572 C1530 0.929 . S
H1573 C1531 0.930 . S
H1574 C1532 0.930 . S
H1575 C1533 0.930 . S
H1576 C1535 0.929 . S
H1577 C1536 0.930 . S
H1578 C1537 0.930 . S
H1579 C1538 0.930 . S
H1580 C1542 0.929 . S
H1581 C1544 0.930 . S
H1582 C1550 0.929 . S
H1583 C1551 0.930 . S
Li1584 N1601 1.990 . S
Li1584 O1644 1.956 . S
Li1584 O1645 1.970 . S
Li1584 O1646 1.961 1_545 S
Li1585 N1609 1.990 . S
Li1585 O1644 1.970 . S
Li1585 O1645 1.956 . S
Li1585 O1647 1.961 . S
Li1586 N1631 1.990 . S
Li1586 O1644 1.961 . S
Li1586 O1646 1.956 1_545 S
Li1586 O1647 1.970 . S
Li1587 N1637 1.990 . S
Li1587 O1645 1.961 1_565 S
Li1587 O1646 1.970 . S
Li1587 O1647 1.956 1_565 S
C1588 C1590 1.348 . S
C1588 C1591 1.356 . S
C1588 O1644 1.325 . S
N1589 C1592 1.314 . S
N1589 C1593 1.279 . S
C1590 C1588 1.348 . S
C1590 C1592 1.353 . S
C1590 H1648 0.929 . S
C1591 C1588 1.356 . S
C1591 C1593 1.358 . S
C1591 H1649 0.930 . S
C1592 N1589 1.314 . S
C1592 C1590 1.353 . S
C1592 H1650 0.930 . S
C1593 N1589 1.279 . S
C1593 C1591 1.358 . S
C1593 H1651 0.930 . S
C1594 C1597 1.348 . S
C1594 C1598 1.356 . S
C1594 O1645 1.325 . S
C1595 N1596 1.279 . S
C1595 C1598 1.358 . S
C1595 H1652 0.930 . S
N1596 C1595 1.279 . S
N1596 C1599 1.314 . S
C1597 C1594 1.348 . S
C1597 C1599 1.353 . S
C1597 H1653 0.929 . S
C1598 C1594 1.356 . S
C1598 C1595 1.358 . S
C1598 H1654 0.930 . S
C1599 N1596 1.314 . S
C1599 C1597 1.353 . S
C1599 H1655 0.930 . S
C1600 N1601 1.314 1_565 S
C1600 C1605 1.353 . S
C1600 H1606 0.930 . S
N1601 Li1584 1.990 . S
N1601 C1600 1.314 1_545 S
N1601 C1603 1.279 . S
C1602 C1603 1.358 . S
C1602 C1604 1.356 . S
C1602 H1656 0.930 . S
C1603 N1601 1.279 . S
C1603 C1602 1.358 . S
C1603 H1607 0.930 . S
C1604 C1602 1.356 . S
C1604 C1605 1.348 1_545 S
C1605 C1600 1.353 . S
C1605 C1604 1.348 1_565 S
C1605 H1657 0.929 . S
H1606 C1600 0.930 . S
H1607 C1603 0.930 . S
C1608 N1609 1.314 . S
C1608 C1610 1.353 . S
C1608 H1614 0.930 . S
N1609 Li1585 1.990 . S
N1609 C1608 1.314 . S
N1609 C1612 1.279 . S
C1610 C1608 1.353 . S
C1610 C1613 1.348 . S
C1610 H1658 0.929 . S
C1611 C1612 1.358 . S
C1611 C1613 1.356 . S
C1611 H1659 0.930 . S
C1612 N1609 1.279 . S
C1612 C1611 1.358 . S
C1612 H1615 0.930 . S
C1613 C1610 1.348 . S
C1613 C1611 1.356 . S
H1614 C1608 0.930 . S
H1615 C1612 0.930 . S
C1616 C1618 1.348 . S
C1616 C1619 1.356 . S
C1616 O1646 1.325 . S
N1617 C1620 1.314 . S
N1617 C1621 1.279 . S
C1618 C1616 1.348 . S
C1618 C1620 1.353 . S
C1618 H1660 0.929 . S
C1619 C1616 1.356 . S
C1619 C1621 1.358 . S
C1619 H1661 0.930 . S
C1620 N1617 1.314 . S
C1620 C1618 1.353 . S
C1620 H1662 0.930 . S
C1621 N1617 1.279 . S
C1621 C1619 1.358 . S
C1621 H1663 0.930 . S
C1622 C1623 1.348 . S
C1622 C1624 1.356 . S
C1622 O1647 1.325 . S
C1623 C1622 1.348 . S
C1623 C1625 1.353 . S
C1623 H1664 0.929 . S
C1624 C1622 1.356 . S
C1624 C1626 1.358 . S
C1624 H1665 0.930 . S
C1625 C1623 1.353 . S
C1625 N1627 1.314 . S
C1625 H1666 0.930 . S
C1626 C1624 1.358 . S
C1626 N1627 1.279 . S
C1626 H1667 0.930 . S
N1627 C1625 1.314 . S
N1627 C1626 1.279 . S
C1628 C1630 1.353 . S
C1628 N1631 1.314 . S
C1628 H1634 0.930 . S
C1629 N1631 1.279 1_565 S
C1629 C1632 1.358 . S
C1629 H1635 0.930 . S
C1630 C1628 1.353 . S
C1630 C1633 1.348 . S
C1630 H1668 0.929 . S
N1631 Li1586 1.990 . S
N1631 C1628 1.314 . S
N1631 C1629 1.279 1_545 S
C1632 C1629 1.358 . S
C1632 C1633 1.356 1_565 S
C1632 H1669 0.930 . S
C1633 C1630 1.348 . S
C1633 C1632 1.356 1_545 S
H1634 C1628 0.930 . S
H1635 C1629 0.930 . S
C1636 N1637 1.314 . S
C1636 C1638 1.353 . S
C1636 H1642 0.930 . S
N1637 Li1587 1.990 . S
N1637 C1636 1.314 . S
N1637 C1640 1.279 . S
C1638 C1636 1.353 . S
C1638 C1641 1.348 . S
C1638 H1670 0.929 . S
C1639 C1640 1.358 . S
C1639 C1641 1.356 . S
C1639 H1671 0.930 . S
C1640 N1637 1.279 . S
C1640 C1639 1.358 . S
C1640 H1643 0.930 . S
C1641 C1638 1.348 . S
C1641 C1639 1.356 . S
H1642 C1636 0.930 . S
H1643 C1640 0.930 . S
O1644 Li1584 1.956 . S
O1644 Li1585 1.970 . S
O1644 Li1586 1.961 . S
O1644 C1588 1.325 . S
O1645 Li1584 1.970 . S
O1645 Li1585 1.956 . S
O1645 Li1587 1.961 1_545 S
O1645 C1594 1.325 . S
O1646 Li1584 1.961 1_565 S
O1646 Li1586 1.956 1_565 S
O1646 Li1587 1.970 . S
O1646 C1616 1.325 . S
O1647 Li1585 1.961 . S
O1647 Li1586 1.970 . S
O1647 Li1587 1.956 1_545 S
O1647 C1622 1.325 . S
H1648 C1590 0.929 . S
H1649 C1591 0.930 . S
H1650 C1592 0.930 . S
H1651 C1593 0.930 . S
H1652 C1595 0.930 . S
H1653 C1597 0.929 . S
H1654 C1598 0.930 . S
H1655 C1599 0.930 . S
H1656 C1602 0.930 . S
H1657 C1605 0.929 . S
H1658 C1610 0.929 . S
H1659 C1611 0.930 . S
H1660 C1618 0.929 . S
H1661 C1619 0.930 . S
H1662 C1620 0.930 . S
H1663 C1621 0.930 . S
H1664 C1623 0.929 . S
H1665 C1624 0.930 . S
H1666 C1625 0.930 . S
H1667 C1626 0.930 . S
H1668 C1630 0.929 . S
H1669 C1632 0.930 . S
H1670 C1638 0.929 . S
H1671 C1639 0.930 . S
Li1672 N1689 1.990 . S
Li1672 O1732 1.956 . S
Li1672 O1733 1.970 . S
Li1672 O1734 1.964 . S
Li1673 N1697 1.990 . S
Li1673 O1732 1.970 . S
Li1673 O1733 1.956 . S
Li1673 O1735 1.961 . S
Li1674 N1719 1.990 . S
Li1674 O1732 1.961 . S
Li1674 O1734 1.959 . S
Li1674 O1735 1.970 . S
Li1675 N1725 1.990 1_554 S
Li1675 O1733 1.961 . S
Li1675 O1734 1.971 . S
Li1675 O1735 1.956 . S
C1676 C1678 1.348 . S
C1676 C1679 1.356 . S
C1676 O1732 1.325 . S
N1677 C1680 1.314 . S
N1677 C1681 1.279 . S
C1678 C1676 1.348 . S
C1678 C1680 1.353 . S
C1678 H1736 0.929 . S
C1679 C1676 1.356 . S
C1679 C1681 1.358 . S
C1679 H1737 0.930 . S
C1680 N1677 1.314 . S
C1680 C1678 1.353 . S
C1680 H1738 0.930 . S
C1681 N1677 1.279 . S
C1681 C1679 1.358 . S
C1681 H1739 0.930 1_565 S
C1682 C1685 1.348 . S
C1682 C1686 1.356 . S
C1682 O1733 1.325 . S
C1683 N1684 1.279 . S
C1683 C1686 1.358 . S
C1683 H1740 0.930 . S
N1684 C1683 1.279 . S
N1684 C1687 1.314 . S
C1685 C1682 1.348 . S
C1685 C1687 1.353 . S
C1685 H1741 0.929 . S
C1686 C1682 1.356 . S
C1686 C1683 1.358 . S
C1686 H1742 0.930 . S
C1687 N1684 1.314 . S
C1687 C1685 1.353 . S
C1687 H1743 0.930 . S
C1688 N1689 1.314 . S
C1688 C1693 1.353 . S
C1688 H1694 0.930 1_554 S
N1689 Li1672 1.990 . S
N1689 C1688 1.314 . S
N1689 C1691 1.279 . S
C1690 C1691 1.358 . S
C1690 C1692 1.356 . S
C1690 H1744 0.930 . S
C1691 N1689 1.279 . S
C1691 C1690 1.358 . S
C1691 H1695 0.930 . S
C1692 C1690 1.356 . S
C1692 C1693 1.348 . S
C1693 C1688 1.353 . S
C1693 C1692 1.348 . S
C1693 H1745 0.929 1_554 S
H1694 C1688 0.930 1_556 S
H1695 C1691 0.930 . S
C1696 N1697 1.314 . S
C1696 C1698 1.353 . S
C1696 H1702 0.930 . S
N1697 Li1673 1.990 . S
N1697 C1696 1.314 . S
N1697 C1700 1.279 . S
C1698 C1696 1.353 . S
C1698 C1701 1.348 . S
C1698 H1746 0.929 . S
C1699 C1700 1.358 . S
C1699 C1701 1.356 . S
C1699 H1747 0.930 . S
C1700 N1697 1.279 . S
C1700 C1699 1.358 . S
C1700 H1703 0.930 . S
C1701 C1698 1.348 . S
C1701 C1699 1.356 . S
H1702 C1696 0.930 . S
H1703 C1700 0.930 . S
C1704 C1706 1.348 . S
C1704 C1707 1.356 . S
C1704 O1734 1.321 1_556 S
N1705 C1708 1.314 . S
N1705 C1709 1.279 . S
C1706 C1704 1.348 . S
C1706 C1708 1.353 . S
C1706 H1748 0.929 . S
C1707 C1704 1.356 . S
C1707 C1709 1.358 . S
C1707 H1749 0.930 . S
C1708 N1705 1.314 . S
C1708 C1706 1.353 . S
C1708 H1750 0.930 . S
C1709 N1705 1.279 . S
C1709 C1707 1.358 . S
C1709 H1751 0.930 1_565 S
C1710 C1711 1.348 . S
C1710 C1712 1.356 . S
C1710 O1735 1.325 . S
C1711 C1710 1.348 . S
C1711 C1713 1.353 . S
C1711 H1752 0.929 . S
C1712 C1710 1.356 . S
C1712 C1714 1.358 . S
C1712 H1753 0.930 . S
C1713 C1711 1.353 . S
C1713 N1715 1.314 . S
C1713 H1754 0.930 . S
C1714 C1712 1.358 . S
C1714 N1715 1.279 . S
C1714 H1755 0.930 . S
N1715 C1713 1.314 . S
N1715 C1714 1.279 . S
C1716 C1718 1.353 . S
C1716 N1719 1.314 . S
C1716 H1722 0.930 . S
C1717 N1719 1.279 . S
C1717 C1720 1.358 . S
C1717 H1723 0.930 1_554 S
C1718 C1716 1.353 . S
C1718 C1721 1.348 . S
C1718 H1756 0.929 . S
N1719 Li1674 1.990 . S
N1719 C1716 1.314 . S
N1719 C1717 1.279 . S
C1720 C1717 1.358 . S
C1720 C1721 1.356 . S
C1720 H1757 0.930 1_554 S
C1721 C1718 1.348 . S
C1721 C1720 1.356 . S
H1722 C1716 0.930 . S
H1723 C1717 0.930 1_556 S
C1724 N1725 1.314 . S
C1724 C1726 1.353 . S
C1724 H1730 0.930 . S
N1725 Li1675 1.990 1_556 S
N1725 C1724 1.314 . S
N1725 C1728 1.279 . S
C1726 C1724 1.353 . S
C1726 C1729 1.348 . S
C1726 H1758 0.929 . S
C1727 C1728 1.358 . S
C1727 C1729 1.356 . S
C1727 H1759 0.930 . S
C1728 N1725 1.279 . S
C1728 C1727 1.358 . S
C1728 H1731 0.930 . S
C1729 C1726 1.348 . S
C1729 C1727 1.356 . S
H1730 C1724 0.930 . S
H1731 C1728 0.930 . S
O1732 Li1672 1.956 . S
O1732 Li1673 1.970 . S
O1732 Li1674 1.961 . S
O1732 C1676 1.325 . S
O1733 Li1672 1.970 . S
O1733 Li1673 1.956 . S
O1733 Li1675 1.961 . S
O1733 C1682 1.325 . S
O1734 Li1672 1.964 . S
O1734 Li1674 1.959 . S
O1734 Li1675 1.971 . S
O1734 C1704 1.321 1_554 S
O1735 Li1673 1.961 . S
O1735 Li1674 1.970 . S
O1735 Li1675 1.956 . S
O1735 C1710 1.325 . S
H1736 C1678 0.929 . S
H1737 C1679 0.930 . S
H1738 C1680 0.930 . S
H1739 C1681 0.930 1_545 S
H1740 C1683 0.930 . S
H1741 C1685 0.929 . S
H1742 C1686 0.930 . S
H1743 C1687 0.930 . S
H1744 C1690 0.930 . S
H1745 C1693 0.929 1_556 S
H1746 C1698 0.929 . S
H1747 C1699 0.930 . S
H1748 C1706 0.929 . S
H1749 C1707 0.930 . S
H1750 C1708 0.930 . S
H1751 C1709 0.930 1_545 S
H1752 C1711 0.929 . S
H1753 C1712 0.930 . S
H1754 C1713 0.930 . S
H1755 C1714 0.930 . S
H1756 C1718 0.929 . S
H1757 C1720 0.930 1_556 S
H1758 C1726 0.929 . S
H1759 C1727 0.930 . S
Li1760 N1777 1.990 . S
Li1760 O1820 1.960 1_554 S
Li1760 O1821 1.970 . S
Li1760 O1822 1.966 . S
Li1761 N1785 1.990 . S
Li1761 O1820 1.971 1_554 S
Li1761 O1821 1.956 . S
Li1761 O1823 1.961 1_554 S
Li1762 N1807 1.990 . S
Li1762 O1820 1.958 . S
Li1762 O1822 1.951 1_556 S
Li1762 O1823 1.970 . S
Li1763 N1813 1.990 . S
Li1763 O1821 1.961 1_556 S
Li1763 O1822 1.970 1_556 S
Li1763 O1823 1.956 . S
C1764 C1766 1.362 . S
C1764 C1767 1.348 1_554 S
C1764 O1820 1.325 1_554 S
N1765 C1768 1.314 . S
N1765 C1769 1.279 1_554 S
C1766 C1764 1.362 . S
C1766 C1768 1.353 . S
C1766 H1824 0.929 . S
C1767 C1764 1.348 1_556 S
C1767 C1769 1.358 . S
C1767 H1825 0.930 . S
C1768 N1765 1.314 . S
C1768 C1766 1.353 . S
C1768 H1826 0.930 . S
C1769 N1765 1.279 1_556 S
C1769 C1767 1.358 . S
C1769 H1827 0.930 . S
C1770 C1773 1.348 . S
C1770 C1774 1.356 . S
C1770 O1821 1.325 . S
C1771 N1772 1.279 . S
C1771 C1774 1.358 . S
C1771 H1828 0.930 . S
N1772 C1771 1.279 . S
N1772 C1775 1.314 . S
C1773 C1770 1.348 . S
C1773 C1775 1.353 . S
C1773 H1829 0.929 . S
C1774 C1770 1.356 . S
C1774 C1771 1.358 . S
C1774 H1830 0.930 . S
C1775 N1772 1.314 . S
C1775 C1773 1.353 . S
C1775 H1831 0.930 . S
C1776 N1777 1.314 . S
C1776 C1781 1.353 . S
C1776 H1782 0.930 . S
N1777 Li1760 1.990 . S
N1777 C1776 1.314 . S
N1777 C1779 1.279 . S
C1778 C1779 1.358 . S
C1778 C1780 1.356 . S
C1778 H1832 0.930 . S
C1779 N1777 1.279 . S
C1779 C1778 1.358 . S
C1779 H1783 0.930 . S
C1780 C1778 1.356 . S
C1780 C1781 1.348 . S
C1781 C1776 1.353 . S
C1781 C1780 1.348 . S
C1781 H1833 0.929 . S
H1782 C1776 0.930 . S
H1783 C1779 0.930 . S
C1784 N1785 1.314 1_556 S
C1784 C1786 1.353 . S
C1784 H1790 0.930 . S
N1785 Li1761 1.990 . S
N1785 C1784 1.314 1_554 S
N1785 C1788 1.279 . S
C1786 C1784 1.353 . S
C1786 C1789 1.348 1_556 S
C1786 H1834 0.929 . S
C1787 C1788 1.358 . S
C1787 C1789 1.356 . S
C1787 H1835 0.930 . S
C1788 N1785 1.279 . S
C1788 C1787 1.358 . S
C1788 H1791 0.930 . S
C1789 C1786 1.348 1_554 S
C1789 C1787 1.356 . S
H1790 C1784 0.930 . S
H1791 C1788 0.930 . S
C1792 C1794 1.358 . S
C1792 C1795 1.350 1_556 S
C1792 O1822 1.325 1_556 S
N1793 C1796 1.314 . S
N1793 C1797 1.279 1_556 S
C1794 C1792 1.358 . S
C1794 C1796 1.353 . S
C1794 H1836 0.929 . S
C1795 C1792 1.350 1_554 S
C1795 C1797 1.358 . S
C1795 H1837 0.930 . S
C1796 N1793 1.314 . S
C1796 C1794 1.353 . S
C1796 H1838 0.930 . S
C1797 N1793 1.279 1_554 S
C1797 C1795 1.358 . S
C1797 H1839 0.930 . S
C1798 C1799 1.348 . S
C1798 C1800 1.356 . S
C1798 O1823 1.325 . S
C1799 C1798 1.348 . S
C1799 C1801 1.353 . S
C1799 H1840 0.929 . S
C1800 C1798 1.356 . S
C1800 C1802 1.358 . S
C1800 H1841 0.930 . S
C1801 C1799 1.353 . S
C1801 N1803 1.314 . S
C1801 H1842 0.930 . S
C1802 C1800 1.358 . S
C1802 N1803 1.279 . S
C1802 H1843 0.930 . S
N1803 C1801 1.314 . S
N1803 C1802 1.279 . S
C1804 C1806 1.353 . S
C1804 N1807 1.314 . S
C1804 H1810 0.930 . S
C1805 N1807 1.279 . S
C1805 C1808 1.358 . S
C1805 H1811 0.930 . S
C1806 C1804 1.353 . S
C1806 C1809 1.348 . S
C1806 H1844 0.929 . S
N1807 Li1762 1.990 . S
N1807 C1804 1.314 . S
N1807 C1805 1.279 . S
C1808 C1805 1.358 . S
C1808 C1809 1.356 . S
C1808 H1845 0.930 . S
C1809 C1806 1.348 . S
C1809 C1808 1.356 . S
H1810 C1804 0.930 . S
H1811 C1805 0.930 . S
C1812 N1813 1.314 1_554 S
C1812 C1814 1.353 . S
C1812 H1818 0.930 . S
N1813 Li1763 1.990 . S
N1813 C1812 1.314 1_556 S
N1813 C1816 1.279 . S
C1814 C1812 1.353 . S
C1814 C1817 1.348 1_554 S
C1814 H1846 0.929 . S
C1815 C1816 1.358 . S
C1815 C1817 1.356 . S
C1815 H1847 0.930 . S
C1816 N1813 1.279 . S
C1816 C1815 1.358 . S
C1816 H1819 0.930 . S
C1817 C1814 1.348 1_556 S
C1817 C1815 1.356 . S
H1818 C1812 0.930 . S
H1819 C1816 0.930 . S
O1820 Li1760 1.960 1_556 S
O1820 Li1761 1.971 1_556 S
O1820 Li1762 1.958 . S
O1820 C1764 1.325 1_556 S
O1821 Li1760 1.970 . S
O1821 Li1761 1.956 . S
O1821 Li1763 1.961 1_554 S
O1821 C1770 1.325 . S
O1822 Li1760 1.966 . S
O1822 Li1762 1.951 1_554 S
O1822 Li1763 1.970 1_554 S
O1822 C1792 1.325 1_554 S
O1823 Li1761 1.961 1_556 S
O1823 Li1762 1.970 . S
O1823 Li1763 1.956 . S
O1823 C1798 1.325 . S
H1824 C1766 0.929 . S
H1825 C1767 0.930 . S
H1826 C1768 0.930 . S
H1827 C1769 0.930 . S
H1828 C1771 0.930 . S
H1829 C1773 0.929 . S
H1830 C1774 0.930 . S
H1831 C1775 0.930 . S
H1832 C1778 0.930 . S
H1833 C1781 0.929 . S
H1834 C1786 0.929 . S
H1835 C1787 0.930 . S
H1836 C1794 0.929 . S
H1837 C1795 0.930 . S
H1838 C1796 0.930 . S
H1839 C1797 0.930 . S
H1840 C1799 0.929 . S
H1841 C1800 0.930 . S
H1842 C1801 0.930 . S
H1843 C1802 0.930 . S
H1844 C1806 0.929 . S
H1845 C1808 0.930 . S
H1846 C1814 0.929 . S
H1847 C1815 0.930 . S
Li1848 N1865 1.990 . S
Li1848 O1908 1.956 . S
Li1848 O1909 1.970 . S
Li1848 O1910 1.961 . S
Li1849 N1873 1.990 . S
Li1849 O1908 1.970 . S
Li1849 O1909 1.956 . S
Li1849 O1911 1.961 . S
Li1850 N1895 1.990 . S
Li1850 O1908 1.961 . S
Li1850 O1910 1.956 . S
Li1850 O1911 1.970 . S
Li1851 N1901 1.990 . S
Li1851 O1909 1.961 . S
Li1851 O1910 1.970 . S
Li1851 O1911 1.956 . S
C1852 C1854 1.348 . S
C1852 C1855 1.356 . S
C1852 O1908 1.325 . S
N1853 C1856 1.314 . S
N1853 C1857 1.279 . S
C1854 C1852 1.348 . S
C1854 C1856 1.353 . S
C1854 H1912 0.929 . S
C1855 C1852 1.356 . S
C1855 C1857 1.358 . S
C1855 H1913 0.930 . S
C1856 N1853 1.314 . S
C1856 C1854 1.353 . S
C1856 H1914 0.930 . S
C1857 N1853 1.279 . S
C1857 C1855 1.358 . S
C1857 H1915 0.930 . S
C1858 C1861 1.348 . S
C1858 C1862 1.356 . S
C1858 O1909 1.325 . S
C1859 N1860 1.279 . S
C1859 C1862 1.358 . S
C1859 H1916 0.930 . S
N1860 C1859 1.279 . S
N1860 C1863 1.314 . S
C1861 C1858 1.348 . S
C1861 C1863 1.353 . S
C1861 H1917 0.929 . S
C1862 C1858 1.356 . S
C1862 C1859 1.358 . S
C1862 H1918 0.930 . S
C1863 N1860 1.314 . S
C1863 C1861 1.353 . S
C1863 H1919 0.930 . S
C1864 N1865 1.314 . S
C1864 C1869 1.353 . S
C1864 H1870 0.930 . S
N1865 Li1848 1.990 . S
N1865 C1864 1.314 . S
N1865 C1867 1.279 . S
C1866 C1867 1.358 . S
C1866 C1868 1.356 . S
C1866 H1920 0.930 . S
C1867 N1865 1.279 . S
C1867 C1866 1.358 . S
C1867 H1871 0.930 . S
C1868 C1866 1.356 . S
C1868 C1869 1.348 . S
C1869 C1864 1.353 . S
C1869 C1868 1.348 . S
C1869 H1921 0.929 . S
H1870 C1864 0.930 . S
H1871 C1867 0.930 . S
C1872 N1873 1.314 . S
C1872 C1874 1.353 . S
C1872 H1878 0.930 . S
N1873 Li1849 1.990 . S
N1873 C1872 1.314 . S
N1873 C1876 1.279 . S
C1874 C1872 1.353 . S
C1874 C1877 1.348 . S
C1874 H1922 0.929 . S
C1875 C1876 1.358 . S
C1875 C1877 1.356 . S
C1875 H1923 0.930 . S
C1876 N1873 1.279 . S
C1876 C1875 1.358 . S
C1876 H1879 0.930 . S
C1877 C1874 1.348 . S
C1877 C1875 1.356 . S
H1878 C1872 0.930 . S
H1879 C1876 0.930 . S
C1880 C1882 1.348 . S
C1880 C1883 1.356 . S
C1880 O1910 1.325 . S
N1881 C1884 1.314 . S
N1881 C1885 1.279 . S
C1882 C1880 1.348 . S
C1882 C1884 1.353 . S
C1882 H1924 0.929 . S
C1883 C1880 1.356 . S
C1883 C1885 1.358 . S
C1883 H1925 0.930 . S
C1884 N1881 1.314 . S
C1884 C1882 1.353 . S
C1884 H1926 0.930 . S
C1885 N1881 1.279 . S
C1885 C1883 1.358 . S
C1885 H1927 0.930 . S
C1886 C1887 1.348 . S
C1886 C1888 1.356 . S
C1886 O1911 1.325 . S
C1887 C1886 1.348 . S
C1887 C1889 1.353 . S
C1887 H1928 0.929 . S
C1888 C1886 1.356 . S
C1888 C1890 1.358 . S
C1888 H1929 0.930 . S
C1889 C1887 1.353 . S
C1889 N1891 1.314 . S
C1889 H1930 0.930 . S
C1890 C1888 1.358 . S
C1890 N1891 1.279 . S
C1890 H1931 0.930 . S
N1891 C1889 1.314 . S
N1891 C1890 1.279 . S
C1892 C1894 1.353 . S
C1892 N1895 1.314 . S
C1892 H1898 0.930 . S
C1893 N1895 1.279 . S
C1893 C1896 1.358 . S
C1893 H1899 0.930 . S
C1894 C1892 1.353 . S
C1894 C1897 1.348 . S
C1894 H1932 0.929 . S
N1895 Li1850 1.990 . S
N1895 C1892 1.314 . S
N1895 C1893 1.279 . S
C1896 C1893 1.358 . S
C1896 C1897 1.356 . S
C1896 H1933 0.930 . S
C1897 C1894 1.348 . S
C1897 C1896 1.356 . S
H1898 C1892 0.930 . S
H1899 C1893 0.930 . S
C1900 N1901 1.314 . S
C1900 C1902 1.353 . S
C1900 H1906 0.930 . S
N1901 Li1851 1.990 . S
N1901 C1900 1.314 . S
N1901 C1904 1.279 . S
C1902 C1900 1.353 . S
C1902 C1905 1.348 . S
C1902 H1934 0.929 . S
C1903 C1904 1.358 . S
C1903 C1905 1.356 . S
C1903 H1935 0.930 . S
C1904 N1901 1.279 . S
C1904 C1903 1.358 . S
C1904 H1907 0.930 . S
C1905 C1902 1.348 . S
C1905 C1903 1.356 . S
H1906 C1900 0.930 . S
H1907 C1904 0.930 . S
O1908 Li1848 1.956 . S
O1908 Li1849 1.970 . S
O1908 Li1850 1.961 . S
O1908 C1852 1.325 . S
O1909 Li1848 1.970 . S
O1909 Li1849 1.956 . S
O1909 Li1851 1.961 . S
O1909 C1858 1.325 . S
O1910 Li1848 1.961 . S
O1910 Li1850 1.956 . S
O1910 Li1851 1.970 . S
O1910 C1880 1.325 . S
O1911 Li1849 1.961 . S
O1911 Li1850 1.970 . S
O1911 Li1851 1.956 . S
O1911 C1886 1.325 . S
H1912 C1854 0.929 . S
H1913 C1855 0.930 . S
H1914 C1856 0.930 . S
H1915 C1857 0.930 . S
H1916 C1859 0.930 . S
H1917 C1861 0.929 . S
H1918 C1862 0.930 . S
H1919 C1863 0.930 . S
H1920 C1866 0.930 . S
H1921 C1869 0.929 . S
H1922 C1874 0.929 . S
H1923 C1875 0.930 . S
H1924 C1882 0.929 . S
H1925 C1883 0.930 . S
H1926 C1884 0.930 . S
H1927 C1885 0.930 . S
H1928 C1887 0.929 . S
H1929 C1888 0.930 . S
H1930 C1889 0.930 . S
H1931 C1890 0.930 . S
H1932 C1894 0.929 . S
H1933 C1896 0.930 . S
H1934 C1902 0.929 . S
H1935 C1903 0.930 . S
Li1936 N1953 1.990 . S
Li1936 O1996 1.956 . S
Li1936 O1997 1.970 . S
Li1936 O1998 1.961 . S
Li1937 N1961 1.990 . S
Li1937 O1996 1.970 . S
Li1937 O1997 1.956 . S
Li1937 O1999 1.961 . S
Li1938 N1983 1.990 . S
Li1938 O1996 1.961 . S
Li1938 O1998 1.956 . S
Li1938 O1999 1.970 . S
Li1939 N1989 1.990 . S
Li1939 O1997 1.961 . S
Li1939 O1998 1.970 . S
Li1939 O1999 1.956 . S
C1940 C1942 1.348 . S
C1940 C1943 1.356 . S
C1940 O1996 1.325 . S
N1941 C1944 1.314 . S
N1941 C1945 1.279 . S
C1942 C1940 1.348 . S
C1942 C1944 1.353 . S
C1942 H2000 0.929 . S
C1943 C1940 1.356 . S
C1943 C1945 1.358 . S
C1943 H2001 0.930 . S
C1944 N1941 1.314 . S
C1944 C1942 1.353 . S
C1944 H2002 0.930 . S
C1945 N1941 1.279 . S
C1945 C1943 1.358 . S
C1945 H2003 0.930 . S
C1946 C1949 1.348 . S
C1946 C1950 1.356 . S
C1946 O1997 1.325 . S
C1947 N1948 1.279 . S
C1947 C1950 1.358 . S
C1947 H2004 0.930 . S
N1948 C1947 1.279 . S
N1948 C1951 1.314 . S
C1949 C1946 1.348 . S
C1949 C1951 1.353 . S
C1949 H2005 0.929 . S
C1950 C1946 1.356 . S
C1950 C1947 1.358 . S
C1950 H2006 0.930 . S
C1951 N1948 1.314 . S
C1951 C1949 1.353 . S
C1951 H2007 0.930 . S
C1952 N1953 1.314 . S
C1952 C1957 1.353 . S
C1952 H1958 0.930 . S
N1953 Li1936 1.990 . S
N1953 C1952 1.314 . S
N1953 C1955 1.279 . S
C1954 C1955 1.358 . S
C1954 C1956 1.356 . S
C1954 H2008 0.930 . S
C1955 N1953 1.279 . S
C1955 C1954 1.358 . S
C1955 H1959 0.930 . S
C1956 C1954 1.356 . S
C1956 C1957 1.348 . S
C1957 C1952 1.353 . S
C1957 C1956 1.348 . S
C1957 H2009 0.929 . S
H1958 C1952 0.930 . S
H1959 C1955 0.930 . S
C1960 N1961 1.314 . S
C1960 C1962 1.353 . S
C1960 H1966 0.930 . S
N1961 Li1937 1.990 . S
N1961 C1960 1.314 . S
N1961 C1964 1.279 . S
C1962 C1960 1.353 . S
C1962 C1965 1.348 . S
C1962 H2010 0.929 . S
C1963 C1964 1.358 . S
C1963 C1965 1.356 . S
C1963 H2011 0.930 . S
C1964 N1961 1.279 . S
C1964 C1963 1.358 . S
C1964 H1967 0.930 . S
C1965 C1962 1.348 . S
C1965 C1963 1.356 . S
H1966 C1960 0.930 . S
H1967 C1964 0.930 . S
C1968 C1970 1.348 . S
C1968 C1971 1.356 . S
C1968 O1998 1.325 . S
N1969 C1972 1.314 . S
N1969 C1973 1.279 . S
C1970 C1968 1.348 . S
C1970 C1972 1.353 . S
C1970 H2012 0.929 . S
C1971 C1968 1.356 . S
C1971 C1973 1.358 . S
C1971 H2013 0.930 . S
C1972 N1969 1.314 . S
C1972 C1970 1.353 . S
C1972 H2014 0.930 . S
C1973 N1969 1.279 . S
C1973 C1971 1.358 . S
C1973 H2015 0.930 . S
C1974 C1975 1.348 . S
C1974 C1976 1.356 . S
C1974 O1999 1.325 . S
C1975 C1974 1.348 . S
C1975 C1977 1.353 . S
C1975 H2016 0.929 . S
C1976 C1974 1.356 . S
C1976 C1978 1.358 . S
C1976 H2017 0.930 . S
C1977 C1975 1.353 . S
C1977 N1979 1.314 . S
C1977 H2018 0.930 . S
C1978 C1976 1.358 . S
C1978 N1979 1.279 . S
C1978 H2019 0.930 . S
N1979 C1977 1.314 . S
N1979 C1978 1.279 . S
C1980 C1982 1.353 . S
C1980 N1983 1.314 . S
C1980 H1986 0.930 . S
C1981 N1983 1.279 . S
C1981 C1984 1.358 . S
C1981 H1987 0.930 . S
C1982 C1980 1.353 . S
C1982 C1985 1.348 . S
C1982 H2020 0.929 . S
N1983 Li1938 1.990 . S
N1983 C1980 1.314 . S
N1983 C1981 1.279 . S
C1984 C1981 1.358 . S
C1984 C1985 1.356 . S
C1984 H2021 0.930 . S
C1985 C1982 1.348 . S
C1985 C1984 1.356 . S
H1986 C1980 0.930 . S
H1987 C1981 0.930 . S
C1988 N1989 1.314 . S
C1988 C1990 1.353 . S
C1988 H1994 0.930 . S
N1989 Li1939 1.990 . S
N1989 C1988 1.314 . S
N1989 C1992 1.279 . S
C1990 C1988 1.353 . S
C1990 C1993 1.348 . S
C1990 H2022 0.929 . S
C1991 C1992 1.358 . S
C1991 C1993 1.356 . S
C1991 H2023 0.930 . S
C1992 N1989 1.279 . S
C1992 C1991 1.358 . S
C1992 H1995 0.930 . S
C1993 C1990 1.348 . S
C1993 C1991 1.356 . S
H1994 C1988 0.930 . S
H1995 C1992 0.930 . S
O1996 Li1936 1.956 . S
O1996 Li1937 1.970 . S
O1996 Li1938 1.961 . S
O1996 C1940 1.325 . S
O1997 Li1936 1.970 . S
O1997 Li1937 1.956 . S
O1997 Li1939 1.961 . S
O1997 C1946 1.325 . S
O1998 Li1936 1.961 . S
O1998 Li1938 1.956 . S
O1998 Li1939 1.970 . S
O1998 C1968 1.325 . S
O1999 Li1937 1.961 . S
O1999 Li1938 1.970 . S
O1999 Li1939 1.956 . S
O1999 C1974 1.325 . S
H2000 C1942 0.929 . S
H2001 C1943 0.930 . S
H2002 C1944 0.930 . S
H2003 C1945 0.930 . S
H2004 C1947 0.930 . S
H2005 C1949 0.929 . S
H2006 C1950 0.930 . S
H2007 C1951 0.930 . S
H2008 C1954 0.930 . S
H2009 C1957 0.929 . S
H2010 C1962 0.929 . S
H2011 C1963 0.930 . S
H2012 C1970 0.929 . S
H2013 C1971 0.930 . S
H2014 C1972 0.930 . S
H2015 C1973 0.930 . S
H2016 C1975 0.929 . S
H2017 C1976 0.930 . S
H2018 C1977 0.930 . S
H2019 C1978 0.930 . S
H2020 C1982 0.929 . S
H2021 C1984 0.930 . S
H2022 C1990 0.929 . S
H2023 C1991 0.930 . S
Li2024 N2041 1.990 . S
Li2024 O2084 1.956 . S
Li2024 O2085 1.970 . S
Li2024 O2086 1.961 . S
Li2025 N2049 1.990 . S
Li2025 O2084 1.970 . S
Li2025 O2085 1.956 . S
Li2025 O2087 1.961 . S
Li2026 N2071 1.990 . S
Li2026 O2084 1.961 . S
Li2026 O2086 1.956 . S
Li2026 O2087 1.970 . S
Li2027 N2077 1.990 . S
Li2027 O2085 1.961 . S
Li2027 O2086 1.970 . S
Li2027 O2087 1.956 . S
C2028 C2030 1.348 . S
C2028 C2031 1.356 . S
C2028 O2084 1.325 . S
N2029 C2032 1.314 . S
N2029 C2033 1.279 . S
C2030 C2028 1.348 . S
C2030 C2032 1.353 . S
C2030 H2088 0.929 . S
C2031 C2028 1.356 . S
C2031 C2033 1.358 . S
C2031 H2089 0.930 . S
C2032 N2029 1.314 . S
C2032 C2030 1.353 . S
C2032 H2090 0.930 . S
C2033 N2029 1.279 . S
C2033 C2031 1.358 . S
C2033 H2091 0.930 . S
C2034 C2037 1.348 . S
C2034 C2038 1.356 . S
C2034 O2085 1.325 . S
C2035 N2036 1.279 . S
C2035 C2038 1.358 . S
C2035 H2092 0.930 . S
N2036 C2035 1.279 . S
N2036 C2039 1.314 . S
C2037 C2034 1.348 . S
C2037 C2039 1.353 . S
C2037 H2093 0.929 . S
C2038 C2034 1.356 . S
C2038 C2035 1.358 . S
C2038 H2094 0.930 . S
C2039 N2036 1.314 . S
C2039 C2037 1.353 . S
C2039 H2095 0.930 . S
C2040 N2041 1.314 . S
C2040 C2045 1.353 . S
C2040 H2046 0.930 . S
N2041 Li2024 1.990 . S
N2041 C2040 1.314 . S
N2041 C2043 1.279 . S
C2042 C2043 1.358 . S
C2042 C2044 1.356 . S
C2042 H2096 0.930 . S
C2043 N2041 1.279 . S
C2043 C2042 1.358 . S
C2043 H2047 0.930 . S
C2044 C2042 1.356 . S
C2044 C2045 1.348 . S
C2045 C2040 1.353 . S
C2045 C2044 1.348 . S
C2045 H2097 0.929 . S
H2046 C2040 0.930 . S
H2047 C2043 0.930 . S
C2048 N2049 1.314 . S
C2048 C2050 1.353 . S
C2048 H2054 0.930 . S
N2049 Li2025 1.990 . S
N2049 C2048 1.314 . S
N2049 C2052 1.279 . S
C2050 C2048 1.353 . S
C2050 C2053 1.348 . S
C2050 H2098 0.929 . S
C2051 C2052 1.358 . S
C2051 C2053 1.356 . S
C2051 H2099 0.930 . S
C2052 N2049 1.279 . S
C2052 C2051 1.358 . S
C2052 H2055 0.930 . S
C2053 C2050 1.348 . S
C2053 C2051 1.356 . S
H2054 C2048 0.930 . S
H2055 C2052 0.930 . S
C2056 C2058 1.348 . S
C2056 C2059 1.356 . S
C2056 O2086 1.325 . S
N2057 C2060 1.314 . S
N2057 C2061 1.279 . S
C2058 C2056 1.348 . S
C2058 C2060 1.353 . S
C2058 H2100 0.929 . S
C2059 C2056 1.356 . S
C2059 C2061 1.358 . S
C2059 H2101 0.930 . S
C2060 N2057 1.314 . S
C2060 C2058 1.353 . S
C2060 H2102 0.930 . S
C2061 N2057 1.279 . S
C2061 C2059 1.358 . S
C2061 H2103 0.930 . S
C2062 C2063 1.348 . S
C2062 C2064 1.356 . S
C2062 O2087 1.325 . S
C2063 C2062 1.348 . S
C2063 C2065 1.353 . S
C2063 H2104 0.929 . S
C2064 C2062 1.356 . S
C2064 C2066 1.358 . S
C2064 H2105 0.930 . S
C2065 C2063 1.353 . S
C2065 N2067 1.314 . S
C2065 H2106 0.930 . S
C2066 C2064 1.358 . S
C2066 N2067 1.279 . S
C2066 H2107 0.930 . S
N2067 C2065 1.314 . S
N2067 C2066 1.279 . S
C2068 C2070 1.353 . S
C2068 N2071 1.314 . S
C2068 H2074 0.930 . S
C2069 N2071 1.279 . S
C2069 C2072 1.358 . S
C2069 H2075 0.930 . S
C2070 C2068 1.353 . S
C2070 C2073 1.348 . S
C2070 H2108 0.929 . S
N2071 Li2026 1.990 . S
N2071 C2068 1.314 . S
N2071 C2069 1.279 . S
C2072 C2069 1.358 . S
C2072 C2073 1.356 . S
C2072 H2109 0.930 . S
C2073 C2070 1.348 . S
C2073 C2072 1.356 . S
H2074 C2068 0.930 . S
H2075 C2069 0.930 . S
C2076 N2077 1.314 . S
C2076 C2078 1.353 . S
C2076 H2082 0.930 . S
N2077 Li2027 1.990 . S
N2077 C2076 1.314 . S
N2077 C2080 1.279 . S
C2078 C2076 1.353 . S
C2078 C2081 1.348 . S
C2078 H2110 0.929 . S
C2079 C2080 1.358 . S
C2079 C2081 1.356 . S
C2079 H2111 0.930 . S
C2080 N2077 1.279 . S
C2080 C2079 1.358 . S
C2080 H2083 0.930 . S
C2081 C2078 1.348 . S
C2081 C2079 1.356 . S
H2082 C2076 0.930 . S
H2083 C2080 0.930 . S
O2084 Li2024 1.956 . S
O2084 Li2025 1.970 . S
O2084 Li2026 1.961 . S
O2084 C2028 1.325 . S
O2085 Li2024 1.970 . S
O2085 Li2025 1.956 . S
O2085 Li2027 1.961 . S
O2085 C2034 1.325 . S
O2086 Li2024 1.961 . S
O2086 Li2026 1.956 . S
O2086 Li2027 1.970 . S
O2086 C2056 1.325 . S
O2087 Li2025 1.961 . S
O2087 Li2026 1.970 . S
O2087 Li2027 1.956 . S
O2087 C2062 1.325 . S
H2088 C2030 0.929 . S
H2089 C2031 0.930 . S
H2090 C2032 0.930 . S
H2091 C2033 0.930 . S
H2092 C2035 0.930 . S
H2093 C2037 0.929 . S
H2094 C2038 0.930 . S
H2095 C2039 0.930 . S
H2096 C2042 0.930 . S
H2097 C2045 0.929 . S
H2098 C2050 0.929 . S
H2099 C2051 0.930 . S
H2100 C2058 0.929 . S
H2101 C2059 0.930 . S
H2102 C2060 0.930 . S
H2103 C2061 0.930 . S
H2104 C2063 0.929 . S
H2105 C2064 0.930 . S
H2106 C2065 0.930 . S
H2107 C2066 0.930 . S
H2108 C2070 0.929 . S
H2109 C2072 0.930 . S
H2110 C2078 0.929 . S
H2111 C2079 0.930 . S
C2112 O2128 1.244 1_456 S
C2112 O2130 1.254 . S
N2113 C2114 1.333 1_565 S
N2113 C2118 1.307 . S
N2113 Zn2119 2.020 1_665 S
C2114 N2113 1.333 1_545 S
C2114 C2115 1.379 . S
C2114 H2132 0.952 . S
C2115 C2114 1.379 . S
C2115 C2116 1.390 1_545 S
C2115 H2142 0.949 . S
C2116 C2115 1.390 1_565 S
C2116 C2117 1.357 . S
C2117 C2116 1.357 . S
C2117 C2118 1.370 . S
C2117 H2143 0.950 . S
C2118 N2113 1.307 . S
C2118 C2117 1.370 . S
C2118 H2136 0.948 . S
Zn2119 N2113 2.020 1_445 S
Zn2119 O2128 2.048 1_455 S
Zn2119 O2134 2.034 . S
Zn2119 O2138 2.025 1_545 S
Zn2119 O2140 2.024 1_545 S
C2120 O2139 1.246 . S
C2120 O2140 1.249 . S
N2121 C2122 1.307 1_554 S
N2121 C2123 1.333 . S
N2121 Zn2127 2.020 . S
C2122 N2121 1.307 1_556 S
C2122 C2126 1.370 . S
C2122 H2133 0.948 . S
C2123 N2121 1.333 . S
C2123 C2124 1.379 . S
C2123 H2131 0.952 . S
C2124 C2123 1.379 . S
C2124 C2125 1.396 . S
C2124 H2144 0.949 . S
C2125 C2124 1.396 . S
C2125 C2126 1.353 1_554 S
C2126 C2122 1.370 . S
C2126 C2125 1.353 1_556 S
C2126 H2145 0.950 . S
Zn2127 N2121 2.020 . S
Zn2127 O2130 2.025 1_554 S
Zn2127 O2135 2.024 . S
Zn2127 O2137 2.039 . S
Zn2127 O2139 2.034 1_545 S
O2128 C2112 1.244 1_654 S
O2128 Zn2119 2.048 1_655 S
C2129 O2134 1.246 . S
C2129 O2135 1.249 . S
O2130 C2112 1.254 . S
O2130 Zn2127 2.025 1_556 S
H2131 C2123 0.952 . S
H2132 C2114 0.952 . S
H2133 C2122 0.948 . S
O2134 Zn2119 2.034 . S
O2134 C2129 1.246 . S
O2135 Zn2127 2.024 . S
O2135 C2129 1.249 . S
H2136 C2118 0.948 . S
O2137 Zn2127 2.039 . S
O2137 C2141 1.241 1_545 S
O2138 Zn2119 2.025 1_565 S
O2138 C2141 1.259 . S
O2139 C2120 1.246 . S
O2139 Zn2127 2.034 1_565 S
O2140 Zn2119 2.024 1_565 S
O2140 C2120 1.249 . S
C2141 O2137 1.241 1_565 S
C2141 O2138 1.259 . S
H2142 C2115 0.949 . S
H2143 C2117 0.950 . S
H2144 C2124 0.949 . S
H2145 C2126 0.950 . S
C2146 O2162 1.251 . S
C2146 O2164 1.254 . S
N2147 C2148 1.333 . S
N2147 C2152 1.307 . S
N2147 Zn2153 2.020 . S
C2148 N2147 1.333 . S
C2148 C2149 1.379 . S
C2148 H2166 0.952 . S
C2149 C2148 1.379 . S
C2149 C2150 1.390 . S
C2149 H2176 0.949 . S
C2150 C2149 1.390 . S
C2150 C2151 1.357 . S
C2151 C2150 1.357 . S
C2151 C2152 1.370 . S
C2151 H2177 0.950 . S
C2152 N2147 1.307 . S
C2152 C2151 1.370 . S
C2152 H2170 0.948 . S
Zn2153 N2147 2.020 . S
Zn2153 O2162 2.039 . S
Zn2153 O2168 2.034 . S
Zn2153 O2172 2.025 . S
Zn2153 O2174 2.024 . S
C2154 O2173 1.246 . S
C2154 O2174 1.249 . S
N2155 C2156 1.307 . S
N2155 C2157 1.333 . S
N2155 Zn2161 2.020 . S
C2156 N2155 1.307 . S
C2156 C2160 1.370 . S
C2156 H2167 0.948 . S
C2157 N2155 1.333 . S
C2157 C2158 1.379 . S
C2157 H2165 0.952 . S
C2158 C2157 1.379 . S
C2158 C2159 1.390 . S
C2158 H2178 0.949 . S
C2159 C2158 1.390 . S
C2159 C2160 1.357 . S
C2160 C2156 1.370 . S
C2160 C2159 1.357 . S
C2160 H2179 0.950 . S
Zn2161 N2155 2.020 . S
Zn2161 O2164 2.025 . S
Zn2161 O2169 2.024 . S
Zn2161 O2171 2.039 . S
Zn2161 O2173 2.034 . S
O2162 C2146 1.251 . S
O2162 Zn2153 2.039 . S
C2163 O2168 1.246 . S
C2163 O2169 1.249 . S
O2164 C2146 1.254 . S
O2164 Zn2161 2.025 . S
H2165 C2157 0.952 . S
H2166 C2148 0.952 . S
H2167 C2156 0.948 . S
O2168 Zn2153 2.034 . S
O2168 C2163 1.246 . S
O2169 Zn2161 2.024 . S
O2169 C2163 1.249 . S
H2170 C2152 0.948 . S
O2171 Zn2161 2.039 . S
O2171 C2175 1.251 . S
O2172 Zn2153 2.025 . S
O2172 C2175 1.254 . S
O2173 C2154 1.246 . S
O2173 Zn2161 2.034 . S
O2174 Zn2153 2.024 . S
O2174 C2154 1.249 . S
C2175 O2171 1.251 . S
C2175 O2172 1.254 . S
H2176 C2149 0.949 . S
H2177 C2151 0.950 . S
H2178 C2158 0.949 . S
H2179 C2160 0.950 . S
C2180 O2196 1.251 . S
C2180 O2198 1.254 . S
N2181 C2182 1.333 . S
N2181 C2186 1.307 . S
N2181 Zn2187 2.020 . S
C2182 N2181 1.333 . S
C2182 C2183 1.379 . S
C2182 H2200 0.952 . S
C2183 C2182 1.379 . S
C2183 C2184 1.390 . S
C2183 H2210 0.949 . S
C2184 C2183 1.390 . S
C2184 C2185 1.357 . S
C2185 C2184 1.357 . S
C2185 C2186 1.370 . S
C2185 H2211 0.950 . S
C2186 N2181 1.307 . S
C2186 C2185 1.370 . S
C2186 H2204 0.948 . S
Zn2187 N2181 2.020 . S
Zn2187 O2196 2.039 1_565 S
Zn2187 O2202 2.034 1_565 S
Zn2187 O2206 2.025 . S
Zn2187 O2208 2.024 . S
C2188 O2207 1.246 1_565 S
C2188 O2208 1.249 . S
N2189 C2190 1.307 . S
N2189 C2191 1.333 . S
N2189 Zn2195 2.020 . S
C2190 N2189 1.307 . S
C2190 C2194 1.370 . S
C2190 H2201 0.948 . S
C2191 N2189 1.333 . S
C2191 C2192 1.379 . S
C2191 H2199 0.952 . S
C2192 C2191 1.379 . S
C2192 C2193 1.390 . S
C2192 H2212 0.949 . S
C2193 C2192 1.390 . S
C2193 C2194 1.357 . S
C2194 C2190 1.370 . S
C2194 C2193 1.357 . S
C2194 H2213 0.950 . S
Zn2195 N2189 2.020 . S
Zn2195 O2198 2.025 . S
Zn2195 O2203 2.024 . S
Zn2195 O2205 2.039 . S
Zn2195 O2207 2.034 . S
O2196 C2180 1.251 . S
O2196 Zn2187 2.039 1_545 S
C2197 O2202 1.246 . S
C2197 O2203 1.249 . S
O2198 C2180 1.254 . S
O2198 Zn2195 2.025 . S
H2199 C2191 0.952 . S
H2200 C2182 0.952 . S
H2201 C2190 0.948 . S
O2202 Zn2187 2.034 1_545 S
O2202 C2197 1.246 . S
O2203 Zn2195 2.024 . S
O2203 C2197 1.249 . S
H2204 C2186 0.948 . S
O2205 Zn2195 2.039 . S
O2205 C2209 1.251 . S
O2206 Zn2187 2.025 . S
O2206 C2209 1.254 1_565 S
O2207 C2188 1.246 1_545 S
O2207 Zn2195 2.034 . S
O2208 Zn2187 2.024 . S
O2208 C2188 1.249 . S
C2209 O2205 1.251 . S
C2209 O2206 1.254 1_545 S
H2210 C2183 0.949 . S
H2211 C2185 0.950 . S
H2212 C2192 0.949 . S
H2213 C2194 0.950 . S
C2214 O2230 1.251 . S
C2214 O2232 1.254 . S
N2215 C2216 1.333 . S
N2215 C2220 1.307 . S
N2215 Zn2221 2.020 . S
C2216 N2215 1.333 . S
C2216 C2217 1.379 . S
C2216 H2234 0.952 . S
C2217 C2216 1.379 . S
C2217 C2218 1.390 . S
C2217 H2244 0.949 . S
C2218 C2217 1.390 . S
C2218 C2219 1.357 . S
C2219 C2218 1.357 . S
C2219 C2220 1.370 . S
C2219 H2245 0.950 . S
C2220 N2215 1.307 . S
C2220 C2219 1.370 . S
C2220 H2238 0.948 . S
Zn2221 N2215 2.020 . S
Zn2221 O2230 2.039 . S
Zn2221 O2236 2.034 . S
Zn2221 O2240 2.025 . S
Zn2221 O2242 2.024 . S
C2222 O2241 1.246 . S
C2222 O2242 1.249 . S
N2223 C2224 1.307 . S
N2223 C2225 1.333 . S
N2223 Zn2229 2.020 . S
C2224 N2223 1.307 . S
C2224 C2228 1.370 . S
C2224 H2235 0.948 . S
C2225 N2223 1.333 . S
C2225 C2226 1.379 . S
C2225 H2233 0.952 . S
C2226 C2225 1.379 . S
C2226 C2227 1.390 . S
C2226 H2246 0.949 . S
C2227 C2226 1.390 . S
C2227 C2228 1.357 . S
C2228 C2224 1.370 . S
C2228 C2227 1.357 . S
C2228 H2247 0.950 . S
Zn2229 N2223 2.020 . S
Zn2229 O2232 2.025 . S
Zn2229 O2237 2.024 . S
Zn2229 O2239 2.039 . S
Zn2229 O2241 2.034 . S
O2230 C2214 1.251 . S
O2230 Zn2221 2.039 . S
C2231 O2236 1.246 . S
C2231 O2237 1.249 . S
O2232 C2214 1.254 . S
O2232 Zn2229 2.025 . S
H2233 C2225 0.952 . S
H2234 C2216 0.952 . S
H2235 C2224 0.948 . S
O2236 Zn2221 2.034 . S
O2236 C2231 1.246 . S
O2237 Zn2229 2.024 . S
O2237 C2231 1.249 . S
H2238 C2220 0.948 . S
O2239 Zn2229 2.039 . S
O2239 C2243 1.251 . S
O2240 Zn2221 2.025 . S
O2240 C2243 1.254 . S
O2241 C2222 1.246 . S
O2241 Zn2229 2.034 . S
O2242 Zn2221 2.024 . S
O2242 C2222 1.249 . S
C2243 O2239 1.251 . S
C2243 O2240 1.254 . S
H2244 C2217 0.949 . S
H2245 C2219 0.950 . S
H2246 C2226 0.949 . S
H2247 C2228 0.950 . S
C2248 O2264 1.251 1_565 S
C2248 O2266 1.254 . S
N2249 C2250 1.333 . S
N2249 C2254 1.307 . S
N2249 Zn2255 2.020 . S
C2250 N2249 1.333 . S
C2250 C2251 1.379 . S
C2250 H2268 0.952 . S
C2251 C2250 1.379 . S
C2251 C2252 1.390 . S
C2251 H2278 0.949 . S
C2252 C2251 1.390 . S
C2252 C2253 1.357 . S
C2253 C2252 1.357 . S
C2253 C2254 1.370 . S
C2253 H2279 0.950 . S
C2254 N2249 1.307 . S
C2254 C2253 1.370 . S
C2254 H2272 0.948 . S
Zn2255 N2249 2.020 . S
Zn2255 O2264 2.039 . S
Zn2255 O2270 2.034 . S
Zn2255 O2274 2.025 . S
Zn2255 O2276 2.024 1_545 S
C2256 O2275 1.246 . S
C2256 O2276 1.249 . S
N2257 C2258 1.307 . S
N2257 C2259 1.333 1_455 S
N2257 Zn2263 2.020 1_565 S
C2258 N2257 1.307 . S
C2258 C2262 1.370 . S
C2258 H2269 0.949 . S
C2259 N2257 1.333 1_655 S
C2259 C2260 1.379 . S
C2259 H2267 0.952 . S
C2260 C2259 1.379 . S
C2260 C2261 1.390 . S
C2260 H2280 0.949 . S
C2261 C2260 1.390 . S
C2261 C2262 1.357 1_655 S
C2262 C2258 1.370 . S
C2262 C2261 1.357 1_455 S
C2262 H2281 0.950 . S
Zn2263 N2257 2.020 1_545 S
Zn2263 O2266 2.025 1_545 S
Zn2263 O2271 2.024 . S
Zn2263 O2273 2.039 1_455 S
Zn2263 O2275 2.034 1_545 S
O2264 C2248 1.251 1_545 S
O2264 Zn2255 2.039 . S
C2265 O2270 1.246 . S
C2265 O2271 1.249 . S
O2266 C2248 1.254 . S
O2266 Zn2263 2.025 1_565 S
H2267 C2259 0.952 . S
H2268 C2250 0.952 . S
H2269 C2258 0.949 . S
O2270 Zn2255 2.034 . S
O2270 C2265 1.246 . S
O2271 Zn2263 2.024 . S
O2271 C2265 1.249 . S
H2272 C2254 0.948 . S
O2273 Zn2263 2.039 1_655 S
O2273 C2277 1.251 . S
O2274 Zn2255 2.025 . S
O2274 C2277 1.254 1_455 S
O2275 C2256 1.246 . S
O2275 Zn2263 2.034 1_565 S
O2276 Zn2255 2.024 1_565 S
O2276 C2256 1.249 . S
C2277 O2273 1.251 . S
C2277 O2274 1.254 1_655 S
H2278 C2251 0.949 . S
H2279 C2253 0.950 . S
H2280 C2260 0.949 . S
H2281 C2262 0.950 . S
C2282 O2298 1.251 . S
C2282 O2300 1.254 . S
N2283 C2284 1.333 . S
N2283 C2288 1.307 . S
N2283 Zn2289 2.020 . S
C2284 N2283 1.333 . S
C2284 C2285 1.379 . S
C2284 H2302 0.952 . S
C2285 C2284 1.379 . S
C2285 C2286 1.390 . S
C2285 H2312 0.949 . S
C2286 C2285 1.390 . S
C2286 C2287 1.357 . S
C2287 C2286 1.357 . S
C2287 C2288 1.370 . S
C2287 H2313 0.950 . S
C2288 N2283 1.307 . S
C2288 C2287 1.370 . S
C2288 H2306 0.948 . S
Zn2289 N2283 2.020 . S
Zn2289 O2298 2.039 . S
Zn2289 O2304 2.034 . S
Zn2289 O2308 2.025 . S
Zn2289 O2310 2.024 . S
C2290 O2309 1.246 . S
C2290 O2310 1.249 . S
N2291 C2292 1.307 . S
N2291 C2293 1.333 . S
N2291 Zn2297 2.020 . S
C2292 N2291 1.307 . S
C2292 C2296 1.370 . S
C2292 H2303 0.948 . S
C2293 N2291 1.333 . S
C2293 C2294 1.379 . S
C2293 H2301 0.952 . S
C2294 C2293 1.379 . S
C2294 C2295 1.390 . S
C2294 H2314 0.949 . S
C2295 C2294 1.390 . S
C2295 C2296 1.357 . S
C2296 C2292 1.370 . S
C2296 C2295 1.357 . S
C2296 H2315 0.950 . S
Zn2297 N2291 2.020 . S
Zn2297 O2300 2.025 . S
Zn2297 O2305 2.024 . S
Zn2297 O2307 2.039 . S
Zn2297 O2309 2.034 . S
O2298 C2282 1.251 . S
O2298 Zn2289 2.039 . S
C2299 O2304 1.246 . S
C2299 O2305 1.249 . S
O2300 C2282 1.254 . S
O2300 Zn2297 2.025 . S
H2301 C2293 0.952 . S
H2302 C2284 0.952 . S
H2303 C2292 0.948 . S
O2304 Zn2289 2.034 . S
O2304 C2299 1.246 . S
O2305 Zn2297 2.024 . S
O2305 C2299 1.249 . S
H2306 C2288 0.948 . S
O2307 Zn2297 2.039 . S
O2307 C2311 1.251 . S
O2308 Zn2289 2.025 . S
O2308 C2311 1.254 . S
O2309 C2290 1.246 . S
O2309 Zn2297 2.034 . S
O2310 Zn2289 2.024 . S
O2310 C2290 1.249 . S
C2311 O2307 1.251 . S
C2311 O2308 1.254 . S
H2312 C2285 0.949 . S
H2313 C2287 0.950 . S
H2314 C2294 0.949 . S
H2315 C2296 0.950 . S
C2316 O2332 1.251 . S
C2316 O2334 1.254 . S
N2317 C2318 1.333 . S
N2317 C2322 1.307 . S
N2317 Zn2323 2.020 . S
C2318 N2317 1.333 . S
C2318 C2319 1.379 . S
C2318 H2336 0.952 . S
C2319 C2318 1.379 . S
C2319 C2320 1.390 . S
C2319 H2346 0.949 . S
C2320 C2319 1.390 . S
C2320 C2321 1.357 . S
C2321 C2320 1.357 . S
C2321 C2322 1.370 . S
C2321 H2347 0.950 . S
C2322 N2317 1.307 . S
C2322 C2321 1.370 . S
C2322 H2340 0.948 . S
Zn2323 N2317 2.020 . S
Zn2323 O2332 2.039 1_545 S
Zn2323 O2338 2.034 . S
Zn2323 O2342 2.025 . S
Zn2323 O2344 2.024 . S
C2324 O2343 1.246 . S
C2324 O2344 1.249 1_565 S
N2325 C2326 1.307 . S
N2325 C2327 1.333 1_565 S
N2325 Zn2331 2.020 1_566 S
C2326 N2325 1.307 . S
C2326 C2330 1.370 . S
C2326 H2337 0.948 . S
C2327 N2325 1.333 1_545 S
C2327 C2328 1.379 . S
C2327 H2335 0.952 . S
C2328 C2327 1.379 . S
C2328 C2329 1.390 1_545 S
C2328 H2348 0.949 . S
C2329 C2328 1.390 1_565 S
C2329 C2330 1.357 . S
C2330 C2326 1.370 . S
C2330 C2329 1.357 . S
C2330 H2349 0.950 . S
Zn2331 N2325 2.020 1_544 S
Zn2331 O2334 2.025 1_545 S
Zn2331 O2339 2.024 . S
Zn2331 O2341 2.039 1_554 S
Zn2331 O2343 2.034 1_545 S
O2332 C2316 1.251 . S
O2332 Zn2323 2.039 1_565 S
C2333 O2338 1.246 . S
C2333 O2339 1.249 . S
O2334 C2316 1.254 . S
O2334 Zn2331 2.025 1_565 S
H2335 C2327 0.952 . S
H2336 C2318 0.952 . S
H2337 C2326 0.948 . S
O2338 Zn2323 2.034 . S
O2338 C2333 1.246 . S
O2339 Zn2331 2.024 . S
O2339 C2333 1.249 . S
H2340 C2322 0.948 . S
O2341 Zn2331 2.039 1_556 S
O2341 C2345 1.251 1_556 S
O2342 Zn2323 2.025 . S
O2342 C2345 1.254 . S
O2343 C2324 1.246 . S
O2343 Zn2331 2.034 1_565 S
O2344 Zn2323 2.024 . S
O2344 C2324 1.249 1_545 S
C2345 O2341 1.251 1_554 S
C2345 O2342 1.254 . S
H2346 C2319 0.949 . S
H2347 C2321 0.950 . S
H2348 C2328 0.949 . S
H2349 C2330 0.950 . S
C2350 O2366 1.251 . S
C2350 O2368 1.254 . S
N2351 C2352 1.333 . S
N2351 C2356 1.307 . S
N2351 Zn2357 2.020 . S
C2352 N2351 1.333 . S
C2352 C2353 1.379 . S
C2352 H2370 0.952 . S
C2353 C2352 1.379 . S
C2353 C2354 1.390 . S
C2353 H2380 0.949 . S
C2354 C2353 1.390 . S
C2354 C2355 1.357 . S
C2355 C2354 1.357 . S
C2355 C2356 1.370 . S
C2355 H2381 0.950 . S
C2356 N2351 1.307 . S
C2356 C2355 1.370 . S
C2356 H2374 0.948 . S
Zn2357 N2351 2.020 . S
Zn2357 O2366 2.039 . S
Zn2357 O2372 2.034 . S
Zn2357 O2376 2.025 . S
Zn2357 O2378 2.024 . S
C2358 O2377 1.246 . S
C2358 O2378 1.249 . S
N2359 C2360 1.307 . S
N2359 C2361 1.333 . S
N2359 Zn2365 2.020 . S
C2360 N2359 1.307 . S
C2360 C2364 1.370 . S
C2360 H2371 0.948 . S
C2361 N2359 1.333 . S
C2361 C2362 1.379 . S
C2361 H2369 0.952 . S
C2362 C2361 1.379 . S
C2362 C2363 1.390 . S
C2362 H2382 0.949 . S
C2363 C2362 1.390 . S
C2363 C2364 1.357 . S
C2364 C2360 1.370 . S
C2364 C2363 1.357 . S
C2364 H2383 0.950 . S
Zn2365 N2359 2.020 . S
Zn2365 O2368 2.025 . S
Zn2365 O2373 2.024 . S
Zn2365 O2375 2.039 . S
Zn2365 O2377 2.034 . S
O2366 C2350 1.251 . S
O2366 Zn2357 2.039 . S
C2367 O2372 1.246 . S
C2367 O2373 1.249 . S
O2368 C2350 1.254 . S
O2368 Zn2365 2.025 . S
H2369 C2361 0.952 . S
H2370 C2352 0.952 . S
H2371 C2360 0.948 . S
O2372 Zn2357 2.034 . S
O2372 C2367 1.246 . S
O2373 Zn2365 2.024 . S
O2373 C2367 1.249 . S
H2374 C2356 0.948 . S
O2375 Zn2365 2.039 . S
O2375 C2379 1.251 . S
O2376 Zn2357 2.025 . S
O2376 C2379 1.254 . S
O2377 C2358 1.246 . S
O2377 Zn2365 2.034 . S
O2378 Zn2357 2.024 . S
O2378 C2358 1.249 . S
C2379 O2375 1.251 . S
C2379 O2376 1.254 . S
H2380 C2353 0.949 . S
H2381 C2355 0.950 . S
H2382 C2362 0.949 . S
H2383 C2364 0.950 . S
C2384 O2400 1.251 . S
C2384 O2402 1.254 . S
N2385 C2386 1.333 . S
N2385 C2390 1.307 . S
N2385 Zn2391 2.020 1_556 S
C2386 N2385 1.333 . S
C2386 C2387 1.379 . S
C2386 H2404 0.952 . S
C2387 C2386 1.379 . S
C2387 C2388 1.390 . S
C2387 H2414 0.949 . S
C2388 C2387 1.390 . S
C2388 C2389 1.357 . S
C2389 C2388 1.357 . S
C2389 C2390 1.370 . S
C2389 H2415 0.950 . S
C2390 N2385 1.307 . S
C2390 C2389 1.370 . S
C2390 H2408 0.948 . S
Zn2391 N2385 2.020 1_554 S
Zn2391 O2400 2.039 . S
Zn2391 O2406 2.034 . S
Zn2391 O2410 2.025 1_554 S
Zn2391 O2412 2.024 1_554 S
C2392 O2411 1.246 . S
C2392 O2412 1.249 1_554 S
N2393 C2394 1.307 . S
N2393 C2395 1.333 . S
N2393 Zn2399 2.020 . S
C2394 N2393 1.307 . S
C2394 C2398 1.370 . S
C2394 H2405 0.948 . S
C2395 N2393 1.333 . S
C2395 C2396 1.379 . S
C2395 H2403 0.952 . S
C2396 C2395 1.379 . S
C2396 C2397 1.390 . S
C2396 H2416 0.949 . S
C2397 C2396 1.390 . S
C2397 C2398 1.357 . S
C2398 C2394 1.370 . S
C2398 C2397 1.357 . S
C2398 H2417 0.950 . S
Zn2399 N2393 2.020 . S
Zn2399 O2402 2.025 . S
Zn2399 O2407 2.024 . S
Zn2399 O2409 2.039 . S
Zn2399 O2411 2.034 . S
O2400 C2384 1.251 . S
O2400 Zn2391 2.039 . S
C2401 O2406 1.246 . S
C2401 O2407 1.249 . S
O2402 C2384 1.254 . S
O2402 Zn2399 2.025 . S
H2403 C2395 0.952 . S
H2404 C2386 0.952 . S
H2405 C2394 0.948 . S
O2406 Zn2391 2.034 . S
O2406 C2401 1.246 . S
O2407 Zn2399 2.024 . S
O2407 C2401 1.249 . S
H2408 C2390 0.948 . S
O2409 Zn2399 2.039 . S
O2409 C2413 1.251 . S
O2410 Zn2391 2.025 1_556 S
O2410 C2413 1.256 1_556 S
O2411 C2392 1.246 . S
O2411 Zn2399 2.034 . S
O2412 Zn2391 2.024 1_556 S
O2412 C2392 1.249 1_556 S
C2413 O2409 1.251 . S
C2413 O2410 1.256 1_554 S
H2414 C2387 0.949 . S
H2415 C2389 0.950 . S
H2416 C2396 0.949 . S
H2417 C2398 0.950 . S
C2418 O2434 1.251 . S
C2418 O2436 1.254 . S
N2419 C2420 1.333 . S
N2419 C2424 1.307 . S
N2419 Zn2425 2.020 . S
C2420 N2419 1.333 . S
C2420 C2421 1.379 . S
C2420 H2438 0.952 . S
C2421 C2420 1.379 . S
C2421 C2422 1.390 . S
C2421 H2448 0.949 . S
C2422 C2421 1.390 . S
C2422 C2423 1.357 . S
C2423 C2422 1.357 . S
C2423 C2424 1.370 . S
C2423 H2449 0.950 . S
C2424 N2419 1.307 . S
C2424 C2423 1.370 . S
C2424 H2442 0.948 . S
Zn2425 N2419 2.020 . S
Zn2425 O2434 2.039 . S
Zn2425 O2440 2.034 . S
Zn2425 O2444 2.025 . S
Zn2425 O2446 2.024 . S
C2426 O2445 1.246 . S
C2426 O2446 1.249 . S
N2427 C2428 1.307 . S
N2427 C2429 1.333 . S
N2427 Zn2433 2.020 . S
C2428 N2427 1.307 . S
C2428 C2432 1.370 . S
C2428 H2439 0.948 . S
C2429 N2427 1.333 . S
C2429 C2430 1.379 . S
C2429 H2437 0.952 . S
C2430 C2429 1.379 . S
C2430 C2431 1.390 . S
C2430 H2450 0.949 . S
C2431 C2430 1.390 . S
C2431 C2432 1.357 . S
C2432 C2428 1.370 . S
C2432 C2431 1.357 . S
C2432 H2451 0.950 . S
Zn2433 N2427 2.020 . S
Zn2433 O2436 2.025 . S
Zn2433 O2441 2.024 . S
Zn2433 O2443 2.039 . S
Zn2433 O2445 2.034 . S
O2434 C2418 1.251 . S
O2434 Zn2425 2.039 . S
C2435 O2440 1.246 . S
C2435 O2441 1.249 . S
O2436 C2418 1.254 . S
O2436 Zn2433 2.025 . S
H2437 C2429 0.952 . S
H2438 C2420 0.952 . S
H2439 C2428 0.948 . S
O2440 Zn2425 2.034 . S
O2440 C2435 1.246 . S
O2441 Zn2433 2.024 . S
O2441 C2435 1.249 . S
H2442 C2424 0.948 . S
O2443 Zn2433 2.039 . S
O2443 C2447 1.251 . S
O2444 Zn2425 2.025 . S
O2444 C2447 1.254 . S
O2445 C2426 1.246 . S
O2445 Zn2433 2.034 . S
O2446 Zn2425 2.024 . S
O2446 C2426 1.249 . S
C2447 O2443 1.251 . S
C2447 O2444 1.254 . S
H2448 C2421 0.949 . S
H2449 C2423 0.950 . S
H2450 C2430 0.949 . S
H2451 C2432 0.950 . S
C2452 O2468 1.251 . S
C2452 O2470 1.254 . S
N2453 C2454 1.333 . S
N2453 C2458 1.307 . S
N2453 Zn2459 2.020 . S
C2454 N2453 1.333 . S
C2454 C2455 1.379 . S
C2454 H2472 0.952 . S
C2455 C2454 1.379 . S
C2455 C2456 1.390 . S
C2455 H2482 0.949 . S
C2456 C2455 1.390 . S
C2456 C2457 1.357 . S
C2457 C2456 1.357 . S
C2457 C2458 1.370 . S
C2457 H2483 0.950 . S
C2458 N2453 1.307 . S
C2458 C2457 1.370 . S
C2458 H2476 0.948 . S
Zn2459 N2453 2.020 . S
Zn2459 O2468 2.039 . S
Zn2459 O2474 2.034 . S
Zn2459 O2478 2.025 . S
Zn2459 O2480 2.024 . S
C2460 O2479 1.246 . S
C2460 O2480 1.249 . S
N2461 C2462 1.307 1_455 S
N2461 C2463 1.333 . S
N2461 Zn2467 2.020 . S
C2462 N2461 1.307 1_655 S
C2462 C2466 1.370 . S
C2462 H2473 0.948 . S
C2463 N2461 1.333 . S
C2463 C2464 1.379 . S
C2463 H2471 0.952 . S
C2464 C2463 1.379 . S
C2464 C2465 1.390 1_455 S
C2464 H2484 0.949 . S
C2465 C2464 1.390 1_655 S
C2465 C2466 1.357 . S
C2466 C2462 1.370 . S
C2466 C2465 1.357 . S
C2466 H2485 0.950 . S
Zn2467 N2461 2.020 . S
Zn2467 O2470 2.025 . S
Zn2467 O2475 2.024 1_455 S
Zn2467 O2477 2.039 . S
Zn2467 O2479 2.034 . S
O2468 C2452 1.251 . S
O2468 Zn2459 2.039 . S
C2469 O2474 1.246 1_655 S
C2469 O2475 1.249 . S
O2470 C2452 1.254 . S
O2470 Zn2467 2.025 . S
H2471 C2463 0.952 . S
H2472 C2454 0.952 . S
H2473 C2462 0.948 . S
O2474 Zn2459 2.034 . S
O2474 C2469 1.246 1_455 S
O2475 Zn2467 2.024 1_655 S
O2475 C2469 1.249 . S
H2476 C2458 0.948 . S
O2477 Zn2467 2.039 . S
O2477 C2481 1.251 . S
O2478 Zn2459 2.025 . S
O2478 C2481 1.254 . S
O2479 C2460 1.246 . S
O2479 Zn2467 2.034 . S
O2480 Zn2459 2.024 . S
O2480 C2460 1.249 . S
C2481 O2477 1.251 . S
C2481 O2478 1.254 . S
H2482 C2455 0.949 . S
H2483 C2457 0.950 . S
H2484 C2464 0.949 . S
H2485 C2466 0.950 . S
C2486 O2502 1.251 . S
C2486 O2504 1.254 . S
N2487 C2488 1.333 . S
N2487 C2492 1.307 . S
N2487 Zn2493 2.020 . S
C2488 N2487 1.333 . S
C2488 C2489 1.379 . S
C2488 H2506 0.952 . S
C2489 C2488 1.379 . S
C2489 C2490 1.390 . S
C2489 H2516 0.949 . S
C2490 C2489 1.390 . S
C2490 C2491 1.357 . S
C2491 C2490 1.357 . S
C2491 C2492 1.370 . S
C2491 H2517 0.950 . S
C2492 N2487 1.307 . S
C2492 C2491 1.370 . S
C2492 H2510 0.948 . S
Zn2493 N2487 2.020 . S
Zn2493 O2502 2.039 . S
Zn2493 O2508 2.034 . S
Zn2493 O2512 2.025 . S
Zn2493 O2514 2.024 . S
C2494 O2513 1.246 . S
C2494 O2514 1.249 . S
N2495 C2496 1.307 . S
N2495 C2497 1.333 . S
N2495 Zn2501 2.020 . S
C2496 N2495 1.307 . S
C2496 C2500 1.370 . S
C2496 H2507 0.948 . S
C2497 N2495 1.333 . S
C2497 C2498 1.379 . S
C2497 H2505 0.952 . S
C2498 C2497 1.379 . S
C2498 C2499 1.390 . S
C2498 H2518 0.949 . S
C2499 C2498 1.390 . S
C2499 C2500 1.357 . S
C2500 C2496 1.370 . S
C2500 C2499 1.357 . S
C2500 H2519 0.950 . S
Zn2501 N2495 2.020 . S
Zn2501 O2504 2.025 . S
Zn2501 O2509 2.024 . S
Zn2501 O2511 2.039 . S
Zn2501 O2513 2.034 . S
O2502 C2486 1.251 . S
O2502 Zn2493 2.039 . S
C2503 O2508 1.246 . S
C2503 O2509 1.249 . S
O2504 C2486 1.254 . S
O2504 Zn2501 2.025 . S
H2505 C2497 0.952 . S
H2506 C2488 0.952 . S
H2507 C2496 0.948 . S
O2508 Zn2493 2.034 . S
O2508 C2503 1.246 . S
O2509 Zn2501 2.024 . S
O2509 C2503 1.249 . S
H2510 C2492 0.948 . S
O2511 Zn2501 2.039 . S
O2511 C2515 1.251 . S
O2512 Zn2493 2.025 . S
O2512 C2515 1.254 . S
O2513 C2494 1.246 . S
O2513 Zn2501 2.034 . S
O2514 Zn2493 2.024 . S
O2514 C2494 1.249 . S
C2515 O2511 1.251 . S
C2515 O2512 1.254 . S
H2516 C2489 0.949 . S
H2517 C2491 0.950 . S
H2518 C2498 0.949 . S
H2519 C2500 0.950 . S
C2520 O2536 1.251 . S
C2520 O2538 1.254 . S
N2521 C2522 1.333 . S
N2521 C2526 1.307 . S
N2521 Zn2527 2.020 . S
C2522 N2521 1.333 . S
C2522 C2523 1.379 . S
C2522 H2540 0.952 . S
C2523 C2522 1.379 . S
C2523 C2524 1.390 . S
C2523 H2550 0.949 . S
C2524 C2523 1.390 . S
C2524 C2525 1.357 . S
C2525 C2524 1.357 . S
C2525 C2526 1.370 . S
C2525 H2551 0.950 . S
C2526 N2521 1.307 . S
C2526 C2525 1.370 . S
C2526 H2544 0.948 . S
Zn2527 N2521 2.020 . S
Zn2527 O2536 2.039 . S
Zn2527 O2542 2.034 . S
Zn2527 O2546 2.025 . S
Zn2527 O2548 2.024 . S
C2528 O2547 1.246 . S
C2528 O2548 1.249 . S
N2529 C2530 1.307 . S
N2529 C2531 1.333 . S
N2529 Zn2535 2.020 . S
C2530 N2529 1.307 . S
C2530 C2534 1.370 . S
C2530 H2541 0.948 . S
C2531 N2529 1.333 . S
C2531 C2532 1.379 . S
C2531 H2539 0.952 . S
C2532 C2531 1.379 . S
C2532 C2533 1.390 . S
C2532 H2552 0.949 . S
C2533 C2532 1.390 . S
C2533 C2534 1.357 . S
C2534 C2530 1.370 . S
C2534 C2533 1.357 . S
C2534 H2553 0.950 . S
Zn2535 N2529 2.020 . S
Zn2535 O2538 2.025 . S
Zn2535 O2543 2.024 . S
Zn2535 O2545 2.039 . S
Zn2535 O2547 2.034 . S
O2536 C2520 1.251 . S
O2536 Zn2527 2.039 . S
C2537 O2542 1.246 . S
C2537 O2543 1.249 . S
O2538 C2520 1.254 . S
O2538 Zn2535 2.025 . S
H2539 C2531 0.952 . S
H2540 C2522 0.952 . S
H2541 C2530 0.948 . S
O2542 Zn2527 2.034 . S
O2542 C2537 1.246 . S
O2543 Zn2535 2.024 . S
O2543 C2537 1.249 . S
H2544 C2526 0.948 . S
O2545 Zn2535 2.039 . S
O2545 C2549 1.251 . S
O2546 Zn2527 2.025 . S
O2546 C2549 1.254 . S
O2547 C2528 1.246 . S
O2547 Zn2535 2.034 . S
O2548 Zn2527 2.024 . S
O2548 C2528 1.249 . S
C2549 O2545 1.251 . S
C2549 O2546 1.254 . S
H2550 C2523 0.949 . S
H2551 C2525 0.950 . S
H2552 C2532 0.949 . S
H2553 C2534 0.950 . S
C2554 O2570 1.251 . S
C2554 O2572 1.254 . S
N2555 C2556 1.333 . S
N2555 C2560 1.307 . S
N2555 Zn2561 2.020 . S
C2556 N2555 1.333 . S
C2556 C2557 1.379 . S
C2556 H2574 0.952 . S
C2557 C2556 1.379 . S
C2557 C2558 1.390 . S
C2557 H2584 0.949 . S
C2558 C2557 1.390 . S
C2558 C2559 1.357 . S
C2559 C2558 1.357 . S
C2559 C2560 1.370 . S
C2559 H2585 0.950 . S
C2560 N2555 1.307 . S
C2560 C2559 1.370 . S
C2560 H2578 0.948 . S
Zn2561 N2555 2.020 . S
Zn2561 O2570 2.039 . S
Zn2561 O2576 2.034 . S
Zn2561 O2580 2.025 . S
Zn2561 O2582 2.024 . S
C2562 O2581 1.246 . S
C2562 O2582 1.249 . S
N2563 C2564 1.307 . S
N2563 C2565 1.333 . S
N2563 Zn2569 2.020 . S
C2564 N2563 1.307 . S
C2564 C2568 1.370 . S
C2564 H2575 0.948 . S
C2565 N2563 1.333 . S
C2565 C2566 1.379 . S
C2565 H2573 0.952 . S
C2566 C2565 1.379 . S
C2566 C2567 1.390 . S
C2566 H2586 0.949 . S
C2567 C2566 1.390 . S
C2567 C2568 1.357 . S
C2568 C2564 1.370 . S
C2568 C2567 1.357 . S
C2568 H2587 0.950 . S
Zn2569 N2563 2.020 . S
Zn2569 O2572 2.025 . S
Zn2569 O2577 2.024 . S
Zn2569 O2579 2.039 . S
Zn2569 O2581 2.034 . S
O2570 C2554 1.251 . S
O2570 Zn2561 2.039 . S
C2571 O2576 1.246 . S
C2571 O2577 1.249 . S
O2572 C2554 1.254 . S
O2572 Zn2569 2.025 . S
H2573 C2565 0.952 . S
H2574 C2556 0.952 . S
H2575 C2564 0.948 . S
O2576 Zn2561 2.034 . S
O2576 C2571 1.246 . S
O2577 Zn2569 2.024 . S
O2577 C2571 1.249 . S
H2578 C2560 0.948 . S
O2579 Zn2569 2.039 . S
O2579 C2583 1.251 . S
O2580 Zn2561 2.025 . S
O2580 C2583 1.254 . S
O2581 C2562 1.246 . S
O2581 Zn2569 2.034 . S
O2582 Zn2561 2.024 . S
O2582 C2562 1.249 . S
C2583 O2579 1.251 . S
C2583 O2580 1.254 . S
H2584 C2557 0.949 . S
H2585 C2559 0.950 . S
H2586 C2566 0.949 . S
H2587 C2568 0.950 . S
C2588 O2604 1.251 . S
C2588 O2606 1.254 . S
N2589 C2590 1.333 . S
N2589 C2594 1.307 . S
N2589 Zn2595 2.020 . S
C2590 N2589 1.333 . S
C2590 C2591 1.379 . S
C2590 H2608 0.952 . S
C2591 C2590 1.379 . S
C2591 C2592 1.390 . S
C2591 H2618 0.949 . S
C2592 C2591 1.390 . S
C2592 C2593 1.357 . S
C2593 C2592 1.357 . S
C2593 C2594 1.370 . S
C2593 H2619 0.950 . S
C2594 N2589 1.307 . S
C2594 C2593 1.370 . S
C2594 H2612 0.948 . S
Zn2595 N2589 2.020 . S
Zn2595 O2604 2.039 . S
Zn2595 O2610 2.034 . S
Zn2595 O2614 2.025 . S
Zn2595 O2616 2.024 . S
C2596 O2615 1.246 . S
C2596 O2616 1.249 . S
N2597 C2598 1.307 . S
N2597 C2599 1.333 . S
N2597 Zn2603 2.020 . S
C2598 N2597 1.307 . S
C2598 C2602 1.370 . S
C2598 H2609 0.948 . S
C2599 N2597 1.333 . S
C2599 C2600 1.379 . S
C2599 H2607 0.952 . S
C2600 C2599 1.379 . S
C2600 C2601 1.390 . S
C2600 H2620 0.949 . S
C2601 C2600 1.390 . S
C2601 C2602 1.357 . S
C2602 C2598 1.370 . S
C2602 C2601 1.357 . S
C2602 H2621 0.950 . S
Zn2603 N2597 2.020 . S
Zn2603 O2606 2.025 . S
Zn2603 O2611 2.024 . S
Zn2603 O2613 2.039 . S
Zn2603 O2615 2.034 . S
O2604 C2588 1.251 . S
O2604 Zn2595 2.039 . S
C2605 O2610 1.246 . S
C2605 O2611 1.249 . S
O2606 C2588 1.254 . S
O2606 Zn2603 2.025 . S
H2607 C2599 0.952 . S
H2608 C2590 0.952 . S
H2609 C2598 0.948 . S
O2610 Zn2595 2.034 . S
O2610 C2605 1.246 . S
O2611 Zn2603 2.024 . S
O2611 C2605 1.249 . S
H2612 C2594 0.948 . S
O2613 Zn2603 2.039 . S
O2613 C2617 1.251 . S
O2614 Zn2595 2.025 . S
O2614 C2617 1.254 . S
O2615 C2596 1.246 . S
O2615 Zn2603 2.034 . S
O2616 Zn2595 2.024 . S
O2616 C2596 1.249 . S
C2617 O2613 1.251 . S
C2617 O2614 1.254 . S
H2618 C2591 0.949 . S
H2619 C2593 0.950 . S
H2620 C2600 0.949 . S
H2621 C2602 0.950 . S
C2622 O2638 1.251 . S
C2622 O2640 1.254 . S
N2623 C2624 1.333 . S
N2623 C2628 1.307 . S
N2623 Zn2629 2.020 . S
C2624 N2623 1.333 . S
C2624 C2625 1.379 . S
C2624 H2642 0.952 . S
C2625 C2624 1.379 . S
C2625 C2626 1.390 . S
C2625 H2652 0.949 . S
C2626 C2625 1.390 . S
C2626 C2627 1.357 . S
C2627 C2626 1.357 . S
C2627 C2628 1.370 . S
C2627 H2653 0.950 . S
C2628 N2623 1.307 . S
C2628 C2627 1.370 . S
C2628 H2646 0.948 . S
Zn2629 N2623 2.020 . S
Zn2629 O2638 2.039 . S
Zn2629 O2644 2.034 . S
Zn2629 O2648 2.040 . S
Zn2629 O2650 2.024 . S
C2630 O2649 1.246 . S
C2630 O2650 1.249 1_655 S
N2631 C2632 1.307 . S
N2631 C2633 1.333 1_554 S
N2631 Zn2637 2.020 . S
C2632 N2631 1.307 . S
C2632 C2636 1.370 . S
C2632 H2643 0.948 . S
C2633 N2631 1.333 1_556 S
C2633 C2634 1.383 . S
C2633 H2641 0.952 . S
C2634 C2633 1.383 . S
C2634 C2635 1.388 1_455 S
C2634 H2654 0.947 1_455 S
C2635 C2634 1.388 1_655 S
C2635 C2636 1.357 1_656 S
C2636 C2632 1.370 . S
C2636 C2635 1.357 1_454 S
C2636 H2655 0.950 . S
Zn2637 N2631 2.020 . S
Zn2637 O2640 2.025 . S
Zn2637 O2645 2.024 . S
Zn2637 O2647 2.039 1_554 S
Zn2637 O2649 2.034 1_455 S
O2638 C2622 1.251 . S
O2638 Zn2629 2.039 . S
C2639 O2644 1.246 . S
C2639 O2645 1.249 . S
O2640 C2622 1.254 . S
O2640 Zn2637 2.025 . S
H2641 C2633 0.952 . S
H2642 C2624 0.952 . S
H2643 C2632 0.948 . S
O2644 Zn2629 2.034 . S
O2644 C2639 1.246 . S
O2645 Zn2637 2.024 . S
O2645 C2639 1.249 . S
H2646 C2628 0.948 . S
O2647 Zn2637 2.039 1_556 S
O2647 C2651 1.251 . S
O2648 Zn2629 2.040 . S
O2648 C2651 1.244 1_554 S
O2649 C2630 1.246 . S
O2649 Zn2637 2.034 1_655 S
O2650 Zn2629 2.024 . S
O2650 C2630 1.249 1_455 S
C2651 O2647 1.251 . S
C2651 O2648 1.244 1_556 S
H2652 C2625 0.949 . S
H2653 C2627 0.950 . S
H2654 C2634 0.947 1_655 S
H2655 C2636 0.950 . S
C2656 C2657 1.369 . S
C2656 C2658 1.419 . S
C2656 H2660 0.930 . S
C2657 C2656 1.369 . S
C2657 C2666 1.429 . S
C2658 C2656 1.419 . S
C2658 C2659 1.363 . S
C2658 H2661 0.929 . S
C2659 C2658 1.363 . S
C2659 C2665 1.428 . S
H2660 C2656 0.930 . S
H2661 C2658 0.929 . S
S2662 N2663 1.613 . S
S2662 N2664 1.610 . S
N2663 S2662 1.613 . S
N2663 C2666 1.350 . S
N2664 S2662 1.610 . S
N2664 C2665 1.351 . S
C2665 C2659 1.428 . S
C2665 N2664 1.351 . S
C2665 C2666 1.434 . S
C2666 C2657 1.429 . S
C2666 N2663 1.350 . S
C2666 C2665 1.434 . S
C2667 C2668 1.369 . S
C2667 C2669 1.419 . S
C2667 H2671 0.930 . S
C2668 C2667 1.369 . S
C2668 C2677 1.429 . S
C2669 C2667 1.419 . S
C2669 C2670 1.363 . S
C2669 H2672 0.929 . S
C2670 C2669 1.363 . S
C2670 C2676 1.428 . S
H2671 C2667 0.930 . S
H2672 C2669 0.929 . S
S2673 N2674 1.613 . S
S2673 N2675 1.610 . S
N2674 S2673 1.613 . S
N2674 C2677 1.350 . S
N2675 S2673 1.610 . S
N2675 C2676 1.351 . S
C2676 C2670 1.428 . S
C2676 N2675 1.351 . S
C2676 C2677 1.434 . S
C2677 C2668 1.429 . S
C2677 N2674 1.350 . S
C2677 C2676 1.434 . S
C2678 C2679 1.369 . S
C2678 C2680 1.419 . S
C2678 H2682 0.930 . S
C2679 C2678 1.369 . S
C2679 C2688 1.429 . S
C2680 C2678 1.419 . S
C2680 C2681 1.363 . S
C2680 H2683 0.929 . S
C2681 C2680 1.363 . S
C2681 C2687 1.428 . S
H2682 C2678 0.930 . S
H2683 C2680 0.929 . S
S2684 N2685 1.613 . S
S2684 N2686 1.610 . S
N2685 S2684 1.613 . S
N2685 C2688 1.350 . S
N2686 S2684 1.610 . S
N2686 C2687 1.351 . S
C2687 C2681 1.428 . S
C2687 N2686 1.351 . S
C2687 C2688 1.434 . S
C2688 C2679 1.429 . S
C2688 N2685 1.350 . S
C2688 C2687 1.434 . S
C2689 C2690 1.369 . S
C2689 C2691 1.419 . S
C2689 H2693 0.930 . S
C2690 C2689 1.369 . S
C2690 C2699 1.429 . S
C2691 C2689 1.419 . S
C2691 C2692 1.363 . S
C2691 H2694 0.929 . S
C2692 C2691 1.363 . S
C2692 C2698 1.428 . S
H2693 C2689 0.930 . S
H2694 C2691 0.929 . S
S2695 N2696 1.613 . S
S2695 N2697 1.610 . S
N2696 S2695 1.613 . S
N2696 C2699 1.350 . S
N2697 S2695 1.610 . S
N2697 C2698 1.351 . S
C2698 C2692 1.428 . S
C2698 N2697 1.351 . S
C2698 C2699 1.434 . S
C2699 C2690 1.429 . S
C2699 N2696 1.350 . S
C2699 C2698 1.434 . S
C2700 C2701 1.369 . S
C2700 C2702 1.419 . S
C2700 H2704 0.930 . S
C2701 C2700 1.369 . S
C2701 C2710 1.429 . S
C2702 C2700 1.419 . S
C2702 C2703 1.363 . S
C2702 H2705 0.929 . S
C2703 C2702 1.363 . S
C2703 C2709 1.428 . S
H2704 C2700 0.930 . S
H2705 C2702 0.929 . S
S2706 N2707 1.613 . S
S2706 N2708 1.610 . S
N2707 S2706 1.613 . S
N2707 C2710 1.350 1_655 S
N2708 S2706 1.610 . S
N2708 C2709 1.351 1_655 S
C2709 C2703 1.428 . S
C2709 N2708 1.351 1_455 S
C2709 C2710 1.434 . S
C2710 C2701 1.429 . S
C2710 N2707 1.350 1_455 S
C2710 C2709 1.434 . S
C2711 C2712 1.369 . S
C2711 C2713 1.419 . S
C2711 H2715 0.930 . S
C2712 C2711 1.369 . S
C2712 C2721 1.429 . S
C2713 C2711 1.419 . S
C2713 C2714 1.363 . S
C2713 H2716 0.929 . S
C2714 C2713 1.363 . S
C2714 C2720 1.428 . S
H2715 C2711 0.930 . S
H2716 C2713 0.929 . S
S2717 N2718 1.613 . S
S2717 N2719 1.610 . S
N2718 S2717 1.613 . S
N2718 C2721 1.350 . S
N2719 S2717 1.610 . S
N2719 C2720 1.351 . S
C2720 C2714 1.428 . S
C2720 N2719 1.351 . S
C2720 C2721 1.434 . S
C2721 C2712 1.429 . S
C2721 N2718 1.350 . S
C2721 C2720 1.434 . S
C2722 C2723 1.369 . S
C2722 C2724 1.419 . S
C2722 H2726 0.930 . S
C2723 C2722 1.369 . S
C2723 C2732 1.429 1_556 S
C2724 C2722 1.419 . S
C2724 C2725 1.398 . S
C2724 H2727 0.929 . S
C2725 C2724 1.398 . S
C2725 C2731 1.409 1_556 S
H2726 C2722 0.930 . S
H2727 C2724 0.929 . S
S2728 N2729 1.613 . S
S2728 N2730 1.610 . S
N2729 S2728 1.613 . S
N2729 C2732 1.350 . S
N2730 S2728 1.610 . S
N2730 C2731 1.351 . S
C2731 C2725 1.409 1_554 S
C2731 N2730 1.351 . S
C2731 C2732 1.434 . S
C2732 C2723 1.429 1_554 S
C2732 N2729 1.350 . S
C2732 C2731 1.434 . S
C2733 C2734 1.369 . S
C2733 C2735 1.419 . S
C2733 H2737 0.930 . S
C2734 C2733 1.369 . S
C2734 C2743 1.429 . S
C2735 C2733 1.419 . S
C2735 C2736 1.363 . S
C2735 H2738 0.929 . S
C2736 C2735 1.363 . S
C2736 C2742 1.428 . S
H2737 C2733 0.930 . S
H2738 C2735 0.929 . S
S2739 N2740 1.613 . S
S2739 N2741 1.610 . S
N2740 S2739 1.613 . S
N2740 C2743 1.350 . S
N2741 S2739 1.610 . S
N2741 C2742 1.351 . S
C2742 C2736 1.428 . S
C2742 N2741 1.351 . S
C2742 C2743 1.434 . S
C2743 C2734 1.429 . S
C2743 N2740 1.350 . S
C2743 C2742 1.434 . S
C2744 C2745 1.369 . S
C2744 C2746 1.419 . S
C2744 H2748 0.930 . S
C2745 C2744 1.369 . S
C2745 C2754 1.429 1_545 S
C2746 C2744 1.419 . S
C2746 C2747 1.342 1_545 S
C2746 H2749 0.929 . S
C2747 C2746 1.342 1_565 S
C2747 C2753 1.443 . S
H2748 C2744 0.930 . S
H2749 C2746 0.929 . S
S2750 N2751 1.613 . S
S2750 N2752 1.610 . S
N2751 S2750 1.613 . S
N2751 C2754 1.350 . S
N2752 S2750 1.610 . S
N2752 C2753 1.351 . S
C2753 C2747 1.443 . S
C2753 N2752 1.351 . S
C2753 C2754 1.434 . S
C2754 C2745 1.429 1_565 S
C2754 N2751 1.350 . S
C2754 C2753 1.434 . S
C2755 C2756 1.369 . S
C2755 C2757 1.419 . S
C2755 H2759 0.930 . S
C2756 C2755 1.369 . S
C2756 C2765 1.429 . S
C2757 C2755 1.419 . S
C2757 C2758 1.363 . S
C2757 H2760 0.929 . S
C2758 C2757 1.363 . S
C2758 C2764 1.428 . S
H2759 C2755 0.930 . S
H2760 C2757 0.929 . S
S2761 N2762 1.613 . S
S2761 N2763 1.610 . S
N2762 S2761 1.613 . S
N2762 C2765 1.350 . S
N2763 S2761 1.610 . S
N2763 C2764 1.351 . S
C2764 C2758 1.428 . S
C2764 N2763 1.351 . S
C2764 C2765 1.434 . S
C2765 C2756 1.429 . S
C2765 N2762 1.350 . S
C2765 C2764 1.434 . S
C2766 C2767 1.369 . S
C2766 C2768 1.419 . S
C2766 H2770 0.930 . S
C2767 C2766 1.369 . S
C2767 C2776 1.429 . S
C2768 C2766 1.419 . S
C2768 C2769 1.363 . S
C2768 H2771 0.929 . S
C2769 C2768 1.363 . S
C2769 C2775 1.428 . S
H2770 C2766 0.930 . S
H2771 C2768 0.929 . S
S2772 N2773 1.613 . S
S2772 N2774 1.610 . S
N2773 S2772 1.613 . S
N2773 C2776 1.350 . S
N2774 S2772 1.610 . S
N2774 C2775 1.351 . S
C2775 C2769 1.428 . S
C2775 N2774 1.351 . S
C2775 C2776 1.434 . S
C2776 C2767 1.429 . S
C2776 N2773 1.350 . S
C2776 C2775 1.434 . S
C2777 C2778 1.369 . S
C2777 C2779 1.419 . S
C2777 H2781 0.930 . S
C2778 C2777 1.369 . S
C2778 C2787 1.429 . S
C2779 C2777 1.419 . S
C2779 C2780 1.363 . S
C2779 H2782 0.929 . S
C2780 C2779 1.363 . S
C2780 C2786 1.428 . S
H2781 C2777 0.930 . S
H2782 C2779 0.929 . S
S2783 N2784 1.613 . S
S2783 N2785 1.610 . S
N2784 S2783 1.613 . S
N2784 C2787 1.350 . S
N2785 S2783 1.610 . S
N2785 C2786 1.351 . S
C2786 C2780 1.428 . S
C2786 N2785 1.351 . S
C2786 C2787 1.434 . S
C2787 C2778 1.429 . S
C2787 N2784 1.350 . S
C2787 C2786 1.434 . S
C2788 C2789 1.369 . S
C2788 C2790 1.419 . S
C2788 H2792 0.930 . S
C2789 C2788 1.369 . S
C2789 C2798 1.429 . S
C2790 C2788 1.419 . S
C2790 C2791 1.363 . S
C2790 H2793 0.929 . S
C2791 C2790 1.363 . S
C2791 C2797 1.428 . S
H2792 C2788 0.930 . S
H2793 C2790 0.929 . S
S2794 N2795 1.613 . S
S2794 N2796 1.610 1_565 S
N2795 S2794 1.613 . S
N2795 C2798 1.350 1_565 S
N2796 S2794 1.610 1_545 S
N2796 C2797 1.351 . S
C2797 C2791 1.428 . S
C2797 N2796 1.351 . S
C2797 C2798 1.434 . S
C2798 C2789 1.429 . S
C2798 N2795 1.350 1_545 S
C2798 C2797 1.434 . S
C2799 C2800 1.369 . S
C2799 C2801 1.419 . S
C2799 H2803 0.930 . S
C2800 C2799 1.369 . S
C2800 C2809 1.429 . S
C2801 C2799 1.419 . S
C2801 C2802 1.363 . S
C2801 H2804 0.929 . S
C2802 C2801 1.363 . S
C2802 C2808 1.428 . S
H2803 C2799 0.930 . S
H2804 C2801 0.929 . S
S2805 N2806 1.613 . S
S2805 N2807 1.610 . S
N2806 S2805 1.613 . S
N2806 C2809 1.350 . S
N2807 S2805 1.610 . S
N2807 C2808 1.351 . S
C2808 C2802 1.428 . S
C2808 N2807 1.351 . S
C2808 C2809 1.434 . S
C2809 C2800 1.429 . S
C2809 N2806 1.350 . S
C2809 C2808 1.434 . S
C2810 C2811 1.369 1_565 S
C2810 C2812 1.419 . S
C2810 H2814 0.930 . S
C2811 C2810 1.369 1_545 S
C2811 C2820 1.429 . S
C2812 C2810 1.419 . S
C2812 C2813 1.363 . S
C2812 H2815 0.929 . S
C2813 C2812 1.363 . S
C2813 C2819 1.428 1_565 S
H2814 C2810 0.930 . S
H2815 C2812 0.929 . S
S2816 N2817 1.613 . S
S2816 N2818 1.610 . S
N2817 S2816 1.613 . S
N2817 C2820 1.350 . S
N2818 S2816 1.610 . S
N2818 C2819 1.351 . S
C2819 C2813 1.428 1_545 S
C2819 N2818 1.351 . S
C2819 C2820 1.434 . S
C2820 C2811 1.429 . S
C2820 N2817 1.350 . S
C2820 C2819 1.434 . S
C2821 C2822 1.369 . S
C2821 C2823 1.419 . S
C2821 H2825 0.930 . S
C2822 C2821 1.369 . S
C2822 C2831 1.429 . S
C2823 C2821 1.419 . S
C2823 C2824 1.363 . S
C2823 H2826 0.929 . S
C2824 C2823 1.363 . S
C2824 C2830 1.428 . S
H2825 C2821 0.930 . S
H2826 C2823 0.929 . S
S2827 N2828 1.613 . S
S2827 N2829 1.610 . S
N2828 S2827 1.613 . S
N2828 C2831 1.350 . S
N2829 S2827 1.610 . S
N2829 C2830 1.351 . S
C2830 C2824 1.428 . S
C2830 N2829 1.351 . S
C2830 C2831 1.434 . S
C2831 C2822 1.429 . S
C2831 N2828 1.350 . S
C2831 C2830 1.434 . S
C2832 C2833 1.369 . S
C2832 C2834 1.419 1_554 S
C2832 H2836 0.930 1_554 S
C2833 C2832 1.369 . S
C2833 C2842 1.429 . S
C2834 C2832 1.419 1_556 S
C2834 C2835 1.354 1_556 S
C2834 H2837 0.929 . S
C2835 C2834 1.354 1_554 S
C2835 C2841 1.448 . S
H2836 C2832 0.930 1_556 S
H2837 C2834 0.929 . S
S2838 N2839 1.613 . S
S2838 N2840 1.610 . S
N2839 S2838 1.613 . S
N2839 C2842 1.350 . S
N2840 S2838 1.610 . S
N2840 C2841 1.351 . S
C2841 C2835 1.448 . S
C2841 N2840 1.351 . S
C2841 C2842 1.434 . S
C2842 C2833 1.429 . S
C2842 N2839 1.350 . S
C2842 C2841 1.434 . S
C2843 C2844 1.369 . S
C2843 C2845 1.419 . S
C2843 H2847 0.930 . S
C2844 C2843 1.369 . S
C2844 C2853 1.429 . S
C2845 C2843 1.419 . S
C2845 C2846 1.363 . S
C2845 H2848 0.929 . S
C2846 C2845 1.363 . S
C2846 C2852 1.428 . S
H2847 C2843 0.930 . S
H2848 C2845 0.929 . S
S2849 N2850 1.613 . S
S2849 N2851 1.610 . S
N2850 S2849 1.613 . S
N2850 C2853 1.350 . S
N2851 S2849 1.610 . S
N2851 C2852 1.351 . S
C2852 C2846 1.428 . S
C2852 N2851 1.351 . S
C2852 C2853 1.434 . S
C2853 C2844 1.429 . S
C2853 N2850 1.350 . S
C2853 C2852 1.434 . S
C2854 C2855 1.369 . S
C2854 C2856 1.419 . S
C2854 H2858 0.930 . S
C2855 C2854 1.369 . S
C2855 C2864 1.429 . S
C2856 C2854 1.419 . S
C2856 C2857 1.363 . S
C2856 H2859 0.929 . S
C2857 C2856 1.363 . S
C2857 C2863 1.428 . S
H2858 C2854 0.930 . S
H2859 C2856 0.929 . S
S2860 N2861 1.613 . S
S2860 N2862 1.610 . S
N2861 S2860 1.613 . S
N2861 C2864 1.350 . S
N2862 S2860 1.610 . S
N2862 C2863 1.351 . S
C2863 C2857 1.428 . S
C2863 N2862 1.351 . S
C2863 C2864 1.434 . S
C2864 C2855 1.429 . S
C2864 N2861 1.350 . S
C2864 C2863 1.434 . S
C2865 C2866 1.369 . S
C2865 C2867 1.419 . S
C2865 H2869 0.930 . S
C2866 C2865 1.369 . S
C2866 C2875 1.429 . S
C2867 C2865 1.419 . S
C2867 C2868 1.363 . S
C2867 H2870 0.929 . S
C2868 C2867 1.363 . S
C2868 C2874 1.428 . S
H2869 C2865 0.930 . S
H2870 C2867 0.929 . S
S2871 N2872 1.613 . S
S2871 N2873 1.610 . S
N2872 S2871 1.613 . S
N2872 C2875 1.350 . S
N2873 S2871 1.610 . S
N2873 C2874 1.351 . S
C2874 C2868 1.428 . S
C2874 N2873 1.351 . S
C2874 C2875 1.434 . S
C2875 C2866 1.429 . S
C2875 N2872 1.350 . S
C2875 C2874 1.434 . S
C2876 C2877 1.369 . S
C2876 C2878 1.419 . S
C2876 H2880 0.930 . S
C2877 C2876 1.369 . S
C2877 C2886 1.429 . S
C2878 C2876 1.419 . S
C2878 C2879 1.363 . S
C2878 H2881 0.929 . S
C2879 C2878 1.363 . S
C2879 C2885 1.428 . S
H2880 C2876 0.930 . S
H2881 C2878 0.929 . S
S2882 N2883 1.613 . S
S2882 N2884 1.610 . S
N2883 S2882 1.613 . S
N2883 C2886 1.350 . S
N2884 S2882 1.610 . S
N2884 C2885 1.351 . S
C2885 C2879 1.428 . S
C2885 N2884 1.351 . S
C2885 C2886 1.434 . S
C2886 C2877 1.429 . S
C2886 N2883 1.350 . S
C2886 C2885 1.434 . S
C2887 C2888 1.369 . S
C2887 C2889 1.419 . S
C2887 H2891 0.930 . S
C2888 C2887 1.369 . S
C2888 C2897 1.429 . S
C2889 C2887 1.419 . S
C2889 C2890 1.363 . S
C2889 H2892 0.929 . S
C2890 C2889 1.363 . S
C2890 C2896 1.428 . S
H2891 C2887 0.930 . S
H2892 C2889 0.929 . S
S2893 N2894 1.613 . S
S2893 N2895 1.610 . S
N2894 S2893 1.613 . S
N2894 C2897 1.350 . S
N2895 S2893 1.610 . S
N2895 C2896 1.351 . S
C2896 C2890 1.428 . S
C2896 N2895 1.351 . S
C2896 C2897 1.434 . S
C2897 C2888 1.429 . S
C2897 N2894 1.350 . S
C2897 C2896 1.434 . S
C2898 C2899 1.369 . S
C2898 C2900 1.419 . S
C2898 H2902 0.930 . S
C2899 C2898 1.369 . S
C2899 C2908 1.429 . S
C2900 C2898 1.419 . S
C2900 C2901 1.363 . S
C2900 H2903 0.929 . S
C2901 C2900 1.363 . S
C2901 C2907 1.428 . S
H2902 C2898 0.930 . S
H2903 C2900 0.929 . S
S2904 N2905 1.613 . S
S2904 N2906 1.610 . S
N2905 S2904 1.613 . S
N2905 C2908 1.350 . S
N2906 S2904 1.610 . S
N2906 C2907 1.351 . S
C2907 C2901 1.428 . S
C2907 N2906 1.351 . S
C2907 C2908 1.434 . S
C2908 C2899 1.429 . S
C2908 N2905 1.350 . S
C2908 C2907 1.434 . S
C2909 C2910 1.369 . S
C2909 C2911 1.419 . S
C2909 H2913 0.930 . S
C2910 C2909 1.369 . S
C2910 C2919 1.429 . S
C2911 C2909 1.419 . S
C2911 C2912 1.363 . S
C2911 H2914 0.929 . S
C2912 C2911 1.363 . S
C2912 C2918 1.428 . S
H2913 C2909 0.930 . S
H2914 C2911 0.929 . S
S2915 N2916 1.613 . S
S2915 N2917 1.610 . S
N2916 S2915 1.613 . S
N2916 C2919 1.350 . S
N2917 S2915 1.610 . S
N2917 C2918 1.351 . S
C2918 C2912 1.428 . S
C2918 N2917 1.351 . S
C2918 C2919 1.434 . S
C2919 C2910 1.429 . S
C2919 N2916 1.350 . S
C2919 C2918 1.434 . S
C2920 C2921 1.369 . S
C2920 C2922 1.389 1_556 S
C2920 H2924 0.930 . S
C2921 C2920 1.369 . S
C2921 C2930 1.429 . S
C2922 C2920 1.389 1_554 S
C2922 C2923 1.358 1_554 S
C2922 H2925 0.968 . S
C2923 C2922 1.358 1_556 S
C2923 C2929 1.428 . S
H2924 C2920 0.930 . S
H2925 C2922 0.968 . S
S2926 N2927 1.613 1_455 S
S2926 N2928 1.610 . S
N2927 S2926 1.613 1_655 S
N2927 C2930 1.349 1_655 S
N2928 S2926 1.610 . S
N2928 C2929 1.351 . S
C2929 C2923 1.428 . S
C2929 N2928 1.351 . S
C2929 C2930 1.434 . S
C2930 C2921 1.429 . S
C2930 N2927 1.349 1_455 S
C2930 C2929 1.434 . S
C2931 C2932 1.369 . S
C2931 C2933 1.419 . S
C2931 H2935 0.930 . S
C2932 C2931 1.369 . S
C2932 C2941 1.429 . S
C2933 C2931 1.419 . S
C2933 C2934 1.363 . S
C2933 H2936 0.929 . S
C2934 C2933 1.363 . S
C2934 C2940 1.428 . S
H2935 C2931 0.930 . S
H2936 C2933 0.929 . S
S2937 N2938 1.613 . S
S2937 N2939 1.610 . S
N2938 S2937 1.613 . S
N2938 C2941 1.350 . S
N2939 S2937 1.610 . S
N2939 C2940 1.351 . S
C2940 C2934 1.428 . S
C2940 N2939 1.351 . S
C2940 C2941 1.434 . S
C2941 C2932 1.429 . S
C2941 N2938 1.350 . S
C2941 C2940 1.434 . S
C2942 C2943 1.369 . S
C2942 C2944 1.419 . S
C2942 H2946 0.930 . S
C2943 C2942 1.369 . S
C2943 C2952 1.429 . S
C2944 C2942 1.419 . S
C2944 C2945 1.363 . S
C2944 H2947 0.929 . S
C2945 C2944 1.363 . S
C2945 C2951 1.428 . S
H2946 C2942 0.930 . S
H2947 C2944 0.929 . S
S2948 N2949 1.613 . S
S2948 N2950 1.610 . S
N2949 S2948 1.613 . S
N2949 C2952 1.350 . S
N2950 S2948 1.610 . S
N2950 C2951 1.351 . S
C2951 C2945 1.428 . S
C2951 N2950 1.351 . S
C2951 C2952 1.434 . S
C2952 C2943 1.429 . S
C2952 N2949 1.350 . S
C2952 C2951 1.434 . S
C2953 C2954 1.369 . S
C2953 C2955 1.419 . S
C2953 H2957 0.930 . S
C2954 C2953 1.369 . S
C2954 C2963 1.429 . S
C2955 C2953 1.419 . S
C2955 C2956 1.363 . S
C2955 H2958 0.929 . S
C2956 C2955 1.363 . S
C2956 C2962 1.428 . S
H2957 C2953 0.930 . S
H2958 C2955 0.929 . S
S2959 N2960 1.613 . S
S2959 N2961 1.610 . S
N2960 S2959 1.613 . S
N2960 C2963 1.350 . S
N2961 S2959 1.610 . S
N2961 C2962 1.351 . S
C2962 C2956 1.428 . S
C2962 N2961 1.351 . S
C2962 C2963 1.434 . S
C2963 C2954 1.429 . S
C2963 N2960 1.350 . S
C2963 C2962 1.434 . S
C2964 C2965 1.369 . S
C2964 C2966 1.419 . S
C2964 H2968 0.930 . S
C2965 C2964 1.369 . S
C2965 C2974 1.429 . S
C2966 C2964 1.419 . S
C2966 C2967 1.363 . S
C2966 H2969 0.929 . S
C2967 C2966 1.363 . S
C2967 C2973 1.428 . S
H2968 C2964 0.930 . S
H2969 C2966 0.929 . S
S2970 N2971 1.613 . S
S2970 N2972 1.610 1_655 S
N2971 S2970 1.613 . S
N2971 C2974 1.350 1_655 S
N2972 S2970 1.610 1_455 S
N2972 C2973 1.351 . S
C2973 C2967 1.428 . S
C2973 N2972 1.351 . S
C2973 C2974 1.434 . S
C2974 C2965 1.429 . S
C2974 N2971 1.350 1_455 S
C2974 C2973 1.434 . S
C2975 C2976 1.369 . S
C2975 C2977 1.419 . S
C2975 H2979 0.930 . S
C2976 C2975 1.369 . S
C2976 C2985 1.429 . S
C2977 C2975 1.419 . S
C2977 C2978 1.363 . S
C2977 H2980 0.929 . S
C2978 C2977 1.363 . S
C2978 C2984 1.428 . S
H2979 C2975 0.930 . S
H2980 C2977 0.929 . S
S2981 N2982 1.613 . S
S2981 N2983 1.610 . S
N2982 S2981 1.613 . S
N2982 C2985 1.350 . S
N2983 S2981 1.610 . S
N2983 C2984 1.351 . S
C2984 C2978 1.428 . S
C2984 N2983 1.351 . S
C2984 C2985 1.434 . S
C2985 C2976 1.429 . S
C2985 N2982 1.350 . S
C2985 C2984 1.434 . S
C2986 C2987 1.369 . S
C2986 C2988 1.419 . S
C2986 H2990 0.930 . S
C2987 C2986 1.369 . S
C2987 C2996 1.429 . S
C2988 C2986 1.419 . S
C2988 C2989 1.363 . S
C2988 H2991 0.929 . S
C2989 C2988 1.363 . S
C2989 C2995 1.428 . S
H2990 C2986 0.930 . S
H2991 C2988 0.929 . S
S2992 N2993 1.613 . S
S2992 N2994 1.610 . S
N2993 S2992 1.613 . S
N2993 C2996 1.350 . S
N2994 S2992 1.610 . S
N2994 C2995 1.351 . S
C2995 C2989 1.428 . S
C2995 N2994 1.351 . S
C2995 C2996 1.434 . S
C2996 C2987 1.429 . S
C2996 N2993 1.350 . S
C2996 C2995 1.434 . S
C2997 C2998 1.369 . S
C2997 C2999 1.419 . S
C2997 H3001 0.930 . S
C2998 C2997 1.369 . S
C2998 C3007 1.429 . S
C2999 C2997 1.419 . S
C2999 C3000 1.363 . S
C2999 H3002 0.929 . S
C3000 C2999 1.363 . S
C3000 C3006 1.428 . S
H3001 C2997 0.930 . S
H3002 C2999 0.929 . S
S3003 N3004 1.613 . S
S3003 N3005 1.610 . S
N3004 S3003 1.613 . S
N3004 C3007 1.350 . S
N3005 S3003 1.610 . S
N3005 C3006 1.351 . S
C3006 C3000 1.428 . S
C3006 N3005 1.351 . S
C3006 C3007 1.434 . S
C3007 C2998 1.429 . S
C3007 N3004 1.350 . S
C3007 C3006 1.434 . S
C3008 C3009 1.369 1_465 S
C3008 C3010 1.419 1_565 S
C3008 H3012 0.930 . S
C3009 C3008 1.369 1_645 S
C3009 C3018 1.429 . S
C3010 C3008 1.419 1_545 S
C3010 C3011 1.363 . S
C3010 H3013 0.929 1_545 S
C3011 C3010 1.363 . S
C3011 C3017 1.428 1_455 S
H3012 C3008 0.930 . S
H3013 C3010 0.929 1_565 S
S3014 N3015 1.613 . S
S3014 N3016 1.610 . S
N3015 S3014 1.613 . S
N3015 C3018 1.350 . S
N3016 S3014 1.610 . S
N3016 C3017 1.351 . S
C3017 C3011 1.428 1_655 S
C3017 N3016 1.351 . S
C3017 C3018 1.434 . S
C3018 C3009 1.429 . S
C3018 N3015 1.350 . S
C3018 C3017 1.434 . S
C3019 C3020 1.369 . S
C3019 C3021 1.419 . S
C3019 H3023 0.930 . S
C3020 C3019 1.369 . S
C3020 C3029 1.429 . S
C3021 C3019 1.419 . S
C3021 C3022 1.363 . S
C3021 H3024 0.929 . S
C3022 C3021 1.363 . S
C3022 C3028 1.428 . S
H3023 C3019 0.930 . S
H3024 C3021 0.929 . S
S3025 N3026 1.613 . S
S3025 N3027 1.610 . S
N3026 S3025 1.613 . S
N3026 C3029 1.350 . S
N3027 S3025 1.610 . S
N3027 C3028 1.351 . S
C3028 C3022 1.428 . S
C3028 N3027 1.351 . S
C3028 C3029 1.434 . S
C3029 C3020 1.429 . S
C3029 N3026 1.350 . S
C3029 C3028 1.434 . S
C3030 C3031 1.369 . S
C3030 C3032 1.419 . S
C3030 H3034 0.930 . S
C3031 C3030 1.369 . S
C3031 C3040 1.429 1_545 S
C3032 C3030 1.419 . S
C3032 C3033 1.363 . S
C3032 H3035 0.929 . S
C3033 C3032 1.363 . S
C3033 C3039 1.428 1_545 S
H3034 C3030 0.930 . S
H3035 C3032 0.929 . S
S3036 N3037 1.613 . S
S3036 N3038 1.610 . S
N3037 S3036 1.613 . S
N3037 C3040 1.350 . S
N3038 S3036 1.610 . S
N3038 C3039 1.351 . S
C3039 C3033 1.428 1_565 S
C3039 N3038 1.351 . S
C3039 C3040 1.434 . S
C3040 C3031 1.429 1_565 S
C3040 N3037 1.350 . S
C3040 C3039 1.434 . S
C3041 C3042 1.369 . S
C3041 C3043 1.419 . S
C3041 H3045 0.930 . S
C3042 C3041 1.369 . S
C3042 C3051 1.429 . S
C3043 C3041 1.419 . S
C3043 C3044 1.363 . S
C3043 H3046 0.929 . S
C3044 C3043 1.363 . S
C3044 C3050 1.428 . S
H3045 C3041 0.930 . S
H3046 C3043 0.929 . S
S3047 N3048 1.613 . S
S3047 N3049 1.610 . S
N3048 S3047 1.613 . S
N3048 C3051 1.350 . S
N3049 S3047 1.610 . S
N3049 C3050 1.351 . S
C3050 C3044 1.428 . S
C3050 N3049 1.351 . S
C3050 C3051 1.434 . S
C3051 C3042 1.429 . S
C3051 N3048 1.350 . S
C3051 C3050 1.434 . S
C3052 C3053 1.388 . S
C3052 C3054 1.419 . S
C3052 H3056 0.930 . S
C3053 C3052 1.388 . S
C3053 C3062 1.396 1_545 S
C3054 C3052 1.419 . S
C3054 C3055 1.363 1_545 S
C3054 H3057 0.929 . S
C3055 C3054 1.363 1_565 S
C3055 C3061 1.428 . S
H3056 C3052 0.930 . S
H3057 C3054 0.929 . S
S3058 N3059 1.613 . S
S3058 N3060 1.610 . S
N3059 S3058 1.613 . S
N3059 C3062 1.350 . S
N3060 S3058 1.610 . S
N3060 C3061 1.351 . S
C3061 C3055 1.428 . S
C3061 N3060 1.351 . S
C3061 C3062 1.434 . S
C3062 C3053 1.396 1_565 S
C3062 N3059 1.350 . S
C3062 C3061 1.434 . S
C3063 C3064 1.369 . S
C3063 C3065 1.419 . S
C3063 H3067 0.930 . S
C3064 C3063 1.369 . S
C3064 C3073 1.429 . S
C3065 C3063 1.419 . S
C3065 C3066 1.363 . S
C3065 H3068 0.929 . S
C3066 C3065 1.363 . S
C3066 C3072 1.428 . S
H3067 C3063 0.930 . S
H3068 C3065 0.929 . S
S3069 N3070 1.613 . S
S3069 N3071 1.610 . S
N3070 S3069 1.613 . S
N3070 C3073 1.350 . S
N3071 S3069 1.610 . S
N3071 C3072 1.351 . S
C3072 C3066 1.428 . S
C3072 N3071 1.351 . S
C3072 C3073 1.434 . S
C3073 C3064 1.429 . S
C3073 N3070 1.350 . S
C3073 C3072 1.434 . S
C3074 C3075 1.369 . S
C3074 C3076 1.419 . S
C3074 H3078 0.930 . S
C3075 C3074 1.369 . S
C3075 C3084 1.429 . S
C3076 C3074 1.419 . S
C3076 C3077 1.363 . S
C3076 H3079 0.929 . S
C3077 C3076 1.363 . S
C3077 C3083 1.428 . S
H3078 C3074 0.930 . S
H3079 C3076 0.929 . S
S3080 N3081 1.613 . S
S3080 N3082 1.610 . S
N3081 S3080 1.613 . S
N3081 C3084 1.350 1_565 S
N3082 S3080 1.610 . S
N3082 C3083 1.351 1_565 S
C3083 C3077 1.428 . S
C3083 N3082 1.351 1_545 S
C3083 C3084 1.434 . S
C3084 C3075 1.429 . S
C3084 N3081 1.350 1_545 S
C3084 C3083 1.434 . S
C3085 C3086 1.369 . S
C3085 C3087 1.419 . S
C3085 H3089 0.930 . S
C3086 C3085 1.369 . S
C3086 C3095 1.429 . S
C3087 C3085 1.419 . S
C3087 C3088 1.363 . S
C3087 H3090 0.929 . S
C3088 C3087 1.363 . S
C3088 C3094 1.428 . S
H3089 C3085 0.930 . S
H3090 C3087 0.929 . S
S3091 N3092 1.613 . S
S3091 N3093 1.610 . S
N3092 S3091 1.613 . S
N3092 C3095 1.350 . S
N3093 S3091 1.610 . S
N3093 C3094 1.351 . S
C3094 C3088 1.428 . S
C3094 N3093 1.351 . S
C3094 C3095 1.434 . S
C3095 C3086 1.429 . S
C3095 N3092 1.350 . S
C3095 C3094 1.434 . S
C3096 C3097 1.369 . S
C3096 C3098 1.419 . S
C3096 H3100 0.930 . S
C3097 C3096 1.369 . S
C3097 C3106 1.429 1_565 S
C3098 C3096 1.419 . S
C3098 C3099 1.363 . S
C3098 H3101 0.929 . S
C3099 C3098 1.363 . S
C3099 C3105 1.428 1_565 S
H3100 C3096 0.930 . S
H3101 C3098 0.929 . S
S3102 N3103 1.613 . S
S3102 N3104 1.610 . S
N3103 S3102 1.613 . S
N3103 C3106 1.350 . S
N3104 S3102 1.610 . S
N3104 C3105 1.351 . S
C3105 C3099 1.428 1_545 S
C3105 N3104 1.351 . S
C3105 C3106 1.434 . S
C3106 C3097 1.429 1_545 S
C3106 N3103 1.350 . S
C3106 C3105 1.434 . S
C3107 C3108 1.369 1_556 S
C3107 C3109 1.419 . S
C3107 H3111 0.930 . S
C3108 C3107 1.369 1_554 S
C3108 C3117 1.429 . S
C3109 C3107 1.419 . S
C3109 C3110 1.363 1_556 S
C3109 H3112 0.929 . S
C3110 C3109 1.363 1_554 S
C3110 C3116 1.428 . S
H3111 C3107 0.930 . S
H3112 C3109 0.929 . S
S3113 N3114 1.613 . S
S3113 N3115 1.610 . S
N3114 S3113 1.613 . S
N3114 C3117 1.350 . S
N3115 S3113 1.610 . S
N3115 C3116 1.351 . S
C3116 C3110 1.428 . S
C3116 N3115 1.351 . S
C3116 C3117 1.434 . S
C3117 C3108 1.429 . S
C3117 N3114 1.350 . S
C3117 C3116 1.434 . S
C3118 C3119 1.369 . S
C3118 C3120 1.419 . S
C3118 H3122 0.930 . S
C3119 C3118 1.369 . S
C3119 C3128 1.429 . S
C3120 C3118 1.419 . S
C3120 C3121 1.363 . S
C3120 H3123 0.929 . S
C3121 C3120 1.363 . S
C3121 C3127 1.428 . S
H3122 C3118 0.930 . S
H3123 C3120 0.929 . S
S3124 N3125 1.613 . S
S3124 N3126 1.610 . S
N3125 S3124 1.613 . S
N3125 C3128 1.350 . S
N3126 S3124 1.610 . S
N3126 C3127 1.351 . S
C3127 C3121 1.428 . S
C3127 N3126 1.351 . S
C3127 C3128 1.434 . S
C3128 C3119 1.429 . S
C3128 N3125 1.350 . S
C3128 C3127 1.434 . S
C3129 C3130 1.369 . S
C3129 C3131 1.419 . S
C3129 H3133 0.930 . S
C3130 C3129 1.369 . S
C3130 C3139 1.429 . S
C3131 C3129 1.419 . S
C3131 C3132 1.363 . S
C3131 H3134 0.929 . S
C3132 C3131 1.363 . S
C3132 C3138 1.428 . S
H3133 C3129 0.930 . S
H3134 C3131 0.929 . S
S3135 N3136 1.613 . S
S3135 N3137 1.610 . S
N3136 S3135 1.613 . S
N3136 C3139 1.350 . S
N3137 S3135 1.610 . S
N3137 C3138 1.351 . S
C3138 C3132 1.428 . S
C3138 N3137 1.351 . S
C3138 C3139 1.434 . S
C3139 C3130 1.429 . S
C3139 N3136 1.350 . S
C3139 C3138 1.434 . S
C3140 C3141 1.369 . S
C3140 C3142 1.419 . S
C3140 H3144 0.930 . S
C3141 C3140 1.369 . S
C3141 C3150 1.429 . S
C3142 C3140 1.419 . S
C3142 C3143 1.363 . S
C3142 H3145 0.929 . S
C3143 C3142 1.363 . S
C3143 C3149 1.428 . S
H3144 C3140 0.930 . S
H3145 C3142 0.929 . S
S3146 N3147 1.613 . S
S3146 N3148 1.610 . S
N3147 S3146 1.613 . S
N3147 C3150 1.350 . S
N3148 S3146 1.610 . S
N3148 C3149 1.351 . S
C3149 C3143 1.428 . S
C3149 N3148 1.351 . S
C3149 C3150 1.434 . S
C3150 C3141 1.429 . S
C3150 N3147 1.350 . S
C3150 C3149 1.434 . S
C3151 C3152 1.369 . S
C3151 C3153 1.419 . S
C3151 H3155 0.930 . S
C3152 C3151 1.369 . S
C3152 C3161 1.429 . S
C3153 C3151 1.419 . S
C3153 C3154 1.363 . S
C3153 H3156 0.929 . S
C3154 C3153 1.363 . S
C3154 C3160 1.428 . S
H3155 C3151 0.930 . S
H3156 C3153 0.929 . S
S3157 N3158 1.613 . S
S3157 N3159 1.610 . S
N3158 S3157 1.613 . S
N3158 C3161 1.350 . S
N3159 S3157 1.610 . S
N3159 C3160 1.351 . S
C3160 C3154 1.428 . S
C3160 N3159 1.351 . S
C3160 C3161 1.434 . S
C3161 C3152 1.429 . S
C3161 N3158 1.350 . S
C3161 C3160 1.434 . S
C3162 C3163 1.369 . S
C3162 C3164 1.419 . S
C3162 H3166 0.930 . S
C3163 C3162 1.369 . S
C3163 C3172 1.429 . S
C3164 C3162 1.419 . S
C3164 C3165 1.363 . S
C3164 H3167 0.929 . S
C3165 C3164 1.363 . S
C3165 C3171 1.428 . S
H3166 C3162 0.930 . S
H3167 C3164 0.929 . S
S3168 N3169 1.613 . S
S3168 N3170 1.610 . S
N3169 S3168 1.613 . S
N3169 C3172 1.350 . S
N3170 S3168 1.610 . S
N3170 C3171 1.351 . S
C3171 C3165 1.428 . S
C3171 N3170 1.351 . S
C3171 C3172 1.434 . S
C3172 C3163 1.429 . S
C3172 N3169 1.350 . S
C3172 C3171 1.434 . S
C3173 C3174 1.369 . S
C3173 C3175 1.419 . S
C3173 H3177 0.930 . S
C3174 C3173 1.369 . S
C3174 C3183 1.429 . S
C3175 C3173 1.419 . S
C3175 C3176 1.363 . S
C3175 H3178 0.929 . S
C3176 C3175 1.363 . S
C3176 C3182 1.428 . S
H3177 C3173 0.930 . S
H3178 C3175 0.929 . S
S3179 N3180 1.613 . S
S3179 N3181 1.610 . S
N3180 S3179 1.613 . S
N3180 C3183 1.350 . S
N3181 S3179 1.610 . S
N3181 C3182 1.351 . S
C3182 C3176 1.428 . S
C3182 N3181 1.351 . S
C3182 C3183 1.434 . S
C3183 C3174 1.429 . S
C3183 N3180 1.350 . S
C3183 C3182 1.434 . S
C3184 C3185 1.369 . S
C3184 C3186 1.419 . S
C3184 H3188 0.930 . S
C3185 C3184 1.369 . S
C3185 C3194 1.429 . S
C3186 C3184 1.419 . S
C3186 C3187 1.363 . S
C3186 H3189 0.929 . S
C3187 C3186 1.363 . S
C3187 C3193 1.428 . S
H3188 C3184 0.930 . S
H3189 C3186 0.929 . S
S3190 N3191 1.613 . S
S3190 N3192 1.610 . S
N3191 S3190 1.613 . S
N3191 C3194 1.350 . S
N3192 S3190 1.610 . S
N3192 C3193 1.351 . S
C3193 C3187 1.428 . S
C3193 N3192 1.351 . S
C3193 C3194 1.434 . S
C3194 C3185 1.429 . S
C3194 N3191 1.350 . S
C3194 C3193 1.434 . S
C3195 C3196 1.369 . S
C3195 C3197 1.419 . S
C3195 H3199 0.930 . S
C3196 C3195 1.369 . S
C3196 C3205 1.429 . S
C3197 C3195 1.419 . S
C3197 C3198 1.363 . S
C3197 H3200 0.929 . S
C3198 C3197 1.363 . S
C3198 C3204 1.428 . S
H3199 C3195 0.930 . S
H3200 C3197 0.929 . S
S3201 N3202 1.613 . S
S3201 N3203 1.610 . S
N3202 S3201 1.613 . S
N3202 C3205 1.350 . S
N3203 S3201 1.610 . S
N3203 C3204 1.351 . S
C3204 C3198 1.428 . S
C3204 N3203 1.351 . S
C3204 C3205 1.434 . S
C3205 C3196 1.429 . S
C3205 N3202 1.350 . S
C3205 C3204 1.434 . S
C3206 C3207 1.369 . S
C3206 C3208 1.419 . S
C3206 H3210 0.930 . S
C3207 C3206 1.369 . S
C3207 C3216 1.429 . S
C3208 C3206 1.419 . S
C3208 C3209 1.363 . S
C3208 H3211 0.929 . S
C3209 C3208 1.363 . S
C3209 C3215 1.428 . S
H3210 C3206 0.930 . S
H3211 C3208 0.929 . S
S3212 N3213 1.613 . S
S3212 N3214 1.610 . S
N3213 S3212 1.613 . S
N3213 C3216 1.350 . S
N3214 S3212 1.610 . S
N3214 C3215 1.351 . S
C3215 C3209 1.428 . S
C3215 N3214 1.351 . S
C3215 C3216 1.434 . S
C3216 C3207 1.429 . S
C3216 N3213 1.350 . S
C3216 C3215 1.434 . S
C3217 C3218 1.369 . S
C3217 C3219 1.419 . S
C3217 H3221 0.930 . S
C3218 C3217 1.369 . S
C3218 C3227 1.429 . S
C3219 C3217 1.419 . S
C3219 C3220 1.363 . S
C3219 H3222 0.929 . S
C3220 C3219 1.363 . S
C3220 C3226 1.428 . S
H3221 C3217 0.930 . S
H3222 C3219 0.929 . S
S3223 N3224 1.613 . S
S3223 N3225 1.610 . S
N3224 S3223 1.613 . S
N3224 C3227 1.350 . S
N3225 S3223 1.610 . S
N3225 C3226 1.351 . S
C3226 C3220 1.428 . S
C3226 N3225 1.351 . S
C3226 C3227 1.434 . S
C3227 C3218 1.429 . S
C3227 N3224 1.350 . S
C3227 C3226 1.434 . S
C3228 C3229 1.369 . S
C3228 C3230 1.419 . S
C3228 H3232 0.930 . S
C3229 C3228 1.369 . S
C3229 C3238 1.447 . S
C3230 C3228 1.419 . S
C3230 C3231 1.322 1_556 S
C3230 H3233 0.929 . S
C3231 C3230 1.322 1_554 S
C3231 C3237 1.448 . S
H3232 C3228 0.930 . S
H3233 C3230 0.929 . S
S3234 N3235 1.613 . S
S3234 N3236 1.610 . S
N3235 S3234 1.613 . S
N3235 C3238 1.339 1_554 S
N3236 S3234 1.610 . S
N3236 C3237 1.351 . S
C3237 C3231 1.448 . S
C3237 N3236 1.351 . S
C3237 C3238 1.424 1_554 S
C3238 C3229 1.447 . S
C3238 N3235 1.339 1_556 S
C3238 C3237 1.424 1_556 S
C3239 C3240 1.369 . S
C3239 C3241 1.419 . S
C3239 H3243 0.930 . S
C3240 C3239 1.369 . S
C3240 C3249 1.429 . S
C3241 C3239 1.419 . S
C3241 C3242 1.363 . S
C3241 H3244 0.929 . S
C3242 C3241 1.363 . S
C3242 C3248 1.428 . S
H3243 C3239 0.930 . S
H3244 C3241 0.929 . S
S3245 N3246 1.613 . S
S3245 N3247 1.610 . S
N3246 S3245 1.613 . S
N3246 C3249 1.350 . S
N3247 S3245 1.610 . S
N3247 C3248 1.351 . S
C3248 C3242 1.428 . S
C3248 N3247 1.351 . S
C3248 C3249 1.434 . S
C3249 C3240 1.429 . S
C3249 N3246 1.350 . S
C3249 C3248 1.434 . S
C3250 C3251 1.369 . S
C3250 C3252 1.419 . S
C3250 H3254 0.930 . S
C3251 C3250 1.369 . S
C3251 C3260 1.429 . S
C3252 C3250 1.419 . S
C3252 C3253 1.363 . S
C3252 H3255 0.929 . S
C3253 C3252 1.363 . S
C3253 C3259 1.428 . S
H3254 C3250 0.930 . S
H3255 C3252 0.929 . S
S3256 N3257 1.613 . S
S3256 N3258 1.610 . S
N3257 S3256 1.613 . S
N3257 C3260 1.350 . S
N3258 S3256 1.610 . S
N3258 C3259 1.351 . S
C3259 C3253 1.428 . S
C3259 N3258 1.351 . S
C3259 C3260 1.434 . S
C3260 C3251 1.429 . S
C3260 N3257 1.350 . S
C3260 C3259 1.434 . S
C3261 C3262 1.369 . S
C3261 C3263 1.419 . S
C3261 H3265 0.930 . S
C3262 C3261 1.369 . S
C3262 C3271 1.429 . S
C3263 C3261 1.419 . S
C3263 C3264 1.363 . S
C3263 H3266 0.929 . S
C3264 C3263 1.363 . S
C3264 C3270 1.428 . S
H3265 C3261 0.930 . S
H3266 C3263 0.929 . S
S3267 N3268 1.613 . S
S3267 N3269 1.610 . S
N3268 S3267 1.613 . S
N3268 C3271 1.350 . S
N3269 S3267 1.610 . S
N3269 C3270 1.351 . S
C3270 C3264 1.428 . S
C3270 N3269 1.351 . S
C3270 C3271 1.434 . S
C3271 C3262 1.429 . S
C3271 N3268 1.350 . S
C3271 C3270 1.434 . S
C3272 C3273 1.369 . S
C3272 C3274 1.419 . S
C3272 H3276 0.930 . S
C3273 C3272 1.369 . S
C3273 C3282 1.429 . S
C3274 C3272 1.419 . S
C3274 C3275 1.363 . S
C3274 H3277 0.929 . S
C3275 C3274 1.363 . S
C3275 C3281 1.428 . S
H3276 C3272 0.930 . S
H3277 C3274 0.929 . S
S3278 N3279 1.613 . S
S3278 N3280 1.610 . S
N3279 S3278 1.613 . S
N3279 C3282 1.350 . S
N3280 S3278 1.610 . S
N3280 C3281 1.351 . S
C3281 C3275 1.428 . S
C3281 N3280 1.351 . S
C3281 C3282 1.434 . S
C3282 C3273 1.429 . S
C3282 N3279 1.350 . S
C3282 C3281 1.434 . S
C3283 C3284 1.369 . S
C3283 C3285 1.419 . S
C3283 H3287 0.930 . S
C3284 C3283 1.369 . S
C3284 C3293 1.429 . S
C3285 C3283 1.419 . S
C3285 C3286 1.363 . S
C3285 H3288 0.929 . S
C3286 C3285 1.363 . S
C3286 C3292 1.428 . S
H3287 C3283 0.930 . S
H3288 C3285 0.929 . S
S3289 N3290 1.613 . S
S3289 N3291 1.610 . S
N3290 S3289 1.613 . S
N3290 C3293 1.350 . S
N3291 S3289 1.610 . S
N3291 C3292 1.351 . S
C3292 C3286 1.428 . S
C3292 N3291 1.351 . S
C3292 C3293 1.434 . S
C3293 C3284 1.429 . S
C3293 N3290 1.350 . S
C3293 C3292 1.434 . S
C3294 C3295 1.369 . S
C3294 C3296 1.419 . S
C3294 H3298 0.930 . S
C3295 C3294 1.369 . S
C3295 C3304 1.435 . S
C3296 C3294 1.419 . S
C3296 C3297 1.363 1_655 S
C3296 H3299 0.929 . S
C3297 C3296 1.363 1_455 S
C3297 C3303 1.428 . S
H3298 C3294 0.930 . S
H3299 C3296 0.929 . S
S3300 N3301 1.613 . S
S3300 N3302 1.610 . S
N3301 S3300 1.613 . S
N3301 C3304 1.346 1_455 S
N3302 S3300 1.610 . S
N3302 C3303 1.351 . S
C3303 C3297 1.428 . S
C3303 N3302 1.351 . S
C3303 C3304 1.430 1_455 S
C3304 C3295 1.435 . S
C3304 N3301 1.346 1_655 S
C3304 C3303 1.430 1_655 S
C3305 C3306 1.369 . S
C3305 C3307 1.419 . S
C3305 H3309 0.930 . S
C3306 C3305 1.369 . S
C3306 C3315 1.429 . S
C3307 C3305 1.419 . S
C3307 C3308 1.363 . S
C3307 H3310 0.929 . S
C3308 C3307 1.363 . S
C3308 C3314 1.428 . S
H3309 C3305 0.930 . S
H3310 C3307 0.929 . S
S3311 N3312 1.613 . S
S3311 N3313 1.610 . S
N3312 S3311 1.613 . S
N3312 C3315 1.350 . S
N3313 S3311 1.610 . S
N3313 C3314 1.351 . S
C3314 C3308 1.428 . S
C3314 N3313 1.351 . S
C3314 C3315 1.434 . S
C3315 C3306 1.429 . S
C3315 N3312 1.350 . S
C3315 C3314 1.434 . S
C3316 C3317 1.369 . S
C3316 C3318 1.419 . S
C3316 H3320 0.930 . S
C3317 C3316 1.369 . S
C3317 C3326 1.429 . S
C3318 C3316 1.419 . S
C3318 C3319 1.363 . S
C3318 H3321 0.929 . S
C3319 C3318 1.363 . S
C3319 C3325 1.428 . S
H3320 C3316 0.930 . S
H3321 C3318 0.929 . S
S3322 N3323 1.613 . S
S3322 N3324 1.610 . S
N3323 S3322 1.613 . S
N3323 C3326 1.350 . S
N3324 S3322 1.610 . S
N3324 C3325 1.351 . S
C3325 C3319 1.428 . S
C3325 N3324 1.351 . S
C3325 C3326 1.434 . S
C3326 C3317 1.429 . S
C3326 N3323 1.350 . S
C3326 C3325 1.434 . S
C3327 C3328 1.369 . S
C3327 C3329 1.419 . S
C3327 H3331 0.930 . S
C3328 C3327 1.369 . S
C3328 C3337 1.429 . S
C3329 C3327 1.419 . S
C3329 C3330 1.363 . S
C3329 H3332 0.929 . S
C3330 C3329 1.363 . S
C3330 C3336 1.428 . S
H3331 C3327 0.930 . S
H3332 C3329 0.929 . S
S3333 N3334 1.613 . S
S3333 N3335 1.610 . S
N3334 S3333 1.613 . S
N3334 C3337 1.350 . S
N3335 S3333 1.610 . S
N3335 C3336 1.351 . S
C3336 C3330 1.428 . S
C3336 N3335 1.351 . S
C3336 C3337 1.434 . S
C3337 C3328 1.429 . S
C3337 N3334 1.350 . S
C3337 C3336 1.434 . S
C3338 C3339 1.369 . S
C3338 C3340 1.419 . S
C3338 H3342 0.930 . S
C3339 C3338 1.369 . S
C3339 C3348 1.429 . S
C3340 C3338 1.419 . S
C3340 C3341 1.363 . S
C3340 H3343 0.929 . S
C3341 C3340 1.363 . S
C3341 C3347 1.428 1_655 S
H3342 C3338 0.930 . S
H3343 C3340 0.929 . S
S3344 N3345 1.613 . S
S3344 N3346 1.610 . S
N3345 S3344 1.613 . S
N3345 C3348 1.350 1_455 S
N3346 S3344 1.610 . S
N3346 C3347 1.351 . S
C3347 C3341 1.428 1_455 S
C3347 N3346 1.351 . S
C3347 C3348 1.434 1_455 S
C3348 C3339 1.429 . S
C3348 N3345 1.350 1_655 S
C3348 C3347 1.434 1_655 S
C3349 C3350 1.369 . S
C3349 C3351 1.419 . S
C3349 H3353 0.930 . S
C3350 C3349 1.369 . S
C3350 C3359 1.429 . S
C3351 C3349 1.419 . S
C3351 C3352 1.363 . S
C3351 H3354 0.929 . S
C3352 C3351 1.363 . S
C3352 C3358 1.428 . S
H3353 C3349 0.930 . S
H3354 C3351 0.929 . S
S3355 N3356 1.613 . S
S3355 N3357 1.610 . S
N3356 S3355 1.613 . S
N3356 C3359 1.350 . S
N3357 S3355 1.610 . S
N3357 C3358 1.351 . S
C3358 C3352 1.428 . S
C3358 N3357 1.351 . S
C3358 C3359 1.434 . S
C3359 C3350 1.429 . S
C3359 N3356 1.350 . S
C3359 C3358 1.434 . S
C3360 C3361 1.369 . S
C3360 C3362 1.419 . S
C3360 H3364 0.930 . S
C3361 C3360 1.369 . S
C3361 C3370 1.429 . S
C3362 C3360 1.419 . S
C3362 C3363 1.363 . S
C3362 H3365 0.929 . S
C3363 C3362 1.363 . S
C3363 C3369 1.428 . S
H3364 C3360 0.930 . S
H3365 C3362 0.929 . S
S3366 N3367 1.613 . S
S3366 N3368 1.610 . S
N3367 S3366 1.613 . S
N3367 C3370 1.350 . S
N3368 S3366 1.610 . S
N3368 C3369 1.351 . S
C3369 C3363 1.428 . S
C3369 N3368 1.351 . S
C3369 C3370 1.434 . S
C3370 C3361 1.429 . S
C3370 N3367 1.350 . S
C3370 C3369 1.434 . S
C3371 C3372 1.369 . S
C3371 C3373 1.419 . S
C3371 H3375 0.930 . S
C3372 C3371 1.369 . S
C3372 C3381 1.429 . S
C3373 C3371 1.419 . S
C3373 C3374 1.363 . S
C3373 H3376 0.929 . S
C3374 C3373 1.363 . S
C3374 C3380 1.428 . S
H3375 C3371 0.930 . S
H3376 C3373 0.929 . S
S3377 N3378 1.613 . S
S3377 N3379 1.610 . S
N3378 S3377 1.613 . S
N3378 C3381 1.350 . S
N3379 S3377 1.610 . S
N3379 C3380 1.351 . S
C3380 C3374 1.428 . S
C3380 N3379 1.351 . S
C3380 C3381 1.434 . S
C3381 C3372 1.429 . S
C3381 N3378 1.350 . S
C3381 C3380 1.434 . S
C3382 C3383 1.369 . S
C3382 C3384 1.419 . S
C3382 H3386 0.930 . S
C3383 C3382 1.369 . S
C3383 C3392 1.429 . S
C3384 C3382 1.419 . S
C3384 C3385 1.363 . S
C3384 H3387 0.929 . S
C3385 C3384 1.363 . S
C3385 C3391 1.428 . S
H3386 C3382 0.930 . S
H3387 C3384 0.929 . S
S3388 N3389 1.613 . S
S3388 N3390 1.610 . S
N3389 S3388 1.613 . S
N3389 C3392 1.350 . S
N3390 S3388 1.610 . S
N3390 C3391 1.351 . S
C3391 C3385 1.428 . S
C3391 N3390 1.351 . S
C3391 C3392 1.434 . S
C3392 C3383 1.429 . S
C3392 N3389 1.350 . S
C3392 C3391 1.434 . S
C3393 C3394 1.369 . S
C3393 C3395 1.419 . S
C3393 H3397 0.930 . S
C3394 C3393 1.369 . S
C3394 C3403 1.429 . S
C3395 C3393 1.419 . S
C3395 C3396 1.363 . S
C3395 H3398 0.929 . S
C3396 C3395 1.363 . S
C3396 C3402 1.428 . S
H3397 C3393 0.930 . S
H3398 C3395 0.929 . S
S3399 N3400 1.613 . S
S3399 N3401 1.610 . S
N3400 S3399 1.613 . S
N3400 C3403 1.350 . S
N3401 S3399 1.610 . S
N3401 C3402 1.351 . S
C3402 C3396 1.428 . S
C3402 N3401 1.351 . S
C3402 C3403 1.434 . S
C3403 C3394 1.429 . S
C3403 N3400 1.350 . S
C3403 C3402 1.434 . S
C3404 C3405 1.369 . S
C3404 C3406 1.419 . S
C3404 H3408 0.930 . S
C3405 C3404 1.369 . S
C3405 C3414 1.429 . S
C3406 C3404 1.419 . S
C3406 C3407 1.363 . S
C3406 H3409 0.929 . S
C3407 C3406 1.363 . S
C3407 C3413 1.428 . S
H3408 C3404 0.930 . S
H3409 C3406 0.929 . S
S3410 N3411 1.613 . S
S3410 N3412 1.610 . S
N3411 S3410 1.613 . S
N3411 C3414 1.350 . S
N3412 S3410 1.610 . S
N3412 C3413 1.351 . S
C3413 C3407 1.428 . S
C3413 N3412 1.351 . S
C3413 C3414 1.434 . S
C3414 C3405 1.429 . S
C3414 N3411 1.350 . S
C3414 C3413 1.434 . S
C3415 C3416 1.369 . S
C3415 C3417 1.419 . S
C3415 H3419 0.930 . S
C3416 C3415 1.369 . S
C3416 C3425 1.429 . S
C3417 C3415 1.419 . S
C3417 C3418 1.363 . S
C3417 H3420 0.929 1_554 S
C3418 C3417 1.363 . S
C3418 C3424 1.428 . S
H3419 C3415 0.930 . S
H3420 C3417 0.929 1_556 S
S3421 N3422 1.613 . S
S3421 N3423 1.610 . S
N3422 S3421 1.613 . S
N3422 C3425 1.350 . S
N3423 S3421 1.610 . S
N3423 C3424 1.351 . S
C3424 C3418 1.428 . S
C3424 N3423 1.351 . S
C3424 C3425 1.434 . S
C3425 C3416 1.429 . S
C3425 N3422 1.350 . S
C3425 C3424 1.434 . S
C3426 C3427 1.369 . S
C3426 C3428 1.419 . S
C3426 H3430 0.930 . S
C3427 C3426 1.369 . S
C3427 C3436 1.429 . S
C3428 C3426 1.419 . S
C3428 C3429 1.363 . S
C3428 H3431 0.929 . S
C3429 C3428 1.363 . S
C3429 C3435 1.428 . S
H3430 C3426 0.930 . S
H3431 C3428 0.929 . S
S3432 N3433 1.613 . S
S3432 N3434 1.610 . S
N3433 S3432 1.613 . S
N3433 C3436 1.350 . S
N3434 S3432 1.610 . S
N3434 C3435 1.351 . S
C3435 C3429 1.428 . S
C3435 N3434 1.351 . S
C3435 C3436 1.434 . S
C3436 C3427 1.429 . S
C3436 N3433 1.350 . S
C3436 C3435 1.434 . S
C3437 C3438 1.369 . S
C3437 C3439 1.419 . S
C3437 H3441 0.930 . S
C3438 C3437 1.369 . S
C3438 C3447 1.429 . S
C3439 C3437 1.419 . S
C3439 C3440 1.363 . S
C3439 H3442 0.929 . S
C3440 C3439 1.363 . S
C3440 C3446 1.428 . S
H3441 C3437 0.930 . S
H3442 C3439 0.929 . S
S3443 N3444 1.613 . S
S3443 N3445 1.610 . S
N3444 S3443 1.613 . S
N3444 C3447 1.350 . S
N3445 S3443 1.610 . S
N3445 C3446 1.351 . S
C3446 C3440 1.428 . S
C3446 N3445 1.351 . S
C3446 C3447 1.434 . S
C3447 C3438 1.429 . S
C3447 N3444 1.350 . S
C3447 C3446 1.434 . S
C3448 C3449 1.369 . S
C3448 C3450 1.419 . S
C3448 H3452 0.930 . S
C3449 C3448 1.369 . S
C3449 C3458 1.429 . S
C3450 C3448 1.419 . S
C3450 C3451 1.363 . S
C3450 H3453 0.929 . S
C3451 C3450 1.363 . S
C3451 C3457 1.428 . S
H3452 C3448 0.930 . S
H3453 C3450 0.929 . S
S3454 N3455 1.613 . S
S3454 N3456 1.610 . S
N3455 S3454 1.613 . S
N3455 C3458 1.350 . S
N3456 S3454 1.610 . S
N3456 C3457 1.351 . S
C3457 C3451 1.428 . S
C3457 N3456 1.351 . S
C3457 C3458 1.434 . S
C3458 C3449 1.429 . S
C3458 N3455 1.350 . S
C3458 C3457 1.434 . S
C3459 C3460 1.369 . S
C3459 C3461 1.419 . S
C3459 H3463 0.930 . S
C3460 C3459 1.369 . S
C3460 C3469 1.429 . S
C3461 C3459 1.419 . S
C3461 C3462 1.363 . S
C3461 H3464 0.929 . S
C3462 C3461 1.363 . S
C3462 C3468 1.428 . S
H3463 C3459 0.930 . S
H3464 C3461 0.929 . S
S3465 N3466 1.613 . S
S3465 N3467 1.610 . S
N3466 S3465 1.613 . S
N3466 C3469 1.350 . S
N3467 S3465 1.610 . S
N3467 C3468 1.351 . S
C3468 C3462 1.428 . S
C3468 N3467 1.351 . S
C3468 C3469 1.434 . S
C3469 C3460 1.429 . S
C3469 N3466 1.350 . S
C3469 C3468 1.434 . S
C3470 C3471 1.369 . S
C3470 C3472 1.419 . S
C3470 H3474 0.930 . S
C3471 C3470 1.369 . S
C3471 C3480 1.429 1_455 S
C3472 C3470 1.419 . S
C3472 C3473 1.363 1_455 S
C3472 H3475 0.929 . S
C3473 C3472 1.363 1_655 S
C3473 C3479 1.428 . S
H3474 C3470 0.930 . S
H3475 C3472 0.929 . S
S3476 N3477 1.613 . S
S3476 N3478 1.610 . S
N3477 S3476 1.613 . S
N3477 C3480 1.350 . S
N3478 S3476 1.610 . S
N3478 C3479 1.351 . S
C3479 C3473 1.428 . S
C3479 N3478 1.351 . S
C3479 C3480 1.434 . S
C3480 C3471 1.429 1_655 S
C3480 N3477 1.350 . S
C3480 C3479 1.434 . S
C3481 C3482 1.369 . S
C3481 C3483 1.419 . S
C3481 H3485 0.930 . S
C3482 C3481 1.369 . S
C3482 C3491 1.429 . S
C3483 C3481 1.419 . S
C3483 C3484 1.363 . S
C3483 H3486 0.929 . S
C3484 C3483 1.363 . S
C3484 C3490 1.428 . S
H3485 C3481 0.930 . S
H3486 C3483 0.929 . S
S3487 N3488 1.613 . S
S3487 N3489 1.610 . S
N3488 S3487 1.613 . S
N3488 C3491 1.350 . S
N3489 S3487 1.610 . S
N3489 C3490 1.351 . S
C3490 C3484 1.428 . S
C3490 N3489 1.351 . S
C3490 C3491 1.434 . S
C3491 C3482 1.429 . S
C3491 N3488 1.350 . S
C3491 C3490 1.434 . S
C3492 C3493 1.369 . S
C3492 C3494 1.419 . S
C3492 H3496 0.930 . S
C3493 C3492 1.369 . S
C3493 C3502 1.429 . S
C3494 C3492 1.419 . S
C3494 C3495 1.363 . S
C3494 H3497 0.929 . S
C3495 C3494 1.363 . S
C3495 C3501 1.428 . S
H3496 C3492 0.930 . S
H3497 C3494 0.929 . S
S3498 N3499 1.613 . S
S3498 N3500 1.610 . S
N3499 S3498 1.613 . S
N3499 C3502 1.350 . S
N3500 S3498 1.610 . S
N3500 C3501 1.351 . S
C3501 C3495 1.428 . S
C3501 N3500 1.351 . S
C3501 C3502 1.434 . S
C3502 C3493 1.429 . S
C3502 N3499 1.350 . S
C3502 C3501 1.434 . S
C3503 C3504 1.369 . S
C3503 C3505 1.419 . S
C3503 H3507 0.930 . S
C3504 C3503 1.369 . S
C3504 C3513 1.429 . S
C3505 C3503 1.419 . S
C3505 C3506 1.363 . S
C3505 H3508 0.929 . S
C3506 C3505 1.363 . S
C3506 C3512 1.428 . S
H3507 C3503 0.930 . S
H3508 C3505 0.929 . S
S3509 N3510 1.613 . S
S3509 N3511 1.610 . S
N3510 S3509 1.613 . S
N3510 C3513 1.350 . S
N3511 S3509 1.610 . S
N3511 C3512 1.351 . S
C3512 C3506 1.428 . S
C3512 N3511 1.351 . S
C3512 C3513 1.434 . S
C3513 C3504 1.429 . S
C3513 N3510 1.350 . S
C3513 C3512 1.434 . S
C3514 C3515 1.369 . S
C3514 C3516 1.419 . S
C3514 H3518 0.930 1_455 S
C3515 C3514 1.369 . S
C3515 C3524 1.429 . S
C3516 C3514 1.419 . S
C3516 C3517 1.363 . S
C3516 H3519 0.929 1_455 S
C3517 C3516 1.363 . S
C3517 C3523 1.428 . S
H3518 C3514 0.930 1_655 S
H3519 C3516 0.929 1_655 S
S3520 N3521 1.613 . S
S3520 N3522 1.610 . S
N3521 S3520 1.613 . S
N3521 C3524 1.350 . S
N3522 S3520 1.610 . S
N3522 C3523 1.351 . S
C3523 C3517 1.428 . S
C3523 N3522 1.351 . S
C3523 C3524 1.434 . S
C3524 C3515 1.429 . S
C3524 N3521 1.350 . S
C3524 C3523 1.434 . S
C3525 C3526 1.369 . S
C3525 C3527 1.419 . S
C3525 H3529 0.930 . S
C3526 C3525 1.369 . S
C3526 C3535 1.429 . S
C3527 C3525 1.419 . S
C3527 C3528 1.363 . S
C3527 H3530 0.929 . S
C3528 C3527 1.363 . S
C3528 C3534 1.428 . S
H3529 C3525 0.930 . S
H3530 C3527 0.929 . S
S3531 N3532 1.613 . S
S3531 N3533 1.610 . S
N3532 S3531 1.613 . S
N3532 C3535 1.350 . S
N3533 S3531 1.610 . S
N3533 C3534 1.351 . S
C3534 C3528 1.428 . S
C3534 N3533 1.351 . S
C3534 C3535 1.434 . S
C3535 C3526 1.429 . S
C3535 N3532 1.350 . S
C3535 C3534 1.434 . S
C3536 C3537 1.369 . S
C3536 C3538 1.419 . S
C3536 H3540 0.930 . S
C3537 C3536 1.369 . S
C3537 C3546 1.429 . S
C3538 C3536 1.419 . S
C3538 C3539 1.363 . S
C3538 H3541 0.929 . S
C3539 C3538 1.363 . S
C3539 C3545 1.428 . S
H3540 C3536 0.930 . S
H3541 C3538 0.929 . S
S3542 N3543 1.613 . S
S3542 N3544 1.610 . S
N3543 S3542 1.613 . S
N3543 C3546 1.350 . S
N3544 S3542 1.610 . S
N3544 C3545 1.351 . S
C3545 C3539 1.428 . S
C3545 N3544 1.351 . S
C3545 C3546 1.434 . S
C3546 C3537 1.429 . S
C3546 N3543 1.350 . S
C3546 C3545 1.434 . S
C3547 C3548 1.369 . S
C3547 C3549 1.419 . S
C3547 H3551 0.930 . S
C3548 C3547 1.369 . S
C3548 C3557 1.429 . S
C3549 C3547 1.419 . S
C3549 C3550 1.363 . S
C3549 H3552 0.929 . S
C3550 C3549 1.363 . S
C3550 C3556 1.428 . S
H3551 C3547 0.930 . S
H3552 C3549 0.929 . S
S3553 N3554 1.613 . S
S3553 N3555 1.610 . S
N3554 S3553 1.613 . S
N3554 C3557 1.350 . S
N3555 S3553 1.610 . S
N3555 C3556 1.351 . S
C3556 C3550 1.428 . S
C3556 N3555 1.351 . S
C3556 C3557 1.434 . S
C3557 C3548 1.429 . S
C3557 N3554 1.350 . S
C3557 C3556 1.434 . S
C3558 C3559 1.369 . S
C3558 C3560 1.419 . S
C3558 H3562 0.930 . S
C3559 C3558 1.369 . S
C3559 C3568 1.429 . S
C3560 C3558 1.419 . S
C3560 C3561 1.363 . S
C3560 H3563 0.929 . S
C3561 C3560 1.363 . S
C3561 C3567 1.428 . S
H3562 C3558 0.930 . S
H3563 C3560 0.929 . S
S3564 N3565 1.613 . S
S3564 N3566 1.610 . S
N3565 S3564 1.613 . S
N3565 C3568 1.350 . S
N3566 S3564 1.610 . S
N3566 C3567 1.351 . S
C3567 C3561 1.428 . S
C3567 N3566 1.351 . S
C3567 C3568 1.434 . S
C3568 C3559 1.429 . S
C3568 N3565 1.350 . S
C3568 C3567 1.434 . S
C3569 C3570 1.369 . S
C3569 C3571 1.419 . S
C3569 H3573 0.930 . S
C3570 C3569 1.369 . S
C3570 C3579 1.429 . S
C3571 C3569 1.419 . S
C3571 C3572 1.363 . S
C3571 H3574 0.929 . S
C3572 C3571 1.363 . S
C3572 C3578 1.428 . S
H3573 C3569 0.930 . S
H3574 C3571 0.929 . S
S3575 N3576 1.613 . S
S3575 N3577 1.610 . S
N3576 S3575 1.613 . S
N3576 C3579 1.350 . S
N3577 S3575 1.610 . S
N3577 C3578 1.351 . S
C3578 C3572 1.428 . S
C3578 N3577 1.351 . S
C3578 C3579 1.434 . S
C3579 C3570 1.429 . S
C3579 N3576 1.350 . S
C3579 C3578 1.434 . S
C3580 C3581 1.369 . S
C3580 C3582 1.419 . S
C3580 H3584 0.930 . S
C3581 C3580 1.369 . S
C3581 C3590 1.429 . S
C3582 C3580 1.419 . S
C3582 C3583 1.363 . S
C3582 H3585 0.929 . S
C3583 C3582 1.363 . S
C3583 C3589 1.428 . S
H3584 C3580 0.930 . S
H3585 C3582 0.929 . S
S3586 N3587 1.613 . S
S3586 N3588 1.610 . S
N3587 S3586 1.613 . S
N3587 C3590 1.350 . S
N3588 S3586 1.610 . S
N3588 C3589 1.351 . S
C3589 C3583 1.428 . S
C3589 N3588 1.351 . S
C3589 C3590 1.434 . S
C3590 C3581 1.429 . S
C3590 N3587 1.350 . S
C3590 C3589 1.434 . S
C3591 C3592 1.369 . S
C3591 C3593 1.419 . S
C3591 H3595 0.930 . S
C3592 C3591 1.369 . S
C3592 C3601 1.429 . S
C3593 C3591 1.419 . S
C3593 C3594 1.363 . S
C3593 H3596 0.929 . S
C3594 C3593 1.363 . S
C3594 C3600 1.428 . S
H3595 C3591 0.930 . S
H3596 C3593 0.929 . S
S3597 N3598 1.613 . S
S3597 N3599 1.610 . S
N3598 S3597 1.613 . S
N3598 C3601 1.350 . S
N3599 S3597 1.610 . S
N3599 C3600 1.351 . S
C3600 C3594 1.428 . S
C3600 N3599 1.351 . S
C3600 C3601 1.434 . S
C3601 C3592 1.429 . S
C3601 N3598 1.350 . S
C3601 C3600 1.434 . S
C3602 C3603 1.369 . S
C3602 C3604 1.419 . S
C3602 H3606 0.930 . S
C3603 C3602 1.369 . S
C3603 C3612 1.429 . S
C3604 C3602 1.419 . S
C3604 C3605 1.363 . S
C3604 H3607 0.929 . S
C3605 C3604 1.363 . S
C3605 C3611 1.428 . S
H3606 C3602 0.930 . S
H3607 C3604 0.929 . S
S3608 N3609 1.613 . S
S3608 N3610 1.610 . S
N3609 S3608 1.613 . S
N3609 C3612 1.350 . S
N3610 S3608 1.610 . S
N3610 C3611 1.351 . S
C3611 C3605 1.428 . S
C3611 N3610 1.351 . S
C3611 C3612 1.434 . S
C3612 C3603 1.429 . S
C3612 N3609 1.350 . S
C3612 C3611 1.434 . S
C3613 C3614 1.369 . S
C3613 C3615 1.419 . S
C3613 H3617 0.930 . S
C3614 C3613 1.369 . S
C3614 C3623 1.429 . S
C3615 C3613 1.419 . S
C3615 C3616 1.363 . S
C3615 H3618 0.929 . S
C3616 C3615 1.363 . S
C3616 C3622 1.428 . S
H3617 C3613 0.930 . S
H3618 C3615 0.929 . S
S3619 N3620 1.613 . S
S3619 N3621 1.610 . S
N3620 S3619 1.613 . S
N3620 C3623 1.350 . S
N3621 S3619 1.610 . S
N3621 C3622 1.351 . S
C3622 C3616 1.428 . S
C3622 N3621 1.351 . S
C3622 C3623 1.434 . S
C3623 C3614 1.429 . S
C3623 N3620 1.350 . S
C3623 C3622 1.434 . S
C3624 C3625 1.369 . S
C3624 C3626 1.419 . S
C3624 H3628 0.930 . S
C3625 C3624 1.369 . S
C3625 C3634 1.429 . S
C3626 C3624 1.419 . S
C3626 C3627 1.363 . S
C3626 H3629 0.929 . S
C3627 C3626 1.363 . S
C3627 C3633 1.428 . S
H3628 C3624 0.930 . S
H3629 C3626 0.929 . S
S3630 N3631 1.613 . S
S3630 N3632 1.610 . S
N3631 S3630 1.613 . S
N3631 C3634 1.350 . S
N3632 S3630 1.610 . S
N3632 C3633 1.351 . S
C3633 C3627 1.428 . S
C3633 N3632 1.351 . S
C3633 C3634 1.434 . S
C3634 C3625 1.429 . S
C3634 N3631 1.350 . S
C3634 C3633 1.434 . S
C3635 C3636 1.369 . S
C3635 C3637 1.419 . S
C3635 H3639 0.930 . S
C3636 C3635 1.369 . S
C3636 C3645 1.429 . S
C3637 C3635 1.419 . S
C3637 C3638 1.363 . S
C3637 H3640 0.929 . S
C3638 C3637 1.363 . S
C3638 C3644 1.428 . S
H3639 C3635 0.930 . S
H3640 C3637 0.929 . S
S3641 N3642 1.613 1_565 S
S3641 N3643 1.610 1_565 S
N3642 S3641 1.613 1_545 S
N3642 C3645 1.350 . S
N3643 S3641 1.610 1_545 S
N3643 C3644 1.351 . S
C3644 C3638 1.428 . S
C3644 N3643 1.351 . S
C3644 C3645 1.434 . S
C3645 C3636 1.429 . S
C3645 N3642 1.350 . S
C3645 C3644 1.434 . S
C3646 C3647 1.369 . S
C3646 C3648 1.419 . S
C3646 H3650 0.930 . S
C3647 C3646 1.369 . S
C3647 C3656 1.429 . S
C3648 C3646 1.419 . S
C3648 C3649 1.363 . S
C3648 H3651 0.929 . S
C3649 C3648 1.363 . S
C3649 C3655 1.428 . S
H3650 C3646 0.930 . S
H3651 C3648 0.929 . S
S3652 N3653 1.613 . S
S3652 N3654 1.610 . S
N3653 S3652 1.613 . S
N3653 C3656 1.350 . S
N3654 S3652 1.610 . S
N3654 C3655 1.351 . S
C3655 C3649 1.428 . S
C3655 N3654 1.351 . S
C3655 C3656 1.434 . S
C3656 C3647 1.429 . S
C3656 N3653 1.350 . S
C3656 C3655 1.434 . S
C3657 C3658 1.369 . S
C3657 C3659 1.419 . S
C3657 H3661 0.930 . S
C3658 C3657 1.369 . S
C3658 C3667 1.442 . S
C3659 C3657 1.419 . S
C3659 C3660 1.363 . S
C3659 H3662 0.929 . S
C3660 C3659 1.363 . S
C3660 C3666 1.428 1_554 S
H3661 C3657 0.930 . S
H3662 C3659 0.929 . S
S3663 N3664 1.613 . S
S3663 N3665 1.610 . S
N3664 S3663 1.613 . S
N3664 C3667 1.337 1_556 S
N3665 S3663 1.610 . S
N3665 C3666 1.351 . S
C3666 C3660 1.428 1_556 S
C3666 N3665 1.351 . S
C3666 C3667 1.432 1_556 S
C3667 C3658 1.442 . S
C3667 N3664 1.337 1_554 S
C3667 C3666 1.432 1_554 S
C3668 C3669 1.369 . S
C3668 C3670 1.419 . S
C3668 H3672 0.930 . S
C3669 C3668 1.369 . S
C3669 C3678 1.429 . S
C3670 C3668 1.419 . S
C3670 C3671 1.363 . S
C3670 H3673 0.929 . S
C3671 C3670 1.363 . S
C3671 C3677 1.428 . S
H3672 C3668 0.930 . S
H3673 C3670 0.929 . S
S3674 N3675 1.613 . S
S3674 N3676 1.610 . S
N3675 S3674 1.613 . S
N3675 C3678 1.350 . S
N3676 S3674 1.610 . S
N3676 C3677 1.351 . S
C3677 C3671 1.428 . S
C3677 N3676 1.351 . S
C3677 C3678 1.434 . S
C3678 C3669 1.429 . S
C3678 N3675 1.350 . S
C3678 C3677 1.434 . S
C3679 C3680 1.369 . S
C3679 C3681 1.419 . S
C3679 H3683 0.930 . S
C3680 C3679 1.369 . S
C3680 C3689 1.429 1_554 S
C3681 C3679 1.419 . S
C3681 C3682 1.363 . S
C3681 H3684 0.929 . S
C3682 C3681 1.363 . S
C3682 C3688 1.428 . S
H3683 C3679 0.930 . S
H3684 C3681 0.929 . S
S3685 N3686 1.613 . S
S3685 N3687 1.610 1_556 S
N3686 S3685 1.613 . S
N3686 C3689 1.350 . S
N3687 S3685 1.610 1_554 S
N3687 C3688 1.351 . S
C3688 C3682 1.428 . S
C3688 N3687 1.351 . S
C3688 C3689 1.434 1_554 S
C3689 C3680 1.429 1_556 S
C3689 N3686 1.350 . S
C3689 C3688 1.434 1_556 S
C3690 C3691 1.369 . S
C3690 C3692 1.419 . S
C3690 H3694 0.930 . S
C3691 C3690 1.369 . S
C3691 C3700 1.429 . S
C3692 C3690 1.419 . S
C3692 C3693 1.363 . S
C3692 H3695 0.929 . S
C3693 C3692 1.363 . S
C3693 C3699 1.428 . S
H3694 C3690 0.930 . S
H3695 C3692 0.929 . S
S3696 N3697 1.613 . S
S3696 N3698 1.610 . S
N3697 S3696 1.613 . S
N3697 C3700 1.350 . S
N3698 S3696 1.610 . S
N3698 C3699 1.351 . S
C3699 C3693 1.428 . S
C3699 N3698 1.351 . S
C3699 C3700 1.434 . S
C3700 C3691 1.429 . S
C3700 N3697 1.350 . S
C3700 C3699 1.434 . S
C3701 C3702 1.369 . S
C3701 C3703 1.419 . S
C3701 H3705 0.930 . S
C3702 C3701 1.369 . S
C3702 C3711 1.429 . S
C3703 C3701 1.419 . S
C3703 C3704 1.363 . S
C3703 H3706 0.929 . S
C3704 C3703 1.363 . S
C3704 C3710 1.428 . S
H3705 C3701 0.930 . S
H3706 C3703 0.929 . S
S3707 N3708 1.613 . S
S3707 N3709 1.610 . S
N3708 S3707 1.613 . S
N3708 C3711 1.350 . S
N3709 S3707 1.610 . S
N3709 C3710 1.351 . S
C3710 C3704 1.428 . S
C3710 N3709 1.351 . S
C3710 C3711 1.434 . S
C3711 C3702 1.429 . S
C3711 N3708 1.350 . S
C3711 C3710 1.434 . S
C2659 C2129 1.033 . S
C2657 C49 1.065 . S
C2668 C137 1.837 . S
C2670 C2175 1.835 . S
C2679 C205 0.879 . S
C2681 C2184 0.877 . S
C2692 C2222 1.610 . S
C2690 C284 1.618 . S
C2701 C117 1.556 . S
C2703 C2256 1.545 . S
C2714 C2286 0.874 . S
C2712 C225 0.882 . S
C2725 C2345 1.546 1_556 S
C2723 C321 1.567 . S
C2734 C29 1.121 . S
C2736 C2358 1.108 . S
C2745 C401 1.370 . S
C2747 C2141 1.352 . S
C2756 C497 1.227 . S
C2758 C2159 1.226 . S
C2769 C2180 1.580 . S
C2767 C585 1.608 . S
C2780 C2218 1.043 . S
C2778 C665 1.076 . S
C2789 C372 1.346 . S
C2791 C2252 1.317 . S
C2802 C2282 1.537 . S
C2800 C469 1.560 . S
C2813 C2329 1.262 . S
C2811 C557 1.274 . S
C2824 C2354 0.642 . S
C2822 C636 0.630 . S
C2835 C2125 0.931 . S
C2833 C673 0.916 . S
C2846 C2384 1.698 . S
C2844 C724 1.665 . S
C2855 C821 1.557 . S
C2857 C2426 1.568 . S
C2868 C2469 0.641 . S
C2866 C909 0.647 . S
C2877 C381 1.396 . S
C2879 C2350 1.373 . S
C2890 C2188 1.642 . S
C2888 C489 1.611 . S
C2899 C849 1.430 . S
C2901 C2486 1.455 . S
C2912 C2537 1.604 . S
C2910 C1017 1.602 . S
C2921 C1085 1.064 . S
C2923 C2120 1.037 1_556 S
C2934 C2520 1.837 . S
C2932 C1201 1.843 . S
C2943 C1289 0.880 . S
C2945 C2193 0.879 . S
C2954 C1349 1.623 . S
C2956 C2503 1.613 . S
C2967 C2265 1.547 . S
C2965 C1193 1.563 . S
C2978 C2431 0.883 . S
C2976 C1281 0.871 . S
C2989 C2316 1.562 . S
C2987 C1340 1.569 . S
C3000 C2571 1.110 . S
C2998 C1076 1.130 . S
C3011 C2112 1.354 . S
C3009 C1428 1.374 . S
C3020 C1516 1.233 . S
C3022 C2524 1.225 . S
C3033 C2209 1.585 . S
C3031 C1604 1.611 . S
C3042 C1701 1.071 . S
C3044 C2499 1.050 . S
C3053 C1457 1.352 . S
C3055 C2261 1.324 . S
C3064 C1545 1.564 . S
C3066 C2447 1.539 . S
C3077 C2320 1.262 . S
C3075 C1633 1.278 . S
C3086 C1729 0.633 . S
C3088 C2567 0.637 . S
C3097 C1721 0.924 . S
C3099 C2116 0.932 . S
C3108 C1789 1.664 . S
C3110 C2413 1.700 . S
C3119 C1868 1.557 . S
C3121 C2299 1.575 . S
C3130 C1956 0.650 . S
C3132 C2460 0.646 . S
C3143 C2583 1.374 . S
C3141 C1437 1.403 . S
C3154 C2197 1.641 . S
C3152 C1553 1.622 . S
C3165 C2243 1.458 . S
C3163 C1897 1.426 . S
C3176 C2154 1.609 . S
C3174 C2081 1.600 . S
C3185 C233 1.061 . S
C3187 C2605 1.035 . S
C3198 C2549 1.834 . S
C3196 C313 1.836 . S
C3209 C2626 0.874 . S
C3207 C20 0.882 . S
C3218 C108 1.618 . S
C3220 C2494 1.611 . S
C3229 C293 1.558 . S
C3231 C2392 1.564 . S
C3242 C2422 0.876 . S
C3240 C57 0.876 . S
C3253 C2481 1.560 . S
C3251 C145 1.565 . S
C3264 C2562 1.113 . S
C3262 C196 1.117 . S
C3275 C2617 1.352 . S
C3273 C1025 1.370 . S
C3284 C761 1.221 . S
C3286 C2533 1.230 . S
C3295 C841 1.608 . S
C3297 C2622 1.582 . S
C3308 C2490 1.035 . S
C3306 C929 1.084 . S
C3319 C2388 1.315 . S
C3317 C997 1.348 . S
C3328 C733 1.560 . S
C3330 C2418 1.537 . S
C3341 C2465 1.264 . S
C3339 C812 1.276 . S
C3350 C900 0.633 . S
C3352 C2558 0.636 . S
C3363 C2601 0.941 . S
C3361 C937 0.903 . S
C3374 C2248 1.699 . S
C3372 C460 1.661 . S
C3385 C2290 1.571 . S
C3383 C548 1.556 . S
C3394 C645 0.631 . S
C3396 C2333 0.656 . S
C3407 C2554 1.381 . S
C3405 C988 1.388 . S
C3416 C753 1.621 . S
C3418 C2630 1.635 . S
C3429 C2214 1.455 . S
C3427 C577 1.426 . S
C3440 C2163 1.603 . S
C3438 C409 1.599 . S
C3449 C1261 1.067 . S
C3451 C2596 1.034 . S
C3462 C2146 1.837 . S
C3460 C1377 1.840 . S
C3473 C2635 0.877 . S
C3471 C1113 0.882 . S
C3482 C1173 1.622 . S
C3484 C2231 1.610 . S
C3493 C1369 1.562 . S
C3495 C2401 1.549 . S
C3504 C1105 0.883 . S
C3506 C2295 0.871 . S
C3515 C1164 1.569 . S
C3517 C2452 1.561 . S
C3526 C1252 1.125 . S
C3528 C2367 1.111 . S
C3539 C2588 1.353 . S
C3537 C2044 1.374 . S
C3548 C1780 1.226 . S
C3550 C2150 1.229 . S
C3561 C2651 1.582 . S
C3559 C1877 1.614 . S
C3570 C1965 1.085 . S
C3572 C2227 1.039 . S
C3581 C2073 1.349 . S
C3583 C2397 1.321 . S
C3594 C2311 1.542 . S
C3592 C1809 1.566 . S
C3603 C1905 1.274 . S
C3605 C2456 1.270 . S
C3616 C2363 0.637 . S
C3614 C1993 0.635 . S
C3627 C2592 0.929 . S
C3625 C1985 0.926 . S
C3638 C2277 1.700 . S
C3636 C1525 1.667 . S
C3647 C1613 1.562 . S
C3649 C2435 1.568 . S
C3660 C2324 0.651 . S
C3658 C1692 0.643 . S
C3671 C2379 1.381 . S
C3669 C2053 1.394 . S
C3680 C1817 1.620 1_554 S
C3682 C2639 1.638 . S
C3693 C2515 1.459 . S
C3691 C1641 1.430 . S
C3704 C2528 1.606 . S
C3702 C1465 1.600 . S
