# Generated by pormake.
# Topology wbl, (4,4)-cn, num edge types: 1
# Building blocks:
#     Node 0, Type 0, BuildingBlock: MUDLON_clean_sbu_0, # of connection points: 4
#     Node 1, Type 0, BuildingBlock: MUDLON_clean_sbu_0, # of connection points: 4
#     Node 2, Type 0, BuildingBlock: MUDLON_clean_sbu_0, # of connection points: 4
#     Node 3, Type 0, BuildingBlock: MUDLON_clean_sbu_0, # of connection points: 4
#     Node 4, Type 0, BuildingBlock: MUDLON_clean_sbu_0, # of connection points: 4
#     Node 5, Type 0, BuildingBlock: MUDLON_clean_sbu_0, # of connection points: 4
#     Node 6, Type 0, BuildingBlock: MUDLON_clean_sbu_0, # of connection points: 4
#     Node 7, Type 0, BuildingBlock: MUDLON_clean_sbu_0, # of connection points: 4
#     Node 8, Type 1, BuildingBlock: KUFVIS_clean_sbu_0, # of connection points: 4
#     Node 9, Type 1, BuildingBlock: KUFVIS_clean_sbu_0, # of connection points: 4
#     Node 10, Type 1, BuildingBlock: KUFVIS_clean_sbu_0, # of connection points: 4
#     Node 11, Type 1, BuildingBlock: KUFVIS_clean_sbu_0, # of connection points: 4
#     Node 12, Type 1, BuildingBlock: KUFVIS_clean_sbu_0, # of connection points: 4
#     Node 13, Type 1, BuildingBlock: KUFVIS_clean_sbu_0, # of connection points: 4
#     Node 14, Type 1, BuildingBlock: KUFVIS_clean_sbu_0, # of connection points: 4
#     Node 15, Type 1, BuildingBlock: KUFVIS_clean_sbu_0, # of connection points: 4
#     Edge 16, Type (0, 1), BuildingBlock: MIFKUJ_clean_linker_0, # of connection points: 2
#     Edge 17, Type (0, 1), BuildingBlock: MIFKUJ_clean_linker_0, # of connection points: 2
#     Edge 18, Type (0, 1), BuildingBlock: MIFKUJ_clean_linker_0, # of connection points: 2
#     Edge 19, Type (0, 1), BuildingBlock: MIFKUJ_clean_linker_0, # of connection points: 2
#     Edge 20, Type (0, 1), BuildingBlock: MIFKUJ_clean_linker_0, # of connection points: 2
#     Edge 21, Type (0, 1), BuildingBlock: MIFKUJ_clean_linker_0, # of connection points: 2
#     Edge 22, Type (0, 1), BuildingBlock: MIFKUJ_clean_linker_0, # of connection points: 2
#     Edge 23, Type (0, 1), BuildingBlock: MIFKUJ_clean_linker_0, # of connection points: 2
#     Edge 24, Type (0, 1), BuildingBlock: MIFKUJ_clean_linker_0, # of connection points: 2
#     Edge 25, Type (0, 1), BuildingBlock: MIFKUJ_clean_linker_0, # of connection points: 2
#     Edge 26, Type (0, 1), BuildingBlock: MIFKUJ_clean_linker_0, # of connection points: 2
#     Edge 27, Type (0, 1), BuildingBlock: MIFKUJ_clean_linker_0, # of connection points: 2
#     Edge 28, Type (0, 1), BuildingBlock: MIFKUJ_clean_linker_0, # of connection points: 2
#     Edge 29, Type (0, 1), BuildingBlock: MIFKUJ_clean_linker_0, # of connection points: 2
#     Edge 30, Type (0, 1), BuildingBlock: MIFKUJ_clean_linker_0, # of connection points: 2
#     Edge 31, Type (0, 1), BuildingBlock: MIFKUJ_clean_linker_0, # of connection points: 2
#     Edge 32, Type (0, 1), BuildingBlock: MIFKUJ_clean_linker_0, # of connection points: 2
#     Edge 33, Type (0, 1), BuildingBlock: MIFKUJ_clean_linker_0, # of connection points: 2
#     Edge 34, Type (0, 1), BuildingBlock: MIFKUJ_clean_linker_0, # of connection points: 2
#     Edge 35, Type (0, 1), BuildingBlock: MIFKUJ_clean_linker_0, # of connection points: 2
#     Edge 36, Type (0, 1), BuildingBlock: MIFKUJ_clean_linker_0, # of connection points: 2
#     Edge 37, Type (0, 1), BuildingBlock: MIFKUJ_clean_linker_0, # of connection points: 2
#     Edge 38, Type (0, 1), BuildingBlock: MIFKUJ_clean_linker_0, # of connection points: 2
#     Edge 39, Type (0, 1), BuildingBlock: MIFKUJ_clean_linker_0, # of connection points: 2
#     Edge 40, Type (0, 1), BuildingBlock: MIFKUJ_clean_linker_0, # of connection points: 2
#     Edge 41, Type (0, 1), BuildingBlock: MIFKUJ_clean_linker_0, # of connection points: 2
#     Edge 42, Type (0, 1), BuildingBlock: MIFKUJ_clean_linker_0, # of connection points: 2
#     Edge 43, Type (0, 1), BuildingBlock: MIFKUJ_clean_linker_0, # of connection points: 2
#     Edge 44, Type (0, 1), BuildingBlock: MIFKUJ_clean_linker_0, # of connection points: 2
#     Edge 45, Type (0, 1), BuildingBlock: MIFKUJ_clean_linker_0, # of connection points: 2
#     Edge 46, Type (0, 1), BuildingBlock: MIFKUJ_clean_linker_0, # of connection points: 2
#     Edge 47, Type (0, 1), BuildingBlock: MIFKUJ_clean_linker_0, # of connection points: 2
# Relax obj value: 0.226
# Max RMSD: 0.214
# Mean RMSD: 0.170
data_MOF--net-wbl--node1-MUDLON_clean_sbu_0--node2-KUFVIS_clean_sbu_0--edge1-MIFKUJ_clean_linker_0
_symmetry_space_group_name_H-M    P1
_symmetry_Int_Tables_number       1
_symmetry_cell_setting            triclinic
loop_
_symmetry_equiv_pos_as_xyz
'x, y, z'
_cell_length_a     44.944347
_cell_length_b     44.966388
_cell_length_c     96.773117
_cell_angle_alpha  89.986855
_cell_angle_beta   90.54457
_cell_angle_gamma 89.995766
loop_
_atom_site_label
_atom_site_type_symbol
_atom_site_fract_x
_atom_site_fract_y
_atom_site_fract_z
_atom_type_partial_charge
Mg0 Mg 0.03993 0.05805 0.33338 0.0
C1 C 0.02783 0.99757 0.34749 0.0
O2 O 0.99956 0.00424 0.34584 0.0
C3 C 0.99276 0.08879 0.3175 0.0
O4 O 0.01215 0.11004 0.32 0.0
C5 C 0.0865 0.04761 0.31258 0.0
O6 O 0.06841 0.02497 0.31071 0.0
O7 O 0.07956 0.06732 0.32141 0.0
O8 O 0.04745 0.01455 0.34236 0.0
O9 O 0.03513 0.08628 0.35149 0.0
C10 C 0.01002 0.08383 0.35735 0.0
O11 O 0.98959 0.06705 0.35148 0.0
O12 O 0.99899 0.06249 0.3214 0.0
Mg13 Mg 0.097 0.53421 0.58895 0.0
C14 C 0.15637 0.55473 0.60023 0.0
O15 O 0.14945 0.57823 0.59281 0.0
C16 C 0.10437 0.47424 0.57448 0.0
O17 O 0.12808 0.47251 0.58248 0.0
C18 C 0.10231 0.58095 0.56677 0.0
O19 O 0.11464 0.55833 0.56042 0.0
O20 O 0.09206 0.57713 0.57884 0.0
O21 O 0.13984 0.53185 0.59942 0.0
O22 O 0.0665 0.5291 0.60605 0.0
C23 C 0.06807 0.5038 0.61188 0.0
O24 O 0.08579 0.48361 0.60661 0.0
O25 O 0.08858 0.49769 0.57473 0.0
Mg26 Mg 0.64281 0.61537 0.84163 0.0
C27 C 0.66423 0.66398 0.86115 0.0
O28 O 0.6892 0.64888 0.86059 0.0
C29 C 0.68433 0.58079 0.82437 0.0
O30 O 0.66196 0.56231 0.82592 0.0
C31 C 0.59729 0.61253 0.81739 0.0
O32 O 0.62069 0.61284 0.80936 0.0
O33 O 0.60087 0.61295 0.83043 0.0
O34 O 0.64287 0.65678 0.85312 0.0
O35 O 0.64205 0.58251 0.85798 0.0
C36 C 0.66642 0.57528 0.86383 0.0
O37 O 0.69148 0.58564 0.85888 0.0
O38 O 0.68223 0.60681 0.82942 0.0
Mg39 Mg 0.54036 0.14065 0.08791 0.0
C40 C 0.59368 0.14703 0.10726 0.0
O41 O 0.5996 0.16934 0.09898 0.0
C42 C 0.55595 0.08527 0.07187 0.0
O43 O 0.58156 0.08978 0.0782 0.0
C44 C 0.5756 0.18257 0.06974 0.0
O45 O 0.58966 0.15773 0.06689 0.0
O46 O 0.55348 0.18175 0.07782 0.0
O47 O 0.57185 0.1301 0.10439 0.0
O48 O 0.50054 0.14698 0.09995 0.0
C49 C 0.48403 0.12477 0.10256 0.0
O50 O 0.48822 0.09995 0.09568 0.0
O51 O 0.53483 0.10357 0.07376 0.0
Mg52 Mg 0.1343 0.55668 0.94189 0.0
C53 C 0.11377 0.58743 0.91535 0.0
O54 O 0.09012 0.57072 0.91705 0.0
C55 C 0.07535 0.57767 0.95474 0.0
O56 O 0.07724 0.59913 0.94558 0.0
C57 C 0.18292 0.59054 0.95575 0.0
O58 O 0.16326 0.61148 0.95311 0.0
O59 O 0.17646 0.56382 0.95262 0.0
O60 O 0.13372 0.58796 0.92475 0.0
O61 O 0.13294 0.51437 0.93114 0.0
C62 C 0.1074 0.504 0.92806 0.0
O63 O 0.08374 0.51688 0.93322 0.0
O64 O 0.09616 0.55858 0.95561 0.0
Mg65 Mg 0.62419 0.63292 0.19406 0.0
C66 C 0.57674 0.62274 0.1705 0.0
O67 O 0.57067 0.59698 0.17622 0.0
C68 C 0.61117 0.58569 0.21631 0.0
O69 O 0.60515 0.60891 0.22403 0.0
C70 C 0.58817 0.67638 0.20986 0.0
O71 O 0.56779 0.65773 0.20533 0.0
O72 O 0.61535 0.67084 0.20736 0.0
O73 O 0.596 0.63974 0.17605 0.0
O74 O 0.66782 0.63448 0.18461 0.0
C75 C 0.68286 0.61076 0.18307 0.0
O76 O 0.67415 0.58649 0.18942 0.0
O77 O 0.61833 0.58958 0.20376 0.0
Mg78 Mg 0.5306 0.11567 0.449 0.0
C79 C 0.55034 0.16528 0.43089 0.0
O80 O 0.57601 0.15651 0.43604 0.0
C81 C 0.48841 0.08113 0.46676 0.0
O82 O 0.51241 0.06458 0.46787 0.0
C83 C 0.57872 0.14092 0.46818 0.0
O84 O 0.56334 0.16552 0.46646 0.0
O85 O 0.56969 0.11712 0.46242 0.0
O86 O 0.52654 0.15447 0.43581 0.0
O87 O 0.53733 0.083 0.43295 0.0
C88 C 0.51455 0.07188 0.42704 0.0
O89 O 0.48819 0.07688 0.43231 0.0
O90 O 0.48968 0.10507 0.45979 0.0
Mg91 Mg 0.0427 0.01729 0.69122 0.0
C92 C 0.08002 0.0035 0.66607 0.0
O93 O 0.08444 0.97856 0.67286 0.0
C94 C 0.02035 0.07232 0.70548 0.0
O95 O 0.99583 0.06374 0.69915 0.0
C96 C 0.08256 0.97842 0.70914 0.0
O97 O 0.09616 0.00395 0.71115 0.0
O98 O 0.05935 0.9777 0.70154 0.0
O99 O 0.06601 0.02454 0.67191 0.0
O100 O 0.99882 0.01008 0.68265 0.0
C101 C 0.99813 0.9888 0.67403 0.0
O102 O 0.0183 0.96779 0.6753 0.0
O103 O 0.04381 0.0568 0.70415 0.0
Mn104 Mn 0.50557 0.7442 0.01333 0.0
Mn105 Mn 0.53251 0.67414 0.01344 0.0
C106 C 0.50541 0.71677 0.03349 0.0
C107 C 0.51405 0.79517 0.01526 0.0
C108 C 0.47149 0.69077 0.00187 0.0
O109 O 0.52812 0.74176 0.99522 0.0
O110 O 0.54943 0.69655 0.99756 0.0
C111 C 0.59549 0.68834 0.01982 0.0
N112 N 0.57006 0.67337 0.02289 0.0
C113 C 0.59329 0.65045 0.04271 0.0
C114 C 0.61987 0.66523 0.03961 0.0
C115 C 0.62089 0.68444 0.02818 0.0
C116 C 0.56868 0.65525 0.03401 0.0
H117 H 0.59631 0.70327 0.01111 0.0
C118 C 0.54566 0.72129 0.9912 0.0
O119 O 0.49075 0.78492 0.0088 0.0
O120 O 0.53266 0.77583 0.02025 0.0
N121 N 0.51852 0.64995 0.02832 0.0
C122 C 0.49079 0.63854 0.0303 0.0
C123 C 0.48571 0.61969 0.04161 0.0
C124 C 0.50922 0.61254 0.05069 0.0
C125 C 0.53765 0.62417 0.04833 0.0
C126 C 0.54144 0.64266 0.03683 0.0
H127 H 0.47263 0.64389 0.02336 0.0
O128 O 0.48836 0.73988 0.03216 0.0
O129 O 0.52271 0.71098 0.02315 0.0
O130 O 0.47252 0.71822 0.00519 0.0
O131 O 0.49314 0.67272 0.00391 0.0
C132 C 0.56231 0.61846 0.05704 0.0
C133 C 0.59008 0.63166 0.05425 0.0
H134 H 0.63953 0.66226 0.04603 0.0
H135 H 0.64125 0.69613 0.02579 0.0
H136 H 0.46371 0.61077 0.04335 0.0
H137 H 0.50514 0.5982 0.05946 0.0
H138 H 0.56008 0.60422 0.066 0.0
H139 H 0.60875 0.62747 0.06114 0.0
Mn140 Mn 0.43851 0.00396 0.26513 0.0
Mn141 Mn 0.50929 0.02774 0.26213 0.0
C142 C 0.4685 0.00797 0.28466 0.0
C143 C 0.38796 0.01464 0.26756 0.0
C144 C 0.48899 0.96536 0.25431 0.0
O145 O 0.43931 0.02203 0.24585 0.0
O146 O 0.48527 0.04211 0.2461 0.0
C147 C 0.49973 0.09252 0.26518 0.0
N148 N 0.51323 0.06698 0.26947 0.0
C149 C 0.54318 0.09361 0.28608 0.0
C150 C 0.52989 0.12027 0.2817 0.0
C151 C 0.5077 0.11962 0.27138 0.0
C152 C 0.53363 0.06717 0.27982 0.0
H153 H 0.48309 0.09219 0.25706 0.0
C154 C 0.45969 0.03789 0.24047 0.0
O155 O 0.39689 0.98973 0.26222 0.0
O156 O 0.40838 0.03354 0.2712 0.0
N157 N 0.53526 0.01583 0.27691 0.0
C158 C 0.5471 0.98842 0.27943 0.0
C159 C 0.56895 0.98507 0.2898 0.0
C160 C 0.57907 0.01005 0.29716 0.0
C161 C 0.56744 0.0382 0.29402 0.0
C162 C 0.54535 0.0401 0.28374 0.0
H163 H 0.53989 0.96919 0.27364 0.0
O164 O 0.44478 0.99154 0.28475 0.0
O165 O 0.47353 0.02215 0.27323 0.0
O166 O 0.4622 0.96805 0.25836 0.0
O167 O 0.50778 0.98671 0.25465 0.0
C168 C 0.57762 0.06454 0.30035 0.0
C169 C 0.56574 0.09224 0.29628 0.0
H170 H 0.53645 0.14133 0.28622 0.0
H171 H 0.49701 0.14001 0.26808 0.0
H172 H 0.57815 0.96333 0.292 0.0
H173 H 0.59614 0.00743 0.30505 0.0
H174 H 0.59487 0.06378 0.30823 0.0
H175 H 0.57421 0.11234 0.30107 0.0
Mn176 Mn 0.15957 0.9278 0.5 0.0
Mn177 Mn 0.08443 0.92908 0.49911 0.0
C178 C 0.13442 0.92087 0.47931 0.0
C179 C 0.20507 0.95283 0.49938 0.0
C180 C 0.12036 0.87637 0.50967 0.0
O181 O 0.14891 0.94652 0.51845 0.0
O182 O 0.09909 0.94978 0.51601 0.0
C183 C 0.07532 0.99384 0.49546 0.0
N184 N 0.07115 0.96547 0.49091 0.0
C185 C 0.04206 0.98246 0.47144 0.0
C186 C 0.04599 0.01186 0.47594 0.0
C187 C 0.06273 0.01757 0.48798 0.0
C188 C 0.05518 0.95974 0.4793 0.0
H189 H 0.08813 0.99833 0.50472 0.0
C190 C 0.12335 0.95453 0.52272 0.0
O191 O 0.20262 0.92688 0.50515 0.0
O192 O 0.18098 0.96444 0.49422 0.0
N193 N 0.06712 0.91008 0.48327 0.0
C194 C 0.06569 0.8805 0.48025 0.0
C195 C 0.04991 0.87104 0.46845 0.0
C196 C 0.03545 0.89202 0.45999 0.0
C197 C 0.0368 0.92228 0.46343 0.0
C198 C 0.05283 0.93039 0.47532 0.0
H199 H 0.0766 0.86424 0.48676 0.0
O200 O 0.1618 0.91214 0.4807 0.0
O201 O 0.12283 0.93392 0.48996 0.0
O202 O 0.14597 0.88717 0.50709 0.0
O203 O 0.09607 0.89045 0.50739 0.0
C204 C 0.02296 0.94472 0.45551 0.0
C205 C 0.02575 0.97481 0.45945 0.0
H206 H 0.0363 0.03022 0.47021 0.0
H207 H 0.0659 0.0402 0.4915 0.0
H208 H 0.04889 0.84764 0.46589 0.0
H209 H 0.02342 0.88466 0.45086 0.0
H210 H 0.01033 0.93911 0.44628 0.0
H211 H 0.0153 0.99188 0.45317 0.0
Mn212 Mn 0.24369 0.6585 0.75409 0.0
Mn213 Mn 0.24381 0.5835 0.75554 0.0
C214 C 0.24998 0.63103 0.73425 0.0
C215 C 0.21833 0.70349 0.75175 0.0
C216 C 0.29687 0.62106 0.76398 0.0
O217 O 0.22521 0.65023 0.77274 0.0
O218 O 0.22589 0.60011 0.7727 0.0
C219 C 0.17866 0.57375 0.75441 0.0
N220 N 0.20616 0.56922 0.749 0.0
C221 C 0.18572 0.53956 0.73052 0.0
C222 C 0.15722 0.54385 0.73593 0.0
C223 C 0.15367 0.56101 0.74792 0.0
C224 C 0.20983 0.55258 0.7375 0.0
H225 H 0.17579 0.58707 0.76359 0.0
C226 C 0.21973 0.62517 0.77834 0.0
O227 O 0.24432 0.70218 0.75771 0.0
O228 O 0.20685 0.67861 0.74753 0.0
N229 N 0.26004 0.56458 0.73957 0.0
C230 C 0.28888 0.5636 0.73536 0.0
C231 C 0.29609 0.54786 0.72331 0.0
C232 C 0.27364 0.53319 0.71576 0.0
C233 C 0.24419 0.5342 0.7204 0.0
C234 C 0.23838 0.54999 0.73255 0.0
H235 H 0.30619 0.57504 0.74105 0.0
O236 O 0.259 0.65841 0.73485 0.0
O237 O 0.23735 0.62058 0.74527 0.0
O238 O 0.28471 0.64623 0.7616 0.0
O239 O 0.28359 0.59625 0.76207 0.0
C240 C 0.22029 0.52065 0.71328 0.0
C241 C 0.19108 0.52333 0.71834 0.0
H242 H 0.13791 0.53431 0.73088 0.0
H243 H 0.13171 0.5645 0.75212 0.0
H244 H 0.31887 0.54721 0.7198 0.0
H245 H 0.27923 0.52138 0.70638 0.0
H246 H 0.22409 0.50843 0.70381 0.0
H247 H 0.17284 0.51308 0.7127 0.0
Mn248 Mn 0.93731 0.16276 0.52628 0.0
Mn249 Mn 0.93054 0.08834 0.52218 0.0
C250 C 0.93744 0.13212 0.54537 0.0
C251 C 0.96566 0.20613 0.52757 0.0
C252 C 0.87829 0.13055 0.52012 0.0
O253 O 0.94689 0.15708 0.50602 0.0
O254 O 0.9418 0.10734 0.50434 0.0
C255 C 0.99389 0.07484 0.51685 0.0
N256 N 0.96881 0.0703 0.52436 0.0
C257 C 0.99353 0.03385 0.53861 0.0
C258 C 0.01958 0.03807 0.531 0.0
C259 C 0.01976 0.05865 0.52008 0.0
C260 C 0.96837 0.05046 0.53486 0.0
H261 H 0.99416 0.09075 0.5085 0.0
C262 C 0.94737 0.13294 0.49912 0.0
O263 O 0.93769 0.20672 0.52412 0.0
O264 O 0.97736 0.18021 0.52997 0.0
N265 N 0.91992 0.06676 0.53846 0.0
C266 C 0.89357 0.0667 0.54531 0.0
C267 C 0.89 0.04792 0.55677 0.0
C268 C 0.91341 0.02918 0.56098 0.0
C269 C 0.94016 0.02931 0.55364 0.0
C270 C 0.94236 0.04836 0.54224 0.0
H271 H 0.87552 0.08108 0.54213 0.0
O272 O 0.93046 0.16 0.54651 0.0
O273 O 0.94435 0.12284 0.53305 0.0
O274 O 0.89321 0.15427 0.52227 0.0
O275 O 0.89 0.10467 0.52 0.0
C276 C 0.96504 0.01196 0.55745 0.0
C277 C 0.99173 0.01428 0.54996 0.0
H278 H 0.03965 0.02589 0.53354 0.0
H279 H 0.03983 0.0621 0.5142 0.0
H280 H 0.86931 0.04797 0.5624 0.0
H281 H 0.9107 0.01501 0.56993 0.0
H282 H 0.96408 0.9972 0.56628 0.0
H283 H 0.01086 0.00119 0.55312 0.0
Mn284 Mn 0.00201 0.41667 0.77909 0.0
Mn285 Mn 0.07432 0.4125 0.77039 0.0
C286 C 0.03814 0.41268 0.7961 0.0
C287 C 0.95865 0.44308 0.78401 0.0
C288 C 0.03404 0.35942 0.76971 0.0
O289 O 0.00098 0.43082 0.75922 0.0
O290 O 0.04888 0.42226 0.75406 0.0
C291 C 0.0821 0.47629 0.76361 0.0
N292 N 0.09 0.45201 0.77124 0.0
C293 C 0.13008 0.47886 0.78217 0.0
C294 C 0.12243 0.50411 0.7744 0.0
C295 C 0.09823 0.50286 0.76514 0.0
C296 C 0.113 0.45309 0.78031 0.0
H297 H 0.06382 0.47537 0.75631 0.0
C298 C 0.02227 0.42957 0.75069 0.0
O299 O 0.9578 0.41589 0.77952 0.0
O300 O 0.98476 0.45507 0.78554 0.0
N301 N 0.10211 0.40342 0.78483 0.0
C302 C 0.10784 0.37657 0.79082 0.0
C303 C 0.1316 0.37392 0.80025 0.0
C304 C 0.14971 0.39864 0.8031 0.0
C305 C 0.14376 0.42591 0.7966 0.0
C306 C 0.11954 0.42731 0.78744 0.0
H307 H 0.09434 0.35735 0.78843 0.0
O308 O 0.01082 0.40508 0.79846 0.0
O309 O 0.04365 0.42345 0.78385 0.0
O310 O 0.01042 0.37396 0.77252 0.0
O311 O 0.05988 0.3712 0.76945 0.0
C312 C 0.16134 0.45153 0.79856 0.0
C313 C 0.15435 0.47806 0.79146 0.0
H314 H 0.135 0.52456 0.77546 0.0
H315 H 0.0922 0.52221 0.75908 0.0
H316 H 0.13622 0.35276 0.80515 0.0
H317 H 0.16843 0.3962 0.81009 0.0
H318 H 0.18064 0.45094 0.80527 0.0
H319 H 0.16809 0.49757 0.79307 0.0
Mn320 Mn 0.74078 0.50895 0.02016 0.0
Mn321 Mn 0.67041 0.53116 0.02641 0.0
C322 C 0.7062 0.5101 0.00228 0.0
C323 C 0.79014 0.52085 0.01509 0.0
C324 C 0.69342 0.46929 0.03322 0.0
O325 O 0.74413 0.52776 0.03926 0.0
O326 O 0.69741 0.54496 0.04146 0.0
C327 C 0.67902 0.59617 0.02355 0.0
N328 N 0.66461 0.57076 0.01977 0.0
C329 C 0.63068 0.59798 0.00516 0.0
C330 C 0.64517 0.62445 0.00885 0.0
C331 C 0.66957 0.62352 0.01803 0.0
C332 C 0.64154 0.57135 0.01073 0.0
H333 H 0.69753 0.59556 0.03074 0.0
C334 C 0.72424 0.54205 0.0458 0.0
O335 O 0.78326 0.49598 0.0211 0.0
O336 O 0.76843 0.53896 0.01231 0.0
N337 N 0.64147 0.5198 0.01283 0.0
C338 C 0.63057 0.49218 0.00997 0.0
C339 C 0.60641 0.48916 0.00079 0.0
C340 C 0.59333 0.51458 0.99489 0.0
C341 C 0.60488 0.54278 0.998 0.0
C342 C 0.62914 0.54439 0.00713 0.0
H343 H 0.64011 0.47261 0.01473 0.0
O344 O 0.73054 0.4948 0.00126 0.0
O345 O 0.70336 0.52572 0.01353 0.0
O346 O 0.7196 0.47271 0.02844 0.0
O347 O 0.67392 0.48998 0.03332 0.0
C348 C 0.59296 0.5694 0.9926 0.0
C349 C 0.60582 0.59697 0.99621 0.0
H350 H 0.63784 0.64556 0.00465 0.0
H351 H 0.68086 0.64386 0.02095 0.0
H352 H 0.59756 0.46733 0.99845 0.0
H353 H 0.57419 0.51215 0.98816 0.0
H354 H 0.57382 0.56896 0.98575 0.0
H355 H 0.5964 0.61731 0.99208 0.0
Mn356 Mn 0.66035 0.23831 0.26831 0.0
Mn357 Mn 0.63828 0.16661 0.26665 0.0
C358 C 0.65942 0.21401 0.2473 0.0
C359 C 0.64858 0.2889 0.26817 0.0
C360 C 0.69946 0.18569 0.27694 0.0
O361 O 0.64051 0.23161 0.28687 0.0
O362 O 0.62287 0.18511 0.28386 0.0
C363 C 0.57375 0.17737 0.26292 0.0
N364 N 0.59948 0.1648 0.25845 0.0
C365 C 0.57478 0.14425 0.23845 0.0
C366 C 0.54793 0.15668 0.24292 0.0
C367 C 0.5475 0.17354 0.25514 0.0
C368 C 0.60028 0.14897 0.24658 0.0
H369 H 0.57332 0.19037 0.2723 0.0
C370 C 0.6257 0.20907 0.29094 0.0
O371 O 0.67324 0.27926 0.27368 0.0
O372 O 0.63046 0.26911 0.26319 0.0
N373 N 0.65134 0.14583 0.25054 0.0
C374 C 0.67926 0.1363 0.24739 0.0
C375 C 0.68371 0.11969 0.2353 0.0
C376 C 0.65941 0.11286 0.22664 0.0
C377 C 0.63083 0.12252 0.2302 0.0
C378 C 0.62769 0.13867 0.24247 0.0
H379 H 0.69803 0.14143 0.25402 0.0
O380 O 0.67513 0.23795 0.24893 0.0
O381 O 0.64406 0.20546 0.25791 0.0
O382 O 0.69615 0.21348 0.27468 0.0
O383 O 0.67889 0.16651 0.27478 0.0
C384 C 0.60541 0.11706 0.22198 0.0
C385 C 0.57739 0.12795 0.22608 0.0
H386 H 0.52761 0.15373 0.23698 0.0
H387 H 0.52695 0.18355 0.25857 0.0
H388 H 0.70583 0.11225 0.23265 0.0
H389 H 0.66297 0.10024 0.21727 0.0
H390 H 0.60729 0.10487 0.21239 0.0
H391 H 0.55805 0.12394 0.21958 0.0
H392 H 0.1318 0.08817 0.31573 0.0
H393 H 0.18196 0.08523 0.30612 0.0
H394 H 0.15779 0.00489 0.28443 0.0
H395 H 0.10786 0.00751 0.29401 0.0
H396 H 0.20883 0.99805 0.29881 0.0
H397 H 0.1681 0.06981 0.26708 0.0
H398 H 0.14276 0.11631 0.26035 0.0
H399 H 0.21123 0.1673 0.28055 0.0
H400 H 0.23679 0.12107 0.28757 0.0
H401 H 0.3401 0.98015 0.26038 0.0
H402 H 0.28789 0.98843 0.26616 0.0
H403 H 0.31156 0.07046 0.2866 0.0
H404 H 0.3637 0.06264 0.2806 0.0
H405 H 0.26056 0.07707 0.27253 0.0
H406 H 0.30023 0.00659 0.30503 0.0
H407 H 0.32579 0.96069 0.31246 0.0
H408 H 0.25934 0.90804 0.29173 0.0
H409 H 0.23359 0.95367 0.28401 0.0
C410 C 0.13705 0.0701 0.30876 0.0
C411 C 0.11583 0.048 0.30569 0.0
C412 C 0.16571 0.06849 0.30325 0.0
C413 C 0.17363 0.04485 0.29453 0.0
C414 C 0.15222 0.02327 0.29116 0.0
C415 C 0.12363 0.02488 0.29663 0.0
C416 C 0.20465 0.04146 0.28958 0.0
C417 C 0.21996 0.01515 0.29287 0.0
C418 C 0.2195 0.06413 0.2822 0.0
C419 C 0.20421 0.09196 0.27797 0.0
C420 C 0.17763 0.09093 0.27019 0.0
C421 C 0.16325 0.11724 0.2663 0.0
C422 C 0.17533 0.14474 0.27005 0.0
C423 C 0.20187 0.14598 0.27767 0.0
C424 C 0.21633 0.11973 0.28159 0.0
C425 C 0.33416 1.00008 0.266 0.0
C426 C 0.35608 0.02062 0.27012 0.0
C427 C 0.30431 0.00474 0.26934 0.0
C428 C 0.29584 0.02984 0.27702 0.0
C429 C 0.31755 0.05091 0.2807 0.0
C430 C 0.34738 0.04635 0.2773 0.0
C431 C 0.2646 0.03354 0.28166 0.0
C432 C 0.24933 0.05993 0.27839 0.0
C433 C 0.24978 0.01103 0.28916 0.0
C434 C 0.26517 0.98355 0.29382 0.0
C435 C 0.2912 0.98523 0.30196 0.0
C436 C 0.3057 0.95926 0.30624 0.0
C437 C 0.29424 0.93147 0.30254 0.0
C438 C 0.26821 0.92959 0.29457 0.0
C439 C 0.25365 0.95549 0.29025 0.0
H440 H 0.3055 0.91139 0.30586 0.0
H441 H 0.16417 0.16509 0.26703 0.0
H442 H 0.12128 0.59627 0.54096 0.0
H443 H 0.12429 0.6461 0.53095 0.0
H444 H 0.08646 0.6832 0.56793 0.0
H445 H 0.08359 0.63348 0.57808 0.0
H446 H 0.08326 0.68819 0.52477 0.0
H447 H 0.12078 0.74975 0.5745 0.0
H448 H 0.14799 0.7391 0.59621 0.0
H449 H 0.19519 0.66824 0.57632 0.0
H450 H 0.16862 0.67876 0.55445 0.0
H451 H 0.07028 0.84407 0.51557 0.0
H452 H 0.06747 0.79378 0.52495 0.0
H453 H 0.16328 0.78884 0.52624 0.0
H454 H 0.16641 0.83933 0.51703 0.0
H455 H 0.13999 0.76685 0.54951 0.0
H456 H 0.12432 0.75416 0.50088 0.0
H457 H 0.10055 0.76387 0.47826 0.0
H458 H 0.01649 0.73475 0.49406 0.0
H459 H 0.03968 0.72529 0.51685 0.0
C460 C 0.11345 0.615 0.54695 0.0
C461 C 0.10234 0.61089 0.56036 0.0
C462 C 0.11511 0.64346 0.54119 0.0
C463 C 0.1059 0.6684 0.54875 0.0
C464 C 0.09406 0.6643 0.56199 0.0
C465 C 0.09233 0.63584 0.56775 0.0
C466 C 0.10935 0.69873 0.5429 0.0
C467 C 0.0956 0.70541 0.5302 0.0
C468 C 0.12595 0.72104 0.54984 0.0
C469 C 0.14246 0.71486 0.56288 0.0
C470 C 0.13706 0.73198 0.57475 0.0
C471 C 0.15236 0.72596 0.58708 0.0
C472 C 0.17323 0.70294 0.58766 0.0
C473 C 0.17894 0.68599 0.57588 0.0
C474 C 0.16374 0.69195 0.56352 0.0
C475 C 0.09081 0.83239 0.51786 0.0
C476 C 0.11859 0.84584 0.51549 0.0
C477 C 0.08913 0.80354 0.52318 0.0
C478 C 0.11516 0.78742 0.52617 0.0
C479 C 0.1429 0.80087 0.524 0.0
C480 C 0.14463 0.82973 0.51868 0.0
C481 C 0.11344 0.75649 0.5315 0.0
C482 C 0.12755 0.74968 0.54411 0.0
C483 C 0.09763 0.73392 0.52434 0.0
C484 C 0.08369 0.73927 0.51061 0.0
C485 C 0.10072 0.75002 0.49956 0.0
C486 C 0.08736 0.75546 0.4867 0.0
C487 C 0.05701 0.75 0.48473 0.0
C488 C 0.03998 0.739 0.4956 0.0
C489 C 0.05323 0.73357 0.50849 0.0
H490 H 0.0467 0.75424 0.47477 0.0
H491 H 0.18501 0.69828 0.59722 0.0
H492 H 0.58035 0.60835 0.79011 0.0
H493 H 0.52966 0.6096 0.7806 0.0
H494 H 0.49474 0.61931 0.82173 0.0
H495 H 0.54501 0.61736 0.8313 0.0
H496 H 0.4624 0.58126 0.80815 0.0
H497 H 0.50021 0.67893 0.79922 0.0
H498 H 0.53537 0.71605 0.79015 0.0
H499 H 0.51959 0.68431 0.74888 0.0
H500 H 0.48459 0.64671 0.75774 0.0
H501 H 0.33044 0.66759 0.77379 0.0
H502 H 0.3816 0.66605 0.78255 0.0
H503 H 0.38559 0.57198 0.774 0.0
H504 H 0.33429 0.57311 0.76559 0.0
H505 H 0.43315 0.65316 0.77157 0.0
H506 H 0.42863 0.53728 0.79771 0.0
H507 H 0.39197 0.50443 0.80883 0.0
H508 H 0.33865 0.5802 0.81938 0.0
H509 H 0.37518 0.61352 0.80849 0.0
C510 C 0.56186 0.61068 0.79712 0.0
C511 C 0.56676 0.6128 0.81146 0.0
C512 C 0.5329 0.61153 0.79167 0.0
C513 C 0.50837 0.61486 0.80044 0.0
C514 C 0.51326 0.61667 0.81475 0.0
C515 C 0.54209 0.61563 0.82021 0.0
C516 C 0.47752 0.61643 0.79481 0.0
C517 C 0.45606 0.59693 0.80011 0.0
C518 C 0.46902 0.63724 0.78452 0.0
C519 C 0.49003 0.65981 0.77916 0.0
C520 C 0.50442 0.67971 0.78823 0.0
C521 C 0.52428 0.70086 0.78312 0.0
C522 C 0.52978 0.70248 0.76895 0.0
C523 C 0.51535 0.68299 0.75986 0.0
C524 C 0.49548 0.66178 0.76491 0.0
C525 C 0.34217 0.64655 0.77378 0.0
C526 C 0.3281 0.62043 0.76909 0.0
C527 C 0.37148 0.64573 0.77875 0.0
C528 C 0.38736 0.61884 0.7791 0.0
C529 C 0.37362 0.59289 0.7741 0.0
C530 C 0.34425 0.59361 0.76926 0.0
C531 C 0.41813 0.61785 0.78484 0.0
C532 C 0.43956 0.6374 0.77955 0.0
C533 C 0.42644 0.59765 0.79542 0.0
C534 C 0.4045 0.57784 0.80215 0.0
C535 C 0.40914 0.54693 0.80245 0.0
C536 C 0.38837 0.52823 0.80871 0.0
C537 C 0.36295 0.54021 0.81477 0.0
C538 C 0.35829 0.57094 0.81463 0.0
C539 C 0.379 0.58973 0.80841 0.0
H540 H 0.34689 0.5257 0.81959 0.0
H541 H 0.54516 0.71888 0.76502 0.0
H542 H 0.59636 0.04185 0.06583 0.0
H543 H 0.58764 0.99564 0.0532 0.0
H544 H 0.49618 0.02095 0.04613 0.0
H545 H 0.50461 0.06716 0.05892 0.0
H546 H 0.50005 0.96492 0.05536 0.0
H547 H 0.54569 0.02156 0.01971 0.0
H548 H 0.58365 0.05375 0.00918 0.0
H549 H 0.64992 0.98633 0.01583 0.0
H550 H 0.61244 0.95388 0.02659 0.0
H551 H 0.4736 0.8401 0.0117 0.0
H552 H 0.47947 0.89237 0.01841 0.0
H553 H 0.56998 0.87499 0.03122 0.0
H554 H 0.56426 0.8228 0.02464 0.0
H555 H 0.56331 0.92916 0.01703 0.0
H556 H 0.51902 0.87542 0.05484 0.0
H557 H 0.48148 0.84315 0.06567 0.0
H558 H 0.41282 0.90563 0.05488 0.0
H559 H 0.44994 0.9381 0.04382 0.0
C560 C 0.57444 0.03776 0.0615 0.0
C561 C 0.55118 0.05821 0.06341 0.0
C562 C 0.56953 0.01136 0.05421 0.0
C563 C 0.54132 0.00494 0.0486 0.0
C564 C 0.51813 0.02547 0.05034 0.0
C565 C 0.52303 0.05191 0.05763 0.0
C566 C 0.53575 0.97608 0.04158 0.0
C567 C 0.51348 0.95739 0.04678 0.0
C568 C 0.55366 0.96597 0.03057 0.0
C569 C 0.57628 0.98537 0.02406 0.0
C570 C 0.56841 0.01368 0.01903 0.0
C571 C 0.58983 0.03196 0.013 0.0
C572 C 0.61919 0.02211 0.01186 0.0
C573 C 0.62717 0.99393 0.01672 0.0
C574 C 0.60583 0.97557 0.02277 0.0
C575 C 0.49488 0.84753 0.01576 0.0
C576 C 0.51841 0.82733 0.01773 0.0
C577 C 0.49816 0.87734 0.01962 0.0
C578 C 0.52509 0.88744 0.02542 0.0
C579 C 0.54904 0.86763 0.02677 0.0
C580 C 0.54568 0.8378 0.02305 0.0
C581 C 0.52785 0.9181 0.03091 0.0
C582 C 0.54962 0.93699 0.02545 0.0
C583 C 0.50951 0.92844 0.04169 0.0
C584 C 0.48718 0.909 0.04836 0.0
C585 C 0.49587 0.88215 0.05467 0.0
C586 C 0.47469 0.86384 0.06087 0.0
C587 C 0.44477 0.87229 0.06092 0.0
C588 C 0.43599 0.89909 0.05481 0.0
C589 C 0.4571 0.91746 0.04858 0.0
H590 H 0.4284 0.85809 0.06573 0.0
H591 H 0.63575 0.0363 0.00719 0.0
H592 H 0.23129 0.55408 0.95981 0.0
H593 H 0.2815 0.56862 0.9672 0.0
H594 H 0.25238 0.65957 0.97134 0.0
H595 H 0.20244 0.64536 0.96379 0.0
H596 H 0.30328 0.65691 0.95755 0.0
H597 H 0.26535 0.61473 0.99968 0.0
H598 H 0.24299 0.57564 0.01413 0.0
H599 H 0.316 0.51732 0.00523 0.0
H600 H 0.3386 0.55595 0.99057 0.0
H601 H 0.41996 0.72134 0.99642 0.0
H602 H 0.37271 0.70165 0.98798 0.0
H603 H 0.41109 0.61394 0.98537 0.0
H604 H 0.45853 0.63335 0.9941 0.0
H605 H 0.35755 0.61178 0.9972 0.0
H606 H 0.39705 0.65499 0.95618 0.0
H607 H 0.41961 0.69417 0.94185 0.0
H608 H 0.34386 0.75039 0.94851 0.0
H609 H 0.32102 0.7117 0.96305 0.0
C610 C 0.23552 0.57712 0.96241 0.0
C611 C 0.21283 0.59855 0.96119 0.0
C612 C 0.26423 0.5854 0.96666 0.0
C613 C 0.27072 0.6152 0.96988 0.0
C614 C 0.24796 0.63648 0.96886 0.0
C615 C 0.21935 0.62827 0.96459 0.0
C616 C 0.30131 0.62457 0.97394 0.0
C617 C 0.31501 0.64725 0.96631 0.0
C618 C 0.31705 0.61133 0.98509 0.0
C619 C 0.30349 0.58811 0.9939 0.0
C620 C 0.2765 0.59348 0.00071 0.0
C621 C 0.26381 0.57143 0.00896 0.0
C622 C 0.27802 0.54398 0.01057 0.0
C623 C 0.30499 0.53857 0.00396 0.0
C624 C 0.31776 0.56054 0.99569 0.0
C625 C 0.41856 0.69788 0.99397 0.0
C626 C 0.44323 0.679 0.99592 0.0
C627 C 0.39146 0.68666 0.98908 0.0
C628 C 0.3884 0.65636 0.98588 0.0
C629 C 0.41294 0.63742 0.98775 0.0
C630 C 0.44011 0.64861 0.99268 0.0
C631 C 0.35929 0.64448 0.98095 0.0
C632 C 0.34591 0.6213 0.98837 0.0
C633 C 0.34382 0.65723 0.96959 0.0
C634 C 0.35743 0.68051 0.9608 0.0
C635 C 0.38529 0.67579 0.95467 0.0
C636 C 0.39812 0.6979 0.9465 0.0
C637 C 0.3832 0.72477 0.9443 0.0
C638 C 0.3554 0.72957 0.95024 0.0
C639 C 0.34248 0.70754 0.95843 0.0
H640 H 0.39317 0.74186 0.93797 0.0
H641 H 0.26816 0.52694 0.01696 0.0
H642 H 0.62316 0.72461 0.21619 0.0
H643 H 0.60682 0.77329 0.22447 0.0
H644 H 0.51643 0.74134 0.22634 0.0
H645 H 0.53248 0.6929 0.2178 0.0
H646 H 0.51779 0.79313 0.21374 0.0
H647 H 0.55908 0.75409 0.25586 0.0
H648 H 0.59755 0.73136 0.27082 0.0
H649 H 0.65568 0.80532 0.2634 0.0
H650 H 0.6177 0.82832 0.24824 0.0
H651 H 0.45606 0.9144 0.25091 0.0
H652 H 0.47362 0.86532 0.24388 0.0
H653 H 0.56263 0.89979 0.23977 0.0
H654 H 0.54542 0.94892 0.24689 0.0
H655 H 0.56234 0.8471 0.25356 0.0
H656 H 0.52058 0.88595 0.21143 0.0
H657 H 0.4817 0.90862 0.19668 0.0
H658 H 0.4239 0.83455 0.20441 0.0
H659 H 0.46231 0.81162 0.21937 0.0
C660 C 0.59987 0.72782 0.21853 0.0
C661 C 0.57912 0.70486 0.2163 0.0
C662 C 0.59055 0.75568 0.2233 0.0
C663 C 0.56037 0.761 0.2261 0.0
C664 C 0.53979 0.73784 0.22421 0.0
C665 C 0.54905 0.71009 0.21937 0.0
C666 C 0.54996 0.79102 0.23037 0.0
C667 C 0.52726 0.80471 0.22258 0.0
C668 C 0.56278 0.80654 0.24168 0.0
C669 C 0.58565 0.79278 0.2508 0.0
C670 C 0.58016 0.76539 0.25733 0.0
C671 C 0.60186 0.75248 0.26586 0.0
C672 C 0.62907 0.76685 0.26803 0.0
C673 C 0.63461 0.7942 0.2617 0.0
C674 C 0.61299 0.8072 0.25315 0.0
C675 C 0.47936 0.91166 0.24845 0.0
C676 C 0.49927 0.93576 0.24945 0.0
C677 C 0.48935 0.88355 0.2444 0.0
C678 C 0.51941 0.87891 0.24121 0.0
C679 C 0.53934 0.90285 0.24219 0.0
C680 C 0.52938 0.93099 0.2462 0.0
C681 C 0.53012 0.84903 0.23697 0.0
C682 C 0.55289 0.83543 0.24474 0.0
C683 C 0.5173 0.83353 0.22566 0.0
C684 C 0.49422 0.84721 0.21663 0.0
C685 C 0.49949 0.87461 0.21007 0.0
C686 C 0.47756 0.88748 0.20166 0.0
C687 C 0.45032 0.87307 0.19964 0.0
C688 C 0.445 0.84571 0.206 0.0
C689 C 0.46685 0.83275 0.21444 0.0
H690 H 0.43337 0.88307 0.19312 0.0
H691 H 0.64584 0.75681 0.27464 0.0
H692 H 0.43313 0.10621 0.46362 0.0
H693 H 0.3855 0.08605 0.47123 0.0
H694 H 0.43104 0.01193 0.49025 0.0
H695 H 0.47867 0.03165 0.48248 0.0
H696 H 0.38573 0.99297 0.47504 0.0
H697 H 0.39934 0.06803 0.50967 0.0
H698 H 0.4089 0.11853 0.51858 0.0
H699 H 0.33081 0.15073 0.49751 0.0
H700 H 0.321 0.10049 0.48831 0.0
H701 H 0.25955 0.93298 0.50825 0.0
H702 H 0.30797 0.95651 0.5047 0.0
H703 H 0.26503 0.03002 0.48395 0.0
H704 H 0.21652 0.00682 0.48761 0.0
H705 H 0.3094 0.0492 0.50094 0.0
H706 H 0.2972 0.97514 0.46551 0.0
H707 H 0.2875 0.92486 0.45635 0.0
H708 H 0.36316 0.89115 0.4788 0.0
H709 H 0.37307 0.94119 0.48825 0.0
C710 C 0.43306 0.0858 0.46956 0.0
C711 C 0.45974 0.07052 0.47241 0.0
C712 C 0.40579 0.07434 0.47396 0.0
C713 C 0.40466 0.04755 0.48141 0.0
C714 C 0.43133 0.03261 0.48451 0.0
C715 C 0.45857 0.04398 0.48008 0.0
C716 C 0.37563 0.03422 0.48531 0.0
C717 C 0.36928 0.00512 0.48092 0.0
C718 C 0.35377 0.0503 0.49266 0.0
C719 C 0.35959 0.08054 0.49819 0.0
C720 C 0.38434 0.08592 0.50684 0.0
C721 C 0.38978 0.1145 0.51196 0.0
C722 C 0.37052 0.13784 0.50859 0.0
C723 C 0.34573 0.13264 0.5001 0.0
C724 C 0.3402 0.10411 0.49494 0.0
C725 C 0.26038 0.95427 0.50303 0.0
C726 C 0.2342 0.96794 0.49813 0.0
C727 C 0.28809 0.96764 0.50097 0.0
C728 C 0.29017 0.99484 0.4939 0.0
C729 C 0.26398 0.00902 0.48942 0.0
C730 C 0.23627 0.99567 0.49148 0.0
C731 C 0.31966 0.008 0.49071 0.0
C732 C 0.32601 0.03704 0.49517 0.0
C733 C 0.34155 0.99192 0.4834 0.0
C734 C 0.33568 0.96184 0.4777 0.0
C735 C 0.31163 0.95696 0.46858 0.0
C736 C 0.30611 0.92852 0.46332 0.0
C737 C 0.32465 0.90481 0.46702 0.0
C738 C 0.34879 0.90952 0.47596 0.0
C739 C 0.35438 0.93792 0.48126 0.0
H740 H 0.32035 0.88281 0.46294 0.0
H741 H 0.37477 0.15994 0.51256 0.0
H742 H 0.06269 0.92161 0.70499 0.0
H743 H 0.08473 0.87549 0.71368 0.0
H744 H 0.15294 0.92578 0.73488 0.0
H745 H 0.13091 0.97208 0.72632 0.0
H746 H 0.13958 0.85352 0.70877 0.0
H747 H 0.1737 0.88737 0.76432 0.0
H748 H 0.15703 0.92106 0.78281 0.0
H749 H 0.06757 0.91716 0.76695 0.0
H750 H 0.08361 0.88314 0.74849 0.0
H751 H 0.2364 0.75939 0.75937 0.0
H752 H 0.21288 0.80682 0.75319 0.0
H753 H 0.14263 0.75966 0.73186 0.0
H754 H 0.16599 0.71234 0.73789 0.0
H755 H 0.15808 0.831 0.75831 0.0
H756 H 0.12469 0.79781 0.7023 0.0
H757 H 0.14225 0.76544 0.68347 0.0
H758 H 0.2311 0.76883 0.70008 0.0
H759 H 0.2142 0.80158 0.71887 0.0
C760 C 0.08224 0.92292 0.7116 0.0
C761 C 0.09504 0.95056 0.71497 0.0
C762 C 0.09485 0.89651 0.71652 0.0
C763 C 0.12036 0.89718 0.72499 0.0
C764 C 0.13302 0.92474 0.7285 0.0
C765 C 0.12046 0.95119 0.72355 0.0
C766 C 0.13435 0.86897 0.72966 0.0
C767 C 0.14321 0.84839 0.71961 0.0
C768 C 0.13993 0.86272 0.74379 0.0
C769 C 0.12996 0.88297 0.75493 0.0
C770 C 0.15046 0.89364 0.7648 0.0
C771 C 0.14112 0.9128 0.77528 0.0
C772 C 0.11128 0.92133 0.77603 0.0
C773 C 0.0907 0.91064 0.76633 0.0
C774 C 0.09992 0.89145 0.75584 0.0
C775 C 0.21583 0.75915 0.75345 0.0
C776 C 0.20314 0.73213 0.74906 0.0
C777 C 0.2024 0.78624 0.74995 0.0
C778 C 0.17624 0.78677 0.74191 0.0
C779 C 0.16306 0.75979 0.73789 0.0
C780 C 0.17639 0.73275 0.74141 0.0
C781 C 0.16299 0.81545 0.73741 0.0
C782 C 0.15438 0.83612 0.74747 0.0
C783 C 0.15771 0.82187 0.72327 0.0
C784 C 0.16808 0.80193 0.71208 0.0
C785 C 0.14799 0.7917 0.70192 0.0
C786 C 0.15784 0.77332 0.69124 0.0
C787 C 0.18777 0.76513 0.69058 0.0
C788 C 0.20791 0.77518 0.70062 0.0
C789 C 0.1982 0.79361 0.7113 0.0
H790 H 0.19536 0.75101 0.68227 0.0
H791 H 0.1041 0.93618 0.78414 0.0
H792 H 0.69495 0.5269 0.8125 0.0
H793 H 0.74254 0.50677 0.80504 0.0
H794 H 0.7857 0.58952 0.81551 0.0
H795 H 0.73788 0.61008 0.82291 0.0
H796 H 0.80711 0.56593 0.79134 0.0
H797 H 0.79057 0.53295 0.83748 0.0
H798 H 0.76256 0.51053 0.85663 0.0
H799 H 0.7586 0.42747 0.83481 0.0
H800 H 0.7862 0.44953 0.81542 0.0
H801 H 0.95315 0.50084 0.79263 0.0
H802 H 0.90739 0.52706 0.79883 0.0
H803 H 0.85616 0.44845 0.78934 0.0
H804 H 0.9017 0.42209 0.78321 0.0
H805 H 0.84062 0.47257 0.814 0.0
H806 H 0.8565 0.50719 0.76745 0.0
H807 H 0.88519 0.53039 0.74872 0.0
H808 H 0.89175 0.61133 0.77208 0.0
H809 H 0.86342 0.58846 0.79105 0.0
C810 C 0.71446 0.541 0.8131 0.0
C811 C 0.71264 0.57003 0.81843 0.0
C812 C 0.74169 0.52939 0.80887 0.0
C813 C 0.76776 0.54645 0.80996 0.0
C814 C 0.76586 0.57593 0.81465 0.0
C815 C 0.73853 0.58762 0.81888 0.0
C816 C 0.79701 0.53289 0.80671 0.0
C817 C 0.81467 0.54576 0.79643 0.0
C818 C 0.80674 0.50641 0.81327 0.0
C819 C 0.79024 0.49299 0.82494 0.0
C820 C 0.78353 0.50997 0.83672 0.0
C821 C 0.76775 0.49731 0.84762 0.0
C822 C 0.75875 0.46761 0.84693 0.0
C823 C 0.76556 0.45048 0.83533 0.0
C824 C 0.78129 0.46305 0.82438 0.0
C825 C 0.93212 0.48918 0.79182 0.0
C826 C 0.93105 0.45938 0.78742 0.0
C827 C 0.90599 0.50423 0.79532 0.0
C828 C 0.87833 0.48977 0.79447 0.0
C829 C 0.87725 0.46004 0.79008 0.0
C830 C 0.90331 0.44503 0.78654 0.0
C831 C 0.85049 0.50526 0.79843 0.0
C832 C 0.83313 0.49279 0.80893 0.0
C833 C 0.84122 0.53219 0.79214 0.0
C834 C 0.85812 0.54601 0.78072 0.0
C835 C 0.86427 0.52985 0.76864 0.0
C836 C 0.88043 0.54296 0.75797 0.0
C837 C 0.89036 0.57229 0.75923 0.0
C838 C 0.88408 0.5886 0.77114 0.0
C839 C 0.86795 0.57559 0.78184 0.0
H840 H 0.90287 0.5824 0.75096 0.0
H841 H 0.74655 0.45785 0.85539 0.0
H842 H 0.55327 0.23814 0.07469 0.0
H843 H 0.5746 0.28591 0.068 0.0
H844 H 0.64581 0.24054 0.04713 0.0
H845 H 0.6248 0.19258 0.05393 0.0
H846 H 0.66679 0.28529 0.06313 0.0
H847 H 0.59008 0.27363 0.02878 0.0
H848 H 0.53913 0.2644 0.02013 0.0
H849 H 0.50765 0.34077 0.04226 0.0
H850 H 0.55835 0.35023 0.0512 0.0
H851 H 0.72108 0.41561 0.029 0.0
H852 H 0.70248 0.36619 0.03501 0.0
H853 H 0.62627 0.406 0.05449 0.0
H854 H 0.64426 0.45527 0.04826 0.0
H855 H 0.60888 0.3628 0.03824 0.0
H856 H 0.68467 0.37376 0.07327 0.0
H857 H 0.73532 0.38313 0.08227 0.0
H858 H 0.76824 0.30852 0.05933 0.0
H859 H 0.71783 0.29894 0.05004 0.0
C860 C 0.57333 0.23826 0.06858 0.0
C861 C 0.5873 0.2115 0.06483 0.0
C862 C 0.58547 0.26562 0.06473 0.0
C863 C 0.6117 0.26681 0.05698 0.0
C864 C 0.62556 0.24014 0.05312 0.0
C865 C 0.61343 0.21275 0.05696 0.0
C866 C 0.62501 0.29591 0.05322 0.0
C867 C 0.65431 0.3021 0.0575 0.0
C868 C 0.60849 0.31807 0.04615 0.0
C869 C 0.57798 0.31248 0.04076 0.0
C870 C 0.57225 0.28833 0.03189 0.0
C871 C 0.54342 0.28308 0.02692 0.0
C872 C 0.52015 0.30195 0.03067 0.0
C873 C 0.52568 0.32615 0.03937 0.0
C874 C 0.55447 0.33148 0.04438 0.0
C875 C 0.70057 0.41387 0.03473 0.0
C876 C 0.68416 0.43946 0.03812 0.0
C877 C 0.68997 0.38557 0.03818 0.0
C878 C 0.663 0.38233 0.04526 0.0
C879 C 0.64704 0.40789 0.04897 0.0
C880 C 0.65745 0.43609 0.04543 0.0
C881 C 0.65059 0.3524 0.0483 0.0
C882 C 0.62145 0.34601 0.04385 0.0
C883 C 0.66722 0.33013 0.05526 0.0
C884 C 0.69753 0.33583 0.06085 0.0
C885 C 0.70275 0.3595 0.07006 0.0
C886 C 0.73141 0.36482 0.07523 0.0
C887 C 0.755 0.34648 0.07135 0.0
C888 C 0.74996 0.32273 0.06231 0.0
C889 C 0.72135 0.31733 0.0571 0.0
H890 H 0.77717 0.35064 0.07536 0.0
H891 H 0.49785 0.29785 0.02681 0.0
H892 H 0.97352 0.1428 0.30826 0.0
H893 H 0.92327 0.15681 0.30113 0.0
H894 H 0.89394 0.06636 0.3068 0.0
H895 H 0.94448 0.05198 0.3139 0.0
H896 H 0.86936 0.09229 0.28334 0.0
H897 H 0.88045 0.11577 0.33137 0.0
H898 H 0.90489 0.13789 0.35184 0.0
H899 H 0.89466 0.22504 0.33428 0.0
H900 H 0.87056 0.2034 0.3136 0.0
H901 H 0.71548 0.12859 0.2837 0.0
H902 H 0.76459 0.11043 0.29061 0.0
H903 H 0.79967 0.19948 0.28784 0.0
H904 H 0.75053 0.21802 0.28117 0.0
H905 H 0.82048 0.1719 0.31045 0.0
H906 H 0.81044 0.14823 0.26214 0.0
H907 H 0.78558 0.12612 0.24177 0.0
H908 H 0.79356 0.03927 0.25988 0.0
H909 H 0.81802 0.06093 0.28048 0.0
C910 C 0.95652 0.12575 0.30787 0.0
C911 C 0.96299 0.09629 0.31177 0.0
C912 C 0.92774 0.13385 0.30383 0.0
C913 C 0.90475 0.11274 0.30366 0.0
C914 C 0.91135 0.08302 0.30692 0.0
C915 C 0.94022 0.07486 0.31098 0.0
C916 C 0.8737 0.12216 0.30062 0.0
C917 C 0.85848 0.10938 0.28938 0.0
C918 C 0.85969 0.1448 0.30839 0.0
C919 C 0.87393 0.15793 0.32088 0.0
C920 C 0.8836 0.13964 0.33182 0.0
C921 C 0.89737 0.15209 0.34347 0.0
C922 C 0.90138 0.18284 0.34435 0.0
C923 C 0.89156 0.20122 0.33359 0.0
C924 C 0.87782 0.18887 0.3219 0.0
C925 C 0.73356 0.14441 0.28462 0.0
C926 C 0.72897 0.17481 0.28181 0.0
C927 C 0.7617 0.13392 0.28851 0.0
C928 C 0.78594 0.15351 0.28954 0.0
C929 C 0.78131 0.18394 0.28708 0.0
C930 C 0.75316 0.19449 0.28324 0.0
C931 C 0.8162 0.14233 0.29305 0.0
C932 C 0.83128 0.15474 0.30442 0.0
C933 C 0.83002 0.11937 0.2854 0.0
C934 C 0.8158 0.10624 0.27291 0.0
C935 C 0.80672 0.12444 0.26182 0.0
C936 C 0.79271 0.11199 0.25023 0.0
C937 C 0.78793 0.08132 0.24955 0.0
C938 C 0.79724 0.06303 0.26044 0.0
C939 C 0.81119 0.07538 0.27207 0.0
H940 H 0.77706 0.07172 0.24057 0.0
H941 H 0.91205 0.19244 0.35337 0.0
H942 H 0.12917 0.41859 0.57379 0.0
H943 H 0.10832 0.37386 0.56309 0.0
H944 H 0.03496 0.42533 0.54681 0.0
H945 H 0.05542 0.47005 0.5576 0.0
H946 H 0.01577 0.37722 0.56022 0.0
H947 H 0.0888 0.39725 0.5256 0.0
H948 H 0.13902 0.4075 0.51674 0.0
H949 H 0.17004 0.32399 0.53287 0.0
H950 H 0.12009 0.31341 0.542 0.0
H951 H 0.94782 0.26289 0.52186 0.0
H952 H 0.97424 0.30901 0.52722 0.0
H953 H 0.0483 0.25851 0.54348 0.0
H954 H 0.02222 0.2122 0.53788 0.0
H955 H 0.06759 0.30642 0.52936 0.0
H956 H 0.99654 0.2874 0.565 0.0
H957 H 0.94697 0.27663 0.5745 0.0
H958 H 0.91319 0.35802 0.55723 0.0
H959 H 0.96249 0.36907 0.54746 0.0
C960 C 0.10884 0.4205 0.56776 0.0
C961 C 0.09388 0.44789 0.56662 0.0
C962 C 0.097 0.3949 0.5616 0.0
C963 C 0.07011 0.39624 0.55411 0.0
C964 C 0.0557 0.42375 0.55257 0.0
C965 C 0.06749 0.44932 0.55872 0.0
C966 C 0.05578 0.3687 0.54879 0.0
C967 C 0.02693 0.36203 0.55326 0.0
C968 C 0.07069 0.34838 0.54009 0.0
C969 C 0.10075 0.35467 0.5346 0.0
C970 C 0.10638 0.38118 0.52736 0.0
C971 C 0.13479 0.38703 0.52227 0.0
C972 C 0.15773 0.36645 0.52427 0.0
C973 C 0.15227 0.33993 0.53134 0.0
C974 C 0.1239 0.33399 0.53646 0.0
C975 C 0.96987 0.26157 0.52643 0.0
C976 C 0.98283 0.2339 0.52956 0.0
C977 C 0.98491 0.28796 0.52953 0.0
C978 C 0.01303 0.28722 0.53598 0.0
C979 C 0.02659 0.25962 0.53855 0.0
C980 C 0.01162 0.23317 0.53537 0.0
C981 C 0.02753 0.31517 0.5407 0.0
C982 C 0.05641 0.32179 0.53621 0.0
C983 C 0.01277 0.33544 0.54948 0.0
C984 C 0.98312 0.3289 0.55538 0.0
C985 C 0.97848 0.30288 0.56314 0.0
C986 C 0.95045 0.29675 0.56858 0.0
C987 C 0.92692 0.31659 0.56644 0.0
C988 C 0.93141 0.34265 0.55887 0.0
C989 C 0.9594 0.34887 0.55338 0.0
H990 H 0.90523 0.31181 0.57066 0.0
H991 H 0.1797 0.37101 0.52032 0.0
H992 H 0.61361 0.09345 0.47538 0.0
H993 H 0.66258 0.09436 0.48655 0.0
H994 H 0.6583 0.19 0.48922 0.0
H995 H 0.60924 0.18932 0.478 0.0
H996 H 0.71126 0.17062 0.47874 0.0
H997 H 0.65086 0.14937 0.51791 0.0
H998 H 0.61258 0.1228 0.53117 0.0
H999 H 0.66263 0.04179 0.52801 0.0
H1000 H 0.70104 0.06779 0.51455 0.0
H1001 H 0.84447 0.18131 0.51823 0.0
H1002 H 0.79188 0.18527 0.51186 0.0
H1003 H 0.7861 0.08976 0.50875 0.0
H1004 H 0.83845 0.08548 0.51534 0.0
H1005 H 0.73712 0.11249 0.52077 0.0
H1006 H 0.79545 0.13236 0.48042 0.0
H1007 H 0.83435 0.15827 0.4673 0.0
H1008 H 0.788 0.24106 0.47222 0.0
H1009 H 0.74915 0.21572 0.4857 0.0
C1010 C 0.62294 0.11468 0.47844 0.0
C1011 C 0.6075 0.14132 0.47579 0.0
C1012 C 0.6509 0.11515 0.48488 0.0
C1013 C 0.66401 0.14224 0.4888 0.0
C1014 C 0.64856 0.16886 0.48629 0.0
C1015 C 0.62048 0.1684 0.47993 0.0
C1016 C 0.69437 0.14274 0.49498 0.0
C1017 C 0.71681 0.15837 0.48808 0.0
C1018 C 0.70172 0.1262 0.50698 0.0
C1019 C 0.67871 0.11049 0.51511 0.0
C1020 C 0.6536 0.12584 0.51994 0.0
C1021 C 0.63189 0.11089 0.52752 0.0
C1022 C 0.63514 0.08061 0.53041 0.0
C1023 C 0.66014 0.06524 0.52576 0.0
C1024 C 0.6819 0.08008 0.51817 0.0
C1025 C 0.83201 0.1611 0.51631 0.0
C1026 C 0.84589 0.13308 0.51717 0.0
C1027 C 0.80193 0.16342 0.51263 0.0
C1028 C 0.78516 0.13783 0.50964 0.0
C1029 C 0.79861 0.10982 0.51099 0.0
C1030 C 0.82865 0.10744 0.51469 0.0
C1031 C 0.75402 0.14018 0.50447 0.0
C1032 C 0.73148 0.12501 0.51152 0.0
C1033 C 0.74658 0.15702 0.49256 0.0
C1034 C 0.76957 0.1722 0.48421 0.0
C1035 C 0.79366 0.15613 0.47879 0.0
C1036 C 0.8157 0.17072 0.47129 0.0
C1037 C 0.81368 0.20131 0.46894 0.0
C1038 C 0.78956 0.21737 0.47407 0.0
C1039 C 0.76754 0.20291 0.48166 0.0
H1040 H 0.83078 0.21258 0.46313 0.0
H1041 H 0.61831 0.06908 0.53627 0.0
H1042 H 0.06745 0.09746 0.71938 0.0
H1043 H 0.06818 0.14454 0.73203 0.0
H1044 H 0.97499 0.15729 0.72272 0.0
H1045 H 0.97415 0.11051 0.70991 0.0
H1046 H 0.00561 0.20687 0.71786 0.0
H1047 H 0.99833 0.13731 0.7551 0.0
H1048 H 0.01239 0.09352 0.76905 0.0
H1049 H 0.09809 0.13207 0.7774 0.0
H1050 H 0.08469 0.17594 0.76334 0.0
H1051 H 0.98339 0.32893 0.76259 0.0
H1052 H 0.97983 0.27827 0.75356 0.0
H1053 H 0.07463 0.26744 0.75861 0.0
H1054 H 0.0785 0.31805 0.76766 0.0
H1055 H 0.04193 0.21664 0.76624 0.0
H1056 H 0.04941 0.28528 0.72825 0.0
H1057 H 0.03483 0.32938 0.71464 0.0
H1058 H 0.94793 0.29217 0.70786 0.0
H1059 H 0.96183 0.24805 0.72166 0.0
C1060 C 0.04707 0.1102 0.72008 0.0
C1061 C 0.02074 0.10022 0.71362 0.0
C1062 C 0.04749 0.13706 0.72737 0.0
C1063 C 0.02157 0.15433 0.72843 0.0
C1064 C 0.99525 0.14433 0.72205 0.0
C1065 C 0.99481 0.11752 0.71475 0.0
C1066 C 0.0221 0.18333 0.73577 0.0
C1067 C 0.01311 0.20889 0.72851 0.0
C1068 C 0.03248 0.18611 0.74957 0.0
C1069 C 0.0406 0.15978 0.75805 0.0
C1070 C 0.02027 0.13634 0.75982 0.0
C1071 C 0.0281 0.11153 0.76776 0.0
C1072 C 0.05614 0.10998 0.77407 0.0
C1073 C 0.07639 0.13328 0.77249 0.0
C1074 C 0.06868 0.15814 0.76454 0.0
C1075 C 0.00345 0.31567 0.76198 0.0
C1076 C 0.03128 0.32769 0.76574 0.0
C1077 C 0.00137 0.28675 0.75677 0.0
C1078 C 0.02702 0.26928 0.75528 0.0
C1079 C 0.05459 0.28061 0.75966 0.0
C1080 C 0.05675 0.30961 0.76477 0.0
C1081 C 0.02538 0.23996 0.74833 0.0
C1082 C 0.03427 0.21446 0.75563 0.0
C1083 C 0.01485 0.23718 0.73457 0.0
C1084 C 0.00656 0.26351 0.72612 0.0
C1085 C 0.02711 0.28661 0.72395 0.0
C1086 C 0.01898 0.3116 0.71619 0.0
C1087 C 0.99044 0.31361 0.71042 0.0
C1088 C 0.97001 0.2906 0.71236 0.0
C1089 C 0.978 0.26559 0.72015 0.0
H1090 H 0.98419 0.33297 0.70441 0.0
H1091 H 0.06216 0.09075 0.78022 0.0
H1092 H 0.0626 0.53307 0.97301 0.0
H1093 H 0.016 0.52457 0.98519 0.0
H1094 H 0.97937 0.6047 0.96742 0.0
H1095 H 0.02605 0.61355 0.95525 0.0
H1096 H 0.96458 0.5983 0.99486 0.0
H1097 H 0.9625 0.53873 0.9535 0.0
H1098 H 0.98198 0.50162 0.93715 0.0
H1099 H 0.9801 0.43485 0.96886 0.0
H1100 H 0.96103 0.4717 0.98547 0.0
H1101 H 0.81015 0.57077 0.00208 0.0
H1102 H 0.86037 0.58103 0.99396 0.0
H1103 H 0.89048 0.49712 0.01058 0.0
H1104 H 0.84003 0.48649 0.01859 0.0
H1105 H 0.91008 0.50462 0.98491 0.0
H1106 H 0.9097 0.56317 0.02604 0.0
H1107 H 0.89067 0.60015 0.04256 0.0
H1108 H 0.89744 0.66849 0.01175 0.0
H1109 H 0.91612 0.63183 0.99497 0.0
C1110 C 0.04477 0.54909 0.97178 0.0
C1111 C 0.04802 0.57391 0.96306 0.0
C1112 C 0.01808 0.54411 0.97872 0.0
C1113 C 0.99405 0.56378 0.97707 0.0
C1114 C 0.9976 0.5892 0.96882 0.0
C1115 C 0.02429 0.59417 0.96184 0.0
C1116 C 0.96485 0.55718 0.98347 0.0
C1117 C 0.95249 0.57797 0.99259 0.0
C1118 C 0.94944 0.5303 0.98077 0.0
C1119 C 0.96063 0.50805 0.97077 0.0
C1120 C 0.96645 0.51619 0.95702 0.0
C1121 C 0.97739 0.4952 0.9477 0.0
C1122 C 0.98235 0.46591 0.95197 0.0
C1123 C 0.97629 0.45755 0.96557 0.0
C1124 C 0.9654 0.47847 0.97494 0.0
C1125 C 0.82749 0.55458 0.00413 0.0
C1126 C 0.82108 0.52781 0.011 0.0
C1127 C 0.85626 0.56055 0.99952 0.0
C1128 C 0.87934 0.53999 0.00177 0.0
C1129 C 0.87306 0.51335 0.00874 0.0
C1130 C 0.84423 0.50734 0.01336 0.0
C1131 C 0.90962 0.5458 0.99629 0.0
C1132 C 0.9222 0.52488 0.9873 0.0
C1133 C 0.92523 0.57252 0.99914 0.0
C1134 C 0.91407 0.59467 0.00921 0.0
C1135 C 0.90691 0.58603 0.02275 0.0
C1136 C 0.89623 0.60695 0.03217 0.0
C1137 C 0.89278 0.63663 0.0282 0.0
C1138 C 0.90009 0.64548 0.01481 0.0
C1139 C 0.91076 0.62465 0.00534 0.0
H1140 H 0.88451 0.65279 0.0355 0.0
H1141 H 0.99082 0.4497 0.94474 0.0
H1142 H 0.59182 0.56804 0.24183 0.0
H1143 H 0.59559 0.51852 0.25218 0.0
H1144 H 0.63715 0.48567 0.21519 0.0
H1145 H 0.6326 0.53475 0.20464 0.0
H1146 H 0.60039 0.44613 0.22375 0.0
H1147 H 0.67761 0.50363 0.2453 0.0
H1148 H 0.69901 0.54587 0.25825 0.0
H1149 H 0.64487 0.52431 0.29318 0.0
H1150 H 0.62286 0.48215 0.28036 0.0
H1151 H 0.68836 0.33483 0.26918 0.0
H1152 H 0.67955 0.38647 0.26228 0.0
H1153 H 0.58614 0.36736 0.2566 0.0
H1154 H 0.59511 0.31544 0.26289 0.0
H1155 H 0.64875 0.43304 0.26967 0.0
H1156 H 0.55958 0.40347 0.22827 0.0
H1157 H 0.54388 0.35975 0.21462 0.0
H1158 H 0.63243 0.32415 0.21731 0.0
H1159 H 0.64884 0.36806 0.23053 0.0
C1160 C 0.6016 0.55022 0.23587 0.0
C1161 C 0.61199 0.55541 0.22242 0.0
C1162 C 0.6039 0.52193 0.24184 0.0
C1163 C 0.6171 0.49837 0.23457 0.0
C1164 C 0.62689 0.50341 0.22103 0.0
C1165 C 0.62431 0.53156 0.21501 0.0
C1166 C 0.62102 0.46852 0.24104 0.0
C1167 C 0.61086 0.44335 0.23382 0.0
C1168 C 0.63515 0.46465 0.25408 0.0
C1169 C 0.64837 0.48994 0.26182 0.0
C1170 C 0.67011 0.50804 0.25571 0.0
C1171 C 0.68238 0.53194 0.26303 0.0
C1172 C 0.67324 0.53782 0.27652 0.0
C1173 C 0.65189 0.51976 0.28272 0.0
C1174 C 0.63953 0.49584 0.27544 0.0
C1175 C 0.66587 0.34176 0.26667 0.0
C1176 C 0.64249 0.32102 0.26639 0.0
C1177 C 0.66084 0.37133 0.26275 0.0
C1178 C 0.63228 0.38072 0.25861 0.0
C1179 C 0.6085 0.36051 0.2594 0.0
C1180 C 0.61363 0.33085 0.26305 0.0
C1181 C 0.6279 0.41077 0.25242 0.0
C1182 C 0.63801 0.43591 0.25967 0.0
C1183 C 0.61457 0.41458 0.2392 0.0
C1184 C 0.60532 0.38889 0.23054 0.0
C1185 C 0.57575 0.38645 0.22581 0.0
C1186 C 0.56674 0.36164 0.21813 0.0
C1187 C 0.58711 0.33914 0.21511 0.0
C1188 C 0.61664 0.34158 0.21962 0.0
C1189 C 0.62583 0.36646 0.22718 0.0
H1190 H 0.58001 0.31984 0.20928 0.0
H1191 H 0.68277 0.55634 0.28217 0.0
H1192 H 0.9926 0.96182 0.36355 0.0
H1193 H 0.00808 0.93576 0.38463 0.0
H1194 H 0.09956 0.95845 0.37658 0.0
H1195 H 0.08453 0.98332 0.35536 0.0
H1196 H 0.0985 0.90887 0.39046 0.0
H1197 H 0.05209 0.00459 0.39342 0.0
H1198 H 0.01171 0.04075 0.39001 0.0
H1199 H 0.95508 0.98948 0.41642 0.0
H1200 H 0.99498 0.95229 0.41959 0.0
H1201 H 0.1164 0.97016 0.46582 0.0
H1202 H 0.09672 0.97378 0.44227 0.0
H1203 H 0.10159 0.87816 0.4383 0.0
H1204 H 0.12343 0.87501 0.4616 0.0
H1205 H 0.05092 0.95869 0.43024 0.0
H1206 H 0.10839 0.85723 0.40503 0.0
H1207 H 0.15459 0.82793 0.40748 0.0
H1208 H 0.19892 0.90326 0.42556 0.0
H1209 H 0.1531 0.93307 0.42306 0.0
C1210 C 0.0161 0.96038 0.36603 0.0
C1211 C 0.03723 0.97536 0.35797 0.0
C1212 C 0.02492 0.94551 0.3781 0.0
C1213 C 0.05489 0.94594 0.38241 0.0
C1214 C 0.07629 0.95801 0.37357 0.0
C1215 C 0.06757 0.97247 0.36144 0.0
C1216 C 0.06358 0.93846 0.39685 0.0
C1217 C 0.08777 0.91931 0.3992 0.0
C1218 C 0.05024 0.95285 0.40826 0.0
C1219 C 0.02634 0.97537 0.40653 0.0
C1220 C 0.03092 0.0008 0.39837 0.0
C1221 C 0.00805 0.02145 0.39643 0.0
C1222 C 0.98073 0.01738 0.40293 0.0
C1223 C 0.97622 0.99256 0.41135 0.0
C1224 C 0.99891 0.97159 0.41316 0.0
C1225 C 0.11319 0.94999 0.45986 0.0
C1226 C 0.12078 0.92227 0.46549 0.0
C1227 C 0.1019 0.95199 0.44642 0.0
C1228 C 0.09776 0.92626 0.43837 0.0
C1229 C 0.10515 0.89843 0.44411 0.0
C1230 C 0.11732 0.89656 0.45745 0.0
C1231 C 0.0859 0.92896 0.42398 0.0
C1232 C 0.06113 0.94736 0.42162 0.0
C1233 C 0.0995 0.91485 0.41256 0.0
C1234 C 0.12722 0.89722 0.41401 0.0
C1235 C 0.12803 0.86753 0.4095 0.0
C1236 C 0.15414 0.85085 0.4109 0.0
C1237 C 0.17964 0.86369 0.41672 0.0
C1238 C 0.17912 0.8933 0.42111 0.0
C1239 C 0.15308 0.91008 0.41971 0.0
H1240 H 0.19982 0.85073 0.41781 0.0
H1241 H 0.9631 0.03351 0.4015 0.0
H1242 H 0.19313 0.60161 0.60596 0.0
H1243 H 0.21995 0.61094 0.62759 0.0
H1244 H 0.19476 0.52419 0.6425 0.0
H1245 H 0.16826 0.5145 0.62084 0.0
H1246 H 0.19112 0.61506 0.65118 0.0
H1247 H 0.24299 0.50243 0.66849 0.0
H1248 H 0.2684 0.45934 0.65815 0.0
H1249 H 0.29712 0.51372 0.62433 0.0
H1250 H 0.27227 0.55724 0.63455 0.0
H1251 H 0.19976 0.60848 0.72291 0.0
H1252 H 0.19262 0.5904 0.69926 0.0
H1253 H 0.28541 0.60628 0.69093 0.0
H1254 H 0.29268 0.62394 0.71479 0.0
H1255 H 0.26198 0.55302 0.67827 0.0
H1256 H 0.24013 0.65769 0.68245 0.0
H1257 H 0.21567 0.70042 0.69356 0.0
H1258 H 0.12993 0.66383 0.68348 0.0
H1259 H 0.1539 0.62051 0.67259 0.0
C1260 C 0.19398 0.58416 0.61367 0.0
C1261 C 0.17818 0.55748 0.61174 0.0
C1262 C 0.20928 0.58957 0.62605 0.0
C1263 C 0.20921 0.56836 0.6367 0.0
C1264 C 0.19538 0.54079 0.63439 0.0
C1265 C 0.18012 0.53533 0.62199 0.0
C1266 C 0.2198 0.57661 0.65077 0.0
C1267 C 0.20687 0.6016 0.657 0.0
C1268 C 0.24028 0.55905 0.65843 0.0
C1269 C 0.2555 0.53305 0.65224 0.0
C1270 C 0.25482 0.50523 0.65887 0.0
C1271 C 0.26912 0.48072 0.65303 0.0
C1272 C 0.28428 0.48377 0.64057 0.0
C1273 C 0.28526 0.51136 0.63395 0.0
C1274 C 0.27102 0.53595 0.63975 0.0
C1275 C 0.21878 0.6072 0.71614 0.0
C1276 C 0.24692 0.61672 0.72068 0.0
C1277 C 0.21467 0.59708 0.70264 0.0
C1278 C 0.2385 0.59705 0.69337 0.0
C1279 C 0.26685 0.60588 0.69799 0.0
C1280 C 0.27094 0.61607 0.71153 0.0
C1281 C 0.23292 0.59104 0.67855 0.0
C1282 C 0.24658 0.56653 0.67227 0.0
C1283 C 0.21327 0.60912 0.67074 0.0
C1284 C 0.19882 0.63576 0.67679 0.0
C1285 C 0.21606 0.6587 0.68265 0.0
C1286 C 0.20228 0.68301 0.68892 0.0
C1287 C 0.17126 0.68482 0.68924 0.0
C1288 C 0.15396 0.66239 0.68323 0.0
C1289 C 0.16763 0.63795 0.67701 0.0
H1290 H 0.16061 0.70358 0.69415 0.0
H1291 H 0.29533 0.46476 0.63607 0.0
H1292 H 0.61231 0.69249 0.86745 0.0
H1293 H 0.59901 0.71388 0.88966 0.0
H1294 H 0.68889 0.70081 0.90449 0.0
H1295 H 0.70226 0.67869 0.88234 0.0
H1296 H 0.65113 0.67538 0.9211 0.0
H1297 H 0.65803 0.77151 0.90098 0.0
H1298 H 0.64941 0.81074 0.8836 0.0
H1299 H 0.55533 0.80601 0.8906 0.0
H1300 H 0.56332 0.76645 0.90789 0.0
H1301 H 0.60539 0.71724 0.98753 0.0
H1302 H 0.63234 0.71994 0.96573 0.0
H1303 H 0.54954 0.73562 0.94391 0.0
H1304 H 0.52297 0.73523 0.96592 0.0
H1305 H 0.59073 0.7647 0.93159 0.0
H1306 H 0.58454 0.66426 0.94992 0.0
H1307 H 0.59393 0.62574 0.9675 0.0
H1308 H 0.68812 0.63732 0.96303 0.0
H1309 H 0.67933 0.67702 0.94586 0.0
C1310 C 0.62952 0.69487 0.87529 0.0
C1311 C 0.65827 0.68347 0.87316 0.0
C1312 C 0.62188 0.70729 0.888 0.0
C1313 C 0.64292 0.70895 0.89879 0.0
C1314 C 0.67224 0.69966 0.89634 0.0
C1315 C 0.67988 0.6871 0.88364 0.0
C1316 C 0.63327 0.71637 0.91303 0.0
C1317 C 0.63853 0.69529 0.92346 0.0
C1318 C 0.61622 0.74197 0.91606 0.0
C1319 C 0.61128 0.76585 0.90569 0.0
C1320 C 0.63548 0.77867 0.89875 0.0
C1321 C 0.6307 0.801 0.88892 0.0
C1322 C 0.60184 0.81082 0.88598 0.0
C1323 C 0.57768 0.79838 0.89289 0.0
C1324 C 0.58233 0.77603 0.90272 0.0
C1325 C 0.5931 0.72176 0.97809 0.0
C1326 C 0.56215 0.72576 0.97831 0.0
C1327 C 0.60846 0.72316 0.96562 0.0
C1328 C 0.59291 0.72705 0.95307 0.0
C1329 C 0.56209 0.73242 0.95341 0.0
C1330 C 0.54688 0.73209 0.96595 0.0
C1331 C 0.60814 0.72341 0.93957 0.0
C1332 C 0.6038 0.74508 0.92927 0.0
C1333 C 0.62607 0.69825 0.93662 0.0
C1334 C 0.63125 0.67393 0.94674 0.0
C1335 C 0.60726 0.65881 0.95277 0.0
C1336 C 0.61249 0.63681 0.9627 0.0
C1337 C 0.6416 0.62904 0.96637 0.0
C1338 C 0.66558 0.6434 0.96019 0.0
C1339 C 0.66049 0.66578 0.95042 0.0
H1340 H 0.64561 0.61189 0.974 0.0
H1341 H 0.59819 0.82811 0.87837 0.0
H1342 H 0.44667 0.08115 0.11181 0.0
H1343 H 0.43115 0.07359 0.13573 0.0
H1344 H 0.46917 0.15824 0.14704 0.0
H1345 H 0.48434 0.16629 0.1232 0.0
H1346 H 0.49549 0.10543 0.15938 0.0
H1347 H 0.40042 0.15191 0.15205 0.0
H1348 H 0.35195 0.1594 0.14044 0.0
H1349 H 0.32648 0.06999 0.15047 0.0
H1350 H 0.375 0.0618 0.16198 0.0
H1351 H 0.48394 0.089 0.23055 0.0
H1352 H 0.4782 0.11008 0.20748 0.0
H1353 H 0.41823 0.03888 0.19628 0.0
H1354 H 0.42274 0.01849 0.2197 0.0
H1355 H 0.40068 0.0872 0.1838 0.0
H1356 H 0.49374 0.03727 0.18859 0.0
H1357 H 0.54273 0.02479 0.19869 0.0
H1358 H 0.57297 0.11397 0.19134 0.0
H1359 H 0.52398 0.12712 0.18145 0.0
C1360 C 0.45078 0.09866 0.11928 0.0
C1361 C 0.46724 0.12406 0.11565 0.0
C1362 C 0.4418 0.09433 0.13293 0.0
C1363 C 0.44925 0.11527 0.14313 0.0
C1364 C 0.46323 0.14185 0.13929 0.0
C1365 C 0.47188 0.14638 0.12563 0.0
C1366 C 0.44773 0.10704 0.1579 0.0
C1367 C 0.47477 0.10207 0.16484 0.0
C1368 C 0.42067 0.1013 0.1647 0.0
C1369 C 0.39149 0.10615 0.15777 0.0
C1370 C 0.38462 0.13374 0.15166 0.0
C1371 C 0.3571 0.13814 0.14513 0.0
C1372 C 0.33618 0.11516 0.14468 0.0
C1373 C 0.34272 0.08776 0.15081 0.0
C1374 C 0.37021 0.08324 0.15735 0.0
C1375 C 0.46925 0.078 0.22323 0.0
C1376 C 0.45407 0.05187 0.22687 0.0
C1377 C 0.46604 0.09004 0.21002 0.0
C1378 C 0.44838 0.07565 0.2 0.0
C1379 C 0.43208 0.05032 0.2038 0.0
C1380 C 0.43475 0.03862 0.21716 0.0
C1381 C 0.44857 0.08597 0.1854 0.0
C1382 C 0.42142 0.09097 0.17843 0.0
C1383 C 0.47561 0.09104 0.17836 0.0
C1384 C 0.50505 0.08328 0.18444 0.0
C1385 C 0.51074 0.0543 0.18926 0.0
C1386 C 0.53852 0.04708 0.19494 0.0
C1387 C 0.56091 0.06857 0.19571 0.0
C1388 C 0.5556 0.09732 0.19078 0.0
C1389 C 0.52781 0.10469 0.18515 0.0
H1390 H 0.58239 0.06285 0.20009 0.0
H1391 H 0.31488 0.11862 0.13962 0.0
H1392 H 0.16706 0.60738 0.90571 0.0
H1393 H 0.17932 0.62011 0.882 0.0
H1394 H 0.08716 0.60969 0.87 0.0
H1395 H 0.07498 0.5955 0.8937 0.0
H1396 H 0.11811 0.58227 0.85257 0.0
H1397 H 0.12433 0.67984 0.87063 0.0
H1398 H 0.1389 0.71992 0.88671 0.0
H1399 H 0.23094 0.70519 0.87739 0.0
H1400 H 0.21697 0.66474 0.8614 0.0
H1401 H 0.19185 0.67132 0.79146 0.0
H1402 H 0.1675 0.67055 0.81393 0.0
H1403 H 0.19128 0.57815 0.81891 0.0
H1404 H 0.21468 0.57845 0.7963 0.0
H1405 H 0.18658 0.66315 0.83861 0.0
H1406 H 0.14422 0.54123 0.83735 0.0
H1407 H 0.1233 0.50515 0.82062 0.0
H1408 H 0.09227 0.57685 0.79502 0.0
H1409 H 0.11326 0.61328 0.81151 0.0
C1410 C 0.14924 0.60836 0.89811 0.0
C1411 C 0.12002 0.60036 0.9016 0.0
C1412 C 0.15628 0.6158 0.88451 0.0
C1413 C 0.13416 0.61616 0.87415 0.0
C1414 C 0.10468 0.60949 0.87777 0.0
C1415 C 0.0977 0.60155 0.89134 0.0
C1416 C 0.14232 0.62105 0.85943 0.0
C1417 C 0.13286 0.60016 0.84953 0.0
C1418 C 0.16101 0.64474 0.85528 0.0
C1419 C 0.16959 0.66911 0.86487 0.0
C1420 C 0.14769 0.68501 0.87208 0.0
C1421 C 0.15585 0.70782 0.88117 0.0
C1422 C 0.18583 0.71506 0.88309 0.0
C1423 C 0.20773 0.69955 0.8759 0.0
C1424 C 0.1997 0.67671 0.8668 0.0
C1425 C 0.1918 0.65078 0.79731 0.0
C1426 C 0.20518 0.62492 0.79204 0.0
C1427 C 0.17786 0.65039 0.81017 0.0
C1428 C 0.17712 0.6242 0.81806 0.0
C1429 C 0.19082 0.59846 0.81289 0.0
C1430 C 0.20442 0.59872 0.79997 0.0
C1431 C 0.16301 0.62392 0.83191 0.0
C1432 C 0.17145 0.64558 0.84164 0.0
C1433 C 0.14251 0.6016 0.83579 0.0
C1434 C 0.13032 0.57989 0.82567 0.0
C1435 C 0.13288 0.54921 0.82816 0.0
C1436 C 0.12104 0.52874 0.81873 0.0
C1437 C 0.1062 0.53871 0.80686 0.0
C1438 C 0.10368 0.56917 0.80425 0.0
C1439 C 0.11568 0.58973 0.8136 0.0
H1440 H 0.09655 0.52283 0.79973 0.0
H1441 H 0.1921 0.73273 0.89013 0.0
H1442 H 0.53273 0.5943 0.15555 0.0
H1443 H 0.51366 0.60771 0.13258 0.0
H1444 H 0.57351 0.68279 0.13165 0.0
H1445 H 0.59126 0.67055 0.15469 0.0
H1446 H 0.52626 0.70005 0.12114 0.0
H1447 H 0.58653 0.61246 0.11194 0.0
H1448 H 0.60244 0.56016 0.11475 0.0
H1449 H 0.51396 0.53061 0.10479 0.0
H1450 H 0.49766 0.58273 0.1019 0.0
H1451 H 0.55579 0.71284 0.04879 0.0
H1452 H 0.56094 0.69373 0.07246 0.0
H1453 H 0.46762 0.67148 0.07263 0.0
H1454 H 0.46226 0.69135 0.04901 0.0
H1455 H 0.52316 0.62575 0.08327 0.0
H1456 H 0.46841 0.71957 0.08926 0.0
H1457 H 0.46123 0.77283 0.08406 0.0
H1458 H 0.54979 0.79158 0.09863 0.0
H1459 H 0.55764 0.73832 0.1037 0.0
C1460 C 0.54156 0.61382 0.15048 0.0
C1461 C 0.56359 0.63127 0.15696 0.0
C1462 C 0.53089 0.6213 0.13726 0.0
C1463 C 0.54249 0.646 0.13018 0.0
C1464 C 0.56401 0.66371 0.13683 0.0
C1465 C 0.57424 0.65659 0.15006 0.0
C1466 C 0.53256 0.65379 0.11589 0.0
C1467 C 0.52567 0.68365 0.11293 0.0
C1468 C 0.53131 0.6326 0.10504 0.0
C1469 C 0.54082 0.60137 0.10698 0.0
C1470 C 0.57046 0.59476 0.11054 0.0
C1471 C 0.57955 0.5652 0.11208 0.0
C1472 C 0.55916 0.54211 0.11008 0.0
C1473 C 0.52969 0.54852 0.10641 0.0
C1474 C 0.52054 0.57805 0.10478 0.0
C1475 C 0.53654 0.70342 0.05383 0.0
C1476 C 0.50882 0.70271 0.04708 0.0
C1477 C 0.53945 0.69266 0.0673 0.0
C1478 C 0.51467 0.68112 0.07417 0.0
C1479 C 0.48697 0.68015 0.0674 0.0
C1480 C 0.48394 0.69145 0.05399 0.0
C1481 C 0.51771 0.67174 0.08871 0.0
C1482 C 0.52331 0.64177 0.09164 0.0
C1483 C 0.51864 0.6929 0.09946 0.0
C1484 C 0.51369 0.72497 0.09673 0.0
C1485 C 0.48643 0.73503 0.09124 0.0
C1486 C 0.48222 0.76521 0.08834 0.0
C1487 C 0.50507 0.78557 0.09098 0.0
C1488 C 0.53213 0.77579 0.09658 0.0
C1489 C 0.53645 0.74562 0.09948 0.0
H1490 H 0.50178 0.80892 0.08871 0.0
H1491 H 0.56622 0.51924 0.11129 0.0
H1492 H 0.47363 0.03805 0.41326 0.0
H1493 H 0.47336 0.02542 0.38866 0.0
H1494 H 0.5593 0.06676 0.38413 0.0
H1495 H 0.55993 0.07917 0.40875 0.0
H1496 H 0.51529 0.08803 0.36583 0.0
H1497 H 0.55601 0.99478 0.38058 0.0
H1498 H 0.5583 0.94913 0.39468 0.0
H1499 H 0.47254 0.92257 0.37914 0.0
H1500 H 0.46954 0.96827 0.36509 0.0
H1501 H 0.50922 0.97885 0.30062 0.0
H1502 H 0.52646 0.9926 0.3237 0.0
H1503 H 0.46423 0.06604 0.32348 0.0
H1504 H 0.45245 0.05581 0.29935 0.0
H1505 H 0.50226 0.98846 0.3448 0.0
H1506 H 0.47048 0.11034 0.35293 0.0
H1507 H 0.46583 0.15838 0.34091 0.0
H1508 H 0.53114 0.13123 0.31163 0.0
H1509 H 0.53648 0.08263 0.32344 0.0
C1510 C 0.49278 0.04383 0.40709 0.0
C1511 C 0.51679 0.05956 0.41293 0.0
C1512 C 0.49261 0.03658 0.39305 0.0
C1513 C 0.51632 0.04517 0.38461 0.0
C1514 C 0.54084 0.0599 0.39051 0.0
C1515 C 0.54123 0.06678 0.40459 0.0
C1516 C 0.51422 0.04098 0.36946 0.0
C1517 C 0.51284 0.06631 0.36107 0.0
C1518 C 0.51072 0.01265 0.36346 0.0
C1519 C 0.51247 0.98507 0.37186 0.0
C1520 C 0.53754 0.97932 0.38025 0.0
C1521 C 0.53898 0.95341 0.38821 0.0
C1522 C 0.51556 0.93299 0.38782 0.0
C1523 C 0.49066 0.93841 0.37944 0.0
C1524 C 0.4891 0.9643 0.37145 0.0
C1525 C 0.50115 0.99922 0.30519 0.0
C1526 C 0.48124 0.01746 0.29795 0.0
C1527 C 0.51023 0.0067 0.31859 0.0
C1528 C 0.49732 0.03099 0.32555 0.0
C1529 C 0.4762 0.0484 0.31837 0.0
C1530 C 0.46905 0.04229 0.30457 0.0
C1531 C 0.50382 0.03574 0.3406 0.0
C1532 C 0.50553 0.0104 0.34919 0.0
C1533 C 0.50718 0.06431 0.34678 0.0
C1534 C 0.50384 0.09273 0.33907 0.0
C1535 C 0.48393 0.1145 0.3439 0.0
C1536 C 0.48114 0.14177 0.33711 0.0
C1537 C 0.49816 0.14766 0.32545 0.0
C1538 C 0.5179 0.12624 0.32056 0.0
C1539 C 0.52082 0.09884 0.32729 0.0
H1540 H 0.49614 0.16885 0.32022 0.0
H1541 H 0.51672 0.91294 0.394 0.0
H1542 H 0.05523 0.04067 0.64673 0.0
H1543 H 0.06197 0.03908 0.62162 0.0
H1544 H 0.12543 0.96801 0.6264 0.0
H1545 H 0.11861 0.96902 0.6515 0.0
H1546 H 0.13876 0.02527 0.60788 0.0
H1547 H 0.07115 0.94324 0.61749 0.0
H1548 H 0.02556 0.91724 0.62461 0.0
H1549 H 0.97341 0.97229 0.59737 0.0
H1550 H 0.01859 0.99903 0.5903 0.0
H1551 H 0.16415 0.95385 0.54395 0.0
H1552 H 0.15709 0.97161 0.56753 0.0
H1553 H 0.07058 0.00589 0.5561 0.0
H1554 H 0.07708 0.98711 0.53265 0.0
H1555 H 0.06537 0.9741 0.57761 0.0
H1556 H 0.13034 0.05274 0.56588 0.0
H1557 H 0.17501 0.07671 0.55635 0.0
H1558 H 0.23007 0.03016 0.5857 0.0
H1559 H 0.18577 0.00558 0.5953 0.0
C1560 C 0.0709 0.02493 0.64246 0.0
C1561 C 0.08648 0.00498 0.65111 0.0
C1562 C 0.07438 0.02384 0.62812 0.0
C1563 C 0.0937 0.00308 0.62221 0.0
C1564 C 0.11016 0.98398 0.63081 0.0
C1565 C 0.10632 0.98465 0.64513 0.0
C1566 C 0.09722 0.00152 0.60705 0.0
C1567 C 0.12282 0.01399 0.60122 0.0
C1568 C 0.07576 0.98784 0.59836 0.0
C1569 C 0.04828 0.97374 0.60366 0.0
C1570 C 0.04991 0.95039 0.6133 0.0
C1571 C 0.02414 0.93525 0.61721 0.0
C1572 C 0.99661 0.94305 0.61143 0.0
C1573 C 0.99474 0.9662 0.60182 0.0
C1574 C 0.02042 0.98146 0.59793 0.0
C1575 C 0.14385 0.96563 0.54639 0.0
C1576 C 0.12106 0.96884 0.53646 0.0
C1577 C 0.13991 0.976 0.55988 0.0
C1578 C 0.11335 0.99031 0.56362 0.0
C1579 C 0.09122 0.99485 0.5535 0.0
C1580 C 0.09496 0.98411 0.54009 0.0
C1581 C 0.10728 0.9973 0.57834 0.0
C1582 C 0.08112 0.98597 0.58414 0.0
C1583 C 0.12799 0.01237 0.58694 0.0
C1584 C 0.15473 0.02714 0.58124 0.0
C1585 C 0.152 0.04743 0.57024 0.0
C1586 C 0.17725 0.06117 0.56483 0.0
C1587 C 0.20536 0.05492 0.57039 0.0
C1588 C 0.20827 0.03497 0.5814 0.0
C1589 C 0.18309 0.02117 0.58684 0.0
H1590 H 0.22489 0.06557 0.56619 0.0
H1591 H 0.97673 0.93121 0.61443 0.0
H1592 H 0.71137 0.57232 0.88283 0.0
H1593 H 0.70899 0.55307 0.90629 0.0
H1594 H 0.61889 0.52346 0.89881 0.0
H1595 H 0.62073 0.54402 0.87541 0.0
H1596 H 0.6202 0.54984 0.92182 0.0
H1597 H 0.67931 0.47381 0.90274 0.0
H1598 H 0.72006 0.45158 0.88935 0.0
H1599 H 0.78433 0.49084 0.91692 0.0
H1600 H 0.744 0.51373 0.93035 0.0
H1601 H 0.68497 0.46435 0.98715 0.0
H1602 H 0.66481 0.467 0.96361 0.0
H1603 H 0.66446 0.56272 0.96598 0.0
H1604 H 0.68519 0.5601 0.98949 0.0
H1605 H 0.70103 0.49294 0.94486 0.0
H1606 H 0.60953 0.58658 0.9414 0.0
H1607 H 0.56009 0.59871 0.95073 0.0
H1608 H 0.55093 0.50934 0.9656 0.0
H1609 H 0.60042 0.49671 0.95655 0.0
C1610 C 0.6912 0.56128 0.88608 0.0
C1611 C 0.66621 0.55972 0.87727 0.0
C1612 C 0.6899 0.55013 0.89951 0.0
C1613 C 0.66386 0.53649 0.90432 0.0
C1614 C 0.63921 0.53394 0.89536 0.0
C1615 C 0.64033 0.54556 0.88197 0.0
C1616 C 0.66179 0.52697 0.91899 0.0
C1617 C 0.63785 0.53734 0.92687 0.0
C1618 C 0.68417 0.50961 0.92547 0.0
C1619 C 0.70858 0.49564 0.91751 0.0
C1620 C 0.70213 0.47786 0.90591 0.0
C1621 C 0.72516 0.46513 0.89831 0.0
C1622 C 0.75476 0.46983 0.90227 0.0
C1623 C 0.76139 0.48722 0.91386 0.0
C1624 C 0.73844 0.50005 0.92148 0.0
C1625 C 0.67947 0.48591 0.98282 0.0
C1626 C 0.6862 0.51201 0.99016 0.0
C1627 C 0.6679 0.4874 0.9694 0.0
C1628 C 0.66303 0.51505 0.96305 0.0
C1629 C 0.6675 0.54116 0.97077 0.0
C1630 C 0.6793 0.53967 0.98421 0.0
C1631 C 0.65996 0.51681 0.9478 0.0
C1632 C 0.6832 0.50521 0.93981 0.0
C1633 C 0.63639 0.53209 0.94115 0.0
C1634 C 0.60894 0.54084 0.94848 0.0
C1635 C 0.59722 0.56966 0.94691 0.0
C1636 C 0.56916 0.5766 0.95212 0.0
C1637 C 0.55254 0.55489 0.95888 0.0
C1638 C 0.56405 0.52626 0.96055 0.0
C1639 C 0.59224 0.51926 0.9555 0.0
H1640 H 0.5307 0.56023 0.9628 0.0
H1641 H 0.77256 0.45997 0.89637 0.0
H1642 H 0.64191 0.17836 0.11645 0.0
H1643 H 0.65941 0.18335 0.14029 0.0
H1644 H 0.59478 0.1185 0.15336 0.0
H1645 H 0.57742 0.11302 0.12948 0.0
H1646 H 0.62496 0.20501 0.15988 0.0
H1647 H 0.62118 0.08782 0.18545 0.0
H1648 H 0.62902 0.03543 0.17899 0.0
H1649 H 0.6865 0.06262 0.14613 0.0
H1650 H 0.67918 0.11516 0.15248 0.0
H1651 H 0.60775 0.20909 0.23293 0.0
H1652 H 0.60129 0.19276 0.20886 0.0
H1653 H 0.69562 0.17645 0.20617 0.0
H1654 H 0.70218 0.19347 0.23017 0.0
H1655 H 0.65501 0.12936 0.19461 0.0
H1656 H 0.67802 0.23391 0.19254 0.0
H1657 H 0.67297 0.28752 0.19735 0.0
H1658 H 0.58294 0.28577 0.18214 0.0
H1659 H 0.5873 0.23201 0.17744 0.0
C1660 C 0.63187 0.16462 0.12433 0.0
C1661 C 0.60807 0.14554 0.12108 0.0
C1662 C 0.64187 0.16754 0.13796 0.0
C1663 C 0.62832 0.15142 0.14862 0.0
C1664 C 0.60578 0.13095 0.1453 0.0
C1665 C 0.59584 0.12791 0.13163 0.0
C1666 C 0.63532 0.15875 0.16324 0.0
C1667 C 0.63162 0.18838 0.16743 0.0
C1668 C 0.64405 0.1371 0.17312 0.0
C1669 C 0.64907 0.10552 0.16929 0.0
C1670 C 0.63539 0.08264 0.17682 0.0
C1671 C 0.6398 0.05289 0.17319 0.0
C1672 C 0.65811 0.0457 0.1621 0.0
C1673 C 0.67216 0.06824 0.15466 0.0
C1674 C 0.6678 0.09803 0.15825 0.0
C1675 C 0.62696 0.20156 0.22722 0.0
C1676 C 0.65532 0.20163 0.23339 0.0
C1677 C 0.6233 0.19241 0.21352 0.0
C1678 C 0.64798 0.18325 0.20583 0.0
C1679 C 0.67632 0.18317 0.21202 0.0
C1680 C 0.68005 0.19288 0.22565 0.0
C1681 C 0.64434 0.17538 0.19109 0.0
C1682 C 0.64841 0.14577 0.18697 0.0
C1683 C 0.63616 0.197 0.18119 0.0
C1684 C 0.6329 0.22888 0.18477 0.0
C1685 C 0.65699 0.24484 0.19044 0.0
C1686 C 0.6543 0.27528 0.19308 0.0
C1687 C 0.62769 0.29003 0.19 0.0
C1688 C 0.60356 0.27431 0.18448 0.0
C1689 C 0.60612 0.24386 0.18184 0.0
H1690 H 0.62583 0.31369 0.1918 0.0
H1691 H 0.66151 0.02265 0.1593 0.0
H1692 H 0.04569 0.12169 0.37256 0.0
H1693 H 0.03705 0.13974 0.39608 0.0
H1694 H 0.95419 0.09123 0.39709 0.0
H1695 H 0.96186 0.07468 0.37356 0.0
H1696 H 0.9452 0.13931 0.40893 0.0
H1697 H 0.02456 0.06536 0.41533 0.0
H1698 H 0.07411 0.04368 0.4108 0.0
H1699 H 0.11547 0.12655 0.42178 0.0
H1700 H 0.06612 0.14858 0.42628 0.0
H1701 H 0.92988 0.09447 0.47889 0.0
H1702 H 0.94188 0.0964 0.45431 0.0
H1703 H 0.99354 0.17591 0.46111 0.0
H1704 H 0.98099 0.17464 0.48577 0.0
H1705 H 0.02158 0.1237 0.44554 0.0
H1706 H 0.93745 0.18963 0.44571 0.0
H1707 H 0.88623 0.20551 0.45087 0.0
H1708 H 0.85152 0.13101 0.42815 0.0
H1709 H 0.90253 0.11436 0.42305 0.0
C1710 C 0.02551 0.11517 0.37778 0.0
C1711 C 0.00454 0.09665 0.37119 0.0
C1712 C 0.02072 0.12524 0.3913 0.0
C1713 C 0.99522 0.1164 0.39856 0.0
C1714 C 0.97402 0.09851 0.39179 0.0
C1715 C 0.97849 0.08896 0.37827 0.0
C1716 C 0.99024 0.12523 0.41321 0.0
C1717 C 0.96194 0.13573 0.41691 0.0
C1718 C 0.01221 0.12158 0.42368 0.0
C1719 C 0.04177 0.10866 0.42084 0.0
C1720 C 0.04426 0.07894 0.41657 0.0
C1721 C 0.07225 0.0666 0.41407 0.0
C1722 C 0.09789 0.0838 0.4159 0.0
C1723 C 0.09558 0.1133 0.42031 0.0
C1724 C 0.06763 0.1257 0.42285 0.0
C1725 C 0.94373 0.11243 0.47517 0.0
C1726 C 0.95452 0.1344 0.48425 0.0
C1727 C 0.95044 0.11356 0.46113 0.0
C1728 C 0.96844 0.13637 0.45595 0.0
C1729 C 0.9795 0.15823 0.46496 0.0
C1730 C 0.97226 0.15749 0.47899 0.0
C1731 C 0.97632 0.13642 0.44116 0.0
C1732 C 0.00512 0.12774 0.43748 0.0
C1733 C 0.95458 0.14102 0.43075 0.0
C1734 C 0.92386 0.15065 0.43407 0.0
C1735 C 0.91892 0.17642 0.44195 0.0
C1736 C 0.88991 0.18561 0.44483 0.0
C1737 C 0.86565 0.1693 0.43982 0.0
C1738 C 0.87034 0.14365 0.432 0.0
C1739 C 0.89929 0.13434 0.4291 0.0
H1740 H 0.84321 0.17657 0.44194 0.0
H1741 H 0.11955 0.07421 0.41397 0.0
H1742 H 0.0665 0.45143 0.62587 0.0
H1743 H 0.04677 0.44212 0.64875 0.0
H1744 H 0.01575 0.53278 0.65103 0.0
H1745 H 0.03616 0.54253 0.62802 0.0
H1746 H 0.04528 0.51784 0.67401 0.0
H1747 H 0.96595 0.47487 0.6483 0.0
H1748 H 0.94188 0.44421 0.63029 0.0
H1749 H 0.97981 0.36538 0.64826 0.0
H1750 H 0.00449 0.39559 0.66627 0.0
H1751 H 0.98813 0.47476 0.74029 0.0
H1752 H 0.98381 0.49 0.71592 0.0
H1753 H 0.03844 0.41558 0.70404 0.0
H1754 H 0.04364 0.40094 0.7283 0.0
H1755 H 0.98596 0.42853 0.68603 0.0
H1756 H 0.07194 0.47329 0.70865 0.0
H1757 H 0.09465 0.50281 0.72737 0.0
H1758 H 0.04334 0.57895 0.71487 0.0
H1759 H 0.01926 0.54934 0.6964 0.0
C1760 C 0.05516 0.46937 0.63112 0.0
C1761 C 0.05296 0.49776 0.62512 0.0
C1762 C 0.04368 0.46393 0.6442 0.0
C1763 C 0.02941 0.48662 0.65156 0.0
C1764 C 0.02655 0.51489 0.6455 0.0
C1765 C 0.03812 0.5204 0.63235 0.0
C1766 C 0.01968 0.48102 0.66596 0.0
C1767 C 0.03159 0.49879 0.67659 0.0
C1768 C 0.00213 0.45593 0.66939 0.0
C1769 C 0.9872 0.43757 0.65861 0.0
C1770 C 0.96932 0.45102 0.64837 0.0
C1771 C 0.95554 0.43371 0.63816 0.0
C1772 C 0.95934 0.40287 0.63812 0.0
C1773 C 0.97688 0.38927 0.6483 0.0
C1774 C 0.99073 0.40648 0.65853 0.0
C1775 C 0.99878 0.46148 0.73242 0.0
C1776 C 0.01644 0.43689 0.73609 0.0
C1777 C 0.99627 0.47014 0.71856 0.0
C1778 C 0.01082 0.45387 0.70824 0.0
C1779 C 0.02697 0.42831 0.71186 0.0
C1780 C 0.03011 0.42012 0.72569 0.0
C1781 C 0.01211 0.46493 0.69388 0.0
C1782 C 0.99881 0.44808 0.68333 0.0
C1783 C 0.02829 0.49086 0.69051 0.0
C1784 C 0.04344 0.50897 0.70129 0.0
C1785 C 0.06522 0.49622 0.70998 0.0
C1786 C 0.07838 0.51299 0.72055 0.0
C1787 C 0.07048 0.54279 0.72231 0.0
C1788 C 0.04939 0.55585 0.71351 0.0
C1789 C 0.03588 0.53904 0.70302 0.0
H1790 H 0.08074 0.55576 0.73049 0.0
H1791 H 0.94866 0.38951 0.6302 0.0
H1792 H 0.59167 0.2032 0.42038 0.0
H1793 H 0.59679 0.21792 0.39611 0.0
H1794 H 0.51457 0.1732 0.3861 0.0
H1795 H 0.50878 0.1592 0.41037 0.0
H1796 H 0.57285 0.15337 0.37275 0.0
H1797 H 0.50955 0.238 0.38077 0.0
H1798 H 0.49425 0.28372 0.39283 0.0
H1799 H 0.57732 0.32506 0.38264 0.0
H1800 H 0.59331 0.27939 0.37069 0.0
H1801 H 0.58109 0.17373 0.30081 0.0
H1802 H 0.56185 0.17212 0.32431 0.0
H1803 H 0.6207 0.24363 0.33613 0.0
H1804 H 0.63944 0.2461 0.31253 0.0
H1805 H 0.57071 0.25074 0.34869 0.0
H1806 H 0.63566 0.16909 0.34107 0.0
H1807 H 0.65557 0.12351 0.33051 0.0
H1808 H 0.57726 0.07552 0.34229 0.0
H1809 H 0.5563 0.12114 0.35245 0.0
C1810 C 0.57417 0.19743 0.41309 0.0
C1811 C 0.54982 0.18012 0.41727 0.0
C1812 C 0.57713 0.20582 0.39925 0.0
C1813 C 0.55606 0.19659 0.38938 0.0
C1814 C 0.53092 0.18068 0.39363 0.0
C1815 C 0.52759 0.17286 0.40751 0.0
C1816 C 0.56249 0.19983 0.3745 0.0
C1817 C 0.57181 0.17448 0.36733 0.0
C1818 C 0.56231 0.22768 0.36778 0.0
C1819 C 0.55275 0.25514 0.37496 0.0
C1820 C 0.52469 0.25671 0.38123 0.0
C1821 C 0.51586 0.28265 0.38801 0.0
C1822 C 0.53483 0.30725 0.38853 0.0
C1823 C 0.56265 0.30597 0.38224 0.0
C1824 C 0.5716 0.28008 0.37545 0.0
C1825 C 0.58978 0.18932 0.30837 0.0
C1826 C 0.61206 0.20986 0.30482 0.0
C1827 C 0.57876 0.1883 0.32181 0.0
C1828 C 0.59021 0.2073 0.33208 0.0
C1829 C 0.61155 0.22866 0.32842 0.0
C1830 C 0.6223 0.23001 0.31491 0.0
C1831 C 0.58096 0.20406 0.34673 0.0
C1832 C 0.57139 0.22943 0.35394 0.0
C1833 C 0.58161 0.1762 0.35363 0.0
C1834 C 0.59402 0.14882 0.34723 0.0
C1835 C 0.62236 0.14901 0.34117 0.0
C1836 C 0.63387 0.12313 0.33526 0.0
C1837 C 0.61755 0.09671 0.3356 0.0
C1838 C 0.58973 0.09609 0.3419 0.0
C1839 C 0.57797 0.12199 0.34768 0.0
H1840 H 0.62657 0.07667 0.33108 0.0
H1841 H 0.52794 0.32731 0.39378 0.0
H1842 H 0.94795 0.02055 0.66735 0.0
H1843 H 0.93467 0.04008 0.64438 0.0
H1844 H 0.01013 0.99477 0.62713 0.0
H1845 H 0.02207 0.97348 0.64949 0.0
H1846 H 0.0105 0.05143 0.62078 0.0
H1847 H 0.93889 0.97279 0.61963 0.0
H1848 H 0.89672 0.94278 0.62779 0.0
H1849 H 0.83976 0.01933 0.62557 0.0
H1850 H 0.88175 0.04991 0.61754 0.0
H1851 H 0.98585 0.09857 0.55171 0.0
H1852 H 0.99421 0.06863 0.57246 0.0
H1853 H 0.91133 0.10075 0.58914 0.0
H1854 H 0.90181 0.12828 0.56773 0.0
H1855 H 0.91465 0.04686 0.59518 0.0
H1856 H 0.98851 0.12637 0.59853 0.0
H1857 H 0.03142 0.15582 0.59057 0.0
H1858 H 0.08487 0.07669 0.58904 0.0
H1859 H 0.04224 0.04685 0.59684 0.0
C1860 C 0.96081 0.01372 0.65849 0.0
C1861 C 0.98572 0.99513 0.66018 0.0
C1862 C 0.95331 0.02495 0.6454 0.0
C1863 C 0.97109 0.01829 0.63394 0.0
C1864 C 0.99548 0.99923 0.63565 0.0
C1865 C 0.00231 0.98716 0.64853 0.0
C1866 C 0.96624 0.03329 0.62046 0.0
C1867 C 0.98971 0.05006 0.61506 0.0
C1868 C 0.93885 0.03205 0.6132 0.0
C1869 C 0.91359 0.01371 0.61808 0.0
C1870 C 0.91746 0.98329 0.62097 0.0
C1871 C 0.89356 0.96616 0.62556 0.0
C1872 C 0.86559 0.97915 0.62723 0.0
C1873 C 0.86145 0.0093 0.62428 0.0
C1874 C 0.8853 0.02653 0.6197 0.0
C1875 C 0.96915 0.09851 0.5597 0.0
C1876 C 0.94258 0.11442 0.55793 0.0
C1877 C 0.97423 0.08198 0.57172 0.0
C1878 C 0.95358 0.08255 0.58254 0.0
C1879 C 0.92749 0.09955 0.58093 0.0
C1880 C 0.92209 0.1154 0.56875 0.0
C1881 C 0.95888 0.06553 0.59555 0.0
C1882 C 0.93554 0.04821 0.60085 0.0
C1883 C 0.98647 0.06624 0.60277 0.0
C1884 C 0.0121 0.08435 0.59814 0.0
C1885 C 0.00938 0.11527 0.59642 0.0
C1886 C 0.03366 0.13203 0.59195 0.0
C1887 C 0.06083 0.11814 0.58927 0.0
C1888 C 0.06381 0.08745 0.59109 0.0
C1889 C 0.0396 0.07061 0.59555 0.0
H1890 H 0.07958 0.13117 0.5858 0.0
H1891 H 0.8471 0.96585 0.63078 0.0
H1892 H 0.05757 0.49327 0.91269 0.0
H1893 H 0.05414 0.46629 0.89101 0.0
H1894 H 0.1459 0.43915 0.89543 0.0
H1895 H 0.14989 0.46772 0.9169 0.0
H1896 H 0.13926 0.45882 0.87154 0.0
H1897 H 0.08423 0.38825 0.8967 0.0
H1898 H 0.04655 0.36932 0.91283 0.0
H1899 H 0.97682 0.40394 0.88681 0.0
H1900 H 0.01407 0.42347 0.87061 0.0
H1901 H 0.05086 0.36739 0.81348 0.0
H1902 H 0.07547 0.37083 0.83606 0.0
H1903 H 0.09444 0.46343 0.82848 0.0
H1904 H 0.07109 0.4595 0.80559 0.0
H1905 H 0.05302 0.39959 0.85513 0.0
H1906 H 0.14113 0.49251 0.84866 0.0
H1907 H 0.18807 0.50419 0.83673 0.0
H1908 H 0.20215 0.41131 0.82898 0.0
H1909 H 0.15464 0.39927 0.84033 0.0
C1910 C 0.07688 0.48104 0.90924 0.0
C1911 C 0.10407 0.48276 0.91649 0.0
C1912 C 0.07483 0.46538 0.89682 0.0
C1913 C 0.09967 0.45035 0.89156 0.0
C1914 C 0.12642 0.45063 0.89922 0.0
C1915 C 0.12866 0.46684 0.91153 0.0
C1916 C 0.09848 0.43733 0.87742 0.0
C1917 C 0.12052 0.44557 0.868 0.0
C1918 C 0.07458 0.4193 0.8728 0.0
C1919 C 0.052 0.40745 0.88246 0.0
C1920 C 0.06086 0.39199 0.89445 0.0
C1921 C 0.03958 0.38113 0.9036 0.0
C1922 C 0.00931 0.38546 0.90085 0.0
C1923 C 1.00027 0.4006 0.88892 0.0
C1924 C 0.02147 0.41152 0.87974 0.0
C1925 C 0.06141 0.38812 0.81645 0.0
C1926 C 0.05942 0.41307 0.80779 0.0
C1927 C 0.07543 0.39013 0.82936 0.0
C1928 C 0.08689 0.41743 0.83409 0.0
C1929 C 0.08653 0.44194 0.82503 0.0
C1930 C 0.07298 0.43976 0.81196 0.0
C1931 C 0.09351 0.42174 0.84909 0.0
C1932 C 0.07217 0.4122 0.8587 0.0
C1933 C 0.11861 0.43766 0.85399 0.0
C1934 C 0.14418 0.4451 0.84513 0.0
C1935 C 0.15393 0.47471 0.84409 0.0
C1936 C 0.18061 0.48136 0.83747 0.0
C1937 C 0.19807 0.45849 0.83212 0.0
C1938 C 0.18848 0.429 0.83307 0.0
C1939 C 0.16145 0.42229 0.83939 0.0
H1940 H 0.21895 0.46361 0.82718 0.0
H1941 H 0.99287 0.37705 0.90796 0.0
H1942 H 0.69725 0.6537 0.16421 0.0
H1943 H 0.71954 0.6453 0.14166 0.0
H1944 H 0.73826 0.55441 0.15277 0.0
H1945 H 0.71579 0.56239 0.17537 0.0
H1946 H 0.78093 0.59824 0.13044 0.0
H1947 H 0.6849 0.54008 0.13842 0.0
H1948 H 0.63602 0.53914 0.1499 0.0
H1949 H 0.61607 0.62572 0.13354 0.0
H1950 H 0.6647 0.62705 0.12199 0.0
H1951 H 0.76614 0.52281 0.06456 0.0
H1952 H 0.77158 0.53877 0.08867 0.0
H1953 H 0.70447 0.60605 0.08198 0.0
H1954 H 0.69828 0.58959 0.05814 0.0
H1955 H 0.6903 0.57388 0.10296 0.0
H1956 H 0.78011 0.62223 0.08834 0.0
H1957 H 0.82953 0.62534 0.07758 0.0
H1958 H 0.86389 0.56153 0.10663 0.0
H1959 H 0.81455 0.55772 0.11745 0.0
C1960 C 0.70714 0.63222 0.16212 0.0
C1961 C 0.70414 0.60852 0.1715 0.0
C1962 C 0.7201 0.62756 0.14923 0.0
C1963 C 0.73052 0.59927 0.14559 0.0
C1964 C 0.73062 0.57648 0.15547 0.0
C1965 C 0.71752 0.58106 0.16836 0.0
C1966 C 0.73353 0.59177 0.13081 0.0
C1967 C 0.76133 0.59259 0.12437 0.0
C1968 C 0.70788 0.5849 0.12295 0.0
C1969 C 0.67823 0.58363 0.12938 0.0
C1970 C 0.66994 0.55883 0.13726 0.0
C1971 C 0.64234 0.55826 0.1438 0.0
C1972 C 0.62293 0.58238 0.14248 0.0
C1973 C 0.63107 0.60708 0.1346 0.0
C1974 C 0.65858 0.6077 0.128 0.0
C1975 C 0.75304 0.54142 0.06818 0.0
C1976 C 0.73154 0.55473 0.05952 0.0
C1977 C 0.75623 0.55059 0.08195 0.0
C1978 C 0.73838 0.57359 0.08718 0.0
C1979 C 0.71832 0.5881 0.07824 0.0
C1980 C 0.7148 0.57867 0.0646 0.0
C1981 C 0.73789 0.58046 0.1022 0.0
C1982 C 0.71025 0.57942 0.10882 0.0
C1983 C 0.76385 0.58711 0.11008 0.0
C1984 C 0.79355 0.58948 0.10362 0.0
C1985 C 0.79814 0.60868 0.09236 0.0
C1986 C 0.82615 0.6106 0.08626 0.0
C1987 C 0.84981 0.59359 0.09139 0.0
C1988 C 0.84553 0.57467 0.10266 0.0
C1989 C 0.81756 0.57265 0.10879 0.0
H1990 H 0.87148 0.5951 0.08666 0.0
H1991 H 0.60153 0.58182 0.14749 0.0
loop_
_geom_bond_atom_site_label_1
_geom_bond_atom_site_label_2
_geom_bond_distance
_geom_bond_site_symmetry_2
_ccdc_geom_bond_type
Mg0 O7 2.141 . S
Mg0 O8 2.032 1_545 S
Mg0 O9 2.048 1_455 S
Mg0 O12 2.141 1_455 S
C1 O2 1.313 . S
C1 O8 1.221 . S
O2 C1 1.313 . S
C3 O4 1.245 . S
C3 O12 1.289 . S
O4 C3 1.245 . S
C5 O6 1.245 . S
C5 O7 1.289 1_565 S
O6 C5 1.245 . S
O7 Mg0 2.141 . S
O7 C5 1.289 1_545 S
O8 Mg0 2.032 1_565 S
O8 C1 1.221 . S
O9 Mg0 2.048 1_655 S
O9 C10 1.195 . S
C10 O9 1.195 . S
C10 O11 1.346 . S
O11 C10 1.346 . S
O12 Mg0 2.141 1_655 S
O12 C3 1.289 . S
Mg13 O20 2.141 . S
Mg13 O21 2.048 . S
Mg13 O22 2.048 . S
Mg13 O25 2.141 . S
C14 O15 1.313 . S
C14 O21 1.195 . S
O15 C14 1.313 . S
C16 O17 1.245 . S
C16 O25 1.289 . S
O17 C16 1.245 . S
C18 O19 1.245 . S
C18 O20 1.289 . S
O19 C18 1.245 . S
O20 Mg13 2.141 . S
O20 C18 1.289 . S
O21 Mg13 2.048 . S
O21 C14 1.195 . S
O22 Mg13 2.048 . S
O22 C23 1.195 . S
C23 O22 1.195 . S
C23 O24 1.313 . S
O24 C23 1.313 . S
O25 Mg13 2.141 . S
O25 C16 1.289 . S
Mg26 O33 2.141 . S
Mg26 O34 2.048 . S
Mg26 O35 2.048 . S
Mg26 O38 2.141 . S
C27 O28 1.313 . S
C27 O34 1.195 . S
O28 C27 1.313 . S
C29 O30 1.245 . S
C29 O38 1.289 . S
O30 C29 1.245 . S
C31 O32 1.245 . S
C31 O33 1.289 . S
O32 C31 1.245 . S
O33 Mg26 2.141 . S
O33 C31 1.289 . S
O34 Mg26 2.048 . S
O34 C27 1.195 . S
O35 Mg26 2.048 . S
O35 C36 1.195 . S
C36 O35 1.195 . S
C36 O37 1.313 . S
O37 C36 1.313 . S
O38 Mg26 2.141 . S
O38 C29 1.289 . S
Mg39 O46 2.141 . S
Mg39 O47 2.048 . S
Mg39 O48 2.048 . S
Mg39 O51 2.141 . S
C40 O41 1.313 . S
C40 O47 1.195 . S
O41 C40 1.313 . S
C42 O43 1.245 . S
C42 O51 1.289 . S
O43 C42 1.245 . S
C44 O45 1.245 . S
C44 O46 1.289 . S
O45 C44 1.245 . S
O46 Mg39 2.141 . S
O46 C44 1.289 . S
O47 Mg39 2.048 . S
O47 C40 1.195 . S
O48 Mg39 2.048 . S
O48 C49 1.195 . S
C49 O48 1.195 . S
C49 O50 1.313 . S
O50 C49 1.313 . S
O51 Mg39 2.141 . S
O51 C42 1.289 . S
Mg52 O59 2.141 . S
Mg52 O60 2.048 . S
Mg52 O61 2.048 . S
Mg52 O64 2.141 . S
C53 O54 1.313 . S
C53 O60 1.195 . S
O54 C53 1.313 . S
C55 O56 1.245 . S
C55 O64 1.289 . S
O56 C55 1.245 . S
C57 O58 1.245 . S
C57 O59 1.289 . S
O58 C57 1.245 . S
O59 Mg52 2.141 . S
O59 C57 1.289 . S
O60 Mg52 2.048 . S
O60 C53 1.195 . S
O61 Mg52 2.048 . S
O61 C62 1.195 . S
C62 O61 1.195 . S
C62 O63 1.313 . S
O63 C62 1.313 . S
O64 Mg52 2.141 . S
O64 C55 1.289 . S
Mg65 O72 2.141 . S
Mg65 O73 2.048 . S
Mg65 O74 2.048 . S
Mg65 O77 2.141 . S
C66 O67 1.313 . S
C66 O73 1.195 . S
O67 C66 1.313 . S
C68 O69 1.245 . S
C68 O77 1.289 . S
O69 C68 1.245 . S
C70 O71 1.245 . S
C70 O72 1.289 . S
O71 C70 1.245 . S
O72 Mg65 2.141 . S
O72 C70 1.289 . S
O73 Mg65 2.048 . S
O73 C66 1.195 . S
O74 Mg65 2.048 . S
O74 C75 1.195 . S
C75 O74 1.195 . S
C75 O76 1.313 . S
O76 C75 1.313 . S
O77 Mg65 2.141 . S
O77 C68 1.289 . S
Mg78 O85 2.141 . S
Mg78 O86 2.048 . S
Mg78 O87 2.048 . S
Mg78 O90 2.141 . S
C79 O80 1.313 . S
C79 O86 1.195 . S
O80 C79 1.313 . S
C81 O82 1.245 . S
C81 O90 1.289 . S
O82 C81 1.245 . S
C83 O84 1.245 . S
C83 O85 1.289 . S
O84 C83 1.245 . S
O85 Mg78 2.141 . S
O85 C83 1.289 . S
O86 Mg78 2.048 . S
O86 C79 1.195 . S
O87 Mg78 2.048 . S
O87 C88 1.195 . S
C88 O87 1.195 . S
C88 O89 1.313 . S
O89 C88 1.313 . S
O90 Mg78 2.141 . S
O90 C81 1.289 . S
Mg91 O98 2.141 . S
Mg91 O99 2.048 . S
Mg91 O100 2.048 1_465 S
Mg91 O103 2.141 1_465 S
C92 O93 1.313 . S
C92 O99 1.195 . S
O93 C92 1.313 . S
C94 O95 1.245 1_655 S
C94 O103 1.289 . S
O95 C94 1.245 1_455 S
C96 O97 1.245 . S
C96 O98 1.289 . S
O97 C96 1.245 . S
O98 Mg91 2.141 . S
O98 C96 1.289 . S
O99 Mg91 2.048 . S
O99 C92 1.195 . S
O100 Mg91 2.048 1_645 S
O100 C101 1.195 . S
C101 O100 1.195 . S
C101 O102 1.313 1_655 S
O102 C101 1.313 1_455 S
O103 Mg91 2.141 1_645 S
O103 C94 1.289 . S
Mn104 O109 2.095 1_554 S
Mn104 O119 2.162 . S
Mn104 O120 2.297 . S
Mn104 O128 2.385 . S
Mn104 O129 2.209 . S
Mn104 O130 2.094 . S
Mn105 O110 2.121 1_554 S
Mn105 N112 2.257 . S
Mn105 N121 2.282 . S
Mn105 O129 2.215 . S
Mn105 O131 2.123 . S
C106 O128 1.234 . S
C106 O129 1.283 . S
C107 O119 1.281 . S
C107 O120 1.236 . S
C108 O130 1.240 . S
C108 O131 1.263 . S
O109 Mn104 2.095 1_556 S
O109 C118 1.250 . S
O110 Mn105 2.121 1_556 S
O110 C118 1.258 . S
C111 N112 1.326 . S
C111 C115 1.460 . S
C111 H117 0.929 1_554 S
N112 Mn105 2.257 . S
N112 C111 1.326 . S
N112 C116 1.362 . S
C113 C114 1.258 . S
C113 C116 1.431 . S
C113 C133 1.449 . S
C114 C113 1.258 . S
C114 C115 1.477 . S
C114 H134 0.931 . S
C115 C111 1.460 . S
C115 C114 1.477 . S
C115 H135 0.930 . S
C116 N112 1.362 . S
C116 C113 1.431 . S
C116 C126 1.476 . S
H117 C111 0.929 1_556 S
C118 O109 1.250 . S
C118 O110 1.258 . S
O119 Mn104 2.162 . S
O119 C107 1.281 . S
O120 Mn104 2.297 . S
O120 C107 1.236 . S
N121 Mn105 2.282 . S
N121 C122 1.328 . S
N121 C126 1.318 . S
C122 N121 1.328 . S
C122 C123 1.457 . S
C122 H127 0.929 . S
C123 C122 1.457 . S
C123 C124 1.291 . S
C123 H136 0.931 . S
C124 C123 1.291 . S
C124 C125 1.373 . S
C124 H137 0.929 . S
C125 C124 1.373 . S
C125 C126 1.396 . S
C125 C132 1.403 . S
C126 C116 1.476 . S
C126 N121 1.318 . S
C126 C125 1.396 . S
H127 C122 0.929 . S
O128 Mn104 2.385 . S
O128 C106 1.234 . S
O129 Mn104 2.209 . S
O129 Mn105 2.215 . S
O129 C106 1.283 . S
O130 Mn104 2.094 . S
O130 C108 1.240 . S
O131 Mn105 2.123 . S
O131 C108 1.263 . S
C132 C125 1.403 . S
C132 C133 1.399 . S
C132 H138 0.929 . S
C133 C113 1.449 . S
C133 C132 1.399 . S
C133 H139 0.930 . S
H134 C114 0.931 . S
H135 C115 0.930 . S
H136 C123 0.931 . S
H137 C124 0.929 . S
H138 C132 0.929 . S
H139 C133 0.930 . S
Mn140 O145 2.095 . S
Mn140 O155 2.162 . S
Mn140 O156 2.297 . S
Mn140 O164 2.385 . S
Mn140 O165 2.209 . S
Mn140 O166 2.094 . S
Mn141 O146 2.121 . S
Mn141 N148 2.238 1_565 S
Mn141 N157 2.282 . S
Mn141 O165 2.215 . S
Mn141 O167 2.117 . S
C142 O164 1.234 . S
C142 O165 1.283 . S
C143 O155 1.281 . S
C143 O156 1.236 . S
C144 O166 1.240 . S
C144 O167 1.264 . S
O145 Mn140 2.095 . S
O145 C154 1.250 . S
O146 Mn141 2.121 . S
O146 C154 1.258 . S
C147 N148 1.346 . S
C147 C151 1.460 . S
C147 H153 0.929 . S
N148 Mn141 2.238 1_545 S
N148 C147 1.346 . S
N148 C152 1.361 1_545 S
C149 C150 1.258 . S
C149 C152 1.431 1_545 S
C149 C169 1.449 . S
C150 C149 1.258 . S
C150 C151 1.477 . S
C150 H170 0.931 . S
C151 C147 1.460 . S
C151 C150 1.477 . S
C151 H171 0.930 . S
C152 N148 1.361 1_565 S
C152 C149 1.431 1_565 S
C152 C162 1.476 . S
H153 C147 0.929 . S
C154 O145 1.250 . S
C154 O146 1.258 . S
O155 Mn140 2.162 . S
O155 C143 1.281 . S
O156 Mn140 2.297 . S
O156 C143 1.236 . S
N157 Mn141 2.282 . S
N157 C158 1.328 . S
N157 C162 1.318 . S
C158 N157 1.328 . S
C158 C159 1.457 . S
C158 H163 0.929 . S
C159 C158 1.457 . S
C159 C160 1.291 . S
C159 H172 0.931 . S
C160 C159 1.291 . S
C160 C161 1.373 . S
C160 H173 0.929 . S
C161 C160 1.373 . S
C161 C162 1.396 . S
C161 C168 1.403 . S
C162 C152 1.476 . S
C162 N157 1.318 . S
C162 C161 1.396 . S
H163 C158 0.929 . S
O164 Mn140 2.385 . S
O164 C142 1.234 . S
O165 Mn140 2.209 . S
O165 Mn141 2.215 . S
O165 C142 1.283 . S
O166 Mn140 2.094 . S
O166 C144 1.240 . S
O167 Mn141 2.117 . S
O167 C144 1.264 . S
C168 C161 1.403 . S
C168 C169 1.399 1_565 S
C168 H174 0.929 . S
C169 C149 1.449 . S
C169 C168 1.399 1_545 S
C169 H175 0.930 . S
H170 C150 0.931 . S
H171 C151 0.930 . S
H172 C159 0.931 . S
H173 C160 0.929 . S
H174 C168 0.929 . S
H175 C169 0.930 . S
Mn176 O181 2.095 . S
Mn176 O191 2.162 . S
Mn176 O192 2.297 . S
Mn176 O200 2.385 . S
Mn176 O201 2.209 . S
Mn176 O202 2.094 . S
Mn177 O182 2.121 . S
Mn177 N184 2.257 . S
Mn177 N193 2.282 . S
Mn177 O201 2.215 . S
Mn177 O203 2.117 . S
C178 O200 1.234 . S
C178 O201 1.283 . S
C179 O191 1.281 . S
C179 O192 1.236 . S
C180 O202 1.240 . S
C180 O203 1.264 . S
O181 Mn176 2.095 . S
O181 C190 1.250 . S
O182 Mn177 2.121 . S
O182 C190 1.258 . S
C183 N184 1.326 . S
C183 C187 1.460 . S
C183 H189 0.929 . S
N184 Mn177 2.257 . S
N184 C183 1.326 . S
N184 C188 1.362 . S
C185 C186 1.258 . S
C185 C188 1.431 . S
C185 C205 1.449 . S
C186 C185 1.258 . S
C186 C187 1.477 . S
C186 H206 0.931 . S
C187 C183 1.460 . S
C187 C186 1.477 . S
C187 H207 0.930 . S
C188 N184 1.362 . S
C188 C185 1.431 . S
C188 C198 1.476 . S
H189 C183 0.929 . S
C190 O181 1.250 . S
C190 O182 1.258 . S
O191 Mn176 2.162 . S
O191 C179 1.281 . S
O192 Mn176 2.297 . S
O192 C179 1.236 . S
N193 Mn177 2.282 . S
N193 C194 1.328 . S
N193 C198 1.318 . S
C194 N193 1.328 . S
C194 C195 1.457 . S
C194 H199 0.929 . S
C195 C194 1.457 . S
C195 C196 1.291 . S
C195 H208 0.931 . S
C196 C195 1.291 . S
C196 C197 1.373 . S
C196 H209 0.929 . S
C197 C196 1.373 . S
C197 C198 1.396 . S
C197 C204 1.403 . S
C198 C188 1.476 . S
C198 N193 1.318 . S
C198 C197 1.396 . S
H199 C194 0.929 . S
O200 Mn176 2.385 . S
O200 C178 1.234 . S
O201 Mn176 2.209 . S
O201 Mn177 2.215 . S
O201 C178 1.283 . S
O202 Mn176 2.094 . S
O202 C180 1.240 . S
O203 Mn177 2.117 . S
O203 C180 1.264 . S
C204 C197 1.403 . S
C204 C205 1.399 . S
C204 H210 0.929 . S
C205 C185 1.449 . S
C205 C204 1.399 . S
C205 H211 0.930 . S
H206 C186 0.931 . S
H207 C187 0.930 . S
H208 C195 0.931 . S
H209 C196 0.929 . S
H210 C204 0.929 . S
H211 C205 0.930 . S
Mn212 O217 2.095 . S
Mn212 O227 2.162 . S
Mn212 O228 2.297 . S
Mn212 O236 2.385 . S
Mn212 O237 2.209 . S
Mn212 O238 2.094 . S
Mn213 O218 2.121 . S
Mn213 N220 2.257 . S
Mn213 N229 2.282 . S
Mn213 O237 2.215 . S
Mn213 O239 2.117 . S
C214 O236 1.234 . S
C214 O237 1.283 . S
C215 O227 1.281 . S
C215 O228 1.236 . S
C216 O238 1.240 . S
C216 O239 1.264 . S
O217 Mn212 2.095 . S
O217 C226 1.250 . S
O218 Mn213 2.121 . S
O218 C226 1.258 . S
C219 N220 1.326 . S
C219 C223 1.460 . S
C219 H225 0.929 . S
N220 Mn213 2.257 . S
N220 C219 1.326 . S
N220 C224 1.362 . S
C221 C222 1.258 . S
C221 C224 1.431 . S
C221 C241 1.449 . S
C222 C221 1.258 . S
C222 C223 1.477 . S
C222 H242 0.931 . S
C223 C219 1.460 . S
C223 C222 1.477 . S
C223 H243 0.930 . S
C224 N220 1.362 . S
C224 C221 1.431 . S
C224 C234 1.476 . S
H225 C219 0.929 . S
C226 O217 1.250 . S
C226 O218 1.258 . S
O227 Mn212 2.162 . S
O227 C215 1.281 . S
O228 Mn212 2.297 . S
O228 C215 1.236 . S
N229 Mn213 2.282 . S
N229 C230 1.328 . S
N229 C234 1.318 . S
C230 N229 1.328 . S
C230 C231 1.457 . S
C230 H235 0.929 . S
C231 C230 1.457 . S
C231 C232 1.291 . S
C231 H244 0.931 . S
C232 C231 1.291 . S
C232 C233 1.373 . S
C232 H245 0.929 . S
C233 C232 1.373 . S
C233 C234 1.396 . S
C233 C240 1.403 . S
C234 C224 1.476 . S
C234 N229 1.318 . S
C234 C233 1.396 . S
H235 C230 0.929 . S
O236 Mn212 2.385 . S
O236 C214 1.234 . S
O237 Mn212 2.209 . S
O237 Mn213 2.215 . S
O237 C214 1.283 . S
O238 Mn212 2.094 . S
O238 C216 1.240 . S
O239 Mn213 2.117 . S
O239 C216 1.264 . S
C240 C233 1.403 . S
C240 C241 1.399 . S
C240 H246 0.929 . S
C241 C221 1.449 . S
C241 C240 1.399 . S
C241 H247 0.930 . S
H242 C222 0.931 . S
H243 C223 0.930 . S
H244 C231 0.931 . S
H245 C232 0.929 . S
H246 C240 0.929 . S
H247 C241 0.930 . S
Mn248 O253 2.095 . S
Mn248 O263 2.162 . S
Mn248 O264 2.297 . S
Mn248 O272 2.385 . S
Mn248 O273 2.209 . S
Mn248 O274 2.094 . S
Mn249 O254 2.121 . S
Mn249 N256 2.257 . S
Mn249 N265 2.282 . S
Mn249 O273 2.215 . S
Mn249 O275 2.117 . S
C250 O272 1.234 . S
C250 O273 1.283 . S
C251 O263 1.281 . S
C251 O264 1.236 . S
C252 O274 1.240 . S
C252 O275 1.264 . S
O253 Mn248 2.095 . S
O253 C262 1.250 . S
O254 Mn249 2.121 . S
O254 C262 1.258 . S
C255 N256 1.326 . S
C255 C259 1.460 . S
C255 H261 0.929 . S
N256 Mn249 2.257 . S
N256 C255 1.326 . S
N256 C260 1.362 . S
C257 C258 1.258 . S
C257 C260 1.431 . S
C257 C277 1.449 . S
C258 C257 1.258 . S
C258 C259 1.477 . S
C258 H278 0.931 . S
C259 C255 1.460 . S
C259 C258 1.477 . S
C259 H279 0.930 . S
C260 N256 1.362 . S
C260 C257 1.431 . S
C260 C270 1.476 . S
H261 C255 0.929 . S
C262 O253 1.250 . S
C262 O254 1.258 . S
O263 Mn248 2.162 . S
O263 C251 1.281 . S
O264 Mn248 2.297 . S
O264 C251 1.236 . S
N265 Mn249 2.282 . S
N265 C266 1.328 . S
N265 C270 1.318 . S
C266 N265 1.328 . S
C266 C267 1.457 . S
C266 H271 0.929 . S
C267 C266 1.457 . S
C267 C268 1.291 . S
C267 H280 0.931 . S
C268 C267 1.291 . S
C268 C269 1.373 . S
C268 H281 0.929 . S
C269 C268 1.373 . S
C269 C270 1.396 . S
C269 C276 1.403 . S
C270 C260 1.476 . S
C270 N265 1.318 . S
C270 C269 1.396 . S
H271 C266 0.929 . S
O272 Mn248 2.385 . S
O272 C250 1.234 . S
O273 Mn248 2.209 . S
O273 Mn249 2.215 . S
O273 C250 1.283 . S
O274 Mn248 2.094 . S
O274 C252 1.240 . S
O275 Mn249 2.117 . S
O275 C252 1.264 . S
C276 C269 1.403 . S
C276 C277 1.399 . S
C276 H282 0.929 . S
C277 C257 1.449 . S
C277 C276 1.399 . S
C277 H283 0.930 . S
H278 C258 0.931 . S
H279 C259 0.930 . S
H280 C267 0.931 . S
H281 C268 0.929 . S
H282 C276 0.929 . S
H283 C277 0.930 . S
Mn284 O289 2.095 . S
Mn284 O299 2.162 . S
Mn284 O300 2.297 . S
Mn284 O308 2.385 . S
Mn284 O309 2.209 . S
Mn284 O310 2.094 . S
Mn285 O290 2.121 1_455 S
Mn285 N292 2.257 . S
Mn285 N301 2.282 . S
Mn285 O309 2.215 1_455 S
Mn285 O311 2.117 1_455 S
C286 O308 1.234 . S
C286 O309 1.283 . S
C287 O299 1.281 . S
C287 O300 1.236 . S
C288 O310 1.240 . S
C288 O311 1.264 . S
O289 Mn284 2.095 . S
O289 C298 1.250 . S
O290 Mn285 2.121 1_655 S
O290 C298 1.258 . S
C291 N292 1.326 . S
C291 C295 1.460 . S
C291 H297 0.929 . S
N292 Mn285 2.257 . S
N292 C291 1.326 . S
N292 C296 1.362 . S
C293 C294 1.258 . S
C293 C296 1.431 . S
C293 C313 1.449 . S
C294 C293 1.258 . S
C294 C295 1.477 . S
C294 H314 0.931 . S
C295 C291 1.460 . S
C295 C294 1.477 . S
C295 H315 0.930 . S
C296 N292 1.362 . S
C296 C293 1.431 . S
C296 C306 1.476 . S
H297 C291 0.929 . S
C298 O289 1.250 . S
C298 O290 1.258 . S
O299 Mn284 2.162 . S
O299 C287 1.281 . S
O300 Mn284 2.297 . S
O300 C287 1.236 . S
N301 Mn285 2.282 . S
N301 C302 1.328 . S
N301 C306 1.318 . S
C302 N301 1.328 . S
C302 C303 1.457 . S
C302 H307 0.929 1_455 S
C303 C302 1.457 . S
C303 C304 1.291 . S
C303 H316 0.931 . S
C304 C303 1.291 . S
C304 C305 1.373 . S
C304 H317 0.929 . S
C305 C304 1.373 . S
C305 C306 1.396 . S
C305 C312 1.403 . S
C306 C296 1.476 . S
C306 N301 1.318 . S
C306 C305 1.396 . S
H307 C302 0.929 1_655 S
O308 Mn284 2.385 . S
O308 C286 1.234 . S
O309 Mn284 2.209 . S
O309 Mn285 2.215 1_655 S
O309 C286 1.283 . S
O310 Mn284 2.094 . S
O310 C288 1.240 . S
O311 Mn285 2.117 1_655 S
O311 C288 1.264 . S
C312 C305 1.403 . S
C312 C313 1.399 . S
C312 H318 0.929 . S
C313 C293 1.449 . S
C313 C312 1.399 . S
C313 H319 0.930 . S
H314 C294 0.931 . S
H315 C295 0.930 . S
H316 C303 0.931 . S
H317 C304 0.929 . S
H318 C312 0.929 . S
H319 C313 0.930 . S
Mn320 O325 2.095 . S
Mn320 O335 2.162 . S
Mn320 O336 2.297 . S
Mn320 O344 2.304 1_554 S
Mn320 O345 2.209 . S
Mn320 O346 2.094 . S
Mn321 O326 2.121 . S
Mn321 N328 2.257 . S
Mn321 N337 2.282 . S
Mn321 O345 2.215 . S
Mn321 O347 2.117 . S
C322 O344 1.221 1_554 S
C322 O345 1.283 . S
C323 O335 1.281 . S
C323 O336 1.236 . S
C324 O346 1.240 . S
C324 O347 1.264 . S
O325 Mn320 2.095 . S
O325 C334 1.250 . S
O326 Mn321 2.121 . S
O326 C334 1.258 . S
C327 N328 1.326 . S
C327 C331 1.460 . S
C327 H333 0.929 . S
N328 Mn321 2.257 . S
N328 C327 1.326 . S
N328 C332 1.362 . S
C329 C330 1.258 . S
C329 C332 1.431 . S
C329 C349 1.449 1_554 S
C330 C329 1.258 . S
C330 C331 1.477 . S
C330 H350 0.931 . S
C331 C327 1.460 . S
C331 C330 1.477 . S
C331 H351 0.930 . S
C332 N328 1.362 . S
C332 C329 1.431 . S
C332 C342 1.476 . S
H333 C327 0.929 . S
C334 O325 1.250 . S
C334 O326 1.258 . S
O335 Mn320 2.162 . S
O335 C323 1.281 . S
O336 Mn320 2.297 . S
O336 C323 1.236 . S
N337 Mn321 2.282 . S
N337 C338 1.328 . S
N337 C342 1.318 . S
C338 N337 1.328 . S
C338 C339 1.457 1_554 S
C338 H343 0.929 . S
C339 C338 1.457 1_556 S
C339 C340 1.291 . S
C339 H352 0.931 . S
C340 C339 1.291 . S
C340 C341 1.373 . S
C340 H353 0.929 . S
C341 C340 1.373 . S
C341 C342 1.396 1_556 S
C341 C348 1.403 . S
C342 C332 1.476 . S
C342 N337 1.318 . S
C342 C341 1.396 1_554 S
H343 C338 0.929 . S
O344 Mn320 2.304 1_556 S
O344 C322 1.221 1_556 S
O345 Mn320 2.209 . S
O345 Mn321 2.215 . S
O345 C322 1.283 . S
O346 Mn320 2.094 . S
O346 C324 1.240 . S
O347 Mn321 2.117 . S
O347 C324 1.264 . S
C348 C341 1.403 . S
C348 C349 1.399 . S
C348 H354 0.929 . S
C349 C329 1.449 1_556 S
C349 C348 1.399 . S
C349 H355 0.930 . S
H350 C330 0.931 . S
H351 C331 0.930 . S
H352 C339 0.931 . S
H353 C340 0.929 . S
H354 C348 0.929 . S
H355 C349 0.930 . S
Mn356 O361 2.095 . S
Mn356 O371 2.162 . S
Mn356 O372 2.297 . S
Mn356 O380 2.385 . S
Mn356 O381 2.209 . S
Mn356 O382 2.094 . S
Mn357 O362 2.121 . S
Mn357 N364 2.257 . S
Mn357 N373 2.282 . S
Mn357 O381 2.215 . S
Mn357 O383 2.117 . S
C358 O380 1.234 . S
C358 O381 1.283 . S
C359 O371 1.281 . S
C359 O372 1.236 . S
C360 O382 1.240 . S
C360 O383 1.264 . S
O361 Mn356 2.095 . S
O361 C370 1.250 . S
O362 Mn357 2.121 . S
O362 C370 1.258 . S
C363 N364 1.326 . S
C363 C367 1.460 . S
C363 H369 0.929 . S
N364 Mn357 2.257 . S
N364 C363 1.326 . S
N364 C368 1.362 . S
C365 C366 1.258 . S
C365 C368 1.431 . S
C365 C385 1.449 . S
C366 C365 1.258 . S
C366 C367 1.477 . S
C366 H386 0.931 . S
C367 C363 1.460 . S
C367 C366 1.477 . S
C367 H387 0.930 . S
C368 N364 1.362 . S
C368 C365 1.431 . S
C368 C378 1.476 . S
H369 C363 0.929 . S
C370 O361 1.250 . S
C370 O362 1.258 . S
O371 Mn356 2.162 . S
O371 C359 1.281 . S
O372 Mn356 2.297 . S
O372 C359 1.236 . S
N373 Mn357 2.282 . S
N373 C374 1.328 . S
N373 C378 1.318 . S
C374 N373 1.328 . S
C374 C375 1.457 . S
C374 H379 0.929 . S
C375 C374 1.457 . S
C375 C376 1.291 . S
C375 H388 0.931 . S
C376 C375 1.291 . S
C376 C377 1.373 . S
C376 H389 0.929 . S
C377 C376 1.373 . S
C377 C378 1.396 . S
C377 C384 1.403 . S
C378 C368 1.476 . S
C378 N373 1.318 . S
C378 C377 1.396 . S
H379 C374 0.929 . S
O380 Mn356 2.385 . S
O380 C358 1.234 . S
O381 Mn356 2.209 . S
O381 Mn357 2.215 . S
O381 C358 1.283 . S
O382 Mn356 2.094 . S
O382 C360 1.240 . S
O383 Mn357 2.117 . S
O383 C360 1.264 . S
C384 C377 1.403 . S
C384 C385 1.399 . S
C384 H390 0.929 . S
C385 C365 1.449 . S
C385 C384 1.399 . S
C385 H391 0.930 . S
H386 C366 0.931 . S
H387 C367 0.930 . S
H388 C375 0.931 . S
H389 C376 0.929 . S
H390 C384 0.929 . S
H391 C385 0.930 . S
H392 C410 0.951 . S
H393 C412 0.951 . S
H394 C414 0.950 . S
H395 C415 0.950 . S
H396 C417 0.950 . S
H397 C420 0.950 . S
H398 C421 0.950 . S
H399 C423 0.950 . S
H400 C424 0.950 . S
H401 C425 0.951 . S
H402 C427 0.951 . S
H403 C429 0.950 . S
H404 C430 0.950 . S
H405 C432 0.950 . S
H406 C435 0.950 . S
H407 C436 0.950 . S
H408 C438 0.950 . S
H409 C439 0.950 . S
C410 H392 0.951 . S
C410 C411 1.366 . S
C410 C412 1.388 . S
C411 C410 1.366 . S
C411 C415 1.385 . S
C412 H393 0.951 . S
C412 C410 1.388 . S
C412 C413 1.366 . S
C413 C412 1.366 . S
C413 C414 1.414 . S
C413 C416 1.499 . S
C414 H394 0.950 . S
C414 C413 1.414 . S
C414 C415 1.374 . S
C415 H395 0.950 . S
C415 C411 1.385 . S
C415 C414 1.374 . S
C416 C413 1.499 . S
C416 C417 1.373 . S
C416 C418 1.389 . S
C417 H396 0.950 . S
C417 C416 1.373 . S
C417 C433 1.377 . S
C418 C416 1.389 . S
C418 C419 1.524 1_565 S
C418 C432 1.377 . S
C419 C418 1.524 1_545 S
C419 C420 1.397 . S
C419 C424 1.363 . S
C420 H397 0.950 . S
C420 C419 1.397 . S
C420 C421 1.334 . S
C421 H398 0.950 . S
C421 C420 1.334 . S
C421 C422 1.287 . S
C422 C421 1.287 . S
C422 C423 1.524 . S
C422 H441 0.913 . S
C423 H399 0.950 . S
C423 C422 1.524 . S
C423 C424 1.415 . S
C424 H400 0.950 . S
C424 C419 1.363 . S
C424 C423 1.415 . S
C425 H401 0.951 . S
C425 C426 1.366 . S
C425 C427 1.388 . S
C426 C425 1.366 . S
C426 C430 1.385 . S
C427 H402 0.951 . S
C427 C425 1.388 . S
C427 C428 1.366 . S
C428 C427 1.366 . S
C428 C429 1.414 . S
C428 C431 1.499 . S
C429 H403 0.950 . S
C429 C428 1.414 . S
C429 C430 1.374 . S
C430 H404 0.950 . S
C430 C426 1.385 . S
C430 C429 1.374 . S
C431 C428 1.499 . S
C431 C432 1.373 . S
C431 C433 1.389 . S
C432 H405 0.950 . S
C432 C418 1.377 . S
C432 C431 1.373 . S
C433 C417 1.377 . S
C433 C431 1.389 . S
C433 C434 1.524 . S
C434 C433 1.524 . S
C434 C435 1.397 . S
C434 C439 1.363 . S
C435 H406 0.950 . S
C435 C434 1.397 . S
C435 C436 1.334 . S
C436 H407 0.950 . S
C436 C435 1.334 . S
C436 C437 1.287 . S
C437 C436 1.287 . S
C437 C438 1.524 . S
C437 H440 0.999 . S
C438 H408 0.950 . S
C438 C437 1.524 . S
C438 C439 1.415 . S
C439 H409 0.950 . S
C439 C434 1.363 . S
C439 C438 1.415 . S
H440 C437 0.999 . S
H441 C422 0.913 . S
H442 C460 0.951 . S
H443 C462 0.951 . S
H444 C464 0.950 . S
H445 C465 0.950 . S
H446 C467 0.950 . S
H447 C470 0.950 . S
H448 C471 0.950 . S
H449 C473 0.950 . S
H450 C474 0.950 . S
H451 C475 0.951 . S
H452 C477 0.951 . S
H453 C479 0.950 . S
H454 C480 0.950 . S
H455 C482 0.950 . S
H456 C485 0.950 . S
H457 C486 0.950 . S
H458 C488 0.950 . S
H459 C489 0.950 . S
C460 H442 0.951 . S
C460 C461 1.366 . S
C460 C462 1.388 . S
C461 C460 1.366 . S
C461 C465 1.385 . S
C462 H443 0.951 . S
C462 C460 1.388 . S
C462 C463 1.366 . S
C463 C462 1.366 . S
C463 C464 1.414 . S
C463 C466 1.499 . S
C464 H444 0.950 . S
C464 C463 1.414 . S
C464 C465 1.374 . S
C465 H445 0.950 . S
C465 C461 1.385 . S
C465 C464 1.374 . S
C466 C463 1.499 . S
C466 C467 1.373 . S
C466 C468 1.389 . S
C467 H446 0.950 . S
C467 C466 1.373 . S
C467 C483 1.377 . S
C468 C466 1.389 . S
C468 C469 1.524 . S
C468 C482 1.377 . S
C469 C468 1.524 . S
C469 C470 1.397 . S
C469 C474 1.363 . S
C470 H447 0.950 . S
C470 C469 1.397 . S
C470 C471 1.334 . S
C471 H448 0.950 . S
C471 C470 1.334 . S
C471 C472 1.287 . S
C472 C471 1.287 . S
C472 C473 1.524 . S
C472 H491 0.913 . S
C473 H449 0.950 . S
C473 C472 1.524 . S
C473 C474 1.415 . S
C474 H450 0.950 . S
C474 C469 1.363 . S
C474 C473 1.415 . S
C475 H451 0.951 . S
C475 C476 1.366 . S
C475 C477 1.388 . S
C476 C475 1.366 . S
C476 C480 1.385 . S
C477 H452 0.951 . S
C477 C475 1.388 . S
C477 C478 1.366 . S
C478 C477 1.366 . S
C478 C479 1.414 . S
C478 C481 1.499 . S
C479 H453 0.950 . S
C479 C478 1.414 . S
C479 C480 1.374 . S
C480 H454 0.950 . S
C480 C476 1.385 . S
C480 C479 1.374 . S
C481 C478 1.499 . S
C481 C482 1.373 . S
C481 C483 1.389 . S
C482 H455 0.950 . S
C482 C468 1.377 . S
C482 C481 1.373 . S
C483 C467 1.377 . S
C483 C481 1.389 . S
C483 C484 1.524 . S
C484 C483 1.524 . S
C484 C485 1.397 . S
C484 C489 1.363 . S
C485 H456 0.950 . S
C485 C484 1.397 . S
C485 C486 1.334 . S
C486 H457 0.950 . S
C486 C485 1.334 . S
C486 C487 1.287 . S
C487 C486 1.287 . S
C487 C488 1.524 . S
C487 H490 0.999 . S
C488 H458 0.950 . S
C488 C487 1.524 . S
C488 C489 1.415 . S
C489 H459 0.950 . S
C489 C484 1.363 . S
C489 C488 1.415 . S
H490 C487 0.999 . S
H491 C472 0.913 . S
H492 C510 0.951 . S
H493 C512 0.951 . S
H494 C514 0.950 . S
H495 C515 0.950 . S
H496 C517 0.950 . S
H497 C520 0.950 . S
H498 C521 0.950 . S
H499 C523 0.950 . S
H500 C524 0.950 . S
H501 C525 0.951 . S
H502 C527 0.951 . S
H503 C529 0.950 . S
H504 C530 0.950 . S
H505 C532 0.950 . S
H506 C535 0.950 . S
H507 C536 0.950 . S
H508 C538 0.950 . S
H509 C539 0.950 . S
C510 H492 0.951 . S
C510 C511 1.366 . S
C510 C512 1.388 . S
C511 C510 1.366 . S
C511 C515 1.385 . S
C512 H493 0.951 . S
C512 C510 1.388 . S
C512 C513 1.366 . S
C513 C512 1.366 . S
C513 C514 1.414 . S
C513 C516 1.499 . S
C514 H494 0.950 . S
C514 C513 1.414 . S
C514 C515 1.374 . S
C515 H495 0.950 . S
C515 C511 1.385 . S
C515 C514 1.374 . S
C516 C513 1.499 . S
C516 C517 1.373 . S
C516 C518 1.389 . S
C517 H496 0.950 . S
C517 C516 1.373 . S
C517 C533 1.377 . S
C518 C516 1.389 . S
C518 C519 1.524 . S
C518 C532 1.377 . S
C519 C518 1.524 . S
C519 C520 1.397 . S
C519 C524 1.363 . S
C520 H497 0.950 . S
C520 C519 1.397 . S
C520 C521 1.334 . S
C521 H498 0.950 . S
C521 C520 1.334 . S
C521 C522 1.287 . S
C522 C521 1.287 . S
C522 C523 1.524 . S
C522 H541 0.913 . S
C523 H499 0.950 . S
C523 C522 1.524 . S
C523 C524 1.415 . S
C524 H500 0.950 . S
C524 C519 1.363 . S
C524 C523 1.415 . S
C525 H501 0.951 . S
C525 C526 1.366 . S
C525 C527 1.388 . S
C526 C525 1.366 . S
C526 C530 1.385 . S
C527 H502 0.951 . S
C527 C525 1.388 . S
C527 C528 1.366 . S
C528 C527 1.366 . S
C528 C529 1.414 . S
C528 C531 1.499 . S
C529 H503 0.950 . S
C529 C528 1.414 . S
C529 C530 1.374 . S
C530 H504 0.950 . S
C530 C526 1.385 . S
C530 C529 1.374 . S
C531 C528 1.499 . S
C531 C532 1.373 . S
C531 C533 1.389 . S
C532 H505 0.950 . S
C532 C518 1.377 . S
C532 C531 1.373 . S
C533 C517 1.377 . S
C533 C531 1.389 . S
C533 C534 1.524 . S
C534 C533 1.524 . S
C534 C535 1.397 . S
C534 C539 1.363 . S
C535 H506 0.950 . S
C535 C534 1.397 . S
C535 C536 1.334 . S
C536 H507 0.950 . S
C536 C535 1.334 . S
C536 C537 1.287 . S
C537 C536 1.287 . S
C537 C538 1.524 . S
C537 H540 0.999 . S
C538 H508 0.950 . S
C538 C537 1.524 . S
C538 C539 1.415 . S
C539 H509 0.950 . S
C539 C534 1.363 . S
C539 C538 1.415 . S
H540 C537 0.999 . S
H541 C522 0.913 . S
H542 C560 0.951 . S
H543 C562 0.951 . S
H544 C564 0.950 . S
H545 C565 0.950 . S
H546 C567 0.950 . S
H547 C570 0.950 . S
H548 C571 0.950 . S
H549 C573 0.950 . S
H550 C574 0.950 1_565 S
H551 C575 0.951 . S
H552 C577 0.951 . S
H553 C579 0.950 . S
H554 C580 0.950 . S
H555 C582 0.950 . S
H556 C585 0.950 . S
H557 C586 0.950 . S
H558 C588 0.950 . S
H559 C589 0.988 . S
C560 H542 0.951 . S
C560 C561 1.366 . S
C560 C562 1.388 . S
C561 C560 1.366 . S
C561 C565 1.385 . S
C562 H543 0.951 . S
C562 C560 1.388 . S
C562 C563 1.366 . S
C563 C562 1.366 . S
C563 C564 1.414 . S
C563 C566 1.499 . S
C564 H544 0.950 . S
C564 C563 1.414 . S
C564 C565 1.374 . S
C565 H545 0.950 . S
C565 C561 1.385 . S
C565 C564 1.374 . S
C566 C563 1.499 . S
C566 C567 1.373 . S
C566 C568 1.389 . S
C567 H546 0.950 . S
C567 C566 1.373 . S
C567 C583 1.377 1_545 S
C568 C566 1.389 . S
C568 C569 1.524 . S
C568 C582 1.377 1_545 S
C569 C568 1.524 . S
C569 C570 1.397 . S
C569 C574 1.363 . S
C570 H547 0.950 . S
C570 C569 1.397 . S
C570 C571 1.334 . S
C571 H548 0.950 . S
C571 C570 1.334 . S
C571 C572 1.287 . S
C572 C571 1.287 . S
C572 C573 1.524 . S
C572 H591 0.913 . S
C573 H549 0.950 . S
C573 C572 1.524 . S
C573 C574 1.415 . S
C574 H550 0.950 1_545 S
C574 C569 1.363 . S
C574 C573 1.415 . S
C575 H551 0.951 . S
C575 C576 1.366 . S
C575 C577 1.388 . S
C576 C575 1.366 . S
C576 C580 1.385 . S
C577 H552 0.951 . S
C577 C575 1.388 . S
C577 C578 1.366 . S
C578 C577 1.366 . S
C578 C579 1.414 . S
C578 C581 1.499 . S
C579 H553 0.950 . S
C579 C578 1.414 . S
C579 C580 1.374 . S
C580 H554 0.950 . S
C580 C576 1.385 . S
C580 C579 1.374 . S
C581 C578 1.499 . S
C581 C582 1.373 . S
C581 C583 1.389 . S
C582 H555 0.950 . S
C582 C568 1.377 1_565 S
C582 C581 1.373 . S
C583 C567 1.377 1_565 S
C583 C581 1.389 . S
C583 C584 1.524 . S
C584 C583 1.524 . S
C584 C585 1.397 . S
C584 C589 1.363 . S
C585 H556 0.950 . S
C585 C584 1.397 . S
C585 C586 1.334 . S
C586 H557 0.950 . S
C586 C585 1.334 . S
C586 C587 1.287 . S
C587 C586 1.287 . S
C587 C588 1.524 . S
C587 H590 0.999 . S
C588 H558 0.950 . S
C588 C587 1.524 . S
C588 C589 1.415 . S
C589 H559 0.988 . S
C589 C584 1.363 . S
C589 C588 1.415 . S
H590 C587 0.999 . S
H591 C572 0.913 . S
H592 C610 0.951 . S
H593 C612 0.951 . S
H594 C614 0.950 . S
H595 C615 0.950 . S
H596 C617 0.950 . S
H597 C620 0.950 . S
H598 C621 0.950 . S
H599 C623 0.950 . S
H600 C624 0.960 . S
H601 C625 0.951 . S
H602 C627 0.951 . S
H603 C629 0.950 . S
H604 C630 0.950 1_554 S
H605 C632 0.950 . S
H606 C635 0.950 . S
H607 C636 0.950 . S
H608 C638 0.950 . S
H609 C639 0.950 . S
C610 H592 0.951 . S
C610 C611 1.366 . S
C610 C612 1.388 . S
C611 C610 1.366 . S
C611 C615 1.385 . S
C612 H593 0.951 . S
C612 C610 1.388 . S
C612 C613 1.366 . S
C613 C612 1.366 . S
C613 C614 1.414 . S
C613 C616 1.499 . S
C614 H594 0.950 . S
C614 C613 1.414 . S
C614 C615 1.374 . S
C615 H595 0.950 . S
C615 C611 1.385 . S
C615 C614 1.374 . S
C616 C613 1.499 . S
C616 C617 1.373 . S
C616 C618 1.389 . S
C617 H596 0.950 . S
C617 C616 1.373 . S
C617 C633 1.377 . S
C618 C616 1.389 . S
C618 C619 1.524 . S
C618 C632 1.377 . S
C619 C618 1.524 . S
C619 C620 1.397 . S
C619 C624 1.390 . S
C620 H597 0.950 . S
C620 C619 1.397 . S
C620 C621 1.334 1_556 S
C621 H598 0.950 . S
C621 C620 1.334 1_554 S
C621 C622 1.287 . S
C622 C621 1.287 . S
C622 C623 1.524 . S
C622 H641 0.913 . S
C623 H599 0.950 . S
C623 C622 1.524 . S
C623 C624 1.381 1_554 S
C624 H600 0.960 . S
C624 C619 1.390 . S
C624 C623 1.381 1_556 S
C625 H601 0.951 . S
C625 C626 1.366 . S
C625 C627 1.388 . S
C626 C625 1.366 . S
C626 C630 1.385 . S
C627 H602 0.951 . S
C627 C625 1.388 . S
C627 C628 1.366 . S
C628 C627 1.366 . S
C628 C629 1.414 . S
C628 C631 1.499 . S
C629 H603 0.950 . S
C629 C628 1.414 . S
C629 C630 1.374 . S
C630 H604 0.950 1_556 S
C630 C626 1.385 . S
C630 C629 1.374 . S
C631 C628 1.499 . S
C631 C632 1.373 . S
C631 C633 1.389 . S
C632 H605 0.950 . S
C632 C618 1.377 . S
C632 C631 1.373 . S
C633 C617 1.377 . S
C633 C631 1.389 . S
C633 C634 1.524 . S
C634 C633 1.524 . S
C634 C635 1.397 . S
C634 C639 1.363 . S
C635 H606 0.950 . S
C635 C634 1.397 . S
C635 C636 1.334 . S
C636 H607 0.950 . S
C636 C635 1.334 . S
C636 C637 1.287 . S
C637 C636 1.287 . S
C637 C638 1.524 . S
C637 H640 0.999 . S
C638 H608 0.950 . S
C638 C637 1.524 . S
C638 C639 1.415 . S
C639 H609 0.950 . S
C639 C634 1.363 . S
C639 C638 1.415 . S
H640 C637 0.999 . S
H641 C622 0.913 . S
H642 C660 0.951 . S
H643 C662 0.951 . S
H644 C664 0.950 . S
H645 C665 0.950 . S
H646 C667 0.950 . S
H647 C670 0.950 . S
H648 C671 0.950 . S
H649 C673 0.950 . S
H650 C674 0.950 . S
H651 C675 0.951 . S
H652 C677 0.951 . S
H653 C679 0.950 . S
H654 C680 0.950 . S
H655 C682 0.950 . S
H656 C685 0.950 . S
H657 C686 0.950 . S
H658 C688 0.950 . S
H659 C689 0.950 . S
C660 H642 0.951 . S
C660 C661 1.366 . S
C660 C662 1.388 . S
C661 C660 1.366 . S
C661 C665 1.385 . S
C662 H643 0.951 . S
C662 C660 1.388 . S
C662 C663 1.366 . S
C663 C662 1.366 . S
C663 C664 1.414 . S
C663 C666 1.499 . S
C664 H644 0.950 . S
C664 C663 1.414 . S
C664 C665 1.374 . S
C665 H645 0.950 . S
C665 C661 1.385 . S
C665 C664 1.374 . S
C666 C663 1.499 . S
C666 C667 1.373 . S
C666 C668 1.389 . S
C667 H646 0.950 . S
C667 C666 1.373 . S
C667 C683 1.377 . S
C668 C666 1.389 . S
C668 C669 1.524 . S
C668 C682 1.377 . S
C669 C668 1.524 . S
C669 C670 1.397 . S
C669 C674 1.363 . S
C670 H647 0.950 . S
C670 C669 1.397 . S
C670 C671 1.334 . S
C671 H648 0.950 . S
C671 C670 1.334 . S
C671 C672 1.287 . S
C672 C671 1.287 . S
C672 C673 1.524 . S
C672 H691 0.913 . S
C673 H649 0.950 . S
C673 C672 1.524 . S
C673 C674 1.415 . S
C674 H650 0.950 . S
C674 C669 1.363 . S
C674 C673 1.415 . S
C675 H651 0.951 . S
C675 C676 1.366 . S
C675 C677 1.388 . S
C676 C675 1.366 . S
C676 C680 1.385 . S
C677 H652 0.951 . S
C677 C675 1.388 . S
C677 C678 1.366 . S
C678 C677 1.366 . S
C678 C679 1.414 . S
C678 C681 1.499 . S
C679 H653 0.950 . S
C679 C678 1.414 . S
C679 C680 1.374 . S
C680 H654 0.950 . S
C680 C676 1.385 . S
C680 C679 1.374 . S
C681 C678 1.499 . S
C681 C682 1.373 . S
C681 C683 1.389 . S
C682 H655 0.950 . S
C682 C668 1.377 . S
C682 C681 1.373 . S
C683 C667 1.377 . S
C683 C681 1.389 . S
C683 C684 1.524 . S
C684 C683 1.524 . S
C684 C685 1.397 . S
C684 C689 1.363 . S
C685 H656 0.950 . S
C685 C684 1.397 . S
C685 C686 1.334 . S
C686 H657 0.950 . S
C686 C685 1.334 . S
C686 C687 1.287 . S
C687 C686 1.287 . S
C687 C688 1.524 . S
C687 H690 0.999 . S
C688 H658 0.950 . S
C688 C687 1.524 . S
C688 C689 1.415 . S
C689 H659 0.950 . S
C689 C684 1.363 . S
C689 C688 1.415 . S
H690 C687 0.999 . S
H691 C672 0.913 . S
H692 C710 0.951 . S
H693 C712 0.951 . S
H694 C714 0.950 . S
H695 C715 0.950 . S
H696 C717 0.950 . S
H697 C720 0.950 . S
H698 C721 0.950 . S
H699 C723 0.950 . S
H700 C724 0.950 . S
H701 C725 0.951 . S
H702 C727 0.951 . S
H703 C729 0.950 . S
H704 C730 0.950 . S
H705 C732 0.950 . S
H706 C735 0.950 . S
H707 C736 0.950 . S
H708 C738 0.950 . S
H709 C739 0.950 . S
C710 H692 0.951 . S
C710 C711 1.366 . S
C710 C712 1.388 . S
C711 C710 1.366 . S
C711 C715 1.385 . S
C712 H693 0.951 . S
C712 C710 1.388 . S
C712 C713 1.366 . S
C713 C712 1.366 . S
C713 C714 1.414 . S
C713 C716 1.499 . S
C714 H694 0.950 . S
C714 C713 1.414 . S
C714 C715 1.374 . S
C715 H695 0.950 . S
C715 C711 1.385 . S
C715 C714 1.374 . S
C716 C713 1.499 . S
C716 C717 1.373 . S
C716 C718 1.389 . S
C717 H696 0.950 . S
C717 C716 1.373 . S
C717 C733 1.377 1_545 S
C718 C716 1.389 . S
C718 C719 1.524 . S
C718 C732 1.377 . S
C719 C718 1.524 . S
C719 C720 1.397 . S
C719 C724 1.363 . S
C720 H697 0.950 . S
C720 C719 1.397 . S
C720 C721 1.334 . S
C721 H698 0.950 . S
C721 C720 1.334 . S
C721 C722 1.287 . S
C722 C721 1.287 . S
C722 C723 1.524 . S
C722 H741 0.913 . S
C723 H699 0.950 . S
C723 C722 1.524 . S
C723 C724 1.415 . S
C724 H700 0.950 . S
C724 C719 1.363 . S
C724 C723 1.415 . S
C725 H701 0.951 . S
C725 C726 1.366 . S
C725 C727 1.388 . S
C726 C725 1.366 . S
C726 C730 1.385 . S
C727 H702 0.951 . S
C727 C725 1.388 . S
C727 C728 1.366 . S
C728 C727 1.366 . S
C728 C729 1.414 . S
C728 C731 1.499 . S
C729 H703 0.950 . S
C729 C728 1.414 . S
C729 C730 1.374 . S
C730 H704 0.950 . S
C730 C726 1.385 . S
C730 C729 1.374 . S
C731 C728 1.499 . S
C731 C732 1.373 1_565 S
C731 C733 1.389 . S
C732 H705 0.950 . S
C732 C718 1.377 . S
C732 C731 1.373 1_545 S
C733 C717 1.377 1_565 S
C733 C731 1.389 . S
C733 C734 1.524 . S
C734 C733 1.524 . S
C734 C735 1.397 . S
C734 C739 1.363 . S
C735 H706 0.950 . S
C735 C734 1.397 . S
C735 C736 1.334 . S
C736 H707 0.950 . S
C736 C735 1.334 . S
C736 C737 1.287 . S
C737 C736 1.287 . S
C737 C738 1.524 . S
C737 H740 0.999 . S
C738 H708 0.950 . S
C738 C737 1.524 . S
C738 C739 1.415 . S
C739 H709 0.950 . S
C739 C734 1.363 . S
C739 C738 1.415 . S
H740 C737 0.999 . S
H741 C722 0.913 . S
H742 C760 0.951 . S
H743 C762 0.951 . S
H744 C764 0.950 . S
H745 C765 0.950 . S
H746 C767 0.950 . S
H747 C770 0.950 . S
H748 C771 0.950 . S
H749 C773 0.950 . S
H750 C774 0.950 . S
H751 C775 0.951 . S
H752 C777 0.951 . S
H753 C779 0.950 . S
H754 C780 0.950 . S
H755 C782 0.950 . S
H756 C785 0.950 . S
H757 C786 0.950 . S
H758 C788 0.950 . S
H759 C789 0.950 . S
C760 H742 0.951 . S
C760 C761 1.366 . S
C760 C762 1.388 . S
C761 C760 1.366 . S
C761 C765 1.385 . S
C762 H743 0.951 . S
C762 C760 1.388 . S
C762 C763 1.366 . S
C763 C762 1.366 . S
C763 C764 1.414 . S
C763 C766 1.499 . S
C764 H744 0.950 . S
C764 C763 1.414 . S
C764 C765 1.374 . S
C765 H745 0.950 . S
C765 C761 1.385 . S
C765 C764 1.374 . S
C766 C763 1.499 . S
C766 C767 1.373 . S
C766 C768 1.389 . S
C767 H746 0.950 . S
C767 C766 1.373 . S
C767 C783 1.377 . S
C768 C766 1.389 . S
C768 C769 1.524 . S
C768 C782 1.377 . S
C769 C768 1.524 . S
C769 C770 1.397 . S
C769 C774 1.363 . S
C770 H747 0.950 . S
C770 C769 1.397 . S
C770 C771 1.334 . S
C771 H748 0.950 . S
C771 C770 1.334 . S
C771 C772 1.287 . S
C772 C771 1.287 . S
C772 C773 1.524 . S
C772 H791 0.913 . S
C773 H749 0.950 . S
C773 C772 1.524 . S
C773 C774 1.415 . S
C774 H750 0.950 . S
C774 C769 1.363 . S
C774 C773 1.415 . S
C775 H751 0.951 . S
C775 C776 1.366 . S
C775 C777 1.388 . S
C776 C775 1.366 . S
C776 C780 1.385 . S
C777 H752 0.951 . S
C777 C775 1.388 . S
C777 C778 1.366 . S
C778 C777 1.366 . S
C778 C779 1.414 . S
C778 C781 1.499 . S
C779 H753 0.950 . S
C779 C778 1.414 . S
C779 C780 1.374 . S
C780 H754 0.950 . S
C780 C776 1.385 . S
C780 C779 1.374 . S
C781 C778 1.499 . S
C781 C782 1.373 . S
C781 C783 1.389 . S
C782 H755 0.950 . S
C782 C768 1.377 . S
C782 C781 1.373 . S
C783 C767 1.377 . S
C783 C781 1.389 . S
C783 C784 1.524 . S
C784 C783 1.524 . S
C784 C785 1.397 . S
C784 C789 1.363 . S
C785 H756 0.950 . S
C785 C784 1.397 . S
C785 C786 1.334 . S
C786 H757 0.950 . S
C786 C785 1.334 . S
C786 C787 1.287 . S
C787 C786 1.287 . S
C787 C788 1.524 . S
C787 H790 0.999 . S
C788 H758 0.950 . S
C788 C787 1.524 . S
C788 C789 1.415 . S
C789 H759 0.950 . S
C789 C784 1.363 . S
C789 C788 1.415 . S
H790 C787 0.999 . S
H791 C772 0.913 . S
H792 C810 0.951 . S
H793 C812 0.951 . S
H794 C814 0.950 . S
H795 C815 0.950 . S
H796 C817 0.950 . S
H797 C820 0.950 . S
H798 C821 0.950 . S
H799 C823 0.950 . S
H800 C824 0.950 . S
H801 C825 0.951 . S
H802 C827 0.951 . S
H803 C829 0.950 . S
H804 C830 0.950 . S
H805 C832 0.950 . S
H806 C835 0.950 . S
H807 C836 0.950 . S
H808 C838 0.950 . S
H809 C839 0.950 . S
C810 H792 0.951 . S
C810 C811 1.366 . S
C810 C812 1.388 . S
C811 C810 1.366 . S
C811 C815 1.385 . S
C812 H793 0.951 . S
C812 C810 1.388 . S
C812 C813 1.366 . S
C813 C812 1.366 . S
C813 C814 1.414 . S
C813 C816 1.499 . S
C814 H794 0.950 . S
C814 C813 1.414 . S
C814 C815 1.374 . S
C815 H795 0.950 . S
C815 C811 1.385 . S
C815 C814 1.374 . S
C816 C813 1.499 . S
C816 C817 1.373 . S
C816 C818 1.389 . S
C817 H796 0.950 . S
C817 C816 1.373 . S
C817 C833 1.377 . S
C818 C816 1.389 . S
C818 C819 1.524 . S
C818 C832 1.377 . S
C819 C818 1.524 . S
C819 C820 1.397 . S
C819 C824 1.363 . S
C820 H797 0.950 . S
C820 C819 1.397 . S
C820 C821 1.334 . S
C821 H798 0.950 . S
C821 C820 1.334 . S
C821 C822 1.287 . S
C822 C821 1.287 . S
C822 C823 1.524 . S
C822 H841 0.913 . S
C823 H799 0.950 . S
C823 C822 1.524 . S
C823 C824 1.415 . S
C824 H800 0.950 . S
C824 C819 1.363 . S
C824 C823 1.415 . S
C825 H801 0.951 . S
C825 C826 1.366 . S
C825 C827 1.388 . S
C826 C825 1.366 . S
C826 C830 1.385 . S
C827 H802 0.951 . S
C827 C825 1.388 . S
C827 C828 1.366 . S
C828 C827 1.366 . S
C828 C829 1.414 . S
C828 C831 1.499 . S
C829 H803 0.950 . S
C829 C828 1.414 . S
C829 C830 1.374 . S
C830 H804 0.950 . S
C830 C826 1.385 . S
C830 C829 1.374 . S
C831 C828 1.499 . S
C831 C832 1.373 . S
C831 C833 1.389 . S
C832 H805 0.950 . S
C832 C818 1.377 . S
C832 C831 1.373 . S
C833 C817 1.377 . S
C833 C831 1.389 . S
C833 C834 1.524 . S
C834 C833 1.524 . S
C834 C835 1.397 . S
C834 C839 1.363 . S
C835 H806 0.950 . S
C835 C834 1.397 . S
C835 C836 1.334 . S
C836 H807 0.950 . S
C836 C835 1.334 . S
C836 C837 1.287 . S
C837 C836 1.287 . S
C837 C838 1.524 . S
C837 H840 0.999 . S
C838 H808 0.950 . S
C838 C837 1.524 . S
C838 C839 1.415 . S
C839 H809 0.950 . S
C839 C834 1.363 . S
C839 C838 1.415 . S
H840 C837 0.999 . S
H841 C822 0.913 . S
H842 C860 0.951 . S
H843 C862 0.951 . S
H844 C864 0.950 . S
H845 C865 0.950 . S
H846 C867 0.950 . S
H847 C870 0.950 . S
H848 C871 0.950 . S
H849 C873 0.950 . S
H850 C874 0.950 . S
H851 C875 0.951 . S
H852 C877 0.951 . S
H853 C879 0.950 . S
H854 C880 0.950 . S
H855 C882 0.950 . S
H856 C885 0.950 . S
H857 C886 0.950 . S
H858 C888 0.950 . S
H859 C889 0.950 . S
C860 H842 0.951 . S
C860 C861 1.366 . S
C860 C862 1.388 . S
C861 C860 1.366 . S
C861 C865 1.385 . S
C862 H843 0.951 . S
C862 C860 1.388 . S
C862 C863 1.366 . S
C863 C862 1.366 . S
C863 C864 1.414 . S
C863 C866 1.499 . S
C864 H844 0.950 . S
C864 C863 1.414 . S
C864 C865 1.374 . S
C865 H845 0.950 . S
C865 C861 1.385 . S
C865 C864 1.374 . S
C866 C863 1.499 . S
C866 C867 1.373 . S
C866 C868 1.389 . S
C867 H846 0.950 . S
C867 C866 1.373 . S
C867 C883 1.377 . S
C868 C866 1.389 . S
C868 C869 1.524 . S
C868 C882 1.377 . S
C869 C868 1.524 . S
C869 C870 1.397 . S
C869 C874 1.363 . S
C870 H847 0.950 . S
C870 C869 1.397 . S
C870 C871 1.334 . S
C871 H848 0.950 . S
C871 C870 1.334 . S
C871 C872 1.287 . S
C872 C871 1.287 . S
C872 C873 1.524 . S
C872 H891 0.913 . S
C873 H849 0.950 . S
C873 C872 1.524 . S
C873 C874 1.415 . S
C874 H850 0.950 . S
C874 C869 1.363 . S
C874 C873 1.415 . S
C875 H851 0.951 . S
C875 C876 1.366 . S
C875 C877 1.388 . S
C876 C875 1.366 . S
C876 C880 1.385 . S
C877 H852 0.951 . S
C877 C875 1.388 . S
C877 C878 1.366 . S
C878 C877 1.366 . S
C878 C879 1.414 . S
C878 C881 1.499 . S
C879 H853 0.950 . S
C879 C878 1.414 . S
C879 C880 1.374 . S
C880 H854 0.950 . S
C880 C876 1.385 . S
C880 C879 1.374 . S
C881 C878 1.499 . S
C881 C882 1.373 . S
C881 C883 1.389 . S
C882 H855 0.950 . S
C882 C868 1.377 . S
C882 C881 1.373 . S
C883 C867 1.377 . S
C883 C881 1.389 . S
C883 C884 1.524 . S
C884 C883 1.524 . S
C884 C885 1.397 . S
C884 C889 1.363 . S
C885 H856 0.950 . S
C885 C884 1.397 . S
C885 C886 1.334 . S
C886 H857 0.950 . S
C886 C885 1.334 . S
C886 C887 1.287 . S
C887 C886 1.287 . S
C887 C888 1.524 . S
C887 H890 0.999 . S
C888 H858 0.950 . S
C888 C887 1.524 . S
C888 C889 1.415 . S
C889 H859 0.950 . S
C889 C884 1.363 . S
C889 C888 1.415 . S
H890 C887 0.999 . S
H891 C872 0.913 . S
H892 C910 0.951 . S
H893 C912 0.951 . S
H894 C914 0.950 . S
H895 C915 0.950 . S
H896 C917 0.950 . S
H897 C920 0.950 . S
H898 C921 0.950 . S
H899 C923 0.950 . S
H900 C924 0.950 . S
H901 C925 0.951 . S
H902 C927 0.951 . S
H903 C929 0.950 . S
H904 C930 0.950 . S
H905 C932 0.950 . S
H906 C935 0.950 . S
H907 C936 0.950 . S
H908 C938 0.950 . S
H909 C939 0.950 . S
C910 H892 0.951 . S
C910 C911 1.366 . S
C910 C912 1.388 . S
C911 C910 1.366 . S
C911 C915 1.385 . S
C912 H893 0.951 . S
C912 C910 1.388 . S
C912 C913 1.366 . S
C913 C912 1.366 . S
C913 C914 1.414 . S
C913 C916 1.499 . S
C914 H894 0.950 . S
C914 C913 1.414 . S
C914 C915 1.374 . S
C915 H895 0.950 . S
C915 C911 1.385 . S
C915 C914 1.374 . S
C916 C913 1.499 . S
C916 C917 1.373 . S
C916 C918 1.389 . S
C917 H896 0.950 . S
C917 C916 1.373 . S
C917 C933 1.377 . S
C918 C916 1.389 . S
C918 C919 1.524 . S
C918 C932 1.377 . S
C919 C918 1.524 . S
C919 C920 1.397 . S
C919 C924 1.363 . S
C920 H897 0.950 . S
C920 C919 1.397 . S
C920 C921 1.334 . S
C921 H898 0.950 . S
C921 C920 1.334 . S
C921 C922 1.287 . S
C922 C921 1.287 . S
C922 C923 1.524 . S
C922 H941 0.910 . S
C923 H899 0.950 . S
C923 C922 1.524 . S
C923 C924 1.415 . S
C924 H900 0.950 . S
C924 C919 1.363 . S
C924 C923 1.415 . S
C925 H901 0.951 . S
C925 C926 1.366 . S
C925 C927 1.388 . S
C926 C925 1.366 . S
C926 C930 1.385 . S
C927 H902 0.951 . S
C927 C925 1.388 . S
C927 C928 1.366 . S
C928 C927 1.366 . S
C928 C929 1.414 . S
C928 C931 1.499 . S
C929 H903 0.950 . S
C929 C928 1.414 . S
C929 C930 1.374 . S
C930 H904 0.950 . S
C930 C926 1.385 . S
C930 C929 1.374 . S
C931 C928 1.499 . S
C931 C932 1.373 . S
C931 C933 1.389 . S
C932 H905 0.950 . S
C932 C918 1.377 . S
C932 C931 1.373 . S
C933 C917 1.377 . S
C933 C931 1.389 . S
C933 C934 1.524 . S
C934 C933 1.524 . S
C934 C935 1.397 . S
C934 C939 1.363 . S
C935 H906 0.950 . S
C935 C934 1.397 . S
C935 C936 1.334 . S
C936 H907 0.950 . S
C936 C935 1.334 . S
C936 C937 1.287 . S
C937 C936 1.287 . S
C937 C938 1.524 . S
C937 H940 0.999 . S
C938 H908 0.950 . S
C938 C937 1.524 . S
C938 C939 1.415 . S
C939 H909 0.950 . S
C939 C934 1.363 . S
C939 C938 1.415 . S
H940 C937 0.999 . S
H941 C922 0.910 . S
H942 C960 0.951 . S
H943 C962 0.951 . S
H944 C964 0.950 . S
H945 C965 0.950 . S
H946 C967 0.950 1_655 S
H947 C970 0.950 . S
H948 C971 0.950 . S
H949 C973 0.950 . S
H950 C974 0.950 . S
H951 C975 0.951 . S
H952 C977 0.951 . S
H953 C979 0.950 . S
H954 C980 0.950 . S
H955 C982 0.950 . S
H956 C985 0.950 . S
H957 C986 0.950 . S
H958 C988 0.950 . S
H959 C989 0.950 . S
C960 H942 0.951 . S
C960 C961 1.366 . S
C960 C962 1.388 . S
C961 C960 1.366 . S
C961 C965 1.385 . S
C962 H943 0.951 . S
C962 C960 1.388 . S
C962 C963 1.366 . S
C963 C962 1.366 . S
C963 C964 1.414 . S
C963 C966 1.499 . S
C964 H944 0.950 . S
C964 C963 1.414 . S
C964 C965 1.374 . S
C965 H945 0.950 . S
C965 C961 1.385 . S
C965 C964 1.374 . S
C966 C963 1.499 . S
C966 C967 1.373 . S
C966 C968 1.389 . S
C967 H946 0.950 1_455 S
C967 C966 1.373 . S
C967 C983 1.377 1_455 S
C968 C966 1.389 . S
C968 C969 1.524 . S
C968 C982 1.377 . S
C969 C968 1.524 . S
C969 C970 1.397 . S
C969 C974 1.363 . S
C970 H947 0.950 . S
C970 C969 1.397 . S
C970 C971 1.334 . S
C971 H948 0.950 . S
C971 C970 1.334 . S
C971 C972 1.287 . S
C972 C971 1.287 . S
C972 C973 1.524 . S
C972 H991 0.913 . S
C973 H949 0.950 . S
C973 C972 1.524 . S
C973 C974 1.415 . S
C974 H950 0.950 . S
C974 C969 1.363 . S
C974 C973 1.415 . S
C975 H951 0.951 . S
C975 C976 1.366 . S
C975 C977 1.388 . S
C976 C975 1.366 . S
C976 C980 1.385 . S
C977 H952 0.951 . S
C977 C975 1.388 . S
C977 C978 1.366 . S
C978 C977 1.366 . S
C978 C979 1.414 . S
C978 C981 1.499 . S
C979 H953 0.950 . S
C979 C978 1.414 . S
C979 C980 1.374 . S
C980 H954 0.950 . S
C980 C976 1.385 . S
C980 C979 1.374 . S
C981 C978 1.499 . S
C981 C982 1.373 1_655 S
C981 C983 1.389 . S
C982 H955 0.950 . S
C982 C968 1.377 . S
C982 C981 1.373 1_455 S
C983 C967 1.377 1_655 S
C983 C981 1.389 . S
C983 C984 1.524 . S
C984 C983 1.524 . S
C984 C985 1.397 . S
C984 C989 1.363 . S
C985 H956 0.950 . S
C985 C984 1.397 . S
C985 C986 1.334 . S
C986 H957 0.950 . S
C986 C985 1.334 . S
C986 C987 1.287 . S
C987 C986 1.287 . S
C987 C988 1.524 . S
C987 H990 0.999 . S
C988 H958 0.950 . S
C988 C987 1.524 . S
C988 C989 1.415 . S
C989 H959 0.950 . S
C989 C984 1.363 . S
C989 C988 1.415 . S
H990 C987 0.999 . S
H991 C972 0.913 . S
H992 C1010 0.951 . S
H993 C1012 0.951 . S
H994 C1014 0.950 . S
H995 C1015 0.950 . S
H996 C1017 0.950 . S
H997 C1020 0.950 . S
H998 C1021 0.950 . S
H999 C1023 0.950 . S
H1000 C1024 0.950 . S
H1001 C1025 0.951 . S
H1002 C1027 0.951 . S
H1003 C1029 0.950 . S
H1004 C1030 0.950 . S
H1005 C1032 0.950 . S
H1006 C1035 0.950 . S
H1007 C1036 0.950 . S
H1008 C1038 0.950 . S
H1009 C1039 0.950 . S
C1010 H992 0.951 . S
C1010 C1011 1.366 . S
C1010 C1012 1.388 . S
C1011 C1010 1.366 . S
C1011 C1015 1.385 . S
C1012 H993 0.951 . S
C1012 C1010 1.388 . S
C1012 C1013 1.366 . S
C1013 C1012 1.366 . S
C1013 C1014 1.414 . S
C1013 C1016 1.499 . S
C1014 H994 0.950 . S
C1014 C1013 1.414 . S
C1014 C1015 1.374 . S
C1015 H995 0.950 . S
C1015 C1011 1.385 . S
C1015 C1014 1.374 . S
C1016 C1013 1.499 . S
C1016 C1017 1.373 . S
C1016 C1018 1.389 . S
C1017 H996 0.950 . S
C1017 C1016 1.373 . S
C1017 C1033 1.377 . S
C1018 C1016 1.389 . S
C1018 C1019 1.524 . S
C1018 C1032 1.377 . S
C1019 C1018 1.524 . S
C1019 C1020 1.397 . S
C1019 C1024 1.363 . S
C1020 H997 0.950 . S
C1020 C1019 1.397 . S
C1020 C1021 1.334 . S
C1021 H998 0.950 . S
C1021 C1020 1.334 . S
C1021 C1022 1.287 . S
C1022 C1021 1.287 . S
C1022 C1023 1.524 . S
C1022 H1041 0.913 . S
C1023 H999 0.950 . S
C1023 C1022 1.524 . S
C1023 C1024 1.415 . S
C1024 H1000 0.950 . S
C1024 C1019 1.363 . S
C1024 C1023 1.415 . S
C1025 H1001 0.951 . S
C1025 C1026 1.366 . S
C1025 C1027 1.388 . S
C1026 C1025 1.366 . S
C1026 C1030 1.385 . S
C1027 H1002 0.951 . S
C1027 C1025 1.388 . S
C1027 C1028 1.366 . S
C1028 C1027 1.366 . S
C1028 C1029 1.414 . S
C1028 C1031 1.499 . S
C1029 H1003 0.950 . S
C1029 C1028 1.414 . S
C1029 C1030 1.374 . S
C1030 H1004 0.950 . S
C1030 C1026 1.385 . S
C1030 C1029 1.374 . S
C1031 C1028 1.499 . S
C1031 C1032 1.373 . S
C1031 C1033 1.389 . S
C1032 H1005 0.950 . S
C1032 C1018 1.377 . S
C1032 C1031 1.373 . S
C1033 C1017 1.377 . S
C1033 C1031 1.389 . S
C1033 C1034 1.524 . S
C1034 C1033 1.524 . S
C1034 C1035 1.397 . S
C1034 C1039 1.363 . S
C1035 H1006 0.950 . S
C1035 C1034 1.397 . S
C1035 C1036 1.334 . S
C1036 H1007 0.950 . S
C1036 C1035 1.334 . S
C1036 C1037 1.287 . S
C1037 C1036 1.287 . S
C1037 C1038 1.524 . S
C1037 H1040 0.999 . S
C1038 H1008 0.950 . S
C1038 C1037 1.524 . S
C1038 C1039 1.415 . S
C1039 H1009 0.950 . S
C1039 C1034 1.363 . S
C1039 C1038 1.415 . S
H1040 C1037 0.999 . S
H1041 C1022 0.913 . S
H1042 C1060 0.951 . S
H1043 C1062 0.951 . S
H1044 C1064 0.950 . S
H1045 C1065 0.950 . S
H1046 C1067 0.950 1_455 S
H1047 C1070 0.950 . S
H1048 C1071 0.950 . S
H1049 C1073 0.950 . S
H1050 C1074 0.950 . S
H1051 C1075 0.951 . S
H1052 C1077 0.951 . S
H1053 C1079 0.950 . S
H1054 C1080 0.950 . S
H1055 C1082 0.950 . S
H1056 C1085 0.950 . S
H1057 C1086 0.950 . S
H1058 C1088 0.950 . S
H1059 C1089 0.950 . S
C1060 H1042 0.951 . S
C1060 C1061 1.366 . S
C1060 C1062 1.388 . S
C1061 C1060 1.366 . S
C1061 C1065 1.385 . S
C1062 H1043 0.951 . S
C1062 C1060 1.388 . S
C1062 C1063 1.366 . S
C1063 C1062 1.366 . S
C1063 C1064 1.414 . S
C1063 C1066 1.499 . S
C1064 H1044 0.950 . S
C1064 C1063 1.414 . S
C1064 C1065 1.374 . S
C1065 H1045 0.950 . S
C1065 C1061 1.385 . S
C1065 C1064 1.374 . S
C1066 C1063 1.499 . S
C1066 C1067 1.373 . S
C1066 C1068 1.389 . S
C1067 H1046 0.950 1_655 S
C1067 C1066 1.373 . S
C1067 C1083 1.377 . S
C1068 C1066 1.389 . S
C1068 C1069 1.524 . S
C1068 C1082 1.377 . S
C1069 C1068 1.524 . S
C1069 C1070 1.397 . S
C1069 C1074 1.363 . S
C1070 H1047 0.950 . S
C1070 C1069 1.397 . S
C1070 C1071 1.334 . S
C1071 H1048 0.950 . S
C1071 C1070 1.334 . S
C1071 C1072 1.287 . S
C1072 C1071 1.287 . S
C1072 C1073 1.524 . S
C1072 H1091 0.913 . S
C1073 H1049 0.950 . S
C1073 C1072 1.524 . S
C1073 C1074 1.415 . S
C1074 H1050 0.950 . S
C1074 C1069 1.363 . S
C1074 C1073 1.415 . S
C1075 H1051 0.951 . S
C1075 C1076 1.366 . S
C1075 C1077 1.388 . S
C1076 C1075 1.366 . S
C1076 C1080 1.385 . S
C1077 H1052 0.951 . S
C1077 C1075 1.388 . S
C1077 C1078 1.366 . S
C1078 C1077 1.366 . S
C1078 C1079 1.414 . S
C1078 C1081 1.499 . S
C1079 H1053 0.950 . S
C1079 C1078 1.414 . S
C1079 C1080 1.374 . S
C1080 H1054 0.950 . S
C1080 C1076 1.385 . S
C1080 C1079 1.374 . S
C1081 C1078 1.499 . S
C1081 C1082 1.373 . S
C1081 C1083 1.389 . S
C1082 H1055 0.950 . S
C1082 C1068 1.377 . S
C1082 C1081 1.373 . S
C1083 C1067 1.377 . S
C1083 C1081 1.389 . S
C1083 C1084 1.524 1_655 S
C1084 C1083 1.524 1_455 S
C1084 C1085 1.397 . S
C1084 C1089 1.363 . S
C1085 H1056 0.950 . S
C1085 C1084 1.397 . S
C1085 C1086 1.334 . S
C1086 H1057 0.950 . S
C1086 C1085 1.334 . S
C1086 C1087 1.287 . S
C1087 C1086 1.287 . S
C1087 C1088 1.524 . S
C1087 H1090 0.999 . S
C1088 H1058 0.950 . S
C1088 C1087 1.524 . S
C1088 C1089 1.415 . S
C1089 H1059 0.950 . S
C1089 C1084 1.363 . S
C1089 C1088 1.415 . S
H1090 C1087 0.999 . S
H1091 C1072 0.913 . S
H1092 C1110 0.951 . S
H1093 C1112 0.951 . S
H1094 C1114 0.950 . S
H1095 C1115 0.950 . S
H1096 C1117 0.950 . S
H1097 C1120 0.950 . S
H1098 C1121 0.950 . S
H1099 C1123 0.949 1_655 S
H1100 C1124 0.950 1_655 S
H1101 C1125 0.951 . S
H1102 C1127 0.964 . S
H1103 C1129 0.938 1_556 S
H1104 C1130 0.950 . S
H1105 C1132 0.950 . S
H1106 C1135 0.950 . S
H1107 C1136 0.950 . S
H1108 C1138 0.949 . S
H1109 C1139 0.950 1_455 S
C1110 H1092 0.951 . S
C1110 C1111 1.366 . S
C1110 C1112 1.388 . S
C1111 C1110 1.366 . S
C1111 C1115 1.385 . S
C1112 H1093 0.951 . S
C1112 C1110 1.388 . S
C1112 C1113 1.366 . S
C1113 C1112 1.366 . S
C1113 C1114 1.414 . S
C1113 C1116 1.499 . S
C1114 H1094 0.950 . S
C1114 C1113 1.414 . S
C1114 C1115 1.374 . S
C1115 H1095 0.950 . S
C1115 C1111 1.385 . S
C1115 C1114 1.374 . S
C1116 C1113 1.499 . S
C1116 C1117 1.373 . S
C1116 C1118 1.389 . S
C1117 H1096 0.950 . S
C1117 C1116 1.373 . S
C1117 C1133 1.377 1_455 S
C1118 C1116 1.389 . S
C1118 C1119 1.524 . S
C1118 C1132 1.377 1_455 S
C1119 C1118 1.524 . S
C1119 C1120 1.397 . S
C1119 C1124 1.363 . S
C1120 H1097 0.950 . S
C1120 C1119 1.397 . S
C1120 C1121 1.334 . S
C1121 H1098 0.950 . S
C1121 C1120 1.334 . S
C1121 C1122 1.287 . S
C1122 C1121 1.287 . S
C1122 C1123 1.524 . S
C1122 H1141 0.913 . S
C1123 H1099 0.949 1_455 S
C1123 C1122 1.524 . S
C1123 C1124 1.415 . S
C1124 H1100 0.950 1_455 S
C1124 C1119 1.363 . S
C1124 C1123 1.415 . S
C1125 H1101 0.951 . S
C1125 C1126 1.366 . S
C1125 C1127 1.388 . S
C1126 C1125 1.366 . S
C1126 C1130 1.385 . S
C1127 H1102 0.964 . S
C1127 C1125 1.388 . S
C1127 C1128 1.347 1_554 S
C1128 C1127 1.347 1_556 S
C1128 C1129 1.400 1_556 S
C1128 C1131 1.538 . S
C1129 H1103 0.938 1_554 S
C1129 C1128 1.400 1_554 S
C1129 C1130 1.374 . S
C1130 H1104 0.950 . S
C1130 C1126 1.385 . S
C1130 C1129 1.374 . S
C1131 C1128 1.538 . S
C1131 C1132 1.373 . S
C1131 C1133 1.389 . S
C1132 H1105 0.950 . S
C1132 C1118 1.377 1_655 S
C1132 C1131 1.373 . S
C1133 C1117 1.377 1_655 S
C1133 C1131 1.389 . S
C1133 C1134 1.524 1_556 S
C1134 C1133 1.524 1_554 S
C1134 C1135 1.397 . S
C1134 C1139 1.363 . S
C1135 H1106 0.950 . S
C1135 C1134 1.397 . S
C1135 C1136 1.334 . S
C1136 H1107 0.950 . S
C1136 C1135 1.334 . S
C1136 C1137 1.287 . S
C1137 C1136 1.287 . S
C1137 C1138 1.524 . S
C1137 H1140 0.999 . S
C1138 H1108 0.949 . S
C1138 C1137 1.524 . S
C1138 C1139 1.415 . S
C1139 H1109 0.950 1_655 S
C1139 C1134 1.363 . S
C1139 C1138 1.415 . S
H1140 C1137 0.999 . S
H1141 C1122 0.913 . S
H1142 C1160 0.951 . S
H1143 C1162 0.951 . S
H1144 C1164 0.950 . S
H1145 C1165 0.950 . S
H1146 C1167 0.950 . S
H1147 C1170 0.950 . S
H1148 C1171 0.950 . S
H1149 C1173 0.950 . S
H1150 C1174 0.950 . S
H1151 C1175 0.951 . S
H1152 C1177 0.951 . S
H1153 C1179 0.950 . S
H1154 C1180 0.950 . S
H1155 C1182 0.950 . S
H1156 C1185 0.950 . S
H1157 C1186 0.950 . S
H1158 C1188 0.950 . S
H1159 C1189 0.950 . S
C1160 H1142 0.951 . S
C1160 C1161 1.366 . S
C1160 C1162 1.388 . S
C1161 C1160 1.366 . S
C1161 C1165 1.385 . S
C1162 H1143 0.951 . S
C1162 C1160 1.388 . S
C1162 C1163 1.366 . S
C1163 C1162 1.366 . S
C1163 C1164 1.414 . S
C1163 C1166 1.499 . S
C1164 H1144 0.950 . S
C1164 C1163 1.414 . S
C1164 C1165 1.374 . S
C1165 H1145 0.950 . S
C1165 C1161 1.385 . S
C1165 C1164 1.374 . S
C1166 C1163 1.499 . S
C1166 C1167 1.373 . S
C1166 C1168 1.389 . S
C1167 H1146 0.950 . S
C1167 C1166 1.373 . S
C1167 C1183 1.377 . S
C1168 C1166 1.389 . S
C1168 C1169 1.524 . S
C1168 C1182 1.377 . S
C1169 C1168 1.524 . S
C1169 C1170 1.397 . S
C1169 C1174 1.363 . S
C1170 H1147 0.950 . S
C1170 C1169 1.397 . S
C1170 C1171 1.334 . S
C1171 H1148 0.950 . S
C1171 C1170 1.334 . S
C1171 C1172 1.287 . S
C1172 C1171 1.287 . S
C1172 C1173 1.524 . S
C1172 H1191 0.913 . S
C1173 H1149 0.950 . S
C1173 C1172 1.524 . S
C1173 C1174 1.415 . S
C1174 H1150 0.950 . S
C1174 C1169 1.363 . S
C1174 C1173 1.415 . S
C1175 H1151 0.951 . S
C1175 C1176 1.366 . S
C1175 C1177 1.388 . S
C1176 C1175 1.366 . S
C1176 C1180 1.385 . S
C1177 H1152 0.951 . S
C1177 C1175 1.388 . S
C1177 C1178 1.366 . S
C1178 C1177 1.366 . S
C1178 C1179 1.414 . S
C1178 C1181 1.499 . S
C1179 H1153 0.950 . S
C1179 C1178 1.414 . S
C1179 C1180 1.374 . S
C1180 H1154 0.950 . S
C1180 C1176 1.385 . S
C1180 C1179 1.374 . S
C1181 C1178 1.499 . S
C1181 C1182 1.373 . S
C1181 C1183 1.389 . S
C1182 H1155 0.950 . S
C1182 C1168 1.377 . S
C1182 C1181 1.373 . S
C1183 C1167 1.377 . S
C1183 C1181 1.389 . S
C1183 C1184 1.524 . S
C1184 C1183 1.524 . S
C1184 C1185 1.397 . S
C1184 C1189 1.363 . S
C1185 H1156 0.950 . S
C1185 C1184 1.397 . S
C1185 C1186 1.334 . S
C1186 H1157 0.950 . S
C1186 C1185 1.334 . S
C1186 C1187 1.287 . S
C1187 C1186 1.287 . S
C1187 C1188 1.524 . S
C1187 H1190 0.999 . S
C1188 H1158 0.950 . S
C1188 C1187 1.524 . S
C1188 C1189 1.415 . S
C1189 H1159 0.950 . S
C1189 C1184 1.363 . S
C1189 C1188 1.415 . S
H1190 C1187 0.999 . S
H1191 C1172 0.913 . S
H1192 C1210 0.951 . S
H1193 C1212 0.951 . S
H1194 C1214 0.950 . S
H1195 C1215 0.950 . S
H1196 C1217 0.950 . S
H1197 C1220 0.950 . S
H1198 C1221 0.950 1_545 S
H1199 C1223 0.950 . S
H1200 C1224 0.950 . S
H1201 C1225 0.951 . S
H1202 C1227 0.951 . S
H1203 C1229 0.950 . S
H1204 C1230 0.950 . S
H1205 C1232 0.950 . S
H1206 C1235 0.950 . S
H1207 C1236 0.950 . S
H1208 C1238 0.950 . S
H1209 C1239 0.950 . S
C1210 H1192 0.951 . S
C1210 C1211 1.366 . S
C1210 C1212 1.388 . S
C1211 C1210 1.366 . S
C1211 C1215 1.385 . S
C1212 H1193 0.951 . S
C1212 C1210 1.388 . S
C1212 C1213 1.366 . S
C1213 C1212 1.366 . S
C1213 C1214 1.414 . S
C1213 C1216 1.499 . S
C1214 H1194 0.950 . S
C1214 C1213 1.414 . S
C1214 C1215 1.374 . S
C1215 H1195 0.950 . S
C1215 C1211 1.385 . S
C1215 C1214 1.374 . S
C1216 C1213 1.499 . S
C1216 C1217 1.373 . S
C1216 C1218 1.389 . S
C1217 H1196 0.950 . S
C1217 C1216 1.373 . S
C1217 C1233 1.377 . S
C1218 C1216 1.389 . S
C1218 C1219 1.524 . S
C1218 C1232 1.377 . S
C1219 C1218 1.524 . S
C1219 C1220 1.397 . S
C1219 C1224 1.363 . S
C1220 H1197 0.950 . S
C1220 C1219 1.397 . S
C1220 C1221 1.334 . S
C1221 H1198 0.950 1_565 S
C1221 C1220 1.334 . S
C1221 C1222 1.287 . S
C1222 C1221 1.287 . S
C1222 C1223 1.524 . S
C1222 H1241 0.913 . S
C1223 H1199 0.950 . S
C1223 C1222 1.524 . S
C1223 C1224 1.415 . S
C1224 H1200 0.950 . S
C1224 C1219 1.363 . S
C1224 C1223 1.415 . S
C1225 H1201 0.951 . S
C1225 C1226 1.366 . S
C1225 C1227 1.388 . S
C1226 C1225 1.366 . S
C1226 C1230 1.385 . S
C1227 H1202 0.951 . S
C1227 C1225 1.388 . S
C1227 C1228 1.366 . S
C1228 C1227 1.366 . S
C1228 C1229 1.414 . S
C1228 C1231 1.499 . S
C1229 H1203 0.950 . S
C1229 C1228 1.414 . S
C1229 C1230 1.374 . S
C1230 H1204 0.950 . S
C1230 C1226 1.385 . S
C1230 C1229 1.374 . S
C1231 C1228 1.499 . S
C1231 C1232 1.373 . S
C1231 C1233 1.389 . S
C1232 H1205 0.950 . S
C1232 C1218 1.377 . S
C1232 C1231 1.373 . S
C1233 C1217 1.377 . S
C1233 C1231 1.389 . S
C1233 C1234 1.524 . S
C1234 C1233 1.524 . S
C1234 C1235 1.397 . S
C1234 C1239 1.363 . S
C1235 H1206 0.950 . S
C1235 C1234 1.397 . S
C1235 C1236 1.334 . S
C1236 H1207 0.950 . S
C1236 C1235 1.334 . S
C1236 C1237 1.287 . S
C1237 C1236 1.287 . S
C1237 C1238 1.524 . S
C1237 H1240 0.999 . S
C1238 H1208 0.950 . S
C1238 C1237 1.524 . S
C1238 C1239 1.415 . S
C1239 H1209 0.950 . S
C1239 C1234 1.363 . S
C1239 C1238 1.415 . S
H1240 C1237 0.999 . S
H1241 C1222 0.913 . S
H1242 C1260 0.951 . S
H1243 C1262 0.951 . S
H1244 C1264 0.950 . S
H1245 C1265 0.950 . S
H1246 C1267 0.950 . S
H1247 C1270 0.950 . S
H1248 C1271 0.950 . S
H1249 C1273 0.950 . S
H1250 C1274 0.950 . S
H1251 C1275 0.951 . S
H1252 C1277 0.951 . S
H1253 C1279 0.950 . S
H1254 C1280 0.950 . S
H1255 C1282 0.950 . S
H1256 C1285 0.950 . S
H1257 C1286 0.950 . S
H1258 C1288 0.950 . S
H1259 C1289 0.950 . S
C1260 H1242 0.951 . S
C1260 C1261 1.366 . S
C1260 C1262 1.388 . S
C1261 C1260 1.366 . S
C1261 C1265 1.385 . S
C1262 H1243 0.951 . S
C1262 C1260 1.388 . S
C1262 C1263 1.366 . S
C1263 C1262 1.366 . S
C1263 C1264 1.414 . S
C1263 C1266 1.499 . S
C1264 H1244 0.950 . S
C1264 C1263 1.414 . S
C1264 C1265 1.374 . S
C1265 H1245 0.950 . S
C1265 C1261 1.385 . S
C1265 C1264 1.374 . S
C1266 C1263 1.499 . S
C1266 C1267 1.373 . S
C1266 C1268 1.389 . S
C1267 H1246 0.950 . S
C1267 C1266 1.373 . S
C1267 C1283 1.377 . S
C1268 C1266 1.389 . S
C1268 C1269 1.524 . S
C1268 C1282 1.377 . S
C1269 C1268 1.524 . S
C1269 C1270 1.397 . S
C1269 C1274 1.363 . S
C1270 H1247 0.950 . S
C1270 C1269 1.397 . S
C1270 C1271 1.334 . S
C1271 H1248 0.950 . S
C1271 C1270 1.334 . S
C1271 C1272 1.287 . S
C1272 C1271 1.287 . S
C1272 C1273 1.524 . S
C1272 H1291 0.913 . S
C1273 H1249 0.950 . S
C1273 C1272 1.524 . S
C1273 C1274 1.415 . S
C1274 H1250 0.950 . S
C1274 C1269 1.363 . S
C1274 C1273 1.415 . S
C1275 H1251 0.951 . S
C1275 C1276 1.366 . S
C1275 C1277 1.388 . S
C1276 C1275 1.366 . S
C1276 C1280 1.385 . S
C1277 H1252 0.951 . S
C1277 C1275 1.388 . S
C1277 C1278 1.366 . S
C1278 C1277 1.366 . S
C1278 C1279 1.414 . S
C1278 C1281 1.499 . S
C1279 H1253 0.950 . S
C1279 C1278 1.414 . S
C1279 C1280 1.374 . S
C1280 H1254 0.950 . S
C1280 C1276 1.385 . S
C1280 C1279 1.374 . S
C1281 C1278 1.499 . S
C1281 C1282 1.373 . S
C1281 C1283 1.389 . S
C1282 H1255 0.950 . S
C1282 C1268 1.377 . S
C1282 C1281 1.373 . S
C1283 C1267 1.377 . S
C1283 C1281 1.389 . S
C1283 C1284 1.524 . S
C1284 C1283 1.524 . S
C1284 C1285 1.397 . S
C1284 C1289 1.363 . S
C1285 H1256 0.950 . S
C1285 C1284 1.397 . S
C1285 C1286 1.334 . S
C1286 H1257 0.950 . S
C1286 C1285 1.334 . S
C1286 C1287 1.287 . S
C1287 C1286 1.287 . S
C1287 C1288 1.524 . S
C1287 H1290 0.999 . S
C1288 H1258 0.950 . S
C1288 C1287 1.524 . S
C1288 C1289 1.415 . S
C1289 H1259 0.950 . S
C1289 C1284 1.363 . S
C1289 C1288 1.415 . S
H1290 C1287 0.999 . S
H1291 C1272 0.913 . S
H1292 C1310 0.951 . S
H1293 C1312 0.951 . S
H1294 C1314 0.950 . S
H1295 C1315 0.950 . S
H1296 C1317 0.950 . S
H1297 C1320 0.950 . S
H1298 C1321 0.950 . S
H1299 C1323 0.950 . S
H1300 C1324 0.950 . S
H1301 C1325 0.951 . S
H1302 C1327 0.951 . S
H1303 C1329 0.950 . S
H1304 C1330 0.950 . S
H1305 C1332 0.950 . S
H1306 C1335 0.950 . S
H1307 C1336 0.950 . S
H1308 C1338 0.950 . S
H1309 C1339 0.950 . S
C1310 H1292 0.951 . S
C1310 C1311 1.366 . S
C1310 C1312 1.388 . S
C1311 C1310 1.366 . S
C1311 C1315 1.385 . S
C1312 H1293 0.951 . S
C1312 C1310 1.388 . S
C1312 C1313 1.366 . S
C1313 C1312 1.366 . S
C1313 C1314 1.414 . S
C1313 C1316 1.499 . S
C1314 H1294 0.950 . S
C1314 C1313 1.414 . S
C1314 C1315 1.374 . S
C1315 H1295 0.950 . S
C1315 C1311 1.385 . S
C1315 C1314 1.374 . S
C1316 C1313 1.499 . S
C1316 C1317 1.373 . S
C1316 C1318 1.389 . S
C1317 H1296 0.950 . S
C1317 C1316 1.373 . S
C1317 C1333 1.377 . S
C1318 C1316 1.389 . S
C1318 C1319 1.524 . S
C1318 C1332 1.377 . S
C1319 C1318 1.524 . S
C1319 C1320 1.397 . S
C1319 C1324 1.363 . S
C1320 H1297 0.950 . S
C1320 C1319 1.397 . S
C1320 C1321 1.334 . S
C1321 H1298 0.950 . S
C1321 C1320 1.334 . S
C1321 C1322 1.287 . S
C1322 C1321 1.287 . S
C1322 C1323 1.524 . S
C1322 H1341 0.913 . S
C1323 H1299 0.950 . S
C1323 C1322 1.524 . S
C1323 C1324 1.415 . S
C1324 H1300 0.950 . S
C1324 C1319 1.363 . S
C1324 C1323 1.415 . S
C1325 H1301 0.951 . S
C1325 C1326 1.366 . S
C1325 C1327 1.388 . S
C1326 C1325 1.366 . S
C1326 C1330 1.385 . S
C1327 H1302 0.951 . S
C1327 C1325 1.388 . S
C1327 C1328 1.366 . S
C1328 C1327 1.366 . S
C1328 C1329 1.414 . S
C1328 C1331 1.499 . S
C1329 H1303 0.950 . S
C1329 C1328 1.414 . S
C1329 C1330 1.374 . S
C1330 H1304 0.950 . S
C1330 C1326 1.385 . S
C1330 C1329 1.374 . S
C1331 C1328 1.499 . S
C1331 C1332 1.373 . S
C1331 C1333 1.389 . S
C1332 H1305 0.950 . S
C1332 C1318 1.377 . S
C1332 C1331 1.373 . S
C1333 C1317 1.377 . S
C1333 C1331 1.389 . S
C1333 C1334 1.524 . S
C1334 C1333 1.524 . S
C1334 C1335 1.397 . S
C1334 C1339 1.363 . S
C1335 H1306 0.950 . S
C1335 C1334 1.397 . S
C1335 C1336 1.334 . S
C1336 H1307 0.950 . S
C1336 C1335 1.334 . S
C1336 C1337 1.287 . S
C1337 C1336 1.287 . S
C1337 C1338 1.524 . S
C1337 H1340 0.999 . S
C1338 H1308 0.950 . S
C1338 C1337 1.524 . S
C1338 C1339 1.415 . S
C1339 H1309 0.950 . S
C1339 C1334 1.363 . S
C1339 C1338 1.415 . S
H1340 C1337 0.999 . S
H1341 C1322 0.913 . S
H1342 C1360 0.951 . S
H1343 C1362 0.951 . S
H1344 C1364 0.950 . S
H1345 C1365 0.950 . S
H1346 C1367 0.950 . S
H1347 C1370 0.950 . S
H1348 C1371 0.950 . S
H1349 C1373 0.950 . S
H1350 C1374 0.950 . S
H1351 C1375 0.951 . S
H1352 C1377 0.951 . S
H1353 C1379 0.950 . S
H1354 C1380 0.950 . S
H1355 C1382 0.950 . S
H1356 C1385 0.950 . S
H1357 C1386 0.950 . S
H1358 C1388 0.953 . S
H1359 C1389 0.950 . S
C1360 H1342 0.951 . S
C1360 C1361 1.366 . S
C1360 C1362 1.388 . S
C1361 C1360 1.366 . S
C1361 C1365 1.385 . S
C1362 H1343 0.951 . S
C1362 C1360 1.388 . S
C1362 C1363 1.366 . S
C1363 C1362 1.366 . S
C1363 C1364 1.414 . S
C1363 C1366 1.499 . S
C1364 H1344 0.950 . S
C1364 C1363 1.414 . S
C1364 C1365 1.374 . S
C1365 H1345 0.950 . S
C1365 C1361 1.385 . S
C1365 C1364 1.374 . S
C1366 C1363 1.499 . S
C1366 C1367 1.373 . S
C1366 C1368 1.389 . S
C1367 H1346 0.950 . S
C1367 C1366 1.373 . S
C1367 C1383 1.377 . S
C1368 C1366 1.389 . S
C1368 C1369 1.524 . S
C1368 C1382 1.377 . S
C1369 C1368 1.524 . S
C1369 C1370 1.397 . S
C1369 C1374 1.363 . S
C1370 H1347 0.950 . S
C1370 C1369 1.397 . S
C1370 C1371 1.334 . S
C1371 H1348 0.950 . S
C1371 C1370 1.334 . S
C1371 C1372 1.287 . S
C1372 C1371 1.287 . S
C1372 C1373 1.524 . S
C1372 H1391 0.913 . S
C1373 H1349 0.950 . S
C1373 C1372 1.524 . S
C1373 C1374 1.415 . S
C1374 H1350 0.950 . S
C1374 C1369 1.363 . S
C1374 C1373 1.415 . S
C1375 H1351 0.951 . S
C1375 C1376 1.381 . S
C1375 C1377 1.374 1_565 S
C1376 C1375 1.381 . S
C1376 C1380 1.385 . S
C1377 H1352 0.951 . S
C1377 C1375 1.374 1_545 S
C1377 C1378 1.366 . S
C1378 C1377 1.366 . S
C1378 C1379 1.414 1_545 S
C1378 C1381 1.499 . S
C1379 H1353 0.950 . S
C1379 C1378 1.414 1_565 S
C1379 C1380 1.374 . S
C1380 H1354 0.950 . S
C1380 C1376 1.385 . S
C1380 C1379 1.374 . S
C1381 C1378 1.499 . S
C1381 C1382 1.373 . S
C1381 C1383 1.389 . S
C1382 H1355 0.950 . S
C1382 C1368 1.377 . S
C1382 C1381 1.373 . S
C1383 C1367 1.377 . S
C1383 C1381 1.389 . S
C1383 C1384 1.524 . S
C1384 C1383 1.524 . S
C1384 C1385 1.397 1_545 S
C1384 C1389 1.363 . S
C1385 H1356 0.950 . S
C1385 C1384 1.397 1_565 S
C1385 C1386 1.334 . S
C1386 H1357 0.950 . S
C1386 C1385 1.334 . S
C1386 C1387 1.287 . S
C1387 C1386 1.287 . S
C1387 C1388 1.524 . S
C1387 H1390 0.999 . S
C1388 H1358 0.953 . S
C1388 C1387 1.524 . S
C1388 C1389 1.415 1_565 S
C1389 H1359 0.950 . S
C1389 C1384 1.363 . S
C1389 C1388 1.415 1_545 S
H1390 C1387 0.999 . S
H1391 C1372 0.913 . S
H1392 C1410 0.951 . S
H1393 C1412 0.951 . S
H1394 C1414 0.950 . S
H1395 C1415 0.950 . S
H1396 C1417 0.950 . S
H1397 C1420 0.950 . S
H1398 C1421 0.950 . S
H1399 C1423 0.950 . S
H1400 C1424 0.950 . S
H1401 C1425 0.951 . S
H1402 C1427 0.951 . S
H1403 C1429 0.950 . S
H1404 C1430 0.950 . S
H1405 C1432 0.950 . S
H1406 C1435 0.950 . S
H1407 C1436 0.950 . S
H1408 C1438 0.950 . S
H1409 C1439 0.950 . S
C1410 H1392 0.951 . S
C1410 C1411 1.366 . S
C1410 C1412 1.388 . S
C1411 C1410 1.366 . S
C1411 C1415 1.385 . S
C1412 H1393 0.951 . S
C1412 C1410 1.388 . S
C1412 C1413 1.366 . S
C1413 C1412 1.366 . S
C1413 C1414 1.414 . S
C1413 C1416 1.499 . S
C1414 H1394 0.950 . S
C1414 C1413 1.414 . S
C1414 C1415 1.374 . S
C1415 H1395 0.950 . S
C1415 C1411 1.385 . S
C1415 C1414 1.374 . S
C1416 C1413 1.499 . S
C1416 C1417 1.373 . S
C1416 C1418 1.389 . S
C1417 H1396 0.950 . S
C1417 C1416 1.373 . S
C1417 C1433 1.377 . S
C1418 C1416 1.389 . S
C1418 C1419 1.524 . S
C1418 C1432 1.377 . S
C1419 C1418 1.524 . S
C1419 C1420 1.397 . S
C1419 C1424 1.363 . S
C1420 H1397 0.950 . S
C1420 C1419 1.397 . S
C1420 C1421 1.334 . S
C1421 H1398 0.950 . S
C1421 C1420 1.334 . S
C1421 C1422 1.287 . S
C1422 C1421 1.287 . S
C1422 C1423 1.524 . S
C1422 H1441 0.913 . S
C1423 H1399 0.950 . S
C1423 C1422 1.524 . S
C1423 C1424 1.415 . S
C1424 H1400 0.950 . S
C1424 C1419 1.363 . S
C1424 C1423 1.415 . S
C1425 H1401 0.951 . S
C1425 C1426 1.366 . S
C1425 C1427 1.388 . S
C1426 C1425 1.366 . S
C1426 C1430 1.385 . S
C1427 H1402 0.951 . S
C1427 C1425 1.388 . S
C1427 C1428 1.366 . S
C1428 C1427 1.366 . S
C1428 C1429 1.414 . S
C1428 C1431 1.499 . S
C1429 H1403 0.950 . S
C1429 C1428 1.414 . S
C1429 C1430 1.374 . S
C1430 H1404 0.950 . S
C1430 C1426 1.385 . S
C1430 C1429 1.374 . S
C1431 C1428 1.499 . S
C1431 C1432 1.373 . S
C1431 C1433 1.389 . S
C1432 H1405 0.950 . S
C1432 C1418 1.377 . S
C1432 C1431 1.373 . S
C1433 C1417 1.377 . S
C1433 C1431 1.389 . S
C1433 C1434 1.524 . S
C1434 C1433 1.524 . S
C1434 C1435 1.397 . S
C1434 C1439 1.363 . S
C1435 H1406 0.950 . S
C1435 C1434 1.397 . S
C1435 C1436 1.334 . S
C1436 H1407 0.950 . S
C1436 C1435 1.334 . S
C1436 C1437 1.287 . S
C1437 C1436 1.287 . S
C1437 C1438 1.524 . S
C1437 H1440 0.999 . S
C1438 H1408 0.950 . S
C1438 C1437 1.524 . S
C1438 C1439 1.415 . S
C1439 H1409 0.950 . S
C1439 C1434 1.363 . S
C1439 C1438 1.415 . S
H1440 C1437 0.999 . S
H1441 C1422 0.913 . S
H1442 C1460 0.951 . S
H1443 C1462 0.951 . S
H1444 C1464 0.950 . S
H1445 C1465 0.950 . S
H1446 C1467 0.950 . S
H1447 C1470 0.950 . S
H1448 C1471 0.950 . S
H1449 C1473 0.950 . S
H1450 C1474 0.950 . S
H1451 C1475 0.951 . S
H1452 C1477 0.951 . S
H1453 C1479 0.950 . S
H1454 C1480 0.950 . S
H1455 C1482 0.950 . S
H1456 C1485 0.950 . S
H1457 C1486 0.950 . S
H1458 C1488 0.950 . S
H1459 C1489 0.950 . S
C1460 H1442 0.951 . S
C1460 C1461 1.366 . S
C1460 C1462 1.388 . S
C1461 C1460 1.366 . S
C1461 C1465 1.385 . S
C1462 H1443 0.951 . S
C1462 C1460 1.388 . S
C1462 C1463 1.366 . S
C1463 C1462 1.366 . S
C1463 C1464 1.414 . S
C1463 C1466 1.499 . S
C1464 H1444 0.950 . S
C1464 C1463 1.414 . S
C1464 C1465 1.374 . S
C1465 H1445 0.950 . S
C1465 C1461 1.385 . S
C1465 C1464 1.374 . S
C1466 C1463 1.499 . S
C1466 C1467 1.373 . S
C1466 C1468 1.389 . S
C1467 H1446 0.950 . S
C1467 C1466 1.373 . S
C1467 C1483 1.377 . S
C1468 C1466 1.389 . S
C1468 C1469 1.524 . S
C1468 C1482 1.377 . S
C1469 C1468 1.524 . S
C1469 C1470 1.397 . S
C1469 C1474 1.363 . S
C1470 H1447 0.950 . S
C1470 C1469 1.397 . S
C1470 C1471 1.334 . S
C1471 H1448 0.950 . S
C1471 C1470 1.334 . S
C1471 C1472 1.287 . S
C1472 C1471 1.287 . S
C1472 C1473 1.524 . S
C1472 H1491 0.913 . S
C1473 H1449 0.950 . S
C1473 C1472 1.524 . S
C1473 C1474 1.415 . S
C1474 H1450 0.950 . S
C1474 C1469 1.363 . S
C1474 C1473 1.415 . S
C1475 H1451 0.951 . S
C1475 C1476 1.366 . S
C1475 C1477 1.388 . S
C1476 C1475 1.366 . S
C1476 C1480 1.385 . S
C1477 H1452 0.951 . S
C1477 C1475 1.388 . S
C1477 C1478 1.366 . S
C1478 C1477 1.366 . S
C1478 C1479 1.414 . S
C1478 C1481 1.499 . S
C1479 H1453 0.950 . S
C1479 C1478 1.414 . S
C1479 C1480 1.374 . S
C1480 H1454 0.950 . S
C1480 C1476 1.385 . S
C1480 C1479 1.374 . S
C1481 C1478 1.499 . S
C1481 C1482 1.373 . S
C1481 C1483 1.389 . S
C1482 H1455 0.950 . S
C1482 C1468 1.377 . S
C1482 C1481 1.373 . S
C1483 C1467 1.377 . S
C1483 C1481 1.389 . S
C1483 C1484 1.524 . S
C1484 C1483 1.524 . S
C1484 C1485 1.397 . S
C1484 C1489 1.363 . S
C1485 H1456 0.950 . S
C1485 C1484 1.397 . S
C1485 C1486 1.334 . S
C1486 H1457 0.950 . S
C1486 C1485 1.334 . S
C1486 C1487 1.287 . S
C1487 C1486 1.287 . S
C1487 C1488 1.524 . S
C1487 H1490 0.999 . S
C1488 H1458 0.950 . S
C1488 C1487 1.524 . S
C1488 C1489 1.415 . S
C1489 H1459 0.950 . S
C1489 C1484 1.363 . S
C1489 C1488 1.415 . S
H1490 C1487 0.999 . S
H1491 C1472 0.913 . S
H1492 C1510 0.951 . S
H1493 C1512 0.951 . S
H1494 C1514 0.950 . S
H1495 C1515 0.950 . S
H1496 C1517 0.950 . S
H1497 C1520 0.950 . S
H1498 C1521 0.950 . S
H1499 C1523 0.950 . S
H1500 C1524 0.950 . S
H1501 C1525 0.951 . S
H1502 C1527 0.951 1_545 S
H1503 C1529 0.950 1_545 S
H1504 C1530 0.950 . S
H1505 C1532 0.950 1_565 S
H1506 C1535 0.950 . S
H1507 C1536 0.950 . S
H1508 C1538 0.950 . S
H1509 C1539 0.950 . S
C1510 H1492 0.951 . S
C1510 C1511 1.366 . S
C1510 C1512 1.388 . S
C1511 C1510 1.366 . S
C1511 C1515 1.385 . S
C1512 H1493 0.951 . S
C1512 C1510 1.388 . S
C1512 C1513 1.366 . S
C1513 C1512 1.366 . S
C1513 C1514 1.414 . S
C1513 C1516 1.499 . S
C1514 H1494 0.950 . S
C1514 C1513 1.414 . S
C1514 C1515 1.374 . S
C1515 H1495 0.950 . S
C1515 C1511 1.385 . S
C1515 C1514 1.374 . S
C1516 C1513 1.499 . S
C1516 C1517 1.373 . S
C1516 C1518 1.389 . S
C1517 H1496 0.950 . S
C1517 C1516 1.373 . S
C1517 C1533 1.377 . S
C1518 C1516 1.389 . S
C1518 C1519 1.524 . S
C1518 C1532 1.377 . S
C1519 C1518 1.524 . S
C1519 C1520 1.397 . S
C1519 C1524 1.363 . S
C1520 H1497 0.950 . S
C1520 C1519 1.397 . S
C1520 C1521 1.334 1_545 S
C1521 H1498 0.950 . S
C1521 C1520 1.334 1_565 S
C1521 C1522 1.287 . S
C1522 C1521 1.287 . S
C1522 C1523 1.524 . S
C1522 H1541 0.913 . S
C1523 H1499 0.950 . S
C1523 C1522 1.524 . S
C1523 C1524 1.415 1_565 S
C1524 H1500 0.950 . S
C1524 C1519 1.363 . S
C1524 C1523 1.415 1_545 S
C1525 H1501 0.951 . S
C1525 C1526 1.366 . S
C1525 C1527 1.388 . S
C1526 C1525 1.366 . S
C1526 C1530 1.385 . S
C1527 H1502 0.951 1_565 S
C1527 C1525 1.388 . S
C1527 C1528 1.366 1_565 S
C1528 C1527 1.366 1_545 S
C1528 C1529 1.414 1_545 S
C1528 C1531 1.499 . S
C1529 H1503 0.950 1_565 S
C1529 C1528 1.414 1_565 S
C1529 C1530 1.374 . S
C1530 H1504 0.950 . S
C1530 C1526 1.385 . S
C1530 C1529 1.374 . S
C1531 C1528 1.499 . S
C1531 C1532 1.373 . S
C1531 C1533 1.389 . S
C1532 H1505 0.950 1_545 S
C1532 C1518 1.377 . S
C1532 C1531 1.373 . S
C1533 C1517 1.377 . S
C1533 C1531 1.389 . S
C1533 C1534 1.524 . S
C1534 C1533 1.524 . S
C1534 C1535 1.397 . S
C1534 C1539 1.363 . S
C1535 H1506 0.950 . S
C1535 C1534 1.397 . S
C1535 C1536 1.334 . S
C1536 H1507 0.950 . S
C1536 C1535 1.334 . S
C1536 C1537 1.287 . S
C1537 C1536 1.287 . S
C1537 C1538 1.524 . S
C1537 H1540 0.999 . S
C1538 H1508 0.950 . S
C1538 C1537 1.524 . S
C1538 C1539 1.415 . S
C1539 H1509 0.950 . S
C1539 C1534 1.363 . S
C1539 C1538 1.415 . S
H1540 C1537 0.999 . S
H1541 C1522 0.913 . S
H1542 C1560 0.951 . S
H1543 C1562 0.951 . S
H1544 C1564 0.950 . S
H1545 C1565 0.950 . S
H1546 C1567 0.950 . S
H1547 C1570 0.950 . S
H1548 C1571 0.950 . S
H1549 C1573 0.950 . S
H1550 C1574 0.950 . S
H1551 C1575 0.951 . S
H1552 C1577 0.951 . S
H1553 C1579 0.950 . S
H1554 C1580 0.950 . S
H1555 C1582 0.950 . S
H1556 C1585 0.950 . S
H1557 C1586 0.950 . S
H1558 C1588 0.950 . S
H1559 C1589 0.950 . S
C1560 H1542 0.951 . S
C1560 C1561 1.366 . S
C1560 C1562 1.388 . S
C1561 C1560 1.366 . S
C1561 C1565 1.385 . S
C1562 H1543 0.951 . S
C1562 C1560 1.388 . S
C1562 C1563 1.366 . S
C1563 C1562 1.366 . S
C1563 C1564 1.414 . S
C1563 C1566 1.499 . S
C1564 H1544 0.950 . S
C1564 C1563 1.414 . S
C1564 C1565 1.374 . S
C1565 H1545 0.950 . S
C1565 C1561 1.385 . S
C1565 C1564 1.374 . S
C1566 C1563 1.499 . S
C1566 C1567 1.373 . S
C1566 C1568 1.389 . S
C1567 H1546 0.950 . S
C1567 C1566 1.373 . S
C1567 C1583 1.377 . S
C1568 C1566 1.389 . S
C1568 C1569 1.524 . S
C1568 C1582 1.377 . S
C1569 C1568 1.524 . S
C1569 C1570 1.397 . S
C1569 C1574 1.363 . S
C1570 H1547 0.950 . S
C1570 C1569 1.397 . S
C1570 C1571 1.334 . S
C1571 H1548 0.950 . S
C1571 C1570 1.334 . S
C1571 C1572 1.287 . S
C1572 C1571 1.287 . S
C1572 C1573 1.524 . S
C1572 H1591 0.913 1_455 S
C1573 H1549 0.950 . S
C1573 C1572 1.524 . S
C1573 C1574 1.415 . S
C1574 H1550 0.950 . S
C1574 C1569 1.363 . S
C1574 C1573 1.415 . S
C1575 H1551 0.951 . S
C1575 C1576 1.366 . S
C1575 C1577 1.388 . S
C1576 C1575 1.366 . S
C1576 C1580 1.385 . S
C1577 H1552 0.951 . S
C1577 C1575 1.388 . S
C1577 C1578 1.366 . S
C1578 C1577 1.366 . S
C1578 C1579 1.414 . S
C1578 C1581 1.499 . S
C1579 H1553 0.950 . S
C1579 C1578 1.414 . S
C1579 C1580 1.374 . S
C1580 H1554 0.950 . S
C1580 C1576 1.385 . S
C1580 C1579 1.374 . S
C1581 C1578 1.499 . S
C1581 C1582 1.373 . S
C1581 C1583 1.389 . S
C1582 H1555 0.950 . S
C1582 C1568 1.377 . S
C1582 C1581 1.373 . S
C1583 C1567 1.377 . S
C1583 C1581 1.389 . S
C1583 C1584 1.524 . S
C1584 C1583 1.524 . S
C1584 C1585 1.397 . S
C1584 C1589 1.363 . S
C1585 H1556 0.950 . S
C1585 C1584 1.397 . S
C1585 C1586 1.334 . S
C1586 H1557 0.950 . S
C1586 C1585 1.334 . S
C1586 C1587 1.287 . S
C1587 C1586 1.287 . S
C1587 C1588 1.524 . S
C1587 H1590 0.999 . S
C1588 H1558 0.950 . S
C1588 C1587 1.524 . S
C1588 C1589 1.415 . S
C1589 H1559 0.950 . S
C1589 C1584 1.363 . S
C1589 C1588 1.415 . S
H1590 C1587 0.999 . S
H1591 C1572 0.913 1_655 S
H1592 C1610 0.951 . S
H1593 C1612 0.951 . S
H1594 C1614 0.950 . S
H1595 C1615 0.950 . S
H1596 C1617 0.950 . S
H1597 C1620 0.950 . S
H1598 C1621 0.950 . S
H1599 C1623 0.950 . S
H1600 C1624 0.950 . S
H1601 C1625 0.951 . S
H1602 C1627 0.951 . S
H1603 C1629 0.950 . S
H1604 C1630 0.950 . S
H1605 C1632 0.950 . S
H1606 C1635 0.950 . S
H1607 C1636 0.950 . S
H1608 C1638 0.950 . S
H1609 C1639 0.950 . S
C1610 H1592 0.951 . S
C1610 C1611 1.366 . S
C1610 C1612 1.388 . S
C1611 C1610 1.366 . S
C1611 C1615 1.385 . S
C1612 H1593 0.951 . S
C1612 C1610 1.388 . S
C1612 C1613 1.366 . S
C1613 C1612 1.366 . S
C1613 C1614 1.414 . S
C1613 C1616 1.499 . S
C1614 H1594 0.950 . S
C1614 C1613 1.414 . S
C1614 C1615 1.374 . S
C1615 H1595 0.950 . S
C1615 C1611 1.385 . S
C1615 C1614 1.374 . S
C1616 C1613 1.499 . S
C1616 C1617 1.373 . S
C1616 C1618 1.389 . S
C1617 H1596 0.950 . S
C1617 C1616 1.373 . S
C1617 C1633 1.377 . S
C1618 C1616 1.389 . S
C1618 C1619 1.524 . S
C1618 C1632 1.377 . S
C1619 C1618 1.524 . S
C1619 C1620 1.397 . S
C1619 C1624 1.363 . S
C1620 H1597 0.950 . S
C1620 C1619 1.397 . S
C1620 C1621 1.334 . S
C1621 H1598 0.950 . S
C1621 C1620 1.334 . S
C1621 C1622 1.287 . S
C1622 C1621 1.287 . S
C1622 C1623 1.524 . S
C1622 H1641 0.913 . S
C1623 H1599 0.950 . S
C1623 C1622 1.524 . S
C1623 C1624 1.415 . S
C1624 H1600 0.950 . S
C1624 C1619 1.363 . S
C1624 C1623 1.415 . S
C1625 H1601 0.951 . S
C1625 C1626 1.366 . S
C1625 C1627 1.388 . S
C1626 C1625 1.366 . S
C1626 C1630 1.385 . S
C1627 H1602 0.951 . S
C1627 C1625 1.388 . S
C1627 C1628 1.366 . S
C1628 C1627 1.366 . S
C1628 C1629 1.414 . S
C1628 C1631 1.499 . S
C1629 H1603 0.950 . S
C1629 C1628 1.414 . S
C1629 C1630 1.374 . S
C1630 H1604 0.950 . S
C1630 C1626 1.385 . S
C1630 C1629 1.374 . S
C1631 C1628 1.499 . S
C1631 C1632 1.373 . S
C1631 C1633 1.389 . S
C1632 H1605 0.950 . S
C1632 C1618 1.377 . S
C1632 C1631 1.373 . S
C1633 C1617 1.377 . S
C1633 C1631 1.389 . S
C1633 C1634 1.524 . S
C1634 C1633 1.524 . S
C1634 C1635 1.397 . S
C1634 C1639 1.363 . S
C1635 H1606 0.950 . S
C1635 C1634 1.397 . S
C1635 C1636 1.334 . S
C1636 H1607 0.950 . S
C1636 C1635 1.334 . S
C1636 C1637 1.287 . S
C1637 C1636 1.287 . S
C1637 C1638 1.524 . S
C1637 H1640 0.999 . S
C1638 H1608 0.950 . S
C1638 C1637 1.524 . S
C1638 C1639 1.415 . S
C1639 H1609 0.950 . S
C1639 C1634 1.363 . S
C1639 C1638 1.415 . S
H1640 C1637 0.999 . S
H1641 C1622 0.913 . S
H1642 C1660 0.951 . S
H1643 C1662 0.951 . S
H1644 C1664 0.950 . S
H1645 C1665 0.950 . S
H1646 C1667 0.950 . S
H1647 C1670 0.950 . S
H1648 C1671 0.950 . S
H1649 C1673 0.950 . S
H1650 C1674 0.950 . S
H1651 C1675 0.951 . S
H1652 C1677 0.951 . S
H1653 C1679 0.950 . S
H1654 C1680 0.950 . S
H1655 C1682 0.950 . S
H1656 C1685 0.950 . S
H1657 C1686 0.950 . S
H1658 C1688 0.950 . S
H1659 C1689 0.950 . S
C1660 H1642 0.951 . S
C1660 C1661 1.366 . S
C1660 C1662 1.388 . S
C1661 C1660 1.366 . S
C1661 C1665 1.385 . S
C1662 H1643 0.951 . S
C1662 C1660 1.388 . S
C1662 C1663 1.366 . S
C1663 C1662 1.366 . S
C1663 C1664 1.414 . S
C1663 C1666 1.499 . S
C1664 H1644 0.950 . S
C1664 C1663 1.414 . S
C1664 C1665 1.374 . S
C1665 H1645 0.950 . S
C1665 C1661 1.385 . S
C1665 C1664 1.374 . S
C1666 C1663 1.499 . S
C1666 C1667 1.373 . S
C1666 C1668 1.389 . S
C1667 H1646 0.950 . S
C1667 C1666 1.373 . S
C1667 C1683 1.377 . S
C1668 C1666 1.389 . S
C1668 C1669 1.524 . S
C1668 C1682 1.377 . S
C1669 C1668 1.524 . S
C1669 C1670 1.397 . S
C1669 C1674 1.363 . S
C1670 H1647 0.950 . S
C1670 C1669 1.397 . S
C1670 C1671 1.334 . S
C1671 H1648 0.950 . S
C1671 C1670 1.334 . S
C1671 C1672 1.287 . S
C1672 C1671 1.287 . S
C1672 C1673 1.524 . S
C1672 H1691 0.913 . S
C1673 H1649 0.950 . S
C1673 C1672 1.524 . S
C1673 C1674 1.415 . S
C1674 H1650 0.950 . S
C1674 C1669 1.363 . S
C1674 C1673 1.415 . S
C1675 H1651 0.951 . S
C1675 C1676 1.366 . S
C1675 C1677 1.388 . S
C1676 C1675 1.366 . S
C1676 C1680 1.385 . S
C1677 H1652 0.951 . S
C1677 C1675 1.388 . S
C1677 C1678 1.366 . S
C1678 C1677 1.366 . S
C1678 C1679 1.414 . S
C1678 C1681 1.499 . S
C1679 H1653 0.950 . S
C1679 C1678 1.414 . S
C1679 C1680 1.374 . S
C1680 H1654 0.950 . S
C1680 C1676 1.385 . S
C1680 C1679 1.374 . S
C1681 C1678 1.499 . S
C1681 C1682 1.373 . S
C1681 C1683 1.389 . S
C1682 H1655 0.950 . S
C1682 C1668 1.377 . S
C1682 C1681 1.373 . S
C1683 C1667 1.377 . S
C1683 C1681 1.389 . S
C1683 C1684 1.524 . S
C1684 C1683 1.524 . S
C1684 C1685 1.397 . S
C1684 C1689 1.363 . S
C1685 H1656 0.950 . S
C1685 C1684 1.397 . S
C1685 C1686 1.334 . S
C1686 H1657 0.950 . S
C1686 C1685 1.334 . S
C1686 C1687 1.287 . S
C1687 C1686 1.287 . S
C1687 C1688 1.524 . S
C1687 H1690 0.999 . S
C1688 H1658 0.950 . S
C1688 C1687 1.524 . S
C1688 C1689 1.415 . S
C1689 H1659 0.950 . S
C1689 C1684 1.363 . S
C1689 C1688 1.415 . S
H1690 C1687 0.999 . S
H1691 C1672 0.913 . S
H1692 C1710 0.951 . S
H1693 C1712 0.951 . S
H1694 C1714 0.950 . S
H1695 C1715 0.950 . S
H1696 C1717 0.950 . S
H1697 C1720 0.950 1_655 S
H1698 C1721 0.950 . S
H1699 C1723 0.950 . S
H1700 C1724 0.950 . S
H1701 C1725 0.951 . S
H1702 C1727 0.951 . S
H1703 C1729 0.950 . S
H1704 C1730 0.950 . S
H1705 C1732 0.950 . S
H1706 C1735 0.950 . S
H1707 C1736 0.950 . S
H1708 C1738 0.950 . S
H1709 C1739 0.950 . S
C1710 H1692 0.951 . S
C1710 C1711 1.366 . S
C1710 C1712 1.388 . S
C1711 C1710 1.366 . S
C1711 C1715 1.385 . S
C1712 H1693 0.951 . S
C1712 C1710 1.388 . S
C1712 C1713 1.366 . S
C1713 C1712 1.366 . S
C1713 C1714 1.414 . S
C1713 C1716 1.499 . S
C1714 H1694 0.950 . S
C1714 C1713 1.414 . S
C1714 C1715 1.374 . S
C1715 H1695 0.950 . S
C1715 C1711 1.385 . S
C1715 C1714 1.374 . S
C1716 C1713 1.499 . S
C1716 C1717 1.373 . S
C1716 C1718 1.389 . S
C1717 H1696 0.950 . S
C1717 C1716 1.373 . S
C1717 C1733 1.377 . S
C1718 C1716 1.389 . S
C1718 C1719 1.524 . S
C1718 C1732 1.377 . S
C1719 C1718 1.524 . S
C1719 C1720 1.397 1_655 S
C1719 C1724 1.363 . S
C1720 H1697 0.950 1_455 S
C1720 C1719 1.397 1_455 S
C1720 C1721 1.334 . S
C1721 H1698 0.950 . S
C1721 C1720 1.334 . S
C1721 C1722 1.287 . S
C1722 C1721 1.287 . S
C1722 C1723 1.524 . S
C1722 H1741 0.913 . S
C1723 H1699 0.950 . S
C1723 C1722 1.524 . S
C1723 C1724 1.415 1_455 S
C1724 H1700 0.950 . S
C1724 C1719 1.363 . S
C1724 C1723 1.415 1_655 S
C1725 H1701 0.951 . S
C1725 C1726 1.366 . S
C1725 C1727 1.388 . S
C1726 C1725 1.366 . S
C1726 C1730 1.385 . S
C1727 H1702 0.951 . S
C1727 C1725 1.388 . S
C1727 C1728 1.366 . S
C1728 C1727 1.366 . S
C1728 C1729 1.414 . S
C1728 C1731 1.499 . S
C1729 H1703 0.950 . S
C1729 C1728 1.414 . S
C1729 C1730 1.374 . S
C1730 H1704 0.950 . S
C1730 C1726 1.385 . S
C1730 C1729 1.374 . S
C1731 C1728 1.499 . S
C1731 C1732 1.373 . S
C1731 C1733 1.389 . S
C1732 H1705 0.950 . S
C1732 C1718 1.377 . S
C1732 C1731 1.373 . S
C1733 C1717 1.377 . S
C1733 C1731 1.389 . S
C1733 C1734 1.524 . S
C1734 C1733 1.524 . S
C1734 C1735 1.397 . S
C1734 C1739 1.363 . S
C1735 H1706 0.950 . S
C1735 C1734 1.397 . S
C1735 C1736 1.334 . S
C1736 H1707 0.950 . S
C1736 C1735 1.334 . S
C1736 C1737 1.287 . S
C1737 C1736 1.287 . S
C1737 C1738 1.524 . S
C1737 H1740 0.999 . S
C1738 H1708 0.950 . S
C1738 C1737 1.524 . S
C1738 C1739 1.415 . S
C1739 H1709 0.950 . S
C1739 C1734 1.363 . S
C1739 C1738 1.415 . S
H1740 C1737 0.999 . S
H1741 C1722 0.913 . S
H1742 C1760 0.951 . S
H1743 C1762 0.951 . S
H1744 C1764 0.950 . S
H1745 C1765 0.950 . S
H1746 C1767 0.950 . S
H1747 C1770 0.950 . S
H1748 C1771 0.950 . S
H1749 C1773 0.950 . S
H1750 C1774 0.950 . S
H1751 C1775 0.951 . S
H1752 C1777 0.951 . S
H1753 C1779 0.950 . S
H1754 C1780 0.950 . S
H1755 C1782 0.950 . S
H1756 C1785 0.950 . S
H1757 C1786 0.950 . S
H1758 C1788 0.950 1_655 S
H1759 C1789 0.950 . S
C1760 H1742 0.951 . S
C1760 C1761 1.366 . S
C1760 C1762 1.388 . S
C1761 C1760 1.366 . S
C1761 C1765 1.385 . S
C1762 H1743 0.951 . S
C1762 C1760 1.388 . S
C1762 C1763 1.366 . S
C1763 C1762 1.366 . S
C1763 C1764 1.414 . S
C1763 C1766 1.499 . S
C1764 H1744 0.950 . S
C1764 C1763 1.414 . S
C1764 C1765 1.374 . S
C1765 H1745 0.950 . S
C1765 C1761 1.385 . S
C1765 C1764 1.374 . S
C1766 C1763 1.499 . S
C1766 C1767 1.373 . S
C1766 C1768 1.389 . S
C1767 H1746 0.950 . S
C1767 C1766 1.373 . S
C1767 C1783 1.377 . S
C1768 C1766 1.389 . S
C1768 C1769 1.524 . S
C1768 C1782 1.377 . S
C1769 C1768 1.524 . S
C1769 C1770 1.397 . S
C1769 C1774 1.363 . S
C1770 H1747 0.950 . S
C1770 C1769 1.397 . S
C1770 C1771 1.334 . S
C1771 H1748 0.950 . S
C1771 C1770 1.334 . S
C1771 C1772 1.287 . S
C1772 C1771 1.287 . S
C1772 C1773 1.524 . S
C1772 H1791 0.913 . S
C1773 H1749 0.950 . S
C1773 C1772 1.524 . S
C1773 C1774 1.415 . S
C1774 H1750 0.950 . S
C1774 C1769 1.363 . S
C1774 C1773 1.415 . S
C1775 H1751 0.951 . S
C1775 C1776 1.366 . S
C1775 C1777 1.388 . S
C1776 C1775 1.366 . S
C1776 C1780 1.385 1_655 S
C1777 H1752 0.951 . S
C1777 C1775 1.388 . S
C1777 C1778 1.366 1_655 S
C1778 C1777 1.366 1_455 S
C1778 C1779 1.414 . S
C1778 C1781 1.499 . S
C1779 H1753 0.950 . S
C1779 C1778 1.414 . S
C1779 C1780 1.374 . S
C1780 H1754 0.950 . S
C1780 C1776 1.385 1_455 S
C1780 C1779 1.374 . S
C1781 C1778 1.499 . S
C1781 C1782 1.373 . S
C1781 C1783 1.389 . S
C1782 H1755 0.950 . S
C1782 C1768 1.377 . S
C1782 C1781 1.373 . S
C1783 C1767 1.377 . S
C1783 C1781 1.389 . S
C1783 C1784 1.524 . S
C1784 C1783 1.524 . S
C1784 C1785 1.397 . S
C1784 C1789 1.363 . S
C1785 H1756 0.950 . S
C1785 C1784 1.397 . S
C1785 C1786 1.334 . S
C1786 H1757 0.950 . S
C1786 C1785 1.334 . S
C1786 C1787 1.287 . S
C1787 C1786 1.287 . S
C1787 C1788 1.524 . S
C1787 H1790 0.999 . S
C1788 H1758 0.950 1_455 S
C1788 C1787 1.524 . S
C1788 C1789 1.415 . S
C1789 H1759 0.950 . S
C1789 C1784 1.363 . S
C1789 C1788 1.415 . S
H1790 C1787 0.999 . S
H1791 C1772 0.913 . S
H1792 C1810 0.951 . S
H1793 C1812 0.951 . S
H1794 C1814 0.950 . S
H1795 C1815 0.950 . S
H1796 C1817 0.950 . S
H1797 C1820 0.950 . S
H1798 C1821 0.950 . S
H1799 C1823 0.950 . S
H1800 C1824 0.950 . S
H1801 C1825 0.951 . S
H1802 C1827 0.951 . S
H1803 C1829 0.950 . S
H1804 C1830 0.950 . S
H1805 C1832 0.950 . S
H1806 C1835 0.950 . S
H1807 C1836 0.950 . S
H1808 C1838 0.950 . S
H1809 C1839 0.950 . S
C1810 H1792 0.951 . S
C1810 C1811 1.366 . S
C1810 C1812 1.388 . S
C1811 C1810 1.366 . S
C1811 C1815 1.385 . S
C1812 H1793 0.951 . S
C1812 C1810 1.388 . S
C1812 C1813 1.366 . S
C1813 C1812 1.366 . S
C1813 C1814 1.414 . S
C1813 C1816 1.499 . S
C1814 H1794 0.950 . S
C1814 C1813 1.414 . S
C1814 C1815 1.374 . S
C1815 H1795 0.950 . S
C1815 C1811 1.385 . S
C1815 C1814 1.374 . S
C1816 C1813 1.499 . S
C1816 C1817 1.373 . S
C1816 C1818 1.389 . S
C1817 H1796 0.950 . S
C1817 C1816 1.373 . S
C1817 C1833 1.377 . S
C1818 C1816 1.389 . S
C1818 C1819 1.524 . S
C1818 C1832 1.377 . S
C1819 C1818 1.524 . S
C1819 C1820 1.397 . S
C1819 C1824 1.363 . S
C1820 H1797 0.950 . S
C1820 C1819 1.397 . S
C1820 C1821 1.334 . S
C1821 H1798 0.950 . S
C1821 C1820 1.334 . S
C1821 C1822 1.287 . S
C1822 C1821 1.287 . S
C1822 C1823 1.524 . S
C1822 H1841 0.913 . S
C1823 H1799 0.950 . S
C1823 C1822 1.524 . S
C1823 C1824 1.415 . S
C1824 H1800 0.950 . S
C1824 C1819 1.363 . S
C1824 C1823 1.415 . S
C1825 H1801 0.951 . S
C1825 C1826 1.366 . S
C1825 C1827 1.388 . S
C1826 C1825 1.366 . S
C1826 C1830 1.385 . S
C1827 H1802 0.951 . S
C1827 C1825 1.388 . S
C1827 C1828 1.366 . S
C1828 C1827 1.366 . S
C1828 C1829 1.414 . S
C1828 C1831 1.499 . S
C1829 H1803 0.950 . S
C1829 C1828 1.414 . S
C1829 C1830 1.374 . S
C1830 H1804 0.950 . S
C1830 C1826 1.385 . S
C1830 C1829 1.374 . S
C1831 C1828 1.499 . S
C1831 C1832 1.373 . S
C1831 C1833 1.389 . S
C1832 H1805 0.950 . S
C1832 C1818 1.377 . S
C1832 C1831 1.373 . S
C1833 C1817 1.377 . S
C1833 C1831 1.389 . S
C1833 C1834 1.524 . S
C1834 C1833 1.524 . S
C1834 C1835 1.397 . S
C1834 C1839 1.363 . S
C1835 H1806 0.950 . S
C1835 C1834 1.397 . S
C1835 C1836 1.334 . S
C1836 H1807 0.950 . S
C1836 C1835 1.334 . S
C1836 C1837 1.287 . S
C1837 C1836 1.287 . S
C1837 C1838 1.524 . S
C1837 H1840 0.999 . S
C1838 H1808 0.950 . S
C1838 C1837 1.524 . S
C1838 C1839 1.415 . S
C1839 H1809 0.950 . S
C1839 C1834 1.363 . S
C1839 C1838 1.415 . S
H1840 C1837 0.999 . S
H1841 C1822 0.913 . S
H1842 C1860 0.951 . S
H1843 C1862 0.951 . S
H1844 C1864 0.950 . S
H1845 C1865 0.950 . S
H1846 C1867 0.950 . S
H1847 C1870 0.950 . S
H1848 C1871 0.950 . S
H1849 C1873 0.950 . S
H1850 C1874 0.950 . S
H1851 C1875 0.951 . S
H1852 C1877 0.951 . S
H1853 C1879 0.950 . S
H1854 C1880 0.950 . S
H1855 C1882 0.950 . S
H1856 C1885 0.950 . S
H1857 C1886 0.950 . S
H1858 C1888 0.950 . S
H1859 C1889 0.950 . S
C1860 H1842 0.951 . S
C1860 C1861 1.366 . S
C1860 C1862 1.388 . S
C1861 C1860 1.366 . S
C1861 C1865 1.385 . S
C1862 H1843 0.951 . S
C1862 C1860 1.388 . S
C1862 C1863 1.366 . S
C1863 C1862 1.366 . S
C1863 C1864 1.414 . S
C1863 C1866 1.499 . S
C1864 H1844 0.950 . S
C1864 C1863 1.414 . S
C1864 C1865 1.374 . S
C1865 H1845 0.950 . S
C1865 C1861 1.385 . S
C1865 C1864 1.374 . S
C1866 C1863 1.499 . S
C1866 C1867 1.373 . S
C1866 C1868 1.389 . S
C1867 H1846 0.950 . S
C1867 C1866 1.373 . S
C1867 C1883 1.377 . S
C1868 C1866 1.389 . S
C1868 C1869 1.524 . S
C1868 C1882 1.377 . S
C1869 C1868 1.524 . S
C1869 C1870 1.397 . S
C1869 C1874 1.363 . S
C1870 H1847 0.950 . S
C1870 C1869 1.397 . S
C1870 C1871 1.334 . S
C1871 H1848 0.950 . S
C1871 C1870 1.334 . S
C1871 C1872 1.287 . S
C1872 C1871 1.287 . S
C1872 C1873 1.524 . S
C1872 H1891 0.913 . S
C1873 H1849 0.950 . S
C1873 C1872 1.524 . S
C1873 C1874 1.415 . S
C1874 H1850 0.950 . S
C1874 C1869 1.363 . S
C1874 C1873 1.415 . S
C1875 H1851 0.951 . S
C1875 C1876 1.366 . S
C1875 C1877 1.388 . S
C1876 C1875 1.366 . S
C1876 C1880 1.385 . S
C1877 H1852 0.951 . S
C1877 C1875 1.388 . S
C1877 C1878 1.366 . S
C1878 C1877 1.366 . S
C1878 C1879 1.414 . S
C1878 C1881 1.499 . S
C1879 H1853 0.950 . S
C1879 C1878 1.414 . S
C1879 C1880 1.374 . S
C1880 H1854 0.950 . S
C1880 C1876 1.385 . S
C1880 C1879 1.374 . S
C1881 C1878 1.499 . S
C1881 C1882 1.373 . S
C1881 C1883 1.389 . S
C1882 H1855 0.950 . S
C1882 C1868 1.377 . S
C1882 C1881 1.373 . S
C1883 C1867 1.377 . S
C1883 C1881 1.389 . S
C1883 C1884 1.524 . S
C1884 C1883 1.524 . S
C1884 C1885 1.397 . S
C1884 C1889 1.363 . S
C1885 H1856 0.950 . S
C1885 C1884 1.397 . S
C1885 C1886 1.334 . S
C1886 H1857 0.950 . S
C1886 C1885 1.334 . S
C1886 C1887 1.287 1_655 S
C1887 C1886 1.287 1_455 S
C1887 C1888 1.524 . S
C1887 H1890 0.999 . S
C1888 H1858 0.950 . S
C1888 C1887 1.524 . S
C1888 C1889 1.415 1_455 S
C1889 H1859 0.950 . S
C1889 C1884 1.363 . S
C1889 C1888 1.415 1_655 S
H1890 C1887 0.999 . S
H1891 C1872 0.913 . S
H1892 C1910 0.951 . S
H1893 C1912 0.951 . S
H1894 C1914 0.950 . S
H1895 C1915 0.950 . S
H1896 C1917 0.950 . S
H1897 C1920 0.950 . S
H1898 C1921 0.950 . S
H1899 C1923 0.950 . S
H1900 C1924 0.950 . S
H1901 C1925 0.951 . S
H1902 C1927 0.951 . S
H1903 C1929 0.950 . S
H1904 C1930 0.950 . S
H1905 C1932 0.950 . S
H1906 C1935 0.950 . S
H1907 C1936 0.950 . S
H1908 C1938 0.950 . S
H1909 C1939 0.950 . S
C1910 H1892 0.951 . S
C1910 C1911 1.366 . S
C1910 C1912 1.388 . S
C1911 C1910 1.366 . S
C1911 C1915 1.385 . S
C1912 H1893 0.951 . S
C1912 C1910 1.388 . S
C1912 C1913 1.366 . S
C1913 C1912 1.366 . S
C1913 C1914 1.414 . S
C1913 C1916 1.499 . S
C1914 H1894 0.950 . S
C1914 C1913 1.414 . S
C1914 C1915 1.374 . S
C1915 H1895 0.950 . S
C1915 C1911 1.385 . S
C1915 C1914 1.374 . S
C1916 C1913 1.499 . S
C1916 C1917 1.373 . S
C1916 C1918 1.389 . S
C1917 H1896 0.950 . S
C1917 C1916 1.373 . S
C1917 C1933 1.377 . S
C1918 C1916 1.389 . S
C1918 C1919 1.524 . S
C1918 C1932 1.377 . S
C1919 C1918 1.524 . S
C1919 C1920 1.397 . S
C1919 C1924 1.363 . S
C1920 H1897 0.950 . S
C1920 C1919 1.397 . S
C1920 C1921 1.334 1_455 S
C1921 H1898 0.950 . S
C1921 C1920 1.334 1_655 S
C1921 C1922 1.287 . S
C1922 C1921 1.287 . S
C1922 C1923 1.524 . S
C1922 H1941 0.913 . S
C1923 H1899 0.950 . S
C1923 C1922 1.524 . S
C1923 C1924 1.415 1_655 S
C1924 H1900 0.950 . S
C1924 C1919 1.363 . S
C1924 C1923 1.415 1_455 S
C1925 H1901 0.951 . S
C1925 C1926 1.366 . S
C1925 C1927 1.388 1_655 S
C1926 C1925 1.366 . S
C1926 C1930 1.385 . S
C1927 H1902 0.951 . S
C1927 C1925 1.388 1_455 S
C1927 C1928 1.366 . S
C1928 C1927 1.366 . S
C1928 C1929 1.414 . S
C1928 C1931 1.499 . S
C1929 H1903 0.950 . S
C1929 C1928 1.414 . S
C1929 C1930 1.374 1_455 S
C1930 H1904 0.950 . S
C1930 C1926 1.385 . S
C1930 C1929 1.374 1_655 S
C1931 C1928 1.499 . S
C1931 C1932 1.373 . S
C1931 C1933 1.389 . S
C1932 H1905 0.950 . S
C1932 C1918 1.377 . S
C1932 C1931 1.373 . S
C1933 C1917 1.377 . S
C1933 C1931 1.389 . S
C1933 C1934 1.524 . S
C1934 C1933 1.524 . S
C1934 C1935 1.397 . S
C1934 C1939 1.363 . S
C1935 H1906 0.950 . S
C1935 C1934 1.397 . S
C1935 C1936 1.334 . S
C1936 H1907 0.950 . S
C1936 C1935 1.334 . S
C1936 C1937 1.287 . S
C1937 C1936 1.287 . S
C1937 C1938 1.524 . S
C1937 H1940 0.999 . S
C1938 H1908 0.950 . S
C1938 C1937 1.524 . S
C1938 C1939 1.415 . S
C1939 H1909 0.950 . S
C1939 C1934 1.363 . S
C1939 C1938 1.415 . S
H1940 C1937 0.999 . S
H1941 C1922 0.913 . S
H1942 C1960 0.951 . S
H1943 C1962 0.951 . S
H1944 C1964 0.950 . S
H1945 C1965 0.950 . S
H1946 C1967 0.950 . S
H1947 C1970 0.950 . S
H1948 C1971 0.950 . S
H1949 C1973 0.950 . S
H1950 C1974 0.950 . S
H1951 C1975 0.951 . S
H1952 C1977 0.951 . S
H1953 C1979 0.950 . S
H1954 C1980 0.950 . S
H1955 C1982 0.950 . S
H1956 C1985 0.950 . S
H1957 C1986 0.950 . S
H1958 C1988 0.950 . S
H1959 C1989 0.950 . S
C1960 H1942 0.951 . S
C1960 C1961 1.366 . S
C1960 C1962 1.388 . S
C1961 C1960 1.366 . S
C1961 C1965 1.385 . S
C1962 H1943 0.951 . S
C1962 C1960 1.388 . S
C1962 C1963 1.366 . S
C1963 C1962 1.366 . S
C1963 C1964 1.414 . S
C1963 C1966 1.499 . S
C1964 H1944 0.950 . S
C1964 C1963 1.414 . S
C1964 C1965 1.374 . S
C1965 H1945 0.950 . S
C1965 C1961 1.385 . S
C1965 C1964 1.374 . S
C1966 C1963 1.499 . S
C1966 C1967 1.373 . S
C1966 C1968 1.389 . S
C1967 H1946 0.950 . S
C1967 C1966 1.373 . S
C1967 C1983 1.377 . S
C1968 C1966 1.389 . S
C1968 C1969 1.524 . S
C1968 C1982 1.377 . S
C1969 C1968 1.524 . S
C1969 C1970 1.397 . S
C1969 C1974 1.363 . S
C1970 H1947 0.950 . S
C1970 C1969 1.397 . S
C1970 C1971 1.334 . S
C1971 H1948 0.950 . S
C1971 C1970 1.334 . S
C1971 C1972 1.287 . S
C1972 C1971 1.287 . S
C1972 C1973 1.524 . S
C1972 H1991 0.913 . S
C1973 H1949 0.950 . S
C1973 C1972 1.524 . S
C1973 C1974 1.415 . S
C1974 H1950 0.950 . S
C1974 C1969 1.363 . S
C1974 C1973 1.415 . S
C1975 H1951 0.951 . S
C1975 C1976 1.366 . S
C1975 C1977 1.388 . S
C1976 C1975 1.366 . S
C1976 C1980 1.385 . S
C1977 H1952 0.951 . S
C1977 C1975 1.388 . S
C1977 C1978 1.366 . S
C1978 C1977 1.366 . S
C1978 C1979 1.414 . S
C1978 C1981 1.499 . S
C1979 H1953 0.950 . S
C1979 C1978 1.414 . S
C1979 C1980 1.374 . S
C1980 H1954 0.950 . S
C1980 C1976 1.385 . S
C1980 C1979 1.374 . S
C1981 C1978 1.499 . S
C1981 C1982 1.373 . S
C1981 C1983 1.389 . S
C1982 H1955 0.950 . S
C1982 C1968 1.377 . S
C1982 C1981 1.373 . S
C1983 C1967 1.377 . S
C1983 C1981 1.389 . S
C1983 C1984 1.524 . S
C1984 C1983 1.524 . S
C1984 C1985 1.397 . S
C1984 C1989 1.363 . S
C1985 H1956 0.950 . S
C1985 C1984 1.397 . S
C1985 C1986 1.334 . S
C1986 H1957 0.950 . S
C1986 C1985 1.334 . S
C1986 C1987 1.287 . S
C1987 C1986 1.287 . S
C1987 C1988 1.524 . S
C1987 H1990 0.999 . S
C1988 H1958 0.950 . S
C1988 C1987 1.524 . S
C1988 C1989 1.415 . S
C1989 H1959 0.950 . S
C1989 C1984 1.363 . S
C1989 C1988 1.415 . S
H1990 C1987 0.999 . S
H1991 C1972 0.913 . S
C426 C143 1.137 . S
C411 C5 1.140 . S
C476 C180 1.124 . S
C461 C18 1.142 . S
C526 C216 1.135 . S
C511 C31 1.149 . S
C561 C42 1.105 . S
C576 C107 1.147 . S
C611 C57 1.415 . S
C626 C108 1.419 1_556 S
C661 C70 1.410 . S
C676 C144 1.411 . S
C726 C179 1.422 . S
C711 C81 1.422 . S
C776 C215 1.429 . S
C761 C96 1.399 . S
C811 C29 1.422 . S
C826 C287 1.422 . S
C876 C324 1.410 . S
C861 C44 1.410 . S
C911 C3 1.445 . S
C926 C360 1.419 . S
C976 C251 1.429 . S
C961 C16 1.427 . S
C1011 C83 1.149 . S
C1026 C252 1.135 . S
C1061 C94 1.100 . S
C1076 C288 1.125 . S
C1126 C323 1.137 . S
C1111 C55 1.099 . S
C1161 C68 1.105 . S
C1176 C359 1.148 . S
C1226 C178 1.270 . S
C1211 C1 1.272 . S
C1276 C214 1.248 . S
C1261 C14 1.249 . S
C1311 C27 1.218 . S
C1326 C118 1.123 . S
C1361 C49 1.233 . S
C1376 C154 1.142 . S
C1411 C53 1.562 . S
C1426 C226 1.501 . S
C1476 C106 1.666 . S
C1461 C66 1.600 . S
C1526 C142 1.684 . S
C1511 C88 1.679 . S
C1576 C190 1.516 . S
C1561 C92 1.578 . S
C1626 C322 1.684 1_556 S
C1611 C36 1.678 . S
C1676 C358 1.666 . S
C1661 C40 1.600 . S
C1711 C10 1.620 . S
C1726 C262 1.501 . S
C1776 C298 1.517 . S
C1761 C23 1.638 . S
C1826 C370 1.123 . S
C1811 C79 1.218 . S
C1861 C101 1.239 . S
C1876 C250 1.248 . S
C1926 C286 1.270 . S
C1911 C62 1.263 . S
C1976 C334 1.140 . S
C1961 C75 1.234 . S
