# Generated by pormake.
# Topology apo, (3,6)-cn, num edge types: 1
# Building blocks:
#     Node 0, Type 0, BuildingBlock: WUSLED_clean_sbu_0, # of connection points: 3
#     Node 1, Type 0, BuildingBlock: WUSLED_clean_sbu_0, # of connection points: 3
#     Node 2, Type 0, BuildingBlock: WUSLED_clean_sbu_0, # of connection points: 3
#     Node 3, Type 0, BuildingBlock: WUSLED_clean_sbu_0, # of connection points: 3
#     Node 4, Type 0, BuildingBlock: WUSLED_clean_sbu_0, # of connection points: 3
#     Node 5, Type 0, BuildingBlock: WUSLED_clean_sbu_0, # of connection points: 3
#     Node 6, Type 0, BuildingBlock: WUSLED_clean_sbu_0, # of connection points: 3
#     Node 7, Type 0, BuildingBlock: WUSLED_clean_sbu_0, # of connection points: 3
#     Node 8, Type 1, BuildingBlock: KUMBUR_clean_sbu_1, # of connection points: 6
#     Node 9, Type 1, BuildingBlock: KUMBUR_clean_sbu_1, # of connection points: 6
#     Node 10, Type 1, BuildingBlock: KUMBUR_clean_sbu_1, # of connection points: 6
#     Node 11, Type 1, BuildingBlock: KUMBUR_clean_sbu_1, # of connection points: 6
#     Edge 12, Type (0, 1), BuildingBlock: TEMPAE_clean_linker_10, # of connection points: 2
#     Edge 13, Type (0, 1), BuildingBlock: TEMPAE_clean_linker_10, # of connection points: 2
#     Edge 14, Type (0, 1), BuildingBlock: TEMPAE_clean_linker_10, # of connection points: 2
#     Edge 15, Type (0, 1), BuildingBlock: TEMPAE_clean_linker_10, # of connection points: 2
#     Edge 16, Type (0, 1), BuildingBlock: TEMPAE_clean_linker_10, # of connection points: 2
#     Edge 17, Type (0, 1), BuildingBlock: TEMPAE_clean_linker_10, # of connection points: 2
#     Edge 18, Type (0, 1), BuildingBlock: TEMPAE_clean_linker_10, # of connection points: 2
#     Edge 19, Type (0, 1), BuildingBlock: TEMPAE_clean_linker_10, # of connection points: 2
#     Edge 20, Type (0, 1), BuildingBlock: TEMPAE_clean_linker_10, # of connection points: 2
#     Edge 21, Type (0, 1), BuildingBlock: TEMPAE_clean_linker_10, # of connection points: 2
#     Edge 22, Type (0, 1), BuildingBlock: TEMPAE_clean_linker_10, # of connection points: 2
#     Edge 23, Type (0, 1), BuildingBlock: TEMPAE_clean_linker_10, # of connection points: 2
#     Edge 24, Type (0, 1), BuildingBlock: TEMPAE_clean_linker_10, # of connection points: 2
#     Edge 25, Type (0, 1), BuildingBlock: TEMPAE_clean_linker_10, # of connection points: 2
#     Edge 26, Type (0, 1), BuildingBlock: TEMPAE_clean_linker_10, # of connection points: 2
#     Edge 27, Type (0, 1), BuildingBlock: TEMPAE_clean_linker_10, # of connection points: 2
#     Edge 28, Type (0, 1), BuildingBlock: TEMPAE_clean_linker_10, # of connection points: 2
#     Edge 29, Type (0, 1), BuildingBlock: TEMPAE_clean_linker_10, # of connection points: 2
#     Edge 30, Type (0, 1), BuildingBlock: TEMPAE_clean_linker_10, # of connection points: 2
#     Edge 31, Type (0, 1), BuildingBlock: TEMPAE_clean_linker_10, # of connection points: 2
#     Edge 32, Type (0, 1), BuildingBlock: TEMPAE_clean_linker_10, # of connection points: 2
#     Edge 33, Type (0, 1), BuildingBlock: TEMPAE_clean_linker_10, # of connection points: 2
#     Edge 34, Type (0, 1), BuildingBlock: TEMPAE_clean_linker_10, # of connection points: 2
#     Edge 35, Type (0, 1), BuildingBlock: TEMPAE_clean_linker_10, # of connection points: 2
# Relax obj value: 0.010
# Max RMSD: 0.098
# Mean RMSD: 0.074
data_MOF--net-apo--node1-WUSLED_clean_sbu_0--node2-KUMBUR_clean_sbu_1--edge1-TEMPAE_clean_linker_10
_symmetry_space_group_name_H-M    P1
_symmetry_Int_Tables_number       1
_symmetry_cell_setting            triclinic
loop_
_symmetry_equiv_pos_as_xyz
'x, y, z'
_cell_length_a     31.771151
_cell_length_b     55.481813
_cell_length_c     66.94798
_cell_angle_alpha  90.190659
_cell_angle_beta   90.074308
_cell_angle_gamma 90.60801
loop_
_atom_site_label
_atom_site_type_symbol
_atom_site_fract_x
_atom_site_fract_y
_atom_site_fract_z
_atom_type_partial_charge
C0 C 0.28677 0.45144 0.38634 0.0
C1 C 0.31874 0.46359 0.39706 0.0
C2 C 0.32754 0.49216 0.36958 0.0
C3 C 0.33894 0.48392 0.38874 0.0
C4 C 0.29388 0.48062 0.35964 0.0
C5 C 0.27401 0.46049 0.36786 0.0
U6 U 0.25893 0.39978 0.42379 0.0
O7 O 0.19986 0.37858 0.42535 0.0
O8 O 0.25911 0.36078 0.41774 0.0
C9 C 0.21815 0.35848 0.41985 0.0
C10 C 0.26785 0.42837 0.39284 0.0
C11 C 0.19591 0.34348 0.40481 0.0
C12 C 0.18015 0.33158 0.37048 0.0
C13 C 0.19943 0.34755 0.38416 0.0
C14 C 0.15285 0.30788 0.39796 0.0
C15 C 0.15692 0.3114 0.37726 0.0
C16 C 0.17212 0.32371 0.41152 0.0
C17 C 0.30046 0.40639 0.47902 0.0
C18 C 0.30073 0.37838 0.50699 0.0
C19 C 0.33551 0.4173 0.50999 0.0
C20 C 0.32326 0.42299 0.49062 0.0
C21 C 0.3253 0.39479 0.51828 0.0
C22 C 0.28857 0.3841 0.48735 0.0
C23 C 0.29244 0.41295 0.45808 0.0
O24 O 0.29397 0.41089 0.39702 0.0
O25 O 0.23555 0.42941 0.40504 0.0
O26 O 0.25365 0.41817 0.45295 0.0
O27 O 0.31289 0.40082 0.44436 0.0
H28 H 0.32888 0.45696 0.41147 0.0
H29 H 0.36455 0.49248 0.39687 0.0
H30 H 0.28338 0.48683 0.34516 0.0
H31 H 0.24928 0.45149 0.35942 0.0
H32 H 0.1835 0.33496 0.35463 0.0
H33 H 0.21754 0.36278 0.37864 0.0
H34 H 0.13576 0.29242 0.40372 0.0
H35 H 0.16917 0.32018 0.42737 0.0
H36 H 0.29213 0.36096 0.5131 0.0
H37 H 0.35345 0.43055 0.51846 0.0
H38 H 0.33249 0.44032 0.48451 0.0
H39 H 0.2708 0.37105 0.4786 0.0
C40 C 0.21431 0.15018 0.98013 0.0
C41 C 0.19452 0.12835 0.9855 0.0
C42 C 0.18312 0.14374 0.01935 0.0
C43 C 0.17903 0.12514 1.00501 0.0
C44 C 0.20204 0.16565 1.01351 0.0
C45 C 0.21762 0.16873 0.99423 0.0
U46 U 0.23397 0.13491 0.92439 0.0
O47 O 0.23397 0.15956 0.89872 0.0
O48 O 0.29166 0.14019 0.90657 0.0
C49 C 0.27396 0.15603 0.89477 0.0
C50 C 0.232 0.15458 0.96011 0.0
C51 C 0.29953 0.17728 0.88907 0.0
C52 C 0.31851 0.21991 0.89114 0.0
C53 C 0.29656 0.19977 0.89871 0.0
C54 C 0.34744 0.195 0.86486 0.0
C55 C 0.34381 0.21774 0.87395 0.0
C56 C 0.32558 0.17508 0.87234 0.0
C57 C 0.1859 0.07564 0.90269 0.0
C58 C 0.18866 0.06102 0.8684 0.0
C59 C 0.15149 0.03794 0.89365 0.0
C60 C 0.16225 0.0552 0.90797 0.0
C61 C 0.1644 0.04075 0.87381 0.0
C62 C 0.19935 0.0785 0.88282 0.0
C63 C 0.19496 0.09355 0.91837 0.0
O64 O 0.26204 0.1401 0.9542 0.0
O65 O 0.20484 0.15965 0.94596 0.0
O66 O 0.17652 0.11452 0.91655 0.0
O67 O 0.23421 0.09525 0.92446 0.0
H68 H 0.19145 0.11382 0.97474 0.0
H69 H 0.16479 0.108 1.00898 0.0
H70 H 0.20487 0.18061 0.02387 0.0
H71 H 0.23249 0.18574 0.99033 0.0
H72 H 0.31536 0.23719 0.89855 0.0
H73 H 0.27667 0.20185 0.91172 0.0
H74 H 0.36599 0.19275 0.85144 0.0
H75 H 0.32806 0.15796 0.8646 0.0
H76 H 0.19868 0.06345 0.85307 0.0
H77 H 0.13273 0.02241 0.89803 0.0
H78 H 0.15169 0.05271 0.92321 0.0
H79 H 0.21763 0.09422 0.87849 0.0
C80 C 0.79784 0.07855 0.65089 0.0
C81 C 0.82493 0.06598 0.638 0.0
C82 C 0.83883 0.03677 0.66427 0.0
C83 C 0.84561 0.04523 0.64474 0.0
C84 C 0.81117 0.04916 0.67684 0.0
C85 C 0.79104 0.06987 0.67024 0.0
U86 U 0.76622 0.12865 0.61374 0.0
O87 O 0.70649 0.14846 0.61204 0.0
O88 O 0.76543 0.16789 0.61865 0.0
C89 C 0.72434 0.1692 0.61678 0.0
C90 C 0.77733 0.10123 0.64519 0.0
C91 C 0.70235 0.1843 0.63161 0.0
C92 C 0.68147 0.19434 0.66564 0.0
C93 C 0.70116 0.1787 0.65206 0.0
C94 C 0.66368 0.22101 0.63843 0.0
C95 C 0.66265 0.21581 0.65898 0.0
C96 C 0.68322 0.20545 0.62496 0.0
C97 C 0.80497 0.12038 0.55833 0.0
C98 C 0.81503 0.14838 0.53079 0.0
C99 C 0.82658 0.10574 0.52579 0.0
C100 C 0.81591 0.10141 0.54563 0.0
C101 C 0.82772 0.12935 0.51813 0.0
C102 C 0.80357 0.14391 0.55073 0.0
C103 C 0.79872 0.11469 0.57959 0.0
O104 O 0.80251 0.11928 0.64054 0.0
O105 O 0.74431 0.09934 0.63342 0.0
O106 O 0.76053 0.10859 0.58533 0.0
O107 O 0.81922 0.12807 0.59268 0.0
H108 H 0.83047 0.07238 0.62295 0.0
H109 H 0.8668 0.03585 0.63479 0.0
H110 H 0.80589 0.0431 0.69201 0.0
H111 H 0.77049 0.07938 0.68041 0.0
H112 H 0.68092 0.18963 0.68132 0.0
H113 H 0.71572 0.16241 0.65751 0.0
H114 H 0.65027 0.23749 0.63275 0.0
H115 H 0.68397 0.21016 0.60927 0.0
H116 H 0.81528 0.16685 0.52564 0.0
H117 H 0.83425 0.09036 0.51657 0.0
H118 H 0.81705 0.08311 0.55121 0.0
H119 H 0.7949 0.15882 0.5603 0.0
C120 C 0.70913 0.37621 0.05392 0.0
C121 C 0.68342 0.39614 0.05001 0.0
C122 C 0.68076 0.38519 1.01465 0.0
C123 C 0.66922 0.40058 0.03047 0.0
C124 C 0.70584 0.36508 0.01895 0.0
C125 C 0.72 0.36077 0.03829 0.0
U126 U 0.7263 0.39056 0.10967 0.0
O127 O 0.72684 0.36598 0.1354 0.0
O128 O 0.78371 0.38705 0.12784 0.0
C129 C 0.76651 0.3708 0.1396 0.0
C130 C 0.72571 0.37096 0.07395 0.0
C131 C 0.79334 0.35068 0.14588 0.0
C132 C 0.81142 0.30813 0.14719 0.0
C133 C 0.7889 0.32706 0.1384 0.0
C134 C 0.84464 0.33663 0.16987 0.0
C135 C 0.83843 0.31266 0.16354 0.0
C136 C 0.82213 0.3553 0.16126 0.0
C137 C 0.67978 0.44949 0.131 0.0
C138 C 0.67383 0.46178 0.1658 0.0
C139 C 0.65856 0.49012 0.13934 0.0
C140 C 0.66764 0.47256 0.12512 0.0
C141 C 0.6613 0.48491 0.1598 0.0
C142 C 0.68331 0.44415 0.15145 0.0
C143 C 0.6875 0.43153 0.11528 0.0
O144 O 0.75602 0.38533 0.08035 0.0
O145 O 0.69776 0.36563 0.08776 0.0
O146 O 0.66896 0.41039 0.11736 0.0
O147 O 0.72643 0.43019 0.10884 0.0
H148 H 0.67466 0.40828 0.06198 0.0
H149 H 0.64997 0.41621 0.0277 0.0
H150 H 0.71445 0.35244 1.00733 0.0
H151 H 0.73961 0.34527 0.04104 0.0
H152 H 0.80614 0.28991 0.14182 0.0
H153 H 0.76708 0.32314 0.12635 0.0
H154 H 0.86614 0.34097 0.18196 0.0
H155 H 0.82621 0.37339 0.16717 0.0
H156 H 0.67631 0.4574 0.18151 0.0
H157 H 0.64839 0.50767 0.13432 0.0
H158 H 0.66465 0.47695 0.10942 0.0
H159 H 0.69293 0.42642 0.15626 0.0
C160 C 0.71047 0.58232 0.64995 0.0
C161 C 0.69534 0.56416 0.637 0.0
C162 C 0.67602 0.53919 0.66573 0.0
C163 C 0.67825 0.54267 0.64486 0.0
C164 C 0.68975 0.55806 0.67834 0.0
C165 C 0.7071 0.57912 0.67055 0.0
U166 U 0.74136 0.63204 0.61144 0.0
O167 O 0.74368 0.67119 0.61668 0.0
O168 O 0.80167 0.6519 0.60932 0.0
C169 C 0.78474 0.67252 0.61445 0.0
C170 C 0.73073 0.60476 0.64302 0.0
C171 C 0.80818 0.68743 0.6291 0.0
C172 C 0.82414 0.70085 0.66303 0.0
C173 C 0.80319 0.68493 0.64986 0.0
C174 C 0.85617 0.72111 0.63482 0.0
C175 C 0.85039 0.71946 0.65561 0.0
C176 C 0.83517 0.70541 0.62179 0.0
C177 C 0.70328 0.62585 0.55621 0.0
C178 C 0.70462 0.65551 0.52949 0.0
C179 C 0.68028 0.61469 0.52285 0.0
C180 C 0.68757 0.60862 0.54272 0.0
C181 C 0.68834 0.63817 0.51613 0.0
C182 C 0.71228 0.64934 0.5495 0.0
C183 C 0.70793 0.61861 0.57721 0.0
O184 O 0.7629 0.60268 0.63083 0.0
O185 O 0.70562 0.62259 0.63848 0.0
O186 O 0.6879 0.63157 0.59055 0.0
O187 O 0.74571 0.61217 0.58298 0.0
H188 H 0.69729 0.56644 0.62096 0.0
H189 H 0.66777 0.52868 0.63464 0.0
H190 H 0.68714 0.55669 0.69441 0.0
H191 H 0.71819 0.593 0.68076 0.0
H192 H 0.8188 0.69899 0.67892 0.0
H193 H 0.78258 0.67106 0.65584 0.0
H194 H 0.87692 0.73467 0.62849 0.0
H195 H 0.83963 0.70756 0.60585 0.0
H196 H 0.7112 0.6737 0.52446 0.0
H197 H 0.66757 0.60114 0.51275 0.0
H198 H 0.68033 0.59047 0.54765 0.0
H199 H 0.72458 0.66286 0.55972 0.0
C200 C 0.79095 0.88269 0.05176 0.0
C201 C 0.80692 0.9052 0.04552 0.0
C202 C 0.82796 0.88756 1.01358 0.0
C203 C 0.82508 0.90765 0.02644 0.0
C204 C 0.81137 0.86532 0.01993 0.0
C205 C 0.79311 0.86296 0.03875 0.0
U206 U 0.76863 0.89778 0.10763 0.0
O207 O 0.71156 0.88923 0.12515 0.0
O208 O 0.77229 0.87333 0.13335 0.0
C209 C 0.73193 0.87486 0.13731 0.0
C210 C 0.77265 0.87854 0.07174 0.0
C211 C 0.71059 0.8527 0.14436 0.0
C212 C 0.67301 0.81444 0.13983 0.0
C213 C 0.6919 0.83533 0.13167 0.0
C214 C 0.69126 0.82843 0.17307 0.0
C215 C 0.67319 0.81069 0.16066 0.0
C216 C 0.70969 0.84907 0.16502 0.0
C217 C 0.81564 0.95747 0.13011 0.0
C218 C 0.81468 0.97207 0.16449 0.0
C219 C 0.85449 0.99378 0.13933 0.0
C220 C 0.8417 0.977 0.12496 0.0
C221 C 0.84134 0.99141 0.15918 0.0
C222 C 0.80188 0.95508 0.14999 0.0
C223 C 0.80539 0.93974 0.11434 0.0
O224 O 0.79952 0.87378 0.08608 0.0
O225 O 0.74197 0.89272 0.07745 0.0
O226 O 0.76572 0.93747 0.10897 0.0
O227 O 0.82515 0.91911 0.11525 0.0
H228 H 0.80564 0.9207 0.05538 0.0
H229 H 0.83758 0.92503 0.0219 0.0
H230 H 0.81237 0.84966 1.01025 0.0
H231 H 0.78083 0.8455 0.04323 0.0
H232 H 0.65923 0.80103 0.12993 0.0
H233 H 0.69223 0.8378 0.11563 0.0
H234 H 0.69123 0.82631 0.18915 0.0
H235 H 0.72365 0.86228 0.17506 0.0
H236 H 0.80443 0.96995 0.17982 0.0
H237 H 0.87518 1.00851 0.13501 0.0
H238 H 0.85276 0.97908 0.10975 0.0
H239 H 0.78188 0.94005 0.15429 0.0
C240 C 0.20968 0.94261 0.38117 0.0
C241 C 0.17607 0.95296 0.39172 0.0
C242 C 0.1709 0.98454 0.36664 0.0
C243 C 0.15653 0.97375 0.38438 0.0
C244 C 0.20509 0.97447 0.3565 0.0
C245 C 0.22414 0.95366 0.36366 0.0
U246 U 0.23772 0.89288 0.41926 0.0
O247 O 0.23956 0.85358 0.41475 0.0
O248 O 0.29742 0.87342 0.42259 0.0
C249 C 0.28043 0.85254 0.41763 0.0
C250 C 0.22941 0.91986 0.38734 0.0
C251 C 0.30428 0.83748 0.40348 0.0
C252 C 0.33039 0.82788 0.3702 0.0
C253 C 0.30878 0.84342 0.38317 0.0
C254 C 0.34329 0.80066 0.3977 0.0
C255 C 0.34739 0.80628 0.37741 0.0
C256 C 0.32207 0.81616 0.41061 0.0
C257 C 0.19414 0.90177 0.47372 0.0
C258 C 0.20351 0.87832 0.50404 0.0
C259 C 0.15889 0.91345 0.5043 0.0
C260 C 0.16757 0.91725 0.48418 0.0
C261 C 0.17706 0.89416 0.51466 0.0
C262 C 0.21198 0.88209 0.48366 0.0
C263 C 0.20204 0.90725 0.45256 0.0
O264 O 0.26152 0.92178 0.39966 0.0
O265 O 0.20378 0.90188 0.39167 0.0
O266 O 0.18275 0.89363 0.43924 0.0
O267 O 0.24069 0.91329 0.4475 0.0
H268 H 0.16457 0.94478 0.40537 0.0
H269 H 0.13023 0.98133 0.39244 0.0
H270 H 0.21634 0.98235 0.34269 0.0
H271 H 0.24986 0.94591 0.35528 0.0
H272 H 0.33305 0.83241 0.35452 0.0
H273 H 0.29519 0.85979 0.37736 0.0
H274 H 0.35611 0.78407 0.40351 0.0
H275 H 0.31899 0.81129 0.42621 0.0
H276 H 0.21819 0.86331 0.51152 0.0
H277 H 0.13749 0.92564 0.51168 0.0
H278 H 0.15333 0.93244 0.47671 0.0
H279 H 0.23251 0.86986 0.47577 0.0
C280 C 0.29377 0.64449 0.98192 0.0
C281 C 0.32161 0.62541 0.98546 0.0
C282 C 0.32659 0.63696 0.02065 0.0
C283 C 0.33803 0.62171 1.00472 0.0
C284 C 0.29859 0.65588 1.01686 0.0
C285 C 0.28237 0.65954 0.99776 0.0
U286 U 0.27596 0.63078 0.92596 0.0
O287 O 0.2204 0.63773 0.90717 0.0
O288 O 0.28097 0.65544 0.90035 0.0
C289 C 0.24111 0.65274 0.89551 0.0
C290 C 0.27717 0.64993 0.96188 0.0
C291 C 0.21886 0.67424 0.88834 0.0
C292 C 0.18317 0.7126 0.89275 0.0
C293 C 0.20444 0.69275 0.90093 0.0
C294 C 0.19126 0.69549 0.85967 0.0
C295 C 0.17601 0.714 0.87198 0.0
C296 C 0.21219 0.67591 0.86776 0.0
C297 C 0.3239 0.57123 0.90508 0.0
C298 C 0.31864 0.55348 0.87183 0.0
C299 C 0.36734 0.5372 0.89607 0.0
C300 C 0.35439 0.55422 0.91004 0.0
C301 C 0.34978 0.53671 0.87687 0.0
C302 C 0.3059 0.57085 0.88587 0.0
C303 C 0.31277 0.5891 0.92044 0.0
O304 O 0.30537 0.65493 0.94813 0.0
O305 O 0.24624 0.63606 0.95536 0.0
O306 O 0.27277 0.59108 0.92509 0.0
O307 O 0.33283 0.60988 0.91959 0.0
H308 H 0.33084 0.61358 0.97337 0.0
H309 H 0.35941 0.60693 1.00718 0.0
H310 H 0.28977 0.66828 0.02863 0.0
H311 H 0.26123 0.67444 0.99529 0.0
H312 H 0.17187 0.7266 0.90264 0.0
H313 H 0.20944 0.69182 0.91691 0.0
H314 H 0.18739 0.69621 0.84361 0.0
H315 H 0.22335 0.66193 0.8578 0.0
H316 H 0.30489 0.55341 0.85701 0.0
H317 H 0.39118 0.52433 0.90027 0.0
H318 H 0.36852 0.55422 0.92478 0.0
H319 H 0.28241 0.58394 0.88174 0.0
Tb320 Tb 0.05168 0.1488 0.24794 0.0
C321 C 0.86405 0.13103 0.27571 0.0
N322 N 0.88658 0.15205 0.27633 0.0
C323 C 0.8254 0.17376 0.26572 0.0
C324 C 0.82182 0.13051 0.26916 0.0
C325 C 0.86676 0.17347 0.27285 0.0
C326 C 0.80312 0.15213 0.26344 0.0
C327 C 0.858 0.08897 0.28546 0.0
C328 C 0.88187 0.11041 0.28369 0.0
C329 C 0.81684 0.08804 0.27784 0.0
C330 C 0.79885 0.10873 0.26963 0.0
Tb331 Tb 0.95392 0.14844 0.28839 0.0
N332 N 0.92201 0.11175 0.29074 0.0
C333 C 0.87582 0.06937 0.2954 0.0
C334 C 0.9384 0.09334 0.3017 0.0
C335 C 0.91597 0.07169 0.3038 0.0
H336 H 0.88254 0.1905 0.27569 0.0
H337 H 0.92947 0.05691 0.31205 0.0
H338 H 0.11692 0.10518 0.26161 0.0
H339 H 0.09366 0.23831 0.22226 0.0
H340 H 0.96875 0.09542 0.30872 0.0
H341 H 0.85842 0.05261 0.29714 0.0
H342 H 0.05205 0.20062 0.22263 0.0
H343 H 0.81047 0.19072 0.26237 0.0
H344 H 0.7982 0.07162 0.2788 0.0
H345 H 0.76652 0.10796 0.26448 0.0
H346 H 0.1857 0.10197 0.27831 0.0
H347 H 0.77078 0.15247 0.25829 0.0
H348 H 0.15963 0.24144 0.24186 0.0
N349 N 0.11807 0.14336 0.26058 0.0
C350 C 0.14278 0.16334 0.26217 0.0
C351 C 0.17369 0.11947 0.27424 0.0
C352 C 0.18319 0.16246 0.27084 0.0
C353 C 0.13404 0.12136 0.26529 0.0
C354 C 0.19805 0.14021 0.27745 0.0
N355 N 0.09077 0.18355 0.24418 0.0
C356 C 0.07926 0.20221 0.23219 0.0
C357 C 0.15436 0.2051 0.25334 0.0
C358 C 0.12859 0.18427 0.25361 0.0
C359 C 0.14071 0.2251 0.24255 0.0
C360 C 0.10345 0.22343 0.23153 0.0
H361 H 0.22896 0.13871 0.28415 0.0
H362 H 0.23897 0.18333 0.2786 0.0
H363 H 0.21367 0.22077 0.26322 0.0
O364 O 0.05796 0.15417 0.21711 0.0
O365 O 0.05865 0.16726 0.27709 0.0
O366 O 0.99257 0.18125 0.28647 0.0
O367 O 0.07444 0.12027 0.23014 0.0
O368 O 0.00377 0.17548 0.24152 0.0
O369 O 0.94951 0.17687 0.26546 0.0
O370 O 0.96948 0.14969 0.31936 0.0
O371 O 0.96101 0.11782 0.26823 0.0
O372 O 0.9866 0.138 0.24155 0.0
O373 O 0.90701 0.15689 0.30884 0.0
O374 O 0.01575 0.13402 0.29608 0.0
O375 O 0.04387 0.11724 0.26746 0.0
C376 C 0.03401 0.18303 0.286 0.0
C377 C 0.10948 0.13243 0.20036 0.0
C378 C 0.13656 0.13216 0.16631 0.0
C379 C 0.17774 0.1319 0.174 0.0
C380 C 0.15076 0.13238 0.20778 0.0
C381 C 0.18472 0.13214 0.19459 0.0
C382 C 0.10244 0.1327 0.1796 0.0
C383 C 0.96853 0.18412 0.24888 0.0
C384 C 0.07317 0.13298 0.21383 0.0
C385 C 0.20802 0.18354 0.27179 0.0
C386 C 0.19361 0.20486 0.26304 0.0
C387 C 0.96802 0.11901 0.24905 0.0
C388 C 0.92087 0.16872 0.34184 0.0
C389 C 0.90235 0.16886 0.37702 0.0
C390 C 0.88532 0.19191 0.37486 0.0
C391 C 0.904 0.1919 0.33984 0.0
C392 C 0.92032 0.15733 0.36053 0.0
C393 C 0.88633 0.20341 0.35635 0.0
C394 C 0.03742 0.11717 0.28695 0.0
C395 C 0.93076 0.15409 0.32429 0.0
H396 H 0.20456 0.1316 0.16403 0.0
H397 H 0.15677 0.13256 0.22368 0.0
H398 H 0.21657 0.13204 0.20034 0.0
H399 H 0.07053 0.1329 0.17381 0.0
H400 H 0.87074 0.20084 0.38746 0.0
H401 H 0.90296 0.20063 0.3254 0.0
H402 H 0.93213 0.13914 0.36205 0.0
H403 H 0.8725 0.22104 0.35472 0.0
Tb404 Tb 0.46179 0.37905 0.74705 0.0
C405 C 0.64831 0.39425 0.77288 0.0
N406 N 0.62474 0.37363 0.77285 0.0
C407 C 0.68277 0.35149 0.75959 0.0
C408 C 0.69005 0.39432 0.7658 0.0
C409 C 0.64149 0.35229 0.76676 0.0
C410 C 0.70715 0.37259 0.75908 0.0
C411 C 0.65307 0.43731 0.77915 0.0
C412 C 0.62992 0.4155 0.77952 0.0
C413 C 0.69481 0.43742 0.77224 0.0
C414 C 0.71326 0.416 0.76562 0.0
Tb415 Tb 0.55965 0.37701 0.78644 0.0
N416 N 0.5892 0.4148 0.78597 0.0
C417 C 0.63362 0.45836 0.78578 0.0
C418 C 0.57062 0.43522 0.79302 0.0
C419 C 0.59231 0.45728 0.7928 0.0
H420 H 0.62348 0.33574 0.76775 0.0
H421 H 0.5773 0.4734 0.79833 0.0
H422 H 0.39568 0.42257 0.76039 0.0
H423 H 0.43053 0.28701 0.7253 0.0
H424 H 0.53965 0.43479 0.79934 0.0
H425 H 0.65036 0.47548 0.78575 0.0
H426 H 0.47181 0.32491 0.72736 0.0
H427 H 0.6959 0.33456 0.75467 0.0
H428 H 0.7131 0.45401 0.77193 0.0
H429 H 0.74546 0.4164 0.76032 0.0
H430 H 0.32358 0.42569 0.77334 0.0
H431 H 0.73917 0.37189 0.75357 0.0
H432 H 0.35824 0.28523 0.73909 0.0
N433 N 0.39406 0.38433 0.75805 0.0
C434 C 0.36881 0.36445 0.75801 0.0
C435 C 0.33612 0.40824 0.76944 0.0
C436 C 0.32668 0.36541 0.76452 0.0
C437 C 0.37753 0.40632 0.76261 0.0
C438 C 0.31074 0.38761 0.77073 0.0
N439 N 0.42473 0.34377 0.74339 0.0
C440 C 0.44078 0.32413 0.73382 0.0
C441 C 0.35934 0.32246 0.74893 0.0
C442 C 0.38456 0.34345 0.75016 0.0
C443 C 0.37645 0.3018 0.7402 0.0
C444 C 0.41726 0.30272 0.73244 0.0
H445 H 0.27851 0.38917 0.7758 0.0
H446 H 0.26922 0.34472 0.76906 0.0
H447 H 0.29807 0.30695 0.75559 0.0
O448 O 0.46696 0.37366 0.71568 0.0
O449 O 0.4613 0.34936 0.769 0.0
O450 O 0.49765 0.3645 0.79626 0.0
O451 O 0.43488 0.40404 0.72783 0.0
O452 O 0.52022 0.36056 0.73918 0.0
O453 O 0.54723 0.34446 0.76847 0.0
O454 O 0.58284 0.38662 0.81496 0.0
O455 O 0.57003 0.39102 0.75629 0.0
O456 O 0.50668 0.40821 0.75236 0.0
O457 O 0.58778 0.34971 0.80356 0.0
O458 O 0.50381 0.39626 0.79695 0.0
O459 O 0.46469 0.4083 0.76926 0.0
C460 C 0.47124 0.34898 0.78811 0.0
C461 C 0.40863 0.38925 0.69752 0.0
C462 C 0.38337 0.38957 0.66319 0.0
C463 C 0.34199 0.39194 0.67019 0.0
C464 C 0.36677 0.39105 0.70421 0.0
C465 C 0.33376 0.39247 0.69059 0.0
C466 C 0.41677 0.388 0.67689 0.0
C467 C 0.53997 0.34355 0.74905 0.0
C468 C 0.44373 0.39218 0.71174 0.0
C469 C 0.30156 0.34441 0.76396 0.0
C470 C 0.31792 0.32293 0.75623 0.0
C471 C 0.54602 0.40653 0.74731 0.0
C472 C 0.6169 0.35765 0.83661 0.0
C473 C 0.62832 0.36152 0.87249 0.0
C474 C 0.65788 0.34289 0.87141 0.0
C475 C 0.64635 0.33903 0.83592 0.0
C476 C 0.60833 0.36926 0.85493 0.0
C477 C 0.66694 0.33184 0.85324 0.0
C478 C 0.47375 0.40901 0.7885 0.0
C479 C 0.59574 0.36481 0.81808 0.0
H480 H 0.31598 0.39346 0.65979 0.0
H481 H 0.35955 0.39226 0.71996 0.0
H482 H 0.30179 0.39445 0.69586 0.0
H483 H 0.4489 0.38698 0.67153 0.0
H484 H 0.67397 0.33684 0.88474 0.0
H485 H 0.65371 0.33016 0.82193 0.0
H486 H 0.58547 0.38361 0.85563 0.0
H487 H 0.6898 0.31754 0.8526 0.0
Tb488 Tb 0.06402 0.87857 0.74627 0.0
C489 C 0.87423 0.86405 0.7735 0.0
N490 N 0.89946 0.88397 0.77339 0.0
C491 C 0.84132 0.90814 0.76286 0.0
C492 C 0.83169 0.8653 0.76755 0.0
C493 C 0.88311 0.90603 0.76909 0.0
C494 C 0.81558 0.88764 0.76189 0.0
C495 C 0.86601 0.82112 0.77943 0.0
C496 C 0.8911 0.84225 0.77958 0.0
C497 C 0.8236 0.82234 0.77361 0.0
C498 C 0.80653 0.84435 0.76764 0.0
Tb499 Tb 0.96613 0.87824 0.78487 0.0
N500 N 0.93256 0.84159 0.78469 0.0
C501 C 0.88453 0.79929 0.78468 0.0
C502 C 0.95078 0.82024 0.78964 0.0
C503 C 0.92714 0.79885 0.78971 0.0
H504 H 0.90163 0.92222 0.77103 0.0
H505 H 0.94187 0.782 0.7936 0.0
H506 H 0.13632 0.83716 0.75459 0.0
H507 H 0.08871 0.97047 0.72345 0.0
H508 H 0.98347 0.81934 0.79333 0.0
H509 H 0.86638 0.78264 0.78465 0.0
H510 H 0.04931 0.93193 0.7264 0.0
H511 H 0.8288 0.92565 0.75918 0.0
H512 H 0.80388 0.80629 0.77342 0.0
H513 H 0.77381 0.84497 0.7631 0.0
H514 H 0.20845 0.8358 0.76862 0.0
H515 H 0.7831 0.88935 0.75719 0.0
H516 H 0.15922 0.97477 0.73893 0.0
N517 N 0.13144 0.87509 0.75763 0.0
C518 C 0.15345 0.89613 0.75938 0.0
C519 C 0.19301 0.85292 0.76662 0.0
C520 C 0.19568 0.89642 0.76588 0.0
C521 C 0.15172 0.85364 0.7594 0.0
C522 C 0.21476 0.87447 0.77041 0.0
N523 N 0.09554 0.91553 0.7447 0.0
C524 C 0.07944 0.93399 0.73368 0.0
C525 C 0.15921 0.93842 0.75064 0.0
C526 C 0.1354 0.91694 0.75204 0.0
C527 C 0.14175 0.95802 0.74054 0.0
C528 C 0.10191 0.95568 0.7318 0.0
H529 H 0.24713 0.8739 0.77548 0.0
H530 H 0.25068 0.91895 0.77138 0.0
H531 H 0.2188 0.95572 0.75786 0.0
O532 O 0.04635 0.87722 0.7157 0.0
O533 O 0.05492 0.90908 0.76658 0.0
O534 O 0.02841 0.89071 0.79426 0.0
O535 O 0.11005 0.87125 0.72489 0.0
O536 O 0.00304 0.89273 0.73728 0.0
O537 O 0.97314 0.90966 0.76527 0.0
O538 O 0.94264 0.86983 0.81391 0.0
O539 O 0.95996 0.85951 0.75594 0.0
O540 O 0.02665 0.84552 0.74904 0.0
O541 O 0.9446 0.90674 0.80236 0.0
O542 O 0.02052 0.85795 0.79497 0.0
O543 O 0.06765 0.84914 0.76894 0.0
C544 C 0.04992 0.90817 0.78596 0.0
C545 C 0.09272 0.85828 0.69256 0.0
C546 C 0.11323 0.85661 0.65764 0.0
C547 C 0.12377 0.83229 0.65998 0.0
C548 C 0.10294 0.8339 0.69473 0.0
C549 C 0.11817 0.82094 0.67839 0.0
C550 C 0.09717 0.86949 0.67389 0.0
C551 C 0.98002 0.90929 0.74588 0.0
C552 C 0.08474 0.87355 0.70991 0.0
C553 C 0.21835 0.91831 0.76621 0.0
C554 C 0.20023 0.93925 0.75847 0.0
C555 C 0.98549 0.84439 0.74683 0.0
C556 C 0.91413 0.9021 0.83511 0.0
C557 C 0.89957 0.90132 0.87085 0.0
C558 C 0.87451 0.92181 0.86868 0.0
C559 C 0.88886 0.9226 0.83333 0.0
C560 C 0.91933 0.89126 0.85399 0.0
C561 C 0.86914 0.93233 0.85003 0.0
C562 C 0.05268 0.84607 0.78739 0.0
C563 C 0.93441 0.89248 0.81705 0.0
H564 H 0.13657 0.82217 0.64756 0.0
H565 H 0.10062 0.82521 0.70915 0.0
H566 H 0.12667 0.80223 0.68013 0.0
H567 H 0.09032 0.88851 0.67229 0.0
H568 H 0.85897 0.92965 0.88152 0.0
H569 H 0.88409 0.93106 0.81895 0.0
H570 H 0.9387 0.87541 0.85559 0.0
H571 H 0.84961 0.94808 0.8485 0.0
Tb572 Tb 0.46385 0.65122 0.24903 0.0
C573 C 0.65324 0.66895 0.27316 0.0
N574 N 0.63213 0.64759 0.27391 0.0
C575 C 0.69388 0.62697 0.26265 0.0
C576 C 0.69539 0.67023 0.26661 0.0
C577 C 0.65215 0.62669 0.26918 0.0
C578 C 0.71555 0.64888 0.26119 0.0
C579 C 0.65369 0.71204 0.27904 0.0
C580 C 0.63258 0.68955 0.2793 0.0
C581 C 0.6954 0.71351 0.27217 0.0
C582 C 0.71623 0.69264 0.26602 0.0
Tb583 Tb 0.56472 0.64889 0.28579 0.0
N584 N 0.59219 0.6874 0.28597 0.0
C585 C 0.63264 0.7323 0.28618 0.0
C586 C 0.57301 0.70686 0.29438 0.0
C587 C 0.59235 0.72961 0.29416 0.0
H588 H 0.63681 0.60971 0.27157 0.0
H589 H 0.57655 0.74496 0.30061 0.0
H590 H 0.39916 0.69363 0.26514 0.0
H591 H 0.44127 0.55522 0.23714 0.0
H592 H 0.54376 0.70504 0.3021 0.0
H593 H 0.64776 0.7499 0.28627 0.0
H594 H 0.48029 0.59332 0.23649 0.0
H595 H 0.7095 0.61024 0.25912 0.0
H596 H 0.71207 0.73064 0.27186 0.0
H597 H 0.74861 0.69398 0.26104 0.0
H598 H 0.32646 0.69618 0.27761 0.0
H599 H 0.74802 0.64907 0.25626 0.0
H600 H 0.3677 0.55415 0.24911 0.0
N601 N 0.39701 0.65572 0.2609 0.0
C602 C 0.37261 0.63548 0.2611 0.0
C603 C 0.33916 0.67893 0.27322 0.0
C604 C 0.33051 0.63612 0.26769 0.0
C605 C 0.38072 0.67738 0.26657 0.0
C606 C 0.31395 0.65819 0.27385 0.0
N607 N 0.43155 0.61401 0.24948 0.0
C608 C 0.4493 0.59331 0.24255 0.0
C609 C 0.36629 0.59243 0.25541 0.0
C610 C 0.39037 0.61393 0.25511 0.0
C611 C 0.38513 0.57104 0.24916 0.0
C612 C 0.42671 0.57155 0.24253 0.0
H613 H 0.28171 0.65945 0.27898 0.0
H614 H 0.27403 0.61487 0.27302 0.0
H615 H 0.30533 0.57662 0.26221 0.0
O616 O 0.46184 0.64434 0.21732 0.0
O617 O 0.45442 0.63384 0.27799 0.0
O618 O 0.51945 0.61882 0.28622 0.0
O619 O 0.42553 0.67251 0.23166 0.0
O620 O 0.52013 0.63191 0.23866 0.0
O621 O 0.55542 0.61741 0.26653 0.0
O622 O 0.57114 0.65577 0.31731 0.0
O623 O 0.57343 0.66464 0.25588 0.0
O624 O 0.50875 0.68122 0.25006 0.0
O625 O 0.60196 0.62598 0.30231 0.0
O626 O 0.50709 0.66613 0.29665 0.0
O627 O 0.47512 0.68227 0.26876 0.0
C628 C 0.47843 0.61955 0.28852 0.0
C629 C 0.41279 0.66843 0.19656 0.0
C630 C 0.4 0.66534 0.16064 0.0
C631 C 0.36786 0.68243 0.16255 0.0
C632 C 0.38074 0.68569 0.19782 0.0
C633 C 0.35846 0.69253 0.18097 0.0
C634 C 0.42227 0.658 0.17782 0.0
C635 C 0.54637 0.61681 0.2473 0.0
C636 C 0.43387 0.66117 0.21525 0.0
C637 C 0.30644 0.61475 0.26801 0.0
C638 C 0.32428 0.59296 0.26187 0.0
C639 C 0.54901 0.67967 0.24631 0.0
C640 C 0.61755 0.62927 0.33717 0.0
C641 C 0.62985 0.63033 0.37305 0.0
C642 C 0.65908 0.6117 0.37097 0.0
C643 C 0.64704 0.61059 0.33553 0.0
C644 C 0.60915 0.63936 0.35609 0.0
C645 C 0.66762 0.60194 0.35232 0.0
C646 C 0.4808 0.6813 0.28826 0.0
C647 C 0.59645 0.63753 0.31886 0.0
H648 H 0.34973 0.68796 0.14966 0.0
H649 H 0.37235 0.69386 0.21197 0.0
H650 H 0.33368 0.70569 0.1822 0.0
H651 H 0.44671 0.6446 0.17656 0.0
H652 H 0.67541 0.6047 0.38391 0.0
H653 H 0.65439 0.60256 0.3212 0.0
H654 H 0.58655 0.65374 0.35765 0.0
H655 H 0.69022 0.58759 0.35086 0.0
C656 C 0.17208 0.02699 0.35443 0.0
C657 C 0.14952 1.00557 0.35784 0.0
C658 C 0.15409 0.04599 0.34369 0.0
C659 C 0.11273 0.04332 0.33604 0.0
C660 C 0.08951 0.02187 0.33982 0.0
C661 C 0.10814 1.00327 0.35081 0.0
C662 C 0.17968 0.06867 0.34013 0.0
C663 C 0.04571 0.01815 0.33149 0.0
C664 C 0.05406 0.09943 0.32034 0.0
C665 C 0.05659 0.09812 0.29941 0.0
C666 C 0.07146 0.0815 0.33242 0.0
C667 C 0.0941 0.06252 0.32347 0.0
C668 C 0.09753 0.06132 0.30241 0.0
C669 C 0.07713 0.07851 0.29065 0.0
C670 C 0.06505 0.0827 0.35474 0.0
C671 C 0.12352 0.04222 0.29227 0.0
H672 H 0.20416 0.02864 0.35986 0.0
H673 H 0.09105 0.9865 0.35316 0.0
H674 H 0.18058 0.07293 0.32395 0.0
H675 H 0.16467 0.08409 0.34781 0.0
H676 H 0.21248 0.06712 0.34571 0.0
H677 H 0.03009 1.00178 0.33762 0.0
H678 H 0.02582 0.03402 0.33474 0.0
H679 H 0.04743 0.01625 0.315 0.0
H680 H 0.03771 0.11425 0.32736 0.0
H681 H 0.07741 0.07651 0.27457 0.0
H682 H 0.09585 0.08494 0.36237 0.0
H683 H 0.05073 0.06559 0.36012 0.0
H684 H 0.04441 0.09783 0.35922 0.0
H685 H 0.15722 0.04522 0.29604 0.0
H686 H 0.12016 0.04258 0.27576 0.0
H687 H 0.11463 0.02401 0.2977 0.0
C688 C 0.40773 0.51942 0.8567 0.0
C689 C 0.36529 0.51886 0.86231 0.0
C690 C 0.42456 0.50129 0.84457 0.0
C691 C 0.39829 0.48204 0.8381 0.0
C692 C 0.35529 0.48142 0.84368 0.0
C693 C 0.33914 0.50001 0.85564 0.0
C694 C 0.47044 0.50273 0.83873 0.0
C695 C 0.32684 0.4607 0.83756 0.0
C696 C 0.43494 0.44763 0.7925 0.0
C697 C 0.45292 0.42719 0.8011 0.0
C698 C 0.41575 0.46519 0.80436 0.0
C699 C 0.4159 0.46267 0.82538 0.0
C700 C 0.43445 0.44219 0.83419 0.0
C701 C 0.45253 0.42461 0.82192 0.0
C702 C 0.39601 0.48669 0.79441 0.0
C703 C 0.43672 0.43918 0.85658 0.0
H704 H 0.42785 0.534 0.86202 0.0
H705 H 0.30651 0.49942 0.86035 0.0
H706 H 0.48644 0.48556 0.84217 0.0
H707 H 0.47301 0.5056 0.82238 0.0
H708 H 0.48742 0.51766 0.8465 0.0
H709 H 0.29357 0.4637 0.8419 0.0
H710 H 0.32833 0.4578 0.82117 0.0
H711 H 0.33779 0.44389 0.84476 0.0
H712 H 0.43675 0.45028 0.7765 0.0
H713 H 0.4668 0.40895 0.82868 0.0
H714 H 0.41288 0.50341 0.79901 0.0
H715 H 0.36279 0.48842 0.79925 0.0
H716 H 0.39675 0.48534 0.77785 0.0
H717 H 0.46146 0.45143 0.86265 0.0
H718 H 0.44471 0.42044 0.86086 0.0
H719 H 0.40651 0.44404 0.86374 0.0
C720 C 0.62646 0.50302 0.66632 0.0
C721 C 0.65995 0.51628 0.67483 0.0
C722 C 0.60896 0.48292 0.67624 0.0
C723 C 0.62401 0.47669 0.69545 0.0
C724 C 0.65871 0.48937 0.70373 0.0
C725 C 0.67705 0.50837 0.69302 0.0
C726 C 0.57362 0.46886 0.66639 0.0
C727 C 0.67594 0.48335 0.72417 0.0
C728 C 0.54798 0.44713 0.73173 0.0
C729 C 0.56479 0.42402 0.73341 0.0
C730 C 0.56673 0.46436 0.71923 0.0
C731 C 0.60222 0.45798 0.70761 0.0
C732 C 0.6186 0.43438 0.70891 0.0
C733 C 0.59997 0.41777 0.72204 0.0
C734 C 0.54948 0.48962 0.71904 0.0
C735 C 0.65496 0.42632 0.69612 0.0
H736 H 0.61303 0.50866 0.65223 0.0
H737 H 0.70432 0.51751 0.69931 0.0
H738 H 0.57635 0.44928 0.66944 0.0
H739 H 0.54302 0.47491 0.67246 0.0
H740 H 0.57322 0.47164 0.64997 0.0
H741 H 0.69931 0.49696 0.7295 0.0
H742 H 0.65008 0.48214 0.73528 0.0
H743 H 0.69148 0.46555 0.7237 0.0
H744 H 0.52096 0.452 0.7407 0.0
H745 H 0.6126 0.39974 0.72322 0.0
H746 H 0.53771 0.49404 0.70392 0.0
H747 H 0.57486 0.50281 0.72274 0.0
H748 H 0.5233 0.49195 0.72985 0.0
H749 H 0.64317 0.42263 0.68079 0.0
H750 H 0.66944 0.4096 0.70194 0.0
H751 H 0.67975 0.44044 0.69495 0.0
C752 C 0.83526 0.02976 0.17852 0.0
C753 C 0.85757 1.00877 0.17414 0.0
C754 C 0.8531 0.04789 0.19069 0.0
C755 C 0.89427 0.04493 0.1984 0.0
C756 C 0.91652 0.02351 0.19425 0.0
C757 C 0.89786 1.00568 0.18213 0.0
C758 C 0.82831 0.07039 0.19496 0.0
C759 C 0.95997 0.01938 0.20267 0.0
C760 C 0.95568 0.10081 0.2151 0.0
C761 C 0.95086 0.09975 0.23589 0.0
C762 C 0.93794 0.08289 0.20269 0.0
C763 C 0.91381 0.06392 0.21125 0.0
C764 C 0.90927 0.06269 0.23221 0.0
C765 C 0.92877 0.08022 0.24421 0.0
C766 C 0.94511 0.08418 0.18044 0.0
C767 C 0.88284 0.04329 0.24204 0.0
H768 H 0.80432 0.03219 0.17203 0.0
H769 H 0.91509 0.98947 0.17853 0.0
H770 H 0.82714 0.07386 0.21129 0.0
H771 H 0.84419 0.08614 0.18797 0.0
H772 H 0.7956 0.06912 0.18915 0.0
H773 H 0.97502 1.0032 0.19612 0.0
H774 H 0.98065 0.03528 0.19998 0.0
H775 H 0.95778 0.01691 0.21908 0.0
H776 H 0.97341 0.11557 0.20852 0.0
H777 H 0.92645 0.07855 0.26019 0.0
H778 H 0.91455 0.08611 0.17261 0.0
H779 H 0.95946 0.0672 0.17508 0.0
H780 H 0.96602 0.09952 0.17623 0.0
H781 H 0.84906 0.04734 0.23972 0.0
H782 H 0.88873 0.04225 0.25837 0.0
H783 H 0.88887 0.02534 0.23537 0.0
C784 C 0.83833 0.99584 0.67946 0.0
C785 C 0.86132 0.01567 0.67228 0.0
C786 C 0.85816 0.97744 0.69015 0.0
C787 C 0.90182 0.97932 0.69419 0.0
C788 C 0.92547 0.99889 0.68633 0.0
C789 C 0.90494 0.01676 0.67525 0.0
C790 C 0.83204 0.95658 0.69787 0.0
C791 C 0.9722 1.00126 0.69014 0.0
C792 C 0.94272 0.94843 0.74081 0.0
C793 C 0.96002 0.92738 0.73284 0.0
C794 C 0.92326 0.96535 0.72839 0.0
C795 C 0.92229 0.96146 0.70745 0.0
C796 C 0.94078 0.94057 0.69929 0.0
C797 C 0.95896 0.92367 0.71209 0.0
C798 C 0.90385 0.98743 0.73766 0.0
C799 C 0.94055 0.93562 0.6771 0.0
H800 H 0.80455 0.9951 0.67716 0.0
H801 H 0.92259 0.03222 0.66979 0.0
H802 H 0.84775 0.93922 0.6947 0.0
H803 H 0.82878 0.95817 0.71432 0.0
H804 H 0.80006 0.95606 0.69114 0.0
H805 H 0.98543 0.01849 0.68438 0.0
H806 H 0.97888 1.00017 0.70639 0.0
H807 H 0.9888 0.98612 0.68283 0.0
H808 H 0.94455 0.9518 0.75673 0.0
H809 H 0.97228 0.90747 0.70574 0.0
H810 H 0.86982 0.988 0.73398 0.0
H811 H 0.91872 1.00393 0.73139 0.0
H812 H 0.90739 0.98782 0.75417 0.0
H813 H 0.90871 0.92928 0.67256 0.0
H814 H 0.96357 0.92153 0.67291 0.0
H815 H 0.94786 0.95218 0.66849 0.0
C816 C 0.61912 0.49859 0.18915 0.0
C817 C 0.64936 0.50362 0.1745 0.0
C818 C 0.6033 0.51703 0.20133 0.0
C819 C 0.6187 0.54092 0.19897 0.0
C820 C 0.65065 0.54585 0.1848 0.0
C821 C 0.66539 0.52714 0.17265 0.0
C822 C 0.56862 0.51116 0.216 0.0
C823 C 0.66971 0.57077 0.18263 0.0
C824 C 0.553 0.59447 0.21477 0.0
C825 C 0.56508 0.59745 0.23481 0.0
C826 C 0.5689 0.57551 0.20319 0.0
C827 C 0.60094 0.56078 0.21114 0.0
C828 C 0.61479 0.5645 0.23098 0.0
C829 C 0.59424 0.5814 0.24295 0.0
C830 C 0.55072 0.57092 0.18266 0.0
C831 C 0.6509 0.55057 0.23981 0.0
H832 H 0.60646 0.48044 0.19045 0.0
H833 H 0.68927 0.53092 0.1615 0.0
H834 H 0.57733 0.51738 0.23122 0.0
H835 H 0.53961 0.52083 0.21167 0.0
H836 H 0.56146 0.49154 0.21663 0.0
H837 H 0.69067 0.57216 0.16941 0.0
H838 H 0.64493 0.58459 0.18132 0.0
H839 H 0.68837 0.57515 0.19622 0.0
H840 H 0.52967 0.60626 0.20833 0.0
H841 H 0.60099 0.58169 0.25872 0.0
H842 H 0.53992 0.55187 0.18143 0.0
H843 H 0.57522 0.57383 0.17112 0.0
H844 H 0.52371 0.58282 0.17934 0.0
H845 H 0.63895 0.53337 0.24611 0.0
H846 H 0.66637 0.56089 0.25209 0.0
H847 H 0.67502 0.54633 0.22838 0.0
C848 C 0.36009 0.5092 0.33861 0.0
C849 C 0.35168 0.51159 0.35912 0.0
C850 C 0.38055 0.52751 0.3279 0.0
C851 C 0.39429 0.54857 0.33799 0.0
C852 C 0.3869 0.55103 0.35877 0.0
C853 C 0.36551 0.53252 0.36911 0.0
C854 C 0.38744 0.52422 0.30572 0.0
C855 C 0.4006 0.57347 0.36993 0.0
C856 C 0.48057 0.58397 0.3115 0.0
C857 C 0.45751 0.60208 0.30205 0.0
C858 C 0.46055 0.56694 0.32383 0.0
C859 C 0.4164 0.5679 0.32661 0.0
C860 C 0.39311 0.58642 0.31742 0.0
C861 C 0.41401 0.60339 0.30546 0.0
C862 C 0.48653 0.54767 0.33366 0.0
C863 C 0.34587 0.58785 0.31948 0.0
H864 H 0.35063 0.49287 0.33083 0.0
H865 H 0.3589 0.53466 0.38489 0.0
H866 H 0.3761 0.54016 0.29739 0.0
H867 H 0.42159 0.52256 0.30266 0.0
H868 H 0.37105 0.50792 0.29978 0.0
H869 H 0.39795 0.57128 0.38637 0.0
H870 H 0.43362 0.57836 0.3662 0.0
H871 H 0.38058 0.58877 0.36534 0.0
H872 H 0.51425 0.5829 0.30913 0.0
H873 H 0.39597 0.61762 0.29866 0.0
H874 H 0.47645 0.52965 0.32812 0.0
H875 H 0.48135 0.54795 0.35005 0.0
H876 H 0.52073 0.55002 0.3307 0.0
H877 H 0.33096 0.57331 0.31041 0.0
H878 H 0.33354 0.6054 0.31423 0.0
H879 H 0.33611 0.58513 0.33522 0.0
C880 C 0.10908 0.02288 0.85209 0.0
C881 C 0.15066 0.0227 0.85895 0.0
C882 C 0.09336 1.00415 0.84002 0.0
C883 C 0.11982 0.98467 0.83504 0.0
C884 C 0.16214 0.9846 0.84174 0.0
C885 C 0.17717 1.00377 0.85361 0.0
C886 C 0.04813 1.00491 0.83308 0.0
C887 C 0.19144 0.96431 0.83642 0.0
C888 C 0.06657 0.92592 0.81953 0.0
C889 C 0.06794 0.9276 0.79864 0.0
C890 C 0.08355 0.94432 0.83162 0.0
C891 C 0.10313 0.96457 0.82258 0.0
C892 C 0.10497 0.96623 0.80156 0.0
C893 C 0.08637 0.94805 0.7899 0.0
C894 C 0.08027 0.9422 0.85403 0.0
C895 C 0.12557 0.98756 0.7914 0.0
H896 H 0.08864 0.03747 0.85654 0.0
H897 H 0.20922 1.00366 0.85919 0.0
H898 H 0.04621 1.00216 0.81668 0.0
H899 H 0.02997 0.99005 0.84017 0.0
H900 H 0.03289 0.02226 0.83686 0.0
H901 H 0.22119 0.96517 0.84514 0.0
H902 H 0.17603 0.94656 0.83902 0.0
H903 H 0.19932 0.96532 0.8203 0.0
H904 H 0.05196 0.91032 0.82647 0.0
H905 H 0.08574 0.95015 0.77391 0.0
H906 H 0.0623 0.95762 0.86011 0.0
H907 H 0.11214 0.94299 0.86081 0.0
H908 H 0.06443 0.92519 0.85871 0.0
H909 H 0.10636 1.00387 0.79387 0.0
H910 H 0.1289 0.98479 0.77508 0.0
H911 H 0.15722 0.99118 0.79783 0.0
C912 C 0.1319 0.12811 0.0454 0.0
C913 C 0.16927 0.14054 0.04051 0.0
C914 C 0.1188 0.12582 0.06543 0.0
C915 C 0.14334 0.13645 0.08086 0.0
C916 C 0.18086 0.14907 0.07598 0.0
C917 C 0.19356 0.15064 0.05601 0.0
C918 C 0.07851 0.11231 0.07004 0.0
C919 C 0.20857 0.16027 0.09195 0.0
C920 C 0.10956 0.14958 0.13419 0.0
C921 C 0.13018 0.13109 0.14441 0.0
C922 C 0.11056 0.15061 0.11317 0.0
C923 C 0.13271 0.13276 0.10233 0.0
C924 C 0.15053 0.1131 0.11265 0.0
C925 C 0.14882 0.11248 0.13354 0.0
C926 C 0.09053 0.17161 0.10266 0.0
C927 C 0.17306 0.09314 0.10177 0.0
H928 H 0.11262 0.12044 0.03357 0.0
H929 H 0.2231 0.15964 0.05258 0.0
H930 H 0.08317 0.09951 0.08252 0.0
H931 H 0.05421 0.12532 0.07483 0.0
H932 H 0.06639 0.10216 0.05687 0.0
H933 H 0.23474 0.17121 0.08556 0.0
H934 H 0.1898 0.17201 0.1019 0.0
H935 H 0.22224 0.14584 0.10131 0.0
H936 H 0.09481 0.1639 0.14263 0.0
H937 H 0.16373 0.09788 0.14151 0.0
H938 H 0.07195 0.16522 0.0896 0.0
H939 H 0.11548 0.18393 0.09697 0.0
H940 H 0.06967 0.18199 0.11275 0.0
H941 H 0.14955 0.08163 0.09389 0.0
H942 H 0.1912 0.08157 0.11213 0.0
H943 H 0.19503 0.1005 0.0904 0.0
C944 C 0.3146 0.37967 0.55332 0.0
C945 C 0.3414 0.3889 0.53853 0.0
C946 C 0.32849 0.37761 0.57319 0.0
C947 C 0.37006 0.38494 0.5783 0.0
C948 C 0.39798 0.39272 0.56318 0.0
C949 C 0.38335 0.3945 0.54348 0.0
C950 C 0.29801 0.36889 0.58894 0.0
C951 C 0.44307 0.39961 0.56781 0.0
C952 C 0.37846 0.4102 0.63063 0.0
C953 C 0.3905 0.3899 0.64145 0.0
C954 C 0.37421 0.40916 0.60984 0.0
C955 C 0.38226 0.38725 0.59969 0.0
C956 C 0.39835 0.36737 0.61041 0.0
C957 C 0.40208 0.36889 0.63131 0.0
C958 C 0.3584 0.43107 0.59892 0.0
C959 C 0.40874 0.34389 0.60022 0.0
H960 H 0.28222 0.37524 0.54957 0.0
H961 H 0.40454 0.40096 0.53195 0.0
H962 H 0.31229 0.3542 0.59779 0.0
H963 H 0.29098 0.38386 0.59942 0.0
H964 H 0.26795 0.36217 0.58239 0.0
H965 H 0.45866 0.40879 0.55503 0.0
H966 H 0.445 0.41166 0.58105 0.0
H967 H 0.4609 0.38308 0.57137 0.0
H968 H 0.36999 0.42649 0.6386 0.0
H969 H 0.41143 0.3532 0.63979 0.0
H970 H 0.32698 0.42705 0.59238 0.0
H971 H 0.37992 0.43574 0.58645 0.0
H972 H 0.3557 0.44703 0.6089 0.0
H973 H 0.3805 0.33195 0.60043 0.0
H974 H 0.43437 0.33449 0.60826 0.0
H975 H 0.41835 0.34656 0.58445 0.0
C976 C 0.62618 0.39668 0.98891 0.0
C977 C 0.66731 0.38954 0.99361 0.0
C978 C 0.61229 0.39741 0.96891 0.0
C979 C 0.63984 0.39023 0.95342 0.0
C980 C 0.68199 0.38434 0.95806 0.0
C981 C 0.69533 0.38462 0.97798 0.0
C982 C 0.56757 0.4046 0.96452 0.0
C983 C 0.71264 0.37648 0.94211 0.0
C984 C 0.60564 0.35595 0.90748 0.0
C985 C 0.61849 0.37173 0.89236 0.0
C986 C 0.6087 0.3626 0.92761 0.0
C987 C 0.62421 0.38584 0.93271 0.0
C988 C 0.6323 0.40287 0.9174 0.0
C989 C 0.62955 0.39555 0.89726 0.0
C990 C 0.60031 0.34366 0.94331 0.0
C991 C 0.64686 0.42816 0.92237 0.0
H992 H 0.60427 0.40069 1.00083 0.0
H993 H 0.72762 0.38002 0.9814 0.0
H994 H 0.5657 0.41512 0.95048 0.0
H995 H 0.54772 0.38819 0.96262 0.0
H996 H 0.55414 0.41544 0.9769 0.0
H997 H 0.74345 0.37104 0.94843 0.0
H998 H 0.69939 0.36102 0.93352 0.0
H999 H 0.71823 0.39141 0.93144 0.0
H1000 H 0.59659 0.33763 0.90357 0.0
H1001 H 0.6391 0.40783 0.8855 0.0
H1002 H 0.58059 0.351 0.95548 0.0
H1003 H 0.63063 0.33805 0.95 0.0
H1004 H 0.58432 0.32743 0.937 0.0
H1005 H 0.62426 0.43666 0.9328 0.0
H1006 H 0.64996 0.43959 0.90884 0.0
H1007 H 0.67777 0.42773 0.93008 0.0
C1008 C 0.82829 0.15315 0.48587 0.0
C1009 C 0.84306 0.13373 0.49725 0.0
C1010 C 0.8424 0.15698 0.46623 0.0
C1011 C 0.87036 0.14038 0.45734 0.0
C1012 C 0.88536 0.12078 0.46859 0.0
C1013 C 0.87264 0.11816 0.48851 0.0
C1014 C 0.82708 0.1787 0.45489 0.0
C1015 C 0.91506 0.10261 0.45964 0.0
C1016 C 0.86543 0.14174 0.40085 0.0
C1017 C 0.89964 0.15691 0.39652 0.0
C1018 C 0.85704 0.13484 0.42062 0.0
C1019 C 0.88339 0.14356 0.4362 0.0
C1020 C 0.92 0.1572 0.43153 0.0
C1021 C 0.92757 0.16379 0.41166 0.0
C1022 C 0.8186 0.11951 0.42496 0.0
C1023 C 0.94926 0.16685 0.44749 0.0
H1024 H 0.80529 0.16528 0.49211 0.0
H1025 H 0.88616 0.10374 0.49718 0.0
H1026 H 0.8541 0.18864 0.44823 0.0
H1027 H 0.8063 0.17277 0.44245 0.0
H1028 H 0.8093 0.1913 0.46457 0.0
H1029 H 0.91823 0.08638 0.46918 0.0
H1030 H 0.90404 0.09682 0.44462 0.0
H1031 H 0.94667 0.11099 0.45782 0.0
H1032 H 0.84399 0.13643 0.38897 0.0
H1033 H 0.95404 0.1755 0.4081 0.0
H1034 H 0.79443 0.13066 0.43242 0.0
H1035 H 0.82668 0.10466 0.4353 0.0
H1036 H 0.80461 0.11166 0.41114 0.0
H1037 H 0.93677 0.18417 0.45315 0.0
H1038 H 0.9813 0.17033 0.44143 0.0
H1039 H 0.95184 0.15436 0.4603 0.0
C1040 C 0.83619 0.90695 0.97987 0.0
C1041 C 0.84801 0.88916 0.99354 0.0
C1042 C 0.85106 0.90651 0.96008 0.0
C1043 C 0.87863 0.88797 0.95389 0.0
C1044 C 0.89212 0.87065 0.96789 0.0
C1045 C 0.87669 0.87148 0.98752 0.0
C1046 C 0.836 0.92534 0.94556 0.0
C1047 C 0.92254 0.85112 0.96212 0.0
C1048 C 0.87168 0.876 0.89824 0.0
C1049 C 0.90365 0.89116 0.89106 0.0
C1050 C 0.86518 0.87327 0.91885 0.0
C1051 C 0.89127 0.88612 0.93249 0.0
C1052 C 0.92638 0.89938 0.92524 0.0
C1053 C 0.93197 0.90188 0.90453 0.0
C1054 C 0.82804 0.85843 0.92593 0.0
C1055 C 0.9557 0.91293 0.93912 0.0
H1056 H 0.81393 0.92058 0.98442 0.0
H1057 H 0.88654 0.85798 0.99816 0.0
H1058 H 0.86326 0.93432 0.93826 0.0
H1059 H 0.81695 0.91657 0.93362 0.0
H1060 H 0.81654 0.9393 0.95293 0.0
H1061 H 0.92571 0.83729 0.97397 0.0
H1062 H 0.91237 0.84205 0.9481 0.0
H1063 H 0.95399 0.85931 0.95934 0.0
H1064 H 0.84959 0.86793 0.88774 0.0
H1065 H 0.95643 0.91383 0.89891 0.0
H1066 H 0.80324 0.87063 0.93156 0.0
H1067 H 0.83735 0.84655 0.93844 0.0
H1068 H 0.8144 0.84711 0.91377 0.0
H1069 H 0.94232 0.93092 0.94234 0.0
H1070 H 0.98714 0.91569 0.9322 0.0
H1071 H 0.95973 0.90339 0.95352 0.0
C1072 C 0.64148 0.65634 0.49056 0.0
C1073 C 0.67853 0.64412 0.49521 0.0
C1074 C 0.6279 0.65838 0.47065 0.0
C1075 C 0.65208 0.64794 0.4552 0.0
C1076 C 0.69046 0.63638 0.45987 0.0
C1077 C 0.70312 0.63455 0.47987 0.0
C1078 C 0.58658 0.67047 0.4663 0.0
C1079 C 0.71742 0.62518 0.44381 0.0
C1080 C 0.60502 0.62352 0.40737 0.0
C1081 C 0.62216 0.63946 0.39336 0.0
C1082 C 0.61196 0.627 0.42783 0.0
C1083 C 0.63605 0.64717 0.43433 0.0
C1084 C 0.64947 0.66471 0.42031 0.0
C1085 C 0.64246 0.66058 0.39984 0.0
C1086 C 0.59768 0.60762 0.44216 0.0
C1087 C 0.67419 0.68674 0.42682 0.0
H1088 H 0.62217 0.6633 0.50256 0.0
H1089 H 0.73158 0.62493 0.48363 0.0
H1090 H 0.58945 0.6825 0.45315 0.0
H1091 H 0.5624 0.65655 0.46268 0.0
H1092 H 0.5753 0.68114 0.47926 0.0
H1093 H 0.74513 0.61575 0.45007 0.0
H1094 H 0.69862 0.61206 0.43487 0.0
H1095 H 0.72882 0.63937 0.43345 0.0
H1096 H 0.5897 0.60708 0.40219 0.0
H1097 H 0.656 0.67274 0.3889 0.0
H1098 H 0.58251 0.61567 0.45547 0.0
H1099 H 0.62547 0.59746 0.44742 0.0
H1100 H 0.57524 0.59467 0.43509 0.0
H1101 H 0.65665 0.69658 0.43856 0.0
H1102 H 0.68068 0.6992 0.41422 0.0
H1103 H 0.70464 0.68125 0.43345 0.0
C1104 C 0.31762 0.637 0.05776 0.0
C1105 C 0.34399 0.63396 0.04117 0.0
C1106 C 0.33394 0.6382 0.07719 0.0
C1107 C 0.37785 0.63594 0.08026 0.0
C1108 C 0.40441 0.63125 0.06375 0.0
C1109 C 0.38715 0.63028 0.04435 0.0
C1110 C 0.30438 0.64357 0.09426 0.0
C1111 C 0.45115 0.62798 0.06653 0.0
C1112 C 0.41361 0.67256 0.12482 0.0
C1113 C 0.40862 0.65591 0.14034 0.0
C1114 C 0.40644 0.66589 0.10494 0.0
C1115 C 0.39582 0.64166 0.10033 0.0
C1116 C 0.39637 0.62409 0.11568 0.0
C1117 C 0.40222 0.63149 0.13567 0.0
C1118 C 0.40571 0.68538 0.08923 0.0
C1119 C 0.38693 0.59791 0.11131 0.0
H1120 H 0.28412 0.63931 0.05546 0.0
H1121 H 0.40773 0.6278 0.03163 0.0
H1122 H 0.30903 0.63061 0.10662 0.0
H1123 H 0.31128 0.66188 0.10023 0.0
H1124 H 0.27082 0.64277 0.08961 0.0
H1125 H 0.46816 0.62717 0.05206 0.0
H1126 H 0.46484 0.64288 0.07562 0.0
H1127 H 0.45668 0.61099 0.07478 0.0
H1128 H 0.41911 0.6914 0.12848 0.0
H1129 H 0.39847 0.61853 0.14764 0.0
H1130 H 0.37281 0.68808 0.08417 0.0
H1131 H 0.42443 0.68 0.07602 0.0
H1132 H 0.41821 0.70286 0.09496 0.0
H1133 H 0.35235 0.59493 0.11131 0.0
H1134 H 0.40081 0.58605 0.12285 0.0
H1135 H 0.39909 0.59254 0.09643 0.0
C1136 C 0.16331 0.91125 0.54884 0.0
C1137 C 0.16803 0.89098 0.53639 0.0
C1138 C 0.15203 0.90886 0.56898 0.0
C1139 C 0.14691 0.8856 0.57719 0.0
C1140 C 0.15243 0.86501 0.56491 0.0
C1141 C 0.16249 0.86794 0.54462 0.0
C1142 C 0.14596 0.93128 0.58147 0.0
C1143 C 0.14694 0.83982 0.57311 0.0
C1144 C 0.16236 0.87307 0.63222 0.0
C1145 C 0.12099 0.8685 0.63834 0.0
C1146 C 0.17105 0.88024 0.61258 0.0
C1147 C 0.13749 0.88253 0.59879 0.0
C1148 C 0.09538 0.87953 0.60538 0.0
C1149 C 0.0876 0.87266 0.62522 0.0
C1150 C 0.2163 0.88365 0.60622 0.0
C1151 C 0.05874 0.88246 0.59125 0.0
H1152 H 0.16851 0.92915 0.54285 0.0
H1153 H 0.1653 0.85216 0.53516 0.0
H1154 H 0.11641 0.92995 0.59023 0.0
H1155 H 0.17229 0.93321 0.59227 0.0
H1156 H 0.14489 0.94783 0.57219 0.0
H1157 H 0.15819 0.82586 0.56251 0.0
H1158 H 0.16418 0.83784 0.58742 0.0
H1159 H 0.1131 0.83636 0.57617 0.0
H1160 H 0.188 0.87006 0.64259 0.0
H1161 H 0.05561 0.86929 0.63019 0.0
H1162 H 0.22051 0.90117 0.59851 0.0
H1163 H 0.22482 0.86927 0.59544 0.0
H1164 H 0.23841 0.88301 0.61907 0.0
H1165 H 0.05893 0.90099 0.58508 0.0
H1166 H 0.02798 0.87908 0.59866 0.0
H1167 H 0.06171 0.86982 0.57846 0.0
C1168 C 0.09771 0.28382 0.36641 0.0
C1169 C 0.13817 0.29344 0.36305 0.0
C1170 C 0.08059 0.26576 0.35394 0.0
C1171 C 0.10458 0.25689 0.33773 0.0
C1172 C 0.14534 0.26658 0.33419 0.0
C1173 C 0.16151 0.28482 0.34679 0.0
C1174 C 0.0372 0.25582 0.35844 0.0
C1175 C 0.17183 0.25771 0.31701 0.0
C1176 C 0.07821 0.19537 0.3151 0.0
C1177 C 0.0536 0.20178 0.29864 0.0
C1178 C 0.09439 0.21308 0.32818 0.0
C1179 C 0.0869 0.23777 0.32425 0.0
C1180 C 0.06265 0.24422 0.30733 0.0
C1181 C 0.04567 0.22609 0.29492 0.0
C1182 C 0.11876 0.20536 0.3464 0.0
C1183 C 0.05376 0.27024 0.30255 0.0
H1184 H 0.07933 0.29045 0.37886 0.0
H1185 H 0.19295 0.2919 0.34421 0.0
H1186 H 0.01768 0.255 0.3447 0.0
H1187 H 0.03993 0.23715 0.36415 0.0
H1188 H 0.02053 0.26678 0.36981 0.0
H1189 H 0.20431 0.26531 0.31741 0.0
H1190 H 0.17371 0.23775 0.31719 0.0
H1191 H 0.15685 0.26287 0.30269 0.0
H1192 H 0.08367 0.17645 0.31806 0.0
H1193 H 0.02633 0.2309 0.28221 0.0
H1194 H 0.10245 0.21157 0.36009 0.0
H1195 H 0.15053 0.21384 0.34638 0.0
H1196 H 0.12225 0.18548 0.34719 0.0
H1197 H 0.03082 0.27738 0.3135 0.0
H1198 H 0.04044 0.27237 0.28731 0.0
H1199 H 0.08287 0.28138 0.30375 0.0
C1200 C 0.34192 0.26019 0.86097 0.0
C1201 C 0.36452 0.23903 0.86445 0.0
C1202 C 0.35909 0.27894 0.84932 0.0
C1203 C 0.39977 0.27644 0.84097 0.0
C1204 C 0.42349 0.25562 0.84526 0.0
C1205 C 0.40564 0.23724 0.85697 0.0
C1206 C 0.33299 0.30097 0.84528 0.0
C1207 C 0.4676 0.25263 0.83731 0.0
C1208 C 0.428 0.31128 0.79379 0.0
C1209 C 0.45167 0.33067 0.80148 0.0
C1210 C 0.41049 0.29369 0.80648 0.0
C1211 C 0.41726 0.29532 0.82738 0.0
C1212 C 0.44146 0.3147 0.83522 0.0
C1213 C 0.45795 0.3322 0.82224 0.0
C1214 C 0.38535 0.27311 0.79749 0.0
C1215 C 0.44969 0.31722 0.85736 0.0
H1216 H 0.31006 0.26166 0.86658 0.0
H1217 H 0.42359 0.22113 0.85996 0.0
H1218 H 0.35169 0.31763 0.84813 0.0
H1219 H 0.32355 0.30112 0.82931 0.0
H1220 H 0.30412 0.30142 0.8546 0.0
H1221 H 0.48052 0.23455 0.84065 0.0
H1222 H 0.46818 0.25537 0.8209 0.0
H1223 H 0.48865 0.2665 0.84409 0.0
H1224 H 0.42376 0.30957 0.77783 0.0
H1225 H 0.4761 0.34709 0.82846 0.0
H1226 H 0.35342 0.27244 0.80417 0.0
H1227 H 0.40078 0.25576 0.80095 0.0
H1228 H 0.38218 0.27469 0.78102 0.0
H1229 H 0.42063 0.32344 0.86486 0.0
H1230 H 0.47534 0.33044 0.8606 0.0
H1231 H 0.45822 0.29966 0.86404 0.0
C1232 C 0.606 0.24534 0.66808 0.0
C1233 C 0.64311 0.23324 0.67323 0.0
C1234 C 0.5887 0.26295 0.68069 0.0
C1235 C 0.60904 0.26879 0.69893 0.0
C1236 C 0.64612 0.25646 0.70438 0.0
C1237 C 0.66257 0.23877 0.69155 0.0
C1238 C 0.54919 0.27567 0.6742 0.0
C1239 C 0.66867 0.26217 0.72372 0.0
C1240 C 0.58708 0.33033 0.72171 0.0
C1241 C 0.55948 0.32432 0.73723 0.0
C1242 C 0.60409 0.3124 0.70938 0.0
C1243 C 0.59196 0.28799 0.71223 0.0
C1244 C 0.56356 0.28197 0.72782 0.0
C1245 C 0.54824 0.30022 0.74039 0.0
C1246 C 0.6347 0.31965 0.69319 0.0
C1247 C 0.5478 0.25647 0.73064 0.0
H1248 H 0.59037 0.24105 0.65409 0.0
H1249 H 0.69144 0.22979 0.69561 0.0
H1250 H 0.52675 0.27738 0.6868 0.0
H1251 H 0.55744 0.29415 0.66916 0.0
H1252 H 0.53311 0.26613 0.66167 0.0
H1253 H 0.6988 0.25234 0.72513 0.0
H1254 H 0.6753 0.28182 0.72484 0.0
H1255 H 0.64819 0.25723 0.73652 0.0
H1256 H 0.5955 0.3491 0.71932 0.0
H1257 H 0.52605 0.2958 0.75216 0.0
H1258 H 0.6205 0.31603 0.67833 0.0
H1259 H 0.66374 0.30878 0.69427 0.0
H1260 H 0.64352 0.33906 0.69406 0.0
H1261 H 0.52667 0.25154 0.71802 0.0
H1262 H 0.52997 0.25427 0.74479 0.0
H1263 H 0.5743 0.24362 0.73055 0.0
C1264 C 0.87438 0.27224 0.16579 0.0
C1265 C 0.85786 0.29275 0.17516 0.0
C1266 C 0.89345 0.25394 0.17707 0.0
C1267 C 0.89563 0.2562 0.19813 0.0
C1268 C 0.87914 0.27682 0.2076 0.0
C1269 C 0.86007 0.29461 0.19607 0.0
C1270 C 0.91132 0.23227 0.16648 0.0
C1271 C 0.88219 0.2803 0.22996 0.0
C1272 C 0.90724 0.20077 0.23061 0.0
C1273 C 0.94885 0.20328 0.23714 0.0
C1274 C 0.88941 0.21791 0.21788 0.0
C1275 C 0.91472 0.23713 0.21061 0.0
C1276 C 0.95717 0.23936 0.21685 0.0
C1277 C 0.97314 0.22287 0.23062 0.0
C1278 C 0.84352 0.21549 0.21231 0.0
C1279 C 0.98626 0.25858 0.20859 0.0
H1280 H 0.87306 0.27066 0.14966 0.0
H1281 H 0.84657 0.31003 0.20357 0.0
H1282 H 0.94319 0.22815 0.17227 0.0
H1283 H 0.89097 0.2163 0.16935 0.0
H1284 H 0.91331 0.23499 0.15008 0.0
H1285 H 0.86557 0.29668 0.23515 0.0
H1286 H 0.86883 0.26439 0.23782 0.0
H1287 H 0.91578 0.28199 0.2344 0.0
H1288 H 0.88895 0.18514 0.23505 0.0
H1289 H 0.00474 0.2253 0.23628 0.0
H1290 H 0.84045 0.21255 0.19598 0.0
H1291 H 0.82679 0.23239 0.21601 0.0
H1292 H 0.82771 0.2003 0.22018 0.0
H1293 H 0.99546 0.25342 0.19318 0.0
H1294 H 0.01543 0.26063 0.21764 0.0
H1295 H 0.97056 0.2763 0.20774 0.0
C1296 C 0.87501 0.76179 0.66308 0.0
C1297 C 0.87094 0.73763 0.66915 0.0
C1298 C 0.89538 0.77911 0.67508 0.0
C1299 C 0.91141 0.77236 0.69395 0.0
C1300 C 0.90697 0.74817 0.7004 0.0
C1301 C 0.88699 0.73107 0.68791 0.0
C1302 C 0.90005 0.8046 0.66745 0.0
C1303 C 0.9224 0.7405 0.72073 0.0
C1304 C 0.99253 0.81218 0.72057 0.0
C1305 C 0.96691 0.82606 0.73308 0.0
C1306 C 0.97492 0.795 0.7074 0.0
C1307 C 0.9308 0.79092 0.70734 0.0
C1308 C 0.90487 0.80487 0.71994 0.0
C1309 C 0.92312 0.8227 0.73213 0.0
C1310 C 0.00345 0.78139 0.69344 0.0
C1311 C 0.85768 0.80122 0.72039 0.0
H1312 H 0.8619 0.76732 0.64889 0.0
H1313 H 0.88432 0.71252 0.69279 0.0
H1314 H 0.88689 0.81761 0.67832 0.0
H1315 H 0.93395 0.80912 0.6657 0.0
H1316 H 0.88413 0.80717 0.65284 0.0
H1317 H 0.92111 0.72063 0.72264 0.0
H1318 H 0.95523 0.74682 0.72326 0.0
H1319 H 0.90257 0.74892 0.73242 0.0
H1320 H 0.02632 0.81497 0.7208 0.0
H1321 H 0.90277 0.83401 0.74088 0.0
H1322 H 0.99353 0.78438 0.67775 0.0
H1323 H 1.00083 0.76177 0.69635 0.0
H1324 H 0.03695 0.78704 0.69503 0.0
H1325 H 0.84377 0.80758 0.70618 0.0
H1326 H 0.84277 0.81122 0.73284 0.0
H1327 H 0.84962 0.7818 0.7219 0.0
C1328 C 0.61469 0.7803 0.16621 0.0
C1329 C 0.65592 0.78839 0.17004 0.0
C1330 C 0.59669 0.76139 0.17747 0.0
C1331 C 0.62048 0.75051 0.19289 0.0
C1332 C 0.66267 0.75792 0.19612 0.0
C1333 C 0.67988 0.7766 0.18459 0.0
C1334 C 0.55172 0.75375 0.17344 0.0
C1335 C 0.68937 0.74657 0.21217 0.0
C1336 C 0.56322 0.72219 0.23693 0.0
C1337 C 0.5682 0.69761 0.23302 0.0
C1338 C 0.58009 0.73961 0.22397 0.0
C1339 C 0.60111 0.73216 0.20636 0.0
C1340 C 0.60564 0.70722 0.20231 0.0
C1341 C 0.58962 0.69021 0.21589 0.0
C1342 C 0.57587 0.76595 0.22926 0.0
C1343 C 0.62622 0.69845 0.18337 0.0
H1344 H 0.59597 0.78941 0.15505 0.0
H1345 H 0.712 0.78253 0.18735 0.0
H1346 H 0.54877 0.7338 0.1731 0.0
H1347 H 0.53128 0.76038 0.18566 0.0
H1348 H 0.53985 0.76105 0.15909 0.0
H1349 H 0.7208 0.75538 0.21356 0.0
H1350 H 0.67323 0.74763 0.22684 0.0
H1351 H 0.69391 0.7272 0.20872 0.0
H1352 H 0.54659 0.72775 0.25029 0.0
H1353 H 0.59271 0.6711 0.21284 0.0
H1354 H 0.55756 0.77526 0.21753 0.0
H1355 H 0.60745 0.77467 0.2299 0.0
H1356 H 0.55998 0.76866 0.24386 0.0
H1357 H 0.60489 0.70187 0.17057 0.0
H1358 H 0.63284 0.67883 0.18387 0.0
H1359 H 0.65609 0.70835 0.18049 0.0
C1360 C 0.40906 0.7917 0.35767 0.0
C1361 C 0.36722 0.78868 0.36382 0.0
C1362 C 0.42884 0.77402 0.34595 0.0
C1363 C 0.40577 0.75323 0.3399 0.0
C1364 C 0.36352 0.75016 0.3462 0.0
C1365 C 0.34487 0.76785 0.35821 0.0
C1366 C 0.4744 0.7775 0.34016 0.0
C1367 C 0.33824 0.72797 0.34051 0.0
C1368 C 0.44249 0.72028 0.29329 0.0
C1369 C 0.46085 0.69959 0.30134 0.0
C1370 C 0.42381 0.73761 0.30568 0.0
C1371 C 0.42539 0.73484 0.32668 0.0
C1372 C 0.44505 0.71436 0.33494 0.0
C1373 C 0.46207 0.69689 0.32218 0.0
C1374 C 0.40224 0.75886 0.29626 0.0
C1375 C 0.44964 0.71115 0.35723 0.0
H1376 H 0.42648 0.80765 0.36237 0.0
H1377 H 0.31274 0.76542 0.36332 0.0
H1378 H 0.49241 0.76081 0.34296 0.0
H1379 H 0.47652 0.78137 0.32394 0.0
H1380 H 0.48959 0.79262 0.34848 0.0
H1381 H 0.30486 0.72917 0.34529 0.0
H1382 H 0.33917 0.72514 0.32409 0.0
H1383 H 0.3523 0.71188 0.34758 0.0
H1384 H 0.44296 0.72311 0.2773 0.0
H1385 H 0.47694 0.68123 0.32862 0.0
H1386 H 0.41867 0.77581 0.30065 0.0
H1387 H 0.36937 0.76001 0.30176 0.0
H1388 H 0.40162 0.75767 0.2797 0.0
H1389 H 0.47622 0.7226 0.36259 0.0
H1390 H 0.45648 0.69216 0.3612 0.0
H1391 H 0.42096 0.71681 0.36533 0.0
C1392 C 0.12516 0.72988 0.84679 0.0
C1393 C 0.15326 0.73446 0.86261 0.0
C1394 C 0.10795 0.74868 0.83562 0.0
C1395 C 0.11876 0.77279 0.84044 0.0
C1396 C 0.14504 0.77771 0.85711 0.0
C1397 C 0.16199 0.75845 0.86805 0.0
C1398 C 0.0794 0.74264 0.8182 0.0
C1399 C 0.15594 0.8033 0.86306 0.0
C1400 C 0.1087 0.8158 0.7967 0.0
C1401 C 0.07121 0.82774 0.80106 0.0
C1402 C 0.12582 0.79896 0.80998 0.0
C1403 C 0.1035 0.79267 0.82753 0.0
C1404 C 0.06533 0.80431 0.83199 0.0
C1405 C 0.05038 0.82207 0.81906 0.0
C1406 C 0.16765 0.78771 0.80511 0.0
C1407 C 0.03884 0.7972 0.84979 0.0
H1408 H 0.11731 0.71142 0.8428 0.0
H1409 H 0.18344 0.76218 0.88031 0.0
H1410 H 0.05077 0.75391 0.81856 0.0
H1411 H 0.09606 0.74656 0.80401 0.0
H1412 H 0.06963 0.72335 0.81808 0.0
H1413 H 0.17925 0.80413 0.87543 0.0
H1414 H 0.16877 0.81333 0.85007 0.0
H1415 H 0.12702 0.81269 0.86793 0.0
H1416 H 0.12489 0.81936 0.783 0.0
H1417 H 0.02127 0.83095 0.82291 0.0
H1418 H 0.16315 0.76822 0.80195 0.0
H1419 H 0.1892 0.78934 0.81813 0.0
H1420 H 0.18299 0.79625 0.79198 0.0
H1421 H 0.02154 0.78024 0.84621 0.0
H1422 H 0.01534 0.81118 0.85357 0.0
H1423 H 0.05852 0.79379 0.86314 0.0
loop_
_geom_bond_atom_site_label_1
_geom_bond_atom_site_label_2
_geom_bond_distance
_geom_bond_site_symmetry_2
_ccdc_geom_bond_type
C0 C1 1.264 . S
C0 C5 1.479 . S
C0 C10 1.465 . S
C1 C0 1.264 . S
C1 C3 1.339 . S
C1 H28 0.931 . S
C2 C3 1.395 . S
C2 C4 1.320 . S
C3 C1 1.339 . S
C3 C2 1.395 . S
C3 H29 0.929 . S
C4 C2 1.320 . S
C4 C5 1.405 . S
C4 H30 0.930 . S
C5 C0 1.479 . S
C5 C4 1.405 . S
C5 H31 0.931 . S
U6 O7 2.454 . S
U6 O8 2.458 . S
U6 C9 2.984 . S
U6 C10 2.847 . S
U6 C23 2.882 . S
U6 O24 2.441 . S
U6 O25 2.420 . S
U6 O26 2.455 . S
U6 O27 2.449 . S
O7 U6 2.454 . S
O7 C9 1.353 . S
O8 U6 2.458 . S
O8 C9 1.286 . S
C9 U6 2.984 . S
C9 O7 1.353 . S
C9 O8 1.286 . S
C9 C11 1.363 . S
C10 C0 1.465 . S
C10 U6 2.847 . S
C10 O24 1.249 . S
C10 O25 1.202 . S
C11 C9 1.363 . S
C11 C13 1.408 . S
C11 C16 1.342 . S
C12 C13 1.310 . S
C12 C15 1.461 . S
C12 H32 0.932 . S
C13 C11 1.408 . S
C13 C12 1.310 . S
C13 H33 0.930 . S
C14 C15 1.474 . S
C14 C16 1.285 . S
C14 H34 0.929 . S
C15 C12 1.461 . S
C15 C14 1.474 . S
C16 C11 1.342 . S
C16 C14 1.285 . S
C16 H35 0.930 . S
C17 C20 1.424 . S
C17 C22 1.245 . S
C17 C23 1.428 . S
C18 C21 1.260 . S
C18 C22 1.477 . S
C18 H36 0.932 . S
C19 C20 1.384 . S
C19 C21 1.479 . S
C19 H37 0.929 . S
C20 C17 1.424 . S
C20 C19 1.384 . S
C20 H38 0.928 . S
C21 C18 1.260 . S
C21 C19 1.479 . S
C22 C17 1.245 . S
C22 C18 1.477 . S
C22 H39 0.932 . S
C23 U6 2.882 . S
C23 C17 1.428 . S
C23 O26 1.301 . S
C23 O27 1.282 . S
O24 U6 2.441 . S
O24 C10 1.249 . S
O25 U6 2.420 . S
O25 C10 1.202 . S
O26 U6 2.455 . S
O26 C23 1.301 . S
O27 U6 2.449 . S
O27 C23 1.282 . S
H28 C1 0.931 . S
H29 C3 0.929 . S
H30 C4 0.930 . S
H31 C5 0.931 . S
H32 C12 0.932 . S
H33 C13 0.930 . S
H34 C14 0.929 . S
H35 C16 0.930 . S
H36 C18 0.932 . S
H37 C19 0.929 . S
H38 C20 0.928 . S
H39 C22 0.932 . S
C40 C41 1.264 . S
C40 C45 1.479 . S
C40 C50 1.465 . S
C41 C40 1.264 . S
C41 C43 1.339 . S
C41 H68 0.931 . S
C42 C43 1.395 1_554 S
C42 C44 1.320 . S
C43 C41 1.339 . S
C43 C42 1.395 1_556 S
C43 H69 0.919 1_556 S
C44 C42 1.320 . S
C44 C45 1.405 1_554 S
C44 H70 0.930 . S
C45 C40 1.479 . S
C45 C44 1.405 1_556 S
C45 H71 0.931 . S
U46 O47 2.454 . S
U46 O48 2.458 . S
U46 C49 2.984 . S
U46 C50 2.847 . S
U46 C63 2.882 . S
U46 O64 2.441 . S
U46 O65 2.420 . S
U46 O66 2.455 . S
U46 O67 2.449 . S
O47 U46 2.454 . S
O47 C49 1.353 . S
O48 U46 2.458 . S
O48 C49 1.286 . S
C49 U46 2.984 . S
C49 O47 1.353 . S
C49 O48 1.286 . S
C49 C51 1.363 . S
C50 C40 1.465 . S
C50 U46 2.847 . S
C50 O64 1.249 . S
C50 O65 1.202 . S
C51 C49 1.363 . S
C51 C53 1.408 . S
C51 C56 1.342 . S
C52 C53 1.310 . S
C52 C55 1.461 . S
C52 H72 0.932 . S
C53 C51 1.408 . S
C53 C52 1.310 . S
C53 H73 0.930 . S
C54 C55 1.474 . S
C54 C56 1.285 . S
C54 H74 0.929 . S
C55 C52 1.461 . S
C55 C54 1.474 . S
C56 C51 1.342 . S
C56 C54 1.285 . S
C56 H75 0.930 . S
C57 C60 1.424 . S
C57 C62 1.245 . S
C57 C63 1.428 . S
C58 C61 1.260 . S
C58 C62 1.477 . S
C58 H76 0.932 . S
C59 C60 1.384 . S
C59 C61 1.479 . S
C59 H77 0.929 . S
C60 C57 1.424 . S
C60 C59 1.384 . S
C60 H78 0.928 . S
C61 C58 1.260 . S
C61 C59 1.479 . S
C62 C57 1.245 . S
C62 C58 1.477 . S
C62 H79 0.932 . S
C63 U46 2.882 . S
C63 C57 1.428 . S
C63 O66 1.301 . S
C63 O67 1.282 . S
O64 U46 2.441 . S
O64 C50 1.249 . S
O65 U46 2.420 . S
O65 C50 1.202 . S
O66 U46 2.455 . S
O66 C63 1.301 . S
O67 U46 2.449 . S
O67 C63 1.282 . S
H68 C41 0.931 . S
H69 C43 0.919 1_554 S
H70 C44 0.930 . S
H71 C45 0.931 . S
H72 C52 0.932 . S
H73 C53 0.930 . S
H74 C54 0.929 . S
H75 C56 0.930 . S
H76 C58 0.932 . S
H77 C59 0.929 . S
H78 C60 0.928 . S
H79 C62 0.932 . S
C80 C81 1.264 . S
C80 C85 1.479 . S
C80 C90 1.465 . S
C81 C80 1.264 . S
C81 C83 1.339 . S
C81 H108 0.931 . S
C82 C83 1.395 . S
C82 C84 1.320 . S
C83 C81 1.339 . S
C83 C82 1.395 . S
C83 H109 0.929 . S
C84 C82 1.320 . S
C84 C85 1.405 . S
C84 H110 0.930 . S
C85 C80 1.479 . S
C85 C84 1.405 . S
C85 H111 0.931 . S
U86 O87 2.454 . S
U86 O88 2.458 . S
U86 C89 2.984 . S
U86 C90 2.847 . S
U86 C103 2.882 . S
U86 O104 2.441 . S
U86 O105 2.420 . S
U86 O106 2.455 . S
U86 O107 2.449 . S
O87 U86 2.454 . S
O87 C89 1.353 . S
O88 U86 2.458 . S
O88 C89 1.286 . S
C89 U86 2.984 . S
C89 O87 1.353 . S
C89 O88 1.286 . S
C89 C91 1.363 . S
C90 C80 1.465 . S
C90 U86 2.847 . S
C90 O104 1.249 . S
C90 O105 1.202 . S
C91 C89 1.363 . S
C91 C93 1.408 . S
C91 C96 1.342 . S
C92 C93 1.310 . S
C92 C95 1.461 . S
C92 H112 0.932 . S
C93 C91 1.408 . S
C93 C92 1.310 . S
C93 H113 0.930 . S
C94 C95 1.474 . S
C94 C96 1.285 . S
C94 H114 0.929 . S
C95 C92 1.461 . S
C95 C94 1.474 . S
C96 C91 1.342 . S
C96 C94 1.285 . S
C96 H115 0.930 . S
C97 C100 1.424 . S
C97 C102 1.245 . S
C97 C103 1.428 . S
C98 C101 1.260 . S
C98 C102 1.477 . S
C98 H116 0.932 . S
C99 C100 1.384 . S
C99 C101 1.479 . S
C99 H117 0.929 . S
C100 C97 1.424 . S
C100 C99 1.384 . S
C100 H118 0.928 . S
C101 C98 1.260 . S
C101 C99 1.479 . S
C102 C97 1.245 . S
C102 C98 1.477 . S
C102 H119 0.932 . S
C103 U86 2.882 . S
C103 C97 1.428 . S
C103 O106 1.301 . S
C103 O107 1.282 . S
O104 U86 2.441 . S
O104 C90 1.249 . S
O105 U86 2.420 . S
O105 C90 1.202 . S
O106 U86 2.455 . S
O106 C103 1.301 . S
O107 U86 2.449 . S
O107 C103 1.282 . S
H108 C81 0.931 . S
H109 C83 0.929 . S
H110 C84 0.930 . S
H111 C85 0.931 . S
H112 C92 0.932 . S
H113 C93 0.930 . S
H114 C94 0.929 . S
H115 C96 0.930 . S
H116 C98 0.932 . S
H117 C99 0.929 . S
H118 C100 0.928 . S
H119 C102 0.932 . S
C120 C121 1.264 . S
C120 C125 1.479 . S
C120 C130 1.465 . S
C121 C120 1.264 . S
C121 C123 1.339 . S
C121 H148 0.931 . S
C122 C123 1.395 1_556 S
C122 C124 1.320 1_556 S
C123 C121 1.339 . S
C123 C122 1.395 1_554 S
C123 H149 0.929 . S
C124 C122 1.320 1_554 S
C124 C125 1.405 . S
C124 H150 0.930 1_554 S
C125 C120 1.479 . S
C125 C124 1.405 . S
C125 H151 0.931 . S
U126 O127 2.454 . S
U126 O128 2.458 . S
U126 C129 2.984 . S
U126 C130 2.847 . S
U126 C143 2.882 . S
U126 O144 2.441 . S
U126 O145 2.420 . S
U126 O146 2.455 . S
U126 O147 2.449 . S
O127 U126 2.454 . S
O127 C129 1.353 . S
O128 U126 2.458 . S
O128 C129 1.286 . S
C129 U126 2.984 . S
C129 O127 1.353 . S
C129 O128 1.286 . S
C129 C131 1.363 . S
C130 C120 1.465 . S
C130 U126 2.847 . S
C130 O144 1.249 . S
C130 O145 1.202 . S
C131 C129 1.363 . S
C131 C133 1.408 . S
C131 C136 1.342 . S
C132 C133 1.310 . S
C132 C135 1.461 . S
C132 H152 0.932 . S
C133 C131 1.408 . S
C133 C132 1.310 . S
C133 H153 0.930 . S
C134 C135 1.474 . S
C134 C136 1.285 . S
C134 H154 0.929 . S
C135 C132 1.461 . S
C135 C134 1.474 . S
C136 C131 1.342 . S
C136 C134 1.285 . S
C136 H155 0.930 . S
C137 C140 1.424 . S
C137 C142 1.245 . S
C137 C143 1.428 . S
C138 C141 1.260 . S
C138 C142 1.477 . S
C138 H156 0.932 . S
C139 C140 1.384 . S
C139 C141 1.479 . S
C139 H157 0.929 . S
C140 C137 1.424 . S
C140 C139 1.384 . S
C140 H158 0.928 . S
C141 C138 1.260 . S
C141 C139 1.479 . S
C142 C137 1.245 . S
C142 C138 1.477 . S
C142 H159 0.932 . S
C143 U126 2.882 . S
C143 C137 1.428 . S
C143 O146 1.301 . S
C143 O147 1.282 . S
O144 U126 2.441 . S
O144 C130 1.249 . S
O145 U126 2.420 . S
O145 C130 1.202 . S
O146 U126 2.455 . S
O146 C143 1.301 . S
O147 U126 2.449 . S
O147 C143 1.282 . S
H148 C121 0.931 . S
H149 C123 0.929 . S
H150 C124 0.930 1_556 S
H151 C125 0.931 . S
H152 C132 0.932 . S
H153 C133 0.930 . S
H154 C134 0.929 . S
H155 C136 0.930 . S
H156 C138 0.932 . S
H157 C139 0.929 . S
H158 C140 0.928 . S
H159 C142 0.932 . S
C160 C161 1.264 . S
C160 C165 1.479 . S
C160 C170 1.465 . S
C161 C160 1.264 . S
C161 C163 1.339 . S
C161 H188 0.931 . S
C162 C163 1.395 . S
C162 C164 1.320 . S
C163 C161 1.339 . S
C163 C162 1.395 . S
C163 H189 0.929 . S
C164 C162 1.320 . S
C164 C165 1.405 . S
C164 H190 0.930 . S
C165 C160 1.479 . S
C165 C164 1.405 . S
C165 H191 0.931 . S
U166 O167 2.454 . S
U166 O168 2.458 . S
U166 C169 2.984 . S
U166 C170 2.847 . S
U166 C183 2.882 . S
U166 O184 2.441 . S
U166 O185 2.420 . S
U166 O186 2.455 . S
U166 O187 2.449 . S
O167 U166 2.454 . S
O167 C169 1.353 . S
O168 U166 2.458 . S
O168 C169 1.286 . S
C169 U166 2.984 . S
C169 O167 1.353 . S
C169 O168 1.286 . S
C169 C171 1.363 . S
C170 C160 1.465 . S
C170 U166 2.847 . S
C170 O184 1.249 . S
C170 O185 1.202 . S
C171 C169 1.363 . S
C171 C173 1.408 . S
C171 C176 1.342 . S
C172 C173 1.310 . S
C172 C175 1.461 . S
C172 H192 0.932 . S
C173 C171 1.408 . S
C173 C172 1.310 . S
C173 H193 0.930 . S
C174 C175 1.474 . S
C174 C176 1.285 . S
C174 H194 0.929 . S
C175 C172 1.461 . S
C175 C174 1.474 . S
C176 C171 1.342 . S
C176 C174 1.285 . S
C176 H195 0.930 . S
C177 C180 1.424 . S
C177 C182 1.245 . S
C177 C183 1.428 . S
C178 C181 1.260 . S
C178 C182 1.477 . S
C178 H196 0.932 . S
C179 C180 1.384 . S
C179 C181 1.479 . S
C179 H197 0.929 . S
C180 C177 1.424 . S
C180 C179 1.384 . S
C180 H198 0.928 . S
C181 C178 1.260 . S
C181 C179 1.479 . S
C182 C177 1.245 . S
C182 C178 1.477 . S
C182 H199 0.932 . S
C183 U166 2.882 . S
C183 C177 1.428 . S
C183 O186 1.301 . S
C183 O187 1.282 . S
O184 U166 2.441 . S
O184 C170 1.249 . S
O185 U166 2.420 . S
O185 C170 1.202 . S
O186 U166 2.455 . S
O186 C183 1.301 . S
O187 U166 2.449 . S
O187 C183 1.282 . S
H188 C161 0.931 . S
H189 C163 0.929 . S
H190 C164 0.930 . S
H191 C165 0.931 . S
H192 C172 0.932 . S
H193 C173 0.930 . S
H194 C174 0.929 . S
H195 C176 0.930 . S
H196 C178 0.932 . S
H197 C179 0.929 . S
H198 C180 0.928 . S
H199 C182 0.932 . S
C200 C201 1.264 . S
C200 C205 1.479 . S
C200 C210 1.465 . S
C201 C200 1.264 . S
C201 C203 1.339 . S
C201 H228 0.931 . S
C202 C203 1.395 1_556 S
C202 C204 1.320 . S
C203 C201 1.339 . S
C203 C202 1.395 1_554 S
C203 H229 0.929 1_554 S
C204 C202 1.320 . S
C204 C205 1.405 1_556 S
C204 H230 0.930 . S
C205 C200 1.479 . S
C205 C204 1.405 1_554 S
C205 H231 0.931 . S
U206 O207 2.454 . S
U206 O208 2.458 . S
U206 C209 2.984 . S
U206 C210 2.847 . S
U206 C223 2.882 . S
U206 O224 2.441 . S
U206 O225 2.420 . S
U206 O226 2.455 . S
U206 O227 2.449 . S
O207 U206 2.454 . S
O207 C209 1.353 . S
O208 U206 2.458 . S
O208 C209 1.286 . S
C209 U206 2.984 . S
C209 O207 1.353 . S
C209 O208 1.286 . S
C209 C211 1.363 . S
C210 C200 1.465 . S
C210 U206 2.847 . S
C210 O224 1.249 . S
C210 O225 1.202 . S
C211 C209 1.363 . S
C211 C213 1.408 . S
C211 C216 1.342 . S
C212 C213 1.310 . S
C212 C215 1.461 . S
C212 H232 0.932 . S
C213 C211 1.408 . S
C213 C212 1.310 . S
C213 H233 0.930 . S
C214 C215 1.474 . S
C214 C216 1.285 . S
C214 H234 0.929 . S
C215 C212 1.461 . S
C215 C214 1.474 . S
C216 C211 1.342 . S
C216 C214 1.285 . S
C216 H235 0.930 . S
C217 C220 1.424 . S
C217 C222 1.245 . S
C217 C223 1.428 . S
C218 C221 1.260 . S
C218 C222 1.477 . S
C218 H236 0.932 . S
C219 C220 1.384 . S
C219 C221 1.479 . S
C219 H237 0.929 . S
C220 C217 1.424 . S
C220 C219 1.384 . S
C220 H238 0.928 . S
C221 C218 1.260 . S
C221 C219 1.479 . S
C222 C217 1.245 . S
C222 C218 1.477 . S
C222 H239 0.932 . S
C223 U206 2.882 . S
C223 C217 1.428 . S
C223 O226 1.301 . S
C223 O227 1.282 . S
O224 U206 2.441 . S
O224 C210 1.249 . S
O225 U206 2.420 . S
O225 C210 1.202 . S
O226 U206 2.455 . S
O226 C223 1.301 . S
O227 U206 2.449 . S
O227 C223 1.282 . S
H228 C201 0.931 . S
H229 C203 0.929 1_556 S
H230 C204 0.930 . S
H231 C205 0.931 . S
H232 C212 0.932 . S
H233 C213 0.930 . S
H234 C214 0.929 . S
H235 C216 0.930 . S
H236 C218 0.932 . S
H237 C219 0.929 . S
H238 C220 0.928 . S
H239 C222 0.932 . S
C240 C241 1.264 . S
C240 C245 1.479 . S
C240 C250 1.465 . S
C241 C240 1.264 . S
C241 C243 1.339 . S
C241 H268 0.931 . S
C242 C243 1.395 . S
C242 C244 1.320 . S
C243 C241 1.339 . S
C243 C242 1.395 . S
C243 H269 0.929 . S
C244 C242 1.320 . S
C244 C245 1.405 . S
C244 H270 0.930 . S
C245 C240 1.479 . S
C245 C244 1.405 . S
C245 H271 0.931 . S
U246 O247 2.454 . S
U246 O248 2.458 . S
U246 C249 2.984 . S
U246 C250 2.847 . S
U246 C263 2.882 . S
U246 O264 2.441 . S
U246 O265 2.420 . S
U246 O266 2.455 . S
U246 O267 2.449 . S
O247 U246 2.454 . S
O247 C249 1.353 . S
O248 U246 2.458 . S
O248 C249 1.286 . S
C249 U246 2.984 . S
C249 O247 1.353 . S
C249 O248 1.286 . S
C249 C251 1.363 . S
C250 C240 1.465 . S
C250 U246 2.847 . S
C250 O264 1.249 . S
C250 O265 1.202 . S
C251 C249 1.363 . S
C251 C253 1.408 . S
C251 C256 1.342 . S
C252 C253 1.310 . S
C252 C255 1.461 . S
C252 H272 0.932 . S
C253 C251 1.408 . S
C253 C252 1.310 . S
C253 H273 0.930 . S
C254 C255 1.474 . S
C254 C256 1.285 . S
C254 H274 0.929 . S
C255 C252 1.461 . S
C255 C254 1.474 . S
C256 C251 1.342 . S
C256 C254 1.285 . S
C256 H275 0.930 . S
C257 C260 1.424 . S
C257 C262 1.245 . S
C257 C263 1.428 . S
C258 C261 1.260 . S
C258 C262 1.477 . S
C258 H276 0.932 . S
C259 C260 1.384 . S
C259 C261 1.479 . S
C259 H277 0.929 . S
C260 C257 1.424 . S
C260 C259 1.384 . S
C260 H278 0.928 . S
C261 C258 1.260 . S
C261 C259 1.479 . S
C262 C257 1.245 . S
C262 C258 1.477 . S
C262 H279 0.932 . S
C263 U246 2.882 . S
C263 C257 1.428 . S
C263 O266 1.301 . S
C263 O267 1.282 . S
O264 U246 2.441 . S
O264 C250 1.249 . S
O265 U246 2.420 . S
O265 C250 1.202 . S
O266 U246 2.455 . S
O266 C263 1.301 . S
O267 U246 2.449 . S
O267 C263 1.282 . S
H268 C241 0.931 . S
H269 C243 0.929 . S
H270 C244 0.930 . S
H271 C245 0.931 . S
H272 C252 0.932 . S
H273 C253 0.930 . S
H274 C254 0.929 . S
H275 C256 0.930 . S
H276 C258 0.932 . S
H277 C259 0.929 . S
H278 C260 0.928 . S
H279 C262 0.932 . S
C280 C281 1.264 . S
C280 C285 1.479 . S
C280 C290 1.465 . S
C281 C280 1.264 . S
C281 C283 1.339 . S
C281 H308 0.931 . S
C282 C283 1.395 1_554 S
C282 C284 1.299 1_554 S
C283 C281 1.339 . S
C283 C282 1.395 1_556 S
C283 H309 0.910 1_556 S
C284 C282 1.299 1_556 S
C284 C285 1.458 . S
C284 H310 0.901 1_556 S
C285 C280 1.479 . S
C285 C284 1.458 . S
C285 H311 0.931 . S
U286 O287 2.454 . S
U286 O288 2.458 . S
U286 C289 2.984 . S
U286 C290 2.847 . S
U286 C303 2.882 . S
U286 O304 2.441 . S
U286 O305 2.420 . S
U286 O306 2.455 . S
U286 O307 2.449 . S
O287 U286 2.454 . S
O287 C289 1.353 . S
O288 U286 2.458 . S
O288 C289 1.286 . S
C289 U286 2.984 . S
C289 O287 1.353 . S
C289 O288 1.286 . S
C289 C291 1.363 . S
C290 C280 1.465 . S
C290 U286 2.847 . S
C290 O304 1.249 . S
C290 O305 1.202 . S
C291 C289 1.363 . S
C291 C293 1.408 . S
C291 C296 1.342 . S
C292 C293 1.310 . S
C292 C295 1.461 . S
C292 H312 0.932 . S
C293 C291 1.408 . S
C293 C292 1.310 . S
C293 H313 0.930 . S
C294 C295 1.474 . S
C294 C296 1.285 . S
C294 H314 0.929 . S
C295 C292 1.461 . S
C295 C294 1.474 . S
C296 C291 1.342 . S
C296 C294 1.285 . S
C296 H315 0.930 . S
C297 C300 1.424 . S
C297 C302 1.245 . S
C297 C303 1.428 . S
C298 C301 1.260 . S
C298 C302 1.477 . S
C298 H316 0.932 . S
C299 C300 1.384 . S
C299 C301 1.479 . S
C299 H317 0.929 . S
C300 C297 1.424 . S
C300 C299 1.384 . S
C300 H318 0.928 . S
C301 C298 1.260 . S
C301 C299 1.479 . S
C302 C297 1.245 . S
C302 C298 1.477 . S
C302 H319 0.932 . S
C303 U286 2.882 . S
C303 C297 1.428 . S
C303 O306 1.301 . S
C303 O307 1.282 . S
O304 U286 2.441 . S
O304 C290 1.249 . S
O305 U286 2.420 . S
O305 C290 1.202 . S
O306 U286 2.455 . S
O306 C303 1.301 . S
O307 U286 2.449 . S
O307 C303 1.282 . S
H308 C281 0.931 . S
H309 C283 0.910 1_554 S
H310 C284 0.901 1_554 S
H311 C285 0.931 . S
H312 C292 0.932 . S
H313 C293 0.930 . S
H314 C294 0.929 . S
H315 C296 0.930 . S
H316 C298 0.932 . S
H317 C299 0.929 . S
H318 C300 0.928 . S
H319 C302 0.932 . S
Tb320 N349 2.617 . S
Tb320 N355 2.572 . S
Tb320 O364 2.465 . S
Tb320 O365 2.387 . S
Tb320 O367 2.428 . S
Tb320 O368 2.329 . S
Tb320 O372 2.349 . S
Tb320 O375 2.393 . S
Tb320 C384 2.802 . S
C321 N322 1.379 . S
C321 C324 1.416 . S
C321 C328 1.424 . S
N322 C321 1.379 . S
N322 C325 1.334 . S
N322 Tb331 2.617 . S
C323 C325 1.390 . S
C323 C326 1.339 . S
C323 H343 0.930 . S
C324 C321 1.416 . S
C324 C326 1.416 . S
C324 C330 1.448 . S
C325 N322 1.334 . S
C325 C323 1.390 . S
C325 H336 0.930 . S
C326 C323 1.339 . S
C326 C324 1.416 . S
C326 H347 0.930 . S
C327 C328 1.413 . S
C327 C329 1.427 . S
C327 C333 1.416 . S
C328 C321 1.424 . S
C328 C327 1.413 . S
C328 N332 1.361 . S
C329 C327 1.427 . S
C329 C330 1.328 . S
C329 H344 0.929 . S
C330 C324 1.448 . S
C330 C329 1.328 . S
C330 H345 0.930 . S
Tb331 N322 2.617 . S
Tb331 N332 2.572 . S
Tb331 O366 2.336 1_655 S
Tb331 O369 2.393 . S
Tb331 O370 2.465 . S
Tb331 O371 2.387 . S
Tb331 O373 2.428 . S
Tb331 O374 2.308 1_655 S
Tb331 C395 2.802 . S
N332 C328 1.361 . S
N332 Tb331 2.572 . S
N332 C334 1.340 . S
C333 C327 1.416 . S
C333 C335 1.332 . S
C333 H341 0.931 . S
C334 N332 1.340 . S
C334 C335 1.407 . S
C334 H340 0.930 . S
C335 C333 1.332 . S
C335 C334 1.407 . S
C335 H337 0.929 . S
H336 C325 0.930 . S
H337 C335 0.929 . S
H338 C353 0.930 . S
H339 C360 0.929 . S
H340 C334 0.930 . S
H341 C333 0.931 . S
H342 C356 0.930 . S
H343 C323 0.930 . S
H344 C329 0.929 . S
H345 C330 0.930 . S
H346 C351 0.930 . S
H347 C326 0.930 . S
H348 C359 0.931 . S
N349 Tb320 2.617 . S
N349 C350 1.379 . S
N349 C353 1.334 . S
C350 N349 1.379 . S
C350 C352 1.416 . S
C350 C358 1.424 . S
C351 H346 0.930 . S
C351 C353 1.390 . S
C351 C354 1.339 . S
C352 C350 1.416 . S
C352 C354 1.416 . S
C352 C385 1.448 . S
C353 H338 0.930 . S
C353 N349 1.334 . S
C353 C351 1.390 . S
C354 C351 1.339 . S
C354 C352 1.416 . S
C354 H361 0.930 . S
N355 Tb320 2.572 . S
N355 C356 1.340 . S
N355 C358 1.361 . S
C356 H342 0.930 . S
C356 N355 1.340 . S
C356 C360 1.407 . S
C357 C358 1.413 . S
C357 C359 1.416 . S
C357 C386 1.427 . S
C358 C350 1.424 . S
C358 N355 1.361 . S
C358 C357 1.413 . S
C359 H348 0.931 . S
C359 C357 1.416 . S
C359 C360 1.332 . S
C360 H339 0.929 . S
C360 C356 1.407 . S
C360 C359 1.332 . S
H361 C354 0.930 . S
H362 C385 0.930 . S
H363 C386 0.929 . S
O364 Tb320 2.465 . S
O364 C384 1.264 . S
O365 Tb320 2.387 . S
O365 C376 1.264 . S
O366 Tb331 2.336 1_455 S
O366 C376 1.260 . S
O367 Tb320 2.428 . S
O367 C384 1.256 . S
O368 Tb320 2.329 . S
O368 C383 1.242 1_455 S
O369 Tb331 2.393 . S
O369 C383 1.248 . S
O370 Tb331 2.465 . S
O370 C395 1.264 . S
O371 Tb331 2.387 . S
O371 C387 1.264 . S
O372 Tb320 2.349 . S
O372 C387 1.243 1_455 S
O373 Tb331 2.428 . S
O373 C395 1.256 . S
O374 Tb331 2.308 1_455 S
O374 C394 1.266 . S
O375 Tb320 2.393 . S
O375 C394 1.248 . S
C376 O365 1.264 . S
C376 O366 1.260 . S
C377 C380 1.399 . S
C377 C382 1.383 . S
C377 C384 1.496 . S
C378 C379 1.399 . S
C378 C382 1.389 . S
C379 C378 1.399 . S
C379 C381 1.380 . S
C379 H396 0.929 . S
C380 C377 1.399 . S
C380 C381 1.392 . S
C380 H397 0.929 . S
C381 C379 1.380 . S
C381 C380 1.392 . S
C381 H398 0.929 . S
C382 C377 1.383 . S
C382 C378 1.389 . S
C382 H399 0.931 . S
C383 O368 1.242 1_655 S
C383 O369 1.248 . S
C384 Tb320 2.802 . S
C384 O364 1.264 . S
C384 O367 1.256 . S
C384 C377 1.496 . S
C385 C352 1.448 . S
C385 H362 0.930 . S
C385 C386 1.328 . S
C386 C357 1.427 . S
C386 H363 0.929 . S
C386 C385 1.328 . S
C387 O371 1.264 . S
C387 O372 1.243 1_655 S
C388 C391 1.399 . S
C388 C392 1.383 . S
C388 C395 1.496 . S
C389 C390 1.399 . S
C389 C392 1.389 . S
C390 C389 1.399 . S
C390 C393 1.380 . S
C390 H400 0.929 . S
C391 C388 1.399 . S
C391 C393 1.392 . S
C391 H401 0.929 . S
C392 C388 1.383 . S
C392 C389 1.389 . S
C392 H402 0.931 . S
C393 C390 1.380 . S
C393 C391 1.392 . S
C393 H403 0.929 . S
C394 O374 1.266 . S
C394 O375 1.248 . S
C395 Tb331 2.802 . S
C395 O370 1.264 . S
C395 O373 1.256 . S
C395 C388 1.496 . S
H396 C379 0.929 . S
H397 C380 0.929 . S
H398 C381 0.929 . S
H399 C382 0.931 . S
H400 C390 0.929 . S
H401 C391 0.929 . S
H402 C392 0.931 . S
H403 C393 0.929 . S
Tb404 N433 2.617 . S
Tb404 N439 2.572 . S
Tb404 O448 2.465 . S
Tb404 O449 2.387 . S
Tb404 O451 2.428 . S
Tb404 O452 2.308 . S
Tb404 O456 2.349 . S
Tb404 O459 2.393 . S
Tb404 C468 2.802 . S
C405 N406 1.379 . S
C405 C408 1.416 . S
C405 C412 1.424 . S
N406 C405 1.379 . S
N406 C409 1.334 . S
N406 Tb415 2.617 . S
C407 C409 1.390 . S
C407 C410 1.339 . S
C407 H427 0.930 . S
C408 C405 1.416 . S
C408 C410 1.416 . S
C408 C414 1.448 . S
C409 N406 1.334 . S
C409 C407 1.390 . S
C409 H420 0.930 . S
C410 C407 1.339 . S
C410 C408 1.416 . S
C410 H431 0.930 . S
C411 C412 1.413 . S
C411 C413 1.427 . S
C411 C417 1.416 . S
C412 C405 1.424 . S
C412 C411 1.413 . S
C412 N416 1.361 . S
C413 C411 1.427 . S
C413 C414 1.328 . S
C413 H428 0.929 . S
C414 C408 1.448 . S
C414 C413 1.328 . S
C414 H429 0.930 . S
Tb415 N406 2.617 . S
Tb415 N416 2.572 . S
Tb415 O450 2.349 . S
Tb415 O453 2.393 . S
Tb415 O454 2.465 . S
Tb415 O455 2.387 . S
Tb415 O457 2.428 . S
Tb415 O458 2.308 . S
Tb415 C479 2.802 . S
N416 C412 1.361 . S
N416 Tb415 2.572 . S
N416 C418 1.340 . S
C417 C411 1.416 . S
C417 C419 1.332 . S
C417 H425 0.931 . S
C418 N416 1.340 . S
C418 C419 1.407 . S
C418 H424 0.930 . S
C419 C417 1.332 . S
C419 C418 1.407 . S
C419 H421 0.929 . S
H420 C409 0.930 . S
H421 C419 0.929 . S
H422 C437 0.930 . S
H423 C444 0.929 . S
H424 C418 0.930 . S
H425 C417 0.931 . S
H426 C440 0.930 . S
H427 C407 0.930 . S
H428 C413 0.929 . S
H429 C414 0.930 . S
H430 C435 0.930 . S
H431 C410 0.930 . S
H432 C443 0.931 . S
N433 Tb404 2.617 . S
N433 C434 1.379 . S
N433 C437 1.334 . S
C434 N433 1.379 . S
C434 C436 1.416 . S
C434 C442 1.424 . S
C435 H430 0.930 . S
C435 C437 1.390 . S
C435 C438 1.339 . S
C436 C434 1.416 . S
C436 C438 1.416 . S
C436 C469 1.448 . S
C437 H422 0.930 . S
C437 N433 1.334 . S
C437 C435 1.390 . S
C438 C435 1.339 . S
C438 C436 1.416 . S
C438 H445 0.930 . S
N439 Tb404 2.572 . S
N439 C440 1.340 . S
N439 C442 1.361 . S
C440 H426 0.930 . S
C440 N439 1.340 . S
C440 C444 1.407 . S
C441 C442 1.413 . S
C441 C443 1.416 . S
C441 C470 1.427 . S
C442 C434 1.424 . S
C442 N439 1.361 . S
C442 C441 1.413 . S
C443 H432 0.931 . S
C443 C441 1.416 . S
C443 C444 1.332 . S
C444 H423 0.929 . S
C444 C440 1.407 . S
C444 C443 1.332 . S
H445 C438 0.930 . S
H446 C469 0.930 . S
H447 C470 0.929 . S
O448 Tb404 2.465 . S
O448 C468 1.264 . S
O449 Tb404 2.387 . S
O449 C460 1.264 . S
O450 Tb415 2.349 . S
O450 C460 1.243 . S
O451 Tb404 2.428 . S
O451 C468 1.256 . S
O452 Tb404 2.308 . S
O452 C467 1.266 . S
O453 Tb415 2.393 . S
O453 C467 1.248 . S
O454 Tb415 2.465 . S
O454 C479 1.264 . S
O455 Tb415 2.387 . S
O455 C471 1.264 . S
O456 Tb404 2.349 . S
O456 C471 1.243 . S
O457 Tb415 2.428 . S
O457 C479 1.256 . S
O458 Tb415 2.308 . S
O458 C478 1.266 . S
O459 Tb404 2.393 . S
O459 C478 1.248 . S
C460 O449 1.264 . S
C460 O450 1.243 . S
C461 C464 1.399 . S
C461 C466 1.383 . S
C461 C468 1.496 . S
C462 C463 1.399 . S
C462 C466 1.389 . S
C463 C462 1.399 . S
C463 C465 1.380 . S
C463 H480 0.929 . S
C464 C461 1.399 . S
C464 C465 1.392 . S
C464 H481 0.929 . S
C465 C463 1.380 . S
C465 C464 1.392 . S
C465 H482 0.929 . S
C466 C461 1.383 . S
C466 C462 1.389 . S
C466 H483 0.931 . S
C467 O452 1.266 . S
C467 O453 1.248 . S
C468 Tb404 2.802 . S
C468 O448 1.264 . S
C468 O451 1.256 . S
C468 C461 1.496 . S
C469 C436 1.448 . S
C469 H446 0.930 . S
C469 C470 1.328 . S
C470 C441 1.427 . S
C470 H447 0.929 . S
C470 C469 1.328 . S
C471 O455 1.264 . S
C471 O456 1.243 . S
C472 C475 1.399 . S
C472 C476 1.383 . S
C472 C479 1.496 . S
C473 C474 1.399 . S
C473 C476 1.389 . S
C474 C473 1.399 . S
C474 C477 1.380 . S
C474 H484 0.929 . S
C475 C472 1.399 . S
C475 C477 1.392 . S
C475 H485 0.929 . S
C476 C472 1.383 . S
C476 C473 1.389 . S
C476 H486 0.931 . S
C477 C474 1.380 . S
C477 C475 1.392 . S
C477 H487 0.929 . S
C478 O458 1.266 . S
C478 O459 1.248 . S
C479 Tb415 2.802 . S
C479 O454 1.264 . S
C479 O457 1.256 . S
C479 C472 1.496 . S
H480 C463 0.929 . S
H481 C464 0.929 . S
H482 C465 0.929 . S
H483 C466 0.931 . S
H484 C474 0.929 . S
H485 C475 0.929 . S
H486 C476 0.931 . S
H487 C477 0.929 . S
Tb488 N517 2.617 . S
Tb488 N523 2.572 . S
Tb488 O532 2.465 . S
Tb488 O533 2.387 . S
Tb488 O535 2.428 . S
Tb488 O536 2.308 . S
Tb488 O540 2.349 . S
Tb488 O543 2.393 . S
Tb488 C552 2.802 . S
C489 N490 1.379 . S
C489 C492 1.416 . S
C489 C496 1.424 . S
N490 C489 1.379 . S
N490 C493 1.334 . S
N490 Tb499 2.617 . S
C491 C493 1.390 . S
C491 C494 1.339 . S
C491 H511 0.930 . S
C492 C489 1.416 . S
C492 C494 1.416 . S
C492 C498 1.448 . S
C493 N490 1.334 . S
C493 C491 1.390 . S
C493 H504 0.930 . S
C494 C491 1.339 . S
C494 C492 1.416 . S
C494 H515 0.930 . S
C495 C496 1.413 . S
C495 C497 1.427 . S
C495 C501 1.416 . S
C496 C489 1.424 . S
C496 C495 1.413 . S
C496 N500 1.361 . S
C497 C495 1.427 . S
C497 C498 1.328 . S
C497 H512 0.929 . S
C498 C492 1.448 . S
C498 C497 1.328 . S
C498 H513 0.930 . S
Tb499 N490 2.617 . S
Tb499 N500 2.572 . S
Tb499 O534 2.349 1_655 S
Tb499 O537 2.393 . S
Tb499 O538 2.465 . S
Tb499 O539 2.387 . S
Tb499 O541 2.428 . S
Tb499 O542 2.308 1_655 S
Tb499 C563 2.802 . S
N500 C496 1.361 . S
N500 Tb499 2.572 . S
N500 C502 1.340 . S
C501 C495 1.416 . S
C501 C503 1.332 . S
C501 H509 0.931 . S
C502 N500 1.340 . S
C502 C503 1.407 . S
C502 H508 0.930 . S
C503 C501 1.332 . S
C503 C502 1.407 . S
C503 H505 0.929 . S
H504 C493 0.930 . S
H505 C503 0.929 . S
H506 C521 0.930 . S
H507 C528 0.929 . S
H508 C502 0.930 . S
H509 C501 0.931 . S
H510 C524 0.930 . S
H511 C491 0.930 . S
H512 C497 0.929 . S
H513 C498 0.930 . S
H514 C519 0.930 . S
H515 C494 0.930 . S
H516 C527 0.931 . S
N517 Tb488 2.617 . S
N517 C518 1.379 . S
N517 C521 1.334 . S
C518 N517 1.379 . S
C518 C520 1.416 . S
C518 C526 1.424 . S
C519 H514 0.930 . S
C519 C521 1.390 . S
C519 C522 1.339 . S
C520 C518 1.416 . S
C520 C522 1.416 . S
C520 C553 1.448 . S
C521 H506 0.930 . S
C521 N517 1.334 . S
C521 C519 1.390 . S
C522 C519 1.339 . S
C522 C520 1.416 . S
C522 H529 0.930 . S
N523 Tb488 2.572 . S
N523 C524 1.340 . S
N523 C526 1.361 . S
C524 H510 0.930 . S
C524 N523 1.340 . S
C524 C528 1.407 . S
C525 C526 1.413 . S
C525 C527 1.416 . S
C525 C554 1.427 . S
C526 C518 1.424 . S
C526 N523 1.361 . S
C526 C525 1.413 . S
C527 H516 0.931 . S
C527 C525 1.416 . S
C527 C528 1.332 . S
C528 H507 0.929 . S
C528 C524 1.407 . S
C528 C527 1.332 . S
H529 C522 0.930 . S
H530 C553 0.930 . S
H531 C554 0.929 . S
O532 Tb488 2.465 . S
O532 C552 1.264 . S
O533 Tb488 2.387 . S
O533 C544 1.264 . S
O534 Tb499 2.349 1_455 S
O534 C544 1.243 . S
O535 Tb488 2.428 . S
O535 C552 1.256 . S
O536 Tb488 2.308 . S
O536 C551 1.266 1_455 S
O537 Tb499 2.393 . S
O537 C551 1.248 . S
O538 Tb499 2.465 . S
O538 C563 1.264 . S
O539 Tb499 2.387 . S
O539 C555 1.264 . S
O540 Tb488 2.349 . S
O540 C555 1.243 1_455 S
O541 Tb499 2.428 . S
O541 C563 1.256 . S
O542 Tb499 2.308 1_455 S
O542 C562 1.266 . S
O543 Tb488 2.393 . S
O543 C562 1.248 . S
C544 O533 1.264 . S
C544 O534 1.243 . S
C545 C548 1.399 . S
C545 C550 1.383 . S
C545 C552 1.496 . S
C546 C547 1.399 . S
C546 C550 1.389 . S
C547 C546 1.399 . S
C547 C549 1.380 . S
C547 H564 0.929 . S
C548 C545 1.399 . S
C548 C549 1.392 . S
C548 H565 0.929 . S
C549 C547 1.380 . S
C549 C548 1.392 . S
C549 H566 0.929 . S
C550 C545 1.383 . S
C550 C546 1.389 . S
C550 H567 0.931 . S
C551 O536 1.266 1_655 S
C551 O537 1.248 . S
C552 Tb488 2.802 . S
C552 O532 1.264 . S
C552 O535 1.256 . S
C552 C545 1.496 . S
C553 C520 1.448 . S
C553 H530 0.930 . S
C553 C554 1.328 . S
C554 C525 1.427 . S
C554 H531 0.929 . S
C554 C553 1.328 . S
C555 O539 1.264 . S
C555 O540 1.243 1_655 S
C556 C559 1.399 . S
C556 C560 1.383 . S
C556 C563 1.496 . S
C557 C558 1.399 . S
C557 C560 1.389 . S
C558 C557 1.399 . S
C558 C561 1.380 . S
C558 H568 0.929 . S
C559 C556 1.399 . S
C559 C561 1.392 . S
C559 H569 0.929 . S
C560 C556 1.383 . S
C560 C557 1.389 . S
C560 H570 0.931 . S
C561 C558 1.380 . S
C561 C559 1.392 . S
C561 H571 0.929 . S
C562 O542 1.266 . S
C562 O543 1.248 . S
C563 Tb499 2.802 . S
C563 O538 1.264 . S
C563 O541 1.256 . S
C563 C556 1.496 . S
H564 C547 0.929 . S
H565 C548 0.929 . S
H566 C549 0.929 . S
H567 C550 0.931 . S
H568 C558 0.929 . S
H569 C559 0.929 . S
H570 C560 0.931 . S
H571 C561 0.929 . S
Tb572 N601 2.617 . S
Tb572 N607 2.572 . S
Tb572 O616 2.465 . S
Tb572 O617 2.387 . S
Tb572 O619 2.428 . S
Tb572 O620 2.308 . S
Tb572 O624 2.349 . S
Tb572 O627 2.393 . S
Tb572 C636 2.802 . S
C573 N574 1.379 . S
C573 C576 1.416 . S
C573 C580 1.424 . S
N574 C573 1.379 . S
N574 C577 1.334 . S
N574 Tb583 2.617 . S
C575 C577 1.390 . S
C575 C578 1.339 . S
C575 H595 0.930 . S
C576 C573 1.416 . S
C576 C578 1.416 . S
C576 C582 1.448 . S
C577 N574 1.334 . S
C577 C575 1.390 . S
C577 H588 0.930 . S
C578 C575 1.339 . S
C578 C576 1.416 . S
C578 H599 0.930 . S
C579 C580 1.413 . S
C579 C581 1.427 . S
C579 C585 1.416 . S
C580 C573 1.424 . S
C580 C579 1.413 . S
C580 N584 1.361 . S
C581 C579 1.427 . S
C581 C582 1.328 . S
C581 H596 0.929 . S
C582 C576 1.448 . S
C582 C581 1.328 . S
C582 H597 0.930 . S
Tb583 N574 2.617 . S
Tb583 N584 2.572 . S
Tb583 O618 2.349 . S
Tb583 O621 2.393 . S
Tb583 O622 2.465 . S
Tb583 O623 2.387 . S
Tb583 O625 2.428 . S
Tb583 O626 2.308 . S
Tb583 C647 2.802 . S
N584 C580 1.361 . S
N584 Tb583 2.572 . S
N584 C586 1.340 . S
C585 C579 1.416 . S
C585 C587 1.332 . S
C585 H593 0.931 . S
C586 N584 1.340 . S
C586 C587 1.407 . S
C586 H592 0.930 . S
C587 C585 1.332 . S
C587 C586 1.407 . S
C587 H589 0.929 . S
H588 C577 0.930 . S
H589 C587 0.929 . S
H590 C605 0.930 . S
H591 C612 0.929 . S
H592 C586 0.930 . S
H593 C585 0.931 . S
H594 C608 0.930 . S
H595 C575 0.930 . S
H596 C581 0.929 . S
H597 C582 0.930 . S
H598 C603 0.930 . S
H599 C578 0.930 . S
H600 C611 0.931 . S
N601 Tb572 2.617 . S
N601 C602 1.379 . S
N601 C605 1.334 . S
C602 N601 1.379 . S
C602 C604 1.416 . S
C602 C610 1.424 . S
C603 H598 0.930 . S
C603 C605 1.390 . S
C603 C606 1.339 . S
C604 C602 1.416 . S
C604 C606 1.416 . S
C604 C637 1.448 . S
C605 H590 0.930 . S
C605 N601 1.334 . S
C605 C603 1.390 . S
C606 C603 1.339 . S
C606 C604 1.416 . S
C606 H613 0.930 . S
N607 Tb572 2.572 . S
N607 C608 1.340 . S
N607 C610 1.361 . S
C608 H594 0.930 . S
C608 N607 1.340 . S
C608 C612 1.407 . S
C609 C610 1.413 . S
C609 C611 1.416 . S
C609 C638 1.427 . S
C610 C602 1.424 . S
C610 N607 1.361 . S
C610 C609 1.413 . S
C611 H600 0.931 . S
C611 C609 1.416 . S
C611 C612 1.332 . S
C612 H591 0.929 . S
C612 C608 1.407 . S
C612 C611 1.332 . S
H613 C606 0.930 . S
H614 C637 0.930 . S
H615 C638 0.929 . S
O616 Tb572 2.465 . S
O616 C636 1.264 . S
O617 Tb572 2.387 . S
O617 C628 1.264 . S
O618 Tb583 2.349 . S
O618 C628 1.243 . S
O619 Tb572 2.428 . S
O619 C636 1.256 . S
O620 Tb572 2.308 . S
O620 C635 1.266 . S
O621 Tb583 2.393 . S
O621 C635 1.248 . S
O622 Tb583 2.465 . S
O622 C647 1.264 . S
O623 Tb583 2.387 . S
O623 C639 1.264 . S
O624 Tb572 2.349 . S
O624 C639 1.243 . S
O625 Tb583 2.428 . S
O625 C647 1.256 . S
O626 Tb583 2.308 . S
O626 C646 1.266 . S
O627 Tb572 2.393 . S
O627 C646 1.248 . S
C628 O617 1.264 . S
C628 O618 1.243 . S
C629 C632 1.399 . S
C629 C634 1.383 . S
C629 C636 1.496 . S
C630 C631 1.399 . S
C630 C634 1.389 . S
C631 C630 1.399 . S
C631 C633 1.380 . S
C631 H648 0.929 . S
C632 C629 1.399 . S
C632 C633 1.392 . S
C632 H649 0.929 . S
C633 C631 1.380 . S
C633 C632 1.392 . S
C633 H650 0.929 . S
C634 C629 1.383 . S
C634 C630 1.389 . S
C634 H651 0.931 . S
C635 O620 1.266 . S
C635 O621 1.248 . S
C636 Tb572 2.802 . S
C636 O616 1.264 . S
C636 O619 1.256 . S
C636 C629 1.496 . S
C637 C604 1.448 . S
C637 H614 0.930 . S
C637 C638 1.328 . S
C638 C609 1.427 . S
C638 H615 0.929 . S
C638 C637 1.328 . S
C639 O623 1.264 . S
C639 O624 1.243 . S
C640 C643 1.399 . S
C640 C644 1.383 . S
C640 C647 1.496 . S
C641 C642 1.399 . S
C641 C644 1.389 . S
C642 C641 1.399 . S
C642 C645 1.380 . S
C642 H652 0.929 . S
C643 C640 1.399 . S
C643 C645 1.392 . S
C643 H653 0.929 . S
C644 C640 1.383 . S
C644 C641 1.389 . S
C644 H654 0.931 . S
C645 C642 1.380 . S
C645 C643 1.392 . S
C645 H655 0.929 . S
C646 O626 1.266 . S
C646 O627 1.248 . S
C647 Tb583 2.802 . S
C647 O622 1.264 . S
C647 O625 1.256 . S
C647 C640 1.496 . S
H648 C631 0.929 . S
H649 C632 0.929 . S
H650 C633 0.929 . S
H651 C634 0.931 . S
H652 C642 0.929 . S
H653 C643 0.929 . S
H654 C644 0.931 . S
H655 C645 0.929 . S
C656 C657 1.426 . S
C656 C658 1.394 . S
C656 H672 0.931 . S
C657 C656 1.426 . S
C657 C661 1.368 1_545 S
C658 C656 1.394 . S
C658 C659 1.369 . S
C658 C662 1.531 . S
C659 C658 1.369 . S
C659 C660 1.410 . S
C659 C667 1.503 . S
C660 C659 1.410 . S
C660 C661 1.392 1_545 S
C660 C663 1.511 . S
C661 C657 1.368 1_565 S
C661 C660 1.392 1_565 S
C661 H673 0.929 . S
C662 C658 1.531 . S
C662 H674 0.960 . S
C662 H675 0.962 . S
C662 H676 0.960 . S
C663 C660 1.511 . S
C663 H677 0.961 1_545 S
C663 H678 0.961 . S
C663 H679 0.961 1_545 S
C664 C665 1.370 . S
C664 C666 1.363 . S
C664 H680 0.931 . S
C665 C664 1.370 . S
C665 C669 1.408 . S
C666 C664 1.363 . S
C666 C667 1.370 . S
C666 C670 1.524 . S
C667 C659 1.503 . S
C667 C666 1.370 . S
C667 C668 1.403 . S
C668 C667 1.403 . S
C668 C669 1.404 . S
C668 C671 1.539 . S
C669 C665 1.408 . S
C669 C668 1.404 . S
C669 H681 0.930 . S
C670 C666 1.524 . S
C670 H682 0.956 . S
C670 H683 0.961 . S
C670 H684 0.961 . S
C671 C668 1.539 . S
C671 H685 0.958 . S
C671 H686 0.961 . S
C671 H687 0.960 . S
H672 C656 0.931 . S
H673 C661 0.929 . S
H674 C662 0.960 . S
H675 C662 0.962 . S
H676 C662 0.960 . S
H677 C663 0.961 1_565 S
H678 C663 0.961 . S
H679 C663 0.961 1_565 S
H680 C664 0.931 . S
H681 C669 0.930 . S
H682 C670 0.956 . S
H683 C670 0.961 . S
H684 C670 0.961 . S
H685 C671 0.958 . S
H686 C671 0.961 . S
H687 C671 0.960 . S
C688 C689 1.391 . S
C688 C690 1.394 . S
C688 H704 0.931 . S
C689 C688 1.391 . S
C689 C693 1.376 . S
C690 C688 1.394 . S
C690 C691 1.369 . S
C690 C694 1.531 . S
C691 C690 1.369 . S
C691 C692 1.410 . S
C691 C699 1.503 . S
C692 C691 1.410 . S
C692 C693 1.392 . S
C692 C695 1.511 . S
C693 C689 1.376 . S
C693 C692 1.392 . S
C693 H705 0.929 . S
C694 C690 1.531 . S
C694 H706 0.960 . S
C694 H707 0.962 . S
C694 H708 0.960 . S
C695 C692 1.511 . S
C695 H709 0.961 . S
C695 H710 0.961 . S
C695 H711 0.961 . S
C696 C697 1.370 . S
C696 C698 1.363 . S
C696 H712 0.931 . S
C697 C696 1.370 . S
C697 C701 1.408 . S
C698 C696 1.363 . S
C698 C699 1.370 . S
C698 C702 1.524 . S
C699 C691 1.503 . S
C699 C698 1.370 . S
C699 C700 1.403 . S
C700 C699 1.403 . S
C700 C701 1.404 . S
C700 C703 1.539 . S
C701 C697 1.408 . S
C701 C700 1.404 . S
C701 H713 0.930 . S
C702 C698 1.524 . S
C702 H714 0.956 . S
C702 H715 0.961 . S
C702 H716 0.961 . S
C703 C700 1.539 . S
C703 H717 0.958 . S
C703 H718 0.961 . S
C703 H719 0.960 . S
H704 C688 0.931 . S
H705 C693 0.929 . S
H706 C694 0.960 . S
H707 C694 0.962 . S
H708 C694 0.960 . S
H709 C695 0.961 . S
H710 C695 0.961 . S
H711 C695 0.961 . S
H712 C696 0.931 . S
H713 C701 0.930 . S
H714 C702 0.956 . S
H715 C702 0.961 . S
H716 C702 0.961 . S
H717 C703 0.958 . S
H718 C703 0.961 . S
H719 C703 0.960 . S
C720 C721 1.391 . S
C720 C722 1.394 . S
C720 H736 0.931 . S
C721 C720 1.391 . S
C721 C725 1.376 . S
C722 C720 1.394 . S
C722 C723 1.369 . S
C722 C726 1.531 . S
C723 C722 1.369 . S
C723 C724 1.410 . S
C723 C731 1.503 . S
C724 C723 1.410 . S
C724 C725 1.392 . S
C724 C727 1.511 . S
C725 C721 1.376 . S
C725 C724 1.392 . S
C725 H737 0.929 . S
C726 C722 1.531 . S
C726 H738 0.960 . S
C726 H739 0.962 . S
C726 H740 0.960 . S
C727 C724 1.511 . S
C727 H741 0.961 . S
C727 H742 0.961 . S
C727 H743 0.961 . S
C728 C729 1.370 . S
C728 C730 1.363 . S
C728 H744 0.931 . S
C729 C728 1.370 . S
C729 C733 1.408 . S
C730 C728 1.363 . S
C730 C731 1.370 . S
C730 C734 1.524 . S
C731 C723 1.503 . S
C731 C730 1.370 . S
C731 C732 1.403 . S
C732 C731 1.403 . S
C732 C733 1.404 . S
C732 C735 1.539 . S
C733 C729 1.408 . S
C733 C732 1.404 . S
C733 H745 0.930 . S
C734 C730 1.524 . S
C734 H746 0.956 . S
C734 H747 0.961 . S
C734 H748 0.961 . S
C735 C732 1.539 . S
C735 H749 0.958 . S
C735 H750 0.961 . S
C735 H751 0.960 . S
H736 C720 0.931 . S
H737 C725 0.929 . S
H738 C726 0.960 . S
H739 C726 0.962 . S
H740 C726 0.960 . S
H741 C727 0.961 . S
H742 C727 0.961 . S
H743 C727 0.961 . S
H744 C728 0.931 . S
H745 C733 0.930 . S
H746 C734 0.956 . S
H747 C734 0.961 . S
H748 C734 0.961 . S
H749 C735 0.958 . S
H750 C735 0.961 . S
H751 C735 0.960 . S
C752 C753 1.354 1_545 S
C752 C754 1.394 . S
C752 H768 0.931 . S
C753 C752 1.354 1_565 S
C753 C757 1.385 . S
C754 C752 1.394 . S
C754 C755 1.369 . S
C754 C758 1.531 . S
C755 C754 1.369 . S
C755 C756 1.410 . S
C755 C763 1.503 . S
C756 C755 1.410 . S
C756 C757 1.392 1_545 S
C756 C759 1.511 . S
C757 C753 1.385 . S
C757 C756 1.392 1_565 S
C757 H769 0.929 . S
C758 C754 1.531 . S
C758 H770 0.960 . S
C758 H771 0.962 . S
C758 H772 0.960 . S
C759 C756 1.511 . S
C759 H773 0.961 1_545 S
C759 H774 0.961 . S
C759 H775 0.961 1_545 S
C760 C761 1.370 . S
C760 C762 1.363 . S
C760 H776 0.931 . S
C761 C760 1.370 . S
C761 C765 1.408 . S
C762 C760 1.363 . S
C762 C763 1.370 . S
C762 C766 1.524 . S
C763 C755 1.503 . S
C763 C762 1.370 . S
C763 C764 1.403 . S
C764 C763 1.403 . S
C764 C765 1.404 . S
C764 C767 1.539 . S
C765 C761 1.408 . S
C765 C764 1.404 . S
C765 H777 0.930 . S
C766 C762 1.524 . S
C766 H778 0.956 . S
C766 H779 0.961 . S
C766 H780 0.961 . S
C767 C764 1.539 . S
C767 H781 0.958 . S
C767 H782 0.961 . S
C767 H783 0.960 . S
H768 C752 0.931 . S
H769 C757 0.929 . S
H770 C758 0.960 . S
H771 C758 0.962 . S
H772 C758 0.960 . S
H773 C759 0.961 1_565 S
H774 C759 0.961 . S
H775 C759 0.961 1_565 S
H776 C760 0.931 . S
H777 C765 0.930 . S
H778 C766 0.956 . S
H779 C766 0.961 . S
H780 C766 0.961 . S
H781 C767 0.958 . S
H782 C767 0.961 . S
H783 C767 0.960 . S
C784 C785 1.391 . S
C784 C786 1.394 . S
C784 H800 0.931 . S
C785 C784 1.391 . S
C785 C789 1.376 . S
C786 C784 1.394 . S
C786 C787 1.369 . S
C786 C790 1.531 . S
C787 C786 1.369 . S
C787 C788 1.410 . S
C787 C795 1.503 . S
C788 C787 1.410 . S
C788 C789 1.392 . S
C788 C791 1.511 . S
C789 C785 1.376 . S
C789 C788 1.392 . S
C789 H801 0.929 1_565 S
C790 C786 1.531 . S
C790 H802 0.960 . S
C790 H803 0.962 . S
C790 H804 0.960 . S
C791 C788 1.511 . S
C791 H805 0.987 . S
C791 H806 0.961 . S
C791 H807 0.961 . S
C792 C793 1.370 . S
C792 C794 1.363 . S
C792 H808 0.931 . S
C793 C792 1.370 . S
C793 C797 1.408 . S
C794 C792 1.363 . S
C794 C795 1.370 . S
C794 C798 1.524 . S
C795 C787 1.503 . S
C795 C794 1.370 . S
C795 C796 1.403 . S
C796 C795 1.403 . S
C796 C797 1.404 . S
C796 C799 1.539 . S
C797 C793 1.408 . S
C797 C796 1.404 . S
C797 H809 0.930 . S
C798 C794 1.524 . S
C798 H810 0.956 . S
C798 H811 0.961 . S
C798 H812 0.961 . S
C799 C796 1.539 . S
C799 H813 0.958 . S
C799 H814 0.961 . S
C799 H815 0.960 . S
H800 C784 0.931 . S
H801 C789 0.929 1_545 S
H802 C790 0.960 . S
H803 C790 0.962 . S
H804 C790 0.960 . S
H805 C791 0.987 . S
H806 C791 0.961 . S
H807 C791 0.961 . S
H808 C792 0.931 . S
H809 C797 0.930 . S
H810 C798 0.956 . S
H811 C798 0.961 . S
H812 C798 0.961 . S
H813 C799 0.958 . S
H814 C799 0.961 . S
H815 C799 0.960 . S
C816 C817 1.391 . S
C816 C818 1.394 . S
C816 H832 0.931 . S
C817 C816 1.391 . S
C817 C821 1.376 . S
C818 C816 1.394 . S
C818 C819 1.369 . S
C818 C822 1.531 . S
C819 C818 1.369 . S
C819 C820 1.410 . S
C819 C827 1.503 . S
C820 C819 1.410 . S
C820 C821 1.392 . S
C820 C823 1.511 . S
C821 C817 1.376 . S
C821 C820 1.392 . S
C821 H833 0.929 . S
C822 C818 1.531 . S
C822 H834 0.960 . S
C822 H835 0.962 . S
C822 H836 0.960 . S
C823 C820 1.511 . S
C823 H837 0.961 . S
C823 H838 0.961 . S
C823 H839 0.961 . S
C824 C825 1.370 . S
C824 C826 1.363 . S
C824 H840 0.931 . S
C825 C824 1.370 . S
C825 C829 1.408 . S
C826 C824 1.363 . S
C826 C827 1.370 . S
C826 C830 1.524 . S
C827 C819 1.503 . S
C827 C826 1.370 . S
C827 C828 1.403 . S
C828 C827 1.403 . S
C828 C829 1.404 . S
C828 C831 1.539 . S
C829 C825 1.408 . S
C829 C828 1.404 . S
C829 H841 0.930 . S
C830 C826 1.524 . S
C830 H842 0.956 . S
C830 H843 0.961 . S
C830 H844 0.961 . S
C831 C828 1.539 . S
C831 H845 0.958 . S
C831 H846 0.961 . S
C831 H847 0.960 . S
H832 C816 0.931 . S
H833 C821 0.929 . S
H834 C822 0.960 . S
H835 C822 0.962 . S
H836 C822 0.960 . S
H837 C823 0.961 . S
H838 C823 0.961 . S
H839 C823 0.961 . S
H840 C824 0.931 . S
H841 C829 0.930 . S
H842 C830 0.956 . S
H843 C830 0.961 . S
H844 C830 0.961 . S
H845 C831 0.958 . S
H846 C831 0.961 . S
H847 C831 0.960 . S
C848 C849 1.391 . S
C848 C850 1.394 . S
C848 H864 0.931 . S
C849 C848 1.391 . S
C849 C853 1.376 . S
C850 C848 1.394 . S
C850 C851 1.369 . S
C850 C854 1.531 . S
C851 C850 1.369 . S
C851 C852 1.410 . S
C851 C859 1.503 . S
C852 C851 1.410 . S
C852 C853 1.392 . S
C852 C855 1.511 . S
C853 C849 1.376 . S
C853 C852 1.392 . S
C853 H865 0.929 . S
C854 C850 1.531 . S
C854 H866 0.960 . S
C854 H867 0.962 . S
C854 H868 0.960 . S
C855 C852 1.511 . S
C855 H869 0.961 . S
C855 H870 0.961 . S
C855 H871 0.961 . S
C856 C857 1.370 . S
C856 C858 1.363 . S
C856 H872 0.931 . S
C857 C856 1.370 . S
C857 C861 1.408 . S
C858 C856 1.363 . S
C858 C859 1.370 . S
C858 C862 1.524 . S
C859 C851 1.503 . S
C859 C858 1.370 . S
C859 C860 1.403 . S
C860 C859 1.403 . S
C860 C861 1.404 . S
C860 C863 1.539 . S
C861 C857 1.408 . S
C861 C860 1.404 . S
C861 H873 0.930 . S
C862 C858 1.524 . S
C862 H874 0.956 . S
C862 H875 0.961 . S
C862 H876 0.961 . S
C863 C860 1.539 . S
C863 H877 0.958 . S
C863 H878 0.961 . S
C863 H879 0.960 . S
H864 C848 0.931 . S
H865 C853 0.929 . S
H866 C854 0.960 . S
H867 C854 0.962 . S
H868 C854 0.960 . S
H869 C855 0.961 . S
H870 C855 0.961 . S
H871 C855 0.961 . S
H872 C856 0.931 . S
H873 C861 0.930 . S
H874 C862 0.956 . S
H875 C862 0.961 . S
H876 C862 0.961 . S
H877 C863 0.958 . S
H878 C863 0.961 . S
H879 C863 0.960 . S
C880 C881 1.391 . S
C880 C882 1.394 1_545 S
C880 H896 0.931 . S
C881 C880 1.391 . S
C881 C885 1.376 1_545 S
C882 C880 1.394 1_565 S
C882 C883 1.369 . S
C882 C886 1.531 . S
C883 C882 1.369 . S
C883 C884 1.410 . S
C883 C891 1.503 . S
C884 C883 1.410 . S
C884 C885 1.392 . S
C884 C887 1.511 . S
C885 C881 1.376 1_565 S
C885 C884 1.392 . S
C885 H897 0.929 . S
C886 C882 1.531 . S
C886 H898 0.960 . S
C886 H899 0.962 . S
C886 H900 0.960 1_565 S
C887 C884 1.511 . S
C887 H901 0.961 . S
C887 H902 0.961 . S
C887 H903 0.961 . S
C888 C889 1.370 . S
C888 C890 1.363 . S
C888 H904 0.931 . S
C889 C888 1.370 . S
C889 C893 1.408 . S
C890 C888 1.363 . S
C890 C891 1.370 . S
C890 C894 1.524 . S
C891 C883 1.503 . S
C891 C890 1.370 . S
C891 C892 1.403 . S
C892 C891 1.403 . S
C892 C893 1.404 . S
C892 C895 1.539 . S
C893 C889 1.408 . S
C893 C892 1.404 . S
C893 H905 0.930 . S
C894 C890 1.524 . S
C894 H906 0.956 . S
C894 H907 0.961 . S
C894 H908 0.961 . S
C895 C892 1.539 . S
C895 H909 0.958 . S
C895 H910 0.961 . S
C895 H911 0.960 . S
H896 C880 0.931 . S
H897 C885 0.929 . S
H898 C886 0.960 . S
H899 C886 0.962 . S
H900 C886 0.960 1_545 S
H901 C887 0.961 . S
H902 C887 0.961 . S
H903 C887 0.961 . S
H904 C888 0.931 . S
H905 C893 0.930 . S
H906 C894 0.956 . S
H907 C894 0.961 . S
H908 C894 0.961 . S
H909 C895 0.958 . S
H910 C895 0.961 . S
H911 C895 0.960 . S
C912 C913 1.391 . S
C912 C914 1.394 . S
C912 H928 0.931 . S
C913 C912 1.391 . S
C913 C917 1.376 . S
C914 C912 1.394 . S
C914 C915 1.369 . S
C914 C918 1.531 . S
C915 C914 1.369 . S
C915 C916 1.410 . S
C915 C923 1.503 . S
C916 C915 1.410 . S
C916 C917 1.392 . S
C916 C919 1.511 . S
C917 C913 1.376 . S
C917 C916 1.392 . S
C917 H929 0.929 . S
C918 C914 1.531 . S
C918 H930 0.960 . S
C918 H931 0.962 . S
C918 H932 0.960 . S
C919 C916 1.511 . S
C919 H933 0.961 . S
C919 H934 0.961 . S
C919 H935 0.961 . S
C920 C921 1.370 . S
C920 C922 1.363 . S
C920 H936 0.931 . S
C921 C920 1.370 . S
C921 C925 1.408 . S
C922 C920 1.363 . S
C922 C923 1.370 . S
C922 C926 1.524 . S
C923 C915 1.503 . S
C923 C922 1.370 . S
C923 C924 1.403 . S
C924 C923 1.403 . S
C924 C925 1.404 . S
C924 C927 1.539 . S
C925 C921 1.408 . S
C925 C924 1.404 . S
C925 H937 0.930 . S
C926 C922 1.524 . S
C926 H938 0.956 . S
C926 H939 0.961 . S
C926 H940 0.961 . S
C927 C924 1.539 . S
C927 H941 0.958 . S
C927 H942 0.961 . S
C927 H943 0.960 . S
H928 C912 0.931 . S
H929 C917 0.929 . S
H930 C918 0.960 . S
H931 C918 0.962 . S
H932 C918 0.960 . S
H933 C919 0.961 . S
H934 C919 0.961 . S
H935 C919 0.961 . S
H936 C920 0.931 . S
H937 C925 0.930 . S
H938 C926 0.956 . S
H939 C926 0.961 . S
H940 C926 0.961 . S
H941 C927 0.958 . S
H942 C927 0.961 . S
H943 C927 0.960 . S
C944 C945 1.391 . S
C944 C946 1.394 . S
C944 H960 0.931 . S
C945 C944 1.391 . S
C945 C949 1.376 . S
C946 C944 1.394 . S
C946 C947 1.369 . S
C946 C950 1.531 . S
C947 C946 1.369 . S
C947 C948 1.410 . S
C947 C955 1.503 . S
C948 C947 1.410 . S
C948 C949 1.392 . S
C948 C951 1.511 . S
C949 C945 1.376 . S
C949 C948 1.392 . S
C949 H961 0.929 . S
C950 C946 1.531 . S
C950 H962 0.960 . S
C950 H963 0.962 . S
C950 H964 0.960 . S
C951 C948 1.511 . S
C951 H965 0.961 . S
C951 H966 0.961 . S
C951 H967 0.961 . S
C952 C953 1.370 . S
C952 C954 1.363 . S
C952 H968 0.931 . S
C953 C952 1.370 . S
C953 C957 1.408 . S
C954 C952 1.363 . S
C954 C955 1.370 . S
C954 C958 1.524 . S
C955 C947 1.503 . S
C955 C954 1.370 . S
C955 C956 1.403 . S
C956 C955 1.403 . S
C956 C957 1.404 . S
C956 C959 1.539 . S
C957 C953 1.408 . S
C957 C956 1.404 . S
C957 H969 0.930 . S
C958 C954 1.524 . S
C958 H970 0.956 . S
C958 H971 0.961 . S
C958 H972 0.961 . S
C959 C956 1.539 . S
C959 H973 0.958 . S
C959 H974 0.961 . S
C959 H975 0.960 . S
H960 C944 0.931 . S
H961 C949 0.929 . S
H962 C950 0.960 . S
H963 C950 0.962 . S
H964 C950 0.960 . S
H965 C951 0.961 . S
H966 C951 0.961 . S
H967 C951 0.961 . S
H968 C952 0.931 . S
H969 C957 0.930 . S
H970 C958 0.956 . S
H971 C958 0.961 . S
H972 C958 0.961 . S
H973 C959 0.958 . S
H974 C959 0.961 . S
H975 C959 0.960 . S
C976 C977 1.391 . S
C976 C978 1.394 . S
C976 H992 0.931 . S
C977 C976 1.391 . S
C977 C981 1.376 . S
C978 C976 1.394 . S
C978 C979 1.369 . S
C978 C982 1.531 . S
C979 C978 1.369 . S
C979 C980 1.410 . S
C979 C987 1.503 . S
C980 C979 1.410 . S
C980 C981 1.392 . S
C980 C983 1.511 . S
C981 C977 1.376 . S
C981 C980 1.392 . S
C981 H993 0.929 . S
C982 C978 1.531 . S
C982 H994 0.960 . S
C982 H995 0.962 . S
C982 H996 0.960 . S
C983 C980 1.511 . S
C983 H997 0.961 . S
C983 H998 0.961 . S
C983 H999 0.961 . S
C984 C985 1.370 . S
C984 C986 1.363 . S
C984 H1000 0.931 . S
C985 C984 1.370 . S
C985 C989 1.408 . S
C986 C984 1.363 . S
C986 C987 1.370 . S
C986 C990 1.524 . S
C987 C979 1.503 . S
C987 C986 1.370 . S
C987 C988 1.403 . S
C988 C987 1.403 . S
C988 C989 1.404 . S
C988 C991 1.539 . S
C989 C985 1.408 . S
C989 C988 1.404 . S
C989 H1001 0.930 . S
C990 C986 1.524 . S
C990 H1002 0.956 . S
C990 H1003 0.961 . S
C990 H1004 0.961 . S
C991 C988 1.539 . S
C991 H1005 0.958 . S
C991 H1006 0.961 . S
C991 H1007 0.960 . S
H992 C976 0.931 . S
H993 C981 0.929 . S
H994 C982 0.960 . S
H995 C982 0.962 . S
H996 C982 0.960 . S
H997 C983 0.961 . S
H998 C983 0.961 . S
H999 C983 0.961 . S
H1000 C984 0.931 . S
H1001 C989 0.930 . S
H1002 C990 0.956 . S
H1003 C990 0.961 . S
H1004 C990 0.961 . S
H1005 C991 0.958 . S
H1006 C991 0.961 . S
H1007 C991 0.960 . S
C1008 C1009 1.391 . S
C1008 C1010 1.394 . S
C1008 H1024 0.931 . S
C1009 C1008 1.391 . S
C1009 C1013 1.376 . S
C1010 C1008 1.394 . S
C1010 C1011 1.369 . S
C1010 C1014 1.531 . S
C1011 C1010 1.369 . S
C1011 C1012 1.410 . S
C1011 C1019 1.503 . S
C1012 C1011 1.410 . S
C1012 C1013 1.392 . S
C1012 C1015 1.511 . S
C1013 C1009 1.376 . S
C1013 C1012 1.392 . S
C1013 H1025 0.929 . S
C1014 C1010 1.531 . S
C1014 H1026 0.960 . S
C1014 H1027 0.962 . S
C1014 H1028 0.960 . S
C1015 C1012 1.511 . S
C1015 H1029 0.961 . S
C1015 H1030 0.961 . S
C1015 H1031 0.961 . S
C1016 C1017 1.370 . S
C1016 C1018 1.363 . S
C1016 H1032 0.931 . S
C1017 C1016 1.370 . S
C1017 C1021 1.408 . S
C1018 C1016 1.363 . S
C1018 C1019 1.370 . S
C1018 C1022 1.524 . S
C1019 C1011 1.503 . S
C1019 C1018 1.370 . S
C1019 C1020 1.403 . S
C1020 C1019 1.403 . S
C1020 C1021 1.404 . S
C1020 C1023 1.539 . S
C1021 C1017 1.408 . S
C1021 C1020 1.404 . S
C1021 H1033 0.930 . S
C1022 C1018 1.524 . S
C1022 H1034 0.956 . S
C1022 H1035 0.961 . S
C1022 H1036 0.961 . S
C1023 C1020 1.539 . S
C1023 H1037 0.958 . S
C1023 H1038 0.961 . S
C1023 H1039 0.960 . S
H1024 C1008 0.931 . S
H1025 C1013 0.929 . S
H1026 C1014 0.960 . S
H1027 C1014 0.962 . S
H1028 C1014 0.960 . S
H1029 C1015 0.961 . S
H1030 C1015 0.961 . S
H1031 C1015 0.961 . S
H1032 C1016 0.931 . S
H1033 C1021 0.930 . S
H1034 C1022 0.956 . S
H1035 C1022 0.961 . S
H1036 C1022 0.961 . S
H1037 C1023 0.958 . S
H1038 C1023 0.961 . S
H1039 C1023 0.960 . S
C1040 C1041 1.391 . S
C1040 C1042 1.394 . S
C1040 H1056 0.931 . S
C1041 C1040 1.391 . S
C1041 C1045 1.376 . S
C1042 C1040 1.394 . S
C1042 C1043 1.369 . S
C1042 C1046 1.531 . S
C1043 C1042 1.369 . S
C1043 C1044 1.410 . S
C1043 C1051 1.503 . S
C1044 C1043 1.410 . S
C1044 C1045 1.392 . S
C1044 C1047 1.511 . S
C1045 C1041 1.376 . S
C1045 C1044 1.392 . S
C1045 H1057 0.929 . S
C1046 C1042 1.531 . S
C1046 H1058 0.960 . S
C1046 H1059 0.962 . S
C1046 H1060 0.960 . S
C1047 C1044 1.511 . S
C1047 H1061 0.961 . S
C1047 H1062 0.961 . S
C1047 H1063 0.961 . S
C1048 C1049 1.370 . S
C1048 C1050 1.363 . S
C1048 H1064 0.931 . S
C1049 C1048 1.370 . S
C1049 C1053 1.408 . S
C1050 C1048 1.363 . S
C1050 C1051 1.370 . S
C1050 C1054 1.524 . S
C1051 C1043 1.503 . S
C1051 C1050 1.370 . S
C1051 C1052 1.403 . S
C1052 C1051 1.403 . S
C1052 C1053 1.404 . S
C1052 C1055 1.539 . S
C1053 C1049 1.408 . S
C1053 C1052 1.404 . S
C1053 H1065 0.930 . S
C1054 C1050 1.524 . S
C1054 H1066 0.956 . S
C1054 H1067 0.961 . S
C1054 H1068 0.961 . S
C1055 C1052 1.539 . S
C1055 H1069 0.958 . S
C1055 H1070 0.961 . S
C1055 H1071 0.960 . S
H1056 C1040 0.931 . S
H1057 C1045 0.929 . S
H1058 C1046 0.960 . S
H1059 C1046 0.962 . S
H1060 C1046 0.960 . S
H1061 C1047 0.961 . S
H1062 C1047 0.961 . S
H1063 C1047 0.961 . S
H1064 C1048 0.931 . S
H1065 C1053 0.930 . S
H1066 C1054 0.956 . S
H1067 C1054 0.961 . S
H1068 C1054 0.961 . S
H1069 C1055 0.958 . S
H1070 C1055 0.961 . S
H1071 C1055 0.960 . S
C1072 C1073 1.391 . S
C1072 C1074 1.394 . S
C1072 H1088 0.931 . S
C1073 C1072 1.391 . S
C1073 C1077 1.376 . S
C1074 C1072 1.394 . S
C1074 C1075 1.369 . S
C1074 C1078 1.531 . S
C1075 C1074 1.369 . S
C1075 C1076 1.410 . S
C1075 C1083 1.503 . S
C1076 C1075 1.410 . S
C1076 C1077 1.392 . S
C1076 C1079 1.511 . S
C1077 C1073 1.376 . S
C1077 C1076 1.392 . S
C1077 H1089 0.929 . S
C1078 C1074 1.531 . S
C1078 H1090 0.960 . S
C1078 H1091 0.962 . S
C1078 H1092 0.960 . S
C1079 C1076 1.511 . S
C1079 H1093 0.961 . S
C1079 H1094 0.961 . S
C1079 H1095 0.961 . S
C1080 C1081 1.370 . S
C1080 C1082 1.363 . S
C1080 H1096 0.931 . S
C1081 C1080 1.370 . S
C1081 C1085 1.408 . S
C1082 C1080 1.363 . S
C1082 C1083 1.370 . S
C1082 C1086 1.524 . S
C1083 C1075 1.503 . S
C1083 C1082 1.370 . S
C1083 C1084 1.403 . S
C1084 C1083 1.403 . S
C1084 C1085 1.404 . S
C1084 C1087 1.539 . S
C1085 C1081 1.408 . S
C1085 C1084 1.404 . S
C1085 H1097 0.930 . S
C1086 C1082 1.524 . S
C1086 H1098 0.956 . S
C1086 H1099 0.961 . S
C1086 H1100 0.961 . S
C1087 C1084 1.539 . S
C1087 H1101 0.958 . S
C1087 H1102 0.961 . S
C1087 H1103 0.960 . S
H1088 C1072 0.931 . S
H1089 C1077 0.929 . S
H1090 C1078 0.960 . S
H1091 C1078 0.962 . S
H1092 C1078 0.960 . S
H1093 C1079 0.961 . S
H1094 C1079 0.961 . S
H1095 C1079 0.961 . S
H1096 C1080 0.931 . S
H1097 C1085 0.930 . S
H1098 C1086 0.956 . S
H1099 C1086 0.961 . S
H1100 C1086 0.961 . S
H1101 C1087 0.958 . S
H1102 C1087 0.961 . S
H1103 C1087 0.960 . S
C1104 C1105 1.391 . S
C1104 C1106 1.394 . S
C1104 H1120 0.931 . S
C1105 C1104 1.391 . S
C1105 C1109 1.376 . S
C1106 C1104 1.394 . S
C1106 C1107 1.369 . S
C1106 C1110 1.531 . S
C1107 C1106 1.369 . S
C1107 C1108 1.410 . S
C1107 C1115 1.503 . S
C1108 C1107 1.410 . S
C1108 C1109 1.392 . S
C1108 C1111 1.511 . S
C1109 C1105 1.376 . S
C1109 C1108 1.392 . S
C1109 H1121 0.929 . S
C1110 C1106 1.531 . S
C1110 H1122 0.960 . S
C1110 H1123 0.962 . S
C1110 H1124 0.960 . S
C1111 C1108 1.511 . S
C1111 H1125 0.961 . S
C1111 H1126 0.961 . S
C1111 H1127 0.961 . S
C1112 C1113 1.370 . S
C1112 C1114 1.363 . S
C1112 H1128 0.931 . S
C1113 C1112 1.370 . S
C1113 C1117 1.408 . S
C1114 C1112 1.363 . S
C1114 C1115 1.370 . S
C1114 C1118 1.524 . S
C1115 C1107 1.503 . S
C1115 C1114 1.370 . S
C1115 C1116 1.403 . S
C1116 C1115 1.403 . S
C1116 C1117 1.404 . S
C1116 C1119 1.539 . S
C1117 C1113 1.408 . S
C1117 C1116 1.404 . S
C1117 H1129 0.930 . S
C1118 C1114 1.524 . S
C1118 H1130 0.956 . S
C1118 H1131 0.961 . S
C1118 H1132 0.961 . S
C1119 C1116 1.539 . S
C1119 H1133 0.958 . S
C1119 H1134 0.961 . S
C1119 H1135 0.960 . S
H1120 C1104 0.931 . S
H1121 C1109 0.929 . S
H1122 C1110 0.960 . S
H1123 C1110 0.962 . S
H1124 C1110 0.960 . S
H1125 C1111 0.961 . S
H1126 C1111 0.961 . S
H1127 C1111 0.961 . S
H1128 C1112 0.931 . S
H1129 C1117 0.930 . S
H1130 C1118 0.956 . S
H1131 C1118 0.961 . S
H1132 C1118 0.961 . S
H1133 C1119 0.958 . S
H1134 C1119 0.961 . S
H1135 C1119 0.960 . S
C1136 C1137 1.391 . S
C1136 C1138 1.394 . S
C1136 H1152 0.931 . S
C1137 C1136 1.391 . S
C1137 C1141 1.376 . S
C1138 C1136 1.394 . S
C1138 C1139 1.369 . S
C1138 C1142 1.531 . S
C1139 C1138 1.369 . S
C1139 C1140 1.410 . S
C1139 C1147 1.503 . S
C1140 C1139 1.410 . S
C1140 C1141 1.392 . S
C1140 C1143 1.511 . S
C1141 C1137 1.376 . S
C1141 C1140 1.392 . S
C1141 H1153 0.929 . S
C1142 C1138 1.531 . S
C1142 H1154 0.960 . S
C1142 H1155 0.962 . S
C1142 H1156 0.960 . S
C1143 C1140 1.511 . S
C1143 H1157 0.961 . S
C1143 H1158 0.961 . S
C1143 H1159 0.961 . S
C1144 C1145 1.370 . S
C1144 C1146 1.363 . S
C1144 H1160 0.931 . S
C1145 C1144 1.370 . S
C1145 C1149 1.408 . S
C1146 C1144 1.363 . S
C1146 C1147 1.370 . S
C1146 C1150 1.524 . S
C1147 C1139 1.503 . S
C1147 C1146 1.370 . S
C1147 C1148 1.403 . S
C1148 C1147 1.403 . S
C1148 C1149 1.404 . S
C1148 C1151 1.539 . S
C1149 C1145 1.408 . S
C1149 C1148 1.404 . S
C1149 H1161 0.930 . S
C1150 C1146 1.524 . S
C1150 H1162 0.956 . S
C1150 H1163 0.961 . S
C1150 H1164 0.961 . S
C1151 C1148 1.539 . S
C1151 H1165 0.958 . S
C1151 H1166 0.961 . S
C1151 H1167 0.960 . S
H1152 C1136 0.931 . S
H1153 C1141 0.929 . S
H1154 C1142 0.960 . S
H1155 C1142 0.962 . S
H1156 C1142 0.960 . S
H1157 C1143 0.961 . S
H1158 C1143 0.961 . S
H1159 C1143 0.961 . S
H1160 C1144 0.931 . S
H1161 C1149 0.930 . S
H1162 C1150 0.956 . S
H1163 C1150 0.961 . S
H1164 C1150 0.961 . S
H1165 C1151 0.958 . S
H1166 C1151 0.961 . S
H1167 C1151 0.960 . S
C1168 C1169 1.391 . S
C1168 C1170 1.394 . S
C1168 H1184 0.931 . S
C1169 C1168 1.391 . S
C1169 C1173 1.376 . S
C1170 C1168 1.394 . S
C1170 C1171 1.369 . S
C1170 C1174 1.531 . S
C1171 C1170 1.369 . S
C1171 C1172 1.410 . S
C1171 C1179 1.503 . S
C1172 C1171 1.410 . S
C1172 C1173 1.392 . S
C1172 C1175 1.511 . S
C1173 C1169 1.376 . S
C1173 C1172 1.392 . S
C1173 H1185 0.929 . S
C1174 C1170 1.531 . S
C1174 H1186 0.960 . S
C1174 H1187 0.962 . S
C1174 H1188 0.960 . S
C1175 C1172 1.511 . S
C1175 H1189 0.961 . S
C1175 H1190 0.961 . S
C1175 H1191 0.961 . S
C1176 C1177 1.370 . S
C1176 C1178 1.363 . S
C1176 H1192 0.931 . S
C1177 C1176 1.370 . S
C1177 C1181 1.408 . S
C1178 C1176 1.363 . S
C1178 C1179 1.370 . S
C1178 C1182 1.524 . S
C1179 C1171 1.503 . S
C1179 C1178 1.370 . S
C1179 C1180 1.403 . S
C1180 C1179 1.403 . S
C1180 C1181 1.404 . S
C1180 C1183 1.539 . S
C1181 C1177 1.408 . S
C1181 C1180 1.404 . S
C1181 H1193 0.930 . S
C1182 C1178 1.524 . S
C1182 H1194 0.956 . S
C1182 H1195 0.961 . S
C1182 H1196 0.961 . S
C1183 C1180 1.539 . S
C1183 H1197 0.958 . S
C1183 H1198 0.961 . S
C1183 H1199 0.960 . S
H1184 C1168 0.931 . S
H1185 C1173 0.929 . S
H1186 C1174 0.960 . S
H1187 C1174 0.962 . S
H1188 C1174 0.960 . S
H1189 C1175 0.961 . S
H1190 C1175 0.961 . S
H1191 C1175 0.961 . S
H1192 C1176 0.931 . S
H1193 C1181 0.930 . S
H1194 C1182 0.956 . S
H1195 C1182 0.961 . S
H1196 C1182 0.961 . S
H1197 C1183 0.958 . S
H1198 C1183 0.961 . S
H1199 C1183 0.960 . S
C1200 C1201 1.391 . S
C1200 C1202 1.394 . S
C1200 H1216 0.931 . S
C1201 C1200 1.391 . S
C1201 C1205 1.376 . S
C1202 C1200 1.394 . S
C1202 C1203 1.369 . S
C1202 C1206 1.531 . S
C1203 C1202 1.369 . S
C1203 C1204 1.410 . S
C1203 C1211 1.503 . S
C1204 C1203 1.410 . S
C1204 C1205 1.392 . S
C1204 C1207 1.511 . S
C1205 C1201 1.376 . S
C1205 C1204 1.392 . S
C1205 H1217 0.929 . S
C1206 C1202 1.531 . S
C1206 H1218 0.960 . S
C1206 H1219 0.962 . S
C1206 H1220 0.960 . S
C1207 C1204 1.511 . S
C1207 H1221 0.961 . S
C1207 H1222 0.961 . S
C1207 H1223 0.961 . S
C1208 C1209 1.370 . S
C1208 C1210 1.363 . S
C1208 H1224 0.931 . S
C1209 C1208 1.370 . S
C1209 C1213 1.408 . S
C1210 C1208 1.363 . S
C1210 C1211 1.370 . S
C1210 C1214 1.524 . S
C1211 C1203 1.503 . S
C1211 C1210 1.370 . S
C1211 C1212 1.403 . S
C1212 C1211 1.403 . S
C1212 C1213 1.404 . S
C1212 C1215 1.539 . S
C1213 C1209 1.408 . S
C1213 C1212 1.404 . S
C1213 H1225 0.930 . S
C1214 C1210 1.524 . S
C1214 H1226 0.956 . S
C1214 H1227 0.961 . S
C1214 H1228 0.961 . S
C1215 C1212 1.539 . S
C1215 H1229 0.958 . S
C1215 H1230 0.961 . S
C1215 H1231 0.960 . S
H1216 C1200 0.931 . S
H1217 C1205 0.929 . S
H1218 C1206 0.960 . S
H1219 C1206 0.962 . S
H1220 C1206 0.960 . S
H1221 C1207 0.961 . S
H1222 C1207 0.961 . S
H1223 C1207 0.961 . S
H1224 C1208 0.931 . S
H1225 C1213 0.930 . S
H1226 C1214 0.956 . S
H1227 C1214 0.961 . S
H1228 C1214 0.961 . S
H1229 C1215 0.958 . S
H1230 C1215 0.961 . S
H1231 C1215 0.960 . S
C1232 C1233 1.391 . S
C1232 C1234 1.394 . S
C1232 H1248 0.931 . S
C1233 C1232 1.391 . S
C1233 C1237 1.376 . S
C1234 C1232 1.394 . S
C1234 C1235 1.369 . S
C1234 C1238 1.531 . S
C1235 C1234 1.369 . S
C1235 C1236 1.410 . S
C1235 C1243 1.503 . S
C1236 C1235 1.410 . S
C1236 C1237 1.392 . S
C1236 C1239 1.511 . S
C1237 C1233 1.376 . S
C1237 C1236 1.392 . S
C1237 H1249 0.929 . S
C1238 C1234 1.531 . S
C1238 H1250 0.960 . S
C1238 H1251 0.962 . S
C1238 H1252 0.960 . S
C1239 C1236 1.511 . S
C1239 H1253 0.961 . S
C1239 H1254 0.961 . S
C1239 H1255 0.961 . S
C1240 C1241 1.370 . S
C1240 C1242 1.363 . S
C1240 H1256 0.931 . S
C1241 C1240 1.370 . S
C1241 C1245 1.408 . S
C1242 C1240 1.363 . S
C1242 C1243 1.370 . S
C1242 C1246 1.524 . S
C1243 C1235 1.503 . S
C1243 C1242 1.370 . S
C1243 C1244 1.403 . S
C1244 C1243 1.403 . S
C1244 C1245 1.404 . S
C1244 C1247 1.539 . S
C1245 C1241 1.408 . S
C1245 C1244 1.404 . S
C1245 H1257 0.930 . S
C1246 C1242 1.524 . S
C1246 H1258 0.956 . S
C1246 H1259 0.961 . S
C1246 H1260 0.961 . S
C1247 C1244 1.539 . S
C1247 H1261 0.958 . S
C1247 H1262 0.961 . S
C1247 H1263 0.960 . S
H1248 C1232 0.931 . S
H1249 C1237 0.929 . S
H1250 C1238 0.960 . S
H1251 C1238 0.962 . S
H1252 C1238 0.960 . S
H1253 C1239 0.961 . S
H1254 C1239 0.961 . S
H1255 C1239 0.961 . S
H1256 C1240 0.931 . S
H1257 C1245 0.930 . S
H1258 C1246 0.956 . S
H1259 C1246 0.961 . S
H1260 C1246 0.961 . S
H1261 C1247 0.958 . S
H1262 C1247 0.961 . S
H1263 C1247 0.960 . S
C1264 C1265 1.391 . S
C1264 C1266 1.394 . S
C1264 H1280 0.931 . S
C1265 C1264 1.391 . S
C1265 C1269 1.376 . S
C1266 C1264 1.394 . S
C1266 C1267 1.369 . S
C1266 C1270 1.531 . S
C1267 C1266 1.369 . S
C1267 C1268 1.410 . S
C1267 C1275 1.503 . S
C1268 C1267 1.410 . S
C1268 C1269 1.392 . S
C1268 C1271 1.511 . S
C1269 C1265 1.376 . S
C1269 C1268 1.392 . S
C1269 H1281 0.929 . S
C1270 C1266 1.531 . S
C1270 H1282 0.960 . S
C1270 H1283 0.962 . S
C1270 H1284 0.960 . S
C1271 C1268 1.511 . S
C1271 H1285 0.961 . S
C1271 H1286 0.961 . S
C1271 H1287 0.961 . S
C1272 C1273 1.370 . S
C1272 C1274 1.363 . S
C1272 H1288 0.931 . S
C1273 C1272 1.370 . S
C1273 C1277 1.408 . S
C1274 C1272 1.363 . S
C1274 C1275 1.370 . S
C1274 C1278 1.524 . S
C1275 C1267 1.503 . S
C1275 C1274 1.370 . S
C1275 C1276 1.403 . S
C1276 C1275 1.403 . S
C1276 C1277 1.404 . S
C1276 C1279 1.538 . S
C1277 C1273 1.408 . S
C1277 C1276 1.404 . S
C1277 H1289 0.930 1_655 S
C1278 C1274 1.524 . S
C1278 H1290 0.956 . S
C1278 H1291 0.961 . S
C1278 H1292 0.961 . S
C1279 C1276 1.538 . S
C1279 H1293 0.959 1_655 S
C1279 H1294 0.963 1_655 S
C1279 H1295 0.959 . S
H1280 C1264 0.931 . S
H1281 C1269 0.929 . S
H1282 C1270 0.960 . S
H1283 C1270 0.962 . S
H1284 C1270 0.960 . S
H1285 C1271 0.961 . S
H1286 C1271 0.961 . S
H1287 C1271 0.961 . S
H1288 C1272 0.931 . S
H1289 C1277 0.930 1_455 S
H1290 C1278 0.956 . S
H1291 C1278 0.961 . S
H1292 C1278 0.961 . S
H1293 C1279 0.959 1_455 S
H1294 C1279 0.963 1_455 S
H1295 C1279 0.959 . S
C1296 C1297 1.391 . S
C1296 C1298 1.394 . S
C1296 H1312 0.931 . S
C1297 C1296 1.391 . S
C1297 C1301 1.376 . S
C1298 C1296 1.394 . S
C1298 C1299 1.369 . S
C1298 C1302 1.531 . S
C1299 C1298 1.369 . S
C1299 C1300 1.410 . S
C1299 C1307 1.503 . S
C1300 C1299 1.410 . S
C1300 C1301 1.392 . S
C1300 C1303 1.511 . S
C1301 C1297 1.376 . S
C1301 C1300 1.392 . S
C1301 H1313 0.929 . S
C1302 C1298 1.531 . S
C1302 H1314 0.960 . S
C1302 H1315 0.962 . S
C1302 H1316 0.960 . S
C1303 C1300 1.511 . S
C1303 H1317 0.961 . S
C1303 H1318 0.961 . S
C1303 H1319 0.961 . S
C1304 C1305 1.370 . S
C1304 C1306 1.363 . S
C1304 H1320 0.931 1_655 S
C1305 C1304 1.370 . S
C1305 C1309 1.408 . S
C1306 C1304 1.363 . S
C1306 C1307 1.370 . S
C1306 C1310 1.524 . S
C1307 C1299 1.503 . S
C1307 C1306 1.370 . S
C1307 C1308 1.403 . S
C1308 C1307 1.403 . S
C1308 C1309 1.404 . S
C1308 C1311 1.539 . S
C1309 C1305 1.408 . S
C1309 C1308 1.404 . S
C1309 H1321 0.930 . S
C1310 C1306 1.524 . S
C1310 H1322 0.956 . S
C1310 H1323 0.961 . S
C1310 H1324 0.961 1_655 S
C1311 C1308 1.539 . S
C1311 H1325 0.958 . S
C1311 H1326 0.961 . S
C1311 H1327 0.960 . S
H1312 C1296 0.931 . S
H1313 C1301 0.929 . S
H1314 C1302 0.960 . S
H1315 C1302 0.962 . S
H1316 C1302 0.960 . S
H1317 C1303 0.961 . S
H1318 C1303 0.961 . S
H1319 C1303 0.961 . S
H1320 C1304 0.931 1_455 S
H1321 C1309 0.930 . S
H1322 C1310 0.956 . S
H1323 C1310 0.961 . S
H1324 C1310 0.961 1_455 S
H1325 C1311 0.958 . S
H1326 C1311 0.961 . S
H1327 C1311 0.960 . S
C1328 C1329 1.391 . S
C1328 C1330 1.394 . S
C1328 H1344 0.931 . S
C1329 C1328 1.391 . S
C1329 C1333 1.376 . S
C1330 C1328 1.394 . S
C1330 C1331 1.369 . S
C1330 C1334 1.531 . S
C1331 C1330 1.369 . S
C1331 C1332 1.410 . S
C1331 C1339 1.503 . S
C1332 C1331 1.410 . S
C1332 C1333 1.392 . S
C1332 C1335 1.511 . S
C1333 C1329 1.376 . S
C1333 C1332 1.392 . S
C1333 H1345 0.929 . S
C1334 C1330 1.531 . S
C1334 H1346 0.960 . S
C1334 H1347 0.962 . S
C1334 H1348 0.960 . S
C1335 C1332 1.511 . S
C1335 H1349 0.961 . S
C1335 H1350 0.961 . S
C1335 H1351 0.961 . S
C1336 C1337 1.370 . S
C1336 C1338 1.363 . S
C1336 H1352 0.931 . S
C1337 C1336 1.370 . S
C1337 C1341 1.408 . S
C1338 C1336 1.363 . S
C1338 C1339 1.370 . S
C1338 C1342 1.524 . S
C1339 C1331 1.503 . S
C1339 C1338 1.370 . S
C1339 C1340 1.403 . S
C1340 C1339 1.403 . S
C1340 C1341 1.404 . S
C1340 C1343 1.539 . S
C1341 C1337 1.408 . S
C1341 C1340 1.404 . S
C1341 H1353 0.930 . S
C1342 C1338 1.524 . S
C1342 H1354 0.956 . S
C1342 H1355 0.961 . S
C1342 H1356 0.961 . S
C1343 C1340 1.539 . S
C1343 H1357 0.958 . S
C1343 H1358 0.961 . S
C1343 H1359 0.960 . S
H1344 C1328 0.931 . S
H1345 C1333 0.929 . S
H1346 C1334 0.960 . S
H1347 C1334 0.962 . S
H1348 C1334 0.960 . S
H1349 C1335 0.961 . S
H1350 C1335 0.961 . S
H1351 C1335 0.961 . S
H1352 C1336 0.931 . S
H1353 C1341 0.930 . S
H1354 C1342 0.956 . S
H1355 C1342 0.961 . S
H1356 C1342 0.961 . S
H1357 C1343 0.958 . S
H1358 C1343 0.961 . S
H1359 C1343 0.960 . S
C1360 C1361 1.391 . S
C1360 C1362 1.394 . S
C1360 H1376 0.931 . S
C1361 C1360 1.391 . S
C1361 C1365 1.376 . S
C1362 C1360 1.394 . S
C1362 C1363 1.369 . S
C1362 C1366 1.531 . S
C1363 C1362 1.369 . S
C1363 C1364 1.410 . S
C1363 C1371 1.503 . S
C1364 C1363 1.410 . S
C1364 C1365 1.392 . S
C1364 C1367 1.511 . S
C1365 C1361 1.376 . S
C1365 C1364 1.392 . S
C1365 H1377 0.929 . S
C1366 C1362 1.531 . S
C1366 H1378 0.960 . S
C1366 H1379 0.962 . S
C1366 H1380 0.960 . S
C1367 C1364 1.511 . S
C1367 H1381 0.961 . S
C1367 H1382 0.961 . S
C1367 H1383 0.961 . S
C1368 C1369 1.370 . S
C1368 C1370 1.363 . S
C1368 H1384 0.931 . S
C1369 C1368 1.370 . S
C1369 C1373 1.408 . S
C1370 C1368 1.363 . S
C1370 C1371 1.370 . S
C1370 C1374 1.524 . S
C1371 C1363 1.503 . S
C1371 C1370 1.370 . S
C1371 C1372 1.403 . S
C1372 C1371 1.403 . S
C1372 C1373 1.404 . S
C1372 C1375 1.539 . S
C1373 C1369 1.408 . S
C1373 C1372 1.404 . S
C1373 H1385 0.930 . S
C1374 C1370 1.524 . S
C1374 H1386 0.956 . S
C1374 H1387 0.961 . S
C1374 H1388 0.961 . S
C1375 C1372 1.539 . S
C1375 H1389 0.958 . S
C1375 H1390 0.961 . S
C1375 H1391 0.960 . S
H1376 C1360 0.931 . S
H1377 C1365 0.929 . S
H1378 C1366 0.960 . S
H1379 C1366 0.962 . S
H1380 C1366 0.960 . S
H1381 C1367 0.961 . S
H1382 C1367 0.961 . S
H1383 C1367 0.961 . S
H1384 C1368 0.931 . S
H1385 C1373 0.930 . S
H1386 C1374 0.956 . S
H1387 C1374 0.961 . S
H1388 C1374 0.961 . S
H1389 C1375 0.958 . S
H1390 C1375 0.961 . S
H1391 C1375 0.960 . S
C1392 C1393 1.391 . S
C1392 C1394 1.394 . S
C1392 H1408 0.931 . S
C1393 C1392 1.391 . S
C1393 C1397 1.376 . S
C1394 C1392 1.394 . S
C1394 C1395 1.369 . S
C1394 C1398 1.531 . S
C1395 C1394 1.369 . S
C1395 C1396 1.410 . S
C1395 C1403 1.503 . S
C1396 C1395 1.410 . S
C1396 C1397 1.392 . S
C1396 C1399 1.511 . S
C1397 C1393 1.376 . S
C1397 C1396 1.392 . S
C1397 H1409 0.929 . S
C1398 C1394 1.531 . S
C1398 H1410 0.960 . S
C1398 H1411 0.962 . S
C1398 H1412 0.960 . S
C1399 C1396 1.511 . S
C1399 H1413 0.961 . S
C1399 H1414 0.961 . S
C1399 H1415 0.961 . S
C1400 C1401 1.370 . S
C1400 C1402 1.363 . S
C1400 H1416 0.931 . S
C1401 C1400 1.370 . S
C1401 C1405 1.408 . S
C1402 C1400 1.363 . S
C1402 C1403 1.370 . S
C1402 C1406 1.524 . S
C1403 C1395 1.503 . S
C1403 C1402 1.370 . S
C1403 C1404 1.403 . S
C1404 C1403 1.403 . S
C1404 C1405 1.404 . S
C1404 C1407 1.539 . S
C1405 C1401 1.408 . S
C1405 C1404 1.404 . S
C1405 H1417 0.930 . S
C1406 C1402 1.524 . S
C1406 H1418 0.956 . S
C1406 H1419 0.961 . S
C1406 H1420 0.961 . S
C1407 C1404 1.539 . S
C1407 H1421 0.958 . S
C1407 H1422 0.961 . S
C1407 H1423 0.960 . S
H1408 C1392 0.931 . S
H1409 C1397 0.929 . S
H1410 C1398 0.960 . S
H1411 C1398 0.962 . S
H1412 C1398 0.960 . S
H1413 C1399 0.961 . S
H1414 C1399 0.961 . S
H1415 C1399 0.961 . S
H1416 C1400 0.931 . S
H1417 C1405 0.930 . S
H1418 C1406 0.956 . S
H1419 C1406 0.961 . S
H1420 C1406 0.961 . S
H1421 C1407 0.958 . S
H1422 C1407 0.961 . S
H1423 C1407 0.960 . S
C657 C242 1.418 1_545 S
C665 C394 1.473 . S
C697 C478 1.485 . S
C689 C301 1.490 . S
C729 C471 1.485 . S
C721 C162 1.479 . S
C753 C221 1.511 . S
C761 C387 1.488 . S
C793 C551 1.489 . S
C785 C82 1.498 1_565 S
C825 C635 1.472 . S
C817 C141 1.474 . S
C849 C2 1.478 . S
C857 C628 1.486 . S
C881 C61 1.450 . S
C889 C544 1.487 . S
C921 C378 1.319 . S
C913 C42 1.518 . S
C953 C462 1.364 . S
C945 C21 1.534 . S
C985 C473 1.407 . S
C977 C122 1.535 . S
C1017 C389 1.417 . S
C1009 C101 1.551 . S
C1049 C557 1.351 . S
C1041 C202 1.530 . S
C1073 C181 1.497 . S
C1081 C641 1.344 . S
C1113 C630 1.417 . S
C1105 C282 1.544 . S
C1137 C261 1.492 . S
C1145 C546 1.420 . S
C1177 C376 1.616 . S
C1169 C15 1.596 . S
C1209 C460 1.593 . S
C1201 C55 1.597 . S
C1233 C95 1.584 . S
C1241 C467 1.582 . S
C1273 C383 1.573 . S
C1265 C135 1.583 . S
C1305 C555 1.614 . S
C1297 C175 1.583 . S
C1329 C215 1.593 . S
C1337 C639 1.594 . S
C1361 C255 1.595 . S
C1369 C646 1.593 . S
C1393 C295 1.586 . S
C1401 C562 1.578 . S
