# Generated by pormake.
# Topology zzz, (3,6)-cn, num edge types: 1
# Building blocks:
#     Node 0, Type 0, BuildingBlock: OLANEW_clean_sbu_2, # of connection points: 3
#     Node 1, Type 0, BuildingBlock: OLANEW_clean_sbu_2, # of connection points: 3
#     Node 2, Type 0, BuildingBlock: OLANEW_clean_sbu_2, # of connection points: 3
#     Node 3, Type 0, BuildingBlock: OLANEW_clean_sbu_2, # of connection points: 3
#     Node 4, Type 0, BuildingBlock: OLANEW_clean_sbu_2, # of connection points: 3
#     Node 5, Type 0, BuildingBlock: OLANEW_clean_sbu_2, # of connection points: 3
#     Node 6, Type 0, BuildingBlock: OLANEW_clean_sbu_2, # of connection points: 3
#     Node 7, Type 0, BuildingBlock: OLANEW_clean_sbu_2, # of connection points: 3
#     Node 8, Type 1, BuildingBlock: FUNLAD_clean_sbu_0, # of connection points: 6
#     Node 9, Type 1, BuildingBlock: FUNLAD_clean_sbu_0, # of connection points: 6
#     Node 10, Type 1, BuildingBlock: FUNLAD_clean_sbu_0, # of connection points: 6
#     Node 11, Type 1, BuildingBlock: FUNLAD_clean_sbu_0, # of connection points: 6
#     Edge 12, Type (0, 1), BuildingBlock: ZUJKAS_clean_linker_0, # of connection points: 2
#     Edge 13, Type (0, 1), BuildingBlock: ZUJKAS_clean_linker_0, # of connection points: 2
#     Edge 14, Type (0, 1), BuildingBlock: ZUJKAS_clean_linker_0, # of connection points: 2
#     Edge 15, Type (0, 1), BuildingBlock: ZUJKAS_clean_linker_0, # of connection points: 2
#     Edge 16, Type (0, 1), BuildingBlock: ZUJKAS_clean_linker_0, # of connection points: 2
#     Edge 17, Type (0, 1), BuildingBlock: ZUJKAS_clean_linker_0, # of connection points: 2
#     Edge 18, Type (0, 1), BuildingBlock: ZUJKAS_clean_linker_0, # of connection points: 2
#     Edge 19, Type (0, 1), BuildingBlock: ZUJKAS_clean_linker_0, # of connection points: 2
#     Edge 20, Type (0, 1), BuildingBlock: ZUJKAS_clean_linker_0, # of connection points: 2
#     Edge 21, Type (0, 1), BuildingBlock: ZUJKAS_clean_linker_0, # of connection points: 2
#     Edge 22, Type (0, 1), BuildingBlock: ZUJKAS_clean_linker_0, # of connection points: 2
#     Edge 23, Type (0, 1), BuildingBlock: ZUJKAS_clean_linker_0, # of connection points: 2
#     Edge 24, Type (0, 1), BuildingBlock: ZUJKAS_clean_linker_0, # of connection points: 2
#     Edge 25, Type (0, 1), BuildingBlock: ZUJKAS_clean_linker_0, # of connection points: 2
#     Edge 26, Type (0, 1), BuildingBlock: ZUJKAS_clean_linker_0, # of connection points: 2
#     Edge 27, Type (0, 1), BuildingBlock: ZUJKAS_clean_linker_0, # of connection points: 2
#     Edge 28, Type (0, 1), BuildingBlock: ZUJKAS_clean_linker_0, # of connection points: 2
#     Edge 29, Type (0, 1), BuildingBlock: ZUJKAS_clean_linker_0, # of connection points: 2
#     Edge 30, Type (0, 1), BuildingBlock: ZUJKAS_clean_linker_0, # of connection points: 2
#     Edge 31, Type (0, 1), BuildingBlock: ZUJKAS_clean_linker_0, # of connection points: 2
#     Edge 32, Type (0, 1), BuildingBlock: ZUJKAS_clean_linker_0, # of connection points: 2
#     Edge 33, Type (0, 1), BuildingBlock: ZUJKAS_clean_linker_0, # of connection points: 2
#     Edge 34, Type (0, 1), BuildingBlock: ZUJKAS_clean_linker_0, # of connection points: 2
#     Edge 35, Type (0, 1), BuildingBlock: ZUJKAS_clean_linker_0, # of connection points: 2
# Relax obj value: 0.119
# Max RMSD: 0.174
# Mean RMSD: 0.093
data_MOF--net-zzz--node1-OLANEW_clean_sbu_2--node2-FUNLAD_clean_sbu_0--edge1-ZUJKAS_clean_linker_0
_symmetry_space_group_name_H-M    P1
_symmetry_Int_Tables_number       1
_symmetry_cell_setting            triclinic
loop_
_symmetry_equiv_pos_as_xyz
'x, y, z'
_cell_length_a     68.904465
_cell_length_b     73.899154
_cell_length_c     24.296539
_cell_angle_alpha  86.52575
_cell_angle_beta   86.71019
_cell_angle_gamma 90.458886
loop_
_atom_site_label
_atom_site_type_symbol
_atom_site_fract_x
_atom_site_fract_y
_atom_site_fract_z
_atom_type_partial_charge
O0 O 0.8145 0.5345 0.0312 0.0
Cd1 Cd 0.78678 0.55165 0.06504 0.0
O2 O 0.81597 0.5216 0.11428 0.0
Cd3 Cd 0.83063 0.50648 0.17931 0.0
O4 O 0.85051 0.49966 0.24353 0.0
C5 C 0.85604 0.51274 0.27061 0.0
O6 O 0.8492 0.529 0.25906 0.0
C7 C 0.82258 0.52337 0.06428 0.0
C8 C 0.75361 0.53886 0.01998 0.0
O9 O 0.75896 0.53215 0.06652 0.0
O10 O 0.76378 0.55186 0.99542 0.0
O11 O 0.90241 0.79782 0.88709 0.0
Cd12 Cd 0.88534 0.77007 0.92233 0.0
O13 O 0.90789 0.80187 0.97341 0.0
Cd14 Cd 0.92122 0.81606 0.03823 0.0
O15 O 0.93274 0.83653 0.08877 0.0
C16 C 0.92187 0.84958 0.10189 0.0
O17 O 0.90401 0.85004 0.08559 0.0
C18 C 0.9097 0.80735 0.92267 0.0
C19 C 0.9066 0.73926 0.89933 0.0
O20 O 0.89338 0.74497 0.86776 0.0
O21 O 0.90977 0.74813 0.94169 0.0
O22 O 0.73559 0.96963 0.94987 0.0
Cd23 Cd 0.76333 0.95289 0.98272 0.0
O24 O 0.72806 0.97551 0.03559 0.0
Cd25 Cd 0.70832 0.98409 0.10219 0.0
O26 O 0.68657 0.98738 0.16925 0.0
C27 C 0.68124 0.9734 0.19951 0.0
O28 O 0.68915 0.95774 0.18939 0.0
C29 C 0.72435 0.97704 0.98488 0.0
C30 C 0.79764 0.96768 0.93315 0.0
O31 O 0.78832 0.9553 0.9106 0.0
O32 O 0.79079 0.97297 0.97956 0.0
O33 O 0.54253 0.68555 0.03601 0.0
Cd34 Cd 0.55614 0.70748 0.09505 0.0
O35 O 0.51364 0.68592 0.07919 0.0
Cd36 Cd 0.52563 0.69746 0.15055 0.0
O37 O 0.53575 0.68234 0.22317 0.0
C38 C 0.54133 0.66648 0.21281 0.0
O39 O 0.54163 0.66177 0.16146 0.0
C40 C 0.5247 0.68077 0.03959 0.0
C41 C 0.55012 0.74277 0.05241 0.0
O42 O 0.56575 0.73432 0.03951 0.0
O43 O 0.53743 0.73458 0.08589 0.0
O44 O 0.21504 0.61011 0.32935 0.0
Cd45 Cd 0.24402 0.62523 0.28604 0.0
O46 O 0.22533 0.58563 0.29074 0.0
Cd47 Cd 0.22085 0.55802 0.26613 0.0
O48 O 0.20604 0.53779 0.22162 0.0
C49 C 0.2061 0.54086 0.16961 0.0
O50 O 0.21595 0.55495 0.14684 0.0
C51 C 0.21291 0.59336 0.3219 0.0
C52 C 0.27574 0.60784 0.33019 0.0
O53 O 0.26861 0.60258 0.28618 0.0
O54 O 0.26825 0.62169 0.35214 0.0
O55 O 0.13803 0.20763 0.4649 0.0
Cd56 Cd 0.15842 0.23457 0.44409 0.0
O57 O 0.1422 0.20026 0.379 0.0
Cd58 Cd 0.13899 0.18198 0.31263 0.0
O59 O 0.13043 0.16204 0.2559 0.0
C60 C 0.12865 0.14545 0.2726 0.0
O61 O 0.13255 0.14058 0.32365 0.0
C62 C 0.13448 0.197 0.42745 0.0
C63 C 0.1409 0.2644 0.49024 0.0
O64 O 0.13728 0.26008 0.44153 0.0
O65 O 0.153 0.25471 0.51691 0.0
O66 O 0.30354 0.91723 0.42285 0.0
Cd67 Cd 0.27436 0.90797 0.37979 0.0
O68 O 0.30354 0.94152 0.3666 0.0
Cd69 Cd 0.31667 0.96596 0.32428 0.0
O70 O 0.33451 0.98435 0.26863 0.0
C71 C 0.35263 0.98552 0.2752 0.0
O72 O 0.35984 0.97633 0.31717 0.0
C73 C 0.31125 0.93233 0.40543 0.0
C74 C 0.24197 0.9232 0.43158 0.0
O75 O 0.2472 0.90705 0.44571 0.0
O76 O 0.25195 0.93204 0.39257 0.0
O77 O 0.51038 0.29877 0.29245 0.0
Cd78 Cd 0.50533 0.27418 0.23201 0.0
O79 O 0.47894 0.30302 0.30538 0.0
Cd80 Cd 0.47227 0.28981 0.23084 0.0
O81 O 0.46729 0.30356 0.15094 0.0
C82 C 0.4538 0.31521 0.1511 0.0
O83 O 0.44282 0.31659 0.19666 0.0
C84 C 0.49626 0.30638 0.31753 0.0
C85 C 0.50428 0.24137 0.29539 0.0
O86 O 0.52026 0.24771 0.27195 0.0
O87 O 0.48874 0.2504 0.288 0.0
C88 C 0.01455 0.96873 0.72842 0.0
N89 N 0.01053 0.98787 0.56408 0.0
C90 C 0.0166 0.971 0.5522 0.0
C91 C 0.01012 0.96283 0.50636 0.0
C92 C 0.99726 0.97207 0.47207 0.0
C93 C 0.99153 0.98964 0.48458 0.0
C94 C 0.99838 0.99733 0.53107 0.0
Zn95 Zn 0.01911 0.99785 0.63547 0.0
C96 C 0.98631 0.01252 0.7018 0.0
N97 N 0.03727 0.0163 0.78757 0.0
C98 C 0.05004 0.00713 0.81932 0.0
C99 C 0.03094 0.03303 0.80002 0.0
C100 C 0.03796 0.04147 0.84475 0.0
C101 C 0.05172 0.03267 0.87704 0.0
C102 C 0.05747 0.01511 0.8646 0.0
Zn103 Zn 0.02858 0.00627 0.71625 0.0
O104 O 0.01236 0.97245 0.67743 0.0
C105 C 0.06108 0.99076 0.64984 0.0
O106 O 0.02162 0.98069 0.75725 0.0
H107 H 0.0208 0.0401 0.77428 0.0
H108 H 0.02616 0.96365 0.57911 0.0
H109 H 0.05492 0.99386 0.80857 0.0
O110 O 0.04757 0.98934 0.61696 0.0
O111 O 0.05747 0.99767 0.69595 0.0
H112 H 0.99373 0.01072 0.54134 0.0
O113 O 0.03526 0.03169 0.67429 0.0
O114 O 0.02595 0.02343 0.59461 0.0
O115 O -0.00041 0.0144 0.73532 0.0
O116 O 0.99062 0.00621 0.65523 0.0
C117 C 0.03294 0.03544 0.62337 0.0
H118 H 0.01466 0.94915 0.49902 0.0
H119 H 0.98176 0.99731 0.45898 0.0
H120 H 0.03288 0.05489 0.85342 0.0
H121 H 0.06815 0.00789 0.88822 0.0
C122 C 0.48031 0.98898 0.67086 0.0
N123 N 0.50747 0.03964 0.68048 0.0
C124 C 0.50453 0.04149 0.62555 0.0
C125 C 0.50279 0.05862 0.59919 0.0
C126 C 0.50409 0.07412 0.62944 0.0
C127 C 0.50721 0.07188 0.68614 0.0
C128 C 0.50882 0.0544 0.71102 0.0
Zn129 Zn 0.51009 0.01376 0.71419 0.0
C130 C 0.48606 0.00612 0.81728 0.0
N131 N 0.51533 0.95878 0.77623 0.0
C132 C 0.51447 0.94468 0.74292 0.0
C133 C 0.51823 0.95596 0.831 0.0
C134 C 0.52059 0.93843 0.85417 0.0
C135 C 0.51987 0.92361 0.82077 0.0
C136 C 0.51667 0.92689 0.76447 0.0
Zn137 Zn 0.51265 0.98481 0.74394 0.0
O138 O 0.48586 0.00544 0.67035 0.0
C139 C 0.53673 0.99234 0.6411 0.0
O140 O 0.48923 0.97698 0.69888 0.0
H141 H 0.51879 0.96735 0.85682 0.0
H142 H 0.50364 0.02963 0.60183 0.0
H143 H 0.51222 0.94722 0.69946 0.0
O144 O 0.52942 0.0079 0.64669 0.0
O145 O 0.53224 0.97953 0.67689 0.0
H146 H 0.51117 0.05262 0.75464 0.0
O147 O 0.53603 0.99294 0.78848 0.0
O148 O 0.5344 0.02149 0.7586 0.0
O149 O 0.49306 0.9905 0.8104 0.0
O150 O 0.49084 0.01919 0.78252 0.0
C151 C 0.54251 0.0091 0.78753 0.0
H152 H 0.50078 0.05968 0.55523 0.0
H153 H 0.5082 0.08348 0.71105 0.0
H154 H 0.52278 0.93649 0.89791 0.0
H155 H 0.51621 0.91587 0.73715 0.0
C156 C 0.50775 0.46483 0.62016 0.0
N157 N 0.46018 0.49897 0.64623 0.0
C158 C 0.45853 0.49945 0.59065 0.0
C159 C 0.44125 0.50491 0.5679 0.0
C160 C 0.42549 0.50996 0.60265 0.0
C161 C 0.42728 0.50851 0.66008 0.0
C162 C 0.44487 0.50295 0.68111 0.0
Zn163 Zn 0.48701 0.4948 0.6755 0.0
C164 C 0.48732 0.46784 0.76958 0.0
N165 N 0.544 0.48752 0.73087 0.0
C166 C 0.55988 0.48676 0.69514 0.0
C167 C 0.54576 0.48707 0.78641 0.0
C168 C 0.56406 0.48641 0.80797 0.0
C169 C 0.58074 0.48629 0.77203 0.0
C170 C 0.5785 0.48619 0.71495 0.0
Zn171 Zn 0.51707 0.49105 0.70198 0.0
O172 O 0.49166 0.47311 0.62363 0.0
C173 C 0.51674 0.51803 0.60787 0.0
O174 O 0.52167 0.46985 0.64803 0.0
H175 H 0.53296 0.48781 0.81405 0.0
H176 H 0.47093 0.49636 0.56363 0.0
H177 H 0.55811 0.48709 0.65115 0.0
O178 O 0.49886 0.51357 0.61282 0.0
O179 O 0.52843 0.51048 0.64043 0.0
H180 H 0.44652 0.50247 0.72518 0.0
O181 O 0.51222 0.51225 0.75549 0.0
O182 O 0.4828 0.51657 0.72796 0.0
O183 O 0.50533 0.47178 0.76322 0.0
O184 O 0.47548 0.47593 0.73846 0.0
C185 C 0.49648 0.52106 0.75746 0.0
H186 H 0.44063 0.50606 0.52339 0.0
H187 H 0.4154 0.51207 0.68836 0.0
H188 H 0.56513 0.48679 0.85218 0.0
H189 H 0.59102 0.48596 0.68593 0.0
C190 C 0.05789 0.51152 0.66839 0.0
N191 N 0.0399 0.4584 0.72013 0.0
C192 C 0.04316 0.45473 0.66623 0.0
C193 C 0.04929 0.43759 0.65215 0.0
C194 C 0.05206 0.42401 0.6939 0.0
C195 C 0.0482 0.42808 0.74922 0.0
C196 C 0.04211 0.44545 0.76147 0.0
Zn197 Zn 0.03276 0.48425 0.73788 0.0
C198 C 0.05664 0.49795 0.82557 0.0
N199 N 0.01912 0.53886 0.7717 0.0
C200 C 0.01752 0.55164 0.72949 0.0
C201 C 0.01471 0.5427 0.82504 0.0
C202 C 0.00765 0.55973 0.83736 0.0
C203 C 0.0054 0.57299 0.79447 0.0
C204 C 0.01079 0.56894 0.74007 0.0
Zn205 Zn 0.02641 0.51295 0.75453 0.0
O206 O 0.05484 0.49459 0.67806 0.0
C207 C 0.00246 0.49936 0.66705 0.0
O208 O 0.04771 0.52265 0.69504 0.0
H209 H 0.01619 0.5324 0.85803 0.0
H210 H 0.04139 0.46523 0.634 0.0
H211 H 0.02095 0.54827 0.68737 0.0
O212 O 0.01212 0.48506 0.67663 0.0
O213 O 0.00554 0.51321 0.69398 0.0
H214 H 0.03943 0.44868 0.80404 0.0
O215 O 0.00525 0.50295 0.81403 0.0
O216 O 0.01042 0.47448 0.79746 0.0
O217 O 0.04726 0.51232 0.81451 0.0
O218 O 0.05337 0.48385 0.7999 0.0
C219 C 0.00114 0.48627 0.82411 0.0
H220 H 0.05238 0.4352 0.60901 0.0
H221 H 0.04992 0.41797 0.7827 0.0
H222 H 0.00379 0.56244 0.8799 0.0
H223 H 0.0091 0.5788 0.70589 0.0
H224 H 0.21317 0.9059 0.49696 0.0
H225 H 0.18399 0.91924 0.53902 0.0
H226 H 0.20331 0.97229 0.47312 0.0
H227 H 0.23215 0.95894 0.42912 0.0
H228 H 0.17815 0.94412 0.61416 0.0
H229 H 0.15016 0.96962 0.41457 0.0
H230 H 0.1705 0.95451 0.41834 0.0
H231 H 0.17382 0.97837 0.42632 0.0
C232 C 0.21119 0.9204 0.49139 0.0
C233 C 0.2248 0.93135 0.45914 0.0
C234 C 0.19454 0.92802 0.51558 0.0
C235 C 0.19129 0.94672 0.50834 0.0
C236 C 0.20525 0.95777 0.47797 0.0
H237 H 0.09572 0.99926 0.693 0.0
H238 H 0.12827 0.98954 0.66159 0.0
C239 C 0.22176 0.95013 0.45305 0.0
C240 C 0.17304 0.95448 0.53154 0.0
H241 H 0.1326 0.97764 0.49556 0.0
C242 C 0.16817 0.95147 0.58832 0.0
C243 C 0.15998 0.96392 0.49758 0.0
C244 C 0.16375 0.96666 0.43577 0.0
C245 C 0.15045 0.95742 0.61195 0.0
C246 C 0.13752 0.96705 0.57805 0.0
C247 C 0.14259 0.97034 0.52152 0.0
C248 C 0.11802 0.97272 0.59901 0.0
C249 C 0.14544 0.95272 0.67244 0.0
C250 C 0.10154 0.96678 0.57366 0.0
C251 C 0.0831 0.97257 0.59069 0.0
C252 C 0.0807 0.98433 0.63382 0.0
C253 C 0.09715 0.99009 0.65993 0.0
C254 C 0.11572 0.98446 0.64224 0.0
H255 H 0.15454 0.94153 0.68896 0.0
H256 H 0.14804 0.96478 0.69619 0.0
H257 H 0.12991 0.94866 0.67959 0.0
H258 H 0.10296 0.95769 0.54032 0.0
H259 H 0.0707 0.9678 0.56996 0.0
H260 H 0.53456 0.21875 0.31634 0.0
H261 H 0.5339 0.19084 0.37601 0.0
H262 H 0.4726 0.19751 0.41438 0.0
H263 H 0.47311 0.22551 0.35503 0.0
H264 H 0.49512 0.18898 0.50815 0.0
H265 H 0.5089 0.14208 0.3402 0.0
H266 H 0.52597 0.16059 0.34041 0.0
H267 H 0.50103 0.16511 0.32723 0.0
C268 C 0.52091 0.21426 0.33729 0.0
C269 C 0.50386 0.22431 0.3307 0.0
C270 C 0.52056 0.19829 0.37124 0.0
C271 C 0.50317 0.19205 0.3991 0.0
C272 C 0.48616 0.2021 0.39306 0.0
H273 H 0.47869 0.08504 0.55205 0.0
H274 H 0.47801 0.11421 0.49923 0.0
C275 C 0.48647 0.21805 0.359 0.0
C276 C 0.50272 0.17506 0.43476 0.0
H277 H 0.50924 0.12939 0.43198 0.0
C278 C 0.49818 0.17593 0.49161 0.0
C279 C 0.50653 0.15807 0.41284 0.0
C280 C 0.51073 0.15628 0.35177 0.0
C281 C 0.49758 0.16022 0.52731 0.0
C282 C 0.5018 0.14329 0.50552 0.0
C283 C 0.50613 0.14242 0.44858 0.0
C284 C 0.50146 0.12618 0.54067 0.0
C285 C 0.49213 0.16181 0.58783 0.0
C286 C 0.51479 0.1233 0.58182 0.0
C287 C 0.51528 0.10657 0.61199 0.0
C288 C 0.50253 0.09242 0.60118 0.0
C289 C 0.4889 0.09556 0.56081 0.0
C290 C 0.48843 0.11224 0.53075 0.0
H291 H 0.48504 0.17493 0.59569 0.0
H292 H 0.48216 0.15058 0.6039 0.0
H293 H 0.50546 0.16094 0.61135 0.0
H294 H 0.52519 0.13379 0.58946 0.0
H295 H 0.5261 0.10452 0.6423 0.0
H296 H 0.29343 0.57707 0.29643 0.0
H297 H 0.31833 0.55949 0.34288 0.0
H298 H 0.31846 0.59785 0.46972 0.0
H299 H 0.29371 0.61563 0.42339 0.0
H300 H 0.35582 0.5881 0.42801 0.0
H301 H 0.30901 0.52764 0.48751 0.0
H302 H 0.30999 0.53482 0.4154 0.0
H303 H 0.29921 0.54928 0.46526 0.0
C304 C 0.2988 0.58181 0.3341 0.0
C305 C 0.29155 0.59772 0.35635 0.0
C306 C 0.31292 0.57167 0.36076 0.0
C307 C 0.31994 0.57722 0.41018 0.0
C308 C 0.31309 0.5933 0.43179 0.0
H309 H 0.40528 0.5393 0.63689 0.0
H310 H 0.3789 0.55491 0.59145 0.0
C311 C 0.29897 0.60344 0.40522 0.0
C312 C 0.33465 0.56642 0.43915 0.0
H313 H 0.34232 0.52533 0.506 0.0
C314 C 0.35287 0.57439 0.44522 0.0
C315 C 0.33072 0.54854 0.46134 0.0
C316 C 0.31113 0.53956 0.45758 0.0
C317 C 0.3674 0.56488 0.47245 0.0
C318 C 0.36342 0.54706 0.49509 0.0
C319 C 0.34525 0.53902 0.48869 0.0
C320 C 0.37804 0.5366 0.52545 0.0
C321 C 0.38701 0.57387 0.4759 0.0
C322 C 0.38564 0.52066 0.50471 0.0
C323 C 0.40056 0.51155 0.53099 0.0
C324 C 0.40805 0.5182 0.57861 0.0
C325 C 0.39975 0.53372 0.60061 0.0
C326 C 0.38484 0.5428 0.57433 0.0
H327 H 0.38924 0.58552 0.44498 0.0
H328 H 0.38803 0.57905 0.51757 0.0
H329 H 0.39893 0.56406 0.46938 0.0
H330 H 0.38042 0.51559 0.46728 0.0
H331 H 0.40647 0.49949 0.51349 0.0
H332 H 0.14727 0.27831 0.58954 0.0
H333 H 0.13115 0.30413 0.63041 0.0
H334 H 0.09675 0.31164 0.48822 0.0
H335 H 0.11271 0.28585 0.44706 0.0
H336 H 0.13011 0.34058 0.58202 0.0
H337 H 0.05635 0.31006 0.62211 0.0
H338 H 0.07778 0.29661 0.61006 0.0
H339 H 0.06674 0.3083 0.5531 0.0
C340 C 0.13623 0.28541 0.56704 0.0
C341 C 0.13124 0.28001 0.51509 0.0
C342 C 0.12704 0.30014 0.59047 0.0
C343 C 0.11259 0.30958 0.56265 0.0
C344 C 0.10763 0.30429 0.51075 0.0
H345 H 0.04263 0.40397 0.60778 0.0
H346 H 0.05748 0.37584 0.57935 0.0
C347 C 0.11686 0.28963 0.48716 0.0
C348 C 0.10321 0.32544 0.58683 0.0
H349 H 0.05934 0.34171 0.63251 0.0
C350 C 0.11468 0.34082 0.59357 0.0
C351 C 0.08307 0.32564 0.60159 0.0
C352 C 0.07025 0.30923 0.59687 0.0
C353 C 0.10642 0.35667 0.61314 0.0
C354 C 0.08623 0.35694 0.62755 0.0
C355 C 0.07481 0.34145 0.6215 0.0
C356 C 0.07658 0.37342 0.64698 0.0
C357 C 0.11927 0.37317 0.61632 0.0
C358 C 0.08206 0.38113 0.6952 0.0
C359 C 0.07377 0.39734 0.71122 0.0
C360 C 0.05971 0.40603 0.67955 0.0
C361 C 0.05369 0.39783 0.63251 0.0
C362 C 0.06205 0.38168 0.61642 0.0
H363 H 0.13314 0.37213 0.59106 0.0
H364 H 0.11176 0.38569 0.60207 0.0
H365 H 0.12288 0.37449 0.65983 0.0
H366 H 0.09297 0.37477 0.71999 0.0
H367 H 0.07883 0.40331 0.74748 0.0
H368 H 0.82241 0.99187 0.97449 0.0
H369 H 0.85322 0.00382 0.93145 0.0
H370 H 0.84472 0.97345 0.78847 0.0
H371 H 0.81412 0.96116 0.83157 0.0
H372 H 0.88052 0.96855 0.82898 0.0
H373 H 0.8644 0.04201 0.80531 0.0
H374 H 0.85979 0.03215 0.87425 0.0
H375 H 0.84561 0.02491 0.81957 0.0
C376 C 0.82702 0.98785 0.93368 0.0
C377 C 0.81586 0.97554 0.90646 0.0
C378 C 0.84455 0.99482 0.90897 0.0
C379 C 0.85108 0.98975 0.85641 0.0
C380 C 0.83985 0.97762 0.82893 0.0
H381 H 0.95442 0.00765 0.64239 0.0
H382 H 0.92067 0.00474 0.67873 0.0
C383 C 0.8224 0.97058 0.85367 0.0
C384 C 0.87028 0.99596 0.83167 0.0
H385 H 0.89747 0.0336 0.78839 0.0
C386 C 0.88417 0.98277 0.81979 0.0
C387 C 0.87499 0.01453 0.81994 0.0
C388 C 0.86037 0.02923 0.82993 0.0
C389 C 0.90272 0.98763 0.79698 0.0
C390 C 0.90745 0.00615 0.78547 0.0
C391 C 0.89367 0.01941 0.79737 0.0
C392 C 0.92682 0.01168 0.76115 0.0
C393 C 0.91729 0.97295 0.78575 0.0
C394 C 0.94119 0.01731 0.79512 0.0
C395 C 0.96053 0.01895 0.77461 0.0
C396 C 0.9657 0.01494 0.71985 0.0
C397 C 0.95095 0.01073 0.68484 0.0
C398 C 0.93166 0.00907 0.70543 0.0
H399 H 0.91218 0.95943 0.80357 0.0
H400 H 0.91994 0.97216 0.74047 0.0
H401 H 0.93139 0.97622 0.80305 0.0
H402 H 0.93763 0.01935 0.83831 0.0
H403 H 0.97153 0.02229 0.80258 0.0
H404 H 0.51743 0.76315 0.06574 0.0
H405 H 0.51165 0.7936 0.02515 0.0
H406 H 0.56941 0.79504 0.94649 0.0
H407 H 0.57519 0.76447 0.98598 0.0
H408 H 0.5307 0.82552 0.03762 0.0
H409 H 0.53612 0.80872 0.81797 0.0
H410 H 0.53394 0.79156 0.87415 0.0
H411 H 0.55709 0.80223 0.85472 0.0
C412 C 0.52889 0.76992 0.03967 0.0
C413 C 0.54673 0.76135 0.02883 0.0
C414 C 0.52556 0.78732 0.01653 0.0
C415 C 0.53997 0.79646 0.98204 0.0
C416 C 0.55792 0.78807 0.9719 0.0
H417 H 0.54663 0.91189 0.89338 0.0
H418 H 0.55099 0.88109 0.93302 0.0
C419 C 0.56124 0.77063 0.99482 0.0
C420 C 0.53636 0.81493 0.9577 0.0
H421 H 0.53554 0.84009 0.83524 0.0
C422 C 0.53168 0.8287 0.99336 0.0
C423 C 0.53735 0.81899 0.89992 0.0
C424 C 0.54121 0.80456 0.85939 0.0
C425 C 0.52832 0.8465 0.97287 0.0
C426 C 0.53009 0.85071 0.91519 0.0
C427 C 0.5344 0.83687 0.87947 0.0
C428 C 0.52749 0.86938 0.89103 0.0
C429 C 0.52262 0.86056 0.01317 0.0
C430 C 0.5132 0.87294 0.85302 0.0
C431 C 0.51075 0.89052 0.83003 0.0
C432 C 0.52258 0.90487 0.84458 0.0
C433 C 0.53704 0.9012 0.88216 0.0
C434 C 0.53954 0.88361 0.9049 0.0
H435 H 0.51658 0.85421 0.05321 0.0
H436 H 0.53568 0.86861 0.02146 0.0
H437 H 0.51167 0.86997 0.99616 0.0
H438 H 0.5038 0.86214 0.84158 0.0
H439 H 0.4994 0.89294 0.80152 0.0
H440 H 0.72882 0.5118 0.0625 0.0
H441 H 0.70071 0.49943 0.01959 0.0
H442 H 0.71138 0.53705 0.87814 0.0
H443 H 0.73956 0.5494 0.92037 0.0
H444 H 0.6677 0.51861 0.98616 0.0
H445 H 0.70665 0.48763 0.80971 0.0
H446 H 0.71875 0.49416 0.86961 0.0
H447 H 0.71298 0.51097 0.81665 0.0
C448 C 0.72522 0.5174 0.02218 0.0
C449 C 0.73643 0.53155 0.99474 0.0
C450 C 0.70919 0.5103 0.99775 0.0
C451 C 0.70423 0.51713 0.94537 0.0
C452 C 0.71526 0.53134 0.91809 0.0
H453 H 0.61109 0.50795 0.73097 0.0
H454 H 0.64171 0.51328 0.7737 0.0
C455 C 0.73126 0.53847 0.94249 0.0
C456 C 0.68696 0.50998 0.92019 0.0
H457 H 0.67226 0.49025 0.80592 0.0
C458 C 0.66866 0.51221 0.94709 0.0
C459 C 0.68837 0.50167 0.86922 0.0
C460 C 0.70775 0.49829 0.83976 0.0
C461 C 0.6516 0.50696 0.9233 0.0
C462 C 0.65297 0.49895 0.87181 0.0
C463 C 0.6713 0.49638 0.84543 0.0
C464 C 0.63545 0.49409 0.84339 0.0
C465 C 0.63223 0.5107 0.95242 0.0
C466 C 0.62214 0.48107 0.86755 0.0
C467 C 0.60464 0.47797 0.84322 0.0
C468 C 0.60026 0.48775 0.79409 0.0
C469 C 0.61411 0.50009 0.76853 0.0
C470 C 0.63156 0.50321 0.79299 0.0
H471 H 0.63361 0.52044 0.98509 0.0
H472 H 0.62181 0.51622 0.92264 0.0
H473 H 0.62603 0.49785 0.97224 0.0
H474 H 0.62509 0.47362 0.90589 0.0
H475 H 0.59436 0.46818 0.86336 0.0
H476 H 0.89756 0.71297 0.83055 0.0
H477 H 0.91535 0.68515 0.81383 0.0
H478 H 0.95902 0.70095 0.92252 0.0
H479 H 0.94085 0.72841 0.94124 0.0
H480 H 0.95032 0.67921 0.76967 0.0
H481 H 0.94639 0.65093 0.9865 0.0
H482 H 0.93264 0.67044 0.96447 0.0
H483 H 0.95786 0.67286 0.97872 0.0
C484 C 0.91092 0.71048 0.85103 0.0
C485 C 0.91771 0.72277 0.88764 0.0
C486 C 0.92108 0.69459 0.8414 0.0
C487 C 0.93832 0.69076 0.86779 0.0
C488 C 0.94545 0.70331 0.90302 0.0
H489 H 0.01858 0.60695 0.75902 0.0
H490 H 0.00316 0.63596 0.77701 0.0
C491 C 0.93512 0.71907 0.91339 0.0
C492 C 0.94886 0.6737 0.85789 0.0
H493 H 0.96713 0.63587 0.92301 0.0
C494 C 0.95394 0.6697 0.80319 0.0
C495 C 0.95335 0.66117 0.9016 0.0
C496 C 0.9471 0.66395 0.96104 0.0
C497 C 0.96338 0.65354 0.79095 0.0
C498 C 0.9685 0.64132 0.83477 0.0
C499 C 0.96341 0.64533 0.88946 0.0
C500 C 0.97834 0.62392 0.82495 0.0
C501 C 0.96717 0.64951 0.73113 0.0
C502 C 0.96997 0.60756 0.84777 0.0
C503 C 0.97897 0.59107 0.83861 0.0
C504 C 0.99646 0.5906 0.80608 0.0
C505 C 0.00498 0.60696 0.78372 0.0
C506 C 0.99612 0.6235 0.79367 0.0
H507 H 0.95744 0.65736 0.70389 0.0
H508 H 0.98238 0.65339 0.71774 0.0
H509 H 0.96511 0.63486 0.7251 0.0
H510 H 0.95629 0.60752 0.87213 0.0
H511 H 0.97203 0.57864 0.85593 0.0
H512 H 0.1309 0.17686 0.5248 0.0
H513 H 0.10973 0.15043 0.54853 0.0
H514 H 0.08783 0.1548 0.38559 0.0
H515 H 0.1085 0.1816 0.3622 0.0
H516 H 0.06731 0.14904 0.54221 0.0
H517 H 0.10646 0.10105 0.40777 0.0
H518 H 0.11769 0.12175 0.42684 0.0
H519 H 0.09954 0.12257 0.37666 0.0
C520 C 0.12162 0.17215 0.49398 0.0
C521 C 0.12183 0.18092 0.44103 0.0
C522 C 0.10956 0.15708 0.50756 0.0
C523 C 0.09749 0.15053 0.46847 0.0
C524 C 0.09738 0.15943 0.41586 0.0
H525 H 0.03016 0.04865 0.51598 0.0
H526 H 0.0427 0.07776 0.47396 0.0
C527 C 0.10939 0.17458 0.40234 0.0
C528 C 0.08482 0.13455 0.48367 0.0
H529 H 0.07994 0.08944 0.46443 0.0
C530 C 0.06993 0.13603 0.52491 0.0
C531 C 0.08809 0.11772 0.46027 0.0
C532 C 0.10386 0.11551 0.4156 0.0
C533 C 0.05857 0.12093 0.54471 0.0
C534 C 0.06263 0.10382 0.52379 0.0
C535 C 0.07692 0.10254 0.48064 0.0
C536 C 0.05358 0.08687 0.54952 0.0
C537 C 0.04242 0.12348 0.58807 0.0
C538 C 0.05561 0.08232 0.60578 0.0
C539 C 0.0484 0.06584 0.62984 0.0
C540 C 0.03926 0.05338 0.59798 0.0
C541 C 0.0371 0.05798 0.54165 0.0
C542 C 0.04425 0.07458 0.51759 0.0
H543 H 0.03668 0.13748 0.58471 0.0
H544 H 0.03024 0.11376 0.58468 0.0
H545 H 0.04818 0.12128 0.62965 0.0
H546 H 0.06325 0.09133 0.6309 0.0
H547 H 0.05045 0.06271 0.67325 0.0
H548 H 0.3399 0.91167 0.44812 0.0
H549 H 0.36907 0.92207 0.49051 0.0
H550 H 0.35187 0.9776 0.46033 0.0
H551 H 0.32244 0.9673 0.41924 0.0
H552 H 0.39261 0.96963 0.43048 0.0
H553 H 0.36813 0.94464 0.64377 0.0
H554 H 0.36701 0.92824 0.59232 0.0
H555 H 0.35162 0.94774 0.58894 0.0
C556 C 0.34237 0.9261 0.45043 0.0
C557 C 0.32912 0.9387 0.42925 0.0
C558 C 0.35899 0.932 0.47466 0.0
C559 C 0.36253 0.95058 0.47861 0.0
C560 C 0.34942 0.9632 0.45723 0.0
H561 H 0.45596 0.01134 0.61381 0.0
H562 H 0.42755 0.00256 0.56511 0.0
C563 C 0.33275 0.9573 0.43313 0.0
C564 C 0.37978 0.9568 0.50594 0.0
H565 H 0.40051 0.9556 0.6302 0.0
C566 C 0.39436 0.96666 0.47418 0.0
C567 C 0.38189 0.9529 0.56291 0.0
C568 C 0.36629 0.94293 0.59925 0.0
C569 C 0.41136 0.97232 0.49773 0.0
C570 C 0.41355 0.96829 0.55472 0.0
C571 C 0.39882 0.9586 0.58649 0.0
C572 C 0.43109 0.97373 0.58236 0.0
C573 C 0.42703 0.98208 0.46115 0.0
C574 C 0.44226 0.96046 0.60909 0.0
C575 C 0.45833 0.96542 0.63743 0.0
C576 C 0.46353 0.98379 0.63968 0.0
C577 C 0.45238 0.99707 0.61261 0.0
C578 C 0.43623 0.99208 0.58444 0.0
H579 H 0.42536 0.97994 0.41679 0.0
H580 H 0.42612 0.99685 0.46668 0.0
H581 H 0.4417 0.97751 0.4722 0.0
H582 H 0.43848 0.94622 0.60816 0.0
H583 H 0.46662 0.95485 0.65777 0.0
H584 H 0.46949 0.32702 0.3714 0.0
H585 H 0.47566 0.3525 0.42742 0.0
H586 H 0.5373 0.34291 0.40988 0.0
H587 H 0.53131 0.31752 0.35259 0.0
H588 H 0.49396 0.35525 0.52491 0.0
H589 H 0.53315 0.39564 0.35151 0.0
H590 H 0.5194 0.37538 0.34107 0.0
H591 H 0.54304 0.37372 0.36845 0.0
C592 C 0.48437 0.33019 0.37975 0.0
C593 C 0.49993 0.32034 0.35699 0.0
C594 C 0.48787 0.34477 0.41183 0.0
C595 C 0.50695 0.3498 0.42186 0.0
C596 C 0.52249 0.33948 0.40154 0.0
H597 H 0.54008 0.44415 0.60164 0.0
H598 H 0.54194 0.4157 0.55453 0.0
C599 C 0.51902 0.32491 0.36915 0.0
C600 C 0.51036 0.36621 0.45217 0.0
H601 H 0.52903 0.40932 0.4364 0.0
C602 C 0.50179 0.36701 0.50576 0.0
C603 C 0.52056 0.38154 0.42696 0.0
C604 C 0.52945 0.38169 0.36869 0.0
C605 C 0.50276 0.38287 0.53435 0.0
C606 C 0.51245 0.39831 0.50852 0.0
C607 C 0.52165 0.39737 0.45586 0.0
C608 C 0.51182 0.41591 0.53408 0.0
C609 C 0.4931 0.3832 0.59159 0.0
C610 C 0.4944 0.42554 0.53667 0.0
C611 C 0.4933 0.44178 0.563 0.0
C612 C 0.50961 0.44864 0.58745 0.0
C613 C 0.52725 0.4392 0.58331 0.0
C614 C 0.52835 0.42297 0.55654 0.0
H615 H 0.48966 0.36933 0.60994 0.0
H616 H 0.50255 0.39022 0.61931 0.0
H617 H 0.47932 0.39081 0.58948 0.0
H618 H 0.48156 0.42033 0.51897 0.0
H619 H 0.4795 0.44871 0.56535 0.0
H620 H 0.1763 0.60553 0.34518 0.0
H621 H 0.14954 0.58909 0.39802 0.0
H622 H 0.18559 0.54193 0.4159 0.0
H623 H 0.21245 0.55834 0.36409 0.0
H624 H 0.13203 0.55126 0.37893 0.0
H625 H 0.1676 0.55841 0.57696 0.0
H626 H 0.17348 0.57322 0.51632 0.0
H627 H 0.18217 0.5504 0.5197 0.0
C628 C 0.1784 0.59159 0.35984 0.0
C629 C 0.1963 0.58308 0.34966 0.0
C630 C 0.16313 0.58222 0.38974 0.0
C631 C 0.16565 0.56433 0.41055 0.0
C632 C 0.18339 0.55571 0.39977 0.0
H633 H 0.08064 0.49205 0.59726 0.0
H634 H 0.10676 0.50377 0.53131 0.0
C635 C 0.19862 0.56503 0.36965 0.0
C636 C 0.15016 0.55511 0.44659 0.0
H637 H 0.13756 0.54286 0.58166 0.0
C638 C 0.13323 0.54928 0.42319 0.0
C639 C 0.15187 0.55269 0.50424 0.0
C640 C 0.16968 0.55906 0.5312 0.0
C641 C 0.11782 0.54111 0.45635 0.0
C642 C 0.11948 0.53885 0.51402 0.0
C643 C 0.13647 0.54456 0.53729 0.0
C644 C 0.10324 0.53169 0.55155 0.0
C645 C 0.09964 0.53538 0.43005 0.0
C646 C 0.09277 0.54356 0.58451 0.0
C647 C 0.07788 0.53699 0.62188 0.0
C648 C 0.07333 0.51835 0.62738 0.0
C649 C 0.08382 0.50647 0.59402 0.0
C650 C 0.09867 0.51312 0.55626 0.0
H651 H 0.10001 0.53944 0.38522 0.0
H652 H 0.09791 0.52042 0.43544 0.0
H653 H 0.08669 0.54145 0.45081 0.0
H654 H 0.09619 0.55794 0.58145 0.0
H655 H 0.07012 0.54652 0.64693 0.0
H656 H 0.91083 0.83889 0.97573 0.0
H657 H 0.93073 0.86586 0.94954 0.0
H658 H 0.95127 0.84177 0.79991 0.0
H659 H 0.93242 0.81416 0.8282 0.0
H660 H 0.98074 0.8572 0.84957 0.0
H661 H 0.91966 0.90542 0.83591 0.0
H662 H 0.92029 0.89356 0.90239 0.0
H663 H 0.91587 0.88119 0.84267 0.0
C664 C 0.92001 0.83913 0.9381 0.0
C665 C 0.92061 0.82419 0.90498 0.0
C666 C 0.93103 0.85474 0.92245 0.0
C667 C 0.94237 0.85592 0.87248 0.0
C668 C 0.94265 0.84114 0.83871 0.0
H669 H 0.00704 0.93809 0.67628 0.0
H670 H 0.99132 0.91017 0.71629 0.0
C671 C 0.9318 0.82544 0.85471 0.0
C672 C 0.95421 0.8724 0.85574 0.0
H673 H 0.9515 0.91818 0.82827 0.0
C674 C 0.97433 0.87052 0.84487 0.0
C675 C 0.94583 0.8898 0.84963 0.0
C676 C 0.92421 0.89264 0.85773 0.0
C677 C 0.98626 0.88556 0.82798 0.0
C678 C 0.97786 0.90286 0.822 0.0
C679 C 0.95785 0.90485 0.83358 0.0
C680 C 0.9893 0.91891 0.79972 0.0
C681 C 0.00775 0.88293 0.81636 0.0
C682 C 0.99356 0.93292 0.83374 0.0
C683 C 0.00274 0.94886 0.81111 0.0
C684 C 0.00743 0.95109 0.75399 0.0
C685 C 0.00358 0.93678 0.72042 0.0
C686 C 0.99465 0.92082 0.74316 0.0
H687 H 0.01252 0.8693 0.83164 0.0
H688 H 0.01118 0.88447 0.77111 0.0
H689 H 0.01621 0.89342 0.83582 0.0
H690 H 0.98939 0.93167 0.87749 0.0
H691 H 0.0054 0.9597 0.83789 0.0
H692 H 0.70241 0.96833 0.90103 0.0
H693 H 0.67251 0.98262 0.87234 0.0
H694 H 0.67676 0.02119 0.99765 0.0
H695 H 0.70677 0.00681 0.0267 0.0
H696 H 0.64099 0.007 -0.00037 0.0
H697 H 0.66314 0.02917 0.78449 0.0
H698 H 0.66831 0.0056 0.79675 0.0
H699 H 0.68056 0.02222 0.83414 0.0
C700 C 0.69706 0.97996 0.92214 0.0
C701 C 0.70668 0.98625 0.96677 0.0
C702 C 0.68007 0.98822 0.90541 0.0
C703 C 0.67257 0.00319 0.93219 0.0
C704 C 0.68232 0.00969 0.97631 0.0
H705 H 0.56575 0.03973 0.77915 0.0
H706 H 0.59692 0.04365 0.82161 0.0
C707 C 0.6993 0.00133 0.99331 0.0
C708 C 0.65374 0.01096 0.91657 0.0
H709 H 0.62844 0.02306 0.80377 0.0
C710 C 0.63835 0.01095 0.957 0.0
C711 C 0.65033 0.01664 0.86133 0.0
C712 C 0.66656 0.01861 0.81692 0.0
C713 C 0.61932 0.01481 0.9427 0.0
C714 C 0.61558 0.01833 0.88644 0.0
C715 C 0.63123 0.02004 0.84683 0.0
C716 C 0.59563 0.01748 0.86687 0.0
C717 C 0.60332 0.0144 0.98782 0.0
C718 C 0.58457 0.00156 0.87849 0.0
C719 C 0.56693 0.99929 0.85447 0.0
C720 C 0.55998 0.01283 0.81772 0.0
C721 C 0.5707 0.02908 0.80744 0.0
C722 C 0.58849 0.03134 0.83159 0.0
H723 H 0.60889 0.01878 0.02699 0.0
H724 H 0.59108 0.02327 0.97629 0.0
H725 H 0.59773 0.0003 0.99574 0.0
H726 H 0.58999 0.99047 0.90429 0.0
H727 H 0.55905 0.98661 0.86336 0.0
H728 H 0.48821 0.66573 0.04066 0.0
H729 H 0.47806 0.64012 0.98941 0.0
H730 H 0.53465 0.63968 0.90406 0.0
H731 H 0.5449 0.66537 0.95453 0.0
H732 H 0.50285 0.63317 0.83643 0.0
H733 H 0.50008 0.58946 0.03168 0.0
H734 H 0.48547 0.60951 0.03217 0.0
H735 H 0.5115 0.61161 0.02573 0.0
C736 C 0.4984 0.66041 0.01027 0.0
C737 C 0.51746 0.66746 0.00221 0.0
C738 C 0.49259 0.64572 0.98125 0.0
C739 C 0.50574 0.63782 0.94383 0.0
C740 C 0.52433 0.64555 0.93304 0.0
H741 H 0.52215 0.53273 0.82927 0.0
H742 H 0.52161 0.56121 0.87517 0.0
C743 C 0.53016 0.66023 0.96198 0.0
C744 C 0.50079 0.62071 0.91895 0.0
H745 H 0.49324 0.57546 0.95059 0.0
C746 C 0.5005 0.62057 0.8613 0.0
C747 C 0.49798 0.6043 0.95169 0.0
C748 C 0.4989 0.60357 0.01372 0.0
C749 C 0.49783 0.60433 0.83534 0.0
C750 C 0.4952 0.58791 0.86809 0.0
C751 C 0.49509 0.58812 0.92577 0.0
C752 C 0.49442 0.57017 0.8431 0.0
C753 C 0.49869 0.60473 0.77308 0.0
C754 C 0.47902 0.56558 0.81107 0.0
C755 C 0.47924 0.54924 0.78479 0.0
C756 C 0.4949 0.53728 0.79017 0.0
C757 C 0.50991 0.54166 0.82406 0.0
C758 C 0.50963 0.55793 0.85036 0.0
H759 H 0.50405 0.618 0.75388 0.0
H760 H 0.50832 0.5939 0.7579 0.0
H761 H 0.48392 0.60222 0.75906 0.0
H762 H 0.467 0.57476 0.80571 0.0
H763 H 0.46745 0.54624 0.75904 0.0
H764 H 0.84958 0.53475 0.98372 0.0
H765 H 0.87856 0.51883 0.95123 0.0
H766 H 0.86382 0.47368 0.06737 0.0
H767 H 0.83449 0.48944 0.09939 0.0
H768 H 0.90268 0.48512 0.06829 0.0
H769 H 0.88248 0.47519 0.8554 0.0
H770 H 0.87938 0.49829 0.87256 0.0
H771 H 0.86486 0.48067 0.90969 0.0
C772 C 0.85244 0.52139 0.00216 0.0
C773 C 0.84001 0.51352 0.04498 0.0
C774 C 0.86893 0.51226 0.98335 0.0
C775 C 0.87319 0.49498 0.00645 0.0
C776 C 0.86077 0.48701 0.04905 0.0
H777 H 0.97738 0.45616 0.82759 0.0
H778 H 0.94621 0.45179 0.88155 0.0
C779 C 0.84419 0.49614 0.06785 0.0
C780 C 0.89121 0.48589 0.98752 0.0
H781 H 0.91706 0.47599 0.86954 0.0
C782 C 0.9057 0.48268 0.02508 0.0
C783 C 0.89497 0.48222 0.9315 0.0
C784 C 0.8795 0.48408 0.89011 0.0
C785 C 0.92447 0.4776 0.00696 0.0
C786 C 0.92883 0.47598 0.94988 0.0
C787 C 0.91381 0.47743 0.91327 0.0
C788 C 0.94911 0.4761 0.92602 0.0
C789 C 0.93968 0.47481 0.0488 0.0
C790 C 0.96118 0.49097 0.93397 0.0
C791 C 0.97876 0.49352 0.9032 0.0
C792 C 0.98465 0.48128 0.86367 0.0
C793 C 0.97322 0.46574 0.85807 0.0
C794 C 0.95543 0.46325 0.88873 0.0
H795 H 0.93299 0.46948 0.08931 0.0
H796 H 0.95108 0.4653 0.03481 0.0
H797 H 0.94667 0.48804 0.0552 0.0
H798 H 0.95644 0.50129 0.9614 0.0
H799 H 0.98729 0.50561 0.90847 0.0
H800 H 0.11957 0.15119 0.16505 0.0
H801 H 0.10779 0.12899 0.10398 0.0
H802 H 0.11073 0.08687 0.23395 0.0
H803 H 0.12244 0.10903 0.2957 0.0
H804 H 0.12643 0.09668 0.07164 0.0
H805 H 0.05456 0.08271 0.18351 0.0
H806 H 0.06925 0.10233 0.19501 0.0
H807 H 0.07559 0.08037 0.22379 0.0
C808 C 0.11771 0.13721 0.18078 0.0
C809 C 0.12187 0.1319 0.23536 0.0
C810 C 0.11099 0.12455 0.14579 0.0
C811 C 0.10819 0.10635 0.16468 0.0
C812 C 0.1125 0.10092 0.2189 0.0
H813 H 0.05994 0.01909 0.98086 0.0
H814 H 0.07505 0.03526 0.05307 0.0
C815 C 0.11927 0.11359 0.25401 0.0
C816 C 0.10096 0.09317 0.12696 0.0
H817 H 0.06158 0.06699 0.10339 0.0
C818 C 0.11231 0.09008 0.07873 0.0
C819 C 0.0826 0.0845 0.13663 0.0
C820 C 0.06967 0.08767 0.1873 0.0
C821 C 0.10563 0.07883 0.03924 0.0
C822 C 0.08695 0.07072 0.04781 0.0
C823 C 0.07588 0.07326 0.09699 0.0
C824 C 0.07811 0.06073 0.00438 0.0
C825 C 0.11857 0.0758 0.98847 0.0
C826 C 0.07464 0.06977 0.95355 0.0
C827 C 0.06611 0.06062 0.91244 0.0
C828 C 0.06071 0.04224 0.9214 0.0
C829 C 0.0641 0.0332 0.97255 0.0
C830 C 0.07263 0.04242 0.01386 0.0
H831 H 0.13412 0.07828 0.99573 0.0
H832 H 0.11688 0.06178 0.97523 0.0
H833 H 0.11452 0.08539 0.9542 0.0
H834 H 0.07846 0.08398 0.94575 0.0
H835 H 0.06393 0.06793 0.87331 0.0
H836 H 0.39234 0.98607 0.2683 0.0
H837 H 0.41367 0.99736 0.19001 0.0
H838 H 0.36405 0.0177 0.10617 0.0
H839 H 0.34251 0.00605 0.18394 0.0
H840 H 0.38517 0.99594 0.04414 0.0
H841 H 0.43471 0.04558 0.12572 0.0
H842 H 0.43386 0.02472 0.16752 0.0
H843 H 0.41225 0.03814 0.1625 0.0
C844 C 0.38597 0.99329 0.23377 0.0
C845 C 0.3657 0.99499 0.23211 0.0
C846 C 0.39823 0.99991 0.18917 0.0
C847 C 0.3905 0.00857 0.14241 0.0
C848 C 0.37034 0.01113 0.14193 0.0
H849 H 0.46791 0.03747 0.84621 0.0
H850 H 0.44368 0.04084 0.92307 0.0
C851 C 0.35805 0.00443 0.1864 0.0
C852 C 0.40309 0.01249 0.09145 0.0
H853 H 0.44687 0.03105 0.04357 0.0
C854 C 0.39844 0.00396 0.04375 0.0
C855 C 0.42032 0.02309 0.0906 0.0
C856 C 0.42546 0.03355 0.13922 0.0
C857 C 0.41113 0.00478 0.99652 0.0
C858 C 0.42905 0.01415 0.99729 0.0
C859 C 0.4332 0.02367 0.04349 0.0
C860 C 0.44427 0.01265 0.9525 0.0
C861 C 0.40555 0.99511 0.94669 0.0
C862 C 0.45282 0.9958 0.94462 0.0
C863 C 0.46659 0.99382 0.90119 0.0
C864 C 0.47212 0.0087 0.86469 0.0
C865 C 0.46388 0.02573 0.87347 0.0
C866 C 0.45009 0.0277 0.9173 0.0
H867 H 0.38958 0.99289 0.94684 0.0
H868 H 0.4105 0.0029 0.90782 0.0
H869 H 0.41261 0.98166 0.94708 0.0
H870 H 0.44868 0.98409 0.9719 0.0
H871 H 0.47271 0.98054 0.89593 0.0
H872 H 0.47802 0.31985 0.05772 0.0
H873 H 0.4792 0.34577 0.98994 0.0
H874 H 0.42832 0.36786 0.0717 0.0
H875 H 0.42712 0.34214 0.14004 0.0
H876 H 0.45199 0.36171 0.91678 0.0
H877 H 0.47109 0.40696 0.08088 0.0
H878 H 0.47179 0.38257 0.09032 0.0
H879 H 0.44893 0.39406 0.09451 0.0
C880 C 0.46688 0.33006 0.0608 0.0
C881 C 0.45264 0.32906 0.10477 0.0
C882 C 0.46758 0.34486 0.02201 0.0
C883 C 0.45407 0.35887 0.02654 0.0
C884 C 0.43909 0.35733 0.06816 0.0
H885 H 0.45087 0.45246 0.78536 0.0
H886 H 0.44087 0.42639 0.84816 0.0
C887 C 0.4384 0.34257 0.10703 0.0
C888 C 0.45657 0.37566 0.99024 0.0
H889 H 0.46833 0.4206 0.99164 0.0
C890 C 0.4554 0.37464 0.93305 0.0
C891 C 0.46125 0.39243 0.01173 0.0
C892 C 0.46352 0.39415 0.07264 0.0
C893 C 0.45896 0.38996 0.89662 0.0
C894 C 0.46361 0.40671 0.91819 0.0
C895 C 0.46457 0.40776 0.9754 0.0
C896 C 0.46909 0.42298 0.88188 0.0
C897 C 0.45843 0.38798 0.83528 0.0
C898 C 0.48806 0.43001 0.88141 0.0
C899 C 0.49379 0.44489 0.84595 0.0
C900 C 0.48059 0.45312 0.81039 0.0
C901 C 0.46138 0.44641 0.81217 0.0
C902 C 0.45568 0.43144 0.84768 0.0
H903 H 0.45814 0.37354 0.82499 0.0
H904 H 0.44518 0.39456 0.82001 0.0
H905 H 0.47126 0.39479 0.81293 0.0
H906 H 0.4986 0.42372 0.90774 0.0
H907 H 0.50867 0.44974 0.8458 0.0
H908 H 0.19979 0.5469 0.06038 0.0
H909 H 0.17516 0.53275 0.00858 0.0
H910 H 0.15878 0.49678 0.15039 0.0
H911 H 0.18315 0.51126 0.20334 0.0
H912 H 0.1673 0.49822 0.97992 0.0
H913 H 0.10836 0.52295 0.12186 0.0
H914 H 0.13329 0.53032 0.12407 0.0
H915 H 0.12578 0.50828 0.15333 0.0
C916 C 0.19112 0.53585 0.08052 0.0
C917 C 0.19321 0.53041 0.13629 0.0
C918 C 0.17707 0.52773 0.05074 0.0
C919 C 0.16488 0.51397 0.07598 0.0
C920 C 0.16775 0.50767 0.13055 0.0
H921 H 0.07835 0.46933 0.86359 0.0
H922 H 0.10415 0.47001 0.92888 0.0
C923 C 0.18174 0.5159 0.16062 0.0
C924 C 0.14838 0.50736 0.04588 0.0
H925 H 0.09891 0.50857 0.04428 0.0
C926 C 0.15232 0.50021 0.99423 0.0
C927 C 0.12887 0.51015 0.06463 0.0
C928 C 0.12372 0.51847 0.11876 0.0
C929 C 0.13731 0.49652 0.95968 0.0
C930 C 0.11784 0.49974 0.97793 0.0
C931 C 0.11386 0.50608 0.03062 0.0
C932 C 0.10163 0.4987 0.94075 0.0
C933 C 0.1425 0.49024 0.90278 0.0
C934 C 0.09127 0.51446 0.92722 0.0
C935 C 0.07645 0.5141 0.8906 0.0
C936 C 0.07169 0.49793 0.86659 0.0
C937 C 0.08178 0.48203 0.88109 0.0
C938 C 0.09659 0.4824 0.91813 0.0
H939 H 0.1583 0.49173 0.8914 0.0
H940 H 0.13847 0.47571 0.90161 0.0
H941 H 0.13436 0.49801 0.87121 0.0
H942 H 0.09492 0.52719 0.9443 0.0
H943 H 0.06896 0.52658 0.88044 0.0
H944 H 0.90135 0.87738 0.14535 0.0
H945 H 0.91341 0.90104 0.20131 0.0
H946 H 0.97079 0.87824 0.18938 0.0
H947 H 0.95892 0.85452 0.1334 0.0
H948 H 0.93195 0.89458 0.30431 0.0
H949 H 0.97925 0.93324 0.14485 0.0
H950 H 0.96018 0.91801 0.12767 0.0
H951 H 0.98288 0.90914 0.14942 0.0
C952 C 0.91657 0.87745 0.15433 0.0
C953 C 0.92918 0.86406 0.13495 0.0
C954 C 0.92341 0.89098 0.18626 0.0
C955 C 0.94301 0.89149 0.19875 0.0
C956 C 0.95567 0.87823 0.17932 0.0
H957 H 0.01631 0.95027 0.4 0.0
H958 H 0.0021 0.93204 0.33167 0.0
C959 C 0.94883 0.86463 0.14768 0.0
C960 C 0.95004 0.9053 0.23464 0.0
H961 H 0.98227 0.94047 0.23806 0.0
C962 C 0.9428 0.90476 0.28982 0.0
C963 C 0.96423 0.91846 0.21541 0.0
C964 C 0.97202 0.91993 0.15598 0.0
C965 C 0.94988 0.91665 0.32702 0.0
C966 C 0.96423 0.92973 0.30798 0.0
C967 C 0.97122 0.93047 0.25245 0.0
C968 C 0.97293 0.94205 0.3459 0.0
C969 C 0.9425 0.91458 0.38682 0.0
C970 C 0.96135 0.95415 0.3753 0.0
C971 C 0.96938 0.96442 0.41496 0.0
C972 C 0.98918 0.96289 0.42552 0.0
C973 C 0.00093 0.95149 0.39372 0.0
C974 C 0.99287 0.94116 0.35434 0.0
H975 H 0.93519 0.90125 0.39708 0.0
H976 H 0.95456 0.91601 0.41471 0.0
H977 H 0.93176 0.92533 0.39515 0.0
H978 H 0.946 0.95532 0.36853 0.0
H979 H 0.9599 0.97301 0.43882 0.0
H980 H 0.66111 0.00341 0.22896 0.0
H981 H 0.63619 0.00537 0.30419 0.0
H982 H 0.64225 0.94833 0.34766 0.0
H983 H 0.66729 0.94624 0.27288 0.0
H984 H 0.60046 0.98535 0.31992 0.0
H985 H 0.64837 0.97273 0.49444 0.0
H986 H 0.65779 0.97912 0.42503 0.0
H987 H 0.64969 0.95625 0.44296 0.0
C988 C 0.65721 0.99129 0.25465 0.0
C989 C 0.66624 0.97468 0.2451 0.0
C990 C 0.64296 0.99244 0.29751 0.0
C991 C 0.63759 0.97705 0.33177 0.0
C992 C 0.64645 0.96043 0.3222 0.0
H993 H 0.55538 0.96098 0.61682 0.0
H994 H 0.57908 0.95654 0.53993 0.0
C995 C 0.66069 0.95925 0.27929 0.0
C996 C 0.62241 0.97835 0.37685 0.0
H997 H 0.61464 0.97458 0.51708 0.0
C998 C 0.60353 0.98302 0.36306 0.0
C999 C 0.62651 0.9752 0.43295 0.0
C1000 C 0.64671 0.97069 0.45002 0.0
C1001 C 0.58854 0.98454 0.40402 0.0
C1002 C 0.59269 0.98164 0.46018 0.0
C1003 C 0.61153 0.97677 0.47393 0.0
C1004 C 0.57785 0.98416 0.50544 0.0
C1005 C 0.56835 0.98901 0.38678 0.0
C1006 C 0.56945 0.0012 0.51162 0.0
C1007 C 0.55592 0.00378 0.55532 0.0
C1008 C 0.55064 0.98939 0.59397 0.0
C1009 C 0.5591 0.97232 0.58769 0.0
C1010 C 0.57264 0.96976 0.54386 0.0
H1011 H 0.56641 0.98575 0.34336 0.0
H1012 H 0.55713 0.9815 0.41402 0.0
H1013 H 0.56587 0.00374 0.38986 0.0
H1014 H 0.57359 0.01259 0.48309 0.0
H1015 H 0.54976 0.01712 0.55911 0.0
H1016 H 0.54263 0.67122 0.32382 0.0
H1017 H 0.54497 0.64754 0.39818 0.0
H1018 H 0.54947 0.60701 0.27765 0.0
H1019 H 0.54785 0.63048 0.20359 0.0
H1020 H 0.5196 0.6216 0.4237 0.0
H1021 H 0.58988 0.58912 0.37752 0.0
H1022 H 0.58368 0.61078 0.34518 0.0
H1023 H 0.57586 0.58998 0.31761 0.0
C1024 C 0.54456 0.6573 0.3132 0.0
C1025 C 0.54501 0.65274 0.2578 0.0
C1026 C 0.54589 0.64378 0.35571 0.0
C1027 C 0.54769 0.62549 0.34358 0.0
C1028 C 0.54869 0.62103 0.28817 0.0
H1029 H 0.49702 0.53295 0.52265 0.0
H1030 H 0.50635 0.55945 0.46185 0.0
C1031 C 0.54756 0.6345 0.24576 0.0
C1032 C 0.54618 0.61085 0.38833 0.0
H1033 H 0.56541 0.57016 0.43003 0.0
C1034 C 0.52984 0.61054 0.42567 0.0
C1035 C 0.55966 0.59652 0.39177 0.0
C1036 C 0.57835 0.59673 0.35621 0.0
C1037 C 0.52603 0.59583 0.46406 0.0
C1038 C 0.53857 0.58076 0.46402 0.0
C1039 C 0.55555 0.58153 0.42913 0.0
C1040 C 0.5338 0.56386 0.49831 0.0
C1041 C 0.50847 0.59655 0.50396 0.0
C1042 C 0.54664 0.55691 0.53695 0.0
C1043 C 0.54148 0.54152 0.57128 0.0
C1044 C 0.52338 0.53288 0.56748 0.0
C1045 C 0.51097 0.53942 0.52707 0.0
C1046 C 0.51621 0.55466 0.49256 0.0
H1047 H 0.50438 0.61076 0.51113 0.0
H1048 H 0.49593 0.58991 0.48635 0.0
H1049 H 0.51112 0.58941 0.54435 0.0
H1050 H 0.56039 0.5637 0.54163 0.0
H1051 H 0.55136 0.53679 0.602 0.0
H1052 H 0.87021 0.53789 0.33604 0.0
H1053 H 0.8948 0.53361 0.40402 0.0
H1054 H 0.89894 0.47714 0.36991 0.0
H1055 H 0.87442 0.48129 0.30131 0.0
H1056 H 0.894 0.509 0.49948 0.0
H1057 H 0.95567 0.49638 0.3491 0.0
H1058 H 0.93319 0.50636 0.32832 0.0
H1059 H 0.93438 0.48241 0.34518 0.0
C1060 C 0.87632 0.52454 0.34292 0.0
C1061 C 0.87044 0.50995 0.31306 0.0
C1062 C 0.89036 0.52213 0.38183 0.0
C1063 C 0.89883 0.50513 0.39135 0.0
C1064 C 0.89278 0.49044 0.36239 0.0
H1065 H 0.99101 0.47173 0.6057 0.0
H1066 H 0.96534 0.4723 0.54005 0.0
C1067 C 0.87871 0.49282 0.32346 0.0
C1068 C 0.91396 0.50289 0.43186 0.0
H1069 H 0.9622 0.49436 0.44354 0.0
C1070 C 0.90891 0.50577 0.48737 0.0
C1071 C 0.93334 0.4986 0.41575 0.0
C1072 C 0.9396 0.49588 0.35631 0.0
C1073 C 0.92279 0.50449 0.52739 0.0
C1074 C 0.94228 0.5006 0.5111 0.0
C1075 C 0.94724 0.49738 0.45576 0.0
C1076 C 0.95783 0.50029 0.55063 0.0
C1077 C 0.91644 0.50715 0.5868 0.0
C1078 C 0.9623 0.51595 0.57746 0.0
C1079 C 0.97691 0.51568 0.61498 0.0
C1080 C 0.98741 0.49977 0.62602 0.0
C1081 C 0.98315 0.48419 0.59822 0.0
C1082 C 0.9685 0.48448 0.56073 0.0
H1083 H 0.90053 0.50492 0.59471 0.0
H1084 H 0.92419 0.49782 0.61537 0.0
H1085 H 0.91985 0.52128 0.5964 0.0
H1086 H 0.95452 0.52841 0.56923 0.0
H1087 H 0.97992 0.52794 0.6354 0.0
loop_
_geom_bond_atom_site_label_1
_geom_bond_atom_site_label_2
_geom_bond_distance
_geom_bond_site_symmetry_2
_ccdc_geom_bond_type
O0 Cd1 2.300 . S
O0 C7 1.275 . S
Cd1 O0 2.300 . S
Cd1 O9 2.381 . S
Cd1 O10 2.378 . S
O2 Cd3 2.385 . S
O2 C7 1.255 . S
Cd3 O2 2.385 . S
Cd3 O4 2.317 . S
O4 Cd3 2.317 . S
O4 C5 1.232 . S
C5 O4 1.232 . S
C5 O6 1.218 . S
O6 C5 1.218 . S
C7 O0 1.275 . S
C7 O2 1.255 . S
C8 O9 1.258 . S
C8 O10 1.256 . S
O9 Cd1 2.381 . S
O9 C8 1.258 . S
O10 Cd1 2.378 . S
O10 C8 1.256 . S
O11 Cd12 2.300 . S
O11 C18 1.275 . S
Cd12 O11 2.300 . S
Cd12 O20 2.381 . S
Cd12 O21 2.378 . S
O13 Cd14 2.385 1_656 S
O13 C18 1.255 . S
Cd14 O13 2.385 1_454 S
Cd14 O15 2.317 1_455 S
O15 Cd14 2.317 1_655 S
O15 C16 1.232 . S
C16 O15 1.232 . S
C16 O17 1.218 . S
O17 C16 1.218 . S
C18 O11 1.275 . S
C18 O13 1.255 . S
C19 O20 1.258 . S
C19 O21 1.256 . S
O20 Cd12 2.381 . S
O20 C19 1.258 . S
O21 Cd12 2.378 . S
O21 C19 1.256 . S
O22 Cd23 2.300 1_566 S
O22 C29 1.275 1_566 S
Cd23 O22 2.300 1_544 S
Cd23 O31 2.381 1_544 S
Cd23 O32 2.378 . S
O24 Cd25 2.385 . S
O24 C29 1.255 . S
Cd25 O24 2.385 . S
Cd25 O26 2.317 . S
O26 Cd25 2.317 . S
O26 C27 1.232 . S
C27 O26 1.232 . S
C27 O28 1.218 . S
O28 C27 1.218 . S
C29 O22 1.275 1_544 S
C29 O24 1.255 . S
C30 O31 1.258 1_544 S
C30 O32 1.256 . S
O31 Cd23 2.381 1_566 S
O31 C30 1.258 1_566 S
O32 Cd23 2.378 . S
O32 C30 1.256 . S
O33 Cd34 2.300 1_556 S
O33 C40 1.275 1_556 S
Cd34 O33 2.300 1_554 S
Cd34 O42 2.381 1_554 S
Cd34 O43 2.378 . S
O35 Cd36 2.385 . S
O35 C40 1.255 . S
Cd36 O35 2.385 . S
Cd36 O37 2.317 . S
O37 Cd36 2.317 . S
O37 C38 1.232 . S
C38 O37 1.232 . S
C38 O39 1.218 . S
O39 C38 1.218 . S
C40 O33 1.275 1_554 S
C40 O35 1.255 . S
C41 O42 1.258 1_554 S
C41 O43 1.256 . S
O42 Cd34 2.381 1_556 S
O42 C41 1.258 1_556 S
O43 Cd34 2.378 . S
O43 C41 1.256 . S
O44 Cd45 2.300 . S
O44 C51 1.275 . S
Cd45 O44 2.300 . S
Cd45 O53 2.381 . S
Cd45 O54 2.378 . S
O46 Cd47 2.385 . S
O46 C51 1.255 . S
Cd47 O46 2.385 . S
Cd47 O48 2.317 . S
O48 Cd47 2.317 . S
O48 C49 1.232 . S
C49 O48 1.232 . S
C49 O50 1.218 . S
O50 C49 1.218 . S
C51 O44 1.275 . S
C51 O46 1.255 . S
C52 O53 1.258 . S
C52 O54 1.256 . S
O53 Cd45 2.381 . S
O53 C52 1.258 . S
O54 Cd45 2.378 . S
O54 C52 1.256 . S
O55 Cd56 2.300 . S
O55 C62 1.275 . S
Cd56 O55 2.300 . S
Cd56 O64 2.381 . S
Cd56 O65 2.378 . S
O57 Cd58 2.385 . S
O57 C62 1.255 . S
Cd58 O57 2.385 . S
Cd58 O59 2.317 . S
O59 Cd58 2.317 . S
O59 C60 1.232 . S
C60 O59 1.232 . S
C60 O61 1.218 . S
O61 C60 1.218 . S
C62 O55 1.275 . S
C62 O57 1.255 . S
C63 O64 1.258 . S
C63 O65 1.256 . S
O64 Cd56 2.381 . S
O64 C63 1.258 . S
O65 Cd56 2.378 . S
O65 C63 1.256 . S
O66 Cd67 2.300 1_565 S
O66 C73 1.275 1_565 S
Cd67 O66 2.300 1_545 S
Cd67 O75 2.381 1_545 S
Cd67 O76 2.378 . S
O68 Cd69 2.385 . S
O68 C73 1.255 . S
Cd69 O68 2.385 . S
Cd69 O70 2.317 . S
O70 Cd69 2.317 . S
O70 C71 1.232 . S
C71 O70 1.232 . S
C71 O72 1.218 . S
O72 C71 1.218 . S
C73 O66 1.275 1_545 S
C73 O68 1.255 . S
C74 O75 1.258 1_545 S
C74 O76 1.256 . S
O75 Cd67 2.381 1_565 S
O75 C74 1.258 1_565 S
O76 Cd67 2.378 . S
O76 C74 1.256 . S
O77 Cd78 2.300 . S
O77 C84 1.275 . S
Cd78 O77 2.300 . S
Cd78 O86 2.381 . S
Cd78 O87 2.378 . S
O79 Cd80 2.385 . S
O79 C84 1.255 . S
Cd80 O79 2.385 . S
Cd80 O81 2.317 . S
O81 Cd80 2.317 . S
O81 C82 1.232 . S
C82 O81 1.232 . S
C82 O83 1.218 . S
O83 C82 1.218 . S
C84 O77 1.275 . S
C84 O79 1.255 . S
C85 O86 1.258 . S
C85 O87 1.256 . S
O86 Cd78 2.381 . S
O86 C85 1.258 . S
O87 Cd78 2.378 . S
O87 C85 1.256 . S
C88 O104 1.251 . S
C88 O106 1.254 . S
N89 C90 1.333 . S
N89 C94 1.307 1_455 S
N89 Zn95 2.020 . S
C90 N89 1.333 . S
C90 C91 1.379 . S
C90 H108 0.952 . S
C91 C90 1.379 . S
C91 C92 1.390 1_455 S
C91 H118 0.949 . S
C92 C91 1.390 1_655 S
C92 C93 1.357 . S
C93 C92 1.357 . S
C93 C94 1.370 . S
C93 H119 0.950 . S
C94 N89 1.307 1_655 S
C94 C93 1.370 . S
C94 H112 0.948 . S
Zn95 N89 2.020 . S
Zn95 O104 2.039 . S
Zn95 O110 2.034 . S
Zn95 O114 2.025 1_565 S
Zn95 O116 2.024 1_455 S
C96 O115 1.246 . S
C96 O116 1.249 1_545 S
N97 C98 1.307 . S
N97 C99 1.333 . S
N97 Zn103 2.020 . S
C98 N97 1.307 . S
C98 C102 1.370 . S
C98 H109 0.948 . S
C99 N97 1.333 . S
C99 C100 1.379 . S
C99 H107 0.952 . S
C100 C99 1.379 . S
C100 C101 1.390 . S
C100 H120 0.949 . S
C101 C100 1.390 . S
C101 C102 1.357 . S
C102 C98 1.370 . S
C102 C101 1.357 . S
C102 H121 0.950 . S
Zn103 N97 2.020 . S
Zn103 O106 2.025 1_545 S
Zn103 O111 2.024 . S
Zn103 O113 2.039 . S
Zn103 O115 2.034 1_455 S
O104 C88 1.251 . S
O104 Zn95 2.039 . S
C105 O110 1.246 . S
C105 O111 1.249 1_565 S
O106 C88 1.254 . S
O106 Zn103 2.025 1_565 S
H107 C99 0.952 . S
H108 C90 0.952 . S
H109 C98 0.948 . S
O110 Zn95 2.034 . S
O110 C105 1.246 . S
O111 Zn103 2.024 . S
O111 C105 1.249 1_545 S
H112 C94 0.948 . S
O113 Zn103 2.039 . S
O113 C117 1.251 . S
O114 Zn95 2.025 1_545 S
O114 C117 1.254 . S
O115 C96 1.246 . S
O115 Zn103 2.034 1_655 S
O116 Zn95 2.024 1_655 S
O116 C96 1.249 1_565 S
C117 O113 1.251 . S
C117 O114 1.254 . S
H118 C91 0.949 . S
H119 C93 0.950 . S
H120 C100 0.949 . S
H121 C102 0.950 . S
C122 O138 1.251 1_565 S
C122 O140 1.254 . S
N123 C124 1.333 . S
N123 C128 1.307 . S
N123 Zn129 2.020 . S
C124 N123 1.333 . S
C124 C125 1.379 . S
C124 H142 0.952 . S
C125 C124 1.379 . S
C125 C126 1.390 . S
C125 H152 0.949 . S
C126 C125 1.390 . S
C126 C127 1.357 . S
C127 C126 1.357 . S
C127 C128 1.370 . S
C127 H153 0.950 . S
C128 N123 1.307 . S
C128 C127 1.370 . S
C128 H146 0.948 . S
Zn129 N123 2.020 . S
Zn129 O138 2.039 . S
Zn129 O144 2.034 . S
Zn129 O148 2.025 . S
Zn129 O150 2.024 . S
C130 O149 1.246 1_545 S
C130 O150 1.249 . S
N131 C132 1.307 . S
N131 C133 1.333 . S
N131 Zn137 2.020 . S
C132 N131 1.307 . S
C132 C136 1.370 . S
C132 H143 0.948 . S
C133 N131 1.333 . S
C133 C134 1.379 . S
C133 H141 0.952 . S
C134 C133 1.379 . S
C134 C135 1.390 . S
C134 H154 0.949 . S
C135 C134 1.390 . S
C135 C136 1.357 . S
C136 C132 1.370 . S
C136 C135 1.357 . S
C136 H155 0.950 . S
Zn137 N131 2.020 . S
Zn137 O140 2.025 . S
Zn137 O145 2.024 . S
Zn137 O147 2.039 . S
Zn137 O149 2.034 . S
O138 C122 1.251 1_545 S
O138 Zn129 2.039 . S
C139 O144 1.246 1_565 S
C139 O145 1.249 . S
O140 C122 1.254 . S
O140 Zn137 2.025 . S
H141 C133 0.952 . S
H142 C124 0.952 . S
H143 C132 0.948 . S
O144 Zn129 2.034 . S
O144 C139 1.246 1_545 S
O145 Zn137 2.024 . S
O145 C139 1.249 . S
H146 C128 0.948 . S
O147 Zn137 2.039 . S
O147 C151 1.251 1_565 S
O148 Zn129 2.025 . S
O148 C151 1.254 . S
O149 C130 1.246 1_565 S
O149 Zn137 2.034 . S
O150 Zn129 2.024 . S
O150 C130 1.249 . S
C151 O147 1.251 1_545 S
C151 O148 1.254 . S
H152 C125 0.949 . S
H153 C127 0.950 . S
H154 C134 0.949 . S
H155 C136 0.950 . S
C156 O172 1.251 . S
C156 O174 1.254 . S
N157 C158 1.333 . S
N157 C162 1.307 . S
N157 Zn163 2.020 . S
C158 N157 1.333 . S
C158 C159 1.379 . S
C158 H176 0.952 . S
C159 C158 1.379 . S
C159 C160 1.390 . S
C159 H186 0.949 . S
C160 C159 1.390 . S
C160 C161 1.357 . S
C161 C160 1.357 . S
C161 C162 1.370 . S
C161 H187 0.950 . S
C162 N157 1.307 . S
C162 C161 1.370 . S
C162 H180 0.948 . S
Zn163 N157 2.020 . S
Zn163 O172 2.039 . S
Zn163 O178 2.034 . S
Zn163 O182 2.025 . S
Zn163 O184 2.024 . S
C164 O183 1.246 . S
C164 O184 1.249 . S
N165 C166 1.307 . S
N165 C167 1.333 . S
N165 Zn171 2.020 . S
C166 N165 1.307 . S
C166 C170 1.370 . S
C166 H177 0.948 . S
C167 N165 1.333 . S
C167 C168 1.379 . S
C167 H175 0.952 . S
C168 C167 1.379 . S
C168 C169 1.390 . S
C168 H188 0.949 . S
C169 C168 1.390 . S
C169 C170 1.357 . S
C170 C166 1.370 . S
C170 C169 1.357 . S
C170 H189 0.950 . S
Zn171 N165 2.020 . S
Zn171 O174 2.025 . S
Zn171 O179 2.024 . S
Zn171 O181 2.039 . S
Zn171 O183 2.034 . S
O172 C156 1.251 . S
O172 Zn163 2.039 . S
C173 O178 1.246 . S
C173 O179 1.249 . S
O174 C156 1.254 . S
O174 Zn171 2.025 . S
H175 C167 0.952 . S
H176 C158 0.952 . S
H177 C166 0.948 . S
O178 Zn163 2.034 . S
O178 C173 1.246 . S
O179 Zn171 2.024 . S
O179 C173 1.249 . S
H180 C162 0.948 . S
O181 Zn171 2.039 . S
O181 C185 1.251 . S
O182 Zn163 2.025 . S
O182 C185 1.254 . S
O183 C164 1.246 . S
O183 Zn171 2.034 . S
O184 Zn163 2.024 . S
O184 C164 1.249 . S
C185 O181 1.251 . S
C185 O182 1.254 . S
H186 C159 0.949 . S
H187 C161 0.950 . S
H188 C168 0.949 . S
H189 C170 0.950 . S
C190 O206 1.251 . S
C190 O208 1.254 . S
N191 C192 1.333 . S
N191 C196 1.307 . S
N191 Zn197 2.020 . S
C192 N191 1.333 . S
C192 C193 1.379 . S
C192 H210 0.952 . S
C193 C192 1.379 . S
C193 C194 1.390 . S
C193 H220 0.949 . S
C194 C193 1.390 . S
C194 C195 1.357 . S
C195 C194 1.357 . S
C195 C196 1.370 . S
C195 H221 0.950 . S
C196 N191 1.307 . S
C196 C195 1.370 . S
C196 H214 0.948 . S
Zn197 N191 2.020 . S
Zn197 O206 2.039 . S
Zn197 O212 2.034 . S
Zn197 O216 2.025 1_455 S
Zn197 O218 2.024 . S
C198 O217 1.246 . S
C198 O218 1.249 . S
N199 C200 1.307 . S
N199 C201 1.333 . S
N199 Zn205 2.020 . S
C200 N199 1.307 . S
C200 C204 1.370 . S
C200 H211 0.948 . S
C201 N199 1.333 . S
C201 C202 1.379 . S
C201 H209 0.972 . S
C202 C201 1.379 . S
C202 C203 1.390 . S
C202 H222 0.949 1_455 S
C203 C202 1.390 . S
C203 C204 1.357 . S
C204 C200 1.370 . S
C204 C203 1.357 . S
C204 H223 0.950 . S
Zn205 N199 2.020 . S
Zn205 O208 2.025 . S
Zn205 O213 1.992 1_455 S
Zn205 O215 2.039 1_455 S
Zn205 O217 2.034 . S
O206 C190 1.251 . S
O206 Zn197 2.039 . S
C207 O212 1.246 1_655 S
C207 O213 1.262 . S
O208 C190 1.254 . S
O208 Zn205 2.025 . S
H209 C201 0.972 . S
H210 C192 0.952 . S
H211 C200 0.948 . S
O212 Zn197 2.034 . S
O212 C207 1.246 1_455 S
O213 Zn205 1.992 1_655 S
O213 C207 1.262 . S
H214 C196 0.948 . S
O215 Zn205 2.039 1_655 S
O215 C219 1.251 . S
O216 Zn197 2.025 1_655 S
O216 C219 1.254 . S
O217 C198 1.246 . S
O217 Zn205 2.034 . S
O218 Zn197 2.024 . S
O218 C198 1.249 . S
C219 O215 1.251 . S
C219 O216 1.254 . S
H220 C193 0.949 . S
H221 C195 0.950 . S
H222 C202 0.949 1_655 S
H223 C204 0.950 . S
H224 C232 0.929 . S
H225 C234 0.930 . S
H226 C236 0.930 . S
H227 C239 0.929 . S
H228 C242 0.930 . S
H229 C244 0.960 . S
H230 C244 0.960 1_565 S
H231 C244 0.960 . S
C232 H224 0.929 . S
C232 C233 1.396 . S
C232 C234 1.384 . S
C233 C232 1.396 . S
C233 C239 1.372 1_565 S
C234 H225 0.930 . S
C234 C232 1.384 . S
C234 C235 1.372 . S
C235 C234 1.372 . S
C235 C236 1.400 1_565 S
C235 C240 1.490 . S
C236 H226 0.930 . S
C236 C235 1.400 1_545 S
C236 C239 1.386 . S
H237 C253 0.930 . S
H238 C254 0.931 . S
C239 H227 0.929 . S
C239 C233 1.372 1_545 S
C239 C236 1.386 . S
C240 C235 1.490 . S
C240 C242 1.395 . S
C240 C243 1.397 1_565 S
H241 C247 0.933 . S
C242 H228 0.930 . S
C242 C240 1.395 . S
C242 C245 1.403 . S
C243 C240 1.397 1_545 S
C243 C244 1.529 . S
C243 C247 1.401 . S
C244 H229 0.960 . S
C244 H230 0.960 1_545 S
C244 H231 0.960 . S
C244 C243 1.529 . S
C245 C242 1.403 . S
C245 C246 1.392 . S
C245 C249 1.495 . S
C246 C245 1.392 . S
C246 C247 1.383 1_565 S
C246 C248 1.478 . S
C247 H241 0.933 . S
C247 C243 1.401 . S
C247 C246 1.383 1_545 S
C248 C246 1.478 . S
C248 C250 1.381 . S
C248 C254 1.383 1_565 S
C249 C245 1.495 . S
C249 H255 0.959 . S
C249 H256 0.973 . S
C249 H257 0.960 . S
C250 C248 1.381 . S
C250 C251 1.394 . S
C250 H258 0.930 . S
C251 C250 1.394 . S
C251 C252 1.383 . S
C251 H259 0.929 . S
C252 C251 1.383 . S
C252 C253 1.377 1_565 S
C253 H237 0.930 . S
C253 C252 1.377 1_545 S
C253 C254 1.379 . S
C254 H238 0.931 . S
C254 C248 1.383 1_545 S
C254 C253 1.379 . S
H255 C249 0.959 . S
H256 C249 0.973 . S
H257 C249 0.960 . S
H258 C250 0.930 . S
H259 C251 0.929 . S
H260 C268 0.929 . S
H261 C270 0.930 . S
H262 C272 0.930 . S
H263 C275 0.929 . S
H264 C278 0.930 . S
H265 C280 0.960 . S
H266 C280 0.960 . S
H267 C280 0.960 . S
C268 H260 0.929 . S
C268 C269 1.377 . S
C268 C270 1.384 . S
C269 C268 1.377 . S
C269 C275 1.390 . S
C270 H261 0.930 . S
C270 C268 1.384 . S
C270 C271 1.372 . S
C271 C270 1.372 . S
C271 C272 1.400 . S
C271 C276 1.490 . S
C272 H262 0.930 . S
C272 C271 1.400 . S
C272 C275 1.386 . S
H273 C289 0.930 . S
H274 C290 0.931 . S
C275 H263 0.929 . S
C275 C269 1.390 . S
C275 C272 1.386 . S
C276 C271 1.490 . S
C276 C278 1.395 . S
C276 C279 1.403 . S
H277 C283 0.930 . S
C278 H264 0.930 . S
C278 C276 1.395 . S
C278 C281 1.403 . S
C279 C276 1.403 . S
C279 C280 1.524 . S
C279 C283 1.400 . S
C280 H265 0.960 . S
C280 H266 0.960 . S
C280 H267 0.960 . S
C280 C279 1.524 . S
C281 C278 1.403 . S
C281 C282 1.392 . S
C281 C285 1.495 . S
C282 C281 1.392 . S
C282 C283 1.385 . S
C282 C284 1.478 . S
C283 H277 0.930 . S
C283 C279 1.400 . S
C283 C282 1.385 . S
C284 C282 1.478 . S
C284 C286 1.381 . S
C284 C290 1.383 . S
C285 C281 1.495 . S
C285 H291 0.959 . S
C285 H292 0.961 . S
C285 H293 0.960 . S
C286 C284 1.381 . S
C286 C287 1.394 . S
C286 H294 0.930 . S
C287 C286 1.394 . S
C287 C288 1.383 . S
C287 H295 0.929 . S
C288 C287 1.383 . S
C288 C289 1.377 . S
C289 H273 0.930 . S
C289 C288 1.377 . S
C289 C290 1.379 . S
C290 H274 0.931 . S
C290 C284 1.383 . S
C290 C289 1.379 . S
H291 C285 0.959 . S
H292 C285 0.961 . S
H293 C285 0.960 . S
H294 C286 0.930 . S
H295 C287 0.929 . S
H296 C304 0.929 . S
H297 C306 0.930 . S
H298 C308 0.930 . S
H299 C311 0.929 . S
H300 C314 0.930 . S
H301 C316 0.960 . S
H302 C316 0.960 . S
H303 C316 0.960 . S
C304 H296 0.929 . S
C304 C305 1.377 . S
C304 C306 1.384 . S
C305 C304 1.377 . S
C305 C311 1.390 . S
C306 H297 0.930 . S
C306 C304 1.384 . S
C306 C307 1.372 . S
C307 C306 1.372 . S
C307 C308 1.400 . S
C307 C312 1.490 . S
C308 H298 0.930 . S
C308 C307 1.400 . S
C308 C311 1.386 . S
H309 C325 0.930 . S
H310 C326 0.931 . S
C311 H299 0.929 . S
C311 C305 1.390 . S
C311 C308 1.386 . S
C312 C307 1.490 . S
C312 C314 1.395 . S
C312 C315 1.403 . S
H313 C319 0.930 . S
C314 H300 0.930 . S
C314 C312 1.395 . S
C314 C317 1.403 . S
C315 C312 1.403 . S
C315 C316 1.524 . S
C315 C319 1.400 . S
C316 H301 0.960 . S
C316 H302 0.960 . S
C316 H303 0.960 . S
C316 C315 1.524 . S
C317 C314 1.403 . S
C317 C318 1.392 . S
C317 C321 1.495 . S
C318 C317 1.392 . S
C318 C319 1.385 . S
C318 C320 1.478 . S
C319 H313 0.930 . S
C319 C315 1.400 . S
C319 C318 1.385 . S
C320 C318 1.478 . S
C320 C322 1.381 . S
C320 C326 1.383 . S
C321 C317 1.495 . S
C321 H327 0.959 . S
C321 H328 0.961 . S
C321 H329 0.960 . S
C322 C320 1.381 . S
C322 C323 1.394 . S
C322 H330 0.930 . S
C323 C322 1.394 . S
C323 C324 1.383 . S
C323 H331 0.929 . S
C324 C323 1.383 . S
C324 C325 1.377 . S
C325 H309 0.930 . S
C325 C324 1.377 . S
C325 C326 1.379 . S
C326 H310 0.931 . S
C326 C320 1.383 . S
C326 C325 1.379 . S
H327 C321 0.959 . S
H328 C321 0.961 . S
H329 C321 0.960 . S
H330 C322 0.930 . S
H331 C323 0.929 . S
H332 C340 0.929 . S
H333 C342 0.930 . S
H334 C344 0.930 . S
H335 C347 0.929 . S
H336 C350 0.930 . S
H337 C352 0.960 . S
H338 C352 0.960 . S
H339 C352 0.960 . S
C340 H332 0.929 . S
C340 C341 1.377 . S
C340 C342 1.384 . S
C341 C340 1.377 . S
C341 C347 1.390 . S
C342 H333 0.930 . S
C342 C340 1.384 . S
C342 C343 1.372 . S
C343 C342 1.372 . S
C343 C344 1.400 . S
C343 C348 1.490 . S
C344 H334 0.930 . S
C344 C343 1.400 . S
C344 C347 1.386 . S
H345 C361 0.930 . S
H346 C362 0.931 . S
C347 H335 0.929 . S
C347 C341 1.390 . S
C347 C344 1.386 . S
C348 C343 1.490 . S
C348 C350 1.395 . S
C348 C351 1.403 . S
H349 C355 0.930 . S
C350 H336 0.930 . S
C350 C348 1.395 . S
C350 C353 1.403 . S
C351 C348 1.403 . S
C351 C352 1.524 . S
C351 C355 1.400 . S
C352 H337 0.960 . S
C352 H338 0.960 . S
C352 H339 0.960 . S
C352 C351 1.524 . S
C353 C350 1.403 . S
C353 C354 1.392 . S
C353 C357 1.495 . S
C354 C353 1.392 . S
C354 C355 1.385 . S
C354 C356 1.478 . S
C355 H349 0.930 . S
C355 C351 1.400 . S
C355 C354 1.385 . S
C356 C354 1.478 . S
C356 C358 1.381 . S
C356 C362 1.383 . S
C357 C353 1.495 . S
C357 H363 0.959 . S
C357 H364 0.961 . S
C357 H365 0.960 . S
C358 C356 1.381 . S
C358 C359 1.394 . S
C358 H366 0.930 . S
C359 C358 1.394 . S
C359 C360 1.383 . S
C359 H367 0.929 . S
C360 C359 1.383 . S
C360 C361 1.377 . S
C361 H345 0.930 . S
C361 C360 1.377 . S
C361 C362 1.379 . S
C362 H346 0.931 . S
C362 C356 1.383 . S
C362 C361 1.379 . S
H363 C357 0.959 . S
H364 C357 0.961 . S
H365 C357 0.960 . S
H366 C358 0.930 . S
H367 C359 0.929 . S
H368 C376 0.929 . S
H369 C378 0.930 1_554 S
H370 C380 0.930 . S
H371 C383 0.929 . S
H372 C386 0.930 . S
H373 C388 0.960 . S
H374 C388 0.960 . S
H375 C388 0.960 . S
C376 H368 0.929 . S
C376 C377 1.374 1_564 S
C376 C378 1.384 1_554 S
C377 C376 1.374 1_546 S
C377 C383 1.393 . S
C378 H369 0.930 1_556 S
C378 C376 1.384 1_556 S
C378 C379 1.372 1_565 S
C379 C378 1.372 1_545 S
C379 C380 1.400 . S
C379 C384 1.494 . S
C380 H370 0.930 . S
C380 C379 1.400 . S
C380 C383 1.386 . S
H381 C397 0.930 . S
H382 C398 0.931 . S
C383 H371 0.929 . S
C383 C377 1.393 . S
C383 C380 1.386 . S
C384 C379 1.494 . S
C384 C386 1.349 1_545 S
C384 C387 1.446 . S
H385 C391 0.930 . S
C386 H372 0.930 . S
C386 C384 1.349 1_565 S
C386 C389 1.403 . S
C387 C384 1.446 . S
C387 C388 1.524 . S
C387 C391 1.400 . S
C388 H373 0.960 . S
C388 H374 0.960 . S
C388 H375 0.960 . S
C388 C387 1.524 . S
C389 C386 1.403 . S
C389 C390 1.392 . S
C389 C393 1.495 . S
C390 C389 1.392 . S
C390 C391 1.385 1_565 S
C390 C392 1.477 . S
C391 H385 0.930 . S
C391 C387 1.400 . S
C391 C390 1.385 1_545 S
C392 C390 1.477 . S
C392 C394 1.382 . S
C392 C398 1.384 1_565 S
C393 C389 1.495 . S
C393 H399 0.959 . S
C393 H400 0.961 . S
C393 H401 0.960 . S
C394 C392 1.382 . S
C394 C395 1.393 1_565 S
C394 H402 0.930 . S
C395 C394 1.393 1_545 S
C395 C396 1.384 . S
C395 H403 0.929 . S
C396 C395 1.384 . S
C396 C397 1.377 . S
C397 H381 0.930 . S
C397 C396 1.377 . S
C397 C398 1.382 . S
C398 H382 0.931 . S
C398 C392 1.384 1_545 S
C398 C397 1.382 . S
H399 C393 0.959 . S
H400 C393 0.961 . S
H401 C393 0.960 . S
H402 C394 0.930 . S
H403 C395 0.929 . S
H404 C412 0.929 . S
H405 C414 0.930 . S
H406 C416 0.922 1_554 S
H407 C419 0.929 . S
H408 C422 0.930 . S
H409 C424 0.960 . S
H410 C424 0.960 . S
H411 C424 0.960 . S
C412 H404 0.929 . S
C412 C413 1.377 . S
C412 C414 1.384 . S
C413 C412 1.377 . S
C413 C419 1.390 1_556 S
C414 H405 0.930 . S
C414 C412 1.384 . S
C414 C415 1.372 . S
C415 C414 1.372 . S
C415 C416 1.400 . S
C415 C420 1.490 . S
C416 H406 0.922 1_556 S
C416 C415 1.400 . S
C416 C419 1.386 1_556 S
H417 C433 0.930 . S
H418 C434 0.931 . S
C419 H407 0.929 . S
C419 C413 1.390 1_554 S
C419 C416 1.386 1_554 S
C420 C415 1.490 . S
C420 C422 1.395 . S
C420 C423 1.403 . S
H421 C427 0.930 . S
C422 H408 0.930 . S
C422 C420 1.395 . S
C422 C425 1.403 . S
C423 C420 1.403 . S
C423 C424 1.524 . S
C423 C427 1.400 . S
C424 H409 0.960 . S
C424 H410 0.960 . S
C424 H411 0.960 . S
C424 C423 1.524 . S
C425 C422 1.403 . S
C425 C426 1.392 . S
C425 C429 1.495 . S
C426 C425 1.392 . S
C426 C427 1.385 . S
C426 C428 1.478 . S
C427 H421 0.930 . S
C427 C423 1.400 . S
C427 C426 1.385 . S
C428 C426 1.478 . S
C428 C430 1.381 . S
C428 C434 1.383 . S
C429 C425 1.495 . S
C429 H435 0.959 . S
C429 H436 0.961 . S
C429 H437 0.960 . S
C430 C428 1.381 . S
C430 C431 1.394 . S
C430 H438 0.930 . S
C431 C430 1.394 . S
C431 C432 1.383 . S
C431 H439 0.929 . S
C432 C431 1.383 . S
C432 C433 1.377 . S
C433 H417 0.930 . S
C433 C432 1.377 . S
C433 C434 1.379 . S
C434 H418 0.931 . S
C434 C428 1.383 . S
C434 C433 1.379 . S
H435 C429 0.959 . S
H436 C429 0.961 . S
H437 C429 0.960 . S
H438 C430 0.930 . S
H439 C431 0.929 . S
H440 C448 0.929 . S
H441 C450 0.930 . S
H442 C452 0.930 . S
H443 C455 0.929 . S
H444 C458 0.930 1_554 S
H445 C460 0.960 . S
H446 C460 0.960 . S
H447 C460 0.960 . S
C448 H440 0.929 . S
C448 C449 1.377 . S
C448 C450 1.384 . S
C449 C448 1.377 . S
C449 C455 1.390 . S
C450 H441 0.930 . S
C450 C448 1.384 . S
C450 C451 1.372 1_554 S
C451 C450 1.372 1_556 S
C451 C452 1.400 . S
C451 C456 1.490 . S
C452 H442 0.930 . S
C452 C451 1.400 . S
C452 C455 1.386 1_556 S
H453 C469 0.930 . S
H454 C470 0.931 . S
C455 H443 0.929 . S
C455 C449 1.390 . S
C455 C452 1.386 1_554 S
C456 C451 1.490 . S
C456 C458 1.395 . S
C456 C459 1.403 . S
H457 C463 0.930 . S
C458 H444 0.930 1_556 S
C458 C456 1.395 . S
C458 C461 1.403 . S
C459 C456 1.403 . S
C459 C460 1.524 . S
C459 C463 1.400 . S
C460 H445 0.960 . S
C460 H446 0.960 . S
C460 H447 0.960 . S
C460 C459 1.524 . S
C461 C458 1.403 . S
C461 C462 1.392 . S
C461 C465 1.495 . S
C462 C461 1.392 . S
C462 C463 1.385 . S
C462 C464 1.478 . S
C463 H457 0.930 . S
C463 C459 1.400 . S
C463 C462 1.385 . S
C464 C462 1.478 . S
C464 C466 1.381 . S
C464 C470 1.383 . S
C465 C461 1.495 . S
C465 H471 0.959 1_556 S
C465 H472 0.961 . S
C465 H473 0.960 . S
C466 C464 1.381 . S
C466 C467 1.394 . S
C466 H474 0.930 . S
C467 C466 1.394 . S
C467 C468 1.383 . S
C467 H475 0.929 . S
C468 C467 1.383 . S
C468 C469 1.377 . S
C469 H453 0.930 . S
C469 C468 1.377 . S
C469 C470 1.379 . S
C470 H454 0.931 . S
C470 C464 1.383 . S
C470 C469 1.379 . S
H471 C465 0.959 1_554 S
H472 C465 0.961 . S
H473 C465 0.960 . S
H474 C466 0.930 . S
H475 C467 0.929 . S
H476 C484 0.929 . S
H477 C486 0.930 . S
H478 C488 0.930 1_455 S
H479 C491 0.929 . S
H480 C494 0.930 . S
H481 C496 0.960 . S
H482 C496 0.960 . S
H483 C496 0.960 . S
C484 H476 0.929 . S
C484 C485 1.377 . S
C484 C486 1.384 . S
C485 C484 1.377 . S
C485 C491 1.390 . S
C486 H477 0.930 . S
C486 C484 1.384 . S
C486 C487 1.372 . S
C487 C486 1.372 . S
C487 C488 1.400 . S
C487 C492 1.490 . S
C488 H478 0.930 1_655 S
C488 C487 1.400 . S
C488 C491 1.386 . S
H489 C505 0.930 . S
H490 C506 0.931 . S
C491 H479 0.929 . S
C491 C485 1.390 . S
C491 C488 1.386 . S
C492 C487 1.490 . S
C492 C494 1.395 . S
C492 C495 1.448 . S
H493 C499 0.930 . S
C494 H480 0.930 . S
C494 C492 1.395 . S
C494 C497 1.403 . S
C495 C492 1.448 . S
C495 C496 1.487 1_655 S
C495 C499 1.395 1_655 S
C496 H481 0.960 . S
C496 H482 0.960 . S
C496 H483 0.960 . S
C496 C495 1.487 1_455 S
C497 C494 1.403 . S
C497 C498 1.392 . S
C497 C501 1.495 . S
C498 C497 1.392 . S
C498 C499 1.385 1_655 S
C498 C500 1.478 . S
C499 H493 0.930 . S
C499 C495 1.395 1_455 S
C499 C498 1.385 1_455 S
C500 C498 1.478 . S
C500 C502 1.381 . S
C500 C506 1.383 1_655 S
C501 C497 1.495 . S
C501 H507 0.959 . S
C501 H508 0.961 . S
C501 H509 0.960 . S
C502 C500 1.381 . S
C502 C503 1.394 . S
C502 H510 0.930 . S
C503 C502 1.394 . S
C503 C504 1.383 1_655 S
C503 H511 0.929 . S
C504 C503 1.383 1_455 S
C504 C505 1.377 . S
C505 H489 0.930 . S
C505 C504 1.377 . S
C505 C506 1.379 . S
C506 H490 0.931 . S
C506 C500 1.383 1_455 S
C506 C505 1.379 . S
H507 C501 0.959 . S
H508 C501 0.961 . S
H509 C501 0.960 . S
H510 C502 0.930 . S
H511 C503 0.929 . S
H512 C520 0.929 . S
H513 C522 0.930 . S
H514 C524 0.930 . S
H515 C527 0.929 . S
H516 C530 0.930 . S
H517 C532 0.960 . S
H518 C532 0.960 . S
H519 C532 0.960 . S
C520 H512 0.929 . S
C520 C521 1.377 . S
C520 C522 1.384 . S
C521 C520 1.377 . S
C521 C527 1.390 . S
C522 H513 0.930 . S
C522 C520 1.384 . S
C522 C523 1.372 . S
C523 C522 1.372 . S
C523 C524 1.400 . S
C523 C528 1.490 . S
C524 H514 0.930 . S
C524 C523 1.400 . S
C524 C527 1.386 . S
H525 C541 0.930 . S
H526 C542 0.931 . S
C527 H515 0.929 . S
C527 C521 1.390 . S
C527 C524 1.386 . S
C528 C523 1.490 . S
C528 C530 1.395 . S
C528 C531 1.403 . S
H529 C535 0.930 . S
C530 H516 0.930 . S
C530 C528 1.395 . S
C530 C533 1.403 . S
C531 C528 1.403 . S
C531 C532 1.524 . S
C531 C535 1.400 . S
C532 H517 0.960 . S
C532 H518 0.960 . S
C532 H519 0.960 . S
C532 C531 1.524 . S
C533 C530 1.403 . S
C533 C534 1.392 . S
C533 C537 1.495 . S
C534 C533 1.392 . S
C534 C535 1.385 . S
C534 C536 1.478 . S
C535 H529 0.930 . S
C535 C531 1.400 . S
C535 C534 1.385 . S
C536 C534 1.478 . S
C536 C538 1.381 . S
C536 C542 1.383 . S
C537 C533 1.495 . S
C537 H543 0.959 1_455 S
C537 H544 0.961 1_455 S
C537 H545 0.960 . S
C538 C536 1.381 . S
C538 C539 1.394 . S
C538 H546 0.930 . S
C539 C538 1.394 . S
C539 C540 1.383 . S
C539 H547 0.929 . S
C540 C539 1.383 . S
C540 C541 1.377 . S
C541 H525 0.930 . S
C541 C540 1.377 . S
C541 C542 1.379 . S
C542 H526 0.931 . S
C542 C536 1.383 . S
C542 C541 1.379 . S
H543 C537 0.959 1_655 S
H544 C537 0.961 1_655 S
H545 C537 0.960 . S
H546 C538 0.930 . S
H547 C539 0.929 . S
H548 C556 0.929 . S
H549 C558 0.930 . S
H550 C560 0.930 . S
H551 C563 0.929 . S
H552 C566 0.930 . S
H553 C568 0.960 . S
H554 C568 0.960 . S
H555 C568 0.960 . S
C556 H548 0.929 . S
C556 C557 1.381 . S
C556 C558 1.384 . S
C557 C556 1.381 . S
C557 C563 1.387 1_565 S
C558 H549 0.930 . S
C558 C556 1.384 . S
C558 C559 1.372 . S
C559 C558 1.372 . S
C559 C560 1.400 1_565 S
C559 C564 1.490 . S
C560 H550 0.930 . S
C560 C559 1.400 1_545 S
C560 C563 1.386 . S
H561 C577 0.930 . S
H562 C578 0.931 . S
C563 H551 0.929 . S
C563 C557 1.387 1_545 S
C563 C560 1.386 . S
C564 C559 1.490 . S
C564 C566 1.395 1_565 S
C564 C567 1.403 . S
H565 C571 0.930 . S
C566 H552 0.930 . S
C566 C564 1.395 1_545 S
C566 C569 1.403 . S
C567 C564 1.403 . S
C567 C568 1.524 . S
C567 C571 1.400 . S
C568 H553 0.960 . S
C568 H554 0.960 . S
C568 H555 0.960 . S
C568 C567 1.524 . S
C569 C566 1.403 . S
C569 C570 1.392 1_545 S
C569 C573 1.495 . S
C570 C569 1.392 1_565 S
C570 C571 1.385 . S
C570 C572 1.478 . S
C571 H565 0.930 . S
C571 C567 1.400 . S
C571 C570 1.385 . S
C572 C570 1.478 . S
C572 C574 1.381 . S
C572 C578 1.383 1_565 S
C573 C569 1.495 . S
C573 H579 0.959 . S
C573 H580 0.961 . S
C573 H581 0.960 1_545 S
C574 C572 1.381 . S
C574 C575 1.394 . S
C574 H582 0.930 . S
C575 C574 1.394 . S
C575 C576 1.383 . S
C575 H583 0.929 . S
C576 C575 1.383 . S
C576 C577 1.377 1_565 S
C577 H561 0.930 . S
C577 C576 1.377 1_545 S
C577 C578 1.379 . S
C578 H562 0.931 . S
C578 C572 1.383 1_545 S
C578 C577 1.379 . S
H579 C573 0.959 . S
H580 C573 0.961 . S
H581 C573 0.960 1_565 S
H582 C574 0.930 . S
H583 C575 0.929 . S
H584 C592 0.929 . S
H585 C594 0.930 . S
H586 C596 0.930 . S
H587 C599 0.929 . S
H588 C602 0.930 . S
H589 C604 0.960 . S
H590 C604 0.960 . S
H591 C604 0.960 . S
C592 H584 0.929 . S
C592 C593 1.377 . S
C592 C594 1.384 . S
C593 C592 1.377 . S
C593 C599 1.390 . S
C594 H585 0.930 . S
C594 C592 1.384 . S
C594 C595 1.372 . S
C595 C594 1.372 . S
C595 C596 1.400 . S
C595 C600 1.490 . S
C596 H586 0.930 . S
C596 C595 1.400 . S
C596 C599 1.386 . S
H597 C613 0.930 . S
H598 C614 0.931 . S
C599 H587 0.929 . S
C599 C593 1.390 . S
C599 C596 1.386 . S
C600 C595 1.490 . S
C600 C602 1.395 . S
C600 C603 1.403 . S
H601 C607 0.930 . S
C602 H588 0.930 . S
C602 C600 1.395 . S
C602 C605 1.403 . S
C603 C600 1.403 . S
C603 C604 1.524 . S
C603 C607 1.400 . S
C604 H589 0.960 . S
C604 H590 0.960 . S
C604 H591 0.960 . S
C604 C603 1.524 . S
C605 C602 1.403 . S
C605 C606 1.392 . S
C605 C609 1.495 . S
C606 C605 1.392 . S
C606 C607 1.385 . S
C606 C608 1.478 . S
C607 H601 0.930 . S
C607 C603 1.400 . S
C607 C606 1.385 . S
C608 C606 1.478 . S
C608 C610 1.381 . S
C608 C614 1.383 . S
C609 C605 1.495 . S
C609 H615 0.959 . S
C609 H616 0.961 . S
C609 H617 0.960 . S
C610 C608 1.381 . S
C610 C611 1.394 . S
C610 H618 0.930 . S
C611 C610 1.394 . S
C611 C612 1.383 . S
C611 H619 0.929 . S
C612 C611 1.383 . S
C612 C613 1.377 . S
C613 H597 0.930 . S
C613 C612 1.377 . S
C613 C614 1.379 . S
C614 H598 0.931 . S
C614 C608 1.383 . S
C614 C613 1.379 . S
H615 C609 0.959 . S
H616 C609 0.961 . S
H617 C609 0.960 . S
H618 C610 0.930 . S
H619 C611 0.929 . S
H620 C628 0.929 . S
H621 C630 0.930 . S
H622 C632 0.930 . S
H623 C635 0.929 . S
H624 C638 0.930 . S
H625 C640 0.960 . S
H626 C640 0.960 . S
H627 C640 0.960 . S
C628 H620 0.929 . S
C628 C629 1.377 . S
C628 C630 1.384 . S
C629 C628 1.377 . S
C629 C635 1.390 . S
C630 H621 0.930 . S
C630 C628 1.384 . S
C630 C631 1.372 . S
C631 C630 1.372 . S
C631 C632 1.400 . S
C631 C636 1.490 . S
C632 H622 0.930 . S
C632 C631 1.400 . S
C632 C635 1.386 . S
H633 C649 0.930 . S
H634 C650 0.931 . S
C635 H623 0.929 . S
C635 C629 1.390 . S
C635 C632 1.386 . S
C636 C631 1.490 . S
C636 C638 1.395 . S
C636 C639 1.403 . S
H637 C643 0.930 . S
C638 H624 0.930 . S
C638 C636 1.395 . S
C638 C641 1.403 . S
C639 C636 1.403 . S
C639 C640 1.524 . S
C639 C643 1.400 . S
C640 H625 0.960 . S
C640 H626 0.960 . S
C640 H627 0.960 . S
C640 C639 1.524 . S
C641 C638 1.403 . S
C641 C642 1.392 . S
C641 C645 1.495 . S
C642 C641 1.392 . S
C642 C643 1.385 . S
C642 C644 1.478 . S
C643 H637 0.930 . S
C643 C639 1.400 . S
C643 C642 1.385 . S
C644 C642 1.478 . S
C644 C646 1.381 . S
C644 C650 1.383 . S
C645 C641 1.495 . S
C645 H651 0.959 . S
C645 H652 0.961 . S
C645 H653 0.960 . S
C646 C644 1.381 . S
C646 C647 1.394 . S
C646 H654 0.930 . S
C647 C646 1.394 . S
C647 C648 1.383 . S
C647 H655 0.929 . S
C648 C647 1.383 . S
C648 C649 1.377 . S
C649 H633 0.930 . S
C649 C648 1.377 . S
C649 C650 1.379 . S
C650 H634 0.931 . S
C650 C644 1.383 . S
C650 C649 1.379 . S
H651 C645 0.959 . S
H652 C645 0.961 . S
H653 C645 0.960 . S
H654 C646 0.930 . S
H655 C647 0.929 . S
H656 C664 0.929 . S
H657 C666 0.930 . S
H658 C668 0.930 . S
H659 C671 0.929 . S
H660 C674 0.930 . S
H661 C676 0.960 . S
H662 C676 0.960 . S
H663 C676 0.960 . S
C664 H656 0.929 . S
C664 C665 1.377 . S
C664 C666 1.384 . S
C665 C664 1.377 . S
C665 C671 1.390 . S
C666 H657 0.930 . S
C666 C664 1.384 . S
C666 C667 1.372 . S
C667 C666 1.372 . S
C667 C668 1.400 . S
C667 C672 1.490 . S
C668 H658 0.930 . S
C668 C667 1.400 . S
C668 C671 1.386 . S
H669 C685 0.955 . S
H670 C686 0.931 1_655 S
C671 H659 0.929 . S
C671 C665 1.390 . S
C671 C668 1.386 . S
C672 C667 1.490 . S
C672 C674 1.395 1_655 S
C672 C675 1.403 . S
H673 C679 0.930 . S
C674 H660 0.930 . S
C674 C672 1.395 1_455 S
C674 C677 1.403 . S
C675 C672 1.403 . S
C675 C676 1.524 . S
C675 C679 1.400 . S
C676 H661 0.960 . S
C676 H662 0.960 . S
C676 H663 0.960 . S
C676 C675 1.524 . S
C677 C674 1.403 . S
C677 C678 1.392 . S
C677 C681 1.495 . S
C678 C677 1.392 . S
C678 C679 1.385 1_455 S
C678 C680 1.478 . S
C679 H673 0.930 . S
C679 C675 1.400 . S
C679 C678 1.385 1_655 S
C680 C678 1.478 . S
C680 C682 1.381 . S
C680 C686 1.383 . S
C681 C677 1.495 . S
C681 H687 0.959 . S
C681 H688 0.961 . S
C681 H689 0.960 . S
C682 C680 1.381 . S
C682 C683 1.394 . S
C682 H690 0.930 . S
C683 C682 1.394 . S
C683 C684 1.383 . S
C683 H691 0.929 . S
C684 C683 1.383 . S
C684 C685 1.377 . S
C685 H669 0.955 . S
C685 C684 1.377 . S
C685 C686 1.379 . S
C686 H670 0.931 1_455 S
C686 C680 1.383 . S
C686 C685 1.379 . S
H687 C681 0.959 . S
H688 C681 0.961 . S
H689 C681 0.960 . S
H690 C682 0.930 . S
H691 C683 0.929 . S
H692 C700 0.929 . S
H693 C702 0.930 . S
H694 C704 0.930 . S
H695 C707 0.929 . S
H696 C710 0.930 . S
H697 C712 0.960 . S
H698 C712 0.960 . S
H699 C712 0.960 1_545 S
C700 H692 0.929 . S
C700 C701 1.382 1_554 S
C700 C702 1.384 1_554 S
C701 C700 1.382 1_556 S
C701 C707 1.385 1_565 S
C702 H693 0.930 . S
C702 C700 1.384 1_556 S
C702 C703 1.356 1_565 S
C703 C702 1.356 1_545 S
C703 C704 1.416 . S
C703 C708 1.491 . S
C704 H694 0.930 . S
C704 C703 1.416 . S
C704 C707 1.386 . S
H705 C721 0.930 . S
H706 C722 0.931 . S
C707 H695 0.929 . S
C707 C701 1.385 1_545 S
C707 C704 1.386 . S
C708 C703 1.491 . S
C708 C710 1.395 . S
C708 C711 1.403 1_545 S
H709 C715 0.935 . S
C710 H696 0.930 . S
C710 C708 1.395 . S
C710 C713 1.403 . S
C711 C708 1.403 1_565 S
C711 C712 1.523 . S
C711 C715 1.400 1_565 S
C712 H697 0.960 . S
C712 H698 0.960 . S
C712 H699 0.960 1_565 S
C712 C711 1.523 . S
C713 C710 1.403 . S
C713 C714 1.392 . S
C713 C717 1.495 . S
C714 C713 1.392 . S
C714 C715 1.385 . S
C714 C716 1.478 . S
C715 H709 0.935 . S
C715 C711 1.400 1_545 S
C715 C714 1.385 . S
C716 C714 1.478 . S
C716 C718 1.381 1_545 S
C716 C722 1.383 . S
C717 C713 1.495 . S
C717 H723 0.956 1_556 S
C717 H724 0.961 . S
C717 H725 0.960 1_545 S
C718 C716 1.381 1_565 S
C718 C719 1.394 . S
C718 H726 0.930 . S
C719 C718 1.394 . S
C719 C720 1.383 1_565 S
C719 H727 0.929 . S
C720 C719 1.383 1_545 S
C720 C721 1.377 . S
C721 H705 0.930 . S
C721 C720 1.377 . S
C721 C722 1.379 . S
C722 H706 0.931 . S
C722 C716 1.383 . S
C722 C721 1.379 . S
H723 C717 0.956 1_554 S
H724 C717 0.961 . S
H725 C717 0.960 1_565 S
H726 C718 0.930 . S
H727 C719 0.929 . S
H728 C736 0.929 . S
H729 C738 0.930 . S
H730 C740 0.936 . S
H731 C743 0.929 . S
H732 C746 0.930 . S
H733 C748 0.960 . S
H734 C748 0.960 . S
H735 C748 0.960 1_554 S
C736 H728 0.929 . S
C736 C737 1.377 1_556 S
C736 C738 1.384 . S
C737 C736 1.377 1_554 S
C737 C743 1.390 . S
C738 H729 0.930 . S
C738 C736 1.384 . S
C738 C739 1.372 . S
C739 C738 1.372 . S
C739 C740 1.386 1_556 S
C739 C744 1.490 . S
C740 H730 0.936 . S
C740 C739 1.386 1_554 S
C740 C743 1.393 . S
H741 C757 0.930 . S
H742 C758 0.931 . S
C743 H731 0.929 . S
C743 C737 1.390 . S
C743 C740 1.393 . S
C744 C739 1.490 . S
C744 C746 1.395 . S
C744 C747 1.403 . S
H745 C751 0.930 . S
C746 H732 0.930 . S
C746 C744 1.395 . S
C746 C749 1.403 . S
C747 C744 1.403 . S
C747 C748 1.524 . S
C747 C751 1.400 . S
C748 H733 0.960 . S
C748 H734 0.960 . S
C748 H735 0.960 1_556 S
C748 C747 1.524 . S
C749 C746 1.403 . S
C749 C750 1.392 . S
C749 C753 1.495 . S
C750 C749 1.392 . S
C750 C751 1.385 . S
C750 C752 1.478 . S
C751 H745 0.930 . S
C751 C747 1.400 . S
C751 C750 1.385 . S
C752 C750 1.478 . S
C752 C754 1.381 . S
C752 C758 1.383 . S
C753 C749 1.495 . S
C753 H759 0.959 . S
C753 H760 0.961 . S
C753 H761 0.960 . S
C754 C752 1.381 . S
C754 C755 1.394 . S
C754 H762 0.930 . S
C755 C754 1.394 . S
C755 C756 1.383 . S
C755 H763 0.929 . S
C756 C755 1.383 . S
C756 C757 1.377 . S
C757 H741 0.930 . S
C757 C756 1.377 . S
C757 C758 1.379 . S
C758 H742 0.931 . S
C758 C752 1.383 . S
C758 C757 1.379 . S
H759 C753 0.959 . S
H760 C753 0.961 . S
H761 C753 0.960 . S
H762 C754 0.930 . S
H763 C755 0.929 . S
H764 C772 0.929 . S
H765 C774 0.930 . S
H766 C776 0.930 . S
H767 C779 0.929 1_556 S
H768 C782 0.930 1_554 S
H769 C784 0.960 . S
H770 C784 0.960 . S
H771 C784 0.960 . S
C772 H764 0.929 . S
C772 C773 1.377 . S
C772 C774 1.384 . S
C773 C772 1.377 . S
C773 C779 1.390 . S
C774 H765 0.930 . S
C774 C772 1.384 . S
C774 C775 1.372 1_554 S
C775 C774 1.372 1_556 S
C775 C776 1.400 . S
C775 C780 1.490 . S
C776 H766 0.930 . S
C776 C775 1.400 . S
C776 C779 1.386 1_556 S
H777 C793 0.930 . S
H778 C794 0.931 . S
C779 H767 0.929 1_554 S
C779 C773 1.390 . S
C779 C776 1.386 1_554 S
C780 C775 1.490 . S
C780 C782 1.395 . S
C780 C783 1.403 . S
H781 C787 0.930 . S
C782 H768 0.930 1_556 S
C782 C780 1.395 . S
C782 C785 1.403 . S
C783 C780 1.403 . S
C783 C784 1.524 . S
C783 C787 1.400 . S
C784 H769 0.960 . S
C784 H770 0.960 . S
C784 H771 0.960 . S
C784 C783 1.524 . S
C785 C782 1.403 . S
C785 C786 1.392 . S
C785 C789 1.495 . S
C786 C785 1.392 . S
C786 C787 1.385 . S
C786 C788 1.478 . S
C787 H781 0.930 . S
C787 C783 1.400 . S
C787 C786 1.385 . S
C788 C786 1.478 . S
C788 C790 1.381 . S
C788 C794 1.383 . S
C789 C785 1.495 . S
C789 H795 0.959 . S
C789 H796 0.961 . S
C789 H797 0.960 . S
C790 C788 1.381 . S
C790 C791 1.394 . S
C790 H798 0.930 . S
C791 C790 1.394 . S
C791 C792 1.383 . S
C791 H799 0.940 . S
C792 C791 1.383 . S
C792 C793 1.377 . S
C793 H777 0.930 . S
C793 C792 1.377 . S
C793 C794 1.379 . S
C794 H778 0.931 . S
C794 C788 1.383 . S
C794 C793 1.379 . S
H795 C789 0.959 . S
H796 C789 0.961 . S
H797 C789 0.960 . S
H798 C790 0.930 . S
H799 C791 0.940 . S
H800 C808 0.929 . S
H801 C810 0.930 . S
H802 C812 0.930 . S
H803 C815 0.929 . S
H804 C818 0.930 . S
H805 C820 0.960 . S
H806 C820 0.960 . S
H807 C820 0.960 . S
C808 H800 0.929 . S
C808 C809 1.377 . S
C808 C810 1.384 . S
C809 C808 1.377 . S
C809 C815 1.390 . S
C810 H801 0.930 . S
C810 C808 1.384 . S
C810 C811 1.372 . S
C811 C810 1.372 . S
C811 C812 1.400 . S
C811 C816 1.490 . S
C812 H802 0.930 . S
C812 C811 1.400 . S
C812 C815 1.386 . S
H813 C829 0.930 1_554 S
H814 C830 0.931 . S
C815 H803 0.929 . S
C815 C809 1.390 . S
C815 C812 1.386 . S
C816 C811 1.490 . S
C816 C818 1.395 . S
C816 C819 1.403 . S
H817 C823 0.930 . S
C818 H804 0.930 . S
C818 C816 1.395 . S
C818 C821 1.403 . S
C819 C816 1.403 . S
C819 C820 1.524 . S
C819 C823 1.400 . S
C820 H805 0.960 . S
C820 H806 0.960 . S
C820 H807 0.960 . S
C820 C819 1.524 . S
C821 C818 1.403 . S
C821 C822 1.392 . S
C821 C825 1.495 . S
C822 C821 1.392 . S
C822 C823 1.385 . S
C822 C824 1.478 . S
C823 H817 0.930 . S
C823 C819 1.400 . S
C823 C822 1.385 . S
C824 C822 1.478 . S
C824 C826 1.381 1_554 S
C824 C830 1.383 . S
C825 C821 1.495 . S
C825 H831 0.959 . S
C825 H832 0.961 . S
C825 H833 0.960 . S
C826 C824 1.381 1_556 S
C826 C827 1.394 . S
C826 H834 0.930 . S
C827 C826 1.394 . S
C827 C828 1.383 . S
C827 H835 0.929 . S
C828 C827 1.383 . S
C828 C829 1.377 . S
C829 H813 0.930 1_556 S
C829 C828 1.377 . S
C829 C830 1.379 1_556 S
C830 H814 0.931 . S
C830 C824 1.383 . S
C830 C829 1.379 1_554 S
H831 C825 0.959 . S
H832 C825 0.961 . S
H833 C825 0.960 . S
H834 C826 0.930 . S
H835 C827 0.929 . S
H836 C844 0.929 . S
H837 C846 0.930 . S
H838 C848 0.930 . S
H839 C851 0.929 . S
H840 C854 0.928 1_565 S
H841 C856 0.963 . S
H842 C856 0.922 1_565 S
H843 C856 0.998 . S
C844 H836 0.929 . S
C844 C845 1.376 1_565 S
C844 C846 1.384 . S
C845 C844 1.376 1_545 S
C845 C851 1.391 . S
C846 H837 0.930 . S
C846 C844 1.384 . S
C846 C847 1.367 1_565 S
C847 C846 1.367 1_545 S
C847 C848 1.405 . S
C847 C852 1.491 . S
C848 H838 0.930 . S
C848 C847 1.405 . S
C848 C851 1.386 . S
H849 C865 0.930 . S
H850 C866 0.931 . S
C851 H839 0.929 . S
C851 C845 1.391 . S
C851 C848 1.386 . S
C852 C847 1.491 . S
C852 C854 1.392 1_554 S
C852 C855 1.405 . S
H853 C859 0.930 . S
C854 H840 0.928 1_545 S
C854 C852 1.392 1_556 S
C854 C857 1.405 . S
C855 C852 1.405 . S
C855 C856 1.523 . S
C855 C859 1.400 . S
C856 H841 0.963 . S
C856 H842 0.922 1_545 S
C856 H843 0.998 . S
C856 C855 1.523 . S
C857 C854 1.405 . S
C857 C858 1.396 . S
C857 C861 1.495 . S
C858 C857 1.396 . S
C858 C859 1.385 1_556 S
C858 C860 1.478 . S
C859 H853 0.930 . S
C859 C855 1.400 . S
C859 C858 1.385 1_554 S
C860 C858 1.478 . S
C860 C862 1.381 1_545 S
C860 C866 1.383 . S
C861 C857 1.495 . S
C861 H867 0.958 1_545 S
C861 H868 0.991 . S
C861 H869 0.930 1_545 S
C862 C860 1.381 1_565 S
C862 C863 1.394 . S
C862 H870 0.930 . S
C863 C862 1.394 . S
C863 C864 1.383 1_565 S
C863 H871 0.929 . S
C864 C863 1.383 1_545 S
C864 C865 1.377 . S
C865 H849 0.930 . S
C865 C864 1.377 . S
C865 C866 1.379 . S
C866 H850 0.931 . S
C866 C860 1.383 . S
C866 C865 1.379 . S
H867 C861 0.958 1_565 S
H868 C861 0.991 . S
H869 C861 0.930 1_565 S
H870 C862 0.930 . S
H871 C863 0.929 . S
H872 C880 0.929 . S
H873 C882 0.930 . S
H874 C884 0.930 . S
H875 C887 0.929 . S
H876 C890 0.930 . S
H877 C892 0.960 . S
H878 C892 0.960 . S
H879 C892 0.960 . S
C880 H872 0.929 . S
C880 C881 1.377 . S
C880 C882 1.384 . S
C881 C880 1.377 . S
C881 C887 1.390 . S
C882 H873 0.930 . S
C882 C880 1.384 . S
C882 C883 1.372 . S
C883 C882 1.372 . S
C883 C884 1.400 . S
C883 C888 1.490 . S
C884 H874 0.930 . S
C884 C883 1.400 . S
C884 C887 1.386 . S
H885 C901 0.930 . S
H886 C902 0.931 . S
C887 H875 0.929 . S
C887 C881 1.390 . S
C887 C884 1.386 . S
C888 C883 1.490 . S
C888 C890 1.395 1_554 S
C888 C891 1.403 . S
H889 C895 0.930 . S
C890 H876 0.930 . S
C890 C888 1.395 1_556 S
C890 C893 1.403 . S
C891 C888 1.403 . S
C891 C892 1.524 . S
C891 C895 1.400 1_554 S
C892 H877 0.960 . S
C892 H878 0.960 . S
C892 H879 0.960 . S
C892 C891 1.524 . S
C893 C890 1.403 . S
C893 C894 1.392 . S
C893 C897 1.495 . S
C894 C893 1.392 . S
C894 C895 1.385 . S
C894 C896 1.478 . S
C895 H889 0.930 . S
C895 C891 1.400 1_556 S
C895 C894 1.385 . S
C896 C894 1.478 . S
C896 C898 1.381 . S
C896 C902 1.383 . S
C897 C893 1.495 . S
C897 H903 0.959 . S
C897 H904 0.961 . S
C897 H905 0.960 . S
C898 C896 1.381 . S
C898 C899 1.394 . S
C898 H906 0.930 . S
C899 C898 1.394 . S
C899 C900 1.383 . S
C899 H907 0.929 . S
C900 C899 1.383 . S
C900 C901 1.377 . S
C901 H885 0.930 . S
C901 C900 1.377 . S
C901 C902 1.379 . S
C902 H886 0.931 . S
C902 C896 1.383 . S
C902 C901 1.379 . S
H903 C897 0.959 . S
H904 C897 0.961 . S
H905 C897 0.960 . S
H906 C898 0.930 . S
H907 C899 0.929 . S
H908 C916 0.929 . S
H909 C918 0.930 . S
H910 C920 0.930 . S
H911 C923 0.929 . S
H912 C926 0.930 . S
H913 C928 0.960 . S
H914 C928 0.960 . S
H915 C928 0.960 . S
C916 H908 0.929 . S
C916 C917 1.377 . S
C916 C918 1.384 . S
C917 C916 1.377 . S
C917 C923 1.390 . S
C918 H909 0.930 . S
C918 C916 1.384 . S
C918 C919 1.372 . S
C919 C918 1.372 . S
C919 C920 1.400 . S
C919 C924 1.490 . S
C920 H910 0.930 . S
C920 C919 1.400 . S
C920 C923 1.386 . S
H921 C937 0.930 . S
H922 C938 0.931 . S
C923 H911 0.929 . S
C923 C917 1.390 . S
C923 C920 1.386 . S
C924 C919 1.490 . S
C924 C926 1.395 1_554 S
C924 C927 1.403 . S
H925 C931 0.930 . S
C926 H912 0.930 . S
C926 C924 1.395 1_556 S
C926 C929 1.403 . S
C927 C924 1.403 . S
C927 C928 1.524 . S
C927 C931 1.400 1_554 S
C928 H913 0.960 . S
C928 H914 0.960 . S
C928 H915 0.960 . S
C928 C927 1.524 . S
C929 C926 1.403 . S
C929 C930 1.392 . S
C929 C933 1.495 . S
C930 C929 1.392 . S
C930 C931 1.385 . S
C930 C932 1.478 . S
C931 H925 0.930 . S
C931 C927 1.400 1_556 S
C931 C930 1.385 . S
C932 C930 1.478 . S
C932 C934 1.381 . S
C932 C938 1.383 . S
C933 C929 1.495 . S
C933 H939 0.959 . S
C933 H940 0.961 . S
C933 H941 0.960 . S
C934 C932 1.381 . S
C934 C935 1.394 . S
C934 H942 0.930 . S
C935 C934 1.394 . S
C935 C936 1.383 . S
C935 H943 0.929 . S
C936 C935 1.383 . S
C936 C937 1.377 . S
C937 H921 0.930 . S
C937 C936 1.377 . S
C937 C938 1.379 . S
C938 H922 0.931 . S
C938 C932 1.383 . S
C938 C937 1.379 . S
H939 C933 0.959 . S
H940 C933 0.961 . S
H941 C933 0.960 . S
H942 C934 0.930 . S
H943 C935 0.929 . S
H944 C952 0.929 . S
H945 C954 0.930 . S
H946 C956 0.930 1_455 S
H947 C959 0.949 . S
H948 C962 0.930 . S
H949 C964 0.960 1_455 S
H950 C964 0.960 . S
H951 C964 0.960 1_455 S
C952 H944 0.929 . S
C952 C953 1.377 . S
C952 C954 1.384 . S
C953 C952 1.377 . S
C953 C959 1.390 . S
C954 H945 0.930 . S
C954 C952 1.384 . S
C954 C955 1.372 . S
C955 C954 1.372 . S
C955 C956 1.400 . S
C955 C960 1.490 . S
C956 H946 0.930 1_655 S
C956 C955 1.400 . S
C956 C959 1.386 . S
H957 C973 0.930 . S
H958 C974 0.931 . S
C959 H947 0.949 . S
C959 C953 1.390 . S
C959 C956 1.386 . S
C960 C955 1.490 . S
C960 C962 1.395 . S
C960 C963 1.403 . S
H961 C967 0.930 . S
C962 H948 0.930 . S
C962 C960 1.395 . S
C962 C965 1.403 . S
C963 C960 1.403 . S
C963 C964 1.524 . S
C963 C967 1.400 . S
C964 H949 0.960 1_655 S
C964 H950 0.960 . S
C964 H951 0.960 1_655 S
C964 C963 1.524 . S
C965 C962 1.403 . S
C965 C966 1.392 . S
C965 C969 1.495 . S
C966 C965 1.392 . S
C966 C967 1.385 . S
C966 C968 1.478 . S
C967 H961 0.930 . S
C967 C963 1.400 . S
C967 C966 1.385 . S
C968 C966 1.478 . S
C968 C970 1.381 . S
C968 C974 1.383 1_655 S
C969 C965 1.495 . S
C969 H975 0.959 . S
C969 H976 0.961 . S
C969 H977 0.960 . S
C970 C968 1.381 . S
C970 C971 1.394 . S
C970 H978 0.930 . S
C971 C970 1.394 . S
C971 C972 1.383 . S
C971 H979 0.929 . S
C972 C971 1.383 . S
C972 C973 1.377 1_655 S
C973 H957 0.930 . S
C973 C972 1.377 1_455 S
C973 C974 1.379 . S
C974 H958 0.931 . S
C974 C968 1.383 1_455 S
C974 C973 1.379 . S
H975 C969 0.959 . S
H976 C969 0.961 . S
H977 C969 0.960 . S
H978 C970 0.930 . S
H979 C971 0.929 . S
H980 C988 0.929 . S
H981 C990 0.930 . S
H982 C992 0.930 . S
H983 C995 0.929 . S
H984 C998 0.930 . S
H985 C1000 0.960 . S
H986 C1000 0.960 . S
H987 C1000 0.960 . S
C988 H980 0.929 . S
C988 C989 1.378 . S
C988 C990 1.384 . S
C989 C988 1.378 . S
C989 C995 1.390 1_545 S
C990 H981 0.930 . S
C990 C988 1.384 . S
C990 C991 1.369 1_545 S
C991 C990 1.369 1_565 S
C991 C992 1.403 . S
C991 C996 1.491 . S
C992 H982 0.930 . S
C992 C991 1.403 . S
C992 C995 1.386 . S
H993 C1009 0.930 . S
H994 C1010 0.931 . S
C995 H983 0.929 . S
C995 C989 1.390 1_565 S
C995 C992 1.386 . S
C996 C991 1.491 . S
C996 C998 1.414 . S
C996 C999 1.385 1_565 S
H997 C1003 0.930 . S
C998 H984 0.930 . S
C998 C996 1.414 . S
C998 C1001 1.403 . S
C999 C996 1.385 1_545 S
C999 C1000 1.524 . S
C999 C1003 1.400 . S
C1000 H985 0.960 . S
C1000 H986 0.960 . S
C1000 H987 0.960 . S
C1000 C999 1.524 . S
C1001 C998 1.403 . S
C1001 C1002 1.392 . S
C1001 C1005 1.495 . S
C1002 C1001 1.392 . S
C1002 C1003 1.385 1_565 S
C1002 C1004 1.478 . S
C1003 H997 0.930 . S
C1003 C999 1.400 . S
C1003 C1002 1.385 1_545 S
C1004 C1002 1.478 . S
C1004 C1006 1.381 1_565 S
C1004 C1010 1.383 . S
C1005 C1001 1.495 . S
C1005 H1011 0.959 . S
C1005 H1012 0.961 . S
C1005 H1013 0.960 . S
C1006 C1004 1.381 1_545 S
C1006 C1007 1.394 . S
C1006 H1014 0.930 . S
C1007 C1006 1.394 . S
C1007 C1008 1.383 1_545 S
C1007 H1015 0.929 . S
C1008 C1007 1.383 1_565 S
C1008 C1009 1.377 . S
C1009 H993 0.930 . S
C1009 C1008 1.377 . S
C1009 C1010 1.379 . S
C1010 H994 0.931 . S
C1010 C1004 1.383 . S
C1010 C1009 1.379 . S
H1011 C1005 0.959 . S
H1012 C1005 0.961 . S
H1013 C1005 0.960 . S
H1014 C1006 0.930 . S
H1015 C1007 0.929 . S
H1016 C1024 0.929 . S
H1017 C1026 0.930 . S
H1018 C1028 0.930 . S
H1019 C1031 0.929 . S
H1020 C1034 0.930 . S
H1021 C1036 0.960 . S
H1022 C1036 0.960 . S
H1023 C1036 0.960 . S
C1024 H1016 0.929 . S
C1024 C1025 1.377 . S
C1024 C1026 1.384 . S
C1025 C1024 1.377 . S
C1025 C1031 1.390 . S
C1026 H1017 0.930 . S
C1026 C1024 1.384 . S
C1026 C1027 1.372 . S
C1027 C1026 1.372 . S
C1027 C1028 1.400 . S
C1027 C1032 1.490 . S
C1028 H1018 0.930 . S
C1028 C1027 1.400 . S
C1028 C1031 1.386 . S
H1029 C1045 0.930 . S
H1030 C1046 0.931 . S
C1031 H1019 0.929 . S
C1031 C1025 1.390 . S
C1031 C1028 1.386 . S
C1032 C1027 1.490 . S
C1032 C1034 1.395 . S
C1032 C1035 1.403 . S
H1033 C1039 0.930 . S
C1034 H1020 0.930 . S
C1034 C1032 1.395 . S
C1034 C1037 1.403 . S
C1035 C1032 1.403 . S
C1035 C1036 1.524 . S
C1035 C1039 1.400 . S
C1036 H1021 0.960 . S
C1036 H1022 0.960 . S
C1036 H1023 0.960 . S
C1036 C1035 1.524 . S
C1037 C1034 1.403 . S
C1037 C1038 1.392 . S
C1037 C1041 1.495 . S
C1038 C1037 1.392 . S
C1038 C1039 1.385 . S
C1038 C1040 1.478 . S
C1039 H1033 0.930 . S
C1039 C1035 1.400 . S
C1039 C1038 1.385 . S
C1040 C1038 1.478 . S
C1040 C1042 1.381 . S
C1040 C1046 1.383 . S
C1041 C1037 1.495 . S
C1041 H1047 0.959 . S
C1041 H1048 0.961 . S
C1041 H1049 0.960 . S
C1042 C1040 1.381 . S
C1042 C1043 1.394 . S
C1042 H1050 0.930 . S
C1043 C1042 1.394 . S
C1043 C1044 1.383 . S
C1043 H1051 0.929 . S
C1044 C1043 1.383 . S
C1044 C1045 1.377 . S
C1045 H1029 0.930 . S
C1045 C1044 1.377 . S
C1045 C1046 1.379 . S
C1046 H1030 0.931 . S
C1046 C1040 1.383 . S
C1046 C1045 1.379 . S
H1047 C1041 0.959 . S
H1048 C1041 0.961 . S
H1049 C1041 0.960 . S
H1050 C1042 0.930 . S
H1051 C1043 0.929 . S
H1052 C1060 0.929 . S
H1053 C1062 0.930 . S
H1054 C1064 0.930 . S
H1055 C1067 0.929 . S
H1056 C1070 0.930 . S
H1057 C1072 0.960 . S
H1058 C1072 0.960 . S
H1059 C1072 0.960 . S
C1060 H1052 0.929 . S
C1060 C1061 1.377 . S
C1060 C1062 1.384 . S
C1061 C1060 1.377 . S
C1061 C1067 1.390 . S
C1062 H1053 0.930 . S
C1062 C1060 1.384 . S
C1062 C1063 1.372 . S
C1063 C1062 1.372 . S
C1063 C1064 1.400 . S
C1063 C1068 1.490 . S
C1064 H1054 0.930 . S
C1064 C1063 1.400 . S
C1064 C1067 1.386 . S
H1065 C1081 0.930 . S
H1066 C1082 0.931 . S
C1067 H1055 0.929 . S
C1067 C1061 1.390 . S
C1067 C1064 1.386 . S
C1068 C1063 1.490 . S
C1068 C1070 1.395 . S
C1068 C1071 1.403 . S
H1069 C1075 0.930 . S
C1070 H1056 0.930 . S
C1070 C1068 1.395 . S
C1070 C1073 1.403 . S
C1071 C1068 1.403 . S
C1071 C1072 1.524 . S
C1071 C1075 1.400 . S
C1072 H1057 0.960 . S
C1072 H1058 0.960 . S
C1072 H1059 0.960 . S
C1072 C1071 1.524 . S
C1073 C1070 1.403 . S
C1073 C1074 1.392 . S
C1073 C1077 1.495 . S
C1074 C1073 1.392 . S
C1074 C1075 1.385 . S
C1074 C1076 1.478 . S
C1075 H1069 0.930 . S
C1075 C1071 1.400 . S
C1075 C1074 1.385 . S
C1076 C1074 1.478 . S
C1076 C1078 1.381 . S
C1076 C1082 1.383 . S
C1077 C1073 1.495 . S
C1077 H1083 0.959 . S
C1077 H1084 0.961 . S
C1077 H1085 0.960 . S
C1078 C1076 1.381 . S
C1078 C1079 1.394 . S
C1078 H1086 0.930 . S
C1079 C1078 1.394 . S
C1079 C1080 1.383 . S
C1079 H1087 0.929 . S
C1080 C1079 1.383 . S
C1080 C1081 1.377 . S
C1081 H1065 0.930 . S
C1081 C1080 1.377 . S
C1081 C1082 1.379 . S
C1082 H1066 0.931 . S
C1082 C1076 1.383 . S
C1082 C1081 1.379 . S
H1083 C1077 0.959 . S
H1084 C1077 0.961 . S
H1085 C1077 0.960 . S
H1086 C1078 0.930 . S
H1087 C1079 0.929 . S
C233 C74 1.809 1_565 S
C252 C105 1.824 . S
C288 C126 1.533 . S
C269 C85 1.521 . S
C324 C160 1.269 . S
C305 C52 1.271 . S
C360 C194 1.538 . S
C341 C63 1.538 . S
C396 C96 1.819 . S
C377 C30 1.807 1_556 S
C413 C41 1.502 1_556 S
C432 C135 1.532 . S
C449 C8 1.271 . S
C468 C169 1.266 . S
C485 C19 1.508 . S
C504 C203 1.540 . S
C540 C117 0.327 . S
C521 C62 0.182 . S
C576 C122 0.719 . S
C557 C73 0.723 1_565 S
C612 C156 0.645 . S
C593 C84 0.673 . S
C629 C51 0.340 . S
C648 C190 0.211 . S
C665 C18 0.460 . S
C684 C88 0.323 . S
C720 C151 0.727 . S
C701 C29 0.719 1_566 S
C756 C185 0.644 . S
C737 C40 0.668 . S
C773 C7 0.333 . S
C792 C219 0.232 . S
C809 C60 1.135 . S
C828 C101 1.285 . S
C845 C71 1.468 . S
C864 C130 1.744 . S
C900 C164 1.539 . S
C881 C82 1.343 . S
C936 C198 1.589 . S
C917 C49 1.308 . S
C953 C16 1.039 . S
C972 C92 1.284 . S
C1008 C139 1.746 . S
C989 C27 1.465 . S
C1044 C173 1.532 . S
C1025 C38 1.264 . S
C1061 C5 1.360 . S
C1080 C207 1.588 . S
