# Generated by pormake.
# Topology anh, (6,3)-cn, num edge types: 1
# Building blocks:
#     Node 0, Type 0, BuildingBlock: VOLQOD_clean_sbu_1, # of connection points: 6
#     Node 1, Type 0, BuildingBlock: VOLQOD_clean_sbu_1, # of connection points: 6
#     Node 2, Type 0, BuildingBlock: VOLQOD_clean_sbu_1, # of connection points: 6
#     Node 3, Type 1, BuildingBlock: OLANEW_clean_sbu_2, # of connection points: 3
#     Node 4, Type 1, BuildingBlock: OLANEW_clean_sbu_2, # of connection points: 3
#     Node 5, Type 1, BuildingBlock: OLANEW_clean_sbu_2, # of connection points: 3
#     Node 6, Type 1, BuildingBlock: OLANEW_clean_sbu_2, # of connection points: 3
#     Node 7, Type 1, BuildingBlock: OLANEW_clean_sbu_2, # of connection points: 3
#     Node 8, Type 1, BuildingBlock: OLANEW_clean_sbu_2, # of connection points: 3
#     Edge 9, Type (0, 1), BuildingBlock: EZIPEK_clean_linker_0, # of connection points: 2
#     Edge 10, Type (0, 1), BuildingBlock: EZIPEK_clean_linker_0, # of connection points: 2
#     Edge 11, Type (0, 1), BuildingBlock: EZIPEK_clean_linker_0, # of connection points: 2
#     Edge 12, Type (0, 1), BuildingBlock: EZIPEK_clean_linker_0, # of connection points: 2
#     Edge 13, Type (0, 1), BuildingBlock: EZIPEK_clean_linker_0, # of connection points: 2
#     Edge 14, Type (0, 1), BuildingBlock: EZIPEK_clean_linker_0, # of connection points: 2
#     Edge 15, Type (0, 1), BuildingBlock: EZIPEK_clean_linker_0, # of connection points: 2
#     Edge 16, Type (0, 1), BuildingBlock: EZIPEK_clean_linker_0, # of connection points: 2
#     Edge 17, Type (0, 1), BuildingBlock: EZIPEK_clean_linker_0, # of connection points: 2
#     Edge 18, Type (0, 1), BuildingBlock: EZIPEK_clean_linker_0, # of connection points: 2
#     Edge 19, Type (0, 1), BuildingBlock: EZIPEK_clean_linker_0, # of connection points: 2
#     Edge 20, Type (0, 1), BuildingBlock: EZIPEK_clean_linker_0, # of connection points: 2
#     Edge 21, Type (0, 1), BuildingBlock: EZIPEK_clean_linker_0, # of connection points: 2
#     Edge 22, Type (0, 1), BuildingBlock: EZIPEK_clean_linker_0, # of connection points: 2
#     Edge 23, Type (0, 1), BuildingBlock: EZIPEK_clean_linker_0, # of connection points: 2
#     Edge 24, Type (0, 1), BuildingBlock: EZIPEK_clean_linker_0, # of connection points: 2
#     Edge 25, Type (0, 1), BuildingBlock: EZIPEK_clean_linker_0, # of connection points: 2
#     Edge 26, Type (0, 1), BuildingBlock: EZIPEK_clean_linker_0, # of connection points: 2
# Relax obj value: 0.162
# Max RMSD: 0.206
# Mean RMSD: 0.139
data_MOF--net-anh--node1-VOLQOD_clean_sbu_1--node2-OLANEW_clean_sbu_2--edge1-EZIPEK_clean_linker_0
_symmetry_space_group_name_H-M    P1
_symmetry_Int_Tables_number       1
_symmetry_cell_setting            triclinic
loop_
_symmetry_equiv_pos_as_xyz
'x, y, z'
_cell_length_a     24.134955
_cell_length_b     24.072225
_cell_length_c     43.767211
_cell_angle_alpha  90.083165
_cell_angle_beta   89.68959
_cell_angle_gamma 120.4078
loop_
_atom_site_label
_atom_site_type_symbol
_atom_site_fract_x
_atom_site_fract_y
_atom_site_fract_z
_atom_type_partial_charge
O0 O 0.98897 0.57984 0.2208 0.0
Zn1 Zn 0.98968 0.61057 0.17813 0.0
O2 O 0.02039 0.56966 0.14983 0.0
Zn3 Zn 0.95643 0.52112 0.11887 0.0
Zn4 Zn 0.03798 0.51075 0.17202 0.0
Zn5 Zn 0.09831 0.63412 0.13029 0.0
O6 O 0.99178 0.54867 0.076 0.0
O7 O 0.08526 0.6379 0.08526 0.0
O8 O 0.8982 0.58583 0.16872 0.0
O9 O 0.87955 0.53036 0.12548 0.0
O10 O 0.91634 0.42538 0.12526 0.0
O11 O 0.96347 0.42162 0.16763 0.0
O12 O 0.11901 0.51552 0.15665 0.0
O13 O 0.05044 0.7065 0.17988 0.0
O14 O 0.1666 0.61015 0.1327 0.0
O15 O 0.13048 0.72035 0.14988 0.0
C16 C 0.01449 0.55034 0.23301 0.0
C17 C 0.04319 0.59834 0.06675 0.0
C18 C 0.91974 0.39363 0.14771 0.0
C19 C 0.86109 0.55291 0.14698 0.0
C20 C 0.16651 0.56005 0.14202 0.0
C21 C 0.10591 0.74304 0.16835 0.0
O22 O 0.04156 0.52618 0.21723 0.0
O23 O 0.45131 0.01659 0.43027 0.0
Zn24 Zn 0.41378 0.9801 0.47161 0.0
O25 O 0.48015 0.98018 0.4969 0.0
Zn26 Zn 0.51209 0.048 0.52744 0.0
Zn27 Zn 0.54969 0.99075 0.46987 0.0
Zn28 Zn 0.444 0.89998 0.51854 0.0
O29 O 0.50168 0.01513 0.57109 0.0
O30 O 0.43872 0.90987 0.56361 0.0
O31 O 0.38579 0.04039 0.48885 0.0
O32 O 0.46141 0.09195 0.52401 0.0
O33 O 0.60292 0.11712 0.51798 0.0
O34 O 0.62687 0.0786 0.47686 0.0
O35 O 0.57309 0.92205 0.47704 0.0
O36 O 0.33923 0.8881 0.46563 0.0
O37 O 0.49884 0.86119 0.5116 0.0
O38 O 0.35747 0.8369 0.5029 0.0
C39 C 0.49409 0.01412 0.41416 0.0
C40 C 0.4671 0.95802 0.58135 0.0
C41 C 0.64097 0.12317 0.49628 0.0
C42 C 0.41352 0.08472 0.50876 0.0
C43 C 0.54714 0.87367 0.49496 0.0
C44 C 0.32345 0.8369 0.48083 0.0
O45 O 0.52872 0.9931 0.42528 0.0
O46 O 0.46585 0.44549 0.7785 0.0
Zn47 Zn 0.43086 0.41287 0.82076 0.0
O48 O 0.50059 0.44986 0.84988 0.0
Zn49 Zn 0.48841 0.49969 0.88076 0.0
Zn50 Zn 0.57844 0.50675 0.82837 0.0
Zn51 Zn 0.51014 0.38431 0.86949 0.0
O52 O 0.48746 0.46626 0.92325 0.0
O53 O 0.47762 0.37101 0.91265 0.0
O54 O 0.36387 0.43771 0.8308 0.0
O55 O 0.40508 0.49477 0.87327 0.0
O56 O 0.54984 0.5951 0.87562 0.0
O57 O 0.5909 0.59525 0.83042 0.0
O58 O 0.65305 0.50547 0.84751 0.0
O59 O 0.39523 0.31689 0.81716 0.0
O60 O 0.60386 0.41336 0.87363 0.0
O61 O 0.46433 0.30295 0.84516 0.0
C62 C 0.52171 0.46658 0.76711 0.0
C63 C 0.47753 0.41119 0.93159 0.0
C64 C 0.58011 0.62503 0.85153 0.0
C65 C 0.36238 0.47213 0.85263 0.0
C66 C 0.65476 0.4637 0.86468 0.0
C67 C 0.41807 0.28222 0.82625 0.0
O68 O 0.57082 0.48434 0.78388 0.0
O69 O 0.59493 0.20919 0.30105 0.0
Cd70 Cd 0.61394 0.27472 0.25566 0.0
O71 O 0.51505 0.13478 0.27509 0.0
Cd72 Cd 0.42863 0.04444 0.26395 0.0
O73 O 0.3445 0.98886 0.23543 0.0
C74 C 0.30508 0.92953 0.24001 0.0
O75 O 0.31349 0.89998 0.26317 0.0
C76 C 0.54728 0.15223 0.29966 0.0
C77 C 0.70298 0.2742 0.21525 0.0
O78 O 0.72049 0.3142 0.23748 0.0
O79 O 0.64322 0.23203 0.21274 0.0
O80 O 0.53279 0.44482 0.61753 0.0
Cd81 Cd 0.51773 0.44963 0.56267 0.0
O82 O 0.54604 0.5412 0.62457 0.0
Cd83 Cd 0.55767 0.56535 0.57616 0.0
O84 O 0.57363 0.62819 0.5374 0.0
C85 C 0.57947 0.68139 0.54572 0.0
O86 O 0.57937 0.69299 0.57506 0.0
C87 C 0.53916 0.48919 0.63545 0.0
C88 C 0.45256 0.32513 0.53995 0.0
O89 O 0.51405 0.35852 0.53972 0.0
O90 O 0.42098 0.35101 0.55006 0.0
O91 O 0.21416 0.71725 0.95014 0.0
Cd92 Cd 0.27328 0.74813 0.90205 0.0
O93 O 0.13686 0.64552 0.92169 0.0
Cd94 Cd 0.03942 0.56815 0.91364 0.0
O95 O 0.94241 0.52591 0.89642 0.0
C96 C 0.8988 0.52049 0.91456 0.0
O97 O 0.91261 0.53635 0.94342 0.0
C98 C 0.15726 0.67001 0.94785 0.0
C99 C 0.27688 0.64269 0.87871 0.0
O100 O 0.32024 0.68239 0.89694 0.0
O101 O 0.23142 0.65259 0.87109 0.0
O102 O 0.00756 0.4703 0.37419 0.0
Cd103 Cd 0.01878 0.46151 0.42883 0.0
O104 O 0.95722 0.52465 0.37987 0.0
Cd105 Cd 0.93391 0.49211 0.42714 0.0
O106 O 0.87608 0.41716 0.46039 0.0
C107 C 0.84985 0.36021 0.44989 0.0
O108 O 0.86266 0.35116 0.42174 0.0
C109 C 0.98497 0.50319 0.36283 0.0
C110 C 0.11375 0.58353 0.44787 0.0
O111 O 0.12756 0.54509 0.43408 0.0
O112 O 0.05452 0.56361 0.45368 0.0
O113 O 0.42626 0.82095 0.71037 0.0
Cd114 Cd 0.39099 0.76948 0.7604 0.0
O115 O 0.38477 0.87858 0.72567 0.0
Cd116 Cd 0.36123 0.95438 0.72188 0.0
O117 O 0.36452 0.04099 0.73876 0.0
C118 C 0.3499 0.04197 0.76661 0.0
O119 O 0.32911 0.98988 0.78339 0.0
C120 C 0.41267 0.86449 0.70497 0.0
C121 C 0.48153 0.75633 0.79363 0.0
O122 O 0.44642 0.71458 0.77359 0.0
O123 O 0.47595 0.80611 0.79733 0.0
O124 O 0.47352 0.29241 0.06457 0.0
Cd125 Cd 0.47674 0.28247 0.11965 0.0
O126 O 0.4435 0.35987 0.07922 0.0
Cd127 Cd 0.41372 0.43023 0.07282 0.0
O128 O 0.35231 0.46883 0.08448 0.0
C129 C 0.36684 0.50852 0.10634 0.0
O130 O 0.42186 0.53013 0.12048 0.0
C131 C 0.45873 0.33447 0.0578 0.0
C132 C 0.59354 0.38666 0.13723 0.0
O133 O 0.58747 0.33173 0.13134 0.0
O134 O 0.54353 0.39223 0.13635 0.0
C135 C 0.25355 0.53699 0.1562 0.0
C136 C 0.22095 0.5512 0.13345 0.0
C137 C 0.29411 0.55117 0.09447 0.0
C138 C 0.32023 0.52767 0.1164 0.0
N139 N 0.31646 0.48712 0.1674 0.0
N140 N 0.2021 0.55903 0.07974 0.0
C141 C 0.29808 0.5179 0.14717 0.0
C142 C 0.23915 0.55517 0.10223 0.0
N143 N 0.24329 0.54329 0.18643 0.0
N144 N 0.32268 0.57116 0.06644 0.0
H145 H 0.15966 0.55912 0.08409 0.0
H146 H 0.20982 0.55528 0.05657 0.0
H147 H 0.36419 0.57062 0.06021 0.0
H148 H 0.30924 0.59457 0.0507 0.0
H149 H 0.27059 0.53978 0.20387 0.0
H150 H 0.21197 0.55844 0.19392 0.0
H151 H 0.29618 0.47274 0.1891 0.0
H152 H 0.34723 0.47018 0.16165 0.0
C153 C 0.75966 0.1976 0.48998 0.0
C154 C 0.69659 0.1877 0.48957 0.0
C155 C 0.73821 0.29804 0.47099 0.0
C156 C 0.79979 0.30479 0.46745 0.0
N157 N 0.87047 0.26208 0.47285 0.0
N158 N 0.62374 0.22481 0.47572 0.0
C159 C 0.81099 0.25494 0.47693 0.0
C160 C 0.68531 0.23725 0.4795 0.0
N161 N 0.7703 0.15253 0.5033 0.0
N162 N 0.72979 0.34925 0.46564 0.0
H163 H 0.58303 0.18079 0.48099 0.0
H164 H 0.61246 0.2562 0.4648 0.0
H165 H 0.76617 0.3937 0.45766 0.0
H166 H 0.68797 0.3494 0.47146 0.0
H167 H 0.81578 0.15902 0.50692 0.0
H168 H 0.73343 0.11028 0.51306 0.0
H169 H 0.88025 0.22501 0.47582 0.0
H170 H 0.90998 0.30494 0.46514 0.0
C171 C 0.60878 0.7154 0.81465 0.0
C172 C 0.58499 0.68796 0.84377 0.0
C173 C 0.51253 0.73081 0.84412 0.0
C174 C 0.52584 0.74546 0.81254 0.0
N175 N 0.59338 0.76248 0.76865 0.0
N176 N 0.54626 0.70464 0.8915 0.0
C177 C 0.57717 0.74233 0.79822 0.0
C178 C 0.54739 0.70747 0.86036 0.0
N179 N 0.66193 0.71605 0.80336 0.0
N180 N 0.46339 0.73404 0.85799 0.0
H181 H 0.57563 0.69205 0.90347 0.0
H182 H 0.52316 0.72232 0.90515 0.0
H183 H 0.43642 0.75075 0.847 0.0
H184 H 0.4467 0.71618 0.87986 0.0
H185 H 0.68435 0.73747 0.78281 0.0
H186 H 0.68696 0.69973 0.81644 0.0
H187 H 0.62559 0.75556 0.75565 0.0
H188 H 0.57315 0.78544 0.75679 0.0
C189 C 0.75717 0.47562 0.17237 0.0
C190 C 0.79098 0.52513 0.15034 0.0
C191 C 0.69062 0.49283 0.12325 0.0
C192 C 0.65762 0.44187 0.14459 0.0
N193 N 0.65408 0.39696 0.19404 0.0
N194 N 0.78943 0.59148 0.10988 0.0
C195 C 0.68926 0.43768 0.17079 0.0
C196 C 0.75724 0.5374 0.12751 0.0
N197 N 0.78999 0.46116 0.19325 0.0
N198 N 0.65934 0.49625 0.09802 0.0
H199 H 0.83825 0.62451 0.11287 0.0
H200 H 0.76711 0.60652 0.09439 0.0
H201 H 0.61023 0.4658 0.09465 0.0
H202 H 0.68236 0.52718 0.07971 0.0
H203 H 0.76821 0.42059 0.20716 0.0
H204 H 0.83973 0.4869 0.19555 0.0
H205 H 0.67346 0.39612 0.21512 0.0
H206 H 0.60408 0.36856 0.19331 0.0
C207 C 0.20806 0.76502 0.46354 0.0
C208 C 0.26909 0.77354 0.47093 0.0
C209 C 0.22389 0.65699 0.4685 0.0
C210 C 0.16559 0.64899 0.45692 0.0
N211 N 0.109 0.69962 0.43617 0.0
N212 N 0.33841 0.72781 0.46995 0.0
C213 C 0.15931 0.70415 0.45239 0.0
C214 C 0.27808 0.71959 0.47029 0.0
N215 N 0.19551 0.81373 0.4681 0.0
N216 N 0.22739 0.6054 0.47898 0.0
H217 H 0.37994 0.77297 0.46847 0.0
H218 H 0.34667 0.68957 0.4671 0.0
H219 H 0.18757 0.55902 0.48033 0.0
H220 H 0.26801 0.61038 0.48985 0.0
H221 H 0.14973 0.80746 0.46573 0.0
H222 H 0.229 0.85824 0.47722 0.0
H223 H 0.10595 0.7398 0.42999 0.0
H224 H 0.07429 0.65718 0.42587 0.0
C225 C 0.33526 0.16782 0.81324 0.0
C226 C 0.39863 0.22095 0.81035 0.0
C227 C 0.43051 0.15536 0.78071 0.0
C228 C 0.36596 0.10371 0.78128 0.0
N229 N 0.25456 0.06331 0.79388 0.0
N230 N 0.50217 0.27018 0.78511 0.0
C231 C 0.31754 0.11056 0.79641 0.0
C232 C 0.44497 0.21618 0.79223 0.0
N233 N 0.29279 0.1714 0.83276 0.0
N234 N 0.47875 0.14568 0.77067 0.0
H235 H 0.51455 0.31621 0.79257 0.0
H236 H 0.53453 0.27028 0.76923 0.0
H237 H 0.47098 0.10127 0.76302 0.0
H238 H 0.52728 0.18 0.77293 0.0
H239 H 0.24813 0.13205 0.83838 0.0
H240 H 0.30423 0.21281 0.84522 0.0
H241 H 0.21649 0.06825 0.80175 0.0
H242 H 0.23991 0.021 0.78157 0.0
C243 C 0.53225 0.76552 0.48696 0.0
C244 C 0.57217 0.82932 0.49719 0.0
C245 C 0.63399 0.79473 0.52743 0.0
C246 C 0.58428 0.72988 0.52345 0.0
N247 N 0.48539 0.65238 0.49858 0.0
N248 N 0.66459 0.90745 0.52514 0.0
C249 C 0.5341 0.71455 0.50225 0.0
C250 C 0.62525 0.8451 0.51624 0.0
N251 N 0.49176 0.75413 0.46306 0.0
N252 N 0.68909 0.80766 0.54208 0.0
H253 H 0.66052 0.94549 0.51636 0.0
H254 H 0.69935 0.92109 0.54202 0.0
H255 H 0.69668 0.77113 0.54995 0.0
H256 H 0.72925 0.85364 0.54373 0.0
H257 H 0.46495 0.70928 0.45269 0.0
H258 H 0.49041 0.79155 0.4517 0.0
H259 H 0.44375 0.63989 0.48639 0.0
H260 H 0.48422 0.61316 0.5092 0.0
C261 C 0.74036 0.43491 0.87179 0.0
C262 C 0.71694 0.47744 0.87741 0.0
C263 C 0.81482 0.55013 0.90535 0.0
C264 C 0.8356 0.5048 0.9023 0.0
N265 N 0.81376 0.39924 0.8871 0.0
N266 N 0.72462 0.56749 0.90559 0.0
C267 C 0.79715 0.44575 0.88673 0.0
C268 C 0.75207 0.5328 0.89592 0.0
N269 N 0.70958 0.38554 0.85143 0.0
N270 N 0.85595 0.61092 0.91586 0.0
H271 H 0.67801 0.5557 0.89987 0.0
H272 H 0.74565 0.60406 0.9218 0.0
H273 H 0.90323 0.62666 0.92215 0.0
H274 H 0.84529 0.64779 0.91535 0.0
H275 H 0.72811 0.35708 0.84396 0.0
H276 H 0.66805 0.37644 0.83993 0.0
H277 H 0.78419 0.35275 0.87888 0.0
H278 H 0.85465 0.40525 0.89812 0.0
C279 C 0.13481 0.82601 0.21009 0.0
C280 C 0.14854 0.80896 0.18122 0.0
C281 C 0.26284 0.88663 0.18766 0.0
C282 C 0.25069 0.8936 0.21885 0.0
N283 N 0.17535 0.87536 0.25953 0.0
N284 N 0.21749 0.84913 0.13727 0.0
C285 C 0.18657 0.86546 0.22994 0.0
C286 C 0.21023 0.84795 0.16826 0.0
N287 N 0.073 0.80843 0.21742 0.0
N288 N 0.3245 0.91258 0.17712 0.0
H289 H 0.17811 0.82408 0.12284 0.0
H290 H 0.26017 0.88039 0.12593 0.0
H291 H 0.36475 0.9402 0.19061 0.0
H292 H 0.33594 0.9026 0.1556 0.0
H293 H 0.05978 0.82243 0.23738 0.0
H294 H 0.03606 0.78737 0.20146 0.0
H295 H 0.13059 0.84978 0.27014 0.0
H296 H 0.21167 0.90752 0.27403 0.0
C297 C 0.42006 0.18556 0.48993 0.0
C298 C 0.39697 0.13562 0.51208 0.0
C299 C 0.39136 0.20636 0.55058 0.0
C300 C 0.41988 0.25776 0.5292 0.0
N301 N 0.44162 0.29279 0.4769 0.0
N302 N 0.34248 0.09113 0.55955 0.0
C303 C 0.42724 0.2459 0.4982 0.0
C304 C 0.37587 0.14363 0.54107 0.0
N305 N 0.43991 0.17703 0.4619 0.0
N306 N 0.38339 0.21839 0.58032 0.0
H307 H 0.33111 0.04501 0.55261 0.0
H308 H 0.32134 0.09205 0.58019 0.0
H309 H 0.39311 0.26349 0.58793 0.0
H310 H 0.36991 0.18462 0.5978 0.0
H311 H 0.46529 0.21423 0.44633 0.0
H312 H 0.43341 0.13291 0.4546 0.0
H313 H 0.44238 0.28563 0.45347 0.0
H314 H 0.44681 0.3373 0.48263 0.0
C315 C 0.28061 0.48731 0.87942 0.0
C316 C 0.31697 0.49637 0.85252 0.0
C317 C 0.30293 0.58682 0.83779 0.0
C318 C 0.27921 0.58595 0.86756 0.0
N319 N 0.23953 0.53348 0.91616 0.0
N320 N 0.3602 0.5519 0.80465 0.0
C321 C 0.26516 0.53483 0.88805 0.0
C322 C 0.32566 0.54404 0.83078 0.0
N323 N 0.26235 0.43359 0.89678 0.0
N324 N 0.30516 0.6296 0.81661 0.0
H325 H 0.37546 0.52031 0.79792 0.0
H326 H 0.37577 0.59093 0.78993 0.0
H327 H 0.29092 0.66298 0.82147 0.0
H328 H 0.31593 0.62869 0.79362 0.0
H329 H 0.2322 0.42107 0.91576 0.0
H330 H 0.27334 0.39844 0.89036 0.0
H331 H 0.23443 0.50177 0.93355 0.0
H332 H 0.22526 0.56617 0.92253 0.0
C333 C 0.86156 0.30187 0.18437 0.0
C334 C 0.86189 0.33061 0.15617 0.0
C335 C 0.74799 0.29394 0.16169 0.0
C336 C 0.75138 0.27881 0.1928 0.0
N337 N 0.80534 0.25448 0.23216 0.0
N338 N 0.79906 0.31726 0.11164 0.0
C339 C 0.80606 0.27714 0.20346 0.0
C340 C 0.80258 0.31389 0.14261 0.0
N341 N 0.91451 0.2988 0.19236 0.0
N342 N 0.69547 0.295 0.15102 0.0
H343 H 0.8386 0.32861 0.09764 0.0
H344 H 0.7561 0.30148 0.1 0.0
H345 H 0.65426 0.28106 0.16404 0.0
H346 H 0.69448 0.31375 0.12973 0.0
H347 H 0.91818 0.27707 0.21215 0.0
H348 H 0.95341 0.31419 0.17734 0.0
H349 H 0.84517 0.25721 0.24268 0.0
H350 H 0.76392 0.23286 0.24571 0.0
C351 C 0.07438 0.56747 0.01759 0.0
C352 C 0.0582 0.60863 0.0337 0.0
C353 C 0.09773 0.68538 0.99108 0.0
C354 C 0.1156 0.64514 0.97534 0.0
N355 N 0.10748 0.54145 0.96988 0.0
N356 N 0.03954 0.69769 0.0336 0.0
C357 C 0.09895 0.58378 0.98728 0.0
C358 C 0.06518 0.66484 0.01967 0.0
N359 N 0.07055 0.5152 0.03198 0.0
N360 N 0.11296 0.74371 0.97887 0.0
H361 H 0.01477 0.68294 0.05437 0.0
H362 H 0.03773 0.73591 0.02359 0.0
H363 H 0.13243 0.75813 0.957 0.0
H364 H 0.10865 0.77889 0.99069 0.0
H365 H 0.08981 0.48844 0.02307 0.0
H366 H 0.05194 0.50072 0.05395 0.0
H367 H 0.08962 0.4935 0.9759 0.0
H368 H 0.12793 0.55245 0.94812 0.0
C369 C 0.45532 0.03127 0.36366 0.0
C370 C 0.50722 0.04184 0.38274 0.0
C371 C 0.58206 0.10809 0.34235 0.0
C372 C 0.53127 0.10847 0.32639 0.0
N373 N 0.41932 0.07914 0.32605 0.0
N374 N 0.62203 0.1056 0.39222 0.0
C375 C 0.46753 0.07198 0.33795 0.0
C376 C 0.57135 0.084 0.37262 0.0
N377 N 0.39455 0.98196 0.36972 0.0
N378 N 0.64053 0.13023 0.32864 0.0
H379 H 0.61703 0.09501 0.41545 0.0
H380 H 0.66857 0.14095 0.38609 0.0
H381 H 0.64946 0.14546 0.30591 0.0
H382 H 0.67732 0.12606 0.33872 0.0
H383 H 0.35618 0.96935 0.35498 0.0
H384 H 0.38424 0.94923 0.38749 0.0
H385 H 0.37354 0.05779 0.33577 0.0
H386 H 0.42659 0.11163 0.30863 0.0
C387 C 0.48998 0.41614 0.71527 0.0
C388 C 0.52941 0.47084 0.73349 0.0
C389 C 0.58416 0.53169 0.68741 0.0
C390 C 0.53781 0.48071 0.66909 0.0
N391 N 0.43792 0.37849 0.66652 0.0
N392 N 0.60573 0.58519 0.73631 0.0
C393 C 0.48845 0.42373 0.6832 0.0
C394 C 0.57447 0.52994 0.71946 0.0
N395 N 0.45513 0.35662 0.72842 0.0
N396 N 0.63857 0.58082 0.67443 0.0
H397 H 0.59828 0.58692 0.75969 0.0
H398 H 0.63398 0.63053 0.72646 0.0
H399 H 0.64923 0.58226 0.65121 0.0
H400 H 0.67638 0.61602 0.68724 0.0
H401 H 0.43069 0.31435 0.71572 0.0
H402 H 0.45619 0.34873 0.75178 0.0
H403 H 0.39782 0.33944 0.67649 0.0
H404 H 0.43233 0.38325 0.64327 0.0
C405 C 0.39528 0.92449 0.62701 0.0
C406 C 0.45725 0.94614 0.61462 0.0
C407 C 0.49323 0.92891 0.66411 0.0
C408 C 0.42874 0.89754 0.67487 0.0
N409 N 0.31643 0.85902 0.66528 0.0
N410 N 0.56503 0.96588 0.62026 0.0
C411 C 0.37925 0.89434 0.65616 0.0
C412 C 0.50651 0.94823 0.63295 0.0
N413 N 0.35194 0.93329 0.61089 0.0
N414 N 0.54188 0.94163 0.68389 0.0
H415 H 0.57696 0.9818 0.59773 0.0
H416 H 0.60026 0.96084 0.6314 0.0
H417 H 0.53391 0.92929 0.707 0.0
H418 H 0.59033 0.96974 0.67818 0.0
H419 H 0.30821 0.92448 0.61994 0.0
H420 H 0.3625 0.95553 0.58949 0.0
H421 H 0.27799 0.84897 0.65108 0.0
H422 H 0.30202 0.83485 0.68614 0.0
C423 C 0.41461 0.37369 0.98047 0.0
C424 C 0.47332 0.3959 0.96445 0.0
C425 C 0.52399 0.38547 0.01073 0.0
C426 C 0.46345 0.35648 0.02584 0.0
N427 N 0.34945 0.31634 0.02462 0.0
N428 N 0.58305 0.41917 0.96292 0.0
C429 C 0.4083 0.34928 0.01069 0.0
C430 C 0.52778 0.40068 0.97919 0.0
N431 N 0.3651 0.37616 0.96679 0.0
N432 N 0.57839 0.40124 0.0269 0.0
H433 H 0.58943 0.43491 0.94029 0.0
H434 H 0.6214 0.41547 0.97122 0.0
H435 H 0.57798 0.39152 0.05012 0.0
H436 H 0.62466 0.42904 0.01808 0.0
H437 H 0.32348 0.36723 0.97826 0.0
H438 H 0.36758 0.39195 0.94437 0.0
H439 H 0.30642 0.30343 0.01367 0.0
H440 H 0.34288 0.29724 0.0466 0.0
C441 C 0.96034 0.4769 0.27717 0.0
C442 C 0.00709 0.53871 0.26622 0.0
C443 C 0.03438 0.57911 0.31867 0.0
C444 C 0.991 0.51603 0.32963 0.0
N445 N 0.91614 0.40348 0.32015 0.0
N446 N 0.09263 0.64731 0.27532 0.0
C447 C 0.95507 0.46446 0.30909 0.0
C448 C 0.04501 0.58966 0.28664 0.0
N449 N 0.91921 0.43099 0.25708 0.0
N450 N 0.06534 0.62877 0.33891 0.0
H451 H 0.10111 0.65673 0.25197 0.0
H452 H 0.12657 0.68453 0.28879 0.0
H453 H 0.06172 0.62236 0.36255 0.0
H454 H 0.09194 0.67699 0.33253 0.0
H455 H 0.87932 0.38757 0.26371 0.0
H456 H 0.92185 0.43802 0.23348 0.0
H457 H 0.89507 0.36251 0.30647 0.0
H458 H 0.90732 0.39302 0.34339 0.0
loop_
_geom_bond_atom_site_label_1
_geom_bond_atom_site_label_2
_geom_bond_distance
_geom_bond_site_symmetry_2
_ccdc_geom_bond_type
O0 Zn1 1.953 . S
O0 C16 1.225 1_655 S
Zn1 O0 1.953 . S
Zn1 O2 1.949 1_655 S
Zn1 O8 1.919 . S
Zn1 O13 1.924 1_655 S
O2 Zn1 1.949 1_455 S
O2 Zn3 1.923 1_455 S
O2 Zn4 1.950 . S
O2 Zn5 1.945 . S
Zn3 O2 1.923 1_655 S
Zn3 O6 1.933 . S
Zn3 O9 1.941 . S
Zn3 O10 1.965 . S
Zn4 O2 1.950 . S
Zn4 O11 1.938 1_455 S
Zn4 O12 1.906 . S
Zn4 O22 1.953 . S
Zn5 O2 1.945 . S
Zn5 O7 1.932 . S
Zn5 O14 1.977 . S
Zn5 O15 1.910 . S
O6 Zn3 1.933 . S
O6 C17 1.226 1_655 S
O7 Zn5 1.932 . S
O7 C17 1.307 . S
O8 Zn1 1.919 . S
O8 C19 1.253 . S
O9 Zn3 1.941 . S
O9 C19 1.283 . S
O10 Zn3 1.965 . S
O10 C18 1.303 . S
O11 Zn4 1.938 1_655 S
O11 C18 1.247 . S
O12 Zn4 1.906 . S
O12 C20 1.304 . S
O13 Zn1 1.924 1_455 S
O13 C21 1.311 . S
O14 Zn5 1.977 . S
O14 C20 1.272 . S
O15 Zn5 1.910 . S
O15 C21 1.231 . S
C16 O0 1.225 1_455 S
C16 O22 1.298 . S
C17 O6 1.226 1_455 S
C17 O7 1.307 . S
C18 O10 1.303 . S
C18 O11 1.247 . S
C19 O8 1.253 . S
C19 O9 1.283 . S
C20 O12 1.304 . S
C20 O14 1.272 . S
C21 O13 1.311 . S
C21 O15 1.231 . S
O22 Zn4 1.953 . S
O22 C16 1.298 . S
O23 Zn24 1.953 . S
O23 C39 1.225 . S
Zn24 O23 1.953 . S
Zn24 O25 1.949 . S
Zn24 O31 1.919 . S
Zn24 O36 1.924 1_545 S
O25 Zn24 1.949 . S
O25 Zn26 1.923 . S
O25 Zn27 1.950 1_545 S
O25 Zn28 1.945 1_545 S
Zn26 O25 1.923 . S
Zn26 O29 1.933 . S
Zn26 O32 1.941 . S
Zn26 O33 1.965 . S
Zn27 O25 1.950 1_565 S
Zn27 O34 1.938 1_565 S
Zn27 O35 1.906 . S
Zn27 O45 1.953 . S
Zn28 O25 1.945 1_565 S
Zn28 O30 1.932 . S
Zn28 O37 1.977 . S
Zn28 O38 1.910 . S
O29 Zn26 1.933 . S
O29 C40 1.226 . S
O30 Zn28 1.932 . S
O30 C40 1.307 1_565 S
O31 Zn24 1.919 . S
O31 C42 1.253 . S
O32 Zn26 1.941 . S
O32 C42 1.283 . S
O33 Zn26 1.965 . S
O33 C41 1.303 . S
O34 Zn27 1.938 1_545 S
O34 C41 1.247 . S
O35 Zn27 1.906 . S
O35 C43 1.304 . S
O36 Zn24 1.924 1_565 S
O36 C44 1.311 . S
O37 Zn28 1.977 . S
O37 C43 1.272 . S
O38 Zn28 1.910 . S
O38 C44 1.231 . S
C39 O23 1.225 . S
C39 O45 1.298 1_545 S
C40 O29 1.226 . S
C40 O30 1.307 1_545 S
C41 O33 1.303 . S
C41 O34 1.247 . S
C42 O31 1.253 . S
C42 O32 1.283 . S
C43 O35 1.304 . S
C43 O37 1.272 . S
C44 O36 1.311 . S
C44 O38 1.231 . S
O45 Zn27 1.953 . S
O45 C39 1.298 1_565 S
O46 Zn47 1.953 . S
O46 C62 1.225 . S
Zn47 O46 1.953 . S
Zn47 O48 1.949 . S
Zn47 O54 1.919 . S
Zn47 O59 1.924 . S
O48 Zn47 1.949 . S
O48 Zn49 1.923 . S
O48 Zn50 1.950 . S
O48 Zn51 1.945 . S
Zn49 O48 1.923 . S
Zn49 O52 1.933 . S
Zn49 O55 1.941 . S
Zn49 O56 1.965 . S
Zn50 O48 1.950 . S
Zn50 O57 1.938 . S
Zn50 O58 1.906 . S
Zn50 O68 1.953 . S
Zn51 O48 1.945 . S
Zn51 O53 1.932 . S
Zn51 O60 1.977 . S
Zn51 O61 1.910 . S
O52 Zn49 1.933 . S
O52 C63 1.226 . S
O53 Zn51 1.932 . S
O53 C63 1.307 . S
O54 Zn47 1.919 . S
O54 C65 1.253 . S
O55 Zn49 1.941 . S
O55 C65 1.283 . S
O56 Zn49 1.965 . S
O56 C64 1.303 . S
O57 Zn50 1.938 . S
O57 C64 1.247 . S
O58 Zn50 1.906 . S
O58 C66 1.304 . S
O59 Zn47 1.924 . S
O59 C67 1.311 . S
O60 Zn51 1.977 . S
O60 C66 1.272 . S
O61 Zn51 1.910 . S
O61 C67 1.231 . S
C62 O46 1.225 . S
C62 O68 1.298 . S
C63 O52 1.226 . S
C63 O53 1.307 . S
C64 O56 1.303 . S
C64 O57 1.247 . S
C65 O54 1.253 . S
C65 O55 1.283 . S
C66 O58 1.304 . S
C66 O60 1.272 . S
C67 O59 1.311 . S
C67 O61 1.231 . S
O68 Zn50 1.953 . S
O68 C62 1.298 . S
O69 Cd70 2.300 . S
O69 C76 1.275 1_545 S
Cd70 O69 2.300 . S
Cd70 O78 2.381 . S
Cd70 O79 2.378 . S
O71 Cd72 2.385 . S
O71 C76 1.255 . S
Cd72 O71 2.385 . S
Cd72 O73 2.317 . S
O73 Cd72 2.317 . S
O73 C74 1.232 . S
C74 O73 1.232 . S
C74 O75 1.218 . S
O75 C74 1.218 . S
C76 O69 1.275 1_565 S
C76 O71 1.255 . S
C77 O78 1.258 . S
C77 O79 1.256 . S
O78 Cd70 2.381 . S
O78 C77 1.258 . S
O79 Cd70 2.378 . S
O79 C77 1.256 . S
O80 Cd81 2.300 . S
O80 C87 1.275 . S
Cd81 O80 2.300 . S
Cd81 O89 2.381 . S
Cd81 O90 2.378 . S
O82 Cd83 2.385 . S
O82 C87 1.255 . S
Cd83 O82 2.385 . S
Cd83 O84 2.317 . S
O84 Cd83 2.317 . S
O84 C85 1.232 . S
C85 O84 1.232 . S
C85 O86 1.218 . S
O86 C85 1.218 . S
C87 O80 1.275 . S
C87 O82 1.255 . S
C88 O89 1.258 . S
C88 O90 1.256 . S
O89 Cd81 2.381 . S
O89 C88 1.258 . S
O90 Cd81 2.378 . S
O90 C88 1.256 . S
O91 Cd92 2.300 . S
O91 C98 1.275 . S
Cd92 O91 2.300 . S
Cd92 O100 2.381 . S
Cd92 O101 2.378 . S
O93 Cd94 2.385 . S
O93 C98 1.255 1_655 S
Cd94 O93 2.385 . S
Cd94 O95 2.317 . S
O95 Cd94 2.317 . S
O95 C96 1.232 . S
C96 O95 1.232 . S
C96 O97 1.218 . S
O97 C96 1.218 . S
C98 O91 1.275 . S
C98 O93 1.255 1_455 S
C99 O100 1.258 . S
C99 O101 1.256 . S
O100 Cd92 2.381 . S
O100 C99 1.258 . S
O101 Cd92 2.378 . S
O101 C99 1.256 . S
O102 Cd103 2.300 . S
O102 C109 1.275 1_455 S
Cd103 O102 2.300 . S
Cd103 O111 2.381 . S
Cd103 O112 2.378 . S
O104 Cd105 2.385 . S
O104 C109 1.255 . S
Cd105 O104 2.385 . S
Cd105 O106 2.317 . S
O106 Cd105 2.317 . S
O106 C107 1.232 . S
C107 O106 1.232 . S
C107 O108 1.218 . S
O108 C107 1.218 . S
C109 O102 1.275 1_655 S
C109 O104 1.255 . S
C110 O111 1.258 . S
C110 O112 1.256 . S
O111 Cd103 2.381 . S
O111 C110 1.258 . S
O112 Cd103 2.378 . S
O112 C110 1.256 . S
O113 Cd114 2.300 . S
O113 C120 1.275 1_565 S
Cd114 O113 2.300 . S
Cd114 O122 2.381 . S
Cd114 O123 2.378 . S
O115 Cd116 2.385 . S
O115 C120 1.255 . S
Cd116 O115 2.385 . S
Cd116 O117 2.317 . S
O117 Cd116 2.317 . S
O117 C118 1.232 . S
C118 O117 1.232 . S
C118 O119 1.218 . S
O119 C118 1.218 . S
C120 O113 1.275 1_545 S
C120 O115 1.255 . S
C121 O122 1.258 . S
C121 O123 1.256 . S
O122 Cd114 2.381 . S
O122 C121 1.258 . S
O123 Cd114 2.378 . S
O123 C121 1.256 . S
O124 Cd125 2.300 . S
O124 C131 1.275 . S
Cd125 O124 2.300 . S
Cd125 O133 2.381 . S
Cd125 O134 2.378 . S
O126 Cd127 2.385 . S
O126 C131 1.255 . S
Cd127 O126 2.385 . S
Cd127 O128 2.317 . S
O128 Cd127 2.317 . S
O128 C129 1.232 . S
C129 O128 1.232 . S
C129 O130 1.218 . S
O130 C129 1.218 . S
C131 O124 1.275 . S
C131 O126 1.255 . S
C132 O133 1.258 . S
C132 O134 1.256 . S
O133 Cd125 2.381 . S
O133 C132 1.258 . S
O134 Cd125 2.378 . S
O134 C132 1.256 . S
C135 C136 1.363 . S
C135 C141 1.379 . S
C135 N143 1.356 . S
C136 C135 1.363 . S
C136 C142 1.363 . S
C137 C138 1.363 . S
C137 C142 1.379 . S
C137 N144 1.356 . S
C138 C137 1.363 . S
C138 C141 1.363 . S
N139 C141 1.356 . S
N139 H151 0.984 . S
N139 H152 0.985 . S
N140 C142 1.356 . S
N140 H145 0.984 . S
N140 H146 0.985 . S
C141 C135 1.379 . S
C141 C138 1.363 . S
C141 N139 1.356 . S
C142 C136 1.363 . S
C142 C137 1.379 . S
C142 N140 1.356 . S
N143 C135 1.356 . S
N143 H149 0.984 . S
N143 H150 0.984 . S
N144 C137 1.356 . S
N144 H147 0.984 . S
N144 H148 0.985 . S
H145 N140 0.984 . S
H146 N140 0.985 . S
H147 N144 0.984 . S
H148 N144 0.985 . S
H149 N143 0.984 . S
H150 N143 0.984 . S
H151 N139 0.984 . S
H152 N139 0.985 . S
C153 C154 1.363 . S
C153 C159 1.379 . S
C153 N161 1.356 . S
C154 C153 1.363 . S
C154 C160 1.363 . S
C155 C156 1.363 . S
C155 C160 1.379 . S
C155 N162 1.356 . S
C156 C155 1.363 . S
C156 C159 1.363 . S
N157 C159 1.356 . S
N157 H169 0.984 . S
N157 H170 0.985 . S
N158 C160 1.356 . S
N158 H163 0.984 . S
N158 H164 0.985 . S
C159 C153 1.379 . S
C159 C156 1.363 . S
C159 N157 1.356 . S
C160 C154 1.363 . S
C160 C155 1.379 . S
C160 N158 1.356 . S
N161 C153 1.356 . S
N161 H167 0.984 . S
N161 H168 0.984 . S
N162 C155 1.356 . S
N162 H165 0.984 . S
N162 H166 0.985 . S
H163 N158 0.984 . S
H164 N158 0.985 . S
H165 N162 0.984 . S
H166 N162 0.985 . S
H167 N161 0.984 . S
H168 N161 0.984 . S
H169 N157 0.984 . S
H170 N157 0.985 . S
C171 C172 1.363 . S
C171 C177 1.379 . S
C171 N179 1.356 . S
C172 C171 1.363 . S
C172 C178 1.363 . S
C173 C174 1.363 . S
C173 C178 1.379 . S
C173 N180 1.356 . S
C174 C173 1.363 . S
C174 C177 1.363 . S
N175 C177 1.356 . S
N175 H187 0.984 . S
N175 H188 0.985 . S
N176 C178 1.356 . S
N176 H181 0.984 . S
N176 H182 0.985 . S
C177 C171 1.379 . S
C177 C174 1.363 . S
C177 N175 1.356 . S
C178 C172 1.363 . S
C178 C173 1.379 . S
C178 N176 1.356 . S
N179 C171 1.356 . S
N179 H185 0.984 . S
N179 H186 0.984 . S
N180 C173 1.356 . S
N180 H183 0.984 . S
N180 H184 0.985 . S
H181 N176 0.984 . S
H182 N176 0.985 . S
H183 N180 0.984 . S
H184 N180 0.985 . S
H185 N179 0.984 . S
H186 N179 0.984 . S
H187 N175 0.984 . S
H188 N175 0.985 . S
C189 C190 1.363 . S
C189 C195 1.379 . S
C189 N197 1.356 . S
C190 C189 1.363 . S
C190 C196 1.363 . S
C191 C192 1.363 . S
C191 C196 1.379 . S
C191 N198 1.356 . S
C192 C191 1.363 . S
C192 C195 1.363 . S
N193 C195 1.356 . S
N193 H205 0.984 . S
N193 H206 0.985 . S
N194 C196 1.356 . S
N194 H199 0.984 . S
N194 H200 0.985 . S
C195 C189 1.379 . S
C195 C192 1.363 . S
C195 N193 1.356 . S
C196 C190 1.363 . S
C196 C191 1.379 . S
C196 N194 1.356 . S
N197 C189 1.356 . S
N197 H203 0.984 . S
N197 H204 0.984 . S
N198 C191 1.356 . S
N198 H201 0.984 . S
N198 H202 0.985 . S
H199 N194 0.984 . S
H200 N194 0.985 . S
H201 N198 0.984 . S
H202 N198 0.985 . S
H203 N197 0.984 . S
H204 N197 0.984 . S
H205 N193 0.984 . S
H206 N193 0.985 . S
C207 C208 1.363 . S
C207 C213 1.379 . S
C207 N215 1.356 . S
C208 C207 1.363 . S
C208 C214 1.363 . S
C209 C210 1.363 . S
C209 C214 1.379 . S
C209 N216 1.356 . S
C210 C209 1.363 . S
C210 C213 1.363 . S
N211 C213 1.356 . S
N211 H223 0.984 . S
N211 H224 0.985 . S
N212 C214 1.356 . S
N212 H217 0.984 . S
N212 H218 0.985 . S
C213 C207 1.379 . S
C213 C210 1.363 . S
C213 N211 1.356 . S
C214 C208 1.363 . S
C214 C209 1.379 . S
C214 N212 1.356 . S
N215 C207 1.356 . S
N215 H221 0.984 . S
N215 H222 0.984 . S
N216 C209 1.356 . S
N216 H219 0.984 . S
N216 H220 0.985 . S
H217 N212 0.984 . S
H218 N212 0.985 . S
H219 N216 0.984 . S
H220 N216 0.985 . S
H221 N215 0.984 . S
H222 N215 0.984 . S
H223 N211 0.984 . S
H224 N211 0.985 . S
C225 C226 1.363 . S
C225 C231 1.379 . S
C225 N233 1.356 . S
C226 C225 1.363 . S
C226 C232 1.363 . S
C227 C228 1.363 . S
C227 C232 1.379 . S
C227 N234 1.356 . S
C228 C227 1.363 . S
C228 C231 1.363 . S
N229 C231 1.356 . S
N229 H241 0.984 . S
N229 H242 0.985 . S
N230 C232 1.356 . S
N230 H235 0.984 . S
N230 H236 0.985 . S
C231 C225 1.379 . S
C231 C228 1.363 . S
C231 N229 1.356 . S
C232 C226 1.363 . S
C232 C227 1.379 . S
C232 N230 1.356 . S
N233 C225 1.356 . S
N233 H239 0.984 . S
N233 H240 0.984 . S
N234 C227 1.356 . S
N234 H237 0.984 . S
N234 H238 0.985 . S
H235 N230 0.984 . S
H236 N230 0.985 . S
H237 N234 0.984 . S
H238 N234 0.985 . S
H239 N233 0.984 . S
H240 N233 0.984 . S
H241 N229 0.984 . S
H242 N229 0.985 . S
C243 C244 1.363 . S
C243 C249 1.379 . S
C243 N251 1.356 . S
C244 C243 1.363 . S
C244 C250 1.363 . S
C245 C246 1.363 . S
C245 C250 1.379 . S
C245 N252 1.356 . S
C246 C245 1.363 . S
C246 C249 1.363 . S
N247 C249 1.356 . S
N247 H259 0.984 . S
N247 H260 0.985 . S
N248 C250 1.356 . S
N248 H253 0.984 . S
N248 H254 0.985 . S
C249 C243 1.379 . S
C249 C246 1.363 . S
C249 N247 1.356 . S
C250 C244 1.363 . S
C250 C245 1.379 . S
C250 N248 1.356 . S
N251 C243 1.356 . S
N251 H257 0.984 . S
N251 H258 0.984 . S
N252 C245 1.356 . S
N252 H255 0.984 . S
N252 H256 0.985 . S
H253 N248 0.984 . S
H254 N248 0.985 . S
H255 N252 0.984 . S
H256 N252 0.985 . S
H257 N251 0.984 . S
H258 N251 0.984 . S
H259 N247 0.984 . S
H260 N247 0.985 . S
C261 C262 1.363 . S
C261 C267 1.379 . S
C261 N269 1.356 . S
C262 C261 1.363 . S
C262 C268 1.363 . S
C263 C264 1.363 . S
C263 C268 1.379 . S
C263 N270 1.356 . S
C264 C263 1.363 . S
C264 C267 1.363 . S
N265 C267 1.356 . S
N265 H277 0.984 . S
N265 H278 0.985 . S
N266 C268 1.356 . S
N266 H271 0.984 . S
N266 H272 0.985 . S
C267 C261 1.379 . S
C267 C264 1.363 . S
C267 N265 1.356 . S
C268 C262 1.363 . S
C268 C263 1.379 . S
C268 N266 1.356 . S
N269 C261 1.356 . S
N269 H275 0.984 . S
N269 H276 0.984 . S
N270 C263 1.356 . S
N270 H273 0.984 . S
N270 H274 0.985 . S
H271 N266 0.984 . S
H272 N266 0.985 . S
H273 N270 0.984 . S
H274 N270 0.985 . S
H275 N269 0.984 . S
H276 N269 0.984 . S
H277 N265 0.984 . S
H278 N265 0.985 . S
C279 C280 1.363 . S
C279 C285 1.379 . S
C279 N287 1.356 . S
C280 C279 1.363 . S
C280 C286 1.363 . S
C281 C282 1.363 . S
C281 C286 1.379 . S
C281 N288 1.356 . S
C282 C281 1.363 . S
C282 C285 1.363 . S
N283 C285 1.356 . S
N283 H295 0.984 . S
N283 H296 0.985 . S
N284 C286 1.356 . S
N284 H289 0.984 . S
N284 H290 0.985 . S
C285 C279 1.379 . S
C285 C282 1.363 . S
C285 N283 1.356 . S
C286 C280 1.363 . S
C286 C281 1.379 . S
C286 N284 1.356 . S
N287 C279 1.356 . S
N287 H293 0.984 . S
N287 H294 0.984 . S
N288 C281 1.356 . S
N288 H291 0.984 . S
N288 H292 0.985 . S
H289 N284 0.984 . S
H290 N284 0.985 . S
H291 N288 0.984 . S
H292 N288 0.985 . S
H293 N287 0.984 . S
H294 N287 0.984 . S
H295 N283 0.984 . S
H296 N283 0.985 . S
C297 C298 1.363 . S
C297 C303 1.379 . S
C297 N305 1.356 . S
C298 C297 1.363 . S
C298 C304 1.363 . S
C299 C300 1.363 . S
C299 C304 1.379 . S
C299 N306 1.356 . S
C300 C299 1.363 . S
C300 C303 1.363 . S
N301 C303 1.356 . S
N301 H313 0.984 . S
N301 H314 0.985 . S
N302 C304 1.356 . S
N302 H307 0.984 . S
N302 H308 0.985 . S
C303 C297 1.379 . S
C303 C300 1.363 . S
C303 N301 1.356 . S
C304 C298 1.363 . S
C304 C299 1.379 . S
C304 N302 1.356 . S
N305 C297 1.356 . S
N305 H311 0.984 . S
N305 H312 0.984 . S
N306 C299 1.356 . S
N306 H309 0.984 . S
N306 H310 0.985 . S
H307 N302 0.984 . S
H308 N302 0.985 . S
H309 N306 0.984 . S
H310 N306 0.985 . S
H311 N305 0.984 . S
H312 N305 0.984 . S
H313 N301 0.984 . S
H314 N301 0.985 . S
C315 C316 1.363 . S
C315 C321 1.379 . S
C315 N323 1.356 . S
C316 C315 1.363 . S
C316 C322 1.363 . S
C317 C318 1.363 . S
C317 C322 1.379 . S
C317 N324 1.356 . S
C318 C317 1.363 . S
C318 C321 1.363 . S
N319 C321 1.356 . S
N319 H331 0.984 . S
N319 H332 0.985 . S
N320 C322 1.356 . S
N320 H325 0.984 . S
N320 H326 0.985 . S
C321 C315 1.379 . S
C321 C318 1.363 . S
C321 N319 1.356 . S
C322 C316 1.363 . S
C322 C317 1.379 . S
C322 N320 1.356 . S
N323 C315 1.356 . S
N323 H329 0.984 . S
N323 H330 0.984 . S
N324 C317 1.356 . S
N324 H327 0.984 . S
N324 H328 0.985 . S
H325 N320 0.984 . S
H326 N320 0.985 . S
H327 N324 0.984 . S
H328 N324 0.985 . S
H329 N323 0.984 . S
H330 N323 0.984 . S
H331 N319 0.984 . S
H332 N319 0.985 . S
C333 C334 1.363 . S
C333 C339 1.379 . S
C333 N341 1.356 . S
C334 C333 1.363 . S
C334 C340 1.363 . S
C335 C336 1.363 . S
C335 C340 1.379 . S
C335 N342 1.356 . S
C336 C335 1.363 . S
C336 C339 1.363 . S
N337 C339 1.356 . S
N337 H349 0.984 . S
N337 H350 0.985 . S
N338 C340 1.356 . S
N338 H343 0.984 . S
N338 H344 0.985 . S
C339 C333 1.379 . S
C339 C336 1.363 . S
C339 N337 1.356 . S
C340 C334 1.363 . S
C340 C335 1.379 . S
C340 N338 1.356 . S
N341 C333 1.356 . S
N341 H347 0.984 . S
N341 H348 0.984 . S
N342 C335 1.356 . S
N342 H345 0.984 . S
N342 H346 0.985 . S
H343 N338 0.984 . S
H344 N338 0.985 . S
H345 N342 0.984 . S
H346 N342 0.985 . S
H347 N341 0.984 . S
H348 N341 0.984 . S
H349 N337 0.984 . S
H350 N337 0.985 . S
C351 C352 1.363 . S
C351 C357 1.369 1_554 S
C351 N359 1.356 . S
C352 C351 1.363 . S
C352 C358 1.363 . S
C353 C354 1.361 1_654 S
C353 C358 1.378 1_655 S
C353 N360 1.358 1_554 S
C354 C353 1.361 1_456 S
C354 C357 1.367 . S
N355 C357 1.364 . S
N355 H367 0.984 . S
N355 H368 0.985 . S
N356 C358 1.356 . S
N356 H361 0.984 . S
N356 H362 0.985 1_455 S
C357 C351 1.369 1_556 S
C357 C354 1.367 . S
C357 N355 1.364 . S
C358 C352 1.363 . S
C358 C353 1.378 1_455 S
C358 N356 1.356 . S
N359 C351 1.356 . S
N359 H365 0.984 . S
N359 H366 0.984 . S
N360 C353 1.358 1_556 S
N360 H363 0.984 . S
N360 H364 0.985 . S
H361 N356 0.984 . S
H362 N356 0.985 1_655 S
H363 N360 0.984 . S
H364 N360 0.985 . S
H365 N359 0.984 . S
H366 N359 0.984 . S
H367 N355 0.984 . S
H368 N355 0.985 . S
C369 C370 1.363 1_565 S
C369 C375 1.379 . S
C369 N377 1.356 . S
C370 C369 1.363 1_545 S
C370 C376 1.363 . S
C371 C372 1.363 1_545 S
C371 C376 1.379 . S
C371 N378 1.356 . S
C372 C371 1.363 1_565 S
C372 C375 1.363 . S
N373 C375 1.356 . S
N373 H385 0.984 . S
N373 H386 0.985 . S
N374 C376 1.356 . S
N374 H379 0.984 . S
N374 H380 0.985 . S
C375 C369 1.379 . S
C375 C372 1.363 . S
C375 N373 1.356 . S
C376 C370 1.363 . S
C376 C371 1.379 . S
C376 N374 1.356 . S
N377 C369 1.356 . S
N377 H383 0.984 . S
N377 H384 0.984 . S
N378 C371 1.356 . S
N378 H381 0.984 . S
N378 H382 0.985 . S
H379 N374 0.984 . S
H380 N374 0.985 . S
H381 N378 0.984 . S
H382 N378 0.985 . S
H383 N377 0.984 . S
H384 N377 0.984 . S
H385 N373 0.984 . S
H386 N373 0.985 . S
C387 C388 1.363 . S
C387 C393 1.379 . S
C387 N395 1.356 . S
C388 C387 1.363 . S
C388 C394 1.363 . S
C389 C390 1.363 . S
C389 C394 1.379 . S
C389 N396 1.356 . S
C390 C389 1.363 . S
C390 C393 1.363 . S
N391 C393 1.356 . S
N391 H403 0.984 . S
N391 H404 0.985 . S
N392 C394 1.356 . S
N392 H397 0.984 . S
N392 H398 0.985 . S
C393 C387 1.379 . S
C393 C390 1.363 . S
C393 N391 1.356 . S
C394 C388 1.363 . S
C394 C389 1.379 . S
C394 N392 1.356 . S
N395 C387 1.356 . S
N395 H401 0.984 . S
N395 H402 0.984 . S
N396 C389 1.356 . S
N396 H399 0.984 . S
N396 H400 0.985 . S
H397 N392 0.984 . S
H398 N392 0.985 . S
H399 N396 0.984 . S
H400 N396 0.985 . S
H401 N395 0.984 . S
H402 N395 0.984 . S
H403 N391 0.984 . S
H404 N391 0.985 . S
C405 C406 1.363 . S
C405 C411 1.379 . S
C405 N413 1.356 . S
C406 C405 1.363 . S
C406 C412 1.363 1_545 S
C407 C408 1.363 1_565 S
C407 C412 1.379 . S
C407 N414 1.356 . S
C408 C407 1.363 1_545 S
C408 C411 1.363 . S
N409 C411 1.356 . S
N409 H421 0.984 . S
N409 H422 0.985 . S
N410 C412 1.356 . S
N410 H415 0.984 . S
N410 H416 0.985 . S
C411 C405 1.379 . S
C411 C408 1.363 . S
C411 N409 1.356 . S
C412 C406 1.363 1_565 S
C412 C407 1.379 . S
C412 N410 1.356 . S
N413 C405 1.356 . S
N413 H419 0.984 . S
N413 H420 0.984 . S
N414 C407 1.356 . S
N414 H417 0.984 . S
N414 H418 0.985 . S
H415 N410 0.984 . S
H416 N410 0.985 . S
H417 N414 0.984 . S
H418 N414 0.985 . S
H419 N413 0.984 . S
H420 N413 0.984 . S
H421 N409 0.984 . S
H422 N409 0.985 . S
C423 C424 1.363 . S
C423 C429 1.379 . S
C423 N431 1.356 . S
C424 C423 1.363 . S
C424 C430 1.363 . S
C425 C426 1.366 . S
C425 C430 1.372 1_554 S
C425 N432 1.361 . S
C426 C425 1.366 . S
C426 C429 1.363 1_554 S
N427 C429 1.356 1_554 S
N427 H439 0.984 . S
N427 H440 0.985 . S
N428 C430 1.356 . S
N428 H433 0.984 . S
N428 H434 0.985 . S
C429 C423 1.379 . S
C429 C426 1.363 1_556 S
C429 N427 1.356 1_556 S
C430 C424 1.363 . S
C430 C425 1.372 1_556 S
C430 N428 1.356 . S
N431 C423 1.356 . S
N431 H437 0.984 . S
N431 H438 0.984 . S
N432 C425 1.361 . S
N432 H435 0.984 . S
N432 H436 0.985 . S
H433 N428 0.984 . S
H434 N428 0.985 . S
H435 N432 0.984 . S
H436 N432 0.985 . S
H437 N431 0.984 . S
H438 N431 0.984 . S
H439 N427 0.984 . S
H440 N427 0.985 . S
C441 C442 1.363 1_655 S
C441 C447 1.379 . S
C441 N449 1.356 . S
C442 C441 1.363 1_455 S
C442 C448 1.363 . S
C443 C444 1.363 1_455 S
C443 C448 1.379 . S
C443 N450 1.356 . S
C444 C443 1.363 1_655 S
C444 C447 1.363 . S
N445 C447 1.356 . S
N445 H457 0.984 . S
N445 H458 0.985 . S
N446 C448 1.356 . S
N446 H451 0.984 . S
N446 H452 0.985 . S
C447 C441 1.379 . S
C447 C444 1.363 . S
C447 N445 1.356 . S
C448 C442 1.363 . S
C448 C443 1.379 . S
C448 N446 1.356 . S
N449 C441 1.356 . S
N449 H455 0.984 . S
N449 H456 0.984 . S
N450 C443 1.356 . S
N450 H453 0.984 . S
N450 H454 0.985 . S
H451 N446 0.984 . S
H452 N446 0.985 . S
H453 N450 0.984 . S
H454 N450 0.985 . S
H455 N449 0.984 . S
H456 N449 0.984 . S
H457 N445 0.984 . S
H458 N445 0.985 . S
C136 C20 1.433 . S
C138 C129 1.365 . S
C154 C41 1.526 . S
C156 C107 1.407 . S
C172 C64 1.293 . S
C174 C121 1.248 . S
C190 C19 1.220 . S
C192 C132 1.249 . S
C210 C110 1.230 . S
C208 C44 1.251 . S
C228 C118 1.381 . S
C226 C67 1.497 . S
C244 C43 1.435 . S
C246 C85 1.379 . S
C262 C66 1.433 . S
C264 C96 1.365 . S
C280 C21 1.509 . S
C282 C74 1.402 . S
C300 C88 1.238 . S
C298 C42 1.210 . S
C318 C99 1.250 . S
C316 C65 1.220 . S
C334 C18 1.272 . S
C336 C77 1.231 . S
C354 C98 1.425 . S
C352 C17 1.508 . S
C370 C39 1.506 . S
C372 C76 1.428 . S
C388 C62 1.520 . S
C390 C87 1.437 . S
C408 C120 1.415 . S
C406 C40 1.493 . S
C426 C131 1.425 . S
C424 C63 1.508 . S
C442 C16 1.507 . S
C444 C109 1.430 . S
