# Generated by pormake.
# Topology cor, (4,6)-cn, num edge types: 1
# Building blocks:
#     Node 0, Type 0, BuildingBlock: ESEHIV_clean_sbu_0, # of connection points: 4
#     Node 1, Type 0, BuildingBlock: ESEHIV_clean_sbu_0, # of connection points: 4
#     Node 2, Type 0, BuildingBlock: ESEHIV_clean_sbu_0, # of connection points: 4
#     Node 3, Type 0, BuildingBlock: ESEHIV_clean_sbu_0, # of connection points: 4
#     Node 4, Type 0, BuildingBlock: ESEHIV_clean_sbu_0, # of connection points: 4
#     Node 5, Type 0, BuildingBlock: ESEHIV_clean_sbu_0, # of connection points: 4
#     Node 6, Type 0, BuildingBlock: ESEHIV_clean_sbu_0, # of connection points: 4
#     Node 7, Type 0, BuildingBlock: ESEHIV_clean_sbu_0, # of connection points: 4
#     Node 8, Type 0, BuildingBlock: ESEHIV_clean_sbu_0, # of connection points: 4
#     Node 9, Type 0, BuildingBlock: ESEHIV_clean_sbu_0, # of connection points: 4
#     Node 10, Type 0, BuildingBlock: ESEHIV_clean_sbu_0, # of connection points: 4
#     Node 11, Type 0, BuildingBlock: ESEHIV_clean_sbu_0, # of connection points: 4
#     Node 12, Type 0, BuildingBlock: ESEHIV_clean_sbu_0, # of connection points: 4
#     Node 13, Type 0, BuildingBlock: ESEHIV_clean_sbu_0, # of connection points: 4
#     Node 14, Type 0, BuildingBlock: ESEHIV_clean_sbu_0, # of connection points: 4
#     Node 15, Type 0, BuildingBlock: ESEHIV_clean_sbu_0, # of connection points: 4
#     Node 16, Type 0, BuildingBlock: ESEHIV_clean_sbu_0, # of connection points: 4
#     Node 17, Type 0, BuildingBlock: ESEHIV_clean_sbu_0, # of connection points: 4
#     Node 18, Type 1, BuildingBlock: MIDCAF_clean_sbu_0, # of connection points: 6
#     Node 19, Type 1, BuildingBlock: MIDCAF_clean_sbu_0, # of connection points: 6
#     Node 20, Type 1, BuildingBlock: MIDCAF_clean_sbu_0, # of connection points: 6
#     Node 21, Type 1, BuildingBlock: MIDCAF_clean_sbu_0, # of connection points: 6
#     Node 22, Type 1, BuildingBlock: MIDCAF_clean_sbu_0, # of connection points: 6
#     Node 23, Type 1, BuildingBlock: MIDCAF_clean_sbu_0, # of connection points: 6
#     Node 24, Type 1, BuildingBlock: MIDCAF_clean_sbu_0, # of connection points: 6
#     Node 25, Type 1, BuildingBlock: MIDCAF_clean_sbu_0, # of connection points: 6
#     Node 26, Type 1, BuildingBlock: MIDCAF_clean_sbu_0, # of connection points: 6
#     Node 27, Type 1, BuildingBlock: MIDCAF_clean_sbu_0, # of connection points: 6
#     Node 28, Type 1, BuildingBlock: MIDCAF_clean_sbu_0, # of connection points: 6
#     Node 29, Type 1, BuildingBlock: MIDCAF_clean_sbu_0, # of connection points: 6
#     Edge 30, Type (0, 1), BuildingBlock: CIFDUS_clean_linker_0, # of connection points: 2
#     Edge 31, Type (0, 1), BuildingBlock: CIFDUS_clean_linker_0, # of connection points: 2
#     Edge 32, Type (0, 1), BuildingBlock: CIFDUS_clean_linker_0, # of connection points: 2
#     Edge 33, Type (0, 1), BuildingBlock: CIFDUS_clean_linker_0, # of connection points: 2
#     Edge 34, Type (0, 1), BuildingBlock: CIFDUS_clean_linker_0, # of connection points: 2
#     Edge 35, Type (0, 1), BuildingBlock: CIFDUS_clean_linker_0, # of connection points: 2
#     Edge 36, Type (0, 1), BuildingBlock: CIFDUS_clean_linker_0, # of connection points: 2
#     Edge 37, Type (0, 1), BuildingBlock: CIFDUS_clean_linker_0, # of connection points: 2
#     Edge 38, Type (0, 1), BuildingBlock: CIFDUS_clean_linker_0, # of connection points: 2
#     Edge 39, Type (0, 1), BuildingBlock: CIFDUS_clean_linker_0, # of connection points: 2
#     Edge 40, Type (0, 1), BuildingBlock: CIFDUS_clean_linker_0, # of connection points: 2
#     Edge 41, Type (0, 1), BuildingBlock: CIFDUS_clean_linker_0, # of connection points: 2
#     Edge 42, Type (0, 1), BuildingBlock: CIFDUS_clean_linker_0, # of connection points: 2
#     Edge 43, Type (0, 1), BuildingBlock: CIFDUS_clean_linker_0, # of connection points: 2
#     Edge 44, Type (0, 1), BuildingBlock: CIFDUS_clean_linker_0, # of connection points: 2
#     Edge 45, Type (0, 1), BuildingBlock: CIFDUS_clean_linker_0, # of connection points: 2
#     Edge 46, Type (0, 1), BuildingBlock: CIFDUS_clean_linker_0, # of connection points: 2
#     Edge 47, Type (0, 1), BuildingBlock: CIFDUS_clean_linker_0, # of connection points: 2
#     Edge 48, Type (0, 1), BuildingBlock: CIFDUS_clean_linker_0, # of connection points: 2
#     Edge 49, Type (0, 1), BuildingBlock: CIFDUS_clean_linker_0, # of connection points: 2
#     Edge 50, Type (0, 1), BuildingBlock: CIFDUS_clean_linker_0, # of connection points: 2
#     Edge 51, Type (0, 1), BuildingBlock: CIFDUS_clean_linker_0, # of connection points: 2
#     Edge 52, Type (0, 1), BuildingBlock: CIFDUS_clean_linker_0, # of connection points: 2
#     Edge 53, Type (0, 1), BuildingBlock: CIFDUS_clean_linker_0, # of connection points: 2
#     Edge 54, Type (0, 1), BuildingBlock: CIFDUS_clean_linker_0, # of connection points: 2
#     Edge 55, Type (0, 1), BuildingBlock: CIFDUS_clean_linker_0, # of connection points: 2
#     Edge 56, Type (0, 1), BuildingBlock: CIFDUS_clean_linker_0, # of connection points: 2
#     Edge 57, Type (0, 1), BuildingBlock: CIFDUS_clean_linker_0, # of connection points: 2
#     Edge 58, Type (0, 1), BuildingBlock: CIFDUS_clean_linker_0, # of connection points: 2
#     Edge 59, Type (0, 1), BuildingBlock: CIFDUS_clean_linker_0, # of connection points: 2
#     Edge 60, Type (0, 1), BuildingBlock: CIFDUS_clean_linker_0, # of connection points: 2
#     Edge 61, Type (0, 1), BuildingBlock: CIFDUS_clean_linker_0, # of connection points: 2
#     Edge 62, Type (0, 1), BuildingBlock: CIFDUS_clean_linker_0, # of connection points: 2
#     Edge 63, Type (0, 1), BuildingBlock: CIFDUS_clean_linker_0, # of connection points: 2
#     Edge 64, Type (0, 1), BuildingBlock: CIFDUS_clean_linker_0, # of connection points: 2
#     Edge 65, Type (0, 1), BuildingBlock: CIFDUS_clean_linker_0, # of connection points: 2
#     Edge 66, Type (0, 1), BuildingBlock: CIFDUS_clean_linker_0, # of connection points: 2
#     Edge 67, Type (0, 1), BuildingBlock: CIFDUS_clean_linker_0, # of connection points: 2
#     Edge 68, Type (0, 1), BuildingBlock: CIFDUS_clean_linker_0, # of connection points: 2
#     Edge 69, Type (0, 1), BuildingBlock: CIFDUS_clean_linker_0, # of connection points: 2
#     Edge 70, Type (0, 1), BuildingBlock: CIFDUS_clean_linker_0, # of connection points: 2
#     Edge 71, Type (0, 1), BuildingBlock: CIFDUS_clean_linker_0, # of connection points: 2
#     Edge 72, Type (0, 1), BuildingBlock: CIFDUS_clean_linker_0, # of connection points: 2
#     Edge 73, Type (0, 1), BuildingBlock: CIFDUS_clean_linker_0, # of connection points: 2
#     Edge 74, Type (0, 1), BuildingBlock: CIFDUS_clean_linker_0, # of connection points: 2
#     Edge 75, Type (0, 1), BuildingBlock: CIFDUS_clean_linker_0, # of connection points: 2
#     Edge 76, Type (0, 1), BuildingBlock: CIFDUS_clean_linker_0, # of connection points: 2
#     Edge 77, Type (0, 1), BuildingBlock: CIFDUS_clean_linker_0, # of connection points: 2
#     Edge 78, Type (0, 1), BuildingBlock: CIFDUS_clean_linker_0, # of connection points: 2
#     Edge 79, Type (0, 1), BuildingBlock: CIFDUS_clean_linker_0, # of connection points: 2
#     Edge 80, Type (0, 1), BuildingBlock: CIFDUS_clean_linker_0, # of connection points: 2
#     Edge 81, Type (0, 1), BuildingBlock: CIFDUS_clean_linker_0, # of connection points: 2
#     Edge 82, Type (0, 1), BuildingBlock: CIFDUS_clean_linker_0, # of connection points: 2
#     Edge 83, Type (0, 1), BuildingBlock: CIFDUS_clean_linker_0, # of connection points: 2
#     Edge 84, Type (0, 1), BuildingBlock: CIFDUS_clean_linker_0, # of connection points: 2
#     Edge 85, Type (0, 1), BuildingBlock: CIFDUS_clean_linker_0, # of connection points: 2
#     Edge 86, Type (0, 1), BuildingBlock: CIFDUS_clean_linker_0, # of connection points: 2
#     Edge 87, Type (0, 1), BuildingBlock: CIFDUS_clean_linker_0, # of connection points: 2
#     Edge 88, Type (0, 1), BuildingBlock: CIFDUS_clean_linker_0, # of connection points: 2
#     Edge 89, Type (0, 1), BuildingBlock: CIFDUS_clean_linker_0, # of connection points: 2
#     Edge 90, Type (0, 1), BuildingBlock: CIFDUS_clean_linker_0, # of connection points: 2
#     Edge 91, Type (0, 1), BuildingBlock: CIFDUS_clean_linker_0, # of connection points: 2
#     Edge 92, Type (0, 1), BuildingBlock: CIFDUS_clean_linker_0, # of connection points: 2
#     Edge 93, Type (0, 1), BuildingBlock: CIFDUS_clean_linker_0, # of connection points: 2
#     Edge 94, Type (0, 1), BuildingBlock: CIFDUS_clean_linker_0, # of connection points: 2
#     Edge 95, Type (0, 1), BuildingBlock: CIFDUS_clean_linker_0, # of connection points: 2
#     Edge 96, Type (0, 1), BuildingBlock: CIFDUS_clean_linker_0, # of connection points: 2
#     Edge 97, Type (0, 1), BuildingBlock: CIFDUS_clean_linker_0, # of connection points: 2
#     Edge 98, Type (0, 1), BuildingBlock: CIFDUS_clean_linker_0, # of connection points: 2
#     Edge 99, Type (0, 1), BuildingBlock: CIFDUS_clean_linker_0, # of connection points: 2
#     Edge 100, Type (0, 1), BuildingBlock: CIFDUS_clean_linker_0, # of connection points: 2
#     Edge 101, Type (0, 1), BuildingBlock: CIFDUS_clean_linker_0, # of connection points: 2
# Relax obj value: 0.150
# Max RMSD: 0.296
# Mean RMSD: 0.237
data_MOF--net-cor--node1-ESEHIV_clean_sbu_0--node2-MIDCAF_clean_sbu_0--edge1-CIFDUS_clean_linker_0
_symmetry_space_group_name_H-M    P1
_symmetry_Int_Tables_number       1
_symmetry_cell_setting            triclinic
loop_
_symmetry_equiv_pos_as_xyz
'x, y, z'
_cell_length_a     35.094774
_cell_length_b     33.560633
_cell_length_c     100.21891
_cell_angle_alpha  92.112689
_cell_angle_beta   92.217053
_cell_angle_gamma 120.28009
loop_
_atom_site_label
_atom_site_type_symbol
_atom_site_fract_x
_atom_site_fract_y
_atom_site_fract_z
_atom_type_partial_charge
Cu0 Cu 0.74779 0.0117 0.2741 0.0
N1 N 0.7683 0.99277 0.25954 0.0
N2 N 0.78807 0.98342 0.23923 0.0
C3 C 0.77439 0.00704 0.24694 0.0
C4 C 0.79062 0.95327 0.24721 0.0
C5 C 0.77861 0.95923 0.25971 0.0
O6 O 0.73653 0.06072 0.26902 0.0
C7 C 0.78934 0.05346 0.29975 0.0
O8 O 0.76565 0.07368 0.29903 0.0
H9 H 0.76811 0.03333 0.24337 0.0
H10 H 0.77714 0.94022 0.26835 0.0
N11 N 0.69614 0.96056 0.27934 0.0
N12 N 0.6462 0.91348 0.29307 0.0
C13 C 0.67712 0.95752 0.291 0.0
C14 C 0.67625 0.91699 0.27382 0.0
C15 C 0.64543 0.88791 0.28225 0.0
C16 C 0.76362 0.09619 0.26307 0.0
O17 O 0.80305 0.10288 0.26093 0.0
H18 H 0.68723 0.98662 0.29814 0.0
H19 H 0.68479 0.90675 0.26457 0.0
O20 O 0.789 0.02892 0.2897 0.0
H21 H 0.80116 0.92915 0.24426 0.0
H22 H 0.62426 0.85081 0.28059 0.0
Cu23 Cu 0.0167 0.73567 0.27481 0.0
N24 N 0.03744 0.76881 0.25961 0.0
N25 N 0.03568 0.80555 0.2416 0.0
C26 C 0.01505 0.78462 0.25254 0.0
C27 C 0.07275 0.80263 0.24183 0.0
C28 C 0.07369 0.77983 0.25296 0.0
O29 O 0.95801 0.68339 0.26983 0.0
C30 C 0.01468 0.7758 0.30083 0.0
O31 O 0.02259 0.74582 0.30649 0.0
H32 H 0.98358 0.77977 0.25532 0.0
H33 H 0.0988 0.77168 0.25594 0.0
N34 N 0.05255 0.71325 0.28124 0.0
N35 N 0.09817 0.70124 0.29441 0.0
C36 C 0.08626 0.73203 0.29077 0.0
C37 C 0.04374 0.66974 0.2786 0.0
C38 C 0.07172 0.66221 0.28669 0.0
C39 C 0.94787 0.66367 0.25807 0.0
O40 O 0.97802 0.67805 0.24924 0.0
H41 H 0.09993 0.76646 0.29549 0.0
H42 H 0.01735 0.64455 0.27169 0.0
O43 O 0.01148 0.77585 0.28813 0.0
H44 H 0.09781 0.81661 0.23464 0.0
H45 H 0.07195 0.63014 0.28708 0.0
Cu46 Cu 0.3075 0.32107 0.27381 0.0
N47 N 0.29984 0.28967 0.28947 0.0
N48 N 0.26725 0.26169 0.30848 0.0
C49 C 0.26129 0.26655 0.29534 0.0
C50 C 0.31139 0.28096 0.3108 0.0
C51 C 0.33137 0.29844 0.2991 0.0
O52 O 0.31203 0.38017 0.27911 0.0
C53 C 0.25055 0.3043 0.25108 0.0
O54 O 0.26937 0.34955 0.25182 0.0
H55 H 0.2298 0.2572 0.2903 0.0
H56 H 0.36649 0.31993 0.29805 0.0
N57 N 0.35923 0.33342 0.26575 0.0
N58 N 0.40679 0.32333 0.25387 0.0
C59 C 0.37279 0.30378 0.26195 0.0
C60 C 0.38561 0.37283 0.25994 0.0
C61 C 0.41499 0.3668 0.25265 0.0
C62 C 0.2881 0.38478 0.28761 0.0
O63 O 0.25524 0.3479 0.29222 0.0
H64 H 0.35681 0.2681 0.26452 0.0
H65 H 0.38238 0.40324 0.2605 0.0
O66 O 0.26013 0.28465 0.26015 0.0
H67 H 0.32834 0.28576 0.3205 0.0
H68 H 0.44035 0.39236 0.24686 0.0
Cu69 Cu 0.30796 0.02827 0.77825 0.0
N70 N 0.3116 0.05699 0.79508 0.0
N71 N 0.29284 0.07042 0.81514 0.0
C72 C 0.27811 0.04767 0.80296 0.0
C73 C 0.33716 0.09616 0.81479 0.0
C74 C 0.34866 0.08757 0.80244 0.0
O75 O 0.29754 0.9656 0.78061 0.0
C76 C 0.26429 0.02735 0.75374 0.0
O77 O 0.2909 0.01523 0.74844 0.0
H78 H 0.24366 0.02369 0.79997 0.0
H79 H 0.38181 0.10149 0.7992 0.0
N80 N 0.36102 0.06178 0.7699 0.0
N81 N 0.41156 0.11523 0.75758 0.0
C82 C 0.37872 0.10517 0.76584 0.0
C83 C 0.38366 0.04405 0.76409 0.0
C84 C 0.41486 0.07692 0.7565 0.0
C85 C 0.27972 0.94194 0.79063 0.0
O86 O 0.26277 0.95726 0.79945 0.0
H87 H 0.36621 0.12796 0.76831 0.0
H88 H 0.37647 0.00886 0.76479 0.0
O89 O 0.26368 0.03053 0.76646 0.0
H90 H 0.35968 0.11828 0.82305 0.0
H91 H 0.4379 0.07284 0.75055 0.0
Cu92 Cu 0.0238 0.29878 0.77725 0.0
N93 N 0.99199 0.25974 0.79055 0.0
N94 N 0.97773 0.22425 0.80979 0.0
C95 C 0.00866 0.25776 0.80272 0.0
C96 C 0.94032 0.20447 0.80166 0.0
C97 C 0.94921 0.22624 0.78986 0.0
O98 O 0.07926 0.34809 0.7859 0.0
C99 C 0.99945 0.23558 0.75503 0.0
O100 O 0.95994 0.22772 0.75759 0.0
H101 H 0.04299 0.27998 0.80618 0.0
H102 H 0.92627 0.21693 0.78124 0.0
N103 N 0.99394 0.32538 0.76901 0.0
N104 N 0.94102 0.33019 0.75727 0.0
C105 C 0.95007 0.30702 0.76643 0.0
C106 C 0.01317 0.36187 0.76141 0.0
C107 C 0.98068 0.36501 0.75418 0.0
C108 C 0.11723 0.35614 0.78285 0.0
O109 O 0.12024 0.33071 0.77313 0.0
H110 H 0.9253 0.27543 0.77038 0.0
H111 H 0.04845 0.38298 0.76057 0.0
O112 O 0.03255 0.26403 0.76283 0.0
H113 H 0.90909 0.17482 0.80378 0.0
H114 H 0.98588 0.39016 0.74694 0.0
Cu115 Cu 0.75122 0.76159 0.77553 0.0
N116 N 0.76984 0.80257 0.76185 0.0
N117 N 0.80039 0.83414 0.74291 0.0
C118 C 0.79851 0.80655 0.75269 0.0
C119 C 0.7723 0.84877 0.74633 0.0
C120 C 0.75344 0.82911 0.75794 0.0
O121 O 0.75835 0.70956 0.76987 0.0
C122 C 0.78957 0.76788 0.80126 0.0
O123 O 0.77177 0.72308 0.79879 0.0
H124 H 0.8159 0.78761 0.75291 0.0
H125 H 0.72848 0.8327 0.76295 0.0
N126 N 0.69172 0.7397 0.7783 0.0
N127 N 0.62992 0.72219 0.78832 0.0
C128 C 0.67444 0.74871 0.78903 0.0
C129 C 0.65695 0.70685 0.77059 0.0
C130 C 0.61884 0.69586 0.77677 0.0
C131 C 0.7479 0.69164 0.75789 0.0
O132 O 0.73067 0.70759 0.74923 0.0
H133 H 0.69408 0.77235 0.79745 0.0
H134 H 0.6592 0.69073 0.76136 0.0
O135 O 0.78551 0.79176 0.79233 0.0
H136 H 0.76526 0.87169 0.74083 0.0
H137 H 0.58553 0.66975 0.77322 0.0
Cu138 Cu 0.40948 0.36533 0.60844 0.0
N139 N 0.42228 0.33957 0.59363 0.0
N140 N 0.45386 0.33977 0.57458 0.0
C141 C 0.45572 0.36436 0.58583 0.0
C142 C 0.41783 0.29748 0.57546 0.0
C143 C 0.39831 0.29755 0.58718 0.0
O144 O 0.41348 0.42238 0.60293 0.0
C145 C 0.45278 0.34983 0.63042 0.0
O146 O 0.42647 0.30606 0.62659 0.0
H147 H 0.4795 0.40063 0.58809 0.0
H148 H 0.36794 0.26955 0.59049 0.0
N149 N 0.35383 0.32704 0.61491 0.0
N150 N 0.30257 0.27093 0.62641 0.0
C151 C 0.33539 0.28249 0.61804 0.0
C152 C 0.33109 0.34357 0.62128 0.0
C153 C 0.29951 0.30915 0.62835 0.0
C154 C 0.40186 0.42658 0.59109 0.0
O155 O 0.38398 0.39057 0.58241 0.0
H156 H 0.34792 0.2601 0.61512 0.0
H157 H 0.33921 0.37927 0.62157 0.0
O158 O 0.45255 0.38073 0.62345 0.0
H159 H 0.40603 0.26858 0.56814 0.0
H160 H 0.27711 0.31245 0.63481 0.0
Cu161 Cu 0.70012 0.08248 0.60832 0.0
N162 N 0.72965 0.11875 0.59422 0.0
N163 N 0.74315 0.15389 0.57489 0.0
C164 C 0.71268 0.12024 0.58204 0.0
C165 C 0.78081 0.17386 0.58292 0.0
C166 C 0.77239 0.15219 0.59476 0.0
O167 O 0.64532 0.0279 0.60145 0.0
C168 C 0.69345 0.11907 0.63405 0.0
O169 O 0.70718 0.0928 0.63923 0.0
H170 H 0.67859 0.09763 0.57855 0.0
H171 H 0.79542 0.16131 0.60338 0.0
N172 N 0.73381 0.06041 0.61678 0.0
N173 N 0.78075 0.05328 0.63086 0.0
C174 C 0.77223 0.08304 0.62446 0.0
C175 C 0.71845 0.01519 0.61817 0.0
C176 C 0.74718 0.01069 0.62682 0.0
C177 C 0.61228 0.02469 0.59469 0.0
O178 O 0.61159 0.06207 0.59168 0.0
H179 H 0.7918 0.12031 0.62604 0.0
H180 H 0.68731 0.98741 0.61369 0.0
O181 O 0.6879 0.11866 0.62136 0.0
H182 H 0.81189 0.20362 0.58075 0.0
H183 H 0.74324 0.97853 0.63012 0.0
Cu184 Cu 0.96774 0.64694 0.61066 0.0
N185 N 0.96065 0.60662 0.62398 0.0
N186 N 0.94065 0.57142 0.64317 0.0
C187 C 0.94493 0.60675 0.63605 0.0
C188 C 0.95415 0.54822 0.63517 0.0
C189 C 0.96624 0.56984 0.62336 0.0
O190 O 0.96502 0.69821 0.61939 0.0
C191 C 0.92357 0.58921 0.58728 0.0
O192 O 0.95679 0.58164 0.58796 0.0
H193 H 0.93596 0.63177 0.6394 0.0
H194 H 0.97661 0.55839 0.61474 0.0
N195 N 0.02153 0.66942 0.60254 0.0
N196 N 0.07582 0.6699 0.59136 0.0
C197 C 0.04525 0.64852 0.60039 0.0
C198 C 0.03825 0.7056 0.59478 0.0
C199 C 0.07171 0.70607 0.5879 0.0
C200 C 0.93174 0.70356 0.61792 0.0
O201 O 0.89832 0.67519 0.60955 0.0
H202 H 0.03826 0.61652 0.6046 0.0
H203 H 0.02524 0.72853 0.59363 0.0
O204 O 0.92107 0.61512 0.59642 0.0
H205 H 0.95327 0.51646 0.63737 0.0
H206 H 0.09087 0.73057 0.58071 0.0
Cu207 Cu 0.97522 0.36626 0.11052 0.0
N208 N 0.96947 0.38533 0.12783 0.0
N209 N 0.93689 0.37701 0.14719 0.0
C210 C 0.93109 0.37117 0.13367 0.0
C211 C 0.98098 0.39755 0.1499 0.0
C212 C 1.00088 0.40236 0.13798 0.0
O213 O 0.96778 0.30463 0.11172 0.0
C214 C 0.93355 0.35836 0.085 0.0
O215 O 0.95902 0.34254 0.08107 0.0
H216 H 0.89921 0.35311 0.12813 0.0
H217 H 0.0353 0.41343 0.13689 0.0
N218 N 0.03228 0.40483 0.10504 0.0
N219 N 0.08717 0.44695 0.09198 0.0
C220 C 0.04469 0.432 0.09455 0.0
C221 C 0.06829 0.40328 0.1093 0.0
C222 C 0.1021 0.4291 0.10127 0.0
C223 C 0.9418 0.27472 0.11947 0.0
O224 O 0.91328 0.2817 0.12567 0.0
H225 H 0.02238 0.43808 0.08837 0.0
H226 H 0.06905 0.38255 0.1172 0.0
O227 O 0.93372 0.36802 0.09744 0.0
H228 H 0.99736 0.40483 0.15981 0.0
H229 H 0.1347 0.43302 0.10187 0.0
Cu230 Cu 0.7096 0.65452 0.10949 0.0
N231 N 0.68527 0.61602 0.12352 0.0
N232 N 0.68462 0.57757 0.14141 0.0
C233 C 0.70689 0.59979 0.13082 0.0
C234 C 0.64736 0.58008 0.14071 0.0
C235 C 0.64799 0.60406 0.12971 0.0
O236 O 0.76366 0.708 0.1174 0.0
C237 C 0.69238 0.59533 0.0862 0.0
O238 O 0.65149 0.5858 0.08719 0.0
H239 H 0.73926 0.60584 0.12861 0.0
H240 H 0.62361 0.61321 0.12672 0.0
N241 N 0.67309 0.6746 0.10194 0.0
N242 N 0.61565 0.67367 0.09114 0.0
C243 C 0.62874 0.65145 0.09948 0.0
C244 C 0.68821 0.71287 0.09507 0.0
C245 C 0.65295 0.71244 0.08842 0.0
C246 C 0.80173 0.71259 0.11653 0.0
O247 O 0.80585 0.6817 0.1093 0.0
H248 H 0.60686 0.6176 0.10295 0.0
H249 H 0.72282 0.73812 0.0944 0.0
O250 O 0.72218 0.62285 0.09507 0.0
H251 H 0.62142 0.56568 0.14761 0.0
H252 H 0.65464 0.73818 0.08188 0.0
Cu253 Cu 0.40065 0.08859 0.10562 0.0
N254 N 0.41592 0.12888 0.09174 0.0
N255 N 0.44151 0.16375 0.07275 0.0
C256 C 0.43479 0.12837 0.08027 0.0
C257 C 0.4261 0.18718 0.0798 0.0
C258 C 0.41038 0.16563 0.09143 0.0
O259 O 0.39367 0.03017 0.09892 0.0
C260 C 0.43836 0.10615 0.13257 0.0
O261 O 0.39842 0.07609 0.13582 0.0
H262 H 0.44326 0.10259 0.07744 0.0
H263 H 0.39643 0.17636 0.09925 0.0
N264 N 0.34585 0.0755 0.11163 0.0
N265 N 0.29358 0.06986 0.12479 0.0
C266 C 0.33628 0.09575 0.12187 0.0
C267 C 0.30772 0.03646 0.10783 0.0
C268 C 0.27556 0.03276 0.11595 0.0
C269 C 0.42309 0.02358 0.09398 0.0
O270 O 0.46355 0.05842 0.09338 0.0
H271 H 0.3607 0.12661 0.12771 0.0
H272 H 0.30432 0.01096 0.10022 0.0
O273 O 0.44581 0.11532 0.12037 0.0
H274 H 0.42737 0.21864 0.07699 0.0
H275 H 0.24197 1.00397 0.1158 0.0
Cu276 Cu 0.08199 0.69932 0.93916 0.0
N277 N 0.09195 0.66998 0.92458 0.0
N278 N 0.11925 0.66196 0.90545 0.0
C279 C 0.12249 0.69145 0.9156 0.0
C280 C 0.08533 0.62029 0.90824 0.0
C281 C 0.06853 0.62537 0.91999 0.0
O282 O 0.08466 0.75408 0.93209 0.0
C283 C 0.11898 0.70469 0.96588 0.0
O284 O 0.07803 0.68405 0.96935 0.0
H285 H 0.14571 0.7283 0.91631 0.0
H286 H 0.04064 0.59855 0.92469 0.0
N287 N 0.02607 0.6618 0.94566 0.0
N288 N 0.97317 0.60719 0.95711 0.0
C289 C 0.00867 0.6186 0.94991 0.0
C290 C 1.00012 0.67759 0.95014 0.0
C291 C 0.96755 0.64407 0.9572 0.0
C292 C 0.11917 0.79408 0.93323 0.0
O293 O 0.15417 0.80056 0.94041 0.0
H294 H 0.02375 0.59752 0.9487 0.0
H295 H 1.00622 0.71225 0.94906 0.0
O296 O 0.12731 0.71505 0.95376 0.0
H297 H 0.07348 0.58826 0.90224 0.0
H298 H 0.94235 0.64698 0.96232 0.0
Cu299 Cu 0.34248 0.40228 0.94323 0.0
N300 N 0.36679 0.44315 0.92977 0.0
N301 N 0.36691 0.48561 0.91307 0.0
C302 C 0.34973 0.4679 0.92472 0.0
C303 C 0.39612 0.47162 0.91074 0.0
C304 C 0.39589 0.44531 0.92105 0.0
O305 O 0.28919 0.3494 0.93484 0.0
C306 C 0.35687 0.45522 0.9676 0.0
O307 O 0.3975 0.46342 0.96716 0.0
H308 H 0.32293 0.47005 0.92901 0.0
H309 H 0.41363 0.42676 0.92172 0.0
N310 N 0.37964 0.38217 0.95026 0.0
N311 N 0.43748 0.3838 0.96102 0.0
C312 C 0.42398 0.40587 0.95274 0.0
C313 C 0.36497 0.34357 0.95694 0.0
C314 C 0.40046 0.34443 0.96356 0.0
C315 C 0.25109 0.3448 0.93557 0.0
O316 O 0.24654 0.37519 0.94292 0.0
H317 H 0.4454 0.44012 0.94943 0.0
H318 H 0.33047 0.31796 0.95759 0.0
O319 O 0.32842 0.4309 0.95805 0.0
H320 H 0.41531 0.47878 0.90202 0.0
H321 H 0.39905 0.31868 0.97005 0.0
Cu322 Cu 0.63417 0.96403 0.94142 0.0
N323 N 0.6253 0.93363 0.95725 0.0
N324 N 0.59498 0.90788 0.97668 0.0
C325 C 0.59347 0.92783 0.96536 0.0
C326 C 0.6294 0.90068 0.97553 0.0
C327 C 0.64812 0.91677 0.96355 0.0
O328 O 0.62947 0.01844 0.94596 0.0
C329 C 0.5918 0.9187 0.91574 0.0
O330 O 0.62991 0.94672 0.9109 0.0
H331 H 0.57047 0.93945 0.96302 0.0
H332 H 0.67656 0.91666 0.95981 0.0
N333 N 0.68912 0.98212 0.93457 0.0
N334 N 0.74258 0.97939 0.92385 0.0
C335 C 0.70681 0.95595 0.93105 0.0
C336 C 0.71487 0.02338 0.92956 0.0
C337 C 0.7478 0.02181 0.92295 0.0
C338 C 0.64646 0.04086 0.95724 0.0
O339 O 0.66971 0.02904 0.96498 0.0
H340 H 0.69247 0.91988 0.93308 0.0
H341 H 0.7088 0.05194 0.93014 0.0
O342 O 0.58718 0.92204 0.92823 0.0
H343 H 0.64024 0.8846 0.98272 0.0
H344 H 0.77341 0.04956 0.91777 0.0
Cu345 Cu 0.65112 0.69526 0.44564 0.0
N346 N 0.64494 0.71625 0.46258 0.0
N347 N 0.60926 0.71215 0.48103 0.0
C348 C 0.60609 0.70602 0.46752 0.0
C349 C 0.65236 0.72876 0.48466 0.0
C350 C 0.67418 0.73097 0.47328 0.0
O351 O 0.64352 0.63362 0.44768 0.0
C352 C 0.60588 0.68979 0.42024 0.0
O353 O 0.63505 0.68245 0.41453 0.0
H354 H 0.57537 0.69028 0.46138 0.0
H355 H 0.70799 0.73865 0.47297 0.0
N356 N 0.70814 0.73418 0.44005 0.0
N357 N 0.76476 0.77842 0.42775 0.0
C358 C 0.72148 0.76181 0.42965 0.0
C359 C 0.74435 0.73421 0.44495 0.0
C360 C 0.77915 0.76124 0.43741 0.0
C361 C 0.61994 0.60636 0.45641 0.0
O362 O 0.5952 0.61684 0.46349 0.0
H363 H 0.69958 0.76757 0.42316 0.0
H364 H 0.74481 0.71412 0.45309 0.0
O365 O 0.60704 0.69418 0.43297 0.0
H366 H 0.66639 0.73501 0.49485 0.0
H367 H 0.81225 0.76665 0.43864 0.0
Cu368 Cu 0.36167 0.9899 0.44098 0.0
N369 N 0.3403 0.95275 0.45537 0.0
N370 N 0.34289 0.91955 0.47408 0.0
C371 C 0.36536 0.94364 0.46377 0.0
C372 C 0.30189 0.91334 0.47204 0.0
C373 C 0.30046 0.93404 0.4605 0.0
O374 O 0.4194 0.04045 0.4476 0.0
C375 C 0.38687 0.97521 0.4157 0.0
O376 O 0.41128 0.02052 0.41639 0.0
H377 H 0.39986 0.95561 0.46249 0.0
H378 H 0.27264 0.93595 0.45627 0.0
N379 N 0.32595 0.01396 0.4361 0.0
N380 N 0.28321 0.03196 0.42372 0.0
C381 C 0.2988 1.00273 0.42496 0.0
C382 C 0.32719 0.05106 0.44214 0.0
C383 C 0.30089 0.06229 0.43452 0.0
C384 C 0.45489 0.03898 0.44743 0.0
O385 O 0.45465 1.00346 0.44138 0.0
H386 H 0.2924 0.97529 0.41759 0.0
H387 H 0.34719 0.06964 0.45118 0.0
O388 O 0.36405 0.95502 0.42546 0.0
H389 H 0.2747 0.89477 0.47832 0.0
H390 H 0.29569 0.09102 0.43663 0.0
Cu391 Cu 0.08106 0.42422 0.44329 0.0
N392 N 0.0891 0.46259 0.42919 0.0
N393 N 0.10818 0.49673 0.40978 0.0
C394 C 0.10434 0.46185 0.41705 0.0
C395 C 0.09457 0.52003 0.41766 0.0
C396 C 0.08294 0.49901 0.42956 0.0
O397 O 0.07797 0.36729 0.43667 0.0
C398 C 0.12769 0.43578 0.46781 0.0
O399 O 0.10387 0.39043 0.46724 0.0
H400 H 0.1127 0.43656 0.41359 0.0
H401 H 0.07204 0.51042 0.43806 0.0
N402 N 0.0277 0.4064 0.45107 0.0
N403 N 0.9777 0.40828 0.46381 0.0
C404 C 0.0138 0.43328 0.45691 0.0
C405 C 0.99942 0.36316 0.4544 0.0
C406 C 0.9685 0.36418 0.46222 0.0
C407 C 0.1053 0.36179 0.42997 0.0
O408 O 0.14329 0.39772 0.42743 0.0
H409 H 0.03081 0.47051 0.45664 0.0
H410 H 1.00218 0.33323 0.45175 0.0
O411 O 0.12552 0.45738 0.45791 0.0
H412 H 0.09486 0.55137 0.41528 0.0
H413 H 0.94132 0.3348 0.46642 0.0
Zn414 Zn 0.03259 0.03936 0.14919 0.0
Zn415 Zn 0.01582 0.04369 0.19445 0.0
Zn416 Zn 0.02377 0.0437 0.17307 0.0
C417 C 0.02055 0.96949 0.19137 0.0
C418 C 0.08868 0.1213 0.19404 0.0
O419 O 0.98801 0.07692 0.16421 0.0
O420 O 0.00994 0.07967 0.14379 0.0
C421 C 0.9806 0.9484 0.15457 0.0
O422 O 1.00447 0.97366 0.18005 0.0
O423 O 0.03858 1.00353 0.19987 0.0
O424 O 0.05278 0.11114 0.1991 0.0
O425 O 0.08811 0.09479 0.18426 0.0
O426 O 0.99486 0.97254 0.14462 0.0
O427 O 0.99045 0.96829 0.1665 0.0
O428 O 0.09699 0.08411 0.17118 0.0
O429 O 0.09669 0.06588 0.14975 0.0
C430 C 0.11784 0.08537 0.16075 0.0
O431 O 0.97208 0.06276 0.1773 0.0
O432 O 0.95117 0.01463 0.1933 0.0
C433 C 0.99022 0.09033 0.15221 0.0
C434 C 0.94305 0.03856 0.18558 0.0
Zn435 Zn 0.015 0.04796 0.34994 0.0
Zn436 Zn 0.02273 0.03266 0.39362 0.0
Zn437 Zn 0.0183 0.03801 0.37115 0.0
C438 C 0.04668 0.12229 0.39169 0.0
C439 C 0.93718 0.97003 0.38646 0.0
O440 O 0.03526 0.98962 0.36097 0.0
O441 O 0.99132 0.98248 0.34373 0.0
C442 C 0.09169 0.11996 0.35683 0.0
O443 O 0.05447 0.11085 0.3801 0.0
O444 O 0.02542 0.09092 0.3995 0.0
O445 O 0.96702 0.97378 0.39471 0.0
O446 O 0.94786 0.99757 0.37686 0.0
O447 O 0.07682 0.09032 0.34708 0.0
O448 O 0.06978 0.11145 0.36746 0.0
O449 O 0.9488 0.01684 0.36382 0.0
O450 O 0.97556 0.07415 0.35062 0.0
C451 C 0.9427 0.04324 0.35605 0.0
O452 O 0.05666 1.00215 0.37375 0.0
O453 O 0.07851 0.03192 0.39448 0.0
C454 C 0.01345 0.96783 0.34989 0.0
C455 C 0.08278 0.01173 0.38428 0.0
Zn456 Zn 0.02887 0.01725 0.90244 0.0
Zn457 Zn 0.02863 0.01389 0.85583 0.0
Zn458 Zn 0.03013 0.01661 0.87762 0.0
C459 C 0.02736 0.08984 0.86106 0.0
C460 C 0.95635 0.93907 0.85853 0.0
O461 O 0.06556 0.97965 0.88392 0.0
O462 O 0.05772 0.98078 0.90569 0.0
C463 C 0.07661 0.10988 0.89663 0.0
O464 O 0.05057 0.08703 0.87089 0.0
O465 O 1.00295 0.05422 0.85348 0.0
O466 O 0.98955 0.94592 0.85236 0.0
O467 O 0.96184 0.96782 0.86836 0.0
O468 O 0.06439 0.08487 0.90647 0.0
O469 O 0.06569 0.09108 0.8846 0.0
O470 O 0.95864 0.98039 0.88195 0.0
O471 O 0.96443 0.98721 0.90404 0.0
C472 C 0.94055 0.9746 0.89323 0.0
O473 O 0.07873 0.99631 0.87083 0.0
O474 O 0.09286 0.04193 0.85429 0.0
C475 C 0.07096 0.96827 0.89572 0.0
C476 C 0.10414 0.01942 0.86161 0.0
Zn477 Zn 0.03227 0.02134 0.70184 0.0
Zn478 Zn 0.03357 0.02517 0.65409 0.0
Zn479 Zn 0.03462 0.02477 0.67917 0.0
C480 C 0.98593 0.93315 0.6587 0.0
C481 C 0.12232 0.06887 0.66274 0.0
O482 O 0.00771 0.06773 0.68746 0.0
O483 O 0.98389 0.03278 0.70603 0.0
C484 C 0.99164 0.93398 0.69607 0.0
O485 O 0.99705 0.95143 0.67078 0.0
O486 O 0.99627 0.95875 0.649 0.0
O487 O 0.09734 0.05355 0.65216 0.0
O488 O 0.10532 0.06109 0.67421 0.0
O489 O 0.02119 0.95863 0.70509 0.0
O490 O 0.99006 0.95251 0.68515 0.0
O491 O 0.10316 0.05112 0.68862 0.0
O492 O 0.09131 0.07169 0.70832 0.0
C493 C 0.11766 0.06892 0.70068 0.0
O494 O 1.00262 0.06473 0.67293 0.0
O495 O 0.00782 0.06472 0.65106 0.0
C496 C 0.98729 0.06283 0.69824 0.0
C497 C 0.99545 0.07634 0.6614 0.0
Zn498 Zn 0.67511 0.3547 0.52832 0.0
Zn499 Zn 0.6942 0.3564 0.48296 0.0
Zn500 Zn 0.68386 0.35688 0.50693 0.0
C501 C 0.77885 0.39984 0.49492 0.0
C502 C 0.64096 0.26426 0.48759 0.0
O503 O 0.63392 0.37736 0.5117 0.0
O504 O 0.61018 0.32631 0.52695 0.0
C505 C 0.74864 0.4317 0.52836 0.0
O506 O 0.75706 0.3954 0.50537 0.0
O507 O 0.75854 0.38414 0.48359 0.0
O508 O 0.6567 0.28965 0.47795 0.0
O509 O 0.64977 0.28259 0.49968 0.0
O510 O 0.71255 0.42182 0.53326 0.0
O511 O 0.74788 0.40582 0.51837 0.0
O512 O 0.66363 0.28552 0.51327 0.0
O513 O 0.70002 0.31535 0.53277 0.0
C514 C 0.682 0.28167 0.52418 0.0
O515 O 0.65004 0.39326 0.49862 0.0
O516 O 0.67142 0.39695 0.4781 0.0
C517 C 0.6041 0.35281 0.51973 0.0
C518 C 0.65255 0.40786 0.48676 0.0
Zn519 Zn 0.68969 0.37001 0.73104 0.0
Zn520 Zn 0.68698 0.37716 0.68547 0.0
Zn521 Zn 0.68815 0.37024 0.70668 0.0
C522 C 0.61587 0.37572 0.69024 0.0
C523 C 0.76322 0.44771 0.69188 0.0
O524 O 0.72377 0.33286 0.71075 0.0
O525 O 0.72848 0.34354 0.73276 0.0
C526 C 0.60091 0.31708 0.72297 0.0
O527 O 0.62007 0.34902 0.69837 0.0
O528 O 0.65025 0.40679 0.68541 0.0
O529 O 0.75065 0.41474 0.68321 0.0
O530 O 0.73851 0.44276 0.70164 0.0
O531 O 0.62649 0.32941 0.73339 0.0
O532 O 0.61699 0.33083 0.71156 0.0
O533 O 0.72405 0.4445 0.71436 0.0
O534 O 0.71505 0.43622 0.73596 0.0
C535 C 0.72831 0.46227 0.72637 0.0
O536 O 0.70625 0.32143 0.69695 0.0
O537 O 0.65896 0.31066 0.68033 0.0
C538 C 0.73829 0.32915 0.72237 0.0
C539 C 0.6829 0.29775 0.68624 0.0
Zn540 Zn 0.68084 0.33902 0.23487 0.0
Zn541 Zn 0.695 0.33846 0.18972 0.0
Zn542 Zn 0.68711 0.33706 0.21096 0.0
C543 C 0.69304 0.41347 0.19269 0.0
C544 C 0.62048 0.26175 0.19028 0.0
O545 O 0.72046 0.29943 0.21887 0.0
O546 O 0.6958 0.29165 0.23906 0.0
C547 C 0.73741 0.43011 0.2293 0.0
O548 O 0.70855 0.40815 0.20396 0.0
O549 O 0.67384 0.37968 0.18415 0.0
O550 O 0.65647 0.27174 0.18531 0.0
O551 O 0.62152 0.28772 0.20028 0.0
O552 O 0.72578 0.40504 0.23914 0.0
O553 O 0.72255 0.41142 0.21736 0.0
O554 O 0.61422 0.30132 0.21327 0.0
O555 O 0.61807 0.31992 0.23485 0.0
C556 C 0.59523 0.30236 0.22395 0.0
O557 O 0.73765 0.31669 0.20631 0.0
O558 O 0.75902 0.36428 0.19011 0.0
C559 C 0.71505 0.28154 0.23034 0.0
C560 C 0.76638 0.33981 0.19782 0.0
Zn561 Zn 0.70365 0.35539 0.03187 0.0
Zn562 Zn 0.69725 0.35756 0.9859 0.0
Zn563 Zn 0.70031 0.35727 1.01036 0.0
C564 C 0.66048 0.2651 0.99088 0.0
C565 C 0.78656 0.41033 0.99374 0.0
O566 O 0.68028 0.4054 1.01956 0.0
O567 O 0.73019 0.42266 0.03601 0.0
C568 C 0.62734 0.28162 0.02574 0.0
O569 O 0.66542 0.2827 1.00295 0.0
O570 O 0.67222 0.2912 0.98128 0.0
O571 O 0.76042 0.39805 0.98344 0.0
O572 O 0.77118 0.39682 1.00524 0.0
O573 O 0.64008 0.31562 0.03407 0.0
O574 O 0.65148 0.2854 1.01592 0.0
O575 O 0.76948 0.38047 1.01859 0.0
O576 O 0.74219 0.32862 0.03356 0.0
C577 C 0.77519 0.35721 0.02764 0.0
O578 O 0.66256 0.39262 1.00585 0.0
O579 O 0.65801 0.38336 0.98381 0.0
C580 C 0.70417 0.43221 0.02979 0.0
C581 C 0.64762 0.39652 0.99431 0.0
Zn582 Zn 0.34568 0.69776 0.88306 0.0
Zn583 Zn 0.3511 0.68496 0.81251 0.0
Zn584 Zn 0.34841 0.68994 0.8366 0.0
C585 C 0.43854 0.72484 0.82243 0.0
C586 C 0.29819 0.59393 0.81924 0.0
O587 O 0.3073 0.71832 0.84384 0.0
O588 O 0.33171 0.70746 0.86286 0.0
C589 C 0.41443 0.73699 0.85963 0.0
O590 O 0.42059 0.72501 0.83339 0.0
O591 O 0.41482 0.70749 0.81167 0.0
O592 O 0.3103 0.61761 0.80912 0.0
O593 O 0.31081 0.61424 0.83107 0.0
O594 O 0.37683 0.71272 0.86449 0.0
O595 O 0.41491 0.73297 0.84687 0.0
O596 O 0.32269 0.62212 0.84509 0.0
O597 O 0.33393 0.66348 0.86361 0.0
C598 C 0.32442 0.62453 0.85792 0.0
O599 O 0.3147 0.72758 0.82984 0.0
O600 O 0.32953 0.72799 0.80866 0.0
C601 C 0.30676 0.71913 0.85663 0.0
C602 C 0.31414 0.74095 0.81797 0.0
Zn603 Zn 0.3461 0.68959 0.06429 0.0
Zn604 Zn 0.35961 0.70202 1.01999 0.0
Zn605 Zn 0.35198 0.69789 0.04107 0.0
C606 C 0.29051 0.70986 1.02128 0.0
C607 C 0.43424 0.77191 0.02912 0.0
O608 O 0.38735 0.6605 0.04644 0.0
O609 O 0.39286 0.67483 0.0683 0.0
C610 C 0.26091 0.63602 0.05307 0.0
O611 O 0.28797 0.68282 0.03049 0.0
O612 O 0.32782 0.73554 1.01683 0.0
O613 O 0.42521 0.73708 1.02152 0.0
O614 O 0.40502 0.76921 0.03704 0.0
O615 O 0.28457 0.63886 0.06326 0.0
O616 O 0.27895 0.66086 0.04315 0.0
O617 O 0.38758 0.77046 0.04956 0.0
O618 O 0.35807 0.7528 0.069 0.0
C619 C 0.37986 0.78306 0.06094 0.0
O620 O 0.36935 0.64588 0.03337 0.0
O621 O 0.32746 0.63469 1.01523 0.0
C622 C 0.40375 0.66035 0.05819 0.0
C623 C 0.34753 0.62078 1.02267 0.0
Zn624 Zn 0.35692 0.6912 0.56775 0.0
Zn625 Zn 0.36026 0.69047 0.52218 0.0
Zn626 Zn 0.35779 0.69281 0.54399 0.0
C627 C 0.36178 0.7688 0.52695 0.0
C628 C 0.28468 0.61625 0.52479 0.0
O629 O 0.39007 0.65225 0.55017 0.0
O630 O 0.3736 0.64519 0.57129 0.0
C631 C 0.41297 0.78341 0.56308 0.0
O632 O 0.37988 0.7638 0.53771 0.0
O633 O 0.34075 0.73489 0.51851 0.0
O634 O 0.31808 0.6236 0.51868 0.0
O635 O 0.28953 0.64487 0.53458 0.0
O636 O 0.40255 0.75572 0.57226 0.0
O637 O 0.3957 0.76775 0.55109 0.0
O638 O 0.28604 0.65896 0.54801 0.0
O639 O 0.29522 0.67322 0.56992 0.0
C640 C 0.26992 0.65857 0.5594 0.0
O641 O 0.40626 0.67093 0.53795 0.0
O642 O 0.42263 0.71164 0.52016 0.0
C643 C 0.38938 0.635 0.56154 0.0
C644 C 0.43183 0.68968 0.52834 0.0
Zn645 Zn 0.36916 0.71336 0.32586 0.0
Zn646 Zn 0.35844 0.6993 0.36981 0.0
Zn647 Zn 0.36382 0.69992 0.34835 0.0
C648 C 0.43044 0.69607 0.36876 0.0
C649 C 0.28438 0.62392 0.36079 0.0
O650 O 0.32707 0.73689 0.34309 0.0
O651 O 0.32056 0.72402 0.32113 0.0
C652 C 0.45375 0.7649 0.33616 0.0
O653 O 0.4295 0.71732 0.35838 0.0
O654 O 0.39511 0.67255 0.37448 0.0
O655 O 0.29327 0.65847 0.36851 0.0
O656 O 0.31279 0.62778 0.35238 0.0
O657 O 0.42917 0.76774 0.32721 0.0
O658 O 0.43619 0.73511 0.34507 0.0
O659 O 0.32853 0.62858 0.33896 0.0
O660 O 0.3609 0.65202 0.32016 0.0
C661 C 0.33793 0.6192 0.32739 0.0
O662 O 0.34536 0.75169 0.35583 0.0
O663 O 0.38446 0.76599 0.37487 0.0
C664 C 0.31013 0.73767 0.33149 0.0
C665 C 0.36452 0.7777 0.36663 0.0
H666 H 0.24745 0.23245 0.23655 0.0
H667 H 0.18682 0.31645 0.23923 0.0
H668 H 0.13486 0.27082 0.22026 0.0
H669 H 0.1028 0.20309 0.20425 0.0
H670 H 0.16476 0.12072 0.20056 0.0
H671 H 0.22123 0.17058 0.21824 0.0
C672 C 0.22278 0.24059 0.23293 0.0
C673 C 0.22007 0.27694 0.23944 0.0
C674 C 0.19389 0.21504 0.22174 0.0
C675 C 0.18901 0.28822 0.23447 0.0
C676 C 0.15947 0.26228 0.22361 0.0
C677 C 0.1295 0.19694 0.20706 0.0
C678 C 0.12973 0.15839 0.20116 0.0
C679 C 0.16122 0.22525 0.2173 0.0
C680 C 0.1643 0.15058 0.20485 0.0
C681 C 0.19611 0.17863 0.21511 0.0
H682 H 0.8399 0.06405 0.22807 0.0
H683 H 0.76392 0.91647 0.21984 0.0
H684 H 0.79683 0.92393 0.19837 0.0
H685 H 0.85934 0.96984 0.18503 0.0
H686 H 0.94254 0.11595 0.19454 0.0
H687 H 0.8937 0.11268 0.21183 0.0
C688 C 0.82965 0.03388 0.22133 0.0
C689 C 0.80005 0.98965 0.22555 0.0
C690 C 0.8502 0.0384 0.20919 0.0
C691 C 0.78711 0.95066 0.21682 0.0
C692 C 0.80589 0.95497 0.20456 0.0
C693 C 0.86522 1.00139 0.19037 0.0
C694 C 0.90454 0.04295 0.18861 0.0
C695 C 0.83915 0.99834 0.20099 0.0
C696 C 0.91225 0.0836 0.19563 0.0
C697 C 0.88489 0.08143 0.20578 0.0
H698 H 0.06014 0.82587 0.21612 0.0
H699 H 0.97976 0.83748 0.2459 0.0
H700 H 0.95993 0.8805 0.23114 0.0
H701 H 0.97322 0.92422 0.21132 0.0
H702 H 0.05757 0.91976 0.18201 0.0
H703 H 0.06735 0.86398 0.19481 0.0
C704 C 0.03821 0.83767 0.21937 0.0
C705 C 0.02188 0.82843 0.23225 0.0
C706 C 0.02741 0.86357 0.21085 0.0
C707 C 0.99273 0.8434 0.2361 0.0
C708 C 0.98141 0.86836 0.22766 0.0
C709 C 0.99241 0.90961 0.20751 0.0
C710 C 0.01424 0.92537 0.19574 0.0
C711 C 0.9994 0.87962 0.2152 0.0
C712 C 0.03974 0.9072 0.19094 0.0
C713 C 0.04591 0.87601 0.19839 0.0
H714 H 0.26977 0.22807 0.33254 0.0
H715 H 0.19077 0.2635 0.30701 0.0
H716 H 0.13255 0.23319 0.32251 0.0
H717 H 0.09926 0.18594 0.34136 0.0
H718 H 0.17505 0.14596 0.36636 0.0
H719 H 0.24009 0.191 0.35362 0.0
C720 C 0.24014 0.22983 0.33047 0.0
C721 C 0.23437 0.24682 0.31833 0.0
C722 C 0.20639 0.21223 0.33952 0.0
C723 C 0.19571 0.24905 0.31592 0.0
C724 C 0.16247 0.23227 0.32491 0.0
C725 C 0.13078 0.18926 0.34445 0.0
C726 C 0.13265 0.16335 0.35488 0.0
C727 C 0.16685 0.2125 0.33651 0.0
C728 C 0.17318 0.16664 0.35858 0.0
C729 C 0.21002 0.19141 0.35106 0.0
H730 H 0.79636 0.98486 0.31106 0.0
H731 H 0.83551 0.12866 0.31718 0.0
H732 H 0.87981 0.13567 0.33756 0.0
H733 H 0.91503 0.10341 0.35174 0.0
H734 H 0.8753 0.95951 0.34602 0.0
H735 H 0.82188 0.94921 0.32779 0.0
C736 C 0.81449 0.01762 0.31693 0.0
C737 C 0.81384 0.05662 0.31247 0.0
C738 C 0.83903 0.02105 0.32881 0.0
C739 C 0.83619 0.09847 0.32032 0.0
C740 C 0.86132 0.1024 0.332 0.0
C741 C 0.89319 0.06933 0.34689 0.0
C742 C 0.89899 0.03225 0.35021 0.0
C743 C 0.86382 0.06422 0.33614 0.0
C744 C 0.87093 0.98836 0.3438 0.0
C745 C 0.84111 0.98277 0.33316 0.0
H746 H 0.04622 0.80968 0.32672 0.0
H747 H 0.96932 0.81747 0.29328 0.0
H748 H 0.96034 0.87499 0.30595 0.0
H749 H 0.97612 0.92476 0.32582 0.0
H750 H 0.05635 0.92305 0.35929 0.0
H751 H 0.062 0.86107 0.34734 0.0
C752 C 0.02728 0.82383 0.32229 0.0
C753 C 0.00851 0.80937 0.30906 0.0
C754 C 0.02293 0.85792 0.32959 0.0
C755 C 0.98435 0.8282 0.30339 0.0
C756 C 0.9791 0.86105 0.31064 0.0
C757 C 0.99477 0.91089 0.33064 0.0
C758 C 0.01581 0.92864 0.34347 0.0
C759 C 0.99858 0.87643 0.32365 0.0
C760 C 0.0398 0.91003 0.34943 0.0
C761 C 0.04309 0.87468 0.34258 0.0
H762 H 0.79874 0.84315 0.81577 0.0
H763 H 0.84046 0.74225 0.81519 0.0
H764 H 0.8908 0.78231 0.83487 0.0
H765 H 0.92981 0.85142 0.85031 0.0
H766 H 0.88731 0.95141 0.85171 0.0
H767 H 0.82927 0.9056 0.83401 0.0
C768 C 0.81862 0.82984 0.82006 0.0
C769 C 0.81668 0.7904 0.81388 0.0
C770 C 0.84692 0.85258 0.8316 0.0
C771 C 0.84173 0.77277 0.81969 0.0
C772 C 0.87048 0.79563 0.83095 0.0
C773 C 0.90663 0.86213 0.84709 0.0
C774 C 0.91261 0.90452 0.85227 0.0
C775 C 0.87414 0.83615 0.83678 0.0
C776 C 0.88281 0.91847 0.848 0.0
C777 C 0.85019 0.89271 0.8377 0.0
H778 H 0.22508 0.99246 0.8237 0.0
H779 H 0.30307 0.14005 0.83188 0.0
H780 H 0.25567 0.13563 0.84973 0.0
H781 H 0.18618 0.09117 0.86066 0.0
H782 H 0.10752 0.94368 0.8527 0.0
H783 H 0.16172 0.94603 0.83751 0.0
C784 C 0.23172 0.02347 0.8295 0.0
C785 C 0.26689 0.06671 0.82633 0.0
C786 C 0.20456 0.02048 0.83988 0.0
C787 C 0.27599 0.10657 0.83409 0.0
C788 C 0.24893 0.104 0.84429 0.0
C789 C 0.18206 0.05932 0.85607 0.0
C790 C 0.14327 0.01725 0.85787 0.0
C791 C 0.21251 0.06133 0.84703 0.0
C792 C 0.13763 0.97627 0.85169 0.0
C793 C 0.16817 0.97783 0.84278 0.0
H794 H 0.05414 0.23633 0.82179 0.0
H795 H 0.91462 0.17711 0.82692 0.0
H796 H 0.92045 0.13739 0.84601 0.0
H797 H 0.96191 0.10829 0.8584 0.0
H798 H 0.10082 0.16585 0.85342 0.0
H799 H 0.0991 0.219 0.83757 0.0
C800 C 0.02521 0.21577 0.82727 0.0
C801 C 0.98361 0.20854 0.82255 0.0
C802 C 0.02878 0.19282 0.83834 0.0
C803 C 0.94669 0.18197 0.82995 0.0
C804 C 0.95003 0.15947 0.84097 0.0
C805 C 0.99221 0.13409 0.85431 0.0
C806 C 0.03143 0.13346 0.85706 0.0
C807 C 0.99044 0.16303 0.84487 0.0
C808 C 0.07043 0.16635 0.8516 0.0
C809 C 0.06918 0.19607 0.84234 0.0
H810 H 0.86823 0.81911 0.73829 0.0
H811 H 0.79013 0.87229 0.72046 0.0
H812 H 0.83763 0.89755 0.70188 0.0
H813 H 0.90779 0.91548 0.69257 0.0
H814 H 0.98779 0.86618 0.71102 0.0
H815 H 0.93155 0.82585 0.72693 0.0
C816 C 0.86077 0.83534 0.73028 0.0
C817 C 0.82593 0.8447 0.73115 0.0
C818 C 0.88833 0.84989 0.71951 0.0
C819 C 0.81731 0.86578 0.72046 0.0
C820 C 0.84428 0.87989 0.70967 0.0
C821 C 0.91187 0.89396 0.69963 0.0
C822 C 0.95183 0.89368 0.7006 0.0
C823 C 0.88074 0.87349 0.70931 0.0
C824 C 0.95709 0.86649 0.71 0.0
C825 C 0.92532 0.84425 0.71928 0.0
H826 H 0.25154 0.01761 0.72637 0.0
H827 H 0.22242 0.07317 0.76155 0.0
H828 H 0.18329 0.10063 0.74755 0.0
H829 H 0.15222 0.10339 0.7258 0.0
H830 H 0.17302 0.0407 0.69058 0.0
H831 H 0.22267 0.02398 0.704 0.0
C832 C 0.23662 0.03573 0.73097 0.0
C833 C 0.23946 0.04269 0.74505 0.0
C834 C 0.21343 0.05097 0.72282 0.0
C835 C 0.22022 0.06659 0.7508 0.0
C836 C 0.19813 0.08272 0.74278 0.0
C837 C 0.16821 0.08683 0.72093 0.0
C838 C 0.15834 0.07283 0.70718 0.0
C839 C 0.19399 0.0745 0.72883 0.0
C840 C 0.17996 0.05198 0.7011 0.0
C841 C 0.20777 0.04169 0.70884 0.0
H842 H 0.93436 0.16913 0.73801 0.0
H843 H 0.07643 0.25015 0.74479 0.0
H844 H 0.08459 0.20978 0.72528 0.0
H845 H 0.05126 0.14557 0.70799 0.0
H846 H 0.90969 0.05917 0.70287 0.0
H847 H 0.90113 0.10866 0.71967 0.0
C848 C 0.96718 0.17827 0.73518 0.0
C849 C 1.00476 0.21229 0.74298 0.0
C850 C 0.97157 0.15441 0.72409 0.0
C851 C 0.04696 0.22375 0.7391 0.0
C852 C 0.05164 0.20085 0.72789 0.0
C853 C 0.01857 0.13894 0.71017 0.0
C854 C 0.98106 0.09977 0.704 0.0
C855 C 0.01419 0.16555 0.72048 0.0
C856 C 0.93885 0.08998 0.70726 0.0
C857 C 0.93408 0.11777 0.71702 0.0
H858 H 0.92381 0.53909 0.56526 0.0
H859 H 0.84727 0.59166 0.58369 0.0
H860 H 0.78942 0.55295 0.56568 0.0
H861 H 0.75776 0.49893 0.54601 0.0
H862 H 0.83191 0.44319 0.52784 0.0
H863 H 0.89433 0.48978 0.54421 0.0
C864 C 0.89457 0.54227 0.56532 0.0
C865 C 0.88961 0.56771 0.57595 0.0
C866 C 0.86125 0.51971 0.55493 0.0
C867 C 0.85179 0.57198 0.57574 0.0
C868 C 0.81872 0.54993 0.56542 0.0
C869 C 0.78786 0.49747 0.54547 0.0
C870 C 0.79003 0.46724 0.5358 0.0
C871 C 0.82275 0.52302 0.55514 0.0
C872 C 0.82943 0.46624 0.53514 0.0
C873 C 0.86489 0.49247 0.54461 0.0
H874 H 0.43834 0.30381 0.54886 0.0
H875 H 0.53791 0.41266 0.57608 0.0
H876 H 0.59091 0.43612 0.55896 0.0
H877 H 0.61294 0.41723 0.53787 0.0
H878 H 0.51685 0.30304 0.51169 0.0
H879 H 0.45838 0.29128 0.5264 0.0
C880 C 0.47153 0.33275 0.55106 0.0
C881 C 0.48395 0.35579 0.56393 0.0
C882 C 0.50252 0.34557 0.5412 0.0
C883 C 0.52701 0.39406 0.56637 0.0
C884 C 0.55759 0.40758 0.55655 0.0
C885 C 0.57872 0.39147 0.53504 0.0
C886 C 0.56896 0.36162 0.5236 0.0
C887 C 0.54616 0.38271 0.54409 0.0
C888 C 0.52487 0.32721 0.52025 0.0
C889 C 0.49168 0.31979 0.52886 0.0
H890 H 0.66502 0.13714 0.56275 0.0
H891 H 0.80559 0.20619 0.55802 0.0
H892 H 0.79676 0.24484 0.53912 0.0
H893 H 0.75145 0.2695 0.52667 0.0
H894 H 0.61156 0.20209 0.53137 0.0
H895 H 0.61735 0.15076 0.54707 0.0
C896 C 0.69368 0.15966 0.55743 0.0
C897 C 0.73624 0.16973 0.56223 0.0
C898 C 0.68838 0.18193 0.54644 0.0
C899 C 0.77268 0.19892 0.55498 0.0
C900 C 0.76764 0.22086 0.54405 0.0
C901 C 0.72193 0.24192 0.53062 0.0
C902 C 0.68108 0.2391 0.52778 0.0
C903 C 0.72597 0.21407 0.54005 0.0
C904 C 0.64315 0.20414 0.53319 0.0
C905 C 0.6467 0.17548 0.54239 0.0
H906 H 0.88188 0.59082 0.65434 0.0
H907 H 0.95497 0.52061 0.66084 0.0
H908 H 0.9121 0.48449 0.67987 0.0
H909 H 0.8448 0.4612 0.6916 0.0
H910 H 0.76923 0.52793 0.68467 0.0
H911 H 0.82334 0.5789 0.66942 0.0
C912 C 0.88933 0.56865 0.66011 0.0
C913 C 0.92086 0.5574 0.65583 0.0
C914 C 0.86416 0.54757 0.67108 0.0
C915 C 0.92998 0.52868 0.66357 0.0
C916 C 0.90567 0.50825 0.67455 0.0
C917 C 0.84158 0.48867 0.6873 0.0
C918 C 0.80338 0.49111 0.68929 0.0
C919 C 0.87142 0.51582 0.678 0.0
C920 C 0.79885 0.52605 0.68348 0.0
C921 C 0.82929 0.55443 0.67451 0.0
H922 H 0.45347 0.29272 0.64903 0.0
H923 H 0.51592 0.43646 0.64019 0.0
H924 H 0.56596 0.45791 0.66014 0.0
H925 H 0.5977 0.43517 0.67832 0.0
H926 H 0.53915 0.29154 0.68661 0.0
H927 H 0.48044 0.27089 0.66904 0.0
C928 C 0.47789 0.32878 0.65149 0.0
C929 C 0.48151 0.36286 0.64294 0.0
C930 C 0.50682 0.34091 0.66298 0.0
C931 C 0.51278 0.40947 0.64646 0.0
C932 C 0.5413 0.4218 0.6579 0.0
C933 C 0.57137 0.39943 0.67653 0.0
C934 C 0.57302 0.36485 0.68363 0.0
C935 C 0.53931 0.38773 0.66602 0.0
C936 C 0.53853 0.31882 0.68133 0.0
C937 C 0.50542 0.30696 0.67112 0.0
H938 H 0.72879 0.15412 0.65948 0.0
H939 H 0.63847 0.15185 0.62853 0.0
H940 H 0.62446 0.20298 0.64272 0.0
H941 H 0.63987 0.25041 0.66311 0.0
H942 H 0.73448 0.26012 0.69381 0.0
H943 H 0.74428 0.20303 0.68058 0.0
C944 C 0.70585 0.16467 0.65591 0.0
C945 C 0.68467 0.14926 0.64295 0.0
C946 C 0.69872 0.19515 0.66405 0.0
C947 C 0.65536 0.16345 0.6384 0.0
C948 C 0.64724 0.19256 0.64653 0.0
C949 C 0.66258 0.2401 0.66707 0.0
C950 C 0.68655 0.25978 0.67948 0.0
C951 C 0.66906 0.20892 0.65926 0.0
C952 C 0.71559 0.24555 0.68433 0.0
C953 C 0.72132 0.2131 0.67672 0.0
H954 H 0.43603 0.13925 0.15761 0.0
H955 H 0.52214 0.12466 0.13079 0.0
H956 H 0.58417 0.16528 0.14748 0.0
H957 H 0.6148 0.20911 0.1686 0.0
H958 H 0.5333 0.23441 0.19476 0.0
H959 H 0.46799 0.18419 0.17958 0.0
C960 C 0.46839 0.14475 0.15554 0.0
C961 C 0.47478 0.12914 0.14302 0.0
C962 C 0.50442 0.16979 0.16503 0.0
C963 C 0.51671 0.13672 0.14032 0.0
C964 C 0.55205 0.15975 0.14986 0.0
C965 C 0.58279 0.20357 0.17116 0.0
C966 C 0.5791 0.22586 0.18281 0.0
C967 C 0.5464 0.17706 0.16211 0.0
C968 C 0.53713 0.21769 0.18589 0.0
C969 C 0.49991 0.18929 0.17714 0.0
H970 H 0.94258 0.40681 0.17312 0.0
H971 H 0.85466 0.30175 0.14292 0.0
H972 H 0.79579 0.27151 0.15825 0.0
H973 H 0.76592 0.28205 0.17887 0.0
H974 H 0.85099 0.39017 0.20848 0.0
H975 H 0.91481 0.41011 0.19525 0.0
C976 C 0.91077 0.37689 0.16996 0.0
C977 C 0.90296 0.35758 0.15669 0.0
C978 C 0.87665 0.35951 0.17889 0.0
C979 C 0.86143 0.31859 0.15284 0.0
C980 C 0.82775 0.30074 0.16169 0.0
C981 C 0.79893 0.30823 0.18276 0.0
C982 C 0.80396 0.33402 0.19474 0.0
C983 C 0.83457 0.32171 0.17459 0.0
C984 C 0.84654 0.36899 0.19947 0.0
C985 C 0.8828 0.38118 0.19171 0.0
H986 H 0.6574 0.55738 0.16663 0.0
H987 H 0.74176 0.5466 0.1382 0.0
H988 H 0.76016 0.50376 0.15356 0.0
H989 H 0.74425 0.4597 0.17346 0.0
H990 H 0.65579 0.46363 0.2013 0.0
H991 H 0.64777 0.5195 0.18804 0.0
C992 C 0.67988 0.5458 0.1638 0.0
C993 C 0.6977 0.55505 0.15111 0.0
C994 C 0.68988 0.52014 0.17266 0.0
C995 C 0.72759 0.54047 0.14782 0.0
C996 C 0.7381 0.51569 0.15662 0.0
C997 C 0.72466 0.47436 0.17689 0.0
C998 C 0.70117 0.45836 0.18839 0.0
C999 C 0.71858 0.50432 0.16887 0.0
C1000 C 0.67499 0.47644 0.19264 0.0
C1001 C 0.66979 0.50764 0.1849 0.0
H1002 H 0.50246 0.14372 0.06367 0.0
H1003 H 0.43074 0.21311 0.05377 0.0
H1004 H 0.47691 0.24724 0.03519 0.0
H1005 H 0.54588 0.2688 1.02461 0.0
H1006 H 0.62002 0.20284 0.03485 0.0
H1007 H 0.56365 0.15418 0.04992 0.0
C1008 C 0.49612 0.1653 0.05726 0.0
C1009 C 0.46383 0.17684 0.06043 0.0
C1010 C 0.52318 0.18522 0.04654 0.0
C1011 C 0.45619 0.20481 0.05189 0.0
C1012 C 0.4824 0.22411 0.04117 0.0
C1013 C 0.54837 0.24196 0.02961 0.0
C1014 C 0.58668 0.23898 0.02854 0.0
C1015 C 0.51712 0.21611 0.03876 0.0
C1016 C 0.59031 0.20501 0.03529 0.0
C1017 C 0.55853 0.17796 0.04415 0.0
H1018 H 0.9219 0.33755 0.05792 0.0
H1019 H 0.88735 0.40231 0.08951 0.0
H1020 H 0.84331 0.41755 0.07337 0.0
H1021 H 0.8079 0.40482 0.05093 0.0
H1022 H 0.83541 0.33363 1.01961 0.0
H1023 H 0.89038 0.33024 0.03477 0.0
C1024 C 0.90493 0.35522 0.06126 0.0
C1025 C 0.9075 0.36815 0.07498 0.0
C1026 C 0.87902 0.36342 0.0519 0.0
C1027 C 0.88552 0.39133 0.07908 0.0
C1028 C 0.86052 0.40037 0.06984 0.0
C1029 C 0.82736 0.39029 0.0473 0.0
C1030 C 0.81859 0.37048 0.03414 0.0
C1031 C 0.85638 0.38582 0.05629 0.0
C1032 C 0.84267 0.35028 0.02959 0.0
C1033 C 0.87335 0.34753 0.03836 0.0
H1034 H 0.63762 0.54009 0.06492 0.0
H1035 H 0.77197 0.60271 0.0819 0.0
H1036 H 0.78906 0.56359 0.06417 0.0
H1037 H 0.76416 0.50579 0.04544 0.0
H1038 H 0.6294 0.4395 0.02887 0.0
H1039 H 0.61454 0.48728 0.04453 0.0
C1040 C 0.67073 0.54542 0.06471 0.0
C1041 C 0.7033 0.57378 0.0749 0.0
C1042 C 0.68032 0.52252 0.05449 0.0
C1043 C 0.74615 0.58076 0.07432 0.0
C1044 C 0.756 0.55848 0.06415 0.0
C1045 C 0.73171 0.50244 0.04505 0.0
C1046 C 0.69777 0.46885 0.03608 0.0
C1047 C 0.72312 0.52855 0.05439 0.0
C1048 C 0.65612 0.46525 0.0356 0.0
C1049 C 0.64751 0.49211 0.0447 0.0
H1050 H 0.59188 0.89786 0.88906 0.0
H1051 H 0.5086 0.85679 0.92244 0.0
H1052 H 0.44788 0.79585 0.90815 0.0
H1053 H 0.41798 0.75532 0.88632 0.0
H1054 H 0.49908 0.79559 0.85253 0.0
H1055 H 0.56146 0.85552 0.86692 0.0
C1056 C 0.56044 0.87563 0.89321 0.0
C1057 C 0.55489 0.88216 0.90684 0.0
C1058 C 0.52541 0.84039 0.8849 0.0
C1059 C 0.51391 0.8528 0.91202 0.0
C1060 C 0.47911 0.81781 0.90385 0.0
C1061 C 0.44923 0.77679 0.88205 0.0
C1062 C 0.45368 0.77078 0.86834 0.0
C1063 C 0.48448 0.81139 0.8903 0.0
C1064 C 0.49469 0.79932 0.86305 0.0
C1065 C 0.53031 0.83373 0.87127 0.0
H1066 H 0.20344 0.73189 0.90406 0.0
H1067 H 0.09594 0.61575 0.88099 0.0
H1068 H 0.14312 0.62899 0.86243 0.0
H1069 H 0.21751 0.66823 0.85371 0.0
H1070 H 0.32575 0.78067 0.87748 0.0
H1071 H 0.27564 0.77563 0.8945 0.0
C1072 C 0.19001 0.70999 0.89489 0.0
C1073 C 0.14622 0.67246 0.89406 0.0
C1074 C 0.21754 0.71756 0.88426 0.0
C1075 C 0.12971 0.64424 0.88208 0.0
C1076 C 0.15662 0.65202 0.87139 0.0
C1077 C 0.22958 0.69278 0.86236 0.0
C1078 C 0.27493 0.72556 0.86422 0.0
C1079 C 0.20091 0.68793 0.87246 0.0
C1080 C 0.29071 0.75596 0.87572 0.0
C1081 C 0.26218 0.75259 0.88554 0.0
H1082 H 0.36113 0.48106 0.88601 0.0
H1083 H 0.34302 0.54703 0.92094 0.0
H1084 H 0.32293 0.59216 0.90674 0.0
H1085 H 0.31502 0.61625 0.88455 0.0
H1086 H 0.33345 0.55134 0.84942 0.0
H1087 H 0.34768 0.50144 0.86348 0.0
C1088 C 0.35291 0.50544 0.89048 0.0
C1089 C 0.35409 0.51113 0.90452 0.0
C1090 C 0.34105 0.53107 0.88222 0.0
C1091 C 0.34233 0.54204 0.91018 0.0
C1092 C 0.3309 0.56786 0.90206 0.0
C1093 C 0.32176 0.59093 0.87994 0.0
C1094 C 0.32374 0.58799 0.86596 0.0
C1095 C 0.33067 0.56306 0.88809 0.0
C1096 C 0.33166 0.55431 0.86015 0.0
C1097 C 0.34025 0.52609 0.8682 0.0
H1098 H 0.6057 0.884 1.00166 0.0
H1099 H 0.51529 0.90373 0.97606 0.0
H1100 H 0.46158 0.87589 0.99283 0.0
H1101 H 0.43441 0.83258 1.01276 0.0
H1102 H 0.51997 0.80338 0.03706 0.0
H1103 H 0.58149 0.84937 1.02321 0.0
C1104 C 0.57443 0.88249 0.99971 0.0
C1105 C 0.56488 0.89546 0.98734 0.0
C1106 C 0.54262 0.86501 1.00935 0.0
C1107 C 0.52426 0.89415 0.98533 0.0
C1108 C 0.4931 0.87802 0.99497 0.0
C1109 C 0.46724 0.83852 1.01542 0.0
C1110 C 0.47305 0.81555 0.02603 0.0
C1111 C 0.50127 0.86188 1.0068 0.0
C1112 C 0.51516 0.82186 0.02914 0.0
C1113 C 0.55001 0.84723 1.02101 0.0
H1114 H 0.11229 0.66165 0.98899 0.0
H1115 H 0.20634 0.76891 0.96548 0.0
H1116 H 0.26626 0.78338 0.98173 0.0
H1117 H 0.29232 0.76298 1.00156 0.0
H1118 H 0.20116 0.65108 1.02437 0.0
H1119 H 0.13919 0.64179 1.00959 0.0
C1120 C 0.1459 0.68843 0.98749 0.0
C1121 C 0.15492 0.71419 0.97601 0.0
C1122 C 0.18045 0.69579 0.99674 0.0
C1123 C 0.19859 0.74846 0.97415 0.0
C1124 C 0.2328 0.75683 0.98346 0.0
C1125 C 0.25893 0.73662 1.00346 0.0
C1126 C 0.25152 0.70753 1.01407 0.0
C1127 C 0.22415 0.7303 0.99466 0.0
C1128 C 0.20787 0.67397 1.01633 0.0
C1129 C 0.17253 0.66848 1.0078 0.0
H1130 H 0.40861 0.50437 0.98998 0.0
H1131 H 0.27813 0.45114 0.97081 0.0
H1132 H 0.26079 0.4908 0.98832 0.0
H1133 H 0.28598 0.5485 1.00709 0.0
H1134 H 0.41747 0.60598 1.02566 0.0
H1135 H 0.43061 0.55522 1.0107 0.0
C1136 C 0.37622 0.50108 0.98969 0.0
C1137 C 0.34501 0.47557 0.97893 0.0
C1138 C 0.3666 0.52442 0.99974 0.0
C1139 C 0.30297 0.47104 0.97885 0.0
C1140 C 0.29298 0.49361 0.98888 0.0
C1141 C 0.31714 0.54902 1.0081 0.0
C1142 C 0.35094 0.58123 1.01733 0.0
C1143 C 0.32498 0.52144 0.99911 0.0
C1144 C 0.39093 0.58134 1.01867 0.0
C1145 C 0.39863 0.55283 1.00997 0.0
H1146 H 0.13474 0.51275 0.48031 0.0
H1147 H 0.17881 0.41435 0.48339 0.0
H1148 H 0.22557 0.45747 0.50352 0.0
H1149 H 0.26033 0.52802 0.5185 0.0
H1150 H 0.21538 0.62566 0.51606 0.0
H1151 H 0.16098 0.57708 0.4978 0.0
C1152 C 0.15458 0.50086 0.48545 0.0
C1153 C 0.15448 0.46126 0.48022 0.0
C1154 C 0.18044 0.52517 0.49724 0.0
C1155 C 0.17906 0.44518 0.48714 0.0
C1156 C 0.20557 0.46967 0.49867 0.0
C1157 C 0.23724 0.53756 0.51434 0.0
C1158 C 0.24154 0.58009 0.51862 0.0
C1159 C 0.20717 0.51018 0.50364 0.0
C1160 C 0.21203 0.59262 0.51309 0.0
C1161 C 0.18162 0.56531 0.50245 0.0
H1162 H 0.61201 0.74383 0.50657 0.0
H1163 H 0.52473 0.64261 0.47544 0.0
H1164 H 0.46256 0.61848 0.48933 0.0
H1165 H 0.431 0.63308 0.50894 0.0
H1166 H 0.51595 0.73644 0.53969 0.0
H1167 H 0.58116 0.75102 0.52778 0.0
C1168 C 0.57953 0.71607 0.50291 0.0
C1169 C 0.57312 0.69615 0.48976 0.0
C1170 C 0.5435 0.7021 0.51103 0.0
C1171 C 0.53067 0.65995 0.48525 0.0
C1172 C 0.49501 0.64557 0.49329 0.0
C1173 C 0.46401 0.65714 0.51334 0.0
C1174 C 0.46889 0.68297 0.52528 0.0
C1175 C 0.5008 0.66721 0.50603 0.0
C1176 C 0.51157 0.71522 0.5307 0.0
C1177 C 0.54872 0.72427 0.52372 0.0
H1178 H 0.3123 0.8976 0.49879 0.0
H1179 H 0.41037 0.90241 0.47311 0.0
H1180 H 0.43351 0.86661 0.48967 0.0
H1181 H 0.41762 0.82215 0.50954 0.0
H1182 H 0.31573 0.81023 0.53443 0.0
H1183 H 0.30316 0.86151 0.52042 0.0
C1184 C 0.33887 0.89105 0.49685 0.0
C1185 C 0.35902 0.90226 0.48457 0.0
C1186 C 0.35163 0.86944 0.50639 0.0
C1187 C 0.39418 0.89444 0.48241 0.0
C1188 C 0.40745 0.87373 0.49189 0.0
C1189 C 0.39422 0.83274 0.51224 0.0
C1190 C 0.36817 0.81335 0.52307 0.0
C1191 C 0.38552 0.8598 0.5037 0.0
C1192 C 0.33691 0.82586 0.52631 0.0
C1193 C 0.32912 0.85434 0.51813 0.0
H1194 H 0.16917 0.48004 0.39898 0.0
H1195 H 0.09091 0.54412 0.39165 0.0
H1196 H 0.13328 0.58069 0.37257 0.0
H1197 H 0.20127 0.6065 0.36101 0.0
H1198 H 0.28195 0.54587 0.36866 0.0
H1199 H 0.22887 0.49415 0.38404 0.0
C1200 C 0.16054 0.50093 0.393 0.0
C1201 C 0.12761 0.51037 0.39705 0.0
C1202 C 0.18549 0.52235 0.38202 0.0
C1203 C 0.11693 0.53744 0.38908 0.0
C1204 C 0.14098 0.55816 0.37808 0.0
C1205 C 0.20595 0.58023 0.36553 0.0
C1206 C 0.2453 0.57986 0.36372 0.0
C1207 C 0.17656 0.55255 0.37485 0.0
C1208 C 0.25153 0.54627 0.36974 0.0
C1209 C 0.22163 0.51744 0.37877 0.0
H1210 H 0.59875 0.69367 0.39285 0.0
H1211 H 0.53767 0.69722 0.42919 0.0
H1212 H 0.48161 0.70425 0.41632 0.0
H1213 H 0.44754 0.70553 0.39507 0.0
H1214 H 0.50479 0.70112 0.35818 0.0
H1215 H 0.56554 0.69949 0.37096 0.0
C1216 C 0.57314 0.69596 0.39793 0.0
C1217 C 0.57231 0.6944 0.41201 0.0
C1218 C 0.5406 0.70018 0.3904 0.0
C1219 C 0.53916 0.69801 0.41842 0.0
C1220 C 0.50703 0.70215 0.41106 0.0
C1221 C 0.47346 0.70448 0.38977 0.0
C1222 C 0.47149 0.70284 0.3757 0.0
C1223 C 0.5072 0.70276 0.39711 0.0
C1224 C 0.50569 0.70246 0.369 0.0
C1225 C 0.54008 0.7011 0.37632 0.0
H1226 H 0.31814 0.89976 0.4023 0.0
H1227 H 0.45949 0.98991 0.40323 0.0
H1228 H 0.46436 0.93983 0.38584 0.0
H1229 H 0.42939 0.86496 0.3728 0.0
H1230 H 0.28796 0.77611 0.37098 0.0
H1231 H 0.28162 0.83175 0.38593 0.0
C1232 C 0.34984 0.90856 0.39853 0.0
C1233 C 0.38856 0.94775 0.40416 0.0
C1234 C 0.35221 0.88013 0.38832 0.0
C1235 C 0.42938 0.95963 0.39907 0.0
C1236 C 0.43216 0.93105 0.38915 0.0
C1237 C 0.39709 0.85886 0.37525 0.0
C1238 C 0.35916 0.81689 0.37081 0.0
C1239 C 0.39395 0.89059 0.38397 0.0
C1240 C 0.31745 0.80868 0.37413 0.0
C1241 C 0.31397 0.8401 0.38286 0.0
H1242 H 0.2848 0.14292 0.13184 0.0
H1243 H 0.25435 0.00795 0.14305 0.0
H1244 H 0.20492 0.00822 0.15953 0.0
H1245 H 0.15854 0.03899 0.1668 0.0
H1246 H 0.18152 0.16925 0.15357 0.0
H1247 H 0.24672 0.18024 0.14242 0.0
C1248 C 0.26828 0.11441 0.13822 0.0
C1249 C 0.27256 0.07521 0.1362 0.0
C1250 C 0.23853 0.11416 0.14735 0.0
C1251 C 0.25092 0.03813 0.14439 0.0
C1252 C 0.22274 0.03834 0.1538 0.0
C1253 C 0.17945 0.07098 0.16214 0.0
C1254 C 0.16573 0.10353 0.16114 0.0
C1255 C 0.21463 0.07513 0.15489 0.0
C1256 C 0.19208 0.14421 0.15471 0.0
C1257 C 0.22877 0.14993 0.14806 0.0
H1258 H 0.91962 0.22805 0.14222 0.0
H1259 H 0.97948 0.23532 0.10487 0.0
H1260 H 0.99636 0.17636 0.11153 0.0
H1261 H 0.99821 0.12689 0.12825 0.0
H1262 H 0.94335 0.12197 0.1664 0.0
H1263 H 0.92006 0.17596 0.15908 0.0
C1264 C 0.9358 0.21622 0.13547 0.0
C1265 C 0.94814 0.23592 0.12301 0.0
C1266 C 0.94653 0.18314 0.13954 0.0
C1267 C 0.96966 0.22075 0.11447 0.0
C1268 C 0.97937 0.18711 0.11829 0.0
C1269 C 0.98086 0.13715 0.13502 0.0
C1270 C 0.97265 0.12029 0.14792 0.0
C1271 C 0.96859 0.16871 0.13087 0.0
C1272 C 0.95017 0.13432 0.15645 0.0
C1273 C 0.93693 0.16526 0.15226 0.0
H1274 H 0.80713 0.75901 0.14011 0.0
H1275 H 0.88526 0.75601 0.10832 0.0
H1276 H 0.95 0.82582 0.1185 0.0
H1277 H 0.98217 0.89179 0.13512 0.0
H1278 H 0.90592 0.89438 0.16747 0.0
H1279 H 0.84304 0.81986 0.15868 0.0
C1280 C 0.83845 0.77361 0.13548 0.0
C1281 C 0.84127 0.75299 0.12334 0.0
C1282 C 0.87587 0.81332 0.14156 0.0
C1283 C 0.8822 0.77149 0.1176 0.0
C1284 C 0.91923 0.81137 0.12342 0.0
C1285 C 0.95215 0.87537 0.14045 0.0
C1286 C 0.94849 0.89854 0.15187 0.0
C1287 C 0.9162 0.83304 0.13524 0.0
C1288 C 0.90961 0.87697 0.15873 0.0
C1289 C 0.87347 0.83471 0.15358 0.0
H1290 H 0.13515 0.33699 0.40802 0.0
H1291 H 0.04528 0.28073 0.43948 0.0
H1292 H 0.01926 0.20265 0.43014 0.0
H1293 H 0.02085 0.15047 0.41318 0.0
H1294 H 0.10835 0.20354 0.38109 0.0
H1295 H 0.13605 0.2829 0.39043 0.0
C1296 C 0.1102 0.30755 0.41288 0.0
C1297 C 0.09235 0.31472 0.4245 0.0
C1298 C 0.09464 0.26233 0.40728 0.0
C1299 C 0.05956 0.27627 0.43056 0.0
C1300 C 0.04458 0.23156 0.42521 0.0
C1301 C 0.04607 0.17925 0.40816 0.0
C1302 C 0.06263 0.17094 0.39646 0.0
C1303 C 0.06166 0.22425 0.41357 0.0
C1304 C 0.09492 0.20888 0.39008 0.0
C1305 C 0.11089 0.25423 0.39547 0.0
H1306 H 0.76911 0.85419 0.41735 0.0
H1307 H 0.81689 0.75886 0.41351 0.0
H1308 H 0.86847 0.8062 0.39735 0.0
H1309 H 0.90821 0.88023 0.38731 0.0
H1310 H 0.86625 0.97993 0.39204 0.0
H1311 H 0.80342 0.92528 0.40438 0.0
C1312 C 0.79022 0.84352 0.41272 0.0
C1313 C 0.78979 0.80348 0.41678 0.0
C1314 C 0.82081 0.87178 0.40357 0.0
C1315 C 0.81729 0.78994 0.41073 0.0
C1316 C 0.84666 0.81691 0.40146 0.0
C1317 C 0.88416 0.88919 0.39057 0.0
C1318 C 0.89146 0.93372 0.38866 0.0
C1319 C 0.84984 0.85865 0.39819 0.0
C1320 C 0.86073 0.94545 0.39313 0.0
C1321 C 0.82532 0.91447 0.40042 0.0
H1322 H 0.21098 0.95928 0.41093 0.0
H1323 H 0.29389 0.10753 0.41223 0.0
H1324 H 0.242 0.11232 0.39638 0.0
H1325 H 0.16759 0.07618 0.38565 0.0
H1326 H 0.08012 0.92929 0.38608 0.0
H1327 H 0.13939 0.9214 0.3972 0.0
C1328 C 0.21795 0.99236 0.40746 0.0
C1329 C 0.25572 0.03313 0.41288 0.0
C1330 C 0.18711 0.99491 0.39861 0.0
C1331 C 0.26455 0.0759 0.40838 0.0
C1332 C 0.23501 0.0786 0.39928 0.0
C1333 C 0.16229 0.04221 0.38763 0.0
C1334 C 0.12 1.00331 0.38495 0.0
C1335 C 0.19542 0.0386 0.39477 0.0
C1336 C 0.11281 0.95953 0.38781 0.0
C1337 C 0.14646 0.95524 0.39441 0.0
H1338 H 0.77549 0.99486 0.89952 0.0
H1339 H 0.77184 0.92834 0.93577 0.0
H1340 H 0.82852 0.91237 0.92806 0.0
H1341 H 0.88675 0.92842 0.91265 0.0
H1342 H 0.89056 0.99465 0.87627 0.0
H1343 H 0.82521 0.99831 0.88211 0.0
C1344 C 0.78674 0.97626 0.9056 0.0
C1345 C 0.77025 0.9635 0.91831 0.0
C1346 C 0.81919 0.9671 0.90105 0.0
C1347 C 0.78424 0.93857 0.92601 0.0
C1348 C 0.81672 0.92964 0.92161 0.0
C1349 C 0.87234 0.94225 0.90578 0.0
C1350 C 0.8937 0.96167 0.89411 0.0
C1351 C 0.83547 0.94516 0.90937 0.0
C1352 C 0.87462 0.97923 0.88527 0.0
C1353 C 0.83764 0.98198 0.88872 0.0
H1354 H 0.07918 0.79222 0.90909 0.0
H1355 H 0.16179 0.88408 0.94251 0.0
H1356 H 0.15993 0.94862 0.93262 0.0
H1357 H 0.12844 0.97693 0.91572 0.0
H1358 H 0.04832 0.88706 0.88175 0.0
H1359 H 0.05675 0.82409 0.8903 0.0
C1360 C 0.0969 0.82647 0.91414 0.0
C1361 C 0.11983 0.83325 0.92666 0.0
C1362 C 0.09655 0.86378 0.90821 0.0
C1363 C 0.14358 0.87794 0.93295 0.0
C1364 C 0.14259 0.91486 0.92728 0.0
C1365 C 0.11404 0.94395 0.90997 0.0
C1366 C 0.08783 0.93654 0.89813 0.0
C1367 C 0.11851 0.90798 0.91507 0.0
C1368 C 0.06915 0.89373 0.89079 0.0
C1369 C 0.07338 0.85754 0.89581 0.0
H1370 H 0.24669 0.30111 0.91163 0.0
H1371 H 0.16757 0.29939 0.94372 0.0
H1372 H 0.10375 0.22925 0.93328 0.0
H1373 H 0.07313 0.16412 0.9164 0.0
H1374 H 0.1503 0.16644 0.88371 0.0
H1375 H 0.21188 0.24148 0.89274 0.0
C1376 C 0.21533 0.28544 0.91625 0.0
C1377 C 0.21195 0.3047 0.92856 0.0
C1378 C 0.17847 0.24559 0.91003 0.0
C1379 C 0.17099 0.28489 0.93432 0.0
C1380 C 0.13452 0.24484 0.92835 0.0
C1381 C 0.10303 0.18175 0.91106 0.0
C1382 C 0.10746 0.15985 0.89949 0.0
C1383 C 0.13819 0.22438 0.91638 0.0
C1384 C 0.14611 0.18291 0.89259 0.0
C1385 C 0.1815 0.22545 0.89786 0.0
H1386 H 0.97004 0.74356 0.64267 0.0
H1387 H 0.89142 0.75002 0.60958 0.0
H1388 H 0.89519 0.81827 0.62052 0.0
H1389 H 0.928 0.88099 0.63817 0.0
H1390 H 1.00482 0.87436 0.6717 0.0
H1391 H 0.99333 0.80042 0.66219 0.0
C1392 C 0.95353 0.75983 0.63793 0.0
C1393 C 0.93128 0.74245 0.6252 0.0
C1394 C 0.95517 0.79868 0.64441 0.0
C1395 C 0.90908 0.76303 0.6193 0.0
C1396 C 0.91119 0.80203 0.62556 0.0
C1397 C 0.94112 0.86263 0.64358 0.0
C1398 C 0.96747 0.88315 0.65555 0.0
C1399 C 0.93499 0.82074 0.63795 0.0
C1400 C 0.98414 0.85905 0.66252 0.0
C1401 C 0.97813 0.81713 0.65697 0.0
H1402 H 0.27807 0.26081 0.65183 0.0
H1403 H 0.27282 0.18489 0.61551 0.0
H1404 H 0.22328 0.11192 0.62529 0.0
H1405 H 0.17235 0.07154 0.64263 0.0
H1406 H 0.17546 0.1473 0.67873 0.0
H1407 H 0.23637 0.21828 0.67088 0.0
C1408 C 0.26632 0.2282 0.64612 0.0
C1409 C 0.27812 0.22815 0.63283 0.0
C1410 C 0.23783 0.18645 0.65184 0.0
C1411 C 0.26383 0.18572 0.62568 0.0
C1412 C 0.23551 0.14408 0.63128 0.0
C1413 C 0.18752 0.10327 0.649 0.0
C1414 C 0.169 0.10431 0.66115 0.0
C1415 C 0.22112 0.14418 0.64416 0.0
C1416 C 0.18913 0.14547 0.66937 0.0
C1417 C 0.22343 0.18629 0.66475 0.0
H1418 H 0.86652 0.11868 0.63003 0.0
H1419 H 0.77478 0.01021 0.65347 0.0
H1420 H 0.83584 0.01692 0.66784 0.0
H1421 H 0.915 0.04332 0.67098 0.0
H1422 H 1.00655 0.14572 0.64598 0.0
H1423 H 0.94678 0.15339 0.63541 0.0
C1424 C 0.86009 0.09748 0.6385 0.0
C1425 C 0.81639 0.06347 0.64056 0.0
C1426 C 0.89557 0.10056 0.64647 0.0
C1427 C 0.80828 0.03597 0.65154 0.0
C1428 C 0.84317 0.0399 0.65978 0.0
C1429 C 0.92206 0.06879 0.66365 0.0
C1430 C 0.965 0.09409 0.65929 0.0
C1431 C 0.88701 0.07068 0.657 0.0
C1432 C 0.9737 0.1262 0.64956 0.0
C1433 C 0.9394 0.13006 0.64337 0.0
H1434 H 0.94149 0.38096 0.48736 0.0
H1435 H 0.95682 0.4711 0.45594 0.0
H1436 H 0.90184 0.48654 0.46532 0.0
H1437 H 0.83958 0.46172 0.47969 0.0
H1438 H 0.82291 0.37058 0.51092 0.0
H1439 H 0.88928 0.36943 0.50479 0.0
C1440 C 0.93329 0.40466 0.48277 0.0
C1441 C 0.95229 0.42413 0.47083 0.0
C1442 C 0.90157 0.41321 0.48822 0.0
C1443 C 0.94236 0.45559 0.46508 0.0
C1444 C 0.91083 0.46424 0.47042 0.0
C1445 C 0.8518 0.44342 0.48554 0.0
C1446 C 0.8265 0.41611 0.49568 0.0
C1447 C 0.88891 0.44166 0.48163 0.0
C1448 C 0.84221 0.39225 0.50318 0.0
C1449 C 0.87966 0.39088 0.49949 0.0
H1450 H 0.59758 0.55945 0.47918 0.0
H1451 H 0.65148 0.56213 0.44099 0.0
H1452 H 0.66223 0.49829 0.4468 0.0
H1453 H 0.66029 0.44533 0.46293 0.0
H1454 H 0.61151 0.44455 0.50189 0.0
H1455 H 0.59416 0.50393 0.49547 0.0
C1456 C 0.61125 0.54572 0.47207 0.0
C1457 C 0.62367 0.56557 0.45962 0.0
C1458 C 0.61831 0.50959 0.47562 0.0
C1459 C 0.64176 0.54767 0.45061 0.0
C1460 C 0.64789 0.51116 0.45393 0.0
C1461 C 0.64552 0.45765 0.47008 0.0
C1462 C 0.63734 0.44034 0.48294 0.0
C1463 C 0.63687 0.49238 0.46646 0.0
C1464 C 0.61817 0.45708 0.49195 0.0
C1465 C 0.60842 0.49117 0.48828 0.0
H1466 H 0.46316 0.08188 0.47168 0.0
H1467 H 0.53813 0.07882 0.43899 0.0
H1468 H 0.60518 0.14528 0.44972 0.0
H1469 H 0.64002 0.20905 0.46715 0.0
H1470 H 0.56626 0.21046 0.50039 0.0
H1471 H 0.5014 0.13876 0.49098 0.0
C1472 C 0.49434 0.09572 0.46699 0.0
C1473 C 0.49579 0.07645 0.45444 0.0
C1474 C 0.53285 0.13316 0.47338 0.0
C1475 C 0.53635 0.09359 0.44858 0.0
C1476 C 0.57459 0.13147 0.45472 0.0
C1477 C 0.61008 0.19289 0.47251 0.0
C1478 C 0.60767 0.21509 0.48437 0.0
C1479 C 0.57296 0.15213 0.46696 0.0
C1480 C 0.56894 0.19381 0.49129 0.0
C1481 C 0.53169 0.1532 0.48581 0.0
H1482 H 0.74166 0.65552 0.73256 0.0
H1483 H 0.76801 0.63981 0.77389 0.0
H1484 H 0.77117 0.57086 0.7673 0.0
H1485 H 0.75858 0.51087 0.75024 0.0
H1486 H 0.73025 0.52446 0.70893 0.0
H1487 H 0.73717 0.59934 0.71502 0.0
C1488 C 0.74839 0.63719 0.74012 0.0
C1489 C 0.7538 0.65236 0.75374 0.0
C1490 C 0.75005 0.5974 0.73626 0.0
C1491 C 0.76331 0.6287 0.76337 0.0
C1492 C 0.76514 0.58926 0.75961 0.0
C1493 C 0.75468 0.53056 0.74251 0.0
C1494 C 0.74331 0.51183 0.72917 0.0
C1495 C 0.75748 0.57273 0.74614 0.0
C1496 C 0.73904 0.53808 0.71926 0.0
C1497 C 0.74249 0.58064 0.72277 0.0
H1498 H 0.4406 0.12517 0.73267 0.0
H1499 H 0.44201 0.2014 0.76842 0.0
H1500 H 0.49532 0.274 0.75925 0.0
H1501 H 0.54977 0.31385 0.7427 0.0
H1502 H 0.54946 0.23852 0.70692 0.0
H1503 H 0.48644 0.16772 0.71417 0.0
C1504 C 0.45229 0.1578 0.73835 0.0
C1505 C 0.43812 0.15796 0.75132 0.0
C1506 C 0.48288 0.19947 0.73296 0.0
C1507 C 0.4526 0.20045 0.75847 0.0
C1508 C 0.48315 0.24191 0.75323 0.0
C1509 C 0.53476 0.28227 0.73625 0.0
C1510 C 0.5543 0.28126 0.72433 0.0
C1511 C 0.49956 0.24165 0.7407 0.0
C1512 C 0.53471 0.24026 0.71606 0.0
C1513 C 0.49919 0.19961 0.72034 0.0
H1514 H 0.92105 0.34371 0.73209 0.0
H1515 H 0.864 0.28903 0.76924 0.0
H1516 H 0.79207 0.27386 0.7602 0.0
H1517 H 0.74833 0.28599 0.74304 0.0
H1518 H 0.80507 0.34429 0.70624 0.0
H1519 H 0.87377 0.3467 0.71359 0.0
C1520 C 0.89283 0.32842 0.73818 0.0
C1521 C 0.89809 0.31832 0.75144 0.0
C1522 C 0.85149 0.32005 0.73292 0.0
C1523 C 0.86092 0.29726 0.75906 0.0
C1524 C 0.81978 0.28862 0.75389 0.0
C1525 C 0.77531 0.29795 0.73646 0.0
C1526 C 0.77191 0.31534 0.72419 0.0
C1527 C 0.81503 0.30105 0.74099 0.0
C1528 C 0.80683 0.33043 0.71569 0.0
C1529 C 0.84635 0.33255 0.72 0.0
H1530 H 0.43962 0.33675 0.22947 0.0
H1531 H 0.42802 0.26487 0.2652 0.0
H1532 H 0.47939 0.2417 0.25717 0.0
H1533 H 0.53721 0.25414 0.242 0.0
H1534 H 0.55059 0.32729 0.20646 0.0
H1535 H 0.4879 0.33642 0.21208 0.0
C1536 C 0.44792 0.31544 0.23537 0.0
C1537 C 0.43082 0.30332 0.24805 0.0
C1538 C 0.47764 0.3024 0.23068 0.0
C1539 C 0.4409 0.27478 0.25547 0.0
C1540 C 0.4704 0.26169 0.25089 0.0
C1541 C 0.52511 0.27034 0.2352 0.0
C1542 C 0.5485 0.29022 0.22387 0.0
C1543 C 0.49021 0.27682 0.23877 0.0
C1544 C 0.53281 0.31129 0.21515 0.0
C1545 C 0.49748 0.31725 0.21851 0.0
H1546 H 0.79936 0.15733 0.24345 0.0
H1547 H 0.69626 0.10689 0.27123 0.0
H1548 H 0.67207 0.15859 0.26309 0.0
H1549 H 0.68026 0.21815 0.24853 0.0
H1550 H 0.78097 0.26903 0.22006 0.0
H1551 H 0.80568 0.21645 0.22787 0.0
C1552 C 0.77173 0.15787 0.24775 0.0
C1553 C 0.74986 0.12845 0.25805 0.0
C1554 C 0.75743 0.18741 0.24284 0.0
C1555 C 0.71371 0.12907 0.26335 0.0
C1556 C 0.69983 0.15864 0.25869 0.0
C1557 C 0.70774 0.21797 0.24398 0.0
C1558 C 0.72909 0.24794 0.23381 0.0
C1559 C 0.72146 0.18792 0.2485 0.0
C1560 C 0.76398 0.24638 0.22789 0.0
C1561 C 0.7782 0.21649 0.23243 0.0
H1562 H 0.91191 0.62376 0.2332 0.0
H1563 H 0.88337 0.61365 0.27488 0.0
H1564 H 0.81245 0.54332 0.26923 0.0
H1565 H 0.76232 0.48102 0.25287 0.0
H1566 H 0.79076 0.48965 0.21121 0.0
H1567 H 0.85749 0.56502 0.2164 0.0
C1568 C 0.89005 0.60634 0.24104 0.0
C1569 C 0.90326 0.62353 0.25448 0.0
C1570 C 0.8493 0.56581 0.23772 0.0
C1571 C 0.87421 0.601 0.26448 0.0
C1572 C 0.83364 0.56076 0.26126 0.0
C1573 C 0.78272 0.49967 0.24487 0.0
C1574 C 0.77189 0.47943 0.2317 0.0
C1575 C 0.82137 0.54234 0.24797 0.0
C1576 C 0.79832 0.50436 0.22143 0.0
C1577 C 0.83672 0.54729 0.22442 0.0
H1578 H 0.65708 0.07732 0.98272 0.0
H1579 H 0.61985 0.08991 0.94222 0.0
H1580 H 0.61408 0.15676 0.94968 0.0
H1581 H 0.62699 0.21587 0.96717 0.0
H1582 H 0.66528 0.20467 1.00766 0.0
H1583 H 0.66178 0.13193 1.00082 0.0
C1584 C 0.64751 0.09457 0.97553 0.0
C1585 C 0.63973 0.07919 0.96187 0.0
C1586 C 0.64411 0.1329 0.97991 0.0
C1587 C 0.62641 0.10128 0.95274 0.0
C1588 C 0.62308 0.13947 0.95701 0.0
C1589 C 0.63375 0.19707 0.97458 0.0
C1590 C 0.64693 0.21596 0.98789 0.0
C1591 C 0.6328 0.15614 0.9705 0.0
C1592 C 0.65498 0.19089 0.99738 0.0
C1593 C 0.65351 0.1496 0.99342 0.0
H1594 H 0.94503 0.60052 0.98202 0.0
H1595 H 0.94399 0.52015 0.94736 0.0
H1596 H 0.89136 0.44868 0.9573 0.0
H1597 H 0.83724 0.41093 0.97417 0.0
H1598 H 0.83806 0.4907 1.00896 0.0
H1599 H 0.90032 0.56048 1.00096 0.0
C1600 C 0.93362 0.56723 0.97677 0.0
C1601 C 0.94749 0.56541 0.96386 0.0
C1602 C 0.90364 0.52635 0.98262 0.0
C1603 C 0.93346 0.52221 0.95725 0.0
C1604 C 0.90335 0.48147 0.96293 0.0
C1605 C 0.85229 0.44328 0.98026 0.0
C1606 C 0.83309 0.4458 0.99211 0.0
C1607 C 0.88714 0.48328 0.9754 0.0
C1608 C 0.85261 0.48781 0.9999 0.0
C1609 C 0.88769 0.52786 0.99519 0.0
H1610 H 0.4605 0.37211 0.98593 0.0
H1611 H 0.51366 0.43194 0.94892 0.0
H1612 H 0.58752 0.45055 0.95741 0.0
H1613 H 0.63397 0.43909 0.97394 0.0
H1614 H 0.58064 0.37686 1.01068 0.0
H1615 H 0.51018 0.3713 1.00397 0.0
C1616 C 0.48838 0.38951 0.97978 0.0
C1617 C 0.48157 0.39974 0.96669 0.0
C1618 C 0.53066 0.39992 0.98474 0.0
C1619 C 0.5181 0.4235 0.95897 0.0
C1620 C 0.56025 0.43402 0.96382 0.0
C1621 C 0.60734 0.42567 0.98067 0.0
C1622 C 0.61238 0.40821 0.99276 0.0
C1623 C 0.56658 0.42105 0.97651 0.0
C1624 C 0.57778 0.39106 1.00141 0.0
C1625 C 0.53722 0.38712 0.99745 0.0
H1626 H 0.62188 0.79114 0.79997 0.0
H1627 H 0.57019 0.64424 0.79861 0.0
H1628 H 0.51064 0.63405 0.81253 0.0
H1629 H 0.46658 0.66495 0.82161 0.0
H1630 H 0.51213 0.81018 0.82095 0.0
H1631 H 0.58136 0.82379 0.81176 0.0
C1632 C 0.59809 0.75725 0.80305 0.0
C1633 C 0.59994 0.71834 0.79825 0.0
C1634 C 0.5629 0.75155 0.81069 0.0
C1635 C 0.56889 0.67441 0.80213 0.0
C1636 C 0.53497 0.66865 0.81008 0.0
C1637 C 0.49262 0.69984 0.81999 0.0
C1638 C 0.48491 0.73665 0.82214 0.0
C1639 C 0.53071 0.70668 0.81398 0.0
C1640 C 0.51799 0.78156 0.81964 0.0
C1641 C 0.55716 0.78912 0.81417 0.0
H1642 H 0.26449 0.89739 0.81378 0.0
H1643 H 0.30146 0.89261 0.7734 0.0
H1644 H 0.31138 0.82747 0.77819 0.0
H1645 H 0.31407 0.77559 0.79403 0.0
H1646 H 0.28152 0.78211 0.83487 0.0
H1647 H 0.26479 0.84276 0.82963 0.0
C1648 C 0.27426 0.88181 0.80597 0.0
C1649 C 0.28226 0.90001 0.79321 0.0
C1650 C 0.28082 0.84488 0.80889 0.0
C1651 C 0.29519 0.8795 0.78328 0.0
C1652 C 0.30089 0.84224 0.78602 0.0
C1653 C 0.30297 0.78982 0.80184 0.0
C1654 C 0.29927 0.77424 0.81488 0.0
C1655 C 0.29448 0.82521 0.79884 0.0
C1656 C 0.28472 0.79332 0.82477 0.0
C1657 C 0.2753 0.82813 0.82177 0.0
H1658 H 0.12613 0.40133 0.80709 0.0
H1659 H 0.19955 0.40037 0.77362 0.0
H1660 H 0.26465 0.47088 0.78315 0.0
H1661 H 0.29786 0.53736 0.79952 0.0
H1662 H 0.22634 0.53919 0.83329 0.0
H1663 H 0.16373 0.46315 0.82535 0.0
C1664 C 0.15653 0.41638 0.80196 0.0
C1665 C 0.15771 0.39606 0.78952 0.0
C1666 C 0.19417 0.45692 0.80758 0.0
C1667 C 0.19758 0.41542 0.78313 0.0
C1668 C 0.23486 0.4558 0.78857 0.0
C1669 C 0.26896 0.52053 0.80532 0.0
C1670 C 0.26643 0.54385 0.81689 0.0
C1671 C 0.23315 0.47742 0.80059 0.0
C1672 C 0.22908 0.52171 0.82439 0.0
C1673 C 0.19311 0.47854 0.81975 0.0
H1674 H 0.46264 0.99801 0.0751 0.0
H1675 H 0.35569 0.9432 0.10154 0.0
H1676 H 0.33333 0.86482 0.09341 0.0
H1677 H 0.3436 0.81196 0.07906 0.0
H1678 H 0.44754 0.86342 0.05166 0.0
H1679 H 0.47139 0.94325 0.05976 0.0
C1680 C 0.43462 0.9688 0.0791 0.0
C1681 C 0.41101 0.97641 0.08898 0.0
C1682 C 0.42128 0.92344 0.07416 0.0
C1683 C 0.37438 0.93834 0.09394 0.0
C1684 C 0.36155 0.89348 0.0893 0.0
C1685 C 0.37164 0.84054 0.07484 0.0
C1686 C 0.39412 0.83178 0.06489 0.0
C1687 C 0.3847 0.8857 0.07944 0.0
C1688 C 0.42975 0.86929 0.05935 0.0
C1689 C 0.44344 0.91484 0.06403 0.0
H1690 H 0.09372 0.52466 0.08265 0.0
H1691 H 0.13324 0.4235 0.07604 0.0
H1692 H 0.18281 0.46971 0.05926 0.0
H1693 H 0.22522 0.545 0.05001 0.0
H1694 H 0.19336 0.65097 0.05843 0.0
H1695 H 0.1294 0.59675 0.07034 0.0
C1696 C 0.11249 0.51249 0.07726 0.0
C1697 C 0.11052 0.47118 0.0807 0.0
C1698 C 0.14217 0.5402 0.06788 0.0
C1699 C 0.13497 0.4556 0.07371 0.0
C1700 C 0.16314 0.48192 0.06409 0.0
C1701 C 0.20275 0.55536 0.05383 0.0
C1702 C 0.21353 0.6016 0.0532 0.0
C1703 C 0.16839 0.52511 0.06151 0.0
C1704 C 0.18509 0.61522 0.05852 0.0
C1705 C 0.14915 0.58446 0.06562 0.0
H1706 H 0.59116 0.68351 0.06623 0.0
H1707 H 0.54079 0.62986 0.10407 0.0
H1708 H 0.46699 0.61286 0.09609 0.0
H1709 H 0.41985 0.62315 0.07951 0.0
H1710 H 0.4699 0.67767 0.0417 0.0
H1711 H 0.5405 0.68325 0.04829 0.0
C1712 C 0.56386 0.66778 0.07266 0.0
C1713 C 0.57145 0.65876 0.08582 0.0
C1714 C 0.52156 0.65809 0.06797 0.0
C1715 C 0.53569 0.63726 0.09395 0.0
C1716 C 0.4936 0.62769 0.0894 0.0
C1717 C 0.44583 0.63501 0.07257 0.0
C1718 C 0.43985 0.65019 0.06017 0.0
C1719 C 0.48651 0.63921 0.07658 0.0
C1720 C 0.47356 0.66531 0.05123 0.0
C1721 C 0.51415 0.66917 0.05509 0.0
H1722 H 0.10608 0.68131 0.56649 0.0
H1723 H 0.11178 0.62644 0.60429 0.0
H1724 H 0.16683 0.60883 0.59634 0.0
H1725 H 0.22014 0.61863 0.57993 0.0
H1726 H 0.2177 0.6761 0.54238 0.0
H1727 H 0.15362 0.6818 0.54872 0.0
C1728 C 0.11931 0.66539 0.57296 0.0
C1729 C 0.1054 0.65599 0.58609 0.0
C1730 C 0.15125 0.65554 0.56831 0.0
C1731 C 0.12194 0.63414 0.5942 0.0
C1732 C 0.1535 0.62415 0.58965 0.0
C1733 C 0.20474 0.63115 0.57296 0.0
C1734 C 0.22375 0.64726 0.56075 0.0
C1735 C 0.16922 0.63585 0.57689 0.0
C1736 C 0.20344 0.66316 0.55178 0.0
C1737 C 0.16728 0.66712 0.55552 0.0
H1738 H 0.39212 0.45067 0.56593 0.0
H1739 H 0.4271 0.5042 0.60719 0.0
H1740 H 0.43364 0.57683 0.60101 0.0
H1741 H 0.42216 0.62188 0.58449 0.0
H1742 H 0.385 0.56919 0.54331 0.0
H1743 H 0.38811 0.50003 0.54876 0.0
C1744 C 0.40138 0.47831 0.57356 0.0
C1745 C 0.40836 0.47161 0.58707 0.0
C1746 C 0.40506 0.52021 0.56993 0.0
C1747 C 0.42109 0.50812 0.59677 0.0
C1748 C 0.42494 0.54976 0.59324 0.0
C1749 C 0.4156 0.59567 0.57663 0.0
C1750 C 0.40293 0.60032 0.56355 0.0
C1751 C 0.41608 0.55574 0.57993 0.0
C1752 C 0.39503 0.56647 0.55344 0.0
C1753 C 0.39622 0.52669 0.55661 0.0
H1754 H 0.55378 0.99824 0.57259 0.0
H1755 H 0.58712 0.94652 0.6073 0.0
H1756 H 0.52809 0.8685 0.60051 0.0
H1757 H 0.46899 0.815 0.58485 0.0
H1758 H 0.43499 0.86182 0.54922 0.0
H1759 H 0.49269 0.94194 0.55617 0.0
C1760 C 0.54772 0.96982 0.57867 0.0
C1761 C 0.5747 0.97817 0.59047 0.0
C1762 C 0.51399 0.92436 0.57452 0.0
C1763 C 0.56699 0.94104 0.59818 0.0
C1764 C 0.53322 0.89639 0.59431 0.0
C1765 C 0.47369 0.84256 0.57856 0.0
C1766 C 0.4473 0.8324 0.56658 0.0
C1767 C 0.50684 0.8877 0.5825 0.0
C1768 C 0.45475 0.86868 0.5585 0.0
C1769 C 0.48767 0.91444 0.5625 0.0
H1770 H 0.25929 0.40674 0.31017 0.0
H1771 H 0.34344 0.46777 0.27767 0.0
H1772 H 0.36553 0.54482 0.28723 0.0
H1773 H 0.36222 0.5946 0.30476 0.0
H1774 H 0.2802 0.53593 0.33782 0.0
H1775 H 0.25615 0.45787 0.3281 0.0
C1776 C 0.28219 0.4369 0.30512 0.0
C1777 C 0.29955 0.4314 0.29315 0.0
C1778 C 0.29532 0.48136 0.31081 0.0
C1779 C 0.32957 0.4709 0.28685 0.0
C1780 C 0.34226 0.515 0.29233 0.0
C1781 C 0.33895 0.5649 0.30991 0.0
C1782 C 0.32295 0.57129 0.32202 0.0
C1783 C 0.32556 0.52058 0.30431 0.0
C1784 C 0.29309 0.53213 0.32851 0.0
C1785 C 0.27929 0.48753 0.32292 0.0
H1786 H 0.62061 0.83368 0.30498 0.0
H1787 H 0.6107 0.9566 0.30645 0.0
H1788 H 0.55601 0.9246 0.32325 0.0
H1789 H 0.50212 0.85647 0.33433 0.0
H1790 H 0.51023 0.73265 0.33268 0.0
H1791 H 0.57561 0.77052 0.31959 0.0
C1792 C 0.60681 0.85357 0.30913 0.0
C1793 C 0.61892 0.89705 0.30428 0.0
C1794 C 0.57537 0.83487 0.31883 0.0
C1795 C 0.6017 0.92303 0.30996 0.0
C1796 C 0.57038 0.90468 0.31955 0.0
C1797 C 0.51958 0.83861 0.33164 0.0
C1798 C 0.50162 0.79197 0.33447 0.0
C1799 C 0.55588 0.86003 0.32369 0.0
C1800 C 0.52395 0.76881 0.33081 0.0
C1801 C 0.56075 0.79019 0.32307 0.0
H1802 H 0.1777 0.77701 0.3011 0.0
H1803 H 0.08965 0.63748 0.31142 0.0
H1804 H 0.14668 0.64155 0.32709 0.0
H1805 H 0.22495 0.67975 0.33483 0.0
H1806 H 0.31555 0.81588 0.32279 0.0
H1807 H 0.2544 0.81938 0.31132 0.0
C1808 C 0.17088 0.74802 0.30702 0.0
C1809 C 0.1299 0.70672 0.30494 0.0
C1810 C 0.20439 0.75024 0.31579 0.0
C1811 C 0.12134 0.66924 0.31264 0.0
C1812 C 0.15384 0.67164 0.32165 0.0
C1813 C 0.23079 0.71097 0.33023 0.0
C1814 C 0.27426 0.74789 0.32985 0.0
C1815 C 0.19598 0.7113 0.32293 0.0
C1816 C 0.28204 0.78758 0.32346 0.0
C1817 C 0.24719 0.78917 0.3167 0.0
loop_
_geom_bond_atom_site_label_1
_geom_bond_atom_site_label_2
_geom_bond_distance
_geom_bond_site_symmetry_2
_ccdc_geom_bond_type
Cu0 N1 1.999 . S
Cu0 O6 1.974 . S
Cu0 N11 1.985 . S
Cu0 O20 1.959 1_545 S
N1 Cu0 1.999 . S
N1 C3 1.263 . S
N1 C5 1.386 1_545 S
N2 C3 1.358 . S
N2 C4 1.400 . S
C3 N1 1.263 . S
C3 N2 1.358 . S
C3 H9 0.930 . S
C4 N2 1.400 . S
C4 C5 1.350 1_545 S
C4 H21 0.930 . S
C5 N1 1.386 1_565 S
C5 C4 1.350 1_565 S
C5 H10 0.933 . S
O6 Cu0 1.974 . S
O6 C16 1.282 . S
C7 O8 1.261 . S
C7 O20 1.251 1_545 S
O8 C7 1.261 . S
H9 C3 0.930 . S
H10 C5 0.933 . S
N11 Cu0 1.985 . S
N11 C13 1.335 1_545 S
N11 C14 1.390 . S
N12 C13 1.345 . S
N12 C15 1.336 1_565 S
C13 N11 1.335 1_565 S
C13 N12 1.345 . S
C13 H18 0.930 . S
C14 N11 1.390 . S
C14 C15 1.346 . S
C14 H19 0.930 . S
C15 N12 1.336 1_545 S
C15 C14 1.346 . S
C15 H22 0.929 . S
C16 O6 1.282 . S
C16 O17 1.216 . S
O17 C16 1.216 . S
H18 C13 0.930 . S
H19 C14 0.930 . S
O20 Cu0 1.959 1_565 S
O20 C7 1.251 1_565 S
H21 C4 0.930 . S
H22 C15 0.929 . S
Cu23 N24 1.999 . S
Cu23 O29 1.974 . S
Cu23 N34 1.985 . S
Cu23 O43 1.959 . S
N24 Cu23 1.999 . S
N24 C26 1.263 1_455 S
N24 C28 1.389 . S
N25 C26 1.358 . S
N25 C27 1.400 1_655 S
C26 N24 1.263 1_655 S
C26 N25 1.358 . S
C26 H32 0.930 . S
C27 N25 1.400 1_455 S
C27 C28 1.351 . S
C27 H44 0.930 . S
C28 N24 1.389 . S
C28 C27 1.351 . S
C28 H33 0.930 . S
O29 Cu23 1.974 . S
O29 C39 1.275 1_455 S
C30 O31 1.261 1_455 S
C30 O43 1.251 . S
O31 C30 1.261 1_655 S
H32 C26 0.930 . S
H33 C28 0.930 . S
N34 Cu23 1.985 . S
N34 C36 1.335 . S
N34 C37 1.390 . S
N35 C36 1.345 . S
N35 C38 1.336 . S
C36 N34 1.335 . S
C36 N35 1.345 . S
C36 H41 0.930 . S
C37 N34 1.390 . S
C37 C38 1.346 . S
C37 H42 0.930 1_455 S
C38 N35 1.336 . S
C38 C37 1.346 . S
C38 H45 0.929 . S
C39 O29 1.275 1_655 S
C39 O40 1.216 . S
O40 C39 1.216 . S
H41 C36 0.930 . S
H42 C37 0.930 1_655 S
O43 Cu23 1.959 . S
O43 C30 1.251 . S
H44 C27 0.930 . S
H45 C38 0.929 . S
Cu46 N47 1.999 . S
Cu46 O52 1.974 . S
Cu46 N57 1.985 . S
Cu46 O66 1.959 . S
N47 Cu46 1.999 . S
N47 C49 1.263 . S
N47 C51 1.389 . S
N48 C49 1.358 . S
N48 C50 1.400 . S
C49 N47 1.263 . S
C49 N48 1.358 . S
C49 H55 0.930 . S
C50 N48 1.400 . S
C50 C51 1.351 . S
C50 H67 0.930 . S
C51 N47 1.389 . S
C51 C50 1.351 . S
C51 H56 0.930 . S
O52 Cu46 1.974 . S
O52 C62 1.282 . S
C53 O54 1.261 . S
C53 O66 1.251 . S
O54 C53 1.261 . S
H55 C49 0.930 . S
H56 C51 0.930 . S
N57 Cu46 1.985 . S
N57 C59 1.335 . S
N57 C60 1.390 . S
N58 C59 1.345 . S
N58 C61 1.336 . S
C59 N57 1.335 . S
C59 N58 1.345 . S
C59 H64 0.930 . S
C60 N57 1.390 . S
C60 C61 1.346 . S
C60 H65 0.930 . S
C61 N58 1.336 . S
C61 C60 1.346 . S
C61 H68 0.929 . S
C62 O52 1.282 . S
C62 O63 1.216 . S
O63 C62 1.216 . S
H64 C59 0.930 . S
H65 C60 0.930 . S
O66 Cu46 1.959 . S
O66 C53 1.251 . S
H67 C50 0.930 . S
H68 C61 0.929 . S
Cu69 N70 1.999 . S
Cu69 O75 1.974 . S
Cu69 N80 1.985 . S
Cu69 O89 1.959 . S
N70 Cu69 1.999 . S
N70 C72 1.263 1_545 S
N70 C74 1.389 . S
N71 C72 1.358 . S
N71 C73 1.400 1_565 S
C72 N70 1.263 1_565 S
C72 N71 1.358 . S
C72 H78 0.930 . S
C73 N71 1.400 1_545 S
C73 C74 1.351 . S
C73 H90 0.930 . S
C74 N70 1.389 . S
C74 C73 1.351 . S
C74 H79 0.930 . S
O75 Cu69 1.974 . S
O75 C85 1.282 1_545 S
C76 O77 1.261 1_545 S
C76 O89 1.251 . S
O77 C76 1.261 1_565 S
H78 C72 0.930 . S
H79 C74 0.930 . S
N80 Cu69 1.985 . S
N80 C82 1.335 . S
N80 C83 1.390 . S
N81 C82 1.345 . S
N81 C84 1.336 . S
C82 N80 1.335 . S
C82 N81 1.345 . S
C82 H87 0.930 . S
C83 N80 1.390 . S
C83 C84 1.346 . S
C83 H88 0.930 1_545 S
C84 N81 1.336 . S
C84 C83 1.346 . S
C84 H91 0.929 . S
C85 O75 1.282 1_565 S
C85 O86 1.216 . S
O86 C85 1.216 . S
H87 C82 0.930 . S
H88 C83 0.930 1_565 S
O89 Cu69 1.959 . S
O89 C76 1.251 . S
H90 C73 0.930 . S
H91 C84 0.929 . S
Cu92 N93 1.999 . S
Cu92 O98 1.974 . S
Cu92 N103 1.974 1_455 S
Cu92 O112 1.959 1_455 S
N93 Cu92 1.999 . S
N93 C95 1.263 . S
N93 C97 1.390 . S
N94 C95 1.358 . S
N94 C96 1.400 . S
C95 N93 1.263 . S
C95 N94 1.358 . S
C95 H101 0.930 . S
C96 N94 1.400 . S
C96 C97 1.360 . S
C96 H113 0.930 . S
C97 N93 1.390 . S
C97 C96 1.360 . S
C97 H102 0.921 1_455 S
O98 Cu92 1.974 . S
O98 C108 1.282 . S
C99 O100 1.261 . S
C99 O112 1.251 1_455 S
O100 C99 1.261 . S
H101 C95 0.930 . S
H102 C97 0.921 1_655 S
N103 Cu92 1.974 1_655 S
N103 C105 1.349 . S
N103 C106 1.392 1_655 S
N104 C105 1.345 . S
N104 C107 1.336 1_655 S
C105 N103 1.349 . S
C105 N104 1.345 . S
C105 H110 0.930 . S
C106 N103 1.392 1_455 S
C106 C107 1.346 . S
C106 H111 0.930 . S
C107 N104 1.336 1_455 S
C107 C106 1.346 . S
C107 H114 0.929 . S
C108 O98 1.282 . S
C108 O109 1.216 . S
O109 C108 1.216 . S
H110 C105 0.930 . S
H111 C106 0.930 . S
O112 Cu92 1.959 1_655 S
O112 C99 1.251 1_655 S
H113 C96 0.930 . S
H114 C107 0.929 . S
Cu115 N116 1.999 . S
Cu115 O121 1.974 . S
Cu115 N126 1.985 . S
Cu115 O135 1.959 . S
N116 Cu115 1.999 . S
N116 C118 1.263 . S
N116 C120 1.389 . S
N117 C118 1.358 . S
N117 C119 1.400 . S
C118 N116 1.263 . S
C118 N117 1.358 . S
C118 H124 0.930 . S
C119 N117 1.400 . S
C119 C120 1.351 . S
C119 H136 0.930 . S
C120 N116 1.389 . S
C120 C119 1.351 . S
C120 H125 0.930 . S
O121 Cu115 1.974 . S
O121 C131 1.282 . S
C122 O123 1.261 . S
C122 O135 1.251 . S
O123 C122 1.261 . S
H124 C118 0.930 . S
H125 C120 0.930 . S
N126 Cu115 1.985 . S
N126 C128 1.335 . S
N126 C129 1.390 . S
N127 C128 1.345 . S
N127 C130 1.336 . S
C128 N126 1.335 . S
C128 N127 1.345 . S
C128 H133 0.930 . S
C129 N126 1.390 . S
C129 C130 1.346 . S
C129 H134 0.930 . S
C130 N127 1.336 . S
C130 C129 1.346 . S
C130 H137 0.929 . S
C131 O121 1.282 . S
C131 O132 1.216 . S
O132 C131 1.216 . S
H133 C128 0.930 . S
H134 C129 0.930 . S
O135 Cu115 1.959 . S
O135 C122 1.251 . S
H136 C119 0.930 . S
H137 C130 0.929 . S
Cu138 N139 1.999 . S
Cu138 O144 1.974 . S
Cu138 N149 1.985 . S
Cu138 O158 1.959 . S
N139 Cu138 1.999 . S
N139 C141 1.263 . S
N139 C143 1.389 . S
N140 C141 1.358 . S
N140 C142 1.400 . S
C141 N139 1.263 . S
C141 N140 1.358 . S
C141 H147 0.930 . S
C142 N140 1.400 . S
C142 C143 1.351 . S
C142 H159 0.930 . S
C143 N139 1.389 . S
C143 C142 1.351 . S
C143 H148 0.930 . S
O144 Cu138 1.974 . S
O144 C154 1.282 . S
C145 O146 1.261 . S
C145 O158 1.251 . S
O146 C145 1.261 . S
H147 C141 0.930 . S
H148 C143 0.930 . S
N149 Cu138 1.985 . S
N149 C151 1.335 . S
N149 C152 1.390 . S
N150 C151 1.345 . S
N150 C153 1.336 . S
C151 N149 1.335 . S
C151 N150 1.345 . S
C151 H156 0.930 . S
C152 N149 1.390 . S
C152 C153 1.346 . S
C152 H157 0.930 . S
C153 N150 1.336 . S
C153 C152 1.346 . S
C153 H160 0.929 . S
C154 O144 1.282 . S
C154 O155 1.216 . S
O155 C154 1.216 . S
H156 C151 0.930 . S
H157 C152 0.930 . S
O158 Cu138 1.959 . S
O158 C145 1.251 . S
H159 C142 0.930 . S
H160 C153 0.929 . S
Cu161 N162 1.999 . S
Cu161 O167 1.974 . S
Cu161 N172 1.985 . S
Cu161 O181 1.959 . S
N162 Cu161 1.999 . S
N162 C164 1.263 . S
N162 C166 1.389 . S
N163 C164 1.358 . S
N163 C165 1.400 . S
C164 N162 1.263 . S
C164 N163 1.358 . S
C164 H170 0.930 . S
C165 N163 1.400 . S
C165 C166 1.351 . S
C165 H182 0.930 . S
C166 N162 1.389 . S
C166 C165 1.351 . S
C166 H171 0.930 . S
O167 Cu161 1.974 . S
O167 C177 1.282 1_545 S
C168 O169 1.261 . S
C168 O181 1.251 . S
O169 C168 1.261 . S
H170 C164 0.930 . S
H171 C166 0.930 . S
N172 Cu161 1.985 . S
N172 C174 1.335 . S
N172 C175 1.390 1_545 S
N173 C174 1.345 . S
N173 C176 1.336 1_545 S
C174 N172 1.335 . S
C174 N173 1.345 . S
C174 H179 0.930 . S
C175 N172 1.390 1_565 S
C175 C176 1.346 . S
C175 H180 0.930 . S
C176 N173 1.336 1_565 S
C176 C175 1.346 . S
C176 H183 0.929 . S
C177 O167 1.282 1_565 S
C177 O178 1.216 . S
O178 C177 1.216 . S
H179 C174 0.930 . S
H180 C175 0.930 . S
O181 Cu161 1.959 . S
O181 C168 1.251 . S
H182 C165 0.930 . S
H183 C176 0.929 . S
Cu184 N185 1.999 . S
Cu184 O190 1.974 . S
Cu184 N195 1.985 1_655 S
Cu184 O204 1.959 . S
N185 Cu184 1.999 . S
N185 C187 1.263 . S
N185 C189 1.389 . S
N186 C187 1.358 . S
N186 C188 1.400 . S
C187 N185 1.263 . S
C187 N186 1.358 . S
C187 H193 0.930 . S
C188 N186 1.400 . S
C188 C189 1.351 . S
C188 H205 0.930 . S
C189 N185 1.389 . S
C189 C188 1.351 . S
C189 H194 0.930 . S
O190 Cu184 1.974 . S
O190 C200 1.282 . S
C191 O192 1.261 . S
C191 O204 1.251 . S
O192 C191 1.261 . S
H193 C187 0.930 . S
H194 C189 0.930 . S
N195 Cu184 1.985 1_455 S
N195 C197 1.335 . S
N195 C198 1.390 . S
N196 C197 1.345 . S
N196 C199 1.336 . S
C197 N195 1.335 . S
C197 N196 1.345 . S
C197 H202 0.930 . S
C198 N195 1.390 . S
C198 C199 1.346 . S
C198 H203 0.930 . S
C199 N196 1.336 . S
C199 C198 1.346 . S
C199 H206 0.929 . S
C200 O190 1.282 . S
C200 O201 1.216 . S
O201 C200 1.216 . S
H202 C197 0.930 . S
H203 C198 0.930 . S
O204 Cu184 1.959 . S
O204 C191 1.251 . S
H205 C188 0.930 . S
H206 C199 0.929 . S
Cu207 N208 1.999 . S
Cu207 O213 1.974 . S
Cu207 N218 1.985 1_655 S
Cu207 O227 1.959 . S
N208 Cu207 1.999 . S
N208 C210 1.263 . S
N208 C212 1.389 . S
N209 C210 1.358 . S
N209 C211 1.400 . S
C210 N208 1.263 . S
C210 N209 1.358 . S
C210 H216 0.930 . S
C211 N209 1.400 . S
C211 C212 1.351 . S
C211 H228 0.930 . S
C212 N208 1.389 . S
C212 C211 1.351 . S
C212 H217 0.930 . S
O213 Cu207 1.974 . S
O213 C223 1.282 . S
C214 O215 1.261 . S
C214 O227 1.251 . S
O215 C214 1.261 . S
H216 C210 0.930 . S
H217 C212 0.930 . S
N218 Cu207 1.985 1_455 S
N218 C220 1.335 . S
N218 C221 1.390 . S
N219 C220 1.345 . S
N219 C222 1.336 . S
C220 N218 1.335 . S
C220 N219 1.345 . S
C220 H225 0.930 . S
C221 N218 1.390 . S
C221 C222 1.346 . S
C221 H226 0.930 . S
C222 N219 1.336 . S
C222 C221 1.346 . S
C222 H229 0.929 . S
C223 O213 1.282 . S
C223 O224 1.216 . S
O224 C223 1.216 . S
H225 C220 0.930 . S
H226 C221 0.930 . S
O227 Cu207 1.959 . S
O227 C214 1.251 . S
H228 C211 0.930 . S
H229 C222 0.929 . S
Cu230 N231 1.999 . S
Cu230 O236 1.974 . S
Cu230 N241 1.985 . S
Cu230 O250 1.959 . S
N231 Cu230 1.999 . S
N231 C233 1.263 . S
N231 C235 1.389 . S
N232 C233 1.358 . S
N232 C234 1.400 . S
C233 N231 1.263 . S
C233 N232 1.358 . S
C233 H239 0.930 . S
C234 N232 1.400 . S
C234 C235 1.351 . S
C234 H251 0.930 . S
C235 N231 1.389 . S
C235 C234 1.351 . S
C235 H240 0.930 . S
O236 Cu230 1.974 . S
O236 C246 1.282 . S
C237 O238 1.261 . S
C237 O250 1.251 . S
O238 C237 1.261 . S
H239 C233 0.930 . S
H240 C235 0.930 . S
N241 Cu230 1.985 . S
N241 C243 1.335 . S
N241 C244 1.390 . S
N242 C243 1.345 . S
N242 C245 1.336 . S
C243 N241 1.335 . S
C243 N242 1.345 . S
C243 H248 0.930 . S
C244 N241 1.390 . S
C244 C245 1.346 . S
C244 H249 0.930 . S
C245 N242 1.336 . S
C245 C244 1.346 . S
C245 H252 0.929 . S
C246 O236 1.282 . S
C246 O247 1.216 . S
O247 C246 1.216 . S
H248 C243 0.930 . S
H249 C244 0.930 . S
O250 Cu230 1.959 . S
O250 C237 1.251 . S
H251 C234 0.930 . S
H252 C245 0.929 . S
Cu253 N254 1.999 . S
Cu253 O259 1.974 . S
Cu253 N264 1.985 . S
Cu253 O273 1.959 . S
N254 Cu253 1.999 . S
N254 C256 1.263 . S
N254 C258 1.389 . S
N255 C256 1.358 . S
N255 C257 1.400 . S
C256 N254 1.263 . S
C256 N255 1.358 . S
C256 H262 0.930 . S
C257 N255 1.400 . S
C257 C258 1.351 . S
C257 H274 0.930 . S
C258 N254 1.389 . S
C258 C257 1.351 . S
C258 H263 0.930 . S
O259 Cu253 1.974 . S
O259 C269 1.282 1_545 S
C260 O261 1.261 . S
C260 O273 1.251 . S
O261 C260 1.261 . S
H262 C256 0.930 . S
H263 C258 0.930 . S
N264 Cu253 1.985 . S
N264 C266 1.335 . S
N264 C267 1.390 1_545 S
N265 C266 1.345 . S
N265 C268 1.336 1_545 S
C266 N264 1.335 . S
C266 N265 1.345 . S
C266 H271 0.930 . S
C267 N264 1.390 1_565 S
C267 C268 1.346 . S
C267 H272 0.930 . S
C268 N265 1.336 1_565 S
C268 C267 1.346 . S
C268 H275 0.929 . S
C269 O259 1.282 1_565 S
C269 O270 1.216 . S
O270 C269 1.216 . S
H271 C266 0.930 . S
H272 C267 0.930 . S
O273 Cu253 1.959 . S
O273 C260 1.251 . S
H274 C257 0.930 . S
H275 C268 0.929 . S
Cu276 N277 1.999 . S
Cu276 O282 1.974 . S
Cu276 N287 1.985 . S
Cu276 O296 1.959 . S
N277 Cu276 1.999 . S
N277 C279 1.263 . S
N277 C281 1.389 . S
N278 C279 1.358 . S
N278 C280 1.400 . S
C279 N277 1.263 . S
C279 N278 1.358 . S
C279 H285 0.930 . S
C280 N278 1.400 . S
C280 C281 1.351 . S
C280 H297 0.930 . S
C281 N277 1.389 . S
C281 C280 1.351 . S
C281 H286 0.930 . S
O282 Cu276 1.974 . S
O282 C292 1.282 . S
C283 O284 1.261 . S
C283 O296 1.251 . S
O284 C283 1.261 . S
H285 C279 0.930 . S
H286 C281 0.930 . S
N287 Cu276 1.985 . S
N287 C289 1.337 . S
N287 C290 1.390 1_455 S
N288 C289 1.319 1_655 S
N288 C291 1.336 . S
C289 N287 1.337 . S
C289 N288 1.319 1_455 S
C289 H294 0.952 . S
C290 N287 1.390 1_655 S
C290 C291 1.346 . S
C290 H295 0.930 . S
C291 N288 1.336 . S
C291 C290 1.346 . S
C291 H298 0.929 . S
C292 O282 1.282 . S
C292 O293 1.216 . S
O293 C292 1.216 . S
H294 C289 0.952 . S
H295 C290 0.930 . S
O296 Cu276 1.959 . S
O296 C283 1.251 . S
H297 C280 0.930 . S
H298 C291 0.929 . S
Cu299 N300 1.999 . S
Cu299 O305 1.974 . S
Cu299 N310 1.985 . S
Cu299 O319 1.959 . S
N300 Cu299 1.999 . S
N300 C302 1.263 . S
N300 C304 1.389 . S
N301 C302 1.358 . S
N301 C303 1.400 . S
C302 N300 1.263 . S
C302 N301 1.358 . S
C302 H308 0.930 . S
C303 N301 1.400 . S
C303 C304 1.351 . S
C303 H320 0.930 . S
C304 N300 1.389 . S
C304 C303 1.351 . S
C304 H309 0.930 . S
O305 Cu299 1.974 . S
O305 C315 1.282 . S
C306 O307 1.261 . S
C306 O319 1.251 . S
O307 C306 1.261 . S
H308 C302 0.930 . S
H309 C304 0.930 . S
N310 Cu299 1.985 . S
N310 C312 1.335 . S
N310 C313 1.390 . S
N311 C312 1.345 . S
N311 C314 1.336 . S
C312 N310 1.335 . S
C312 N311 1.345 . S
C312 H317 0.930 . S
C313 N310 1.390 . S
C313 C314 1.346 . S
C313 H318 0.930 . S
C314 N311 1.336 . S
C314 C313 1.346 . S
C314 H321 0.929 . S
C315 O305 1.282 . S
C315 O316 1.216 . S
O316 C315 1.216 . S
H317 C312 0.930 . S
H318 C313 0.930 . S
O319 Cu299 1.959 . S
O319 C306 1.251 . S
H320 C303 0.930 . S
H321 C314 0.929 . S
Cu322 N323 1.999 . S
Cu322 O328 1.974 1_565 S
Cu322 N333 1.985 1_565 S
Cu322 O342 1.959 . S
N323 Cu322 1.999 . S
N323 C325 1.263 . S
N323 C327 1.389 . S
N324 C325 1.358 . S
N324 C326 1.400 . S
C325 N323 1.263 . S
C325 N324 1.358 . S
C325 H331 0.930 . S
C326 N324 1.400 . S
C326 C327 1.351 . S
C326 H343 0.930 . S
C327 N323 1.389 . S
C327 C326 1.351 . S
C327 H332 0.930 . S
O328 Cu322 1.974 1_545 S
O328 C338 1.282 . S
C329 O330 1.261 . S
C329 O342 1.251 . S
O330 C329 1.261 . S
H331 C325 0.930 . S
H332 C327 0.930 . S
N333 Cu322 1.985 1_545 S
N333 C335 1.335 1_545 S
N333 C336 1.390 . S
N334 C335 1.345 1_545 S
N334 C337 1.336 . S
C335 N333 1.335 1_565 S
C335 N334 1.345 1_565 S
C335 H340 0.930 . S
C336 N333 1.390 . S
C336 C337 1.346 . S
C336 H341 0.930 . S
C337 N334 1.336 . S
C337 C336 1.346 . S
C337 H344 0.929 . S
C338 O328 1.282 . S
C338 O339 1.216 . S
O339 C338 1.216 . S
H340 C335 0.930 . S
H341 C336 0.930 . S
O342 Cu322 1.959 . S
O342 C329 1.251 . S
H343 C326 0.930 . S
H344 C337 0.929 . S
Cu345 N346 1.999 . S
Cu345 O351 1.974 . S
Cu345 N356 1.985 . S
Cu345 O365 1.959 . S
N346 Cu345 1.999 . S
N346 C348 1.263 . S
N346 C350 1.389 . S
N347 C348 1.358 . S
N347 C349 1.400 . S
C348 N346 1.263 . S
C348 N347 1.358 . S
C348 H354 0.930 . S
C349 N347 1.400 . S
C349 C350 1.351 . S
C349 H366 0.930 . S
C350 N346 1.389 . S
C350 C349 1.351 . S
C350 H355 0.930 . S
O351 Cu345 1.974 . S
O351 C361 1.282 . S
C352 O353 1.261 . S
C352 O365 1.251 . S
O353 C352 1.261 . S
H354 C348 0.930 . S
H355 C350 0.930 . S
N356 Cu345 1.985 . S
N356 C358 1.335 . S
N356 C359 1.390 . S
N357 C358 1.345 . S
N357 C360 1.336 . S
C358 N356 1.335 . S
C358 N357 1.345 . S
C358 H363 0.930 . S
C359 N356 1.390 . S
C359 C360 1.346 . S
C359 H364 0.930 . S
C360 N357 1.336 . S
C360 C359 1.346 . S
C360 H367 0.929 . S
C361 O351 1.282 . S
C361 O362 1.216 . S
O362 C361 1.216 . S
H363 C358 0.930 . S
H364 C359 0.930 . S
O365 Cu345 1.959 . S
O365 C352 1.251 . S
H366 C349 0.930 . S
H367 C360 0.929 . S
Cu368 N369 1.999 . S
Cu368 O374 1.974 1_565 S
Cu368 N379 1.985 1_565 S
Cu368 O388 1.959 . S
N369 Cu368 1.999 . S
N369 C371 1.263 . S
N369 C373 1.389 . S
N370 C371 1.358 . S
N370 C372 1.400 . S
C371 N369 1.263 . S
C371 N370 1.358 . S
C371 H377 0.930 . S
C372 N370 1.400 . S
C372 C373 1.351 . S
C372 H389 0.930 . S
C373 N369 1.389 . S
C373 C372 1.351 . S
C373 H378 0.930 . S
O374 Cu368 1.974 1_545 S
O374 C384 1.282 . S
C375 O376 1.261 . S
C375 O388 1.251 . S
O376 C375 1.261 . S
H377 C371 0.930 . S
H378 C373 0.930 . S
N379 Cu368 1.985 1_545 S
N379 C381 1.335 1_545 S
N379 C382 1.390 . S
N380 C381 1.345 1_545 S
N380 C383 1.336 . S
C381 N379 1.335 1_565 S
C381 N380 1.345 1_565 S
C381 H386 0.930 . S
C382 N379 1.390 . S
C382 C383 1.346 . S
C382 H387 0.930 . S
C383 N380 1.336 . S
C383 C382 1.346 . S
C383 H390 0.929 . S
C384 O374 1.282 . S
C384 O385 1.216 . S
O385 C384 1.216 . S
H386 C381 0.930 . S
H387 C382 0.930 . S
O388 Cu368 1.959 . S
O388 C375 1.251 . S
H389 C372 0.930 . S
H390 C383 0.929 . S
Cu391 N392 1.999 . S
Cu391 O397 1.974 . S
Cu391 N402 1.985 . S
Cu391 O411 1.959 . S
N392 Cu391 1.999 . S
N392 C394 1.263 . S
N392 C396 1.389 . S
N393 C394 1.358 . S
N393 C395 1.400 . S
C394 N392 1.263 . S
C394 N393 1.358 . S
C394 H400 0.930 . S
C395 N393 1.400 . S
C395 C396 1.351 . S
C395 H412 0.930 . S
C396 N392 1.389 . S
C396 C395 1.351 . S
C396 H401 0.930 . S
O397 Cu391 1.974 . S
O397 C407 1.282 . S
C398 O399 1.261 . S
C398 O411 1.251 . S
O399 C398 1.261 . S
H400 C394 0.930 . S
H401 C396 0.930 . S
N402 Cu391 1.985 . S
N402 C404 1.335 . S
N402 C405 1.390 1_455 S
N403 C404 1.345 1_655 S
N403 C406 1.336 . S
C404 N402 1.335 . S
C404 N403 1.345 1_455 S
C404 H409 0.930 . S
C405 N402 1.390 1_655 S
C405 C406 1.346 . S
C405 H410 0.930 . S
C406 N403 1.336 . S
C406 C405 1.346 . S
C406 H413 0.929 . S
C407 O397 1.282 . S
C407 O408 1.216 . S
O408 C407 1.216 . S
H409 C404 0.930 . S
H410 C405 0.930 . S
O411 Cu391 1.959 . S
O411 C398 1.251 . S
H412 C395 0.930 . S
H413 C406 0.929 . S
Zn414 O420 1.920 1_455 S
Zn414 O426 1.898 1_445 S
Zn414 O429 1.905 . S
Zn415 O423 1.902 1_545 S
Zn415 O424 1.898 . S
Zn415 O432 1.920 1_455 S
Zn416 O419 2.080 . S
Zn416 O422 2.114 1_545 S
Zn416 O425 2.120 . S
Zn416 O427 2.120 1_445 S
Zn416 O428 2.114 . S
Zn416 O431 2.080 1_455 S
C417 O422 1.166 . S
C417 O423 1.187 . S
C418 O424 1.167 . S
C418 O425 1.299 . S
O419 Zn416 2.080 . S
O419 C433 1.305 1_455 S
O420 Zn414 1.920 1_655 S
O420 C433 1.234 . S
C421 O426 1.167 . S
C421 O427 1.299 . S
O422 Zn416 2.114 1_565 S
O422 C417 1.166 . S
O423 Zn415 1.902 1_565 S
O423 C417 1.187 . S
O424 Zn415 1.898 . S
O424 C418 1.167 . S
O425 Zn416 2.120 . S
O425 C418 1.299 . S
O426 Zn414 1.898 1_665 S
O426 C421 1.167 . S
O427 Zn416 2.120 1_665 S
O427 C421 1.299 . S
O428 Zn416 2.114 . S
O428 C430 1.166 . S
O429 Zn414 1.905 . S
O429 C430 1.182 . S
C430 O428 1.166 . S
C430 O429 1.182 . S
O431 Zn416 2.080 1_655 S
O431 C434 1.305 . S
O432 Zn415 1.920 1_655 S
O432 C434 1.234 . S
C433 O419 1.305 1_655 S
C433 O420 1.234 . S
C434 O431 1.305 . S
C434 O432 1.234 . S
Zn435 O441 1.920 1_545 S
Zn435 O447 1.898 . S
Zn435 O450 1.905 1_455 S
Zn436 O444 1.905 . S
Zn436 O445 1.898 1_445 S
Zn436 O453 1.920 1_545 S
Zn437 O440 2.080 1_545 S
Zn437 O443 2.114 . S
Zn437 O446 2.120 1_445 S
Zn437 O448 2.120 . S
Zn437 O449 2.114 1_455 S
Zn437 O452 2.080 . S
C438 O443 1.166 . S
C438 O444 1.182 . S
C439 O445 1.167 . S
C439 O446 1.299 . S
O440 Zn437 2.080 1_565 S
O440 C454 1.305 . S
O441 Zn435 1.920 1_565 S
O441 C454 1.234 . S
C442 O447 1.167 . S
C442 O448 1.299 . S
O443 Zn437 2.114 . S
O443 C438 1.166 . S
O444 Zn436 1.905 . S
O444 C438 1.182 . S
O445 Zn436 1.898 1_665 S
O445 C439 1.167 . S
O446 Zn437 2.120 1_665 S
O446 C439 1.299 . S
O447 Zn435 1.898 . S
O447 C442 1.167 . S
O448 Zn437 2.120 . S
O448 C442 1.299 . S
O449 Zn437 2.114 1_655 S
O449 C451 1.166 . S
O450 Zn435 1.905 1_655 S
O450 C451 1.182 . S
C451 O449 1.166 . S
C451 O450 1.182 . S
O452 Zn437 2.080 . S
O452 C455 1.325 . S
O453 Zn436 1.920 1_565 S
O453 C455 1.237 1_565 S
C454 O440 1.305 . S
C454 O441 1.234 . S
C455 O452 1.325 . S
C455 O453 1.237 1_545 S
Zn456 O462 1.920 1_545 S
Zn456 O468 1.898 . S
Zn456 O471 1.905 1_445 S
Zn457 O465 1.905 . S
Zn457 O466 1.898 1_445 S
Zn457 O474 1.920 1_545 S
Zn458 O461 2.080 1_545 S
Zn458 O464 2.114 . S
Zn458 O467 2.120 1_445 S
Zn458 O469 2.120 . S
Zn458 O470 2.114 1_455 S
Zn458 O473 2.080 . S
C459 O464 1.166 . S
C459 O465 1.182 . S
C460 O466 1.167 . S
C460 O467 1.299 . S
O461 Zn458 2.080 1_565 S
O461 C475 1.305 . S
O462 Zn456 1.920 1_565 S
O462 C475 1.234 . S
C463 O468 1.167 . S
C463 O469 1.299 . S
O464 Zn458 2.114 . S
O464 C459 1.166 . S
O465 Zn457 1.905 . S
O465 C459 1.182 . S
O466 Zn457 1.898 1_665 S
O466 C460 1.167 . S
O467 Zn458 2.120 1_665 S
O467 C460 1.299 . S
O468 Zn456 1.898 . S
O468 C463 1.167 . S
O469 Zn458 2.120 . S
O469 C463 1.299 . S
O470 Zn458 2.114 1_655 S
O470 C472 1.166 1_545 S
O471 Zn456 1.905 1_665 S
O471 C472 1.182 . S
C472 O470 1.166 1_565 S
C472 O471 1.182 . S
O473 Zn458 2.080 . S
O473 C476 1.305 1_545 S
O474 Zn457 1.920 1_565 S
O474 C476 1.234 . S
C475 O461 1.305 . S
C475 O462 1.234 . S
C476 O473 1.305 1_565 S
C476 O474 1.234 . S
Zn477 O483 1.920 . S
Zn477 O489 1.898 1_445 S
Zn477 O492 1.905 . S
Zn478 O486 1.905 1_445 S
Zn478 O487 1.898 . S
Zn478 O495 1.920 1_455 S
Zn479 O482 2.080 . S
Zn479 O485 2.114 1_545 S
Zn479 O488 2.120 . S
Zn479 O490 2.120 1_445 S
Zn479 O491 2.114 . S
Zn479 O494 2.080 1_455 S
C480 O485 1.166 . S
C480 O486 1.182 1_455 S
C481 O487 1.167 . S
C481 O488 1.299 . S
O482 Zn479 2.080 . S
O482 C496 1.305 . S
O483 Zn477 1.920 . S
O483 C496 1.234 . S
C484 O489 1.167 . S
C484 O490 1.299 . S
O485 Zn479 2.114 1_565 S
O485 C480 1.166 . S
O486 Zn478 1.905 1_665 S
O486 C480 1.182 1_655 S
O487 Zn478 1.898 . S
O487 C481 1.167 . S
O488 Zn479 2.120 . S
O488 C481 1.299 . S
O489 Zn477 1.898 1_665 S
O489 C484 1.167 . S
O490 Zn479 2.120 1_665 S
O490 C484 1.299 . S
O491 Zn479 2.114 . S
O491 C493 1.166 . S
O492 Zn477 1.905 . S
O492 C493 1.182 . S
C493 O491 1.166 . S
C493 O492 1.182 . S
O494 Zn479 2.080 1_655 S
O494 C497 1.305 . S
O495 Zn478 1.920 1_655 S
O495 C497 1.234 . S
C496 O482 1.305 . S
C496 O483 1.234 . S
C497 O494 1.305 . S
C497 O495 1.234 . S
Zn498 O504 1.920 . S
Zn498 O510 1.898 . S
Zn498 O513 1.905 . S
Zn499 O507 1.905 . S
Zn499 O508 1.898 . S
Zn499 O516 1.920 . S
Zn500 O503 2.080 . S
Zn500 O506 2.114 . S
Zn500 O509 2.120 . S
Zn500 O511 2.120 . S
Zn500 O512 2.114 . S
Zn500 O515 2.080 . S
C501 O506 1.166 . S
C501 O507 1.182 . S
C502 O508 1.167 . S
C502 O509 1.299 . S
O503 Zn500 2.080 . S
O503 C517 1.305 . S
O504 Zn498 1.920 . S
O504 C517 1.234 . S
C505 O510 1.167 . S
C505 O511 1.299 . S
O506 Zn500 2.114 . S
O506 C501 1.166 . S
O507 Zn499 1.905 . S
O507 C501 1.182 . S
O508 Zn499 1.898 . S
O508 C502 1.167 . S
O509 Zn500 2.120 . S
O509 C502 1.299 . S
O510 Zn498 1.898 . S
O510 C505 1.167 . S
O511 Zn500 2.120 . S
O511 C505 1.299 . S
O512 Zn500 2.114 . S
O512 C514 1.166 . S
O513 Zn498 1.905 . S
O513 C514 1.182 . S
C514 O512 1.166 . S
C514 O513 1.182 . S
O515 Zn500 2.080 . S
O515 C518 1.305 . S
O516 Zn499 1.920 . S
O516 C518 1.234 . S
C517 O503 1.305 . S
C517 O504 1.234 . S
C518 O515 1.305 . S
C518 O516 1.234 . S
Zn519 O525 1.920 . S
Zn519 O531 1.898 . S
Zn519 O534 1.905 . S
Zn520 O528 1.905 . S
Zn520 O529 1.898 . S
Zn520 O537 1.920 . S
Zn521 O524 2.080 . S
Zn521 O527 2.114 . S
Zn521 O530 2.120 . S
Zn521 O532 2.120 . S
Zn521 O533 2.114 . S
Zn521 O536 2.080 . S
C522 O527 1.166 . S
C522 O528 1.182 . S
C523 O529 1.167 . S
C523 O530 1.299 . S
O524 Zn521 2.080 . S
O524 C538 1.305 . S
O525 Zn519 1.920 . S
O525 C538 1.234 . S
C526 O531 1.167 . S
C526 O532 1.299 . S
O527 Zn521 2.114 . S
O527 C522 1.166 . S
O528 Zn520 1.905 . S
O528 C522 1.182 . S
O529 Zn520 1.898 . S
O529 C523 1.167 . S
O530 Zn521 2.120 . S
O530 C523 1.299 . S
O531 Zn519 1.898 . S
O531 C526 1.167 . S
O532 Zn521 2.120 . S
O532 C526 1.299 . S
O533 Zn521 2.114 . S
O533 C535 1.166 . S
O534 Zn519 1.905 . S
O534 C535 1.182 . S
C535 O533 1.166 . S
C535 O534 1.182 . S
O536 Zn521 2.080 . S
O536 C539 1.305 . S
O537 Zn520 1.920 . S
O537 C539 1.234 . S
C538 O524 1.305 . S
C538 O525 1.234 . S
C539 O536 1.305 . S
C539 O537 1.234 . S
Zn540 O546 1.920 . S
Zn540 O552 1.898 . S
Zn540 O555 1.905 . S
Zn541 O549 1.905 . S
Zn541 O550 1.898 . S
Zn541 O558 1.920 . S
Zn542 O545 2.080 . S
Zn542 O548 2.114 . S
Zn542 O551 2.120 . S
Zn542 O553 2.120 . S
Zn542 O554 2.114 . S
Zn542 O557 2.080 . S
C543 O548 1.166 . S
C543 O549 1.182 . S
C544 O550 1.167 . S
C544 O551 1.299 . S
O545 Zn542 2.080 . S
O545 C559 1.305 . S
O546 Zn540 1.920 . S
O546 C559 1.234 . S
C547 O552 1.167 . S
C547 O553 1.299 . S
O548 Zn542 2.114 . S
O548 C543 1.166 . S
O549 Zn541 1.905 . S
O549 C543 1.182 . S
O550 Zn541 1.898 . S
O550 C544 1.167 . S
O551 Zn542 2.120 . S
O551 C544 1.299 . S
O552 Zn540 1.898 . S
O552 C547 1.167 . S
O553 Zn542 2.120 . S
O553 C547 1.299 . S
O554 Zn542 2.114 . S
O554 C556 1.166 . S
O555 Zn540 1.905 . S
O555 C556 1.182 . S
C556 O554 1.166 . S
C556 O555 1.182 . S
O557 Zn542 2.080 . S
O557 C560 1.305 . S
O558 Zn541 1.920 . S
O558 C560 1.234 . S
C559 O545 1.305 . S
C559 O546 1.234 . S
C560 O557 1.305 . S
C560 O558 1.234 . S
Zn561 O567 1.920 . S
Zn561 O573 1.898 . S
Zn561 O576 1.905 . S
Zn562 O570 1.905 . S
Zn562 O571 1.898 . S
Zn562 O579 1.920 . S
Zn563 O566 2.080 1_556 S
Zn563 O569 2.114 . S
Zn563 O572 2.120 . S
Zn563 O574 2.120 1_556 S
Zn563 O575 2.114 1_556 S
Zn563 O578 2.080 . S
C564 O569 1.166 . S
C564 O570 1.182 . S
C565 O571 1.167 . S
C565 O572 1.299 . S
O566 Zn563 2.080 1_554 S
O566 C580 1.305 . S
O567 Zn561 1.920 . S
O567 C580 1.234 . S
C568 O573 1.167 . S
C568 O574 1.299 . S
O569 Zn563 2.114 . S
O569 C564 1.166 . S
O570 Zn562 1.905 . S
O570 C564 1.182 . S
O571 Zn562 1.898 . S
O571 C565 1.167 . S
O572 Zn563 2.120 . S
O572 C565 1.299 . S
O573 Zn561 1.898 . S
O573 C568 1.167 . S
O574 Zn563 2.120 1_554 S
O574 C568 1.299 . S
O575 Zn563 2.114 1_554 S
O575 C577 1.166 . S
O576 Zn561 1.905 . S
O576 C577 1.182 . S
C577 O575 1.166 . S
C577 O576 1.182 . S
O578 Zn563 2.080 . S
O578 C581 1.305 . S
O579 Zn562 1.920 . S
O579 C581 1.234 . S
C580 O566 1.305 . S
C580 O567 1.234 . S
C581 O578 1.305 . S
C581 O579 1.234 . S
Zn582 O588 1.920 . S
Zn582 O594 1.898 . S
Zn582 O597 1.905 . S
Zn583 O591 1.905 . S
Zn583 O592 1.898 . S
Zn583 O600 1.920 . S
Zn584 O587 2.080 . S
Zn584 O590 2.114 . S
Zn584 O593 2.120 . S
Zn584 O595 2.120 . S
Zn584 O596 2.114 . S
Zn584 O599 2.080 . S
C585 O590 1.166 . S
C585 O591 1.182 . S
C586 O592 1.167 . S
C586 O593 1.299 . S
O587 Zn584 2.080 . S
O587 C601 1.305 . S
O588 Zn582 1.920 . S
O588 C601 1.234 . S
C589 O594 1.167 . S
C589 O595 1.299 . S
O590 Zn584 2.114 . S
O590 C585 1.166 . S
O591 Zn583 1.905 . S
O591 C585 1.182 . S
O592 Zn583 1.898 . S
O592 C586 1.167 . S
O593 Zn584 2.120 . S
O593 C586 1.299 . S
O594 Zn582 1.898 . S
O594 C589 1.167 . S
O595 Zn584 2.120 . S
O595 C589 1.299 . S
O596 Zn584 2.114 . S
O596 C598 1.166 . S
O597 Zn582 1.905 . S
O597 C598 1.182 . S
C598 O596 1.166 . S
C598 O597 1.182 . S
O599 Zn584 2.080 . S
O599 C602 1.305 . S
O600 Zn583 1.920 . S
O600 C602 1.234 . S
C601 O587 1.305 . S
C601 O588 1.234 . S
C602 O599 1.305 . S
C602 O600 1.234 . S
Zn603 O609 1.920 . S
Zn603 O615 1.898 . S
Zn603 O618 1.905 . S
Zn604 O612 1.905 . S
Zn604 O613 1.898 . S
Zn604 O621 1.920 . S
Zn605 O608 2.080 . S
Zn605 O611 2.114 1_554 S
Zn605 O614 2.120 1_554 S
Zn605 O616 2.120 . S
Zn605 O617 2.114 . S
Zn605 O620 2.080 1_554 S
C606 O611 1.166 . S
C606 O612 1.182 . S
C607 O613 1.167 . S
C607 O614 1.299 . S
O608 Zn605 2.080 . S
O608 C622 1.305 . S
O609 Zn603 1.920 . S
O609 C622 1.234 . S
C610 O615 1.167 . S
C610 O616 1.299 . S
O611 Zn605 2.114 1_556 S
O611 C606 1.166 . S
O612 Zn604 1.905 . S
O612 C606 1.182 . S
O613 Zn604 1.898 . S
O613 C607 1.167 . S
O614 Zn605 2.120 1_556 S
O614 C607 1.299 . S
O615 Zn603 1.898 . S
O615 C610 1.167 . S
O616 Zn605 2.120 . S
O616 C610 1.299 . S
O617 Zn605 2.114 . S
O617 C619 1.166 . S
O618 Zn603 1.905 . S
O618 C619 1.182 . S
C619 O617 1.166 . S
C619 O618 1.182 . S
O620 Zn605 2.080 1_556 S
O620 C623 1.305 . S
O621 Zn604 1.920 . S
O621 C623 1.234 . S
C622 O608 1.305 . S
C622 O609 1.234 . S
C623 O620 1.305 . S
C623 O621 1.234 . S
Zn624 O630 1.920 . S
Zn624 O636 1.898 . S
Zn624 O639 1.905 . S
Zn625 O633 1.905 . S
Zn625 O634 1.898 . S
Zn625 O642 1.920 . S
Zn626 O629 2.080 . S
Zn626 O632 2.114 . S
Zn626 O635 2.120 . S
Zn626 O637 2.120 . S
Zn626 O638 2.114 . S
Zn626 O641 2.080 . S
C627 O632 1.166 . S
C627 O633 1.182 . S
C628 O634 1.167 . S
C628 O635 1.299 . S
O629 Zn626 2.080 . S
O629 C643 1.305 . S
O630 Zn624 1.920 . S
O630 C643 1.234 . S
C631 O636 1.167 . S
C631 O637 1.299 . S
O632 Zn626 2.114 . S
O632 C627 1.166 . S
O633 Zn625 1.905 . S
O633 C627 1.182 . S
O634 Zn625 1.898 . S
O634 C628 1.167 . S
O635 Zn626 2.120 . S
O635 C628 1.299 . S
O636 Zn624 1.898 . S
O636 C631 1.167 . S
O637 Zn626 2.120 . S
O637 C631 1.299 . S
O638 Zn626 2.114 . S
O638 C640 1.166 . S
O639 Zn624 1.905 . S
O639 C640 1.182 . S
C640 O638 1.166 . S
C640 O639 1.182 . S
O641 Zn626 2.080 . S
O641 C644 1.305 . S
O642 Zn625 1.920 . S
O642 C644 1.234 . S
C643 O629 1.305 . S
C643 O630 1.234 . S
C644 O641 1.305 . S
C644 O642 1.234 . S
Zn645 O651 1.920 . S
Zn645 O657 1.898 . S
Zn645 O660 1.905 . S
Zn646 O654 1.905 . S
Zn646 O655 1.898 . S
Zn646 O663 1.920 . S
Zn647 O650 2.080 . S
Zn647 O653 2.114 . S
Zn647 O656 2.120 . S
Zn647 O658 2.120 . S
Zn647 O659 2.114 . S
Zn647 O662 2.080 . S
C648 O653 1.166 . S
C648 O654 1.182 . S
C649 O655 1.167 . S
C649 O656 1.299 . S
O650 Zn647 2.080 . S
O650 C664 1.305 . S
O651 Zn645 1.920 . S
O651 C664 1.234 . S
C652 O657 1.167 . S
C652 O658 1.299 . S
O653 Zn647 2.114 . S
O653 C648 1.166 . S
O654 Zn646 1.905 . S
O654 C648 1.182 . S
O655 Zn646 1.898 . S
O655 C649 1.167 . S
O656 Zn647 2.120 . S
O656 C649 1.299 . S
O657 Zn645 1.898 . S
O657 C652 1.167 . S
O658 Zn647 2.120 . S
O658 C652 1.299 . S
O659 Zn647 2.114 . S
O659 C661 1.166 . S
O660 Zn645 1.905 . S
O660 C661 1.182 . S
C661 O659 1.166 . S
C661 O660 1.182 . S
O662 Zn647 2.080 . S
O662 C665 1.305 . S
O663 Zn646 1.920 . S
O663 C665 1.234 . S
C664 O650 1.305 . S
C664 O651 1.234 . S
C665 O662 1.305 . S
C665 O663 1.234 . S
H666 C672 0.930 . S
H667 C675 0.930 . S
H668 C676 0.930 . S
H669 C677 0.930 . S
H670 C680 0.930 . S
H671 C681 0.930 . S
C672 H666 0.930 . S
C672 C673 1.355 . S
C672 C674 1.415 . S
C673 C672 1.355 . S
C673 C675 1.419 . S
C674 C672 1.415 . S
C674 C679 1.425 . S
C674 C681 1.409 . S
C675 H667 0.930 . S
C675 C673 1.419 . S
C675 C676 1.362 . S
C676 H668 0.930 . S
C676 C675 1.362 . S
C676 C679 1.409 . S
C677 H669 0.930 . S
C677 C678 1.355 . S
C677 C679 1.415 . S
C678 C677 1.355 . S
C678 C680 1.419 . S
C679 C674 1.425 . S
C679 C676 1.409 . S
C679 C677 1.415 . S
C680 H670 0.930 . S
C680 C678 1.419 . S
C680 C681 1.362 . S
C681 H671 0.930 . S
C681 C674 1.409 . S
C681 C680 1.362 . S
H682 C688 0.930 . S
H683 C691 0.938 . S
H684 C692 0.930 1_565 S
H685 C693 0.930 1_565 S
H686 C696 0.930 . S
H687 C697 0.930 . S
C688 H682 0.930 . S
C688 C689 1.355 . S
C688 C690 1.415 . S
C689 C688 1.355 . S
C689 C691 1.419 . S
C690 C688 1.415 . S
C690 C695 1.425 . S
C690 C697 1.409 . S
C691 H683 0.938 . S
C691 C689 1.419 . S
C691 C692 1.362 . S
C692 H684 0.930 1_545 S
C692 C691 1.362 . S
C692 C695 1.409 . S
C693 H685 0.930 1_545 S
C693 C694 1.355 . S
C693 C695 1.415 . S
C694 C693 1.355 . S
C694 C696 1.419 . S
C695 C690 1.425 . S
C695 C692 1.409 . S
C695 C693 1.415 . S
C696 H686 0.930 . S
C696 C694 1.419 . S
C696 C697 1.362 . S
C697 H687 0.930 . S
C697 C690 1.409 . S
C697 C696 1.362 . S
H698 C704 0.930 . S
H699 C707 0.930 . S
H700 C708 0.930 1_455 S
H701 C709 0.928 . S
H702 C712 0.930 . S
H703 C713 0.930 . S
C704 H698 0.930 . S
C704 C705 1.355 . S
C704 C706 1.415 . S
C705 C704 1.355 . S
C705 C707 1.419 . S
C706 C704 1.415 . S
C706 C711 1.425 . S
C706 C713 1.409 . S
C707 H699 0.930 . S
C707 C705 1.419 . S
C707 C708 1.362 . S
C708 H700 0.930 1_655 S
C708 C707 1.362 . S
C708 C711 1.409 . S
C709 H701 0.928 . S
C709 C710 1.354 1_455 S
C709 C711 1.417 1_455 S
C710 C709 1.354 1_655 S
C710 C712 1.419 . S
C711 C706 1.425 . S
C711 C708 1.409 . S
C711 C709 1.417 1_655 S
C712 H702 0.930 . S
C712 C710 1.419 . S
C712 C713 1.362 . S
C713 H703 0.930 . S
C713 C706 1.409 . S
C713 C712 1.362 . S
H714 C720 0.930 . S
H715 C723 0.930 . S
H716 C724 0.930 . S
H717 C725 0.930 . S
H718 C728 0.930 . S
H719 C729 0.930 . S
C720 H714 0.930 . S
C720 C721 1.355 . S
C720 C722 1.415 . S
C721 C720 1.355 . S
C721 C723 1.419 . S
C722 C720 1.415 . S
C722 C727 1.425 . S
C722 C729 1.409 . S
C723 H715 0.930 . S
C723 C721 1.419 . S
C723 C724 1.362 . S
C724 H716 0.930 . S
C724 C723 1.362 . S
C724 C727 1.409 . S
C725 H717 0.930 . S
C725 C726 1.355 . S
C725 C727 1.415 . S
C726 C725 1.355 . S
C726 C728 1.419 . S
C727 C722 1.425 . S
C727 C724 1.409 . S
C727 C725 1.415 . S
C728 H718 0.930 . S
C728 C726 1.419 . S
C728 C729 1.362 . S
C729 H719 0.930 . S
C729 C722 1.409 . S
C729 C728 1.362 . S
H730 C736 0.930 . S
H731 C739 0.930 . S
H732 C740 0.930 . S
H733 C741 0.930 . S
H734 C744 0.930 . S
H735 C745 0.930 . S
C736 H730 0.930 . S
C736 C737 1.355 1_565 S
C736 C738 1.415 . S
C737 C736 1.355 1_545 S
C737 C739 1.419 . S
C738 C736 1.415 . S
C738 C743 1.425 1_565 S
C738 C745 1.409 . S
C739 H731 0.930 . S
C739 C737 1.419 . S
C739 C740 1.362 . S
C740 H732 0.930 . S
C740 C739 1.362 . S
C740 C743 1.409 . S
C741 H733 0.930 . S
C741 C742 1.343 1_545 S
C741 C743 1.415 . S
C742 C741 1.343 1_565 S
C742 C744 1.428 . S
C743 C738 1.425 1_545 S
C743 C740 1.409 . S
C743 C741 1.415 . S
C744 H734 0.930 . S
C744 C742 1.428 . S
C744 C745 1.362 . S
C745 H735 0.930 . S
C745 C738 1.409 . S
C745 C744 1.362 . S
H746 C752 0.930 1_655 S
H747 C755 0.930 . S
H748 C756 0.930 . S
H749 C757 0.930 . S
H750 C760 0.930 . S
H751 C761 0.930 . S
C752 H746 0.930 1_455 S
C752 C753 1.355 . S
C752 C754 1.415 . S
C753 C752 1.355 . S
C753 C755 1.419 . S
C754 C752 1.415 . S
C754 C759 1.425 . S
C754 C761 1.409 1_455 S
C755 H747 0.930 . S
C755 C753 1.419 . S
C755 C756 1.362 . S
C756 H748 0.930 . S
C756 C755 1.362 . S
C756 C759 1.409 . S
C757 H749 0.930 . S
C757 C758 1.355 . S
C757 C759 1.415 . S
C758 C757 1.355 . S
C758 C760 1.419 1_455 S
C759 C754 1.425 . S
C759 C756 1.409 . S
C759 C757 1.415 . S
C760 H750 0.930 . S
C760 C758 1.419 1_655 S
C760 C761 1.362 . S
C761 H751 0.930 . S
C761 C754 1.409 1_655 S
C761 C760 1.362 . S
H762 C768 0.930 . S
H763 C771 0.930 . S
H764 C772 0.930 . S
H765 C773 0.930 . S
H766 C776 0.930 . S
H767 C777 0.930 . S
C768 H762 0.930 . S
C768 C769 1.355 . S
C768 C770 1.415 . S
C769 C768 1.355 . S
C769 C771 1.419 . S
C770 C768 1.415 . S
C770 C775 1.425 . S
C770 C777 1.409 . S
C771 H763 0.930 . S
C771 C769 1.419 . S
C771 C772 1.362 . S
C772 H764 0.930 . S
C772 C771 1.362 . S
C772 C775 1.409 . S
C773 H765 0.930 . S
C773 C774 1.355 . S
C773 C775 1.415 . S
C774 C773 1.355 . S
C774 C776 1.419 . S
C775 C770 1.425 . S
C775 C772 1.409 . S
C775 C773 1.415 . S
C776 H766 0.930 . S
C776 C774 1.419 . S
C776 C777 1.362 . S
C777 H767 0.930 . S
C777 C770 1.409 . S
C777 C776 1.362 . S
H778 C784 0.930 . S
H779 C787 0.930 . S
H780 C788 0.930 . S
H781 C789 0.930 . S
H782 C792 0.930 . S
H783 C793 0.930 . S
C784 H778 0.930 . S
C784 C785 1.355 . S
C784 C786 1.415 . S
C785 C784 1.355 . S
C785 C787 1.419 1_565 S
C786 C784 1.415 . S
C786 C791 1.422 . S
C786 C793 1.409 . S
C787 H779 0.930 . S
C787 C785 1.419 1_545 S
C787 C788 1.362 . S
C788 H780 0.930 . S
C788 C787 1.362 . S
C788 C791 1.411 1_545 S
C789 H781 0.930 . S
C789 C790 1.355 1_545 S
C789 C791 1.416 1_545 S
C790 C789 1.355 1_565 S
C790 C792 1.419 . S
C791 C786 1.422 . S
C791 C788 1.411 1_565 S
C791 C789 1.416 1_565 S
C792 H782 0.930 . S
C792 C790 1.419 . S
C792 C793 1.362 . S
C793 H783 0.930 . S
C793 C786 1.409 . S
C793 C792 1.362 . S
H794 C800 0.930 . S
H795 C803 0.930 . S
H796 C804 0.930 . S
H797 C805 0.930 . S
H798 C808 0.930 . S
H799 C809 0.930 . S
C800 H794 0.930 . S
C800 C801 1.355 . S
C800 C802 1.415 . S
C801 C800 1.355 . S
C801 C803 1.419 . S
C802 C800 1.415 . S
C802 C807 1.425 . S
C802 C809 1.409 . S
C803 H795 0.930 . S
C803 C801 1.419 . S
C803 C804 1.362 . S
C804 H796 0.930 . S
C804 C803 1.362 . S
C804 C807 1.409 . S
C805 H797 0.930 . S
C805 C806 1.355 . S
C805 C807 1.415 . S
C806 C805 1.355 . S
C806 C808 1.419 . S
C807 C802 1.425 . S
C807 C804 1.409 . S
C807 C805 1.415 . S
C808 H798 0.930 . S
C808 C806 1.419 . S
C808 C809 1.362 . S
C809 H799 0.930 . S
C809 C802 1.409 . S
C809 C808 1.362 . S
H810 C816 0.930 . S
H811 C819 0.930 . S
H812 C820 0.930 . S
H813 C821 0.930 . S
H814 C824 0.930 . S
H815 C825 0.930 . S
C816 H810 0.930 . S
C816 C817 1.355 . S
C816 C818 1.415 . S
C817 C816 1.355 . S
C817 C819 1.419 . S
C818 C816 1.415 . S
C818 C823 1.425 . S
C818 C825 1.409 . S
C819 H811 0.930 . S
C819 C817 1.419 . S
C819 C820 1.362 . S
C820 H812 0.930 . S
C820 C819 1.362 . S
C820 C823 1.409 . S
C821 H813 0.930 . S
C821 C822 1.355 . S
C821 C823 1.415 . S
C822 C821 1.355 . S
C822 C824 1.419 . S
C823 C818 1.425 . S
C823 C820 1.409 . S
C823 C821 1.415 . S
C824 H814 0.930 . S
C824 C822 1.419 . S
C824 C825 1.362 . S
C825 H815 0.930 . S
C825 C818 1.409 . S
C825 C824 1.362 . S
H826 C832 0.930 . S
H827 C835 0.930 . S
H828 C836 0.930 . S
H829 C837 0.930 . S
H830 C840 0.936 . S
H831 C841 0.930 1_565 S
C832 H826 0.930 . S
C832 C833 1.355 . S
C832 C834 1.415 . S
C833 C832 1.355 . S
C833 C835 1.419 . S
C834 C832 1.415 . S
C834 C839 1.425 . S
C834 C841 1.409 . S
C835 H827 0.930 . S
C835 C833 1.419 . S
C835 C836 1.362 . S
C836 H828 0.930 . S
C836 C835 1.362 . S
C836 C839 1.409 . S
C837 H829 0.930 . S
C837 C838 1.355 . S
C837 C839 1.415 . S
C838 C837 1.355 . S
C838 C840 1.419 . S
C839 C834 1.425 . S
C839 C836 1.409 . S
C839 C837 1.415 . S
C840 H830 0.936 . S
C840 C838 1.419 . S
C840 C841 1.362 . S
C841 H831 0.930 1_545 S
C841 C834 1.409 . S
C841 C840 1.362 . S
H842 C848 0.930 . S
H843 C851 0.930 . S
H844 C852 0.930 . S
H845 C853 0.930 . S
H846 C856 0.930 . S
H847 C857 0.930 . S
C848 H842 0.930 . S
C848 C849 1.355 1_455 S
C848 C850 1.415 . S
C849 C848 1.355 1_655 S
C849 C851 1.419 . S
C850 C848 1.415 . S
C850 C855 1.425 1_455 S
C850 C857 1.409 . S
C851 H843 0.930 . S
C851 C849 1.419 . S
C851 C852 1.362 . S
C852 H844 0.930 . S
C852 C851 1.362 . S
C852 C855 1.409 . S
C853 H845 0.930 . S
C853 C854 1.355 1_655 S
C853 C855 1.415 . S
C854 C853 1.355 1_455 S
C854 C856 1.419 . S
C855 C850 1.425 1_655 S
C855 C852 1.409 . S
C855 C853 1.415 . S
C856 H846 0.930 . S
C856 C854 1.419 . S
C856 C857 1.362 . S
C857 H847 0.930 . S
C857 C850 1.409 . S
C857 C856 1.362 . S
H858 C864 0.930 . S
H859 C867 0.930 . S
H860 C868 0.930 . S
H861 C869 0.930 . S
H862 C872 0.930 . S
H863 C873 0.930 . S
C864 H858 0.930 . S
C864 C865 1.355 . S
C864 C866 1.415 . S
C865 C864 1.355 . S
C865 C867 1.419 . S
C866 C864 1.415 . S
C866 C871 1.425 . S
C866 C873 1.409 . S
C867 H859 0.930 . S
C867 C865 1.419 . S
C867 C868 1.362 . S
C868 H860 0.930 . S
C868 C867 1.362 . S
C868 C871 1.409 . S
C869 H861 0.930 . S
C869 C870 1.355 . S
C869 C871 1.415 . S
C870 C869 1.355 . S
C870 C872 1.419 . S
C871 C866 1.425 . S
C871 C868 1.409 . S
C871 C869 1.415 . S
C872 H862 0.930 . S
C872 C870 1.419 . S
C872 C873 1.362 . S
C873 H863 0.930 . S
C873 C866 1.409 . S
C873 C872 1.362 . S
H874 C880 0.930 . S
H875 C883 0.930 . S
H876 C884 0.930 . S
H877 C885 0.930 . S
H878 C888 0.930 . S
H879 C889 0.930 . S
C880 H874 0.930 . S
C880 C881 1.355 . S
C880 C882 1.415 . S
C881 C880 1.355 . S
C881 C883 1.419 . S
C882 C880 1.415 . S
C882 C887 1.425 . S
C882 C889 1.409 . S
C883 H875 0.930 . S
C883 C881 1.419 . S
C883 C884 1.362 . S
C884 H876 0.930 . S
C884 C883 1.362 . S
C884 C887 1.409 . S
C885 H877 0.930 . S
C885 C886 1.355 . S
C885 C887 1.415 . S
C886 C885 1.355 . S
C886 C888 1.419 . S
C887 C882 1.425 . S
C887 C884 1.409 . S
C887 C885 1.415 . S
C888 H878 0.930 . S
C888 C886 1.419 . S
C888 C889 1.362 . S
C889 H879 0.930 . S
C889 C882 1.409 . S
C889 C888 1.362 . S
H890 C896 0.930 . S
H891 C899 0.930 . S
H892 C900 0.930 . S
H893 C901 0.930 . S
H894 C904 0.930 . S
H895 C905 0.930 . S
C896 H890 0.930 . S
C896 C897 1.355 . S
C896 C898 1.415 . S
C897 C896 1.355 . S
C897 C899 1.419 . S
C898 C896 1.415 . S
C898 C903 1.425 . S
C898 C905 1.409 . S
C899 H891 0.930 . S
C899 C897 1.419 . S
C899 C900 1.362 . S
C900 H892 0.930 . S
C900 C899 1.362 . S
C900 C903 1.409 . S
C901 H893 0.930 . S
C901 C902 1.355 . S
C901 C903 1.415 . S
C902 C901 1.355 . S
C902 C904 1.419 . S
C903 C898 1.425 . S
C903 C900 1.409 . S
C903 C901 1.415 . S
C904 H894 0.930 . S
C904 C902 1.419 . S
C904 C905 1.362 . S
C905 H895 0.930 . S
C905 C898 1.409 . S
C905 C904 1.362 . S
H906 C912 0.930 . S
H907 C915 0.930 . S
H908 C916 0.930 . S
H909 C917 0.930 . S
H910 C920 0.930 . S
H911 C921 0.930 . S
C912 H906 0.930 . S
C912 C913 1.355 . S
C912 C914 1.415 . S
C913 C912 1.355 . S
C913 C915 1.419 . S
C914 C912 1.415 . S
C914 C919 1.425 . S
C914 C921 1.409 . S
C915 H907 0.930 . S
C915 C913 1.419 . S
C915 C916 1.362 . S
C916 H908 0.930 . S
C916 C915 1.362 . S
C916 C919 1.409 . S
C917 H909 0.930 . S
C917 C918 1.355 . S
C917 C919 1.415 . S
C918 C917 1.355 . S
C918 C920 1.419 . S
C919 C914 1.425 . S
C919 C916 1.409 . S
C919 C917 1.415 . S
C920 H910 0.930 . S
C920 C918 1.419 . S
C920 C921 1.362 . S
C921 H911 0.930 . S
C921 C914 1.409 . S
C921 C920 1.362 . S
H922 C928 0.930 . S
H923 C931 0.930 . S
H924 C932 0.930 . S
H925 C933 0.930 . S
H926 C936 0.930 . S
H927 C937 0.930 . S
C928 H922 0.930 . S
C928 C929 1.355 . S
C928 C930 1.415 . S
C929 C928 1.355 . S
C929 C931 1.419 . S
C930 C928 1.415 . S
C930 C935 1.425 . S
C930 C937 1.409 . S
C931 H923 0.930 . S
C931 C929 1.419 . S
C931 C932 1.362 . S
C932 H924 0.930 . S
C932 C931 1.362 . S
C932 C935 1.409 . S
C933 H925 0.930 . S
C933 C934 1.355 . S
C933 C935 1.415 . S
C934 C933 1.355 . S
C934 C936 1.419 . S
C935 C930 1.425 . S
C935 C932 1.409 . S
C935 C933 1.415 . S
C936 H926 0.930 . S
C936 C934 1.419 . S
C936 C937 1.362 . S
C937 H927 0.930 . S
C937 C930 1.409 . S
C937 C936 1.362 . S
H938 C944 0.930 . S
H939 C947 0.930 . S
H940 C948 0.930 . S
H941 C949 0.930 . S
H942 C952 0.930 . S
H943 C953 0.930 . S
C944 H938 0.930 . S
C944 C945 1.355 . S
C944 C946 1.415 . S
C945 C944 1.355 . S
C945 C947 1.419 . S
C946 C944 1.415 . S
C946 C951 1.425 . S
C946 C953 1.409 . S
C947 H939 0.930 . S
C947 C945 1.419 . S
C947 C948 1.362 . S
C948 H940 0.930 . S
C948 C947 1.362 . S
C948 C951 1.409 . S
C949 H941 0.930 . S
C949 C950 1.355 . S
C949 C951 1.415 . S
C950 C949 1.355 . S
C950 C952 1.419 . S
C951 C946 1.425 . S
C951 C948 1.409 . S
C951 C949 1.415 . S
C952 H942 0.930 . S
C952 C950 1.419 . S
C952 C953 1.362 . S
C953 H943 0.930 . S
C953 C946 1.409 . S
C953 C952 1.362 . S
H954 C960 0.930 . S
H955 C963 0.930 . S
H956 C964 0.930 . S
H957 C965 0.930 . S
H958 C968 0.930 . S
H959 C969 0.930 . S
C960 H954 0.930 . S
C960 C961 1.355 . S
C960 C962 1.415 . S
C961 C960 1.355 . S
C961 C963 1.419 . S
C962 C960 1.415 . S
C962 C967 1.425 . S
C962 C969 1.409 . S
C963 H955 0.930 . S
C963 C961 1.419 . S
C963 C964 1.362 . S
C964 H956 0.930 . S
C964 C963 1.362 . S
C964 C967 1.409 . S
C965 H957 0.930 . S
C965 C966 1.355 . S
C965 C967 1.415 . S
C966 C965 1.355 . S
C966 C968 1.419 . S
C967 C962 1.425 . S
C967 C964 1.409 . S
C967 C965 1.415 . S
C968 H958 0.930 . S
C968 C966 1.419 . S
C968 C969 1.362 . S
C969 H959 0.930 . S
C969 C962 1.409 . S
C969 C968 1.362 . S
H970 C976 0.930 . S
H971 C979 0.930 . S
H972 C980 0.930 . S
H973 C981 0.930 . S
H974 C984 0.930 . S
H975 C985 0.930 . S
C976 H970 0.930 . S
C976 C977 1.355 . S
C976 C978 1.415 . S
C977 C976 1.355 . S
C977 C979 1.419 . S
C978 C976 1.415 . S
C978 C983 1.425 . S
C978 C985 1.409 . S
C979 H971 0.930 . S
C979 C977 1.419 . S
C979 C980 1.362 . S
C980 H972 0.930 . S
C980 C979 1.362 . S
C980 C983 1.409 . S
C981 H973 0.930 . S
C981 C982 1.355 . S
C981 C983 1.415 . S
C982 C981 1.355 . S
C982 C984 1.419 . S
C983 C978 1.425 . S
C983 C980 1.409 . S
C983 C981 1.415 . S
C984 H974 0.930 . S
C984 C982 1.419 . S
C984 C985 1.362 . S
C985 H975 0.930 . S
C985 C978 1.409 . S
C985 C984 1.362 . S
H986 C992 0.930 . S
H987 C995 0.930 . S
H988 C996 0.930 . S
H989 C997 0.930 . S
H990 C1000 0.930 . S
H991 C1001 0.930 . S
C992 H986 0.930 . S
C992 C993 1.355 . S
C992 C994 1.415 . S
C993 C992 1.355 . S
C993 C995 1.419 . S
C994 C992 1.415 . S
C994 C999 1.425 . S
C994 C1001 1.409 . S
C995 H987 0.930 . S
C995 C993 1.419 . S
C995 C996 1.362 . S
C996 H988 0.930 . S
C996 C995 1.362 . S
C996 C999 1.409 . S
C997 H989 0.930 . S
C997 C998 1.355 . S
C997 C999 1.415 . S
C998 C997 1.355 . S
C998 C1000 1.419 . S
C999 C994 1.425 . S
C999 C996 1.409 . S
C999 C997 1.415 . S
C1000 H990 0.930 . S
C1000 C998 1.419 . S
C1000 C1001 1.362 . S
C1001 H991 0.930 . S
C1001 C994 1.409 . S
C1001 C1000 1.362 . S
H1002 C1008 0.930 . S
H1003 C1011 0.930 . S
H1004 C1012 0.930 . S
H1005 C1013 0.930 . S
H1006 C1016 0.930 . S
H1007 C1017 0.930 . S
C1008 H1002 0.930 . S
C1008 C1009 1.355 . S
C1008 C1010 1.415 . S
C1009 C1008 1.355 . S
C1009 C1011 1.419 . S
C1010 C1008 1.415 . S
C1010 C1015 1.425 . S
C1010 C1017 1.409 . S
C1011 H1003 0.930 . S
C1011 C1009 1.419 . S
C1011 C1012 1.362 . S
C1012 H1004 0.930 . S
C1012 C1011 1.362 . S
C1012 C1015 1.409 . S
C1013 H1005 0.930 . S
C1013 C1014 1.355 . S
C1013 C1015 1.415 . S
C1014 C1013 1.355 . S
C1014 C1016 1.419 . S
C1015 C1010 1.425 . S
C1015 C1012 1.409 . S
C1015 C1013 1.415 . S
C1016 H1006 0.930 . S
C1016 C1014 1.419 . S
C1016 C1017 1.362 . S
C1017 H1007 0.930 . S
C1017 C1010 1.409 . S
C1017 C1016 1.362 . S
H1018 C1024 0.930 . S
H1019 C1027 0.930 . S
H1020 C1028 0.930 . S
H1021 C1029 0.930 . S
H1022 C1032 0.930 . S
H1023 C1033 0.930 . S
C1024 H1018 0.930 . S
C1024 C1025 1.355 . S
C1024 C1026 1.415 . S
C1025 C1024 1.355 . S
C1025 C1027 1.419 . S
C1026 C1024 1.415 . S
C1026 C1031 1.425 . S
C1026 C1033 1.409 . S
C1027 H1019 0.930 . S
C1027 C1025 1.419 . S
C1027 C1028 1.362 . S
C1028 H1020 0.930 . S
C1028 C1027 1.362 . S
C1028 C1031 1.409 . S
C1029 H1021 0.930 . S
C1029 C1030 1.355 . S
C1029 C1031 1.415 . S
C1030 C1029 1.355 . S
C1030 C1032 1.419 . S
C1031 C1026 1.425 . S
C1031 C1028 1.409 . S
C1031 C1029 1.415 . S
C1032 H1022 0.930 . S
C1032 C1030 1.419 . S
C1032 C1033 1.362 . S
C1033 H1023 0.930 . S
C1033 C1026 1.409 . S
C1033 C1032 1.362 . S
H1034 C1040 0.930 . S
H1035 C1043 0.930 . S
H1036 C1044 0.930 . S
H1037 C1045 0.930 . S
H1038 C1048 0.930 . S
H1039 C1049 0.930 . S
C1040 H1034 0.930 . S
C1040 C1041 1.355 . S
C1040 C1042 1.415 . S
C1041 C1040 1.355 . S
C1041 C1043 1.419 . S
C1042 C1040 1.415 . S
C1042 C1047 1.425 . S
C1042 C1049 1.409 . S
C1043 H1035 0.930 . S
C1043 C1041 1.419 . S
C1043 C1044 1.362 . S
C1044 H1036 0.930 . S
C1044 C1043 1.362 . S
C1044 C1047 1.409 . S
C1045 H1037 0.930 . S
C1045 C1046 1.355 . S
C1045 C1047 1.415 . S
C1046 C1045 1.355 . S
C1046 C1048 1.419 . S
C1047 C1042 1.425 . S
C1047 C1044 1.409 . S
C1047 C1045 1.415 . S
C1048 H1038 0.930 . S
C1048 C1046 1.419 . S
C1048 C1049 1.362 . S
C1049 H1039 0.930 . S
C1049 C1042 1.409 . S
C1049 C1048 1.362 . S
H1050 C1056 0.930 . S
H1051 C1059 0.930 . S
H1052 C1060 0.930 . S
H1053 C1061 0.930 . S
H1054 C1064 0.930 . S
H1055 C1065 0.930 . S
C1056 H1050 0.930 . S
C1056 C1057 1.355 . S
C1056 C1058 1.415 . S
C1057 C1056 1.355 . S
C1057 C1059 1.419 . S
C1058 C1056 1.415 . S
C1058 C1063 1.425 . S
C1058 C1065 1.409 . S
C1059 H1051 0.930 . S
C1059 C1057 1.419 . S
C1059 C1060 1.362 . S
C1060 H1052 0.930 . S
C1060 C1059 1.362 . S
C1060 C1063 1.409 . S
C1061 H1053 0.930 . S
C1061 C1062 1.355 . S
C1061 C1063 1.415 . S
C1062 C1061 1.355 . S
C1062 C1064 1.419 . S
C1063 C1058 1.425 . S
C1063 C1060 1.409 . S
C1063 C1061 1.415 . S
C1064 H1054 0.930 . S
C1064 C1062 1.419 . S
C1064 C1065 1.362 . S
C1065 H1055 0.930 . S
C1065 C1058 1.409 . S
C1065 C1064 1.362 . S
H1066 C1072 0.930 . S
H1067 C1075 0.930 . S
H1068 C1076 0.930 . S
H1069 C1077 0.930 . S
H1070 C1080 0.930 . S
H1071 C1081 0.930 . S
C1072 H1066 0.930 . S
C1072 C1073 1.355 . S
C1072 C1074 1.415 . S
C1073 C1072 1.355 . S
C1073 C1075 1.419 . S
C1074 C1072 1.415 . S
C1074 C1079 1.425 . S
C1074 C1081 1.409 . S
C1075 H1067 0.930 . S
C1075 C1073 1.419 . S
C1075 C1076 1.362 . S
C1076 H1068 0.930 . S
C1076 C1075 1.362 . S
C1076 C1079 1.409 . S
C1077 H1069 0.930 . S
C1077 C1078 1.355 . S
C1077 C1079 1.415 . S
C1078 C1077 1.355 . S
C1078 C1080 1.419 . S
C1079 C1074 1.425 . S
C1079 C1076 1.409 . S
C1079 C1077 1.415 . S
C1080 H1070 0.930 . S
C1080 C1078 1.419 . S
C1080 C1081 1.362 . S
C1081 H1071 0.930 . S
C1081 C1074 1.409 . S
C1081 C1080 1.362 . S
H1082 C1088 0.930 . S
H1083 C1091 0.930 . S
H1084 C1092 0.930 . S
H1085 C1093 0.930 . S
H1086 C1096 0.930 . S
H1087 C1097 0.930 . S
C1088 H1082 0.930 . S
C1088 C1089 1.355 . S
C1088 C1090 1.415 . S
C1089 C1088 1.355 . S
C1089 C1091 1.419 . S
C1090 C1088 1.415 . S
C1090 C1095 1.425 . S
C1090 C1097 1.409 . S
C1091 H1083 0.930 . S
C1091 C1089 1.419 . S
C1091 C1092 1.362 . S
C1092 H1084 0.930 . S
C1092 C1091 1.362 . S
C1092 C1095 1.409 . S
C1093 H1085 0.930 . S
C1093 C1094 1.355 . S
C1093 C1095 1.415 . S
C1094 C1093 1.355 . S
C1094 C1096 1.419 . S
C1095 C1090 1.425 . S
C1095 C1092 1.409 . S
C1095 C1093 1.415 . S
C1096 H1086 0.930 . S
C1096 C1094 1.419 . S
C1096 C1097 1.362 . S
C1097 H1087 0.930 . S
C1097 C1090 1.409 . S
C1097 C1096 1.362 . S
H1098 C1104 0.930 . S
H1099 C1107 0.930 . S
H1100 C1108 0.930 . S
H1101 C1109 0.930 . S
H1102 C1112 0.891 1_554 S
H1103 C1113 0.930 . S
C1104 H1098 0.930 . S
C1104 C1105 1.355 . S
C1104 C1106 1.415 . S
C1105 C1104 1.355 . S
C1105 C1107 1.419 . S
C1106 C1104 1.415 . S
C1106 C1111 1.425 . S
C1106 C1113 1.409 . S
C1107 H1099 0.930 . S
C1107 C1105 1.419 . S
C1107 C1108 1.362 . S
C1108 H1100 0.930 . S
C1108 C1107 1.362 . S
C1108 C1111 1.409 . S
C1109 H1101 0.930 . S
C1109 C1110 1.355 . S
C1109 C1111 1.415 . S
C1110 C1109 1.355 . S
C1110 C1112 1.419 . S
C1111 C1106 1.425 . S
C1111 C1108 1.409 . S
C1111 C1109 1.415 . S
C1112 H1102 0.891 1_556 S
C1112 C1110 1.419 . S
C1112 C1113 1.362 . S
C1113 H1103 0.930 . S
C1113 C1106 1.409 . S
C1113 C1112 1.362 . S
H1114 C1120 0.930 . S
H1115 C1123 0.930 . S
H1116 C1124 0.930 . S
H1117 C1125 0.930 . S
H1118 C1128 0.930 . S
H1119 C1129 0.930 . S
C1120 H1114 0.930 . S
C1120 C1121 1.355 . S
C1120 C1122 1.415 . S
C1121 C1120 1.355 . S
C1121 C1123 1.419 . S
C1122 C1120 1.415 . S
C1122 C1127 1.425 . S
C1122 C1129 1.409 . S
C1123 H1115 0.930 . S
C1123 C1121 1.419 . S
C1123 C1124 1.362 . S
C1124 H1116 0.930 . S
C1124 C1123 1.362 . S
C1124 C1127 1.409 . S
C1125 H1117 0.930 . S
C1125 C1126 1.355 . S
C1125 C1127 1.415 . S
C1126 C1125 1.355 . S
C1126 C1128 1.419 . S
C1127 C1122 1.425 . S
C1127 C1124 1.409 . S
C1127 C1125 1.415 . S
C1128 H1118 0.930 . S
C1128 C1126 1.419 . S
C1128 C1129 1.362 . S
C1129 H1119 0.930 . S
C1129 C1122 1.409 . S
C1129 C1128 1.362 . S
H1130 C1136 0.930 . S
H1131 C1139 0.930 . S
H1132 C1140 0.930 . S
H1133 C1141 0.930 . S
H1134 C1144 0.930 . S
H1135 C1145 0.930 . S
C1136 H1130 0.930 . S
C1136 C1137 1.355 . S
C1136 C1138 1.415 . S
C1137 C1136 1.355 . S
C1137 C1139 1.419 . S
C1138 C1136 1.415 . S
C1138 C1143 1.425 . S
C1138 C1145 1.409 . S
C1139 H1131 0.930 . S
C1139 C1137 1.419 . S
C1139 C1140 1.362 . S
C1140 H1132 0.930 . S
C1140 C1139 1.362 . S
C1140 C1143 1.409 . S
C1141 H1133 0.930 . S
C1141 C1142 1.355 . S
C1141 C1143 1.415 . S
C1142 C1141 1.355 . S
C1142 C1144 1.419 . S
C1143 C1138 1.425 . S
C1143 C1140 1.409 . S
C1143 C1141 1.415 . S
C1144 H1134 0.930 . S
C1144 C1142 1.419 . S
C1144 C1145 1.362 . S
C1145 H1135 0.930 . S
C1145 C1138 1.409 . S
C1145 C1144 1.362 . S
H1146 C1152 0.930 . S
H1147 C1155 0.930 . S
H1148 C1156 0.930 . S
H1149 C1157 0.930 . S
H1150 C1160 0.930 . S
H1151 C1161 0.930 . S
C1152 H1146 0.930 . S
C1152 C1153 1.355 . S
C1152 C1154 1.415 . S
C1153 C1152 1.355 . S
C1153 C1155 1.419 . S
C1154 C1152 1.415 . S
C1154 C1159 1.425 . S
C1154 C1161 1.409 . S
C1155 H1147 0.930 . S
C1155 C1153 1.419 . S
C1155 C1156 1.362 . S
C1156 H1148 0.930 . S
C1156 C1155 1.362 . S
C1156 C1159 1.409 . S
C1157 H1149 0.930 . S
C1157 C1158 1.355 . S
C1157 C1159 1.415 . S
C1158 C1157 1.355 . S
C1158 C1160 1.419 . S
C1159 C1154 1.425 . S
C1159 C1156 1.409 . S
C1159 C1157 1.415 . S
C1160 H1150 0.930 . S
C1160 C1158 1.419 . S
C1160 C1161 1.362 . S
C1161 H1151 0.930 . S
C1161 C1154 1.409 . S
C1161 C1160 1.362 . S
H1162 C1168 0.930 . S
H1163 C1171 0.930 . S
H1164 C1172 0.930 . S
H1165 C1173 0.930 . S
H1166 C1176 0.930 . S
H1167 C1177 0.930 . S
C1168 H1162 0.930 . S
C1168 C1169 1.355 . S
C1168 C1170 1.415 . S
C1169 C1168 1.355 . S
C1169 C1171 1.419 . S
C1170 C1168 1.415 . S
C1170 C1175 1.425 . S
C1170 C1177 1.409 . S
C1171 H1163 0.930 . S
C1171 C1169 1.419 . S
C1171 C1172 1.362 . S
C1172 H1164 0.930 . S
C1172 C1171 1.362 . S
C1172 C1175 1.409 . S
C1173 H1165 0.930 . S
C1173 C1174 1.355 . S
C1173 C1175 1.415 . S
C1174 C1173 1.355 . S
C1174 C1176 1.419 . S
C1175 C1170 1.425 . S
C1175 C1172 1.409 . S
C1175 C1173 1.415 . S
C1176 H1166 0.930 . S
C1176 C1174 1.419 . S
C1176 C1177 1.362 . S
C1177 H1167 0.930 . S
C1177 C1170 1.409 . S
C1177 C1176 1.362 . S
H1178 C1184 0.930 . S
H1179 C1187 0.930 . S
H1180 C1188 0.930 . S
H1181 C1189 0.930 . S
H1182 C1192 0.930 . S
H1183 C1193 0.930 . S
C1184 H1178 0.930 . S
C1184 C1185 1.355 . S
C1184 C1186 1.415 . S
C1185 C1184 1.355 . S
C1185 C1187 1.419 . S
C1186 C1184 1.415 . S
C1186 C1191 1.425 . S
C1186 C1193 1.409 . S
C1187 H1179 0.930 . S
C1187 C1185 1.419 . S
C1187 C1188 1.362 . S
C1188 H1180 0.930 . S
C1188 C1187 1.362 . S
C1188 C1191 1.409 . S
C1189 H1181 0.930 . S
C1189 C1190 1.355 . S
C1189 C1191 1.415 . S
C1190 C1189 1.355 . S
C1190 C1192 1.419 . S
C1191 C1186 1.425 . S
C1191 C1188 1.409 . S
C1191 C1189 1.415 . S
C1192 H1182 0.930 . S
C1192 C1190 1.419 . S
C1192 C1193 1.362 . S
C1193 H1183 0.930 . S
C1193 C1186 1.409 . S
C1193 C1192 1.362 . S
H1194 C1200 0.930 . S
H1195 C1203 0.930 . S
H1196 C1204 0.930 . S
H1197 C1205 0.930 . S
H1198 C1208 0.930 . S
H1199 C1209 0.930 . S
C1200 H1194 0.930 . S
C1200 C1201 1.355 . S
C1200 C1202 1.415 . S
C1201 C1200 1.355 . S
C1201 C1203 1.419 . S
C1202 C1200 1.415 . S
C1202 C1207 1.425 . S
C1202 C1209 1.409 . S
C1203 H1195 0.930 . S
C1203 C1201 1.419 . S
C1203 C1204 1.362 . S
C1204 H1196 0.930 . S
C1204 C1203 1.362 . S
C1204 C1207 1.409 . S
C1205 H1197 0.930 . S
C1205 C1206 1.355 . S
C1205 C1207 1.415 . S
C1206 C1205 1.355 . S
C1206 C1208 1.419 . S
C1207 C1202 1.425 . S
C1207 C1204 1.409 . S
C1207 C1205 1.415 . S
C1208 H1198 0.930 . S
C1208 C1206 1.419 . S
C1208 C1209 1.362 . S
C1209 H1199 0.930 . S
C1209 C1202 1.409 . S
C1209 C1208 1.362 . S
H1210 C1216 0.930 . S
H1211 C1219 0.930 . S
H1212 C1220 0.930 . S
H1213 C1221 0.930 . S
H1214 C1224 0.930 . S
H1215 C1225 0.930 . S
C1216 H1210 0.930 . S
C1216 C1217 1.355 . S
C1216 C1218 1.415 . S
C1217 C1216 1.355 . S
C1217 C1219 1.419 . S
C1218 C1216 1.415 . S
C1218 C1223 1.425 . S
C1218 C1225 1.409 . S
C1219 H1211 0.930 . S
C1219 C1217 1.419 . S
C1219 C1220 1.362 . S
C1220 H1212 0.930 . S
C1220 C1219 1.362 . S
C1220 C1223 1.409 . S
C1221 H1213 0.930 . S
C1221 C1222 1.355 . S
C1221 C1223 1.415 . S
C1222 C1221 1.355 . S
C1222 C1224 1.419 . S
C1223 C1218 1.425 . S
C1223 C1220 1.409 . S
C1223 C1221 1.415 . S
C1224 H1214 0.930 . S
C1224 C1222 1.419 . S
C1224 C1225 1.362 . S
C1225 H1215 0.930 . S
C1225 C1218 1.409 . S
C1225 C1224 1.362 . S
H1226 C1232 0.930 . S
H1227 C1235 0.930 . S
H1228 C1236 0.930 . S
H1229 C1237 0.930 . S
H1230 C1240 0.930 . S
H1231 C1241 0.930 . S
C1232 H1226 0.930 . S
C1232 C1233 1.355 . S
C1232 C1234 1.415 . S
C1233 C1232 1.355 . S
C1233 C1235 1.419 . S
C1234 C1232 1.415 . S
C1234 C1239 1.425 . S
C1234 C1241 1.409 . S
C1235 H1227 0.930 . S
C1235 C1233 1.419 . S
C1235 C1236 1.362 . S
C1236 H1228 0.930 . S
C1236 C1235 1.362 . S
C1236 C1239 1.409 . S
C1237 H1229 0.930 . S
C1237 C1238 1.355 . S
C1237 C1239 1.415 . S
C1238 C1237 1.355 . S
C1238 C1240 1.419 . S
C1239 C1234 1.425 . S
C1239 C1236 1.409 . S
C1239 C1237 1.415 . S
C1240 H1230 0.930 . S
C1240 C1238 1.419 . S
C1240 C1241 1.362 . S
C1241 H1231 0.930 . S
C1241 C1234 1.409 . S
C1241 C1240 1.362 . S
H1242 C1248 0.930 . S
H1243 C1251 0.930 . S
H1244 C1252 0.930 . S
H1245 C1253 0.930 . S
H1246 C1256 0.930 . S
H1247 C1257 0.930 . S
C1248 H1242 0.930 . S
C1248 C1249 1.355 . S
C1248 C1250 1.415 . S
C1249 C1248 1.355 . S
C1249 C1251 1.419 . S
C1250 C1248 1.415 . S
C1250 C1255 1.425 . S
C1250 C1257 1.409 . S
C1251 H1243 0.930 . S
C1251 C1249 1.419 . S
C1251 C1252 1.362 . S
C1252 H1244 0.930 . S
C1252 C1251 1.362 . S
C1252 C1255 1.409 . S
C1253 H1245 0.930 . S
C1253 C1254 1.355 . S
C1253 C1255 1.415 . S
C1254 C1253 1.355 . S
C1254 C1256 1.419 . S
C1255 C1250 1.425 . S
C1255 C1252 1.409 . S
C1255 C1253 1.415 . S
C1256 H1246 0.930 . S
C1256 C1254 1.419 . S
C1256 C1257 1.362 . S
C1257 H1247 0.930 . S
C1257 C1250 1.409 . S
C1257 C1256 1.362 . S
H1258 C1264 0.930 . S
H1259 C1267 0.930 . S
H1260 C1268 0.930 . S
H1261 C1269 0.930 . S
H1262 C1272 0.930 . S
H1263 C1273 0.930 . S
C1264 H1258 0.930 . S
C1264 C1265 1.355 1_655 S
C1264 C1266 1.415 . S
C1265 C1264 1.355 1_455 S
C1265 C1267 1.419 . S
C1266 C1264 1.415 . S
C1266 C1271 1.425 1_655 S
C1266 C1273 1.409 . S
C1267 H1259 0.930 . S
C1267 C1265 1.419 . S
C1267 C1268 1.362 . S
C1268 H1260 0.930 . S
C1268 C1267 1.362 . S
C1268 C1271 1.409 . S
C1269 H1261 0.930 . S
C1269 C1270 1.355 1_455 S
C1269 C1271 1.415 . S
C1270 C1269 1.355 1_655 S
C1270 C1272 1.419 . S
C1271 C1266 1.425 1_455 S
C1271 C1268 1.409 . S
C1271 C1269 1.415 . S
C1272 H1262 0.930 . S
C1272 C1270 1.419 . S
C1272 C1273 1.362 . S
C1273 H1263 0.930 . S
C1273 C1266 1.409 . S
C1273 C1272 1.362 . S
H1274 C1280 0.930 . S
H1275 C1283 0.930 . S
H1276 C1284 0.930 . S
H1277 C1285 0.930 . S
H1278 C1288 0.930 . S
H1279 C1289 0.930 . S
C1280 H1274 0.930 . S
C1280 C1281 1.355 . S
C1280 C1282 1.415 . S
C1281 C1280 1.355 . S
C1281 C1283 1.419 . S
C1282 C1280 1.415 . S
C1282 C1287 1.425 . S
C1282 C1289 1.409 . S
C1283 H1275 0.930 . S
C1283 C1281 1.419 . S
C1283 C1284 1.362 . S
C1284 H1276 0.930 . S
C1284 C1283 1.362 . S
C1284 C1287 1.409 . S
C1285 H1277 0.930 . S
C1285 C1286 1.355 . S
C1285 C1287 1.415 . S
C1286 C1285 1.355 . S
C1286 C1288 1.419 . S
C1287 C1282 1.425 . S
C1287 C1284 1.409 . S
C1287 C1285 1.415 . S
C1288 H1278 0.930 . S
C1288 C1286 1.419 . S
C1288 C1289 1.362 . S
C1289 H1279 0.930 . S
C1289 C1282 1.409 . S
C1289 C1288 1.362 . S
H1290 C1296 0.930 . S
H1291 C1299 0.930 1_655 S
H1292 C1300 0.924 1_655 S
H1293 C1301 0.930 . S
H1294 C1304 0.930 . S
H1295 C1305 0.930 . S
C1296 H1290 0.930 . S
C1296 C1297 1.355 . S
C1296 C1298 1.415 . S
C1297 C1296 1.355 . S
C1297 C1299 1.419 . S
C1298 C1296 1.415 . S
C1298 C1303 1.425 . S
C1298 C1305 1.409 . S
C1299 H1291 0.930 1_455 S
C1299 C1297 1.419 . S
C1299 C1300 1.351 . S
C1300 H1292 0.924 1_455 S
C1300 C1299 1.351 . S
C1300 C1303 1.428 . S
C1301 H1293 0.930 . S
C1301 C1302 1.355 . S
C1301 C1303 1.415 . S
C1302 C1301 1.355 . S
C1302 C1304 1.419 . S
C1303 C1298 1.425 . S
C1303 C1300 1.428 . S
C1303 C1301 1.415 . S
C1304 H1294 0.930 . S
C1304 C1302 1.419 . S
C1304 C1305 1.362 . S
C1305 H1295 0.930 . S
C1305 C1298 1.409 . S
C1305 C1304 1.362 . S
H1306 C1312 0.930 . S
H1307 C1315 0.930 . S
H1308 C1316 0.930 . S
H1309 C1317 0.930 . S
H1310 C1320 0.930 . S
H1311 C1321 0.930 . S
C1312 H1306 0.930 . S
C1312 C1313 1.355 . S
C1312 C1314 1.415 . S
C1313 C1312 1.355 . S
C1313 C1315 1.419 . S
C1314 C1312 1.415 . S
C1314 C1319 1.425 . S
C1314 C1321 1.409 . S
C1315 H1307 0.930 . S
C1315 C1313 1.419 . S
C1315 C1316 1.362 . S
C1316 H1308 0.930 . S
C1316 C1315 1.362 . S
C1316 C1319 1.409 . S
C1317 H1309 0.930 . S
C1317 C1318 1.355 . S
C1317 C1319 1.415 . S
C1318 C1317 1.355 . S
C1318 C1320 1.419 . S
C1319 C1314 1.425 . S
C1319 C1316 1.409 . S
C1319 C1317 1.415 . S
C1320 H1310 0.930 . S
C1320 C1318 1.419 . S
C1320 C1321 1.362 . S
C1321 H1311 0.930 . S
C1321 C1314 1.409 . S
C1321 C1320 1.362 . S
H1322 C1328 0.930 . S
H1323 C1331 0.930 . S
H1324 C1332 0.930 . S
H1325 C1333 0.930 . S
H1326 C1336 0.930 . S
H1327 C1337 0.930 . S
C1328 H1322 0.930 . S
C1328 C1329 1.355 1_565 S
C1328 C1330 1.415 . S
C1329 C1328 1.355 1_545 S
C1329 C1331 1.419 . S
C1330 C1328 1.415 . S
C1330 C1335 1.425 1_565 S
C1330 C1337 1.409 . S
C1331 H1323 0.930 . S
C1331 C1329 1.419 . S
C1331 C1332 1.362 . S
C1332 H1324 0.930 . S
C1332 C1331 1.362 . S
C1332 C1335 1.409 . S
C1333 H1325 0.930 . S
C1333 C1334 1.355 1_545 S
C1333 C1335 1.415 . S
C1334 C1333 1.355 1_565 S
C1334 C1336 1.419 . S
C1335 C1330 1.425 1_545 S
C1335 C1332 1.409 . S
C1335 C1333 1.415 . S
C1336 H1326 0.930 . S
C1336 C1334 1.419 . S
C1336 C1337 1.362 . S
C1337 H1327 0.930 . S
C1337 C1330 1.409 . S
C1337 C1336 1.362 . S
H1338 C1344 0.930 . S
H1339 C1347 0.930 . S
H1340 C1348 0.930 . S
H1341 C1349 0.930 . S
H1342 C1352 0.930 . S
H1343 C1353 0.930 . S
C1344 H1338 0.930 . S
C1344 C1345 1.355 . S
C1344 C1346 1.415 . S
C1345 C1344 1.355 . S
C1345 C1347 1.419 1_545 S
C1346 C1344 1.415 . S
C1346 C1351 1.425 1_545 S
C1346 C1353 1.409 . S
C1347 H1339 0.930 . S
C1347 C1345 1.419 1_565 S
C1347 C1348 1.362 . S
C1348 H1340 0.930 . S
C1348 C1347 1.362 . S
C1348 C1351 1.409 . S
C1349 H1341 0.930 . S
C1349 C1350 1.355 . S
C1349 C1351 1.415 . S
C1350 C1349 1.355 . S
C1350 C1352 1.419 1_565 S
C1351 C1346 1.425 1_565 S
C1351 C1348 1.409 . S
C1351 C1349 1.415 . S
C1352 H1342 0.930 . S
C1352 C1350 1.419 1_545 S
C1352 C1353 1.362 . S
C1353 H1343 0.930 . S
C1353 C1346 1.409 . S
C1353 C1352 1.362 . S
H1354 C1360 0.930 1_655 S
H1355 C1363 0.930 . S
H1356 C1364 0.930 . S
H1357 C1365 0.930 . S
H1358 C1368 0.930 . S
H1359 C1369 0.930 . S
C1360 H1354 0.930 1_455 S
C1360 C1361 1.355 . S
C1360 C1362 1.415 . S
C1361 C1360 1.355 . S
C1361 C1363 1.419 . S
C1362 C1360 1.415 . S
C1362 C1367 1.425 . S
C1362 C1369 1.409 1_455 S
C1363 H1355 0.930 . S
C1363 C1361 1.419 . S
C1363 C1364 1.362 . S
C1364 H1356 0.930 . S
C1364 C1363 1.362 . S
C1364 C1367 1.409 . S
C1365 H1357 0.930 . S
C1365 C1366 1.355 . S
C1365 C1367 1.415 . S
C1366 C1365 1.355 . S
C1366 C1368 1.419 1_455 S
C1367 C1362 1.425 . S
C1367 C1364 1.409 . S
C1367 C1365 1.415 . S
C1368 H1358 0.930 . S
C1368 C1366 1.419 1_655 S
C1368 C1369 1.362 . S
C1369 H1359 0.930 . S
C1369 C1362 1.409 1_655 S
C1369 C1368 1.362 . S
H1370 C1376 0.930 . S
H1371 C1379 0.930 . S
H1372 C1380 0.930 . S
H1373 C1381 0.930 . S
H1374 C1384 0.930 . S
H1375 C1385 0.930 . S
C1376 H1370 0.930 . S
C1376 C1377 1.355 . S
C1376 C1378 1.415 . S
C1377 C1376 1.355 . S
C1377 C1379 1.419 . S
C1378 C1376 1.415 . S
C1378 C1383 1.425 . S
C1378 C1385 1.409 . S
C1379 H1371 0.930 . S
C1379 C1377 1.419 . S
C1379 C1380 1.362 . S
C1380 H1372 0.930 . S
C1380 C1379 1.362 . S
C1380 C1383 1.409 . S
C1381 H1373 0.930 . S
C1381 C1382 1.355 . S
C1381 C1383 1.415 . S
C1382 C1381 1.355 . S
C1382 C1384 1.419 . S
C1383 C1378 1.425 . S
C1383 C1380 1.409 . S
C1383 C1381 1.415 . S
C1384 H1374 0.930 . S
C1384 C1382 1.419 . S
C1384 C1385 1.362 . S
C1385 H1375 0.930 . S
C1385 C1378 1.409 . S
C1385 C1384 1.362 . S
H1386 C1392 0.930 . S
H1387 C1395 0.930 . S
H1388 C1396 0.930 . S
H1389 C1397 0.930 . S
H1390 C1400 0.930 . S
H1391 C1401 0.930 . S
C1392 H1386 0.930 . S
C1392 C1393 1.355 1_455 S
C1392 C1394 1.415 . S
C1393 C1392 1.355 1_655 S
C1393 C1395 1.419 . S
C1394 C1392 1.415 . S
C1394 C1399 1.425 1_455 S
C1394 C1401 1.409 . S
C1395 H1387 0.930 . S
C1395 C1393 1.419 . S
C1395 C1396 1.362 . S
C1396 H1388 0.930 . S
C1396 C1395 1.362 . S
C1396 C1399 1.409 . S
C1397 H1389 0.930 . S
C1397 C1398 1.355 . S
C1397 C1399 1.415 . S
C1398 C1397 1.355 . S
C1398 C1400 1.419 1_655 S
C1399 C1394 1.425 1_655 S
C1399 C1396 1.409 . S
C1399 C1397 1.415 . S
C1400 H1390 0.930 . S
C1400 C1398 1.419 1_455 S
C1400 C1401 1.362 . S
C1401 H1391 0.930 . S
C1401 C1394 1.409 . S
C1401 C1400 1.362 . S
H1402 C1408 0.930 . S
H1403 C1411 0.930 . S
H1404 C1412 0.930 . S
H1405 C1413 0.930 . S
H1406 C1416 0.930 . S
H1407 C1417 0.930 . S
C1408 H1402 0.930 . S
C1408 C1409 1.355 . S
C1408 C1410 1.415 . S
C1409 C1408 1.355 . S
C1409 C1411 1.419 . S
C1410 C1408 1.415 . S
C1410 C1415 1.425 . S
C1410 C1417 1.409 . S
C1411 H1403 0.930 . S
C1411 C1409 1.419 . S
C1411 C1412 1.362 . S
C1412 H1404 0.930 . S
C1412 C1411 1.362 . S
C1412 C1415 1.409 . S
C1413 H1405 0.930 . S
C1413 C1414 1.355 . S
C1413 C1415 1.415 . S
C1414 C1413 1.355 . S
C1414 C1416 1.419 . S
C1415 C1410 1.425 . S
C1415 C1412 1.409 . S
C1415 C1413 1.415 . S
C1416 H1406 0.930 . S
C1416 C1414 1.419 . S
C1416 C1417 1.362 . S
C1417 H1407 0.930 . S
C1417 C1410 1.409 . S
C1417 C1416 1.362 . S
H1418 C1424 0.930 . S
H1419 C1427 0.930 . S
H1420 C1428 0.930 . S
H1421 C1429 0.930 . S
H1422 C1432 0.930 . S
H1423 C1433 0.930 . S
C1424 H1418 0.930 . S
C1424 C1425 1.355 . S
C1424 C1426 1.415 . S
C1425 C1424 1.355 . S
C1425 C1427 1.419 . S
C1426 C1424 1.415 . S
C1426 C1431 1.425 . S
C1426 C1433 1.409 . S
C1427 H1419 0.930 . S
C1427 C1425 1.419 . S
C1427 C1428 1.362 . S
C1428 H1420 0.930 . S
C1428 C1427 1.362 . S
C1428 C1431 1.409 . S
C1429 H1421 0.930 . S
C1429 C1430 1.355 . S
C1429 C1431 1.415 . S
C1430 C1429 1.355 . S
C1430 C1432 1.419 . S
C1431 C1426 1.425 . S
C1431 C1428 1.409 . S
C1431 C1429 1.415 . S
C1432 H1422 0.930 . S
C1432 C1430 1.419 . S
C1432 C1433 1.362 . S
C1433 H1423 0.930 . S
C1433 C1426 1.409 . S
C1433 C1432 1.362 . S
H1434 C1440 0.930 . S
H1435 C1443 0.930 . S
H1436 C1444 0.930 . S
H1437 C1445 0.930 . S
H1438 C1448 0.930 . S
H1439 C1449 0.930 . S
C1440 H1434 0.930 . S
C1440 C1441 1.355 . S
C1440 C1442 1.415 . S
C1441 C1440 1.355 . S
C1441 C1443 1.419 . S
C1442 C1440 1.415 . S
C1442 C1447 1.425 . S
C1442 C1449 1.409 . S
C1443 H1435 0.930 . S
C1443 C1441 1.419 . S
C1443 C1444 1.362 . S
C1444 H1436 0.930 . S
C1444 C1443 1.362 . S
C1444 C1447 1.409 . S
C1445 H1437 0.930 . S
C1445 C1446 1.355 . S
C1445 C1447 1.415 . S
C1446 C1445 1.355 . S
C1446 C1448 1.419 . S
C1447 C1442 1.425 . S
C1447 C1444 1.409 . S
C1447 C1445 1.415 . S
C1448 H1438 0.930 . S
C1448 C1446 1.419 . S
C1448 C1449 1.362 . S
C1449 H1439 0.930 . S
C1449 C1442 1.409 . S
C1449 C1448 1.362 . S
H1450 C1456 0.930 . S
H1451 C1459 0.930 . S
H1452 C1460 0.930 . S
H1453 C1461 0.930 . S
H1454 C1464 0.930 . S
H1455 C1465 0.930 . S
C1456 H1450 0.930 . S
C1456 C1457 1.355 . S
C1456 C1458 1.415 . S
C1457 C1456 1.355 . S
C1457 C1459 1.419 . S
C1458 C1456 1.415 . S
C1458 C1463 1.425 . S
C1458 C1465 1.409 . S
C1459 H1451 0.930 . S
C1459 C1457 1.419 . S
C1459 C1460 1.362 . S
C1460 H1452 0.930 . S
C1460 C1459 1.362 . S
C1460 C1463 1.409 . S
C1461 H1453 0.930 . S
C1461 C1462 1.355 . S
C1461 C1463 1.415 . S
C1462 C1461 1.355 . S
C1462 C1464 1.419 . S
C1463 C1458 1.425 . S
C1463 C1460 1.409 . S
C1463 C1461 1.415 . S
C1464 H1454 0.930 . S
C1464 C1462 1.419 . S
C1464 C1465 1.362 . S
C1465 H1455 0.930 . S
C1465 C1458 1.409 . S
C1465 C1464 1.362 . S
H1466 C1472 0.930 . S
H1467 C1475 0.930 . S
H1468 C1476 0.930 . S
H1469 C1477 0.930 . S
H1470 C1480 0.930 . S
H1471 C1481 0.930 . S
C1472 H1466 0.930 . S
C1472 C1473 1.355 . S
C1472 C1474 1.415 . S
C1473 C1472 1.355 . S
C1473 C1475 1.419 . S
C1474 C1472 1.415 . S
C1474 C1479 1.425 . S
C1474 C1481 1.409 . S
C1475 H1467 0.930 . S
C1475 C1473 1.419 . S
C1475 C1476 1.362 . S
C1476 H1468 0.930 . S
C1476 C1475 1.362 . S
C1476 C1479 1.409 . S
C1477 H1469 0.930 . S
C1477 C1478 1.355 . S
C1477 C1479 1.415 . S
C1478 C1477 1.355 . S
C1478 C1480 1.419 . S
C1479 C1474 1.425 . S
C1479 C1476 1.409 . S
C1479 C1477 1.415 . S
C1480 H1470 0.930 . S
C1480 C1478 1.419 . S
C1480 C1481 1.362 . S
C1481 H1471 0.930 . S
C1481 C1474 1.409 . S
C1481 C1480 1.362 . S
H1482 C1488 0.930 . S
H1483 C1491 0.930 . S
H1484 C1492 0.930 . S
H1485 C1493 0.930 . S
H1486 C1496 0.930 . S
H1487 C1497 0.930 . S
C1488 H1482 0.930 . S
C1488 C1489 1.355 . S
C1488 C1490 1.415 . S
C1489 C1488 1.355 . S
C1489 C1491 1.419 . S
C1490 C1488 1.415 . S
C1490 C1495 1.425 . S
C1490 C1497 1.409 . S
C1491 H1483 0.930 . S
C1491 C1489 1.419 . S
C1491 C1492 1.362 . S
C1492 H1484 0.930 . S
C1492 C1491 1.362 . S
C1492 C1495 1.409 . S
C1493 H1485 0.930 . S
C1493 C1494 1.355 . S
C1493 C1495 1.415 . S
C1494 C1493 1.355 . S
C1494 C1496 1.419 . S
C1495 C1490 1.425 . S
C1495 C1492 1.409 . S
C1495 C1493 1.415 . S
C1496 H1486 0.930 . S
C1496 C1494 1.419 . S
C1496 C1497 1.362 . S
C1497 H1487 0.930 . S
C1497 C1490 1.409 . S
C1497 C1496 1.362 . S
H1498 C1504 0.930 . S
H1499 C1507 0.930 . S
H1500 C1508 0.930 . S
H1501 C1509 0.930 . S
H1502 C1512 0.930 . S
H1503 C1513 0.930 . S
C1504 H1498 0.930 . S
C1504 C1505 1.355 . S
C1504 C1506 1.415 . S
C1505 C1504 1.355 . S
C1505 C1507 1.419 . S
C1506 C1504 1.415 . S
C1506 C1511 1.425 . S
C1506 C1513 1.409 . S
C1507 H1499 0.930 . S
C1507 C1505 1.419 . S
C1507 C1508 1.362 . S
C1508 H1500 0.930 . S
C1508 C1507 1.362 . S
C1508 C1511 1.409 . S
C1509 H1501 0.930 . S
C1509 C1510 1.355 . S
C1509 C1511 1.415 . S
C1510 C1509 1.355 . S
C1510 C1512 1.419 . S
C1511 C1506 1.425 . S
C1511 C1508 1.409 . S
C1511 C1509 1.415 . S
C1512 H1502 0.930 . S
C1512 C1510 1.419 . S
C1512 C1513 1.362 . S
C1513 H1503 0.930 . S
C1513 C1506 1.409 . S
C1513 C1512 1.362 . S
H1514 C1520 0.930 . S
H1515 C1523 0.930 . S
H1516 C1524 0.930 . S
H1517 C1525 0.930 . S
H1518 C1528 0.930 . S
H1519 C1529 0.930 . S
C1520 H1514 0.930 . S
C1520 C1521 1.355 . S
C1520 C1522 1.415 . S
C1521 C1520 1.355 . S
C1521 C1523 1.419 . S
C1522 C1520 1.415 . S
C1522 C1527 1.425 . S
C1522 C1529 1.409 . S
C1523 H1515 0.930 . S
C1523 C1521 1.419 . S
C1523 C1524 1.362 . S
C1524 H1516 0.930 . S
C1524 C1523 1.362 . S
C1524 C1527 1.409 . S
C1525 H1517 0.930 . S
C1525 C1526 1.355 . S
C1525 C1527 1.415 . S
C1526 C1525 1.355 . S
C1526 C1528 1.419 . S
C1527 C1522 1.425 . S
C1527 C1524 1.409 . S
C1527 C1525 1.415 . S
C1528 H1518 0.930 . S
C1528 C1526 1.419 . S
C1528 C1529 1.362 . S
C1529 H1519 0.930 . S
C1529 C1522 1.409 . S
C1529 C1528 1.362 . S
H1530 C1536 0.930 . S
H1531 C1539 0.930 . S
H1532 C1540 0.930 . S
H1533 C1541 0.930 . S
H1534 C1544 0.930 . S
H1535 C1545 0.930 . S
C1536 H1530 0.930 . S
C1536 C1537 1.355 . S
C1536 C1538 1.415 . S
C1537 C1536 1.355 . S
C1537 C1539 1.419 . S
C1538 C1536 1.415 . S
C1538 C1543 1.425 . S
C1538 C1545 1.409 . S
C1539 H1531 0.930 . S
C1539 C1537 1.419 . S
C1539 C1540 1.362 . S
C1540 H1532 0.930 . S
C1540 C1539 1.362 . S
C1540 C1543 1.409 . S
C1541 H1533 0.930 . S
C1541 C1542 1.355 . S
C1541 C1543 1.415 . S
C1542 C1541 1.355 . S
C1542 C1544 1.419 . S
C1543 C1538 1.425 . S
C1543 C1540 1.409 . S
C1543 C1541 1.415 . S
C1544 H1534 0.930 . S
C1544 C1542 1.419 . S
C1544 C1545 1.362 . S
C1545 H1535 0.930 . S
C1545 C1538 1.409 . S
C1545 C1544 1.362 . S
H1546 C1552 0.930 . S
H1547 C1555 0.930 . S
H1548 C1556 0.930 . S
H1549 C1557 0.930 . S
H1550 C1560 0.930 . S
H1551 C1561 0.930 . S
C1552 H1546 0.930 . S
C1552 C1553 1.355 . S
C1552 C1554 1.415 . S
C1553 C1552 1.355 . S
C1553 C1555 1.419 . S
C1554 C1552 1.415 . S
C1554 C1559 1.425 . S
C1554 C1561 1.409 . S
C1555 H1547 0.930 . S
C1555 C1553 1.419 . S
C1555 C1556 1.362 . S
C1556 H1548 0.930 . S
C1556 C1555 1.362 . S
C1556 C1559 1.409 . S
C1557 H1549 0.930 . S
C1557 C1558 1.355 . S
C1557 C1559 1.415 . S
C1558 C1557 1.355 . S
C1558 C1560 1.419 . S
C1559 C1554 1.425 . S
C1559 C1556 1.409 . S
C1559 C1557 1.415 . S
C1560 H1550 0.930 . S
C1560 C1558 1.419 . S
C1560 C1561 1.362 . S
C1561 H1551 0.930 . S
C1561 C1554 1.409 . S
C1561 C1560 1.362 . S
H1562 C1568 0.930 . S
H1563 C1571 0.930 . S
H1564 C1572 0.930 . S
H1565 C1573 0.930 . S
H1566 C1576 0.930 . S
H1567 C1577 0.930 . S
C1568 H1562 0.930 . S
C1568 C1569 1.355 . S
C1568 C1570 1.415 . S
C1569 C1568 1.355 . S
C1569 C1571 1.419 . S
C1570 C1568 1.415 . S
C1570 C1575 1.425 . S
C1570 C1577 1.409 . S
C1571 H1563 0.930 . S
C1571 C1569 1.419 . S
C1571 C1572 1.362 . S
C1572 H1564 0.930 . S
C1572 C1571 1.362 . S
C1572 C1575 1.409 . S
C1573 H1565 0.930 . S
C1573 C1574 1.355 . S
C1573 C1575 1.415 . S
C1574 C1573 1.355 . S
C1574 C1576 1.419 . S
C1575 C1570 1.425 . S
C1575 C1572 1.409 . S
C1575 C1573 1.415 . S
C1576 H1566 0.930 . S
C1576 C1574 1.419 . S
C1576 C1577 1.362 . S
C1577 H1567 0.930 . S
C1577 C1570 1.409 . S
C1577 C1576 1.362 . S
H1578 C1584 0.930 . S
H1579 C1587 0.930 . S
H1580 C1588 0.930 . S
H1581 C1589 0.930 . S
H1582 C1592 0.930 . S
H1583 C1593 0.930 . S
C1584 H1578 0.930 . S
C1584 C1585 1.355 . S
C1584 C1586 1.415 . S
C1585 C1584 1.355 . S
C1585 C1587 1.419 . S
C1586 C1584 1.415 . S
C1586 C1591 1.425 . S
C1586 C1593 1.409 . S
C1587 H1579 0.930 . S
C1587 C1585 1.419 . S
C1587 C1588 1.362 . S
C1588 H1580 0.930 . S
C1588 C1587 1.362 . S
C1588 C1591 1.409 . S
C1589 H1581 0.930 . S
C1589 C1590 1.355 . S
C1589 C1591 1.415 . S
C1590 C1589 1.355 . S
C1590 C1592 1.419 . S
C1591 C1586 1.425 . S
C1591 C1588 1.409 . S
C1591 C1589 1.415 . S
C1592 H1582 0.930 . S
C1592 C1590 1.419 . S
C1592 C1593 1.362 . S
C1593 H1583 0.930 . S
C1593 C1586 1.409 . S
C1593 C1592 1.362 . S
H1594 C1600 0.930 . S
H1595 C1603 0.930 . S
H1596 C1604 0.930 . S
H1597 C1605 0.930 . S
H1598 C1608 0.930 . S
H1599 C1609 0.930 . S
C1600 H1594 0.930 . S
C1600 C1601 1.355 . S
C1600 C1602 1.415 . S
C1601 C1600 1.355 . S
C1601 C1603 1.419 . S
C1602 C1600 1.415 . S
C1602 C1607 1.425 . S
C1602 C1609 1.409 . S
C1603 H1595 0.930 . S
C1603 C1601 1.419 . S
C1603 C1604 1.362 . S
C1604 H1596 0.930 . S
C1604 C1603 1.362 . S
C1604 C1607 1.409 . S
C1605 H1597 0.930 . S
C1605 C1606 1.355 . S
C1605 C1607 1.415 . S
C1606 C1605 1.355 . S
C1606 C1608 1.419 . S
C1607 C1602 1.425 . S
C1607 C1604 1.409 . S
C1607 C1605 1.415 . S
C1608 H1598 0.930 . S
C1608 C1606 1.419 . S
C1608 C1609 1.362 . S
C1609 H1599 0.930 . S
C1609 C1602 1.409 . S
C1609 C1608 1.362 . S
H1610 C1616 0.930 . S
H1611 C1619 0.930 . S
H1612 C1620 0.930 . S
H1613 C1621 0.930 . S
H1614 C1624 0.930 . S
H1615 C1625 0.930 . S
C1616 H1610 0.930 . S
C1616 C1617 1.355 . S
C1616 C1618 1.415 . S
C1617 C1616 1.355 . S
C1617 C1619 1.419 . S
C1618 C1616 1.415 . S
C1618 C1623 1.425 . S
C1618 C1625 1.409 . S
C1619 H1611 0.930 . S
C1619 C1617 1.419 . S
C1619 C1620 1.362 . S
C1620 H1612 0.930 . S
C1620 C1619 1.362 . S
C1620 C1623 1.409 . S
C1621 H1613 0.930 . S
C1621 C1622 1.355 . S
C1621 C1623 1.415 . S
C1622 C1621 1.355 . S
C1622 C1624 1.419 . S
C1623 C1618 1.425 . S
C1623 C1620 1.409 . S
C1623 C1621 1.415 . S
C1624 H1614 0.930 . S
C1624 C1622 1.419 . S
C1624 C1625 1.362 . S
C1625 H1615 0.930 . S
C1625 C1618 1.409 . S
C1625 C1624 1.362 . S
H1626 C1632 0.930 . S
H1627 C1635 0.930 . S
H1628 C1636 0.930 . S
H1629 C1637 0.930 . S
H1630 C1640 0.930 . S
H1631 C1641 0.930 . S
C1632 H1626 0.930 . S
C1632 C1633 1.355 . S
C1632 C1634 1.415 . S
C1633 C1632 1.355 . S
C1633 C1635 1.419 . S
C1634 C1632 1.415 . S
C1634 C1639 1.425 . S
C1634 C1641 1.409 . S
C1635 H1627 0.930 . S
C1635 C1633 1.419 . S
C1635 C1636 1.362 . S
C1636 H1628 0.930 . S
C1636 C1635 1.362 . S
C1636 C1639 1.409 . S
C1637 H1629 0.930 . S
C1637 C1638 1.355 . S
C1637 C1639 1.415 . S
C1638 C1637 1.355 . S
C1638 C1640 1.419 . S
C1639 C1634 1.425 . S
C1639 C1636 1.409 . S
C1639 C1637 1.415 . S
C1640 H1630 0.930 . S
C1640 C1638 1.419 . S
C1640 C1641 1.362 . S
C1641 H1631 0.930 . S
C1641 C1634 1.409 . S
C1641 C1640 1.362 . S
H1642 C1648 0.930 . S
H1643 C1651 0.930 . S
H1644 C1652 0.930 . S
H1645 C1653 0.930 . S
H1646 C1656 0.930 . S
H1647 C1657 0.930 . S
C1648 H1642 0.930 . S
C1648 C1649 1.355 . S
C1648 C1650 1.415 . S
C1649 C1648 1.355 . S
C1649 C1651 1.419 . S
C1650 C1648 1.415 . S
C1650 C1655 1.425 . S
C1650 C1657 1.409 . S
C1651 H1643 0.930 . S
C1651 C1649 1.419 . S
C1651 C1652 1.362 . S
C1652 H1644 0.930 . S
C1652 C1651 1.362 . S
C1652 C1655 1.409 . S
C1653 H1645 0.930 . S
C1653 C1654 1.355 . S
C1653 C1655 1.415 . S
C1654 C1653 1.355 . S
C1654 C1656 1.419 . S
C1655 C1650 1.425 . S
C1655 C1652 1.409 . S
C1655 C1653 1.415 . S
C1656 H1646 0.930 . S
C1656 C1654 1.419 . S
C1656 C1657 1.362 . S
C1657 H1647 0.930 . S
C1657 C1650 1.409 . S
C1657 C1656 1.362 . S
H1658 C1664 0.930 . S
H1659 C1667 0.930 . S
H1660 C1668 0.930 . S
H1661 C1669 0.930 . S
H1662 C1672 0.930 . S
H1663 C1673 0.930 . S
C1664 H1658 0.930 . S
C1664 C1665 1.355 . S
C1664 C1666 1.415 . S
C1665 C1664 1.355 . S
C1665 C1667 1.419 . S
C1666 C1664 1.415 . S
C1666 C1671 1.425 . S
C1666 C1673 1.409 . S
C1667 H1659 0.930 . S
C1667 C1665 1.419 . S
C1667 C1668 1.362 . S
C1668 H1660 0.930 . S
C1668 C1667 1.362 . S
C1668 C1671 1.409 . S
C1669 H1661 0.930 . S
C1669 C1670 1.355 . S
C1669 C1671 1.415 . S
C1670 C1669 1.355 . S
C1670 C1672 1.419 . S
C1671 C1666 1.425 . S
C1671 C1668 1.409 . S
C1671 C1669 1.415 . S
C1672 H1662 0.930 . S
C1672 C1670 1.419 . S
C1672 C1673 1.362 . S
C1673 H1663 0.930 . S
C1673 C1666 1.409 . S
C1673 C1672 1.362 . S
H1674 C1680 0.930 . S
H1675 C1683 0.930 . S
H1676 C1684 0.930 . S
H1677 C1685 0.930 . S
H1678 C1688 0.930 . S
H1679 C1689 0.930 . S
C1680 H1674 0.930 . S
C1680 C1681 1.355 . S
C1680 C1682 1.415 . S
C1681 C1680 1.355 . S
C1681 C1683 1.419 . S
C1682 C1680 1.415 . S
C1682 C1687 1.425 . S
C1682 C1689 1.409 . S
C1683 H1675 0.930 . S
C1683 C1681 1.419 . S
C1683 C1684 1.362 . S
C1684 H1676 0.930 . S
C1684 C1683 1.362 . S
C1684 C1687 1.409 . S
C1685 H1677 0.930 . S
C1685 C1686 1.355 . S
C1685 C1687 1.415 . S
C1686 C1685 1.355 . S
C1686 C1688 1.419 . S
C1687 C1682 1.425 . S
C1687 C1684 1.409 . S
C1687 C1685 1.415 . S
C1688 H1678 0.930 . S
C1688 C1686 1.419 . S
C1688 C1689 1.362 . S
C1689 H1679 0.930 . S
C1689 C1682 1.409 . S
C1689 C1688 1.362 . S
H1690 C1696 0.930 . S
H1691 C1699 0.930 . S
H1692 C1700 0.930 . S
H1693 C1701 0.930 . S
H1694 C1704 0.930 . S
H1695 C1705 0.930 . S
C1696 H1690 0.930 . S
C1696 C1697 1.355 . S
C1696 C1698 1.415 . S
C1697 C1696 1.355 . S
C1697 C1699 1.419 . S
C1698 C1696 1.415 . S
C1698 C1703 1.425 . S
C1698 C1705 1.409 . S
C1699 H1691 0.930 . S
C1699 C1697 1.419 . S
C1699 C1700 1.362 . S
C1700 H1692 0.930 . S
C1700 C1699 1.362 . S
C1700 C1703 1.409 . S
C1701 H1693 0.930 . S
C1701 C1702 1.355 . S
C1701 C1703 1.415 . S
C1702 C1701 1.355 . S
C1702 C1704 1.419 . S
C1703 C1698 1.425 . S
C1703 C1700 1.409 . S
C1703 C1701 1.415 . S
C1704 H1694 0.930 . S
C1704 C1702 1.419 . S
C1704 C1705 1.362 . S
C1705 H1695 0.930 . S
C1705 C1698 1.409 . S
C1705 C1704 1.362 . S
H1706 C1712 0.930 . S
H1707 C1715 0.930 . S
H1708 C1716 0.930 . S
H1709 C1717 0.930 . S
H1710 C1720 0.930 . S
H1711 C1721 0.930 . S
C1712 H1706 0.930 . S
C1712 C1713 1.355 . S
C1712 C1714 1.415 . S
C1713 C1712 1.355 . S
C1713 C1715 1.419 . S
C1714 C1712 1.415 . S
C1714 C1719 1.425 . S
C1714 C1721 1.409 . S
C1715 H1707 0.930 . S
C1715 C1713 1.419 . S
C1715 C1716 1.362 . S
C1716 H1708 0.930 . S
C1716 C1715 1.362 . S
C1716 C1719 1.409 . S
C1717 H1709 0.930 . S
C1717 C1718 1.355 . S
C1717 C1719 1.415 . S
C1718 C1717 1.355 . S
C1718 C1720 1.419 . S
C1719 C1714 1.425 . S
C1719 C1716 1.409 . S
C1719 C1717 1.415 . S
C1720 H1710 0.930 . S
C1720 C1718 1.419 . S
C1720 C1721 1.362 . S
C1721 H1711 0.930 . S
C1721 C1714 1.409 . S
C1721 C1720 1.362 . S
H1722 C1728 0.930 . S
H1723 C1731 0.930 . S
H1724 C1732 0.930 . S
H1725 C1733 0.930 . S
H1726 C1736 0.930 . S
H1727 C1737 0.930 . S
C1728 H1722 0.930 . S
C1728 C1729 1.355 . S
C1728 C1730 1.415 . S
C1729 C1728 1.355 . S
C1729 C1731 1.419 . S
C1730 C1728 1.415 . S
C1730 C1735 1.425 . S
C1730 C1737 1.409 . S
C1731 H1723 0.930 . S
C1731 C1729 1.419 . S
C1731 C1732 1.362 . S
C1732 H1724 0.930 . S
C1732 C1731 1.362 . S
C1732 C1735 1.409 . S
C1733 H1725 0.930 . S
C1733 C1734 1.355 . S
C1733 C1735 1.415 . S
C1734 C1733 1.355 . S
C1734 C1736 1.419 . S
C1735 C1730 1.425 . S
C1735 C1732 1.409 . S
C1735 C1733 1.415 . S
C1736 H1726 0.930 . S
C1736 C1734 1.419 . S
C1736 C1737 1.362 . S
C1737 H1727 0.930 . S
C1737 C1730 1.409 . S
C1737 C1736 1.362 . S
H1738 C1744 0.930 . S
H1739 C1747 0.930 . S
H1740 C1748 0.930 . S
H1741 C1749 0.930 . S
H1742 C1752 0.930 . S
H1743 C1753 0.930 . S
C1744 H1738 0.930 . S
C1744 C1745 1.355 . S
C1744 C1746 1.415 . S
C1745 C1744 1.355 . S
C1745 C1747 1.419 . S
C1746 C1744 1.415 . S
C1746 C1751 1.425 . S
C1746 C1753 1.409 . S
C1747 H1739 0.930 . S
C1747 C1745 1.419 . S
C1747 C1748 1.362 . S
C1748 H1740 0.930 . S
C1748 C1747 1.362 . S
C1748 C1751 1.409 . S
C1749 H1741 0.930 . S
C1749 C1750 1.355 . S
C1749 C1751 1.415 . S
C1750 C1749 1.355 . S
C1750 C1752 1.419 . S
C1751 C1746 1.425 . S
C1751 C1748 1.409 . S
C1751 C1749 1.415 . S
C1752 H1742 0.930 . S
C1752 C1750 1.419 . S
C1752 C1753 1.362 . S
C1753 H1743 0.930 . S
C1753 C1746 1.409 . S
C1753 C1752 1.362 . S
H1754 C1760 0.930 . S
H1755 C1763 0.930 . S
H1756 C1764 0.930 . S
H1757 C1765 0.930 . S
H1758 C1768 0.930 . S
H1759 C1769 0.930 . S
C1760 H1754 0.930 . S
C1760 C1761 1.355 . S
C1760 C1762 1.415 . S
C1761 C1760 1.355 . S
C1761 C1763 1.419 . S
C1762 C1760 1.415 . S
C1762 C1767 1.425 . S
C1762 C1769 1.409 . S
C1763 H1755 0.930 . S
C1763 C1761 1.419 . S
C1763 C1764 1.362 . S
C1764 H1756 0.930 . S
C1764 C1763 1.362 . S
C1764 C1767 1.409 . S
C1765 H1757 0.930 . S
C1765 C1766 1.355 . S
C1765 C1767 1.415 . S
C1766 C1765 1.355 . S
C1766 C1768 1.419 . S
C1767 C1762 1.425 . S
C1767 C1764 1.409 . S
C1767 C1765 1.415 . S
C1768 H1758 0.930 . S
C1768 C1766 1.419 . S
C1768 C1769 1.362 . S
C1769 H1759 0.930 . S
C1769 C1762 1.409 . S
C1769 C1768 1.362 . S
H1770 C1776 0.930 . S
H1771 C1779 0.930 . S
H1772 C1780 0.930 . S
H1773 C1781 0.930 . S
H1774 C1784 0.930 . S
H1775 C1785 0.930 . S
C1776 H1770 0.930 . S
C1776 C1777 1.355 . S
C1776 C1778 1.415 . S
C1777 C1776 1.355 . S
C1777 C1779 1.419 . S
C1778 C1776 1.415 . S
C1778 C1783 1.425 . S
C1778 C1785 1.409 . S
C1779 H1771 0.930 . S
C1779 C1777 1.419 . S
C1779 C1780 1.362 . S
C1780 H1772 0.930 . S
C1780 C1779 1.362 . S
C1780 C1783 1.409 . S
C1781 H1773 0.930 . S
C1781 C1782 1.355 . S
C1781 C1783 1.415 . S
C1782 C1781 1.355 . S
C1782 C1784 1.419 . S
C1783 C1778 1.425 . S
C1783 C1780 1.409 . S
C1783 C1781 1.415 . S
C1784 H1774 0.930 . S
C1784 C1782 1.419 . S
C1784 C1785 1.362 . S
C1785 H1775 0.930 . S
C1785 C1778 1.409 . S
C1785 C1784 1.362 . S
H1786 C1792 0.930 . S
H1787 C1795 0.930 . S
H1788 C1796 0.930 . S
H1789 C1797 0.930 . S
H1790 C1800 0.930 . S
H1791 C1801 0.930 . S
C1792 H1786 0.930 . S
C1792 C1793 1.355 . S
C1792 C1794 1.415 . S
C1793 C1792 1.355 . S
C1793 C1795 1.419 . S
C1794 C1792 1.415 . S
C1794 C1799 1.425 . S
C1794 C1801 1.409 . S
C1795 H1787 0.930 . S
C1795 C1793 1.419 . S
C1795 C1796 1.362 . S
C1796 H1788 0.930 . S
C1796 C1795 1.362 . S
C1796 C1799 1.409 . S
C1797 H1789 0.930 . S
C1797 C1798 1.355 . S
C1797 C1799 1.415 . S
C1798 C1797 1.355 . S
C1798 C1800 1.419 . S
C1799 C1794 1.425 . S
C1799 C1796 1.409 . S
C1799 C1797 1.415 . S
C1800 H1790 0.930 . S
C1800 C1798 1.419 . S
C1800 C1801 1.362 . S
C1801 H1791 0.930 . S
C1801 C1794 1.409 . S
C1801 C1800 1.362 . S
H1802 C1808 0.930 . S
H1803 C1811 0.930 . S
H1804 C1812 0.930 . S
H1805 C1813 0.930 . S
H1806 C1816 0.930 . S
H1807 C1817 0.930 . S
C1808 H1802 0.930 . S
C1808 C1809 1.355 . S
C1808 C1810 1.415 . S
C1809 C1808 1.355 . S
C1809 C1811 1.419 . S
C1810 C1808 1.415 . S
C1810 C1815 1.425 . S
C1810 C1817 1.409 . S
C1811 H1803 0.930 . S
C1811 C1809 1.419 . S
C1811 C1812 1.362 . S
C1812 H1804 0.930 . S
C1812 C1811 1.362 . S
C1812 C1815 1.409 . S
C1813 H1805 0.930 . S
C1813 C1814 1.355 . S
C1813 C1815 1.415 . S
C1814 C1813 1.355 . S
C1814 C1816 1.419 . S
C1815 C1810 1.425 . S
C1815 C1812 1.409 . S
C1815 C1813 1.415 . S
C1816 H1806 0.930 . S
C1816 C1814 1.419 . S
C1816 C1817 1.362 . S
C1817 H1807 0.930 . S
C1817 C1810 1.409 . S
C1817 C1816 1.362 . S
C673 C53 1.529 . S
C678 C418 1.251 . S
C689 N2 1.278 . S
C694 C434 1.246 . S
C710 C417 1.333 1_655 S
C705 N25 1.252 . S
C726 C442 1.316 . S
C721 N48 1.292 . S
C737 C7 1.555 . S
C742 C451 1.361 1_565 S
C758 C454 1.288 . S
C753 C30 1.505 . S
C769 C122 1.523 . S
C774 C460 1.258 . S
C790 C476 1.298 . S
C785 N71 1.285 . S
C806 C459 1.204 . S
C801 N94 1.319 . S
C817 N117 1.350 . S
C822 C484 1.170 . S
C838 C493 1.401 . S
C833 C76 1.588 . S
C854 C496 1.239 . S
C849 C99 1.481 1_655 S
C870 C505 1.337 . S
C865 C191 1.498 . S
C886 C517 1.179 . S
C881 N140 1.387 . S
C902 C514 1.244 . S
C897 N163 1.261 . S
C913 N186 1.273 . S
C918 C523 1.219 . S
C934 C522 1.397 . S
C929 C145 1.549 . S
C945 C168 1.498 . S
C950 C539 1.332 . S
C966 C544 1.380 . S
C961 C260 1.502 . S
C982 C560 1.174 . S
C977 N209 1.385 . S
C993 N232 1.261 . S
C998 C543 1.339 . S
C1014 C568 1.200 . S
C1009 N255 1.289 . S
C1030 C577 1.339 . S
C1025 C214 1.598 . S
C1041 C237 1.442 . S
C1046 C580 1.313 . S
C1057 C329 1.525 . S
C1062 C589 1.380 . S
C1078 C601 1.158 . S
C1073 N278 1.357 . S
C1094 C598 1.269 . S
C1089 N301 1.365 . S
C1105 N324 1.267 . S
C1110 C607 1.309 . S
C1126 C606 1.337 . S
C1121 C283 1.598 . S
C1137 C306 1.476 . S
C1142 C623 1.368 . S
C1158 C628 1.268 . S
C1153 C398 1.517 . S
C1174 C644 1.201 . S
C1169 N347 1.392 . S
C1185 N370 1.303 . S
C1190 C627 1.339 . S
C1206 C649 1.237 . S
C1201 N393 1.263 . S
C1222 C648 1.334 . S
C1217 C352 1.598 . S
C1238 C665 1.249 . S
C1233 C375 1.468 . S
C1254 C430 1.824 . S
C1249 N265 1.935 . S
C1265 C223 1.780 1_455 S
C1270 C433 1.733 . S
C1286 C421 1.648 . S
C1281 C246 1.665 . S
C1297 C407 1.700 . S
C1302 C438 1.692 . S
C1313 N357 1.873 . S
C1318 C439 1.698 . S
C1334 C455 1.734 1_565 S
C1329 N380 1.822 . S
C1350 C472 1.818 . S
C1345 N334 1.933 . S
C1366 C475 1.692 . S
C1361 C292 1.737 . S
C1377 C315 1.639 . S
C1382 C463 1.680 . S
C1398 C480 1.615 1_655 S
C1393 C200 1.691 . S
C1409 N150 1.825 . S
C1414 C481 1.782 . S
C1425 N173 1.831 . S
C1430 C497 1.733 . S
C1441 N403 1.890 . S
C1446 C501 1.850 . S
C1457 C361 1.767 . S
C1462 C518 1.746 . S
C1478 C502 1.697 . S
C1473 C384 1.636 . S
C1494 C535 1.608 . S
C1489 C131 1.712 . S
C1510 C526 1.710 . S
C1505 N81 1.852 . S
C1521 N104 1.782 . S
C1526 C538 1.759 . S
C1542 C556 1.880 . S
C1537 N58 1.878 . S
C1558 C559 1.756 . S
C1553 C16 1.750 . S
C1569 C39 1.671 . S
C1574 C547 1.644 . S
C1590 C564 1.608 . S
C1585 C338 1.705 . S
C1606 C565 1.715 . S
C1601 N288 1.848 . S
C1622 C581 1.775 . S
C1617 N311 1.773 . S
C1638 C585 1.872 . S
C1633 N127 1.914 . S
C1654 C602 1.684 . S
C1649 C85 1.792 . S
C1665 C108 1.647 . S
C1670 C586 1.668 . S
C1681 C269 1.729 . S
C1686 C619 1.657 . S
C1697 N219 1.874 . S
C1702 C610 1.713 . S
C1718 C622 1.746 . S
C1713 N242 1.790 . S
C1729 N196 1.877 . S
C1734 C640 1.882 . S
C1745 C154 1.731 . S
C1750 C643 1.754 . S
C1766 C631 1.705 . S
C1761 C177 1.696 . S
C1782 C661 1.662 . S
C1777 C62 1.726 . S
C1798 C652 1.751 . S
C1793 N12 1.859 . S
C1809 N35 1.833 . S
C1814 C664 1.724 . S
