# Generated by pormake.
# Topology ocu, (6,8)-cn, num edge types: 1
# Building blocks:
#     Node 0, Type 0, BuildingBlock: KUMJIN_clean_sbu_1, # of connection points: 6
#     Node 1, Type 0, BuildingBlock: KUMJIN_clean_sbu_1, # of connection points: 6
#     Node 2, Type 0, BuildingBlock: KUMJIN_clean_sbu_1, # of connection points: 6
#     Node 3, Type 0, BuildingBlock: KUMJIN_clean_sbu_1, # of connection points: 6
#     Node 4, Type 0, BuildingBlock: KUMJIN_clean_sbu_1, # of connection points: 6
#     Node 5, Type 0, BuildingBlock: KUMJIN_clean_sbu_1, # of connection points: 6
#     Node 6, Type 0, BuildingBlock: KUMJIN_clean_sbu_1, # of connection points: 6
#     Node 7, Type 0, BuildingBlock: KUMJIN_clean_sbu_1, # of connection points: 6
#     Node 8, Type 1, BuildingBlock: TAGTUT_clean_sbu_1, # of connection points: 8
#     Node 9, Type 1, BuildingBlock: TAGTUT_clean_sbu_1, # of connection points: 8
#     Node 10, Type 1, BuildingBlock: TAGTUT_clean_sbu_1, # of connection points: 8
#     Node 11, Type 1, BuildingBlock: TAGTUT_clean_sbu_1, # of connection points: 8
#     Node 12, Type 1, BuildingBlock: TAGTUT_clean_sbu_1, # of connection points: 8
#     Node 13, Type 1, BuildingBlock: TAGTUT_clean_sbu_1, # of connection points: 8
#     Edge 14, Type (0, 1), BuildingBlock: TEMPAE_clean_linker_10, # of connection points: 2
#     Edge 15, Type (0, 1), BuildingBlock: TEMPAE_clean_linker_10, # of connection points: 2
#     Edge 16, Type (0, 1), BuildingBlock: TEMPAE_clean_linker_10, # of connection points: 2
#     Edge 17, Type (0, 1), BuildingBlock: TEMPAE_clean_linker_10, # of connection points: 2
#     Edge 18, Type (0, 1), BuildingBlock: TEMPAE_clean_linker_10, # of connection points: 2
#     Edge 19, Type (0, 1), BuildingBlock: TEMPAE_clean_linker_10, # of connection points: 2
#     Edge 20, Type (0, 1), BuildingBlock: TEMPAE_clean_linker_10, # of connection points: 2
#     Edge 21, Type (0, 1), BuildingBlock: TEMPAE_clean_linker_10, # of connection points: 2
#     Edge 22, Type (0, 1), BuildingBlock: TEMPAE_clean_linker_10, # of connection points: 2
#     Edge 23, Type (0, 1), BuildingBlock: TEMPAE_clean_linker_10, # of connection points: 2
#     Edge 24, Type (0, 1), BuildingBlock: TEMPAE_clean_linker_10, # of connection points: 2
#     Edge 25, Type (0, 1), BuildingBlock: TEMPAE_clean_linker_10, # of connection points: 2
#     Edge 26, Type (0, 1), BuildingBlock: TEMPAE_clean_linker_10, # of connection points: 2
#     Edge 27, Type (0, 1), BuildingBlock: TEMPAE_clean_linker_10, # of connection points: 2
#     Edge 28, Type (0, 1), BuildingBlock: TEMPAE_clean_linker_10, # of connection points: 2
#     Edge 29, Type (0, 1), BuildingBlock: TEMPAE_clean_linker_10, # of connection points: 2
#     Edge 30, Type (0, 1), BuildingBlock: TEMPAE_clean_linker_10, # of connection points: 2
#     Edge 31, Type (0, 1), BuildingBlock: TEMPAE_clean_linker_10, # of connection points: 2
#     Edge 32, Type (0, 1), BuildingBlock: TEMPAE_clean_linker_10, # of connection points: 2
#     Edge 33, Type (0, 1), BuildingBlock: TEMPAE_clean_linker_10, # of connection points: 2
#     Edge 34, Type (0, 1), BuildingBlock: TEMPAE_clean_linker_10, # of connection points: 2
#     Edge 35, Type (0, 1), BuildingBlock: TEMPAE_clean_linker_10, # of connection points: 2
#     Edge 36, Type (0, 1), BuildingBlock: TEMPAE_clean_linker_10, # of connection points: 2
#     Edge 37, Type (0, 1), BuildingBlock: TEMPAE_clean_linker_10, # of connection points: 2
#     Edge 38, Type (0, 1), BuildingBlock: TEMPAE_clean_linker_10, # of connection points: 2
#     Edge 39, Type (0, 1), BuildingBlock: TEMPAE_clean_linker_10, # of connection points: 2
#     Edge 40, Type (0, 1), BuildingBlock: TEMPAE_clean_linker_10, # of connection points: 2
#     Edge 41, Type (0, 1), BuildingBlock: TEMPAE_clean_linker_10, # of connection points: 2
#     Edge 42, Type (0, 1), BuildingBlock: TEMPAE_clean_linker_10, # of connection points: 2
#     Edge 43, Type (0, 1), BuildingBlock: TEMPAE_clean_linker_10, # of connection points: 2
#     Edge 44, Type (0, 1), BuildingBlock: TEMPAE_clean_linker_10, # of connection points: 2
#     Edge 45, Type (0, 1), BuildingBlock: TEMPAE_clean_linker_10, # of connection points: 2
#     Edge 46, Type (0, 1), BuildingBlock: TEMPAE_clean_linker_10, # of connection points: 2
#     Edge 47, Type (0, 1), BuildingBlock: TEMPAE_clean_linker_10, # of connection points: 2
#     Edge 48, Type (0, 1), BuildingBlock: TEMPAE_clean_linker_10, # of connection points: 2
#     Edge 49, Type (0, 1), BuildingBlock: TEMPAE_clean_linker_10, # of connection points: 2
#     Edge 50, Type (0, 1), BuildingBlock: TEMPAE_clean_linker_10, # of connection points: 2
#     Edge 51, Type (0, 1), BuildingBlock: TEMPAE_clean_linker_10, # of connection points: 2
#     Edge 52, Type (0, 1), BuildingBlock: TEMPAE_clean_linker_10, # of connection points: 2
#     Edge 53, Type (0, 1), BuildingBlock: TEMPAE_clean_linker_10, # of connection points: 2
#     Edge 54, Type (0, 1), BuildingBlock: TEMPAE_clean_linker_10, # of connection points: 2
#     Edge 55, Type (0, 1), BuildingBlock: TEMPAE_clean_linker_10, # of connection points: 2
#     Edge 56, Type (0, 1), BuildingBlock: TEMPAE_clean_linker_10, # of connection points: 2
#     Edge 57, Type (0, 1), BuildingBlock: TEMPAE_clean_linker_10, # of connection points: 2
#     Edge 58, Type (0, 1), BuildingBlock: TEMPAE_clean_linker_10, # of connection points: 2
#     Edge 59, Type (0, 1), BuildingBlock: TEMPAE_clean_linker_10, # of connection points: 2
#     Edge 60, Type (0, 1), BuildingBlock: TEMPAE_clean_linker_10, # of connection points: 2
#     Edge 61, Type (0, 1), BuildingBlock: TEMPAE_clean_linker_10, # of connection points: 2
# Relax obj value: 0.068
# Max RMSD: 0.173
# Mean RMSD: 0.095
data_MOF--net-ocu--node1-KUMJIN_clean_sbu_1--node2-TAGTUT_clean_sbu_1--edge1-TEMPAE_clean_linker_10
_symmetry_space_group_name_H-M    P1
_symmetry_Int_Tables_number       1
_symmetry_cell_setting            triclinic
loop_
_symmetry_equiv_pos_as_xyz
'x, y, z'
_cell_length_a     41.018553
_cell_length_b     39.428985
_cell_length_c     43.293316
_cell_angle_alpha  100.2316
_cell_angle_beta   82.132839
_cell_angle_gamma 113.7518
loop_
_atom_site_label
_atom_site_type_symbol
_atom_site_fract_x
_atom_site_fract_y
_atom_site_fract_z
_atom_type_partial_charge
Eu0 Eu 0.23399 0.24451 0.22683 0.0
C1 C 0.32132 0.32907 0.34674 0.0
N2 N 0.32726 0.3257 0.31486 0.0
C3 C 0.35973 0.39194 0.31738 0.0
C4 C 0.33365 0.36452 0.36514 0.0
C5 C 0.34711 0.35625 0.3001 0.0
C6 C 0.35281 0.39613 0.35002 0.0
C7 C 0.29497 0.29981 0.39392 0.0
C8 C 0.30191 0.297 0.36094 0.0
C9 C 0.30708 0.33511 0.41226 0.0
C10 C 0.32638 0.36734 0.39792 0.0
Eu11 Eu 0.30741 0.26404 0.2885 0.0
N12 N 0.29038 0.26311 0.34266 0.0
C13 C 0.27672 0.26696 0.40759 0.0
C14 C 0.27401 0.23096 0.35599 0.0
C15 C 0.26671 0.2324 0.38855 0.0
H16 H 0.35361 0.3533 0.27508 0.0
H17 H 0.25425 0.20683 0.39899 0.0
H18 H 0.16721 0.16717 0.25353 0.0
H19 H 0.29526 0.25848 0.10781 0.0
H20 H 0.26809 0.20416 0.34171 0.0
H21 H 0.27114 0.26791 0.43285 0.0
H22 H 0.27942 0.28043 0.16289 0.0
H23 H 0.37508 0.41615 0.30555 0.0
H24 H 0.30188 0.33777 0.43761 0.0
H25 H 0.33555 0.39435 0.41242 0.0
H26 H 0.14321 0.09929 0.23863 0.0
H27 H 0.36266 0.42385 0.36334 0.0
H28 H 0.27524 0.19065 0.0892 0.0
N29 N 0.20591 0.17841 0.21427 0.0
C30 C 0.21585 0.16395 0.1853 0.0
C31 C 0.16414 0.11707 0.22368 0.0
C32 C 0.20126 0.12512 0.17505 0.0
C33 C 0.17871 0.15577 0.23249 0.0
C34 C 0.17593 0.10158 0.19509 0.0
N35 N 0.25174 0.22555 0.17495 0.0
C36 C 0.27088 0.25081 0.15479 0.0
C37 C 0.24734 0.17446 0.13382 0.0
C38 C 0.23878 0.18821 0.16484 0.0
C39 C 0.26827 0.20013 0.11328 0.0
C40 C 0.27969 0.23848 0.1237 0.0
H41 H 0.16414 0.07162 0.1881 0.0
H42 H 0.20045 0.08137 0.13658 0.0
H43 H 0.24069 0.1246 0.10047 0.0
O44 O 0.22308 0.28491 0.20535 0.0
O45 O 0.28387 0.23201 0.20994 0.0
O46 O 0.29238 0.21116 0.25269 0.0
O47 O 0.1808 0.23201 0.21314 0.0
O48 O 0.27967 0.30157 0.23341 0.0
O49 O 0.32764 0.29019 0.24336 0.0
O50 O 0.33754 0.24372 0.31388 0.0
O51 O 0.27381 0.30077 0.30032 0.0
O52 O 0.22068 0.2693 0.27588 0.0
O53 O 0.36452 0.27888 0.27683 0.0
O54 O 0.25932 0.20872 0.2872 0.0
O55 O 0.21361 0.2218 0.27362 0.0
C56 C 0.29652 0.21201 0.22216 0.0
C57 C 0.17836 0.25799 0.16896 0.0
C58 C 0.15373 0.2795 0.13175 0.0
C59 C 0.15325 0.24847 0.10967 0.0
C60 C 0.17729 0.22704 0.14666 0.0
C61 C 0.1651 0.22256 0.1171 0.0
C62 C 0.16666 0.2842 0.16137 0.0
C63 C 0.31365 0.30703 0.22868 0.0
C64 C 0.1902 0.26248 0.20057 0.0
C65 C 0.21121 0.11113 0.1447 0.0
C66 C 0.23407 0.13574 0.1241 0.0
C67 C 0.2403 0.29531 0.297 0.0
C68 C 0.40181 0.25964 0.30319 0.0
C69 C 0.43678 0.23329 0.32546 0.0
C70 C 0.46801 0.25838 0.31126 0.0
C71 C 0.43349 0.2843 0.28931 0.0
C72 C 0.40358 0.23438 0.32168 0.0
C73 C 0.46632 0.28371 0.29346 0.0
C74 C 0.22573 0.20487 0.2901 0.0
C75 C 0.3674 0.26084 0.29812 0.0
H76 H 0.14289 0.24369 0.08689 0.0
H77 H 0.1852 0.20596 0.15221 0.0
H78 H 0.16424 0.19856 0.10009 0.0
H79 H 0.16746 0.30806 0.1786 0.0
H80 H 0.49393 0.25862 0.31418 0.0
H81 H 0.43296 0.30424 0.2753 0.0
H82 H 0.3793 0.21515 0.33248 0.0
H83 H 0.49059 0.30295 0.28276 0.0
Eu84 Eu 0.72855 0.27957 0.25415 0.0
C85 C 0.84397 0.22706 0.1895 0.0
N86 N 0.81341 0.20529 0.20453 0.0
C87 C 0.8019 0.1582 0.1594 0.0
C88 C 0.85366 0.21617 0.158 0.0
C89 C 0.79383 0.17006 0.19084 0.0
C90 C 0.83143 0.18181 0.14262 0.0
C91 C 0.90082 0.27998 0.19296 0.0
C92 C 0.86717 0.25859 0.20663 0.0
C93 C 0.90964 0.27072 0.16097 0.0
C94 C 0.88599 0.23897 0.14345 0.0
Eu95 Eu 0.79913 0.23086 0.25576 0.0
N96 N 0.8576 0.26706 0.2373 0.0
C97 C 0.92489 0.30931 0.21214 0.0
C98 C 0.88158 0.29396 0.25667 0.0
C99 C 0.91545 0.31587 0.24428 0.0
H100 H 0.77135 0.1514 0.20388 0.0
H101 H 0.93409 0.33798 0.25943 0.0
H102 H 0.72123 0.32017 0.32739 0.0
H103 H 0.62285 0.16998 0.18542 0.0
H104 H 0.87397 0.2991 0.28142 0.0
H105 H 0.95102 0.32648 0.20253 0.0
H106 H 0.67971 0.22441 0.19303 0.0
H107 H 0.78537 0.13089 0.14817 0.0
H108 H 0.93515 0.28711 0.14985 0.0
H109 H 0.89367 0.23141 0.11909 0.0
H110 H 0.6794 0.30794 0.37504 0.0
H111 H 0.83777 0.17248 0.11833 0.0
H112 H 0.58203 0.1467 0.23134 0.0
N113 N 0.68881 0.27118 0.29948 0.0
C114 C 0.65714 0.24143 0.29729 0.0
C115 C 0.67286 0.28895 0.35336 0.0
C116 C 0.63253 0.23327 0.32372 0.0
C117 C 0.69647 0.29579 0.32649 0.0
C118 C 0.64094 0.25727 0.35208 0.0
N119 N 0.67292 0.22964 0.2431 0.0
C120 C 0.66286 0.21368 0.21342 0.0
C121 C 0.61606 0.18915 0.26505 0.0
C122 C 0.64924 0.21959 0.26836 0.0
C123 C 0.60726 0.1702 0.23492 0.0
C124 C 0.63031 0.18321 0.20892 0.0
H125 H 0.62281 0.25185 0.37298 0.0
H126 H 0.5813 0.19475 0.34105 0.0
H127 H 0.56681 0.15601 0.28964 0.0
O128 O 0.69302 0.29982 0.23665 0.0
O129 O 0.72954 0.24935 0.2939 0.0
O130 O 0.7408 0.19884 0.26938 0.0
O131 O 0.74056 0.3393 0.25836 0.0
O132 O 0.73955 0.24419 0.20964 0.0
O133 O 0.74835 0.19882 0.23008 0.0
O134 O 0.80904 0.22117 0.30105 0.0
O135 O 0.81709 0.28953 0.24264 0.0
O136 O 0.77254 0.28741 0.21497 0.0
O137 O 0.82402 0.19183 0.25831 0.0
O138 O 0.8006 0.27602 0.29684 0.0
O139 O 0.77354 0.31484 0.28624 0.0
C140 C 0.72267 0.21354 0.29076 0.0
C141 C 0.72125 0.35785 0.21735 0.0
C142 C 0.70002 0.38727 0.18367 0.0
C143 C 0.73505 0.40284 0.16988 0.0
C144 C 0.75577 0.37301 0.20269 0.0
C145 C 0.76254 0.39559 0.17926 0.0
C146 C 0.69343 0.36481 0.2076 0.0
C147 C 0.73996 0.21062 0.20699 0.0
C148 C 0.71375 0.33484 0.24284 0.0
C149 C 0.60035 0.20175 0.32091 0.0
C150 C 0.59216 0.17966 0.29165 0.0
C151 C 0.80656 0.29765 0.21868 0.0
C152 C 0.80931 0.16217 0.30379 0.0
C153 C 0.82289 0.12007 0.33004 0.0
C154 C 0.78617 0.09782 0.33325 0.0
C155 C 0.77281 0.13963 0.307 0.0
C156 C 0.83423 0.15224 0.31513 0.0
C157 C 0.76139 0.10747 0.32157 0.0
C158 C 0.79377 0.30666 0.30264 0.0
C159 C 0.82206 0.19625 0.28886 0.0
H160 H 0.7414 0.42108 0.15204 0.0
H161 H 0.77758 0.3677 0.20947 0.0
H162 H 0.78925 0.40785 0.16848 0.0
H163 H 0.66667 0.35239 0.2185 0.0
H164 H 0.7767 0.07268 0.34437 0.0
H165 H 0.75328 0.14685 0.29822 0.0
H166 H 0.86242 0.1699 0.31276 0.0
H167 H 0.73326 0.08984 0.32369 0.0
Eu168 Eu 0.75108 0.71148 0.27855 0.0
C169 C 0.85248 0.823 0.18234 0.0
N170 N 0.84255 0.82951 0.2134 0.0
C171 C 0.90219 0.87304 0.22303 0.0
C172 C 0.88813 0.84092 0.17058 0.0
C173 C 0.8665 0.85492 0.23357 0.0
C174 C 0.91314 0.86579 0.19146 0.0
C175 C 0.83617 0.79206 0.12964 0.0
C176 C 0.8268 0.79862 0.16207 0.0
C177 C 0.87171 0.80969 0.11797 0.0
C178 C 0.89763 0.83388 0.13839 0.0
Eu179 Eu 0.78159 0.79746 0.22817 0.0
N180 N 0.79277 0.78104 0.17408 0.0
C181 C 0.80946 0.76802 0.10989 0.0
C182 C 0.7663 0.75967 0.15474 0.0
C183 C 0.77426 0.75213 0.12246 0.0
H184 H 0.85814 0.86213 0.2576 0.0
H185 H 0.75315 0.73469 0.10725 0.0
H186 H 0.68054 0.64208 0.24299 0.0
H187 H 0.7618 0.78086 0.39945 0.0
H188 H 0.73895 0.74968 0.16395 0.0
H189 H 0.81558 0.76225 0.08485 0.0
H190 H 0.78276 0.76934 0.34388 0.0
H191 H 0.92112 0.89296 0.23919 0.0
H192 H 0.87944 0.8048 0.09316 0.0
H193 H 0.92492 0.84733 0.12899 0.0
H194 H 0.61741 0.60541 0.25702 0.0
H195 H 0.94079 0.88008 0.18334 0.0
H196 H 0.69951 0.74413 0.41774 0.0
N197 N 0.68999 0.67479 0.2882 0.0
C198 C 0.67663 0.67989 0.31844 0.0
C199 C 0.63367 0.6265 0.27442 0.0
C200 C 0.64081 0.6585 0.32766 0.0
C201 C 0.66942 0.64792 0.26641 0.0
C202 C 0.61924 0.63191 0.30512 0.0
N203 N 0.73284 0.72793 0.33079 0.0
C204 C 0.75555 0.7538 0.35155 0.0
C205 C 0.6857 0.71187 0.372 0.0
C206 C 0.69883 0.70646 0.34044 0.0
C207 C 0.70863 0.73911 0.39332 0.0
C208 C 0.74375 0.76007 0.38306 0.0
H209 H 0.59158 0.61501 0.31129 0.0
H210 H 0.60024 0.64783 0.36649 0.0
H211 H 0.63951 0.69436 0.40526 0.0
O212 O 0.7872 0.69847 0.30346 0.0
O213 O 0.72328 0.7532 0.29322 0.0
O214 O 0.76278 0.81008 0.27885 0.0
O215 O 0.73964 0.65388 0.28337 0.0
O216 O 0.80756 0.75512 0.27715 0.0
O217 O 0.8058 0.81171 0.27498 0.0
O218 O 0.74354 0.81371 0.20918 0.0
O219 O 0.80896 0.7556 0.21159 0.0
O220 O 0.77329 0.69872 0.22908 0.0
O221 O 0.7952 0.85576 0.22414 0.0
O222 O 0.72555 0.75241 0.2289 0.0
O223 O 0.73011 0.69698 0.23065 0.0
C224 C 0.73373 0.78985 0.29463 0.0
C225 C 0.77572 0.63391 0.30992 0.0
C226 C 0.81528 0.61461 0.33315 0.0
C227 C 0.79161 0.57717 0.32689 0.0
C228 C 0.75221 0.59624 0.30423 0.0
C229 C 0.76015 0.56813 0.31272 0.0
C230 C 0.80715 0.64313 0.32497 0.0
C231 C 0.81747 0.79085 0.28714 0.0
C232 C 0.76761 0.66273 0.29888 0.0
C233 C 0.62769 0.66402 0.35904 0.0
C234 C 0.65009 0.69046 0.38115 0.0
C235 C 0.80047 0.71942 0.21158 0.0
C236 C 0.75705 0.87913 0.20418 0.0
C237 C 0.7186 0.90087 0.18197 0.0
C238 C 0.74082 0.93796 0.19224 0.0
C239 C 0.77908 0.91648 0.21392 0.0
C240 C 0.72694 0.87137 0.18771 0.0
C241 C 0.77098 0.94565 0.20793 0.0
C242 C 0.71734 0.71689 0.2187 0.0
C243 C 0.7652 0.84888 0.21247 0.0
H244 H 0.79744 0.55491 0.33321 0.0
H245 H 0.72776 0.58836 0.29287 0.0
H246 H 0.74197 0.5392 0.30809 0.0
H247 H 0.82552 0.67203 0.32964 0.0
H248 H 0.73498 0.96106 0.1878 0.0
H249 H 0.80241 0.92323 0.22659 0.0
H250 H 0.70978 0.84271 0.17992 0.0
H251 H 0.78802 0.97432 0.21566 0.0
Eu252 Eu 0.23781 0.7826 0.2462 0.0
C253 C 0.27197 0.67971 0.31611 0.0
N254 N 0.29127 0.71602 0.31178 0.0
C255 C 0.30583 0.7317 0.36559 0.0
C256 C 0.26894 0.66814 0.34577 0.0
C257 C 0.30859 0.74188 0.33573 0.0
C258 C 0.28589 0.69471 0.37066 0.0
C259 C 0.23548 0.6162 0.29491 0.0
C260 C 0.2549 0.65412 0.2909 0.0
C261 C 0.23314 0.60459 0.32423 0.0
C262 C 0.24937 0.63052 0.34968 0.0
Eu263 Eu 0.29624 0.72957 0.26016 0.0
N264 N 0.25843 0.66579 0.26231 0.0
C265 C 0.21974 0.59069 0.2691 0.0
C266 C 0.24607 0.64008 0.23653 0.0
C267 C 0.22529 0.60266 0.23975 0.0
H268 H 0.32508 0.77014 0.33164 0.0
H269 H 0.21471 0.58275 0.21931 0.0
H270 H 0.20869 0.74198 0.17484 0.0
H271 H 0.31927 0.92945 0.28679 0.0
H272 H 0.25334 0.64744 0.21311 0.0
H273 H 0.2044 0.56143 0.27134 0.0
H274 H 0.28032 0.86485 0.29308 0.0
H275 H 0.31945 0.75224 0.38459 0.0
H276 H 0.21867 0.5755 0.32752 0.0
H277 H 0.24687 0.62112 0.37225 0.0
H278 H 0.21469 0.75957 0.12172 0.0
H279 H 0.28401 0.68688 0.39379 0.0
H280 H 0.33056 0.95044 0.23451 0.0
N281 N 0.2429 0.796 0.19449 0.0
C282 C 0.26243 0.83222 0.19002 0.0
C283 C 0.22841 0.78014 0.14066 0.0
C284 C 0.26578 0.84362 0.16024 0.0
C285 C 0.22546 0.77013 0.17061 0.0
C286 C 0.24872 0.817 0.13542 0.0
N287 N 0.27565 0.84634 0.24388 0.0
C288 C 0.28786 0.87212 0.26964 0.0
C289 C 0.29934 0.89566 0.21101 0.0
C290 C 0.27952 0.85786 0.21519 0.0
C291 C 0.31495 0.92125 0.23684 0.0
C292 C 0.30887 0.90947 0.26634 0.0
H293 H 0.25081 0.8247 0.11219 0.0
H294 H 0.28865 0.89036 0.13343 0.0
H295 H 0.31706 0.93607 0.17806 0.0
O296 O 0.20501 0.80611 0.27908 0.0
O297 O 0.28406 0.7827 0.21026 0.0
O298 O 0.32662 0.78378 0.23976 0.0
O299 O 0.1896 0.78438 0.23159 0.0
O300 O 0.26502 0.8001 0.29247 0.0
O301 O 0.3173 0.79062 0.27947 0.0
O302 O 0.32971 0.70739 0.22688 0.0
O303 O 0.25033 0.72972 0.29627 0.0
O304 O 0.20744 0.72861 0.26713 0.0
O305 O 0.344 0.72679 0.27485 0.0
O306 O 0.26898 0.71217 0.21392 0.0
O307 O 0.21666 0.72149 0.22705 0.0
C308 C 0.31767 0.79296 0.2155 0.0
C309 C 0.18736 0.84284 0.25313 0.0
C310 C 0.20322 0.90856 0.27385 0.0
C311 C 0.19645 0.91545 0.24523 0.0
C312 C 0.18116 0.85005 0.22426 0.0
C313 C 0.18569 0.88622 0.22042 0.0
C314 C 0.19829 0.87235 0.27772 0.0
C315 C 0.29851 0.8079 0.29716 0.0
C316 C 0.18607 0.80595 0.25715 0.0
C317 C 0.28584 0.8811 0.15612 0.0
C318 C 0.30219 0.90708 0.18151 0.0
C319 C 0.21666 0.71934 0.29122 0.0
C320 C 0.34559 0.66851 0.25172 0.0
C321 C 0.32733 0.60305 0.22925 0.0
C322 C 0.33208 0.5941 0.25777 0.0
C323 C 0.34981 0.65928 0.28044 0.0
C324 C 0.33472 0.64017 0.22627 0.0
C325 C 0.34316 0.62223 0.28333 0.0
C326 C 0.23551 0.70442 0.20918 0.0
C327 C 0.34787 0.70611 0.24882 0.0
H328 H 0.1992 0.94319 0.24223 0.0
H329 H 0.17326 0.82794 0.2046 0.0
H330 H 0.18074 0.89157 0.1982 0.0
H331 H 0.20269 0.8672 0.30031 0.0
H332 H 0.32738 0.56559 0.26014 0.0
H333 H 0.35758 0.68046 0.30075 0.0
H334 H 0.33188 0.64691 0.20381 0.0
H335 H 0.3465 0.61528 0.30547 0.0
Eu336 Eu 0.23574 0.77922 0.75424 0.0
C337 C 0.37502 0.761 0.71037 0.0
N338 N 0.33987 0.73888 0.70746 0.0
C339 C 0.35058 0.72865 0.65147 0.0
C340 C 0.39896 0.76946 0.68352 0.0
C341 C 0.3279 0.72109 0.67878 0.0
C342 C 0.38615 0.75342 0.6538 0.0
C343 C 0.42284 0.80024 0.74405 0.0
C344 C 0.38691 0.77606 0.74033 0.0
C345 C 0.44661 0.80907 0.71731 0.0
C346 C 0.43473 0.79373 0.68714 0.0
Eu347 Eu 0.30349 0.72996 0.75496 0.0
N348 N 0.36307 0.76793 0.76577 0.0
C349 C 0.4337 0.81517 0.77455 0.0
C350 C 0.37363 0.78158 0.79557 0.0
C351 C 0.40904 0.80559 0.80041 0.0
H352 H 0.30118 0.70044 0.67684 0.0
H353 H 0.41726 0.81676 0.82407 0.0
H354 H 0.23831 0.81116 0.83193 0.0
H355 H 0.12131 0.69184 0.68598 0.0
H356 H 0.35478 0.77393 0.81566 0.0
H357 H 0.46107 0.83396 0.77838 0.0
H358 H 0.18421 0.73377 0.69388 0.0
H359 H 0.34069 0.71509 0.62868 0.0
H360 H 0.47424 0.82779 0.71974 0.0
H361 H 0.45338 0.80083 0.66675 0.0
H362 H 0.19884 0.79833 0.88031 0.0
H363 H 0.40365 0.75931 0.63259 0.0
H364 H 0.07736 0.67731 0.73181 0.0
N365 N 0.19939 0.77211 0.8018 0.0
C366 C 0.16411 0.7505 0.7991 0.0
C367 C 0.18884 0.78418 0.85767 0.0
C368 C 0.14012 0.74327 0.82604 0.0
C369 C 0.21151 0.79065 0.83026 0.0
C370 C 0.1531 0.75986 0.85562 0.0
N371 N 0.17594 0.74176 0.74375 0.0
C372 C 0.1653 0.72718 0.71407 0.0
C373 C 0.11589 0.71139 0.76579 0.0
C374 C 0.15206 0.73489 0.76926 0.0
C375 C 0.1049 0.69564 0.73545 0.0
C376 C 0.12968 0.70371 0.70949 0.0
H377 H 0.13558 0.75483 0.8769 0.0
H378 H 0.08535 0.71366 0.84311 0.0
H379 H 0.06416 0.68574 0.79044 0.0
O380 O 0.21062 0.80741 0.73171 0.0
O381 O 0.21391 0.7207 0.76867 0.0
O382 O 0.25886 0.71847 0.79339 0.0
O383 O 0.24739 0.83838 0.76874 0.0
O384 O 0.24665 0.74835 0.70751 0.0
O385 O 0.2568 0.70076 0.72338 0.0
O386 O 0.32884 0.70147 0.77704 0.0
O387 O 0.32463 0.7889 0.74147 0.0
O388 O 0.2799 0.7892 0.71552 0.0
O389 O 0.29411 0.67177 0.73835 0.0
O390 O 0.29247 0.76009 0.80209 0.0
O391 O 0.28183 0.80763 0.78649 0.0
C392 C 0.22484 0.70933 0.79045 0.0
C393 C 0.22205 0.87378 0.74646 0.0
C394 C 0.19442 0.90677 0.72359 0.0
C395 C 0.21411 0.94011 0.74199 0.0
C396 C 0.24161 0.90741 0.76483 0.0
C397 C 0.23759 0.94036 0.76257 0.0
C398 C 0.19838 0.87361 0.72579 0.0
C399 C 0.24514 0.71396 0.70328 0.0
C400 C 0.2266 0.83923 0.74891 0.0
C401 C 0.10409 0.71978 0.82265 0.0
C402 C 0.09201 0.70393 0.79263 0.0
C403 C 0.31388 0.79946 0.7191 0.0
C404 C 0.32023 0.63613 0.75915 0.0
C405 C 0.35038 0.60343 0.77915 0.0
C406 C 0.33439 0.57187 0.75729 0.0
C407 C 0.30406 0.60412 0.73764 0.0
C408 C 0.34303 0.63545 0.78026 0.0
C409 C 0.31109 0.57218 0.73682 0.0
C410 C 0.29322 0.79424 0.80666 0.0
C411 C 0.31465 0.67051 0.7582 0.0
H412 H 0.21134 0.96591 0.74036 0.0
H413 H 0.26008 0.90831 0.7809 0.0
H414 H 0.25277 0.96615 0.77675 0.0
H415 H 0.1832 0.84795 0.71136 0.0
H416 H 0.33971 0.54691 0.75629 0.0
H417 H 0.28632 0.60387 0.72114 0.0
H418 H 0.3557 0.65993 0.79697 0.0
H419 H 0.29867 0.54772 0.72009 0.0
Eu420 Eu 0.25486 0.21585 0.78399 0.0
C421 C 0.34767 0.3186 0.68014 0.0
N422 N 0.33852 0.32497 0.71151 0.0
C423 C 0.3989 0.36742 0.72009 0.0
C424 C 0.38336 0.33549 0.66794 0.0
C425 C 0.36323 0.35046 0.73113 0.0
C426 C 0.40911 0.35957 0.68847 0.0
C427 C 0.33019 0.28882 0.6273 0.0
C428 C 0.32127 0.29556 0.65982 0.0
C429 C 0.36578 0.30526 0.61539 0.0
C430 C 0.39225 0.32845 0.63562 0.0
Eu431 Eu 0.2768 0.29549 0.72606 0.0
N432 N 0.28709 0.27875 0.67195 0.0
C433 C 0.30311 0.26513 0.60774 0.0
C434 C 0.26051 0.25636 0.65298 0.0
C435 C 0.26811 0.24892 0.62065 0.0
H436 H 0.35585 0.35904 0.75515 0.0
H437 H 0.24694 0.23097 0.60567 0.0
H438 H 0.17485 0.15421 0.7545 0.0
H439 H 0.28197 0.27969 0.9047 0.0
H440 H 0.2334 0.24511 0.6627 0.0
H441 H 0.30895 0.25921 0.58267 0.0
H442 H 0.29712 0.26078 0.84874 0.0
H443 H 0.41839 0.38715 0.73589 0.0
H444 H 0.37313 0.30016 0.59051 0.0
H445 H 0.41956 0.3411 0.62597 0.0
H446 H 0.11131 0.13584 0.77035 0.0
H447 H 0.43677 0.37306 0.67998 0.0
H448 H 0.21865 0.26324 0.92437 0.0
N449 N 0.19218 0.19294 0.79607 0.0
C450 C 0.18204 0.2037 0.82634 0.0
C451 C 0.13088 0.1556 0.78608 0.0
C452 C 0.14557 0.19218 0.83692 0.0
C453 C 0.16725 0.16717 0.77676 0.0
C454 C 0.11994 0.16872 0.81605 0.0
N455 N 0.24315 0.23592 0.83701 0.0
C456 C 0.26954 0.25425 0.85717 0.0
C457 C 0.19823 0.23486 0.87918 0.0
C458 C 0.20809 0.22485 0.84748 0.0
C459 C 0.2252 0.25507 0.89984 0.0
C460 C 0.261 0.26456 0.88882 0.0
H461 H 0.0917 0.15928 0.82331 0.0
H462 H 0.10785 0.19498 0.87656 0.0
H463 H 0.15389 0.23236 0.91345 0.0
O464 O 0.28927 0.19939 0.8079 0.0
O465 O 0.24677 0.27014 0.80408 0.0
O466 O 0.22832 0.28244 0.76153 0.0
O467 O 0.23748 0.15832 0.79272 0.0
O468 O 0.31009 0.26009 0.77581 0.0
O469 O 0.30242 0.31352 0.77248 0.0
O470 O 0.25022 0.31689 0.6983 0.0
O471 O 0.29942 0.25035 0.70599 0.0
O472 O 0.28608 0.2049 0.73906 0.0
O473 O 0.28646 0.35501 0.7336 0.0
O474 O 0.22302 0.24793 0.72892 0.0
O475 O 0.23041 0.19561 0.73671 0.0
C476 C 0.22965 0.28615 0.79214 0.0
C477 C 0.27134 0.13532 0.81916 0.0
C478 C 0.30626 0.11424 0.84664 0.0
C479 C 0.27891 0.0784 0.8445 0.0
C480 C 0.24432 0.09917 0.81714 0.0
C481 C 0.2482 0.07092 0.82968 0.0
C482 C 0.30258 0.14272 0.83381 0.0
C483 C 0.31771 0.29579 0.78446 0.0
C484 C 0.26606 0.16498 0.80662 0.0
C485 C 0.13574 0.20333 0.86821 0.0
C486 C 0.16196 0.2245 0.88927 0.0
C487 C 0.30117 0.21981 0.71317 0.0
C488 C 0.25887 0.38249 0.70415 0.0
C489 C 0.22409 0.40648 0.67937 0.0
C490 C 0.24592 0.44305 0.69125 0.0
C491 C 0.28056 0.41932 0.71568 0.0
C492 C 0.23073 0.37617 0.68563 0.0
C493 C 0.27411 0.44938 0.70917 0.0
C494 C 0.21721 0.21245 0.72123 0.0
C495 C 0.26533 0.35099 0.71206 0.0
H496 H 0.28144 0.05616 0.85424 0.0
H497 H 0.22002 0.0927 0.80603 0.0
H498 H 0.22724 0.04319 0.82805 0.0
H499 H 0.32362 0.17047 0.83569 0.0
H500 H 0.24111 0.46669 0.68661 0.0
H501 H 0.30248 0.42492 0.72979 0.0
H502 H 0.21372 0.34792 0.67655 0.0
H503 H 0.29092 0.47767 0.7182 0.0
Eu504 Eu 0.7385 0.28289 0.74527 0.0
C505 C 0.80022 0.20548 0.82723 0.0
N506 N 0.81797 0.23659 0.81292 0.0
C507 C 0.85652 0.26472 0.85508 0.0
C508 C 0.80939 0.20335 0.85683 0.0
C509 C 0.84619 0.2657 0.82595 0.0
C510 C 0.83773 0.23364 0.87084 0.0
C511 C 0.75471 0.14251 0.82603 0.0
C512 C 0.77308 0.1754 0.81202 0.0
C513 C 0.76336 0.14054 0.85577 0.0
C514 C 0.79053 0.17091 0.87117 0.0
Eu515 Eu 0.80075 0.23422 0.76283 0.0
N516 N 0.76453 0.17843 0.7836 0.0
C517 C 0.72841 0.11244 0.80955 0.0
C518 C 0.73886 0.14925 0.7675 0.0
C519 C 0.72022 0.11593 0.78032 0.0
H520 H 0.86145 0.28915 0.81333 0.0
H521 H 0.69996 0.09275 0.76743 0.0
H522 H 0.69775 0.2374 0.67977 0.0
H523 H 0.83525 0.4279 0.77025 0.0
H524 H 0.73308 0.15121 0.74455 0.0
H525 H 0.7147 0.08617 0.81892 0.0
H526 H 0.79462 0.36657 0.78339 0.0
H527 H 0.87917 0.28779 0.86516 0.0
H528 H 0.74928 0.11559 0.86701 0.0
H529 H 0.79706 0.16885 0.894 0.0
H530 H 0.69386 0.2515 0.62712 0.0
H531 H 0.84576 0.23301 0.89349 0.0
H532 H 0.83835 0.44375 0.71699 0.0
N533 N 0.73647 0.29152 0.69348 0.0
C534 C 0.75651 0.32632 0.68574 0.0
C535 C 0.71208 0.27229 0.64317 0.0
C536 C 0.75553 0.33503 0.65575 0.0
C537 C 0.71434 0.26454 0.6729 0.0
C538 C 0.73297 0.3075 0.63443 0.0
N539 N 0.77872 0.34428 0.73671 0.0
C540 C 0.79759 0.37127 0.75937 0.0
C541 C 0.79997 0.38919 0.69975 0.0
C542 C 0.77859 0.35313 0.70766 0.0
C543 C 0.82141 0.41586 0.72225 0.0
C544 C 0.81994 0.40694 0.75226 0.0
H545 H 0.73119 0.31326 0.6113 0.0
H546 H 0.77635 0.37801 0.62505 0.0
H547 H 0.81489 0.42549 0.6636 0.0
O548 O 0.71273 0.3199 0.76867 0.0
O549 O 0.78196 0.27954 0.70746 0.0
O550 O 0.82514 0.28603 0.73853 0.0
O551 O 0.68305 0.27099 0.73766 0.0
O552 O 0.76321 0.3019 0.79276 0.0
O553 O 0.81656 0.29573 0.77877 0.0
O554 O 0.81909 0.19179 0.73805 0.0
O555 O 0.75486 0.23201 0.79957 0.0
O556 O 0.71155 0.23198 0.77104 0.0
O557 O 0.85747 0.24389 0.75955 0.0
O558 O 0.77167 0.21038 0.71761 0.0
O559 O 0.7197 0.22092 0.72908 0.0
C560 C 0.81574 0.28963 0.71199 0.0
C561 C 0.65465 0.28371 0.78687 0.0
C562 C 0.64097 0.29152 0.84344 0.0
C563 C 0.6136 0.25569 0.841 0.0
C564 C 0.62716 0.24782 0.78452 0.0
C565 C 0.6065 0.23415 0.81151 0.0
C566 C 0.66039 0.30563 0.81627 0.0
C567 C 0.796 0.30861 0.79883 0.0
C568 C 0.68116 0.29661 0.76046 0.0
C569 C 0.7768 0.37086 0.64798 0.0
C570 C 0.79886 0.39785 0.66992 0.0
C571 C 0.72128 0.22429 0.79574 0.0
C572 C 0.8743 0.21798 0.70989 0.0
C573 C 0.87748 0.20003 0.65308 0.0
C574 C 0.91516 0.21705 0.65293 0.0
C575 C 0.91154 0.23499 0.7093 0.0
C576 C 0.8576 0.20342 0.68157 0.0
C577 C 0.93185 0.23537 0.6807 0.0
C578 C 0.73867 0.20343 0.712 0.0
C579 C 0.85271 0.21357 0.7399 0.0
H580 H 0.59784 0.24447 0.86175 0.0
H581 H 0.62227 0.22998 0.76212 0.0
H582 H 0.58542 0.20652 0.80964 0.0
H583 H 0.6808 0.33378 0.81818 0.0
H584 H 0.93216 0.21495 0.63191 0.0
H585 H 0.92483 0.2473 0.73091 0.0
H586 H 0.82883 0.19294 0.68212 0.0
H587 H 0.9607 0.24817 0.68025 0.0
Eu588 Eu 0.72855 0.74808 0.72423 0.0
C589 C 0.81408 0.84365 0.82941 0.0
N590 N 0.82446 0.82996 0.80023 0.0
C591 C 0.86445 0.8921 0.79126 0.0
C592 C 0.8273 0.88248 0.83978 0.0
C593 C 0.85119 0.85344 0.78221 0.0
C594 C 0.85194 0.90675 0.81987 0.0
C595 C 0.78217 0.83212 0.88072 0.0
C596 C 0.79167 0.81879 0.84985 0.0
C597 C 0.79425 0.87077 0.8905 0.0
C598 C 0.81662 0.89586 0.87007 0.0
Eu599 Eu 0.79856 0.76373 0.78828 0.0
N600 N 0.77917 0.78147 0.83961 0.0
C601 C 0.76108 0.80612 0.90096 0.0
C602 C 0.7596 0.75589 0.85937 0.0
C603 C 0.7501 0.76785 0.89033 0.0
H604 H 0.86355 0.84291 0.76131 0.0
H605 H 0.73437 0.74765 0.90599 0.0
H606 H 0.68854 0.65636 0.73134 0.0
H607 H 0.78017 0.81788 0.61965 0.0
H608 H 0.7513 0.72633 0.85105 0.0
H609 H 0.75342 0.81529 0.92491 0.0
H610 H 0.76482 0.81406 0.67634 0.0
H611 H 0.88501 0.91052 0.77648 0.0
H612 H 0.78687 0.88155 0.91402 0.0
H613 H 0.82632 0.92561 0.87825 0.0
H614 H 0.67212 0.59585 0.69688 0.0
H615 H 0.86269 0.93673 0.82699 0.0
H616 H 0.76802 0.7599 0.58176 0.0
N617 N 0.71312 0.68863 0.69387 0.0
C618 C 0.71991 0.68854 0.66217 0.0
C619 C 0.68579 0.62171 0.68687 0.0
C620 C 0.71091 0.65462 0.64163 0.0
C621 C 0.69532 0.65602 0.70638 0.0
C622 C 0.69381 0.62098 0.6544 0.0
N623 N 0.74574 0.75487 0.67081 0.0
C624 C 0.7606 0.78875 0.66011 0.0
C625 C 0.74521 0.72335 0.61777 0.0
C626 C 0.73711 0.72258 0.65041 0.0
C627 C 0.76156 0.7581 0.60669 0.0
C628 C 0.76882 0.79091 0.62796 0.0
H629 H 0.68643 0.59432 0.63938 0.0
H630 H 0.71267 0.62954 0.59299 0.0
H631 H 0.7425 0.68963 0.5721 0.0
O632 O 0.69843 0.77081 0.7013 0.0
O633 O 0.76433 0.7146 0.70907 0.0
O634 O 0.80911 0.72963 0.74308 0.0
O635 O 0.67098 0.73058 0.73457 0.0
O636 O 0.77853 0.80137 0.72823 0.0
O637 O 0.8219 0.78464 0.74124 0.0
O638 O 0.81035 0.72559 0.81172 0.0
O639 O 0.74824 0.77575 0.80322 0.0
O640 O 0.74387 0.79997 0.76086 0.0
O641 O 0.85034 0.78065 0.8068 0.0
O642 O 0.75216 0.70709 0.78217 0.0
O643 O 0.70586 0.71866 0.76782 0.0
C644 C 0.79296 0.71171 0.71718 0.0
C645 C 0.6337 0.75213 0.71048 0.0
C646 C 0.59814 0.77706 0.6873 0.0
C647 C 0.56719 0.75272 0.70247 0.0
C648 C 0.60229 0.72822 0.72531 0.0
C649 C 0.56932 0.72851 0.72123 0.0
C650 C 0.63149 0.77636 0.69113 0.0
C651 C 0.81078 0.80117 0.72353 0.0
C652 C 0.66826 0.75102 0.71521 0.0
C653 C 0.71931 0.65533 0.60914 0.0
C654 C 0.73638 0.68957 0.59724 0.0
C655 C 0.73776 0.79759 0.79112 0.0
C656 C 0.87029 0.73226 0.80423 0.0
C657 C 0.90658 0.70012 0.81472 0.0
C658 C 0.92154 0.70162 0.78346 0.0
C659 C 0.88547 0.73347 0.77316 0.0
C660 C 0.88082 0.7156 0.82492 0.0
C661 C 0.91097 0.71817 0.76289 0.0
C662 C 0.71814 0.70148 0.78396 0.0
C663 C 0.84343 0.74822 0.81514 0.0
H664 H 0.54115 0.75213 0.69956 0.0
H665 H 0.60311 0.70911 0.74006 0.0
H666 H 0.54526 0.70985 0.73268 0.0
H667 H 0.65556 0.79496 0.67957 0.0
H668 H 0.94174 0.69037 0.775 0.0
H669 H 0.87764 0.74627 0.75689 0.0
H670 H 0.86861 0.71432 0.84877 0.0
H671 H 0.92263 0.71921 0.73891 0.0
C672 C 0.9031 0.02042 0.52083 0.0
C673 C 0.9714 0.03975 0.43973 0.0
C674 C 0.98928 0.91621 0.45551 0.0
Mg675 Mg 0.98605 0.05779 0.50944 0.0
O676 O 0.97741 0.00815 0.51205 0.0
Mg677 Mg 0.94403 0.9671 0.4828 0.0
Mg678 Mg 0.01932 0.99468 0.50292 0.0
O679 O 0.06144 0.98147 0.49354 0.0
Mg680 Mg 0.05586 0.93218 0.49432 0.0
Mg681 Mg 0.09503 0.02311 0.52203 0.0
C682 C 0.05036 0.07325 0.55031 0.0
C683 C 0.0815 0.05863 0.46489 0.0
O684 O 0.90109 0.98878 0.50554 0.0
O685 O 0.9324 0.04897 0.52534 0.0
O686 O 0.95475 0.00555 0.44442 0.0
O687 O 0.98989 0.06459 0.46072 0.0
O688 O 0.02982 0.08652 0.54131 0.0
O689 O 0.04791 0.03976 0.54104 0.0
C690 C 0.95624 0.93157 0.54093 0.0
O691 O 0.98979 0.95223 0.53867 0.0
O692 O 0.93477 0.93213 0.5223 0.0
O693 O 0.1383 1.0029 0.49702 0.0
O694 O 0.10962 0.94282 0.47631 0.0
O695 O 0.08451 0.98503 0.56013 0.0
C696 C 0.13813 0.97248 0.48034 0.0
O697 O 0.05241 0.92518 0.543 0.0
O698 O 1.01123 0.90388 0.46333 0.0
C699 C 0.06858 0.95076 0.56468 0.0
O700 O 0.99086 0.94938 0.4652 0.0
O701 O 0.04824 0.03712 0.46705 0.0
O702 O 0.10332 0.05863 0.48338 0.0
C703 C 0.4384 0.08186 0.07089 0.0
C704 C 0.46674 0.07253 0.97045 0.0
C705 C 0.45543 0.93246 0.97495 0.0
Mg706 Mg 0.50899 0.08949 0.02881 0.0
O707 O 0.49285 0.03806 0.03039 0.0
Mg708 Mg 0.44291 0.00641 0.01867 0.0
Mg709 Mg 0.51935 0.00749 0.00536 0.0
O710 O 0.54589 0.97684 0.98044 0.0
Mg711 Mg 0.53 0.92579 0.98359 0.0
Mg712 Mg 0.59592 0.00864 0.9919 0.0
C713 C 0.5833 0.08188 0.037 0.0
C714 C 0.57133 0.05239 0.94848 0.0
O715 O 0.42359 0.0483 0.05646 0.0
O716 O 0.47152 0.10199 0.06499 0.0
O717 O 0.44672 0.04148 0.98031 0.0
O718 O 0.49447 0.09536 0.98434 0.0
O719 O 0.56422 0.1014 0.03823 0.0
O720 O 0.57103 0.04645 0.02737 0.0
C721 C 0.46745 0.96305 0.06245 0.0
O722 O 0.49796 0.97094 0.04661 0.0
O723 O 0.44367 0.97361 0.05613 0.0
O724 O 0.6149 0.96653 0.95432 0.0
O725 O 0.56692 0.91251 0.94738 0.0
O726 O 0.59312 0.97409 0.03006 0.0
C727 C 0.59985 0.9326 0.94069 0.0
O728 O 0.54495 0.92081 0.02822 0.0
O729 O 0.47472 0.91338 0.97462 0.0
C730 C 0.57349 0.94361 0.0409 0.0
O731 O 0.4676 0.96819 0.98334 0.0
O732 O 0.54078 0.04435 0.96426 0.0
O733 O 0.59499 0.04154 0.95459 0.0
C734 C 0.94142 0.58571 0.06552 0.0
C735 C 0.97623 0.57961 0.96749 0.0
C736 C 0.94885 0.43393 0.97009 0.0
Mg737 Mg 1.013 0.58844 0.02782 0.0
O738 O 0.99156 0.53653 0.02795 0.0
Mg739 Mg 0.94227 0.51007 0.01274 0.0
Mg740 Mg 1.01519 0.50289 1.00369 0.0
O741 O 0.03908 0.46955 0.97902 0.0
Mg742 Mg 0.0184 0.4177 0.97841 0.0
Mg743 Mg 0.08856 0.49612 0.99363 0.0
C744 C 0.08166 0.57134 0.038 0.0
C745 C 0.07378 0.54698 0.95008 0.0
O746 O 0.92539 0.55357 0.0494 0.0
O747 O 0.97546 0.60336 0.06252 0.0
O748 O 0.95299 0.54883 0.97561 0.0
O749 O 1.00397 0.59881 0.98271 0.0
O750 O 0.06616 0.59428 0.0389 0.0
O751 O 0.06616 0.53612 0.02853 0.0
C752 C 0.95589 0.45938 0.05736 0.0
O753 O 0.98719 0.46501 0.04353 0.0
O754 O 0.93554 0.47345 0.04944 0.0
O755 O 0.10581 0.45325 0.95583 0.0
O756 O 0.05607 0.40252 0.94416 0.0
O757 O 0.07819 0.45707 0.03076 0.0
C758 C 0.08998 0.42061 0.94031 0.0
O759 O 0.02728 0.40727 0.02299 0.0
O760 O 0.96491 0.41142 0.96866 0.0
C761 C 0.05469 0.42623 0.03862 0.0
O762 O 0.96433 0.46935 0.97883 0.0
O763 O 0.04267 0.54088 0.9643 0.0
O764 O 0.09471 0.53307 0.95712 0.0
C765 C 0.3981 0.54129 0.02416 0.0
C766 C 0.46815 0.55268 0.94019 0.0
C767 C 0.47489 0.42763 0.96319 0.0
Mg768 Mg 0.48107 0.57539 0.01037 0.0
O769 O 0.47096 0.52544 0.01445 0.0
Mg770 Mg 0.43614 0.48377 0.98701 0.0
Mg771 Mg 0.5104 0.50805 0.00693 0.0
O772 O 0.54966 0.49024 0.99983 0.0
Mg773 Mg 0.53536 0.44076 0.00798 0.0
Mg774 Mg 0.58375 0.53171 0.02833 0.0
C775 C 0.54458 0.58811 0.05155 0.0
C776 C 0.57665 0.56583 0.96693 0.0
O777 O 0.39599 0.50939 0.00924 0.0
O778 O 0.42783 0.56967 0.02743 0.0
O779 O 0.45003 0.51947 0.94673 0.0
O780 O 0.48575 0.57896 0.96077 0.0
O781 O 0.52631 0.60315 0.0412 0.0
O782 O 0.53963 0.55375 0.04351 0.0
C783 C 0.4451 0.44926 0.04697 0.0
O784 O 0.47879 0.46879 0.04427 0.0
O785 O 0.42407 0.4499 0.02798 0.0
O786 O 0.62325 0.50435 0.00931 0.0
O787 O 0.58835 0.44312 0.9963 0.0
O788 O 0.56917 0.49668 0.06942 0.0
C789 C 0.61889 0.47034 0.99919 0.0
O790 O 0.52888 0.43882 0.05806 0.0
O791 O 0.49164 0.41233 0.97537 0.0
C792 C 0.54947 0.46442 0.07731 0.0
O793 O 0.48064 0.46231 0.9703 0.0
O794 O 0.54269 0.54732 0.96952 0.0
O795 O 0.59706 0.56462 0.98631 0.0
C796 C 0.93514 0.58162 0.5669 0.0
C797 C 0.96436 0.57074 0.46759 0.0
C798 C 0.9543 0.43236 0.47287 0.0
Mg799 Mg 1.00652 0.58902 0.52575 0.0
O800 O 0.991 0.53793 0.52872 0.0
Mg801 Mg 0.94121 0.50564 0.5169 0.0
Mg802 Mg 0.01796 0.50726 0.50421 0.0
O803 O 0.04463 0.47628 0.47985 0.0
Mg804 Mg 0.0283 0.42509 0.4835 0.0
Mg805 Mg 0.09439 0.50866 0.49183 0.0
C806 C 0.08106 0.58262 0.53535 0.0
C807 C 0.06984 0.55076 0.44675 0.0
O808 O 0.92102 0.54736 0.55376 0.0
O809 O 0.96807 0.60215 0.56058 0.0
O810 O 0.94455 0.54021 0.47836 0.0
O811 O 0.99269 0.5936 0.48058 0.0
O812 O 0.06165 0.60164 0.53582 0.0
O813 O 0.06924 0.54703 0.5263 0.0
C814 C 0.96582 0.46274 0.56106 0.0
O815 O 0.99646 0.47104 0.54546 0.0
O816 O 0.94192 0.47314 0.55473 0.0
O817 O 0.11426 0.46624 0.45544 0.0
O818 O 0.06725 0.4111 0.4498 0.0
O819 O 0.09079 0.47489 0.53112 0.0
C820 C 0.10012 0.4316 0.4432 0.0
O821 O 0.04248 0.42151 0.52909 0.0
O822 O 0.97294 0.41247 0.47239 0.0
C823 C 0.07073 0.4446 0.54215 0.0
O824 O 0.96681 0.46782 0.48229 0.0
O825 O 0.03935 0.54311 0.46258 0.0
O826 O 0.09363 0.5404 0.45342 0.0
C827 C 0.44353 0.08733 0.56659 0.0
C828 C 0.48349 0.08534 0.46929 0.0
C829 C 0.45332 0.93862 0.46704 0.0
Mg830 Mg 0.51618 0.09006 0.53099 0.0
O831 O 0.49441 0.0381 0.52885 0.0
Mg832 Mg 0.44588 0.01312 0.51216 0.0
Mg833 Mg 0.51852 0.0046 0.50482 0.0
O834 O 0.54241 0.97108 0.4809 0.0
Mg835 Mg 0.52034 0.9189 0.47746 0.0
Mg836 Mg 0.59057 0.99551 0.49837 0.0
C837 C 0.58321 0.0706 0.54233 0.0
C838 C 0.58156 0.05053 0.45493 0.0
O839 O 0.42791 0.05561 0.54967 0.0
O840 O 0.47765 0.10461 0.56452 0.0
O841 O 0.45918 0.05412 0.47563 0.0
O842 O 0.50999 0.10308 0.48628 0.0
O843 O 0.56808 0.09384 0.54312 0.0
O844 O 0.56769 0.03551 0.53242 0.0
C845 C 0.45709 0.95971 0.55602 0.0
O846 O 0.48851 0.96561 0.54263 0.0
O847 O 0.43703 0.97438 0.54838 0.0
O848 O 0.60856 0.95333 0.46062 0.0
O849 O 0.55895 0.90591 0.44303 0.0
O850 O 0.5763 0.95375 0.53414 0.0
C851 C 0.59309 0.9228 0.44223 0.0
O852 O 0.52674 0.90405 0.52148 0.0
O853 O 0.46821 0.91503 0.46552 0.0
C854 C 0.55244 0.92186 0.53935 0.0
O855 O 0.469 0.97343 0.47775 0.0
O856 O 0.54937 0.0439 0.46682 0.0
O857 O 0.60076 0.0354 0.46335 0.0
C858 C 0.20462 0.15078 0.3211 0.0
C859 C 0.20047 0.18181 0.31342 0.0
C860 C 0.18193 0.13033 0.34462 0.0
C861 C 0.15454 0.14127 0.36094 0.0
C862 C 0.14977 0.17207 0.35267 0.0
C863 C 0.17259 0.19175 0.32887 0.0
C864 C 0.18798 0.09769 0.35267 0.0
C865 C 0.1217 0.18542 0.37002 0.0
C866 C 0.08213 0.07163 0.40985 0.0
C867 C 0.09646 0.08252 0.43936 0.0
C868 C 0.10021 0.09105 0.38417 0.0
C869 C 0.13295 0.12241 0.38832 0.0
C870 C 0.14617 0.13473 0.41861 0.0
C871 C 0.12803 0.11447 0.44354 0.0
C872 C 0.08527 0.07687 0.35227 0.0
C873 C 0.18071 0.16796 0.42459 0.0
H874 H 0.22593 0.14281 0.30899 0.0
H875 H 0.1694 0.21587 0.32314 0.0
H876 H 0.19723 0.10445 0.37676 0.0
H877 H 0.16261 0.07262 0.35252 0.0
H878 H 0.20823 0.09069 0.33604 0.0
H879 H 0.11993 0.2083 0.3595 0.0
H880 H 0.09515 0.16195 0.37011 0.0
H881 H 0.12812 0.19578 0.39492 0.0
H882 H 0.05784 0.04683 0.40639 0.0
H883 H 0.1392 0.12319 0.46631 0.0
H884 H 0.10333 0.06593 0.33613 0.0
H885 H 0.08388 0.09999 0.34191 0.0
H886 H 0.05821 0.05422 0.3534 0.0
H887 H 0.20314 0.1586 0.41791 0.0
H888 H 0.18201 0.17993 0.44986 0.0
H889 H 0.18451 0.19035 0.4105 0.0
C890 C 0.84345 0.09981 0.3727 0.0
C891 C 0.84927 0.10983 0.34235 0.0
C892 C 0.86788 0.08968 0.38465 0.0
C893 C 0.89873 0.08913 0.36563 0.0
C894 C 0.90484 0.09938 0.33498 0.0
C895 C 0.88013 0.10985 0.32377 0.0
C896 C 0.86053 0.07938 0.41764 0.0
C897 C 0.93706 0.09859 0.31384 0.0
C898 C 0.97061 0.09079 0.41305 0.0
C899 C 0.96109 0.05241 0.41352 0.0
C900 C 0.95215 0.10338 0.3957 0.0
C901 C 0.92391 0.07699 0.37797 0.0
C902 C 0.91679 0.03843 0.37561 0.0
C903 C 0.93543 0.02656 0.39341 0.0
C904 C 0.9606 0.14476 0.39892 0.0
C905 C 0.88728 0.00948 0.35649 0.0
H906 H 0.81988 0.10025 0.38726 0.0
H907 H 0.88454 0.11731 0.30019 0.0
H908 H 0.85745 0.04999 0.41691 0.0
H909 H 0.88342 0.09732 0.4319 0.0
H910 H 0.83597 0.08245 0.42971 0.0
H911 H 0.93855 0.10855 0.29104 0.0
H912 H 0.9619 0.11627 0.32568 0.0
H913 H 0.93614 0.06963 0.30905 0.0
H914 H 0.9905 0.11113 0.42825 0.0
H915 H 0.92794 0.99684 0.39328 0.0
H916 H 0.93926 0.15108 0.41437 0.0
H917 H 0.96137 0.15346 0.37575 0.0
H918 H 0.98653 0.16178 0.40934 0.0
H919 H 0.861 0.0072 0.36869 0.0
H920 H 0.88861 0.98152 0.35319 0.0
H921 H 0.88853 0.01779 0.33304 0.0
C922 C 0.85523 0.84667 0.32222 0.0
C923 C 0.8434 0.80824 0.31158 0.0
C924 C 0.87919 0.86315 0.34589 0.0
C925 C 0.89002 0.8403 0.36037 0.0
C926 C 0.87751 0.80138 0.35031 0.0
C927 C 0.85508 0.78598 0.3255 0.0
C928 C 0.89282 0.90498 0.35534 0.0
C929 C 0.88748 0.77592 0.36595 0.0
C930 C 0.97605 0.88571 0.4014 0.0
C931 C 0.96348 0.89307 0.43245 0.0
C932 C 0.95232 0.86841 0.37766 0.0
C933 C 0.91518 0.85729 0.38555 0.0
C934 C 0.90228 0.86348 0.41722 0.0
C935 C 0.92677 0.88211 0.44033 0.0
C936 C 0.96708 0.86354 0.34399 0.0
C937 C 0.86276 0.85104 0.42651 0.0
H938 H 0.8458 0.86402 0.31215 0.0
H939 H 0.846 0.75624 0.31759 0.0
H940 H 0.88145 0.91143 0.37932 0.0
H941 H 0.92232 0.91706 0.35593 0.0
H942 H 0.88551 0.91897 0.33889 0.0
H943 H 0.87387 0.74598 0.3564 0.0
H944 H 0.91675 0.78354 0.36268 0.0
H945 H 0.88035 0.77945 0.39166 0.0
H946 H 1.0046 0.89509 0.39548 0.0
H947 H 0.9173 0.88827 0.46444 0.0
H948 H 0.95915 0.87932 0.32968 0.0
H949 H 0.95574 0.83367 0.33375 0.0
H950 H 0.99667 0.8735 0.34192 0.0
H951 H 0.85164 0.86766 0.41632 0.0
H952 H 0.85705 0.85443 0.45246 0.0
H953 H 0.84852 0.82126 0.41695 0.0
C954 C 0.24047 0.94477 0.31842 0.0
C955 C 0.2108 0.93711 0.30167 0.0
C956 C 0.24165 0.96095 0.34998 0.0
C957 C 0.21177 0.96796 0.36505 0.0
C958 C 0.18346 0.96381 0.34724 0.0
C959 C 0.18366 0.94883 0.31547 0.0
C960 C 0.27318 0.96684 0.36767 0.0
C961 C 0.15081 0.97067 0.36242 0.0
C962 C 0.17091 0.94 0.44367 0.0
C963 C 0.16943 0.97379 0.45885 0.0
C964 C 0.18839 0.93818 0.41381 0.0
C965 C 0.20582 0.97136 0.39968 0.0
C966 C 0.21007 0.00638 0.41746 0.0
C967 C 0.19138 0.00726 0.44701 0.0
C968 C 0.18384 0.90015 0.39594 0.0
C969 C 0.23082 0.04244 0.4039 0.0
H970 H 0.26138 0.93549 0.30761 0.0
H971 H 0.16065 0.9424 0.30242 0.0
H972 H 0.2762 0.98819 0.38877 0.0
H973 H 0.2697 0.94013 0.37537 0.0
H974 H 0.29823 0.97563 0.35216 0.0
H975 H 0.13198 0.96744 0.34489 0.0
H976 H 0.13644 0.95058 0.37948 0.0
H977 H 0.15868 0.99924 0.37557 0.0
H978 H 0.15474 0.9143 0.45337 0.0
H979 H 0.1909 0.03368 0.45898 0.0
H980 H 0.21013 0.89965 0.3864 0.0
H981 H 0.16739 0.89402 0.37575 0.0
H982 H 0.17064 0.87745 0.41093 0.0
H983 H 0.24009 0.06652 0.4228 0.0
H984 H 0.2135 0.0478 0.38946 0.0
H985 H 0.25427 0.04085 0.38848 0.0
C986 C 0.13448 0.89976 0.71109 0.0
C987 C 0.17038 0.90713 0.70156 0.0
C988 C 0.11217 0.90368 0.69129 0.0
C989 C 0.12634 0.91508 0.66139 0.0
C990 C 0.16248 0.92138 0.65142 0.0
C991 C 0.18414 0.91744 0.67176 0.0
C992 C 0.074 0.89722 0.70285 0.0
C993 C 0.17858 0.9334 0.61967 0.0
C994 C 0.07019 0.90282 0.59459 0.0
C995 C 0.07504 0.93996 0.59365 0.0
C996 C 0.08485 0.89374 0.61784 0.0
C997 C 0.1043 0.9224 0.64091 0.0
C998 C 0.10631 0.95926 0.64186 0.0
C999 C 0.09182 0.96766 0.61811 0.0
C1000 C 0.08215 0.8541 0.61601 0.0
C1001 C 0.12624 0.99056 0.66643 0.0
H1002 H 0.12419 0.89194 0.73434 0.0
H1003 H 0.21206 0.92316 0.6647 0.0
H1004 H 0.07032 0.92403 0.70591 0.0
H1005 H 0.05549 0.8776 0.68526 0.0
H1006 H 0.0664 0.8858 0.72564 0.0
H1007 H 0.20639 0.93488 0.61478 0.0
H1008 H 0.16217 0.91363 0.60078 0.0
H1009 H 0.17877 0.96139 0.61859 0.0
H1010 H 0.05725 0.88118 0.57585 0.0
H1011 H 0.09545 0.9964 0.61779 0.0
H1012 H 0.07499 0.84471 0.63958 0.0
H1013 H 0.10851 0.85291 0.60754 0.0
H1014 H 0.06206 0.83425 0.59968 0.0
H1015 H 0.12089 0.98107 0.68992 0.0
H1016 H 0.11891 0.01508 0.66813 0.0
H1017 H 0.15538 0.99975 0.66009 0.0
C1018 C 0.18904 0.15447 0.68362 0.0
C1019 C 0.19101 0.19004 0.69773 0.0
C1020 C 0.1661 0.13448 0.65953 0.0
C1021 C 0.14515 0.15078 0.64914 0.0
C1022 C 0.14659 0.18635 0.66373 0.0
C1023 C 0.16909 0.20528 0.68812 0.0
C1024 C 0.16483 0.09631 0.64478 0.0
C1025 C 0.12474 0.2047 0.65325 0.0
C1026 C 0.10999 0.11786 0.5677 0.0
C1027 C 0.07447 0.09495 0.57505 0.0
C1028 C 0.13361 0.13597 0.59164 0.0
C1029 C 0.12118 0.13058 0.62332 0.0
C1030 C 0.08531 0.10704 0.63057 0.0
C1031 C 0.06239 0.08943 0.60625 0.0
C1032 C 0.17174 0.16091 0.58315 0.0
C1033 C 0.07113 0.10047 0.664 0.0
H1034 H 0.2059 0.14256 0.69097 0.0
H1035 H 0.17024 0.23265 0.69909 0.0
H1036 H 0.1368 0.0757 0.64441 0.0
H1037 H 0.17605 0.09745 0.61999 0.0
H1038 H 0.18016 0.08614 0.65746 0.0
H1039 H 0.1291 0.23261 0.66698 0.0
H1040 H 0.13171 0.20811 0.628 0.0
H1041 H 0.09591 0.18667 0.65577 0.0
H1042 H 0.11927 0.12127 0.54332 0.0
H1043 H 0.03498 0.07093 0.61155 0.0
H1044 H 0.19042 0.15158 0.59208 0.0
H1045 H 0.17716 0.18998 0.59458 0.0
H1046 H 0.17755 0.16108 0.55733 0.0
H1047 H 0.08724 0.08903 0.6743 0.0
H1048 H 0.04272 0.08077 0.66552 0.0
H1049 H 0.07352 0.12737 0.67864 0.0
C1050 C 0.82664 0.14298 0.62975 0.0
C1051 C 0.85934 0.1737 0.62549 0.0
C1052 C 0.81545 0.11215 0.60633 0.0
C1053 C 0.839 0.11053 0.57985 0.0
C1054 C 0.86849 0.14341 0.57295 0.0
C1055 C 0.87735 0.17526 0.5955 0.0
C1056 C 0.78105 0.07907 0.61176 0.0
C1057 C 0.89372 0.14358 0.54401 0.0
C1058 C 0.87189 0.03376 0.56934 0.0
C1059 C 0.87138 0.02461 0.53681 0.0
C1060 C 0.85812 0.0597 0.58479 0.0
C1061 C 0.84091 0.07406 0.56715 0.0
C1062 C 0.83378 0.05833 0.53554 0.0
C1063 C 0.85012 0.0342 0.52028 0.0
C1064 C 0.86742 0.07579 0.61844 0.0
C1065 C 0.81257 0.06976 0.51666 0.0
H1066 H 0.81088 0.14085 0.65198 0.0
H1067 H 0.90065 0.19991 0.59066 0.0
H1068 H 0.768 0.06647 0.58932 0.0
H1069 H 0.78651 0.05711 0.6203 0.0
H1070 H 0.76231 0.08722 0.62949 0.0
H1071 H 0.91544 0.17156 0.54235 0.0
H1072 H 0.90613 0.12327 0.54429 0.0
H1073 H 0.87885 0.13508 0.52257 0.0
H1074 H 0.88835 0.0256 0.58168 0.0
H1075 H 0.84963 0.0265 0.49496 0.0
H1076 H 0.84289 0.07173 0.6342 0.0
H1077 H 0.88372 0.10627 0.62005 0.0
H1078 H 0.88276 0.06256 0.62766 0.0
H1079 H 0.7987 0.08669 0.53138 0.0
H1080 H 0.79238 0.04437 0.5044 0.0
H1081 H 0.83047 0.08582 0.49807 0.0
C1082 C 0.83524 0.85289 0.6898 0.0
C1083 C 0.83598 0.82055 0.69826 0.0
C1084 C 0.85764 0.8699 0.66453 0.0
C1085 C 0.88167 0.85445 0.64748 0.0
C1086 C 0.88303 0.82222 0.65646 0.0
C1087 C 0.86034 0.80582 0.68184 0.0
C1088 C 0.85477 0.90375 0.6554 0.0
C1089 C 0.9073 0.80408 0.6384 0.0
C1090 C 0.90758 0.87808 0.56382 0.0
C1091 C 0.9406 0.90835 0.56691 0.0
C1092 C 0.88916 0.85894 0.58931 0.0
C1093 C 0.9036 0.87078 0.61912 0.0
C1094 C 0.93787 0.90009 0.62206 0.0
C1095 C 0.9561 0.91839 0.59585 0.0
C1096 C 0.85317 0.82763 0.58422 0.0
C1097 C 0.95446 0.91339 0.65328 0.0
H1098 H 0.81675 0.86461 0.7027 0.0
H1099 H 0.86086 0.78066 0.68819 0.0
H1100 H 0.88149 0.92692 0.65441 0.0
H1101 H 0.84483 0.89676 0.63155 0.0
H1102 H 0.83637 0.9137 0.67209 0.0
H1103 H 0.90676 0.78047 0.64946 0.0
H1104 H 0.89891 0.79331 0.61406 0.0
H1105 H 0.93518 0.82496 0.6367 0.0
H1106 H 0.89547 0.86986 0.54149 0.0
H1107 H 0.98158 0.9418 0.59849 0.0
H1108 H 0.83283 0.83996 0.58649 0.0
H1109 H 0.84547 0.80738 0.60132 0.0
H1110 H 0.85275 0.81219 0.56007 0.0
H1111 H 0.93874 0.92691 0.66991 0.0
H1112 H 0.98255 0.93379 0.65106 0.0
H1113 H 0.9538 0.88935 0.66371 0.0
C1114 C 0.32709 0.19871 0.16953 0.0
C1115 C 0.3172 0.19193 0.20095 0.0
C1116 C 0.34548 0.17959 0.14863 0.0
C1117 C 0.35544 0.15343 0.15938 0.0
C1118 C 0.34639 0.14707 0.19131 0.0
C1119 C 0.32728 0.16616 0.2116 0.0
C1120 C 0.35416 0.18742 0.11492 0.0
C1121 C 0.35718 0.12026 0.20415 0.0
C1122 C 0.3793 0.08181 0.09813 0.0
C1123 C 0.41678 0.09885 0.09455 0.0
C1124 C 0.35906 0.09901 0.11916 0.0
C1125 C 0.37651 0.13398 0.13753 0.0
C1126 C 0.41431 0.15101 0.13435 0.0
C1127 C 0.43382 0.13342 0.11302 0.0
C1128 C 0.31885 0.08004 0.12132 0.0
C1129 C 0.43426 0.18825 0.15321 0.0
H1130 H 0.32075 0.2194 0.16116 0.0
H1131 H 0.32025 0.16086 0.23583 0.0
H1132 H 0.3832 0.19575 0.10853 0.0
H1133 H 0.34008 0.16161 0.09899 0.0
H1134 H 0.34622 0.2099 0.11062 0.0
H1135 H 0.34814 0.11821 0.22938 0.0
H1136 H 0.3458 0.09201 0.19049 0.0
H1137 H 0.38667 0.12946 0.20151 0.0
H1138 H 0.36565 0.05531 0.08402 0.0
H1139 H 0.46267 0.14708 0.11073 0.0
H1140 H 0.30716 0.09842 0.1146 0.0
H1141 H 0.30876 0.07526 0.14594 0.0
H1142 H 0.30919 0.0528 0.10584 0.0
H1143 H 0.42651 0.21002 0.14712 0.0
H1144 H 0.46369 0.19729 0.14891 0.0
H1145 H 0.42704 0.18666 0.17872 0.0
C1146 C 0.82609 0.31183 0.16379 0.0
C1147 C 0.83329 0.31902 0.1955 0.0
C1148 C 0.85076 0.33247 0.14148 0.0
C1149 C 0.88326 0.3613 0.15123 0.0
C1150 C 0.89112 0.36774 0.18312 0.0
C1151 C 0.86586 0.3467 0.20494 0.0
C1152 C 0.84114 0.32469 0.10779 0.0
C1153 C 0.9254 0.39808 0.19451 0.0
C1154 C 0.95146 0.40697 0.08611 0.0
C1155 C 0.94171 0.43659 0.0836 0.0
C1156 C 0.93355 0.38265 0.1088 0.0
C1157 C 0.90567 0.38849 0.12936 0.0
C1158 C 0.89729 0.41956 0.12789 0.0
C1159 C 0.91538 0.44313 0.10519 0.0
C1160 C 0.94353 0.35011 0.11017 0.0
C1161 C 0.86779 0.42687 0.14922 0.0
H1162 H 0.80095 0.29024 0.15646 0.0
H1163 H 0.87119 0.3526 0.22958 0.0
H1164 H 0.83565 0.34824 0.10227 0.0
H1165 H 0.86373 0.3225 0.09145 0.0
H1166 H 0.81714 0.29851 0.10329 0.0
H1167 H 0.9295 0.39636 0.21894 0.0
H1168 H 0.94858 0.39631 0.17882 0.0
H1169 H 0.92488 0.42586 0.19388 0.0
H1170 H 0.97188 0.40187 0.0696 0.0
H1171 H 0.90811 0.46637 0.10383 0.0
H1172 H 0.92007 0.32343 0.10584 0.0
H1173 H 0.95156 0.35178 0.13401 0.0
H1174 H 0.96577 0.34937 0.09265 0.0
H1175 H 0.84204 0.40319 0.14436 0.0
H1176 H 0.86544 0.45306 0.14587 0.0
H1177 H 0.87234 0.42863 0.17423 0.0
C1178 C 0.68523 0.87823 0.13339 0.0
C1179 C 0.68716 0.89406 0.16504 0.0
C1180 C 0.66053 0.88026 0.115 0.0
C1181 C 0.63719 0.89819 0.12884 0.0
C1182 C 0.63679 0.91075 0.16155 0.0
C1183 C 0.66203 0.90881 0.17921 0.0
C1184 C 0.66191 0.8667 0.08016 0.0
C1185 C 0.61198 0.92937 0.17738 0.0
C1186 C 0.62071 0.95667 0.07706 0.0
C1187 C 0.58704 0.9332 0.06635 0.0
C1188 C 0.63691 0.94557 0.09757 0.0
C1189 C 0.61875 0.91037 0.10838 0.0
C1190 C 0.58401 0.88722 0.09901 0.0
C1191 C 0.56863 0.89877 0.07784 0.0
C1192 C 0.67406 0.97118 0.10689 0.0
C1193 C 0.56357 0.84983 0.11052 0.0
H1194 H 0.70479 0.86692 0.12247 0.0
H1195 H 0.66346 0.92076 0.20382 0.0
H1196 H 0.63459 0.85064 0.07226 0.0
H1197 H 0.67447 0.89115 0.06703 0.0
H1198 H 0.67761 0.84884 0.07388 0.0
H1199 H 0.61006 0.9308 0.2034 0.0
H1200 H 0.62213 0.95832 0.17153 0.0
H1201 H 0.58484 0.91424 0.16887 0.0
H1202 H 0.63523 0.9834 0.06851 0.0
H1203 H 0.54262 0.88045 0.06974 0.0
H1204 H 0.69247 0.95631 0.10065 0.0
H1205 H 0.67361 0.97966 0.13273 0.0
H1206 H 0.68517 0.99681 0.0952 0.0
H1207 H 0.57575 0.82982 0.09899 0.0
H1208 H 0.53506 0.83804 0.10517 0.0
H1209 H 0.56497 0.8523 0.13628 0.0
C1210 C 0.23953 0.66952 0.1553 0.0
C1211 C 0.21874 0.67751 0.18184 0.0
C1212 C 0.22349 0.64775 0.12785 0.0
C1213 C 0.1859 0.63386 0.12707 0.0
C1214 C 0.16477 0.63985 0.15457 0.0
C1215 C 0.18145 0.66159 0.18156 0.0
C1216 C 0.24687 0.64127 0.09929 0.0
C1217 C 0.12453 0.62498 0.15503 0.0
C1218 C 0.13588 0.62453 0.05749 0.0
C1219 C 0.11602 0.58585 0.05284 0.0
C1220 C 0.16191 0.64042 0.07942 0.0
C1221 C 0.16832 0.61701 0.09704 0.0
C1222 C 0.15169 0.57766 0.08951 0.0
C1223 C 0.12556 0.56245 0.06745 0.0
C1224 C 0.17935 0.6825 0.08629 0.0
C1225 C 0.15852 0.55158 0.10699 0.0
H1226 H 0.26839 0.68156 0.15549 0.0
H1227 H 0.1652 0.66706 0.20224 0.0
H1228 H 0.2353 0.61189 0.08781 0.0
H1229 H 0.24856 0.65958 0.08191 0.0
H1230 H 0.27438 0.64763 0.10535 0.0
H1231 H 0.11193 0.63 0.17886 0.0
H1232 H 0.11673 0.63868 0.13868 0.0
H1233 H 0.11357 0.59448 0.14686 0.0
H1234 H 0.12918 0.64274 0.04575 0.0
H1235 H 0.1106 0.53246 0.06379 0.0
H1236 H 0.20827 0.69173 0.08906 0.0
H1237 H 0.16703 0.69207 0.10876 0.0
H1238 H 0.17604 0.69642 0.06745 0.0
H1239 H 0.18611 0.56368 0.11469 0.0
H1240 H 0.15407 0.52428 0.09215 0.0
H1241 H 0.13967 0.54628 0.12825 0.0
C1242 C 0.29402 0.81228 0.86461 0.0
C1243 C 0.31006 0.81913 0.83447 0.0
C1244 C 0.31123 0.83406 0.89145 0.0
C1245 C 0.34645 0.8612 0.88792 0.0
C1246 C 0.36254 0.86832 0.85729 0.0
C1247 C 0.34359 0.84791 0.83091 0.0
C1248 C 0.29218 0.8267 0.92344 0.0
C1249 C 0.40077 0.89527 0.85223 0.0
C1250 C 0.40212 0.93222 0.95161 0.0
C1251 C 0.42136 0.91279 0.95932 0.0
C1252 C 0.37526 0.91476 0.93021 0.0
C1253 C 0.3686 0.87771 0.91547 0.0
C1254 C 0.38618 0.8573 0.92489 0.0
C1255 C 0.41146 0.87473 0.9473 0.0
C1256 C 0.35512 0.93636 0.92228 0.0
C1257 C 0.38066 0.81803 0.9094 0.0
H1258 H 0.26809 0.78971 0.8672 0.0
H1259 H 0.35596 0.85267 0.80742 0.0
H1260 H 0.29927 0.80613 0.93248 0.0
H1261 H 0.29986 0.85266 0.94057 0.0
H1262 H 0.26272 0.81476 0.92216 0.0
H1263 H 0.40897 0.89813 0.82697 0.0
H1264 H 0.40464 0.92329 0.86531 0.0
H1265 H 0.41881 0.8853 0.86147 0.0
H1266 H 0.40911 0.96142 0.96105 0.0
H1267 H 0.42547 0.85903 0.95354 0.0
H1268 H 0.326 0.91914 0.92357 0.0
H1269 H 0.36306 0.94286 0.89782 0.0
H1270 H 0.36026 0.96302 0.93835 0.0
H1271 H 0.35228 0.79908 0.91276 0.0
H1272 H 0.39721 0.80643 0.91895 0.0
H1273 H 0.38753 0.81785 0.88368 0.0
C1274 C 0.2144 0.31491 0.84621 0.0
C1275 C 0.21077 0.30783 0.81363 0.0
C1276 C 0.19542 0.33356 0.86697 0.0
C1277 C 0.17308 0.34698 0.85492 0.0
C1278 C 0.17043 0.34131 0.8219 0.0
C1279 C 0.18894 0.32158 0.80178 0.0
C1280 C 0.19862 0.33793 0.90192 0.0
C1281 C 0.14781 0.35591 0.80778 0.0
C1282 C 0.09667 0.36352 0.908 0.0
C1283 C 0.11144 0.40227 0.91808 0.0
C1284 C 0.11648 0.34528 0.88791 0.0
C1285 C 0.15193 0.36618 0.8768 0.0
C1286 C 0.16698 0.40534 0.88664 0.0
C1287 C 0.14677 0.4228 0.90731 0.0
C1288 C 0.09951 0.30343 0.87883 0.0
C1289 C 0.20453 0.42883 0.87528 0.0
H1290 H 0.23213 0.30584 0.85564 0.0
H1291 H 0.18617 0.31686 0.77666 0.0
H1292 H 0.20396 0.36715 0.91281 0.0
H1293 H 0.17298 0.31976 0.91313 0.0
H1294 H 0.22018 0.33009 0.90731 0.0
H1295 H 0.15014 0.3512 0.78164 0.0
H1296 H 0.11937 0.34192 0.81602 0.0
H1297 H 0.15581 0.38633 0.81571 0.0
H1298 H 0.0696 0.34713 0.91629 0.0
H1299 H 0.15859 0.45266 0.91481 0.0
H1300 H 0.11606 0.29002 0.88576 0.0
H1301 H 0.09826 0.29664 0.85292 0.0
H1302 H 0.07206 0.291 0.89005 0.0
H1303 H 0.22374 0.41912 0.88281 0.0
H1304 H 0.21218 0.45897 0.8844 0.0
H1305 H 0.20711 0.42554 0.84917 0.0
C1306 C 0.70293 0.19906 0.84722 0.0
C1307 C 0.69354 0.20202 0.81817 0.0
C1308 C 0.67803 0.17543 0.8676 0.0
C1309 C 0.64256 0.1545 0.859 0.0
C1310 C 0.63252 0.15842 0.83021 0.0
C1311 C 0.65814 0.18208 0.81011 0.0
C1312 C 0.69023 0.1717 0.89774 0.0
C1313 C 0.59513 0.13634 0.82008 0.0
C1314 C 0.59981 0.06473 0.8954 0.0
C1315 C 0.58108 0.07506 0.9224 0.0
C1316 C 0.61776 0.08944 0.87342 0.0
C1317 C 0.61741 0.12575 0.87864 0.0
C1318 C 0.59611 0.13535 0.90459 0.0
C1319 C 0.57803 0.10974 0.92626 0.0
C1320 C 0.64024 0.07778 0.84657 0.0
C1321 C 0.59465 0.17359 0.91077 0.0
H1322 H 0.7301 0.21466 0.85384 0.0
H1323 H 0.65067 0.184 0.78762 0.0
H1324 H 0.67206 0.17609 0.91806 0.0
H1325 H 0.68935 0.14301 0.8966 0.0
H1326 H 0.7179 0.19192 0.90206 0.0
H1327 H 0.5913 0.14304 0.79732 0.0
H1328 H 0.58915 0.10596 0.81762 0.0
H1329 H 0.57553 0.1421 0.83832 0.0
H1330 H 0.60217 0.03788 0.89239 0.0
H1331 H 0.56379 0.11791 0.94729 0.0
H1332 H 0.668 0.08914 0.8536 0.0
H1333 H 0.64026 0.08899 0.82481 0.0
H1334 H 0.63113 0.04687 0.84134 0.0
H1335 H 0.62019 0.19437 0.9199 0.0
H1336 H 0.57248 0.17456 0.92833 0.0
H1337 H 0.59138 0.18214 0.88869 0.0
C1338 C 0.92271 0.64881 0.8257 0.0
C1339 C 0.91777 0.68224 0.83645 0.0
C1340 C 0.9339 0.63181 0.84561 0.0
C1341 C 0.93976 0.64829 0.87722 0.0
C1342 C 0.93488 0.68206 0.88828 0.0
C1343 C 0.92396 0.69868 0.86775 0.0
C1344 C 0.93969 0.59633 0.83276 0.0
C1345 C 0.94117 0.70058 0.92179 0.0
C1346 C 0.93203 0.5851 0.93668 0.0
C1347 C 0.96786 0.59535 0.94243 0.0
C1348 C 0.92263 0.60217 0.91556 0.0
C1349 C 0.94976 0.62945 0.89901 0.0
C1350 C 0.98609 0.63894 0.90374 0.0
C1351 C 0.99467 0.6223 0.92592 0.0
C1352 C 0.88357 0.59182 0.91172 0.0
C1353 C 1.01601 0.66729 0.88614 0.0
H1354 H 0.91752 0.6357 0.80168 0.0
H1355 H 0.92069 0.7248 0.8761 0.0
H1356 H 0.96741 0.60031 0.83612 0.0
H1357 H 0.92141 0.57322 0.84585 0.0
H1358 H 0.93511 0.58778 0.80734 0.0
H1359 H 0.93566 0.72647 0.92689 0.0
H1360 H 0.92391 0.68092 0.93834 0.0
H1361 H 0.9693 0.7078 0.92644 0.0
H1362 H 0.91104 0.56467 0.94966 0.0
H1363 H 0.02231 0.63038 0.93033 0.0
H1364 H 0.87779 0.58165 0.8867 0.0
H1365 H 0.87698 0.61694 0.91867 0.0
H1366 H 0.86575 0.56983 0.92617 0.0
H1367 H 1.00898 0.66772 0.8624 0.0
H1368 H 0.04057 0.66141 0.88338 0.0
H1369 H 0.02212 0.69555 0.89968 0.0
C1370 C 0.11726 0.3189 0.146 0.0
C1371 C 0.13961 0.306 0.12398 0.0
C1372 C 0.1014 0.34141 0.13786 0.0
C1373 C 0.1078 0.35083 0.10693 0.0
C1374 C 0.13121 0.33884 0.08496 0.0
C1375 C 0.14698 0.31682 0.09382 0.0
C1376 C 0.077 0.35413 0.16202 0.0
C1377 C 0.13884 0.3484 0.05172 0.0
C1378 C 0.04384 0.37106 0.06535 0.0
C1379 C 0.06284 0.40917 0.06287 0.0
C1380 C 0.05671 0.35214 0.08199 0.0
C1381 C 0.08921 0.3719 0.09663 0.0
C1382 C 0.10655 0.41106 0.0969 0.0
C1383 C 0.0932 0.42924 0.07992 0.0
C1384 C 0.03731 0.31036 0.08123 0.0
C1385 C 0.14089 0.43328 0.11275 0.0
H1386 H 0.11122 0.31042 0.16929 0.0
H1387 H 0.16481 0.3076 0.07693 0.0
H1388 H 0.08426 0.38461 0.16302 0.0
H1389 H 0.04909 0.3397 0.15518 0.0
H1390 H 0.07803 0.34809 0.18589 0.0
H1391 H 0.15799 0.33724 0.03765 0.0
H1392 H 0.11364 0.33679 0.03966 0.0
H1393 H 0.14999 0.37918 0.05207 0.0
H1394 H 0.0203 0.35528 0.05239 0.0
H1395 H 0.10785 0.45879 0.07848 0.0
H1396 H 0.0353 0.30211 0.10483 0.0
H1397 H 0.05257 0.29605 0.06489 0.0
H1398 H 1.00999 0.30021 0.07316 0.0
H1399 H 0.1396 0.42426 0.1359 0.0
H1400 H 0.14702 0.46378 0.11626 0.0
H1401 H 0.16328 0.42837 0.09791 0.0
C1402 C 0.16267 0.66705 0.80661 0.0
C1403 C 0.1984 0.68724 0.81347 0.0
C1404 C 0.13759 0.64595 0.82848 0.0
C1405 C 0.14879 0.64434 0.85749 0.0
C1406 C 0.18471 0.66525 0.86474 0.0
C1407 C 0.20901 0.68656 0.84269 0.0
C1408 C 0.0993 0.62479 0.82034 0.0
C1409 C 0.19791 0.66397 0.89526 0.0
C1410 C 0.08558 0.60532 0.92714 0.0
C1411 C 0.08667 0.56981 0.92409 0.0
C1412 C 0.10448 0.62966 0.90476 0.0
C1413 C 0.12428 0.61773 0.87885 0.0
C1414 C 0.1235 0.58103 0.87485 0.0
C1415 C 0.10483 0.55763 0.89758 0.0
C1416 C 0.1055 0.66895 0.91002 0.0
C1417 C 0.14436 0.56726 0.84766 0.0
H1418 H 0.15441 0.66725 0.78395 0.0
H1419 H 0.23651 0.7025 0.84829 0.0
H1420 H 0.0915 0.59441 0.82044 0.0
H1421 H 0.08141 0.63384 0.83841 0.0
H1422 H 0.09483 0.62923 0.7969 0.0
H1423 H 0.22598 0.68387 0.89818 0.0
H1424 H 0.18085 0.67058 0.91558 0.0
H1425 H 0.19624 0.63531 0.89597 0.0
H1426 H 0.072 0.61491 0.94792 0.0
H1427 H 0.10554 0.53008 0.89526 0.0
H1428 H 0.10291 0.67738 0.88764 0.0
H1429 H 0.13165 0.68872 0.91862 0.0
H1430 H 0.08425 0.67203 0.92772 0.0
H1431 H 0.13774 0.57149 0.82501 0.0
H1432 H 0.13896 0.53716 0.84684 0.0
H1433 H 0.17338 0.5836 0.84977 0.0
C1434 C 0.3349 0.12035 0.89523 0.0
C1435 C 0.33814 0.12105 0.86277 0.0
C1436 C 0.36217 0.11849 0.91027 0.0
C1437 C 0.39312 0.11669 0.89221 0.0
C1438 C 0.39749 0.11999 0.8597 0.0
C1439 C 0.36983 0.12222 0.8453 0.0
C1440 C 0.35655 0.11546 0.94505 0.0
C1441 C 0.42992 0.118 0.83961 0.0
C1442 C 0.46476 0.12173 0.94196 0.0
C1443 C 0.45415 0.08382 0.94499 0.0
C1444 C 0.44675 0.13302 0.92298 0.0
C1445 C 0.41771 0.10571 0.90664 0.0
C1446 C 0.40903 0.0673 0.90751 0.0
C1447 C 0.42728 0.05685 0.92671 0.0
C1448 C 0.45699 0.17421 0.92247 0.0
C1449 C 0.37853 0.03718 0.89017 0.0
H1450 H 0.3102 0.11935 0.90856 0.0
H1451 H 0.372 0.12245 0.82009 0.0
H1452 H 0.35195 0.08664 0.94859 0.0
H1453 H 0.38067 0.13484 0.95722 0.0
H1454 H 0.33326 0.1218 0.95631 0.0
H1455 H 0.43237 0.12769 0.8165 0.0
H1456 H 0.45466 0.13506 0.85179 0.0
H1457 H 0.42782 0.08862 0.83529 0.0
H1458 H 0.48551 0.14277 0.95598 0.0
H1459 H 0.41918 0.02746 0.92861 0.0
H1460 H 0.43713 0.18334 0.93768 0.0
H1461 H 0.45684 0.17996 0.89833 0.0
H1462 H 0.4838 0.19126 0.93126 0.0
H1463 H 0.35279 0.03716 0.90211 0.0
H1464 H 0.37867 0.00895 0.88946 0.0
H1465 H 0.37972 0.04258 0.86568 0.0
C1466 C 0.84743 0.35248 0.82897 0.0
C1467 C 0.81063 0.33176 0.82832 0.0
C1468 C 0.86302 0.37012 0.85736 0.0
C1469 C 0.84104 0.36827 0.88581 0.0
C1470 C 0.8036 0.34855 0.88516 0.0
C1471 C 0.78874 0.33057 0.8563 0.0
C1472 C 0.90329 0.38865 0.85702 0.0
C1473 C 0.77967 0.34427 0.91513 0.0
C1474 C 0.89464 0.3792 0.95323 0.0
C1475 C 0.91317 0.41813 0.95756 0.0
C1476 C 0.86763 0.36205 0.93237 0.0
C1477 C 0.85833 0.38459 0.91603 0.0
C1478 C 0.87259 0.42394 0.92458 0.0
C1479 C 0.9004 0.44044 0.94498 0.0
C1480 C 0.85163 0.31984 0.92673 0.0
C1481 C 0.86074 0.44874 0.91002 0.0
H1482 H 0.86434 0.35356 0.80728 0.0
H1483 H 0.76029 0.3141 0.85585 0.0
H1484 H 0.91166 0.41896 0.8655 0.0
H1485 H 0.91316 0.37646 0.87311 0.0
H1486 H 0.9165 0.38534 0.83315 0.0
H1487 H 0.75096 0.33215 0.91047 0.0
H1488 H 0.78415 0.32531 0.9286 0.0
H1489 H 0.78622 0.37171 0.93022 0.0
H1490 H 0.90319 0.36174 0.96417 0.0
H1491 H 0.91382 0.47063 0.94898 0.0
H1492 H 0.87314 0.3089 0.92294 0.0
H1493 H 0.83466 0.30804 0.90659 0.0
H1494 H 0.83508 0.30932 0.94818 0.0
H1495 H 0.87446 0.45285 0.88624 0.0
H1496 H 0.86732 0.47668 0.92437 0.0
H1497 H 0.83152 0.43558 0.9074 0.0
C1498 C 0.70585 0.8103 0.843 0.0
C1499 C 0.71763 0.81828 0.81207 0.0
C1500 C 0.68811 0.83015 0.86378 0.0
C1501 C 0.6807 0.8582 0.85329 0.0
C1502 C 0.69163 0.86575 0.8218 0.0
C1503 C 0.71014 0.84596 0.80169 0.0
C1504 C 0.67745 0.82111 0.89708 0.0
C1505 C 0.68347 0.89457 0.80924 0.0
C1506 C 0.6034 0.88135 0.89792 0.0
C1507 C 0.62102 0.91507 0.91718 0.0
C1508 C 0.62243 0.86306 0.87683 0.0
C1509 C 0.66027 0.87842 0.87486 0.0
C1510 C 0.67832 0.9125 0.89408 0.0
C1511 C 0.65857 0.93054 0.91473 0.0
C1512 C 0.60192 0.82687 0.8569 0.0
C1513 C 0.71857 0.92952 0.89328 0.0
H1514 H 0.71029 0.78821 0.85109 0.0
H1515 H 0.71872 0.8522 0.77781 0.0
H1516 H 0.69193 0.84595 0.91377 0.0
H1517 H 0.64848 0.81422 0.9027 0.0
H1518 H 0.68349 0.79725 0.90111 0.0
H1519 H 0.69366 0.89723 0.78429 0.0
H1520 H 0.65417 0.8869 0.81105 0.0
H1521 H 0.69552 0.92223 0.82363 0.0
H1522 H 0.57447 0.86897 0.89937 0.0
H1523 H 0.6726 0.95632 0.92955 0.0
H1524 H 0.60777 0.80379 0.86291 0.0
H1525 H 0.61048 0.8291 0.83164 0.0
H1526 H 0.5726 0.81926 0.86023 0.0
H1527 H 0.72843 0.90959 0.89993 0.0
H1528 H 0.72872 0.95616 0.90947 0.0
H1529 H 0.73001 0.93494 0.86904 0.0
C1530 C 0.84599 0.71735 0.16607 0.0
C1531 C 0.82105 0.69984 0.18975 0.0
C1532 C 0.86477 0.69856 0.14521 0.0
C1533 C 0.85966 0.66164 0.14874 0.0
C1534 C 0.83518 0.64406 0.17307 0.0
C1535 C 0.81592 0.66307 0.19288 0.0
C1536 C 0.88986 0.71817 0.11918 0.0
C1537 C 0.82969 0.6053 0.17854 0.0
C1538 C 0.8854 0.59827 0.08079 0.0
C1539 C 0.91992 0.6039 0.08744 0.0
C1540 C 0.86579 0.61731 0.10015 0.0
C1541 C 0.88044 0.64168 0.1275 0.0
C1542 C 0.91495 0.64675 0.13472 0.0
C1543 C 0.93444 0.62835 0.11438 0.0
C1544 C 0.82963 0.61186 0.09097 0.0
C1545 C 0.93126 0.67153 0.16405 0.0
H1546 H 0.85096 0.74577 0.1637 0.0
H1547 H 0.79719 0.64914 0.21128 0.0
H1548 H 0.91708 0.71941 0.12073 0.0
H1549 H 0.88071 0.70213 0.09603 0.0
H1550 H 0.89146 0.74708 0.11995 0.0
H1551 H 0.8106 0.59596 0.1991 0.0
H1552 H 0.81948 0.58495 0.15741 0.0
H1553 H 0.85559 0.60465 0.18251 0.0
H1554 H 0.87412 0.57981 0.05985 0.0
H1555 H 0.96101 0.63279 0.11979 0.0
H1556 H 0.82921 0.63929 0.08875 0.0
H1557 H 0.80875 0.59971 0.10958 0.0
H1558 H 0.82256 0.59316 0.06837 0.0
H1559 H 0.9347 0.70073 0.16317 0.0
H1560 H 0.95766 0.67136 0.16704 0.0
H1561 H 0.91313 0.66221 0.1851 0.0
C1562 C 0.33781 0.81691 0.1636 0.0
C1563 C 0.34595 0.81543 0.19359 0.0
C1564 C 0.36318 0.84046 0.14346 0.0
C1565 C 0.39802 0.86257 0.15319 0.0
C1566 C 0.40704 0.85968 0.18278 0.0
C1567 C 0.38083 0.83629 0.20272 0.0
C1568 C 0.35209 0.84289 0.11233 0.0
C1569 C 0.44395 0.88232 0.19387 0.0
C1570 C 0.46263 0.90732 0.08612 0.0
C1571 C 0.45804 0.94111 0.089 0.0
C1572 C 0.44531 0.88222 0.1083 0.0
C1573 C 0.42322 0.89144 0.13372 0.0
C1574 C 0.42152 0.92712 0.13812 0.0
C1575 C 0.43877 0.95137 0.11565 0.0
C1576 C 0.44849 0.84481 0.1032 0.0
C1577 C 0.39883 0.93842 0.16502 0.0
H1578 H 0.31129 0.80001 0.15597 0.0
H1579 H 0.38744 0.83514 0.22582 0.0
H1580 H 0.35224 0.87115 0.11256 0.0
H1581 H 0.37131 0.83877 0.09289 0.0
H1582 H 0.32494 0.82185 0.10727 0.0
H1583 H 0.44832 0.87273 0.215 0.0
H1584 H 0.46462 0.88068 0.17492 0.0
H1585 H 0.44775 0.91215 0.19988 0.0
H1586 H 0.47749 0.89932 0.06549 0.0
H1587 H 0.43557 0.97774 0.11804 0.0
H1588 H 0.42376 0.82298 0.09349 0.0
H1589 H 0.45146 0.83711 0.12579 0.0
H1590 H 0.47154 0.84468 0.08646 0.0
H1591 H 0.37055 0.91978 0.16219 0.0
H1592 H 0.40164 0.96781 0.16603 0.0
H1593 H 0.40578 0.93487 0.18777 0.0
C1594 C 0.69607 0.15232 0.18026 0.0
C1595 C 0.72685 0.18484 0.17837 0.0
C1596 C 0.67845 0.13239 0.15309 0.0
C1597 C 0.6936 0.14396 0.12332 0.0
C1598 C 0.72746 0.17373 0.12123 0.0
C1599 C 0.74299 0.19484 0.14894 0.0
C1600 C 0.64209 0.10134 0.15668 0.0
C1601 C 0.74642 0.18482 0.08999 0.0
C1602 C 0.63759 0.07997 0.0568 0.0
C1603 C 0.61728 0.10009 0.05284 0.0
C1604 C 0.6649 0.09512 0.07781 0.0
C1605 C 0.67091 0.13041 0.09609 0.0
C1606 C 0.65212 0.15176 0.09054 0.0
C1607 C 0.62635 0.13675 0.06845 0.0
C1608 C 0.68585 0.07237 0.08136 0.0
C1609 C 0.65723 0.18947 0.10948 0.0
H1610 H 0.68401 0.14461 0.20322 0.0
H1611 H 0.7675 0.21951 0.14763 0.0
H1612 H 0.62188 0.10785 0.14701 0.0
H1613 H 0.64238 0.0748 0.14322 0.0
H1614 H 0.63352 0.09698 0.18164 0.0
H1615 H 0.77584 0.19777 0.09158 0.0
H1616 H 0.73986 0.16035 0.07127 0.0
H1617 H 0.73825 0.2058 0.08299 0.0
H1618 H 0.6313 0.05187 0.04455 0.0
H1619 H 0.61147 0.15301 0.06519 0.0
H1620 H 0.6713 0.05316 0.09898 0.0
H1621 H 0.71286 0.09033 0.08929 0.0
H1622 H 0.68864 0.05491 0.0588 0.0
H1623 H 0.6546 0.18764 0.13502 0.0
H1624 H 0.63765 0.20044 0.10463 0.0
H1625 H 0.68439 0.21008 0.1039 0.0
C1626 C 0.66835 0.69268 0.82612 0.0
C1627 C 0.69382 0.68013 0.80875 0.0
C1628 C 0.64712 0.67505 0.85163 0.0
C1629 C 0.65055 0.64326 0.85942 0.0
C1630 C 0.67552 0.62982 0.84126 0.0
C1631 C 0.69728 0.6488 0.81655 0.0
C1632 C 0.62201 0.69135 0.87092 0.0
C1633 C 0.67973 0.59575 0.84837 0.0
C1634 C 0.62718 0.61717 0.94266 0.0
C1635 C 0.59347 0.58781 0.94019 0.0
C1636 C 0.64528 0.63625 0.91695 0.0
C1637 C 0.62978 0.62534 0.88763 0.0
C1638 C 0.5953 0.59632 0.88515 0.0
C1639 C 0.5774 0.57818 0.91154 0.0
C1640 C 0.68118 0.66805 0.92118 0.0
C1641 C 0.57792 0.58341 0.85431 0.0
H1642 H 0.66603 0.71734 0.82057 0.0
H1643 H 0.71698 0.63908 0.80324 0.0
H1644 H 0.59447 0.66972 0.87207 0.0
H1645 H 0.63019 0.70088 0.8954 0.0
H1646 H 0.62169 0.71548 0.86122 0.0
H1647 H 0.69811 0.58705 0.8306 0.0
H1648 H 0.69036 0.60168 0.87183 0.0
H1649 H 0.65336 0.57205 0.84923 0.0
H1650 H 0.63962 0.62516 0.96479 0.0
H1651 H 0.55143 0.55545 0.90935 0.0
H1652 H 0.67988 0.69404 0.91608 0.0
H1653 H 0.70187 0.66231 0.90431 0.0
H1654 H 0.68972 0.67298 0.94541 0.0
H1655 H 0.57708 0.60744 0.84494 0.0
H1656 H 0.55029 0.56203 0.85662 0.0
H1657 H 0.59405 0.57131 0.83672 0.0
C1658 C 0.36443 0.60292 0.83303 0.0
C1659 C 0.37456 0.60249 0.80085 0.0
C1660 C 0.38504 0.59736 0.85344 0.0
C1661 C 0.41683 0.59207 0.8413 0.0
C1662 C 0.42809 0.59374 0.80901 0.0
C1663 C 0.4065 0.59848 0.78904 0.0
C1664 C 0.37189 0.59529 0.88766 0.0
C1665 C 0.46207 0.58895 0.79532 0.0
C1666 C 0.47521 0.59955 0.90493 0.0
C1667 C 0.46258 0.5621 0.91018 0.0
C1668 C 0.46236 0.60967 0.88103 0.0
C1669 C 0.43633 0.58167 0.86204 0.0
C1670 C 0.42593 0.54358 0.86539 0.0
C1671 C 0.43931 0.53425 0.88931 0.0
C1672 C 0.47459 0.65053 0.87776 0.0
C1673 C 0.39839 0.51282 0.84545 0.0
H1674 H 0.33957 0.60593 0.84194 0.0
H1675 H 0.41421 0.59843 0.76405 0.0
H1676 H 0.36557 0.56679 0.8932 0.0
H1677 H 0.39305 0.61515 0.90296 0.0
H1678 H 0.3476 0.60173 0.89362 0.0
H1679 H 0.46949 0.59612 0.77095 0.0
H1680 H 0.48447 0.60672 0.81016 0.0
H1681 H 0.45857 0.55947 0.79488 0.0
H1682 H 0.49339 0.6213 0.92072 0.0
H1683 H 0.42958 0.50518 0.89291 0.0
H1684 H 0.45311 0.66048 0.88775 0.0
H1685 H 0.48004 0.65478 0.85262 0.0
H1686 H 0.49902 0.668 0.89032 0.0
H1687 H 0.37192 0.51456 0.85191 0.0
H1688 H 0.39605 0.48458 0.84865 0.0
H1689 H 0.40514 0.51612 0.82017 0.0
C1690 C 0.37068 0.30865 0.81318 0.0
C1691 C 0.33981 0.31478 0.81116 0.0
C1692 C 0.39153 0.32571 0.839 0.0
C1693 C 0.38021 0.34796 0.86396 0.0
C1694 C 0.34828 0.35317 0.86241 0.0
C1695 C 0.32896 0.33733 0.83553 0.0
C1696 C 0.42613 0.32073 0.83917 0.0
C1697 C 0.33449 0.37534 0.88908 0.0
C1698 C 0.42558 0.36959 0.9403 0.0
C1699 C 0.45007 0.40632 0.93853 0.0
C1700 C 0.40167 0.35047 0.91665 0.0
C1701 C 0.40338 0.36822 0.89034 0.0
C1702 C 0.42832 0.40523 0.88852 0.0
C1703 C 0.45086 0.424 0.91288 0.0
C1704 C 0.37429 0.31159 0.91994 0.0
C1705 C 0.43185 0.42479 0.86046 0.0
H1706 H 0.3789 0.29114 0.79418 0.0
H1707 H 0.3046 0.34138 0.8341 0.0
H1708 H 0.44876 0.3484 0.84029 0.0
H1709 H 0.42592 0.3084 0.86034 0.0
H1710 H 0.43103 0.30247 0.81795 0.0
H1711 H 0.30704 0.37255 0.88594 0.0
H1712 H 0.33433 0.36593 0.9118 0.0
H1713 H 0.35238 0.40537 0.89064 0.0
H1714 H 0.42462 0.35623 0.96043 0.0
H1715 H 0.4699 0.45244 0.91148 0.0
H1716 H 0.3773 0.29156 0.89939 0.0
H1717 H 0.34707 0.3113 0.92036 0.0
H1718 H 0.3765 0.30166 0.94173 0.0
H1719 H 0.43788 0.40817 0.83861 0.0
H1720 H 0.45323 0.45334 0.86241 0.0
H1721 H 0.40629 0.42704 0.85793 0.0
C1722 C 0.6837 0.33821 0.88095 0.0
C1723 C 0.64828 0.31618 0.87361 0.0
C1724 C 0.69123 0.3685 0.90503 0.0
C1725 C 0.66266 0.37596 0.92236 0.0
C1726 C 0.6268 0.35223 0.91645 0.0
C1727 C 0.62009 0.32242 0.89212 0.0
C1728 C 0.72953 0.39345 0.91112 0.0
C1729 C 0.5955 0.35992 0.93412 0.0
C1730 C 0.65511 0.43425 0.99763 0.0
C1731 C 0.64937 0.46188 0.9857 0.0
C1732 C 0.6658 0.40844 0.97718 0.0
C1733 C 0.66958 0.41049 0.94458 0.0
C1734 C 0.67028 0.4425 0.93349 0.0
C1735 C 0.66066 0.46855 0.95468 0.0
C1736 C 0.66699 0.37573 0.98981 0.0
C1737 C 0.67456 0.44587 0.89881 0.0
H1738 H 0.70551 0.333 0.86671 0.0
H1739 H 0.59285 0.3057 0.8861 0.0
H1740 H 0.73409 0.42343 0.91324 0.0
H1741 H 0.73545 0.38902 0.93396 0.0
H1742 H 0.74859 0.38781 0.8922 0.0
H1743 H 0.56941 0.3385 0.92658 0.0
H1744 H 0.59613 0.36061 0.95975 0.0
H1745 H 0.59717 0.38768 0.93024 0.0
H1746 H 0.64639 0.42962 0.0219 0.0
H1747 H 0.65603 0.49022 0.94583 0.0
H1748 H 0.68834 0.36724 0.97677 0.0
H1749 H 0.64113 0.35153 0.98673 0.0
H1750 H 0.67157 0.38245 0.01529 0.0
H1751 H 0.68032 0.47483 0.89471 0.0
H1752 H 0.64944 0.4269 0.88785 0.0
H1753 H 0.69629 0.43749 0.88666 0.0
C1754 C 0.64464 0.40178 0.19482 0.0
C1755 C 0.67083 0.39498 0.17312 0.0
C1756 C 0.61851 0.41149 0.18514 0.0
C1757 C 0.61891 0.41506 0.1531 0.0
C1758 C 0.64464 0.40718 0.13099 0.0
C1759 C 0.66995 0.39692 0.14121 0.0
C1760 C 0.59131 0.41913 0.2094 0.0
C1761 C 0.64613 0.41062 0.09654 0.0
C1762 C 0.54494 0.41612 0.11025 0.0
C1763 C 0.5586 0.45378 0.10532 0.0
C1764 C 0.56233 0.40345 0.12868 0.0
C1765 C 0.59409 0.42901 0.14237 0.0
C1766 C 0.60535 0.46767 0.14072 0.0
C1767 C 0.58726 0.47962 0.12248 0.0
C1768 C 0.54876 0.36215 0.13068 0.0
C1769 C 0.6389 0.49602 0.15515 0.0
H1770 H 0.64517 0.40065 0.21956 0.0
H1771 H 0.68942 0.39078 0.1241 0.0
H1772 H 0.59792 0.44967 0.21415 0.0
H1773 H 0.56422 0.4056 0.20059 0.0
H1774 H 0.59071 0.40905 0.23194 0.0
H1775 H 0.66743 0.40294 0.08231 0.0
H1776 H 0.62015 0.39234 0.08677 0.0
H1777 H 0.65112 0.43981 0.09383 0.0
H1778 H 0.52249 0.3959 0.09759 0.0
H1779 H 0.5978 0.50892 0.11938 0.0
H1780 H 0.5514 0.35716 0.15447 0.0
H1781 H 0.56493 0.34964 0.11356 0.0
H1782 H 0.52036 0.34748 0.12508 0.0
H1783 H 0.63998 0.49092 0.17929 0.0
H1784 H 0.6409 0.52514 0.15612 0.0
H1785 H 0.66256 0.49332 0.14083 0.0
C1786 C 0.69788 0.67218 0.17046 0.0
C1787 C 0.69176 0.6982 0.19454 0.0
C1788 C 0.67546 0.65631 0.14563 0.0
C1789 C 0.64538 0.66546 0.1459 0.0
C1790 C 0.63878 0.69119 0.17063 0.0
C1791 C 0.66258 0.70792 0.19438 0.0
C1792 C 0.68407 0.63002 0.11909 0.0
C1793 C 0.60616 0.70037 0.17241 0.0
C1794 C 0.59662 0.64454 0.07183 0.0
C1795 C 0.57009 0.60927 0.0755 0.0
C1796 C 0.62196 0.66306 0.09436 0.0
C1797 C 0.61957 0.64627 0.12142 0.0
C1798 C 0.59233 0.6109 0.12531 0.0
C1799 C 0.56836 0.59255 0.10197 0.0
C1800 C 0.65166 0.70007 0.08897 0.0
C1801 C 0.58832 0.59247 0.15417 0.0
H1802 H 0.72099 0.66535 0.17045 0.0
H1803 H 0.65806 0.72809 0.21316 0.0
H1804 H 0.66321 0.60139 0.11921 0.0
H1805 H 0.68428 0.6389 0.0961 0.0
H1806 H 0.71036 0.62887 0.12088 0.0
H1807 H 0.60494 0.72088 0.19329 0.0
H1808 H 0.60592 0.71194 0.15094 0.0
H1809 H 0.58169 0.67445 0.17352 0.0
H1810 H 0.59817 0.65699 0.051 0.0
H1811 H 0.54776 0.56514 0.10462 0.0
H1812 H 0.67793 0.69826 0.08927 0.0
H1813 H 0.65026 0.7222 0.10825 0.0
H1814 H 0.65048 0.70869 0.06621 0.0
H1815 H 0.61199 0.58587 0.15509 0.0
H1816 H 0.56413 0.56614 0.15449 0.0
H1817 H 0.58677 0.61184 0.17579 0.0
C1818 C 0.29152 0.57222 0.18289 0.0
C1819 C 0.3189 0.57546 0.20082 0.0
C1820 C 0.29112 0.55747 0.15102 0.0
C1821 C 0.31957 0.54729 0.13691 0.0
C1822 C 0.3449 0.54651 0.1558 0.0
C1823 C 0.3439 0.56028 0.18782 0.0
C1824 C 0.26257 0.55682 0.13202 0.0
C1825 C 0.37578 0.53579 0.14166 0.0
C1826 C 0.34082 0.50997 0.05458 0.0
C1827 C 0.36711 0.54299 0.04486 0.0
C1828 C 0.32086 0.51112 0.08341 0.0
C1829 C 0.32802 0.54587 0.10259 0.0
C1830 C 0.35015 0.57951 0.09043 0.0
C1831 C 0.36904 0.57758 0.06127 0.0
C1832 C 0.29543 0.47495 0.09481 0.0
C1833 C 0.35781 0.6174 0.10983 0.0
H1834 H 0.27227 0.58418 0.19302 0.0
H1835 H 0.36514 0.56315 0.20177 0.0
H1836 H 0.27058 0.58457 0.12425 0.0
H1837 H 0.25829 0.53548 0.11081 0.0
H1838 H 0.23688 0.55109 0.14652 0.0
H1839 H 0.39165 0.53448 0.15993 0.0
H1840 H 0.36598 0.50818 0.12686 0.0
H1841 H 0.39378 0.55665 0.12632 0.0
H1842 H 0.33846 0.48301 0.04158 0.0
H1843 H 0.3885 0.60316 0.0532 0.0
H1844 H 0.27268 0.47879 0.1099 0.0
H1845 H 0.30965 0.46516 0.109 0.0
H1846 H 0.28491 0.45277 0.07475 0.0
H1847 H 0.37413 0.6407 0.0961 0.0
H1848 H 0.37249 0.61987 0.13039 0.0
H1849 H 0.33255 0.62077 0.11892 0.0
C1850 C 0.36106 0.31722 0.1845 0.0
C1851 C 0.33584 0.32883 0.20343 0.0
C1852 C 0.38088 0.3359 0.15907 0.0
C1853 C 0.37624 0.36779 0.15302 0.0
C1854 C 0.35148 0.38023 0.1727 0.0
C1855 C 0.33112 0.36021 0.19732 0.0
C1856 C 0.4059 0.32077 0.1381 0.0
C1857 C 0.34615 0.41446 0.16744 0.0
C1858 C 0.44652 0.43553 0.10132 0.0
C1859 C 0.42942 0.42649 0.07327 0.0
C1860 C 0.42989 0.41631 0.12736 0.0
C1861 C 0.39563 0.38692 0.12511 0.0
C1862 C 0.37904 0.37668 0.09638 0.0
C1863 C 0.39593 0.39676 0.071 0.0
C1864 C 0.44836 0.42842 0.15763 0.0
C1865 C 0.34315 0.34471 0.09253 0.0
H1866 H 0.36436 0.29258 0.18887 0.0
H1867 H 0.31168 0.36924 0.21197 0.0
H1868 H 0.39728 0.31267 0.11374 0.0
H1869 H 0.43333 0.34267 0.13719 0.0
H1870 H 0.40675 0.29596 0.14623 0.0
H1871 H 0.32798 0.42214 0.18617 0.0
H1872 H 0.37223 0.43858 0.1666 0.0
H1873 H 0.33475 0.40934 0.14444 0.0
H1874 H 0.4723 0.45858 0.10335 0.0
H1875 H 0.38271 0.38926 0.0493 0.0
H1876 H 0.45016 0.40416 0.1658 0.0
H1877 H 0.43245 0.43963 0.17624 0.0
H1878 H 0.47572 0.45027 0.15506 0.0
H1879 H 0.34442 0.31884 0.09795 0.0
H1880 H 0.3344 0.3394 0.06834 0.0
H1881 H 0.32261 0.35075 0.10938 0.0
C1882 C 0.83153 0.67429 0.706 0.0
C1883 C 0.81048 0.68943 0.69474 0.0
C1884 C 0.85042 0.65543 0.6854 0.0
C1885 C 0.84865 0.65162 0.65239 0.0
C1886 C 0.82712 0.66652 0.64084 0.0
C1887 C 0.80835 0.68513 0.66207 0.0
C1888 C 0.87289 0.64025 0.69907 0.0
C1889 C 0.82464 0.66369 0.60595 0.0
C1890 C 0.92669 0.63761 0.59993 0.0
C1891 C 0.91273 0.59896 0.58916 0.0
C1892 C 0.9061 0.65498 0.62 0.0
C1893 C 0.87045 0.6334 0.63012 0.0
C1894 C 0.85614 0.59438 0.61954 0.0
C1895 C 0.87727 0.57772 0.59917 0.0
C1896 C 0.92257 0.69665 0.63029 0.0
C1897 C 0.81847 0.57016 0.62995 0.0
H1898 H 0.83332 0.67724 0.73114 0.0
H1899 H 0.79304 0.69746 0.65295 0.0
H1900 H 0.867 0.61072 0.68881 0.0
H1901 H 0.90157 0.65654 0.6931 0.0
H1902 H 0.86839 0.64178 0.72509 0.0
H1903 H 0.80603 0.67569 0.60071 0.0
H1904 H 0.85144 0.67869 0.59462 0.0
H1905 H 0.81546 0.634 0.59511 0.0
H1906 H 0.95387 0.65462 0.59243 0.0
H1907 H 0.86598 0.54795 0.59116 0.0
H1908 H 0.92306 0.70239 0.65629 0.0
H1909 H 0.90615 0.7103 0.62353 0.0
H1910 H 0.95026 0.70973 0.61976 0.0
H1911 H 0.81541 0.57209 0.656 0.0
H1912 H 0.81112 0.54034 0.61978 0.0
H1913 H 0.79936 0.58032 0.62287 0.0
C1914 C 0.3748 0.84437 0.70315 0.0
C1915 C 0.34027 0.81997 0.69537 0.0
C1916 C 0.39927 0.8652 0.68078 0.0
C1917 C 0.38871 0.86151 0.65016 0.0
C1918 C 0.35472 0.83492 0.64171 0.0
C1919 C 0.33076 0.81477 0.66452 0.0
C1920 C 0.43587 0.89207 0.69013 0.0
C1921 C 0.34311 0.8288 0.60885 0.0
C1922 C 0.41902 0.94391 0.60522 0.0
C1923 C 0.44328 0.93637 0.5818 0.0
C1924 C 0.40285 0.92085 0.62865 0.0
C1925 C 0.41048 0.88885 0.62836 0.0
C1926 C 0.436 0.88171 0.60549 0.0
C1927 C 0.45261 0.90603 0.58268 0.0
C1928 C 0.37638 0.92995 0.653 0.0
C1929 C 0.44541 0.84824 0.60456 0.0
H1930 H 0.38233 0.84791 0.72692 0.0
H1931 H 0.30441 0.79505 0.65821 0.0
H1932 H 0.45661 0.88612 0.67349 0.0
H1933 H 0.43911 0.92113 0.68881 0.0
H1934 H 0.44057 0.89027 0.71435 0.0
H1935 H 0.31773 0.80402 0.60509 0.0
H1936 H 0.33924 0.8538 0.60453 0.0
H1937 H 0.36411 0.82494 0.59121 0.0
H1938 H 0.41229 0.9678 0.60505 0.0
H1939 H 0.47161 0.90031 0.56479 0.0
H1940 H 0.38286 0.92973 0.67701 0.0
H1941 H 0.34915 0.90834 0.64941 0.0
H1942 H 0.37599 0.95769 0.65175 0.0
H1943 H 0.46757 0.85596 0.61992 0.0
H1944 H 0.45447 0.83918 0.58035 0.0
H1945 H 0.42258 0.82411 0.61307 0.0
C1946 C 0.16268 0.40278 0.67609 0.0
C1947 C 0.19429 0.40073 0.66077 0.0
C1948 C 0.13669 0.40451 0.65909 0.0
C1949 C 0.14287 0.40473 0.62611 0.0
C1950 C 0.17395 0.40042 0.6104 0.0
C1951 C 0.19933 0.39843 0.62798 0.0
C1952 C 0.10398 0.40895 0.67675 0.0
C1953 C 0.18163 0.40063 0.5753 0.0
C1954 C 0.07291 0.3971 0.57278 0.0
C1955 C 0.08377 0.43457 0.56815 0.0
C1956 C 0.09072 0.38691 0.59284 0.0
C1957 C 0.11989 0.41485 0.60865 0.0
C1958 C 0.12921 0.4529 0.60574 0.0
C1959 C 0.11113 0.46225 0.58554 0.0
C1960 C 0.07972 0.34609 0.5956 0.0
C1961 C 0.15986 0.48372 0.62238 0.0
H1962 H 0.15907 0.40474 0.70154 0.0
H1963 H 0.22401 0.39709 0.61631 0.0
H1964 H 0.10661 0.43826 0.67782 0.0
H1965 H 0.07967 0.39064 0.66439 0.0
H1966 H 0.10032 0.4023 0.70119 0.0
H1967 H 0.20482 0.39302 0.56625 0.0
H1968 H 0.15796 0.38084 0.56275 0.0
H1969 H 0.18746 0.42895 0.56961 0.0
H1970 H 0.05187 0.37551 0.55941 0.0
H1971 H 0.11953 0.49131 0.58236 0.0
H1972 H 0.07813 0.342 0.62054 0.0
H1973 H 0.10012 0.33611 0.58256 0.0
H1974 H 0.05352 0.32856 0.58581 0.0
H1975 H 0.15861 0.4799 0.64734 0.0
H1976 H 0.16 0.51177 0.6217 0.0
H1977 H 0.18549 0.48292 0.61089 0.0
C1978 C 0.74276 0.17044 0.65738 0.0
C1979 C 0.72212 0.17579 0.685 0.0
C1980 C 0.72635 0.14899 0.62995 0.0
C1981 C 0.68862 0.132 0.63052 0.0
C1982 C 0.66789 0.13547 0.659 0.0
C1983 C 0.6849 0.1574 0.6858 0.0
C1984 C 0.7491 0.14656 0.59981 0.0
C1985 C 0.62754 0.11835 0.66061 0.0
C1986 C 0.63656 0.12373 0.56265 0.0
C1987 C 0.61763 0.08498 0.55696 0.0
C1988 C 0.66234 0.13941 0.58468 0.0
C1989 C 0.67022 0.11574 0.60083 0.0
C1990 C 0.65486 0.0765 0.59195 0.0
C1991 C 0.62832 0.06142 0.57021 0.0
C1992 C 0.67706 0.18124 0.59374 0.0
C1993 C 0.66389 0.05037 0.60749 0.0
H1994 H 0.77156 0.18484 0.65665 0.0
H1995 H 0.66889 0.16125 0.70721 0.0
H1996 H 0.74268 0.11684 0.58992 0.0
H1997 H 0.7431 0.15976 0.58194 0.0
H1998 H 0.77805 0.16074 0.60327 0.0
H1999 H 0.61547 0.12175 0.68495 0.0
H2000 H 0.61778 0.13176 0.64551 0.0
H2001 H 0.61789 0.08809 0.65156 0.0
H2002 H 0.62903 0.14212 0.55191 0.0
H2003 H 0.61419 0.03136 0.56557 0.0
H2004 H 0.70578 0.19248 0.59793 0.0
H2005 H 0.66243 0.18771 0.61599 0.0
H2006 H 0.67354 0.1959 0.57556 0.0
H2007 H 0.69275 0.06209 0.6115 0.0
H2008 H 0.65686 0.02241 0.59311 0.0
H2009 H 0.64866 0.04662 0.63073 0.0
C2010 C 0.79169 0.33043 0.35948 0.0
C2011 C 0.81031 0.33307 0.32983 0.0
C2012 C 0.8095 0.3491 0.38686 0.0
C2013 C 0.84681 0.37018 0.38432 0.0
C2014 C 0.86517 0.37458 0.35413 0.0
C2015 C 0.84665 0.35579 0.32719 0.0
C2016 C 0.7888 0.34463 0.41849 0.0
C2017 C 0.90482 0.39726 0.35034 0.0
C2018 C 0.90362 0.43655 0.44911 0.0
C2019 C 0.92033 0.41468 0.45695 0.0
C2020 C 0.8772 0.4216 0.42733 0.0
C2021 C 0.86765 0.38412 0.41279 0.0
C2022 C 0.88197 0.36104 0.42284 0.0
C2023 C 0.90787 0.3765 0.44496 0.0
C2024 C 0.86181 0.44706 0.41834 0.0
C2025 C 0.87234 0.32077 0.40824 0.0
H2026 H 0.76366 0.31217 0.36136 0.0
H2027 H 0.86092 0.35737 0.30412 0.0
H2028 H 0.79623 0.3267 0.43083 0.0
H2029 H 0.79557 0.37221 0.43337 0.0
H2030 H 0.75949 0.33164 0.41629 0.0
H2031 H 0.91469 0.39958 0.32528 0.0
H2032 H 0.91126 0.42583 0.36336 0.0
H2033 H 0.91946 0.38405 0.36053 0.0
H2034 H 0.9126 0.46595 0.45842 0.0
H2035 H 0.92006 0.35908 0.45121 0.0
H2036 H 0.83547 0.43142 0.40838 0.0
H2037 H 0.88051 0.4638 0.4005 0.0
H2038 H 0.85871 0.46679 0.43916 0.0
H2039 H 0.84295 0.30577 0.40812 0.0
H2040 H 0.88291 0.3056 0.42086 0.0
H2041 H 0.8835 0.31982 0.3834 0.0
C2042 C 0.68613 0.79149 0.33812 0.0
C2043 C 0.71347 0.80988 0.31636 0.0
C2044 C 0.66789 0.8105 0.35935 0.0
C2045 C 0.67561 0.84862 0.35779 0.0
C2046 C 0.70232 0.86712 0.33515 0.0
C2047 C 0.72128 0.84783 0.3152 0.0
C2048 C 0.64045 0.78975 0.38361 0.0
C2049 C 0.7105 0.9072 0.33159 0.0
C2050 C 0.60198 0.88389 0.39155 0.0
C2051 C 0.61515 0.90554 0.41999 0.0
C2052 C 0.6217 0.86605 0.37086 0.0
C2053 C 0.65501 0.86872 0.37915 0.0
C2054 C 0.66834 0.89035 0.40796 0.0
C2055 C 0.6486 0.90898 0.42771 0.0
C2056 C 0.60684 0.84431 0.34005 0.0
C2057 C 0.70308 0.89306 0.41831 0.0
H2058 H 0.67882 0.76213 0.33866 0.0
H2059 H 0.74186 0.86244 0.2982 0.0
H2060 H 0.64723 0.80486 0.40754 0.0
H2061 H 0.61376 0.78852 0.37992 0.0
H2062 H 0.63868 0.76074 0.3827 0.0
H2063 H 0.73089 0.91714 0.31197 0.0
H2064 H 0.68577 0.91011 0.32721 0.0
H2065 H 0.72032 0.9257 0.35367 0.0
H2066 H 0.57625 0.88116 0.38529 0.0
H2067 H 0.65881 0.92525 0.44977 0.0
H2068 H 0.6014 0.8143 0.33952 0.0
H2069 H 0.62675 0.85443 0.32019 0.0
H2070 H 0.58172 0.84678 0.33617 0.0
H2071 H 0.70191 0.86463 0.41922 0.0
H2072 H 0.70921 0.90985 0.44182 0.0
H2073 H 0.72537 0.90598 0.40102 0.0
C2074 C 0.19727 0.69597 0.34336 0.0
C2075 C 0.18872 0.6968 0.31334 0.0
C2076 C 0.17238 0.67244 0.36378 0.0
C2077 C 0.13761 0.64955 0.35427 0.0
C2078 C 0.12818 0.65163 0.32458 0.0
C2079 C 0.1539 0.67514 0.30439 0.0
C2080 C 0.18392 0.67094 0.39501 0.0
C2081 C 0.09139 0.62796 0.31364 0.0
C2082 C 0.0987 0.56189 0.39346 0.0
C2083 C 0.07915 0.5722 0.41986 0.0
C2084 C 0.11535 0.58561 0.37051 0.0
C2085 C 0.11291 0.62091 0.3742 0.0
C2086 C 0.09062 0.63014 0.39943 0.0
C2087 C 0.07381 0.60551 0.42205 0.0
C2088 C 0.13841 0.57435 0.34398 0.0
C2089 C 0.08673 0.66716 0.40386 0.0
H2090 H 0.22376 0.7134 0.35082 0.0
H2091 H 0.14702 0.67573 0.28124 0.0
H2092 H 0.16453 0.67477 0.41442 0.0
H2093 H 0.18454 0.64308 0.39508 0.0
H2094 H 0.21084 0.69262 0.39991 0.0
H2095 H 0.08672 0.63646 0.29205 0.0
H2096 H 0.08808 0.59822 0.30849 0.0
H2097 H 0.07061 0.62982 0.33239 0.0
H2098 H 0.10252 0.5359 0.39159 0.0
H2099 H 0.05872 0.61355 0.44248 0.0
H2100 H 0.16662 0.59238 0.34783 0.0
H2101 H 0.1327 0.57884 0.32107 0.0
H2102 H 0.13491 0.5447 0.34266 0.0
H2103 H 0.1115 0.68963 0.4129 0.0
H2104 H 0.06389 0.66738 0.42085 0.0
H2105 H 0.08296 0.67384 0.38109 0.0
C2106 C 0.46127 0.18636 0.33166 0.0
C2107 C 0.43971 0.20635 0.34395 0.0
C2108 C 0.46818 0.16421 0.34986 0.0
C2109 C 0.4532 0.16194 0.38124 0.0
C2110 C 0.43026 0.1809 0.39345 0.0
C2111 C 0.42361 0.20275 0.37458 0.0
C2112 C 0.49221 0.14394 0.33573 0.0
C2113 C 0.4139 0.17928 0.42686 0.0
C2114 C 0.44925 0.08469 0.42518 0.0
C2115 C 0.47841 0.10335 0.44391 0.0
C2116 C 0.44126 0.10305 0.40407 0.0
C2117 C 0.46276 0.14112 0.40173 0.0
C2118 C 0.49305 0.15969 0.41961 0.0
C2119 C 0.50056 0.14058 0.44038 0.0
C2120 C 0.40915 0.082 0.38498 0.0
C2121 C 0.51692 0.20017 0.41759 0.0
H2122 H 0.4733 0.1886 0.30781 0.0
H2123 H 0.40707 0.21827 0.38424 0.0
H2124 H 0.51596 0.15373 0.34953 0.0
H2125 H 0.47791 0.11352 0.33681 0.0
H2126 H 0.50139 0.14826 0.31085 0.0
H2127 H 0.3956 0.19436 0.43246 0.0
H2128 H 0.39882 0.14978 0.43096 0.0
H2129 H 0.43537 0.19187 0.44345 0.0
H2130 H 0.432 0.05591 0.42759 0.0
H2131 H 0.5232 0.15531 0.45462 0.0
H2132 H 0.41667 0.08512 0.35973 0.0
H2133 H 0.38857 0.09389 0.39281 0.0
H2134 H 0.39708 0.05173 0.38737 0.0
H2135 H 0.5274 0.20401 0.39289 0.0
H2136 H 0.5399 0.21028 0.43246 0.0
H2137 H 0.50127 0.21791 0.4252 0.0
C2138 C 0.61106 0.80558 0.63708 0.0
C2139 C 0.59477 0.80279 0.66771 0.0
C2140 C 0.60437 0.82654 0.61735 0.0
C2141 C 0.58116 0.8454 0.62866 0.0
C2142 C 0.5659 0.84391 0.65998 0.0
C2143 C 0.57281 0.82259 0.67904 0.0
C2144 C 0.62121 0.82755 0.58408 0.0
C2145 C 0.54148 0.864 0.67317 0.0
C2146 C 0.58579 0.92237 0.58403 0.0
C2147 C 0.55722 0.90354 0.56466 0.0
C2148 C 0.59351 0.90403 0.60533 0.0
C2149 C 0.57212 0.86589 0.60747 0.0
C2150 C 0.54243 0.8471 0.58889 0.0
C2151 C 0.53547 0.86606 0.56763 0.0
C2152 C 0.62513 0.92524 0.62497 0.0
C2153 C 0.51855 0.80662 0.59085 0.0
H2154 H 0.62791 0.79022 0.62813 0.0
H2155 H 0.56056 0.82098 0.70286 0.0
H2156 H 0.60004 0.81459 0.56722 0.0
H2157 H 0.63635 0.85693 0.57965 0.0
H2158 H 0.63957 0.81252 0.57917 0.0
H2159 H 0.53512 0.86354 0.6989 0.0
H2160 H 0.55383 0.89354 0.66866 0.0
H2161 H 0.51617 0.8506 0.66127 0.0
H2162 H 0.60283 0.95132 0.58202 0.0
H2163 H 0.51356 0.85111 0.55264 0.0
H2164 H 0.64545 0.91282 0.61831 0.0
H2165 H 0.61678 0.92295 0.65025 0.0
H2166 H 0.63779 0.95533 0.62194 0.0
H2167 H 0.53436 0.78895 0.58393 0.0
H2168 H 0.49604 0.79632 0.57542 0.0
H2169 H 0.5074 0.80293 0.61543 0.0
C2170 C 0.67682 0.1528 0.30486 0.0
C2171 C 0.69736 0.19065 0.31379 0.0
C2172 C 0.65297 0.13082 0.32688 0.0
C2173 C 0.64996 0.14712 0.35852 0.0
C2174 C 0.66974 0.18572 0.36724 0.0
C2175 C 0.69345 0.20693 0.34481 0.0
C2176 C 0.63232 0.08977 0.31666 0.0
C2177 C 0.66717 0.20429 0.40059 0.0
C2178 C 0.57844 0.09072 0.41669 0.0
C2179 C 0.59802 0.0761 0.43067 0.0
C2180 C 0.59476 0.11394 0.39299 0.0
C2181 C 0.6314 0.12278 0.38338 0.0
C2182 C 0.65119 0.1084 0.39769 0.0
C2183 C 0.63435 0.08541 0.42101 0.0
C2184 C 0.57296 0.12924 0.37851 0.0
C2185 C 0.69031 0.1171 0.38824 0.0
H2186 H 0.67957 0.14036 0.28072 0.0
H2187 H 0.70956 0.23619 0.35175 0.0
H2188 H 0.64297 0.073 0.32722 0.0
H2189 H 0.60377 0.08165 0.32514 0.0
H2190 H 0.63417 0.08246 0.29066 0.0
H2191 H 0.6813 0.23519 0.4027 0.0
H2192 H 0.63878 0.19746 0.40916 0.0
H2193 H 0.67904 0.19358 0.41623 0.0
H2194 H 0.55042 0.0838 0.42401 0.0
H2195 H 0.64998 0.07465 0.43168 0.0
H2196 H 0.57751 0.12588 0.35248 0.0
H2197 H 0.58141 0.15961 0.38684 0.0
H2198 H 0.54391 0.11532 0.38489 0.0
H2199 H 0.69391 0.10829 0.36268 0.0
H2200 H 0.70166 0.10289 0.40112 0.0
H2201 H 0.70589 0.14769 0.39276 0.0
C2202 C 0.8734 0.60896 0.33269 0.0
C2203 C 0.84814 0.62274 0.34837 0.0
C2204 C 0.89966 0.60698 0.34907 0.0
C2205 C 0.90004 0.61835 0.38196 0.0
C2206 C 0.87659 0.63551 0.39728 0.0
C2207 C 0.85089 0.63764 0.38017 0.0
C2208 C 0.92459 0.58929 0.33168 0.0
C2209 C 0.87603 0.64785 0.43233 0.0
C2210 C 0.91757 0.558 0.43108 0.0
C2211 C 0.95107 0.58142 0.44213 0.0
C2212 C 0.90125 0.56955 0.41101 0.0
C2213 C 0.9191 0.60527 0.40108 0.0
C2214 C 0.95381 0.62831 0.41057 0.0
C2215 C 0.96931 0.61624 0.43125 0.0
C2216 C 0.86416 0.54401 0.4015 0.0
C2217 C 0.97397 0.66623 0.39995 0.0
H2218 H 0.87113 0.59751 0.30801 0.0
H2219 H 0.83112 0.64809 0.39222 0.0
H2220 H 0.95186 0.60413 0.34 0.0
H2221 H 0.91482 0.55987 0.33626 0.0
H2222 H 0.92608 0.5893 0.30587 0.0
H2223 H 0.8601 0.66535 0.43984 0.0
H2224 H 0.86413 0.62282 0.4448 0.0
H2225 H 0.90354 0.66389 0.43978 0.0
H2226 H 0.9032 0.53106 0.43921 0.0
H2227 H 0.9952 0.63456 0.4396 0.0
H2228 H 0.86431 0.53725 0.37551 0.0
H2229 H 0.84539 0.55825 0.40926 0.0
H2230 H 0.85369 0.51742 0.41177 0.0
H2231 H 0.97157 0.66493 0.37451 0.0
H2232 H 1.00273 0.67742 0.40435 0.0
H2233 H 0.96238 0.68614 0.41298 0.0
C2234 C 0.29494 0.84398 0.35057 0.0
C2235 C 0.31551 0.83523 0.32419 0.0
C2236 C 0.31121 0.86612 0.37781 0.0
C2237 C 0.34876 0.87941 0.37856 0.0
C2238 C 0.36969 0.87276 0.35114 0.0
C2239 C 0.35281 0.85081 0.32433 0.0
C2240 C 0.28797 0.87332 0.40619 0.0
C2241 C 0.4099 0.88689 0.35065 0.0
C2242 C 0.41036 0.9494 0.43791 0.0
C2243 C 0.41904 0.92526 0.45235 0.0
C2244 C 0.38404 0.935 0.41604 0.0
C2245 C 0.3664 0.89576 0.40857 0.0
C2246 C 0.37197 0.87173 0.42611 0.0
C2247 C 0.39821 0.88681 0.44782 0.0
C2248 C 0.37801 0.96167 0.39866 0.0
C2249 C 0.35341 0.82974 0.4193 0.0
H2250 H 0.26608 0.83225 0.35047 0.0
H2251 H 0.36889 0.84479 0.30374 0.0
H2252 H 0.28323 0.85278 0.42249 0.0
H2253 H 0.3011 0.90174 0.4191 0.0
H2254 H 0.26163 0.87028 0.39949 0.0
H2255 H 0.42236 0.88157 0.32683 0.0
H2256 H 0.42137 0.91738 0.35877 0.0
H2257 H 0.4173 0.87288 0.36702 0.0
H2258 H 0.4261 0.97923 0.44154 0.0
H2259 H 0.40427 0.86809 0.45949 0.0
H2260 H 0.35001 0.95079 0.39214 0.0
H2261 H 0.39575 0.96538 0.37667 0.0
H2262 H 0.38441 0.98956 0.41302 0.0
H2263 H 0.35639 0.81544 0.43801 0.0
H2264 H 0.36513 0.81972 0.39668 0.0
H2265 H 0.32455 0.82144 0.41686 0.0
C2266 C 0.19016 0.31824 0.31063 0.0
C2267 C 0.22213 0.31787 0.31869 0.0
C2268 C 0.17157 0.33792 0.33063 0.0
C2269 C 0.18473 0.35776 0.35996 0.0
C2270 C 0.21696 0.3576 0.36833 0.0
C2271 C 0.23522 0.33791 0.34764 0.0
C2272 C 0.13758 0.33725 0.32035 0.0
C2273 C 0.23173 0.37751 0.39957 0.0
C2274 C 0.15094 0.4335 0.40179 0.0
C2275 C 0.12261 0.41357 0.42214 0.0
C2276 C 0.17128 0.41581 0.38145 0.0
C2277 C 0.16408 0.37752 0.3821 0.0
C2278 C 0.13614 0.35765 0.40327 0.0
C2279 C 0.11552 0.37564 0.4225 0.0
C2280 C 0.20006 0.43791 0.35875 0.0
C2281 C 0.12792 0.31723 0.40566 0.0
H2282 H 0.17948 0.30307 0.28842 0.0
H2283 H 0.25929 0.3376 0.35459 0.0
H2284 H 0.11471 0.32338 0.33683 0.0
H2285 H 0.13945 0.36624 0.321 0.0
H2286 H 0.13179 0.32219 0.29622 0.0
H2287 H 0.25774 0.37621 0.40214 0.0
H2288 H 0.23532 0.40729 0.40235 0.0
H2289 H 0.2125 0.36471 0.41897 0.0
H2290 H 0.15662 0.46271 0.40117 0.0
H2291 H 0.09402 0.36 0.43835 0.0
H2292 H 0.19432 0.42434 0.33426 0.0
H2293 H 0.22624 0.4382 0.36301 0.0
H2294 H 0.20229 0.46724 0.36081 0.0
H2295 H 0.11884 0.29965 0.38303 0.0
H2296 H 0.1069 0.30637 0.42462 0.0
H2297 H 0.15241 0.31405 0.41031 0.0
C2298 C 0.33065 0.17346 0.70127 0.0
C2299 C 0.32118 0.19994 0.69091 0.0
C2300 C 0.34955 0.15433 0.68112 0.0
C2301 C 0.35954 0.16165 0.64958 0.0
C2302 C 0.34988 0.18808 0.63885 0.0
C2303 C 0.33076 0.20666 0.65955 0.0
C2304 C 0.35914 0.12649 0.69377 0.0
C2305 C 0.35993 0.19695 0.6055 0.0
C2306 C 0.4385 0.13995 0.60715 0.0
C2307 C 0.42167 0.10555 0.58842 0.0
C2308 C 0.41868 0.15841 0.62691 0.0
C2309 C 0.38087 0.14235 0.62821 0.0
C2310 C 0.36361 0.10758 0.60956 0.0
C2311 C 0.38412 0.08964 0.58999 0.0
C2312 C 0.43831 0.19528 0.64641 0.0
C2313 C 0.32339 0.08937 0.61021 0.0
H2314 H 0.32358 0.16778 0.72541 0.0
H2315 H 0.32293 0.22607 0.65097 0.0
H2316 H 0.34819 0.09872 0.67928 0.0
H2317 H 0.38858 0.13547 0.69228 0.0
H2318 H 0.3488 0.12336 0.71864 0.0
H2319 H 0.34938 0.21712 0.60041 0.0
H2320 H 0.38943 0.20897 0.60125 0.0
H2321 H 0.3496 0.17095 0.58866 0.0
H2322 H 0.4674 0.15275 0.60633 0.0
H2323 H 0.37065 0.06322 0.5757 0.0
H2324 H 0.43039 0.1931 0.67176 0.0
H2325 H 0.43093 0.21737 0.64044 0.0
H2326 H 0.46777 0.20422 0.64272 0.0
H2327 H 0.31205 0.08395 0.63446 0.0
H2328 H 0.31394 0.06253 0.59418 0.0
H2329 H 0.31273 0.10849 0.60329 0.0
C2330 C 0.83438 0.31441 0.66023 0.0
C2331 C 0.84355 0.31132 0.68931 0.0
C2332 C 0.85943 0.33832 0.64012 0.0
C2333 C 0.89496 0.35876 0.64878 0.0
C2334 C 0.90503 0.35375 0.6771 0.0
C2335 C 0.87914 0.33035 0.69716 0.0
C2336 C 0.84734 0.343 0.6103 0.0
C2337 C 0.94277 0.37417 0.68686 0.0
C2338 C 0.95857 0.40454 0.58171 0.0
C2339 C 0.9561 0.43954 0.58668 0.0
C2340 C 0.94065 0.37844 0.60294 0.0
C2341 C 0.92017 0.3879 0.62961 0.0
C2342 C 0.92051 0.42451 0.636 0.0
C2343 C 0.93821 0.44973 0.61433 0.0
C2344 C 0.94159 0.33997 0.59567 0.0
C2345 C 0.90008 0.43622 0.66462 0.0
H2346 H 0.80731 0.29883 0.65345 0.0
H2347 H 0.8867 0.32777 0.71939 0.0
H2348 H 0.84938 0.37217 0.61167 0.0
H2349 H 0.86491 0.33796 0.58972 0.0
H2350 H 0.81932 0.32371 0.6062 0.0
H2351 H 0.94789 0.36191 0.70598 0.0
H2352 H 0.96234 0.37363 0.66656 0.0
H2353 H 0.94752 0.40388 0.69546 0.0
H2354 H 0.9722 0.39656 0.56018 0.0
H2355 H 0.93657 0.47697 0.61821 0.0
H2356 H 0.91594 0.31978 0.58635 0.0
H2357 H 0.94477 0.33048 0.6173 0.0
H2358 H 0.96362 0.33923 0.57785 0.0
H2359 H 0.87157 0.41737 0.66423 0.0
H2360 H 0.90236 0.46547 0.66586 0.0
H2361 H 0.90984 0.43347 0.68632 0.0
C2362 C 0.19618 0.65908 0.67837 0.0
C2363 C 0.22872 0.68935 0.6752 0.0
C2364 C 0.17691 0.63952 0.65195 0.0
C2365 C 0.19157 0.64948 0.62162 0.0
C2366 C 0.22601 0.67805 0.61826 0.0
C2367 C 0.24362 0.69855 0.64526 0.0
C2368 C 0.13966 0.61044 0.65685 0.0
C2369 C 0.24358 0.68843 0.58643 0.0
C2370 C 0.1357 0.58261 0.55613 0.0
C2371 C 0.11483 0.60182 0.55145 0.0
C2372 C 0.16288 0.5989 0.57728 0.0
C2373 C 0.16838 0.63453 0.59472 0.0
C2374 C 0.14898 0.65488 0.58851 0.0
C2375 C 0.12319 0.63868 0.56646 0.0
C2376 C 0.18513 0.57779 0.58159 0.0
C2377 C 0.15354 0.69279 0.60674 0.0
H2378 H 0.18462 0.65253 0.70172 0.0
H2379 H 0.26884 0.72218 0.64298 0.0
H2380 H 0.12001 0.62025 0.65031 0.0
H2381 H 0.13667 0.58383 0.64148 0.0
H2382 H 0.13292 0.60477 0.68167 0.0
H2383 H 0.27311 0.70205 0.587 0.0
H2384 H 0.23673 0.66348 0.5682 0.0
H2385 H 0.23427 0.70851 0.57936 0.0
H2386 H 0.12997 0.55443 0.54427 0.0
H2387 H 0.10784 0.65424 0.56271 0.0
H2388 H 0.18331 0.57413 0.60665 0.0
H2389 H 0.21361 0.59433 0.57504 0.0
H2390 H 0.17688 0.54988 0.56705 0.0
H2391 H 0.14908 0.69097 0.63234 0.0
H2392 H 0.13481 0.70392 0.60029 0.0
H2393 H 0.18115 0.71318 0.60238 0.0
loop_
_geom_bond_atom_site_label_1
_geom_bond_atom_site_label_2
_geom_bond_distance
_geom_bond_site_symmetry_2
_ccdc_geom_bond_type
Eu0 N29 2.600 . S
Eu0 N35 2.562 . S
Eu0 O44 2.462 . S
Eu0 O45 2.373 . S
Eu0 O47 2.432 . S
Eu0 O48 2.291 . S
Eu0 O52 2.335 . S
Eu0 O55 2.372 . S
Eu0 C64 2.787 . S
C1 N2 1.365 . S
C1 C4 1.405 . S
C1 C8 1.448 . S
N2 C1 1.365 . S
N2 C5 1.319 . S
N2 Eu11 2.600 . S
C3 C5 1.397 . S
C3 C6 1.367 . S
C3 H23 0.931 . S
C4 C1 1.405 . S
C4 C6 1.403 . S
C4 C10 1.439 . S
C5 N2 1.319 . S
C5 C3 1.397 . S
C5 H16 0.930 . S
C6 C3 1.367 . S
C6 C4 1.403 . S
C6 H27 0.929 . S
C7 C8 1.430 . S
C7 C9 1.387 . S
C7 C13 1.404 . S
C8 C1 1.448 . S
C8 C7 1.430 . S
C8 N12 1.351 . S
C9 C7 1.387 . S
C9 C10 1.374 . S
C9 H24 0.931 . S
C10 C4 1.439 . S
C10 C9 1.374 . S
C10 H25 0.931 . S
Eu11 N2 2.600 . S
Eu11 N12 2.562 . S
Eu11 O46 2.335 . S
Eu11 O49 2.372 . S
Eu11 O50 2.462 . S
Eu11 O51 2.373 . S
Eu11 O53 2.432 . S
Eu11 O54 2.291 . S
Eu11 C75 2.787 . S
N12 C8 1.351 . S
N12 Eu11 2.562 . S
N12 C14 1.325 . S
C13 C7 1.404 . S
C13 C15 1.366 . S
C13 H21 0.930 . S
C14 N12 1.325 . S
C14 C15 1.416 . S
C14 H20 0.929 . S
C15 C13 1.366 . S
C15 C14 1.416 . S
C15 H17 0.930 . S
H16 C5 0.930 . S
H17 C15 0.930 . S
H18 C33 0.930 . S
H19 C40 0.930 . S
H20 C14 0.929 . S
H21 C13 0.930 . S
H22 C36 0.929 . S
H23 C3 0.931 . S
H24 C9 0.931 . S
H25 C10 0.931 . S
H26 C31 0.931 . S
H27 C6 0.929 . S
H28 C39 0.930 . S
N29 Eu0 2.600 . S
N29 C30 1.365 . S
N29 C33 1.319 . S
C30 N29 1.365 . S
C30 C32 1.405 . S
C30 C38 1.448 . S
C31 H26 0.931 . S
C31 C33 1.397 . S
C31 C34 1.367 . S
C32 C30 1.405 . S
C32 C34 1.403 . S
C32 C65 1.439 . S
C33 H18 0.930 . S
C33 N29 1.319 . S
C33 C31 1.397 . S
C34 C31 1.367 . S
C34 C32 1.403 . S
C34 H41 0.929 . S
N35 Eu0 2.562 . S
N35 C36 1.325 . S
N35 C38 1.351 . S
C36 H22 0.929 . S
C36 N35 1.325 . S
C36 C40 1.416 . S
C37 C38 1.430 . S
C37 C39 1.404 . S
C37 C66 1.387 . S
C38 C30 1.448 . S
C38 N35 1.351 . S
C38 C37 1.430 . S
C39 H28 0.930 . S
C39 C37 1.404 . S
C39 C40 1.366 . S
C40 H19 0.930 . S
C40 C36 1.416 . S
C40 C39 1.366 . S
H41 C34 0.929 . S
H42 C65 0.931 . S
H43 C66 0.931 . S
O44 Eu0 2.462 . S
O44 C64 1.252 . S
O45 Eu0 2.373 . S
O45 C56 1.249 . S
O46 Eu11 2.335 . S
O46 C56 1.264 . S
O47 Eu0 2.432 . S
O47 C64 1.268 . S
O48 Eu0 2.291 . S
O48 C63 1.255 . S
O49 Eu11 2.372 . S
O49 C63 1.257 . S
O50 Eu11 2.462 . S
O50 C75 1.252 . S
O51 Eu11 2.373 . S
O51 C67 1.249 . S
O52 Eu0 2.335 . S
O52 C67 1.264 . S
O53 Eu11 2.432 . S
O53 C75 1.268 . S
O54 Eu11 2.291 . S
O54 C74 1.255 . S
O55 Eu0 2.372 . S
O55 C74 1.257 . S
C56 O45 1.249 . S
C56 O46 1.264 . S
C57 C60 1.382 . S
C57 C62 1.390 . S
C57 C64 1.506 . S
C58 C59 1.398 . S
C58 C62 1.392 . S
C59 C58 1.398 . S
C59 C61 1.372 . S
C59 H76 0.931 . S
C60 C57 1.382 . S
C60 C61 1.390 . S
C60 H77 0.931 . S
C61 C59 1.372 . S
C61 C60 1.390 . S
C61 H78 0.929 . S
C62 C57 1.390 . S
C62 C58 1.392 . S
C62 H79 0.930 . S
C63 O48 1.255 . S
C63 O49 1.257 . S
C64 Eu0 2.787 . S
C64 O44 1.252 . S
C64 O47 1.268 . S
C64 C57 1.506 . S
C65 C32 1.439 . S
C65 H42 0.931 . S
C65 C66 1.374 . S
C66 C37 1.387 . S
C66 H43 0.931 . S
C66 C65 1.374 . S
C67 O51 1.249 . S
C67 O52 1.264 . S
C68 C71 1.382 . S
C68 C72 1.390 . S
C68 C75 1.506 . S
C69 C70 1.398 . S
C69 C72 1.392 . S
C70 C69 1.398 . S
C70 C73 1.372 . S
C70 H80 0.931 . S
C71 C68 1.382 . S
C71 C73 1.390 . S
C71 H81 0.931 . S
C72 C68 1.390 . S
C72 C69 1.392 . S
C72 H82 0.930 . S
C73 C70 1.372 . S
C73 C71 1.390 . S
C73 H83 0.929 . S
C74 O54 1.255 . S
C74 O55 1.257 . S
C75 Eu11 2.787 . S
C75 O50 1.252 . S
C75 O53 1.268 . S
C75 C68 1.506 . S
H76 C59 0.931 . S
H77 C60 0.931 . S
H78 C61 0.929 . S
H79 C62 0.930 . S
H80 C70 0.931 . S
H81 C71 0.931 . S
H82 C72 0.930 . S
H83 C73 0.929 . S
Eu84 N113 2.600 . S
Eu84 N119 2.562 . S
Eu84 O128 2.462 . S
Eu84 O129 2.373 . S
Eu84 O131 2.432 . S
Eu84 O132 2.291 . S
Eu84 O136 2.335 . S
Eu84 O139 2.372 . S
Eu84 C148 2.787 . S
C85 N86 1.365 . S
C85 C88 1.405 . S
C85 C92 1.448 . S
N86 C85 1.365 . S
N86 C89 1.319 . S
N86 Eu95 2.600 . S
C87 C89 1.397 . S
C87 C90 1.367 . S
C87 H107 0.931 . S
C88 C85 1.405 . S
C88 C90 1.403 . S
C88 C94 1.439 . S
C89 N86 1.319 . S
C89 C87 1.397 . S
C89 H100 0.930 . S
C90 C87 1.367 . S
C90 C88 1.403 . S
C90 H111 0.929 . S
C91 C92 1.430 . S
C91 C93 1.387 . S
C91 C97 1.404 . S
C92 C85 1.448 . S
C92 C91 1.430 . S
C92 N96 1.351 . S
C93 C91 1.387 . S
C93 C94 1.374 . S
C93 H108 0.931 . S
C94 C88 1.439 . S
C94 C93 1.374 . S
C94 H109 0.931 . S
Eu95 N86 2.600 . S
Eu95 N96 2.562 . S
Eu95 O130 2.335 . S
Eu95 O133 2.372 . S
Eu95 O134 2.462 . S
Eu95 O135 2.373 . S
Eu95 O137 2.432 . S
Eu95 O138 2.291 . S
Eu95 C159 2.787 . S
N96 C92 1.351 . S
N96 Eu95 2.562 . S
N96 C98 1.325 . S
C97 C91 1.404 . S
C97 C99 1.366 . S
C97 H105 0.930 . S
C98 N96 1.325 . S
C98 C99 1.416 . S
C98 H104 0.929 . S
C99 C97 1.366 . S
C99 C98 1.416 . S
C99 H101 0.930 . S
H100 C89 0.930 . S
H101 C99 0.930 . S
H102 C117 0.930 . S
H103 C124 0.930 . S
H104 C98 0.929 . S
H105 C97 0.930 . S
H106 C120 0.929 . S
H107 C87 0.931 . S
H108 C93 0.931 . S
H109 C94 0.931 . S
H110 C115 0.931 . S
H111 C90 0.929 . S
H112 C123 0.930 . S
N113 Eu84 2.600 . S
N113 C114 1.365 . S
N113 C117 1.319 . S
C114 N113 1.365 . S
C114 C116 1.405 . S
C114 C122 1.448 . S
C115 H110 0.931 . S
C115 C117 1.397 . S
C115 C118 1.367 . S
C116 C114 1.405 . S
C116 C118 1.403 . S
C116 C149 1.439 . S
C117 H102 0.930 . S
C117 N113 1.319 . S
C117 C115 1.397 . S
C118 C115 1.367 . S
C118 C116 1.403 . S
C118 H125 0.929 . S
N119 Eu84 2.562 . S
N119 C120 1.325 . S
N119 C122 1.351 . S
C120 H106 0.929 . S
C120 N119 1.325 . S
C120 C124 1.416 . S
C121 C122 1.430 . S
C121 C123 1.404 . S
C121 C150 1.387 . S
C122 C114 1.448 . S
C122 N119 1.351 . S
C122 C121 1.430 . S
C123 H112 0.930 . S
C123 C121 1.404 . S
C123 C124 1.366 . S
C124 H103 0.930 . S
C124 C120 1.416 . S
C124 C123 1.366 . S
H125 C118 0.929 . S
H126 C149 0.931 . S
H127 C150 0.931 . S
O128 Eu84 2.462 . S
O128 C148 1.252 . S
O129 Eu84 2.373 . S
O129 C140 1.249 . S
O130 Eu95 2.335 . S
O130 C140 1.264 . S
O131 Eu84 2.432 . S
O131 C148 1.268 . S
O132 Eu84 2.291 . S
O132 C147 1.255 . S
O133 Eu95 2.372 . S
O133 C147 1.257 . S
O134 Eu95 2.462 . S
O134 C159 1.252 . S
O135 Eu95 2.373 . S
O135 C151 1.249 . S
O136 Eu84 2.335 . S
O136 C151 1.264 . S
O137 Eu95 2.432 . S
O137 C159 1.268 . S
O138 Eu95 2.291 . S
O138 C158 1.255 . S
O139 Eu84 2.372 . S
O139 C158 1.257 . S
C140 O129 1.249 . S
C140 O130 1.264 . S
C141 C144 1.382 . S
C141 C146 1.390 . S
C141 C148 1.506 . S
C142 C143 1.398 . S
C142 C146 1.392 . S
C143 C142 1.398 . S
C143 C145 1.372 . S
C143 H160 0.931 . S
C144 C141 1.382 . S
C144 C145 1.390 . S
C144 H161 0.931 . S
C145 C143 1.372 . S
C145 C144 1.390 . S
C145 H162 0.929 . S
C146 C141 1.390 . S
C146 C142 1.392 . S
C146 H163 0.930 . S
C147 O132 1.255 . S
C147 O133 1.257 . S
C148 Eu84 2.787 . S
C148 O128 1.252 . S
C148 O131 1.268 . S
C148 C141 1.506 . S
C149 C116 1.439 . S
C149 H126 0.931 . S
C149 C150 1.374 . S
C150 C121 1.387 . S
C150 H127 0.931 . S
C150 C149 1.374 . S
C151 O135 1.249 . S
C151 O136 1.264 . S
C152 C155 1.382 . S
C152 C156 1.390 . S
C152 C159 1.506 . S
C153 C154 1.398 . S
C153 C156 1.392 . S
C154 C153 1.398 . S
C154 C157 1.372 . S
C154 H164 0.931 . S
C155 C152 1.382 . S
C155 C157 1.390 . S
C155 H165 0.931 . S
C156 C152 1.390 . S
C156 C153 1.392 . S
C156 H166 0.930 . S
C157 C154 1.372 . S
C157 C155 1.390 . S
C157 H167 0.929 . S
C158 O138 1.255 . S
C158 O139 1.257 . S
C159 Eu95 2.787 . S
C159 O134 1.252 . S
C159 O137 1.268 . S
C159 C152 1.506 . S
H160 C143 0.931 . S
H161 C144 0.931 . S
H162 C145 0.929 . S
H163 C146 0.930 . S
H164 C154 0.931 . S
H165 C155 0.931 . S
H166 C156 0.930 . S
H167 C157 0.929 . S
Eu168 N197 2.600 . S
Eu168 N203 2.562 . S
Eu168 O212 2.462 . S
Eu168 O213 2.373 . S
Eu168 O215 2.432 . S
Eu168 O216 2.291 . S
Eu168 O220 2.335 . S
Eu168 O223 2.372 . S
Eu168 C232 2.787 . S
C169 N170 1.365 . S
C169 C172 1.405 . S
C169 C176 1.448 . S
N170 C169 1.365 . S
N170 C173 1.319 . S
N170 Eu179 2.600 . S
C171 C173 1.397 . S
C171 C174 1.367 . S
C171 H191 0.931 . S
C172 C169 1.405 . S
C172 C174 1.403 . S
C172 C178 1.439 . S
C173 N170 1.319 . S
C173 C171 1.397 . S
C173 H184 0.930 . S
C174 C171 1.367 . S
C174 C172 1.403 . S
C174 H195 0.929 . S
C175 C176 1.430 . S
C175 C177 1.387 . S
C175 C181 1.404 . S
C176 C169 1.448 . S
C176 C175 1.430 . S
C176 N180 1.351 . S
C177 C175 1.387 . S
C177 C178 1.374 . S
C177 H192 0.931 . S
C178 C172 1.439 . S
C178 C177 1.374 . S
C178 H193 0.931 . S
Eu179 N170 2.600 . S
Eu179 N180 2.562 . S
Eu179 O214 2.335 . S
Eu179 O217 2.372 . S
Eu179 O218 2.462 . S
Eu179 O219 2.373 . S
Eu179 O221 2.432 . S
Eu179 O222 2.291 . S
Eu179 C243 2.787 . S
N180 C176 1.351 . S
N180 Eu179 2.562 . S
N180 C182 1.325 . S
C181 C175 1.404 . S
C181 C183 1.366 . S
C181 H189 0.930 . S
C182 N180 1.325 . S
C182 C183 1.416 . S
C182 H188 0.929 . S
C183 C181 1.366 . S
C183 C182 1.416 . S
C183 H185 0.930 . S
H184 C173 0.930 . S
H185 C183 0.930 . S
H186 C201 0.930 . S
H187 C208 0.930 . S
H188 C182 0.929 . S
H189 C181 0.930 . S
H190 C204 0.929 . S
H191 C171 0.931 . S
H192 C177 0.931 . S
H193 C178 0.931 . S
H194 C199 0.931 . S
H195 C174 0.929 . S
H196 C207 0.930 . S
N197 Eu168 2.600 . S
N197 C198 1.365 . S
N197 C201 1.319 . S
C198 N197 1.365 . S
C198 C200 1.405 . S
C198 C206 1.448 . S
C199 H194 0.931 . S
C199 C201 1.397 . S
C199 C202 1.367 . S
C200 C198 1.405 . S
C200 C202 1.403 . S
C200 C233 1.439 . S
C201 H186 0.930 . S
C201 N197 1.319 . S
C201 C199 1.397 . S
C202 C199 1.367 . S
C202 C200 1.403 . S
C202 H209 0.929 . S
N203 Eu168 2.562 . S
N203 C204 1.325 . S
N203 C206 1.351 . S
C204 H190 0.929 . S
C204 N203 1.325 . S
C204 C208 1.416 . S
C205 C206 1.430 . S
C205 C207 1.404 . S
C205 C234 1.387 . S
C206 C198 1.448 . S
C206 N203 1.351 . S
C206 C205 1.430 . S
C207 H196 0.930 . S
C207 C205 1.404 . S
C207 C208 1.366 . S
C208 H187 0.930 . S
C208 C204 1.416 . S
C208 C207 1.366 . S
H209 C202 0.929 . S
H210 C233 0.931 . S
H211 C234 0.931 . S
O212 Eu168 2.462 . S
O212 C232 1.252 . S
O213 Eu168 2.373 . S
O213 C224 1.249 . S
O214 Eu179 2.335 . S
O214 C224 1.264 . S
O215 Eu168 2.432 . S
O215 C232 1.268 . S
O216 Eu168 2.291 . S
O216 C231 1.255 . S
O217 Eu179 2.372 . S
O217 C231 1.257 . S
O218 Eu179 2.462 . S
O218 C243 1.252 . S
O219 Eu179 2.373 . S
O219 C235 1.249 . S
O220 Eu168 2.335 . S
O220 C235 1.264 . S
O221 Eu179 2.432 . S
O221 C243 1.268 . S
O222 Eu179 2.291 . S
O222 C242 1.255 . S
O223 Eu168 2.372 . S
O223 C242 1.257 . S
C224 O213 1.249 . S
C224 O214 1.264 . S
C225 C228 1.382 . S
C225 C230 1.390 . S
C225 C232 1.506 . S
C226 C227 1.398 . S
C226 C230 1.392 . S
C227 C226 1.398 . S
C227 C229 1.372 . S
C227 H244 0.931 . S
C228 C225 1.382 . S
C228 C229 1.390 . S
C228 H245 0.931 . S
C229 C227 1.372 . S
C229 C228 1.390 . S
C229 H246 0.929 . S
C230 C225 1.390 . S
C230 C226 1.392 . S
C230 H247 0.930 . S
C231 O216 1.255 . S
C231 O217 1.257 . S
C232 Eu168 2.787 . S
C232 O212 1.252 . S
C232 O215 1.268 . S
C232 C225 1.506 . S
C233 C200 1.439 . S
C233 H210 0.931 . S
C233 C234 1.374 . S
C234 C205 1.387 . S
C234 H211 0.931 . S
C234 C233 1.374 . S
C235 O219 1.249 . S
C235 O220 1.264 . S
C236 C239 1.382 . S
C236 C240 1.390 . S
C236 C243 1.506 . S
C237 C238 1.398 . S
C237 C240 1.392 . S
C238 C237 1.398 . S
C238 C241 1.372 . S
C238 H248 0.931 . S
C239 C236 1.382 . S
C239 C241 1.390 . S
C239 H249 0.931 . S
C240 C236 1.390 . S
C240 C237 1.392 . S
C240 H250 0.930 . S
C241 C238 1.372 . S
C241 C239 1.390 . S
C241 H251 0.929 . S
C242 O222 1.255 . S
C242 O223 1.257 . S
C243 Eu179 2.787 . S
C243 O218 1.252 . S
C243 O221 1.268 . S
C243 C236 1.506 . S
H244 C227 0.931 . S
H245 C228 0.931 . S
H246 C229 0.929 . S
H247 C230 0.930 . S
H248 C238 0.931 . S
H249 C239 0.931 . S
H250 C240 0.930 . S
H251 C241 0.929 . S
Eu252 N281 2.600 . S
Eu252 N287 2.562 . S
Eu252 O296 2.462 . S
Eu252 O297 2.373 . S
Eu252 O299 2.432 . S
Eu252 O300 2.291 . S
Eu252 O304 2.335 . S
Eu252 O307 2.372 . S
Eu252 C316 2.787 . S
C253 N254 1.365 . S
C253 C256 1.405 . S
C253 C260 1.448 . S
N254 C253 1.365 . S
N254 C257 1.319 . S
N254 Eu263 2.600 . S
C255 C257 1.397 . S
C255 C258 1.367 . S
C255 H275 0.931 . S
C256 C253 1.405 . S
C256 C258 1.403 . S
C256 C262 1.439 . S
C257 N254 1.319 . S
C257 C255 1.397 . S
C257 H268 0.930 . S
C258 C255 1.367 . S
C258 C256 1.403 . S
C258 H279 0.929 . S
C259 C260 1.430 . S
C259 C261 1.387 . S
C259 C265 1.404 . S
C260 C253 1.448 . S
C260 C259 1.430 . S
C260 N264 1.351 . S
C261 C259 1.387 . S
C261 C262 1.374 . S
C261 H276 0.931 . S
C262 C256 1.439 . S
C262 C261 1.374 . S
C262 H277 0.931 . S
Eu263 N254 2.600 . S
Eu263 N264 2.562 . S
Eu263 O298 2.335 . S
Eu263 O301 2.372 . S
Eu263 O302 2.462 . S
Eu263 O303 2.373 . S
Eu263 O305 2.432 . S
Eu263 O306 2.291 . S
Eu263 C327 2.787 . S
N264 C260 1.351 . S
N264 Eu263 2.562 . S
N264 C266 1.325 . S
C265 C259 1.404 . S
C265 C267 1.366 . S
C265 H273 0.930 . S
C266 N264 1.325 . S
C266 C267 1.416 . S
C266 H272 0.929 . S
C267 C265 1.366 . S
C267 C266 1.416 . S
C267 H269 0.930 . S
H268 C257 0.930 . S
H269 C267 0.930 . S
H270 C285 0.930 . S
H271 C292 0.930 . S
H272 C266 0.929 . S
H273 C265 0.930 . S
H274 C288 0.929 . S
H275 C255 0.931 . S
H276 C261 0.931 . S
H277 C262 0.931 . S
H278 C283 0.931 . S
H279 C258 0.929 . S
H280 C291 0.930 . S
N281 Eu252 2.600 . S
N281 C282 1.365 . S
N281 C285 1.319 . S
C282 N281 1.365 . S
C282 C284 1.405 . S
C282 C290 1.448 . S
C283 H278 0.931 . S
C283 C285 1.397 . S
C283 C286 1.367 . S
C284 C282 1.405 . S
C284 C286 1.403 . S
C284 C317 1.439 . S
C285 H270 0.930 . S
C285 N281 1.319 . S
C285 C283 1.397 . S
C286 C283 1.367 . S
C286 C284 1.403 . S
C286 H293 0.929 . S
N287 Eu252 2.562 . S
N287 C288 1.325 . S
N287 C290 1.351 . S
C288 H274 0.929 . S
C288 N287 1.325 . S
C288 C292 1.416 . S
C289 C290 1.430 . S
C289 C291 1.404 . S
C289 C318 1.387 . S
C290 C282 1.448 . S
C290 N287 1.351 . S
C290 C289 1.430 . S
C291 H280 0.930 . S
C291 C289 1.404 . S
C291 C292 1.366 . S
C292 H271 0.930 . S
C292 C288 1.416 . S
C292 C291 1.366 . S
H293 C286 0.929 . S
H294 C317 0.931 . S
H295 C318 0.931 . S
O296 Eu252 2.462 . S
O296 C316 1.252 . S
O297 Eu252 2.373 . S
O297 C308 1.249 . S
O298 Eu263 2.335 . S
O298 C308 1.264 . S
O299 Eu252 2.432 . S
O299 C316 1.268 . S
O300 Eu252 2.291 . S
O300 C315 1.255 . S
O301 Eu263 2.372 . S
O301 C315 1.257 . S
O302 Eu263 2.462 . S
O302 C327 1.252 . S
O303 Eu263 2.373 . S
O303 C319 1.249 . S
O304 Eu252 2.335 . S
O304 C319 1.264 . S
O305 Eu263 2.432 . S
O305 C327 1.268 . S
O306 Eu263 2.291 . S
O306 C326 1.255 . S
O307 Eu252 2.372 . S
O307 C326 1.257 . S
C308 O297 1.249 . S
C308 O298 1.264 . S
C309 C312 1.382 . S
C309 C314 1.390 . S
C309 C316 1.506 . S
C310 C311 1.398 . S
C310 C314 1.392 . S
C311 C310 1.398 . S
C311 C313 1.372 . S
C311 H328 0.931 . S
C312 C309 1.382 . S
C312 C313 1.390 . S
C312 H329 0.931 . S
C313 C311 1.372 . S
C313 C312 1.390 . S
C313 H330 0.929 . S
C314 C309 1.390 . S
C314 C310 1.392 . S
C314 H331 0.930 . S
C315 O300 1.255 . S
C315 O301 1.257 . S
C316 Eu252 2.787 . S
C316 O296 1.252 . S
C316 O299 1.268 . S
C316 C309 1.506 . S
C317 C284 1.439 . S
C317 H294 0.931 . S
C317 C318 1.374 . S
C318 C289 1.387 . S
C318 H295 0.931 . S
C318 C317 1.374 . S
C319 O303 1.249 . S
C319 O304 1.264 . S
C320 C323 1.382 . S
C320 C324 1.390 . S
C320 C327 1.506 . S
C321 C322 1.398 . S
C321 C324 1.392 . S
C322 C321 1.398 . S
C322 C325 1.372 . S
C322 H332 0.931 . S
C323 C320 1.382 . S
C323 C325 1.390 . S
C323 H333 0.931 . S
C324 C320 1.390 . S
C324 C321 1.392 . S
C324 H334 0.930 . S
C325 C322 1.372 . S
C325 C323 1.390 . S
C325 H335 0.929 . S
C326 O306 1.255 . S
C326 O307 1.257 . S
C327 Eu263 2.787 . S
C327 O302 1.252 . S
C327 O305 1.268 . S
C327 C320 1.506 . S
H328 C311 0.931 . S
H329 C312 0.931 . S
H330 C313 0.929 . S
H331 C314 0.930 . S
H332 C322 0.931 . S
H333 C323 0.931 . S
H334 C324 0.930 . S
H335 C325 0.929 . S
Eu336 N365 2.600 . S
Eu336 N371 2.562 . S
Eu336 O380 2.462 . S
Eu336 O381 2.373 . S
Eu336 O383 2.432 . S
Eu336 O384 2.291 . S
Eu336 O388 2.335 . S
Eu336 O391 2.372 . S
Eu336 C400 2.787 . S
C337 N338 1.365 . S
C337 C340 1.405 . S
C337 C344 1.448 . S
N338 C337 1.365 . S
N338 C341 1.319 . S
N338 Eu347 2.600 . S
C339 C341 1.397 . S
C339 C342 1.367 . S
C339 H359 0.931 . S
C340 C337 1.405 . S
C340 C342 1.403 . S
C340 C346 1.439 . S
C341 N338 1.319 . S
C341 C339 1.397 . S
C341 H352 0.930 . S
C342 C339 1.367 . S
C342 C340 1.403 . S
C342 H363 0.929 . S
C343 C344 1.430 . S
C343 C345 1.387 . S
C343 C349 1.404 . S
C344 C337 1.448 . S
C344 C343 1.430 . S
C344 N348 1.351 . S
C345 C343 1.387 . S
C345 C346 1.374 . S
C345 H360 0.931 . S
C346 C340 1.439 . S
C346 C345 1.374 . S
C346 H361 0.931 . S
Eu347 N338 2.600 . S
Eu347 N348 2.562 . S
Eu347 O382 2.335 . S
Eu347 O385 2.372 . S
Eu347 O386 2.462 . S
Eu347 O387 2.373 . S
Eu347 O389 2.432 . S
Eu347 O390 2.291 . S
Eu347 C411 2.787 . S
N348 C344 1.351 . S
N348 Eu347 2.562 . S
N348 C350 1.325 . S
C349 C343 1.404 . S
C349 C351 1.366 . S
C349 H357 0.930 . S
C350 N348 1.325 . S
C350 C351 1.416 . S
C350 H356 0.929 . S
C351 C349 1.366 . S
C351 C350 1.416 . S
C351 H353 0.930 . S
H352 C341 0.930 . S
H353 C351 0.930 . S
H354 C369 0.930 . S
H355 C376 0.930 . S
H356 C350 0.929 . S
H357 C349 0.930 . S
H358 C372 0.929 . S
H359 C339 0.931 . S
H360 C345 0.931 . S
H361 C346 0.931 . S
H362 C367 0.931 . S
H363 C342 0.929 . S
H364 C375 0.930 . S
N365 Eu336 2.600 . S
N365 C366 1.365 . S
N365 C369 1.319 . S
C366 N365 1.365 . S
C366 C368 1.405 . S
C366 C374 1.448 . S
C367 H362 0.931 . S
C367 C369 1.397 . S
C367 C370 1.367 . S
C368 C366 1.405 . S
C368 C370 1.403 . S
C368 C401 1.439 . S
C369 H354 0.930 . S
C369 N365 1.319 . S
C369 C367 1.397 . S
C370 C367 1.367 . S
C370 C368 1.403 . S
C370 H377 0.929 . S
N371 Eu336 2.562 . S
N371 C372 1.325 . S
N371 C374 1.351 . S
C372 H358 0.929 . S
C372 N371 1.325 . S
C372 C376 1.416 . S
C373 C374 1.430 . S
C373 C375 1.404 . S
C373 C402 1.387 . S
C374 C366 1.448 . S
C374 N371 1.351 . S
C374 C373 1.430 . S
C375 H364 0.930 . S
C375 C373 1.404 . S
C375 C376 1.366 . S
C376 H355 0.930 . S
C376 C372 1.416 . S
C376 C375 1.366 . S
H377 C370 0.929 . S
H378 C401 0.931 . S
H379 C402 0.931 . S
O380 Eu336 2.462 . S
O380 C400 1.252 . S
O381 Eu336 2.373 . S
O381 C392 1.249 . S
O382 Eu347 2.335 . S
O382 C392 1.264 . S
O383 Eu336 2.432 . S
O383 C400 1.268 . S
O384 Eu336 2.291 . S
O384 C399 1.255 . S
O385 Eu347 2.372 . S
O385 C399 1.257 . S
O386 Eu347 2.462 . S
O386 C411 1.252 . S
O387 Eu347 2.373 . S
O387 C403 1.249 . S
O388 Eu336 2.335 . S
O388 C403 1.264 . S
O389 Eu347 2.432 . S
O389 C411 1.268 . S
O390 Eu347 2.291 . S
O390 C410 1.255 . S
O391 Eu336 2.372 . S
O391 C410 1.257 . S
C392 O381 1.249 . S
C392 O382 1.264 . S
C393 C396 1.382 . S
C393 C398 1.390 . S
C393 C400 1.506 . S
C394 C395 1.398 . S
C394 C398 1.392 . S
C395 C394 1.398 . S
C395 C397 1.372 . S
C395 H412 0.931 . S
C396 C393 1.382 . S
C396 C397 1.390 . S
C396 H413 0.931 . S
C397 C395 1.372 . S
C397 C396 1.390 . S
C397 H414 0.929 . S
C398 C393 1.390 . S
C398 C394 1.392 . S
C398 H415 0.930 . S
C399 O384 1.255 . S
C399 O385 1.257 . S
C400 Eu336 2.787 . S
C400 O380 1.252 . S
C400 O383 1.268 . S
C400 C393 1.506 . S
C401 C368 1.439 . S
C401 H378 0.931 . S
C401 C402 1.374 . S
C402 C373 1.387 . S
C402 H379 0.931 . S
C402 C401 1.374 . S
C403 O387 1.249 . S
C403 O388 1.264 . S
C404 C407 1.382 . S
C404 C408 1.390 . S
C404 C411 1.506 . S
C405 C406 1.398 . S
C405 C408 1.392 . S
C406 C405 1.398 . S
C406 C409 1.372 . S
C406 H416 0.931 . S
C407 C404 1.382 . S
C407 C409 1.390 . S
C407 H417 0.931 . S
C408 C404 1.390 . S
C408 C405 1.392 . S
C408 H418 0.930 . S
C409 C406 1.372 . S
C409 C407 1.390 . S
C409 H419 0.929 . S
C410 O390 1.255 . S
C410 O391 1.257 . S
C411 Eu347 2.787 . S
C411 O386 1.252 . S
C411 O389 1.268 . S
C411 C404 1.506 . S
H412 C395 0.931 . S
H413 C396 0.931 . S
H414 C397 0.929 . S
H415 C398 0.930 . S
H416 C406 0.931 . S
H417 C407 0.931 . S
H418 C408 0.930 . S
H419 C409 0.929 . S
Eu420 N449 2.600 . S
Eu420 N455 2.562 . S
Eu420 O464 2.462 . S
Eu420 O465 2.373 . S
Eu420 O467 2.432 . S
Eu420 O468 2.291 . S
Eu420 O472 2.335 . S
Eu420 O475 2.372 . S
Eu420 C484 2.787 . S
C421 N422 1.365 . S
C421 C424 1.405 . S
C421 C428 1.448 . S
N422 C421 1.365 . S
N422 C425 1.319 . S
N422 Eu431 2.600 . S
C423 C425 1.397 . S
C423 C426 1.367 . S
C423 H443 0.931 . S
C424 C421 1.405 . S
C424 C426 1.403 . S
C424 C430 1.439 . S
C425 N422 1.319 . S
C425 C423 1.397 . S
C425 H436 0.930 . S
C426 C423 1.367 . S
C426 C424 1.403 . S
C426 H447 0.929 . S
C427 C428 1.430 . S
C427 C429 1.387 . S
C427 C433 1.404 . S
C428 C421 1.448 . S
C428 C427 1.430 . S
C428 N432 1.351 . S
C429 C427 1.387 . S
C429 C430 1.374 . S
C429 H444 0.931 . S
C430 C424 1.439 . S
C430 C429 1.374 . S
C430 H445 0.931 . S
Eu431 N422 2.600 . S
Eu431 N432 2.562 . S
Eu431 O466 2.335 . S
Eu431 O469 2.372 . S
Eu431 O470 2.462 . S
Eu431 O471 2.373 . S
Eu431 O473 2.432 . S
Eu431 O474 2.291 . S
Eu431 C495 2.787 . S
N432 C428 1.351 . S
N432 Eu431 2.562 . S
N432 C434 1.325 . S
C433 C427 1.404 . S
C433 C435 1.366 . S
C433 H441 0.930 . S
C434 N432 1.325 . S
C434 C435 1.416 . S
C434 H440 0.929 . S
C435 C433 1.366 . S
C435 C434 1.416 . S
C435 H437 0.930 . S
H436 C425 0.930 . S
H437 C435 0.930 . S
H438 C453 0.930 . S
H439 C460 0.930 . S
H440 C434 0.929 . S
H441 C433 0.930 . S
H442 C456 0.929 . S
H443 C423 0.931 . S
H444 C429 0.931 . S
H445 C430 0.931 . S
H446 C451 0.931 . S
H447 C426 0.929 . S
H448 C459 0.930 . S
N449 Eu420 2.600 . S
N449 C450 1.365 . S
N449 C453 1.319 . S
C450 N449 1.365 . S
C450 C452 1.405 . S
C450 C458 1.448 . S
C451 H446 0.931 . S
C451 C453 1.397 . S
C451 C454 1.367 . S
C452 C450 1.405 . S
C452 C454 1.403 . S
C452 C485 1.439 . S
C453 H438 0.930 . S
C453 N449 1.319 . S
C453 C451 1.397 . S
C454 C451 1.367 . S
C454 C452 1.403 . S
C454 H461 0.929 . S
N455 Eu420 2.562 . S
N455 C456 1.325 . S
N455 C458 1.351 . S
C456 H442 0.929 . S
C456 N455 1.325 . S
C456 C460 1.416 . S
C457 C458 1.430 . S
C457 C459 1.404 . S
C457 C486 1.387 . S
C458 C450 1.448 . S
C458 N455 1.351 . S
C458 C457 1.430 . S
C459 H448 0.930 . S
C459 C457 1.404 . S
C459 C460 1.366 . S
C460 H439 0.930 . S
C460 C456 1.416 . S
C460 C459 1.366 . S
H461 C454 0.929 . S
H462 C485 0.931 . S
H463 C486 0.931 . S
O464 Eu420 2.462 . S
O464 C484 1.252 . S
O465 Eu420 2.373 . S
O465 C476 1.249 . S
O466 Eu431 2.335 . S
O466 C476 1.264 . S
O467 Eu420 2.432 . S
O467 C484 1.268 . S
O468 Eu420 2.291 . S
O468 C483 1.255 . S
O469 Eu431 2.372 . S
O469 C483 1.257 . S
O470 Eu431 2.462 . S
O470 C495 1.252 . S
O471 Eu431 2.373 . S
O471 C487 1.249 . S
O472 Eu420 2.335 . S
O472 C487 1.264 . S
O473 Eu431 2.432 . S
O473 C495 1.268 . S
O474 Eu431 2.291 . S
O474 C494 1.255 . S
O475 Eu420 2.372 . S
O475 C494 1.257 . S
C476 O465 1.249 . S
C476 O466 1.264 . S
C477 C480 1.382 . S
C477 C482 1.390 . S
C477 C484 1.506 . S
C478 C479 1.398 . S
C478 C482 1.392 . S
C479 C478 1.398 . S
C479 C481 1.372 . S
C479 H496 0.931 . S
C480 C477 1.382 . S
C480 C481 1.390 . S
C480 H497 0.931 . S
C481 C479 1.372 . S
C481 C480 1.390 . S
C481 H498 0.929 . S
C482 C477 1.390 . S
C482 C478 1.392 . S
C482 H499 0.930 . S
C483 O468 1.255 . S
C483 O469 1.257 . S
C484 Eu420 2.787 . S
C484 O464 1.252 . S
C484 O467 1.268 . S
C484 C477 1.506 . S
C485 C452 1.439 . S
C485 H462 0.931 . S
C485 C486 1.374 . S
C486 C457 1.387 . S
C486 H463 0.931 . S
C486 C485 1.374 . S
C487 O471 1.249 . S
C487 O472 1.264 . S
C488 C491 1.382 . S
C488 C492 1.390 . S
C488 C495 1.506 . S
C489 C490 1.398 . S
C489 C492 1.392 . S
C490 C489 1.398 . S
C490 C493 1.372 . S
C490 H500 0.931 . S
C491 C488 1.382 . S
C491 C493 1.390 . S
C491 H501 0.931 . S
C492 C488 1.390 . S
C492 C489 1.392 . S
C492 H502 0.930 . S
C493 C490 1.372 . S
C493 C491 1.390 . S
C493 H503 0.929 . S
C494 O474 1.255 . S
C494 O475 1.257 . S
C495 Eu431 2.787 . S
C495 O470 1.252 . S
C495 O473 1.268 . S
C495 C488 1.506 . S
H496 C479 0.931 . S
H497 C480 0.931 . S
H498 C481 0.929 . S
H499 C482 0.930 . S
H500 C490 0.931 . S
H501 C491 0.931 . S
H502 C492 0.930 . S
H503 C493 0.929 . S
Eu504 N533 2.600 . S
Eu504 N539 2.562 . S
Eu504 O548 2.462 . S
Eu504 O549 2.373 . S
Eu504 O551 2.432 . S
Eu504 O552 2.291 . S
Eu504 O556 2.335 . S
Eu504 O559 2.372 . S
Eu504 C568 2.787 . S
C505 N506 1.365 . S
C505 C508 1.405 . S
C505 C512 1.448 . S
N506 C505 1.365 . S
N506 C509 1.319 . S
N506 Eu515 2.600 . S
C507 C509 1.397 . S
C507 C510 1.367 . S
C507 H527 0.931 . S
C508 C505 1.405 . S
C508 C510 1.403 . S
C508 C514 1.439 . S
C509 N506 1.319 . S
C509 C507 1.397 . S
C509 H520 0.930 . S
C510 C507 1.367 . S
C510 C508 1.403 . S
C510 H531 0.929 . S
C511 C512 1.430 . S
C511 C513 1.387 . S
C511 C517 1.404 . S
C512 C505 1.448 . S
C512 C511 1.430 . S
C512 N516 1.351 . S
C513 C511 1.387 . S
C513 C514 1.374 . S
C513 H528 0.931 . S
C514 C508 1.439 . S
C514 C513 1.374 . S
C514 H529 0.931 . S
Eu515 N506 2.600 . S
Eu515 N516 2.562 . S
Eu515 O550 2.335 . S
Eu515 O553 2.372 . S
Eu515 O554 2.462 . S
Eu515 O555 2.373 . S
Eu515 O557 2.432 . S
Eu515 O558 2.291 . S
Eu515 C579 2.787 . S
N516 C512 1.351 . S
N516 Eu515 2.562 . S
N516 C518 1.325 . S
C517 C511 1.404 . S
C517 C519 1.366 . S
C517 H525 0.930 . S
C518 N516 1.325 . S
C518 C519 1.416 . S
C518 H524 0.929 . S
C519 C517 1.366 . S
C519 C518 1.416 . S
C519 H521 0.930 . S
H520 C509 0.930 . S
H521 C519 0.930 . S
H522 C537 0.930 . S
H523 C544 0.930 . S
H524 C518 0.929 . S
H525 C517 0.930 . S
H526 C540 0.929 . S
H527 C507 0.931 . S
H528 C513 0.931 . S
H529 C514 0.931 . S
H530 C535 0.931 . S
H531 C510 0.929 . S
H532 C543 0.930 . S
N533 Eu504 2.600 . S
N533 C534 1.365 . S
N533 C537 1.319 . S
C534 N533 1.365 . S
C534 C536 1.405 . S
C534 C542 1.448 . S
C535 H530 0.931 . S
C535 C537 1.397 . S
C535 C538 1.367 . S
C536 C534 1.405 . S
C536 C538 1.403 . S
C536 C569 1.439 . S
C537 H522 0.930 . S
C537 N533 1.319 . S
C537 C535 1.397 . S
C538 C535 1.367 . S
C538 C536 1.403 . S
C538 H545 0.929 . S
N539 Eu504 2.562 . S
N539 C540 1.325 . S
N539 C542 1.351 . S
C540 H526 0.929 . S
C540 N539 1.325 . S
C540 C544 1.416 . S
C541 C542 1.430 . S
C541 C543 1.404 . S
C541 C570 1.387 . S
C542 C534 1.448 . S
C542 N539 1.351 . S
C542 C541 1.430 . S
C543 H532 0.930 . S
C543 C541 1.404 . S
C543 C544 1.366 . S
C544 H523 0.930 . S
C544 C540 1.416 . S
C544 C543 1.366 . S
H545 C538 0.929 . S
H546 C569 0.931 . S
H547 C570 0.931 . S
O548 Eu504 2.462 . S
O548 C568 1.252 . S
O549 Eu504 2.373 . S
O549 C560 1.249 . S
O550 Eu515 2.335 . S
O550 C560 1.264 . S
O551 Eu504 2.432 . S
O551 C568 1.268 . S
O552 Eu504 2.291 . S
O552 C567 1.255 . S
O553 Eu515 2.372 . S
O553 C567 1.257 . S
O554 Eu515 2.462 . S
O554 C579 1.252 . S
O555 Eu515 2.373 . S
O555 C571 1.249 . S
O556 Eu504 2.335 . S
O556 C571 1.264 . S
O557 Eu515 2.432 . S
O557 C579 1.268 . S
O558 Eu515 2.291 . S
O558 C578 1.255 . S
O559 Eu504 2.372 . S
O559 C578 1.257 . S
C560 O549 1.249 . S
C560 O550 1.264 . S
C561 C564 1.382 . S
C561 C566 1.390 . S
C561 C568 1.506 . S
C562 C563 1.398 . S
C562 C566 1.392 . S
C563 C562 1.398 . S
C563 C565 1.372 . S
C563 H580 0.931 . S
C564 C561 1.382 . S
C564 C565 1.390 . S
C564 H581 0.931 . S
C565 C563 1.372 . S
C565 C564 1.390 . S
C565 H582 0.929 . S
C566 C561 1.390 . S
C566 C562 1.392 . S
C566 H583 0.930 . S
C567 O552 1.255 . S
C567 O553 1.257 . S
C568 Eu504 2.787 . S
C568 O548 1.252 . S
C568 O551 1.268 . S
C568 C561 1.506 . S
C569 C536 1.439 . S
C569 H546 0.931 . S
C569 C570 1.374 . S
C570 C541 1.387 . S
C570 H547 0.931 . S
C570 C569 1.374 . S
C571 O555 1.249 . S
C571 O556 1.264 . S
C572 C575 1.382 . S
C572 C576 1.390 . S
C572 C579 1.506 . S
C573 C574 1.398 . S
C573 C576 1.392 . S
C574 C573 1.398 . S
C574 C577 1.372 . S
C574 H584 0.931 . S
C575 C572 1.382 . S
C575 C577 1.390 . S
C575 H585 0.931 . S
C576 C572 1.390 . S
C576 C573 1.392 . S
C576 H586 0.930 . S
C577 C574 1.372 . S
C577 C575 1.390 . S
C577 H587 0.929 . S
C578 O558 1.255 . S
C578 O559 1.257 . S
C579 Eu515 2.787 . S
C579 O554 1.252 . S
C579 O557 1.268 . S
C579 C572 1.506 . S
H580 C563 0.931 . S
H581 C564 0.931 . S
H582 C565 0.929 . S
H583 C566 0.930 . S
H584 C574 0.931 . S
H585 C575 0.931 . S
H586 C576 0.930 . S
H587 C577 0.929 . S
Eu588 N617 2.600 . S
Eu588 N623 2.562 . S
Eu588 O632 2.462 . S
Eu588 O633 2.373 . S
Eu588 O635 2.432 . S
Eu588 O636 2.291 . S
Eu588 O640 2.335 . S
Eu588 O643 2.372 . S
Eu588 C652 2.787 . S
C589 N590 1.365 . S
C589 C592 1.405 . S
C589 C596 1.448 . S
N590 C589 1.365 . S
N590 C593 1.319 . S
N590 Eu599 2.600 . S
C591 C593 1.397 . S
C591 C594 1.367 . S
C591 H611 0.931 . S
C592 C589 1.405 . S
C592 C594 1.403 . S
C592 C598 1.439 . S
C593 N590 1.319 . S
C593 C591 1.397 . S
C593 H604 0.930 . S
C594 C591 1.367 . S
C594 C592 1.403 . S
C594 H615 0.929 . S
C595 C596 1.430 . S
C595 C597 1.387 . S
C595 C601 1.404 . S
C596 C589 1.448 . S
C596 C595 1.430 . S
C596 N600 1.351 . S
C597 C595 1.387 . S
C597 C598 1.374 . S
C597 H612 0.931 . S
C598 C592 1.439 . S
C598 C597 1.374 . S
C598 H613 0.931 . S
Eu599 N590 2.600 . S
Eu599 N600 2.562 . S
Eu599 O634 2.335 . S
Eu599 O637 2.372 . S
Eu599 O638 2.462 . S
Eu599 O639 2.373 . S
Eu599 O641 2.432 . S
Eu599 O642 2.291 . S
Eu599 C663 2.787 . S
N600 C596 1.351 . S
N600 Eu599 2.562 . S
N600 C602 1.325 . S
C601 C595 1.404 . S
C601 C603 1.366 . S
C601 H609 0.930 . S
C602 N600 1.325 . S
C602 C603 1.416 . S
C602 H608 0.929 . S
C603 C601 1.366 . S
C603 C602 1.416 . S
C603 H605 0.930 . S
H604 C593 0.930 . S
H605 C603 0.930 . S
H606 C621 0.930 . S
H607 C628 0.930 . S
H608 C602 0.929 . S
H609 C601 0.930 . S
H610 C624 0.929 . S
H611 C591 0.931 . S
H612 C597 0.931 . S
H613 C598 0.931 . S
H614 C619 0.931 . S
H615 C594 0.929 . S
H616 C627 0.930 . S
N617 Eu588 2.600 . S
N617 C618 1.365 . S
N617 C621 1.319 . S
C618 N617 1.365 . S
C618 C620 1.405 . S
C618 C626 1.448 . S
C619 H614 0.931 . S
C619 C621 1.397 . S
C619 C622 1.367 . S
C620 C618 1.405 . S
C620 C622 1.403 . S
C620 C653 1.439 . S
C621 H606 0.930 . S
C621 N617 1.319 . S
C621 C619 1.397 . S
C622 C619 1.367 . S
C622 C620 1.403 . S
C622 H629 0.929 . S
N623 Eu588 2.562 . S
N623 C624 1.325 . S
N623 C626 1.351 . S
C624 H610 0.929 . S
C624 N623 1.325 . S
C624 C628 1.416 . S
C625 C626 1.430 . S
C625 C627 1.404 . S
C625 C654 1.387 . S
C626 C618 1.448 . S
C626 N623 1.351 . S
C626 C625 1.430 . S
C627 H616 0.930 . S
C627 C625 1.404 . S
C627 C628 1.366 . S
C628 H607 0.930 . S
C628 C624 1.416 . S
C628 C627 1.366 . S
H629 C622 0.929 . S
H630 C653 0.931 . S
H631 C654 0.931 . S
O632 Eu588 2.462 . S
O632 C652 1.252 . S
O633 Eu588 2.373 . S
O633 C644 1.249 . S
O634 Eu599 2.335 . S
O634 C644 1.264 . S
O635 Eu588 2.432 . S
O635 C652 1.268 . S
O636 Eu588 2.291 . S
O636 C651 1.255 . S
O637 Eu599 2.372 . S
O637 C651 1.257 . S
O638 Eu599 2.462 . S
O638 C663 1.252 . S
O639 Eu599 2.373 . S
O639 C655 1.249 . S
O640 Eu588 2.335 . S
O640 C655 1.264 . S
O641 Eu599 2.432 . S
O641 C663 1.268 . S
O642 Eu599 2.291 . S
O642 C662 1.255 . S
O643 Eu588 2.372 . S
O643 C662 1.257 . S
C644 O633 1.249 . S
C644 O634 1.264 . S
C645 C648 1.382 . S
C645 C650 1.390 . S
C645 C652 1.506 . S
C646 C647 1.398 . S
C646 C650 1.392 . S
C647 C646 1.398 . S
C647 C649 1.372 . S
C647 H664 0.931 . S
C648 C645 1.382 . S
C648 C649 1.390 . S
C648 H665 0.931 . S
C649 C647 1.372 . S
C649 C648 1.390 . S
C649 H666 0.929 . S
C650 C645 1.390 . S
C650 C646 1.392 . S
C650 H667 0.930 . S
C651 O636 1.255 . S
C651 O637 1.257 . S
C652 Eu588 2.787 . S
C652 O632 1.252 . S
C652 O635 1.268 . S
C652 C645 1.506 . S
C653 C620 1.439 . S
C653 H630 0.931 . S
C653 C654 1.374 . S
C654 C625 1.387 . S
C654 H631 0.931 . S
C654 C653 1.374 . S
C655 O639 1.249 . S
C655 O640 1.264 . S
C656 C659 1.382 . S
C656 C660 1.390 . S
C656 C663 1.506 . S
C657 C658 1.398 . S
C657 C660 1.392 . S
C658 C657 1.398 . S
C658 C661 1.372 . S
C658 H668 0.931 . S
C659 C656 1.382 . S
C659 C661 1.390 . S
C659 H669 0.931 . S
C660 C656 1.390 . S
C660 C657 1.392 . S
C660 H670 0.930 . S
C661 C658 1.372 . S
C661 C659 1.390 . S
C661 H671 0.929 . S
C662 O642 1.255 . S
C662 O643 1.257 . S
C663 Eu599 2.787 . S
C663 O638 1.252 . S
C663 O641 1.268 . S
C663 C656 1.506 . S
H664 C647 0.931 . S
H665 C648 0.931 . S
H666 C649 0.929 . S
H667 C650 0.930 . S
H668 C658 0.931 . S
H669 C659 0.931 . S
H670 C660 0.930 . S
H671 C661 0.929 . S
C672 O684 1.241 . S
C672 O685 1.280 . S
C673 O686 1.277 . S
C673 O687 1.245 . S
C674 O698 1.247 . S
C674 O700 1.289 . S
Mg675 O676 1.926 . S
Mg675 O685 1.984 . S
Mg675 O687 1.988 . S
Mg675 O688 2.061 1_655 S
O676 Mg675 1.926 . S
O676 Mg677 1.986 1_545 S
O676 Mg678 1.908 1_655 S
Mg677 O676 1.986 1_565 S
Mg677 O684 2.042 1_565 S
Mg677 O686 2.041 1_565 S
Mg677 O692 2.038 . S
Mg677 O700 2.238 . S
Mg678 O676 1.908 1_455 S
Mg678 O679 1.925 1_545 S
Mg678 O689 2.115 . S
Mg678 O691 2.077 1_445 S
Mg678 O700 2.098 1_445 S
Mg678 O701 2.081 . S
O679 Mg678 1.925 1_565 S
O679 Mg680 1.926 . S
O679 Mg681 1.986 1_565 S
Mg680 O679 1.926 . S
Mg680 O694 1.984 . S
Mg680 O697 1.988 . S
Mg680 O698 2.061 1_455 S
Mg681 O679 1.986 1_545 S
Mg681 O689 2.238 . S
Mg681 O693 2.042 1_545 S
Mg681 O695 2.041 1_545 S
Mg681 O702 2.038 . S
C682 O688 1.247 . S
C682 O689 1.289 . S
C683 O701 1.245 . S
C683 O702 1.274 . S
O684 C672 1.241 . S
O684 Mg677 2.042 1_545 S
O685 C672 1.280 . S
O685 Mg675 1.984 . S
O686 C673 1.277 . S
O686 Mg677 2.041 1_545 S
O687 C673 1.245 . S
O687 Mg675 1.988 . S
O688 Mg675 2.061 1_455 S
O688 C682 1.247 . S
O689 Mg678 2.115 . S
O689 Mg681 2.238 . S
O689 C682 1.289 . S
C690 O691 1.245 . S
C690 O692 1.274 . S
O691 Mg678 2.077 1_665 S
O691 C690 1.245 . S
O692 Mg677 2.038 . S
O692 C690 1.274 . S
O693 Mg681 2.042 1_565 S
O693 C696 1.241 . S
O694 Mg680 1.984 . S
O694 C696 1.280 . S
O695 Mg681 2.041 1_565 S
O695 C699 1.277 . S
C696 O693 1.241 . S
C696 O694 1.280 . S
O697 Mg680 1.988 . S
O697 C699 1.245 . S
O698 C674 1.247 . S
O698 Mg680 2.061 1_655 S
C699 O695 1.277 . S
C699 O697 1.245 . S
O700 C674 1.289 . S
O700 Mg677 2.238 . S
O700 Mg678 2.098 1_665 S
O701 Mg678 2.081 . S
O701 C683 1.245 . S
O702 Mg681 2.038 . S
O702 C683 1.274 . S
C703 O715 1.241 . S
C703 O716 1.280 . S
C704 O717 1.277 . S
C704 O718 1.245 . S
C705 O729 1.247 . S
C705 O731 1.289 . S
Mg706 O707 1.926 . S
Mg706 O716 1.984 . S
Mg706 O718 1.988 1_554 S
Mg706 O719 2.061 . S
O707 Mg706 1.926 . S
O707 Mg708 1.986 1_545 S
O707 Mg709 1.919 . S
Mg708 O707 1.986 1_565 S
Mg708 O715 2.042 1_565 S
Mg708 O717 2.041 1_564 S
Mg708 O723 2.038 . S
Mg708 O731 2.238 1_554 S
Mg709 O707 1.919 . S
Mg709 O710 1.915 1_544 S
Mg709 O720 2.110 . S
Mg709 O722 2.083 1_545 S
Mg709 O731 2.103 1_544 S
Mg709 O732 2.074 1_554 S
O710 Mg709 1.915 1_566 S
O710 Mg711 1.926 . S
O710 Mg712 1.986 1_565 S
Mg711 O710 1.926 . S
Mg711 O725 1.984 . S
Mg711 O728 1.988 1_556 S
Mg711 O729 2.061 . S
Mg712 O710 1.986 1_545 S
Mg712 O720 2.238 1_556 S
Mg712 O724 2.042 1_545 S
Mg712 O726 2.041 1_546 S
Mg712 O733 2.038 . S
C713 O719 1.247 . S
C713 O720 1.289 . S
C714 O732 1.245 . S
C714 O733 1.274 . S
O715 C703 1.241 . S
O715 Mg708 2.042 1_545 S
O716 C703 1.280 . S
O716 Mg706 1.984 . S
O717 C704 1.277 . S
O717 Mg708 2.041 1_546 S
O718 C704 1.245 . S
O718 Mg706 1.988 1_556 S
O719 Mg706 2.061 . S
O719 C713 1.247 . S
O720 Mg709 2.110 . S
O720 Mg712 2.238 1_554 S
O720 C713 1.289 . S
C721 O722 1.245 . S
C721 O723 1.274 . S
O722 Mg709 2.083 1_565 S
O722 C721 1.245 . S
O723 Mg708 2.038 . S
O723 C721 1.274 . S
O724 Mg712 2.042 1_565 S
O724 C727 1.241 . S
O725 Mg711 1.984 . S
O725 C727 1.280 . S
O726 Mg712 2.041 1_564 S
O726 C730 1.277 . S
C727 O724 1.241 . S
C727 O725 1.280 . S
O728 Mg711 1.988 1_554 S
O728 C730 1.245 . S
O729 C705 1.247 . S
O729 Mg711 2.061 . S
C730 O726 1.277 . S
C730 O728 1.245 . S
O731 C705 1.289 . S
O731 Mg708 2.238 1_556 S
O731 Mg709 2.103 1_566 S
O732 Mg709 2.074 1_556 S
O732 C714 1.245 . S
O733 Mg712 2.038 . S
O733 C714 1.274 . S
C734 O746 1.241 . S
C734 O747 1.280 . S
C735 O748 1.277 . S
C735 O749 1.245 . S
C736 O760 1.247 . S
C736 O762 1.289 . S
Mg737 O738 1.926 . S
Mg737 O747 1.984 . S
Mg737 O749 1.988 1_554 S
Mg737 O750 2.061 1_655 S
O738 Mg737 1.926 . S
O738 Mg739 1.986 . S
O738 Mg740 1.909 1_655 S
Mg739 O738 1.986 . S
Mg739 O746 2.042 . S
Mg739 O748 2.041 1_554 S
Mg739 O754 2.038 . S
Mg739 O762 2.238 1_554 S
Mg740 O738 1.909 1_455 S
Mg740 O741 1.925 1_554 S
Mg740 O751 2.118 . S
Mg740 O753 2.082 1_455 S
Mg740 O762 2.095 1_454 S
Mg740 O763 2.075 1_554 S
O741 Mg740 1.925 1_556 S
O741 Mg742 1.926 . S
O741 Mg743 1.986 . S
Mg742 O741 1.926 . S
Mg742 O756 1.984 . S
Mg742 O759 1.988 1_556 S
Mg742 O760 2.061 1_455 S
Mg743 O741 1.986 . S
Mg743 O751 2.238 1_556 S
Mg743 O755 2.042 . S
Mg743 O757 2.041 1_556 S
Mg743 O764 2.038 . S
C744 O750 1.247 . S
C744 O751 1.289 . S
C745 O763 1.245 . S
C745 O764 1.274 . S
O746 C734 1.241 . S
O746 Mg739 2.042 . S
O747 C734 1.280 . S
O747 Mg737 1.984 . S
O748 C735 1.277 . S
O748 Mg739 2.041 1_556 S
O749 C735 1.245 . S
O749 Mg737 1.988 1_556 S
O750 Mg737 2.061 1_455 S
O750 C744 1.247 . S
O751 Mg740 2.118 . S
O751 Mg743 2.238 1_554 S
O751 C744 1.289 . S
C752 O753 1.245 . S
C752 O754 1.274 . S
O753 Mg740 2.082 1_655 S
O753 C752 1.245 . S
O754 Mg739 2.038 . S
O754 C752 1.274 . S
O755 Mg743 2.042 . S
O755 C758 1.241 . S
O756 Mg742 1.984 . S
O756 C758 1.280 . S
O757 Mg743 2.041 1_554 S
O757 C761 1.277 . S
C758 O755 1.241 . S
C758 O756 1.280 . S
O759 Mg742 1.988 1_554 S
O759 C761 1.245 . S
O760 C736 1.247 . S
O760 Mg742 2.061 1_655 S
C761 O757 1.277 . S
C761 O759 1.245 . S
O762 C736 1.289 . S
O762 Mg739 2.238 1_556 S
O762 Mg740 2.095 1_656 S
O763 Mg740 2.075 1_556 S
O763 C745 1.245 . S
O764 Mg743 2.038 . S
O764 C745 1.274 . S
C765 O777 1.241 . S
C765 O778 1.280 . S
C766 O779 1.277 . S
C766 O780 1.245 . S
C767 O791 1.247 . S
C767 O793 1.289 . S
Mg768 O769 1.926 . S
Mg768 O778 1.984 . S
Mg768 O780 1.988 1_554 S
Mg768 O781 2.061 . S
O769 Mg768 1.926 . S
O769 Mg770 1.986 . S
O769 Mg771 1.918 . S
Mg770 O769 1.986 . S
Mg770 O777 2.042 . S
Mg770 O779 2.041 1_554 S
Mg770 O785 2.038 . S
Mg770 O793 2.238 1_554 S
Mg771 O769 1.918 . S
Mg771 O772 1.916 1_554 S
Mg771 O782 2.110 . S
Mg771 O784 2.084 . S
Mg771 O793 2.103 1_554 S
Mg771 O794 2.074 1_554 S
O772 Mg771 1.916 1_556 S
O772 Mg773 1.926 . S
O772 Mg774 1.986 . S
Mg773 O772 1.926 . S
Mg773 O787 1.984 . S
Mg773 O790 1.988 1_556 S
Mg773 O791 2.061 . S
Mg774 O772 1.986 . S
Mg774 O782 2.238 1_556 S
Mg774 O786 2.042 . S
Mg774 O788 2.041 1_556 S
Mg774 O795 2.038 . S
C775 O781 1.247 . S
C775 O782 1.289 . S
C776 O794 1.245 . S
C776 O795 1.274 . S
O777 C765 1.241 . S
O777 Mg770 2.042 . S
O778 C765 1.280 . S
O778 Mg768 1.984 . S
O779 C766 1.277 . S
O779 Mg770 2.041 1_556 S
O780 C766 1.245 . S
O780 Mg768 1.988 1_556 S
O781 Mg768 2.061 . S
O781 C775 1.247 . S
O782 Mg771 2.110 . S
O782 Mg774 2.238 1_554 S
O782 C775 1.289 . S
C783 O784 1.245 . S
C783 O785 1.274 . S
O784 Mg771 2.084 . S
O784 C783 1.245 . S
O785 Mg770 2.038 . S
O785 C783 1.274 . S
O786 Mg774 2.042 . S
O786 C789 1.241 . S
O787 Mg773 1.984 . S
O787 C789 1.280 . S
O788 Mg774 2.041 1_554 S
O788 C792 1.277 . S
C789 O786 1.241 . S
C789 O787 1.280 . S
O790 Mg773 1.988 1_554 S
O790 C792 1.245 . S
O791 C767 1.247 . S
O791 Mg773 2.061 . S
C792 O788 1.277 . S
C792 O790 1.245 . S
O793 C767 1.289 . S
O793 Mg770 2.238 1_556 S
O793 Mg771 2.103 1_556 S
O794 Mg771 2.074 1_556 S
O794 C776 1.245 . S
O795 Mg774 2.038 . S
O795 C776 1.274 . S
C796 O808 1.241 . S
C796 O809 1.280 . S
C797 O810 1.277 . S
C797 O811 1.245 . S
C798 O822 1.247 . S
C798 O824 1.289 . S
Mg799 O800 1.926 . S
Mg799 O809 1.984 . S
Mg799 O811 1.988 . S
Mg799 O812 2.061 1_655 S
O800 Mg799 1.926 . S
O800 Mg801 1.986 . S
O800 Mg802 1.907 1_655 S
Mg801 O800 1.986 . S
Mg801 O808 2.042 . S
Mg801 O810 2.041 . S
Mg801 O816 2.038 . S
Mg801 O824 2.238 . S
Mg802 O800 1.907 1_455 S
Mg802 O803 1.926 . S
Mg802 O813 2.115 . S
Mg802 O815 2.077 1_455 S
Mg802 O824 2.098 1_455 S
Mg802 O825 2.080 . S
O803 Mg802 1.926 . S
O803 Mg804 1.926 . S
O803 Mg805 1.986 . S
Mg804 O803 1.926 . S
Mg804 O818 1.984 . S
Mg804 O821 1.988 . S
Mg804 O822 2.061 1_455 S
Mg805 O803 1.986 . S
Mg805 O813 2.238 . S
Mg805 O817 2.042 . S
Mg805 O819 2.041 . S
Mg805 O826 2.038 . S
C806 O812 1.247 . S
C806 O813 1.289 . S
C807 O825 1.245 . S
C807 O826 1.274 . S
O808 C796 1.241 . S
O808 Mg801 2.042 . S
O809 C796 1.280 . S
O809 Mg799 1.984 . S
O810 C797 1.277 . S
O810 Mg801 2.041 . S
O811 C797 1.245 . S
O811 Mg799 1.988 . S
O812 Mg799 2.061 1_455 S
O812 C806 1.247 . S
O813 Mg802 2.115 . S
O813 Mg805 2.238 . S
O813 C806 1.289 . S
C814 O815 1.245 . S
C814 O816 1.274 . S
O815 Mg802 2.077 1_655 S
O815 C814 1.245 . S
O816 Mg801 2.038 . S
O816 C814 1.274 . S
O817 Mg805 2.042 . S
O817 C820 1.241 . S
O818 Mg804 1.984 . S
O818 C820 1.280 . S
O819 Mg805 2.041 . S
O819 C823 1.277 . S
C820 O817 1.241 . S
C820 O818 1.280 . S
O821 Mg804 1.988 . S
O821 C823 1.245 . S
O822 C798 1.247 . S
O822 Mg804 2.061 1_655 S
C823 O819 1.277 . S
C823 O821 1.245 . S
O824 C798 1.289 . S
O824 Mg801 2.238 . S
O824 Mg802 2.098 1_655 S
O825 Mg802 2.080 . S
O825 C807 1.245 . S
O826 Mg805 2.038 . S
O826 C807 1.274 . S
C827 O839 1.241 . S
C827 O840 1.280 . S
C828 O841 1.277 . S
C828 O842 1.245 . S
C829 O853 1.247 . S
C829 O855 1.289 . S
Mg830 O831 1.926 . S
Mg830 O840 1.984 . S
Mg830 O842 1.988 . S
Mg830 O843 2.061 . S
O831 Mg830 1.926 . S
O831 Mg832 1.986 1_545 S
O831 Mg833 1.918 . S
Mg832 O831 1.986 1_565 S
Mg832 O839 2.042 1_565 S
Mg832 O841 2.041 1_565 S
Mg832 O847 2.038 . S
Mg832 O855 2.238 . S
Mg833 O831 1.918 . S
Mg833 O834 1.916 1_545 S
Mg833 O844 2.107 . S
Mg833 O846 2.078 1_545 S
Mg833 O855 2.106 1_545 S
Mg833 O856 2.079 . S
O834 Mg833 1.916 1_565 S
O834 Mg835 1.926 . S
O834 Mg836 1.986 1_565 S
Mg835 O834 1.926 . S
Mg835 O849 1.984 . S
Mg835 O852 1.988 . S
Mg835 O853 2.061 . S
Mg836 O834 1.986 1_545 S
Mg836 O844 2.238 . S
Mg836 O848 2.042 1_545 S
Mg836 O850 2.041 1_545 S
Mg836 O857 2.038 . S
C837 O843 1.247 . S
C837 O844 1.289 . S
C838 O856 1.245 . S
C838 O857 1.274 . S
O839 C827 1.241 . S
O839 Mg832 2.042 1_545 S
O840 C827 1.280 . S
O840 Mg830 1.984 . S
O841 C828 1.277 . S
O841 Mg832 2.041 1_545 S
O842 C828 1.245 . S
O842 Mg830 1.988 . S
O843 Mg830 2.061 . S
O843 C837 1.247 . S
O844 Mg833 2.107 . S
O844 Mg836 2.238 . S
O844 C837 1.289 . S
C845 O846 1.245 . S
C845 O847 1.274 . S
O846 Mg833 2.078 1_565 S
O846 C845 1.245 . S
O847 Mg832 2.038 . S
O847 C845 1.274 . S
O848 Mg836 2.042 1_565 S
O848 C851 1.241 . S
O849 Mg835 1.984 . S
O849 C851 1.280 . S
O850 Mg836 2.041 1_565 S
O850 C854 1.277 . S
C851 O848 1.241 . S
C851 O849 1.280 . S
O852 Mg835 1.988 . S
O852 C854 1.245 . S
O853 C829 1.247 . S
O853 Mg835 2.061 . S
C854 O850 1.277 . S
C854 O852 1.245 . S
O855 C829 1.289 . S
O855 Mg832 2.238 . S
O855 Mg833 2.106 1_565 S
O856 Mg833 2.079 . S
O856 C838 1.245 . S
O857 Mg836 2.038 . S
O857 C838 1.274 . S
C858 C859 1.391 . S
C858 C860 1.394 . S
C858 H874 0.931 . S
C859 C858 1.391 . S
C859 C863 1.376 . S
C860 C858 1.394 . S
C860 C861 1.369 . S
C860 C864 1.531 . S
C861 C860 1.369 . S
C861 C862 1.410 . S
C861 C869 1.503 . S
C862 C861 1.410 . S
C862 C863 1.392 . S
C862 C865 1.511 . S
C863 C859 1.376 . S
C863 C862 1.392 . S
C863 H875 0.929 . S
C864 C860 1.531 . S
C864 H876 0.960 . S
C864 H877 0.962 . S
C864 H878 0.960 . S
C865 C862 1.511 . S
C865 H879 0.961 . S
C865 H880 0.961 . S
C865 H881 0.961 . S
C866 C867 1.370 . S
C866 C868 1.363 . S
C866 H882 0.931 . S
C867 C866 1.370 . S
C867 C871 1.408 . S
C868 C866 1.363 . S
C868 C869 1.370 . S
C868 C872 1.524 . S
C869 C861 1.503 . S
C869 C868 1.370 . S
C869 C870 1.403 . S
C870 C869 1.403 . S
C870 C871 1.404 . S
C870 C873 1.539 . S
C871 C867 1.408 . S
C871 C870 1.404 . S
C871 H883 0.930 . S
C872 C868 1.524 . S
C872 H884 0.956 . S
C872 H885 0.961 . S
C872 H886 0.961 . S
C873 C870 1.539 . S
C873 H887 0.958 . S
C873 H888 0.961 . S
C873 H889 0.960 . S
H874 C858 0.931 . S
H875 C863 0.929 . S
H876 C864 0.960 . S
H877 C864 0.962 . S
H878 C864 0.960 . S
H879 C865 0.961 . S
H880 C865 0.961 . S
H881 C865 0.961 . S
H882 C866 0.931 . S
H883 C871 0.930 . S
H884 C872 0.956 . S
H885 C872 0.961 . S
H886 C872 0.961 . S
H887 C873 0.958 . S
H888 C873 0.961 . S
H889 C873 0.960 . S
C890 C891 1.391 . S
C890 C892 1.394 . S
C890 H906 0.931 . S
C891 C890 1.391 . S
C891 C895 1.376 . S
C892 C890 1.394 . S
C892 C893 1.369 . S
C892 C896 1.531 . S
C893 C892 1.369 . S
C893 C894 1.410 . S
C893 C901 1.503 . S
C894 C893 1.410 . S
C894 C895 1.392 . S
C894 C897 1.511 . S
C895 C891 1.376 . S
C895 C894 1.392 . S
C895 H907 0.929 . S
C896 C892 1.531 . S
C896 H908 0.960 . S
C896 H909 0.962 . S
C896 H910 0.960 . S
C897 C894 1.511 . S
C897 H911 0.961 . S
C897 H912 0.961 . S
C897 H913 0.961 . S
C898 C899 1.370 . S
C898 C900 1.363 . S
C898 H914 0.931 . S
C899 C898 1.370 . S
C899 C903 1.408 . S
C900 C898 1.363 . S
C900 C901 1.370 . S
C900 C904 1.524 . S
C901 C893 1.503 . S
C901 C900 1.370 . S
C901 C902 1.403 . S
C902 C901 1.403 . S
C902 C903 1.404 . S
C902 C905 1.539 . S
C903 C899 1.408 . S
C903 C902 1.404 . S
C903 H915 0.930 . S
C904 C900 1.524 . S
C904 H916 0.956 . S
C904 H917 0.961 . S
C904 H918 0.961 . S
C905 C902 1.539 . S
C905 H919 0.958 . S
C905 H920 0.961 . S
C905 H921 0.960 . S
H906 C890 0.931 . S
H907 C895 0.929 . S
H908 C896 0.960 . S
H909 C896 0.962 . S
H910 C896 0.960 . S
H911 C897 0.961 . S
H912 C897 0.961 . S
H913 C897 0.961 . S
H914 C898 0.931 . S
H915 C903 0.930 . S
H916 C904 0.956 . S
H917 C904 0.961 . S
H918 C904 0.961 . S
H919 C905 0.958 . S
H920 C905 0.961 . S
H921 C905 0.960 . S
C922 C923 1.391 . S
C922 C924 1.394 . S
C922 H938 0.931 . S
C923 C922 1.391 . S
C923 C927 1.376 . S
C924 C922 1.394 . S
C924 C925 1.369 . S
C924 C928 1.531 . S
C925 C924 1.369 . S
C925 C926 1.410 . S
C925 C933 1.503 . S
C926 C925 1.410 . S
C926 C927 1.392 . S
C926 C929 1.511 . S
C927 C923 1.376 . S
C927 C926 1.392 . S
C927 H939 0.929 . S
C928 C924 1.531 . S
C928 H940 0.960 . S
C928 H941 0.962 . S
C928 H942 0.960 . S
C929 C926 1.511 . S
C929 H943 0.961 . S
C929 H944 0.961 . S
C929 H945 0.961 . S
C930 C931 1.370 . S
C930 C932 1.363 . S
C930 H946 0.931 . S
C931 C930 1.370 . S
C931 C935 1.408 . S
C932 C930 1.363 . S
C932 C933 1.370 . S
C932 C936 1.524 . S
C933 C925 1.503 . S
C933 C932 1.370 . S
C933 C934 1.403 . S
C934 C933 1.403 . S
C934 C935 1.404 . S
C934 C937 1.539 . S
C935 C931 1.408 . S
C935 C934 1.404 . S
C935 H947 0.930 . S
C936 C932 1.524 . S
C936 H948 0.956 . S
C936 H949 0.961 . S
C936 H950 0.961 . S
C937 C934 1.539 . S
C937 H951 0.958 . S
C937 H952 0.961 . S
C937 H953 0.960 . S
H938 C922 0.931 . S
H939 C927 0.929 . S
H940 C928 0.960 . S
H941 C928 0.962 . S
H942 C928 0.960 . S
H943 C929 0.961 . S
H944 C929 0.961 . S
H945 C929 0.961 . S
H946 C930 0.931 . S
H947 C935 0.930 . S
H948 C936 0.956 . S
H949 C936 0.961 . S
H950 C936 0.961 . S
H951 C937 0.958 . S
H952 C937 0.961 . S
H953 C937 0.960 . S
C954 C955 1.391 . S
C954 C956 1.394 . S
C954 H970 0.931 . S
C955 C954 1.391 . S
C955 C959 1.376 . S
C956 C954 1.394 . S
C956 C957 1.369 . S
C956 C960 1.531 . S
C957 C956 1.369 . S
C957 C958 1.410 . S
C957 C965 1.503 . S
C958 C957 1.410 . S
C958 C959 1.392 . S
C958 C961 1.511 . S
C959 C955 1.376 . S
C959 C958 1.392 . S
C959 H971 0.929 . S
C960 C956 1.531 . S
C960 H972 0.960 . S
C960 H973 0.962 . S
C960 H974 0.960 . S
C961 C958 1.511 . S
C961 H975 0.961 . S
C961 H976 0.961 . S
C961 H977 0.961 . S
C962 C963 1.370 . S
C962 C964 1.363 . S
C962 H978 0.931 . S
C963 C962 1.370 . S
C963 C967 1.408 . S
C964 C962 1.363 . S
C964 C965 1.370 . S
C964 C968 1.524 . S
C965 C957 1.503 . S
C965 C964 1.370 . S
C965 C966 1.403 . S
C966 C965 1.403 . S
C966 C967 1.404 . S
C966 C969 1.539 . S
C967 C963 1.408 . S
C967 C966 1.404 . S
C967 H979 0.930 . S
C968 C964 1.524 . S
C968 H980 0.956 . S
C968 H981 0.961 . S
C968 H982 0.961 . S
C969 C966 1.539 . S
C969 H983 0.958 . S
C969 H984 0.961 . S
C969 H985 0.960 . S
H970 C954 0.931 . S
H971 C959 0.929 . S
H972 C960 0.960 . S
H973 C960 0.962 . S
H974 C960 0.960 . S
H975 C961 0.961 . S
H976 C961 0.961 . S
H977 C961 0.961 . S
H978 C962 0.931 . S
H979 C967 0.930 . S
H980 C968 0.956 . S
H981 C968 0.961 . S
H982 C968 0.961 . S
H983 C969 0.958 . S
H984 C969 0.961 . S
H985 C969 0.960 . S
C986 C987 1.391 . S
C986 C988 1.394 . S
C986 H1002 0.931 . S
C987 C986 1.391 . S
C987 C991 1.376 . S
C988 C986 1.394 . S
C988 C989 1.369 . S
C988 C992 1.531 . S
C989 C988 1.369 . S
C989 C990 1.410 . S
C989 C997 1.503 . S
C990 C989 1.410 . S
C990 C991 1.392 . S
C990 C993 1.511 . S
C991 C987 1.376 . S
C991 C990 1.392 . S
C991 H1003 0.929 . S
C992 C988 1.531 . S
C992 H1004 0.960 . S
C992 H1005 0.962 . S
C992 H1006 0.960 . S
C993 C990 1.511 . S
C993 H1007 0.961 . S
C993 H1008 0.961 . S
C993 H1009 0.961 . S
C994 C995 1.370 . S
C994 C996 1.363 . S
C994 H1010 0.931 . S
C995 C994 1.370 . S
C995 C999 1.408 . S
C996 C994 1.363 . S
C996 C997 1.370 . S
C996 C1000 1.524 . S
C997 C989 1.503 . S
C997 C996 1.370 . S
C997 C998 1.403 . S
C998 C997 1.403 . S
C998 C999 1.404 . S
C998 C1001 1.539 . S
C999 C995 1.408 . S
C999 C998 1.404 . S
C999 H1011 0.930 . S
C1000 C996 1.524 . S
C1000 H1012 0.956 . S
C1000 H1013 0.961 . S
C1000 H1014 0.961 . S
C1001 C998 1.539 . S
C1001 H1015 0.958 . S
C1001 H1016 0.961 . S
C1001 H1017 0.960 . S
H1002 C986 0.931 . S
H1003 C991 0.929 . S
H1004 C992 0.960 . S
H1005 C992 0.962 . S
H1006 C992 0.960 . S
H1007 C993 0.961 . S
H1008 C993 0.961 . S
H1009 C993 0.961 . S
H1010 C994 0.931 . S
H1011 C999 0.930 . S
H1012 C1000 0.956 . S
H1013 C1000 0.961 . S
H1014 C1000 0.961 . S
H1015 C1001 0.958 . S
H1016 C1001 0.961 . S
H1017 C1001 0.960 . S
C1018 C1019 1.391 . S
C1018 C1020 1.394 . S
C1018 H1034 0.931 . S
C1019 C1018 1.391 . S
C1019 C1023 1.376 . S
C1020 C1018 1.394 . S
C1020 C1021 1.369 . S
C1020 C1024 1.531 . S
C1021 C1020 1.369 . S
C1021 C1022 1.410 . S
C1021 C1029 1.503 . S
C1022 C1021 1.410 . S
C1022 C1023 1.392 . S
C1022 C1025 1.511 . S
C1023 C1019 1.376 . S
C1023 C1022 1.392 . S
C1023 H1035 0.929 . S
C1024 C1020 1.531 . S
C1024 H1036 0.960 . S
C1024 H1037 0.962 . S
C1024 H1038 0.960 . S
C1025 C1022 1.511 . S
C1025 H1039 0.961 . S
C1025 H1040 0.961 . S
C1025 H1041 0.961 . S
C1026 C1027 1.370 . S
C1026 C1028 1.363 . S
C1026 H1042 0.931 . S
C1027 C1026 1.370 . S
C1027 C1031 1.408 . S
C1028 C1026 1.363 . S
C1028 C1029 1.370 . S
C1028 C1032 1.524 . S
C1029 C1021 1.503 . S
C1029 C1028 1.370 . S
C1029 C1030 1.403 . S
C1030 C1029 1.403 . S
C1030 C1031 1.404 . S
C1030 C1033 1.539 . S
C1031 C1027 1.408 . S
C1031 C1030 1.404 . S
C1031 H1043 0.930 . S
C1032 C1028 1.524 . S
C1032 H1044 0.956 . S
C1032 H1045 0.961 . S
C1032 H1046 0.961 . S
C1033 C1030 1.539 . S
C1033 H1047 0.958 . S
C1033 H1048 0.961 . S
C1033 H1049 0.960 . S
H1034 C1018 0.931 . S
H1035 C1023 0.929 . S
H1036 C1024 0.960 . S
H1037 C1024 0.962 . S
H1038 C1024 0.960 . S
H1039 C1025 0.961 . S
H1040 C1025 0.961 . S
H1041 C1025 0.961 . S
H1042 C1026 0.931 . S
H1043 C1031 0.930 . S
H1044 C1032 0.956 . S
H1045 C1032 0.961 . S
H1046 C1032 0.961 . S
H1047 C1033 0.958 . S
H1048 C1033 0.961 . S
H1049 C1033 0.960 . S
C1050 C1051 1.391 . S
C1050 C1052 1.394 . S
C1050 H1066 0.931 . S
C1051 C1050 1.391 . S
C1051 C1055 1.376 . S
C1052 C1050 1.394 . S
C1052 C1053 1.369 . S
C1052 C1056 1.531 . S
C1053 C1052 1.369 . S
C1053 C1054 1.410 . S
C1053 C1061 1.503 . S
C1054 C1053 1.410 . S
C1054 C1055 1.392 . S
C1054 C1057 1.511 . S
C1055 C1051 1.376 . S
C1055 C1054 1.392 . S
C1055 H1067 0.929 . S
C1056 C1052 1.531 . S
C1056 H1068 0.960 . S
C1056 H1069 0.962 . S
C1056 H1070 0.960 . S
C1057 C1054 1.511 . S
C1057 H1071 0.961 . S
C1057 H1072 0.961 . S
C1057 H1073 0.961 . S
C1058 C1059 1.370 . S
C1058 C1060 1.363 . S
C1058 H1074 0.931 . S
C1059 C1058 1.370 . S
C1059 C1063 1.408 . S
C1060 C1058 1.363 . S
C1060 C1061 1.370 . S
C1060 C1064 1.524 . S
C1061 C1053 1.503 . S
C1061 C1060 1.370 . S
C1061 C1062 1.403 . S
C1062 C1061 1.403 . S
C1062 C1063 1.404 . S
C1062 C1065 1.539 . S
C1063 C1059 1.408 . S
C1063 C1062 1.404 . S
C1063 H1075 0.957 . S
C1064 C1060 1.524 . S
C1064 H1076 0.956 . S
C1064 H1077 0.961 . S
C1064 H1078 0.961 . S
C1065 C1062 1.539 . S
C1065 H1079 0.958 . S
C1065 H1080 0.961 . S
C1065 H1081 0.960 . S
H1066 C1050 0.931 . S
H1067 C1055 0.929 . S
H1068 C1056 0.960 . S
H1069 C1056 0.962 . S
H1070 C1056 0.960 . S
H1071 C1057 0.961 . S
H1072 C1057 0.961 . S
H1073 C1057 0.961 . S
H1074 C1058 0.931 . S
H1075 C1063 0.957 . S
H1076 C1064 0.956 . S
H1077 C1064 0.961 . S
H1078 C1064 0.961 . S
H1079 C1065 0.958 . S
H1080 C1065 0.961 . S
H1081 C1065 0.960 . S
C1082 C1083 1.391 . S
C1082 C1084 1.394 . S
C1082 H1098 0.931 . S
C1083 C1082 1.391 . S
C1083 C1087 1.376 . S
C1084 C1082 1.394 . S
C1084 C1085 1.369 . S
C1084 C1088 1.531 . S
C1085 C1084 1.369 . S
C1085 C1086 1.410 . S
C1085 C1093 1.503 . S
C1086 C1085 1.410 . S
C1086 C1087 1.392 . S
C1086 C1089 1.511 . S
C1087 C1083 1.376 . S
C1087 C1086 1.392 . S
C1087 H1099 0.929 . S
C1088 C1084 1.531 . S
C1088 H1100 0.960 . S
C1088 H1101 0.962 . S
C1088 H1102 0.960 . S
C1089 C1086 1.511 . S
C1089 H1103 0.961 . S
C1089 H1104 0.961 . S
C1089 H1105 0.961 . S
C1090 C1091 1.370 . S
C1090 C1092 1.363 . S
C1090 H1106 0.931 . S
C1091 C1090 1.370 . S
C1091 C1095 1.408 . S
C1092 C1090 1.363 . S
C1092 C1093 1.370 . S
C1092 C1096 1.524 . S
C1093 C1085 1.503 . S
C1093 C1092 1.370 . S
C1093 C1094 1.403 . S
C1094 C1093 1.403 . S
C1094 C1095 1.404 . S
C1094 C1097 1.539 . S
C1095 C1091 1.408 . S
C1095 C1094 1.404 . S
C1095 H1107 0.930 . S
C1096 C1092 1.524 . S
C1096 H1108 0.956 . S
C1096 H1109 0.961 . S
C1096 H1110 0.961 . S
C1097 C1094 1.539 . S
C1097 H1111 0.958 . S
C1097 H1112 0.961 . S
C1097 H1113 0.960 . S
H1098 C1082 0.931 . S
H1099 C1087 0.929 . S
H1100 C1088 0.960 . S
H1101 C1088 0.962 . S
H1102 C1088 0.960 . S
H1103 C1089 0.961 . S
H1104 C1089 0.961 . S
H1105 C1089 0.961 . S
H1106 C1090 0.931 . S
H1107 C1095 0.930 . S
H1108 C1096 0.956 . S
H1109 C1096 0.961 . S
H1110 C1096 0.961 . S
H1111 C1097 0.958 . S
H1112 C1097 0.961 . S
H1113 C1097 0.960 . S
C1114 C1115 1.391 . S
C1114 C1116 1.394 . S
C1114 H1130 0.931 . S
C1115 C1114 1.391 . S
C1115 C1119 1.376 . S
C1116 C1114 1.394 . S
C1116 C1117 1.369 . S
C1116 C1120 1.531 . S
C1117 C1116 1.369 . S
C1117 C1118 1.410 . S
C1117 C1125 1.503 . S
C1118 C1117 1.410 . S
C1118 C1119 1.392 . S
C1118 C1121 1.511 . S
C1119 C1115 1.376 . S
C1119 C1118 1.392 . S
C1119 H1131 0.929 . S
C1120 C1116 1.531 . S
C1120 H1132 0.960 . S
C1120 H1133 0.962 . S
C1120 H1134 0.960 . S
C1121 C1118 1.511 . S
C1121 H1135 0.961 . S
C1121 H1136 0.961 . S
C1121 H1137 0.961 . S
C1122 C1123 1.370 . S
C1122 C1124 1.363 . S
C1122 H1138 0.931 . S
C1123 C1122 1.370 . S
C1123 C1127 1.408 . S
C1124 C1122 1.363 . S
C1124 C1125 1.370 . S
C1124 C1128 1.524 . S
C1125 C1117 1.503 . S
C1125 C1124 1.370 . S
C1125 C1126 1.403 . S
C1126 C1125 1.403 . S
C1126 C1127 1.404 . S
C1126 C1129 1.539 . S
C1127 C1123 1.408 . S
C1127 C1126 1.404 . S
C1127 H1139 0.930 . S
C1128 C1124 1.524 . S
C1128 H1140 0.956 . S
C1128 H1141 0.961 . S
C1128 H1142 0.961 . S
C1129 C1126 1.539 . S
C1129 H1143 0.958 . S
C1129 H1144 0.961 . S
C1129 H1145 0.960 . S
H1130 C1114 0.931 . S
H1131 C1119 0.929 . S
H1132 C1120 0.960 . S
H1133 C1120 0.962 . S
H1134 C1120 0.960 . S
H1135 C1121 0.961 . S
H1136 C1121 0.961 . S
H1137 C1121 0.961 . S
H1138 C1122 0.931 . S
H1139 C1127 0.930 . S
H1140 C1128 0.956 . S
H1141 C1128 0.961 . S
H1142 C1128 0.961 . S
H1143 C1129 0.958 . S
H1144 C1129 0.961 . S
H1145 C1129 0.960 . S
C1146 C1147 1.391 . S
C1146 C1148 1.394 . S
C1146 H1162 0.931 . S
C1147 C1146 1.391 . S
C1147 C1151 1.376 . S
C1148 C1146 1.394 . S
C1148 C1149 1.369 . S
C1148 C1152 1.531 . S
C1149 C1148 1.369 . S
C1149 C1150 1.410 . S
C1149 C1157 1.503 . S
C1150 C1149 1.410 . S
C1150 C1151 1.392 . S
C1150 C1153 1.511 . S
C1151 C1147 1.376 . S
C1151 C1150 1.392 . S
C1151 H1163 0.929 . S
C1152 C1148 1.531 . S
C1152 H1164 0.960 . S
C1152 H1165 0.962 . S
C1152 H1166 0.960 . S
C1153 C1150 1.511 . S
C1153 H1167 0.961 . S
C1153 H1168 0.961 . S
C1153 H1169 0.961 . S
C1154 C1155 1.370 . S
C1154 C1156 1.363 . S
C1154 H1170 0.931 . S
C1155 C1154 1.370 . S
C1155 C1159 1.408 . S
C1156 C1154 1.363 . S
C1156 C1157 1.370 . S
C1156 C1160 1.524 . S
C1157 C1149 1.503 . S
C1157 C1156 1.370 . S
C1157 C1158 1.403 . S
C1158 C1157 1.403 . S
C1158 C1159 1.404 . S
C1158 C1161 1.539 . S
C1159 C1155 1.408 . S
C1159 C1158 1.404 . S
C1159 H1171 0.930 . S
C1160 C1156 1.524 . S
C1160 H1172 0.956 . S
C1160 H1173 0.961 . S
C1160 H1174 0.961 . S
C1161 C1158 1.539 . S
C1161 H1175 0.958 . S
C1161 H1176 0.961 . S
C1161 H1177 0.960 . S
H1162 C1146 0.931 . S
H1163 C1151 0.929 . S
H1164 C1152 0.960 . S
H1165 C1152 0.962 . S
H1166 C1152 0.960 . S
H1167 C1153 0.961 . S
H1168 C1153 0.961 . S
H1169 C1153 0.961 . S
H1170 C1154 0.931 . S
H1171 C1159 0.930 . S
H1172 C1160 0.956 . S
H1173 C1160 0.961 . S
H1174 C1160 0.961 . S
H1175 C1161 0.958 . S
H1176 C1161 0.961 . S
H1177 C1161 0.960 . S
C1178 C1179 1.391 . S
C1178 C1180 1.394 . S
C1178 H1194 0.931 . S
C1179 C1178 1.391 . S
C1179 C1183 1.376 . S
C1180 C1178 1.394 . S
C1180 C1181 1.369 . S
C1180 C1184 1.531 . S
C1181 C1180 1.369 . S
C1181 C1182 1.410 . S
C1181 C1189 1.503 . S
C1182 C1181 1.410 . S
C1182 C1183 1.392 . S
C1182 C1185 1.511 . S
C1183 C1179 1.376 . S
C1183 C1182 1.392 . S
C1183 H1195 0.929 . S
C1184 C1180 1.531 . S
C1184 H1196 0.960 . S
C1184 H1197 0.962 . S
C1184 H1198 0.960 . S
C1185 C1182 1.511 . S
C1185 H1199 0.961 . S
C1185 H1200 0.961 . S
C1185 H1201 0.961 . S
C1186 C1187 1.370 . S
C1186 C1188 1.363 . S
C1186 H1202 0.931 . S
C1187 C1186 1.370 . S
C1187 C1191 1.408 . S
C1188 C1186 1.363 . S
C1188 C1189 1.370 . S
C1188 C1192 1.524 . S
C1189 C1181 1.503 . S
C1189 C1188 1.370 . S
C1189 C1190 1.403 . S
C1190 C1189 1.403 . S
C1190 C1191 1.404 . S
C1190 C1193 1.539 . S
C1191 C1187 1.408 . S
C1191 C1190 1.404 . S
C1191 H1203 0.930 . S
C1192 C1188 1.524 . S
C1192 H1204 0.956 . S
C1192 H1205 0.961 . S
C1192 H1206 0.961 . S
C1193 C1190 1.539 . S
C1193 H1207 0.958 . S
C1193 H1208 0.961 . S
C1193 H1209 0.960 . S
H1194 C1178 0.931 . S
H1195 C1183 0.929 . S
H1196 C1184 0.960 . S
H1197 C1184 0.962 . S
H1198 C1184 0.960 . S
H1199 C1185 0.961 . S
H1200 C1185 0.961 . S
H1201 C1185 0.961 . S
H1202 C1186 0.931 . S
H1203 C1191 0.930 . S
H1204 C1192 0.956 . S
H1205 C1192 0.961 . S
H1206 C1192 0.961 . S
H1207 C1193 0.958 . S
H1208 C1193 0.961 . S
H1209 C1193 0.960 . S
C1210 C1211 1.391 . S
C1210 C1212 1.394 . S
C1210 H1226 0.931 . S
C1211 C1210 1.391 . S
C1211 C1215 1.376 . S
C1212 C1210 1.394 . S
C1212 C1213 1.369 . S
C1212 C1216 1.531 . S
C1213 C1212 1.369 . S
C1213 C1214 1.410 . S
C1213 C1221 1.503 . S
C1214 C1213 1.410 . S
C1214 C1215 1.392 . S
C1214 C1217 1.511 . S
C1215 C1211 1.376 . S
C1215 C1214 1.392 . S
C1215 H1227 0.929 . S
C1216 C1212 1.531 . S
C1216 H1228 0.960 . S
C1216 H1229 0.962 . S
C1216 H1230 0.960 . S
C1217 C1214 1.511 . S
C1217 H1231 0.961 . S
C1217 H1232 0.961 . S
C1217 H1233 0.961 . S
C1218 C1219 1.370 . S
C1218 C1220 1.363 . S
C1218 H1234 0.931 . S
C1219 C1218 1.370 . S
C1219 C1223 1.408 . S
C1220 C1218 1.363 . S
C1220 C1221 1.370 . S
C1220 C1224 1.524 . S
C1221 C1213 1.503 . S
C1221 C1220 1.370 . S
C1221 C1222 1.403 . S
C1222 C1221 1.403 . S
C1222 C1223 1.404 . S
C1222 C1225 1.539 . S
C1223 C1219 1.408 . S
C1223 C1222 1.404 . S
C1223 H1235 0.930 . S
C1224 C1220 1.524 . S
C1224 H1236 0.956 . S
C1224 H1237 0.961 . S
C1224 H1238 0.961 . S
C1225 C1222 1.539 . S
C1225 H1239 0.958 . S
C1225 H1240 0.961 . S
C1225 H1241 0.960 . S
H1226 C1210 0.931 . S
H1227 C1215 0.929 . S
H1228 C1216 0.960 . S
H1229 C1216 0.962 . S
H1230 C1216 0.960 . S
H1231 C1217 0.961 . S
H1232 C1217 0.961 . S
H1233 C1217 0.961 . S
H1234 C1218 0.931 . S
H1235 C1223 0.930 . S
H1236 C1224 0.956 . S
H1237 C1224 0.961 . S
H1238 C1224 0.961 . S
H1239 C1225 0.958 . S
H1240 C1225 0.961 . S
H1241 C1225 0.960 . S
C1242 C1243 1.391 . S
C1242 C1244 1.394 . S
C1242 H1258 0.931 . S
C1243 C1242 1.391 . S
C1243 C1247 1.376 . S
C1244 C1242 1.394 . S
C1244 C1245 1.369 . S
C1244 C1248 1.531 . S
C1245 C1244 1.369 . S
C1245 C1246 1.410 . S
C1245 C1253 1.503 . S
C1246 C1245 1.410 . S
C1246 C1247 1.392 . S
C1246 C1249 1.511 . S
C1247 C1243 1.376 . S
C1247 C1246 1.392 . S
C1247 H1259 0.929 . S
C1248 C1244 1.531 . S
C1248 H1260 0.960 . S
C1248 H1261 0.962 . S
C1248 H1262 0.960 . S
C1249 C1246 1.511 . S
C1249 H1263 0.961 . S
C1249 H1264 0.961 . S
C1249 H1265 0.961 . S
C1250 C1251 1.370 . S
C1250 C1252 1.363 . S
C1250 H1266 0.931 . S
C1251 C1250 1.370 . S
C1251 C1255 1.408 . S
C1252 C1250 1.363 . S
C1252 C1253 1.370 . S
C1252 C1256 1.524 . S
C1253 C1245 1.503 . S
C1253 C1252 1.370 . S
C1253 C1254 1.403 . S
C1254 C1253 1.403 . S
C1254 C1255 1.404 . S
C1254 C1257 1.539 . S
C1255 C1251 1.408 . S
C1255 C1254 1.404 . S
C1255 H1267 0.930 . S
C1256 C1252 1.524 . S
C1256 H1268 0.956 . S
C1256 H1269 0.961 . S
C1256 H1270 0.961 . S
C1257 C1254 1.539 . S
C1257 H1271 0.958 . S
C1257 H1272 0.961 . S
C1257 H1273 0.960 . S
H1258 C1242 0.931 . S
H1259 C1247 0.929 . S
H1260 C1248 0.960 . S
H1261 C1248 0.962 . S
H1262 C1248 0.960 . S
H1263 C1249 0.961 . S
H1264 C1249 0.961 . S
H1265 C1249 0.961 . S
H1266 C1250 0.931 . S
H1267 C1255 0.930 . S
H1268 C1256 0.956 . S
H1269 C1256 0.961 . S
H1270 C1256 0.961 . S
H1271 C1257 0.958 . S
H1272 C1257 0.961 . S
H1273 C1257 0.960 . S
C1274 C1275 1.391 . S
C1274 C1276 1.394 . S
C1274 H1290 0.931 . S
C1275 C1274 1.391 . S
C1275 C1279 1.376 . S
C1276 C1274 1.394 . S
C1276 C1277 1.369 . S
C1276 C1280 1.531 . S
C1277 C1276 1.369 . S
C1277 C1278 1.410 . S
C1277 C1285 1.503 . S
C1278 C1277 1.410 . S
C1278 C1279 1.392 . S
C1278 C1281 1.511 . S
C1279 C1275 1.376 . S
C1279 C1278 1.392 . S
C1279 H1291 0.929 . S
C1280 C1276 1.531 . S
C1280 H1292 0.960 . S
C1280 H1293 0.962 . S
C1280 H1294 0.960 . S
C1281 C1278 1.511 . S
C1281 H1295 0.961 . S
C1281 H1296 0.961 . S
C1281 H1297 0.961 . S
C1282 C1283 1.370 . S
C1282 C1284 1.363 . S
C1282 H1298 0.931 . S
C1283 C1282 1.370 . S
C1283 C1287 1.408 . S
C1284 C1282 1.363 . S
C1284 C1285 1.370 . S
C1284 C1288 1.524 . S
C1285 C1277 1.503 . S
C1285 C1284 1.370 . S
C1285 C1286 1.403 . S
C1286 C1285 1.403 . S
C1286 C1287 1.404 . S
C1286 C1289 1.539 . S
C1287 C1283 1.408 . S
C1287 C1286 1.404 . S
C1287 H1299 0.930 . S
C1288 C1284 1.524 . S
C1288 H1300 0.956 . S
C1288 H1301 0.961 . S
C1288 H1302 0.961 . S
C1289 C1286 1.539 . S
C1289 H1303 0.958 . S
C1289 H1304 0.961 . S
C1289 H1305 0.960 . S
H1290 C1274 0.931 . S
H1291 C1279 0.929 . S
H1292 C1280 0.960 . S
H1293 C1280 0.962 . S
H1294 C1280 0.960 . S
H1295 C1281 0.961 . S
H1296 C1281 0.961 . S
H1297 C1281 0.961 . S
H1298 C1282 0.931 . S
H1299 C1287 0.930 . S
H1300 C1288 0.956 . S
H1301 C1288 0.961 . S
H1302 C1288 0.961 . S
H1303 C1289 0.958 . S
H1304 C1289 0.961 . S
H1305 C1289 0.960 . S
C1306 C1307 1.391 . S
C1306 C1308 1.394 . S
C1306 H1322 0.931 . S
C1307 C1306 1.391 . S
C1307 C1311 1.376 . S
C1308 C1306 1.394 . S
C1308 C1309 1.369 . S
C1308 C1312 1.531 . S
C1309 C1308 1.369 . S
C1309 C1310 1.410 . S
C1309 C1317 1.503 . S
C1310 C1309 1.410 . S
C1310 C1311 1.392 . S
C1310 C1313 1.511 . S
C1311 C1307 1.376 . S
C1311 C1310 1.392 . S
C1311 H1323 0.929 . S
C1312 C1308 1.531 . S
C1312 H1324 0.960 . S
C1312 H1325 0.962 . S
C1312 H1326 0.960 . S
C1313 C1310 1.511 . S
C1313 H1327 0.961 . S
C1313 H1328 0.961 . S
C1313 H1329 0.961 . S
C1314 C1315 1.370 . S
C1314 C1316 1.363 . S
C1314 H1330 0.931 . S
C1315 C1314 1.370 . S
C1315 C1319 1.408 . S
C1316 C1314 1.363 . S
C1316 C1317 1.370 . S
C1316 C1320 1.524 . S
C1317 C1309 1.503 . S
C1317 C1316 1.370 . S
C1317 C1318 1.403 . S
C1318 C1317 1.403 . S
C1318 C1319 1.404 . S
C1318 C1321 1.539 . S
C1319 C1315 1.408 . S
C1319 C1318 1.404 . S
C1319 H1331 0.930 . S
C1320 C1316 1.524 . S
C1320 H1332 0.956 . S
C1320 H1333 0.961 . S
C1320 H1334 0.961 . S
C1321 C1318 1.539 . S
C1321 H1335 0.958 . S
C1321 H1336 0.961 . S
C1321 H1337 0.960 . S
H1322 C1306 0.931 . S
H1323 C1311 0.929 . S
H1324 C1312 0.960 . S
H1325 C1312 0.962 . S
H1326 C1312 0.960 . S
H1327 C1313 0.961 . S
H1328 C1313 0.961 . S
H1329 C1313 0.961 . S
H1330 C1314 0.931 . S
H1331 C1319 0.930 . S
H1332 C1320 0.956 . S
H1333 C1320 0.961 . S
H1334 C1320 0.961 . S
H1335 C1321 0.958 . S
H1336 C1321 0.961 . S
H1337 C1321 0.960 . S
C1338 C1339 1.391 . S
C1338 C1340 1.394 . S
C1338 H1354 0.931 . S
C1339 C1338 1.391 . S
C1339 C1343 1.376 . S
C1340 C1338 1.394 . S
C1340 C1341 1.369 . S
C1340 C1344 1.531 . S
C1341 C1340 1.369 . S
C1341 C1342 1.410 . S
C1341 C1349 1.503 . S
C1342 C1341 1.410 . S
C1342 C1343 1.392 . S
C1342 C1345 1.511 . S
C1343 C1339 1.376 . S
C1343 C1342 1.392 . S
C1343 H1355 0.929 . S
C1344 C1340 1.531 . S
C1344 H1356 0.960 . S
C1344 H1357 0.962 . S
C1344 H1358 0.960 . S
C1345 C1342 1.511 . S
C1345 H1359 0.961 . S
C1345 H1360 0.961 . S
C1345 H1361 0.961 . S
C1346 C1347 1.370 . S
C1346 C1348 1.363 . S
C1346 H1362 0.931 . S
C1347 C1346 1.370 . S
C1347 C1351 1.408 . S
C1348 C1346 1.363 . S
C1348 C1349 1.370 . S
C1348 C1352 1.524 . S
C1349 C1341 1.503 . S
C1349 C1348 1.370 . S
C1349 C1350 1.403 . S
C1350 C1349 1.403 . S
C1350 C1351 1.404 . S
C1350 C1353 1.539 . S
C1351 C1347 1.408 . S
C1351 C1350 1.404 . S
C1351 H1363 0.930 . S
C1352 C1348 1.524 . S
C1352 H1364 0.956 . S
C1352 H1365 0.961 . S
C1352 H1366 0.961 . S
C1353 C1350 1.539 . S
C1353 H1367 0.958 . S
C1353 H1368 0.961 . S
C1353 H1369 0.960 . S
H1354 C1338 0.931 . S
H1355 C1343 0.929 . S
H1356 C1344 0.960 . S
H1357 C1344 0.962 . S
H1358 C1344 0.960 . S
H1359 C1345 0.961 . S
H1360 C1345 0.961 . S
H1361 C1345 0.961 . S
H1362 C1346 0.931 . S
H1363 C1351 0.930 . S
H1364 C1352 0.956 . S
H1365 C1352 0.961 . S
H1366 C1352 0.961 . S
H1367 C1353 0.958 . S
H1368 C1353 0.961 . S
H1369 C1353 0.960 . S
C1370 C1371 1.391 . S
C1370 C1372 1.394 . S
C1370 H1386 0.931 . S
C1371 C1370 1.391 . S
C1371 C1375 1.376 . S
C1372 C1370 1.394 . S
C1372 C1373 1.369 . S
C1372 C1376 1.531 . S
C1373 C1372 1.369 . S
C1373 C1374 1.410 . S
C1373 C1381 1.503 . S
C1374 C1373 1.410 . S
C1374 C1375 1.392 . S
C1374 C1377 1.511 . S
C1375 C1371 1.376 . S
C1375 C1374 1.392 . S
C1375 H1387 0.929 . S
C1376 C1372 1.531 . S
C1376 H1388 0.960 . S
C1376 H1389 0.962 . S
C1376 H1390 0.960 . S
C1377 C1374 1.511 . S
C1377 H1391 0.961 . S
C1377 H1392 0.961 . S
C1377 H1393 0.961 . S
C1378 C1379 1.370 . S
C1378 C1380 1.363 . S
C1378 H1394 0.931 . S
C1379 C1378 1.370 . S
C1379 C1383 1.408 . S
C1380 C1378 1.363 . S
C1380 C1381 1.370 . S
C1380 C1384 1.524 . S
C1381 C1373 1.503 . S
C1381 C1380 1.370 . S
C1381 C1382 1.403 . S
C1382 C1381 1.403 . S
C1382 C1383 1.404 . S
C1382 C1385 1.539 . S
C1383 C1379 1.408 . S
C1383 C1382 1.404 . S
C1383 H1395 0.930 . S
C1384 C1380 1.524 . S
C1384 H1396 0.956 . S
C1384 H1397 0.961 . S
C1384 H1398 0.961 . S
C1385 C1382 1.539 . S
C1385 H1399 0.958 . S
C1385 H1400 0.961 . S
C1385 H1401 0.960 . S
H1386 C1370 0.931 . S
H1387 C1375 0.929 . S
H1388 C1376 0.960 . S
H1389 C1376 0.962 . S
H1390 C1376 0.960 . S
H1391 C1377 0.961 . S
H1392 C1377 0.961 . S
H1393 C1377 0.961 . S
H1394 C1378 0.931 . S
H1395 C1383 0.930 . S
H1396 C1384 0.956 . S
H1397 C1384 0.961 . S
H1398 C1384 0.961 . S
H1399 C1385 0.958 . S
H1400 C1385 0.961 . S
H1401 C1385 0.960 . S
C1402 C1403 1.391 . S
C1402 C1404 1.394 . S
C1402 H1418 0.931 . S
C1403 C1402 1.391 . S
C1403 C1407 1.376 . S
C1404 C1402 1.394 . S
C1404 C1405 1.369 . S
C1404 C1408 1.531 . S
C1405 C1404 1.369 . S
C1405 C1406 1.410 . S
C1405 C1413 1.503 . S
C1406 C1405 1.410 . S
C1406 C1407 1.392 . S
C1406 C1409 1.511 . S
C1407 C1403 1.376 . S
C1407 C1406 1.392 . S
C1407 H1419 0.929 . S
C1408 C1404 1.531 . S
C1408 H1420 0.960 . S
C1408 H1421 0.962 . S
C1408 H1422 0.960 . S
C1409 C1406 1.511 . S
C1409 H1423 0.961 . S
C1409 H1424 0.961 . S
C1409 H1425 0.961 . S
C1410 C1411 1.370 . S
C1410 C1412 1.363 . S
C1410 H1426 0.931 . S
C1411 C1410 1.370 . S
C1411 C1415 1.408 . S
C1412 C1410 1.363 . S
C1412 C1413 1.370 . S
C1412 C1416 1.524 . S
C1413 C1405 1.503 . S
C1413 C1412 1.370 . S
C1413 C1414 1.403 . S
C1414 C1413 1.403 . S
C1414 C1415 1.404 . S
C1414 C1417 1.539 . S
C1415 C1411 1.408 . S
C1415 C1414 1.404 . S
C1415 H1427 0.930 . S
C1416 C1412 1.524 . S
C1416 H1428 0.956 . S
C1416 H1429 0.961 . S
C1416 H1430 0.961 . S
C1417 C1414 1.539 . S
C1417 H1431 0.958 . S
C1417 H1432 0.961 . S
C1417 H1433 0.960 . S
H1418 C1402 0.931 . S
H1419 C1407 0.929 . S
H1420 C1408 0.960 . S
H1421 C1408 0.962 . S
H1422 C1408 0.960 . S
H1423 C1409 0.961 . S
H1424 C1409 0.961 . S
H1425 C1409 0.961 . S
H1426 C1410 0.931 . S
H1427 C1415 0.930 . S
H1428 C1416 0.956 . S
H1429 C1416 0.961 . S
H1430 C1416 0.961 . S
H1431 C1417 0.958 . S
H1432 C1417 0.961 . S
H1433 C1417 0.960 . S
C1434 C1435 1.391 . S
C1434 C1436 1.394 . S
C1434 H1450 0.931 . S
C1435 C1434 1.391 . S
C1435 C1439 1.376 . S
C1436 C1434 1.394 . S
C1436 C1437 1.369 . S
C1436 C1440 1.531 . S
C1437 C1436 1.369 . S
C1437 C1438 1.410 . S
C1437 C1445 1.503 . S
C1438 C1437 1.410 . S
C1438 C1439 1.392 . S
C1438 C1441 1.511 . S
C1439 C1435 1.376 . S
C1439 C1438 1.392 . S
C1439 H1451 0.929 . S
C1440 C1436 1.531 . S
C1440 H1452 0.960 . S
C1440 H1453 0.962 . S
C1440 H1454 0.960 . S
C1441 C1438 1.511 . S
C1441 H1455 0.961 . S
C1441 H1456 0.961 . S
C1441 H1457 0.961 . S
C1442 C1443 1.370 . S
C1442 C1444 1.363 . S
C1442 H1458 0.931 . S
C1443 C1442 1.370 . S
C1443 C1447 1.408 . S
C1444 C1442 1.363 . S
C1444 C1445 1.370 . S
C1444 C1448 1.524 . S
C1445 C1437 1.503 . S
C1445 C1444 1.370 . S
C1445 C1446 1.403 . S
C1446 C1445 1.403 . S
C1446 C1447 1.404 . S
C1446 C1449 1.539 . S
C1447 C1443 1.408 . S
C1447 C1446 1.404 . S
C1447 H1459 0.930 . S
C1448 C1444 1.524 . S
C1448 H1460 0.956 . S
C1448 H1461 0.961 . S
C1448 H1462 0.961 . S
C1449 C1446 1.539 . S
C1449 H1463 0.958 . S
C1449 H1464 0.961 . S
C1449 H1465 0.960 . S
H1450 C1434 0.931 . S
H1451 C1439 0.929 . S
H1452 C1440 0.960 . S
H1453 C1440 0.962 . S
H1454 C1440 0.960 . S
H1455 C1441 0.961 . S
H1456 C1441 0.961 . S
H1457 C1441 0.961 . S
H1458 C1442 0.931 . S
H1459 C1447 0.930 . S
H1460 C1448 0.956 . S
H1461 C1448 0.961 . S
H1462 C1448 0.961 . S
H1463 C1449 0.958 . S
H1464 C1449 0.961 . S
H1465 C1449 0.960 . S
C1466 C1467 1.391 . S
C1466 C1468 1.394 . S
C1466 H1482 0.931 . S
C1467 C1466 1.391 . S
C1467 C1471 1.376 . S
C1468 C1466 1.394 . S
C1468 C1469 1.369 . S
C1468 C1472 1.531 . S
C1469 C1468 1.369 . S
C1469 C1470 1.410 . S
C1469 C1477 1.503 . S
C1470 C1469 1.410 . S
C1470 C1471 1.392 . S
C1470 C1473 1.511 . S
C1471 C1467 1.376 . S
C1471 C1470 1.392 . S
C1471 H1483 0.929 . S
C1472 C1468 1.531 . S
C1472 H1484 0.960 . S
C1472 H1485 0.962 . S
C1472 H1486 0.960 . S
C1473 C1470 1.511 . S
C1473 H1487 0.961 . S
C1473 H1488 0.961 . S
C1473 H1489 0.961 . S
C1474 C1475 1.370 . S
C1474 C1476 1.363 . S
C1474 H1490 0.931 . S
C1475 C1474 1.370 . S
C1475 C1479 1.408 . S
C1476 C1474 1.363 . S
C1476 C1477 1.370 . S
C1476 C1480 1.524 . S
C1477 C1469 1.503 . S
C1477 C1476 1.370 . S
C1477 C1478 1.403 . S
C1478 C1477 1.403 . S
C1478 C1479 1.404 . S
C1478 C1481 1.539 . S
C1479 C1475 1.408 . S
C1479 C1478 1.404 . S
C1479 H1491 0.930 . S
C1480 C1476 1.524 . S
C1480 H1492 0.956 . S
C1480 H1493 0.961 . S
C1480 H1494 0.961 . S
C1481 C1478 1.539 . S
C1481 H1495 0.958 . S
C1481 H1496 0.961 . S
C1481 H1497 0.960 . S
H1482 C1466 0.931 . S
H1483 C1471 0.929 . S
H1484 C1472 0.960 . S
H1485 C1472 0.962 . S
H1486 C1472 0.960 . S
H1487 C1473 0.961 . S
H1488 C1473 0.961 . S
H1489 C1473 0.961 . S
H1490 C1474 0.931 . S
H1491 C1479 0.930 . S
H1492 C1480 0.956 . S
H1493 C1480 0.961 . S
H1494 C1480 0.961 . S
H1495 C1481 0.958 . S
H1496 C1481 0.961 . S
H1497 C1481 0.960 . S
C1498 C1499 1.391 . S
C1498 C1500 1.394 . S
C1498 H1514 0.931 . S
C1499 C1498 1.391 . S
C1499 C1503 1.376 . S
C1500 C1498 1.394 . S
C1500 C1501 1.369 . S
C1500 C1504 1.531 . S
C1501 C1500 1.369 . S
C1501 C1502 1.410 . S
C1501 C1509 1.503 . S
C1502 C1501 1.410 . S
C1502 C1503 1.392 . S
C1502 C1505 1.511 . S
C1503 C1499 1.376 . S
C1503 C1502 1.392 . S
C1503 H1515 0.929 . S
C1504 C1500 1.531 . S
C1504 H1516 0.960 . S
C1504 H1517 0.962 . S
C1504 H1518 0.960 . S
C1505 C1502 1.511 . S
C1505 H1519 0.961 . S
C1505 H1520 0.961 . S
C1505 H1521 0.961 . S
C1506 C1507 1.370 . S
C1506 C1508 1.363 . S
C1506 H1522 0.931 . S
C1507 C1506 1.370 . S
C1507 C1511 1.408 . S
C1508 C1506 1.363 . S
C1508 C1509 1.370 . S
C1508 C1512 1.524 . S
C1509 C1501 1.503 . S
C1509 C1508 1.370 . S
C1509 C1510 1.403 . S
C1510 C1509 1.403 . S
C1510 C1511 1.404 . S
C1510 C1513 1.539 . S
C1511 C1507 1.408 . S
C1511 C1510 1.404 . S
C1511 H1523 0.930 . S
C1512 C1508 1.524 . S
C1512 H1524 0.956 . S
C1512 H1525 0.961 . S
C1512 H1526 0.961 . S
C1513 C1510 1.539 . S
C1513 H1527 0.958 . S
C1513 H1528 0.961 . S
C1513 H1529 0.960 . S
H1514 C1498 0.931 . S
H1515 C1503 0.929 . S
H1516 C1504 0.960 . S
H1517 C1504 0.962 . S
H1518 C1504 0.960 . S
H1519 C1505 0.961 . S
H1520 C1505 0.961 . S
H1521 C1505 0.961 . S
H1522 C1506 0.931 . S
H1523 C1511 0.930 . S
H1524 C1512 0.956 . S
H1525 C1512 0.961 . S
H1526 C1512 0.961 . S
H1527 C1513 0.958 . S
H1528 C1513 0.961 . S
H1529 C1513 0.960 . S
C1530 C1531 1.391 . S
C1530 C1532 1.394 . S
C1530 H1546 0.931 . S
C1531 C1530 1.391 . S
C1531 C1535 1.376 . S
C1532 C1530 1.394 . S
C1532 C1533 1.369 . S
C1532 C1536 1.531 . S
C1533 C1532 1.369 . S
C1533 C1534 1.410 . S
C1533 C1541 1.503 . S
C1534 C1533 1.410 . S
C1534 C1535 1.392 . S
C1534 C1537 1.511 . S
C1535 C1531 1.376 . S
C1535 C1534 1.392 . S
C1535 H1547 0.929 . S
C1536 C1532 1.531 . S
C1536 H1548 0.960 . S
C1536 H1549 0.962 . S
C1536 H1550 0.960 . S
C1537 C1534 1.511 . S
C1537 H1551 0.961 . S
C1537 H1552 0.961 . S
C1537 H1553 0.961 . S
C1538 C1539 1.370 . S
C1538 C1540 1.363 . S
C1538 H1554 0.931 . S
C1539 C1538 1.370 . S
C1539 C1543 1.408 . S
C1540 C1538 1.363 . S
C1540 C1541 1.370 . S
C1540 C1544 1.524 . S
C1541 C1533 1.503 . S
C1541 C1540 1.370 . S
C1541 C1542 1.403 . S
C1542 C1541 1.403 . S
C1542 C1543 1.404 . S
C1542 C1545 1.539 . S
C1543 C1539 1.408 . S
C1543 C1542 1.404 . S
C1543 H1555 0.930 . S
C1544 C1540 1.524 . S
C1544 H1556 0.956 . S
C1544 H1557 0.961 . S
C1544 H1558 0.961 . S
C1545 C1542 1.539 . S
C1545 H1559 0.958 . S
C1545 H1560 0.961 . S
C1545 H1561 0.960 . S
H1546 C1530 0.931 . S
H1547 C1535 0.929 . S
H1548 C1536 0.960 . S
H1549 C1536 0.962 . S
H1550 C1536 0.960 . S
H1551 C1537 0.961 . S
H1552 C1537 0.961 . S
H1553 C1537 0.961 . S
H1554 C1538 0.931 . S
H1555 C1543 0.930 . S
H1556 C1544 0.956 . S
H1557 C1544 0.961 . S
H1558 C1544 0.961 . S
H1559 C1545 0.958 . S
H1560 C1545 0.961 . S
H1561 C1545 0.960 . S
C1562 C1563 1.391 . S
C1562 C1564 1.394 . S
C1562 H1578 0.931 . S
C1563 C1562 1.391 . S
C1563 C1567 1.376 . S
C1564 C1562 1.394 . S
C1564 C1565 1.369 . S
C1564 C1568 1.531 . S
C1565 C1564 1.369 . S
C1565 C1566 1.410 . S
C1565 C1573 1.503 . S
C1566 C1565 1.410 . S
C1566 C1567 1.392 . S
C1566 C1569 1.511 . S
C1567 C1563 1.376 . S
C1567 C1566 1.392 . S
C1567 H1579 0.929 . S
C1568 C1564 1.531 . S
C1568 H1580 0.960 . S
C1568 H1581 0.962 . S
C1568 H1582 0.960 . S
C1569 C1566 1.511 . S
C1569 H1583 0.961 . S
C1569 H1584 0.961 . S
C1569 H1585 0.961 . S
C1570 C1571 1.370 . S
C1570 C1572 1.363 . S
C1570 H1586 0.931 . S
C1571 C1570 1.370 . S
C1571 C1575 1.408 . S
C1572 C1570 1.363 . S
C1572 C1573 1.370 . S
C1572 C1576 1.524 . S
C1573 C1565 1.503 . S
C1573 C1572 1.370 . S
C1573 C1574 1.403 . S
C1574 C1573 1.403 . S
C1574 C1575 1.404 . S
C1574 C1577 1.539 . S
C1575 C1571 1.408 . S
C1575 C1574 1.404 . S
C1575 H1587 0.930 . S
C1576 C1572 1.524 . S
C1576 H1588 0.956 . S
C1576 H1589 0.961 . S
C1576 H1590 0.961 . S
C1577 C1574 1.539 . S
C1577 H1591 0.958 . S
C1577 H1592 0.961 . S
C1577 H1593 0.960 . S
H1578 C1562 0.931 . S
H1579 C1567 0.929 . S
H1580 C1568 0.960 . S
H1581 C1568 0.962 . S
H1582 C1568 0.960 . S
H1583 C1569 0.961 . S
H1584 C1569 0.961 . S
H1585 C1569 0.961 . S
H1586 C1570 0.931 . S
H1587 C1575 0.930 . S
H1588 C1576 0.956 . S
H1589 C1576 0.961 . S
H1590 C1576 0.961 . S
H1591 C1577 0.958 . S
H1592 C1577 0.961 . S
H1593 C1577 0.960 . S
C1594 C1595 1.391 . S
C1594 C1596 1.394 . S
C1594 H1610 0.931 . S
C1595 C1594 1.391 . S
C1595 C1599 1.376 . S
C1596 C1594 1.394 . S
C1596 C1597 1.369 . S
C1596 C1600 1.531 . S
C1597 C1596 1.369 . S
C1597 C1598 1.410 . S
C1597 C1605 1.503 . S
C1598 C1597 1.410 . S
C1598 C1599 1.392 . S
C1598 C1601 1.511 . S
C1599 C1595 1.376 . S
C1599 C1598 1.392 . S
C1599 H1611 0.929 . S
C1600 C1596 1.531 . S
C1600 H1612 0.960 . S
C1600 H1613 0.962 . S
C1600 H1614 0.960 . S
C1601 C1598 1.511 . S
C1601 H1615 0.961 . S
C1601 H1616 0.961 . S
C1601 H1617 0.961 . S
C1602 C1603 1.370 . S
C1602 C1604 1.363 . S
C1602 H1618 0.931 . S
C1603 C1602 1.370 . S
C1603 C1607 1.408 . S
C1604 C1602 1.363 . S
C1604 C1605 1.370 . S
C1604 C1608 1.524 . S
C1605 C1597 1.503 . S
C1605 C1604 1.370 . S
C1605 C1606 1.403 . S
C1606 C1605 1.403 . S
C1606 C1607 1.404 . S
C1606 C1609 1.539 . S
C1607 C1603 1.408 . S
C1607 C1606 1.404 . S
C1607 H1619 0.930 . S
C1608 C1604 1.524 . S
C1608 H1620 0.956 . S
C1608 H1621 0.961 . S
C1608 H1622 0.961 . S
C1609 C1606 1.539 . S
C1609 H1623 0.958 . S
C1609 H1624 0.961 . S
C1609 H1625 0.960 . S
H1610 C1594 0.931 . S
H1611 C1599 0.929 . S
H1612 C1600 0.960 . S
H1613 C1600 0.962 . S
H1614 C1600 0.960 . S
H1615 C1601 0.961 . S
H1616 C1601 0.961 . S
H1617 C1601 0.961 . S
H1618 C1602 0.931 . S
H1619 C1607 0.930 . S
H1620 C1608 0.956 . S
H1621 C1608 0.961 . S
H1622 C1608 0.961 . S
H1623 C1609 0.958 . S
H1624 C1609 0.961 . S
H1625 C1609 0.960 . S
C1626 C1627 1.391 . S
C1626 C1628 1.394 . S
C1626 H1642 0.931 . S
C1627 C1626 1.391 . S
C1627 C1631 1.376 . S
C1628 C1626 1.394 . S
C1628 C1629 1.369 . S
C1628 C1632 1.531 . S
C1629 C1628 1.369 . S
C1629 C1630 1.410 . S
C1629 C1637 1.503 . S
C1630 C1629 1.410 . S
C1630 C1631 1.392 . S
C1630 C1633 1.511 . S
C1631 C1627 1.376 . S
C1631 C1630 1.392 . S
C1631 H1643 0.929 . S
C1632 C1628 1.531 . S
C1632 H1644 0.960 . S
C1632 H1645 0.962 . S
C1632 H1646 0.960 . S
C1633 C1630 1.511 . S
C1633 H1647 0.961 . S
C1633 H1648 0.961 . S
C1633 H1649 0.961 . S
C1634 C1635 1.370 . S
C1634 C1636 1.363 . S
C1634 H1650 0.931 . S
C1635 C1634 1.370 . S
C1635 C1639 1.408 . S
C1636 C1634 1.363 . S
C1636 C1637 1.370 . S
C1636 C1640 1.524 . S
C1637 C1629 1.503 . S
C1637 C1636 1.370 . S
C1637 C1638 1.403 . S
C1638 C1637 1.403 . S
C1638 C1639 1.404 . S
C1638 C1641 1.539 . S
C1639 C1635 1.408 . S
C1639 C1638 1.404 . S
C1639 H1651 0.930 . S
C1640 C1636 1.524 . S
C1640 H1652 0.956 . S
C1640 H1653 0.961 . S
C1640 H1654 0.961 . S
C1641 C1638 1.539 . S
C1641 H1655 0.958 . S
C1641 H1656 0.961 . S
C1641 H1657 0.960 . S
H1642 C1626 0.931 . S
H1643 C1631 0.929 . S
H1644 C1632 0.960 . S
H1645 C1632 0.962 . S
H1646 C1632 0.960 . S
H1647 C1633 0.961 . S
H1648 C1633 0.961 . S
H1649 C1633 0.961 . S
H1650 C1634 0.931 . S
H1651 C1639 0.930 . S
H1652 C1640 0.956 . S
H1653 C1640 0.961 . S
H1654 C1640 0.961 . S
H1655 C1641 0.958 . S
H1656 C1641 0.961 . S
H1657 C1641 0.960 . S
C1658 C1659 1.391 . S
C1658 C1660 1.394 . S
C1658 H1674 0.931 . S
C1659 C1658 1.391 . S
C1659 C1663 1.376 . S
C1660 C1658 1.394 . S
C1660 C1661 1.369 . S
C1660 C1664 1.531 . S
C1661 C1660 1.369 . S
C1661 C1662 1.410 . S
C1661 C1669 1.503 . S
C1662 C1661 1.410 . S
C1662 C1663 1.392 . S
C1662 C1665 1.511 . S
C1663 C1659 1.376 . S
C1663 C1662 1.392 . S
C1663 H1675 0.929 . S
C1664 C1660 1.531 . S
C1664 H1676 0.960 . S
C1664 H1677 0.962 . S
C1664 H1678 0.960 . S
C1665 C1662 1.511 . S
C1665 H1679 0.961 . S
C1665 H1680 0.961 . S
C1665 H1681 0.961 . S
C1666 C1667 1.370 . S
C1666 C1668 1.363 . S
C1666 H1682 0.931 . S
C1667 C1666 1.370 . S
C1667 C1671 1.408 . S
C1668 C1666 1.363 . S
C1668 C1669 1.370 . S
C1668 C1672 1.524 . S
C1669 C1661 1.503 . S
C1669 C1668 1.370 . S
C1669 C1670 1.403 . S
C1670 C1669 1.403 . S
C1670 C1671 1.404 . S
C1670 C1673 1.539 . S
C1671 C1667 1.408 . S
C1671 C1670 1.404 . S
C1671 H1683 0.930 . S
C1672 C1668 1.524 . S
C1672 H1684 0.956 . S
C1672 H1685 0.961 . S
C1672 H1686 0.961 . S
C1673 C1670 1.539 . S
C1673 H1687 0.958 . S
C1673 H1688 0.961 . S
C1673 H1689 0.960 . S
H1674 C1658 0.931 . S
H1675 C1663 0.929 . S
H1676 C1664 0.960 . S
H1677 C1664 0.962 . S
H1678 C1664 0.960 . S
H1679 C1665 0.961 . S
H1680 C1665 0.961 . S
H1681 C1665 0.961 . S
H1682 C1666 0.931 . S
H1683 C1671 0.930 . S
H1684 C1672 0.956 . S
H1685 C1672 0.961 . S
H1686 C1672 0.961 . S
H1687 C1673 0.958 . S
H1688 C1673 0.961 . S
H1689 C1673 0.960 . S
C1690 C1691 1.391 . S
C1690 C1692 1.394 . S
C1690 H1706 0.931 . S
C1691 C1690 1.391 . S
C1691 C1695 1.376 . S
C1692 C1690 1.394 . S
C1692 C1693 1.369 . S
C1692 C1696 1.531 . S
C1693 C1692 1.369 . S
C1693 C1694 1.410 . S
C1693 C1701 1.503 . S
C1694 C1693 1.410 . S
C1694 C1695 1.392 . S
C1694 C1697 1.511 . S
C1695 C1691 1.376 . S
C1695 C1694 1.392 . S
C1695 H1707 0.929 . S
C1696 C1692 1.531 . S
C1696 H1708 0.960 . S
C1696 H1709 0.962 . S
C1696 H1710 0.960 . S
C1697 C1694 1.511 . S
C1697 H1711 0.961 . S
C1697 H1712 0.961 . S
C1697 H1713 0.961 . S
C1698 C1699 1.370 . S
C1698 C1700 1.363 . S
C1698 H1714 0.931 . S
C1699 C1698 1.370 . S
C1699 C1703 1.408 . S
C1700 C1698 1.363 . S
C1700 C1701 1.370 . S
C1700 C1704 1.524 . S
C1701 C1693 1.503 . S
C1701 C1700 1.370 . S
C1701 C1702 1.403 . S
C1702 C1701 1.403 . S
C1702 C1703 1.404 . S
C1702 C1705 1.539 . S
C1703 C1699 1.408 . S
C1703 C1702 1.404 . S
C1703 H1715 0.930 . S
C1704 C1700 1.524 . S
C1704 H1716 0.956 . S
C1704 H1717 0.961 . S
C1704 H1718 0.961 . S
C1705 C1702 1.539 . S
C1705 H1719 0.958 . S
C1705 H1720 0.961 . S
C1705 H1721 0.960 . S
H1706 C1690 0.931 . S
H1707 C1695 0.929 . S
H1708 C1696 0.960 . S
H1709 C1696 0.962 . S
H1710 C1696 0.960 . S
H1711 C1697 0.961 . S
H1712 C1697 0.961 . S
H1713 C1697 0.961 . S
H1714 C1698 0.931 . S
H1715 C1703 0.930 . S
H1716 C1704 0.956 . S
H1717 C1704 0.961 . S
H1718 C1704 0.961 . S
H1719 C1705 0.958 . S
H1720 C1705 0.961 . S
H1721 C1705 0.960 . S
C1722 C1723 1.391 . S
C1722 C1724 1.394 . S
C1722 H1738 0.931 . S
C1723 C1722 1.391 . S
C1723 C1727 1.376 . S
C1724 C1722 1.394 . S
C1724 C1725 1.369 . S
C1724 C1728 1.531 . S
C1725 C1724 1.369 . S
C1725 C1726 1.410 . S
C1725 C1733 1.503 . S
C1726 C1725 1.410 . S
C1726 C1727 1.392 . S
C1726 C1729 1.511 . S
C1727 C1723 1.376 . S
C1727 C1726 1.392 . S
C1727 H1739 0.929 . S
C1728 C1724 1.531 . S
C1728 H1740 0.960 . S
C1728 H1741 0.962 . S
C1728 H1742 0.960 . S
C1729 C1726 1.511 . S
C1729 H1743 0.961 . S
C1729 H1744 0.961 . S
C1729 H1745 0.961 . S
C1730 C1731 1.370 . S
C1730 C1732 1.363 . S
C1730 H1746 0.931 . S
C1731 C1730 1.370 . S
C1731 C1735 1.408 . S
C1732 C1730 1.363 . S
C1732 C1733 1.370 . S
C1732 C1736 1.524 . S
C1733 C1725 1.503 . S
C1733 C1732 1.370 . S
C1733 C1734 1.403 . S
C1734 C1733 1.403 . S
C1734 C1735 1.404 . S
C1734 C1737 1.539 . S
C1735 C1731 1.408 . S
C1735 C1734 1.404 . S
C1735 H1747 0.930 . S
C1736 C1732 1.524 . S
C1736 H1748 0.956 . S
C1736 H1749 0.961 . S
C1736 H1750 0.961 . S
C1737 C1734 1.539 . S
C1737 H1751 0.958 . S
C1737 H1752 0.961 . S
C1737 H1753 0.960 . S
H1738 C1722 0.931 . S
H1739 C1727 0.929 . S
H1740 C1728 0.960 . S
H1741 C1728 0.962 . S
H1742 C1728 0.960 . S
H1743 C1729 0.961 . S
H1744 C1729 0.961 . S
H1745 C1729 0.961 . S
H1746 C1730 0.931 . S
H1747 C1735 0.930 . S
H1748 C1736 0.956 . S
H1749 C1736 0.961 . S
H1750 C1736 0.961 . S
H1751 C1737 0.958 . S
H1752 C1737 0.961 . S
H1753 C1737 0.960 . S
C1754 C1755 1.391 . S
C1754 C1756 1.394 . S
C1754 H1770 0.931 . S
C1755 C1754 1.391 . S
C1755 C1759 1.376 . S
C1756 C1754 1.394 . S
C1756 C1757 1.369 . S
C1756 C1760 1.531 . S
C1757 C1756 1.369 . S
C1757 C1758 1.410 . S
C1757 C1765 1.503 . S
C1758 C1757 1.410 . S
C1758 C1759 1.392 . S
C1758 C1761 1.511 . S
C1759 C1755 1.376 . S
C1759 C1758 1.392 . S
C1759 H1771 0.929 . S
C1760 C1756 1.531 . S
C1760 H1772 0.960 . S
C1760 H1773 0.962 . S
C1760 H1774 0.960 . S
C1761 C1758 1.511 . S
C1761 H1775 0.961 . S
C1761 H1776 0.961 . S
C1761 H1777 0.961 . S
C1762 C1763 1.370 . S
C1762 C1764 1.363 . S
C1762 H1778 0.931 . S
C1763 C1762 1.370 . S
C1763 C1767 1.408 . S
C1764 C1762 1.363 . S
C1764 C1765 1.370 . S
C1764 C1768 1.524 . S
C1765 C1757 1.503 . S
C1765 C1764 1.370 . S
C1765 C1766 1.403 . S
C1766 C1765 1.403 . S
C1766 C1767 1.404 . S
C1766 C1769 1.539 . S
C1767 C1763 1.408 . S
C1767 C1766 1.404 . S
C1767 H1779 0.930 . S
C1768 C1764 1.524 . S
C1768 H1780 0.956 . S
C1768 H1781 0.961 . S
C1768 H1782 0.961 . S
C1769 C1766 1.539 . S
C1769 H1783 0.958 . S
C1769 H1784 0.961 . S
C1769 H1785 0.960 . S
H1770 C1754 0.931 . S
H1771 C1759 0.929 . S
H1772 C1760 0.960 . S
H1773 C1760 0.962 . S
H1774 C1760 0.960 . S
H1775 C1761 0.961 . S
H1776 C1761 0.961 . S
H1777 C1761 0.961 . S
H1778 C1762 0.931 . S
H1779 C1767 0.930 . S
H1780 C1768 0.956 . S
H1781 C1768 0.961 . S
H1782 C1768 0.961 . S
H1783 C1769 0.958 . S
H1784 C1769 0.961 . S
H1785 C1769 0.960 . S
C1786 C1787 1.391 . S
C1786 C1788 1.394 . S
C1786 H1802 0.931 . S
C1787 C1786 1.391 . S
C1787 C1791 1.376 . S
C1788 C1786 1.394 . S
C1788 C1789 1.369 . S
C1788 C1792 1.531 . S
C1789 C1788 1.369 . S
C1789 C1790 1.410 . S
C1789 C1797 1.503 . S
C1790 C1789 1.410 . S
C1790 C1791 1.392 . S
C1790 C1793 1.511 . S
C1791 C1787 1.376 . S
C1791 C1790 1.392 . S
C1791 H1803 0.929 . S
C1792 C1788 1.531 . S
C1792 H1804 0.960 . S
C1792 H1805 0.962 . S
C1792 H1806 0.960 . S
C1793 C1790 1.511 . S
C1793 H1807 0.961 . S
C1793 H1808 0.961 . S
C1793 H1809 0.961 . S
C1794 C1795 1.370 . S
C1794 C1796 1.363 . S
C1794 H1810 0.931 . S
C1795 C1794 1.370 . S
C1795 C1799 1.408 . S
C1796 C1794 1.363 . S
C1796 C1797 1.370 . S
C1796 C1800 1.524 . S
C1797 C1789 1.503 . S
C1797 C1796 1.370 . S
C1797 C1798 1.403 . S
C1798 C1797 1.403 . S
C1798 C1799 1.404 . S
C1798 C1801 1.539 . S
C1799 C1795 1.408 . S
C1799 C1798 1.404 . S
C1799 H1811 0.930 . S
C1800 C1796 1.524 . S
C1800 H1812 0.956 . S
C1800 H1813 0.961 . S
C1800 H1814 0.961 . S
C1801 C1798 1.539 . S
C1801 H1815 0.958 . S
C1801 H1816 0.961 . S
C1801 H1817 0.960 . S
H1802 C1786 0.931 . S
H1803 C1791 0.929 . S
H1804 C1792 0.960 . S
H1805 C1792 0.962 . S
H1806 C1792 0.960 . S
H1807 C1793 0.961 . S
H1808 C1793 0.961 . S
H1809 C1793 0.961 . S
H1810 C1794 0.931 . S
H1811 C1799 0.930 . S
H1812 C1800 0.956 . S
H1813 C1800 0.961 . S
H1814 C1800 0.961 . S
H1815 C1801 0.958 . S
H1816 C1801 0.961 . S
H1817 C1801 0.960 . S
C1818 C1819 1.391 . S
C1818 C1820 1.394 . S
C1818 H1834 0.931 . S
C1819 C1818 1.391 . S
C1819 C1823 1.376 . S
C1820 C1818 1.394 . S
C1820 C1821 1.369 . S
C1820 C1824 1.531 . S
C1821 C1820 1.369 . S
C1821 C1822 1.410 . S
C1821 C1829 1.503 . S
C1822 C1821 1.410 . S
C1822 C1823 1.392 . S
C1822 C1825 1.511 . S
C1823 C1819 1.376 . S
C1823 C1822 1.392 . S
C1823 H1835 0.929 . S
C1824 C1820 1.531 . S
C1824 H1836 0.960 . S
C1824 H1837 0.962 . S
C1824 H1838 0.960 . S
C1825 C1822 1.511 . S
C1825 H1839 0.961 . S
C1825 H1840 0.961 . S
C1825 H1841 0.961 . S
C1826 C1827 1.370 . S
C1826 C1828 1.363 . S
C1826 H1842 0.931 . S
C1827 C1826 1.370 . S
C1827 C1831 1.408 . S
C1828 C1826 1.363 . S
C1828 C1829 1.370 . S
C1828 C1832 1.524 . S
C1829 C1821 1.503 . S
C1829 C1828 1.370 . S
C1829 C1830 1.403 . S
C1830 C1829 1.403 . S
C1830 C1831 1.404 . S
C1830 C1833 1.539 . S
C1831 C1827 1.408 . S
C1831 C1830 1.404 . S
C1831 H1843 0.930 . S
C1832 C1828 1.524 . S
C1832 H1844 0.956 . S
C1832 H1845 0.961 . S
C1832 H1846 0.961 . S
C1833 C1830 1.539 . S
C1833 H1847 0.958 . S
C1833 H1848 0.961 . S
C1833 H1849 0.960 . S
H1834 C1818 0.931 . S
H1835 C1823 0.929 . S
H1836 C1824 0.960 . S
H1837 C1824 0.962 . S
H1838 C1824 0.960 . S
H1839 C1825 0.961 . S
H1840 C1825 0.961 . S
H1841 C1825 0.961 . S
H1842 C1826 0.931 . S
H1843 C1831 0.930 . S
H1844 C1832 0.956 . S
H1845 C1832 0.961 . S
H1846 C1832 0.961 . S
H1847 C1833 0.958 . S
H1848 C1833 0.961 . S
H1849 C1833 0.960 . S
C1850 C1851 1.391 . S
C1850 C1852 1.394 . S
C1850 H1866 0.931 . S
C1851 C1850 1.391 . S
C1851 C1855 1.376 . S
C1852 C1850 1.394 . S
C1852 C1853 1.369 . S
C1852 C1856 1.531 . S
C1853 C1852 1.369 . S
C1853 C1854 1.410 . S
C1853 C1861 1.503 . S
C1854 C1853 1.410 . S
C1854 C1855 1.392 . S
C1854 C1857 1.511 . S
C1855 C1851 1.376 . S
C1855 C1854 1.392 . S
C1855 H1867 0.929 . S
C1856 C1852 1.531 . S
C1856 H1868 0.960 . S
C1856 H1869 0.962 . S
C1856 H1870 0.960 . S
C1857 C1854 1.511 . S
C1857 H1871 0.961 . S
C1857 H1872 0.961 . S
C1857 H1873 0.961 . S
C1858 C1859 1.370 . S
C1858 C1860 1.363 . S
C1858 H1874 0.931 . S
C1859 C1858 1.370 . S
C1859 C1863 1.408 . S
C1860 C1858 1.363 . S
C1860 C1861 1.370 . S
C1860 C1864 1.524 . S
C1861 C1853 1.503 . S
C1861 C1860 1.370 . S
C1861 C1862 1.403 . S
C1862 C1861 1.403 . S
C1862 C1863 1.404 . S
C1862 C1865 1.539 . S
C1863 C1859 1.408 . S
C1863 C1862 1.404 . S
C1863 H1875 0.930 . S
C1864 C1860 1.524 . S
C1864 H1876 0.956 . S
C1864 H1877 0.961 . S
C1864 H1878 0.961 . S
C1865 C1862 1.539 . S
C1865 H1879 0.958 . S
C1865 H1880 0.961 . S
C1865 H1881 0.960 . S
H1866 C1850 0.931 . S
H1867 C1855 0.929 . S
H1868 C1856 0.960 . S
H1869 C1856 0.962 . S
H1870 C1856 0.960 . S
H1871 C1857 0.961 . S
H1872 C1857 0.961 . S
H1873 C1857 0.961 . S
H1874 C1858 0.931 . S
H1875 C1863 0.930 . S
H1876 C1864 0.956 . S
H1877 C1864 0.961 . S
H1878 C1864 0.961 . S
H1879 C1865 0.958 . S
H1880 C1865 0.961 . S
H1881 C1865 0.960 . S
C1882 C1883 1.391 . S
C1882 C1884 1.394 . S
C1882 H1898 0.931 . S
C1883 C1882 1.391 . S
C1883 C1887 1.376 . S
C1884 C1882 1.394 . S
C1884 C1885 1.369 . S
C1884 C1888 1.531 . S
C1885 C1884 1.369 . S
C1885 C1886 1.410 . S
C1885 C1893 1.503 . S
C1886 C1885 1.410 . S
C1886 C1887 1.392 . S
C1886 C1889 1.511 . S
C1887 C1883 1.376 . S
C1887 C1886 1.392 . S
C1887 H1899 0.929 . S
C1888 C1884 1.531 . S
C1888 H1900 0.960 . S
C1888 H1901 0.962 . S
C1888 H1902 0.960 . S
C1889 C1886 1.511 . S
C1889 H1903 0.961 . S
C1889 H1904 0.961 . S
C1889 H1905 0.961 . S
C1890 C1891 1.370 . S
C1890 C1892 1.363 . S
C1890 H1906 0.931 . S
C1891 C1890 1.370 . S
C1891 C1895 1.408 . S
C1892 C1890 1.363 . S
C1892 C1893 1.370 . S
C1892 C1896 1.524 . S
C1893 C1885 1.503 . S
C1893 C1892 1.370 . S
C1893 C1894 1.403 . S
C1894 C1893 1.403 . S
C1894 C1895 1.404 . S
C1894 C1897 1.539 . S
C1895 C1891 1.408 . S
C1895 C1894 1.404 . S
C1895 H1907 0.930 . S
C1896 C1892 1.524 . S
C1896 H1908 0.956 . S
C1896 H1909 0.961 . S
C1896 H1910 0.961 . S
C1897 C1894 1.539 . S
C1897 H1911 0.958 . S
C1897 H1912 0.961 . S
C1897 H1913 0.960 . S
H1898 C1882 0.931 . S
H1899 C1887 0.929 . S
H1900 C1888 0.960 . S
H1901 C1888 0.962 . S
H1902 C1888 0.960 . S
H1903 C1889 0.961 . S
H1904 C1889 0.961 . S
H1905 C1889 0.961 . S
H1906 C1890 0.931 . S
H1907 C1895 0.930 . S
H1908 C1896 0.956 . S
H1909 C1896 0.961 . S
H1910 C1896 0.961 . S
H1911 C1897 0.958 . S
H1912 C1897 0.961 . S
H1913 C1897 0.960 . S
C1914 C1915 1.391 . S
C1914 C1916 1.394 . S
C1914 H1930 0.931 . S
C1915 C1914 1.391 . S
C1915 C1919 1.376 . S
C1916 C1914 1.394 . S
C1916 C1917 1.369 . S
C1916 C1920 1.531 . S
C1917 C1916 1.369 . S
C1917 C1918 1.410 . S
C1917 C1925 1.503 . S
C1918 C1917 1.410 . S
C1918 C1919 1.392 . S
C1918 C1921 1.511 . S
C1919 C1915 1.376 . S
C1919 C1918 1.392 . S
C1919 H1931 0.929 . S
C1920 C1916 1.531 . S
C1920 H1932 0.960 . S
C1920 H1933 0.962 . S
C1920 H1934 0.960 . S
C1921 C1918 1.511 . S
C1921 H1935 0.961 . S
C1921 H1936 0.961 . S
C1921 H1937 0.961 . S
C1922 C1923 1.370 . S
C1922 C1924 1.363 . S
C1922 H1938 0.931 . S
C1923 C1922 1.370 . S
C1923 C1927 1.408 . S
C1924 C1922 1.363 . S
C1924 C1925 1.370 . S
C1924 C1928 1.524 . S
C1925 C1917 1.503 . S
C1925 C1924 1.370 . S
C1925 C1926 1.403 . S
C1926 C1925 1.403 . S
C1926 C1927 1.404 . S
C1926 C1929 1.539 . S
C1927 C1923 1.408 . S
C1927 C1926 1.404 . S
C1927 H1939 0.930 . S
C1928 C1924 1.524 . S
C1928 H1940 0.956 . S
C1928 H1941 0.961 . S
C1928 H1942 0.961 . S
C1929 C1926 1.539 . S
C1929 H1943 0.958 . S
C1929 H1944 0.961 . S
C1929 H1945 0.960 . S
H1930 C1914 0.931 . S
H1931 C1919 0.929 . S
H1932 C1920 0.960 . S
H1933 C1920 0.962 . S
H1934 C1920 0.960 . S
H1935 C1921 0.961 . S
H1936 C1921 0.961 . S
H1937 C1921 0.961 . S
H1938 C1922 0.931 . S
H1939 C1927 0.930 . S
H1940 C1928 0.956 . S
H1941 C1928 0.961 . S
H1942 C1928 0.961 . S
H1943 C1929 0.958 . S
H1944 C1929 0.961 . S
H1945 C1929 0.960 . S
C1946 C1947 1.391 . S
C1946 C1948 1.394 . S
C1946 H1962 0.931 . S
C1947 C1946 1.391 . S
C1947 C1951 1.376 . S
C1948 C1946 1.394 . S
C1948 C1949 1.369 . S
C1948 C1952 1.531 . S
C1949 C1948 1.369 . S
C1949 C1950 1.410 . S
C1949 C1957 1.503 . S
C1950 C1949 1.410 . S
C1950 C1951 1.392 . S
C1950 C1953 1.511 . S
C1951 C1947 1.376 . S
C1951 C1950 1.392 . S
C1951 H1963 0.929 . S
C1952 C1948 1.531 . S
C1952 H1964 0.960 . S
C1952 H1965 0.962 . S
C1952 H1966 0.960 . S
C1953 C1950 1.511 . S
C1953 H1967 0.961 . S
C1953 H1968 0.961 . S
C1953 H1969 0.961 . S
C1954 C1955 1.370 . S
C1954 C1956 1.363 . S
C1954 H1970 0.931 . S
C1955 C1954 1.370 . S
C1955 C1959 1.408 . S
C1956 C1954 1.363 . S
C1956 C1957 1.370 . S
C1956 C1960 1.524 . S
C1957 C1949 1.503 . S
C1957 C1956 1.370 . S
C1957 C1958 1.403 . S
C1958 C1957 1.403 . S
C1958 C1959 1.404 . S
C1958 C1961 1.539 . S
C1959 C1955 1.408 . S
C1959 C1958 1.404 . S
C1959 H1971 0.930 . S
C1960 C1956 1.524 . S
C1960 H1972 0.956 . S
C1960 H1973 0.961 . S
C1960 H1974 0.961 . S
C1961 C1958 1.539 . S
C1961 H1975 0.958 . S
C1961 H1976 0.961 . S
C1961 H1977 0.960 . S
H1962 C1946 0.931 . S
H1963 C1951 0.929 . S
H1964 C1952 0.960 . S
H1965 C1952 0.962 . S
H1966 C1952 0.960 . S
H1967 C1953 0.961 . S
H1968 C1953 0.961 . S
H1969 C1953 0.961 . S
H1970 C1954 0.931 . S
H1971 C1959 0.930 . S
H1972 C1960 0.956 . S
H1973 C1960 0.961 . S
H1974 C1960 0.961 . S
H1975 C1961 0.958 . S
H1976 C1961 0.961 . S
H1977 C1961 0.960 . S
C1978 C1979 1.391 . S
C1978 C1980 1.394 . S
C1978 H1994 0.931 . S
C1979 C1978 1.391 . S
C1979 C1983 1.376 . S
C1980 C1978 1.394 . S
C1980 C1981 1.369 . S
C1980 C1984 1.531 . S
C1981 C1980 1.369 . S
C1981 C1982 1.410 . S
C1981 C1989 1.503 . S
C1982 C1981 1.410 . S
C1982 C1983 1.392 . S
C1982 C1985 1.511 . S
C1983 C1979 1.376 . S
C1983 C1982 1.392 . S
C1983 H1995 0.929 . S
C1984 C1980 1.531 . S
C1984 H1996 0.960 . S
C1984 H1997 0.962 . S
C1984 H1998 0.960 . S
C1985 C1982 1.511 . S
C1985 H1999 0.961 . S
C1985 H2000 0.961 . S
C1985 H2001 0.961 . S
C1986 C1987 1.370 . S
C1986 C1988 1.363 . S
C1986 H2002 0.931 . S
C1987 C1986 1.370 . S
C1987 C1991 1.408 . S
C1988 C1986 1.363 . S
C1988 C1989 1.370 . S
C1988 C1992 1.524 . S
C1989 C1981 1.503 . S
C1989 C1988 1.370 . S
C1989 C1990 1.403 . S
C1990 C1989 1.403 . S
C1990 C1991 1.404 . S
C1990 C1993 1.539 . S
C1991 C1987 1.408 . S
C1991 C1990 1.404 . S
C1991 H2003 0.930 . S
C1992 C1988 1.524 . S
C1992 H2004 0.956 . S
C1992 H2005 0.961 . S
C1992 H2006 0.961 . S
C1993 C1990 1.539 . S
C1993 H2007 0.958 . S
C1993 H2008 0.961 . S
C1993 H2009 0.960 . S
H1994 C1978 0.931 . S
H1995 C1983 0.929 . S
H1996 C1984 0.960 . S
H1997 C1984 0.962 . S
H1998 C1984 0.960 . S
H1999 C1985 0.961 . S
H2000 C1985 0.961 . S
H2001 C1985 0.961 . S
H2002 C1986 0.931 . S
H2003 C1991 0.930 . S
H2004 C1992 0.956 . S
H2005 C1992 0.961 . S
H2006 C1992 0.961 . S
H2007 C1993 0.958 . S
H2008 C1993 0.961 . S
H2009 C1993 0.960 . S
C2010 C2011 1.391 . S
C2010 C2012 1.394 . S
C2010 H2026 0.931 . S
C2011 C2010 1.391 . S
C2011 C2015 1.376 . S
C2012 C2010 1.394 . S
C2012 C2013 1.369 . S
C2012 C2016 1.531 . S
C2013 C2012 1.369 . S
C2013 C2014 1.410 . S
C2013 C2021 1.503 . S
C2014 C2013 1.410 . S
C2014 C2015 1.392 . S
C2014 C2017 1.511 . S
C2015 C2011 1.376 . S
C2015 C2014 1.392 . S
C2015 H2027 0.929 . S
C2016 C2012 1.531 . S
C2016 H2028 0.960 . S
C2016 H2029 0.962 . S
C2016 H2030 0.960 . S
C2017 C2014 1.511 . S
C2017 H2031 0.961 . S
C2017 H2032 0.961 . S
C2017 H2033 0.961 . S
C2018 C2019 1.370 . S
C2018 C2020 1.363 . S
C2018 H2034 0.931 . S
C2019 C2018 1.370 . S
C2019 C2023 1.408 . S
C2020 C2018 1.363 . S
C2020 C2021 1.370 . S
C2020 C2024 1.524 . S
C2021 C2013 1.503 . S
C2021 C2020 1.370 . S
C2021 C2022 1.403 . S
C2022 C2021 1.403 . S
C2022 C2023 1.404 . S
C2022 C2025 1.539 . S
C2023 C2019 1.408 . S
C2023 C2022 1.404 . S
C2023 H2035 0.930 . S
C2024 C2020 1.524 . S
C2024 H2036 0.956 . S
C2024 H2037 0.961 . S
C2024 H2038 0.961 . S
C2025 C2022 1.539 . S
C2025 H2039 0.958 . S
C2025 H2040 0.961 . S
C2025 H2041 0.960 . S
H2026 C2010 0.931 . S
H2027 C2015 0.929 . S
H2028 C2016 0.960 . S
H2029 C2016 0.962 . S
H2030 C2016 0.960 . S
H2031 C2017 0.961 . S
H2032 C2017 0.961 . S
H2033 C2017 0.961 . S
H2034 C2018 0.931 . S
H2035 C2023 0.930 . S
H2036 C2024 0.956 . S
H2037 C2024 0.961 . S
H2038 C2024 0.961 . S
H2039 C2025 0.958 . S
H2040 C2025 0.961 . S
H2041 C2025 0.960 . S
C2042 C2043 1.391 . S
C2042 C2044 1.394 . S
C2042 H2058 0.931 . S
C2043 C2042 1.391 . S
C2043 C2047 1.376 . S
C2044 C2042 1.394 . S
C2044 C2045 1.369 . S
C2044 C2048 1.531 . S
C2045 C2044 1.369 . S
C2045 C2046 1.410 . S
C2045 C2053 1.503 . S
C2046 C2045 1.410 . S
C2046 C2047 1.392 . S
C2046 C2049 1.511 . S
C2047 C2043 1.376 . S
C2047 C2046 1.392 . S
C2047 H2059 0.929 . S
C2048 C2044 1.531 . S
C2048 H2060 0.960 . S
C2048 H2061 0.962 . S
C2048 H2062 0.960 . S
C2049 C2046 1.511 . S
C2049 H2063 0.961 . S
C2049 H2064 0.961 . S
C2049 H2065 0.961 . S
C2050 C2051 1.370 . S
C2050 C2052 1.363 . S
C2050 H2066 0.931 . S
C2051 C2050 1.370 . S
C2051 C2055 1.408 . S
C2052 C2050 1.363 . S
C2052 C2053 1.370 . S
C2052 C2056 1.524 . S
C2053 C2045 1.503 . S
C2053 C2052 1.370 . S
C2053 C2054 1.403 . S
C2054 C2053 1.403 . S
C2054 C2055 1.404 . S
C2054 C2057 1.539 . S
C2055 C2051 1.408 . S
C2055 C2054 1.404 . S
C2055 H2067 0.930 . S
C2056 C2052 1.524 . S
C2056 H2068 0.956 . S
C2056 H2069 0.961 . S
C2056 H2070 0.961 . S
C2057 C2054 1.539 . S
C2057 H2071 0.958 . S
C2057 H2072 0.961 . S
C2057 H2073 0.960 . S
H2058 C2042 0.931 . S
H2059 C2047 0.929 . S
H2060 C2048 0.960 . S
H2061 C2048 0.962 . S
H2062 C2048 0.960 . S
H2063 C2049 0.961 . S
H2064 C2049 0.961 . S
H2065 C2049 0.961 . S
H2066 C2050 0.931 . S
H2067 C2055 0.930 . S
H2068 C2056 0.956 . S
H2069 C2056 0.961 . S
H2070 C2056 0.961 . S
H2071 C2057 0.958 . S
H2072 C2057 0.961 . S
H2073 C2057 0.960 . S
C2074 C2075 1.391 . S
C2074 C2076 1.394 . S
C2074 H2090 0.931 . S
C2075 C2074 1.391 . S
C2075 C2079 1.376 . S
C2076 C2074 1.394 . S
C2076 C2077 1.369 . S
C2076 C2080 1.531 . S
C2077 C2076 1.369 . S
C2077 C2078 1.410 . S
C2077 C2085 1.503 . S
C2078 C2077 1.410 . S
C2078 C2079 1.392 . S
C2078 C2081 1.511 . S
C2079 C2075 1.376 . S
C2079 C2078 1.392 . S
C2079 H2091 0.929 . S
C2080 C2076 1.531 . S
C2080 H2092 0.960 . S
C2080 H2093 0.962 . S
C2080 H2094 0.960 . S
C2081 C2078 1.511 . S
C2081 H2095 0.961 . S
C2081 H2096 0.961 . S
C2081 H2097 0.961 . S
C2082 C2083 1.370 . S
C2082 C2084 1.363 . S
C2082 H2098 0.931 . S
C2083 C2082 1.370 . S
C2083 C2087 1.408 . S
C2084 C2082 1.363 . S
C2084 C2085 1.370 . S
C2084 C2088 1.524 . S
C2085 C2077 1.503 . S
C2085 C2084 1.370 . S
C2085 C2086 1.403 . S
C2086 C2085 1.403 . S
C2086 C2087 1.404 . S
C2086 C2089 1.539 . S
C2087 C2083 1.408 . S
C2087 C2086 1.404 . S
C2087 H2099 0.930 . S
C2088 C2084 1.524 . S
C2088 H2100 0.956 . S
C2088 H2101 0.961 . S
C2088 H2102 0.961 . S
C2089 C2086 1.539 . S
C2089 H2103 0.958 . S
C2089 H2104 0.961 . S
C2089 H2105 0.960 . S
H2090 C2074 0.931 . S
H2091 C2079 0.929 . S
H2092 C2080 0.960 . S
H2093 C2080 0.962 . S
H2094 C2080 0.960 . S
H2095 C2081 0.961 . S
H2096 C2081 0.961 . S
H2097 C2081 0.961 . S
H2098 C2082 0.931 . S
H2099 C2087 0.930 . S
H2100 C2088 0.956 . S
H2101 C2088 0.961 . S
H2102 C2088 0.961 . S
H2103 C2089 0.958 . S
H2104 C2089 0.961 . S
H2105 C2089 0.960 . S
C2106 C2107 1.391 . S
C2106 C2108 1.394 . S
C2106 H2122 0.931 . S
C2107 C2106 1.391 . S
C2107 C2111 1.376 . S
C2108 C2106 1.394 . S
C2108 C2109 1.369 . S
C2108 C2112 1.531 . S
C2109 C2108 1.369 . S
C2109 C2110 1.410 . S
C2109 C2117 1.503 . S
C2110 C2109 1.410 . S
C2110 C2111 1.392 . S
C2110 C2113 1.511 . S
C2111 C2107 1.376 . S
C2111 C2110 1.392 . S
C2111 H2123 0.929 . S
C2112 C2108 1.531 . S
C2112 H2124 0.960 . S
C2112 H2125 0.962 . S
C2112 H2126 0.960 . S
C2113 C2110 1.511 . S
C2113 H2127 0.961 . S
C2113 H2128 0.961 . S
C2113 H2129 0.961 . S
C2114 C2115 1.370 . S
C2114 C2116 1.363 . S
C2114 H2130 0.931 . S
C2115 C2114 1.370 . S
C2115 C2119 1.408 . S
C2116 C2114 1.363 . S
C2116 C2117 1.370 . S
C2116 C2120 1.524 . S
C2117 C2109 1.503 . S
C2117 C2116 1.370 . S
C2117 C2118 1.403 . S
C2118 C2117 1.403 . S
C2118 C2119 1.404 . S
C2118 C2121 1.539 . S
C2119 C2115 1.408 . S
C2119 C2118 1.404 . S
C2119 H2131 0.930 . S
C2120 C2116 1.524 . S
C2120 H2132 0.956 . S
C2120 H2133 0.961 . S
C2120 H2134 0.961 . S
C2121 C2118 1.539 . S
C2121 H2135 0.958 . S
C2121 H2136 0.961 . S
C2121 H2137 0.960 . S
H2122 C2106 0.931 . S
H2123 C2111 0.929 . S
H2124 C2112 0.960 . S
H2125 C2112 0.962 . S
H2126 C2112 0.960 . S
H2127 C2113 0.961 . S
H2128 C2113 0.961 . S
H2129 C2113 0.961 . S
H2130 C2114 0.931 . S
H2131 C2119 0.930 . S
H2132 C2120 0.956 . S
H2133 C2120 0.961 . S
H2134 C2120 0.961 . S
H2135 C2121 0.958 . S
H2136 C2121 0.961 . S
H2137 C2121 0.960 . S
C2138 C2139 1.391 . S
C2138 C2140 1.394 . S
C2138 H2154 0.931 . S
C2139 C2138 1.391 . S
C2139 C2143 1.376 . S
C2140 C2138 1.394 . S
C2140 C2141 1.369 . S
C2140 C2144 1.531 . S
C2141 C2140 1.369 . S
C2141 C2142 1.410 . S
C2141 C2149 1.503 . S
C2142 C2141 1.410 . S
C2142 C2143 1.392 . S
C2142 C2145 1.511 . S
C2143 C2139 1.376 . S
C2143 C2142 1.392 . S
C2143 H2155 0.929 . S
C2144 C2140 1.531 . S
C2144 H2156 0.960 . S
C2144 H2157 0.962 . S
C2144 H2158 0.960 . S
C2145 C2142 1.511 . S
C2145 H2159 0.961 . S
C2145 H2160 0.961 . S
C2145 H2161 0.961 . S
C2146 C2147 1.370 . S
C2146 C2148 1.363 . S
C2146 H2162 0.931 . S
C2147 C2146 1.370 . S
C2147 C2151 1.408 . S
C2148 C2146 1.363 . S
C2148 C2149 1.370 . S
C2148 C2152 1.524 . S
C2149 C2141 1.503 . S
C2149 C2148 1.370 . S
C2149 C2150 1.403 . S
C2150 C2149 1.403 . S
C2150 C2151 1.404 . S
C2150 C2153 1.539 . S
C2151 C2147 1.408 . S
C2151 C2150 1.404 . S
C2151 H2163 0.930 . S
C2152 C2148 1.524 . S
C2152 H2164 0.956 . S
C2152 H2165 0.961 . S
C2152 H2166 0.961 . S
C2153 C2150 1.539 . S
C2153 H2167 0.958 . S
C2153 H2168 0.961 . S
C2153 H2169 0.960 . S
H2154 C2138 0.931 . S
H2155 C2143 0.929 . S
H2156 C2144 0.960 . S
H2157 C2144 0.962 . S
H2158 C2144 0.960 . S
H2159 C2145 0.961 . S
H2160 C2145 0.961 . S
H2161 C2145 0.961 . S
H2162 C2146 0.931 . S
H2163 C2151 0.930 . S
H2164 C2152 0.956 . S
H2165 C2152 0.961 . S
H2166 C2152 0.961 . S
H2167 C2153 0.958 . S
H2168 C2153 0.961 . S
H2169 C2153 0.960 . S
C2170 C2171 1.391 . S
C2170 C2172 1.394 . S
C2170 H2186 0.931 . S
C2171 C2170 1.391 . S
C2171 C2175 1.376 . S
C2172 C2170 1.394 . S
C2172 C2173 1.369 . S
C2172 C2176 1.531 . S
C2173 C2172 1.369 . S
C2173 C2174 1.410 . S
C2173 C2181 1.503 . S
C2174 C2173 1.410 . S
C2174 C2175 1.392 . S
C2174 C2177 1.511 . S
C2175 C2171 1.376 . S
C2175 C2174 1.392 . S
C2175 H2187 0.929 . S
C2176 C2172 1.531 . S
C2176 H2188 0.960 . S
C2176 H2189 0.962 . S
C2176 H2190 0.960 . S
C2177 C2174 1.511 . S
C2177 H2191 0.961 . S
C2177 H2192 0.961 . S
C2177 H2193 0.961 . S
C2178 C2179 1.370 . S
C2178 C2180 1.363 . S
C2178 H2194 0.931 . S
C2179 C2178 1.370 . S
C2179 C2183 1.408 . S
C2180 C2178 1.363 . S
C2180 C2181 1.370 . S
C2180 C2184 1.524 . S
C2181 C2173 1.503 . S
C2181 C2180 1.370 . S
C2181 C2182 1.403 . S
C2182 C2181 1.403 . S
C2182 C2183 1.404 . S
C2182 C2185 1.539 . S
C2183 C2179 1.408 . S
C2183 C2182 1.404 . S
C2183 H2195 0.930 . S
C2184 C2180 1.524 . S
C2184 H2196 0.956 . S
C2184 H2197 0.961 . S
C2184 H2198 0.961 . S
C2185 C2182 1.539 . S
C2185 H2199 0.958 . S
C2185 H2200 0.961 . S
C2185 H2201 0.960 . S
H2186 C2170 0.931 . S
H2187 C2175 0.929 . S
H2188 C2176 0.960 . S
H2189 C2176 0.962 . S
H2190 C2176 0.960 . S
H2191 C2177 0.961 . S
H2192 C2177 0.961 . S
H2193 C2177 0.961 . S
H2194 C2178 0.931 . S
H2195 C2183 0.930 . S
H2196 C2184 0.956 . S
H2197 C2184 0.961 . S
H2198 C2184 0.961 . S
H2199 C2185 0.958 . S
H2200 C2185 0.961 . S
H2201 C2185 0.960 . S
C2202 C2203 1.391 . S
C2202 C2204 1.394 . S
C2202 H2218 0.931 . S
C2203 C2202 1.391 . S
C2203 C2207 1.376 . S
C2204 C2202 1.394 . S
C2204 C2205 1.369 . S
C2204 C2208 1.531 . S
C2205 C2204 1.369 . S
C2205 C2206 1.410 . S
C2205 C2213 1.503 . S
C2206 C2205 1.410 . S
C2206 C2207 1.392 . S
C2206 C2209 1.511 . S
C2207 C2203 1.376 . S
C2207 C2206 1.392 . S
C2207 H2219 0.929 . S
C2208 C2204 1.531 . S
C2208 H2220 0.960 . S
C2208 H2221 0.962 . S
C2208 H2222 0.960 . S
C2209 C2206 1.511 . S
C2209 H2223 0.961 . S
C2209 H2224 0.961 . S
C2209 H2225 0.961 . S
C2210 C2211 1.370 . S
C2210 C2212 1.363 . S
C2210 H2226 0.931 . S
C2211 C2210 1.370 . S
C2211 C2215 1.408 . S
C2212 C2210 1.363 . S
C2212 C2213 1.370 . S
C2212 C2216 1.524 . S
C2213 C2205 1.503 . S
C2213 C2212 1.370 . S
C2213 C2214 1.403 . S
C2214 C2213 1.403 . S
C2214 C2215 1.404 . S
C2214 C2217 1.539 . S
C2215 C2211 1.408 . S
C2215 C2214 1.404 . S
C2215 H2227 0.930 . S
C2216 C2212 1.524 . S
C2216 H2228 0.956 . S
C2216 H2229 0.961 . S
C2216 H2230 0.961 . S
C2217 C2214 1.539 . S
C2217 H2231 0.958 . S
C2217 H2232 0.961 . S
C2217 H2233 0.960 . S
H2218 C2202 0.931 . S
H2219 C2207 0.929 . S
H2220 C2208 0.960 . S
H2221 C2208 0.962 . S
H2222 C2208 0.960 . S
H2223 C2209 0.961 . S
H2224 C2209 0.961 . S
H2225 C2209 0.961 . S
H2226 C2210 0.931 . S
H2227 C2215 0.930 . S
H2228 C2216 0.956 . S
H2229 C2216 0.961 . S
H2230 C2216 0.961 . S
H2231 C2217 0.958 . S
H2232 C2217 0.961 . S
H2233 C2217 0.960 . S
C2234 C2235 1.391 . S
C2234 C2236 1.394 . S
C2234 H2250 0.931 . S
C2235 C2234 1.391 . S
C2235 C2239 1.376 . S
C2236 C2234 1.394 . S
C2236 C2237 1.369 . S
C2236 C2240 1.531 . S
C2237 C2236 1.369 . S
C2237 C2238 1.410 . S
C2237 C2245 1.503 . S
C2238 C2237 1.410 . S
C2238 C2239 1.392 . S
C2238 C2241 1.511 . S
C2239 C2235 1.376 . S
C2239 C2238 1.392 . S
C2239 H2251 0.929 . S
C2240 C2236 1.531 . S
C2240 H2252 0.960 . S
C2240 H2253 0.962 . S
C2240 H2254 0.960 . S
C2241 C2238 1.511 . S
C2241 H2255 0.961 . S
C2241 H2256 0.961 . S
C2241 H2257 0.961 . S
C2242 C2243 1.370 . S
C2242 C2244 1.363 . S
C2242 H2258 0.931 . S
C2243 C2242 1.370 . S
C2243 C2247 1.408 . S
C2244 C2242 1.363 . S
C2244 C2245 1.370 . S
C2244 C2248 1.524 . S
C2245 C2237 1.503 . S
C2245 C2244 1.370 . S
C2245 C2246 1.403 . S
C2246 C2245 1.403 . S
C2246 C2247 1.404 . S
C2246 C2249 1.539 . S
C2247 C2243 1.408 . S
C2247 C2246 1.404 . S
C2247 H2259 0.930 . S
C2248 C2244 1.524 . S
C2248 H2260 0.956 . S
C2248 H2261 0.961 . S
C2248 H2262 0.961 . S
C2249 C2246 1.539 . S
C2249 H2263 0.958 . S
C2249 H2264 0.961 . S
C2249 H2265 0.960 . S
H2250 C2234 0.931 . S
H2251 C2239 0.929 . S
H2252 C2240 0.960 . S
H2253 C2240 0.962 . S
H2254 C2240 0.960 . S
H2255 C2241 0.961 . S
H2256 C2241 0.961 . S
H2257 C2241 0.961 . S
H2258 C2242 0.931 . S
H2259 C2247 0.930 . S
H2260 C2248 0.956 . S
H2261 C2248 0.961 . S
H2262 C2248 0.961 . S
H2263 C2249 0.958 . S
H2264 C2249 0.961 . S
H2265 C2249 0.960 . S
C2266 C2267 1.391 . S
C2266 C2268 1.394 . S
C2266 H2282 0.931 . S
C2267 C2266 1.391 . S
C2267 C2271 1.376 . S
C2268 C2266 1.394 . S
C2268 C2269 1.369 . S
C2268 C2272 1.531 . S
C2269 C2268 1.369 . S
C2269 C2270 1.410 . S
C2269 C2277 1.503 . S
C2270 C2269 1.410 . S
C2270 C2271 1.392 . S
C2270 C2273 1.511 . S
C2271 C2267 1.376 . S
C2271 C2270 1.392 . S
C2271 H2283 0.929 . S
C2272 C2268 1.531 . S
C2272 H2284 0.960 . S
C2272 H2285 0.962 . S
C2272 H2286 0.960 . S
C2273 C2270 1.511 . S
C2273 H2287 0.961 . S
C2273 H2288 0.961 . S
C2273 H2289 0.961 . S
C2274 C2275 1.370 . S
C2274 C2276 1.363 . S
C2274 H2290 0.931 . S
C2275 C2274 1.370 . S
C2275 C2279 1.408 . S
C2276 C2274 1.363 . S
C2276 C2277 1.370 . S
C2276 C2280 1.524 . S
C2277 C2269 1.503 . S
C2277 C2276 1.370 . S
C2277 C2278 1.403 . S
C2278 C2277 1.403 . S
C2278 C2279 1.404 . S
C2278 C2281 1.539 . S
C2279 C2275 1.408 . S
C2279 C2278 1.404 . S
C2279 H2291 0.930 . S
C2280 C2276 1.524 . S
C2280 H2292 0.956 . S
C2280 H2293 0.961 . S
C2280 H2294 0.961 . S
C2281 C2278 1.539 . S
C2281 H2295 0.958 . S
C2281 H2296 0.961 . S
C2281 H2297 0.960 . S
H2282 C2266 0.931 . S
H2283 C2271 0.929 . S
H2284 C2272 0.960 . S
H2285 C2272 0.962 . S
H2286 C2272 0.960 . S
H2287 C2273 0.961 . S
H2288 C2273 0.961 . S
H2289 C2273 0.961 . S
H2290 C2274 0.931 . S
H2291 C2279 0.930 . S
H2292 C2280 0.956 . S
H2293 C2280 0.961 . S
H2294 C2280 0.961 . S
H2295 C2281 0.958 . S
H2296 C2281 0.961 . S
H2297 C2281 0.960 . S
C2298 C2299 1.391 . S
C2298 C2300 1.394 . S
C2298 H2314 0.931 . S
C2299 C2298 1.391 . S
C2299 C2303 1.376 . S
C2300 C2298 1.394 . S
C2300 C2301 1.369 . S
C2300 C2304 1.531 . S
C2301 C2300 1.369 . S
C2301 C2302 1.410 . S
C2301 C2309 1.503 . S
C2302 C2301 1.410 . S
C2302 C2303 1.392 . S
C2302 C2305 1.511 . S
C2303 C2299 1.376 . S
C2303 C2302 1.392 . S
C2303 H2315 0.929 . S
C2304 C2300 1.531 . S
C2304 H2316 0.960 . S
C2304 H2317 0.962 . S
C2304 H2318 0.960 . S
C2305 C2302 1.511 . S
C2305 H2319 0.961 . S
C2305 H2320 0.961 . S
C2305 H2321 0.961 . S
C2306 C2307 1.370 . S
C2306 C2308 1.363 . S
C2306 H2322 0.931 . S
C2307 C2306 1.370 . S
C2307 C2311 1.408 . S
C2308 C2306 1.363 . S
C2308 C2309 1.370 . S
C2308 C2312 1.524 . S
C2309 C2301 1.503 . S
C2309 C2308 1.370 . S
C2309 C2310 1.403 . S
C2310 C2309 1.403 . S
C2310 C2311 1.404 . S
C2310 C2313 1.539 . S
C2311 C2307 1.408 . S
C2311 C2310 1.404 . S
C2311 H2323 0.930 . S
C2312 C2308 1.524 . S
C2312 H2324 0.956 . S
C2312 H2325 0.961 . S
C2312 H2326 0.961 . S
C2313 C2310 1.539 . S
C2313 H2327 0.958 . S
C2313 H2328 0.961 . S
C2313 H2329 0.960 . S
H2314 C2298 0.931 . S
H2315 C2303 0.929 . S
H2316 C2304 0.960 . S
H2317 C2304 0.962 . S
H2318 C2304 0.960 . S
H2319 C2305 0.961 . S
H2320 C2305 0.961 . S
H2321 C2305 0.961 . S
H2322 C2306 0.931 . S
H2323 C2311 0.930 . S
H2324 C2312 0.956 . S
H2325 C2312 0.961 . S
H2326 C2312 0.961 . S
H2327 C2313 0.958 . S
H2328 C2313 0.961 . S
H2329 C2313 0.960 . S
C2330 C2331 1.391 . S
C2330 C2332 1.394 . S
C2330 H2346 0.931 . S
C2331 C2330 1.391 . S
C2331 C2335 1.376 . S
C2332 C2330 1.394 . S
C2332 C2333 1.369 . S
C2332 C2336 1.531 . S
C2333 C2332 1.369 . S
C2333 C2334 1.410 . S
C2333 C2341 1.503 . S
C2334 C2333 1.410 . S
C2334 C2335 1.392 . S
C2334 C2337 1.511 . S
C2335 C2331 1.376 . S
C2335 C2334 1.392 . S
C2335 H2347 0.929 . S
C2336 C2332 1.531 . S
C2336 H2348 0.960 . S
C2336 H2349 0.962 . S
C2336 H2350 0.960 . S
C2337 C2334 1.511 . S
C2337 H2351 0.961 . S
C2337 H2352 0.961 . S
C2337 H2353 0.961 . S
C2338 C2339 1.370 . S
C2338 C2340 1.363 . S
C2338 H2354 0.931 . S
C2339 C2338 1.370 . S
C2339 C2343 1.408 . S
C2340 C2338 1.363 . S
C2340 C2341 1.370 . S
C2340 C2344 1.524 . S
C2341 C2333 1.503 . S
C2341 C2340 1.370 . S
C2341 C2342 1.403 . S
C2342 C2341 1.403 . S
C2342 C2343 1.404 . S
C2342 C2345 1.539 . S
C2343 C2339 1.408 . S
C2343 C2342 1.404 . S
C2343 H2355 0.930 . S
C2344 C2340 1.524 . S
C2344 H2356 0.956 . S
C2344 H2357 0.961 . S
C2344 H2358 0.961 . S
C2345 C2342 1.539 . S
C2345 H2359 0.958 . S
C2345 H2360 0.961 . S
C2345 H2361 0.960 . S
H2346 C2330 0.931 . S
H2347 C2335 0.929 . S
H2348 C2336 0.960 . S
H2349 C2336 0.962 . S
H2350 C2336 0.960 . S
H2351 C2337 0.961 . S
H2352 C2337 0.961 . S
H2353 C2337 0.961 . S
H2354 C2338 0.931 . S
H2355 C2343 0.930 . S
H2356 C2344 0.956 . S
H2357 C2344 0.961 . S
H2358 C2344 0.961 . S
H2359 C2345 0.958 . S
H2360 C2345 0.961 . S
H2361 C2345 0.960 . S
C2362 C2363 1.391 . S
C2362 C2364 1.394 . S
C2362 H2378 0.931 . S
C2363 C2362 1.391 . S
C2363 C2367 1.376 . S
C2364 C2362 1.394 . S
C2364 C2365 1.369 . S
C2364 C2368 1.531 . S
C2365 C2364 1.369 . S
C2365 C2366 1.410 . S
C2365 C2373 1.503 . S
C2366 C2365 1.410 . S
C2366 C2367 1.392 . S
C2366 C2369 1.511 . S
C2367 C2363 1.376 . S
C2367 C2366 1.392 . S
C2367 H2379 0.929 . S
C2368 C2364 1.531 . S
C2368 H2380 0.960 . S
C2368 H2381 0.962 . S
C2368 H2382 0.960 . S
C2369 C2366 1.511 . S
C2369 H2383 0.961 . S
C2369 H2384 0.961 . S
C2369 H2385 0.961 . S
C2370 C2371 1.370 . S
C2370 C2372 1.363 . S
C2370 H2386 0.931 . S
C2371 C2370 1.370 . S
C2371 C2375 1.408 . S
C2372 C2370 1.363 . S
C2372 C2373 1.370 . S
C2372 C2376 1.524 . S
C2373 C2365 1.503 . S
C2373 C2372 1.370 . S
C2373 C2374 1.403 . S
C2374 C2373 1.403 . S
C2374 C2375 1.404 . S
C2374 C2377 1.539 . S
C2375 C2371 1.408 . S
C2375 C2374 1.404 . S
C2375 H2387 0.930 . S
C2376 C2372 1.524 . S
C2376 H2388 0.956 . S
C2376 H2389 0.961 . S
C2376 H2390 0.961 . S
C2377 C2374 1.539 . S
C2377 H2391 0.958 . S
C2377 H2392 0.961 . S
C2377 H2393 0.960 . S
H2378 C2362 0.931 . S
H2379 C2367 0.929 . S
H2380 C2368 0.960 . S
H2381 C2368 0.962 . S
H2382 C2368 0.960 . S
H2383 C2369 0.961 . S
H2384 C2369 0.961 . S
H2385 C2369 0.961 . S
H2386 C2370 0.931 . S
H2387 C2375 0.930 . S
H2388 C2376 0.956 . S
H2389 C2376 0.961 . S
H2390 C2376 0.961 . S
H2391 C2377 0.958 . S
H2392 C2377 0.961 . S
H2393 C2377 0.960 . S
C867 C683 1.656 . S
C859 C74 1.623 . S
C899 C673 1.385 . S
C891 C153 1.304 . S
C931 C674 1.256 . S
C923 C231 1.213 . S
C955 C310 0.717 . S
C963 C696 0.615 . S
C987 C394 1.270 . S
C995 C699 1.398 . S
C1027 C682 1.240 . S
C1019 C494 1.274 . S
C1051 C573 0.850 . S
C1059 C672 0.573 . S
C1083 C651 1.661 . S
C1091 C690 1.658 . S
C1123 C703 2.447 . S
C1115 C56 2.531 . S
C1147 C151 1.609 . S
C1155 C752 1.574 . S
C1187 C730 1.427 . S
C1179 C237 1.405 . S
C1219 C744 1.237 . S
C1211 C326 1.258 . S
C1243 C410 1.248 . S
C1251 C705 1.213 . S
C1283 C758 2.458 . S
C1275 C476 2.538 . S
C1307 C571 1.615 . S
C1315 C714 1.586 . S
C1339 C657 1.303 . S
C1347 C735 1.407 . S
C1371 C58 1.330 . S
C1379 C761 1.405 . S
C1403 C392 1.607 . S
C1411 C745 1.566 . S
C1443 C704 1.414 . S
C1435 C478 1.336 . S
C1475 C736 1.244 . S
C1467 C567 1.239 . S
C1499 C655 2.534 . S
C1507 C727 2.460 . S
C1531 C235 2.538 . S
C1539 C734 2.458 . S
C1571 C721 1.572 . S
C1563 C308 1.600 . S
C1595 C147 1.251 . S
C1603 C713 1.210 . S
C1627 C662 1.646 . S
C1635 C776 1.660 . S
C1659 C405 1.277 . S
C1667 C766 1.403 . S
C1699 C767 1.261 . S
C1691 C483 1.237 . S
C1731 C789 0.616 . S
C1723 C562 0.748 . S
C1755 C142 1.276 . S
C1763 C792 1.389 . S
C1795 C775 1.261 . S
C1787 C242 1.224 . S
C1819 C321 0.845 . S
C1827 C765 0.526 . S
C1851 C63 1.646 . S
C1859 C783 1.645 . S
C1883 C644 2.533 . S
C1891 C796 2.460 . S
C1923 C845 1.561 . S
C1915 C403 1.599 . S
C1947 C489 1.336 . S
C1955 C823 1.410 . S
C1979 C578 1.204 . S
C1987 C837 1.239 . S
C2019 C798 1.217 . S
C2011 C158 1.243 . S
C2043 C224 2.545 . S
C2051 C851 2.441 . S
C2083 C807 1.584 . S
C2075 C319 1.613 . S
C2115 C828 1.390 . S
C2107 C69 1.289 . S
C2147 C854 1.393 . S
C2139 C646 1.293 . S
C2171 C140 1.603 . S
C2179 C838 1.560 . S
C2203 C226 1.403 . S
C2211 C797 1.424 . S
C2243 C829 1.226 . S
C2235 C315 1.205 . S
C2267 C67 2.533 . S
C2275 C820 2.445 . S
C2299 C487 2.537 . S
C2307 C827 2.453 . S
C2339 C814 1.570 . S
C2331 C560 1.598 . S
C2371 C806 1.213 . S
C2363 C399 1.243 . S
