# Generated by pormake.
# Topology gar, (4,6)-cn, num edge types: 1
# Building blocks:
#     Node 0, Type 0, BuildingBlock: NAHDIM_clean_sbu_0, # of connection points: 4
#     Node 1, Type 0, BuildingBlock: NAHDIM_clean_sbu_0, # of connection points: 4
#     Node 2, Type 0, BuildingBlock: NAHDIM_clean_sbu_0, # of connection points: 4
#     Node 3, Type 0, BuildingBlock: NAHDIM_clean_sbu_0, # of connection points: 4
#     Node 4, Type 0, BuildingBlock: NAHDIM_clean_sbu_0, # of connection points: 4
#     Node 5, Type 0, BuildingBlock: NAHDIM_clean_sbu_0, # of connection points: 4
#     Node 6, Type 0, BuildingBlock: NAHDIM_clean_sbu_0, # of connection points: 4
#     Node 7, Type 0, BuildingBlock: NAHDIM_clean_sbu_0, # of connection points: 4
#     Node 8, Type 0, BuildingBlock: NAHDIM_clean_sbu_0, # of connection points: 4
#     Node 9, Type 0, BuildingBlock: NAHDIM_clean_sbu_0, # of connection points: 4
#     Node 10, Type 0, BuildingBlock: NAHDIM_clean_sbu_0, # of connection points: 4
#     Node 11, Type 0, BuildingBlock: NAHDIM_clean_sbu_0, # of connection points: 4
#     Node 12, Type 0, BuildingBlock: NAHDIM_clean_sbu_0, # of connection points: 4
#     Node 13, Type 0, BuildingBlock: NAHDIM_clean_sbu_0, # of connection points: 4
#     Node 14, Type 0, BuildingBlock: NAHDIM_clean_sbu_0, # of connection points: 4
#     Node 15, Type 0, BuildingBlock: NAHDIM_clean_sbu_0, # of connection points: 4
#     Node 16, Type 0, BuildingBlock: NAHDIM_clean_sbu_0, # of connection points: 4
#     Node 17, Type 0, BuildingBlock: NAHDIM_clean_sbu_0, # of connection points: 4
#     Node 18, Type 0, BuildingBlock: NAHDIM_clean_sbu_0, # of connection points: 4
#     Node 19, Type 0, BuildingBlock: NAHDIM_clean_sbu_0, # of connection points: 4
#     Node 20, Type 0, BuildingBlock: NAHDIM_clean_sbu_0, # of connection points: 4
#     Node 21, Type 0, BuildingBlock: NAHDIM_clean_sbu_0, # of connection points: 4
#     Node 22, Type 0, BuildingBlock: NAHDIM_clean_sbu_0, # of connection points: 4
#     Node 23, Type 0, BuildingBlock: NAHDIM_clean_sbu_0, # of connection points: 4
#     Node 24, Type 1, BuildingBlock: NUHQIS_clean_sbu_0, # of connection points: 6
#     Node 25, Type 1, BuildingBlock: NUHQIS_clean_sbu_0, # of connection points: 6
#     Node 26, Type 1, BuildingBlock: NUHQIS_clean_sbu_0, # of connection points: 6
#     Node 27, Type 1, BuildingBlock: NUHQIS_clean_sbu_0, # of connection points: 6
#     Node 28, Type 1, BuildingBlock: NUHQIS_clean_sbu_0, # of connection points: 6
#     Node 29, Type 1, BuildingBlock: NUHQIS_clean_sbu_0, # of connection points: 6
#     Node 30, Type 1, BuildingBlock: NUHQIS_clean_sbu_0, # of connection points: 6
#     Node 31, Type 1, BuildingBlock: NUHQIS_clean_sbu_0, # of connection points: 6
#     Node 32, Type 1, BuildingBlock: NUHQIS_clean_sbu_0, # of connection points: 6
#     Node 33, Type 1, BuildingBlock: NUHQIS_clean_sbu_0, # of connection points: 6
#     Node 34, Type 1, BuildingBlock: NUHQIS_clean_sbu_0, # of connection points: 6
#     Node 35, Type 1, BuildingBlock: NUHQIS_clean_sbu_0, # of connection points: 6
#     Node 36, Type 1, BuildingBlock: NUHQIS_clean_sbu_0, # of connection points: 6
#     Node 37, Type 1, BuildingBlock: NUHQIS_clean_sbu_0, # of connection points: 6
#     Node 38, Type 1, BuildingBlock: NUHQIS_clean_sbu_0, # of connection points: 6
#     Node 39, Type 1, BuildingBlock: NUHQIS_clean_sbu_0, # of connection points: 6
#     Edge 40, Type (0, 1), BuildingBlock: EZIPEK_clean_linker_0, # of connection points: 2
#     Edge 41, Type (0, 1), BuildingBlock: EZIPEK_clean_linker_0, # of connection points: 2
#     Edge 42, Type (0, 1), BuildingBlock: EZIPEK_clean_linker_0, # of connection points: 2
#     Edge 43, Type (0, 1), BuildingBlock: EZIPEK_clean_linker_0, # of connection points: 2
#     Edge 44, Type (0, 1), BuildingBlock: EZIPEK_clean_linker_0, # of connection points: 2
#     Edge 45, Type (0, 1), BuildingBlock: EZIPEK_clean_linker_0, # of connection points: 2
#     Edge 46, Type (0, 1), BuildingBlock: EZIPEK_clean_linker_0, # of connection points: 2
#     Edge 47, Type (0, 1), BuildingBlock: EZIPEK_clean_linker_0, # of connection points: 2
#     Edge 48, Type (0, 1), BuildingBlock: EZIPEK_clean_linker_0, # of connection points: 2
#     Edge 49, Type (0, 1), BuildingBlock: EZIPEK_clean_linker_0, # of connection points: 2
#     Edge 50, Type (0, 1), BuildingBlock: EZIPEK_clean_linker_0, # of connection points: 2
#     Edge 51, Type (0, 1), BuildingBlock: EZIPEK_clean_linker_0, # of connection points: 2
#     Edge 52, Type (0, 1), BuildingBlock: EZIPEK_clean_linker_0, # of connection points: 2
#     Edge 53, Type (0, 1), BuildingBlock: EZIPEK_clean_linker_0, # of connection points: 2
#     Edge 54, Type (0, 1), BuildingBlock: EZIPEK_clean_linker_0, # of connection points: 2
#     Edge 55, Type (0, 1), BuildingBlock: EZIPEK_clean_linker_0, # of connection points: 2
#     Edge 56, Type (0, 1), BuildingBlock: EZIPEK_clean_linker_0, # of connection points: 2
#     Edge 57, Type (0, 1), BuildingBlock: EZIPEK_clean_linker_0, # of connection points: 2
#     Edge 58, Type (0, 1), BuildingBlock: EZIPEK_clean_linker_0, # of connection points: 2
#     Edge 59, Type (0, 1), BuildingBlock: EZIPEK_clean_linker_0, # of connection points: 2
#     Edge 60, Type (0, 1), BuildingBlock: EZIPEK_clean_linker_0, # of connection points: 2
#     Edge 61, Type (0, 1), BuildingBlock: EZIPEK_clean_linker_0, # of connection points: 2
#     Edge 62, Type (0, 1), BuildingBlock: EZIPEK_clean_linker_0, # of connection points: 2
#     Edge 63, Type (0, 1), BuildingBlock: EZIPEK_clean_linker_0, # of connection points: 2
#     Edge 64, Type (0, 1), BuildingBlock: EZIPEK_clean_linker_0, # of connection points: 2
#     Edge 65, Type (0, 1), BuildingBlock: EZIPEK_clean_linker_0, # of connection points: 2
#     Edge 66, Type (0, 1), BuildingBlock: EZIPEK_clean_linker_0, # of connection points: 2
#     Edge 67, Type (0, 1), BuildingBlock: EZIPEK_clean_linker_0, # of connection points: 2
#     Edge 68, Type (0, 1), BuildingBlock: EZIPEK_clean_linker_0, # of connection points: 2
#     Edge 69, Type (0, 1), BuildingBlock: EZIPEK_clean_linker_0, # of connection points: 2
#     Edge 70, Type (0, 1), BuildingBlock: EZIPEK_clean_linker_0, # of connection points: 2
#     Edge 71, Type (0, 1), BuildingBlock: EZIPEK_clean_linker_0, # of connection points: 2
#     Edge 72, Type (0, 1), BuildingBlock: EZIPEK_clean_linker_0, # of connection points: 2
#     Edge 73, Type (0, 1), BuildingBlock: EZIPEK_clean_linker_0, # of connection points: 2
#     Edge 74, Type (0, 1), BuildingBlock: EZIPEK_clean_linker_0, # of connection points: 2
#     Edge 75, Type (0, 1), BuildingBlock: EZIPEK_clean_linker_0, # of connection points: 2
#     Edge 76, Type (0, 1), BuildingBlock: EZIPEK_clean_linker_0, # of connection points: 2
#     Edge 77, Type (0, 1), BuildingBlock: EZIPEK_clean_linker_0, # of connection points: 2
#     Edge 78, Type (0, 1), BuildingBlock: EZIPEK_clean_linker_0, # of connection points: 2
#     Edge 79, Type (0, 1), BuildingBlock: EZIPEK_clean_linker_0, # of connection points: 2
#     Edge 80, Type (0, 1), BuildingBlock: EZIPEK_clean_linker_0, # of connection points: 2
#     Edge 81, Type (0, 1), BuildingBlock: EZIPEK_clean_linker_0, # of connection points: 2
#     Edge 82, Type (0, 1), BuildingBlock: EZIPEK_clean_linker_0, # of connection points: 2
#     Edge 83, Type (0, 1), BuildingBlock: EZIPEK_clean_linker_0, # of connection points: 2
#     Edge 84, Type (0, 1), BuildingBlock: EZIPEK_clean_linker_0, # of connection points: 2
#     Edge 85, Type (0, 1), BuildingBlock: EZIPEK_clean_linker_0, # of connection points: 2
#     Edge 86, Type (0, 1), BuildingBlock: EZIPEK_clean_linker_0, # of connection points: 2
#     Edge 87, Type (0, 1), BuildingBlock: EZIPEK_clean_linker_0, # of connection points: 2
#     Edge 88, Type (0, 1), BuildingBlock: EZIPEK_clean_linker_0, # of connection points: 2
#     Edge 89, Type (0, 1), BuildingBlock: EZIPEK_clean_linker_0, # of connection points: 2
#     Edge 90, Type (0, 1), BuildingBlock: EZIPEK_clean_linker_0, # of connection points: 2
#     Edge 91, Type (0, 1), BuildingBlock: EZIPEK_clean_linker_0, # of connection points: 2
#     Edge 92, Type (0, 1), BuildingBlock: EZIPEK_clean_linker_0, # of connection points: 2
#     Edge 93, Type (0, 1), BuildingBlock: EZIPEK_clean_linker_0, # of connection points: 2
#     Edge 94, Type (0, 1), BuildingBlock: EZIPEK_clean_linker_0, # of connection points: 2
#     Edge 95, Type (0, 1), BuildingBlock: EZIPEK_clean_linker_0, # of connection points: 2
#     Edge 96, Type (0, 1), BuildingBlock: EZIPEK_clean_linker_0, # of connection points: 2
#     Edge 97, Type (0, 1), BuildingBlock: EZIPEK_clean_linker_0, # of connection points: 2
#     Edge 98, Type (0, 1), BuildingBlock: EZIPEK_clean_linker_0, # of connection points: 2
#     Edge 99, Type (0, 1), BuildingBlock: EZIPEK_clean_linker_0, # of connection points: 2
#     Edge 100, Type (0, 1), BuildingBlock: EZIPEK_clean_linker_0, # of connection points: 2
#     Edge 101, Type (0, 1), BuildingBlock: EZIPEK_clean_linker_0, # of connection points: 2
#     Edge 102, Type (0, 1), BuildingBlock: EZIPEK_clean_linker_0, # of connection points: 2
#     Edge 103, Type (0, 1), BuildingBlock: EZIPEK_clean_linker_0, # of connection points: 2
#     Edge 104, Type (0, 1), BuildingBlock: EZIPEK_clean_linker_0, # of connection points: 2
#     Edge 105, Type (0, 1), BuildingBlock: EZIPEK_clean_linker_0, # of connection points: 2
#     Edge 106, Type (0, 1), BuildingBlock: EZIPEK_clean_linker_0, # of connection points: 2
#     Edge 107, Type (0, 1), BuildingBlock: EZIPEK_clean_linker_0, # of connection points: 2
#     Edge 108, Type (0, 1), BuildingBlock: EZIPEK_clean_linker_0, # of connection points: 2
#     Edge 109, Type (0, 1), BuildingBlock: EZIPEK_clean_linker_0, # of connection points: 2
#     Edge 110, Type (0, 1), BuildingBlock: EZIPEK_clean_linker_0, # of connection points: 2
#     Edge 111, Type (0, 1), BuildingBlock: EZIPEK_clean_linker_0, # of connection points: 2
#     Edge 112, Type (0, 1), BuildingBlock: EZIPEK_clean_linker_0, # of connection points: 2
#     Edge 113, Type (0, 1), BuildingBlock: EZIPEK_clean_linker_0, # of connection points: 2
#     Edge 114, Type (0, 1), BuildingBlock: EZIPEK_clean_linker_0, # of connection points: 2
#     Edge 115, Type (0, 1), BuildingBlock: EZIPEK_clean_linker_0, # of connection points: 2
#     Edge 116, Type (0, 1), BuildingBlock: EZIPEK_clean_linker_0, # of connection points: 2
#     Edge 117, Type (0, 1), BuildingBlock: EZIPEK_clean_linker_0, # of connection points: 2
#     Edge 118, Type (0, 1), BuildingBlock: EZIPEK_clean_linker_0, # of connection points: 2
#     Edge 119, Type (0, 1), BuildingBlock: EZIPEK_clean_linker_0, # of connection points: 2
#     Edge 120, Type (0, 1), BuildingBlock: EZIPEK_clean_linker_0, # of connection points: 2
#     Edge 121, Type (0, 1), BuildingBlock: EZIPEK_clean_linker_0, # of connection points: 2
#     Edge 122, Type (0, 1), BuildingBlock: EZIPEK_clean_linker_0, # of connection points: 2
#     Edge 123, Type (0, 1), BuildingBlock: EZIPEK_clean_linker_0, # of connection points: 2
#     Edge 124, Type (0, 1), BuildingBlock: EZIPEK_clean_linker_0, # of connection points: 2
#     Edge 125, Type (0, 1), BuildingBlock: EZIPEK_clean_linker_0, # of connection points: 2
#     Edge 126, Type (0, 1), BuildingBlock: EZIPEK_clean_linker_0, # of connection points: 2
#     Edge 127, Type (0, 1), BuildingBlock: EZIPEK_clean_linker_0, # of connection points: 2
#     Edge 128, Type (0, 1), BuildingBlock: EZIPEK_clean_linker_0, # of connection points: 2
#     Edge 129, Type (0, 1), BuildingBlock: EZIPEK_clean_linker_0, # of connection points: 2
#     Edge 130, Type (0, 1), BuildingBlock: EZIPEK_clean_linker_0, # of connection points: 2
#     Edge 131, Type (0, 1), BuildingBlock: EZIPEK_clean_linker_0, # of connection points: 2
#     Edge 132, Type (0, 1), BuildingBlock: EZIPEK_clean_linker_0, # of connection points: 2
#     Edge 133, Type (0, 1), BuildingBlock: EZIPEK_clean_linker_0, # of connection points: 2
#     Edge 134, Type (0, 1), BuildingBlock: EZIPEK_clean_linker_0, # of connection points: 2
#     Edge 135, Type (0, 1), BuildingBlock: EZIPEK_clean_linker_0, # of connection points: 2
# Relax obj value: 0.317
# Max RMSD: 0.374
# Mean RMSD: 0.175
data_MOF--net-gar--node1-NAHDIM_clean_sbu_0--node2-NUHQIS_clean_sbu_0--edge1-EZIPEK_clean_linker_0
_symmetry_space_group_name_H-M    P1
_symmetry_Int_Tables_number       1
_symmetry_cell_setting            triclinic
loop_
_symmetry_equiv_pos_as_xyz
'x, y, z'
_cell_length_a     43.519122
_cell_length_b     45.072553
_cell_length_c     41.702121
_cell_angle_alpha  93.23612
_cell_angle_beta   98.125457
_cell_angle_gamma 101.08081
loop_
_atom_site_label
_atom_site_type_symbol
_atom_site_fract_x
_atom_site_fract_y
_atom_site_fract_z
_atom_type_partial_charge
C0 C 0.17447 0.31572 0.39782 0.0
O1 O 0.18391 0.30659 0.42623 0.0
O2 O 0.10547 0.27216 0.45134 0.0
Zn3 Zn 0.10527 0.31734 0.42459 0.0
O4 O 0.1096 0.36356 0.45586 0.0
C5 C 1.03316 0.32094 0.39838 0.0
O6 O 1.03407 0.33435 0.42739 0.0
O7 O 0.14571 0.32116 0.39276 0.0
C8 C 0.10253 0.38936 0.44709 0.0
O9 O 0.09167 0.39025 0.41622 0.0
C10 C 0.08357 0.24854 0.45508 0.0
O11 O 0.05414 0.24973 0.44369 0.0
O12 O 0.05854 0.31209 0.39206 0.0
C13 C 1.00864 0.82791 0.6931 0.0
O14 O 0.99807 0.83366 0.66349 0.0
O15 O 0.07257 0.77513 0.64077 0.0
Zn16 Zn 0.07818 0.82435 0.66679 0.0
O17 O 0.07947 0.86691 0.63571 0.0
C18 C 0.15272 0.83099 0.69244 0.0
O19 O 0.15569 0.83088 0.66154 0.0
O20 O 1.03792 0.82381 0.69874 0.0
C21 C 0.09294 0.89583 0.64233 0.0
O22 O 0.10991 0.90381 0.67122 0.0
C23 C 0.09231 0.76056 0.62853 0.0
O24 O 0.12074 0.77632 0.6273 0.0
O25 O 0.12453 0.82974 0.69987 0.0
C26 C 0.67396 0.82966 0.89533 0.0
O27 O 0.68754 0.84636 0.92226 0.0
O28 O 0.60481 0.77225 0.95279 0.0
Zn29 Zn 0.60465 0.81754 0.92614 0.0
O30 O 0.61087 0.86386 0.95768 0.0
C31 C 0.5315 0.81967 0.90413 0.0
O32 O 0.53191 0.82646 0.93526 0.0
O33 O 0.64359 0.81798 0.89276 0.0
C34 C 0.60272 0.88933 0.94929 0.0
O35 O 0.5901 0.88966 0.91882 0.0
C36 C 0.58323 0.74886 0.9578 0.0
O37 O 0.55351 0.75034 0.94828 0.0
O38 O 0.55747 0.81443 0.8951 0.0
C39 C 0.51464 0.33254 0.19846 0.0
O40 O 0.50985 0.35079 0.17563 0.0
O41 O 0.57478 0.27394 0.14243 0.0
Zn42 Zn 0.58028 0.32325 0.16772 0.0
O43 O 0.58031 0.36636 0.137 0.0
C44 C 0.65489 0.33033 0.19129 0.0
O45 O 0.65715 0.33263 0.16041 0.0
O46 O 0.53989 0.32055 0.19936 0.0
C47 C 0.59566 0.3949 0.14217 0.0
O48 O 0.61651 0.40215 0.16881 0.0
C49 C 0.59552 0.25834 0.13419 0.0
O50 O 0.62497 0.27312 0.13685 0.0
O51 O 0.62699 0.32803 0.1997 0.0
C52 C 0.12233 0.93584 0.18979 0.0
O53 O 0.11427 0.93084 0.15814 0.0
O54 O 0.1737 0.87711 0.17119 0.0
Zn55 Zn 0.18113 0.92297 0.1758 0.0
O56 O 0.17428 0.94068 0.13247 0.0
C57 C 0.24355 0.91879 0.19932 0.0
O58 O 0.23753 0.89862 0.17411 0.0
O59 O 0.1504 0.93527 0.20268 0.0
C60 C 0.16037 0.92507 0.10622 0.0
O61 O 0.1538 0.89537 0.10508 0.0
C62 C 0.14766 0.85819 0.16318 0.0
O63 O 0.12112 0.86793 0.15636 0.0
O64 O 0.22439 0.93635 0.20256 0.0
C65 C 0.58401 0.75415 0.39992 0.0
O66 O 0.58521 0.77398 0.4246 0.0
O67 O 0.54129 0.71506 0.46058 0.0
Zn68 Zn 0.5252 0.73125 0.41834 0.0
O69 O 0.5199 0.77396 0.42621 0.0
C70 C 0.45938 0.71386 0.39451 0.0
O71 O 0.45874 0.73039 0.42118 0.0
O72 O 0.55963 0.73325 0.39177 0.0
C73 C 0.50828 0.78769 0.40314 0.0
O74 O 0.49757 0.77308 0.37439 0.0
C75 C 0.55563 0.73311 0.48509 0.0
O76 O 0.55778 0.76247 0.48406 0.0
O77 O 0.48566 0.70747 0.39008 0.0
C78 C 0.61655 0.4162 0.70911 0.0
O79 O 0.60635 0.4131 0.6777 0.0
O80 O 0.66697 0.37634 0.66955 0.0
Zn81 Zn 0.67469 0.41945 0.68642 0.0
O82 O 0.66122 0.44248 0.64948 0.0
C83 C 0.72708 0.4378 0.73811 0.0
O84 O 0.70653 0.44885 0.75298 0.0
O85 O 0.64605 0.4209 0.71942 0.0
C86 C 0.67785 0.46005 0.63304 0.0
O87 O 0.70891 0.4648 0.63953 0.0
C88 C 0.68727 0.36676 0.65495 0.0
O89 O 0.71279 0.38567 0.64995 0.0
O90 O 0.72015 0.42934 0.70795 0.0
C91 C 0.07578 0.25599 0.90977 0.0
O92 O 0.07998 0.27397 0.93659 0.0
O93 O 1.02714 0.20882 0.96761 0.0
Zn94 Zn 1.01709 0.23398 0.9308 0.0
O95 O 1.01854 0.27683 0.94672 0.0
C96 C 0.97234 0.21406 0.87257 0.0
O97 O 0.99566 0.20426 0.8614 0.0
O98 O 0.05061 0.23587 0.90228 0.0
C99 C 0.99374 0.28654 0.95069 0.0
O100 O 0.96625 0.26768 0.94763 0.0
C101 C 0.04556 0.22163 0.99311 0.0
O102 O 0.05486 0.25127 0.99649 0.0
O103 O 0.97459 0.22145 0.90278 0.0
C104 C 0.50866 0.15965 0.28617 0.0
O105 O 0.5273 0.15268 0.26599 0.0
O106 O 0.59086 0.15566 0.30845 0.0
Zn107 Zn 0.55979 0.15599 0.33961 0.0
O108 O 0.57708 0.19207 0.37268 0.0
C109 C 0.55812 0.09144 0.34542 0.0
O110 O 0.57908 0.09507 0.32548 0.0
O111 O 0.51829 0.16263 0.31662 0.0
C112 C 0.58941 0.19309 0.40228 0.0
O113 O 0.60056 0.21961 0.41872 0.0
C114 C 0.61784 0.17338 0.31139 0.0
O115 O 0.62668 0.19486 0.33535 0.0
O116 O 0.54842 0.11436 0.35622 0.0
C117 C 0.43129 0.17059 0.55442 0.0
O118 O 0.44355 0.19709 0.57047 0.0
O119 O 0.36586 0.21772 0.59288 0.0
Zn120 Zn 0.36148 0.19273 0.54349 0.0
O121 O 0.36383 0.22339 0.50167 0.0
C122 C 0.28705 0.16748 0.54405 0.0
O123 O 0.28606 0.19587 0.5518 0.0
O124 O 0.40098 0.16501 0.5429 0.0
C125 C 0.35338 0.21771 0.47058 0.0
O126 O 0.33787 0.19007 0.46031 0.0
C127 C 0.35212 0.23873 0.60341 0.0
O128 O 0.33308 0.2499 0.58225 0.0
O129 O 0.31396 0.16137 0.53863 0.0
C130 C 0.33492 0.05951 0.92279 0.0
O131 O 0.3318 0.07672 0.89902 0.0
O132 O 0.2711 0.09262 0.84516 0.0
Zn133 Zn 0.29304 0.10095 0.89136 0.0
O134 O 0.2584 0.09016 0.91751 0.0
C135 C 0.29194 0.16137 0.88417 0.0
O136 O 0.26206 0.14876 0.87433 0.0
O137 O 0.33054 0.07679 0.89988 0.0
C138 C 0.25396 0.10639 0.94154 0.0
O139 O 0.27538 0.13061 0.95352 0.0
C140 C 0.24664 0.07173 0.83702 0.0
O141 O 0.23786 0.05235 0.85797 0.0
O142 O 0.31088 0.14533 0.89626 0.0
C143 C 0.3371 0.95336 0.09611 0.0
O144 O 0.3525 0.94474 0.12216 0.0
O145 O 0.36758 0.88876 0.10477 0.0
Zn146 Zn 0.36869 0.91275 0.06469 0.0
O147 O 0.35585 0.88647 0.02118 0.0
C148 C 0.42898 0.95315 0.09122 0.0
O149 O 0.41992 0.94878 0.11961 0.0
O150 O 0.33934 0.94209 0.06808 0.0
C151 C 0.35327 0.89953 0.99484 0.0
O152 O 0.35795 0.92929 0.99642 0.0
C153 C 0.38343 0.86909 0.11443 0.0
O154 O 0.40318 0.8605 0.09648 0.0
O155 O 0.4119 0.9391 0.06552 0.0
C156 C 0.24972 0.47714 0.03318 0.0
O157 O 0.24041 0.45487 1.01008 0.0
O158 O 0.3218 0.43107 0.09884 0.0
Zn159 Zn 0.31922 0.45364 0.05097 0.0
O160 O 0.31601 0.42176 1.00635 0.0
C161 C 0.39311 0.47894 0.04807 0.0
O162 O 0.39418 0.45025 0.04237 0.0
O163 O 0.27816 0.47994 0.04981 0.0
C164 C 0.3233 0.42909 0.97822 0.0
O165 O 0.33177 0.45811 0.97451 0.0
C166 C 0.31332 0.40376 0.10768 0.0
O167 O 0.30006 0.38205 0.08476 0.0
O168 O 0.36609 0.48551 0.05246 0.0
C169 C 0.87898 0.19495 1.0128 0.0
O170 O 0.88306 0.21954 0.99715 0.0
O171 O 0.82737 0.23935 0.07611 0.0
Zn172 Zn 0.82442 0.21698 0.03048 0.0
O173 O 0.82822 0.24263 0.99148 0.0
C174 C 0.75704 0.19152 0.02953 0.0
O175 O 0.75642 0.21779 0.04448 0.0
O176 O 0.85701 0.19022 0.03017 0.0
C177 C 0.81228 0.26167 0.98016 0.0
O178 O 0.79055 0.26938 0.99597 0.0
C179 C 0.85211 0.24579 0.09773 0.0
O180 O 0.87897 0.24027 0.09041 0.0
O181 O 0.78264 0.18696 0.02073 0.0
C182 C 0.20706 0.48709 0.23512 0.0
O183 O 0.19831 0.50523 0.21362 0.0
O184 O 0.12154 0.47889 0.20402 0.0
Zn185 Zn 0.14199 0.47706 0.24971 0.0
O186 O 0.11878 0.43977 0.26737 0.0
C187 C 0.15047 0.54062 0.2584 0.0
O188 O 0.14978 0.53622 0.22693 0.0
O189 O 0.18701 0.47252 0.25088 0.0
C190 C 0.10095 0.43856 0.28903 0.0
O191 O 0.08701 0.41203 0.29679 0.0
C192 C 0.09627 0.4616 0.18958 0.0
O193 O 0.08196 0.43879 0.20378 0.0
O194 O 0.14475 0.51778 0.27486 0.0
C195 C 0.74802 0.9719 0.53591 0.0
O196 O 0.73596 0.94278 0.52948 0.0
O197 O 0.82354 0.92935 0.59195 0.0
Zn198 Zn 0.81919 0.95344 0.54504 0.0
O199 O 0.81308 0.92391 0.49836 0.0
C200 C 0.89388 0.98151 0.55777 0.0
O201 O 0.89557 0.95887 0.57602 0.0
O202 O 0.77889 0.98009 0.54262 0.0
C203 C 0.83322 0.92544 0.47794 0.0
O204 O 0.86018 0.94501 0.4858 0.0
C205 C 0.80402 0.9113 0.60677 0.0
O206 O 0.77437 0.90329 0.59265 0.0
O207 O 0.86594 0.98437 0.54435 0.0
C208 C 0.87126 0.06176 0.20594 0.0
O209 O 0.87276 0.04376 0.22953 0.0
O210 O 0.93923 0.02863 0.14966 0.0
Zn211 Zn 0.91221 0.02608 0.18484 0.0
O212 O 0.94355 0.03465 0.22673 0.0
C213 C 0.85531 0.97691 0.17572 0.0
O214 O 0.8401 0.99489 0.15898 0.0
O215 O 0.88603 0.05833 0.18227 0.0
C216 C 0.95138 1.01305 0.24224 0.0
O217 O 0.9378 0.98483 0.23217 0.0
C218 C 0.96088 1.01322 0.15197 0.0
O219 O 0.96032 0.99202 0.1723 0.0
O220 O 0.88471 0.98519 0.18633 0.0
C221 C 0.38854 0.70796 0.53896 0.0
O222 O 0.40138 0.73296 0.55765 0.0
O223 O 0.34199 0.74247 0.59031 0.0
Zn224 Zn 0.3289 0.72705 0.54219 0.0
O225 O 0.3292 0.76011 0.51093 0.0
C226 C 0.26454 0.69818 0.55094 0.0
O227 O 0.26766 0.71957 0.57456 0.0
O228 O 0.35883 0.70137 0.52983 0.0
C229 C 0.32457 0.75064 0.48094 0.0
O230 O 0.31851 0.72131 0.47272 0.0
C231 C 0.33367 0.76512 0.60368 0.0
O232 O 0.31664 0.78102 0.58584 0.0
O233 O 0.28675 0.6978 0.53435 0.0
C234 C 0.40954 0.59449 0.6928 0.0
O235 O 0.44045 0.60333 0.6996 0.0
O236 O 0.44978 0.53691 0.64674 0.0
Zn237 Zn 0.42541 0.53657 0.68427 0.0
O238 O 0.45779 0.54958 0.72538 0.0
C239 C 0.40231 0.47104 0.69039 0.0
O240 O 0.42863 0.46591 0.68135 0.0
O241 O 0.39769 0.56718 0.68212 0.0
C242 C 0.46928 0.53142 0.74353 0.0
O243 O 0.45988 0.50204 0.7369 0.0
C244 C 0.4743 0.52524 0.65015 0.0
O245 O 0.4796 0.51101 0.67625 0.0
O246 O 0.39605 0.49734 0.68959 0.0
C247 C 0.67948 0.98921 0.7675 0.0
O248 O 0.68321 0.99448 0.73751 0.0
O249 O 0.59471 0.95669 0.71875 0.0
Zn250 Zn 0.61787 0.99715 0.74259 0.0
O251 O 0.58731 1.01433 0.76617 0.0
C252 C 0.62933 0.05254 0.70819 0.0
O253 O 0.59865 0.05089 0.70504 0.0
O254 O 0.6526 0.98878 0.77632 0.0
C255 C 0.55925 1.01591 0.75406 0.0
O256 O 0.548 1.00607 0.72373 0.0
C257 C 0.58044 0.95022 0.68973 0.0
O258 O 0.56667 0.92197 0.68002 0.0
O259 O 0.6408 0.03039 0.71851 0.0
C260 C 0.9279 0.66988 0.05375 0.0
O261 O 0.93725 0.69144 0.0776 0.0
O262 O 0.86809 0.7214 0.08818 0.0
Zn263 Zn 0.86092 0.69604 0.03897 0.0
O264 O 0.86382 0.72712 0.99762 0.0
C265 C 0.78847 0.66891 0.04894 0.0
O266 O 0.79177 0.69323 0.06898 0.0
O267 O 0.89973 0.66788 0.03691 0.0
C268 C 0.85106 0.72283 0.96704 0.0
O269 O 0.83213 0.69658 0.95702 0.0
C270 C 0.85859 0.74536 0.09836 0.0
O271 O 0.84309 0.75944 0.07679 0.0
O272 O 0.81234 0.6657 0.03434 0.0
C273 C 1.00919 0.67924 0.81551 0.0
O274 O 1.02891 0.70525 0.81543 0.0
O275 O 0.09126 0.65817 0.83187 0.0
Zn276 Zn 0.05954 0.66247 0.86105 0.0
O277 O 0.07204 0.70411 0.88544 0.0
C278 C 0.04506 0.60172 0.86819 0.0
O279 O 0.04813 0.60352 0.83746 0.0
O280 O 1.01778 0.65879 0.8322 0.0
C281 C 0.08437 0.71141 0.91496 0.0
O282 O 0.09123 0.74017 0.92594 0.0
C283 C 0.10973 0.68034 0.8227 0.0
O284 O 0.11009 0.70826 0.83384 0.0
O285 O 0.05137 0.626 0.88712 0.0
C286 C 0.83468 0.46187 0.58792 0.0
O287 O 0.85598 0.45613 0.61103 0.0
O288 O 0.86092 0.3951 0.59521 0.0
Zn289 Zn 0.85956 0.41786 0.55354 0.0
O290 O 0.84337 0.3905 0.51029 0.0
C291 C 0.92239 0.45923 0.57207 0.0
O292 O 0.91784 0.45741 0.6024 0.0
O293 O 0.83076 0.44763 0.55988 0.0
C294 C 0.85364 0.39891 0.48429 0.0
O295 O 0.87364 0.42494 0.48557 0.0
C296 C 0.88302 0.384 0.61043 0.0
O297 O 0.90909 0.38402 0.59792 0.0
O298 O 0.90206 0.44393 0.54929 0.0
C299 C 0.79408 0.5865 0.35508 0.0
O300 O 0.76378 0.58673 0.34761 0.0
O301 O 0.76526 0.65069 0.34344 0.0
Zn302 Zn 0.79362 0.64414 0.38324 0.0
O303 O 0.766 0.63327 0.4166 0.0
C304 C 0.85185 0.68421 0.38289 0.0
O305 O 0.85541 0.66058 0.36496 0.0
O306 O 0.81255 0.60894 0.37186 0.0
C307 C 0.75595 0.65294 0.43292 0.0
O308 O 0.76622 0.68195 0.43037 0.0
C309 C 0.75841 0.67591 0.33637 0.0
O310 O 0.77066 0.70066 0.35567 0.0
O311 O 0.82673 0.68186 0.39561 0.0
Tb312 Tb 0.07446 0.06003 0.01682 0.0
Eu313 Eu 0.13633 0.08209 0.07468 0.0
C314 C 0.1413 0.08128 0.9981 0.0
C315 C 0.11952 1.01527 0.03796 0.0
C316 C 0.9987 0.06958 0.97765 0.0
C317 C 0.98596 0.11972 0.98351 0.0
C318 C 1.00775 0.10143 0.97915 0.0
C319 C 0.96711 0.05648 0.97977 0.0
C320 C 0.94523 0.07491 0.98421 0.0
C321 C 0.95479 0.10665 0.98674 0.0
C322 C 1.02303 0.05064 0.97846 0.0
O323 O 0.05823 0.06724 0.0628 0.0
O324 O 0.09783 0.05358 0.09671 0.0
O325 O 0.10844 0.11925 0.07597 0.0
O326 O 0.08619 0.10919 0.02221 0.0
C327 C 0.06806 0.05506 0.089 0.0
O328 O 0.16332 0.07468 0.12072 0.0
O329 O 0.18199 0.11177 0.09373 0.0
O330 O 0.15044 0.09598 0.02704 0.0
O331 O 0.11427 0.06176 0.99064 0.0
O332 O 0.09002 1.01829 0.02951 0.0
O333 O 0.14196 0.03878 0.04943 0.0
C334 C 0.09328 0.127 0.04926 0.0
O335 O 0.05007 0.06334 0.97037 0.0
O336 O 1.0271 0.03638 1.00461 0.0
C337 C 0.21642 0.08068 0.11452 0.0
C338 C 0.26166 0.04415 0.11146 0.0
C339 C 0.25979 0.05966 0.14112 0.0
C340 C 0.23697 0.07761 0.1427 0.0
C341 C 0.21978 0.06665 0.08462 0.0
C342 C 0.24218 0.04852 0.08313 0.0
C343 C 0.18844 0.09409 0.11641 0.0
H344 H 0.99356 0.14415 0.98501 0.0
H345 H 1.03196 0.11238 0.97802 0.0
H346 H 0.95966 0.03206 0.97911 0.0
H347 H 0.92114 0.06451 0.98654 0.0
H348 H 0.27483 0.0566 0.16318 0.0
H349 H 0.23448 0.08798 0.16601 0.0
H350 H 0.20409 0.06859 0.06257 0.0
H351 H 0.24373 0.03713 0.06003 0.0
Tb352 Tb 0.38261 0.84159 0.31927 0.0
Eu353 Eu 0.31601 0.79034 0.28524 0.0
C354 C 0.32296 0.86464 0.28494 0.0
C355 C 0.33624 0.8072 0.36252 0.0
C356 C 0.44962 0.90998 0.34545 0.0
C357 C 0.46233 0.96308 0.36717 0.0
C358 C 0.44436 0.93368 0.36615 0.0
C359 C 0.47331 0.91651 0.32567 0.0
C360 C 0.49118 0.94603 0.32657 0.0
C361 C 0.48589 0.96945 0.34744 0.0
C362 C 0.43215 0.87841 0.34675 0.0
O363 O 0.39276 0.79655 0.32701 0.0
O364 O 0.35188 0.7614 0.29597 0.0
O365 O 0.34019 0.80439 0.2429 0.0
O366 O 0.38243 0.84254 0.26667 0.0
C367 C 0.37901 0.76856 0.31559 0.0
O368 O 0.28854 0.75332 0.2506 0.0
O369 O 0.26539 0.77492 0.28555 0.0
O370 O 0.30526 0.83713 0.28182 0.0
O371 O 0.3528 0.87116 0.29853 0.0
O372 O 0.35264 0.83352 0.35698 0.0
O373 O 0.32289 0.78631 0.339 0.0
C374 C 0.3642 0.82654 0.24099 0.0
O375 O 0.40459 0.87537 0.35637 0.0
O376 O 0.43189 0.85818 0.32295 0.0
C377 C 0.24461 0.72253 0.26852 0.0
C378 C 0.2096 0.66471 0.27686 0.0
C379 C 0.21905 0.67113 0.24678 0.0
C380 C 0.23625 0.6998 0.24261 0.0
C381 C 0.23499 0.71616 0.2987 0.0
C382 C 0.21743 0.68747 0.30276 0.0
C383 C 0.26255 0.75273 0.26306 0.0
H384 H 0.45788 0.98089 0.38336 0.0
H385 H 0.42666 0.92943 0.38208 0.0
H386 H 0.47832 0.89876 0.30981 0.0
H387 H 0.50925 0.95061 0.31109 0.0
H388 H 0.21302 0.65389 0.22647 0.0
H389 H 0.24303 0.70424 0.21904 0.0
H390 H 0.24096 0.73326 0.31912 0.0
H391 H 0.21017 0.68293 0.32609 0.0
Tb392 Tb 0.56621 0.04455 0.51979 0.0
Eu393 Eu 0.61332 0.09873 0.56561 0.0
C394 C 0.58402 0.03759 0.59335 0.0
C395 C 0.53703 0.10093 0.54787 0.0
C396 C 0.52478 0.97364 0.46631 0.0
C397 C 0.54828 0.93144 0.45116 0.0
C398 C 0.55164 0.96087 0.46553 0.0
C399 C 0.49488 0.95743 0.45165 0.0
C400 C 0.49151 0.92803 0.43757 0.0
C401 C 0.51808 0.91474 0.43781 0.0
C402 C 0.52671 1.00261 0.48458 0.0
O403 O 0.59163 0.07268 0.48749 0.0
O404 O 0.59927 0.11745 0.5184 0.0
O405 O 0.64689 0.07118 0.54499 0.0
O406 O 0.61164 0.02678 0.52664 0.0
C407 C 0.59571 0.10226 0.49007 0.0
O408 O 0.65626 0.13376 0.57275 0.0
O409 O 0.62879 0.12545 0.61224 0.0
O410 O 0.60982 0.05807 0.5943 0.0
O411 O 0.56048 0.03537 0.56949 0.0
O412 O 0.53529 0.07869 0.5249 0.0
O413 O 0.56362 0.10956 0.56904 0.0
C414 C 0.64157 0.04197 0.53491 0.0
O415 O 0.53401 1.00303 0.51592 0.0
O416 O 0.54175 0.02663 0.4735 0.0
C417 C 0.65706 0.17511 0.60956 0.0
C418 C 0.66657 0.23797 0.62275 0.0
C419 C 0.69204 0.2232 0.62899 0.0
C420 C 0.6873 0.19188 0.62233 0.0
C421 C 0.63157 0.18991 0.60301 0.0
C422 C 0.63633 0.2213 0.60964 0.0
C423 C 0.65285 0.14242 0.60221 0.0
H424 H 0.56893 0.92124 0.45165 0.0
H425 H 0.57485 0.97324 0.47688 0.0
H426 H 0.47398 0.96708 0.45224 0.0
H427 H 0.46808 0.9151 0.42782 0.0
H428 H 0.7155 0.23594 0.63901 0.0
H429 H 0.70724 0.18076 0.62703 0.0
H430 H 0.60815 0.17721 0.59277 0.0
H431 H 0.61652 0.23258 0.60471 0.0
Tb432 Tb 0.30239 0.32025 0.78478 0.0
Eu433 Eu 0.37879 0.32893 0.80965 0.0
C434 C 0.34943 0.37284 0.75934 0.0
C435 C 0.34793 0.29507 0.73661 0.0
C436 C 0.21732 0.29856 0.78729 0.0
C437 C 0.16137 0.28774 0.79153 0.0
C438 C 0.18567 0.2962 0.77319 0.0
C439 C 0.22449 0.29202 0.81966 0.0
C440 C 0.20034 0.28387 0.83805 0.0
C441 C 0.16867 0.28185 0.82415 0.0
C442 C 0.243 0.30796 0.76856 0.0
O443 O 0.30786 0.28893 0.82198 0.0
O444 O 0.35893 0.28269 0.82216 0.0
O445 O 0.35823 0.34489 0.85402 0.0
O446 O 0.30924 0.35106 0.83036 0.0
C447 C 0.33044 0.2738 0.82893 0.0
O448 O 0.42361 0.31378 0.81871 0.0
O449 O 0.42126 0.35974 0.83487 0.0
O450 O 0.37389 0.36633 0.77756 0.0
O451 O 0.32021 0.3583 0.75859 0.0
O452 O 0.31952 0.29762 0.7434 0.0
O453 O 0.37377 0.3061 0.75794 0.0
C454 C 0.33202 0.3552 0.85596 0.0
O455 O 0.25946 0.33542 0.77643 0.0
O456 O 0.26117 0.28843 0.76563 0.0
C457 C 0.46729 0.35285 0.81525 0.0
C458 C 0.519 0.37875 0.78602 0.0
C459 C 0.4928 0.35929 0.76736 0.0
C460 C 0.46697 0.34656 0.78183 0.0
C461 C 0.49344 0.37249 0.83388 0.0
C462 C 0.51921 0.38551 0.81929 0.0
C463 C 0.4396 0.3407 0.8303 0.0
H464 H 0.13697 0.28624 0.78053 0.0
H465 H 0.17981 0.30107 0.74817 0.0
H466 H 0.2488 0.29335 0.83069 0.0
H467 H 0.20631 0.27936 0.86318 0.0
H468 H 0.49239 0.35402 0.74161 0.0
H469 H 0.4467 0.33196 0.76688 0.0
H470 H 0.49379 0.37789 0.8596 0.0
H471 H 0.53937 0.40055 0.83389 0.0
Tb472 Tb 0.08816 0.05426 0.51165 0.0
Eu473 Eu 0.09403 0.0879 0.58165 0.0
C474 C 0.15706 0.09342 0.54497 0.0
C475 C 0.09558 1.01358 0.57481 0.0
C476 C 0.07622 0.0318 0.42114 0.0
C477 C 0.05914 1.00678 0.36678 0.0
C478 C 0.07399 1.00681 0.39872 0.0
C479 C 0.0669 0.05819 0.41035 0.0
C480 C 0.05187 0.0581 0.37843 0.0
C481 C 0.04637 0.03175 0.35713 0.0
C482 C 0.07903 0.02657 0.4557 0.0
O483 O 1.03956 0.04054 0.52359 0.0
O484 O 1.04005 0.07087 0.56936 0.0
O485 O 0.08701 0.12681 0.54857 0.0
O486 O 0.08566 0.10205 0.49875 0.0
C487 C 1.02466 0.04952 0.54664 0.0
O488 O 0.07987 0.09062 0.62977 0.0
O489 O 0.11698 0.1253 0.61797 0.0
O490 O 0.14594 0.09463 0.5728 0.0
O491 O 0.13819 0.07956 0.51851 0.0
O492 O 0.09495 1.01585 0.54299 0.0
O493 O 0.0968 0.03857 0.59378 0.0
C494 C 0.08644 0.12779 0.5167 0.0
O495 O 0.10675 0.03324 0.47397 0.0
O496 O 0.05707 0.03473 0.47023 0.0
C497 C 0.12355 0.10872 0.67108 0.0
C498 C 0.16261 0.09538 0.72588 0.0
C499 C 0.12961 0.08579 0.72243 0.0
C500 C 0.11021 0.09255 0.69533 0.0
C501 C 0.15667 0.11877 0.67499 0.0
C502 C 0.17601 0.11217 0.70222 0.0
C503 C 0.103 0.11323 0.6411 0.0
H504 H 0.05499 0.98628 0.3506 0.0
H505 H 0.08076 0.98618 0.4067 0.0
H506 H 0.06822 0.07762 0.4274 0.0
H507 H 1.04208 0.07751 0.37125 0.0
H508 H 0.11894 0.07296 0.74066 0.0
H509 H 0.0848 0.08461 0.693 0.0
H510 H 0.16775 0.13131 0.65682 0.0
H511 H 0.20146 0.11989 0.70471 0.0
Tb512 Tb 0.32888 0.79303 0.80775 0.0
Eu513 Eu 0.35405 0.862 0.7925 0.0
C514 C 0.3357 0.84598 0.8624 0.0
C515 C 0.2788 0.83083 0.77265 0.0
C516 C 0.32112 0.71179 0.79951 0.0
C517 C 0.36468 0.69006 0.78494 0.0
C518 C 0.35361 0.71109 0.80368 0.0
C519 C 0.29985 0.69047 0.77693 0.0
C520 C 0.31103 0.66956 0.75794 0.0
C521 C 0.34356 0.66965 0.7616 0.0
C522 C 0.31014 0.73759 0.8141 0.0
O523 O 0.35216 0.78994 0.76486 0.0
O524 O 0.34474 0.83429 0.74437 0.0
O525 O 0.39985 0.8465 0.81244 0.0
O526 O 0.37981 0.80027 0.8298 0.0
C527 C 0.3489 0.80644 0.74011 0.0
O528 O 0.34553 0.90733 0.7861 0.0
O529 O 0.39125 0.89758 0.77998 0.0
O530 O 0.35403 0.86407 0.84638 0.0
O531 O 0.31861 0.81979 0.84896 0.0
O532 O 0.28693 0.8044 0.77731 0.0
O533 O 0.29984 0.85613 0.78232 0.0
C534 C 0.40418 0.82249 0.82797 0.0
O535 O 0.33032 0.75592 0.83601 0.0
O536 O 0.29567 0.75252 0.79317 0.0
C537 C 0.38924 0.94404 0.80844 0.0
C538 C 0.39525 0.98394 0.86393 0.0
C539 C 0.38046 0.99058 0.83379 0.0
C540 C 0.37765 0.97085 0.80616 0.0
C541 C 0.40716 0.93907 0.83779 0.0
C542 C 0.41061 0.9593 0.86538 0.0
C543 C 0.375 0.91864 0.78404 0.0
H544 H 0.38986 0.69022 0.78802 0.0
H545 H 0.3707 0.72751 0.82046 0.0
H546 H 0.27479 0.6909 0.77299 0.0
H547 H 0.29451 0.65375 0.74005 0.0
H548 H 0.36894 1.00985 0.83216 0.0
H549 H 0.36362 0.97496 0.78386 0.0
H550 H 0.41613 0.91836 0.84015 0.0
H551 H 0.42264 0.95423 0.88836 0.0
Tb552 Tb 0.61427 0.06228 0.08289 0.0
Eu553 Eu 0.57092 0.07496 0.01906 0.0
C554 C 0.60153 1.01176 0.02003 0.0
C555 C 0.64463 0.10125 0.0308 0.0
C556 C 0.66332 0.07562 0.16345 0.0
C557 C 0.66178 0.09002 0.21985 0.0
C558 C 0.65764 0.0676 0.19436 0.0
C559 C 0.67761 0.10568 0.15948 0.0
C560 C 0.6823 0.12811 0.18527 0.0
C561 C 0.67189 0.12057 0.21466 0.0
C562 C 0.64719 0.05465 0.13529 0.0
O563 O 0.59847 0.10561 0.09857 0.0
O564 O 0.57975 0.12102 0.04951 0.0
O565 O 0.53981 0.06128 0.05668 0.0
O566 O 0.5698 0.02955 0.0778 0.0
C567 C 0.58871 0.1272 0.08122 0.0
O568 O 0.55811 0.10172 0.97922 0.0
O569 O 0.52567 0.0609 0.98721 0.0
O570 O 0.58125 0.02721 1.00524 0.0
O571 O 0.61886 1.02339 0.04853 0.0
O572 O 0.64409 0.09744 0.06157 0.0
O573 O 0.62076 0.08864 1.00833 0.0
C574 C 0.54223 0.03701 0.07161 0.0
O575 O 0.61639 0.05137 0.13107 0.0
O576 O 0.65844 0.05787 0.10798 0.0
C577 C 0.52717 0.07285 0.93369 0.0
C578 C 0.52204 0.05693 0.86724 0.0
C579 C 0.50527 0.07813 0.8781 0.0
C580 C 0.50787 0.08611 0.91137 0.0
C581 C 0.54324 0.05109 0.9228 0.0
C582 C 0.5406 0.04311 0.88971 0.0
C583 C 0.53173 0.08257 0.9682 0.0
H584 H 0.65398 0.08385 0.24257 0.0
H585 H 0.64674 0.04454 0.19789 0.0
H586 H 0.68232 0.11235 0.13582 0.0
H587 H 0.69051 0.15162 0.18116 0.0
H588 H 0.49102 0.08901 0.86085 0.0
H589 H 0.49538 0.10298 0.91963 0.0
H590 H 0.55833 0.04078 0.93984 0.0
H591 H 0.55379 0.02681 0.88153 0.0
Tb592 Tb 0.35767 0.35144 0.31472 0.0
Eu593 Eu 0.32698 0.28848 0.27494 0.0
C594 C 0.35625 0.29167 0.35434 0.0
C595 C 0.40289 0.32051 0.27339 0.0
C596 C 0.36794 0.43231 0.32426 0.0
C597 C 0.32887 0.46425 0.32234 0.0
C598 C 0.34916 0.44853 0.34018 0.0
C599 C 0.36974 0.436 0.29119 0.0
C600 C 0.34959 0.45191 0.27341 0.0
C601 C 0.32751 0.46418 0.28855 0.0
C602 C 0.37694 0.40555 0.33891 0.0
O603 O 0.3444 0.36442 0.26412 0.0
O604 O 0.31271 0.32113 0.23773 0.0
O605 O 0.28367 0.29854 0.29677 0.0
O606 O 0.30803 0.34287 0.32718 0.0
C607 C 0.32628 0.34996 0.23741 0.0
O608 O 0.31479 0.25851 0.22985 0.0
O609 O 0.30773 0.23998 0.27515 0.0
O610 O 0.34477 0.27541 0.32627 0.0
O611 O 0.36442 0.32161 0.35496 0.0
O612 O 0.40104 0.33806 0.2995 0.0
O613 O 0.37702 0.30087 0.25979 0.0
C614 C 0.28264 0.32066 0.31872 0.0
O615 O 0.35341 0.38702 0.34751 0.0
O616 O 0.394 0.39076 0.32346 0.0
C617 C 0.33162 0.21235 0.23986 0.0
C618 C 0.38342 0.18312 0.24602 0.0
C619 C 0.38113 0.20467 0.22335 0.0
C620 C 0.35545 0.21924 0.22028 0.0
C621 C 0.33213 0.18804 0.25956 0.0
C622 C 0.35796 0.17354 0.26269 0.0
C623 C 0.31068 0.23393 0.24502 0.0
H624 H 0.31204 0.47381 0.33437 0.0
H625 H 0.34737 0.44608 0.36559 0.0
H626 H 0.38408 0.42392 0.27817 0.0
H627 H 0.34886 0.4518 0.24732 0.0
H628 H 0.40048 0.21202 0.21001 0.0
H629 H 0.35574 0.2376 0.20458 0.0
H630 H 0.31399 0.18208 0.27472 0.0
H631 H 0.35939 0.15684 0.28025 0.0
Tb632 Tb 0.58906 0.55445 1.01467 0.0
Eu633 Eu 0.59275 0.58754 0.08338 0.0
C634 C 0.65696 0.59616 0.04762 0.0
C635 C 0.59357 0.51285 0.07557 0.0
C636 C 0.57919 0.53498 0.92471 0.0
C637 C 0.55802 0.5167 0.86879 0.0
C638 C 0.5698 0.5111 0.90021 0.0
C639 C 0.5798 0.56498 0.91686 0.0
C640 C 0.5682 0.57064 0.88525 0.0
C641 C 0.55562 0.54625 0.86165 0.0
C642 C 0.58057 0.52744 0.95845 0.0
O643 O 0.54139 0.53722 0.02882 0.0
O644 O 0.53906 0.57317 0.06833 0.0
O645 O 0.59281 0.62806 0.05117 0.0
O646 O 0.58458 0.60176 1.00127 0.0
C647 C 0.52481 0.54924 0.04846 0.0
O648 O 0.6049 0.5861 0.13534 0.0
O649 O 0.58599 0.62407 0.11717 0.0
O650 O 0.64486 0.59897 0.07477 0.0
O651 O 0.63905 0.58016 0.02169 0.0
O652 O 0.60071 0.51766 0.04607 0.0
O653 O 0.58668 0.53585 0.09261 0.0
C654 C 0.58887 0.62827 0.01906 0.0
O655 O 0.60793 0.53365 0.97734 0.0
O656 O 0.55822 0.53506 0.97278 0.0
C657 C 0.62325 0.63305 0.16583 0.0
C658 C 0.66771 0.66093 0.21943 0.0
C659 C 0.63648 0.66561 0.21622 0.0
C660 C 0.61422 0.6514 0.18964 0.0
C661 C 0.65527 0.6312 0.16733 0.0
C662 C 0.67733 0.64489 0.19413 0.0
C663 C 0.59878 0.61265 0.14252 0.0
H664 H 0.54842 0.4977 0.85075 0.0
H665 H 0.56893 0.48783 0.90598 0.0
H666 H 0.5867 0.58363 0.93566 0.0
H667 H 0.56636 0.59356 0.88002 0.0
H668 H 0.62881 0.67808 0.23555 0.0
H669 H 0.58964 0.65318 0.18874 0.0
H670 H 0.66282 0.61746 0.14896 0.0
H671 H 0.70141 0.64126 0.19617 0.0
Tb672 Tb 0.83035 0.28603 0.3008 0.0
Eu673 Eu 0.8571 0.35353 0.28259 0.0
C674 C 0.83686 0.34115 0.35353 0.0
C675 C 0.78188 0.3243 0.26583 0.0
C676 C 0.80371 0.2039 0.29048 0.0
C677 C 0.8124 0.15262 0.28378 0.0
C678 C 0.808 0.17686 0.30374 0.0
C679 C 0.80073 0.20544 0.25662 0.0
C680 C 0.80521 0.18121 0.23665 0.0
C681 C 0.81267 0.15535 0.25047 0.0
C682 C 0.81015 0.23189 0.31204 0.0
O683 O 0.84454 0.27711 0.25347 0.0
O684 O 0.8539 0.32487 0.23572 0.0
O685 O 0.90197 0.33486 0.2965 0.0
O686 O 0.88039 0.29804 0.32685 0.0
C687 C 0.84987 0.29531 0.23041 0.0
O688 O 0.85473 0.38956 0.25015 0.0
O689 O 0.89003 0.39713 0.29335 0.0
O690 O 0.85369 0.35914 0.33599 0.0
O691 O 0.8217 0.31362 0.34217 0.0
O692 O 0.79021 0.29763 0.26766 0.0
O693 O 0.80308 0.34895 0.27755 0.0
C694 C 0.90572 0.31574 0.31883 0.0
O695 O 0.83988 0.24525 0.31731 0.0
O696 O 0.79181 0.25115 0.30563 0.0
C697 C 0.86407 0.43639 0.28033 0.0
C698 C 0.84296 0.48713 0.30342 0.0
C699 C 0.86943 0.49093 0.28719 0.0
C700 C 0.87998 0.46554 0.27564 0.0
C701 C 0.83756 0.43272 0.29645 0.0
C702 C 0.82702 0.45795 0.30788 0.0
C703 C 0.87544 0.40955 0.26991 0.0
H704 H 0.81824 0.13276 0.29471 0.0
H705 H 0.81067 0.17544 0.3298 0.0
H706 H 0.79763 0.22624 0.24598 0.0
H707 H 0.80552 0.18363 0.21099 0.0
H708 H 0.88193 0.51344 0.28372 0.0
H709 H 0.9006 0.46862 0.26342 0.0
H710 H 0.82523 0.41029 0.30048 0.0
H711 H 0.80662 0.45479 0.32045 0.0
Tb712 Tb 0.10673 0.5622 0.57755 0.0
Eu713 Eu 0.0805 0.58177 0.50869 0.0
C714 C 0.10057 0.5123 0.51668 0.0
C715 C 0.15249 0.60387 0.54168 0.0
C716 C 0.13671 0.57514 0.66438 0.0
C717 C 0.13554 0.58789 0.7213 0.0
C718 C 0.13192 0.56608 0.69517 0.0
C719 C 0.1473 0.606 0.66055 0.0
C720 C 0.15187 0.6277 0.68682 0.0
C721 C 0.14426 0.61885 0.71684 0.0
C722 C 0.12524 0.55347 0.63569 0.0
O723 O 0.09882 0.61024 0.58845 0.0
O724 O 0.0755 0.62386 0.54019 0.0
O725 O 1.03626 0.56295 0.5288 0.0
O726 O 0.05961 0.53411 0.56437 0.0
C727 C 0.08617 0.63067 0.57164 0.0
O728 O 0.09383 0.59936 0.46404 0.0
O729 O 0.04418 0.58493 0.46774 0.0
O730 O 0.09146 0.53319 0.49806 0.0
O731 O 0.10781 0.51912 0.54863 0.0
O732 O 0.14866 0.57846 0.55558 0.0
O733 O 0.1278 0.61252 0.52654 0.0
C734 C 1.03437 0.5411 0.5482 0.0
O735 O 0.09572 0.55221 0.62357 0.0
O736 O 0.14318 0.55466 0.6131 0.0
C737 C 0.06161 0.57293 0.4183 0.0
C738 C 0.07072 0.53423 0.36708 0.0
C739 C 0.05705 0.5221 0.39318 0.0
C740 C 0.0526 0.54132 0.41872 0.0
C741 C 0.07346 0.58506 0.39118 0.0
C742 C 0.07801 0.56576 0.3656 0.0
C743 C 0.06497 0.59253 0.44839 0.0
H744 H 0.12961 0.58077 0.74444 0.0
H745 H 0.1233 0.54242 0.69846 0.0
H746 H 0.14973 0.61361 0.63686 0.0
H747 H 0.15839 0.65153 0.683 0.0
H748 H 0.05155 0.49777 0.39465 0.0
H749 H 1.04401 0.53144 0.43967 0.0
H750 H 0.08106 0.60936 0.39077 0.0
H751 H 0.08878 0.57533 0.34562 0.0
Tb752 Tb 0.81256 0.81821 0.28187 0.0
Eu753 Eu 0.88598 0.85394 0.29547 0.0
C754 C 0.83386 0.87601 0.2463 0.0
C755 C 0.86071 0.80603 0.23036 0.0
C756 C 0.73312 0.77349 0.28719 0.0
C757 C 0.67765 0.7588 0.29175 0.0
C758 C 0.70129 0.76662 0.2727 0.0
C759 C 0.74142 0.77041 0.32042 0.0
C760 C 0.71775 0.76249 0.33948 0.0
C761 C 0.68583 0.75787 0.32534 0.0
C762 C 0.75696 0.78725 0.26834 0.0
O763 O 0.83554 0.79409 0.31908 0.0
O764 O 0.88896 0.81144 0.31896 0.0
O765 O 0.86382 0.86835 0.33962 0.0
O766 O 0.81188 0.84304 0.32925 0.0
C767 C 0.86542 0.79253 0.32745 0.0
O768 O 0.93725 0.86056 0.30695 0.0
O769 O 0.91489 0.89971 0.30421 0.0
O770 O 0.86299 0.8722 0.25175 0.0
O771 O 0.81166 0.86101 0.26066 0.0
O772 O 0.83195 0.80351 0.23829 0.0
O773 O 0.88561 0.82287 0.24952 0.0
C774 C 0.83534 0.86181 0.34835 0.0
O775 O 0.76374 0.81679 0.27148 0.0
O776 O 0.78233 0.77576 0.26993 0.0
C777 C 0.96509 0.90463 0.28821 0.0
C778 C 1.01552 0.92864 0.2565 0.0
C779 C 0.99396 0.9022 0.24298 0.0
C780 C 0.96871 0.89032 0.25864 0.0
C781 C 0.98528 0.93231 0.3005 0.0
C782 C 1.01041 0.94442 0.28455 0.0
C783 C 0.94147 0.89009 0.30716 0.0
H784 H 0.65301 0.7553 0.2807 0.0
H785 H 0.6947 0.76889 0.24705 0.0
H786 H 0.76601 0.77571 0.33185 0.0
H787 H 0.72423 0.7619 0.36546 0.0
H788 H 0.99771 0.88988 0.22127 0.0
H789 H 0.95295 0.86924 0.24849 0.0
H790 H 0.98244 0.94381 0.32309 0.0
H791 H 1.02696 0.96487 0.29512 0.0
Tb792 Tb 0.8804 0.34962 0.81523 0.0
Eu793 Eu 0.82042 0.2965 0.77428 0.0
C794 C 0.81618 0.36811 0.7884 0.0
C795 C 0.83411 0.3049 0.8539 0.0
C796 C 0.94209 0.42028 0.85045 0.0
C797 C 0.95752 0.46632 0.88731 0.0
C798 C 0.94181 0.43607 0.88045 0.0
C799 C 0.95843 0.43544 0.82739 0.0
C800 C 0.97426 0.46574 0.83437 0.0
C801 C 0.97409 0.48126 0.86448 0.0
C802 C 0.9278 0.38749 0.84521 0.0
O803 O 0.89796 0.30745 0.81118 0.0
O804 O 0.85396 0.26885 0.79604 0.0
O805 O 0.85436 0.31261 0.73989 0.0
O806 O 0.87508 0.36036 0.76431 0.0
C807 C 0.88392 0.27852 0.80805 0.0
O808 O 0.80237 0.26097 0.7348 0.0
O809 O 0.76949 0.27843 0.76181 0.0
O810 O 0.80589 0.34168 0.77158 0.0
O811 O 0.84244 0.37468 0.80944 0.0
O812 O 0.85779 0.32792 0.85365 0.0
O813 O 0.81664 0.29026 0.82716 0.0
C814 C 0.86762 0.34103 0.73823 0.0
O815 O 0.90156 0.37868 0.85672 0.0
O816 O 0.92753 0.37306 0.8171 0.0
C817 C 0.75263 0.22873 0.73557 0.0
C818 C 0.71327 0.17074 0.72668 0.0
C819 C 0.74261 0.17586 0.74725 0.0
C820 C 0.76224 0.20478 0.75172 0.0
C821 C 0.7233 0.22355 0.71517 0.0
C822 C 0.70366 0.19477 0.7108 0.0
C823 C 0.77283 0.25915 0.73863 0.0
H824 H 0.95678 0.47814 0.9104 0.0
H825 H 0.92988 0.42485 0.89891 0.0
H826 H 0.95947 0.42382 0.80424 0.0
H827 H 0.98704 0.47697 0.81649 0.0
H828 H 0.75025 0.1575 0.75978 0.0
H829 H 0.78486 0.20842 0.76756 0.0
H830 H 0.71573 0.24181 0.70247 0.0
H831 H 0.68104 0.19119 0.69499 0.0
Tb832 Tb 0.85301 0.85588 0.81107 0.0
Eu833 Eu 0.82399 0.79141 0.77224 0.0
C834 C 0.85435 0.79663 0.85125 0.0
C835 C 0.90007 0.82494 0.77126 0.0
C836 C 0.84666 0.93184 0.83461 0.0
C837 C 0.81056 0.95908 0.8577 0.0
C838 C 0.83621 0.94425 0.86181 0.0
C839 C 0.83252 0.93646 0.80329 0.0
C840 C 0.80683 0.95087 0.79926 0.0
C841 C 0.79485 0.96111 0.82632 0.0
C842 C 0.86694 0.90908 0.83853 0.0
O843 O 0.83713 0.86841 0.76099 0.0
O844 O 0.81225 0.82306 0.73283 0.0
O845 O 0.77961 0.801 0.79251 0.0
O846 O 0.8029 0.84623 0.82187 0.0
C847 C 0.82251 0.85271 0.73338 0.0
O848 O 0.82038 0.76005 0.72911 0.0
O849 O 0.80036 0.74366 0.77044 0.0
O850 O 0.83839 0.78009 0.82487 0.0
O851 O 0.86588 0.82591 0.84967 0.0
O852 O 0.89672 0.84709 0.7922 0.0
O853 O 0.8761 0.80166 0.76245 0.0
C854 C 0.77802 0.82351 0.81374 0.0
O855 O 0.85517 0.8855 0.85264 0.0
O856 O 0.87831 0.90096 0.81295 0.0
C857 C 0.83549 0.71731 0.7498 0.0
C858 C 0.88635 0.68711 0.75962 0.0
C859 C 0.86016 0.67535 0.73536 0.0
C860 C 0.83471 0.6906 0.73033 0.0
C861 C 0.86159 0.72834 0.77406 0.0
C862 C 0.88656 0.71343 0.77901 0.0
C863 C 0.81163 0.73631 0.74447 0.0
H864 H 0.80175 0.96722 0.87885 0.0
H865 H 0.84654 0.94078 0.88616 0.0
H866 H 0.8399 0.92729 0.78176 0.0
H867 H 0.79528 0.95275 0.7749 0.0
H868 H 0.8597 0.65489 0.72025 0.0
H869 H 0.81493 0.68195 0.71117 0.0
H870 H 0.86313 0.74915 0.78883 0.0
H871 H 0.90647 0.72275 0.79785 0.0
Tb872 Tb 0.59151 0.58892 0.52389 0.0
Eu873 Eu 0.65083 0.60811 0.58492 0.0
C874 C 0.66002 0.60976 0.51025 0.0
C875 C 0.62896 0.54114 0.55193 0.0
C876 C 0.51695 0.59913 0.4856 0.0
C877 C 0.46399 0.60893 0.4706 0.0
C878 C 0.48732 0.59222 0.46556 0.0
C879 C 0.52299 0.62294 0.51025 0.0
C880 C 0.49975 0.63896 0.51573 0.0
C881 C 0.47008 0.63208 0.49615 0.0
C882 C 0.54158 0.58119 0.48326 0.0
O883 O 0.5735 0.60011 0.56797 0.0
O884 O 0.60807 0.58205 0.60297 0.0
O885 O 0.62759 0.64869 0.58413 0.0
O886 O 0.60574 0.63792 0.53011 0.0
C887 C 0.57982 0.588 0.59523 0.0
O888 O 0.67222 0.6035 0.63462 0.0
O889 O 0.70046 0.62879 0.6028 0.0
O890 O 0.66726 0.62431 0.53925 0.0
O891 O 0.63369 0.58938 0.50128 0.0
O892 O 0.60094 0.54614 0.54041 0.0
O893 O 0.65335 0.56353 0.56007 0.0
C894 C 0.61346 0.65636 0.55676 0.0
O895 O 0.56872 0.59664 0.47805 0.0
O896 O 0.5454 0.56402 0.50704 0.0
C897 C 0.72276 0.5927 0.63101 0.0
C898 C 0.76302 0.55208 0.62103 0.0
C899 C 0.77576 0.58313 0.62919 0.0
C900 C 0.75567 0.60338 0.63398 0.0
C901 C 0.71046 0.5614 0.62425 0.0
C902 C 0.73042 0.54144 0.61931 0.0
C903 C 0.70082 0.61401 0.62877 0.0
H904 H 0.44114 0.60351 0.45511 0.0
H905 H 0.48217 0.57388 0.44645 0.0
H906 H 0.54559 0.62883 0.52588 0.0
H907 H 0.50482 0.65668 0.53547 0.0
H908 H 0.80098 0.59175 0.63073 0.0
H909 H 0.76563 0.62744 0.63859 0.0
H910 H 0.68519 0.55242 0.62126 0.0
H911 H 0.72046 0.51767 0.61317 0.0
Tb912 Tb 0.06875 0.55101 1.01353 0.0
Eu913 Eu 0.10951 0.59731 0.07541 0.0
C914 C 0.07543 0.52847 0.08381 0.0
C915 C 1.03414 0.6012 0.04609 0.0
C916 C 1.03106 0.48023 0.96197 0.0
C917 C 0.04715 0.43184 0.95529 0.0
C918 C 0.05461 0.46352 0.95789 0.0
C919 C 0.99994 0.46471 0.96267 0.0
C920 C 0.99248 0.43312 0.95987 0.0
C921 C 1.01613 0.4166 0.9566 0.0
C922 C 1.03849 0.51358 0.96735 0.0
O923 O 0.08166 0.59319 0.99158 0.0
O924 O 0.11441 0.62516 0.03303 0.0
O925 O 0.1463 0.56975 0.06249 0.0
O926 O 0.11567 0.53576 0.02167 0.0
C927 C 0.09933 0.61956 1.0032 0.0
O928 O 0.15163 0.62913 0.09957 0.0
O929 O 0.11142 0.61693 0.12489 0.0
O930 O 0.09713 0.55239 0.09528 0.0
O931 O 0.05889 0.52553 0.0547 0.0
O932 O 1.03351 0.57924 0.02328 0.0
O933 O 0.05974 0.61005 0.06854 0.0
C934 C 0.14312 0.54579 0.04147 0.0
O935 O 1.02565 0.52462 0.99044 0.0
O936 O 0.06786 0.5275 0.96821 0.0
C937 C 0.13995 0.66714 0.1336 0.0
C938 C 0.14339 0.72918 0.14859 0.0
C939 C 0.12849 0.71531 0.11796 0.0
C940 C 0.12672 0.68445 0.11053 0.0
C941 C 0.15453 0.68085 0.16444 0.0
C942 C 0.15625 0.71185 0.17194 0.0
C943 C 0.13879 0.63495 0.12506 0.0
H944 H 0.06558 0.41919 0.95272 0.0
H945 H 0.07882 0.47484 0.95731 0.0
H946 H 0.98145 0.47708 0.96604 0.0
H947 H 0.96843 0.42156 0.96088 0.0
H948 H 0.11852 0.72847 0.09974 0.0
H949 H 0.11535 0.67412 0.08666 0.0
H950 H 0.16477 0.6677 0.18249 0.0
H951 H 0.16791 0.72237 0.19567 0.0
C952 C 1.04167 0.1841 0.03486 0.0
C953 C 0.06056 0.20279 0.01589 0.0
C954 C 0.10572 0.17967 0.0345 0.0
C955 C 0.08504 0.15711 0.04756 0.0
N956 N 1.03411 0.1379 0.06252 0.0
N957 N 0.11062 0.2184 0.99662 0.0
C958 C 0.05336 0.15973 0.04907 0.0
C959 C 0.0929 0.20117 0.01604 0.0
N960 N 1.0126 0.18962 0.03895 0.0
N961 N 0.13745 0.17981 0.03911 0.0
H962 H 0.1022 0.23431 0.98246 0.0
H963 H 0.133 0.21549 0.99272 0.0
H964 H 0.14702 0.1639 0.05243 0.0
H965 H 0.15437 0.19706 0.03251 0.0
H966 H 0.99856 0.17839 0.05455 0.0
H967 H 1.00356 0.20732 0.02856 0.0
H968 H 1.00984 0.13638 0.06134 0.0
H969 H 1.04258 0.12054 0.0741 0.0
C970 C 0.29907 0.91899 0.22416 0.0
C971 C 0.26665 0.91455 0.22741 0.0
C972 C 0.27762 0.89081 0.27804 0.0
C973 C 0.30786 0.88877 0.27058 0.0
N974 N 0.34892 0.90293 0.23736 0.0
N975 N 0.22418 0.89527 0.25722 0.0
C976 C 0.31945 0.90414 0.24439 0.0
C977 C 0.25574 0.9009 0.25474 0.0
N978 N 0.31016 0.93735 0.20157 0.0
N979 N 0.26983 0.88261 0.30736 0.0
H980 H 0.20701 0.90201 0.24084 0.0
H981 H 0.21459 0.88195 0.27441 0.0
H982 H 0.28582 0.8754 0.32483 0.0
H983 H 0.24914 0.88599 0.31558 0.0
H984 H 0.33406 0.94375 0.19957 0.0
H985 H 0.29551 0.94861 0.18684 0.0
H986 H 0.35662 0.90959 0.21585 0.0
H987 H 0.36553 0.89417 0.25233 0.0
C988 C 0.52125 0.8419 0.38932 0.0
C989 C 0.50725 0.82005 0.40911 0.0
C990 C 0.50137 0.86049 0.44791 0.0
C991 C 0.51368 0.88222 0.42731 0.0
N992 N 0.52945 0.89411 0.37568 0.0
N993 N 0.47629 0.80853 0.45216 0.0
C994 C 0.52169 0.87306 0.39707 0.0
C995 C 0.49496 0.82936 0.43689 0.0
N996 N 0.5358 0.83327 0.36438 0.0
N997 N 0.49689 0.86949 0.47849 0.0
H998 H 0.46989 0.78563 0.4439 0.0
H999 H 0.4643 0.81439 0.47071 0.0
H1000 H 0.50137 0.89216 0.48769 0.0
H1001 H 0.49142 0.85437 0.49582 0.0
H1002 H 0.54965 0.84861 0.35185 0.0
H1003 H 0.53645 0.81082 0.35775 0.0
H1004 H 0.53207 0.88844 0.3518 0.0
H1005 H 0.5306 0.91722 0.38093 0.0
C1006 C 0.57159 0.42751 0.7356 0.0
C1007 C 0.59379 0.4088 0.73186 0.0
C1008 C 0.57109 0.3747 0.7699 0.0
C1009 C 0.54653 0.3912 0.77038 0.0
N1010 N 0.52195 0.43252 0.75347 0.0
N1011 N 0.61267 0.36256 0.74186 0.0
C1012 C 0.54647 0.41756 0.75333 0.0
C1013 C 0.59332 0.38203 0.74837 0.0
N1014 N 0.57501 0.45501 0.72276 0.0
N1015 N 0.57305 0.35193 0.78997 0.0
H1016 H 0.629 0.36658 0.72577 0.0
H1017 H 0.61078 0.34104 0.75021 0.0
H1018 H 0.55655 0.34523 0.80535 0.0
H1019 H 0.59241 0.34139 0.79344 0.0
H1020 H 0.56149 0.47108 0.72714 0.0
H1021 H 0.59321 0.46287 0.70962 0.0
H1022 H 0.51845 0.44975 0.7386 0.0
H1023 H 0.50398 0.42664 0.76745 0.0
C1024 C 0.10858 0.93036 0.5957 0.0
C1025 C 0.08897 0.9226 0.6201 0.0
C1026 C 0.07111 0.97231 0.61182 0.0
C1027 C 0.09321 0.98169 0.58992 0.0
N1028 N 0.13592 0.96901 0.56463 0.0
N1029 N 0.05389 0.9395 0.65343 0.0
C1030 C 0.11239 0.96022 0.58262 0.0
C1031 C 0.071 0.94464 0.62852 0.0
N1032 N 0.12387 0.90894 0.58486 0.0
N1033 N 0.0487 0.98912 0.61572 0.0
H1034 H 0.05115 0.91915 0.66448 0.0
H1035 H 1.04399 0.95596 0.66437 0.0
H1036 H 0.04716 1.00874 0.60409 0.0
H1037 H 1.02956 0.98203 0.62779 0.0
H1038 H 0.13596 0.91101 0.56502 0.0
H1039 H 0.12199 0.88773 0.5941 0.0
H1040 H 0.15309 0.95651 0.56101 0.0
H1041 H 0.14012 0.9903 0.55566 0.0
C1042 C 0.48686 0.84699 0.88318 0.0
C1043 C 0.50086 0.8209 0.88069 0.0
C1044 C 0.45292 0.79673 0.84044 0.0
C1045 C 0.43763 0.82159 0.84591 0.0
N1046 N 0.43902 0.86775 0.87875 0.0
N1047 N 0.4943 0.76905 0.85912 0.0
C1048 C 0.45448 0.84602 0.86886 0.0
C1049 C 0.4831 0.79533 0.85969 0.0
N1050 N 0.50492 0.87346 0.89862 0.0
N1051 N 0.43911 0.77473 0.81603 0.0
H1052 H 0.51602 0.76729 0.87225 0.0
H1053 H 0.48114 0.74852 0.84758 0.0
H1054 H 0.4176 0.77504 0.80154 0.0
H1055 H 0.45017 0.75768 0.8083 0.0
H1056 H 0.49755 0.89413 0.89825 0.0
H1057 H 0.52858 0.87548 0.90878 0.0
H1058 H 0.44859 0.8841 0.89806 0.0
H1059 H 0.41531 0.86755 0.87015 0.0
C1060 C 0.56469 0.20727 0.09878 0.0
C1061 C 0.58942 0.2231 0.12373 0.0
C1062 C 0.61399 0.17674 0.12023 0.0
C1063 C 0.58815 0.15981 0.09723 0.0
N1064 N 0.5349 0.15887 0.07089 0.0
N1065 N 0.63227 0.21661 0.16446 0.0
C1066 C 0.56243 0.1752 0.08836 0.0
C1067 C 0.61232 0.2058 0.13618 0.0
N1068 N 0.54378 0.22302 0.08383 0.0
N1069 N 0.64148 0.16623 0.12572 0.0
H1070 H 0.63066 0.23625 0.17803 0.0
H1071 H 0.64756 0.20418 0.17642 0.0
H1072 H 0.64463 0.14631 0.1139 0.0
H1073 H 0.66226 0.17907 0.13917 0.0
H1074 H 0.52759 0.21427 0.06305 0.0
H1075 H 0.54435 0.24572 0.09078 0.0
H1076 H 0.51427 0.16744 0.06622 0.0
H1077 H 0.53161 0.13571 0.06418 0.0
C1078 C 0.21204 0.34412 0.35948 0.0
C1079 C 0.19803 0.31676 0.37231 0.0
C1080 C 0.23983 0.29276 0.35112 0.0
C1081 C 0.2527 0.31939 0.33636 0.0
N1082 N 0.24612 0.3692 0.32274 0.0
N1083 N 0.19543 0.26302 0.37252 0.0
C1084 C 0.23731 0.34469 0.3396 0.0
C1085 C 0.21111 0.29063 0.36564 0.0
N1086 N 0.20213 0.37014 0.36736 0.0
N1087 N 0.25618 0.26974 0.3534 0.0
H1088 H 0.17435 0.26031 0.38225 0.0
H1089 H 0.20129 0.24259 0.36527 0.0
H1090 H 0.27753 0.27041 0.34461 0.0
H1091 H 0.25048 0.25147 0.36717 0.0
H1092 H 0.21343 0.39157 0.3625 0.0
H1093 H 0.18364 0.3704 0.38073 0.0
H1094 H 0.23419 0.38711 0.32095 0.0
H1095 H 0.26375 0.37031 0.30805 0.0
C1096 C 1.00721 0.0539 0.14552 0.0
C1097 C 0.99 1.02351 0.13781 0.0
C1098 C 1.03083 1.01232 0.10685 0.0
C1099 C 0.04482 0.04363 0.11011 0.0
N1100 N 0.04743 0.0946 0.13242 0.0
N1101 N 0.98404 0.97404 0.10954 0.0
C1102 C 1.03336 0.06452 0.12951 0.0
C1103 C 1.00164 1.00263 0.11837 0.0
N1104 N 0.99961 0.07216 0.16928 0.0
N1105 N 0.04555 0.99193 0.09286 0.0
H1106 H 0.96226 0.96625 0.11702 0.0
H1107 H 0.98964 0.95884 0.09263 0.0
H1108 H 0.06701 0.99844 0.0843 0.0
H1109 H 1.03825 0.96851 0.09259 0.0
H1110 H 1.0134 0.09327 0.17832 0.0
H1111 H 0.98123 0.06525 0.18241 0.0
H1112 H 1.03762 0.11166 0.14231 0.0
H1113 H 0.06841 0.10266 0.12347 0.0
C1114 C 0.29956 0.77321 0.43272 0.0
C1115 C 0.32702 0.77183 0.45496 0.0
C1116 C 0.36085 0.79839 0.41886 0.0
C1117 C 0.33336 0.79968 0.39642 0.0
N1118 N 0.27682 0.79537 0.3855 0.0
N1119 N 0.38294 0.78953 0.47338 0.0
C1120 C 0.30275 0.7893 0.40455 0.0
C1121 C 0.35735 0.78679 0.44949 0.0
N1122 N 0.2705 0.75846 0.43819 0.0
N1123 N 0.39029 0.80598 0.41011 0.0
H1124 H 0.38146 0.78066 0.49578 0.0
H1125 H 0.405 0.80296 0.47219 0.0
H1126 H 0.39438 0.81496 0.38831 0.0
H1127 H 0.41064 0.80131 0.42346 0.0
H1128 H 0.25003 0.75524 0.42107 0.0
H1129 H 0.26712 0.74813 0.45955 0.0
H1130 H 0.25403 0.79079 0.39142 0.0
H1131 H 0.2786 0.80768 0.36515 0.0
C1132 C 0.60947 0.98305 0.65321 0.0
C1133 C 0.58127 0.97335 0.66615 0.0
C1134 C 0.55539 1.00782 0.6337 0.0
C1135 C 0.58255 1.01519 0.61823 0.0
N1136 N 0.631 1.00131 0.60643 0.0
N1137 N 0.525 0.97101 0.66317 0.0
C1138 C 0.60851 1.00061 0.62621 0.0
C1139 C 0.5534 0.9839 0.65455 0.0
N1140 N 0.63703 0.97487 0.66597 0.0
N1141 N 0.5322 0.02445 0.62985 0.0
H1142 H 0.52275 0.95422 0.67939 0.0
H1143 H 0.50349 0.97569 0.65256 0.0
H1144 H 0.53339 0.04297 0.6159 0.0
H1145 H 0.51348 1.02181 0.64319 0.0
H1146 H 0.65893 0.98439 0.65971 0.0
H1147 H 0.63849 0.96048 0.68459 0.0
H1148 H 0.64888 0.98884 0.60953 0.0
H1149 H 0.62918 1.011 0.58448 0.0
C1150 C 0.35408 0.41034 0.93555 0.0
C1151 C 0.32564 0.40637 0.94968 0.0
C1152 C 0.30196 0.36597 0.90434 0.0
C1153 C 0.32908 0.37301 0.88809 0.0
N1154 N 0.37846 0.40771 0.88681 0.0
N1155 N 0.27077 0.38185 0.94415 0.0
C1156 C 0.35444 0.39672 0.90349 0.0
C1157 C 0.29915 0.38443 0.93314 0.0
N1158 N 0.38151 0.4265 0.95341 0.0
N1159 N 0.27925 0.34081 0.89313 0.0
H1160 H 0.26803 0.39427 0.96506 0.0
H1161 H 0.24963 0.36908 0.93137 0.0
H1162 H 0.28082 0.32658 0.87314 0.0
H1163 H 0.26059 0.33245 0.9054 0.0
H1164 H 0.40364 0.42792 0.9461 0.0
H1165 H 0.3826 0.43537 0.97726 0.0
H1166 H 0.39579 0.42699 0.89519 0.0
H1167 H 0.3791 0.39983 0.86297 0.0
C1168 C 1.00811 0.03046 0.26889 0.0
C1169 C 0.97576 1.01939 0.27159 0.0
C1170 C 0.99005 1.01611 0.32985 0.0
C1171 C 1.02229 0.02804 0.32758 0.0
N1172 N 0.06196 0.05015 0.29637 0.0
N1173 N 0.93556 1.00231 0.30469 0.0
C1174 C 1.03133 0.0363 0.29745 0.0
C1175 C 0.96673 1.01246 0.30203 0.0
N1176 N 1.0168 0.03383 0.23886 0.0
N1177 N 0.98056 1.00813 0.35852 0.0
H1178 H 0.91715 1.00006 0.2852 0.0
H1179 H 0.92811 0.99673 0.32671 0.0
H1180 H 0.9957 1.00994 0.38061 0.0
H1181 H 0.9957 1.00994 0.38061 0.0
H1182 H 1.04018 0.03857 0.23466 0.0
H1183 H 1.00051 0.02949 0.21751 0.0
H1184 H 0.06958 0.05974 0.27603 0.0
H1185 H 0.07962 0.05389 0.31672 0.0
C1186 C 0.36232 0.80121 0.65173 0.0
C1187 C 0.34192 0.77314 0.63947 0.0
C1188 C 0.32751 0.76571 0.6937 0.0
C1189 C 0.3487 0.79333 0.70634 0.0
N1190 N 0.39221 0.8331 0.69911 0.0
N1191 N 0.31193 0.72499 0.65067 0.0
C1192 C 0.3679 0.80984 0.68581 0.0
C1193 C 0.32702 0.75408 0.66116 0.0
N1194 N 0.37624 0.81975 0.63075 0.0
N1195 N 0.30595 0.75171 0.7117 0.0
H1196 H 0.31039 0.7158 0.62693 0.0
H1197 H 0.30368 0.70909 0.66627 0.0
H1198 H 0.30391 0.76027 0.7348 0.0
H1199 H 0.28775 0.73338 0.70247 0.0
H1200 H 0.38812 0.84205 0.63753 0.0
H1201 H 0.37452 0.8133 0.60603 0.0
H1202 H 0.40892 0.84425 0.68597 0.0
H1203 H 0.39767 0.83924 0.72407 0.0
C1204 C 0.51741 1.0094 0.78976 0.0
C1205 C 0.5397 0.02889 0.77481 0.0
C1206 C 0.54275 0.07037 0.81586 0.0
C1207 C 0.52259 0.05022 0.83241 0.0
N1208 N 0.48396 1.00535 0.83253 0.0
N1209 N 0.5633 0.07972 0.76555 0.0
C1210 C 0.50732 1.02115 0.81795 0.0
C1211 C 0.54881 0.06012 0.78517 0.0
N1212 N 0.50786 0.97955 0.77831 0.0
N1213 N 0.5578 0.09833 0.83038 0.0
H1214 H 0.56666 0.07243 0.74238 0.0
H1215 H 0.56862 0.1032 0.77061 0.0
H1216 H 0.55375 0.10682 0.85283 0.0
H1217 H 0.57574 0.11239 0.82108 0.0
H1218 H 0.49466 0.96316 0.79022 0.0
H1219 H 0.51424 0.97089 0.75704 0.0
H1220 H 0.46993 0.98434 0.82336 0.0
H1221 H 0.46993 0.98434 0.82336 0.0
C1222 C 0.2894 0.38049 0.15667 0.0
C1223 C 0.31669 0.39499 0.14354 0.0
C1224 C 0.35001 0.3799 0.19165 0.0
C1225 C 0.32277 0.36635 0.20541 0.0
N1226 N 0.26624 0.35831 0.20229 0.0
N1227 N 0.37317 0.41268 0.15278 0.0
C1228 C 0.29243 0.36793 0.18809 0.0
C1229 C 0.34695 0.39617 0.16259 0.0
N1230 N 0.26012 0.3786 0.13883 0.0
N1231 N 0.37903 0.3752 0.20489 0.0
H1232 H 0.37211 0.42371 0.13146 0.0
H1233 H 0.39548 0.41762 0.16703 0.0
H1234 H 0.38211 0.36222 0.22452 0.0
H1235 H 0.39949 0.38128 0.19453 0.0
H1236 H 0.23949 0.36505 0.14393 0.0
H1237 H 0.25657 0.38991 0.1179 0.0
H1238 H 0.24359 0.36118 0.19317 0.0
H1239 H 0.26751 0.34953 0.22493 0.0
C1240 C 0.32877 1.00651 0.09134 0.0
C1241 C 0.31784 0.97664 0.09972 0.0
C1242 C 0.27274 0.99232 0.1201 0.0
C1243 C 0.28245 1.02172 0.10976 0.0
N1244 N 0.31813 0.05681 0.08378 0.0
N1245 N 0.27774 0.93955 0.11774 0.0
C1246 C 0.31008 0.02881 0.09489 0.0
C1247 C 0.28948 0.96916 0.11316 0.0
N1248 N 0.35755 1.01374 0.08101 0.0
N1249 N 0.24739 0.98649 0.13644 0.0
H1250 H 0.28939 0.92198 0.11298 0.0
H1251 H 0.25538 0.93184 0.1238 0.0
H1252 H 0.23293 1.00194 0.13994 0.0
H1253 H 0.24156 0.96688 0.14816 0.0
H1254 H 0.36879 0.03577 0.07815 0.0
H1255 H 0.37138 0.99778 0.07706 0.0
H1256 H 0.33546 0.06233 0.06907 0.0
H1257 H 0.30638 0.07441 0.08804 0.0
C1258 C 0.7486 0.6285 0.072 0.0
C1259 C 0.75667 0.64564 0.04546 0.0
C1260 C 0.69951 0.63087 0.02034 0.0
C1261 C 0.69172 0.61224 0.04604 0.0
N1262 N 0.71203 0.58873 0.0927 0.0
N1263 N 0.73988 0.65836 0.99158 0.0
C1264 C 0.71725 0.60989 0.07083 0.0
C1265 C 0.73211 0.64505 0.01874 0.0
N1266 N 0.77092 0.63035 0.09898 0.0
N1267 N 0.67554 0.63697 0.99845 0.0
H1268 H 0.76296 0.66928 0.98993 0.0
H1269 H 0.72428 0.65619 0.96982 0.0
H1270 H 0.6517 0.62833 0.99908 0.0
H1271 H 0.67898 0.653 0.9816 0.0
H1272 H 0.76581 0.62206 0.12085 0.0
H1273 H 0.79432 0.64182 0.10006 0.0
H1274 H 0.73001 0.58346 0.10929 0.0
H1275 H 0.69021 0.57413 0.09208 0.0
C1276 C 0.80435 0.5556 0.30766 0.0
C1277 C 0.8071 0.56145 0.34184 0.0
C1278 C 0.83773 0.52167 0.35038 0.0
C1279 C 0.8319 0.51366 0.31638 0.0
N1280 N 0.80582 0.51965 0.2628 0.0
N1281 N 0.82208 0.54752 0.39602 0.0
C1282 C 0.81415 0.5297 0.295 0.0
C1283 C 0.82273 0.54388 0.36335 0.0
N1284 N 0.79363 0.57545 0.28733 0.0
N1285 N 0.8581 0.50847 0.37014 0.0
H1286 H 0.81097 0.56335 0.40642 0.0
H1287 H 0.83007 0.5331 0.41248 0.0
H1288 H 0.86952 0.49204 0.36144 0.0
H1289 H 0.86585 0.51563 0.39463 0.0
H1290 H 0.79432 0.57402 0.26243 0.0
H1291 H 0.78679 0.59509 0.29564 0.0
H1292 H 0.78983 0.52837 0.24685 0.0
H1293 H 0.81286 0.50091 0.25249 0.0
C1294 C 0.95449 0.51222 0.57448 0.0
C1295 C 0.94991 0.48088 0.56405 0.0
C1296 C 0.99597 0.49173 0.53578 0.0
C1297 C 1.00329 0.52186 0.55046 0.0
N1298 N 0.99119 0.56078 0.58576 0.0
N1299 N 0.96862 0.43998 0.53805 0.0
C1300 C 0.98292 0.5322 0.57025 0.0
C1301 C 0.97114 0.4704 0.54533 0.0
N1302 N 0.93113 0.52313 0.58717 0.0
N1303 N 1.01234 0.48372 0.51214 0.0
H1304 H 0.95121 0.4235 0.54521 0.0
H1305 H 0.98553 0.43095 0.52754 0.0
H1306 H 1.03024 0.49909 0.50418 0.0
H1307 H 1.00619 0.46287 0.49833 0.0
H1308 H 0.93182 0.54617 0.59217 0.0
H1309 H 0.90955 0.50943 0.58973 0.0
H1310 H 0.97926 0.56835 0.60355 0.0
H1311 H 1.01131 0.57634 0.58235 0.0
C1312 C 0.45429 0.14407 0.25198 0.0
C1313 C 0.47686 0.16559 0.27401 0.0
C1314 C 0.43613 0.19475 0.28148 0.0
C1315 C 0.41471 0.17545 0.25668 0.0
N1316 N 0.40419 0.13384 0.21524 0.0
N1317 N 0.49103 0.2156 0.30261 0.0
C1318 C 0.42406 0.15075 0.24088 0.0
C1319 C 0.46827 0.19212 0.28679 0.0
N1320 N 0.46096 0.11666 0.243 0.0
N1321 N 0.4258 0.21547 0.30031 0.0
H1322 H 0.51519 0.21539 0.30541 0.0
H1323 H 0.48626 0.23664 0.3095 0.0
H1324 H 0.40246 0.21855 0.2971 0.0
H1325 H 0.43989 0.22789 0.3208 0.0
H1326 H 0.44419 0.09896 0.22981 0.0
H1327 H 0.48241 0.11049 0.25113 0.0
H1328 H 0.41103 0.11766 0.20046 0.0
H1329 H 0.38145 0.13748 0.20742 0.0
C1330 C 0.46656 0.1434 0.5218 0.0
C1331 C 0.45427 0.14813 0.55128 0.0
C1332 C 0.49396 0.11936 0.57786 0.0
C1333 C 0.5083 0.11724 0.54917 0.0
N1334 N 0.51065 0.13338 0.49548 0.0
N1335 N 0.45945 0.14242 0.60867 0.0
C1336 C 0.49486 0.13063 0.52151 0.0
C1337 C 0.46901 0.13655 0.57956 0.0
N1338 N 0.4513 0.15143 0.49373 0.0
N1339 N 0.50334 0.10388 0.60347 0.0
H1340 H 0.44013 0.15262 0.61067 0.0
H1341 H 0.47156 0.13866 0.63095 0.0
H1342 H 0.52114 0.09139 0.60332 0.0
H1343 H 0.4918 0.10123 0.62367 0.0
H1344 H 0.4565 0.1459 0.4708 0.0
H1345 H 0.43145 0.1613 0.4932 0.0
H1346 H 0.50464 0.14558 0.4759 0.0
H1347 H 0.53206 0.12636 0.49527 0.0
C1348 C 0.88698 0.71889 0.35253 0.0
C1349 C 0.87016 0.71505 0.3791 0.0
C1350 C 0.86585 0.76836 0.37985 0.0
C1351 C 0.87263 0.76823 0.3476 0.0
N1352 N 0.89221 0.74421 0.30349 0.0
N1353 N 0.8545 0.73886 0.42546 0.0
C1354 C 0.88471 0.74407 0.33422 0.0
C1355 C 0.86344 0.74093 0.39546 0.0
N1356 N 0.9054 0.6989 0.34537 0.0
N1357 N 0.86233 0.79473 0.39533 0.0
H1358 H 0.85631 0.71997 0.43846 0.0
H1359 H 0.8458 0.75555 0.4375 0.0
H1360 H 0.86536 0.81517 0.38446 0.0
H1361 H 0.85889 0.79704 0.41945 0.0
H1362 H 0.91979 0.70173 0.32735 0.0
H1363 H 0.90939 0.68191 0.36052 0.0
H1364 H 0.89768 0.72545 0.29148 0.0
H1365 H 0.89096 0.76231 0.28919 0.0
C1366 C 1.04304 0.54922 0.88483 0.0
C1367 C 1.027 0.57303 0.8774 0.0
C1368 C 0.9757 0.5374 0.86977 0.0
C1369 C 0.99205 0.51304 0.8723 0.0
N1370 N 1.04062 0.49484 0.88462 0.0
N1371 N 0.97863 0.59134 0.86504 0.0
C1372 C 1.02559 0.51873 0.88098 0.0
C1373 C 0.9934 0.56762 0.87124 0.0
N1374 N 0.07495 0.55609 0.89553 0.0
N1375 N 0.94329 0.53154 0.86559 0.0
H1376 H 0.99083 0.61385 0.86797 0.0
H1377 H 0.95463 0.58899 0.85622 0.0
H1378 H 0.9295 0.50965 0.86262 0.0
H1379 H 0.92984 0.54819 0.86686 0.0
H1380 H 0.08832 0.54041 0.9036 0.0
H1381 H 0.0878 0.5784 0.89863 0.0
H1382 H 0.06509 0.49686 0.88788 0.0
H1383 H 1.02842 0.47241 0.88366 0.0
C1384 C 0.17105 0.96065 0.06361 0.0
C1385 C 0.1488 0.94085 0.07826 0.0
C1386 C 0.10546 0.95977 0.04732 0.0
C1387 C 0.12796 0.98474 0.04051 0.0
N1388 N 0.18042 1.00108 0.02789 0.0
N1389 N 0.09414 0.91953 0.08243 0.0
C1390 C 0.16037 0.98257 0.04404 0.0
C1391 C 0.11572 0.93922 0.06901 0.0
N1392 N 0.20239 0.95915 0.06968 0.0
N1393 N 0.07486 0.95494 0.03201 0.0
H1394 H 0.10029 0.9033 0.09753 0.0
H1395 H 0.0702 0.92047 0.08001 0.0
H1396 H 0.06785 0.96754 1.0131 0.0
H1397 H 0.05779 0.93593 0.03452 0.0
H1398 H 0.22059 0.97475 0.06269 0.0
H1399 H 0.21027 0.94199 0.08228 0.0
H1400 H 0.20365 0.99921 0.0266 0.0
H1401 H 0.17256 1.01681 1.01316 0.0
C1402 C 0.91594 0.21672 0.85365 0.0
C1403 C 0.94829 0.22527 0.8503 0.0
C1404 C 0.93443 0.25992 0.81008 0.0
C1405 C 0.90366 0.25625 0.81861 0.0
N1406 N 0.86564 0.23216 0.85143 0.0
N1407 N 0.98923 0.25986 0.8293 0.0
C1408 C 0.89422 0.23452 0.84075 0.0
C1409 C 0.95786 0.24786 0.82924 0.0
N1410 N 0.90606 0.19163 0.86932 0.0
N1411 N 0.9413 0.27496 0.78362 0.0
H1412 H 1.00765 0.25346 0.84427 0.0
H1413 H 0.99688 0.27866 0.81689 0.0
H1414 H 0.92426 0.28321 0.76842 0.0
H1415 H 0.9627 0.27605 0.77479 0.0
H1416 H 0.88228 0.18255 0.86996 0.0
H1417 H 0.92155 0.17816 0.87879 0.0
H1418 H 0.85964 0.21954 0.87062 0.0
H1419 H 0.84882 0.24468 0.84336 0.0
C1420 C 0.68052 0.31396 0.67145 0.0
C1421 C 0.68334 0.33397 0.64648 0.0
C1422 C 0.6778 0.29097 0.60613 0.0
C1423 C 0.67164 0.27101 0.6306 0.0
N1424 N 0.66146 0.26294 0.68514 0.0
N1425 N 0.68021 0.3419 0.58945 0.0
C1426 C 0.67131 0.28234 0.66288 0.0
C1427 C 0.68094 0.32264 0.61361 0.0
N1428 N 0.68799 0.3251 0.7034 0.0
N1429 N 0.68115 0.27969 0.57597 0.0
H1430 H 0.68223 0.36525 0.59395 0.0
H1431 H 0.67502 0.33453 0.56481 0.0
H1432 H 0.67816 0.25651 0.56939 0.0
H1433 H 0.68913 0.2933 0.55827 0.0
H1434 H 0.68951 0.31132 0.72256 0.0
H1435 H 0.6959 0.34814 0.71073 0.0
H1436 H 0.65752 0.27028 0.70806 0.0
H1437 H 0.65477 0.23949 0.67981 0.0
C1438 C 0.62427 0.78288 0.36987 0.0
C1439 C 0.61128 0.75543 0.38242 0.0
C1440 C 0.64677 0.72898 0.35664 0.0
C1441 C 0.66111 0.75688 0.34616 0.0
N1442 N 0.66832 0.81148 0.34801 0.0
N1443 N 0.61445 0.70404 0.39391 0.0
C1444 C 0.6514 0.7842 0.35449 0.0
C1445 C 0.62372 0.72887 0.37754 0.0
N1446 N 0.60971 0.80717 0.37089 0.0
N1447 N 0.65488 0.70266 0.34619 0.0
H1448 H 0.59922 0.70376 0.41112 0.0
H1449 H 0.62395 0.6846 0.39275 0.0
H1450 H 0.67232 0.70226 0.3315 0.0
H1451 H 0.64285 0.68118 0.35003 0.0
H1452 H 0.61604 0.82642 0.35869 0.0
H1453 H 0.58937 0.80715 0.38135 0.0
H1454 H 0.66447 0.8323 0.35692 0.0
H1455 H 0.68805 0.81347 0.3361 0.0
C1456 C 0.1064 0.21626 0.50138 0.0
C1457 C 0.08896 0.21786 0.46989 0.0
C1458 C 0.06823 0.16127 0.47014 0.0
C1459 C 0.08737 0.15908 0.50053 0.0
N1460 N 0.13108 0.18589 0.54032 0.0
N1461 N 0.0602 0.18802 0.42135 0.0
C1462 C 0.10815 0.18707 0.51474 0.0
C1463 C 0.07198 0.18915 0.45363 0.0
N1464 N 0.12062 0.24274 0.51946 0.0
N1465 N 0.04484 0.13708 0.45734 0.0
H1466 H 0.0636 0.20694 0.408 0.0
H1467 H 0.05057 0.16777 0.40703 0.0
H1468 H 1.04005 0.11712 0.4688 0.0
H1469 H 1.02789 0.13807 0.43733 0.0
H1470 H 0.13042 0.24372 0.54387 0.0
H1471 H 0.12038 0.2639 0.51066 0.0
H1472 H 0.14901 0.20441 0.54968 0.0
H1473 H 0.13438 0.16566 0.54986 0.0
C1474 C 0.71335 0.3532 0.213 0.0
C1475 C 0.6858 0.33075 0.21493 0.0
C1476 C 0.72026 0.30686 0.25458 0.0
C1477 C 0.74848 0.32677 0.2488 0.0
N1478 N 0.77049 0.36532 0.21574 0.0
N1479 N 0.66496 0.28314 0.23509 0.0
C1480 C 0.74454 0.34909 0.22633 0.0
C1481 C 0.68981 0.30683 0.23522 0.0
N1482 N 0.70978 0.37922 0.19892 0.0
N1483 N 0.7221 0.28864 0.27955 0.0
H1484 H 0.64259 0.28231 0.22184 0.0
H1485 H 0.66724 0.26329 0.24602 0.0
H1486 H 0.74319 0.28882 0.29499 0.0
H1487 H 0.70224 0.27584 0.28711 0.0
H1488 H 0.72836 0.3978 0.19961 0.0
H1489 H 0.68761 0.38357 0.18991 0.0
H1490 H 0.7689 0.37947 0.19692 0.0
H1491 H 0.79341 0.36203 0.22284 0.0
C1492 C 0.61988 0.94832 0.95925 0.0
C1493 C 0.60732 0.92003 0.97147 0.0
C1494 C 0.59579 0.95201 0.01848 0.0
C1495 C 0.60466 0.98002 1.00395 0.0
N1496 N 0.62281 1.00294 0.95756 0.0
N1497 N 0.57964 0.89648 1.01228 0.0
C1498 C 0.61588 0.9774 0.97346 0.0
C1499 C 0.59461 0.92245 1.0012 0.0
N1500 N 0.63736 0.94762 0.93456 0.0
N1501 N 0.58827 0.95341 0.04914 0.0
H1502 H 0.57869 0.87503 1.00096 0.0
H1503 H 0.56628 0.89625 0.03113 0.0
H1504 H 0.58749 0.97376 0.06186 0.0
H1505 H 0.58506 0.93478 0.06285 0.0
H1506 H 0.65006 0.96697 0.92639 0.0
H1507 H 0.64218 0.92753 0.9247 0.0
H1508 H 0.62687 1.0025 0.93354 0.0
H1509 H 0.62247 0.02455 0.96767 0.0
C1510 C 0.97056 0.85397 0.72237 0.0
C1511 C 0.98539 0.82843 0.71881 0.0
C1512 C 0.94821 0.80268 0.75491 0.0
C1513 C 0.93095 0.82686 0.755 0.0
N1514 N 0.92426 0.87385 0.73285 0.0
N1515 N 0.98532 0.7769 0.73067 0.0
C1516 C 0.94206 0.85211 0.73733 0.0
C1517 C 0.97344 0.80247 0.73509 0.0
N1518 N 0.98438 0.88086 0.71208 0.0
N1519 N 0.94115 0.78007 0.77472 0.0
H1520 H 1.00375 0.77617 0.71733 0.0
H1521 H 0.97584 0.75608 0.73851 0.0
H1522 H 0.92385 0.77989 0.78969 0.0
H1523 H 0.95419 0.76316 0.77865 0.0
H1524 H 0.97728 0.90124 0.71685 0.0
H1525 H 1.00522 0.88344 0.70193 0.0
H1526 H 0.92847 0.89066 0.71695 0.0
H1527 H 0.90337 0.87346 0.74246 0.0
C1528 C 0.2052 0.1232 0.95551 0.0
C1529 C 0.22272 0.09985 0.95266 0.0
C1530 C 0.17711 0.06287 0.96319 0.0
C1531 C 0.16359 0.08685 0.97439 0.0
N1532 N 0.1629 0.14021 0.97874 0.0
N1533 N 0.22625 0.04732 0.95795 0.0
C1534 C 0.17709 0.1172 0.9697 0.0
C1535 C 0.20882 0.06954 0.95729 0.0
N1536 N 0.21429 0.15038 0.94312 0.0
N1537 N 0.15983 0.03393 0.95765 0.0
H1538 H 0.25023 0.05143 0.95571 0.0
H1539 H 0.21773 0.02558 0.96435 0.0
H1540 H 0.13613 0.02819 0.96056 0.0
H1541 H 0.16821 1.01626 0.94686 0.0
H1542 H 0.20077 0.16713 0.94206 0.0
H1543 H 0.23346 0.15496 0.93054 0.0
H1544 H 0.17366 0.16307 0.97988 0.0
H1545 H 0.14063 0.13617 0.98611 0.0
C1546 C 0.85155 0.35213 0.64739 0.0
C1547 C 0.87971 0.37236 0.64306 0.0
C1548 C 0.90156 0.36908 0.70035 0.0
C1549 C 0.87198 0.35193 0.70554 0.0
N1550 N 0.81624 0.33378 0.685 0.0
N1551 N 0.92884 0.40545 0.66811 0.0
C1552 C 0.84623 0.34527 0.67933 0.0
C1553 C 0.90405 0.38229 0.67027 0.0
N1554 N 0.83026 0.33846 0.62097 0.0
N1555 N 0.92767 0.37194 0.72362 0.0
H1556 H 0.93109 0.41675 0.64719 0.0
H1557 H 0.94537 0.41562 0.68814 0.0
H1558 H 0.92712 0.36192 0.74551 0.0
H1559 H 0.95047 0.38158 0.71977 0.0
H1560 H 0.81092 0.32126 0.62268 0.0
H1561 H 0.83375 0.34183 0.59711 0.0
H1562 H 0.79627 0.33147 0.66731 0.0
H1563 H 0.81077 0.32976 0.70809 0.0
C1564 C 0.62171 0.16051 0.43242 0.0
C1565 C 0.59153 0.16518 0.41853 0.0
C1566 C 0.56608 0.11998 0.44167 0.0
C1567 C 0.59547 0.11928 0.46087 0.0
N1568 N 0.65183 0.1376 0.47415 0.0
N1569 N 0.53441 0.15083 0.4117 0.0
C1570 C 0.62358 0.13899 0.45586 0.0
C1571 C 0.56351 0.14503 0.42314 0.0
N1572 N 0.64842 0.17636 0.42279 0.0
N1573 N 0.54053 0.09701 0.44146 0.0
H1574 H 0.5313 0.16903 0.3981 0.0
H1575 H 0.5133 0.13873 0.41748 0.0
H1576 H 0.54126 0.07889 0.4557 0.0
H1577 H 0.51955 0.09466 0.42517 0.0
H1578 H 0.67098 0.17213 0.42985 0.0
H1579 H 0.6476 0.19191 0.40523 0.0
H1580 H 0.67258 0.15369 0.47456 0.0
H1581 H 0.65416 0.1208 0.49004 0.0
C1582 C 0.84899 0.74296 0.15842 0.0
C1583 C 0.86428 0.75852 0.13427 0.0
C1584 C 0.87894 0.80502 0.17349 0.0
C1585 C 0.86427 0.7893 0.198 0.0
N1586 N 0.84164 0.7409 0.21528 0.0
N1587 N 0.89985 0.80277 0.12227 0.0
C1588 C 0.85113 0.75757 0.19076 0.0
C1589 C 0.88104 0.78906 0.14302 0.0
N1590 N 0.83112 0.71446 0.15015 0.0
N1591 N 0.88947 0.83574 0.17841 0.0
H1592 H 0.90222 0.79184 0.10028 0.0
H1593 H 0.91546 0.82358 0.12817 0.0
H1594 H 0.88853 0.84834 0.19982 0.0
H1595 H 0.89663 0.84923 0.16028 0.0
H1596 H 0.8159 0.70323 0.16472 0.0
H1597 H 0.83004 0.70268 0.12765 0.0
H1598 H 0.83492 0.71734 0.21295 0.0
H1599 H 0.84345 0.75034 0.23906 0.0
C1600 C 0.22428 0.06155 0.77776 0.0
C1601 C 0.22355 0.07549 0.80885 0.0
C1602 C 0.18402 0.1034 0.7854 0.0
C1603 C 0.18322 0.08808 0.75456 0.0
N1604 N 0.19804 0.04872 0.722 0.0
N1605 N 0.19847 0.10473 0.84376 0.0
C1606 C 0.20208 0.06601 0.75088 0.0
C1607 C 0.20204 0.09486 0.81313 0.0
N1608 N 0.24659 0.0446 0.77386 0.0
N1609 N 0.16867 0.12702 0.78798 0.0
H1610 H 0.21143 0.09921 0.86478 0.0
H1611 H 0.18076 0.1162 0.84848 0.0
H1612 H 0.15533 0.13414 0.76818 0.0
H1613 H 0.17138 0.14129 0.80916 0.0
H1614 H 0.25075 0.03665 0.75127 0.0
H1615 H 0.26243 0.04008 0.79331 0.0
H1616 H 0.20872 0.03022 0.71876 0.0
H1617 H 0.1819 0.05129 0.70185 0.0
C1618 C 0.82807 0.39355 0.42547 0.0
C1619 C 0.84321 0.38053 0.45212 0.0
C1620 C 0.85071 0.3393 0.41441 0.0
C1621 C 0.83587 0.35252 0.38776 0.0
N1622 N 0.80454 0.38822 0.36836 0.0
N1623 N 0.86328 0.33797 0.47293 0.0
C1624 C 0.82278 0.37849 0.39349 0.0
C1625 C 0.85241 0.35227 0.44689 0.0
N1626 N 0.81914 0.42067 0.43076 0.0
N1627 N 0.86515 0.31557 0.40859 0.0
H1628 H 0.86643 0.34732 0.49687 0.0
H1629 H 0.8669 0.31581 0.47113 0.0
H1630 H 0.86417 0.30512 0.38545 0.0
H1631 H 0.87996 0.30742 0.4263 0.0
H1632 H 0.81202 0.43361 0.41228 0.0
H1633 H 0.81992 0.43093 0.454 0.0
H1634 H 0.79187 0.40533 0.37105 0.0
H1635 H 0.79984 0.37735 0.34491 0.0
C1636 C 0.62521 0.17112 0.25372 0.0
C1637 C 0.6382 0.17006 0.28653 0.0
C1638 C 0.68194 0.14969 0.26902 0.0
C1639 C 0.66457 0.14383 0.23721 0.0
N1640 N 0.61823 0.14772 0.1991 0.0
N1641 N 0.6798 0.15947 0.32633 0.0
C1642 C 0.6362 0.1549 0.22919 0.0
C1643 C 0.66734 0.16043 0.29454 0.0
N1644 N 0.60196 0.18722 0.24623 0.0
N1645 N 0.71198 0.14431 0.27467 0.0
H1646 H 0.66994 0.16737 0.34567 0.0
H1647 H 0.69896 0.14936 0.33358 0.0
H1648 H 0.72282 0.13637 0.25605 0.0
H1649 H 0.727 0.15037 0.29678 0.0
H1650 H 0.59351 0.19109 0.2225 0.0
H1651 H 0.59365 0.1994 0.26406 0.0
H1652 H 0.59558 0.15222 0.19343 0.0
H1653 H 0.62474 0.13533 0.18027 0.0
C1654 C 0.84678 0.77341 0.94049 0.0
C1655 C 0.85797 0.74559 0.94085 0.0
C1656 C 0.87323 0.75544 0.88581 0.0
C1657 C 0.85849 0.78112 0.88369 0.0
N1658 N 0.82942 0.81339 0.90955 0.0
N1659 N 0.8816 0.71008 0.91232 0.0
C1660 C 0.84524 0.78999 0.91147 0.0
C1661 C 0.87115 0.73679 0.913 0.0
N1662 N 0.83733 0.78405 0.96801 0.0
N1663 N 0.89068 0.74959 0.86229 0.0
H1664 H 0.88345 0.69743 0.93244 0.0
H1665 H 0.88721 0.69978 0.89155 0.0
H1666 H 0.8937 0.76327 0.84316 0.0
H1667 H 0.90471 0.73329 0.86328 0.0
H1668 H 0.83199 0.80544 0.97126 0.0
H1669 H 0.83726 0.77229 0.98884 0.0
H1670 H 0.81576 0.81896 0.92665 0.0
H1671 H 0.82796 0.82607 0.88945 0.0
C1672 C 0.89487 0.15809 0.97405 0.0
C1673 C 0.89686 0.17086 1.00644 0.0
C1674 C 0.93126 0.1364 0.02611 0.0
C1675 C 0.93264 0.1267 0.99348 0.0
N1676 N 0.91787 0.12952 0.93602 0.0
N1677 N 0.91985 0.1749 0.06304 0.0
C1678 C 0.915 0.13788 0.96732 0.0
C1679 C 0.91565 0.16059 0.03249 0.0
N1680 N 0.87273 0.16421 0.94997 0.0
N1681 N 0.94449 0.12216 0.05098 0.0
H1682 H 0.90903 0.19286 0.06864 0.0
H1683 H 0.93611 0.17075 0.08224 0.0
H1684 H 0.95619 0.10443 0.04717 0.0
H1685 H 0.94156 0.12609 0.0751 0.0
H1686 H 0.86797 0.15329 0.92661 0.0
H1687 H 0.85682 0.17808 0.95405 0.0
H1688 H 0.90841 0.1394 0.91597 0.0
H1689 H 0.93136 0.11379 0.93013 0.0
C1690 C 0.4453 0.5121 0.07845 0.0
C1691 C 0.42419 0.50249 0.04873 0.0
C1692 C 0.46722 0.52803 0.01956 0.0
C1693 C 0.48958 0.53445 0.04892 0.0
N1694 N 0.49951 0.52906 0.10653 0.0
N1695 N 0.41619 0.50043 0.99041 0.0
C1696 C 0.47829 0.52588 0.07846 0.0
C1697 C 0.4356 0.51035 0.0192 0.0
N1698 N 0.43368 0.50806 0.107 0.0
N1699 N 0.47569 0.54008 0.99197 0.0
H1700 H 0.39244 0.49005 0.98928 0.0
H1701 H 0.42385 0.50124 0.96787 0.0
H1702 H 0.49786 0.55366 0.99137 0.0
H1703 H 0.45996 0.53915 0.97051 0.0
H1704 H 0.44626 0.5172 0.12962 0.0
H1705 H 0.41018 0.49782 0.10774 0.0
H1706 H 0.49401 0.52011 0.12796 0.0
H1707 H 0.52356 0.53821 0.10783 0.0
C1708 C 0.37922 0.60336 0.73767 0.0
C1709 C 0.38944 0.61217 0.70807 0.0
C1710 C 0.36674 0.65768 0.71185 0.0
C1711 C 0.35608 0.64844 0.74109 0.0
N1712 N 0.3458 0.61002 0.77823 0.0
N1713 N 0.38869 0.64422 0.66384 0.0
C1714 C 0.3602 0.62039 0.75276 0.0
C1715 C 0.38186 0.63831 0.69414 0.0
N1716 N 0.38911 0.57968 0.75232 0.0
N1717 N 0.3632 0.68532 0.70168 0.0
H1718 H 0.40002 0.6305 0.65054 0.0
H1719 H 0.38116 0.66125 0.65085 0.0
H1720 H 0.35116 0.6995 0.71342 0.0
H1721 H 0.37341 0.69497 0.68262 0.0
H1722 H 0.38576 0.57459 0.77578 0.0
H1723 H 0.40294 0.56633 0.74217 0.0
H1724 H 0.34496 0.58823 0.7856 0.0
H1725 H 0.3322 0.62228 0.79033 0.0
C1726 C 0.21639 0.6644 0.5178 0.0
C1727 C 0.23787 0.67172 0.54729 0.0
C1728 C 0.20612 0.63149 0.57267 0.0
C1729 C 0.18448 0.62374 0.54299 0.0
N1730 N 0.17583 0.62606 0.48484 0.0
N1731 N 0.25905 0.65563 0.59845 0.0
C1732 C 0.19173 0.63818 0.51475 0.0
C1733 C 0.23451 0.65327 0.57342 0.0
N1734 N 0.21885 0.68297 0.4931 0.0
N1735 N 0.19933 0.61937 0.60069 0.0
H1736 H 0.28078 0.67038 0.59908 0.0
H1737 H 0.25922 0.64059 0.61652 0.0
H1738 H 0.18019 0.60206 0.60167 0.0
H1739 H 0.2119 0.62787 0.62355 0.0
H1740 H 0.20175 0.68052 0.47242 0.0
H1741 H 0.2367 0.7023 0.4944 0.0
H1742 H 0.18182 0.63409 0.46314 0.0
H1743 H 0.15916 0.6057 0.48161 0.0
C1744 C 0.73486 1.00792 0.79585 0.0
C1745 C 0.70706 0.98481 0.79058 0.0
C1746 C 0.73569 0.95099 0.82121 0.0
C1747 C 0.76451 0.97188 0.82075 0.0
N1748 N 0.79223 1.02078 0.80952 0.0
N1749 N 0.6803 0.93418 0.79797 0.0
C1750 C 0.76423 1.00075 0.80906 0.0
C1751 C 0.70703 0.95654 0.80391 0.0
N1752 N 0.73291 0.03677 0.78857 0.0
N1753 N 0.73585 0.9256 0.83762 0.0
H1754 H 0.65882 0.93718 0.78541 0.0
H1755 H 0.67976 0.91198 0.80373 0.0
H1756 H 0.75653 0.92006 0.84928 0.0
H1757 H 0.71535 0.91138 0.84212 0.0
H1758 H 0.75168 0.05532 0.79426 0.0
H1759 H 0.71151 0.04269 0.77946 0.0
H1760 H 0.79425 0.04067 0.79776 0.0
H1761 H 0.81387 1.01678 0.82078 0.0
C1762 C 0.70088 0.99279 0.50606 0.0
C1763 C 0.72413 0.99394 0.53452 0.0
C1764 C 0.69453 0.02776 0.56258 0.0
C1765 C 0.67036 0.02552 0.5346 0.0
N1766 N 0.65474 1.00966 0.47772 0.0
N1767 N 0.73991 1.01015 0.59123 0.0
C1768 C 0.67468 1.00875 0.50594 0.0
C1769 C 0.72026 1.01127 0.56289 0.0
N1770 N 0.7037 0.97586 0.47879 0.0
N1771 N 0.69311 0.04593 0.58941 0.0
H1772 H 0.75902 0.99921 0.59243 0.0
H1773 H 0.73625 1.01818 0.61398 0.0
H1774 H 0.6736 0.05545 0.59208 0.0
H1775 H 0.71176 0.05273 0.60854 0.0
H1776 H 0.68614 0.96988 0.45858 0.0
H1777 H 0.72374 0.96684 0.47664 0.0
H1778 H 0.65753 1.00083 0.45499 0.0
H1779 H 0.63623 1.0214 0.47639 0.0
C1780 C 0.36979 0.41859 0.68935 0.0
C1781 C 0.38268 0.44747 0.70643 0.0
C1782 C 0.36699 0.42828 0.75691 0.0
C1783 C 0.35567 0.39919 0.74015 0.0
N1784 N 0.33954 0.36735 0.68992 0.0
N1785 N 0.38794 0.48169 0.75497 0.0
C1786 C 0.35473 0.39462 0.70609 0.0
C1787 C 0.37925 0.45301 0.73965 0.0
N1788 N 0.37259 0.41403 0.65727 0.0
N1789 N 0.36716 0.43188 0.78978 0.0
H1790 H 0.39943 0.5004 0.74486 0.0
H1791 H 0.38209 0.4877 0.77746 0.0
H1792 H 0.35598 0.41492 0.8027 0.0
H1793 H 0.37938 0.45103 0.80465 0.0
H1794 H 0.36748 0.39284 0.64425 0.0
H1795 H 0.38112 0.43163 0.64362 0.0
H1796 H 0.33552 0.36309 0.66475 0.0
H1797 H 0.3289 0.34919 0.70162 0.0
C1798 C 0.14363 0.59411 0.26344 0.0
C1799 C 0.16124 0.57207 0.27376 0.0
C1800 C 0.20729 0.61227 0.29512 0.0
C1801 C 0.19133 0.63393 0.28059 0.0
N1802 N 0.14381 0.64673 0.25294 0.0
N1803 N 0.20884 0.56091 0.30451 0.0
C1804 C 0.15907 0.62526 0.26582 0.0
C1805 C 0.19225 0.58129 0.29164 0.0
N1806 N 0.11207 0.58493 0.25158 0.0
N1807 N 0.23774 0.62086 0.31095 0.0
H1808 H 0.20001 0.5376 0.30327 0.0
H1809 H 0.20001 0.5376 0.30327 0.0
H1810 H 0.25024 0.64327 0.31379 0.0
H1811 H 0.25037 0.60543 0.32143 0.0
H1812 H 0.09687 0.59959 0.24532 0.0
H1813 H 0.10045 0.56226 0.25044 0.0
H1814 H 0.12156 0.64186 0.23866 0.0
H1815 H 0.15401 0.66983 0.25582 0.0
C1816 C 0.56214 0.71132 0.53912 0.0
C1817 C 0.57532 0.72164 0.51156 0.0
C1818 C 0.62362 0.7034 0.53057 0.0
C1819 C 0.60743 0.68709 0.55305 0.0
N1820 N 0.56515 0.67957 0.5845 0.0
N1821 N 0.61991 0.73082 0.48239 0.0
C1822 C 0.57812 0.693 0.55968 0.0
C1823 C 0.60683 0.71931 0.50811 0.0
N1824 N 0.53428 0.71863 0.545 0.0
N1825 N 0.65469 0.70224 0.53017 0.0
H1826 H 0.60869 0.74359 0.46627 0.0
H1827 H 0.64123 0.72692 0.47624 0.0
H1828 H 0.66673 0.69025 0.54673 0.0
H1829 H 0.66903 0.7148 0.51571 0.0
H1830 H 0.52372 0.71295 0.56528 0.0
H1831 H 0.52244 0.73209 0.53016 0.0
H1832 H 0.54262 0.68049 0.58957 0.0
H1833 H 0.57756 0.66716 0.6002 0.0
C1834 C 0.78382 0.43483 0.7553 0.0
C1835 C 0.75136 0.42433 0.75724 0.0
C1836 C 0.76489 0.38385 0.78989 0.0
C1837 C 0.79622 0.391 0.78301 0.0
N1838 N 0.83612 0.42285 0.75856 0.0
N1839 N 0.71013 0.38628 0.77307 0.0
C1840 C 0.80609 0.41671 0.766 0.0
C1841 C 0.74162 0.39842 0.77409 0.0
N1842 N 0.79322 0.46215 0.74333 0.0
N1843 N 0.75745 0.36298 0.81156 0.0
H1844 H 0.69194 0.39552 0.76119 0.0
H1845 H 0.70191 0.36536 0.78153 0.0
H1846 H 0.77429 0.35222 0.82374 0.0
H1847 H 0.73571 0.35879 0.81995 0.0
H1848 H 0.81685 0.47245 0.74373 0.0
H1849 H 0.77726 0.47583 0.73563 0.0
H1850 H 0.84352 0.43885 0.74273 0.0
H1851 H 0.85337 0.41081 0.76697 0.0
C1852 C 0.98674 0.33386 0.92507 0.0
C1853 C 0.99557 0.31952 0.95341 0.0
C1854 C 1.0142 0.36888 0.98467 0.0
C1855 C 1.00847 0.38317 0.95558 0.0
N1856 N 0.99276 0.38011 0.89753 0.0
N1857 N 1.01947 0.32235 1.00954 0.0
C1858 C 0.99544 0.36591 0.92563 0.0
C1859 C 1.00971 0.33675 0.9831 0.0
N1860 N 0.97013 0.31683 0.89765 0.0
N1861 N 1.02338 0.38605 1.0138 0.0
H1862 H 1.01497 0.29877 1.00973 0.0
H1863 H 1.03341 0.33358 0.0307 0.0
H1864 H 1.02753 0.40972 0.01579 0.0
H1865 H 1.02472 0.37697 0.03623 0.0
H1866 H 0.95991 0.3261 0.87749 0.0
H1867 H 0.96439 0.29319 0.89579 0.0
H1868 H 0.98718 0.36861 0.87445 0.0
H1869 H 0.9985 0.40363 0.89706 0.0
C1870 C 0.07642 0.95785 0.20295 0.0
C1871 C 0.09772 0.93802 0.21038 0.0
C1872 C 0.0701 0.92084 0.25519 0.0
C1873 C 0.04586 0.93635 0.24399 0.0
N1874 N 1.02453 0.96886 0.2068 0.0
N1875 N 0.1113 0.89651 0.24043 0.0
C1876 C 0.0487 0.9549 0.21788 0.0
C1877 C 0.09402 0.91872 0.23601 0.0
N1878 N 0.08306 0.97985 0.18224 0.0
N1879 N 0.06989 0.90755 0.28386 0.0
H1880 H 0.12792 0.89242 0.22599 0.0
H1881 H 0.10672 0.87976 0.25633 0.0
H1882 H 0.05224 0.90795 0.29828 0.0
H1883 H 0.08883 0.89876 0.29486 0.0
H1884 H 0.06982 0.99657 0.178 0.0
H1885 H 0.10366 0.98318 0.17165 0.0
H1886 H 1.02355 0.97988 0.18552 0.0
H1887 H 1.00453 0.968 0.21817 0.0
C1888 C 0.56516 0.43555 0.11602 0.0
C1889 C 0.59229 0.42158 0.11944 0.0
C1890 C 0.6205 0.46744 0.09471 0.0
C1891 C 0.59297 0.4808 0.09 0.0
N1892 N 0.53689 0.47254 0.09089 0.0
N1893 N 0.64437 0.4233 0.1059 0.0
C1894 C 0.56479 0.4633 0.09929 0.0
C1895 C 0.6194 0.43745 0.10691 0.0
N1896 N 0.53977 0.42295 0.12999 0.0
N1897 N 0.64857 0.48416 0.08902 0.0
H1898 H 0.64437 0.40183 0.11404 0.0
H1899 H 0.66355 0.43128 0.0942 0.0
H1900 H 0.65046 0.50558 0.08035 0.0
H1901 H 0.67038 0.47808 0.09541 0.0
H1902 H 0.5208 0.43345 0.13242 0.0
H1903 H 0.53873 0.40268 0.14109 0.0
H1904 H 0.51487 0.45986 0.09355 0.0
H1905 H 0.53551 0.49165 0.07824 0.0
C1906 C 0.99074 0.3458 0.36765 0.0
C1907 C 1.00265 0.31888 0.37355 0.0
C1908 C 0.95245 0.28974 0.34 0.0
C1909 C 0.93924 0.31642 0.33756 0.0
N1910 N 0.94505 0.36922 0.35573 0.0
N1911 N 0.99228 0.26434 0.36755 0.0
C1912 C 0.95834 0.34426 0.35306 0.0
C1913 C 0.9828 0.29061 0.36009 0.0
N1914 N 1.01086 0.37331 0.37522 0.0
N1915 N 0.93646 0.26356 0.32224 0.0
H1916 H 1.01418 0.2641 0.38131 0.0
H1917 H 0.97769 0.24295 0.36201 0.0
H1918 H 0.91471 0.2621 0.30741 0.0
H1919 H 0.9459 0.24415 0.31999 0.0
H1920 H 1.00496 0.39367 0.36852 0.0
H1921 H 1.03465 0.3754 0.38493 0.0
H1922 H 0.95644 0.38915 0.36983 0.0
H1923 H 0.92139 0.36906 0.34688 0.0
C1924 C 0.1108 0.70882 0.62741 0.0
C1925 C 0.08653 0.72545 0.61749 0.0
C1926 C 0.05894 0.67773 0.58197 0.0
C1927 C 0.08566 0.66313 0.58823 0.0
N1928 N 0.14053 0.67093 0.61272 0.0
N1929 N 1.03822 0.72469 0.58129 0.0
C1930 C 0.11236 0.68038 0.61002 0.0
C1931 C 0.06073 0.70942 0.59375 0.0
N1932 N 0.13239 0.71977 0.65453 0.0
N1933 N 1.03101 0.66099 0.56576 0.0
H1934 H 1.03839 0.74701 0.5895 0.0
H1935 H 1.02089 0.716 0.56137 0.0
H1936 H 1.02823 0.63809 0.55805 0.0
H1937 H 1.00987 0.66884 0.56304 0.0
H1938 H 0.14862 0.7075 0.66506 0.0
H1939 H 0.13145 0.73931 0.66872 0.0
H1940 H 0.16157 0.68384 0.6256 0.0
H1941 H 0.14382 0.65216 0.59887 0.0
C1942 C 0.69748 0.83796 0.84093 0.0
C1943 C 0.69637 0.82321 0.87043 0.0
C1944 C 0.74506 0.80434 0.85894 0.0
C1945 C 0.74847 0.82215 0.83181 0.0
N1946 N 0.72729 0.85704 0.79793 0.0
N1947 N 0.72166 0.79345 0.908 0.0
C1948 C 0.7243 0.83912 0.82309 0.0
C1949 C 0.72091 0.80667 0.8793 0.0
N1950 N 0.6725 0.85069 0.82961 0.0
N1951 N 0.76468 0.78435 0.86507 0.0
H1952 H 0.70355 0.79239 0.9221 0.0
H1953 H 0.74087 0.7849 0.9187 0.0
H1954 H 0.78261 0.78226 0.85147 0.0
H1955 H 0.76173 0.76816 0.88181 0.0
H1956 H 0.6692 0.85846 0.80661 0.0
H1957 H 0.65345 0.85085 0.84222 0.0
H1958 H 0.71273 0.87226 0.79163 0.0
H1959 H 0.7457 0.85779 0.78425 0.0
C1960 C 0.49582 0.55512 0.60634 0.0
C1961 C 0.50072 0.53595 0.63146 0.0
C1962 C 0.55792 0.55602 0.63808 0.0
C1963 C 0.55306 0.57526 0.61284 0.0
N1964 N 0.51575 0.60233 0.58521 0.0
N1965 N 0.53764 0.50897 0.65982 0.0
C1966 C 0.52152 0.57739 0.60019 0.0
C1967 C 0.53215 0.53363 0.64407 0.0
N1968 N 0.46696 0.55096 0.5871 0.0
N1969 N 0.58631 0.56073 0.65822 0.0
H1970 H 0.5199 0.48979 0.65989 0.0
H1971 H 0.56029 0.50551 0.66814 0.0
H1972 H 0.60414 0.57974 0.65776 0.0
H1973 H 0.59014 0.54877 0.67859 0.0
H1974 H 0.46287 0.56277 0.56664 0.0
H1975 H 0.4486 0.53278 0.58898 0.0
H1976 H 0.49298 0.606 0.57781 0.0
H1977 H 0.53346 0.62146 0.58509 0.0
C1978 C 0.79153 0.27328 0.92313 0.0
C1979 C 0.81752 0.2739 0.94825 0.0
C1980 C 0.85409 0.29093 0.91008 0.0
C1981 C 0.82818 0.29415 0.88635 0.0
N1982 N 0.77235 0.29479 0.87417 0.0
N1983 N 0.87361 0.29057 0.9673 0.0
C1984 C 0.79691 0.28716 0.89397 0.0
C1985 C 0.84883 0.28487 0.9422 0.0
N1986 N 0.76187 0.2581 0.92616 0.0
N1987 N 0.88357 0.29209 0.9018 0.0
H1988 H 0.87072 0.28771 0.99141 0.0
H1989 H 0.89644 0.30134 0.96465 0.0
H1990 H 0.88855 0.29475 0.87832 0.0
H1991 H 0.90229 0.28676 0.91739 0.0
H1992 H 0.74286 0.25445 0.90717 0.0
H1993 H 0.75694 0.24624 0.94618 0.0
H1994 H 0.74972 0.29287 0.88037 0.0
H1995 H 0.7753 0.3061 0.85337 0.0
C1996 C 0.05888 0.48834 0.15794 0.0
C1997 C 0.08179 0.46982 0.15815 0.0
C1998 C 0.08838 0.48045 0.10243 0.0
C1999 C 0.07068 0.50351 0.10496 0.0
N2000 N 1.03629 0.52815 0.13244 0.0
N2001 N 0.11701 0.44602 0.13083 0.0
C2002 C 0.05449 0.50662 0.13169 0.0
C2003 C 0.09567 0.4647 0.13013 0.0
N2004 N 1.04212 0.48893 0.18326 0.0
N2005 N 0.0986 0.4742 0.07375 0.0
H2006 H 0.12149 0.43309 0.15032 0.0
H2007 H 0.13104 0.44408 0.11289 0.0
H2008 H 0.09333 0.48548 0.05316 0.0
H2009 H 0.10987 0.45632 0.06943 0.0
H2010 H 1.02353 0.50031 0.18378 0.0
H2011 H 0.04529 0.47599 0.20296 0.0
H2012 H 1.02661 0.53429 0.15263 0.0
H2013 H 1.03152 0.5406 0.11262 0.0
C2014 C 0.82028 0.8758 0.43852 0.0
C2015 C 0.82696 0.90814 0.4437 0.0
C2016 C 0.8368 0.90993 0.38601 0.0
C2017 C 0.82982 0.87756 0.38055 0.0
N2018 N 0.80729 0.8303 0.40062 0.0
N2019 N 0.83272 0.95522 0.41863 0.0
C2020 C 0.81899 0.86077 0.40645 0.0
C2021 C 0.8327 0.92483 0.41626 0.0
N2022 N 0.81687 0.8592 0.46463 0.0
N2023 N 0.84735 0.92684 0.36209 0.0
H2024 H 0.82843 0.96657 0.43953 0.0
H2025 H 0.83343 0.96849 0.39901 0.0
H2026 H 0.84754 0.91759 0.33867 0.0
H2027 H 0.85733 0.94992 0.36588 0.0
H2028 H 0.816 0.83591 0.46375 0.0
H2029 H 0.81716 0.86913 0.48789 0.0
H2030 H 0.79578 0.81731 0.41692 0.0
H2031 H 0.80688 0.81827 0.37846 0.0
C2032 C 0.52514 0.54776 0.77191 0.0
C2033 C 0.49216 0.54293 0.77314 0.0
C2034 C 0.50224 0.54899 0.83234 0.0
C2035 C 0.53501 0.55029 0.83151 0.0
N2036 N 0.57851 0.55212 0.80143 0.0
N2037 N 0.44918 0.54299 0.80386 0.0
C2038 C 0.54681 0.55049 0.80147 0.0
C2039 C 0.48082 0.54518 0.80309 0.0
N2040 N 0.53547 0.54988 0.74248 0.0
N2041 N 0.4903 0.54994 0.86081 0.0
H2042 H 0.43249 0.54078 0.78288 0.0
H2043 H 0.43986 0.54408 0.82554 0.0
H2044 H 0.50387 0.55235 0.88387 0.0
H2045 H 0.50387 0.55235 0.88387 0.0
H2046 H 0.55916 0.55503 0.73949 0.0
H2047 H 0.51995 0.54861 0.72074 0.0
H2048 H 0.58866 0.54939 0.78061 0.0
H2049 H 0.59489 0.55546 0.8228 0.0
C2050 C 0.86413 0.24447 0.15898 0.0
C2051 C 0.85051 0.25786 0.13172 0.0
C2052 C 0.83189 0.2919 0.16948 0.0
C2053 C 0.84989 0.28194 0.19652 0.0
N2054 N 0.88807 0.25193 0.21568 0.0
N2055 N 0.82646 0.29872 0.11194 0.0
C2056 C 0.86735 0.25904 0.19092 0.0
C2057 C 0.83575 0.2828 0.13722 0.0
N2058 N 0.87268 0.21707 0.1547 0.0
N2059 N 0.80977 0.30879 0.17438 0.0
H2060 H 0.82978 0.29364 0.08814 0.0
H2061 H 0.81851 0.31891 0.11524 0.0
H2062 H 0.80452 0.31421 0.19735 0.0
H2063 H 0.79401 0.31423 0.15546 0.0
H2064 H 0.87969 0.20492 0.17402 0.0
H2065 H 0.86926 0.20479 0.13208 0.0
H2066 H 0.90352 0.23744 0.21213 0.0
H2067 H 0.89231 0.26288 0.23903 0.0
C2068 C 0.11889 0.48299 0.33047 0.0
C2069 C 0.09542 0.46643 0.30537 0.0
C2070 C 0.05862 0.49912 0.31645 0.0
C2071 C 0.08069 0.51366 0.34356 0.0
N2072 N 0.13148 0.51975 0.3777 0.0
N2073 N 1.04362 0.46077 0.27235 0.0
C2074 C 0.11099 0.50602 0.35067 0.0
C2075 C 0.06577 0.47511 0.29765 0.0
N2076 N 0.14869 0.47679 0.33475 0.0
N2077 N 1.03018 0.50769 0.30891 0.0
H2078 H 0.04682 0.44304 0.25677 0.0
H2079 H 0.04682 0.44304 0.25677 0.0
H2080 H 1.02394 0.52553 0.32188 0.0
H2081 H 1.01318 0.49719 0.28931 0.0
H2082 H 0.16791 0.48998 0.35022 0.0
H2083 H 0.15499 0.45953 0.32096 0.0
H2084 H 0.15232 0.5129 0.38664 0.0
H2085 H 0.12695 0.53738 0.39245 0.0
C2086 C 0.83371 0.87894 0.64595 0.0
C2087 C 0.81277 0.89969 0.64085 0.0
C2088 C 0.8 0.89153 0.6973 0.0
C2089 C 0.81904 0.86906 0.70139 0.0
N2090 N 0.85417 0.84142 0.67874 0.0
N2091 N 0.7758 0.92557 0.66261 0.0
C2092 C 0.83594 0.86294 0.67538 0.0
C2093 C 0.79604 0.90588 0.66699 0.0
N2094 N 0.85177 0.87459 0.6225 0.0
N2095 N 0.78564 0.89938 0.72272 0.0
H2096 H 0.7746 0.93863 0.64278 0.0
H2097 H 0.75953 0.92858 0.6779 0.0
H2098 H 0.78637 0.88839 0.74408 0.0
H2099 H 0.77415 0.91754 0.7236 0.0
H2100 H 0.86976 0.86231 0.62498 0.0
H2101 H 0.8501 0.885 0.60081 0.0
H2102 H 0.86465 0.83298 0.66025 0.0
H2103 H 0.85801 0.83081 0.7001 0.0
C2104 C 0.79952 0.48203 0.62266 0.0
C2105 C 0.81554 0.48464 0.59524 0.0
C2106 C 0.79591 0.53104 0.58361 0.0
C2107 C 0.78307 0.53022 0.61311 0.0
N2108 N 0.77785 0.50801 0.66381 0.0
N2109 N 0.83428 0.51503 0.55332 0.0
C2110 C 0.78647 0.50661 0.63358 0.0
C2111 C 0.81518 0.51006 0.57664 0.0
N2112 N 0.79553 0.45554 0.63746 0.0
N2113 N 0.78878 0.55104 0.56165 0.0
H2114 H 0.84932 0.50067 0.54788 0.0
H2115 H 0.83743 0.53491 0.54152 0.0
H2116 H 0.77461 0.56667 0.56565 0.0
H2117 H 0.79461 0.55031 0.53827 0.0
H2118 H 0.78129 0.4513 0.65546 0.0
H2119 H 0.80366 0.43655 0.62943 0.0
H2120 H 0.78273 0.493 0.681 0.0
H2121 H 0.76859 0.52591 0.67284 0.0
C2122 C 0.24936 0.12388 0.56586 0.0
C2123 C 0.25571 0.14387 0.54114 0.0
C2124 C 0.19777 0.13125 0.51933 0.0
C2125 C 0.19148 0.10983 0.5429 0.0
N2126 N 0.21376 0.08207 0.58483 0.0
N2127 N 0.23606 0.16129 0.4904 0.0
C2128 C 0.21808 0.10518 0.56508 0.0
C2129 C 0.22986 0.14575 0.51672 0.0
N2130 N 0.27301 0.12358 0.59105 0.0
N2131 N 0.17295 0.13957 0.50062 0.0
H2132 H 0.25893 0.17197 0.48766 0.0
H2133 H 0.21924 0.16099 0.4699 0.0
H2134 H 0.14936 0.13062 0.50205 0.0
H2135 H 0.17563 0.15759 0.48601 0.0
H2136 H 0.26936 0.11271 0.61197 0.0
H2137 H 0.29602 0.13596 0.59188 0.0
H2138 H 0.23232 0.07528 0.59921 0.0
H2139 H 0.19182 0.06773 0.58453 0.0
C2140 C 0.38899 0.05289 0.91365 0.0
C2141 C 0.3596 0.04105 0.92345 0.0
C2142 C 0.36578 0.98939 0.91057 0.0
C2143 C 0.39089 1.00146 0.89355 0.0
N2144 N 0.43053 0.04339 0.88365 0.0
N2145 N 0.32729 0.99996 0.94464 0.0
C2146 C 0.40451 0.03285 0.89766 0.0
C2147 C 0.35075 1.0098 0.92687 0.0
N2148 N 0.40158 0.08318 0.91983 0.0
N2149 N 0.3544 0.95878 0.90839 0.0
H2150 H 0.31629 1.01513 0.95641 0.0
H2151 H 0.32067 0.97759 0.95005 0.0
H2152 H 0.36532 0.94313 0.89751 0.0
H2153 H 0.33376 0.94877 0.9167 0.0
H2154 H 0.42386 0.09341 0.91514 0.0
H2155 H 0.39044 0.09761 0.93248 0.0
H2156 H 0.43912 0.06626 0.88157 0.0
H2157 H 0.44292 0.02871 0.87318 0.0
C2158 C 0.48131 0.96415 0.0716 0.0
C2159 C 0.45895 0.97445 0.08872 0.0
C2160 C 0.49314 0.02532 0.09802 0.0
C2161 C 0.51333 1.01577 0.07743 0.0
N2162 N 0.52203 0.97776 0.03842 0.0
N2163 N 0.44111 1.0162 0.1143 0.0
C2164 C 0.50623 0.9856 0.06259 0.0
C2165 C 0.46422 1.0054 0.10107 0.0
N2166 N 0.4793 0.93376 0.06468 0.0
N2167 N 0.50197 0.05307 0.11535 0.0
H2168 H 0.41957 1.00258 0.11699 0.0
H2169 H 0.44219 0.03919 0.12016 0.0
H2170 H 0.52294 0.06825 0.11369 0.0
H2171 H 0.48993 0.05994 0.13341 0.0
H2172 H 0.49687 0.92495 0.05511 0.0
H2173 H 0.46188 0.9172 0.07175 0.0
H2174 H 0.51569 0.95691 0.02458 0.0
H2175 H 0.53912 0.99327 0.02972 0.0
C2176 C 0.95008 0.66444 0.81381 0.0
C2177 C 0.97643 0.67424 0.79756 0.0
C2178 C 0.94043 0.68214 0.74947 0.0
C2179 C 0.9145 0.67317 0.76623 0.0
N2180 N 0.89326 0.64599 0.80854 0.0
N2181 N 0.99597 0.68315 0.74688 0.0
C2182 C 0.91902 0.66045 0.79625 0.0
C2183 C 0.97137 0.68005 0.76429 0.0
N2184 N 0.9544 0.6617 0.84655 0.0
N2185 N 0.93565 0.69415 0.72028 0.0
H2186 H 1.01868 0.68087 0.75687 0.0
H2187 H 0.99322 0.68497 0.7219 0.0
H2188 H 0.91307 0.69484 0.7084 0.0
H2189 H 0.95398 0.70441 0.70853 0.0
H2190 H 0.93576 0.65757 0.85992 0.0
H2191 H 0.9765 0.66662 0.8612 0.0
H2192 H 0.89499 0.63408 0.8292 0.0
H2193 H 0.87028 0.64341 0.79589 0.0
C2194 C 0.9668 0.64776 0.02078 0.0
C2195 C 0.95115 0.64809 0.0487 0.0
C2196 C 0.98952 0.6178 0.07475 0.0
C2197 C 1.00477 0.6167 0.04652 0.0
N2198 N 1.00366 0.62783 0.99045 0.0
N2199 N 0.94462 0.62792 0.0999 0.0
C2200 C 0.99186 0.63064 0.01888 0.0
C2201 C 0.96191 0.63159 0.07495 0.0
N2202 N 0.95896 0.66533 0.9965 0.0
N2203 N 1.00139 0.6055 0.10185 0.0
H2204 H 0.92429 0.63687 0.10055 0.0
H2205 H 0.94836 0.61374 0.11827 0.0
H2206 H 1.01897 0.59273 0.10204 0.0
H2207 H 0.99496 0.60908 0.12464 0.0
H2208 H 0.97172 0.66979 0.97742 0.0
H2209 H 0.94061 0.67719 0.99658 0.0
H2210 H 0.99318 0.63375 0.96837 0.0
H2211 H 1.02314 0.61801 0.98835 0.0
C2212 C 0.30049 0.21795 0.88767 0.0
C2213 C 0.30471 0.19055 0.87223 0.0
C2214 C 0.32599 0.21777 0.82847 0.0
C2215 C 0.3232 0.24542 0.84471 0.0
N2216 N 0.31393 0.27296 0.8925 0.0
N2217 N 0.32555 0.16421 0.83071 0.0
C2218 C 0.31212 0.24586 0.87511 0.0
C2219 C 0.31894 0.19046 0.84362 0.0
N2220 N 0.28501 0.2172 0.91403 0.0
N2221 N 0.33346 0.21729 0.79767 0.0
H2222 H 0.31891 0.14313 0.8395 0.0
H2223 H 0.33962 0.16357 0.81256 0.0
H2224 H 0.3391 0.23674 0.7856 0.0
H2225 H 0.33168 0.19745 0.78288 0.0
H2226 H 0.27776 0.23591 0.92403 0.0
H2227 H 0.27774 0.19728 0.92488 0.0
H2228 H 0.30894 0.27483 0.91613 0.0
H2229 H 0.32326 0.29378 0.88443 0.0
C2230 C 0.51194 0.0497 0.32342 0.0
C2231 C 0.53923 0.06065 0.34713 0.0
C2232 C 0.5322 1.01154 0.37066 0.0
C2233 C 0.50417 1.00103 0.34777 0.0
N2234 N 0.46437 1.01114 0.30579 0.0
N2235 N 0.57359 0.05413 0.39557 0.0
C2236 C 0.49318 1.02044 0.32513 0.0
C2237 C 0.54885 0.04217 0.37147 0.0
N2238 N 0.50449 0.06697 0.29862 0.0
N2239 N 0.54328 0.99192 0.39102 0.0
H2240 H 0.58677 0.07615 0.39614 0.0
H2241 H 0.57982 0.04319 0.4161 0.0
H2242 H 0.53114 0.96972 0.39169 0.0
H2243 H 0.56521 0.99689 0.40592 0.0
H2244 H 0.48735 0.05894 0.27839 0.0
H2245 H 0.51693 0.08891 0.297 0.0
H2246 H 0.45318 0.02538 0.29155 0.0
H2247 H 0.45032 0.98958 0.30569 0.0
C2248 C 0.63609 0.48981 0.61579 0.0
C2249 C 0.66163 0.47658 0.6083 0.0
C2250 C 0.6585 0.49889 0.55601 0.0
C2251 C 0.63278 0.51154 0.56371 0.0
N2252 N 0.58904 0.50725 0.59399 0.0
N2253 N 0.69059 0.4611 0.56708 0.0
C2254 C 0.61865 0.50272 0.59106 0.0
C2255 C 0.67072 0.47861 0.57694 0.0
N2256 N 0.62996 0.49254 0.64697 0.0
N2257 N 0.67169 0.50701 0.52918 0.0
H2258 H 0.69916 0.44536 0.58142 0.0
H2259 H 0.69606 0.4601 0.54357 0.0
H2260 H 0.66163 0.52014 0.51241 0.0
H2261 H 0.69297 0.50173 0.52439 0.0
H2262 H 0.61337 0.50462 0.65363 0.0
H2263 H 0.64394 0.48633 0.66685 0.0
H2264 H 0.57703 0.49868 0.61247 0.0
H2265 H 0.57494 0.51563 0.57582 0.0
C2266 C 0.40253 0.71316 0.37397 0.0
C2267 C 0.43328 0.71262 0.36678 0.0
C2268 C 0.42314 0.73983 0.31863 0.0
C2269 C 0.39413 0.74385 0.3281 0.0
N2270 N 0.35103 0.72535 0.35711 0.0
N2271 N 0.46439 0.71035 0.32353 0.0
C2272 C 0.38194 0.72728 0.35313 0.0
C2273 C 0.44087 0.72092 0.33611 0.0
N2274 N 0.39382 0.70123 0.40151 0.0
N2275 N 0.43413 0.75471 0.2936 0.0
H2276 H 0.47526 0.69389 0.33423 0.0
H2277 H 0.46977 0.71448 0.30043 0.0
H2278 H 0.42084 0.76748 0.2793 0.0
H2279 H 0.45689 0.75552 0.28815 0.0
H2280 H 0.3736 0.70423 0.41091 0.0
H2281 H 0.40775 0.68873 0.41546 0.0
H2282 H 0.34021 0.71231 0.37378 0.0
H2283 H 0.33516 0.73436 0.34141 0.0
C2284 C 0.16883 0.81355 0.14305 0.0
C2285 C 0.14756 0.82518 0.16094 0.0
C2286 C 0.12371 0.77343 0.17141 0.0
C2287 C 0.14628 0.76225 0.15537 0.0
N2288 N 0.19457 0.77172 0.13225 0.0
N2289 N 0.11 0.81675 0.19867 0.0
C2290 C 0.17026 0.78238 0.14329 0.0
C2291 C 0.12641 0.80528 0.17697 0.0
N2292 N 0.18636 0.8317 0.12421 0.0
N2293 N 0.09922 0.75364 0.18065 0.0
H2294 H 0.11207 0.83991 0.20432 0.0
H2295 H 0.09681 0.8034 0.21351 0.0
H2296 H 0.09701 0.73013 0.17788 0.0
H2297 H 0.07994 0.76044 0.18889 0.0
H2298 H 0.19948 0.8235 0.10795 0.0
H2299 H 0.18551 0.85444 0.12221 0.0
H2300 H 0.21461 0.78584 0.12654 0.0
H2301 H 0.19615 0.74889 0.1317 0.0
C2302 C 0.11517 0.23926 0.8781 0.0
C2303 C 0.09828 0.26176 0.88649 0.0
C2304 C 0.12801 0.29763 0.85464 0.0
C2305 C 0.14334 0.27452 0.84436 0.0
N2306 N 0.14743 0.22184 0.84102 0.0
N2307 N 0.08289 0.30955 0.8767 0.0
C2308 C 0.13567 0.24482 0.8545 0.0
C2309 C 0.10301 0.29016 0.87299 0.0
N2310 N 0.11264 0.21318 0.89363 0.0
N2311 N 0.13816 0.32697 0.84803 0.0
H2312 H 0.06375 0.3046 0.88936 0.0
H2313 H 0.08323 0.32913 0.8645 0.0
H2314 H 0.15659 0.33354 0.83481 0.0
H2315 H 0.13017 0.34521 0.85809 0.0
H2316 H 0.12701 0.19747 0.89113 0.0
H2317 H 0.09793 0.20839 0.91117 0.0
H2318 H 0.14018 0.19914 0.84501 0.0
H2319 H 0.1624 0.22512 0.82352 0.0
C2320 C 0.60902 0.71636 1.00219 0.0
C2321 C 0.58925 0.7181 0.97205 0.0
C2322 C 0.568 0.66177 0.9737 0.0
C2323 C 0.58936 0.65937 1.00253 0.0
N2324 N 0.6362 0.68566 0.03867 0.0
N2325 N 0.55678 0.6882 0.92531 0.0
C2326 C 0.61147 0.68713 0.01514 0.0
C2327 C 0.57087 0.68947 0.9569 0.0
N2328 N 0.6249 0.74277 0.01944 0.0
N2329 N 0.54338 0.63805 0.96282 0.0
H2330 H 0.55948 0.70693 0.91161 0.0
H2331 H 0.54589 0.66791 0.9116 0.0
H2332 H 0.53904 0.61834 0.97474 0.0
H2333 H 0.52514 0.63938 0.9442 0.0
H2334 H 0.63664 0.7437 0.04316 0.0
H2335 H 0.62417 0.76396 1.01089 0.0
H2336 H 0.65486 0.70396 0.0466 0.0
H2337 H 0.64004 0.66535 0.04762 0.0
C2338 C 0.21092 0.85512 0.71404 0.0
C2339 C 0.18327 0.8333 0.7173 0.0
C2340 C 0.21716 0.81315 0.76104 0.0
C2341 C 0.24554 0.83208 0.75422 0.0
N2342 N 0.26814 0.8666 0.71749 0.0
N2343 N 0.16213 0.78824 0.74185 0.0
C2344 C 0.24196 0.85198 0.72903 0.0
C2345 C 0.18697 0.81152 0.74042 0.0
N2346 N 0.20758 0.87962 0.69703 0.0
N2347 N 0.2186 0.79741 0.78805 0.0
H2348 H 0.14002 0.78623 0.7276 0.0
H2349 H 0.16423 0.76969 0.75521 0.0
H2350 H 0.2395 0.79878 0.80423 0.0
H2351 H 0.19856 0.78562 0.79622 0.0
H2352 H 0.22622 0.89785 0.6964 0.0
H2353 H 0.18551 0.88337 0.68677 0.0
H2354 H 0.26679 0.87881 0.69702 0.0
H2355 H 0.291 0.86365 0.7257 0.0
C2356 C 0.0883 0.42242 0.49527 0.0
C2357 C 0.10648 0.41983 0.4695 0.0
C2358 C 0.12191 0.47745 0.47572 0.0
C2359 C 0.103 0.48012 0.50087 0.0
N2360 N 0.0717 0.45324 0.53743 0.0
N2361 N 0.13997 0.4465 0.4348 0.0
C2362 C 0.08746 0.45196 0.51145 0.0
C2363 C 0.12308 0.44796 0.45991 0.0
N2364 N 0.06977 0.39654 0.5029 0.0
N2365 N 0.14072 0.50329 0.46824 0.0
H2366 H 0.14476 0.4262 0.42546 0.0
H2367 H 0.14842 0.46497 0.42238 0.0
H2368 H 0.14134 0.5247 0.47944 0.0
H2369 H 0.1577 0.50368 0.45299 0.0
H2370 H 0.05251 0.39617 0.51785 0.0
H2371 H 0.07035 0.37508 0.49257 0.0
H2372 H 0.06338 0.43451 0.54954 0.0
H2373 H 0.06821 0.47348 0.54821 0.0
C2374 C 0.47014 0.29942 0.2258 0.0
C2375 C 0.49002 0.32803 0.22288 0.0
C2376 C 0.45359 0.35201 0.25346 0.0
C2377 C 0.43442 0.32323 0.25791 0.0
N2378 N 0.43132 0.26923 0.25405 0.0
N2379 N 0.50376 0.3809 0.24184 0.0
C2380 C 0.44475 0.29696 0.24559 0.0
C2381 C 0.48252 0.35396 0.23918 0.0
N2382 N 0.47448 0.27435 0.2085 0.0
N2383 N 0.44345 0.37803 0.26099 0.0
H2384 H 0.52502 0.38317 0.23247 0.0
H2385 H 0.50207 0.39995 0.2563 0.0
H2386 H 0.42273 0.37835 0.27059 0.0
H2387 H 0.45383 0.39921 0.25456 0.0
H2388 H 0.45864 0.25354 0.20589 0.0
H2389 H 0.49284 0.275 0.19479 0.0
H2390 H 0.44002 0.24976 0.24928 0.0
H2391 H 0.41393 0.26634 0.26904 0.0
C2392 C 0.73685 0.62203 0.47666 0.0
C2393 C 0.73122 0.64258 0.45299 0.0
C2394 C 0.67741 0.64005 0.46544 0.0
C2395 C 0.68242 0.61791 0.48734 0.0
N2396 N 0.71438 0.58393 0.51019 0.0
N2397 N 0.69472 0.66774 0.42103 0.0
C2398 C 0.71139 0.60767 0.49177 0.0
C2399 C 0.70114 0.65076 0.44635 0.0
N2400 N 0.76689 0.61742 0.48583 0.0
N2401 N 0.65043 0.65161 0.46368 0.0
H2402 H 0.71142 0.67683 0.4068 0.0
H2403 H 0.6721 0.67103 0.41249 0.0
H2404 H 0.63177 0.6432 0.47596 0.0
H2405 H 0.64731 0.6707 0.45166 0.0
H2406 H 0.77314 0.60513 0.50528 0.0
H2407 H 0.78639 0.62833 0.47606 0.0
H2408 H 0.73368 0.57328 0.51169 0.0
H2409 H 0.69612 0.57302 0.52165 0.0
C2410 C 0.34787 0.84549 0.15263 0.0
C2411 C 0.379 0.85588 0.14592 0.0
C2412 C 0.4003 0.84148 0.19937 0.0
C2413 C 0.36934 0.83561 0.20786 0.0
N2414 N 0.31426 0.83958 0.19396 0.0
N2415 N 0.43523 0.86915 0.16605 0.0
C2416 C 0.34322 0.83956 0.18485 0.0
C2417 C 0.4054 0.85525 0.17009 0.0
N2418 N 0.32261 0.8404 0.12806 0.0
N2419 N 0.42471 0.83305 0.21862 0.0
H2420 H 0.44003 0.88059 0.14573 0.0
H2421 H 0.45473 0.872 0.1844 0.0
H2422 H 0.4217 0.8218 0.23948 0.0
H2423 H 0.44708 0.83424 0.21195 0.0
H2424 H 0.29979 0.83009 0.13124 0.0
H2425 H 0.32503 0.84317 0.10382 0.0
H2426 H 0.29569 0.8457 0.17886 0.0
H2427 H 0.30971 0.83717 0.21759 0.0
C2428 C 0.07326 0.68629 0.9649 0.0
C2429 C 0.08918 0.68804 0.93753 0.0
C2430 C 0.11309 0.64503 0.95365 0.0
C2431 C 0.09905 0.64496 0.98233 0.0
N2432 N 0.07167 0.67017 0.01885 0.0
N2433 N 0.12909 0.67335 0.90895 0.0
C2434 C 0.08117 0.66717 0.98919 0.0
C2435 C 0.11046 0.66855 0.93267 0.0
N2436 N 0.04929 0.70168 0.96692 0.0
N2437 N 0.12892 0.62269 0.94651 0.0
H2438 H 0.12838 0.69093 0.89385 0.0
H2439 H 0.14719 0.66177 0.90617 0.0
H2440 H 0.13292 0.60621 0.96231 0.0
H2441 H 0.13656 0.61951 0.92424 0.0
H2442 H 1.03439 0.69842 0.98445 0.0
H2443 H 1.04206 0.71536 0.94916 0.0
H2444 H 0.06163 0.68813 0.02617 0.0
H2445 H 0.07626 0.6564 0.03734 0.0
C2446 C 0.33129 0.23727 0.65852 0.0
C2447 C 0.35473 0.24994 0.63965 0.0
C2448 C 0.37315 0.29265 0.68345 0.0
C2449 C 0.35079 0.27914 0.7033 0.0
N2450 N 0.31272 0.23457 0.71093 0.0
N2451 N 0.40144 0.28742 0.6374 0.0
C2452 C 0.33102 0.25036 0.69102 0.0
C2453 C 0.37672 0.27686 0.65331 0.0
N2454 N 0.30843 0.21289 0.64498 0.0
N2455 N 0.38975 0.32161 0.69216 0.0
H2456 H 0.40442 0.27675 0.61551 0.0
H2457 H 0.42041 0.30483 0.64722 0.0
H2458 H 0.38737 0.33439 0.71291 0.0
H2459 H 0.40356 0.33419 0.67725 0.0
H2460 H 0.28817 0.20488 0.65506 0.0
H2461 H 0.3088 0.20171 0.62248 0.0
H2462 H 0.30072 0.21217 0.70525 0.0
H2463 H 0.31176 0.24278 0.73451 0.0
C2464 C 0.70357 0.65728 0.30721 0.0
C2465 C 0.73381 0.67615 0.3082 0.0
C2466 C 0.71766 0.69028 0.25342 0.0
C2467 C 0.68909 0.6684 0.25099 0.0
N2468 N 0.65728 0.62698 0.27359 0.0
N2469 N 0.77155 0.7078 0.28112 0.0
C2470 C 0.68248 0.65098 0.27745 0.0
C2471 C 0.74134 0.69224 0.28115 0.0
N2472 N 0.69485 0.64555 0.33488 0.0
N2473 N 0.72202 0.70916 0.22923 0.0
H2474 H 0.78941 0.71023 0.30117 0.0
H2475 H 0.77958 0.71622 0.2604 0.0
H2476 H 0.70485 0.70847 0.20886 0.0
H2477 H 0.74136 0.72705 0.23054 0.0
H2478 H 0.67183 0.63452 0.33645 0.0
H2479 H 0.7098 0.64938 0.35717 0.0
H2480 H 0.65367 0.6114 0.29089 0.0
H2481 H 0.64152 0.62067 0.25197 0.0
C2482 C 0.3663 0.86311 0.95273 0.0
C2483 C 0.34583 0.8819 0.96228 0.0
C2484 C 0.31648 0.87488 0.90644 0.0
C2485 C 0.33615 0.8552 0.89736 0.0
N2486 N 0.3752 0.82533 0.91313 0.0
N2487 N 0.29728 0.9002 0.95022 0.0
C2488 C 0.35948 0.84754 0.92102 0.0
C2489 C 0.31963 0.88611 0.93968 0.0
N2490 N 0.39344 0.86167 0.97305 0.0
N2491 N 0.2954 0.88355 0.88313 0.0
H2492 H 0.29848 0.90812 0.97445 0.0
H2493 H 0.27615 0.90156 0.93572 0.0
H2494 H 0.29154 0.87473 0.85889 0.0
H2495 H 0.28319 0.90075 0.88737 0.0
H2496 H 0.41115 0.85136 0.96596 0.0
H2497 H 0.39974 0.87304 0.99621 0.0
H2498 H 0.39028 0.81658 0.93005 0.0
H2499 H 0.37082 0.81359 0.89016 0.0
C2500 C 0.15235 0.66059 0.7996 0.0
C2501 C 0.12562 0.67433 0.79491 0.0
C2502 C 0.11466 0.65659 0.73742 0.0
C2503 C 0.14077 0.64172 0.74219 0.0
N2504 N 0.18933 0.6362 0.77468 0.0
N2505 N 0.08802 0.69418 0.75853 0.0
C2506 C 0.16136 0.64604 0.77233 0.0
C2507 C 0.1093 0.67556 0.76339 0.0
N2508 N 0.16823 0.66053 0.83028 0.0
N2509 N 0.09346 0.6507 0.70916 0.0
H2510 H 0.0832 0.70798 0.77733 0.0
H2511 H 0.07762 0.69823 0.73556 0.0
H2512 H 0.09562 0.63625 0.6896 0.0
H2513 H 0.07209 0.65813 0.70603 0.0
H2514 H 0.18558 0.64788 0.83607 0.0
H2515 H 0.16309 0.67262 0.85026 0.0
H2516 H 0.20662 0.64076 0.79527 0.0
H2517 H 0.1964 0.62563 0.75484 0.0
C2518 C 0.34409 0.26604 0.44185 0.0
C2519 C 0.35918 0.24057 0.44424 0.0
C2520 C 0.37684 0.25203 0.39045 0.0
C2521 C 0.35891 0.27536 0.38641 0.0
N2522 N 0.32224 0.3019 0.40799 0.0
N2523 N 0.38936 0.20898 0.41907 0.0
C2524 C 0.34206 0.28185 0.41233 0.0
C2525 C 0.37538 0.23366 0.41796 0.0
N2526 N 0.33135 0.27516 0.46789 0.0
N2527 N 0.39655 0.24814 0.36848 0.0
H2528 H 0.39164 0.19692 0.43961 0.0
H2529 H 0.39753 0.19964 0.39932 0.0
H2530 H 0.39853 0.2611 0.34864 0.0
H2531 H 0.41298 0.23414 0.37131 0.0
H2532 H 0.32304 0.29526 0.46976 0.0
H2533 H 0.33149 0.2638 0.48899 0.0
H2534 H 0.30622 0.30512 0.42352 0.0
H2535 H 0.31981 0.31365 0.38727 0.0
C2536 C 0.42999 0.69925 0.50571 0.0
C2537 C 0.40855 0.68811 0.52691 0.0
C2538 C 0.42287 0.63811 0.5222 0.0
C2539 C 0.44612 0.64998 0.50309 0.0
N2540 N 0.47395 0.69201 0.47849 0.0
N2541 N 0.38699 0.64867 0.55899 0.0
C2542 C 0.45019 0.68061 0.49529 0.0
C2543 C 0.40538 0.65788 0.53592 0.0
N2544 N 0.43017 0.72727 0.49459 0.0
N2545 N 0.41777 0.608 0.52747 0.0
H2546 H 0.37419 0.66265 0.56989 0.0
H2547 H 0.38627 0.62814 0.56937 0.0
H2548 H 0.43107 0.59315 0.51902 0.0
H2549 H 0.399 0.59712 0.53821 0.0
H2550 H 0.44352 0.73601 0.47726 0.0
H2551 H 0.41528 0.74135 0.50114 0.0
H2552 H 0.48184 0.71511 0.47699 0.0
H2553 H 0.48709 0.67838 0.4676 0.0
C2554 C 0.94876 0.98525 0.54072 0.0
C2555 C 0.92544 1.00054 0.55075 0.0
C2556 C 0.96559 0.04899 0.55349 0.0
C2557 C 0.99008 0.03303 0.54787 0.0
N2558 N 1.00435 0.98383 0.54295 0.0
N2559 N 0.91372 0.04774 0.57019 0.0
C2560 C 0.98135 1.00061 0.54316 0.0
C2561 C 0.93444 0.03269 0.55792 0.0
N2562 N 0.93965 0.9558 0.52776 0.0
N2563 N 0.97152 0.07983 0.55333 0.0
H2564 H 0.89102 0.03688 0.57319 0.0
H2565 H 0.91983 0.07037 0.57954 0.0
H2566 H 0.9932 0.09232 0.5493 0.0
H2567 H 0.95409 0.09268 0.55395 0.0
H2568 H 0.95454 0.94436 0.51667 0.0
H2569 H 0.91623 0.94392 0.52471 0.0
H2570 H 0.99984 0.96032 0.54356 0.0
H2571 H 1.02844 0.99329 0.54603 0.0
C2572 C 0.82194 0.08258 0.20636 0.0
C2573 C 0.85548 0.08779 0.20925 0.0
C2574 C 0.85996 0.13982 0.23239 0.0
C2575 C 0.82661 0.13378 0.2319 0.0
N2576 N 0.77501 0.10293 0.21303 0.0
N2577 N 0.90591 0.12275 0.21716 0.0
C2578 C 0.80726 0.10621 0.21699 0.0
C2579 C 0.8743 0.117 0.21949 0.0
N2580 N 0.80441 0.05488 0.1937 0.0
N2581 N 0.87802 0.16678 0.24689 0.0
H2582 H 0.91754 0.10629 0.20904 0.0
H2583 H 0.92034 0.14429 0.22088 0.0
H2584 H 0.8684 0.18456 0.25553 0.0
H2585 H 0.90265 0.1713 0.25187 0.0
H2586 H 0.78022 0.04796 0.19379 0.0
H2587 H 0.81448 0.03848 0.18286 0.0
H2588 H 0.75909 0.0842 0.20076 0.0
H2589 H 0.76393 0.12011 0.22055 0.0
C2590 C 0.69919 0.1714 1.00893 0.0
C2591 C 0.72858 0.16657 0.02506 0.0
C2592 C 0.70305 0.11477 0.03341 0.0
C2593 C 0.67303 0.12152 0.02264 0.0
N2594 N 0.64193 0.15749 1.0026 0.0
N2595 N 0.75767 0.13472 0.05685 0.0
C2596 C 0.67087 0.15002 1.0106 0.0
C2597 C 0.73046 0.13837 0.03806 0.0
N2598 N 0.69842 0.19608 0.99148 0.0
N2599 N 0.70525 0.08566 0.03925 0.0
H2600 H 0.77802 0.15172 0.06225 0.0
H2601 H 0.7591 0.1158 0.06979 0.0
H2602 H 0.6855 0.06785 0.03567 0.0
H2603 H 0.72678 0.07868 0.04427 0.0
H2604 H 0.67816 0.19924 0.97662 0.0
H2605 H 0.71878 0.2119 0.98929 0.0
H2606 H 0.63914 0.17929 0.99763 0.0
H2607 H 0.6206 0.14249 1.00307 0.0
C2608 C 0.26494 0.50751 0.25594 0.0
C2609 C 0.24021 0.48306 0.24154 0.0
C2610 C 0.27412 0.44675 0.25462 0.0
C2611 C 0.29905 0.47109 0.26886 0.0
N2612 N 0.32104 0.52464 0.27678 0.0
N2613 N 0.22425 0.43135 0.21831 0.0
C2614 C 0.29539 0.50155 0.26731 0.0
C2615 C 0.24588 0.4533 0.23794 0.0
N2616 N 0.25891 0.53597 0.26054 0.0
N2617 N 0.27645 0.41734 0.25882 0.0
H2618 H 0.20348 0.4357 0.20535 0.0
H2619 H 0.22847 0.40991 0.21225 0.0
H2620 H 0.29661 0.4111 0.27082 0.0
H2621 H 0.25725 0.39919 0.25286 0.0
H2622 H 0.27479 0.55384 0.27448 0.0
H2623 H 0.23718 0.54143 0.25201 0.0
H2624 H 0.32071 0.54731 0.27348 0.0
H2625 H 0.3435 0.52075 0.28539 0.0
C2626 C 0.21054 0.49909 0.06611 0.0
C2627 C 0.22588 0.49853 0.03795 0.0
C2628 C 0.18635 0.52768 1.01167 0.0
C2629 C 0.17178 0.52938 0.04027 0.0
N2630 N 0.17319 0.51856 0.09632 0.0
N2631 N 0.23079 0.51736 0.98581 0.0
C2632 C 0.1851 0.5158 0.06794 0.0
C2633 C 0.2142 0.51421 1.01132 0.0
N2634 N 0.2191 0.48215 0.09071 0.0
N2635 N 0.17345 0.53894 0.98432 0.0
H2636 H 0.2512 0.5086 0.98497 0.0
H2637 H 0.22634 0.53095 0.96704 0.0
H2638 H 0.15506 0.55077 0.98402 0.0
H2639 H 0.1796 0.53513 0.96145 0.0
H2640 H 0.20676 0.47791 0.11015 0.0
H2641 H 0.23768 0.47058 0.09065 0.0
H2642 H 0.18371 0.51285 0.11848 0.0
H2643 H 0.15345 0.52809 0.09815 0.0
C2644 C 0.83992 0.92054 0.17397 0.0
C2645 C 0.83805 0.94941 0.18779 0.0
C2646 C 0.82277 0.92747 0.23696 0.0
C2647 C 0.82705 0.89904 0.22411 0.0
N2648 N 0.82911 0.86601 0.17757 0.0
N2649 N 0.81858 0.97916 0.22719 0.0
C2650 C 0.83198 0.89477 0.19148 0.0
C2651 C 0.82607 0.95236 0.21745 0.0
N2652 N 0.85074 0.91812 0.14493 0.0
N2653 N 0.81793 0.93121 0.26849 0.0
H2654 H 0.82103 0.99773 0.21336 0.0
H2655 H 0.80724 0.98211 0.24716 0.0
H2656 H 0.81431 0.91326 0.28312 0.0
H2657 H 0.81894 0.95225 0.28071 0.0
H2658 H 0.85632 0.89836 0.13531 0.0
H2659 H 0.85526 0.93654 0.13099 0.0
H2660 H 0.83015 0.86098 0.15313 0.0
H2661 H 0.82281 0.84691 0.19011 0.0
C2662 C 0.6685 0.09295 0.68804 0.0
C2663 C 0.6506 0.08286 0.71253 0.0
C2664 C 0.67316 0.13082 0.74608 0.0
C2665 C 0.69216 0.14025 0.72209 0.0
N2666 N 0.70875 0.1291 0.67026 0.0
N2667 N 0.64031 0.08937 0.76765 0.0
C2668 C 0.69011 0.12115 0.69328 0.0
C2669 C 0.65408 0.10106 0.74233 0.0
N2670 N 0.66537 0.07545 0.65957 0.0
N2671 N 0.6725 0.15069 0.77188 0.0
H2672 H 0.64485 0.10008 0.79109 0.0
H2673 H 0.62629 0.06767 0.76605 0.0
H2674 H 0.68647 0.17251 0.77575 0.0
H2675 H 0.65633 0.14653 0.78808 0.0
H2676 H 0.6779 0.08257 0.64093 0.0
H2677 H 0.65011 0.05433 0.65468 0.0
H2678 H 0.72589 0.14907 0.67217 0.0
H2679 H 0.72589 0.14907 0.67217 0.0
loop_
_geom_bond_atom_site_label_1
_geom_bond_atom_site_label_2
_geom_bond_distance
_geom_bond_site_symmetry_2
_ccdc_geom_bond_type
C0 O1 1.160 . S
C0 O7 1.185 . S
O1 C0 1.160 . S
O2 Zn3 1.899 . S
O2 C10 1.284 . S
Zn3 O2 1.899 . S
Zn3 O4 2.032 . S
Zn3 O7 2.086 . S
Zn3 O12 1.977 . S
O4 Zn3 2.032 . S
O4 C8 1.278 . S
C5 O6 1.203 . S
C5 O12 1.267 1_655 S
O6 C5 1.203 . S
O7 C0 1.185 . S
O7 Zn3 2.086 . S
C8 O4 1.278 . S
C8 O9 1.211 . S
O9 C8 1.211 . S
C10 O2 1.284 . S
C10 O11 1.273 . S
O11 C10 1.273 . S
O12 Zn3 1.977 . S
O12 C5 1.267 1_455 S
C13 O14 1.160 . S
C13 O20 1.185 1_655 S
O14 C13 1.160 . S
O15 Zn16 1.899 . S
O15 C23 1.284 . S
Zn16 O15 1.899 . S
Zn16 O17 2.032 . S
Zn16 O20 2.086 . S
Zn16 O25 1.977 . S
O17 Zn16 2.032 . S
O17 C21 1.278 . S
C18 O19 1.203 . S
C18 O25 1.267 . S
O19 C18 1.203 . S
O20 C13 1.185 1_455 S
O20 Zn16 2.086 . S
C21 O17 1.278 . S
C21 O22 1.211 . S
O22 C21 1.211 . S
C23 O15 1.284 . S
C23 O24 1.273 . S
O24 C23 1.273 . S
O25 Zn16 1.977 . S
O25 C18 1.267 . S
C26 O27 1.160 . S
C26 O33 1.185 . S
O27 C26 1.160 . S
O28 Zn29 1.899 . S
O28 C36 1.284 . S
Zn29 O28 1.899 . S
Zn29 O30 2.032 . S
Zn29 O33 2.086 . S
Zn29 O38 1.977 . S
O30 Zn29 2.032 . S
O30 C34 1.278 . S
C31 O32 1.203 . S
C31 O38 1.267 . S
O32 C31 1.203 . S
O33 C26 1.185 . S
O33 Zn29 2.086 . S
C34 O30 1.278 . S
C34 O35 1.211 . S
O35 C34 1.211 . S
C36 O28 1.284 . S
C36 O37 1.273 . S
O37 C36 1.273 . S
O38 Zn29 1.977 . S
O38 C31 1.267 . S
C39 O40 1.160 . S
C39 O46 1.185 . S
O40 C39 1.160 . S
O41 Zn42 1.899 . S
O41 C49 1.284 . S
Zn42 O41 1.899 . S
Zn42 O43 2.032 . S
Zn42 O46 2.086 . S
Zn42 O51 1.977 . S
O43 Zn42 2.032 . S
O43 C47 1.278 . S
C44 O45 1.203 . S
C44 O51 1.267 . S
O45 C44 1.203 . S
O46 C39 1.185 . S
O46 Zn42 2.086 . S
C47 O43 1.278 . S
C47 O48 1.211 . S
O48 C47 1.211 . S
C49 O41 1.284 . S
C49 O50 1.273 . S
O50 C49 1.273 . S
O51 Zn42 1.977 . S
O51 C44 1.267 . S
C52 O53 1.160 . S
C52 O59 1.185 . S
O53 C52 1.160 . S
O54 Zn55 1.899 . S
O54 C62 1.284 . S
Zn55 O54 1.899 . S
Zn55 O56 2.032 . S
Zn55 O59 2.086 . S
Zn55 O64 1.977 . S
O56 Zn55 2.032 . S
O56 C60 1.278 . S
C57 O58 1.203 . S
C57 O64 1.267 . S
O58 C57 1.203 . S
O59 C52 1.185 . S
O59 Zn55 2.086 . S
C60 O56 1.278 . S
C60 O61 1.211 . S
O61 C60 1.211 . S
C62 O54 1.284 . S
C62 O63 1.273 . S
O63 C62 1.273 . S
O64 Zn55 1.977 . S
O64 C57 1.267 . S
C65 O66 1.160 . S
C65 O72 1.185 . S
O66 C65 1.160 . S
O67 Zn68 1.899 . S
O67 C75 1.284 . S
Zn68 O67 1.899 . S
Zn68 O69 2.032 . S
Zn68 O72 2.086 . S
Zn68 O77 1.977 . S
O69 Zn68 2.032 . S
O69 C73 1.278 . S
C70 O71 1.203 . S
C70 O77 1.267 . S
O71 C70 1.203 . S
O72 C65 1.185 . S
O72 Zn68 2.086 . S
C73 O69 1.278 . S
C73 O74 1.211 . S
O74 C73 1.211 . S
C75 O67 1.284 . S
C75 O76 1.273 . S
O76 C75 1.273 . S
O77 Zn68 1.977 . S
O77 C70 1.267 . S
C78 O79 1.160 . S
C78 O85 1.185 . S
O79 C78 1.160 . S
O80 Zn81 1.899 . S
O80 C88 1.284 . S
Zn81 O80 1.899 . S
Zn81 O82 2.032 . S
Zn81 O85 2.086 . S
Zn81 O90 1.977 . S
O82 Zn81 2.032 . S
O82 C86 1.278 . S
C83 O84 1.203 . S
C83 O90 1.267 . S
O84 C83 1.203 . S
O85 C78 1.185 . S
O85 Zn81 2.086 . S
C86 O82 1.278 . S
C86 O87 1.211 . S
O87 C86 1.211 . S
C88 O80 1.284 . S
C88 O89 1.273 . S
O89 C88 1.273 . S
O90 Zn81 1.977 . S
O90 C83 1.267 . S
C91 O92 1.160 . S
C91 O98 1.185 . S
O92 C91 1.160 . S
O93 Zn94 1.900 1_655 S
O93 C101 1.286 . S
Zn94 O93 1.900 1_455 S
Zn94 O95 2.032 . S
Zn94 O98 2.086 . S
Zn94 O103 1.977 1_455 S
O95 Zn94 2.032 . S
O95 C99 1.278 . S
C96 O97 1.203 . S
C96 O103 1.267 . S
O97 C96 1.203 . S
O98 C91 1.185 . S
O98 Zn94 2.086 . S
C99 O95 1.278 . S
C99 O100 1.211 1_455 S
O100 C99 1.211 1_655 S
C101 O93 1.286 . S
C101 O102 1.273 . S
O102 C101 1.273 . S
O103 Zn94 1.977 1_655 S
O103 C96 1.267 . S
C104 O105 1.160 . S
C104 O111 1.185 . S
O105 C104 1.160 . S
O106 Zn107 1.899 . S
O106 C114 1.284 . S
Zn107 O106 1.899 . S
Zn107 O108 2.032 . S
Zn107 O111 2.086 . S
Zn107 O116 1.977 . S
O108 Zn107 2.032 . S
O108 C112 1.278 . S
C109 O110 1.203 . S
C109 O116 1.267 . S
O110 C109 1.203 . S
O111 C104 1.185 . S
O111 Zn107 2.086 . S
C112 O108 1.278 . S
C112 O113 1.211 . S
O113 C112 1.211 . S
C114 O106 1.284 . S
C114 O115 1.273 . S
O115 C114 1.273 . S
O116 Zn107 1.977 . S
O116 C109 1.267 . S
C117 O118 1.160 . S
C117 O124 1.185 . S
O118 C117 1.160 . S
O119 Zn120 1.899 . S
O119 C127 1.284 . S
Zn120 O119 1.899 . S
Zn120 O121 2.032 . S
Zn120 O124 2.086 . S
Zn120 O129 1.977 . S
O121 Zn120 2.032 . S
O121 C125 1.278 . S
C122 O123 1.203 . S
C122 O129 1.267 . S
O123 C122 1.203 . S
O124 C117 1.185 . S
O124 Zn120 2.086 . S
C125 O121 1.278 . S
C125 O126 1.211 . S
O126 C125 1.211 . S
C127 O119 1.284 . S
C127 O128 1.273 . S
O128 C127 1.273 . S
O129 Zn120 1.977 . S
O129 C122 1.267 . S
C130 O131 1.160 . S
C130 O137 1.185 . S
O131 C130 1.160 . S
O132 Zn133 1.899 . S
O132 C140 1.284 . S
Zn133 O132 1.899 . S
Zn133 O134 2.032 . S
Zn133 O137 2.086 . S
Zn133 O142 1.977 . S
O134 Zn133 2.032 . S
O134 C138 1.278 . S
C135 O136 1.203 . S
C135 O142 1.267 . S
O136 C135 1.203 . S
O137 C130 1.185 . S
O137 Zn133 2.086 . S
C138 O134 1.278 . S
C138 O139 1.211 . S
O139 C138 1.211 . S
C140 O132 1.284 . S
C140 O141 1.273 . S
O141 C140 1.273 . S
O142 Zn133 1.977 . S
O142 C135 1.267 . S
C143 O144 1.160 . S
C143 O150 1.185 . S
O144 C143 1.160 . S
O145 Zn146 1.899 . S
O145 C153 1.284 . S
Zn146 O145 1.899 . S
Zn146 O147 2.032 . S
Zn146 O150 2.086 . S
Zn146 O155 1.977 . S
O147 Zn146 2.032 . S
O147 C151 1.278 . S
C148 O149 1.203 . S
C148 O155 1.267 . S
O149 C148 1.203 . S
O150 C143 1.185 . S
O150 Zn146 2.086 . S
C151 O147 1.278 . S
C151 O152 1.211 . S
O152 C151 1.211 . S
C153 O145 1.284 . S
C153 O154 1.273 . S
O154 C153 1.273 . S
O155 Zn146 1.977 . S
O155 C148 1.267 . S
C156 O157 1.160 . S
C156 O163 1.185 . S
O157 C156 1.160 . S
O158 Zn159 1.899 . S
O158 C166 1.284 . S
Zn159 O158 1.899 . S
Zn159 O160 2.032 . S
Zn159 O163 2.086 . S
Zn159 O168 1.977 . S
O160 Zn159 2.032 . S
O160 C164 1.278 1_554 S
C161 O162 1.203 . S
C161 O168 1.267 . S
O162 C161 1.203 . S
O163 C156 1.185 . S
O163 Zn159 2.086 . S
C164 O160 1.278 1_556 S
C164 O165 1.211 . S
O165 C164 1.211 . S
C166 O158 1.284 . S
C166 O167 1.273 . S
O167 C166 1.273 . S
O168 Zn159 1.977 . S
O168 C161 1.267 . S
C169 O170 1.160 . S
C169 O176 1.185 1_554 S
O170 C169 1.160 . S
O171 Zn172 1.899 . S
O171 C179 1.284 . S
Zn172 O171 1.899 . S
Zn172 O173 2.032 1_554 S
Zn172 O176 2.086 1_554 S
Zn172 O181 1.977 1_554 S
O173 Zn172 2.032 1_556 S
O173 C177 1.278 . S
C174 O175 1.203 1_556 S
C174 O181 1.267 . S
O175 C174 1.203 1_554 S
O176 C169 1.185 1_556 S
O176 Zn172 2.086 1_556 S
C177 O173 1.278 . S
C177 O178 1.211 . S
O178 C177 1.211 . S
C179 O171 1.284 . S
C179 O180 1.273 . S
O180 C179 1.273 . S
O181 Zn172 1.977 1_556 S
O181 C174 1.267 . S
C182 O183 1.160 . S
C182 O189 1.185 . S
O183 C182 1.160 . S
O184 Zn185 1.899 . S
O184 C192 1.284 . S
Zn185 O184 1.899 . S
Zn185 O186 2.032 . S
Zn185 O189 2.086 . S
Zn185 O194 1.977 . S
O186 Zn185 2.032 . S
O186 C190 1.278 . S
C187 O188 1.203 . S
C187 O194 1.267 . S
O188 C187 1.203 . S
O189 C182 1.185 . S
O189 Zn185 2.086 . S
C190 O186 1.278 . S
C190 O191 1.211 . S
O191 C190 1.211 . S
C192 O184 1.284 . S
C192 O193 1.273 . S
O193 C192 1.273 . S
O194 Zn185 1.977 . S
O194 C187 1.267 . S
C195 O196 1.160 . S
C195 O202 1.185 . S
O196 C195 1.160 . S
O197 Zn198 1.899 . S
O197 C205 1.284 . S
Zn198 O197 1.899 . S
Zn198 O199 2.032 . S
Zn198 O202 2.086 . S
Zn198 O207 1.977 . S
O199 Zn198 2.032 . S
O199 C203 1.278 . S
C200 O201 1.203 . S
C200 O207 1.267 . S
O201 C200 1.203 . S
O202 C195 1.185 . S
O202 Zn198 2.086 . S
C203 O199 1.278 . S
C203 O204 1.211 . S
O204 C203 1.211 . S
C205 O197 1.284 . S
C205 O206 1.273 . S
O206 C205 1.273 . S
O207 Zn198 1.977 . S
O207 C200 1.267 . S
C208 O209 1.160 . S
C208 O215 1.185 . S
O209 C208 1.160 . S
O210 Zn211 1.899 . S
O210 C218 1.290 . S
Zn211 O210 1.899 . S
Zn211 O212 2.032 . S
Zn211 O215 2.086 . S
Zn211 O220 1.977 1_545 S
O212 Zn211 2.032 . S
O212 C216 1.278 . S
C213 O214 1.203 . S
C213 O220 1.267 . S
O214 C213 1.203 . S
O215 C208 1.185 . S
O215 Zn211 2.086 . S
C216 O212 1.278 . S
C216 O217 1.211 1_545 S
O217 C216 1.211 1_565 S
C218 O210 1.290 . S
C218 O219 1.265 1_545 S
O219 C218 1.265 1_565 S
O220 Zn211 1.977 1_565 S
O220 C213 1.267 . S
C221 O222 1.160 . S
C221 O228 1.185 . S
O222 C221 1.160 . S
O223 Zn224 1.899 . S
O223 C231 1.284 . S
Zn224 O223 1.899 . S
Zn224 O225 2.032 . S
Zn224 O228 2.086 . S
Zn224 O233 1.977 . S
O225 Zn224 2.032 . S
O225 C229 1.278 . S
C226 O227 1.203 . S
C226 O233 1.267 . S
O227 C226 1.203 . S
O228 C221 1.185 . S
O228 Zn224 2.086 . S
C229 O225 1.278 . S
C229 O230 1.211 . S
O230 C229 1.211 . S
C231 O223 1.284 . S
C231 O232 1.273 . S
O232 C231 1.273 . S
O233 Zn224 1.977 . S
O233 C226 1.267 . S
C234 O235 1.160 . S
C234 O241 1.185 . S
O235 C234 1.160 . S
O236 Zn237 1.899 . S
O236 C244 1.284 . S
Zn237 O236 1.899 . S
Zn237 O238 2.032 . S
Zn237 O241 2.086 . S
Zn237 O246 1.977 . S
O238 Zn237 2.032 . S
O238 C242 1.278 . S
C239 O240 1.203 . S
C239 O246 1.267 . S
O240 C239 1.203 . S
O241 C234 1.185 . S
O241 Zn237 2.086 . S
C242 O238 1.278 . S
C242 O243 1.211 . S
O243 C242 1.211 . S
C244 O236 1.284 . S
C244 O245 1.273 . S
O245 C244 1.273 . S
O246 Zn237 1.977 . S
O246 C239 1.267 . S
C247 O248 1.160 . S
C247 O254 1.185 . S
O248 C247 1.160 . S
O249 Zn250 1.899 . S
O249 C257 1.284 . S
Zn250 O249 1.899 . S
Zn250 O251 2.032 1_545 S
Zn250 O254 2.086 1_545 S
Zn250 O259 1.977 . S
O251 Zn250 2.032 1_565 S
O251 C255 1.278 1_565 S
C252 O253 1.203 . S
C252 O259 1.267 . S
O253 C252 1.203 . S
O254 C247 1.185 . S
O254 Zn250 2.086 1_565 S
C255 O251 1.278 1_545 S
C255 O256 1.211 . S
O256 C255 1.211 . S
C257 O249 1.284 . S
C257 O258 1.273 . S
O258 C257 1.273 . S
O259 Zn250 1.977 . S
O259 C252 1.267 . S
C260 O261 1.160 . S
C260 O267 1.185 . S
O261 C260 1.160 . S
O262 Zn263 1.899 . S
O262 C270 1.284 . S
Zn263 O262 1.899 . S
Zn263 O264 2.032 1_554 S
Zn263 O267 2.086 . S
Zn263 O272 1.977 . S
O264 Zn263 2.032 1_556 S
O264 C268 1.278 . S
C265 O266 1.203 . S
C265 O272 1.267 . S
O266 C265 1.203 . S
O267 C260 1.185 . S
O267 Zn263 2.086 . S
C268 O264 1.278 . S
C268 O269 1.211 . S
O269 C268 1.211 . S
C270 O262 1.284 . S
C270 O271 1.273 . S
O271 C270 1.273 . S
O272 Zn263 1.977 . S
O272 C265 1.267 . S
C273 O274 1.160 . S
C273 O280 1.185 . S
O274 C273 1.160 . S
O275 Zn276 1.899 1_455 S
O275 C283 1.284 . S
Zn276 O275 1.899 1_655 S
Zn276 O277 2.032 1_655 S
Zn276 O280 2.086 . S
Zn276 O285 1.977 . S
O277 Zn276 2.032 1_455 S
O277 C281 1.278 . S
C278 O279 1.203 . S
C278 O285 1.267 . S
O279 C278 1.203 . S
O280 C273 1.185 . S
O280 Zn276 2.086 . S
C281 O277 1.278 . S
C281 O282 1.211 . S
O282 C281 1.211 . S
C283 O275 1.284 . S
C283 O284 1.273 . S
O284 C283 1.273 . S
O285 Zn276 1.977 . S
O285 C278 1.267 . S
C286 O287 1.160 . S
C286 O293 1.185 . S
O287 C286 1.160 . S
O288 Zn289 1.899 . S
O288 C296 1.284 . S
Zn289 O288 1.899 . S
Zn289 O290 2.032 . S
Zn289 O293 2.086 . S
Zn289 O298 1.977 . S
O290 Zn289 2.032 . S
O290 C294 1.278 . S
C291 O292 1.203 . S
C291 O298 1.267 . S
O292 C291 1.203 . S
O293 C286 1.185 . S
O293 Zn289 2.086 . S
C294 O290 1.278 . S
C294 O295 1.211 . S
O295 C294 1.211 . S
C296 O288 1.284 . S
C296 O297 1.273 . S
O297 C296 1.273 . S
O298 Zn289 1.977 . S
O298 C291 1.267 . S
C299 O300 1.160 . S
C299 O306 1.185 . S
O300 C299 1.160 . S
O301 Zn302 1.899 . S
O301 C309 1.284 . S
Zn302 O301 1.899 . S
Zn302 O303 2.032 . S
Zn302 O306 2.086 . S
Zn302 O311 1.977 . S
O303 Zn302 2.032 . S
O303 C307 1.278 . S
C304 O305 1.203 . S
C304 O311 1.267 . S
O305 C304 1.203 . S
O306 C299 1.185 . S
O306 Zn302 2.086 . S
C307 O303 1.278 . S
C307 O308 1.211 . S
O308 C307 1.211 . S
C309 O301 1.284 . S
C309 O310 1.273 . S
O310 C309 1.273 . S
O311 Zn302 1.977 . S
O311 C304 1.267 . S
Tb312 C322 2.825 1_455 S
Tb312 O323 2.347 1_556 S
Tb312 O326 2.366 . S
Tb312 O331 2.418 . S
Tb312 O332 2.384 1_546 S
Tb312 O335 2.479 1_455 S
Tb312 O336 2.471 1_456 S
Eu313 O324 2.418 . S
Eu313 O325 2.384 . S
Eu313 O328 2.479 . S
Eu313 O329 2.471 . S
Eu313 O330 2.347 . S
Eu313 O333 2.366 . S
Eu313 C343 2.825 . S
C314 O330 1.259 1_556 S
C314 O331 1.265 . S
C315 O332 1.255 . S
C315 O333 1.265 1_565 S
C316 C318 1.380 . S
C316 C319 1.374 . S
C316 C322 1.507 . S
C317 C318 1.384 . S
C317 C321 1.387 . S
C317 H344 0.930 . S
C318 C316 1.380 . S
C318 C317 1.384 . S
C318 H345 0.931 . S
C319 C316 1.374 . S
C319 C320 1.390 . S
C319 H346 0.930 1_556 S
C320 C319 1.390 . S
C320 C321 1.391 . S
C320 H347 0.930 . S
C321 C317 1.387 . S
C321 C320 1.391 . S
C322 Tb312 2.825 1_655 S
C322 C316 1.507 . S
C322 O335 1.238 . S
C322 O336 1.247 1_556 S
O323 Tb312 2.347 1_554 S
O323 C327 1.259 . S
O324 Eu313 2.418 . S
O324 C327 1.265 . S
O325 Eu313 2.384 . S
O325 C334 1.255 . S
O326 Tb312 2.366 . S
O326 C334 1.265 1_556 S
C327 O323 1.259 . S
C327 O324 1.265 . S
O328 Eu313 2.479 . S
O328 C343 1.238 . S
O329 Eu313 2.471 . S
O329 C343 1.247 . S
O330 Eu313 2.347 . S
O330 C314 1.259 1_554 S
O331 Tb312 2.418 . S
O331 C314 1.265 . S
O332 Tb312 2.384 1_564 S
O332 C315 1.255 . S
O333 Eu313 2.366 . S
O333 C315 1.265 1_545 S
C334 O325 1.255 . S
C334 O326 1.265 1_554 S
O335 Tb312 2.479 1_655 S
O335 C322 1.238 . S
O336 Tb312 2.471 1_654 S
O336 C322 1.247 1_554 S
C337 C340 1.380 . S
C337 C341 1.374 . S
C337 C343 1.507 . S
C338 C339 1.387 . S
C338 C342 1.391 . S
C339 C338 1.387 . S
C339 C340 1.384 . S
C339 H348 0.930 . S
C340 C337 1.380 . S
C340 C339 1.384 . S
C340 H349 0.931 . S
C341 C337 1.374 . S
C341 C342 1.390 . S
C341 H350 0.930 . S
C342 C338 1.391 . S
C342 C341 1.390 . S
C342 H351 0.941 . S
C343 Eu313 2.825 . S
C343 O328 1.238 . S
C343 O329 1.247 . S
C343 C337 1.507 . S
H344 C317 0.930 . S
H345 C318 0.931 . S
H346 C319 0.930 1_554 S
H347 C320 0.930 . S
H348 C339 0.930 . S
H349 C340 0.931 . S
H350 C341 0.930 . S
H351 C342 0.941 . S
Tb352 C362 2.825 . S
Tb352 O363 2.347 . S
Tb352 O366 2.366 . S
Tb352 O371 2.418 . S
Tb352 O372 2.384 . S
Tb352 O375 2.479 . S
Tb352 O376 2.471 . S
Eu353 O364 2.418 . S
Eu353 O365 2.384 . S
Eu353 O368 2.479 . S
Eu353 O369 2.471 . S
Eu353 O370 2.347 . S
Eu353 O373 2.366 . S
Eu353 C383 2.825 . S
C354 O370 1.259 . S
C354 O371 1.265 . S
C355 O372 1.255 . S
C355 O373 1.265 . S
C356 C358 1.380 . S
C356 C359 1.374 . S
C356 C362 1.507 . S
C357 C358 1.384 . S
C357 C361 1.387 . S
C357 H384 0.930 . S
C358 C356 1.380 . S
C358 C357 1.384 . S
C358 H385 0.931 . S
C359 C356 1.374 . S
C359 C360 1.390 . S
C359 H386 0.930 . S
C360 C359 1.390 . S
C360 C361 1.391 . S
C360 H387 0.930 . S
C361 C357 1.387 . S
C361 C360 1.391 . S
C362 Tb352 2.825 . S
C362 C356 1.507 . S
C362 O375 1.238 . S
C362 O376 1.247 . S
O363 Tb352 2.347 . S
O363 C367 1.259 . S
O364 Eu353 2.418 . S
O364 C367 1.265 . S
O365 Eu353 2.384 . S
O365 C374 1.255 . S
O366 Tb352 2.366 . S
O366 C374 1.265 . S
C367 O363 1.259 . S
C367 O364 1.265 . S
O368 Eu353 2.479 . S
O368 C383 1.238 . S
O369 Eu353 2.471 . S
O369 C383 1.247 . S
O370 Eu353 2.347 . S
O370 C354 1.259 . S
O371 Tb352 2.418 . S
O371 C354 1.265 . S
O372 Tb352 2.384 . S
O372 C355 1.255 . S
O373 Eu353 2.366 . S
O373 C355 1.265 . S
C374 O365 1.255 . S
C374 O366 1.265 . S
O375 Tb352 2.479 . S
O375 C362 1.238 . S
O376 Tb352 2.471 . S
O376 C362 1.247 . S
C377 C380 1.380 . S
C377 C381 1.374 . S
C377 C383 1.507 . S
C378 C379 1.387 . S
C378 C382 1.391 . S
C379 C378 1.387 . S
C379 C380 1.384 . S
C379 H388 0.930 . S
C380 C377 1.380 . S
C380 C379 1.384 . S
C380 H389 0.931 . S
C381 C377 1.374 . S
C381 C382 1.390 . S
C381 H390 0.930 . S
C382 C378 1.391 . S
C382 C381 1.390 . S
C382 H391 0.930 . S
C383 Eu353 2.825 . S
C383 O368 1.238 . S
C383 O369 1.247 . S
C383 C377 1.507 . S
H384 C357 0.930 . S
H385 C358 0.931 . S
H386 C359 0.930 . S
H387 C360 0.930 . S
H388 C379 0.930 . S
H389 C380 0.931 . S
H390 C381 0.930 . S
H391 C382 0.930 . S
Tb392 C402 2.825 1_545 S
Tb392 O403 2.347 . S
Tb392 O406 2.366 . S
Tb392 O411 2.418 . S
Tb392 O412 2.384 . S
Tb392 O415 2.479 1_545 S
Tb392 O416 2.471 1_545 S
Eu393 O404 2.418 . S
Eu393 O405 2.384 . S
Eu393 O408 2.479 . S
Eu393 O409 2.471 . S
Eu393 O410 2.347 . S
Eu393 O413 2.366 . S
Eu393 C423 2.825 . S
C394 O410 1.259 . S
C394 O411 1.265 . S
C395 O412 1.255 . S
C395 O413 1.265 . S
C396 C398 1.380 . S
C396 C399 1.374 . S
C396 C402 1.507 . S
C397 C398 1.384 . S
C397 C401 1.387 . S
C397 H424 0.930 . S
C398 C396 1.380 . S
C398 C397 1.384 . S
C398 H425 0.931 . S
C399 C396 1.374 . S
C399 C400 1.390 . S
C399 H426 0.930 . S
C400 C399 1.390 . S
C400 C401 1.391 . S
C400 H427 0.930 . S
C401 C397 1.387 . S
C401 C400 1.391 . S
C402 Tb392 2.825 1_565 S
C402 C396 1.507 . S
C402 O415 1.238 . S
C402 O416 1.247 . S
O403 Tb392 2.347 . S
O403 C407 1.259 . S
O404 Eu393 2.418 . S
O404 C407 1.265 . S
O405 Eu393 2.384 . S
O405 C414 1.255 . S
O406 Tb392 2.366 . S
O406 C414 1.265 . S
C407 O403 1.259 . S
C407 O404 1.265 . S
O408 Eu393 2.479 . S
O408 C423 1.238 . S
O409 Eu393 2.471 . S
O409 C423 1.247 . S
O410 Eu393 2.347 . S
O410 C394 1.259 . S
O411 Tb392 2.418 . S
O411 C394 1.265 . S
O412 Tb392 2.384 . S
O412 C395 1.255 . S
O413 Eu393 2.366 . S
O413 C395 1.265 . S
C414 O405 1.255 . S
C414 O406 1.265 . S
O415 Tb392 2.479 1_565 S
O415 C402 1.238 . S
O416 Tb392 2.471 1_565 S
O416 C402 1.247 . S
C417 C420 1.380 . S
C417 C421 1.374 . S
C417 C423 1.507 . S
C418 C419 1.387 . S
C418 C422 1.391 . S
C419 C418 1.387 . S
C419 C420 1.384 . S
C419 H428 0.930 . S
C420 C417 1.380 . S
C420 C419 1.384 . S
C420 H429 0.931 . S
C421 C417 1.374 . S
C421 C422 1.390 . S
C421 H430 0.930 . S
C422 C418 1.391 . S
C422 C421 1.390 . S
C422 H431 0.930 . S
C423 Eu393 2.825 . S
C423 O408 1.238 . S
C423 O409 1.247 . S
C423 C417 1.507 . S
H424 C397 0.930 . S
H425 C398 0.931 . S
H426 C399 0.930 . S
H427 C400 0.930 . S
H428 C419 0.930 . S
H429 C420 0.931 . S
H430 C421 0.930 . S
H431 C422 0.930 . S
Tb432 C442 2.825 . S
Tb432 O443 2.347 . S
Tb432 O446 2.366 . S
Tb432 O451 2.418 . S
Tb432 O452 2.384 . S
Tb432 O455 2.479 . S
Tb432 O456 2.471 . S
Eu433 O444 2.418 . S
Eu433 O445 2.384 . S
Eu433 O448 2.479 . S
Eu433 O449 2.471 . S
Eu433 O450 2.347 . S
Eu433 O453 2.366 . S
Eu433 C463 2.825 . S
C434 O450 1.259 . S
C434 O451 1.265 . S
C435 O452 1.255 . S
C435 O453 1.265 . S
C436 C438 1.380 . S
C436 C439 1.374 . S
C436 C442 1.507 . S
C437 C438 1.384 . S
C437 C441 1.387 . S
C437 H464 0.930 . S
C438 C436 1.380 . S
C438 C437 1.384 . S
C438 H465 0.931 . S
C439 C436 1.374 . S
C439 C440 1.390 . S
C439 H466 0.930 . S
C440 C439 1.390 . S
C440 C441 1.391 . S
C440 H467 0.930 . S
C441 C437 1.387 . S
C441 C440 1.391 . S
C442 Tb432 2.825 . S
C442 C436 1.507 . S
C442 O455 1.238 . S
C442 O456 1.247 . S
O443 Tb432 2.347 . S
O443 C447 1.259 . S
O444 Eu433 2.418 . S
O444 C447 1.265 . S
O445 Eu433 2.384 . S
O445 C454 1.255 . S
O446 Tb432 2.366 . S
O446 C454 1.265 . S
C447 O443 1.259 . S
C447 O444 1.265 . S
O448 Eu433 2.479 . S
O448 C463 1.238 . S
O449 Eu433 2.471 . S
O449 C463 1.247 . S
O450 Eu433 2.347 . S
O450 C434 1.259 . S
O451 Tb432 2.418 . S
O451 C434 1.265 . S
O452 Tb432 2.384 . S
O452 C435 1.255 . S
O453 Eu433 2.366 . S
O453 C435 1.265 . S
C454 O445 1.255 . S
C454 O446 1.265 . S
O455 Tb432 2.479 . S
O455 C442 1.238 . S
O456 Tb432 2.471 . S
O456 C442 1.247 . S
C457 C460 1.380 . S
C457 C461 1.374 . S
C457 C463 1.507 . S
C458 C459 1.387 . S
C458 C462 1.391 . S
C459 C458 1.387 . S
C459 C460 1.384 . S
C459 H468 0.930 . S
C460 C457 1.380 . S
C460 C459 1.384 . S
C460 H469 0.931 . S
C461 C457 1.374 . S
C461 C462 1.390 . S
C461 H470 0.930 . S
C462 C458 1.391 . S
C462 C461 1.390 . S
C462 H471 0.930 . S
C463 Eu433 2.825 . S
C463 O448 1.238 . S
C463 O449 1.247 . S
C463 C457 1.507 . S
H464 C437 0.930 . S
H465 C438 0.931 . S
H466 C439 0.930 . S
H467 C440 0.930 . S
H468 C459 0.930 . S
H469 C460 0.931 . S
H470 C461 0.930 . S
H471 C462 0.930 . S
Tb472 C482 2.825 . S
Tb472 O483 2.347 . S
Tb472 O486 2.366 . S
Tb472 O491 2.418 . S
Tb472 O492 2.384 . S
Tb472 O495 2.479 . S
Tb472 O496 2.471 . S
Eu473 O484 2.418 . S
Eu473 O485 2.384 . S
Eu473 O488 2.479 . S
Eu473 O489 2.471 . S
Eu473 O490 2.347 . S
Eu473 O493 2.366 . S
Eu473 C503 2.825 . S
C474 O490 1.259 . S
C474 O491 1.265 . S
C475 O492 1.255 . S
C475 O493 1.265 . S
C476 C478 1.380 . S
C476 C479 1.374 1_455 S
C476 C482 1.507 . S
C477 C478 1.384 . S
C477 C481 1.387 1_455 S
C477 H504 0.930 . S
C478 C476 1.380 . S
C478 C477 1.384 . S
C478 H505 0.931 . S
C479 C476 1.374 1_655 S
C479 C480 1.390 . S
C479 H506 0.930 . S
C480 C479 1.390 . S
C480 C481 1.391 . S
C480 H507 0.930 . S
C481 C477 1.387 1_655 S
C481 C480 1.391 . S
C482 Tb472 2.825 . S
C482 C476 1.507 . S
C482 O495 1.238 . S
C482 O496 1.247 . S
O483 Tb472 2.347 . S
O483 C487 1.259 1_455 S
O484 Eu473 2.418 . S
O484 C487 1.265 1_455 S
O485 Eu473 2.384 . S
O485 C494 1.255 . S
O486 Tb472 2.366 . S
O486 C494 1.265 . S
C487 O483 1.259 1_655 S
C487 O484 1.265 1_655 S
O488 Eu473 2.479 . S
O488 C503 1.238 . S
O489 Eu473 2.471 . S
O489 C503 1.247 . S
O490 Eu473 2.347 . S
O490 C474 1.259 . S
O491 Tb472 2.418 . S
O491 C474 1.265 . S
O492 Tb472 2.384 . S
O492 C475 1.255 . S
O493 Eu473 2.366 . S
O493 C475 1.265 . S
C494 O485 1.255 . S
C494 O486 1.265 . S
O495 Tb472 2.479 . S
O495 C482 1.238 . S
O496 Tb472 2.471 . S
O496 C482 1.247 . S
C497 C500 1.380 . S
C497 C501 1.374 . S
C497 C503 1.507 . S
C498 C499 1.387 . S
C498 C502 1.391 . S
C499 C498 1.387 . S
C499 C500 1.384 . S
C499 H508 0.930 . S
C500 C497 1.380 . S
C500 C499 1.384 . S
C500 H509 0.931 . S
C501 C497 1.374 . S
C501 C502 1.390 . S
C501 H510 0.930 . S
C502 C498 1.391 . S
C502 C501 1.390 . S
C502 H511 0.930 . S
C503 Eu473 2.825 . S
C503 O488 1.238 . S
C503 O489 1.247 . S
C503 C497 1.507 . S
H504 C477 0.930 . S
H505 C478 0.931 . S
H506 C479 0.930 . S
H507 C480 0.930 . S
H508 C499 0.930 . S
H509 C500 0.931 . S
H510 C501 0.930 . S
H511 C502 0.930 . S
Tb512 C522 2.825 . S
Tb512 O523 2.347 . S
Tb512 O526 2.366 . S
Tb512 O531 2.418 . S
Tb512 O532 2.384 . S
Tb512 O535 2.479 . S
Tb512 O536 2.471 . S
Eu513 O524 2.418 . S
Eu513 O525 2.384 . S
Eu513 O528 2.479 . S
Eu513 O529 2.471 . S
Eu513 O530 2.347 . S
Eu513 O533 2.366 . S
Eu513 C543 2.825 . S
C514 O530 1.259 . S
C514 O531 1.265 . S
C515 O532 1.255 . S
C515 O533 1.265 . S
C516 C518 1.380 . S
C516 C519 1.374 . S
C516 C522 1.507 . S
C517 C518 1.384 . S
C517 C521 1.387 . S
C517 H544 0.930 . S
C518 C516 1.380 . S
C518 C517 1.384 . S
C518 H545 0.931 . S
C519 C516 1.374 . S
C519 C520 1.390 . S
C519 H546 0.930 . S
C520 C519 1.390 . S
C520 C521 1.391 . S
C520 H547 0.930 . S
C521 C517 1.387 . S
C521 C520 1.391 . S
C522 Tb512 2.825 . S
C522 C516 1.507 . S
C522 O535 1.238 . S
C522 O536 1.247 . S
O523 Tb512 2.347 . S
O523 C527 1.259 . S
O524 Eu513 2.418 . S
O524 C527 1.265 . S
O525 Eu513 2.384 . S
O525 C534 1.255 . S
O526 Tb512 2.366 . S
O526 C534 1.265 . S
C527 O523 1.259 . S
C527 O524 1.265 . S
O528 Eu513 2.479 . S
O528 C543 1.238 . S
O529 Eu513 2.471 . S
O529 C543 1.247 . S
O530 Eu513 2.347 . S
O530 C514 1.259 . S
O531 Tb512 2.418 . S
O531 C514 1.265 . S
O532 Tb512 2.384 . S
O532 C515 1.255 . S
O533 Eu513 2.366 . S
O533 C515 1.265 . S
C534 O525 1.255 . S
C534 O526 1.265 . S
O535 Tb512 2.479 . S
O535 C522 1.238 . S
O536 Tb512 2.471 . S
O536 C522 1.247 . S
C537 C540 1.380 . S
C537 C541 1.374 . S
C537 C543 1.507 . S
C538 C539 1.387 . S
C538 C542 1.391 . S
C539 C538 1.387 . S
C539 C540 1.384 . S
C539 H548 0.930 . S
C540 C537 1.380 . S
C540 C539 1.384 . S
C540 H549 0.931 . S
C541 C537 1.374 . S
C541 C542 1.390 . S
C541 H550 0.930 . S
C542 C538 1.391 . S
C542 C541 1.390 . S
C542 H551 0.930 . S
C543 Eu513 2.825 . S
C543 O528 1.238 . S
C543 O529 1.247 . S
C543 C537 1.507 . S
H544 C517 0.930 . S
H545 C518 0.931 . S
H546 C519 0.930 . S
H547 C520 0.930 . S
H548 C539 0.930 . S
H549 C540 0.931 . S
H550 C541 0.930 . S
H551 C542 0.930 . S
Tb552 C562 2.825 . S
Tb552 O563 2.347 . S
Tb552 O566 2.366 . S
Tb552 O571 2.418 1_545 S
Tb552 O572 2.384 . S
Tb552 O575 2.479 . S
Tb552 O576 2.471 . S
Eu553 O564 2.418 1_556 S
Eu553 O565 2.384 1_556 S
Eu553 O568 2.479 . S
Eu553 O569 2.471 . S
Eu553 O570 2.347 1_556 S
Eu553 O573 2.366 . S
Eu553 C583 2.825 . S
C554 O570 1.259 1_565 S
C554 O571 1.265 . S
C555 O572 1.255 . S
C555 O573 1.265 1_554 S
C556 C558 1.380 . S
C556 C559 1.374 . S
C556 C562 1.507 . S
C557 C558 1.384 . S
C557 C561 1.387 . S
C557 H584 0.930 1_545 S
C558 C556 1.380 . S
C558 C557 1.384 . S
C558 H585 0.948 . S
C559 C556 1.374 . S
C559 C560 1.390 . S
C559 H586 0.930 . S
C560 C559 1.390 . S
C560 C561 1.391 . S
C560 H587 0.930 . S
C561 C557 1.387 . S
C561 C560 1.391 . S
C562 Tb552 2.825 . S
C562 C556 1.507 . S
C562 O575 1.238 . S
C562 O576 1.247 . S
O563 Tb552 2.347 . S
O563 C567 1.259 . S
O564 Eu553 2.418 1_554 S
O564 C567 1.265 . S
O565 Eu553 2.384 1_554 S
O565 C574 1.255 . S
O566 Tb552 2.366 . S
O566 C574 1.265 . S
C567 O563 1.259 . S
C567 O564 1.265 . S
O568 Eu553 2.479 . S
O568 C583 1.238 . S
O569 Eu553 2.471 . S
O569 C583 1.247 . S
O570 Eu553 2.347 1_554 S
O570 C554 1.259 1_545 S
O571 Tb552 2.418 1_565 S
O571 C554 1.265 . S
O572 Tb552 2.384 . S
O572 C555 1.255 . S
O573 Eu553 2.366 . S
O573 C555 1.265 1_556 S
C574 O565 1.255 . S
C574 O566 1.265 . S
O575 Tb552 2.479 . S
O575 C562 1.238 . S
O576 Tb552 2.471 . S
O576 C562 1.247 . S
C577 C580 1.380 . S
C577 C581 1.374 . S
C577 C583 1.507 . S
C578 C579 1.387 . S
C578 C582 1.391 . S
C579 C578 1.387 . S
C579 C580 1.384 . S
C579 H588 0.930 . S
C580 C577 1.380 . S
C580 C579 1.384 . S
C580 H589 0.931 . S
C581 C577 1.374 . S
C581 C582 1.390 . S
C581 H590 0.930 . S
C582 C578 1.391 . S
C582 C581 1.390 . S
C582 H591 0.930 . S
C583 Eu553 2.825 . S
C583 O568 1.238 . S
C583 O569 1.247 . S
C583 C577 1.507 . S
H584 C557 0.930 1_565 S
H585 C558 0.948 . S
H586 C559 0.930 . S
H587 C560 0.930 . S
H588 C579 0.930 . S
H589 C580 0.931 . S
H590 C581 0.930 . S
H591 C582 0.930 . S
Tb592 C602 2.825 . S
Tb592 O603 2.347 . S
Tb592 O606 2.366 . S
Tb592 O611 2.418 . S
Tb592 O612 2.384 . S
Tb592 O615 2.479 . S
Tb592 O616 2.471 . S
Eu593 O604 2.418 . S
Eu593 O605 2.384 . S
Eu593 O608 2.479 . S
Eu593 O609 2.471 . S
Eu593 O610 2.347 . S
Eu593 O613 2.366 . S
Eu593 C623 2.825 . S
C594 O610 1.259 . S
C594 O611 1.265 . S
C595 O612 1.255 . S
C595 O613 1.265 . S
C596 C598 1.380 . S
C596 C599 1.374 . S
C596 C602 1.507 . S
C597 C598 1.384 . S
C597 C601 1.387 . S
C597 H624 0.930 . S
C598 C596 1.380 . S
C598 C597 1.384 . S
C598 H625 0.931 . S
C599 C596 1.374 . S
C599 C600 1.390 . S
C599 H626 0.930 . S
C600 C599 1.390 . S
C600 C601 1.391 . S
C600 H627 0.930 . S
C601 C597 1.387 . S
C601 C600 1.391 . S
C602 Tb592 2.825 . S
C602 C596 1.507 . S
C602 O615 1.238 . S
C602 O616 1.247 . S
O603 Tb592 2.347 . S
O603 C607 1.259 . S
O604 Eu593 2.418 . S
O604 C607 1.265 . S
O605 Eu593 2.384 . S
O605 C614 1.255 . S
O606 Tb592 2.366 . S
O606 C614 1.265 . S
C607 O603 1.259 . S
C607 O604 1.265 . S
O608 Eu593 2.479 . S
O608 C623 1.238 . S
O609 Eu593 2.471 . S
O609 C623 1.247 . S
O610 Eu593 2.347 . S
O610 C594 1.259 . S
O611 Tb592 2.418 . S
O611 C594 1.265 . S
O612 Tb592 2.384 . S
O612 C595 1.255 . S
O613 Eu593 2.366 . S
O613 C595 1.265 . S
C614 O605 1.255 . S
C614 O606 1.265 . S
O615 Tb592 2.479 . S
O615 C602 1.238 . S
O616 Tb592 2.471 . S
O616 C602 1.247 . S
C617 C620 1.380 . S
C617 C621 1.374 . S
C617 C623 1.507 . S
C618 C619 1.387 . S
C618 C622 1.391 . S
C619 C618 1.387 . S
C619 C620 1.384 . S
C619 H628 0.930 . S
C620 C617 1.380 . S
C620 C619 1.384 . S
C620 H629 0.931 . S
C621 C617 1.374 . S
C621 C622 1.390 . S
C621 H630 0.930 . S
C622 C618 1.391 . S
C622 C621 1.390 . S
C622 H631 0.930 . S
C623 Eu593 2.825 . S
C623 O608 1.238 . S
C623 O609 1.247 . S
C623 C617 1.507 . S
H624 C597 0.930 . S
H625 C598 0.931 . S
H626 C599 0.930 . S
H627 C600 0.930 . S
H628 C619 0.930 . S
H629 C620 0.931 . S
H630 C621 0.930 . S
H631 C622 0.930 . S
Tb632 C642 2.825 . S
Tb632 O643 2.347 1_556 S
Tb632 O646 2.366 . S
Tb632 O651 2.418 . S
Tb632 O652 2.384 1_556 S
Tb632 O655 2.479 . S
Tb632 O656 2.471 . S
Eu633 O644 2.418 . S
Eu633 O645 2.384 . S
Eu633 O648 2.479 . S
Eu633 O649 2.471 . S
Eu633 O650 2.347 . S
Eu633 O653 2.366 . S
Eu633 C663 2.825 . S
C634 O650 1.259 . S
C634 O651 1.265 1_554 S
C635 O652 1.255 . S
C635 O653 1.265 . S
C636 C638 1.380 . S
C636 C639 1.374 . S
C636 C642 1.507 . S
C637 C638 1.384 . S
C637 C641 1.387 . S
C637 H664 0.930 . S
C638 C636 1.380 . S
C638 C637 1.384 . S
C638 H665 0.931 . S
C639 C636 1.374 . S
C639 C640 1.390 . S
C639 H666 0.930 . S
C640 C639 1.390 . S
C640 C641 1.391 . S
C640 H667 0.930 . S
C641 C637 1.387 . S
C641 C640 1.391 . S
C642 Tb632 2.825 . S
C642 C636 1.507 . S
C642 O655 1.238 . S
C642 O656 1.247 . S
O643 Tb632 2.347 1_554 S
O643 C647 1.259 . S
O644 Eu633 2.418 . S
O644 C647 1.265 . S
O645 Eu633 2.384 . S
O645 C654 1.255 . S
O646 Tb632 2.366 . S
O646 C654 1.265 1_556 S
C647 O643 1.259 . S
C647 O644 1.265 . S
O648 Eu633 2.479 . S
O648 C663 1.238 . S
O649 Eu633 2.471 . S
O649 C663 1.247 . S
O650 Eu633 2.347 . S
O650 C634 1.259 . S
O651 Tb632 2.418 . S
O651 C634 1.265 1_556 S
O652 Tb632 2.384 1_554 S
O652 C635 1.255 . S
O653 Eu633 2.366 . S
O653 C635 1.265 . S
C654 O645 1.255 . S
C654 O646 1.265 1_554 S
O655 Tb632 2.479 . S
O655 C642 1.238 . S
O656 Tb632 2.471 . S
O656 C642 1.247 . S
C657 C660 1.380 . S
C657 C661 1.374 . S
C657 C663 1.507 . S
C658 C659 1.387 . S
C658 C662 1.391 . S
C659 C658 1.387 . S
C659 C660 1.384 . S
C659 H668 0.930 . S
C660 C657 1.380 . S
C660 C659 1.384 . S
C660 H669 0.931 . S
C661 C657 1.374 . S
C661 C662 1.390 . S
C661 H670 0.930 . S
C662 C658 1.391 . S
C662 C661 1.390 . S
C662 H671 0.930 . S
C663 Eu633 2.825 . S
C663 O648 1.238 . S
C663 O649 1.247 . S
C663 C657 1.507 . S
H664 C637 0.930 . S
H665 C638 0.931 . S
H666 C639 0.930 . S
H667 C640 0.930 . S
H668 C659 0.930 . S
H669 C660 0.931 . S
H670 C661 0.930 . S
H671 C662 0.930 . S
Tb672 C682 2.825 . S
Tb672 O683 2.347 . S
Tb672 O686 2.366 . S
Tb672 O691 2.418 . S
Tb672 O692 2.384 . S
Tb672 O695 2.479 . S
Tb672 O696 2.471 . S
Eu673 O684 2.418 . S
Eu673 O685 2.384 . S
Eu673 O688 2.479 . S
Eu673 O689 2.471 . S
Eu673 O690 2.347 . S
Eu673 O693 2.366 . S
Eu673 C703 2.825 . S
C674 O690 1.259 . S
C674 O691 1.265 . S
C675 O692 1.255 . S
C675 O693 1.265 . S
C676 C678 1.380 . S
C676 C679 1.374 . S
C676 C682 1.507 . S
C677 C678 1.384 . S
C677 C681 1.387 . S
C677 H704 0.930 . S
C678 C676 1.380 . S
C678 C677 1.384 . S
C678 H705 0.931 . S
C679 C676 1.374 . S
C679 C680 1.390 . S
C679 H706 0.930 . S
C680 C679 1.390 . S
C680 C681 1.391 . S
C680 H707 0.930 . S
C681 C677 1.387 . S
C681 C680 1.391 . S
C682 Tb672 2.825 . S
C682 C676 1.507 . S
C682 O695 1.238 . S
C682 O696 1.247 . S
O683 Tb672 2.347 . S
O683 C687 1.259 . S
O684 Eu673 2.418 . S
O684 C687 1.265 . S
O685 Eu673 2.384 . S
O685 C694 1.255 . S
O686 Tb672 2.366 . S
O686 C694 1.265 . S
C687 O683 1.259 . S
C687 O684 1.265 . S
O688 Eu673 2.479 . S
O688 C703 1.238 . S
O689 Eu673 2.471 . S
O689 C703 1.247 . S
O690 Eu673 2.347 . S
O690 C674 1.259 . S
O691 Tb672 2.418 . S
O691 C674 1.265 . S
O692 Tb672 2.384 . S
O692 C675 1.255 . S
O693 Eu673 2.366 . S
O693 C675 1.265 . S
C694 O685 1.255 . S
C694 O686 1.265 . S
O695 Tb672 2.479 . S
O695 C682 1.238 . S
O696 Tb672 2.471 . S
O696 C682 1.247 . S
C697 C700 1.380 . S
C697 C701 1.374 . S
C697 C703 1.507 . S
C698 C699 1.387 . S
C698 C702 1.391 . S
C699 C698 1.387 . S
C699 C700 1.384 . S
C699 H708 0.930 . S
C700 C697 1.380 . S
C700 C699 1.384 . S
C700 H709 0.931 . S
C701 C697 1.374 . S
C701 C702 1.390 . S
C701 H710 0.930 . S
C702 C698 1.391 . S
C702 C701 1.390 . S
C702 H711 0.930 . S
C703 Eu673 2.825 . S
C703 O688 1.238 . S
C703 O689 1.247 . S
C703 C697 1.507 . S
H704 C677 0.930 . S
H705 C678 0.931 . S
H706 C679 0.930 . S
H707 C680 0.930 . S
H708 C699 0.930 . S
H709 C700 0.931 . S
H710 C701 0.930 . S
H711 C702 0.930 . S
Tb712 C722 2.825 . S
Tb712 O723 2.347 . S
Tb712 O726 2.366 . S
Tb712 O731 2.418 . S
Tb712 O732 2.384 . S
Tb712 O735 2.479 . S
Tb712 O736 2.471 . S
Eu713 O724 2.418 . S
Eu713 O725 2.384 1_455 S
Eu713 O728 2.479 . S
Eu713 O729 2.471 . S
Eu713 O730 2.347 . S
Eu713 O733 2.366 . S
Eu713 C743 2.825 . S
C714 O730 1.259 . S
C714 O731 1.265 . S
C715 O732 1.255 . S
C715 O733 1.265 . S
C716 C718 1.380 . S
C716 C719 1.374 . S
C716 C722 1.507 . S
C717 C718 1.384 . S
C717 C721 1.387 . S
C717 H744 0.930 . S
C718 C716 1.380 . S
C718 C717 1.384 . S
C718 H745 0.931 . S
C719 C716 1.374 . S
C719 C720 1.390 . S
C719 H746 0.930 . S
C720 C719 1.390 . S
C720 C721 1.391 . S
C720 H747 0.930 . S
C721 C717 1.387 . S
C721 C720 1.391 . S
C722 Tb712 2.825 . S
C722 C716 1.507 . S
C722 O735 1.238 . S
C722 O736 1.247 . S
O723 Tb712 2.347 . S
O723 C727 1.259 . S
O724 Eu713 2.418 . S
O724 C727 1.265 . S
O725 Eu713 2.384 1_655 S
O725 C734 1.256 . S
O726 Tb712 2.366 . S
O726 C734 1.255 1_455 S
C727 O723 1.259 . S
C727 O724 1.265 . S
O728 Eu713 2.479 . S
O728 C743 1.238 . S
O729 Eu713 2.471 . S
O729 C743 1.247 . S
O730 Eu713 2.347 . S
O730 C714 1.259 . S
O731 Tb712 2.418 . S
O731 C714 1.265 . S
O732 Tb712 2.384 . S
O732 C715 1.255 . S
O733 Eu713 2.366 . S
O733 C715 1.265 . S
C734 O725 1.256 . S
C734 O726 1.255 1_655 S
O735 Tb712 2.479 . S
O735 C722 1.238 . S
O736 Tb712 2.471 . S
O736 C722 1.247 . S
C737 C740 1.380 . S
C737 C741 1.374 . S
C737 C743 1.507 . S
C738 C739 1.387 . S
C738 C742 1.391 . S
C739 C738 1.387 . S
C739 C740 1.384 . S
C739 H748 0.930 . S
C740 C737 1.380 . S
C740 C739 1.384 . S
C740 H749 0.931 . S
C741 C737 1.374 . S
C741 C742 1.390 . S
C741 H750 0.930 . S
C742 C738 1.391 . S
C742 C741 1.390 . S
C742 H751 0.930 . S
C743 Eu713 2.825 . S
C743 O728 1.238 . S
C743 O729 1.247 . S
C743 C737 1.507 . S
H744 C717 0.930 . S
H745 C718 0.931 . S
H746 C719 0.930 . S
H747 C720 0.930 . S
H748 C739 0.930 . S
H749 C740 0.931 . S
H750 C741 0.930 . S
H751 C742 0.930 . S
Tb752 C762 2.825 . S
Tb752 O763 2.347 . S
Tb752 O766 2.366 . S
Tb752 O771 2.418 . S
Tb752 O772 2.384 . S
Tb752 O775 2.479 . S
Tb752 O776 2.471 . S
Eu753 O764 2.418 . S
Eu753 O765 2.384 . S
Eu753 O768 2.479 . S
Eu753 O769 2.471 . S
Eu753 O770 2.347 . S
Eu753 O773 2.366 . S
Eu753 C783 2.825 . S
C754 O770 1.259 . S
C754 O771 1.265 . S
C755 O772 1.255 . S
C755 O773 1.265 . S
C756 C758 1.380 . S
C756 C759 1.374 . S
C756 C762 1.507 . S
C757 C758 1.384 . S
C757 C761 1.387 . S
C757 H784 0.930 . S
C758 C756 1.380 . S
C758 C757 1.384 . S
C758 H785 0.931 . S
C759 C756 1.374 . S
C759 C760 1.390 . S
C759 H786 0.930 . S
C760 C759 1.390 . S
C760 C761 1.391 . S
C760 H787 0.930 . S
C761 C757 1.387 . S
C761 C760 1.391 . S
C762 Tb752 2.825 . S
C762 C756 1.507 . S
C762 O775 1.238 . S
C762 O776 1.247 . S
O763 Tb752 2.347 . S
O763 C767 1.259 . S
O764 Eu753 2.418 . S
O764 C767 1.265 . S
O765 Eu753 2.384 . S
O765 C774 1.255 . S
O766 Tb752 2.366 . S
O766 C774 1.265 . S
C767 O763 1.259 . S
C767 O764 1.265 . S
O768 Eu753 2.479 . S
O768 C783 1.238 . S
O769 Eu753 2.471 . S
O769 C783 1.247 . S
O770 Eu753 2.347 . S
O770 C754 1.259 . S
O771 Tb752 2.418 . S
O771 C754 1.265 . S
O772 Tb752 2.384 . S
O772 C755 1.255 . S
O773 Eu753 2.366 . S
O773 C755 1.265 . S
C774 O765 1.255 . S
C774 O766 1.265 . S
O775 Tb752 2.479 . S
O775 C762 1.238 . S
O776 Tb752 2.471 . S
O776 C762 1.247 . S
C777 C780 1.380 . S
C777 C781 1.374 . S
C777 C783 1.507 . S
C778 C779 1.387 . S
C778 C782 1.391 . S
C779 C778 1.387 . S
C779 C780 1.384 . S
C779 H788 0.930 . S
C780 C777 1.380 . S
C780 C779 1.384 . S
C780 H789 0.931 . S
C781 C777 1.374 . S
C781 C782 1.390 . S
C781 H790 0.930 . S
C782 C778 1.391 . S
C782 C781 1.390 . S
C782 H791 0.930 . S
C783 Eu753 2.825 . S
C783 O768 1.238 . S
C783 O769 1.247 . S
C783 C777 1.507 . S
H784 C757 0.930 . S
H785 C758 0.931 . S
H786 C759 0.930 . S
H787 C760 0.930 . S
H788 C779 0.930 . S
H789 C780 0.931 . S
H790 C781 0.930 . S
H791 C782 0.930 . S
Tb792 C802 2.825 . S
Tb792 O803 2.347 . S
Tb792 O806 2.366 . S
Tb792 O811 2.418 . S
Tb792 O812 2.384 . S
Tb792 O815 2.479 . S
Tb792 O816 2.471 . S
Eu793 O804 2.418 . S
Eu793 O805 2.384 . S
Eu793 O808 2.479 . S
Eu793 O809 2.471 . S
Eu793 O810 2.347 . S
Eu793 O813 2.366 . S
Eu793 C823 2.825 . S
C794 O810 1.259 . S
C794 O811 1.265 . S
C795 O812 1.255 . S
C795 O813 1.265 . S
C796 C798 1.380 . S
C796 C799 1.374 . S
C796 C802 1.507 . S
C797 C798 1.384 . S
C797 C801 1.387 . S
C797 H824 0.930 . S
C798 C796 1.380 . S
C798 C797 1.384 . S
C798 H825 0.931 . S
C799 C796 1.374 . S
C799 C800 1.390 . S
C799 H826 0.930 . S
C800 C799 1.390 . S
C800 C801 1.391 . S
C800 H827 0.930 . S
C801 C797 1.387 . S
C801 C800 1.391 . S
C802 Tb792 2.825 . S
C802 C796 1.507 . S
C802 O815 1.238 . S
C802 O816 1.247 . S
O803 Tb792 2.347 . S
O803 C807 1.259 . S
O804 Eu793 2.418 . S
O804 C807 1.265 . S
O805 Eu793 2.384 . S
O805 C814 1.255 . S
O806 Tb792 2.366 . S
O806 C814 1.265 . S
C807 O803 1.259 . S
C807 O804 1.265 . S
O808 Eu793 2.479 . S
O808 C823 1.238 . S
O809 Eu793 2.471 . S
O809 C823 1.247 . S
O810 Eu793 2.347 . S
O810 C794 1.259 . S
O811 Tb792 2.418 . S
O811 C794 1.265 . S
O812 Tb792 2.384 . S
O812 C795 1.255 . S
O813 Eu793 2.366 . S
O813 C795 1.265 . S
C814 O805 1.255 . S
C814 O806 1.265 . S
O815 Tb792 2.479 . S
O815 C802 1.238 . S
O816 Tb792 2.471 . S
O816 C802 1.247 . S
C817 C820 1.380 . S
C817 C821 1.374 . S
C817 C823 1.507 . S
C818 C819 1.387 . S
C818 C822 1.391 . S
C819 C818 1.387 . S
C819 C820 1.384 . S
C819 H828 0.930 . S
C820 C817 1.380 . S
C820 C819 1.384 . S
C820 H829 0.931 . S
C821 C817 1.374 . S
C821 C822 1.390 . S
C821 H830 0.930 . S
C822 C818 1.391 . S
C822 C821 1.390 . S
C822 H831 0.930 . S
C823 Eu793 2.825 . S
C823 O808 1.238 . S
C823 O809 1.247 . S
C823 C817 1.507 . S
H824 C797 0.930 . S
H825 C798 0.931 . S
H826 C799 0.930 . S
H827 C800 0.930 . S
H828 C819 0.930 . S
H829 C820 0.931 . S
H830 C821 0.930 . S
H831 C822 0.930 . S
Tb832 C842 2.825 . S
Tb832 O843 2.347 . S
Tb832 O846 2.366 . S
Tb832 O851 2.418 . S
Tb832 O852 2.384 . S
Tb832 O855 2.479 . S
Tb832 O856 2.471 . S
Eu833 O844 2.418 . S
Eu833 O845 2.384 . S
Eu833 O848 2.479 . S
Eu833 O849 2.471 . S
Eu833 O850 2.347 . S
Eu833 O853 2.366 . S
Eu833 C863 2.825 . S
C834 O850 1.259 . S
C834 O851 1.265 . S
C835 O852 1.255 . S
C835 O853 1.265 . S
C836 C838 1.380 . S
C836 C839 1.374 . S
C836 C842 1.507 . S
C837 C838 1.384 . S
C837 C841 1.387 . S
C837 H864 0.930 . S
C838 C836 1.380 . S
C838 C837 1.384 . S
C838 H865 0.931 . S
C839 C836 1.374 . S
C839 C840 1.390 . S
C839 H866 0.930 . S
C840 C839 1.390 . S
C840 C841 1.391 . S
C840 H867 0.930 . S
C841 C837 1.387 . S
C841 C840 1.391 . S
C842 Tb832 2.825 . S
C842 C836 1.507 . S
C842 O855 1.238 . S
C842 O856 1.247 . S
O843 Tb832 2.347 . S
O843 C847 1.259 . S
O844 Eu833 2.418 . S
O844 C847 1.265 . S
O845 Eu833 2.384 . S
O845 C854 1.255 . S
O846 Tb832 2.366 . S
O846 C854 1.265 . S
C847 O843 1.259 . S
C847 O844 1.265 . S
O848 Eu833 2.479 . S
O848 C863 1.238 . S
O849 Eu833 2.471 . S
O849 C863 1.247 . S
O850 Eu833 2.347 . S
O850 C834 1.259 . S
O851 Tb832 2.418 . S
O851 C834 1.265 . S
O852 Tb832 2.384 . S
O852 C835 1.255 . S
O853 Eu833 2.366 . S
O853 C835 1.265 . S
C854 O845 1.255 . S
C854 O846 1.265 . S
O855 Tb832 2.479 . S
O855 C842 1.238 . S
O856 Tb832 2.471 . S
O856 C842 1.247 . S
C857 C860 1.380 . S
C857 C861 1.374 . S
C857 C863 1.507 . S
C858 C859 1.387 . S
C858 C862 1.391 . S
C859 C858 1.387 . S
C859 C860 1.384 . S
C859 H868 0.930 . S
C860 C857 1.380 . S
C860 C859 1.384 . S
C860 H869 0.931 . S
C861 C857 1.374 . S
C861 C862 1.390 . S
C861 H870 0.930 . S
C862 C858 1.391 . S
C862 C861 1.390 . S
C862 H871 0.930 . S
C863 Eu833 2.825 . S
C863 O848 1.238 . S
C863 O849 1.247 . S
C863 C857 1.507 . S
H864 C837 0.930 . S
H865 C838 0.931 . S
H866 C839 0.930 . S
H867 C840 0.930 . S
H868 C859 0.930 . S
H869 C860 0.931 . S
H870 C861 0.930 . S
H871 C862 0.930 . S
Tb872 C882 2.825 . S
Tb872 O883 2.347 . S
Tb872 O886 2.366 . S
Tb872 O891 2.418 . S
Tb872 O892 2.384 . S
Tb872 O895 2.479 . S
Tb872 O896 2.471 . S
Eu873 O884 2.418 . S
Eu873 O885 2.384 . S
Eu873 O888 2.479 . S
Eu873 O889 2.471 . S
Eu873 O890 2.347 . S
Eu873 O893 2.366 . S
Eu873 C903 2.825 . S
C874 O890 1.259 . S
C874 O891 1.265 . S
C875 O892 1.255 . S
C875 O893 1.265 . S
C876 C878 1.380 . S
C876 C879 1.374 . S
C876 C882 1.507 . S
C877 C878 1.384 . S
C877 C881 1.387 . S
C877 H904 0.930 . S
C878 C876 1.380 . S
C878 C877 1.384 . S
C878 H905 0.931 . S
C879 C876 1.374 . S
C879 C880 1.390 . S
C879 H906 0.930 . S
C880 C879 1.390 . S
C880 C881 1.391 . S
C880 H907 0.930 . S
C881 C877 1.387 . S
C881 C880 1.391 . S
C882 Tb872 2.825 . S
C882 C876 1.507 . S
C882 O895 1.238 . S
C882 O896 1.247 . S
O883 Tb872 2.347 . S
O883 C887 1.259 . S
O884 Eu873 2.418 . S
O884 C887 1.265 . S
O885 Eu873 2.384 . S
O885 C894 1.255 . S
O886 Tb872 2.366 . S
O886 C894 1.265 . S
C887 O883 1.259 . S
C887 O884 1.265 . S
O888 Eu873 2.479 . S
O888 C903 1.238 . S
O889 Eu873 2.471 . S
O889 C903 1.247 . S
O890 Eu873 2.347 . S
O890 C874 1.259 . S
O891 Tb872 2.418 . S
O891 C874 1.265 . S
O892 Tb872 2.384 . S
O892 C875 1.255 . S
O893 Eu873 2.366 . S
O893 C875 1.265 . S
C894 O885 1.255 . S
C894 O886 1.265 . S
O895 Tb872 2.479 . S
O895 C882 1.238 . S
O896 Tb872 2.471 . S
O896 C882 1.247 . S
C897 C900 1.380 . S
C897 C901 1.374 . S
C897 C903 1.507 . S
C898 C899 1.387 . S
C898 C902 1.391 . S
C899 C898 1.387 . S
C899 C900 1.384 . S
C899 H908 0.930 . S
C900 C897 1.380 . S
C900 C899 1.384 . S
C900 H909 0.931 . S
C901 C897 1.374 . S
C901 C902 1.390 . S
C901 H910 0.930 . S
C902 C898 1.391 . S
C902 C901 1.390 . S
C902 H911 0.930 . S
C903 Eu873 2.825 . S
C903 O888 1.238 . S
C903 O889 1.247 . S
C903 C897 1.507 . S
H904 C877 0.930 . S
H905 C878 0.931 . S
H906 C879 0.930 . S
H907 C880 0.930 . S
H908 C899 0.930 . S
H909 C900 0.931 . S
H910 C901 0.930 . S
H911 C902 0.930 . S
Tb912 C922 2.825 1_554 S
Tb912 O923 2.347 1_554 S
Tb912 O926 2.366 . S
Tb912 O931 2.418 . S
Tb912 O932 2.384 . S
Tb912 O935 2.479 . S
Tb912 O936 2.471 1_554 S
Eu913 O924 2.418 1_554 S
Eu913 O925 2.384 . S
Eu913 O928 2.479 . S
Eu913 O929 2.471 . S
Eu913 O930 2.347 . S
Eu913 O933 2.366 . S
Eu913 C943 2.825 . S
C914 O930 1.259 . S
C914 O931 1.265 . S
C915 O932 1.255 . S
C915 O933 1.265 . S
C916 C918 1.380 . S
C916 C919 1.374 . S
C916 C922 1.507 . S
C917 C918 1.384 . S
C917 C921 1.387 . S
C917 H944 0.930 . S
C918 C916 1.380 . S
C918 C917 1.384 . S
C918 H945 0.931 1_556 S
C919 C916 1.374 . S
C919 C920 1.390 . S
C919 H946 0.930 . S
C920 C919 1.390 . S
C920 C921 1.391 . S
C920 H947 0.930 . S
C921 C917 1.387 . S
C921 C920 1.391 . S
C922 Tb912 2.825 1_556 S
C922 C916 1.507 . S
C922 O935 1.238 1_556 S
C922 O936 1.247 . S
O923 Tb912 2.347 1_556 S
O923 C927 1.259 . S
O924 Eu913 2.418 1_556 S
O924 C927 1.265 . S
O925 Eu913 2.384 . S
O925 C934 1.255 . S
O926 Tb912 2.366 . S
O926 C934 1.265 . S
C927 O923 1.259 . S
C927 O924 1.265 . S
O928 Eu913 2.479 . S
O928 C943 1.238 . S
O929 Eu913 2.471 . S
O929 C943 1.247 . S
O930 Eu913 2.347 . S
O930 C914 1.259 . S
O931 Tb912 2.418 . S
O931 C914 1.265 . S
O932 Tb912 2.384 . S
O932 C915 1.255 . S
O933 Eu913 2.366 . S
O933 C915 1.265 . S
C934 O925 1.255 . S
C934 O926 1.265 . S
O935 Tb912 2.479 . S
O935 C922 1.238 1_554 S
O936 Tb912 2.471 1_556 S
O936 C922 1.247 . S
C937 C940 1.380 . S
C937 C941 1.374 . S
C937 C943 1.507 . S
C938 C939 1.387 . S
C938 C942 1.391 . S
C939 C938 1.387 . S
C939 C940 1.384 . S
C939 H948 0.930 . S
C940 C937 1.380 . S
C940 C939 1.384 . S
C940 H949 0.931 . S
C941 C937 1.374 . S
C941 C942 1.390 . S
C941 H950 0.930 . S
C942 C938 1.391 . S
C942 C941 1.390 . S
C942 H951 0.930 . S
C943 Eu913 2.825 . S
C943 O928 1.238 . S
C943 O929 1.247 . S
C943 C937 1.507 . S
H944 C917 0.930 . S
H945 C918 0.931 1_554 S
H946 C919 0.930 . S
H947 C920 0.930 . S
H948 C939 0.930 . S
H949 C940 0.931 . S
H950 C941 0.930 . S
H951 C942 0.930 . S
C952 C953 1.363 1_655 S
C952 C958 1.379 1_655 S
C952 N960 1.356 . S
C953 C952 1.363 1_455 S
C953 C959 1.363 . S
C954 C955 1.363 . S
C954 C959 1.379 . S
C954 N961 1.356 . S
C955 C954 1.363 . S
C955 C958 1.363 . S
N956 C958 1.358 1_654 S
N956 H968 0.984 1_554 S
N956 H969 0.983 1_655 S
N957 C959 1.356 . S
N957 H962 0.984 . S
N957 H963 0.985 . S
C958 C952 1.379 1_455 S
C958 C955 1.363 . S
C958 N956 1.358 1_456 S
C959 C953 1.363 . S
C959 C954 1.379 . S
C959 N957 1.356 . S
N960 C952 1.356 . S
N960 H966 0.984 . S
N960 H967 0.984 . S
N961 C954 1.356 . S
N961 H964 0.985 1_556 S
N961 H965 0.984 . S
H962 N957 0.984 . S
H963 N957 0.985 . S
H964 N961 0.985 1_554 S
H965 N961 0.984 . S
H966 N960 0.984 . S
H967 N960 0.984 . S
H968 N956 0.984 1_556 S
H969 N956 0.983 1_455 S
C970 C971 1.363 . S
C970 C976 1.379 . S
C970 N978 1.356 . S
C971 C970 1.363 . S
C971 C977 1.363 . S
C972 C973 1.363 . S
C972 C977 1.379 . S
C972 N979 1.356 . S
C973 C972 1.363 . S
C973 C976 1.363 . S
N974 C976 1.356 . S
N974 H986 0.984 . S
N974 H987 0.985 . S
N975 C977 1.356 . S
N975 H980 0.984 . S
N975 H981 0.985 . S
C976 C970 1.379 . S
C976 C973 1.363 . S
C976 N974 1.356 . S
C977 C971 1.363 . S
C977 C972 1.379 . S
C977 N975 1.356 . S
N978 C970 1.356 . S
N978 H984 0.984 . S
N978 H985 0.984 . S
N979 C972 1.356 . S
N979 H982 0.984 . S
N979 H983 0.985 . S
H980 N975 0.984 . S
H981 N975 0.985 . S
H982 N979 0.984 . S
H983 N979 0.985 . S
H984 N978 0.984 . S
H985 N978 0.984 . S
H986 N974 0.984 . S
H987 N974 0.985 . S
C988 C989 1.363 . S
C988 C994 1.379 . S
C988 N996 1.356 . S
C989 C988 1.363 . S
C989 C995 1.363 . S
C990 C991 1.363 . S
C990 C995 1.379 . S
C990 N997 1.356 . S
C991 C990 1.363 . S
C991 C994 1.363 . S
N992 C994 1.356 . S
N992 H1004 0.984 . S
N992 H1005 0.985 . S
N993 C995 1.356 . S
N993 H998 0.984 . S
N993 H999 0.985 . S
C994 C988 1.379 . S
C994 C991 1.363 . S
C994 N992 1.356 . S
C995 C989 1.363 . S
C995 C990 1.379 . S
C995 N993 1.356 . S
N996 C988 1.356 . S
N996 H1002 0.984 . S
N996 H1003 0.984 . S
N997 C990 1.356 . S
N997 H1000 0.984 . S
N997 H1001 0.985 . S
H998 N993 0.984 . S
H999 N993 0.985 . S
H1000 N997 0.984 . S
H1001 N997 0.985 . S
H1002 N996 0.984 . S
H1003 N996 0.984 . S
H1004 N992 0.984 . S
H1005 N992 0.985 . S
C1006 C1007 1.363 . S
C1006 C1012 1.379 . S
C1006 N1014 1.356 . S
C1007 C1006 1.363 . S
C1007 C1013 1.363 . S
C1008 C1009 1.363 . S
C1008 C1013 1.379 . S
C1008 N1015 1.356 . S
C1009 C1008 1.363 . S
C1009 C1012 1.363 . S
N1010 C1012 1.356 . S
N1010 H1022 0.984 . S
N1010 H1023 0.985 . S
N1011 C1013 1.356 . S
N1011 H1016 0.984 . S
N1011 H1017 0.985 . S
C1012 C1006 1.379 . S
C1012 C1009 1.363 . S
C1012 N1010 1.356 . S
C1013 C1007 1.363 . S
C1013 C1008 1.379 . S
C1013 N1011 1.356 . S
N1014 C1006 1.356 . S
N1014 H1020 0.984 . S
N1014 H1021 0.984 . S
N1015 C1008 1.356 . S
N1015 H1018 0.984 . S
N1015 H1019 0.985 . S
H1016 N1011 0.984 . S
H1017 N1011 0.985 . S
H1018 N1015 0.984 . S
H1019 N1015 0.985 . S
H1020 N1014 0.984 . S
H1021 N1014 0.984 . S
H1022 N1010 0.984 . S
H1023 N1010 0.985 . S
C1024 C1025 1.363 . S
C1024 C1030 1.379 . S
C1024 N1032 1.356 . S
C1025 C1024 1.363 . S
C1025 C1031 1.363 . S
C1026 C1027 1.363 . S
C1026 C1031 1.379 . S
C1026 N1033 1.356 . S
C1027 C1026 1.363 . S
C1027 C1030 1.363 . S
N1028 C1030 1.356 . S
N1028 H1040 0.984 . S
N1028 H1041 0.985 . S
N1029 C1031 1.356 . S
N1029 H1034 0.984 . S
N1029 H1035 0.985 . S
C1030 C1024 1.379 . S
C1030 C1027 1.363 . S
C1030 N1028 1.356 . S
C1031 C1025 1.363 . S
C1031 C1026 1.379 . S
C1031 N1029 1.356 . S
N1032 C1024 1.356 . S
N1032 H1038 0.984 . S
N1032 H1039 0.984 . S
N1033 C1026 1.356 . S
N1033 H1036 0.984 . S
N1033 H1037 0.985 . S
H1034 N1029 0.984 . S
H1035 N1029 0.985 . S
H1036 N1033 0.984 . S
H1037 N1033 0.985 . S
H1038 N1032 0.984 . S
H1039 N1032 0.984 . S
H1040 N1028 0.984 . S
H1041 N1028 0.985 . S
C1042 C1043 1.363 . S
C1042 C1048 1.379 . S
C1042 N1050 1.356 . S
C1043 C1042 1.363 . S
C1043 C1049 1.363 . S
C1044 C1045 1.363 . S
C1044 C1049 1.379 . S
C1044 N1051 1.356 . S
C1045 C1044 1.363 . S
C1045 C1048 1.363 . S
N1046 C1048 1.356 . S
N1046 H1058 0.984 . S
N1046 H1059 0.985 . S
N1047 C1049 1.356 . S
N1047 H1052 0.984 . S
N1047 H1053 0.985 . S
C1048 C1042 1.379 . S
C1048 C1045 1.363 . S
C1048 N1046 1.356 . S
C1049 C1043 1.363 . S
C1049 C1044 1.379 . S
C1049 N1047 1.356 . S
N1050 C1042 1.356 . S
N1050 H1056 0.984 . S
N1050 H1057 0.984 . S
N1051 C1044 1.356 . S
N1051 H1054 0.984 . S
N1051 H1055 0.985 . S
H1052 N1047 0.984 . S
H1053 N1047 0.985 . S
H1054 N1051 0.984 . S
H1055 N1051 0.985 . S
H1056 N1050 0.984 . S
H1057 N1050 0.984 . S
H1058 N1046 0.984 . S
H1059 N1046 0.985 . S
C1060 C1061 1.363 . S
C1060 C1066 1.379 . S
C1060 N1068 1.356 . S
C1061 C1060 1.363 . S
C1061 C1067 1.363 . S
C1062 C1063 1.363 . S
C1062 C1067 1.379 . S
C1062 N1069 1.356 . S
C1063 C1062 1.363 . S
C1063 C1066 1.363 . S
N1064 C1066 1.356 . S
N1064 H1076 0.984 . S
N1064 H1077 0.985 . S
N1065 C1067 1.356 . S
N1065 H1070 0.984 . S
N1065 H1071 0.985 . S
C1066 C1060 1.379 . S
C1066 C1063 1.363 . S
C1066 N1064 1.356 . S
C1067 C1061 1.363 . S
C1067 C1062 1.379 . S
C1067 N1065 1.356 . S
N1068 C1060 1.356 . S
N1068 H1074 0.984 . S
N1068 H1075 0.984 . S
N1069 C1062 1.356 . S
N1069 H1072 0.984 . S
N1069 H1073 0.985 . S
H1070 N1065 0.984 . S
H1071 N1065 0.985 . S
H1072 N1069 0.984 . S
H1073 N1069 0.985 . S
H1074 N1068 0.984 . S
H1075 N1068 0.984 . S
H1076 N1064 0.984 . S
H1077 N1064 0.985 . S
C1078 C1079 1.363 . S
C1078 C1084 1.379 . S
C1078 N1086 1.356 . S
C1079 C1078 1.363 . S
C1079 C1085 1.363 . S
C1080 C1081 1.363 . S
C1080 C1085 1.379 . S
C1080 N1087 1.356 . S
C1081 C1080 1.363 . S
C1081 C1084 1.363 . S
N1082 C1084 1.356 . S
N1082 H1094 0.984 . S
N1082 H1095 0.985 . S
N1083 C1085 1.356 . S
N1083 H1088 0.984 . S
N1083 H1089 0.985 . S
C1084 C1078 1.379 . S
C1084 C1081 1.363 . S
C1084 N1082 1.356 . S
C1085 C1079 1.363 . S
C1085 C1080 1.379 . S
C1085 N1083 1.356 . S
N1086 C1078 1.356 . S
N1086 H1092 0.984 . S
N1086 H1093 0.984 . S
N1087 C1080 1.356 . S
N1087 H1090 0.984 . S
N1087 H1091 0.985 . S
H1088 N1083 0.984 . S
H1089 N1083 0.985 . S
H1090 N1087 0.984 . S
H1091 N1087 0.985 . S
H1092 N1086 0.984 . S
H1093 N1086 0.984 . S
H1094 N1082 0.984 . S
H1095 N1082 0.985 . S
C1096 C1097 1.363 . S
C1096 C1102 1.379 . S
C1096 N1104 1.356 . S
C1097 C1096 1.363 . S
C1097 C1103 1.363 1_545 S
C1098 C1099 1.363 . S
C1098 C1103 1.379 1_445 S
C1098 N1105 1.356 . S
C1099 C1098 1.363 . S
C1099 C1102 1.363 1_455 S
N1100 C1102 1.356 . S
N1100 H1112 0.984 . S
N1100 H1113 0.985 1_655 S
N1101 C1103 1.356 . S
N1101 H1106 0.984 . S
N1101 H1107 0.985 . S
C1102 C1096 1.379 . S
C1102 C1099 1.363 1_655 S
C1102 N1100 1.356 . S
C1103 C1097 1.363 1_565 S
C1103 C1098 1.379 1_665 S
C1103 N1101 1.356 . S
N1104 C1096 1.356 . S
N1104 H1110 0.984 . S
N1104 H1111 0.984 . S
N1105 C1098 1.356 . S
N1105 H1108 0.984 . S
N1105 H1109 0.985 1_545 S
H1106 N1101 0.984 . S
H1107 N1101 0.985 . S
H1108 N1105 0.984 . S
H1109 N1105 0.985 1_565 S
H1110 N1104 0.984 . S
H1111 N1104 0.984 . S
H1112 N1100 0.984 . S
H1113 N1100 0.985 1_455 S
C1114 C1115 1.363 . S
C1114 C1120 1.379 . S
C1114 N1122 1.356 . S
C1115 C1114 1.363 . S
C1115 C1121 1.363 . S
C1116 C1117 1.363 . S
C1116 C1121 1.379 . S
C1116 N1123 1.356 . S
C1117 C1116 1.363 . S
C1117 C1120 1.363 . S
N1118 C1120 1.356 . S
N1118 H1130 0.984 . S
N1118 H1131 0.985 . S
N1119 C1121 1.356 . S
N1119 H1124 0.984 . S
N1119 H1125 0.985 . S
C1120 C1114 1.379 . S
C1120 C1117 1.363 . S
C1120 N1118 1.356 . S
C1121 C1115 1.363 . S
C1121 C1116 1.379 . S
C1121 N1119 1.356 . S
N1122 C1114 1.356 . S
N1122 H1128 0.984 . S
N1122 H1129 0.984 . S
N1123 C1116 1.356 . S
N1123 H1126 0.984 . S
N1123 H1127 0.985 . S
H1124 N1119 0.984 . S
H1125 N1119 0.985 . S
H1126 N1123 0.984 . S
H1127 N1123 0.985 . S
H1128 N1122 0.984 . S
H1129 N1122 0.984 . S
H1130 N1118 0.984 . S
H1131 N1118 0.985 . S
C1132 C1133 1.363 1_565 S
C1132 C1138 1.379 1_565 S
C1132 N1140 1.356 . S
C1133 C1132 1.363 1_545 S
C1133 C1139 1.363 . S
C1134 C1135 1.363 . S
C1134 C1139 1.379 . S
C1134 N1141 1.356 . S
C1135 C1134 1.363 . S
C1135 C1138 1.363 . S
N1136 C1138 1.356 . S
N1136 H1148 0.984 1_545 S
N1136 H1149 0.985 . S
N1137 C1139 1.356 . S
N1137 H1142 0.984 . S
N1137 H1143 0.985 . S
C1138 C1132 1.379 1_545 S
C1138 C1135 1.363 . S
C1138 N1136 1.356 . S
C1139 C1133 1.363 . S
C1139 C1134 1.379 . S
C1139 N1137 1.356 . S
N1140 C1132 1.356 . S
N1140 H1146 0.984 . S
N1140 H1147 0.984 . S
N1141 C1134 1.356 . S
N1141 H1144 0.984 . S
N1141 H1145 0.985 . S
H1142 N1137 0.984 . S
H1143 N1137 0.985 . S
H1144 N1141 0.984 . S
H1145 N1141 0.985 . S
H1146 N1140 0.984 . S
H1147 N1140 0.984 . S
H1148 N1136 0.984 1_565 S
H1149 N1136 0.985 . S
C1150 C1151 1.363 . S
C1150 C1156 1.379 . S
C1150 N1158 1.356 . S
C1151 C1150 1.363 . S
C1151 C1157 1.363 . S
C1152 C1153 1.363 . S
C1152 C1157 1.379 . S
C1152 N1159 1.356 . S
C1153 C1152 1.363 . S
C1153 C1156 1.363 . S
N1154 C1156 1.356 . S
N1154 H1166 0.984 . S
N1154 H1167 0.985 . S
N1155 C1157 1.356 . S
N1155 H1160 0.984 . S
N1155 H1161 0.985 . S
C1156 C1150 1.379 . S
C1156 C1153 1.363 . S
C1156 N1154 1.356 . S
C1157 C1151 1.363 . S
C1157 C1152 1.379 . S
C1157 N1155 1.356 . S
N1158 C1150 1.356 . S
N1158 H1164 0.984 . S
N1158 H1165 0.984 . S
N1159 C1152 1.356 . S
N1159 H1162 0.984 . S
N1159 H1163 0.985 . S
H1160 N1155 0.984 . S
H1161 N1155 0.985 . S
H1162 N1159 0.984 . S
H1163 N1159 0.985 . S
H1164 N1158 0.984 . S
H1165 N1158 0.984 . S
H1166 N1154 0.984 . S
H1167 N1154 0.985 . S
C1168 C1169 1.363 . S
C1168 C1174 1.379 . S
C1168 N1176 1.356 . S
C1169 C1168 1.363 . S
C1169 C1175 1.363 . S
C1170 C1171 1.363 . S
C1170 C1175 1.379 . S
C1170 N1177 1.356 . S
C1171 C1170 1.363 . S
C1171 C1174 1.363 . S
N1172 C1174 1.356 1_455 S
N1172 H1184 0.984 . S
N1172 H1185 0.985 . S
N1173 C1175 1.356 1_565 S
N1173 H1178 0.984 . S
N1173 H1179 0.985 . S
C1174 C1168 1.379 . S
C1174 C1171 1.363 . S
C1174 N1172 1.356 1_655 S
C1175 C1169 1.363 . S
C1175 C1170 1.379 . S
C1175 N1173 1.356 1_545 S
N1176 C1168 1.356 . S
N1176 H1182 0.984 . S
N1176 H1183 0.984 . S
N1177 C1170 1.356 . S
N1177 H1180 0.984 . S
N1177 H1181 0.985 . S
H1178 N1173 0.984 . S
H1179 N1173 0.985 . S
H1180 N1177 0.984 . S
H1181 N1177 0.985 . S
H1182 N1176 0.984 . S
H1183 N1176 0.984 . S
H1184 N1172 0.984 . S
H1185 N1172 0.985 . S
C1186 C1187 1.363 . S
C1186 C1192 1.379 . S
C1186 N1194 1.356 . S
C1187 C1186 1.363 . S
C1187 C1193 1.363 . S
C1188 C1189 1.363 . S
C1188 C1193 1.379 . S
C1188 N1195 1.356 . S
C1189 C1188 1.363 . S
C1189 C1192 1.363 . S
N1190 C1192 1.356 . S
N1190 H1202 0.984 . S
N1190 H1203 0.985 . S
N1191 C1193 1.356 . S
N1191 H1196 0.984 . S
N1191 H1197 0.985 . S
C1192 C1186 1.379 . S
C1192 C1189 1.363 . S
C1192 N1190 1.356 . S
C1193 C1187 1.363 . S
C1193 C1188 1.379 . S
C1193 N1191 1.356 . S
N1194 C1186 1.356 . S
N1194 H1200 0.984 . S
N1194 H1201 0.984 . S
N1195 C1188 1.356 . S
N1195 H1198 0.984 . S
N1195 H1199 0.985 . S
H1196 N1191 0.984 . S
H1197 N1191 0.985 . S
H1198 N1195 0.984 . S
H1199 N1195 0.985 . S
H1200 N1194 0.984 . S
H1201 N1194 0.984 . S
H1202 N1190 0.984 . S
H1203 N1190 0.985 . S
C1204 C1205 1.363 . S
C1204 C1210 1.379 . S
C1204 N1212 1.356 . S
C1205 C1204 1.363 . S
C1205 C1211 1.363 . S
C1206 C1207 1.363 . S
C1206 C1211 1.379 . S
C1206 N1213 1.356 . S
C1207 C1206 1.363 . S
C1207 C1210 1.363 . S
N1208 C1210 1.356 . S
N1208 H1220 0.984 . S
N1208 H1221 0.985 . S
N1209 C1211 1.356 . S
N1209 H1214 0.984 . S
N1209 H1215 0.985 . S
C1210 C1204 1.379 . S
C1210 C1207 1.363 . S
C1210 N1208 1.356 . S
C1211 C1205 1.363 . S
C1211 C1206 1.379 . S
C1211 N1209 1.356 . S
N1212 C1204 1.356 . S
N1212 H1218 0.984 . S
N1212 H1219 0.984 1_545 S
N1213 C1206 1.356 . S
N1213 H1216 0.984 . S
N1213 H1217 0.985 . S
H1214 N1209 0.984 . S
H1215 N1209 0.985 . S
H1216 N1213 0.984 . S
H1217 N1213 0.985 . S
H1218 N1212 0.984 . S
H1219 N1212 0.984 1_565 S
H1220 N1208 0.984 . S
H1221 N1208 0.985 . S
C1222 C1223 1.363 . S
C1222 C1228 1.379 . S
C1222 N1230 1.356 . S
C1223 C1222 1.363 . S
C1223 C1229 1.363 . S
C1224 C1225 1.363 . S
C1224 C1229 1.379 . S
C1224 N1231 1.356 . S
C1225 C1224 1.363 . S
C1225 C1228 1.363 . S
N1226 C1228 1.356 . S
N1226 H1238 0.984 . S
N1226 H1239 0.985 . S
N1227 C1229 1.356 . S
N1227 H1232 0.984 . S
N1227 H1233 0.985 . S
C1228 C1222 1.379 . S
C1228 C1225 1.363 . S
C1228 N1226 1.356 . S
C1229 C1223 1.363 . S
C1229 C1224 1.379 . S
C1229 N1227 1.356 . S
N1230 C1222 1.356 . S
N1230 H1236 0.984 . S
N1230 H1237 0.984 . S
N1231 C1224 1.356 . S
N1231 H1234 0.984 . S
N1231 H1235 0.985 . S
H1232 N1227 0.984 . S
H1233 N1227 0.985 . S
H1234 N1231 0.984 . S
H1235 N1231 0.985 . S
H1236 N1230 0.984 . S
H1237 N1230 0.984 . S
H1238 N1226 0.984 . S
H1239 N1226 0.985 . S
C1240 C1241 1.363 . S
C1240 C1246 1.379 . S
C1240 N1248 1.356 . S
C1241 C1240 1.363 . S
C1241 C1247 1.363 . S
C1242 C1243 1.363 . S
C1242 C1247 1.379 . S
C1242 N1249 1.356 . S
C1243 C1242 1.363 . S
C1243 C1246 1.363 . S
N1244 C1246 1.356 1_545 S
N1244 H1256 0.984 . S
N1244 H1257 0.985 . S
N1245 C1247 1.356 . S
N1245 H1250 0.984 . S
N1245 H1251 0.985 . S
C1246 C1240 1.379 . S
C1246 C1243 1.363 . S
C1246 N1244 1.356 1_565 S
C1247 C1241 1.363 . S
C1247 C1242 1.379 . S
C1247 N1245 1.356 . S
N1248 C1240 1.356 . S
N1248 H1254 1.011 . S
N1248 H1255 0.984 . S
N1249 C1242 1.356 . S
N1249 H1252 0.984 . S
N1249 H1253 0.985 . S
H1250 N1245 0.984 . S
H1251 N1245 0.985 . S
H1252 N1249 0.984 . S
H1253 N1249 0.985 . S
H1254 N1248 1.011 . S
H1255 N1248 0.984 . S
H1256 N1244 0.984 . S
H1257 N1244 0.985 . S
C1258 C1259 1.363 . S
C1258 C1264 1.379 . S
C1258 N1266 1.356 . S
C1259 C1258 1.363 . S
C1259 C1265 1.363 1_554 S
C1260 C1261 1.363 1_556 S
C1260 C1265 1.379 . S
C1260 N1267 1.356 . S
C1261 C1260 1.363 1_554 S
C1261 C1264 1.363 . S
N1262 C1264 1.356 . S
N1262 H1274 0.984 . S
N1262 H1275 0.985 . S
N1263 C1265 1.356 . S
N1263 H1268 0.984 . S
N1263 H1269 0.985 . S
C1264 C1258 1.379 . S
C1264 C1261 1.363 . S
C1264 N1262 1.356 . S
C1265 C1259 1.363 1_556 S
C1265 C1260 1.379 . S
C1265 N1263 1.356 . S
N1266 C1258 1.356 . S
N1266 H1272 0.984 . S
N1266 H1273 0.984 . S
N1267 C1260 1.356 . S
N1267 H1270 0.984 . S
N1267 H1271 0.985 . S
H1268 N1263 0.984 . S
H1269 N1263 0.985 . S
H1270 N1267 0.984 . S
H1271 N1267 0.985 . S
H1272 N1266 0.984 . S
H1273 N1266 0.984 . S
H1274 N1262 0.984 . S
H1275 N1262 0.985 . S
C1276 C1277 1.363 . S
C1276 C1282 1.379 . S
C1276 N1284 1.356 . S
C1277 C1276 1.363 . S
C1277 C1283 1.363 . S
C1278 C1279 1.363 . S
C1278 C1283 1.379 . S
C1278 N1285 1.356 . S
C1279 C1278 1.363 . S
C1279 C1282 1.363 . S
N1280 C1282 1.356 . S
N1280 H1292 0.984 . S
N1280 H1293 0.985 . S
N1281 C1283 1.356 . S
N1281 H1286 0.984 . S
N1281 H1287 0.985 . S
C1282 C1276 1.379 . S
C1282 C1279 1.363 . S
C1282 N1280 1.356 . S
C1283 C1277 1.363 . S
C1283 C1278 1.379 . S
C1283 N1281 1.356 . S
N1284 C1276 1.356 . S
N1284 H1290 0.984 . S
N1284 H1291 0.984 . S
N1285 C1278 1.356 . S
N1285 H1288 0.984 . S
N1285 H1289 0.985 . S
H1286 N1281 0.984 . S
H1287 N1281 0.985 . S
H1288 N1285 0.984 . S
H1289 N1285 0.985 . S
H1290 N1284 0.984 . S
H1291 N1284 0.984 . S
H1292 N1280 0.984 . S
H1293 N1280 0.985 . S
C1294 C1295 1.363 . S
C1294 C1300 1.379 . S
C1294 N1302 1.356 . S
C1295 C1294 1.363 . S
C1295 C1301 1.363 . S
C1296 C1297 1.363 . S
C1296 C1301 1.379 . S
C1296 N1303 1.356 . S
C1297 C1296 1.363 . S
C1297 C1300 1.363 . S
N1298 C1300 1.356 . S
N1298 H1310 0.984 . S
N1298 H1311 0.985 . S
N1299 C1301 1.356 . S
N1299 H1304 0.984 . S
N1299 H1305 0.985 . S
C1300 C1294 1.379 . S
C1300 C1297 1.363 . S
C1300 N1298 1.356 . S
C1301 C1295 1.363 . S
C1301 C1296 1.379 . S
C1301 N1299 1.356 . S
N1302 C1294 1.356 . S
N1302 H1308 0.984 . S
N1302 H1309 0.984 . S
N1303 C1296 1.356 . S
N1303 H1306 0.984 1_655 S
N1303 H1307 0.985 . S
H1304 N1299 0.984 . S
H1305 N1299 0.985 . S
H1306 N1303 0.984 1_455 S
H1307 N1303 0.985 . S
H1308 N1302 0.984 . S
H1309 N1302 0.984 . S
H1310 N1298 0.984 . S
H1311 N1298 0.985 . S
C1312 C1313 1.363 . S
C1312 C1318 1.379 . S
C1312 N1320 1.356 . S
C1313 C1312 1.363 . S
C1313 C1319 1.363 . S
C1314 C1315 1.363 . S
C1314 C1319 1.379 . S
C1314 N1321 1.356 . S
C1315 C1314 1.363 . S
C1315 C1318 1.363 . S
N1316 C1318 1.356 . S
N1316 H1328 0.984 . S
N1316 H1329 0.985 . S
N1317 C1319 1.356 . S
N1317 H1322 0.984 . S
N1317 H1323 0.985 . S
C1318 C1312 1.379 . S
C1318 C1315 1.363 . S
C1318 N1316 1.356 . S
C1319 C1313 1.363 . S
C1319 C1314 1.379 . S
C1319 N1317 1.356 . S
N1320 C1312 1.356 . S
N1320 H1326 0.984 . S
N1320 H1327 0.984 . S
N1321 C1314 1.356 . S
N1321 H1324 0.984 . S
N1321 H1325 0.985 . S
H1322 N1317 0.984 . S
H1323 N1317 0.985 . S
H1324 N1321 0.984 . S
H1325 N1321 0.985 . S
H1326 N1320 0.984 . S
H1327 N1320 0.984 . S
H1328 N1316 0.984 . S
H1329 N1316 0.985 . S
C1330 C1331 1.363 . S
C1330 C1336 1.379 . S
C1330 N1338 1.356 . S
C1331 C1330 1.363 . S
C1331 C1337 1.363 . S
C1332 C1333 1.363 . S
C1332 C1337 1.379 . S
C1332 N1339 1.356 . S
C1333 C1332 1.363 . S
C1333 C1336 1.363 . S
N1334 C1336 1.356 . S
N1334 H1346 0.984 . S
N1334 H1347 0.985 . S
N1335 C1337 1.356 . S
N1335 H1340 0.984 . S
N1335 H1341 0.985 . S
C1336 C1330 1.379 . S
C1336 C1333 1.363 . S
C1336 N1334 1.356 . S
C1337 C1331 1.363 . S
C1337 C1332 1.379 . S
C1337 N1335 1.356 . S
N1338 C1330 1.356 . S
N1338 H1344 0.984 . S
N1338 H1345 0.984 . S
N1339 C1332 1.356 . S
N1339 H1342 0.984 . S
N1339 H1343 0.985 . S
H1340 N1335 0.984 . S
H1341 N1335 0.985 . S
H1342 N1339 0.984 . S
H1343 N1339 0.985 . S
H1344 N1338 0.984 . S
H1345 N1338 0.984 . S
H1346 N1334 0.984 . S
H1347 N1334 0.985 . S
C1348 C1349 1.363 . S
C1348 C1354 1.379 . S
C1348 N1356 1.356 . S
C1349 C1348 1.363 . S
C1349 C1355 1.363 . S
C1350 C1351 1.363 . S
C1350 C1355 1.379 . S
C1350 N1357 1.356 . S
C1351 C1350 1.363 . S
C1351 C1354 1.363 . S
N1352 C1354 1.356 . S
N1352 H1364 0.984 . S
N1352 H1365 0.985 . S
N1353 C1355 1.356 . S
N1353 H1358 0.984 . S
N1353 H1359 0.985 . S
C1354 C1348 1.379 . S
C1354 C1351 1.363 . S
C1354 N1352 1.356 . S
C1355 C1349 1.363 . S
C1355 C1350 1.379 . S
C1355 N1353 1.356 . S
N1356 C1348 1.356 . S
N1356 H1362 0.984 . S
N1356 H1363 0.984 . S
N1357 C1350 1.356 . S
N1357 H1360 0.984 . S
N1357 H1361 0.985 . S
H1358 N1353 0.984 . S
H1359 N1353 0.985 . S
H1360 N1357 0.984 . S
H1361 N1357 0.985 . S
H1362 N1356 0.984 . S
H1363 N1356 0.984 . S
H1364 N1352 0.984 . S
H1365 N1352 0.985 . S
C1366 C1367 1.363 . S
C1366 C1372 1.379 . S
C1366 N1374 1.356 . S
C1367 C1366 1.363 . S
C1367 C1373 1.363 . S
C1368 C1369 1.363 . S
C1368 C1373 1.379 . S
C1368 N1375 1.356 . S
C1369 C1368 1.363 . S
C1369 C1372 1.363 . S
N1370 C1372 1.356 . S
N1370 H1382 0.984 . S
N1370 H1383 0.985 . S
N1371 C1373 1.356 . S
N1371 H1376 0.984 . S
N1371 H1377 0.985 . S
C1372 C1366 1.379 . S
C1372 C1369 1.363 . S
C1372 N1370 1.356 . S
C1373 C1367 1.363 . S
C1373 C1368 1.379 . S
C1373 N1371 1.356 . S
N1374 C1366 1.356 . S
N1374 H1380 0.984 1_655 S
N1374 H1381 0.984 . S
N1375 C1368 1.356 . S
N1375 H1378 0.984 . S
N1375 H1379 0.985 . S
H1376 N1371 0.984 . S
H1377 N1371 0.985 . S
H1378 N1375 0.984 . S
H1379 N1375 0.985 . S
H1380 N1374 0.984 1_455 S
H1381 N1374 0.984 . S
H1382 N1370 0.984 . S
H1383 N1370 0.985 . S
C1384 C1385 1.363 . S
C1384 C1390 1.379 . S
C1384 N1392 1.356 . S
C1385 C1384 1.363 . S
C1385 C1391 1.363 . S
C1386 C1387 1.363 . S
C1386 C1391 1.379 . S
C1386 N1393 1.356 . S
C1387 C1386 1.363 . S
C1387 C1390 1.363 . S
N1388 C1390 1.359 . S
N1388 H1400 0.983 1_565 S
N1388 H1401 0.983 1_565 S
N1389 C1391 1.356 . S
N1389 H1394 0.984 . S
N1389 H1395 0.985 . S
C1390 C1384 1.379 . S
C1390 C1387 1.363 . S
C1390 N1388 1.359 . S
C1391 C1385 1.363 . S
C1391 C1386 1.379 . S
C1391 N1389 1.356 . S
N1392 C1384 1.356 . S
N1392 H1398 0.984 . S
N1392 H1399 0.984 . S
N1393 C1386 1.356 . S
N1393 H1396 0.984 . S
N1393 H1397 0.985 . S
H1394 N1389 0.984 . S
H1395 N1389 0.985 . S
H1396 N1393 0.984 . S
H1397 N1393 0.985 . S
H1398 N1392 0.984 . S
H1399 N1392 0.984 . S
H1400 N1388 0.983 1_545 S
H1401 N1388 0.983 1_545 S
C1402 C1403 1.363 . S
C1402 C1408 1.379 . S
C1402 N1410 1.356 . S
C1403 C1402 1.363 . S
C1403 C1409 1.363 . S
C1404 C1405 1.363 . S
C1404 C1409 1.379 . S
C1404 N1411 1.356 . S
C1405 C1404 1.363 . S
C1405 C1408 1.363 . S
N1406 C1408 1.356 . S
N1406 H1418 0.984 . S
N1406 H1419 0.985 . S
N1407 C1409 1.356 . S
N1407 H1412 0.984 . S
N1407 H1413 0.985 . S
C1408 C1402 1.379 . S
C1408 C1405 1.363 . S
C1408 N1406 1.356 . S
C1409 C1403 1.363 . S
C1409 C1404 1.379 . S
C1409 N1407 1.356 . S
N1410 C1402 1.356 . S
N1410 H1416 0.984 . S
N1410 H1417 0.984 . S
N1411 C1404 1.356 . S
N1411 H1414 0.984 . S
N1411 H1415 0.985 . S
H1412 N1407 0.984 . S
H1413 N1407 0.985 . S
H1414 N1411 0.984 . S
H1415 N1411 0.985 . S
H1416 N1410 0.984 . S
H1417 N1410 0.984 . S
H1418 N1406 0.984 . S
H1419 N1406 0.985 . S
C1420 C1421 1.363 . S
C1420 C1426 1.379 . S
C1420 N1428 1.356 . S
C1421 C1420 1.363 . S
C1421 C1427 1.363 . S
C1422 C1423 1.363 . S
C1422 C1427 1.379 . S
C1422 N1429 1.356 . S
C1423 C1422 1.363 . S
C1423 C1426 1.363 . S
N1424 C1426 1.356 . S
N1424 H1436 0.984 . S
N1424 H1437 0.985 . S
N1425 C1427 1.356 . S
N1425 H1430 0.984 . S
N1425 H1431 0.985 . S
C1426 C1420 1.379 . S
C1426 C1423 1.363 . S
C1426 N1424 1.356 . S
C1427 C1421 1.363 . S
C1427 C1422 1.379 . S
C1427 N1425 1.356 . S
N1428 C1420 1.356 . S
N1428 H1434 0.984 . S
N1428 H1435 0.984 . S
N1429 C1422 1.356 . S
N1429 H1432 0.984 . S
N1429 H1433 0.985 . S
H1430 N1425 0.984 . S
H1431 N1425 0.985 . S
H1432 N1429 0.984 . S
H1433 N1429 0.985 . S
H1434 N1428 0.984 . S
H1435 N1428 0.984 . S
H1436 N1424 0.984 . S
H1437 N1424 0.985 . S
C1438 C1439 1.363 . S
C1438 C1444 1.379 . S
C1438 N1446 1.356 . S
C1439 C1438 1.363 . S
C1439 C1445 1.363 . S
C1440 C1441 1.363 . S
C1440 C1445 1.379 . S
C1440 N1447 1.356 . S
C1441 C1440 1.363 . S
C1441 C1444 1.363 . S
N1442 C1444 1.356 . S
N1442 H1454 0.984 . S
N1442 H1455 0.985 . S
N1443 C1445 1.356 . S
N1443 H1448 0.984 . S
N1443 H1449 0.985 . S
C1444 C1438 1.379 . S
C1444 C1441 1.363 . S
C1444 N1442 1.356 . S
C1445 C1439 1.363 . S
C1445 C1440 1.379 . S
C1445 N1443 1.356 . S
N1446 C1438 1.356 . S
N1446 H1452 0.984 . S
N1446 H1453 0.984 . S
N1447 C1440 1.356 . S
N1447 H1450 0.984 . S
N1447 H1451 0.985 . S
H1448 N1443 0.984 . S
H1449 N1443 0.985 . S
H1450 N1447 0.984 . S
H1451 N1447 0.985 . S
H1452 N1446 0.984 . S
H1453 N1446 0.984 . S
H1454 N1442 0.984 . S
H1455 N1442 0.985 . S
C1456 C1457 1.363 . S
C1456 C1462 1.379 . S
C1456 N1464 1.356 . S
C1457 C1456 1.363 . S
C1457 C1463 1.363 . S
C1458 C1459 1.363 . S
C1458 C1463 1.379 . S
C1458 N1465 1.353 1_455 S
C1459 C1458 1.363 . S
C1459 C1462 1.363 . S
N1460 C1462 1.356 . S
N1460 H1472 0.984 . S
N1460 H1473 0.985 . S
N1461 C1463 1.356 . S
N1461 H1466 0.984 . S
N1461 H1467 0.985 1_455 S
C1462 C1456 1.379 . S
C1462 C1459 1.363 . S
C1462 N1460 1.356 . S
C1463 C1457 1.363 . S
C1463 C1458 1.379 . S
C1463 N1461 1.356 . S
N1464 C1456 1.356 . S
N1464 H1470 0.984 . S
N1464 H1471 0.984 . S
N1465 C1458 1.353 1_655 S
N1465 H1468 0.982 1_655 S
N1465 H1469 0.990 . S
H1466 N1461 0.984 . S
H1467 N1461 0.985 1_655 S
H1468 N1465 0.982 1_455 S
H1469 N1465 0.990 . S
H1470 N1464 0.984 . S
H1471 N1464 0.984 . S
H1472 N1460 0.984 . S
H1473 N1460 0.985 . S
C1474 C1475 1.363 . S
C1474 C1480 1.379 . S
C1474 N1482 1.356 . S
C1475 C1474 1.363 . S
C1475 C1481 1.363 . S
C1476 C1477 1.363 . S
C1476 C1481 1.379 . S
C1476 N1483 1.356 . S
C1477 C1476 1.363 . S
C1477 C1480 1.363 . S
N1478 C1480 1.356 . S
N1478 H1490 0.984 . S
N1478 H1491 0.985 . S
N1479 C1481 1.356 . S
N1479 H1484 0.984 . S
N1479 H1485 0.985 . S
C1480 C1474 1.379 . S
C1480 C1477 1.363 . S
C1480 N1478 1.356 . S
C1481 C1475 1.363 . S
C1481 C1476 1.379 . S
C1481 N1479 1.356 . S
N1482 C1474 1.356 . S
N1482 H1488 0.984 . S
N1482 H1489 0.984 . S
N1483 C1476 1.356 . S
N1483 H1486 0.984 . S
N1483 H1487 0.985 . S
H1484 N1479 0.984 . S
H1485 N1479 0.985 . S
H1486 N1483 0.984 . S
H1487 N1483 0.985 . S
H1488 N1482 0.984 . S
H1489 N1482 0.984 . S
H1490 N1478 0.984 . S
H1491 N1478 0.985 . S
C1492 C1493 1.363 . S
C1492 C1498 1.379 . S
C1492 N1500 1.356 . S
C1493 C1492 1.363 . S
C1493 C1499 1.363 . S
C1494 C1495 1.363 . S
C1494 C1499 1.379 . S
C1494 N1501 1.356 1_556 S
C1495 C1494 1.363 . S
C1495 C1498 1.363 . S
N1496 C1498 1.356 . S
N1496 H1508 0.984 . S
N1496 H1509 0.985 . S
N1497 C1499 1.356 . S
N1497 H1502 0.984 . S
N1497 H1503 0.985 . S
C1498 C1492 1.379 . S
C1498 C1495 1.363 . S
C1498 N1496 1.356 . S
C1499 C1493 1.363 . S
C1499 C1494 1.379 . S
C1499 N1497 1.356 . S
N1500 C1492 1.356 . S
N1500 H1506 0.984 . S
N1500 H1507 0.984 . S
N1501 C1494 1.356 1_554 S
N1501 H1504 0.984 . S
N1501 H1505 0.985 . S
H1502 N1497 0.984 . S
H1503 N1497 0.985 . S
H1504 N1501 0.984 . S
H1505 N1501 0.985 . S
H1506 N1500 0.984 . S
H1507 N1500 0.984 . S
H1508 N1496 0.984 . S
H1509 N1496 0.985 . S
C1510 C1511 1.363 . S
C1510 C1516 1.379 . S
C1510 N1518 1.356 . S
C1511 C1510 1.363 . S
C1511 C1517 1.363 . S
C1512 C1513 1.363 . S
C1512 C1517 1.379 . S
C1512 N1519 1.356 . S
C1513 C1512 1.363 . S
C1513 C1516 1.363 . S
N1514 C1516 1.356 . S
N1514 H1526 0.984 . S
N1514 H1527 0.985 . S
N1515 C1517 1.356 . S
N1515 H1520 0.984 . S
N1515 H1521 0.985 . S
C1516 C1510 1.379 . S
C1516 C1513 1.363 . S
C1516 N1514 1.356 . S
C1517 C1511 1.363 . S
C1517 C1512 1.379 . S
C1517 N1515 1.356 . S
N1518 C1510 1.356 . S
N1518 H1524 0.984 . S
N1518 H1525 0.984 . S
N1519 C1512 1.356 . S
N1519 H1522 0.984 . S
N1519 H1523 0.985 . S
H1520 N1515 0.984 . S
H1521 N1515 0.985 . S
H1522 N1519 0.984 . S
H1523 N1519 0.985 . S
H1524 N1518 0.984 . S
H1525 N1518 0.984 . S
H1526 N1514 0.984 . S
H1527 N1514 0.985 . S
C1528 C1529 1.363 . S
C1528 C1534 1.379 . S
C1528 N1536 1.356 . S
C1529 C1528 1.363 . S
C1529 C1535 1.363 . S
C1530 C1531 1.363 . S
C1530 C1535 1.379 . S
C1530 N1537 1.356 . S
C1531 C1530 1.363 . S
C1531 C1534 1.363 . S
N1532 C1534 1.356 . S
N1532 H1544 0.984 . S
N1532 H1545 0.985 . S
N1533 C1535 1.356 . S
N1533 H1538 0.984 . S
N1533 H1539 0.985 . S
C1534 C1528 1.379 . S
C1534 C1531 1.363 . S
C1534 N1532 1.356 . S
C1535 C1529 1.363 . S
C1535 C1530 1.379 . S
C1535 N1533 1.356 . S
N1536 C1528 1.356 . S
N1536 H1542 0.984 . S
N1536 H1543 0.984 . S
N1537 C1530 1.356 . S
N1537 H1540 0.984 . S
N1537 H1541 0.985 . S
H1538 N1533 0.984 . S
H1539 N1533 0.985 . S
H1540 N1537 0.984 . S
H1541 N1537 0.985 . S
H1542 N1536 0.984 . S
H1543 N1536 0.984 . S
H1544 N1532 0.984 . S
H1545 N1532 0.985 . S
C1546 C1547 1.363 . S
C1546 C1552 1.379 . S
C1546 N1554 1.356 . S
C1547 C1546 1.363 . S
C1547 C1553 1.363 . S
C1548 C1549 1.363 . S
C1548 C1553 1.379 . S
C1548 N1555 1.356 . S
C1549 C1548 1.363 . S
C1549 C1552 1.363 . S
N1550 C1552 1.356 . S
N1550 H1562 0.984 . S
N1550 H1563 0.985 . S
N1551 C1553 1.356 . S
N1551 H1556 0.984 . S
N1551 H1557 0.985 . S
C1552 C1546 1.379 . S
C1552 C1549 1.363 . S
C1552 N1550 1.356 . S
C1553 C1547 1.363 . S
C1553 C1548 1.379 . S
C1553 N1551 1.356 . S
N1554 C1546 1.356 . S
N1554 H1560 0.984 . S
N1554 H1561 0.984 . S
N1555 C1548 1.356 . S
N1555 H1558 0.984 . S
N1555 H1559 0.985 . S
H1556 N1551 0.984 . S
H1557 N1551 0.985 . S
H1558 N1555 0.984 . S
H1559 N1555 0.985 . S
H1560 N1554 0.984 . S
H1561 N1554 0.984 . S
H1562 N1550 0.984 . S
H1563 N1550 0.985 . S
C1564 C1565 1.363 . S
C1564 C1570 1.379 . S
C1564 N1572 1.356 . S
C1565 C1564 1.363 . S
C1565 C1571 1.363 . S
C1566 C1567 1.363 . S
C1566 C1571 1.379 . S
C1566 N1573 1.356 . S
C1567 C1566 1.363 . S
C1567 C1570 1.363 . S
N1568 C1570 1.356 . S
N1568 H1580 0.984 . S
N1568 H1581 0.985 . S
N1569 C1571 1.356 . S
N1569 H1574 0.984 . S
N1569 H1575 0.985 . S
C1570 C1564 1.379 . S
C1570 C1567 1.363 . S
C1570 N1568 1.356 . S
C1571 C1565 1.363 . S
C1571 C1566 1.379 . S
C1571 N1569 1.356 . S
N1572 C1564 1.356 . S
N1572 H1578 0.984 . S
N1572 H1579 0.984 . S
N1573 C1566 1.356 . S
N1573 H1576 0.984 . S
N1573 H1577 0.985 . S
H1574 N1569 0.984 . S
H1575 N1569 0.985 . S
H1576 N1573 0.984 . S
H1577 N1573 0.985 . S
H1578 N1572 0.984 . S
H1579 N1572 0.984 . S
H1580 N1568 0.984 . S
H1581 N1568 0.985 . S
C1582 C1583 1.363 . S
C1582 C1588 1.379 . S
C1582 N1590 1.356 . S
C1583 C1582 1.363 . S
C1583 C1589 1.363 . S
C1584 C1585 1.363 . S
C1584 C1589 1.379 . S
C1584 N1591 1.356 . S
C1585 C1584 1.363 . S
C1585 C1588 1.363 . S
N1586 C1588 1.356 . S
N1586 H1598 0.984 . S
N1586 H1599 0.985 . S
N1587 C1589 1.356 . S
N1587 H1592 0.984 . S
N1587 H1593 0.985 . S
C1588 C1582 1.379 . S
C1588 C1585 1.363 . S
C1588 N1586 1.356 . S
C1589 C1583 1.363 . S
C1589 C1584 1.379 . S
C1589 N1587 1.356 . S
N1590 C1582 1.356 . S
N1590 H1596 0.984 . S
N1590 H1597 0.984 . S
N1591 C1584 1.356 . S
N1591 H1594 0.984 . S
N1591 H1595 0.985 . S
H1592 N1587 0.984 . S
H1593 N1587 0.985 . S
H1594 N1591 0.984 . S
H1595 N1591 0.985 . S
H1596 N1590 0.984 . S
H1597 N1590 0.984 . S
H1598 N1586 0.984 . S
H1599 N1586 0.985 . S
C1600 C1601 1.363 . S
C1600 C1606 1.379 . S
C1600 N1608 1.356 . S
C1601 C1600 1.363 . S
C1601 C1607 1.363 . S
C1602 C1603 1.363 . S
C1602 C1607 1.379 . S
C1602 N1609 1.356 . S
C1603 C1602 1.363 . S
C1603 C1606 1.363 . S
N1604 C1606 1.356 . S
N1604 H1616 0.984 . S
N1604 H1617 0.985 . S
N1605 C1607 1.356 . S
N1605 H1610 0.984 . S
N1605 H1611 0.985 . S
C1606 C1600 1.379 . S
C1606 C1603 1.363 . S
C1606 N1604 1.356 . S
C1607 C1601 1.363 . S
C1607 C1602 1.379 . S
C1607 N1605 1.356 . S
N1608 C1600 1.356 . S
N1608 H1614 0.984 . S
N1608 H1615 0.984 . S
N1609 C1602 1.356 . S
N1609 H1612 0.984 . S
N1609 H1613 0.985 . S
H1610 N1605 0.984 . S
H1611 N1605 0.985 . S
H1612 N1609 0.984 . S
H1613 N1609 0.985 . S
H1614 N1608 0.984 . S
H1615 N1608 0.984 . S
H1616 N1604 0.984 . S
H1617 N1604 0.985 . S
C1618 C1619 1.363 . S
C1618 C1624 1.379 . S
C1618 N1626 1.356 . S
C1619 C1618 1.363 . S
C1619 C1625 1.363 . S
C1620 C1621 1.363 . S
C1620 C1625 1.379 . S
C1620 N1627 1.356 . S
C1621 C1620 1.363 . S
C1621 C1624 1.363 . S
N1622 C1624 1.356 . S
N1622 H1634 0.984 . S
N1622 H1635 0.985 . S
N1623 C1625 1.356 . S
N1623 H1628 0.984 . S
N1623 H1629 0.985 . S
C1624 C1618 1.379 . S
C1624 C1621 1.363 . S
C1624 N1622 1.356 . S
C1625 C1619 1.363 . S
C1625 C1620 1.379 . S
C1625 N1623 1.356 . S
N1626 C1618 1.356 . S
N1626 H1632 0.984 . S
N1626 H1633 0.984 . S
N1627 C1620 1.356 . S
N1627 H1630 0.984 . S
N1627 H1631 0.985 . S
H1628 N1623 0.984 . S
H1629 N1623 0.985 . S
H1630 N1627 0.984 . S
H1631 N1627 0.985 . S
H1632 N1626 0.984 . S
H1633 N1626 0.984 . S
H1634 N1622 0.984 . S
H1635 N1622 0.985 . S
C1636 C1637 1.363 . S
C1636 C1642 1.379 . S
C1636 N1644 1.356 . S
C1637 C1636 1.363 . S
C1637 C1643 1.363 . S
C1638 C1639 1.363 . S
C1638 C1643 1.379 . S
C1638 N1645 1.356 . S
C1639 C1638 1.363 . S
C1639 C1642 1.363 . S
N1640 C1642 1.356 . S
N1640 H1652 0.984 . S
N1640 H1653 0.985 . S
N1641 C1643 1.356 . S
N1641 H1646 0.984 . S
N1641 H1647 0.985 . S
C1642 C1636 1.379 . S
C1642 C1639 1.363 . S
C1642 N1640 1.356 . S
C1643 C1637 1.363 . S
C1643 C1638 1.379 . S
C1643 N1641 1.356 . S
N1644 C1636 1.356 . S
N1644 H1650 0.984 . S
N1644 H1651 0.984 . S
N1645 C1638 1.356 . S
N1645 H1648 0.984 1_545 S
N1645 H1649 0.985 1_545 S
H1646 N1641 0.984 . S
H1647 N1641 0.985 . S
H1648 N1645 0.984 1_565 S
H1649 N1645 0.985 1_565 S
H1650 N1644 0.984 . S
H1651 N1644 0.984 . S
H1652 N1640 0.984 . S
H1653 N1640 0.985 . S
C1654 C1655 1.363 . S
C1654 C1660 1.379 . S
C1654 N1662 1.356 . S
C1655 C1654 1.363 . S
C1655 C1661 1.363 . S
C1656 C1657 1.363 . S
C1656 C1661 1.379 . S
C1656 N1663 1.356 . S
C1657 C1656 1.363 . S
C1657 C1660 1.363 . S
N1658 C1660 1.356 . S
N1658 H1670 0.984 . S
N1658 H1671 0.985 . S
N1659 C1661 1.356 . S
N1659 H1664 0.984 . S
N1659 H1665 0.985 . S
C1660 C1654 1.379 . S
C1660 C1657 1.363 . S
C1660 N1658 1.356 . S
C1661 C1655 1.363 . S
C1661 C1656 1.379 . S
C1661 N1659 1.356 . S
N1662 C1654 1.356 . S
N1662 H1668 0.984 . S
N1662 H1669 0.984 . S
N1663 C1656 1.356 . S
N1663 H1666 0.984 . S
N1663 H1667 0.985 . S
H1664 N1659 0.984 . S
H1665 N1659 0.985 . S
H1666 N1663 0.984 . S
H1667 N1663 0.985 . S
H1668 N1662 0.984 . S
H1669 N1662 0.984 . S
H1670 N1658 0.984 . S
H1671 N1658 0.985 . S
C1672 C1673 1.363 . S
C1672 C1678 1.379 . S
C1672 N1680 1.356 . S
C1673 C1672 1.363 . S
C1673 C1679 1.363 . S
C1674 C1675 1.363 . S
C1674 C1679 1.379 . S
C1674 N1681 1.356 . S
C1675 C1674 1.363 . S
C1675 C1678 1.363 . S
N1676 C1678 1.356 . S
N1676 H1688 0.984 . S
N1676 H1689 0.985 . S
N1677 C1679 1.356 1_554 S
N1677 H1682 0.984 . S
N1677 H1683 0.985 . S
C1678 C1672 1.379 . S
C1678 C1675 1.363 . S
C1678 N1676 1.356 . S
C1679 C1673 1.363 . S
C1679 C1674 1.379 . S
C1679 N1677 1.356 1_556 S
N1680 C1672 1.356 . S
N1680 H1686 0.984 . S
N1680 H1687 0.984 . S
N1681 C1674 1.356 . S
N1681 H1684 0.984 . S
N1681 H1685 0.985 . S
H1682 N1677 0.984 . S
H1683 N1677 0.985 . S
H1684 N1681 0.984 . S
H1685 N1681 0.985 . S
H1686 N1680 0.984 . S
H1687 N1680 0.984 . S
H1688 N1676 0.984 . S
H1689 N1676 0.985 . S
C1690 C1691 1.363 . S
C1690 C1696 1.379 . S
C1690 N1698 1.356 . S
C1691 C1690 1.363 . S
C1691 C1697 1.363 . S
C1692 C1693 1.363 . S
C1692 C1697 1.379 . S
C1692 N1699 1.356 1_554 S
C1693 C1692 1.363 . S
C1693 C1696 1.363 . S
N1694 C1696 1.356 . S
N1694 H1706 0.984 . S
N1694 H1707 0.985 . S
N1695 C1697 1.356 . S
N1695 H1700 0.984 . S
N1695 H1701 0.985 1_554 S
C1696 C1690 1.379 . S
C1696 C1693 1.363 . S
C1696 N1694 1.356 . S
C1697 C1691 1.363 . S
C1697 C1692 1.379 . S
C1697 N1695 1.356 . S
N1698 C1690 1.356 . S
N1698 H1704 0.984 . S
N1698 H1705 0.984 . S
N1699 C1692 1.356 1_556 S
N1699 H1702 0.984 . S
N1699 H1703 0.985 . S
H1700 N1695 0.984 . S
H1701 N1695 0.985 1_556 S
H1702 N1699 0.984 . S
H1703 N1699 0.985 . S
H1704 N1698 0.984 . S
H1705 N1698 0.984 . S
H1706 N1694 0.984 . S
H1707 N1694 0.985 . S
C1708 C1709 1.363 . S
C1708 C1714 1.379 . S
C1708 N1716 1.356 . S
C1709 C1708 1.363 . S
C1709 C1715 1.363 . S
C1710 C1711 1.363 . S
C1710 C1715 1.379 . S
C1710 N1717 1.356 . S
C1711 C1710 1.363 . S
C1711 C1714 1.363 . S
N1712 C1714 1.356 . S
N1712 H1724 0.984 . S
N1712 H1725 0.985 . S
N1713 C1715 1.356 . S
N1713 H1718 0.984 . S
N1713 H1719 0.985 . S
C1714 C1708 1.379 . S
C1714 C1711 1.363 . S
C1714 N1712 1.356 . S
C1715 C1709 1.363 . S
C1715 C1710 1.379 . S
C1715 N1713 1.356 . S
N1716 C1708 1.356 . S
N1716 H1722 0.984 . S
N1716 H1723 0.984 . S
N1717 C1710 1.356 . S
N1717 H1720 0.984 . S
N1717 H1721 0.985 . S
H1718 N1713 0.984 . S
H1719 N1713 0.985 . S
H1720 N1717 0.984 . S
H1721 N1717 0.985 . S
H1722 N1716 0.984 . S
H1723 N1716 0.984 . S
H1724 N1712 0.984 . S
H1725 N1712 0.985 . S
C1726 C1727 1.363 . S
C1726 C1732 1.379 . S
C1726 N1734 1.356 . S
C1727 C1726 1.363 . S
C1727 C1733 1.363 . S
C1728 C1729 1.363 . S
C1728 C1733 1.379 . S
C1728 N1735 1.356 . S
C1729 C1728 1.363 . S
C1729 C1732 1.363 . S
N1730 C1732 1.356 . S
N1730 H1742 0.984 . S
N1730 H1743 0.985 . S
N1731 C1733 1.356 . S
N1731 H1736 0.984 . S
N1731 H1737 0.985 . S
C1732 C1726 1.379 . S
C1732 C1729 1.363 . S
C1732 N1730 1.356 . S
C1733 C1727 1.363 . S
C1733 C1728 1.379 . S
C1733 N1731 1.356 . S
N1734 C1726 1.356 . S
N1734 H1740 0.984 . S
N1734 H1741 0.984 . S
N1735 C1728 1.356 . S
N1735 H1738 0.984 . S
N1735 H1739 0.985 . S
H1736 N1731 0.984 . S
H1737 N1731 0.985 . S
H1738 N1735 0.984 . S
H1739 N1735 0.985 . S
H1740 N1734 0.984 . S
H1741 N1734 0.984 . S
H1742 N1730 0.984 . S
H1743 N1730 0.985 . S
C1744 C1745 1.363 . S
C1744 C1750 1.379 . S
C1744 N1752 1.356 . S
C1745 C1744 1.363 . S
C1745 C1751 1.363 . S
C1746 C1747 1.363 . S
C1746 C1751 1.379 . S
C1746 N1753 1.356 . S
C1747 C1746 1.363 . S
C1747 C1750 1.363 . S
N1748 C1750 1.356 . S
N1748 H1760 0.984 1_565 S
N1748 H1761 0.985 . S
N1749 C1751 1.356 . S
N1749 H1754 0.984 . S
N1749 H1755 0.985 . S
C1750 C1744 1.379 . S
C1750 C1747 1.363 . S
C1750 N1748 1.356 . S
C1751 C1745 1.363 . S
C1751 C1746 1.379 . S
C1751 N1749 1.356 . S
N1752 C1744 1.356 . S
N1752 H1758 0.984 1_565 S
N1752 H1759 0.984 . S
N1753 C1746 1.356 . S
N1753 H1756 0.984 . S
N1753 H1757 0.985 . S
H1754 N1749 0.984 . S
H1755 N1749 0.985 . S
H1756 N1753 0.984 . S
H1757 N1753 0.985 . S
H1758 N1752 0.984 1_545 S
H1759 N1752 0.984 . S
H1760 N1748 0.984 1_545 S
H1761 N1748 0.985 . S
C1762 C1763 1.363 . S
C1762 C1768 1.379 1_565 S
C1762 N1770 1.356 . S
C1763 C1762 1.363 . S
C1763 C1769 1.363 . S
C1764 C1765 1.363 1_565 S
C1764 C1769 1.379 . S
C1764 N1771 1.356 . S
C1765 C1764 1.363 1_545 S
C1765 C1768 1.363 . S
N1766 C1768 1.356 . S
N1766 H1778 0.984 . S
N1766 H1779 0.985 . S
N1767 C1769 1.356 . S
N1767 H1772 0.984 . S
N1767 H1773 0.985 . S
C1768 C1762 1.379 1_545 S
C1768 C1765 1.363 . S
C1768 N1766 1.356 . S
C1769 C1763 1.363 . S
C1769 C1764 1.379 . S
C1769 N1767 1.356 . S
N1770 C1762 1.356 . S
N1770 H1776 0.984 1_565 S
N1770 H1777 0.984 . S
N1771 C1764 1.356 . S
N1771 H1774 0.984 . S
N1771 H1775 0.985 . S
H1772 N1767 0.984 . S
H1773 N1767 0.985 . S
H1774 N1771 0.984 . S
H1775 N1771 0.985 . S
H1776 N1770 0.984 1_545 S
H1777 N1770 0.984 . S
H1778 N1766 0.984 . S
H1779 N1766 0.985 . S
C1780 C1781 1.363 . S
C1780 C1786 1.379 . S
C1780 N1788 1.356 . S
C1781 C1780 1.363 . S
C1781 C1787 1.363 . S
C1782 C1783 1.363 . S
C1782 C1787 1.379 . S
C1782 N1789 1.356 . S
C1783 C1782 1.363 . S
C1783 C1786 1.363 . S
N1784 C1786 1.356 . S
N1784 H1796 0.984 . S
N1784 H1797 0.985 . S
N1785 C1787 1.356 . S
N1785 H1790 0.984 . S
N1785 H1791 0.985 . S
C1786 C1780 1.379 . S
C1786 C1783 1.363 . S
C1786 N1784 1.356 . S
C1787 C1781 1.363 . S
C1787 C1782 1.379 . S
C1787 N1785 1.356 . S
N1788 C1780 1.356 . S
N1788 H1794 0.984 . S
N1788 H1795 0.984 . S
N1789 C1782 1.356 . S
N1789 H1792 0.984 . S
N1789 H1793 0.985 . S
H1790 N1785 0.984 . S
H1791 N1785 0.985 . S
H1792 N1789 0.984 . S
H1793 N1789 0.985 . S
H1794 N1788 0.984 . S
H1795 N1788 0.984 . S
H1796 N1784 0.984 . S
H1797 N1784 0.985 . S
C1798 C1799 1.363 . S
C1798 C1804 1.379 . S
C1798 N1806 1.356 . S
C1799 C1798 1.363 . S
C1799 C1805 1.363 . S
C1800 C1801 1.363 . S
C1800 C1805 1.379 . S
C1800 N1807 1.356 . S
C1801 C1800 1.363 . S
C1801 C1804 1.363 . S
N1802 C1804 1.356 . S
N1802 H1814 0.984 . S
N1802 H1815 0.985 . S
N1803 C1805 1.356 . S
N1803 H1808 0.984 . S
N1803 H1809 0.985 . S
C1804 C1798 1.379 . S
C1804 C1801 1.363 . S
C1804 N1802 1.356 . S
C1805 C1799 1.363 . S
C1805 C1800 1.379 . S
C1805 N1803 1.356 . S
N1806 C1798 1.356 . S
N1806 H1812 0.984 . S
N1806 H1813 0.984 . S
N1807 C1800 1.356 . S
N1807 H1810 0.984 . S
N1807 H1811 0.985 . S
H1808 N1803 0.984 . S
H1809 N1803 0.985 . S
H1810 N1807 0.984 . S
H1811 N1807 0.985 . S
H1812 N1806 0.984 . S
H1813 N1806 0.984 . S
H1814 N1802 0.984 . S
H1815 N1802 0.985 . S
C1816 C1817 1.363 . S
C1816 C1822 1.379 . S
C1816 N1824 1.356 . S
C1817 C1816 1.363 . S
C1817 C1823 1.363 . S
C1818 C1819 1.363 . S
C1818 C1823 1.379 . S
C1818 N1825 1.356 . S
C1819 C1818 1.363 . S
C1819 C1822 1.363 . S
N1820 C1822 1.356 . S
N1820 H1832 0.984 . S
N1820 H1833 0.985 . S
N1821 C1823 1.356 . S
N1821 H1826 0.984 . S
N1821 H1827 0.985 . S
C1822 C1816 1.379 . S
C1822 C1819 1.363 . S
C1822 N1820 1.356 . S
C1823 C1817 1.363 . S
C1823 C1818 1.379 . S
C1823 N1821 1.356 . S
N1824 C1816 1.356 . S
N1824 H1830 0.984 . S
N1824 H1831 0.984 . S
N1825 C1818 1.356 . S
N1825 H1828 0.984 . S
N1825 H1829 0.985 . S
H1826 N1821 0.984 . S
H1827 N1821 0.985 . S
H1828 N1825 0.984 . S
H1829 N1825 0.985 . S
H1830 N1824 0.984 . S
H1831 N1824 0.984 . S
H1832 N1820 0.984 . S
H1833 N1820 0.985 . S
C1834 C1835 1.363 . S
C1834 C1840 1.379 . S
C1834 N1842 1.356 . S
C1835 C1834 1.363 . S
C1835 C1841 1.363 . S
C1836 C1837 1.363 . S
C1836 C1841 1.379 . S
C1836 N1843 1.356 . S
C1837 C1836 1.363 . S
C1837 C1840 1.363 . S
N1838 C1840 1.356 . S
N1838 H1850 0.984 . S
N1838 H1851 0.985 . S
N1839 C1841 1.356 . S
N1839 H1844 0.984 . S
N1839 H1845 0.985 . S
C1840 C1834 1.379 . S
C1840 C1837 1.363 . S
C1840 N1838 1.356 . S
C1841 C1835 1.363 . S
C1841 C1836 1.379 . S
C1841 N1839 1.356 . S
N1842 C1834 1.356 . S
N1842 H1848 0.984 . S
N1842 H1849 0.984 . S
N1843 C1836 1.356 . S
N1843 H1846 0.984 . S
N1843 H1847 0.985 . S
H1844 N1839 0.984 . S
H1845 N1839 0.985 . S
H1846 N1843 0.984 . S
H1847 N1843 0.985 . S
H1848 N1842 0.984 . S
H1849 N1842 0.984 . S
H1850 N1838 0.984 . S
H1851 N1838 0.985 . S
C1852 C1853 1.363 . S
C1852 C1858 1.379 . S
C1852 N1860 1.356 . S
C1853 C1852 1.363 . S
C1853 C1859 1.363 . S
C1854 C1855 1.363 . S
C1854 C1859 1.379 . S
C1854 N1861 1.356 . S
C1855 C1854 1.363 . S
C1855 C1858 1.363 . S
N1856 C1858 1.356 . S
N1856 H1868 0.984 . S
N1856 H1869 0.985 . S
N1857 C1859 1.356 1_655 S
N1857 H1862 0.984 . S
N1857 H1863 0.985 . S
C1858 C1852 1.379 . S
C1858 C1855 1.363 . S
C1858 N1856 1.356 . S
C1859 C1853 1.363 . S
C1859 C1854 1.379 . S
C1859 N1857 1.356 1_455 S
N1860 C1852 1.356 . S
N1860 H1866 0.984 . S
N1860 H1867 0.984 . S
N1861 C1854 1.356 . S
N1861 H1864 0.984 . S
N1861 H1865 0.982 1_456 S
H1862 N1857 0.984 . S
H1863 N1857 0.985 . S
H1864 N1861 0.984 . S
H1865 N1861 0.982 1_654 S
H1866 N1860 0.984 . S
H1867 N1860 0.984 . S
H1868 N1856 0.984 . S
H1869 N1856 0.985 . S
C1870 C1871 1.363 . S
C1870 C1876 1.379 1_455 S
C1870 N1878 1.356 . S
C1871 C1870 1.363 . S
C1871 C1877 1.363 . S
C1872 C1873 1.363 1_455 S
C1872 C1877 1.379 . S
C1872 N1879 1.356 . S
C1873 C1872 1.363 1_655 S
C1873 C1876 1.363 . S
N1874 C1876 1.356 . S
N1874 H1886 0.984 . S
N1874 H1887 0.985 . S
N1875 C1877 1.356 . S
N1875 H1880 0.984 . S
N1875 H1881 0.985 . S
C1876 C1870 1.379 1_655 S
C1876 C1873 1.363 . S
C1876 N1874 1.356 . S
C1877 C1871 1.363 . S
C1877 C1872 1.379 . S
C1877 N1875 1.356 . S
N1878 C1870 1.356 . S
N1878 H1884 0.984 . S
N1878 H1885 0.984 . S
N1879 C1872 1.356 . S
N1879 H1882 0.984 1_455 S
N1879 H1883 0.985 . S
H1880 N1875 0.984 . S
H1881 N1875 0.985 . S
H1882 N1879 0.984 1_655 S
H1883 N1879 0.985 . S
H1884 N1878 0.984 . S
H1885 N1878 0.984 . S
H1886 N1874 0.984 . S
H1887 N1874 0.985 . S
C1888 C1889 1.363 . S
C1888 C1894 1.379 . S
C1888 N1896 1.356 . S
C1889 C1888 1.363 . S
C1889 C1895 1.363 . S
C1890 C1891 1.363 . S
C1890 C1895 1.379 . S
C1890 N1897 1.356 . S
C1891 C1890 1.363 . S
C1891 C1894 1.363 . S
N1892 C1894 1.356 . S
N1892 H1904 0.984 . S
N1892 H1905 0.985 . S
N1893 C1895 1.356 . S
N1893 H1898 0.984 . S
N1893 H1899 0.985 . S
C1894 C1888 1.379 . S
C1894 C1891 1.363 . S
C1894 N1892 1.356 . S
C1895 C1889 1.363 . S
C1895 C1890 1.379 . S
C1895 N1893 1.356 . S
N1896 C1888 1.356 . S
N1896 H1902 0.984 . S
N1896 H1903 0.984 . S
N1897 C1890 1.356 . S
N1897 H1900 0.984 . S
N1897 H1901 0.985 . S
H1898 N1893 0.984 . S
H1899 N1893 0.985 . S
H1900 N1897 0.984 . S
H1901 N1897 0.985 . S
H1902 N1896 0.984 . S
H1903 N1896 0.984 . S
H1904 N1892 0.984 . S
H1905 N1892 0.985 . S
C1906 C1907 1.363 . S
C1906 C1912 1.379 . S
C1906 N1914 1.356 . S
C1907 C1906 1.363 . S
C1907 C1913 1.363 . S
C1908 C1909 1.363 . S
C1908 C1913 1.379 . S
C1908 N1915 1.356 . S
C1909 C1908 1.363 . S
C1909 C1912 1.363 . S
N1910 C1912 1.356 . S
N1910 H1922 0.984 . S
N1910 H1923 0.985 . S
N1911 C1913 1.356 . S
N1911 H1916 0.984 . S
N1911 H1917 0.985 . S
C1912 C1906 1.379 . S
C1912 C1909 1.363 . S
C1912 N1910 1.356 . S
C1913 C1907 1.363 . S
C1913 C1908 1.379 . S
C1913 N1911 1.356 . S
N1914 C1906 1.356 . S
N1914 H1920 0.984 . S
N1914 H1921 0.984 . S
N1915 C1908 1.356 . S
N1915 H1918 0.984 . S
N1915 H1919 0.985 . S
H1916 N1911 0.984 . S
H1917 N1911 0.985 . S
H1918 N1915 0.984 . S
H1919 N1915 0.985 . S
H1920 N1914 0.984 . S
H1921 N1914 0.984 . S
H1922 N1910 0.984 . S
H1923 N1910 0.985 . S
C1924 C1925 1.363 . S
C1924 C1930 1.379 . S
C1924 N1932 1.356 . S
C1925 C1924 1.363 . S
C1925 C1931 1.363 . S
C1926 C1927 1.363 . S
C1926 C1931 1.379 . S
C1926 N1933 1.356 . S
C1927 C1926 1.363 . S
C1927 C1930 1.363 . S
N1928 C1930 1.356 . S
N1928 H1940 0.984 . S
N1928 H1941 0.985 . S
N1929 C1931 1.356 . S
N1929 H1934 0.984 . S
N1929 H1935 0.985 . S
C1930 C1924 1.379 . S
C1930 C1927 1.363 . S
C1930 N1928 1.356 . S
C1931 C1925 1.363 . S
C1931 C1926 1.379 . S
C1931 N1929 1.356 . S
N1932 C1924 1.356 . S
N1932 H1938 0.984 . S
N1932 H1939 0.984 . S
N1933 C1926 1.356 . S
N1933 H1936 0.984 . S
N1933 H1937 0.985 . S
H1934 N1929 0.984 . S
H1935 N1929 0.985 . S
H1936 N1933 0.984 . S
H1937 N1933 0.985 . S
H1938 N1932 0.984 . S
H1939 N1932 0.984 . S
H1940 N1928 0.984 . S
H1941 N1928 0.985 . S
C1942 C1943 1.363 . S
C1942 C1948 1.379 . S
C1942 N1950 1.356 . S
C1943 C1942 1.363 . S
C1943 C1949 1.363 . S
C1944 C1945 1.363 . S
C1944 C1949 1.379 . S
C1944 N1951 1.356 . S
C1945 C1944 1.363 . S
C1945 C1948 1.363 . S
N1946 C1948 1.356 . S
N1946 H1958 0.984 . S
N1946 H1959 0.985 . S
N1947 C1949 1.356 . S
N1947 H1952 0.984 . S
N1947 H1953 0.985 . S
C1948 C1942 1.379 . S
C1948 C1945 1.363 . S
C1948 N1946 1.356 . S
C1949 C1943 1.363 . S
C1949 C1944 1.379 . S
C1949 N1947 1.356 . S
N1950 C1942 1.356 . S
N1950 H1956 0.984 . S
N1950 H1957 0.984 . S
N1951 C1944 1.356 . S
N1951 H1954 0.984 . S
N1951 H1955 0.985 . S
H1952 N1947 0.984 . S
H1953 N1947 0.985 . S
H1954 N1951 0.984 . S
H1955 N1951 0.985 . S
H1956 N1950 0.984 . S
H1957 N1950 0.984 . S
H1958 N1946 0.984 . S
H1959 N1946 0.985 . S
C1960 C1961 1.363 . S
C1960 C1966 1.379 . S
C1960 N1968 1.356 . S
C1961 C1960 1.363 . S
C1961 C1967 1.363 . S
C1962 C1963 1.363 . S
C1962 C1967 1.379 . S
C1962 N1969 1.356 . S
C1963 C1962 1.363 . S
C1963 C1966 1.363 . S
N1964 C1966 1.356 . S
N1964 H1976 0.984 . S
N1964 H1977 0.985 . S
N1965 C1967 1.356 . S
N1965 H1970 0.984 . S
N1965 H1971 0.985 . S
C1966 C1960 1.379 . S
C1966 C1963 1.363 . S
C1966 N1964 1.356 . S
C1967 C1961 1.363 . S
C1967 C1962 1.379 . S
C1967 N1965 1.356 . S
N1968 C1960 1.356 . S
N1968 H1974 0.984 . S
N1968 H1975 0.984 . S
N1969 C1962 1.356 . S
N1969 H1972 0.984 . S
N1969 H1973 0.985 . S
H1970 N1965 0.984 . S
H1971 N1965 0.985 . S
H1972 N1969 0.984 . S
H1973 N1969 0.985 . S
H1974 N1968 0.984 . S
H1975 N1968 0.984 . S
H1976 N1964 0.984 . S
H1977 N1964 0.985 . S
C1978 C1979 1.363 . S
C1978 C1984 1.379 . S
C1978 N1986 1.356 . S
C1979 C1978 1.363 . S
C1979 C1985 1.363 . S
C1980 C1981 1.363 . S
C1980 C1985 1.379 . S
C1980 N1987 1.356 . S
C1981 C1980 1.363 . S
C1981 C1984 1.363 . S
N1982 C1984 1.356 . S
N1982 H1994 0.984 . S
N1982 H1995 0.985 . S
N1983 C1985 1.356 . S
N1983 H1988 0.984 . S
N1983 H1989 0.985 . S
C1984 C1978 1.379 . S
C1984 C1981 1.363 . S
C1984 N1982 1.356 . S
C1985 C1979 1.363 . S
C1985 C1980 1.379 . S
C1985 N1983 1.356 . S
N1986 C1978 1.356 . S
N1986 H1992 0.984 . S
N1986 H1993 0.984 . S
N1987 C1980 1.356 . S
N1987 H1990 0.984 . S
N1987 H1991 0.985 . S
H1988 N1983 0.984 . S
H1989 N1983 0.985 . S
H1990 N1987 0.984 . S
H1991 N1987 0.985 . S
H1992 N1986 0.984 . S
H1993 N1986 0.984 . S
H1994 N1982 0.984 . S
H1995 N1982 0.985 . S
C1996 C1997 1.363 . S
C1996 C2002 1.379 . S
C1996 N2004 1.356 . S
C1997 C1996 1.363 . S
C1997 C2003 1.363 . S
C1998 C1999 1.363 . S
C1998 C2003 1.379 . S
C1998 N2005 1.356 . S
C1999 C1998 1.363 . S
C1999 C2002 1.363 . S
N2000 C2002 1.356 . S
N2000 H2012 0.984 . S
N2000 H2013 0.985 . S
N2001 C2003 1.356 . S
N2001 H2006 0.984 . S
N2001 H2007 0.985 . S
C2002 C1996 1.379 . S
C2002 C1999 1.363 . S
C2002 N2000 1.356 . S
C2003 C1997 1.363 . S
C2003 C1998 1.379 . S
C2003 N2001 1.356 . S
N2004 C1996 1.356 . S
N2004 H2010 0.984 . S
N2004 H2011 0.984 . S
N2005 C1998 1.356 . S
N2005 H2008 0.984 . S
N2005 H2009 0.985 . S
H2006 N2001 0.984 . S
H2007 N2001 0.985 . S
H2008 N2005 0.984 . S
H2009 N2005 0.985 . S
H2010 N2004 0.984 . S
H2011 N2004 0.984 . S
H2012 N2000 0.984 . S
H2013 N2000 0.985 . S
C2014 C2015 1.363 . S
C2014 C2020 1.379 . S
C2014 N2022 1.356 . S
C2015 C2014 1.363 . S
C2015 C2021 1.363 . S
C2016 C2017 1.363 . S
C2016 C2021 1.379 . S
C2016 N2023 1.356 . S
C2017 C2016 1.363 . S
C2017 C2020 1.363 . S
N2018 C2020 1.356 . S
N2018 H2030 0.984 . S
N2018 H2031 0.985 . S
N2019 C2021 1.356 . S
N2019 H2024 0.984 . S
N2019 H2025 0.985 . S
C2020 C2014 1.379 . S
C2020 C2017 1.363 . S
C2020 N2018 1.356 . S
C2021 C2015 1.363 . S
C2021 C2016 1.379 . S
C2021 N2019 1.356 . S
N2022 C2014 1.356 . S
N2022 H2028 0.984 . S
N2022 H2029 0.984 . S
N2023 C2016 1.356 . S
N2023 H2026 0.984 . S
N2023 H2027 0.985 . S
H2024 N2019 0.984 . S
H2025 N2019 0.985 . S
H2026 N2023 0.984 . S
H2027 N2023 0.985 . S
H2028 N2022 0.984 . S
H2029 N2022 0.984 . S
H2030 N2018 0.984 . S
H2031 N2018 0.985 . S
C2032 C2033 1.363 . S
C2032 C2038 1.379 . S
C2032 N2040 1.356 . S
C2033 C2032 1.363 . S
C2033 C2039 1.363 . S
C2034 C2035 1.363 . S
C2034 C2039 1.379 . S
C2034 N2041 1.356 . S
C2035 C2034 1.363 . S
C2035 C2038 1.363 . S
N2036 C2038 1.356 . S
N2036 H2048 0.984 . S
N2036 H2049 0.985 . S
N2037 C2039 1.356 . S
N2037 H2042 0.984 . S
N2037 H2043 0.985 . S
C2038 C2032 1.379 . S
C2038 C2035 1.363 . S
C2038 N2036 1.356 . S
C2039 C2033 1.363 . S
C2039 C2034 1.379 . S
C2039 N2037 1.356 . S
N2040 C2032 1.356 . S
N2040 H2046 0.984 . S
N2040 H2047 0.984 . S
N2041 C2034 1.356 . S
N2041 H2044 0.984 . S
N2041 H2045 0.985 . S
H2042 N2037 0.984 . S
H2043 N2037 0.985 . S
H2044 N2041 0.984 . S
H2045 N2041 0.985 . S
H2046 N2040 0.984 . S
H2047 N2040 0.984 . S
H2048 N2036 0.984 . S
H2049 N2036 0.985 . S
C2050 C2051 1.363 . S
C2050 C2056 1.379 . S
C2050 N2058 1.356 . S
C2051 C2050 1.363 . S
C2051 C2057 1.363 . S
C2052 C2053 1.363 . S
C2052 C2057 1.379 . S
C2052 N2059 1.356 . S
C2053 C2052 1.363 . S
C2053 C2056 1.363 . S
N2054 C2056 1.356 . S
N2054 H2066 0.984 . S
N2054 H2067 0.985 . S
N2055 C2057 1.356 . S
N2055 H2060 0.984 . S
N2055 H2061 0.985 . S
C2056 C2050 1.379 . S
C2056 C2053 1.363 . S
C2056 N2054 1.356 . S
C2057 C2051 1.363 . S
C2057 C2052 1.379 . S
C2057 N2055 1.356 . S
N2058 C2050 1.356 . S
N2058 H2064 0.984 . S
N2058 H2065 0.984 . S
N2059 C2052 1.356 . S
N2059 H2062 0.984 . S
N2059 H2063 0.985 . S
H2060 N2055 0.984 . S
H2061 N2055 0.985 . S
H2062 N2059 0.984 . S
H2063 N2059 0.985 . S
H2064 N2058 0.984 . S
H2065 N2058 0.984 . S
H2066 N2054 0.984 . S
H2067 N2054 0.985 . S
C2068 C2069 1.363 . S
C2068 C2074 1.379 . S
C2068 N2076 1.356 . S
C2069 C2068 1.363 . S
C2069 C2075 1.363 . S
C2070 C2071 1.363 . S
C2070 C2075 1.379 . S
C2070 N2077 1.356 . S
C2071 C2070 1.363 . S
C2071 C2074 1.363 . S
N2072 C2074 1.356 . S
N2072 H2084 0.984 . S
N2072 H2085 0.985 . S
N2073 C2075 1.356 . S
N2073 H2078 0.984 . S
N2073 H2079 0.985 . S
C2074 C2068 1.379 . S
C2074 C2071 1.363 . S
C2074 N2072 1.356 . S
C2075 C2069 1.363 . S
C2075 C2070 1.379 . S
C2075 N2073 1.356 . S
N2076 C2068 1.356 . S
N2076 H2082 0.984 . S
N2076 H2083 0.984 . S
N2077 C2070 1.356 . S
N2077 H2080 0.984 . S
N2077 H2081 0.985 . S
H2078 N2073 0.984 . S
H2079 N2073 0.985 . S
H2080 N2077 0.984 . S
H2081 N2077 0.985 . S
H2082 N2076 0.984 . S
H2083 N2076 0.984 . S
H2084 N2072 0.984 . S
H2085 N2072 0.985 . S
C2086 C2087 1.363 . S
C2086 C2092 1.379 . S
C2086 N2094 1.356 . S
C2087 C2086 1.363 . S
C2087 C2093 1.363 . S
C2088 C2089 1.363 . S
C2088 C2093 1.379 . S
C2088 N2095 1.356 . S
C2089 C2088 1.363 . S
C2089 C2092 1.363 . S
N2090 C2092 1.356 . S
N2090 H2102 0.984 . S
N2090 H2103 0.985 . S
N2091 C2093 1.356 . S
N2091 H2096 0.984 . S
N2091 H2097 0.985 . S
C2092 C2086 1.379 . S
C2092 C2089 1.363 . S
C2092 N2090 1.356 . S
C2093 C2087 1.363 . S
C2093 C2088 1.379 . S
C2093 N2091 1.356 . S
N2094 C2086 1.356 . S
N2094 H2100 0.984 . S
N2094 H2101 0.984 . S
N2095 C2088 1.356 . S
N2095 H2098 0.984 . S
N2095 H2099 0.985 . S
H2096 N2091 0.984 . S
H2097 N2091 0.985 . S
H2098 N2095 0.984 . S
H2099 N2095 0.985 . S
H2100 N2094 0.984 . S
H2101 N2094 0.984 . S
H2102 N2090 0.984 . S
H2103 N2090 0.985 . S
C2104 C2105 1.363 . S
C2104 C2110 1.379 . S
C2104 N2112 1.356 . S
C2105 C2104 1.363 . S
C2105 C2111 1.363 . S
C2106 C2107 1.363 . S
C2106 C2111 1.379 . S
C2106 N2113 1.356 . S
C2107 C2106 1.363 . S
C2107 C2110 1.363 . S
N2108 C2110 1.356 . S
N2108 H2120 0.984 . S
N2108 H2121 0.985 . S
N2109 C2111 1.356 . S
N2109 H2114 0.984 . S
N2109 H2115 0.985 . S
C2110 C2104 1.379 . S
C2110 C2107 1.363 . S
C2110 N2108 1.356 . S
C2111 C2105 1.363 . S
C2111 C2106 1.379 . S
C2111 N2109 1.356 . S
N2112 C2104 1.356 . S
N2112 H2118 0.984 . S
N2112 H2119 0.984 . S
N2113 C2106 1.356 . S
N2113 H2116 0.984 . S
N2113 H2117 0.985 . S
H2114 N2109 0.984 . S
H2115 N2109 0.985 . S
H2116 N2113 0.984 . S
H2117 N2113 0.985 . S
H2118 N2112 0.984 . S
H2119 N2112 0.984 . S
H2120 N2108 0.984 . S
H2121 N2108 0.985 . S
C2122 C2123 1.363 . S
C2122 C2128 1.379 . S
C2122 N2130 1.356 . S
C2123 C2122 1.363 . S
C2123 C2129 1.363 . S
C2124 C2125 1.363 . S
C2124 C2129 1.379 . S
C2124 N2131 1.356 . S
C2125 C2124 1.363 . S
C2125 C2128 1.363 . S
N2126 C2128 1.356 . S
N2126 H2138 0.984 . S
N2126 H2139 0.985 . S
N2127 C2129 1.356 . S
N2127 H2132 0.984 . S
N2127 H2133 0.985 . S
C2128 C2122 1.379 . S
C2128 C2125 1.363 . S
C2128 N2126 1.356 . S
C2129 C2123 1.363 . S
C2129 C2124 1.379 . S
C2129 N2127 1.356 . S
N2130 C2122 1.356 . S
N2130 H2136 0.984 . S
N2130 H2137 0.984 . S
N2131 C2124 1.356 . S
N2131 H2134 0.984 . S
N2131 H2135 0.985 . S
H2132 N2127 0.984 . S
H2133 N2127 0.985 . S
H2134 N2131 0.984 . S
H2135 N2131 0.985 . S
H2136 N2130 0.984 . S
H2137 N2130 0.984 . S
H2138 N2126 0.984 . S
H2139 N2126 0.985 . S
C2140 C2141 1.363 . S
C2140 C2146 1.379 1_545 S
C2140 N2148 1.356 . S
C2141 C2140 1.363 . S
C2141 C2147 1.363 . S
C2142 C2143 1.363 . S
C2142 C2147 1.379 1_565 S
C2142 N2149 1.356 . S
C2143 C2142 1.363 . S
C2143 C2146 1.363 . S
N2144 C2146 1.356 . S
N2144 H2156 0.984 . S
N2144 H2157 0.985 . S
N2145 C2147 1.356 . S
N2145 H2150 0.984 . S
N2145 H2151 0.985 . S
C2146 C2140 1.379 1_565 S
C2146 C2143 1.363 . S
C2146 N2144 1.356 . S
C2147 C2141 1.363 . S
C2147 C2142 1.379 1_545 S
C2147 N2145 1.356 . S
N2148 C2140 1.356 . S
N2148 H2154 0.984 . S
N2148 H2155 0.984 . S
N2149 C2142 1.356 . S
N2149 H2152 0.984 . S
N2149 H2153 0.985 . S
H2150 N2145 0.984 . S
H2151 N2145 0.985 . S
H2152 N2149 0.984 . S
H2153 N2149 0.985 . S
H2154 N2148 0.984 . S
H2155 N2148 0.984 . S
H2156 N2144 0.984 . S
H2157 N2144 0.985 . S
C2158 C2159 1.363 . S
C2158 C2164 1.379 . S
C2158 N2166 1.356 . S
C2159 C2158 1.363 . S
C2159 C2165 1.363 . S
C2160 C2161 1.362 1_545 S
C2160 C2165 1.379 1_545 S
C2160 N2167 1.356 . S
C2161 C2160 1.362 1_565 S
C2161 C2164 1.366 . S
N2162 C2164 1.356 . S
N2162 H2174 0.984 . S
N2162 H2175 0.985 . S
N2163 C2165 1.356 . S
N2163 H2168 0.984 . S
N2163 H2169 0.985 . S
C2164 C2158 1.379 . S
C2164 C2161 1.366 . S
C2164 N2162 1.356 . S
C2165 C2159 1.363 . S
C2165 C2160 1.379 1_565 S
C2165 N2163 1.356 . S
N2166 C2158 1.356 . S
N2166 H2172 0.984 . S
N2166 H2173 0.984 . S
N2167 C2160 1.356 . S
N2167 H2170 0.984 . S
N2167 H2171 0.985 . S
H2168 N2163 0.984 . S
H2169 N2163 0.985 . S
H2170 N2167 0.984 . S
H2171 N2167 0.985 . S
H2172 N2166 0.984 . S
H2173 N2166 0.984 . S
H2174 N2162 0.984 . S
H2175 N2162 0.985 . S
C2176 C2177 1.363 . S
C2176 C2182 1.379 . S
C2176 N2184 1.356 . S
C2177 C2176 1.363 . S
C2177 C2183 1.363 . S
C2178 C2179 1.363 . S
C2178 C2183 1.379 . S
C2178 N2185 1.356 . S
C2179 C2178 1.363 . S
C2179 C2182 1.363 . S
N2180 C2182 1.356 . S
N2180 H2192 0.984 . S
N2180 H2193 0.985 . S
N2181 C2183 1.356 . S
N2181 H2186 0.984 . S
N2181 H2187 0.985 . S
C2182 C2176 1.379 . S
C2182 C2179 1.363 . S
C2182 N2180 1.356 . S
C2183 C2177 1.363 . S
C2183 C2178 1.379 . S
C2183 N2181 1.356 . S
N2184 C2176 1.356 . S
N2184 H2190 0.984 . S
N2184 H2191 0.984 . S
N2185 C2178 1.356 . S
N2185 H2188 0.984 . S
N2185 H2189 0.985 . S
H2186 N2181 0.984 . S
H2187 N2181 0.985 . S
H2188 N2185 0.984 . S
H2189 N2185 0.985 . S
H2190 N2184 0.984 . S
H2191 N2184 0.984 . S
H2192 N2180 0.984 . S
H2193 N2180 0.985 . S
C2194 C2195 1.363 . S
C2194 C2200 1.379 . S
C2194 N2202 1.356 1_554 S
C2195 C2194 1.363 . S
C2195 C2201 1.363 . S
C2196 C2197 1.363 . S
C2196 C2201 1.379 . S
C2196 N2203 1.356 . S
C2197 C2196 1.363 . S
C2197 C2200 1.363 . S
N2198 C2200 1.356 1_556 S
N2198 H2210 0.984 . S
N2198 H2211 0.988 . S
N2199 C2201 1.356 . S
N2199 H2204 0.984 . S
N2199 H2205 0.985 . S
C2200 C2194 1.379 . S
C2200 C2197 1.363 . S
C2200 N2198 1.356 1_554 S
C2201 C2195 1.363 . S
C2201 C2196 1.379 . S
C2201 N2199 1.356 . S
N2202 C2194 1.356 1_556 S
N2202 H2208 0.984 . S
N2202 H2209 0.984 . S
N2203 C2196 1.356 . S
N2203 H2206 0.984 1_655 S
N2203 H2207 0.985 . S
H2204 N2199 0.984 . S
H2205 N2199 0.985 . S
H2206 N2203 0.984 1_455 S
H2207 N2203 0.985 . S
H2208 N2202 0.984 . S
H2209 N2202 0.984 . S
H2210 N2198 0.984 . S
H2211 N2198 0.988 . S
C2212 C2213 1.363 . S
C2212 C2218 1.379 . S
C2212 N2220 1.356 . S
C2213 C2212 1.363 . S
C2213 C2219 1.363 . S
C2214 C2215 1.363 . S
C2214 C2219 1.379 . S
C2214 N2221 1.356 . S
C2215 C2214 1.363 . S
C2215 C2218 1.363 . S
N2216 C2218 1.356 . S
N2216 H2228 0.984 . S
N2216 H2229 0.985 . S
N2217 C2219 1.356 . S
N2217 H2222 0.984 . S
N2217 H2223 0.985 . S
C2218 C2212 1.379 . S
C2218 C2215 1.363 . S
C2218 N2216 1.356 . S
C2219 C2213 1.363 . S
C2219 C2214 1.379 . S
C2219 N2217 1.356 . S
N2220 C2212 1.356 . S
N2220 H2226 0.984 . S
N2220 H2227 0.984 . S
N2221 C2214 1.356 . S
N2221 H2224 0.984 . S
N2221 H2225 0.985 . S
H2222 N2217 0.984 . S
H2223 N2217 0.985 . S
H2224 N2221 0.984 . S
H2225 N2221 0.985 . S
H2226 N2220 0.984 . S
H2227 N2220 0.984 . S
H2228 N2216 0.984 . S
H2229 N2216 0.985 . S
C2230 C2231 1.363 . S
C2230 C2236 1.379 . S
C2230 N2238 1.356 . S
C2231 C2230 1.363 . S
C2231 C2237 1.363 1_545 S
C2232 C2233 1.363 . S
C2232 C2237 1.379 . S
C2232 N2239 1.356 . S
C2233 C2232 1.363 . S
C2233 C2236 1.363 1_565 S
N2234 C2236 1.356 . S
N2234 H2246 0.984 . S
N2234 H2247 0.985 1_545 S
N2235 C2237 1.356 . S
N2235 H2240 0.984 1_565 S
N2235 H2241 0.985 . S
C2236 C2230 1.379 . S
C2236 C2233 1.363 1_545 S
C2236 N2234 1.356 . S
C2237 C2231 1.363 1_565 S
C2237 C2232 1.379 . S
C2237 N2235 1.356 . S
N2238 C2230 1.356 . S
N2238 H2244 0.984 . S
N2238 H2245 0.984 . S
N2239 C2232 1.356 . S
N2239 H2242 0.984 . S
N2239 H2243 0.985 . S
H2240 N2235 0.984 1_545 S
H2241 N2235 0.985 . S
H2242 N2239 0.984 . S
H2243 N2239 0.985 . S
H2244 N2238 0.984 . S
H2245 N2238 0.984 . S
H2246 N2234 0.984 . S
H2247 N2234 0.985 1_565 S
C2248 C2249 1.363 . S
C2248 C2254 1.379 . S
C2248 N2256 1.356 . S
C2249 C2248 1.363 . S
C2249 C2255 1.363 . S
C2250 C2251 1.363 . S
C2250 C2255 1.379 . S
C2250 N2257 1.356 . S
C2251 C2250 1.363 . S
C2251 C2254 1.363 . S
N2252 C2254 1.356 . S
N2252 H2264 0.984 . S
N2252 H2265 0.985 . S
N2253 C2255 1.356 . S
N2253 H2258 0.984 . S
N2253 H2259 0.985 . S
C2254 C2248 1.379 . S
C2254 C2251 1.363 . S
C2254 N2252 1.356 . S
C2255 C2249 1.363 . S
C2255 C2250 1.379 . S
C2255 N2253 1.356 . S
N2256 C2248 1.356 . S
N2256 H2262 0.984 . S
N2256 H2263 0.984 . S
N2257 C2250 1.356 . S
N2257 H2260 0.984 . S
N2257 H2261 0.985 . S
H2258 N2253 0.984 . S
H2259 N2253 0.985 . S
H2260 N2257 0.984 . S
H2261 N2257 0.985 . S
H2262 N2256 0.984 . S
H2263 N2256 0.984 . S
H2264 N2252 0.984 . S
H2265 N2252 0.985 . S
C2266 C2267 1.363 . S
C2266 C2272 1.379 . S
C2266 N2274 1.356 . S
C2267 C2266 1.363 . S
C2267 C2273 1.363 . S
C2268 C2269 1.363 . S
C2268 C2273 1.379 . S
C2268 N2275 1.356 . S
C2269 C2268 1.363 . S
C2269 C2272 1.363 . S
N2270 C2272 1.356 . S
N2270 H2282 0.984 . S
N2270 H2283 0.985 . S
N2271 C2273 1.356 . S
N2271 H2276 0.984 . S
N2271 H2277 0.985 . S
C2272 C2266 1.379 . S
C2272 C2269 1.363 . S
C2272 N2270 1.356 . S
C2273 C2267 1.363 . S
C2273 C2268 1.379 . S
C2273 N2271 1.356 . S
N2274 C2266 1.356 . S
N2274 H2280 0.984 . S
N2274 H2281 0.984 . S
N2275 C2268 1.356 . S
N2275 H2278 0.984 . S
N2275 H2279 0.985 . S
H2276 N2271 0.984 . S
H2277 N2271 0.985 . S
H2278 N2275 0.984 . S
H2279 N2275 0.985 . S
H2280 N2274 0.984 . S
H2281 N2274 0.984 . S
H2282 N2270 0.984 . S
H2283 N2270 0.985 . S
C2284 C2285 1.363 . S
C2284 C2290 1.379 . S
C2284 N2292 1.356 . S
C2285 C2284 1.363 . S
C2285 C2291 1.363 . S
C2286 C2287 1.363 . S
C2286 C2291 1.379 . S
C2286 N2293 1.356 . S
C2287 C2286 1.363 . S
C2287 C2290 1.363 . S
N2288 C2290 1.356 . S
N2288 H2300 0.984 . S
N2288 H2301 0.985 . S
N2289 C2291 1.356 . S
N2289 H2294 0.984 . S
N2289 H2295 0.985 . S
C2290 C2284 1.379 . S
C2290 C2287 1.363 . S
C2290 N2288 1.356 . S
C2291 C2285 1.363 . S
C2291 C2286 1.379 . S
C2291 N2289 1.356 . S
N2292 C2284 1.356 . S
N2292 H2298 0.984 . S
N2292 H2299 0.984 . S
N2293 C2286 1.356 . S
N2293 H2296 0.984 . S
N2293 H2297 0.985 . S
H2294 N2289 0.984 . S
H2295 N2289 0.985 . S
H2296 N2293 0.984 . S
H2297 N2293 0.985 . S
H2298 N2292 0.984 . S
H2299 N2292 0.984 . S
H2300 N2288 0.984 . S
H2301 N2288 0.985 . S
C2302 C2303 1.363 . S
C2302 C2308 1.379 . S
C2302 N2310 1.356 . S
C2303 C2302 1.363 . S
C2303 C2309 1.363 . S
C2304 C2305 1.363 . S
C2304 C2309 1.379 . S
C2304 N2311 1.356 . S
C2305 C2304 1.363 . S
C2305 C2308 1.363 . S
N2306 C2308 1.356 . S
N2306 H2318 0.984 . S
N2306 H2319 0.985 . S
N2307 C2309 1.356 . S
N2307 H2312 0.984 . S
N2307 H2313 0.985 . S
C2308 C2302 1.379 . S
C2308 C2305 1.363 . S
C2308 N2306 1.356 . S
C2309 C2303 1.363 . S
C2309 C2304 1.379 . S
C2309 N2307 1.356 . S
N2310 C2302 1.356 . S
N2310 H2316 0.984 . S
N2310 H2317 0.984 . S
N2311 C2304 1.356 . S
N2311 H2314 0.984 . S
N2311 H2315 0.985 . S
H2312 N2307 0.984 . S
H2313 N2307 0.985 . S
H2314 N2311 0.984 . S
H2315 N2311 0.985 . S
H2316 N2310 0.984 . S
H2317 N2310 0.984 . S
H2318 N2306 0.984 . S
H2319 N2306 0.985 . S
C2320 C2321 1.363 . S
C2320 C2326 1.379 . S
C2320 N2328 1.356 . S
C2321 C2320 1.363 . S
C2321 C2327 1.363 . S
C2322 C2323 1.363 . S
C2322 C2327 1.379 . S
C2322 N2329 1.356 . S
C2323 C2322 1.363 . S
C2323 C2326 1.363 . S
N2324 C2326 1.356 1_554 S
N2324 H2336 0.984 . S
N2324 H2337 0.985 . S
N2325 C2327 1.356 . S
N2325 H2330 0.984 . S
N2325 H2331 0.985 . S
C2326 C2320 1.379 . S
C2326 C2323 1.363 . S
C2326 N2324 1.356 1_556 S
C2327 C2321 1.363 . S
C2327 C2322 1.379 . S
C2327 N2325 1.356 . S
N2328 C2320 1.356 . S
N2328 H2334 0.984 1_556 S
N2328 H2335 0.984 . S
N2329 C2322 1.356 . S
N2329 H2332 0.984 . S
N2329 H2333 0.985 . S
H2330 N2325 0.984 . S
H2331 N2325 0.985 . S
H2332 N2329 0.984 . S
H2333 N2329 0.985 . S
H2334 N2328 0.984 1_554 S
H2335 N2328 0.984 . S
H2336 N2324 0.984 . S
H2337 N2324 0.985 . S
C2338 C2339 1.363 . S
C2338 C2344 1.379 . S
C2338 N2346 1.356 . S
C2339 C2338 1.363 . S
C2339 C2345 1.363 . S
C2340 C2341 1.363 . S
C2340 C2345 1.379 . S
C2340 N2347 1.356 . S
C2341 C2340 1.363 . S
C2341 C2344 1.363 . S
N2342 C2344 1.356 . S
N2342 H2354 0.984 . S
N2342 H2355 0.985 . S
N2343 C2345 1.356 . S
N2343 H2348 0.984 . S
N2343 H2349 0.985 . S
C2344 C2338 1.379 . S
C2344 C2341 1.363 . S
C2344 N2342 1.356 . S
C2345 C2339 1.363 . S
C2345 C2340 1.379 . S
C2345 N2343 1.356 . S
N2346 C2338 1.356 . S
N2346 H2352 0.984 . S
N2346 H2353 0.984 . S
N2347 C2340 1.356 . S
N2347 H2350 0.984 . S
N2347 H2351 0.985 . S
H2348 N2343 0.984 . S
H2349 N2343 0.985 . S
H2350 N2347 0.984 . S
H2351 N2347 0.985 . S
H2352 N2346 0.984 . S
H2353 N2346 0.984 . S
H2354 N2342 0.984 . S
H2355 N2342 0.985 . S
C2356 C2357 1.363 . S
C2356 C2362 1.379 . S
C2356 N2364 1.356 . S
C2357 C2356 1.363 . S
C2357 C2363 1.363 . S
C2358 C2359 1.363 . S
C2358 C2363 1.379 . S
C2358 N2365 1.356 . S
C2359 C2358 1.363 . S
C2359 C2362 1.363 . S
N2360 C2362 1.356 . S
N2360 H2372 0.984 . S
N2360 H2373 0.985 . S
N2361 C2363 1.356 . S
N2361 H2366 0.984 . S
N2361 H2367 0.985 . S
C2362 C2356 1.379 . S
C2362 C2359 1.363 . S
C2362 N2360 1.356 . S
C2363 C2357 1.363 . S
C2363 C2358 1.379 . S
C2363 N2361 1.356 . S
N2364 C2356 1.356 . S
N2364 H2370 0.984 . S
N2364 H2371 0.984 . S
N2365 C2358 1.356 . S
N2365 H2368 0.984 . S
N2365 H2369 0.985 . S
H2366 N2361 0.984 . S
H2367 N2361 0.985 . S
H2368 N2365 0.984 . S
H2369 N2365 0.985 . S
H2370 N2364 0.984 . S
H2371 N2364 0.984 . S
H2372 N2360 0.984 . S
H2373 N2360 0.985 . S
C2374 C2375 1.363 . S
C2374 C2380 1.379 . S
C2374 N2382 1.356 . S
C2375 C2374 1.363 . S
C2375 C2381 1.363 . S
C2376 C2377 1.363 . S
C2376 C2381 1.379 . S
C2376 N2383 1.356 . S
C2377 C2376 1.363 . S
C2377 C2380 1.363 . S
N2378 C2380 1.356 . S
N2378 H2390 0.984 . S
N2378 H2391 0.985 . S
N2379 C2381 1.356 . S
N2379 H2384 0.984 . S
N2379 H2385 0.985 . S
C2380 C2374 1.379 . S
C2380 C2377 1.363 . S
C2380 N2378 1.356 . S
C2381 C2375 1.363 . S
C2381 C2376 1.379 . S
C2381 N2379 1.356 . S
N2382 C2374 1.356 . S
N2382 H2388 0.984 . S
N2382 H2389 0.984 . S
N2383 C2376 1.356 . S
N2383 H2386 0.984 . S
N2383 H2387 0.985 . S
H2384 N2379 0.984 . S
H2385 N2379 0.985 . S
H2386 N2383 0.984 . S
H2387 N2383 0.985 . S
H2388 N2382 0.984 . S
H2389 N2382 0.984 . S
H2390 N2378 0.984 . S
H2391 N2378 0.985 . S
C2392 C2393 1.363 . S
C2392 C2398 1.379 . S
C2392 N2400 1.356 . S
C2393 C2392 1.363 . S
C2393 C2399 1.363 . S
C2394 C2395 1.363 . S
C2394 C2399 1.379 . S
C2394 N2401 1.356 . S
C2395 C2394 1.363 . S
C2395 C2398 1.363 . S
N2396 C2398 1.356 . S
N2396 H2408 0.984 . S
N2396 H2409 0.985 . S
N2397 C2399 1.356 . S
N2397 H2402 0.984 . S
N2397 H2403 0.985 . S
C2398 C2392 1.379 . S
C2398 C2395 1.363 . S
C2398 N2396 1.356 . S
C2399 C2393 1.363 . S
C2399 C2394 1.379 . S
C2399 N2397 1.356 . S
N2400 C2392 1.356 . S
N2400 H2406 0.984 . S
N2400 H2407 0.984 . S
N2401 C2394 1.356 . S
N2401 H2404 0.984 . S
N2401 H2405 0.985 . S
H2402 N2397 0.984 . S
H2403 N2397 0.985 . S
H2404 N2401 0.984 . S
H2405 N2401 0.985 . S
H2406 N2400 0.984 . S
H2407 N2400 0.984 . S
H2408 N2396 0.984 . S
H2409 N2396 0.985 . S
C2410 C2411 1.363 . S
C2410 C2416 1.379 . S
C2410 N2418 1.356 . S
C2411 C2410 1.363 . S
C2411 C2417 1.363 . S
C2412 C2413 1.363 . S
C2412 C2417 1.379 . S
C2412 N2419 1.356 . S
C2413 C2412 1.363 . S
C2413 C2416 1.363 . S
N2414 C2416 1.356 . S
N2414 H2426 0.984 . S
N2414 H2427 0.985 . S
N2415 C2417 1.356 . S
N2415 H2420 0.984 . S
N2415 H2421 0.985 . S
C2416 C2410 1.379 . S
C2416 C2413 1.363 . S
C2416 N2414 1.356 . S
C2417 C2411 1.363 . S
C2417 C2412 1.379 . S
C2417 N2415 1.356 . S
N2418 C2410 1.356 . S
N2418 H2424 0.984 . S
N2418 H2425 0.984 . S
N2419 C2412 1.356 . S
N2419 H2422 0.984 . S
N2419 H2423 0.985 . S
H2420 N2415 0.984 . S
H2421 N2415 0.985 . S
H2422 N2419 0.984 . S
H2423 N2419 0.985 . S
H2424 N2418 0.984 . S
H2425 N2418 0.984 . S
H2426 N2414 0.984 . S
H2427 N2414 0.985 . S
C2428 C2429 1.363 . S
C2428 C2434 1.379 . S
C2428 N2436 1.369 . S
C2429 C2428 1.363 . S
C2429 C2435 1.363 . S
C2430 C2431 1.363 . S
C2430 C2435 1.379 . S
C2430 N2437 1.356 . S
C2431 C2430 1.363 . S
C2431 C2434 1.363 . S
N2432 C2434 1.356 . S
N2432 H2444 0.984 1_455 S
N2432 H2445 0.985 . S
N2433 C2435 1.356 . S
N2433 H2438 0.984 . S
N2433 H2439 0.985 . S
C2434 C2428 1.379 . S
C2434 C2431 1.363 . S
C2434 N2432 1.356 . S
C2435 C2429 1.363 . S
C2435 C2430 1.379 . S
C2435 N2433 1.356 . S
N2436 C2428 1.369 . S
N2436 H2442 0.967 1_455 S
N2436 H2443 0.989 . S
N2437 C2430 1.356 . S
N2437 H2440 0.984 . S
N2437 H2441 0.985 . S
H2438 N2433 0.984 . S
H2439 N2433 0.985 . S
H2440 N2437 0.984 . S
H2441 N2437 0.985 . S
H2442 N2436 0.967 1_655 S
H2443 N2436 0.989 . S
H2444 N2432 0.984 1_655 S
H2445 N2432 0.985 . S
C2446 C2447 1.363 . S
C2446 C2452 1.379 . S
C2446 N2454 1.356 . S
C2447 C2446 1.363 . S
C2447 C2453 1.363 . S
C2448 C2449 1.363 . S
C2448 C2453 1.379 . S
C2448 N2455 1.356 . S
C2449 C2448 1.363 . S
C2449 C2452 1.363 . S
N2450 C2452 1.356 . S
N2450 H2462 0.984 . S
N2450 H2463 0.985 . S
N2451 C2453 1.356 . S
N2451 H2456 0.984 . S
N2451 H2457 0.985 . S
C2452 C2446 1.379 . S
C2452 C2449 1.363 . S
C2452 N2450 1.356 . S
C2453 C2447 1.363 . S
C2453 C2448 1.379 . S
C2453 N2451 1.356 . S
N2454 C2446 1.356 . S
N2454 H2460 0.984 . S
N2454 H2461 0.984 . S
N2455 C2448 1.356 . S
N2455 H2458 0.984 . S
N2455 H2459 0.985 . S
H2456 N2451 0.984 . S
H2457 N2451 0.985 . S
H2458 N2455 0.984 . S
H2459 N2455 0.985 . S
H2460 N2454 0.984 . S
H2461 N2454 0.984 . S
H2462 N2450 0.984 . S
H2463 N2450 0.985 . S
C2464 C2465 1.363 . S
C2464 C2470 1.379 . S
C2464 N2472 1.356 . S
C2465 C2464 1.363 . S
C2465 C2471 1.363 . S
C2466 C2467 1.363 . S
C2466 C2471 1.379 . S
C2466 N2473 1.356 . S
C2467 C2466 1.363 . S
C2467 C2470 1.363 . S
N2468 C2470 1.356 . S
N2468 H2480 0.984 . S
N2468 H2481 0.985 . S
N2469 C2471 1.356 . S
N2469 H2474 0.984 . S
N2469 H2475 0.985 . S
C2470 C2464 1.379 . S
C2470 C2467 1.363 . S
C2470 N2468 1.356 . S
C2471 C2465 1.363 . S
C2471 C2466 1.379 . S
C2471 N2469 1.356 . S
N2472 C2464 1.356 . S
N2472 H2478 0.984 . S
N2472 H2479 0.984 . S
N2473 C2466 1.356 . S
N2473 H2476 0.984 . S
N2473 H2477 0.985 . S
H2474 N2469 0.984 . S
H2475 N2469 0.985 . S
H2476 N2473 0.984 . S
H2477 N2473 0.985 . S
H2478 N2472 0.984 . S
H2479 N2472 0.984 . S
H2480 N2468 0.984 . S
H2481 N2468 0.985 . S
C2482 C2483 1.363 . S
C2482 C2488 1.379 . S
C2482 N2490 1.356 . S
C2483 C2482 1.363 . S
C2483 C2489 1.363 . S
C2484 C2485 1.363 . S
C2484 C2489 1.379 . S
C2484 N2491 1.356 . S
C2485 C2484 1.363 . S
C2485 C2488 1.363 . S
N2486 C2488 1.356 . S
N2486 H2498 0.984 . S
N2486 H2499 0.985 . S
N2487 C2489 1.356 . S
N2487 H2492 0.984 . S
N2487 H2493 0.985 . S
C2488 C2482 1.379 . S
C2488 C2485 1.363 . S
C2488 N2486 1.356 . S
C2489 C2483 1.363 . S
C2489 C2484 1.379 . S
C2489 N2487 1.356 . S
N2490 C2482 1.356 . S
N2490 H2496 0.984 . S
N2490 H2497 0.984 . S
N2491 C2484 1.356 . S
N2491 H2494 0.984 . S
N2491 H2495 0.985 . S
H2492 N2487 0.984 . S
H2493 N2487 0.985 . S
H2494 N2491 0.984 . S
H2495 N2491 0.985 . S
H2496 N2490 0.984 . S
H2497 N2490 0.984 . S
H2498 N2486 0.984 . S
H2499 N2486 0.985 . S
C2500 C2501 1.363 . S
C2500 C2506 1.379 . S
C2500 N2508 1.356 . S
C2501 C2500 1.363 . S
C2501 C2507 1.363 . S
C2502 C2503 1.349 1_655 S
C2502 C2507 1.380 1_655 S
C2502 N2509 1.366 . S
C2503 C2502 1.349 1_455 S
C2503 C2506 1.363 . S
N2504 C2506 1.356 . S
N2504 H2516 0.984 . S
N2504 H2517 0.985 . S
N2505 C2507 1.356 1_655 S
N2505 H2510 0.984 1_655 S
N2505 H2511 0.985 . S
C2506 C2500 1.379 . S
C2506 C2503 1.363 . S
C2506 N2504 1.356 . S
C2507 C2501 1.363 . S
C2507 C2502 1.380 1_455 S
C2507 N2505 1.356 1_455 S
N2508 C2500 1.356 . S
N2508 H2514 0.984 . S
N2508 H2515 0.984 . S
N2509 C2502 1.366 . S
N2509 H2512 0.984 . S
N2509 H2513 0.985 . S
H2510 N2505 0.984 1_455 S
H2511 N2505 0.985 . S
H2512 N2509 0.984 . S
H2513 N2509 0.985 . S
H2514 N2508 0.984 . S
H2515 N2508 0.984 . S
H2516 N2504 0.984 . S
H2517 N2504 0.985 . S
C2518 C2519 1.363 . S
C2518 C2524 1.379 . S
C2518 N2526 1.356 . S
C2519 C2518 1.363 . S
C2519 C2525 1.363 . S
C2520 C2521 1.363 . S
C2520 C2525 1.379 . S
C2520 N2527 1.356 . S
C2521 C2520 1.363 . S
C2521 C2524 1.363 . S
N2522 C2524 1.356 . S
N2522 H2534 0.984 . S
N2522 H2535 0.985 . S
N2523 C2525 1.356 . S
N2523 H2528 0.984 . S
N2523 H2529 0.985 . S
C2524 C2518 1.379 . S
C2524 C2521 1.363 . S
C2524 N2522 1.356 . S
C2525 C2519 1.363 . S
C2525 C2520 1.379 . S
C2525 N2523 1.356 . S
N2526 C2518 1.356 . S
N2526 H2532 0.984 . S
N2526 H2533 0.984 . S
N2527 C2520 1.356 . S
N2527 H2530 0.984 . S
N2527 H2531 0.985 . S
H2528 N2523 0.984 . S
H2529 N2523 0.985 . S
H2530 N2527 0.984 . S
H2531 N2527 0.985 . S
H2532 N2526 0.984 . S
H2533 N2526 0.984 . S
H2534 N2522 0.984 . S
H2535 N2522 0.985 . S
C2536 C2537 1.363 . S
C2536 C2542 1.379 . S
C2536 N2544 1.356 . S
C2537 C2536 1.363 . S
C2537 C2543 1.363 . S
C2538 C2539 1.363 . S
C2538 C2543 1.379 . S
C2538 N2545 1.356 . S
C2539 C2538 1.363 . S
C2539 C2542 1.363 . S
N2540 C2542 1.356 . S
N2540 H2552 0.984 . S
N2540 H2553 0.985 . S
N2541 C2543 1.356 . S
N2541 H2546 0.984 . S
N2541 H2547 0.985 . S
C2542 C2536 1.379 . S
C2542 C2539 1.363 . S
C2542 N2540 1.356 . S
C2543 C2537 1.363 . S
C2543 C2538 1.379 . S
C2543 N2541 1.356 . S
N2544 C2536 1.356 . S
N2544 H2550 0.984 . S
N2544 H2551 0.984 . S
N2545 C2538 1.356 . S
N2545 H2548 0.984 . S
N2545 H2549 0.985 . S
H2546 N2541 0.984 . S
H2547 N2541 0.985 . S
H2548 N2545 0.984 . S
H2549 N2545 0.985 . S
H2550 N2544 0.984 . S
H2551 N2544 0.984 . S
H2552 N2540 0.984 . S
H2553 N2540 0.985 . S
C2554 C2555 1.363 . S
C2554 C2560 1.379 . S
C2554 N2562 1.356 . S
C2555 C2554 1.363 . S
C2555 C2561 1.363 1_565 S
C2556 C2557 1.363 . S
C2556 C2561 1.379 . S
C2556 N2563 1.356 . S
C2557 C2556 1.363 . S
C2557 C2560 1.363 1_545 S
N2558 C2560 1.356 . S
N2558 H2570 0.984 . S
N2558 H2571 0.985 1_565 S
N2559 C2561 1.356 . S
N2559 H2564 0.984 1_545 S
N2559 H2565 0.985 . S
C2560 C2554 1.379 . S
C2560 C2557 1.363 1_565 S
C2560 N2558 1.356 . S
C2561 C2555 1.363 1_545 S
C2561 C2556 1.379 . S
C2561 N2559 1.356 . S
N2562 C2554 1.356 . S
N2562 H2568 0.984 . S
N2562 H2569 0.984 . S
N2563 C2556 1.356 . S
N2563 H2566 0.984 . S
N2563 H2567 0.985 . S
H2564 N2559 0.984 1_565 S
H2565 N2559 0.985 . S
H2566 N2563 0.984 . S
H2567 N2563 0.985 . S
H2568 N2562 0.984 . S
H2569 N2562 0.984 . S
H2570 N2558 0.984 . S
H2571 N2558 0.985 1_545 S
C2572 C2573 1.363 . S
C2572 C2578 1.379 . S
C2572 N2580 1.356 . S
C2573 C2572 1.363 . S
C2573 C2579 1.363 . S
C2574 C2575 1.363 . S
C2574 C2579 1.379 . S
C2574 N2581 1.356 . S
C2575 C2574 1.363 . S
C2575 C2578 1.363 . S
N2576 C2578 1.356 . S
N2576 H2588 0.984 . S
N2576 H2589 0.985 . S
N2577 C2579 1.356 . S
N2577 H2582 0.984 . S
N2577 H2583 0.985 . S
C2578 C2572 1.379 . S
C2578 C2575 1.363 . S
C2578 N2576 1.356 . S
C2579 C2573 1.363 . S
C2579 C2574 1.379 . S
C2579 N2577 1.356 . S
N2580 C2572 1.356 . S
N2580 H2586 0.984 . S
N2580 H2587 0.984 . S
N2581 C2574 1.356 . S
N2581 H2584 0.984 . S
N2581 H2585 0.985 . S
H2582 N2577 0.984 . S
H2583 N2577 0.985 . S
H2584 N2581 0.984 . S
H2585 N2581 0.985 . S
H2586 N2580 0.984 . S
H2587 N2580 0.984 . S
H2588 N2576 0.984 . S
H2589 N2576 0.985 . S
C2590 C2591 1.363 . S
C2590 C2596 1.379 . S
C2590 N2598 1.356 . S
C2591 C2590 1.363 . S
C2591 C2597 1.363 1_556 S
C2592 C2593 1.363 . S
C2592 C2597 1.379 . S
C2592 N2599 1.356 . S
C2593 C2592 1.363 . S
C2593 C2596 1.363 1_554 S
N2594 C2596 1.356 . S
N2594 H2606 0.984 . S
N2594 H2607 0.985 . S
N2595 C2597 1.356 . S
N2595 H2600 0.984 . S
N2595 H2601 0.985 . S
C2596 C2590 1.379 . S
C2596 C2593 1.363 1_556 S
C2596 N2594 1.356 . S
C2597 C2591 1.363 1_554 S
C2597 C2592 1.379 . S
C2597 N2595 1.356 . S
N2598 C2590 1.356 . S
N2598 H2604 0.984 . S
N2598 H2605 0.984 . S
N2599 C2592 1.356 . S
N2599 H2602 0.984 . S
N2599 H2603 0.985 . S
H2600 N2595 0.984 . S
H2601 N2595 0.985 . S
H2602 N2599 0.984 . S
H2603 N2599 0.985 . S
H2604 N2598 0.984 . S
H2605 N2598 0.984 . S
H2606 N2594 0.984 . S
H2607 N2594 0.985 . S
C2608 C2609 1.363 . S
C2608 C2614 1.379 . S
C2608 N2616 1.356 . S
C2609 C2608 1.363 . S
C2609 C2615 1.363 . S
C2610 C2611 1.363 . S
C2610 C2615 1.379 . S
C2610 N2617 1.356 . S
C2611 C2610 1.363 . S
C2611 C2614 1.363 . S
N2612 C2614 1.356 . S
N2612 H2624 0.984 . S
N2612 H2625 0.985 . S
N2613 C2615 1.356 . S
N2613 H2618 0.984 . S
N2613 H2619 0.985 . S
C2614 C2608 1.379 . S
C2614 C2611 1.363 . S
C2614 N2612 1.356 . S
C2615 C2609 1.363 . S
C2615 C2610 1.379 . S
C2615 N2613 1.356 . S
N2616 C2608 1.356 . S
N2616 H2622 0.984 . S
N2616 H2623 0.984 . S
N2617 C2610 1.356 . S
N2617 H2620 0.984 . S
N2617 H2621 0.985 . S
H2618 N2613 0.984 . S
H2619 N2613 0.985 . S
H2620 N2617 0.984 . S
H2621 N2617 0.985 . S
H2622 N2616 0.984 . S
H2623 N2616 0.984 . S
H2624 N2612 0.984 . S
H2625 N2612 0.985 . S
C2626 C2627 1.363 . S
C2626 C2632 1.379 . S
C2626 N2634 1.356 . S
C2627 C2626 1.363 . S
C2627 C2633 1.351 1_554 S
C2628 C2629 1.363 1_556 S
C2628 C2633 1.379 . S
C2628 N2635 1.356 . S
C2629 C2628 1.363 1_554 S
C2629 C2632 1.363 . S
N2630 C2632 1.356 . S
N2630 H2642 0.984 . S
N2630 H2643 0.985 . S
N2631 C2633 1.366 . S
N2631 H2636 0.984 . S
N2631 H2637 0.985 . S
C2632 C2626 1.379 . S
C2632 C2629 1.363 . S
C2632 N2630 1.356 . S
C2633 C2627 1.351 1_556 S
C2633 C2628 1.379 . S
C2633 N2631 1.366 . S
N2634 C2626 1.356 . S
N2634 H2640 0.984 . S
N2634 H2641 0.984 . S
N2635 C2628 1.356 . S
N2635 H2638 0.984 . S
N2635 H2639 0.985 . S
H2636 N2631 0.984 . S
H2637 N2631 0.985 . S
H2638 N2635 0.984 . S
H2639 N2635 0.985 . S
H2640 N2634 0.984 . S
H2641 N2634 0.984 . S
H2642 N2630 0.984 . S
H2643 N2630 0.985 . S
C2644 C2645 1.363 . S
C2644 C2650 1.379 . S
C2644 N2652 1.356 . S
C2645 C2644 1.363 . S
C2645 C2651 1.363 . S
C2646 C2647 1.363 . S
C2646 C2651 1.379 . S
C2646 N2653 1.356 . S
C2647 C2646 1.363 . S
C2647 C2650 1.363 . S
N2648 C2650 1.356 . S
N2648 H2660 0.984 . S
N2648 H2661 0.985 . S
N2649 C2651 1.356 . S
N2649 H2654 0.984 . S
N2649 H2655 0.985 . S
C2650 C2644 1.379 . S
C2650 C2647 1.363 . S
C2650 N2648 1.356 . S
C2651 C2645 1.363 . S
C2651 C2646 1.379 . S
C2651 N2649 1.356 . S
N2652 C2644 1.356 . S
N2652 H2658 0.984 . S
N2652 H2659 0.984 . S
N2653 C2646 1.356 . S
N2653 H2656 0.984 . S
N2653 H2657 0.985 . S
H2654 N2649 0.984 . S
H2655 N2649 0.985 . S
H2656 N2653 0.984 . S
H2657 N2653 0.985 . S
H2658 N2652 0.984 . S
H2659 N2652 0.984 . S
H2660 N2648 0.984 . S
H2661 N2648 0.985 . S
C2662 C2663 1.363 . S
C2662 C2668 1.379 . S
C2662 N2670 1.356 . S
C2663 C2662 1.363 . S
C2663 C2669 1.363 . S
C2664 C2665 1.363 . S
C2664 C2669 1.379 . S
C2664 N2671 1.356 . S
C2665 C2664 1.363 . S
C2665 C2668 1.363 . S
N2666 C2668 1.356 . S
N2666 H2678 0.984 . S
N2666 H2679 0.985 . S
N2667 C2669 1.356 . S
N2667 H2672 0.984 . S
N2667 H2673 0.985 . S
C2668 C2662 1.379 . S
C2668 C2665 1.363 . S
C2668 N2666 1.356 . S
C2669 C2663 1.363 . S
C2669 C2664 1.379 . S
C2669 N2667 1.356 . S
N2670 C2662 1.356 . S
N2670 H2676 0.984 . S
N2670 H2677 0.984 . S
N2671 C2664 1.356 . S
N2671 H2674 0.984 . S
N2671 H2675 0.985 . S
H2672 N2667 0.984 . S
H2673 N2667 0.985 . S
H2674 N2671 0.984 . S
H2675 N2671 0.985 . S
H2676 N2670 0.984 . S
H2677 N2670 0.984 . S
H2678 N2666 0.984 . S
H2679 N2666 0.985 . S
C953 C101 1.814 1_455 S
C955 C334 1.828 1_556 S
C971 C57 1.361 . S
C973 C354 1.447 . S
C989 C73 0.988 . S
C991 C401 0.997 . S
C1009 C458 1.240 . S
C1007 C78 1.123 . S
C1025 C21 2.661 . S
C1027 C475 2.700 1_565 S
C1045 C534 1.956 . S
C1043 C31 1.917 . S
C1063 C567 2.758 . S
C1061 C49 2.766 . S
C1079 C0 2.434 . S
C1081 C614 2.471 . S
C1099 C327 1.768 . S
C1097 C218 1.679 . S
C1115 C229 1.650 . S
C1117 C355 1.673 . S
C1135 C394 0.781 . S
C1133 C257 0.782 . S
C1153 C454 2.285 . S
C1151 C164 2.151 . S
C1169 C216 0.671 . S
C1171 C481 0.689 . S
C1189 C527 2.291 . S
C1187 C231 2.313 . S
C1207 C578 1.031 . S
C1205 C255 0.868 . S
C1225 C607 2.341 . S
C1223 C166 2.332 . S
C1243 C338 1.996 1_565 S
C1241 C143 2.000 . S
C1259 C265 2.143 . S
C1261 C634 2.185 . S
C1279 C698 1.603 . S
C1277 C299 1.393 . S
C1297 C734 1.558 . S
C1295 C291 1.579 . S
C1313 C104 1.673 . S
C1315 C618 1.790 . S
C1331 C117 2.556 . S
C1333 C395 2.602 . S
C1349 C304 1.441 . S
C1351 C767 1.594 . S
C1369 C801 0.646 . S
C1367 C278 0.646 . S
C1387 C315 1.950 . S
C1385 C60 2.057 . S
C1405 C807 1.565 . S
C1403 C96 1.592 . S
C1421 C88 0.900 . S
C1423 C418 0.888 . S
C1439 C65 1.360 . S
C1441 C761 1.256 . S
C1459 C494 2.571 . S
C1457 C10 2.600 . S
C1475 C44 1.892 . S
C1477 C675 1.955 . S
C1495 C554 2.658 1_556 S
C1493 C34 2.572 . S
C1513 C835 2.503 . S
C1511 C13 2.524 . S
C1531 C314 1.769 . S
C1529 C138 1.781 . S
C1549 C814 1.510 . S
C1547 C296 1.523 . S
C1565 C112 0.759 . S
C1567 C407 0.696 . S
C1583 C270 2.192 . S
C1585 C755 2.211 . S
C1601 C140 0.655 . S
C1603 C498 0.666 . S
C1621 C674 2.211 . S
C1619 C294 2.171 . S
C1637 C114 1.022 . S
C1639 C561 0.969 . S
C1655 C268 2.250 . S
C1657 C834 2.289 . S
C1673 C169 2.254 1_556 S
C1675 C321 2.052 . S
C1691 C161 2.118 . S
C1693 C647 2.119 . S
C1709 C234 1.656 . S
C1711 C521 1.573 . S
C1727 C226 1.557 . S
C1729 C715 1.549 . S
C1747 C841 1.835 . S
C1745 C247 1.992 . S
C1763 C195 2.491 . S
C1765 C414 2.525 . S
C1783 C434 1.495 . S
C1781 C239 1.452 . S
C1801 C378 0.641 . S
C1799 C187 0.589 . S
C1817 C75 1.941 . S
C1819 C894 1.971 . S
C1837 C794 1.455 . S
C1835 C83 1.374 . S
C1853 C99 0.908 . S
C1855 C921 0.926 . S
C1871 C52 1.167 . S
C1873 C778 1.288 . S
C1889 C47 2.647 . S
C1891 C635 2.688 . S
C1909 C694 1.994 . S
C1907 C5 1.954 . S
C1927 C727 2.767 . S
C1925 C23 2.775 . S
C1945 C854 2.405 . S
C1943 C26 2.369 . S
C1963 C887 1.716 . S
C1961 C244 1.631 . S
C1979 C177 1.635 . S
C1981 C795 1.662 . S
C1999 C914 0.792 . S
C1997 C192 0.798 . S
C2017 C774 2.277 . S
C2015 C203 2.150 . S
C2035 C641 0.682 . S
C2033 C242 0.661 . S
C2051 C179 2.354 . S
C2053 C687 2.329 . S
C2071 C738 1.018 . S
C2069 C190 0.861 . S
C2087 C205 2.309 . S
C2089 C847 2.317 . S
C2107 C898 2.014 . S
C2105 C286 2.023 . S
C2123 C122 2.177 . S
C2125 C474 2.214 . S
C2143 C538 1.555 . S
C2141 C130 1.352 . S
C2161 C574 1.545 1_565 S
C2159 C148 1.576 . S
C2179 C858 1.551 . S
C2177 C273 1.436 . S
C2195 C260 2.581 . S
C2197 C915 2.626 1_655 S
C2215 C447 1.616 . S
C2213 C135 1.472 . S
C2233 C361 0.664 . S
C2231 C109 0.661 . S
C2249 C86 2.092 . S
C2251 C875 1.990 . S
C2269 C367 1.363 . S
C2267 C70 1.388 . S
C2285 C62 0.881 . S
C2287 C938 0.872 . S
C2303 C91 1.236 . S
C2305 C441 1.128 . S
C2321 C36 2.592 . S
C2323 C654 2.565 1_556 S
C2341 C515 1.982 . S
C2339 C18 1.920 . S
C2357 C8 2.604 . S
C2359 C714 2.691 . S
C2375 C39 2.494 . S
C2377 C595 2.455 . S
C2395 C874 1.815 . S
C2393 C307 1.826 . S
C2411 C153 1.515 . S
C2413 C374 1.503 . S
C2431 C927 0.585 . S
C2429 C281 0.691 . S
C2447 C127 2.215 . S
C2449 C435 2.230 . S
C2465 C309 0.633 . S
C2467 C658 0.647 . S
C2485 C514 2.249 . S
C2483 C151 2.210 1_556 S
C2501 C283 0.944 . S
C2503 C721 0.902 . S
C2521 C594 2.286 . S
C2519 C125 2.259 . S
C2539 C881 2.128 . S
C2537 C221 2.351 . S
C2557 C487 2.171 . S
C2555 C200 2.171 . S
C2573 C208 1.607 . S
C2575 C681 1.532 . S
C2593 C555 1.505 . S
C2591 C174 1.511 . S
C2609 C182 1.985 . S
C2611 C601 1.828 . S
C2627 C156 2.529 . S
C2629 C934 2.556 . S
C2647 C754 1.513 . S
C2645 C213 1.471 . S
C2665 C818 0.666 . S
C2663 C252 0.629 . S
