# Generated by pormake.
# Topology anh, (6,3)-cn, num edge types: 1
# Building blocks:
#     Node 0, Type 0, BuildingBlock: GEDQOX_clean_sbu_0, # of connection points: 6
#     Node 1, Type 0, BuildingBlock: GEDQOX_clean_sbu_0, # of connection points: 6
#     Node 2, Type 0, BuildingBlock: GEDQOX_clean_sbu_0, # of connection points: 6
#     Node 3, Type 1, BuildingBlock: OLANEW_clean_sbu_2, # of connection points: 3
#     Node 4, Type 1, BuildingBlock: OLANEW_clean_sbu_2, # of connection points: 3
#     Node 5, Type 1, BuildingBlock: OLANEW_clean_sbu_2, # of connection points: 3
#     Node 6, Type 1, BuildingBlock: OLANEW_clean_sbu_2, # of connection points: 3
#     Node 7, Type 1, BuildingBlock: OLANEW_clean_sbu_2, # of connection points: 3
#     Node 8, Type 1, BuildingBlock: OLANEW_clean_sbu_2, # of connection points: 3
#     Edge 9, Type (0, 1), BuildingBlock: AJUNOK_clean_linker_0, # of connection points: 2
#     Edge 10, Type (0, 1), BuildingBlock: AJUNOK_clean_linker_0, # of connection points: 2
#     Edge 11, Type (0, 1), BuildingBlock: AJUNOK_clean_linker_0, # of connection points: 2
#     Edge 12, Type (0, 1), BuildingBlock: AJUNOK_clean_linker_0, # of connection points: 2
#     Edge 13, Type (0, 1), BuildingBlock: AJUNOK_clean_linker_0, # of connection points: 2
#     Edge 14, Type (0, 1), BuildingBlock: AJUNOK_clean_linker_0, # of connection points: 2
#     Edge 15, Type (0, 1), BuildingBlock: AJUNOK_clean_linker_0, # of connection points: 2
#     Edge 16, Type (0, 1), BuildingBlock: AJUNOK_clean_linker_0, # of connection points: 2
#     Edge 17, Type (0, 1), BuildingBlock: AJUNOK_clean_linker_0, # of connection points: 2
#     Edge 18, Type (0, 1), BuildingBlock: AJUNOK_clean_linker_0, # of connection points: 2
#     Edge 19, Type (0, 1), BuildingBlock: AJUNOK_clean_linker_0, # of connection points: 2
#     Edge 20, Type (0, 1), BuildingBlock: AJUNOK_clean_linker_0, # of connection points: 2
#     Edge 21, Type (0, 1), BuildingBlock: AJUNOK_clean_linker_0, # of connection points: 2
#     Edge 22, Type (0, 1), BuildingBlock: AJUNOK_clean_linker_0, # of connection points: 2
#     Edge 23, Type (0, 1), BuildingBlock: AJUNOK_clean_linker_0, # of connection points: 2
#     Edge 24, Type (0, 1), BuildingBlock: AJUNOK_clean_linker_0, # of connection points: 2
#     Edge 25, Type (0, 1), BuildingBlock: AJUNOK_clean_linker_0, # of connection points: 2
#     Edge 26, Type (0, 1), BuildingBlock: AJUNOK_clean_linker_0, # of connection points: 2
# Relax obj value: 0.188
# Max RMSD: 0.195
# Mean RMSD: 0.124
data_MOF--net-anh--node1-GEDQOX_clean_sbu_0--node2-OLANEW_clean_sbu_2--edge1-AJUNOK_clean_linker_0
_symmetry_space_group_name_H-M    P1
_symmetry_Int_Tables_number       1
_symmetry_cell_setting            triclinic
loop_
_symmetry_equiv_pos_as_xyz
'x, y, z'
_cell_length_a     29.497303
_cell_length_b     25.672491
_cell_length_c     37.485355
_cell_angle_alpha  92.674218
_cell_angle_beta   90.423543
_cell_angle_gamma 105.165
loop_
_atom_site_label
_atom_site_type_symbol
_atom_site_fract_x
_atom_site_fract_y
_atom_site_fract_z
_atom_type_partial_charge
Nd0 Nd 0.05159 0.58022 0.11892 0.0
Nd1 Nd 0.02145 0.46081 0.12912 0.0
C2 C 0.09385 0.67871 0.09998 0.0
C3 C 0.13924 0.71742 0.11075 0.0
C4 C 0.17948 0.72088 0.0901 0.0
C5 C 0.22344 0.75263 0.10241 0.0
C6 C 0.22791 0.78161 0.13553 0.0
C7 C 0.1874 0.78017 0.15532 0.0
C8 C 0.14356 0.74866 0.14304 0.0
C9 C 0.04163 0.55483 0.18891 0.0
C10 C 0.13313 0.5104 0.12174 0.0
C11 C 0.98288 0.36346 0.15205 0.0
C12 C 0.93594 0.33013 0.16095 0.0
C13 C 0.90422 0.35207 0.18046 0.0
C14 C 0.8603 0.31926 0.18926 0.0
C15 C 0.84707 0.2641 0.17834 0.0
C16 C 0.87886 0.24249 0.1586 0.0
C17 C 0.92285 0.2752 0.15005 0.0
C18 C 0.03006 0.48887 0.05904 0.0
C19 C 0.93968 0.52757 0.12236 0.0
O20 O 0.09622 0.63504 0.08143 0.0
O21 O 0.06148 0.66873 0.12427 0.0
O22 O 0.02958 0.59523 0.17597 0.0
O23 O 0.06047 0.5307 0.16558 0.0
O24 O 0.12193 0.55498 0.11297 0.0
O25 O 0.10061 0.4686 0.13257 0.0
O26 O 1.00122 0.40575 0.17333 0.0
O27 O 0.99039 0.37276 0.11833 0.0
O28 O 0.04252 0.44763 0.07067 0.0
O29 O 1.01194 0.51127 0.08349 0.0
O30 O 0.95174 0.48651 0.13637 0.0
O31 O 0.97205 0.56657 0.10817 0.0
H32 H 0.1773 0.69759 0.06499 0.0
H33 H 0.25415 0.7527 0.08673 0.0
H34 H 0.18981 0.80264 0.18077 0.0
H35 H 0.11332 0.74759 0.15948 0.0
H36 H 0.91346 0.39443 0.18917 0.0
H37 H 0.83704 0.33691 0.20512 0.0
H38 H 0.86959 0.20025 0.14962 0.0
H39 H 0.94678 0.25752 0.13493 0.0
Nd40 Nd 0.46253 0.9871 0.52782 0.0
Nd41 Nd 0.57489 0.01579 0.52196 0.0
C42 C 0.37541 0.95158 0.54912 0.0
C43 C 0.33713 0.9054 0.53579 0.0
C44 C 0.34592 0.86978 0.50878 0.0
C45 C 0.31026 0.82508 0.49635 0.0
C46 C 0.26501 0.81518 0.51058 0.0
C47 C 0.25627 0.85107 0.53762 0.0
C48 C 0.2921 0.8959 0.5501 0.0
C49 C 0.48848 0.98944 0.45689 0.0
C50 C 0.51745 0.88961 0.51984 0.0
C51 C 0.66512 0.05229 0.5082 0.0
C52 C 0.69865 0.09884 0.4936 0.0
C53 C 0.68563 0.14609 0.48618 0.0
C54 C 0.71883 0.19054 0.47343 0.0
C55 C 0.76535 0.18812 0.46777 0.0
C56 C 0.77811 0.14072 0.47545 0.0
C57 C 0.74499 0.09646 0.48818 0.0
C58 C 0.53817 0.99076 0.58789 0.0
C59 C 0.52037 0.11375 0.52876 0.0
O60 O 0.41111 0.93873 0.56407 0.0
O61 O 0.38836 0.99117 0.52738 0.0
O62 O 0.44516 0.97777 0.46682 0.0
O63 O 0.51455 0.99778 0.4842 0.0
O64 O 0.48028 0.90536 0.53063 0.0
O65 O 0.55654 0.92415 0.51002 0.0
O66 O 0.63483 0.02053 0.48569 0.0
O67 O 0.64682 0.06116 0.53887 0.0
O68 O 0.57474 0.9769 0.57589 0.0
O69 O 0.5239 0.01913 0.56603 0.0
O70 O 0.55786 0.09835 0.51797 0.0
O71 O 0.48125 0.07883 0.53815 0.0
H72 H 0.38053 0.87646 0.49742 0.0
H73 H 0.31801 0.79834 0.47542 0.0
H74 H 0.22199 0.84397 0.54953 0.0
H75 H 0.28479 0.92283 0.57109 0.0
H76 H 0.64994 0.14856 0.49028 0.0
H77 H 0.70811 0.22657 0.46766 0.0
H78 H 0.81389 0.13812 0.47199 0.0
H79 H 0.7557 0.06046 0.49412 0.0
Nd80 Nd 0.46126 0.4895 0.85442 0.0
Nd81 Nd 0.57012 0.53158 0.88009 0.0
C82 C 0.38064 0.4676 0.81883 0.0
C83 C 0.34858 0.49712 0.805 0.0
C84 C 0.32065 0.4762 0.77464 0.0
C85 C 0.2854 0.49974 0.76403 0.0
C86 C 0.27753 0.54428 0.78387 0.0
C87 C 0.3078 0.56721 0.81291 0.0
C88 C 0.3433 0.54404 0.82322 0.0
C89 C 0.47993 0.49535 0.92669 0.0
C90 C 0.51175 0.62109 0.86347 0.0
C91 C 0.65026 0.55651 0.91575 0.0
C92 C 0.69539 0.54535 0.90613 0.0
C93 C 0.73163 0.58735 0.89387 0.0
C94 C 0.76981 0.57604 0.87652 0.0
C95 C 0.77336 0.52257 0.87198 0.0
C96 C 0.73875 0.48088 0.88646 0.0
C97 C 0.70004 0.49211 0.90335 0.0
C98 C 0.5622 0.51215 0.80686 0.0
C99 C 0.52022 0.40117 0.86558 0.0
O100 O 0.42108 0.47465 0.80308 0.0
O101 O 0.38386 0.46671 0.85368 0.0
O102 O 0.44568 0.45843 0.9112 0.0
O103 O 0.50047 0.52849 0.90454 0.0
O104 O 0.47557 0.58174 0.85105 0.0
O105 O 0.54929 0.61167 0.87878 0.0
O106 O 0.61555 0.51479 0.92305 0.0
O107 O 0.63714 0.59047 0.89544 0.0
O108 O 0.60251 0.52912 0.82344 0.0
O109 O 0.53059 0.50638 0.82948 0.0
O110 O 0.55278 0.43888 0.88359 0.0
O111 O 0.48457 0.41177 0.8485 0.0
H112 H 0.32473 0.44029 0.76009 0.0
H113 H 0.26271 0.48143 0.74148 0.0
H114 H 0.30208 0.6007 0.82927 0.0
H115 H 0.36496 0.56107 0.84656 0.0
H116 H 0.72888 0.62867 0.8955 0.0
H117 H 0.79506 0.609 0.86484 0.0
H118 H 0.74075 0.43937 0.88353 0.0
H119 H 0.67275 0.45873 0.91257 0.0
O120 O 0.56899 0.03725 0.29427 0.0
Cd121 Cd 0.58254 0.04505 0.23013 0.0
O122 O 0.5016 0.97632 0.28442 0.0
Cd123 Cd 0.49569 0.97152 0.22616 0.0
O124 O 0.43853 0.93136 0.18872 0.0
C125 C 0.40754 0.89466 0.20306 0.0
O126 O 0.41436 0.8847 0.23648 0.0
C127 C 0.5326 0.00485 0.30613 0.0
C128 C 0.66743 0.11895 0.21479 0.0
O129 O 0.62916 0.1336 0.2169 0.0
O130 O 0.66553 0.06952 0.22029 0.0
O131 O 0.55504 0.47152 0.63213 0.0
Cd132 Cd 0.5509 0.45642 0.56704 0.0
O133 O 0.53166 0.54654 0.63993 0.0
Cd134 Cd 0.53241 0.57448 0.58539 0.0
O135 O 0.54012 0.6479 0.55526 0.0
C136 C 0.50438 0.66604 0.55082 0.0
O137 O 0.46358 0.63769 0.56189 0.0
C138 C 0.54399 0.50704 0.6526 0.0
C139 C 0.53867 0.34565 0.54985 0.0
O140 O 0.57976 0.37836 0.55272 0.0
O141 O 0.50343 0.3655 0.55447 0.0
O142 O 0.02588 0.58235 0.89894 0.0
Cd143 Cd 0.0242 0.61124 0.83762 0.0
O144 O 1.0021 0.49422 0.88732 0.0
Cd145 Cd 0.98367 0.49944 0.83146 0.0
O146 O 0.95377 0.49113 0.77725 0.0
C147 C 0.91102 0.48858 0.7699 0.0
O148 O 0.8959 0.47849 0.7366 0.0
C149 C 0.0169 0.53431 0.90942 0.0
C150 C 0.10265 0.59779 0.80233 0.0
O151 O 0.0643 0.56009 0.80151 0.0
O152 O 0.10325 0.6427 0.81901 0.0
O153 O 0.0615 0.52592 0.36095 0.0
Cd154 Cd 0.05937 0.52921 0.42639 0.0
O155 O 0.98468 0.51006 0.35378 0.0
Cd156 Cd 0.96453 0.48354 0.40731 0.0
O157 O 0.91644 0.41771 0.43415 0.0
C158 C 0.90501 0.37306 0.41587 0.0
O159 O 0.92348 0.37064 0.38425 0.0
C160 C 0.02559 0.52082 0.34077 0.0
C161 C 0.12359 0.6229 0.45556 0.0
O162 O 0.13532 0.57854 0.45018 0.0
O163 O 0.08133 0.62289 0.4474 0.0
O164 O 0.50134 0.95226 0.75886 0.0
Cd165 Cd 0.49457 0.94455 0.82353 0.0
O166 O 0.4958 0.03572 0.7532 0.0
Cd167 Cd 0.49288 0.06528 0.80854 0.0
O168 O 0.49352 0.14172 0.83745 0.0
C169 C 0.53099 0.1801 0.83857 0.0
O170 O 0.56926 0.17108 0.82487 0.0
C171 C 0.49991 0.99104 0.73933 0.0
C172 C 0.50111 0.84158 0.84114 0.0
O173 O 0.46139 0.85029 0.83348 0.0
O174 O 0.53758 0.88176 0.841 0.0
O175 O 0.58415 0.51498 0.0807 0.0
Cd176 Cd 0.64213 0.52443 0.13204 0.0
O177 O 0.51336 0.5133 0.10213 0.0
Cd178 Cd 0.43665 0.51452 0.0994 0.0
O179 O 0.36232 0.52404 0.10186 0.0
C180 C 0.32729 0.48769 0.11258 0.0
O181 O 0.33463 0.44202 0.12234 0.0
C182 C 0.54036 0.51183 0.07571 0.0
C183 C 0.73882 0.52493 0.12196 0.0
O184 O 0.70732 0.48127 0.12766 0.0
O185 O 0.72471 0.56784 0.11942 0.0
C186 C 0.19473 0.45875 0.12777 0.0
C187 C 0.18327 0.50679 0.1193 0.0
C188 C 0.24094 0.45337 0.12544 0.0
C189 C 0.27848 0.4957 0.1145 0.0
H190 H 0.1677 0.42451 0.13626 0.0
H191 H 0.24711 0.41526 0.1323 0.0
S192 S 0.26833 0.63074 0.08972 0.0
N193 N 0.21424 0.59823 0.09977 0.0
N194 N 0.30069 0.58801 0.09541 0.0
C195 C 0.26774 0.54419 0.10605 0.0
C196 C 0.22046 0.54973 0.10845 0.0
C197 C 0.80795 0.28668 0.47065 0.0
C198 C 0.80072 0.23486 0.45397 0.0
C199 C 0.84218 0.33099 0.45855 0.0
C200 C 0.8701 0.32526 0.42903 0.0
H201 H 0.7874 0.29289 0.49353 0.0
H202 H 0.84643 0.3701 0.47227 0.0
S203 S 0.86376 0.19783 0.37553 0.0
N204 N 0.8234 0.18034 0.40613 0.0
N205 N 0.88768 0.2631 0.38336 0.0
C206 C 0.8629 0.27351 0.41203 0.0
C207 C 0.82827 0.22848 0.4245 0.0
C208 C 0.4674 0.68909 0.84945 0.0
C209 C 0.50986 0.67807 0.85979 0.0
C210 C 0.46485 0.742 0.84419 0.0
C211 C 0.50462 0.78632 0.84878 0.0
H212 H 0.43575 0.6566 0.84513 0.0
H213 H 0.43134 0.74793 0.83589 0.0
S214 S 0.62426 0.78005 0.87638 0.0
N215 N 0.59266 0.71659 0.87503 0.0
N216 N 0.58777 0.81573 0.86506 0.0
C217 C 0.54722 0.77612 0.85959 0.0
C218 C 0.54981 0.72217 0.86513 0.0
C219 C 0.85374 0.48304 0.13235 0.0
C220 C 0.8887 0.52796 0.12127 0.0
C221 C 0.8057 0.48203 0.13171 0.0
C222 C 0.79005 0.52607 0.12028 0.0
H223 H 0.86341 0.44804 0.14169 0.0
H224 H 0.78067 0.44655 0.14086 0.0
S225 S 0.86661 0.65317 0.08748 0.0
N226 N 0.90354 0.61736 0.09757 0.0
N227 N 0.81385 0.61566 0.09677 0.0
C228 C 0.82451 0.5711 0.10882 0.0
C229 C 0.87349 0.57198 0.10921 0.0
C230 C 0.23728 0.71593 0.49449 0.0
C231 C 0.22762 0.76678 0.4975 0.0
C232 C 0.20334 0.66983 0.48126 0.0
C233 C 0.15823 0.67254 0.47038 0.0
H234 H 0.27142 0.71165 0.50255 0.0
H235 H 0.21275 0.63175 0.47947 0.0
S236 S 0.11566 0.79669 0.47197 0.0
N237 N 0.17008 0.81754 0.48789 0.0
N238 N 0.10603 0.731 0.46331 0.0
C239 C 0.14803 0.72324 0.47341 0.0
C240 C 0.18271 0.77024 0.48692 0.0
C241 C 0.48346 0.30186 0.85906 0.0
C242 C 0.52428 0.34485 0.86311 0.0
C243 C 0.48605 0.24845 0.85298 0.0
C244 C 0.52962 0.23591 0.85003 0.0
H245 H 0.44908 0.3096 0.86 0.0
H246 H 0.4535 0.21709 0.84916 0.0
S247 S 0.64713 0.33388 0.86023 0.0
N248 N 0.60964 0.37132 0.86534 0.0
N249 N 0.61475 0.27108 0.85346 0.0
C250 C 0.57081 0.27844 0.85521 0.0
C251 C 0.56809 0.33283 0.86188 0.0
C252 C 0.47177 0.79395 0.52701 0.0
C253 C 0.51545 0.83127 0.52215 0.0
C254 C 0.46863 0.74023 0.53458 0.0
C255 C 0.509 0.72114 0.53774 0.0
H256 H 0.43952 0.80659 0.52602 0.0
H257 H 0.43413 0.71398 0.53913 0.0
S258 S 0.63176 0.80079 0.524 0.0
N259 N 0.59995 0.8441 0.51841 0.0
N260 N 0.59407 0.74303 0.53257 0.0
C261 C 0.55282 0.75713 0.53101 0.0
C262 C 0.55603 0.81211 0.52322 0.0
C263 C 0.79852 0.46921 0.82182 0.0
C264 C 0.81053 0.51021 0.84918 0.0
C265 C 0.8316 0.46181 0.79672 0.0
C266 C 0.87787 0.49495 0.79815 0.0
H267 H 0.76283 0.44405 0.81886 0.0
H268 H 0.82066 0.43045 0.7757 0.0
S269 S 0.92667 0.60812 0.8643 0.0
N270 N 0.87231 0.58276 0.87703 0.0
N271 N 0.9332 0.57143 0.82829 0.0
C272 C 0.89034 0.53556 0.82554 0.0
C273 C 0.857 0.54251 0.85145 0.0
C274 C 0.28624 0.80003 0.18603 0.0
C275 C 0.27479 0.81011 0.15103 0.0
C276 C 0.32949 0.82688 0.2021 0.0
C277 C 0.36324 0.86524 0.18393 0.0
H278 H 0.26149 0.77095 0.20121 0.0
H279 H 0.33614 0.81767 0.22924 0.0
S280 S 0.35052 0.90573 0.0913 0.0
N281 N 0.30059 0.86046 0.09832 0.0
N282 N 0.38227 0.91119 0.12844 0.0
C283 C 0.35253 0.87517 0.14859 0.0
C284 C 0.30829 0.8475 0.13215 0.0
C285 C 0.56759 0.21074 0.53176 0.0
C286 C 0.52345 0.1727 0.53211 0.0
C287 C 0.57199 0.26636 0.53694 0.0
C288 C 0.53244 0.28657 0.54253 0.0
H289 H 0.59934 0.19756 0.52823 0.0
H290 H 0.60689 0.29363 0.537 0.0
S291 S 0.40837 0.2045 0.54356 0.0
N292 N 0.439 0.15969 0.53689 0.0
N293 N 0.44725 0.26395 0.54656 0.0
C294 C 0.48792 0.24914 0.54202 0.0
C295 C 0.48344 0.1924 0.53687 0.0
C296 C 0.19052 0.52009 0.77705 0.0
C297 C 0.23332 0.56041 0.77885 0.0
C298 C 0.1478 0.53317 0.7817 0.0
C299 C 0.14632 0.58699 0.78867 0.0
H300 H 0.19008 0.47774 0.77485 0.0
H301 H 0.11614 0.50034 0.78244 0.0
S302 S 0.24763 0.70829 0.78753 0.0
N303 N 0.27104 0.65681 0.78143 0.0
N304 N 0.19056 0.68159 0.79099 0.0
C305 C 0.18838 0.6281 0.78694 0.0
C306 C 0.23195 0.61474 0.78188 0.0
C307 C 0.79816 0.17772 0.20157 0.0
C308 C 0.80074 0.22859 0.18801 0.0
C309 C 0.75502 0.1429 0.21031 0.0
C310 C 0.71259 0.15752 0.206 0.0
H311 H 0.82985 0.16475 0.20569 0.0
H312 H 0.75507 0.1042 0.22063 0.0
S313 S 0.69994 0.28563 0.17019 0.0
N314 N 0.75697 0.29127 0.16961 0.0
N315 N 0.67592 0.22638 0.18665 0.0
C316 C 0.71464 0.20843 0.19257 0.0
C317 C 0.75865 0.2438 0.18347 0.0
C318 C 0.03645 0.46611 0.99391 0.0
C319 C 0.02912 0.50236 0.02115 0.0
C320 C 0.03269 0.47686 0.95778 0.0
C321 C 0.02245 0.52476 0.94765 0.0
H322 H 0.04412 0.42862 1.00048 0.0
H323 H 0.03788 0.44743 0.93764 0.0
S324 S 1.00091 0.63324 0.00879 0.0
N325 N 1.01124 0.58817 0.0355 0.0
N326 N 1.00542 0.60889 0.96782 0.0
C327 C 0.01606 0.56184 0.97466 0.0
C328 C 0.01906 0.55049 0.01135 0.0
C329 C 0.4712 0.96334 0.39289 0.0
C330 C 0.50304 0.99228 0.41931 0.0
C331 C 0.48176 0.96705 0.35668 0.0
C332 C 0.52447 1.00048 0.34516 0.0
H333 H 0.43755 0.93767 0.40023 0.0
H334 H 0.45558 0.94394 0.33757 0.0
S335 S 0.61961 0.08571 0.40423 0.0
N336 N 0.57882 0.05591 0.43201 0.0
N337 N 0.59909 0.06321 0.3637 0.0
C338 C 0.55696 0.02948 0.37148 0.0
C339 C 0.54615 0.02527 0.4086 0.0
C340 C 0.51881 0.52194 0.75126 0.0
C341 C 0.55544 0.50575 0.76778 0.0
C342 C 0.51498 0.52161 0.71389 0.0
C343 C 0.54694 0.50375 0.69185 0.0
H344 H 0.49418 0.53712 0.76727 0.0
H345 H 0.487 0.53581 0.70217 0.0
S346 S 0.64781 0.455 0.72247 0.0
N347 N 0.62364 0.47055 0.7597 0.0
N348 N 0.61559 0.468 0.6895 0.0
C349 C 0.58277 0.48575 0.70819 0.0
C350 C 0.58729 0.48736 0.74619 0.0
C351 C 0.5006 0.02209 0.64123 0.0
C352 C 0.52337 0.98548 0.62535 0.0
C353 C 0.49199 0.02247 0.67794 0.0
C354 C 0.50512 0.98572 0.70005 0.0
H355 H 0.49111 0.05213 0.62552 0.0
H356 H 0.4757 0.05264 0.68916 0.0
S357 S 0.56092 0.87754 0.67023 0.0
N358 N 0.55558 0.90883 0.63356 0.0
N359 N 0.5388 0.90882 0.70248 0.0
C360 C 0.52555 0.94687 0.68398 0.0
C361 C 0.53484 0.947 0.64665 0.0
C362 C 0.53438 0.53755 0.9774 0.0
C363 C 0.49312 0.49935 0.96514 0.0
C364 C 0.54898 0.54149 0.01329 0.0
C365 C 0.52223 0.50845 0.03856 0.0
H366 H 0.55601 0.5643 0.95905 0.0
H367 H 0.58147 0.57082 0.02137 0.0
S368 S 0.41097 0.40259 0.02061 0.0
N369 N 0.42544 0.42797 0.98131 0.0
N370 N 0.45256 0.43629 0.04905 0.0
C371 C 0.48041 0.47083 0.02695 0.0
C372 C 0.46592 0.46607 0.99016 0.0
C373 C 1.0035 0.55947 0.24727 0.0
C374 C 0.03795 0.5434 0.22713 0.0
C375 C 0.99961 0.55143 0.2839 0.0
C376 C 0.03083 0.52829 0.30199 0.0
H377 H 0.97911 0.57826 0.23458 0.0
H378 H 0.9724 0.56435 0.29828 0.0
S379 S 0.12695 0.47858 0.26131 0.0
N380 N 0.10319 0.502 0.22757 0.0
N381 N 0.09694 0.48842 0.29691 0.0
C382 C 0.06554 0.51199 0.28218 0.0
C383 C 0.06876 0.51904 0.24459 0.0
loop_
_geom_bond_atom_site_label_1
_geom_bond_atom_site_label_2
_geom_bond_distance
_geom_bond_site_symmetry_2
_ccdc_geom_bond_type
Nd0 C2 2.836 . S
Nd0 O20 2.500 . S
Nd0 O21 2.492 . S
Nd0 O22 2.487 . S
Nd0 O23 2.682 . S
Nd0 O24 2.410 . S
Nd0 O29 2.414 . S
Nd0 O31 2.424 1_455 S
Nd1 C11 2.836 . S
Nd1 O23 2.414 1_655 S
Nd1 O25 2.424 1_655 S
Nd1 O26 2.500 . S
Nd1 O27 2.492 . S
Nd1 O28 2.487 . S
Nd1 O29 2.682 1_655 S
Nd1 O30 2.410 . S
C2 Nd0 2.836 . S
C2 C3 1.498 . S
C2 O20 1.258 . S
C2 O21 1.239 . S
C3 C2 1.498 . S
C3 C4 1.366 . S
C3 C8 1.407 . S
C4 C3 1.366 . S
C4 C5 1.392 . S
C4 H32 0.930 . S
C5 C4 1.392 . S
C5 C6 1.398 . S
C5 H33 0.929 . S
C6 C5 1.398 . S
C6 C7 1.352 . S
C7 C6 1.352 . S
C7 C8 1.384 . S
C7 H34 0.930 . S
C8 C3 1.407 . S
C8 C7 1.384 . S
C8 H35 0.929 . S
C9 O22 1.241 . S
C9 O23 1.273 . S
C10 O24 1.251 . S
C10 O25 1.268 . S
C11 Nd1 2.836 . S
C11 C12 1.498 . S
C11 O26 1.258 . S
C11 O27 1.239 . S
C12 C11 1.498 . S
C12 C13 1.366 . S
C12 C17 1.407 . S
C13 C12 1.366 . S
C13 C14 1.392 . S
C13 H36 0.930 . S
C14 C13 1.392 . S
C14 C15 1.398 . S
C14 H37 0.929 . S
C15 C14 1.398 . S
C15 C16 1.352 . S
C16 C15 1.352 . S
C16 C17 1.384 . S
C16 H38 0.930 . S
C17 C12 1.407 . S
C17 C16 1.384 . S
C17 H39 0.929 . S
C18 O28 1.241 1_455 S
C18 O29 1.273 . S
C19 O30 1.251 . S
C19 O31 1.268 . S
O20 Nd0 2.500 . S
O20 C2 1.258 . S
O21 Nd0 2.492 . S
O21 C2 1.239 . S
O22 Nd0 2.487 . S
O22 C9 1.241 . S
O23 Nd0 2.682 . S
O23 Nd1 2.414 1_455 S
O23 C9 1.273 . S
O24 Nd0 2.410 . S
O24 C10 1.251 . S
O25 Nd1 2.424 1_455 S
O25 C10 1.268 . S
O26 Nd1 2.500 . S
O26 C11 1.258 . S
O27 Nd1 2.492 . S
O27 C11 1.239 . S
O28 Nd1 2.487 . S
O28 C18 1.241 1_655 S
O29 Nd0 2.414 . S
O29 Nd1 2.682 1_455 S
O29 C18 1.273 . S
O30 Nd1 2.410 . S
O30 C19 1.251 . S
O31 Nd0 2.424 1_655 S
O31 C19 1.268 . S
H32 C4 0.930 . S
H33 C5 0.929 . S
H34 C7 0.930 . S
H35 C8 0.929 . S
H36 C13 0.930 . S
H37 C14 0.929 . S
H38 C16 0.930 . S
H39 C17 0.929 . S
Nd40 C42 2.836 . S
Nd40 O60 2.500 . S
Nd40 O61 2.492 . S
Nd40 O62 2.487 . S
Nd40 O63 2.682 1_565 S
Nd40 O64 2.410 . S
Nd40 O69 2.414 1_565 S
Nd40 O71 2.424 1_565 S
Nd41 C51 2.836 . S
Nd41 O63 2.414 . S
Nd41 O65 2.424 1_545 S
Nd41 O66 2.500 . S
Nd41 O67 2.492 . S
Nd41 O68 2.487 . S
Nd41 O69 2.682 . S
Nd41 O70 2.410 . S
C42 Nd40 2.836 . S
C42 C43 1.498 . S
C42 O60 1.258 . S
C42 O61 1.239 . S
C43 C42 1.498 . S
C43 C44 1.366 . S
C43 C48 1.407 . S
C44 C43 1.366 . S
C44 C45 1.392 . S
C44 H72 0.930 . S
C45 C44 1.392 . S
C45 C46 1.398 . S
C45 H73 0.929 . S
C46 C45 1.398 . S
C46 C47 1.352 . S
C47 C46 1.352 . S
C47 C48 1.384 . S
C47 H74 0.930 . S
C48 C43 1.407 . S
C48 C47 1.384 . S
C48 H75 0.929 . S
C49 O62 1.241 1_545 S
C49 O63 1.273 . S
C50 O64 1.251 . S
C50 O65 1.268 . S
C51 Nd41 2.836 . S
C51 C52 1.498 . S
C51 O66 1.258 . S
C51 O67 1.239 . S
C52 C51 1.498 . S
C52 C53 1.366 . S
C52 C57 1.407 . S
C53 C52 1.366 . S
C53 C54 1.392 . S
C53 H76 0.930 . S
C54 C53 1.392 . S
C54 C55 1.398 . S
C54 H77 0.929 . S
C55 C54 1.398 . S
C55 C56 1.352 . S
C56 C55 1.352 . S
C56 C57 1.384 . S
C56 H78 0.930 . S
C57 C52 1.407 . S
C57 C56 1.384 . S
C57 H79 0.929 . S
C58 O68 1.241 . S
C58 O69 1.273 . S
C59 O70 1.251 . S
C59 O71 1.268 . S
O60 Nd40 2.500 . S
O60 C42 1.258 . S
O61 Nd40 2.492 . S
O61 C42 1.239 . S
O62 Nd40 2.487 . S
O62 C49 1.241 1_565 S
O63 Nd40 2.682 1_545 S
O63 Nd41 2.414 . S
O63 C49 1.273 . S
O64 Nd40 2.410 . S
O64 C50 1.251 . S
O65 Nd41 2.424 1_565 S
O65 C50 1.268 . S
O66 Nd41 2.500 . S
O66 C51 1.258 . S
O67 Nd41 2.492 . S
O67 C51 1.239 . S
O68 Nd41 2.487 . S
O68 C58 1.241 . S
O69 Nd40 2.414 1_545 S
O69 Nd41 2.682 . S
O69 C58 1.273 . S
O70 Nd41 2.410 . S
O70 C59 1.251 . S
O71 Nd40 2.424 1_545 S
O71 C59 1.268 . S
H72 C44 0.930 . S
H73 C45 0.929 . S
H74 C47 0.930 . S
H75 C48 0.929 . S
H76 C53 0.930 . S
H77 C54 0.929 . S
H78 C56 0.930 . S
H79 C57 0.929 . S
Nd80 C82 2.836 . S
Nd80 O100 2.500 . S
Nd80 O101 2.492 . S
Nd80 O102 2.487 . S
Nd80 O103 2.682 . S
Nd80 O104 2.410 . S
Nd80 O109 2.414 . S
Nd80 O111 2.424 . S
Nd81 C91 2.836 . S
Nd81 O103 2.414 . S
Nd81 O105 2.424 . S
Nd81 O106 2.500 . S
Nd81 O107 2.492 . S
Nd81 O108 2.487 . S
Nd81 O109 2.682 . S
Nd81 O110 2.410 . S
C82 Nd80 2.836 . S
C82 C83 1.498 . S
C82 O100 1.258 . S
C82 O101 1.239 . S
C83 C82 1.498 . S
C83 C84 1.366 . S
C83 C88 1.407 . S
C84 C83 1.366 . S
C84 C85 1.392 . S
C84 H112 0.930 . S
C85 C84 1.392 . S
C85 C86 1.398 . S
C85 H113 0.929 . S
C86 C85 1.398 . S
C86 C87 1.352 . S
C87 C86 1.352 . S
C87 C88 1.384 . S
C87 H114 0.930 . S
C88 C83 1.407 . S
C88 C87 1.384 . S
C88 H115 0.929 . S
C89 O102 1.241 . S
C89 O103 1.273 . S
C90 O104 1.251 . S
C90 O105 1.268 . S
C91 Nd81 2.836 . S
C91 C92 1.498 . S
C91 O106 1.258 . S
C91 O107 1.239 . S
C92 C91 1.498 . S
C92 C93 1.366 . S
C92 C97 1.407 . S
C93 C92 1.366 . S
C93 C94 1.392 . S
C93 H116 0.930 . S
C94 C93 1.392 . S
C94 C95 1.398 . S
C94 H117 0.929 . S
C95 C94 1.398 . S
C95 C96 1.352 . S
C96 C95 1.352 . S
C96 C97 1.384 . S
C96 H118 0.930 . S
C97 C92 1.407 . S
C97 C96 1.384 . S
C97 H119 0.929 . S
C98 O108 1.241 . S
C98 O109 1.273 . S
C99 O110 1.251 . S
C99 O111 1.268 . S
O100 Nd80 2.500 . S
O100 C82 1.258 . S
O101 Nd80 2.492 . S
O101 C82 1.239 . S
O102 Nd80 2.487 . S
O102 C89 1.241 . S
O103 Nd80 2.682 . S
O103 Nd81 2.414 . S
O103 C89 1.273 . S
O104 Nd80 2.410 . S
O104 C90 1.251 . S
O105 Nd81 2.424 . S
O105 C90 1.268 . S
O106 Nd81 2.500 . S
O106 C91 1.258 . S
O107 Nd81 2.492 . S
O107 C91 1.239 . S
O108 Nd81 2.487 . S
O108 C98 1.241 . S
O109 Nd80 2.414 . S
O109 Nd81 2.682 . S
O109 C98 1.273 . S
O110 Nd81 2.410 . S
O110 C99 1.251 . S
O111 Nd80 2.424 . S
O111 C99 1.268 . S
H112 C84 0.930 . S
H113 C85 0.929 . S
H114 C87 0.930 . S
H115 C88 0.929 . S
H116 C93 0.930 . S
H117 C94 0.929 . S
H118 C96 0.930 . S
H119 C97 0.929 . S
O120 Cd121 2.300 . S
O120 C127 1.275 . S
Cd121 O120 2.300 . S
Cd121 O129 2.381 . S
Cd121 O130 2.378 . S
O122 Cd123 2.385 . S
O122 C127 1.255 1_565 S
Cd123 O122 2.385 . S
Cd123 O124 2.317 . S
O124 Cd123 2.317 . S
O124 C125 1.232 . S
C125 O124 1.232 . S
C125 O126 1.218 . S
O126 C125 1.218 . S
C127 O120 1.275 . S
C127 O122 1.255 1_545 S
C128 O129 1.258 . S
C128 O130 1.256 . S
O129 Cd121 2.381 . S
O129 C128 1.258 . S
O130 Cd121 2.378 . S
O130 C128 1.256 . S
O131 Cd132 2.300 . S
O131 C138 1.275 . S
Cd132 O131 2.300 . S
Cd132 O140 2.381 . S
Cd132 O141 2.378 . S
O133 Cd134 2.385 . S
O133 C138 1.255 . S
Cd134 O133 2.385 . S
Cd134 O135 2.317 . S
O135 Cd134 2.317 . S
O135 C136 1.232 . S
C136 O135 1.232 . S
C136 O137 1.218 . S
O137 C136 1.218 . S
C138 O131 1.275 . S
C138 O133 1.255 . S
C139 O140 1.258 . S
C139 O141 1.256 . S
O140 Cd132 2.381 . S
O140 C139 1.258 . S
O141 Cd132 2.378 . S
O141 C139 1.256 . S
O142 Cd143 2.300 . S
O142 C149 1.275 . S
Cd143 O142 2.300 . S
Cd143 O151 2.381 . S
Cd143 O152 2.378 . S
O144 Cd145 2.385 . S
O144 C149 1.255 1_655 S
Cd145 O144 2.385 . S
Cd145 O146 2.317 . S
O146 Cd145 2.317 . S
O146 C147 1.232 . S
C147 O146 1.232 . S
C147 O148 1.218 . S
O148 C147 1.218 . S
C149 O142 1.275 . S
C149 O144 1.255 1_455 S
C150 O151 1.258 . S
C150 O152 1.256 . S
O151 Cd143 2.381 . S
O151 C150 1.258 . S
O152 Cd143 2.378 . S
O152 C150 1.256 . S
O153 Cd154 2.300 . S
O153 C160 1.275 1_455 S
Cd154 O153 2.300 . S
Cd154 O162 2.381 . S
Cd154 O163 2.378 . S
O155 Cd156 2.385 . S
O155 C160 1.255 . S
Cd156 O155 2.385 . S
Cd156 O157 2.317 . S
O157 Cd156 2.317 . S
O157 C158 1.232 . S
C158 O157 1.232 . S
C158 O159 1.218 . S
O159 C158 1.218 . S
C160 O153 1.275 1_655 S
C160 O155 1.255 . S
C161 O162 1.258 . S
C161 O163 1.256 . S
O162 Cd154 2.381 . S
O162 C161 1.258 . S
O163 Cd154 2.378 . S
O163 C161 1.256 . S
O164 Cd165 2.300 . S
O164 C171 1.275 1_565 S
Cd165 O164 2.300 . S
Cd165 O173 2.381 . S
Cd165 O174 2.378 . S
O166 Cd167 2.385 . S
O166 C171 1.255 . S
Cd167 O166 2.385 . S
Cd167 O168 2.317 . S
O168 Cd167 2.317 . S
O168 C169 1.232 . S
C169 O168 1.232 . S
C169 O170 1.218 . S
O170 C169 1.218 . S
C171 O164 1.275 1_545 S
C171 O166 1.255 . S
C172 O173 1.258 . S
C172 O174 1.256 . S
O173 Cd165 2.381 . S
O173 C172 1.258 . S
O174 Cd165 2.378 . S
O174 C172 1.256 . S
O175 Cd176 2.300 . S
O175 C182 1.275 . S
Cd176 O175 2.300 . S
Cd176 O184 2.381 . S
Cd176 O185 2.378 . S
O177 Cd178 2.385 . S
O177 C182 1.255 . S
Cd178 O177 2.385 . S
Cd178 O179 2.317 . S
O179 Cd178 2.317 . S
O179 C180 1.232 . S
C180 O179 1.232 . S
C180 O181 1.218 . S
O181 C180 1.218 . S
C182 O175 1.275 . S
C182 O177 1.255 . S
C183 O184 1.258 . S
C183 O185 1.256 . S
O184 Cd176 2.381 . S
O184 C183 1.258 . S
O185 Cd176 2.378 . S
O185 C183 1.256 . S
C186 C187 1.369 . S
C186 C188 1.419 . S
C186 H190 0.930 . S
C187 C186 1.369 . S
C187 C196 1.429 . S
C188 C186 1.419 . S
C188 C189 1.363 . S
C188 H191 0.929 . S
C189 C188 1.363 . S
C189 C195 1.428 . S
H190 C186 0.930 . S
H191 C188 0.929 . S
S192 N193 1.613 . S
S192 N194 1.610 . S
N193 S192 1.613 . S
N193 C196 1.350 . S
N194 S192 1.610 . S
N194 C195 1.351 . S
C195 C189 1.428 . S
C195 N194 1.351 . S
C195 C196 1.434 . S
C196 C187 1.429 . S
C196 N193 1.350 . S
C196 C195 1.434 . S
C197 C198 1.369 . S
C197 C199 1.419 . S
C197 H201 0.930 . S
C198 C197 1.369 . S
C198 C207 1.429 . S
C199 C197 1.419 . S
C199 C200 1.363 . S
C199 H202 0.929 . S
C200 C199 1.363 . S
C200 C206 1.428 . S
H201 C197 0.930 . S
H202 C199 0.929 . S
S203 N204 1.613 . S
S203 N205 1.610 . S
N204 S203 1.613 . S
N204 C207 1.350 . S
N205 S203 1.610 . S
N205 C206 1.351 . S
C206 C200 1.428 . S
C206 N205 1.351 . S
C206 C207 1.434 . S
C207 C198 1.429 . S
C207 N204 1.350 . S
C207 C206 1.434 . S
C208 C209 1.369 . S
C208 C210 1.419 . S
C208 H212 0.930 . S
C209 C208 1.369 . S
C209 C218 1.429 . S
C210 C208 1.419 . S
C210 C211 1.363 . S
C210 H213 0.929 . S
C211 C210 1.363 . S
C211 C217 1.428 . S
H212 C208 0.930 . S
H213 C210 0.929 . S
S214 N215 1.613 . S
S214 N216 1.610 . S
N215 S214 1.613 . S
N215 C218 1.350 . S
N216 S214 1.610 . S
N216 C217 1.351 . S
C217 C211 1.428 . S
C217 N216 1.351 . S
C217 C218 1.434 . S
C218 C209 1.429 . S
C218 N215 1.350 . S
C218 C217 1.434 . S
C219 C220 1.369 . S
C219 C221 1.419 . S
C219 H223 0.930 . S
C220 C219 1.369 . S
C220 C229 1.429 . S
C221 C219 1.419 . S
C221 C222 1.363 . S
C221 H224 0.929 . S
C222 C221 1.363 . S
C222 C228 1.428 . S
H223 C219 0.930 . S
H224 C221 0.929 . S
S225 N226 1.613 . S
S225 N227 1.610 . S
N226 S225 1.613 . S
N226 C229 1.350 . S
N227 S225 1.610 . S
N227 C228 1.351 . S
C228 C222 1.428 . S
C228 N227 1.351 . S
C228 C229 1.434 . S
C229 C220 1.429 . S
C229 N226 1.350 . S
C229 C228 1.434 . S
C230 C231 1.369 . S
C230 C232 1.419 . S
C230 H234 0.930 . S
C231 C230 1.369 . S
C231 C240 1.429 . S
C232 C230 1.419 . S
C232 C233 1.363 . S
C232 H235 0.929 . S
C233 C232 1.363 . S
C233 C239 1.428 . S
H234 C230 0.930 . S
H235 C232 0.929 . S
S236 N237 1.613 . S
S236 N238 1.610 . S
N237 S236 1.613 . S
N237 C240 1.350 . S
N238 S236 1.610 . S
N238 C239 1.351 . S
C239 C233 1.428 . S
C239 N238 1.351 . S
C239 C240 1.434 . S
C240 C231 1.429 . S
C240 N237 1.350 . S
C240 C239 1.434 . S
C241 C242 1.369 . S
C241 C243 1.419 . S
C241 H245 0.930 . S
C242 C241 1.369 . S
C242 C251 1.429 . S
C243 C241 1.419 . S
C243 C244 1.363 . S
C243 H246 0.929 . S
C244 C243 1.363 . S
C244 C250 1.428 . S
H245 C241 0.930 . S
H246 C243 0.929 . S
S247 N248 1.613 . S
S247 N249 1.610 . S
N248 S247 1.613 . S
N248 C251 1.350 . S
N249 S247 1.610 . S
N249 C250 1.351 . S
C250 C244 1.428 . S
C250 N249 1.351 . S
C250 C251 1.434 . S
C251 C242 1.429 . S
C251 N248 1.350 . S
C251 C250 1.434 . S
C252 C253 1.369 . S
C252 C254 1.419 . S
C252 H256 0.930 . S
C253 C252 1.369 . S
C253 C262 1.429 . S
C254 C252 1.419 . S
C254 C255 1.363 . S
C254 H257 0.929 . S
C255 C254 1.363 . S
C255 C261 1.428 . S
H256 C252 0.930 . S
H257 C254 0.929 . S
S258 N259 1.613 . S
S258 N260 1.610 . S
N259 S258 1.613 . S
N259 C262 1.350 . S
N260 S258 1.610 . S
N260 C261 1.351 . S
C261 C255 1.428 . S
C261 N260 1.351 . S
C261 C262 1.434 . S
C262 C253 1.429 . S
C262 N259 1.350 . S
C262 C261 1.434 . S
C263 C264 1.369 . S
C263 C265 1.419 . S
C263 H267 0.930 . S
C264 C263 1.369 . S
C264 C273 1.429 . S
C265 C263 1.419 . S
C265 C266 1.363 . S
C265 H268 0.929 . S
C266 C265 1.363 . S
C266 C272 1.428 . S
H267 C263 0.930 . S
H268 C265 0.929 . S
S269 N270 1.613 . S
S269 N271 1.610 . S
N270 S269 1.613 . S
N270 C273 1.350 . S
N271 S269 1.610 . S
N271 C272 1.351 . S
C272 C266 1.428 . S
C272 N271 1.351 . S
C272 C273 1.434 . S
C273 C264 1.429 . S
C273 N270 1.350 . S
C273 C272 1.434 . S
C274 C275 1.369 . S
C274 C276 1.419 . S
C274 H278 0.930 . S
C275 C274 1.369 . S
C275 C284 1.429 . S
C276 C274 1.419 . S
C276 C277 1.363 . S
C276 H279 0.929 . S
C277 C276 1.363 . S
C277 C283 1.428 . S
H278 C274 0.930 . S
H279 C276 0.929 . S
S280 N281 1.613 . S
S280 N282 1.610 . S
N281 S280 1.613 . S
N281 C284 1.350 . S
N282 S280 1.610 . S
N282 C283 1.351 . S
C283 C277 1.428 . S
C283 N282 1.351 . S
C283 C284 1.434 . S
C284 C275 1.429 . S
C284 N281 1.350 . S
C284 C283 1.434 . S
C285 C286 1.369 . S
C285 C287 1.419 . S
C285 H289 0.930 . S
C286 C285 1.369 . S
C286 C295 1.429 . S
C287 C285 1.419 . S
C287 C288 1.363 . S
C287 H290 0.929 . S
C288 C287 1.363 . S
C288 C294 1.428 . S
H289 C285 0.930 . S
H290 C287 0.929 . S
S291 N292 1.613 . S
S291 N293 1.610 . S
N292 S291 1.613 . S
N292 C295 1.350 . S
N293 S291 1.610 . S
N293 C294 1.351 . S
C294 C288 1.428 . S
C294 N293 1.351 . S
C294 C295 1.434 . S
C295 C286 1.429 . S
C295 N292 1.350 . S
C295 C294 1.434 . S
C296 C297 1.369 . S
C296 C298 1.419 . S
C296 H300 0.930 . S
C297 C296 1.369 . S
C297 C306 1.429 . S
C298 C296 1.419 . S
C298 C299 1.363 . S
C298 H301 0.929 . S
C299 C298 1.363 . S
C299 C305 1.428 . S
H300 C296 0.930 . S
H301 C298 0.929 . S
S302 N303 1.613 . S
S302 N304 1.610 . S
N303 S302 1.613 . S
N303 C306 1.350 . S
N304 S302 1.610 . S
N304 C305 1.351 . S
C305 C299 1.428 . S
C305 N304 1.351 . S
C305 C306 1.434 . S
C306 C297 1.429 . S
C306 N303 1.350 . S
C306 C305 1.434 . S
C307 C308 1.369 . S
C307 C309 1.419 . S
C307 H311 0.930 . S
C308 C307 1.369 . S
C308 C317 1.429 . S
C309 C307 1.419 . S
C309 C310 1.363 . S
C309 H312 0.929 . S
C310 C309 1.363 . S
C310 C316 1.428 . S
H311 C307 0.930 . S
H312 C309 0.929 . S
S313 N314 1.613 . S
S313 N315 1.610 . S
N314 S313 1.613 . S
N314 C317 1.350 . S
N315 S313 1.610 . S
N315 C316 1.351 . S
C316 C310 1.428 . S
C316 N315 1.351 . S
C316 C317 1.434 . S
C317 C308 1.429 . S
C317 N314 1.350 . S
C317 C316 1.434 . S
C318 C319 1.369 . S
C318 C320 1.419 1_554 S
C318 H322 0.930 . S
C319 C318 1.369 . S
C319 C328 1.429 1_455 S
C320 C318 1.419 1_556 S
C320 C321 1.363 . S
C320 H323 0.929 . S
C321 C320 1.363 . S
C321 C327 1.428 1_456 S
H322 C318 0.930 . S
H323 C320 0.929 . S
S324 N325 1.613 . S
S324 N326 1.610 1_554 S
N325 S324 1.613 . S
N325 C328 1.350 . S
N326 S324 1.610 1_556 S
N326 C327 1.351 1_556 S
C327 C321 1.428 1_654 S
C327 N326 1.351 1_554 S
C327 C328 1.434 . S
C328 C319 1.429 1_655 S
C328 N325 1.350 . S
C328 C327 1.434 . S
C329 C330 1.369 1_565 S
C329 C331 1.419 . S
C329 H333 0.930 . S
C330 C329 1.369 1_545 S
C330 C339 1.429 . S
C331 C329 1.419 . S
C331 C332 1.363 1_565 S
C331 H334 0.929 . S
C332 C331 1.363 1_545 S
C332 C338 1.428 . S
H333 C329 0.930 . S
H334 C331 0.929 . S
S335 N336 1.613 . S
S335 N337 1.610 . S
N336 S335 1.613 . S
N336 C339 1.350 . S
N337 S335 1.610 . S
N337 C338 1.351 . S
C338 C332 1.428 . S
C338 N337 1.351 . S
C338 C339 1.434 . S
C339 C330 1.429 . S
C339 N336 1.350 . S
C339 C338 1.434 . S
C340 C341 1.369 . S
C340 C342 1.419 . S
C340 H344 0.930 . S
C341 C340 1.369 . S
C341 C350 1.429 . S
C342 C340 1.419 . S
C342 C343 1.363 . S
C342 H345 0.929 . S
C343 C342 1.363 . S
C343 C349 1.428 . S
H344 C340 0.930 . S
H345 C342 0.929 . S
S346 N347 1.613 . S
S346 N348 1.610 . S
N347 S346 1.613 . S
N347 C350 1.350 . S
N348 S346 1.610 . S
N348 C349 1.351 . S
C349 C343 1.428 . S
C349 N348 1.351 . S
C349 C350 1.434 . S
C350 C341 1.429 . S
C350 N347 1.350 . S
C350 C349 1.434 . S
C351 C352 1.369 . S
C351 C353 1.419 . S
C351 H355 0.930 . S
C352 C351 1.369 . S
C352 C361 1.429 1_545 S
C353 C351 1.419 . S
C353 C354 1.363 . S
C353 H356 0.929 . S
C354 C353 1.363 . S
C354 C360 1.428 1_545 S
H355 C351 0.930 . S
H356 C353 0.929 . S
S357 N358 1.613 . S
S357 N359 1.610 . S
N358 S357 1.613 . S
N358 C361 1.350 . S
N359 S357 1.610 . S
N359 C360 1.351 . S
C360 C354 1.428 1_565 S
C360 N359 1.351 . S
C360 C361 1.434 . S
C361 C352 1.429 1_565 S
C361 N358 1.350 . S
C361 C360 1.434 . S
C362 C363 1.369 . S
C362 C364 1.419 . S
C362 H366 0.930 . S
C363 C362 1.369 . S
C363 C372 1.429 . S
C364 C362 1.419 . S
C364 C365 1.363 1_556 S
C364 H367 0.929 1_556 S
C365 C364 1.363 1_554 S
C365 C371 1.428 1_554 S
H366 C362 0.930 . S
H367 C364 0.929 1_554 S
S368 N369 1.613 . S
S368 N370 1.610 . S
N369 S368 1.613 . S
N369 C372 1.350 . S
N370 S368 1.610 . S
N370 C371 1.351 . S
C371 C365 1.428 1_556 S
C371 N370 1.351 . S
C371 C372 1.434 . S
C372 C363 1.429 . S
C372 N369 1.350 . S
C372 C371 1.434 . S
C373 C374 1.369 1_655 S
C373 C375 1.419 . S
C373 H377 0.930 . S
C374 C373 1.369 1_455 S
C374 C383 1.429 . S
C375 C373 1.419 . S
C375 C376 1.363 . S
C375 H378 0.929 . S
C376 C375 1.363 . S
C376 C382 1.428 1_655 S
H377 C373 0.930 . S
H378 C375 0.929 . S
S379 N380 1.613 . S
S379 N381 1.610 . S
N380 S379 1.613 . S
N380 C383 1.350 . S
N381 S379 1.610 . S
N381 C382 1.351 . S
C382 C376 1.428 1_455 S
C382 N381 1.351 . S
C382 C383 1.434 . S
C383 C374 1.429 . S
C383 N380 1.350 . S
C383 C382 1.434 . S
C187 C10 3.264 . S
C189 C180 2.906 . S
C198 C55 1.370 . S
C200 C158 1.199 . S
C209 C90 1.863 . S
C211 C172 1.829 . S
C220 C19 2.982 . S
C222 C183 2.898 . S
C233 C161 1.176 . S
C231 C46 1.163 . S
C244 C169 1.765 . S
C242 C99 2.118 . S
C253 C50 2.032 . S
C255 C136 1.751 . S
C264 C95 0.951 . S
C266 C147 0.754 . S
C275 C6 1.404 . S
C277 C125 1.239 . S
C288 C139 1.871 . S
C286 C59 1.956 . S
C299 C150 0.473 . S
C297 C86 0.656 . S
C308 C15 1.225 . S
C310 C128 1.214 . S
C321 C149 1.132 . S
C319 C18 1.196 . S
C330 C49 1.451 . S
C332 C127 1.431 . S
C341 C98 1.415 . S
C343 C138 1.372 . S
C354 C171 1.371 . S
C352 C58 1.397 . S
C365 C182 1.681 . S
C363 C89 1.676 . S
C374 C9 1.515 . S
C376 C160 1.472 . S
