# Generated by pormake.
# Topology pyr, (3,6)-cn, num edge types: 1
# Building blocks:
#     Node 0, Type 0, BuildingBlock: OLANEW_clean_sbu_2, # of connection points: 3
#     Node 1, Type 0, BuildingBlock: OLANEW_clean_sbu_2, # of connection points: 3
#     Node 2, Type 0, BuildingBlock: OLANEW_clean_sbu_2, # of connection points: 3
#     Node 3, Type 0, BuildingBlock: OLANEW_clean_sbu_2, # of connection points: 3
#     Node 4, Type 0, BuildingBlock: OLANEW_clean_sbu_2, # of connection points: 3
#     Node 5, Type 0, BuildingBlock: OLANEW_clean_sbu_2, # of connection points: 3
#     Node 6, Type 0, BuildingBlock: OLANEW_clean_sbu_2, # of connection points: 3
#     Node 7, Type 0, BuildingBlock: OLANEW_clean_sbu_2, # of connection points: 3
#     Node 8, Type 1, BuildingBlock: VOLQOD_clean_sbu_1, # of connection points: 6
#     Node 9, Type 1, BuildingBlock: VOLQOD_clean_sbu_1, # of connection points: 6
#     Node 10, Type 1, BuildingBlock: VOLQOD_clean_sbu_1, # of connection points: 6
#     Node 11, Type 1, BuildingBlock: VOLQOD_clean_sbu_1, # of connection points: 6
#     Edge 12, Type (0, 1), BuildingBlock: EZIPEK_clean_linker_0, # of connection points: 2
#     Edge 13, Type (0, 1), BuildingBlock: EZIPEK_clean_linker_0, # of connection points: 2
#     Edge 14, Type (0, 1), BuildingBlock: EZIPEK_clean_linker_0, # of connection points: 2
#     Edge 15, Type (0, 1), BuildingBlock: EZIPEK_clean_linker_0, # of connection points: 2
#     Edge 16, Type (0, 1), BuildingBlock: EZIPEK_clean_linker_0, # of connection points: 2
#     Edge 17, Type (0, 1), BuildingBlock: EZIPEK_clean_linker_0, # of connection points: 2
#     Edge 18, Type (0, 1), BuildingBlock: EZIPEK_clean_linker_0, # of connection points: 2
#     Edge 19, Type (0, 1), BuildingBlock: EZIPEK_clean_linker_0, # of connection points: 2
#     Edge 20, Type (0, 1), BuildingBlock: EZIPEK_clean_linker_0, # of connection points: 2
#     Edge 21, Type (0, 1), BuildingBlock: EZIPEK_clean_linker_0, # of connection points: 2
#     Edge 22, Type (0, 1), BuildingBlock: EZIPEK_clean_linker_0, # of connection points: 2
#     Edge 23, Type (0, 1), BuildingBlock: EZIPEK_clean_linker_0, # of connection points: 2
#     Edge 24, Type (0, 1), BuildingBlock: EZIPEK_clean_linker_0, # of connection points: 2
#     Edge 25, Type (0, 1), BuildingBlock: EZIPEK_clean_linker_0, # of connection points: 2
#     Edge 26, Type (0, 1), BuildingBlock: EZIPEK_clean_linker_0, # of connection points: 2
#     Edge 27, Type (0, 1), BuildingBlock: EZIPEK_clean_linker_0, # of connection points: 2
#     Edge 28, Type (0, 1), BuildingBlock: EZIPEK_clean_linker_0, # of connection points: 2
#     Edge 29, Type (0, 1), BuildingBlock: EZIPEK_clean_linker_0, # of connection points: 2
#     Edge 30, Type (0, 1), BuildingBlock: EZIPEK_clean_linker_0, # of connection points: 2
#     Edge 31, Type (0, 1), BuildingBlock: EZIPEK_clean_linker_0, # of connection points: 2
#     Edge 32, Type (0, 1), BuildingBlock: EZIPEK_clean_linker_0, # of connection points: 2
#     Edge 33, Type (0, 1), BuildingBlock: EZIPEK_clean_linker_0, # of connection points: 2
#     Edge 34, Type (0, 1), BuildingBlock: EZIPEK_clean_linker_0, # of connection points: 2
#     Edge 35, Type (0, 1), BuildingBlock: EZIPEK_clean_linker_0, # of connection points: 2
# Relax obj value: 0.097
# Max RMSD: 0.151
# Mean RMSD: 0.133
data_MOF--net-pry--node1-OLANEW_clean_sbu_2--node2-VOLQOD_clean_sbu_1--edge1-EZIPEK_clean_linker_0
_symmetry_space_group_name_H-M    P1
_symmetry_Int_Tables_number       1
_symmetry_cell_setting            triclinic
loop_
_symmetry_equiv_pos_as_xyz
'x, y, z'
_cell_length_a     30.011122
_cell_length_b     30.072406
_cell_length_c     29.75963
_cell_angle_alpha  93.548027
_cell_angle_beta   88.768552
_cell_angle_gamma 95.603463
loop_
_atom_site_label
_atom_site_type_symbol
_atom_site_fract_x
_atom_site_fract_y
_atom_site_fract_z
_atom_type_partial_charge
O0 O 0.214 0.14443 0.09491 0.0
Cd1 Cd 0.13322 0.15105 0.10959 0.0
O2 O 0.21215 0.08495 0.13514 0.0
Cd3 Cd 0.14458 0.0875 0.16291 0.0
O4 O 0.09957 0.07654 0.22055 0.0
C5 C 0.11273 0.0503 0.24828 0.0
O6 O 0.14967 0.03112 0.23935 0.0
C7 C 0.23328 0.11245 0.1097 0.0
C8 C 0.0988 0.23129 0.09052 0.0
O9 O 0.1132 0.22546 0.12978 0.0
O10 O 0.10155 0.19979 0.05983 0.0
O11 O 0.4745 0.9561 0.72637 0.0
Cd12 Cd 0.44691 0.93563 0.65085 0.0
O13 O 0.40622 0.94315 0.75455 0.0
Cd14 Cd 0.37251 0.93307 0.69003 0.0
O15 O 0.32036 0.93872 0.64141 0.0
C16 C 0.28429 0.95118 0.65882 0.0
O17 O 0.28166 0.95935 0.70264 0.0
C18 C 0.44789 0.95357 0.76016 0.0
C19 C 0.46467 0.84802 0.62709 0.0
O20 O 0.48857 0.88113 0.61092 0.0
O21 O 0.43214 0.85648 0.65381 0.0
O22 O 0.67925 0.50996 0.96561 0.0
Cd23 Cd 0.59913 0.50361 0.94896 0.0
O24 O 0.67929 0.44138 0.93697 0.0
Cd25 Cd 0.7055 0.37693 0.92307 0.0
O26 O 0.68807 0.30944 0.94405 0.0
C27 C 0.65216 0.30557 0.9675 0.0
O28 O 0.63023 0.34088 0.97648 0.0
C29 C 0.70036 0.47589 0.95601 0.0
C30 C 0.5797 0.51025 0.85861 0.0
O31 O 0.58193 0.54487 0.88612 0.0
O32 O 0.58717 0.47259 0.87339 0.0
O33 O 0.91732 0.6676 0.433 0.0
Cd34 Cd 0.899 0.58721 0.41874 0.0
O35 O 0.94993 0.66223 0.4979 0.0
Cd36 Cd 0.92284 0.59271 0.49982 0.0
O37 O 0.8532 0.56665 0.5079 0.0
C38 C 0.82778 0.5979 0.5145 0.0
O39 O 0.84531 0.63968 0.51634 0.0
C40 C 0.93877 0.68584 0.46676 0.0
C41 C 0.92151 0.56477 0.32986 0.0
O42 O 0.95018 0.56452 0.36111 0.0
O43 O 0.88189 0.57448 0.34069 0.0
O44 O 0.90734 0.88922 0.85319 0.0
Cd45 Cd 0.88772 0.87094 0.93082 0.0
O46 O 0.93761 0.95694 0.87403 0.0
Cd47 Cd 0.91021 0.95205 0.9422 0.0
O48 O 0.85156 0.95753 0.98608 0.0
C49 C 0.81661 0.96381 0.96493 0.0
O50 O 0.81899 0.96609 0.92098 0.0
C51 C 0.92838 0.92625 0.8434 0.0
C52 C 0.92532 0.79564 0.95705 0.0
O53 O 0.94732 0.83436 0.96087 0.0
O54 O 0.88585 0.79235 0.94082 0.0
O55 O 0.59879 0.06735 0.4001 0.0
Cd56 Cd 0.62497 0.09329 0.47522 0.0
O57 O 0.60455 0.13656 0.37849 0.0
Cd58 Cd 0.61865 0.17089 0.4438 0.0
O59 O 0.60519 0.23403 0.47855 0.0
C60 C 0.56486 0.2434 0.47768 0.0
O61 O 0.53418 0.21367 0.45997 0.0
C62 C 0.59625 0.09477 0.36962 0.0
C63 C 0.71009 0.06798 0.4902 0.0
O64 O 0.70497 0.10336 0.46974 0.0
O65 O 0.67498 0.04445 0.50367 0.0
O66 O 0.45803 0.70127 0.14595 0.0
Cd67 Cd 0.43221 0.62472 0.16508 0.0
O68 O 0.39655 0.73006 0.17071 0.0
Cd69 Cd 0.36139 0.66537 0.18332 0.0
O70 O 0.30991 0.61348 0.16065 0.0
C71 C 0.29996 0.61359 0.1194 0.0
O72 O 0.32003 0.64572 0.09611 0.0
C73 C 0.43561 0.73481 0.15339 0.0
C74 C 0.45606 0.60388 0.25079 0.0
O75 O 0.48253 0.59842 0.21696 0.0
O76 O 0.41864 0.61951 0.24438 0.0
O77 O 0.09144 0.46619 0.68837 0.0
Cd78 Cd 0.11553 0.43783 0.6139 0.0
O79 O 0.12471 0.41642 0.72369 0.0
Cd80 Cd 0.13926 0.37614 0.66342 0.0
O81 O 0.12418 0.31054 0.63015 0.0
C82 C 0.08318 0.29846 0.6226 0.0
O83 O 0.05308 0.32669 0.63202 0.0
C84 C 0.10247 0.45024 0.72466 0.0
C85 C 0.20486 0.46633 0.59661 0.0
O86 O 0.17373 0.48938 0.585 0.0
O87 O 0.19394 0.42989 0.61588 0.0
O88 O -0.00304 0.09184 0.5927 0.0
Zn89 Zn 0.9683 0.02864 0.58371 0.0
O90 O 0.0044 0.99355 0.54195 0.0
Zn91 Zn 0.96948 0.97271 0.48849 0.0
Zn92 Zn 0.05828 0.02991 0.52302 0.0
Zn93 Zn 0.0223 0.94285 0.57276 0.0
O94 O 0.96229 0.9053 0.48256 0.0
O95 O 0.00278 0.88519 0.53853 0.0
O96 O 0.90701 0.03223 0.55892 0.0
O97 O 0.90836 -0.00427 0.49164 0.0
O98 O 0.00026 0.99356 0.43149 0.0
O99 O 0.06389 0.03042 0.4558 0.0
O100 O 0.11419 0.00877 0.5473 0.0
O101 O 0.96053 0.00202 0.64443 0.0
O102 O 0.08865 0.94743 0.58135 0.0
O103 O -0.00443 0.94021 0.63513 0.0
C104 C 0.03104 0.11263 0.5746 0.0
C105 C 0.97835 0.87545 0.50423 0.0
C106 C 0.03792 0.01538 0.42399 0.0
C107 C 0.88832 0.01848 0.52194 0.0
C108 C 0.12066 0.97565 0.57015 0.0
C109 C 0.97286 0.96642 0.65928 0.0
O110 O 0.05655 0.09335 0.54663 0.0
O111 O 0.53836 0.12039 0.01444 0.0
Zn112 Zn 0.4995 0.06324 0.02305 0.0
O113 O 0.5277 0.02588 0.0634 0.0
Zn114 Zn 0.54358 0.97118 0.03021 0.0
Zn115 Zn 0.58248 0.05837 0.08772 0.0
Zn116 Zn 0.4856 0.0108 0.11246 0.0
O117 O 0.51867 0.91663 0.06168 0.0
O118 O 0.47395 0.9439 0.11514 0.0
O119 O 0.49083 0.03172 0.96206 0.0
O120 O 0.51993 0.96699 0.96716 0.0
O121 O 0.61041 0.97019 0.02352 0.0
O122 O 0.63723 0.02895 0.06709 0.0
O123 O 0.58064 0.06308 0.15536 0.0
O124 O 0.43865 0.07829 0.04606 0.0
O125 O 0.51226 0.03239 0.17229 0.0
O126 O 0.42699 0.03844 0.1065 0.0
C127 C 0.5737 0.13855 0.03351 0.0
C128 C 0.49073 0.91113 0.09415 0.0
C129 C 0.64315 0.99515 0.04061 0.0
C130 C 0.50036 0.99396 0.94485 0.0
C131 C 0.55027 0.05155 0.18404 0.0
C132 C 0.4139 0.06503 0.07885 0.0
O133 O 0.59288 0.11966 0.06385 0.0
O134 O 0.55583 0.56176 0.65416 0.0
Zn135 Zn 0.55372 0.58496 0.59243 0.0
O136 O 0.5146 0.54477 0.55268 0.0
Zn137 Zn 0.54892 0.52136 0.5013 0.0
Zn138 Zn 0.48737 0.4952 0.58712 0.0
Zn139 Zn 0.46815 0.57792 0.52947 0.0
O140 O 0.52711 0.53894 0.44158 0.0
O141 O 0.47084 0.57903 0.46209 0.0
O142 O 0.61726 0.58911 0.56866 0.0
O143 O 0.61379 0.54375 0.50647 0.0
O144 O 0.54598 0.45439 0.50018 0.0
O145 O 0.50459 0.43598 0.5604 0.0
O146 O 0.42015 0.49304 0.58659 0.0
O147 O 0.53196 0.64667 0.6001 0.0
O148 O 0.4069 0.55072 0.54695 0.0
O149 O 0.4743 0.64161 0.55388 0.0
C150 C 0.53554 0.52854 0.67292 0.0
C151 C 0.49586 0.56227 0.43186 0.0
C152 C 0.52794 0.42527 0.52592 0.0
C153 C 0.63587 0.57022 0.53471 0.0
C154 C 0.39328 0.51727 0.56943 0.0
C155 C 0.50024 0.66408 0.582 0.0
O156 O 0.50758 0.50066 0.65184 0.0
O157 O 0.96002 0.49548 0.12215 0.0
Zn158 Zn 0.96735 0.47136 0.05805 0.0
O159 O 0.00881 0.51325 0.02505 0.0
Zn160 Zn 0.97925 0.53163 0.97254 0.0
Zn161 Zn 0.02814 0.56665 0.06387 0.0
Zn162 Zn 0.06096 0.48364 0.00393 0.0
O163 O 0.00988 0.51465 0.91462 0.0
O164 O 0.06746 0.48047 0.93641 0.0
O165 O 0.90452 0.46716 0.03186 0.0
O166 O 0.91565 0.50534 0.97038 0.0
O167 O 0.97646 0.59801 0.97516 0.0
O168 O 0.00886 0.62322 0.03954 0.0
O169 O 0.09525 0.57299 0.07172 0.0
O170 O 0.99241 0.41048 0.06143 0.0
O171 O 0.11728 0.51524 0.02945 0.0
O172 O 0.05793 0.42179 0.02539 0.0
C173 C 0.97472 0.53154 0.14385 0.0
C174 C 0.0446 0.49453 0.90566 0.0
C175 C 0.98877 0.62984 0.00363 0.0
C176 C 0.88974 0.48269 -0.00331 0.0
C177 C 0.12583 0.54965 0.05594 0.0
C178 C 0.02971 0.39708 0.04753 0.0
O179 O 0.0006 0.56159 0.12564 0.0
C180 C 0.07302 -0.00244 0.30096 0.0
C181 C 0.08807 0.04214 0.29108 0.0
C182 C 0.06073 0.06917 0.365 0.0
C183 C 0.05199 0.02426 0.37718 0.0
N184 N 0.05461 0.9452 0.35873 0.0
N185 N 0.10169 0.1203 0.31578 0.0
C186 C 0.05902 0.98821 0.34559 0.0
C187 C 0.08302 0.07808 0.32346 0.0
N188 N 0.07118 0.96431 0.26739 0.0
N189 N 0.04684 0.10328 0.39272 0.0
H190 H 0.11887 0.12839 0.28614 0.0
H191 H 0.10351 0.1466 0.34035 0.0
H192 H 0.02987 0.09795 0.42318 0.0
H193 H 0.04818 0.13625 0.38353 0.0
H194 H 0.05632 0.93201 0.2715 0.0
H195 H 0.0805 0.97015 0.23413 0.0
H196 H 0.06428 0.91814 0.33855 0.0
H197 H 0.04483 0.93682 0.39121 0.0
C198 C 0.45443 0.93002 0.83877 0.0
C199 C 0.46492 0.96245 0.80649 0.0
C200 C 0.50589 0.01134 0.86362 0.0
C201 C 0.4896 0.98196 0.89709 0.0
N202 N 0.44228 0.91641 0.91756 0.0
N203 N 0.49448 0.03746 0.78992 0.0
C204 C 0.46237 0.94195 0.88499 0.0
C205 C 0.48922 0.00403 0.81924 0.0
N206 N 0.43816 0.88738 0.82513 0.0
N207 N 0.53833 0.04542 0.87381 0.0
H208 H 0.48188 0.0341 0.75739 0.0
H209 H 0.50764 0.06997 0.79931 0.0
H210 H 0.55243 0.0511 0.90563 0.0
H211 H 0.55454 0.06506 0.8496 0.0
H212 H 0.43411 0.86128 0.84675 0.0
H213 H 0.43318 0.87695 0.79137 0.0
H214 H 0.41832 0.88954 0.91058 0.0
H215 H 0.44623 0.92447 0.95191 0.0
C216 C 0.52427 0.52366 0.80025 0.0
C217 C 0.56792 0.51358 0.81093 0.0
C218 C 0.58791 0.50746 0.73058 0.0
C219 C 0.54582 0.52176 0.72027 0.0
N220 N 0.47575 0.54878 0.74477 0.0
N221 N 0.64341 0.50149 0.78742 0.0
C222 C 0.51438 0.53118 0.75496 0.0
C223 C 0.60032 0.50679 0.77638 0.0
N224 N 0.49181 0.52448 0.83318 0.0
N225 N 0.61548 0.49333 0.69652 0.0
H226 H 0.65376 0.50075 0.82059 0.0
H227 H 0.66975 0.50143 0.76409 0.0
H228 H 0.60745 0.49337 0.66258 0.0
H229 H 0.64445 0.47807 0.70178 0.0
H230 H 0.45817 0.52676 0.82678 0.0
H231 H 0.49774 0.51908 0.86673 0.0
H232 H 0.4539 0.56124 0.76898 0.0
H233 H 0.46703 0.55405 0.71191 0.0
C234 C 0.95265 0.51509 0.26842 0.0
C235 C 0.93438 0.55566 0.2821 0.0
C236 C 0.93751 0.5774 0.20404 0.0
C237 C 0.96041 0.53937 0.19131 0.0
N238 N -0.00296 0.47606 0.21274 0.0
N239 N 0.918 0.62972 0.26454 0.0
C240 C 0.96996 0.50922 0.22385 0.0
C241 C 0.92906 0.58802 0.25036 0.0
N242 N 0.95196 0.48147 0.29738 0.0
N243 N 0.92237 0.60252 0.17185 0.0
H244 H 0.91283 0.63953 0.29831 0.0
H245 H 0.91841 0.65602 0.24328 0.0
H246 H 0.92698 0.59534 0.13742 0.0
H247 H 0.9014 0.62776 0.17909 0.0
H248 H 0.96054 0.4495 0.28767 0.0
H249 H 0.93868 0.48408 0.33001 0.0
H250 H 0.00901 0.45617 0.23635 0.0
H251 H 0.01103 0.47107 0.18066 0.0
C252 C 0.31339 0.11671 0.13329 0.0
C253 C 0.28107 0.10702 0.099 0.0
C254 C 0.33594 0.07021 0.05112 0.0
C255 C 0.36866 0.08096 0.08494 0.0
N256 N 0.39171 0.12256 0.15376 0.0
N257 N 0.26326 0.08249 0.02237 0.0
C258 C 0.35828 0.10657 0.12481 0.0
C259 C 0.29305 0.08657 0.05684 0.0
N260 N 0.30089 0.13492 0.17434 0.0
N261 N 0.3449 0.04213 0.01482 0.0
H262 H 0.23117 0.09293 0.02583 0.0
H263 H 0.27148 0.07226 0.98942 0.0
H264 H 0.37551 0.02877 0.00969 0.0
H265 H 0.32092 0.02895 -0.00838 0.0
H266 H 0.32106 0.13744 0.20259 0.0
H267 H 0.2692 0.14556 0.18085 0.0
H268 H 0.38734 0.14521 0.18101 0.0
H269 H 0.42505 0.11631 0.14836 0.0
C270 C 0.22436 0.92344 0.603 0.0
C271 C 0.24615 0.95894 0.63052 0.0
C272 C 0.18649 0.00623 0.61696 0.0
C273 C 0.16577 0.97159 0.58764 0.0
N274 N 0.17001 0.90152 0.54461 0.0
N275 N 0.25472 0.0376 0.65346 0.0
C276 C 0.18636 0.9315 0.57806 0.0
C277 C 0.22932 0.00147 0.63423 0.0
N278 N 0.23831 0.88148 0.60255 0.0
N279 N 0.16428 0.04244 0.6307 0.0
H280 H 0.28679 0.03556 0.66555 0.0
H281 H 0.246 0.07027 0.65304 0.0
H282 H 0.13226 0.04701 0.6201 0.0
H283 H 0.17589 0.06595 0.65599 0.0
H284 H 0.22055 0.85331 0.58721 0.0
H285 H 0.26573 0.87397 0.62058 0.0
H286 H 0.18617 0.87379 0.53306 0.0
H287 H 0.14252 0.90671 0.52537 0.0
C288 C 0.76507 0.44093 0.98886 0.0
C289 C 0.7486 0.47681 0.96726 0.0
C290 C 0.82203 0.519 0.97542 0.0
C291 C 0.84063 0.48019 0.98872 0.0
N292 N 0.82965 0.40096 0.00043 0.0
N293 N 0.76589 0.54606 0.93034 0.0
C294 C 0.81213 0.44012 -0.00662 0.0
C295 C 0.77837 0.51473 0.95768 0.0
N296 N 0.73605 0.40888 0.00715 0.0
N297 N 0.84486 0.56046 0.98181 0.0
H298 H 0.73517 0.5431 0.91417 0.0
H299 H 0.78822 0.57219 0.91961 0.0
H300 H 0.87517 0.56606 -0.00131 0.0
H301 H 0.83075 0.58983 0.97575 0.0
H302 H 0.74657 0.38432 0.0266 0.0
H303 H 0.7014 0.40968 0.00693 0.0
H304 H 0.81023 0.37023 -7e-05 0.0
H305 H 0.86395 0.39839 0.00205 0.0
C306 C 0.75124 0.60239 0.48506 0.0
C307 C 0.77877 0.58815 0.5185 0.0
C308 C 0.71241 0.55858 0.56035 0.0
C309 C 0.68499 0.57685 0.52932 0.0
N310 N 0.67752 0.62092 0.46542 0.0
N311 N 0.78653 0.55826 0.59099 0.0
C312 C 0.70417 0.59998 0.49243 0.0
C313 C 0.75967 0.56757 0.55693 0.0
N314 N 0.77005 0.61688 0.44564 0.0
N315 N 0.69334 0.53135 0.5921 0.0
H316 H 0.82136 0.56396 0.58956 0.0
H317 H 0.77427 0.54815 0.62211 0.0
H318 H 0.65882 0.52392 0.59572 0.0
H319 H 0.71168 0.51308 0.6124 0.0
H320 H 0.75147 0.62334 0.41804 0.0
H321 H 0.80443 0.6187 0.4389 0.0
H322 H 0.68996 0.6424 0.441 0.0
H323 H 0.64285 0.61978 0.4698 0.0
C324 C 0.03632 0.27222 0.06202 0.0
C325 C 0.07967 0.27356 0.08089 0.0
C326 C 0.08427 0.35556 0.08656 0.0
C327 C 0.0441 0.35425 0.06192 0.0
N328 N 0.98427 0.31118 0.02131 0.0
N329 N 0.14842 0.31706 0.1033 0.0
C330 C 0.02058 0.31252 0.04844 0.0
C331 C 0.10456 0.3154 0.09123 0.0
N332 N 0.00939 0.23283 0.05874 0.0
N333 N 0.10246 0.39511 0.1067 0.0
H334 H 0.16529 0.28859 0.10549 0.0
H335 H 0.16939 0.34677 0.10653 0.0
H336 H 0.0879 0.42511 0.10529 0.0
H337 H 0.12918 0.39725 0.12876 0.0
H338 H 0.97592 0.23071 0.04955 0.0
H339 H 0.01906 0.20289 0.06944 0.0
H340 H 0.96887 0.28162 0.00621 0.0
H341 H 0.97164 0.33994 0.01098 0.0
C342 C 0.62452 0.22438 0.95417 0.0
C343 C 0.63467 0.26202 0.98463 0.0
C344 C 0.60211 0.21949 0.04703 0.0
C345 C 0.59524 0.18096 0.01715 0.0
N346 N 0.60992 0.14384 0.94476 0.0
N347 N 0.64229 0.29267 0.06129 0.0
C348 C 0.60937 0.18252 0.9714 0.0
C349 C 0.6261 0.25881 0.03149 0.0
N350 N 0.62724 0.22892 0.90874 0.0
N351 N 0.5843 0.21911 0.08969 0.0
H352 H 0.6611 0.3215 0.05128 0.0
H353 H 0.64097 0.29024 0.09607 0.0
H354 H 0.56613 0.19104 0.10218 0.0
H355 H 0.58411 0.24769 0.11131 0.0
H356 H 0.61546 0.20366 0.88519 0.0
H357 H 0.63729 0.25917 0.8945 0.0
H358 H 0.62429 0.14265 0.91258 0.0
H359 H 0.6002 0.11227 0.95634 0.0
C360 C -0.00634 0.75425 0.47015 0.0
C361 C 0.94859 0.73501 0.47126 0.0
C362 C 0.92277 0.80833 0.49267 0.0
C363 C 0.96765 0.8278 0.49002 0.0
N364 N 0.04458 0.82193 0.46754 0.0
N365 N 0.8694 0.74443 0.47483 0.0
C366 C 0.00281 0.80149 0.47626 0.0
C367 C 0.91285 0.76234 0.47941 0.0
N368 N 0.02769 0.72733 0.46355 0.0
N369 N 0.89 0.83306 0.51053 0.0
H370 H 0.86019 0.71056 0.46732 0.0
H371 H 0.8424 0.76372 0.47497 0.0
H372 H 0.89577 0.8668 0.52112 0.0
H373 H 0.8578 0.81938 0.5185 0.0
H374 H 0.06132 0.73856 0.46798 0.0
H375 H 0.02221 0.69295 0.45579 0.0
H376 H 0.07065 0.80524 0.45315 0.0
H377 H 0.05223 0.85656 0.47101 0.0
C378 C 0.5191 0.7893 0.61388 0.0
C379 C 0.4743 0.80107 0.6154 0.0
C380 C 0.44738 0.72187 0.60365 0.0
C381 C 0.4919 0.71113 0.5948 0.0
N382 N 0.5695 0.7378 0.58133 0.0
N383 N 0.3963 0.77847 0.59934 0.0
C384 C 0.5277 0.74571 0.597 0.0
C385 C 0.43849 0.76736 0.60673 0.0
N386 N 0.5533 0.81864 0.63046 0.0
N387 N 0.41373 0.68898 0.61099 0.0
H388 H 0.38867 0.81142 0.59789 0.0
H389 H 0.37018 0.75482 0.58912 0.0
H390 H 0.41912 0.65535 0.61224 0.0
H391 H 0.38157 0.69588 0.62131 0.0
H392 H 0.58576 0.80977 0.63357 0.0
H393 H 0.54839 0.84981 0.64605 0.0
H394 H 0.59544 0.76324 0.57856 0.0
H395 H 0.57695 0.70708 0.5664 0.0
C396 C 0.98534 0.94167 0.78202 0.0
C397 C 0.9398 0.93494 0.79588 0.0
C398 C 0.91605 0.9448 0.71903 0.0
C399 C 0.96142 0.9556 0.70625 0.0
N400 N 0.03899 0.97125 0.72673 0.0
N401 N 0.86153 0.93726 0.77997 0.0
C402 C -0.00393 0.95582 0.73804 0.0
C403 C 0.90501 0.93832 0.76501 0.0
N404 N 0.01827 0.93318 0.81046 0.0
N405 N 0.88366 0.93929 0.68699 0.0
H406 H 0.85195 0.93274 0.8134 0.0
H407 H 0.83535 0.94465 0.76017 0.0
H408 H 0.89043 0.9438 0.65295 0.0
H409 H 0.85078 0.92654 0.69343 0.0
H410 H 0.05175 0.93276 0.80068 0.0
H411 H 0.0116 0.92267 0.84289 0.0
H412 H 0.06478 0.97687 0.74986 0.0
H413 H 0.04819 0.98218 0.69495 0.0
C414 C 0.60844 0.05155 0.29608 0.0
C415 C 0.5818 0.07897 0.32371 0.0
C416 C 0.53459 0.08882 0.25959 0.0
C417 C 0.55989 0.0597 0.23249 0.0
N418 N 0.61388 0.00509 0.22705 0.0
N419 N 0.51359 0.11477 0.33503 0.0
C420 C 0.59475 0.03854 0.25138 0.0
C421 C 0.54301 0.09488 0.30642 0.0
N422 N 0.64788 0.03972 0.31168 0.0
N423 N 0.50397 0.11229 0.24031 0.0
H424 H 0.51825 0.119 0.36974 0.0
H425 H 0.4825 0.123 0.32512 0.0
H426 H 0.49705 0.10914 0.20601 0.0
H427 H 0.48819 0.13773 0.25756 0.0
H428 H 0.67116 0.0242 0.29129 0.0
H429 H 0.65913 0.0485 0.34423 0.0
H430 H 0.63612 0.98526 0.24068 0.0
H431 H 0.60433 0.99424 0.19438 0.0
C432 C 0.44092 0.55707 0.31728 0.0
C433 C 0.46792 0.59147 0.29618 0.0
C434 C 0.51755 0.60113 0.36132 0.0
C435 C 0.48785 0.57017 0.38421 0.0
N436 N 0.41963 0.52071 0.38611 0.0
N437 N 0.52868 0.65026 0.29954 0.0
C438 C 0.44902 0.54875 0.36278 0.0
C439 C 0.50567 0.61432 0.31838 0.0
N440 N 0.40879 0.53105 0.29312 0.0
N441 N 0.55701 0.61808 0.38074 0.0
H442 H 0.52076 0.66126 0.2684 0.0
H443 H 0.55329 0.67151 0.31618 0.0
H444 H 0.56593 0.61096 0.41301 0.0
H445 H 0.58241 0.63667 0.36378 0.0
H446 H 0.3912 0.50242 0.3049 0.0
H447 H 0.40229 0.53569 0.25953 0.0
H448 H 0.388 0.50857 0.37456 0.0
H449 H 0.42578 0.5114 0.41843 0.0
C450 C 0.04142 0.45373 0.78231 0.0
C451 C 0.08585 0.46772 0.76856 0.0
C452 C 0.10063 0.50546 0.84277 0.0
C453 C 0.05823 0.48659 0.85811 0.0
N454 N 0.99033 0.43797 0.84465 0.0
N455 N 0.15908 0.50449 0.78518 0.0
C456 C 0.02888 0.45985 0.82836 0.0
C457 C 0.11585 0.49305 0.79864 0.0
N458 N 0.01132 0.43418 0.75144 0.0
N459 N 0.12558 0.53636 0.86987 0.0
H460 H 0.17057 0.49813 0.75228 0.0
H461 H 0.18413 0.51812 0.80704 0.0
H462 H 0.11518 0.54668 0.9022 0.0
H463 H 0.15467 0.55464 0.85909 0.0
H464 H 0.97721 0.42789 0.75838 0.0
H465 H 0.01962 0.42753 0.71765 0.0
H466 H 0.97017 0.41397 0.8257 0.0
H467 H 0.98026 0.44067 0.87838 0.0
C468 C 0.75815 0.01518 0.9856 0.0
C469 C 0.77463 0.97299 0.9892 0.0
C470 C 0.70797 0.94806 0.03354 0.0
C471 C 0.68914 0.98808 0.02479 0.0
N472 N 0.6932 0.05686 0.9862 0.0
N473 N 0.76415 0.89733 0.0128 0.0
C474 C 0.71348 0.02106 -0.00063 0.0
C475 C 0.74945 0.93893 0.0125 0.0
N476 N 0.78563 0.05005 0.97 0.0
N477 N 0.68666 0.91936 0.06271 0.0
H478 H 0.79453 0.88955 -0.00184 0.0
H479 H 0.74492 0.86969 0.02473 0.0
H480 H 0.65627 0.92515 0.07863 0.0
H481 H 0.70078 0.89192 0.07407 0.0
H482 H 0.77698 0.08281 0.97105 0.0
H483 H 0.81888 0.04718 0.96024 0.0
H484 H 0.70771 0.07908 0.96336 0.0
H485 H 0.66018 0.06225 -0.00537 0.0
C486 C 0.76614 0.01056 0.48705 0.0
C487 C 0.75558 0.05495 0.49846 0.0
C488 C 0.83364 0.07634 0.5192 0.0
C489 C 0.84268 0.03084 0.51343 0.0
N490 N 0.81447 0.95312 0.50079 0.0
N491 N 0.77729 0.12738 0.53565 0.0
C492 C 0.80807 -0.00256 0.49985 0.0
C493 C 0.78876 0.08714 0.51743 0.0
N494 N 0.73717 0.98143 0.46223 0.0
N495 N 0.86795 0.10956 0.52446 0.0
H496 H 0.74446 0.136 0.53711 0.0
H497 H 0.79958 0.15009 0.55379 0.0
H498 H 0.90157 0.10345 0.52394 0.0
H499 H 0.86327 0.14344 0.52434 0.0
H500 H 0.74535 0.95022 0.44929 0.0
H501 H 0.70694 0.99014 0.45043 0.0
H502 H 0.78876 0.92753 0.49557 0.0
H503 H 0.84414 0.94196 0.51133 0.0
C504 C 0.25052 0.58649 0.0539 0.0
C505 C 0.26055 0.58468 0.10008 0.0
C506 C 0.18428 0.55133 0.11486 0.0
C507 C 0.17241 0.5608 0.07076 0.0
N508 N 0.19337 0.58755 -0.00223 0.0
N509 N 0.24444 0.542 0.16542 0.0
C510 C 0.20543 0.57779 0.03984 0.0
C511 C 0.22962 0.56029 0.12827 0.0
N512 N 0.28463 0.59301 0.02316 0.0
N513 N 0.15217 0.53427 0.14408 0.0
H514 H 0.2784 0.54166 0.17184 0.0
H515 H 0.22415 0.52128 0.18578 0.0
H516 H 0.11912 0.52476 0.1348 0.0
H517 H 0.15756 0.53202 0.17828 0.0
H518 H 0.28 0.59123 0.9885 0.0
H519 H 0.31815 0.59393 0.0321 0.0
H520 H 0.21498 0.60485 0.97562 0.0
H521 H 0.16066 0.5814 0.98614 0.0
C522 C 0.27333 0.51912 0.61262 0.0
C523 C 0.25251 0.48109 0.58783 0.0
C524 C 0.3232 0.46996 0.54771 0.0
C525 C 0.3447 0.50563 0.57507 0.0
N526 N 0.34266 0.56215 0.63587 0.0
N527 N 0.25699 0.41832 0.53387 0.0
C528 C 0.32036 0.52994 0.60796 0.0
C529 C 0.27731 0.4559 0.55597 0.0
N530 N 0.24811 0.54473 0.64072 0.0
N531 N 0.34643 0.45059 0.51286 0.0
H532 H 0.22274 0.40869 0.53647 0.0
H533 H 0.27422 0.3953 0.51462 0.0
H534 H 0.38023 0.45978 0.50613 0.0
H535 H 0.33176 0.4278 0.48851 0.0
H536 H 0.26 0.57564 0.65577 0.0
H537 H 0.21415 0.5364 0.64724 0.0
H538 H 0.3281 0.57784 0.66382 0.0
H539 H 0.37696 0.57142 0.63287 0.0
C540 C 0.92482 0.73318 0.00895 0.0
C541 C 0.94459 0.75552 0.97177 0.0
C542 C -0.0006 0.70007 0.96218 0.0
C543 C 0.97624 0.67502 -0.00425 0.0
N544 N 0.9144 0.66467 0.0484 0.0
N545 N -0.00203 0.75879 0.91001 0.0
C546 C 0.93844 0.69089 0.01869 0.0
C547 C 0.98148 0.73884 0.94779 0.0
N548 N 0.8939 0.75307 0.03571 0.0
N549 N 0.03887 0.68701 0.9446 0.0
H550 H 0.98586 0.78731 0.8985 0.0
H551 H 0.02137 0.74536 0.88813 0.0
H552 H 0.05265 0.65861 0.95436 0.0
H553 H 0.05983 0.70612 0.92335 0.0
H554 H 0.88172 0.74081 0.06603 0.0
H555 H 0.88326 0.78414 0.02969 0.0
H556 H 0.88346 0.67181 0.062 0.0
H557 H 0.92382 0.63392 0.05723 0.0
C558 C 0.47297 0.81232 0.16853 0.0
C559 C 0.45286 0.77892 0.13768 0.0
C560 C 0.45583 0.83266 0.07876 0.0
C561 C 0.47833 0.8654 0.1088 0.0
N562 N 0.51614 0.88455 0.17916 0.0
N563 N 0.4312 0.75432 0.06188 0.0
C564 C 0.48905 0.85477 0.15291 0.0
C565 C 0.44634 0.78816 0.09222 0.0
N566 N 0.47605 0.80364 0.21286 0.0
N567 N 0.44147 0.84464 0.03829 0.0
H568 H 0.42238 0.72156 0.07074 0.0
H569 H 0.43057 0.75779 0.02731 0.0
H570 H 0.44725 0.87704 0.02741 0.0
H571 H 0.42056 0.82361 0.01704 0.0
H572 H 0.48546 0.82811 0.23805 0.0
H573 H 0.46639 0.77228 0.22503 0.0
H574 H 0.52897 0.877 0.2097 0.0
H575 H 0.52918 0.91572 0.16867 0.0
C576 C 0.04952 0.23859 0.56784 0.0
C577 C 0.06873 0.25106 0.61044 0.0
C578 C 0.06418 0.17252 0.62892 0.0
C579 C 0.04253 0.1603 0.58753 0.0
N580 N 0.00834 0.18087 0.52028 0.0
N581 N 0.08626 0.23169 0.68518 0.0
C582 C 0.03335 0.19313 0.5577 0.0
C583 C 0.07387 0.21852 0.64204 0.0
N584 N 0.04823 0.26992 0.53661 0.0
N585 N 0.07676 0.14013 0.65501 0.0
H586 H 0.09321 0.26516 0.69638 0.0
H587 H 0.08577 0.20982 0.71102 0.0
H588 H 0.06946 0.10596 0.64698 0.0
H589 H 0.0974 0.14694 0.68278 0.0
H590 H 0.03912 0.26218 0.50328 0.0
H591 H 0.05949 0.30358 0.5431 0.0
H592 H -0.00353 0.20365 0.49962 0.0
H593 H -0.0036 0.14774 0.51166 0.0
C594 C 0.56248 0.30768 0.5354 0.0
C595 C 0.55362 0.28922 0.49111 0.0
C596 C 0.52086 0.35729 0.47301 0.0
C597 C 0.53469 0.37772 0.51526 0.0
N598 N 0.57505 0.37501 0.58427 0.0
N599 N 0.53259 0.29983 0.41477 0.0
C600 C 0.55708 0.35361 0.546 0.0
C601 C 0.53485 0.31483 0.45908 0.0
N602 N 0.5748 0.28106 0.56767 0.0
N603 N 0.49336 0.37793 0.44665 0.0
H604 H 0.544 0.26967 0.40254 0.0
H605 H 0.52365 0.31938 0.38934 0.0
H606 H 0.48175 0.40881 0.45608 0.0
H607 H 0.47849 0.36245 0.41768 0.0
H608 H 0.57712 0.29151 0.60164 0.0
H609 H 0.57868 0.24715 0.56124 0.0
H610 H 0.59595 0.36036 0.60531 0.0
H611 H 0.57242 0.40877 0.59307 0.0
loop_
_geom_bond_atom_site_label_1
_geom_bond_atom_site_label_2
_geom_bond_distance
_geom_bond_site_symmetry_2
_ccdc_geom_bond_type
O0 Cd1 2.300 . S
O0 C7 1.275 . S
Cd1 O0 2.300 . S
Cd1 O9 2.381 . S
Cd1 O10 2.378 . S
O2 Cd3 2.385 . S
O2 C7 1.255 . S
Cd3 O2 2.385 . S
Cd3 O4 2.317 . S
O4 Cd3 2.317 . S
O4 C5 1.232 . S
C5 O4 1.232 . S
C5 O6 1.218 . S
O6 C5 1.218 . S
C7 O0 1.275 . S
C7 O2 1.255 . S
C8 O9 1.258 . S
C8 O10 1.256 . S
O9 Cd1 2.381 . S
O9 C8 1.258 . S
O10 Cd1 2.378 . S
O10 C8 1.256 . S
O11 Cd12 2.300 . S
O11 C18 1.275 . S
Cd12 O11 2.300 . S
Cd12 O20 2.381 . S
Cd12 O21 2.378 . S
O13 Cd14 2.385 . S
O13 C18 1.255 . S
Cd14 O13 2.385 . S
Cd14 O15 2.317 . S
O15 Cd14 2.317 . S
O15 C16 1.232 . S
C16 O15 1.232 . S
C16 O17 1.218 . S
O17 C16 1.218 . S
C18 O11 1.275 . S
C18 O13 1.255 . S
C19 O20 1.258 . S
C19 O21 1.256 . S
O20 Cd12 2.381 . S
O20 C19 1.258 . S
O21 Cd12 2.378 . S
O21 C19 1.256 . S
O22 Cd23 2.300 . S
O22 C29 1.275 . S
Cd23 O22 2.300 . S
Cd23 O31 2.381 . S
Cd23 O32 2.378 . S
O24 Cd25 2.385 . S
O24 C29 1.255 . S
Cd25 O24 2.385 . S
Cd25 O26 2.317 . S
O26 Cd25 2.317 . S
O26 C27 1.232 . S
C27 O26 1.232 . S
C27 O28 1.218 1_556 S
O28 C27 1.218 1_554 S
C29 O22 1.275 . S
C29 O24 1.255 . S
C30 O31 1.258 . S
C30 O32 1.256 . S
O31 Cd23 2.381 . S
O31 C30 1.258 . S
O32 Cd23 2.378 . S
O32 C30 1.256 . S
O33 Cd34 2.300 . S
O33 C40 1.275 . S
Cd34 O33 2.300 . S
Cd34 O42 2.381 . S
Cd34 O43 2.378 . S
O35 Cd36 2.385 . S
O35 C40 1.255 . S
Cd36 O35 2.385 . S
Cd36 O37 2.317 . S
O37 Cd36 2.317 . S
O37 C38 1.232 . S
C38 O37 1.232 . S
C38 O39 1.218 . S
O39 C38 1.218 . S
C40 O33 1.275 . S
C40 O35 1.255 . S
C41 O42 1.258 . S
C41 O43 1.256 . S
O42 Cd34 2.381 . S
O42 C41 1.258 . S
O43 Cd34 2.378 . S
O43 C41 1.256 . S
O44 Cd45 2.300 . S
O44 C51 1.275 . S
Cd45 O44 2.300 . S
Cd45 O53 2.381 . S
Cd45 O54 2.378 1_556 S
O46 Cd47 2.385 1_556 S
O46 C51 1.255 1_545 S
Cd47 O46 2.385 1_554 S
Cd47 O48 2.317 . S
O48 Cd47 2.317 . S
O48 C49 1.232 . S
C49 O48 1.232 . S
C49 O50 1.218 1_554 S
O50 C49 1.218 1_556 S
C51 O44 1.275 . S
C51 O46 1.255 1_565 S
C52 O53 1.258 . S
C52 O54 1.256 1_556 S
O53 Cd45 2.381 . S
O53 C52 1.258 . S
O54 Cd45 2.378 1_554 S
O54 C52 1.256 1_554 S
O55 Cd56 2.300 . S
O55 C62 1.275 . S
Cd56 O55 2.300 . S
Cd56 O64 2.381 . S
Cd56 O65 2.378 . S
O57 Cd58 2.385 . S
O57 C62 1.255 . S
Cd58 O57 2.385 . S
Cd58 O59 2.317 . S
O59 Cd58 2.317 . S
O59 C60 1.232 . S
C60 O59 1.232 . S
C60 O61 1.218 . S
O61 C60 1.218 . S
C62 O55 1.275 . S
C62 O57 1.255 . S
C63 O64 1.258 . S
C63 O65 1.256 . S
O64 Cd56 2.381 . S
O64 C63 1.258 . S
O65 Cd56 2.378 . S
O65 C63 1.256 . S
O66 Cd67 2.300 . S
O66 C73 1.275 . S
Cd67 O66 2.300 . S
Cd67 O75 2.381 . S
Cd67 O76 2.378 . S
O68 Cd69 2.385 . S
O68 C73 1.255 . S
Cd69 O68 2.385 . S
Cd69 O70 2.317 . S
O70 Cd69 2.317 . S
O70 C71 1.232 . S
C71 O70 1.232 . S
C71 O72 1.218 . S
O72 C71 1.218 . S
C73 O66 1.275 . S
C73 O68 1.255 . S
C74 O75 1.258 . S
C74 O76 1.256 . S
O75 Cd67 2.381 . S
O75 C74 1.258 . S
O76 Cd67 2.378 . S
O76 C74 1.256 . S
O77 Cd78 2.300 . S
O77 C84 1.275 . S
Cd78 O77 2.300 . S
Cd78 O86 2.381 . S
Cd78 O87 2.378 . S
O79 Cd80 2.385 . S
O79 C84 1.255 . S
Cd80 O79 2.385 . S
Cd80 O81 2.317 . S
O81 Cd80 2.317 . S
O81 C82 1.232 . S
C82 O81 1.232 . S
C82 O83 1.218 . S
O83 C82 1.218 . S
C84 O77 1.275 . S
C84 O79 1.255 . S
C85 O86 1.258 . S
C85 O87 1.256 . S
O86 Cd78 2.381 . S
O86 C85 1.258 . S
O87 Cd78 2.378 . S
O87 C85 1.256 . S
O88 Zn89 1.953 . S
O88 C104 1.225 1_655 S
Zn89 O88 1.953 . S
Zn89 O90 1.949 1_655 S
Zn89 O96 1.919 . S
Zn89 O101 1.924 . S
O90 Zn89 1.949 1_455 S
O90 Zn91 1.923 1_445 S
O90 Zn92 1.950 . S
O90 Zn93 1.945 1_545 S
Zn91 O90 1.923 1_665 S
Zn91 O94 1.933 . S
Zn91 O97 1.941 1_565 S
Zn91 O98 1.965 1_665 S
Zn92 O90 1.950 . S
Zn92 O99 1.938 . S
Zn92 O100 1.906 . S
Zn92 O110 1.953 . S
Zn93 O90 1.945 1_565 S
Zn93 O95 1.932 1_455 S
Zn93 O102 1.977 . S
Zn93 O103 1.910 1_455 S
O94 Zn91 1.933 . S
O94 C105 1.226 . S
O95 Zn93 1.932 1_655 S
O95 C105 1.307 . S
O96 Zn89 1.919 . S
O96 C107 1.253 . S
O97 Zn91 1.941 1_545 S
O97 C107 1.283 . S
O98 Zn91 1.965 1_445 S
O98 C106 1.303 . S
O99 Zn92 1.938 . S
O99 C106 1.247 . S
O100 Zn92 1.906 . S
O100 C108 1.304 1_545 S
O101 Zn89 1.924 . S
O101 C109 1.311 . S
O102 Zn93 1.977 . S
O102 C108 1.272 . S
O103 Zn93 1.910 1_655 S
O103 C109 1.231 1_565 S
C104 O88 1.225 1_455 S
C104 O110 1.298 . S
C105 O94 1.226 . S
C105 O95 1.307 . S
C106 O98 1.303 . S
C106 O99 1.247 . S
C107 O96 1.253 . S
C107 O97 1.283 . S
C108 O100 1.304 1_565 S
C108 O102 1.272 . S
C109 O101 1.311 . S
C109 O103 1.231 1_545 S
O110 Zn92 1.953 . S
O110 C104 1.298 . S
O111 Zn112 1.953 . S
O111 C127 1.225 . S
Zn112 O111 1.953 . S
Zn112 O113 1.949 . S
Zn112 O119 1.919 1_554 S
Zn112 O124 1.924 . S
O113 Zn112 1.949 . S
O113 Zn114 1.923 1_545 S
O113 Zn115 1.950 . S
O113 Zn116 1.945 . S
Zn114 O113 1.923 1_565 S
Zn114 O117 1.933 . S
Zn114 O120 1.941 1_554 S
Zn114 O121 1.965 . S
Zn115 O113 1.950 . S
Zn115 O122 1.938 . S
Zn115 O123 1.906 . S
Zn115 O133 1.953 . S
Zn116 O113 1.945 . S
Zn116 O118 1.932 1_545 S
Zn116 O125 1.977 . S
Zn116 O126 1.910 . S
O117 Zn114 1.933 . S
O117 C128 1.226 . S
O118 Zn116 1.932 1_565 S
O118 C128 1.307 . S
O119 Zn112 1.919 1_556 S
O119 C130 1.253 1_545 S
O120 Zn114 1.941 1_556 S
O120 C130 1.283 . S
O121 Zn114 1.965 . S
O121 C129 1.303 1_565 S
O122 Zn115 1.938 . S
O122 C129 1.247 . S
O123 Zn115 1.906 . S
O123 C131 1.304 . S
O124 Zn112 1.924 . S
O124 C132 1.311 . S
O125 Zn116 1.977 . S
O125 C131 1.272 . S
O126 Zn116 1.910 . S
O126 C132 1.231 . S
C127 O111 1.225 . S
C127 O133 1.298 . S
C128 O117 1.226 . S
C128 O118 1.307 . S
C129 O121 1.303 1_545 S
C129 O122 1.247 . S
C130 O119 1.253 1_565 S
C130 O120 1.283 . S
C131 O123 1.304 . S
C131 O125 1.272 . S
C132 O124 1.311 . S
C132 O126 1.231 . S
O133 Zn115 1.953 . S
O133 C127 1.298 . S
O134 Zn135 1.953 . S
O134 C150 1.225 . S
Zn135 O134 1.953 . S
Zn135 O136 1.949 . S
Zn135 O142 1.919 . S
Zn135 O147 1.924 . S
O136 Zn135 1.949 . S
O136 Zn137 1.923 . S
O136 Zn138 1.950 . S
O136 Zn139 1.945 . S
Zn137 O136 1.923 . S
Zn137 O140 1.933 . S
Zn137 O143 1.941 . S
Zn137 O144 1.965 . S
Zn138 O136 1.950 . S
Zn138 O145 1.938 . S
Zn138 O146 1.906 . S
Zn138 O156 1.953 . S
Zn139 O136 1.945 . S
Zn139 O141 1.932 . S
Zn139 O148 1.977 . S
Zn139 O149 1.910 . S
O140 Zn137 1.933 . S
O140 C151 1.226 . S
O141 Zn139 1.932 . S
O141 C151 1.307 . S
O142 Zn135 1.919 . S
O142 C153 1.253 . S
O143 Zn137 1.941 . S
O143 C153 1.283 . S
O144 Zn137 1.965 . S
O144 C152 1.303 . S
O145 Zn138 1.938 . S
O145 C152 1.247 . S
O146 Zn138 1.906 . S
O146 C154 1.304 . S
O147 Zn135 1.924 . S
O147 C155 1.311 . S
O148 Zn139 1.977 . S
O148 C154 1.272 . S
O149 Zn139 1.910 . S
O149 C155 1.231 . S
C150 O134 1.225 . S
C150 O156 1.298 . S
C151 O140 1.226 . S
C151 O141 1.307 . S
C152 O144 1.303 . S
C152 O145 1.247 . S
C153 O142 1.253 . S
C153 O143 1.283 . S
C154 O146 1.304 . S
C154 O148 1.272 . S
C155 O147 1.311 . S
C155 O149 1.231 . S
O156 Zn138 1.953 . S
O156 C150 1.298 . S
O157 Zn158 1.953 . S
O157 C173 1.225 . S
Zn158 O157 1.953 . S
Zn158 O159 1.949 1_655 S
Zn158 O165 1.919 . S
Zn158 O170 1.924 1_655 S
O159 Zn158 1.949 1_455 S
O159 Zn160 1.923 1_554 S
O159 Zn161 1.950 . S
O159 Zn162 1.945 1_554 S
Zn160 O159 1.923 1_556 S
Zn160 O163 1.933 . S
Zn160 O166 1.941 1_455 S
Zn160 O167 1.965 . S
Zn161 O159 1.950 . S
Zn161 O168 1.938 . S
Zn161 O169 1.906 . S
Zn161 O179 1.953 . S
Zn162 O159 1.945 1_556 S
Zn162 O164 1.932 . S
Zn162 O171 1.977 1_556 S
Zn162 O172 1.910 1_556 S
O163 Zn160 1.933 . S
O163 C174 1.226 . S
O164 Zn162 1.932 . S
O164 C174 1.307 . S
O165 Zn158 1.919 . S
O165 C176 1.253 1_554 S
O166 Zn160 1.941 1_655 S
O166 C176 1.283 . S
O167 Zn160 1.965 . S
O167 C175 1.303 . S
O168 Zn161 1.938 . S
O168 C175 1.247 1_554 S
O169 Zn161 1.906 . S
O169 C177 1.304 . S
O170 Zn158 1.924 1_455 S
O170 C178 1.311 . S
O171 Zn162 1.977 1_554 S
O171 C177 1.272 . S
O172 Zn162 1.910 1_554 S
O172 C178 1.231 . S
C173 O157 1.225 . S
C173 O179 1.298 1_655 S
C174 O163 1.226 . S
C174 O164 1.307 . S
C175 O167 1.303 . S
C175 O168 1.247 1_556 S
C176 O165 1.253 1_556 S
C176 O166 1.283 . S
C177 O169 1.304 . S
C177 O171 1.272 . S
C178 O170 1.311 . S
C178 O172 1.231 . S
O179 Zn161 1.953 . S
O179 C173 1.298 1_455 S
C180 C181 1.363 . S
C180 C186 1.379 . S
C180 N188 1.356 . S
C181 C180 1.363 . S
C181 C187 1.363 . S
C182 C183 1.363 . S
C182 C187 1.379 . S
C182 N189 1.356 . S
C183 C182 1.363 . S
C183 C186 1.363 . S
N184 C186 1.356 . S
N184 H196 0.984 1_455 S
N184 H197 0.985 . S
N185 C187 1.356 . S
N185 H190 0.984 . S
N185 H191 0.985 . S
C186 C180 1.379 . S
C186 C183 1.363 . S
C186 N184 1.356 . S
C187 C181 1.363 . S
C187 C182 1.379 . S
C187 N185 1.356 . S
N188 C180 1.356 . S
N188 H194 0.984 . S
N188 H195 0.984 . S
N189 C182 1.356 . S
N189 H192 0.984 . S
N189 H193 0.985 . S
H190 N185 0.984 . S
H191 N185 0.985 . S
H192 N189 0.984 . S
H193 N189 0.985 . S
H194 N188 0.984 . S
H195 N188 0.984 . S
H196 N184 0.984 1_655 S
H197 N184 0.985 . S
C198 C199 1.363 . S
C198 C204 1.379 . S
C198 N206 1.356 . S
C199 C198 1.363 . S
C199 C205 1.363 . S
C200 C201 1.363 . S
C200 C205 1.379 . S
C200 N207 1.356 1_565 S
C201 C200 1.363 . S
C201 C204 1.363 . S
N202 C204 1.356 . S
N202 H214 0.984 . S
N202 H215 0.985 . S
N203 C205 1.356 1_545 S
N203 H208 0.984 1_545 S
N203 H209 0.985 . S
C204 C198 1.379 . S
C204 C201 1.363 . S
C204 N202 1.356 . S
C205 C199 1.363 . S
C205 C200 1.379 . S
C205 N203 1.356 1_565 S
N206 C198 1.356 . S
N206 H212 0.984 . S
N206 H213 0.984 . S
N207 C200 1.356 1_545 S
N207 H210 0.984 . S
N207 H211 0.985 . S
H208 N203 0.984 1_565 S
H209 N203 0.985 . S
H210 N207 0.984 . S
H211 N207 0.985 . S
H212 N206 0.984 . S
H213 N206 0.984 . S
H214 N202 0.984 . S
H215 N202 0.985 . S
C216 C217 1.363 . S
C216 C222 1.379 . S
C216 N224 1.356 . S
C217 C216 1.363 . S
C217 C223 1.363 . S
C218 C219 1.363 . S
C218 C223 1.379 . S
C218 N225 1.356 . S
C219 C218 1.363 . S
C219 C222 1.363 . S
N220 C222 1.356 . S
N220 H232 0.984 . S
N220 H233 0.985 . S
N221 C223 1.356 . S
N221 H226 0.984 . S
N221 H227 0.985 . S
C222 C216 1.379 . S
C222 C219 1.363 . S
C222 N220 1.356 . S
C223 C217 1.363 . S
C223 C218 1.379 . S
C223 N221 1.356 . S
N224 C216 1.356 . S
N224 H230 0.984 . S
N224 H231 0.984 . S
N225 C218 1.356 . S
N225 H228 0.984 . S
N225 H229 0.985 . S
H226 N221 0.984 . S
H227 N221 0.985 . S
H228 N225 0.984 . S
H229 N225 0.985 . S
H230 N224 0.984 . S
H231 N224 0.984 . S
H232 N220 0.984 . S
H233 N220 0.985 . S
C234 C235 1.363 1_455 S
C234 C240 1.379 . S
C234 N242 1.356 . S
C235 C234 1.363 1_655 S
C235 C241 1.363 . S
C236 C237 1.363 . S
C236 C241 1.379 . S
C236 N243 1.356 . S
C237 C236 1.363 . S
C237 C240 1.363 1_655 S
N238 C240 1.356 . S
N238 H250 0.984 . S
N238 H251 0.985 . S
N239 C241 1.356 . S
N239 H244 0.984 . S
N239 H245 0.985 . S
C240 C234 1.379 . S
C240 C237 1.363 1_455 S
C240 N238 1.356 . S
C241 C235 1.363 . S
C241 C236 1.379 . S
C241 N239 1.356 . S
N242 C234 1.356 . S
N242 H248 0.984 . S
N242 H249 0.984 . S
N243 C236 1.356 . S
N243 H246 0.984 . S
N243 H247 0.985 . S
H244 N239 0.984 . S
H245 N239 0.985 . S
H246 N243 0.984 . S
H247 N243 0.985 . S
H248 N242 0.984 . S
H249 N242 0.984 . S
H250 N238 0.984 . S
H251 N238 0.985 . S
C252 C253 1.363 . S
C252 C258 1.379 . S
C252 N260 1.356 . S
C253 C252 1.363 . S
C253 C259 1.363 . S
C254 C255 1.363 . S
C254 C259 1.379 . S
C254 N261 1.356 . S
C255 C254 1.363 . S
C255 C258 1.363 . S
N256 C258 1.356 . S
N256 H268 0.984 . S
N256 H269 0.985 . S
N257 C259 1.356 . S
N257 H262 0.984 . S
N257 H263 0.985 . S
C258 C252 1.379 . S
C258 C255 1.363 . S
C258 N256 1.356 . S
C259 C253 1.363 . S
C259 C254 1.379 . S
C259 N257 1.356 . S
N260 C252 1.356 . S
N260 H266 0.984 . S
N260 H267 0.984 . S
N261 C254 1.356 . S
N261 H264 0.984 . S
N261 H265 0.985 . S
H262 N257 0.984 . S
H263 N257 0.985 . S
H264 N261 0.984 . S
H265 N261 0.985 . S
H266 N260 0.984 . S
H267 N260 0.984 . S
H268 N256 0.984 . S
H269 N256 0.985 . S
C270 C271 1.363 . S
C270 C276 1.379 . S
C270 N278 1.356 . S
C271 C270 1.363 . S
C271 C277 1.363 . S
C272 C273 1.363 . S
C272 C277 1.379 . S
C272 N279 1.356 . S
C273 C272 1.363 . S
C273 C276 1.363 . S
N274 C276 1.356 . S
N274 H286 0.984 . S
N274 H287 0.985 . S
N275 C277 1.356 . S
N275 H280 0.984 . S
N275 H281 0.985 1_565 S
C276 C270 1.379 . S
C276 C273 1.363 . S
C276 N274 1.356 . S
C277 C271 1.363 . S
C277 C272 1.379 . S
C277 N275 1.356 . S
N278 C270 1.356 . S
N278 H284 0.984 . S
N278 H285 0.984 . S
N279 C272 1.356 . S
N279 H282 0.984 . S
N279 H283 0.985 1_565 S
H280 N275 0.984 . S
H281 N275 0.985 1_545 S
H282 N279 0.984 . S
H283 N279 0.985 1_545 S
H284 N278 0.984 . S
H285 N278 0.984 . S
H286 N274 0.984 . S
H287 N274 0.985 . S
C288 C289 1.363 . S
C288 C294 1.379 . S
C288 N296 1.356 . S
C289 C288 1.363 . S
C289 C295 1.363 . S
C290 C291 1.363 . S
C290 C295 1.379 . S
C290 N297 1.356 . S
C291 C290 1.363 . S
C291 C294 1.363 . S
N292 C294 1.356 . S
N292 H304 0.984 . S
N292 H305 0.985 . S
N293 C295 1.356 . S
N293 H298 0.984 . S
N293 H299 0.985 . S
C294 C288 1.379 . S
C294 C291 1.363 . S
C294 N292 1.356 . S
C295 C289 1.363 . S
C295 C290 1.379 . S
C295 N293 1.356 . S
N296 C288 1.356 . S
N296 H302 0.984 . S
N296 H303 0.984 . S
N297 C290 1.356 . S
N297 H300 0.984 . S
N297 H301 0.985 . S
H298 N293 0.984 . S
H299 N293 0.985 . S
H300 N297 0.984 . S
H301 N297 0.985 . S
H302 N296 0.984 . S
H303 N296 0.984 . S
H304 N292 0.984 . S
H305 N292 0.985 . S
C306 C307 1.363 . S
C306 C312 1.379 . S
C306 N314 1.356 . S
C307 C306 1.363 . S
C307 C313 1.363 . S
C308 C309 1.363 . S
C308 C313 1.379 . S
C308 N315 1.356 . S
C309 C308 1.363 . S
C309 C312 1.363 . S
N310 C312 1.356 . S
N310 H322 0.984 . S
N310 H323 0.985 . S
N311 C313 1.356 . S
N311 H316 0.984 . S
N311 H317 0.985 . S
C312 C306 1.379 . S
C312 C309 1.363 . S
C312 N310 1.356 . S
C313 C307 1.363 . S
C313 C308 1.379 . S
C313 N311 1.356 . S
N314 C306 1.356 . S
N314 H320 0.984 . S
N314 H321 0.984 . S
N315 C308 1.356 . S
N315 H318 0.984 . S
N315 H319 0.985 . S
H316 N311 0.984 . S
H317 N311 0.985 . S
H318 N315 0.984 . S
H319 N315 0.985 . S
H320 N314 0.984 . S
H321 N314 0.984 . S
H322 N310 0.984 . S
H323 N310 0.985 . S
C324 C325 1.363 . S
C324 C330 1.379 . S
C324 N332 1.356 . S
C325 C324 1.363 . S
C325 C331 1.363 . S
C326 C327 1.363 . S
C326 C331 1.379 . S
C326 N333 1.356 . S
C327 C326 1.363 . S
C327 C330 1.363 . S
N328 C330 1.356 1_655 S
N328 H340 0.984 . S
N328 H341 0.985 . S
N329 C331 1.356 . S
N329 H334 0.984 . S
N329 H335 0.985 . S
C330 C324 1.379 . S
C330 C327 1.363 . S
C330 N328 1.356 1_455 S
C331 C325 1.363 . S
C331 C326 1.379 . S
C331 N329 1.356 . S
N332 C324 1.356 . S
N332 H338 0.984 1_455 S
N332 H339 0.984 . S
N333 C326 1.356 . S
N333 H336 0.984 . S
N333 H337 0.985 . S
H334 N329 0.984 . S
H335 N329 0.985 . S
H336 N333 0.984 . S
H337 N333 0.985 . S
H338 N332 0.984 1_655 S
H339 N332 0.984 . S
H340 N328 0.984 . S
H341 N328 0.985 . S
C342 C343 1.363 1_556 S
C342 C348 1.379 . S
C342 N350 1.356 . S
C343 C342 1.363 1_554 S
C343 C349 1.363 . S
C344 C345 1.363 . S
C344 C349 1.379 . S
C344 N351 1.356 . S
C345 C344 1.363 . S
C345 C348 1.363 1_554 S
N346 C348 1.356 . S
N346 H358 0.984 . S
N346 H359 0.985 . S
N347 C349 1.356 . S
N347 H352 0.984 . S
N347 H353 0.985 . S
C348 C342 1.379 . S
C348 C345 1.363 1_556 S
C348 N346 1.356 . S
C349 C343 1.363 . S
C349 C344 1.379 . S
C349 N347 1.356 . S
N350 C342 1.356 . S
N350 H356 0.984 . S
N350 H357 0.984 . S
N351 C344 1.356 . S
N351 H354 0.984 . S
N351 H355 0.985 . S
H352 N347 0.984 . S
H353 N347 0.985 . S
H354 N351 0.984 . S
H355 N351 0.985 . S
H356 N350 0.984 . S
H357 N350 0.984 . S
H358 N346 0.984 . S
H359 N346 0.985 . S
C360 C361 1.363 . S
C360 C366 1.379 . S
C360 N368 1.359 . S
C361 C360 1.363 . S
C361 C367 1.363 . S
C362 C363 1.363 . S
C362 C367 1.379 . S
C362 N369 1.356 . S
C363 C362 1.363 . S
C363 C366 1.363 . S
N364 C366 1.356 1_455 S
N364 H376 0.984 . S
N364 H377 0.985 . S
N365 C367 1.356 . S
N365 H370 0.984 . S
N365 H371 0.985 . S
C366 C360 1.379 . S
C366 C363 1.363 . S
C366 N364 1.356 1_655 S
C367 C361 1.363 . S
C367 C362 1.379 . S
C367 N365 1.356 . S
N368 C360 1.359 . S
N368 H374 0.979 1_655 S
N368 H375 0.987 . S
N369 C362 1.356 . S
N369 H372 0.984 . S
N369 H373 0.985 . S
H370 N365 0.984 . S
H371 N365 0.985 . S
H372 N369 0.984 . S
H373 N369 0.985 . S
H374 N368 0.979 1_455 S
H375 N368 0.987 . S
H376 N364 0.984 . S
H377 N364 0.985 . S
C378 C379 1.363 . S
C378 C384 1.379 . S
C378 N386 1.356 . S
C379 C378 1.363 . S
C379 C385 1.363 . S
C380 C381 1.363 . S
C380 C385 1.379 . S
C380 N387 1.356 . S
C381 C380 1.363 . S
C381 C384 1.363 . S
N382 C384 1.356 . S
N382 H394 0.984 . S
N382 H395 0.985 . S
N383 C385 1.356 . S
N383 H388 0.984 . S
N383 H389 0.985 . S
C384 C378 1.379 . S
C384 C381 1.363 . S
C384 N382 1.356 . S
C385 C379 1.363 . S
C385 C380 1.379 . S
C385 N383 1.356 . S
N386 C378 1.356 . S
N386 H392 0.984 . S
N386 H393 0.984 . S
N387 C380 1.356 . S
N387 H390 0.984 . S
N387 H391 0.985 . S
H388 N383 0.984 . S
H389 N383 0.985 . S
H390 N387 0.984 . S
H391 N387 0.985 . S
H392 N386 0.984 . S
H393 N386 0.984 . S
H394 N382 0.984 . S
H395 N382 0.985 . S
C396 C397 1.363 . S
C396 C402 1.379 . S
C396 N404 1.356 . S
C397 C396 1.363 . S
C397 C403 1.363 1_565 S
C398 C399 1.363 . S
C398 C403 1.379 . S
C398 N405 1.356 . S
C399 C398 1.363 . S
C399 C402 1.363 1_545 S
N400 C402 1.356 . S
N400 H412 0.984 1_655 S
N400 H413 0.985 . S
N401 C403 1.356 . S
N401 H406 0.984 . S
N401 H407 0.985 . S
C402 C396 1.379 . S
C402 C399 1.363 1_565 S
C402 N400 1.356 . S
C403 C397 1.363 1_545 S
C403 C398 1.379 . S
C403 N401 1.356 . S
N404 C396 1.356 . S
N404 H410 0.984 . S
N404 H411 0.984 . S
N405 C398 1.356 . S
N405 H408 0.984 . S
N405 H409 0.985 . S
H406 N401 0.984 . S
H407 N401 0.985 . S
H408 N405 0.984 . S
H409 N405 0.985 . S
H410 N404 0.984 . S
H411 N404 0.984 . S
H412 N400 0.984 1_455 S
H413 N400 0.985 . S
C414 C415 1.363 . S
C414 C420 1.379 . S
C414 N422 1.356 . S
C415 C414 1.363 . S
C415 C421 1.363 . S
C416 C417 1.363 . S
C416 C421 1.379 . S
C416 N423 1.356 . S
C417 C416 1.363 . S
C417 C420 1.363 . S
N418 C420 1.356 1_565 S
N418 H430 0.984 . S
N418 H431 0.988 . S
N419 C421 1.356 . S
N419 H424 0.984 . S
N419 H425 0.985 . S
C420 C414 1.379 . S
C420 C417 1.363 . S
C420 N418 1.356 1_545 S
C421 C415 1.363 . S
C421 C416 1.379 . S
C421 N419 1.356 . S
N422 C414 1.356 . S
N422 H428 0.984 1_545 S
N422 H429 0.984 . S
N423 C416 1.356 . S
N423 H426 0.984 . S
N423 H427 0.985 . S
H424 N419 0.984 . S
H425 N419 0.985 . S
H426 N423 0.984 . S
H427 N423 0.985 . S
H428 N422 0.984 1_565 S
H429 N422 0.984 . S
H430 N418 0.984 . S
H431 N418 0.988 . S
C432 C433 1.363 . S
C432 C438 1.379 . S
C432 N440 1.356 . S
C433 C432 1.363 . S
C433 C439 1.363 . S
C434 C435 1.363 . S
C434 C439 1.379 . S
C434 N441 1.356 . S
C435 C434 1.363 . S
C435 C438 1.363 . S
N436 C438 1.356 . S
N436 H448 0.984 . S
N436 H449 0.985 . S
N437 C439 1.356 . S
N437 H442 0.984 . S
N437 H443 0.985 . S
C438 C432 1.379 . S
C438 C435 1.363 . S
C438 N436 1.356 . S
C439 C433 1.363 . S
C439 C434 1.379 . S
C439 N437 1.356 . S
N440 C432 1.356 . S
N440 H446 0.984 . S
N440 H447 0.984 . S
N441 C434 1.356 . S
N441 H444 0.984 . S
N441 H445 0.985 . S
H442 N437 0.984 . S
H443 N437 0.985 . S
H444 N441 0.984 . S
H445 N441 0.985 . S
H446 N440 0.984 . S
H447 N440 0.984 . S
H448 N436 0.984 . S
H449 N436 0.985 . S
C450 C451 1.363 . S
C450 C456 1.379 . S
C450 N458 1.356 . S
C451 C450 1.363 . S
C451 C457 1.363 . S
C452 C453 1.363 . S
C452 C457 1.379 . S
C452 N459 1.356 . S
C453 C452 1.363 . S
C453 C456 1.363 . S
N454 C456 1.356 . S
N454 H466 0.984 1_455 S
N454 H467 0.985 . S
N455 C457 1.356 . S
N455 H460 0.984 . S
N455 H461 0.985 . S
C456 C450 1.379 . S
C456 C453 1.363 . S
C456 N454 1.356 . S
C457 C451 1.363 . S
C457 C452 1.379 . S
C457 N455 1.356 . S
N458 C450 1.356 . S
N458 H464 0.980 1_455 S
N458 H465 0.984 . S
N459 C452 1.356 . S
N459 H462 0.984 . S
N459 H463 0.985 . S
H460 N455 0.984 . S
H461 N455 0.985 . S
H462 N459 0.984 . S
H463 N459 0.985 . S
H464 N458 0.980 1_655 S
H465 N458 0.984 . S
H466 N454 0.984 1_655 S
H467 N454 0.985 . S
C468 C469 1.363 . S
C468 C474 1.379 . S
C468 N476 1.356 . S
C469 C468 1.363 . S
C469 C475 1.363 1_545 S
C470 C471 1.363 1_565 S
C470 C475 1.379 . S
C470 N477 1.356 . S
C471 C470 1.363 1_545 S
C471 C474 1.363 . S
N472 C474 1.356 . S
N472 H484 0.984 . S
N472 H485 0.985 . S
N473 C475 1.356 . S
N473 H478 0.984 . S
N473 H479 0.985 . S
C474 C468 1.379 . S
C474 C471 1.363 . S
C474 N472 1.356 . S
C475 C469 1.363 1_565 S
C475 C470 1.379 . S
C475 N473 1.356 . S
N476 C468 1.356 . S
N476 H482 0.984 . S
N476 H483 0.984 1_554 S
N477 C470 1.356 . S
N477 H480 0.984 . S
N477 H481 0.985 . S
H478 N473 0.984 . S
H479 N473 0.985 . S
H480 N477 0.984 . S
H481 N477 0.985 . S
H482 N476 0.984 . S
H483 N476 0.984 1_556 S
H484 N472 0.984 . S
H485 N472 0.985 . S
C486 C487 1.363 1_565 S
C486 C492 1.379 . S
C486 N494 1.356 . S
C487 C486 1.363 1_545 S
C487 C493 1.363 . S
C488 C489 1.363 . S
C488 C493 1.379 . S
C488 N495 1.356 . S
C489 C488 1.363 . S
C489 C492 1.363 1_545 S
N490 C492 1.356 . S
N490 H502 0.984 . S
N490 H503 0.985 . S
N491 C493 1.356 . S
N491 H496 0.984 . S
N491 H497 0.985 . S
C492 C486 1.379 . S
C492 C489 1.363 1_565 S
C492 N490 1.356 . S
C493 C487 1.363 . S
C493 C488 1.379 . S
C493 N491 1.356 . S
N494 C486 1.356 . S
N494 H500 0.984 . S
N494 H501 0.984 . S
N495 C488 1.356 . S
N495 H498 0.984 . S
N495 H499 0.985 . S
H496 N491 0.984 . S
H497 N491 0.985 . S
H498 N495 0.984 . S
H499 N495 0.985 . S
H500 N494 0.984 . S
H501 N494 0.984 . S
H502 N490 0.984 . S
H503 N490 0.985 . S
C504 C505 1.363 . S
C504 C510 1.379 . S
C504 N512 1.356 . S
C505 C504 1.363 . S
C505 C511 1.363 . S
C506 C507 1.363 . S
C506 C511 1.379 . S
C506 N513 1.356 . S
C507 C506 1.363 . S
C507 C510 1.363 . S
N508 C510 1.356 1_556 S
N508 H520 0.984 . S
N508 H521 0.985 . S
N509 C511 1.356 . S
N509 H514 0.984 . S
N509 H515 0.985 . S
C510 C504 1.379 . S
C510 C507 1.363 . S
C510 N508 1.356 1_554 S
C511 C505 1.363 . S
C511 C506 1.379 . S
C511 N509 1.356 . S
N512 C504 1.356 . S
N512 H518 0.984 1_554 S
N512 H519 0.984 . S
N513 C506 1.356 . S
N513 H516 0.984 . S
N513 H517 0.985 . S
H514 N509 0.984 . S
H515 N509 0.985 . S
H516 N513 0.984 . S
H517 N513 0.985 . S
H518 N512 0.984 1_556 S
H519 N512 0.984 . S
H520 N508 0.984 . S
H521 N508 0.985 . S
C522 C523 1.363 . S
C522 C528 1.379 . S
C522 N530 1.356 . S
C523 C522 1.363 . S
C523 C529 1.363 . S
C524 C525 1.363 . S
C524 C529 1.379 . S
C524 N531 1.356 . S
C525 C524 1.363 . S
C525 C528 1.363 . S
N526 C528 1.356 . S
N526 H538 0.984 . S
N526 H539 0.985 . S
N527 C529 1.356 . S
N527 H532 0.984 . S
N527 H533 0.985 . S
C528 C522 1.379 . S
C528 C525 1.363 . S
C528 N526 1.356 . S
C529 C523 1.363 . S
C529 C524 1.379 . S
C529 N527 1.356 . S
N530 C522 1.356 . S
N530 H536 0.984 . S
N530 H537 0.984 . S
N531 C524 1.356 . S
N531 H534 0.984 . S
N531 H535 0.985 . S
H532 N527 0.984 . S
H533 N527 0.985 . S
H534 N531 0.984 . S
H535 N531 0.985 . S
H536 N530 0.984 . S
H537 N530 0.984 . S
H538 N526 0.984 . S
H539 N526 0.985 . S
C540 C541 1.373 1_455 S
C540 C546 1.379 . S
C540 N548 1.356 . S
C541 C540 1.373 1_655 S
C541 C547 1.354 1_554 S
C542 C543 1.363 . S
C542 C547 1.379 . S
C542 N549 1.356 . S
C543 C542 1.363 . S
C543 C546 1.363 1_656 S
N544 C546 1.356 . S
N544 H556 0.984 . S
N544 H557 0.985 . S
N545 C547 1.356 . S
N545 H550 0.984 . S
N545 H551 0.985 . S
C546 C540 1.379 . S
C546 C543 1.363 1_454 S
C546 N544 1.356 . S
C547 C541 1.354 1_556 S
C547 C542 1.379 . S
C547 N545 1.356 . S
N548 C540 1.356 . S
N548 H554 0.984 . S
N548 H555 0.984 . S
N549 C542 1.356 . S
N549 H552 0.984 . S
N549 H553 0.985 . S
H550 N545 0.984 . S
H551 N545 0.985 . S
H552 N549 0.984 . S
H553 N549 0.985 . S
H554 N548 0.984 . S
H555 N548 0.984 . S
H556 N544 0.984 . S
H557 N544 0.985 . S
C558 C559 1.363 . S
C558 C564 1.379 . S
C558 N566 1.356 . S
C559 C558 1.363 . S
C559 C565 1.363 . S
C560 C561 1.363 . S
C560 C565 1.379 . S
C560 N567 1.356 . S
C561 C560 1.363 . S
C561 C564 1.363 . S
N562 C564 1.356 . S
N562 H574 0.984 . S
N562 H575 0.985 . S
N563 C565 1.356 . S
N563 H568 0.984 . S
N563 H569 0.985 . S
C564 C558 1.379 . S
C564 C561 1.363 . S
C564 N562 1.356 . S
C565 C559 1.363 . S
C565 C560 1.379 . S
C565 N563 1.356 . S
N566 C558 1.356 . S
N566 H572 0.984 . S
N566 H573 0.984 . S
N567 C560 1.356 . S
N567 H570 0.984 . S
N567 H571 0.985 . S
H568 N563 0.984 . S
H569 N563 0.985 . S
H570 N567 0.984 . S
H571 N567 0.985 . S
H572 N566 0.984 . S
H573 N566 0.984 . S
H574 N562 0.984 . S
H575 N562 0.985 . S
C576 C577 1.363 . S
C576 C582 1.379 . S
C576 N584 1.356 . S
C577 C576 1.363 . S
C577 C583 1.363 . S
C578 C579 1.363 . S
C578 C583 1.379 . S
C578 N585 1.356 . S
C579 C578 1.363 . S
C579 C582 1.363 . S
N580 C582 1.356 . S
N580 H592 0.984 1_455 S
N580 H593 0.985 . S
N581 C583 1.356 . S
N581 H586 0.984 . S
N581 H587 0.985 . S
C582 C576 1.379 . S
C582 C579 1.363 . S
C582 N580 1.356 . S
C583 C577 1.363 . S
C583 C578 1.379 . S
C583 N581 1.356 . S
N584 C576 1.356 . S
N584 H590 0.984 . S
N584 H591 0.984 . S
N585 C578 1.356 . S
N585 H588 0.984 . S
N585 H589 0.985 . S
H586 N581 0.984 . S
H587 N581 0.985 . S
H588 N585 0.984 . S
H589 N585 0.985 . S
H590 N584 0.984 . S
H591 N584 0.984 . S
H592 N580 0.984 1_655 S
H593 N580 0.985 . S
C594 C595 1.363 . S
C594 C600 1.379 . S
C594 N602 1.356 . S
C595 C594 1.363 . S
C595 C601 1.363 . S
C596 C597 1.363 . S
C596 C601 1.379 . S
C596 N603 1.356 . S
C597 C596 1.363 . S
C597 C600 1.363 . S
N598 C600 1.356 . S
N598 H610 0.984 . S
N598 H611 0.985 . S
N599 C601 1.356 . S
N599 H604 0.984 . S
N599 H605 0.985 . S
C600 C594 1.379 . S
C600 C597 1.363 . S
C600 N598 1.356 . S
C601 C595 1.363 . S
C601 C596 1.379 . S
C601 N599 1.356 . S
N602 C594 1.356 . S
N602 H608 0.984 . S
N602 H609 0.984 . S
N603 C596 1.356 . S
N603 H606 0.984 . S
N603 H607 0.985 . S
H604 N599 0.984 . S
H605 N599 0.985 . S
H606 N603 0.984 . S
H607 N603 0.985 . S
H608 N602 0.984 . S
H609 N602 0.984 . S
H610 N598 0.984 . S
H611 N598 0.985 . S
C181 C5 1.702 . S
C183 C106 1.781 . S
C199 C18 1.550 . S
C201 C130 1.614 . S
C219 C150 1.327 . S
C217 C30 1.279 . S
C235 C41 1.309 . S
C237 C173 1.313 . S
C255 C132 1.863 . S
C253 C7 1.849 . S
C273 C108 1.833 . S
C271 C16 1.655 . S
C291 C176 1.659 . S
C289 C29 1.579 . S
C309 C153 1.277 . S
C307 C38 1.332 . S
C325 C8 1.577 . S
C327 C178 1.544 . S
C345 C127 1.747 . S
C343 C27 1.460 1_554 S
C361 C40 1.611 . S
C363 C105 1.620 . S
C379 C19 1.230 . S
C381 C155 1.211 . S
C399 C109 1.703 . S
C397 C51 1.665 . S
C415 C62 1.593 . S
C417 C131 1.710 . S
C433 C74 1.584 . S
C435 C151 1.668 . S
C451 C84 1.458 . S
C453 C174 1.627 . S
C469 C49 1.816 . S
C471 C129 1.829 . S
C489 C107 1.547 . S
C487 C63 1.477 . S
C507 C177 1.454 . S
C505 C71 1.181 . S
C525 C154 1.305 . S
C523 C85 1.287 . S
C541 C52 1.802 1_554 S
C543 C175 1.766 1_655 S
C561 C128 1.821 . S
C559 C73 1.641 . S
C579 C104 1.500 . S
C577 C82 1.070 . S
C595 C60 1.483 . S
C597 C152 1.837 . S
