# Generated by pormake.
# Topology ocu, (6,8)-cn, num edge types: 1
# Building blocks:
#     Node 0, Type 0, BuildingBlock: UKALOJ_clean_sbu_0, # of connection points: 6
#     Node 1, Type 0, BuildingBlock: UKALOJ_clean_sbu_0, # of connection points: 6
#     Node 2, Type 0, BuildingBlock: UKALOJ_clean_sbu_0, # of connection points: 6
#     Node 3, Type 0, BuildingBlock: UKALOJ_clean_sbu_0, # of connection points: 6
#     Node 4, Type 0, BuildingBlock: UKALOJ_clean_sbu_0, # of connection points: 6
#     Node 5, Type 0, BuildingBlock: UKALOJ_clean_sbu_0, # of connection points: 6
#     Node 6, Type 0, BuildingBlock: UKALOJ_clean_sbu_0, # of connection points: 6
#     Node 7, Type 0, BuildingBlock: UKALOJ_clean_sbu_0, # of connection points: 6
#     Node 8, Type 1, BuildingBlock: LIZSOE_clean_sbu_0, # of connection points: 8
#     Node 9, Type 1, BuildingBlock: LIZSOE_clean_sbu_0, # of connection points: 8
#     Node 10, Type 1, BuildingBlock: LIZSOE_clean_sbu_0, # of connection points: 8
#     Node 11, Type 1, BuildingBlock: LIZSOE_clean_sbu_0, # of connection points: 8
#     Node 12, Type 1, BuildingBlock: LIZSOE_clean_sbu_0, # of connection points: 8
#     Node 13, Type 1, BuildingBlock: LIZSOE_clean_sbu_0, # of connection points: 8
#     Edge 14, Type (0, 1), BuildingBlock: XUDNAN_clean_linker_2, # of connection points: 2
#     Edge 15, Type (0, 1), BuildingBlock: XUDNAN_clean_linker_2, # of connection points: 2
#     Edge 16, Type (0, 1), BuildingBlock: XUDNAN_clean_linker_2, # of connection points: 2
#     Edge 17, Type (0, 1), BuildingBlock: XUDNAN_clean_linker_2, # of connection points: 2
#     Edge 18, Type (0, 1), BuildingBlock: XUDNAN_clean_linker_2, # of connection points: 2
#     Edge 19, Type (0, 1), BuildingBlock: XUDNAN_clean_linker_2, # of connection points: 2
#     Edge 20, Type (0, 1), BuildingBlock: XUDNAN_clean_linker_2, # of connection points: 2
#     Edge 21, Type (0, 1), BuildingBlock: XUDNAN_clean_linker_2, # of connection points: 2
#     Edge 22, Type (0, 1), BuildingBlock: XUDNAN_clean_linker_2, # of connection points: 2
#     Edge 23, Type (0, 1), BuildingBlock: XUDNAN_clean_linker_2, # of connection points: 2
#     Edge 24, Type (0, 1), BuildingBlock: XUDNAN_clean_linker_2, # of connection points: 2
#     Edge 25, Type (0, 1), BuildingBlock: XUDNAN_clean_linker_2, # of connection points: 2
#     Edge 26, Type (0, 1), BuildingBlock: XUDNAN_clean_linker_2, # of connection points: 2
#     Edge 27, Type (0, 1), BuildingBlock: XUDNAN_clean_linker_2, # of connection points: 2
#     Edge 28, Type (0, 1), BuildingBlock: XUDNAN_clean_linker_2, # of connection points: 2
#     Edge 29, Type (0, 1), BuildingBlock: XUDNAN_clean_linker_2, # of connection points: 2
#     Edge 30, Type (0, 1), BuildingBlock: XUDNAN_clean_linker_2, # of connection points: 2
#     Edge 31, Type (0, 1), BuildingBlock: XUDNAN_clean_linker_2, # of connection points: 2
#     Edge 32, Type (0, 1), BuildingBlock: XUDNAN_clean_linker_2, # of connection points: 2
#     Edge 33, Type (0, 1), BuildingBlock: XUDNAN_clean_linker_2, # of connection points: 2
#     Edge 34, Type (0, 1), BuildingBlock: XUDNAN_clean_linker_2, # of connection points: 2
#     Edge 35, Type (0, 1), BuildingBlock: XUDNAN_clean_linker_2, # of connection points: 2
#     Edge 36, Type (0, 1), BuildingBlock: XUDNAN_clean_linker_2, # of connection points: 2
#     Edge 37, Type (0, 1), BuildingBlock: XUDNAN_clean_linker_2, # of connection points: 2
#     Edge 38, Type (0, 1), BuildingBlock: XUDNAN_clean_linker_2, # of connection points: 2
#     Edge 39, Type (0, 1), BuildingBlock: XUDNAN_clean_linker_2, # of connection points: 2
#     Edge 40, Type (0, 1), BuildingBlock: XUDNAN_clean_linker_2, # of connection points: 2
#     Edge 41, Type (0, 1), BuildingBlock: XUDNAN_clean_linker_2, # of connection points: 2
#     Edge 42, Type (0, 1), BuildingBlock: XUDNAN_clean_linker_2, # of connection points: 2
#     Edge 43, Type (0, 1), BuildingBlock: XUDNAN_clean_linker_2, # of connection points: 2
#     Edge 44, Type (0, 1), BuildingBlock: XUDNAN_clean_linker_2, # of connection points: 2
#     Edge 45, Type (0, 1), BuildingBlock: XUDNAN_clean_linker_2, # of connection points: 2
#     Edge 46, Type (0, 1), BuildingBlock: XUDNAN_clean_linker_2, # of connection points: 2
#     Edge 47, Type (0, 1), BuildingBlock: XUDNAN_clean_linker_2, # of connection points: 2
#     Edge 48, Type (0, 1), BuildingBlock: XUDNAN_clean_linker_2, # of connection points: 2
#     Edge 49, Type (0, 1), BuildingBlock: XUDNAN_clean_linker_2, # of connection points: 2
#     Edge 50, Type (0, 1), BuildingBlock: XUDNAN_clean_linker_2, # of connection points: 2
#     Edge 51, Type (0, 1), BuildingBlock: XUDNAN_clean_linker_2, # of connection points: 2
#     Edge 52, Type (0, 1), BuildingBlock: XUDNAN_clean_linker_2, # of connection points: 2
#     Edge 53, Type (0, 1), BuildingBlock: XUDNAN_clean_linker_2, # of connection points: 2
#     Edge 54, Type (0, 1), BuildingBlock: XUDNAN_clean_linker_2, # of connection points: 2
#     Edge 55, Type (0, 1), BuildingBlock: XUDNAN_clean_linker_2, # of connection points: 2
#     Edge 56, Type (0, 1), BuildingBlock: XUDNAN_clean_linker_2, # of connection points: 2
#     Edge 57, Type (0, 1), BuildingBlock: XUDNAN_clean_linker_2, # of connection points: 2
#     Edge 58, Type (0, 1), BuildingBlock: XUDNAN_clean_linker_2, # of connection points: 2
#     Edge 59, Type (0, 1), BuildingBlock: XUDNAN_clean_linker_2, # of connection points: 2
#     Edge 60, Type (0, 1), BuildingBlock: XUDNAN_clean_linker_2, # of connection points: 2
#     Edge 61, Type (0, 1), BuildingBlock: XUDNAN_clean_linker_2, # of connection points: 2
# Relax obj value: 0.229
# Max RMSD: 0.292
# Mean RMSD: 0.205
data_MOF--net-ocu--node1-UKALOJ_clean_sbu_0--node2-LIZSOE_clean_sbu_0--edge1-XUDNAN_clean_linker_2
_symmetry_space_group_name_H-M    P1
_symmetry_Int_Tables_number       1
_symmetry_cell_setting            triclinic
loop_
_symmetry_equiv_pos_as_xyz
'x, y, z'
_cell_length_a     38.242408
_cell_length_b     38.524591
_cell_length_c     39.266772
_cell_angle_alpha  101.59828
_cell_angle_beta   78.269803
_cell_angle_gamma 96.847672
loop_
_atom_site_label
_atom_site_type_symbol
_atom_site_fract_x
_atom_site_fract_y
_atom_site_fract_z
_atom_type_partial_charge
Zn0 Zn 0.25286 0.25053 0.25742 0.0
O1 O 0.21517 0.28467 0.29602 0.0
C2 C 0.2551 0.29957 0.20946 0.0
Zn3 Zn 0.29677 0.29157 0.26321 0.0
C4 C 0.22841 0.31485 0.31005 0.0
O5 O 0.26184 0.32242 0.30213 0.0
C6 C 0.32266 0.22973 0.20909 0.0
O7 O 0.3126 0.26929 0.30098 0.0
O8 O 0.26745 0.22871 0.29757 0.0
N9 N 0.33428 0.33143 0.26996 0.0
C10 C 0.36978 0.33165 0.2588 0.0
C11 C 0.35573 0.38431 0.26504 0.0
N12 N 0.32563 0.36449 0.27535 0.0
N13 N 0.38375 0.36409 0.25276 0.0
C14 C 0.19187 0.19575 0.27391 0.0
C15 C 0.20164 0.15549 0.22791 0.0
N16 N 0.21589 0.21001 0.24966 0.0
N17 N 0.22135 0.18534 0.22071 0.0
N18 N 0.18295 0.16146 0.26112 0.0
H19 H 0.20285 0.22456 0.32431 0.0
H20 H 0.16135 0.19669 0.32735 0.0
H21 H 0.16499 0.23733 0.31079 0.0
C22 C 0.17966 0.21434 0.31129 0.0
C23 C 0.39147 0.30039 0.25415 0.0
H24 H 0.37755 0.28104 0.27081 0.0
H25 H 0.41802 0.3098 0.2614 0.0
H26 H 0.39653 0.28656 0.22631 0.0
O27 O 0.33258 0.26115 0.22269 0.0
O28 O 0.29055 0.21784 0.21895 0.0
C29 C 0.29473 0.24209 0.31078 0.0
O30 O 0.23869 0.27112 0.2178 0.0
O31 O 0.28077 0.31464 0.2245 0.0
Zn32 Zn 0.79053 0.25572 0.23297 0.0
O33 O 0.75599 0.21316 0.20294 0.0
C34 C 0.73821 0.30805 0.23152 0.0
Zn35 Zn 0.74879 0.26163 0.28025 0.0
C36 C 0.7239 0.20478 0.21767 0.0
O37 O 0.71421 0.21955 0.25004 0.0
C38 C 0.81555 0.31234 0.29566 0.0
O39 O 0.77074 0.22201 0.298 0.0
O40 O 0.81452 0.2172 0.25217 0.0
N41 N 0.70886 0.2652 0.32257 0.0
C42 C 0.70736 0.25953 0.35554 0.0
C43 C 0.65405 0.26401 0.34966 0.0
N44 N 0.67582 0.26865 0.31912 0.0
N45 N 0.67314 0.25809 0.37297 0.0
C46 C 0.82996 0.26359 0.16004 0.0
C47 C 0.88342 0.27224 0.16894 0.0
N48 N 0.83021 0.25318 0.19063 0.0
N49 N 0.86374 0.25736 0.19557 0.0
N50 N 0.86265 0.27723 0.1467 0.0
H51 H 0.77448 0.247 0.1555 0.0
H52 H 0.804 0.25501 0.11527 0.0
H53 H 0.78953 0.29173 0.14854 0.0
C54 C 0.79736 0.26417 0.14432 0.0
C55 C 0.73934 0.25614 0.3711 0.0
H56 H 0.76227 0.27437 0.36187 0.0
H57 H 0.74775 0.22869 0.36292 0.0
H58 H 0.73279 0.26219 0.40042 0.0
O59 O 0.7838 0.30319 0.3106 0.0
O60 O 0.82484 0.29861 0.26294 0.0
C61 C 0.79965 0.20871 0.28172 0.0
O62 O 0.76688 0.29496 0.21432 0.0
O63 O 0.72553 0.30036 0.26183 0.0
Zn64 Zn 0.79814 0.78422 0.25346 0.0
O65 O 0.78166 0.80996 0.21988 0.0
C66 C 0.73685 0.81182 0.30643 0.0
Zn67 Zn 0.75235 0.74508 0.25271 0.0
C68 C 0.75353 0.79845 0.20758 0.0
O69 O 0.73601 0.76995 0.21521 0.0
C70 C 0.79792 0.7312 0.29866 0.0
O71 O 0.78305 0.7074 0.2111 0.0
O72 O 0.82524 0.75073 0.21102 0.0
N73 N 0.7084 0.71187 0.25603 0.0
C74 C 0.69536 0.68818 0.23096 0.0
C75 C 0.66069 0.68356 0.28029 0.0
N76 N 0.68698 0.7092 0.28672 0.0
N77 N 0.66576 0.67022 0.24554 0.0
C78 C 0.85156 0.84762 0.26877 0.0
C79 C 0.89975 0.82167 0.2538 0.0
N80 N 0.84387 0.81507 0.25112 0.0
N81 N 0.87414 0.79936 0.24056 0.0
N82 N 0.88605 0.85188 0.27248 0.0
H83 H 0.80276 0.87092 0.27033 0.0
H84 H 0.83786 0.90169 0.28603 0.0
H85 H 0.814 0.87125 0.3133 0.0
C86 C 0.82479 0.87434 0.28553 0.0
C87 C 0.71212 0.68166 0.19241 0.0
H88 H 0.72716 0.70603 0.18452 0.0
H89 H 0.69159 0.6723 0.1756 0.0
H90 H 0.73091 0.66058 0.18746 0.0
O91 O 0.76818 0.72097 0.28906 0.0
O92 O 0.81613 0.75812 0.28843 0.0
C93 C 0.81442 0.71946 0.19851 0.0
O94 O 0.77001 0.81922 0.29596 0.0
O95 O 0.72249 0.78186 0.29377 0.0
Zn96 Zn 0.28306 0.76824 0.27921 0.0
O97 O 0.25211 0.80726 0.3132 0.0
C98 C 0.21976 0.71186 0.29866 0.0
Zn99 Zn 0.25045 0.75679 0.23921 0.0
C100 C 0.22751 0.81649 0.30037 0.0
O101 O 0.22188 0.80052 0.27016 0.0
C102 C 0.30885 0.71097 0.21719 0.0
O103 O 0.28858 0.79525 0.20965 0.0
O104 O 0.31862 0.81019 0.2526 0.0
N105 N 0.21716 0.7523 0.20539 0.0
C106 C 0.2226 0.75003 0.17016 0.0
C107 C 0.16663 0.74109 0.18836 0.0
N108 N 0.1823 0.74767 0.21686 0.0
N109 N 0.19126 0.74214 0.15852 0.0
C110 C 0.32983 0.79324 0.33472 0.0
C111 C 0.34772 0.74384 0.33856 0.0
N112 N 0.31443 0.76771 0.31298 0.0
N113 N 0.32505 0.73695 0.31558 0.0
N114 N 0.35045 0.77887 0.35128 0.0
H115 H 0.31397 0.83771 0.31671 0.0
H116 H 0.35404 0.84681 0.33567 0.0
H117 H 0.31101 0.8428 0.36373 0.0
C118 C 0.32703 0.83233 0.33755 0.0
C119 C 0.25811 0.75844 0.14755 0.0
H120 H 0.2661 0.7872 0.15452 0.0
H121 H 0.25673 0.75331 0.11904 0.0
H122 H 0.27897 0.74324 0.1523 0.0
O123 O 0.28002 0.71344 0.20679 0.0
O124 O 0.3149 0.73037 0.24568 0.0
C125 C 0.31443 0.81428 0.22214 0.0
O126 O 0.24871 0.72829 0.30667 0.0
O127 O 0.21157 0.7175 0.27025 0.0
Zn128 Zn 0.28989 0.7564 0.73359 0.0
O129 O 0.2551 0.71727 0.70197 0.0
C130 C 0.24515 0.81705 0.73213 0.0
Zn131 Zn 0.249 0.77047 0.78108 0.0
C132 C 0.22218 0.71326 0.71654 0.0
O133 O 0.21321 0.73087 0.74805 0.0
C134 C 0.31597 0.81299 0.79847 0.0
O135 O 0.27042 0.72821 0.79916 0.0
O136 O 0.30864 0.71513 0.74986 0.0
N137 N 0.20665 0.77475 0.82197 0.0
C138 C 0.1976 0.75744 0.84938 0.0
C139 C 0.14952 0.7718 0.83913 0.0
N140 N 0.17674 0.7849 0.81652 0.0
N141 N 0.16174 0.75346 0.85954 0.0
C142 C 0.33567 0.76322 0.66162 0.0
C143 C 0.38781 0.76175 0.67209 0.0
N144 N 0.33172 0.75308 0.69304 0.0
N145 N 0.36415 0.75116 0.69912 0.0
N146 N 0.37062 0.7698 0.64827 0.0
H147 H 0.27966 0.75769 0.65711 0.0
H148 H 0.3108 0.76122 0.61679 0.0
H149 H 0.30362 0.80005 0.65028 0.0
C150 C 0.30548 0.77089 0.64577 0.0
C151 C 0.22326 0.74101 0.86444 0.0
H152 H 0.22532 0.71283 0.85122 0.0
H153 H 0.21302 0.74115 0.89302 0.0
H154 H 0.24999 0.75602 0.86129 0.0
O155 O 0.28293 0.80943 0.81262 0.0
O156 O 0.32531 0.79533 0.76706 0.0
C157 C 0.29589 0.71016 0.78096 0.0
O158 O 0.2708 0.79864 0.71561 0.0
O159 O 0.23011 0.81221 0.76288 0.0
Zn160 Zn 0.29673 0.28465 0.74746 0.0
O161 O 0.27698 0.29744 0.70639 0.0
C162 C 0.23274 0.31292 0.80027 0.0
Zn163 Zn 0.25355 0.2432 0.75941 0.0
C164 C 0.24714 0.28139 0.70089 0.0
O165 O 0.23248 0.25767 0.71873 0.0
C166 C 0.30298 0.24685 0.80621 0.0
O167 O 0.28557 0.20509 0.72314 0.0
O168 O 0.32872 0.24592 0.71121 0.0
N169 N 0.21257 0.20625 0.76683 0.0
C170 C 0.19825 0.18145 0.7432 0.0
C171 C 0.162 0.18423 0.79255 0.0
N172 N 0.19034 0.20769 0.79763 0.0
N173 N 0.16672 0.16712 0.75875 0.0
C174 C 0.34478 0.35485 0.75897 0.0
C175 C 0.39587 0.33596 0.73617 0.0
N176 N 0.33909 0.32156 0.74131 0.0
N177 N 0.37096 0.31026 0.72633 0.0
N178 N 0.38008 0.36412 0.75696 0.0
H179 H 0.29409 0.37669 0.76575 0.0
H180 H 0.32746 0.40623 0.78569 0.0
H181 H 0.30614 0.36964 0.8062 0.0
C182 C 0.31634 0.37812 0.78035 0.0
C183 C 0.21346 0.173 0.70426 0.0
H184 H 0.23248 0.19453 0.69513 0.0
H185 H 0.19189 0.16773 0.68835 0.0
H186 H 0.22786 0.14855 0.69894 0.0
O187 O 0.27409 0.22991 0.79914 0.0
O188 O 0.31715 0.27178 0.78977 0.0
C189 C 0.31676 0.21343 0.70693 0.0
O190 O 0.26314 0.32212 0.78319 0.0
O191 O 0.22179 0.28031 0.79661 0.0
Zn192 Zn 0.78487 0.26069 0.77787 0.0
O193 O 0.75738 0.30167 0.81297 0.0
C194 C 0.71853 0.21052 0.79499 0.0
Zn195 Zn 0.75111 0.26317 0.73997 0.0
C196 C 0.73264 0.31545 0.80452 0.0
O197 O 0.72454 0.30479 0.77429 0.0
C198 C 0.80383 0.20875 0.7127 0.0
O199 O 0.78795 0.30155 0.71229 0.0
O200 O 0.82279 0.30191 0.74998 0.0
N201 N 0.7169 0.26288 0.70762 0.0
C202 C 0.72006 0.25028 0.67283 0.0
C203 C 0.66481 0.2532 0.69398 0.0
N204 N 0.68256 0.2663 0.72059 0.0
N205 N 0.6876 0.24136 0.6639 0.0
C206 C 0.82031 0.2727 0.84379 0.0
C207 C 0.86927 0.24914 0.82188 0.0
N208 N 0.81954 0.25916 0.80967 0.0
N209 N 0.8496 0.24357 0.79634 0.0
N210 N 0.8515 0.26741 0.85208 0.0
H211 H 0.79416 0.32099 0.86173 0.0
H212 H 0.7953 0.29711 0.89634 0.0
H213 H 0.76509 0.28076 0.86604 0.0
C214 C 0.79205 0.29409 0.86846 0.0
C215 C 0.75452 0.2419 0.64777 0.0
H216 H 0.77755 0.25898 0.65667 0.0
H217 H 0.75259 0.24587 0.62101 0.0
H218 H 0.75918 0.21358 0.64542 0.0
O219 O 0.77828 0.22157 0.70463 0.0
O220 O 0.81168 0.21977 0.7429 0.0
C221 C 0.81717 0.31315 0.72297 0.0
O222 O 0.74811 0.22129 0.80535 0.0
O223 O 0.71291 0.22286 0.76861 0.0
Zn224 Zn 0.79656 0.79121 0.7566 0.0
O225 O 0.81669 0.77364 0.79506 0.0
C226 C 0.81803 0.7283 0.70416 0.0
Zn227 Zn 0.75276 0.74988 0.76026 0.0
C228 C 0.80317 0.74547 0.8061 0.0
O229 O 0.77589 0.72849 0.79512 0.0
C230 C 0.74475 0.79725 0.71236 0.0
O231 O 0.71835 0.78029 0.80416 0.0
O232 O 0.76083 0.82218 0.79548 0.0
N233 N 0.71705 0.70797 0.75667 0.0
C234 C 0.68134 0.70434 0.76634 0.0
C235 C 0.69924 0.65247 0.74834 0.0
N236 N 0.72814 0.67577 0.74468 0.0
N237 N 0.66946 0.66969 0.76195 0.0
C238 C 0.86538 0.84119 0.74561 0.0
C239 C 0.84782 0.88887 0.77859 0.0
N240 N 0.83178 0.834 0.76187 0.0
N241 N 0.82136 0.86336 0.78345 0.0
N242 N 0.8757 0.87634 0.75387 0.0
H243 H 0.88224 0.78931 0.74321 0.0
H244 H 0.91811 0.8221 0.73394 0.0
H245 H 0.88998 0.80409 0.70129 0.0
C246 C 0.89044 0.8126 0.72994 0.0
C247 C 0.65786 0.73452 0.78037 0.0
H248 H 0.65824 0.74412 0.80888 0.0
H249 H 0.62977 0.72571 0.77735 0.0
H250 H 0.6677 0.75695 0.7662 0.0
O251 O 0.72998 0.77095 0.72625 0.0
O252 O 0.77552 0.81065 0.71809 0.0
C253 C 0.72994 0.81273 0.81106 0.0
O254 O 0.83233 0.75875 0.71578 0.0
O255 O 0.7857 0.72008 0.71714 0.0
Co256 Co 0.06756 0.96431 0.52601 0.0
N257 N 0.08317 0.94197 0.5595 0.0
C258 C 0.06013 0.92613 0.58394 0.0
N259 N 0.11353 0.91997 0.59339 0.0
C260 C 0.11601 0.93801 0.56644 0.0
C261 C 0.07841 0.91263 0.60426 0.0
Co262 Co 0.98346 0.06514 0.47954 0.0
N263 N 0.97017 0.07344 0.43794 0.0
N264 N 0.94506 0.09185 0.3979 0.0
C265 C 0.96967 0.06933 0.38045 0.0
C266 C 0.98496 0.05812 0.40493 0.0
C267 C 0.94567 0.09395 0.43264 0.0
Co268 Co 0.02397 0.02352 0.50689 0.0
C269 C 0.97161 0.0881 0.53209 0.0
H270 H 1.00521 0.03934 0.39909 0.0
O271 O 0.0569 0.98385 0.49249 0.0
O272 O 0.0541 0.04879 0.46992 0.0
O273 O 0.05279 0.05086 0.54057 0.0
O274 O 0.99323 0.99931 0.5437 0.0
O275 O 0.01976 0.95 0.54152 0.0
O276 O 0.02373 0.09583 0.47292 0.0
O277 O 0.99248 0.06237 0.5221 0.0
O278 O 0.94651 0.03084 0.4848 0.0
O279 O 0.06493 1.00542 0.56122 0.0
O280 O 0.11014 0.98153 0.50761 0.0
O281 O 0.99195 0.99644 0.47389 0.0
O282 O 0.95828 0.09823 0.5086 0.0
C283 C 0.06246 0.03835 0.56415 0.0
C284 C 0.92228 0.11712 0.46159 0.0
H285 H 0.93933 0.13804 0.47586 0.0
H286 H 0.90389 0.13078 0.45122 0.0
H287 H 0.90607 0.10083 0.48039 0.0
C288 C 0.0526 0.08013 0.46415 0.0
C289 C 0.99234 0.96787 0.54972 0.0
H290 H 0.03145 0.92511 0.58798 0.0
H291 H 0.15323 0.94131 0.51815 0.0
H292 H 0.17409 0.9443 0.55595 0.0
H293 H 0.15208 0.98142 0.55106 0.0
C294 C 0.15097 0.95198 0.54685 0.0
C295 C 0.09191 0.98438 0.48377 0.0
C296 C 0.95869 1.00037 0.47541 0.0
H297 H 0.06675 0.89946 0.62634 0.0
H298 H 0.97506 0.06046 0.35206 0.0
Co299 Co 0.55911 0.95746 0.03873 0.0
N300 N 0.57299 0.93759 0.07212 0.0
C301 C 0.55328 0.90977 0.08457 0.0
N302 N 0.60338 0.91581 0.10486 0.0
C303 C 0.60372 0.94072 0.08493 0.0
C304 C 0.57175 0.89652 0.10475 0.0
Co305 Co 0.46988 0.05925 0.9767 0.0
N306 N 0.44968 0.07069 0.94226 0.0
N307 N 0.42607 0.10269 0.91235 0.0
C308 C 0.43179 0.07064 0.89195 0.0
C309 C 0.4467 0.05119 0.91014 0.0
C310 C 0.43719 0.10207 0.94278 0.0
Co311 Co 0.51837 0.01245 0.00813 0.0
C312 C 0.45326 0.0565 0.0285 0.0
H313 H 0.45553 0.02481 0.90005 0.0
O314 O 0.54964 0.97346 0.00359 0.0
O315 O 0.55405 0.03482 0.9677 0.0
O316 O 0.54562 0.04571 0.04552 0.0
O317 O 0.48095 0.99148 0.04795 0.0
O318 O 0.51132 0.95295 0.06294 0.0
O319 O 0.51527 0.06022 0.94635 0.0
O320 O 0.48618 0.05107 0.01224 0.0
O321 O 0.45707 1.01069 0.95843 0.0
O322 O 0.56783 1.00447 0.06569 0.0
O323 O 0.60254 0.96201 0.01236 0.0
O324 O 0.49334 0.97711 0.97121 0.0
O325 O 0.42978 0.05841 0.00917 0.0
C326 C 0.56422 0.03716 0.06645 0.0
C327 C 0.43613 0.13219 0.9737 0.0
H328 H 0.43621 0.12243 0.99836 0.0
H329 H 0.46038 0.15074 0.96901 0.0
H330 H 0.41212 0.14698 0.97696 0.0
C331 C 0.54729 0.05313 0.9454 0.0
C332 C 0.48217 0.96653 0.06552 0.0
H333 H 0.52788 0.89828 0.07764 0.0
H334 H 0.65172 0.95105 0.04839 0.0
H335 H 0.65402 0.97104 0.0932 0.0
H336 H 0.62844 0.98996 0.06898 0.0
C337 C 0.63617 0.96472 0.07351 0.0
C338 C 0.58369 0.97 0.99138 0.0
C339 C 0.46765 0.98031 0.95569 0.0
H340 H 0.56349 0.87325 0.11688 0.0
H341 H 0.42633 0.06224 0.86539 0.0
Co342 Co 0.06216 0.46274 0.03911 0.0
N343 N 0.07496 0.4464 0.07669 0.0
C344 C 0.05123 0.42884 0.09932 0.0
N345 N 0.10435 0.41895 0.10649 0.0
C346 C 0.10742 0.44024 0.08232 0.0
C347 C 0.06909 0.41233 0.11761 0.0
Co348 Co 0.97496 0.55943 0.97137 0.0
N349 N 0.95328 0.56879 0.93719 0.0
N350 N 0.93001 0.60221 0.90834 0.0
C351 C 0.9201 0.56772 0.89693 0.0
C352 C 0.93442 0.54725 0.9146 0.0
C353 C 0.95054 0.60197 0.9326 0.0
Co354 Co 0.02205 0.51393 0.00404 0.0
C355 C 0.96055 0.56204 0.02414 0.0
H356 H 0.93015 0.51866 0.91181 0.0
O357 O 0.05329 0.47417 1.00073 0.0
O358 O 0.05613 0.5316 0.96529 0.0
O359 O 0.04686 0.54693 0.03761 0.0
O360 O 0.98535 0.49741 0.04232 0.0
O361 O 1.015 0.46076 0.06074 0.0
O362 O 0.018 0.55142 0.93816 0.0
O363 O 0.99216 0.55357 0.00656 0.0
O364 O 0.95755 0.51226 0.96148 0.0
O365 O 0.07111 0.51011 0.06146 0.0
O366 O 0.10532 0.4663 0.01438 0.0
O367 O 0.99761 0.47986 0.97055 0.0
O368 O 0.93696 0.56638 0.00597 0.0
C369 C 0.06566 0.54115 0.05858 0.0
C370 C 0.96959 0.63389 0.95179 0.0
H371 H 0.99445 0.62638 0.95796 0.0
H372 H 0.97631 0.65533 0.93586 0.0
H373 H 0.95214 0.64389 0.97731 0.0
C374 C 0.04927 0.54408 0.93983 0.0
C375 C 0.98649 0.47437 0.06088 0.0
H376 H 0.02254 0.42553 0.10094 0.0
H377 H 0.15113 0.43981 0.03824 0.0
H378 H 0.16387 0.45644 0.08063 0.0
H379 H 0.14041 0.48345 0.06224 0.0
C380 C 0.14274 0.45591 0.06488 0.0
C381 C 0.08763 0.4696 0.99046 0.0
C382 C 0.96937 0.48283 0.95988 0.0
H383 H 0.05711 0.39461 0.13576 0.0
H384 H 0.90238 0.55801 0.87819 0.0
Co385 Co 0.56441 0.46078 0.0257 0.0
N386 N 0.58085 0.44403 0.06189 0.0
C387 C 0.56335 0.45122 0.0958 0.0
N388 N 0.60695 0.41929 0.0972 0.0
C389 C 0.60756 0.42421 0.06365 0.0
C390 C 0.57908 0.43637 0.11711 0.0
Co391 Co 0.46656 0.55176 0.98093 0.0
N392 N 0.44068 0.55911 0.94566 0.0
N393 N 0.41532 0.57969 0.90687 0.0
C394 C 0.39391 0.55252 0.91791 0.0
C395 C 0.40872 0.54073 0.94185 0.0
C396 C 0.44335 0.58377 0.92424 0.0
Co397 Co 0.51794 0.51558 0.00596 0.0
C398 C 0.46289 0.57532 0.03439 0.0
H399 H 0.39552 0.52032 0.95625 0.0
O400 O 0.55198 0.4768 0.9916 0.0
O401 O 0.54054 0.53751 0.96369 0.0
O402 O 0.5515 0.54747 0.03303 0.0
O403 O 0.49219 0.49492 0.04777 0.0
O404 O 0.51816 0.44455 0.04203 0.0
O405 O 0.50538 0.58206 0.96696 0.0
O406 O 0.48435 0.55126 0.01848 0.0
O407 O 0.43501 0.51337 0.99234 0.0
O408 O 0.55864 0.50334 0.05767 0.0
O409 O 0.60663 0.47866 0.00556 0.0
O410 O 0.48449 0.48429 0.97804 0.0
O411 O 0.44345 0.58539 0.01552 0.0
C412 C 0.56563 0.53522 0.05401 0.0
C413 C 0.47246 0.61332 0.9215 0.0
H414 H 0.47592 0.62747 0.94829 0.0
H415 H 0.49784 0.60209 0.90735 0.0
H416 H 0.46643 0.63277 0.90661 0.0
C417 C 0.53447 0.56644 0.95491 0.0
C418 C 0.49112 0.46278 0.05179 0.0
H419 H 0.53975 0.46585 0.10467 0.0
H420 H 0.62767 0.37912 0.02683 0.0
H421 H 0.6612 0.41383 0.03799 0.0
H422 H 0.63225 0.41929 0.00853 0.0
C423 C 0.63365 0.4084 0.03218 0.0
C424 C 0.58677 0.47678 0.98165 0.0
C425 C 0.45154 0.48582 0.97655 0.0
H426 H 0.5697 0.43663 0.1451 0.0
H427 H 0.36865 0.54242 0.90975 0.0
Co428 Co 0.06496 0.46423 0.54237 0.0
N429 N 0.08309 0.45158 0.57742 0.0
C430 C 0.07524 0.46448 0.61246 0.0
N431 N 0.11088 0.42191 0.60588 0.0
C432 C 0.1047 0.42549 0.5742 0.0
C433 C 0.09237 0.44621 0.63005 0.0
Co434 Co 0.96697 0.55807 0.47957 0.0
N435 N 0.94624 0.57498 0.44896 0.0
N436 N 0.92032 0.59631 0.41224 0.0
C437 C 0.89644 0.57313 0.4277 0.0
C438 C 0.9122 0.56055 0.45033 0.0
C439 C 0.95039 0.59759 0.4258 0.0
Co440 Co 1.01651 0.51066 0.50919 0.0
C441 C 0.97677 0.57814 0.52845 0.0
H442 H 0.89966 0.54163 0.467 0.0
O443 O 0.05144 0.47463 0.50555 0.0
O444 O 0.05144 0.5356 0.47135 0.0
O445 O 0.04025 0.5468 0.54751 0.0
O446 O 0.98126 0.4864 0.54777 0.0
O447 O 0.01796 0.45944 0.56989 0.0
O448 O 1.01515 0.56633 0.4528 0.0
O449 O 0.98072 0.54497 0.5133 0.0
O450 O 0.96166 0.51207 0.45267 0.0
O451 O 0.07397 0.51271 0.56408 0.0
O452 O 0.10671 0.46863 0.51319 0.0
O453 O 0.99224 0.4751 0.46995 0.0
O454 O 0.97301 0.59994 0.50825 0.0
C455 C 0.06423 0.54332 0.56545 0.0
C456 C 0.98332 0.62173 0.41697 0.0
H457 H 1.0045 0.61888 0.43142 0.0
H458 H 0.99356 0.61613 0.38803 0.0
H459 H 0.9762 0.6497 0.42399 0.0
C460 C 0.04655 0.55736 0.45166 0.0
C461 C 0.9865 0.46681 0.5694 0.0
H462 H 0.05726 0.48504 0.6245 0.0
H463 H 0.10076 0.3996 0.521 0.0
H464 H 0.12728 0.37764 0.54252 0.0
H465 H 0.14477 0.41836 0.52743 0.0
C466 C 0.12005 0.40368 0.53937 0.0
C467 C 0.08568 0.47321 0.4925 0.0
C468 C 0.97056 0.48084 0.45026 0.0
H469 H 0.09026 0.44943 0.65841 0.0
H470 H 0.86943 0.56583 0.42278 0.0
Co471 Co 0.55794 0.95304 0.53227 0.0
N472 N 0.56741 0.92998 0.56604 0.0
C473 C 0.5438 0.90402 0.57763 0.0
N474 N 0.59039 0.90514 0.60262 0.0
C475 C 0.59606 0.92976 0.58147 0.0
C476 C 0.55755 0.88918 0.60037 0.0
Co477 Co 0.48089 0.06223 0.47137 0.0
N478 N 0.46359 0.0742 0.43524 0.0
N479 N 0.43213 0.10208 0.40806 0.0
C480 C 0.44133 0.07117 0.38678 0.0
C481 C 0.46065 0.05417 0.40346 0.0
C482 C 0.44661 0.10351 0.43714 0.0
Co483 Co 0.52293 0.01237 0.50253 0.0
C484 C 0.46145 0.0622 0.52314 0.0
H485 H 0.4706 0.02821 0.39366 0.0
O486 O 0.55239 0.97142 0.4972 0.0
O487 O 0.56171 0.03867 0.47376 0.0
O488 O 0.54 0.03783 0.54521 0.0
O489 O 0.48207 0.98801 0.53091 0.0
O490 O 0.50993 0.9539 0.55474 0.0
O491 O 0.52512 0.05007 0.44085 0.0
O492 O 0.49366 0.05338 0.50793 0.0
O493 O 0.46029 0.01506 0.45934 0.0
O494 O 0.56872 0.99738 0.5595 0.0
O495 O 0.6023 0.9545 0.50783 0.0
O496 O 0.50702 0.98635 0.45942 0.0
O497 O 0.4416 0.07155 0.50378 0.0
C498 C 0.56011 0.02892 0.56341 0.0
C499 C 0.44548 0.13414 0.46772 0.0
H500 H 0.46854 0.13526 0.48103 0.0
H501 H 0.44555 0.1597 0.45878 0.0
H502 H 0.42087 0.13049 0.48764 0.0
C503 C 0.55526 0.05558 0.45114 0.0
C504 C 0.48192 0.96697 0.55204 0.0
H505 H 0.51828 0.89573 0.56945 0.0
H506 H 0.65023 0.93745 0.55508 0.0
H507 H 0.64139 0.96103 0.59985 0.0
H508 H 0.62652 0.97686 0.56526 0.0
C509 C 0.63031 0.95291 0.57514 0.0
C510 C 0.58614 0.96536 0.48621 0.0
C511 C 0.47754 0.98762 0.45024 0.0
H512 H 0.54468 0.86784 0.61391 0.0
H513 H 0.43332 0.06082 0.36152 0.0
H514 H 0.11714 0.13215 0.27847 0.0
H515 H 0.22585 0.13715 0.29506 0.0
H516 H 0.20483 0.11153 0.34929 0.0
H517 H 0.07905 0.16317 0.3576 0.0
H518 H 0.03817 0.13438 0.36133 0.0
H519 H 0.06165 0.14142 0.31859 0.0
H520 H 0.06593 0.07361 0.29717 0.0
H521 H 0.04162 0.06599 0.33973 0.0
H522 H 0.08451 0.04858 0.32239 0.0
H523 H 0.1706 0.09408 0.40611 0.0
H524 H 0.1254 0.08357 0.45918 0.0
H525 H 0.04132 0.10235 0.40769 0.0
C526 C 0.13634 0.1254 0.2924 0.0
C527 C 0.17276 0.13529 0.28275 0.0
C528 C 0.19782 0.12819 0.30197 0.0
C529 C 0.18612 0.11403 0.33278 0.0
C530 C 0.14946 0.10674 0.34321 0.0
C531 C 0.12498 0.11147 0.32315 0.0
C532 C 0.08702 0.10621 0.3422 0.0
C533 C 0.06528 0.13824 0.34511 0.0
C534 C 0.06869 0.07156 0.32432 0.0
C535 C 0.09414 0.10242 0.37746 0.0
C536 C 0.13001 0.10054 0.37711 0.0
C537 C 0.14237 0.09525 0.40663 0.0
C538 C 0.11685 0.09 0.43667 0.0
C539 C 0.08021 0.09239 0.43709 0.0
C540 C 0.06912 0.10011 0.40777 0.0
H541 H 0.87056 0.2109 0.28728 0.0
H542 H 0.76607 0.15658 0.31689 0.0
H543 H 0.79232 0.12092 0.34966 0.0
H544 H 0.9257 0.13913 0.27668 0.0
H545 H 0.96014 0.16553 0.29795 0.0
H546 H 0.9335 0.1861 0.27589 0.0
H547 H 0.91536 0.23141 0.33345 0.0
H548 H 0.94191 0.21091 0.3557 0.0
H549 H 0.8951 0.21551 0.37365 0.0
H550 H 0.82946 0.09106 0.37902 0.0
H551 H 0.87535 0.0696 0.40439 0.0
H552 H 0.95605 0.14375 0.35793 0.0
C553 C 0.85348 0.19092 0.30007 0.0
C554 C 0.81645 0.18564 0.29871 0.0
C555 C 0.79457 0.16047 0.31706 0.0
C556 C 0.80924 0.14024 0.33585 0.0
C557 C 0.84575 0.14606 0.33681 0.0
C558 C 0.86759 0.17106 0.3198 0.0
C559 C 0.90555 0.17338 0.32691 0.0
C560 C 0.93282 0.16554 0.29228 0.0
C561 C 0.91503 0.20997 0.34871 0.0
C562 C 0.90209 0.14423 0.34868 0.0
C563 C 0.86714 0.12935 0.35458 0.0
C564 C 0.8569 0.10245 0.37451 0.0
C565 C 0.88301 0.09033 0.3887 0.0
C566 C 0.91897 0.1048 0.38274 0.0
C567 C 0.92869 0.1321 0.36246 0.0
H568 H 0.90455 0.92067 0.29389 0.0
H569 H 0.88446 0.81802 0.32608 0.0
H570 H 0.89322 0.84584 0.3866 0.0
H571 H 0.97364 0.95049 0.34247 0.0
H572 H 0.96305 0.99603 0.35353 0.0
H573 H 0.95265 0.96867 0.31354 0.0
H574 H 0.88576 0.98148 0.33236 0.0
H575 H 0.89593 1.01006 0.37197 0.0
H576 H 0.86147 0.97394 0.37504 0.0
H577 H 0.91352 0.88409 0.44004 0.0
H578 H 0.93945 0.93119 0.48349 0.0
H579 H 0.93452 1.0087 0.41906 0.0
C580 C 0.90232 0.90434 0.31381 0.0
C581 C 0.89523 0.86756 0.30571 0.0
C582 C 0.89147 0.84638 0.33209 0.0
C583 C 0.8957 0.86191 0.36644 0.0
C584 C 0.903 0.89853 0.37371 0.0
C585 C 0.90591 0.91945 0.34823 0.0
C586 C 0.91638 0.95766 0.36192 0.0
C587 C 0.9536 0.96887 0.34167 0.0
C588 C 0.88814 0.9822 0.36023 0.0
C589 C 0.91775 0.95521 0.39939 0.0
C590 C 0.9111 0.9208 0.40558 0.0
C591 C 0.91758 0.91141 0.43615 0.0
C592 C 0.93217 0.93804 0.46055 0.0
C593 C 0.93837 0.97328 0.45437 0.0
C594 C 0.9296 0.98204 0.42438 0.0
H595 H 0.19619 0.82382 0.36937 0.0
H596 H 0.20785 0.87214 0.2768 0.0
H597 H 0.17103 0.92057 0.31221 0.0
H598 H 0.10283 0.84271 0.40228 0.0
H599 H 0.10781 0.84958 0.44788 0.0
H600 H 0.13496 0.8194 0.41487 0.0
H601 H 0.19263 0.85424 0.43334 0.0
H602 H 0.16555 0.88415 0.46654 0.0
H603 H 0.19955 0.90144 0.43375 0.0
H604 H 0.13632 0.96694 0.36117 0.0
H605 H 0.10515 1.00293 0.41689 0.0
H606 H 0.11175 0.9185 0.47292 0.0
C607 C 0.19093 0.84463 0.35664 0.0
C608 C 0.20499 0.84476 0.32071 0.0
C609 C 0.19719 0.87189 0.30452 0.0
C610 C 0.17636 0.8994 0.32438 0.0
C611 C 0.16282 0.89862 0.36003 0.0
C612 C 0.16938 0.87144 0.37569 0.0
C613 C 0.15133 0.87575 0.41396 0.0
C614 C 0.12252 0.84504 0.42009 0.0
C615 C 0.17892 0.87912 0.43831 0.0
C616 C 0.1347 0.91028 0.41791 0.0
C617 C 0.14145 0.92345 0.38681 0.0
C618 C 0.13045 0.95655 0.38554 0.0
C619 C 0.11276 0.9768 0.41711 0.0
C620 C 0.10641 0.96352 0.44903 0.0
C621 C 0.11658 0.92944 0.44886 0.0
H622 H 0.2146 0.79598 0.67386 0.0
H623 H 0.24039 0.88912 0.74957 0.0
H624 H 0.21458 0.92682 0.718 0.0
H625 H 0.22908 0.83655 0.5957 0.0
H626 H 0.19091 0.8119 0.57936 0.0
H627 H 0.2142 0.79299 0.60591 0.0
H628 H 0.15492 0.78422 0.65002 0.0
H629 H 0.13141 0.80272 0.62343 0.0
H630 H 0.12896 0.82173 0.66962 0.0
H631 H 0.1863 0.95427 0.67701 0.0
H632 H 0.14964 0.96772 0.63652 0.0
H633 H 0.13666 0.85595 0.59192 0.0
C634 C 0.21516 0.82442 0.68343 0.0
C635 C 0.23006 0.83996 0.71365 0.0
C636 C 0.22944 0.87696 0.7262 0.0
C637 C 0.21498 0.89848 0.70834 0.0
C638 C 0.2006 0.88241 0.67842 0.0
C639 C 0.19994 0.84607 0.66652 0.0
C640 C 0.18006 0.83485 0.63581 0.0
C641 C 0.20506 0.81808 0.60221 0.0
C642 C 0.14687 0.80938 0.6453 0.0
C643 C 0.16957 0.87052 0.63218 0.0
C644 C 0.18236 0.89776 0.65647 0.0
C645 C 0.17615 0.9331 0.65799 0.0
C646 C 0.15553 0.94061 0.63487 0.0
C647 C 0.14077 0.91294 0.61108 0.0
C648 C 0.14823 0.87755 0.60953 0.0
H649 H 0.16333 0.09959 0.7253 0.0
H650 H 0.11199 0.19779 0.74794 0.0
H651 H 0.07567 0.1739 0.70164 0.0
H652 H 0.17368 0.08651 0.63572 0.0
H653 H 0.1644 0.03888 0.62815 0.0
H654 H 0.18182 0.06109 0.66678 0.0
H655 H 0.12827 0.03287 0.70644 0.0
H656 H 0.1093 1.01087 0.66848 0.0
H657 H 0.08314 0.03969 0.70372 0.0
H658 H 0.05332 0.14339 0.64699 0.0
H659 H 0.03979 0.10453 0.59212 0.0
H660 H 0.10478 0.02562 0.60695 0.0
C661 C 0.14296 0.11502 0.72159 0.0
C662 C 0.13921 0.1498 0.74044 0.0
C663 C 0.11385 0.17052 0.73426 0.0
C664 C 0.0936 0.15735 0.70787 0.0
C665 C 0.09891 0.12333 0.68858 0.0
C666 C 0.12239 0.10211 0.69561 0.0
C667 C 0.12497 0.06754 0.66952 0.0
C668 C 0.1635 0.0633 0.64883 0.0
C669 C 0.11058 0.03587 0.68816 0.0
C670 C 0.10033 0.07324 0.64605 0.0
C671 C 0.08556 0.10554 0.65736 0.0
C672 C 0.06402 0.11765 0.63827 0.0
C673 C 0.05678 0.09566 0.60709 0.0
C674 C 0.07106 0.06215 0.59577 0.0
C675 C 0.09308 0.05093 0.61545 0.0
H676 H 0.82917 0.1422 0.70114 0.0
H677 H 0.8426 0.24183 0.6627 0.0
H678 H 0.89871 0.22403 0.62313 0.0
H679 H 0.92598 0.13008 0.69197 0.0
H680 H 0.9208 0.08292 0.67566 0.0
H681 H 0.8845 0.1049 0.70584 0.0
H682 H 0.84176 0.08135 0.66126 0.0
H683 H 0.87765 0.05842 0.6319 0.0
H684 H 0.85499 0.08902 0.61644 0.0
H685 H 0.95365 0.19843 0.59099 0.0
H686 H 0.99034 0.157 0.54636 0.0
H687 H 0.93663 0.0689 0.59516 0.0
C688 C 0.84393 0.15987 0.684 0.0
C689 C 0.83194 0.19331 0.68468 0.0
C690 C 0.85147 0.21597 0.66209 0.0
C691 C 0.88371 0.20646 0.64023 0.0
C692 C 0.89568 0.17394 0.6409 0.0
C693 C 0.87567 0.15012 0.66071 0.0
C694 C 0.8921 0.11461 0.65162 0.0
C695 C 0.9067 0.10772 0.68316 0.0
C696 C 0.86502 0.08406 0.63954 0.0
C697 C 0.9227 0.12164 0.62173 0.0
C698 C 0.92576 0.15699 0.61841 0.0
C699 C 0.95154 0.17064 0.59308 0.0
C700 C 0.97257 0.14695 0.56813 0.0
C701 C 0.96606 0.10996 0.56743 0.0
C702 C 0.94254 0.09714 0.59572 0.0
H703 H 0.92758 0.8569 0.69454 0.0
H704 H 0.86744 0.94593 0.75362 0.0
H705 H 0.88046 0.97336 0.7009 0.0
H706 H 0.99482 0.90549 0.64547 0.0
H707 H 0.99786 0.87072 0.60678 0.0
H708 H 0.98317 0.8597 0.64993 0.0
H709 H 0.92571 0.82697 0.62885 0.0
H710 H 0.93985 0.84006 0.58627 0.0
H711 H 0.89692 0.85115 0.61267 0.0
H712 H 0.89827 0.99055 0.64236 0.0
H713 H 0.93597 1.00487 0.58761 0.0
H714 H 0.97857 0.90148 0.56549 0.0
C715 C 0.91618 0.88159 0.69697 0.0
C716 C 0.8941 0.89749 0.72817 0.0
C717 C 0.8833 0.93205 0.72986 0.0
C718 C 0.88991 0.94771 0.69984 0.0
C719 C 0.90779 0.92882 0.66856 0.0
C720 C 0.92179 0.89713 0.66722 0.0
C721 C 0.94294 0.88359 0.6312 0.0
C722 C 0.98201 0.87973 0.63348 0.0
C723 C 0.92527 0.84836 0.61374 0.0
C724 C 0.93984 0.91362 0.61285 0.0
C725 C 0.91857 0.93894 0.63457 0.0
C726 C 0.9149 0.97096 0.62497 0.0
C727 C 0.93633 0.9788 0.59379 0.0
C728 C 0.96117 0.9548 0.57339 0.0
C729 C 0.96039 0.92061 0.58123 0.0
H730 H 0.31867 0.15634 0.18877 0.0
H731 H 0.38527 0.25232 0.16949 0.0
H732 H 0.43045 0.21611 0.12842 0.0
H733 H 0.39427 0.10222 0.18307 0.0
H734 H 0.3726 0.06212 0.16148 0.0
H735 H 0.34612 0.09499 0.19181 0.0
H736 H 0.31053 0.09929 0.14342 0.0
H737 H 0.33615 0.06577 0.11346 0.0
H738 H 0.33458 0.1081 0.10109 0.0
H739 H 0.4687 0.16997 0.08953 0.0
H740 H 0.49138 0.11842 0.04602 0.0
H741 H 0.39882 0.05182 0.08598 0.0
C742 C 0.34281 0.16969 0.17594 0.0
C743 C 0.34866 0.2073 0.18294 0.0
C744 C 0.38051 0.22366 0.16536 0.0
C745 C 0.40643 0.20325 0.14197 0.0
C746 C 0.40038 0.16632 0.13641 0.0
C747 C 0.36914 0.14962 0.15241 0.0
C748 C 0.36861 0.10953 0.14013 0.0
C749 C 0.37049 0.09112 0.17095 0.0
C750 C 0.33551 0.09483 0.12351 0.0
C751 C 0.40317 0.1066 0.1129 0.0
C752 C 0.42183 0.13959 0.11254 0.0
C753 C 0.45445 0.14398 0.08978 0.0
C754 C 0.46747 0.11432 0.06547 0.0
C755 C 0.44733 0.08086 0.06309 0.0
C756 C 0.41525 0.0768 0.08787 0.0
H757 H 0.9042 0.28781 0.08541 0.0
H758 H 0.83393 0.33837 0.17809 0.0
H759 H 0.84772 0.39594 0.15788 0.0
H760 H 0.97129 0.35296 0.08754 0.0
H761 H 0.98469 0.34937 0.0403 0.0
H762 H 0.96249 0.31167 0.05836 0.0
H763 H 0.91558 0.30733 0.01909 0.0
H764 H 0.93512 0.34675 1.00206 0.0
H765 H 0.88858 0.34364 0.0236 0.0
H766 H 0.87961 0.44896 0.1357 0.0
H767 H 0.92746 0.49249 0.11257 0.0
H768 H 0.97419 0.4073 0.03296 0.0
C769 C 0.89093 0.31089 0.10046 0.0
C770 C 0.86757 0.30901 0.13246 0.0
C771 C 0.85129 0.33963 0.15279 0.0
C772 C 0.85883 0.37225 0.14153 0.0
C773 C 0.88265 0.37363 0.10991 0.0
C774 C 0.89833 0.34367 0.0896 0.0
C775 C 0.92688 0.35294 0.05967 0.0
C776 C 0.96346 0.34106 0.06165 0.0
C777 C 0.9159 0.33679 0.02395 0.0
C778 C 0.92643 0.39292 0.06772 0.0
C779 C 0.90037 0.40454 0.0964 0.0
C780 C 0.89934 0.44045 0.11242 0.0
C781 C 0.92648 0.46493 0.09942 0.0
C782 C 0.95386 0.45273 0.07125 0.0
C783 C 0.95292 0.41687 0.05443 0.0
H784 H 0.71527 0.78029 0.15355 0.0
H785 H 0.75639 0.86956 0.22526 0.0
H786 H 0.72659 0.9106 0.20229 0.0
H787 H 0.72418 0.83083 0.0794 0.0
H788 H 0.68403 0.80811 0.06554 0.0
H789 H 0.71124 0.78556 0.08526 0.0
H790 H 0.65606 0.77197 0.13263 0.0
H791 H 0.62875 0.79434 0.11306 0.0
H792 H 0.63126 0.80808 0.15923 0.0
H793 H 0.68627 0.94048 0.17861 0.0
H794 H 0.6399 0.95832 0.15129 0.0
H795 H 0.62915 0.85177 0.09079 0.0
C796 C 0.71846 0.80855 0.16372 0.0
C797 C 0.73828 0.822 0.19072 0.0
C798 C 0.7418 0.85899 0.20397 0.0
C799 C 0.72497 0.88249 0.19121 0.0
C800 C 0.7055 0.86859 0.16466 0.0
C801 C 0.70258 0.83264 0.15055 0.0
C802 C 0.67902 0.82483 0.12289 0.0
C803 C 0.70093 0.81155 0.08609 0.0
C804 C 0.64688 0.79825 0.13257 0.0
C805 C 0.66752 0.86164 0.12546 0.0
C806 C 0.68343 0.88653 0.14943 0.0
C807 C 0.67449 0.92165 0.15882 0.0
C808 C 0.64842 0.93161 0.1432 0.0
C809 C 0.63224 0.9066 0.11836 0.0
C810 C 0.64203 0.87136 0.10922 0.0
H811 H 0.13206 0.7372 0.13117 0.0
H812 H 0.2355 0.69506 0.11492 0.0
H813 H 0.21538 0.64306 0.07614 0.0
H814 H 0.08874 0.66748 0.15186 0.0
H815 H 0.04964 0.66493 0.13216 0.0
H816 H 0.07402 0.70711 0.1432 0.0
H817 H 0.08394 0.71751 0.0787 0.0
H818 H 0.05785 0.67607 0.06746 0.0
H819 H 0.10243 0.68374 0.04288 0.0
H820 H 0.18113 0.58869 0.06092 0.0
H821 H 0.13603 0.53832 0.05492 0.0
H822 H 0.05142 0.61014 0.08472 0.0
C823 C 0.15102 0.71811 0.11715 0.0
C824 C 0.18559 0.72104 0.12537 0.0
C825 C 0.20957 0.69492 0.10797 0.0
C826 C 0.19805 0.66452 0.08614 0.0
C827 C 0.1624 0.66031 0.08246 0.0
C828 C 0.13922 0.68674 0.09655 0.0
C829 C 0.10062 0.67243 0.0958 0.0
C830 C 0.07692 0.67835 0.13296 0.0
C831 C 0.08531 0.68837 0.06963 0.0
C832 C 0.10574 0.63354 0.08237 0.0
C833 C 0.14158 0.62735 0.07436 0.0
C834 C 0.15302 0.59326 0.06596 0.0
C835 C 0.12716 0.56472 0.06388 0.0
C836 C 0.09042 0.5705 0.0704 0.0
C837 C 0.07949 0.60527 0.07997 0.0
H838 H 0.30925 0.87434 0.85262 0.0
H839 H 0.3868 0.80143 0.79213 0.0
H840 H 0.43225 0.83315 0.82655 0.0
H841 H 0.37358 0.95318 0.85604 0.0
H842 H 0.35332 0.97351 0.89997 0.0
H843 H 0.32632 0.94421 0.87182 0.0
H844 H 0.30557 0.90547 0.92004 0.0
H845 H 0.33269 0.93457 0.94824 0.0
H846 H 0.33859 0.88765 0.93711 0.0
H847 H 0.47011 0.87263 0.87135 0.0
H848 H 0.49707 0.91922 0.91432 0.0
H849 H 0.39793 0.97085 0.94194 0.0
C850 C 0.3358 0.86501 0.8465 0.0
C851 C 0.34385 0.83474 0.81919 0.0
C852 C 0.3794 0.82424 0.81241 0.0
C853 C 0.40559 0.84217 0.83217 0.0
C854 C 0.39683 0.87163 0.85879 0.0
C855 C 0.36286 0.88343 0.86546 0.0
C856 C 0.36098 0.91703 0.8942 0.0
C857 C 0.35307 0.94886 0.87963 0.0
C858 C 0.33277 0.9108 0.92683 0.0
C859 C 0.39885 0.92215 0.90283 0.0
C860 C 0.41901 0.89529 0.88258 0.0
C861 C 0.45438 0.89384 0.88694 0.0
C862 C 0.46959 0.92048 0.91178 0.0
C863 C 0.45013 0.94925 0.93203 0.0
C864 C 0.41402 0.94956 0.92714 0.0
H865 H 0.20838 0.32105 0.87126 0.0
H866 H 0.20452 0.36496 0.77908 0.0
H867 H 0.16244 0.40821 0.81599 0.0
H868 H 0.11794 0.32908 0.91593 0.0
H869 H 0.12944 0.34287 0.95922 0.0
H870 H 0.15786 0.31499 0.92508 0.0
H871 H 0.21229 0.36092 0.93319 0.0
H872 H 0.18402 0.38873 0.96756 0.0
H873 H 0.20937 0.40648 0.93002 0.0
H874 H 0.11969 0.44762 0.86546 0.0
H875 H 0.08707 0.48094 0.92163 0.0
H876 H 0.12122 0.40975 0.97898 0.0
C877 C 0.19857 0.33979 0.85895 0.0
C878 C 0.20939 0.33983 0.82252 0.0
C879 C 0.19651 0.36487 0.80717 0.0
C880 C 0.17249 0.38932 0.82787 0.0
C881 C 0.16214 0.38868 0.86396 0.0
C882 C 0.17534 0.36478 0.87932 0.0
C883 C 0.16227 0.37068 0.9188 0.0
C884 C 0.14058 0.33742 0.93041 0.0
C885 C 0.19386 0.3824 0.93855 0.0
C886 C 0.13879 0.40077 0.92321 0.0
C887 C 0.13887 0.41121 0.89162 0.0
C888 C 0.11965 0.43963 0.89036 0.0
C889 C 0.10098 0.45842 0.9224 0.0
C890 C 0.10197 0.4487 0.95506 0.0
C891 C 0.12027 0.41868 0.95475 0.0
H892 H 0.71638 0.18326 0.85823 0.0
H893 H 0.65673 0.17686 0.77397 0.0
H894 H 0.61161 0.13425 0.80102 0.0
H895 H 0.69687 0.0891 0.86849 0.0
H896 H 0.69191 0.09818 0.91599 0.0
H897 H 0.72087 0.12762 0.89008 0.0
H898 H 0.68618 0.1808 0.92584 0.0
H899 H 0.65732 0.15159 0.95203 0.0
H900 H 0.63828 0.17865 0.92912 0.0
H901 H 0.57227 0.09088 0.83629 0.0
H902 H 0.53846 0.05566 0.8795 0.0
H903 H 0.61868 0.08931 0.94586 0.0
C904 C 0.69391 0.17282 0.8453 0.0
C905 C 0.69097 0.18397 0.81313 0.0
C906 C 0.66048 0.16934 0.79803 0.0
C907 C 0.63445 0.14476 0.81337 0.0
C908 C 0.63825 0.13431 0.84454 0.0
C909 C 0.66704 0.14809 0.86069 0.0
C910 C 0.66357 0.13275 0.89485 0.0
C911 C 0.6952 0.11061 0.8922 0.0
C912 C 0.6612 0.16274 0.9274 0.0
C913 C 0.62819 0.10871 0.89563 0.0
C914 C 0.61468 0.10983 0.86576 0.0
C915 C 0.5828 0.09006 0.85967 0.0
C916 C 0.56369 0.06966 0.88466 0.0
C917 C 0.5753 0.06847 0.91666 0.0
C918 C 0.60881 0.08831 0.92172 0.0
H919 H 0.83645 0.68506 0.78648 0.0
H920 H 0.81395 0.77376 0.87274 0.0
H921 H 0.84908 0.7492 0.9078 0.0
H922 H 0.83197 0.61793 0.83645 0.0
H923 H 0.86897 0.59564 0.80798 0.0
H924 H 0.84264 0.6208 0.79015 0.0
H925 H 0.90022 0.65817 0.76662 0.0
H926 H 0.92675 0.63326 0.78462 0.0
H927 H 0.92874 0.68103 0.79683 0.0
H928 H 0.88075 0.71097 0.93497 0.0
H929 H 0.90936 0.66424 0.95123 0.0
H930 H 0.91834 0.60533 0.84387 0.0
C931 C 0.83879 0.699 0.8129 0.0
C932 C 0.82205 0.73053 0.82769 0.0
C933 C 0.82628 0.74907 0.86165 0.0
C934 C 0.84628 0.73549 0.88148 0.0
C935 C 0.86258 0.70412 0.8662 0.0
C936 C 0.85947 0.68642 0.83248 0.0
C937 C 0.87969 0.65343 0.82197 0.0
C938 C 0.8543 0.61998 0.81367 0.0
C939 C 0.91069 0.65669 0.79066 0.0
C940 C 0.89345 0.65446 0.8556 0.0
C941 C 0.8834 0.68388 0.8808 0.0
C942 C 0.88989 0.68846 0.91512 0.0
C943 C 0.90664 0.66196 0.92401 0.0
C944 C 0.91732 0.63173 0.89843 0.0
C945 C 0.91109 0.62848 0.86373 0.0
H946 H 0.1983 0.33811 0.2311 0.0
H947 H 0.27696 0.30028 0.139 0.0
H948 H 0.24665 0.32751 0.1017 0.0
H949 H 0.1228 0.32309 0.18788 0.0
H950 H 0.10214 0.36225 0.21311 0.0
H951 H 0.13039 0.34036 0.23221 0.0
H952 H 0.17 0.39931 0.24449 0.0
H953 H 0.14178 0.42143 0.22557 0.0
H954 H 0.1893 0.42247 0.2086 0.0
H955 H 0.20541 0.35576 0.07472 0.0
H956 H 0.15886 0.38664 0.06019 0.0
H957 H 0.10967 0.40891 0.17101 0.0
C958 C 0.20928 0.33609 0.20312 0.0
C959 C 0.23993 0.31781 0.18756 0.0
C960 C 0.25365 0.31483 0.15103 0.0
C961 C 0.23655 0.32997 0.12982 0.0
C962 C 0.20609 0.34785 0.14593 0.0
C963 C 0.19273 0.35116 0.1818 0.0
C964 C 0.15956 0.37142 0.19268 0.0
C965 C 0.1268 0.34786 0.20732 0.0
C966 C 0.16555 0.40569 0.21941 0.0
C967 C 0.15648 0.37939 0.15737 0.0
C968 C 0.18327 0.36522 0.13067 0.0
C969 C 0.18486 0.36774 0.09552 0.0
C970 C 0.15863 0.38567 0.08758 0.0
C971 C 0.13179 0.40146 0.11479 0.0
C972 C 0.13051 0.39779 0.14997 0.0
H973 H 0.14152 0.73135 0.92242 0.0
H974 H 0.14705 0.69902 0.80939 0.0
H975 H 0.12823 0.63709 0.81678 0.0
H976 H 0.17308 0.65308 0.93894 0.0
H977 H 0.14165 0.65142 0.97971 0.0
H978 H 0.15636 0.69348 0.96593 0.0
H979 H 0.09055 0.70613 0.96928 0.0
H980 H 0.07567 0.66467 0.98406 0.0
H981 H 0.06181 0.67364 0.94572 0.0
H982 H 0.10461 0.58068 0.83625 0.0
H983 H 0.07183 0.53386 0.8683 0.0
H984 H 0.08677 0.6007 0.96781 0.0
C985 C 0.13812 0.71114 0.89955 0.0
C986 C 0.14484 0.71961 0.86553 0.0
C987 C 0.14088 0.69276 0.83576 0.0
C988 C 0.13091 0.65759 0.83961 0.0
C989 C 0.12515 0.64978 0.87341 0.0
C990 C 0.12801 0.67575 0.90297 0.0
C991 C 0.11773 0.66044 0.93646 0.0
C992 C 0.1491 0.66487 0.95641 0.0
C993 C 0.08447 0.6772 0.96026 0.0
C994 C 0.10911 0.62187 0.92091 0.0
C995 C 0.11346 0.61628 0.88448 0.0
C996 C 0.10204 0.58417 0.86467 0.0
C997 C 0.08388 0.55765 0.88284 0.0
C998 C 0.07849 0.56349 0.92004 0.0
C999 C 0.0926 0.59516 0.93913 0.0
H1000 H 0.2947 0.18092 0.82232 0.0
H1001 H 0.35669 0.28276 0.8396 0.0
H1002 H 0.39373 0.25751 0.87211 0.0
H1003 H 0.29582 0.15334 0.90492 0.0
H1004 H 0.3014 0.10768 0.88406 0.0
H1005 H 0.27797 0.13492 0.86539 0.0
H1006 H 0.32144 0.12078 0.80535 0.0
H1007 H 0.3451 0.09368 0.82389 0.0
H1008 H 0.36902 0.12986 0.8038 0.0
H1009 H 0.42621 0.21957 0.89907 0.0
H1010 H 0.45152 0.17209 0.91832 0.0
H1011 H 0.36811 0.0958 0.88224 0.0
C1012 C 0.31541 0.19826 0.83377 0.0
C1013 C 0.32246 0.23397 0.82919 0.0
C1014 C 0.35066 0.25544 0.84335 0.0
C1015 C 0.37179 0.24132 0.86173 0.0
C1016 C 0.36448 0.20572 0.86518 0.0
C1017 C 0.33701 0.1845 0.85148 0.0
C1018 C 0.33626 0.14645 0.8562 0.0
C1019 C 0.30075 0.13495 0.87902 0.0
C1020 C 0.34339 0.12123 0.82018 0.0
C1021 C 0.36723 0.14964 0.87534 0.0
C1022 C 0.38329 0.18393 0.88023 0.0
C1023 C 0.41346 0.19279 0.89598 0.0
C1024 C 0.42743 0.16583 0.90712 0.0
C1025 C 0.41101 0.13073 0.90258 0.0
C1026 C 0.38072 0.12263 0.88637 0.0
H1027 H 0.89279 0.32214 0.83126 0.0
H1028 H 0.8473 0.27385 0.92257 0.0
H1029 H 0.86956 0.32749 0.9618 0.0
H1030 H 0.97246 0.36459 0.85876 0.0
H1031 H 0.97107 0.4038 0.84072 0.0
H1032 H 0.95147 0.3617 0.82099 0.0
H1033 H 0.89111 0.38963 0.82923 0.0
H1034 H 0.91041 0.43167 0.84969 0.0
H1035 H 0.87043 0.4107 0.87273 0.0
H1036 H 0.89346 0.38753 0.98983 0.0
H1037 H 0.92877 0.44467 0.00505 0.0
H1038 H 0.95857 0.45228 0.89436 0.0
C1039 C 0.88857 0.32264 0.85947 0.0
C1040 C 0.86943 0.29415 0.87436 0.0
C1041 C 0.86279 0.29554 0.91122 0.0
C1042 C 0.87477 0.32588 0.93342 0.0
C1043 C 0.89273 0.35408 0.91782 0.0
C1044 C 0.89992 0.35253 0.88167 0.0
C1045 C 0.9198 0.38611 0.87129 0.0
C1046 C 0.95585 0.37858 0.8465 0.0
C1047 C 0.89654 0.40567 0.85476 0.0
C1048 C 0.92473 0.40609 0.90721 0.0
C1049 C 0.90782 0.38775 0.93379 0.0
C1050 C 0.90804 0.40132 0.96928 0.0
C1051 C 0.92799 0.43348 0.97765 0.0
C1052 C 0.947 0.45115 0.95055 0.0
C1053 C 0.94456 0.43827 0.91513 0.0
H1054 H 0.66857 0.80657 0.86255 0.0
H1055 H 0.73979 0.883 0.80843 0.0
H1056 H 0.70322 0.93106 0.84221 0.0
H1057 H 0.58485 0.84721 0.87101 0.0
H1058 H 0.56782 0.83919 0.9153 0.0
H1059 H 0.59791 0.80961 0.88499 0.0
H1060 H 0.64127 0.81991 0.92956 0.0
H1061 H 0.61093 0.84879 0.96024 0.0
H1062 H 0.65697 0.86471 0.94692 0.0
H1063 H 0.66281 0.97235 0.88568 0.0
H1064 H 0.62383 1.00311 0.93889 0.0
H1065 H 0.57652 0.90115 0.96315 0.0
C1066 C 0.67619 0.83336 0.85765 0.0
C1067 C 0.70714 0.84084 0.83279 0.0
C1068 C 0.71642 0.87644 0.8275 0.0
C1069 C 0.6956 0.90405 0.84635 0.0
C1070 C 0.66535 0.89596 0.87064 0.0
C1071 C 0.65578 0.86158 0.87665 0.0
C1072 C 0.62378 0.86083 0.90656 0.0
C1073 C 0.59168 0.83784 0.89367 0.0
C1074 C 0.63384 0.8478 0.93765 0.0
C1075 C 0.61686 0.89999 0.9161 0.0
C1076 C 0.64116 0.91986 0.89507 0.0
C1077 C 0.64293 0.95706 0.90175 0.0
C1078 C 0.6204 0.97442 0.9317 0.0
C1079 C 0.59609 0.95451 0.95404 0.0
C1080 C 0.5935 0.91691 0.94528 0.0
H1081 H 0.82283 0.64683 0.18622 0.0
H1082 H 0.86498 0.74521 0.14945 0.0
H1083 H 0.91561 0.71524 0.11059 0.0
H1084 H 0.91292 0.61602 0.18167 0.0
H1085 H 0.89913 0.56996 0.16713 0.0
H1086 H 0.86725 0.59924 0.19529 0.0
H1087 H 0.82491 0.58374 0.1495 0.0
H1088 H 0.85603 0.55354 0.12218 0.0
H1089 H 0.84236 0.58823 0.10418 0.0
H1090 H 0.96287 0.67657 0.07774 0.0
H1091 H 0.99227 0.62728 0.03643 0.0
H1092 H 0.91694 0.55157 0.08708 0.0
C1093 C 0.84248 0.66177 0.16954 0.0
C1094 C 0.84007 0.69844 0.17101 0.0
C1095 C 0.86648 0.71721 0.14904 0.0
C1096 C 0.89564 0.70056 0.12721 0.0
C1097 C 0.89832 0.66498 0.12756 0.0
C1098 C 0.87202 0.64539 0.1472 0.0
C1099 C 0.88045 0.60672 0.14009 0.0
C1100 C 0.8905 0.59742 0.173 0.0
C1101 C 0.84907 0.58159 0.12823 0.0
C1102 C 0.91321 0.60716 0.11066 0.0
C1103 C 0.92452 0.64162 0.10607 0.0
C1104 C 0.95432 0.64945 0.08103 0.0
C1105 C 0.97128 0.62119 0.05803 0.0
C1106 C 0.95707 0.58567 0.05881 0.0
C1107 C 0.9288 0.57846 0.08655 0.0
H1108 H 0.35361 0.80823 0.15175 0.0
H1109 H 0.3289 0.88523 0.24822 0.0
H1110 H 0.36387 0.93258 0.21819 0.0
H1111 H 0.44657 0.84569 0.129 0.0
H1112 H 0.44756 0.8358 0.08198 0.0
H1113 H 0.41873 0.80857 0.11029 0.0
H1114 H 0.36429 0.8203 0.08576 0.0
H1115 H 0.39297 0.84784 0.05763 0.0
H1116 H 0.35452 0.86545 0.08807 0.0
H1117 H 0.40106 0.97395 0.17496 0.0
H1118 H 0.44315 1.00093 0.12839 0.0
H1119 H 0.45074 0.89696 0.0618 0.0
C1120 C 0.3554 0.83509 0.16658 0.0
C1121 C 0.33753 0.84257 0.20278 0.0
C1122 C 0.34173 0.87828 0.22079 0.0
C1123 C 0.36163 0.90562 0.2037 0.0
C1124 C 0.37865 0.8975 0.16818 0.0
C1125 C 0.37645 0.86275 0.1501 0.0
C1126 C 0.39962 0.86063 0.11296 0.0
C1127 C 0.42991 0.83622 0.10828 0.0
C1128 C 0.37646 0.84778 0.08442 0.0
C1129 C 0.41471 0.89942 0.11268 0.0
C1130 C 0.40172 0.92048 0.14459 0.0
C1131 C 0.41128 0.95734 0.15006 0.0
C1132 C 0.43507 0.97275 0.12308 0.0
C1133 C 0.45011 0.95174 0.09052 0.0
C1134 C 0.4394 0.91435 0.08577 0.0
H1135 H 0.70769 0.19593 0.14805 0.0
H1136 H 0.6802 0.15095 0.24366 0.0
H1137 H 0.6372 0.10656 0.21619 0.0
H1138 H 0.61486 0.18487 0.1313 0.0
H1139 H 0.6274 0.17461 0.08382 0.0
H1140 H 0.65759 0.20238 0.10969 0.0
H1141 H 0.70737 0.16008 0.08162 0.0
H1142 H 0.67742 0.13233 0.05552 0.0
H1143 H 0.69875 0.11342 0.08367 0.0
H1144 H 0.59723 0.06515 0.17823 0.0
H1145 H 0.56273 0.03126 0.13419 0.0
H1146 H 0.61009 0.10235 0.06144 0.0
C1147 C 0.69284 0.17652 0.16312 0.0
C1148 C 0.69826 0.17724 0.19852 0.0
C1149 C 0.67723 0.15149 0.21693 0.0
C1150 C 0.65249 0.12593 0.20134 0.0
C1151 C 0.64755 0.12612 0.16697 0.0
C1152 C 0.66689 0.15095 0.14803 0.0
C1153 C 0.65477 0.14572 0.11194 0.0
C1154 C 0.63766 0.17888 0.109 0.0
C1155 C 0.68647 0.13739 0.08137 0.0
C1156 C 0.62651 0.11357 0.11319 0.0
C1157 C 0.62301 0.103 0.14546 0.0
C1158 C 0.59962 0.07369 0.15318 0.0
C1159 C 0.57973 0.0545 0.12772 0.0
C1160 C 0.58213 0.06396 0.09405 0.0
C1161 C 0.60615 0.09451 0.08701 0.0
H1162 H 0.64865 0.69142 0.83154 0.0
H1163 H 0.62773 0.61086 0.74222 0.0
H1164 H 0.58925 0.57491 0.78346 0.0
H1165 H 0.65905 0.6343 0.88303 0.0
H1166 H 0.63902 0.65959 0.92475 0.0
H1167 H 0.65984 0.68198 0.88883 0.0
H1168 H 0.60119 0.71085 0.8916 0.0
H1169 H 0.58065 0.6899 0.92867 0.0
H1170 H 0.55981 0.68314 0.89032 0.0
H1171 H 0.56472 0.54391 0.83376 0.0
H1172 H 0.54184 0.52448 0.89084 0.0
H1173 H 0.57415 0.62843 0.94686 0.0
C1174 C 0.634 0.66749 0.82045 0.0
C1175 C 0.63977 0.65432 0.78376 0.0
C1176 C 0.62253 0.62146 0.77032 0.0
C1177 C 0.60109 0.60094 0.79346 0.0
C1178 C 0.59744 0.61409 0.82964 0.0
C1179 C 0.61263 0.64702 0.84305 0.0
C1180 C 0.60737 0.65381 0.88291 0.0
C1181 C 0.64346 0.65765 0.89559 0.0
C1182 C 0.58594 0.68634 0.89933 0.0
C1183 C 0.58622 0.61969 0.8899 0.0
C1184 C 0.58183 0.59671 0.85879 0.0
C1185 C 0.56684 0.56202 0.85832 0.0
C1186 C 0.55425 0.55119 0.89072 0.0
C1187 C 0.55578 0.57548 0.92266 0.0
C1188 C 0.5725 0.60982 0.92246 0.0
H1189 H 0.31887 0.72206 0.84494 0.0
H1190 H 0.3141 0.64414 0.74917 0.0
H1191 H 0.34997 0.60545 0.76902 0.0
H1192 H 0.41215 0.70813 0.84695 0.0
H1193 H 0.4054 0.7151 0.89451 0.0
H1194 H 0.37926 0.73722 0.87324 0.0
H1195 H 0.32063 0.71037 0.90769 0.0
H1196 H 0.34664 0.68879 0.92945 0.0
H1197 H 0.31378 0.6629 0.90563 0.0
H1198 H 0.38506 0.57478 0.79872 0.0
H1199 H 0.41295 0.55093 0.83974 0.0
H1200 H 0.39737 0.64806 0.91654 0.0
C1201 C 0.32482 0.69649 0.82863 0.0
C1202 C 0.31301 0.68557 0.79585 0.0
C1203 C 0.32241 0.65263 0.77454 0.0
C1204 C 0.34306 0.63068 0.78546 0.0
C1205 C 0.35492 0.64237 0.81744 0.0
C1206 C 0.3462 0.67443 0.83886 0.0
C1207 C 0.36298 0.68049 0.87182 0.0
C1208 C 0.39163 0.71212 0.87162 0.0
C1209 C 0.33428 0.68592 0.90564 0.0
C1210 C 0.38022 0.64569 0.86668 0.0
C1211 C 0.37611 0.62472 0.83451 0.0
C1212 C 0.38878 0.59107 0.82379 0.0
C1213 C 0.40482 0.57783 0.84705 0.0
C1214 C 0.40799 0.59792 0.88076 0.0
C1215 C 0.3962 0.63265 0.89044 0.0
H1216 H 0.36278 0.35852 0.82539 0.0
H1217 H 0.43194 0.41758 0.7512 0.0
H1218 H 0.45815 0.45508 0.80069 0.0
H1219 H 0.34335 0.4325 0.89642 0.0
H1220 H 0.34354 0.40755 0.93059 0.0
H1221 H 0.33102 0.38529 0.88937 0.0
H1222 H 0.37991 0.34155 0.88094 0.0
H1223 H 0.39284 0.36388 0.92196 0.0
H1224 H 0.42573 0.35881 0.88168 0.0
H1225 H 0.47707 0.48388 0.85665 0.0
H1226 H 0.48638 0.50617 0.9176 0.0
H1227 H 0.40197 0.43078 0.95663 0.0
C1228 C 0.38313 0.37974 0.81982 0.0
C1229 C 0.39525 0.38606 0.78498 0.0
C1230 C 0.4225 0.413 0.77797 0.0
C1231 C 0.43732 0.43416 0.80576 0.0
C1232 C 0.4244 0.42752 0.83994 0.0
C1233 C 0.39784 0.40109 0.84714 0.0
C1234 C 0.38865 0.39953 0.88622 0.0
C1235 C 0.3493 0.40666 0.90154 0.0
C1236 C 0.39731 0.36382 0.89308 0.0
C1237 C 0.41395 0.42971 0.90008 0.0
C1238 C 0.43462 0.44498 0.87271 0.0
C1239 C 0.46094 0.47234 0.87826 0.0
C1240 C 0.46614 0.48463 0.91276 0.0
C1241 C 0.4446 0.47031 0.94131 0.0
C1242 C 0.41825 0.44237 0.93511 0.0
H1243 H 0.7152 0.38394 0.80973 0.0
H1244 H 0.69323 0.29159 0.86057 0.0
H1245 H 0.64547 0.3212 0.90492 0.0
H1246 H 0.70817 0.44716 0.88899 0.0
H1247 H 0.6873 0.47924 0.8737 0.0
H1248 H 0.71587 0.44904 0.8425 0.0
H1249 H 0.66429 0.42788 0.80742 0.0
H1250 H 0.63536 0.45769 0.83902 0.0
H1251 H 0.62167 0.41089 0.82972 0.0
H1252 H 0.60022 0.35841 0.94187 0.0
H1253 H 0.57075 0.40802 0.98215 0.0
H1254 H 0.62773 0.48136 0.91517 0.0
C1255 C 0.70014 0.37023 0.8303 0.0
C1256 C 0.70742 0.33565 0.83209 0.0
C1257 C 0.68783 0.31822 0.85922 0.0
C1258 C 0.66039 0.33455 0.88406 0.0
C1259 C 0.65338 0.36847 0.88155 0.0
C1260 C 0.67327 0.38672 0.8562 0.0
C1261 C 0.66295 0.42471 0.86276 0.0
C1262 C 0.69552 0.45162 0.86729 0.0
C1263 C 0.64502 0.43064 0.83295 0.0
C1264 C 0.63593 0.42539 0.89701 0.0
C1265 C 0.62938 0.39188 0.90578 0.0
C1266 C 0.60516 0.38483 0.93549 0.0
C1267 C 0.58846 0.41316 0.95806 0.0
C1268 C 0.59735 0.44832 0.95172 0.0
C1269 C 0.62059 0.45461 0.92035 0.0
H1270 H 0.7551 0.35877 0.18716 0.0
H1271 H 0.66835 0.28877 0.23243 0.0
H1272 H 0.6287 0.30522 0.19723 0.0
H1273 H 0.69684 0.42876 0.19003 0.0
H1274 H 0.72116 0.44191 0.14964 0.0
H1275 H 0.74409 0.42313 0.17656 0.0
H1276 H 0.76588 0.37495 0.12268 0.0
H1277 H 0.74262 0.39331 0.09567 0.0
H1278 H 0.73353 0.34713 0.09957 0.0
H1279 H 0.59862 0.32663 0.15664 0.0
H1280 H 0.57517 0.36132 0.12111 0.0
H1281 H 0.67733 0.4233 0.105 0.0
C1282 C 0.72764 0.34729 0.18979 0.0
C1283 C 0.71472 0.3226 0.21282 0.0
C1284 C 0.67868 0.3081 0.2155 0.0
C1285 C 0.65603 0.31695 0.19525 0.0
C1286 C 0.66939 0.34104 0.17273 0.0
C1287 C 0.70396 0.35691 0.1705 0.0
C1288 C 0.71 0.38433 0.14626 0.0
C1289 C 0.71852 0.42175 0.16685 0.0
C1290 C 0.73979 0.37432 0.11414 0.0
C1291 C 0.6735 0.38105 0.1352 0.0
C1292 C 0.65098 0.35522 0.15034 0.0
C1293 C 0.61594 0.34697 0.14468 0.0
C1294 C 0.60291 0.36655 0.12423 0.0
C1295 C 0.62448 0.39448 0.10986 0.0
C1296 C 0.66057 0.40147 0.1149 0.0
H1297 H 0.61147 0.67836 0.21597 0.0
H1298 H 0.67885 0.6021 0.23046 0.0
H1299 H 0.66365 0.56104 0.17753 0.0
H1300 H 0.54097 0.61415 0.17974 0.0
H1301 H 0.53703 0.64189 0.14901 0.0
H1302 H 0.54928 0.66176 0.19098 0.0
H1303 H 0.60584 0.69317 0.15721 0.0
H1304 H 0.59482 0.67159 0.11513 0.0
H1305 H 0.63761 0.66666 0.12538 0.0
H1306 H 0.65099 0.53493 0.11921 0.0
H1307 H 0.62376 0.51226 0.06708 0.0
H1308 H 0.56116 0.60397 0.09077 0.0
C1309 C 0.62088 0.65198 0.2091 0.0
C1310 C 0.64542 0.64245 0.22712 0.0
C1311 C 0.65914 0.60879 0.21706 0.0
C1312 C 0.65133 0.58593 0.18677 0.0
C1313 C 0.62962 0.59752 0.16758 0.0
C1314 C 0.61336 0.629 0.17889 0.0
C1315 C 0.59234 0.63561 0.1524 0.0
C1316 C 0.55253 0.63849 0.16902 0.0
C1317 C 0.60862 0.66873 0.13662 0.0
C1318 C 0.59829 0.6022 0.12506 0.0
C1319 C 0.62125 0.58161 0.13383 0.0
C1320 C 0.63231 0.55027 0.11242 0.0
C1321 C 0.6169 0.53787 0.08277 0.0
C1322 C 0.58983 0.55616 0.07578 0.0
C1323 C 0.58179 0.5897 0.09579 0.0
H1324 H 0.30904 0.64051 0.18301 0.0
H1325 H 0.37631 0.73884 0.20046 0.0
H1326 H 0.42882 0.70901 0.16483 0.0
H1327 H 0.38098 0.58193 0.18468 0.0
H1328 H 0.36621 0.54732 0.15117 0.0
H1329 H 0.33425 0.57506 0.1814 0.0
H1330 H 0.31345 0.59304 0.12881 0.0
H1331 H 0.3443 0.56438 0.09879 0.0
H1332 H 0.34646 0.6106 0.09538 0.0
H1333 H 0.47223 0.67115 0.12207 0.0
H1334 H 0.50036 0.63017 0.06947 0.0
H1335 H 0.40735 0.555 0.08168 0.0
C1336 C 0.33492 0.65549 0.17935 0.0
C1337 C 0.33878 0.69187 0.19435 0.0
C1338 C 0.37298 0.7108 0.18927 0.0
C1339 C 0.40302 0.69404 0.16937 0.0
C1340 C 0.39872 0.65799 0.15536 0.0
C1341 C 0.36557 0.63887 0.16006 0.0
C1342 C 0.36803 0.60102 0.14005 0.0
C1343 C 0.36199 0.57478 0.16587 0.0
C1344 C 0.34152 0.59175 0.11421 0.0
C1345 C 0.40675 0.6029 0.12093 0.0
C1346 C 0.4244 0.63561 0.13122 0.0
C1347 C 0.4591 0.64506 0.11446 0.0
C1348 C 0.47518 0.62146 0.0849 0.0
C1349 C 0.45639 0.58911 0.07246 0.0
C1350 C 0.42274 0.57894 0.09183 0.0
H1351 H 0.42619 0.42267 0.24089 0.0
H1352 H 0.38587 0.31939 0.18953 0.0
H1353 H 0.40484 0.33665 0.1322 0.0
H1354 H 0.3932 0.47031 0.19067 0.0
H1355 H 0.43038 0.50363 0.18669 0.0
H1356 H 0.42038 0.48184 0.22446 0.0
H1357 H 0.48471 0.46105 0.21128 0.0
H1358 H 0.49557 0.48429 0.17455 0.0
H1359 H 0.50223 0.43767 0.16769 0.0
H1360 H 0.42124 0.36601 0.08135 0.0
H1361 H 0.44923 0.40301 0.03702 0.0
H1362 H 0.47288 0.4894 0.1206 0.0
C1363 C 0.42324 0.40324 0.21733 0.0
C1364 C 0.40601 0.36928 0.21994 0.0
C1365 C 0.40101 0.34478 0.1886 0.0
C1366 C 0.41063 0.35473 0.15568 0.0
C1367 C 0.42469 0.38933 0.15454 0.0
C1368 C 0.43197 0.413 0.18419 0.0
C1369 C 0.44602 0.44907 0.17548 0.0
C1370 C 0.42099 0.4779 0.19554 0.0
C1371 C 0.48442 0.45859 0.18265 0.0
C1372 C 0.44516 0.44177 0.13643 0.0
C1373 C 0.43231 0.4072 0.12507 0.0
C1374 C 0.43116 0.39325 0.08976 0.0
C1375 C 0.44645 0.41447 0.06492 0.0
C1376 C 0.46216 0.44881 0.07604 0.0
C1377 C 0.45966 0.46354 0.11205 0.0
H1378 H 0.89127 0.72047 0.68863 0.0
H1379 H 0.78986 0.6737 0.66003 0.0
H1380 H 0.82023 0.62387 0.62035 0.0
H1381 H 0.94647 0.70087 0.60511 0.0
H1382 H 0.98366 0.68909 0.62113 0.0
H1383 H 0.95323 0.71937 0.64953 0.0
H1384 H 0.94196 0.67844 0.69635 0.0
H1385 H 0.97164 0.64749 0.66735 0.0
H1386 H 0.92616 0.63252 0.68432 0.0
H1387 H 0.86054 0.57858 0.58457 0.0
H1388 H 0.90992 0.5491 0.54291 0.0
H1389 H 0.98663 0.62743 0.58841 0.0
C1390 C 0.87561 0.69986 0.67375 0.0
C1391 C 0.83811 0.70102 0.67754 0.0
C1392 C 0.81852 0.67332 0.65785 0.0
C1393 C 0.83547 0.64465 0.63546 0.0
C1394 C 0.87215 0.64363 0.63315 0.0
C1395 C 0.8922 0.67072 0.65118 0.0
C1396 C 0.93162 0.66367 0.64217 0.0
C1397 C 0.95512 0.69512 0.62863 0.0
C1398 C 0.94357 0.65505 0.67446 0.0
C1399 C 0.93092 0.63064 0.61346 0.0
C1400 C 0.896 0.61826 0.61065 0.0
C1401 C 0.888 0.58791 0.58666 0.0
C1402 C 0.91635 0.57096 0.56341 0.0
C1403 C 0.95229 0.58534 0.56295 0.0
C1404 C 0.95968 0.61502 0.58904 0.0
H1405 H 0.39783 0.83486 0.6743 0.0
H1406 H 0.37023 0.76784 0.5794 0.0
H1407 H 0.38215 0.81971 0.54903 0.0
H1408 H 0.36232 0.91684 0.66305 0.0
H1409 H 0.39821 0.94545 0.6798 0.0
H1410 H 0.38282 0.90458 0.69592 0.0
H1411 H 0.44729 0.88387 0.67826 0.0
H1412 H 0.46281 0.92507 0.66337 0.0
H1413 H 0.47125 0.88349 0.63361 0.0
H1414 H 0.39975 0.87558 0.52945 0.0
H1415 H 0.43618 0.92916 0.51314 0.0
H1416 H 0.45652 0.95945 0.62008 0.0
C1417 C 0.3948 0.83122 0.64696 0.0
C1418 C 0.38336 0.79769 0.62877 0.0
C1419 C 0.37905 0.79354 0.59335 0.0
C1420 C 0.38513 0.82286 0.57632 0.0
C1421 C 0.39522 0.85589 0.59541 0.0
C1422 C 0.40084 0.86012 0.62965 0.0
C1423 C 0.41571 0.89754 0.64275 0.0
C1424 C 0.38812 0.91725 0.67213 0.0
C1425 C 0.4514 0.89746 0.65517 0.0
C1426 C 0.42057 0.91274 0.60931 0.0
C1427 C 0.40649 0.8889 0.58323 0.0
C1428 C 0.40999 0.89535 0.54924 0.0
C1429 C 0.43041 0.92588 0.54056 0.0
C1430 C 0.44827 0.94849 0.56575 0.0
C1431 C 0.44191 0.94299 0.60095 0.0
H1432 H 0.25722 0.34529 0.67907 0.0
H1433 H 0.19042 0.24569 0.67303 0.0
H1434 H 0.1507 0.26994 0.64291 0.0
H1435 H 0.18777 0.39974 0.7019 0.0
H1436 H 0.20937 0.43338 0.67694 0.0
H1437 H 0.23597 0.40669 0.69266 0.0
H1438 H 0.27026 0.3871 0.6288 0.0
H1439 H 0.24399 0.41409 0.61285 0.0
H1440 H 0.24554 0.36744 0.59421 0.0
H1441 H 0.11529 0.30643 0.6191 0.0
H1442 H 0.08628 0.3536 0.60298 0.0
H1443 H 0.17449 0.42983 0.62677 0.0
C1444 C 0.23496 0.32815 0.67028 0.0
C1445 C 0.22715 0.29343 0.67778 0.0
C1446 C 0.19706 0.27222 0.66708 0.0
C1447 C 0.17439 0.28575 0.64998 0.0
C1448 C 0.18224 0.32046 0.64391 0.0
C1449 C 0.21186 0.34138 0.65359 0.0
C1450 C 0.21237 0.37888 0.64711 0.0
C1451 C 0.21129 0.40626 0.68172 0.0
C1452 C 0.24497 0.38737 0.61907 0.0
C1453 C 0.17788 0.37601 0.63319 0.0
C1454 C 0.16122 0.34194 0.63103 0.0
C1455 C 0.1283 0.33305 0.62016 0.0
C1456 C 0.11205 0.35976 0.61117 0.0
C1457 C 0.12865 0.39466 0.61348 0.0
C1458 C 0.16183 0.40299 0.62459 0.0
H1459 H 0.6496 0.22384 0.61116 0.0
H1460 H 0.70472 0.18112 0.67773 0.0
H1461 H 0.68008 0.12091 0.6564 0.0
H1462 H 0.57158 0.17484 0.62573 0.0
H1463 H 0.56201 0.16522 0.58153 0.0
H1464 H 0.58988 0.20448 0.59516 0.0
H1465 H 0.64125 0.18498 0.54284 0.0
H1466 H 0.61304 0.14614 0.52837 0.0
H1467 H 0.65672 0.14135 0.5366 0.0
H1468 H 0.6417 0.06863 0.63796 0.0
H1469 H 0.59804 0.02288 0.61358 0.0
H1470 H 0.56774 0.09875 0.55851 0.0
C1471 C 0.65754 0.20143 0.61974 0.0
C1472 C 0.67958 0.20664 0.64512 0.0
C1473 C 0.68873 0.1772 0.65723 0.0
C1474 C 0.67473 0.14301 0.64554 0.0
C1475 C 0.65183 0.13878 0.62162 0.0
C1476 C 0.64396 0.16682 0.60796 0.0
C1477 C 0.61633 0.15492 0.5846 0.0
C1478 C 0.58299 0.17613 0.59757 0.0
C1479 C 0.63282 0.15696 0.54581 0.0
C1480 C 0.60812 0.11684 0.58983 0.0
C1481 C 0.62926 0.10796 0.6108 0.0
C1482 C 0.6255 0.07478 0.62067 0.0
C1483 C 0.60048 0.04919 0.60708 0.0
C1484 C 0.57984 0.05729 0.58409 0.0
C1485 C 0.58302 0.09182 0.57624 0.0
H1486 H 0.83911 0.31494 0.36094 0.0
H1487 H 0.85133 0.37243 0.2745 0.0
H1488 H 0.89319 0.41752 0.30297 0.0
H1489 H 0.84499 0.38963 0.43303 0.0
H1490 H 0.87281 0.36986 0.45464 0.0
H1491 H 0.84335 0.34192 0.42816 0.0
H1492 H 0.89709 0.30868 0.39071 0.0
H1493 H 0.92676 0.33672 0.417 0.0
H1494 H 0.93551 0.33351 0.36967 0.0
H1495 H 0.93398 0.45766 0.34072 0.0
H1496 H 0.9686 0.49069 0.38477 0.0
H1497 H 0.9342 0.40962 0.4496 0.0
C1498 C 0.85041 0.33718 0.34811 0.0
C1499 C 0.84099 0.33985 0.31507 0.0
C1500 C 0.85747 0.36926 0.29939 0.0
C1501 C 0.88155 0.39521 0.31555 0.0
C1502 C 0.89043 0.39172 0.34757 0.0
C1503 C 0.87562 0.36329 0.36371 0.0
C1504 C 0.89127 0.36573 0.39757 0.0
C1505 C 0.8613 0.36686 0.4303 0.0
C1506 C 0.91397 0.33428 0.39352 0.0
C1507 C 0.91536 0.40098 0.39909 0.0
C1508 C 0.91478 0.41481 0.3693 0.0
C1509 C 0.93459 0.44672 0.36389 0.0
C1510 C 0.95465 0.46539 0.38936 0.0
C1511 C 0.95554 0.45326 0.42115 0.0
C1512 C 0.93552 0.41984 0.42561 0.0
H1513 H 0.68018 0.80563 0.36135 0.0
H1514 H 0.74193 0.881 0.29953 0.0
H1515 H 0.7029 0.92791 0.33276 0.0
H1516 H 0.59244 0.83697 0.37288 0.0
H1517 H 0.57987 0.83189 0.41853 0.0
H1518 H 0.61117 0.80353 0.38836 0.0
H1519 H 0.65795 0.82266 0.42942 0.0
H1520 H 0.62644 0.85036 0.46001 0.0
H1521 H 0.67031 0.86929 0.44291 0.0
H1522 H 0.66028 0.96841 0.37701 0.0
H1523 H 0.62107 0.99844 0.43076 0.0
H1524 H 0.58476 0.89614 0.46063 0.0
C1525 C 0.68529 0.83199 0.3548 0.0
C1526 C 0.71427 0.83983 0.32815 0.0
C1527 C 0.72036 0.87466 0.32042 0.0
C1528 C 0.69802 0.90138 0.33884 0.0
C1529 C 0.6697 0.89297 0.36514 0.0
C1530 C 0.66355 0.85918 0.37337 0.0
C1531 C 0.63357 0.85788 0.40496 0.0
C1532 C 0.60241 0.83097 0.39558 0.0
C1533 C 0.64791 0.84956 0.43615 0.0
C1534 C 0.62309 0.8958 0.41246 0.0
C1535 C 0.64441 0.9159 0.38954 0.0
C1536 C 0.64279 0.95279 0.39461 0.0
C1537 C 0.62014 0.96968 0.42489 0.0
C1538 C 0.59904 0.94945 0.44902 0.0
C1539 C 0.59948 0.912 0.44165 0.0
H1540 H 0.16243 0.65584 0.28986 0.0
H1541 H 0.22235 0.71614 0.3682 0.0
H1542 H 0.18772 0.68264 0.41263 0.0
H1543 H 0.07594 0.64745 0.34766 0.0
H1544 H 0.06449 0.60181 0.32894 0.0
H1545 H 0.09426 0.62989 0.30219 0.0
H1546 H 0.1421 0.58449 0.28823 0.0
H1547 H 0.11245 0.55636 0.31512 0.0
H1548 H 0.15672 0.57106 0.3241 0.0
H1549 H 0.14724 0.641 0.45039 0.0
H1550 H 0.1014 0.5991 0.47816 0.0
H1551 H 0.06284 0.56559 0.37933 0.0
C1552 C 0.16826 0.66213 0.31635 0.0
C1553 C 0.19603 0.68937 0.32466 0.0
C1554 C 0.20209 0.69575 0.36011 0.0
C1555 C 0.18228 0.67662 0.38599 0.0
C1556 C 0.15577 0.65005 0.37702 0.0
C1557 C 0.14856 0.64269 0.34303 0.0
C1558 C 0.1186 0.61215 0.34089 0.0
C1559 C 0.0864 0.62352 0.32923 0.0
C1560 C 0.13332 0.57906 0.31556 0.0
C1561 C 0.10884 0.60515 0.37918 0.0
C1562 C 0.13163 0.62666 0.39918 0.0
C1563 C 0.12936 0.62416 0.43475 0.0
C1564 C 0.10319 0.59982 0.45042 0.0
C1565 C 0.07824 0.57813 0.43141 0.0
C1566 C 0.0814 0.58123 0.39498 0.0
H1567 H 0.34543 0.19611 0.28711 0.0
H1568 H 0.27786 0.24654 0.38222 0.0
H1569 H 0.30676 0.21651 0.4184 0.0
H1570 H 0.34504 0.11172 0.315 0.0
H1571 H 0.39091 0.10553 0.29399 0.0
H1572 H 0.36421 0.13024 0.276 0.0
H1573 H 0.41185 0.18388 0.28013 0.0
H1574 H 0.43868 0.15951 0.29832 0.0
H1575 H 0.42511 0.20236 0.32202 0.0
H1576 H 0.34119 0.17885 0.44304 0.0
H1577 H 0.38012 0.13845 0.45543 0.0
H1578 H 0.42946 0.11736 0.34443 0.0
C1579 C 0.33663 0.20042 0.31557 0.0
C1580 C 0.30941 0.22297 0.3323 0.0
C1581 C 0.29847 0.22875 0.36936 0.0
C1582 C 0.31477 0.21198 0.38991 0.0
C1583 C 0.34178 0.1898 0.37266 0.0
C1584 C 0.35261 0.18399 0.33633 0.0
C1585 C 0.38228 0.15914 0.32427 0.0
C1586 C 0.36986 0.12462 0.30094 0.0
C1587 C 0.4165 0.17734 0.30507 0.0
C1588 C 0.38701 0.15242 0.35962 0.0
C1589 C 0.36306 0.16989 0.3871 0.0
C1590 C 0.36075 0.1658 0.42189 0.0
C1591 C 0.38356 0.14326 0.42878 0.0
C1592 C 0.40929 0.12608 0.4012 0.0
C1593 C 0.41067 0.1307 0.36618 0.0
H1594 H 0.75046 0.81815 0.64748 0.0
H1595 H 0.68556 0.82288 0.75246 0.0
H1596 H 0.64235 0.8564 0.73664 0.0
H1597 H 0.73286 0.90634 0.63415 0.0
H1598 H 0.72968 0.89122 0.58827 0.0
H1599 H 0.75796 0.87016 0.60824 0.0
H1600 H 0.72452 0.80891 0.58948 0.0
H1601 H 0.6964 0.82975 0.56926 0.0
H1602 H 0.67647 0.8033 0.60233 0.0
H1603 H 0.60476 0.88557 0.71021 0.0
H1604 H 0.57152 0.90708 0.67196 0.0
H1605 H 0.65802 0.88361 0.58279 0.0
C1606 C 0.72739 0.82686 0.66705 0.0
C1607 C 0.72119 0.81832 0.70119 0.0
C1608 C 0.69054 0.82932 0.72616 0.0
C1609 C 0.66599 0.8485 0.71754 0.0
C1610 C 0.67242 0.85638 0.68372 0.0
C1611 C 0.70207 0.84582 0.65864 0.0
C1612 C 0.70055 0.85576 0.62347 0.0
C1613 C 0.73215 0.88246 0.61291 0.0
C1614 C 0.6994 0.82244 0.59443 0.0
C1615 C 0.66526 0.87298 0.63284 0.0
C1616 C 0.64992 0.87332 0.66793 0.0
C1617 C 0.61659 0.88597 0.6828 0.0
C1618 C 0.59796 0.89812 0.66105 0.0
C1619 C 0.61263 0.89749 0.62496 0.0
C1620 C 0.6469 0.88523 0.61065 0.0
H1621 H 0.69601 0.19909 0.38523 0.0
H1622 H 0.61338 0.27253 0.42121 0.0
H1623 H 0.57814 0.23084 0.45797 0.0
H1624 H 0.64811 0.12866 0.36902 0.0
H1625 H 0.67046 0.0978 0.38442 0.0
H1626 H 0.69506 0.13702 0.3715 0.0
H1627 H 0.71374 0.15634 0.43249 0.0
H1628 H 0.68991 0.1166 0.44609 0.0
H1629 H 0.68013 0.15963 0.47222 0.0
H1630 H 0.54663 0.17684 0.47645 0.0
H1631 H 0.52181 0.11502 0.47778 0.0
H1632 H 0.62549 0.07677 0.43006 0.0
C1633 C 0.67215 0.20798 0.40312 0.0
C1634 C 0.65811 0.23976 0.40158 0.0
C1635 C 0.6249 0.24874 0.42296 0.0
C1636 C 0.60489 0.22529 0.44394 0.0
C1637 C 0.61892 0.19338 0.44357 0.0
C1638 C 0.65228 0.18505 0.42431 0.0
C1639 C 0.65868 0.14673 0.42302 0.0
C1640 C 0.6686 0.12642 0.38473 0.0
C1641 C 0.68731 0.14471 0.44476 0.0
C1642 C 0.62223 0.1337 0.44096 0.0
C1643 C 0.60016 0.16131 0.45381 0.0
C1644 C 0.56394 0.15527 0.4674 0.0
C1645 C 0.5499 0.1202 0.46737 0.0
C1646 C 0.5718 0.09176 0.45321 0.0
C1647 C 0.60856 0.09845 0.44104 0.0
H1648 H 0.83857 0.74683 0.35101 0.0
H1649 H 0.79687 0.66069 0.27651 0.0
H1650 H 0.83241 0.61909 0.29215 0.0
H1651 H 0.92742 0.71875 0.34077 0.0
H1652 H 0.92929 0.72967 0.38725 0.0
H1653 H 0.90254 0.75405 0.36887 0.0
H1654 H 0.84626 0.73855 0.41417 0.0
H1655 H 0.87301 0.71493 0.43319 0.0
H1656 H 0.83337 0.6927 0.41784 0.0
H1657 H 0.87261 0.58745 0.31346 0.0
H1658 H 0.90447 0.56283 0.35068 0.0
H1659 H 0.91643 0.66674 0.41596 0.0
C1660 C 0.83687 0.71912 0.33837 0.0
C1661 C 0.81516 0.70673 0.31269 0.0
C1662 C 0.81313 0.67042 0.29661 0.0
C1663 C 0.83359 0.64675 0.30488 0.0
C1664 C 0.85537 0.65978 0.32972 0.0
C1665 C 0.8563 0.69472 0.3472 0.0
C1666 C 0.87918 0.70053 0.37548 0.0
C1667 C 0.91153 0.72735 0.36761 0.0
C1668 C 0.85661 0.71235 0.41235 0.0
C1669 C 0.8908 0.66332 0.37105 0.0
C1670 C 0.8775 0.64069 0.3437 0.0
C1671 C 0.88337 0.60482 0.33484 0.0
C1672 C 0.90173 0.59116 0.35575 0.0
C1673 C 0.91332 0.61314 0.38541 0.0
C1674 C 0.90886 0.64987 0.39259 0.0
H1675 H 0.33844 0.82457 0.41153 0.0
H1676 H 0.42114 0.778 0.32847 0.0
H1677 H 0.46464 0.82812 0.34576 0.0
H1678 H 0.35742 0.90919 0.39657 0.0
H1679 H 0.34837 0.93104 0.44224 0.0
H1680 H 0.32618 0.88809 0.42873 0.0
H1681 H 0.34913 0.86353 0.47514 0.0
H1682 H 0.3734 0.90528 0.48934 0.0
H1683 H 0.39659 0.86503 0.47362 0.0
H1684 H 0.49511 0.88661 0.36567 0.0
H1685 H 0.51495 0.9469 0.39414 0.0
H1686 H 0.41002 0.95697 0.46095 0.0
C1687 C 0.36625 0.82431 0.39846 0.0
C1688 C 0.37714 0.79793 0.36933 0.0
C1689 C 0.41315 0.798 0.35158 0.0
C1690 C 0.4376 0.82654 0.36074 0.0
C1691 C 0.42502 0.85414 0.38751 0.0
C1692 C 0.39037 0.85303 0.40642 0.0
C1693 C 0.38264 0.88706 0.43204 0.0
C1694 C 0.35184 0.90487 0.42438 0.0
C1695 C 0.37493 0.87993 0.46993 0.0
C1696 C 0.41813 0.90805 0.42386 0.0
C1697 C 0.44221 0.88849 0.39817 0.0
C1698 C 0.47675 0.90214 0.38606 0.0
C1699 C 0.48759 0.93627 0.40201 0.0
C1700 C 0.46363 0.95598 0.42914 0.0
C1701 C 0.4283 0.94231 0.43962 0.0
H1702 H 0.16131 0.30985 0.35451 0.0
H1703 H 0.2455 0.38544 0.31461 0.0
H1704 H 0.21179 0.43496 0.34978 0.0
H1705 H 0.08496 0.36274 0.36078 0.0
H1706 H 0.06174 0.35089 0.40214 0.0
H1707 H 0.09048 0.32045 0.37117 0.0
H1708 H 0.12715 0.31831 0.41939 0.0
H1709 H 0.09798 0.34799 0.45055 0.0
H1710 H 0.14566 0.35933 0.44269 0.0
H1711 H 0.17256 0.47684 0.39295 0.0
H1712 H 0.13282 0.50714 0.44562 0.0
H1713 H 0.07256 0.40662 0.45793 0.0
C1714 C 0.17225 0.33683 0.35283 0.0
C1715 C 0.20607 0.34357 0.33156 0.0
C1716 C 0.21978 0.37937 0.33072 0.0
C1717 C 0.20066 0.40787 0.35042 0.0
C1718 C 0.16761 0.40054 0.37119 0.0
C1719 C 0.15358 0.36596 0.37293 0.0
C1720 C 0.11903 0.36585 0.4001 0.0
C1721 C 0.08716 0.34897 0.38248 0.0
C1722 C 0.12269 0.34675 0.42994 0.0
C1723 C 0.11623 0.40557 0.41341 0.0
C1724 C 0.1444 0.4251 0.39605 0.0
C1725 C 0.14981 0.46198 0.40614 0.0
C1726 C 0.12684 0.47915 0.43578 0.0
C1727 C 0.0986 0.45956 0.45472 0.0
C1728 C 0.09262 0.42251 0.44259 0.0
H1729 H 0.37873 0.2206 0.65755 0.0
H1730 H 0.30633 0.14221 0.70762 0.0
H1731 H 0.3443 0.09493 0.67346 0.0
H1732 H 0.39297 0.16668 0.5724 0.0
H1733 H 0.43912 0.1832 0.56093 0.0
H1734 H 0.40812 0.21083 0.59223 0.0
H1735 H 0.45035 0.2184 0.63766 0.0
H1736 H 0.4809 0.18976 0.6067 0.0
H1737 H 0.46279 0.1796 0.65001 0.0
H1738 H 0.38614 0.05513 0.62934 0.0
H1739 H 0.42424 0.02645 0.57453 0.0
H1740 H 0.47135 0.12984 0.55461 0.0
C1741 C 0.37113 0.19354 0.66164 0.0
C1742 C 0.33958 0.18521 0.68547 0.0
C1743 C 0.33029 0.14933 0.68952 0.0
C1744 C 0.35191 0.12227 0.67046 0.0
C1745 C 0.38288 0.13131 0.64731 0.0
C1746 C 0.39231 0.16606 0.64253 0.0
C1747 C 0.42486 0.16813 0.61337 0.0
C1748 C 0.41571 0.18307 0.58295 0.0
C1749 C 0.45661 0.19028 0.62782 0.0
C1750 C 0.43189 0.12911 0.60216 0.0
C1751 C 0.40763 0.10829 0.62233 0.0
C1752 C 0.40593 0.07116 0.61397 0.0
C1753 C 0.42805 0.05495 0.58309 0.0
C1754 C 0.45179 0.07586 0.5613 0.0
C1755 C 0.45479 0.11326 0.57193 0.0
H1756 H 0.83699 0.31844 0.6505 0.0
H1757 H 0.85771 0.37031 0.75388 0.0
H1758 H 0.89801 0.4165 0.72654 0.0
H1759 H 0.93032 0.33489 0.60515 0.0
H1760 H 0.91798 0.34066 0.56484 0.0
H1761 H 0.88948 0.31257 0.5925 0.0
H1762 H 0.83621 0.34923 0.59568 0.0
H1763 H 0.86468 0.37763 0.56832 0.0
H1764 H 0.84029 0.39665 0.611 0.0
H1765 H 0.93666 0.45881 0.68745 0.0
H1766 H 0.97448 0.48845 0.64083 0.0
H1767 H 0.93361 0.40887 0.56063 0.0
C1768 C 0.84993 0.33958 0.66747 0.0
C1769 C 0.84339 0.3404 0.70495 0.0
C1770 C 0.86178 0.36851 0.72549 0.0
C1771 C 0.88479 0.39519 0.71001 0.0
C1772 C 0.89047 0.39372 0.67332 0.0
C1773 C 0.87408 0.36614 0.65214 0.0
C1774 C 0.88686 0.36965 0.61308 0.0
C1775 C 0.90737 0.33753 0.59268 0.0
C1776 C 0.85511 0.37351 0.59602 0.0
C1777 C 0.9121 0.40395 0.61558 0.0
C1778 C 0.91355 0.41739 0.65074 0.0
C1779 C 0.93535 0.44838 0.65997 0.0
C1780 C 0.95664 0.46547 0.6331 0.0
C1781 C 0.95653 0.4524 0.59662 0.0
C1782 C 0.93359 0.42087 0.58804 0.0
H1783 H 0.22349 0.64529 0.67107 0.0
H1784 H 0.15546 0.73171 0.71472 0.0
H1785 H 0.10952 0.70039 0.68064 0.0
H1786 H 0.20004 0.62195 0.58379 0.0
H1787 H 0.19897 0.57458 0.58109 0.0
H1788 H 0.22723 0.60422 0.60768 0.0
H1789 H 0.19687 0.57652 0.66215 0.0
H1790 H 0.16859 0.54674 0.63567 0.0
H1791 H 0.14883 0.57511 0.67558 0.0
H1792 H 0.07018 0.65897 0.63756 0.0
H1793 H 0.04099 0.61064 0.5979 0.0
H1794 H 0.13065 0.54777 0.58642 0.0
C1795 C 0.19893 0.6577 0.67353 0.0
C1796 C 0.1938 0.6917 0.69602 0.0
C1797 C 0.16064 0.70605 0.69823 0.0
C1798 C 0.13418 0.6883 0.67861 0.0
C1799 C 0.13999 0.65508 0.65683 0.0
C1800 C 0.1714 0.63958 0.65482 0.0
C1801 C 0.17007 0.60266 0.63107 0.0
C1802 C 0.20092 0.60075 0.59901 0.0
C1803 C 0.17117 0.57353 0.65238 0.0
C1804 C 0.13363 0.60008 0.61947 0.0
C1805 C 0.11677 0.63079 0.63427 0.0
C1806 C 0.08335 0.63481 0.62631 0.0
C1807 C 0.06675 0.60705 0.60339 0.0
C1808 C 0.08274 0.57465 0.5885 0.0
C1809 C 0.11696 0.57172 0.5971 0.0
loop_
_geom_bond_atom_site_label_1
_geom_bond_atom_site_label_2
_geom_bond_distance
_geom_bond_site_symmetry_2
_ccdc_geom_bond_type
Zn0 O1 2.055 . S
Zn0 O8 2.046 . S
Zn0 N16 2.036 . S
Zn0 O28 2.053 . S
Zn0 O30 2.066 . S
O1 Zn0 2.055 . S
O1 C4 1.259 . S
C2 O30 1.256 . S
C2 O31 1.244 . S
Zn3 O5 2.046 . S
Zn3 O7 2.055 . S
Zn3 N9 2.036 . S
Zn3 O27 2.066 . S
Zn3 O31 2.053 . S
C4 O1 1.259 . S
C4 O5 1.254 . S
O5 Zn3 2.046 . S
O5 C4 1.254 . S
C6 O27 1.256 . S
C6 O28 1.244 . S
O7 Zn3 2.055 . S
O7 C29 1.259 . S
O8 Zn0 2.046 . S
O8 C29 1.254 . S
N9 Zn3 2.036 . S
N9 C10 1.298 . S
N9 N12 1.398 . S
C10 N9 1.298 . S
C10 N13 1.367 . S
C10 C23 1.481 . S
C11 N12 1.299 . S
C11 N13 1.379 . S
N12 N9 1.398 . S
N12 C11 1.299 . S
N13 C10 1.367 . S
N13 C11 1.379 . S
C14 N16 1.298 . S
C14 N18 1.367 . S
C14 C22 1.481 . S
C15 N17 1.299 . S
C15 N18 1.379 . S
N16 Zn0 2.036 . S
N16 C14 1.298 . S
N16 N17 1.398 . S
N17 C15 1.299 . S
N17 N16 1.398 . S
N18 C14 1.367 . S
N18 C15 1.379 . S
H19 C22 0.980 . S
H20 C22 0.981 . S
H21 C22 0.981 . S
C22 C14 1.481 . S
C22 H19 0.980 . S
C22 H20 0.981 . S
C22 H21 0.981 . S
C23 C10 1.481 . S
C23 H24 0.980 . S
C23 H25 0.981 . S
C23 H26 0.981 . S
H24 C23 0.980 . S
H25 C23 0.981 . S
H26 C23 0.981 . S
O27 Zn3 2.066 . S
O27 C6 1.256 . S
O28 Zn0 2.053 . S
O28 C6 1.244 . S
C29 O7 1.259 . S
C29 O8 1.254 . S
O30 Zn0 2.066 . S
O30 C2 1.256 . S
O31 C2 1.244 . S
O31 Zn3 2.053 . S
Zn32 O33 2.055 . S
Zn32 O40 2.046 . S
Zn32 N48 2.036 . S
Zn32 O60 2.053 . S
Zn32 O62 2.066 . S
O33 Zn32 2.055 . S
O33 C36 1.259 . S
C34 O62 1.256 . S
C34 O63 1.244 . S
Zn35 O37 2.046 . S
Zn35 O39 2.055 . S
Zn35 N41 2.036 . S
Zn35 O59 2.066 . S
Zn35 O63 2.053 . S
C36 O33 1.259 . S
C36 O37 1.254 . S
O37 Zn35 2.046 . S
O37 C36 1.254 . S
C38 O59 1.256 . S
C38 O60 1.244 . S
O39 Zn35 2.055 . S
O39 C61 1.259 . S
O40 Zn32 2.046 . S
O40 C61 1.254 . S
N41 Zn35 2.036 . S
N41 C42 1.298 . S
N41 N44 1.398 . S
C42 N41 1.298 . S
C42 N45 1.367 . S
C42 C55 1.481 . S
C43 N44 1.299 . S
C43 N45 1.379 . S
N44 N41 1.398 . S
N44 C43 1.299 . S
N45 C42 1.367 . S
N45 C43 1.379 . S
C46 N48 1.298 . S
C46 N50 1.367 . S
C46 C54 1.481 . S
C47 N49 1.299 . S
C47 N50 1.379 . S
N48 Zn32 2.036 . S
N48 C46 1.298 . S
N48 N49 1.398 . S
N49 C47 1.299 . S
N49 N48 1.398 . S
N50 C46 1.367 . S
N50 C47 1.379 . S
H51 C54 0.980 . S
H52 C54 0.981 . S
H53 C54 0.981 . S
C54 C46 1.481 . S
C54 H51 0.980 . S
C54 H52 0.981 . S
C54 H53 0.981 . S
C55 C42 1.481 . S
C55 H56 0.980 . S
C55 H57 0.981 . S
C55 H58 0.981 . S
H56 C55 0.980 . S
H57 C55 0.981 . S
H58 C55 0.981 . S
O59 Zn35 2.066 . S
O59 C38 1.256 . S
O60 Zn32 2.053 . S
O60 C38 1.244 . S
C61 O39 1.259 . S
C61 O40 1.254 . S
O62 Zn32 2.066 . S
O62 C34 1.256 . S
O63 C34 1.244 . S
O63 Zn35 2.053 . S
Zn64 O65 2.055 . S
Zn64 O72 2.046 . S
Zn64 N80 2.036 . S
Zn64 O92 2.053 . S
Zn64 O94 2.066 . S
O65 Zn64 2.055 . S
O65 C68 1.259 . S
C66 O94 1.256 . S
C66 O95 1.244 . S
Zn67 O69 2.046 . S
Zn67 O71 2.055 . S
Zn67 N73 2.036 . S
Zn67 O91 2.066 . S
Zn67 O95 2.053 . S
C68 O65 1.259 . S
C68 O69 1.254 . S
O69 Zn67 2.046 . S
O69 C68 1.254 . S
C70 O91 1.256 . S
C70 O92 1.244 . S
O71 Zn67 2.055 . S
O71 C93 1.259 . S
O72 Zn64 2.046 . S
O72 C93 1.254 . S
N73 Zn67 2.036 . S
N73 C74 1.298 . S
N73 N76 1.398 . S
C74 N73 1.298 . S
C74 N77 1.367 . S
C74 C87 1.481 . S
C75 N76 1.299 . S
C75 N77 1.379 . S
N76 N73 1.398 . S
N76 C75 1.299 . S
N77 C74 1.367 . S
N77 C75 1.379 . S
C78 N80 1.298 . S
C78 N82 1.367 . S
C78 C86 1.481 . S
C79 N81 1.299 . S
C79 N82 1.379 . S
N80 Zn64 2.036 . S
N80 C78 1.298 . S
N80 N81 1.398 . S
N81 C79 1.299 . S
N81 N80 1.398 . S
N82 C78 1.367 . S
N82 C79 1.379 . S
H83 C86 0.980 . S
H84 C86 0.981 . S
H85 C86 0.981 . S
C86 C78 1.481 . S
C86 H83 0.980 . S
C86 H84 0.981 . S
C86 H85 0.981 . S
C87 C74 1.481 . S
C87 H88 0.980 . S
C87 H89 0.981 . S
C87 H90 0.981 . S
H88 C87 0.980 . S
H89 C87 0.981 . S
H90 C87 0.981 . S
O91 Zn67 2.066 . S
O91 C70 1.256 . S
O92 Zn64 2.053 . S
O92 C70 1.244 . S
C93 O71 1.259 . S
C93 O72 1.254 . S
O94 Zn64 2.066 . S
O94 C66 1.256 . S
O95 C66 1.244 . S
O95 Zn67 2.053 . S
Zn96 O97 2.055 . S
Zn96 O104 2.046 . S
Zn96 N112 2.036 . S
Zn96 O124 2.053 . S
Zn96 O126 2.066 . S
O97 Zn96 2.055 . S
O97 C100 1.259 . S
C98 O126 1.256 . S
C98 O127 1.244 . S
Zn99 O101 2.046 . S
Zn99 O103 2.055 . S
Zn99 N105 2.036 . S
Zn99 O123 2.066 . S
Zn99 O127 2.053 . S
C100 O97 1.259 . S
C100 O101 1.254 . S
O101 Zn99 2.046 . S
O101 C100 1.254 . S
C102 O123 1.256 . S
C102 O124 1.244 . S
O103 Zn99 2.055 . S
O103 C125 1.259 . S
O104 Zn96 2.046 . S
O104 C125 1.254 . S
N105 Zn99 2.036 . S
N105 C106 1.298 . S
N105 N108 1.398 . S
C106 N105 1.298 . S
C106 N109 1.367 . S
C106 C119 1.481 . S
C107 N108 1.299 . S
C107 N109 1.379 . S
N108 N105 1.398 . S
N108 C107 1.299 . S
N109 C106 1.367 . S
N109 C107 1.379 . S
C110 N112 1.298 . S
C110 N114 1.367 . S
C110 C118 1.481 . S
C111 N113 1.299 . S
C111 N114 1.379 . S
N112 Zn96 2.036 . S
N112 C110 1.298 . S
N112 N113 1.398 . S
N113 C111 1.299 . S
N113 N112 1.398 . S
N114 C110 1.367 . S
N114 C111 1.379 . S
H115 C118 0.980 . S
H116 C118 0.981 . S
H117 C118 0.981 . S
C118 C110 1.481 . S
C118 H115 0.980 . S
C118 H116 0.981 . S
C118 H117 0.981 . S
C119 C106 1.481 . S
C119 H120 0.980 . S
C119 H121 0.981 . S
C119 H122 0.981 . S
H120 C119 0.980 . S
H121 C119 0.981 . S
H122 C119 0.981 . S
O123 Zn99 2.066 . S
O123 C102 1.256 . S
O124 Zn96 2.053 . S
O124 C102 1.244 . S
C125 O103 1.259 . S
C125 O104 1.254 . S
O126 Zn96 2.066 . S
O126 C98 1.256 . S
O127 C98 1.244 . S
O127 Zn99 2.053 . S
Zn128 O129 2.055 . S
Zn128 O136 2.046 . S
Zn128 N144 2.036 . S
Zn128 O156 2.053 . S
Zn128 O158 2.066 . S
O129 Zn128 2.055 . S
O129 C132 1.259 . S
C130 O158 1.256 . S
C130 O159 1.244 . S
Zn131 O133 2.046 . S
Zn131 O135 2.055 . S
Zn131 N137 2.036 . S
Zn131 O155 2.066 . S
Zn131 O159 2.053 . S
C132 O129 1.259 . S
C132 O133 1.254 . S
O133 Zn131 2.046 . S
O133 C132 1.254 . S
C134 O155 1.256 . S
C134 O156 1.244 . S
O135 Zn131 2.055 . S
O135 C157 1.259 . S
O136 Zn128 2.046 . S
O136 C157 1.254 . S
N137 Zn131 2.036 . S
N137 C138 1.298 . S
N137 N140 1.398 . S
C138 N137 1.298 . S
C138 N141 1.367 . S
C138 C151 1.481 . S
C139 N140 1.299 . S
C139 N141 1.379 . S
N140 N137 1.398 . S
N140 C139 1.299 . S
N141 C138 1.367 . S
N141 C139 1.379 . S
C142 N144 1.298 . S
C142 N146 1.367 . S
C142 C150 1.481 . S
C143 N145 1.299 . S
C143 N146 1.379 . S
N144 Zn128 2.036 . S
N144 C142 1.298 . S
N144 N145 1.398 . S
N145 C143 1.299 . S
N145 N144 1.398 . S
N146 C142 1.367 . S
N146 C143 1.379 . S
H147 C150 0.980 . S
H148 C150 0.981 . S
H149 C150 0.981 . S
C150 C142 1.481 . S
C150 H147 0.980 . S
C150 H148 0.981 . S
C150 H149 0.981 . S
C151 C138 1.481 . S
C151 H152 0.980 . S
C151 H153 0.981 . S
C151 H154 0.981 . S
H152 C151 0.980 . S
H153 C151 0.981 . S
H154 C151 0.981 . S
O155 Zn131 2.066 . S
O155 C134 1.256 . S
O156 Zn128 2.053 . S
O156 C134 1.244 . S
C157 O135 1.259 . S
C157 O136 1.254 . S
O158 Zn128 2.066 . S
O158 C130 1.256 . S
O159 C130 1.244 . S
O159 Zn131 2.053 . S
Zn160 O161 2.055 . S
Zn160 O168 2.046 . S
Zn160 N176 2.036 . S
Zn160 O188 2.053 . S
Zn160 O190 2.066 . S
O161 Zn160 2.055 . S
O161 C164 1.259 . S
C162 O190 1.256 . S
C162 O191 1.244 . S
Zn163 O165 2.046 . S
Zn163 O167 2.055 . S
Zn163 N169 2.036 . S
Zn163 O187 2.066 . S
Zn163 O191 2.053 . S
C164 O161 1.259 . S
C164 O165 1.254 . S
O165 Zn163 2.046 . S
O165 C164 1.254 . S
C166 O187 1.256 . S
C166 O188 1.244 . S
O167 Zn163 2.055 . S
O167 C189 1.259 . S
O168 Zn160 2.046 . S
O168 C189 1.254 . S
N169 Zn163 2.036 . S
N169 C170 1.298 . S
N169 N172 1.398 . S
C170 N169 1.298 . S
C170 N173 1.367 . S
C170 C183 1.481 . S
C171 N172 1.299 . S
C171 N173 1.379 . S
N172 N169 1.398 . S
N172 C171 1.299 . S
N173 C170 1.367 . S
N173 C171 1.379 . S
C174 N176 1.298 . S
C174 N178 1.367 . S
C174 C182 1.481 . S
C175 N177 1.299 . S
C175 N178 1.379 . S
N176 Zn160 2.036 . S
N176 C174 1.298 . S
N176 N177 1.398 . S
N177 C175 1.299 . S
N177 N176 1.398 . S
N178 C174 1.367 . S
N178 C175 1.379 . S
H179 C182 0.980 . S
H180 C182 0.981 . S
H181 C182 0.981 . S
C182 C174 1.481 . S
C182 H179 0.980 . S
C182 H180 0.981 . S
C182 H181 0.981 . S
C183 C170 1.481 . S
C183 H184 0.980 . S
C183 H185 0.981 . S
C183 H186 0.981 . S
H184 C183 0.980 . S
H185 C183 0.981 . S
H186 C183 0.981 . S
O187 Zn163 2.066 . S
O187 C166 1.256 . S
O188 Zn160 2.053 . S
O188 C166 1.244 . S
C189 O167 1.259 . S
C189 O168 1.254 . S
O190 Zn160 2.066 . S
O190 C162 1.256 . S
O191 C162 1.244 . S
O191 Zn163 2.053 . S
Zn192 O193 2.055 . S
Zn192 O200 2.046 . S
Zn192 N208 2.036 . S
Zn192 O220 2.053 . S
Zn192 O222 2.066 . S
O193 Zn192 2.055 . S
O193 C196 1.259 . S
C194 O222 1.256 . S
C194 O223 1.244 . S
Zn195 O197 2.046 . S
Zn195 O199 2.055 . S
Zn195 N201 2.036 . S
Zn195 O219 2.066 . S
Zn195 O223 2.053 . S
C196 O193 1.259 . S
C196 O197 1.254 . S
O197 Zn195 2.046 . S
O197 C196 1.254 . S
C198 O219 1.256 . S
C198 O220 1.244 . S
O199 Zn195 2.055 . S
O199 C221 1.259 . S
O200 Zn192 2.046 . S
O200 C221 1.254 . S
N201 Zn195 2.036 . S
N201 C202 1.298 . S
N201 N204 1.398 . S
C202 N201 1.298 . S
C202 N205 1.367 . S
C202 C215 1.481 . S
C203 N204 1.299 . S
C203 N205 1.379 . S
N204 N201 1.398 . S
N204 C203 1.299 . S
N205 C202 1.367 . S
N205 C203 1.379 . S
C206 N208 1.298 . S
C206 N210 1.367 . S
C206 C214 1.481 . S
C207 N209 1.299 . S
C207 N210 1.379 . S
N208 Zn192 2.036 . S
N208 C206 1.298 . S
N208 N209 1.398 . S
N209 C207 1.299 . S
N209 N208 1.398 . S
N210 C206 1.367 . S
N210 C207 1.379 . S
H211 C214 0.980 . S
H212 C214 0.981 . S
H213 C214 0.981 . S
C214 C206 1.481 . S
C214 H211 0.980 . S
C214 H212 0.981 . S
C214 H213 0.981 . S
C215 C202 1.481 . S
C215 H216 0.980 . S
C215 H217 0.981 . S
C215 H218 0.981 . S
H216 C215 0.980 . S
H217 C215 0.981 . S
H218 C215 0.981 . S
O219 Zn195 2.066 . S
O219 C198 1.256 . S
O220 Zn192 2.053 . S
O220 C198 1.244 . S
C221 O199 1.259 . S
C221 O200 1.254 . S
O222 Zn192 2.066 . S
O222 C194 1.256 . S
O223 C194 1.244 . S
O223 Zn195 2.053 . S
Zn224 O225 2.055 . S
Zn224 O232 2.046 . S
Zn224 N240 2.036 . S
Zn224 O252 2.053 . S
Zn224 O254 2.066 . S
O225 Zn224 2.055 . S
O225 C228 1.259 . S
C226 O254 1.256 . S
C226 O255 1.244 . S
Zn227 O229 2.046 . S
Zn227 O231 2.055 . S
Zn227 N233 2.036 . S
Zn227 O251 2.066 . S
Zn227 O255 2.053 . S
C228 O225 1.259 . S
C228 O229 1.254 . S
O229 Zn227 2.046 . S
O229 C228 1.254 . S
C230 O251 1.256 . S
C230 O252 1.244 . S
O231 Zn227 2.055 . S
O231 C253 1.259 . S
O232 Zn224 2.046 . S
O232 C253 1.254 . S
N233 Zn227 2.036 . S
N233 C234 1.298 . S
N233 N236 1.398 . S
C234 N233 1.298 . S
C234 N237 1.367 . S
C234 C247 1.481 . S
C235 N236 1.299 . S
C235 N237 1.379 . S
N236 N233 1.398 . S
N236 C235 1.299 . S
N237 C234 1.367 . S
N237 C235 1.379 . S
C238 N240 1.298 . S
C238 N242 1.367 . S
C238 C246 1.481 . S
C239 N241 1.299 . S
C239 N242 1.379 . S
N240 Zn224 2.036 . S
N240 C238 1.298 . S
N240 N241 1.398 . S
N241 C239 1.299 . S
N241 N240 1.398 . S
N242 C238 1.367 . S
N242 C239 1.379 . S
H243 C246 0.980 . S
H244 C246 0.981 . S
H245 C246 0.981 . S
C246 C238 1.481 . S
C246 H243 0.980 . S
C246 H244 0.981 . S
C246 H245 0.981 . S
C247 C234 1.481 . S
C247 H248 0.980 . S
C247 H249 0.981 . S
C247 H250 0.981 . S
H248 C247 0.980 . S
H249 C247 0.981 . S
H250 C247 0.981 . S
O251 Zn227 2.066 . S
O251 C230 1.256 . S
O252 Zn224 2.053 . S
O252 C230 1.244 . S
C253 O231 1.259 . S
C253 O232 1.254 . S
O254 Zn224 2.066 . S
O254 C226 1.256 . S
O255 C226 1.244 . S
O255 Zn227 2.053 . S
Co256 N257 2.034 . S
Co256 O271 2.262 . S
Co256 O275 1.958 1_455 S
Co256 O279 1.950 1_565 S
Co256 O280 2.057 . S
N257 Co256 2.034 . S
N257 C258 1.366 . S
N257 C260 1.332 . S
C258 N257 1.366 . S
C258 C261 1.377 . S
C258 H290 0.931 . S
N259 C260 1.346 . S
N259 C261 1.337 . S
C260 N257 1.332 . S
C260 N259 1.346 . S
C260 C294 1.361 . S
C261 C258 1.377 . S
C261 N259 1.337 . S
C261 H297 0.930 . S
Co262 N263 2.034 . S
Co262 O276 1.950 1_655 S
Co262 O277 2.262 . S
Co262 O278 1.958 1_545 S
Co262 O282 2.057 . S
N263 Co262 2.034 . S
N263 C266 1.366 . S
N263 C267 1.332 . S
N264 C265 1.337 . S
N264 C267 1.346 . S
C265 N264 1.337 . S
C265 C266 1.377 . S
C265 H298 0.930 . S
C266 N263 1.366 . S
C266 C265 1.377 . S
C266 H270 0.931 . S
C267 N263 1.332 . S
C267 N264 1.346 . S
C267 C284 1.361 . S
Co268 O271 2.124 . S
Co268 O272 2.075 1_565 S
Co268 O273 2.083 1_565 S
Co268 O274 2.033 1_455 S
Co268 O277 2.070 1_465 S
Co268 O281 2.025 1_455 S
C269 O277 1.253 . S
C269 O282 1.263 . S
H270 C266 0.931 . S
O271 Co256 2.262 . S
O271 Co268 2.124 . S
O271 C295 1.253 . S
O272 Co268 2.075 1_545 S
O272 C288 1.221 . S
O273 Co268 2.083 1_545 S
O273 C283 1.221 . S
O274 Co268 2.033 1_655 S
O274 C289 1.237 . S
O275 Co256 1.958 1_655 S
O275 C289 1.278 . S
O276 Co262 1.950 1_455 S
O276 C288 1.277 . S
O277 Co262 2.262 . S
O277 Co268 2.070 1_645 S
O277 C269 1.253 . S
O278 Co262 1.958 1_565 S
O278 C296 1.278 . S
O279 Co256 1.950 1_545 S
O279 C283 1.277 . S
O280 Co256 2.057 . S
O280 C295 1.263 . S
O281 Co268 2.025 1_655 S
O281 C296 1.237 . S
O282 Co262 2.057 . S
O282 C269 1.263 . S
C283 O273 1.221 . S
C283 O279 1.277 . S
C284 C267 1.361 . S
C284 H285 0.960 . S
C284 H286 0.961 . S
C284 H287 0.961 . S
H285 C284 0.960 . S
H286 C284 0.961 . S
H287 C284 0.961 . S
C288 O272 1.221 . S
C288 O276 1.277 . S
C289 O274 1.237 . S
C289 O275 1.278 . S
H290 C258 0.931 . S
H291 C294 0.961 . S
H292 C294 0.961 . S
H293 C294 0.960 . S
C294 C260 1.361 . S
C294 H291 0.961 . S
C294 H292 0.961 . S
C294 H293 0.960 . S
C295 O271 1.253 . S
C295 O280 1.263 . S
C296 O278 1.278 . S
C296 O281 1.237 . S
H297 C261 0.930 . S
H298 C265 0.930 . S
Co299 N300 2.034 . S
Co299 O314 2.262 1_554 S
Co299 O318 1.958 . S
Co299 O322 1.923 1_565 S
Co299 O323 2.057 1_554 S
N300 Co299 2.034 . S
N300 C301 1.366 . S
N300 C303 1.332 . S
C301 N300 1.366 . S
C301 C304 1.377 . S
C301 H333 0.931 . S
N302 C303 1.346 . S
N302 C304 1.337 . S
C303 N300 1.332 . S
C303 N302 1.346 . S
C303 C337 1.361 . S
C304 C301 1.377 . S
C304 N302 1.337 . S
C304 H340 0.930 . S
Co305 N306 2.034 . S
Co305 O319 1.950 . S
Co305 O320 2.262 1_556 S
Co305 O321 1.958 1_545 S
Co305 O325 2.057 1_556 S
N306 Co305 2.034 . S
N306 C309 1.366 . S
N306 C310 1.332 . S
N307 C308 1.337 . S
N307 C310 1.346 . S
C308 N307 1.337 . S
C308 C309 1.377 . S
C308 H341 0.930 . S
C309 N306 1.366 . S
C309 C308 1.377 . S
C309 H313 0.931 . S
C310 N306 1.332 . S
C310 N307 1.346 . S
C310 C327 1.361 . S
Co311 O314 2.121 1_554 S
Co311 O315 2.046 1_564 S
Co311 O316 2.054 1_565 S
Co311 O317 2.061 . S
Co311 O320 2.073 1_565 S
Co311 O324 2.054 1_554 S
C312 O320 1.253 . S
C312 O325 1.263 . S
H313 C309 0.931 . S
O314 Co299 2.262 1_556 S
O314 Co311 2.121 1_556 S
O314 C338 1.253 . S
O315 Co311 2.046 1_546 S
O315 C331 1.221 . S
O316 Co311 2.054 1_545 S
O316 C326 1.221 . S
O317 Co311 2.061 . S
O317 C332 1.237 . S
O318 Co299 1.958 . S
O318 C332 1.278 . S
O319 Co305 1.950 . S
O319 C331 1.277 . S
O320 Co305 2.262 1_554 S
O320 Co311 2.073 1_545 S
O320 C312 1.253 . S
O321 Co305 1.958 1_565 S
O321 C339 1.278 . S
O322 Co299 1.923 1_545 S
O322 C326 1.306 . S
O323 Co299 2.057 1_556 S
O323 C338 1.263 . S
O324 Co311 2.054 1_556 S
O324 C339 1.237 . S
O325 Co305 2.057 1_554 S
O325 C312 1.263 . S
C326 O316 1.221 . S
C326 O322 1.306 . S
C327 C310 1.361 . S
C327 H328 0.960 . S
C327 H329 0.961 . S
C327 H330 0.961 . S
H328 C327 0.960 . S
H329 C327 0.961 . S
H330 C327 0.961 . S
C331 O315 1.221 . S
C331 O319 1.277 . S
C332 O317 1.237 . S
C332 O318 1.278 . S
H333 C301 0.931 . S
H334 C337 0.961 . S
H335 C337 0.961 . S
H336 C337 0.960 . S
C337 C303 1.361 . S
C337 H334 0.961 . S
C337 H335 0.961 . S
C337 H336 0.960 . S
C338 O314 1.253 . S
C338 O323 1.263 . S
C339 O321 1.278 . S
C339 O324 1.237 . S
H340 C304 0.930 . S
H341 C308 0.930 . S
Co342 N343 2.034 . S
Co342 O357 2.262 1_554 S
Co342 O361 1.958 1_455 S
Co342 O365 1.950 . S
Co342 O366 2.057 1_554 S
N343 Co342 2.034 . S
N343 C344 1.366 . S
N343 C346 1.332 . S
C344 N343 1.366 . S
C344 C347 1.377 . S
C344 H376 0.931 . S
N345 C346 1.346 . S
N345 C347 1.337 . S
C346 N343 1.332 . S
C346 N345 1.346 . S
C346 C380 1.361 . S
C347 C344 1.377 . S
C347 N345 1.337 . S
C347 H383 0.930 . S
Co348 N349 2.034 . S
Co348 O362 1.923 1_655 S
Co348 O363 2.262 1_556 S
Co348 O364 1.958 . S
Co348 O368 2.057 1_556 S
N349 Co348 2.034 . S
N349 C352 1.366 . S
N349 C353 1.332 . S
N350 C351 1.337 . S
N350 C353 1.346 . S
C351 N350 1.337 . S
C351 C352 1.377 . S
C351 H384 0.930 . S
C352 N349 1.366 . S
C352 C351 1.377 . S
C352 H356 0.931 . S
C353 N349 1.332 . S
C353 N350 1.346 . S
C353 C370 1.361 . S
Co354 O357 2.073 1_654 S
Co354 O358 2.054 1_654 S
Co354 O359 2.046 1_655 S
Co354 O360 2.053 . S
Co354 O363 2.121 . S
Co354 O367 2.060 1_554 S
C355 O363 1.253 . S
C355 O368 1.263 . S
H356 C352 0.931 . S
O357 Co342 2.262 1_556 S
O357 Co354 2.073 1_456 S
O357 C381 1.253 . S
O358 Co354 2.054 1_456 S
O358 C374 1.221 . S
O359 Co354 2.046 1_455 S
O359 C369 1.221 . S
O360 Co354 2.053 . S
O360 C375 1.237 . S
O361 Co342 1.958 1_655 S
O361 C375 1.278 . S
O362 Co348 1.923 1_455 S
O362 C374 1.306 . S
O363 Co348 2.262 1_554 S
O363 Co354 2.121 . S
O363 C355 1.253 . S
O364 Co348 1.958 . S
O364 C382 1.278 . S
O365 Co342 1.950 . S
O365 C369 1.277 . S
O366 Co342 2.057 1_556 S
O366 C381 1.263 . S
O367 Co354 2.060 1_556 S
O367 C382 1.237 . S
O368 Co348 2.057 1_554 S
O368 C355 1.263 . S
C369 O359 1.221 . S
C369 O365 1.277 . S
C370 C353 1.361 . S
C370 H371 0.960 . S
C370 H372 0.961 . S
C370 H373 0.961 . S
H371 C370 0.960 . S
H372 C370 0.961 . S
H373 C370 0.961 . S
C374 O358 1.221 . S
C374 O362 1.306 . S
C375 O360 1.237 . S
C375 O361 1.278 . S
H376 C344 0.931 . S
H377 C380 0.961 . S
H378 C380 0.961 . S
H379 C380 0.960 . S
C380 C346 1.361 . S
C380 H377 0.961 . S
C380 H378 0.961 . S
C380 H379 0.960 . S
C381 O357 1.253 . S
C381 O366 1.263 . S
C382 O364 1.278 . S
C382 O367 1.237 . S
H383 C347 0.930 . S
H384 C351 0.930 . S
Co385 N386 2.034 . S
Co385 O400 2.262 1_554 S
Co385 O404 1.958 . S
Co385 O408 1.950 . S
Co385 O409 2.057 1_554 S
N386 Co385 2.034 . S
N386 C387 1.366 . S
N386 C389 1.332 . S
C387 N386 1.366 . S
C387 C390 1.377 . S
C387 H419 0.931 . S
N388 C389 1.346 . S
N388 C390 1.337 . S
C389 N386 1.332 . S
C389 N388 1.346 . S
C389 C423 1.361 . S
C390 C387 1.377 . S
C390 N388 1.337 . S
C390 H426 0.930 . S
Co391 N392 2.034 . S
Co391 O405 1.950 . S
Co391 O406 2.262 1_556 S
Co391 O407 1.958 . S
Co391 O411 2.057 1_556 S
N392 Co391 2.034 . S
N392 C395 1.366 . S
N392 C396 1.332 . S
N393 C394 1.337 . S
N393 C396 1.346 . S
C394 N393 1.337 . S
C394 C395 1.377 . S
C394 H427 0.930 . S
C395 N392 1.366 . S
C395 C394 1.377 . S
C395 H399 0.931 . S
C396 N392 1.332 . S
C396 N393 1.346 . S
C396 C413 1.361 . S
Co397 O400 2.097 1_554 S
Co397 O401 2.065 1_554 S
Co397 O402 2.065 . S
Co397 O403 2.042 . S
Co397 O406 2.097 . S
Co397 O410 2.042 1_554 S
C398 O406 1.253 . S
C398 O411 1.263 . S
H399 C395 0.931 . S
O400 Co385 2.262 1_556 S
O400 Co397 2.097 1_556 S
O400 C424 1.253 . S
O401 Co397 2.065 1_556 S
O401 C417 1.221 . S
O402 Co397 2.065 . S
O402 C412 1.221 . S
O403 Co397 2.042 . S
O403 C418 1.237 . S
O404 Co385 1.958 . S
O404 C418 1.278 . S
O405 Co391 1.950 . S
O405 C417 1.277 . S
O406 Co391 2.262 1_554 S
O406 Co397 2.097 . S
O406 C398 1.253 . S
O407 Co391 1.958 . S
O407 C425 1.278 . S
O408 Co385 1.950 . S
O408 C412 1.277 . S
O409 Co385 2.057 1_556 S
O409 C424 1.263 . S
O410 Co397 2.042 1_556 S
O410 C425 1.237 . S
O411 Co391 2.057 1_554 S
O411 C398 1.263 . S
C412 O402 1.221 . S
C412 O408 1.277 . S
C413 C396 1.361 . S
C413 H414 0.960 . S
C413 H415 0.961 . S
C413 H416 0.961 . S
H414 C413 0.960 . S
H415 C413 0.961 . S
H416 C413 0.961 . S
C417 O401 1.221 . S
C417 O405 1.277 . S
C418 O403 1.237 . S
C418 O404 1.278 . S
H419 C387 0.931 . S
H420 C423 0.961 . S
H421 C423 0.961 . S
H422 C423 0.960 . S
C423 C389 1.361 . S
C423 H420 0.961 . S
C423 H421 0.961 . S
C423 H422 0.960 . S
C424 O400 1.253 . S
C424 O409 1.263 . S
C425 O407 1.278 . S
C425 O410 1.237 . S
H426 C390 0.930 . S
H427 C394 0.930 . S
Co428 N429 2.034 . S
Co428 O443 2.262 . S
Co428 O447 1.958 1_455 S
Co428 O451 1.950 . S
Co428 O452 2.057 . S
N429 Co428 2.034 . S
N429 C430 1.366 . S
N429 C432 1.332 . S
C430 N429 1.366 . S
C430 C433 1.377 . S
C430 H462 0.931 . S
N431 C432 1.346 . S
N431 C433 1.337 . S
C432 N429 1.332 . S
C432 N431 1.346 . S
C432 C466 1.361 . S
C433 C430 1.377 . S
C433 N431 1.337 . S
C433 H469 0.930 . S
Co434 N435 2.034 . S
Co434 O448 1.937 1_655 S
Co434 O449 2.262 . S
Co434 O450 1.958 . S
Co434 O454 2.057 . S
N435 Co434 2.034 . S
N435 C438 1.366 . S
N435 C439 1.332 . S
N436 C437 1.337 . S
N436 C439 1.346 . S
C437 N436 1.337 . S
C437 C438 1.377 . S
C437 H470 0.930 . S
C438 N435 1.366 . S
C438 C437 1.377 . S
C438 H442 0.931 . S
C439 N435 1.332 . S
C439 N436 1.346 . S
C439 C456 1.361 . S
Co440 O443 2.097 1_655 S
Co440 O444 2.065 1_655 S
Co440 O445 2.065 1_655 S
Co440 O446 2.042 . S
Co440 O449 2.097 . S
Co440 O453 2.042 . S
C441 O449 1.253 . S
C441 O454 1.263 . S
H442 C438 0.931 . S
O443 Co428 2.262 . S
O443 Co440 2.097 1_455 S
O443 C467 1.253 . S
O444 Co440 2.065 1_455 S
O444 C460 1.221 . S
O445 Co440 2.065 1_455 S
O445 C455 1.221 . S
O446 Co440 2.042 . S
O446 C461 1.237 . S
O447 Co428 1.958 1_655 S
O447 C461 1.278 . S
O448 Co434 1.937 1_455 S
O448 C460 1.292 . S
O449 Co434 2.262 . S
O449 Co440 2.097 . S
O449 C441 1.253 . S
O450 Co434 1.958 . S
O450 C468 1.278 . S
O451 Co428 1.950 . S
O451 C455 1.277 . S
O452 Co428 2.057 . S
O452 C467 1.263 . S
O453 Co440 2.042 . S
O453 C468 1.237 . S
O454 Co434 2.057 . S
O454 C441 1.263 . S
C455 O445 1.221 . S
C455 O451 1.277 . S
C456 C439 1.361 . S
C456 H457 0.960 . S
C456 H458 0.961 . S
C456 H459 0.961 . S
H457 C456 0.960 . S
H458 C456 0.961 . S
H459 C456 0.961 . S
C460 O444 1.221 . S
C460 O448 1.292 . S
C461 O446 1.237 . S
C461 O447 1.278 . S
H462 C430 0.931 . S
H463 C466 0.961 . S
H464 C466 0.961 . S
H465 C466 0.960 . S
C466 C432 1.361 . S
C466 H463 0.961 . S
C466 H464 0.961 . S
C466 H465 0.960 . S
C467 O443 1.253 . S
C467 O452 1.263 . S
C468 O450 1.278 . S
C468 O453 1.237 . S
H469 C433 0.930 . S
H470 C437 0.930 . S
Co471 N472 2.034 . S
Co471 O486 2.262 . S
Co471 O490 1.958 . S
Co471 O494 1.950 1_565 S
Co471 O495 2.057 . S
N472 Co471 2.034 . S
N472 C473 1.366 . S
N472 C475 1.332 . S
C473 N472 1.366 . S
C473 C476 1.377 . S
C473 H505 0.931 . S
N474 C475 1.346 . S
N474 C476 1.337 . S
C475 N472 1.332 . S
C475 N474 1.346 . S
C475 C509 1.361 . S
C476 C473 1.377 . S
C476 N474 1.337 . S
C476 H512 0.930 . S
Co477 N478 2.034 . S
Co477 O491 1.950 . S
Co477 O492 2.262 . S
Co477 O493 1.958 1_545 S
Co477 O497 2.057 . S
N478 Co477 2.034 . S
N478 C481 1.366 . S
N478 C482 1.332 . S
N479 C480 1.337 . S
N479 C482 1.346 . S
C480 N479 1.337 . S
C480 C481 1.377 . S
C480 H513 0.930 . S
C481 N478 1.366 . S
C481 C480 1.377 . S
C481 H485 0.931 . S
C482 N478 1.332 . S
C482 N479 1.346 . S
C482 C499 1.361 . S
Co483 O486 2.102 . S
Co483 O487 2.061 1_565 S
Co483 O488 2.063 1_565 S
Co483 O489 2.046 . S
Co483 O492 2.092 1_565 S
Co483 O496 2.044 . S
C484 O492 1.253 . S
C484 O497 1.263 . S
H485 C481 0.931 . S
O486 Co471 2.262 . S
O486 Co483 2.102 . S
O486 C510 1.253 . S
O487 Co483 2.061 1_545 S
O487 C503 1.221 . S
O488 Co483 2.063 1_545 S
O488 C498 1.221 . S
O489 Co483 2.046 . S
O489 C504 1.237 . S
O490 Co471 1.958 . S
O490 C504 1.278 . S
O491 Co477 1.950 . S
O491 C503 1.277 . S
O492 Co477 2.262 . S
O492 Co483 2.092 1_545 S
O492 C484 1.253 . S
O493 Co477 1.958 1_565 S
O493 C511 1.278 . S
O494 Co471 1.950 1_545 S
O494 C498 1.277 . S
O495 Co471 2.057 . S
O495 C510 1.263 . S
O496 Co483 2.044 . S
O496 C511 1.237 . S
O497 Co477 2.057 . S
O497 C484 1.263 . S
C498 O488 1.221 . S
C498 O494 1.277 . S
C499 C482 1.361 . S
C499 H500 0.960 . S
C499 H501 0.961 . S
C499 H502 0.961 . S
H500 C499 0.960 . S
H501 C499 0.961 . S
H502 C499 0.961 . S
C503 O487 1.221 . S
C503 O491 1.277 . S
C504 O489 1.237 . S
C504 O490 1.278 . S
H505 C473 0.931 . S
H506 C509 0.961 . S
H507 C509 0.961 . S
H508 C509 0.960 . S
C509 C475 1.361 . S
C509 H506 0.961 . S
C509 H507 0.961 . S
C509 H508 0.960 . S
C510 O486 1.253 . S
C510 O495 1.263 . S
C511 O493 1.278 . S
C511 O496 1.237 . S
H512 C476 0.930 . S
H513 C480 0.930 . S
H514 C526 0.930 . S
H515 C528 0.930 . S
H516 C529 0.930 . S
H517 C533 0.959 . S
H518 C533 0.959 . S
H519 C533 0.961 . S
H520 C534 0.960 . S
H521 C534 0.961 . S
H522 C534 0.959 . S
H523 C537 0.929 . S
H524 C538 0.931 . S
H525 C540 0.930 . S
C526 H514 0.930 . S
C526 C527 1.399 . S
C526 C531 1.399 . S
C527 C526 1.399 . S
C527 C528 1.376 . S
C528 H515 0.930 . S
C528 C527 1.376 . S
C528 C529 1.388 . S
C529 H516 0.930 . S
C529 C528 1.388 . S
C529 C530 1.390 . S
C530 C529 1.390 . S
C530 C531 1.394 . S
C530 C536 1.465 . S
C531 C526 1.399 . S
C531 C530 1.394 . S
C531 C532 1.516 . S
C532 C531 1.516 . S
C532 C533 1.502 . S
C532 C534 1.561 . S
C532 C535 1.526 . S
C533 H517 0.959 . S
C533 H518 0.959 . S
C533 H519 0.961 . S
C533 C532 1.502 . S
C534 H520 0.960 . S
C534 H521 0.961 . S
C534 H522 0.959 . S
C534 C532 1.561 . S
C535 C532 1.526 . S
C535 C536 1.396 . S
C535 C540 1.390 . S
C536 C530 1.465 . S
C536 C535 1.396 . S
C536 C537 1.399 . S
C537 H523 0.929 . S
C537 C536 1.399 . S
C537 C538 1.385 . S
C538 H524 0.931 . S
C538 C537 1.385 . S
C538 C539 1.389 . S
C539 C538 1.389 . S
C539 C540 1.387 . S
C540 H525 0.930 . S
C540 C535 1.390 . S
C540 C539 1.387 . S
H541 C553 0.930 . S
H542 C555 0.930 . S
H543 C556 0.930 . S
H544 C560 0.959 . S
H545 C560 0.959 . S
H546 C560 0.961 . S
H547 C561 0.960 . S
H548 C561 0.961 . S
H549 C561 0.959 . S
H550 C564 0.929 . S
H551 C565 0.931 . S
H552 C567 0.930 . S
C553 H541 0.930 . S
C553 C554 1.399 . S
C553 C558 1.399 . S
C554 C553 1.399 . S
C554 C555 1.376 . S
C555 H542 0.930 . S
C555 C554 1.376 . S
C555 C556 1.388 . S
C556 H543 0.930 . S
C556 C555 1.388 . S
C556 C557 1.390 . S
C557 C556 1.390 . S
C557 C558 1.394 . S
C557 C563 1.465 . S
C558 C553 1.399 . S
C558 C557 1.394 . S
C558 C559 1.516 . S
C559 C558 1.516 . S
C559 C560 1.502 . S
C559 C561 1.561 . S
C559 C562 1.526 . S
C560 H544 0.959 . S
C560 H545 0.959 . S
C560 H546 0.961 . S
C560 C559 1.502 . S
C561 H547 0.960 . S
C561 H548 0.961 . S
C561 H549 0.959 . S
C561 C559 1.561 . S
C562 C559 1.526 . S
C562 C563 1.396 . S
C562 C567 1.390 . S
C563 C557 1.465 . S
C563 C562 1.396 . S
C563 C564 1.399 . S
C564 H550 0.929 . S
C564 C563 1.399 . S
C564 C565 1.385 . S
C565 H551 0.931 . S
C565 C564 1.385 . S
C565 C566 1.389 . S
C566 C565 1.389 . S
C566 C567 1.387 . S
C567 H552 0.930 . S
C567 C562 1.390 . S
C567 C566 1.387 . S
H568 C580 0.930 . S
H569 C582 0.930 . S
H570 C583 0.930 . S
H571 C587 0.959 . S
H572 C587 0.959 . S
H573 C587 0.961 . S
H574 C588 0.960 . S
H575 C588 0.961 1_545 S
H576 C588 0.959 . S
H577 C591 0.929 . S
H578 C592 0.931 . S
H579 C594 0.930 . S
C580 H568 0.930 . S
C580 C581 1.399 . S
C580 C585 1.399 . S
C581 C580 1.399 . S
C581 C582 1.376 . S
C582 H569 0.930 . S
C582 C581 1.376 . S
C582 C583 1.388 . S
C583 H570 0.930 . S
C583 C582 1.388 . S
C583 C584 1.390 . S
C584 C583 1.390 . S
C584 C585 1.394 . S
C584 C590 1.465 . S
C585 C580 1.399 . S
C585 C584 1.394 . S
C585 C586 1.516 . S
C586 C585 1.516 . S
C586 C587 1.502 . S
C586 C588 1.561 . S
C586 C589 1.526 . S
C587 H571 0.959 . S
C587 H572 0.959 . S
C587 H573 0.961 . S
C587 C586 1.502 . S
C588 H574 0.960 . S
C588 H575 0.961 1_565 S
C588 H576 0.959 . S
C588 C586 1.561 . S
C589 C586 1.526 . S
C589 C590 1.396 . S
C589 C594 1.390 . S
C590 C584 1.465 . S
C590 C589 1.396 . S
C590 C591 1.399 . S
C591 H577 0.929 . S
C591 C590 1.399 . S
C591 C592 1.385 . S
C592 H578 0.931 . S
C592 C591 1.385 . S
C592 C593 1.389 . S
C593 C592 1.389 . S
C593 C594 1.387 . S
C594 H579 0.930 . S
C594 C589 1.390 . S
C594 C593 1.387 . S
H595 C607 0.930 . S
H596 C609 0.930 . S
H597 C610 0.930 . S
H598 C614 0.959 . S
H599 C614 0.959 . S
H600 C614 0.961 . S
H601 C615 0.960 . S
H602 C615 0.961 . S
H603 C615 0.959 . S
H604 C618 0.929 . S
H605 C619 0.931 . S
H606 C621 0.930 . S
C607 H595 0.930 . S
C607 C608 1.399 . S
C607 C612 1.399 . S
C608 C607 1.399 . S
C608 C609 1.376 . S
C609 H596 0.930 . S
C609 C608 1.376 . S
C609 C610 1.388 . S
C610 H597 0.930 . S
C610 C609 1.388 . S
C610 C611 1.390 . S
C611 C610 1.390 . S
C611 C612 1.394 . S
C611 C617 1.465 . S
C612 C607 1.399 . S
C612 C611 1.394 . S
C612 C613 1.516 . S
C613 C612 1.516 . S
C613 C614 1.502 . S
C613 C615 1.561 . S
C613 C616 1.526 . S
C614 H598 0.959 . S
C614 H599 0.959 . S
C614 H600 0.961 . S
C614 C613 1.502 . S
C615 H601 0.960 . S
C615 H602 0.961 . S
C615 H603 0.959 . S
C615 C613 1.561 . S
C616 C613 1.526 . S
C616 C617 1.396 . S
C616 C621 1.390 . S
C617 C611 1.465 . S
C617 C616 1.396 . S
C617 C618 1.399 . S
C618 H604 0.929 . S
C618 C617 1.399 . S
C618 C619 1.385 . S
C619 H605 0.931 . S
C619 C618 1.385 . S
C619 C620 1.389 . S
C620 C619 1.389 . S
C620 C621 1.387 . S
C621 H606 0.930 . S
C621 C616 1.390 . S
C621 C620 1.387 . S
H622 C634 0.930 . S
H623 C636 0.930 . S
H624 C637 0.930 . S
H625 C641 0.959 . S
H626 C641 0.959 . S
H627 C641 0.961 . S
H628 C642 0.960 . S
H629 C642 0.961 . S
H630 C642 0.959 . S
H631 C645 0.929 . S
H632 C646 0.931 . S
H633 C648 0.930 . S
C634 H622 0.930 . S
C634 C635 1.399 . S
C634 C639 1.399 . S
C635 C634 1.399 . S
C635 C636 1.376 . S
C636 H623 0.930 . S
C636 C635 1.376 . S
C636 C637 1.388 . S
C637 H624 0.930 . S
C637 C636 1.388 . S
C637 C638 1.390 . S
C638 C637 1.390 . S
C638 C639 1.394 . S
C638 C644 1.465 . S
C639 C634 1.399 . S
C639 C638 1.394 . S
C639 C640 1.516 . S
C640 C639 1.516 . S
C640 C641 1.502 . S
C640 C642 1.561 . S
C640 C643 1.526 . S
C641 H625 0.959 . S
C641 H626 0.959 . S
C641 H627 0.961 . S
C641 C640 1.502 . S
C642 H628 0.960 . S
C642 H629 0.961 . S
C642 H630 0.959 . S
C642 C640 1.561 . S
C643 C640 1.526 . S
C643 C644 1.396 . S
C643 C648 1.390 . S
C644 C638 1.465 . S
C644 C643 1.396 . S
C644 C645 1.399 . S
C645 H631 0.929 . S
C645 C644 1.399 . S
C645 C646 1.385 . S
C646 H632 0.931 . S
C646 C645 1.385 . S
C646 C647 1.389 . S
C647 C646 1.389 . S
C647 C648 1.387 . S
C648 H633 0.930 . S
C648 C643 1.390 . S
C648 C647 1.387 . S
H649 C661 0.930 . S
H650 C663 0.930 . S
H651 C664 0.930 . S
H652 C668 0.959 . S
H653 C668 0.959 . S
H654 C668 0.961 . S
H655 C669 0.960 . S
H656 C669 0.959 . S
H657 C669 0.959 . S
H658 C672 0.929 . S
H659 C673 0.931 . S
H660 C675 0.930 . S
C661 H649 0.930 . S
C661 C662 1.399 . S
C661 C666 1.399 . S
C662 C661 1.399 . S
C662 C663 1.376 . S
C663 H650 0.930 . S
C663 C662 1.376 . S
C663 C664 1.388 . S
C664 H651 0.930 . S
C664 C663 1.388 . S
C664 C665 1.390 . S
C665 C664 1.390 . S
C665 C666 1.394 . S
C665 C671 1.465 . S
C666 C661 1.399 . S
C666 C665 1.394 . S
C666 C667 1.516 . S
C667 C666 1.516 . S
C667 C668 1.502 . S
C667 C669 1.561 . S
C667 C670 1.526 . S
C668 H652 0.959 . S
C668 H653 0.959 . S
C668 H654 0.961 . S
C668 C667 1.502 . S
C669 H655 0.960 . S
C669 H656 0.959 . S
C669 H657 0.959 . S
C669 C667 1.561 . S
C670 C667 1.526 . S
C670 C671 1.396 . S
C670 C675 1.390 . S
C671 C665 1.465 . S
C671 C670 1.396 . S
C671 C672 1.399 . S
C672 H658 0.929 . S
C672 C671 1.399 . S
C672 C673 1.385 . S
C673 H659 0.931 . S
C673 C672 1.385 . S
C673 C674 1.389 . S
C674 C673 1.389 . S
C674 C675 1.387 . S
C675 H660 0.930 . S
C675 C670 1.390 . S
C675 C674 1.387 . S
H676 C688 0.930 . S
H677 C690 0.930 . S
H678 C691 0.930 . S
H679 C695 0.959 . S
H680 C695 0.959 . S
H681 C695 0.961 . S
H682 C696 0.960 . S
H683 C696 0.961 . S
H684 C696 0.959 . S
H685 C699 0.929 . S
H686 C700 0.931 . S
H687 C702 0.930 . S
C688 H676 0.930 . S
C688 C689 1.399 . S
C688 C693 1.399 . S
C689 C688 1.399 . S
C689 C690 1.376 . S
C690 H677 0.930 . S
C690 C689 1.376 . S
C690 C691 1.388 . S
C691 H678 0.930 . S
C691 C690 1.388 . S
C691 C692 1.390 . S
C692 C691 1.390 . S
C692 C693 1.394 . S
C692 C698 1.465 . S
C693 C688 1.399 . S
C693 C692 1.394 . S
C693 C694 1.516 . S
C694 C693 1.516 . S
C694 C695 1.502 . S
C694 C696 1.561 . S
C694 C697 1.526 . S
C695 H679 0.959 . S
C695 H680 0.959 . S
C695 H681 0.961 . S
C695 C694 1.502 . S
C696 H682 0.960 . S
C696 H683 0.961 . S
C696 H684 0.959 . S
C696 C694 1.561 . S
C697 C694 1.526 . S
C697 C698 1.396 . S
C697 C702 1.390 . S
C698 C692 1.465 . S
C698 C697 1.396 . S
C698 C699 1.399 . S
C699 H685 0.929 . S
C699 C698 1.399 . S
C699 C700 1.385 . S
C700 H686 0.931 . S
C700 C699 1.385 . S
C700 C701 1.389 . S
C701 C700 1.389 . S
C701 C702 1.387 . S
C702 H687 0.930 . S
C702 C697 1.390 . S
C702 C701 1.387 . S
H703 C715 0.930 . S
H704 C717 0.930 . S
H705 C718 0.930 . S
H706 C722 0.959 . S
H707 C722 0.959 1_455 S
H708 C722 0.961 . S
H709 C723 0.960 . S
H710 C723 0.961 . S
H711 C723 0.959 . S
H712 C726 0.929 . S
H713 C727 0.931 . S
H714 C729 0.930 . S
C715 H703 0.930 . S
C715 C716 1.399 . S
C715 C720 1.399 . S
C716 C715 1.399 . S
C716 C717 1.376 . S
C717 H704 0.930 . S
C717 C716 1.376 . S
C717 C718 1.388 . S
C718 H705 0.930 . S
C718 C717 1.388 . S
C718 C719 1.390 . S
C719 C718 1.390 . S
C719 C720 1.394 . S
C719 C725 1.465 . S
C720 C715 1.399 . S
C720 C719 1.394 . S
C720 C721 1.516 . S
C721 C720 1.516 . S
C721 C722 1.502 . S
C721 C723 1.561 . S
C721 C724 1.526 . S
C722 H706 0.959 . S
C722 H707 0.959 1_655 S
C722 H708 0.961 . S
C722 C721 1.502 . S
C723 H709 0.960 . S
C723 H710 0.961 . S
C723 H711 0.959 . S
C723 C721 1.561 . S
C724 C721 1.526 . S
C724 C725 1.396 . S
C724 C729 1.390 . S
C725 C719 1.465 . S
C725 C724 1.396 . S
C725 C726 1.399 . S
C726 H712 0.929 . S
C726 C725 1.399 . S
C726 C727 1.385 . S
C727 H713 0.931 . S
C727 C726 1.385 . S
C727 C728 1.389 . S
C728 C727 1.389 . S
C728 C729 1.387 . S
C729 H714 0.930 . S
C729 C724 1.390 . S
C729 C728 1.387 . S
H730 C742 0.930 . S
H731 C744 0.930 . S
H732 C745 0.930 . S
H733 C749 0.959 . S
H734 C749 0.959 . S
H735 C749 0.961 . S
H736 C750 0.960 . S
H737 C750 0.961 . S
H738 C750 0.959 . S
H739 C753 0.929 . S
H740 C754 0.931 . S
H741 C756 0.930 . S
C742 H730 0.930 . S
C742 C743 1.399 . S
C742 C747 1.399 . S
C743 C742 1.399 . S
C743 C744 1.376 . S
C744 H731 0.930 . S
C744 C743 1.376 . S
C744 C745 1.388 . S
C745 H732 0.930 . S
C745 C744 1.388 . S
C745 C746 1.390 . S
C746 C745 1.390 . S
C746 C747 1.394 . S
C746 C752 1.465 . S
C747 C742 1.399 . S
C747 C746 1.394 . S
C747 C748 1.516 . S
C748 C747 1.516 . S
C748 C749 1.502 . S
C748 C750 1.561 . S
C748 C751 1.526 . S
C749 H733 0.959 . S
C749 H734 0.959 . S
C749 H735 0.961 . S
C749 C748 1.502 . S
C750 H736 0.960 . S
C750 H737 0.961 . S
C750 H738 0.959 . S
C750 C748 1.561 . S
C751 C748 1.526 . S
C751 C752 1.396 . S
C751 C756 1.390 . S
C752 C746 1.465 . S
C752 C751 1.396 . S
C752 C753 1.399 . S
C753 H739 0.929 . S
C753 C752 1.399 . S
C753 C754 1.385 . S
C754 H740 0.931 . S
C754 C753 1.385 . S
C754 C755 1.389 . S
C755 C754 1.389 . S
C755 C756 1.387 . S
C756 H741 0.930 . S
C756 C751 1.390 . S
C756 C755 1.387 . S
H757 C769 0.930 . S
H758 C771 0.930 . S
H759 C772 0.930 . S
H760 C776 0.959 . S
H761 C776 0.959 . S
H762 C776 0.961 . S
H763 C777 0.960 . S
H764 C777 0.961 . S
H765 C777 0.959 . S
H766 C780 0.929 . S
H767 C781 0.931 . S
H768 C783 0.930 . S
C769 H757 0.930 . S
C769 C770 1.399 . S
C769 C774 1.399 . S
C770 C769 1.399 . S
C770 C771 1.376 . S
C771 H758 0.930 . S
C771 C770 1.376 . S
C771 C772 1.388 . S
C772 H759 0.930 . S
C772 C771 1.388 . S
C772 C773 1.390 . S
C773 C772 1.390 . S
C773 C774 1.394 . S
C773 C779 1.465 . S
C774 C769 1.399 . S
C774 C773 1.394 . S
C774 C775 1.516 . S
C775 C774 1.516 . S
C775 C776 1.502 . S
C775 C777 1.561 . S
C775 C778 1.526 . S
C776 H760 0.959 . S
C776 H761 0.959 . S
C776 H762 0.961 . S
C776 C775 1.502 . S
C777 H763 0.960 . S
C777 H764 0.961 . S
C777 H765 0.959 . S
C777 C775 1.561 . S
C778 C775 1.526 . S
C778 C779 1.396 . S
C778 C783 1.390 . S
C779 C773 1.465 . S
C779 C778 1.396 . S
C779 C780 1.399 . S
C780 H766 0.929 . S
C780 C779 1.399 . S
C780 C781 1.385 . S
C781 H767 0.931 . S
C781 C780 1.385 . S
C781 C782 1.389 . S
C782 C781 1.389 . S
C782 C783 1.387 . S
C783 H768 0.930 . S
C783 C778 1.390 . S
C783 C782 1.387 . S
H784 C796 0.930 . S
H785 C798 0.930 . S
H786 C799 0.930 . S
H787 C803 0.959 . S
H788 C803 0.959 . S
H789 C803 0.961 . S
H790 C804 0.960 . S
H791 C804 0.961 . S
H792 C804 0.959 . S
H793 C807 0.929 . S
H794 C808 0.931 . S
H795 C810 0.930 . S
C796 H784 0.930 . S
C796 C797 1.399 . S
C796 C801 1.399 . S
C797 C796 1.399 . S
C797 C798 1.376 . S
C798 H785 0.930 . S
C798 C797 1.376 . S
C798 C799 1.388 . S
C799 H786 0.930 . S
C799 C798 1.388 . S
C799 C800 1.390 . S
C800 C799 1.390 . S
C800 C801 1.394 . S
C800 C806 1.465 . S
C801 C796 1.399 . S
C801 C800 1.394 . S
C801 C802 1.516 . S
C802 C801 1.516 . S
C802 C803 1.502 . S
C802 C804 1.561 . S
C802 C805 1.526 . S
C803 H787 0.959 . S
C803 H788 0.959 . S
C803 H789 0.961 . S
C803 C802 1.502 . S
C804 H790 0.960 . S
C804 H791 0.961 . S
C804 H792 0.959 . S
C804 C802 1.561 . S
C805 C802 1.526 . S
C805 C806 1.396 . S
C805 C810 1.390 . S
C806 C800 1.465 . S
C806 C805 1.396 . S
C806 C807 1.399 . S
C807 H793 0.929 . S
C807 C806 1.399 . S
C807 C808 1.385 . S
C808 H794 0.931 . S
C808 C807 1.385 . S
C808 C809 1.389 . S
C809 C808 1.389 . S
C809 C810 1.387 . S
C810 H795 0.930 . S
C810 C805 1.390 . S
C810 C809 1.387 . S
H811 C823 0.930 . S
H812 C825 0.930 . S
H813 C826 0.930 . S
H814 C830 0.959 . S
H815 C830 0.959 . S
H816 C830 0.961 . S
H817 C831 0.960 . S
H818 C831 0.961 . S
H819 C831 0.959 . S
H820 C834 0.929 . S
H821 C835 0.931 . S
H822 C837 0.930 . S
C823 H811 0.930 . S
C823 C824 1.399 . S
C823 C828 1.399 . S
C824 C823 1.399 . S
C824 C825 1.376 . S
C825 H812 0.930 . S
C825 C824 1.376 . S
C825 C826 1.388 . S
C826 H813 0.930 . S
C826 C825 1.388 . S
C826 C827 1.390 . S
C827 C826 1.390 . S
C827 C828 1.394 . S
C827 C833 1.465 . S
C828 C823 1.399 . S
C828 C827 1.394 . S
C828 C829 1.516 . S
C829 C828 1.516 . S
C829 C830 1.502 . S
C829 C831 1.561 . S
C829 C832 1.526 . S
C830 H814 0.959 . S
C830 H815 0.959 . S
C830 H816 0.961 . S
C830 C829 1.502 . S
C831 H817 0.960 . S
C831 H818 0.961 . S
C831 H819 0.959 . S
C831 C829 1.561 . S
C832 C829 1.526 . S
C832 C833 1.396 . S
C832 C837 1.390 . S
C833 C827 1.465 . S
C833 C832 1.396 . S
C833 C834 1.399 . S
C834 H820 0.929 . S
C834 C833 1.399 . S
C834 C835 1.385 . S
C835 H821 0.931 . S
C835 C834 1.385 . S
C835 C836 1.389 . S
C836 C835 1.389 . S
C836 C837 1.387 . S
C837 H822 0.930 . S
C837 C832 1.390 . S
C837 C836 1.387 . S
H838 C850 0.930 . S
H839 C852 0.930 . S
H840 C853 0.930 . S
H841 C857 0.959 . S
H842 C857 0.959 . S
H843 C857 0.961 . S
H844 C858 0.960 . S
H845 C858 0.961 . S
H846 C858 0.959 . S
H847 C861 0.929 . S
H848 C862 0.931 . S
H849 C864 0.930 . S
C850 H838 0.930 . S
C850 C851 1.399 . S
C850 C855 1.399 . S
C851 C850 1.399 . S
C851 C852 1.376 . S
C852 H839 0.930 . S
C852 C851 1.376 . S
C852 C853 1.388 . S
C853 H840 0.930 . S
C853 C852 1.388 . S
C853 C854 1.390 . S
C854 C853 1.390 . S
C854 C855 1.394 . S
C854 C860 1.465 . S
C855 C850 1.399 . S
C855 C854 1.394 . S
C855 C856 1.516 . S
C856 C855 1.516 . S
C856 C857 1.502 . S
C856 C858 1.561 . S
C856 C859 1.526 . S
C857 H841 0.959 . S
C857 H842 0.959 . S
C857 H843 0.961 . S
C857 C856 1.502 . S
C858 H844 0.960 . S
C858 H845 0.961 . S
C858 H846 0.959 . S
C858 C856 1.561 . S
C859 C856 1.526 . S
C859 C860 1.396 . S
C859 C864 1.390 . S
C860 C854 1.465 . S
C860 C859 1.396 . S
C860 C861 1.399 . S
C861 H847 0.929 . S
C861 C860 1.399 . S
C861 C862 1.385 . S
C862 H848 0.931 . S
C862 C861 1.385 . S
C862 C863 1.389 . S
C863 C862 1.389 . S
C863 C864 1.387 . S
C864 H849 0.930 . S
C864 C859 1.390 . S
C864 C863 1.387 . S
H865 C877 0.930 . S
H866 C879 0.930 . S
H867 C880 0.930 . S
H868 C884 0.959 . S
H869 C884 0.959 . S
H870 C884 0.961 . S
H871 C885 0.960 . S
H872 C885 0.961 . S
H873 C885 0.959 . S
H874 C888 0.929 . S
H875 C889 0.931 . S
H876 C891 0.930 . S
C877 H865 0.930 . S
C877 C878 1.399 . S
C877 C882 1.399 . S
C878 C877 1.399 . S
C878 C879 1.376 . S
C879 H866 0.930 . S
C879 C878 1.376 . S
C879 C880 1.388 . S
C880 H867 0.930 . S
C880 C879 1.388 . S
C880 C881 1.390 . S
C881 C880 1.390 . S
C881 C882 1.394 . S
C881 C887 1.465 . S
C882 C877 1.399 . S
C882 C881 1.394 . S
C882 C883 1.516 . S
C883 C882 1.516 . S
C883 C884 1.502 . S
C883 C885 1.561 . S
C883 C886 1.526 . S
C884 H868 0.959 . S
C884 H869 0.959 . S
C884 H870 0.961 . S
C884 C883 1.502 . S
C885 H871 0.960 . S
C885 H872 0.961 . S
C885 H873 0.959 . S
C885 C883 1.561 . S
C886 C883 1.526 . S
C886 C887 1.396 . S
C886 C891 1.390 . S
C887 C881 1.465 . S
C887 C886 1.396 . S
C887 C888 1.399 . S
C888 H874 0.929 . S
C888 C887 1.399 . S
C888 C889 1.385 . S
C889 H875 0.931 . S
C889 C888 1.385 . S
C889 C890 1.389 . S
C890 C889 1.389 . S
C890 C891 1.387 . S
C891 H876 0.930 . S
C891 C886 1.390 . S
C891 C890 1.387 . S
H892 C904 0.930 . S
H893 C906 0.930 . S
H894 C907 0.930 . S
H895 C911 0.959 . S
H896 C911 0.959 . S
H897 C911 0.961 . S
H898 C912 0.960 . S
H899 C912 0.961 . S
H900 C912 0.959 . S
H901 C915 0.929 . S
H902 C916 0.931 . S
H903 C918 0.930 . S
C904 H892 0.930 . S
C904 C905 1.399 . S
C904 C909 1.399 . S
C905 C904 1.399 . S
C905 C906 1.376 . S
C906 H893 0.930 . S
C906 C905 1.376 . S
C906 C907 1.388 . S
C907 H894 0.930 . S
C907 C906 1.388 . S
C907 C908 1.390 . S
C908 C907 1.390 . S
C908 C909 1.394 . S
C908 C914 1.465 . S
C909 C904 1.399 . S
C909 C908 1.394 . S
C909 C910 1.516 . S
C910 C909 1.516 . S
C910 C911 1.502 . S
C910 C912 1.561 . S
C910 C913 1.526 . S
C911 H895 0.959 . S
C911 H896 0.959 . S
C911 H897 0.961 . S
C911 C910 1.502 . S
C912 H898 0.960 . S
C912 H899 0.961 . S
C912 H900 0.959 . S
C912 C910 1.561 . S
C913 C910 1.526 . S
C913 C914 1.396 . S
C913 C918 1.390 . S
C914 C908 1.465 . S
C914 C913 1.396 . S
C914 C915 1.399 . S
C915 H901 0.929 . S
C915 C914 1.399 . S
C915 C916 1.385 . S
C916 H902 0.931 . S
C916 C915 1.385 . S
C916 C917 1.389 . S
C917 C916 1.389 . S
C917 C918 1.387 . S
C918 H903 0.930 . S
C918 C913 1.390 . S
C918 C917 1.387 . S
H919 C931 0.930 . S
H920 C933 0.930 . S
H921 C934 0.930 . S
H922 C938 0.959 . S
H923 C938 0.959 . S
H924 C938 0.961 . S
H925 C939 0.960 . S
H926 C939 0.961 . S
H927 C939 0.959 . S
H928 C942 0.929 . S
H929 C943 0.931 . S
H930 C945 0.930 . S
C931 H919 0.930 . S
C931 C932 1.399 . S
C931 C936 1.399 . S
C932 C931 1.399 . S
C932 C933 1.376 . S
C933 H920 0.930 . S
C933 C932 1.376 . S
C933 C934 1.388 . S
C934 H921 0.930 . S
C934 C933 1.388 . S
C934 C935 1.390 . S
C935 C934 1.390 . S
C935 C936 1.394 . S
C935 C941 1.465 . S
C936 C931 1.399 . S
C936 C935 1.394 . S
C936 C937 1.516 . S
C937 C936 1.516 . S
C937 C938 1.502 . S
C937 C939 1.561 . S
C937 C940 1.526 . S
C938 H922 0.959 . S
C938 H923 0.959 . S
C938 H924 0.961 . S
C938 C937 1.502 . S
C939 H925 0.960 . S
C939 H926 0.961 . S
C939 H927 0.959 . S
C939 C937 1.561 . S
C940 C937 1.526 . S
C940 C941 1.396 . S
C940 C945 1.390 . S
C941 C935 1.465 . S
C941 C940 1.396 . S
C941 C942 1.399 . S
C942 H928 0.929 . S
C942 C941 1.399 . S
C942 C943 1.385 . S
C943 H929 0.931 . S
C943 C942 1.385 . S
C943 C944 1.389 . S
C944 C943 1.389 . S
C944 C945 1.387 . S
C945 H930 0.930 . S
C945 C940 1.390 . S
C945 C944 1.387 . S
H946 C958 0.930 . S
H947 C960 0.930 . S
H948 C961 0.930 . S
H949 C965 0.959 . S
H950 C965 0.959 . S
H951 C965 0.961 . S
H952 C966 0.960 . S
H953 C966 0.961 . S
H954 C966 0.959 . S
H955 C969 0.929 . S
H956 C970 0.931 . S
H957 C972 0.930 . S
C958 H946 0.930 . S
C958 C959 1.399 . S
C958 C963 1.399 . S
C959 C958 1.399 . S
C959 C960 1.376 . S
C960 H947 0.930 . S
C960 C959 1.376 . S
C960 C961 1.388 . S
C961 H948 0.930 . S
C961 C960 1.388 . S
C961 C962 1.390 . S
C962 C961 1.390 . S
C962 C963 1.394 . S
C962 C968 1.465 . S
C963 C958 1.399 . S
C963 C962 1.394 . S
C963 C964 1.516 . S
C964 C963 1.516 . S
C964 C965 1.502 . S
C964 C966 1.561 . S
C964 C967 1.526 . S
C965 H949 0.959 . S
C965 H950 0.959 . S
C965 H951 0.961 . S
C965 C964 1.502 . S
C966 H952 0.960 . S
C966 H953 0.961 . S
C966 H954 0.959 . S
C966 C964 1.561 . S
C967 C964 1.526 . S
C967 C968 1.396 . S
C967 C972 1.390 . S
C968 C962 1.465 . S
C968 C967 1.396 . S
C968 C969 1.399 . S
C969 H955 0.929 . S
C969 C968 1.399 . S
C969 C970 1.385 . S
C970 H956 0.931 . S
C970 C969 1.385 . S
C970 C971 1.389 . S
C971 C970 1.389 . S
C971 C972 1.387 . S
C972 H957 0.930 . S
C972 C967 1.390 . S
C972 C971 1.387 . S
H973 C985 0.930 . S
H974 C987 0.930 . S
H975 C988 0.930 . S
H976 C992 0.959 . S
H977 C992 0.959 1_554 S
H978 C992 0.961 . S
H979 C993 0.960 . S
H980 C993 0.961 . S
H981 C993 0.959 . S
H982 C996 0.929 . S
H983 C997 0.931 . S
H984 C999 0.930 . S
C985 H973 0.930 . S
C985 C986 1.399 . S
C985 C990 1.399 . S
C986 C985 1.399 . S
C986 C987 1.376 . S
C987 H974 0.930 . S
C987 C986 1.376 . S
C987 C988 1.388 . S
C988 H975 0.930 . S
C988 C987 1.388 . S
C988 C989 1.390 . S
C989 C988 1.390 . S
C989 C990 1.394 . S
C989 C995 1.465 . S
C990 C985 1.399 . S
C990 C989 1.394 . S
C990 C991 1.516 . S
C991 C990 1.516 . S
C991 C992 1.502 . S
C991 C993 1.561 . S
C991 C994 1.526 . S
C992 H976 0.959 . S
C992 H977 0.959 1_556 S
C992 H978 0.961 . S
C992 C991 1.502 . S
C993 H979 0.960 . S
C993 H980 0.961 . S
C993 H981 0.959 . S
C993 C991 1.561 . S
C994 C991 1.526 . S
C994 C995 1.396 . S
C994 C999 1.390 . S
C995 C989 1.465 . S
C995 C994 1.396 . S
C995 C996 1.399 . S
C996 H982 0.929 . S
C996 C995 1.399 . S
C996 C997 1.385 . S
C997 H983 0.931 . S
C997 C996 1.385 . S
C997 C998 1.389 . S
C998 C997 1.389 . S
C998 C999 1.387 . S
C999 H984 0.930 . S
C999 C994 1.390 . S
C999 C998 1.387 . S
H1000 C1012 0.930 . S
H1001 C1014 0.930 . S
H1002 C1015 0.930 . S
H1003 C1019 0.959 . S
H1004 C1019 0.959 . S
H1005 C1019 0.961 . S
H1006 C1020 0.960 . S
H1007 C1020 0.961 . S
H1008 C1020 0.959 . S
H1009 C1023 0.929 . S
H1010 C1024 0.931 . S
H1011 C1026 0.930 . S
C1012 H1000 0.930 . S
C1012 C1013 1.399 . S
C1012 C1017 1.399 . S
C1013 C1012 1.399 . S
C1013 C1014 1.376 . S
C1014 H1001 0.930 . S
C1014 C1013 1.376 . S
C1014 C1015 1.388 . S
C1015 H1002 0.930 . S
C1015 C1014 1.388 . S
C1015 C1016 1.390 . S
C1016 C1015 1.390 . S
C1016 C1017 1.394 . S
C1016 C1022 1.465 . S
C1017 C1012 1.399 . S
C1017 C1016 1.394 . S
C1017 C1018 1.516 . S
C1018 C1017 1.516 . S
C1018 C1019 1.502 . S
C1018 C1020 1.561 . S
C1018 C1021 1.526 . S
C1019 H1003 0.959 . S
C1019 H1004 0.959 . S
C1019 H1005 0.961 . S
C1019 C1018 1.502 . S
C1020 H1006 0.960 . S
C1020 H1007 0.961 . S
C1020 H1008 0.959 . S
C1020 C1018 1.561 . S
C1021 C1018 1.526 . S
C1021 C1022 1.396 . S
C1021 C1026 1.390 . S
C1022 C1016 1.465 . S
C1022 C1021 1.396 . S
C1022 C1023 1.399 . S
C1023 H1009 0.929 . S
C1023 C1022 1.399 . S
C1023 C1024 1.385 . S
C1024 H1010 0.931 . S
C1024 C1023 1.385 . S
C1024 C1025 1.389 . S
C1025 C1024 1.389 . S
C1025 C1026 1.387 . S
C1026 H1011 0.930 . S
C1026 C1021 1.390 . S
C1026 C1025 1.387 . S
H1027 C1039 0.930 . S
H1028 C1041 0.930 . S
H1029 C1042 0.930 . S
H1030 C1046 0.959 . S
H1031 C1046 0.959 . S
H1032 C1046 0.961 . S
H1033 C1047 0.960 . S
H1034 C1047 0.961 . S
H1035 C1047 0.959 . S
H1036 C1050 0.929 . S
H1037 C1051 0.931 . S
H1038 C1053 0.930 . S
C1039 H1027 0.930 . S
C1039 C1040 1.399 . S
C1039 C1044 1.399 . S
C1040 C1039 1.399 . S
C1040 C1041 1.376 . S
C1041 H1028 0.930 . S
C1041 C1040 1.376 . S
C1041 C1042 1.388 . S
C1042 H1029 0.930 . S
C1042 C1041 1.388 . S
C1042 C1043 1.390 . S
C1043 C1042 1.390 . S
C1043 C1044 1.394 . S
C1043 C1049 1.465 . S
C1044 C1039 1.399 . S
C1044 C1043 1.394 . S
C1044 C1045 1.516 . S
C1045 C1044 1.516 . S
C1045 C1046 1.502 . S
C1045 C1047 1.561 . S
C1045 C1048 1.526 . S
C1046 H1030 0.959 . S
C1046 H1031 0.959 . S
C1046 H1032 0.961 . S
C1046 C1045 1.502 . S
C1047 H1033 0.960 . S
C1047 H1034 0.961 . S
C1047 H1035 0.959 . S
C1047 C1045 1.561 . S
C1048 C1045 1.526 . S
C1048 C1049 1.396 . S
C1048 C1053 1.390 . S
C1049 C1043 1.465 . S
C1049 C1048 1.396 . S
C1049 C1050 1.399 . S
C1050 H1036 0.929 . S
C1050 C1049 1.399 . S
C1050 C1051 1.385 . S
C1051 H1037 0.931 . S
C1051 C1050 1.385 . S
C1051 C1052 1.389 . S
C1052 C1051 1.389 . S
C1052 C1053 1.387 . S
C1053 H1038 0.930 . S
C1053 C1048 1.390 . S
C1053 C1052 1.387 . S
H1054 C1066 0.930 . S
H1055 C1068 0.930 . S
H1056 C1069 0.930 . S
H1057 C1073 0.959 . S
H1058 C1073 0.959 . S
H1059 C1073 0.961 . S
H1060 C1074 0.960 . S
H1061 C1074 0.961 . S
H1062 C1074 0.959 . S
H1063 C1077 0.929 . S
H1064 C1078 0.931 . S
H1065 C1080 0.930 . S
C1066 H1054 0.930 . S
C1066 C1067 1.399 . S
C1066 C1071 1.399 . S
C1067 C1066 1.399 . S
C1067 C1068 1.376 . S
C1068 H1055 0.930 . S
C1068 C1067 1.376 . S
C1068 C1069 1.388 . S
C1069 H1056 0.930 . S
C1069 C1068 1.388 . S
C1069 C1070 1.390 . S
C1070 C1069 1.390 . S
C1070 C1071 1.394 . S
C1070 C1076 1.465 . S
C1071 C1066 1.399 . S
C1071 C1070 1.394 . S
C1071 C1072 1.516 . S
C1072 C1071 1.516 . S
C1072 C1073 1.502 . S
C1072 C1074 1.561 . S
C1072 C1075 1.526 . S
C1073 H1057 0.959 . S
C1073 H1058 0.959 . S
C1073 H1059 0.961 . S
C1073 C1072 1.502 . S
C1074 H1060 0.960 . S
C1074 H1061 0.961 . S
C1074 H1062 0.959 . S
C1074 C1072 1.561 . S
C1075 C1072 1.526 . S
C1075 C1076 1.396 . S
C1075 C1080 1.390 . S
C1076 C1070 1.465 . S
C1076 C1075 1.396 . S
C1076 C1077 1.399 . S
C1077 H1063 0.929 . S
C1077 C1076 1.399 . S
C1077 C1078 1.385 . S
C1078 H1064 0.931 . S
C1078 C1077 1.385 . S
C1078 C1079 1.389 . S
C1079 C1078 1.389 . S
C1079 C1080 1.387 . S
C1080 H1065 0.930 . S
C1080 C1075 1.390 . S
C1080 C1079 1.387 . S
H1081 C1093 0.930 . S
H1082 C1095 0.930 . S
H1083 C1096 0.930 . S
H1084 C1100 0.959 . S
H1085 C1100 0.959 . S
H1086 C1100 0.961 . S
H1087 C1101 0.960 . S
H1088 C1101 0.961 . S
H1089 C1101 0.959 . S
H1090 C1104 0.929 . S
H1091 C1105 0.931 . S
H1092 C1107 0.930 . S
C1093 H1081 0.930 . S
C1093 C1094 1.399 . S
C1093 C1098 1.399 . S
C1094 C1093 1.399 . S
C1094 C1095 1.376 . S
C1095 H1082 0.930 . S
C1095 C1094 1.376 . S
C1095 C1096 1.388 . S
C1096 H1083 0.930 . S
C1096 C1095 1.388 . S
C1096 C1097 1.390 . S
C1097 C1096 1.390 . S
C1097 C1098 1.394 . S
C1097 C1103 1.465 . S
C1098 C1093 1.399 . S
C1098 C1097 1.394 . S
C1098 C1099 1.516 . S
C1099 C1098 1.516 . S
C1099 C1100 1.502 . S
C1099 C1101 1.561 . S
C1099 C1102 1.526 . S
C1100 H1084 0.959 . S
C1100 H1085 0.959 . S
C1100 H1086 0.961 . S
C1100 C1099 1.502 . S
C1101 H1087 0.960 . S
C1101 H1088 0.961 . S
C1101 H1089 0.959 . S
C1101 C1099 1.561 . S
C1102 C1099 1.526 . S
C1102 C1103 1.396 . S
C1102 C1107 1.390 . S
C1103 C1097 1.465 . S
C1103 C1102 1.396 . S
C1103 C1104 1.399 . S
C1104 H1090 0.929 . S
C1104 C1103 1.399 . S
C1104 C1105 1.385 . S
C1105 H1091 0.931 . S
C1105 C1104 1.385 . S
C1105 C1106 1.389 . S
C1106 C1105 1.389 . S
C1106 C1107 1.387 . S
C1107 H1092 0.930 . S
C1107 C1102 1.390 . S
C1107 C1106 1.387 . S
H1108 C1120 0.930 . S
H1109 C1122 0.930 . S
H1110 C1123 0.930 . S
H1111 C1127 0.959 . S
H1112 C1127 0.959 . S
H1113 C1127 0.961 . S
H1114 C1128 0.960 . S
H1115 C1128 0.961 . S
H1116 C1128 0.959 . S
H1117 C1131 0.929 . S
H1118 C1132 0.931 . S
H1119 C1134 0.930 . S
C1120 H1108 0.930 . S
C1120 C1121 1.399 . S
C1120 C1125 1.399 . S
C1121 C1120 1.399 . S
C1121 C1122 1.376 . S
C1122 H1109 0.930 . S
C1122 C1121 1.376 . S
C1122 C1123 1.388 . S
C1123 H1110 0.930 . S
C1123 C1122 1.388 . S
C1123 C1124 1.390 . S
C1124 C1123 1.390 . S
C1124 C1125 1.394 . S
C1124 C1130 1.465 . S
C1125 C1120 1.399 . S
C1125 C1124 1.394 . S
C1125 C1126 1.516 . S
C1126 C1125 1.516 . S
C1126 C1127 1.502 . S
C1126 C1128 1.561 . S
C1126 C1129 1.526 . S
C1127 H1111 0.959 . S
C1127 H1112 0.959 . S
C1127 H1113 0.961 . S
C1127 C1126 1.502 . S
C1128 H1114 0.960 . S
C1128 H1115 0.961 . S
C1128 H1116 0.959 . S
C1128 C1126 1.561 . S
C1129 C1126 1.526 . S
C1129 C1130 1.396 . S
C1129 C1134 1.390 . S
C1130 C1124 1.465 . S
C1130 C1129 1.396 . S
C1130 C1131 1.399 . S
C1131 H1117 0.929 . S
C1131 C1130 1.399 . S
C1131 C1132 1.385 . S
C1132 H1118 0.931 . S
C1132 C1131 1.385 . S
C1132 C1133 1.389 . S
C1133 C1132 1.389 . S
C1133 C1134 1.387 . S
C1134 H1119 0.930 . S
C1134 C1129 1.390 . S
C1134 C1133 1.387 . S
H1135 C1147 0.930 . S
H1136 C1149 0.930 . S
H1137 C1150 0.930 . S
H1138 C1154 0.959 . S
H1139 C1154 0.959 . S
H1140 C1154 0.961 . S
H1141 C1155 0.960 . S
H1142 C1155 0.961 . S
H1143 C1155 0.959 . S
H1144 C1158 0.929 . S
H1145 C1159 0.931 . S
H1146 C1161 0.930 . S
C1147 H1135 0.930 . S
C1147 C1148 1.399 . S
C1147 C1152 1.399 . S
C1148 C1147 1.399 . S
C1148 C1149 1.376 . S
C1149 H1136 0.930 . S
C1149 C1148 1.376 . S
C1149 C1150 1.388 . S
C1150 H1137 0.930 . S
C1150 C1149 1.388 . S
C1150 C1151 1.390 . S
C1151 C1150 1.390 . S
C1151 C1152 1.394 . S
C1151 C1157 1.465 . S
C1152 C1147 1.399 . S
C1152 C1151 1.394 . S
C1152 C1153 1.516 . S
C1153 C1152 1.516 . S
C1153 C1154 1.502 . S
C1153 C1155 1.561 . S
C1153 C1156 1.526 . S
C1154 H1138 0.959 . S
C1154 H1139 0.959 . S
C1154 H1140 0.961 . S
C1154 C1153 1.502 . S
C1155 H1141 0.960 . S
C1155 H1142 0.961 . S
C1155 H1143 0.959 . S
C1155 C1153 1.561 . S
C1156 C1153 1.526 . S
C1156 C1157 1.396 . S
C1156 C1161 1.390 . S
C1157 C1151 1.465 . S
C1157 C1156 1.396 . S
C1157 C1158 1.399 . S
C1158 H1144 0.929 . S
C1158 C1157 1.399 . S
C1158 C1159 1.385 . S
C1159 H1145 0.931 . S
C1159 C1158 1.385 . S
C1159 C1160 1.389 . S
C1160 C1159 1.389 . S
C1160 C1161 1.387 . S
C1161 H1146 0.930 . S
C1161 C1156 1.390 . S
C1161 C1160 1.387 . S
H1162 C1174 0.930 . S
H1163 C1176 0.930 . S
H1164 C1177 0.930 . S
H1165 C1181 0.959 . S
H1166 C1181 0.959 . S
H1167 C1181 0.961 . S
H1168 C1182 0.960 . S
H1169 C1182 0.961 . S
H1170 C1182 0.959 . S
H1171 C1185 0.929 . S
H1172 C1186 0.931 . S
H1173 C1188 0.930 . S
C1174 H1162 0.930 . S
C1174 C1175 1.399 . S
C1174 C1179 1.399 . S
C1175 C1174 1.399 . S
C1175 C1176 1.376 . S
C1176 H1163 0.930 . S
C1176 C1175 1.376 . S
C1176 C1177 1.388 . S
C1177 H1164 0.930 . S
C1177 C1176 1.388 . S
C1177 C1178 1.390 . S
C1178 C1177 1.390 . S
C1178 C1179 1.394 . S
C1178 C1184 1.465 . S
C1179 C1174 1.399 . S
C1179 C1178 1.394 . S
C1179 C1180 1.516 . S
C1180 C1179 1.516 . S
C1180 C1181 1.502 . S
C1180 C1182 1.561 . S
C1180 C1183 1.526 . S
C1181 H1165 0.959 . S
C1181 H1166 0.959 . S
C1181 H1167 0.961 . S
C1181 C1180 1.502 . S
C1182 H1168 0.960 . S
C1182 H1169 0.961 . S
C1182 H1170 0.959 . S
C1182 C1180 1.561 . S
C1183 C1180 1.526 . S
C1183 C1184 1.396 . S
C1183 C1188 1.390 . S
C1184 C1178 1.465 . S
C1184 C1183 1.396 . S
C1184 C1185 1.399 . S
C1185 H1171 0.929 . S
C1185 C1184 1.399 . S
C1185 C1186 1.385 . S
C1186 H1172 0.931 . S
C1186 C1185 1.385 . S
C1186 C1187 1.389 . S
C1187 C1186 1.389 . S
C1187 C1188 1.387 . S
C1188 H1173 0.930 . S
C1188 C1183 1.390 . S
C1188 C1187 1.387 . S
H1189 C1201 0.930 . S
H1190 C1203 0.930 . S
H1191 C1204 0.930 . S
H1192 C1208 0.959 . S
H1193 C1208 0.959 . S
H1194 C1208 0.961 . S
H1195 C1209 0.960 . S
H1196 C1209 0.961 . S
H1197 C1209 0.959 . S
H1198 C1212 0.929 . S
H1199 C1213 0.931 . S
H1200 C1215 0.930 . S
C1201 H1189 0.930 . S
C1201 C1202 1.399 . S
C1201 C1206 1.399 . S
C1202 C1201 1.399 . S
C1202 C1203 1.376 . S
C1203 H1190 0.930 . S
C1203 C1202 1.376 . S
C1203 C1204 1.388 . S
C1204 H1191 0.930 . S
C1204 C1203 1.388 . S
C1204 C1205 1.390 . S
C1205 C1204 1.390 . S
C1205 C1206 1.394 . S
C1205 C1211 1.465 . S
C1206 C1201 1.399 . S
C1206 C1205 1.394 . S
C1206 C1207 1.516 . S
C1207 C1206 1.516 . S
C1207 C1208 1.502 . S
C1207 C1209 1.561 . S
C1207 C1210 1.526 . S
C1208 H1192 0.959 . S
C1208 H1193 0.959 . S
C1208 H1194 0.961 . S
C1208 C1207 1.502 . S
C1209 H1195 0.960 . S
C1209 H1196 0.961 . S
C1209 H1197 0.959 . S
C1209 C1207 1.561 . S
C1210 C1207 1.526 . S
C1210 C1211 1.396 . S
C1210 C1215 1.390 . S
C1211 C1205 1.465 . S
C1211 C1210 1.396 . S
C1211 C1212 1.399 . S
C1212 H1198 0.929 . S
C1212 C1211 1.399 . S
C1212 C1213 1.385 . S
C1213 H1199 0.931 . S
C1213 C1212 1.385 . S
C1213 C1214 1.389 . S
C1214 C1213 1.389 . S
C1214 C1215 1.387 . S
C1215 H1200 0.930 . S
C1215 C1210 1.390 . S
C1215 C1214 1.387 . S
H1216 C1228 0.930 . S
H1217 C1230 0.930 . S
H1218 C1231 0.930 . S
H1219 C1235 0.959 . S
H1220 C1235 0.959 . S
H1221 C1235 0.961 . S
H1222 C1236 0.960 . S
H1223 C1236 0.961 . S
H1224 C1236 0.959 . S
H1225 C1239 0.929 . S
H1226 C1240 0.931 . S
H1227 C1242 0.930 . S
C1228 H1216 0.930 . S
C1228 C1229 1.399 . S
C1228 C1233 1.399 . S
C1229 C1228 1.399 . S
C1229 C1230 1.376 . S
C1230 H1217 0.930 . S
C1230 C1229 1.376 . S
C1230 C1231 1.388 . S
C1231 H1218 0.930 . S
C1231 C1230 1.388 . S
C1231 C1232 1.390 . S
C1232 C1231 1.390 . S
C1232 C1233 1.394 . S
C1232 C1238 1.465 . S
C1233 C1228 1.399 . S
C1233 C1232 1.394 . S
C1233 C1234 1.516 . S
C1234 C1233 1.516 . S
C1234 C1235 1.502 . S
C1234 C1236 1.561 . S
C1234 C1237 1.526 . S
C1235 H1219 0.959 . S
C1235 H1220 0.959 . S
C1235 H1221 0.961 . S
C1235 C1234 1.502 . S
C1236 H1222 0.960 . S
C1236 H1223 0.961 . S
C1236 H1224 0.959 . S
C1236 C1234 1.561 . S
C1237 C1234 1.526 . S
C1237 C1238 1.396 . S
C1237 C1242 1.390 . S
C1238 C1232 1.465 . S
C1238 C1237 1.396 . S
C1238 C1239 1.399 . S
C1239 H1225 0.929 . S
C1239 C1238 1.399 . S
C1239 C1240 1.385 . S
C1240 H1226 0.931 . S
C1240 C1239 1.385 . S
C1240 C1241 1.389 . S
C1241 C1240 1.389 . S
C1241 C1242 1.387 . S
C1242 H1227 0.930 . S
C1242 C1237 1.390 . S
C1242 C1241 1.387 . S
H1243 C1255 0.930 . S
H1244 C1257 0.930 . S
H1245 C1258 0.930 . S
H1246 C1262 0.959 . S
H1247 C1262 0.959 . S
H1248 C1262 0.961 . S
H1249 C1263 0.960 . S
H1250 C1263 0.961 . S
H1251 C1263 0.959 . S
H1252 C1266 0.929 . S
H1253 C1267 0.931 . S
H1254 C1269 0.930 . S
C1255 H1243 0.930 . S
C1255 C1256 1.399 . S
C1255 C1260 1.399 . S
C1256 C1255 1.399 . S
C1256 C1257 1.376 . S
C1257 H1244 0.930 . S
C1257 C1256 1.376 . S
C1257 C1258 1.388 . S
C1258 H1245 0.930 . S
C1258 C1257 1.388 . S
C1258 C1259 1.390 . S
C1259 C1258 1.390 . S
C1259 C1260 1.394 . S
C1259 C1265 1.465 . S
C1260 C1255 1.399 . S
C1260 C1259 1.394 . S
C1260 C1261 1.516 . S
C1261 C1260 1.516 . S
C1261 C1262 1.502 . S
C1261 C1263 1.561 . S
C1261 C1264 1.526 . S
C1262 H1246 0.959 . S
C1262 H1247 0.959 . S
C1262 H1248 0.961 . S
C1262 C1261 1.502 . S
C1263 H1249 0.960 . S
C1263 H1250 0.961 . S
C1263 H1251 0.959 . S
C1263 C1261 1.561 . S
C1264 C1261 1.526 . S
C1264 C1265 1.396 . S
C1264 C1269 1.390 . S
C1265 C1259 1.465 . S
C1265 C1264 1.396 . S
C1265 C1266 1.399 . S
C1266 H1252 0.929 . S
C1266 C1265 1.399 . S
C1266 C1267 1.385 . S
C1267 H1253 0.931 . S
C1267 C1266 1.385 . S
C1267 C1268 1.389 . S
C1268 C1267 1.389 . S
C1268 C1269 1.387 . S
C1269 H1254 0.930 . S
C1269 C1264 1.390 . S
C1269 C1268 1.387 . S
H1270 C1282 0.930 . S
H1271 C1284 0.930 . S
H1272 C1285 0.930 . S
H1273 C1289 0.959 . S
H1274 C1289 0.959 . S
H1275 C1289 0.961 . S
H1276 C1290 0.960 . S
H1277 C1290 0.961 . S
H1278 C1290 0.959 . S
H1279 C1293 0.929 . S
H1280 C1294 0.931 . S
H1281 C1296 0.930 . S
C1282 H1270 0.930 . S
C1282 C1283 1.399 . S
C1282 C1287 1.399 . S
C1283 C1282 1.399 . S
C1283 C1284 1.376 . S
C1284 H1271 0.930 . S
C1284 C1283 1.376 . S
C1284 C1285 1.388 . S
C1285 H1272 0.930 . S
C1285 C1284 1.388 . S
C1285 C1286 1.390 . S
C1286 C1285 1.390 . S
C1286 C1287 1.394 . S
C1286 C1292 1.465 . S
C1287 C1282 1.399 . S
C1287 C1286 1.394 . S
C1287 C1288 1.516 . S
C1288 C1287 1.516 . S
C1288 C1289 1.502 . S
C1288 C1290 1.561 . S
C1288 C1291 1.526 . S
C1289 H1273 0.959 . S
C1289 H1274 0.959 . S
C1289 H1275 0.961 . S
C1289 C1288 1.502 . S
C1290 H1276 0.960 . S
C1290 H1277 0.961 . S
C1290 H1278 0.959 . S
C1290 C1288 1.561 . S
C1291 C1288 1.526 . S
C1291 C1292 1.396 . S
C1291 C1296 1.390 . S
C1292 C1286 1.465 . S
C1292 C1291 1.396 . S
C1292 C1293 1.399 . S
C1293 H1279 0.929 . S
C1293 C1292 1.399 . S
C1293 C1294 1.385 . S
C1294 H1280 0.931 . S
C1294 C1293 1.385 . S
C1294 C1295 1.389 . S
C1295 C1294 1.389 . S
C1295 C1296 1.387 . S
C1296 H1281 0.930 . S
C1296 C1291 1.390 . S
C1296 C1295 1.387 . S
H1297 C1309 0.930 . S
H1298 C1311 0.930 . S
H1299 C1312 0.930 . S
H1300 C1316 0.959 . S
H1301 C1316 0.959 . S
H1302 C1316 0.961 . S
H1303 C1317 0.960 . S
H1304 C1317 0.961 . S
H1305 C1317 0.959 . S
H1306 C1320 0.929 . S
H1307 C1321 0.931 . S
H1308 C1323 0.930 . S
C1309 H1297 0.930 . S
C1309 C1310 1.399 . S
C1309 C1314 1.399 . S
C1310 C1309 1.399 . S
C1310 C1311 1.376 . S
C1311 H1298 0.930 . S
C1311 C1310 1.376 . S
C1311 C1312 1.388 . S
C1312 H1299 0.930 . S
C1312 C1311 1.388 . S
C1312 C1313 1.390 . S
C1313 C1312 1.390 . S
C1313 C1314 1.394 . S
C1313 C1319 1.465 . S
C1314 C1309 1.399 . S
C1314 C1313 1.394 . S
C1314 C1315 1.516 . S
C1315 C1314 1.516 . S
C1315 C1316 1.502 . S
C1315 C1317 1.561 . S
C1315 C1318 1.526 . S
C1316 H1300 0.959 . S
C1316 H1301 0.959 . S
C1316 H1302 0.961 . S
C1316 C1315 1.502 . S
C1317 H1303 0.960 . S
C1317 H1304 0.961 . S
C1317 H1305 0.959 . S
C1317 C1315 1.561 . S
C1318 C1315 1.526 . S
C1318 C1319 1.396 . S
C1318 C1323 1.390 . S
C1319 C1313 1.465 . S
C1319 C1318 1.396 . S
C1319 C1320 1.399 . S
C1320 H1306 0.929 . S
C1320 C1319 1.399 . S
C1320 C1321 1.385 . S
C1321 H1307 0.931 . S
C1321 C1320 1.385 . S
C1321 C1322 1.389 . S
C1322 C1321 1.389 . S
C1322 C1323 1.387 . S
C1323 H1308 0.930 . S
C1323 C1318 1.390 . S
C1323 C1322 1.387 . S
H1324 C1336 0.930 . S
H1325 C1338 0.930 . S
H1326 C1339 0.930 . S
H1327 C1343 0.959 . S
H1328 C1343 0.959 . S
H1329 C1343 0.961 . S
H1330 C1344 0.960 . S
H1331 C1344 0.961 . S
H1332 C1344 0.959 . S
H1333 C1347 0.929 . S
H1334 C1348 0.931 . S
H1335 C1350 0.930 . S
C1336 H1324 0.930 . S
C1336 C1337 1.399 . S
C1336 C1341 1.399 . S
C1337 C1336 1.399 . S
C1337 C1338 1.376 . S
C1338 H1325 0.930 . S
C1338 C1337 1.376 . S
C1338 C1339 1.388 . S
C1339 H1326 0.930 . S
C1339 C1338 1.388 . S
C1339 C1340 1.390 . S
C1340 C1339 1.390 . S
C1340 C1341 1.394 . S
C1340 C1346 1.465 . S
C1341 C1336 1.399 . S
C1341 C1340 1.394 . S
C1341 C1342 1.516 . S
C1342 C1341 1.516 . S
C1342 C1343 1.502 . S
C1342 C1344 1.561 . S
C1342 C1345 1.526 . S
C1343 H1327 0.959 . S
C1343 H1328 0.959 . S
C1343 H1329 0.961 . S
C1343 C1342 1.502 . S
C1344 H1330 0.960 . S
C1344 H1331 0.961 . S
C1344 H1332 0.959 . S
C1344 C1342 1.561 . S
C1345 C1342 1.526 . S
C1345 C1346 1.396 . S
C1345 C1350 1.390 . S
C1346 C1340 1.465 . S
C1346 C1345 1.396 . S
C1346 C1347 1.399 . S
C1347 H1333 0.929 . S
C1347 C1346 1.399 . S
C1347 C1348 1.385 . S
C1348 H1334 0.931 . S
C1348 C1347 1.385 . S
C1348 C1349 1.389 . S
C1349 C1348 1.389 . S
C1349 C1350 1.387 . S
C1350 H1335 0.930 . S
C1350 C1345 1.390 . S
C1350 C1349 1.387 . S
H1351 C1363 0.930 . S
H1352 C1365 0.930 . S
H1353 C1366 0.930 . S
H1354 C1370 0.959 . S
H1355 C1370 0.959 . S
H1356 C1370 0.961 . S
H1357 C1371 0.960 . S
H1358 C1371 0.961 . S
H1359 C1371 0.959 . S
H1360 C1374 0.929 . S
H1361 C1375 0.931 . S
H1362 C1377 0.930 . S
C1363 H1351 0.930 . S
C1363 C1364 1.399 . S
C1363 C1368 1.399 . S
C1364 C1363 1.399 . S
C1364 C1365 1.376 . S
C1365 H1352 0.930 . S
C1365 C1364 1.376 . S
C1365 C1366 1.388 . S
C1366 H1353 0.930 . S
C1366 C1365 1.388 . S
C1366 C1367 1.390 . S
C1367 C1366 1.390 . S
C1367 C1368 1.394 . S
C1367 C1373 1.465 . S
C1368 C1363 1.399 . S
C1368 C1367 1.394 . S
C1368 C1369 1.516 . S
C1369 C1368 1.516 . S
C1369 C1370 1.502 . S
C1369 C1371 1.561 . S
C1369 C1372 1.526 . S
C1370 H1354 0.959 . S
C1370 H1355 0.959 . S
C1370 H1356 0.961 . S
C1370 C1369 1.502 . S
C1371 H1357 0.960 . S
C1371 H1358 0.961 . S
C1371 H1359 0.959 . S
C1371 C1369 1.561 . S
C1372 C1369 1.526 . S
C1372 C1373 1.396 . S
C1372 C1377 1.390 . S
C1373 C1367 1.465 . S
C1373 C1372 1.396 . S
C1373 C1374 1.399 . S
C1374 H1360 0.929 . S
C1374 C1373 1.399 . S
C1374 C1375 1.385 . S
C1375 H1361 0.931 . S
C1375 C1374 1.385 . S
C1375 C1376 1.389 . S
C1376 C1375 1.389 . S
C1376 C1377 1.387 . S
C1377 H1362 0.930 . S
C1377 C1372 1.390 . S
C1377 C1376 1.387 . S
H1378 C1390 0.930 . S
H1379 C1392 0.930 . S
H1380 C1393 0.930 . S
H1381 C1397 0.959 . S
H1382 C1397 0.959 . S
H1383 C1397 0.961 . S
H1384 C1398 0.960 . S
H1385 C1398 0.961 . S
H1386 C1398 0.959 . S
H1387 C1401 0.929 . S
H1388 C1402 0.931 . S
H1389 C1404 0.930 . S
C1390 H1378 0.930 . S
C1390 C1391 1.399 . S
C1390 C1395 1.399 . S
C1391 C1390 1.399 . S
C1391 C1392 1.376 . S
C1392 H1379 0.930 . S
C1392 C1391 1.376 . S
C1392 C1393 1.388 . S
C1393 H1380 0.930 . S
C1393 C1392 1.388 . S
C1393 C1394 1.390 . S
C1394 C1393 1.390 . S
C1394 C1395 1.394 . S
C1394 C1400 1.465 . S
C1395 C1390 1.399 . S
C1395 C1394 1.394 . S
C1395 C1396 1.516 . S
C1396 C1395 1.516 . S
C1396 C1397 1.502 . S
C1396 C1398 1.561 . S
C1396 C1399 1.526 . S
C1397 H1381 0.959 . S
C1397 H1382 0.959 . S
C1397 H1383 0.961 . S
C1397 C1396 1.502 . S
C1398 H1384 0.960 . S
C1398 H1385 0.961 . S
C1398 H1386 0.959 . S
C1398 C1396 1.561 . S
C1399 C1396 1.526 . S
C1399 C1400 1.396 . S
C1399 C1404 1.390 . S
C1400 C1394 1.465 . S
C1400 C1399 1.396 . S
C1400 C1401 1.399 . S
C1401 H1387 0.929 . S
C1401 C1400 1.399 . S
C1401 C1402 1.385 . S
C1402 H1388 0.931 . S
C1402 C1401 1.385 . S
C1402 C1403 1.389 . S
C1403 C1402 1.389 . S
C1403 C1404 1.387 . S
C1404 H1389 0.930 . S
C1404 C1399 1.390 . S
C1404 C1403 1.387 . S
H1405 C1417 0.930 . S
H1406 C1419 0.930 . S
H1407 C1420 0.930 . S
H1408 C1424 0.959 . S
H1409 C1424 0.959 . S
H1410 C1424 0.961 . S
H1411 C1425 0.960 . S
H1412 C1425 0.961 . S
H1413 C1425 0.959 . S
H1414 C1428 0.929 . S
H1415 C1429 0.931 . S
H1416 C1431 0.930 . S
C1417 H1405 0.930 . S
C1417 C1418 1.399 . S
C1417 C1422 1.399 . S
C1418 C1417 1.399 . S
C1418 C1419 1.376 . S
C1419 H1406 0.930 . S
C1419 C1418 1.376 . S
C1419 C1420 1.388 . S
C1420 H1407 0.930 . S
C1420 C1419 1.388 . S
C1420 C1421 1.390 . S
C1421 C1420 1.390 . S
C1421 C1422 1.394 . S
C1421 C1427 1.465 . S
C1422 C1417 1.399 . S
C1422 C1421 1.394 . S
C1422 C1423 1.516 . S
C1423 C1422 1.516 . S
C1423 C1424 1.502 . S
C1423 C1425 1.561 . S
C1423 C1426 1.526 . S
C1424 H1408 0.959 . S
C1424 H1409 0.959 . S
C1424 H1410 0.961 . S
C1424 C1423 1.502 . S
C1425 H1411 0.960 . S
C1425 H1412 0.961 . S
C1425 H1413 0.959 . S
C1425 C1423 1.561 . S
C1426 C1423 1.526 . S
C1426 C1427 1.396 . S
C1426 C1431 1.390 . S
C1427 C1421 1.465 . S
C1427 C1426 1.396 . S
C1427 C1428 1.399 . S
C1428 H1414 0.929 . S
C1428 C1427 1.399 . S
C1428 C1429 1.385 . S
C1429 H1415 0.931 . S
C1429 C1428 1.385 . S
C1429 C1430 1.389 . S
C1430 C1429 1.389 . S
C1430 C1431 1.387 . S
C1431 H1416 0.930 . S
C1431 C1426 1.390 . S
C1431 C1430 1.387 . S
H1432 C1444 0.930 . S
H1433 C1446 0.930 . S
H1434 C1447 0.930 . S
H1435 C1451 0.959 . S
H1436 C1451 0.959 . S
H1437 C1451 0.961 . S
H1438 C1452 0.960 . S
H1439 C1452 0.961 . S
H1440 C1452 0.959 . S
H1441 C1455 0.929 . S
H1442 C1456 0.931 . S
H1443 C1458 0.930 . S
C1444 H1432 0.930 . S
C1444 C1445 1.399 . S
C1444 C1449 1.399 . S
C1445 C1444 1.399 . S
C1445 C1446 1.376 . S
C1446 H1433 0.930 . S
C1446 C1445 1.376 . S
C1446 C1447 1.388 . S
C1447 H1434 0.930 . S
C1447 C1446 1.388 . S
C1447 C1448 1.390 . S
C1448 C1447 1.390 . S
C1448 C1449 1.394 . S
C1448 C1454 1.465 . S
C1449 C1444 1.399 . S
C1449 C1448 1.394 . S
C1449 C1450 1.516 . S
C1450 C1449 1.516 . S
C1450 C1451 1.502 . S
C1450 C1452 1.561 . S
C1450 C1453 1.526 . S
C1451 H1435 0.959 . S
C1451 H1436 0.959 . S
C1451 H1437 0.961 . S
C1451 C1450 1.502 . S
C1452 H1438 0.960 . S
C1452 H1439 0.961 . S
C1452 H1440 0.959 . S
C1452 C1450 1.561 . S
C1453 C1450 1.526 . S
C1453 C1454 1.396 . S
C1453 C1458 1.390 . S
C1454 C1448 1.465 . S
C1454 C1453 1.396 . S
C1454 C1455 1.399 . S
C1455 H1441 0.929 . S
C1455 C1454 1.399 . S
C1455 C1456 1.385 . S
C1456 H1442 0.931 . S
C1456 C1455 1.385 . S
C1456 C1457 1.389 . S
C1457 C1456 1.389 . S
C1457 C1458 1.387 . S
C1458 H1443 0.930 . S
C1458 C1453 1.390 . S
C1458 C1457 1.387 . S
H1459 C1471 0.930 . S
H1460 C1473 0.930 . S
H1461 C1474 0.930 . S
H1462 C1478 0.959 . S
H1463 C1478 0.959 . S
H1464 C1478 0.961 . S
H1465 C1479 0.960 . S
H1466 C1479 0.961 . S
H1467 C1479 0.959 . S
H1468 C1482 0.929 . S
H1469 C1483 0.931 . S
H1470 C1485 0.930 . S
C1471 H1459 0.930 . S
C1471 C1472 1.399 . S
C1471 C1476 1.399 . S
C1472 C1471 1.399 . S
C1472 C1473 1.376 . S
C1473 H1460 0.930 . S
C1473 C1472 1.376 . S
C1473 C1474 1.388 . S
C1474 H1461 0.930 . S
C1474 C1473 1.388 . S
C1474 C1475 1.390 . S
C1475 C1474 1.390 . S
C1475 C1476 1.394 . S
C1475 C1481 1.465 . S
C1476 C1471 1.399 . S
C1476 C1475 1.394 . S
C1476 C1477 1.516 . S
C1477 C1476 1.516 . S
C1477 C1478 1.502 . S
C1477 C1479 1.561 . S
C1477 C1480 1.526 . S
C1478 H1462 0.959 . S
C1478 H1463 0.959 . S
C1478 H1464 0.961 . S
C1478 C1477 1.502 . S
C1479 H1465 0.960 . S
C1479 H1466 0.961 . S
C1479 H1467 0.959 . S
C1479 C1477 1.561 . S
C1480 C1477 1.526 . S
C1480 C1481 1.396 . S
C1480 C1485 1.390 . S
C1481 C1475 1.465 . S
C1481 C1480 1.396 . S
C1481 C1482 1.399 . S
C1482 H1468 0.929 . S
C1482 C1481 1.399 . S
C1482 C1483 1.385 . S
C1483 H1469 0.931 . S
C1483 C1482 1.385 . S
C1483 C1484 1.389 . S
C1484 C1483 1.389 . S
C1484 C1485 1.387 . S
C1485 H1470 0.930 . S
C1485 C1480 1.390 . S
C1485 C1484 1.387 . S
H1486 C1498 0.930 . S
H1487 C1500 0.930 . S
H1488 C1501 0.930 . S
H1489 C1505 0.959 . S
H1490 C1505 0.959 . S
H1491 C1505 0.961 . S
H1492 C1506 0.960 . S
H1493 C1506 0.961 . S
H1494 C1506 0.959 . S
H1495 C1509 0.929 . S
H1496 C1510 0.931 . S
H1497 C1512 0.930 . S
C1498 H1486 0.930 . S
C1498 C1499 1.399 . S
C1498 C1503 1.399 . S
C1499 C1498 1.399 . S
C1499 C1500 1.376 . S
C1500 H1487 0.930 . S
C1500 C1499 1.376 . S
C1500 C1501 1.388 . S
C1501 H1488 0.930 . S
C1501 C1500 1.388 . S
C1501 C1502 1.390 . S
C1502 C1501 1.390 . S
C1502 C1503 1.394 . S
C1502 C1508 1.465 . S
C1503 C1498 1.399 . S
C1503 C1502 1.394 . S
C1503 C1504 1.516 . S
C1504 C1503 1.516 . S
C1504 C1505 1.502 . S
C1504 C1506 1.561 . S
C1504 C1507 1.526 . S
C1505 H1489 0.959 . S
C1505 H1490 0.959 . S
C1505 H1491 0.961 . S
C1505 C1504 1.502 . S
C1506 H1492 0.960 . S
C1506 H1493 0.961 . S
C1506 H1494 0.959 . S
C1506 C1504 1.561 . S
C1507 C1504 1.526 . S
C1507 C1508 1.396 . S
C1507 C1512 1.390 . S
C1508 C1502 1.465 . S
C1508 C1507 1.396 . S
C1508 C1509 1.399 . S
C1509 H1495 0.929 . S
C1509 C1508 1.399 . S
C1509 C1510 1.385 . S
C1510 H1496 0.931 . S
C1510 C1509 1.385 . S
C1510 C1511 1.389 . S
C1511 C1510 1.389 . S
C1511 C1512 1.387 . S
C1512 H1497 0.930 . S
C1512 C1507 1.390 . S
C1512 C1511 1.387 . S
H1513 C1525 0.930 . S
H1514 C1527 0.930 . S
H1515 C1528 0.930 . S
H1516 C1532 0.959 . S
H1517 C1532 0.959 . S
H1518 C1532 0.961 . S
H1519 C1533 0.960 . S
H1520 C1533 0.961 . S
H1521 C1533 0.959 . S
H1522 C1536 0.929 . S
H1523 C1537 0.931 . S
H1524 C1539 0.930 . S
C1525 H1513 0.930 . S
C1525 C1526 1.399 . S
C1525 C1530 1.399 . S
C1526 C1525 1.399 . S
C1526 C1527 1.376 . S
C1527 H1514 0.930 . S
C1527 C1526 1.376 . S
C1527 C1528 1.388 . S
C1528 H1515 0.930 . S
C1528 C1527 1.388 . S
C1528 C1529 1.390 . S
C1529 C1528 1.390 . S
C1529 C1530 1.394 . S
C1529 C1535 1.465 . S
C1530 C1525 1.399 . S
C1530 C1529 1.394 . S
C1530 C1531 1.516 . S
C1531 C1530 1.516 . S
C1531 C1532 1.502 . S
C1531 C1533 1.561 . S
C1531 C1534 1.526 . S
C1532 H1516 0.959 . S
C1532 H1517 0.959 . S
C1532 H1518 0.961 . S
C1532 C1531 1.502 . S
C1533 H1519 0.960 . S
C1533 H1520 0.961 . S
C1533 H1521 0.959 . S
C1533 C1531 1.561 . S
C1534 C1531 1.526 . S
C1534 C1535 1.396 . S
C1534 C1539 1.390 . S
C1535 C1529 1.465 . S
C1535 C1534 1.396 . S
C1535 C1536 1.399 . S
C1536 H1522 0.929 . S
C1536 C1535 1.399 . S
C1536 C1537 1.385 . S
C1537 H1523 0.931 . S
C1537 C1536 1.385 . S
C1537 C1538 1.389 . S
C1538 C1537 1.389 . S
C1538 C1539 1.387 . S
C1539 H1524 0.930 . S
C1539 C1534 1.390 . S
C1539 C1538 1.387 . S
H1540 C1552 0.930 . S
H1541 C1554 0.930 . S
H1542 C1555 0.930 . S
H1543 C1559 0.959 . S
H1544 C1559 0.959 . S
H1545 C1559 0.961 . S
H1546 C1560 0.960 . S
H1547 C1560 0.961 . S
H1548 C1560 0.959 . S
H1549 C1563 0.929 . S
H1550 C1564 0.931 . S
H1551 C1566 0.930 . S
C1552 H1540 0.930 . S
C1552 C1553 1.399 . S
C1552 C1557 1.399 . S
C1553 C1552 1.399 . S
C1553 C1554 1.376 . S
C1554 H1541 0.930 . S
C1554 C1553 1.376 . S
C1554 C1555 1.388 . S
C1555 H1542 0.930 . S
C1555 C1554 1.388 . S
C1555 C1556 1.390 . S
C1556 C1555 1.390 . S
C1556 C1557 1.394 . S
C1556 C1562 1.465 . S
C1557 C1552 1.399 . S
C1557 C1556 1.394 . S
C1557 C1558 1.516 . S
C1558 C1557 1.516 . S
C1558 C1559 1.502 . S
C1558 C1560 1.561 . S
C1558 C1561 1.526 . S
C1559 H1543 0.959 . S
C1559 H1544 0.959 . S
C1559 H1545 0.961 . S
C1559 C1558 1.502 . S
C1560 H1546 0.960 . S
C1560 H1547 0.961 . S
C1560 H1548 0.959 . S
C1560 C1558 1.561 . S
C1561 C1558 1.526 . S
C1561 C1562 1.396 . S
C1561 C1566 1.390 . S
C1562 C1556 1.465 . S
C1562 C1561 1.396 . S
C1562 C1563 1.399 . S
C1563 H1549 0.929 . S
C1563 C1562 1.399 . S
C1563 C1564 1.385 . S
C1564 H1550 0.931 . S
C1564 C1563 1.385 . S
C1564 C1565 1.389 . S
C1565 C1564 1.389 . S
C1565 C1566 1.387 . S
C1566 H1551 0.930 . S
C1566 C1561 1.390 . S
C1566 C1565 1.387 . S
H1567 C1579 0.930 . S
H1568 C1581 0.930 . S
H1569 C1582 0.930 . S
H1570 C1586 0.959 . S
H1571 C1586 0.959 . S
H1572 C1586 0.961 . S
H1573 C1587 0.960 . S
H1574 C1587 0.961 . S
H1575 C1587 0.959 . S
H1576 C1590 0.929 . S
H1577 C1591 0.931 . S
H1578 C1593 0.930 . S
C1579 H1567 0.930 . S
C1579 C1580 1.399 . S
C1579 C1584 1.399 . S
C1580 C1579 1.399 . S
C1580 C1581 1.376 . S
C1581 H1568 0.930 . S
C1581 C1580 1.376 . S
C1581 C1582 1.388 . S
C1582 H1569 0.930 . S
C1582 C1581 1.388 . S
C1582 C1583 1.390 . S
C1583 C1582 1.390 . S
C1583 C1584 1.394 . S
C1583 C1589 1.465 . S
C1584 C1579 1.399 . S
C1584 C1583 1.394 . S
C1584 C1585 1.516 . S
C1585 C1584 1.516 . S
C1585 C1586 1.502 . S
C1585 C1587 1.561 . S
C1585 C1588 1.526 . S
C1586 H1570 0.959 . S
C1586 H1571 0.959 . S
C1586 H1572 0.961 . S
C1586 C1585 1.502 . S
C1587 H1573 0.960 . S
C1587 H1574 0.961 . S
C1587 H1575 0.959 . S
C1587 C1585 1.561 . S
C1588 C1585 1.526 . S
C1588 C1589 1.396 . S
C1588 C1593 1.390 . S
C1589 C1583 1.465 . S
C1589 C1588 1.396 . S
C1589 C1590 1.399 . S
C1590 H1576 0.929 . S
C1590 C1589 1.399 . S
C1590 C1591 1.385 . S
C1591 H1577 0.931 . S
C1591 C1590 1.385 . S
C1591 C1592 1.389 . S
C1592 C1591 1.389 . S
C1592 C1593 1.387 . S
C1593 H1578 0.930 . S
C1593 C1588 1.390 . S
C1593 C1592 1.387 . S
H1594 C1606 0.930 . S
H1595 C1608 0.930 . S
H1596 C1609 0.930 . S
H1597 C1613 0.959 . S
H1598 C1613 0.959 . S
H1599 C1613 0.961 . S
H1600 C1614 0.960 . S
H1601 C1614 0.961 . S
H1602 C1614 0.959 . S
H1603 C1617 0.929 . S
H1604 C1618 0.931 . S
H1605 C1620 0.930 . S
C1606 H1594 0.930 . S
C1606 C1607 1.399 . S
C1606 C1611 1.399 . S
C1607 C1606 1.399 . S
C1607 C1608 1.376 . S
C1608 H1595 0.930 . S
C1608 C1607 1.376 . S
C1608 C1609 1.388 . S
C1609 H1596 0.930 . S
C1609 C1608 1.388 . S
C1609 C1610 1.390 . S
C1610 C1609 1.390 . S
C1610 C1611 1.394 . S
C1610 C1616 1.465 . S
C1611 C1606 1.399 . S
C1611 C1610 1.394 . S
C1611 C1612 1.516 . S
C1612 C1611 1.516 . S
C1612 C1613 1.502 . S
C1612 C1614 1.561 . S
C1612 C1615 1.526 . S
C1613 H1597 0.959 . S
C1613 H1598 0.959 . S
C1613 H1599 0.961 . S
C1613 C1612 1.502 . S
C1614 H1600 0.960 . S
C1614 H1601 0.961 . S
C1614 H1602 0.959 . S
C1614 C1612 1.561 . S
C1615 C1612 1.526 . S
C1615 C1616 1.396 . S
C1615 C1620 1.390 . S
C1616 C1610 1.465 . S
C1616 C1615 1.396 . S
C1616 C1617 1.399 . S
C1617 H1603 0.929 . S
C1617 C1616 1.399 . S
C1617 C1618 1.385 . S
C1618 H1604 0.931 . S
C1618 C1617 1.385 . S
C1618 C1619 1.389 . S
C1619 C1618 1.389 . S
C1619 C1620 1.387 . S
C1620 H1605 0.930 . S
C1620 C1615 1.390 . S
C1620 C1619 1.387 . S
H1621 C1633 0.930 . S
H1622 C1635 0.930 . S
H1623 C1636 0.930 . S
H1624 C1640 0.959 . S
H1625 C1640 0.959 . S
H1626 C1640 0.961 . S
H1627 C1641 0.960 . S
H1628 C1641 0.961 . S
H1629 C1641 0.959 . S
H1630 C1644 0.929 . S
H1631 C1645 0.931 . S
H1632 C1647 0.930 . S
C1633 H1621 0.930 . S
C1633 C1634 1.399 . S
C1633 C1638 1.399 . S
C1634 C1633 1.399 . S
C1634 C1635 1.376 . S
C1635 H1622 0.930 . S
C1635 C1634 1.376 . S
C1635 C1636 1.388 . S
C1636 H1623 0.930 . S
C1636 C1635 1.388 . S
C1636 C1637 1.390 . S
C1637 C1636 1.390 . S
C1637 C1638 1.394 . S
C1637 C1643 1.465 . S
C1638 C1633 1.399 . S
C1638 C1637 1.394 . S
C1638 C1639 1.516 . S
C1639 C1638 1.516 . S
C1639 C1640 1.502 . S
C1639 C1641 1.561 . S
C1639 C1642 1.526 . S
C1640 H1624 0.959 . S
C1640 H1625 0.959 . S
C1640 H1626 0.961 . S
C1640 C1639 1.502 . S
C1641 H1627 0.960 . S
C1641 H1628 0.961 . S
C1641 H1629 0.959 . S
C1641 C1639 1.561 . S
C1642 C1639 1.526 . S
C1642 C1643 1.396 . S
C1642 C1647 1.390 . S
C1643 C1637 1.465 . S
C1643 C1642 1.396 . S
C1643 C1644 1.399 . S
C1644 H1630 0.929 . S
C1644 C1643 1.399 . S
C1644 C1645 1.385 . S
C1645 H1631 0.931 . S
C1645 C1644 1.385 . S
C1645 C1646 1.389 . S
C1646 C1645 1.389 . S
C1646 C1647 1.387 . S
C1647 H1632 0.930 . S
C1647 C1642 1.390 . S
C1647 C1646 1.387 . S
H1648 C1660 0.930 . S
H1649 C1662 0.930 . S
H1650 C1663 0.930 . S
H1651 C1667 0.959 . S
H1652 C1667 0.959 . S
H1653 C1667 0.961 . S
H1654 C1668 0.960 . S
H1655 C1668 0.961 . S
H1656 C1668 0.959 . S
H1657 C1671 0.929 . S
H1658 C1672 0.931 . S
H1659 C1674 0.930 . S
C1660 H1648 0.930 . S
C1660 C1661 1.399 . S
C1660 C1665 1.399 . S
C1661 C1660 1.399 . S
C1661 C1662 1.376 . S
C1662 H1649 0.930 . S
C1662 C1661 1.376 . S
C1662 C1663 1.388 . S
C1663 H1650 0.930 . S
C1663 C1662 1.388 . S
C1663 C1664 1.390 . S
C1664 C1663 1.390 . S
C1664 C1665 1.394 . S
C1664 C1670 1.465 . S
C1665 C1660 1.399 . S
C1665 C1664 1.394 . S
C1665 C1666 1.516 . S
C1666 C1665 1.516 . S
C1666 C1667 1.502 . S
C1666 C1668 1.561 . S
C1666 C1669 1.526 . S
C1667 H1651 0.959 . S
C1667 H1652 0.959 . S
C1667 H1653 0.961 . S
C1667 C1666 1.502 . S
C1668 H1654 0.960 . S
C1668 H1655 0.961 . S
C1668 H1656 0.959 . S
C1668 C1666 1.561 . S
C1669 C1666 1.526 . S
C1669 C1670 1.396 . S
C1669 C1674 1.390 . S
C1670 C1664 1.465 . S
C1670 C1669 1.396 . S
C1670 C1671 1.399 . S
C1671 H1657 0.929 . S
C1671 C1670 1.399 . S
C1671 C1672 1.385 . S
C1672 H1658 0.931 . S
C1672 C1671 1.385 . S
C1672 C1673 1.389 . S
C1673 C1672 1.389 . S
C1673 C1674 1.387 . S
C1674 H1659 0.930 . S
C1674 C1669 1.390 . S
C1674 C1673 1.387 . S
H1675 C1687 0.930 . S
H1676 C1689 0.930 . S
H1677 C1690 0.930 . S
H1678 C1694 0.959 . S
H1679 C1694 0.959 . S
H1680 C1694 0.961 . S
H1681 C1695 0.960 . S
H1682 C1695 0.961 . S
H1683 C1695 0.959 . S
H1684 C1698 0.929 . S
H1685 C1699 0.931 . S
H1686 C1701 0.930 . S
C1687 H1675 0.930 . S
C1687 C1688 1.399 . S
C1687 C1692 1.399 . S
C1688 C1687 1.399 . S
C1688 C1689 1.376 . S
C1689 H1676 0.930 . S
C1689 C1688 1.376 . S
C1689 C1690 1.388 . S
C1690 H1677 0.930 . S
C1690 C1689 1.388 . S
C1690 C1691 1.390 . S
C1691 C1690 1.390 . S
C1691 C1692 1.394 . S
C1691 C1697 1.465 . S
C1692 C1687 1.399 . S
C1692 C1691 1.394 . S
C1692 C1693 1.516 . S
C1693 C1692 1.516 . S
C1693 C1694 1.502 . S
C1693 C1695 1.561 . S
C1693 C1696 1.526 . S
C1694 H1678 0.959 . S
C1694 H1679 0.959 . S
C1694 H1680 0.961 . S
C1694 C1693 1.502 . S
C1695 H1681 0.960 . S
C1695 H1682 0.961 . S
C1695 H1683 0.959 . S
C1695 C1693 1.561 . S
C1696 C1693 1.526 . S
C1696 C1697 1.396 . S
C1696 C1701 1.390 . S
C1697 C1691 1.465 . S
C1697 C1696 1.396 . S
C1697 C1698 1.399 . S
C1698 H1684 0.929 . S
C1698 C1697 1.399 . S
C1698 C1699 1.385 . S
C1699 H1685 0.931 . S
C1699 C1698 1.385 . S
C1699 C1700 1.389 . S
C1700 C1699 1.389 . S
C1700 C1701 1.387 . S
C1701 H1686 0.930 . S
C1701 C1696 1.390 . S
C1701 C1700 1.387 . S
H1702 C1714 0.930 . S
H1703 C1716 0.930 . S
H1704 C1717 0.930 . S
H1705 C1721 0.959 . S
H1706 C1721 0.959 . S
H1707 C1721 0.961 . S
H1708 C1722 0.960 . S
H1709 C1722 0.961 . S
H1710 C1722 0.959 . S
H1711 C1725 0.929 . S
H1712 C1726 0.931 . S
H1713 C1728 0.930 . S
C1714 H1702 0.930 . S
C1714 C1715 1.399 . S
C1714 C1719 1.399 . S
C1715 C1714 1.399 . S
C1715 C1716 1.376 . S
C1716 H1703 0.930 . S
C1716 C1715 1.376 . S
C1716 C1717 1.388 . S
C1717 H1704 0.930 . S
C1717 C1716 1.388 . S
C1717 C1718 1.390 . S
C1718 C1717 1.390 . S
C1718 C1719 1.394 . S
C1718 C1724 1.465 . S
C1719 C1714 1.399 . S
C1719 C1718 1.394 . S
C1719 C1720 1.516 . S
C1720 C1719 1.516 . S
C1720 C1721 1.502 . S
C1720 C1722 1.561 . S
C1720 C1723 1.526 . S
C1721 H1705 0.959 . S
C1721 H1706 0.959 . S
C1721 H1707 0.961 . S
C1721 C1720 1.502 . S
C1722 H1708 0.960 . S
C1722 H1709 0.961 . S
C1722 H1710 0.959 . S
C1722 C1720 1.561 . S
C1723 C1720 1.526 . S
C1723 C1724 1.396 . S
C1723 C1728 1.390 . S
C1724 C1718 1.465 . S
C1724 C1723 1.396 . S
C1724 C1725 1.399 . S
C1725 H1711 0.929 . S
C1725 C1724 1.399 . S
C1725 C1726 1.385 . S
C1726 H1712 0.931 . S
C1726 C1725 1.385 . S
C1726 C1727 1.389 . S
C1727 C1726 1.389 . S
C1727 C1728 1.387 . S
C1728 H1713 0.930 . S
C1728 C1723 1.390 . S
C1728 C1727 1.387 . S
H1729 C1741 0.930 . S
H1730 C1743 0.930 . S
H1731 C1744 0.930 . S
H1732 C1748 0.959 . S
H1733 C1748 0.959 . S
H1734 C1748 0.961 . S
H1735 C1749 0.960 . S
H1736 C1749 0.961 . S
H1737 C1749 0.959 . S
H1738 C1752 0.929 . S
H1739 C1753 0.931 . S
H1740 C1755 0.930 . S
C1741 H1729 0.930 . S
C1741 C1742 1.399 . S
C1741 C1746 1.399 . S
C1742 C1741 1.399 . S
C1742 C1743 1.376 . S
C1743 H1730 0.930 . S
C1743 C1742 1.376 . S
C1743 C1744 1.388 . S
C1744 H1731 0.930 . S
C1744 C1743 1.388 . S
C1744 C1745 1.390 . S
C1745 C1744 1.390 . S
C1745 C1746 1.394 . S
C1745 C1751 1.465 . S
C1746 C1741 1.399 . S
C1746 C1745 1.394 . S
C1746 C1747 1.516 . S
C1747 C1746 1.516 . S
C1747 C1748 1.502 . S
C1747 C1749 1.561 . S
C1747 C1750 1.526 . S
C1748 H1732 0.959 . S
C1748 H1733 0.959 . S
C1748 H1734 0.961 . S
C1748 C1747 1.502 . S
C1749 H1735 0.960 . S
C1749 H1736 0.961 . S
C1749 H1737 0.959 . S
C1749 C1747 1.561 . S
C1750 C1747 1.526 . S
C1750 C1751 1.396 . S
C1750 C1755 1.390 . S
C1751 C1745 1.465 . S
C1751 C1750 1.396 . S
C1751 C1752 1.399 . S
C1752 H1738 0.929 . S
C1752 C1751 1.399 . S
C1752 C1753 1.385 . S
C1753 H1739 0.931 . S
C1753 C1752 1.385 . S
C1753 C1754 1.389 . S
C1754 C1753 1.389 . S
C1754 C1755 1.387 . S
C1755 H1740 0.930 . S
C1755 C1750 1.390 . S
C1755 C1754 1.387 . S
H1756 C1768 0.930 . S
H1757 C1770 0.930 . S
H1758 C1771 0.930 . S
H1759 C1775 0.959 . S
H1760 C1775 0.959 . S
H1761 C1775 0.961 . S
H1762 C1776 0.960 . S
H1763 C1776 0.961 . S
H1764 C1776 0.959 . S
H1765 C1779 0.929 . S
H1766 C1780 0.931 . S
H1767 C1782 0.930 . S
C1768 H1756 0.930 . S
C1768 C1769 1.399 . S
C1768 C1773 1.399 . S
C1769 C1768 1.399 . S
C1769 C1770 1.376 . S
C1770 H1757 0.930 . S
C1770 C1769 1.376 . S
C1770 C1771 1.388 . S
C1771 H1758 0.930 . S
C1771 C1770 1.388 . S
C1771 C1772 1.390 . S
C1772 C1771 1.390 . S
C1772 C1773 1.394 . S
C1772 C1778 1.465 . S
C1773 C1768 1.399 . S
C1773 C1772 1.394 . S
C1773 C1774 1.516 . S
C1774 C1773 1.516 . S
C1774 C1775 1.502 . S
C1774 C1776 1.561 . S
C1774 C1777 1.526 . S
C1775 H1759 0.959 . S
C1775 H1760 0.959 . S
C1775 H1761 0.961 . S
C1775 C1774 1.502 . S
C1776 H1762 0.960 . S
C1776 H1763 0.961 . S
C1776 H1764 0.959 . S
C1776 C1774 1.561 . S
C1777 C1774 1.526 . S
C1777 C1778 1.396 . S
C1777 C1782 1.390 . S
C1778 C1772 1.465 . S
C1778 C1777 1.396 . S
C1778 C1779 1.399 . S
C1779 H1765 0.929 . S
C1779 C1778 1.399 . S
C1779 C1780 1.385 . S
C1780 H1766 0.931 . S
C1780 C1779 1.385 . S
C1780 C1781 1.389 . S
C1781 C1780 1.389 . S
C1781 C1782 1.387 . S
C1782 H1767 0.930 . S
C1782 C1777 1.390 . S
C1782 C1781 1.387 . S
H1783 C1795 0.930 . S
H1784 C1797 0.930 . S
H1785 C1798 0.930 . S
H1786 C1802 0.959 . S
H1787 C1802 0.959 . S
H1788 C1802 0.961 . S
H1789 C1803 0.960 . S
H1790 C1803 0.961 . S
H1791 C1803 0.959 . S
H1792 C1806 0.929 . S
H1793 C1807 0.931 . S
H1794 C1809 0.930 . S
C1795 H1783 0.930 . S
C1795 C1796 1.399 . S
C1795 C1800 1.399 . S
C1796 C1795 1.399 . S
C1796 C1797 1.376 . S
C1797 H1784 0.930 . S
C1797 C1796 1.376 . S
C1797 C1798 1.388 . S
C1798 H1785 0.930 . S
C1798 C1797 1.388 . S
C1798 C1799 1.390 . S
C1799 C1798 1.390 . S
C1799 C1800 1.394 . S
C1799 C1805 1.465 . S
C1800 C1795 1.399 . S
C1800 C1799 1.394 . S
C1800 C1801 1.516 . S
C1801 C1800 1.516 . S
C1801 C1802 1.502 . S
C1801 C1803 1.561 . S
C1801 C1804 1.526 . S
C1802 H1786 0.959 . S
C1802 H1787 0.959 . S
C1802 H1788 0.961 . S
C1802 C1801 1.502 . S
C1803 H1789 0.960 . S
C1803 H1790 0.961 . S
C1803 H1791 0.959 . S
C1803 C1801 1.561 . S
C1804 C1801 1.526 . S
C1804 C1805 1.396 . S
C1804 C1809 1.390 . S
C1805 C1799 1.465 . S
C1805 C1804 1.396 . S
C1805 C1806 1.399 . S
C1806 H1792 0.929 . S
C1806 C1805 1.399 . S
C1806 C1807 1.385 . S
C1807 H1793 0.931 . S
C1807 C1806 1.385 . S
C1807 C1808 1.389 . S
C1808 C1807 1.389 . S
C1808 C1809 1.387 . S
C1809 H1794 0.930 . S
C1809 C1804 1.390 . S
C1809 C1808 1.387 . S
C539 C288 0.928 . S
C527 N18 0.723 . S
C566 N264 1.514 . S
C554 C61 1.577 . S
C593 C296 0.668 . S
C581 N82 0.556 . S
C608 C100 1.498 . S
C620 C295 1.453 . S
C635 C130 1.685 . S
C647 N259 1.583 . S
C674 C283 0.934 . S
C662 N173 0.789 . S
C689 C198 1.614 . S
C701 C269 1.473 . S
C716 N242 0.501 . S
C728 C289 0.696 . S
C755 C312 1.465 . S
C743 C6 1.633 . S
C770 N50 0.606 . S
C782 C375 0.657 . S
C809 N302 1.520 . S
C797 C68 1.575 . S
C836 C369 0.542 . S
C824 N109 0.705 . S
C851 C134 2.008 . S
C863 C339 2.015 . S
C890 C381 1.576 . S
C878 C162 1.643 . S
C905 C194 2.094 . S
C917 C331 2.083 . S
C932 C228 1.586 . S
C944 N350 1.584 . S
C959 C2 1.667 . S
C971 N345 1.678 . S
C986 N141 0.762 . S
C998 C374 0.901 . S
C1025 N307 1.678 . S
C1013 C166 1.667 . S
C1052 C382 0.744 . S
C1040 N210 0.849 . S
C1067 C253 1.530 . S
C1079 C338 1.418 . S
C1094 C93 1.490 . S
C1106 C355 1.318 . S
C1133 C332 1.917 . S
C1121 C125 1.905 . S
C1148 C36 2.035 . S
C1160 C326 2.005 . S
C1175 N237 0.927 . S
C1187 C417 0.781 . S
C1202 C157 1.592 . S
C1214 N393 1.487 . S
C1241 C425 0.526 . S
C1229 N178 0.641 . S
C1268 C424 1.367 . S
C1256 C196 1.508 . S
C1283 C34 1.665 . S
C1295 N388 1.581 . S
C1322 C412 0.828 . S
C1310 N77 0.912 . S
C1337 C102 1.619 . S
C1349 C398 1.498 . S
C1364 N13 0.670 . S
C1376 C418 0.615 . S
C1391 C226 1.646 . S
C1403 C441 1.464 . S
C1430 C504 0.524 . S
C1418 N146 0.667 . S
C1445 C164 1.540 . S
C1457 N431 1.535 . S
C1472 N205 0.619 . S
C1484 C498 0.529 . S
C1511 C468 1.974 . S
C1499 C38 2.004 . S
C1526 C66 1.638 . S
C1538 C510 1.565 . S
C1565 C460 2.107 . S
C1553 C98 2.118 . S
C1592 N479 1.585 . S
C1580 C29 1.581 . S
C1619 N474 1.601 . S
C1607 C230 1.709 . S
C1634 N45 0.896 . S
C1646 C503 0.830 . S
C1661 C70 1.722 . S
C1673 N436 1.613 . S
C1700 C511 0.781 . S
C1688 N114 0.703 . S
C1715 C4 1.528 . S
C1727 C467 1.398 . S
C1742 C189 1.489 . S
C1754 C484 1.413 . S
C1781 C461 1.910 . S
C1769 C221 1.900 . S
C1808 C455 2.041 . S
C1796 C132 2.029 . S
