# Generated by pormake.
# Topology gar, (4,6)-cn, num edge types: 1
# Building blocks:
#     Node 0, Type 0, BuildingBlock: CEKHIL_clean_sbu_0, # of connection points: 4
#     Node 1, Type 0, BuildingBlock: CEKHIL_clean_sbu_0, # of connection points: 4
#     Node 2, Type 0, BuildingBlock: CEKHIL_clean_sbu_0, # of connection points: 4
#     Node 3, Type 0, BuildingBlock: CEKHIL_clean_sbu_0, # of connection points: 4
#     Node 4, Type 0, BuildingBlock: CEKHIL_clean_sbu_0, # of connection points: 4
#     Node 5, Type 0, BuildingBlock: CEKHIL_clean_sbu_0, # of connection points: 4
#     Node 6, Type 0, BuildingBlock: CEKHIL_clean_sbu_0, # of connection points: 4
#     Node 7, Type 0, BuildingBlock: CEKHIL_clean_sbu_0, # of connection points: 4
#     Node 8, Type 0, BuildingBlock: CEKHIL_clean_sbu_0, # of connection points: 4
#     Node 9, Type 0, BuildingBlock: CEKHIL_clean_sbu_0, # of connection points: 4
#     Node 10, Type 0, BuildingBlock: CEKHIL_clean_sbu_0, # of connection points: 4
#     Node 11, Type 0, BuildingBlock: CEKHIL_clean_sbu_0, # of connection points: 4
#     Node 12, Type 0, BuildingBlock: CEKHIL_clean_sbu_0, # of connection points: 4
#     Node 13, Type 0, BuildingBlock: CEKHIL_clean_sbu_0, # of connection points: 4
#     Node 14, Type 0, BuildingBlock: CEKHIL_clean_sbu_0, # of connection points: 4
#     Node 15, Type 0, BuildingBlock: CEKHIL_clean_sbu_0, # of connection points: 4
#     Node 16, Type 0, BuildingBlock: CEKHIL_clean_sbu_0, # of connection points: 4
#     Node 17, Type 0, BuildingBlock: CEKHIL_clean_sbu_0, # of connection points: 4
#     Node 18, Type 0, BuildingBlock: CEKHIL_clean_sbu_0, # of connection points: 4
#     Node 19, Type 0, BuildingBlock: CEKHIL_clean_sbu_0, # of connection points: 4
#     Node 20, Type 0, BuildingBlock: CEKHIL_clean_sbu_0, # of connection points: 4
#     Node 21, Type 0, BuildingBlock: CEKHIL_clean_sbu_0, # of connection points: 4
#     Node 22, Type 0, BuildingBlock: CEKHIL_clean_sbu_0, # of connection points: 4
#     Node 23, Type 0, BuildingBlock: CEKHIL_clean_sbu_0, # of connection points: 4
#     Node 24, Type 1, BuildingBlock: KUMBOL_clean_sbu_0, # of connection points: 6
#     Node 25, Type 1, BuildingBlock: KUMBOL_clean_sbu_0, # of connection points: 6
#     Node 26, Type 1, BuildingBlock: KUMBOL_clean_sbu_0, # of connection points: 6
#     Node 27, Type 1, BuildingBlock: KUMBOL_clean_sbu_0, # of connection points: 6
#     Node 28, Type 1, BuildingBlock: KUMBOL_clean_sbu_0, # of connection points: 6
#     Node 29, Type 1, BuildingBlock: KUMBOL_clean_sbu_0, # of connection points: 6
#     Node 30, Type 1, BuildingBlock: KUMBOL_clean_sbu_0, # of connection points: 6
#     Node 31, Type 1, BuildingBlock: KUMBOL_clean_sbu_0, # of connection points: 6
#     Node 32, Type 1, BuildingBlock: KUMBOL_clean_sbu_0, # of connection points: 6
#     Node 33, Type 1, BuildingBlock: KUMBOL_clean_sbu_0, # of connection points: 6
#     Node 34, Type 1, BuildingBlock: KUMBOL_clean_sbu_0, # of connection points: 6
#     Node 35, Type 1, BuildingBlock: KUMBOL_clean_sbu_0, # of connection points: 6
#     Node 36, Type 1, BuildingBlock: KUMBOL_clean_sbu_0, # of connection points: 6
#     Node 37, Type 1, BuildingBlock: KUMBOL_clean_sbu_0, # of connection points: 6
#     Node 38, Type 1, BuildingBlock: KUMBOL_clean_sbu_0, # of connection points: 6
#     Node 39, Type 1, BuildingBlock: KUMBOL_clean_sbu_0, # of connection points: 6
#     Edge 40, Type (0, 1), None
#     Edge 41, Type (0, 1), None
#     Edge 42, Type (0, 1), None
#     Edge 43, Type (0, 1), None
#     Edge 44, Type (0, 1), None
#     Edge 45, Type (0, 1), None
#     Edge 46, Type (0, 1), None
#     Edge 47, Type (0, 1), None
#     Edge 48, Type (0, 1), None
#     Edge 49, Type (0, 1), None
#     Edge 50, Type (0, 1), None
#     Edge 51, Type (0, 1), None
#     Edge 52, Type (0, 1), None
#     Edge 53, Type (0, 1), None
#     Edge 54, Type (0, 1), None
#     Edge 55, Type (0, 1), None
#     Edge 56, Type (0, 1), None
#     Edge 57, Type (0, 1), None
#     Edge 58, Type (0, 1), None
#     Edge 59, Type (0, 1), None
#     Edge 60, Type (0, 1), None
#     Edge 61, Type (0, 1), None
#     Edge 62, Type (0, 1), None
#     Edge 63, Type (0, 1), None
#     Edge 64, Type (0, 1), None
#     Edge 65, Type (0, 1), None
#     Edge 66, Type (0, 1), None
#     Edge 67, Type (0, 1), None
#     Edge 68, Type (0, 1), None
#     Edge 69, Type (0, 1), None
#     Edge 70, Type (0, 1), None
#     Edge 71, Type (0, 1), None
#     Edge 72, Type (0, 1), None
#     Edge 73, Type (0, 1), None
#     Edge 74, Type (0, 1), None
#     Edge 75, Type (0, 1), None
#     Edge 76, Type (0, 1), None
#     Edge 77, Type (0, 1), None
#     Edge 78, Type (0, 1), None
#     Edge 79, Type (0, 1), None
#     Edge 80, Type (0, 1), None
#     Edge 81, Type (0, 1), None
#     Edge 82, Type (0, 1), None
#     Edge 83, Type (0, 1), None
#     Edge 84, Type (0, 1), None
#     Edge 85, Type (0, 1), None
#     Edge 86, Type (0, 1), None
#     Edge 87, Type (0, 1), None
#     Edge 88, Type (0, 1), None
#     Edge 89, Type (0, 1), None
#     Edge 90, Type (0, 1), None
#     Edge 91, Type (0, 1), None
#     Edge 92, Type (0, 1), None
#     Edge 93, Type (0, 1), None
#     Edge 94, Type (0, 1), None
#     Edge 95, Type (0, 1), None
#     Edge 96, Type (0, 1), None
#     Edge 97, Type (0, 1), None
#     Edge 98, Type (0, 1), None
#     Edge 99, Type (0, 1), None
#     Edge 100, Type (0, 1), None
#     Edge 101, Type (0, 1), None
#     Edge 102, Type (0, 1), None
#     Edge 103, Type (0, 1), None
#     Edge 104, Type (0, 1), None
#     Edge 105, Type (0, 1), None
#     Edge 106, Type (0, 1), None
#     Edge 107, Type (0, 1), None
#     Edge 108, Type (0, 1), None
#     Edge 109, Type (0, 1), None
#     Edge 110, Type (0, 1), None
#     Edge 111, Type (0, 1), None
#     Edge 112, Type (0, 1), None
#     Edge 113, Type (0, 1), None
#     Edge 114, Type (0, 1), None
#     Edge 115, Type (0, 1), None
#     Edge 116, Type (0, 1), None
#     Edge 117, Type (0, 1), None
#     Edge 118, Type (0, 1), None
#     Edge 119, Type (0, 1), None
#     Edge 120, Type (0, 1), None
#     Edge 121, Type (0, 1), None
#     Edge 122, Type (0, 1), None
#     Edge 123, Type (0, 1), None
#     Edge 124, Type (0, 1), None
#     Edge 125, Type (0, 1), None
#     Edge 126, Type (0, 1), None
#     Edge 127, Type (0, 1), None
#     Edge 128, Type (0, 1), None
#     Edge 129, Type (0, 1), None
#     Edge 130, Type (0, 1), None
#     Edge 131, Type (0, 1), None
#     Edge 132, Type (0, 1), None
#     Edge 133, Type (0, 1), None
#     Edge 134, Type (0, 1), None
#     Edge 135, Type (0, 1), None
# Relax obj value: 0.230
# Max RMSD: 0.404
# Mean RMSD: 0.184
data_MOF--net-gar--node1-CEKHIL_clean_sbu_0--node2-KUMBOL_clean_sbu_0--edge1-none
_symmetry_space_group_name_H-M    P1
_symmetry_Int_Tables_number       1
_symmetry_cell_setting            triclinic
loop_
_symmetry_equiv_pos_as_xyz
'x, y, z'
_cell_length_a     33.010383
_cell_length_b     26.788846
_cell_length_c     26.490257
_cell_angle_alpha  103.39323
_cell_angle_beta   94.897151
_cell_angle_gamma 102.75504
loop_
_atom_site_label
_atom_site_type_symbol
_atom_site_fract_x
_atom_site_fract_y
_atom_site_fract_z
_atom_type_partial_charge
Co0 Co 0.20956 0.41269 0.40546 0.0
O1 O 0.27097 0.41146 0.41534 0.0
O2 O 0.23168 0.37877 0.34106 0.0
C3 C 0.20026 0.49553 0.45967 0.0
O4 O 0.15739 0.40666 0.36124 0.0
Co5 Co 0.13711 0.43167 0.47531 0.0
O6 O 0.10328 0.41376 0.40363 0.0
C7 C 0.1713 0.35143 0.47006 0.0
C8 C 0.26853 0.38679 0.36568 0.0
C9 C 0.11958 0.40786 0.3617 0.0
O10 O 0.18336 0.34344 0.42426 0.0
O11 O 0.18177 0.39889 0.49709 0.0
O12 O 0.21687 0.49369 0.41638 0.0
O13 O 0.19602 0.45247 0.4708 0.0
Co14 Co 0.01449 0.76499 0.66885 0.0
O15 O 0.9529 0.76493 0.65776 0.0
O16 O 0.98643 0.77518 0.73392 0.0
C17 C 0.05101 0.81836 0.61821 0.0
O18 O 0.06753 0.77391 0.71149 0.0
Co19 Co 0.07621 0.72507 0.59222 0.0
O20 O 0.11147 0.74013 0.66365 0.0
C21 C 0.01766 0.66416 0.60019 0.0
C22 C 0.95153 0.77502 0.7086 0.0
C23 C 0.10126 0.76013 0.7076 0.0
O24 O 1.01011 0.68289 0.64783 0.0
O25 O 0.01464 0.69307 0.56967 0.0
O26 O 0.03864 0.83939 0.6615 0.0
O27 O 0.03695 0.76877 0.60481 0.0
Co28 Co 0.70951 0.91261 0.9055 0.0
O29 O 0.771 0.91133 0.91532 0.0
O30 O 0.73181 0.87865 0.84107 0.0
C31 C 0.70018 0.99547 0.95968 0.0
O32 O 0.6574 0.90668 0.86122 0.0
Co33 Co 0.63679 0.93155 0.97535 0.0
O34 O 0.60321 0.91366 0.90357 0.0
C35 C 0.67018 0.8516 0.96994 0.0
C36 C 0.76869 0.88673 0.86567 0.0
C37 C 0.61958 0.90785 0.86167 0.0
O38 O 0.6828 0.84349 0.92442 0.0
O39 O 0.68111 0.89884 0.99739 0.0
O40 O 0.71687 0.99364 0.91645 0.0
O41 O 0.69582 0.95239 0.97077 0.0
Co42 Co 0.51447 0.26499 0.16886 0.0
O43 O 0.45288 0.26494 0.15781 0.0
O44 O 0.48643 0.27516 0.23394 0.0
C45 C 0.55099 0.31837 0.11824 0.0
O46 O 0.56752 0.27391 0.21149 0.0
Co47 Co 0.57619 0.22508 0.09221 0.0
O48 O 0.61145 0.24012 0.16364 0.0
C49 C 0.51765 0.16417 0.10018 0.0
C50 C 0.45152 0.27502 0.20864 0.0
C51 C 0.60125 0.26013 0.20759 0.0
O52 O 0.51011 0.18289 0.14782 0.0
O53 O 0.51462 0.19307 0.06966 0.0
O54 O 0.53863 0.3394 0.16153 0.0
O55 O 0.53693 0.26879 0.10482 0.0
Co56 Co 0.16629 0.87206 0.12867 0.0
O57 O 0.10326 0.84317 0.10164 0.0
O58 O 0.12438 0.87904 0.17856 0.0
C59 C 0.14932 0.95229 0.09294 0.0
O60 O 0.21173 0.87498 0.19516 0.0
Co61 Co 0.18463 0.8524 0.08368 0.0
O62 O 0.2451 0.85771 0.13307 0.0
C63 C 0.1387 0.75116 0.07181 0.0
C64 C 0.09245 0.85211 0.14669 0.0
C65 C 0.24718 0.86565 0.18362 0.0
O66 O 0.14874 0.7867 0.11622 0.0
O67 O 0.1523 0.77305 0.03696 0.0
O68 O 0.17193 0.95382 0.13571 0.0
O69 O 0.142 0.90176 0.06778 0.0
Co70 Co 0.55892 0.8042 0.44415 0.0
O71 O 0.62078 0.82644 0.47226 0.0
O72 O 0.59596 0.80361 0.39218 0.0
C73 C 0.57391 0.90708 0.48751 0.0
O74 O 0.50398 0.79086 0.38453 0.0
Co75 Co 0.52392 0.79474 0.48864 0.0
O76 O 0.46537 0.79577 0.44284 0.0
C77 C 0.56792 0.70952 0.4906 0.0
C78 C 0.62873 0.82208 0.42534 0.0
C79 C 0.46676 0.79479 0.39424 0.0
O80 O 0.56663 0.72555 0.44771 0.0
O81 O 0.54712 0.73587 0.52091 0.0
O82 O 0.56195 0.88106 0.44051 0.0
O83 O 0.5686 0.87047 0.51243 0.0
Co84 Co 0.66628 0.37208 0.62866 0.0
O85 O 0.60322 0.34333 0.60165 0.0
O86 O 0.62433 0.37913 0.67853 0.0
C87 C 0.64934 0.4523 0.59293 0.0
O88 O 0.71172 0.37499 0.69515 0.0
Co89 Co 0.68464 0.35241 0.58366 0.0
O90 O 0.7451 0.35772 0.63306 0.0
C91 C 0.63872 0.25117 0.57176 0.0
C92 C 0.59235 0.35236 0.64667 0.0
C93 C 0.74718 0.36565 0.68362 0.0
O94 O 0.64877 0.28673 0.61616 0.0
O95 O 0.65231 0.27306 0.5369 0.0
O96 O 0.67195 0.45385 0.63569 0.0
O97 O 0.642 0.40178 0.56776 0.0
Co98 Co 0.05894 0.30416 0.94413 0.0
O99 O 0.12081 0.32643 0.97228 0.0
O100 O 0.09605 0.30359 0.8922 0.0
C101 C 0.07383 0.40707 0.98747 0.0
O102 O 1.00399 0.29082 0.88451 0.0
Co103 Co 0.02392 0.29471 0.98863 0.0
O104 O 0.96539 0.29575 0.94282 0.0
C105 C 0.06794 0.2095 0.99058 0.0
C106 C 0.12882 0.32204 0.92538 0.0
C107 C 0.96678 0.29477 0.89423 0.0
O108 O 0.06664 0.22552 0.94769 0.0
O109 O 0.04715 0.23585 0.0209 0.0
O110 O 0.0619 0.38102 0.94048 0.0
O111 O 0.06857 0.37046 0.01239 0.0
Co112 Co 0.45388 0.04018 0.3519 0.0
O113 O 0.44474 0.0975 0.32644 0.0
O114 O 0.39578 0.03071 0.34099 0.0
C115 C 0.51181 0.07837 0.41561 0.0
O116 O 0.45017 0.97749 0.37426 0.0
Co117 Co 0.52441 0.98373 0.3543 0.0
O118 O 0.47828 0.91612 0.34596 0.0
C119 C 0.49002 1.01403 0.2698 0.0
C120 C 0.40585 0.06894 0.31892 0.0
C121 C 0.44469 0.93133 0.3463 0.0
O122 O 0.45256 1.00225 0.27826 0.0
O123 O 0.51769 0.03497 0.30996 0.0
O124 O 0.47411 0.0824 0.42528 0.0
O125 O 0.51363 0.05578 0.36867 0.0
Co126 Co 0.33504 0.23216 0.50991 0.0
O127 O 0.39656 0.24845 0.52918 0.0
O128 O 0.35454 0.17101 0.51717 0.0
C129 C 0.3492 0.27755 0.43756 0.0
O130 O 0.27082 0.17759 0.49441 0.0
Co131 Co 0.2945 0.28487 0.52963 0.0
O132 O 0.23433 0.23407 0.51005 0.0
C133 C 0.33837 0.29437 0.62624 0.0
C134 C 0.39182 0.20028 0.53276 0.0
C135 C 0.23332 0.18503 0.50006 0.0
O136 O 0.33893 0.25168 0.59211 0.0
O137 O 0.31968 0.32416 0.60793 0.0
O138 O 0.34212 0.2272 0.43398 0.0
O139 O 0.34019 0.30228 0.48284 0.0
Co140 Co 0.22549 0.0459 0.78931 0.0
O141 O 0.25471 0.97692 0.78801 0.0
O142 O 0.25487 0.97729 0.78788 0.0
C143 C 0.18083 0.05154 0.87754 0.0
O144 O 0.27926 0.11693 0.79279 0.0
Co145 Co 0.18868 0.10503 0.79294 0.0
O146 O 0.23984 0.17141 0.81315 0.0
C147 C 0.16941 0.05651 0.68158 0.0
C148 C 0.28935 0.96103 0.77576 0.0
C149 C 0.2762 0.16736 0.80218 0.0
O150 O 0.19816 0.03387 0.70208 0.0
O151 O 0.15731 0.08886 0.71702 0.0
O152 O 0.22114 0.05788 0.87478 0.0
O153 O 0.16852 0.04345 0.82804 0.0
Co154 Co 0.41734 1.01563 0.99517 0.0
O155 O 0.35955 1.01052 0.99618 0.0
O156 O 0.41179 0.08474 0.01319 0.0
C157 C 0.40788 0.95277 0.92188 0.0
O158 O 0.47887 0.03253 0.99881 0.0
Co159 Co 0.44722 0.90458 0.98339 0.0
O160 O 0.49491 0.95555 0.96503 0.0
C161 C 0.41918 0.96722 0.0685 0.0
C162 C 0.37214 0.06172 0.01026 0.0
C163 C 0.50526 1.00566 0.98536 0.0
O164 O 0.4258 1.0154 0.06932 0.0
O165 O 0.40452 0.93434 0.02433 0.0
O166 O 0.40956 1.00136 0.91981 0.0
O167 O 0.40931 0.94393 0.96644 0.0
Co168 Co 0.38418 0.42789 0.04301 0.0
O169 O 0.32303 0.40643 0.02015 0.0
O170 O 0.35728 0.4867 0.05707 0.0
C171 C 0.38514 0.38266 0.95016 0.0
O172 O 0.44646 0.48463 0.05999 0.0
Co173 Co 0.42599 0.38061 0.0583 0.0
O174 O 0.48554 0.4342 0.07291 0.0
C175 C 0.36699 0.36398 0.12785 0.0
C176 C 0.32258 0.45559 0.03194 0.0
C177 C 0.4849 0.48042 0.06861 0.0
O178 O 0.37052 0.40992 0.11701 0.0
O179 O 0.38751 0.33614 0.09975 0.0
O180 O 0.38917 0.43186 0.97043 0.0
O181 O 0.38716 0.35866 0.98762 0.0
Co182 Co 0.79762 0.14417 0.05935 0.0
O183 O 0.8565 0.16315 0.05826 0.0
O184 O 0.81678 0.08541 0.06344 0.0
C185 C 0.77795 0.18279 0.00029 0.0
O186 O 0.73768 0.10813 0.05499 0.0
Co187 Co 0.74647 0.23722 0.09111 0.0
O188 O 0.73073 0.17205 0.11443 0.0
C189 C 0.81415 0.22419 0.14656 0.0
C190 C 0.85301 0.11406 0.05967 0.0
C191 C 0.71348 0.13133 0.07949 0.0
O192 O 0.80895 0.17378 0.13568 0.0
O193 O 0.80689 0.24656 0.1111 0.0
O194 O 0.78602 0.13672 0.98305 0.0
O195 O 0.78563 0.20419 0.04896 0.0
Co196 Co 0.26496 0.62731 0.2388 0.0
O197 O 0.27041 0.56883 0.26318 0.0
O198 O 0.31744 0.61767 0.22472 0.0
C199 C 0.23932 0.65983 0.31055 0.0
O200 O 0.27288 0.68946 0.21354 0.0
Co201 Co 0.20077 0.69654 0.23953 0.0
O202 O 0.24983 0.75665 0.24049 0.0
C203 C 0.19711 0.59985 0.15948 0.0
C204 C 0.30896 0.58678 0.25534 0.0
C205 C 0.28106 0.73684 0.23952 0.0
O206 O 0.2305 0.58407 0.16981 0.0
O207 O 0.19742 0.64803 0.17244 0.0
O208 O 0.27966 0.66761 0.31244 0.0
O209 O 0.21699 0.6393 0.26603 0.0
Co210 Co 0.8842 0.9279 0.54304 0.0
O211 O 0.82305 0.90644 0.52015 0.0
O212 O 0.8573 0.9867 0.55709 0.0
C213 C 0.88516 0.88273 0.45018 0.0
O214 O 0.94647 0.98464 0.56003 0.0
Co215 Co 0.92599 0.88059 0.55829 0.0
O216 O 0.98554 0.93417 0.57287 0.0
C217 C 0.86701 0.86392 0.62786 0.0
C218 C 0.8226 0.95559 0.53194 0.0
C219 C 0.98491 0.9804 0.5686 0.0
O220 O 0.87053 0.90987 0.61704 0.0
O221 O 0.88755 0.83611 0.59975 0.0
O222 O 0.88922 0.93193 0.47049 0.0
O223 O 0.88717 0.85868 0.4876 0.0
Co224 Co 0.99681 0.12817 0.30454 0.0
O225 O 0.95346 0.17657 0.2861 0.0
O226 O 0.95356 0.17652 0.28646 0.0
C227 C 0.03457 0.11072 0.39064 0.0
O228 O 0.94449 0.05075 0.29539 0.0
Co229 Co 0.0296 0.04182 0.27342 0.0
O230 O 0.97322 0.98799 0.25693 0.0
C231 C 0.04998 0.09775 0.19579 0.0
C232 C 0.93181 0.20867 0.31147 0.0
C233 C 0.94171 0.99812 0.27765 0.0
O234 O 0.02036 0.11933 0.22096 0.0
O235 O 0.06165 0.06377 0.21614 0.0
O236 O 1.00387 0.13504 0.38669 0.0
O237 O 0.04391 0.09928 0.34198 0.0
Co238 Co 0.29762 0.64416 0.55933 0.0
O239 O 0.3565 0.66311 0.55823 0.0
O240 O 0.31675 0.58537 0.56338 0.0
C241 C 0.27796 0.68279 0.50027 0.0
O242 O 0.23767 0.60815 0.55499 0.0
Co243 Co 0.24649 0.73723 0.59109 0.0
O244 O 0.23073 0.67207 0.61443 0.0
C245 C 0.3142 0.7242 0.64651 0.0
C246 C 0.35297 0.61399 0.55958 0.0
C247 C 0.21348 0.63135 0.57949 0.0
O248 O 0.30895 0.67377 0.63566 0.0
O249 O 0.30692 0.74655 0.61105 0.0
O250 O 0.28602 0.63671 0.48303 0.0
O251 O 0.28565 0.7042 0.54894 0.0
Co252 Co 0.49678 0.6282 0.80456 0.0
O253 O 0.45345 0.6764 0.78644 0.0
O254 O 0.45333 0.67645 0.78604 0.0
C255 C 0.53457 0.61074 0.89066 0.0
O256 O 0.44452 0.55075 0.79539 0.0
Co257 Co 0.52966 0.54187 0.77348 0.0
O258 O 0.4733 0.48802 0.75697 0.0
C259 C 0.54998 0.59778 0.69582 0.0
C260 C 0.43193 0.70883 0.81154 0.0
C261 C 0.44177 0.49815 0.77765 0.0
O262 O 0.52035 0.61935 0.72098 0.0
O263 O 0.56165 0.5638 0.71616 0.0
O264 O 0.50385 0.63502 0.88671 0.0
O265 O 0.54392 0.59936 0.842 0.0
Co266 Co 0.76501 0.12731 0.73885 0.0
O267 O 0.77074 0.069 0.76353 0.0
O268 O 0.81745 0.1178 0.72466 0.0
C269 C 0.73934 0.15985 0.81057 0.0
O270 O 0.77286 0.18943 0.71354 0.0
Co271 Co 0.70079 0.19653 0.73953 0.0
O272 O 0.74985 0.25665 0.74047 0.0
C273 C 0.69716 0.09984 0.65949 0.0
C274 C 0.80926 0.08747 0.7558 0.0
C275 C 0.78107 0.23682 0.7395 0.0
O276 O 0.73054 0.08404 0.66987 0.0
O277 O 0.69746 0.14802 0.67245 0.0
O278 O 0.77969 0.16767 0.81248 0.0
O279 O 0.71702 0.13929 0.76605 0.0
Co280 Co 0.83503 0.73214 0.00992 0.0
O281 O 0.89655 0.74843 0.02918 0.0
O282 O 0.85452 0.67099 0.01717 0.0
C283 C 0.84919 0.77747 0.93757 0.0
O284 O 0.77082 0.67758 0.99442 0.0
Co285 Co 0.79453 0.78487 0.02968 0.0
O286 O 0.73434 0.73408 0.01006 0.0
C287 C 0.83835 0.7943 0.12628 0.0
C288 C 0.8918 0.70026 0.03276 0.0
C289 C 0.73332 0.68504 7e-05 0.0
O290 O 0.83891 0.75163 0.09211 0.0
O291 O 0.81969 0.82412 0.108 0.0
O292 O 0.8421 0.72714 0.934 0.0
O293 O 0.84019 0.80225 0.98284 0.0
Co294 Co 0.95386 0.5401 0.85187 0.0
O295 O 0.94471 0.5974 0.82641 0.0
O296 O 0.89576 0.5306 0.84096 0.0
C297 C 0.01177 0.57832 0.91558 0.0
O298 O 0.95017 0.47742 0.87424 0.0
Co299 Co 0.02438 0.48366 0.85429 0.0
O300 O 0.97826 0.41604 0.84593 0.0
C301 C 0.99002 0.51396 0.76978 0.0
C302 C 0.90583 0.56883 0.81889 0.0
C303 C 0.94468 0.43126 0.84628 0.0
O304 O 0.95255 0.50218 0.77823 0.0
O305 O 0.01768 0.5349 0.80995 0.0
O306 O 0.97407 0.58233 0.92524 0.0
O307 O 0.0136 0.55572 0.86864 0.0
Co308 Co 0.91735 0.51563 0.49517 0.0
O309 O 0.85955 0.51053 0.49618 0.0
O310 O 0.91179 0.58474 0.5132 0.0
C311 C 0.9079 0.45277 0.42187 0.0
O312 O 0.97887 0.53253 0.49881 0.0
Co313 Co 0.94721 0.40457 0.48339 0.0
O314 O 0.9949 0.45555 0.46503 0.0
C315 C 0.91918 0.46721 0.56849 0.0
C316 C 0.87214 0.56172 0.51026 0.0
C317 C 1.00526 0.50566 0.48536 0.0
O318 O 0.92581 0.5154 0.56932 0.0
O319 O 0.90451 0.43434 0.52432 0.0
O320 O 0.90956 0.50136 0.41979 0.0
O321 O 0.90932 0.44394 0.46643 0.0
Co322 Co 0.72506 0.54448 0.28913 0.0
O323 O 0.7566 0.47763 0.28881 0.0
O324 O 0.75688 0.47835 0.28841 0.0
C325 C 0.68057 0.55218 0.37755 0.0
O326 O 0.77826 0.61678 0.29328 0.0
Co327 Co 0.68837 0.60698 0.29299 0.0
O328 O 0.73975 0.67244 0.31382 0.0
C329 C 0.66933 0.55635 0.18154 0.0
C330 C 0.78946 0.45957 0.2728 0.0
C331 C 0.7758 0.6675 0.3026 0.0
O332 O 0.69793 0.5334 0.20201 0.0
O333 O 0.65728 0.58901 0.21679 0.0
O334 O 0.72057 0.55575 0.3745 0.0
O335 O 0.6684 0.54626 0.32843 0.0
Gd336 Gd 0.15947 0.12038 0.06388 0.0
Gd337 Gd 0.06102 0.03977 0.00607 0.0
C338 C 1.00045 0.87171 0.02609 0.0
C339 C 0.97923 0.81744 0.93689 0.0
C340 C 0.02774 0.90559 0.95698 0.0
C341 C 0.02284 0.91385 0.00809 0.0
C342 C 1.00452 0.85776 0.91996 0.0
C343 C 0.97898 0.82352 0.99041 0.0
C344 C 1.00029 0.8791 0.07953 0.0
C345 C 0.02385 0.9263 0.11366 0.0
N346 N 0.04182 0.96234 0.04081 0.0
C347 C 0.04546 0.96657 0.09364 0.0
H348 H 0.06582 1.0003 0.12139 0.0
C349 C 0.0622 0.93402 0.89232 0.0
N350 N 0.05248 0.9466 0.94291 0.0
C351 C 0.03836 0.88876 0.85378 0.0
C352 C 1.00766 0.85179 0.86725 0.0
H353 H 0.08459 0.96044 0.87776 0.0
H354 H 0.96248 0.79073 0.00388 0.0
H355 H 0.15564 0.16071 0.94968 0.0
H356 H 0.9826 0.84798 0.09435 0.0
H357 H 0.02576 0.9319 0.15562 0.0
H358 H 0.96165 0.78072 0.90938 0.0
H359 H 0.13219 0.2011 0.18973 0.0
H360 H 0.23599 0.3153 0.97721 0.0
H361 H 0.1934 0.2314 0.91593 0.0
H362 H 0.25886 0.38008 0.16319 0.0
H363 H 0.04346 0.88298 0.81325 0.0
H364 H 0.98884 0.81748 0.83759 0.0
H365 H 0.25915 0.37095 0.06872 0.0
H366 H 0.17316 0.27774 0.256 0.0
N367 N 0.17921 0.19885 0.03026 0.0
C368 C 0.21936 0.28355 0.9921 0.0
C369 C 0.19587 0.23631 0.95783 0.0
C370 C 0.22029 0.29005 0.04561 0.0
C371 C 0.19841 0.24724 0.06323 0.0
C372 C 0.17531 0.19503 0.97755 0.0
N373 N 0.16764 0.21395 0.12701 0.0
C374 C 0.19332 0.25498 0.11405 0.0
C375 C 0.17961 0.27188 0.21597 0.0
C376 C 0.21162 0.30843 0.20394 0.0
C377 C 0.15611 0.22695 0.17658 0.0
C378 C 0.21603 0.30274 0.15158 0.0
H379 H 0.23004 0.34253 0.2342 0.0
O380 O 0.21015 0.08134 0.08269 0.0
O381 O 0.11954 0.03472 0.05337 0.0
O382 O 0.04717 0.06782 0.09384 0.0
O383 O 0.11059 0.12111 0.13369 0.0
O384 O 0.17236 0.05037 0.09867 0.0
O385 O 0.21697 0.12252 0.02323 0.0
O386 O 1.00993 0.07864 0.98885 0.0
O387 O 0.10029 0.12508 0.01723 0.0
O388 O 0.17446 0.09222 0.97669 0.0
O389 O 0.11133 0.03825 0.93532 0.0
O390 O 0.0454 0.10943 0.97307 0.0
O391 O 1.00397 0.03701 0.04796 0.0
C392 C 0.14243 1.00838 0.07774 0.0
C393 C 0.24149 0.3435 0.13527 0.0
C394 C 0.24201 0.33804 0.08176 0.0
C395 C 0.23353 0.09439 0.04931 0.0
C396 C 0.28049 0.10433 0.06404 0.0
C397 C 0.30128 0.12479 0.11614 0.0
C398 C 0.30427 0.08337 0.02699 0.0
C399 C 0.34755 0.08977 0.04146 0.0
C400 C 0.34448 0.13075 0.12903 0.0
C401 C 0.36753 0.11499 0.09186 0.0
C402 C 0.06903 0.10079 0.13834 0.0
C403 C 0.07575 0.15062 0.99453 0.0
C404 C 0.98754 0.0662 0.02314 0.0
C405 C 0.94097 0.05876 0.01007 0.0
C406 C 0.91898 0.03414 0.95916 0.0
C407 C 0.9195 0.08678 0.04541 0.0
C408 C 0.87745 0.08513 0.02959 0.0
C409 C 0.87627 0.0293 0.94613 0.0
C410 C 0.85575 0.05494 0.981 0.0
C411 C 0.15351 0.05961 0.9315 0.0
H412 H 0.28384 0.13013 0.14769 0.0
H413 H 0.2892 0.06099 0.98787 0.0
H414 H 0.3613 0.14098 0.16776 0.0
H415 H 0.40033 0.11721 0.10423 0.0
H416 H 0.93529 0.02603 0.9274 0.0
H417 H 0.93548 0.11091 0.08356 0.0
H418 H 0.85885 1.01209 0.90773 0.0
H419 H 0.82319 0.05373 0.96851 0.0
Gd420 Gd 0.33822 0.85662 0.35137 0.0
Gd421 Gd 0.3812 0.81345 0.22845 0.0
C422 C 0.33824 0.65799 0.09226 0.0
C423 C 0.4022 0.63317 0.08152 0.0
C424 C 0.39939 0.70661 0.1554 0.0
C425 C 0.35864 0.70007 0.13756 0.0
C426 C 0.42243 0.67779 0.12269 0.0
C427 C 0.35945 0.62284 0.06655 0.0
C428 C 0.29659 0.65055 0.07593 0.0
C429 C 0.27728 0.68332 0.10592 0.0
N430 N 0.33962 0.73741 0.16072 0.0
C431 C 0.29989 0.73223 0.13869 0.0
H432 H 0.28316 0.7598 0.15518 0.0
C433 C 0.46128 0.76394 0.20516 0.0
N434 N 0.41836 0.74807 0.19752 0.0
C435 C 0.4837 0.74602 0.16539 0.0
C436 C 0.46438 0.70137 0.12501 0.0
H437 H 0.47789 0.7972 0.2372 0.0
H438 H 0.34384 0.59017 0.03313 0.0
H439 H 0.43131 0.9055 0.42793 0.0
H440 H 0.27866 0.61546 0.04686 0.0
H441 H 0.24832 0.66387 0.11448 0.0
H442 H 0.41985 0.60935 0.05824 0.0
H443 H 0.24015 0.86956 0.34566 0.0
H444 H 0.43902 0.05237 0.53359 0.0
H445 H 0.46779 1.0026 0.46699 0.0
H446 H 0.29875 0.06087 0.521 0.0
H447 H 0.51646 0.76511 0.16712 0.0
H448 H 0.48181 0.68657 0.09458 0.0
H449 H 0.37448 0.07933 0.54602 0.0
H450 H 0.20258 0.90278 0.41662 0.0
N451 N 0.37823 0.93248 0.41872 0.0
C452 C 0.42089 1.01791 0.5042 0.0
C453 C 0.43957 0.98266 0.47729 0.0
C454 C 0.38 1.01251 0.486 0.0
C455 C 0.35969 0.97077 0.44053 0.0
C456 C 0.41611 0.93469 0.44371 0.0
N457 N 0.29968 0.92079 0.38251 0.0
C458 C 0.3188 0.96366 0.42324 0.0
C459 C 0.23509 0.92215 0.41712 0.0
C460 C 0.25428 0.96836 0.45567 0.0
C461 C 0.25691 0.90358 0.37682 0.0
C462 C 0.2959 0.99245 0.4564 0.0
H463 H 0.23698 0.98412 0.48585 0.0
O464 O 0.28308 0.81811 0.37283 0.0
O465 O 0.34461 0.79343 0.28571 0.0
O466 O 0.31919 0.84098 0.20197 0.0
O467 O 0.29064 0.86922 0.27848 0.0
O468 O 0.30014 0.77264 0.32775 0.0
O469 O 0.34316 0.83867 0.42703 0.0
O470 O 0.43775 0.85094 0.20788 0.0
O471 O 0.37793 0.87809 0.29634 0.0
O472 O 0.39841 0.82615 0.37681 0.0
O473 O 0.42581 0.79549 0.30005 0.0
O474 O 0.42539 0.89408 0.25634 0.0
O475 O 0.37842 0.83093 0.15301 0.0
C476 C 0.31336 0.75737 0.28442 0.0
C477 C 0.31629 0.03737 0.49716 0.0
C478 C 0.359 0.04763 0.51185 0.0
C479 C 0.30199 0.82367 0.41943 0.0
C480 C 0.28008 0.79261 0.4479 0.0
C481 C 0.24985 0.81307 0.47283 0.0
C482 C 0.28558 0.74275 0.44709 0.0
C483 C 0.25874 0.712 0.47155 0.0
C484 C 0.22532 0.78391 0.49948 0.0
C485 C 0.22704 0.73245 0.49537 0.0
C486 C 0.2877 0.85931 0.22413 0.0
C487 C 0.41247 0.91038 0.29963 0.0
C488 C 0.41973 0.84379 0.16052 0.0
C489 C 0.44139 0.87696 0.13397 0.0
C490 C 0.47294 0.86037 0.10823 0.0
C491 C 0.42962 0.92256 0.1316 0.0
C492 C 0.4484 0.95102 0.09972 0.0
C493 C 0.49192 0.88972 0.07713 0.0
C494 C 0.48209 0.93683 0.07657 0.0
C495 C 0.42842 0.80506 0.3542 0.0
H496 H 0.24708 0.85291 0.47462 0.0
H497 H 0.31202 0.73005 0.43124 0.0
H498 H 0.20925 0.80353 0.52816 0.0
H499 H 0.20959 0.71457 0.52103 0.0
H500 H 0.4803 0.82307 0.10885 0.0
H501 H 0.40221 0.93134 0.1483 0.0
H502 H 0.50885 0.87278 0.04795 0.0
H503 H 0.4947 0.95534 0.04967 0.0
Gd504 Gd 0.56976 0.08629 0.57529 0.0
Gd505 Gd 0.64371 0.07309 0.49607 0.0
C506 C 0.72483 0.23076 0.49414 0.0
C507 C 0.72578 0.21599 0.40187 0.0
C508 C 0.68371 0.14867 0.43283 0.0
C509 C 0.69866 0.1791 0.48402 0.0
C510 C 0.69741 0.16757 0.39164 0.0
C511 C 0.73599 0.25026 0.45211 0.0
C512 C 0.73758 0.26172 0.54551 0.0
C513 C 0.7207 0.24224 0.58511 0.0
N514 N 0.68543 0.15978 0.52348 0.0
C515 C 0.69632 0.19057 0.57343 0.0
H516 H 0.68263 0.1775 0.60419 0.0
C517 C 0.64067 0.07051 0.37293 0.0
N518 N 0.65545 0.10128 0.4229 0.0
C519 C 0.65418 0.08829 0.33063 0.0
C520 C 0.68138 0.13814 0.3405 0.0
H521 H 0.61929 0.03192 0.36632 0.0
H522 H 0.75282 0.29097 0.45797 0.0
H523 H 0.52718 0.9804 0.46594 0.0
H524 H 0.75815 0.30104 0.55391 0.0
H525 H 0.72446 0.26583 0.62475 0.0
H526 H 0.73921 0.22494 0.3694 0.0
H527 H 0.5963 0.1302 0.70611 0.0
H528 H 0.46139 0.85571 0.52411 0.0
H529 H 0.48792 0.89071 0.45055 0.0
H530 H 0.47889 0.93752 0.70646 0.0
H531 H 0.64252 0.06483 0.29083 0.0
H532 H 0.68779 0.15554 0.30872 0.0
H533 H 0.46638 0.86879 0.61923 0.0
H534 H 0.57548 0.09744 0.78257 0.0
N535 N 0.53 0.99855 0.54941 0.0
C536 C 0.48102 0.89537 0.53109 0.0
C537 C 0.49378 0.91508 0.48997 0.0
C538 C 0.4947 0.92731 0.58168 0.0
C539 C 0.51954 0.97939 0.5902 0.0
C540 C 0.51737 0.96699 0.49951 0.0
N541 N 0.56102 0.05951 0.65023 0.0
C542 C 0.53448 1.01107 0.64118 0.0
C543 C 0.56379 0.07338 0.74298 0.0
C544 C 0.5375 0.0232 0.73395 0.0
C545 C 0.57593 0.09106 0.7001 0.0
C546 C 0.52153 0.99287 0.68311 0.0
H547 H 0.53177 1.00641 0.76618 0.0
O548 O 0.53405 0.12341 0.63242 0.0
O549 O 0.61622 0.13985 0.54119 0.0
O550 O 0.67738 0.07645 0.57162 0.0
O551 O 0.62729 0.08353 0.62586 0.0
O552 O 0.5946 0.17714 0.60297 0.0
O553 O 0.51317 0.10535 0.54803 0.0
O554 O 0.67838 0.03286 0.44083 0.0
O555 O 0.59591 1.01808 0.52766 0.0
O556 O 0.53348 0.07611 0.50029 0.0
O557 O 0.58368 0.07424 0.44452 0.0
O558 O 0.62198 0.9838 0.46863 0.0
O559 O 0.70353 0.062 0.52497 0.0
C560 C 0.61483 0.18878 0.56616 0.0
C561 C 0.4932 0.94475 0.6739 0.0
C562 C 0.48345 0.90925 0.62434 0.0
C563 C 0.50753 0.1269 0.5952 0.0
C564 C 0.47232 0.15038 0.60453 0.0
C565 C 0.45631 0.15152 0.6518 0.0
C566 C 0.4533 0.16939 0.56566 0.0
C567 C 0.41718 0.18744 0.57398 0.0
C568 C 0.4201 0.1685 0.65941 0.0
C569 C 0.40021 0.18504 0.62046 0.0
C570 C 0.66449 0.07603 0.61617 0.0
C571 C 0.59962 0.96991 0.50259 0.0
C572 C 0.70778 0.03642 0.47843 0.0
C573 C 0.74405 1.01548 0.4692 0.0
C574 C 0.75908 1.01589 0.42168 0.0
C575 C 0.76363 0.99505 0.50652 0.0
C576 C 0.79842 0.97499 0.49493 0.0
C577 C 0.79416 0.99772 0.41137 0.0
C578 C 0.81368 0.97791 0.44753 0.0
C579 C 0.54552 0.07818 0.4556 0.0
H580 H 0.47074 0.13714 0.68201 0.0
H581 H 0.46529 0.1679 0.52864 0.0
H582 H 0.40616 0.16633 0.69449 0.0
H583 H 0.37005 0.19279 0.62586 0.0
H584 H 0.74431 0.0316 0.39287 0.0
H585 H 0.75216 0.99503 0.54368 0.0
H586 H 0.80708 1.00027 0.37572 0.0
H587 H 0.84193 0.96778 0.43818 0.0
Gd588 Gd 0.40423 0.31008 0.78233 0.0
Gd589 Gd 0.31596 0.35408 0.79418 0.0
C590 C 0.2312 0.29517 0.63737 0.0
C591 C 0.22925 0.3747 0.61337 0.0
C592 C 0.26793 0.37787 0.69698 0.0
C593 C 0.25657 0.32363 0.68512 0.0
C594 C 0.25696 0.40333 0.65901 0.0
C595 C 0.214 0.32071 0.60431 0.0
C596 C 0.233 0.24428 0.61729 0.0
C597 C 0.26344 0.22451 0.63839 0.0
N598 N 0.27811 0.29918 0.71325 0.0
C599 C 0.28185 0.24955 0.6897 0.0
H600 H 0.30256 0.23091 0.70697 0.0
C601 C 0.30773 0.45916 0.75216 0.0
N602 N 0.2952 0.4052 0.741 0.0
C603 C 0.30066 0.48481 0.71378 0.0
C604 C 0.27625 0.45655 0.66638 0.0
H605 H 0.32381 0.483 0.79009 0.0
H606 H 0.1961 0.29887 0.56689 0.0
H607 H 0.43826 0.38304 0.85127 0.0
H608 H 0.21142 0.22048 0.58529 0.0
H609 H 0.26842 0.18659 0.6187 0.0
H610 H 0.22128 0.39368 0.58349 0.0
H611 H 0.39423 0.17969 0.78233 0.0
H612 H 0.5095 0.4336 0.99291 0.0
H613 H 0.46158 0.47713 0.95582 0.0
H614 H 0.49381 0.26076 0.99177 0.0
H615 H 0.31326 0.52654 0.72083 0.0
H616 H 0.27047 0.477 0.6368 0.0
H617 H 0.52128 0.35566 0.01043 0.0
H618 H 0.40185 0.13311 0.85008 0.0
N619 N 0.44479 0.36336 0.86192 0.0
C620 C 0.49074 0.41407 0.95777 0.0
C621 C 0.4641 0.43824 0.93519 0.0
C622 C 0.48895 0.36196 0.93914 0.0
C623 C 0.46374 0.3351 0.89171 0.0
C624 C 0.44275 0.41531 0.88444 0.0
N625 N 0.42312 0.25606 0.83404 0.0
C626 C 0.45004 0.28129 0.87889 0.0
C627 C 0.41546 0.17462 0.85834 0.0
C628 C 0.43965 0.20084 0.90637 0.0
C629 C 0.4101 0.20201 0.82096 0.0
C630 C 0.45948 0.25408 0.91592 0.0
H631 H 0.44458 0.17889 0.93487 0.0
O632 O 0.4442 0.25854 0.75461 0.0
O633 O 0.35343 0.32523 0.73193 0.0
O634 O 0.29436 0.26744 0.80602 0.0
O635 O 0.34786 0.23085 0.78191 0.0
O636 O 0.38749 0.27957 0.69362 0.0
O637 O 0.45956 0.3408 0.74931 0.0
O638 O 0.27833 0.40591 0.82409 0.0
O639 O 0.36842 0.34264 0.84552 0.0
O640 O 0.42274 0.39822 0.7713 0.0
O641 O 0.37121 0.43589 0.80192 0.0
O642 O 0.32739 0.37602 0.88332 0.0
O643 O 0.25746 0.32043 0.81938 0.0
C644 C 0.36018 0.30494 0.68445 0.0
C645 C 0.48675 0.281 0.96248 0.0
C646 C 0.50352 0.33485 0.97263 0.0
C647 C 0.46831 0.29493 0.73799 0.0
C648 C 0.50483 0.28634 0.71271 0.0
C649 C 0.52284 0.24792 0.7257 0.0
C650 C 0.52351 0.31665 0.67938 0.0
C651 C 0.56242 0.31087 0.66361 0.0
C652 C 0.5587 0.23912 0.70678 0.0
C653 C 0.57882 0.27108 0.67794 0.0
C654 C 0.30928 0.22386 0.79821 0.0
C655 C 0.35994 0.35947 0.89304 0.0
C656 C 0.25145 0.36772 0.8349 0.0
C657 C 0.21484 0.37744 0.85671 0.0
C658 C 0.198 0.4159 0.84174 0.0
C659 C 0.19641 0.34944 0.89125 0.0
C660 C 0.1608 0.36134 0.91105 0.0
C661 C 0.16395 0.42853 0.86239 0.0
C662 C 0.14594 0.4019 0.8965 0.0
C663 C 0.40897 0.44275 0.78389 0.0
H664 H 0.50978 0.22515 0.75194 0.0
H665 H 0.51083 0.34862 0.67262 0.0
H666 H 0.57318 0.21047 0.71867 0.0
H667 H 0.61005 0.26815 0.67482 0.0
H668 H 0.21103 0.43618 0.81364 0.0
H669 H 0.20729 0.31611 0.89799 0.0
H670 H 0.14977 0.45685 0.84936 0.0
H671 H 0.11608 0.40765 0.90265 0.0
Gd672 Gd 0.11952 0.02606 0.50333 0.0
Gd673 Gd 0.09818 0.13589 0.56364 0.0
C674 C 0.17088 0.22322 0.72732 0.0
C675 C 0.12047 0.26104 0.77152 0.0
C676 C 0.10091 0.20116 0.68337 0.0
C677 C 0.14157 0.19986 0.68157 0.0
C678 C 0.08959 0.22913 0.73017 0.0
C679 C 0.16106 0.2557 0.77127 0.0
C680 C 0.20671 0.20649 0.73112 0.0
C681 C 0.21334 0.16677 0.69153 0.0
N682 N 0.15023 0.16592 0.63962 0.0
C683 C 0.18788 0.15336 0.64321 0.0
H684 H 0.19802 0.13139 0.60915 0.0
C685 C 0.03192 0.15078 0.65457 0.0
N686 N 0.07205 0.1655 0.64448 0.0
C687 C 0.0205 0.1731 0.70281 0.0
C688 C 0.04829 0.21579 0.73854 0.0
H689 H 1.00744 0.12279 0.62616 0.0
H690 H 0.18283 0.27077 0.80707 0.0
H691 H 0.0569 1.00521 0.4465 0.0
H692 H 0.2292 0.22565 0.76434 0.0
H693 H 0.24111 0.15194 0.69535 0.0
H694 H 0.11229 0.28366 0.80643 0.0
H695 H 0.20971 0.03886 0.43985 0.0
H696 H 0.99292 0.93351 0.29877 0.0
H697 H 0.98154 1.00931 0.36668 0.0
H698 H 0.10851 0.87114 0.26258 0.0
H699 H 0.98879 0.16005 0.71059 0.0
H700 H 0.0384 0.23451 0.7746 0.0
H701 H 0.03871 0.88866 0.2594 0.0
H702 H 0.22993 0.99845 0.35769 0.0
N703 N 0.06737 0.99073 0.42746 0.0
C704 C 0.0143 0.95162 0.33344 0.0
C705 C 1.00833 0.99334 0.37151 0.0
C706 C 0.04887 0.93277 0.33897 0.0
C707 C 0.0772 0.95486 0.38507 0.0
C708 C 0.03173 1.00921 0.42111 0.0
N709 N 0.14599 0.99306 0.42279 0.0
C710 C 0.11804 0.95488 0.3846 0.0
C711 C 0.19824 0.98492 0.36528 0.0
C712 C 0.17145 0.9405 0.33066 0.0
C713 C 0.18592 1.00882 0.41241 0.0
C714 C 0.13013 0.92652 0.33857 0.0
H715 H 0.18191 0.92122 0.29529 0.0
O716 O 0.14874 0.96082 0.49699 0.0
O717 O 0.12723 0.0719 0.58911 0.0
O718 O 0.15825 0.16258 0.52315 0.0
O719 O 0.1837 0.08995 0.50089 0.0
O720 O 0.1611 1.01908 0.57788 0.0
O721 O 0.08145 0.95104 0.50332 0.0
O722 O 0.07161 0.20279 0.57602 0.0
O723 O 0.08833 0.09127 0.47698 0.0
O724 O 0.05986 1.00088 0.54472 0.0
O725 O 0.03377 0.0731 0.56398 0.0
O726 O 0.05355 0.14193 0.49279 0.0
O727 O 0.13812 0.21013 0.56505 0.0
C728 C 0.14957 0.0484 0.61765 0.0
C729 C 0.09974 0.89421 0.29684 0.0
C730 C 0.05939 0.9008 0.29563 0.0
C731 C 0.11299 0.92951 0.50081 0.0
C732 C 0.11422 0.89205 0.53151 0.0
C733 C 0.13381 0.85329 0.5094 0.0
C734 C 0.08989 0.88643 0.57294 0.0
C735 C 0.08772 0.84195 0.59328 0.0
C736 C 0.13315 0.8117 0.531 0.0
C737 C 0.11516 0.81001 0.57602 0.0
C738 C 0.18985 0.14249 0.50589 0.0
C739 C 0.06276 0.11383 0.45035 0.0
C740 C 0.10746 0.2332 0.5714 0.0
C741 C 0.10493 0.2707 0.54189 0.0
C742 C 0.08423 0.30801 0.56432 0.0
C743 C 0.12907 0.27757 0.50094 0.0
C744 C 0.13005 0.3216 0.48089 0.0
C745 C 0.08327 0.34906 0.54258 0.0
C746 C 0.10009 0.35065 0.49672 0.0
C747 C 0.02796 0.0211 0.56031 0.0
H748 H 0.1486 0.85424 0.47438 0.0
H749 H 0.07014 0.913 0.58528 0.0
H750 H 0.14482 0.77898 0.5117 0.0
H751 H 0.12271 0.78229 0.5957 0.0
H752 H 0.06999 0.3064 0.59963 0.0
H753 H 0.15036 0.25288 0.48936 0.0
H754 H 0.07192 0.3815 0.56279 0.0
H755 H 0.09076 0.37729 0.47673 0.0
Gd756 Gd 0.3186 0.80957 0.81565 0.0
Gd757 Gd 0.40186 0.8535 0.75865 0.0
C758 C 0.39355 1.01088 0.7216 0.0
C759 C 0.4067 0.99419 0.63258 0.0
C760 C 0.39485 0.92234 0.67539 0.0
C761 C 0.39471 0.95847 0.72196 0.0
C762 C 0.39823 0.94001 0.62938 0.0
C763 C 0.4029 0.02931 0.67826 0.0
C764 C 0.38466 0.04433 0.76534 0.0
C765 C 0.37995 0.02687 0.80978 0.0
N766 N 0.39282 0.94237 0.76654 0.0
C767 C 0.38446 0.97683 0.80961 0.0
H768 H 0.37013 0.96374 0.83952 0.0
C769 C 0.38771 0.83438 0.62682 0.0
N770 N 0.39153 0.87058 0.67443 0.0
C771 C 0.38611 0.84968 0.57985 0.0
C772 C 0.39275 0.90301 0.5813 0.0
H773 H 0.38881 0.79395 0.62394 0.0
H774 H 0.40536 0.07021 0.6791 0.0
H775 H 0.31044 0.68126 0.723 0.0
H776 H 0.38093 0.08321 0.76458 0.0
H777 H 0.36998 0.05005 0.84339 0.0
H778 H 0.41296 1.00894 0.59895 0.0
H779 H 0.33014 0.8665 0.94913 0.0
H780 H 0.34311 0.58065 0.80386 0.0
H781 H 0.34103 0.61005 0.72194 0.0
H782 H 0.30756 0.64985 0.97038 0.0
H783 H 0.38296 0.82071 0.54278 0.0
H784 H 0.39419 0.91529 0.54521 0.0
H785 H 0.31664 0.59069 0.88901 0.0
H786 H 0.33552 0.83803 0.02993 0.0
N787 N 0.32542 0.71954 0.80449 0.0
C788 C 0.33863 0.61948 0.80416 0.0
C789 C 0.33815 0.63599 0.75866 0.0
C790 C 0.32934 0.65161 0.84867 0.0
C791 C 0.32754 0.70399 0.84942 0.0
C792 C 0.32642 0.68262 0.75896 0.0
N793 N 0.32834 0.79063 0.89837 0.0
C794 C 0.3264 0.73898 0.89639 0.0
C795 C 0.33301 0.80978 0.99257 0.0
C796 C 0.32704 0.75622 0.9901 0.0
C797 C 0.3314 0.82603 0.94612 0.0
C798 C 0.32255 0.72008 0.94162 0.0
H799 H 0.32525 0.74309 0.02572 0.0
O800 O 0.26564 0.80412 0.8614 0.0
O801 O 0.3368 0.87906 0.77791 0.0
O802 O 0.41944 0.90333 0.84041 0.0
O803 O 0.35945 0.87708 0.87521 0.0
O804 O 0.28568 0.8781 0.81509 0.0
O805 O 0.25649 0.79551 0.7774 0.0
O806 O 0.45362 0.85601 0.71048 0.0
O807 O 0.38177 0.78372 0.79643 0.0
O808 O 0.30385 0.76738 0.73076 0.0
O809 O 0.3676 0.78403 0.7015 0.0
O810 O 0.43314 0.78332 0.76149 0.0
O811 O 0.46468 0.86894 0.79482 0.0
C812 C 0.30434 0.90458 0.78513 0.0
C813 C 0.31439 0.66563 0.93722 0.0
C814 C 0.31922 0.63176 0.89109 0.0
C815 C 0.23883 0.79522 0.81922 0.0
C816 C 0.19237 0.78692 0.81557 0.0
C817 C 0.17029 0.77764 0.85681 0.0
C818 C 0.16898 0.78542 0.76805 0.0
C819 C 0.12578 0.76366 0.75779 0.0
C820 C 0.12665 0.75834 0.84797 0.0
C821 C 0.10456 0.74983 0.79827 0.0
C822 C 0.39687 0.90674 0.87828 0.0
C823 C 0.41268 0.75655 0.79003 0.0
C824 C 0.48139 0.86712 0.75212 0.0
C825 C 0.52788 0.87557 0.75414 0.0
C826 C 0.54923 0.88266 0.71167 0.0
C827 C 0.55214 0.87961 0.80159 0.0
C828 C 0.59524 0.90191 0.81065 0.0
C829 C 0.59274 0.90356 0.71946 0.0
C830 C 0.61558 0.91496 0.76923 0.0
C831 C 0.32925 0.75898 0.69623 0.0
H832 H 0.18627 0.78666 0.89607 0.0
H833 H 0.18418 0.80207 0.73909 0.0
H834 H 0.10994 0.75028 0.87975 0.0
H835 H 0.07074 0.73444 0.79204 0.0
H836 H 0.53291 0.87075 0.6724 0.0
H837 H 0.53768 0.86363 0.83134 0.0
H838 H 0.60878 0.91035 0.68677 0.0
H839 H 0.64923 0.93148 0.77464 0.0
Gd840 Gd 0.60567 0.10208 0.97857 0.0
Gd841 Gd 0.61476 0.05988 0.0897 0.0
C842 C 0.71877 0.13231 0.2237 0.0
C843 C 0.73249 0.05399 0.24271 0.0
C844 C 0.68906 0.04893 0.16212 0.0
C845 C 0.6902 0.10135 0.18025 0.0
C846 C 0.70688 0.02389 0.19573 0.0
C847 C 0.73918 0.10858 0.25588 0.0
C848 C 0.72571 0.1861 0.23387 0.0
C849 C 0.70287 0.20783 0.20193 0.0
N850 N 0.66307 0.12206 0.15575 0.0
C851 C 0.66834 0.17513 0.16679 0.0
H852 H 0.65419 0.19089 0.13862 0.0
C853 C 0.65791 0.9673 0.10102 0.0
N854 N 0.66519 0.02085 0.11584 0.0
C855 C 0.66864 0.94071 0.13701 0.0
C856 C 0.69309 0.96921 0.18478 0.0
H857 H 0.63722 0.94544 0.06547 0.0
H858 H 0.7565 0.13166 0.29327 0.0
H859 H 0.56933 0.97419 0.92625 0.0
H860 H 0.7506 0.20874 0.26425 0.0
H861 H 0.71453 0.24738 0.19834 0.0
H862 H 0.74568 0.03545 0.27004 0.0
H863 H 0.5822 0.2179 0.0072 0.0
H864 H 0.46955 0.95623 0.80474 0.0
H865 H 0.50662 0.91713 0.87061 0.0
H866 H 0.47286 0.13007 0.8034 0.0
H867 H 0.65681 0.89832 0.12864 0.0
H868 H 0.70108 0.94852 0.21318 0.0
H869 H 0.46247 0.03388 0.77964 0.0
H870 H 0.56264 0.26626 0.94449 0.0
N871 N 0.55513 0.04219 0.91535 0.0
C872 C 0.49269 0.97887 0.83739 0.0
C873 C 0.51654 0.95712 0.86801 0.0
C874 C 0.4985 0.03255 0.84941 0.0
C875 C 0.52711 0.06303 0.89293 0.0
C876 C 0.5516 0.98975 0.90154 0.0
N877 N 0.55471 0.14324 0.95621 0.0
C878 C 0.52944 0.11561 0.91086 0.0
C879 C 0.55106 0.22381 0.93582 0.0
C880 C 0.52609 0.19568 0.88829 0.0
C881 C 0.56181 0.19677 0.97149 0.0
C882 C 0.51172 0.14108 0.87751 0.0
H883 H 0.51788 0.21661 0.86018 0.0
O884 O 0.63539 0.17552 0.96541 0.0
O885 O 0.6393 0.12449 0.05848 0.0
O886 O 0.5746 0.11788 0.11726 0.0
O887 O 0.56175 0.13379 0.03607 0.0
O888 O 0.67511 0.1277 0.99883 0.0
O889 O 0.61609 0.10091 0.90028 0.0
O890 O 0.58195 0.98587 0.10053 0.0
O891 O 0.58188 0.03524 0.00849 0.0
O892 O 0.64626 0.04584 0.95077 0.0
O893 O 0.65808 0.02454 0.02998 0.0
O894 O 0.54585 0.03375 0.06881 0.0
O895 O 0.60246 0.05919 0.16696 0.0
C896 C 0.6762 0.13382 0.04808 0.0
C897 C 0.48562 0.11128 0.83079 0.0
C898 C 0.47859 0.05667 0.81748 0.0
C899 C 0.62947 0.15271 0.915 0.0
C900 C 0.65642 0.17684 0.88568 0.0
C901 C 0.64565 0.21927 0.87136 0.0
C902 C 0.6921 0.16038 0.87312 0.0
C903 C 0.71898 0.18967 0.84748 0.0
C904 C 0.67237 0.24854 0.84656 0.0
C905 C 0.70908 0.23467 0.83618 0.0
C906 C 0.55267 0.13629 0.08508 0.0
C907 C 0.54509 0.02528 0.0194 0.0
C908 C 0.58737 1.00771 0.151 0.0
C909 C 0.56054 0.98368 0.18075 0.0
C910 C 0.57123 0.94135 0.19553 0.0
C911 C 0.52721 1.00342 0.19738 0.0
C912 C 0.50409 0.9794 0.23004 0.0
C913 C 0.54723 0.91637 0.22626 0.0
C914 C 0.51369 0.93493 0.24276 0.0
C915 C 0.66767 0.02512 0.98115 0.0
H916 H 0.61707 0.23056 0.88026 0.0
H917 H 0.69757 0.12403 0.88066 0.0
H918 H 0.66457 0.28174 0.8349 0.0
H919 H 0.72684 0.25741 0.81503 0.0
H920 H 0.59813 0.92753 0.18344 0.0
H921 H 0.52213 0.03975 0.18932 0.0
H922 H 0.55537 0.88379 0.23881 0.0
H923 H 0.49886 0.91723 0.26982 0.0
Gd924 Gd 0.33188 0.2658 0.26845 0.0
Gd925 Gd 0.38616 0.38942 0.30455 0.0
C926 C 0.51357 0.45737 0.256 0.0
C927 C 0.54373 0.52184 0.33678 0.0
C928 C 0.47782 0.45627 0.33027 0.0
C929 C 0.47808 0.43862 0.27942 0.0
C930 C 0.50945 0.49854 0.3589 0.0
C931 C 0.5471 0.49859 0.28547 0.0
C932 C 0.51385 0.43426 0.20388 0.0
C933 C 0.47913 0.3946 0.17688 0.0
N934 N 0.44506 0.39882 0.25441 0.0
C935 C 0.44573 0.37758 0.20282 0.0
H936 H 0.42269 0.34413 0.18166 0.0
C937 C 0.45186 0.43591 0.405 0.0
N938 N 0.44912 0.42708 0.35303 0.0
C939 C 0.483 0.47572 0.4342 0.0
C940 C 0.51096 0.50747 0.41064 0.0
H941 H 0.42921 0.41527 0.42437 0.0
H942 H 0.57486 0.5131 0.26887 0.0
H943 H 0.29618 0.31486 0.39462 0.0
H944 H 0.54034 0.44654 0.18422 0.0
H945 H 0.47835 0.37537 0.13609 0.0
H946 H 0.56908 0.55429 0.35997 0.0
H947 H 0.29098 0.23814 0.14622 0.0
H948 H 0.1756 0.2159 0.38755 0.0
H949 H 0.23735 0.28601 0.43678 0.0
H950 H 0.1475 0.10846 0.21186 0.0
H951 H 0.48634 0.47658 0.47397 0.0
H952 H 0.54043 0.52876 0.43029 0.0
H953 H 0.14123 0.15005 0.30253 0.0
H954 H 0.23257 0.18194 0.09823 0.0
N955 N 0.27298 0.26091 0.31945 0.0
C956 C 0.20246 0.22788 0.36838 0.0
C957 C 0.23722 0.26705 0.39607 0.0
C958 C 0.20297 0.20501 0.31616 0.0
C959 C 0.23875 0.22346 0.29313 0.0
C960 C 0.27204 0.28252 0.3714 0.0
N961 N 0.26912 0.23293 0.21905 0.0
C962 C 0.2391 0.20581 0.24189 0.0
C963 C 0.23602 0.18258 0.13798 0.0
C964 C 0.2073 0.15241 0.16151 0.0
C965 C 0.26766 0.22118 0.16696 0.0
C966 C 0.20742 0.1635 0.2132 0.0
H967 H 0.17875 0.13086 0.14077 0.0
O968 O 0.33138 0.19175 0.22186 0.0
O969 O 0.40014 0.3091 0.27483 0.0
O970 O 0.3585 0.38997 0.22269 0.0
O971 O 0.34302 0.3016 0.19082 0.0
O972 O 0.37845 0.23878 0.21729 0.0
O973 O 0.31578 0.19519 0.29904 0.0
O974 O 0.39592 0.46718 0.35213 0.0
O975 O 0.32153 0.3449 0.30802 0.0
O976 O 0.36341 0.2641 0.34625 0.0
O977 O 0.37252 0.35153 0.38216 0.0
O978 O 0.3381 0.42293 0.34778 0.0
O979 O 0.38651 0.45291 0.26706 0.0
C980 C 0.41063 0.27783 0.2344 0.0
C981 C 0.1726 0.14118 0.2349 0.0
C982 C 0.16916 0.16444 0.28618 0.0
C983 C 0.31606 0.16466 0.25311 0.0
C984 C 0.32819 0.11605 0.24953 0.0
C985 C 0.30803 0.07064 0.20911 0.0
C986 C 0.36172 0.11588 0.28394 0.0
C987 C 0.37571 0.07076 0.27783 0.0
C988 C 0.32479 0.02675 0.19975 0.0
C989 C 0.35836 0.02614 0.23502 0.0
C990 C 0.35177 0.35033 0.18117 0.0
C991 C 0.30716 0.38234 0.33667 0.0
C992 C 0.39798 0.4881 0.31267 0.0
C993 C 0.38766 0.53801 0.31908 0.0
C994 C 0.40913 0.58226 0.35999 0.0
C995 C 0.35602 0.54137 0.28403 0.0
C996 C 0.34272 0.58667 0.2923 0.0
C997 C 0.39431 0.6277 0.37014 0.0
C998 C 0.36098 0.63029 0.33577 0.0
C999 C 0.36531 0.30096 0.38884 0.0
H1000 H 0.27928 0.06848 0.18521 0.0
H1001 H 0.37622 0.15032 0.31621 0.0
H1002 H 0.31051 0.99262 0.16724 0.0
H1003 H 0.36991 0.99073 0.22991 0.0
H1004 H 0.43762 0.58249 0.38312 0.0
H1005 H 0.34072 0.50821 0.25082 0.0
H1006 H 0.40947 0.66111 0.40297 0.0
H1007 H 0.3506 0.66645 0.34252 0.0
Gd1008 Gd 0.61952 0.52606 0.00335 0.0
Gd1009 Gd 0.59819 0.63596 0.06363 0.0
C1010 C 0.67087 0.72321 0.2273 0.0
C1011 C 0.62047 0.76103 0.27153 0.0
C1012 C 0.60091 0.70117 0.18337 0.0
C1013 C 0.64156 0.69985 0.18157 0.0
C1014 C 0.58959 0.72914 0.23017 0.0
C1015 C 0.66107 0.7557 0.27126 0.0
C1016 C 0.70672 0.70651 0.23105 0.0
C1017 C 0.71333 0.66674 0.19151 0.0
N1018 N 0.65022 0.66592 0.13961 0.0
C1019 C 0.68785 0.65332 0.1432 0.0
H1020 H 0.69799 0.63135 0.10914 0.0
C1021 C 0.53192 0.6508 0.15457 0.0
N1022 N 0.57205 0.66553 0.14448 0.0
C1023 C 0.52049 0.67312 0.20282 0.0
C1024 C 0.54829 0.71581 0.23854 0.0
H1025 H 0.50744 0.62281 0.12616 0.0
H1026 H 0.68285 0.77077 0.30705 0.0
H1027 H 0.55688 0.50522 0.94652 0.0
H1028 H 0.7293 0.72586 0.26411 0.0
H1029 H 0.74111 0.65194 0.19532 0.0
H1030 H 0.6123 0.78364 0.30645 0.0
H1031 H 0.70971 0.53886 0.93988 0.0
H1032 H 0.49288 0.43338 0.79878 0.0
H1033 H 0.48155 0.50931 0.86667 0.0
H1034 H 0.6085 0.37117 0.76259 0.0
H1035 H 0.48879 0.66007 0.21059 0.0
H1036 H 0.5384 0.73453 0.27461 0.0
H1037 H 0.53867 0.38864 0.75947 0.0
H1038 H 0.72993 0.49847 0.85771 0.0
N1039 N 0.56736 0.49074 0.92748 0.0
C1040 C 0.51428 0.45157 0.83345 0.0
C1041 C 0.50833 0.49333 0.8715 0.0
C1042 C 0.54886 0.43275 0.83901 0.0
C1043 C 0.5772 0.45486 0.88509 0.0
C1044 C 0.53172 0.50922 0.92111 0.0
N1045 N 0.64599 0.49307 0.92281 0.0
C1046 C 0.61803 0.4549 0.88462 0.0
C1047 C 0.69824 0.48493 0.8653 0.0
C1048 C 0.67145 0.44053 0.83067 0.0
C1049 C 0.68592 0.50883 0.91243 0.0
C1050 C 0.63012 0.42654 0.83858 0.0
H1051 H 0.68191 0.42125 0.79529 0.0
O1052 O 0.64873 0.46082 0.99701 0.0
O1053 O 0.62725 0.57192 0.08912 0.0
O1054 O 0.65826 0.6626 0.02315 0.0
O1055 O 0.6837 0.58996 0.00092 0.0
O1056 O 0.66107 0.519 0.07787 0.0
O1057 O 0.58145 0.45105 0.00334 0.0
O1058 O 0.57166 0.70286 0.07605 0.0
O1059 O 0.58832 0.59127 0.977 0.0
O1060 O 0.55986 0.5009 0.04475 0.0
O1061 O 0.53378 0.57312 0.06397 0.0
O1062 O 0.55354 0.64194 0.9928 0.0
O1063 O 0.63807 0.71032 0.06471 0.0
C1064 C 0.64953 0.54832 0.11762 0.0
C1065 C 0.59973 0.39423 0.79686 0.0
C1066 C 0.55938 0.40078 0.79567 0.0
C1067 C 0.61299 0.42952 0.00083 0.0
C1068 C 0.61422 0.39206 0.03155 0.0
C1069 C 0.63382 0.35331 0.00946 0.0
C1070 C 0.58988 0.38645 0.07297 0.0
C1071 C 0.58772 0.34197 0.09333 0.0
C1072 C 0.63316 0.31173 0.03107 0.0
C1073 C 0.61516 0.31005 0.07608 0.0
C1074 C 0.68985 0.6425 0.00589 0.0
C1075 C 0.56276 0.61384 0.95036 0.0
C1076 C 0.60739 0.73336 0.07127 0.0
C1077 C 0.60455 0.77106 0.04198 0.0
C1078 C 0.58389 0.80826 0.06475 0.0
C1079 C 0.62818 0.77803 0.00067 0.0
C1080 C 0.6287 0.82191 0.98052 0.0
C1081 C 0.58233 0.84916 0.04294 0.0
C1082 C 0.59861 0.85082 0.99666 0.0
C1083 C 0.52796 0.52112 0.06032 0.0
H1084 H 0.64861 0.35426 0.97444 0.0
H1085 H 0.57013 0.41301 0.0853 0.0
H1086 H 0.64484 0.27902 0.01179 0.0
H1087 H 0.62271 0.28233 0.09577 0.0
H1088 H 0.57026 0.80677 0.1005 0.0
H1089 H 0.64963 0.75363 0.98896 0.0
H1090 H 0.57151 0.88178 0.06383 0.0
H1091 H 0.58955 0.87824 0.97744 0.0
Gd1092 Gd 0.81862 0.30956 0.31575 0.0
Gd1093 Gd 0.90196 0.3534 0.25853 0.0
C1094 C 0.89351 0.51083 0.22161 0.0
C1095 C 0.90671 0.4942 0.13261 0.0
C1096 C 0.89486 0.42232 0.17539 0.0
C1097 C 0.8947 0.45844 0.22197 0.0
C1098 C 0.89823 0.44001 0.12938 0.0
C1099 C 0.9029 0.5293 0.17829 0.0
C1100 C 0.88453 0.54424 0.26532 0.0
C1101 C 0.87975 0.52674 0.30972 0.0
N1102 N 0.89284 0.44232 0.26655 0.0
C1103 C 0.88437 0.47673 0.30959 0.0
H1104 H 0.87002 0.46361 0.33948 0.0
C1105 C 0.8877 0.33436 0.12679 0.0
N1106 N 0.89155 0.37056 0.17439 0.0
C1107 C 0.8861 0.34968 0.07983 0.0
C1108 C 0.89275 0.40302 0.0813 0.0
H1109 H 0.88878 0.29392 0.1239 0.0
H1110 H 0.90536 0.5702 0.17914 0.0
H1111 H 0.81043 0.18126 0.22305 0.0
H1112 H 0.88077 0.5831 0.26454 0.0
H1113 H 0.8697 0.5499 0.34329 0.0
H1114 H 0.91299 0.50896 0.09899 0.0
H1115 H 0.83015 0.36644 0.44923 0.0
H1116 H 0.8431 0.08061 0.30388 0.0
H1117 H 0.84099 0.11001 0.22196 0.0
H1118 H 0.80755 0.14977 0.4704 0.0
H1119 H 0.88295 0.32072 0.04275 0.0
H1120 H 0.8942 0.41531 0.04522 0.0
H1121 H 0.81662 0.09063 0.38902 0.0
H1122 H 0.83552 0.33795 0.53002 0.0
N1123 N 0.82542 0.21952 0.30455 0.0
C1124 C 0.83862 0.11944 0.30418 0.0
C1125 C 0.83812 0.13596 0.25869 0.0
C1126 C 0.82934 0.15157 0.3487 0.0
C1127 C 0.82754 0.20395 0.34948 0.0
C1128 C 0.82641 0.1826 0.25901 0.0
N1129 N 0.82836 0.29059 0.39845 0.0
C1130 C 0.82641 0.23893 0.39645 0.0
C1131 C 0.83302 0.30972 0.49265 0.0
C1132 C 0.82704 0.25614 0.49017 0.0
C1133 C 0.83141 0.32598 0.44621 0.0
C1134 C 0.82256 0.22002 0.44168 0.0
H1135 H 0.82524 0.243 0.52578 0.0
O1136 O 0.76561 0.30417 0.36146 0.0
O1137 O 0.83698 0.37845 0.27742 0.0
O1138 O 0.91939 0.40334 0.34032 0.0
O1139 O 0.8595 0.37702 0.37531 0.0
O1140 O 0.78632 0.37872 0.31515 0.0
O1141 O 0.7565 0.29554 0.27748 0.0
O1142 O 0.9537 0.35595 0.21042 0.0
O1143 O 0.88179 0.28373 0.29648 0.0
O1144 O 0.80387 0.26737 0.23085 0.0
O1145 O 0.86761 0.28393 0.20148 0.0
O1146 O 0.93313 0.28317 0.26145 0.0
O1147 O 0.96473 0.36888 0.29479 0.0
C1148 C 0.80479 0.40427 0.28435 0.0
C1149 C 0.81439 0.16556 0.43725 0.0
C1150 C 0.81922 0.1317 0.39111 0.0
C1151 C 0.73881 0.29524 0.31926 0.0
C1152 C 0.69235 0.28693 0.31558 0.0
C1153 C 0.67027 0.27763 0.35681 0.0
C1154 C 0.66897 0.28541 0.26805 0.0
C1155 C 0.62577 0.26365 0.25778 0.0
C1156 C 0.62663 0.25834 0.34796 0.0
C1157 C 0.60454 0.24983 0.29826 0.0
C1158 C 0.89688 0.40672 0.37827 0.0
C1159 C 0.91266 0.2565 0.29006 0.0
C1160 C 0.98144 0.36707 0.25209 0.0
C1161 C 0.02791 0.37556 0.25414 0.0
C1162 C 0.04925 0.38266 0.21167 0.0
C1163 C 0.05215 0.37961 0.3016 0.0
C1164 C 0.09524 0.4019 0.31067 0.0
C1165 C 0.09275 0.40357 0.21947 0.0
C1166 C 0.11559 0.41496 0.26925 0.0
C1167 C 0.82924 0.25896 0.19626 0.0
H1168 H 0.68624 0.28663 0.39607 0.0
H1169 H 0.68418 0.30206 0.23909 0.0
H1170 H 0.60991 0.25027 0.37974 0.0
H1171 H 0.57073 0.23444 0.29202 0.0
H1172 H 0.03293 0.37074 0.17241 0.0
H1173 H 0.03768 0.36363 0.33136 0.0
H1174 H 0.10879 0.41037 0.18679 0.0
H1175 H 0.14923 0.43148 0.27466 0.0
Gd1176 Gd 0.10566 0.60206 0.47857 0.0
Gd1177 Gd 0.11477 0.55986 0.58971 0.0
C1178 C 0.21878 0.6323 0.72371 0.0
C1179 C 0.23252 0.55398 0.74272 0.0
C1180 C 0.18906 0.54893 0.66214 0.0
C1181 C 0.1902 0.60134 0.68027 0.0
C1182 C 0.2069 0.52388 0.69574 0.0
C1183 C 0.2392 0.60857 0.75588 0.0
C1184 C 0.22571 0.68609 0.73387 0.0
C1185 C 0.20286 0.70781 0.70193 0.0
N1186 N 0.16307 0.62204 0.65576 0.0
C1187 C 0.16833 0.6751 0.6668 0.0
H1188 H 0.15417 0.69086 0.63863 0.0
C1189 C 0.15794 0.46732 0.60103 0.0
N1190 N 0.1652 0.52086 0.61586 0.0
C1191 C 0.16865 0.44072 0.63701 0.0
C1192 C 0.19311 0.4692 0.68478 0.0
H1193 H 0.13729 0.4455 0.56545 0.0
H1194 H 0.25652 0.63165 0.79327 0.0
H1195 H 0.0693 0.47418 0.42626 0.0
H1196 H 0.25061 0.70873 0.76424 0.0
H1197 H 0.21451 0.74735 0.69833 0.0
H1198 H 0.24572 0.53544 0.77003 0.0
H1199 H 0.08217 0.71787 0.5072 0.0
H1200 H 0.96955 0.4562 0.30472 0.0
H1201 H 1.0066 0.41711 0.37061 0.0
H1202 H 0.97287 0.63004 0.30336 0.0
H1203 H 0.15684 0.39832 0.62863 0.0
H1204 H 0.20113 0.4485 0.71316 0.0
H1205 H 0.9624 0.53385 0.27966 0.0
H1206 H 0.06262 0.76624 0.44449 0.0
N1207 N 0.05512 0.54217 0.41534 0.0
C1208 C 0.99267 0.47884 0.33738 0.0
C1209 C 0.01652 0.4571 0.368 0.0
C1210 C 0.99847 0.53253 0.34941 0.0
C1211 C 0.02709 0.563 0.39292 0.0
C1212 C 0.05158 0.48973 0.40154 0.0
N1213 N 0.05469 0.64321 0.4562 0.0
C1214 C 0.02943 0.61558 0.41084 0.0
C1215 C 0.05104 0.72379 0.43582 0.0
C1216 C 0.0261 0.69565 0.38827 0.0
C1217 C 0.06179 0.69674 0.47148 0.0
C1218 C 0.01172 0.64106 0.37749 0.0
H1219 H 0.0179 0.71658 0.36016 0.0
O1220 O 0.13537 0.6755 0.46541 0.0
O1221 O 0.13929 0.62448 0.55848 0.0
O1222 O 0.0746 0.61786 0.61727 0.0
O1223 O 0.06174 0.63377 0.53607 0.0
O1224 O 0.17509 0.62769 0.49883 0.0
O1225 O 0.11609 0.60089 0.40028 0.0
O1226 O 0.08195 0.48584 0.60051 0.0
O1227 O 0.08188 0.53522 0.5085 0.0
O1228 O 0.14626 0.54583 0.45078 0.0
O1229 O 0.15811 0.52455 0.52998 0.0
O1230 O 0.04585 0.53373 0.56881 0.0
O1231 O 0.10245 0.55915 0.66696 0.0
C1232 C 0.17618 0.63382 0.54809 0.0
C1233 C 0.98561 0.61126 0.33078 0.0
C1234 C 0.97855 0.55664 0.31748 0.0
C1235 C 0.12946 0.65269 0.415 0.0
C1236 C 0.15641 0.67683 0.38568 0.0
C1237 C 0.14565 0.71926 0.37136 0.0
C1238 C 0.19209 0.66037 0.37311 0.0
C1239 C 0.21897 0.68965 0.34748 0.0
C1240 C 0.17237 0.74853 0.34657 0.0
C1241 C 0.20908 0.73467 0.3362 0.0
C1242 C 0.05267 0.63628 0.58508 0.0
C1243 C 0.04509 0.52526 0.5194 0.0
C1244 C 0.08737 0.50768 0.65099 0.0
C1245 C 0.06054 0.48364 0.68074 0.0
C1246 C 0.07123 0.4413 0.69551 0.0
C1247 C 0.02721 0.50337 0.69737 0.0
C1248 C 1.00409 0.47934 0.73003 0.0
C1249 C 0.04723 0.41631 0.72623 0.0
C1250 C 0.01369 0.43487 0.74274 0.0
C1251 C 0.1677 0.52512 0.48115 0.0
H1252 H 0.11707 0.73054 0.38027 0.0
H1253 H 0.19756 0.62401 0.38065 0.0
H1254 H 0.16457 0.78174 0.33492 0.0
H1255 H 0.22685 0.75741 0.31506 0.0
H1256 H 0.09813 0.4275 0.68341 0.0
H1257 H 0.02212 0.53971 0.68931 0.0
H1258 H 0.05537 0.38374 0.73877 0.0
H1259 H 0.99886 0.41717 0.7698 0.0
Gd1260 Gd 0.90415 0.80992 0.28228 0.0
Gd1261 Gd 0.81594 0.854 0.29419 0.0
C1262 C 0.73113 0.79515 0.13735 0.0
C1263 C 0.72922 0.87469 0.11337 0.0
C1264 C 0.76782 0.87782 0.19703 0.0
C1265 C 0.75649 0.82359 0.18513 0.0
C1266 C 0.7569 0.9033 0.15907 0.0
C1267 C 0.71393 0.8207 0.10428 0.0
C1268 C 0.73297 0.74427 0.11727 0.0
C1269 C 0.7634 0.72451 0.13839 0.0
N1270 N 0.77803 0.79915 0.21327 0.0
C1271 C 0.78179 0.74954 0.18971 0.0
H1272 H 0.80247 0.73089 0.20705 0.0
C1273 C 0.80757 0.95909 0.25229 0.0
N1274 N 0.79507 0.90513 0.24109 0.0
C1275 C 0.80058 0.98477 0.21391 0.0
C1276 C 0.77621 0.95652 0.16647 0.0
H1277 H 0.82364 0.98291 0.29023 0.0
H1278 H 0.69593 0.79887 0.06685 0.0
H1279 H 0.93821 0.88286 0.35126 0.0
H1280 H 0.71138 0.72046 0.08528 0.0
H1281 H 0.76839 0.68659 0.1187 0.0
H1282 H 0.72129 0.89371 0.0835 0.0
H1283 H 0.89461 0.67974 0.28202 0.0
H1284 H 1.00949 0.93357 0.49289 0.0
H1285 H 0.9616 0.97707 0.45572 0.0
H1286 H 0.99373 0.76069 0.49181 0.0
H1287 H 0.81319 0.02649 0.22097 0.0
H1288 H 0.77048 0.97699 0.13689 0.0
H1289 H 0.02121 0.85561 0.51051 0.0
H1290 H 0.90189 0.63307 0.34988 0.0
N1291 N 0.94478 0.86321 0.36189 0.0
C1292 C 0.99073 0.91401 0.45775 0.0
C1293 C 0.96411 0.93816 0.43512 0.0
C1294 C 0.98894 0.8619 0.43916 0.0
C1295 C 0.96379 0.83502 0.3917 0.0
C1296 C 0.94277 0.91519 0.38437 0.0
N1297 N 0.92344 0.75599 0.33382 0.0
C1298 C 0.9502 0.78122 0.3788 0.0
C1299 C 0.91557 0.67458 0.35814 0.0
C1300 C 0.93964 0.70078 0.40627 0.0
C1301 C 0.91044 0.70197 0.32067 0.0
C1302 C 0.95952 0.75402 0.41588 0.0
H1303 H 0.94444 0.67883 0.43481 0.0
O1304 O 0.94439 0.75995 0.25407 0.0
O1305 O 0.85345 0.82524 0.23199 0.0
O1306 O 0.79441 0.76736 0.30604 0.0
O1307 O 0.84779 0.73048 0.28198 0.0
O1308 O 0.88713 0.77899 0.19369 0.0
O1309 O 0.95939 0.84219 0.2487 0.0
O1310 O 0.77825 0.90562 0.32406 0.0
O1311 O 0.86837 0.84247 0.34554 0.0
O1312 O 0.92268 0.89817 0.27148 0.0
O1313 O 0.87111 0.93585 0.30185 0.0
O1314 O 0.8276 0.87651 0.38329 0.0
O1315 O 0.75759 0.82021 0.31978 0.0
C1316 C 0.86009 0.80473 0.1845 0.0
C1317 C 0.98671 0.78093 0.4625 0.0
C1318 C 1.00348 0.8348 0.47268 0.0
C1319 C 0.96814 0.79624 0.23705 0.0
C1320 C 1.00468 0.78649 0.21242 0.0
C1321 C 0.02251 0.74801 0.22587 0.0
C1322 C 0.02368 0.81652 0.1792 0.0
C1323 C 0.06256 0.81062 0.16365 0.0
C1324 C 0.05847 0.73903 0.20714 0.0
C1325 C 0.0788 0.77082 0.1782 0.0
C1326 C 0.80919 0.72368 0.29831 0.0
C1327 C 0.85997 0.85963 0.39305 0.0
C1328 C 0.75148 0.86747 0.33509 0.0
C1329 C 0.71489 0.87733 0.35685 0.0
C1330 C 0.69812 0.91579 0.34176 0.0
C1331 C 0.69635 0.84939 0.39136 0.0
C1332 C 0.66071 0.86133 0.41099 0.0
C1333 C 0.66402 0.92846 0.36223 0.0
C1334 C 0.64587 0.90185 0.39628 0.0
C1335 C 0.9089 0.94271 0.28394 0.0
H1336 H 1.00925 0.72544 0.25217 0.0
H1337 H 0.01118 0.84854 0.1723 0.0
H1338 H 0.07282 0.71035 0.21917 0.0
H1339 H 0.11 0.7677 0.17498 0.0
H1340 H 0.71123 0.93602 0.31367 0.0
H1341 H 0.70716 0.81605 0.39816 0.0
H1342 H 0.64991 0.95678 0.3491 0.0
H1343 H 0.61598 0.90763 0.40231 0.0
Gd1344 Gd 0.83822 0.3566 0.85136 0.0
Gd1345 Gd 0.88119 0.31342 0.72844 0.0
C1346 C 0.83825 0.15797 0.59225 0.0
C1347 C 0.9022 0.13316 0.58151 0.0
C1348 C 0.89939 0.20659 0.6554 0.0
C1349 C 0.85864 0.20005 0.63755 0.0
C1350 C 0.92244 0.17777 0.62269 0.0
C1351 C 0.85946 0.12282 0.56654 0.0
C1352 C 0.7966 0.15053 0.57591 0.0
C1353 C 0.77729 0.18329 0.6059 0.0
N1354 N 0.83962 0.23738 0.66071 0.0
C1355 C 0.79989 0.2322 0.63868 0.0
H1356 H 0.78316 0.25977 0.65516 0.0
C1357 C 0.96128 0.26392 0.70516 0.0
N1358 N 0.91836 0.24805 0.69751 0.0
C1359 C 0.9837 0.24601 0.6654 0.0
C1360 C 0.96439 0.20135 0.62501 0.0
H1361 H 0.97788 0.29719 0.73719 0.0
H1362 H 0.84385 0.09015 0.53312 0.0
H1363 H 0.93129 0.40551 0.92792 0.0
H1364 H 0.77868 0.11544 0.54683 0.0
H1365 H 0.74832 0.16383 0.61445 0.0
H1366 H 0.91986 0.10934 0.55824 0.0
H1367 H 0.74015 0.36954 0.84565 0.0
H1368 H 0.93899 0.55237 0.0336 0.0
H1369 H 0.96774 0.50264 0.96695 0.0
H1370 H 0.79873 0.56087 0.02098 0.0
H1371 H 0.01646 0.2651 0.66712 0.0
H1372 H 0.98182 0.18656 0.59458 0.0
H1373 H 0.87445 0.57932 0.04601 0.0
H1374 H 0.70257 0.40276 0.91661 0.0
N1375 N 0.87821 0.43248 0.91871 0.0
C1376 C 0.92086 0.5179 0.00421 0.0
C1377 C 0.93954 0.48268 0.97728 0.0
C1378 C 0.87998 0.5125 0.986 0.0
C1379 C 0.85967 0.47077 0.94052 0.0
C1380 C 0.91609 0.43469 0.9437 0.0
N1381 N 0.79967 0.42077 0.8825 0.0
C1382 C 0.81879 0.46366 0.92322 0.0
C1383 C 0.73508 0.42213 0.91711 0.0
C1384 C 0.75427 0.46834 0.95565 0.0
C1385 C 0.7569 0.40356 0.87681 0.0
C1386 C 0.79588 0.49244 0.95638 0.0
H1387 H 0.73697 0.4841 0.98584 0.0
O1388 O 0.78308 0.31809 0.87282 0.0
O1389 O 0.84463 0.2934 0.78571 0.0
O1390 O 0.81918 0.34096 0.70196 0.0
O1391 O 0.79064 0.36921 0.77848 0.0
O1392 O 0.80013 0.27264 0.82774 0.0
O1393 O 0.84316 0.33865 0.92702 0.0
O1394 O 0.93774 0.35091 0.70786 0.0
O1395 O 0.87791 0.37807 0.79631 0.0
O1396 O 0.89843 0.32614 0.87681 0.0
O1397 O 0.92581 0.29547 0.80003 0.0
O1398 O 0.92539 0.39404 0.75632 0.0
O1399 O 0.8784 0.3309 0.653 0.0
C1400 C 0.81336 0.25736 0.78442 0.0
C1401 C 0.81627 0.53736 0.99714 0.0
C1402 C 0.85897 0.54763 0.01184 0.0
C1403 C 0.802 0.32364 0.91941 0.0
C1404 C 0.78008 0.2926 0.9479 0.0
C1405 C 0.74987 0.31309 0.97283 0.0
C1406 C 0.78557 0.24274 0.9471 0.0
C1407 C 0.75873 0.21201 0.97157 0.0
C1408 C 0.72533 0.28394 0.9995 0.0
C1409 C 0.72704 0.23247 0.9954 0.0
C1410 C 0.78769 0.35929 0.72413 0.0
C1411 C 0.91246 0.41034 0.79961 0.0
C1412 C 0.91971 0.34377 0.6605 0.0
C1413 C 0.94136 0.37692 0.63394 0.0
C1414 C 0.97293 0.36034 0.60823 0.0
C1415 C 0.92961 0.42254 0.63158 0.0
C1416 C 0.94841 0.45099 0.5997 0.0
C1417 C 0.99198 0.38971 0.57719 0.0
C1418 C 0.98209 0.43678 0.57654 0.0
C1419 C 0.92843 0.30504 0.85419 0.0
H1420 H 0.74711 0.35292 0.97462 0.0
H1421 H 0.812 0.23003 0.93124 0.0
H1422 H 0.70927 0.30358 0.02818 0.0
H1423 H 0.70958 0.21459 0.02105 0.0
H1424 H 0.98032 0.32307 0.60892 0.0
H1425 H 0.90221 0.43133 0.64828 0.0
H1426 H 1.00921 0.37291 0.54831 0.0
H1427 H 0.99475 0.45532 0.54968 0.0
Gd1428 Gd 0.83187 0.76567 0.76839 0.0
Gd1429 Gd 0.88649 0.88908 0.80479 0.0
C1430 C 0.0137 0.95763 0.75602 0.0
C1431 C 0.0439 0.02203 0.83683 0.0
C1432 C 0.97773 0.95702 0.83022 0.0
C1433 C 0.97815 0.93916 0.77943 0.0
C1434 C 1.00955 0.99892 0.85893 0.0
C1435 C 0.04726 0.99875 0.78551 0.0
C1436 C 0.01398 0.93437 0.70391 0.0
C1437 C 0.97925 0.89473 0.67694 0.0
N1438 N 0.94524 0.89927 0.75454 0.0
C1439 C 0.94591 0.87778 0.70297 0.0
H1440 H 0.92286 0.8443 0.68186 0.0
C1441 C 0.95199 0.9362 0.90489 0.0
N1442 N 0.94926 0.92766 0.85297 0.0
C1443 C 0.98316 0.97583 0.93419 0.0
C1444 C 0.01115 1.0076 0.91067 0.0
H1445 H 0.92936 0.91534 0.92413 0.0
H1446 H 0.07506 1.01314 0.76893 0.0
H1447 H 0.79622 0.8148 0.89462 0.0
H1448 H 0.04048 0.94657 0.68424 0.0
H1449 H 0.97844 0.87542 0.63614 0.0
H1450 H 0.06933 0.05433 0.86006 0.0
H1451 H 0.79097 0.73801 0.64618 0.0
H1452 H 0.6756 0.71593 0.88755 0.0
H1453 H 0.73733 0.78609 0.93675 0.0
H1454 H 0.64748 0.60846 0.71187 0.0
H1455 H 0.98647 0.97655 0.97393 0.0
H1456 H 0.04064 0.02877 0.9303 0.0
H1457 H 0.64123 0.65006 0.80254 0.0
H1458 H 0.73254 0.68194 0.59825 0.0
N1459 N 0.77298 0.76088 0.81943 0.0
C1460 C 0.70246 0.7279 0.86838 0.0
C1461 C 0.73722 0.76708 0.89605 0.0
C1462 C 0.70297 0.705 0.81617 0.0
C1463 C 0.73875 0.72344 0.79312 0.0
C1464 C 0.77205 0.78251 0.87138 0.0
N1465 N 0.76912 0.73289 0.71904 0.0
C1466 C 0.7391 0.70578 0.74189 0.0
C1467 C 0.73599 0.68256 0.63799 0.0
C1468 C 0.70727 0.6524 0.66151 0.0
C1469 C 0.76765 0.72113 0.66695 0.0
C1470 C 0.70741 0.66349 0.71321 0.0
H1471 H 0.67873 0.63086 0.6408 0.0
O1472 O 0.83162 0.69172 0.72197 0.0
O1473 O 0.90001 0.80879 0.77472 0.0
O1474 O 0.85943 0.88994 0.72286 0.0
O1475 O 0.84287 0.80153 0.69078 0.0
O1476 O 0.87841 0.73871 0.71706 0.0
O1477 O 0.81572 0.69511 0.79902 0.0
O1478 O 0.89401 0.96659 0.85265 0.0
O1479 O 0.82189 0.8447 0.80809 0.0
O1480 O 0.8634 0.76397 0.84623 0.0
O1481 O 0.8727 0.85134 0.88231 0.0
O1482 O 0.83864 0.92254 0.84849 0.0
O1483 O 0.88304 0.95069 0.76622 0.0
C1484 C 0.91061 0.77771 0.7343 0.0
C1485 C 0.67259 0.64118 0.73492 0.0
C1486 C 0.66916 0.66444 0.78619 0.0
C1487 C 0.81614 0.66463 0.75312 0.0
C1488 C 0.82819 0.61601 0.74959 0.0
C1489 C 0.80802 0.57063 0.70915 0.0
C1490 C 0.86171 0.61581 0.78398 0.0
C1491 C 0.87568 0.57068 0.77784 0.0
C1492 C 0.82476 0.52673 0.69974 0.0
C1493 C 0.85832 0.52608 0.735 0.0
C1494 C 0.85197 0.8503 0.68125 0.0
C1495 C 0.80749 0.88215 0.83682 0.0
C1496 C 0.89151 0.98562 0.81232 0.0
C1497 C 0.88881 0.03886 0.81677 0.0
C1498 C 0.90993 0.08188 0.8595 0.0
C1499 C 0.85813 0.04376 0.78192 0.0
C1500 C 0.8435 0.08775 0.79237 0.0
C1501 C 0.89505 0.12745 0.87048 0.0
C1502 C 0.86147 0.13054 0.83658 0.0
C1503 C 0.86533 0.80079 0.88887 0.0
H1504 H 0.77928 0.56851 0.68524 0.0
H1505 H 0.87623 0.65023 0.81626 0.0
H1506 H 0.81047 0.49262 0.66721 0.0
H1507 H 0.86986 0.49066 0.72986 0.0
H1508 H 0.93773 0.0811 0.88334 0.0
H1509 H 0.84264 1.01114 0.74831 0.0
H1510 H 0.90968 0.16018 0.90417 0.0
H1511 H 0.85051 0.16628 0.84438 0.0
Gd1512 Gd 0.65946 0.62041 0.56392 0.0
Gd1513 Gd 0.56099 0.5398 0.5061 0.0
C1514 C 0.50044 0.37172 0.52611 0.0
C1515 C 0.47923 0.31746 0.4369 0.0
C1516 C 0.52771 0.40562 0.457 0.0
C1517 C 0.52282 0.41387 0.50811 0.0
C1518 C 0.50452 0.35778 0.41997 0.0
C1519 C 0.47898 0.32352 0.49042 0.0
C1520 C 0.5003 0.37909 0.57955 0.0
C1521 C 0.52385 0.42629 0.61368 0.0
N1522 N 0.5418 0.46235 0.54083 0.0
C1523 C 0.54545 0.46658 0.59366 0.0
H1524 H 0.56581 0.50031 0.62141 0.0
C1525 C 0.56222 0.43408 0.39239 0.0
N1526 N 0.55245 0.44665 0.44295 0.0
C1527 C 0.53841 0.38878 0.35383 0.0
C1528 C 0.5077 0.35181 0.36728 0.0
H1529 H 0.58464 0.46052 0.37789 0.0
H1530 H 0.46249 0.29073 0.50388 0.0
H1531 H 0.65556 0.6608 0.44969 0.0
H1532 H 0.48265 0.34795 0.59437 0.0
H1533 H 0.52578 0.43189 0.65564 0.0
H1534 H 0.46166 0.28073 0.40938 0.0
H1535 H 0.6322 0.70113 0.68977 0.0
H1536 H 0.73605 0.81529 0.47723 0.0
H1537 H 0.69341 0.7314 0.41594 0.0
H1538 H 0.75887 0.88009 0.66319 0.0
H1539 H 0.54354 0.38301 0.31331 0.0
H1540 H 0.48889 0.3175 0.33761 0.0
H1541 H 0.75917 0.87095 0.56872 0.0
H1542 H 0.67319 0.77776 0.75603 0.0
N1543 N 0.6792 0.69887 0.53028 0.0
C1544 C 0.71938 0.78355 0.49211 0.0
C1545 C 0.69588 0.73632 0.45784 0.0
C1546 C 0.7203 0.79006 0.54563 0.0
C1547 C 0.69841 0.74725 0.56325 0.0
C1548 C 0.67529 0.69507 0.47756 0.0
N1549 N 0.66764 0.71398 0.62703 0.0
C1550 C 0.69332 0.755 0.61406 0.0
C1551 C 0.67963 0.77191 0.716 0.0
C1552 C 0.71165 0.80844 0.70395 0.0
C1553 C 0.65612 0.72698 0.67661 0.0
C1554 C 0.71604 0.80276 0.65159 0.0
H1555 H 0.73007 0.84255 0.73421 0.0
O1556 O 0.71014 0.58134 0.58272 0.0
O1557 O 0.61953 0.53474 0.55338 0.0
O1558 O 0.54715 0.56785 0.59388 0.0
O1559 O 0.61057 0.62114 0.63372 0.0
O1560 O 0.67235 0.55038 0.59868 0.0
O1561 O 0.71695 0.62253 0.52326 0.0
O1562 O 0.50992 0.57864 0.48888 0.0
O1563 O 0.60027 0.62511 0.51728 0.0
O1564 O 0.6744 0.59234 0.47678 0.0
O1565 O 0.6112 0.53857 0.43533 0.0
O1566 O 0.54537 0.60946 0.47312 0.0
O1567 O 0.50395 0.53703 0.54799 0.0
C1568 C 0.64242 0.50839 0.57774 0.0
C1569 C 0.7415 0.84351 0.63527 0.0
C1570 C 0.74202 0.83804 0.58177 0.0
C1571 C 0.73352 0.5944 0.54934 0.0
C1572 C 0.78049 0.60435 0.56406 0.0
C1573 C 0.80129 0.6248 0.61616 0.0
C1574 C 0.80426 0.58338 0.527 0.0
C1575 C 0.84755 0.58978 0.54146 0.0
C1576 C 0.84449 0.63072 0.62903 0.0
C1577 C 0.86753 0.61499 0.59185 0.0
C1578 C 0.56902 0.60082 0.63837 0.0
C1579 C 0.57573 0.65064 0.49457 0.0
C1580 C 0.48754 0.56625 0.5232 0.0
C1581 C 0.44099 0.55879 0.51007 0.0
C1582 C 0.41915 0.53431 0.45909 0.0
C1583 C 0.41946 0.58672 0.54538 0.0
C1584 C 0.37741 0.58504 0.52948 0.0
C1585 C 0.37639 0.52907 0.44601 0.0
C1586 C 0.35577 0.55476 0.48084 0.0
C1587 C 0.65338 0.55996 0.43155 0.0
H1588 H 0.78387 0.63017 0.64774 0.0
H1589 H 0.78919 0.561 0.48788 0.0
H1590 H 0.86131 0.64086 0.66775 0.0
H1591 H 0.90033 0.61721 0.60423 0.0
H1592 H 0.43568 0.52683 0.42738 0.0
H1593 H 0.43538 0.61083 0.58357 0.0
H1594 H 0.35915 0.51141 0.40755 0.0
H1595 H 0.3232 0.55345 0.46833 0.0
Gd1596 Gd 0.06969 0.5863 0.07528 0.0
Gd1597 Gd 0.14365 0.57307 0.99608 0.0
C1598 C 0.22481 0.73074 0.99414 0.0
C1599 C 0.22576 0.71598 0.90187 0.0
C1600 C 0.18369 0.64865 0.93283 0.0
C1601 C 0.19863 0.67908 0.98402 0.0
C1602 C 0.1974 0.66755 0.89165 0.0
C1603 C 0.23597 0.75024 0.95211 0.0
C1604 C 0.23756 0.7617 0.0455 0.0
C1605 C 0.22068 0.74222 0.08511 0.0
N1606 N 0.18539 0.65977 0.02347 0.0
C1607 C 0.1963 0.69056 0.07343 0.0
H1608 H 0.1826 0.67749 0.10419 0.0
C1609 C 0.14064 0.5705 0.87293 0.0
N1610 N 0.15541 0.60127 0.9229 0.0
C1611 C 0.15417 0.58827 0.83063 0.0
C1612 C 0.18137 0.63811 0.8405 0.0
H1613 H 0.11924 0.53192 0.86631 0.0
H1614 H 0.2528 0.79095 0.95797 0.0
H1615 H 0.02705 0.48036 0.96594 0.0
H1616 H 0.25814 0.80101 0.05391 0.0
H1617 H 0.22445 0.76582 0.12474 0.0
H1618 H 0.23917 0.72494 0.8694 0.0
H1619 H 0.09628 0.63022 0.20609 0.0
H1620 H 0.9614 0.35565 0.0242 0.0
H1621 H 0.98784 0.39065 0.95061 0.0
H1622 H 0.9789 0.43754 0.20653 0.0
H1623 H 0.14252 0.56481 0.79083 0.0
H1624 H 0.18779 0.65551 0.80872 0.0
H1625 H 0.96638 0.36879 0.1193 0.0
H1626 H 0.0755 0.59747 0.28257 0.0
N1627 N 0.02991 0.49854 0.04942 0.0
C1628 C 0.981 0.39532 0.03116 0.0
C1629 C 0.99371 0.41504 0.99002 0.0
C1630 C 0.99469 0.42729 0.08173 0.0
C1631 C 0.0195 0.47938 0.09023 0.0
C1632 C 0.01726 0.46696 0.99953 0.0
N1633 N 0.06099 0.55952 0.15023 0.0
C1634 C 0.03447 0.51107 0.1412 0.0
C1635 C 0.0638 0.5734 0.24299 0.0
C1636 C 0.03752 0.52322 0.23397 0.0
C1637 C 0.07592 0.59107 0.20009 0.0
C1638 C 0.02154 0.49287 0.18315 0.0
H1639 H 0.0318 0.50644 0.26621 0.0
O1640 O 0.03397 0.62336 0.13243 0.0
O1641 O 0.11621 0.63985 0.04124 0.0
O1642 O 0.17733 0.57641 0.07162 0.0
O1643 O 0.12724 0.58355 0.12585 0.0
O1644 O 0.09452 0.67715 0.10296 0.0
O1645 O 0.01312 0.60542 0.04803 0.0
O1646 O 0.17835 0.53288 0.94085 0.0
O1647 O 0.09577 0.51806 0.02759 0.0
O1648 O 0.03344 0.57617 0.00028 0.0
O1649 O 0.08363 0.57417 0.9445 0.0
O1650 O 0.12205 0.48378 0.96876 0.0
O1651 O 0.20344 0.56193 0.025 0.0
C1652 C 0.11479 0.68878 0.06619 0.0
C1653 C 0.9932 0.44476 0.17395 0.0
C1654 C 0.98346 0.40925 0.12441 0.0
C1655 C 1.00748 0.62691 0.09522 0.0
C1656 C 0.97228 0.65038 0.10456 0.0
C1657 C 0.95629 0.65158 0.15185 0.0
C1658 C 0.95327 0.66939 0.06568 0.0
C1659 C 0.91715 0.68743 0.07398 0.0
C1660 C 0.92011 0.6686 0.15947 0.0
C1661 C 0.90017 0.68502 0.12046 0.0
C1662 C 0.16443 0.57603 0.11617 0.0
C1663 C 0.09953 0.4699 0.00257 0.0
C1664 C 0.20774 0.53642 0.97845 0.0
C1665 C 0.24402 0.5155 0.96924 0.0
C1666 C 0.25909 0.51597 0.92174 0.0
C1667 C 0.26361 0.49506 0.00655 0.0
C1668 C 0.2984 0.47498 0.99493 0.0
C1669 C 0.29416 0.49779 0.91141 0.0
C1670 C 0.31363 0.47787 0.94751 0.0
C1671 C 0.04548 0.57817 0.95558 0.0
H1672 H 0.97074 0.63722 0.18207 0.0
H1673 H 0.96526 0.6679 0.02866 0.0
H1674 H 0.90622 0.66654 0.1946 0.0
H1675 H 0.86998 0.69269 0.12581 0.0
H1676 H 0.24432 0.53172 0.89295 0.0
H1677 H 0.25215 0.49503 0.04371 0.0
H1678 H 0.30709 0.50038 0.87577 0.0
H1679 H 0.34181 0.46759 0.93807 0.0
loop_
_geom_bond_atom_site_label_1
_geom_bond_atom_site_label_2
_geom_bond_distance
_geom_bond_site_symmetry_2
_ccdc_geom_bond_type
Co0 O1 2.216 . S
Co0 O2 2.091 . S
Co0 O4 2.004 . S
Co0 O10 2.021 . S
Co0 O12 2.137 . S
Co0 O13 2.244 . S
O1 Co0 2.216 . S
O1 C8 1.247 . S
O2 Co0 2.091 . S
O2 C8 1.261 . S
C3 O12 1.247 . S
C3 O13 1.272 . S
O4 Co0 2.004 . S
O4 C9 1.259 . S
Co5 O6 2.061 . S
Co5 O11 2.052 . S
Co5 O13 2.135 . S
O6 Co5 2.061 . S
O6 C9 1.235 . S
C7 O10 1.238 . S
C7 O11 1.241 . S
C8 O1 1.247 . S
C8 O2 1.261 . S
C9 O4 1.259 . S
C9 O6 1.235 . S
O10 Co0 2.021 . S
O10 C7 1.238 . S
O11 Co5 2.052 . S
O11 C7 1.241 . S
O12 Co0 2.137 . S
O12 C3 1.247 . S
O13 Co0 2.244 . S
O13 C3 1.272 . S
O13 Co5 2.135 . S
Co14 O15 2.216 . S
Co14 O16 2.091 . S
Co14 O18 2.004 1_655 S
Co14 O24 2.021 . S
Co14 O26 2.137 1_655 S
Co14 O27 2.244 1_655 S
O15 Co14 2.216 . S
O15 C22 1.247 . S
O16 Co14 2.091 . S
O16 C22 1.261 . S
C17 O26 1.247 . S
C17 O27 1.272 . S
O18 Co14 2.004 1_455 S
O18 C23 1.259 . S
Co19 O20 2.061 . S
Co19 O25 2.052 . S
Co19 O27 2.135 . S
O20 Co19 2.061 . S
O20 C23 1.235 . S
C21 O24 1.238 . S
C21 O25 1.241 1_655 S
C22 O15 1.247 . S
C22 O16 1.261 . S
C23 O18 1.259 . S
C23 O20 1.235 . S
O24 Co14 2.021 . S
O24 C21 1.238 . S
O25 Co19 2.052 . S
O25 C21 1.241 1_455 S
O26 Co14 2.137 1_455 S
O26 C17 1.247 . S
O27 Co14 2.244 1_455 S
O27 C17 1.272 . S
O27 Co19 2.135 . S
Co28 O29 2.216 . S
Co28 O30 2.091 . S
Co28 O32 2.004 . S
Co28 O38 2.021 . S
Co28 O40 2.137 1_565 S
Co28 O41 2.244 . S
O29 Co28 2.216 . S
O29 C36 1.247 . S
O30 Co28 2.091 . S
O30 C36 1.261 . S
C31 O40 1.247 . S
C31 O41 1.272 1_545 S
O32 Co28 2.004 . S
O32 C37 1.259 . S
Co33 O34 2.061 . S
Co33 O39 2.052 . S
Co33 O41 2.135 . S
O34 Co33 2.061 . S
O34 C37 1.235 . S
C35 O38 1.238 . S
C35 O39 1.241 . S
C36 O29 1.247 . S
C36 O30 1.261 . S
C37 O32 1.259 . S
C37 O34 1.235 . S
O38 Co28 2.021 . S
O38 C35 1.238 . S
O39 Co33 2.052 . S
O39 C35 1.241 . S
O40 Co28 2.137 1_545 S
O40 C31 1.247 . S
O41 Co28 2.244 . S
O41 C31 1.272 1_565 S
O41 Co33 2.135 . S
Co42 O43 2.216 . S
Co42 O44 2.091 . S
Co42 O46 2.004 . S
Co42 O52 2.021 . S
Co42 O54 2.137 . S
Co42 O55 2.244 . S
O43 Co42 2.216 . S
O43 C50 1.247 . S
O44 Co42 2.091 . S
O44 C50 1.261 . S
C45 O54 1.247 . S
C45 O55 1.272 . S
O46 Co42 2.004 . S
O46 C51 1.259 . S
Co47 O48 2.061 . S
Co47 O53 2.052 . S
Co47 O55 2.135 . S
O48 Co47 2.061 . S
O48 C51 1.235 . S
C49 O52 1.238 . S
C49 O53 1.241 . S
C50 O43 1.247 . S
C50 O44 1.261 . S
C51 O46 1.259 . S
C51 O48 1.235 . S
O52 Co42 2.021 . S
O52 C49 1.238 . S
O53 Co47 2.052 . S
O53 C49 1.241 . S
O54 Co42 2.137 . S
O54 C45 1.247 . S
O55 Co42 2.244 . S
O55 C45 1.272 . S
O55 Co47 2.135 . S
Co56 O57 2.216 . S
Co56 O58 2.091 . S
Co56 O60 2.004 . S
Co56 O66 2.021 . S
Co56 O68 2.137 . S
Co56 O69 2.244 . S
O57 Co56 2.216 . S
O57 C64 1.247 . S
O58 Co56 2.091 . S
O58 C64 1.261 . S
C59 O68 1.247 . S
C59 O69 1.272 . S
O60 Co56 2.004 . S
O60 C65 1.259 . S
Co61 O62 2.061 . S
Co61 O67 2.052 . S
Co61 O69 2.135 . S
O62 Co61 2.061 . S
O62 C65 1.235 . S
C63 O66 1.238 . S
C63 O67 1.241 . S
C64 O57 1.247 . S
C64 O58 1.261 . S
C65 O60 1.259 . S
C65 O62 1.235 . S
O66 Co56 2.021 . S
O66 C63 1.238 . S
O67 Co61 2.052 . S
O67 C63 1.241 . S
O68 Co56 2.137 . S
O68 C59 1.247 . S
O69 Co56 2.244 . S
O69 C59 1.272 . S
O69 Co61 2.135 . S
Co70 O71 2.216 . S
Co70 O72 2.091 . S
Co70 O74 2.004 . S
Co70 O80 2.021 . S
Co70 O82 2.137 . S
Co70 O83 2.244 . S
O71 Co70 2.216 . S
O71 C78 1.247 . S
O72 Co70 2.091 . S
O72 C78 1.261 . S
C73 O82 1.247 . S
C73 O83 1.272 . S
O74 Co70 2.004 . S
O74 C79 1.259 . S
Co75 O76 2.061 . S
Co75 O81 2.052 . S
Co75 O83 2.135 . S
O76 Co75 2.061 . S
O76 C79 1.235 . S
C77 O80 1.238 . S
C77 O81 1.241 . S
C78 O71 1.247 . S
C78 O72 1.261 . S
C79 O74 1.259 . S
C79 O76 1.235 . S
O80 Co70 2.021 . S
O80 C77 1.238 . S
O81 Co75 2.052 . S
O81 C77 1.241 . S
O82 Co70 2.137 . S
O82 C73 1.247 . S
O83 Co70 2.244 . S
O83 C73 1.272 . S
O83 Co75 2.135 . S
Co84 O85 2.216 . S
Co84 O86 2.091 . S
Co84 O88 2.004 . S
Co84 O94 2.021 . S
Co84 O96 2.137 . S
Co84 O97 2.244 . S
O85 Co84 2.216 . S
O85 C92 1.247 . S
O86 Co84 2.091 . S
O86 C92 1.261 . S
C87 O96 1.247 . S
C87 O97 1.272 . S
O88 Co84 2.004 . S
O88 C93 1.259 . S
Co89 O90 2.061 . S
Co89 O95 2.052 . S
Co89 O97 2.135 . S
O90 Co89 2.061 . S
O90 C93 1.235 . S
C91 O94 1.238 . S
C91 O95 1.241 . S
C92 O85 1.247 . S
C92 O86 1.261 . S
C93 O88 1.259 . S
C93 O90 1.235 . S
O94 Co84 2.021 . S
O94 C91 1.238 . S
O95 Co89 2.052 . S
O95 C91 1.241 . S
O96 Co84 2.137 . S
O96 C87 1.247 . S
O97 Co84 2.244 . S
O97 C87 1.272 . S
O97 Co89 2.135 . S
Co98 O99 2.216 . S
Co98 O100 2.091 . S
Co98 O102 2.004 1_455 S
Co98 O108 2.021 . S
Co98 O110 2.137 . S
Co98 O111 2.244 1_556 S
O99 Co98 2.216 . S
O99 C106 1.247 . S
O100 Co98 2.091 . S
O100 C106 1.261 . S
C101 O110 1.247 1_554 S
C101 O111 1.272 . S
O102 Co98 2.004 1_655 S
O102 C107 1.259 . S
Co103 O104 2.061 1_554 S
Co103 O109 2.052 1_655 S
Co103 O111 2.135 1_655 S
O104 Co103 2.061 1_556 S
O104 C107 1.235 . S
C105 O108 1.238 1_554 S
C105 O109 1.241 . S
C106 O99 1.247 . S
C106 O100 1.261 . S
C107 O102 1.259 . S
C107 O104 1.235 . S
O108 Co98 2.021 . S
O108 C105 1.238 1_556 S
O109 Co103 2.052 1_455 S
O109 C105 1.241 . S
O110 Co98 2.137 . S
O110 C101 1.247 1_556 S
O111 Co98 2.244 1_554 S
O111 C101 1.272 . S
O111 Co103 2.135 1_455 S
Co112 O113 2.216 . S
Co112 O114 2.091 . S
Co112 O116 2.004 1_545 S
Co112 O122 2.021 1_545 S
Co112 O124 2.137 . S
Co112 O125 2.244 . S
O113 Co112 2.216 . S
O113 C120 1.247 . S
O114 Co112 2.091 . S
O114 C120 1.261 . S
C115 O124 1.247 . S
C115 O125 1.272 . S
O116 Co112 2.004 1_565 S
O116 C121 1.259 . S
Co117 O118 2.061 . S
Co117 O123 2.052 . S
Co117 O125 2.135 1_565 S
O118 Co117 2.061 . S
O118 C121 1.235 . S
C119 O122 1.238 . S
C119 O123 1.241 . S
C120 O113 1.247 . S
C120 O114 1.261 . S
C121 O116 1.259 . S
C121 O118 1.235 . S
O122 Co112 2.021 1_565 S
O122 C119 1.238 . S
O123 Co117 2.052 . S
O123 C119 1.241 . S
O124 Co112 2.137 . S
O124 C115 1.247 . S
O125 Co112 2.244 . S
O125 C115 1.272 . S
O125 Co117 2.135 1_545 S
Co126 O127 2.216 . S
Co126 O128 2.091 . S
Co126 O130 2.004 . S
Co126 O136 2.021 . S
Co126 O138 2.137 . S
Co126 O139 2.244 . S
O127 Co126 2.216 . S
O127 C134 1.247 . S
O128 Co126 2.091 . S
O128 C134 1.261 . S
C129 O138 1.247 . S
C129 O139 1.272 . S
O130 Co126 2.004 . S
O130 C135 1.259 . S
Co131 O132 2.061 . S
Co131 O137 2.052 . S
Co131 O139 2.135 . S
O132 Co131 2.061 . S
O132 C135 1.235 . S
C133 O136 1.238 . S
C133 O137 1.241 . S
C134 O127 1.247 . S
C134 O128 1.261 . S
C135 O130 1.259 . S
C135 O132 1.235 . S
O136 Co126 2.021 . S
O136 C133 1.238 . S
O137 Co131 2.052 . S
O137 C133 1.241 . S
O138 Co126 2.137 . S
O138 C129 1.247 . S
O139 Co126 2.244 . S
O139 C129 1.272 . S
O139 Co131 2.135 . S
Co140 O141 2.216 1_545 S
Co140 O142 2.091 1_545 S
Co140 O144 2.004 . S
Co140 O150 2.021 . S
Co140 O152 2.137 . S
Co140 O153 2.244 . S
O141 Co140 2.216 1_565 S
O141 C148 1.247 . S
O142 Co140 2.091 1_565 S
O142 C148 1.261 . S
C143 O152 1.247 . S
C143 O153 1.272 . S
O144 Co140 2.004 . S
O144 C149 1.259 . S
Co145 O146 2.061 . S
Co145 O151 2.052 . S
Co145 O153 2.135 . S
O146 Co145 2.061 . S
O146 C149 1.235 . S
C147 O150 1.238 . S
C147 O151 1.241 . S
C148 O141 1.247 . S
C148 O142 1.261 . S
C149 O144 1.259 . S
C149 O146 1.235 . S
O150 Co140 2.021 . S
O150 C147 1.238 . S
O151 Co145 2.052 . S
O151 C147 1.241 . S
O152 Co140 2.137 . S
O152 C143 1.247 . S
O153 Co140 2.244 . S
O153 C143 1.272 . S
O153 Co145 2.135 . S
Co154 O155 2.216 1_545 S
Co154 O156 2.091 1_556 S
Co154 O158 2.004 1_556 S
Co154 O164 2.021 1_546 S
Co154 O166 2.137 1_545 S
Co154 O167 2.244 1_545 S
O155 Co154 2.216 1_565 S
O155 C162 1.247 1_566 S
O156 Co154 2.091 1_554 S
O156 C162 1.261 . S
C157 O166 1.247 . S
C157 O167 1.272 . S
O158 Co154 2.004 1_554 S
O158 C163 1.259 . S
Co159 O160 2.061 1_556 S
Co159 O165 2.052 1_556 S
Co159 O167 2.135 . S
O160 Co159 2.061 1_554 S
O160 C163 1.235 1_565 S
C161 O164 1.238 . S
C161 O165 1.241 . S
C162 O155 1.247 1_544 S
C162 O156 1.261 . S
C163 O158 1.259 . S
C163 O160 1.235 1_545 S
O164 Co154 2.021 1_564 S
O164 C161 1.238 . S
O165 Co159 2.052 1_554 S
O165 C161 1.241 . S
O166 Co154 2.137 1_565 S
O166 C157 1.247 . S
O167 Co154 2.244 1_565 S
O167 C157 1.272 . S
O167 Co159 2.135 . S
Co168 O169 2.216 . S
Co168 O170 2.091 . S
Co168 O172 2.004 . S
Co168 O178 2.021 . S
Co168 O180 2.137 1_554 S
Co168 O181 2.244 . S
O169 Co168 2.216 . S
O169 C176 1.247 . S
O170 Co168 2.091 . S
O170 C176 1.261 . S
C171 O180 1.247 . S
C171 O181 1.272 1_556 S
O172 Co168 2.004 . S
O172 C177 1.259 . S
Co173 O174 2.061 . S
Co173 O179 2.052 . S
Co173 O181 2.135 . S
O174 Co173 2.061 . S
O174 C177 1.235 . S
C175 O178 1.238 . S
C175 O179 1.241 . S
C176 O169 1.247 . S
C176 O170 1.261 . S
C177 O172 1.259 . S
C177 O174 1.235 . S
O178 Co168 2.021 . S
O178 C175 1.238 . S
O179 Co173 2.052 . S
O179 C175 1.241 . S
O180 Co168 2.137 1_556 S
O180 C171 1.247 . S
O181 Co168 2.244 . S
O181 C171 1.272 1_554 S
O181 Co173 2.135 . S
Co182 O183 2.216 . S
Co182 O184 2.091 . S
Co182 O186 2.004 . S
Co182 O192 2.021 . S
Co182 O194 2.137 1_554 S
Co182 O195 2.244 . S
O183 Co182 2.216 . S
O183 C190 1.247 . S
O184 Co182 2.091 . S
O184 C190 1.261 . S
C185 O194 1.247 . S
C185 O195 1.272 1_556 S
O186 Co182 2.004 . S
O186 C191 1.259 . S
Co187 O188 2.061 . S
Co187 O193 2.052 . S
Co187 O195 2.135 . S
O188 Co187 2.061 . S
O188 C191 1.235 . S
C189 O192 1.238 . S
C189 O193 1.241 . S
C190 O183 1.247 . S
C190 O184 1.261 . S
C191 O186 1.259 . S
C191 O188 1.235 . S
O192 Co182 2.021 . S
O192 C189 1.238 . S
O193 Co187 2.052 . S
O193 C189 1.241 . S
O194 Co182 2.137 1_556 S
O194 C185 1.247 . S
O195 Co182 2.244 . S
O195 C185 1.272 1_554 S
O195 Co187 2.135 . S
Co196 O197 2.216 . S
Co196 O198 2.091 . S
Co196 O200 2.004 . S
Co196 O206 2.021 . S
Co196 O208 2.137 . S
Co196 O209 2.244 . S
O197 Co196 2.216 . S
O197 C204 1.247 . S
O198 Co196 2.091 . S
O198 C204 1.261 . S
C199 O208 1.247 . S
C199 O209 1.272 . S
O200 Co196 2.004 . S
O200 C205 1.259 . S
Co201 O202 2.061 . S
Co201 O207 2.052 . S
Co201 O209 2.135 . S
O202 Co201 2.061 . S
O202 C205 1.235 . S
C203 O206 1.238 . S
C203 O207 1.241 . S
C204 O197 1.247 . S
C204 O198 1.261 . S
C205 O200 1.259 . S
C205 O202 1.235 . S
O206 Co196 2.021 . S
O206 C203 1.238 . S
O207 Co201 2.052 . S
O207 C203 1.241 . S
O208 Co196 2.137 . S
O208 C199 1.247 . S
O209 Co196 2.244 . S
O209 C199 1.272 . S
O209 Co201 2.135 . S
Co210 O211 2.216 . S
Co210 O212 2.091 . S
Co210 O214 2.004 . S
Co210 O220 2.021 . S
Co210 O222 2.137 . S
Co210 O223 2.244 . S
O211 Co210 2.216 . S
O211 C218 1.247 . S
O212 Co210 2.091 . S
O212 C218 1.261 . S
C213 O222 1.247 . S
C213 O223 1.272 . S
O214 Co210 2.004 . S
O214 C219 1.259 . S
Co215 O216 2.061 . S
Co215 O221 2.052 . S
Co215 O223 2.135 . S
O216 Co215 2.061 . S
O216 C219 1.235 . S
C217 O220 1.238 . S
C217 O221 1.241 . S
C218 O211 1.247 . S
C218 O212 1.261 . S
C219 O214 1.259 . S
C219 O216 1.235 . S
O220 Co210 2.021 . S
O220 C217 1.238 . S
O221 Co215 2.052 . S
O221 C217 1.241 . S
O222 Co210 2.137 . S
O222 C213 1.247 . S
O223 Co210 2.244 . S
O223 C213 1.272 . S
O223 Co215 2.135 . S
Co224 O225 2.216 . S
Co224 O226 2.091 . S
Co224 O228 2.004 . S
Co224 O234 2.021 . S
Co224 O236 2.137 . S
Co224 O237 2.244 1_655 S
O225 Co224 2.216 . S
O225 C232 1.247 . S
O226 Co224 2.091 . S
O226 C232 1.261 . S
C227 O236 1.247 1_455 S
C227 O237 1.272 . S
O228 Co224 2.004 . S
O228 C233 1.259 1_545 S
Co229 O230 2.061 1_445 S
Co229 O235 2.052 . S
Co229 O237 2.135 . S
O230 Co229 2.061 1_665 S
O230 C233 1.235 . S
C231 O234 1.238 1_455 S
C231 O235 1.241 . S
C232 O225 1.247 . S
C232 O226 1.261 . S
C233 O228 1.259 1_565 S
C233 O230 1.235 . S
O234 Co224 2.021 . S
O234 C231 1.238 1_655 S
O235 Co229 2.052 . S
O235 C231 1.241 . S
O236 Co224 2.137 . S
O236 C227 1.247 1_655 S
O237 Co224 2.244 1_455 S
O237 C227 1.272 . S
O237 Co229 2.135 . S
Co238 O239 2.216 . S
Co238 O240 2.091 . S
Co238 O242 2.004 . S
Co238 O248 2.021 . S
Co238 O250 2.137 . S
Co238 O251 2.244 . S
O239 Co238 2.216 . S
O239 C246 1.247 . S
O240 Co238 2.091 . S
O240 C246 1.261 . S
C241 O250 1.247 . S
C241 O251 1.272 . S
O242 Co238 2.004 . S
O242 C247 1.259 . S
Co243 O244 2.061 . S
Co243 O249 2.052 . S
Co243 O251 2.135 . S
O244 Co243 2.061 . S
O244 C247 1.235 . S
C245 O248 1.238 . S
C245 O249 1.241 . S
C246 O239 1.247 . S
C246 O240 1.261 . S
C247 O242 1.259 . S
C247 O244 1.235 . S
O248 Co238 2.021 . S
O248 C245 1.238 . S
O249 Co243 2.052 . S
O249 C245 1.241 . S
O250 Co238 2.137 . S
O250 C241 1.247 . S
O251 Co238 2.244 . S
O251 C241 1.272 . S
O251 Co243 2.135 . S
Co252 O253 2.216 . S
Co252 O254 2.091 . S
Co252 O256 2.004 . S
Co252 O262 2.021 . S
Co252 O264 2.137 . S
Co252 O265 2.244 . S
O253 Co252 2.216 . S
O253 C260 1.247 . S
O254 Co252 2.091 . S
O254 C260 1.261 . S
C255 O264 1.247 . S
C255 O265 1.272 . S
O256 Co252 2.004 . S
O256 C261 1.259 . S
Co257 O258 2.061 . S
Co257 O263 2.052 . S
Co257 O265 2.135 . S
O258 Co257 2.061 . S
O258 C261 1.235 . S
C259 O262 1.238 . S
C259 O263 1.241 . S
C260 O253 1.247 . S
C260 O254 1.261 . S
C261 O256 1.259 . S
C261 O258 1.235 . S
O262 Co252 2.021 . S
O262 C259 1.238 . S
O263 Co257 2.052 . S
O263 C259 1.241 . S
O264 Co252 2.137 . S
O264 C255 1.247 . S
O265 Co252 2.244 . S
O265 C255 1.272 . S
O265 Co257 2.135 . S
Co266 O267 2.216 . S
Co266 O268 2.091 . S
Co266 O270 2.004 . S
Co266 O276 2.021 . S
Co266 O278 2.137 . S
Co266 O279 2.244 . S
O267 Co266 2.216 . S
O267 C274 1.247 . S
O268 Co266 2.091 . S
O268 C274 1.261 . S
C269 O278 1.247 . S
C269 O279 1.272 . S
O270 Co266 2.004 . S
O270 C275 1.259 . S
Co271 O272 2.061 . S
Co271 O277 2.052 . S
Co271 O279 2.135 . S
O272 Co271 2.061 . S
O272 C275 1.235 . S
C273 O276 1.238 . S
C273 O277 1.241 . S
C274 O267 1.247 . S
C274 O268 1.261 . S
C275 O270 1.259 . S
C275 O272 1.235 . S
O276 Co266 2.021 . S
O276 C273 1.238 . S
O277 Co271 2.052 . S
O277 C273 1.241 . S
O278 Co266 2.137 . S
O278 C269 1.247 . S
O279 Co266 2.244 . S
O279 C269 1.272 . S
O279 Co271 2.135 . S
Co280 O281 2.216 . S
Co280 O282 2.096 1_554 S
Co280 O284 2.006 1_554 S
Co280 O290 2.034 . S
Co280 O292 2.123 1_554 S
Co280 O293 2.237 1_554 S
O281 Co280 2.216 . S
O281 C288 1.247 . S
O282 Co280 2.096 1_556 S
O282 C288 1.264 1_556 S
C283 O292 1.247 . S
C283 O293 1.272 . S
O284 Co280 2.006 1_556 S
O284 C289 1.259 . S
Co285 O286 2.061 . S
Co285 O291 2.052 . S
Co285 O293 2.135 1_554 S
O286 Co285 2.061 . S
O286 C289 1.235 1_554 S
C287 O290 1.238 . S
C287 O291 1.241 . S
C288 O281 1.247 . S
C288 O282 1.264 1_554 S
C289 O284 1.259 . S
C289 O286 1.235 1_556 S
O290 Co280 2.034 . S
O290 C287 1.238 . S
O291 Co285 2.052 . S
O291 C287 1.241 . S
O292 Co280 2.123 1_556 S
O292 C283 1.247 . S
O293 Co280 2.237 1_556 S
O293 C283 1.272 . S
O293 Co285 2.135 1_556 S
Co294 O295 2.216 . S
Co294 O296 2.091 . S
Co294 O298 2.004 . S
Co294 O304 2.021 . S
Co294 O306 2.137 . S
Co294 O307 2.244 1_655 S
O295 Co294 2.216 . S
O295 C302 1.247 . S
O296 Co294 2.091 . S
O296 C302 1.261 . S
C297 O306 1.247 . S
C297 O307 1.272 1_655 S
O298 Co294 2.004 . S
O298 C303 1.259 . S
Co299 O300 2.061 1_455 S
Co299 O305 2.052 . S
Co299 O307 2.135 . S
O300 Co299 2.061 1_655 S
O300 C303 1.235 . S
C301 O304 1.238 . S
C301 O305 1.241 1_655 S
C302 O295 1.247 . S
C302 O296 1.261 . S
C303 O298 1.259 . S
C303 O300 1.235 . S
O304 Co294 2.021 . S
O304 C301 1.238 . S
O305 Co299 2.052 . S
O305 C301 1.241 1_455 S
O306 Co294 2.137 . S
O306 C297 1.247 . S
O307 Co294 2.244 1_455 S
O307 C297 1.272 1_455 S
O307 Co299 2.135 . S
Co308 O309 2.216 . S
Co308 O310 2.091 . S
Co308 O312 2.004 . S
Co308 O318 2.021 . S
Co308 O320 2.137 . S
Co308 O321 2.244 . S
O309 Co308 2.216 . S
O309 C316 1.247 . S
O310 Co308 2.091 . S
O310 C316 1.261 . S
C311 O320 1.247 . S
C311 O321 1.272 . S
O312 Co308 2.004 . S
O312 C317 1.259 1_655 S
Co313 O314 2.061 1_655 S
Co313 O319 2.052 . S
Co313 O321 2.135 . S
O314 Co313 2.061 1_455 S
O314 C317 1.235 . S
C315 O318 1.238 . S
C315 O319 1.241 . S
C316 O309 1.247 . S
C316 O310 1.261 . S
C317 O312 1.259 1_455 S
C317 O314 1.235 . S
O318 Co308 2.021 . S
O318 C315 1.238 . S
O319 Co313 2.052 . S
O319 C315 1.241 . S
O320 Co308 2.137 . S
O320 C311 1.247 . S
O321 Co308 2.244 . S
O321 C311 1.272 . S
O321 Co313 2.135 . S
Co322 O323 2.216 . S
Co322 O324 2.091 . S
Co322 O326 2.004 . S
Co322 O332 2.021 . S
Co322 O334 2.137 . S
Co322 O335 2.244 . S
O323 Co322 2.216 . S
O323 C330 1.247 . S
O324 Co322 2.091 . S
O324 C330 1.261 . S
C325 O334 1.247 . S
C325 O335 1.272 . S
O326 Co322 2.004 . S
O326 C331 1.259 . S
Co327 O328 2.061 . S
Co327 O333 2.052 . S
Co327 O335 2.135 . S
O328 Co327 2.061 . S
O328 C331 1.235 . S
C329 O332 1.238 . S
C329 O333 1.241 . S
C330 O323 1.247 . S
C330 O324 1.261 . S
C331 O326 1.259 . S
C331 O328 1.235 . S
O332 Co322 2.021 . S
O332 C329 1.238 . S
O333 Co327 2.052 . S
O333 C329 1.241 . S
O334 Co322 2.137 . S
O334 C325 1.247 . S
O335 Co322 2.244 . S
O335 C325 1.272 . S
O335 Co327 2.135 . S
Gd336 N367 2.661 . S
Gd336 N373 2.601 . S
Gd336 O380 2.545 . S
Gd336 O381 2.606 . S
Gd336 O383 2.429 . S
Gd336 O384 2.545 . S
Gd336 O385 2.412 . S
Gd336 O387 2.362 . S
Gd336 O388 2.324 1_554 S
Gd336 C395 2.828 . S
Gd337 N346 2.670 1_545 S
Gd337 N350 2.594 1_544 S
Gd337 O381 2.367 . S
Gd337 O382 2.339 . S
Gd337 O386 2.535 1_454 S
Gd337 O387 2.607 . S
Gd337 O389 2.416 1_554 S
Gd337 O390 2.541 . S
Gd337 O391 2.417 1_455 S
Gd337 C404 2.825 1_454 S
C338 C341 1.417 1_554 S
C338 C343 1.431 1_554 S
C338 C344 1.412 . S
C339 C342 1.437 . S
C339 C343 1.317 . S
C339 H358 0.929 . S
C340 C341 1.426 . S
C340 C342 1.413 . S
C340 N350 1.359 1_655 S
C341 C338 1.417 1_556 S
C341 C340 1.426 . S
C341 N346 1.350 1_656 S
C342 C339 1.437 . S
C342 C340 1.413 . S
C342 C352 1.391 . S
C343 C338 1.431 1_556 S
C343 C339 1.317 . S
C343 H354 0.930 . S
C344 C338 1.412 . S
C344 C345 1.355 1_655 S
C344 H356 0.930 . S
C345 C344 1.355 1_455 S
C345 C347 1.402 . S
C345 H357 0.930 . S
N346 Gd337 2.670 1_565 S
N346 C341 1.350 1_454 S
N346 C347 1.307 . S
C347 C345 1.402 . S
C347 N346 1.307 . S
C347 H348 0.930 . S
H348 C347 0.930 . S
C349 N350 1.334 . S
C349 C351 1.394 1_455 S
C349 H353 0.930 . S
N350 Gd337 2.594 1_566 S
N350 C340 1.359 1_455 S
N350 C349 1.334 . S
C351 C349 1.394 1_655 S
C351 C352 1.359 . S
C351 H363 0.930 . S
C352 C342 1.391 . S
C352 C351 1.359 . S
C352 H364 0.929 . S
H353 C349 0.930 . S
H354 C343 0.930 . S
H355 C372 0.930 . S
H356 C344 0.930 . S
H357 C345 0.930 . S
H358 C339 0.929 . S
H359 C377 0.930 . S
H360 C368 0.930 . S
H361 C369 0.930 . S
H362 C393 0.929 . S
H363 C351 0.930 . S
H364 C352 0.929 . S
H365 C394 0.930 . S
H366 C375 0.930 . S
N367 Gd336 2.661 . S
N367 C371 1.350 . S
N367 C372 1.307 1_554 S
C368 H360 0.930 . S
C368 C369 1.355 1_554 S
C368 C370 1.412 . S
C369 H361 0.930 . S
C369 C368 1.355 1_556 S
C369 C372 1.402 . S
C370 C368 1.412 . S
C370 C371 1.417 . S
C370 C394 1.431 . S
C371 N367 1.350 . S
C371 C370 1.417 . S
C371 C374 1.426 . S
C372 H355 0.930 . S
C372 N367 1.307 1_556 S
C372 C369 1.402 . S
N373 Gd336 2.601 . S
N373 C374 1.359 . S
N373 C377 1.334 . S
C374 C371 1.426 . S
C374 N373 1.359 . S
C374 C378 1.413 . S
C375 H366 0.930 . S
C375 C376 1.359 . S
C375 C377 1.394 . S
C376 C375 1.359 . S
C376 C378 1.391 . S
C376 H379 0.929 . S
C377 H359 0.930 . S
C377 N373 1.334 . S
C377 C375 1.394 . S
C378 C374 1.413 . S
C378 C376 1.391 . S
C378 C393 1.437 . S
H379 C376 0.929 . S
O380 Gd336 2.545 . S
O380 C395 1.258 . S
O381 Gd336 2.606 . S
O381 Gd337 2.367 . S
O381 C392 1.284 1_545 S
O382 Gd337 2.339 . S
O382 C402 1.254 . S
O383 Gd336 2.429 . S
O383 C402 1.268 . S
O384 Gd336 2.545 . S
O384 C392 1.250 1_545 S
O385 Gd336 2.412 . S
O385 C395 1.252 . S
O386 Gd337 2.535 1_656 S
O386 C404 1.258 . S
O387 Gd336 2.362 . S
O387 Gd337 2.607 . S
O387 C403 1.284 . S
O388 Gd336 2.324 1_556 S
O388 C411 1.254 . S
O389 Gd337 2.416 1_556 S
O389 C411 1.268 . S
O390 Gd337 2.541 . S
O390 C403 1.252 . S
O391 Gd337 2.417 1_655 S
O391 C404 1.252 1_554 S
C392 O381 1.284 1_565 S
C392 O384 1.250 1_565 S
C393 H362 0.929 . S
C393 C378 1.437 . S
C393 C394 1.317 . S
C394 H365 0.930 . S
C394 C370 1.431 . S
C394 C393 1.317 . S
C395 Gd336 2.828 . S
C395 O380 1.258 . S
C395 O385 1.252 . S
C395 C396 1.497 . S
C396 C395 1.497 . S
C396 C397 1.395 . S
C396 C398 1.380 . S
C397 C396 1.395 . S
C397 C400 1.398 . S
C397 H412 0.930 . S
C398 C396 1.380 . S
C398 C399 1.391 . S
C398 H413 0.930 . S
C399 C398 1.391 . S
C399 C401 1.387 . S
C400 C397 1.398 . S
C400 C401 1.380 . S
C400 H414 0.930 . S
C401 C399 1.387 . S
C401 C400 1.380 . S
C401 H415 0.930 . S
C402 O382 1.254 . S
C402 O383 1.268 . S
C403 O387 1.284 . S
C403 O390 1.252 . S
C404 Gd337 2.825 1_656 S
C404 O386 1.258 . S
C404 O391 1.252 1_556 S
C404 C405 1.497 . S
C405 C404 1.497 . S
C405 C406 1.395 1_545 S
C405 C407 1.380 . S
C406 C405 1.395 1_565 S
C406 C409 1.398 . S
C406 H416 0.930 . S
C407 C405 1.380 . S
C407 C408 1.391 . S
C407 H417 0.930 1_556 S
C408 C407 1.391 . S
C408 C410 1.387 . S
C409 C406 1.398 . S
C409 C410 1.380 1_565 S
C409 H418 0.930 . S
C410 C408 1.387 . S
C410 C409 1.380 1_545 S
C410 H419 0.930 . S
C411 O388 1.254 . S
C411 O389 1.268 . S
H412 C397 0.930 . S
H413 C398 0.930 . S
H414 C400 0.930 . S
H415 C401 0.930 . S
H416 C406 0.930 . S
H417 C407 0.930 1_554 S
H418 C409 0.930 . S
H419 C410 0.930 . S
Gd420 N451 2.661 . S
Gd420 N457 2.601 . S
Gd420 O464 2.545 . S
Gd420 O465 2.606 . S
Gd420 O467 2.429 . S
Gd420 O468 2.545 . S
Gd420 O469 2.412 . S
Gd420 O471 2.362 . S
Gd420 O472 2.324 . S
Gd420 C479 2.828 . S
Gd421 N430 2.661 . S
Gd421 N434 2.601 . S
Gd421 O465 2.362 . S
Gd421 O466 2.324 . S
Gd421 O470 2.545 . S
Gd421 O471 2.606 . S
Gd421 O473 2.429 . S
Gd421 O474 2.545 . S
Gd421 O475 2.412 . S
Gd421 C488 2.828 . S
C422 C425 1.417 . S
C422 C427 1.431 . S
C422 C428 1.412 . S
C423 C426 1.437 . S
C423 C427 1.317 . S
C423 H442 0.929 . S
C424 C425 1.426 . S
C424 C426 1.413 . S
C424 N434 1.359 . S
C425 C422 1.417 . S
C425 C424 1.426 . S
C425 N430 1.350 . S
C426 C423 1.437 . S
C426 C424 1.413 . S
C426 C436 1.391 . S
C427 C422 1.431 . S
C427 C423 1.317 . S
C427 H438 0.930 . S
C428 C422 1.412 . S
C428 C429 1.355 . S
C428 H440 0.930 . S
C429 C428 1.355 . S
C429 C431 1.402 . S
C429 H441 0.930 . S
N430 Gd421 2.661 . S
N430 C425 1.350 . S
N430 C431 1.307 . S
C431 C429 1.402 . S
C431 N430 1.307 . S
C431 H432 0.930 . S
H432 C431 0.930 . S
C433 N434 1.334 . S
C433 C435 1.394 . S
C433 H437 0.930 . S
N434 Gd421 2.601 . S
N434 C424 1.359 . S
N434 C433 1.334 . S
C435 C433 1.394 . S
C435 C436 1.359 . S
C435 H447 0.930 . S
C436 C426 1.391 . S
C436 C435 1.359 . S
C436 H448 0.929 . S
H437 C433 0.930 . S
H438 C427 0.930 . S
H439 C456 0.930 . S
H440 C428 0.930 . S
H441 C429 0.930 . S
H442 C423 0.929 . S
H443 C461 0.930 . S
H444 C452 0.930 1_545 S
H445 C453 0.930 . S
H446 C477 0.929 . S
H447 C435 0.930 . S
H448 C436 0.929 . S
H449 C478 0.930 . S
H450 C459 0.930 . S
N451 Gd420 2.661 . S
N451 C455 1.350 . S
N451 C456 1.307 . S
C452 H444 0.930 1_565 S
C452 C453 1.355 . S
C452 C454 1.412 . S
C453 H445 0.930 . S
C453 C452 1.355 . S
C453 C456 1.402 . S
C454 C452 1.412 . S
C454 C455 1.417 . S
C454 C478 1.431 1_565 S
C455 N451 1.350 . S
C455 C454 1.417 . S
C455 C458 1.426 . S
C456 H439 0.930 . S
C456 N451 1.307 . S
C456 C453 1.402 . S
N457 Gd420 2.601 . S
N457 C458 1.359 . S
N457 C461 1.334 . S
C458 C455 1.426 . S
C458 N457 1.359 . S
C458 C462 1.413 . S
C459 H450 0.930 . S
C459 C460 1.359 . S
C459 C461 1.394 . S
C460 C459 1.359 . S
C460 C462 1.391 . S
C460 H463 0.929 . S
C461 H443 0.930 . S
C461 N457 1.334 . S
C461 C459 1.394 . S
C462 C458 1.413 . S
C462 C460 1.391 . S
C462 C477 1.437 1_565 S
H463 C460 0.929 . S
O464 Gd420 2.545 . S
O464 C479 1.258 . S
O465 Gd420 2.606 . S
O465 Gd421 2.362 . S
O465 C476 1.284 . S
O466 Gd421 2.324 . S
O466 C486 1.254 . S
O467 Gd420 2.429 . S
O467 C486 1.268 . S
O468 Gd420 2.545 . S
O468 C476 1.250 . S
O469 Gd420 2.412 . S
O469 C479 1.252 . S
O470 Gd421 2.545 . S
O470 C488 1.258 . S
O471 Gd420 2.362 . S
O471 Gd421 2.606 . S
O471 C487 1.284 . S
O472 Gd420 2.324 . S
O472 C495 1.254 . S
O473 Gd421 2.429 . S
O473 C495 1.268 . S
O474 Gd421 2.545 . S
O474 C487 1.250 . S
O475 Gd421 2.412 . S
O475 C488 1.252 . S
C476 O465 1.284 . S
C476 O468 1.250 . S
C477 H446 0.929 . S
C477 C462 1.437 1_545 S
C477 C478 1.317 . S
C478 H449 0.930 . S
C478 C454 1.431 1_545 S
C478 C477 1.317 . S
C479 Gd420 2.828 . S
C479 O464 1.258 . S
C479 O469 1.252 . S
C479 C480 1.497 . S
C480 C479 1.497 . S
C480 C481 1.395 . S
C480 C482 1.380 . S
C481 C480 1.395 . S
C481 C484 1.398 . S
C481 H496 0.930 . S
C482 C480 1.380 . S
C482 C483 1.391 . S
C482 H497 0.930 . S
C483 C482 1.391 . S
C483 C485 1.387 . S
C484 C481 1.398 . S
C484 C485 1.380 . S
C484 H498 0.930 . S
C485 C483 1.387 . S
C485 C484 1.380 . S
C485 H499 0.930 . S
C486 O466 1.254 . S
C486 O467 1.268 . S
C487 O471 1.284 . S
C487 O474 1.250 . S
C488 Gd421 2.828 . S
C488 O470 1.258 . S
C488 O475 1.252 . S
C488 C489 1.497 . S
C489 C488 1.497 . S
C489 C490 1.395 . S
C489 C491 1.380 . S
C490 C489 1.395 . S
C490 C493 1.398 . S
C490 H500 0.930 . S
C491 C489 1.380 . S
C491 C492 1.391 . S
C491 H501 0.930 . S
C492 C491 1.391 . S
C492 C494 1.387 . S
C493 C490 1.398 . S
C493 C494 1.380 . S
C493 H502 0.930 . S
C494 C492 1.387 . S
C494 C493 1.380 . S
C494 H503 0.930 . S
C495 O472 1.254 . S
C495 O473 1.268 . S
H496 C481 0.930 . S
H497 C482 0.930 . S
H498 C484 0.930 . S
H499 C485 0.930 . S
H500 C490 0.930 . S
H501 C491 0.930 . S
H502 C493 0.930 . S
H503 C494 0.930 . S
Gd504 N535 2.661 1_545 S
Gd504 N541 2.601 . S
Gd504 O548 2.545 . S
Gd504 O549 2.606 . S
Gd504 O551 2.429 . S
Gd504 O552 2.545 . S
Gd504 O553 2.412 . S
Gd504 O555 2.362 . S
Gd504 O556 2.324 . S
Gd504 C563 2.828 . S
Gd505 N514 2.661 . S
Gd505 N518 2.601 . S
Gd505 O549 2.362 . S
Gd505 O550 2.324 . S
Gd505 O554 2.545 . S
Gd505 O555 2.606 . S
Gd505 O557 2.429 . S
Gd505 O558 2.545 1_545 S
Gd505 O559 2.412 . S
Gd505 C572 2.828 . S
C506 C509 1.417 . S
C506 C511 1.431 . S
C506 C512 1.412 . S
C507 C510 1.437 . S
C507 C511 1.317 . S
C507 H526 0.929 . S
C508 C509 1.426 . S
C508 C510 1.413 . S
C508 N518 1.359 . S
C509 C506 1.417 . S
C509 C508 1.426 . S
C509 N514 1.350 . S
C510 C507 1.437 . S
C510 C508 1.413 . S
C510 C520 1.391 . S
C511 C506 1.431 . S
C511 C507 1.317 . S
C511 H522 0.930 . S
C512 C506 1.412 . S
C512 C513 1.355 . S
C512 H524 0.930 . S
C513 C512 1.355 . S
C513 C515 1.402 . S
C513 H525 0.930 . S
N514 Gd505 2.661 . S
N514 C509 1.350 . S
N514 C515 1.307 . S
C515 C513 1.402 . S
C515 N514 1.307 . S
C515 H516 0.930 . S
H516 C515 0.930 . S
C517 N518 1.334 . S
C517 C519 1.394 . S
C517 H521 0.930 . S
N518 Gd505 2.601 . S
N518 C508 1.359 . S
N518 C517 1.334 . S
C519 C517 1.394 . S
C519 C520 1.359 . S
C519 H531 0.930 . S
C520 C510 1.391 . S
C520 C519 1.359 . S
C520 H532 0.929 . S
H521 C517 0.930 . S
H522 C511 0.930 . S
H523 C540 0.930 . S
H524 C512 0.930 . S
H525 C513 0.930 . S
H526 C507 0.929 . S
H527 C545 0.930 . S
H528 C536 0.930 . S
H529 C537 0.930 . S
H530 C561 0.929 . S
H531 C519 0.930 . S
H532 C520 0.929 . S
H533 C562 0.930 . S
H534 C543 0.930 . S
N535 Gd504 2.661 1_565 S
N535 C539 1.350 . S
N535 C540 1.307 . S
C536 H528 0.930 . S
C536 C537 1.355 . S
C536 C538 1.412 . S
C537 H529 0.930 . S
C537 C536 1.355 . S
C537 C540 1.402 . S
C538 C536 1.412 . S
C538 C539 1.417 . S
C538 C562 1.431 . S
C539 N535 1.350 . S
C539 C538 1.417 . S
C539 C542 1.426 . S
C540 H523 0.930 . S
C540 N535 1.307 . S
C540 C537 1.402 . S
N541 Gd504 2.601 . S
N541 C542 1.359 1_545 S
N541 C545 1.334 . S
C542 C539 1.426 . S
C542 N541 1.359 1_565 S
C542 C546 1.413 . S
C543 H534 0.930 . S
C543 C544 1.359 1_545 S
C543 C545 1.394 . S
C544 C543 1.359 1_565 S
C544 C546 1.391 . S
C544 H547 0.929 . S
C545 H527 0.930 . S
C545 N541 1.334 . S
C545 C543 1.394 . S
C546 C542 1.413 . S
C546 C544 1.391 . S
C546 C561 1.437 . S
H547 C544 0.929 . S
O548 Gd504 2.545 . S
O548 C563 1.258 . S
O549 Gd504 2.606 . S
O549 Gd505 2.362 . S
O549 C560 1.284 . S
O550 Gd505 2.324 . S
O550 C570 1.254 . S
O551 Gd504 2.429 . S
O551 C570 1.268 . S
O552 Gd504 2.545 . S
O552 C560 1.250 . S
O553 Gd504 2.412 . S
O553 C563 1.252 . S
O554 Gd505 2.545 . S
O554 C572 1.258 . S
O555 Gd504 2.362 . S
O555 Gd505 2.606 . S
O555 C571 1.284 1_545 S
O556 Gd504 2.324 . S
O556 C579 1.254 . S
O557 Gd505 2.429 . S
O557 C579 1.268 . S
O558 Gd505 2.545 1_565 S
O558 C571 1.250 . S
O559 Gd505 2.412 . S
O559 C572 1.252 . S
C560 O549 1.284 . S
C560 O552 1.250 . S
C561 H530 0.929 . S
C561 C546 1.437 . S
C561 C562 1.317 . S
C562 H533 0.930 . S
C562 C538 1.431 . S
C562 C561 1.317 . S
C563 Gd504 2.828 . S
C563 O548 1.258 . S
C563 O553 1.252 . S
C563 C564 1.497 . S
C564 C563 1.497 . S
C564 C565 1.395 . S
C564 C566 1.380 . S
C565 C564 1.395 . S
C565 C568 1.398 . S
C565 H580 0.930 . S
C566 C564 1.380 . S
C566 C567 1.391 . S
C566 H581 0.930 . S
C567 C566 1.391 . S
C567 C569 1.387 . S
C568 C565 1.398 . S
C568 C569 1.380 . S
C568 H582 0.930 . S
C569 C567 1.387 . S
C569 C568 1.380 . S
C569 H583 0.930 . S
C570 O550 1.254 . S
C570 O551 1.268 . S
C571 O555 1.284 1_565 S
C571 O558 1.250 . S
C572 Gd505 2.828 . S
C572 O554 1.258 . S
C572 O559 1.252 . S
C572 C573 1.497 1_545 S
C573 C572 1.497 1_565 S
C573 C574 1.395 . S
C573 C575 1.380 . S
C574 C573 1.395 . S
C574 C577 1.398 . S
C574 H584 0.930 . S
C575 C573 1.380 . S
C575 C576 1.391 . S
C575 H585 0.930 . S
C576 C575 1.391 . S
C576 C578 1.387 . S
C577 C574 1.398 . S
C577 C578 1.380 . S
C577 H586 0.930 . S
C578 C576 1.387 . S
C578 C577 1.380 . S
C578 H587 0.930 . S
C579 O556 1.254 . S
C579 O557 1.268 . S
H580 C565 0.930 . S
H581 C566 0.930 . S
H582 C568 0.930 . S
H583 C569 0.930 . S
H584 C574 0.930 . S
H585 C575 0.930 . S
H586 C577 0.930 . S
H587 C578 0.930 . S
Gd588 N619 2.661 . S
Gd588 N625 2.601 . S
Gd588 O632 2.545 . S
Gd588 O633 2.606 . S
Gd588 O635 2.429 . S
Gd588 O636 2.545 . S
Gd588 O637 2.412 . S
Gd588 O639 2.362 . S
Gd588 O640 2.324 . S
Gd588 C647 2.828 . S
Gd589 N598 2.661 . S
Gd589 N602 2.601 . S
Gd589 O633 2.362 . S
Gd589 O634 2.324 . S
Gd589 O638 2.545 . S
Gd589 O639 2.606 . S
Gd589 O641 2.429 . S
Gd589 O642 2.545 . S
Gd589 O643 2.412 . S
Gd589 C656 2.828 . S
C590 C593 1.417 . S
C590 C595 1.431 . S
C590 C596 1.412 . S
C591 C594 1.437 . S
C591 C595 1.317 . S
C591 H610 0.929 . S
C592 C593 1.426 . S
C592 C594 1.413 . S
C592 N602 1.359 . S
C593 C590 1.417 . S
C593 C592 1.426 . S
C593 N598 1.350 . S
C594 C591 1.437 . S
C594 C592 1.413 . S
C594 C604 1.391 . S
C595 C590 1.431 . S
C595 C591 1.317 . S
C595 H606 0.930 . S
C596 C590 1.412 . S
C596 C597 1.355 . S
C596 H608 0.930 . S
C597 C596 1.355 . S
C597 C599 1.402 . S
C597 H609 0.930 . S
N598 Gd589 2.661 . S
N598 C593 1.350 . S
N598 C599 1.307 . S
C599 C597 1.402 . S
C599 N598 1.307 . S
C599 H600 0.930 . S
H600 C599 0.930 . S
C601 N602 1.334 . S
C601 C603 1.394 . S
C601 H605 0.930 . S
N602 Gd589 2.601 . S
N602 C592 1.359 . S
N602 C601 1.334 . S
C603 C601 1.394 . S
C603 C604 1.359 . S
C603 H615 0.930 . S
C604 C594 1.391 . S
C604 C603 1.359 . S
C604 H616 0.929 . S
H605 C601 0.930 . S
H606 C595 0.930 . S
H607 C624 0.930 . S
H608 C596 0.930 . S
H609 C597 0.930 . S
H610 C591 0.929 . S
H611 C629 0.930 . S
H612 C620 0.930 1_554 S
H613 C621 0.930 . S
H614 C645 0.929 . S
H615 C603 0.930 . S
H616 C604 0.929 . S
H617 C646 0.930 1_554 S
H618 C627 0.930 . S
N619 Gd588 2.661 . S
N619 C623 1.350 . S
N619 C624 1.307 . S
C620 H612 0.930 1_556 S
C620 C621 1.355 . S
C620 C622 1.412 . S
C621 H613 0.930 . S
C621 C620 1.355 . S
C621 C624 1.402 . S
C622 C620 1.412 . S
C622 C623 1.417 . S
C622 C646 1.431 . S
C623 N619 1.350 . S
C623 C622 1.417 . S
C623 C626 1.426 . S
C624 H607 0.930 . S
C624 N619 1.307 . S
C624 C621 1.402 . S
N625 Gd588 2.601 . S
N625 C626 1.359 . S
N625 C629 1.334 . S
C626 C623 1.426 . S
C626 N625 1.359 . S
C626 C630 1.413 . S
C627 H618 0.930 . S
C627 C628 1.359 . S
C627 C629 1.394 . S
C628 C627 1.359 . S
C628 C630 1.391 . S
C628 H631 0.929 . S
C629 H611 0.930 . S
C629 N625 1.334 . S
C629 C627 1.394 . S
C630 C626 1.413 . S
C630 C628 1.391 . S
C630 C645 1.437 . S
H631 C628 0.929 . S
O632 Gd588 2.545 . S
O632 C647 1.258 . S
O633 Gd588 2.606 . S
O633 Gd589 2.362 . S
O633 C644 1.284 . S
O634 Gd589 2.324 . S
O634 C654 1.254 . S
O635 Gd588 2.429 . S
O635 C654 1.268 . S
O636 Gd588 2.545 . S
O636 C644 1.250 . S
O637 Gd588 2.412 . S
O637 C647 1.252 . S
O638 Gd589 2.545 . S
O638 C656 1.258 . S
O639 Gd588 2.362 . S
O639 Gd589 2.606 . S
O639 C655 1.284 . S
O640 Gd588 2.324 . S
O640 C663 1.254 . S
O641 Gd589 2.429 . S
O641 C663 1.268 . S
O642 Gd589 2.545 . S
O642 C655 1.250 . S
O643 Gd589 2.412 . S
O643 C656 1.252 . S
C644 O633 1.284 . S
C644 O636 1.250 . S
C645 H614 0.929 . S
C645 C630 1.437 . S
C645 C646 1.317 . S
C646 H617 0.930 1_556 S
C646 C622 1.431 . S
C646 C645 1.317 . S
C647 Gd588 2.828 . S
C647 O632 1.258 . S
C647 O637 1.252 . S
C647 C648 1.497 . S
C648 C647 1.497 . S
C648 C649 1.395 . S
C648 C650 1.380 . S
C649 C648 1.395 . S
C649 C652 1.398 . S
C649 H664 0.930 . S
C650 C648 1.380 . S
C650 C651 1.391 . S
C650 H665 0.930 . S
C651 C650 1.391 . S
C651 C653 1.387 . S
C652 C649 1.398 . S
C652 C653 1.380 . S
C652 H666 0.930 . S
C653 C651 1.387 . S
C653 C652 1.380 . S
C653 H667 0.930 . S
C654 O634 1.254 . S
C654 O635 1.268 . S
C655 O639 1.284 . S
C655 O642 1.250 . S
C656 Gd589 2.828 . S
C656 O638 1.258 . S
C656 O643 1.252 . S
C656 C657 1.497 . S
C657 C656 1.497 . S
C657 C658 1.395 . S
C657 C659 1.380 . S
C658 C657 1.395 . S
C658 C661 1.398 . S
C658 H668 0.930 . S
C659 C657 1.380 . S
C659 C660 1.391 . S
C659 H669 0.930 . S
C660 C659 1.391 . S
C660 C662 1.387 . S
C661 C658 1.398 . S
C661 C662 1.380 . S
C661 H670 0.930 . S
C662 C660 1.387 . S
C662 C661 1.380 . S
C662 H671 0.930 . S
C663 O640 1.254 . S
C663 O641 1.268 . S
H664 C649 0.930 . S
H665 C650 0.930 . S
H666 C652 0.930 . S
H667 C653 0.930 . S
H668 C658 0.930 . S
H669 C659 0.930 . S
H670 C661 0.930 . S
H671 C662 0.930 . S
Gd672 N703 2.661 . S
Gd672 N709 2.601 . S
Gd672 O716 2.545 . S
Gd672 O717 2.606 1_565 S
Gd672 O719 2.429 1_565 S
Gd672 O720 2.545 . S
Gd672 O721 2.412 . S
Gd672 O723 2.362 1_565 S
Gd672 O724 2.324 . S
Gd672 C731 2.828 . S
Gd673 N682 2.661 . S
Gd673 N686 2.601 . S
Gd673 O717 2.362 . S
Gd673 O718 2.324 . S
Gd673 O722 2.545 . S
Gd673 O723 2.606 . S
Gd673 O725 2.429 . S
Gd673 O726 2.545 . S
Gd673 O727 2.412 . S
Gd673 C740 2.828 . S
C674 C677 1.417 . S
C674 C679 1.431 . S
C674 C680 1.412 . S
C675 C678 1.437 . S
C675 C679 1.317 . S
C675 H694 0.929 . S
C676 C677 1.426 . S
C676 C678 1.413 . S
C676 N686 1.359 . S
C677 C674 1.417 . S
C677 C676 1.426 . S
C677 N682 1.350 . S
C678 C675 1.437 . S
C678 C676 1.413 . S
C678 C688 1.391 . S
C679 C674 1.431 . S
C679 C675 1.317 . S
C679 H690 0.930 . S
C680 C674 1.412 . S
C680 C681 1.355 . S
C680 H692 0.930 . S
C681 C680 1.355 . S
C681 C683 1.402 . S
C681 H693 0.930 . S
N682 Gd673 2.661 . S
N682 C677 1.350 . S
N682 C683 1.307 . S
C683 C681 1.402 . S
C683 N682 1.307 . S
C683 H684 0.930 . S
H684 C683 0.930 . S
C685 N686 1.334 . S
C685 C687 1.394 . S
C685 H689 0.930 . S
N686 Gd673 2.601 . S
N686 C676 1.359 . S
N686 C685 1.334 . S
C687 C685 1.394 . S
C687 C688 1.359 . S
C687 H699 0.930 1_455 S
C688 C678 1.391 . S
C688 C687 1.359 . S
C688 H700 0.929 . S
H689 C685 0.930 . S
H690 C679 0.930 . S
H691 C708 0.930 1_655 S
H692 C680 0.930 . S
H693 C681 0.930 . S
H694 C675 0.929 . S
H695 C713 0.930 . S
H696 C704 0.930 . S
H697 C705 0.930 . S
H698 C729 0.929 . S
H699 C687 0.930 1_655 S
H700 C688 0.929 . S
H701 C730 0.930 . S
H702 C711 0.930 . S
N703 Gd672 2.661 . S
N703 C707 1.350 . S
N703 C708 1.307 . S
C704 H696 0.930 . S
C704 C705 1.355 . S
C704 C706 1.412 1_655 S
C705 H697 0.930 . S
C705 C704 1.355 . S
C705 C708 1.402 1_655 S
C706 C704 1.412 1_455 S
C706 C707 1.417 . S
C706 C730 1.431 . S
C707 N703 1.350 . S
C707 C706 1.417 . S
C707 C710 1.426 . S
C708 H691 0.930 1_455 S
C708 N703 1.307 . S
C708 C705 1.402 1_455 S
N709 Gd672 2.601 . S
N709 C710 1.359 . S
N709 C713 1.334 . S
C710 C707 1.426 . S
C710 N709 1.359 . S
C710 C714 1.413 . S
C711 H702 0.930 . S
C711 C712 1.359 . S
C711 C713 1.394 . S
C712 C711 1.359 . S
C712 C714 1.391 . S
C712 H715 0.929 . S
C713 H695 0.930 . S
C713 N709 1.334 . S
C713 C711 1.394 . S
C714 C710 1.413 . S
C714 C712 1.391 . S
C714 C729 1.437 . S
H715 C712 0.929 . S
O716 Gd672 2.545 . S
O716 C731 1.258 . S
O717 Gd672 2.606 1_545 S
O717 Gd673 2.362 . S
O717 C728 1.284 . S
O718 Gd673 2.324 . S
O718 C738 1.254 . S
O719 Gd672 2.429 1_545 S
O719 C738 1.268 . S
O720 Gd672 2.545 . S
O720 C728 1.250 1_565 S
O721 Gd672 2.412 . S
O721 C731 1.252 . S
O722 Gd673 2.545 . S
O722 C740 1.258 . S
O723 Gd672 2.362 1_545 S
O723 Gd673 2.606 . S
O723 C739 1.284 . S
O724 Gd672 2.324 . S
O724 C747 1.254 1_565 S
O725 Gd673 2.429 . S
O725 C747 1.268 . S
O726 Gd673 2.545 . S
O726 C739 1.250 . S
O727 Gd673 2.412 . S
O727 C740 1.252 . S
C728 O717 1.284 . S
C728 O720 1.250 1_545 S
C729 H698 0.929 . S
C729 C714 1.437 . S
C729 C730 1.317 . S
C730 H701 0.930 . S
C730 C706 1.431 . S
C730 C729 1.317 . S
C731 Gd672 2.828 . S
C731 O716 1.258 . S
C731 O721 1.252 . S
C731 C732 1.497 . S
C732 C731 1.497 . S
C732 C733 1.395 . S
C732 C734 1.380 . S
C733 C732 1.395 . S
C733 C736 1.398 . S
C733 H748 0.930 . S
C734 C732 1.380 . S
C734 C735 1.391 . S
C734 H749 0.930 . S
C735 C734 1.391 . S
C735 C737 1.387 . S
C736 C733 1.398 . S
C736 C737 1.380 . S
C736 H750 0.930 . S
C737 C735 1.387 . S
C737 C736 1.380 . S
C737 H751 0.930 . S
C738 O718 1.254 . S
C738 O719 1.268 . S
C739 O723 1.284 . S
C739 O726 1.250 . S
C740 Gd673 2.828 . S
C740 O722 1.258 . S
C740 O727 1.252 . S
C740 C741 1.497 . S
C741 C740 1.497 . S
C741 C742 1.395 . S
C741 C743 1.380 . S
C742 C741 1.395 . S
C742 C745 1.398 . S
C742 H752 0.930 . S
C743 C741 1.380 . S
C743 C744 1.391 . S
C743 H753 0.930 . S
C744 C743 1.391 . S
C744 C746 1.387 . S
C745 C742 1.398 . S
C745 C746 1.380 . S
C745 H754 0.930 . S
C746 C744 1.387 . S
C746 C745 1.380 . S
C746 H755 0.930 . S
C747 O724 1.254 1_545 S
C747 O725 1.268 . S
H748 C733 0.930 . S
H749 C734 0.930 . S
H750 C736 0.930 . S
H751 C737 0.930 . S
H752 C742 0.930 . S
H753 C743 0.930 . S
H754 C745 0.930 . S
H755 C746 0.930 . S
Gd756 N787 2.661 . S
Gd756 N793 2.601 . S
Gd756 O800 2.545 . S
Gd756 O801 2.606 . S
Gd756 O803 2.429 . S
Gd756 O804 2.545 . S
Gd756 O805 2.412 . S
Gd756 O807 2.362 . S
Gd756 O808 2.324 . S
Gd756 C815 2.828 . S
Gd757 N766 2.661 . S
Gd757 N770 2.601 . S
Gd757 O801 2.362 . S
Gd757 O802 2.324 . S
Gd757 O806 2.545 . S
Gd757 O807 2.606 . S
Gd757 O809 2.429 . S
Gd757 O810 2.545 . S
Gd757 O811 2.412 . S
Gd757 C824 2.828 . S
C758 C761 1.417 1_545 S
C758 C763 1.431 . S
C758 C764 1.412 . S
C759 C762 1.437 . S
C759 C763 1.317 1_565 S
C759 H778 0.929 1_565 S
C760 C761 1.426 . S
C760 C762 1.413 . S
C760 N770 1.359 . S
C761 C758 1.417 1_565 S
C761 C760 1.426 . S
C761 N766 1.350 . S
C762 C759 1.437 . S
C762 C760 1.413 . S
C762 C772 1.391 . S
C763 C758 1.431 . S
C763 C759 1.317 1_545 S
C763 H774 0.930 . S
C764 C758 1.412 . S
C764 C765 1.355 . S
C764 H776 0.930 . S
C765 C764 1.355 . S
C765 C767 1.402 1_545 S
C765 H777 0.930 . S
N766 Gd757 2.661 . S
N766 C761 1.350 . S
N766 C767 1.307 . S
C767 C765 1.402 1_565 S
C767 N766 1.307 . S
C767 H768 0.930 . S
H768 C767 0.930 . S
C769 N770 1.334 . S
C769 C771 1.394 . S
C769 H773 0.930 . S
N770 Gd757 2.601 . S
N770 C760 1.359 . S
N770 C769 1.334 . S
C771 C769 1.394 . S
C771 C772 1.359 . S
C771 H783 0.930 . S
C772 C762 1.391 . S
C772 C771 1.359 . S
C772 H784 0.929 . S
H773 C769 0.930 . S
H774 C763 0.930 . S
H775 C792 0.930 . S
H776 C764 0.930 . S
H777 C765 0.930 . S
H778 C759 0.929 1_545 S
H779 C797 0.930 . S
H780 C788 0.930 . S
H781 C789 0.930 . S
H782 C813 0.929 . S
H783 C771 0.930 . S
H784 C772 0.929 . S
H785 C814 0.930 . S
H786 C795 0.930 1_554 S
N787 Gd756 2.661 . S
N787 C791 1.350 . S
N787 C792 1.307 . S
C788 H780 0.930 . S
C788 C789 1.355 . S
C788 C790 1.412 . S
C789 H781 0.930 . S
C789 C788 1.355 . S
C789 C792 1.402 . S
C790 C788 1.412 . S
C790 C791 1.417 . S
C790 C814 1.431 . S
C791 N787 1.350 . S
C791 C790 1.417 . S
C791 C794 1.426 . S
C792 H775 0.930 . S
C792 N787 1.307 . S
C792 C789 1.402 . S
N793 Gd756 2.601 . S
N793 C794 1.359 . S
N793 C797 1.334 . S
C794 C791 1.426 . S
C794 N793 1.359 . S
C794 C798 1.413 . S
C795 H786 0.930 1_556 S
C795 C796 1.359 . S
C795 C797 1.394 . S
C796 C795 1.359 . S
C796 C798 1.391 . S
C796 H799 0.929 1_556 S
C797 H779 0.930 . S
C797 N793 1.334 . S
C797 C795 1.394 . S
C798 C794 1.413 . S
C798 C796 1.391 . S
C798 C813 1.437 . S
H799 C796 0.929 1_554 S
O800 Gd756 2.545 . S
O800 C815 1.258 . S
O801 Gd756 2.606 . S
O801 Gd757 2.362 . S
O801 C812 1.284 . S
O802 Gd757 2.324 . S
O802 C822 1.254 . S
O803 Gd756 2.429 . S
O803 C822 1.268 . S
O804 Gd756 2.545 . S
O804 C812 1.250 . S
O805 Gd756 2.412 . S
O805 C815 1.252 . S
O806 Gd757 2.545 . S
O806 C824 1.258 . S
O807 Gd756 2.362 . S
O807 Gd757 2.606 . S
O807 C823 1.284 . S
O808 Gd756 2.324 . S
O808 C831 1.254 . S
O809 Gd757 2.429 . S
O809 C831 1.268 . S
O810 Gd757 2.545 . S
O810 C823 1.250 . S
O811 Gd757 2.412 . S
O811 C824 1.252 . S
C812 O801 1.284 . S
C812 O804 1.250 . S
C813 H782 0.929 . S
C813 C798 1.437 . S
C813 C814 1.317 . S
C814 H785 0.930 . S
C814 C790 1.431 . S
C814 C813 1.317 . S
C815 Gd756 2.828 . S
C815 O800 1.258 . S
C815 O805 1.252 . S
C815 C816 1.497 . S
C816 C815 1.497 . S
C816 C817 1.395 . S
C816 C818 1.380 . S
C817 C816 1.395 . S
C817 C820 1.398 . S
C817 H832 0.930 . S
C818 C816 1.380 . S
C818 C819 1.391 . S
C818 H833 0.930 . S
C819 C818 1.391 . S
C819 C821 1.387 . S
C820 C817 1.398 . S
C820 C821 1.380 . S
C820 H834 0.930 . S
C821 C819 1.387 . S
C821 C820 1.380 . S
C821 H835 0.930 . S
C822 O802 1.254 . S
C822 O803 1.268 . S
C823 O807 1.284 . S
C823 O810 1.250 . S
C824 Gd757 2.828 . S
C824 O806 1.258 . S
C824 O811 1.252 . S
C824 C825 1.497 . S
C825 C824 1.497 . S
C825 C826 1.395 . S
C825 C827 1.380 . S
C826 C825 1.395 . S
C826 C829 1.398 . S
C826 H836 0.930 . S
C827 C825 1.380 . S
C827 C828 1.391 . S
C827 H837 0.930 . S
C828 C827 1.391 . S
C828 C830 1.387 . S
C829 C826 1.398 . S
C829 C830 1.380 . S
C829 H838 0.930 . S
C830 C828 1.387 . S
C830 C829 1.380 . S
C830 H839 0.930 . S
C831 O808 1.254 . S
C831 O809 1.268 . S
H832 C817 0.930 . S
H833 C818 0.930 . S
H834 C820 0.930 . S
H835 C821 0.930 . S
H836 C826 0.930 . S
H837 C827 0.930 . S
H838 C829 0.930 . S
H839 C830 0.930 . S
Gd840 N871 2.661 . S
Gd840 N877 2.601 . S
Gd840 O884 2.545 . S
Gd840 O885 2.606 1_556 S
Gd840 O887 2.429 1_556 S
Gd840 O888 2.545 1_556 S
Gd840 O889 2.412 . S
Gd840 O891 2.362 1_556 S
Gd840 O892 2.324 . S
Gd840 C899 2.828 . S
Gd841 N850 2.661 . S
Gd841 N854 2.601 . S
Gd841 O885 2.362 . S
Gd841 O886 2.324 . S
Gd841 O890 2.545 1_545 S
Gd841 O891 2.606 . S
Gd841 O893 2.429 1_545 S
Gd841 O894 2.545 1_545 S
Gd841 O895 2.412 . S
Gd841 C908 2.828 1_545 S
C842 C845 1.417 . S
C842 C847 1.431 . S
C842 C848 1.412 . S
C843 C846 1.437 . S
C843 C847 1.317 . S
C843 H862 0.929 . S
C844 C845 1.426 . S
C844 C846 1.413 . S
C844 N854 1.359 . S
C845 C842 1.417 . S
C845 C844 1.426 . S
C845 N850 1.350 . S
C846 C843 1.437 . S
C846 C844 1.413 . S
C846 C856 1.391 1_545 S
C847 C842 1.431 . S
C847 C843 1.317 . S
C847 H858 0.930 . S
C848 C842 1.412 . S
C848 C849 1.355 . S
C848 H860 0.930 . S
C849 C848 1.355 . S
C849 C851 1.402 . S
C849 H861 0.930 . S
N850 Gd841 2.661 . S
N850 C845 1.350 . S
N850 C851 1.307 . S
C851 C849 1.402 . S
C851 N850 1.307 . S
C851 H852 0.930 . S
H852 C851 0.930 . S
C853 N854 1.334 1_565 S
C853 C855 1.394 . S
C853 H857 0.930 . S
N854 Gd841 2.601 . S
N854 C844 1.359 . S
N854 C853 1.334 1_545 S
C855 C853 1.394 . S
C855 C856 1.359 . S
C855 H867 0.930 . S
C856 C846 1.391 1_565 S
C856 C855 1.359 . S
C856 H868 0.929 . S
H857 C853 0.930 . S
H858 C847 0.930 . S
H859 C876 0.930 . S
H860 C848 0.930 . S
H861 C849 0.930 . S
H862 C843 0.929 . S
H863 C881 0.930 . S
H864 C872 0.930 . S
H865 C873 0.930 . S
H866 C897 0.929 . S
H867 C855 0.930 . S
H868 C856 0.929 . S
H869 C898 0.930 . S
H870 C879 0.930 . S
N871 Gd840 2.661 . S
N871 C875 1.350 . S
N871 C876 1.307 1_545 S
C872 H864 0.930 . S
C872 C873 1.355 . S
C872 C874 1.412 1_565 S
C873 H865 0.930 . S
C873 C872 1.355 . S
C873 C876 1.402 . S
C874 C872 1.412 1_545 S
C874 C875 1.417 . S
C874 C898 1.431 . S
C875 N871 1.350 . S
C875 C874 1.417 . S
C875 C878 1.426 . S
C876 H859 0.930 . S
C876 N871 1.307 1_565 S
C876 C873 1.402 . S
N877 Gd840 2.601 . S
N877 C878 1.359 . S
N877 C881 1.334 . S
C878 C875 1.426 . S
C878 N877 1.359 . S
C878 C882 1.413 . S
C879 H870 0.930 . S
C879 C880 1.359 . S
C879 C881 1.394 . S
C880 C879 1.359 . S
C880 C882 1.391 . S
C880 H883 0.929 . S
C881 H863 0.930 . S
C881 N877 1.334 . S
C881 C879 1.394 . S
C882 C878 1.413 . S
C882 C880 1.391 . S
C882 C897 1.437 . S
H883 C880 0.929 . S
O884 Gd840 2.545 . S
O884 C899 1.258 . S
O885 Gd840 2.606 1_554 S
O885 Gd841 2.362 . S
O885 C896 1.284 . S
O886 Gd841 2.324 . S
O886 C906 1.254 . S
O887 Gd840 2.429 1_554 S
O887 C906 1.268 . S
O888 Gd840 2.545 1_554 S
O888 C896 1.250 . S
O889 Gd840 2.412 . S
O889 C899 1.252 . S
O890 Gd841 2.545 1_565 S
O890 C908 1.258 . S
O891 Gd840 2.362 1_554 S
O891 Gd841 2.606 . S
O891 C907 1.284 . S
O892 Gd840 2.324 . S
O892 C915 1.254 1_545 S
O893 Gd841 2.429 1_565 S
O893 C915 1.268 1_554 S
O894 Gd841 2.545 1_565 S
O894 C907 1.250 1_565 S
O895 Gd841 2.412 . S
O895 C908 1.252 1_545 S
C896 O885 1.284 . S
C896 O888 1.250 . S
C897 H866 0.929 . S
C897 C882 1.437 . S
C897 C898 1.317 . S
C898 H869 0.930 . S
C898 C874 1.431 . S
C898 C897 1.317 . S
C899 Gd840 2.828 . S
C899 O884 1.258 . S
C899 O889 1.252 . S
C899 C900 1.497 . S
C900 C899 1.497 . S
C900 C901 1.395 . S
C900 C902 1.380 . S
C901 C900 1.395 . S
C901 C904 1.398 . S
C901 H916 0.930 . S
C902 C900 1.380 . S
C902 C903 1.391 . S
C902 H917 0.930 . S
C903 C902 1.391 . S
C903 C905 1.387 . S
C904 C901 1.398 . S
C904 C905 1.380 . S
C904 H918 0.930 . S
C905 C903 1.387 . S
C905 C904 1.380 . S
C905 H919 0.930 . S
C906 O886 1.254 . S
C906 O887 1.268 . S
C907 O891 1.284 . S
C907 O894 1.250 1_545 S
C908 Gd841 2.828 1_565 S
C908 O890 1.258 . S
C908 O895 1.252 1_565 S
C908 C909 1.497 . S
C909 C908 1.497 . S
C909 C910 1.395 . S
C909 C911 1.380 1_565 S
C910 C909 1.395 . S
C910 C913 1.398 . S
C910 H920 0.930 . S
C911 C909 1.380 1_545 S
C911 C912 1.391 1_545 S
C911 H921 0.930 . S
C912 C911 1.391 1_565 S
C912 C914 1.387 . S
C913 C910 1.398 . S
C913 C914 1.380 . S
C913 H922 0.930 . S
C914 C912 1.387 . S
C914 C913 1.380 . S
C914 H923 0.930 . S
C915 O892 1.254 1_565 S
C915 O893 1.268 1_556 S
H916 C901 0.930 . S
H917 C902 0.930 . S
H918 C904 0.930 . S
H919 C905 0.930 . S
H920 C910 0.930 . S
H921 C911 0.930 . S
H922 C913 0.930 . S
H923 C914 0.930 . S
Gd924 N955 2.661 . S
Gd924 N961 2.601 . S
Gd924 O968 2.545 . S
Gd924 O969 2.606 . S
Gd924 O971 2.429 . S
Gd924 O972 2.545 . S
Gd924 O973 2.412 . S
Gd924 O975 2.362 . S
Gd924 O976 2.324 . S
Gd924 C983 2.828 . S
Gd925 N934 2.661 . S
Gd925 N938 2.601 . S
Gd925 O969 2.362 . S
Gd925 O970 2.324 . S
Gd925 O974 2.545 . S
Gd925 O975 2.606 . S
Gd925 O977 2.429 . S
Gd925 O978 2.545 . S
Gd925 O979 2.412 . S
Gd925 C992 2.828 . S
C926 C929 1.417 . S
C926 C931 1.431 . S
C926 C932 1.412 . S
C927 C930 1.437 . S
C927 C931 1.317 . S
C927 H946 0.929 . S
C928 C929 1.426 . S
C928 C930 1.413 . S
C928 N938 1.359 . S
C929 C926 1.417 . S
C929 C928 1.426 . S
C929 N934 1.350 . S
C930 C927 1.437 . S
C930 C928 1.413 . S
C930 C940 1.391 . S
C931 C926 1.431 . S
C931 C927 1.317 . S
C931 H942 0.930 . S
C932 C926 1.412 . S
C932 C933 1.355 . S
C932 H944 0.930 . S
C933 C932 1.355 . S
C933 C935 1.402 . S
C933 H945 0.930 . S
N934 Gd925 2.661 . S
N934 C929 1.350 . S
N934 C935 1.307 . S
C935 C933 1.402 . S
C935 N934 1.307 . S
C935 H936 0.930 . S
H936 C935 0.930 . S
C937 N938 1.334 . S
C937 C939 1.394 . S
C937 H941 0.930 . S
N938 Gd925 2.601 . S
N938 C928 1.359 . S
N938 C937 1.334 . S
C939 C937 1.394 . S
C939 C940 1.359 . S
C939 H951 0.930 . S
C940 C930 1.391 . S
C940 C939 1.359 . S
C940 H952 0.929 . S
H941 C937 0.930 . S
H942 C931 0.930 . S
H943 C960 0.930 . S
H944 C932 0.930 . S
H945 C933 0.930 . S
H946 C927 0.929 . S
H947 C965 0.930 . S
H948 C956 0.930 . S
H949 C957 0.930 . S
H950 C981 0.929 . S
H951 C939 0.930 . S
H952 C940 0.929 . S
H953 C982 0.930 . S
H954 C963 0.930 . S
N955 Gd924 2.661 . S
N955 C959 1.350 . S
N955 C960 1.307 . S
C956 H948 0.930 . S
C956 C957 1.355 . S
C956 C958 1.412 . S
C957 H949 0.930 . S
C957 C956 1.355 . S
C957 C960 1.402 . S
C958 C956 1.412 . S
C958 C959 1.417 . S
C958 C982 1.431 . S
C959 N955 1.350 . S
C959 C958 1.417 . S
C959 C962 1.426 . S
C960 H943 0.930 . S
C960 N955 1.307 . S
C960 C957 1.402 . S
N961 Gd924 2.601 . S
N961 C962 1.359 . S
N961 C965 1.334 . S
C962 C959 1.426 . S
C962 N961 1.359 . S
C962 C966 1.413 . S
C963 H954 0.930 . S
C963 C964 1.359 . S
C963 C965 1.394 . S
C964 C963 1.359 . S
C964 C966 1.391 . S
C964 H967 0.929 . S
C965 H947 0.930 . S
C965 N961 1.334 . S
C965 C963 1.394 . S
C966 C962 1.413 . S
C966 C964 1.391 . S
C966 C981 1.437 . S
H967 C964 0.929 . S
O968 Gd924 2.545 . S
O968 C983 1.258 . S
O969 Gd924 2.606 . S
O969 Gd925 2.362 . S
O969 C980 1.284 . S
O970 Gd925 2.324 . S
O970 C990 1.254 . S
O971 Gd924 2.429 . S
O971 C990 1.268 . S
O972 Gd924 2.545 . S
O972 C980 1.250 . S
O973 Gd924 2.412 . S
O973 C983 1.252 . S
O974 Gd925 2.545 . S
O974 C992 1.258 . S
O975 Gd924 2.362 . S
O975 Gd925 2.606 . S
O975 C991 1.284 . S
O976 Gd924 2.324 . S
O976 C999 1.254 . S
O977 Gd925 2.429 . S
O977 C999 1.268 . S
O978 Gd925 2.545 . S
O978 C991 1.250 . S
O979 Gd925 2.412 . S
O979 C992 1.252 . S
C980 O969 1.284 . S
C980 O972 1.250 . S
C981 H950 0.929 . S
C981 C966 1.437 . S
C981 C982 1.317 . S
C982 H953 0.930 . S
C982 C958 1.431 . S
C982 C981 1.317 . S
C983 Gd924 2.828 . S
C983 O968 1.258 . S
C983 O973 1.252 . S
C983 C984 1.497 . S
C984 C983 1.497 . S
C984 C985 1.395 . S
C984 C986 1.380 . S
C985 C984 1.395 . S
C985 C988 1.398 1_545 S
C985 H1000 0.930 . S
C986 C984 1.380 . S
C986 C987 1.391 . S
C986 H1001 0.930 . S
C987 C986 1.391 . S
C987 C989 1.387 1_545 S
C988 C985 1.398 1_565 S
C988 C989 1.380 . S
C988 H1002 0.930 . S
C989 C987 1.387 1_565 S
C989 C988 1.380 . S
C989 H1003 0.930 . S
C990 O970 1.254 . S
C990 O971 1.268 . S
C991 O975 1.284 . S
C991 O978 1.250 . S
C992 Gd925 2.828 . S
C992 O974 1.258 . S
C992 O979 1.252 . S
C992 C993 1.497 . S
C993 C992 1.497 . S
C993 C994 1.395 . S
C993 C995 1.380 . S
C994 C993 1.395 . S
C994 C997 1.398 . S
C994 H1004 0.930 . S
C995 C993 1.380 . S
C995 C996 1.391 . S
C995 H1005 0.930 . S
C996 C995 1.391 . S
C996 C998 1.387 . S
C997 C994 1.398 . S
C997 C998 1.380 . S
C997 H1006 0.930 . S
C998 C996 1.387 . S
C998 C997 1.380 . S
C998 H1007 0.930 . S
C999 O976 1.254 . S
C999 O977 1.268 . S
H1000 C985 0.930 . S
H1001 C986 0.930 . S
H1002 C988 0.930 . S
H1003 C989 0.930 . S
H1004 C994 0.930 . S
H1005 C995 0.930 . S
H1006 C997 0.930 . S
H1007 C998 0.930 . S
Gd1008 N1039 2.661 1_554 S
Gd1008 N1045 2.601 1_554 S
Gd1008 O1052 2.545 . S
Gd1008 O1053 2.606 . S
Gd1008 O1055 2.429 . S
Gd1008 O1056 2.545 . S
Gd1008 O1057 2.412 . S
Gd1008 O1059 2.362 1_554 S
Gd1008 O1060 2.324 . S
Gd1008 C1067 2.828 . S
Gd1009 N1018 2.661 . S
Gd1009 N1022 2.601 . S
Gd1009 O1053 2.362 . S
Gd1009 O1054 2.324 . S
Gd1009 O1058 2.545 . S
Gd1009 O1059 2.606 1_554 S
Gd1009 O1061 2.429 . S
Gd1009 O1062 2.545 1_554 S
Gd1009 O1063 2.412 . S
Gd1009 C1076 2.828 . S
C1010 C1013 1.417 . S
C1010 C1015 1.431 . S
C1010 C1016 1.412 . S
C1011 C1014 1.437 . S
C1011 C1015 1.317 . S
C1011 H1030 0.929 . S
C1012 C1013 1.426 . S
C1012 C1014 1.413 . S
C1012 N1022 1.359 . S
C1013 C1010 1.417 . S
C1013 C1012 1.426 . S
C1013 N1018 1.350 . S
C1014 C1011 1.437 . S
C1014 C1012 1.413 . S
C1014 C1024 1.391 . S
C1015 C1010 1.431 . S
C1015 C1011 1.317 . S
C1015 H1026 0.930 . S
C1016 C1010 1.412 . S
C1016 C1017 1.355 . S
C1016 H1028 0.930 . S
C1017 C1016 1.355 . S
C1017 C1019 1.402 . S
C1017 H1029 0.930 . S
N1018 Gd1009 2.661 . S
N1018 C1013 1.350 . S
N1018 C1019 1.307 . S
C1019 C1017 1.402 . S
C1019 N1018 1.307 . S
C1019 H1020 0.930 . S
H1020 C1019 0.930 . S
C1021 N1022 1.334 . S
C1021 C1023 1.394 . S
C1021 H1025 0.930 . S
N1022 Gd1009 2.601 . S
N1022 C1012 1.359 . S
N1022 C1021 1.334 . S
C1023 C1021 1.394 . S
C1023 C1024 1.359 . S
C1023 H1035 0.930 . S
C1024 C1014 1.391 . S
C1024 C1023 1.359 . S
C1024 H1036 0.929 . S
H1025 C1021 0.930 . S
H1026 C1015 0.930 . S
H1027 C1044 0.930 . S
H1028 C1016 0.930 . S
H1029 C1017 0.930 . S
H1030 C1011 0.929 . S
H1031 C1049 0.930 . S
H1032 C1040 0.930 . S
H1033 C1041 0.930 . S
H1034 C1065 0.929 . S
H1035 C1023 0.930 . S
H1036 C1024 0.929 . S
H1037 C1066 0.930 . S
H1038 C1047 0.930 . S
N1039 Gd1008 2.661 1_556 S
N1039 C1043 1.350 . S
N1039 C1044 1.307 . S
C1040 H1032 0.930 . S
C1040 C1041 1.355 . S
C1040 C1042 1.412 . S
C1041 H1033 0.930 . S
C1041 C1040 1.355 . S
C1041 C1044 1.402 . S
C1042 C1040 1.412 . S
C1042 C1043 1.417 . S
C1042 C1066 1.431 . S
C1043 N1039 1.350 . S
C1043 C1042 1.417 . S
C1043 C1046 1.426 . S
C1044 H1027 0.930 . S
C1044 N1039 1.307 . S
C1044 C1041 1.402 . S
N1045 Gd1008 2.601 1_556 S
N1045 C1046 1.359 . S
N1045 C1049 1.334 . S
C1046 C1043 1.426 . S
C1046 N1045 1.359 . S
C1046 C1050 1.413 . S
C1047 H1038 0.930 . S
C1047 C1048 1.359 . S
C1047 C1049 1.394 . S
C1048 C1047 1.359 . S
C1048 C1050 1.391 . S
C1048 H1051 0.929 . S
C1049 H1031 0.930 . S
C1049 N1045 1.334 . S
C1049 C1047 1.394 . S
C1050 C1046 1.413 . S
C1050 C1048 1.391 . S
C1050 C1065 1.437 . S
H1051 C1048 0.929 . S
O1052 Gd1008 2.545 . S
O1052 C1067 1.258 . S
O1053 Gd1008 2.606 . S
O1053 Gd1009 2.362 . S
O1053 C1064 1.284 . S
O1054 Gd1009 2.324 . S
O1054 C1074 1.254 . S
O1055 Gd1008 2.429 . S
O1055 C1074 1.268 . S
O1056 Gd1008 2.545 . S
O1056 C1064 1.250 . S
O1057 Gd1008 2.412 . S
O1057 C1067 1.252 . S
O1058 Gd1009 2.545 . S
O1058 C1076 1.258 . S
O1059 Gd1008 2.362 1_556 S
O1059 Gd1009 2.606 1_556 S
O1059 C1075 1.284 . S
O1060 Gd1008 2.324 . S
O1060 C1083 1.254 . S
O1061 Gd1009 2.429 . S
O1061 C1083 1.268 . S
O1062 Gd1009 2.545 1_556 S
O1062 C1075 1.250 . S
O1063 Gd1009 2.412 . S
O1063 C1076 1.252 . S
C1064 O1053 1.284 . S
C1064 O1056 1.250 . S
C1065 H1034 0.929 . S
C1065 C1050 1.437 . S
C1065 C1066 1.317 . S
C1066 H1037 0.930 . S
C1066 C1042 1.431 . S
C1066 C1065 1.317 . S
C1067 Gd1008 2.828 . S
C1067 O1052 1.258 . S
C1067 O1057 1.252 . S
C1067 C1068 1.497 . S
C1068 C1067 1.497 . S
C1068 C1069 1.395 1_554 S
C1068 C1070 1.380 . S
C1069 C1068 1.395 1_556 S
C1069 C1072 1.404 . S
C1069 H1084 0.930 . S
C1070 C1068 1.380 . S
C1070 C1071 1.391 . S
C1070 H1085 0.930 . S
C1071 C1070 1.391 . S
C1071 C1073 1.387 . S
C1072 C1069 1.404 . S
C1072 C1073 1.369 1_556 S
C1072 H1086 0.935 . S
C1073 C1071 1.387 . S
C1073 C1072 1.369 1_554 S
C1073 H1087 0.930 . S
C1074 O1054 1.254 . S
C1074 O1055 1.268 . S
C1075 O1059 1.284 . S
C1075 O1062 1.250 . S
C1076 Gd1009 2.828 . S
C1076 O1058 1.258 . S
C1076 O1063 1.252 . S
C1076 C1077 1.497 . S
C1077 C1076 1.497 . S
C1077 C1078 1.395 . S
C1077 C1079 1.380 . S
C1078 C1077 1.395 . S
C1078 C1081 1.398 . S
C1078 H1088 0.930 . S
C1079 C1077 1.380 . S
C1079 C1080 1.391 . S
C1079 H1089 0.930 . S
C1080 C1079 1.391 . S
C1080 C1082 1.387 . S
C1081 C1078 1.398 . S
C1081 C1082 1.380 . S
C1081 H1090 0.930 . S
C1082 C1080 1.387 . S
C1082 C1081 1.380 . S
C1082 H1091 0.930 . S
C1083 O1060 1.254 . S
C1083 O1061 1.268 . S
H1084 C1069 0.930 . S
H1085 C1070 0.930 . S
H1086 C1072 0.935 . S
H1087 C1073 0.930 . S
H1088 C1078 0.930 . S
H1089 C1079 0.930 . S
H1090 C1081 0.930 . S
H1091 C1082 0.930 . S
Gd1092 N1123 2.661 . S
Gd1092 N1129 2.601 . S
Gd1092 O1136 2.545 . S
Gd1092 O1137 2.606 . S
Gd1092 O1139 2.429 . S
Gd1092 O1140 2.545 . S
Gd1092 O1141 2.412 . S
Gd1092 O1143 2.362 . S
Gd1092 O1144 2.324 . S
Gd1092 C1151 2.828 . S
Gd1093 N1102 2.661 . S
Gd1093 N1106 2.601 . S
Gd1093 O1137 2.362 . S
Gd1093 O1138 2.324 . S
Gd1093 O1142 2.545 . S
Gd1093 O1143 2.606 . S
Gd1093 O1145 2.429 . S
Gd1093 O1146 2.545 . S
Gd1093 O1147 2.412 . S
Gd1093 C1160 2.828 . S
C1094 C1097 1.417 . S
C1094 C1099 1.431 . S
C1094 C1100 1.412 . S
C1095 C1098 1.437 . S
C1095 C1099 1.317 . S
C1095 H1114 0.929 . S
C1096 C1097 1.426 . S
C1096 C1098 1.413 . S
C1096 N1106 1.359 . S
C1097 C1094 1.417 . S
C1097 C1096 1.426 . S
C1097 N1102 1.350 . S
C1098 C1095 1.437 . S
C1098 C1096 1.413 . S
C1098 C1108 1.391 . S
C1099 C1094 1.431 . S
C1099 C1095 1.317 . S
C1099 H1110 0.930 . S
C1100 C1094 1.412 . S
C1100 C1101 1.355 . S
C1100 H1112 0.930 . S
C1101 C1100 1.355 . S
C1101 C1103 1.402 . S
C1101 H1113 0.930 . S
N1102 Gd1093 2.661 . S
N1102 C1097 1.350 . S
N1102 C1103 1.307 . S
C1103 C1101 1.402 . S
C1103 N1102 1.307 . S
C1103 H1104 0.930 . S
H1104 C1103 0.930 . S
C1105 N1106 1.334 . S
C1105 C1107 1.394 . S
C1105 H1109 0.930 . S
N1106 Gd1093 2.601 . S
N1106 C1096 1.359 . S
N1106 C1105 1.334 . S
C1107 C1105 1.394 . S
C1107 C1108 1.359 . S
C1107 H1119 0.930 . S
C1108 C1098 1.391 . S
C1108 C1107 1.359 . S
C1108 H1120 0.929 . S
H1109 C1105 0.930 . S
H1110 C1099 0.930 . S
H1111 C1128 0.930 . S
H1112 C1100 0.930 . S
H1113 C1101 0.930 . S
H1114 C1095 0.929 . S
H1115 C1133 0.930 . S
H1116 C1124 0.930 . S
H1117 C1125 0.930 . S
H1118 C1149 0.929 . S
H1119 C1107 0.930 . S
H1120 C1108 0.929 . S
H1121 C1150 0.930 . S
H1122 C1131 0.930 . S
N1123 Gd1092 2.661 . S
N1123 C1127 1.350 . S
N1123 C1128 1.307 . S
C1124 H1116 0.930 . S
C1124 C1125 1.355 . S
C1124 C1126 1.412 . S
C1125 H1117 0.930 . S
C1125 C1124 1.355 . S
C1125 C1128 1.402 . S
C1126 C1124 1.412 . S
C1126 C1127 1.417 . S
C1126 C1150 1.431 . S
C1127 N1123 1.350 . S
C1127 C1126 1.417 . S
C1127 C1130 1.426 . S
C1128 H1111 0.930 . S
C1128 N1123 1.307 . S
C1128 C1125 1.402 . S
N1129 Gd1092 2.601 . S
N1129 C1130 1.359 . S
N1129 C1133 1.334 . S
C1130 C1127 1.426 . S
C1130 N1129 1.359 . S
C1130 C1134 1.413 . S
C1131 H1122 0.930 . S
C1131 C1132 1.359 . S
C1131 C1133 1.394 . S
C1132 C1131 1.359 . S
C1132 C1134 1.391 . S
C1132 H1135 0.929 . S
C1133 H1115 0.930 . S
C1133 N1129 1.334 . S
C1133 C1131 1.394 . S
C1134 C1130 1.413 . S
C1134 C1132 1.391 . S
C1134 C1149 1.437 . S
H1135 C1132 0.929 . S
O1136 Gd1092 2.545 . S
O1136 C1151 1.258 . S
O1137 Gd1092 2.606 . S
O1137 Gd1093 2.362 . S
O1137 C1148 1.284 . S
O1138 Gd1093 2.324 . S
O1138 C1158 1.254 . S
O1139 Gd1092 2.429 . S
O1139 C1158 1.268 . S
O1140 Gd1092 2.545 . S
O1140 C1148 1.250 . S
O1141 Gd1092 2.412 . S
O1141 C1151 1.252 . S
O1142 Gd1093 2.545 . S
O1142 C1160 1.258 . S
O1143 Gd1092 2.362 . S
O1143 Gd1093 2.606 . S
O1143 C1159 1.284 . S
O1144 Gd1092 2.324 . S
O1144 C1167 1.254 . S
O1145 Gd1093 2.429 . S
O1145 C1167 1.268 . S
O1146 Gd1093 2.545 . S
O1146 C1159 1.250 . S
O1147 Gd1093 2.412 . S
O1147 C1160 1.252 . S
C1148 O1137 1.284 . S
C1148 O1140 1.250 . S
C1149 H1118 0.929 . S
C1149 C1134 1.437 . S
C1149 C1150 1.317 . S
C1150 H1121 0.930 . S
C1150 C1126 1.431 . S
C1150 C1149 1.317 . S
C1151 Gd1092 2.828 . S
C1151 O1136 1.258 . S
C1151 O1141 1.252 . S
C1151 C1152 1.497 . S
C1152 C1151 1.497 . S
C1152 C1153 1.395 . S
C1152 C1154 1.380 . S
C1153 C1152 1.395 . S
C1153 C1156 1.398 . S
C1153 H1168 0.930 . S
C1154 C1152 1.380 . S
C1154 C1155 1.391 . S
C1154 H1169 0.930 . S
C1155 C1154 1.391 . S
C1155 C1157 1.387 . S
C1156 C1153 1.398 . S
C1156 C1157 1.380 . S
C1156 H1170 0.930 . S
C1157 C1155 1.387 . S
C1157 C1156 1.380 . S
C1157 H1171 0.930 . S
C1158 O1138 1.254 . S
C1158 O1139 1.268 . S
C1159 O1143 1.284 . S
C1159 O1146 1.250 . S
C1160 Gd1093 2.828 . S
C1160 O1142 1.258 . S
C1160 O1147 1.252 . S
C1160 C1161 1.497 1_655 S
C1161 C1160 1.497 1_455 S
C1161 C1162 1.395 . S
C1161 C1163 1.380 . S
C1162 C1161 1.395 . S
C1162 C1165 1.398 . S
C1162 H1172 0.930 . S
C1163 C1161 1.380 . S
C1163 C1164 1.391 . S
C1163 H1173 0.930 . S
C1164 C1163 1.391 . S
C1164 C1166 1.387 . S
C1165 C1162 1.398 . S
C1165 C1166 1.380 . S
C1165 H1174 0.930 . S
C1166 C1164 1.387 . S
C1166 C1165 1.380 . S
C1166 H1175 0.930 . S
C1167 O1144 1.254 . S
C1167 O1145 1.268 . S
H1168 C1153 0.930 . S
H1169 C1154 0.930 . S
H1170 C1156 0.930 . S
H1171 C1157 0.930 . S
H1172 C1162 0.930 . S
H1173 C1163 0.930 . S
H1174 C1165 0.930 . S
H1175 C1166 0.930 . S
Gd1176 N1207 2.661 . S
Gd1176 N1213 2.601 . S
Gd1176 O1220 2.545 . S
Gd1176 O1221 2.606 . S
Gd1176 O1223 2.429 . S
Gd1176 O1224 2.545 . S
Gd1176 O1225 2.412 . S
Gd1176 O1227 2.362 . S
Gd1176 O1228 2.324 . S
Gd1176 C1235 2.828 . S
Gd1177 N1186 2.661 . S
Gd1177 N1190 2.601 . S
Gd1177 O1221 2.362 . S
Gd1177 O1222 2.324 . S
Gd1177 O1226 2.545 . S
Gd1177 O1227 2.606 . S
Gd1177 O1229 2.429 . S
Gd1177 O1230 2.545 . S
Gd1177 O1231 2.412 . S
Gd1177 C1244 2.828 . S
C1178 C1181 1.417 . S
C1178 C1183 1.431 . S
C1178 C1184 1.412 . S
C1179 C1182 1.437 . S
C1179 C1183 1.317 . S
C1179 H1198 0.929 . S
C1180 C1181 1.426 . S
C1180 C1182 1.413 . S
C1180 N1190 1.359 . S
C1181 C1178 1.417 . S
C1181 C1180 1.426 . S
C1181 N1186 1.350 . S
C1182 C1179 1.437 . S
C1182 C1180 1.413 . S
C1182 C1192 1.391 . S
C1183 C1178 1.431 . S
C1183 C1179 1.317 . S
C1183 H1194 0.930 . S
C1184 C1178 1.412 . S
C1184 C1185 1.355 . S
C1184 H1196 0.930 . S
C1185 C1184 1.355 . S
C1185 C1187 1.402 . S
C1185 H1197 0.930 . S
N1186 Gd1177 2.661 . S
N1186 C1181 1.350 . S
N1186 C1187 1.307 . S
C1187 C1185 1.402 . S
C1187 N1186 1.307 . S
C1187 H1188 0.930 . S
H1188 C1187 0.930 . S
C1189 N1190 1.334 . S
C1189 C1191 1.394 . S
C1189 H1193 0.930 . S
N1190 Gd1177 2.601 . S
N1190 C1180 1.359 . S
N1190 C1189 1.334 . S
C1191 C1189 1.394 . S
C1191 C1192 1.359 . S
C1191 H1203 0.930 . S
C1192 C1182 1.391 . S
C1192 C1191 1.359 . S
C1192 H1204 0.929 . S
H1193 C1189 0.930 . S
H1194 C1183 0.930 . S
H1195 C1212 0.930 . S
H1196 C1184 0.930 . S
H1197 C1185 0.930 . S
H1198 C1179 0.929 . S
H1199 C1217 0.930 . S
H1200 C1208 0.930 . S
H1201 C1209 0.930 . S
H1202 C1233 0.929 . S
H1203 C1191 0.930 . S
H1204 C1192 0.929 . S
H1205 C1234 0.930 . S
H1206 C1215 0.930 . S
N1207 Gd1176 2.661 . S
N1207 C1211 1.350 . S
N1207 C1212 1.307 . S
C1208 H1200 0.930 . S
C1208 C1209 1.355 . S
C1208 C1210 1.412 . S
C1209 H1201 0.930 . S
C1209 C1208 1.355 . S
C1209 C1212 1.402 1_655 S
C1210 C1208 1.412 . S
C1210 C1211 1.417 1_655 S
C1210 C1234 1.431 . S
C1211 N1207 1.350 . S
C1211 C1210 1.417 1_455 S
C1211 C1214 1.426 . S
C1212 H1195 0.930 . S
C1212 N1207 1.307 . S
C1212 C1209 1.402 1_455 S
N1213 Gd1176 2.601 . S
N1213 C1214 1.359 . S
N1213 C1217 1.334 . S
C1214 C1211 1.426 . S
C1214 N1213 1.359 . S
C1214 C1218 1.413 1_455 S
C1215 H1206 0.930 . S
C1215 C1216 1.359 1_455 S
C1215 C1217 1.394 . S
C1216 C1215 1.359 1_655 S
C1216 C1218 1.391 . S
C1216 H1219 0.929 . S
C1217 H1199 0.930 . S
C1217 N1213 1.334 . S
C1217 C1215 1.394 . S
C1218 C1214 1.413 1_655 S
C1218 C1216 1.391 . S
C1218 C1233 1.437 . S
H1219 C1216 0.929 . S
O1220 Gd1176 2.545 . S
O1220 C1235 1.258 . S
O1221 Gd1176 2.606 . S
O1221 Gd1177 2.362 . S
O1221 C1232 1.284 . S
O1222 Gd1177 2.324 . S
O1222 C1242 1.254 . S
O1223 Gd1176 2.429 . S
O1223 C1242 1.268 . S
O1224 Gd1176 2.545 . S
O1224 C1232 1.250 . S
O1225 Gd1176 2.412 . S
O1225 C1235 1.252 . S
O1226 Gd1177 2.545 . S
O1226 C1244 1.258 . S
O1227 Gd1176 2.362 . S
O1227 Gd1177 2.606 . S
O1227 C1243 1.284 . S
O1228 Gd1176 2.324 . S
O1228 C1251 1.254 . S
O1229 Gd1177 2.429 . S
O1229 C1251 1.268 . S
O1230 Gd1177 2.545 . S
O1230 C1243 1.250 . S
O1231 Gd1177 2.412 . S
O1231 C1244 1.252 . S
C1232 O1221 1.284 . S
C1232 O1224 1.250 . S
C1233 H1202 0.929 . S
C1233 C1218 1.437 . S
C1233 C1234 1.317 . S
C1234 H1205 0.930 . S
C1234 C1210 1.431 . S
C1234 C1233 1.317 . S
C1235 Gd1176 2.828 . S
C1235 O1220 1.258 . S
C1235 O1225 1.252 . S
C1235 C1236 1.497 . S
C1236 C1235 1.497 . S
C1236 C1237 1.395 . S
C1236 C1238 1.380 . S
C1237 C1236 1.395 . S
C1237 C1240 1.398 . S
C1237 H1252 0.930 . S
C1238 C1236 1.380 . S
C1238 C1239 1.391 . S
C1238 H1253 0.930 . S
C1239 C1238 1.391 . S
C1239 C1241 1.387 . S
C1240 C1237 1.398 . S
C1240 C1241 1.380 . S
C1240 H1254 0.930 . S
C1241 C1239 1.387 . S
C1241 C1240 1.380 . S
C1241 H1255 0.930 . S
C1242 O1222 1.254 . S
C1242 O1223 1.268 . S
C1243 O1227 1.284 . S
C1243 O1230 1.250 . S
C1244 Gd1177 2.828 . S
C1244 O1226 1.258 . S
C1244 O1231 1.252 . S
C1244 C1245 1.497 . S
C1245 C1244 1.497 . S
C1245 C1246 1.395 . S
C1245 C1247 1.380 . S
C1246 C1245 1.395 . S
C1246 C1249 1.398 . S
C1246 H1256 0.930 . S
C1247 C1245 1.380 . S
C1247 C1248 1.391 1_455 S
C1247 H1257 0.930 . S
C1248 C1247 1.391 1_655 S
C1248 C1250 1.387 . S
C1249 C1246 1.398 . S
C1249 C1250 1.380 1_455 S
C1249 H1258 0.930 . S
C1250 C1248 1.387 . S
C1250 C1249 1.380 1_655 S
C1250 H1259 0.930 . S
C1251 O1228 1.254 . S
C1251 O1229 1.268 . S
H1252 C1237 0.930 . S
H1253 C1238 0.930 . S
H1254 C1240 0.930 . S
H1255 C1241 0.930 . S
H1256 C1246 0.930 . S
H1257 C1247 0.930 . S
H1258 C1249 0.930 . S
H1259 C1250 0.930 . S
Gd1260 N1291 2.661 . S
Gd1260 N1297 2.601 . S
Gd1260 O1304 2.545 . S
Gd1260 O1305 2.606 . S
Gd1260 O1307 2.429 . S
Gd1260 O1308 2.545 . S
Gd1260 O1309 2.412 . S
Gd1260 O1311 2.362 . S
Gd1260 O1312 2.324 . S
Gd1260 C1319 2.828 . S
Gd1261 N1270 2.661 . S
Gd1261 N1274 2.601 . S
Gd1261 O1305 2.362 . S
Gd1261 O1306 2.324 . S
Gd1261 O1310 2.545 . S
Gd1261 O1311 2.606 . S
Gd1261 O1313 2.429 . S
Gd1261 O1314 2.545 . S
Gd1261 O1315 2.412 . S
Gd1261 C1328 2.828 . S
C1262 C1265 1.417 . S
C1262 C1267 1.431 . S
C1262 C1268 1.412 . S
C1263 C1266 1.437 . S
C1263 C1267 1.317 . S
C1263 H1282 0.929 . S
C1264 C1265 1.426 . S
C1264 C1266 1.413 . S
C1264 N1274 1.359 . S
C1265 C1262 1.417 . S
C1265 C1264 1.426 . S
C1265 N1270 1.350 . S
C1266 C1263 1.437 . S
C1266 C1264 1.413 . S
C1266 C1276 1.391 . S
C1267 C1262 1.431 . S
C1267 C1263 1.317 . S
C1267 H1278 0.930 . S
C1268 C1262 1.412 . S
C1268 C1269 1.355 . S
C1268 H1280 0.930 . S
C1269 C1268 1.355 . S
C1269 C1271 1.402 . S
C1269 H1281 0.930 . S
N1270 Gd1261 2.661 . S
N1270 C1265 1.350 . S
N1270 C1271 1.307 . S
C1271 C1269 1.402 . S
C1271 N1270 1.307 . S
C1271 H1272 0.930 . S
H1272 C1271 0.930 . S
C1273 N1274 1.334 . S
C1273 C1275 1.394 . S
C1273 H1277 0.930 . S
N1274 Gd1261 2.601 . S
N1274 C1264 1.359 . S
N1274 C1273 1.334 . S
C1275 C1273 1.394 . S
C1275 C1276 1.359 . S
C1275 H1287 0.930 . S
C1276 C1266 1.391 . S
C1276 C1275 1.359 . S
C1276 H1288 0.929 . S
H1277 C1273 0.930 . S
H1278 C1267 0.930 . S
H1279 C1296 0.930 . S
H1280 C1268 0.930 . S
H1281 C1269 0.930 . S
H1282 C1263 0.929 . S
H1283 C1301 0.930 . S
H1284 C1292 0.930 . S
H1285 C1293 0.930 . S
H1286 C1317 0.929 . S
H1287 C1275 0.930 . S
H1288 C1276 0.929 . S
H1289 C1318 0.930 . S
H1290 C1299 0.930 . S
N1291 Gd1260 2.661 . S
N1291 C1295 1.350 . S
N1291 C1296 1.307 . S
C1292 H1284 0.930 . S
C1292 C1293 1.355 1_455 S
C1292 C1294 1.412 1_455 S
C1293 H1285 0.930 . S
C1293 C1292 1.355 1_655 S
C1293 C1296 1.402 . S
C1294 C1292 1.412 1_655 S
C1294 C1295 1.417 . S
C1294 C1318 1.431 1_655 S
C1295 N1291 1.350 . S
C1295 C1294 1.417 . S
C1295 C1298 1.426 . S
C1296 H1279 0.930 . S
C1296 N1291 1.307 . S
C1296 C1293 1.402 . S
N1297 Gd1260 2.601 . S
N1297 C1298 1.359 . S
N1297 C1301 1.334 . S
C1298 C1295 1.426 . S
C1298 N1297 1.359 . S
C1298 C1302 1.413 . S
C1299 H1290 0.930 . S
C1299 C1300 1.359 . S
C1299 C1301 1.394 . S
C1300 C1299 1.359 . S
C1300 C1302 1.391 . S
C1300 H1303 0.929 . S
C1301 H1283 0.930 . S
C1301 N1297 1.334 . S
C1301 C1299 1.394 . S
C1302 C1298 1.413 . S
C1302 C1300 1.391 . S
C1302 C1317 1.437 1_655 S
H1303 C1300 0.929 . S
O1304 Gd1260 2.545 . S
O1304 C1319 1.258 . S
O1305 Gd1260 2.606 . S
O1305 Gd1261 2.362 . S
O1305 C1316 1.284 . S
O1306 Gd1261 2.324 . S
O1306 C1326 1.254 . S
O1307 Gd1260 2.429 . S
O1307 C1326 1.268 . S
O1308 Gd1260 2.545 . S
O1308 C1316 1.250 . S
O1309 Gd1260 2.412 . S
O1309 C1319 1.252 . S
O1310 Gd1261 2.545 . S
O1310 C1328 1.258 . S
O1311 Gd1260 2.362 . S
O1311 Gd1261 2.606 . S
O1311 C1327 1.284 . S
O1312 Gd1260 2.324 . S
O1312 C1335 1.254 . S
O1313 Gd1261 2.429 . S
O1313 C1335 1.268 . S
O1314 Gd1261 2.545 . S
O1314 C1327 1.250 . S
O1315 Gd1261 2.412 . S
O1315 C1328 1.252 . S
C1316 O1305 1.284 . S
C1316 O1308 1.250 . S
C1317 H1286 0.929 . S
C1317 C1302 1.437 1_455 S
C1317 C1318 1.317 . S
C1318 H1289 0.930 . S
C1318 C1294 1.431 1_455 S
C1318 C1317 1.317 . S
C1319 Gd1260 2.828 . S
C1319 O1304 1.258 . S
C1319 O1309 1.252 . S
C1319 C1320 1.497 1_655 S
C1320 C1319 1.497 1_455 S
C1320 C1321 1.395 . S
C1320 C1322 1.380 . S
C1321 C1320 1.395 . S
C1321 C1324 1.398 . S
C1321 H1336 0.930 . S
C1322 C1320 1.380 . S
C1322 C1323 1.391 . S
C1322 H1337 0.930 . S
C1323 C1322 1.391 . S
C1323 C1325 1.387 . S
C1324 C1321 1.398 . S
C1324 C1325 1.380 . S
C1324 H1338 0.930 . S
C1325 C1323 1.387 . S
C1325 C1324 1.380 . S
C1325 H1339 0.930 . S
C1326 O1306 1.254 . S
C1326 O1307 1.268 . S
C1327 O1311 1.284 . S
C1327 O1314 1.250 . S
C1328 Gd1261 2.828 . S
C1328 O1310 1.258 . S
C1328 O1315 1.252 . S
C1328 C1329 1.497 . S
C1329 C1328 1.497 . S
C1329 C1330 1.395 . S
C1329 C1331 1.380 . S
C1330 C1329 1.395 . S
C1330 C1333 1.398 . S
C1330 H1340 0.930 . S
C1331 C1329 1.380 . S
C1331 C1332 1.391 . S
C1331 H1341 0.930 . S
C1332 C1331 1.391 . S
C1332 C1334 1.387 . S
C1333 C1330 1.398 . S
C1333 C1334 1.380 . S
C1333 H1342 0.930 . S
C1334 C1332 1.387 . S
C1334 C1333 1.380 . S
C1334 H1343 0.930 . S
C1335 O1312 1.254 . S
C1335 O1313 1.268 . S
H1336 C1321 0.930 . S
H1337 C1322 0.930 . S
H1338 C1324 0.930 . S
H1339 C1325 0.930 . S
H1340 C1330 0.930 . S
H1341 C1331 0.930 . S
H1342 C1333 0.930 . S
H1343 C1334 0.930 . S
Gd1344 N1375 2.661 . S
Gd1344 N1381 2.601 . S
Gd1344 O1388 2.545 . S
Gd1344 O1389 2.606 . S
Gd1344 O1391 2.429 . S
Gd1344 O1392 2.545 . S
Gd1344 O1393 2.412 . S
Gd1344 O1395 2.362 . S
Gd1344 O1396 2.324 . S
Gd1344 C1403 2.828 . S
Gd1345 N1354 2.661 . S
Gd1345 N1358 2.601 . S
Gd1345 O1389 2.362 . S
Gd1345 O1390 2.324 . S
Gd1345 O1394 2.545 . S
Gd1345 O1395 2.606 . S
Gd1345 O1397 2.429 . S
Gd1345 O1398 2.545 . S
Gd1345 O1399 2.412 . S
Gd1345 C1412 2.828 . S
C1346 C1349 1.417 . S
C1346 C1351 1.431 . S
C1346 C1352 1.412 . S
C1347 C1350 1.437 . S
C1347 C1351 1.317 . S
C1347 H1366 0.929 . S
C1348 C1349 1.426 . S
C1348 C1350 1.413 . S
C1348 N1358 1.359 . S
C1349 C1346 1.417 . S
C1349 C1348 1.426 . S
C1349 N1354 1.350 . S
C1350 C1347 1.437 . S
C1350 C1348 1.413 . S
C1350 C1360 1.391 . S
C1351 C1346 1.431 . S
C1351 C1347 1.317 . S
C1351 H1362 0.930 . S
C1352 C1346 1.412 . S
C1352 C1353 1.355 . S
C1352 H1364 0.930 . S
C1353 C1352 1.355 . S
C1353 C1355 1.402 . S
C1353 H1365 0.930 . S
N1354 Gd1345 2.661 . S
N1354 C1349 1.350 . S
N1354 C1355 1.307 . S
C1355 C1353 1.402 . S
C1355 N1354 1.307 . S
C1355 H1356 0.930 . S
H1356 C1355 0.930 . S
C1357 N1358 1.334 . S
C1357 C1359 1.394 . S
C1357 H1361 0.930 . S
N1358 Gd1345 2.601 . S
N1358 C1348 1.359 . S
N1358 C1357 1.334 . S
C1359 C1357 1.394 . S
C1359 C1360 1.359 . S
C1359 H1371 0.930 . S
C1360 C1350 1.391 . S
C1360 C1359 1.359 . S
C1360 H1372 0.929 . S
H1361 C1357 0.930 . S
H1362 C1351 0.930 . S
H1363 C1380 0.930 . S
H1364 C1352 0.930 . S
H1365 C1353 0.930 . S
H1366 C1347 0.929 . S
H1367 C1385 0.930 . S
H1368 C1376 0.930 . S
H1369 C1377 0.930 . S
H1370 C1401 0.929 . S
H1371 C1359 0.930 . S
H1372 C1360 0.929 . S
H1373 C1402 0.930 . S
H1374 C1383 0.930 . S
N1375 Gd1344 2.661 . S
N1375 C1379 1.350 . S
N1375 C1380 1.307 . S
C1376 H1368 0.930 . S
C1376 C1377 1.355 1_554 S
C1376 C1378 1.412 1_554 S
C1377 H1369 0.930 . S
C1377 C1376 1.355 1_556 S
C1377 C1380 1.402 . S
C1378 C1376 1.412 1_556 S
C1378 C1379 1.417 . S
C1378 C1402 1.431 1_556 S
C1379 N1375 1.350 . S
C1379 C1378 1.417 . S
C1379 C1382 1.426 . S
C1380 H1363 0.930 . S
C1380 N1375 1.307 . S
C1380 C1377 1.402 . S
N1381 Gd1344 2.601 . S
N1381 C1382 1.359 . S
N1381 C1385 1.334 . S
C1382 C1379 1.426 . S
C1382 N1381 1.359 . S
C1382 C1386 1.413 . S
C1383 H1374 0.930 . S
C1383 C1384 1.359 . S
C1383 C1385 1.394 . S
C1384 C1383 1.359 . S
C1384 C1386 1.391 . S
C1384 H1387 0.929 . S
C1385 H1367 0.930 . S
C1385 N1381 1.334 . S
C1385 C1383 1.394 . S
C1386 C1382 1.413 . S
C1386 C1384 1.391 . S
C1386 C1401 1.437 1_556 S
H1387 C1384 0.929 . S
O1388 Gd1344 2.545 . S
O1388 C1403 1.258 . S
O1389 Gd1344 2.606 . S
O1389 Gd1345 2.362 . S
O1389 C1400 1.284 . S
O1390 Gd1345 2.324 . S
O1390 C1410 1.254 . S
O1391 Gd1344 2.429 . S
O1391 C1410 1.268 . S
O1392 Gd1344 2.545 . S
O1392 C1400 1.250 . S
O1393 Gd1344 2.412 . S
O1393 C1403 1.252 . S
O1394 Gd1345 2.545 . S
O1394 C1412 1.258 . S
O1395 Gd1344 2.362 . S
O1395 Gd1345 2.606 . S
O1395 C1411 1.284 . S
O1396 Gd1344 2.324 . S
O1396 C1419 1.254 . S
O1397 Gd1345 2.429 . S
O1397 C1419 1.268 . S
O1398 Gd1345 2.545 . S
O1398 C1411 1.250 . S
O1399 Gd1345 2.412 . S
O1399 C1412 1.252 . S
C1400 O1389 1.284 . S
C1400 O1392 1.250 . S
C1401 H1370 0.929 . S
C1401 C1386 1.437 1_554 S
C1401 C1402 1.317 . S
C1402 H1373 0.930 . S
C1402 C1378 1.431 1_554 S
C1402 C1401 1.317 . S
C1403 Gd1344 2.828 . S
C1403 O1388 1.258 . S
C1403 O1393 1.252 . S
C1403 C1404 1.497 . S
C1404 C1403 1.497 . S
C1404 C1405 1.395 . S
C1404 C1406 1.380 . S
C1405 C1404 1.395 . S
C1405 C1408 1.398 1_556 S
C1405 H1420 0.930 . S
C1406 C1404 1.380 . S
C1406 C1407 1.391 1_556 S
C1406 H1421 0.930 . S
C1407 C1406 1.391 1_554 S
C1407 C1409 1.387 . S
C1408 C1405 1.398 1_554 S
C1408 C1409 1.380 . S
C1408 H1422 0.930 . S
C1409 C1407 1.387 . S
C1409 C1408 1.380 . S
C1409 H1423 0.930 . S
C1410 O1390 1.254 . S
C1410 O1391 1.268 . S
C1411 O1395 1.284 . S
C1411 O1398 1.250 . S
C1412 Gd1345 2.828 . S
C1412 O1394 1.258 . S
C1412 O1399 1.252 . S
C1412 C1413 1.497 . S
C1413 C1412 1.497 . S
C1413 C1414 1.395 . S
C1413 C1415 1.380 . S
C1414 C1413 1.395 . S
C1414 C1417 1.398 . S
C1414 H1424 0.930 . S
C1415 C1413 1.380 . S
C1415 C1416 1.391 . S
C1415 H1425 0.930 . S
C1416 C1415 1.391 . S
C1416 C1418 1.387 . S
C1417 C1414 1.398 . S
C1417 C1418 1.380 . S
C1417 H1426 0.930 1_655 S
C1418 C1416 1.387 . S
C1418 C1417 1.380 . S
C1418 H1427 0.930 . S
C1419 O1396 1.254 . S
C1419 O1397 1.268 . S
H1420 C1405 0.930 . S
H1421 C1406 0.930 . S
H1422 C1408 0.930 . S
H1423 C1409 0.930 . S
H1424 C1414 0.930 . S
H1425 C1415 0.930 . S
H1426 C1417 0.930 1_455 S
H1427 C1418 0.930 . S
Gd1428 N1459 2.661 . S
Gd1428 N1465 2.601 . S
Gd1428 O1472 2.545 . S
Gd1428 O1473 2.606 . S
Gd1428 O1475 2.429 . S
Gd1428 O1476 2.545 . S
Gd1428 O1477 2.412 . S
Gd1428 O1479 2.362 . S
Gd1428 O1480 2.324 . S
Gd1428 C1487 2.828 . S
Gd1429 N1438 2.661 . S
Gd1429 N1442 2.601 . S
Gd1429 O1473 2.362 . S
Gd1429 O1474 2.324 . S
Gd1429 O1478 2.545 . S
Gd1429 O1479 2.606 . S
Gd1429 O1481 2.429 . S
Gd1429 O1482 2.545 . S
Gd1429 O1483 2.412 . S
Gd1429 C1496 2.828 . S
C1430 C1433 1.417 1_455 S
C1430 C1435 1.431 . S
C1430 C1436 1.412 . S
C1431 C1434 1.437 . S
C1431 C1435 1.317 . S
C1431 H1450 0.929 1_565 S
C1432 C1433 1.426 . S
C1432 C1434 1.413 1_655 S
C1432 N1442 1.359 . S
C1433 C1430 1.417 1_655 S
C1433 C1432 1.426 . S
C1433 N1438 1.350 . S
C1434 C1431 1.437 . S
C1434 C1432 1.413 1_455 S
C1434 C1444 1.391 . S
C1435 C1430 1.431 . S
C1435 C1431 1.317 . S
C1435 H1446 0.930 . S
C1436 C1430 1.412 . S
C1436 C1437 1.355 1_455 S
C1436 H1448 0.930 . S
C1437 C1436 1.355 1_655 S
C1437 C1439 1.402 . S
C1437 H1449 0.930 . S
N1438 Gd1429 2.661 . S
N1438 C1433 1.350 . S
N1438 C1439 1.307 . S
C1439 C1437 1.402 . S
C1439 N1438 1.307 . S
C1439 H1440 0.930 . S
H1440 C1439 0.930 . S
C1441 N1442 1.334 . S
C1441 C1443 1.394 . S
C1441 H1445 0.930 . S
N1442 Gd1429 2.601 . S
N1442 C1432 1.359 . S
N1442 C1441 1.334 . S
C1443 C1441 1.394 . S
C1443 C1444 1.359 1_655 S
C1443 H1455 0.930 1_556 S
C1444 C1434 1.391 . S
C1444 C1443 1.359 1_455 S
C1444 H1456 0.929 1_565 S
H1445 C1441 0.930 . S
H1446 C1435 0.930 . S
H1447 C1464 0.930 . S
H1448 C1436 0.930 . S
H1449 C1437 0.930 . S
H1450 C1431 0.929 1_545 S
H1451 C1469 0.930 . S
H1452 C1460 0.930 . S
H1453 C1461 0.930 . S
H1454 C1485 0.929 . S
H1455 C1443 0.930 1_554 S
H1456 C1444 0.929 1_545 S
H1457 C1486 0.930 . S
H1458 C1467 0.930 . S
N1459 Gd1428 2.661 . S
N1459 C1463 1.350 . S
N1459 C1464 1.307 . S
C1460 H1452 0.930 . S
C1460 C1461 1.355 . S
C1460 C1462 1.412 . S
C1461 H1453 0.930 . S
C1461 C1460 1.355 . S
C1461 C1464 1.402 . S
C1462 C1460 1.412 . S
C1462 C1463 1.417 . S
C1462 C1486 1.431 . S
C1463 N1459 1.350 . S
C1463 C1462 1.417 . S
C1463 C1466 1.426 . S
C1464 H1447 0.930 . S
C1464 N1459 1.307 . S
C1464 C1461 1.402 . S
N1465 Gd1428 2.601 . S
N1465 C1466 1.359 . S
N1465 C1469 1.334 . S
C1466 C1463 1.426 . S
C1466 N1465 1.359 . S
C1466 C1470 1.413 . S
C1467 H1458 0.930 . S
C1467 C1468 1.359 . S
C1467 C1469 1.394 . S
C1468 C1467 1.359 . S
C1468 C1470 1.391 . S
C1468 H1471 0.929 . S
C1469 H1451 0.930 . S
C1469 N1465 1.334 . S
C1469 C1467 1.394 . S
C1470 C1466 1.413 . S
C1470 C1468 1.391 . S
C1470 C1485 1.437 . S
H1471 C1468 0.929 . S
O1472 Gd1428 2.545 . S
O1472 C1487 1.258 . S
O1473 Gd1428 2.606 . S
O1473 Gd1429 2.362 . S
O1473 C1484 1.284 . S
O1474 Gd1429 2.324 . S
O1474 C1494 1.254 . S
O1475 Gd1428 2.429 . S
O1475 C1494 1.268 . S
O1476 Gd1428 2.545 . S
O1476 C1484 1.250 . S
O1477 Gd1428 2.412 . S
O1477 C1487 1.252 . S
O1478 Gd1429 2.545 . S
O1478 C1496 1.258 . S
O1479 Gd1428 2.362 . S
O1479 Gd1429 2.606 . S
O1479 C1495 1.284 . S
O1480 Gd1428 2.324 . S
O1480 C1503 1.254 . S
O1481 Gd1429 2.429 . S
O1481 C1503 1.268 . S
O1482 Gd1429 2.545 . S
O1482 C1495 1.250 . S
O1483 Gd1429 2.412 . S
O1483 C1496 1.252 . S
C1484 O1473 1.284 . S
C1484 O1476 1.250 . S
C1485 H1454 0.929 . S
C1485 C1470 1.437 . S
C1485 C1486 1.317 . S
C1486 H1457 0.930 . S
C1486 C1462 1.431 . S
C1486 C1485 1.317 . S
C1487 Gd1428 2.828 . S
C1487 O1472 1.258 . S
C1487 O1477 1.252 . S
C1487 C1488 1.497 . S
C1488 C1487 1.497 . S
C1488 C1489 1.395 . S
C1488 C1490 1.380 . S
C1489 C1488 1.395 . S
C1489 C1492 1.398 . S
C1489 H1504 0.930 . S
C1490 C1488 1.380 . S
C1490 C1491 1.391 . S
C1490 H1505 0.930 . S
C1491 C1490 1.391 . S
C1491 C1493 1.387 . S
C1492 C1489 1.398 . S
C1492 C1493 1.380 . S
C1492 H1506 0.930 . S
C1493 C1491 1.387 . S
C1493 C1492 1.380 . S
C1493 H1507 0.930 . S
C1494 O1474 1.254 . S
C1494 O1475 1.268 . S
C1495 O1479 1.284 . S
C1495 O1482 1.250 . S
C1496 Gd1429 2.828 . S
C1496 O1478 1.258 . S
C1496 O1483 1.252 . S
C1496 C1497 1.497 1_565 S
C1497 C1496 1.497 1_545 S
C1497 C1498 1.395 . S
C1497 C1499 1.380 . S
C1498 C1497 1.395 . S
C1498 C1501 1.398 . S
C1498 H1508 0.930 . S
C1499 C1497 1.380 . S
C1499 C1500 1.391 . S
C1499 H1509 0.930 . S
C1500 C1499 1.391 . S
C1500 C1502 1.387 . S
C1501 C1498 1.398 . S
C1501 C1502 1.380 . S
C1501 H1510 0.930 . S
C1502 C1500 1.387 . S
C1502 C1501 1.380 . S
C1502 H1511 0.930 . S
C1503 O1480 1.254 . S
C1503 O1481 1.268 . S
H1504 C1489 0.930 . S
H1505 C1490 0.930 . S
H1506 C1492 0.930 . S
H1507 C1493 0.930 . S
H1508 C1498 0.930 . S
H1509 C1499 0.930 . S
H1510 C1501 0.930 . S
H1511 C1502 0.930 . S
Gd1512 N1543 2.661 . S
Gd1512 N1549 2.601 . S
Gd1512 O1556 2.545 . S
Gd1512 O1557 2.606 . S
Gd1512 O1559 2.429 . S
Gd1512 O1560 2.545 . S
Gd1512 O1561 2.412 . S
Gd1512 O1563 2.362 . S
Gd1512 O1564 2.324 . S
Gd1512 C1571 2.828 . S
Gd1513 N1522 2.661 . S
Gd1513 N1526 2.601 . S
Gd1513 O1557 2.362 . S
Gd1513 O1558 2.324 . S
Gd1513 O1562 2.545 . S
Gd1513 O1563 2.606 . S
Gd1513 O1565 2.429 . S
Gd1513 O1566 2.545 . S
Gd1513 O1567 2.412 . S
Gd1513 C1580 2.828 . S
C1514 C1517 1.417 . S
C1514 C1519 1.431 . S
C1514 C1520 1.412 . S
C1515 C1518 1.437 . S
C1515 C1519 1.317 . S
C1515 H1534 0.929 . S
C1516 C1517 1.426 . S
C1516 C1518 1.413 . S
C1516 N1526 1.359 . S
C1517 C1514 1.417 . S
C1517 C1516 1.426 . S
C1517 N1522 1.350 . S
C1518 C1515 1.437 . S
C1518 C1516 1.413 . S
C1518 C1528 1.391 . S
C1519 C1514 1.431 . S
C1519 C1515 1.317 . S
C1519 H1530 0.930 . S
C1520 C1514 1.412 . S
C1520 C1521 1.355 . S
C1520 H1532 0.930 . S
C1521 C1520 1.355 . S
C1521 C1523 1.402 . S
C1521 H1533 0.930 . S
N1522 Gd1513 2.661 . S
N1522 C1517 1.350 . S
N1522 C1523 1.307 . S
C1523 C1521 1.402 . S
C1523 N1522 1.307 . S
C1523 H1524 0.930 . S
H1524 C1523 0.930 . S
C1525 N1526 1.334 . S
C1525 C1527 1.394 . S
C1525 H1529 0.930 . S
N1526 Gd1513 2.601 . S
N1526 C1516 1.359 . S
N1526 C1525 1.334 . S
C1527 C1525 1.394 . S
C1527 C1528 1.359 . S
C1527 H1539 0.930 . S
C1528 C1518 1.391 . S
C1528 C1527 1.359 . S
C1528 H1540 0.929 . S
H1529 C1525 0.930 . S
H1530 C1519 0.930 . S
H1531 C1548 0.930 . S
H1532 C1520 0.930 . S
H1533 C1521 0.930 . S
H1534 C1515 0.929 . S
H1535 C1553 0.930 . S
H1536 C1544 0.930 . S
H1537 C1545 0.930 . S
H1538 C1569 0.929 . S
H1539 C1527 0.930 . S
H1540 C1528 0.929 . S
H1541 C1570 0.930 . S
H1542 C1551 0.930 . S
N1543 Gd1512 2.661 . S
N1543 C1547 1.350 . S
N1543 C1548 1.307 . S
C1544 H1536 0.930 . S
C1544 C1545 1.355 . S
C1544 C1546 1.412 . S
C1545 H1537 0.930 . S
C1545 C1544 1.355 . S
C1545 C1548 1.402 . S
C1546 C1544 1.412 . S
C1546 C1547 1.417 . S
C1546 C1570 1.431 . S
C1547 N1543 1.350 . S
C1547 C1546 1.417 . S
C1547 C1550 1.426 . S
C1548 H1531 0.930 . S
C1548 N1543 1.307 . S
C1548 C1545 1.402 . S
N1549 Gd1512 2.601 . S
N1549 C1550 1.359 . S
N1549 C1553 1.334 . S
C1550 C1547 1.426 . S
C1550 N1549 1.359 . S
C1550 C1554 1.413 . S
C1551 H1542 0.930 . S
C1551 C1552 1.359 . S
C1551 C1553 1.394 . S
C1552 C1551 1.359 . S
C1552 C1554 1.391 . S
C1552 H1555 0.929 . S
C1553 H1535 0.930 . S
C1553 N1549 1.334 . S
C1553 C1551 1.394 . S
C1554 C1550 1.413 . S
C1554 C1552 1.391 . S
C1554 C1569 1.437 . S
H1555 C1552 0.929 . S
O1556 Gd1512 2.545 . S
O1556 C1571 1.258 . S
O1557 Gd1512 2.606 . S
O1557 Gd1513 2.362 . S
O1557 C1568 1.284 . S
O1558 Gd1513 2.324 . S
O1558 C1578 1.254 . S
O1559 Gd1512 2.429 . S
O1559 C1578 1.268 . S
O1560 Gd1512 2.545 . S
O1560 C1568 1.250 . S
O1561 Gd1512 2.412 . S
O1561 C1571 1.252 . S
O1562 Gd1513 2.545 . S
O1562 C1580 1.258 . S
O1563 Gd1512 2.362 . S
O1563 Gd1513 2.606 . S
O1563 C1579 1.284 . S
O1564 Gd1512 2.324 . S
O1564 C1587 1.254 . S
O1565 Gd1513 2.429 . S
O1565 C1587 1.268 . S
O1566 Gd1513 2.545 . S
O1566 C1579 1.250 . S
O1567 Gd1513 2.412 . S
O1567 C1580 1.252 . S
C1568 O1557 1.284 . S
C1568 O1560 1.250 . S
C1569 H1538 0.929 . S
C1569 C1554 1.437 . S
C1569 C1570 1.317 . S
C1570 H1541 0.930 . S
C1570 C1546 1.431 . S
C1570 C1569 1.317 . S
C1571 Gd1512 2.828 . S
C1571 O1556 1.258 . S
C1571 O1561 1.252 . S
C1571 C1572 1.497 . S
C1572 C1571 1.497 . S
C1572 C1573 1.395 . S
C1572 C1574 1.380 . S
C1573 C1572 1.395 . S
C1573 C1576 1.398 . S
C1573 H1588 0.930 . S
C1574 C1572 1.380 . S
C1574 C1575 1.391 . S
C1574 H1589 0.930 . S
C1575 C1574 1.391 . S
C1575 C1577 1.387 . S
C1576 C1573 1.398 . S
C1576 C1577 1.380 . S
C1576 H1590 0.930 . S
C1577 C1575 1.387 . S
C1577 C1576 1.380 . S
C1577 H1591 0.930 . S
C1578 O1558 1.254 . S
C1578 O1559 1.268 . S
C1579 O1563 1.284 . S
C1579 O1566 1.250 . S
C1580 Gd1513 2.828 . S
C1580 O1562 1.258 . S
C1580 O1567 1.252 . S
C1580 C1581 1.497 . S
C1581 C1580 1.497 . S
C1581 C1582 1.395 . S
C1581 C1583 1.380 . S
C1582 C1581 1.395 . S
C1582 C1585 1.398 . S
C1582 H1592 0.930 . S
C1583 C1581 1.380 . S
C1583 C1584 1.391 . S
C1583 H1593 0.930 . S
C1584 C1583 1.391 . S
C1584 C1586 1.387 . S
C1585 C1582 1.398 . S
C1585 C1586 1.380 . S
C1585 H1594 0.930 . S
C1586 C1584 1.387 . S
C1586 C1585 1.380 . S
C1586 H1595 0.930 . S
C1587 O1564 1.254 . S
C1587 O1565 1.268 . S
H1588 C1573 0.930 . S
H1589 C1574 0.930 . S
H1590 C1576 0.930 . S
H1591 C1577 0.930 . S
H1592 C1582 0.930 . S
H1593 C1583 0.930 . S
H1594 C1585 0.930 . S
H1595 C1586 0.930 . S
Gd1596 N1627 2.661 1_455 S
Gd1596 N1633 2.601 . S
Gd1596 O1640 2.545 . S
Gd1596 O1641 2.606 . S
Gd1596 O1643 2.429 . S
Gd1596 O1644 2.545 . S
Gd1596 O1645 2.412 1_455 S
Gd1596 O1647 2.362 . S
Gd1596 O1648 2.324 1_554 S
Gd1596 C1655 2.828 1_455 S
Gd1597 N1606 2.661 1_556 S
Gd1597 N1610 2.600 . S
Gd1597 O1641 2.362 1_556 S
Gd1597 O1642 2.325 1_556 S
Gd1597 O1646 2.544 . S
Gd1597 O1647 2.607 1_556 S
Gd1597 O1649 2.428 . S
Gd1597 O1650 2.545 . S
Gd1597 O1651 2.412 1_556 S
Gd1597 C1664 2.828 . S
C1598 C1601 1.417 1_554 S
C1598 C1603 1.431 1_554 S
C1598 C1604 1.412 . S
C1599 C1602 1.437 . S
C1599 C1603 1.317 . S
C1599 H1618 0.929 . S
C1600 C1601 1.426 . S
C1600 C1602 1.413 . S
C1600 N1610 1.359 . S
C1601 C1598 1.417 1_556 S
C1601 C1600 1.426 . S
C1601 N1606 1.350 1_556 S
C1602 C1599 1.437 . S
C1602 C1600 1.413 . S
C1602 C1612 1.391 . S
C1603 C1598 1.431 1_556 S
C1603 C1599 1.317 . S
C1603 H1614 0.930 . S
C1604 C1598 1.412 . S
C1604 C1605 1.355 . S
C1604 H1616 0.930 . S
C1605 C1604 1.355 . S
C1605 C1607 1.402 . S
C1605 H1617 0.930 . S
N1606 Gd1597 2.661 1_554 S
N1606 C1601 1.350 1_554 S
N1606 C1607 1.307 . S
C1607 C1605 1.402 . S
C1607 N1606 1.307 . S
C1607 H1608 0.930 . S
H1608 C1607 0.930 . S
C1609 N1610 1.334 . S
C1609 C1611 1.394 . S
C1609 H1613 0.930 . S
N1610 Gd1597 2.600 . S
N1610 C1600 1.359 . S
N1610 C1609 1.334 . S
C1611 C1609 1.394 . S
C1611 C1612 1.359 . S
C1611 H1623 0.930 . S
C1612 C1602 1.391 . S
C1612 C1611 1.359 . S
C1612 H1624 0.929 . S
H1613 C1609 0.930 . S
H1614 C1603 0.930 . S
H1615 C1632 0.938 . S
H1616 C1604 0.930 . S
H1617 C1605 0.930 . S
H1618 C1599 0.929 . S
H1619 C1637 0.930 . S
H1620 C1628 0.930 . S
H1621 C1629 0.930 . S
H1622 C1653 0.929 . S
H1623 C1611 0.930 . S
H1624 C1612 0.929 . S
H1625 C1654 0.930 . S
H1626 C1635 0.930 . S
N1627 Gd1596 2.661 1_655 S
N1627 C1631 1.350 . S
N1627 C1632 1.300 1_554 S
C1628 H1620 0.930 . S
C1628 C1629 1.355 1_554 S
C1628 C1630 1.412 . S
C1629 H1621 0.930 . S
C1629 C1628 1.355 1_556 S
C1629 C1632 1.402 . S
C1630 C1628 1.412 . S
C1630 C1631 1.417 . S
C1630 C1654 1.431 . S
C1631 N1627 1.350 . S
C1631 C1630 1.417 . S
C1631 C1634 1.426 1_655 S
C1632 H1615 0.938 . S
C1632 N1627 1.300 1_556 S
C1632 C1629 1.402 . S
N1633 Gd1596 2.601 . S
N1633 C1634 1.359 . S
N1633 C1637 1.334 . S
C1634 C1631 1.426 1_455 S
C1634 N1633 1.359 . S
C1634 C1638 1.413 1_455 S
C1635 H1626 0.930 . S
C1635 C1636 1.359 . S
C1635 C1637 1.394 . S
C1636 C1635 1.359 . S
C1636 C1638 1.391 1_455 S
C1636 H1639 0.929 1_455 S
C1637 H1619 0.930 . S
C1637 N1633 1.334 . S
C1637 C1635 1.394 . S
C1638 C1634 1.413 1_655 S
C1638 C1636 1.391 1_655 S
C1638 C1653 1.437 . S
H1639 C1636 0.929 1_655 S
O1640 Gd1596 2.545 . S
O1640 C1655 1.258 1_455 S
O1641 Gd1596 2.606 . S
O1641 Gd1597 2.362 1_554 S
O1641 C1652 1.284 . S
O1642 Gd1597 2.325 1_554 S
O1642 C1662 1.254 . S
O1643 Gd1596 2.429 . S
O1643 C1662 1.268 . S
O1644 Gd1596 2.545 . S
O1644 C1652 1.250 . S
O1645 Gd1596 2.412 1_655 S
O1645 C1655 1.252 . S
O1646 Gd1597 2.544 . S
O1646 C1664 1.258 . S
O1647 Gd1596 2.362 . S
O1647 Gd1597 2.607 1_554 S
O1647 C1663 1.284 . S
O1648 Gd1596 2.324 1_556 S
O1648 C1671 1.254 . S
O1649 Gd1597 2.428 . S
O1649 C1671 1.268 . S
O1650 Gd1597 2.545 . S
O1650 C1663 1.250 1_556 S
O1651 Gd1597 2.412 1_554 S
O1651 C1664 1.252 1_554 S
C1652 O1641 1.284 . S
C1652 O1644 1.250 . S
C1653 H1622 0.929 . S
C1653 C1638 1.437 . S
C1653 C1654 1.317 . S
C1654 H1625 0.930 . S
C1654 C1630 1.431 . S
C1654 C1653 1.317 . S
C1655 Gd1596 2.828 1_655 S
C1655 O1640 1.258 1_655 S
C1655 O1645 1.252 . S
C1655 C1656 1.497 . S
C1656 C1655 1.497 . S
C1656 C1657 1.395 . S
C1656 C1658 1.380 . S
C1657 C1656 1.395 . S
C1657 C1660 1.398 . S
C1657 H1672 0.930 . S
C1658 C1656 1.380 . S
C1658 C1659 1.391 . S
C1658 H1673 0.930 . S
C1659 C1658 1.391 . S
C1659 C1661 1.387 . S
C1660 C1657 1.398 . S
C1660 C1661 1.380 . S
C1660 H1674 0.930 . S
C1661 C1659 1.387 . S
C1661 C1660 1.380 . S
C1661 H1675 0.930 . S
C1662 O1642 1.254 . S
C1662 O1643 1.268 . S
C1663 O1647 1.284 . S
C1663 O1650 1.250 1_554 S
C1664 Gd1597 2.828 . S
C1664 O1646 1.258 . S
C1664 O1651 1.252 1_556 S
C1664 C1665 1.497 . S
C1665 C1664 1.497 . S
C1665 C1666 1.395 . S
C1665 C1667 1.380 . S
C1666 C1665 1.395 . S
C1666 C1669 1.398 . S
C1666 H1676 0.930 . S
C1667 C1665 1.380 . S
C1667 C1668 1.391 . S
C1667 H1677 0.930 1_556 S
C1668 C1667 1.391 . S
C1668 C1670 1.387 . S
C1669 C1666 1.398 . S
C1669 C1670 1.380 . S
C1669 H1678 0.930 . S
C1670 C1668 1.387 . S
C1670 C1669 1.380 . S
C1670 H1679 0.930 . S
C1671 O1648 1.254 . S
C1671 O1649 1.268 . S
H1672 C1657 0.930 . S
H1673 C1658 0.930 . S
H1674 C1660 0.930 . S
H1675 C1661 0.930 . S
H1676 C1666 0.930 . S
H1677 C1667 0.930 1_554 S
H1678 C1669 0.930 . S
H1679 C1670 0.930 . S
C105 C403 2.996 . S
C65 C486 3.211 . S
C73 C571 2.252 . S
C651 C92 1.335 . S
C17 C735 3.103 . S
C828 C37 1.730 . S
C906 C49 2.597 . S
C8 C991 2.712 . S
C402 C231 2.959 . S
C241 C483 1.480 . S
C570 C273 1.639 . S
C655 C171 2.101 . S
C227 C739 2.952 . S
C831 C245 1.728 . S
C903 C269 0.559 . S
C990 C175 2.808 . S
C399 C162 2.511 . S
C289 C1074 2.488 1_556 S
C1148 C330 3.392 . S
C1243 C317 0.893 . S
C120 C987 4.215 . S
C134 C567 2.754 . S
C331 C1326 2.618 . S
C1411 C303 1.562 . S
C392 C59 2.898 . S
C1419 C107 3.191 . S
C91 C560 2.506 . S
C78 C1332 1.296 . S
C744 C7 2.711 . S
C51 C1155 1.684 . S
C915 C31 2.891 1_565 S
C1484 C22 2.583 . S
C411 C143 3.086 . S
C1416 C315 0.956 . S
C115 C579 1.753 . S
C287 C1316 2.278 . S
C147 C728 2.774 . S
C1158 C311 1.826 . S
C119 C912 0.169 . S
C283 C1503 2.708 . S
C190 C408 2.417 1_554 S
C177 C1083 2.467 . S
C260 C823 3.415 . S
C247 C1232 0.992 . S
C1500 C274 3.959 . S
C218 C576 2.572 . S
C663 C261 2.616 . S
C476 C205 1.400 . S
C77 C1579 2.996 . S
C1410 C93 3.211 . S
C101 C1663 2.251 . S
C64 C1323 1.335 . S
C45 C1071 3.103 . S
C1164 C9 1.730 . S
C1242 C21 2.597 1_455 S
C1495 C36 2.712 . S
C1578 C259 2.959 . S
C185 C1407 1.480 1_556 S
C1662 C203 1.639 . S
C1327 C213 2.101 . S
C1075 C255 2.951 . S
C189 C1167 1.728 . S
C1239 C199 0.558 . S
C217 C1494 2.808 . S
C1575 C316 2.510 . S
C135 C738 2.488 . S
C812 C148 3.392 . S
C907 C163 0.893 . S
C1491 C302 4.213 . S
C288 C1659 2.754 . S
C654 C149 2.618 . S
C487 C121 1.561 . S
C87 C1568 2.898 . S
C495 C79 3.190 . S
C63 C1652 2.506 . S
C106 C660 1.296 . S
C35 C1080 2.711 1_556 S
C819 C23 1.684 . S
C3 C1251 2.891 . S
C50 C980 2.583 . S
C1587 C325 3.086 . S
C161 C492 0.956 . S
C1671 C297 1.754 1_455 S
C133 C644 2.278 . S
C329 C1064 2.774 . S
C822 C157 1.825 . S
C301 C1248 0.168 . S
C999 C129 2.708 . S
C1584 C246 2.417 . S
C747 C219 2.467 1_445 S
C232 C1159 3.415 . S
C896 C191 0.992 . S
C204 C996 3.958 . S
C176 C1668 2.572 1_554 S
C1335 C233 2.616 . S
C1400 C275 1.399 . S
