# Generated by pormake.
# Topology llj, (12,3)-cn, num edge types: 1
# Building blocks:
#     Node 0, Type 0, BuildingBlock: QEWDON_clean_sbu_0, # of connection points: 12
#     Node 1, Type 0, BuildingBlock: QEWDON_clean_sbu_0, # of connection points: 12
#     Node 2, Type 1, BuildingBlock: OLANEW_clean_sbu_2, # of connection points: 3
#     Node 3, Type 1, BuildingBlock: OLANEW_clean_sbu_2, # of connection points: 3
#     Node 4, Type 1, BuildingBlock: OLANEW_clean_sbu_2, # of connection points: 3
#     Node 5, Type 1, BuildingBlock: OLANEW_clean_sbu_2, # of connection points: 3
#     Node 6, Type 1, BuildingBlock: OLANEW_clean_sbu_2, # of connection points: 3
#     Node 7, Type 1, BuildingBlock: OLANEW_clean_sbu_2, # of connection points: 3
#     Node 8, Type 1, BuildingBlock: OLANEW_clean_sbu_2, # of connection points: 3
#     Node 9, Type 1, BuildingBlock: OLANEW_clean_sbu_2, # of connection points: 3
#     Edge 10, Type (0, 1), BuildingBlock: XUDNAN_clean_linker_2, # of connection points: 2
#     Edge 11, Type (0, 1), BuildingBlock: XUDNAN_clean_linker_2, # of connection points: 2
#     Edge 12, Type (0, 1), BuildingBlock: XUDNAN_clean_linker_2, # of connection points: 2
#     Edge 13, Type (0, 1), BuildingBlock: XUDNAN_clean_linker_2, # of connection points: 2
#     Edge 14, Type (0, 1), BuildingBlock: XUDNAN_clean_linker_2, # of connection points: 2
#     Edge 15, Type (0, 1), BuildingBlock: XUDNAN_clean_linker_2, # of connection points: 2
#     Edge 16, Type (0, 1), BuildingBlock: XUDNAN_clean_linker_2, # of connection points: 2
#     Edge 17, Type (0, 1), BuildingBlock: XUDNAN_clean_linker_2, # of connection points: 2
#     Edge 18, Type (0, 1), BuildingBlock: XUDNAN_clean_linker_2, # of connection points: 2
#     Edge 19, Type (0, 1), BuildingBlock: XUDNAN_clean_linker_2, # of connection points: 2
#     Edge 20, Type (0, 1), BuildingBlock: XUDNAN_clean_linker_2, # of connection points: 2
#     Edge 21, Type (0, 1), BuildingBlock: XUDNAN_clean_linker_2, # of connection points: 2
#     Edge 22, Type (0, 1), BuildingBlock: XUDNAN_clean_linker_2, # of connection points: 2
#     Edge 23, Type (0, 1), BuildingBlock: XUDNAN_clean_linker_2, # of connection points: 2
#     Edge 24, Type (0, 1), BuildingBlock: XUDNAN_clean_linker_2, # of connection points: 2
#     Edge 25, Type (0, 1), BuildingBlock: XUDNAN_clean_linker_2, # of connection points: 2
#     Edge 26, Type (0, 1), BuildingBlock: XUDNAN_clean_linker_2, # of connection points: 2
#     Edge 27, Type (0, 1), BuildingBlock: XUDNAN_clean_linker_2, # of connection points: 2
#     Edge 28, Type (0, 1), BuildingBlock: XUDNAN_clean_linker_2, # of connection points: 2
#     Edge 29, Type (0, 1), BuildingBlock: XUDNAN_clean_linker_2, # of connection points: 2
#     Edge 30, Type (0, 1), BuildingBlock: XUDNAN_clean_linker_2, # of connection points: 2
#     Edge 31, Type (0, 1), BuildingBlock: XUDNAN_clean_linker_2, # of connection points: 2
#     Edge 32, Type (0, 1), BuildingBlock: XUDNAN_clean_linker_2, # of connection points: 2
#     Edge 33, Type (0, 1), BuildingBlock: XUDNAN_clean_linker_2, # of connection points: 2
# Relax obj value: 0.012
# Max RMSD: 0.104
# Mean RMSD: 0.084
data_MOF--net-llj--node1-QEWDON_clean_sbu_0--node2-OLANEW_clean_sbu_2--edge1-XUDNAN_clean_linker_2
_symmetry_space_group_name_H-M    P1
_symmetry_Int_Tables_number       1
_symmetry_cell_setting            triclinic
loop_
_symmetry_equiv_pos_as_xyz
'x, y, z'
_cell_length_a     41.428645
_cell_length_b     41.442846
_cell_length_c     25.928366
_cell_angle_alpha  87.876307
_cell_angle_beta   92.384209
_cell_angle_gamma 89.909683
loop_
_atom_site_label
_atom_site_type_symbol
_atom_site_fract_x
_atom_site_fract_y
_atom_site_fract_z
_atom_type_partial_charge
Zn0 Zn 0.95251 0.09649 0.956 0.0
Zn1 Zn 0.96157 0.08576 0.07312 0.0
O2 O 0.98795 0.09484 0.01203 0.0
H3 H 0.00742 0.10763 0.01109 0.0
C4 C 0.90257 0.01769 0.84628 0.0
O5 O 0.88918 0.02459 0.88961 0.0
Zn6 Zn 0.06042 0.94226 0.01451 0.0
Zn7 Zn 0.06183 0.93897 0.89049 0.0
O8 O 0.03755 0.95753 0.94904 0.0
H9 H 0.01842 0.97091 0.9454 0.0
Zn10 Zn 0.93402 0.9733 0.91869 0.0
O11 O 0.94557 0.0037 0.97705 0.0
Zn12 Zn 0.94741 0.97021 0.03441 0.0
H13 H 0.93797 0.02572 0.97776 0.0
Zn14 Zn 0.07109 0.05602 0.93787 0.0
O15 O 0.04844 0.03297 0.99657 0.0
H16 H 0.0282 0.02157 0.99292 0.0
Zn17 Zn 0.06539 0.05188 0.06192 0.0
C18 C 0.10983 0.0052 0.89753 0.0
O19 O 0.11733 0.00087 0.94705 0.0
O20 O 0.91086 0.11685 0.98182 0.0
O21 O 0.92077 0.11377 0.06695 0.0
O22 O 0.10035 0.90937 0.91466 0.0
O23 O 0.09857 0.91388 0.99959 0.0
O24 O 0.90323 0.93612 0.94015 0.0
O25 O 0.91043 0.9393 0.02508 0.0
C26 C 0.01828 0.08271 0.13492 0.0
O27 O 0.10086 0.09313 0.96077 0.0
O28 O 0.09834 0.08662 0.04598 0.0
O29 O 0.03264 0.92162 0.83164 0.0
C30 C 0.90306 0.123 0.02753 0.0
O31 O 0.96949 0.11493 0.88744 0.0
C32 C 0.00147 0.9256 0.06282 0.0
O33 O 0.92394 0.99565 0.84716 0.0
C34 C 0.11134 0.90237 0.96035 0.0
O35 O 0.08971 0.0272 0.88294 0.0
C36 C 0.94795 0.0193 0.11105 0.0
O37 O 0.98953 0.0931 0.13739 0.0
O38 O 0.02632 0.07106 0.09264 0.0
C39 C 0.8962 0.92717 0.98586 0.0
O40 O 0.03066 0.91704 0.05982 0.0
O41 O 0.99006 0.94752 0.0317 0.0
C42 C 0.08511 0.98811 0.09816 0.0
O43 O 0.94524 0.98924 0.10438 0.0
O44 O 0.95097 0.03838 0.07206 0.0
C45 C 0.10959 0.10096 0.00627 0.0
O46 O 0.08557 0.01749 0.11059 0.0
O47 O 0.07297 0.98176 0.05376 0.0
C48 C 0.02673 0.93594 0.78811 0.0
O49 O 0.03977 0.9642 0.77804 0.0
C50 C 0.96975 0.10134 0.84435 0.0
O51 O 0.95678 0.07266 0.83961 0.0
Zn52 Zn 0.47646 0.58339 0.47784 0.0
Zn53 Zn 0.45422 0.56654 0.59277 0.0
O54 O 0.48272 0.55235 0.53805 0.0
H55 H 0.49316 0.53152 0.53826 0.0
C56 C 0.41739 0.49556 0.38271 0.0
O57 O 0.44486 0.50446 0.40492 0.0
Zn58 Zn 0.55346 0.4557 0.57722 0.0
Zn59 Zn 0.54121 0.44469 0.45633 0.0
O60 O 0.52122 0.463 0.51885 0.0
H61 H 0.50195 0.47616 0.51845 0.0
Zn62 Zn 0.41664 0.45214 0.47489 0.0
O63 O 0.43101 0.48277 0.53043 0.0
Zn64 Zn 0.43576 0.45466 0.59471 0.0
H65 H 0.44159 0.50306 0.52316 0.0
Zn66 Zn 0.59611 0.55739 0.46654 0.0
O67 O 0.56145 0.5437 0.51501 0.0
H68 H 0.54501 0.52779 0.50806 0.0
Zn69 Zn 0.56829 0.5689 0.57877 0.0
C70 C 0.59962 0.49901 0.41036 0.0
O71 O 0.56881 0.50026 0.42015 0.0
O72 O 0.44151 0.61721 0.48899 0.0
O73 O 0.42221 0.60173 0.56518 0.0
O74 O 0.5826 0.41781 0.47339 0.0
O75 O 0.58893 0.42568 0.55755 0.0
O76 O 0.39072 0.41382 0.50474 0.0
O77 O 0.40599 0.41573 0.58799 0.0
C78 C 0.51259 0.58523 0.64653 0.0
O79 O 0.62115 0.59753 0.49011 0.0
O80 O 0.59803 0.60699 0.56425 0.0
O81 O 0.50933 0.42456 0.40403 0.0
C82 C 0.42161 0.62042 0.52468 0.0
O83 O 0.51575 0.59607 0.43516 0.0
C84 C 0.5017 0.43639 0.64336 0.0
O85 O 0.40103 0.47334 0.40435 0.0
C86 C 0.59792 0.4128 0.51656 0.0
O87 O 0.61802 0.52151 0.42584 0.0
C88 C 0.42867 0.50986 0.65658 0.0
O89 O 0.48224 0.58307 0.65156 0.0
O90 O 0.52372 0.57976 0.60259 0.0
C91 C 0.38959 0.40289 0.55126 0.0
O92 O 0.53213 0.43739 0.63943 0.0
O93 O 0.48354 0.44378 0.60377 0.0
C94 C 0.5837 0.51063 0.63566 0.0
O95 O 0.42458 0.47948 0.65704 0.0
O96 O 0.43411 0.52434 0.61386 0.0
C97 C 0.61806 0.61457 0.52964 0.0
O98 O 0.58816 0.54087 0.63644 0.0
O99 O 0.57126 0.49906 0.59471 0.0
C100 C 0.49409 0.43923 0.36665 0.0
O101 O 0.49795 0.47048 0.35911 0.0
C102 C 0.5279 0.57734 0.40338 0.0
O103 O 0.51522 0.54863 0.39721 0.0
O104 O 0.38999 0.247 0.18522 0.0
Cd105 Cd 0.37922 0.19624 0.14412 0.0
O106 O 0.38652 0.27203 0.1093 0.0
Cd107 Cd 0.39526 0.31247 0.05534 0.0
O108 O 0.41472 0.34745 0.00024 0.0
C109 C 0.40252 0.35053 0.95456 0.0
O110 O 0.37714 0.33319 0.94154 0.0
C111 C 0.39163 0.27299 0.15792 0.0
C112 C 0.316 0.19285 0.10499 0.0
O113 O 0.32363 0.18305 0.15138 0.0
O114 O 0.33836 0.20449 0.07715 0.0
O115 O 0.63817 0.32726 0.91027 0.0
Cd116 Cd 0.64384 0.28112 0.97231 0.0
O117 O 0.62906 0.35965 0.97344 0.0
Cd118 Cd 0.64347 0.32834 0.03999 0.0
O119 O 0.65393 0.33772 0.12131 0.0
C120 C 0.62986 0.3419 0.14914 0.0
O121 O 0.60073 0.3366 0.12925 0.0
C122 C 0.63013 0.35487 0.92539 0.0
C123 C 0.70509 0.25451 0.99417 0.0
O124 O 0.68798 0.24626 0.95449 0.0
O125 O 0.69377 0.27626 0.0224 0.0
O126 O 0.64589 0.74722 0.19692 0.0
Cd127 Cd 0.64769 0.79757 0.14556 0.0
O128 O 0.6433 0.72064 0.12587 0.0
Cd129 Cd 0.63551 0.68333 0.06903 0.0
O130 O 0.62917 0.66005 0.99511 0.0
C131 C 0.60387 0.6441 0.98367 0.0
O132 O 0.5816 0.64043 0.01803 0.0
C133 C 0.64278 0.72043 0.17497 0.0
C134 C 0.70641 0.81077 0.10135 0.0
O135 O 0.70083 0.81952 0.14705 0.0
O136 O 0.68439 0.79502 0.07693 0.0
O137 O 0.25163 0.61177 0.14448 0.0
Cd138 Cd 0.20308 0.6326 0.09835 0.0
O139 O 0.28242 0.62747 0.08173 0.0
Cd140 Cd 0.32546 0.62901 0.03569 0.0
O141 O 0.35712 0.62088 0.97216 0.0
C142 C 0.38268 0.60421 0.98034 0.0
O143 O 0.39038 0.59374 0.02773 0.0
C144 C 0.2794 0.61312 0.12549 0.0
C145 C 0.20547 0.69685 0.06333 0.0
O146 O 0.19596 0.68923 0.1086 0.0
O147 O 0.21479 0.67408 0.03522 0.0
O148 O 0.91724 0.74604 0.62752 0.0
Cd149 Cd 0.89516 0.69392 0.60591 0.0
O150 O 0.90691 0.76506 0.54872 0.0
Cd151 Cd 0.90356 0.79992 0.48344 0.0
O152 O 0.90564 0.82339 0.40705 0.0
C153 C 0.92985 0.8406 0.39561 0.0
O154 O 0.95283 0.84506 0.43109 0.0
C155 C 0.91777 0.76945 0.59454 0.0
C156 C 0.82835 0.69807 0.59317 0.0
O157 O 0.84211 0.69416 0.63815 0.0
O158 O 0.84622 0.69993 0.55399 0.0
O159 O 0.16519 0.8296 0.41295 0.0
Cd160 Cd 0.1828 0.80905 0.49959 0.0
O161 O 0.18862 0.87644 0.42592 0.0
Cd162 Cd 0.20589 0.86478 0.50478 0.0
O163 O 0.20359 0.87609 0.58572 0.0
C164 C 0.18602 0.90068 0.59184 0.0
O165 O 0.17252 0.91552 0.55073 0.0
C166 C 0.17194 0.85812 0.39703 0.0
C167 C 0.24027 0.77391 0.50128 0.0
O168 O 0.2403 0.80484 0.49968 0.0
O169 O 0.213 0.75937 0.50188 0.0
O170 O 0.08627 0.27466 0.63582 0.0
Cd171 Cd 0.11125 0.323 0.59969 0.0
O172 O 0.10281 0.24459 0.57426 0.0
Cd173 Cd 0.10794 0.19957 0.53424 0.0
O174 O 0.10087 0.1629 0.47697 0.0
C175 C 0.12354 0.15424 0.44894 0.0
O176 O 0.15251 0.16646 0.45664 0.0
C177 C 0.08737 0.24738 0.61523 0.0
C178 C 0.17826 0.31892 0.60051 0.0
O179 O 0.16358 0.32609 0.64111 0.0
O180 O 0.16122 0.31324 0.55946 0.0
O181 O 0.74786 0.11782 0.5733 0.0
Cd182 Cd 0.70189 0.13696 0.51911 0.0
O183 O 0.78194 0.13152 0.51404 0.0
Cd184 Cd 0.82905 0.13624 0.47984 0.0
O185 O 0.86543 0.1265 0.42422 0.0
C186 C 0.88838 0.10676 0.43538 0.0
O187 O 0.89138 0.094 0.48249 0.0
C188 C 0.77668 0.11934 0.55862 0.0
C189 C 0.69603 0.20345 0.52411 0.0
O190 O 0.68682 0.18446 0.56068 0.0
O191 O 0.70782 0.19112 0.48437 0.0
H192 H 0.14259 0.11445 0.09624 0.0
H193 H 0.13637 0.14055 0.93237 0.0
H194 H 0.18523 0.17407 0.94298 0.0
H195 H 0.17732 0.19256 0.14168 0.0
H196 H 0.20295 0.17168 0.18995 0.0
H197 H 0.16413 0.15512 0.17146 0.0
H198 H 0.19174 0.10152 0.14989 0.0
H199 H 0.2306 0.11781 0.16773 0.0
H200 H 0.2235 0.1021 0.10436 0.0
H201 H 0.23878 0.19771 0.9686 0.0
H202 H 0.29278 0.20952 0.0071 0.0
H203 H 0.26424 0.16704 0.15377 0.0
C204 C 0.15084 0.128 0.06281 0.0
C205 C 0.13559 0.12496 0.01349 0.0
C206 C 0.14761 0.14258 0.97057 0.0
C207 C 0.17528 0.16179 0.97626 0.0
C208 C 0.19045 0.16326 0.02511 0.0
C209 C 0.17849 0.14702 0.06774 0.0
C210 C 0.20119 0.1494 0.11466 0.0
C211 C 0.18545 0.16833 0.15693 0.0
C212 C 0.21242 0.11571 0.13532 0.0
C213 C 0.22853 0.16825 0.09121 0.0
C214 C 0.22161 0.17659 0.03981 0.0
C215 C 0.24424 0.19186 0.00905 0.0
C216 C 0.27489 0.19836 0.03121 0.0
C217 C 0.28268 0.18924 0.08344 0.0
C218 C 0.2589 0.1746 0.1139 0.0
H219 H 0.85437 0.13726 0.95553 0.0
H220 H 0.88544 0.15351 0.11444 0.0
H221 H 0.83863 0.18971 0.12285 0.0
H222 H 0.82704 0.21685 0.9227 0.0
H223 H 0.79266 0.20431 0.88358 0.0
H224 H 0.82814 0.17912 0.89033 0.0
H225 H 0.79369 0.13114 0.92301 0.0
H226 H 0.75797 0.15599 0.91592 0.0
H227 H 0.76855 0.13608 0.97731 0.0
H228 H 0.78988 0.22655 0.11204 0.0
H229 H 0.74009 0.25688 0.08588 0.0
H230 H 0.74013 0.21477 0.93506 0.0
C231 C 0.85131 0.14827 0.99224 0.0
C232 C 0.87373 0.14266 0.03427 0.0
C233 C 0.86861 0.15739 0.08173 0.0
C234 C 0.84216 0.17811 0.08679 0.0
C235 C 0.82089 0.18356 0.04423 0.0
C236 C 0.82494 0.1687 0.99811 0.0
C237 C 0.79844 0.1782 0.95841 0.0
C238 C 0.81242 0.19566 0.91097 0.0
C239 C 0.77848 0.14859 0.94277 0.0
C240 C 0.77894 0.201 0.98924 0.0
C241 C 0.79241 0.20397 0.03851 0.0
C242 C 0.779 0.22422 0.07368 0.0
C243 C 0.75081 0.24147 0.05837 0.0
C244 C 0.73616 0.23814 0.00848 0.0
C245 C 0.75065 0.21775 0.97352 0.0
H246 H 0.86795 0.91121 0.07659 0.0
H247 H 0.86514 0.88981 0.91378 0.0
H248 H 0.81923 0.85287 0.92763 0.0
H249 H 0.84511 0.83126 0.12682 0.0
H250 H 0.82033 0.84736 0.17537 0.0
H251 H 0.85497 0.86958 0.15413 0.0
H252 H 0.81947 0.91952 0.13046 0.0
H253 H 0.78456 0.89805 0.15212 0.0
H254 H 0.78449 0.91557 0.08743 0.0
H255 H 0.77092 0.82167 0.9582 0.0
H256 H 0.72312 0.80045 0.00203 0.0
H257 H 0.75748 0.84356 0.14409 0.0
C258 C 0.85813 0.89835 0.04391 0.0
C259 C 0.87024 0.9033 0.99411 0.0
C260 C 0.85629 0.88635 0.95231 0.0
C261 C 0.83031 0.86523 0.95984 0.0
C262 C 0.81862 0.86136 0.00935 0.0
C263 C 0.8321 0.8775 0.05063 0.0
C264 C 0.81354 0.87135 0.09902 0.0
C265 C 0.83475 0.85381 0.14132 0.0
C266 C 0.79969 0.903 0.11835 0.0
C267 C 0.78709 0.84967 0.07836 0.0
C268 C 0.79062 0.84384 0.02674 0.0
C269 C 0.76811 0.82579 0.99874 0.0
C270 C 0.74103 0.81385 0.02397 0.0
C271 C 0.7366 0.8203 0.0765 0.0
C272 C 0.76028 0.838 0.10404 0.0
H273 H 0.12972 0.87135 0.05151 0.0
H274 H 0.14862 0.87528 0.888 0.0
H275 H 0.18364 0.82716 0.90077 0.0
H276 H 0.20993 0.83683 0.10045 0.0
H277 H 0.19067 0.81165 0.14824 0.0
H278 H 0.17352 0.85044 0.12875 0.0
H279 H 0.11908 0.82309 0.10557 0.0
H280 H 0.13588 0.78427 0.12447 0.0
H281 H 0.11793 0.79099 0.06043 0.0
H282 H 0.20873 0.77406 0.92814 0.0
H283 H 0.22068 0.71989 0.96699 0.0
H284 H 0.18365 0.74967 0.11203 0.0
C285 C 0.14216 0.86287 0.01865 0.0
C286 C 0.13672 0.87734 0.96881 0.0
C287 C 0.15272 0.86486 0.92662 0.0
C288 C 0.17272 0.83755 0.93356 0.0
C289 C 0.17648 0.82307 0.98289 0.0
C290 C 0.16175 0.83544 0.02479 0.0
C291 C 0.16573 0.81303 0.07211 0.0
C292 C 0.1862 0.82894 0.1149 0.0
C293 C 0.1327 0.80221 0.09173 0.0
C294 C 0.1837 0.78535 0.04966 0.0
C295 C 0.19035 0.79192 0.99851 0.0
C296 C 0.20425 0.76888 0.96842 0.0
C297 C 0.21086 0.73813 0.99081 0.0
C298 C 0.20318 0.73056 0.04259 0.0
C299 C 0.19019 0.75483 0.07257 0.0
H300 H 0.66693 0.63469 0.46868 0.0
H301 H 0.62331 0.65223 0.61439 0.0
H302 H 0.66984 0.68577 0.63983 0.0
H303 H 0.74076 0.62085 0.51473 0.0
H304 H 0.76264 0.64049 0.46381 0.0
H305 H 0.72264 0.62567 0.45043 0.0
H306 H 0.70389 0.68239 0.41639 0.0
H307 H 0.74414 0.69756 0.42883 0.0
H308 H 0.71009 0.71668 0.45636 0.0
H309 H 0.7256 0.70476 0.6584 0.0
H310 H 0.78478 0.71153 0.66565 0.0
H311 H 0.79201 0.68382 0.50693 0.0
C312 C 0.66642 0.64678 0.50492 0.0
C313 C 0.64145 0.6408 0.53944 0.0
C314 C 0.64207 0.65651 0.58709 0.0
C315 C 0.66841 0.67573 0.60187 0.0
C316 C 0.69357 0.67957 0.56816 0.0
C317 C 0.69245 0.66614 0.52007 0.0
C318 C 0.72427 0.6702 0.49392 0.0
C319 C 0.73839 0.63735 0.47997 0.0
C320 C 0.72036 0.69308 0.44604 0.0
C321 C 0.74428 0.68557 0.5365 0.0
C322 C 0.72595 0.69142 0.57859 0.0
C323 C 0.74 0.70133 0.62514 0.0
C324 C 0.77364 0.70486 0.62906 0.0
C325 C 0.79282 0.69848 0.58667 0.0
C326 C 0.7778 0.68963 0.53947 0.0
H327 H 0.35952 0.62329 0.55885 0.0
H328 H 0.4316 0.6787 0.4774 0.0
H329 H 0.39356 0.72438 0.46535 0.0
H330 H 0.29261 0.64976 0.47588 0.0
H331 H 0.26432 0.65118 0.52675 0.0
H332 H 0.29788 0.62341 0.53253 0.0
H333 H 0.31611 0.64748 0.61981 0.0
H334 H 0.28255 0.67529 0.61435 0.0
H335 H 0.32316 0.6903 0.6229 0.0
H336 H 0.34858 0.76414 0.46268 0.0
H337 H 0.29728 0.79447 0.46357 0.0
H338 H 0.25239 0.71239 0.54055 0.0
C339 C 0.36729 0.64519 0.53899 0.0
C340 C 0.39852 0.64761 0.5193 0.0
C341 C 0.40774 0.67638 0.49269 0.0
C342 C 0.38638 0.7025 0.48582 0.0
C343 C 0.35569 0.69933 0.50519 0.0
C344 C 0.34595 0.67137 0.53077 0.0
C345 C 0.31092 0.67383 0.54508 0.0
C346 C 0.29022 0.64801 0.51846 0.0
C347 C 0.30803 0.6716 0.60404 0.0
C348 C 0.30261 0.70745 0.52335 0.0
C349 C 0.32899 0.72185 0.50125 0.0
C350 C 0.32766 0.75312 0.47963 0.0
C351 C 0.29848 0.77015 0.48039 0.0
C352 C 0.2709 0.75567 0.50176 0.0
C353 C 0.27304 0.72389 0.52345 0.0
H354 H 0.34121 0.37929 0.48783 0.0
H355 H 0.3821 0.37141 0.64426 0.0
H356 H 0.33526 0.33947 0.67106 0.0
H357 H 0.26564 0.39499 0.5186 0.0
H358 H 0.24494 0.3724 0.46923 0.0
H359 H 0.2849 0.38737 0.45911 0.0
H360 H 0.30489 0.32958 0.44251 0.0
H361 H 0.26473 0.31435 0.45196 0.0
H362 H 0.29858 0.29745 0.48978 0.0
H363 H 0.27969 0.31991 0.6848 0.0
H364 H 0.22073 0.31114 0.68339 0.0
H365 H 0.21572 0.32992 0.51762 0.0
C366 C 0.34098 0.36971 0.52723 0.0
C367 C 0.36543 0.37785 0.56412 0.0
C368 C 0.36378 0.36543 0.61549 0.0
C369 C 0.33725 0.34714 0.63096 0.0
C370 C 0.31271 0.34101 0.5943 0.0
C371 C 0.31458 0.35142 0.54321 0.0
C372 C 0.28324 0.34528 0.51299 0.0
C373 C 0.26885 0.37689 0.4886 0.0
C374 C 0.28816 0.32016 0.47188 0.0
C375 C 0.26281 0.33179 0.55577 0.0
C376 C 0.28044 0.32899 0.6022 0.0
C377 C 0.26586 0.32101 0.64844 0.0
C378 C 0.23235 0.31629 0.64734 0.0
C379 C 0.21385 0.31948 0.60031 0.0
C380 C 0.22946 0.32647 0.55387 0.0
H381 H 0.61688 0.3714 0.44301 0.0
H382 H 0.63731 0.39859 0.60085 0.0
H383 H 0.67286 0.35129 0.61534 0.0
H384 H 0.60796 0.29189 0.46881 0.0
H385 H 0.62673 0.27729 0.41262 0.0
H386 H 0.60883 0.31681 0.41042 0.0
H387 H 0.66286 0.34223 0.38334 0.0
H388 H 0.68101 0.3026 0.3848 0.0
H389 H 0.69923 0.33405 0.42229 0.0
H390 H 0.69492 0.29615 0.61912 0.0
H391 H 0.70676 0.23833 0.6094 0.0
H392 H 0.67533 0.2468 0.44797 0.0
C393 C 0.6298 0.36805 0.47997 0.0
C394 C 0.62426 0.38863 0.52099 0.0
C395 C 0.64119 0.38313 0.56904 0.0
C396 C 0.66155 0.35636 0.57752 0.0
C397 C 0.66519 0.33557 0.53721 0.0
C398 C 0.65031 0.34137 0.489 0.0
C399 C 0.6553 0.31333 0.45421 0.0
C400 C 0.62278 0.299 0.43547 0.0
C401 C 0.67583 0.32367 0.40846 0.0
C402 C 0.67363 0.29015 0.49142 0.0
C403 C 0.67934 0.30366 0.53893 0.0
C404 C 0.69168 0.2856 0.5817 0.0
C405 C 0.69809 0.2528 0.57599 0.0
C406 C 0.69246 0.23855 0.52779 0.0
C407 C 0.68079 0.25757 0.48473 0.0
H408 H 0.00354 0.08755 0.2356 0.0
H409 H 0.08458 0.08314 0.13606 0.0
H410 H 0.12208 0.09296 0.20993 0.0
H411 H 0.02688 0.14917 0.30659 0.0
H412 H 0.01474 0.13367 0.36871 0.0
H413 H 0.99473 0.11999 0.31092 0.0
H414 H 0.00917 0.05989 0.33498 0.0
H415 H 0.02632 0.07388 0.39521 0.0
H416 H 0.05005 0.04947 0.35472 0.0
H417 H 0.14941 0.11193 0.29147 0.0
H418 H 0.16436 0.13743 0.37363 0.0
H419 H 0.06547 0.12738 0.42093 0.0
C420 C 0.02923 0.08789 0.22961 0.0
C421 C 0.04118 0.08474 0.17989 0.0
C422 C 0.07491 0.08538 0.17359 0.0
C423 C 0.09642 0.09082 0.21554 0.0
C424 C 0.08376 0.09468 0.26387 0.0
C425 C 0.05096 0.09261 0.27129 0.0
C426 C 0.04326 0.09966 0.32624 0.0
C427 C 0.01847 0.12729 0.32816 0.0
C428 C 0.03151 0.06891 0.35455 0.0
C429 C 0.07637 0.10924 0.3471 0.0
C430 C 0.09962 0.10517 0.31115 0.0
C431 C 0.13157 0.11457 0.32037 0.0
C432 C 0.13981 0.12911 0.36711 0.0
C433 C 0.11608 0.13444 0.40368 0.0
C434 C 0.08422 0.12348 0.39393 0.0
H435 H 0.91836 0.07317 0.14341 0.0
H436 H 0.97708 0.99131 0.19736 0.0
H437 H 0.97425 0.00908 0.28735 0.0
H438 H 0.95307 0.13068 0.23938 0.0
H439 H 0.91452 0.15026 0.24457 0.0
H440 H 0.92491 0.13294 0.18464 0.0
H441 H 0.87259 0.09876 0.18571 0.0
H442 H 0.86228 0.1156 0.24574 0.0
H443 H 0.8654 0.07243 0.24098 0.0
H444 H 0.9591 0.0319 0.37131 0.0
H445 H 0.9336 0.05831 0.44302 0.0
H446 H 0.88621 0.12648 0.3333 0.0
C447 C 0.93143 0.05965 0.174 0.0
C448 C 0.94836 0.03127 0.16374 0.0
C449 C 0.9641 0.01324 0.20483 0.0
C450 C 0.96276 0.02323 0.2558 0.0
C451 C 0.94563 0.0513 0.26476 0.0
C452 C 0.93052 0.06943 0.2249 0.0
C453 C 0.91202 0.0975 0.24499 0.0
C454 C 0.92702 0.12976 0.22738 0.0
C455 C 0.87595 0.09594 0.22839 0.0
C456 C 0.91751 0.09124 0.30257 0.0
C457 C 0.93746 0.06486 0.31319 0.0
C458 C 0.94399 0.05299 0.36354 0.0
C459 C 0.92934 0.06814 0.40404 0.0
C460 C 0.90793 0.09449 0.39382 0.0
C461 C 0.90271 0.1066 0.34247 0.0
H462 H 0.01978 0.92829 0.16365 0.0
H463 H 0.94435 0.89279 0.06026 0.0
H464 H 0.91517 0.87075 0.13527 0.0
H465 H 0.02239 0.85958 0.24765 0.0
H466 H 0.03052 0.88143 0.30558 0.0
H467 H 0.04327 0.8977 0.24445 0.0
H468 H 0.01143 0.95063 0.25719 0.0
H469 H 0.99937 0.93456 0.31894 0.0
H470 H 0.96914 0.94832 0.27118 0.0
H471 H 0.89603 0.85046 0.22159 0.0
H472 H 0.88879 0.83171 0.31175 0.0
H473 H 0.9787 0.87822 0.35825 0.0
C474 C 0.9968 0.91633 0.1571 0.0
C475 C 0.98331 0.91334 0.1067 0.0
C476 C 0.95385 0.89682 0.09895 0.0
C477 C 0.93747 0.8839 0.14124 0.0
C478 C 0.95126 0.88747 0.19073 0.0
C479 C 0.98036 0.90318 0.1988 0.0
C480 C 0.99119 0.90185 0.25532 0.0
C481 C 0.02376 0.88407 0.26371 0.0
C482 C 0.99289 0.93588 0.27689 0.0
C483 C 0.96379 0.8826 0.27785 0.0
C484 C 0.94088 0.8748 0.24008 0.0
C485 C 0.91365 0.85666 0.25152 0.0
C486 C 0.90978 0.84611 0.30289 0.0
C487 C 0.93315 0.85352 0.34213 0.0
C488 C 0.96035 0.87222 0.32925 0.0
H489 H 0.11061 0.99668 0.19573 0.0
H490 H 0.08739 0.92194 0.08809 0.0
H491 H 0.10652 0.88049 0.15201 0.0
H492 H 0.18389 0.96048 0.248 0.0
H493 H 0.17783 0.97295 0.31277 0.0
H494 H 0.16121 0.99667 0.25839 0.0
H495 H 0.10418 0.99202 0.29532 0.0
H496 H 0.1205 0.96827 0.34988 0.0
H497 H 0.0878 0.95264 0.31018 0.0
H498 H 0.12757 0.84682 0.22959 0.0
H499 H 0.15075 0.82426 0.31299 0.0
H500 H 0.16266 0.9214 0.36778 0.0
C501 C 0.10945 0.97161 0.18538 0.0
C502 C 0.09701 0.96269 0.13633 0.0
C503 C 0.09628 0.92958 0.12489 0.0
C504 C 0.10724 0.90574 0.16126 0.0
C505 C 0.11921 0.91542 0.20911 0.0
C506 C 0.12055 0.94761 0.22112 0.0
C507 C 0.13504 0.95178 0.27493 0.0
C508 C 0.16635 0.97164 0.2734 0.0
C509 C 0.11041 0.96707 0.30962 0.0
C510 C 0.14182 0.9169 0.29119 0.0
C511 C 0.13225 0.89622 0.25293 0.0
C512 C 0.13532 0.86278 0.25979 0.0
C513 C 0.14848 0.85019 0.30717 0.0
C514 C 0.1588 0.87107 0.34656 0.0
C515 C 0.15546 0.90482 0.33812 0.0
H516 H 0.1013 0.01007 0.79228 0.0
H517 H 0.15419 0.95646 0.91571 0.0
H518 H 0.18018 0.92385 0.8511 0.0
H519 H 0.08675 0.9453 0.70843 0.0
H520 H 0.09333 0.96882 0.65 0.0
H521 H 0.07868 0.9882 0.70535 0.0
H522 H 0.1263 0.0283 0.70459 0.0
H523 H 0.14106 0.00965 0.64849 0.0
H524 H 0.16712 0.0131 0.70542 0.0
H525 H 0.19898 0.8958 0.77229 0.0
H526 H 0.21083 0.87665 0.6857 0.0
H527 H 0.14715 0.95066 0.61538 0.0
C528 C 0.11824 0.9914 0.80586 0.0
C529 C 0.1254 0.98554 0.8591 0.0
C530 C 0.14807 0.96116 0.87512 0.0
C531 C 0.16296 0.94251 0.83874 0.0
C532 C 0.15519 0.94882 0.78655 0.0
C533 C 0.13356 0.97288 0.77017 0.0
C534 C 0.13006 0.97555 0.7119 0.0
C535 C 0.09512 0.96906 0.69286 0.0
C536 C 0.14185 0.00861 0.69141 0.0
C537 C 0.15248 0.94874 0.69805 0.0
C538 C 0.16684 0.93358 0.74148 0.0
C539 C 0.18801 0.90763 0.73799 0.0
C540 C 0.19456 0.89691 0.68871 0.0
C541 C 0.17995 0.91218 0.64381 0.0
C542 C 0.15881 0.9385 0.64887 0.0
H543 H 0.01053 0.15248 0.84994 0.0
H544 H 0.96664 0.08651 0.74152 0.0
H545 H 0.99446 0.11488 0.67013 0.0
H546 H 0.00419 0.22294 0.77054 0.0
H547 H 0.04244 0.23909 0.79285 0.0
H548 H 0.02023 0.21251 0.83471 0.0
H549 H 0.06995 0.17443 0.84631 0.0
H550 H 0.09234 0.20088 0.80436 0.0
H551 H 0.08787 0.15884 0.79013 0.0
H552 H 0.02501 0.1533 0.61022 0.0
H553 H 0.05535 0.19754 0.56785 0.0
H554 H 0.08001 0.23607 0.71755 0.0
C555 C 0.00672 0.14386 0.81123 0.0
C556 C 0.98632 0.11741 0.80115 0.0
C557 C 0.98223 0.10676 0.75002 0.0
C558 C 0.99794 0.12269 0.70933 0.0
C559 C 0.01782 0.14887 0.72076 0.0
C560 C 0.02231 0.15918 0.77061 0.0
C561 C 0.04429 0.18816 0.77312 0.0
C562 C 0.02672 0.21739 0.79402 0.0
C563 C 0.07546 0.18008 0.80538 0.0
C564 C 0.05095 0.19319 0.71662 0.0
C565 C 0.03575 0.17022 0.6869 0.0
C566 C 0.03751 0.17099 0.63327 0.0
C567 C 0.05514 0.19598 0.60956 0.0
C568 C 0.07077 0.21966 0.63958 0.0
C569 C 0.06859 0.21807 0.6937 0.0
H570 H 0.85305 0.06097 0.8311 0.0
H571 H 0.9273 0.0117 0.75039 0.0
H572 H 0.90632 0.03685 0.6677 0.0
H573 H 0.79081 0.04979 0.73997 0.0
H574 H 0.77192 0.08848 0.74726 0.0
H575 H 0.79522 0.06986 0.80038 0.0
H576 H 0.83109 0.12085 0.80612 0.0
H577 H 0.80787 0.13976 0.75296 0.0
H578 H 0.85107 0.13584 0.74965 0.0
H579 H 0.87355 0.06298 0.59296 0.0
H580 H 0.83181 0.08775 0.53299 0.0
H581 H 0.77982 0.12015 0.66327 0.0
C582 C 0.86528 0.05584 0.79621 0.0
C583 C 0.89178 0.03435 0.79717 0.0
C584 C 0.9069 0.02807 0.75053 0.0
C585 C 0.89524 0.04233 0.70343 0.0
C586 C 0.8686 0.0629 0.70375 0.0
C587 C 0.85393 0.06974 0.74903 0.0
C588 C 0.82432 0.09077 0.73879 0.0
C589 C 0.79378 0.07369 0.7577 0.0
C590 C 0.82888 0.12376 0.76333 0.0
C591 C 0.82401 0.09391 0.68049 0.0
C592 C 0.84995 0.07808 0.66092 0.0
C593 C 0.85357 0.07611 0.60788 0.0
C594 C 0.82995 0.09054 0.57405 0.0
C595 C 0.80314 0.10663 0.5935 0.0
C596 C 0.80034 0.10838 0.64737 0.0
H597 H 0.98321 0.88822 0.80469 0.0
H598 H 0.02575 0.94619 0.68264 0.0
H599 H 0.99775 0.91287 0.6173 0.0
H600 H 0.99138 0.81457 0.75185 0.0
H601 H 0.9535 0.79827 0.77241 0.0
H602 H 0.97327 0.82927 0.80854 0.0
H603 H 0.92187 0.86508 0.79797 0.0
H604 H 0.90174 0.83401 0.76206 0.0
H605 H 0.90448 0.87437 0.73426 0.0
H606 H 0.97169 0.86756 0.56675 0.0
H607 H 0.94728 0.8171 0.53579 0.0
H608 H 0.91939 0.79169 0.69139 0.0
C609 C 0.98617 0.89433 0.76418 0.0
C610 C 0.00684 0.91952 0.74861 0.0
C611 C 0.01002 0.9269 0.69532 0.0
C612 C 0.99419 0.90815 0.658 0.0
C613 C 0.97474 0.88271 0.6748 0.0
C614 C 0.97024 0.87626 0.72671 0.0
C615 C 0.9497 0.84664 0.7353 0.0
C616 C 0.96807 0.82067 0.76898 0.0
C617 C 0.91754 0.85557 0.75877 0.0
C618 C 0.94456 0.83643 0.68029 0.0
C619 C 0.95884 0.8576 0.64573 0.0
C620 C 0.95952 0.85139 0.59326 0.0
C621 C 0.94529 0.82278 0.57585 0.0
C622 C 0.93054 0.80091 0.61084 0.0
C623 C 0.93005 0.80816 0.66353 0.0
H624 H 0.49807 0.5772 0.7481 0.0
H625 H 0.57425 0.60895 0.64886 0.0
H626 H 0.60851 0.62193 0.72529 0.0
H627 H 0.5069 0.63941 0.83537 0.0
H628 H 0.49773 0.61426 0.8911 0.0
H629 H 0.48189 0.60429 0.8281 0.0
H630 H 0.5085 0.54696 0.84104 0.0
H631 H 0.5239 0.55802 0.90386 0.0
H632 H 0.55108 0.54396 0.85695 0.0
H633 H 0.63248 0.63568 0.81225 0.0
H634 H 0.64385 0.65074 0.90236 0.0
H635 H 0.55104 0.61165 0.94486 0.0
C636 C 0.52218 0.58639 0.74244 0.0
C637 C 0.53389 0.59138 0.69232 0.0
C638 C 0.56529 0.60394 0.68668 0.0
C639 C 0.58481 0.61155 0.73 0.0
C640 C 0.57247 0.60652 0.77881 0.0
C641 C 0.54187 0.5942 0.78528 0.0
C642 C 0.53335 0.59342 0.84155 0.0
C643 C 0.5032 0.61409 0.84952 0.0
C644 C 0.52896 0.55851 0.86208 0.0
C645 C 0.56347 0.60828 0.86551 0.0
C646 C 0.58597 0.61516 0.82882 0.0
C647 C 0.61518 0.63011 0.84141 0.0
C648 C 0.62139 0.6386 0.89273 0.0
C649 C 0.59835 0.63238 0.93077 0.0
C650 C 0.56924 0.61658 0.91686 0.0
H651 H 0.4024 0.5673 0.68461 0.0
H652 H 0.46216 0.48674 0.74076 0.0
H653 H 0.4638 0.50772 0.82822 0.0
H654 H 0.4362 0.62947 0.77473 0.0
H655 H 0.39682 0.64628 0.78405 0.0
H656 H 0.40556 0.62889 0.72342 0.0
H657 H 0.35659 0.59073 0.73164 0.0
H658 H 0.34752 0.60787 0.79205 0.0
H659 H 0.35364 0.56493 0.78879 0.0
H660 H 0.45563 0.53429 0.91009 0.0
H661 H 0.43177 0.56 0.98373 0.0
H662 H 0.37373 0.62185 0.87733 0.0
C663 C 0.41682 0.55497 0.71511 0.0
C664 C 0.43277 0.52575 0.70614 0.0
C665 C 0.45027 0.50934 0.74706 0.0
C666 C 0.45149 0.52124 0.79674 0.0
C667 C 0.43506 0.54976 0.80495 0.0
C668 C 0.41781 0.56637 0.76548 0.0
C669 C 0.39818 0.59346 0.78654 0.0
C670 C 0.4099 0.62648 0.76598 0.0
C671 C 0.36184 0.58895 0.77402 0.0
C672 C 0.40625 0.58864 0.84397 0.0
C673 C 0.42831 0.56391 0.85341 0.0
C674 C 0.43841 0.55381 0.90333 0.0
C675 C 0.42471 0.56859 0.94493 0.0
C676 C 0.40072 0.59279 0.93637 0.0
C677 C 0.39209 0.60349 0.88514 0.0
H678 H 0.44453 0.4072 0.66849 0.0
H679 H 0.53129 0.44996 0.73498 0.0
H680 H 0.51277 0.43741 0.82246 0.0
H681 H 0.38823 0.43122 0.76803 0.0
H682 H 0.36711 0.39332 0.7642 0.0
H683 H 0.38649 0.41033 0.70848 0.0
H684 H 0.421 0.35517 0.70448 0.0
H685 H 0.39858 0.34075 0.75868 0.0
H686 H 0.44211 0.34097 0.76269 0.0
H687 H 0.48632 0.4177 0.90233 0.0
H688 H 0.45582 0.38863 0.96915 0.0
H689 H 0.38639 0.35768 0.85103 0.0
C690 C 0.45909 0.41466 0.70146 0.0
C691 C 0.48899 0.4301 0.69503 0.0
C692 C 0.50822 0.43821 0.73915 0.0
C693 C 0.49779 0.4314 0.789 0.0
C694 C 0.46812 0.4162 0.79412 0.0
C695 C 0.44917 0.40764 0.75165 0.0
C696 C 0.41984 0.38875 0.76793 0.0
C697 C 0.38855 0.40694 0.75115 0.0
C698 C 0.42035 0.35442 0.74719 0.0
C699 C 0.4253 0.38794 0.82605 0.0
C700 C 0.45316 0.40418 0.84036 0.0
C701 C 0.46429 0.40514 0.89169 0.0
C702 C 0.44682 0.3885 0.92935 0.0
C703 C 0.41868 0.3709 0.91538 0.0
C704 C 0.40758 0.37118 0.86309 0.0
H705 H 0.60539 0.44757 0.64869 0.0
H706 H 0.57392 0.53003 0.73208 0.0
H707 H 0.58176 0.49884 0.81434 0.0
H708 H 0.56904 0.38599 0.72735 0.0
H709 H 0.60229 0.35796 0.7257 0.0
H710 H 0.59462 0.3867 0.67275 0.0
H711 H 0.65366 0.40962 0.68408 0.0
H712 H 0.66078 0.37904 0.73442 0.0
H713 H 0.66789 0.42096 0.74716 0.0
H714 H 0.59273 0.45956 0.88702 0.0
H715 H 0.60757 0.41441 0.94745 0.0
H716 H 0.63242 0.35629 0.81861 0.0
C717 C 0.59994 0.45883 0.68427 0.0
C718 C 0.58878 0.49106 0.68405 0.0
C719 C 0.58255 0.50536 0.73143 0.0
C720 C 0.58686 0.48785 0.77835 0.0
C721 C 0.59777 0.45613 0.77737 0.0
C722 C 0.60455 0.44175 0.73179 0.0
C723 C 0.61672 0.40746 0.74219 0.0
C724 C 0.59433 0.38308 0.71541 0.0
C725 C 0.65181 0.40404 0.72597 0.0
C726 C 0.61494 0.40466 0.80053 0.0
C727 C 0.60413 0.43317 0.81983 0.0
C728 C 0.60123 0.43707 0.87245 0.0
C729 C 0.60983 0.41122 0.90649 0.0
C730 C 0.62123 0.38169 0.88794 0.0
C731 C 0.62369 0.37844 0.83407 0.0
H732 H 0.56481 0.45166 0.36363 0.0
H733 H 0.6627 0.48639 0.38838 0.0
H734 H 0.68257 0.44356 0.33366 0.0
H735 H 0.58643 0.36349 0.35789 0.0
H736 H 0.55482 0.35771 0.30934 0.0
H737 H 0.55015 0.38737 0.35759 0.0
H738 H 0.53945 0.43136 0.2834 0.0
H739 H 0.54437 0.40102 0.23672 0.0
H740 H 0.56899 0.43686 0.23485 0.0
H741 H 0.69069 0.40095 0.26824 0.0
H742 H 0.68597 0.36462 0.19492 0.0
H743 H 0.58259 0.35795 0.21408 0.0
C744 C 0.5905 0.44984 0.3586 0.0
C745 C 0.61218 0.47229 0.38049 0.0
C746 C 0.64562 0.46942 0.37209 0.0
C747 C 0.65715 0.44502 0.34138 0.0
C748 C 0.63498 0.42353 0.3198 0.0
C749 C 0.60234 0.42565 0.3283 0.0
C750 C 0.58309 0.40164 0.29708 0.0
C751 C 0.56769 0.37604 0.3326 0.0
C752 C 0.5575 0.41874 0.26087 0.0
C753 C 0.60971 0.38699 0.2673 0.0
C754 C 0.63959 0.39925 0.28186 0.0
C755 C 0.66747 0.39083 0.25713 0.0
C756 C 0.66455 0.37014 0.21549 0.0
C757 C 0.63389 0.35843 0.19868 0.0
C758 C 0.6064 0.36625 0.22615 0.0
H759 H 0.56007 0.63439 0.40989 0.0
H760 H 0.55346 0.54786 0.32089 0.0
H761 H 0.59026 0.57233 0.25782 0.0
H762 H 0.55377 0.68801 0.30928 0.0
H763 H 0.58162 0.71737 0.33478 0.0
H764 H 0.56082 0.69066 0.37809 0.0
H765 H 0.61551 0.67064 0.42022 0.0
H766 H 0.63651 0.69781 0.37737 0.0
H767 H 0.64612 0.65535 0.38002 0.0
H768 H 0.62084 0.6098 0.19778 0.0
H769 H 0.64196 0.65612 0.14732 0.0
H770 H 0.62647 0.718 0.27541 0.0
C771 C 0.567 0.6202 0.37789 0.0
C772 C 0.55375 0.58934 0.37009 0.0
C773 C 0.56333 0.5716 0.32761 0.0
C774 C 0.58432 0.58526 0.29169 0.0
C775 C 0.59583 0.61642 0.29933 0.0
C776 C 0.58779 0.63345 0.34187 0.0
C777 C 0.60025 0.66769 0.33867 0.0
C778 C 0.57246 0.69236 0.34026 0.0
C779 C 0.62614 0.67319 0.38163 0.0
C780 C 0.61488 0.66794 0.28625 0.0
C781 C 0.61285 0.63803 0.26456 0.0
C782 C 0.62277 0.63326 0.21465 0.0
C783 C 0.63431 0.65991 0.18584 0.0
C784 C 0.63517 0.69104 0.20663 0.0
C785 C 0.62625 0.69461 0.25814 0.0
H786 H 0.35665 0.49093 0.33831 0.0
H787 H 0.44806 0.54042 0.32157 0.0
H788 H 0.42416 0.57304 0.24771 0.0
H789 H 0.33227 0.49064 0.1999 0.0
H790 H 0.29043 0.49764 0.21253 0.0
H791 H 0.31602 0.4757 0.25961 0.0
H792 H 0.30133 0.51608 0.32903 0.0
H793 H 0.27586 0.5382 0.28225 0.0
H794 H 0.3079 0.55865 0.31694 0.0
H795 H 0.38841 0.60346 0.17986 0.0
H796 H 0.34394 0.62947 0.1266 0.0
H797 H 0.27647 0.5602 0.18987 0.0
C798 C 0.37189 0.50816 0.31853 0.0
C799 C 0.40425 0.51306 0.33561 0.0
C800 C 0.42319 0.53623 0.30911 0.0
C801 C 0.40986 0.5548 0.267 0.0
C802 C 0.3776 0.54984 0.25188 0.0
C803 C 0.35894 0.52699 0.27686 0.0
C804 C 0.32432 0.52791 0.256 0.0
C805 C 0.31523 0.49608 0.23048 0.0
C806 C 0.301 0.53568 0.29859 0.0
C807 C 0.32613 0.55542 0.2163 0.0
C808 C 0.35711 0.5675 0.21374 0.0
C809 C 0.36417 0.59386 0.18105 0.0
C810 C 0.33882 0.60836 0.15065 0.0
C811 C 0.30686 0.5966 0.15363 0.0
C812 C 0.30069 0.56966 0.18663 0.0
H813 H 0.48981 0.37385 0.36455 0.0
H814 H 0.45357 0.46183 0.28627 0.0
H815 H 0.42179 0.42901 0.22438 0.0
H816 H 0.50011 0.33005 0.25258 0.0
H817 H 0.48797 0.29185 0.28104 0.0
H818 H 0.50624 0.32189 0.32109 0.0
H819 H 0.45737 0.32098 0.37965 0.0
H820 H 0.43885 0.29026 0.34111 0.0
H821 H 0.41725 0.32712 0.35131 0.0
H822 H 0.3943 0.38545 0.17074 0.0
H823 H 0.37455 0.33574 0.12988 0.0
H824 H 0.43138 0.27773 0.24296 0.0
C825 C 0.47508 0.38638 0.33467 0.0
C826 C 0.47409 0.4204 0.33027 0.0
C827 C 0.45464 0.43574 0.29031 0.0
C828 C 0.43653 0.41732 0.25507 0.0
C829 C 0.43836 0.38371 0.26039 0.0
C830 C 0.45721 0.36851 0.29925 0.0
C831 C 0.45594 0.33222 0.2963 0.0
C832 C 0.48956 0.3182 0.28716 0.0
C833 C 0.44148 0.31675 0.34498 0.0
C834 C 0.4334 0.32919 0.24955 0.0
C835 C 0.42336 0.35904 0.2293 0.0
C836 C 0.40231 0.362 0.18599 0.0
C837 C 0.39154 0.33367 0.16265 0.0
C838 C 0.40212 0.30297 0.18248 0.0
C839 C 0.42298 0.30088 0.22681 0.0
loop_
_geom_bond_atom_site_label_1
_geom_bond_atom_site_label_2
_geom_bond_distance
_geom_bond_site_symmetry_2
_ccdc_geom_bond_type
Zn0 O2 1.933 1_556 S
Zn0 O20 1.985 . S
Zn0 O31 1.955 . S
Zn1 O2 1.911 . S
Zn1 O21 1.970 . S
Zn1 O37 1.945 . S
Zn1 O44 1.981 . S
O2 Zn0 1.933 1_554 S
O2 Zn1 1.911 . S
O2 H3 0.841 1_655 S
H3 O2 0.841 1_455 S
C4 O5 1.246 . S
C4 O33 1.290 . S
O5 C4 1.246 . S
Zn6 O8 1.911 . S
Zn6 O23 1.970 . S
Zn6 O40 1.945 . S
Zn6 O47 1.981 . S
Zn7 O8 1.933 1_556 S
Zn7 O22 1.985 . S
Zn7 O29 1.955 . S
O8 Zn6 1.911 . S
O8 Zn7 1.933 1_554 S
O8 H9 0.841 1_455 S
H9 O8 0.841 1_655 S
Zn10 O11 1.933 1_556 S
Zn10 O24 1.985 . S
Zn10 O33 1.950 1_565 S
O11 Zn10 1.933 1_554 S
O11 Zn12 1.911 . S
O11 H13 0.841 1_565 S
Zn12 O11 1.911 . S
Zn12 O25 1.970 . S
Zn12 O41 1.981 . S
Zn12 O43 1.945 . S
H13 O11 0.841 1_545 S
Zn14 O15 1.933 1_556 S
Zn14 O27 1.985 . S
Zn14 O35 1.955 . S
O15 Zn14 1.933 1_554 S
O15 H16 0.841 1_545 S
O15 Zn17 1.911 . S
H16 O15 0.841 1_565 S
Zn17 O15 1.911 . S
Zn17 O28 1.970 . S
Zn17 O38 1.981 . S
Zn17 O46 1.945 . S
C18 O19 1.246 . S
C18 O35 1.276 1_565 S
O19 C18 1.246 . S
O20 Zn0 1.985 . S
O20 C30 1.245 1_556 S
O21 Zn1 1.970 . S
O21 C30 1.263 . S
O22 Zn7 1.985 . S
O22 C34 1.245 1_556 S
O23 Zn6 1.970 . S
O23 C34 1.263 . S
O24 Zn10 1.985 . S
O24 C39 1.245 1_556 S
O25 Zn12 1.970 . S
O25 C39 1.263 . S
C26 O37 1.262 1_455 S
C26 O38 1.245 . S
O27 Zn14 1.985 . S
O27 C45 1.245 1_556 S
O28 Zn17 1.970 . S
O28 C45 1.263 . S
O29 Zn7 1.955 . S
O29 C48 1.276 1_455 S
C30 O20 1.245 1_554 S
C30 O21 1.263 . S
O31 Zn0 1.955 . S
O31 C50 1.276 1_655 S
C32 O40 1.262 1_655 S
C32 O41 1.245 . S
O33 C4 1.290 . S
O33 Zn10 1.950 1_545 S
C34 O22 1.245 1_554 S
C34 O23 1.263 . S
O35 Zn14 1.955 . S
O35 C18 1.276 1_545 S
C36 O43 1.262 1_545 S
C36 O44 1.245 . S
O37 Zn1 1.945 . S
O37 C26 1.262 1_655 S
O38 Zn17 1.981 . S
O38 C26 1.245 . S
C39 O24 1.245 1_554 S
C39 O25 1.263 . S
O40 Zn6 1.945 . S
O40 C32 1.262 1_455 S
O41 Zn12 1.981 . S
O41 C32 1.245 . S
C42 O46 1.262 1_565 S
C42 O47 1.245 . S
O43 Zn12 1.945 . S
O43 C36 1.262 1_565 S
O44 Zn1 1.981 . S
O44 C36 1.245 . S
C45 O27 1.245 1_554 S
C45 O28 1.263 . S
O46 Zn17 1.945 . S
O46 C42 1.262 1_545 S
O47 Zn6 1.981 . S
O47 C42 1.245 . S
C48 O29 1.276 1_655 S
C48 O49 1.246 . S
O49 C48 1.246 . S
C50 O31 1.276 1_455 S
C50 O51 1.246 . S
O51 C50 1.246 . S
Zn52 O54 1.933 . S
Zn52 O72 1.985 . S
Zn52 O83 1.955 . S
Zn53 O54 1.911 . S
Zn53 O73 1.970 . S
Zn53 O89 1.945 . S
Zn53 O96 1.981 . S
O54 Zn52 1.933 . S
O54 Zn53 1.911 . S
O54 H55 0.841 . S
H55 O54 0.841 . S
C56 O57 1.246 . S
C56 O85 1.276 . S
O57 C56 1.246 . S
Zn58 O60 1.911 . S
Zn58 O75 1.970 . S
Zn58 O92 1.945 . S
Zn58 O99 1.981 . S
Zn59 O60 1.933 . S
Zn59 O74 1.985 . S
Zn59 O81 1.955 . S
O60 Zn58 1.911 . S
O60 Zn59 1.933 . S
O60 H61 0.841 . S
H61 O60 0.841 . S
Zn62 O63 1.933 . S
Zn62 O76 1.985 . S
Zn62 O85 1.955 . S
O63 Zn62 1.933 . S
O63 Zn64 1.911 . S
O63 H65 0.841 . S
Zn64 O63 1.911 . S
Zn64 O77 1.970 . S
Zn64 O93 1.981 . S
Zn64 O95 1.945 . S
H65 O63 0.841 . S
Zn66 O67 1.933 . S
Zn66 O79 1.985 . S
Zn66 O87 1.955 . S
O67 Zn66 1.933 . S
O67 H68 0.841 . S
O67 Zn69 1.911 . S
H68 O67 0.841 . S
Zn69 O67 1.911 . S
Zn69 O80 1.970 . S
Zn69 O90 1.981 . S
Zn69 O98 1.945 . S
C70 O71 1.246 . S
C70 O87 1.276 . S
O71 C70 1.246 . S
O72 Zn52 1.985 . S
O72 C82 1.245 . S
O73 Zn53 1.970 . S
O73 C82 1.263 . S
O74 Zn59 1.985 . S
O74 C86 1.245 . S
O75 Zn58 1.970 . S
O75 C86 1.263 . S
O76 Zn62 1.985 . S
O76 C91 1.245 . S
O77 Zn64 1.970 . S
O77 C91 1.263 . S
C78 O89 1.262 . S
C78 O90 1.245 . S
O79 Zn66 1.985 . S
O79 C97 1.245 . S
O80 Zn69 1.970 . S
O80 C97 1.263 . S
O81 Zn59 1.955 . S
O81 C100 1.276 . S
C82 O72 1.245 . S
C82 O73 1.263 . S
O83 Zn52 1.955 . S
O83 C102 1.276 . S
C84 O92 1.262 . S
C84 O93 1.245 . S
O85 C56 1.276 . S
O85 Zn62 1.955 . S
C86 O74 1.245 . S
C86 O75 1.263 . S
O87 Zn66 1.955 . S
O87 C70 1.276 . S
C88 O95 1.262 . S
C88 O96 1.245 . S
O89 Zn53 1.945 . S
O89 C78 1.262 . S
O90 Zn69 1.981 . S
O90 C78 1.245 . S
C91 O76 1.245 . S
C91 O77 1.263 . S
O92 Zn58 1.945 . S
O92 C84 1.262 . S
O93 Zn64 1.981 . S
O93 C84 1.245 . S
C94 O98 1.262 . S
C94 O99 1.245 . S
O95 Zn64 1.945 . S
O95 C88 1.262 . S
O96 Zn53 1.981 . S
O96 C88 1.245 . S
C97 O79 1.245 . S
C97 O80 1.263 . S
O98 Zn69 1.945 . S
O98 C94 1.262 . S
O99 Zn58 1.981 . S
O99 C94 1.245 . S
C100 O81 1.276 . S
C100 O101 1.246 . S
O101 C100 1.246 . S
C102 O83 1.276 . S
C102 O103 1.246 . S
O103 C102 1.246 . S
O104 Cd105 2.300 . S
O104 C111 1.275 . S
Cd105 O104 2.300 . S
Cd105 O113 2.381 . S
Cd105 O114 2.378 . S
O106 Cd107 2.398 . S
O106 C111 1.255 . S
Cd107 O106 2.398 . S
Cd107 O108 2.305 1_554 S
O108 Cd107 2.305 1_556 S
O108 C109 1.232 . S
C109 O108 1.232 . S
C109 O110 1.218 . S
O110 C109 1.218 . S
C111 O104 1.275 . S
C111 O106 1.255 . S
C112 O113 1.258 . S
C112 O114 1.256 . S
O113 Cd105 2.381 . S
O113 C112 1.258 . S
O114 Cd105 2.378 . S
O114 C112 1.256 . S
O115 Cd116 2.300 . S
O115 C122 1.275 . S
Cd116 O115 2.300 . S
Cd116 O124 2.381 . S
Cd116 O125 2.378 1_556 S
O117 Cd118 2.385 1_556 S
O117 C122 1.255 . S
Cd118 O117 2.385 1_554 S
Cd118 O119 2.317 . S
O119 Cd118 2.317 . S
O119 C120 1.232 . S
C120 O119 1.232 . S
C120 O121 1.218 . S
O121 C120 1.218 . S
C122 O115 1.275 . S
C122 O117 1.255 . S
C123 O124 1.259 1_554 S
C123 O125 1.254 . S
O124 Cd116 2.381 . S
O124 C123 1.259 1_556 S
O125 Cd116 2.378 1_554 S
O125 C123 1.254 . S
O126 Cd127 2.300 . S
O126 C133 1.275 . S
Cd127 O126 2.300 . S
Cd127 O135 2.381 . S
Cd127 O136 2.378 . S
O128 Cd129 2.382 1_554 S
O128 C133 1.255 . S
Cd129 O128 2.382 1_556 S
Cd129 O130 2.320 . S
O130 Cd129 2.320 . S
O130 C131 1.232 . S
C131 O130 1.232 . S
C131 O132 1.218 . S
O132 C131 1.218 . S
C133 O126 1.275 . S
C133 O128 1.255 . S
C134 O135 1.258 . S
C134 O136 1.256 . S
O135 Cd127 2.381 . S
O135 C134 1.258 . S
O136 Cd127 2.378 . S
O136 C134 1.256 . S
O137 Cd138 2.300 . S
O137 C144 1.275 . S
Cd138 O137 2.300 . S
Cd138 O146 2.381 . S
Cd138 O147 2.378 . S
O139 Cd140 2.385 1_554 S
O139 C144 1.255 . S
Cd140 O139 2.385 1_556 S
Cd140 O141 2.317 . S
O141 Cd140 2.317 . S
O141 C142 1.232 . S
C142 O141 1.232 . S
C142 O143 1.218 . S
O143 C142 1.218 . S
C144 O137 1.275 . S
C144 O139 1.255 . S
C145 O146 1.258 . S
C145 O147 1.256 . S
O146 Cd138 2.381 . S
O146 C145 1.258 . S
O147 Cd138 2.378 . S
O147 C145 1.256 . S
O148 Cd149 2.300 . S
O148 C155 1.275 . S
Cd149 O148 2.300 . S
Cd149 O157 2.381 . S
Cd149 O158 2.378 . S
O150 Cd151 2.385 . S
O150 C155 1.255 . S
Cd151 O150 2.385 . S
Cd151 O152 2.317 . S
O152 Cd151 2.317 . S
O152 C153 1.232 . S
C153 O152 1.232 . S
C153 O154 1.218 . S
O154 C153 1.218 . S
C155 O148 1.275 . S
C155 O150 1.255 . S
C156 O157 1.258 . S
C156 O158 1.256 . S
O157 Cd149 2.381 . S
O157 C156 1.258 . S
O158 Cd149 2.378 . S
O158 C156 1.256 . S
O159 Cd160 2.300 . S
O159 C166 1.275 . S
Cd160 O159 2.300 . S
Cd160 O168 2.381 . S
Cd160 O169 2.378 . S
O161 Cd162 2.385 . S
O161 C166 1.255 . S
Cd162 O161 2.385 . S
Cd162 O163 2.317 . S
O163 Cd162 2.317 . S
O163 C164 1.232 . S
C164 O163 1.232 . S
C164 O165 1.218 . S
O165 C164 1.218 . S
C166 O159 1.275 . S
C166 O161 1.255 . S
C167 O168 1.258 . S
C167 O169 1.256 . S
O168 Cd160 2.381 . S
O168 C167 1.258 . S
O169 Cd160 2.378 . S
O169 C167 1.256 . S
O170 Cd171 2.300 . S
O170 C177 1.275 . S
Cd171 O170 2.300 . S
Cd171 O179 2.381 . S
Cd171 O180 2.378 . S
O172 Cd173 2.385 . S
O172 C177 1.255 . S
Cd173 O172 2.385 . S
Cd173 O174 2.317 . S
O174 Cd173 2.317 . S
O174 C175 1.232 . S
C175 O174 1.232 . S
C175 O176 1.218 . S
O176 C175 1.218 . S
C177 O170 1.275 . S
C177 O172 1.255 . S
C178 O179 1.258 . S
C178 O180 1.256 . S
O179 Cd171 2.381 . S
O179 C178 1.258 . S
O180 Cd171 2.378 . S
O180 C178 1.256 . S
O181 Cd182 2.300 . S
O181 C188 1.275 . S
Cd182 O181 2.300 . S
Cd182 O190 2.381 . S
Cd182 O191 2.378 . S
O183 Cd184 2.385 . S
O183 C188 1.255 . S
Cd184 O183 2.385 . S
Cd184 O185 2.317 . S
O185 Cd184 2.317 . S
O185 C186 1.232 . S
C186 O185 1.232 . S
C186 O187 1.218 . S
O187 C186 1.218 . S
C188 O181 1.275 . S
C188 O183 1.255 . S
C189 O190 1.258 . S
C189 O191 1.256 . S
O190 Cd182 2.381 . S
O190 C189 1.258 . S
O191 Cd182 2.378 . S
O191 C189 1.256 . S
H192 C204 0.930 . S
H193 C206 0.930 . S
H194 C207 0.930 . S
H195 C211 0.959 . S
H196 C211 0.959 . S
H197 C211 0.961 . S
H198 C212 0.960 . S
H199 C212 0.961 . S
H200 C212 0.959 . S
H201 C215 0.929 . S
H202 C216 0.931 . S
H203 C218 0.930 . S
C204 H192 0.930 . S
C204 C205 1.399 . S
C204 C209 1.399 . S
C205 C204 1.399 . S
C205 C206 1.376 1_554 S
C206 H193 0.930 . S
C206 C205 1.376 1_556 S
C206 C207 1.388 . S
C207 H194 0.930 . S
C207 C206 1.388 . S
C207 C208 1.390 1_556 S
C208 C207 1.390 1_554 S
C208 C209 1.394 . S
C208 C214 1.465 . S
C209 C204 1.399 . S
C209 C208 1.394 . S
C209 C210 1.516 . S
C210 C209 1.516 . S
C210 C211 1.502 . S
C210 C212 1.561 . S
C210 C213 1.526 . S
C211 H195 0.959 . S
C211 H196 0.959 . S
C211 H197 0.961 . S
C211 C210 1.502 . S
C212 H198 0.960 . S
C212 H199 0.961 . S
C212 H200 0.959 . S
C212 C210 1.561 . S
C213 C210 1.526 . S
C213 C214 1.396 . S
C213 C218 1.390 . S
C214 C208 1.465 . S
C214 C213 1.396 . S
C214 C215 1.399 1_554 S
C215 H201 0.929 . S
C215 C214 1.399 1_556 S
C215 C216 1.385 . S
C216 H202 0.931 . S
C216 C215 1.385 . S
C216 C217 1.389 1_556 S
C217 C216 1.389 1_554 S
C217 C218 1.387 . S
C218 H203 0.930 . S
C218 C213 1.390 . S
C218 C217 1.387 . S
H219 C231 0.930 . S
H220 C233 0.930 . S
H221 C234 0.930 . S
H222 C238 0.959 . S
H223 C238 0.959 . S
H224 C238 0.961 . S
H225 C239 0.960 . S
H226 C239 0.961 . S
H227 C239 0.959 . S
H228 C242 0.929 . S
H229 C243 0.931 . S
H230 C245 0.930 . S
C231 H219 0.930 . S
C231 C232 1.399 1_556 S
C231 C236 1.399 . S
C232 C231 1.399 1_554 S
C232 C233 1.376 . S
C233 H220 0.930 . S
C233 C232 1.376 . S
C233 C234 1.388 . S
C234 H221 0.930 . S
C234 C233 1.388 . S
C234 C235 1.390 . S
C235 C234 1.390 . S
C235 C236 1.394 1_554 S
C235 C241 1.465 . S
C236 C231 1.399 . S
C236 C235 1.394 1_556 S
C236 C237 1.516 . S
C237 C236 1.516 . S
C237 C238 1.502 . S
C237 C239 1.561 . S
C237 C240 1.526 . S
C238 H222 0.959 . S
C238 H223 0.959 . S
C238 H224 0.961 . S
C238 C237 1.502 . S
C239 H225 0.960 . S
C239 H226 0.961 . S
C239 H227 0.959 . S
C239 C237 1.561 . S
C240 C237 1.526 . S
C240 C241 1.396 1_556 S
C240 C245 1.390 . S
C241 C235 1.465 . S
C241 C240 1.396 1_554 S
C241 C242 1.399 . S
C242 H228 0.929 . S
C242 C241 1.399 . S
C242 C243 1.385 . S
C243 H229 0.931 . S
C243 C242 1.385 . S
C243 C244 1.389 . S
C244 C243 1.389 . S
C244 C245 1.387 1_554 S
C245 H230 0.930 . S
C245 C240 1.390 . S
C245 C244 1.387 1_556 S
H246 C258 0.930 . S
H247 C260 0.930 . S
H248 C261 0.930 . S
H249 C265 0.959 . S
H250 C265 0.959 . S
H251 C265 0.961 . S
H252 C266 0.960 . S
H253 C266 0.961 . S
H254 C266 0.959 . S
H255 C269 0.929 . S
H256 C270 0.931 . S
H257 C272 0.930 . S
C258 H246 0.930 . S
C258 C259 1.399 . S
C258 C263 1.399 . S
C259 C258 1.399 . S
C259 C260 1.376 1_554 S
C260 H247 0.930 . S
C260 C259 1.376 1_556 S
C260 C261 1.388 . S
C261 H248 0.930 . S
C261 C260 1.388 . S
C261 C262 1.390 1_556 S
C262 C261 1.390 1_554 S
C262 C263 1.394 . S
C262 C268 1.465 . S
C263 C258 1.399 . S
C263 C262 1.394 . S
C263 C264 1.516 . S
C264 C263 1.516 . S
C264 C265 1.502 . S
C264 C266 1.561 . S
C264 C267 1.526 . S
C265 H249 0.959 . S
C265 H250 0.959 . S
C265 H251 0.961 . S
C265 C264 1.502 . S
C266 H252 0.960 . S
C266 H253 0.961 . S
C266 H254 0.959 . S
C266 C264 1.561 . S
C267 C264 1.526 . S
C267 C268 1.396 . S
C267 C272 1.390 . S
C268 C262 1.465 . S
C268 C267 1.396 . S
C268 C269 1.399 1_554 S
C269 H255 0.929 . S
C269 C268 1.399 1_556 S
C269 C270 1.385 . S
C270 H256 0.931 . S
C270 C269 1.385 . S
C270 C271 1.389 1_556 S
C271 C270 1.389 1_554 S
C271 C272 1.387 . S
C272 H257 0.930 . S
C272 C267 1.390 . S
C272 C271 1.387 . S
H273 C285 0.930 . S
H274 C287 0.930 . S
H275 C288 0.930 . S
H276 C292 0.959 . S
H277 C292 0.959 . S
H278 C292 0.961 . S
H279 C293 0.960 . S
H280 C293 0.961 . S
H281 C293 0.959 . S
H282 C296 0.929 . S
H283 C297 0.931 . S
H284 C299 0.930 . S
C285 H273 0.930 . S
C285 C286 1.399 . S
C285 C290 1.399 . S
C286 C285 1.399 . S
C286 C287 1.376 1_554 S
C287 H274 0.930 . S
C287 C286 1.376 1_556 S
C287 C288 1.388 . S
C288 H275 0.930 . S
C288 C287 1.388 . S
C288 C289 1.390 1_556 S
C289 C288 1.390 1_554 S
C289 C290 1.394 . S
C289 C295 1.465 . S
C290 C285 1.399 . S
C290 C289 1.394 . S
C290 C291 1.516 . S
C291 C290 1.516 . S
C291 C292 1.502 . S
C291 C293 1.561 . S
C291 C294 1.526 . S
C292 H276 0.959 . S
C292 H277 0.959 . S
C292 H278 0.961 . S
C292 C291 1.502 . S
C293 H279 0.960 . S
C293 H280 0.961 . S
C293 H281 0.959 . S
C293 C291 1.561 . S
C294 C291 1.526 . S
C294 C295 1.396 . S
C294 C299 1.390 . S
C295 C289 1.465 . S
C295 C294 1.396 . S
C295 C296 1.399 1_554 S
C296 H282 0.929 . S
C296 C295 1.399 1_556 S
C296 C297 1.385 . S
C297 H283 0.931 . S
C297 C296 1.385 . S
C297 C298 1.389 1_556 S
C298 C297 1.389 1_554 S
C298 C299 1.387 . S
C299 H284 0.930 . S
C299 C294 1.390 . S
C299 C298 1.387 . S
H300 C312 0.930 . S
H301 C314 0.930 . S
H302 C315 0.930 . S
H303 C319 0.959 . S
H304 C319 0.959 . S
H305 C319 0.961 . S
H306 C320 0.960 . S
H307 C320 0.961 . S
H308 C320 0.959 . S
H309 C323 0.929 . S
H310 C324 0.931 . S
H311 C326 0.930 . S
C312 H300 0.930 . S
C312 C313 1.399 . S
C312 C317 1.399 . S
C313 C312 1.399 . S
C313 C314 1.376 . S
C314 H301 0.930 . S
C314 C313 1.376 . S
C314 C315 1.388 . S
C315 H302 0.930 . S
C315 C314 1.388 . S
C315 C316 1.390 . S
C316 C315 1.390 . S
C316 C317 1.394 . S
C316 C322 1.465 . S
C317 C312 1.399 . S
C317 C316 1.394 . S
C317 C318 1.516 . S
C318 C317 1.516 . S
C318 C319 1.502 . S
C318 C320 1.561 . S
C318 C321 1.526 . S
C319 H303 0.959 . S
C319 H304 0.959 . S
C319 H305 0.961 . S
C319 C318 1.502 . S
C320 H306 0.960 . S
C320 H307 0.961 . S
C320 H308 0.959 . S
C320 C318 1.561 . S
C321 C318 1.526 . S
C321 C322 1.396 . S
C321 C326 1.390 . S
C322 C316 1.465 . S
C322 C321 1.396 . S
C322 C323 1.399 . S
C323 H309 0.929 . S
C323 C322 1.399 . S
C323 C324 1.385 . S
C324 H310 0.931 . S
C324 C323 1.385 . S
C324 C325 1.389 . S
C325 C324 1.389 . S
C325 C326 1.387 . S
C326 H311 0.930 . S
C326 C321 1.390 . S
C326 C325 1.387 . S
H327 C339 0.930 . S
H328 C341 0.930 . S
H329 C342 0.930 . S
H330 C346 0.959 . S
H331 C346 0.959 . S
H332 C346 0.961 . S
H333 C347 0.960 . S
H334 C347 0.961 . S
H335 C347 0.959 . S
H336 C350 0.929 . S
H337 C351 0.931 . S
H338 C353 0.930 . S
C339 H327 0.930 . S
C339 C340 1.399 . S
C339 C344 1.399 . S
C340 C339 1.399 . S
C340 C341 1.376 . S
C341 H328 0.930 . S
C341 C340 1.376 . S
C341 C342 1.388 . S
C342 H329 0.930 . S
C342 C341 1.388 . S
C342 C343 1.390 . S
C343 C342 1.390 . S
C343 C344 1.394 . S
C343 C349 1.465 . S
C344 C339 1.399 . S
C344 C343 1.394 . S
C344 C345 1.516 . S
C345 C344 1.516 . S
C345 C346 1.502 . S
C345 C347 1.561 . S
C345 C348 1.526 . S
C346 H330 0.959 . S
C346 H331 0.959 . S
C346 H332 0.961 . S
C346 C345 1.502 . S
C347 H333 0.960 . S
C347 H334 0.961 . S
C347 H335 0.959 . S
C347 C345 1.561 . S
C348 C345 1.526 . S
C348 C349 1.396 . S
C348 C353 1.390 . S
C349 C343 1.465 . S
C349 C348 1.396 . S
C349 C350 1.399 . S
C350 H336 0.929 . S
C350 C349 1.399 . S
C350 C351 1.385 . S
C351 H337 0.931 . S
C351 C350 1.385 . S
C351 C352 1.389 . S
C352 C351 1.389 . S
C352 C353 1.387 . S
C353 H338 0.930 . S
C353 C348 1.390 . S
C353 C352 1.387 . S
H354 C366 0.930 . S
H355 C368 0.930 . S
H356 C369 0.930 . S
H357 C373 0.959 . S
H358 C373 0.959 . S
H359 C373 0.961 . S
H360 C374 0.960 . S
H361 C374 0.961 . S
H362 C374 0.959 . S
H363 C377 0.929 . S
H364 C378 0.931 . S
H365 C380 0.930 . S
C366 H354 0.930 . S
C366 C367 1.399 . S
C366 C371 1.399 . S
C367 C366 1.399 . S
C367 C368 1.376 . S
C368 H355 0.930 . S
C368 C367 1.376 . S
C368 C369 1.388 . S
C369 H356 0.930 . S
C369 C368 1.388 . S
C369 C370 1.390 . S
C370 C369 1.390 . S
C370 C371 1.394 . S
C370 C376 1.465 . S
C371 C366 1.399 . S
C371 C370 1.394 . S
C371 C372 1.516 . S
C372 C371 1.516 . S
C372 C373 1.502 . S
C372 C374 1.561 . S
C372 C375 1.526 . S
C373 H357 0.959 . S
C373 H358 0.959 . S
C373 H359 0.961 . S
C373 C372 1.502 . S
C374 H360 0.960 . S
C374 H361 0.961 . S
C374 H362 0.959 . S
C374 C372 1.561 . S
C375 C372 1.526 . S
C375 C376 1.396 . S
C375 C380 1.390 . S
C376 C370 1.465 . S
C376 C375 1.396 . S
C376 C377 1.399 . S
C377 H363 0.929 . S
C377 C376 1.399 . S
C377 C378 1.385 . S
C378 H364 0.931 . S
C378 C377 1.385 . S
C378 C379 1.389 . S
C379 C378 1.389 . S
C379 C380 1.387 . S
C380 H365 0.930 . S
C380 C375 1.390 . S
C380 C379 1.387 . S
H381 C393 0.930 . S
H382 C395 0.930 . S
H383 C396 0.930 . S
H384 C400 0.959 . S
H385 C400 0.959 . S
H386 C400 0.961 . S
H387 C401 0.960 . S
H388 C401 0.961 . S
H389 C401 0.959 . S
H390 C404 0.929 . S
H391 C405 0.931 . S
H392 C407 0.930 . S
C393 H381 0.930 . S
C393 C394 1.399 . S
C393 C398 1.399 . S
C394 C393 1.399 . S
C394 C395 1.376 . S
C395 H382 0.930 . S
C395 C394 1.376 . S
C395 C396 1.388 . S
C396 H383 0.930 . S
C396 C395 1.388 . S
C396 C397 1.390 . S
C397 C396 1.390 . S
C397 C398 1.394 . S
C397 C403 1.465 . S
C398 C393 1.399 . S
C398 C397 1.394 . S
C398 C399 1.516 . S
C399 C398 1.516 . S
C399 C400 1.502 . S
C399 C401 1.561 . S
C399 C402 1.526 . S
C400 H384 0.959 . S
C400 H385 0.959 . S
C400 H386 0.961 . S
C400 C399 1.502 . S
C401 H387 0.960 . S
C401 H388 0.961 . S
C401 H389 0.959 . S
C401 C399 1.561 . S
C402 C399 1.526 . S
C402 C403 1.396 . S
C402 C407 1.390 . S
C403 C397 1.465 . S
C403 C402 1.396 . S
C403 C404 1.399 . S
C404 H390 0.929 . S
C404 C403 1.399 . S
C404 C405 1.385 . S
C405 H391 0.931 . S
C405 C404 1.385 . S
C405 C406 1.389 . S
C406 C405 1.389 . S
C406 C407 1.387 . S
C407 H392 0.930 . S
C407 C402 1.390 . S
C407 C406 1.387 . S
H408 C420 0.930 . S
H409 C422 0.930 . S
H410 C423 0.930 . S
H411 C427 0.959 . S
H412 C427 0.959 . S
H413 C427 0.961 . S
H414 C428 0.960 . S
H415 C428 0.961 . S
H416 C428 0.959 . S
H417 C431 0.929 . S
H418 C432 0.931 . S
H419 C434 0.930 . S
C420 H408 0.930 . S
C420 C421 1.399 . S
C420 C425 1.399 . S
C421 C420 1.399 . S
C421 C422 1.376 . S
C422 H409 0.930 . S
C422 C421 1.376 . S
C422 C423 1.388 . S
C423 H410 0.930 . S
C423 C422 1.388 . S
C423 C424 1.390 . S
C424 C423 1.390 . S
C424 C425 1.394 . S
C424 C430 1.465 . S
C425 C420 1.399 . S
C425 C424 1.394 . S
C425 C426 1.516 . S
C426 C425 1.516 . S
C426 C427 1.502 . S
C426 C428 1.561 . S
C426 C429 1.526 . S
C427 H411 0.959 . S
C427 H412 0.959 . S
C427 H413 0.961 . S
C427 C426 1.502 . S
C428 H414 0.960 . S
C428 H415 0.961 . S
C428 H416 0.959 . S
C428 C426 1.561 . S
C429 C426 1.526 . S
C429 C430 1.396 . S
C429 C434 1.390 . S
C430 C424 1.465 . S
C430 C429 1.396 . S
C430 C431 1.399 . S
C431 H417 0.929 . S
C431 C430 1.399 . S
C431 C432 1.385 . S
C432 H418 0.931 . S
C432 C431 1.385 . S
C432 C433 1.389 . S
C433 C432 1.389 . S
C433 C434 1.387 . S
C434 H419 0.930 . S
C434 C429 1.390 . S
C434 C433 1.387 . S
H435 C447 0.930 . S
H436 C449 0.930 1_565 S
H437 C450 0.930 1_565 S
H438 C454 0.959 . S
H439 C454 0.959 . S
H440 C454 0.961 . S
H441 C455 0.960 . S
H442 C455 0.961 . S
H443 C455 0.959 . S
H444 C458 0.929 1_565 S
H445 C459 0.931 . S
H446 C461 0.930 . S
C447 H435 0.930 . S
C447 C448 1.399 . S
C447 C452 1.399 . S
C448 C447 1.399 . S
C448 C449 1.376 . S
C449 H436 0.930 1_545 S
C449 C448 1.376 . S
C449 C450 1.388 . S
C450 H437 0.930 1_545 S
C450 C449 1.388 . S
C450 C451 1.390 . S
C451 C450 1.390 . S
C451 C452 1.394 . S
C451 C457 1.465 . S
C452 C447 1.399 . S
C452 C451 1.394 . S
C452 C453 1.516 . S
C453 C452 1.516 . S
C453 C454 1.502 . S
C453 C455 1.561 . S
C453 C456 1.526 . S
C454 H438 0.959 . S
C454 H439 0.959 . S
C454 H440 0.961 . S
C454 C453 1.502 . S
C455 H441 0.960 . S
C455 H442 0.961 . S
C455 H443 0.959 . S
C455 C453 1.561 . S
C456 C453 1.526 . S
C456 C457 1.396 . S
C456 C461 1.390 . S
C457 C451 1.465 . S
C457 C456 1.396 . S
C457 C458 1.399 . S
C458 H444 0.929 1_545 S
C458 C457 1.399 . S
C458 C459 1.385 . S
C459 H445 0.931 . S
C459 C458 1.385 . S
C459 C460 1.389 . S
C460 C459 1.389 . S
C460 C461 1.387 . S
C461 H446 0.930 . S
C461 C456 1.390 . S
C461 C460 1.387 . S
H462 C474 0.930 . S
H463 C476 0.930 . S
H464 C477 0.930 . S
H465 C481 0.974 . S
H466 C481 0.959 . S
H467 C481 0.972 . S
H468 C482 0.960 . S
H469 C482 0.961 . S
H470 C482 0.959 . S
H471 C485 0.929 . S
H472 C486 0.931 . S
H473 C488 0.930 . S
C474 H462 0.930 . S
C474 C475 1.399 . S
C474 C479 1.399 . S
C475 C474 1.399 . S
C475 C476 1.376 . S
C476 H463 0.930 . S
C476 C475 1.376 . S
C476 C477 1.388 . S
C477 H464 0.930 . S
C477 C476 1.388 . S
C477 C478 1.390 . S
C478 C477 1.390 . S
C478 C479 1.394 . S
C478 C484 1.465 . S
C479 C474 1.399 . S
C479 C478 1.394 . S
C479 C480 1.516 . S
C480 C479 1.516 . S
C480 C481 1.477 1_655 S
C480 C482 1.561 . S
C480 C483 1.526 . S
C481 H465 0.974 . S
C481 H466 0.959 . S
C481 H467 0.972 . S
C481 C480 1.477 1_455 S
C482 H468 0.960 . S
C482 H469 0.961 . S
C482 H470 0.959 . S
C482 C480 1.561 . S
C483 C480 1.526 . S
C483 C484 1.396 . S
C483 C488 1.390 . S
C484 C478 1.465 . S
C484 C483 1.396 . S
C484 C485 1.399 . S
C485 H471 0.929 . S
C485 C484 1.399 . S
C485 C486 1.385 . S
C486 H472 0.931 . S
C486 C485 1.385 . S
C486 C487 1.389 . S
C487 C486 1.389 . S
C487 C488 1.387 . S
C488 H473 0.930 . S
C488 C483 1.390 . S
C488 C487 1.387 . S
H489 C501 0.902 1_545 S
H490 C503 0.930 . S
H491 C504 0.930 . S
H492 C508 0.959 . S
H493 C508 0.959 1_545 S
H494 C508 0.961 1_545 S
H495 C509 0.960 . S
H496 C509 0.961 . S
H497 C509 0.959 1_565 S
H498 C512 0.929 . S
H499 C513 0.931 . S
H500 C515 0.930 . S
C501 H489 0.902 1_565 S
C501 C502 1.399 . S
C501 C506 1.399 . S
C502 C501 1.399 . S
C502 C503 1.376 . S
C503 H490 0.930 . S
C503 C502 1.376 . S
C503 C504 1.388 . S
C504 H491 0.930 . S
C504 C503 1.388 . S
C504 C505 1.390 . S
C505 C504 1.390 . S
C505 C506 1.394 . S
C505 C511 1.465 . S
C506 C501 1.399 . S
C506 C505 1.394 . S
C506 C507 1.516 . S
C507 C506 1.516 . S
C507 C508 1.502 . S
C507 C509 1.561 1_565 S
C507 C510 1.526 . S
C508 H492 0.959 . S
C508 H493 0.959 1_565 S
C508 H494 0.961 1_565 S
C508 C507 1.502 . S
C509 H495 0.960 . S
C509 H496 0.961 . S
C509 H497 0.959 1_545 S
C509 C507 1.561 1_545 S
C510 C507 1.526 . S
C510 C511 1.396 . S
C510 C515 1.390 . S
C511 C505 1.465 . S
C511 C510 1.396 . S
C511 C512 1.399 . S
C512 H498 0.929 . S
C512 C511 1.399 . S
C512 C513 1.385 . S
C513 H499 0.931 . S
C513 C512 1.385 . S
C513 C514 1.389 . S
C514 C513 1.389 . S
C514 C515 1.387 . S
C515 H500 0.930 . S
C515 C510 1.390 . S
C515 C514 1.387 . S
H516 C528 0.930 . S
H517 C530 0.930 . S
H518 C531 0.930 . S
H519 C535 0.959 . S
H520 C535 0.959 . S
H521 C535 0.961 . S
H522 C536 0.960 . S
H523 C536 0.961 . S
H524 C536 0.959 . S
H525 C539 0.929 . S
H526 C540 0.931 . S
H527 C542 0.930 . S
C528 H516 0.930 . S
C528 C529 1.399 . S
C528 C533 1.399 . S
C529 C528 1.399 . S
C529 C530 1.376 . S
C530 H517 0.930 . S
C530 C529 1.376 . S
C530 C531 1.388 . S
C531 H518 0.930 . S
C531 C530 1.388 . S
C531 C532 1.390 . S
C532 C531 1.390 . S
C532 C533 1.394 . S
C532 C538 1.465 . S
C533 C528 1.399 . S
C533 C532 1.394 . S
C533 C534 1.516 . S
C534 C533 1.516 . S
C534 C535 1.502 . S
C534 C536 1.561 1_565 S
C534 C537 1.526 . S
C535 H519 0.959 . S
C535 H520 0.959 . S
C535 H521 0.961 . S
C535 C534 1.502 . S
C536 H522 0.960 . S
C536 H523 0.961 . S
C536 H524 0.959 . S
C536 C534 1.561 1_545 S
C537 C534 1.526 . S
C537 C538 1.396 . S
C537 C542 1.390 . S
C538 C532 1.465 . S
C538 C537 1.396 . S
C538 C539 1.399 . S
C539 H525 0.929 . S
C539 C538 1.399 . S
C539 C540 1.385 . S
C540 H526 0.931 . S
C540 C539 1.385 . S
C540 C541 1.389 . S
C541 C540 1.389 . S
C541 C542 1.387 . S
C542 H527 0.930 . S
C542 C537 1.390 . S
C542 C541 1.387 . S
H543 C555 0.930 . S
H544 C557 0.930 . S
H545 C558 0.930 . S
H546 C562 0.959 . S
H547 C562 0.959 . S
H548 C562 0.961 . S
H549 C563 0.960 . S
H550 C563 0.961 . S
H551 C563 0.959 . S
H552 C566 0.929 . S
H553 C567 0.931 . S
H554 C569 0.930 . S
C555 H543 0.930 . S
C555 C556 1.399 . S
C555 C560 1.399 . S
C556 C555 1.399 . S
C556 C557 1.376 . S
C557 H544 0.930 . S
C557 C556 1.376 . S
C557 C558 1.388 . S
C558 H545 0.930 . S
C558 C557 1.388 . S
C558 C559 1.390 . S
C559 C558 1.390 . S
C559 C560 1.394 . S
C559 C565 1.465 . S
C560 C555 1.399 . S
C560 C559 1.394 . S
C560 C561 1.516 . S
C561 C560 1.516 . S
C561 C562 1.502 . S
C561 C563 1.561 . S
C561 C564 1.526 . S
C562 H546 0.959 . S
C562 H547 0.959 . S
C562 H548 0.961 . S
C562 C561 1.502 . S
C563 H549 0.960 . S
C563 H550 0.961 . S
C563 H551 0.959 . S
C563 C561 1.561 . S
C564 C561 1.526 . S
C564 C565 1.396 . S
C564 C569 1.390 . S
C565 C559 1.465 . S
C565 C564 1.396 . S
C565 C566 1.399 . S
C566 H552 0.929 . S
C566 C565 1.399 . S
C566 C567 1.385 . S
C567 H553 0.931 . S
C567 C566 1.385 . S
C567 C568 1.389 . S
C568 C567 1.389 . S
C568 C569 1.387 . S
C569 H554 0.930 . S
C569 C564 1.390 . S
C569 C568 1.387 . S
H570 C582 0.930 . S
H571 C584 0.930 1_565 S
H572 C585 0.930 1_565 S
H573 C589 0.959 . S
H574 C589 0.959 . S
H575 C589 0.961 . S
H576 C590 0.960 . S
H577 C590 0.961 . S
H578 C590 0.959 . S
H579 C593 0.929 . S
H580 C594 0.931 . S
H581 C596 0.930 . S
C582 H570 0.930 . S
C582 C583 1.399 . S
C582 C587 1.399 . S
C583 C582 1.399 . S
C583 C584 1.376 . S
C584 H571 0.930 1_545 S
C584 C583 1.376 . S
C584 C585 1.388 . S
C585 H572 0.930 1_545 S
C585 C584 1.388 . S
C585 C586 1.390 . S
C586 C585 1.390 . S
C586 C587 1.394 . S
C586 C592 1.465 . S
C587 C582 1.399 . S
C587 C586 1.394 . S
C587 C588 1.516 . S
C588 C587 1.516 . S
C588 C589 1.502 . S
C588 C590 1.561 . S
C588 C591 1.526 . S
C589 H573 0.959 . S
C589 H574 0.959 . S
C589 H575 0.961 . S
C589 C588 1.502 . S
C590 H576 0.960 . S
C590 H577 0.961 . S
C590 H578 0.959 . S
C590 C588 1.561 . S
C591 C588 1.526 . S
C591 C592 1.396 . S
C591 C596 1.390 . S
C592 C586 1.465 . S
C592 C591 1.396 . S
C592 C593 1.399 . S
C593 H579 0.929 . S
C593 C592 1.399 . S
C593 C594 1.385 . S
C594 H580 0.931 . S
C594 C593 1.385 . S
C594 C595 1.389 . S
C595 C594 1.389 . S
C595 C596 1.387 . S
C596 H581 0.930 . S
C596 C591 1.390 . S
C596 C595 1.387 . S
H597 C609 0.930 . S
H598 C611 0.930 . S
H599 C612 0.930 . S
H600 C616 0.959 . S
H601 C616 0.959 . S
H602 C616 0.961 . S
H603 C617 0.960 . S
H604 C617 0.961 . S
H605 C617 0.959 . S
H606 C620 0.929 . S
H607 C621 0.931 . S
H608 C623 0.930 . S
C609 H597 0.930 . S
C609 C610 1.399 . S
C609 C614 1.399 . S
C610 C609 1.399 . S
C610 C611 1.376 . S
C611 H598 0.930 . S
C611 C610 1.376 . S
C611 C612 1.388 . S
C612 H599 0.930 . S
C612 C611 1.388 . S
C612 C613 1.390 . S
C613 C612 1.390 . S
C613 C614 1.394 . S
C613 C619 1.465 . S
C614 C609 1.399 . S
C614 C613 1.394 . S
C614 C615 1.516 . S
C615 C614 1.516 . S
C615 C616 1.502 . S
C615 C617 1.561 . S
C615 C618 1.526 . S
C616 H600 0.959 . S
C616 H601 0.959 . S
C616 H602 0.961 . S
C616 C615 1.502 . S
C617 H603 0.960 . S
C617 H604 0.961 . S
C617 H605 0.959 . S
C617 C615 1.561 . S
C618 C615 1.526 . S
C618 C619 1.396 . S
C618 C623 1.390 . S
C619 C613 1.465 . S
C619 C618 1.396 . S
C619 C620 1.399 . S
C620 H606 0.929 . S
C620 C619 1.399 . S
C620 C621 1.385 . S
C621 H607 0.931 . S
C621 C620 1.385 . S
C621 C622 1.389 . S
C622 C621 1.389 . S
C622 C623 1.387 . S
C623 H608 0.930 . S
C623 C618 1.390 . S
C623 C622 1.387 . S
H624 C636 0.930 . S
H625 C638 0.930 . S
H626 C639 0.930 . S
H627 C643 0.959 . S
H628 C643 0.959 . S
H629 C643 0.961 . S
H630 C644 0.960 . S
H631 C644 0.961 . S
H632 C644 0.959 . S
H633 C647 0.929 . S
H634 C648 0.931 . S
H635 C650 0.930 . S
C636 H624 0.930 . S
C636 C637 1.399 . S
C636 C641 1.399 . S
C637 C636 1.399 . S
C637 C638 1.376 . S
C638 H625 0.930 . S
C638 C637 1.376 . S
C638 C639 1.388 . S
C639 H626 0.930 . S
C639 C638 1.388 . S
C639 C640 1.390 . S
C640 C639 1.390 . S
C640 C641 1.394 . S
C640 C646 1.465 . S
C641 C636 1.399 . S
C641 C640 1.394 . S
C641 C642 1.516 . S
C642 C641 1.516 . S
C642 C643 1.502 . S
C642 C644 1.561 . S
C642 C645 1.526 . S
C643 H627 0.959 . S
C643 H628 0.959 . S
C643 H629 0.961 . S
C643 C642 1.502 . S
C644 H630 0.960 . S
C644 H631 0.961 . S
C644 H632 0.959 . S
C644 C642 1.561 . S
C645 C642 1.526 . S
C645 C646 1.396 . S
C645 C650 1.390 . S
C646 C640 1.465 . S
C646 C645 1.396 . S
C646 C647 1.399 . S
C647 H633 0.929 . S
C647 C646 1.399 . S
C647 C648 1.385 . S
C648 H634 0.931 . S
C648 C647 1.385 . S
C648 C649 1.389 . S
C649 C648 1.389 . S
C649 C650 1.387 . S
C650 H635 0.930 . S
C650 C645 1.390 . S
C650 C649 1.387 . S
H651 C663 0.930 . S
H652 C665 0.930 . S
H653 C666 0.930 . S
H654 C670 0.959 . S
H655 C670 0.959 . S
H656 C670 0.961 . S
H657 C671 0.960 . S
H658 C671 0.961 . S
H659 C671 0.959 . S
H660 C674 0.929 . S
H661 C675 0.931 . S
H662 C677 0.930 . S
C663 H651 0.930 . S
C663 C664 1.399 . S
C663 C668 1.399 . S
C664 C663 1.399 . S
C664 C665 1.376 . S
C665 H652 0.930 . S
C665 C664 1.376 . S
C665 C666 1.388 . S
C666 H653 0.930 . S
C666 C665 1.388 . S
C666 C667 1.390 . S
C667 C666 1.390 . S
C667 C668 1.394 . S
C667 C673 1.465 . S
C668 C663 1.399 . S
C668 C667 1.394 . S
C668 C669 1.516 . S
C669 C668 1.516 . S
C669 C670 1.502 . S
C669 C671 1.561 . S
C669 C672 1.526 . S
C670 H654 0.959 . S
C670 H655 0.959 . S
C670 H656 0.961 . S
C670 C669 1.502 . S
C671 H657 0.960 . S
C671 H658 0.961 . S
C671 H659 0.959 . S
C671 C669 1.561 . S
C672 C669 1.526 . S
C672 C673 1.396 . S
C672 C677 1.390 . S
C673 C667 1.465 . S
C673 C672 1.396 . S
C673 C674 1.399 . S
C674 H660 0.929 . S
C674 C673 1.399 . S
C674 C675 1.385 . S
C675 H661 0.931 . S
C675 C674 1.385 . S
C675 C676 1.389 . S
C676 C675 1.389 . S
C676 C677 1.387 . S
C677 H662 0.930 . S
C677 C672 1.390 . S
C677 C676 1.387 . S
H678 C690 0.930 . S
H679 C692 0.930 . S
H680 C693 0.930 . S
H681 C697 0.959 . S
H682 C697 0.959 . S
H683 C697 0.961 . S
H684 C698 0.960 . S
H685 C698 0.961 . S
H686 C698 0.959 . S
H687 C701 0.929 . S
H688 C702 0.931 . S
H689 C704 0.930 . S
C690 H678 0.930 . S
C690 C691 1.399 . S
C690 C695 1.399 . S
C691 C690 1.399 . S
C691 C692 1.376 . S
C692 H679 0.930 . S
C692 C691 1.376 . S
C692 C693 1.388 . S
C693 H680 0.930 . S
C693 C692 1.388 . S
C693 C694 1.390 . S
C694 C693 1.390 . S
C694 C695 1.394 . S
C694 C700 1.465 . S
C695 C690 1.399 . S
C695 C694 1.394 . S
C695 C696 1.516 . S
C696 C695 1.516 . S
C696 C697 1.502 . S
C696 C698 1.561 . S
C696 C699 1.526 . S
C697 H681 0.959 . S
C697 H682 0.959 . S
C697 H683 0.961 . S
C697 C696 1.502 . S
C698 H684 0.960 . S
C698 H685 0.961 . S
C698 H686 0.959 . S
C698 C696 1.561 . S
C699 C696 1.526 . S
C699 C700 1.396 . S
C699 C704 1.390 . S
C700 C694 1.465 . S
C700 C699 1.396 . S
C700 C701 1.399 . S
C701 H687 0.929 . S
C701 C700 1.399 . S
C701 C702 1.385 . S
C702 H688 0.931 . S
C702 C701 1.385 . S
C702 C703 1.389 . S
C703 C702 1.389 . S
C703 C704 1.387 . S
C704 H689 0.930 . S
C704 C699 1.390 . S
C704 C703 1.387 . S
H705 C717 0.930 . S
H706 C719 0.930 . S
H707 C720 0.930 . S
H708 C724 0.959 . S
H709 C724 0.959 . S
H710 C724 0.961 . S
H711 C725 0.960 . S
H712 C725 0.961 . S
H713 C725 0.959 . S
H714 C728 0.929 . S
H715 C729 0.931 . S
H716 C731 0.930 . S
C717 H705 0.930 . S
C717 C718 1.399 . S
C717 C722 1.399 . S
C718 C717 1.399 . S
C718 C719 1.376 . S
C719 H706 0.930 . S
C719 C718 1.376 . S
C719 C720 1.388 . S
C720 H707 0.930 . S
C720 C719 1.388 . S
C720 C721 1.390 . S
C721 C720 1.390 . S
C721 C722 1.394 . S
C721 C727 1.465 . S
C722 C717 1.399 . S
C722 C721 1.394 . S
C722 C723 1.516 . S
C723 C722 1.516 . S
C723 C724 1.502 . S
C723 C725 1.561 . S
C723 C726 1.526 . S
C724 H708 0.959 . S
C724 H709 0.959 . S
C724 H710 0.961 . S
C724 C723 1.502 . S
C725 H711 0.960 . S
C725 H712 0.961 . S
C725 H713 0.959 . S
C725 C723 1.561 . S
C726 C723 1.526 . S
C726 C727 1.396 . S
C726 C731 1.390 . S
C727 C721 1.465 . S
C727 C726 1.396 . S
C727 C728 1.399 . S
C728 H714 0.929 . S
C728 C727 1.399 . S
C728 C729 1.385 . S
C729 H715 0.931 . S
C729 C728 1.385 . S
C729 C730 1.389 . S
C730 C729 1.389 . S
C730 C731 1.387 . S
C731 H716 0.930 . S
C731 C726 1.390 . S
C731 C730 1.387 . S
H732 C744 0.930 . S
H733 C746 0.930 . S
H734 C747 0.930 . S
H735 C751 0.959 . S
H736 C751 0.959 . S
H737 C751 0.961 . S
H738 C752 0.960 . S
H739 C752 0.961 . S
H740 C752 0.959 . S
H741 C755 0.929 . S
H742 C756 0.931 . S
H743 C758 0.930 . S
C744 H732 0.930 . S
C744 C745 1.399 . S
C744 C749 1.399 . S
C745 C744 1.399 . S
C745 C746 1.376 . S
C746 H733 0.930 . S
C746 C745 1.376 . S
C746 C747 1.388 . S
C747 H734 0.930 . S
C747 C746 1.388 . S
C747 C748 1.390 . S
C748 C747 1.390 . S
C748 C749 1.394 . S
C748 C754 1.465 . S
C749 C744 1.399 . S
C749 C748 1.394 . S
C749 C750 1.516 . S
C750 C749 1.516 . S
C750 C751 1.502 . S
C750 C752 1.561 . S
C750 C753 1.526 . S
C751 H735 0.959 . S
C751 H736 0.959 . S
C751 H737 0.961 . S
C751 C750 1.502 . S
C752 H738 0.960 . S
C752 H739 0.961 . S
C752 H740 0.959 . S
C752 C750 1.561 . S
C753 C750 1.526 . S
C753 C754 1.396 . S
C753 C758 1.390 . S
C754 C748 1.465 . S
C754 C753 1.396 . S
C754 C755 1.399 . S
C755 H741 0.929 . S
C755 C754 1.399 . S
C755 C756 1.385 . S
C756 H742 0.931 . S
C756 C755 1.385 . S
C756 C757 1.389 . S
C757 C756 1.389 . S
C757 C758 1.387 . S
C758 H743 0.930 . S
C758 C753 1.390 . S
C758 C757 1.387 . S
H759 C771 0.930 . S
H760 C773 0.930 . S
H761 C774 0.930 . S
H762 C778 0.959 . S
H763 C778 0.959 . S
H764 C778 0.961 . S
H765 C779 0.960 . S
H766 C779 0.961 . S
H767 C779 0.959 . S
H768 C782 0.929 . S
H769 C783 0.931 . S
H770 C785 0.930 . S
C771 H759 0.930 . S
C771 C772 1.399 . S
C771 C776 1.399 . S
C772 C771 1.399 . S
C772 C773 1.376 . S
C773 H760 0.930 . S
C773 C772 1.376 . S
C773 C774 1.388 . S
C774 H761 0.930 . S
C774 C773 1.388 . S
C774 C775 1.390 . S
C775 C774 1.390 . S
C775 C776 1.394 . S
C775 C781 1.465 . S
C776 C771 1.399 . S
C776 C775 1.394 . S
C776 C777 1.516 . S
C777 C776 1.516 . S
C777 C778 1.502 . S
C777 C779 1.561 . S
C777 C780 1.526 . S
C778 H762 0.959 . S
C778 H763 0.959 . S
C778 H764 0.961 . S
C778 C777 1.502 . S
C779 H765 0.960 . S
C779 H766 0.961 . S
C779 H767 0.959 . S
C779 C777 1.561 . S
C780 C777 1.526 . S
C780 C781 1.396 . S
C780 C785 1.390 . S
C781 C775 1.465 . S
C781 C780 1.396 . S
C781 C782 1.399 . S
C782 H768 0.929 . S
C782 C781 1.399 . S
C782 C783 1.385 . S
C783 H769 0.931 . S
C783 C782 1.385 . S
C783 C784 1.389 . S
C784 C783 1.389 . S
C784 C785 1.387 . S
C785 H770 0.930 . S
C785 C780 1.390 . S
C785 C784 1.387 . S
H786 C798 0.930 . S
H787 C800 0.930 . S
H788 C801 0.930 . S
H789 C805 0.959 . S
H790 C805 0.959 . S
H791 C805 0.961 . S
H792 C806 0.960 . S
H793 C806 0.961 . S
H794 C806 0.959 . S
H795 C809 0.929 . S
H796 C810 0.931 . S
H797 C812 0.930 . S
C798 H786 0.930 . S
C798 C799 1.399 . S
C798 C803 1.399 . S
C799 C798 1.399 . S
C799 C800 1.376 . S
C800 H787 0.930 . S
C800 C799 1.376 . S
C800 C801 1.388 . S
C801 H788 0.930 . S
C801 C800 1.388 . S
C801 C802 1.390 . S
C802 C801 1.390 . S
C802 C803 1.394 . S
C802 C808 1.465 . S
C803 C798 1.399 . S
C803 C802 1.394 . S
C803 C804 1.516 . S
C804 C803 1.516 . S
C804 C805 1.502 . S
C804 C806 1.561 . S
C804 C807 1.526 . S
C805 H789 0.959 . S
C805 H790 0.959 . S
C805 H791 0.961 . S
C805 C804 1.502 . S
C806 H792 0.960 . S
C806 H793 0.961 . S
C806 H794 0.959 . S
C806 C804 1.561 . S
C807 C804 1.526 . S
C807 C808 1.396 . S
C807 C812 1.390 . S
C808 C802 1.465 . S
C808 C807 1.396 . S
C808 C809 1.399 . S
C809 H795 0.929 . S
C809 C808 1.399 . S
C809 C810 1.385 . S
C810 H796 0.931 . S
C810 C809 1.385 . S
C810 C811 1.389 . S
C811 C810 1.389 . S
C811 C812 1.387 . S
C812 H797 0.930 . S
C812 C807 1.390 . S
C812 C811 1.387 . S
H813 C825 0.930 . S
H814 C827 0.930 . S
H815 C828 0.930 . S
H816 C832 0.959 . S
H817 C832 0.959 . S
H818 C832 0.961 . S
H819 C833 0.960 . S
H820 C833 0.961 . S
H821 C833 0.959 . S
H822 C836 0.929 . S
H823 C837 0.931 . S
H824 C839 0.930 . S
C825 H813 0.930 . S
C825 C826 1.399 . S
C825 C830 1.399 . S
C826 C825 1.399 . S
C826 C827 1.376 . S
C827 H814 0.930 . S
C827 C826 1.376 . S
C827 C828 1.388 . S
C828 H815 0.930 . S
C828 C827 1.388 . S
C828 C829 1.390 . S
C829 C828 1.390 . S
C829 C830 1.394 . S
C829 C835 1.465 . S
C830 C825 1.399 . S
C830 C829 1.394 . S
C830 C831 1.516 . S
C831 C830 1.516 . S
C831 C832 1.502 . S
C831 C833 1.561 . S
C831 C834 1.526 . S
C832 H816 0.959 . S
C832 H817 0.959 . S
C832 H818 0.961 . S
C832 C831 1.502 . S
C833 H819 0.960 . S
C833 H820 0.961 . S
C833 H821 0.959 . S
C833 C831 1.561 . S
C834 C831 1.526 . S
C834 C835 1.396 . S
C834 C839 1.390 . S
C835 C829 1.465 . S
C835 C834 1.396 . S
C835 C836 1.399 . S
C836 H822 0.929 . S
C836 C835 1.399 . S
C836 C837 1.385 . S
C837 H823 0.931 . S
C837 C836 1.385 . S
C837 C838 1.389 . S
C838 C837 1.389 . S
C838 C839 1.387 . S
C839 H824 0.930 . S
C839 C834 1.390 . S
C839 C838 1.387 . S
C205 C45 1.581 . S
C217 C112 1.580 . S
C232 C30 1.582 . S
C244 C123 1.605 . S
C259 C39 1.576 . S
C271 C134 1.594 . S
C298 C145 1.574 . S
C286 C34 1.562 . S
C313 C97 1.607 . S
C325 C156 1.564 . S
C352 C167 1.610 . S
C340 C82 1.570 . S
C379 C178 1.567 . S
C367 C91 1.607 . S
C406 C189 1.569 . S
C394 C86 1.582 . S
C433 C175 1.179 . S
C421 C26 1.306 . S
C460 C186 1.297 . S
C448 C36 1.439 . S
C487 C153 1.139 . S
C475 C32 1.334 . S
C514 C166 1.557 . S
C502 C42 1.548 . S
C529 C18 1.504 . S
C541 C164 1.523 . S
C568 C177 1.703 . S
C556 C50 1.773 . S
C583 C4 1.580 . S
C595 C188 1.601 . S
C610 C48 1.772 . S
C622 C155 1.711 . S
C649 C131 1.132 . S
C637 C78 1.334 . S
C664 C88 1.446 . S
C676 C142 1.278 . S
C703 C109 1.086 . S
C691 C84 1.339 . S
C730 C122 1.568 . S
C718 C94 1.485 . S
C757 C120 1.473 . S
C745 C70 1.530 . S
C784 C133 1.696 . S
C772 C102 1.771 . S
C799 C56 1.557 . S
C811 C144 1.534 . S
C826 C100 1.769 . S
C838 C111 1.695 . S
