# Generated by pormake.
# Topology dag, (6,3)-cn, num edge types: 1
# Building blocks:
#     Node 0, Type 0, BuildingBlock: IZENUY_clean_sbu_0, # of connection points: 6
#     Node 1, Type 0, BuildingBlock: IZENUY_clean_sbu_0, # of connection points: 6
#     Node 2, Type 0, BuildingBlock: IZENUY_clean_sbu_0, # of connection points: 6
#     Node 3, Type 0, BuildingBlock: IZENUY_clean_sbu_0, # of connection points: 6
#     Node 4, Type 1, BuildingBlock: WUSLED_clean_sbu_0, # of connection points: 3
#     Node 5, Type 1, BuildingBlock: WUSLED_clean_sbu_0, # of connection points: 3
#     Node 6, Type 1, BuildingBlock: WUSLED_clean_sbu_0, # of connection points: 3
#     Node 7, Type 1, BuildingBlock: WUSLED_clean_sbu_0, # of connection points: 3
#     Node 8, Type 1, BuildingBlock: WUSLED_clean_sbu_0, # of connection points: 3
#     Node 9, Type 1, BuildingBlock: WUSLED_clean_sbu_0, # of connection points: 3
#     Node 10, Type 1, BuildingBlock: WUSLED_clean_sbu_0, # of connection points: 3
#     Node 11, Type 1, BuildingBlock: WUSLED_clean_sbu_0, # of connection points: 3
#     Edge 12, Type (0, 1), BuildingBlock: OJICUG_clean_linker_0, # of connection points: 2
#     Edge 13, Type (0, 1), BuildingBlock: OJICUG_clean_linker_0, # of connection points: 2
#     Edge 14, Type (0, 1), BuildingBlock: OJICUG_clean_linker_0, # of connection points: 2
#     Edge 15, Type (0, 1), BuildingBlock: OJICUG_clean_linker_0, # of connection points: 2
#     Edge 16, Type (0, 1), BuildingBlock: OJICUG_clean_linker_0, # of connection points: 2
#     Edge 17, Type (0, 1), BuildingBlock: OJICUG_clean_linker_0, # of connection points: 2
#     Edge 18, Type (0, 1), BuildingBlock: OJICUG_clean_linker_0, # of connection points: 2
#     Edge 19, Type (0, 1), BuildingBlock: OJICUG_clean_linker_0, # of connection points: 2
#     Edge 20, Type (0, 1), BuildingBlock: OJICUG_clean_linker_0, # of connection points: 2
#     Edge 21, Type (0, 1), BuildingBlock: OJICUG_clean_linker_0, # of connection points: 2
#     Edge 22, Type (0, 1), BuildingBlock: OJICUG_clean_linker_0, # of connection points: 2
#     Edge 23, Type (0, 1), BuildingBlock: OJICUG_clean_linker_0, # of connection points: 2
#     Edge 24, Type (0, 1), BuildingBlock: OJICUG_clean_linker_0, # of connection points: 2
#     Edge 25, Type (0, 1), BuildingBlock: OJICUG_clean_linker_0, # of connection points: 2
#     Edge 26, Type (0, 1), BuildingBlock: OJICUG_clean_linker_0, # of connection points: 2
#     Edge 27, Type (0, 1), BuildingBlock: OJICUG_clean_linker_0, # of connection points: 2
#     Edge 28, Type (0, 1), BuildingBlock: OJICUG_clean_linker_0, # of connection points: 2
#     Edge 29, Type (0, 1), BuildingBlock: OJICUG_clean_linker_0, # of connection points: 2
#     Edge 30, Type (0, 1), BuildingBlock: OJICUG_clean_linker_0, # of connection points: 2
#     Edge 31, Type (0, 1), BuildingBlock: OJICUG_clean_linker_0, # of connection points: 2
#     Edge 32, Type (0, 1), BuildingBlock: OJICUG_clean_linker_0, # of connection points: 2
#     Edge 33, Type (0, 1), BuildingBlock: OJICUG_clean_linker_0, # of connection points: 2
#     Edge 34, Type (0, 1), BuildingBlock: OJICUG_clean_linker_0, # of connection points: 2
#     Edge 35, Type (0, 1), BuildingBlock: OJICUG_clean_linker_0, # of connection points: 2
# Relax obj value: 0.246
# Max RMSD: 0.192
# Mean RMSD: 0.159
data_MOF--net-dag--node1-IZENUY_clean_sbu_0--node2-WUSLED_clean_sbu_0--edge1-OJICUG_clean_linker_0
_symmetry_space_group_name_H-M    P1
_symmetry_Int_Tables_number       1
_symmetry_cell_setting            triclinic
loop_
_symmetry_equiv_pos_as_xyz
'x, y, z'
_cell_length_a     39.827384
_cell_length_b     41.404347
_cell_length_c     35.137766
_cell_angle_alpha  94.731375
_cell_angle_beta   90.234547
_cell_angle_gamma 89.996376
loop_
_atom_site_label
_atom_site_type_symbol
_atom_site_fract_x
_atom_site_fract_y
_atom_site_fract_z
_atom_type_partial_charge
Fe0 Fe 0.18688 0.87848 0.10165 0.0
Fe1 Fe 0.11384 0.89667 0.08865 0.0
O2 O 0.14567 0.8669 0.08711 0.0
Fe3 Fe 0.1362 0.82603 0.07163 0.0
O4 O 0.16563 0.80883 0.10525 0.0
O5 O 0.18589 0.85154 0.13951 0.0
O6 O 0.17339 0.911 0.13743 0.0
C7 C 0.14592 0.91386 0.15549 0.0
C8 C 0.19805 0.83136 0.03933 0.0
O9 O 0.11887 0.90433 0.13969 0.0
C10 C 0.10034 0.86327 0.02025 0.0
O11 O 0.18995 0.90632 0.0643 0.0
O12 O 0.14191 0.93 0.07876 0.0
O13 O 0.16735 0.82518 0.03419 0.0
O14 O 0.20804 0.84795 0.06913 0.0
C15 C 0.08004 0.84268 0.11326 0.0
O16 O 0.10702 0.89026 0.0379 0.0
O17 O 0.10539 0.83683 0.03542 0.0
C18 C 0.16956 0.92934 0.06114 0.0
O19 O 0.07972 0.86938 0.09849 0.0
O20 O 0.10413 0.82321 0.10789 0.0
C21 C 0.17934 0.82163 0.13553 0.0
Fe22 Fe 0.69853 0.62311 0.48694 0.0
Fe23 Fe 0.64633 0.67334 0.51816 0.0
O24 O 0.65798 0.63253 0.50528 0.0
Fe25 Fe 0.62894 0.6009 0.51008 0.0
O26 O 0.66075 0.57089 0.52072 0.0
O27 O 0.70804 0.59811 0.52617 0.0
O28 O 0.71931 0.65692 0.51461 0.0
C29 C 0.71078 0.67424 0.54439 0.0
C30 C 0.65642 0.58088 0.44131 0.0
O31 O 0.68025 0.67844 0.55278 0.0
C32 C 0.58892 0.65001 0.4827 0.0
O33 O 0.69145 0.64742 0.44688 0.0
O34 O 0.6717 0.69029 0.48084 0.0
O35 O 0.63028 0.58927 0.45951 0.0
O36 O 0.68512 0.58766 0.45541 0.0
C37 C 0.61634 0.63825 0.57579 0.0
O38 O 0.61156 0.67135 0.48428 0.0
O39 O 0.59192 0.62479 0.50028 0.0
C40 C 0.6835 0.67707 0.44989 0.0
O41 O 0.61892 0.66339 0.55762 0.0
O42 O 0.62529 0.61085 0.56095 0.0
C43 C 0.69022 0.57432 0.53413 0.0
Fe44 Fe 0.86769 0.18069 0.01541 0.0
Fe45 Fe 0.88591 0.10982 0.02363 0.0
O46 O 0.85655 0.13906 0.01037 0.0
Fe47 Fe 0.81623 0.12705 0.99267 0.0
O48 O 0.82254 0.14647 0.94847 0.0
O49 O 0.84157 0.19239 0.97574 0.0
O50 O 0.9022 0.17399 0.98181 0.0
C51 C 0.92594 0.15435 0.98641 0.0
C52 C 0.80349 0.18254 0.04343 0.0
O53 O 0.92285 0.13242 0.00931 0.0
C54 C 0.82414 0.08545 0.04935 0.0
O55 O 0.89584 0.17752 0.05641 0.0
O56 O 0.88781 0.12816 0.07249 0.0
O57 O 0.7946 0.16283 0.01561 0.0
O58 O 0.83408 0.18942 0.04934 0.0
C59 C 0.86015 0.07867 0.95805 0.0
O60 O 0.85461 0.08181 0.04004 0.0
O61 O 0.80628 0.10668 0.03528 0.0
C62 C 0.8964 0.15713 0.08127 0.0
O63 O 0.88589 0.08928 0.97607 0.0
O64 O 0.83107 0.08915 0.96713 0.0
C65 C 0.82911 0.17618 0.94704 0.0
Fe66 Fe 0.37609 0.39729 0.54805 0.0
Fe67 Fe 0.30565 0.37956 0.57566 0.0
O68 O 0.34675 0.36784 0.56047 0.0
Fe69 Fe 0.35856 0.32637 0.55738 0.0
O70 O 0.39185 0.33414 0.59244 0.0
O71 O 0.4126 0.37609 0.56585 0.0
O72 O 0.37373 0.41891 0.59497 0.0
C73 C 0.34723 0.42956 0.61102 0.0
C74 C 0.38982 0.34892 0.49245 0.0
O75 O 0.31871 0.41865 0.60008 0.0
C76 C 0.2952 0.32224 0.52701 0.0
O77 O 0.34484 0.42378 0.5284 0.0
O78 O 0.29681 0.39794 0.53155 0.0
O79 O 0.3879 0.32888 0.51762 0.0
O80 O 0.38066 0.3779 0.49994 0.0
C81 C 0.31906 0.3329 0.6243 0.0
O82 O 0.2854 0.34259 0.55364 0.0
O83 O 0.32605 0.31624 0.52218 0.0
C84 C 0.31484 0.4189 0.51741 0.0
O85 O 0.31113 0.36204 0.62108 0.0
O86 O 0.33163 0.31574 0.59651 0.0
C87 C 0.41481 0.35481 0.58968 0.0
C88 C 0.01 0.20206 0.28682 0.0
C89 C 0.0013 0.17021 0.27377 0.0
C90 C 0.96413 0.18998 0.2257 0.0
C91 C 0.97876 0.16421 0.24355 0.0
C92 C 0.97161 0.22199 0.24024 0.0
C93 C 0.99457 0.22797 0.27038 0.0
U94 U 0.0811 0.16311 0.3317 0.0
O95 O 0.13494 0.17403 0.33619 0.0
O96 O 0.106 0.16692 0.38798 0.0
C97 C 0.13505 0.17501 0.37371 0.0
C98 C 0.03842 0.20729 0.31351 0.0
C99 C 0.15393 0.20188 0.39445 0.0
C100 C 0.20054 0.24007 0.39653 0.0
C101 C 0.17917 0.2183 0.37585 0.0
C102 C 0.17137 0.23029 0.45477 0.0
C103 C 0.19733 0.24581 0.43632 0.0
C104 C 0.15002 0.20844 0.43409 0.0
C105 C 0.08393 0.072 0.29698 0.0
C106 C 0.13292 0.03745 0.28741 0.0
C107 C 0.07745 0.01636 0.27117 0.0
C108 C 0.06336 0.04604 0.28397 0.0
C109 C 0.11254 0.01206 0.27124 0.0
C110 C 0.1187 0.06732 0.30009 0.0
C111 C 0.06899 0.1044 0.30111 0.0
O112 O 0.03601 0.19268 0.34528 0.0
O113 O 0.0678 0.20306 0.29697 0.0
O114 O 0.08483 0.12653 0.28335 0.0
O115 O 0.05805 0.11494 0.33512 0.0
H116 H 0.01325 0.14984 0.28577 0.0
H117 H 0.97429 0.13928 0.23298 0.0
H118 H 0.96042 0.24248 0.22769 0.0
H119 H 0.00115 0.25273 0.27989 0.0
H120 H 0.22005 0.25195 0.38143 0.0
H121 H 0.18322 0.21358 0.34544 0.0
H122 H 0.16847 0.23391 0.48546 0.0
H123 H 0.13125 0.19578 0.44942 0.0
H124 H 0.15995 0.0348 0.28845 0.0
H125 H 0.06086 0.99773 0.25847 0.0
H126 H 0.03648 0.04936 0.28123 0.0
H127 H 0.13494 0.08722 0.31022 0.0
C128 C 0.35603 0.5994 0.77104 0.0
C129 C 0.37865 0.59531 0.74053 0.0
C130 C 0.35494 0.54201 0.72142 0.0
C131 C 0.37813 0.56689 0.71594 0.0
C132 C 0.3328 0.54606 0.75258 0.0
C133 C 0.33336 0.57447 0.77708 0.0
U134 U 0.39419 0.67918 0.81656 0.0
O135 O 0.37059 0.72714 0.82695 0.0
O136 O 0.38934 0.70172 0.87525 0.0
C137 C 0.37448 0.72771 0.86412 0.0
C138 C 0.35486 0.62969 0.7962 0.0
C139 C 0.34679 0.74148 0.88768 0.0
C140 C 0.29405 0.7374 0.9215 0.0
C141 C 0.31909 0.72308 0.89769 0.0
C142 C 0.32415 0.78844 0.9248 0.0
C143 C 0.29656 0.7702 0.93566 0.0
C144 C 0.34895 0.7742 0.9011 0.0
C145 C 0.47999 0.66707 0.76199 0.0
C146 C 0.53825 0.66603 0.7419 0.0
C147 C 0.49542 0.64097 0.70008 0.0
C148 C 0.47091 0.64969 0.72749 0.0
C149 C 0.52912 0.65004 0.70662 0.0
C150 C 0.51389 0.67431 0.7694 0.0
C151 C 0.4549 0.68219 0.7883 0.0
O152 O 0.37439 0.63089 0.82655 0.0
O153 O 0.35489 0.65675 0.77904 0.0
O154 O 0.44837 0.6681 0.81963 0.0
O155 O 0.42829 0.6946 0.77276 0.0
H156 H 0.3963 0.6143 0.73538 0.0
H157 H 0.39532 0.5648 0.69206 0.0
H158 H 0.31499 0.52726 0.75808 0.0
H159 H 0.31578 0.57711 0.80059 0.0
H160 H 0.27318 0.72268 0.92953 0.0
H161 H 0.31706 0.69774 0.88751 0.0
H162 H 0.32656 0.81384 0.93456 0.0
H163 H 0.3701 0.78879 0.89348 0.0
H164 H 0.56409 0.6731 0.74767 0.0
H165 H 0.48773 0.62887 0.67293 0.0
H166 H 0.44484 0.64431 0.72098 0.0
H167 H 0.52133 0.68792 0.79576 0.0
C168 C 0.75145 0.94119 0.19207 0.0
C169 C 0.77624 0.96361 0.20547 0.0
C170 C 0.76926 0.99368 0.14923 0.0
C171 C 0.78497 0.98947 0.18436 0.0
C172 C 0.74296 0.97258 0.13694 0.0
C173 C 0.73419 0.94656 0.15815 0.0
U174 U 0.7899 0.86367 0.21694 0.0
O175 O 0.7935 0.83854 0.2694 0.0
O176 O 0.773 0.81286 0.21699 0.0
C177 C 0.78095 0.8114 0.25318 0.0
C178 C 0.74667 0.91049 0.21064 0.0
C179 C 0.75912 0.79248 0.27671 0.0
C180 C 0.71833 0.78827 0.32739 0.0
C181 C 0.73491 0.80687 0.30156 0.0
C182 C 0.74954 0.74086 0.30299 0.0
C183 C 0.72599 0.75511 0.329 0.0
C184 C 0.76573 0.75931 0.27713 0.0
C185 C 0.88098 0.85384 0.18045 0.0
C186 C 0.93578 0.84064 0.20577 0.0
C187 C 0.92501 0.8325 0.13778 0.0
C188 C 0.89209 0.84334 0.14364 0.0
C189 C 0.94756 0.83228 0.16862 0.0
C190 C 0.90277 0.8513 0.21168 0.0
C191 C 0.84844 0.87082 0.18488 0.0
O192 O 0.74665 0.88389 0.18737 0.0
O193 O 0.76447 0.90756 0.24181 0.0
O194 O 0.84093 0.88366 0.21925 0.0
O195 O 0.82269 0.85699 0.16657 0.0
H196 H 0.79007 0.96053 0.23153 0.0
H197 H 0.80488 0.00564 0.195 0.0
H198 H 0.7304 0.97512 0.10996 0.0
H199 H 0.71499 0.92974 0.14709 0.0
H200 H 0.69999 0.80003 0.34651 0.0
H201 H 0.72953 0.83253 0.30175 0.0
H202 H 0.75676 0.71571 0.30365 0.0
H203 H 0.78465 0.74785 0.25846 0.0
H204 H 0.95261 0.84053 0.23006 0.0
H205 H 0.93345 0.82664 0.10876 0.0
H206 H 0.87586 0.8452 0.11909 0.0
H207 H 0.89494 0.85903 0.24048 0.0
C208 C 0.74842 0.42608 0.68034 0.0
C209 C 0.71693 0.44141 0.68153 0.0
C210 C 0.73455 0.47716 0.63368 0.0
C211 C 0.71017 0.46666 0.65872 0.0
C212 C 0.76661 0.46275 0.6335 0.0
C213 C 0.77342 0.43724 0.65653 0.0
U214 U 0.70628 0.35505 0.71539 0.0
O215 O 0.71777 0.30287 0.716 0.0
O216 O 0.70549 0.33188 0.7694 0.0
C217 C 0.71371 0.30324 0.75317 0.0
C218 C 0.75314 0.39648 0.70075 0.0
C219 C 0.73671 0.28349 0.7747 0.0
C220 C 0.78537 0.27742 0.81561 0.0
C221 C 0.76665 0.29586 0.79125 0.0
C222 C 0.74482 0.23392 0.80624 0.0
C223 C 0.77428 0.24641 0.82414 0.0
C224 C 0.72638 0.25221 0.7818 0.0
C225 C 0.61098 0.35874 0.6866 0.0
C226 C 0.55268 0.37502 0.69515 0.0
C227 C 0.56651 0.32852 0.65172 0.0
C228 C 0.60053 0.33265 0.66109 0.0
C229 C 0.54248 0.35058 0.66742 0.0
C230 C 0.58657 0.37909 0.70457 0.0
C231 C 0.64654 0.36891 0.68941 0.0
O232 O 0.73818 0.39688 0.73412 0.0
O233 O 0.74837 0.36916 0.67957 0.0
O234 O 0.66872 0.35138 0.66928 0.0
O235 O 0.65775 0.38015 0.72317 0.0
H236 H 0.69703 0.4332 0.69931 0.0
H237 H 0.6854 0.47752 0.66004 0.0
H238 H 0.78587 0.47021 0.6144 0.0
H239 H 0.79776 0.42557 0.6548 0.0
H240 H 0.80819 0.28772 0.82827 0.0
H241 H 0.77505 0.32001 0.78616 0.0
H242 H 0.73499 0.21054 0.81239 0.0
H243 H 0.70317 0.24232 0.76956 0.0
H244 H 0.53462 0.39216 0.70798 0.0
H245 H 0.55936 0.30958 0.63009 0.0
H246 H 0.61872 0.31662 0.64655 0.0
H247 H 0.59387 0.39952 0.72411 0.0
C248 C 0.51227 0.29783 0.2955 0.0
C249 C 0.50777 0.33001 0.31053 0.0
C250 C 0.46495 0.31321 0.35405 0.0
C251 C 0.48446 0.33762 0.33943 0.0
C252 C 0.46867 0.28105 0.3379 0.0
C253 C 0.49226 0.27342 0.30897 0.0
U254 U 0.59042 0.32844 0.256 0.0
O255 O 0.64185 0.30961 0.25038 0.0
O256 O 0.6154 0.3253 0.2 0.0
C257 C 0.6428 0.31239 0.21337 0.0
C258 C 0.54045 0.29008 0.26926 0.0
C259 C 0.65966 0.2862 0.18926 0.0
C260 C 0.70611 0.24799 0.1816 0.0
C261 C 0.68488 0.2676 0.20511 0.0
C262 C 0.67642 0.26379 0.12585 0.0
C263 C 0.70278 0.24662 0.14167 0.0
C264 C 0.6552 0.28352 0.14939 0.0
C265 C 0.60819 0.41642 0.29836 0.0
C266 C 0.64941 0.44766 0.33701 0.0
C267 C 0.60968 0.47508 0.29847 0.0
C268 C 0.59609 0.44522 0.28487 0.0
C269 C 0.63525 0.47669 0.3263 0.0
C270 C 0.63603 0.41782 0.32317 0.0
C271 C 0.58818 0.38646 0.29179 0.0
O272 O 0.54142 0.30691 0.23909 0.0
O273 O 0.56966 0.28873 0.28657 0.0
O274 O 0.59946 0.36081 0.30742 0.0
O275 O 0.57534 0.3798 0.2575 0.0
H276 H 0.52328 0.34919 0.3009 0.0
H277 H 0.48292 0.3625 0.35146 0.0
H278 H 0.4538 0.26166 0.34806 0.0
H279 H 0.49554 0.24841 0.29794 0.0
H280 H 0.72588 0.23468 0.19467 0.0
H281 H 0.68936 0.26937 0.23564 0.0
H282 H 0.67335 0.26343 0.09518 0.0
H283 H 0.63644 0.29794 0.13617 0.0
H284 H 0.66894 0.44792 0.35856 0.0
H285 H 0.59867 0.497 0.28907 0.0
H286 H 0.57468 0.44484 0.26572 0.0
H287 H 0.64605 0.39608 0.3341 0.0
C288 C 0.12228 0.18334 0.89113 0.0
C289 C 0.1112 0.15179 0.8961 0.0
C290 C 0.05745 0.173 0.92039 0.0
C291 C 0.07906 0.14666 0.91051 0.0
C292 C 0.06892 0.20453 0.91558 0.0
C293 C 0.10094 0.20959 0.90105 0.0
U294 U 0.21722 0.16748 0.87408 0.0
O295 O 0.24627 0.17059 0.82158 0.0
O296 O 0.25765 0.20369 0.87209 0.0
C297 C 0.26444 0.1951 0.83613 0.0
C298 C 0.15542 0.18976 0.87479 0.0
C299 C 0.27032 0.22131 0.81122 0.0
C300 C 0.25194 0.25617 0.76278 0.0
C301 C 0.24441 0.23433 0.79 0.0
C302 C 0.31097 0.25303 0.77911 0.0
C303 C 0.28546 0.26496 0.75636 0.0
C304 C 0.30344 0.23144 0.80628 0.0
C305 C 0.22109 0.09241 0.93559 0.0
C306 C 0.23495 0.05427 0.98218 0.0
C307 C 0.18019 0.05227 0.95175 0.0
C308 C 0.18906 0.07847 0.93103 0.0
C309 C 0.20329 0.03957 0.97712 0.0
C310 C 0.24371 0.08041 0.96162 0.0
C311 C 0.23321 0.11724 0.91139 0.0
O312 O 0.17864 0.20082 0.89918 0.0
O313 O 0.1668 0.16814 0.84843 0.0
O314 O 0.23479 0.14723 0.92678 0.0
O315 O 0.22323 0.1149 0.87555 0.0
H316 H 0.12725 0.13114 0.8886 0.0
H317 H 0.071 0.12202 0.91343 0.0
H318 H 0.05334 0.22542 0.92349 0.0
H319 H 0.10906 0.23414 0.89749 0.0
H320 H 0.23183 0.26488 0.74547 0.0
H321 H 0.21865 0.22672 0.79347 0.0
H322 H 0.33695 0.25967 0.77507 0.0
H323 H 0.32373 0.22168 0.82249 0.0
H324 H 0.25306 0.04549 0.00197 0.0
H325 H 0.15565 0.04136 0.94709 0.0
H326 H 0.17129 0.08727 0.91088 0.0
H327 H 0.2686 0.09081 0.9654 0.0
C328 C 0.25058 0.56463 0.37525 0.0
C329 C 0.26846 0.53791 0.35824 0.0
C330 C 0.26224 0.50943 0.4156 0.0
C331 C 0.27432 0.51071 0.37827 0.0
C332 C 0.24175 0.53472 0.43129 0.0
C333 C 0.23596 0.56209 0.41127 0.0
U334 U 0.30028 0.63827 0.35769 0.0
O335 O 0.30959 0.66427 0.30687 0.0
O336 O 0.28906 0.69041 0.35868 0.0
C337 C 0.29791 0.69181 0.32284 0.0
C338 C 0.25126 0.59627 0.35815 0.0
C339 C 0.27555 0.70986 0.29905 0.0
C340 C 0.22892 0.71271 0.25467 0.0
C341 C 0.24803 0.69518 0.27947 0.0
C342 C 0.26441 0.75965 0.26963 0.0
C343 C 0.23711 0.7451 0.24927 0.0
C344 C 0.28335 0.7422 0.29429 0.0
C345 C 0.39001 0.6383 0.39951 0.0
C346 C 0.44857 0.64098 0.38062 0.0
C347 C 0.43184 0.66242 0.4439 0.0
C348 C 0.39851 0.654 0.43526 0.0
C349 C 0.45731 0.6549 0.41711 0.0
C350 C 0.41528 0.63275 0.37188 0.0
C351 C 0.35599 0.62449 0.3929 0.0
O352 O 0.25313 0.62203 0.38267 0.0
O353 O 0.27157 0.59794 0.32892 0.0
O354 O 0.34874 0.61312 0.35779 0.0
O355 O 0.33093 0.64027 0.41015 0.0
H356 H 0.27965 0.53864 0.33029 0.0
H357 H 0.28969 0.49127 0.36523 0.0
H358 H 0.23209 0.53437 0.46002 0.0
H359 H 0.22176 0.58208 0.42498 0.0
H360 H 0.20789 0.70091 0.23965 0.0
H361 H 0.24172 0.67013 0.28288 0.0
H362 H 0.27186 0.7843 0.26566 0.0
H363 H 0.30469 0.75378 0.30901 0.0
H364 H 0.46777 0.63501 0.35944 0.0
H365 H 0.43797 0.67274 0.47242 0.0
H366 H 0.37967 0.65836 0.45724 0.0
H367 H 0.40972 0.62064 0.34407 0.0
C368 C 0.87238 0.90707 0.80144 0.0
C369 C 0.90082 0.92702 0.80676 0.0
C370 C 0.86997 0.96409 0.85157 0.0
C371 C 0.89959 0.95532 0.83149 0.0
C372 C 0.84189 0.94347 0.84676 0.0
C373 C 0.84308 0.91537 0.82186 0.0
U374 U 0.91462 0.83364 0.7471 0.0
O375 O 0.89495 0.78485 0.73178 0.0
O376 O 0.9101 0.81546 0.68655 0.0
C377 C 0.89745 0.78759 0.69495 0.0
C378 C 0.87214 0.87834 0.77368 0.0
C379 C 0.86923 0.77456 0.67176 0.0
C380 C 0.81051 0.77384 0.65291 0.0
C381 C 0.83718 0.78862 0.6739 0.0
C382 C 0.84799 0.73112 0.62795 0.0
C383 C 0.81569 0.74486 0.62972 0.0
C384 C 0.87445 0.7459 0.64865 0.0
C385 C 0.99647 0.84759 0.80653 0.0
C386 C 0.04901 0.84456 0.84097 0.0
C387 C 0.00138 0.87252 0.87123 0.0
C388 C 0.98241 0.86586 0.83791 0.0
C389 C 0.03438 0.86067 0.87349 0.0
C390 C 0.03017 0.83813 0.80771 0.0
C391 C 0.97542 0.8326 0.77579 0.0
O392 O 0.89001 0.8806 0.74261 0.0
O393 O 0.87499 0.85007 0.78791 0.0
O394 O 0.96753 0.8499 0.7473 0.0
O395 O 0.95034 0.8154 0.78739 0.0
H396 H 0.92381 0.92103 0.79137 0.0
H397 H 0.92164 0.97064 0.83419 0.0
H398 H 0.81891 0.94893 0.86234 0.0
H399 H 0.82092 0.90021 0.81829 0.0
H400 H 0.78597 0.78512 0.65467 0.0
H401 H 0.83279 0.81069 0.69197 0.0
H402 H 0.85276 0.7085 0.61111 0.0
H403 H 0.89899 0.73455 0.64715 0.0
H404 H 0.07454 0.83561 0.84186 0.0
H405 H 0.98954 0.88494 0.89599 0.0
H406 H 0.95627 0.87308 0.83749 0.0
H407 H 0.04129 0.82384 0.78376 0.0
C408 C 0.16317 0.96317 0.19636 0.0
C409 C 0.14361 0.93498 0.19114 0.0
H410 H 0.16842 0.01008 0.22578 0.0
C411 C 0.11824 0.92963 0.21748 0.0
H412 H 0.18288 0.96781 0.17637 0.0
C413 C 0.11047 0.95345 0.24651 0.0
C414 C 0.12731 0.98342 0.24904 0.0
H415 H 0.1032 0.90776 0.21435 0.0
H416 H 0.08974 0.94921 0.26533 0.0
C417 C 0.15493 0.98734 0.22492 0.0
C418 C 0.5795 0.61302 0.6228 0.0
C419 C 0.59713 0.64019 0.61179 0.0
H420 H 0.54371 0.59496 0.66135 0.0
C421 C 0.59385 0.66991 0.63373 0.0
H422 H 0.58136 0.58982 0.60629 0.0
C423 C 0.5727 0.67266 0.66543 0.0
C424 C 0.55399 0.64588 0.67542 0.0
H425 H 0.60712 0.69122 0.62595 0.0
H426 H 0.56996 0.69609 0.68126 0.0
C427 C 0.55782 0.61594 0.6541 0.0
C428 C 0.77437 0.06027 0.08039 0.0
C429 C 0.80932 0.06288 0.07551 0.0
H430 H 0.73413 0.03624 0.10743 0.0
C431 C 0.83057 0.04302 0.09553 0.0
H432 H 0.75728 0.07517 0.06538 0.0
C433 C 0.8174 0.02104 0.11953 0.0
C434 C 0.78255 0.01808 0.12423 0.0
H435 H 0.85759 0.04434 0.09261 0.0
H436 H 0.83465 0.00582 0.13391 0.0
C437 C 0.7611 0.03789 0.10431 0.0
C438 C 0.46495 0.38165 0.62033 0.0
C439 C 0.44603 0.35329 0.61229 0.0
H440 H 0.5099 0.40291 0.64427 0.0
C441 C 0.45797 0.32397 0.62474 0.0
H442 H 0.45626 0.40466 0.61137 0.0
C443 C 0.48907 0.32291 0.64348 0.0
C444 C 0.50821 0.3513 0.65082 0.0
H445 H 0.44384 0.30174 0.61887 0.0
H446 H 0.49832 0.29993 0.65188 0.0
C447 C 0.49554 0.38071 0.63953 0.0
C448 C 0.68022 0.53964 0.39232 0.0
C449 C 0.65292 0.55832 0.4067 0.0
H450 H 0.69627 0.49937 0.35453 0.0
C451 C 0.62116 0.55321 0.38977 0.0
H452 H 0.7051 0.54328 0.40448 0.0
C453 C 0.61611 0.52816 0.36142 0.0
C454 C 0.64274 0.50764 0.34917 0.0
H455 H 0.59971 0.56753 0.39976 0.0
H456 H 0.59074 0.52356 0.35117 0.0
C457 C 0.67515 0.51445 0.36381 0.0
C458 C 0.98661 0.13953 0.97775 0.0
C459 C 0.95915 0.15886 0.96847 0.0
H460 H 0.03888 0.12915 0.97062 0.0
C461 C 0.96409 0.18247 0.94251 0.0
H462 H 0.98386 0.12112 0.99768 0.0
C463 C 0.99581 0.18683 0.92656 0.0
C464 C 0.02337 0.16775 0.93628 0.0
H465 H 0.94349 0.19764 0.93452 0.0
H466 H 0.99866 0.20505 0.90641 0.0
C467 C 0.01825 0.14397 0.96197 0.0
C468 C 0.26567 0.44576 0.48764 0.0
C469 C 0.30043 0.44004 0.48959 0.0
H470 H 0.22615 0.47255 0.46273 0.0
C471 C 0.32195 0.45587 0.4656 0.0
H472 H 0.2485 0.43393 0.50586 0.0
C473 C 0.3092 0.47747 0.4408 0.0
C474 C 0.27463 0.48407 0.43962 0.0
H475 H 0.34882 0.45183 0.46625 0.0
H476 H 0.32663 0.48988 0.42343 0.0
C477 C 0.25291 0.46789 0.46312 0.0
C478 C 0.06973 0.89126 0.96995 0.0
C479 C 0.08394 0.86282 0.98244 0.0
H480 H 0.04273 0.91286 0.92557 0.0
C481 C 0.08234 0.83402 0.95848 0.0
H482 H 0.07054 0.91387 0.98779 0.0
C483 C 0.06679 0.83363 0.9228 0.0
C484 C 0.05223 0.86194 0.91054 0.0
H485 H 0.09317 0.81178 0.96722 0.0
H486 H 0.06553 0.81097 0.90509 0.0
C487 C 0.05376 0.89075 0.93443 0.0
C488 C 0.89363 0.03302 0.92538 0.0
C489 C 0.86353 0.0508 0.9289 0.0
H490 H 0.91908 0.9915 0.89913 0.0
C491 C 0.83611 0.04063 0.90562 0.0
H492 H 0.91523 0.04006 0.94296 0.0
C493 C 0.83846 0.01297 0.88009 0.0
C494 C 0.86819 0.99454 0.8774 0.0
H495 H 0.81264 0.0539 0.9073 0.0
H496 H 0.81685 0.00604 0.86248 0.0
C497 C 0.89588 0.00518 0.90007 0.0
C498 C 0.42278 0.30871 0.45035 0.0
C499 C 0.40674 0.33902 0.45572 0.0
H500 H 0.4539 0.27704 0.41472 0.0
C501 C 0.40798 0.35987 0.42616 0.0
H502 H 0.42235 0.29196 0.47247 0.0
C503 C 0.4257 0.351 0.39255 0.0
C504 C 0.44286 0.32117 0.38779 0.0
H505 H 0.39559 0.38322 0.42912 0.0
H506 H 0.42626 0.36774 0.37046 0.0
C507 C 0.44069 0.29996 0.41695 0.0
C508 C 0.21028 0.95954 0.02248 0.0
C509 C 0.17855 0.95725 0.03936 0.0
H510 H 0.24286 0.98718 0.98927 0.0
C511 C 0.15493 0.98201 0.03508 0.0
H512 H 0.22896 0.94083 0.02502 0.0
C513 C 0.16285 0.00851 0.01468 0.0
C514 C 0.19465 0.011 0.99812 0.0
H515 H 0.13015 0.98103 0.04755 0.0
H516 H 0.14424 0.02733 0.01243 0.0
C517 C 0.21826 0.98617 0.00215 0.0
C518 C 0.53883 0.68282 0.46582 0.0
C519 C 0.55761 0.65407 0.4614 0.0
H520 H 0.49152 0.70563 0.45534 0.0
C521 C 0.54457 0.62718 0.43935 0.0
H522 H 0.54841 0.70374 0.48303 0.0
C523 C 0.51275 0.6284 0.4231 0.0
C524 C 0.49295 0.65637 0.42921 0.0
H525 H 0.55863 0.60475 0.43568 0.0
H526 H 0.5029 0.60675 0.40754 0.0
C527 C 0.5064 0.68382 0.4502 0.0
C528 C 0.32001 0.47176 0.65637 0.0
C529 C 0.34934 0.45739 0.64054 0.0
H530 H 0.29873 0.50977 0.69362 0.0
C531 C 0.38063 0.47056 0.65237 0.0
H532 H 0.29548 0.46237 0.64793 0.0
C533 C 0.3825 0.49772 0.67883 0.0
C534 C 0.35314 0.5124 0.6942 0.0
H535 H 0.40378 0.46005 0.64098 0.0
H536 H 0.407 0.50715 0.68735 0.0
C537 C 0.32189 0.4989 0.6828 0.0
C538 C 0.03842 0.85572 0.16377 0.0
C539 C 0.05002 0.83398 0.13406 0.0
H540 H 0.99693 0.87167 0.19859 0.0
C541 C 0.02949 0.80817 0.11993 0.0
H542 H 0.05387 0.87598 0.17471 0.0
C543 C 0.99652 0.8059 0.13321 0.0
C544 C 0.98405 0.82915 0.1611 0.0
H545 H 0.03794 0.79144 0.0966 0.0
H546 H 0.98022 0.78713 0.1202 0.0
C547 C 0.00586 0.85315 0.17747 0.0
C548 C 0.73512 0.55162 0.57601 0.0
C549 C 0.70358 0.54887 0.55772 0.0
H550 H 0.76988 0.53104 0.61447 0.0
C551 C 0.68362 0.52162 0.56322 0.0
H552 H 0.75115 0.57225 0.5724 0.0
C553 C 0.69424 0.49832 0.58706 0.0
C554 C 0.72517 0.50141 0.60635 0.0
H555 H 0.65933 0.51833 0.54945 0.0
H556 H 0.67798 0.47781 0.59057 0.0
C557 C 0.74588 0.528 0.60001 0.0
C558 C 0.90775 0.14689 0.14967 0.0
C559 C 0.91142 0.16655 0.11924 0.0
H560 H 0.92014 0.13949 0.2076 0.0
C561 C 0.93038 0.1952 0.12508 0.0
H562 H 0.89291 0.1249 0.14626 0.0
C563 C 0.94649 0.2033 0.15995 0.0
C564 C 0.94372 0.18321 0.19018 0.0
H565 H 0.93377 0.21093 0.10225 0.0
H566 H 0.96222 0.2247 0.16255 0.0
C567 C 0.92349 0.15524 0.18481 0.0
C568 C 0.19545 0.76754 0.15765 0.0
C569 C 0.19086 0.80109 0.16549 0.0
H570 H 0.21409 0.7235 0.17789 0.0
C571 C 0.19866 0.81535 0.20212 0.0
H572 H 0.18958 0.75586 0.1297 0.0
C573 C 0.21214 0.79681 0.22981 0.0
C574 C 0.21852 0.7636 0.22145 0.0
H575 H 0.1948 0.84104 0.2093 0.0
H576 H 0.21818 0.80868 0.25761 0.0
C577 C 0.2093 0.74898 0.18534 0.0
C578 C 0.76895 0.6962 0.55053 0.0
C579 C 0.73693 0.69303 0.56643 0.0
H580 H 0.81824 0.71598 0.55729 0.0
C581 C 0.73033 0.70842 0.60281 0.0
H582 H 0.77476 0.68517 0.52229 0.0
C583 C 0.75563 0.72591 0.62323 0.0
C584 C 0.78785 0.72848 0.60748 0.0
H585 H 0.70585 0.70649 0.61573 0.0
H586 H 0.7502 0.73667 0.65167 0.0
C587 C 0.79397 0.71386 0.57066 0.0
C588 C 0.78696 0.21798 0.10161 0.0
C589 C 0.77755 0.1989 0.06832 0.0
H590 H 0.77083 0.24792 0.15062 0.0
C591 C 0.74318 0.19522 0.05956 0.0
H592 H 0.81315 0.22127 0.10934 0.0
C593 C 0.71882 0.21048 0.08339 0.0
C594 C 0.7283 0.22948 0.11669 0.0
H595 H 0.73502 0.18061 0.03419 0.0
H596 H 0.69257 0.2072 0.07593 0.0
C597 C 0.76264 0.23301 0.12551 0.0
C598 C 0.28586 0.3291 0.68472 0.0
C599 C 0.31112 0.31715 0.65947 0.0
H600 H 0.25751 0.32165 0.73524 0.0
C601 C 0.32824 0.28871 0.66707 0.0
H602 H 0.27216 0.3509 0.67948 0.0
C603 C 0.32012 0.27231 0.69884 0.0
C604 C 0.29445 0.28374 0.72371 0.0
H605 H 0.3479 0.27892 0.64827 0.0
H606 H 0.33347 0.25016 0.70345 0.0
C607 C 0.27735 0.31231 0.71642 0.0
C608 C 0.69601 0.68332 0.381 0.0
C609 C 0.69163 0.69743 0.41837 0.0
H610 H 0.70856 0.6905 0.32324 0.0
C611 C 0.69604 0.73108 0.42555 0.0
H612 H 0.69226 0.65754 0.37442 0.0
C613 C 0.70612 0.74996 0.39636 0.0
C614 C 0.71155 0.73575 0.3591 0.0
H615 H 0.6929 0.7427 0.45407 0.0
H616 H 0.71091 0.77549 0.40349 0.0
C617 C 0.70551 0.70227 0.35168 0.0
C618 C 0.8052 0.17693 0.88041 0.0
C619 C 0.81794 0.19365 0.91381 0.0
H620 H 0.78264 0.1802 0.82543 0.0
C621 C 0.81851 0.22776 0.91609 0.0
H622 H 0.80467 0.15068 0.87747 0.0
C623 C 0.80541 0.24472 0.88658 0.0
C624 C 0.79162 0.22813 0.85363 0.0
H625 H 0.82809 0.24157 0.94134 0.0
H626 H 0.80492 0.27093 0.89045 0.0
C627 C 0.79238 0.19394 0.85063 0.0
C628 C 0.28028 0.28162 0.47266 0.0
C629 C 0.27004 0.30332 0.5033 0.0
H630 H 0.26544 0.24643 0.42775 0.0
C631 C 0.23553 0.30661 0.51112 0.0
H632 H 0.30662 0.27852 0.46575 0.0
C633 C 0.21188 0.28826 0.48918 0.0
C634 C 0.22218 0.26637 0.45877 0.0
H635 H 0.22672 0.32319 0.53441 0.0
H636 H 0.1855 0.29129 0.49594 0.0
C637 C 0.25663 0.26341 0.45065 0.0
C638 C 0.21282 0.79525 0.98062 0.0
C639 C 0.22304 0.81611 0.01225 0.0
H640 H 0.22796 0.76441 0.93164 0.0
C641 C 0.25754 0.82144 0.01848 0.0
H642 H 0.18646 0.79055 0.97496 0.0
C643 C 0.28123 0.80633 0.99381 0.0
C644 C 0.27107 0.78551 0.96221 0.0
H645 H 0.26638 0.83717 0.04263 0.0
H646 H 0.30761 0.81071 0.99977 0.0
C647 C 0.2366 0.78006 0.95594 0.0
loop_
_geom_bond_atom_site_label_1
_geom_bond_atom_site_label_2
_geom_bond_distance
_geom_bond_site_symmetry_2
_ccdc_geom_bond_type
Fe0 O2 1.918 . S
Fe0 O5 1.997 . S
Fe0 O6 2.002 . S
Fe0 O11 1.976 . S
Fe0 O14 1.996 . S
Fe1 O2 1.918 . S
Fe1 O9 1.997 . S
Fe1 O12 1.996 . S
Fe1 O16 1.976 . S
Fe1 O19 2.002 . S
O2 Fe0 1.918 . S
O2 Fe1 1.918 . S
O2 Fe3 1.918 . S
Fe3 O2 1.918 . S
Fe3 O4 2.002 . S
Fe3 O13 1.976 . S
Fe3 O17 1.996 . S
Fe3 O20 1.997 . S
O4 Fe3 2.002 . S
O4 C21 1.295 . S
O5 Fe0 1.997 . S
O5 C21 1.235 . S
O6 Fe0 2.002 . S
O6 C7 1.295 . S
C7 O6 1.295 . S
C7 O9 1.235 . S
C8 O13 1.287 . S
C8 O14 1.255 . S
O9 Fe1 1.997 . S
O9 C7 1.235 . S
C10 O16 1.287 1_556 S
C10 O17 1.255 1_556 S
O11 Fe0 1.976 . S
O11 C18 1.287 . S
O12 Fe1 1.996 . S
O12 C18 1.255 . S
O13 Fe3 1.976 . S
O13 C8 1.287 . S
O14 Fe0 1.996 . S
O14 C8 1.255 . S
C15 O19 1.295 . S
C15 O20 1.235 . S
O16 Fe1 1.976 . S
O16 C10 1.287 1_554 S
O17 Fe3 1.996 . S
O17 C10 1.255 1_554 S
C18 O11 1.287 . S
C18 O12 1.255 . S
O19 Fe1 2.002 . S
O19 C15 1.295 . S
O20 Fe3 1.997 . S
O20 C15 1.235 . S
C21 O4 1.295 . S
C21 O5 1.235 . S
Fe22 O24 1.918 . S
Fe22 O27 1.997 . S
Fe22 O28 2.002 . S
Fe22 O33 1.976 . S
Fe22 O36 1.996 . S
Fe23 O24 1.918 . S
Fe23 O31 1.997 . S
Fe23 O34 1.996 . S
Fe23 O38 1.976 . S
Fe23 O41 2.002 . S
O24 Fe22 1.918 . S
O24 Fe23 1.918 . S
O24 Fe25 1.918 . S
Fe25 O24 1.918 . S
Fe25 O26 2.002 . S
Fe25 O35 1.976 . S
Fe25 O39 1.996 . S
Fe25 O42 1.997 . S
O26 Fe25 2.002 . S
O26 C43 1.295 . S
O27 Fe22 1.997 . S
O27 C43 1.235 . S
O28 Fe22 2.002 . S
O28 C29 1.295 . S
C29 O28 1.295 . S
C29 O31 1.235 . S
C30 O35 1.287 . S
C30 O36 1.255 . S
O31 Fe23 1.997 . S
O31 C29 1.235 . S
C32 O38 1.287 . S
C32 O39 1.255 . S
O33 Fe22 1.976 . S
O33 C40 1.287 . S
O34 Fe23 1.996 . S
O34 C40 1.255 . S
O35 Fe25 1.976 . S
O35 C30 1.287 . S
O36 Fe22 1.996 . S
O36 C30 1.255 . S
C37 O41 1.295 . S
C37 O42 1.235 . S
O38 Fe23 1.976 . S
O38 C32 1.287 . S
O39 Fe25 1.996 . S
O39 C32 1.255 . S
C40 O33 1.287 . S
C40 O34 1.255 . S
O41 Fe23 2.002 . S
O41 C37 1.295 . S
O42 Fe25 1.997 . S
O42 C37 1.235 . S
C43 O26 1.295 . S
C43 O27 1.235 . S
Fe44 O46 1.918 . S
Fe44 O49 1.997 1_554 S
Fe44 O50 2.002 . S
Fe44 O55 1.976 . S
Fe44 O58 1.996 . S
Fe45 O46 1.918 . S
Fe45 O53 1.997 . S
Fe45 O56 1.996 . S
Fe45 O60 1.976 . S
Fe45 O63 2.002 1_554 S
O46 Fe44 1.918 . S
O46 Fe45 1.918 . S
O46 Fe47 1.918 1_554 S
Fe47 O46 1.918 1_556 S
Fe47 O48 2.002 . S
Fe47 O57 1.976 1_556 S
Fe47 O61 1.996 1_556 S
Fe47 O64 1.997 . S
O48 Fe47 2.002 . S
O48 C65 1.295 . S
O49 Fe44 1.997 1_556 S
O49 C65 1.235 . S
O50 Fe44 2.002 . S
O50 C51 1.295 1_554 S
C51 O50 1.295 1_556 S
C51 O53 1.235 1_556 S
C52 O57 1.287 . S
C52 O58 1.255 . S
O53 Fe45 1.997 . S
O53 C51 1.235 1_554 S
C54 O60 1.287 . S
C54 O61 1.255 . S
O55 Fe44 1.976 . S
O55 C62 1.287 . S
O56 Fe45 1.996 . S
O56 C62 1.255 . S
O57 Fe47 1.976 1_554 S
O57 C52 1.287 . S
O58 Fe44 1.996 . S
O58 C52 1.255 . S
C59 O63 1.295 . S
C59 O64 1.235 . S
O60 Fe45 1.976 . S
O60 C54 1.287 . S
O61 Fe47 1.996 1_554 S
O61 C54 1.255 . S
C62 O55 1.287 . S
C62 O56 1.255 . S
O63 Fe45 2.002 1_556 S
O63 C59 1.295 . S
O64 Fe47 1.997 . S
O64 C59 1.235 . S
C65 O48 1.295 . S
C65 O49 1.235 . S
Fe66 O68 1.918 . S
Fe66 O71 1.997 . S
Fe66 O72 2.002 . S
Fe66 O77 1.976 . S
Fe66 O80 1.996 . S
Fe67 O68 1.918 . S
Fe67 O75 1.997 . S
Fe67 O78 1.996 . S
Fe67 O82 1.976 . S
Fe67 O85 2.002 . S
O68 Fe66 1.918 . S
O68 Fe67 1.918 . S
O68 Fe69 1.918 . S
Fe69 O68 1.918 . S
Fe69 O70 2.002 . S
Fe69 O79 1.976 . S
Fe69 O83 1.996 . S
Fe69 O86 1.997 . S
O70 Fe69 2.002 . S
O70 C87 1.295 . S
O71 Fe66 1.997 . S
O71 C87 1.235 . S
O72 Fe66 2.002 . S
O72 C73 1.295 . S
C73 O72 1.295 . S
C73 O75 1.235 . S
C74 O79 1.287 . S
C74 O80 1.255 . S
O75 Fe67 1.997 . S
O75 C73 1.235 . S
C76 O82 1.287 . S
C76 O83 1.255 . S
O77 Fe66 1.976 . S
O77 C84 1.287 . S
O78 Fe67 1.996 . S
O78 C84 1.255 . S
O79 Fe69 1.976 . S
O79 C74 1.287 . S
O80 Fe66 1.996 . S
O80 C74 1.255 . S
C81 O85 1.295 . S
C81 O86 1.235 . S
O82 Fe67 1.976 . S
O82 C76 1.287 . S
O83 Fe69 1.996 . S
O83 C76 1.255 . S
C84 O77 1.287 . S
C84 O78 1.255 . S
O85 Fe67 2.002 . S
O85 C81 1.295 . S
O86 Fe69 1.997 . S
O86 C81 1.235 . S
C87 O70 1.295 . S
C87 O71 1.235 . S
C88 C89 1.264 . S
C88 C93 1.479 . S
C88 C98 1.465 1_655 S
C89 C88 1.264 . S
C89 C91 1.339 . S
C89 H116 0.931 . S
C90 C91 1.395 . S
C90 C92 1.320 . S
C91 C89 1.339 . S
C91 C90 1.395 . S
C91 H117 0.929 . S
C92 C90 1.320 . S
C92 C93 1.405 . S
C92 H118 0.930 . S
C93 C88 1.479 . S
C93 C92 1.405 . S
C93 H119 0.931 . S
U94 O95 2.454 . S
U94 O96 2.458 . S
U94 C97 2.984 . S
U94 C98 2.847 . S
U94 C111 2.882 . S
U94 O112 2.441 . S
U94 O113 2.420 . S
U94 O114 2.455 . S
U94 O115 2.449 . S
O95 U94 2.454 . S
O95 C97 1.353 . S
O96 U94 2.458 . S
O96 C97 1.286 . S
C97 U94 2.984 . S
C97 O95 1.353 . S
C97 O96 1.286 . S
C97 C99 1.363 . S
C98 C88 1.465 1_455 S
C98 U94 2.847 . S
C98 O112 1.249 . S
C98 O113 1.202 . S
C99 C97 1.363 . S
C99 C101 1.408 . S
C99 C104 1.342 . S
C100 C101 1.310 . S
C100 C103 1.461 . S
C100 H120 0.932 . S
C101 C99 1.408 . S
C101 C100 1.310 . S
C101 H121 0.930 . S
C102 C103 1.474 . S
C102 C104 1.285 . S
C102 H122 0.929 . S
C103 C100 1.461 . S
C103 C102 1.474 . S
C104 C99 1.342 . S
C104 C102 1.285 . S
C104 H123 0.930 . S
C105 C108 1.424 . S
C105 C110 1.245 . S
C105 C111 1.428 . S
C106 C109 1.260 . S
C106 C110 1.477 1_565 S
C106 H124 0.932 . S
C107 C108 1.384 1_565 S
C107 C109 1.479 . S
C107 H125 0.929 . S
C108 C105 1.424 . S
C108 C107 1.384 1_545 S
C108 H126 0.928 . S
C109 C106 1.260 . S
C109 C107 1.479 . S
C110 C105 1.245 . S
C110 C106 1.477 1_545 S
C110 H127 0.932 . S
C111 U94 2.882 . S
C111 C105 1.428 . S
C111 O114 1.301 . S
C111 O115 1.282 . S
O112 U94 2.441 . S
O112 C98 1.249 . S
O113 U94 2.420 . S
O113 C98 1.202 . S
O114 U94 2.455 . S
O114 C111 1.301 . S
O115 U94 2.449 . S
O115 C111 1.282 . S
H116 C89 0.931 . S
H117 C91 0.929 . S
H118 C92 0.930 . S
H119 C93 0.931 . S
H120 C100 0.932 . S
H121 C101 0.930 . S
H122 C102 0.929 . S
H123 C104 0.930 . S
H124 C106 0.932 . S
H125 C107 0.929 . S
H126 C108 0.928 . S
H127 C110 0.932 . S
C128 C129 1.264 . S
C128 C133 1.479 . S
C128 C138 1.465 . S
C129 C128 1.264 . S
C129 C131 1.339 . S
C129 H156 0.931 . S
C130 C131 1.395 . S
C130 C132 1.320 . S
C131 C129 1.339 . S
C131 C130 1.395 . S
C131 H157 0.929 . S
C132 C130 1.320 . S
C132 C133 1.405 . S
C132 H158 0.930 . S
C133 C128 1.479 . S
C133 C132 1.405 . S
C133 H159 0.931 . S
U134 O135 2.454 . S
U134 O136 2.458 . S
U134 C137 2.984 . S
U134 C138 2.847 . S
U134 C151 2.882 . S
U134 O152 2.441 . S
U134 O153 2.420 . S
U134 O154 2.455 . S
U134 O155 2.449 . S
O135 U134 2.454 . S
O135 C137 1.353 . S
O136 U134 2.458 . S
O136 C137 1.286 . S
C137 U134 2.984 . S
C137 O135 1.353 . S
C137 O136 1.286 . S
C137 C139 1.363 . S
C138 C128 1.465 . S
C138 U134 2.847 . S
C138 O152 1.249 . S
C138 O153 1.202 . S
C139 C137 1.363 . S
C139 C141 1.408 . S
C139 C144 1.342 . S
C140 C141 1.310 . S
C140 C143 1.461 . S
C140 H160 0.932 . S
C141 C139 1.408 . S
C141 C140 1.310 . S
C141 H161 0.930 . S
C142 C143 1.474 . S
C142 C144 1.285 . S
C142 H162 0.929 . S
C143 C140 1.461 . S
C143 C142 1.474 . S
C144 C139 1.342 . S
C144 C142 1.285 . S
C144 H163 0.930 . S
C145 C148 1.424 . S
C145 C150 1.245 . S
C145 C151 1.428 . S
C146 C149 1.260 . S
C146 C150 1.477 . S
C146 H164 0.932 . S
C147 C148 1.384 . S
C147 C149 1.479 . S
C147 H165 0.929 . S
C148 C145 1.424 . S
C148 C147 1.384 . S
C148 H166 0.928 . S
C149 C146 1.260 . S
C149 C147 1.479 . S
C150 C145 1.245 . S
C150 C146 1.477 . S
C150 H167 0.932 . S
C151 U134 2.882 . S
C151 C145 1.428 . S
C151 O154 1.301 . S
C151 O155 1.282 . S
O152 U134 2.441 . S
O152 C138 1.249 . S
O153 U134 2.420 . S
O153 C138 1.202 . S
O154 U134 2.455 . S
O154 C151 1.301 . S
O155 U134 2.449 . S
O155 C151 1.282 . S
H156 C129 0.931 . S
H157 C131 0.929 . S
H158 C132 0.930 . S
H159 C133 0.931 . S
H160 C140 0.932 . S
H161 C141 0.930 . S
H162 C142 0.929 . S
H163 C144 0.930 . S
H164 C146 0.932 . S
H165 C147 0.929 . S
H166 C148 0.928 . S
H167 C150 0.932 . S
C168 C169 1.264 . S
C168 C173 1.479 . S
C168 C178 1.465 . S
C169 C168 1.264 . S
C169 C171 1.339 . S
C169 H196 0.931 . S
C170 C171 1.395 . S
C170 C172 1.320 . S
C171 C169 1.339 . S
C171 C170 1.395 . S
C171 H197 0.929 . S
C172 C170 1.320 . S
C172 C173 1.405 . S
C172 H198 0.930 . S
C173 C168 1.479 . S
C173 C172 1.405 . S
C173 H199 0.931 . S
U174 O175 2.454 . S
U174 O176 2.458 . S
U174 C177 2.984 . S
U174 C178 2.847 . S
U174 C191 2.882 . S
U174 O192 2.441 . S
U174 O193 2.420 . S
U174 O194 2.455 . S
U174 O195 2.449 . S
O175 U174 2.454 . S
O175 C177 1.353 . S
O176 U174 2.458 . S
O176 C177 1.286 . S
C177 U174 2.984 . S
C177 O175 1.353 . S
C177 O176 1.286 . S
C177 C179 1.363 . S
C178 C168 1.465 . S
C178 U174 2.847 . S
C178 O192 1.249 . S
C178 O193 1.202 . S
C179 C177 1.363 . S
C179 C181 1.408 . S
C179 C184 1.342 . S
C180 C181 1.310 . S
C180 C183 1.461 . S
C180 H200 0.932 . S
C181 C179 1.408 . S
C181 C180 1.310 . S
C181 H201 0.930 . S
C182 C183 1.474 . S
C182 C184 1.285 . S
C182 H202 0.929 . S
C183 C180 1.461 . S
C183 C182 1.474 . S
C184 C179 1.342 . S
C184 C182 1.285 . S
C184 H203 0.930 . S
C185 C188 1.424 . S
C185 C190 1.245 . S
C185 C191 1.428 . S
C186 C189 1.260 . S
C186 C190 1.477 . S
C186 H204 0.932 . S
C187 C188 1.384 . S
C187 C189 1.479 . S
C187 H205 0.929 . S
C188 C185 1.424 . S
C188 C187 1.384 . S
C188 H206 0.928 . S
C189 C186 1.260 . S
C189 C187 1.479 . S
C190 C185 1.245 . S
C190 C186 1.477 . S
C190 H207 0.932 . S
C191 U174 2.882 . S
C191 C185 1.428 . S
C191 O194 1.301 . S
C191 O195 1.282 . S
O192 U174 2.441 . S
O192 C178 1.249 . S
O193 U174 2.420 . S
O193 C178 1.202 . S
O194 U174 2.455 . S
O194 C191 1.301 . S
O195 U174 2.449 . S
O195 C191 1.282 . S
H196 C169 0.931 . S
H197 C171 0.929 . S
H198 C172 0.930 . S
H199 C173 0.931 . S
H200 C180 0.932 . S
H201 C181 0.930 . S
H202 C182 0.929 . S
H203 C184 0.930 . S
H204 C186 0.932 . S
H205 C187 0.929 . S
H206 C188 0.928 . S
H207 C190 0.932 . S
C208 C209 1.264 . S
C208 C213 1.479 . S
C208 C218 1.465 . S
C209 C208 1.264 . S
C209 C211 1.339 . S
C209 H236 0.931 . S
C210 C211 1.395 . S
C210 C212 1.320 . S
C211 C209 1.339 . S
C211 C210 1.395 . S
C211 H237 0.929 . S
C212 C210 1.320 . S
C212 C213 1.405 . S
C212 H238 0.930 . S
C213 C208 1.479 . S
C213 C212 1.405 . S
C213 H239 0.931 . S
U214 O215 2.454 . S
U214 O216 2.458 . S
U214 C217 2.984 . S
U214 C218 2.847 . S
U214 C231 2.882 . S
U214 O232 2.441 . S
U214 O233 2.420 . S
U214 O234 2.455 . S
U214 O235 2.449 . S
O215 U214 2.454 . S
O215 C217 1.353 . S
O216 U214 2.458 . S
O216 C217 1.286 . S
C217 U214 2.984 . S
C217 O215 1.353 . S
C217 O216 1.286 . S
C217 C219 1.363 . S
C218 C208 1.465 . S
C218 U214 2.847 . S
C218 O232 1.249 . S
C218 O233 1.202 . S
C219 C217 1.363 . S
C219 C221 1.408 . S
C219 C224 1.342 . S
C220 C221 1.310 . S
C220 C223 1.461 . S
C220 H240 0.932 . S
C221 C219 1.408 . S
C221 C220 1.310 . S
C221 H241 0.930 . S
C222 C223 1.474 . S
C222 C224 1.285 . S
C222 H242 0.929 . S
C223 C220 1.461 . S
C223 C222 1.474 . S
C224 C219 1.342 . S
C224 C222 1.285 . S
C224 H243 0.930 . S
C225 C228 1.424 . S
C225 C230 1.245 . S
C225 C231 1.428 . S
C226 C229 1.260 . S
C226 C230 1.477 . S
C226 H244 0.932 . S
C227 C228 1.384 . S
C227 C229 1.479 . S
C227 H245 0.929 . S
C228 C225 1.424 . S
C228 C227 1.384 . S
C228 H246 0.928 . S
C229 C226 1.260 . S
C229 C227 1.479 . S
C230 C225 1.245 . S
C230 C226 1.477 . S
C230 H247 0.932 . S
C231 U214 2.882 . S
C231 C225 1.428 . S
C231 O234 1.301 . S
C231 O235 1.282 . S
O232 U214 2.441 . S
O232 C218 1.249 . S
O233 U214 2.420 . S
O233 C218 1.202 . S
O234 U214 2.455 . S
O234 C231 1.301 . S
O235 U214 2.449 . S
O235 C231 1.282 . S
H236 C209 0.931 . S
H237 C211 0.929 . S
H238 C212 0.930 . S
H239 C213 0.931 . S
H240 C220 0.932 . S
H241 C221 0.930 . S
H242 C222 0.929 . S
H243 C224 0.930 . S
H244 C226 0.932 . S
H245 C227 0.929 . S
H246 C228 0.928 . S
H247 C230 0.932 . S
C248 C249 1.264 . S
C248 C253 1.479 . S
C248 C258 1.465 . S
C249 C248 1.264 . S
C249 C251 1.339 . S
C249 H276 0.931 . S
C250 C251 1.395 . S
C250 C252 1.320 . S
C251 C249 1.339 . S
C251 C250 1.395 . S
C251 H277 0.929 . S
C252 C250 1.320 . S
C252 C253 1.405 . S
C252 H278 0.930 . S
C253 C248 1.479 . S
C253 C252 1.405 . S
C253 H279 0.931 . S
U254 O255 2.454 . S
U254 O256 2.458 . S
U254 C257 2.984 . S
U254 C258 2.847 . S
U254 C271 2.882 . S
U254 O272 2.441 . S
U254 O273 2.420 . S
U254 O274 2.455 . S
U254 O275 2.449 . S
O255 U254 2.454 . S
O255 C257 1.353 . S
O256 U254 2.458 . S
O256 C257 1.286 . S
C257 U254 2.984 . S
C257 O255 1.353 . S
C257 O256 1.286 . S
C257 C259 1.363 . S
C258 C248 1.465 . S
C258 U254 2.847 . S
C258 O272 1.249 . S
C258 O273 1.202 . S
C259 C257 1.363 . S
C259 C261 1.408 . S
C259 C264 1.342 . S
C260 C261 1.310 . S
C260 C263 1.461 . S
C260 H280 0.932 . S
C261 C259 1.408 . S
C261 C260 1.310 . S
C261 H281 0.930 . S
C262 C263 1.474 . S
C262 C264 1.285 . S
C262 H282 0.929 . S
C263 C260 1.461 . S
C263 C262 1.474 . S
C264 C259 1.342 . S
C264 C262 1.285 . S
C264 H283 0.930 . S
C265 C268 1.424 . S
C265 C270 1.245 . S
C265 C271 1.428 . S
C266 C269 1.260 . S
C266 C270 1.477 . S
C266 H284 0.932 . S
C267 C268 1.384 . S
C267 C269 1.479 . S
C267 H285 0.929 . S
C268 C265 1.424 . S
C268 C267 1.384 . S
C268 H286 0.928 . S
C269 C266 1.260 . S
C269 C267 1.479 . S
C270 C265 1.245 . S
C270 C266 1.477 . S
C270 H287 0.932 . S
C271 U254 2.882 . S
C271 C265 1.428 . S
C271 O274 1.301 . S
C271 O275 1.282 . S
O272 U254 2.441 . S
O272 C258 1.249 . S
O273 U254 2.420 . S
O273 C258 1.202 . S
O274 U254 2.455 . S
O274 C271 1.301 . S
O275 U254 2.449 . S
O275 C271 1.282 . S
H276 C249 0.931 . S
H277 C251 0.929 . S
H278 C252 0.930 . S
H279 C253 0.931 . S
H280 C260 0.932 . S
H281 C261 0.930 . S
H282 C262 0.929 . S
H283 C264 0.930 . S
H284 C266 0.932 . S
H285 C267 0.929 . S
H286 C268 0.928 . S
H287 C270 0.932 . S
C288 C289 1.264 . S
C288 C293 1.479 . S
C288 C298 1.465 . S
C289 C288 1.264 . S
C289 C291 1.339 . S
C289 H316 0.931 . S
C290 C291 1.395 . S
C290 C292 1.320 . S
C291 C289 1.339 . S
C291 C290 1.395 . S
C291 H317 0.929 . S
C292 C290 1.320 . S
C292 C293 1.405 . S
C292 H318 0.930 . S
C293 C288 1.479 . S
C293 C292 1.405 . S
C293 H319 0.931 . S
U294 O295 2.454 . S
U294 O296 2.458 . S
U294 C297 2.984 . S
U294 C298 2.847 . S
U294 C311 2.882 . S
U294 O312 2.441 . S
U294 O313 2.420 . S
U294 O314 2.455 . S
U294 O315 2.449 . S
O295 U294 2.454 . S
O295 C297 1.353 . S
O296 U294 2.458 . S
O296 C297 1.286 . S
C297 U294 2.984 . S
C297 O295 1.353 . S
C297 O296 1.286 . S
C297 C299 1.363 . S
C298 C288 1.465 . S
C298 U294 2.847 . S
C298 O312 1.249 . S
C298 O313 1.202 . S
C299 C297 1.363 . S
C299 C301 1.408 . S
C299 C304 1.342 . S
C300 C301 1.310 . S
C300 C303 1.461 . S
C300 H320 0.932 . S
C301 C299 1.408 . S
C301 C300 1.310 . S
C301 H321 0.930 . S
C302 C303 1.474 . S
C302 C304 1.285 . S
C302 H322 0.929 . S
C303 C300 1.461 . S
C303 C302 1.474 . S
C304 C299 1.342 . S
C304 C302 1.285 . S
C304 H323 0.930 . S
C305 C308 1.424 . S
C305 C310 1.245 . S
C305 C311 1.428 . S
C306 C309 1.260 . S
C306 C310 1.477 . S
C306 H324 0.932 . S
C307 C308 1.384 . S
C307 C309 1.479 . S
C307 H325 0.929 1_556 S
C308 C305 1.424 . S
C308 C307 1.384 . S
C308 H326 0.928 . S
C309 C306 1.260 . S
C309 C307 1.479 . S
C310 C305 1.245 . S
C310 C306 1.477 . S
C310 H327 0.932 . S
C311 U294 2.882 . S
C311 C305 1.428 . S
C311 O314 1.301 . S
C311 O315 1.282 . S
O312 U294 2.441 . S
O312 C298 1.249 . S
O313 U294 2.420 . S
O313 C298 1.202 . S
O314 U294 2.455 . S
O314 C311 1.301 . S
O315 U294 2.449 . S
O315 C311 1.282 . S
H316 C289 0.931 . S
H317 C291 0.929 . S
H318 C292 0.930 . S
H319 C293 0.931 . S
H320 C300 0.932 . S
H321 C301 0.930 . S
H322 C302 0.929 . S
H323 C304 0.930 . S
H324 C306 0.932 . S
H325 C307 0.929 1_554 S
H326 C308 0.928 . S
H327 C310 0.932 . S
C328 C329 1.264 . S
C328 C333 1.479 . S
C328 C338 1.465 . S
C329 C328 1.264 . S
C329 C331 1.339 . S
C329 H356 0.931 . S
C330 C331 1.395 . S
C330 C332 1.320 . S
C331 C329 1.339 . S
C331 C330 1.395 . S
C331 H357 0.929 . S
C332 C330 1.320 . S
C332 C333 1.405 . S
C332 H358 0.930 . S
C333 C328 1.479 . S
C333 C332 1.405 . S
C333 H359 0.931 . S
U334 O335 2.454 . S
U334 O336 2.458 . S
U334 C337 2.984 . S
U334 C338 2.847 . S
U334 C351 2.882 . S
U334 O352 2.441 . S
U334 O353 2.420 . S
U334 O354 2.455 . S
U334 O355 2.449 . S
O335 U334 2.454 . S
O335 C337 1.353 . S
O336 U334 2.458 . S
O336 C337 1.286 . S
C337 U334 2.984 . S
C337 O335 1.353 . S
C337 O336 1.286 . S
C337 C339 1.363 . S
C338 C328 1.465 . S
C338 U334 2.847 . S
C338 O352 1.249 . S
C338 O353 1.202 . S
C339 C337 1.363 . S
C339 C341 1.408 . S
C339 C344 1.342 . S
C340 C341 1.310 . S
C340 C343 1.461 . S
C340 H360 0.932 . S
C341 C339 1.408 . S
C341 C340 1.310 . S
C341 H361 0.930 . S
C342 C343 1.474 . S
C342 C344 1.285 . S
C342 H362 0.929 . S
C343 C340 1.461 . S
C343 C342 1.474 . S
C344 C339 1.342 . S
C344 C342 1.285 . S
C344 H363 0.930 . S
C345 C348 1.424 . S
C345 C350 1.245 . S
C345 C351 1.428 . S
C346 C349 1.260 . S
C346 C350 1.477 . S
C346 H364 0.932 . S
C347 C348 1.384 . S
C347 C349 1.479 . S
C347 H365 0.929 . S
C348 C345 1.424 . S
C348 C347 1.384 . S
C348 H366 0.928 . S
C349 C346 1.260 . S
C349 C347 1.479 . S
C350 C345 1.245 . S
C350 C346 1.477 . S
C350 H367 0.932 . S
C351 U334 2.882 . S
C351 C345 1.428 . S
C351 O354 1.301 . S
C351 O355 1.282 . S
O352 U334 2.441 . S
O352 C338 1.249 . S
O353 U334 2.420 . S
O353 C338 1.202 . S
O354 U334 2.455 . S
O354 C351 1.301 . S
O355 U334 2.449 . S
O355 C351 1.282 . S
H356 C329 0.931 . S
H357 C331 0.929 . S
H358 C332 0.930 . S
H359 C333 0.931 . S
H360 C340 0.932 . S
H361 C341 0.930 . S
H362 C342 0.929 . S
H363 C344 0.930 . S
H364 C346 0.932 . S
H365 C347 0.929 . S
H366 C348 0.928 . S
H367 C350 0.932 . S
C368 C369 1.264 . S
C368 C373 1.479 . S
C368 C378 1.465 . S
C369 C368 1.264 . S
C369 C371 1.339 1_565 S
C369 H396 0.931 . S
C370 C371 1.395 . S
C370 C372 1.320 . S
C371 C369 1.339 1_545 S
C371 C370 1.395 . S
C371 H397 0.929 . S
C372 C370 1.320 . S
C372 C373 1.405 1_545 S
C372 H398 0.930 . S
C373 C368 1.479 . S
C373 C372 1.405 1_565 S
C373 H399 0.931 . S
U374 O375 2.454 . S
U374 O376 2.458 . S
U374 C377 2.984 . S
U374 C378 2.847 . S
U374 C391 2.882 . S
U374 O392 2.441 . S
U374 O393 2.420 . S
U374 O394 2.455 . S
U374 O395 2.449 . S
O375 U374 2.454 . S
O375 C377 1.353 . S
O376 U374 2.458 . S
O376 C377 1.286 . S
C377 U374 2.984 . S
C377 O375 1.353 . S
C377 O376 1.286 . S
C377 C379 1.363 . S
C378 C368 1.465 . S
C378 U374 2.847 . S
C378 O392 1.249 . S
C378 O393 1.202 . S
C379 C377 1.363 . S
C379 C381 1.408 . S
C379 C384 1.342 . S
C380 C381 1.310 . S
C380 C383 1.461 . S
C380 H400 0.932 . S
C381 C379 1.408 . S
C381 C380 1.310 . S
C381 H401 0.930 . S
C382 C383 1.474 . S
C382 C384 1.285 . S
C382 H402 0.929 . S
C383 C380 1.461 . S
C383 C382 1.474 . S
C384 C379 1.342 . S
C384 C382 1.285 . S
C384 H403 0.930 . S
C385 C388 1.409 1_655 S
C385 C390 1.235 1_655 S
C385 C391 1.451 . S
C386 C389 1.260 . S
C386 C390 1.477 . S
C386 H404 0.932 . S
C387 C388 1.384 . S
C387 C389 1.479 . S
C387 H405 0.929 . S
C388 C385 1.409 1_455 S
C388 C387 1.384 . S
C388 H406 0.928 . S
C389 C386 1.260 . S
C389 C387 1.479 . S
C390 C385 1.235 1_455 S
C390 C386 1.477 . S
C390 H407 0.945 . S
C391 U374 2.882 . S
C391 C385 1.451 . S
C391 O394 1.301 . S
C391 O395 1.282 . S
O392 U374 2.441 . S
O392 C378 1.249 . S
O393 U374 2.420 . S
O393 C378 1.202 . S
O394 U374 2.455 . S
O394 C391 1.301 . S
O395 U374 2.449 . S
O395 C391 1.282 . S
H396 C369 0.931 . S
H397 C371 0.929 . S
H398 C372 0.930 . S
H399 C373 0.931 . S
H400 C380 0.932 . S
H401 C381 0.930 . S
H402 C382 0.929 . S
H403 C384 0.930 . S
H404 C386 0.932 . S
H405 C387 0.929 . S
H406 C388 0.928 . S
H407 C390 0.945 . S
C408 C409 1.387 . S
C408 H412 0.950 . S
C408 C417 1.390 . S
C409 C408 1.387 . S
C409 C411 1.387 . S
H410 C417 0.950 . S
C411 C409 1.387 . S
C411 C413 1.390 . S
C411 H415 0.950 . S
H412 C408 0.950 . S
C413 C411 1.390 . S
C413 C414 1.387 . S
C413 H416 0.950 . S
C414 C413 1.387 . S
C414 C417 1.387 . S
H415 C411 0.950 . S
H416 C413 0.950 . S
C417 C408 1.390 . S
C417 H410 0.950 . S
C417 C414 1.387 . S
C418 C419 1.387 . S
C418 H422 0.950 . S
C418 C427 1.390 . S
C419 C418 1.387 . S
C419 C421 1.387 . S
H420 C427 0.950 . S
C421 C419 1.387 . S
C421 C423 1.390 . S
C421 H425 0.950 . S
H422 C418 0.950 . S
C423 C421 1.390 . S
C423 C424 1.387 . S
C423 H426 0.950 . S
C424 C423 1.387 . S
C424 C427 1.387 . S
H425 C421 0.950 . S
H426 C423 0.950 . S
C427 C418 1.390 . S
C427 H420 0.950 . S
C427 C424 1.387 . S
C428 C429 1.387 . S
C428 H432 0.950 . S
C428 C437 1.390 . S
C429 C428 1.387 . S
C429 C431 1.387 . S
H430 C437 0.950 . S
C431 C429 1.387 . S
C431 C433 1.390 . S
C431 H435 0.950 . S
H432 C428 0.950 . S
C433 C431 1.390 . S
C433 C434 1.387 . S
C433 H436 0.950 . S
C434 C433 1.387 . S
C434 C437 1.387 . S
H435 C431 0.950 . S
H436 C433 0.950 . S
C437 C428 1.390 . S
C437 H430 0.950 . S
C437 C434 1.387 . S
C438 C439 1.387 . S
C438 H442 0.950 . S
C438 C447 1.390 . S
C439 C438 1.387 . S
C439 C441 1.387 . S
H440 C447 0.950 . S
C441 C439 1.387 . S
C441 C443 1.390 . S
C441 H445 0.950 . S
H442 C438 0.950 . S
C443 C441 1.390 . S
C443 C444 1.387 . S
C443 H446 0.950 . S
C444 C443 1.387 . S
C444 C447 1.387 . S
H445 C441 0.950 . S
H446 C443 0.950 . S
C447 C438 1.390 . S
C447 H440 0.950 . S
C447 C444 1.387 . S
C448 C449 1.387 . S
C448 H452 0.950 . S
C448 C457 1.390 . S
C449 C448 1.387 . S
C449 C451 1.387 . S
H450 C457 0.950 . S
C451 C449 1.387 . S
C451 C453 1.390 . S
C451 H455 0.950 . S
H452 C448 0.950 . S
C453 C451 1.390 . S
C453 C454 1.387 . S
C453 H456 0.950 . S
C454 C453 1.387 . S
C454 C457 1.387 . S
H455 C451 0.950 . S
H456 C453 0.950 . S
C457 C448 1.390 . S
C457 H450 0.950 . S
C457 C454 1.387 . S
C458 C459 1.387 1_554 S
C458 H462 0.950 . S
C458 C467 1.390 1_655 S
C459 C458 1.387 1_556 S
C459 C461 1.387 . S
H460 C467 0.950 . S
C461 C459 1.387 . S
C461 C463 1.390 1_655 S
C461 H465 0.950 . S
H462 C458 0.950 . S
C463 C461 1.390 1_455 S
C463 C464 1.387 . S
C463 H466 0.950 . S
C464 C463 1.387 . S
C464 C467 1.387 1_556 S
H465 C461 0.950 . S
H466 C463 0.950 . S
C467 C458 1.390 1_455 S
C467 H460 0.950 . S
C467 C464 1.387 1_554 S
C468 C469 1.387 . S
C468 H472 0.950 . S
C468 C477 1.390 . S
C469 C468 1.387 . S
C469 C471 1.387 . S
H470 C477 0.950 . S
C471 C469 1.387 . S
C471 C473 1.390 . S
C471 H475 0.950 . S
H472 C468 0.950 . S
C473 C471 1.390 . S
C473 C474 1.387 . S
C473 H476 0.950 . S
C474 C473 1.387 . S
C474 C477 1.387 . S
H475 C471 0.950 . S
H476 C473 0.950 . S
C477 C468 1.390 . S
C477 H470 0.950 . S
C477 C474 1.387 . S
C478 C479 1.387 . S
C478 H482 0.950 . S
C478 C487 1.390 . S
C479 C478 1.387 . S
C479 C481 1.387 . S
H480 C487 0.950 . S
C481 C479 1.387 . S
C481 C483 1.390 . S
C481 H485 0.950 . S
H482 C478 0.950 . S
C483 C481 1.390 . S
C483 C484 1.387 . S
C483 H486 0.950 . S
C484 C483 1.387 . S
C484 C487 1.387 . S
H485 C481 0.950 . S
H486 C483 0.950 . S
C487 C478 1.390 . S
C487 H480 0.950 . S
C487 C484 1.387 . S
C488 C489 1.387 . S
C488 H492 0.950 . S
C488 C497 1.390 . S
C489 C488 1.387 . S
C489 C491 1.387 . S
H490 C497 0.950 . S
C491 C489 1.387 . S
C491 C493 1.390 . S
C491 H495 0.950 . S
H492 C488 0.950 . S
C493 C491 1.390 . S
C493 C494 1.387 . S
C493 H496 0.950 . S
C494 C493 1.387 . S
C494 C497 1.387 . S
H495 C491 0.950 . S
H496 C493 0.950 . S
C497 C488 1.390 . S
C497 H490 0.950 . S
C497 C494 1.387 . S
C498 C499 1.387 . S
C498 H502 0.950 . S
C498 C507 1.390 . S
C499 C498 1.387 . S
C499 C501 1.387 . S
H500 C507 0.950 . S
C501 C499 1.387 . S
C501 C503 1.390 . S
C501 H505 0.950 . S
H502 C498 0.950 . S
C503 C501 1.390 . S
C503 C504 1.387 . S
C503 H506 0.950 . S
C504 C503 1.387 . S
C504 C507 1.387 . S
H505 C501 0.950 . S
H506 C503 0.950 . S
C507 C498 1.390 . S
C507 H500 0.950 . S
C507 C504 1.387 . S
C508 C509 1.387 1_556 S
C508 H512 0.950 . S
C508 C517 1.390 . S
C509 C508 1.387 1_554 S
C509 C511 1.387 . S
H510 C517 0.950 . S
C511 C509 1.387 . S
C511 C513 1.390 . S
C511 H515 0.950 . S
H512 C508 0.950 . S
C513 C511 1.390 . S
C513 C514 1.387 . S
C513 H516 0.950 1_565 S
C514 C513 1.387 . S
C514 C517 1.387 1_554 S
H515 C511 0.950 . S
H516 C513 0.950 1_545 S
C517 C508 1.390 . S
C517 H510 0.950 . S
C517 C514 1.387 1_556 S
C518 C519 1.387 . S
C518 H522 0.950 . S
C518 C527 1.390 . S
C519 C518 1.387 . S
C519 C521 1.387 . S
H520 C527 0.950 . S
C521 C519 1.387 . S
C521 C523 1.390 . S
C521 H525 0.950 . S
H522 C518 0.950 . S
C523 C521 1.390 . S
C523 C524 1.387 . S
C523 H526 0.950 . S
C524 C523 1.387 . S
C524 C527 1.387 . S
H525 C521 0.950 . S
H526 C523 0.950 . S
C527 C518 1.390 . S
C527 H520 0.950 . S
C527 C524 1.387 . S
C528 C529 1.387 . S
C528 H532 0.950 . S
C528 C537 1.390 . S
C529 C528 1.387 . S
C529 C531 1.387 . S
H530 C537 0.950 . S
C531 C529 1.387 . S
C531 C533 1.390 . S
C531 H535 0.950 . S
H532 C528 0.950 . S
C533 C531 1.390 . S
C533 C534 1.387 . S
C533 H536 0.950 . S
C534 C533 1.387 . S
C534 C537 1.387 . S
H535 C531 0.950 . S
H536 C533 0.950 . S
C537 C528 1.390 . S
C537 H530 0.950 . S
C537 C534 1.387 . S
C538 C539 1.387 . S
C538 H542 0.950 . S
C538 C547 1.390 1_455 S
C539 C538 1.387 . S
C539 C541 1.387 . S
H540 C547 0.950 . S
C541 C539 1.387 . S
C541 C543 1.390 1_455 S
C541 H545 0.950 . S
H542 C538 0.950 . S
C543 C541 1.390 1_655 S
C543 C544 1.387 . S
C543 H546 0.950 . S
C544 C543 1.387 . S
C544 C547 1.387 . S
H545 C541 0.950 . S
H546 C543 0.950 . S
C547 C538 1.390 1_655 S
C547 H540 0.950 . S
C547 C544 1.387 . S
C548 C549 1.387 . S
C548 H552 0.950 . S
C548 C557 1.390 . S
C549 C548 1.387 . S
C549 C551 1.387 . S
H550 C557 0.950 . S
C551 C549 1.387 . S
C551 C553 1.390 . S
C551 H555 0.950 . S
H552 C548 0.950 . S
C553 C551 1.390 . S
C553 C554 1.387 . S
C553 H556 0.950 . S
C554 C553 1.387 . S
C554 C557 1.387 . S
H555 C551 0.950 . S
H556 C553 0.950 . S
C557 C548 1.390 . S
C557 H550 0.950 . S
C557 C554 1.387 . S
C558 C559 1.387 . S
C558 H562 0.950 . S
C558 C567 1.390 . S
C559 C558 1.387 . S
C559 C561 1.387 . S
H560 C567 0.950 . S
C561 C559 1.387 . S
C561 C563 1.390 . S
C561 H565 0.950 . S
H562 C558 0.950 . S
C563 C561 1.390 . S
C563 C564 1.387 . S
C563 H566 0.950 . S
C564 C563 1.387 . S
C564 C567 1.387 . S
H565 C561 0.950 . S
H566 C563 0.950 . S
C567 C558 1.390 . S
C567 H560 0.950 . S
C567 C564 1.387 . S
C568 C569 1.387 . S
C568 H572 0.950 . S
C568 C577 1.390 . S
C569 C568 1.387 . S
C569 C571 1.387 . S
H570 C577 0.950 . S
C571 C569 1.387 . S
C571 C573 1.390 . S
C571 H575 0.950 . S
H572 C568 0.950 . S
C573 C571 1.390 . S
C573 C574 1.387 . S
C573 H576 0.950 . S
C574 C573 1.387 . S
C574 C577 1.387 . S
H575 C571 0.950 . S
H576 C573 0.950 . S
C577 C568 1.390 . S
C577 H570 0.950 . S
C577 C574 1.387 . S
C578 C579 1.387 . S
C578 H582 0.950 . S
C578 C587 1.390 . S
C579 C578 1.387 . S
C579 C581 1.387 . S
H580 C587 0.950 . S
C581 C579 1.387 . S
C581 C583 1.390 . S
C581 H585 0.950 . S
H582 C578 0.950 . S
C583 C581 1.390 . S
C583 C584 1.387 . S
C583 H586 0.950 . S
C584 C583 1.387 . S
C584 C587 1.387 . S
H585 C581 0.950 . S
H586 C583 0.950 . S
C587 C578 1.390 . S
C587 H580 0.950 . S
C587 C584 1.387 . S
C588 C589 1.387 . S
C588 H592 0.950 . S
C588 C597 1.390 . S
C589 C588 1.387 . S
C589 C591 1.387 . S
H590 C597 0.950 . S
C591 C589 1.387 . S
C591 C593 1.390 . S
C591 H595 0.950 . S
H592 C588 0.950 . S
C593 C591 1.390 . S
C593 C594 1.387 . S
C593 H596 0.950 . S
C594 C593 1.387 . S
C594 C597 1.387 . S
H595 C591 0.950 . S
H596 C593 0.950 . S
C597 C588 1.390 . S
C597 H590 0.950 . S
C597 C594 1.387 . S
C598 C599 1.387 . S
C598 H602 0.950 . S
C598 C607 1.390 . S
C599 C598 1.387 . S
C599 C601 1.387 . S
H600 C607 0.950 . S
C601 C599 1.387 . S
C601 C603 1.390 . S
C601 H605 0.950 . S
H602 C598 0.950 . S
C603 C601 1.390 . S
C603 C604 1.387 . S
C603 H606 0.950 . S
C604 C603 1.387 . S
C604 C607 1.387 . S
H605 C601 0.950 . S
H606 C603 0.950 . S
C607 C598 1.390 . S
C607 H600 0.950 . S
C607 C604 1.387 . S
C608 C609 1.387 . S
C608 H612 0.950 . S
C608 C617 1.390 . S
C609 C608 1.387 . S
C609 C611 1.387 . S
H610 C617 0.950 . S
C611 C609 1.387 . S
C611 C613 1.390 . S
C611 H615 0.950 . S
H612 C608 0.950 . S
C613 C611 1.390 . S
C613 C614 1.387 . S
C613 H616 0.950 . S
C614 C613 1.387 . S
C614 C617 1.387 . S
H615 C611 0.950 . S
H616 C613 0.950 . S
C617 C608 1.390 . S
C617 H610 0.950 . S
C617 C614 1.387 . S
C618 C619 1.387 . S
C618 H622 0.950 . S
C618 C627 1.390 . S
C619 C618 1.387 . S
C619 C621 1.387 . S
H620 C627 0.950 . S
C621 C619 1.387 . S
C621 C623 1.390 . S
C621 H625 0.950 . S
H622 C618 0.950 . S
C623 C621 1.390 . S
C623 C624 1.387 . S
C623 H626 0.950 . S
C624 C623 1.387 . S
C624 C627 1.387 . S
H625 C621 0.950 . S
H626 C623 0.950 . S
C627 C618 1.390 . S
C627 H620 0.950 . S
C627 C624 1.387 . S
C628 C629 1.387 . S
C628 H632 0.950 . S
C628 C637 1.390 . S
C629 C628 1.387 . S
C629 C631 1.387 . S
H630 C637 0.950 . S
C631 C629 1.387 . S
C631 C633 1.390 . S
C631 H635 0.950 . S
H632 C628 0.950 . S
C633 C631 1.390 . S
C633 C634 1.387 . S
C633 H636 0.950 . S
C634 C633 1.387 . S
C634 C637 1.387 . S
H635 C631 0.950 . S
H636 C633 0.950 . S
C637 C628 1.390 . S
C637 H630 0.950 . S
C637 C634 1.387 . S
C638 C639 1.387 1_556 S
C638 H642 0.950 . S
C638 C647 1.390 . S
C639 C638 1.387 1_554 S
C639 C641 1.387 . S
H640 C647 0.950 . S
C641 C639 1.387 . S
C641 C643 1.390 . S
C641 H645 0.950 . S
H642 C638 0.950 . S
C643 C641 1.390 . S
C643 C644 1.387 . S
C643 H646 0.950 . S
C644 C643 1.387 . S
C644 C647 1.387 1_554 S
H645 C641 0.950 . S
H646 C643 0.950 . S
C647 C638 1.390 . S
C647 H640 0.950 . S
C647 C644 1.387 1_556 S
C409 C7 1.898 . S
C414 C109 1.638 . S
C419 C37 1.989 . S
C424 C149 1.642 . S
C429 C54 2.083 . S
C434 C170 1.831 1_545 S
C444 C229 1.669 . S
C439 C87 1.684 . S
C454 C269 1.589 . S
C449 C30 1.824 . S
C459 C51 1.714 . S
C464 C290 1.596 . S
C469 C84 2.187 . S
C474 C330 1.925 . S
C479 C10 1.931 . S
C484 C389 1.602 . S
C489 C59 1.844 . S
C494 C370 1.638 . S
C504 C250 1.602 . S
C499 C74 1.867 . S
C514 C309 1.844 1_564 S
C509 C18 2.194 . S
C519 C32 1.712 . S
C524 C349 1.538 . S
C534 C130 1.633 . S
C529 C73 1.837 . S
C539 C15 1.767 . S
C544 C189 1.604 . S
C554 C210 2.043 . S
C549 C43 2.172 . S
C564 C90 1.607 . S
C559 C62 1.876 . S
C574 C343 1.718 . S
C569 C21 1.850 . S
C584 C383 1.515 . S
C579 C29 1.561 . S
C589 C52 1.496 . S
C594 C263 1.428 . S
C604 C303 1.709 . S
C599 C81 1.847 . S
C614 C183 1.685 . S
C609 C40 1.779 . S
C619 C65 1.787 . S
C624 C223 1.675 . S
C634 C103 1.460 . S
C629 C76 1.531 . S
C644 C143 1.517 1_554 S
C639 C8 1.587 . S
