# Generated by pormake.
# Topology csq, (4,8)-cn, num edge types: 1
# Building blocks:
#     Node 0, Type 0, BuildingBlock: KOZSID_clean_sbu_0, # of connection points: 4
#     Node 1, Type 0, BuildingBlock: KOZSID_clean_sbu_0, # of connection points: 4
#     Node 2, Type 0, BuildingBlock: KOZSID_clean_sbu_0, # of connection points: 4
#     Node 3, Type 0, BuildingBlock: KOZSID_clean_sbu_0, # of connection points: 4
#     Node 4, Type 0, BuildingBlock: KOZSID_clean_sbu_0, # of connection points: 4
#     Node 5, Type 0, BuildingBlock: KOZSID_clean_sbu_0, # of connection points: 4
#     Node 6, Type 1, BuildingBlock: TAGTUT_clean_sbu_1, # of connection points: 8
#     Node 7, Type 1, BuildingBlock: TAGTUT_clean_sbu_1, # of connection points: 8
#     Node 8, Type 1, BuildingBlock: TAGTUT_clean_sbu_1, # of connection points: 8
#     Edge 9, Type (0, 1), BuildingBlock: CIFDUS_clean_linker_0, # of connection points: 2
#     Edge 10, Type (0, 1), BuildingBlock: CIFDUS_clean_linker_0, # of connection points: 2
#     Edge 11, Type (0, 1), BuildingBlock: CIFDUS_clean_linker_0, # of connection points: 2
#     Edge 12, Type (0, 1), BuildingBlock: CIFDUS_clean_linker_0, # of connection points: 2
#     Edge 13, Type (0, 1), BuildingBlock: CIFDUS_clean_linker_0, # of connection points: 2
#     Edge 14, Type (0, 1), BuildingBlock: CIFDUS_clean_linker_0, # of connection points: 2
#     Edge 15, Type (0, 1), BuildingBlock: CIFDUS_clean_linker_0, # of connection points: 2
#     Edge 16, Type (0, 1), BuildingBlock: CIFDUS_clean_linker_0, # of connection points: 2
#     Edge 17, Type (0, 1), BuildingBlock: CIFDUS_clean_linker_0, # of connection points: 2
#     Edge 18, Type (0, 1), BuildingBlock: CIFDUS_clean_linker_0, # of connection points: 2
#     Edge 19, Type (0, 1), BuildingBlock: CIFDUS_clean_linker_0, # of connection points: 2
#     Edge 20, Type (0, 1), BuildingBlock: CIFDUS_clean_linker_0, # of connection points: 2
#     Edge 21, Type (0, 1), BuildingBlock: CIFDUS_clean_linker_0, # of connection points: 2
#     Edge 22, Type (0, 1), BuildingBlock: CIFDUS_clean_linker_0, # of connection points: 2
#     Edge 23, Type (0, 1), BuildingBlock: CIFDUS_clean_linker_0, # of connection points: 2
#     Edge 24, Type (0, 1), BuildingBlock: CIFDUS_clean_linker_0, # of connection points: 2
#     Edge 25, Type (0, 1), BuildingBlock: CIFDUS_clean_linker_0, # of connection points: 2
#     Edge 26, Type (0, 1), BuildingBlock: CIFDUS_clean_linker_0, # of connection points: 2
#     Edge 27, Type (0, 1), BuildingBlock: CIFDUS_clean_linker_0, # of connection points: 2
#     Edge 28, Type (0, 1), BuildingBlock: CIFDUS_clean_linker_0, # of connection points: 2
#     Edge 29, Type (0, 1), BuildingBlock: CIFDUS_clean_linker_0, # of connection points: 2
#     Edge 30, Type (0, 1), BuildingBlock: CIFDUS_clean_linker_0, # of connection points: 2
#     Edge 31, Type (0, 1), BuildingBlock: CIFDUS_clean_linker_0, # of connection points: 2
#     Edge 32, Type (0, 1), BuildingBlock: CIFDUS_clean_linker_0, # of connection points: 2
# Relax obj value: 0.036
# Max RMSD: 0.132
# Mean RMSD: 0.041
data_MOF--net-csq--node1-KOZSID_clean_sbu_0--node2-TAGTUT_clean_sbu_1--edge1-CIFDUS_clean_linker_0
_symmetry_space_group_name_H-M    P1
_symmetry_Int_Tables_number       1
_symmetry_cell_setting            triclinic
loop_
_symmetry_equiv_pos_as_xyz
'x, y, z'
_cell_length_a     50.812157
_cell_length_b     50.164187
_cell_length_c     18.636192
_cell_angle_alpha  87.489065
_cell_angle_beta   97.442907
_cell_angle_gamma 119.8939
loop_
_atom_site_label
_atom_site_type_symbol
_atom_site_fract_x
_atom_site_fract_y
_atom_site_fract_z
_atom_type_partial_charge
C0 C 0.31286 0.53078 0.35794 0.0
C1 C 0.33805 0.55859 0.38406 0.0
C2 C 0.33998 0.58033 0.33544 0.0
C3 C 0.31629 0.56478 0.28213 0.0
N4 N 0.2994 0.53427 0.29324 0.0
Co5 Co 0.26357 0.5031 0.22745 0.0
N6 N 0.26453 0.53596 0.16082 0.0
C7 C 0.28444 0.56654 0.16719 0.0
C8 C 0.27961 0.58323 0.1122 0.0
C9 C 0.25485 0.56207 0.06834 0.0
C10 C 0.24604 0.53367 0.09961 0.0
N11 N 0.22815 0.47187 0.16106 0.0
C12 C 0.21304 0.47576 0.09987 0.0
C13 C 0.18968 0.44774 0.06973 0.0
C14 C 0.19031 0.42543 0.11307 0.0
C15 C 0.21373 0.44096 0.16713 0.0
N16 N 0.26198 0.47049 0.29565 0.0
C17 C 0.24217 0.43988 0.28876 0.0
C18 C 0.24354 0.42374 0.34894 0.0
C19 C 0.26545 0.44533 0.39751 0.0
C20 C 0.27655 0.47345 0.36348 0.0
N21 N 0.235 0.50765 0.28417 0.0
C22 C 0.19535 0.51418 0.36789 0.0
C23 C 0.18924 0.48518 0.34529 0.0
C24 C 0.20896 0.48247 0.30326 0.0
C25 C 0.22184 0.53979 0.34779 0.0
C26 C 0.24118 0.53607 0.30675 0.0
N27 N 0.29204 0.49839 0.16933 0.0
C28 C 0.30485 0.46585 0.1051 0.0
C29 C 0.32599 0.49085 0.06791 0.0
C30 C 0.33073 0.51989 0.08625 0.0
C31 C 0.31419 0.52312 0.13698 0.0
C32 C 0.2884 0.47006 0.15475 0.0
H33 H 0.31948 0.546 0.14786 0.0
H34 H 0.27255 0.4499 0.18002 0.0
H35 H 0.20257 0.45976 0.28627 0.0
H36 H 0.26104 0.55654 0.2936 0.0
C37 C 0.30819 0.57866 0.22383 0.0
C38 C 0.30283 0.50169 0.39582 0.0
C39 C 0.2191 0.50549 0.07087 0.0
C40 C 0.22081 0.42732 0.22751 0.0
H41 H 0.35361 0.56323 0.43313 0.0
H42 H 0.3564 0.60471 0.33919 0.0
H43 H 0.29259 0.6078 0.10478 0.0
H44 H 0.24424 0.56692 0.01919 0.0
H45 H 0.17338 0.44358 0.02226 0.0
H46 H 0.17491 0.40086 0.1071 0.0
H47 H 0.2297 0.39932 0.35718 0.0
H48 H 0.2728 0.44092 0.45165 0.0
H49 H 0.16879 0.46463 0.35802 0.0
H50 H 0.22774 0.5628 0.36376 0.0
H51 H 0.30078 0.44285 0.09623 0.0
H52 H 0.3466 0.54036 0.06034 0.0
C53 C 0.83239 0.25134 0.06924 0.0
C54 C 0.85038 0.23949 0.05182 0.0
C55 C 0.83729 0.20981 0.07528 0.0
C56 C 0.81232 0.20527 0.10623 0.0
N57 N 0.80891 0.2302 0.10374 0.0
Co58 Co 0.77736 0.23438 0.14678 0.0
N59 N 0.76844 0.19873 0.2106 0.0
C60 C 0.77588 0.17697 0.20043 0.0
C61 C 0.76497 0.1536 0.24851 0.0
C62 C 0.74927 0.16074 0.29113 0.0
C63 C 0.75163 0.18844 0.26708 0.0
N64 N 0.74604 0.239 0.19015 0.0
C65 C 0.73251 0.22676 0.25085 0.0
C66 C 0.7131 0.23774 0.26265 0.0
C67 C 0.71325 0.25596 0.20557 0.0
C68 C 0.73315 0.25573 0.16274 0.0
N69 N 0.78607 0.26958 0.08193 0.0
C70 C 0.76763 0.28146 0.06312 0.0
C71 C 0.77996 0.30592 0.01791 0.0
C72 C 0.80787 0.30959 0.00785 0.0
C73 C 0.81106 0.28717 0.04793 0.0
N74 N 0.74595 0.2069 0.07204 0.0
C75 C 0.69761 0.17519 0.96375 0.0
C76 C 0.72699 0.19518 0.94577 0.0
C77 C 0.75095 0.2108 1.00095 0.0
C78 C 0.69341 0.16967 0.03676 0.0
C79 C 0.71783 0.18568 0.08993 0.0
N80 N 0.80874 0.26232 0.2202 0.0
C81 C 0.83767 0.3139 0.26767 0.0
C82 C 0.85991 0.30787 0.30491 0.0
C83 C 0.855 0.27775 0.30083 0.0
C84 C 0.82956 0.25548 0.25706 0.0
C85 C 0.81189 0.29065 0.22854 0.0
H86 H 0.82719 0.23306 0.25142 0.0
H87 H 0.79529 0.29624 0.20167 0.0
H88 H 0.77319 0.22706 0.98598 0.0
H89 H 0.71349 0.18173 0.14543 0.0
C90 C 0.79563 0.18081 0.15018 0.0
C91 C 0.83719 0.28207 0.0496 0.0
C92 C 0.73427 0.20182 0.29276 0.0
C93 C 0.74305 0.27382 0.10184 0.0
H94 H 0.87095 0.25104 0.02571 0.0
H95 H 0.84599 0.19409 0.0736 0.0
H96 H 0.76812 0.13375 0.25238 0.0
H97 H 0.73667 0.14636 0.33326 0.0
H98 H 0.69951 0.23247 0.30683 0.0
H99 H 0.70082 0.26839 0.19717 0.0
H100 H 0.77064 0.32049 0.99802 0.0
H101 H 0.8241 0.32692 0.97534 0.0
H102 H 0.73116 0.19969 0.88979 0.0
H103 H 0.67119 0.15357 0.05281 0.0
H104 H 0.8401 0.33656 0.26621 0.0
H105 H 0.87068 0.27126 0.33011 0.0
C106 C 0.55824 0.75233 0.16068 0.0
C107 C 0.58239 0.76114 0.21582 0.0
C108 C 0.60067 0.79234 0.21169 0.0
C109 C 0.58703 0.80086 0.15397 0.0
N110 N 0.56126 0.77702 0.12147 0.0
Co111 Co 0.53623 0.77874 0.03139 0.0
N112 N 0.56964 0.81982 0.00597 0.0
C113 C 0.59459 0.83871 0.05152 0.0
C114 C 0.61291 0.86652 0.02245 0.0
C115 C 0.59836 0.86556 0.95481 0.0
C116 C 0.57178 0.83706 0.94621 0.0
N117 N 0.511 0.77988 0.94076 0.0
C118 C 0.51842 0.80006 0.88545 0.0
C119 C 0.49303 0.7926 0.83491 0.0
C120 C 0.46873 0.76774 0.86059 0.0
C121 C 0.48056 0.76123 0.92497 0.0
N122 N 0.50299 0.73805 0.05821 0.0
C123 C 0.47324 0.72503 0.03149 0.0
C124 C 0.45571 0.69651 0.05904 0.0
C125 C 0.47572 0.6912 0.10573 0.0
C126 C 0.50447 0.71679 0.10378 0.0
N127 N 0.52051 0.79932 0.08469 0.0
C128 C 0.50733 0.83564 0.16454 0.0
C129 C 0.50912 0.84008 0.09092 0.0
C130 C 0.51615 0.82205 0.05237 0.0
C131 C 0.51 0.81134 0.19727 0.0
C132 C 0.51582 0.7928 0.15555 0.0
N133 N 0.55189 0.75809 0.97898 0.0
C134 C 0.54062 0.71248 0.91545 0.0
C135 C 0.57077 0.71884 0.93446 0.0
C136 C 0.59204 0.74669 0.97019 0.0
C137 C 0.5821 0.76615 0.99179 0.0
C138 C 0.53171 0.7325 0.93775 0.0
H139 H 0.59848 0.78673 0.0225 0.0
H140 H 0.50804 0.72624 0.92532 0.0
H141 H 0.51969 0.82805 0.99751 0.0
H142 H 0.5181 0.77427 0.18145 0.0
C143 C 0.60092 0.82902 0.11973 0.0
C144 C 0.53239 0.72068 0.14794 0.0
C145 C 0.54735 0.82944 0.88545 0.0
C146 C 0.46417 0.73707 0.97033 0.0
H147 H 0.5869 0.74668 0.25419 0.0
H148 H 0.62238 0.80671 0.24396 0.0
H149 H 0.63415 0.88539 0.0477 0.0
H150 H 0.6059 0.88435 0.91753 0.0
H151 H 0.49189 0.8049 0.78647 0.0
H152 H 0.44517 0.75611 0.83577 0.0
H153 H 0.43159 0.68069 0.04394 0.0
H154 H 0.4699 0.67071 0.13694 0.0
H155 H 0.50768 0.8591 0.06456 0.0
H156 H 0.50895 0.80765 0.25478 0.0
H157 H 0.52377 0.69171 0.88518 0.0
H158 H 0.61574 0.75266 0.98426 0.0
C159 C 0.82188 0.55526 0.23804 0.0
C160 C 0.84975 0.58152 0.2594 0.0
C161 C 0.85564 0.60151 0.20349 0.0
C162 C 0.83137 0.58651 0.15088 0.0
N163 N 0.81035 0.55838 0.17037 0.0
Co164 Co 0.77333 0.52852 0.10716 0.0
N165 N 0.77542 0.5613 0.04063 0.0
C166 C 0.80007 0.58914 0.03503 0.0
C167 C 0.79475 0.60669 0.98292 0.0
C168 C 0.76487 0.58862 0.95361 0.0
C169 C 0.75375 0.56107 0.98985 0.0
N170 N 0.73652 0.49869 0.04322 0.0
C171 C 0.71814 0.5038 0.99207 0.0
C172 C 0.69447 0.4763 0.96056 0.0
C173 C 0.69867 0.45332 0.99235 0.0
C174 C 0.7244 0.46796 0.04166 0.0
N175 N 0.77127 0.49571 0.17375 0.0
C176 C 0.75451 0.46517 0.15969 0.0
C177 C 0.75519 0.44803 0.21851 0.0
C178 C 0.77387 0.46903 0.27254 0.0
C179 C 0.78421 0.49803 0.24319 0.0
N180 N 0.74747 0.53522 0.16518 0.0
C181 C 0.71272 0.5438 0.25855 0.0
C182 C 0.70555 0.51424 0.2367 0.0
C183 C 0.72273 0.51052 0.18946 0.0
C184 C 0.7376 0.56903 0.23099 0.0
C185 C 0.75474 0.56425 0.185 0.0
N186 N 0.7992 0.52163 0.04952 0.0
C187 C 0.81213 0.51503 0.93389 0.0
C188 C 0.83498 0.50938 0.9684 0.0
C189 C 0.83999 0.51076 0.04424 0.0
C190 C 0.82201 0.51697 0.08357 0.0
C191 C 0.79438 0.52091 0.97539 0.0
H192 H 0.82644 0.51765 0.14175 0.0
H193 H 0.77649 0.52446 0.94737 0.0
H194 H 0.71628 0.48745 0.17392 0.0
H195 H 0.77408 0.58405 0.16606 0.0
C196 C 0.82588 0.59938 0.08654 0.0
C197 C 0.8091 0.52671 0.27963 0.0
C198 C 0.72342 0.53441 0.97098 0.0
C199 C 0.73409 0.45363 0.0962 0.0
H200 H 0.8649 0.58576 0.30916 0.0
H201 H 0.87513 0.6244 0.20185 0.0
H202 H 0.81036 0.63012 0.96933 0.0
H203 H 0.75275 0.59478 0.91006 0.0
H204 H 0.67595 0.47295 0.91946 0.0
H205 H 0.68383 0.42879 0.98315 0.0
H206 H 0.74256 0.42326 0.22267 0.0
H207 H 0.77966 0.46355 0.32699 0.0
H208 H 0.68712 0.49379 0.25686 0.0
H209 H 0.74389 0.5924 0.24446 0.0
H210 H 0.80743 0.51406 0.8754 0.0
H211 H 0.85773 0.50702 0.07322 0.0
C212 C 0.2786 0.82633 0.20777 0.0
C213 C 0.27635 0.85175 0.22463 0.0
C214 C 0.25015 0.84834 0.18583 0.0
C215 C 0.23788 0.8211 0.14788 0.0
N216 N 0.25458 0.80678 0.16013 0.0
Co217 Co 0.24465 0.7663 0.11689 0.0
N218 N 0.2063 0.76151 0.05892 0.0
C219 C 0.19605 0.78186 0.05591 0.0
C220 C 0.16815 0.77157 0.01537 0.0
C221 C 0.15995 0.74289 0.99124 0.0
C222 C 0.18359 0.73735 0.01787 0.0
N223 N 0.23426 0.72536 0.07543 0.0
C224 C 0.2091 0.70469 0.03217 0.0
C225 C 0.21101 0.67885 0.01725 0.0
C226 C 0.23784 0.68293 0.05381 0.0
C227 C 0.25088 0.71098 0.08844 0.0
N228 N 0.28325 0.77134 0.17422 0.0
C229 C 0.29447 0.75191 0.17415 0.0
C230 C 0.32172 0.76171 0.21748 0.0
C231 C 0.32852 0.78919 0.24673 0.0
C232 C 0.30486 0.79455 0.21954 0.0
N233 N 0.22104 0.74456 0.19731 0.0
C234 C 0.17548 0.70189 0.27721 0.0
C235 C 0.2013 0.69946 0.2704 0.0
C236 C 0.22386 0.72112 0.23083 0.0
C237 C 0.1749 0.72813 0.25109 0.0
C238 C 0.19812 0.74935 0.21288 0.0
N239 N 0.26776 0.78765 0.03459 0.0
C240 C 0.29966 0.79132 0.94454 0.0
C241 C 0.29774 0.81614 0.91261 0.0
C242 C 0.28069 0.8265 0.94338 0.0
C243 C 0.26596 0.81201 0.00337 0.0
C244 C 0.28491 0.77777 0.00536 0.0
H245 H 0.25335 0.82109 0.0235 0.0
H246 H 0.28775 0.75935 0.02757 0.0
H247 H 0.24253 0.71763 0.22498 0.0
H248 H 0.19601 0.76844 0.19279 0.0
C249 C 0.21131 0.80886 0.09843 0.0
C250 C 0.30456 0.82249 0.23677 0.0
C251 C 0.18293 0.70846 0.00411 0.0
C252 C 0.27856 0.72433 0.134 0.0
H253 H 0.29224 0.87094 0.2607 0.0
H254 H 0.24128 0.86402 0.18475 0.0
H255 H 0.15475 0.78302 0.00698 0.0
H256 H 0.13854 0.72754 0.95923 0.0
H257 H 0.19467 0.65895 0.98374 0.0
H258 H 0.24667 0.66721 0.05542 0.0
H259 H 0.33508 0.75023 0.22665 0.0
H260 H 0.34869 0.80376 0.28359 0.0
H261 H 0.20358 0.68034 0.29301 0.0
H262 H 0.15577 0.73154 0.25594 0.0
H263 H 0.31248 0.78226 0.92291 0.0
H264 H 0.27915 0.84622 0.92244 0.0
C265 C 0.49191 0.21075 0.3127 0.0
C266 C 0.51903 0.21617 0.35356 0.0
C267 C 0.54183 0.24222 0.32773 0.0
C268 C 0.52736 0.25123 0.27308 0.0
N269 N 0.49658 0.23306 0.26391 0.0
Co270 Co 0.46681 0.23592 0.18669 0.0
N271 N 0.50066 0.27107 0.14081 0.0
C272 C 0.53105 0.28425 0.1627 0.0
C273 C 0.5486 0.30904 0.12286 0.0
C274 C 0.52817 0.31242 0.07371 0.0
C275 C 0.49924 0.28947 0.08679 0.0
N276 N 0.43701 0.23834 0.10852 0.0
C277 C 0.44169 0.25976 0.05722 0.0
C278 C 0.41438 0.25402 0.0166 0.0
C279 C 0.39169 0.2283 0.04365 0.0
C280 C 0.40626 0.21989 0.09925 0.0
N281 N 0.43292 0.20108 0.23348 0.0
C282 C 0.40247 0.18865 0.21316 0.0
C283 C 0.38492 0.16337 0.25155 0.0
C284 C 0.40532 0.15885 0.29792 0.0
C285 C 0.43435 0.18191 0.2855 0.0
N286 N 0.46406 0.26627 0.2466 0.0
C287 C 0.46005 0.31178 0.32159 0.0
C288 C 0.4339 0.28644 0.28762 0.0
C289 C 0.43638 0.26423 0.25101 0.0
C290 C 0.48829 0.31373 0.31808 0.0
C291 C 0.48974 0.29084 0.28105 0.0
N292 N 0.46949 0.20553 0.12701 0.0
C293 C 0.44478 0.15524 0.06849 0.0
C294 C 0.47292 0.15833 0.05748 0.0
C295 C 0.49933 0.18611 0.08059 0.0
C296 C 0.49713 0.20904 0.11534 0.0
C297 C 0.4436 0.17903 0.10137 0.0
H298 H 0.51814 0.22926 0.13309 0.0
H299 H 0.42137 0.17508 0.10681 0.0
H300 H 0.41553 0.24583 0.22592 0.0
H301 H 0.51192 0.29363 0.28064 0.0
C302 C 0.54218 0.27434 0.22439 0.0
C303 C 0.4626 0.18311 0.3189 0.0
C304 C 0.47112 0.28712 0.04924 0.0
C305 C 0.39143 0.19771 0.14981 0.0
H306 H 0.52211 0.20204 0.39565 0.0
H307 H 0.56618 0.25242 0.34425 0.0
H308 H 0.57322 0.32365 0.1305 0.0
H309 H 0.53384 0.33035 0.03423 0.0
H310 H 0.41088 0.26768 0.97399 0.0
H311 H 0.3673 0.21807 0.02753 0.0
H312 H 0.36033 0.1486 0.24307 0.0
H313 H 0.39928 0.13964 0.33364 0.0
H314 H 0.41146 0.28387 0.28824 0.0
H315 H 0.5092 0.33262 0.34466 0.0
H316 H 0.42345 0.13431 0.05321 0.0
H317 H 0.52176 0.19039 0.072 0.0
C318 C 0.97921 0.42068 0.88106 0.0
C319 C 0.07227 0.47926 0.81495 0.0
C320 C 0.04132 0.56702 0.77647 0.0
Mg321 Mg 0.00835 0.43874 0.73634 0.0
O322 O 1.00099 0.47141 0.74723 0.0
Mg323 Mg 0.01784 0.49659 0.83886 0.0
Mg324 Mg 0.0119 0.50469 0.67595 0.0
O325 O 0.02083 0.53756 0.60386 0.0
Mg326 Mg 0.00568 0.56436 0.61776 0.0
Mg327 Mg 0.00238 0.51092 0.51372 0.0
C328 C 0.9807 0.44203 0.57519 0.0
C329 C 0.06339 0.50763 0.57655 0.0
O330 O 0.99178 0.44949 0.89809 0.0
O331 O 0.98248 0.41151 0.82137 0.0
O332 O 0.06067 0.49287 0.84431 0.0
O333 O 0.0567 0.45792 0.76697 0.0
O334 O 0.98844 0.42718 0.62321 0.0
O335 O 0.98497 0.4689 0.58775 0.0
C336 C 0.96008 0.50313 0.76942 0.0
O337 O 0.96876 0.50594 0.7063 0.0
O338 O 0.9752 0.49969 0.82567 0.0
O339 O 0.02362 0.55722 0.45492 0.0
O340 O 0.02744 0.59312 0.53083 0.0
O341 O 0.9575 0.51071 0.50749 0.0
C342 C 0.03221 0.58528 0.47135 0.0
O343 O 0.95636 0.54226 0.58523 0.0
O344 O 0.02899 0.57825 0.72875 0.0
C345 C 0.94309 0.52168 0.53483 0.0
O346 O 0.03924 0.54068 0.76703 0.0
O347 O 0.05561 0.50385 0.6413 0.0
O348 O 0.0469 0.5109 0.523 0.0
C349 C 0.45961 0.02648 0.80338 0.0
C350 C 0.42666 0.93732 0.69851 0.0
C351 C 0.54099 0.97057 0.67544 0.0
Mg352 Mg 0.44553 0.00181 0.644 0.0
O353 O 0.48697 0.01352 0.66448 0.0
Mg354 Mg 0.49919 0.99437 0.74866 0.0
Mg355 Mg 0.5062 0.00591 0.58787 0.0
O356 O 0.52605 0.99909 0.51214 0.0
Mg357 Mg 0.56783 0.01071 0.53496 0.0
Mg358 Mg 0.51456 0.01996 0.42998 0.0
C359 C 0.47117 0.0404 0.50264 0.0
C360 C 0.4518 0.95887 0.46575 0.0
O361 O 0.47955 0.01758 0.81812 0.0
O362 O 0.44422 0.02225 0.74068 0.0
O363 O 0.45305 0.94983 0.73566 0.0
O364 O 0.41869 0.95249 0.65268 0.0
O365 O 0.44993 0.02756 0.54421 0.0
O366 O 0.49504 0.03726 0.51184 0.0
C367 C 0.56012 0.0543 0.70495 0.0
O368 O 0.55133 0.04676 0.63785 0.0
O369 O 0.54431 0.03839 0.75477 0.0
O370 O 0.53327 0.99716 0.36213 0.0
O371 O 0.56778 0.99007 0.43735 0.0
O372 O 0.56216 0.06349 0.44177 0.0
C373 C 0.55216 0.98702 0.37543 0.0
O374 O 0.5972 0.06029 0.52092 0.0
O375 O 0.56244 0.98289 0.63406 0.0
C376 C 0.58948 0.07544 0.47419 0.0
O377 O 0.51819 0.97556 0.66649 0.0
O378 O 0.46039 0.96422 0.53415 0.0
O379 O 0.46844 0.9768 0.41945 0.0
C380 C 0.54126 0.59726 0.42905 0.0
C381 C 0.58839 0.54387 0.48459 0.0
C382 C 0.47761 0.45261 0.54771 0.0
Mg383 Mg 0.56965 0.58098 0.57262 0.0
O384 O 0.52922 0.54813 0.56671 0.0
Mg385 Mg 0.51304 0.52179 0.47663 0.0
Mg386 Mg 0.51565 0.51647 0.6437 0.0
O387 O 0.50071 0.4849 0.72006 0.0
Mg388 Mg 0.45866 0.45477 0.70822 0.0
Mg389 Mg 0.51548 0.51199 0.80895 0.0
C390 C 0.55482 0.57966 0.73818 0.0
C391 C 0.57575 0.52169 0.74307 0.0
O392 O 0.52429 0.56829 0.41221 0.0
O393 O 0.55951 0.60674 0.48837 0.0
O394 O 0.55988 0.52831 0.46209 0.0
O395 O 0.59855 0.5653 0.53267 0.0
O396 O 0.57188 0.59224 0.68717 0.0
O397 O 0.53008 0.55337 0.72965 0.0
C398 C 0.45391 0.50883 0.55052 0.0
O399 O 0.46737 0.50995 0.61416 0.0
O400 O 0.46719 0.51375 0.49385 0.0
O401 O 0.50075 0.46574 0.87223 0.0
O402 O 0.46526 0.42815 0.79414 0.0
O403 O 0.46882 0.50751 0.8213 0.0
C404 C 0.48265 0.43705 0.85465 0.0
O405 O 0.42983 0.47109 0.75036 0.0
O406 O 0.45892 0.44095 0.59605 0.0
C407 C 0.4402 0.4923 0.79942 0.0
O408 O 0.50138 0.47974 0.55577 0.0
O409 O 0.56424 0.52192 0.67747 0.0
O410 O 0.56089 0.5174 0.79671 0.0
H411 H 0.16556 0.48237 0.48492 0.0
H412 H 0.17498 0.55477 0.33815 0.0
H413 H 0.13776 0.56095 0.39496 0.0
H414 H 0.10018 0.54409 0.48035 0.0
H415 H 0.08964 0.47249 0.62993 0.0
H416 H 0.12994 0.46817 0.57956 0.0
C417 C 0.15951 0.49955 0.46563 0.0
C418 C 0.17324 0.51806 0.40682 0.0
C419 C 0.13797 0.50326 0.49943 0.0
C420 C 0.16521 0.5404 0.38333 0.0
C421 C 0.14376 0.5439 0.41575 0.0
C422 C 0.10697 0.52779 0.5029 0.0
C423 C 0.09176 0.50858 0.55892 0.0
C424 C 0.12978 0.5253 0.47316 0.0
C425 C 0.10108 0.48778 0.58751 0.0
C426 C 0.12391 0.48509 0.55795 0.0
H427 H 0.67224 0.17525 0.26634 0.0
H428 H 0.74428 0.18636 0.43315 0.0
H429 H 0.70613 0.14961 0.50843 0.0
H430 H 0.65177 0.11047 0.52084 0.0
H431 H 0.58082 0.10606 0.35785 0.0
H432 H 0.61897 0.14497 0.28932 0.0
C433 C 0.67969 0.17059 0.32025 0.0
C434 C 0.71115 0.18359 0.34392 0.0
C435 C 0.65769 0.15047 0.36417 0.0
C436 C 0.7202 0.1766 0.4135 0.0
C437 C 0.69837 0.15555 0.4565 0.0
C438 C 0.64463 0.11852 0.47124 0.0
C439 C 0.61322 0.10453 0.44433 0.0
C440 C 0.66694 0.14174 0.43169 0.0
C441 C 0.60463 0.11579 0.38015 0.0
C442 C 0.62651 0.13809 0.34024 0.0
H443 H 0.53616 0.71316 0.29436 0.0
H444 H 0.52635 0.66774 0.09402 0.0
H445 H 0.52615 0.6243 0.16104 0.0
H446 H 0.53085 0.59994 0.27891 0.0
H447 H 0.54464 0.64882 0.47761 0.0
H448 H 0.54169 0.68993 0.4097 0.0
C449 C 0.53444 0.69395 0.26541 0.0
C450 C 0.53203 0.69406 0.18935 0.0
C451 C 0.53513 0.66951 0.3044 0.0
C452 C 0.52867 0.66842 0.15263 0.0
C453 C 0.52858 0.64358 0.19104 0.0
C454 C 0.53305 0.61952 0.30714 0.0
C455 C 0.53807 0.62114 0.38363 0.0
C456 C 0.53209 0.64392 0.26725 0.0
C457 C 0.54106 0.64692 0.41903 0.0
C458 C 0.5393 0.67054 0.38018 0.0
H459 H 0.83552 0.49126 0.29341 0.0
H460 H 0.82751 0.55868 0.40977 0.0
H461 H 0.86677 0.56138 0.50626 0.0
H462 H 0.90756 0.54826 0.54887 0.0
H463 H 0.90876 0.47546 0.43588 0.0
H464 H 0.86652 0.46985 0.34917 0.0
C465 C 0.8413 0.5056 0.34127 0.0
C466 C 0.8286 0.52469 0.34455 0.0
C467 C 0.86266 0.50602 0.39728 0.0
C468 C 0.83708 0.54379 0.40614 0.0
C469 C 0.85949 0.54533 0.46115 0.0
C470 C 0.898 0.53061 0.50654 0.0
C471 C 0.91215 0.51308 0.4978 0.0
C472 C 0.87308 0.52707 0.45632 0.0
C473 C 0.89902 0.4899 0.44323 0.0
C474 C 0.87483 0.48667 0.39309 0.0
H475 H 0.3262 0.83485 0.38098 0.0
H476 H 0.34612 0.87031 0.16807 0.0
H477 H 0.39292 0.91562 0.22052 0.0
H478 H 0.42781 0.9448 0.32533 0.0
H479 H 0.40959 0.91069 0.54048 0.0
H480 H 0.36226 0.86525 0.48899 0.0
C481 C 0.34096 0.8526 0.34657 0.0
C482 C 0.33303 0.84947 0.27089 0.0
C483 C 0.36788 0.87872 0.37739 0.0
C484 C 0.35201 0.87242 0.22634 0.0
C485 C 0.37866 0.89825 0.25634 0.0
C486 C 0.41363 0.92756 0.36154 0.0
C487 C 0.42242 0.93136 0.43702 0.0
C488 C 0.38678 0.90161 0.33163 0.0
C489 C 0.40344 0.90857 0.48235 0.0
C490 C 0.3764 0.8825 0.45282 0.0
H491 H 0.49668 0.37457 0.32384 0.0
H492 H 0.41765 0.30182 0.41086 0.0
H493 H 0.41369 0.33943 0.48025 0.0
H494 H 0.4346 0.39224 0.52339 0.0
H495 H 0.51483 0.4654 0.44126 0.0
H496 H 0.51599 0.4285 0.3622 0.0
C497 C 0.47864 0.36696 0.35812 0.0
C498 C 0.45757 0.3353 0.36215 0.0
C499 C 0.47657 0.38882 0.39861 0.0
C500 C 0.43403 0.32596 0.40601 0.0
C501 C 0.43179 0.34748 0.44603 0.0
C502 C 0.45212 0.40036 0.48745 0.0
C503 C 0.47474 0.4317 0.48906 0.0
C504 C 0.45313 0.3789 0.44348 0.0
C505 C 0.49711 0.44151 0.44157 0.0
C506 C 0.49795 0.42033 0.39661 0.0
H507 H 0.51565 0.86021 0.89037 0.0
H508 H 0.58257 0.85676 0.77683 0.0
H509 H 0.58811 0.90129 0.70615 0.0
H510 H 0.57388 0.94099 0.67628 0.0
H511 H 0.50536 0.9436 0.78578 0.0
H512 H 0.50067 0.89994 0.85863 0.0
C513 C 0.53118 0.86907 0.84955 0.0
C514 C 0.54856 0.85506 0.83836 0.0
C515 C 0.53421 0.89477 0.80905 0.0
C516 C 0.56882 0.86697 0.7859 0.0
C517 C 0.57209 0.89254 0.74587 0.0
C518 C 0.55816 0.93239 0.71671 0.0
C519 C 0.54025 0.94608 0.72575 0.0
C520 C 0.55502 0.90672 0.75716 0.0
C521 C 0.51964 0.93391 0.77772 0.0
C522 C 0.51683 0.90875 0.81925 0.0
H523 H 0.69585 0.51498 0.83217 0.0
H524 H 0.69744 0.56469 0.01712 0.0
H525 H 0.65485 0.56991 0.95533 0.0
H526 H 0.61402 0.55537 0.85606 0.0
H527 H 0.60817 0.50191 0.67371 0.0
H528 H 0.65607 0.50353 0.72602 0.0
C529 C 0.68664 0.5268 0.85861 0.0
C530 C 0.69891 0.5387 0.92973 0.0
C531 C 0.66165 0.52907 0.82319 0.0
C532 C 0.68781 0.55495 0.96292 0.0
C533 C 0.66358 0.55795 0.92763 0.0
C534 C 0.62344 0.54438 0.82717 0.0
C535 C 0.6075 0.52812 0.76186 0.0
C536 C 0.64987 0.54438 0.85881 0.0
C537 C 0.62014 0.51454 0.7241 0.0
C538 C 0.64726 0.5152 0.75448 0.0
H539 H 0.1421 0.64872 0.03315 0.0
H540 H 0.16714 0.7147 0.86272 0.0
H541 H 0.12429 0.67721 0.77994 0.0
H542 H 0.08033 0.62617 0.75559 0.0
H543 H 0.05736 0.55706 0.9186 0.0
H544 H 0.09897 0.59513 0.00514 0.0
C545 C 0.13808 0.65466 0.97774 0.0
C546 C 0.15732 0.68456 0.95412 0.0
C547 C 0.11387 0.63255 0.92961 0.0
C548 C 0.1523 0.69202 0.88214 0.0
C549 C 0.12788 0.6706 0.83491 0.0
C550 C 0.0841 0.61944 0.81041 0.0
C551 C 0.06532 0.58909 0.83144 0.0
C552 C 0.1085 0.64093 0.85816 0.0
C553 C 0.07125 0.58044 0.90168 0.0
C554 C 0.09505 0.60217 0.95087 0.0
H555 H 0.43049 0.1158 0.95559 0.0
H556 H 0.51885 0.14315 0.07727 0.0
H557 H 0.52189 0.10341 0.01395 0.0
H558 H 0.50028 0.06209 0.91889 0.0
H559 H 0.41024 0.0335 0.80587 0.0
H560 H 0.40658 0.07142 0.87404 0.0
C561 C 0.45018 0.11282 0.97032 0.0
C562 C 0.47445 0.13302 0.02136 0.0
C563 C 0.45141 0.08927 0.93554 0.0
C564 C 0.50001 0.12875 0.03711 0.0
C565 C 0.50166 0.10566 0.00145 0.0
C566 C 0.47959 0.06368 0.91051 0.0
C567 C 0.45572 0.04507 0.85663 0.0
C568 C 0.4776 0.08592 0.94988 0.0
C569 C 0.42914 0.04765 0.84631 0.0
C570 C 0.42703 0.06948 0.8851 0.0
H571 H 0.38283 0.53209 0.02588 0.0
H572 H 0.30695 0.44022 0.97776 0.0
H573 H 0.33378 0.43306 0.88773 0.0
H574 H 0.3801 0.45211 0.82411 0.0
H575 H 0.45435 0.54479 0.8704 0.0
H576 H 0.42634 0.55245 0.95624 0.0
C577 C 0.3716 0.51058 0.99522 0.0
C578 C 0.34259 0.48673 0.01064 0.0
C579 C 0.38692 0.50671 0.94165 0.0
C580 C 0.3294 0.45897 0.96981 0.0
C581 C 0.34467 0.45488 0.9171 0.0
C582 C 0.38984 0.47422 0.85163 0.0
C583 C 0.41951 0.49782 0.83998 0.0
C584 C 0.3736 0.4785 0.90263 0.0
C585 C 0.43171 0.52611 0.87764 0.0
C586 C 0.41572 0.53052 0.92742 0.0
H587 H 0.8826 0.33949 0.09566 0.0
H588 H 0.85054 0.27409 0.91841 0.0
H589 H 0.89323 0.3101 0.85416 0.0
H590 H 0.93819 0.36069 0.84585 0.0
H591 H 0.96922 0.42808 0.01883 0.0
H592 H 0.92877 0.39082 0.08751 0.0
C593 C 0.88528 0.33319 0.04324 0.0
C594 C 0.86397 0.30397 0.01239 0.0
C595 C 0.90967 0.35434 0.00594 0.0
C596 C 0.86712 0.29618 0.94382 0.0
C597 C 0.89143 0.31681 0.90701 0.0
C598 C 0.93651 0.36724 0.89903 0.0
C599 C 0.95702 0.39726 0.92706 0.0
C600 C 0.91275 0.34599 0.93734 0.0
C601 C 0.95395 0.4052 0.9958 0.0
C602 C 0.93069 0.3839 0.03504 0.0
H603 H 0.86351 0.53711 0.84874 0.0
H604 H 0.84673 0.46256 0.99459 0.0
H605 H 0.88075 0.45142 0.93741 0.0
H606 H 0.91929 0.46614 0.85598 0.0
H607 H 0.93895 0.54173 0.71263 0.0
H608 H 0.8991 0.54858 0.75665 0.0
C609 C 0.86697 0.51814 0.86703 0.0
C610 C 0.85304 0.50104 0.9268 0.0
C611 C 0.88698 0.51201 0.83417 0.0
C612 C 0.85769 0.47649 0.94988 0.0
C613 C 0.87702 0.46999 0.91697 0.0
C614 C 0.91441 0.48375 0.83328 0.0
C615 C 0.93196 0.50339 0.78112 0.0
C616 C 0.8924 0.48811 0.8606 0.0
C617 C 0.92541 0.52601 0.75189 0.0
C618 C 0.90292 0.53018 0.77796 0.0
H619 H 0.35401 0.8269 0.88877 0.0
H620 H 0.2805 0.84271 0.79773 0.0
H621 H 0.31289 0.87826 0.71199 0.0
H622 H 0.36455 0.91092 0.67724 0.0
H623 H 0.43755 0.89452 0.76908 0.0
H624 H 0.4023 0.85196 0.83738 0.0
C625 C 0.34458 0.83726 0.84884 0.0
C626 C 0.31507 0.83271 0.85134 0.0
C627 C 0.36328 0.85764 0.7996 0.0
C628 C 0.30351 0.84659 0.79892 0.0
C629 C 0.32194 0.86678 0.74939 0.0
C630 C 0.37251 0.8974 0.71034 0.0
C631 C 0.40375 0.90636 0.71948 0.0
C632 C 0.35229 0.87346 0.75133 0.0
C633 C 0.41368 0.88845 0.76217 0.0
C634 C 0.39359 0.86421 0.80167 0.0
H635 H 0.48762 0.3449 0.093 0.0
H636 H 0.45872 0.28643 0.90303 0.0
H637 H 0.45937 0.32768 0.82674 0.0
H638 H 0.46747 0.37971 0.81447 0.0
H639 H 0.49906 0.44008 0.0022 0.0
H640 H 0.4983 0.39881 0.07943 0.0
C641 C 0.48155 0.34142 0.03483 0.0
C642 C 0.47256 0.31268 0.00332 0.0
C643 C 0.48245 0.36544 0.99134 0.0
C644 C 0.46518 0.30829 0.92808 0.0
C645 C 0.46561 0.33183 0.88468 0.0
C646 C 0.47405 0.38389 0.87238 0.0
C647 C 0.48292 0.41282 0.90272 0.0
C648 C 0.47399 0.36037 0.9158 0.0
C649 C 0.49203 0.41799 0.9776 0.0
C650 C 0.49156 0.3944 0.02168 0.0
H651 H 0.19639 0.4844 0.9322 0.0
H652 H 0.18811 0.53247 0.10641 0.0
H653 H 0.14466 0.53326 0.03529 0.0
H654 H 0.10596 0.51488 0.93192 0.0
H655 H 0.10887 0.46046 0.76291 0.0
H656 H 0.15777 0.46752 0.82357 0.0
C657 C 0.18493 0.49501 0.95396 0.0
C658 C 0.19469 0.50786 0.02428 0.0
C659 C 0.1591 0.494 0.91421 0.0
C660 C 0.18049 0.52223 0.05234 0.0
C661 C 0.15574 0.5226 0.01193 0.0
C662 C 0.11733 0.50478 0.90748 0.0
C663 C 0.10362 0.48679 0.84359 0.0
C664 C 0.14435 0.50773 0.94394 0.0
C665 C 0.11886 0.47414 0.81261 0.0
C666 C 0.14672 0.4781 0.8473 0.0
H667 H 0.69296 0.14605 0.83874 0.0
H668 H 0.64266 0.17158 0.96344 0.0
H669 H 0.5956 0.13952 0.88456 0.0
H670 H 0.56779 0.09834 0.79343 0.0
H671 H 0.61669 0.07131 0.66879 0.0
H672 H 0.66559 0.1106 0.73267 0.0
C673 C 0.67181 0.14511 0.84734 0.0
C674 C 0.67095 0.16034 0.90777 0.0
C675 C 0.64471 0.12637 0.80206 0.0
C676 C 0.64355 0.15924 0.91835 0.0
C677 C 0.61671 0.14107 0.87321 0.0
C678 C 0.58928 0.1017 0.77916 0.0
C679 C 0.58904 0.08212 0.7276 0.0
C680 C 0.61685 0.1236 0.81698 0.0
C681 C 0.61667 0.08647 0.7084 0.0
C682 C 0.64449 0.10863 0.74542 0.0
H683 H 0.5407 0.65811 0.95947 0.0
H684 H 0.61998 0.72878 0.86958 0.0
H685 H 0.62683 0.68952 0.81503 0.0
H686 H 0.60355 0.63638 0.77183 0.0
H687 H 0.52062 0.56623 0.85072 0.0
H688 H 0.52245 0.60383 0.9326 0.0
C689 C 0.55975 0.66481 0.92885 0.0
C690 C 0.57929 0.69607 0.91642 0.0
C691 C 0.56272 0.64221 0.8954 0.0
C692 C 0.60449 0.70476 0.87893 0.0
C693 C 0.60827 0.68234 0.84747 0.0
C694 C 0.58622 0.62907 0.80809 0.0
C695 C 0.56133 0.5988 0.80317 0.0
C696 C 0.5865 0.65111 0.85206 0.0
C697 C 0.53967 0.58952 0.85221 0.0
C698 C 0.54057 0.61109 0.8987 0.0
H699 H 0.4853 0.14671 0.28624 0.0
H700 H 0.43889 0.16137 0.44495 0.0
H701 H 0.43536 0.11685 0.51147 0.0
H702 H 0.44591 0.07465 0.52535 0.0
H703 H 0.49704 0.06192 0.37584 0.0
H704 H 0.49834 0.10487 0.30422 0.0
C705 C 0.47445 0.13998 0.33544 0.0
C706 C 0.46162 0.15662 0.36004 0.0
C707 C 0.47328 0.1148 0.37446 0.0
C708 C 0.44821 0.14835 0.42444 0.0
C709 C 0.44628 0.12301 0.4624 0.0
C710 C 0.45698 0.08086 0.47645 0.0
C711 C 0.47078 0.06466 0.45499 0.0
C712 C 0.45859 0.10605 0.43771 0.0
C713 C 0.48591 0.07378 0.39289 0.0
C714 C 0.48674 0.09838 0.35225 0.0
H715 H 0.32781 0.4665 0.38413 0.0
H716 H 0.32699 0.52993 0.53103 0.0
H717 H 0.37316 0.53465 0.60385 0.0
H718 H 0.41892 0.52787 0.60869 0.0
H719 H 0.41535 0.46107 0.46373 0.0
H720 H 0.36445 0.449 0.40938 0.0
C721 C 0.33697 0.48044 0.43367 0.0
C722 C 0.32503 0.4988 0.45099 0.0
C723 C 0.36262 0.48234 0.47543 0.0
C724 C 0.33673 0.51642 0.51573 0.0
C725 C 0.36298 0.51906 0.55722 0.0
C726 C 0.40639 0.50997 0.56706 0.0
C727 C 0.42085 0.49607 0.53806 0.0
C728 C 0.37705 0.5033 0.53521 0.0
C729 C 0.4046 0.47254 0.48507 0.0
C730 C 0.37563 0.46569 0.45387 0.0
H731 H 0.86625 0.35987 0.36559 0.0
H732 H 0.91702 0.31314 0.34149 0.0
H733 H 0.96052 0.35236 0.41858 0.0
H734 H 0.98255 0.39804 0.49993 0.0
H735 H 0.93343 0.44729 0.50741 0.0
H736 H 0.89163 0.40999 0.42316 0.0
C737 C 0.88696 0.35841 0.37375 0.0
C738 C 0.88764 0.33286 0.34762 0.0
C739 C 0.91255 0.38194 0.41398 0.0
C740 C 0.91495 0.33166 0.36261 0.0
C741 C 0.9402 0.35443 0.40582 0.0
C742 C 0.96303 0.40096 0.48131 0.0
C743 C 0.9608 0.42506 0.50998 0.0
C744 C 0.939 0.37937 0.43284 0.0
C745 C 0.93569 0.42901 0.48542 0.0
C746 C 0.91158 0.40743 0.43818 0.0
H747 H 0.55806 0.87988 0.23613 0.0
H748 H 0.46199 0.84802 0.17941 0.0
H749 H 0.46862 0.89561 0.2305 0.0
H750 H 0.5019 0.94553 0.29275 0.0
H751 H 0.59809 0.97706 0.35019 0.0
H752 H 0.59172 0.93074 0.29387 0.0
C753 C 0.53857 0.88324 0.23677 0.0
C754 C 0.50944 0.86049 0.20706 0.0
C755 C 0.54285 0.91085 0.26362 0.0
C756 C 0.48435 0.86512 0.20467 0.0
C757 C 0.48828 0.8924 0.23257 0.0
C758 C 0.52162 0.94268 0.29091 0.0
C759 C 0.55048 0.96463 0.3247 0.0
C760 C 0.51749 0.91548 0.26164 0.0
C761 C 0.57576 0.96045 0.32367 0.0
C762 C 0.57203 0.93385 0.29258 0.0
H763 H 0.65185 0.50681 0.27209 0.0
H764 H 0.73167 0.59032 0.36073 0.0
H765 H 0.70112 0.59721 0.44114 0.0
H766 H 0.65091 0.58007 0.48452 0.0
H767 H 0.57294 0.49437 0.39971 0.0
H768 H 0.60407 0.48731 0.32268 0.0
C769 C 0.66303 0.52623 0.30991 0.0
C770 C 0.69428 0.54799 0.30932 0.0
C771 C 0.64561 0.52961 0.35774 0.0
C772 C 0.70762 0.5734 0.35808 0.0
C773 C 0.69019 0.57723 0.40498 0.0
C774 C 0.64089 0.55961 0.45014 0.0
C775 C 0.60943 0.53802 0.44775 0.0
C776 C 0.65905 0.55554 0.4051 0.0
C777 C 0.59693 0.51164 0.40252 0.0
C778 C 0.61472 0.50754 0.35801 0.0
H779 H 0.13714 0.70618 0.35991 0.0
H780 H 0.1525 0.64016 0.25832 0.0
H781 H 0.10718 0.59811 0.30251 0.0
H782 H 0.06446 0.58016 0.3733 0.0
H783 H 0.04857 0.64606 0.4735 0.0
H784 H 0.09199 0.68818 0.42256 0.0
C785 C 0.1304 0.68264 0.34647 0.0
C786 C 0.14847 0.67643 0.30649 0.0
C787 C 0.10389 0.65855 0.37042 0.0
C788 C 0.13955 0.64568 0.29066 0.0
C789 C 0.11335 0.62158 0.31494 0.0
C790 C 0.06998 0.60368 0.38264 0.0
C791 C 0.05337 0.60995 0.42735 0.0
C792 C 0.09545 0.62777 0.35509 0.0
C793 C 0.06105 0.64061 0.43937 0.0
C794 C 0.08603 0.66472 0.41083 0.0
loop_
_geom_bond_atom_site_label_1
_geom_bond_atom_site_label_2
_geom_bond_distance
_geom_bond_site_symmetry_2
_ccdc_geom_bond_type
C0 C1 1.443 . S
C0 N4 1.376 . S
C0 C38 1.389 . S
C1 C0 1.443 . S
C1 C2 1.340 . S
C1 H41 0.951 . S
C2 C1 1.340 . S
C2 C3 1.439 . S
C2 H42 0.950 . S
C3 C2 1.439 . S
C3 N4 1.374 . S
C3 C37 1.395 . S
N4 C0 1.376 . S
N4 C3 1.374 . S
N4 Co5 2.008 . S
Co5 N4 2.008 . S
Co5 N6 1.995 . S
Co5 N11 2.008 . S
Co5 N16 1.995 . S
Co5 N21 2.282 . S
Co5 N27 2.282 . S
N6 Co5 1.995 . S
N6 C7 1.376 . S
N6 C10 1.383 . S
C7 N6 1.376 . S
C7 C8 1.446 . S
C7 C37 1.391 . S
C8 C7 1.446 . S
C8 C9 1.339 . S
C8 H43 0.949 . S
C9 C8 1.339 . S
C9 C10 1.439 . S
C9 H44 0.950 . S
C10 N6 1.383 . S
C10 C9 1.439 . S
C10 C39 1.392 . S
N11 Co5 2.008 . S
N11 C12 1.376 . S
N11 C15 1.374 . S
C12 N11 1.376 . S
C12 C13 1.443 . S
C12 C39 1.389 . S
C13 C12 1.443 . S
C13 C14 1.340 . S
C13 H45 0.951 . S
C14 C13 1.340 . S
C14 C15 1.439 . S
C14 H46 0.950 . S
C15 N11 1.374 . S
C15 C14 1.439 . S
C15 C40 1.395 . S
N16 Co5 1.995 . S
N16 C17 1.376 . S
N16 C20 1.383 . S
C17 N16 1.376 . S
C17 C18 1.446 . S
C17 C40 1.391 . S
C18 C17 1.446 . S
C18 C19 1.339 . S
C18 H47 0.949 . S
C19 C18 1.339 . S
C19 C20 1.439 . S
C19 H48 0.950 . S
C20 N16 1.383 . S
C20 C19 1.439 . S
C20 C38 1.392 . S
N21 Co5 2.282 . S
N21 C24 1.332 . S
N21 C26 1.332 . S
C22 C23 1.386 . S
C22 C25 1.388 . S
C23 C22 1.386 . S
C23 C24 1.382 . S
C23 H49 0.950 . S
C24 N21 1.332 . S
C24 C23 1.382 . S
C24 H35 0.952 . S
C25 C22 1.388 . S
C25 C26 1.382 . S
C25 H50 0.950 . S
C26 N21 1.332 . S
C26 C25 1.382 . S
C26 H36 0.948 . S
N27 Co5 2.282 . S
N27 C31 1.332 . S
N27 C32 1.332 . S
C28 C29 1.388 . S
C28 C32 1.382 . S
C28 H51 0.950 . S
C29 C28 1.388 . S
C29 C30 1.386 . S
C30 C29 1.386 . S
C30 C31 1.382 . S
C30 H52 0.950 . S
C31 N27 1.332 . S
C31 C30 1.382 . S
C31 H33 0.952 . S
C32 N27 1.332 . S
C32 C28 1.382 . S
C32 H34 0.948 . S
H33 C31 0.952 . S
H34 C32 0.948 . S
H35 C24 0.952 . S
H36 C26 0.948 . S
C37 C3 1.395 . S
C37 C7 1.391 . S
C38 C0 1.389 . S
C38 C20 1.392 . S
C39 C10 1.392 . S
C39 C12 1.389 . S
C40 C15 1.395 . S
C40 C17 1.391 . S
H41 C1 0.951 . S
H42 C2 0.950 . S
H43 C8 0.949 . S
H44 C9 0.950 . S
H45 C13 0.951 . S
H46 C14 0.950 . S
H47 C18 0.949 . S
H48 C19 0.950 . S
H49 C23 0.950 . S
H50 C25 0.950 . S
H51 C28 0.950 . S
H52 C30 0.950 . S
C53 C54 1.443 . S
C53 N57 1.376 . S
C53 C91 1.389 . S
C54 C53 1.443 . S
C54 C55 1.340 . S
C54 H94 0.951 . S
C55 C54 1.340 . S
C55 C56 1.439 . S
C55 H95 0.950 . S
C56 C55 1.439 . S
C56 N57 1.374 . S
C56 C90 1.395 . S
N57 C53 1.376 . S
N57 C56 1.374 . S
N57 Co58 2.008 . S
Co58 N57 2.008 . S
Co58 N59 1.995 . S
Co58 N64 2.008 . S
Co58 N69 1.995 . S
Co58 N74 2.282 . S
Co58 N80 2.282 . S
N59 Co58 1.995 . S
N59 C60 1.376 . S
N59 C63 1.383 . S
C60 N59 1.376 . S
C60 C61 1.446 . S
C60 C90 1.391 . S
C61 C60 1.446 . S
C61 C62 1.339 . S
C61 H96 0.949 . S
C62 C61 1.339 . S
C62 C63 1.439 . S
C62 H97 0.950 . S
C63 N59 1.383 . S
C63 C62 1.439 . S
C63 C92 1.392 . S
N64 Co58 2.008 . S
N64 C65 1.376 . S
N64 C68 1.374 . S
C65 N64 1.376 . S
C65 C66 1.443 . S
C65 C92 1.389 . S
C66 C65 1.443 . S
C66 C67 1.340 . S
C66 H98 0.951 . S
C67 C66 1.340 . S
C67 C68 1.439 . S
C67 H99 0.950 . S
C68 N64 1.374 . S
C68 C67 1.439 . S
C68 C93 1.395 . S
N69 Co58 1.995 . S
N69 C70 1.376 . S
N69 C73 1.383 . S
C70 N69 1.376 . S
C70 C71 1.446 . S
C70 C93 1.391 . S
C71 C70 1.446 . S
C71 C72 1.339 . S
C71 H100 0.949 . S
C72 C71 1.339 . S
C72 C73 1.439 . S
C72 H101 0.950 . S
C73 N69 1.383 . S
C73 C72 1.439 . S
C73 C91 1.392 . S
N74 Co58 2.282 . S
N74 C77 1.332 . S
N74 C79 1.332 . S
C75 C76 1.386 1_556 S
C75 C78 1.388 1_556 S
C76 C75 1.386 1_554 S
C76 C77 1.381 . S
C76 H102 0.951 1_554 S
C77 N74 1.332 . S
C77 C76 1.381 . S
C77 H88 0.952 . S
C78 C75 1.388 1_554 S
C78 C79 1.382 . S
C78 H103 0.950 . S
C79 N74 1.332 . S
C79 C78 1.382 . S
C79 H89 0.948 . S
N80 Co58 2.282 . S
N80 C84 1.332 . S
N80 C85 1.332 . S
C81 C82 1.388 . S
C81 C85 1.382 . S
C81 H104 0.950 . S
C82 C81 1.388 . S
C82 C83 1.386 . S
C83 C82 1.386 . S
C83 C84 1.382 . S
C83 H105 0.950 . S
C84 N80 1.332 . S
C84 C83 1.382 . S
C84 H86 0.952 . S
C85 N80 1.332 . S
C85 C81 1.382 . S
C85 H87 0.948 . S
H86 C84 0.952 . S
H87 C85 0.948 . S
H88 C77 0.952 . S
H89 C79 0.948 . S
C90 C56 1.395 . S
C90 C60 1.391 . S
C91 C53 1.389 . S
C91 C73 1.392 . S
C92 C63 1.392 . S
C92 C65 1.389 . S
C93 C68 1.395 . S
C93 C70 1.391 . S
H94 C54 0.951 . S
H95 C55 0.950 . S
H96 C61 0.949 . S
H97 C62 0.950 . S
H98 C66 0.951 . S
H99 C67 0.950 . S
H100 C71 0.949 . S
H101 C72 0.950 . S
H102 C76 0.951 1_556 S
H103 C78 0.950 . S
H104 C81 0.950 . S
H105 C83 0.950 . S
C106 C107 1.443 . S
C106 N110 1.376 . S
C106 C144 1.389 . S
C107 C106 1.443 . S
C107 C108 1.340 . S
C107 H147 0.951 . S
C108 C107 1.340 . S
C108 C109 1.439 . S
C108 H148 0.950 . S
C109 C108 1.439 . S
C109 N110 1.374 . S
C109 C143 1.395 . S
N110 C106 1.376 . S
N110 C109 1.374 . S
N110 Co111 2.008 . S
Co111 N110 2.008 . S
Co111 N112 1.995 1_554 S
Co111 N117 2.008 1_554 S
Co111 N122 1.995 . S
Co111 N127 2.282 . S
Co111 N133 2.282 1_554 S
N112 Co111 1.995 1_556 S
N112 C113 1.376 . S
N112 C116 1.383 . S
C113 N112 1.376 . S
C113 C114 1.446 . S
C113 C143 1.391 1_556 S
C114 C113 1.446 . S
C114 C115 1.339 . S
C114 H149 0.949 . S
C115 C114 1.339 . S
C115 C116 1.439 . S
C115 H150 0.950 . S
C116 N112 1.383 . S
C116 C115 1.439 . S
C116 C145 1.392 . S
N117 Co111 2.008 1_556 S
N117 C118 1.376 . S
N117 C121 1.374 . S
C118 N117 1.376 . S
C118 C119 1.443 . S
C118 C145 1.389 . S
C119 C118 1.443 . S
C119 C120 1.340 . S
C119 H151 0.951 . S
C120 C119 1.340 . S
C120 C121 1.439 . S
C120 H152 0.950 . S
C121 N117 1.374 . S
C121 C120 1.439 . S
C121 C146 1.395 1_556 S
N122 Co111 1.995 . S
N122 C123 1.376 . S
N122 C126 1.383 . S
C123 N122 1.376 . S
C123 C124 1.446 . S
C123 C146 1.391 . S
C124 C123 1.446 . S
C124 C125 1.339 . S
C124 H153 0.949 . S
C125 C124 1.339 . S
C125 C126 1.439 . S
C125 H154 0.950 . S
C126 N122 1.383 . S
C126 C125 1.439 . S
C126 C144 1.392 . S
N127 Co111 2.282 . S
N127 C130 1.332 . S
N127 C132 1.332 . S
C128 C129 1.386 . S
C128 C131 1.388 . S
C129 C128 1.386 . S
C129 C130 1.382 . S
C129 H155 0.950 . S
C130 N127 1.332 . S
C130 C129 1.382 . S
C130 H141 0.952 . S
C131 C128 1.388 . S
C131 C132 1.382 . S
C131 H156 0.950 . S
C132 N127 1.332 . S
C132 C131 1.382 . S
C132 H142 0.948 . S
N133 Co111 2.282 1_556 S
N133 C137 1.332 . S
N133 C138 1.332 . S
C134 C135 1.388 . S
C134 C138 1.382 . S
C134 H157 0.950 . S
C135 C134 1.388 . S
C135 C136 1.386 . S
C136 C135 1.386 . S
C136 C137 1.382 . S
C136 H158 0.950 . S
C137 N133 1.332 . S
C137 C136 1.382 . S
C137 H139 0.952 . S
C138 N133 1.332 . S
C138 C134 1.382 . S
C138 H140 0.948 . S
H139 C137 0.952 . S
H140 C138 0.948 . S
H141 C130 0.952 . S
H142 C132 0.948 . S
C143 C109 1.395 . S
C143 C113 1.391 1_554 S
C144 C106 1.389 . S
C144 C126 1.392 . S
C145 C116 1.392 . S
C145 C118 1.389 . S
C146 C121 1.395 1_554 S
C146 C123 1.391 . S
H147 C107 0.951 . S
H148 C108 0.950 . S
H149 C114 0.949 . S
H150 C115 0.950 . S
H151 C119 0.951 . S
H152 C120 0.950 . S
H153 C124 0.949 . S
H154 C125 0.950 . S
H155 C129 0.950 . S
H156 C131 0.950 . S
H157 C134 0.950 . S
H158 C136 0.950 . S
C159 C160 1.443 . S
C159 N163 1.376 . S
C159 C197 1.389 . S
C160 C159 1.443 . S
C160 C161 1.340 . S
C160 H200 0.951 . S
C161 C160 1.340 . S
C161 C162 1.439 . S
C161 H201 0.950 . S
C162 C161 1.439 . S
C162 N163 1.374 . S
C162 C196 1.395 . S
N163 C159 1.376 . S
N163 C162 1.374 . S
N163 Co164 2.008 . S
Co164 N163 2.008 . S
Co164 N165 1.995 . S
Co164 N170 2.008 . S
Co164 N175 1.995 . S
Co164 N180 2.282 . S
Co164 N186 2.282 . S
N165 Co164 1.995 . S
N165 C166 1.376 . S
N165 C169 1.383 1_554 S
C166 N165 1.376 . S
C166 C167 1.446 1_554 S
C166 C196 1.391 . S
C167 C166 1.446 1_556 S
C167 C168 1.339 . S
C167 H202 0.949 . S
C168 C167 1.339 . S
C168 C169 1.439 . S
C168 H203 0.950 . S
C169 N165 1.383 1_556 S
C169 C168 1.439 . S
C169 C198 1.392 . S
N170 Co164 2.008 . S
N170 C171 1.376 1_554 S
N170 C174 1.374 . S
C171 N170 1.376 1_556 S
C171 C172 1.443 . S
C171 C198 1.389 . S
C172 C171 1.443 . S
C172 C173 1.340 1_556 S
C172 H204 0.951 . S
C173 C172 1.340 1_554 S
C173 C174 1.439 . S
C173 H205 0.950 . S
C174 N170 1.374 . S
C174 C173 1.439 . S
C174 C199 1.395 . S
N175 Co164 1.995 . S
N175 C176 1.376 . S
N175 C179 1.383 . S
C176 N175 1.376 . S
C176 C177 1.446 . S
C176 C199 1.391 . S
C177 C176 1.446 . S
C177 C178 1.339 . S
C177 H206 0.949 . S
C178 C177 1.339 . S
C178 C179 1.439 . S
C178 H207 0.950 . S
C179 N175 1.383 . S
C179 C178 1.439 . S
C179 C197 1.392 . S
N180 Co164 2.282 . S
N180 C183 1.332 . S
N180 C185 1.332 . S
C181 C182 1.386 . S
C181 C184 1.388 . S
C182 C181 1.386 . S
C182 C183 1.382 . S
C182 H208 0.950 . S
C183 N180 1.332 . S
C183 C182 1.382 . S
C183 H194 0.952 . S
C184 C181 1.388 . S
C184 C185 1.382 . S
C184 H209 0.950 . S
C185 N180 1.332 . S
C185 C184 1.382 . S
C185 H195 0.948 . S
N186 Co164 2.282 . S
N186 C190 1.332 1_554 S
N186 C191 1.332 . S
C187 C188 1.388 . S
C187 C191 1.382 1_556 S
C187 H210 0.950 . S
C188 C187 1.388 . S
C188 C189 1.386 . S
C189 C188 1.386 . S
C189 C190 1.382 . S
C189 H211 0.950 . S
C190 N186 1.332 1_556 S
C190 C189 1.382 . S
C190 H192 0.952 . S
C191 N186 1.332 . S
C191 C187 1.382 1_554 S
C191 H193 0.948 . S
H192 C190 0.952 . S
H193 C191 0.948 . S
H194 C183 0.952 . S
H195 C185 0.948 . S
C196 C162 1.395 . S
C196 C166 1.391 . S
C197 C159 1.389 . S
C197 C179 1.392 . S
C198 C169 1.392 . S
C198 C171 1.389 . S
C199 C174 1.395 . S
C199 C176 1.391 . S
H200 C160 0.951 . S
H201 C161 0.950 . S
H202 C167 0.949 . S
H203 C168 0.950 . S
H204 C172 0.951 . S
H205 C173 0.950 . S
H206 C177 0.949 . S
H207 C178 0.950 . S
H208 C182 0.950 . S
H209 C184 0.950 . S
H210 C187 0.950 . S
H211 C189 0.950 . S
C212 C213 1.443 . S
C212 N216 1.376 . S
C212 C250 1.389 . S
C213 C212 1.443 . S
C213 C214 1.340 . S
C213 H253 0.951 . S
C214 C213 1.340 . S
C214 C215 1.439 . S
C214 H254 0.950 . S
C215 C214 1.439 . S
C215 N216 1.374 . S
C215 C249 1.395 . S
N216 C212 1.376 . S
N216 C215 1.374 . S
N216 Co217 2.008 . S
Co217 N216 2.008 . S
Co217 N218 1.995 . S
Co217 N223 2.008 . S
Co217 N228 1.995 . S
Co217 N233 2.282 . S
Co217 N239 2.282 . S
N218 Co217 1.995 . S
N218 C219 1.376 . S
N218 C222 1.383 1_554 S
C219 N218 1.376 . S
C219 C220 1.446 1_554 S
C219 C249 1.391 . S
C220 C219 1.446 1_556 S
C220 C221 1.339 . S
C220 H255 0.949 . S
C221 C220 1.339 . S
C221 C222 1.439 . S
C221 H256 0.950 . S
C222 N218 1.383 1_556 S
C222 C221 1.439 . S
C222 C251 1.392 . S
N223 Co217 2.008 . S
N223 C224 1.376 . S
N223 C227 1.374 . S
C224 N223 1.376 . S
C224 C225 1.443 . S
C224 C251 1.389 1_554 S
C225 C224 1.443 . S
C225 C226 1.340 . S
C225 H257 0.951 1_554 S
C226 C225 1.340 . S
C226 C227 1.439 . S
C226 H258 0.950 . S
C227 N223 1.374 . S
C227 C226 1.439 . S
C227 C252 1.395 . S
N228 Co217 1.995 . S
N228 C229 1.376 . S
N228 C232 1.383 . S
C229 N228 1.376 . S
C229 C230 1.446 . S
C229 C252 1.391 . S
C230 C229 1.446 . S
C230 C231 1.339 . S
C230 H259 0.949 . S
C231 C230 1.339 . S
C231 C232 1.439 . S
C231 H260 0.950 . S
C232 N228 1.383 . S
C232 C231 1.439 . S
C232 C250 1.392 . S
N233 Co217 2.282 . S
N233 C236 1.332 . S
N233 C238 1.332 . S
C234 C235 1.386 . S
C234 C237 1.388 . S
C235 C234 1.386 . S
C235 C236 1.382 . S
C235 H261 0.950 . S
C236 N233 1.332 . S
C236 C235 1.382 . S
C236 H247 0.952 . S
C237 C234 1.388 . S
C237 C238 1.382 . S
C237 H262 0.950 . S
C238 N233 1.332 . S
C238 C237 1.382 . S
C238 H248 0.948 . S
N239 Co217 2.282 . S
N239 C243 1.332 1_554 S
N239 C244 1.332 . S
C240 C241 1.388 . S
C240 C244 1.382 1_556 S
C240 H263 0.950 . S
C241 C240 1.388 . S
C241 C242 1.386 . S
C242 C241 1.386 . S
C242 C243 1.382 . S
C242 H264 0.950 . S
C243 N239 1.332 1_556 S
C243 C242 1.382 . S
C243 H245 0.952 . S
C244 N239 1.332 . S
C244 C240 1.382 1_554 S
C244 H246 0.948 . S
H245 C243 0.952 . S
H246 C244 0.948 . S
H247 C236 0.952 . S
H248 C238 0.948 . S
C249 C215 1.395 . S
C249 C219 1.391 . S
C250 C212 1.389 . S
C250 C232 1.392 . S
C251 C222 1.392 . S
C251 C224 1.389 1_556 S
C252 C227 1.395 . S
C252 C229 1.391 . S
H253 C213 0.951 . S
H254 C214 0.950 . S
H255 C220 0.949 . S
H256 C221 0.950 . S
H257 C225 0.951 1_556 S
H258 C226 0.950 . S
H259 C230 0.949 . S
H260 C231 0.950 . S
H261 C235 0.950 . S
H262 C237 0.950 . S
H263 C240 0.950 . S
H264 C242 0.950 . S
C265 C266 1.443 . S
C265 N269 1.376 . S
C265 C303 1.389 . S
C266 C265 1.443 . S
C266 C267 1.340 . S
C266 H306 0.951 . S
C267 C266 1.340 . S
C267 C268 1.439 . S
C267 H307 0.950 . S
C268 C267 1.439 . S
C268 N269 1.374 . S
C268 C302 1.395 . S
N269 C265 1.376 . S
N269 C268 1.374 . S
N269 Co270 2.008 . S
Co270 N269 2.008 . S
Co270 N271 1.995 . S
Co270 N276 2.008 . S
Co270 N281 1.995 . S
Co270 N286 2.282 . S
Co270 N292 2.282 . S
N271 Co270 1.995 . S
N271 C272 1.376 . S
N271 C275 1.383 . S
C272 N271 1.376 . S
C272 C273 1.446 . S
C272 C302 1.391 . S
C273 C272 1.446 . S
C273 C274 1.339 . S
C273 H308 0.949 . S
C274 C273 1.339 . S
C274 C275 1.439 . S
C274 H309 0.950 . S
C275 N271 1.383 . S
C275 C274 1.439 . S
C275 C304 1.392 . S
N276 Co270 2.008 . S
N276 C277 1.376 . S
N276 C280 1.374 . S
C277 N276 1.376 . S
C277 C278 1.443 . S
C277 C304 1.389 . S
C278 C277 1.443 . S
C278 C279 1.340 . S
C278 H310 0.951 . S
C279 C278 1.340 . S
C279 C280 1.439 . S
C279 H311 0.950 . S
C280 N276 1.374 . S
C280 C279 1.439 . S
C280 C305 1.395 . S
N281 Co270 1.995 . S
N281 C282 1.376 . S
N281 C285 1.383 . S
C282 N281 1.376 . S
C282 C283 1.446 . S
C282 C305 1.391 . S
C283 C282 1.446 . S
C283 C284 1.339 . S
C283 H312 0.949 . S
C284 C283 1.339 . S
C284 C285 1.439 . S
C284 H313 0.950 . S
C285 N281 1.383 . S
C285 C284 1.439 . S
C285 C303 1.392 . S
N286 Co270 2.282 . S
N286 C289 1.332 . S
N286 C291 1.332 . S
C287 C288 1.386 . S
C287 C290 1.388 . S
C288 C287 1.386 . S
C288 C289 1.382 . S
C288 H314 0.950 . S
C289 N286 1.332 . S
C289 C288 1.382 . S
C289 H300 0.952 . S
C290 C287 1.388 . S
C290 C291 1.382 . S
C290 H315 0.950 . S
C291 N286 1.332 . S
C291 C290 1.382 . S
C291 H301 0.948 . S
N292 Co270 2.282 . S
N292 C296 1.332 . S
N292 C297 1.332 . S
C293 C294 1.388 . S
C293 C297 1.382 . S
C293 H316 0.950 . S
C294 C293 1.388 . S
C294 C295 1.386 . S
C295 C294 1.386 . S
C295 C296 1.382 . S
C295 H317 0.950 . S
C296 N292 1.332 . S
C296 C295 1.382 . S
C296 H298 0.952 . S
C297 N292 1.332 . S
C297 C293 1.382 . S
C297 H299 0.948 . S
H298 C296 0.952 . S
H299 C297 0.948 . S
H300 C289 0.952 . S
H301 C291 0.948 . S
C302 C268 1.395 . S
C302 C272 1.391 . S
C303 C265 1.389 . S
C303 C285 1.392 . S
C304 C275 1.392 . S
C304 C277 1.389 . S
C305 C280 1.395 . S
C305 C282 1.391 . S
H306 C266 0.951 . S
H307 C267 0.950 . S
H308 C273 0.949 . S
H309 C274 0.950 . S
H310 C278 0.951 . S
H311 C279 0.950 . S
H312 C283 0.949 . S
H313 C284 0.950 . S
H314 C288 0.950 . S
H315 C290 0.950 . S
H316 C293 0.950 . S
H317 C295 0.950 . S
C318 O330 1.241 . S
C318 O331 1.280 . S
C319 O332 1.277 . S
C319 O333 1.245 . S
C320 O344 1.247 . S
C320 O346 1.289 . S
Mg321 O322 1.946 1_655 S
Mg321 O331 2.010 . S
Mg321 O333 1.954 1_655 S
Mg321 O334 2.079 . S
O322 Mg321 1.946 1_455 S
O322 Mg323 1.986 . S
O322 Mg324 1.917 . S
Mg323 O322 1.986 . S
Mg323 O330 2.042 1_455 S
Mg323 O332 2.041 . S
Mg323 O338 2.038 1_455 S
Mg323 O346 2.238 . S
Mg324 O322 1.917 . S
Mg324 O325 1.917 . S
Mg324 O335 2.106 1_455 S
Mg324 O337 2.079 1_455 S
Mg324 O346 2.106 . S
Mg324 O347 2.079 . S
O325 Mg324 1.917 . S
O325 Mg326 1.926 . S
O325 Mg327 1.986 . S
Mg326 O325 1.926 . S
Mg326 O340 1.984 . S
Mg326 O343 1.988 1_455 S
Mg326 O344 2.061 . S
Mg327 O325 1.986 . S
Mg327 O335 2.238 1_455 S
Mg327 O339 2.042 . S
Mg327 O341 2.041 1_455 S
Mg327 O348 2.038 . S
C328 O334 1.247 . S
C328 O335 1.289 . S
C329 O347 1.245 . S
C329 O348 1.274 . S
O330 C318 1.241 . S
O330 Mg323 2.042 1_655 S
O331 C318 1.280 . S
O331 Mg321 2.010 . S
O332 C319 1.277 . S
O332 Mg323 2.041 . S
O333 C319 1.245 . S
O333 Mg321 1.954 1_455 S
O334 Mg321 2.079 . S
O334 C328 1.247 . S
O335 Mg324 2.106 1_655 S
O335 Mg327 2.238 1_655 S
O335 C328 1.289 . S
C336 O337 1.245 . S
C336 O338 1.274 . S
O337 Mg324 2.079 1_655 S
O337 C336 1.245 . S
O338 Mg323 2.038 1_655 S
O338 C336 1.274 . S
O339 Mg327 2.042 . S
O339 C342 1.241 . S
O340 Mg326 1.984 . S
O340 C342 1.280 . S
O341 Mg327 2.041 1_655 S
O341 C345 1.277 . S
C342 O339 1.241 . S
C342 O340 1.280 . S
O343 Mg326 1.988 1_655 S
O343 C345 1.245 . S
O344 C320 1.247 . S
O344 Mg326 2.061 . S
C345 O341 1.277 . S
C345 O343 1.245 . S
O346 C320 1.289 . S
O346 Mg323 2.238 . S
O346 Mg324 2.106 . S
O347 Mg324 2.079 . S
O347 C329 1.245 . S
O348 Mg327 2.038 . S
O348 C329 1.274 . S
C349 O361 1.241 . S
C349 O362 1.280 . S
C350 O363 1.277 . S
C350 O364 1.245 . S
C351 O375 1.247 . S
C351 O377 1.289 . S
Mg352 O353 1.926 . S
Mg352 O362 1.984 . S
Mg352 O364 1.988 1_545 S
Mg352 O365 2.061 . S
O353 Mg352 1.926 . S
O353 Mg354 1.986 . S
O353 Mg355 1.917 . S
Mg354 O353 1.986 . S
Mg354 O361 2.042 . S
Mg354 O363 2.041 1_545 S
Mg354 O369 2.038 . S
Mg354 O377 2.238 1_545 S
Mg355 O353 1.917 . S
Mg355 O356 1.917 1_545 S
Mg355 O366 2.106 . S
Mg355 O368 2.079 . S
Mg355 O377 2.106 1_545 S
Mg355 O378 2.079 1_545 S
O356 Mg355 1.917 1_565 S
O356 Mg357 1.926 . S
O356 Mg358 1.986 1_565 S
Mg357 O356 1.926 . S
Mg357 O371 1.984 . S
Mg357 O374 1.988 1_565 S
Mg357 O375 2.061 . S
Mg358 O356 1.986 1_545 S
Mg358 O366 2.238 . S
Mg358 O370 2.042 1_545 S
Mg358 O372 2.041 . S
Mg358 O379 2.038 1_545 S
C359 O365 1.247 . S
C359 O366 1.289 . S
C360 O378 1.245 . S
C360 O379 1.274 . S
O361 C349 1.241 . S
O361 Mg354 2.042 . S
O362 C349 1.280 . S
O362 Mg352 1.984 . S
O363 C350 1.277 . S
O363 Mg354 2.041 1_565 S
O364 C350 1.245 . S
O364 Mg352 1.988 1_565 S
O365 Mg352 2.061 . S
O365 C359 1.247 . S
O366 Mg355 2.106 . S
O366 Mg358 2.238 . S
O366 C359 1.289 . S
C367 O368 1.245 . S
C367 O369 1.274 . S
O368 Mg355 2.079 . S
O368 C367 1.245 . S
O369 Mg354 2.038 . S
O369 C367 1.274 . S
O370 Mg358 2.042 1_565 S
O370 C373 1.241 . S
O371 Mg357 1.984 . S
O371 C373 1.280 . S
O372 Mg358 2.041 . S
O372 C376 1.277 . S
C373 O370 1.241 . S
C373 O371 1.280 . S
O374 Mg357 1.988 1_545 S
O374 C376 1.245 . S
O375 C351 1.247 . S
O375 Mg357 2.061 . S
C376 O372 1.277 . S
C376 O374 1.245 . S
O377 C351 1.289 . S
O377 Mg354 2.238 1_565 S
O377 Mg355 2.106 1_565 S
O378 Mg355 2.079 1_565 S
O378 C360 1.245 . S
O379 Mg358 2.038 1_565 S
O379 C360 1.274 . S
C380 O392 1.241 . S
C380 O393 1.280 . S
C381 O394 1.277 . S
C381 O395 1.245 . S
C382 O406 1.247 . S
C382 O408 1.289 . S
Mg383 O384 1.926 . S
Mg383 O393 1.984 . S
Mg383 O395 1.988 . S
Mg383 O396 2.061 . S
O384 Mg383 1.926 . S
O384 Mg385 1.986 . S
O384 Mg386 1.917 . S
Mg385 O384 1.986 . S
Mg385 O392 2.042 . S
Mg385 O394 2.041 . S
Mg385 O400 2.038 . S
Mg385 O408 2.238 . S
Mg386 O384 1.917 . S
Mg386 O387 1.917 . S
Mg386 O397 2.106 . S
Mg386 O399 2.079 . S
Mg386 O408 2.106 . S
Mg386 O409 2.079 . S
O387 Mg386 1.917 . S
O387 Mg388 1.926 . S
O387 Mg389 1.986 . S
Mg388 O387 1.926 . S
Mg388 O402 1.984 . S
Mg388 O405 1.988 . S
Mg388 O406 2.061 . S
Mg389 O387 1.986 . S
Mg389 O397 2.238 . S
Mg389 O401 2.042 . S
Mg389 O403 2.041 . S
Mg389 O410 2.038 . S
C390 O396 1.247 . S
C390 O397 1.289 . S
C391 O409 1.245 . S
C391 O410 1.274 . S
O392 C380 1.241 . S
O392 Mg385 2.042 . S
O393 C380 1.280 . S
O393 Mg383 1.984 . S
O394 C381 1.277 . S
O394 Mg385 2.041 . S
O395 C381 1.245 . S
O395 Mg383 1.988 . S
O396 Mg383 2.061 . S
O396 C390 1.247 . S
O397 Mg386 2.106 . S
O397 Mg389 2.238 . S
O397 C390 1.289 . S
C398 O399 1.245 . S
C398 O400 1.274 . S
O399 Mg386 2.079 . S
O399 C398 1.245 . S
O400 Mg385 2.038 . S
O400 C398 1.274 . S
O401 Mg389 2.042 . S
O401 C404 1.241 . S
O402 Mg388 1.984 . S
O402 C404 1.280 . S
O403 Mg389 2.041 . S
O403 C407 1.277 . S
C404 O401 1.241 . S
C404 O402 1.280 . S
O405 Mg388 1.988 . S
O405 C407 1.245 . S
O406 C382 1.247 . S
O406 Mg388 2.061 . S
C407 O403 1.277 . S
C407 O405 1.245 . S
O408 C382 1.289 . S
O408 Mg385 2.238 . S
O408 Mg386 2.106 . S
O409 Mg386 2.079 . S
O409 C391 1.245 . S
O410 Mg389 2.038 . S
O410 C391 1.274 . S
H411 C417 0.930 . S
H412 C420 0.930 . S
H413 C421 0.930 . S
H414 C422 0.930 . S
H415 C425 0.930 . S
H416 C426 0.930 . S
C417 H411 0.930 . S
C417 C418 1.355 . S
C417 C419 1.415 . S
C418 C417 1.355 . S
C418 C420 1.419 . S
C419 C417 1.415 . S
C419 C424 1.425 . S
C419 C426 1.409 . S
C420 H412 0.930 . S
C420 C418 1.419 . S
C420 C421 1.362 . S
C421 H413 0.930 . S
C421 C420 1.362 . S
C421 C424 1.409 . S
C422 H414 0.930 . S
C422 C423 1.355 . S
C422 C424 1.415 . S
C423 C422 1.355 . S
C423 C425 1.419 . S
C424 C419 1.425 . S
C424 C421 1.409 . S
C424 C422 1.415 . S
C425 H415 0.930 . S
C425 C423 1.419 . S
C425 C426 1.362 . S
C426 H416 0.930 . S
C426 C419 1.409 . S
C426 C425 1.362 . S
H427 C433 0.930 . S
H428 C436 0.930 . S
H429 C437 0.930 . S
H430 C438 0.930 . S
H431 C441 0.930 . S
H432 C442 0.930 . S
C433 H427 0.930 . S
C433 C434 1.355 . S
C433 C435 1.415 . S
C434 C433 1.355 . S
C434 C436 1.419 . S
C435 C433 1.415 . S
C435 C440 1.425 . S
C435 C442 1.409 . S
C436 H428 0.930 . S
C436 C434 1.419 . S
C436 C437 1.362 . S
C437 H429 0.930 . S
C437 C436 1.362 . S
C437 C440 1.409 . S
C438 H430 0.930 . S
C438 C439 1.355 . S
C438 C440 1.415 . S
C439 C438 1.355 . S
C439 C441 1.419 . S
C440 C435 1.425 . S
C440 C437 1.409 . S
C440 C438 1.415 . S
C441 H431 0.930 . S
C441 C439 1.419 . S
C441 C442 1.362 . S
C442 H432 0.930 . S
C442 C435 1.409 . S
C442 C441 1.362 . S
H443 C449 0.930 . S
H444 C452 0.930 . S
H445 C453 0.930 . S
H446 C454 0.930 . S
H447 C457 0.930 . S
H448 C458 0.930 . S
C449 H443 0.930 . S
C449 C450 1.355 . S
C449 C451 1.415 . S
C450 C449 1.355 . S
C450 C452 1.419 . S
C451 C449 1.415 . S
C451 C456 1.425 . S
C451 C458 1.409 . S
C452 H444 0.930 . S
C452 C450 1.419 . S
C452 C453 1.362 . S
C453 H445 0.930 . S
C453 C452 1.362 . S
C453 C456 1.409 . S
C454 H446 0.930 . S
C454 C455 1.355 . S
C454 C456 1.415 . S
C455 C454 1.355 . S
C455 C457 1.419 . S
C456 C451 1.425 . S
C456 C453 1.409 . S
C456 C454 1.415 . S
C457 H447 0.930 . S
C457 C455 1.419 . S
C457 C458 1.362 . S
C458 H448 0.930 . S
C458 C451 1.409 . S
C458 C457 1.362 . S
H459 C465 0.930 . S
H460 C468 0.930 . S
H461 C469 0.930 . S
H462 C470 0.930 . S
H463 C473 0.930 . S
H464 C474 0.930 . S
C465 H459 0.930 . S
C465 C466 1.355 . S
C465 C467 1.415 . S
C466 C465 1.355 . S
C466 C468 1.419 . S
C467 C465 1.415 . S
C467 C472 1.425 . S
C467 C474 1.409 . S
C468 H460 0.930 . S
C468 C466 1.419 . S
C468 C469 1.362 . S
C469 H461 0.930 . S
C469 C468 1.362 . S
C469 C472 1.409 . S
C470 H462 0.930 . S
C470 C471 1.355 . S
C470 C472 1.415 . S
C471 C470 1.355 . S
C471 C473 1.419 . S
C472 C467 1.425 . S
C472 C469 1.409 . S
C472 C470 1.415 . S
C473 H463 0.930 . S
C473 C471 1.419 . S
C473 C474 1.362 . S
C474 H464 0.930 . S
C474 C467 1.409 . S
C474 C473 1.362 . S
H475 C481 0.930 . S
H476 C484 0.930 . S
H477 C485 0.930 . S
H478 C486 0.930 . S
H479 C489 0.930 . S
H480 C490 0.930 . S
C481 H475 0.930 . S
C481 C482 1.355 . S
C481 C483 1.415 . S
C482 C481 1.355 . S
C482 C484 1.419 . S
C483 C481 1.415 . S
C483 C488 1.425 . S
C483 C490 1.409 . S
C484 H476 0.930 . S
C484 C482 1.419 . S
C484 C485 1.362 . S
C485 H477 0.930 . S
C485 C484 1.362 . S
C485 C488 1.409 . S
C486 H478 0.930 . S
C486 C487 1.355 . S
C486 C488 1.415 . S
C487 C486 1.355 . S
C487 C489 1.419 . S
C488 C483 1.425 . S
C488 C485 1.409 . S
C488 C486 1.415 . S
C489 H479 0.930 . S
C489 C487 1.419 . S
C489 C490 1.362 . S
C490 H480 0.930 . S
C490 C483 1.409 . S
C490 C489 1.362 . S
H491 C497 0.930 . S
H492 C500 0.930 . S
H493 C501 0.930 . S
H494 C502 0.930 . S
H495 C505 0.930 . S
H496 C506 0.930 . S
C497 H491 0.930 . S
C497 C498 1.355 . S
C497 C499 1.415 . S
C498 C497 1.355 . S
C498 C500 1.419 . S
C499 C497 1.415 . S
C499 C504 1.425 . S
C499 C506 1.409 . S
C500 H492 0.930 . S
C500 C498 1.419 . S
C500 C501 1.362 . S
C501 H493 0.930 . S
C501 C500 1.362 . S
C501 C504 1.409 . S
C502 H494 0.930 . S
C502 C503 1.355 . S
C502 C504 1.415 . S
C503 C502 1.355 . S
C503 C505 1.419 . S
C504 C499 1.425 . S
C504 C501 1.409 . S
C504 C502 1.415 . S
C505 H495 0.930 . S
C505 C503 1.419 . S
C505 C506 1.362 . S
C506 H496 0.930 . S
C506 C499 1.409 . S
C506 C505 1.362 . S
H507 C513 0.930 . S
H508 C516 0.930 . S
H509 C517 0.930 . S
H510 C518 0.930 . S
H511 C521 0.930 . S
H512 C522 0.930 . S
C513 H507 0.930 . S
C513 C514 1.355 . S
C513 C515 1.415 . S
C514 C513 1.355 . S
C514 C516 1.419 . S
C515 C513 1.415 . S
C515 C520 1.425 . S
C515 C522 1.409 . S
C516 H508 0.930 . S
C516 C514 1.419 . S
C516 C517 1.362 . S
C517 H509 0.930 . S
C517 C516 1.362 . S
C517 C520 1.409 . S
C518 H510 0.930 . S
C518 C519 1.355 . S
C518 C520 1.415 . S
C519 C518 1.355 . S
C519 C521 1.419 . S
C520 C515 1.425 . S
C520 C517 1.409 . S
C520 C518 1.415 . S
C521 H511 0.930 . S
C521 C519 1.419 . S
C521 C522 1.362 . S
C522 H512 0.930 . S
C522 C515 1.409 . S
C522 C521 1.362 . S
H523 C529 0.930 . S
H524 C532 0.930 . S
H525 C533 0.930 . S
H526 C534 0.930 . S
H527 C537 0.930 . S
H528 C538 0.930 . S
C529 H523 0.930 . S
C529 C530 1.355 . S
C529 C531 1.415 . S
C530 C529 1.355 . S
C530 C532 1.419 . S
C531 C529 1.415 . S
C531 C536 1.425 . S
C531 C538 1.409 . S
C532 H524 0.930 . S
C532 C530 1.419 . S
C532 C533 1.362 . S
C533 H525 0.930 . S
C533 C532 1.362 . S
C533 C536 1.409 . S
C534 H526 0.930 . S
C534 C535 1.355 . S
C534 C536 1.415 . S
C535 C534 1.355 . S
C535 C537 1.419 . S
C536 C531 1.425 . S
C536 C533 1.409 . S
C536 C534 1.415 . S
C537 H527 0.930 . S
C537 C535 1.419 . S
C537 C538 1.362 . S
C538 H528 0.930 . S
C538 C531 1.409 . S
C538 C537 1.362 . S
H539 C545 0.930 1_554 S
H540 C548 0.930 . S
H541 C549 0.930 . S
H542 C550 0.930 . S
H543 C553 0.930 . S
H544 C554 0.930 . S
C545 H539 0.930 1_556 S
C545 C546 1.355 . S
C545 C547 1.415 . S
C546 C545 1.355 . S
C546 C548 1.419 . S
C547 C545 1.415 . S
C547 C552 1.425 . S
C547 C554 1.409 . S
C548 H540 0.930 . S
C548 C546 1.419 . S
C548 C549 1.362 . S
C549 H541 0.930 . S
C549 C548 1.362 . S
C549 C552 1.409 . S
C550 H542 0.930 . S
C550 C551 1.355 . S
C550 C552 1.415 . S
C551 C550 1.355 . S
C551 C553 1.419 . S
C552 C547 1.425 . S
C552 C549 1.409 . S
C552 C550 1.415 . S
C553 H543 0.930 . S
C553 C551 1.419 . S
C553 C554 1.362 . S
C554 H544 0.930 . S
C554 C547 1.409 . S
C554 C553 1.362 . S
H555 C561 0.930 . S
H556 C564 0.930 . S
H557 C565 0.930 . S
H558 C566 0.930 . S
H559 C569 0.930 . S
H560 C570 0.930 . S
C561 H555 0.930 . S
C561 C562 1.355 1_556 S
C561 C563 1.415 . S
C562 C561 1.355 1_554 S
C562 C564 1.419 . S
C563 C561 1.415 . S
C563 C568 1.425 . S
C563 C570 1.409 . S
C564 H556 0.930 . S
C564 C562 1.419 . S
C564 C565 1.362 1_554 S
C565 H557 0.930 . S
C565 C564 1.362 1_556 S
C565 C568 1.409 . S
C566 H558 0.930 . S
C566 C567 1.355 . S
C566 C568 1.415 . S
C567 C566 1.355 . S
C567 C569 1.419 . S
C568 C563 1.425 . S
C568 C565 1.409 . S
C568 C566 1.415 . S
C569 H559 0.930 . S
C569 C567 1.419 . S
C569 C570 1.362 . S
C570 H560 0.930 . S
C570 C563 1.409 . S
C570 C569 1.362 . S
H571 C577 0.930 1_554 S
H572 C580 0.930 . S
H573 C581 0.930 . S
H574 C582 0.930 . S
H575 C585 0.930 . S
H576 C586 0.930 . S
C577 H571 0.930 1_556 S
C577 C578 1.355 . S
C577 C579 1.415 . S
C578 C577 1.355 . S
C578 C580 1.419 . S
C579 C577 1.415 . S
C579 C584 1.425 . S
C579 C586 1.409 . S
C580 H572 0.930 . S
C580 C578 1.419 . S
C580 C581 1.362 . S
C581 H573 0.930 . S
C581 C580 1.362 . S
C581 C584 1.409 . S
C582 H574 0.930 . S
C582 C583 1.355 . S
C582 C584 1.415 . S
C583 C582 1.355 . S
C583 C585 1.419 . S
C584 C579 1.425 . S
C584 C581 1.409 . S
C584 C582 1.415 . S
C585 H575 0.930 . S
C585 C583 1.419 . S
C585 C586 1.362 . S
C586 H576 0.930 . S
C586 C579 1.409 . S
C586 C585 1.362 . S
H587 C593 0.930 . S
H588 C596 0.930 . S
H589 C597 0.930 . S
H590 C598 0.930 . S
H591 C601 0.930 . S
H592 C602 0.930 . S
C593 H587 0.930 . S
C593 C594 1.355 . S
C593 C595 1.415 1_554 S
C594 C593 1.355 . S
C594 C596 1.419 . S
C595 C593 1.415 1_556 S
C595 C600 1.425 . S
C595 C602 1.409 . S
C596 H588 0.930 . S
C596 C594 1.419 . S
C596 C597 1.362 1_554 S
C597 H589 0.930 . S
C597 C596 1.362 1_556 S
C597 C600 1.409 . S
C598 H590 0.930 . S
C598 C599 1.355 . S
C598 C600 1.415 . S
C599 C598 1.355 . S
C599 C601 1.419 . S
C600 C595 1.425 . S
C600 C597 1.409 . S
C600 C598 1.415 . S
C601 H591 0.930 . S
C601 C599 1.419 . S
C601 C602 1.362 . S
C602 H592 0.930 . S
C602 C595 1.409 . S
C602 C601 1.362 . S
H603 C609 0.930 . S
H604 C612 0.930 . S
H605 C613 0.930 . S
H606 C614 0.930 . S
H607 C617 0.930 . S
H608 C618 0.930 . S
C609 H603 0.930 . S
C609 C610 1.355 . S
C609 C611 1.415 . S
C610 C609 1.355 . S
C610 C612 1.419 . S
C611 C609 1.415 . S
C611 C616 1.425 . S
C611 C618 1.409 . S
C612 H604 0.930 . S
C612 C610 1.419 . S
C612 C613 1.362 . S
C613 H605 0.930 . S
C613 C612 1.362 . S
C613 C616 1.409 . S
C614 H606 0.930 . S
C614 C615 1.355 . S
C614 C616 1.415 . S
C615 C614 1.355 . S
C615 C617 1.419 . S
C616 C611 1.425 . S
C616 C613 1.409 . S
C616 C614 1.415 . S
C617 H607 0.930 . S
C617 C615 1.419 . S
C617 C618 1.362 . S
C618 H608 0.930 . S
C618 C611 1.409 . S
C618 C617 1.362 . S
H619 C625 0.930 . S
H620 C628 0.930 . S
H621 C629 0.930 . S
H622 C630 0.930 . S
H623 C633 0.930 . S
H624 C634 0.930 . S
C625 H619 0.930 . S
C625 C626 1.355 . S
C625 C627 1.415 . S
C626 C625 1.355 . S
C626 C628 1.419 . S
C627 C625 1.415 . S
C627 C632 1.425 . S
C627 C634 1.409 . S
C628 H620 0.930 . S
C628 C626 1.419 . S
C628 C629 1.362 . S
C629 H621 0.930 . S
C629 C628 1.362 . S
C629 C632 1.409 . S
C630 H622 0.930 . S
C630 C631 1.355 . S
C630 C632 1.415 . S
C631 C630 1.355 . S
C631 C633 1.419 . S
C632 C627 1.425 . S
C632 C629 1.409 . S
C632 C630 1.415 . S
C633 H623 0.930 . S
C633 C631 1.419 . S
C633 C634 1.362 . S
C634 H624 0.930 . S
C634 C627 1.409 . S
C634 C633 1.362 . S
H635 C641 0.930 . S
H636 C644 0.930 . S
H637 C645 0.930 . S
H638 C646 0.930 . S
H639 C649 0.930 . S
H640 C650 0.930 . S
C641 H635 0.930 . S
C641 C642 1.355 . S
C641 C643 1.415 . S
C642 C641 1.355 . S
C642 C644 1.419 1_554 S
C643 C641 1.415 . S
C643 C648 1.425 1_554 S
C643 C650 1.409 . S
C644 H636 0.930 . S
C644 C642 1.419 1_556 S
C644 C645 1.362 . S
C645 H637 0.930 . S
C645 C644 1.362 . S
C645 C648 1.409 . S
C646 H638 0.930 . S
C646 C647 1.355 . S
C646 C648 1.415 . S
C647 C646 1.355 . S
C647 C649 1.419 . S
C648 C643 1.425 1_556 S
C648 C645 1.409 . S
C648 C646 1.415 . S
C649 H639 0.930 . S
C649 C647 1.419 . S
C649 C650 1.362 1_556 S
C650 H640 0.930 . S
C650 C643 1.409 . S
C650 C649 1.362 1_554 S
H651 C657 0.930 . S
H652 C660 0.930 . S
H653 C661 0.930 . S
H654 C662 0.930 . S
H655 C665 0.930 . S
H656 C666 0.930 . S
C657 H651 0.930 . S
C657 C658 1.355 1_556 S
C657 C659 1.415 . S
C658 C657 1.355 1_554 S
C658 C660 1.419 . S
C659 C657 1.415 . S
C659 C664 1.425 . S
C659 C666 1.409 . S
C660 H652 0.930 . S
C660 C658 1.419 . S
C660 C661 1.362 . S
C661 H653 0.930 . S
C661 C660 1.362 . S
C661 C664 1.409 1_554 S
C662 H654 0.930 . S
C662 C663 1.355 . S
C662 C664 1.415 . S
C663 C662 1.355 . S
C663 C665 1.419 . S
C664 C659 1.425 . S
C664 C661 1.409 1_556 S
C664 C662 1.415 . S
C665 H655 0.930 . S
C665 C663 1.419 . S
C665 C666 1.362 . S
C666 H656 0.930 . S
C666 C659 1.409 . S
C666 C665 1.362 . S
H667 C673 0.930 . S
H668 C676 0.930 . S
H669 C677 0.930 . S
H670 C678 0.930 . S
H671 C681 0.930 . S
H672 C682 0.930 . S
C673 H667 0.930 . S
C673 C674 1.355 . S
C673 C675 1.415 . S
C674 C673 1.355 . S
C674 C676 1.419 . S
C675 C673 1.415 . S
C675 C680 1.425 . S
C675 C682 1.409 . S
C676 H668 0.930 . S
C676 C674 1.419 . S
C676 C677 1.362 . S
C677 H669 0.930 . S
C677 C676 1.362 . S
C677 C680 1.409 . S
C678 H670 0.930 . S
C678 C679 1.355 . S
C678 C680 1.415 . S
C679 C678 1.355 . S
C679 C681 1.419 . S
C680 C675 1.425 . S
C680 C677 1.409 . S
C680 C678 1.415 . S
C681 H671 0.930 . S
C681 C679 1.419 . S
C681 C682 1.362 . S
C682 H672 0.930 . S
C682 C675 1.409 . S
C682 C681 1.362 . S
H683 C689 0.930 . S
H684 C692 0.930 . S
H685 C693 0.930 . S
H686 C694 0.930 . S
H687 C697 0.930 . S
H688 C698 0.930 . S
C689 H683 0.930 . S
C689 C690 1.355 . S
C689 C691 1.415 . S
C690 C689 1.355 . S
C690 C692 1.419 . S
C691 C689 1.415 . S
C691 C696 1.425 . S
C691 C698 1.409 . S
C692 H684 0.930 . S
C692 C690 1.419 . S
C692 C693 1.362 . S
C693 H685 0.930 . S
C693 C692 1.362 . S
C693 C696 1.409 . S
C694 H686 0.930 . S
C694 C695 1.355 . S
C694 C696 1.415 . S
C695 C694 1.355 . S
C695 C697 1.419 . S
C696 C691 1.425 . S
C696 C693 1.409 . S
C696 C694 1.415 . S
C697 H687 0.930 . S
C697 C695 1.419 . S
C697 C698 1.362 . S
C698 H688 0.930 . S
C698 C691 1.409 . S
C698 C697 1.362 . S
H699 C705 0.930 . S
H700 C708 0.930 . S
H701 C709 0.930 . S
H702 C710 0.930 . S
H703 C713 0.930 . S
H704 C714 0.930 . S
C705 H699 0.930 . S
C705 C706 1.355 . S
C705 C707 1.415 . S
C706 C705 1.355 . S
C706 C708 1.419 . S
C707 C705 1.415 . S
C707 C712 1.425 . S
C707 C714 1.409 . S
C708 H700 0.930 . S
C708 C706 1.419 . S
C708 C709 1.362 . S
C709 H701 0.930 . S
C709 C708 1.362 . S
C709 C712 1.409 . S
C710 H702 0.930 . S
C710 C711 1.355 . S
C710 C712 1.415 . S
C711 C710 1.355 . S
C711 C713 1.419 . S
C712 C707 1.425 . S
C712 C709 1.409 . S
C712 C710 1.415 . S
C713 H703 0.930 . S
C713 C711 1.419 . S
C713 C714 1.362 . S
C714 H704 0.930 . S
C714 C707 1.409 . S
C714 C713 1.362 . S
H715 C721 0.930 . S
H716 C724 0.930 . S
H717 C725 0.930 . S
H718 C726 0.930 . S
H719 C729 0.930 . S
H720 C730 0.930 . S
C721 H715 0.930 . S
C721 C722 1.355 . S
C721 C723 1.415 . S
C722 C721 1.355 . S
C722 C724 1.419 . S
C723 C721 1.415 . S
C723 C728 1.425 . S
C723 C730 1.409 . S
C724 H716 0.930 . S
C724 C722 1.419 . S
C724 C725 1.362 . S
C725 H717 0.930 . S
C725 C724 1.362 . S
C725 C728 1.409 . S
C726 H718 0.930 . S
C726 C727 1.355 . S
C726 C728 1.415 . S
C727 C726 1.355 . S
C727 C729 1.419 . S
C728 C723 1.425 . S
C728 C725 1.409 . S
C728 C726 1.415 . S
C729 H719 0.930 . S
C729 C727 1.419 . S
C729 C730 1.362 . S
C730 H720 0.930 . S
C730 C723 1.409 . S
C730 C729 1.362 . S
H731 C737 0.930 . S
H732 C740 0.930 . S
H733 C741 0.930 . S
H734 C742 0.930 . S
H735 C745 0.930 . S
H736 C746 0.930 . S
C737 H731 0.930 . S
C737 C738 1.355 . S
C737 C739 1.415 . S
C738 C737 1.355 . S
C738 C740 1.419 . S
C739 C737 1.415 . S
C739 C744 1.425 . S
C739 C746 1.409 . S
C740 H732 0.930 . S
C740 C738 1.419 . S
C740 C741 1.362 . S
C741 H733 0.930 . S
C741 C740 1.362 . S
C741 C744 1.409 . S
C742 H734 0.930 . S
C742 C743 1.355 . S
C742 C744 1.415 . S
C743 C742 1.355 . S
C743 C745 1.419 . S
C744 C739 1.425 . S
C744 C741 1.409 . S
C744 C742 1.415 . S
C745 H735 0.930 . S
C745 C743 1.419 . S
C745 C746 1.362 . S
C746 H736 0.930 . S
C746 C739 1.409 . S
C746 C745 1.362 . S
H747 C753 0.930 . S
H748 C756 0.930 . S
H749 C757 0.930 . S
H750 C758 0.930 . S
H751 C761 0.930 . S
H752 C762 0.930 . S
C753 H747 0.930 . S
C753 C754 1.355 . S
C753 C755 1.415 . S
C754 C753 1.355 . S
C754 C756 1.419 . S
C755 C753 1.415 . S
C755 C760 1.425 . S
C755 C762 1.409 . S
C756 H748 0.930 . S
C756 C754 1.419 . S
C756 C757 1.362 . S
C757 H749 0.930 . S
C757 C756 1.362 . S
C757 C760 1.409 . S
C758 H750 0.930 . S
C758 C759 1.355 . S
C758 C760 1.415 . S
C759 C758 1.355 . S
C759 C761 1.419 . S
C760 C755 1.425 . S
C760 C757 1.409 . S
C760 C758 1.415 . S
C761 H751 0.930 . S
C761 C759 1.419 . S
C761 C762 1.362 . S
C762 H752 0.930 . S
C762 C755 1.409 . S
C762 C761 1.362 . S
H763 C769 0.930 . S
H764 C772 0.930 . S
H765 C773 0.930 . S
H766 C774 0.930 . S
H767 C777 0.930 . S
H768 C778 0.930 . S
C769 H763 0.930 . S
C769 C770 1.355 . S
C769 C771 1.415 . S
C770 C769 1.355 . S
C770 C772 1.419 . S
C771 C769 1.415 . S
C771 C776 1.425 . S
C771 C778 1.409 . S
C772 H764 0.930 . S
C772 C770 1.419 . S
C772 C773 1.362 . S
C773 H765 0.930 . S
C773 C772 1.362 . S
C773 C776 1.409 . S
C774 H766 0.930 . S
C774 C775 1.355 . S
C774 C776 1.415 . S
C775 C774 1.355 . S
C775 C777 1.419 . S
C776 C771 1.425 . S
C776 C773 1.409 . S
C776 C774 1.415 . S
C777 H767 0.930 . S
C777 C775 1.419 . S
C777 C778 1.362 . S
C778 H768 0.930 . S
C778 C771 1.409 . S
C778 C777 1.362 . S
H779 C785 0.930 . S
H780 C788 0.930 . S
H781 C789 0.930 . S
H782 C790 0.930 . S
H783 C793 0.930 . S
H784 C794 0.930 . S
C785 H779 0.930 . S
C785 C786 1.355 . S
C785 C787 1.415 . S
C786 C785 1.355 . S
C786 C788 1.419 . S
C787 C785 1.415 . S
C787 C792 1.425 . S
C787 C794 1.409 . S
C788 H780 0.930 . S
C788 C786 1.419 . S
C788 C789 1.362 . S
C789 H781 0.930 . S
C789 C788 1.362 . S
C789 C792 1.409 . S
C790 H782 0.930 . S
C790 C791 1.355 . S
C790 C792 1.415 . S
C791 C790 1.355 . S
C791 C793 1.419 . S
C792 C787 1.425 . S
C792 C789 1.409 . S
C792 C790 1.415 . S
C793 H783 0.930 . S
C793 C791 1.419 . S
C793 C794 1.362 . S
C794 H784 0.930 . S
C794 C787 1.409 . S
C794 C793 1.362 . S
C418 C22 1.863 . S
C423 C329 1.796 . S
C434 C92 1.815 . S
C439 C376 1.768 . S
C455 C380 1.879 . S
C450 C144 1.957 . S
C471 C345 1.604 . S
C466 C197 1.658 . S
C482 C250 1.987 . S
C487 C360 1.926 . S
C503 C382 1.197 . S
C498 C287 1.217 . S
C519 C351 1.582 . S
C514 C145 1.664 . S
C530 C198 1.605 . S
C535 C391 1.557 . S
C551 C320 1.559 . S
C546 C251 1.636 . S
C562 C294 1.439 . S
C567 C349 1.367 . S
C578 C29 1.885 1_556 S
C583 C407 1.819 . S
C599 C318 1.699 . S
C594 C91 1.756 . S
C615 C336 1.618 . S
C610 C188 1.676 . S
C631 C350 1.295 . S
C626 C241 1.359 . S
C647 C404 1.741 . S
C642 C304 1.797 . S
C663 C319 1.472 . S
C658 C39 1.493 . S
C679 C367 1.466 . S
C674 C75 1.543 . S
C690 C135 1.030 . S
C695 C390 1.029 . S
C711 C359 1.459 . S
C706 C303 1.502 . S
C727 C398 1.325 . S
C722 C38 1.393 . S
C743 C328 1.204 . S
C738 C82 1.248 . S
C759 C373 1.199 . S
C754 C128 1.267 . S
C770 C181 1.701 . S
C775 C381 1.637 . S
C786 C234 1.301 . S
C791 C342 1.263 . S
