# Generated by pormake.
# Topology nia, (6,6)-cn, num edge types: 1
# Building blocks:
#     Node 0, Type 0, BuildingBlock: HISSIN_clean_sbu_0, # of connection points: 6
#     Node 1, Type 0, BuildingBlock: HISSIN_clean_sbu_0, # of connection points: 6
#     Node 2, Type 1, BuildingBlock: MIDCAF_clean_sbu_0, # of connection points: 6
#     Node 3, Type 1, BuildingBlock: MIDCAF_clean_sbu_0, # of connection points: 6
#     Edge 4, Type (0, 1), BuildingBlock: FUNLAD_clean_linker_0, # of connection points: 2
#     Edge 5, Type (0, 1), BuildingBlock: FUNLAD_clean_linker_0, # of connection points: 2
#     Edge 6, Type (0, 1), BuildingBlock: FUNLAD_clean_linker_0, # of connection points: 2
#     Edge 7, Type (0, 1), BuildingBlock: FUNLAD_clean_linker_0, # of connection points: 2
#     Edge 8, Type (0, 1), BuildingBlock: FUNLAD_clean_linker_0, # of connection points: 2
#     Edge 9, Type (0, 1), BuildingBlock: FUNLAD_clean_linker_0, # of connection points: 2
#     Edge 10, Type (0, 1), BuildingBlock: FUNLAD_clean_linker_0, # of connection points: 2
#     Edge 11, Type (0, 1), BuildingBlock: FUNLAD_clean_linker_0, # of connection points: 2
#     Edge 12, Type (0, 1), BuildingBlock: FUNLAD_clean_linker_0, # of connection points: 2
#     Edge 13, Type (0, 1), BuildingBlock: FUNLAD_clean_linker_0, # of connection points: 2
#     Edge 14, Type (0, 1), BuildingBlock: FUNLAD_clean_linker_0, # of connection points: 2
#     Edge 15, Type (0, 1), BuildingBlock: FUNLAD_clean_linker_0, # of connection points: 2
# Relax obj value: 0.330
# Max RMSD: 0.260
# Mean RMSD: 0.247
data_MOF--net-nia--node1-HISSIN_clean_sbu_0--node2-MIDCAF_clean_sbu_0--edge1-FUNLAD_clean_linker_0
_symmetry_space_group_name_H-M    P1
_symmetry_Int_Tables_number       1
_symmetry_cell_setting            triclinic
loop_
_symmetry_equiv_pos_as_xyz
'x, y, z'
_cell_length_a     29.345422
_cell_length_b     29.398168
_cell_length_c     38.203555
_cell_angle_alpha  82.382536
_cell_angle_beta   82.432257
_cell_angle_gamma 117.63023
loop_
_atom_site_label
_atom_site_type_symbol
_atom_site_fract_x
_atom_site_fract_y
_atom_site_fract_z
_atom_type_partial_charge
Eu0 Eu 0.02929 0.05999 0.04191 0.0
Eu1 Eu 0.98128 0.96548 0.99902 0.0
C2 C 0.10465 0.05607 0.973 0.0
C3 C 0.05679 0.16812 0.09631 0.0
C4 C 0.04091 0.20139 0.07834 0.0
C5 C 0.05643 0.206 0.14872 0.0
C6 C 0.03381 0.23764 0.09541 0.0
C7 C 0.06358 0.17012 0.13172 0.0
C8 C 0.04223 0.24075 0.13064 0.0
C9 C 0.06863 0.13221 0.07884 0.0
O10 O 0.03671 0.95082 0.0279 0.0
O11 O 0.02783 0.98901 0.07439 0.0
C12 C 0.04143 0.95737 0.0607 0.0
O13 O 0.94137 0.02516 0.06046 0.0
O14 O 0.96342 0.93576 0.95033 0.0
O15 O 0.93802 0.88122 1.00229 0.0
O16 O 0.91738 0.94342 0.04939 0.0
C17 C 0.90607 0.97538 0.06507 0.0
O18 O 0.00258 0.09376 0.99741 0.0
O19 O 0.95014 0.01847 0.97903 0.0
O20 O 0.06263 0.02205 0.96321 0.0
O21 O 0.03917 0.08223 0.09361 0.0
O22 O 0.07964 0.14189 0.04352 0.0
O23 O 0.10087 0.06935 1.00434 0.0
C24 C 0.96094 0.85449 0.95009 0.0
C25 C 0.9863 0.83062 0.96746 0.0
C26 C 0.9639 0.8124 0.90016 0.0
C27 C 0.99905 0.79663 0.95161 0.0
C28 C 0.95082 0.84594 0.91609 0.0
C29 C 0.98714 0.78654 0.91808 0.0
C30 C 0.94289 0.88678 0.9673 0.0
C31 C 0.96791 0.06856 0.97865 0.0
H32 H 0.03506 0.20014 0.051 0.0
H33 H 0.06453 0.20808 0.17548 0.0
H34 H 0.02272 0.2638 0.08086 0.0
H35 H 0.07593 0.1448 0.14594 0.0
H36 H 0.99508 0.83714 0.9936 0.0
H37 H 0.95333 0.80469 0.87461 0.0
H38 H 0.01709 0.77732 0.96592 0.0
H39 H 0.93136 0.86407 0.9023 0.0
Eu40 Eu 0.94837 0.995 0.50582 0.0
Eu41 Eu 0.0481 0.03471 0.54403 0.0
C42 C 0.95372 0.91655 0.57027 0.0
C43 C 0.83 0.97896 0.46629 0.0
C44 C 0.79785 0.98877 0.49138 0.0
C45 C 0.78565 0.99173 0.41996 0.0
C46 C 0.75838 -0.0021 0.48107 0.0
C47 C 0.82475 0.98229 0.43031 0.0
C48 C 0.75077 -0.0024 0.44555 0.0
C49 C 0.86585 0.9608 0.47756 0.0
O50 O 0.07515 0.01028 0.49494 0.0
O51 O 0.99373 0.95658 0.48492 0.0
C52 C 0.04478 0.97441 0.47879 0.0
O53 O 0.00598 0.07516 0.47036 0.0
O54 O 0.07604 0.03491 0.59412 0.0
O55 O 0.13124 0.08344 0.54334 0.0
O56 O 0.05981 0.10983 0.50919 0.0
C57 C 0.04323 0.11553 0.47939 0.0
O58 O 0.93911 0.05048 0.53724 0.0
O59 O 0.9839 0.04116 0.5796 0.0
O60 O 0.00532 0.94563 0.5623 0.0
O61 O 0.91398 0.9847 0.4582 0.0
O62 O 0.86357 0.95024 0.51218 0.0
O63 O 0.92458 0.93489 0.55769 0.0
C64 C 0.16541 0.05566 0.58998 0.0
C65 C 0.21447 0.0742 0.56658 0.0
C66 C 0.19961 0.03294 0.6401 0.0
C67 C 0.25621 0.07393 0.58011 0.0
C68 C 0.15786 0.03341 0.62661 0.0
C69 C 0.24962 0.05525 0.61721 0.0
C70 C 0.12522 0.06677 0.57793 0.0
C71 C 0.95019 0.05473 0.56913 0.0
H72 H 0.8015 0.98706 0.51931 0.0
H73 H 0.78032 0.99036 0.39253 0.0
H74 H 0.73219 0.00254 0.50126 0.0
H75 H 0.84916 0.9749 0.41056 0.0
H76 H 0.22163 0.09172 0.53825 0.0
H77 H 0.19379 0.01882 0.66888 0.0
H78 H 0.2945 0.09109 0.56196 0.0
H79 H 0.12059 0.01929 0.64533 0.0
Zn80 Zn 0.33515 0.71818 0.20523 0.0
Zn81 Zn 0.2841 0.68494 0.34513 0.0
Zn82 Zn 0.31483 0.70889 0.27545 0.0
C83 C 0.39657 0.74919 0.32366 0.0
C84 C 0.2475 0.58856 0.33301 0.0
O85 O 0.27486 0.75105 0.25361 0.0
O86 O 0.28762 0.74726 0.19592 0.0
C87 C 0.43378 0.77203 0.22086 0.0
O88 O 0.389 0.74826 0.29133 0.0
O89 O 0.35824 0.7235 0.35066 0.0
O90 O 0.2452 0.60788 0.36027 0.0
O91 O 0.27112 0.61966 0.30128 0.0
O92 O 0.41242 0.76562 0.19399 0.0
O93 O 0.40445 0.75264 0.25332 0.0
O94 O 0.27772 0.63106 0.26317 0.0
O95 O 0.30729 0.64243 0.2045 0.0
C96 C 0.27947 0.61231 0.23471 0.0
O97 O 0.27141 0.75214 0.29112 0.0
O98 O 0.24323 0.72202 0.35043 0.0
C99 C 0.26702 0.75954 0.22156 0.0
C100 C 0.24645 0.75139 0.32191 0.0
Zn101 Zn 0.67629 0.31018 0.8443 0.0
Zn102 Zn 0.76067 0.3685 0.68104 0.0
Zn103 Zn 0.69781 0.32556 0.77608 0.0
C104 C 0.75816 0.448 0.72 0.0
C105 C 0.65941 0.29159 0.7011 0.0
O106 O 0.73178 0.27813 0.79858 0.0
O107 O 0.68987 0.25017 0.85573 0.0
C108 C 0.76091 0.41301 0.81587 0.0
O109 O 0.74112 0.41449 0.75098 0.0
O110 O 0.76244 0.43478 0.68997 0.0
O111 O 0.69266 0.31261 0.67121 0.0
O112 O 0.67424 0.30468 0.72961 0.0
O113 O 0.73644 0.3795 0.84538 0.0
O114 O 0.74872 0.40185 0.78582 0.0
O115 O 0.61025 0.29032 0.79613 0.0
O116 O 0.60265 0.29756 0.85285 0.0
C117 C 0.58149 0.28551 0.82633 0.0
O118 O 0.73216 0.2787 0.75508 0.0
O119 O 0.79733 0.34552 0.71488 0.0
C120 C 0.72189 0.25004 0.83021 0.0
C121 C 0.77296 0.29688 0.72913 0.0
C122 C 0.07087 0.93687 0.11698 0.0
C123 C 0.06342 0.92948 0.08208 0.0
C124 C 0.09316 0.91153 0.13648 0.0
C125 C 0.10868 0.87831 0.12137 0.0
C126 C 0.10049 0.87064 0.08668 0.0
C127 C 0.07825 0.89579 0.06731 0.0
C128 C 0.13331 0.85047 0.14011 0.0
C129 C 0.14772 0.85613 0.17217 0.0
C130 C 0.17402 0.82801 0.18821 0.0
C131 C 0.20811 0.85015 0.21132 0.0
C132 C 0.23688 0.82678 0.22396 0.0
C133 C 0.23175 0.7808 0.21377 0.0
H134 H 0.13888 0.75999 0.16407 0.0
C135 C 0.19562 0.75718 0.1924 0.0
C136 C 0.1666 0.77999 0.18017 0.0
H137 H 0.19044 0.72125 0.18458 0.0
H138 H 0.05975 0.96247 0.12923 0.0
H139 H 0.09796 0.9183 0.16319 0.0
H140 H 0.11166 0.84517 0.07425 0.0
H141 H 0.07304 0.88897 0.04058 0.0
H142 H 0.14178 0.82502 0.12555 0.0
H143 H 0.14319 0.884 0.18618 0.0
H144 H 0.21414 0.88672 0.21841 0.0
H145 H 0.26511 0.84613 0.23991 0.0
C146 C 0.338 0.11906 0.62426 0.0
C147 C 0.29619 0.06715 0.63282 0.0
C148 C 0.38031 0.13276 0.64099 0.0
C149 C 0.38185 0.09477 0.66652 0.0
C150 C 0.34105 0.04244 0.67436 0.0
C151 C 0.29787 0.0288 0.658 0.0
C152 C 0.42727 0.11023 0.68379 0.0
C153 C 0.44647 0.15515 0.69564 0.0
C154 C 0.50026 0.18272 0.70195 0.0
C155 C 0.51158 0.22035 0.72326 0.0
C156 C 0.5636 0.25461 0.72401 0.0
C157 C 0.60498 0.25218 0.70302 0.0
H158 H 0.53464 0.15117 0.66475 0.0
C159 C 0.59393 0.21361 0.6826 0.0
C160 C 0.54184 0.17877 0.68224 0.0
H161 H 0.62558 0.21126 0.66629 0.0
H162 H 0.3373 0.1495 0.60531 0.0
H163 H 0.41201 0.1732 0.63386 0.0
H164 H 0.34202 0.01259 0.69369 0.0
H165 H 0.26586 0.98855 0.66501 0.0
H166 H 0.44678 0.0866 0.68443 0.0
H167 H 0.42344 0.17534 0.69762 0.0
H168 H 0.48028 0.22473 0.73813 0.0
H169 H 0.57152 0.28495 0.73927 0.0
C170 C 0.02551 0.27405 0.18516 0.0
C171 C 0.04252 0.28348 0.14744 0.0
C172 C 0.03974 0.31596 0.20247 0.0
C173 C 0.06988 0.36779 0.18219 0.0
C174 C 0.08122 0.37745 0.1443 0.0
C175 C 0.06801 0.33551 0.12696 0.0
C176 C 0.09712 0.41123 0.2 0.0
C177 C 0.13043 0.40919 0.22035 0.0
C178 C 0.16956 0.45724 0.22912 0.0
C179 C 0.15371 0.48446 0.25076 0.0
C180 C 0.19075 0.53374 0.25473 0.0
C181 C 0.2436 0.55673 0.23628 0.0
H182 H 0.23557 0.45774 0.19592 0.0
C183 C 0.25973 0.52848 0.21582 0.0
C184 C 0.22294 0.47847 0.21278 0.0
H185 H 0.30032 0.54572 0.20134 0.0
H186 H 0.00448 0.23432 0.20155 0.0
H187 H 0.03005 0.30793 0.23178 0.0
H188 H 0.1045 0.41738 0.12829 0.0
H189 H 0.0818 0.34417 0.09789 0.0
H190 H 0.09751 0.44819 0.1913 0.0
H191 H 0.13516 0.37446 0.22504 0.0
H192 H 0.11257 0.46837 0.26356 0.0
H193 H 0.17749 0.5552 0.27039 0.0
C194 C 0.88386 0.08454 0.58406 0.0
C195 C 0.92307 0.07396 0.59395 0.0
C196 C 0.85859 0.10327 0.607 0.0
C197 C 0.87218 0.1124 0.64039 0.0
C198 C 0.91018 0.10032 0.65079 0.0
C199 C 0.93552 0.08152 0.6278 0.0
C200 C 0.84838 0.13562 0.66438 0.0
C201 C 0.83272 0.1695 0.651 0.0
C202 C 0.81633 0.19987 0.6728 0.0
C203 C 0.8292 0.25078 0.6558 0.0
C204 C 0.81527 0.28158 0.6745 0.0
C205 C 0.78675 0.26201 0.71069 0.0
H206 H 0.77595 0.13988 0.72258 0.0
C207 C 0.77205 0.2102 0.72764 0.0
C208 C 0.78746 0.17955 0.70899 0.0
H209 H 0.74922 0.19363 0.75522 0.0
H210 H 0.87253 0.07836 0.5585 0.0
H211 H 0.82825 0.1103 0.59847 0.0
H212 H 0.9212 0.10656 0.67643 0.0
H213 H 0.9652 0.0734 0.63646 0.0
H214 H 0.84859 0.12881 0.693 0.0
H215 H 0.83756 0.18022 0.62189 0.0
H216 H 0.85087 0.26725 0.62788 0.0
H217 H 0.82649 0.32087 0.66019 0.0
C218 C 0.8151 0.90147 0.09882 0.0
C219 C 0.85221 0.95562 0.08799 0.0
C220 C 0.76421 0.88386 0.11962 0.0
C221 C 0.74896 0.92006 0.1298 0.0
C222 C 0.78616 0.97397 0.11904 0.0
C223 C 0.837 0.99145 0.09881 0.0
C224 C 0.69379 0.90407 0.14869 0.0
C225 C 0.65934 0.85676 0.17104 0.0
C226 C 0.60295 0.84077 0.18705 0.0
C227 C 0.57504 0.80105 0.21896 0.0
C228 C 0.52061 0.78127 0.23209 0.0
C229 C 0.49262 0.80005 0.21311 0.0
H230 H 0.5943 0.89094 0.14434 0.0
C231 C 0.52092 0.84105 0.18206 0.0
C232 C 0.57513 0.86127 0.1693 0.0
H233 H 0.50052 0.85616 0.16661 0.0
H234 H 0.8252 0.87263 0.091 0.0
H235 H 0.73645 0.84208 0.12664 0.0
H236 H 0.77572 0.00296 0.12609 0.0
H237 H 0.86409 0.03341 0.09103 0.0
H238 H 0.68163 0.93371 0.14444 0.0
H239 H 0.67273 0.82866 0.17808 0.0
H240 H 0.5951 0.78418 0.23323 0.0
H241 H 0.49992 0.74923 0.25576 0.0
C242 C 0.95532 0.83984 0.60849 0.0
C243 C 0.92699 0.86187 0.59308 0.0
C244 C 0.92921 0.78751 0.62875 0.0
C245 C 0.87404 0.75595 0.63399 0.0
C246 C 0.84606 0.77838 0.61876 0.0
C247 C 0.87193 0.8304 0.59884 0.0
C248 C 0.84394 0.69888 0.65295 0.0
C249 C 0.86116 0.67427 0.67588 0.0
C250 C 0.83119 0.61621 0.69244 0.0
C251 C 0.85893 0.59131 0.70471 0.0
C252 C 0.83385 0.53642 0.71669 0.0
C253 C 0.78 0.50513 0.71771 0.0
H254 H 0.75285 0.60205 0.68735 0.0
C255 C 0.75141 0.5299 0.70737 0.0
C256 C 0.77647 0.58482 0.69523 0.0
H257 H 0.71012 0.50652 0.70707 0.0
H258 H 0.99776 0.86276 0.60455 0.0
H259 H 0.95265 0.77175 0.6393 0.0
H260 H 0.80372 0.75535 0.62203 0.0
H261 H 0.84851 0.8456 0.58747 0.0
H262 H 0.80554 0.67616 0.64705 0.0
H263 H 0.89976 0.6967 0.68161 0.0
H264 H 0.90085 0.61409 0.70334 0.0
H265 H 0.85713 0.51816 0.72356 0.0
C266 C 0.12084 0.96512 0.44742 0.0
C267 C 0.06738 0.95201 0.45335 0.0
C268 C 0.14043 0.94182 0.42416 0.0
C269 C 0.10689 0.90507 0.40624 0.0
C270 C 0.05392 0.89296 0.4118 0.0
C271 C 0.03449 0.91607 0.43484 0.0
C272 C 0.12345 0.87479 0.38415 0.0
C273 C 0.17376 0.88829 0.36979 0.0
C274 C 0.18818 0.85294 0.35197 0.0
C275 C 0.23772 0.87416 0.3283 0.0
C276 C 0.25516 0.84111 0.31531 0.0
C277 C 0.22344 0.7862 0.32594 0.0
H278 H 0.11788 0.77936 0.37992 0.0
C279 C 0.17312 0.76504 0.34822 0.0
C280 C 0.1556 0.79783 0.36103 0.0
H281 H 0.14844 0.72279 0.35754 0.0
H282 H 0.14731 0.99259 0.46123 0.0
H283 H 0.18127 0.9515 0.42127 0.0
H284 H 0.02698 0.86474 0.39862 0.0
H285 H 0.9932 0.90508 0.43838 0.0
H286 H 0.09184 0.83924 0.37948 0.0
H287 H 0.20562 0.92599 0.37138 0.0
H288 H 0.26392 0.91633 0.32106 0.0
H289 H 0.2948 0.85837 0.2991 0.0
C290 C 0.2021 0.12124 0.95698 0.0
C291 C 0.15835 0.07996 0.94867 0.0
C292 C 0.25283 0.14359 0.93501 0.0
C293 C 0.26178 0.12551 0.9038 0.0
C294 C 0.21817 0.08389 0.89562 0.0
C295 C 0.16712 0.06172 0.91752 0.0
C296 C 0.31635 0.14736 0.88075 0.0
C297 C 0.35561 0.19708 0.87797 0.0
C298 C 0.41269 0.22045 0.85926 0.0
C299 C 0.44842 0.27001 0.86449 0.0
C300 C 0.50275 0.29217 0.85152 0.0
C301 C 0.52361 0.2662 0.83211 0.0
H302 H 0.40742 0.1573 0.83308 0.0
C303 C 0.48817 0.21804 0.82469 0.0
C304 C 0.4332 0.19517 0.83828 0.0
H305 H 0.50305 0.19666 0.81024 0.0
H306 H 0.19735 0.13634 0.98075 0.0
H307 H 0.28513 0.17418 0.94327 0.0
H308 H 0.22357 0.06849 0.87212 0.0
H309 H 0.13467 0.02983 0.91027 0.0
H310 H 0.32388 0.12148 0.86612 0.0
H311 H 0.3459 0.22266 0.89154 0.0
H312 H 0.43447 0.29102 0.88015 0.0
H313 H 0.52886 0.32913 0.8579 0.0
C314 C 0.11424 0.21111 0.45738 0.0
C315 C 0.0651 0.16926 0.45605 0.0
C316 C 0.13354 0.26189 0.4361 0.0
C317 C 0.10365 0.27224 0.41348 0.0
C318 C 0.05472 0.23038 0.41216 0.0
C319 C 0.03604 0.17953 0.43271 0.0
C320 C 0.11968 0.32677 0.39379 0.0
C321 C 0.17017 0.36482 0.37955 0.0
C322 C 0.18548 0.42061 0.36319 0.0
C323 C 0.23234 0.4522 0.3365 0.0
C324 C 0.25079 0.50637 0.3242 0.0
C325 C 0.22337 0.53029 0.33905 0.0
H326 H 0.12103 0.42187 0.3974 0.0
C327 C 0.17562 0.49837 0.36469 0.0
C328 C 0.15669 0.4443 0.3764 0.0
H329 H 0.15378 0.51573 0.37683 0.0
H330 H 0.13771 0.20469 0.47502 0.0
H331 H 0.1709 0.29336 0.43842 0.0
H332 H 0.03053 0.23714 0.39533 0.0
H333 H 0.99795 0.14851 0.43106 0.0
H334 H 0.08812 0.3354 0.39037 0.0
H335 H 0.20152 0.35493 0.37984 0.0
H336 H 0.25555 0.43523 0.32588 0.0
H337 H 0.28802 0.53002 0.30476 0.0
C338 C 0.92188 0.07688 0.92938 0.0
C339 C 0.94538 0.09626 0.95785 0.0
C340 C 0.89638 0.09993 0.91168 0.0
C341 C 0.89327 0.14253 0.92241 0.0
C342 C 0.91756 0.16245 0.95041 0.0
C343 C 0.94392 0.14002 0.96767 0.0
C344 C 0.86083 0.16357 0.90747 0.0
C345 C 0.85204 0.16334 0.87369 0.0
C346 C 0.81641 0.18186 0.86118 0.0
C347 C 0.82987 0.21235 0.82606 0.0
C348 C 0.79821 0.23308 0.81513 0.0
C349 C 0.75171 0.22232 0.83883 0.0
H350 H 0.75667 0.14461 0.91113 0.0
C351 C 0.73689 0.18912 0.87318 0.0
C352 C 0.76891 0.16936 0.88427 0.0
H353 H 0.7012 0.17963 0.89211 0.0
H354 H 0.92236 0.0432 0.92116 0.0
H355 H 0.8772 0.08282 0.89075 0.0
H356 H 0.91537 0.19497 0.9594 0.0
H357 H 0.96128 0.15562 0.98966 0.0
H358 H 0.84392 0.18066 0.92506 0.0
H359 H 0.87277 0.15147 0.85445 0.0
H360 H 0.86606 0.22205 0.80764 0.0
H361 H 0.81131 0.25918 0.78877 0.0
C362 C 0.70231 0.0163 0.40169 0.0
C363 C 0.70162 0.99304 0.43648 0.0
C364 C 0.65636 0.99715 0.38842 0.0
C365 C 0.60927 0.95471 0.40995 0.0
C366 C 0.607 0.93714 0.44641 0.0
C367 C 0.65297 0.95595 0.4596 0.0
C368 C 0.56491 0.92235 0.39414 0.0
C369 C 0.57288 0.91232 0.36115 0.0
C370 C 0.53141 0.86795 0.35005 0.0
C371 C 0.52503 0.87316 0.31427 0.0
C372 C 0.48308 0.8326 0.30449 0.0
C373 C 0.44784 0.78604 0.3303 0.0
H374 H 0.50436 0.8139 0.40231 0.0
C375 C 0.45737 0.77928 0.36516 0.0
C376 C 0.49869 0.81986 0.37497 0.0
H377 H 0.43127 0.74351 0.38547 0.0
H378 H 0.73915 0.04603 0.3837 0.0
H379 H 0.65861 0.01298 0.3606 0.0
H380 H 0.57081 0.90496 0.46365 0.0
H381 H 0.65106 0.93731 0.4866 0.0
H382 H 0.5261 0.8994 0.41213 0.0
H383 H 0.61122 0.93461 0.34265 0.0
H384 H 0.55075 0.90958 0.29446 0.0
H385 H 0.47635 0.8392 0.27757 0.0
C386 C 0.00886 0.75111 0.86618 0.0
C387 C 0.99237 0.74457 0.9036 0.0
C388 C 1.00029 0.70763 0.85142 0.0
C389 C 0.97486 0.65699 0.87395 0.0
C390 C 0.96435 0.65144 0.91162 0.0
C391 C 0.97278 0.69489 0.92639 0.0
C392 C 0.9518 0.60908 0.85921 0.0
C393 C 0.92919 0.6077 0.83057 0.0
C394 C 0.8899 0.55791 0.82296 0.0
C395 C 0.84945 0.558 0.80693 0.0
C396 C 0.80756 0.51081 0.80384 0.0
C397 C 0.80616 0.46315 0.8162 0.0
H398 H 0.9206 0.50852 0.84526 0.0
C399 C 0.84746 0.46299 0.8308 0.0
C400 C 0.88935 0.51003 0.83385 0.0
H401 H 0.847 0.4263 0.8402 0.0
H402 H 0.02536 0.78931 0.84813 0.0
H403 H 0.0107 0.7133 0.82231 0.0
H404 H 0.94529 0.61281 0.92953 0.0
H405 H 0.95974 0.68863 0.95535 0.0
H406 H 0.9443 0.57267 0.8763 0.0
H407 H 0.93272 0.64383 0.8158 0.0
H408 H 0.84901 0.59439 0.79825 0.0
H409 H 0.77546 0.51136 0.79303 0.0
loop_
_geom_bond_atom_site_label_1
_geom_bond_atom_site_label_2
_geom_bond_distance
_geom_bond_site_symmetry_2
_ccdc_geom_bond_type
Eu0 C9 2.828 . S
Eu0 O11 2.392 1_545 S
Eu0 O13 2.418 1_455 S
Eu0 O18 2.373 1_455 S
Eu0 O21 2.488 . S
Eu0 O22 2.471 . S
Eu0 O23 2.349 1_554 S
Eu1 O10 2.373 1_656 S
Eu1 O14 2.488 1_655 S
Eu1 O15 2.471 . S
Eu1 O16 2.349 1_556 S
Eu1 O19 2.392 1_565 S
Eu1 O20 2.418 1_665 S
Eu1 C30 2.828 . S
C2 O20 1.244 . S
C2 O23 1.265 . S
C3 C4 1.379 . S
C3 C7 1.373 . S
C3 C9 1.505 . S
C4 C3 1.379 . S
C4 C6 1.369 . S
C4 H32 0.930 . S
C5 C7 1.383 . S
C5 C8 1.382 . S
C5 H33 0.930 . S
C6 C4 1.369 . S
C6 C8 1.392 . S
C6 H34 0.930 . S
C7 C3 1.373 . S
C7 C5 1.383 . S
C7 H35 0.931 . S
C8 C5 1.382 . S
C8 C6 1.392 . S
C9 Eu0 2.828 . S
C9 C3 1.505 . S
C9 O21 1.249 . S
C9 O22 1.244 . S
O10 Eu1 2.373 1_454 S
O10 C12 1.258 . S
O11 Eu0 2.392 1_565 S
O11 C12 1.242 . S
C12 O10 1.258 . S
C12 O11 1.242 . S
O13 Eu0 2.418 1_655 S
O13 C17 1.244 1_545 S
O14 Eu1 2.488 1_455 S
O14 C30 1.249 1_455 S
O15 Eu1 2.471 . S
O15 C30 1.244 . S
O16 Eu1 2.349 1_554 S
O16 C17 1.265 . S
C17 O13 1.244 1_565 S
C17 O16 1.265 . S
O18 Eu0 2.373 1_655 S
O18 C31 1.258 1_554 S
O19 Eu1 2.392 1_545 S
O19 C31 1.242 . S
O20 Eu1 2.418 1_445 S
O20 C2 1.244 . S
O21 Eu0 2.488 . S
O21 C9 1.249 . S
O22 Eu0 2.471 . S
O22 C9 1.244 . S
O23 Eu0 2.349 1_556 S
O23 C2 1.265 . S
C24 C25 1.379 . S
C24 C28 1.373 . S
C24 C30 1.505 . S
C25 C24 1.379 . S
C25 C27 1.369 . S
C25 H36 0.930 1_556 S
C26 C28 1.383 . S
C26 C29 1.382 . S
C26 H37 0.930 . S
C27 C25 1.369 . S
C27 C29 1.392 . S
C27 H38 0.930 1_556 S
C28 C24 1.373 . S
C28 C26 1.383 . S
C28 H39 0.938 . S
C29 C26 1.382 . S
C29 C27 1.392 . S
C30 Eu1 2.828 . S
C30 O14 1.249 1_655 S
C30 O15 1.244 . S
C30 C24 1.505 . S
C31 O18 1.258 1_556 S
C31 O19 1.242 . S
H32 C4 0.930 . S
H33 C5 0.930 . S
H34 C6 0.930 . S
H35 C7 0.931 . S
H36 C25 0.930 1_554 S
H37 C26 0.930 . S
H38 C27 0.930 1_554 S
H39 C28 0.938 . S
Eu40 C49 2.828 . S
Eu40 O51 2.391 1_655 S
Eu40 O53 2.420 1_665 S
Eu40 O58 2.375 1_565 S
Eu40 O61 2.490 1_565 S
Eu40 O62 2.471 . S
Eu40 O63 2.348 . S
Eu41 O50 2.373 . S
Eu41 O54 2.488 . S
Eu41 O55 2.471 . S
Eu41 O56 2.349 . S
Eu41 O59 2.392 1_455 S
Eu41 O60 2.418 1_445 S
Eu41 C70 2.828 . S
C42 O60 1.244 . S
C42 O63 1.265 . S
C43 C44 1.379 . S
C43 C47 1.373 . S
C43 C49 1.505 . S
C44 C43 1.379 . S
C44 C46 1.369 . S
C44 H72 0.930 . S
C45 C47 1.383 . S
C45 C48 1.382 . S
C45 H73 0.930 . S
C46 C44 1.369 . S
C46 C48 1.392 . S
C46 H74 0.930 . S
C47 C43 1.373 . S
C47 C45 1.383 . S
C47 H75 0.931 1_565 S
C48 C45 1.382 . S
C48 C46 1.392 . S
C49 Eu40 2.828 . S
C49 C43 1.505 . S
C49 O61 1.249 1_565 S
C49 O62 1.244 . S
O50 Eu41 2.373 . S
O50 C52 1.258 1_545 S
O51 Eu40 2.391 1_455 S
O51 C52 1.242 . S
C52 O50 1.258 1_565 S
C52 O51 1.242 . S
O53 Eu40 2.420 1_445 S
O53 C57 1.244 . S
O54 Eu41 2.488 . S
O54 C70 1.249 . S
O55 Eu41 2.471 . S
O55 C70 1.244 . S
O56 Eu41 2.349 . S
O56 C57 1.265 . S
C57 O53 1.244 . S
C57 O56 1.265 . S
O58 Eu40 2.375 1_545 S
O58 C71 1.258 . S
O59 Eu41 2.392 1_655 S
O59 C71 1.242 . S
O60 Eu41 2.418 1_665 S
O60 C42 1.244 . S
O61 Eu40 2.490 1_545 S
O61 C49 1.249 1_545 S
O62 Eu40 2.471 . S
O62 C49 1.244 . S
O63 Eu40 2.348 . S
O63 C42 1.265 . S
C64 C65 1.379 . S
C64 C68 1.373 . S
C64 C70 1.505 . S
C65 C64 1.379 . S
C65 C67 1.369 . S
C65 H76 0.930 . S
C66 C68 1.383 . S
C66 C69 1.382 . S
C66 H77 0.930 . S
C67 C65 1.369 . S
C67 C69 1.392 . S
C67 H78 0.930 . S
C68 C64 1.373 . S
C68 C66 1.383 . S
C68 H79 0.931 . S
C69 C66 1.382 . S
C69 C67 1.392 . S
C70 Eu41 2.828 . S
C70 O54 1.249 . S
C70 O55 1.244 . S
C70 C64 1.505 . S
C71 O58 1.258 . S
C71 O59 1.242 . S
H72 C44 0.930 . S
H73 C45 0.930 . S
H74 C46 0.930 . S
H75 C47 0.931 1_545 S
H76 C65 0.930 . S
H77 C66 0.930 . S
H78 C67 0.930 . S
H79 C68 0.931 . S
Zn80 O86 1.920 . S
Zn80 O92 1.898 . S
Zn80 O95 1.905 . S
Zn81 O89 1.905 . S
Zn81 O90 1.898 . S
Zn81 O98 1.920 . S
Zn82 O85 2.080 . S
Zn82 O88 2.114 . S
Zn82 O91 2.120 . S
Zn82 O93 2.120 . S
Zn82 O94 2.114 . S
Zn82 O97 2.080 . S
C83 O88 1.166 . S
C83 O89 1.182 . S
C84 O90 1.167 . S
C84 O91 1.299 . S
O85 Zn82 2.080 . S
O85 C99 1.305 . S
O86 Zn80 1.920 . S
O86 C99 1.234 . S
C87 O92 1.167 . S
C87 O93 1.299 . S
O88 Zn82 2.114 . S
O88 C83 1.166 . S
O89 Zn81 1.905 . S
O89 C83 1.182 . S
O90 Zn81 1.898 . S
O90 C84 1.167 . S
O91 Zn82 2.120 . S
O91 C84 1.299 . S
O92 Zn80 1.898 . S
O92 C87 1.167 . S
O93 Zn82 2.120 . S
O93 C87 1.299 . S
O94 Zn82 2.114 . S
O94 C96 1.166 . S
O95 Zn80 1.905 . S
O95 C96 1.182 . S
C96 O94 1.166 . S
C96 O95 1.182 . S
O97 Zn82 2.080 . S
O97 C100 1.305 . S
O98 Zn81 1.920 . S
O98 C100 1.234 . S
C99 O85 1.305 . S
C99 O86 1.234 . S
C100 O97 1.305 . S
C100 O98 1.234 . S
Zn101 O107 1.920 . S
Zn101 O113 1.898 . S
Zn101 O116 1.905 . S
Zn102 O110 1.905 . S
Zn102 O111 1.898 . S
Zn102 O119 1.920 . S
Zn103 O106 2.080 . S
Zn103 O109 2.114 . S
Zn103 O112 2.120 . S
Zn103 O114 2.120 . S
Zn103 O115 2.114 . S
Zn103 O118 2.080 . S
C104 O109 1.166 . S
C104 O110 1.182 . S
C105 O111 1.167 . S
C105 O112 1.299 . S
O106 Zn103 2.080 . S
O106 C120 1.305 . S
O107 Zn101 1.920 . S
O107 C120 1.234 . S
C108 O113 1.167 . S
C108 O114 1.299 . S
O109 Zn103 2.114 . S
O109 C104 1.166 . S
O110 Zn102 1.905 . S
O110 C104 1.182 . S
O111 Zn102 1.898 . S
O111 C105 1.167 . S
O112 Zn103 2.120 . S
O112 C105 1.299 . S
O113 Zn101 1.898 . S
O113 C108 1.167 . S
O114 Zn103 2.120 . S
O114 C108 1.299 . S
O115 Zn103 2.114 . S
O115 C117 1.166 . S
O116 Zn101 1.905 . S
O116 C117 1.182 . S
C117 O115 1.166 . S
C117 O116 1.182 . S
O118 Zn103 2.080 . S
O118 C121 1.305 . S
O119 Zn102 1.920 . S
O119 C121 1.234 . S
C120 O106 1.305 . S
C120 O107 1.234 . S
C121 O118 1.305 . S
C121 O119 1.234 . S
C122 C123 1.386 . S
C122 C124 1.383 . S
C122 H138 0.951 . S
C123 C122 1.386 . S
C123 C127 1.383 . S
C124 C122 1.383 . S
C124 C125 1.402 . S
C124 H139 0.951 . S
C125 C124 1.402 . S
C125 C126 1.375 . S
C125 C128 1.481 . S
C126 C125 1.375 . S
C126 C127 1.367 . S
C126 H140 0.951 . S
C127 C123 1.383 . S
C127 C126 1.367 . S
C127 H141 0.950 . S
C128 C125 1.481 . S
C128 C129 1.297 . S
C128 H142 0.950 . S
C129 C128 1.297 . S
C129 C130 1.479 . S
C129 H143 0.950 . S
C130 C129 1.479 . S
C130 C131 1.375 . S
C130 C136 1.404 . S
C131 C130 1.375 . S
C131 C132 1.369 . S
C131 H144 0.950 . S
C132 C131 1.369 . S
C132 C133 1.392 . S
C132 H145 0.951 . S
C133 C132 1.392 . S
C133 C135 1.384 . S
H134 C136 0.949 . S
C135 C133 1.384 . S
C135 C136 1.385 . S
C135 H137 0.950 . S
C136 C130 1.404 . S
C136 H134 0.949 . S
C136 C135 1.385 . S
H137 C135 0.950 . S
H138 C122 0.951 . S
H139 C124 0.951 . S
H140 C126 0.951 . S
H141 C127 0.950 . S
H142 C128 0.950 . S
H143 C129 0.950 . S
H144 C131 0.950 . S
H145 C132 0.951 . S
C146 C147 1.386 . S
C146 C148 1.383 . S
C146 H162 0.951 . S
C147 C146 1.386 . S
C147 C151 1.383 . S
C148 C146 1.383 . S
C148 C149 1.402 . S
C148 H163 0.951 . S
C149 C148 1.402 . S
C149 C150 1.375 . S
C149 C152 1.481 . S
C150 C149 1.375 . S
C150 C151 1.367 . S
C150 H164 0.951 . S
C151 C147 1.383 . S
C151 C150 1.367 . S
C151 H165 0.950 . S
C152 C149 1.481 . S
C152 C153 1.297 . S
C152 H166 0.950 . S
C153 C152 1.297 . S
C153 C154 1.479 . S
C153 H167 0.950 . S
C154 C153 1.479 . S
C154 C155 1.375 . S
C154 C160 1.404 . S
C155 C154 1.375 . S
C155 C156 1.369 . S
C155 H168 0.950 . S
C156 C155 1.369 . S
C156 C157 1.392 . S
C156 H169 0.951 . S
C157 C156 1.392 . S
C157 C159 1.384 . S
H158 C160 0.949 . S
C159 C157 1.384 . S
C159 C160 1.385 . S
C159 H161 0.950 . S
C160 C154 1.404 . S
C160 H158 0.949 . S
C160 C159 1.385 . S
H161 C159 0.950 . S
H162 C146 0.951 . S
H163 C148 0.951 . S
H164 C150 0.951 . S
H165 C151 0.950 . S
H166 C152 0.950 . S
H167 C153 0.950 . S
H168 C155 0.950 . S
H169 C156 0.951 . S
C170 C171 1.386 . S
C170 C172 1.383 . S
C170 H186 0.951 . S
C171 C170 1.386 . S
C171 C175 1.383 . S
C172 C170 1.383 . S
C172 C173 1.402 . S
C172 H187 0.951 . S
C173 C172 1.402 . S
C173 C174 1.375 . S
C173 C176 1.481 . S
C174 C173 1.375 . S
C174 C175 1.367 . S
C174 H188 0.951 . S
C175 C171 1.383 . S
C175 C174 1.367 . S
C175 H189 0.950 . S
C176 C173 1.481 . S
C176 C177 1.297 . S
C176 H190 0.950 . S
C177 C176 1.297 . S
C177 C178 1.479 . S
C177 H191 0.950 . S
C178 C177 1.479 . S
C178 C179 1.375 . S
C178 C184 1.404 . S
C179 C178 1.375 . S
C179 C180 1.369 . S
C179 H192 0.950 . S
C180 C179 1.369 . S
C180 C181 1.392 . S
C180 H193 0.951 . S
C181 C180 1.392 . S
C181 C183 1.384 . S
H182 C184 0.949 . S
C183 C181 1.384 . S
C183 C184 1.385 . S
C183 H185 0.950 . S
C184 C178 1.404 . S
C184 H182 0.949 . S
C184 C183 1.385 . S
H185 C183 0.950 . S
H186 C170 0.951 . S
H187 C172 0.951 . S
H188 C174 0.951 . S
H189 C175 0.950 . S
H190 C176 0.950 . S
H191 C177 0.950 . S
H192 C179 0.950 . S
H193 C180 0.951 . S
C194 C195 1.386 . S
C194 C196 1.383 . S
C194 H210 0.951 . S
C195 C194 1.386 . S
C195 C199 1.383 . S
C196 C194 1.383 . S
C196 C197 1.402 . S
C196 H211 0.951 . S
C197 C196 1.402 . S
C197 C198 1.375 . S
C197 C200 1.481 . S
C198 C197 1.375 . S
C198 C199 1.367 . S
C198 H212 0.951 . S
C199 C195 1.383 . S
C199 C198 1.367 . S
C199 H213 0.950 . S
C200 C197 1.481 . S
C200 C201 1.297 . S
C200 H214 0.950 . S
C201 C200 1.297 . S
C201 C202 1.479 . S
C201 H215 0.950 . S
C202 C201 1.479 . S
C202 C203 1.375 . S
C202 C208 1.404 . S
C203 C202 1.375 . S
C203 C204 1.369 . S
C203 H216 0.950 . S
C204 C203 1.369 . S
C204 C205 1.392 . S
C204 H217 0.951 . S
C205 C204 1.392 . S
C205 C207 1.384 . S
H206 C208 0.949 . S
C207 C205 1.384 . S
C207 C208 1.385 . S
C207 H209 0.950 . S
C208 C202 1.404 . S
C208 H206 0.949 . S
C208 C207 1.385 . S
H209 C207 0.950 . S
H210 C194 0.951 . S
H211 C196 0.951 . S
H212 C198 0.951 . S
H213 C199 0.950 . S
H214 C200 0.950 . S
H215 C201 0.950 . S
H216 C203 0.950 . S
H217 C204 0.951 . S
C218 C219 1.386 . S
C218 C220 1.383 . S
C218 H234 0.951 . S
C219 C218 1.386 . S
C219 C223 1.383 . S
C220 C218 1.383 . S
C220 C221 1.402 . S
C220 H235 0.951 . S
C221 C220 1.402 . S
C221 C222 1.375 . S
C221 C224 1.481 . S
C222 C221 1.375 . S
C222 C223 1.367 . S
C222 H236 0.951 . S
C223 C219 1.383 . S
C223 C222 1.367 . S
C223 H237 0.950 1_565 S
C224 C221 1.481 . S
C224 C225 1.297 . S
C224 H238 0.950 . S
C225 C224 1.297 . S
C225 C226 1.479 . S
C225 H239 0.950 . S
C226 C225 1.479 . S
C226 C227 1.375 . S
C226 C232 1.404 . S
C227 C226 1.375 . S
C227 C228 1.369 . S
C227 H240 0.950 . S
C228 C227 1.369 . S
C228 C229 1.392 . S
C228 H241 0.951 . S
C229 C228 1.392 . S
C229 C231 1.384 . S
H230 C232 0.949 . S
C231 C229 1.384 . S
C231 C232 1.385 . S
C231 H233 0.950 . S
C232 C226 1.404 . S
C232 H230 0.949 . S
C232 C231 1.385 . S
H233 C231 0.950 . S
H234 C218 0.951 . S
H235 C220 0.951 . S
H236 C222 0.951 . S
H237 C223 0.950 1_545 S
H238 C224 0.950 . S
H239 C225 0.950 . S
H240 C227 0.950 . S
H241 C228 0.951 . S
C242 C243 1.386 . S
C242 C244 1.383 . S
C242 H258 0.951 . S
C243 C242 1.386 . S
C243 C247 1.383 . S
C244 C242 1.383 . S
C244 C245 1.402 . S
C244 H259 0.951 . S
C245 C244 1.402 . S
C245 C246 1.375 . S
C245 C248 1.481 . S
C246 C245 1.375 . S
C246 C247 1.367 . S
C246 H260 0.951 . S
C247 C243 1.383 . S
C247 C246 1.367 . S
C247 H261 0.950 . S
C248 C245 1.481 . S
C248 C249 1.297 . S
C248 H262 0.950 . S
C249 C248 1.297 . S
C249 C250 1.479 . S
C249 H263 0.950 . S
C250 C249 1.479 . S
C250 C251 1.375 . S
C250 C256 1.404 . S
C251 C250 1.375 . S
C251 C252 1.369 . S
C251 H264 0.950 . S
C252 C251 1.369 . S
C252 C253 1.392 . S
C252 H265 0.951 . S
C253 C252 1.392 . S
C253 C255 1.384 . S
H254 C256 0.949 . S
C255 C253 1.384 . S
C255 C256 1.385 . S
C255 H257 0.950 . S
C256 C250 1.404 . S
C256 H254 0.949 . S
C256 C255 1.385 . S
H257 C255 0.950 . S
H258 C242 0.951 . S
H259 C244 0.951 . S
H260 C246 0.951 . S
H261 C247 0.950 . S
H262 C248 0.950 . S
H263 C249 0.950 . S
H264 C251 0.950 . S
H265 C252 0.951 . S
C266 C267 1.386 . S
C266 C268 1.383 . S
C266 H282 0.951 . S
C267 C266 1.386 . S
C267 C271 1.383 . S
C268 C266 1.383 . S
C268 C269 1.402 . S
C268 H283 0.951 . S
C269 C268 1.402 . S
C269 C270 1.375 . S
C269 C272 1.481 . S
C270 C269 1.375 . S
C270 C271 1.367 . S
C270 H284 0.951 . S
C271 C267 1.383 . S
C271 C270 1.367 . S
C271 H285 0.950 . S
C272 C269 1.481 . S
C272 C273 1.297 . S
C272 H286 0.950 . S
C273 C272 1.297 . S
C273 C274 1.479 . S
C273 H287 0.950 . S
C274 C273 1.479 . S
C274 C275 1.375 . S
C274 C280 1.404 . S
C275 C274 1.375 . S
C275 C276 1.369 . S
C275 H288 0.950 . S
C276 C275 1.369 . S
C276 C277 1.392 . S
C276 H289 0.951 . S
C277 C276 1.392 . S
C277 C279 1.384 . S
H278 C280 0.949 . S
C279 C277 1.384 . S
C279 C280 1.385 . S
C279 H281 0.950 . S
C280 C274 1.404 . S
C280 H278 0.949 . S
C280 C279 1.385 . S
H281 C279 0.950 . S
H282 C266 0.951 . S
H283 C268 0.951 . S
H284 C270 0.951 . S
H285 C271 0.950 . S
H286 C272 0.950 . S
H287 C273 0.950 . S
H288 C275 0.950 . S
H289 C276 0.951 . S
C290 C291 1.386 . S
C290 C292 1.383 . S
C290 H306 0.951 . S
C291 C290 1.386 . S
C291 C295 1.383 . S
C292 C290 1.383 . S
C292 C293 1.402 . S
C292 H307 0.951 . S
C293 C292 1.402 . S
C293 C294 1.375 . S
C293 C296 1.481 . S
C294 C293 1.375 . S
C294 C295 1.367 . S
C294 H308 0.951 . S
C295 C291 1.383 . S
C295 C294 1.367 . S
C295 H309 0.950 . S
C296 C293 1.481 . S
C296 C297 1.297 . S
C296 H310 0.950 . S
C297 C296 1.297 . S
C297 C298 1.479 . S
C297 H311 0.950 . S
C298 C297 1.479 . S
C298 C299 1.375 . S
C298 C304 1.404 . S
C299 C298 1.375 . S
C299 C300 1.369 . S
C299 H312 0.950 . S
C300 C299 1.369 . S
C300 C301 1.392 . S
C300 H313 0.951 . S
C301 C300 1.392 . S
C301 C303 1.384 . S
H302 C304 0.949 . S
C303 C301 1.384 . S
C303 C304 1.385 . S
C303 H305 0.950 . S
C304 C298 1.404 . S
C304 H302 0.949 . S
C304 C303 1.385 . S
H305 C303 0.950 . S
H306 C290 0.951 . S
H307 C292 0.951 . S
H308 C294 0.951 . S
H309 C295 0.950 . S
H310 C296 0.950 . S
H311 C297 0.950 . S
H312 C299 0.950 . S
H313 C300 0.951 . S
C314 C315 1.386 . S
C314 C316 1.383 . S
C314 H330 0.951 . S
C315 C314 1.386 . S
C315 C319 1.383 . S
C316 C314 1.383 . S
C316 C317 1.402 . S
C316 H331 0.951 . S
C317 C316 1.402 . S
C317 C318 1.375 . S
C317 C320 1.481 . S
C318 C317 1.375 . S
C318 C319 1.367 . S
C318 H332 0.951 . S
C319 C315 1.383 . S
C319 C318 1.367 . S
C319 H333 0.950 . S
C320 C317 1.481 . S
C320 C321 1.297 . S
C320 H334 0.950 . S
C321 C320 1.297 . S
C321 C322 1.479 . S
C321 H335 0.950 . S
C322 C321 1.479 . S
C322 C323 1.375 . S
C322 C328 1.404 . S
C323 C322 1.375 . S
C323 C324 1.369 . S
C323 H336 0.950 . S
C324 C323 1.369 . S
C324 C325 1.392 . S
C324 H337 0.951 . S
C325 C324 1.392 . S
C325 C327 1.384 . S
H326 C328 0.949 . S
C327 C325 1.384 . S
C327 C328 1.385 . S
C327 H329 0.950 . S
C328 C322 1.404 . S
C328 H326 0.949 . S
C328 C327 1.385 . S
H329 C327 0.950 . S
H330 C314 0.951 . S
H331 C316 0.951 . S
H332 C318 0.951 . S
H333 C319 0.950 . S
H334 C320 0.950 . S
H335 C321 0.950 . S
H336 C323 0.950 . S
H337 C324 0.951 . S
C338 C339 1.386 . S
C338 C340 1.383 . S
C338 H354 0.951 . S
C339 C338 1.386 . S
C339 C343 1.383 . S
C340 C338 1.383 . S
C340 C341 1.402 . S
C340 H355 0.951 . S
C341 C340 1.402 . S
C341 C342 1.375 . S
C341 C344 1.481 . S
C342 C341 1.375 . S
C342 C343 1.367 . S
C342 H356 0.951 . S
C343 C339 1.383 . S
C343 C342 1.367 . S
C343 H357 0.950 1_556 S
C344 C341 1.481 . S
C344 C345 1.297 . S
C344 H358 0.950 . S
C345 C344 1.297 . S
C345 C346 1.479 . S
C345 H359 0.950 . S
C346 C345 1.479 . S
C346 C347 1.375 . S
C346 C352 1.404 . S
C347 C346 1.375 . S
C347 C348 1.369 . S
C347 H360 0.950 . S
C348 C347 1.369 . S
C348 C349 1.392 . S
C348 H361 0.951 . S
C349 C348 1.392 . S
C349 C351 1.384 . S
H350 C352 0.949 . S
C351 C349 1.384 . S
C351 C352 1.385 . S
C351 H353 0.950 . S
C352 C346 1.404 . S
C352 H350 0.949 . S
C352 C351 1.385 . S
H353 C351 0.950 . S
H354 C338 0.951 . S
H355 C340 0.951 . S
H356 C342 0.951 . S
H357 C343 0.950 1_554 S
H358 C344 0.950 . S
H359 C345 0.950 . S
H360 C347 0.950 . S
H361 C348 0.951 . S
C362 C363 1.386 . S
C362 C364 1.383 . S
C362 H378 0.951 . S
C363 C362 1.386 . S
C363 C367 1.383 . S
C364 C362 1.383 . S
C364 C365 1.402 . S
C364 H379 0.951 . S
C365 C364 1.402 . S
C365 C366 1.375 . S
C365 C368 1.481 . S
C366 C365 1.375 . S
C366 C367 1.367 . S
C366 H380 0.951 . S
C367 C363 1.383 . S
C367 C366 1.367 . S
C367 H381 0.950 . S
C368 C365 1.481 . S
C368 C369 1.297 . S
C368 H382 0.950 . S
C369 C368 1.297 . S
C369 C370 1.479 . S
C369 H383 0.950 . S
C370 C369 1.479 . S
C370 C371 1.375 . S
C370 C376 1.404 . S
C371 C370 1.375 . S
C371 C372 1.369 . S
C371 H384 0.950 . S
C372 C371 1.369 . S
C372 C373 1.392 . S
C372 H385 0.951 . S
C373 C372 1.392 . S
C373 C375 1.384 . S
H374 C376 0.949 . S
C375 C373 1.384 . S
C375 C376 1.385 . S
C375 H377 0.950 . S
C376 C370 1.404 . S
C376 H374 0.949 . S
C376 C375 1.385 . S
H377 C375 0.950 . S
H378 C362 0.951 . S
H379 C364 0.951 . S
H380 C366 0.951 . S
H381 C367 0.950 . S
H382 C368 0.950 . S
H383 C369 0.950 . S
H384 C371 0.950 . S
H385 C372 0.951 . S
C386 C387 1.386 . S
C386 C388 1.383 . S
C386 H402 0.951 . S
C387 C386 1.386 . S
C387 C391 1.383 . S
C388 C386 1.383 . S
C388 C389 1.402 . S
C388 H403 0.951 . S
C389 C388 1.402 . S
C389 C390 1.375 . S
C389 C392 1.481 . S
C390 C389 1.375 . S
C390 C391 1.367 . S
C390 H404 0.951 . S
C391 C387 1.383 . S
C391 C390 1.367 . S
C391 H405 0.950 . S
C392 C389 1.481 . S
C392 C393 1.297 . S
C392 H406 0.950 . S
C393 C392 1.297 . S
C393 C394 1.479 . S
C393 H407 0.950 . S
C394 C393 1.479 . S
C394 C395 1.375 . S
C394 C400 1.404 . S
C395 C394 1.375 . S
C395 C396 1.369 . S
C395 H408 0.950 . S
C396 C395 1.369 . S
C396 C397 1.392 . S
C396 H409 0.951 . S
C397 C396 1.392 . S
C397 C399 1.384 . S
H398 C400 0.949 . S
C399 C397 1.384 . S
C399 C400 1.385 . S
C399 H401 0.950 . S
C400 C394 1.404 . S
C400 H398 0.949 . S
C400 C399 1.385 . S
H401 C399 0.950 . S
H402 C386 0.951 . S
H403 C388 0.951 . S
H404 C390 0.951 . S
H405 C391 0.950 . S
H406 C392 0.950 . S
H407 C393 0.950 . S
H408 C395 0.950 . S
H409 C396 0.951 . S
C123 C12 1.614 . S
C133 C99 1.489 . S
C147 C69 0.868 . S
C157 C105 0.941 . S
C171 C8 0.929 . S
C181 C96 0.991 . S
C195 C71 1.870 . S
C205 C121 1.655 . S
C219 C17 2.321 . S
C229 C87 2.262 . S
C253 C104 2.095 . S
C243 C42 2.131 . S
C267 C52 1.581 . S
C277 C100 1.433 . S
C301 C117 2.029 . S
C291 C2 2.118 . S
C325 C84 2.273 . S
C315 C57 2.319 . S
C349 C120 1.740 . S
C339 C31 1.850 . S
C373 C83 1.039 . S
C363 C48 0.962 . S
C397 C108 0.856 . S
C387 C29 0.957 . S
