# Generated by pormake.
# Topology anh, (6,3)-cn, num edge types: 1
# Building blocks:
#     Node 0, Type 0, BuildingBlock: MIFKUJ_clean_sbu_0, # of connection points: 6
#     Node 1, Type 0, BuildingBlock: MIFKUJ_clean_sbu_0, # of connection points: 6
#     Node 2, Type 0, BuildingBlock: MIFKUJ_clean_sbu_0, # of connection points: 6
#     Node 3, Type 1, BuildingBlock: WUSLED_clean_sbu_0, # of connection points: 3
#     Node 4, Type 1, BuildingBlock: WUSLED_clean_sbu_0, # of connection points: 3
#     Node 5, Type 1, BuildingBlock: WUSLED_clean_sbu_0, # of connection points: 3
#     Node 6, Type 1, BuildingBlock: WUSLED_clean_sbu_0, # of connection points: 3
#     Node 7, Type 1, BuildingBlock: WUSLED_clean_sbu_0, # of connection points: 3
#     Node 8, Type 1, BuildingBlock: WUSLED_clean_sbu_0, # of connection points: 3
#     Edge 9, Type (0, 1), BuildingBlock: ZUJKAS_clean_linker_0, # of connection points: 2
#     Edge 10, Type (0, 1), BuildingBlock: ZUJKAS_clean_linker_0, # of connection points: 2
#     Edge 11, Type (0, 1), BuildingBlock: ZUJKAS_clean_linker_0, # of connection points: 2
#     Edge 12, Type (0, 1), BuildingBlock: ZUJKAS_clean_linker_0, # of connection points: 2
#     Edge 13, Type (0, 1), BuildingBlock: ZUJKAS_clean_linker_0, # of connection points: 2
#     Edge 14, Type (0, 1), BuildingBlock: ZUJKAS_clean_linker_0, # of connection points: 2
#     Edge 15, Type (0, 1), BuildingBlock: ZUJKAS_clean_linker_0, # of connection points: 2
#     Edge 16, Type (0, 1), BuildingBlock: ZUJKAS_clean_linker_0, # of connection points: 2
#     Edge 17, Type (0, 1), BuildingBlock: ZUJKAS_clean_linker_0, # of connection points: 2
#     Edge 18, Type (0, 1), BuildingBlock: ZUJKAS_clean_linker_0, # of connection points: 2
#     Edge 19, Type (0, 1), BuildingBlock: ZUJKAS_clean_linker_0, # of connection points: 2
#     Edge 20, Type (0, 1), BuildingBlock: ZUJKAS_clean_linker_0, # of connection points: 2
#     Edge 21, Type (0, 1), BuildingBlock: ZUJKAS_clean_linker_0, # of connection points: 2
#     Edge 22, Type (0, 1), BuildingBlock: ZUJKAS_clean_linker_0, # of connection points: 2
#     Edge 23, Type (0, 1), BuildingBlock: ZUJKAS_clean_linker_0, # of connection points: 2
#     Edge 24, Type (0, 1), BuildingBlock: ZUJKAS_clean_linker_0, # of connection points: 2
#     Edge 25, Type (0, 1), BuildingBlock: ZUJKAS_clean_linker_0, # of connection points: 2
#     Edge 26, Type (0, 1), BuildingBlock: ZUJKAS_clean_linker_0, # of connection points: 2
# Relax obj value: 0.128
# Max RMSD: 0.179
# Mean RMSD: 0.135
data_MOF--net-anh--node1-MIFKUJ_clean_sbu_0--node2-WUSLED_clean_sbu_0--edge1-ZUJKAS_clean_linker_0
_symmetry_space_group_name_H-M    P1
_symmetry_Int_Tables_number       1
_symmetry_cell_setting            triclinic
loop_
_symmetry_equiv_pos_as_xyz
'x, y, z'
_cell_length_a     48.394506
_cell_length_b     48.519242
_cell_length_c     83.936596
_cell_angle_alpha  93.507093
_cell_angle_beta   90.914969
_cell_angle_gamma 119.92694
loop_
_atom_site_label
_atom_site_type_symbol
_atom_site_fract_x
_atom_site_fract_y
_atom_site_fract_z
_atom_type_partial_charge
Zn0 Zn 0.04481 0.55135 0.16479 0.0
Zn1 Zn 0.95266 0.48641 0.16283 0.0
C2 C 0.09601 0.53963 0.16729 0.0
O3 O 0.09968 0.55685 0.1807 0.0
C4 C 0.9019 0.49376 0.15044 0.0
O5 O 0.89888 0.46986 0.14085 0.0
O6 O 0.07516 0.59871 0.16755 0.0
O7 O 0.01061 0.54281 0.14811 0.0
O8 O 0.97757 0.49155 0.14313 0.0
C9 C 0.09394 0.61257 0.1566 0.0
O10 O 0.09175 0.5959 0.14321 0.0
O11 O 0.07211 0.53224 0.1578 0.0
C12 C 0.90231 0.43115 0.17477 0.0
O13 O 0.90555 0.45293 0.18592 0.0
O14 O 0.92101 0.43956 0.16333 0.0
O15 O 0.97725 0.5007 0.18425 0.0
O16 O 0.0289 0.53725 0.18651 0.0
O17 O 0.92514 0.50691 0.16086 0.0
C18 C 0.99978 0.51772 0.13875 0.0
C19 C 0.00309 0.51795 0.19269 0.0
Zn20 Zn 0.57961 0.06719 0.50124 0.0
Zn21 Zn 0.52754 0.96551 0.49792 0.0
C22 C 0.6413 0.11912 0.51049 0.0
O23 O 0.6245 0.12295 0.52166 0.0
C24 C 0.46797 0.91317 0.48677 0.0
O25 O 0.48618 0.9136 0.47522 0.0
O26 O 0.563 0.09792 0.50115 0.0
O27 O 0.56244 0.03792 0.48116 0.0
O28 O 0.5353 0.98524 0.47684 0.0
C29 C 0.57326 0.1189 0.49103 0.0
O30 O 0.59246 0.1183 0.48029 0.0
O31 O 0.62741 0.09502 0.50036 0.0
C32 C 0.54161 0.92071 0.5101 0.0
O33 O 0.52452 0.92353 0.52141 0.0
O34 O 0.54773 0.93782 0.49834 0.0
O35 O 0.54178 0.99472 0.51817 0.0
O36 O 0.56934 0.04749 0.52227 0.0
O37 O 0.48024 0.93455 0.49834 0.0
C38 C 0.54867 0.01284 0.47168 0.0
C39 C 0.55465 0.02001 0.52755 0.0
Zn40 Zn 0.55439 0.50459 0.83415 0.0
Zn41 Zn 0.50498 0.55584 0.83411 0.0
C42 C 0.54607 0.44485 0.84262 0.0
O43 O 0.56582 0.46341 0.85455 0.0
C44 C 0.52748 0.6176 0.82275 0.0
O45 O 0.5194 0.6006 0.80894 0.0
O46 O 0.60215 0.52351 0.83611 0.0
O47 O 0.54371 0.51575 0.81315 0.0
O48 O 0.51724 0.54223 0.81355 0.0
C49 C 0.61477 0.51353 0.8258 0.0
O50 O 0.5965 0.49285 0.81405 0.0
O51 O 0.53648 0.45703 0.83244 0.0
C52 C 0.43751 0.51959 0.8411 0.0
O53 O 0.4471 0.50616 0.85128 0.0
O54 O 0.45768 0.53992 0.83236 0.0
O55 O 0.51496 0.54375 0.85506 0.0
O56 O 0.5406 0.51642 0.85469 0.0
O57 O 0.52474 0.60376 0.8355 0.0
C58 C 0.53044 0.52879 0.80599 0.0
C59 C 0.52726 0.52978 0.86221 0.0
C60 C 0.55545 0.08546 0.19531 0.0
C61 C 0.57147 0.11305 0.20583 0.0
C62 C 0.61205 0.13876 0.18664 0.0
C63 C 0.59936 0.1395 0.2015 0.0
C64 C 0.59606 0.11106 0.17613 0.0
C65 C 0.56788 0.08463 0.18042 0.0
U66 U 0.51017 0.03551 0.22837 0.0
O67 O 0.45942 0.01235 0.23378 0.0
O68 O 0.48282 0.98372 0.23018 0.0
C69 C 0.45595 0.98366 0.23244 0.0
C70 C 0.52687 0.05707 0.20021 0.0
C71 C 0.42766 0.95921 0.22283 0.0
C72 C 0.40238 0.92503 0.19847 0.0
C73 C 0.42956 0.94964 0.20694 0.0
C74 C 0.3711 0.92013 0.2215 0.0
C75 C 0.3729 0.90985 0.20571 0.0
C76 C 0.39824 0.94454 0.22996 0.0
C77 C 0.54775 0.06202 0.27046 0.0
C78 C 0.52292 0.02885 0.29228 0.0
C79 C 0.57028 0.08085 0.29759 0.0
C80 C 0.57099 0.0856 0.28131 0.0
C81 C 0.54629 0.05237 0.30326 0.0
C82 C 0.52363 0.03367 0.27602 0.0
C83 C 0.54893 0.06698 0.25337 0.0
O84 O 0.53214 0.03516 0.20563 0.0
O85 O 0.50782 0.06289 0.20901 0.0
O86 O 0.52775 0.07385 0.24778 0.0
O87 O 0.5514 0.04558 0.24409 0.0
H88 H 0.56263 0.11403 0.21751 0.0
H89 H 0.61144 0.1603 0.20995 0.0
H90 H 0.60528 0.1099 0.16459 0.0
H91 H 0.55599 0.06344 0.17221 0.0
H92 H 0.40443 0.91781 0.18628 0.0
H93 H 0.45206 0.96087 0.20119 0.0
H94 H 0.34891 0.90865 0.2275 0.0
H95 H 0.39636 0.9516 0.24221 0.0
H96 H 0.50436 0.0065 0.29621 0.0
H97 H 0.58834 0.09963 0.30575 0.0
H98 H 0.58969 0.10768 0.27719 0.0
H99 H 0.50549 0.0152 0.26775 0.0
C100 C 0.57778 0.59153 0.52941 0.0
C101 C 0.57707 0.61226 0.54157 0.0
C102 C 0.58061 0.64879 0.52203 0.0
C103 C 0.57846 0.64058 0.53793 0.0
C104 C 0.58136 0.62791 0.50985 0.0
C105 C 0.57999 0.59948 0.51353 0.0
U106 U 0.56907 0.53734 0.56116 0.0
O107 O 0.59329 0.51039 0.56623 0.0
O108 O 0.54109 0.48535 0.56215 0.0
C109 C 0.56663 0.48274 0.56442 0.0
C110 C 0.57583 0.56161 0.53348 0.0
C111 C 0.568 0.45686 0.55489 0.0
C112 C 0.54525 0.41169 0.53484 0.0
C113 C 0.54533 0.43828 0.54239 0.0
C114 C 0.59108 0.42251 0.55178 0.0
C115 C 0.56778 0.40316 0.53966 0.0
C116 C 0.59107 0.44893 0.55935 0.0
C117 C 0.56121 0.56408 0.60354 0.0
C118 C 0.55524 0.53184 0.62564 0.0
C119 C 0.55663 0.58232 0.63039 0.0
C120 C 0.56015 0.58694 0.61412 0.0
C121 C 0.55411 0.5547 0.63635 0.0
C122 C 0.55875 0.5365 0.60936 0.0
C123 C 0.56493 0.56927 0.58649 0.0
O124 O 0.60005 0.56527 0.54252 0.0
O125 O 0.54801 0.54036 0.53837 0.0
O126 O 0.54017 0.54931 0.57699 0.0
O127 O 0.59225 0.57428 0.58108 0.0
H128 H 0.57519 0.60638 0.55391 0.0
H129 H 0.57721 0.65575 0.54757 0.0
H130 H 0.58322 0.63364 0.4975 0.0
H131 H 0.58058 0.5837 0.504 0.0
H132 H 0.52684 0.3972 0.52562 0.0
H133 H 0.52715 0.44374 0.53871 0.0
H134 H 0.60917 0.41702 0.55558 0.0
H135 H 0.60873 0.46281 0.56898 0.0
H136 H 0.55301 0.51017 0.62981 0.0
H137 H 0.55632 0.6006 0.63834 0.0
H138 H 0.56214 0.60842 0.60979 0.0
H139 H 0.55948 0.51858 0.60129 0.0
C140 C 0.98178 0.55183 0.86228 0.0
C141 C 0.96219 0.55271 0.8742 0.0
C142 C 0.92647 0.55448 0.85407 0.0
C143 C 0.93481 0.554 0.87014 0.0
C144 C 0.94628 0.55369 0.84215 0.0
C145 C 0.97377 0.5524 0.84624 0.0
U146 U 0.03291 0.5471 0.89474 0.0
O147 O 0.05606 0.51827 0.89667 0.0
O148 O 0.08503 0.57065 0.89919 0.0
C149 C 0.08491 0.54344 0.89824 0.0
C150 C 0.0102 0.54991 0.86672 0.0
C151 C 0.10966 0.54227 0.88869 0.0
C152 C 0.12616 0.51774 0.86761 0.0
C153 C 0.10201 0.52033 0.87533 0.0
C154 C 0.16583 0.55974 0.88613 0.0
C155 C 0.15831 0.53715 0.87308 0.0
C156 C 0.14175 0.5622 0.89386 0.0
C157 C 0.00779 0.54677 0.93738 0.0
C158 C 0.03073 0.53258 0.95916 0.0
C159 C 0.99817 0.55671 0.96484 0.0
C160 C 0.9938 0.55814 0.94848 0.0
C161 C 0.01651 0.54373 0.97035 0.0
C162 C 0.02653 0.53424 0.9428 0.0
C163 C 0.00272 0.54815 0.92023 0.0
O164 O 0.03268 0.57517 0.87518 0.0
O165 O 0.00411 0.52292 0.87245 0.0
O166 O 0.99503 0.52192 0.91124 0.0
O167 O 0.02426 0.57414 0.91411 0.0
H168 H 0.96799 0.55213 0.88666 0.0
H169 H 0.91984 0.55401 0.8796 0.0
H170 H 0.94068 0.5543 0.82968 0.0
H171 H 0.98868 0.55176 0.83691 0.0
H172 H 0.11966 0.50033 0.85749 0.0
H173 H 0.07741 0.50472 0.87106 0.0
H174 H 0.19026 0.57472 0.89081 0.0
H175 H 0.14815 0.57913 0.9042 0.0
H176 H 0.04525 0.52278 0.96307 0.0
H177 H 0.98664 0.56516 0.97316 0.0
H178 H 0.97932 0.56794 0.94448 0.0
H179 H 0.03779 0.52562 0.93438 0.0
C180 C 0.98557 0.45633 0.47035 0.0
C181 C 0.96335 0.43408 0.45864 0.0
C182 C 0.93451 0.39806 0.47899 0.0
C183 C 0.93808 0.40525 0.4629 0.0
C184 C 0.95688 0.42052 0.49071 0.0
C185 C 0.98224 0.44944 0.48641 0.0
U186 U 0.02639 0.50901 0.4375 0.0
O187 O 0.07692 0.53776 0.43212 0.0
O188 O 0.04785 0.56065 0.43565 0.0
C189 C 0.07623 0.56454 0.43296 0.0
C190 C 0.01201 0.4866 0.46567 0.0
C191 C 0.10355 0.59219 0.4416 0.0
C192 C 0.13323 0.62332 0.46602 0.0
C193 C 0.10674 0.59631 0.45835 0.0
C194 C 0.15329 0.64191 0.44024 0.0
C195 C 0.15672 0.64652 0.45702 0.0
C196 C 0.12697 0.61507 0.43264 0.0
C197 C 0.9909 0.47922 0.39527 0.0
C198 C 0.01482 0.5127 0.37344 0.0
C199 C 0.97115 0.45847 0.36792 0.0
C200 C 0.96976 0.45428 0.38428 0.0
C201 C 0.99375 0.48772 0.3623 0.0
C202 C 0.01343 0.50846 0.38978 0.0
C203 C 0.9898 0.47443 0.41239 0.0
O204 O 0.03275 0.48371 0.45683 0.0
O205 O 0.00336 0.50617 0.46021 0.0
O206 O 0.98403 0.49382 0.42149 0.0
O207 O 0.01314 0.47104 0.41828 0.0
H208 H 0.9655 0.4391 0.44617 0.0
H209 H 0.92103 0.3888 0.4536 0.0
H210 H 0.95497 0.41561 0.50318 0.0
H211 H 0.99924 0.46636 0.49559 0.0
H212 H 0.13513 0.62623 0.47896 0.0
H213 H 0.0888 0.57877 0.46544 0.0
H214 H 0.17122 0.65886 0.43292 0.0
H215 H 0.12494 0.61214 0.41969 0.0
H216 H 0.03223 0.53564 0.36954 0.0
H217 H 0.95488 0.4386 0.35966 0.0
H218 H 0.95235 0.4315 0.38834 0.0
H219 H 0.02998 0.52797 0.39815 0.0
C220 C 0.53777 0.97135 0.80538 0.0
C221 C 0.52996 0.94667 0.79347 0.0
C222 C 0.54235 0.91752 0.8122 0.0
C223 C 0.53207 0.91999 0.79686 0.0
C224 C 0.54975 0.94214 0.8242 0.0
C225 C 0.54754 0.96892 0.82079 0.0
U226 U 0.53597 0.01994 0.77311 0.0
O227 O 0.50994 0.04548 0.76924 0.0
O228 O 0.56245 0.07151 0.77017 0.0
C229 C 0.53628 0.07335 0.76933 0.0
C230 C 0.53738 1.00016 0.80128 0.0
C231 C 0.53702 0.10014 0.77897 0.0
C232 C 0.51716 0.12133 0.80002 0.0
C233 C 0.51757 0.0954 0.79197 0.0
C234 C 0.55629 0.157 0.78252 0.0
C235 C 0.53633 0.15239 0.79528 0.0
C236 C 0.55655 0.13113 0.77445 0.0
C237 C 0.53497 0.98754 0.73052 0.0
C238 C 0.53478 0.01588 0.70771 0.0
C239 C 0.53669 0.96695 0.70372 0.0
C240 C 0.53612 0.96439 0.72021 0.0
C241 C 0.53611 0.99278 0.69727 0.0
C242 C 0.53423 0.01328 0.72421 0.0
C243 C 0.53515 0.9849 0.74782 0.0
O244 O 0.5632 0.02098 0.79461 0.0
O245 O 0.51084 0.99488 0.79384 0.0
O246 O 0.50917 0.98043 0.7547 0.0
O247 O 0.56154 0.00629 0.75583 0.0
H248 H 0.52252 0.9482 0.78147 0.0
H249 H 0.52559 0.90124 0.78742 0.0
H250 H 0.55795 0.94105 0.8361 0.0
H251 H 0.55393 0.98792 0.83008 0.0
H252 H 0.50176 0.11708 0.8099 0.0
H253 H 0.50236 0.07167 0.79574 0.0
H254 H 0.57099 0.18052 0.77841 0.0
H255 H 0.57158 0.13527 0.7644 0.0
H256 H 0.53393 0.03584 0.70312 0.0
H257 H 0.53816 0.94901 0.69604 0.0
H258 H 0.53686 0.94446 0.72493 0.0
H259 H 0.53331 0.03136 0.73206 0.0
C260 C 0.5643 0.5243 0.14079 0.0
C261 C 0.58878 0.53821 0.13012 0.0
C262 C 0.62357 0.52752 0.14673 0.0
C263 C 0.61812 0.53995 0.13309 0.0
C264 C 0.59901 0.51365 0.15744 0.0
C265 C 0.56962 0.5121 0.1545 0.0
U266 U 0.50645 0.51904 0.10914 0.0
O267 O 0.45438 0.48823 0.1046 0.0
O268 O 0.476 0.54044 0.10697 0.0
C269 C 0.44951 0.51262 0.10507 0.0
C270 C 0.53276 0.52076 0.13697 0.0
C271 C 0.42153 0.50928 0.1135 0.0
C272 C 0.39714 0.52937 0.1326 0.0
C273 C 0.42442 0.53043 0.12648 0.0
C274 C 0.36375 0.48532 0.11326 0.0
C275 C 0.36647 0.5072 0.12585 0.0
C276 C 0.39096 0.48641 0.10717 0.0
C277 C 0.53621 0.52394 0.06673 0.0
C278 C 0.5052 0.52026 0.04285 0.0
C279 C 0.55814 0.52714 0.04071 0.0
C280 C 0.56112 0.52735 0.05728 0.0
C281 C 0.53011 0.52346 0.03327 0.0
C282 C 0.50822 0.52045 0.05948 0.0
C283 C 0.53992 0.52382 0.08409 0.0
O284 O 0.53345 0.5459 0.13147 0.0
O285 O 0.51254 0.49394 0.12872 0.0
O286 O 0.52103 0.49659 0.09009 0.0
O287 O 0.54235 0.54864 0.09261 0.0
H288 H 0.58503 0.54729 0.11931 0.0
H289 H 0.63624 0.55025 0.12444 0.0
H290 H 0.60251 0.50399 0.16809 0.0
H291 H 0.55094 0.50102 0.16281 0.0
H292 H 0.4001 0.54627 0.14245 0.0
H293 H 0.44772 0.54835 0.13161 0.0
H294 H 0.34066 0.4682 0.10761 0.0
H295 H 0.38814 0.47007 0.09705 0.0
H296 H 0.48322 0.51713 0.03747 0.0
H297 H 0.57798 0.53021 0.03372 0.0
H298 H 0.58293 0.53018 0.06273 0.0
H299 H 0.48872 0.51773 0.06666 0.0
H300 H 0.09914 0.50793 0.13964 0.0
H301 H 0.14199 0.4971 0.13245 0.0
H302 H 0.19196 0.54258 0.17785 0.0
H303 H 0.14931 0.55295 0.18521 0.0
H304 H 0.20516 0.54028 0.12936 0.0
H305 H 0.19428 0.46015 0.17601 0.0
H306 H 0.16351 0.46965 0.17152 0.0
H307 H 0.19797 0.49691 0.18424 0.0
C308 C 0.11906 0.51523 0.14817 0.0
C309 C 0.12068 0.53118 0.16303 0.0
C310 C 0.14355 0.50909 0.14403 0.0
C311 C 0.16997 0.51856 0.15472 0.0
C312 C 0.1715 0.53433 0.16956 0.0
H313 H 0.36059 0.55964 0.13384 0.0
H314 H 0.3124 0.56096 0.14076 0.0
C315 C 0.14711 0.54043 0.1737 0.0
C316 C 0.1969 0.51372 0.1501 0.0
H317 H 0.2433 0.48348 0.16255 0.0
C318 C 0.2133 0.52758 0.13652 0.0
C319 C 0.20734 0.49683 0.15934 0.0
C320 C 0.18966 0.47975 0.17349 0.0
C321 C 0.24044 0.52595 0.13224 0.0
C322 C 0.25189 0.51056 0.14198 0.0
C323 C 0.23484 0.49571 0.15523 0.0
C324 C 0.28154 0.50968 0.1386 0.0
C325 C 0.25645 0.54057 0.11726 0.0
C326 C 0.28058 0.48039 0.13576 0.0
C327 C 0.30825 0.47953 0.13204 0.0
C328 C 0.33755 0.50797 0.13115 0.0
C329 C 0.33858 0.53726 0.13453 0.0
C330 C 0.31091 0.53808 0.13827 0.0
H331 H 0.23994 0.54306 0.1089 0.0
H332 H 0.27709 0.56474 0.12052 0.0
H333 H 0.26538 0.526 0.11094 0.0
H334 H 0.25826 0.45816 0.13613 0.0
H335 H 0.30664 0.45655 0.12976 0.0
H336 H 0.67576 0.17543 0.52876 0.0
H337 H 0.72821 0.22009 0.52384 0.0
H338 H 0.73492 0.16555 0.4831 0.0
H339 H 0.68209 0.12082 0.48774 0.0
H340 H 0.78851 0.22615 0.52193 0.0
H341 H 0.74643 0.24598 0.46405 0.0
H342 H 0.71931 0.22043 0.4781 0.0
H343 H 0.7401 0.20647 0.46541 0.0
C344 C 0.68845 0.17276 0.51881 0.0
C345 C 0.67457 0.14464 0.50854 0.0
C346 C 0.71847 0.19835 0.51604 0.0
C347 C 0.7352 0.19636 0.50294 0.0
C348 C 0.7221 0.16782 0.49308 0.0
H349 H 0.91024 0.3387 0.4634 0.0
H350 H 0.86337 0.28898 0.46972 0.0
C351 C 0.69199 0.14221 0.49582 0.0
C352 C 0.7658 0.22462 0.49936 0.0
H353 H 0.80127 0.27847 0.47145 0.0
C354 C 0.79135 0.23758 0.51089 0.0
C355 C 0.76938 0.23955 0.48497 0.0
C356 C 0.74231 0.22764 0.47246 0.0
C357 C 0.82051 0.26496 0.50835 0.0
C358 C 0.82398 0.27998 0.494 0.0
C359 C 0.79855 0.26683 0.48242 0.0
C360 C 0.85351 0.30978 0.49084 0.0
C361 C 0.84745 0.27737 0.52094 0.0
C362 C 0.86349 0.33799 0.50061 0.0
C363 C 0.89018 0.36653 0.49698 0.0
C364 C 0.90727 0.36742 0.48343 0.0
C365 C 0.89739 0.33896 0.4738 0.0
C366 C 0.87072 0.31048 0.47744 0.0
H367 H 0.84401 0.2588 0.52907 0.0
H368 H 0.87076 0.28602 0.5154 0.0
H369 H 0.84841 0.29769 0.52827 0.0
H370 H 0.85014 0.33814 0.51082 0.0
H371 H 0.89682 0.38807 0.50451 0.0
H372 H 0.54117 0.65529 0.79792 0.0
H373 H 0.54883 0.70904 0.79846 0.0
H374 H 0.53891 0.70983 0.84944 0.0
H375 H 0.53193 0.65625 0.84907 0.0
H376 H 0.5042 0.7243 0.80745 0.0
H377 H 0.61588 0.79745 0.84533 0.0
H378 H 0.60397 0.75777 0.83681 0.0
H379 H 0.5859 0.76322 0.85437 0.0
C380 C 0.54117 0.66709 0.8093 0.0
C381 C 0.53587 0.65147 0.82345 0.0
C382 C 0.54553 0.69781 0.80959 0.0
C383 C 0.54468 0.71356 0.824 0.0
C384 C 0.54032 0.69843 0.83823 0.0
H385 H 0.52565 0.88343 0.83882 0.0
H386 H 0.52747 0.83469 0.84297 0.0
C387 C 0.53618 0.66772 0.83798 0.0
C388 C 0.54558 0.74455 0.8238 0.0
H389 H 0.58664 0.82283 0.83836 0.0
C390 C 0.52228 0.74583 0.8142 0.0
C391 C 0.56907 0.77258 0.83269 0.0
C392 C 0.59531 0.77289 0.84278 0.0
C393 C 0.52193 0.77436 0.81316 0.0
C394 C 0.54553 0.80236 0.8219 0.0
C395 C 0.56855 0.80116 0.83173 0.0
C396 C 0.5473 0.83332 0.82023 0.0
C397 C 0.49642 0.77452 0.80265 0.0
C398 C 0.55848 0.84883 0.80624 0.0
C399 C 0.55766 0.87663 0.80387 0.0
C400 C 0.54549 0.88939 0.81543 0.0
C401 C 0.53532 0.87433 0.82972 0.0
C402 C 0.53625 0.84648 0.83211 0.0
H403 H 0.47699 0.75001 0.7987 0.0
H404 H 0.4859 0.7875 0.80909 0.0
H405 H 0.50727 0.78719 0.79188 0.0
H406 H 0.56727 0.83905 0.79701 0.0
H407 H 0.56632 0.88798 0.79289 0.0
H408 H 0.84835 0.46776 0.13054 0.0
H409 H 0.80466 0.47911 0.1311 0.0
H410 H 0.85403 0.55109 0.16999 0.0
H411 H 0.89788 0.53943 0.16972 0.0
H412 H 0.79115 0.51099 0.17561 0.0
H413 H 0.80015 0.55399 0.11531 0.0
H414 H 0.79732 0.51565 0.1148 0.0
H415 H 0.83153 0.54988 0.12477 0.0
C416 C 0.85021 0.4863 0.13912 0.0
C417 C 0.87675 0.50278 0.15005 0.0
C418 C 0.8252 0.49287 0.13936 0.0
C419 C 0.82623 0.51631 0.15042 0.0
C420 C 0.8528 0.53303 0.16129 0.0
H421 H 0.68395 0.57655 0.14268 0.0
H422 H 0.73422 0.57616 0.145 0.0
C423 C 0.87789 0.52641 0.16108 0.0
C424 C 0.79881 0.52208 0.15104 0.0
H425 H 0.75101 0.53863 0.12792 0.0
C426 C 0.78257 0.51739 0.16524 0.0
C427 C 0.78783 0.53085 0.13759 0.0
C428 C 0.80531 0.53821 0.12231 0.0
C429 C 0.75501 0.52008 0.16616 0.0
C430 C 0.743 0.52706 0.15242 0.0
C431 C 0.75993 0.5329 0.13841 0.0
C432 C 0.71267 0.52792 0.15215 0.0
C433 C 0.73915 0.51559 0.18187 0.0
C434 C 0.68376 0.50097 0.15542 0.0
C435 C 0.65496 0.50115 0.15414 0.0
C436 C 0.65442 0.52816 0.14934 0.0
C437 C 0.68348 0.55525 0.14625 0.0
C438 C 0.71225 0.5551 0.14762 0.0
H439 H 0.75619 0.52032 0.1921 0.0
H440 H 0.72898 0.53154 0.18371 0.0
H441 H 0.71945 0.49053 0.1819 0.0
H442 H 0.68329 0.47941 0.15854 0.0
H443 H 0.63299 0.47972 0.15634 0.0
H444 H 0.42555 0.89979 0.51047 0.0
H445 H 0.37096 0.85441 0.51044 0.0
H446 H 0.37986 0.82259 0.46268 0.0
H447 H 0.4343 0.86727 0.4627 0.0
H448 H 0.31766 0.83638 0.49084 0.0
H449 H 0.35135 0.74294 0.4863 0.0
H450 H 0.38017 0.78449 0.49134 0.0
H451 H 0.36767 0.76961 0.47077 0.0
C452 C 0.41584 0.88312 0.49996 0.0
C453 C 0.43437 0.887 0.48663 0.0
C454 C 0.38468 0.8572 0.49998 0.0
C455 C 0.37162 0.83472 0.4867 0.0
C456 C 0.38976 0.83913 0.47323 0.0
H457 H 0.18462 0.70771 0.44832 0.0
H458 H 0.2351 0.75332 0.45871 0.0
C459 C 0.42084 0.86486 0.47322 0.0
C460 C 0.33885 0.80687 0.48663 0.0
H461 H 0.29671 0.72605 0.47863 0.0
C462 C 0.31305 0.81219 0.48842 0.0
C463 C 0.33283 0.77523 0.48389 0.0
C464 C 0.35951 0.76767 0.48315 0.0
C465 C 0.28136 0.78688 0.48651 0.0
C466 C 0.27538 0.75557 0.48235 0.0
C467 C 0.3012 0.75007 0.4816 0.0
C468 C 0.24296 0.7287 0.47737 0.0
C469 C 0.25466 0.79405 0.48879 0.0
C470 C 0.23057 0.6994 0.48425 0.0
C471 C 0.20186 0.67293 0.47809 0.0
C472 C 0.18516 0.67526 0.46485 0.0
C473 C 0.19709 0.70496 0.45839 0.0
C474 C 0.22576 0.73127 0.46449 0.0
H475 H 0.26228 0.81519 0.49741 0.0
H476 H 0.24803 0.7996 0.4772 0.0
H477 H 0.2332 0.77345 0.49316 0.0
H478 H 0.24356 0.69677 0.49412 0.0
H479 H 0.1935 0.65036 0.48326 0.0
H480 H 0.50716 0.40037 0.81882 0.0
H481 H 0.4992 0.34685 0.81285 0.0
H482 H 0.56027 0.36016 0.85404 0.0
H483 H 0.56793 0.41342 0.86026 0.0
H484 H 0.54682 0.33475 0.80559 0.0
H485 H 0.48616 0.27056 0.85808 0.0
H486 H 0.48861 0.30761 0.85355 0.0
H487 H 0.52199 0.30781 0.86341 0.0
C488 C 0.51843 0.3917 0.82678 0.0
C489 C 0.53825 0.41121 0.84 0.0
C490 C 0.51386 0.36111 0.82335 0.0
C491 C 0.52886 0.34937 0.83309 0.0
C492 C 0.54789 0.36842 0.84655 0.0
H493 H 0.58583 0.21233 0.80414 0.0
H494 H 0.58263 0.2591 0.81399 0.0
C495 C 0.55241 0.39899 0.85003 0.0
C496 C 0.52722 0.31864 0.82828 0.0
H497 H 0.50906 0.24636 0.84125 0.0
C498 C 0.53829 0.31533 0.81334 0.0
C499 C 0.51585 0.29322 0.83835 0.0
C500 C 0.50218 0.29477 0.85418 0.0
C501 C 0.5391 0.28766 0.80834 0.0
C502 C 0.5291 0.26283 0.8187 0.0
C503 C 0.51713 0.26566 0.83345 0.0
C504 C 0.53109 0.23387 0.81429 0.0
C505 C 0.55053 0.28517 0.79197 0.0
C506 C 0.50324 0.20396 0.81185 0.0
C507 C 0.50498 0.17715 0.80622 0.0
C508 C 0.53465 0.17986 0.803 0.0
C509 C 0.56259 0.20961 0.80622 0.0
C510 C 0.56081 0.23633 0.81185 0.0
H511 H 0.54951 0.30224 0.78407 0.0
H512 H 0.5757 0.29076 0.79317 0.0
H513 H 0.53601 0.26065 0.78612 0.0
H514 H 0.48008 0.2016 0.81372 0.0
H515 H 0.48302 0.15463 0.80377 0.0
H516 H 0.53508 0.88341 0.53436 0.0
H517 H 0.54607 0.83949 0.53433 0.0
H518 H 0.579 0.85694 0.48658 0.0
H519 H 0.56851 0.90141 0.48658 0.0
H520 H 0.51778 0.78541 0.51355 0.0
H521 H 0.64967 0.84942 0.50991 0.0
H522 H 0.62802 0.86971 0.51528 0.0
H523 H 0.6284 0.8572 0.49473 0.0
C524 C 0.54503 0.87822 0.52391 0.0
C525 C 0.55091 0.89592 0.51047 0.0
C526 C 0.55126 0.85306 0.52391 0.0
C527 C 0.56356 0.84508 0.51051 0.0
C528 C 0.57004 0.86304 0.49716 0.0
H529 H 0.54917 0.65766 0.49714 0.0
H530 H 0.54661 0.7057 0.49251 0.0
C531 C 0.56391 0.88837 0.49716 0.0
C532 C 0.56772 0.81677 0.51031 0.0
H533 H 0.62325 0.79297 0.50829 0.0
C534 C 0.54082 0.78702 0.51235 0.0
C535 C 0.59784 0.81903 0.50883 0.0
C536 C 0.62773 0.85057 0.5072 0.0
C537 C 0.54322 0.7595 0.51314 0.0
C538 C 0.57328 0.76166 0.51152 0.0
C539 C 0.60019 0.79136 0.50935 0.0
C540 C 0.5775 0.7337 0.51314 0.0
C541 C 0.51374 0.72858 0.51627 0.0
C542 C 0.59681 0.73398 0.52586 0.0
C543 C 0.59862 0.70674 0.52843 0.0
C544 C 0.58117 0.67864 0.51831 0.0
C545 C 0.56298 0.6789 0.50513 0.0
C546 C 0.56123 0.70623 0.50256 0.0
H547 H 0.49442 0.73251 0.52078 0.0
H548 H 0.50457 0.71303 0.50497 0.0
H549 H 0.51934 0.71571 0.52512 0.0
H550 H 0.60974 0.75501 0.5341 0.0
H551 H 0.61336 0.70755 0.5385 0.0
H552 H 0.64714 0.49193 0.8074 0.0
H553 H 0.7021 0.50367 0.81181 0.0
H554 H 0.71476 0.56791 0.85271 0.0
H555 H 0.65952 0.55584 0.84859 0.0
H556 H 0.76024 0.5603 0.81301 0.0
H557 H 0.73848 0.50623 0.87126 0.0
H558 H 0.70643 0.5006 0.85772 0.0
H559 H 0.72857 0.53716 0.8702 0.0
C560 C 0.66162 0.50869 0.8173 0.0
C561 C 0.64884 0.52273 0.82774 0.0
C562 C 0.69305 0.51539 0.81978 0.0
C563 C 0.71231 0.53621 0.83275 0.0
C564 C 0.70006 0.55122 0.84284 0.0
H565 H 0.90291 0.58911 0.86954 0.0
H566 H 0.85213 0.58695 0.86379 0.0
C567 C 0.66855 0.54444 0.84041 0.0
C568 C 0.74493 0.54153 0.83585 0.0
H569 H 0.79157 0.53155 0.8632 0.0
C570 C 0.76713 0.55405 0.82399 0.0
C571 C 0.7538 0.53326 0.85016 0.0
C572 C 0.73054 0.51829 0.86302 0.0
C573 C 0.79808 0.55873 0.8261 0.0
C574 C 0.80685 0.5503 0.84037 0.0
C575 C 0.78477 0.5381 0.85229 0.0
C576 C 0.83853 0.55316 0.84309 0.0
C577 C 0.82125 0.57297 0.81314 0.0
C578 C 0.84769 0.53486 0.83334 0.0
C579 C 0.8766 0.53586 0.83666 0.0
C580 C 0.8968 0.55505 0.84985 0.0
C581 C 0.88773 0.57376 0.85942 0.0
C582 C 0.85882 0.5727 0.8561 0.0
H583 H 0.8138 0.58555 0.80498 0.0
H584 H 0.84564 0.59001 0.81835 0.0
H585 H 0.8223 0.5536 0.80593 0.0
H586 H 0.83206 0.51911 0.82344 0.0
H587 H 0.88261 0.52079 0.82921 0.0
H588 H 0.10829 0.65191 0.18392 0.0
H589 H 0.1547 0.70511 0.18973 0.0
H590 H 0.18586 0.7019 0.14216 0.0
H591 H 0.13937 0.6487 0.13616 0.0
H592 H 0.21835 0.71787 0.18839 0.0
H593 H 0.19389 0.79112 0.14826 0.0
H594 H 0.16305 0.75268 0.15372 0.0
H595 H 0.1904 0.75507 0.13893 0.0
C596 C 0.12472 0.66267 0.17459 0.0
C597 C 0.12016 0.64601 0.15958 0.0
C598 C 0.15124 0.69306 0.17795 0.0
C599 C 0.17355 0.7075 0.16634 0.0
C600 C 0.16865 0.69137 0.1512 0.0
H601 H 0.37001 0.8595 0.18766 0.0
H602 H 0.32211 0.81116 0.17644 0.0
C603 C 0.14214 0.6609 0.14783 0.0
C604 C 0.20315 0.73827 0.17056 0.0
H605 H 0.24489 0.81624 0.16195 0.0
C606 C 0.22417 0.73939 0.18261 0.0
C607 C 0.21054 0.76625 0.16302 0.0
C608 C 0.18823 0.76648 0.15034 0.0
C609 C 0.25249 0.76777 0.18735 0.0
C610 C 0.26014 0.79567 0.17967 0.0
C611 C 0.23906 0.79466 0.16766 0.0
C612 C 0.28928 0.82639 0.18458 0.0
C613 C 0.27367 0.76785 0.20077 0.0
C614 C 0.28667 0.85138 0.19229 0.0
C615 C 0.31397 0.87907 0.19863 0.0
C616 C 0.34437 0.88229 0.19729 0.0
C617 C 0.34698 0.85783 0.18882 0.0
C618 C 0.31964 0.83011 0.18252 0.0
H619 H 0.26125 0.74627 0.20752 0.0
H620 H 0.29499 0.76841 0.19573 0.0
H621 H 0.28203 0.78933 0.20922 0.0
H622 H 0.26343 0.84898 0.19392 0.0
H623 H 0.31123 0.8977 0.20487 0.0
H624 H 0.5353 0.12803 0.51205 0.0
H625 H 0.5308 0.17585 0.51679 0.0
H626 H 0.59351 0.21913 0.47874 0.0
H627 H 0.59826 0.17151 0.47393 0.0
H628 H 0.61255 0.25627 0.50818 0.0
H629 H 0.48547 0.21365 0.49123 0.0
H630 H 0.49154 0.18906 0.50439 0.0
H631 H 0.50565 0.19252 0.48454 0.0
C632 C 0.54769 0.14748 0.5045 0.0
C633 C 0.56723 0.14598 0.49265 0.0
C634 C 0.54494 0.17473 0.50716 0.0
C635 C 0.5616 0.2009 0.49802 0.0
C636 C 0.58033 0.1991 0.48587 0.0
H637 H 0.55498 0.37872 0.50824 0.0
H638 H 0.55315 0.32994 0.49694 0.0
C639 C 0.58298 0.17183 0.48313 0.0
C640 C 0.56198 0.2312 0.50217 0.0
H641 H 0.51414 0.26404 0.5065 0.0
C642 C 0.5911 0.25807 0.50765 0.0
C643 C 0.53401 0.23352 0.50135 0.0
C644 C 0.50241 0.20575 0.49492 0.0
C645 C 0.5928 0.28691 0.51287 0.0
C646 C 0.5646 0.28882 0.51272 0.0
C647 C 0.53566 0.26236 0.50669 0.0
C648 C 0.56463 0.31772 0.5195 0.0
C649 C 0.62472 0.31506 0.51865 0.0
C650 C 0.57114 0.32657 0.53592 0.0
C651 C 0.57199 0.35416 0.54242 0.0
C652 C 0.56637 0.37356 0.5326 0.0
C653 C 0.55926 0.36427 0.51615 0.0
C654 C 0.5583 0.3365 0.50966 0.0
H655 H 0.64486 0.31221 0.51443 0.0
H656 H 0.62738 0.33754 0.51453 0.0
H657 H 0.62639 0.31729 0.53191 0.0
H658 H 0.57552 0.31204 0.54374 0.0
H659 H 0.57674 0.36012 0.55518 0.0
H660 H 0.39034 0.48336 0.86073 0.0
H661 H 0.33869 0.48044 0.86324 0.0
H662 H 0.359 0.54182 0.82482 0.0
H663 H 0.41053 0.54469 0.82211 0.0
H664 H 0.33327 0.53402 0.871 0.0
H665 H 0.26613 0.47144 0.81368 0.0
H666 H 0.30076 0.46991 0.82076 0.0
H667 H 0.30553 0.5043 0.81145 0.0
C668 C 0.38359 0.49574 0.8526 0.0
C669 C 0.40465 0.51437 0.84126 0.0
C670 C 0.35406 0.49405 0.85406 0.0
C671 C 0.34491 0.51069 0.84413 0.0
C672 C 0.36533 0.52832 0.83241 0.0
H673 H 0.21819 0.58325 0.86607 0.0
H674 H 0.26251 0.5758 0.85794 0.0
C675 C 0.39489 0.53009 0.83095 0.0
C676 C 0.31567 0.51233 0.84714 0.0
H677 H 0.24477 0.49785 0.82987 0.0
C678 C 0.31382 0.5259 0.86204 0.0
C679 C 0.29029 0.50159 0.83546 0.0
C680 C 0.29052 0.48572 0.81948 0.0
C681 C 0.28758 0.52963 0.86549 0.0
C682 C 0.26271 0.51991 0.85363 0.0
C683 C 0.26411 0.50562 0.83885 0.0
C684 C 0.23502 0.52425 0.8566 0.0
C685 C 0.28659 0.54382 0.88184 0.0
C686 C 0.20464 0.49769 0.8579 0.0
C687 C 0.17926 0.50186 0.86258 0.0
C688 C 0.1839 0.53269 0.86599 0.0
C689 C 0.21401 0.55922 0.86382 0.0
C690 C 0.23931 0.55501 0.85914 0.0
H691 H 0.30372 0.54334 0.89064 0.0
H692 H 0.293 0.56905 0.88103 0.0
H693 H 0.26224 0.5308 0.88637 0.0
H694 H 0.20089 0.47376 0.85596 0.0
H695 H 0.15646 0.48095 0.86426 0.0
H696 H 0.86274 0.40445 0.19895 0.0
H697 H 0.81611 0.35099 0.19854 0.0
H698 H 0.83431 0.32943 0.15059 0.0
H699 H 0.88117 0.38301 0.15086 0.0
H700 H 0.77017 0.31671 0.15539 0.0
H701 H 0.81148 0.26319 0.19987 0.0
H702 H 0.81749 0.30187 0.20637 0.0
H703 H 0.83867 0.29783 0.18983 0.0
C704 C 0.85708 0.38825 0.18837 0.0
C705 C 0.87566 0.39796 0.17493 0.0
C706 C 0.83052 0.35766 0.18819 0.0
C707 C 0.82201 0.33622 0.1746 0.0
C708 C 0.84067 0.34563 0.16123 0.0
H709 H 0.66388 0.13899 0.17397 0.0
H710 H 0.71533 0.18561 0.16892 0.0
C711 C 0.86744 0.37619 0.16142 0.0
C712 C 0.79244 0.30478 0.17408 0.0
H713 H 0.75543 0.23609 0.19309 0.0
C714 C 0.76703 0.29887 0.16348 0.0
C715 C 0.78859 0.28151 0.18455 0.0
C716 C 0.81558 0.28619 0.19572 0.0
C717 C 0.73732 0.27081 0.16357 0.0
C718 C 0.73298 0.2483 0.17461 0.0
C719 C 0.75882 0.25354 0.18471 0.0
C720 C 0.70135 0.22009 0.17654 0.0
C721 C 0.71064 0.26565 0.15203 0.0
C722 C 0.67658 0.22416 0.18246 0.0
C723 C 0.64733 0.1977 0.18539 0.0
C724 C 0.64231 0.16666 0.18243 0.0
C725 C 0.66697 0.16262 0.17619 0.0
C726 C 0.69636 0.18916 0.17338 0.0
H727 H 0.71985 0.28071 0.14179 0.0
H728 H 0.69646 0.24023 0.14735 0.0
H729 H 0.69443 0.27208 0.15834 0.0
H730 H 0.68013 0.24786 0.18517 0.0
H731 H 0.62869 0.20151 0.19011 0.0
H732 H 0.98452 0.46877 0.11607 0.0
H733 H 0.99389 0.47234 0.08755 0.0
H734 H 0.04175 0.57503 0.09442 0.0
H735 H 0.03324 0.57171 0.12299 0.0
H736 H 0.9701 0.49628 0.06721 0.0
H737 H 0.10195 0.56336 0.06609 0.0
H738 H 0.08152 0.54574 0.08373 0.0
H739 H 0.08706 0.58367 0.07871 0.0
C740 C 0.99748 0.49214 0.11155 0.0
C741 C 0.00802 0.51995 0.12179 0.0
C742 C 0.00284 0.49414 0.09525 0.0
C743 C 0.01884 0.52395 0.08886 0.0
C744 C 0.03006 0.55178 0.09912 0.0
H745 H 0.02959 0.58892 0.9949 0.0
H746 H 0.03197 0.58326 0.02364 0.0
C747 C 0.02495 0.54983 0.11545 0.0
C748 C 0.02108 0.5258 0.07132 0.0
H749 H 0.07289 0.5604 0.04195 0.0
C750 C 0.99264 0.50995 0.06168 0.0
C751 C 0.0505 0.54372 0.06411 0.0
C752 C 0.08201 0.55982 0.07369 0.0
C753 C 0.99271 0.51224 0.04512 0.0
C754 C 0.02198 0.53078 0.03801 0.0
C755 C 0.0505 0.54631 0.04753 0.0
C756 C 0.02303 0.53486 0.0207 0.0
C757 C 0.96144 0.49552 0.03532 0.0
C758 C 0.01768 0.50963 0.00964 0.0
C759 C 0.0163 0.51277 0.99325 0.0
C760 C 0.02008 0.54116 0.98769 0.0
C761 C 0.0262 0.56665 0.99885 0.0
C762 C 0.02779 0.56355 0.01523 0.0
H763 H 0.94053 0.48538 0.04291 0.0
H764 H 0.95961 0.51232 0.02755 0.0
H765 H 0.96043 0.47578 0.02744 0.0
H766 H 0.01397 0.48732 0.01371 0.0
H767 H 0.01131 0.49264 0.98495 0.0
H768 H 0.57729 0.06755 0.45607 0.0
H769 H 0.57536 0.07257 0.42737 0.0
H770 H 0.51617 0.97045 0.41902 0.0
H771 H 0.51828 0.96505 0.44772 0.0
H772 H 0.56547 0.99638 0.39842 0.0
H773 H 0.49934 0.06251 0.40047 0.0
H774 H 0.5349 0.08078 0.41339 0.0
H775 H 0.50233 0.04217 0.41714 0.0
C776 C 0.56377 0.04611 0.44817 0.0
C777 C 0.5478 0.01589 0.45424 0.0
C778 C 0.56256 0.04907 0.43176 0.0
C779 C 0.54516 0.02193 0.42111 0.0
C780 C 0.52957 0.99171 0.42707 0.0
H781 H 0.4943 0.02517 0.32163 0.0
H782 H 0.49347 0.01594 0.34998 0.0
C783 C 0.53081 0.98869 0.44348 0.0
C784 C 0.54376 0.02507 0.40372 0.0
H785 H 0.52193 0.05994 0.37582 0.0
C786 C 0.55581 0.01014 0.39345 0.0
C787 C 0.53071 0.04263 0.39727 0.0
C788 C 0.51579 0.05769 0.40761 0.0
C789 C 0.55585 0.01292 0.3769 0.0
C790 C 0.54403 0.03161 0.37053 0.0
C791 C 0.53129 0.04591 0.38076 0.0
C792 C 0.54465 0.03665 0.35329 0.0
C793 C 0.56818 0.99552 0.36638 0.0
C794 C 0.57373 0.05164 0.34579 0.0
C795 C 0.57427 0.0567 0.32957 0.0
C796 C 0.54573 0.0471 0.32054 0.0
C797 C 0.51666 0.0324 0.32816 0.0
C798 C 0.51615 0.0273 0.34438 0.0
H799 H 0.56791 0.97557 0.37235 0.0
H800 H 0.55378 0.98583 0.35489 0.0
H801 H 0.59323 0.01239 0.3637 0.0
H802 H 0.59606 0.05961 0.35252 0.0
H803 H 0.59704 0.06784 0.32406 0.0
H804 H 0.56325 0.51007 0.78595 0.0
H805 H 0.56656 0.51331 0.75702 0.0
H806 H 0.50275 0.55125 0.75711 0.0
H807 H 0.49949 0.54843 0.78602 0.0
H808 H 0.51857 0.48527 0.73253 0.0
H809 H 0.57972 0.61744 0.73479 0.0
H810 H 0.57641 0.59626 0.75225 0.0
H811 H 0.54311 0.59954 0.74494 0.0
C812 C 0.54986 0.51907 0.77983 0.0
C813 C 0.53137 0.52933 0.78836 0.0
C814 C 0.5518 0.5209 0.7633 0.0
C815 C 0.53538 0.53307 0.75499 0.0
C816 C 0.51622 0.54249 0.76336 0.0
H817 H 0.5169 0.56703 0.65644 0.0
H818 H 0.51202 0.56052 0.6851 0.0
C819 C 0.51431 0.54076 0.77989 0.0
C820 C 0.53823 0.53585 0.73754 0.0
H821 H 0.56163 0.58955 0.70914 0.0
C822 C 0.52812 0.50806 0.72739 0.0
C823 C 0.55076 0.56565 0.73092 0.0
C824 C 0.56341 0.59648 0.74128 0.0
C825 C 0.52955 0.5092 0.71073 0.0
C826 C 0.54184 0.53897 0.70412 0.0
C827 C 0.5521 0.56675 0.71427 0.0
C828 C 0.54426 0.54192 0.68668 0.0
C829 C 0.51725 0.47849 0.70033 0.0
C830 C 0.5642 0.53383 0.67811 0.0
C831 C 0.56718 0.53767 0.66174 0.0
C832 C 0.55042 0.54989 0.65367 0.0
C833 C 0.53044 0.55793 0.66232 0.0
C834 C 0.52749 0.55408 0.67868 0.0
H835 H 0.50168 0.45732 0.70688 0.0
H836 H 0.5036 0.47839 0.68954 0.0
H837 H 0.53778 0.47615 0.69632 0.0
H838 H 0.57789 0.52505 0.68414 0.0
H839 H 0.58316 0.53175 0.65548 0.0
H840 H 0.52077 0.96609 0.54336 0.0
H841 H 0.51715 0.96207 0.57221 0.0
H842 H 0.58012 0.0637 0.58025 0.0
H843 H 0.58373 0.0681 0.55142 0.0
H844 H 0.56629 0.97942 0.59539 0.0
H845 H 0.50396 0.04811 0.60665 0.0
H846 H 0.50666 0.03316 0.58685 0.0
H847 H 0.5401 0.06874 0.59629 0.0
C848 C 0.53388 0.98762 0.55123 0.0
C849 C 0.55251 0.01743 0.54504 0.0
C850 C 0.53173 0.98526 0.56772 0.0
C851 C 0.54798 0.01264 0.57834 0.0
C852 C 0.56685 0.04237 0.57224 0.0
H853 H 0.5703 0.04681 0.68161 0.0
H854 H 0.57301 0.05133 0.65272 0.0
C855 C 0.569 0.04479 0.55575 0.0
C856 C 0.5458 0.00993 0.5958 0.0
H857 H 0.52269 0.03439 0.62947 0.0
C858 C 0.55662 0.9913 0.60285 0.0
C859 C 0.53322 0.02553 0.60547 0.0
C860 C 0.52004 0.04479 0.59845 0.0
C861 C 0.55569 0.98824 0.61937 0.0
C862 C 0.54312 0.00385 0.62903 0.0
C863 C 0.53233 0.02251 0.622 0.0
C864 C 0.54093 0.00103 0.64648 0.0
C865 C 0.56875 0.96889 0.6264 0.0
C866 C 0.52155 0.97133 0.6525 0.0
C867 C 0.5198 0.96868 0.66898 0.0
C868 C 0.5373 0.99574 0.67975 0.0
C869 C 0.55628 0.02557 0.67365 0.0
C870 C 0.55799 0.02818 0.65716 0.0
H871 H 0.58448 0.96513 0.61813 0.0
H872 H 0.58247 0.98074 0.6379 0.0
H873 H 0.54861 0.94514 0.62878 0.0
H874 H 0.50765 0.95021 0.64444 0.0
H875 H 0.50451 0.94547 0.67328 0.0
H876 H 0.54991 0.50143 0.88173 0.0
H877 H 0.54775 0.50018 0.91075 0.0
H878 H 0.50005 0.5552 0.91171 0.0
H879 H 0.50161 0.55624 0.88265 0.0
H880 H 0.57431 0.5519 0.93362 0.0
H881 H 0.44271 0.48013 0.93755 0.0
H882 H 0.46211 0.48261 0.91907 0.0
H883 H 0.45626 0.51476 0.92649 0.0
C884 C 0.5388 0.51316 0.88807 0.0
C885 C 0.52588 0.5289 0.87982 0.0
C886 C 0.5376 0.51241 0.90466 0.0
C887 C 0.52335 0.5272 0.91334 0.0
C888 C 0.51057 0.54306 0.9052 0.0
H889 H 0.50508 0.55253 0.01571 0.0
H890 H 0.50278 0.55371 0.98658 0.0
C891 C 0.5117 0.54381 0.88859 0.0
C892 C 0.52297 0.52695 0.93097 0.0
H893 H 0.47352 0.50206 0.96201 0.0
C894 C 0.55228 0.54094 0.93982 0.0
C895 C 0.49417 0.51279 0.93903 0.0
C896 C 0.46199 0.49646 0.93007 0.0
C897 C 0.55361 0.54126 0.95654 0.0
C898 C 0.52484 0.52675 0.96458 0.0
C899 C 0.49551 0.51313 0.95577 0.0
C900 C 0.52483 0.52485 0.98211 0.0
C901 C 0.58581 0.55746 0.96548 0.0
C902 C 0.53726 0.50759 0.98916 0.0
C903 C 0.53847 0.50674 0.00574 0.0
C904 C 0.52715 0.52306 0.0156 0.0
C905 C 0.51382 0.53956 0.00845 0.0
C906 C 0.51261 0.54039 0.99183 0.0
H907 H 0.605 0.57427 0.95811 0.0
H908 H 0.58558 0.57078 0.97668 0.0
H909 H 0.59176 0.53913 0.96873 0.0
H910 H 0.54615 0.49485 0.98182 0.0
H911 H 0.54824 0.49323 0.01083 0.0
H912 H 0.05434 0.54514 0.21446 0.0
H913 H 0.05381 0.54013 0.2433 0.0
H914 H 0.95127 0.4809 0.23947 0.0
H915 H 0.95154 0.48523 0.21068 0.0
H916 H 0.02409 0.55743 0.26636 0.0
H917 H 0.9778 0.42705 0.26356 0.0
H918 H 0.9927 0.44994 0.2464 0.0
H919 H 0.95293 0.43758 0.25243 0.0
C920 C 0.03166 0.53095 0.21973 0.0
C921 C 0.00299 0.51538 0.2102 0.0
C922 C 0.03143 0.52813 0.23622 0.0
C923 C 0.00257 0.50967 0.24348 0.0
C924 C 0.97389 0.4946 0.23406 0.0
H925 H 0.94421 0.46678 0.33989 0.0
H926 H 0.94731 0.47308 0.31116 0.0
C927 C 0.97409 0.49725 0.21759 0.0
C928 C 0.0023 0.50668 0.26095 0.0
H929 H 0.97884 0.45224 0.289 0.0
C930 C 0.01443 0.53447 0.27132 0.0
C931 C 0.98969 0.47668 0.26738 0.0
C932 C 0.97782 0.44614 0.25688 0.0
C933 C 0.01356 0.53299 0.28797 0.0
C934 C 1.00054 0.50296 0.29437 0.0
C935 C 0.98865 0.47521 0.28402 0.0
C936 C 0.99892 0.49974 0.3118 0.0
C937 C 0.02586 0.56345 0.29858 0.0
C938 C 0.02694 0.5124 0.32162 0.0
C939 C 0.02528 0.50864 0.33801 0.0
C940 C 0.99552 0.49205 0.34489 0.0
C941 C 0.9675 0.47935 0.33497 0.0
C942 C 0.9692 0.48307 0.31857 0.0
H943 H 0.02839 0.58348 0.2918 0.0
H944 H 0.00969 0.56013 0.30844 0.0
H945 H 0.04969 0.57025 0.304 0.0
H946 H 0.05011 0.52479 0.31655 0.0
H947 H 0.04732 0.51822 0.34525 0.0
loop_
_geom_bond_atom_site_label_1
_geom_bond_atom_site_label_2
_geom_bond_distance
_geom_bond_site_symmetry_2
_ccdc_geom_bond_type
Zn0 O6 1.969 . S
Zn0 O7 1.965 . S
Zn0 O11 2.024 . S
Zn0 O16 1.969 . S
Zn1 O8 1.969 . S
Zn1 O14 1.969 . S
Zn1 O15 1.965 . S
Zn1 O17 2.024 . S
C2 O3 1.229 . S
C2 O11 1.058 . S
O3 C2 1.229 . S
C4 O5 1.229 . S
C4 O17 1.058 . S
O5 C4 1.229 . S
O6 Zn0 1.969 . S
O6 C9 1.267 . S
O7 Zn0 1.965 . S
O7 C18 1.260 1_455 S
O8 Zn1 1.969 . S
O8 C18 1.258 . S
C9 O6 1.267 . S
C9 O10 1.228 . S
O10 C9 1.228 . S
O11 Zn0 2.024 . S
O11 C2 1.058 . S
C12 O13 1.228 . S
C12 O14 1.267 . S
O13 C12 1.228 . S
O14 Zn1 1.969 . S
O14 C12 1.267 . S
O15 Zn1 1.965 . S
O15 C19 1.260 1_655 S
O16 Zn0 1.969 . S
O16 C19 1.258 . S
O17 Zn1 2.024 . S
O17 C4 1.058 . S
C18 O7 1.260 1_655 S
C18 O8 1.258 . S
C19 O15 1.260 1_455 S
C19 O16 1.258 . S
Zn20 O26 1.969 . S
Zn20 O27 1.965 . S
Zn20 O31 2.024 . S
Zn20 O36 1.969 . S
Zn21 O28 1.969 . S
Zn21 O34 1.969 . S
Zn21 O35 1.970 . S
Zn21 O37 2.024 . S
C22 O23 1.229 . S
C22 O31 1.058 . S
O23 C22 1.229 . S
C24 O25 1.229 . S
C24 O37 1.058 . S
O25 C24 1.229 . S
O26 Zn20 1.969 . S
O26 C29 1.267 . S
O27 Zn20 1.965 . S
O27 C38 1.260 . S
O28 Zn21 1.969 . S
O28 C38 1.258 1_565 S
C29 O26 1.267 . S
C29 O30 1.228 . S
O30 C29 1.228 . S
O31 Zn20 2.024 . S
O31 C22 1.058 . S
C32 O33 1.228 . S
C32 O34 1.267 . S
O33 C32 1.228 . S
O34 Zn21 1.969 . S
O34 C32 1.267 . S
O35 Zn21 1.970 . S
O35 C39 1.252 1_565 S
O36 Zn20 1.969 . S
O36 C39 1.258 . S
O37 Zn21 2.024 . S
O37 C24 1.058 . S
C38 O27 1.260 . S
C38 O28 1.258 1_545 S
C39 O35 1.252 1_545 S
C39 O36 1.258 . S
Zn40 O46 1.969 . S
Zn40 O47 1.965 . S
Zn40 O51 2.024 . S
Zn40 O56 1.969 . S
Zn41 O48 1.969 . S
Zn41 O54 1.969 . S
Zn41 O55 1.965 . S
Zn41 O57 2.024 . S
C42 O43 1.229 . S
C42 O51 1.058 . S
O43 C42 1.229 . S
C44 O45 1.229 . S
C44 O57 1.058 . S
O45 C44 1.229 . S
O46 Zn40 1.969 . S
O46 C49 1.267 . S
O47 Zn40 1.965 . S
O47 C58 1.260 . S
O48 Zn41 1.969 . S
O48 C58 1.258 . S
C49 O46 1.267 . S
C49 O50 1.228 . S
O50 C49 1.228 . S
O51 Zn40 2.024 . S
O51 C42 1.058 . S
C52 O53 1.228 . S
C52 O54 1.267 . S
O53 C52 1.228 . S
O54 Zn41 1.969 . S
O54 C52 1.267 . S
O55 Zn41 1.965 . S
O55 C59 1.260 . S
O56 Zn40 1.969 . S
O56 C59 1.258 . S
O57 Zn41 2.024 . S
O57 C44 1.058 . S
C58 O47 1.260 . S
C58 O48 1.258 . S
C59 O55 1.260 . S
C59 O56 1.258 . S
C60 C61 1.264 . S
C60 C65 1.479 . S
C60 C70 1.465 . S
C61 C60 1.264 . S
C61 C63 1.339 . S
C61 H88 0.931 . S
C62 C63 1.395 . S
C62 C64 1.320 . S
C63 C61 1.339 . S
C63 C62 1.395 . S
C63 H89 0.929 . S
C64 C62 1.320 . S
C64 C65 1.405 . S
C64 H90 0.930 . S
C65 C60 1.479 . S
C65 C64 1.405 . S
C65 H91 0.931 . S
U66 O67 2.454 . S
U66 O68 2.458 1_545 S
U66 C69 2.984 1_545 S
U66 C70 2.847 . S
U66 C83 2.882 . S
U66 O84 2.441 . S
U66 O85 2.420 . S
U66 O86 2.455 . S
U66 O87 2.449 . S
O67 U66 2.454 . S
O67 C69 1.353 1_545 S
O68 U66 2.458 1_565 S
O68 C69 1.286 . S
C69 U66 2.984 1_565 S
C69 O67 1.353 1_565 S
C69 O68 1.286 . S
C69 C71 1.363 . S
C70 C60 1.465 . S
C70 U66 2.847 . S
C70 O84 1.249 . S
C70 O85 1.202 . S
C71 C69 1.363 . S
C71 C73 1.408 . S
C71 C76 1.342 . S
C72 C73 1.310 . S
C72 C75 1.461 . S
C72 H92 0.932 . S
C73 C71 1.408 . S
C73 C72 1.310 . S
C73 H93 0.930 . S
C74 C75 1.474 . S
C74 C76 1.285 . S
C74 H94 0.929 . S
C75 C72 1.461 . S
C75 C74 1.474 . S
C76 C71 1.342 . S
C76 C74 1.285 . S
C76 H95 0.930 . S
C77 C80 1.424 . S
C77 C82 1.245 . S
C77 C83 1.428 . S
C78 C81 1.260 . S
C78 C82 1.477 . S
C78 H96 0.932 . S
C79 C80 1.384 . S
C79 C81 1.479 . S
C79 H97 0.929 . S
C80 C77 1.424 . S
C80 C79 1.384 . S
C80 H98 0.928 . S
C81 C78 1.260 . S
C81 C79 1.479 . S
C82 C77 1.245 . S
C82 C78 1.477 . S
C82 H99 0.932 1_545 S
C83 U66 2.882 . S
C83 C77 1.428 . S
C83 O86 1.301 . S
C83 O87 1.282 . S
O84 U66 2.441 . S
O84 C70 1.249 . S
O85 U66 2.420 . S
O85 C70 1.202 . S
O86 U66 2.455 . S
O86 C83 1.301 . S
O87 U66 2.449 . S
O87 C83 1.282 . S
H88 C61 0.931 . S
H89 C63 0.929 . S
H90 C64 0.930 . S
H91 C65 0.931 . S
H92 C72 0.932 . S
H93 C73 0.930 . S
H94 C74 0.929 . S
H95 C76 0.930 . S
H96 C78 0.932 . S
H97 C79 0.929 . S
H98 C80 0.928 . S
H99 C82 0.932 1_565 S
C100 C101 1.264 . S
C100 C105 1.479 . S
C100 C110 1.465 . S
C101 C100 1.264 . S
C101 C103 1.339 . S
C101 H128 0.931 . S
C102 C103 1.395 . S
C102 C104 1.320 . S
C103 C101 1.339 . S
C103 C102 1.395 . S
C103 H129 0.929 . S
C104 C102 1.320 . S
C104 C105 1.405 . S
C104 H130 0.930 . S
C105 C100 1.479 . S
C105 C104 1.405 . S
C105 H131 0.931 . S
U106 O107 2.454 . S
U106 O108 2.458 . S
U106 C109 2.984 . S
U106 C110 2.847 . S
U106 C123 2.882 . S
U106 O124 2.441 . S
U106 O125 2.420 . S
U106 O126 2.455 . S
U106 O127 2.449 . S
O107 U106 2.454 . S
O107 C109 1.353 . S
O108 U106 2.458 . S
O108 C109 1.286 . S
C109 U106 2.984 . S
C109 O107 1.353 . S
C109 O108 1.286 . S
C109 C111 1.363 . S
C110 C100 1.465 . S
C110 U106 2.847 . S
C110 O124 1.249 . S
C110 O125 1.202 . S
C111 C109 1.363 . S
C111 C113 1.408 . S
C111 C116 1.342 . S
C112 C113 1.310 . S
C112 C115 1.461 . S
C112 H132 0.932 . S
C113 C111 1.408 . S
C113 C112 1.310 . S
C113 H133 0.930 . S
C114 C115 1.474 . S
C114 C116 1.285 . S
C114 H134 0.929 . S
C115 C112 1.461 . S
C115 C114 1.474 . S
C116 C111 1.342 . S
C116 C114 1.285 . S
C116 H135 0.930 . S
C117 C120 1.424 . S
C117 C122 1.245 . S
C117 C123 1.428 . S
C118 C121 1.260 . S
C118 C122 1.477 . S
C118 H136 0.932 . S
C119 C120 1.384 . S
C119 C121 1.479 . S
C119 H137 0.929 . S
C120 C117 1.424 . S
C120 C119 1.384 . S
C120 H138 0.928 . S
C121 C118 1.260 . S
C121 C119 1.479 . S
C122 C117 1.245 . S
C122 C118 1.477 . S
C122 H139 0.932 . S
C123 U106 2.882 . S
C123 C117 1.428 . S
C123 O126 1.301 . S
C123 O127 1.282 . S
O124 U106 2.441 . S
O124 C110 1.249 . S
O125 U106 2.420 . S
O125 C110 1.202 . S
O126 U106 2.455 . S
O126 C123 1.301 . S
O127 U106 2.449 . S
O127 C123 1.282 . S
H128 C101 0.931 . S
H129 C103 0.929 . S
H130 C104 0.930 . S
H131 C105 0.931 . S
H132 C112 0.932 . S
H133 C113 0.930 . S
H134 C114 0.929 . S
H135 C116 0.930 . S
H136 C118 0.932 . S
H137 C119 0.929 . S
H138 C120 0.928 . S
H139 C122 0.932 . S
C140 C141 1.264 . S
C140 C145 1.479 . S
C140 C150 1.465 . S
C141 C140 1.264 . S
C141 C143 1.339 . S
C141 H168 0.931 . S
C142 C143 1.395 . S
C142 C144 1.320 . S
C143 C141 1.339 . S
C143 C142 1.395 . S
C143 H169 0.929 . S
C144 C142 1.320 . S
C144 C145 1.405 . S
C144 H170 0.930 . S
C145 C140 1.479 . S
C145 C144 1.405 . S
C145 H171 0.931 . S
U146 O147 2.454 . S
U146 O148 2.458 . S
U146 C149 2.984 . S
U146 C150 2.847 1_455 S
U146 C163 2.882 . S
U146 O164 2.441 . S
U146 O165 2.420 1_455 S
U146 O166 2.455 . S
U146 O167 2.449 . S
O147 U146 2.454 . S
O147 C149 1.353 . S
O148 U146 2.458 . S
O148 C149 1.286 . S
C149 U146 2.984 . S
C149 O147 1.353 . S
C149 O148 1.286 . S
C149 C151 1.363 . S
C150 C140 1.465 . S
C150 U146 2.847 1_655 S
C150 O164 1.249 1_655 S
C150 O165 1.202 . S
C151 C149 1.363 . S
C151 C153 1.408 . S
C151 C156 1.342 . S
C152 C153 1.310 . S
C152 C155 1.461 . S
C152 H172 0.932 . S
C153 C151 1.408 . S
C153 C152 1.310 . S
C153 H173 0.930 . S
C154 C155 1.474 . S
C154 C156 1.285 . S
C154 H174 0.929 . S
C155 C152 1.461 . S
C155 C154 1.474 . S
C156 C151 1.342 . S
C156 C154 1.285 . S
C156 H175 0.930 . S
C157 C160 1.424 . S
C157 C162 1.245 . S
C157 C163 1.428 . S
C158 C161 1.260 . S
C158 C162 1.477 . S
C158 H176 0.932 . S
C159 C160 1.384 . S
C159 C161 1.479 . S
C159 H177 0.929 1_455 S
C160 C157 1.424 . S
C160 C159 1.384 . S
C160 H178 0.928 1_455 S
C161 C158 1.260 . S
C161 C159 1.479 . S
C162 C157 1.245 . S
C162 C158 1.477 . S
C162 H179 0.932 . S
C163 U146 2.882 . S
C163 C157 1.428 . S
C163 O166 1.301 . S
C163 O167 1.282 . S
O164 U146 2.441 . S
O164 C150 1.249 1_455 S
O165 U146 2.420 1_655 S
O165 C150 1.202 . S
O166 U146 2.455 . S
O166 C163 1.301 . S
O167 U146 2.449 . S
O167 C163 1.282 . S
H168 C141 0.931 . S
H169 C143 0.929 . S
H170 C144 0.930 . S
H171 C145 0.931 . S
H172 C152 0.932 . S
H173 C153 0.930 . S
H174 C154 0.929 . S
H175 C156 0.930 . S
H176 C158 0.932 . S
H177 C159 0.929 1_655 S
H178 C160 0.928 1_655 S
H179 C162 0.932 . S
C180 C181 1.264 . S
C180 C185 1.479 . S
C180 C190 1.465 . S
C181 C180 1.264 . S
C181 C183 1.339 . S
C181 H208 0.931 . S
C182 C183 1.395 . S
C182 C184 1.320 . S
C183 C181 1.339 . S
C183 C182 1.395 . S
C183 H209 0.929 . S
C184 C182 1.320 . S
C184 C185 1.405 . S
C184 H210 0.930 . S
C185 C180 1.479 . S
C185 C184 1.405 . S
C185 H211 0.931 . S
U186 O187 2.454 . S
U186 O188 2.458 . S
U186 C189 2.984 . S
U186 C190 2.847 1_455 S
U186 C203 2.882 . S
U186 O204 2.441 1_455 S
U186 O205 2.420 1_455 S
U186 O206 2.455 . S
U186 O207 2.449 1_455 S
O187 U186 2.454 . S
O187 C189 1.353 . S
O188 U186 2.458 . S
O188 C189 1.286 . S
C189 U186 2.984 . S
C189 O187 1.353 . S
C189 O188 1.286 . S
C189 C191 1.363 . S
C190 C180 1.465 . S
C190 U186 2.847 1_655 S
C190 O204 1.249 . S
C190 O205 1.202 . S
C191 C189 1.363 . S
C191 C193 1.408 . S
C191 C196 1.342 . S
C192 C193 1.310 . S
C192 C195 1.461 . S
C192 H212 0.932 . S
C193 C191 1.408 . S
C193 C192 1.310 . S
C193 H213 0.930 . S
C194 C195 1.474 . S
C194 C196 1.285 . S
C194 H214 0.929 . S
C195 C192 1.461 . S
C195 C194 1.474 . S
C196 C191 1.342 . S
C196 C194 1.285 . S
C196 H215 0.930 . S
C197 C200 1.424 1_455 S
C197 C202 1.245 . S
C197 C203 1.428 . S
C198 C201 1.260 . S
C198 C202 1.477 . S
C198 H216 0.932 . S
C199 C200 1.384 . S
C199 C201 1.479 1_655 S
C199 H217 0.929 . S
C200 C197 1.424 1_655 S
C200 C199 1.384 . S
C200 H218 0.928 . S
C201 C198 1.260 . S
C201 C199 1.479 1_455 S
C202 C197 1.245 . S
C202 C198 1.477 . S
C202 H219 0.932 . S
C203 U186 2.882 . S
C203 C197 1.428 . S
C203 O206 1.301 . S
C203 O207 1.282 1_455 S
O204 U186 2.441 1_655 S
O204 C190 1.249 . S
O205 U186 2.420 1_655 S
O205 C190 1.202 . S
O206 U186 2.455 . S
O206 C203 1.301 . S
O207 U186 2.449 1_655 S
O207 C203 1.282 1_655 S
H208 C181 0.931 . S
H209 C183 0.929 . S
H210 C184 0.930 . S
H211 C185 0.931 . S
H212 C192 0.932 . S
H213 C193 0.930 . S
H214 C194 0.929 . S
H215 C196 0.930 . S
H216 C198 0.932 . S
H217 C199 0.929 . S
H218 C200 0.928 . S
H219 C202 0.932 . S
C220 C221 1.264 . S
C220 C225 1.479 . S
C220 C230 1.465 . S
C221 C220 1.264 . S
C221 C223 1.339 . S
C221 H248 0.931 . S
C222 C223 1.395 . S
C222 C224 1.320 . S
C223 C221 1.339 . S
C223 C222 1.395 . S
C223 H249 0.929 . S
C224 C222 1.320 . S
C224 C225 1.405 . S
C224 H250 0.930 . S
C225 C220 1.479 . S
C225 C224 1.405 . S
C225 H251 0.931 . S
U226 O227 2.454 . S
U226 O228 2.458 . S
U226 C229 2.984 . S
U226 C230 2.847 1_545 S
U226 C243 2.882 . S
U226 O244 2.441 1_545 S
U226 O245 2.420 1_545 S
U226 O246 2.455 . S
U226 O247 2.449 1_545 S
O227 U226 2.454 . S
O227 C229 1.353 . S
O228 U226 2.458 . S
O228 C229 1.286 . S
C229 U226 2.984 . S
C229 O227 1.353 . S
C229 O228 1.286 . S
C229 C231 1.363 . S
C230 C220 1.465 . S
C230 U226 2.847 1_565 S
C230 O244 1.249 . S
C230 O245 1.202 . S
C231 C229 1.363 . S
C231 C233 1.408 . S
C231 C236 1.342 . S
C232 C233 1.310 . S
C232 C235 1.461 . S
C232 H252 0.932 . S
C233 C231 1.408 . S
C233 C232 1.310 . S
C233 H253 0.930 . S
C234 C235 1.474 . S
C234 C236 1.285 . S
C234 H254 0.929 . S
C235 C232 1.461 . S
C235 C234 1.474 . S
C236 C231 1.342 . S
C236 C234 1.285 . S
C236 H255 0.930 . S
C237 C240 1.424 1_545 S
C237 C242 1.245 . S
C237 C243 1.428 . S
C238 C241 1.260 . S
C238 C242 1.477 . S
C238 H256 0.932 . S
C239 C240 1.384 . S
C239 C241 1.479 1_565 S
C239 H257 0.929 . S
C240 C237 1.424 1_565 S
C240 C239 1.384 . S
C240 H258 0.928 . S
C241 C238 1.260 . S
C241 C239 1.479 1_545 S
C242 C237 1.245 . S
C242 C238 1.477 . S
C242 H259 0.932 . S
C243 U226 2.882 . S
C243 C237 1.428 . S
C243 O246 1.301 . S
C243 O247 1.282 1_545 S
O244 U226 2.441 1_565 S
O244 C230 1.249 . S
O245 U226 2.420 1_565 S
O245 C230 1.202 . S
O246 U226 2.455 . S
O246 C243 1.301 . S
O247 U226 2.449 1_565 S
O247 C243 1.282 1_565 S
H248 C221 0.931 . S
H249 C223 0.929 . S
H250 C224 0.930 . S
H251 C225 0.931 . S
H252 C232 0.932 . S
H253 C233 0.930 . S
H254 C234 0.929 . S
H255 C236 0.930 . S
H256 C238 0.932 . S
H257 C239 0.929 . S
H258 C240 0.928 . S
H259 C242 0.932 . S
C260 C261 1.264 . S
C260 C265 1.479 . S
C260 C270 1.465 . S
C261 C260 1.264 . S
C261 C263 1.339 . S
C261 H288 0.931 . S
C262 C263 1.395 . S
C262 C264 1.320 . S
C263 C261 1.339 . S
C263 C262 1.395 . S
C263 H289 0.929 . S
C264 C262 1.320 . S
C264 C265 1.405 . S
C264 H290 0.930 . S
C265 C260 1.479 . S
C265 C264 1.405 . S
C265 H291 0.931 . S
U266 O267 2.454 . S
U266 O268 2.458 . S
U266 C269 2.984 . S
U266 C270 2.847 . S
U266 C283 2.882 . S
U266 O284 2.441 . S
U266 O285 2.420 . S
U266 O286 2.455 . S
U266 O287 2.449 . S
O267 U266 2.454 . S
O267 C269 1.353 . S
O268 U266 2.458 . S
O268 C269 1.286 . S
C269 U266 2.984 . S
C269 O267 1.353 . S
C269 O268 1.286 . S
C269 C271 1.363 . S
C270 C260 1.465 . S
C270 U266 2.847 . S
C270 O284 1.249 . S
C270 O285 1.202 . S
C271 C269 1.363 . S
C271 C273 1.408 . S
C271 C276 1.342 . S
C272 C273 1.310 . S
C272 C275 1.461 . S
C272 H292 0.932 . S
C273 C271 1.408 . S
C273 C272 1.310 . S
C273 H293 0.930 . S
C274 C275 1.474 . S
C274 C276 1.285 . S
C274 H294 0.929 . S
C275 C272 1.461 . S
C275 C274 1.474 . S
C276 C271 1.342 . S
C276 C274 1.285 . S
C276 H295 0.930 . S
C277 C280 1.424 . S
C277 C282 1.245 . S
C277 C283 1.428 . S
C278 C281 1.260 . S
C278 C282 1.477 . S
C278 H296 0.932 . S
C279 C280 1.384 . S
C279 C281 1.479 . S
C279 H297 0.929 . S
C280 C277 1.424 . S
C280 C279 1.384 . S
C280 H298 0.928 . S
C281 C278 1.260 . S
C281 C279 1.479 . S
C282 C277 1.245 . S
C282 C278 1.477 . S
C282 H299 0.932 . S
C283 U266 2.882 . S
C283 C277 1.428 . S
C283 O286 1.301 . S
C283 O287 1.282 . S
O284 U266 2.441 . S
O284 C270 1.249 . S
O285 U266 2.420 . S
O285 C270 1.202 . S
O286 U266 2.455 . S
O286 C283 1.301 . S
O287 U266 2.449 . S
O287 C283 1.282 . S
H288 C261 0.931 . S
H289 C263 0.929 . S
H290 C264 0.930 . S
H291 C265 0.931 . S
H292 C272 0.932 . S
H293 C273 0.930 . S
H294 C274 0.929 . S
H295 C276 0.930 . S
H296 C278 0.932 . S
H297 C279 0.929 . S
H298 C280 0.928 . S
H299 C282 0.932 . S
H300 C308 0.929 . S
H301 C310 0.930 . S
H302 C312 0.930 . S
H303 C315 0.929 . S
H304 C318 0.930 . S
H305 C320 0.960 . S
H306 C320 0.960 . S
H307 C320 0.960 . S
C308 H300 0.929 . S
C308 C309 1.377 . S
C308 C310 1.384 . S
C309 C308 1.377 . S
C309 C315 1.390 . S
C310 H301 0.930 . S
C310 C308 1.384 . S
C310 C311 1.372 . S
C311 C310 1.372 . S
C311 C312 1.400 . S
C311 C316 1.490 . S
C312 H302 0.930 . S
C312 C311 1.400 . S
C312 C315 1.386 . S
H313 C329 0.930 . S
H314 C330 0.931 . S
C315 H303 0.929 . S
C315 C309 1.390 . S
C315 C312 1.386 . S
C316 C311 1.490 . S
C316 C318 1.395 . S
C316 C319 1.403 . S
H317 C323 0.930 . S
C318 H304 0.930 . S
C318 C316 1.395 . S
C318 C321 1.403 . S
C319 C316 1.403 . S
C319 C320 1.524 . S
C319 C323 1.400 . S
C320 H305 0.960 . S
C320 H306 0.960 . S
C320 H307 0.960 . S
C320 C319 1.524 . S
C321 C318 1.403 . S
C321 C322 1.392 . S
C321 C325 1.495 . S
C322 C321 1.392 . S
C322 C323 1.385 . S
C322 C324 1.478 . S
C323 H317 0.930 . S
C323 C319 1.400 . S
C323 C322 1.385 . S
C324 C322 1.478 . S
C324 C326 1.381 . S
C324 C330 1.383 . S
C325 C321 1.495 . S
C325 H331 0.959 . S
C325 H332 0.961 . S
C325 H333 0.960 . S
C326 C324 1.381 . S
C326 C327 1.394 . S
C326 H334 0.930 . S
C327 C326 1.394 . S
C327 C328 1.383 . S
C327 H335 0.929 . S
C328 C327 1.383 . S
C328 C329 1.377 . S
C329 H313 0.930 . S
C329 C328 1.377 . S
C329 C330 1.379 . S
C330 H314 0.931 . S
C330 C324 1.383 . S
C330 C329 1.379 . S
H331 C325 0.959 . S
H332 C325 0.961 . S
H333 C325 0.960 . S
H334 C326 0.930 . S
H335 C327 0.929 . S
H336 C344 0.929 . S
H337 C346 0.930 . S
H338 C348 0.930 . S
H339 C351 0.929 . S
H340 C354 0.930 . S
H341 C356 0.960 . S
H342 C356 0.960 . S
H343 C356 0.960 . S
C344 H336 0.929 . S
C344 C345 1.377 . S
C344 C346 1.384 . S
C345 C344 1.377 . S
C345 C351 1.390 . S
C346 H337 0.930 . S
C346 C344 1.384 . S
C346 C347 1.372 . S
C347 C346 1.372 . S
C347 C348 1.400 . S
C347 C352 1.490 . S
C348 H338 0.930 . S
C348 C347 1.400 . S
C348 C351 1.386 . S
H349 C365 0.930 . S
H350 C366 0.931 . S
C351 H339 0.929 . S
C351 C345 1.390 . S
C351 C348 1.386 . S
C352 C347 1.490 . S
C352 C354 1.395 . S
C352 C355 1.403 . S
H353 C359 0.930 . S
C354 H340 0.930 . S
C354 C352 1.395 . S
C354 C357 1.403 . S
C355 C352 1.403 . S
C355 C356 1.524 . S
C355 C359 1.400 . S
C356 H341 0.960 . S
C356 H342 0.960 . S
C356 H343 0.960 . S
C356 C355 1.524 . S
C357 C354 1.403 . S
C357 C358 1.392 . S
C357 C361 1.495 . S
C358 C357 1.392 . S
C358 C359 1.385 . S
C358 C360 1.478 . S
C359 H353 0.930 . S
C359 C355 1.400 . S
C359 C358 1.385 . S
C360 C358 1.478 . S
C360 C362 1.381 . S
C360 C366 1.383 . S
C361 C357 1.495 . S
C361 H367 0.959 . S
C361 H368 0.961 . S
C361 H369 0.960 . S
C362 C360 1.381 . S
C362 C363 1.394 . S
C362 H370 0.930 . S
C363 C362 1.394 . S
C363 C364 1.383 . S
C363 H371 0.929 . S
C364 C363 1.383 . S
C364 C365 1.377 . S
C365 H349 0.930 . S
C365 C364 1.377 . S
C365 C366 1.379 . S
C366 H350 0.931 . S
C366 C360 1.383 . S
C366 C365 1.379 . S
H367 C361 0.959 . S
H368 C361 0.961 . S
H369 C361 0.960 . S
H370 C362 0.930 . S
H371 C363 0.929 . S
H372 C380 0.929 . S
H373 C382 0.930 . S
H374 C384 0.930 . S
H375 C387 0.929 . S
H376 C390 0.930 . S
H377 C392 0.960 . S
H378 C392 0.960 . S
H379 C392 0.960 . S
C380 H372 0.929 . S
C380 C381 1.377 . S
C380 C382 1.384 . S
C381 C380 1.377 . S
C381 C387 1.390 . S
C382 H373 0.930 . S
C382 C380 1.384 . S
C382 C383 1.372 . S
C383 C382 1.372 . S
C383 C384 1.400 . S
C383 C388 1.490 . S
C384 H374 0.930 . S
C384 C383 1.400 . S
C384 C387 1.386 . S
H385 C401 0.930 . S
H386 C402 0.931 . S
C387 H375 0.929 . S
C387 C381 1.390 . S
C387 C384 1.386 . S
C388 C383 1.490 . S
C388 C390 1.395 . S
C388 C391 1.403 . S
H389 C395 0.930 . S
C390 H376 0.930 . S
C390 C388 1.395 . S
C390 C393 1.403 . S
C391 C388 1.403 . S
C391 C392 1.524 . S
C391 C395 1.400 . S
C392 H377 0.960 . S
C392 H378 0.960 . S
C392 H379 0.960 . S
C392 C391 1.524 . S
C393 C390 1.403 . S
C393 C394 1.392 . S
C393 C397 1.495 . S
C394 C393 1.392 . S
C394 C395 1.385 . S
C394 C396 1.478 . S
C395 H389 0.930 . S
C395 C391 1.400 . S
C395 C394 1.385 . S
C396 C394 1.478 . S
C396 C398 1.381 . S
C396 C402 1.383 . S
C397 C393 1.495 . S
C397 H403 0.959 . S
C397 H404 0.961 . S
C397 H405 0.960 . S
C398 C396 1.381 . S
C398 C399 1.394 . S
C398 H406 0.930 . S
C399 C398 1.394 . S
C399 C400 1.383 . S
C399 H407 0.929 . S
C400 C399 1.383 . S
C400 C401 1.377 . S
C401 H385 0.930 . S
C401 C400 1.377 . S
C401 C402 1.379 . S
C402 H386 0.931 . S
C402 C396 1.383 . S
C402 C401 1.379 . S
H403 C397 0.959 . S
H404 C397 0.961 . S
H405 C397 0.960 . S
H406 C398 0.930 . S
H407 C399 0.929 . S
H408 C416 0.929 . S
H409 C418 0.930 . S
H410 C420 0.930 . S
H411 C423 0.929 . S
H412 C426 0.930 . S
H413 C428 0.960 . S
H414 C428 0.960 . S
H415 C428 0.960 . S
C416 H408 0.929 . S
C416 C417 1.377 . S
C416 C418 1.384 . S
C417 C416 1.377 . S
C417 C423 1.390 . S
C418 H409 0.930 . S
C418 C416 1.384 . S
C418 C419 1.372 . S
C419 C418 1.372 . S
C419 C420 1.400 . S
C419 C424 1.490 . S
C420 H410 0.930 . S
C420 C419 1.400 . S
C420 C423 1.386 . S
H421 C437 0.930 . S
H422 C438 0.931 . S
C423 H411 0.929 . S
C423 C417 1.390 . S
C423 C420 1.386 . S
C424 C419 1.490 . S
C424 C426 1.395 . S
C424 C427 1.403 . S
H425 C431 0.930 . S
C426 H412 0.930 . S
C426 C424 1.395 . S
C426 C429 1.403 . S
C427 C424 1.403 . S
C427 C428 1.524 . S
C427 C431 1.400 . S
C428 H413 0.960 . S
C428 H414 0.960 . S
C428 H415 0.960 . S
C428 C427 1.524 . S
C429 C426 1.403 . S
C429 C430 1.392 . S
C429 C433 1.495 . S
C430 C429 1.392 . S
C430 C431 1.385 . S
C430 C432 1.478 . S
C431 H425 0.930 . S
C431 C427 1.400 . S
C431 C430 1.385 . S
C432 C430 1.478 . S
C432 C434 1.381 . S
C432 C438 1.383 . S
C433 C429 1.495 . S
C433 H439 0.959 . S
C433 H440 0.961 . S
C433 H441 0.960 . S
C434 C432 1.381 . S
C434 C435 1.394 . S
C434 H442 0.930 . S
C435 C434 1.394 . S
C435 C436 1.383 . S
C435 H443 0.929 . S
C436 C435 1.383 . S
C436 C437 1.377 . S
C437 H421 0.930 . S
C437 C436 1.377 . S
C437 C438 1.379 . S
C438 H422 0.931 . S
C438 C432 1.383 . S
C438 C437 1.379 . S
H439 C433 0.959 . S
H440 C433 0.961 . S
H441 C433 0.960 . S
H442 C434 0.930 . S
H443 C435 0.929 . S
H444 C452 0.929 . S
H445 C454 0.930 . S
H446 C456 0.930 . S
H447 C459 0.929 . S
H448 C462 0.930 . S
H449 C464 0.960 . S
H450 C464 0.960 . S
H451 C464 0.960 . S
C452 H444 0.929 . S
C452 C453 1.377 . S
C452 C454 1.384 . S
C453 C452 1.377 . S
C453 C459 1.390 . S
C454 H445 0.930 . S
C454 C452 1.384 . S
C454 C455 1.372 . S
C455 C454 1.372 . S
C455 C456 1.400 . S
C455 C460 1.490 . S
C456 H446 0.930 . S
C456 C455 1.400 . S
C456 C459 1.386 . S
H457 C473 0.930 . S
H458 C474 0.931 . S
C459 H447 0.929 . S
C459 C453 1.390 . S
C459 C456 1.386 . S
C460 C455 1.490 . S
C460 C462 1.395 . S
C460 C463 1.403 . S
H461 C467 0.930 . S
C462 H448 0.930 . S
C462 C460 1.395 . S
C462 C465 1.403 . S
C463 C460 1.403 . S
C463 C464 1.524 . S
C463 C467 1.400 . S
C464 H449 0.960 . S
C464 H450 0.960 . S
C464 H451 0.960 . S
C464 C463 1.524 . S
C465 C462 1.403 . S
C465 C466 1.392 . S
C465 C469 1.495 . S
C466 C465 1.392 . S
C466 C467 1.385 . S
C466 C468 1.478 . S
C467 H461 0.930 . S
C467 C463 1.400 . S
C467 C466 1.385 . S
C468 C466 1.478 . S
C468 C470 1.381 . S
C468 C474 1.383 . S
C469 C465 1.495 . S
C469 H475 0.959 . S
C469 H476 0.961 . S
C469 H477 0.960 . S
C470 C468 1.381 . S
C470 C471 1.394 . S
C470 H478 0.930 . S
C471 C470 1.394 . S
C471 C472 1.383 . S
C471 H479 0.929 . S
C472 C471 1.383 . S
C472 C473 1.377 . S
C473 H457 0.930 . S
C473 C472 1.377 . S
C473 C474 1.379 . S
C474 H458 0.931 . S
C474 C468 1.383 . S
C474 C473 1.379 . S
H475 C469 0.959 . S
H476 C469 0.961 . S
H477 C469 0.960 . S
H478 C470 0.930 . S
H479 C471 0.929 . S
H480 C488 0.929 . S
H481 C490 0.930 . S
H482 C492 0.930 . S
H483 C495 0.929 . S
H484 C498 0.930 . S
H485 C500 0.960 . S
H486 C500 0.960 . S
H487 C500 0.960 . S
C488 H480 0.929 . S
C488 C489 1.377 . S
C488 C490 1.384 . S
C489 C488 1.377 . S
C489 C495 1.390 . S
C490 H481 0.930 . S
C490 C488 1.384 . S
C490 C491 1.372 . S
C491 C490 1.372 . S
C491 C492 1.400 . S
C491 C496 1.490 . S
C492 H482 0.930 . S
C492 C491 1.400 . S
C492 C495 1.386 . S
H493 C509 0.930 . S
H494 C510 0.931 . S
C495 H483 0.929 . S
C495 C489 1.390 . S
C495 C492 1.386 . S
C496 C491 1.490 . S
C496 C498 1.395 . S
C496 C499 1.403 . S
H497 C503 0.930 . S
C498 H484 0.930 . S
C498 C496 1.395 . S
C498 C501 1.403 . S
C499 C496 1.403 . S
C499 C500 1.524 . S
C499 C503 1.400 . S
C500 H485 0.960 . S
C500 H486 0.960 . S
C500 H487 0.960 . S
C500 C499 1.524 . S
C501 C498 1.403 . S
C501 C502 1.392 . S
C501 C505 1.495 . S
C502 C501 1.392 . S
C502 C503 1.385 . S
C502 C504 1.478 . S
C503 H497 0.930 . S
C503 C499 1.400 . S
C503 C502 1.385 . S
C504 C502 1.478 . S
C504 C506 1.381 . S
C504 C510 1.383 . S
C505 C501 1.495 . S
C505 H511 0.959 . S
C505 H512 0.961 . S
C505 H513 0.960 . S
C506 C504 1.381 . S
C506 C507 1.394 . S
C506 H514 0.930 . S
C507 C506 1.394 . S
C507 C508 1.383 . S
C507 H515 0.929 . S
C508 C507 1.383 . S
C508 C509 1.377 . S
C509 H493 0.930 . S
C509 C508 1.377 . S
C509 C510 1.379 . S
C510 H494 0.931 . S
C510 C504 1.383 . S
C510 C509 1.379 . S
H511 C505 0.959 . S
H512 C505 0.961 . S
H513 C505 0.960 . S
H514 C506 0.930 . S
H515 C507 0.929 . S
H516 C524 0.929 . S
H517 C526 0.930 . S
H518 C528 0.930 . S
H519 C531 0.929 . S
H520 C534 0.930 . S
H521 C536 0.960 . S
H522 C536 0.960 . S
H523 C536 0.960 . S
C524 H516 0.929 . S
C524 C525 1.377 . S
C524 C526 1.384 . S
C525 C524 1.377 . S
C525 C531 1.390 . S
C526 H517 0.930 . S
C526 C524 1.384 . S
C526 C527 1.372 . S
C527 C526 1.372 . S
C527 C528 1.400 . S
C527 C532 1.490 . S
C528 H518 0.930 . S
C528 C527 1.400 . S
C528 C531 1.386 . S
H529 C545 0.930 . S
H530 C546 0.931 . S
C531 H519 0.929 . S
C531 C525 1.390 . S
C531 C528 1.386 . S
C532 C527 1.490 . S
C532 C534 1.395 . S
C532 C535 1.403 . S
H533 C539 0.930 . S
C534 H520 0.930 . S
C534 C532 1.395 . S
C534 C537 1.403 . S
C535 C532 1.403 . S
C535 C536 1.524 . S
C535 C539 1.400 . S
C536 H521 0.960 . S
C536 H522 0.960 . S
C536 H523 0.960 . S
C536 C535 1.524 . S
C537 C534 1.403 . S
C537 C538 1.392 . S
C537 C541 1.495 . S
C538 C537 1.392 . S
C538 C539 1.385 . S
C538 C540 1.478 . S
C539 H533 0.930 . S
C539 C535 1.400 . S
C539 C538 1.385 . S
C540 C538 1.478 . S
C540 C542 1.381 . S
C540 C546 1.383 . S
C541 C537 1.495 . S
C541 H547 0.959 . S
C541 H548 0.961 . S
C541 H549 0.960 . S
C542 C540 1.381 . S
C542 C543 1.394 . S
C542 H550 0.930 . S
C543 C542 1.394 . S
C543 C544 1.383 . S
C543 H551 0.929 . S
C544 C543 1.383 . S
C544 C545 1.377 . S
C545 H529 0.930 . S
C545 C544 1.377 . S
C545 C546 1.379 . S
C546 H530 0.931 . S
C546 C540 1.383 . S
C546 C545 1.379 . S
H547 C541 0.959 . S
H548 C541 0.961 . S
H549 C541 0.960 . S
H550 C542 0.930 . S
H551 C543 0.929 . S
H552 C560 0.929 . S
H553 C562 0.930 . S
H554 C564 0.930 . S
H555 C567 0.929 . S
H556 C570 0.930 . S
H557 C572 0.960 . S
H558 C572 0.960 . S
H559 C572 0.960 . S
C560 H552 0.929 . S
C560 C561 1.377 . S
C560 C562 1.384 . S
C561 C560 1.377 . S
C561 C567 1.390 . S
C562 H553 0.930 . S
C562 C560 1.384 . S
C562 C563 1.372 . S
C563 C562 1.372 . S
C563 C564 1.400 . S
C563 C568 1.490 . S
C564 H554 0.930 . S
C564 C563 1.400 . S
C564 C567 1.386 . S
H565 C581 0.930 . S
H566 C582 0.931 . S
C567 H555 0.929 . S
C567 C561 1.390 . S
C567 C564 1.386 . S
C568 C563 1.490 . S
C568 C570 1.395 . S
C568 C571 1.403 . S
H569 C575 0.930 . S
C570 H556 0.930 . S
C570 C568 1.395 . S
C570 C573 1.403 . S
C571 C568 1.403 . S
C571 C572 1.524 . S
C571 C575 1.400 . S
C572 H557 0.960 . S
C572 H558 0.960 . S
C572 H559 0.960 . S
C572 C571 1.524 . S
C573 C570 1.403 . S
C573 C574 1.392 . S
C573 C577 1.495 . S
C574 C573 1.392 . S
C574 C575 1.385 . S
C574 C576 1.478 . S
C575 H569 0.930 . S
C575 C571 1.400 . S
C575 C574 1.385 . S
C576 C574 1.478 . S
C576 C578 1.381 . S
C576 C582 1.383 . S
C577 C573 1.495 . S
C577 H583 0.959 . S
C577 H584 0.961 . S
C577 H585 0.960 . S
C578 C576 1.381 . S
C578 C579 1.394 . S
C578 H586 0.930 . S
C579 C578 1.394 . S
C579 C580 1.383 . S
C579 H587 0.929 . S
C580 C579 1.383 . S
C580 C581 1.377 . S
C581 H565 0.930 . S
C581 C580 1.377 . S
C581 C582 1.379 . S
C582 H566 0.931 . S
C582 C576 1.383 . S
C582 C581 1.379 . S
H583 C577 0.959 . S
H584 C577 0.961 . S
H585 C577 0.960 . S
H586 C578 0.930 . S
H587 C579 0.929 . S
H588 C596 0.929 . S
H589 C598 0.930 . S
H590 C600 0.930 . S
H591 C603 0.929 . S
H592 C606 0.930 . S
H593 C608 0.960 . S
H594 C608 0.960 . S
H595 C608 0.960 . S
C596 H588 0.929 . S
C596 C597 1.377 . S
C596 C598 1.384 . S
C597 C596 1.377 . S
C597 C603 1.390 . S
C598 H589 0.930 . S
C598 C596 1.384 . S
C598 C599 1.372 . S
C599 C598 1.372 . S
C599 C600 1.400 . S
C599 C604 1.490 . S
C600 H590 0.930 . S
C600 C599 1.400 . S
C600 C603 1.386 . S
H601 C617 0.930 . S
H602 C618 0.931 . S
C603 H591 0.929 . S
C603 C597 1.390 . S
C603 C600 1.386 . S
C604 C599 1.490 . S
C604 C606 1.395 . S
C604 C607 1.403 . S
H605 C611 0.930 . S
C606 H592 0.930 . S
C606 C604 1.395 . S
C606 C609 1.403 . S
C607 C604 1.403 . S
C607 C608 1.524 . S
C607 C611 1.400 . S
C608 H593 0.960 . S
C608 H594 0.960 . S
C608 H595 0.960 . S
C608 C607 1.524 . S
C609 C606 1.403 . S
C609 C610 1.392 . S
C609 C613 1.495 . S
C610 C609 1.392 . S
C610 C611 1.385 . S
C610 C612 1.478 . S
C611 H605 0.930 . S
C611 C607 1.400 . S
C611 C610 1.385 . S
C612 C610 1.478 . S
C612 C614 1.381 . S
C612 C618 1.383 . S
C613 C609 1.495 . S
C613 H619 0.959 . S
C613 H620 0.961 . S
C613 H621 0.960 . S
C614 C612 1.381 . S
C614 C615 1.394 . S
C614 H622 0.930 . S
C615 C614 1.394 . S
C615 C616 1.383 . S
C615 H623 0.929 . S
C616 C615 1.383 . S
C616 C617 1.377 . S
C617 H601 0.930 . S
C617 C616 1.377 . S
C617 C618 1.379 . S
C618 H602 0.931 . S
C618 C612 1.383 . S
C618 C617 1.379 . S
H619 C613 0.959 . S
H620 C613 0.961 . S
H621 C613 0.960 . S
H622 C614 0.930 . S
H623 C615 0.929 . S
H624 C632 0.929 . S
H625 C634 0.930 . S
H626 C636 0.930 . S
H627 C639 0.929 . S
H628 C642 0.930 . S
H629 C644 0.960 . S
H630 C644 0.960 . S
H631 C644 0.960 . S
C632 H624 0.929 . S
C632 C633 1.377 . S
C632 C634 1.384 . S
C633 C632 1.377 . S
C633 C639 1.390 . S
C634 H625 0.930 . S
C634 C632 1.384 . S
C634 C635 1.372 . S
C635 C634 1.372 . S
C635 C636 1.400 . S
C635 C640 1.490 . S
C636 H626 0.930 . S
C636 C635 1.400 . S
C636 C639 1.386 . S
H637 C653 0.930 . S
H638 C654 0.931 . S
C639 H627 0.929 . S
C639 C633 1.390 . S
C639 C636 1.386 . S
C640 C635 1.490 . S
C640 C642 1.395 . S
C640 C643 1.403 . S
H641 C647 0.930 . S
C642 H628 0.930 . S
C642 C640 1.395 . S
C642 C645 1.403 . S
C643 C640 1.403 . S
C643 C644 1.524 . S
C643 C647 1.400 . S
C644 H629 0.960 . S
C644 H630 0.960 . S
C644 H631 0.960 . S
C644 C643 1.524 . S
C645 C642 1.403 . S
C645 C646 1.392 . S
C645 C649 1.495 . S
C646 C645 1.392 . S
C646 C647 1.385 . S
C646 C648 1.478 . S
C647 H641 0.930 . S
C647 C643 1.400 . S
C647 C646 1.385 . S
C648 C646 1.478 . S
C648 C650 1.381 . S
C648 C654 1.383 . S
C649 C645 1.495 . S
C649 H655 0.959 . S
C649 H656 0.961 . S
C649 H657 0.960 . S
C650 C648 1.381 . S
C650 C651 1.394 . S
C650 H658 0.930 . S
C651 C650 1.394 . S
C651 C652 1.383 . S
C651 H659 0.929 . S
C652 C651 1.383 . S
C652 C653 1.377 . S
C653 H637 0.930 . S
C653 C652 1.377 . S
C653 C654 1.379 . S
C654 H638 0.931 . S
C654 C648 1.383 . S
C654 C653 1.379 . S
H655 C649 0.959 . S
H656 C649 0.961 . S
H657 C649 0.960 . S
H658 C650 0.930 . S
H659 C651 0.929 . S
H660 C668 0.929 . S
H661 C670 0.930 . S
H662 C672 0.930 . S
H663 C675 0.929 . S
H664 C678 0.930 . S
H665 C680 0.960 . S
H666 C680 0.960 . S
H667 C680 0.960 . S
C668 H660 0.929 . S
C668 C669 1.377 . S
C668 C670 1.384 . S
C669 C668 1.377 . S
C669 C675 1.390 . S
C670 H661 0.930 . S
C670 C668 1.384 . S
C670 C671 1.372 . S
C671 C670 1.372 . S
C671 C672 1.400 . S
C671 C676 1.490 . S
C672 H662 0.930 . S
C672 C671 1.400 . S
C672 C675 1.386 . S
H673 C689 0.930 . S
H674 C690 0.931 . S
C675 H663 0.929 . S
C675 C669 1.390 . S
C675 C672 1.386 . S
C676 C671 1.490 . S
C676 C678 1.395 . S
C676 C679 1.403 . S
H677 C683 0.930 . S
C678 H664 0.930 . S
C678 C676 1.395 . S
C678 C681 1.403 . S
C679 C676 1.403 . S
C679 C680 1.524 . S
C679 C683 1.400 . S
C680 H665 0.960 . S
C680 H666 0.960 . S
C680 H667 0.960 . S
C680 C679 1.524 . S
C681 C678 1.403 . S
C681 C682 1.392 . S
C681 C685 1.495 . S
C682 C681 1.392 . S
C682 C683 1.385 . S
C682 C684 1.478 . S
C683 H677 0.930 . S
C683 C679 1.400 . S
C683 C682 1.385 . S
C684 C682 1.478 . S
C684 C686 1.381 . S
C684 C690 1.383 . S
C685 C681 1.495 . S
C685 H691 0.959 . S
C685 H692 0.961 . S
C685 H693 0.960 . S
C686 C684 1.381 . S
C686 C687 1.394 . S
C686 H694 0.930 . S
C687 C686 1.394 . S
C687 C688 1.383 . S
C687 H695 0.929 . S
C688 C687 1.383 . S
C688 C689 1.377 . S
C689 H673 0.930 . S
C689 C688 1.377 . S
C689 C690 1.379 . S
C690 H674 0.931 . S
C690 C684 1.383 . S
C690 C689 1.379 . S
H691 C685 0.959 . S
H692 C685 0.961 . S
H693 C685 0.960 . S
H694 C686 0.930 . S
H695 C687 0.929 . S
H696 C704 0.929 . S
H697 C706 0.930 . S
H698 C708 0.930 . S
H699 C711 0.929 . S
H700 C714 0.930 . S
H701 C716 0.960 . S
H702 C716 0.960 . S
H703 C716 0.960 . S
C704 H696 0.929 . S
C704 C705 1.377 . S
C704 C706 1.384 . S
C705 C704 1.377 . S
C705 C711 1.390 . S
C706 H697 0.930 . S
C706 C704 1.384 . S
C706 C707 1.372 . S
C707 C706 1.372 . S
C707 C708 1.400 . S
C707 C712 1.490 . S
C708 H698 0.930 . S
C708 C707 1.400 . S
C708 C711 1.386 . S
H709 C725 0.930 . S
H710 C726 0.931 . S
C711 H699 0.929 . S
C711 C705 1.390 . S
C711 C708 1.386 . S
C712 C707 1.490 . S
C712 C714 1.395 . S
C712 C715 1.403 . S
H713 C719 0.930 . S
C714 H700 0.930 . S
C714 C712 1.395 . S
C714 C717 1.403 . S
C715 C712 1.403 . S
C715 C716 1.524 . S
C715 C719 1.400 . S
C716 H701 0.960 . S
C716 H702 0.960 . S
C716 H703 0.960 . S
C716 C715 1.524 . S
C717 C714 1.403 . S
C717 C718 1.392 . S
C717 C721 1.495 . S
C718 C717 1.392 . S
C718 C719 1.385 . S
C718 C720 1.478 . S
C719 H713 0.930 . S
C719 C715 1.400 . S
C719 C718 1.385 . S
C720 C718 1.478 . S
C720 C722 1.381 . S
C720 C726 1.383 . S
C721 C717 1.495 . S
C721 H727 0.959 . S
C721 H728 0.961 . S
C721 H729 0.960 . S
C722 C720 1.381 . S
C722 C723 1.394 . S
C722 H730 0.930 . S
C723 C722 1.394 . S
C723 C724 1.383 . S
C723 H731 0.929 . S
C724 C723 1.383 . S
C724 C725 1.377 . S
C725 H709 0.930 . S
C725 C724 1.377 . S
C725 C726 1.379 . S
C726 H710 0.931 . S
C726 C720 1.383 . S
C726 C725 1.379 . S
H727 C721 0.959 . S
H728 C721 0.961 . S
H729 C721 0.960 . S
H730 C722 0.930 . S
H731 C723 0.929 . S
H732 C740 0.929 . S
H733 C742 0.930 . S
H734 C744 0.930 . S
H735 C747 0.916 1_655 S
H736 C750 0.930 . S
H737 C752 0.960 . S
H738 C752 0.960 . S
H739 C752 0.960 . S
C740 H732 0.929 . S
C740 C741 1.377 . S
C740 C742 1.384 . S
C741 C740 1.377 . S
C741 C747 1.390 . S
C742 H733 0.930 . S
C742 C740 1.384 . S
C742 C743 1.372 . S
C743 C742 1.372 . S
C743 C744 1.400 . S
C743 C748 1.490 . S
C744 H734 0.930 . S
C744 C743 1.400 . S
C744 C747 1.386 . S
H745 C761 0.916 1_556 S
H746 C762 0.931 . S
C747 H735 0.916 1_455 S
C747 C741 1.390 . S
C747 C744 1.386 . S
C748 C743 1.490 . S
C748 C750 1.395 1_455 S
C748 C751 1.403 . S
H749 C755 0.930 . S
C750 H736 0.930 . S
C750 C748 1.395 1_655 S
C750 C753 1.403 . S
C751 C748 1.403 . S
C751 C752 1.524 . S
C751 C755 1.400 . S
C752 H737 0.960 . S
C752 H738 0.960 . S
C752 H739 0.960 . S
C752 C751 1.524 . S
C753 C750 1.403 . S
C753 C754 1.392 1_655 S
C753 C757 1.495 . S
C754 C753 1.392 1_455 S
C754 C755 1.385 . S
C754 C756 1.478 . S
C755 H749 0.930 . S
C755 C751 1.400 . S
C755 C754 1.385 . S
C756 C754 1.478 . S
C756 C758 1.381 . S
C756 C762 1.383 . S
C757 C753 1.495 . S
C757 H763 0.959 . S
C757 H764 0.961 . S
C757 H765 0.960 . S
C758 C756 1.381 . S
C758 C759 1.394 1_554 S
C758 H766 0.930 . S
C759 C758 1.394 1_556 S
C759 C760 1.383 . S
C759 H767 0.929 . S
C760 C759 1.383 . S
C760 C761 1.361 1_556 S
C761 H745 0.916 1_554 S
C761 C760 1.361 1_554 S
C761 C762 1.409 . S
C762 H746 0.931 . S
C762 C756 1.383 . S
C762 C761 1.409 . S
H763 C757 0.959 . S
H764 C757 0.961 . S
H765 C757 0.960 . S
H766 C758 0.930 . S
H767 C759 0.929 . S
H768 C776 0.929 . S
H769 C778 0.930 . S
H770 C780 0.929 1_565 S
H771 C783 0.929 . S
H772 C786 0.930 . S
H773 C788 0.960 . S
H774 C788 0.960 . S
H775 C788 0.960 . S
C776 H768 0.929 . S
C776 C777 1.377 . S
C776 C778 1.384 . S
C777 C776 1.377 . S
C777 C783 1.390 1_545 S
C778 H769 0.930 . S
C778 C776 1.384 . S
C778 C779 1.372 . S
C779 C778 1.372 . S
C779 C780 1.401 . S
C779 C784 1.490 . S
C780 H770 0.929 1_545 S
C780 C779 1.401 . S
C780 C783 1.385 1_545 S
H781 C797 0.930 1_565 S
H782 C798 0.931 1_565 S
C783 H771 0.929 . S
C783 C777 1.390 1_565 S
C783 C780 1.385 1_565 S
C784 C779 1.490 . S
C784 C786 1.395 . S
C784 C787 1.403 . S
H785 C791 0.930 . S
C786 H772 0.930 . S
C786 C784 1.395 . S
C786 C789 1.403 . S
C787 C784 1.403 . S
C787 C788 1.524 . S
C787 C791 1.400 . S
C788 H773 0.960 . S
C788 H774 0.960 . S
C788 H775 0.960 . S
C788 C787 1.524 . S
C789 C786 1.403 . S
C789 C790 1.392 . S
C789 C793 1.495 . S
C790 C789 1.392 . S
C790 C791 1.385 . S
C790 C792 1.478 . S
C791 H785 0.930 . S
C791 C787 1.400 . S
C791 C790 1.385 . S
C792 C790 1.478 . S
C792 C794 1.381 . S
C792 C798 1.383 . S
C793 C789 1.495 . S
C793 H799 0.959 . S
C793 H800 0.961 1_545 S
C793 H801 0.960 . S
C794 C792 1.381 . S
C794 C795 1.394 . S
C794 H802 0.930 . S
C795 C794 1.394 . S
C795 C796 1.383 . S
C795 H803 0.929 . S
C796 C795 1.383 . S
C796 C797 1.377 . S
C797 H781 0.930 1_545 S
C797 C796 1.377 . S
C797 C798 1.379 . S
C798 H782 0.931 1_545 S
C798 C792 1.383 . S
C798 C797 1.379 . S
H799 C793 0.959 . S
H800 C793 0.961 1_565 S
H801 C793 0.960 . S
H802 C794 0.930 . S
H803 C795 0.929 . S
H804 C812 0.929 . S
H805 C814 0.930 . S
H806 C816 0.930 . S
H807 C819 0.929 . S
H808 C822 0.930 . S
H809 C824 0.960 . S
H810 C824 0.960 . S
H811 C824 0.960 . S
C812 H804 0.929 . S
C812 C813 1.377 . S
C812 C814 1.384 . S
C813 C812 1.377 . S
C813 C819 1.390 . S
C814 H805 0.930 . S
C814 C812 1.384 . S
C814 C815 1.372 . S
C815 C814 1.372 . S
C815 C816 1.400 . S
C815 C820 1.490 . S
C816 H806 0.930 . S
C816 C815 1.400 . S
C816 C819 1.386 . S
H817 C833 0.930 . S
H818 C834 0.931 . S
C819 H807 0.929 . S
C819 C813 1.390 . S
C819 C816 1.386 . S
C820 C815 1.490 . S
C820 C822 1.395 . S
C820 C823 1.403 . S
H821 C827 0.930 . S
C822 H808 0.930 . S
C822 C820 1.395 . S
C822 C825 1.403 . S
C823 C820 1.403 . S
C823 C824 1.524 . S
C823 C827 1.400 . S
C824 H809 0.960 . S
C824 H810 0.960 . S
C824 H811 0.960 . S
C824 C823 1.524 . S
C825 C822 1.403 . S
C825 C826 1.392 . S
C825 C829 1.495 . S
C826 C825 1.392 . S
C826 C827 1.385 . S
C826 C828 1.478 . S
C827 H821 0.930 . S
C827 C823 1.400 . S
C827 C826 1.385 . S
C828 C826 1.478 . S
C828 C830 1.381 . S
C828 C834 1.383 . S
C829 C825 1.495 . S
C829 H835 0.959 . S
C829 H836 0.961 . S
C829 H837 0.960 . S
C830 C828 1.381 . S
C830 C831 1.394 . S
C830 H838 0.930 . S
C831 C830 1.394 . S
C831 C832 1.383 . S
C831 H839 0.929 . S
C832 C831 1.383 . S
C832 C833 1.377 . S
C833 H817 0.930 . S
C833 C832 1.377 . S
C833 C834 1.379 . S
C834 H818 0.931 . S
C834 C828 1.383 . S
C834 C833 1.379 . S
H835 C829 0.959 . S
H836 C829 0.961 . S
H837 C829 0.960 . S
H838 C830 0.930 . S
H839 C831 0.929 . S
H840 C848 0.929 . S
H841 C850 0.930 . S
H842 C852 0.930 . S
H843 C855 0.929 . S
H844 C858 0.930 . S
H845 C860 0.960 . S
H846 C860 0.960 . S
H847 C860 0.960 . S
C848 H840 0.929 . S
C848 C849 1.377 1_565 S
C848 C850 1.384 . S
C849 C848 1.377 1_545 S
C849 C855 1.390 . S
C850 H841 0.930 . S
C850 C848 1.384 . S
C850 C851 1.372 1_565 S
C851 C850 1.372 1_545 S
C851 C852 1.400 . S
C851 C856 1.490 . S
C852 H842 0.930 . S
C852 C851 1.400 . S
C852 C855 1.386 . S
H853 C869 0.930 . S
H854 C870 0.931 . S
C855 H843 0.929 . S
C855 C849 1.390 . S
C855 C852 1.386 . S
C856 C851 1.490 . S
C856 C858 1.395 1_545 S
C856 C859 1.403 . S
H857 C863 0.930 . S
C858 H844 0.930 . S
C858 C856 1.395 1_565 S
C858 C861 1.403 . S
C859 C856 1.403 . S
C859 C860 1.524 . S
C859 C863 1.400 . S
C860 H845 0.960 . S
C860 H846 0.960 . S
C860 H847 0.960 . S
C860 C859 1.524 . S
C861 C858 1.403 . S
C861 C862 1.392 1_565 S
C861 C865 1.495 . S
C862 C861 1.392 1_545 S
C862 C863 1.385 . S
C862 C864 1.478 . S
C863 H857 0.930 . S
C863 C859 1.400 . S
C863 C862 1.385 . S
C864 C862 1.478 . S
C864 C866 1.381 1_545 S
C864 C870 1.383 . S
C865 C861 1.495 . S
C865 H871 0.959 . S
C865 H872 0.961 . S
C865 H873 0.960 . S
C866 C864 1.381 1_565 S
C866 C867 1.394 . S
C866 H874 0.930 . S
C867 C866 1.394 . S
C867 C868 1.383 1_565 S
C867 H875 0.929 . S
C868 C867 1.383 1_545 S
C868 C869 1.377 . S
C869 H853 0.930 . S
C869 C868 1.377 . S
C869 C870 1.379 . S
C870 H854 0.931 . S
C870 C864 1.383 . S
C870 C869 1.379 . S
H871 C865 0.959 . S
H872 C865 0.961 . S
H873 C865 0.960 . S
H874 C866 0.930 . S
H875 C867 0.929 . S
H876 C884 0.929 . S
H877 C886 0.930 . S
H878 C888 0.930 . S
H879 C891 0.929 . S
H880 C894 0.930 . S
H881 C896 0.960 . S
H882 C896 0.960 . S
H883 C896 0.960 . S
C884 H876 0.929 . S
C884 C885 1.377 . S
C884 C886 1.384 . S
C885 C884 1.377 . S
C885 C891 1.390 . S
C886 H877 0.930 . S
C886 C884 1.384 . S
C886 C887 1.372 . S
C887 C886 1.372 . S
C887 C888 1.400 . S
C887 C892 1.490 . S
C888 H878 0.930 . S
C888 C887 1.400 . S
C888 C891 1.386 . S
H889 C905 0.953 . S
H890 C906 0.931 . S
C891 H879 0.929 . S
C891 C885 1.390 . S
C891 C888 1.386 . S
C892 C887 1.490 . S
C892 C894 1.395 . S
C892 C895 1.403 . S
H893 C899 0.930 . S
C894 H880 0.930 . S
C894 C892 1.395 . S
C894 C897 1.403 . S
C895 C892 1.403 . S
C895 C896 1.524 . S
C895 C899 1.400 . S
C896 H881 0.960 . S
C896 H882 0.960 . S
C896 H883 0.960 . S
C896 C895 1.524 . S
C897 C894 1.403 . S
C897 C898 1.392 . S
C897 C901 1.495 . S
C898 C897 1.392 . S
C898 C899 1.385 . S
C898 C900 1.478 . S
C899 H893 0.930 . S
C899 C895 1.400 . S
C899 C898 1.385 . S
C900 C898 1.478 . S
C900 C902 1.381 . S
C900 C906 1.383 . S
C901 C897 1.495 . S
C901 H907 0.959 . S
C901 H908 0.961 . S
C901 H909 0.960 . S
C902 C900 1.381 . S
C902 C903 1.342 1_556 S
C902 H910 0.930 . S
C903 C902 1.342 1_554 S
C903 C904 1.408 . S
C903 H911 0.959 . S
C904 C903 1.408 . S
C904 C905 1.405 . S
C905 H889 0.953 . S
C905 C904 1.405 . S
C905 C906 1.330 1_554 S
C906 H890 0.931 . S
C906 C900 1.383 . S
C906 C905 1.330 1_556 S
H907 C901 0.959 . S
H908 C901 0.961 . S
H909 C901 0.960 . S
H910 C902 0.930 . S
H911 C903 0.959 . S
H912 C920 0.929 . S
H913 C922 0.930 . S
H914 C924 0.930 . S
H915 C927 0.929 . S
H916 C930 0.930 . S
H917 C932 0.960 . S
H918 C932 0.960 . S
H919 C932 0.960 . S
C920 H912 0.929 . S
C920 C921 1.391 . S
C920 C922 1.384 . S
C921 C920 1.391 . S
C921 C927 1.377 1_455 S
C922 H913 0.930 . S
C922 C920 1.384 . S
C922 C923 1.372 . S
C923 C922 1.372 . S
C923 C924 1.400 1_455 S
C923 C928 1.490 . S
C924 H914 0.930 . S
C924 C923 1.400 1_655 S
C924 C927 1.386 . S
H925 C941 0.930 . S
H926 C942 0.931 . S
C927 H915 0.929 . S
C927 C921 1.377 1_655 S
C927 C924 1.386 . S
C928 C923 1.490 . S
C928 C930 1.395 . S
C928 C931 1.403 1_455 S
H929 C935 0.930 . S
C930 H916 0.930 . S
C930 C928 1.395 . S
C930 C933 1.403 . S
C931 C928 1.403 1_655 S
C931 C932 1.524 . S
C931 C935 1.400 . S
C932 H917 0.960 . S
C932 H918 0.960 . S
C932 H919 0.960 . S
C932 C931 1.524 . S
C933 C930 1.403 . S
C933 C934 1.392 . S
C933 C937 1.495 . S
C934 C933 1.392 . S
C934 C935 1.385 1_455 S
C934 C936 1.478 . S
C935 H929 0.930 . S
C935 C931 1.400 . S
C935 C934 1.385 1_655 S
C936 C934 1.478 . S
C936 C938 1.381 . S
C936 C942 1.383 1_455 S
C937 C933 1.495 . S
C937 H943 0.959 . S
C937 H944 0.961 . S
C937 H945 0.960 . S
C938 C936 1.381 . S
C938 C939 1.394 . S
C938 H946 0.930 . S
C939 C938 1.394 . S
C939 C940 1.383 . S
C939 H947 0.929 . S
C940 C939 1.383 . S
C940 C941 1.377 1_455 S
C941 H925 0.930 . S
C941 C940 1.377 1_655 S
C941 C942 1.379 . S
C942 H926 0.931 . S
C942 C936 1.383 1_655 S
C942 C941 1.379 . S
H943 C937 0.959 . S
H944 C937 0.961 . S
H945 C937 0.960 . S
H946 C938 0.930 . S
H947 C939 0.929 . S
C309 C2 1.312 . S
C328 C275 1.346 . S
C345 C22 1.248 . S
C364 C182 1.346 . S
C381 C44 1.338 . S
C400 C222 1.386 . S
C417 C4 1.533 . S
C436 C262 1.634 . S
C472 C195 1.668 . S
C453 C24 1.608 . S
C508 C235 1.552 . S
C489 C42 1.513 . S
C525 C32 1.301 . S
C544 C102 1.283 . S
C561 C49 1.218 . S
C580 C142 1.238 . S
C597 C9 1.241 . S
C616 C75 1.216 . S
C652 C115 1.213 . S
C633 C29 1.203 . S
C688 C155 1.268 . S
C669 C52 1.262 . S
C705 C12 1.220 . S
C724 C62 1.276 . S
C760 C161 1.404 . S
C741 C18 1.432 1_455 S
C777 C38 1.432 . S
C796 C81 1.449 . S
C813 C58 1.420 . S
C832 C121 1.426 . S
C868 C241 1.493 . S
C849 C39 1.488 . S
C904 C281 1.474 . S
C885 C59 1.461 . S
C921 C19 1.470 . S
C940 C201 1.483 . S
