# Generated by pormake.
# Topology iac, (4,6)-cn, num edge types: 1
# Building blocks:
#     Node 0, Type 0, BuildingBlock: NAHDIM_clean_sbu_0, # of connection points: 4
#     Node 1, Type 0, BuildingBlock: NAHDIM_clean_sbu_0, # of connection points: 4
#     Node 2, Type 0, BuildingBlock: NAHDIM_clean_sbu_0, # of connection points: 4
#     Node 3, Type 0, BuildingBlock: NAHDIM_clean_sbu_0, # of connection points: 4
#     Node 4, Type 0, BuildingBlock: NAHDIM_clean_sbu_0, # of connection points: 4
#     Node 5, Type 0, BuildingBlock: NAHDIM_clean_sbu_0, # of connection points: 4
#     Node 6, Type 0, BuildingBlock: NAHDIM_clean_sbu_0, # of connection points: 4
#     Node 7, Type 0, BuildingBlock: NAHDIM_clean_sbu_0, # of connection points: 4
#     Node 8, Type 0, BuildingBlock: NAHDIM_clean_sbu_0, # of connection points: 4
#     Node 9, Type 0, BuildingBlock: NAHDIM_clean_sbu_0, # of connection points: 4
#     Node 10, Type 0, BuildingBlock: NAHDIM_clean_sbu_0, # of connection points: 4
#     Node 11, Type 0, BuildingBlock: NAHDIM_clean_sbu_0, # of connection points: 4
#     Node 12, Type 0, BuildingBlock: NAHDIM_clean_sbu_0, # of connection points: 4
#     Node 13, Type 0, BuildingBlock: NAHDIM_clean_sbu_0, # of connection points: 4
#     Node 14, Type 0, BuildingBlock: NAHDIM_clean_sbu_0, # of connection points: 4
#     Node 15, Type 0, BuildingBlock: NAHDIM_clean_sbu_0, # of connection points: 4
#     Node 16, Type 0, BuildingBlock: NAHDIM_clean_sbu_0, # of connection points: 4
#     Node 17, Type 0, BuildingBlock: NAHDIM_clean_sbu_0, # of connection points: 4
#     Node 18, Type 0, BuildingBlock: NAHDIM_clean_sbu_0, # of connection points: 4
#     Node 19, Type 0, BuildingBlock: NAHDIM_clean_sbu_0, # of connection points: 4
#     Node 20, Type 0, BuildingBlock: NAHDIM_clean_sbu_0, # of connection points: 4
#     Node 21, Type 0, BuildingBlock: NAHDIM_clean_sbu_0, # of connection points: 4
#     Node 22, Type 0, BuildingBlock: NAHDIM_clean_sbu_0, # of connection points: 4
#     Node 23, Type 0, BuildingBlock: NAHDIM_clean_sbu_0, # of connection points: 4
#     Node 24, Type 1, BuildingBlock: VOLQOD_clean_sbu_1, # of connection points: 6
#     Node 25, Type 1, BuildingBlock: VOLQOD_clean_sbu_1, # of connection points: 6
#     Node 26, Type 1, BuildingBlock: VOLQOD_clean_sbu_1, # of connection points: 6
#     Node 27, Type 1, BuildingBlock: VOLQOD_clean_sbu_1, # of connection points: 6
#     Node 28, Type 1, BuildingBlock: VOLQOD_clean_sbu_1, # of connection points: 6
#     Node 29, Type 1, BuildingBlock: VOLQOD_clean_sbu_1, # of connection points: 6
#     Node 30, Type 1, BuildingBlock: VOLQOD_clean_sbu_1, # of connection points: 6
#     Node 31, Type 1, BuildingBlock: VOLQOD_clean_sbu_1, # of connection points: 6
#     Node 32, Type 1, BuildingBlock: VOLQOD_clean_sbu_1, # of connection points: 6
#     Node 33, Type 1, BuildingBlock: VOLQOD_clean_sbu_1, # of connection points: 6
#     Node 34, Type 1, BuildingBlock: VOLQOD_clean_sbu_1, # of connection points: 6
#     Node 35, Type 1, BuildingBlock: VOLQOD_clean_sbu_1, # of connection points: 6
#     Node 36, Type 1, BuildingBlock: VOLQOD_clean_sbu_1, # of connection points: 6
#     Node 37, Type 1, BuildingBlock: VOLQOD_clean_sbu_1, # of connection points: 6
#     Node 38, Type 1, BuildingBlock: VOLQOD_clean_sbu_1, # of connection points: 6
#     Node 39, Type 1, BuildingBlock: VOLQOD_clean_sbu_1, # of connection points: 6
#     Edge 40, Type (0, 1), BuildingBlock: OJICUG_clean_linker_0, # of connection points: 2
#     Edge 41, Type (0, 1), BuildingBlock: OJICUG_clean_linker_0, # of connection points: 2
#     Edge 42, Type (0, 1), BuildingBlock: OJICUG_clean_linker_0, # of connection points: 2
#     Edge 43, Type (0, 1), BuildingBlock: OJICUG_clean_linker_0, # of connection points: 2
#     Edge 44, Type (0, 1), BuildingBlock: OJICUG_clean_linker_0, # of connection points: 2
#     Edge 45, Type (0, 1), BuildingBlock: OJICUG_clean_linker_0, # of connection points: 2
#     Edge 46, Type (0, 1), BuildingBlock: OJICUG_clean_linker_0, # of connection points: 2
#     Edge 47, Type (0, 1), BuildingBlock: OJICUG_clean_linker_0, # of connection points: 2
#     Edge 48, Type (0, 1), BuildingBlock: OJICUG_clean_linker_0, # of connection points: 2
#     Edge 49, Type (0, 1), BuildingBlock: OJICUG_clean_linker_0, # of connection points: 2
#     Edge 50, Type (0, 1), BuildingBlock: OJICUG_clean_linker_0, # of connection points: 2
#     Edge 51, Type (0, 1), BuildingBlock: OJICUG_clean_linker_0, # of connection points: 2
#     Edge 52, Type (0, 1), BuildingBlock: OJICUG_clean_linker_0, # of connection points: 2
#     Edge 53, Type (0, 1), BuildingBlock: OJICUG_clean_linker_0, # of connection points: 2
#     Edge 54, Type (0, 1), BuildingBlock: OJICUG_clean_linker_0, # of connection points: 2
#     Edge 55, Type (0, 1), BuildingBlock: OJICUG_clean_linker_0, # of connection points: 2
#     Edge 56, Type (0, 1), BuildingBlock: OJICUG_clean_linker_0, # of connection points: 2
#     Edge 57, Type (0, 1), BuildingBlock: OJICUG_clean_linker_0, # of connection points: 2
#     Edge 58, Type (0, 1), BuildingBlock: OJICUG_clean_linker_0, # of connection points: 2
#     Edge 59, Type (0, 1), BuildingBlock: OJICUG_clean_linker_0, # of connection points: 2
#     Edge 60, Type (0, 1), BuildingBlock: OJICUG_clean_linker_0, # of connection points: 2
#     Edge 61, Type (0, 1), BuildingBlock: OJICUG_clean_linker_0, # of connection points: 2
#     Edge 62, Type (0, 1), BuildingBlock: OJICUG_clean_linker_0, # of connection points: 2
#     Edge 63, Type (0, 1), BuildingBlock: OJICUG_clean_linker_0, # of connection points: 2
#     Edge 64, Type (0, 1), BuildingBlock: OJICUG_clean_linker_0, # of connection points: 2
#     Edge 65, Type (0, 1), BuildingBlock: OJICUG_clean_linker_0, # of connection points: 2
#     Edge 66, Type (0, 1), BuildingBlock: OJICUG_clean_linker_0, # of connection points: 2
#     Edge 67, Type (0, 1), BuildingBlock: OJICUG_clean_linker_0, # of connection points: 2
#     Edge 68, Type (0, 1), BuildingBlock: OJICUG_clean_linker_0, # of connection points: 2
#     Edge 69, Type (0, 1), BuildingBlock: OJICUG_clean_linker_0, # of connection points: 2
#     Edge 70, Type (0, 1), BuildingBlock: OJICUG_clean_linker_0, # of connection points: 2
#     Edge 71, Type (0, 1), BuildingBlock: OJICUG_clean_linker_0, # of connection points: 2
#     Edge 72, Type (0, 1), BuildingBlock: OJICUG_clean_linker_0, # of connection points: 2
#     Edge 73, Type (0, 1), BuildingBlock: OJICUG_clean_linker_0, # of connection points: 2
#     Edge 74, Type (0, 1), BuildingBlock: OJICUG_clean_linker_0, # of connection points: 2
#     Edge 75, Type (0, 1), BuildingBlock: OJICUG_clean_linker_0, # of connection points: 2
#     Edge 76, Type (0, 1), BuildingBlock: OJICUG_clean_linker_0, # of connection points: 2
#     Edge 77, Type (0, 1), BuildingBlock: OJICUG_clean_linker_0, # of connection points: 2
#     Edge 78, Type (0, 1), BuildingBlock: OJICUG_clean_linker_0, # of connection points: 2
#     Edge 79, Type (0, 1), BuildingBlock: OJICUG_clean_linker_0, # of connection points: 2
#     Edge 80, Type (0, 1), BuildingBlock: OJICUG_clean_linker_0, # of connection points: 2
#     Edge 81, Type (0, 1), BuildingBlock: OJICUG_clean_linker_0, # of connection points: 2
#     Edge 82, Type (0, 1), BuildingBlock: OJICUG_clean_linker_0, # of connection points: 2
#     Edge 83, Type (0, 1), BuildingBlock: OJICUG_clean_linker_0, # of connection points: 2
#     Edge 84, Type (0, 1), BuildingBlock: OJICUG_clean_linker_0, # of connection points: 2
#     Edge 85, Type (0, 1), BuildingBlock: OJICUG_clean_linker_0, # of connection points: 2
#     Edge 86, Type (0, 1), BuildingBlock: OJICUG_clean_linker_0, # of connection points: 2
#     Edge 87, Type (0, 1), BuildingBlock: OJICUG_clean_linker_0, # of connection points: 2
#     Edge 88, Type (0, 1), BuildingBlock: OJICUG_clean_linker_0, # of connection points: 2
#     Edge 89, Type (0, 1), BuildingBlock: OJICUG_clean_linker_0, # of connection points: 2
#     Edge 90, Type (0, 1), BuildingBlock: OJICUG_clean_linker_0, # of connection points: 2
#     Edge 91, Type (0, 1), BuildingBlock: OJICUG_clean_linker_0, # of connection points: 2
#     Edge 92, Type (0, 1), BuildingBlock: OJICUG_clean_linker_0, # of connection points: 2
#     Edge 93, Type (0, 1), BuildingBlock: OJICUG_clean_linker_0, # of connection points: 2
#     Edge 94, Type (0, 1), BuildingBlock: OJICUG_clean_linker_0, # of connection points: 2
#     Edge 95, Type (0, 1), BuildingBlock: OJICUG_clean_linker_0, # of connection points: 2
#     Edge 96, Type (0, 1), BuildingBlock: OJICUG_clean_linker_0, # of connection points: 2
#     Edge 97, Type (0, 1), BuildingBlock: OJICUG_clean_linker_0, # of connection points: 2
#     Edge 98, Type (0, 1), BuildingBlock: OJICUG_clean_linker_0, # of connection points: 2
#     Edge 99, Type (0, 1), BuildingBlock: OJICUG_clean_linker_0, # of connection points: 2
#     Edge 100, Type (0, 1), BuildingBlock: OJICUG_clean_linker_0, # of connection points: 2
#     Edge 101, Type (0, 1), BuildingBlock: OJICUG_clean_linker_0, # of connection points: 2
#     Edge 102, Type (0, 1), BuildingBlock: OJICUG_clean_linker_0, # of connection points: 2
#     Edge 103, Type (0, 1), BuildingBlock: OJICUG_clean_linker_0, # of connection points: 2
#     Edge 104, Type (0, 1), BuildingBlock: OJICUG_clean_linker_0, # of connection points: 2
#     Edge 105, Type (0, 1), BuildingBlock: OJICUG_clean_linker_0, # of connection points: 2
#     Edge 106, Type (0, 1), BuildingBlock: OJICUG_clean_linker_0, # of connection points: 2
#     Edge 107, Type (0, 1), BuildingBlock: OJICUG_clean_linker_0, # of connection points: 2
#     Edge 108, Type (0, 1), BuildingBlock: OJICUG_clean_linker_0, # of connection points: 2
#     Edge 109, Type (0, 1), BuildingBlock: OJICUG_clean_linker_0, # of connection points: 2
#     Edge 110, Type (0, 1), BuildingBlock: OJICUG_clean_linker_0, # of connection points: 2
#     Edge 111, Type (0, 1), BuildingBlock: OJICUG_clean_linker_0, # of connection points: 2
#     Edge 112, Type (0, 1), BuildingBlock: OJICUG_clean_linker_0, # of connection points: 2
#     Edge 113, Type (0, 1), BuildingBlock: OJICUG_clean_linker_0, # of connection points: 2
#     Edge 114, Type (0, 1), BuildingBlock: OJICUG_clean_linker_0, # of connection points: 2
#     Edge 115, Type (0, 1), BuildingBlock: OJICUG_clean_linker_0, # of connection points: 2
#     Edge 116, Type (0, 1), BuildingBlock: OJICUG_clean_linker_0, # of connection points: 2
#     Edge 117, Type (0, 1), BuildingBlock: OJICUG_clean_linker_0, # of connection points: 2
#     Edge 118, Type (0, 1), BuildingBlock: OJICUG_clean_linker_0, # of connection points: 2
#     Edge 119, Type (0, 1), BuildingBlock: OJICUG_clean_linker_0, # of connection points: 2
#     Edge 120, Type (0, 1), BuildingBlock: OJICUG_clean_linker_0, # of connection points: 2
#     Edge 121, Type (0, 1), BuildingBlock: OJICUG_clean_linker_0, # of connection points: 2
#     Edge 122, Type (0, 1), BuildingBlock: OJICUG_clean_linker_0, # of connection points: 2
#     Edge 123, Type (0, 1), BuildingBlock: OJICUG_clean_linker_0, # of connection points: 2
#     Edge 124, Type (0, 1), BuildingBlock: OJICUG_clean_linker_0, # of connection points: 2
#     Edge 125, Type (0, 1), BuildingBlock: OJICUG_clean_linker_0, # of connection points: 2
#     Edge 126, Type (0, 1), BuildingBlock: OJICUG_clean_linker_0, # of connection points: 2
#     Edge 127, Type (0, 1), BuildingBlock: OJICUG_clean_linker_0, # of connection points: 2
#     Edge 128, Type (0, 1), BuildingBlock: OJICUG_clean_linker_0, # of connection points: 2
#     Edge 129, Type (0, 1), BuildingBlock: OJICUG_clean_linker_0, # of connection points: 2
#     Edge 130, Type (0, 1), BuildingBlock: OJICUG_clean_linker_0, # of connection points: 2
#     Edge 131, Type (0, 1), BuildingBlock: OJICUG_clean_linker_0, # of connection points: 2
#     Edge 132, Type (0, 1), BuildingBlock: OJICUG_clean_linker_0, # of connection points: 2
#     Edge 133, Type (0, 1), BuildingBlock: OJICUG_clean_linker_0, # of connection points: 2
#     Edge 134, Type (0, 1), BuildingBlock: OJICUG_clean_linker_0, # of connection points: 2
#     Edge 135, Type (0, 1), BuildingBlock: OJICUG_clean_linker_0, # of connection points: 2
# Relax obj value: 0.317
# Max RMSD: 0.290
# Mean RMSD: 0.181
data_MOF--net-iac--node1-NAHDIM_clean_sbu_0--node2-VOLQOD_clean_sbu_1--edge1-OJICUG_clean_linker_0
_symmetry_space_group_name_H-M    P1
_symmetry_Int_Tables_number       1
_symmetry_cell_setting            triclinic
loop_
_symmetry_equiv_pos_as_xyz
'x, y, z'
_cell_length_a     42.07629
_cell_length_b     41.261449
_cell_length_c     39.67927
_cell_angle_alpha  89.91342
_cell_angle_beta   90.347712
_cell_angle_gamma 91.502213
loop_
_atom_site_label
_atom_site_type_symbol
_atom_site_fract_x
_atom_site_fract_y
_atom_site_fract_z
_atom_type_partial_charge
C0 C 0.9649 0.24273 0.17481 0.0
O1 O 0.98078 0.22086 0.15835 0.0
O2 O 0.9784 0.25023 0.09136 0.0
Zn3 Zn -0.00457 0.2808 0.12648 0.0
O4 O -0.00692 0.32575 0.10877 0.0
C5 C 0.04929 0.27442 0.16903 0.0
O6 O 0.02836 0.28174 0.19203 0.0
O7 O 0.96827 0.27245 0.1667 0.0
C8 C 0.01108 0.34846 0.12006 0.0
O9 O 0.02981 0.34295 0.14591 0.0
C10 C 0.94843 0.24535 0.08967 0.0
O11 O 0.9297 0.26254 0.10858 0.0
O12 O 0.04061 0.27198 0.13839 0.0
C13 C 0.02394 0.69774 0.33139 0.0
O14 O 0.01306 0.67027 0.3442 0.0
O15 O 0.98459 0.69688 0.41184 0.0
Zn16 Zn 0.97715 0.72784 0.37412 0.0
O17 O 0.98046 0.77227 0.39332 0.0
C18 C 0.92629 0.72759 0.3242 0.0
O19 O 0.949 0.73491 0.3027 0.0
O20 O 0.01115 0.7241 0.33962 0.0
C21 C 0.97591 0.77792 0.42436 0.0
O22 O 0.96846 0.75394 0.44488 0.0
C23 C 0.01169 0.69416 0.42579 0.0
O24 O 0.03644 0.71041 0.4139 0.0
O25 O 0.9333 0.72229 0.35487 0.0
C26 C 0.46455 0.73323 0.65329 0.0
O27 O 0.4596 0.72573 0.62153 0.0
O28 O 0.51975 0.71205 0.5987 0.0
Zn29 Zn 0.52425 0.75205 0.62669 0.0
O30 O 0.52118 0.79244 0.59899 0.0
C31 C 0.5689 0.77099 0.67735 0.0
O32 O 0.54361 0.7828 0.69161 0.0
O33 O 0.49029 0.74783 0.66172 0.0
C34 C 0.54712 0.80426 0.58741 0.0
O35 O 0.5736 0.78867 0.59204 0.0
C36 C 0.5077 0.71101 0.56929 0.0
O37 O 0.50207 0.73803 0.55304 0.0
O38 O 0.56604 0.75483 0.65024 0.0
C39 C 0.52915 0.20462 0.82548 0.0
O40 O 0.52204 0.17613 0.83864 0.0
O41 O 0.47824 0.2025 0.90462 0.0
Zn42 Zn 0.47576 0.23219 0.8647 0.0
O43 O 0.47583 0.27802 0.88108 0.0
C44 C 0.42812 0.21826 0.81089 0.0
O45 O 0.45196 0.21616 0.78985 0.0
O46 O 0.51269 0.22893 0.83304 0.0
C47 C 0.46897 0.28648 0.9109 0.0
O48 O 0.46149 0.26424 0.93341 0.0
C49 C 0.5021 0.19764 0.92358 0.0
O50 O 0.52976 0.21143 0.91653 0.0
O51 O 0.43363 0.22409 0.84184 0.0
C52 C 0.15358 0.9258 0.18233 0.0
O53 O 0.13105 0.92922 0.15963 0.0
O54 O 0.0929 0.98676 0.18384 0.0
Zn55 Zn 0.13207 0.98647 0.21192 0.0
O56 O 0.11529 0.984 0.25861 0.0
C57 C 0.18676 0.03072 0.21234 0.0
O58 O 0.20355 0.00447 0.21528 0.0
O59 O 0.15817 0.94755 0.20457 0.0
C60 C 0.12686 0.0005 0.2829 0.0
O61 O 0.15283 0.01826 0.27842 0.0
C62 C 0.07215 0.00688 0.19268 0.0
O63 O 0.07901 0.0279 0.21666 0.0
O64 O 0.15685 0.02816 0.20815 0.0
C65 C 0.22136 0.89541 0.54222 0.0
O66 O 0.22419 0.87463 0.56708 0.0
O67 O 0.27593 0.83664 0.55949 0.0
Zn68 Zn 0.27659 0.86313 0.51622 0.0
O69 O 0.26786 0.83573 0.47467 0.0
C70 C 0.32216 0.91464 0.52849 0.0
O71 O 0.29922 0.92393 0.54831 0.0
O72 O 0.24121 0.89521 0.51819 0.0
C73 C 0.28922 0.82495 0.45547 0.0
O74 O 0.31928 0.83011 0.46343 0.0
C75 C 0.26972 0.80641 0.56242 0.0
O76 O 0.26489 0.7888 0.53523 0.0
O77 O 0.31834 0.88844 0.51192 0.0
C78 C 0.30959 0.00806 0.73997 0.0
O79 O 0.30182 0.98025 0.75425 0.0
O80 O 0.41209 0.01454 0.74797 0.0
Zn81 Zn 0.3721 0.00109 0.77099 0.0
O82 O 0.37283 0.01666 0.81844 0.0
C83 C 0.3762 0.93386 0.79247 0.0
O84 O 0.39739 0.94444 0.81457 0.0
O85 O 0.33704 0.02079 0.74489 0.0
C86 C 0.35464 0.00309 0.83994 0.0
O87 O 0.33362 0.98096 0.83002 0.0
C88 C 0.43981 0.00343 0.75086 0.0
O89 O 0.445 0.97928 0.7716 0.0
O90 O 0.36473 0.95331 0.77105 0.0
C91 C 0.25476 0.0398 0.06798 0.0
O92 O 0.23716 0.05827 0.08682 0.0
O93 O 0.2358 0.11218 0.04404 0.0
Zn94 Zn 0.21961 0.07252 0.02028 0.0
O95 O 0.22306 0.08317 0.97117 0.0
C96 C 0.15413 0.08385 0.0264 0.0
O97 O 0.16401 0.11205 0.01445 0.0
O98 O 0.24919 0.03843 0.03643 0.0
C99 C 0.20165 0.07675 0.94931 0.0
O100 O 0.17733 0.05776 0.95739 0.0
C101 C 0.23925 0.14079 0.03255 0.0
O102 O 0.2284 0.14815 0.00248 0.0
O103 O 0.17436 0.06222 0.0323 0.0
C104 C 0.68686 0.41323 0.01628 0.0
O105 O 0.68546 0.38366 0.0286 0.0
O106 O 0.74972 0.36554 0.0448 0.0
Zn107 Zn 0.75098 0.39477 0.00329 0.0
O108 O 0.7464 0.36818 0.96075 0.0
C109 C 0.79372 0.45237 0.00084 0.0
O110 O 0.76737 0.46852 0.0035 0.0
O111 O 0.71307 0.42406 0.0044 0.0
C112 C 0.76978 0.36047 0.94252 0.0
O113 O 0.79877 0.36887 0.95216 0.0
C114 C 0.75635 0.33559 0.04506 0.0
O115 O 0.76607 0.32198 0.01718 0.0
O116 O 0.79229 0.42149 0.00102 0.0
C117 C 0.8166 0.53207 0.22628 0.0
O118 O 0.83032 0.51952 0.19986 0.0
O119 O 0.89474 0.51553 0.22166 0.0
Zn120 Zn 0.86676 0.5015 0.2593 0.0
O121 O 0.88922 0.50742 0.30305 0.0
C122 C 0.8265 0.44894 0.27317 0.0
O123 O 0.81151 0.47223 0.28838 0.0
O124 O 0.82856 0.52829 0.25545 0.0
C125 C 0.90805 0.48534 0.31187 0.0
O126 O 0.912 0.46044 0.29188 0.0
C127 C 0.9162 0.53747 0.22552 0.0
O128 O 0.92321 0.54856 0.25572 0.0
O129 O 0.85188 0.45552 0.25705 0.0
C130 C 0.78113 0.54707 0.53979 0.0
O131 O 0.76627 0.54291 0.51083 0.0
O132 O 0.74435 0.63931 0.5724 0.0
Zn133 Zn 0.73695 0.59838 0.54714 0.0
O134 O 0.73884 0.61234 0.49878 0.0
C135 C 0.68674 0.54935 0.55556 0.0
O136 O 0.70969 0.52841 0.55662 0.0
O137 O 0.77167 0.56855 0.55988 0.0
C138 C 0.71903 0.60209 0.47671 0.0
O139 O 0.69904 0.57825 0.48426 0.0
C140 C 0.77214 0.65187 0.57005 0.0
O141 O 0.79395 0.63678 0.553 0.0
O142 O 0.69353 0.57952 0.55488 0.0
C143 C 0.68053 0.47343 0.68745 0.0
O144 O 0.66813 0.48438 0.65932 0.0
O145 O 0.61649 0.52732 0.68569 0.0
Zn146 Zn 0.65221 0.52901 0.71901 0.0
O147 O 0.62888 0.52472 0.76187 0.0
C148 C 0.70346 0.57168 0.73801 0.0
O149 O 0.71575 0.54461 0.74883 0.0
O150 O 0.67858 0.49002 0.71427 0.0
C151 C 0.6126 0.5486 0.77091 0.0
O152 O 0.61474 0.57602 0.75412 0.0
C153 C 0.59915 0.5018 0.68942 0.0
O154 O 0.60779 0.47964 0.7112 0.0
O155 O 0.67728 0.57069 0.72184 0.0
C156 C 0.08164 0.76808 0.86338 0.0
O157 O 0.06306 0.7431 0.87102 0.0
O158 O 0.009 0.76072 0.90333 0.0
Zn159 Zn 0.02503 0.80023 0.87846 0.0
O160 O 0.01635 0.83927 0.90615 0.0
C161 C -0.00953 0.7761 0.82178 0.0
O162 O 0.00283 0.74863 0.83135 0.0
O163 O 0.07089 0.79646 0.86568 0.0
C164 C 0.98775 0.84848 0.90593 0.0
O165 O 0.96661 0.83289 0.88711 0.0
C166 C -0.00956 0.75864 0.92847 0.0
O167 O 0.98085 0.78499 0.94339 0.0
O168 O -0.001 0.80212 0.8367 0.0
C169 C 0.91262 0.23812 0.61142 0.0
O170 O 0.9185 0.25093 0.5817 0.0
O171 O 0.98295 0.19451 0.565 0.0
Zn172 Zn 0.97754 0.22021 0.60673 0.0
O173 O 0.98948 0.26564 0.59511 0.0
C174 C 0.00589 0.20434 0.67213 0.0
O175 O 0.98347 0.22158 0.68564 0.0
O176 O 0.93353 0.22095 0.62553 0.0
C177 C 0.98129 0.28883 0.61381 0.0
O178 O 0.96805 0.28242 0.64305 0.0
C179 C 0.01146 0.19525 0.55439 0.0
O180 O 0.03284 0.21357 0.57009 0.0
O181 O 0.00741 0.20164 0.64036 0.0
C182 C 0.5527 0.25269 0.33656 0.0
O183 O 0.5347 0.2772 0.32882 0.0
O184 O 0.4887 0.20756 0.41443 0.0
Zn185 Zn 0.50174 0.24109 0.38018 0.0
O186 O 0.5034 0.28376 0.40327 0.0
C187 C 0.46273 0.21873 0.32458 0.0
O188 O 0.47726 0.1912 0.32878 0.0
O189 O 0.54356 0.23284 0.35925 0.0
C190 C 0.47738 0.29293 0.41557 0.0
O191 O 0.45137 0.27525 0.41043 0.0
C192 C 0.49364 0.21307 0.44558 0.0
O193 O 0.50932 0.2396 0.45469 0.0
O194 O 0.46944 0.24252 0.3438 0.0
C195 C 0.4213 0.74503 0.1292 0.0
O196 O 0.42683 0.76703 0.10587 0.0
O197 O 0.50119 0.70694 0.08605 0.0
Zn198 Zn 0.48805 0.73471 0.12435 0.0
O199 O 0.49184 0.78209 0.11406 0.0
C200 C 0.51609 0.69428 0.17376 0.0
O201 O 0.50254 0.67096 0.15583 0.0
O202 O 0.44336 0.72647 0.13833 0.0
C203 C 0.49686 0.79378 0.08493 0.0
O204 O 0.50452 0.77444 0.06019 0.0
C205 C 0.48526 0.70405 0.05896 0.0
O206 O 0.45875 0.7199 0.05549 0.0
O207 O 0.5138 0.7236 0.16437 0.0
C208 C 0.8719 0.10299 0.74574 0.0
O209 O 0.89855 0.1062 0.76297 0.0
O210 O 0.93164 0.03714 0.70222 0.0
Zn211 Zn 0.89533 0.04074 0.73326 0.0
O212 O 0.91054 0.04257 0.78049 0.0
C213 C 0.85451 -0.00998 0.70292 0.0
O214 O 0.86125 0.00276 0.67338 0.0
O215 O 0.86766 0.0786 0.72663 0.0
C216 C 0.88805 0.04251 0.80164 0.0
O217 O 0.85856 0.03939 0.79076 0.0
C218 C 0.94589 0.01036 0.70266 0.0
O219 O 0.93626 0.98732 0.7234 0.0
O220 O 0.86705 0.00189 0.72946 0.0
C221 C 0.82749 0.06786 0.4868 0.0
O222 O 0.81607 0.08566 0.46232 0.0
O223 O 0.82134 0.13845 0.56326 0.0
Zn224 Zn 0.79347 0.11101 0.53242 0.0
O225 O 0.7824 0.1376 0.49184 0.0
C226 C 0.72895 0.11073 0.55278 0.0
O227 O 0.73147 0.13991 0.53957 0.0
O228 O 0.82006 0.07389 0.51718 0.0
C229 C 0.80178 0.15867 0.47978 0.0
O230 O 0.82938 0.16381 0.49475 0.0
C231 C 0.81553 0.16166 0.58312 0.0
O232 O 0.83945 0.17722 0.59778 0.0
O233 O 0.75339 0.09336 0.55393 0.0
C234 C 0.64367 0.91875 0.29626 0.0
O235 O 0.6161 0.92721 0.3083 0.0
O236 O 0.61164 -0.0106 0.23496 0.0
Zn237 Zn 0.64311 0.98338 0.27248 0.0
O238 O 0.62153 -0.00673 0.31558 0.0
C239 C 0.68793 0.02296 0.23526 0.0
O240 O 0.6732 0.01027 0.20894 0.0
O241 O 0.65924 0.93842 0.27754 0.0
C242 C 0.61187 0.02052 0.32525 0.0
O243 O 0.61774 0.04654 0.30696 0.0
C244 C 0.58185 -0.00949 0.23979 0.0
O245 O 0.57025 0.98363 0.26968 0.0
O246 O 0.67944 0.0144 0.26474 0.0
C247 C 0.64601 0.91275 0.99079 0.0
O248 O 0.65274 0.89499 0.96447 0.0
O249 O 0.69676 0.85312 0.06144 0.0
Zn250 Zn 0.70152 0.88486 0.02365 0.0
O251 O 0.7116 0.86127 0.98089 0.0
C252 C 0.74522 0.92673 0.06369 0.0
O253 O 0.7339 0.91221 0.09071 0.0
O254 O 0.6624 0.91053 0.01765 0.0
C255 C 0.73987 0.86061 0.9699 0.0
O256 O 0.76279 0.87556 0.98685 0.0
C257 C 0.71914 0.83391 0.06777 0.0
O258 O 0.74488 0.83527 0.04919 0.0
O259 O 0.73562 0.91787 0.03459 0.0
C260 C 0.29445 0.55896 0.96668 0.0
O261 O 0.28068 0.58451 0.95404 0.0
O262 O 0.3047 0.5804 0.07435 0.0
Zn263 Zn 0.28054 0.58868 0.03161 0.0
O264 O 0.29233 0.63163 0.01037 0.0
C265 C 0.21516 0.60807 0.03426 0.0
O266 O 0.22716 0.63549 0.02249 0.0
O267 O 0.29448 0.55472 -0.00152 0.0
C268 C 0.31909 0.63648 -0.0038 0.0
O269 O 0.34134 0.61504 0.00033 0.0
C270 C 0.29701 0.58556 0.10475 0.0
O271 O 0.31534 0.57464 0.12893 0.0
O272 O 0.23346 0.58464 0.04001 0.0
C273 C 0.1746 0.40814 0.79922 0.0
O274 O 0.17496 0.42073 0.82961 0.0
O275 O 0.1251 0.48285 0.73717 0.0
Zn276 Zn 0.14961 0.46984 0.77853 0.0
O277 O 0.1207 0.47316 0.8179 0.0
C278 C 0.20013 0.51308 0.75859 0.0
O279 O 0.19329 0.50105 0.7287 0.0
O280 O 0.16513 0.42493 0.77439 0.0
C281 C 0.10901 0.50093 0.82167 0.0
O282 O 0.11773 0.52444 0.80105 0.0
C283 C 0.09497 0.48014 0.73573 0.0
O284 O 0.07952 0.46613 0.76071 0.0
O285 O 0.18552 0.50192 0.7842 0.0
C286 C 0.18056 0.40002 0.47385 0.0
O287 O 0.18875 0.38831 0.44449 0.0
O288 O 0.2272 0.331 0.5391 0.0
Zn289 Zn 0.23268 0.36327 0.5021 0.0
O290 O 0.239 0.33979 0.4586 0.0
C291 C 0.27591 0.40789 0.53814 0.0
O292 O 0.25955 0.40051 0.5653 0.0
O293 O 0.19504 0.39144 0.50041 0.0
C294 C 0.22121 0.31635 0.44849 0.0
O295 O 0.19658 0.30707 0.46665 0.0
C296 C 0.2456 0.30738 0.54316 0.0
O297 O 0.27015 0.30443 0.5232 0.0
O298 O 0.26946 0.39371 0.51041 0.0
C299 C 0.3478 0.54676 0.27701 0.0
O300 O 0.36195 0.53249 0.30237 0.0
O301 O 0.40737 0.50555 0.19589 0.0
Zn302 Zn 0.38303 0.5024 0.23812 0.0
O303 O 0.41308 0.49712 0.27606 0.0
C304 C 0.34041 0.45579 0.20766 0.0
O305 O 0.34483 0.47325 0.1803 0.0
O306 O 0.35438 0.53908 0.24688 0.0
C307 C 0.4333 0.51895 0.28478 0.0
O308 O 0.43544 0.54608 0.26747 0.0
C309 C 0.41215 0.53081 0.17836 0.0
O310 O 0.40051 0.55847 0.18817 0.0
O311 O 0.3549 0.46354 0.23477 0.0
O312 O 0.93976 0.1068 0.02037 0.0
Zn313 Zn 0.95429 0.06489 0.0032 0.0
O314 O 0.93511 0.03128 0.02992 0.0
Zn315 Zn 0.96733 0.00227 0.04354 0.0
Zn316 Zn 0.91521 0.04704 0.07059 0.0
Zn317 Zn 0.90557 0.00832 0.00214 0.0
O318 O 0.96907 0.96414 0.01327 0.0
O319 O 0.92327 0.96651 0.98566 0.0
O320 O 0.0017 0.06618 0.00861 0.0
O321 O 0.01037 0.02442 0.04242 0.0
O322 O 0.95899 -0.01195 0.09037 0.0
O323 O 0.94461 0.03569 0.10948 0.0
O324 O 0.87113 0.02524 0.07656 0.0
O325 O 0.94136 0.06103 0.95452 0.0
O326 O 0.86597 0.0003 0.02693 0.0
O327 O 0.89598 0.03314 0.96089 0.0
C328 C 0.92417 0.11631 0.0457 0.0
C329 C 0.94944 0.95277 0.99162 0.0
C330 C 0.95866 0.00895 0.11383 0.0
C331 C 0.02044 0.04929 0.0263 0.0
C332 C 0.85511 0.00781 0.05561 0.0
C333 C 0.91496 0.05004 0.94285 0.0
O334 O 0.91281 0.0963 0.06744 0.0
O335 O 0.21142 0.66195 0.20143 0.0
Zn336 Zn 0.20959 0.68173 0.24751 0.0
O337 O 0.23089 0.72418 0.24702 0.0
Zn338 Zn 0.27204 0.72256 0.26916 0.0
Zn339 Zn 0.23478 0.73846 0.19999 0.0
Zn340 Zn 0.20642 0.7547 0.27142 0.0
O341 O 0.27531 0.74969 0.31137 0.0
O342 O 0.22645 0.76785 0.31612 0.0
O343 O 0.2346 0.64997 0.27453 0.0
O344 O 0.28036 0.67713 0.28247 0.0
O345 O 0.30645 0.73516 0.2368 0.0
O346 O 0.28035 0.74903 0.19035 0.0
O347 O 0.21054 0.77934 0.19053 0.0
O348 O 0.16426 0.68415 0.26386 0.0
O349 O 0.2018 0.79444 0.24348 0.0
O350 O 0.16288 0.73592 0.27929 0.0
C351 C 0.21893 0.67199 0.17212 0.0
C352 C 0.25458 0.7651 0.32768 0.0
C353 C 0.30619 0.74522 0.20646 0.0
C354 C 0.26349 0.6512 0.28429 0.0
C355 C 0.20208 0.80037 0.21198 0.0
C356 C 0.14933 0.70821 0.2754 0.0
O357 O 0.22599 0.70181 0.16696 0.0
O358 O 0.52755 0.94676 0.52355 0.0
Zn359 Zn 0.51095 -0.01099 0.50798 0.0
O360 O 0.52263 0.02233 0.54092 0.0
Zn361 Zn 0.48365 0.03904 0.55956 0.0
Zn362 Zn 0.55134 0.00565 0.57577 0.0
Zn363 Zn 0.54484 0.05751 0.51918 0.0
O364 O 0.47355 0.08395 0.54219 0.0
O365 O 0.51949 0.09655 0.51762 0.0
O366 O 0.46342 0.9801 0.5056 0.0
O367 O 0.44622 0.00956 0.54816 0.0
O368 O 0.48786 0.03965 0.60966 0.0
O369 O 0.53152 0.01221 0.62134 0.0
O370 O 0.5951 0.02855 0.57622 0.0
O371 O 0.52972 -0.00064 0.46228 0.0
O372 O 0.58548 0.06937 0.54158 0.0
O373 O 0.55467 0.0466 0.47178 0.0
C374 C 0.54474 0.93759 0.54805 0.0
C375 C 0.49181 0.10391 0.52672 0.0
C376 C 0.507 0.0272 0.63075 0.0
C377 C 0.44124 -0.01166 0.52531 0.0
C378 C 0.60354 0.05528 0.56236 0.0
C379 C 0.54701 0.02328 0.45225 0.0
O380 O 0.55618 0.95753 0.56972 0.0
O381 O 0.21518 0.17855 0.82504 0.0
Zn382 Zn 0.22777 0.2086 0.78714 0.0
O383 O 0.21266 0.19057 0.74409 0.0
Zn384 Zn 0.24845 0.18296 0.71421 0.0
Zn385 Zn 0.18678 0.15086 0.75085 0.0
Zn386 Zn 0.18617 0.2215 0.72287 0.0
O387 O 0.24584 0.2082 0.67061 0.0
O388 O 0.19904 0.23101 0.67575 0.0
O389 O 0.27542 0.21052 0.78775 0.0
O390 O 0.29034 0.19446 0.73703 0.0
O391 O 0.24961 0.13567 0.70403 0.0
O392 O 0.20647 0.11333 0.72739 0.0
O393 O 0.14062 0.15539 0.7365 0.0
O394 O 0.21342 0.25492 0.79517 0.0
O395 O 0.14086 0.20779 0.72356 0.0
O396 O 0.1893 0.26319 0.74626 0.0
C397 C 0.19994 0.15146 0.82618 0.0
C398 C 0.22386 0.22563 0.65878 0.0
C399 C 0.23201 0.11091 0.71062 0.0
C400 C 0.29712 0.20457 0.76659 0.0
C401 C 0.12613 0.18097 0.72832 0.0
C402 C 0.19952 0.27357 0.77446 0.0
O403 O 0.1876 0.13864 0.79986 0.0
O404 O 0.03225 -0.00942 0.41124 0.0
Zn405 Zn 0.00521 0.97865 0.45128 0.0
O406 O 0.02896 -0.01173 0.49172 0.0
Zn407 Zn 0.03409 0.95241 0.52197 0.0
Zn408 Zn 0.06758 0.01319 0.48426 0.0
Zn409 Zn 0.00231 0.01565 0.51384 0.0
O410 O 0.01619 0.96151 0.5685 0.0
O411 O 0.0098 0.01431 0.56255 0.0
O412 O -0.00198 0.93085 0.45075 0.0
O413 O 0.01442 0.91219 0.50055 0.0
O414 O 0.08081 0.94656 0.52835 0.0
O415 O 0.10438 -0.00875 0.50747 0.0
O416 O 0.06252 0.06105 0.49623 0.0
O417 O 0.96111 -0.00096 0.45026 0.0
O418 O 0.00987 0.0601 0.49817 0.0
O419 O 0.95726 0.00412 0.50549 0.0
C420 C 0.06047 0.00253 0.40914 0.0
C421 C 0.01138 -0.01064 0.58112 0.0
C422 C 0.10569 0.96395 0.5226 0.0
C423 C 0.00189 0.90764 0.47148 0.0
C424 C 0.03615 0.07572 0.49619 0.0
C425 C 0.94435 0.00322 0.47654 0.0
O426 O 0.07626 0.01149 0.43512 0.0
O427 O 0.36409 0.72035 0.77478 0.0
Zn428 Zn 0.32868 0.73392 0.80499 0.0
O429 O 0.28731 0.72412 0.78315 0.0
Zn430 Zn 0.26509 0.76354 0.77189 0.0
Zn431 Zn 0.29228 0.6989 0.74194 0.0
Zn432 Zn 0.26209 0.69921 0.81443 0.0
O433 O 0.22174 0.76521 0.79376 0.0
O434 O 0.21986 0.71835 0.82123 0.0
O435 O 0.33537 0.78223 0.80908 0.0
O436 O 0.2914 0.80175 0.78643 0.0
O437 O 0.26072 0.76885 0.72156 0.0
O438 O 0.27535 0.72181 0.70057 0.0
O439 O 0.2734 0.6535 0.74592 0.0
O440 O 0.33274 0.7141 0.85202 0.0
O441 O 0.25522 0.65386 0.79831 0.0
O442 O 0.28277 0.69713 0.85948 0.0
C443 C 0.36409 0.70615 0.7463 0.0
C444 C 0.20712 0.74465 0.81245 0.0
C445 C 0.26535 0.75044 0.69643 0.0
C446 C 0.31863 0.80603 0.80005 0.0
C447 C 0.26022 0.6391 0.77081 0.0
C448 C 0.31077 0.70231 0.87072 0.0
O449 O 0.3384 0.69622 0.73225 0.0
O450 O 0.5152 0.0347 0.10091 0.0
Zn451 Zn 0.50361 0.03533 0.05176 0.0
O452 O 0.46327 0.0132 0.04484 0.0
Zn453 Zn 0.46722 0.98122 0.00923 0.0
Zn454 Zn 0.44904 -0.00831 0.08552 0.0
Zn455 Zn 0.43227 0.04477 0.03307 0.0
O456 O 0.43383 0.98663 0.97368 0.0
O457 O 0.41125 0.03233 0.98939 0.0
O458 O 0.53707 0.01058 0.02849 0.0
O459 O 0.51112 0.9819 0.98938 0.0
O460 O 0.4643 0.93633 0.02788 0.0
O461 O 0.45635 0.94409 0.08239 0.0
O462 O 0.40219 -0.00146 0.09224 0.0
O463 O 0.50395 0.08049 0.03172 0.0
O464 O 0.39694 0.04613 0.06667 0.0
O465 O 0.45241 0.08825 0.02422 0.0
C466 C 0.50224 0.02202 0.12693 0.0
C467 C 0.41361 0.00866 0.96916 0.0
C468 C 0.46181 0.92542 0.05774 0.0
C469 C 0.53703 -0.00836 0.00321 0.0
C470 C 0.38593 0.02325 0.08513 0.0
C471 C 0.48121 0.09834 0.02246 0.0
O472 O 0.47572 0.00642 0.12506 0.0
O473 O 0.18652 0.24437 0.23311 0.0
Zn474 Zn 0.22643 0.2281 0.2538 0.0
O475 O 0.26301 0.24376 0.22777 0.0
Zn476 Zn 0.28898 0.20769 0.21376 0.0
Zn477 Zn 0.2497 0.26878 0.18817 0.0
Zn478 Zn 0.28815 0.27132 0.25641 0.0
O479 O 0.33327 0.20922 0.23375 0.0
O480 O 0.33222 0.2564 0.26037 0.0
O481 O 0.22286 0.17965 0.2505 0.0
O482 O 0.26727 0.16532 0.22513 0.0
O483 O 0.29151 0.20642 0.16353 0.0
O484 O 0.26138 0.24629 0.14549 0.0
O485 O 0.26752 0.31493 0.18815 0.0
O486 O 0.22724 0.24291 0.30272 0.0
O487 O 0.29 0.31572 0.23886 0.0
O488 O 0.27078 0.27418 0.3025 0.0
C489 C 0.18037 0.26031 0.2065 0.0
C490 C 0.34695 0.23149 0.25111 0.0
C491 C 0.27834 0.22187 0.13966 0.0
C492 C 0.2406 0.15801 0.23845 0.0
C493 C 0.28193 0.32999 0.21194 0.0
C494 C 0.24685 0.26208 0.31777 0.0
O495 O 0.20225 0.27085 0.18705 0.0
O496 O 0.50513 0.50876 0.88177 0.0
Zn497 Zn 0.47681 0.49136 0.91893 0.0
O498 O 0.49353 0.50777 0.96123 0.0
Zn499 Zn 0.49741 0.4739 -0.00569 0.0
Zn500 Zn 0.53315 0.53219 0.95828 0.0
Zn501 Zn 0.46524 0.53959 0.97568 0.0
O502 O 0.47663 0.48733 0.03785 0.0
O503 O 0.46041 0.53675 0.02503 0.0
O504 O 0.47818 0.44296 0.92048 0.0
O505 O 0.48022 0.43137 0.97532 0.0
O506 O 0.54378 0.46635 0.00366 0.0
O507 O 0.56951 0.50696 0.97807 0.0
O508 O 0.53005 0.57641 0.98041 0.0
O509 O 0.42963 0.50182 0.91155 0.0
O510 O 0.48049 0.58402 0.96457 0.0
O511 O 0.42273 0.53316 0.95616 0.0
C512 C 0.52954 0.52784 0.8823 0.0
C513 C 0.46453 0.51418 0.0463 0.0
C514 C 0.56966 0.48094 -0.00456 0.0
C515 C 0.47702 0.42253 0.94463 0.0
C516 C 0.50681 0.59518 0.97587 0.0
C517 C 0.41185 0.51842 0.93044 0.0
O518 O 0.54172 0.53877 0.90959 0.0
O519 O 0.83824 0.2349 0.26412 0.0
Zn520 Zn 0.79779 0.24696 0.28527 0.0
O521 O 0.76187 0.23271 0.25728 0.0
Zn522 Zn 0.73533 0.26936 0.2458 0.0
Zn523 Zn 0.77621 0.21143 0.21582 0.0
Zn524 Zn 0.7376 0.20248 0.28408 0.0
O525 O 0.69036 0.26337 0.26301 0.0
O526 O 0.69273 0.21532 0.28792 0.0
O527 O 0.79986 0.29492 0.28721 0.0
O528 O 0.75441 0.31068 0.26447 0.0
O529 O 0.73526 0.27691 0.19565 0.0
O530 O 0.76421 0.23777 0.17426 0.0
O531 O 0.75965 0.16454 0.21267 0.0
O532 O 0.79722 0.22936 0.33278 0.0
O533 O 0.73868 0.15915 0.26377 0.0
O534 O 0.7538 0.19808 0.33104 0.0
C535 C 0.84538 0.22089 0.23682 0.0
C536 C 0.67722 0.24003 0.2793 0.0
C537 C 0.74821 0.26342 0.17054 0.0
C538 C 0.78102 0.31708 0.27869 0.0
C539 C 0.74692 0.14717 0.2358 0.0
C540 C 0.77759 0.2099 0.34705 0.0
O541 O 0.82415 0.21052 0.21618 0.0
O542 O 0.04442 0.52222 0.58908 0.0
Zn543 Zn 0.03523 0.52327 0.5392 0.0
O544 O -0.00526 0.50077 0.53104 0.0
Zn545 Zn -0.00061 0.46318 0.50227 0.0
Zn546 Zn 0.97347 0.4892 0.57299 0.0
Zn547 Zn 0.96791 0.52917 0.50767 0.0
O548 O 0.97477 0.46614 0.45856 0.0
O549 O 0.96458 0.51852 0.45931 0.0
O550 O 0.0705 0.4993 0.51664 0.0
O551 O 0.0448 0.45925 0.48968 0.0
O552 O 0.98842 0.42253 0.52792 0.0
O553 O 0.97368 0.44119 0.57779 0.0
O554 O 0.92694 0.50178 0.57431 0.0
O555 O 0.03473 0.56986 0.52183 0.0
O556 O 0.92405 0.52492 0.52392 0.0
O557 O 0.98323 0.57446 0.51088 0.0
C558 C 0.02796 0.51515 0.6151 0.0
C559 C 0.96501 0.49157 0.44398 0.0
C560 C 0.97976 0.41777 0.55827 0.0
C561 C 0.0704 0.47454 0.49747 0.0
C562 C 0.9109 0.51429 0.55052 0.0
C563 C 0.01104 0.58694 0.51363 0.0
O564 O -0.00088 0.50511 0.61265 0.0
O565 O 0.71699 0.70148 0.34978 0.0
Zn566 Zn 0.72595 0.73098 0.31037 0.0
O567 O 0.70863 0.71156 0.26904 0.0
Zn568 Zn 0.74239 0.7073 0.23565 0.0
Zn569 Zn 0.6877 0.66955 0.27831 0.0
Zn570 Zn 0.67715 0.73943 0.25105 0.0
O571 O 0.73558 0.7353 0.19462 0.0
O572 O 0.68834 0.75543 0.20514 0.0
O573 O 0.77335 0.73375 0.30797 0.0
O574 O 0.78538 0.7185 0.25607 0.0
O575 O 0.7452 0.66095 0.22136 0.0
O576 O 0.71013 0.63498 0.25396 0.0
O577 O 0.64123 0.66693 0.26455 0.0
O578 O 0.70946 0.77625 0.31884 0.0
O579 O 0.63513 0.71795 0.24873 0.0
O580 O 0.67232 0.7781 0.27891 0.0
C581 C 0.70415 0.67329 0.35257 0.0
C582 C 0.71228 0.75266 0.18608 0.0
C583 C 0.73185 0.63482 0.23184 0.0
C584 C 0.79379 0.72799 0.2854 0.0
C585 C 0.62382 0.68967 0.25421 0.0
C586 C 0.6867 0.79044 0.30411 0.0
O587 O 0.69179 0.65861 0.32731 0.0
O588 O 0.71522 0.199 0.6821 0.0
Zn589 Zn 0.71216 0.21377 0.73016 0.0
O590 O 0.72825 0.25828 0.73164 0.0
Zn591 Zn 0.76964 0.2624 0.75314 0.0
Zn592 Zn 0.73127 0.27451 0.68556 0.0
Zn593 Zn 0.7003 0.28411 0.75693 0.0
O594 O 0.77029 0.29043 0.79495 0.0
O595 O 0.71849 0.29562 0.80252 0.0
O596 O 0.74298 0.1844 0.75334 0.0
O597 O 0.78241 0.2188 0.76709 0.0
O598 O 0.80404 0.27379 0.71977 0.0
O599 O 0.77679 0.27461 0.67178 0.0
O600 O 0.71574 0.32027 0.68187 0.0
O601 O 0.66713 0.20955 0.74895 0.0
O602 O 0.69546 0.32613 0.7331 0.0
O603 O 0.65852 0.26079 0.76304 0.0
C604 C 0.71461 0.21313 0.65356 0.0
C605 C 0.74706 0.29927 0.81293 0.0
C606 C 0.80309 0.27465 0.68768 0.0
C607 C 0.77077 0.19016 0.76523 0.0
C608 C 0.70269 0.33751 0.70423 0.0
C609 C 0.64894 0.23136 0.76014 0.0
O610 O 0.7113 0.24372 0.65179 0.0
O611 O 0.70158 0.78207 0.75589 0.0
Zn612 Zn 0.74222 0.76861 0.77759 0.0
O613 O 0.77867 0.78218 0.75059 0.0
Zn614 Zn 0.80509 0.74514 0.74088 0.0
Zn615 Zn 0.76485 0.80228 0.70855 0.0
Zn616 Zn 0.80333 0.8133 0.77592 0.0
O617 O 0.84995 0.75105 0.75764 0.0
O618 O 0.84877 0.80128 0.77745 0.0
O619 O 0.73889 0.72013 0.77792 0.0
O620 O 0.78472 0.70354 0.75746 0.0
O621 O 0.80722 0.73806 0.69128 0.0
O622 O 0.77669 0.77556 0.66886 0.0
O623 O 0.78189 0.84816 0.70302 0.0
O624 O 0.74413 0.78656 0.82495 0.0
O625 O 0.80212 0.85641 0.75421 0.0
O626 O 0.78781 0.81779 0.82309 0.0
C627 C 0.6955 0.79409 0.72711 0.0
C628 C 0.86393 0.77601 0.77014 0.0
C629 C 0.79395 0.75092 0.6659 0.0
C630 C 0.75721 0.69748 0.76947 0.0
C631 C 0.79463 0.86674 0.72512 0.0
C632 C 0.76402 0.8061 0.83905 0.0
O633 O 0.71751 0.80256 0.70684 0.0
O634 O 0.48431 0.57414 0.503 0.0
Zn635 Zn 0.49702 0.53027 0.48858 0.0
O636 O 0.47383 0.49738 0.5139 0.0
Zn637 Zn 0.50275 0.46539 0.53172 0.0
Zn638 Zn 0.45098 0.51626 0.55079 0.0
Zn639 Zn 0.44403 0.47656 0.48481 0.0
O640 O 0.49779 0.42235 0.50811 0.0
O641 O 0.45207 0.42969 0.48137 0.0
O642 O 0.54301 0.52837 0.50055 0.0
O643 O 0.54786 0.48213 0.52859 0.0
O644 O 0.49692 0.45999 0.58152 0.0
O645 O 0.4763 0.50769 0.5924 0.0
O646 O 0.40555 0.49768 0.55385 0.0
O647 O 0.49033 0.5264 0.4384 0.0
O648 O 0.40012 0.48039 0.50106 0.0
O649 O 0.44849 0.49241 0.4381 0.0
C650 C 0.46709 0.5844 0.52671 0.0
C651 C 0.47475 0.41171 0.48997 0.0
C652 C 0.49249 0.48354 0.6015 0.0
C653 C 0.55986 0.50829 0.51663 0.0
C654 C 0.38841 0.48619 0.52981 0.0
C655 C 0.4686 0.51044 0.42273 0.0
O656 O 0.45221 0.56498 0.5465 0.0
O657 O 0.00062 0.47369 0.02293 0.0
Zn658 Zn 0.98804 0.51044 -0.00651 0.0
O659 O -0.00238 0.55161 0.0163 0.0
Zn660 Zn 0.95808 0.57418 0.02539 0.0
Zn661 Zn 0.02199 0.5442 0.05768 0.0
Zn662 Zn 0.02394 0.57831 0.98778 0.0
O663 O 0.95686 0.61877 0.00288 0.0
O664 O 0.00243 0.61795 0.97492 0.0
O665 O 0.94082 0.50332 0.98737 0.0
O666 O 0.91972 0.54653 0.01083 0.0
O667 O 0.95376 0.57894 0.07534 0.0
O668 O -0.00084 0.56197 0.09727 0.0
O669 O 0.06694 0.56259 0.05617 0.0
O670 O 0.01122 0.50666 0.94903 0.0
O671 O 0.06588 0.5907 0.00859 0.0
O672 O 0.03396 0.55568 0.94571 0.0
C673 C 0.01424 0.47158 0.05152 0.0
C674 C 0.97679 0.63161 0.98244 0.0
C675 C 0.97161 0.5735 0.10067 0.0
C676 C 0.91662 0.51898 -0.00355 0.0
C677 C 0.08035 0.58163 0.03503 0.0
C678 C 0.02829 0.52773 0.93348 0.0
O679 O 0.02412 0.49668 0.06737 0.0
C680 C 0.91263 0.19637 0.08946 0.0
C681 C 0.93615 0.21561 0.0735 0.0
H682 H 0.89042 0.14915 0.0934 0.0
C683 C 0.95142 0.20373 0.04505 0.0
H684 H 0.90048 0.20517 0.11149 0.0
C685 C 0.94514 0.17215 0.03422 0.0
C686 C 0.92414 0.15153 0.0523 0.0
H687 H 0.96946 0.21828 0.03226 0.0
H688 H 0.95863 0.16328 0.01314 0.0
C689 C 0.90693 0.16432 0.07919 0.0
C690 C 0.07188 0.67119 0.30747 0.0
C691 C 0.05399 0.6991 0.31233 0.0
H692 H 0.11633 0.65208 0.29166 0.0
C693 C 0.06655 0.72926 0.30168 0.0
H694 H 0.06277 0.64759 0.31531 0.0
C695 C 0.0971 0.73183 0.28856 0.0
C696 C 0.11574 0.70428 0.28545 0.0
H697 H 0.05331 0.75122 0.30469 0.0
H698 H 0.10642 0.75564 0.28166 0.0
C699 C 0.10252 0.67374 0.29396 0.0
C700 C 0.57463 0.85787 0.58025 0.0
C701 C 0.54828 0.83721 0.5735 0.0
H702 H 0.594 0.90641 0.57783 0.0
C703 C 0.5222 0.84909 0.5557 0.0
H704 H 0.59495 0.84919 0.59417 0.0
C705 C 0.52206 0.88146 0.54557 0.0
C706 C 0.5476 0.90263 0.55402 0.0
H707 H 0.50169 0.83352 0.5502 0.0
H708 H 0.50121 0.89029 0.53271 0.0
C709 C 0.57408 0.89052 0.57103 0.0
C710 C 0.38752 0.20641 0.76543 0.0
C711 C 0.3948 0.2148 0.79897 0.0
H712 H 0.35092 0.19656 0.72874 0.0
C713 C 0.36977 0.22018 0.82141 0.0
H714 H 0.40627 0.20213 0.74752 0.0
C715 C 0.33824 0.21718 0.81069 0.0
C716 C 0.33081 0.20859 0.77725 0.0
H717 H 0.37446 0.22678 0.84741 0.0
H718 H 0.31967 0.22141 0.82883 0.0
C719 C 0.35581 0.20325 0.75467 0.0
C720 C 0.98575 0.81694 0.47167 0.0
C721 C 0.98037 0.81111 0.43721 0.0
H722 H -0.00291 0.85226 0.50972 0.0
C723 C 0.98052 0.83727 0.41462 0.0
H724 H 0.98578 0.79712 0.4896 0.0
C725 C 0.98664 0.86865 0.42608 0.0
C726 C -0.00687 0.87452 0.46035 0.0
H727 H 0.97621 0.83351 0.38794 0.0
H728 H 0.98706 0.88818 0.4078 0.0
C729 C -0.00768 0.84843 0.48315 0.0
C730 C 0.44317 0.73506 0.71199 0.0
C731 C 0.44108 0.72321 0.67887 0.0
H732 H 0.42056 0.73829 0.75997 0.0
C733 C 0.41617 0.7015 0.67013 0.0
H734 H 0.46246 0.75142 0.71956 0.0
C735 C 0.39256 0.69352 0.69333 0.0
C736 C 0.39317 0.70736 0.72568 0.0
H737 H 0.41437 0.69129 0.64503 0.0
H738 H 0.37289 0.67789 0.68521 0.0
C739 C 0.41936 0.72723 0.73524 0.0
C740 C 0.46761 0.17005 0.96609 0.0
C741 C 0.49815 0.17615 0.95312 0.0
H742 H 0.43849 0.14164 -0.0008 0.0
C743 C 0.52406 0.16016 0.96739 0.0
H744 H 0.44725 0.18255 0.95613 0.0
C745 C 0.51903 0.1364 0.99221 0.0
C746 C 0.48804 0.12854 0.00329 0.0
H747 H 0.54792 0.16466 0.95806 0.0
H748 H 0.53915 0.12292 0.00117 0.0
C749 C 0.46264 0.14672 0.99103 0.0
C750 C 0.10675 0.27387 0.15416 0.0
C751 C 0.08281 0.27092 0.17854 0.0
H752 H 0.15659 0.27342 0.14408 0.0
C753 C 0.09119 0.26528 0.2123 0.0
H754 H 0.10091 0.27847 0.12799 0.0
C755 C 0.12298 0.26213 0.22146 0.0
C756 C 0.14695 0.2651 0.19711 0.0
H757 H 0.07316 0.26293 0.23158 0.0
H758 H 0.12878 0.25741 0.24762 0.0
C759 C 0.13859 0.27126 0.16342 0.0
C760 C 0.02092 0.03306 0.17815 0.0
C761 C 0.04045 0.006 0.17688 0.0
H762 H 0.97883 0.05515 0.15945 0.0
C763 C 0.02968 0.97805 0.15986 0.0
H764 H 0.02851 0.05477 0.19161 0.0
C765 C 0.00097 0.97792 0.14228 0.0
C766 C 0.98279 0.00602 0.14074 0.0
H767 H 0.04388 0.95653 0.15926 0.0
H768 H -0.00584 0.95643 0.12805 0.0
C769 C -0.00769 0.03314 0.16006 0.0
C770 C 0.30348 0.79493 0.40288 0.0
C771 C 0.28023 0.80861 0.42335 0.0
H772 H 0.31371 0.77046 0.35682 0.0
C773 C 0.24839 0.80749 0.41228 0.0
H774 H 0.32822 0.79536 0.41062 0.0
C775 C 0.24007 0.79343 0.38128 0.0
C776 C 0.26335 0.77992 0.36068 0.0
H777 H 0.22986 0.81786 0.42737 0.0
H778 H 0.21536 0.79318 0.37349 0.0
C779 C 0.29513 0.78065 0.37199 0.0
C780 C 0.48835 -0.00646 0.71659 0.0
C781 C 0.46383 0.01403 0.72607 0.0
H782 H 0.522 0.98201 0.67841 0.0
C783 C 0.45907 0.04266 0.70774 0.0
H784 H 0.49269 0.97145 0.73046 0.0
C785 C 0.47566 0.04863 0.67808 0.0
C786 C 0.49743 0.02616 0.66635 0.0
H787 H 0.44079 0.0593 0.71492 0.0
H788 H 0.46972 0.06962 0.66309 0.0
C789 C 0.50515 -0.00037 0.68683 0.0
C790 C 0.17962 0.08719 0.89155 0.0
C791 C 0.20165 0.09495 0.91722 0.0
H792 H 0.16164 0.0991 0.84257 0.0
C793 C 0.22245 0.12185 0.913 0.0
H794 H 0.16316 0.06673 0.89418 0.0
C795 C 0.22114 0.14073 0.88389 0.0
C796 C 0.19931 0.1329 0.85807 0.0
H797 H 0.23956 0.12868 0.93239 0.0
H798 H 0.23768 0.16115 0.88142 0.0
C799 C 0.17862 0.10585 0.86212 0.0
C800 C 0.07945 0.9865 0.31795 0.0
C801 C 0.10971 0.00147 0.31505 0.0
H802 H 0.03987 0.97552 0.34986 0.0
C803 C 0.12295 0.01809 0.34278 0.0
H804 H 0.06848 0.97377 0.29686 0.0
C805 C 0.1065 0.01917 0.37311 0.0
C806 C 0.07644 0.00377 0.37621 0.0
H807 H 0.14612 0.03005 0.34119 0.0
H808 H 0.11756 0.03179 0.39422 0.0
C809 C 0.06292 0.98773 0.34823 0.0
C810 C 0.26348 0.8114 0.62493 0.0
C811 C 0.26684 0.79162 0.59643 0.0
H812 H 0.25955 0.81395 0.67851 0.0
C813 C 0.26735 0.75782 0.60086 0.0
H814 H 0.26265 0.83751 0.6224 0.0
C815 C 0.26575 0.7442 0.63323 0.0
C816 C 0.26309 0.76409 0.66182 0.0
H817 H 0.26976 0.7419 0.5794 0.0
H818 H 0.26719 0.71815 0.63589 0.0
C819 C 0.26141 0.79781 0.65715 0.0
C820 C 0.36679 0.97704 0.89456 0.0
C821 C 0.36358 0.00549 0.87555 0.0
H822 H 0.38608 0.95575 0.93926 0.0
C823 C 0.37396 0.03534 0.88904 0.0
H824 H 0.35933 0.9537 0.88434 0.0
C825 C 0.38854 0.03658 0.9207 0.0
C826 C 0.39389 0.00783 0.93859 0.0
H827 H 0.37188 0.05748 0.87456 0.0
H828 H 0.39738 0.05973 0.93022 0.0
C829 C 0.38232 0.97815 0.9257 0.0
C830 C 0.27939 0.15549 0.07596 0.0
C831 C 0.25529 0.16524 0.05389 0.0
H832 H 0.30708 0.16676 0.11967 0.0
C833 C 0.24452 0.19705 0.05544 0.0
H834 H 0.28861 0.13124 0.07462 0.0
C835 C 0.2549 0.2175 0.0816 0.0
C836 C 0.27631 0.20629 0.10618 0.0
H837 H 0.22618 0.20512 0.03833 0.0
H838 H 0.24405 0.24088 0.08417 0.0
C839 C 0.29012 0.17598 0.10163 0.0
C840 C 0.10903 0.04658 0.04307 0.0
C841 C 0.1198 0.07602 0.02879 0.0
H842 H 0.06914 0.01506 0.05364 0.0
C843 C 0.09755 0.09714 0.01497 0.0
H844 H 0.12562 0.02985 0.05402 0.0
C845 C 0.06527 0.08855 0.01446 0.0
C846 C 0.05452 0.05877 0.02801 0.0
H847 H 0.1051 0.12 0.00376 0.0
H848 H 0.04879 0.10519 0.00314 0.0
C849 C 0.07667 0.0381 0.04282 0.0
C850 C 0.62884 0.41998 0.02692 0.0
C851 C 0.65763 0.43244 0.01383 0.0
H852 H 0.57876 0.42558 0.03177 0.0
C853 C 0.65769 0.46243 -0.00306 0.0
H854 H 0.62794 0.39706 0.04027 0.0
C855 C 0.62932 0.4789 0.99203 0.0
C856 C 0.60031 0.46573 0.00393 0.0
H857 H 0.67948 0.47278 0.98666 0.0
H858 H 0.63005 0.50146 0.97802 0.0
C859 C 0.60057 0.43641 0.02206 0.0
C860 C 0.83619 0.39 0.27553 0.0
C861 C 0.81474 0.41537 0.27617 0.0
H862 H 0.84221 0.33885 0.27695 0.0
C863 C 0.78212 0.40845 0.28002 0.0
H864 H 0.8615 0.39485 0.27298 0.0
C865 C 0.77096 0.37635 0.2818 0.0
C866 C 0.79242 0.35092 0.28074 0.0
H867 H 0.76521 0.42779 0.28067 0.0
H868 H 0.74561 0.37141 0.28362 0.0
C869 C 0.82516 0.35803 0.27821 0.0
C870 C 0.82886 0.53774 0.57639 0.0
C871 C 0.81201 0.53195 0.54607 0.0
H872 H 0.874 0.53602 0.60197 0.0
C873 C 0.82675 0.5152 0.52 0.0
H874 H 0.81796 0.55037 0.59707 0.0
C875 C 0.85862 0.50737 0.52281 0.0
C876 C 0.87616 0.51562 0.5519 0.0
H877 H 0.81441 0.51008 0.4965 0.0
H878 H 0.87008 0.49639 0.50142 0.0
C879 C 0.8608 0.52944 0.57936 0.0
C880 C 0.23414 0.06856 0.21731 0.0
C881 C 0.2012 0.06286 0.21972 0.0
H882 H 0.27268 0.10333 0.22156 0.0
C883 C 0.18187 0.08793 0.23077 0.0
H884 H 0.24959 0.04954 0.20913 0.0
C885 C 0.19505 0.11828 0.23865 0.0
C886 C 0.22783 0.12448 0.23513 0.0
H887 H 0.15643 0.08411 0.23346 0.0
H888 H 0.17928 0.13718 0.2464 0.0
C889 C 0.24734 0.09924 0.22466 0.0
C890 C 0.37666 0.92527 0.50445 0.0
C891 C 0.35206 0.93435 0.52603 0.0
H892 H 0.42396 0.93534 0.48692 0.0
C893 C 0.35638 0.96243 0.54573 0.0
H894 H 0.37404 0.90387 0.4888 0.0
C895 C 0.38492 0.98049 0.54463 0.0
C896 C 0.40988 0.97101 0.52371 0.0
H897 H 0.33789 0.97026 0.56251 0.0
H898 H 0.38758 0.00159 0.56071 0.0
C899 C 0.40523 0.94343 0.50325 0.0
C900 C 0.76608 0.55358 0.24682 0.0
C901 C 0.78972 0.55341 0.22216 0.0
H902 H 0.7278 0.57911 0.2682 0.0
C903 C 0.7897 0.57655 0.19626 0.0
H904 H 0.76555 0.53556 0.26673 0.0
C905 C 0.76848 0.60196 0.19737 0.0
C906 C 0.74676 0.60392 0.22401 0.0
H907 H 0.80777 0.57661 0.17691 0.0
H908 H 0.77062 0.62121 0.17886 0.0
C909 C 0.74437 0.5784 0.24744 0.0
C910 C 0.68973 0.41868 0.66205 0.0
C911 C 0.69 0.43935 0.69023 0.0
H912 H 0.69369 0.36975 0.64426 0.0
C913 C 0.69609 0.42637 0.72228 0.0
H914 H 0.68509 0.42804 0.63702 0.0
C915 C 0.70013 0.39333 0.72641 0.0
C916 C 0.6988 0.37243 0.69855 0.0
H917 H 0.69663 0.44152 0.74456 0.0
H918 H 0.70424 0.38414 0.75162 0.0
C919 C 0.69444 0.3854 0.66616 0.0
C920 C 0.94672 0.88632 0.92617 0.0
C921 C 0.97778 0.87475 0.92825 0.0
H922 H 0.91325 0.91993 0.94476 0.0
C923 C -0.00105 0.88802 0.95229 0.0
H924 H 0.92982 0.87643 0.90796 0.0
C925 C 0.98937 0.91269 0.97358 0.0
C926 C 0.95849 0.92474 0.9711 0.0
H927 H 0.02296 0.8794 0.95466 0.0
H928 H 0.00643 0.92271 0.99155 0.0
C929 C 0.93718 0.91115 0.94734 0.0
C930 C 0.88494 0.24607 0.6661 0.0
C931 C 0.88471 0.24817 0.63075 0.0
H932 H 0.85987 0.25393 0.71189 0.0
C933 C 0.85847 0.26165 0.61442 0.0
H934 H 0.90508 0.23629 0.67946 0.0
C935 C 0.83247 0.27183 0.63305 0.0
C936 C 0.83246 0.26923 0.66843 0.0
H937 H 0.85778 0.26379 0.58721 0.0
H938 H 0.81207 0.28104 0.61967 0.0
C939 C 0.85923 0.25671 0.68474 0.0
C940 C 0.4987 0.18993 0.50333 0.0
C941 C 0.48506 0.18832 0.47095 0.0
H942 H 0.51053 0.16336 0.54784 0.0
C943 C 0.46584 0.16126 0.46212 0.0
H944 H 0.51328 0.21066 0.51104 0.0
C945 C 0.46345 0.13464 0.48379 0.0
C946 C 0.48052 0.13476 0.51422 0.0
H947 H 0.45457 0.15966 0.43754 0.0
H948 H 0.4514 0.11267 0.475 0.0
C949 C 0.4967 0.16313 0.52471 0.0
C950 C 0.55621 0.65926 0.2013 0.0
C951 C 0.53744 0.68692 0.20193 0.0
H952 H 0.59931 0.63803 0.21881 0.0
C953 C 0.54289 0.71046 0.22686 0.0
H954 H 0.55219 0.64068 0.18238 0.0
C955 C 0.56932 0.70868 0.24784 0.0
C956 C 0.59076 0.68352 0.24391 0.0
H957 H 0.52825 0.73163 0.22828 0.0
H958 H 0.57478 0.72876 0.26467 0.0
C959 C 0.58297 0.65759 0.22229 0.0
C960 C -0.00083 0.15556 0.50901 0.0
C961 C 0.02161 0.17048 0.53049 0.0
H962 H 0.98713 0.11388 0.47949 0.0
C963 C 0.05229 0.15785 0.533 0.0
H964 H 0.97561 0.16524 0.5061 0.0
C965 C 0.05885 0.12811 0.51807 0.0
C966 C 0.03481 0.11107 0.50037 0.0
H967 H 0.07016 0.16917 0.5492 0.0
H968 H 0.08141 0.11707 0.52337 0.0
C969 C 0.00586 0.12623 0.49375 0.0
C970 C 0.60085 0.22063 0.32539 0.0
C971 C 0.58351 0.24872 0.31978 0.0
H972 H 0.64366 0.19566 0.31658 0.0
C973 C 0.59623 0.27315 0.29871 0.0
H974 H 0.59155 0.20123 0.34122 0.0
C975 C 0.62633 0.27004 0.28453 0.0
C976 C 0.64411 0.24235 0.29106 0.0
H977 H 0.5833 0.29504 0.29381 0.0
H978 H 0.63594 0.28963 0.26915 0.0
C979 C 0.63074 0.21743 0.31111 0.0
C980 C 0.48955 0.8399 0.04497 0.0
C981 C 0.48886 0.82773 0.07801 0.0
H982 H 0.48095 0.88011 0.01247 0.0
C983 C 0.47812 0.84755 0.10415 0.0
H984 H 0.49743 0.82513 0.02425 0.0
C985 C 0.46838 0.87895 0.0974 0.0
C986 C 0.46917 0.89121 0.06436 0.0
H987 H 0.47703 0.8388 0.12988 0.0
H988 H 0.46057 0.89368 0.11817 0.0
C989 C 0.47977 0.87131 0.0382 0.0
C990 C 0.94614 0.80529 0.79476 0.0
C991 C 0.96123 0.77595 0.80123 0.0
H992 H 0.90343 0.8282 0.77992 0.0
C993 C 0.94553 0.74656 0.79274 0.0
H994 H 0.95775 0.82837 0.8006 0.0
C995 C 0.91422 0.74648 0.78081 0.0
C996 C 0.89825 0.77577 0.77741 0.0
H997 H 0.95664 0.72356 0.79727 0.0
H998 H 0.90202 0.72346 0.77615 0.0
C999 C 0.91491 0.80519 0.78313 0.0
C1000 C 0.92563 0.0552 0.84896 0.0
C1001 C 0.89469 0.04728 0.83764 0.0
H1002 H 0.95628 0.06304 0.89155 0.0
C1003 C 0.87001 0.04384 0.86106 0.0
H1004 H 0.94502 0.05844 0.83134 0.0
C1005 C 0.87642 0.04656 0.89535 0.0
C1006 C 0.90759 0.05297 0.90682 0.0
H1007 H 0.84586 0.03813 0.85301 0.0
H1008 H 0.85709 0.04264 0.91294 0.0
C1009 C 0.93201 0.05819 0.88335 0.0
C1010 C 0.76404 0.15099 0.61174 0.0
C1011 C 0.78302 0.17108 0.59114 0.0
H1012 H 0.72545 0.14827 0.64656 0.0
C1013 C 0.77385 0.20295 0.58494 0.0
H1014 H 0.771 0.12643 0.61719 0.0
C1015 C 0.74766 0.21553 0.60151 0.0
C1016 C 0.73087 0.19666 0.62546 0.0
H1017 H 0.78845 0.21893 0.5694 0.0
H1018 H 0.74308 0.24108 0.59845 0.0
C1019 C 0.73791 0.16356 0.62848 0.0
C1020 C 0.58977 0.05143 0.37353 0.0
C1021 C 0.59316 0.02206 0.35641 0.0
H1022 H 0.57235 0.07484 0.41751 0.0
C1023 C 0.57904 -0.00645 0.36969 0.0
H1024 H 0.60027 0.07375 0.36375 0.0
C1025 C 0.56272 -0.00581 0.40012 0.0
C1026 C 0.56058 0.02326 0.4181 0.0
H1027 H 0.5809 0.97058 0.35676 0.0
H1028 H 0.55282 0.97169 0.41013 0.0
C1029 C 0.57381 0.05199 0.40427 0.0
C1030 C 0.6893 0.81035 0.11654 0.0
C1031 C 0.71681 0.81146 0.0967 0.0
H1032 H 0.66621 0.7908 0.16002 0.0
C1033 C 0.7423 0.79168 0.10539 0.0
H1034 H 0.66916 0.82515 0.11043 0.0
C1035 C 0.74063 0.77186 0.13396 0.0
C1036 C 0.71342 0.77147 0.15435 0.0
H1037 H 0.76379 0.79192 0.0905 0.0
H1038 H 0.7609 0.75738 0.14042 0.0
C1039 C 0.68761 0.79059 0.14501 0.0
C1040 C 0.98465 0.02969 0.65993 0.0
C1041 C 0.96937 0.00373 0.67652 0.0
H1042 H 0.01122 0.04515 0.61707 0.0
C1043 C 0.97368 0.97193 0.66509 0.0
H1044 H 0.98223 0.05436 0.6687 0.0
C1045 C 0.99013 0.96657 0.63519 0.0
C1046 C 0.0025 -0.007 0.6167 0.0
H1047 H 0.96229 0.95147 0.67769 0.0
H1048 H -0.00909 0.94216 0.6253 0.0
C1049 C 0.00128 0.02435 0.63041 0.0
C1050 C 0.81713 0.19518 0.43164 0.0
C1051 C 0.7946 0.17448 0.44729 0.0
H1052 H 0.82946 0.2228 0.38763 0.0
C1053 C 0.76569 0.16746 0.43066 0.0
H1054 H 0.83961 0.20114 0.44387 0.0
C1055 C 0.75992 0.17977 0.39855 0.0
C1056 C 0.7829 0.19947 0.38227 0.0
H1057 H 0.74772 0.15177 0.44209 0.0
H1058 H 0.73762 0.17324 0.38622 0.0
C1059 C 0.81132 0.2076 0.39942 0.0
C1060 C 0.52769 -0.00362 0.21427 0.0
C1061 C 0.56078 0.00141 0.2124 0.0
H1062 H 0.4829 -0.00048 0.18877 0.0
C1063 C 0.57372 0.01725 0.18409 0.0
H1064 H 0.51702 0.9846 0.236 0.0
C1065 C 0.55419 0.02643 0.15742 0.0
C1066 C 0.5213 0.01952 0.15822 0.0
H1067 H 0.59909 0.02208 0.18222 0.0
H1068 H 0.56521 0.03737 0.13543 0.0
C1069 C 0.50814 0.00518 0.18733 0.0
C1070 C 0.72283 0.82615 0.92072 0.0
C1071 C 0.74663 0.84447 0.93762 0.0
H1072 H 0.70974 0.79923 0.87644 0.0
C1073 C 0.77674 0.84813 0.92285 0.0
H1074 H 0.69941 0.82273 0.93157 0.0
C1075 C 0.78261 0.8348 0.89127 0.0
C1076 C 0.75856 0.81729 0.87387 0.0
H1077 H 0.79563 0.86198 0.93527 0.0
H1078 H 0.80588 0.83874 0.88025 0.0
C1079 C 0.72878 0.81256 0.88921 0.0
C1080 C 0.79113 0.95459 0.09369 0.0
C1081 C 0.76984 0.95268 0.06624 0.0
H1082 H 0.83563 0.97467 0.11217 0.0
C1083 C 0.77384 0.97424 0.03915 0.0
H1084 H 0.78837 0.93834 0.11499 0.0
C1085 C 0.80027 -0.00494 0.03785 0.0
C1086 C 0.82329 -0.00529 0.06352 0.0
H1087 H 0.75742 0.97384 0.018 0.0
H1088 H 0.80394 0.00976 0.01547 0.0
C1089 C 0.81792 0.97554 0.09228 0.0
C1090 C 0.32894 0.51153 0.95775 0.0
C1091 C 0.31811 0.54164 0.94659 0.0
H1092 H 0.36789 0.47922 0.95916 0.0
C1093 C 0.33504 0.55824 0.92111 0.0
H1094 H 0.31628 0.49817 0.97723 0.0
C1095 C 0.36471 0.54737 0.91088 0.0
C1096 C 0.37737 0.5195 0.92546 0.0
H1097 H 0.32737 0.58158 0.91209 0.0
H1098 H 0.37931 0.56284 0.8948 0.0
C1099 C 0.35831 0.50046 0.94708 0.0
C1100 C 0.23188 0.55908 0.73318 0.0
C1101 C 0.2201 0.54287 0.76188 0.0
H1102 H 0.254 0.60239 0.71341 0.0
C1103 C 0.22475 0.55715 0.79369 0.0
H1104 H 0.22879 0.54862 0.70832 0.0
C1105 C 0.23896 0.58789 0.79656 0.0
C1106 C 0.249 0.60501 0.76771 0.0
H1107 H 0.21624 0.54519 0.81635 0.0
H1108 H 0.24118 0.59861 0.82139 0.0
C1109 C 0.24628 0.5899 0.73607 0.0
C1110 C 0.15372 0.44452 0.5037 0.0
C1111 C 0.15426 0.42259 0.47666 0.0
H1112 H 0.12692 0.47908 0.53086 0.0
C1113 C 0.12869 0.42116 0.45386 0.0
H1114 H 0.17341 0.44635 0.52138 0.0
C1115 C 0.10188 0.43961 0.45954 0.0
C1116 C 0.10065 0.46026 0.48764 0.0
H1117 H 0.12866 0.40454 0.43275 0.0
H1118 H 0.08165 0.4368 0.44268 0.0
C1119 C 0.12727 0.46348 0.50893 0.0
C1120 C 0.82156 0.95283 0.73793 0.0
C1121 C 0.83386 0.96089 0.70612 0.0
H1122 H 0.79882 0.91677 0.76853 0.0
C1123 C 0.82844 0.93963 0.67893 0.0
H1124 H 0.82472 0.96906 0.7592 0.0
C1125 C 0.81328 0.90945 0.68433 0.0
C1126 C 0.80357 0.90045 0.71692 0.0
H1127 H 0.83751 0.94546 0.6541 0.0
H1128 H 0.81113 0.89244 0.66362 0.0
C1129 C 0.80662 0.92292 0.74327 0.0
C1130 C 0.69289 0.06405 0.56989 0.0
C1131 C 0.69737 0.0972 0.56223 0.0
H1132 H 0.6592 0.02453 0.57646 0.0
C1133 C 0.67075 0.1169 0.56031 0.0
H1134 H 0.71301 0.0483 0.57183 0.0
C1135 C 0.64022 0.10334 0.56289 0.0
C1136 C 0.63558 0.06981 0.56772 0.0
H1137 H 0.67337 0.14261 0.55507 0.0
H1138 H 0.62013 0.11894 0.55945 0.0
C1139 C 0.66214 0.05044 0.57272 0.0
C1140 C 0.1917 0.35367 0.82052 0.0
C1141 C 0.18323 0.37412 0.79366 0.0
H1142 H 0.20374 0.3054 0.83567 0.0
C1143 C 0.18186 0.36152 0.76088 0.0
H1144 H 0.19305 0.36279 0.84608 0.0
C1145 C 0.18776 0.32911 0.75507 0.0
C1146 C 0.19533 0.30825 0.78182 0.0
H1147 H 0.17569 0.37657 0.73954 0.0
H1148 H 0.18609 0.32037 0.72936 0.0
C1149 C 0.19784 0.3209 0.81461 0.0
C1150 C 0.32823 0.59461 0.30803 0.0
C1151 C 0.32349 0.57071 0.28329 0.0
H1152 H 0.31228 0.63965 0.32789 0.0
C1153 C 0.29592 0.57064 0.2633 0.0
H1154 H 0.34935 0.59486 0.32379 0.0
C1155 C 0.27416 0.59526 0.26663 0.0
C1156 C 0.28026 0.62085 0.28923 0.0
H1157 H 0.29171 0.55209 0.24436 0.0
H1158 H 0.25404 0.5957 0.24946 0.0
C1159 C 0.30698 0.61993 0.31058 0.0
C1160 C 0.49269 0.67256 0.52275 0.0
C1161 C 0.49397 0.68002 0.55719 0.0
H1162 H 0.48273 0.6358 0.48573 0.0
C1163 C 0.48165 0.65756 0.58067 0.0
H1164 H 0.50166 0.68974 0.50422 0.0
C1165 C 0.46976 0.62745 0.57013 0.0
C1166 C 0.47078 0.61884 0.53598 0.0
H1167 H 0.48171 0.66302 0.60737 0.0
H1168 H 0.46189 0.61015 0.58909 0.0
C1169 C 0.48159 0.64193 0.51223 0.0
C1170 C 0.57948 0.18466 0.7993 0.0
C1171 C 0.55805 0.20972 0.80476 0.0
H1172 H 0.62518 0.1717 0.78044 0.0
C1173 C 0.56548 0.2408 0.79206 0.0
H1174 H 0.57437 0.16041 0.80861 0.0
C1175 C 0.59439 0.24721 0.77617 0.0
C1176 C 0.61662 0.22271 0.7723 0.0
H1177 H 0.54942 0.26062 0.79539 0.0
H1178 H 0.5997 0.27175 0.76777 0.0
C1179 C 0.60852 0.19109 0.78307 0.0
C1180 C -0.00279 0.38344 0.07122 0.0
C1181 C 0.01258 0.3799 0.10247 0.0
H1182 H 0.98624 0.41489 0.03034 0.0
C1183 C 0.02996 0.40632 0.11612 0.0
H1184 H 0.98388 0.36342 0.05986 0.0
C1185 C 0.03133 0.43599 0.09913 0.0
C1186 C 0.01555 0.43962 0.06807 0.0
H1187 H 0.0422 0.40422 0.14009 0.0
H1188 H 0.04438 0.45614 0.11056 0.0
C1189 C -0.0012 0.41291 0.05414 0.0
C1190 C 0.86875 0.72968 0.33823 0.0
C1191 C 0.89257 0.728 0.31371 0.0
H1192 H 0.81916 0.73164 0.34851 0.0
C1193 C 0.8838 0.72749 0.27947 0.0
H1194 H 0.87472 0.73042 0.36482 0.0
C1195 C 0.85169 0.72799 0.27003 0.0
C1196 C 0.82789 0.72955 0.29466 0.0
H1197 H 0.90168 0.72629 0.26003 0.0
H1198 H 0.84553 0.72701 0.2435 0.0
C1199 C 0.83685 0.73068 0.32883 0.0
C1200 C 0.47281 0.34476 0.89447 0.0
C1201 C 0.46972 0.32119 0.91988 0.0
H1202 H 0.47719 0.395 0.88229 0.0
C1203 C 0.46786 0.33117 0.95364 0.0
H1204 H 0.4741 0.3379 0.86819 0.0
C1205 C 0.4698 0.36414 0.96185 0.0
C1206 C 0.47333 0.38768 0.93638 0.0
H1207 H 0.46545 0.31354 0.97378 0.0
H1208 H 0.46879 0.37113 0.9881 0.0
C1209 C 0.47447 0.37758 0.9026 0.0
C1210 C 0.91952 0.20517 0.18755 0.0
C1211 C 0.93812 0.23273 0.19613 0.0
H1212 H 0.87474 0.17992 0.19357 0.0
C1213 C 0.92817 0.2532 0.22188 0.0
H1214 H 0.92683 0.18904 0.16769 0.0
C1215 C 0.89893 0.24748 0.23729 0.0
C1216 C 0.87883 0.22176 0.2264 0.0
H1217 H 0.94228 0.2745 0.22891 0.0
H1218 H 0.89108 0.26469 0.25588 0.0
C1219 C 0.88976 0.2 0.20222 0.0
C1220 C 0.04302 0.65476 0.45964 0.0
C1221 C 0.01499 0.6719 0.45446 0.0
H1222 H 0.06406 0.61383 0.48361 0.0
C1223 C 0.98865 0.66539 0.47505 0.0
H1224 H 0.06377 0.65968 0.44424 0.0
C1225 C 0.98905 0.63989 0.49796 0.0
C1226 C 0.0156 0.62002 0.50021 0.0
H1227 H 0.96704 0.67888 0.47213 0.0
H1228 H 0.96752 0.63399 0.51177 0.0
C1229 C 0.0433 0.62877 0.4824 0.0
C1230 C 0.60601 0.78432 0.72501 0.0
C1231 C 0.60074 0.77928 0.69044 0.0
H1232 H 0.64067 0.79297 0.76404 0.0
C1233 C 0.62624 0.78243 0.66798 0.0
H1234 H 0.58656 0.78225 0.7427 0.0
C1235 C 0.65676 0.78952 0.67993 0.0
C1236 C 0.6625 0.79281 0.71467 0.0
H1237 H 0.62266 0.77918 0.64113 0.0
H1238 H 0.67608 0.7908 0.662 0.0
C1239 C 0.63682 0.7906 0.73713 0.0
C1240 C 0.55734 0.4656 0.66379 0.0
C1241 C 0.56943 0.49705 0.67026 0.0
H1242 H 0.52273 0.43648 0.63697 0.0
C1243 C 0.55288 0.52381 0.65838 0.0
H1244 H 0.56957 0.44456 0.67305 0.0
C1245 C 0.52551 0.51921 0.63882 0.0
C1246 C 0.51474 0.48774 0.63005 0.0
H1247 H 0.56142 0.5483 0.66364 0.0
H1248 H 0.51421 0.54041 0.6286 0.0
C1249 C 0.53039 0.46096 0.6435 0.0
C1250 C 0.78978 0.33524 0.8894 0.0
C1251 C 0.76418 0.34372 0.90992 0.0
H1252 H 0.80457 0.31454 0.84274 0.0
C1253 C 0.73303 0.33692 0.89854 0.0
H1254 H 0.81408 0.34013 0.89741 0.0
C1255 C 0.72757 0.32239 0.86719 0.0
C1256 C 0.75313 0.31419 0.84644 0.0
H1257 H 0.71274 0.34312 0.91368 0.0
H1258 H 0.70323 0.31773 0.8592 0.0
C1259 C 0.78432 0.32058 0.85802 0.0
C1260 C 0.91091 0.55861 0.16759 0.0
C1261 C 0.93032 0.55263 0.19561 0.0
H1262 H 0.90876 0.57172 0.11574 0.0
C1263 C 0.96303 0.55965 0.19397 0.0
H1264 H 0.88545 0.55402 0.16868 0.0
C1265 C 0.97661 0.56943 0.1634 0.0
C1266 C 0.95741 0.57297 0.13451 0.0
H1267 H 0.97828 0.55553 0.21557 0.0
H1268 H 0.00222 0.57232 0.16188 0.0
C1269 C 0.92426 0.56917 0.13742 0.0
C1270 C 0.69479 0.60819 0.41939 0.0
C1271 C 0.71565 0.61984 0.44462 0.0
H1272 H 0.67448 0.6161 0.37061 0.0
C1273 C 0.73181 0.64971 0.43982 0.0
H1274 H 0.68183 0.58535 0.42247 0.0
C1275 C 0.72722 0.66757 0.4104 0.0
C1276 C 0.70662 0.6558 0.38497 0.0
H1277 H 0.74783 0.65953 0.45892 0.0
H1278 H 0.74032 0.69033 0.40737 0.0
C1279 C 0.69042 0.62592 0.38979 0.0
C1280 C 0.583 0.56999 0.81972 0.0
C1281 C 0.58929 0.54438 0.79783 0.0
H1282 H 0.55881 0.58458 0.86433 0.0
C1283 C 0.57315 0.51442 0.80177 0.0
H1284 H 0.5951 0.59334 0.81687 0.0
C1285 C 0.55168 0.50977 0.82802 0.0
C1286 C 0.54679 0.53477 0.85112 0.0
H1287 H 0.57736 0.49451 0.78472 0.0
H1288 H 0.54027 0.48614 0.83131 0.0
C1289 C 0.56223 0.56504 0.8466 0.0
C1290 C 0.76464 0.28467 0.07874 0.0
C1291 C 0.7528 0.3162 0.07647 0.0
H1292 H 0.77239 0.24313 0.11002 0.0
C1293 C 0.73757 0.32914 0.10465 0.0
H1294 H 0.7764 0.2739 0.05746 0.0
C1295 C 0.7349 0.31137 0.13458 0.0
C1296 C 0.74765 0.28025 0.13732 0.0
H1297 H 0.72789 0.3532 0.10372 0.0
H1298 H 0.72357 0.32253 0.15591 0.0
C1299 C 0.76223 0.26696 0.10886 0.0
C1300 C 0.93961 0.46005 0.35812 0.0
C1301 C 0.92429 0.48713 0.34477 0.0
H1302 H 0.96455 0.44008 0.40023 0.0
C1303 C 0.92373 0.51583 0.36358 0.0
H1304 H 0.94039 0.43759 0.3441 0.0
C1305 C 0.93765 0.51731 0.39543 0.0
C1306 C 0.95224 0.49003 0.40932 0.0
H1307 H 0.91229 0.53715 0.35386 0.0
H1308 H 0.93637 0.53978 0.40938 0.0
C1309 C 0.95338 0.46144 0.39024 0.0
C1310 C 0.81057 0.68538 0.6038 0.0
C1311 C 0.78044 0.6815 0.58878 0.0
H1312 H 0.83875 0.71125 0.64055 0.0
C1313 C 0.75732 0.70472 0.59433 0.0
H1314 H 0.8288 0.66778 0.59965 0.0
C1315 C 0.76337 0.73013 0.61673 0.0
C1316 C 0.79226 0.73201 0.63462 0.0
H1317 H 0.73407 0.70236 0.58256 0.0
H1318 H 0.74432 0.74642 0.62231 0.0
C1319 C 0.81631 0.71028 0.62698 0.0
C1320 C 0.63281 0.56068 0.5334 0.0
C1321 C 0.65397 0.53847 0.54732 0.0
H1322 H 0.58714 0.56839 0.51193 0.0
C1323 C 0.64427 0.50576 0.55039 0.0
H1324 H 0.63961 0.58601 0.53031 0.0
C1325 C 0.61382 0.49557 0.53984 0.0
C1326 C 0.59289 0.51785 0.5255 0.0
H1327 H 0.66018 0.4881 0.56088 0.0
H1328 H 0.6067 0.47033 0.54291 0.0
C1329 C 0.60279 0.55046 0.52237 0.0
C1330 C 0.16694 0.90961 0.56083 0.0
C1331 C 0.19339 0.91624 0.54031 0.0
H1332 H 0.1184 0.91968 0.57133 0.0
C1333 C 0.19191 0.94142 0.51646 0.0
H1334 H 0.16736 0.89049 0.57955 0.0
C1335 C 0.16391 0.95853 0.51211 0.0
C1336 C 0.13682 0.95037 0.53115 0.0
H1337 H 0.21204 0.94726 0.50048 0.0
H1338 H 0.16298 0.9769 0.49262 0.0
C1339 C 0.13886 0.92632 0.55611 0.0
C1340 C 0.33224 0.89439 0.78003 0.0
C1341 C 0.36176 0.90112 0.7955 0.0
H1342 H 0.29519 0.8596 0.77018 0.0
C1343 C 0.37627 0.87685 0.81457 0.0
H1344 H 0.32016 0.91271 0.76559 0.0
C1345 C 0.36188 0.84598 0.81711 0.0
C1346 C 0.33254 0.8392 0.80108 0.0
H1347 H 0.39891 0.88154 0.82701 0.0
H1348 H 0.37391 0.82736 0.83117 0.0
C1349 C 0.31771 0.86393 0.78299 0.0
C1350 C 0.30396 0.0523 0.1007 0.0
C1351 C 0.28616 0.03041 0.0805 0.0
H1352 H 0.35052 0.0673 0.11782 0.0
C1353 C 0.3007 0.00283 0.06782 0.0
H1354 H 0.29333 0.07398 0.11048 0.0
C1355 C 0.33314 -0.00158 0.07325 0.0
C1356 C 0.35151 0.02211 0.0904 0.0
H1357 H 0.28743 0.98578 0.05206 0.0
H1358 H 0.3444 0.97818 0.06121 0.0
C1359 C 0.33661 0.04853 0.10502 0.0
C1360 C 0.75044 0.6071 0.7538 0.0
C1361 C 0.71757 0.60317 0.74829 0.0
H1362 H 0.78907 0.64042 0.76501 0.0
C1363 C 0.6978 0.62952 0.75347 0.0
H1364 H 0.7661 0.58698 0.75028 0.0
C1365 C 0.71068 0.65958 0.76298 0.0
C1366 C 0.74374 0.66418 0.7667 0.0
H1367 H 0.67229 0.62695 0.75002 0.0
H1368 H 0.69477 0.67962 0.76569 0.0
C1369 C 0.76351 0.63754 0.76248 0.0
C1370 C 0.82748 0.50346 0.0039 0.0
C1371 C 0.8248 0.46994 -0.00236 0.0
H1372 H 0.85846 0.54534 0.00827 0.0
C1373 C 0.85217 0.45332 0.98855 0.0
H1374 H 0.80683 0.51704 0.01082 0.0
C1375 C 0.88166 0.46963 0.98659 0.0
C1376 C 0.88463 0.50293 -0.00594 0.0
H1377 H 0.8509 0.42757 0.98324 0.0
H1378 H 0.90233 0.4558 0.98028 0.0
C1379 C 0.85709 0.51973 0.00232 0.0
C1380 C 0.29553 0.05112 0.69943 0.0
C1381 C 0.2856 0.02747 0.72281 0.0
H1382 H 0.28513 0.0959 0.67548 0.0
C1383 C 0.25398 0.02669 0.73381 0.0
H1384 H 0.31962 0.05164 0.6899 0.0
C1385 C 0.23414 0.05224 0.72571 0.0
C1386 C 0.24588 0.07866 0.70656 0.0
H1387 H 0.24567 0.00837 0.75149 0.0
H1388 H 0.21106 0.05298 0.7376 0.0
C1389 C 0.27567 0.07638 0.69106 0.0
C1390 C 0.16361 0.86856 0.16415 0.0
C1391 C 0.16978 0.89467 0.18623 0.0
H1392 H 0.16951 0.81773 0.15478 0.0
C1393 C 0.18938 0.88995 0.2145 0.0
H1394 H 0.14872 0.87152 0.14206 0.0
C1395 C 0.20063 0.85939 0.22194 0.0
C1396 C 0.19311 0.83293 0.20099 0.0
H1397 H 0.19493 0.90952 0.2319 0.0
H1398 H 0.21467 0.8563 0.24466 0.0
C1399 C 0.17548 0.83785 0.17136 0.0
C1400 C 0.50511 0.33624 0.44941 0.0
C1401 C 0.47671 0.32199 0.43689 0.0
H1402 H 0.52671 0.37566 0.47702 0.0
C1403 C 0.4476 0.33573 0.44496 0.0
H1404 H 0.52788 0.32583 0.44395 0.0
C1405 C 0.44697 0.36415 0.46377 0.0
C1406 C 0.47541 0.37911 0.47521 0.0
H1407 H 0.42534 0.32509 0.43592 0.0
H1408 H 0.42423 0.37491 0.46861 0.0
C1409 C 0.50445 0.36449 0.46866 0.0
C1410 C 0.36524 0.76205 0.13684 0.0
C1411 C 0.39169 0.74532 0.14868 0.0
H1412 H 0.31728 0.77546 0.14611 0.0
C1413 C 0.39042 0.73039 0.18051 0.0
H1414 H 0.36571 0.77401 0.11252 0.0
C1415 C 0.36313 0.73188 0.20001 0.0
C1416 C 0.33633 0.74786 0.18787 0.0
H1417 H 0.41062 0.71771 0.19055 0.0
H1418 H 0.36274 0.71958 0.22416 0.0
C1419 C 0.33766 0.76309 0.15617 0.0
C1420 C 0.96829 0.7217 0.97357 0.0
C1421 C 0.98074 0.72625 0.941 0.0
H1422 H 0.95659 0.68719 0.01258 0.0
C1423 C 0.98589 0.69911 0.9207 0.0
H1424 H 0.96381 0.74227 0.98961 0.0
C1425 C 0.98147 0.66805 0.93361 0.0
C1426 C 0.97177 0.66341 0.96706 0.0
H1427 H -0.00525 0.70178 0.89523 0.0
H1428 H 0.98754 0.64758 0.91803 0.0
C1429 C 0.96383 0.6903 0.9866 0.0
C1430 C 0.04325 0.2104 0.72066 0.0
C1431 C 0.03246 0.19258 0.6926 0.0
H1432 H 0.08233 0.22038 0.75422 0.0
C1433 C 0.05019 0.16637 0.68118 0.0
H1434 H 0.03005 0.23072 0.72988 0.0
C1435 C 0.07967 0.15991 0.69571 0.0
C1436 C 0.09193 0.18006 0.72127 0.0
H1437 H 0.04216 0.15216 0.65966 0.0
H1438 H 0.09406 0.14123 0.68488 0.0
C1439 C 0.07306 0.20446 0.73458 0.0
C1440 C 0.47587 0.67475 0.00472 0.0
C1441 C 0.495 0.68063 0.03323 0.0
H1442 H 0.46538 0.6433 0.96324 0.0
C1443 C 0.52207 0.66189 0.03844 0.0
H1444 H 0.45521 0.68915 -0.00034 0.0
C1445 C 0.52803 0.63566 0.01743 0.0
C1446 C 0.50693 0.62776 0.99101 0.0
H1447 H 0.53761 0.66622 0.05991 0.0
H1448 H 0.54764 0.62016 0.02357 0.0
C1449 C 0.48182 0.64857 0.98376 0.0
C1450 C 0.13192 0.78801 0.83561 0.0
C1451 C 0.114 0.76278 0.8508 0.0
H1452 H 0.17544 0.80204 0.81108 0.0
C1453 C 0.12684 0.73182 0.85299 0.0
H1454 H 0.12252 0.81212 0.83343 0.0
C1455 C 0.15696 0.7261 0.84036 0.0
C1456 C 0.17492 0.75117 0.82497 0.0
H1457 H 0.11365 0.71186 0.86453 0.0
H1458 H 0.16608 0.70188 0.84257 0.0
C1459 C 0.1621 0.78221 0.82263 0.0
C1460 C -0.00761 0.32793 0.56711 0.0
C1461 C 0.98204 0.32206 0.60023 0.0
H1462 H -0.00072 0.36261 0.52766 0.0
C1463 C 0.97039 0.34776 0.61925 0.0
H1464 H 0.00133 0.30856 0.55172 0.0
C1465 C 0.96906 0.37876 0.60536 0.0
C1466 C 0.97928 0.38461 0.57216 0.0
H1467 H 0.96205 0.34392 0.64475 0.0
H1468 H 0.9601 0.39813 0.62072 0.0
C1469 C -0.00906 0.35887 0.55319 0.0
C1470 C 0.42092 0.19403 0.28653 0.0
C1471 C 0.43645 0.22162 0.30022 0.0
H1472 H 0.37993 0.1755 0.25967 0.0
C1473 C 0.42482 0.25242 0.29294 0.0
H1474 H 0.42957 0.17 0.29157 0.0
C1475 C 0.39675 0.25553 0.27481 0.0
C1476 C 0.37967 0.2279 0.26354 0.0
H1477 H 0.43665 0.27418 0.30255 0.0
H1478 H 0.38764 0.27959 0.27099 0.0
C1479 C 0.39262 0.19717 0.26823 0.0
C1480 C 0.44699 0.48605 0.33476 0.0
C1481 C 0.44925 0.51581 0.31767 0.0
H1482 H 0.45158 0.46126 0.38163 0.0
C1483 C 0.46292 0.54297 0.33418 0.0
H1484 H 0.43713 0.46454 0.32256 0.0
C1485 C 0.47154 0.54095 0.36824 0.0
C1486 C 0.46624 0.51186 0.38592 0.0
H1487 H 0.4651 0.56617 0.32149 0.0
H1488 H 0.48021 0.56254 0.38121 0.0
C1489 C 0.45521 0.48416 0.3686 0.0
C1490 C 0.26494 0.6356 0.10099 0.0
C1491 C 0.26893 0.60425 0.11384 0.0
H1492 H 0.24492 0.68216 0.10915 0.0
C1493 C 0.24978 0.59344 0.14058 0.0
H1494 H 0.27953 0.64445 0.08037 0.0
C1495 C 0.22946 0.61465 0.15662 0.0
C1496 C 0.22875 0.64749 0.14697 0.0
H1497 H 0.2523 0.56924 0.15074 0.0
H1498 H 0.217 0.60605 0.17885 0.0
C1499 C 0.24504 0.65716 0.11752 0.0
C1500 C 0.07525 0.53831 0.8539 0.0
C1501 C 0.08571 0.50679 0.84837 0.0
H1502 H 0.04828 0.56943 0.88491 0.0
C1503 C 0.07411 0.48132 0.86887 0.0
H1504 H 0.08343 0.55839 0.83832 0.0
C1505 C 0.05354 0.48762 0.89548 0.0
C1506 C 0.04461 0.51951 0.90208 0.0
H1507 H 0.08152 0.45668 0.86489 0.0
H1508 H 0.04599 0.46788 0.91185 0.0
C1509 C 0.055 0.54461 0.88053 0.0
C1510 C 0.21006 0.28391 0.58727 0.0
C1511 C 0.23935 0.2839 0.57055 0.0
H1512 H 0.18196 0.26505 0.62758 0.0
C1513 C 0.26258 0.26211 0.58097 0.0
H1514 H 0.19148 0.30006 0.57952 0.0
C1515 C 0.25715 0.2419 0.60883 0.0
C1516 C 0.22833 0.24306 0.6265 0.0
H1517 H 0.28531 0.26143 0.56837 0.0
H1518 H 0.27592 0.22624 0.61717 0.0
C1519 C 0.20456 0.26366 0.6148 0.0
C1520 C 0.44151 0.49811 0.13664 0.0
C1521 C 0.42834 0.52782 0.14579 0.0
H1522 H 0.46338 0.47048 0.09807 0.0
C1523 C 0.4292 0.55365 0.12283 0.0
H1524 H 0.44143 0.47776 0.15394 0.0
C1525 C 0.44178 0.5494 0.09076 0.0
C1526 C 0.45378 0.51926 0.08113 0.0
H1527 H 0.41935 0.57682 0.12922 0.0
H1528 H 0.44146 0.56962 0.0733 0.0
C1529 C 0.45414 0.49387 0.10463 0.0
C1530 C 0.34687 0.6598 0.9454 0.0
C1531 C 0.32133 0.66019 0.9682 0.0
H1532 H 0.36378 0.67349 0.89624 0.0
C1533 C 0.29526 0.6796 0.9608 0.0
H1534 H 0.36737 0.64516 0.95039 0.0
C1535 C 0.29313 0.69534 0.92982 0.0
C1536 C 0.31725 0.69252 0.90579 0.0
H1537 H 0.27535 0.6808 0.9779 0.0
H1538 H 0.27172 0.70829 0.92389 0.0
C1539 C 0.3449 0.67603 0.91441 0.0
C1540 C 0.04414 0.49019 0.70495 0.0
C1541 C 0.07746 0.49282 0.70637 0.0
H1542 H 0.00215 0.49609 0.67531 0.0
C1543 C 0.09389 0.50725 0.67926 0.0
H1544 H 0.03074 0.47969 0.72567 0.0
C1545 C 0.07747 0.51694 0.65042 0.0
C1546 C 0.04429 0.51233 0.64808 0.0
H1547 H 0.11955 0.51011 0.67981 0.0
H1548 H 0.09102 0.5265 0.62934 0.0
C1549 C 0.02771 0.49989 0.67614 0.0
C1550 C 0.25698 0.3074 0.39983 0.0
C1551 C 0.22821 0.30021 0.41625 0.0
H1552 H 0.28559 0.30059 0.3565 0.0
C1553 C 0.20631 0.27825 0.40117 0.0
H1554 H 0.27456 0.3239 0.4109 0.0
C1555 C 0.21263 0.26476 0.36958 0.0
C1556 C 0.24102 0.27292 0.3527 0.0
H1557 H 0.18397 0.27213 0.41333 0.0
H1558 H 0.19494 0.2487 0.35804 0.0
C1559 C 0.26334 0.29388 0.36857 0.0
C1560 C 0.31953 0.43943 0.56803 0.0
C1561 C 0.30126 0.43317 0.53887 0.0
H1562 H 0.36209 0.46206 0.58826 0.0
C1563 C 0.3086 0.44997 0.50906 0.0
H1564 H 0.31405 0.42699 0.59143 0.0
C1565 C 0.33535 0.47036 0.50746 0.0
C1566 C 0.35563 0.47406 0.5355 0.0
H1567 H 0.29441 0.44628 0.48644 0.0
H1568 H 0.3414 0.48143 0.48348 0.0
C1569 C 0.34675 0.45973 0.56632 0.0
C1570 C 0.87061 0.04663 0.45 0.0
C1571 C 0.85312 0.04494 0.48013 0.0
H1572 H 0.91365 0.03412 0.42487 0.0
C1573 C 0.86298 0.02401 0.50581 0.0
H1574 H 0.86344 0.06241 0.42964 0.0
C1575 C 0.89143 0.00777 0.50296 0.0
C1576 C 0.91068 0.01215 0.4744 0.0
H1577 H 0.84973 0.02168 0.52906 0.0
H1578 H 0.89943 -0.0065 0.52418 0.0
C1579 C 0.89927 0.03031 0.44715 0.0
C1580 C 0.72833 0.06138 0.25916 0.0
C1581 C 0.71008 0.05094 0.23136 0.0
H1582 H 0.75511 0.1003 0.28174 0.0
C1583 C 0.70992 0.07002 0.20191 0.0
H1584 H 0.72941 0.04693 0.28194 0.0
C1585 C 0.72491 0.10075 0.20175 0.0
C1586 C 0.74006 0.11244 0.23104 0.0
H1587 H 0.69619 0.0624 0.18001 0.0
H1588 H 0.72223 0.11632 0.17996 0.0
C1589 C 0.74313 0.09186 0.259 0.0
C1590 C 0.5937 0.93087 0.96797 0.0
C1591 C 0.61988 0.93576 0.98963 0.0
H1592 H 0.54658 0.94512 0.95498 0.0
C1593 C 0.62044 0.9623 0.0117 0.0
H1594 H 0.59288 0.91073 0.95048 0.0
C1595 C 0.59443 0.98231 0.01382 0.0
C1596 C 0.56699 0.97587 -0.00567 0.0
H1597 H 0.64066 0.96708 0.02816 0.0
H1598 H 0.5952 0.00165 0.03227 0.0
C1599 C 0.56731 0.95067 0.97045 0.0
C1600 C 0.30966 0.41306 0.23772 0.0
C1601 C 0.32032 0.42616 0.20709 0.0
H1602 H 0.28836 0.37253 0.2629 0.0
C1603 C 0.31376 0.40937 0.17691 0.0
H1604 H 0.31373 0.4258 0.26128 0.0
C1605 C 0.29905 0.37853 0.17784 0.0
C1606 C 0.29089 0.36447 0.20895 0.0
H1607 H 0.32158 0.41919 0.15293 0.0
H1608 H 0.29595 0.36499 0.15464 0.0
C1609 C 0.29507 0.38257 0.23863 0.0
C1610 C 0.16772 0.57748 0.05692 0.0
C1611 C 0.18045 0.60356 0.03809 0.0
H1612 H 0.12579 0.55046 0.07137 0.0
C1613 C 0.15969 0.62433 0.0213 0.0
H1614 H 0.18317 0.56129 0.07042 0.0
C1615 C 0.12695 0.61796 0.02158 0.0
C1616 C 0.11427 0.59104 0.03913 0.0
H1617 H 0.16878 0.64471 0.00671 0.0
H1618 H 0.11163 0.63363 0.00723 0.0
C1619 C 0.13487 0.57142 0.05766 0.0
C1620 C 0.68862 0.88037 0.29983 0.0
C1621 C 0.65622 0.88663 0.30425 0.0
H1622 H 0.72426 0.84418 0.29822 0.0
C1623 C 0.63562 0.8616 0.3154 0.0
H1624 H 0.7051 0.89939 0.29172 0.0
C1625 C 0.64662 0.83021 0.31908 0.0
C1626 C 0.67851 0.82359 0.31256 0.0
H1627 H 0.6106 0.86578 0.31926 0.0
H1628 H 0.62977 0.81068 0.3248 0.0
C1629 C 0.69974 0.84902 0.30421 0.0
C1630 C 0.84878 0.14981 0.77586 0.0
C1631 C 0.84491 0.12372 0.75344 0.0
H1632 H 0.82749 0.19072 0.79864 0.0
C1633 C 0.81457 0.11647 0.73997 0.0
H1634 H 0.87168 0.15554 0.78729 0.0
C1635 C 0.78905 0.13619 0.74709 0.0
C1636 C 0.79352 0.16373 0.7675 0.0
H1637 H 0.81064 0.09602 0.72324 0.0
H1638 H 0.76651 0.13118 0.73456 0.0
C1639 C 0.82332 0.16962 0.78285 0.0
loop_
_geom_bond_atom_site_label_1
_geom_bond_atom_site_label_2
_geom_bond_distance
_geom_bond_site_symmetry_2
_ccdc_geom_bond_type
C0 O1 1.160 . S
C0 O7 1.185 . S
O1 C0 1.160 . S
O2 Zn3 1.899 . S
O2 C10 1.284 . S
Zn3 O2 1.899 . S
Zn3 O4 2.032 1_455 S
Zn3 O7 2.086 1_455 S
Zn3 O12 1.977 . S
O4 Zn3 2.032 1_655 S
O4 C8 1.278 1_655 S
C5 O6 1.203 . S
C5 O12 1.267 . S
O6 C5 1.203 . S
O7 C0 1.185 . S
O7 Zn3 2.086 1_655 S
C8 O4 1.278 1_455 S
C8 O9 1.211 . S
O9 C8 1.211 . S
C10 O2 1.284 . S
C10 O11 1.273 . S
O11 C10 1.273 . S
O12 Zn3 1.977 . S
O12 C5 1.267 . S
C13 O14 1.160 . S
C13 O20 1.185 . S
O14 C13 1.160 . S
O15 Zn16 1.899 . S
O15 C23 1.284 . S
Zn16 O15 1.899 . S
Zn16 O17 2.032 . S
Zn16 O20 2.086 . S
Zn16 O25 1.977 1_455 S
O17 Zn16 2.032 . S
O17 C21 1.278 . S
C18 O19 1.203 . S
C18 O25 1.267 . S
O19 C18 1.203 . S
O20 C13 1.185 . S
O20 Zn16 2.086 . S
C21 O17 1.278 . S
C21 O22 1.211 1_455 S
O22 C21 1.211 1_655 S
C23 O15 1.284 . S
C23 O24 1.273 1_455 S
O24 C23 1.273 1_655 S
O25 Zn16 1.977 1_655 S
O25 C18 1.267 . S
C26 O27 1.160 . S
C26 O33 1.185 . S
O27 C26 1.160 . S
O28 Zn29 1.899 . S
O28 C36 1.284 . S
Zn29 O28 1.899 . S
Zn29 O30 2.032 . S
Zn29 O33 2.086 . S
Zn29 O38 1.977 . S
O30 Zn29 2.032 . S
O30 C34 1.278 . S
C31 O32 1.203 . S
C31 O38 1.267 . S
O32 C31 1.203 . S
O33 C26 1.185 . S
O33 Zn29 2.086 . S
C34 O30 1.278 . S
C34 O35 1.211 . S
O35 C34 1.211 . S
C36 O28 1.284 . S
C36 O37 1.273 . S
O37 C36 1.273 . S
O38 Zn29 1.977 . S
O38 C31 1.267 . S
C39 O40 1.160 . S
C39 O46 1.185 . S
O40 C39 1.160 . S
O41 Zn42 1.899 . S
O41 C49 1.284 . S
Zn42 O41 1.899 . S
Zn42 O43 2.032 . S
Zn42 O46 2.086 . S
Zn42 O51 1.977 . S
O43 Zn42 2.032 . S
O43 C47 1.278 . S
C44 O45 1.203 . S
C44 O51 1.267 . S
O45 C44 1.203 . S
O46 C39 1.185 . S
O46 Zn42 2.086 . S
C47 O43 1.278 . S
C47 O48 1.211 . S
O48 C47 1.211 . S
C49 O41 1.284 . S
C49 O50 1.273 . S
O50 C49 1.273 . S
O51 Zn42 1.977 . S
O51 C44 1.267 . S
C52 O53 1.160 . S
C52 O59 1.185 . S
O53 C52 1.160 . S
O54 Zn55 1.899 . S
O54 C62 1.284 . S
Zn55 O54 1.899 . S
Zn55 O56 2.032 . S
Zn55 O59 2.086 1_545 S
Zn55 O64 1.977 . S
O56 Zn55 2.032 . S
O56 C60 1.278 . S
C57 O58 1.203 . S
C57 O64 1.267 . S
O58 C57 1.203 . S
O59 C52 1.185 . S
O59 Zn55 2.086 1_565 S
C60 O56 1.278 . S
C60 O61 1.211 . S
O61 C60 1.211 . S
C62 O54 1.284 . S
C62 O63 1.273 . S
O63 C62 1.273 . S
O64 Zn55 1.977 . S
O64 C57 1.267 . S
C65 O66 1.160 . S
C65 O72 1.185 . S
O66 C65 1.160 . S
O67 Zn68 1.899 . S
O67 C75 1.284 . S
Zn68 O67 1.899 . S
Zn68 O69 2.032 . S
Zn68 O72 2.086 . S
Zn68 O77 1.977 . S
O69 Zn68 2.032 . S
O69 C73 1.278 . S
C70 O71 1.203 . S
C70 O77 1.267 . S
O71 C70 1.203 . S
O72 C65 1.185 . S
O72 Zn68 2.086 . S
C73 O69 1.278 . S
C73 O74 1.211 . S
O74 C73 1.211 . S
C75 O67 1.284 . S
C75 O76 1.273 . S
O76 C75 1.273 . S
O77 Zn68 1.977 . S
O77 C70 1.267 . S
C78 O79 1.160 . S
C78 O85 1.185 . S
O79 C78 1.160 . S
O80 Zn81 1.899 . S
O80 C88 1.284 1_545 S
Zn81 O80 1.899 . S
Zn81 O82 2.032 . S
Zn81 O85 2.086 . S
Zn81 O90 1.977 1_545 S
O82 Zn81 2.032 . S
O82 C86 1.278 1_545 S
C83 O84 1.203 . S
C83 O90 1.267 . S
O84 C83 1.203 . S
O85 C78 1.185 . S
O85 Zn81 2.086 . S
C86 O82 1.278 1_565 S
C86 O87 1.211 . S
O87 C86 1.211 . S
C88 O80 1.284 1_565 S
C88 O89 1.273 . S
O89 C88 1.273 . S
O90 Zn81 1.977 1_565 S
O90 C83 1.267 . S
C91 O92 1.160 . S
C91 O98 1.185 . S
O92 C91 1.160 . S
O93 Zn94 1.899 . S
O93 C101 1.284 . S
Zn94 O93 1.899 . S
Zn94 O95 2.032 1_554 S
Zn94 O98 2.086 . S
Zn94 O103 1.977 . S
O95 Zn94 2.032 1_556 S
O95 C99 1.278 . S
C96 O97 1.203 . S
C96 O103 1.267 . S
O97 C96 1.203 . S
O98 C91 1.185 . S
O98 Zn94 2.086 . S
C99 O95 1.278 . S
C99 O100 1.211 . S
O100 C99 1.211 . S
C101 O93 1.284 . S
C101 O102 1.273 . S
O102 C101 1.273 . S
O103 Zn94 1.977 . S
O103 C96 1.267 . S
C104 O105 1.160 . S
C104 O111 1.185 . S
O105 C104 1.160 . S
O106 Zn107 1.899 . S
O106 C114 1.284 . S
Zn107 O106 1.899 . S
Zn107 O108 2.032 1_554 S
Zn107 O111 2.086 . S
Zn107 O116 1.977 . S
O108 Zn107 2.032 1_556 S
O108 C112 1.278 . S
C109 O110 1.203 . S
C109 O116 1.267 . S
O110 C109 1.203 . S
O111 C104 1.185 . S
O111 Zn107 2.086 . S
C112 O108 1.278 . S
C112 O113 1.211 . S
O113 C112 1.211 . S
C114 O106 1.284 . S
C114 O115 1.273 . S
O115 C114 1.273 . S
O116 Zn107 1.977 . S
O116 C109 1.267 . S
C117 O118 1.160 . S
C117 O124 1.185 . S
O118 C117 1.160 . S
O119 Zn120 1.899 . S
O119 C127 1.284 . S
Zn120 O119 1.899 . S
Zn120 O121 2.032 . S
Zn120 O124 2.086 . S
Zn120 O129 1.977 . S
O121 Zn120 2.032 . S
O121 C125 1.278 . S
C122 O123 1.203 . S
C122 O129 1.267 . S
O123 C122 1.203 . S
O124 C117 1.185 . S
O124 Zn120 2.086 . S
C125 O121 1.278 . S
C125 O126 1.211 . S
O126 C125 1.211 . S
C127 O119 1.284 . S
C127 O128 1.273 . S
O128 C127 1.273 . S
O129 Zn120 1.977 . S
O129 C122 1.267 . S
C130 O131 1.160 . S
C130 O137 1.185 . S
O131 C130 1.160 . S
O132 Zn133 1.899 . S
O132 C140 1.284 . S
Zn133 O132 1.899 . S
Zn133 O134 2.032 . S
Zn133 O137 2.086 . S
Zn133 O142 1.977 . S
O134 Zn133 2.032 . S
O134 C138 1.278 . S
C135 O136 1.203 . S
C135 O142 1.267 . S
O136 C135 1.203 . S
O137 C130 1.185 . S
O137 Zn133 2.086 . S
C138 O134 1.278 . S
C138 O139 1.211 . S
O139 C138 1.211 . S
C140 O132 1.284 . S
C140 O141 1.273 . S
O141 C140 1.273 . S
O142 Zn133 1.977 . S
O142 C135 1.267 . S
C143 O144 1.160 . S
C143 O150 1.185 . S
O144 C143 1.160 . S
O145 Zn146 1.899 . S
O145 C153 1.284 . S
Zn146 O145 1.899 . S
Zn146 O147 2.032 . S
Zn146 O150 2.086 . S
Zn146 O155 1.977 . S
O147 Zn146 2.032 . S
O147 C151 1.278 . S
C148 O149 1.203 . S
C148 O155 1.267 . S
O149 C148 1.203 . S
O150 C143 1.185 . S
O150 Zn146 2.086 . S
C151 O147 1.278 . S
C151 O152 1.211 . S
O152 C151 1.211 . S
C153 O145 1.284 . S
C153 O154 1.273 . S
O154 C153 1.273 . S
O155 Zn146 1.977 . S
O155 C148 1.267 . S
C156 O157 1.160 . S
C156 O163 1.185 . S
O157 C156 1.160 . S
O158 Zn159 1.899 . S
O158 C166 1.284 . S
Zn159 O158 1.899 . S
Zn159 O160 2.032 . S
Zn159 O163 2.086 . S
Zn159 O168 1.977 1_455 S
O160 Zn159 2.032 . S
O160 C164 1.272 1_455 S
C161 O162 1.203 . S
C161 O168 1.267 . S
O162 C161 1.203 . S
O163 C156 1.185 . S
O163 Zn159 2.086 . S
C164 O160 1.272 1_655 S
C164 O165 1.218 . S
O165 C164 1.218 . S
C166 O158 1.284 . S
C166 O167 1.273 1_455 S
O167 C166 1.273 1_655 S
O168 Zn159 1.977 1_655 S
O168 C161 1.267 . S
C169 O170 1.160 . S
C169 O176 1.185 . S
O170 C169 1.160 . S
O171 Zn172 1.899 . S
O171 C179 1.284 . S
Zn172 O171 1.899 . S
Zn172 O173 2.032 1_455 S
Zn172 O176 2.086 1_455 S
Zn172 O181 1.977 . S
O173 Zn172 2.032 1_655 S
O173 C177 1.278 1_655 S
C174 O175 1.203 . S
C174 O181 1.267 . S
O175 C174 1.203 . S
O176 C169 1.185 . S
O176 Zn172 2.086 1_655 S
C177 O173 1.278 1_455 S
C177 O178 1.211 . S
O178 C177 1.211 . S
C179 O171 1.284 . S
C179 O180 1.273 . S
O180 C179 1.273 . S
O181 Zn172 1.977 . S
O181 C174 1.267 . S
C182 O183 1.160 . S
C182 O189 1.185 . S
O183 C182 1.160 . S
O184 Zn185 1.899 . S
O184 C192 1.284 . S
Zn185 O184 1.899 . S
Zn185 O186 2.032 . S
Zn185 O189 2.086 . S
Zn185 O194 1.977 . S
O186 Zn185 2.032 . S
O186 C190 1.278 . S
C187 O188 1.203 . S
C187 O194 1.267 . S
O188 C187 1.203 . S
O189 C182 1.185 . S
O189 Zn185 2.086 . S
C190 O186 1.278 . S
C190 O191 1.211 . S
O191 C190 1.211 . S
C192 O184 1.284 . S
C192 O193 1.273 . S
O193 C192 1.273 . S
O194 Zn185 1.977 . S
O194 C187 1.267 . S
C195 O196 1.160 . S
C195 O202 1.185 . S
O196 C195 1.160 . S
O197 Zn198 1.899 . S
O197 C205 1.284 . S
Zn198 O197 1.899 . S
Zn198 O199 2.032 . S
Zn198 O202 2.086 . S
Zn198 O207 1.977 . S
O199 Zn198 2.032 . S
O199 C203 1.278 . S
C200 O201 1.203 . S
C200 O207 1.267 . S
O201 C200 1.203 . S
O202 C195 1.185 . S
O202 Zn198 2.086 . S
C203 O199 1.278 . S
C203 O204 1.211 . S
O204 C203 1.211 . S
C205 O197 1.284 . S
C205 O206 1.273 . S
O206 C205 1.273 . S
O207 Zn198 1.977 . S
O207 C200 1.267 . S
C208 O209 1.160 . S
C208 O215 1.185 . S
O209 C208 1.160 . S
O210 Zn211 1.899 . S
O210 C218 1.284 . S
Zn211 O210 1.899 . S
Zn211 O212 2.032 . S
Zn211 O215 2.086 . S
Zn211 O220 1.977 1_545 S
O212 Zn211 2.032 . S
O212 C216 1.278 . S
C213 O214 1.203 . S
C213 O220 1.267 . S
O214 C213 1.203 . S
O215 C208 1.185 . S
O215 Zn211 2.086 . S
C216 O212 1.278 . S
C216 O217 1.211 1_545 S
O217 C216 1.211 1_565 S
C218 O210 1.284 . S
C218 O219 1.273 . S
O219 C218 1.273 . S
O220 Zn211 1.977 1_565 S
O220 C213 1.267 . S
C221 O222 1.160 . S
C221 O228 1.185 . S
O222 C221 1.160 . S
O223 Zn224 1.899 . S
O223 C231 1.284 . S
Zn224 O223 1.899 . S
Zn224 O225 2.032 . S
Zn224 O228 2.086 . S
Zn224 O233 1.977 . S
O225 Zn224 2.032 . S
O225 C229 1.278 . S
C226 O227 1.203 . S
C226 O233 1.267 . S
O227 C226 1.203 . S
O228 C221 1.185 . S
O228 Zn224 2.086 . S
C229 O225 1.278 . S
C229 O230 1.211 . S
O230 C229 1.211 . S
C231 O223 1.284 . S
C231 O232 1.273 . S
O232 C231 1.273 . S
O233 Zn224 1.977 . S
O233 C226 1.267 . S
C234 O235 1.160 . S
C234 O241 1.185 . S
O235 C234 1.160 . S
O236 Zn237 1.899 . S
O236 C244 1.284 1_565 S
Zn237 O236 1.899 . S
Zn237 O238 2.032 . S
Zn237 O241 2.086 . S
Zn237 O246 1.977 1_565 S
O238 Zn237 2.032 . S
O238 C242 1.278 1_565 S
C239 O240 1.203 . S
C239 O246 1.267 . S
O240 C239 1.203 . S
O241 C234 1.185 . S
O241 Zn237 2.086 . S
C242 O238 1.278 1_545 S
C242 O243 1.211 . S
O243 C242 1.211 . S
C244 O236 1.284 1_545 S
C244 O245 1.273 . S
O245 C244 1.273 . S
O246 Zn237 1.977 1_545 S
O246 C239 1.267 . S
C247 O248 1.160 . S
C247 O254 1.185 1_554 S
O248 C247 1.160 . S
O249 Zn250 1.899 . S
O249 C257 1.284 . S
Zn250 O249 1.899 . S
Zn250 O251 2.032 1_554 S
Zn250 O254 2.086 1_554 S
Zn250 O259 1.974 1_554 S
O251 Zn250 2.032 1_556 S
O251 C255 1.278 . S
C252 O253 1.203 . S
C252 O259 1.260 1_554 S
O253 C252 1.203 . S
O254 C247 1.185 1_556 S
O254 Zn250 2.086 1_556 S
C255 O251 1.278 . S
C255 O256 1.211 . S
O256 C255 1.211 . S
C257 O249 1.284 . S
C257 O258 1.273 . S
O258 C257 1.273 . S
O259 Zn250 1.974 1_556 S
O259 C252 1.260 1_556 S
C260 O261 1.160 . S
C260 O267 1.185 1_554 S
O261 C260 1.160 . S
O262 Zn263 1.899 . S
O262 C270 1.284 . S
Zn263 O262 1.899 . S
Zn263 O264 2.032 1_554 S
Zn263 O267 2.086 1_554 S
Zn263 O272 1.977 1_554 S
O264 Zn263 2.032 1_556 S
O264 C268 1.278 . S
C265 O266 1.203 . S
C265 O272 1.267 1_554 S
O266 C265 1.203 . S
O267 C260 1.185 1_556 S
O267 Zn263 2.086 1_556 S
C268 O264 1.278 . S
C268 O269 1.211 . S
O269 C268 1.211 . S
C270 O262 1.284 . S
C270 O271 1.273 . S
O271 C270 1.273 . S
O272 Zn263 1.977 1_556 S
O272 C265 1.267 1_556 S
C273 O274 1.160 . S
C273 O280 1.185 . S
O274 C273 1.160 . S
O275 Zn276 1.899 . S
O275 C283 1.284 . S
Zn276 O275 1.899 . S
Zn276 O277 2.032 . S
Zn276 O280 2.086 . S
Zn276 O285 1.977 . S
O277 Zn276 2.032 . S
O277 C281 1.278 . S
C278 O279 1.203 . S
C278 O285 1.267 . S
O279 C278 1.203 . S
O280 C273 1.185 . S
O280 Zn276 2.086 . S
C281 O277 1.278 . S
C281 O282 1.211 . S
O282 C281 1.211 . S
C283 O275 1.284 . S
C283 O284 1.273 . S
O284 C283 1.273 . S
O285 Zn276 1.977 . S
O285 C278 1.267 . S
C286 O287 1.160 . S
C286 O293 1.185 . S
O287 C286 1.160 . S
O288 Zn289 1.899 . S
O288 C296 1.284 . S
Zn289 O288 1.899 . S
Zn289 O290 2.032 . S
Zn289 O293 2.086 . S
Zn289 O298 1.977 . S
O290 Zn289 2.032 . S
O290 C294 1.278 . S
C291 O292 1.203 . S
C291 O298 1.267 . S
O292 C291 1.203 . S
O293 C286 1.185 . S
O293 Zn289 2.086 . S
C294 O290 1.278 . S
C294 O295 1.211 . S
O295 C294 1.211 . S
C296 O288 1.284 . S
C296 O297 1.273 . S
O297 C296 1.273 . S
O298 Zn289 1.977 . S
O298 C291 1.267 . S
C299 O300 1.160 . S
C299 O306 1.185 . S
O300 C299 1.160 . S
O301 Zn302 1.899 . S
O301 C309 1.284 . S
Zn302 O301 1.899 . S
Zn302 O303 2.032 . S
Zn302 O306 2.086 . S
Zn302 O311 1.977 . S
O303 Zn302 2.032 . S
O303 C307 1.278 . S
C304 O305 1.203 . S
C304 O311 1.267 . S
O305 C304 1.203 . S
O306 C299 1.185 . S
O306 Zn302 2.086 . S
C307 O303 1.278 . S
C307 O308 1.211 . S
O308 C307 1.211 . S
C309 O301 1.284 . S
C309 O310 1.273 . S
O310 C309 1.273 . S
O311 Zn302 1.977 . S
O311 C304 1.267 . S
O312 Zn313 1.945 1_554 S
O312 C328 1.225 1_455 S
Zn313 O312 1.945 1_556 S
Zn313 O314 1.942 1_556 S
Zn313 O320 1.921 . S
Zn313 O325 1.938 1_455 S
O314 Zn313 1.942 1_554 S
O314 Zn315 1.923 1_545 S
O314 Zn316 1.950 1_455 S
O314 Zn317 1.945 1_444 S
Zn315 O314 1.923 1_565 S
Zn315 O318 1.933 . S
Zn315 O321 1.941 1_565 S
Zn315 O322 1.965 . S
Zn316 O314 1.950 1_655 S
Zn316 O323 1.938 . S
Zn316 O324 1.906 1_545 S
Zn316 O334 1.953 . S
Zn317 O314 1.945 1_666 S
Zn317 O319 1.932 . S
Zn317 O326 1.977 1_556 S
Zn317 O327 1.910 1_565 S
O318 Zn315 1.933 . S
O318 C329 1.226 1_554 S
O319 Zn317 1.932 . S
O319 C329 1.307 1_655 S
O320 Zn313 1.921 . S
O320 C331 1.250 1_556 S
O321 Zn315 1.941 1_545 S
O321 C331 1.293 . S
O322 Zn315 1.965 . S
O322 C330 1.324 . S
O323 Zn316 1.938 . S
O323 C330 1.234 1_645 S
O324 Zn316 1.906 1_565 S
O324 C332 1.304 . S
O325 Zn313 1.938 1_655 S
O325 C333 1.311 . S
O326 Zn317 1.977 1_554 S
O326 C332 1.272 . S
O327 Zn317 1.910 1_545 S
O327 C333 1.231 . S
C328 O312 1.225 1_655 S
C328 O334 1.298 . S
C329 O318 1.226 1_556 S
C329 O319 1.307 1_455 S
C330 O322 1.324 . S
C330 O323 1.234 1_465 S
C331 O320 1.250 1_554 S
C331 O321 1.293 . S
C332 O324 1.304 . S
C332 O326 1.272 . S
C333 O325 1.311 . S
C333 O327 1.231 . S
O334 Zn316 1.953 . S
O334 C328 1.298 . S
O335 Zn336 1.953 . S
O335 C351 1.225 . S
Zn336 O335 1.953 . S
Zn336 O337 1.949 . S
Zn336 O343 1.919 . S
Zn336 O348 1.924 . S
O337 Zn336 1.949 . S
O337 Zn338 1.923 . S
O337 Zn339 1.950 . S
O337 Zn340 1.945 . S
Zn338 O337 1.923 . S
Zn338 O341 1.933 . S
Zn338 O344 1.941 . S
Zn338 O345 1.965 . S
Zn339 O337 1.950 . S
Zn339 O346 1.938 . S
Zn339 O347 1.906 . S
Zn339 O357 1.953 . S
Zn340 O337 1.945 . S
Zn340 O342 1.932 . S
Zn340 O349 1.977 . S
Zn340 O350 1.910 . S
O341 Zn338 1.933 . S
O341 C352 1.226 . S
O342 Zn340 1.932 . S
O342 C352 1.307 . S
O343 Zn336 1.919 . S
O343 C354 1.253 . S
O344 Zn338 1.941 . S
O344 C354 1.283 . S
O345 Zn338 1.965 . S
O345 C353 1.303 . S
O346 Zn339 1.938 . S
O346 C353 1.247 . S
O347 Zn339 1.906 . S
O347 C355 1.304 . S
O348 Zn336 1.924 . S
O348 C356 1.311 . S
O349 Zn340 1.977 . S
O349 C355 1.272 . S
O350 Zn340 1.910 . S
O350 C356 1.231 . S
C351 O335 1.225 . S
C351 O357 1.298 . S
C352 O341 1.226 . S
C352 O342 1.307 . S
C353 O345 1.303 . S
C353 O346 1.247 . S
C354 O343 1.253 . S
C354 O344 1.283 . S
C355 O347 1.304 . S
C355 O349 1.272 . S
C356 O348 1.311 . S
C356 O350 1.231 . S
O357 Zn339 1.953 . S
O357 C351 1.298 . S
O358 Zn359 1.953 . S
O358 C374 1.225 . S
Zn359 O358 1.953 . S
Zn359 O360 1.949 1_565 S
Zn359 O366 1.919 . S
Zn359 O371 1.924 . S
O360 Zn359 1.949 1_545 S
O360 Zn361 1.923 . S
O360 Zn362 1.949 1_545 S
O360 Zn363 1.945 . S
Zn361 O360 1.923 . S
Zn361 O364 1.933 . S
Zn361 O367 1.941 . S
Zn361 O368 1.965 . S
Zn362 O360 1.949 1_565 S
Zn362 O369 1.938 1_565 S
Zn362 O370 1.904 1_565 S
Zn362 O380 1.957 . S
Zn363 O360 1.945 . S
Zn363 O365 1.932 . S
Zn363 O372 1.977 . S
Zn363 O373 1.910 . S
O364 Zn361 1.933 . S
O364 C375 1.226 . S
O365 Zn363 1.932 . S
O365 C375 1.307 . S
O366 Zn359 1.919 . S
O366 C377 1.253 . S
O367 Zn361 1.941 . S
O367 C377 1.283 1_545 S
O368 Zn361 1.965 . S
O368 C376 1.303 . S
O369 Zn362 1.938 1_545 S
O369 C376 1.247 . S
O370 Zn362 1.904 1_545 S
O370 C378 1.304 . S
O371 Zn359 1.924 . S
O371 C379 1.311 . S
O372 Zn363 1.977 . S
O372 C378 1.272 . S
O373 Zn363 1.910 . S
O373 C379 1.231 1_545 S
C374 O358 1.225 . S
C374 O380 1.298 . S
C375 O364 1.226 . S
C375 O365 1.307 . S
C376 O368 1.303 . S
C376 O369 1.247 . S
C377 O366 1.253 . S
C377 O367 1.283 1_565 S
C378 O370 1.304 . S
C378 O372 1.272 . S
C379 O371 1.311 . S
C379 O373 1.231 1_565 S
O380 Zn362 1.957 . S
O380 C374 1.298 . S
O381 Zn382 1.953 . S
O381 C397 1.225 . S
Zn382 O381 1.953 . S
Zn382 O383 1.949 . S
Zn382 O389 1.919 . S
Zn382 O394 1.924 . S
O383 Zn382 1.949 . S
O383 Zn384 1.923 . S
O383 Zn385 1.950 . S
O383 Zn386 1.945 . S
Zn384 O383 1.923 . S
Zn384 O387 1.933 . S
Zn384 O390 1.941 . S
Zn384 O391 1.965 . S
Zn385 O383 1.950 . S
Zn385 O392 1.938 . S
Zn385 O393 1.906 . S
Zn385 O403 1.953 . S
Zn386 O383 1.945 . S
Zn386 O388 1.932 . S
Zn386 O395 1.977 . S
Zn386 O396 1.910 . S
O387 Zn384 1.933 . S
O387 C398 1.226 . S
O388 Zn386 1.932 . S
O388 C398 1.307 . S
O389 Zn382 1.919 . S
O389 C400 1.253 . S
O390 Zn384 1.941 . S
O390 C400 1.283 . S
O391 Zn384 1.965 . S
O391 C399 1.303 . S
O392 Zn385 1.938 . S
O392 C399 1.247 . S
O393 Zn385 1.906 . S
O393 C401 1.304 . S
O394 Zn382 1.924 . S
O394 C402 1.311 . S
O395 Zn386 1.977 . S
O395 C401 1.272 . S
O396 Zn386 1.910 . S
O396 C402 1.231 . S
C397 O381 1.225 . S
C397 O403 1.298 . S
C398 O387 1.226 . S
C398 O388 1.307 . S
C399 O391 1.303 . S
C399 O392 1.247 . S
C400 O389 1.253 . S
C400 O390 1.283 . S
C401 O393 1.304 . S
C401 O395 1.272 . S
C402 O394 1.311 . S
C402 O396 1.231 . S
O403 Zn385 1.953 . S
O403 C397 1.298 . S
O404 Zn405 1.953 1_445 S
O404 C420 1.225 . S
Zn405 O404 1.953 1_665 S
Zn405 O406 1.949 1_665 S
Zn405 O412 1.919 . S
Zn405 O417 1.924 1_565 S
O406 Zn405 1.949 1_445 S
O406 Zn407 1.923 1_545 S
O406 Zn408 1.950 . S
O406 Zn409 1.945 1_455 S
Zn407 O406 1.923 1_565 S
Zn407 O410 1.933 . S
Zn407 O413 1.941 . S
Zn407 O414 1.965 . S
Zn408 O406 1.950 . S
Zn408 O415 1.938 . S
Zn408 O416 1.906 . S
Zn408 O426 1.953 . S
Zn409 O406 1.945 1_655 S
Zn409 O411 1.932 . S
Zn409 O418 1.977 . S
Zn409 O419 1.910 . S
O410 Zn407 1.933 . S
O410 C421 1.226 1_455 S
O411 Zn409 1.932 . S
O411 C421 1.307 1_545 S
O412 Zn405 1.919 . S
O412 C423 1.253 . S
O413 Zn407 1.941 . S
O413 C423 1.283 1_455 S
O414 Zn407 1.965 . S
O414 C422 1.303 . S
O415 Zn408 1.938 . S
O415 C422 1.247 1_545 S
O416 Zn408 1.906 . S
O416 C424 1.304 . S
O417 Zn405 1.924 1_545 S
O417 C425 1.311 . S
O418 Zn409 1.977 . S
O418 C424 1.272 1_655 S
O419 Zn409 1.910 . S
O419 C425 1.231 . S
C420 O404 1.225 . S
C420 O426 1.298 . S
C421 O410 1.226 1_655 S
C421 O411 1.307 1_565 S
C422 O414 1.303 . S
C422 O415 1.247 1_565 S
C423 O412 1.253 . S
C423 O413 1.283 1_655 S
C424 O416 1.304 . S
C424 O418 1.272 1_455 S
C425 O417 1.311 . S
C425 O419 1.231 . S
O426 Zn408 1.953 . S
O426 C420 1.298 . S
O427 Zn428 1.953 . S
O427 C443 1.225 . S
Zn428 O427 1.953 . S
Zn428 O429 1.949 . S
Zn428 O435 1.919 . S
Zn428 O440 1.924 . S
O429 Zn428 1.949 . S
O429 Zn430 1.923 . S
O429 Zn431 1.950 . S
O429 Zn432 1.945 . S
Zn430 O429 1.923 . S
Zn430 O433 1.933 . S
Zn430 O436 1.941 . S
Zn430 O437 1.965 . S
Zn431 O429 1.950 . S
Zn431 O438 1.938 . S
Zn431 O439 1.906 . S
Zn431 O449 1.953 . S
Zn432 O429 1.945 . S
Zn432 O434 1.932 . S
Zn432 O441 1.977 . S
Zn432 O442 1.910 . S
O433 Zn430 1.933 . S
O433 C444 1.226 . S
O434 Zn432 1.932 . S
O434 C444 1.307 . S
O435 Zn428 1.919 . S
O435 C446 1.253 . S
O436 Zn430 1.941 . S
O436 C446 1.283 . S
O437 Zn430 1.965 . S
O437 C445 1.303 . S
O438 Zn431 1.938 . S
O438 C445 1.247 . S
O439 Zn431 1.906 . S
O439 C447 1.304 . S
O440 Zn428 1.924 . S
O440 C448 1.311 . S
O441 Zn432 1.977 . S
O441 C447 1.272 . S
O442 Zn432 1.910 . S
O442 C448 1.231 . S
C443 O427 1.225 . S
C443 O449 1.298 . S
C444 O433 1.226 . S
C444 O434 1.307 . S
C445 O437 1.303 . S
C445 O438 1.247 . S
C446 O435 1.253 . S
C446 O436 1.283 . S
C447 O439 1.304 . S
C447 O441 1.272 . S
C448 O440 1.311 . S
C448 O442 1.231 . S
O449 Zn431 1.953 . S
O449 C443 1.298 . S
O450 Zn451 1.953 . S
O450 C466 1.225 . S
Zn451 O450 1.953 . S
Zn451 O452 1.949 . S
Zn451 O458 1.919 1_545 S
Zn451 O463 1.924 . S
O452 Zn451 1.949 . S
O452 Zn453 1.923 1_544 S
O452 Zn454 1.950 . S
O452 Zn455 1.945 1_554 S
Zn453 O452 1.923 1_566 S
Zn453 O456 1.933 . S
Zn453 O459 1.941 . S
Zn453 O460 1.965 1_556 S
Zn454 O452 1.950 . S
Zn454 O461 1.938 1_545 S
Zn454 O462 1.906 . S
Zn454 O472 1.953 . S
Zn455 O452 1.945 1_556 S
Zn455 O457 1.932 . S
Zn455 O464 1.977 1_556 S
Zn455 O465 1.910 . S
O456 Zn453 1.933 . S
O456 C467 1.226 . S
O457 Zn455 1.932 . S
O457 C467 1.307 1_545 S
O458 Zn451 1.919 1_565 S
O458 C469 1.253 1_554 S
O459 Zn453 1.941 . S
O459 C469 1.283 . S
O460 Zn453 1.965 1_554 S
O460 C468 1.303 . S
O461 Zn454 1.938 1_565 S
O461 C468 1.247 . S
O462 Zn454 1.906 . S
O462 C470 1.304 . S
O463 Zn451 1.924 . S
O463 C471 1.311 1_554 S
O464 Zn455 1.977 1_554 S
O464 C470 1.272 . S
O465 Zn455 1.910 . S
O465 C471 1.231 . S
C466 O450 1.225 . S
C466 O472 1.298 . S
C467 O456 1.226 . S
C467 O457 1.307 1_565 S
C468 O460 1.303 . S
C468 O461 1.247 . S
C469 O458 1.253 1_556 S
C469 O459 1.283 . S
C470 O462 1.304 . S
C470 O464 1.272 . S
C471 O463 1.311 1_556 S
C471 O465 1.231 . S
O472 Zn454 1.953 . S
O472 C466 1.298 . S
O473 Zn474 1.953 . S
O473 C489 1.225 . S
Zn474 O473 1.953 . S
Zn474 O475 1.949 . S
Zn474 O481 1.919 . S
Zn474 O486 1.924 . S
O475 Zn474 1.949 . S
O475 Zn476 1.923 . S
O475 Zn477 1.950 . S
O475 Zn478 1.945 . S
Zn476 O475 1.923 . S
Zn476 O479 1.933 . S
Zn476 O482 1.941 . S
Zn476 O483 1.965 . S
Zn477 O475 1.950 . S
Zn477 O484 1.938 . S
Zn477 O485 1.906 . S
Zn477 O495 1.953 . S
Zn478 O475 1.945 . S
Zn478 O480 1.932 . S
Zn478 O487 1.977 . S
Zn478 O488 1.910 . S
O479 Zn476 1.933 . S
O479 C490 1.226 . S
O480 Zn478 1.932 . S
O480 C490 1.307 . S
O481 Zn474 1.919 . S
O481 C492 1.253 . S
O482 Zn476 1.941 . S
O482 C492 1.283 . S
O483 Zn476 1.965 . S
O483 C491 1.303 . S
O484 Zn477 1.938 . S
O484 C491 1.247 . S
O485 Zn477 1.906 . S
O485 C493 1.304 . S
O486 Zn474 1.924 . S
O486 C494 1.311 . S
O487 Zn478 1.977 . S
O487 C493 1.272 . S
O488 Zn478 1.910 . S
O488 C494 1.231 . S
C489 O473 1.225 . S
C489 O495 1.298 . S
C490 O479 1.226 . S
C490 O480 1.307 . S
C491 O483 1.303 . S
C491 O484 1.247 . S
C492 O481 1.253 . S
C492 O482 1.283 . S
C493 O485 1.304 . S
C493 O487 1.272 . S
C494 O486 1.311 . S
C494 O488 1.231 . S
O495 Zn477 1.953 . S
O495 C489 1.298 . S
O496 Zn497 1.953 . S
O496 C512 1.225 . S
Zn497 O496 1.953 . S
Zn497 O498 1.949 1_556 S
Zn497 O504 1.919 . S
Zn497 O509 1.924 . S
O498 Zn497 1.949 1_554 S
O498 Zn499 1.923 . S
O498 Zn500 1.950 . S
O498 Zn501 1.945 . S
Zn499 O498 1.923 . S
Zn499 O502 1.933 . S
Zn499 O505 1.941 . S
Zn499 O506 1.965 . S
Zn500 O498 1.950 . S
Zn500 O507 1.938 . S
Zn500 O508 1.906 . S
Zn500 O518 1.953 1_554 S
Zn501 O498 1.945 . S
Zn501 O503 1.932 . S
Zn501 O510 1.977 . S
Zn501 O511 1.910 . S
O502 Zn499 1.933 . S
O502 C513 1.226 . S
O503 Zn501 1.932 . S
O503 C513 1.307 . S
O504 Zn497 1.919 . S
O504 C515 1.253 . S
O505 Zn499 1.941 . S
O505 C515 1.283 1_554 S
O506 Zn499 1.965 . S
O506 C514 1.303 . S
O507 Zn500 1.938 . S
O507 C514 1.247 . S
O508 Zn500 1.906 . S
O508 C516 1.304 . S
O509 Zn497 1.924 . S
O509 C517 1.311 . S
O510 Zn501 1.977 . S
O510 C516 1.272 . S
O511 Zn501 1.910 . S
O511 C517 1.231 1_554 S
C512 O496 1.225 . S
C512 O518 1.298 . S
C513 O502 1.226 . S
C513 O503 1.307 . S
C514 O506 1.303 . S
C514 O507 1.247 . S
C515 O504 1.253 . S
C515 O505 1.283 1_556 S
C516 O508 1.304 . S
C516 O510 1.272 . S
C517 O509 1.311 . S
C517 O511 1.231 1_556 S
O518 Zn500 1.953 1_556 S
O518 C512 1.298 . S
O519 Zn520 1.953 . S
O519 C535 1.225 . S
Zn520 O519 1.953 . S
Zn520 O521 1.949 . S
Zn520 O527 1.919 . S
Zn520 O532 1.924 . S
O521 Zn520 1.949 . S
O521 Zn522 1.923 . S
O521 Zn523 1.950 . S
O521 Zn524 1.945 . S
Zn522 O521 1.923 . S
Zn522 O525 1.933 . S
Zn522 O528 1.941 . S
Zn522 O529 1.965 . S
Zn523 O521 1.950 . S
Zn523 O530 1.938 . S
Zn523 O531 1.906 . S
Zn523 O541 1.953 . S
Zn524 O521 1.945 . S
Zn524 O526 1.932 . S
Zn524 O533 1.977 . S
Zn524 O534 1.910 . S
O525 Zn522 1.933 . S
O525 C536 1.226 . S
O526 Zn524 1.932 . S
O526 C536 1.307 . S
O527 Zn520 1.919 . S
O527 C538 1.253 . S
O528 Zn522 1.941 . S
O528 C538 1.283 . S
O529 Zn522 1.965 . S
O529 C537 1.303 . S
O530 Zn523 1.938 . S
O530 C537 1.247 . S
O531 Zn523 1.906 . S
O531 C539 1.304 . S
O532 Zn520 1.924 . S
O532 C540 1.311 . S
O533 Zn524 1.977 . S
O533 C539 1.272 . S
O534 Zn524 1.910 . S
O534 C540 1.231 . S
C535 O519 1.225 . S
C535 O541 1.298 . S
C536 O525 1.226 . S
C536 O526 1.307 . S
C537 O529 1.303 . S
C537 O530 1.247 . S
C538 O527 1.253 . S
C538 O528 1.283 . S
C539 O531 1.304 . S
C539 O533 1.272 . S
C540 O532 1.311 . S
C540 O534 1.231 . S
O541 Zn523 1.953 . S
O541 C535 1.298 . S
O542 Zn543 1.953 . S
O542 C558 1.225 . S
Zn543 O542 1.953 . S
Zn543 O544 1.931 1_455 S
Zn543 O550 1.919 . S
Zn543 O555 1.924 . S
O544 Zn543 1.931 1_655 S
O544 Zn545 1.921 1_655 S
O544 Zn546 1.960 . S
O544 Zn547 1.953 . S
Zn545 O544 1.921 1_455 S
Zn545 O548 1.921 1_455 S
Zn545 O551 1.972 . S
Zn545 O552 1.955 1_455 S
Zn546 O544 1.960 . S
Zn546 O553 1.938 . S
Zn546 O554 1.906 . S
Zn546 O564 1.939 1_655 S
Zn547 O544 1.953 . S
Zn547 O549 1.932 . S
Zn547 O556 1.977 . S
Zn547 O557 1.914 . S
O548 Zn545 1.921 1_655 S
O548 C559 1.226 . S
O549 Zn547 1.932 . S
O549 C559 1.307 . S
O550 Zn543 1.919 . S
O550 C561 1.253 . S
O551 Zn545 1.972 . S
O551 C561 1.283 . S
O552 Zn545 1.955 1_655 S
O552 C560 1.303 . S
O553 Zn546 1.938 . S
O553 C560 1.247 . S
O554 Zn546 1.906 . S
O554 C562 1.304 . S
O555 Zn543 1.924 . S
O555 C563 1.311 . S
O556 Zn547 1.977 . S
O556 C562 1.272 . S
O557 Zn547 1.914 . S
O557 C563 1.225 1_655 S
C558 O542 1.225 . S
C558 O564 1.325 . S
C559 O548 1.226 . S
C559 O549 1.307 . S
C560 O552 1.303 . S
C560 O553 1.247 . S
C561 O550 1.253 . S
C561 O551 1.283 . S
C562 O554 1.304 . S
C562 O556 1.272 . S
C563 O555 1.311 . S
C563 O557 1.225 1_455 S
O564 Zn546 1.939 1_455 S
O564 C558 1.325 . S
O565 Zn566 1.953 . S
O565 C581 1.225 . S
Zn566 O565 1.953 . S
Zn566 O567 1.949 . S
Zn566 O573 1.919 . S
Zn566 O578 1.924 . S
O567 Zn566 1.949 . S
O567 Zn568 1.923 . S
O567 Zn569 1.950 . S
O567 Zn570 1.945 . S
Zn568 O567 1.923 . S
Zn568 O571 1.933 . S
Zn568 O574 1.941 . S
Zn568 O575 1.965 . S
Zn569 O567 1.950 . S
Zn569 O576 1.938 . S
Zn569 O577 1.906 . S
Zn569 O587 1.953 . S
Zn570 O567 1.945 . S
Zn570 O572 1.932 . S
Zn570 O579 1.977 . S
Zn570 O580 1.910 . S
O571 Zn568 1.933 . S
O571 C582 1.226 . S
O572 Zn570 1.932 . S
O572 C582 1.307 . S
O573 Zn566 1.919 . S
O573 C584 1.253 . S
O574 Zn568 1.941 . S
O574 C584 1.283 . S
O575 Zn568 1.965 . S
O575 C583 1.303 . S
O576 Zn569 1.938 . S
O576 C583 1.247 . S
O577 Zn569 1.906 . S
O577 C585 1.304 . S
O578 Zn566 1.924 . S
O578 C586 1.311 . S
O579 Zn570 1.977 . S
O579 C585 1.272 . S
O580 Zn570 1.910 . S
O580 C586 1.231 . S
C581 O565 1.225 . S
C581 O587 1.298 . S
C582 O571 1.226 . S
C582 O572 1.307 . S
C583 O575 1.303 . S
C583 O576 1.247 . S
C584 O573 1.253 . S
C584 O574 1.283 . S
C585 O577 1.304 . S
C585 O579 1.272 . S
C586 O578 1.311 . S
C586 O580 1.231 . S
O587 Zn569 1.953 . S
O587 C581 1.298 . S
O588 Zn589 1.953 . S
O588 C604 1.225 . S
Zn589 O588 1.953 . S
Zn589 O590 1.949 . S
Zn589 O596 1.919 . S
Zn589 O601 1.924 . S
O590 Zn589 1.949 . S
O590 Zn591 1.923 . S
O590 Zn592 1.950 . S
O590 Zn593 1.945 . S
Zn591 O590 1.923 . S
Zn591 O594 1.933 . S
Zn591 O597 1.941 . S
Zn591 O598 1.965 . S
Zn592 O590 1.950 . S
Zn592 O599 1.938 . S
Zn592 O600 1.906 . S
Zn592 O610 1.953 . S
Zn593 O590 1.945 . S
Zn593 O595 1.932 . S
Zn593 O602 1.977 . S
Zn593 O603 1.910 . S
O594 Zn591 1.933 . S
O594 C605 1.226 . S
O595 Zn593 1.932 . S
O595 C605 1.307 . S
O596 Zn589 1.919 . S
O596 C607 1.253 . S
O597 Zn591 1.941 . S
O597 C607 1.283 . S
O598 Zn591 1.965 . S
O598 C606 1.303 . S
O599 Zn592 1.938 . S
O599 C606 1.247 . S
O600 Zn592 1.906 . S
O600 C608 1.304 . S
O601 Zn589 1.924 . S
O601 C609 1.311 . S
O602 Zn593 1.977 . S
O602 C608 1.272 . S
O603 Zn593 1.910 . S
O603 C609 1.231 . S
C604 O588 1.225 . S
C604 O610 1.298 . S
C605 O594 1.226 . S
C605 O595 1.307 . S
C606 O598 1.303 . S
C606 O599 1.247 . S
C607 O596 1.253 . S
C607 O597 1.283 . S
C608 O600 1.304 . S
C608 O602 1.272 . S
C609 O601 1.311 . S
C609 O603 1.231 . S
O610 Zn592 1.953 . S
O610 C604 1.298 . S
O611 Zn612 1.953 . S
O611 C627 1.225 . S
Zn612 O611 1.953 . S
Zn612 O613 1.949 . S
Zn612 O619 1.919 . S
Zn612 O624 1.924 . S
O613 Zn612 1.949 . S
O613 Zn614 1.923 . S
O613 Zn615 1.950 . S
O613 Zn616 1.945 . S
Zn614 O613 1.923 . S
Zn614 O617 1.933 . S
Zn614 O620 1.941 . S
Zn614 O621 1.965 . S
Zn615 O613 1.950 . S
Zn615 O622 1.938 . S
Zn615 O623 1.906 . S
Zn615 O633 1.953 . S
Zn616 O613 1.945 . S
Zn616 O618 1.932 . S
Zn616 O625 1.977 . S
Zn616 O626 1.910 . S
O617 Zn614 1.933 . S
O617 C628 1.226 . S
O618 Zn616 1.932 . S
O618 C628 1.307 . S
O619 Zn612 1.919 . S
O619 C630 1.253 . S
O620 Zn614 1.941 . S
O620 C630 1.283 . S
O621 Zn614 1.965 . S
O621 C629 1.303 . S
O622 Zn615 1.938 . S
O622 C629 1.247 . S
O623 Zn615 1.906 . S
O623 C631 1.304 . S
O624 Zn612 1.924 . S
O624 C632 1.311 . S
O625 Zn616 1.977 . S
O625 C631 1.272 . S
O626 Zn616 1.910 . S
O626 C632 1.231 . S
C627 O611 1.225 . S
C627 O633 1.298 . S
C628 O617 1.226 . S
C628 O618 1.307 . S
C629 O621 1.303 . S
C629 O622 1.247 . S
C630 O619 1.253 . S
C630 O620 1.283 . S
C631 O623 1.304 . S
C631 O625 1.272 . S
C632 O624 1.311 . S
C632 O626 1.231 . S
O633 Zn615 1.953 . S
O633 C627 1.298 . S
O634 Zn635 1.953 . S
O634 C650 1.225 . S
Zn635 O634 1.953 . S
Zn635 O636 1.949 . S
Zn635 O642 1.919 . S
Zn635 O647 1.924 . S
O636 Zn635 1.949 . S
O636 Zn637 1.923 . S
O636 Zn638 1.950 . S
O636 Zn639 1.945 . S
Zn637 O636 1.923 . S
Zn637 O640 1.933 . S
Zn637 O643 1.941 . S
Zn637 O644 1.965 . S
Zn638 O636 1.950 . S
Zn638 O645 1.938 . S
Zn638 O646 1.906 . S
Zn638 O656 1.953 . S
Zn639 O636 1.945 . S
Zn639 O641 1.932 . S
Zn639 O648 1.977 . S
Zn639 O649 1.910 . S
O640 Zn637 1.933 . S
O640 C651 1.226 . S
O641 Zn639 1.932 . S
O641 C651 1.307 . S
O642 Zn635 1.919 . S
O642 C653 1.253 . S
O643 Zn637 1.941 . S
O643 C653 1.283 . S
O644 Zn637 1.965 . S
O644 C652 1.303 . S
O645 Zn638 1.938 . S
O645 C652 1.247 . S
O646 Zn638 1.906 . S
O646 C654 1.304 . S
O647 Zn635 1.924 . S
O647 C655 1.311 . S
O648 Zn639 1.977 . S
O648 C654 1.272 . S
O649 Zn639 1.910 . S
O649 C655 1.231 . S
C650 O634 1.225 . S
C650 O656 1.298 . S
C651 O640 1.226 . S
C651 O641 1.307 . S
C652 O644 1.303 . S
C652 O645 1.247 . S
C653 O642 1.253 . S
C653 O643 1.283 . S
C654 O646 1.304 . S
C654 O648 1.272 . S
C655 O647 1.311 . S
C655 O649 1.231 . S
O656 Zn638 1.953 . S
O656 C650 1.298 . S
O657 Zn658 1.966 1_455 S
O657 C673 1.225 . S
Zn658 O657 1.966 1_655 S
Zn658 O659 1.958 1_655 S
Zn658 O665 1.915 1_554 S
Zn658 O670 1.905 1_654 S
O659 Zn658 1.958 1_455 S
O659 Zn660 1.923 1_455 S
O659 Zn661 1.950 . S
O659 Zn662 1.945 1_554 S
Zn660 O659 1.923 1_655 S
Zn660 O663 1.933 . S
Zn660 O666 1.941 . S
Zn660 O667 1.965 . S
Zn661 O659 1.950 . S
Zn661 O668 1.938 . S
Zn661 O669 1.906 . S
Zn661 O679 1.953 . S
Zn662 O659 1.945 1_556 S
Zn662 O664 1.932 . S
Zn662 O671 1.977 1_556 S
Zn662 O672 1.910 . S
O663 Zn660 1.933 . S
O663 C674 1.226 1_554 S
O664 Zn662 1.932 . S
O664 C674 1.307 1_455 S
O665 Zn658 1.915 1_556 S
O665 C676 1.253 1_556 S
O666 Zn660 1.941 . S
O666 C676 1.283 . S
O667 Zn660 1.965 . S
O667 C675 1.303 . S
O668 Zn661 1.938 . S
O668 C675 1.247 1_455 S
O669 Zn661 1.906 . S
O669 C677 1.304 . S
O670 Zn658 1.905 1_456 S
O670 C678 1.311 . S
O671 Zn662 1.977 1_554 S
O671 C677 1.272 . S
O672 Zn662 1.910 . S
O672 C678 1.231 . S
C673 O657 1.225 . S
C673 O679 1.298 . S
C674 O663 1.226 1_556 S
C674 O664 1.307 1_655 S
C675 O667 1.303 . S
C675 O668 1.247 1_655 S
C676 O665 1.253 1_554 S
C676 O666 1.283 . S
C677 O669 1.304 . S
C677 O671 1.272 . S
C678 O670 1.311 . S
C678 O672 1.231 . S
O679 Zn661 1.953 . S
O679 C673 1.298 . S
C680 C681 1.387 . S
C680 H684 0.950 . S
C680 C689 1.397 . S
C681 C680 1.387 . S
C681 C683 1.387 1_455 S
H682 C689 0.954 . S
C683 C681 1.387 1_655 S
C683 C685 1.390 . S
C683 H687 0.950 . S
H684 C680 0.950 . S
C685 C683 1.390 . S
C685 C686 1.387 . S
C685 H688 0.950 . S
C686 C685 1.387 . S
C686 C689 1.376 1_655 S
H687 C683 0.950 . S
H688 C685 0.950 . S
C689 C680 1.397 . S
C689 H682 0.954 . S
C689 C686 1.376 1_455 S
C690 C691 1.387 . S
C690 H694 0.950 . S
C690 C699 1.390 . S
C691 C690 1.387 . S
C691 C693 1.387 . S
H692 C699 0.950 . S
C693 C691 1.387 . S
C693 C695 1.390 . S
C693 H697 0.950 . S
H694 C690 0.950 . S
C695 C693 1.390 . S
C695 C696 1.387 . S
C695 H698 0.950 . S
C696 C695 1.387 . S
C696 C699 1.387 . S
H697 C693 0.950 . S
H698 C695 0.950 . S
C699 C690 1.390 . S
C699 H692 0.950 . S
C699 C696 1.387 . S
C700 C701 1.387 . S
C700 H704 0.950 . S
C700 C709 1.390 . S
C701 C700 1.387 . S
C701 C703 1.387 . S
H702 C709 0.950 . S
C703 C701 1.387 . S
C703 C705 1.390 . S
C703 H707 0.950 . S
H704 C700 0.950 . S
C705 C703 1.390 . S
C705 C706 1.387 . S
C705 H708 0.950 . S
C706 C705 1.387 . S
C706 C709 1.387 . S
H707 C703 0.950 . S
H708 C705 0.950 . S
C709 C700 1.390 . S
C709 H702 0.950 . S
C709 C706 1.387 . S
C710 C711 1.387 . S
C710 H714 0.950 . S
C710 C719 1.390 . S
C711 C710 1.387 . S
C711 C713 1.387 . S
H712 C719 0.950 . S
C713 C711 1.387 . S
C713 C715 1.390 . S
C713 H717 0.950 . S
H714 C710 0.950 . S
C715 C713 1.390 . S
C715 C716 1.387 . S
C715 H718 0.950 . S
C716 C715 1.387 . S
C716 C719 1.387 . S
H717 C713 0.950 . S
H718 C715 0.950 . S
C719 C710 1.390 . S
C719 H712 0.950 . S
C719 C716 1.387 . S
C720 C721 1.387 1_655 S
C720 H724 0.950 . S
C720 C729 1.390 . S
C721 C720 1.387 1_455 S
C721 C723 1.387 . S
H722 C729 0.950 . S
C723 C721 1.387 . S
C723 C725 1.390 1_455 S
C723 H727 0.950 . S
H724 C720 0.950 . S
C725 C723 1.390 1_655 S
C725 C726 1.387 . S
C725 H728 0.950 . S
C726 C725 1.387 . S
C726 C729 1.387 . S
H727 C723 0.950 . S
H728 C725 0.950 . S
C729 C720 1.390 . S
C729 H722 0.950 . S
C729 C726 1.387 . S
C730 C731 1.387 . S
C730 H734 0.950 . S
C730 C739 1.390 . S
C731 C730 1.387 . S
C731 C733 1.387 . S
H732 C739 0.950 . S
C733 C731 1.387 . S
C733 C735 1.390 . S
C733 H737 0.950 . S
H734 C730 0.950 . S
C735 C733 1.390 . S
C735 C736 1.387 . S
C735 H738 0.950 . S
C736 C735 1.387 . S
C736 C739 1.387 . S
H737 C733 0.950 . S
H738 C735 0.950 . S
C739 C730 1.390 . S
C739 H732 0.950 . S
C739 C736 1.387 . S
C740 C741 1.387 . S
C740 H744 0.950 . S
C740 C749 1.390 . S
C741 C740 1.387 . S
C741 C743 1.387 . S
H742 C749 0.950 . S
C743 C741 1.387 . S
C743 C745 1.390 . S
C743 H747 0.950 . S
H744 C740 0.950 . S
C745 C743 1.390 . S
C745 C746 1.387 . S
C745 H748 0.950 1_556 S
C746 C745 1.387 . S
C746 C749 1.387 . S
H747 C743 0.950 . S
H748 C745 0.950 1_554 S
C749 C740 1.390 . S
C749 H742 0.950 . S
C749 C746 1.387 . S
C750 C751 1.387 . S
C750 H754 0.950 . S
C750 C759 1.390 . S
C751 C750 1.387 . S
C751 C753 1.387 . S
H752 C759 0.950 . S
C753 C751 1.387 . S
C753 C755 1.390 . S
C753 H757 0.950 . S
H754 C750 0.950 . S
C755 C753 1.390 . S
C755 C756 1.387 . S
C755 H758 0.950 . S
C756 C755 1.387 . S
C756 C759 1.387 . S
H757 C753 0.950 . S
H758 C755 0.950 . S
C759 C750 1.390 . S
C759 H752 0.950 . S
C759 C756 1.387 . S
C760 C761 1.387 . S
C760 H764 0.950 . S
C760 C769 1.390 . S
C761 C760 1.387 . S
C761 C763 1.387 1_545 S
H762 C769 0.950 . S
C763 C761 1.387 1_565 S
C763 C765 1.390 . S
C763 H767 0.950 . S
H764 C760 0.950 . S
C765 C763 1.390 . S
C765 C766 1.387 1_565 S
C765 H768 0.950 . S
C766 C765 1.387 1_545 S
C766 C769 1.387 . S
H767 C763 0.950 . S
H768 C765 0.950 . S
C769 C760 1.390 . S
C769 H762 0.950 . S
C769 C766 1.387 . S
C770 C771 1.387 . S
C770 H774 0.950 . S
C770 C779 1.390 . S
C771 C770 1.387 . S
C771 C773 1.387 . S
H772 C779 0.950 . S
C773 C771 1.387 . S
C773 C775 1.390 . S
C773 H777 0.950 . S
H774 C770 0.950 . S
C775 C773 1.390 . S
C775 C776 1.387 . S
C775 H778 0.950 . S
C776 C775 1.387 . S
C776 C779 1.387 . S
H777 C773 0.950 . S
H778 C775 0.950 . S
C779 C770 1.390 . S
C779 H772 0.950 . S
C779 C776 1.387 . S
C780 C781 1.376 1_565 S
C780 H784 0.950 . S
C780 C789 1.390 . S
C781 C780 1.376 1_545 S
C781 C783 1.402 . S
H782 C789 0.950 . S
C783 C781 1.402 . S
C783 C785 1.390 . S
C783 H787 0.950 . S
H784 C780 0.950 . S
C785 C783 1.390 . S
C785 C786 1.387 . S
C785 H788 0.950 . S
C786 C785 1.387 . S
C786 C789 1.387 1_545 S
H787 C783 0.950 . S
H788 C785 0.950 . S
C789 C780 1.390 . S
C789 H782 0.950 . S
C789 C786 1.387 1_565 S
C790 C791 1.387 . S
C790 H794 0.950 . S
C790 C799 1.390 . S
C791 C790 1.387 . S
C791 C793 1.387 . S
H792 C799 0.950 . S
C793 C791 1.387 . S
C793 C795 1.390 . S
C793 H797 0.950 . S
H794 C790 0.950 . S
C795 C793 1.390 . S
C795 C796 1.387 . S
C795 H798 0.950 . S
C796 C795 1.387 . S
C796 C799 1.387 . S
H797 C793 0.950 . S
H798 C795 0.950 . S
C799 C790 1.390 . S
C799 H792 0.950 . S
C799 C796 1.387 . S
C800 C801 1.387 1_565 S
C800 H804 0.950 . S
C800 C809 1.390 1_565 S
C801 C800 1.387 1_545 S
C801 C803 1.387 . S
H802 C809 0.950 1_565 S
C803 C801 1.387 . S
C803 C805 1.390 . S
C803 H807 0.950 . S
H804 C800 0.950 . S
C805 C803 1.390 . S
C805 C806 1.387 . S
C805 H808 0.950 . S
C806 C805 1.387 . S
C806 C809 1.387 . S
H807 C803 0.950 . S
H808 C805 0.950 . S
C809 C800 1.390 1_545 S
C809 H802 0.950 1_545 S
C809 C806 1.387 . S
C810 C811 1.387 . S
C810 H814 0.950 . S
C810 C819 1.390 . S
C811 C810 1.387 . S
C811 C813 1.387 . S
H812 C819 0.950 . S
C813 C811 1.387 . S
C813 C815 1.390 . S
C813 H817 0.950 . S
H814 C810 0.950 . S
C815 C813 1.390 . S
C815 C816 1.387 . S
C815 H818 0.950 . S
C816 C815 1.387 . S
C816 C819 1.387 . S
H817 C813 0.950 . S
H818 C815 0.950 . S
C819 C810 1.390 . S
C819 H812 0.950 . S
C819 C816 1.387 . S
C820 C821 1.387 . S
C820 H824 0.950 . S
C820 C829 1.390 . S
C821 C820 1.387 . S
C821 C823 1.387 1_565 S
H822 C829 0.950 . S
C823 C821 1.387 1_545 S
C823 C825 1.390 . S
C823 H827 0.950 . S
H824 C820 0.950 . S
C825 C823 1.390 . S
C825 C826 1.387 1_545 S
C825 H828 0.950 . S
C826 C825 1.387 1_565 S
C826 C829 1.387 . S
H827 C823 0.950 . S
H828 C825 0.950 . S
C829 C820 1.390 . S
C829 H822 0.950 . S
C829 C826 1.387 . S
C830 C831 1.387 . S
C830 H834 0.950 . S
C830 C839 1.390 . S
C831 C830 1.387 . S
C831 C833 1.387 . S
H832 C839 0.950 . S
C833 C831 1.387 . S
C833 C835 1.390 . S
C833 H837 0.950 . S
H834 C830 0.950 . S
C835 C833 1.390 . S
C835 C836 1.387 . S
C835 H838 0.950 . S
C836 C835 1.387 . S
C836 C839 1.387 . S
H837 C833 0.950 . S
H838 C835 0.950 . S
C839 C830 1.390 . S
C839 H832 0.950 . S
C839 C836 1.387 . S
C840 C841 1.389 . S
C840 H844 0.949 1_554 S
C840 C849 1.389 1_554 S
C841 C840 1.389 . S
C841 C843 1.387 . S
H842 C849 0.950 1_565 S
C843 C841 1.387 . S
C843 C845 1.390 . S
C843 H847 0.950 . S
H844 C840 0.949 1_556 S
C845 C843 1.390 . S
C845 C846 1.387 1_554 S
C845 H848 0.950 . S
C846 C845 1.387 1_556 S
C846 C849 1.387 . S
H847 C843 0.950 . S
H848 C845 0.950 . S
C849 C840 1.389 1_556 S
C849 H842 0.950 1_545 S
C849 C846 1.387 . S
C850 C851 1.387 . S
C850 H854 0.950 . S
C850 C859 1.390 . S
C851 C850 1.387 . S
C851 C853 1.387 1_554 S
H852 C859 0.950 . S
C853 C851 1.387 1_556 S
C853 C855 1.390 . S
C853 H857 0.950 . S
H854 C850 0.950 . S
C855 C853 1.390 . S
C855 C856 1.387 1_556 S
C855 H858 0.950 . S
C856 C855 1.387 1_554 S
C856 C859 1.387 . S
H857 C853 0.950 . S
H858 C855 0.950 . S
C859 C850 1.390 . S
C859 H852 0.950 . S
C859 C856 1.387 . S
C860 C861 1.387 . S
C860 H864 0.950 . S
C860 C869 1.390 . S
C861 C860 1.387 . S
C861 C863 1.387 . S
H862 C869 0.950 . S
C863 C861 1.387 . S
C863 C865 1.390 . S
C863 H867 0.950 . S
H864 C860 0.950 . S
C865 C863 1.390 . S
C865 C866 1.387 . S
C865 H868 0.950 . S
C866 C865 1.387 . S
C866 C869 1.387 . S
H867 C863 0.950 . S
H868 C865 0.950 . S
C869 C860 1.390 . S
C869 H862 0.950 . S
C869 C866 1.387 . S
C870 C871 1.387 . S
C870 H874 0.950 . S
C870 C879 1.390 . S
C871 C870 1.387 . S
C871 C873 1.387 . S
H872 C879 0.950 . S
C873 C871 1.387 . S
C873 C875 1.390 . S
C873 H877 0.950 . S
H874 C870 0.950 . S
C875 C873 1.390 . S
C875 C876 1.387 . S
C875 H878 0.950 . S
C876 C875 1.387 . S
C876 C879 1.387 . S
H877 C873 0.950 . S
H878 C875 0.950 . S
C879 C870 1.390 . S
C879 H872 0.950 . S
C879 C876 1.387 . S
C880 C881 1.387 . S
C880 H884 0.950 . S
C880 C889 1.390 . S
C881 C880 1.387 . S
C881 C883 1.387 . S
H882 C889 0.950 . S
C883 C881 1.387 . S
C883 C885 1.390 . S
C883 H887 0.950 . S
H884 C880 0.950 . S
C885 C883 1.390 . S
C885 C886 1.387 . S
C885 H888 0.950 . S
C886 C885 1.387 . S
C886 C889 1.387 . S
H887 C883 0.950 . S
H888 C885 0.950 . S
C889 C880 1.390 . S
C889 H882 0.950 . S
C889 C886 1.387 . S
C890 C891 1.387 . S
C890 H894 0.950 . S
C890 C899 1.390 . S
C891 C890 1.387 . S
C891 C893 1.387 . S
H892 C899 0.950 . S
C893 C891 1.387 . S
C893 C895 1.390 . S
C893 H897 0.950 . S
H894 C890 0.950 . S
C895 C893 1.390 . S
C895 C896 1.387 . S
C895 H898 0.950 . S
C896 C895 1.387 . S
C896 C899 1.387 . S
H897 C893 0.950 . S
H898 C895 0.950 . S
C899 C890 1.390 . S
C899 H892 0.950 . S
C899 C896 1.387 . S
C900 C901 1.387 . S
C900 H904 0.950 . S
C900 C909 1.390 . S
C901 C900 1.387 . S
C901 C903 1.387 . S
H902 C909 0.950 . S
C903 C901 1.387 . S
C903 C905 1.390 . S
C903 H907 0.950 . S
H904 C900 0.950 . S
C905 C903 1.390 . S
C905 C906 1.387 . S
C905 H908 0.950 . S
C906 C905 1.387 . S
C906 C909 1.387 . S
H907 C903 0.950 . S
H908 C905 0.950 . S
C909 C900 1.390 . S
C909 H902 0.950 . S
C909 C906 1.387 . S
C910 C911 1.387 . S
C910 H914 0.950 . S
C910 C919 1.390 . S
C911 C910 1.387 . S
C911 C913 1.387 . S
H912 C919 0.950 . S
C913 C911 1.387 . S
C913 C915 1.390 . S
C913 H917 0.950 . S
H914 C910 0.950 . S
C915 C913 1.390 . S
C915 C916 1.387 . S
C915 H918 0.950 . S
C916 C915 1.387 . S
C916 C919 1.387 . S
H917 C913 0.950 . S
H918 C915 0.950 . S
C919 C910 1.390 . S
C919 H912 0.950 . S
C919 C916 1.387 . S
C920 C921 1.387 . S
C920 H924 0.950 . S
C920 C929 1.390 . S
C921 C920 1.387 . S
C921 C923 1.387 . S
H922 C929 0.950 1_554 S
C923 C921 1.387 . S
C923 C925 1.390 . S
C923 H927 0.950 . S
H924 C920 0.950 . S
C925 C923 1.390 . S
C925 C926 1.387 . S
C925 H928 0.950 . S
C926 C925 1.387 . S
C926 C929 1.387 . S
H927 C923 0.950 . S
H928 C925 0.950 . S
C929 C920 1.390 . S
C929 H922 0.950 1_556 S
C929 C926 1.387 . S
C930 C931 1.387 . S
C930 H934 0.950 . S
C930 C939 1.390 . S
C931 C930 1.387 . S
C931 C933 1.387 . S
H932 C939 0.950 . S
C933 C931 1.387 . S
C933 C935 1.390 . S
C933 H937 0.950 . S
H934 C930 0.950 . S
C935 C933 1.390 . S
C935 C936 1.387 . S
C935 H938 0.950 . S
C936 C935 1.387 . S
C936 C939 1.387 . S
H937 C933 0.950 . S
H938 C935 0.950 . S
C939 C930 1.390 . S
C939 H932 0.950 . S
C939 C936 1.387 . S
C940 C941 1.387 . S
C940 H944 0.950 . S
C940 C949 1.390 . S
C941 C940 1.387 . S
C941 C943 1.387 . S
H942 C949 0.950 . S
C943 C941 1.387 . S
C943 C945 1.390 . S
C943 H947 0.950 . S
H944 C940 0.950 . S
C945 C943 1.390 . S
C945 C946 1.387 . S
C945 H948 0.950 . S
C946 C945 1.387 . S
C946 C949 1.387 . S
H947 C943 0.950 . S
H948 C945 0.950 . S
C949 C940 1.390 . S
C949 H942 0.950 . S
C949 C946 1.387 . S
C950 C951 1.387 . S
C950 H954 0.950 . S
C950 C959 1.390 . S
C951 C950 1.387 . S
C951 C953 1.387 . S
H952 C959 0.950 . S
C953 C951 1.387 . S
C953 C955 1.390 . S
C953 H957 0.950 . S
H954 C950 0.950 . S
C955 C953 1.390 . S
C955 C956 1.387 . S
C955 H958 0.950 . S
C956 C955 1.387 . S
C956 C959 1.387 . S
H957 C953 0.950 . S
H958 C955 0.950 . S
C959 C950 1.390 . S
C959 H952 0.950 . S
C959 C956 1.387 . S
C960 C961 1.387 . S
C960 H964 0.950 . S
C960 C969 1.390 . S
C961 C960 1.387 . S
C961 C963 1.387 . S
H962 C969 0.950 . S
C963 C961 1.387 . S
C963 C965 1.390 . S
C963 H967 0.950 . S
H964 C960 0.950 . S
C965 C963 1.390 . S
C965 C966 1.387 . S
C965 H968 0.950 . S
C966 C965 1.387 . S
C966 C969 1.387 . S
H967 C963 0.950 . S
H968 C965 0.950 . S
C969 C960 1.390 . S
C969 H962 0.950 . S
C969 C966 1.387 . S
C970 C971 1.387 . S
C970 H974 0.950 . S
C970 C979 1.390 . S
C971 C970 1.387 . S
C971 C973 1.387 . S
H972 C979 0.950 . S
C973 C971 1.387 . S
C973 C975 1.390 . S
C973 H977 0.950 . S
H974 C970 0.950 . S
C975 C973 1.390 . S
C975 C976 1.387 . S
C975 H978 0.950 . S
C976 C975 1.387 . S
C976 C979 1.387 . S
H977 C973 0.950 . S
H978 C975 0.950 . S
C979 C970 1.390 . S
C979 H972 0.950 . S
C979 C976 1.387 . S
C980 C981 1.387 . S
C980 H984 0.950 . S
C980 C989 1.390 . S
C981 C980 1.387 . S
C981 C983 1.387 . S
H982 C989 0.950 . S
C983 C981 1.387 . S
C983 C985 1.390 . S
C983 H987 0.950 . S
H984 C980 0.950 . S
C985 C983 1.390 . S
C985 C986 1.387 . S
C985 H988 0.950 . S
C986 C985 1.387 . S
C986 C989 1.387 . S
H987 C983 0.950 . S
H988 C985 0.950 . S
C989 C980 1.390 . S
C989 H982 0.950 . S
C989 C986 1.387 . S
C990 C991 1.387 . S
C990 H994 0.950 . S
C990 C999 1.390 . S
C991 C990 1.387 . S
C991 C993 1.387 . S
H992 C999 0.950 . S
C993 C991 1.387 . S
C993 C995 1.390 . S
C993 H997 0.950 . S
H994 C990 0.950 . S
C995 C993 1.390 . S
C995 C996 1.387 . S
C995 H998 0.950 . S
C996 C995 1.387 . S
C996 C999 1.387 . S
H997 C993 0.950 . S
H998 C995 0.950 . S
C999 C990 1.390 . S
C999 H992 0.950 . S
C999 C996 1.387 . S
C1000 C1001 1.387 . S
C1000 H1004 0.950 . S
C1000 C1009 1.390 . S
C1001 C1000 1.387 . S
C1001 C1003 1.387 . S
H1002 C1009 0.950 . S
C1003 C1001 1.387 . S
C1003 C1005 1.390 . S
C1003 H1007 0.950 1_545 S
H1004 C1000 0.950 . S
C1005 C1003 1.390 . S
C1005 C1006 1.387 . S
C1005 H1008 0.950 . S
C1006 C1005 1.387 . S
C1006 C1009 1.387 . S
H1007 C1003 0.950 1_565 S
H1008 C1005 0.950 . S
C1009 C1000 1.390 . S
C1009 H1002 0.950 . S
C1009 C1006 1.387 . S
C1010 C1011 1.387 . S
C1010 H1014 0.950 . S
C1010 C1019 1.390 . S
C1011 C1010 1.387 . S
C1011 C1013 1.387 . S
H1012 C1019 0.950 . S
C1013 C1011 1.387 . S
C1013 C1015 1.390 . S
C1013 H1017 0.950 . S
H1014 C1010 0.950 . S
C1015 C1013 1.390 . S
C1015 C1016 1.387 . S
C1015 H1018 0.950 . S
C1016 C1015 1.387 . S
C1016 C1019 1.387 . S
H1017 C1013 0.950 . S
H1018 C1015 0.950 . S
C1019 C1010 1.390 . S
C1019 H1012 0.950 . S
C1019 C1016 1.387 . S
C1020 C1021 1.387 1_545 S
C1020 H1024 0.950 . S
C1020 C1029 1.390 . S
C1021 C1020 1.387 1_565 S
C1021 C1023 1.387 . S
H1022 C1029 0.950 . S
C1023 C1021 1.387 . S
C1023 C1025 1.390 . S
C1023 H1027 0.950 . S
H1024 C1020 0.950 . S
C1025 C1023 1.390 . S
C1025 C1026 1.387 . S
C1025 H1028 0.950 . S
C1026 C1025 1.387 . S
C1026 C1029 1.387 1_565 S
H1027 C1023 0.950 . S
H1028 C1025 0.950 . S
C1029 C1020 1.390 . S
C1029 H1022 0.950 . S
C1029 C1026 1.387 1_545 S
C1030 C1031 1.387 . S
C1030 H1034 0.950 . S
C1030 C1039 1.390 . S
C1031 C1030 1.387 . S
C1031 C1033 1.387 . S
H1032 C1039 0.950 . S
C1033 C1031 1.387 . S
C1033 C1035 1.390 . S
C1033 H1037 0.950 . S
H1034 C1030 0.950 . S
C1035 C1033 1.390 . S
C1035 C1036 1.387 . S
C1035 H1038 0.950 . S
C1036 C1035 1.387 . S
C1036 C1039 1.387 . S
H1037 C1033 0.950 . S
H1038 C1035 0.950 . S
C1039 C1030 1.390 . S
C1039 H1032 0.950 . S
C1039 C1036 1.387 . S
C1040 C1041 1.387 . S
C1040 H1044 0.950 . S
C1040 C1049 1.390 . S
C1041 C1040 1.387 . S
C1041 C1043 1.387 1_545 S
H1042 C1049 0.950 . S
C1043 C1041 1.387 1_565 S
C1043 C1045 1.390 . S
C1043 H1047 0.950 . S
H1044 C1040 0.950 . S
C1045 C1043 1.390 . S
C1045 C1046 1.387 . S
C1045 H1048 0.950 1_655 S
C1046 C1045 1.387 . S
C1046 C1049 1.387 1_565 S
H1047 C1043 0.950 . S
H1048 C1045 0.950 1_455 S
C1049 C1040 1.390 . S
C1049 H1042 0.950 . S
C1049 C1046 1.387 1_545 S
C1050 C1051 1.387 . S
C1050 H1054 0.950 . S
C1050 C1059 1.390 . S
C1051 C1050 1.387 . S
C1051 C1053 1.387 . S
H1052 C1059 0.950 . S
C1053 C1051 1.387 . S
C1053 C1055 1.390 . S
C1053 H1057 0.950 . S
H1054 C1050 0.950 . S
C1055 C1053 1.390 . S
C1055 C1056 1.387 . S
C1055 H1058 0.950 . S
C1056 C1055 1.387 . S
C1056 C1059 1.387 . S
H1057 C1053 0.950 . S
H1058 C1055 0.950 . S
C1059 C1050 1.390 . S
C1059 H1052 0.950 . S
C1059 C1056 1.387 . S
C1060 C1061 1.387 . S
C1060 H1064 0.950 . S
C1060 C1069 1.390 . S
C1061 C1060 1.387 . S
C1061 C1063 1.387 1_545 S
H1062 C1069 0.950 . S
C1063 C1061 1.387 1_565 S
C1063 C1065 1.390 . S
C1063 H1067 0.950 . S
H1064 C1060 0.950 . S
C1065 C1063 1.390 . S
C1065 C1066 1.387 1_565 S
C1065 H1068 0.950 . S
C1066 C1065 1.387 1_545 S
C1066 C1069 1.387 . S
H1067 C1063 0.950 . S
H1068 C1065 0.950 . S
C1069 C1060 1.390 . S
C1069 H1062 0.950 . S
C1069 C1066 1.387 . S
C1070 C1071 1.387 . S
C1070 H1074 0.950 . S
C1070 C1079 1.390 . S
C1071 C1070 1.387 . S
C1071 C1073 1.387 . S
H1072 C1079 0.950 . S
C1073 C1071 1.387 . S
C1073 C1075 1.390 . S
C1073 H1077 0.950 . S
H1074 C1070 0.950 . S
C1075 C1073 1.390 . S
C1075 C1076 1.387 . S
C1075 H1078 0.950 . S
C1076 C1075 1.387 . S
C1076 C1079 1.387 . S
H1077 C1073 0.950 . S
H1078 C1075 0.950 . S
C1079 C1070 1.390 . S
C1079 H1072 0.950 . S
C1079 C1076 1.387 . S
C1080 C1081 1.387 1_556 S
C1080 H1084 0.950 . S
C1080 C1089 1.390 1_556 S
C1081 C1080 1.387 1_554 S
C1081 C1083 1.387 . S
H1082 C1089 0.950 1_556 S
C1083 C1081 1.387 . S
C1083 C1085 1.390 . S
C1083 H1087 0.950 . S
H1084 C1080 0.950 . S
C1085 C1083 1.390 . S
C1085 C1086 1.387 . S
C1085 H1088 0.950 . S
C1086 C1085 1.387 . S
C1086 C1089 1.387 . S
H1087 C1083 0.950 . S
H1088 C1085 0.950 . S
C1089 C1080 1.390 1_554 S
C1089 H1082 0.950 1_554 S
C1089 C1086 1.387 . S
C1090 C1091 1.387 1_554 S
C1090 H1094 0.950 . S
C1090 C1099 1.390 . S
C1091 C1090 1.387 1_556 S
C1091 C1093 1.387 . S
H1092 C1099 0.950 . S
C1093 C1091 1.387 . S
C1093 C1095 1.390 . S
C1093 H1097 0.950 . S
H1094 C1090 0.950 . S
C1095 C1093 1.390 . S
C1095 C1096 1.387 . S
C1095 H1098 0.950 . S
C1096 C1095 1.387 . S
C1096 C1099 1.387 1_556 S
H1097 C1093 0.950 . S
H1098 C1095 0.950 . S
C1099 C1090 1.390 . S
C1099 H1092 0.950 . S
C1099 C1096 1.387 1_554 S
C1100 C1101 1.387 . S
C1100 H1104 0.950 . S
C1100 C1109 1.390 . S
C1101 C1100 1.387 . S
C1101 C1103 1.387 . S
H1102 C1109 0.950 . S
C1103 C1101 1.387 . S
C1103 C1105 1.390 . S
C1103 H1107 0.950 . S
H1104 C1100 0.950 . S
C1105 C1103 1.390 . S
C1105 C1106 1.387 . S
C1105 H1108 0.950 . S
C1106 C1105 1.387 . S
C1106 C1109 1.387 . S
H1107 C1103 0.950 . S
H1108 C1105 0.950 . S
C1109 C1100 1.390 . S
C1109 H1102 0.950 . S
C1109 C1106 1.387 . S
C1110 C1111 1.387 . S
C1110 H1114 0.950 . S
C1110 C1119 1.390 . S
C1111 C1110 1.387 . S
C1111 C1113 1.387 . S
H1112 C1119 0.950 . S
C1113 C1111 1.387 . S
C1113 C1115 1.390 . S
C1113 H1117 0.950 . S
H1114 C1110 0.950 . S
C1115 C1113 1.390 . S
C1115 C1116 1.387 . S
C1115 H1118 0.950 . S
C1116 C1115 1.387 . S
C1116 C1119 1.387 . S
H1117 C1113 0.950 . S
H1118 C1115 0.950 . S
C1119 C1110 1.390 . S
C1119 H1112 0.950 . S
C1119 C1116 1.387 . S
C1120 C1121 1.387 . S
C1120 H1124 0.950 . S
C1120 C1129 1.390 . S
C1121 C1120 1.387 . S
C1121 C1123 1.387 . S
H1122 C1129 0.950 . S
C1123 C1121 1.387 . S
C1123 C1125 1.390 . S
C1123 H1127 0.950 . S
H1124 C1120 0.950 . S
C1125 C1123 1.390 . S
C1125 C1126 1.387 . S
C1125 H1128 0.950 . S
C1126 C1125 1.387 . S
C1126 C1129 1.387 . S
H1127 C1123 0.950 . S
H1128 C1125 0.950 . S
C1129 C1120 1.390 . S
C1129 H1122 0.950 . S
C1129 C1126 1.387 . S
C1130 C1131 1.387 . S
C1130 H1134 0.950 . S
C1130 C1139 1.390 . S
C1131 C1130 1.387 . S
C1131 C1133 1.387 . S
H1132 C1139 0.950 . S
C1133 C1131 1.387 . S
C1133 C1135 1.390 . S
C1133 H1137 0.950 . S
H1134 C1130 0.950 . S
C1135 C1133 1.390 . S
C1135 C1136 1.387 . S
C1135 H1138 0.950 . S
C1136 C1135 1.387 . S
C1136 C1139 1.387 . S
H1137 C1133 0.950 . S
H1138 C1135 0.950 . S
C1139 C1130 1.390 . S
C1139 H1132 0.950 . S
C1139 C1136 1.387 . S
C1140 C1141 1.387 . S
C1140 H1144 0.950 . S
C1140 C1149 1.390 . S
C1141 C1140 1.387 . S
C1141 C1143 1.387 . S
H1142 C1149 0.950 . S
C1143 C1141 1.387 . S
C1143 C1145 1.390 . S
C1143 H1147 0.950 . S
H1144 C1140 0.950 . S
C1145 C1143 1.390 . S
C1145 C1146 1.387 . S
C1145 H1148 0.950 . S
C1146 C1145 1.387 . S
C1146 C1149 1.387 . S
H1147 C1143 0.950 . S
H1148 C1145 0.950 . S
C1149 C1140 1.390 . S
C1149 H1142 0.950 . S
C1149 C1146 1.387 . S
C1150 C1151 1.387 . S
C1150 H1154 0.950 . S
C1150 C1159 1.390 . S
C1151 C1150 1.387 . S
C1151 C1153 1.387 . S
H1152 C1159 0.950 . S
C1153 C1151 1.387 . S
C1153 C1155 1.390 . S
C1153 H1157 0.950 . S
H1154 C1150 0.950 . S
C1155 C1153 1.390 . S
C1155 C1156 1.387 . S
C1155 H1158 0.950 . S
C1156 C1155 1.387 . S
C1156 C1159 1.387 . S
H1157 C1153 0.950 . S
H1158 C1155 0.950 . S
C1159 C1150 1.390 . S
C1159 H1152 0.950 . S
C1159 C1156 1.387 . S
C1160 C1161 1.387 . S
C1160 H1164 0.950 . S
C1160 C1169 1.390 . S
C1161 C1160 1.387 . S
C1161 C1163 1.387 . S
H1162 C1169 0.950 . S
C1163 C1161 1.387 . S
C1163 C1165 1.390 . S
C1163 H1167 0.950 . S
H1164 C1160 0.950 . S
C1165 C1163 1.390 . S
C1165 C1166 1.387 . S
C1165 H1168 0.950 . S
C1166 C1165 1.387 . S
C1166 C1169 1.387 . S
H1167 C1163 0.950 . S
H1168 C1165 0.950 . S
C1169 C1160 1.390 . S
C1169 H1162 0.950 . S
C1169 C1166 1.387 . S
C1170 C1171 1.387 . S
C1170 H1174 0.950 . S
C1170 C1179 1.390 . S
C1171 C1170 1.387 . S
C1171 C1173 1.387 . S
H1172 C1179 0.950 . S
C1173 C1171 1.387 . S
C1173 C1175 1.390 . S
C1173 H1177 0.950 . S
H1174 C1170 0.950 . S
C1175 C1173 1.390 . S
C1175 C1176 1.387 . S
C1175 H1178 0.950 . S
C1176 C1175 1.387 . S
C1176 C1179 1.387 . S
H1177 C1173 0.950 . S
H1178 C1175 0.950 . S
C1179 C1170 1.390 . S
C1179 H1172 0.950 . S
C1179 C1176 1.387 . S
C1180 C1181 1.387 . S
C1180 H1184 0.950 . S
C1180 C1189 1.390 . S
C1181 C1180 1.387 . S
C1181 C1183 1.387 . S
H1182 C1189 0.950 . S
C1183 C1181 1.387 . S
C1183 C1185 1.390 . S
C1183 H1187 0.950 . S
H1184 C1180 0.950 . S
C1185 C1183 1.390 . S
C1185 C1186 1.387 . S
C1185 H1188 0.950 . S
C1186 C1185 1.387 . S
C1186 C1189 1.387 . S
H1187 C1183 0.950 . S
H1188 C1185 0.950 . S
C1189 C1180 1.390 . S
C1189 H1182 0.950 . S
C1189 C1186 1.387 . S
C1190 C1191 1.387 . S
C1190 H1194 0.950 . S
C1190 C1199 1.390 . S
C1191 C1190 1.387 . S
C1191 C1193 1.387 . S
H1192 C1199 0.950 . S
C1193 C1191 1.387 . S
C1193 C1195 1.390 . S
C1193 H1197 0.950 . S
H1194 C1190 0.950 . S
C1195 C1193 1.390 . S
C1195 C1196 1.387 . S
C1195 H1198 0.950 . S
C1196 C1195 1.387 . S
C1196 C1199 1.387 . S
H1197 C1193 0.950 . S
H1198 C1195 0.950 . S
C1199 C1190 1.390 . S
C1199 H1192 0.950 . S
C1199 C1196 1.387 . S
C1200 C1201 1.387 . S
C1200 H1204 0.950 . S
C1200 C1209 1.390 . S
C1201 C1200 1.387 . S
C1201 C1203 1.387 . S
H1202 C1209 0.950 1_554 S
C1203 C1201 1.387 . S
C1203 C1205 1.390 . S
C1203 H1207 0.950 . S
H1204 C1200 0.950 . S
C1205 C1203 1.390 . S
C1205 C1206 1.387 . S
C1205 H1208 0.950 . S
C1206 C1205 1.387 . S
C1206 C1209 1.387 . S
H1207 C1203 0.950 . S
H1208 C1205 0.950 . S
C1209 C1200 1.390 . S
C1209 H1202 0.950 1_556 S
C1209 C1206 1.387 . S
C1210 C1211 1.387 . S
C1210 H1214 0.950 . S
C1210 C1219 1.390 . S
C1211 C1210 1.387 . S
C1211 C1213 1.387 . S
H1212 C1219 0.950 . S
C1213 C1211 1.387 . S
C1213 C1215 1.390 . S
C1213 H1217 0.950 . S
H1214 C1210 0.950 . S
C1215 C1213 1.390 . S
C1215 C1216 1.387 . S
C1215 H1218 0.950 . S
C1216 C1215 1.387 . S
C1216 C1219 1.387 . S
H1217 C1213 0.950 . S
H1218 C1215 0.950 . S
C1219 C1210 1.390 . S
C1219 H1212 0.950 . S
C1219 C1216 1.387 . S
C1220 C1221 1.387 . S
C1220 H1224 0.950 . S
C1220 C1229 1.390 . S
C1221 C1220 1.387 . S
C1221 C1223 1.387 . S
H1222 C1229 0.950 . S
C1223 C1221 1.387 . S
C1223 C1225 1.390 . S
C1223 H1227 0.950 . S
H1224 C1220 0.950 . S
C1225 C1223 1.390 . S
C1225 C1226 1.387 . S
C1225 H1228 0.950 . S
C1226 C1225 1.387 . S
C1226 C1229 1.387 . S
H1227 C1223 0.950 . S
H1228 C1225 0.950 . S
C1229 C1220 1.390 . S
C1229 H1222 0.950 . S
C1229 C1226 1.387 . S
C1230 C1231 1.387 . S
C1230 H1234 0.950 . S
C1230 C1239 1.390 . S
C1231 C1230 1.387 . S
C1231 C1233 1.387 . S
H1232 C1239 0.950 . S
C1233 C1231 1.387 . S
C1233 C1235 1.390 . S
C1233 H1237 0.950 . S
H1234 C1230 0.950 . S
C1235 C1233 1.390 . S
C1235 C1236 1.387 . S
C1235 H1238 0.950 . S
C1236 C1235 1.387 . S
C1236 C1239 1.387 . S
H1237 C1233 0.950 . S
H1238 C1235 0.950 . S
C1239 C1230 1.390 . S
C1239 H1232 0.950 . S
C1239 C1236 1.387 . S
C1240 C1241 1.387 . S
C1240 H1244 0.950 . S
C1240 C1249 1.390 . S
C1241 C1240 1.387 . S
C1241 C1243 1.387 . S
H1242 C1249 0.950 . S
C1243 C1241 1.387 . S
C1243 C1245 1.390 . S
C1243 H1247 0.950 . S
H1244 C1240 0.950 . S
C1245 C1243 1.390 . S
C1245 C1246 1.387 . S
C1245 H1248 0.950 . S
C1246 C1245 1.387 . S
C1246 C1249 1.387 . S
H1247 C1243 0.950 . S
H1248 C1245 0.950 . S
C1249 C1240 1.390 . S
C1249 H1242 0.950 . S
C1249 C1246 1.387 . S
C1250 C1251 1.387 . S
C1250 H1254 0.950 . S
C1250 C1259 1.390 . S
C1251 C1250 1.387 . S
C1251 C1253 1.387 . S
H1252 C1259 0.950 . S
C1253 C1251 1.387 . S
C1253 C1255 1.390 . S
C1253 H1257 0.950 . S
H1254 C1250 0.950 . S
C1255 C1253 1.390 . S
C1255 C1256 1.387 . S
C1255 H1258 0.950 . S
C1256 C1255 1.387 . S
C1256 C1259 1.387 . S
H1257 C1253 0.950 . S
H1258 C1255 0.950 . S
C1259 C1250 1.390 . S
C1259 H1252 0.950 . S
C1259 C1256 1.387 . S
C1260 C1261 1.387 . S
C1260 H1264 0.950 . S
C1260 C1269 1.390 . S
C1261 C1260 1.387 . S
C1261 C1263 1.387 . S
H1262 C1269 0.950 . S
C1263 C1261 1.387 . S
C1263 C1265 1.390 . S
C1263 H1267 0.950 . S
H1264 C1260 0.950 . S
C1265 C1263 1.390 . S
C1265 C1266 1.387 . S
C1265 H1268 0.950 . S
C1266 C1265 1.387 . S
C1266 C1269 1.387 . S
H1267 C1263 0.950 . S
H1268 C1265 0.950 . S
C1269 C1260 1.390 . S
C1269 H1262 0.950 . S
C1269 C1266 1.387 . S
C1270 C1271 1.387 . S
C1270 H1274 0.950 . S
C1270 C1279 1.390 . S
C1271 C1270 1.387 . S
C1271 C1273 1.387 . S
H1272 C1279 0.950 . S
C1273 C1271 1.387 . S
C1273 C1275 1.390 . S
C1273 H1277 0.950 . S
H1274 C1270 0.950 . S
C1275 C1273 1.390 . S
C1275 C1276 1.387 . S
C1275 H1278 0.950 . S
C1276 C1275 1.387 . S
C1276 C1279 1.387 . S
H1277 C1273 0.950 . S
H1278 C1275 0.950 . S
C1279 C1270 1.390 . S
C1279 H1272 0.950 . S
C1279 C1276 1.387 . S
C1280 C1281 1.387 . S
C1280 H1284 0.950 . S
C1280 C1289 1.390 . S
C1281 C1280 1.387 . S
C1281 C1283 1.387 . S
H1282 C1289 0.950 . S
C1283 C1281 1.387 . S
C1283 C1285 1.390 . S
C1283 H1287 0.950 . S
H1284 C1280 0.950 . S
C1285 C1283 1.390 . S
C1285 C1286 1.387 . S
C1285 H1288 0.950 . S
C1286 C1285 1.387 . S
C1286 C1289 1.387 . S
H1287 C1283 0.950 . S
H1288 C1285 0.950 . S
C1289 C1280 1.390 . S
C1289 H1282 0.950 . S
C1289 C1286 1.387 . S
C1290 C1291 1.387 . S
C1290 H1294 0.950 . S
C1290 C1299 1.390 . S
C1291 C1290 1.387 . S
C1291 C1293 1.387 . S
H1292 C1299 0.950 . S
C1293 C1291 1.387 . S
C1293 C1295 1.390 . S
C1293 H1297 0.950 . S
H1294 C1290 0.950 . S
C1295 C1293 1.390 . S
C1295 C1296 1.387 . S
C1295 H1298 0.950 . S
C1296 C1295 1.387 . S
C1296 C1299 1.387 . S
H1297 C1293 0.950 . S
H1298 C1295 0.950 . S
C1299 C1290 1.390 . S
C1299 H1292 0.950 . S
C1299 C1296 1.387 . S
C1300 C1301 1.387 . S
C1300 H1304 0.950 . S
C1300 C1309 1.390 . S
C1301 C1300 1.387 . S
C1301 C1303 1.387 . S
H1302 C1309 0.950 . S
C1303 C1301 1.387 . S
C1303 C1305 1.390 . S
C1303 H1307 0.950 . S
H1304 C1300 0.950 . S
C1305 C1303 1.390 . S
C1305 C1306 1.387 . S
C1305 H1308 0.950 . S
C1306 C1305 1.387 . S
C1306 C1309 1.387 . S
H1307 C1303 0.950 . S
H1308 C1305 0.950 . S
C1309 C1300 1.390 . S
C1309 H1302 0.950 . S
C1309 C1306 1.387 . S
C1310 C1311 1.387 . S
C1310 H1314 0.950 . S
C1310 C1319 1.390 . S
C1311 C1310 1.387 . S
C1311 C1313 1.387 . S
H1312 C1319 0.950 . S
C1313 C1311 1.387 . S
C1313 C1315 1.390 . S
C1313 H1317 0.950 . S
H1314 C1310 0.950 . S
C1315 C1313 1.390 . S
C1315 C1316 1.387 . S
C1315 H1318 0.950 . S
C1316 C1315 1.387 . S
C1316 C1319 1.387 . S
H1317 C1313 0.950 . S
H1318 C1315 0.950 . S
C1319 C1310 1.390 . S
C1319 H1312 0.950 . S
C1319 C1316 1.387 . S
C1320 C1321 1.387 . S
C1320 H1324 0.950 . S
C1320 C1329 1.390 . S
C1321 C1320 1.387 . S
C1321 C1323 1.387 . S
H1322 C1329 0.950 . S
C1323 C1321 1.387 . S
C1323 C1325 1.390 . S
C1323 H1327 0.950 . S
H1324 C1320 0.950 . S
C1325 C1323 1.390 . S
C1325 C1326 1.387 . S
C1325 H1328 0.950 . S
C1326 C1325 1.387 . S
C1326 C1329 1.387 . S
H1327 C1323 0.950 . S
H1328 C1325 0.950 . S
C1329 C1320 1.390 . S
C1329 H1322 0.950 . S
C1329 C1326 1.387 . S
C1330 C1331 1.387 . S
C1330 H1334 0.950 . S
C1330 C1339 1.390 . S
C1331 C1330 1.387 . S
C1331 C1333 1.387 . S
H1332 C1339 0.950 . S
C1333 C1331 1.387 . S
C1333 C1335 1.390 . S
C1333 H1337 0.950 . S
H1334 C1330 0.950 . S
C1335 C1333 1.390 . S
C1335 C1336 1.387 . S
C1335 H1338 0.950 . S
C1336 C1335 1.387 . S
C1336 C1339 1.387 . S
H1337 C1333 0.950 . S
H1338 C1335 0.950 . S
C1339 C1330 1.390 . S
C1339 H1332 0.950 . S
C1339 C1336 1.387 . S
C1340 C1341 1.387 . S
C1340 H1344 0.950 . S
C1340 C1349 1.390 . S
C1341 C1340 1.387 . S
C1341 C1343 1.387 . S
H1342 C1349 0.950 . S
C1343 C1341 1.387 . S
C1343 C1345 1.390 . S
C1343 H1347 0.950 . S
H1344 C1340 0.950 . S
C1345 C1343 1.390 . S
C1345 C1346 1.387 . S
C1345 H1348 0.950 . S
C1346 C1345 1.387 . S
C1346 C1349 1.387 . S
H1347 C1343 0.950 . S
H1348 C1345 0.950 . S
C1349 C1340 1.390 . S
C1349 H1342 0.950 . S
C1349 C1346 1.387 . S
C1350 C1351 1.387 . S
C1350 H1354 0.950 . S
C1350 C1359 1.390 . S
C1351 C1350 1.387 . S
C1351 C1353 1.387 1_554 S
H1352 C1359 0.950 . S
C1353 C1351 1.387 1_556 S
C1353 C1355 1.390 . S
C1353 H1357 0.950 . S
H1354 C1350 0.950 . S
C1355 C1353 1.390 . S
C1355 C1356 1.387 1_556 S
C1355 H1358 0.950 . S
C1356 C1355 1.387 1_554 S
C1356 C1359 1.387 . S
H1357 C1353 0.950 . S
H1358 C1355 0.950 . S
C1359 C1350 1.390 . S
C1359 H1352 0.950 . S
C1359 C1356 1.387 . S
C1360 C1361 1.387 . S
C1360 H1364 0.950 . S
C1360 C1369 1.390 . S
C1361 C1360 1.387 . S
C1361 C1363 1.387 . S
H1362 C1369 0.950 . S
C1363 C1361 1.387 . S
C1363 C1365 1.390 . S
C1363 H1367 0.950 . S
H1364 C1360 0.950 . S
C1365 C1363 1.390 . S
C1365 C1366 1.387 . S
C1365 H1368 0.950 . S
C1366 C1365 1.387 . S
C1366 C1369 1.387 . S
H1367 C1363 0.950 . S
H1368 C1365 0.950 . S
C1369 C1360 1.390 . S
C1369 H1362 0.950 . S
C1369 C1366 1.387 . S
C1370 C1371 1.387 . S
C1370 H1374 0.950 . S
C1370 C1379 1.390 . S
C1371 C1370 1.387 . S
C1371 C1373 1.387 1_554 S
H1372 C1379 0.950 . S
C1373 C1371 1.387 1_556 S
C1373 C1375 1.390 . S
C1373 H1377 0.950 . S
H1374 C1370 0.950 . S
C1375 C1373 1.390 . S
C1375 C1376 1.387 . S
C1375 H1378 0.950 . S
C1376 C1375 1.387 . S
C1376 C1379 1.387 1_556 S
H1377 C1373 0.950 . S
H1378 C1375 0.950 . S
C1379 C1370 1.390 . S
C1379 H1372 0.950 . S
C1379 C1376 1.387 1_554 S
C1380 C1381 1.387 . S
C1380 H1384 0.950 . S
C1380 C1389 1.390 . S
C1381 C1380 1.387 . S
C1381 C1383 1.387 . S
H1382 C1389 0.950 . S
C1383 C1381 1.387 . S
C1383 C1385 1.390 . S
C1383 H1387 0.950 . S
H1384 C1380 0.950 . S
C1385 C1383 1.390 . S
C1385 C1386 1.387 . S
C1385 H1388 0.950 . S
C1386 C1385 1.387 . S
C1386 C1389 1.387 . S
H1387 C1383 0.950 . S
H1388 C1385 0.950 . S
C1389 C1380 1.390 . S
C1389 H1382 0.950 . S
C1389 C1386 1.387 . S
C1390 C1391 1.387 . S
C1390 H1394 0.950 . S
C1390 C1399 1.390 . S
C1391 C1390 1.387 . S
C1391 C1393 1.387 . S
H1392 C1399 0.950 . S
C1393 C1391 1.387 . S
C1393 C1395 1.390 . S
C1393 H1397 0.950 . S
H1394 C1390 0.950 . S
C1395 C1393 1.390 . S
C1395 C1396 1.387 . S
C1395 H1398 0.950 . S
C1396 C1395 1.387 . S
C1396 C1399 1.387 . S
H1397 C1393 0.950 . S
H1398 C1395 0.950 . S
C1399 C1390 1.390 . S
C1399 H1392 0.950 . S
C1399 C1396 1.387 . S
C1400 C1401 1.387 . S
C1400 H1404 0.950 . S
C1400 C1409 1.390 . S
C1401 C1400 1.387 . S
C1401 C1403 1.387 . S
H1402 C1409 0.950 . S
C1403 C1401 1.387 . S
C1403 C1405 1.390 . S
C1403 H1407 0.950 . S
H1404 C1400 0.950 . S
C1405 C1403 1.390 . S
C1405 C1406 1.387 . S
C1405 H1408 0.950 . S
C1406 C1405 1.387 . S
C1406 C1409 1.387 . S
H1407 C1403 0.950 . S
H1408 C1405 0.950 . S
C1409 C1400 1.390 . S
C1409 H1402 0.950 . S
C1409 C1406 1.387 . S
C1410 C1411 1.387 . S
C1410 H1414 0.950 . S
C1410 C1419 1.390 . S
C1411 C1410 1.387 . S
C1411 C1413 1.387 . S
H1412 C1419 0.950 . S
C1413 C1411 1.387 . S
C1413 C1415 1.390 . S
C1413 H1417 0.950 . S
H1414 C1410 0.950 . S
C1415 C1413 1.390 . S
C1415 C1416 1.387 . S
C1415 H1418 0.950 . S
C1416 C1415 1.387 . S
C1416 C1419 1.387 . S
H1417 C1413 0.950 . S
H1418 C1415 0.950 . S
C1419 C1410 1.390 . S
C1419 H1412 0.950 . S
C1419 C1416 1.387 . S
C1420 C1421 1.387 1_455 S
C1420 H1424 0.950 . S
C1420 C1429 1.388 1_455 S
C1421 C1420 1.387 1_655 S
C1421 C1423 1.387 . S
H1422 C1429 0.947 1_454 S
C1423 C1421 1.387 . S
C1423 C1425 1.390 . S
C1423 H1427 0.950 . S
H1424 C1420 0.950 . S
C1425 C1423 1.390 . S
C1425 C1426 1.387 . S
C1425 H1428 0.950 . S
C1426 C1425 1.387 . S
C1426 C1429 1.392 . S
H1427 C1423 0.950 . S
H1428 C1425 0.950 . S
C1429 C1420 1.388 1_655 S
C1429 H1422 0.947 1_656 S
C1429 C1426 1.392 . S
C1430 C1431 1.387 . S
C1430 H1434 0.950 . S
C1430 C1439 1.390 . S
C1431 C1430 1.387 . S
C1431 C1433 1.387 . S
H1432 C1439 0.950 . S
C1433 C1431 1.387 . S
C1433 C1435 1.390 . S
C1433 H1437 0.950 . S
H1434 C1430 0.950 . S
C1435 C1433 1.390 . S
C1435 C1436 1.387 . S
C1435 H1438 0.950 . S
C1436 C1435 1.387 . S
C1436 C1439 1.387 . S
H1437 C1433 0.950 . S
H1438 C1435 0.950 . S
C1439 C1430 1.390 . S
C1439 H1432 0.950 . S
C1439 C1436 1.387 . S
C1440 C1441 1.387 . S
C1440 H1444 0.950 . S
C1440 C1449 1.390 . S
C1441 C1440 1.387 . S
C1441 C1443 1.387 . S
H1442 C1449 0.950 . S
C1443 C1441 1.387 . S
C1443 C1445 1.390 . S
C1443 H1447 0.950 . S
H1444 C1440 0.950 . S
C1445 C1443 1.390 . S
C1445 C1446 1.387 . S
C1445 H1448 0.950 . S
C1446 C1445 1.387 . S
C1446 C1449 1.387 . S
H1447 C1443 0.950 . S
H1448 C1445 0.950 . S
C1449 C1440 1.390 . S
C1449 H1442 0.950 . S
C1449 C1446 1.387 . S
C1450 C1451 1.387 . S
C1450 H1454 0.950 . S
C1450 C1459 1.390 . S
C1451 C1450 1.387 . S
C1451 C1453 1.387 . S
H1452 C1459 0.950 . S
C1453 C1451 1.387 . S
C1453 C1455 1.390 . S
C1453 H1457 0.950 . S
H1454 C1450 0.950 . S
C1455 C1453 1.390 . S
C1455 C1456 1.387 . S
C1455 H1458 0.950 . S
C1456 C1455 1.387 . S
C1456 C1459 1.387 . S
H1457 C1453 0.950 . S
H1458 C1455 0.950 . S
C1459 C1450 1.390 . S
C1459 H1452 0.950 . S
C1459 C1456 1.387 . S
C1460 C1461 1.387 1_655 S
C1460 H1464 0.950 . S
C1460 C1469 1.390 . S
C1461 C1460 1.387 1_455 S
C1461 C1463 1.387 . S
H1462 C1469 0.950 . S
C1463 C1461 1.387 . S
C1463 C1465 1.390 . S
C1463 H1467 0.950 . S
H1464 C1460 0.950 . S
C1465 C1463 1.390 . S
C1465 C1466 1.387 1_455 S
C1465 H1468 0.950 . S
C1466 C1465 1.387 1_655 S
C1466 C1469 1.387 . S
H1467 C1463 0.950 . S
H1468 C1465 0.950 . S
C1469 C1460 1.390 . S
C1469 H1462 0.950 . S
C1469 C1466 1.387 . S
C1470 C1471 1.387 . S
C1470 H1474 0.950 . S
C1470 C1479 1.390 . S
C1471 C1470 1.387 . S
C1471 C1473 1.387 . S
H1472 C1479 0.950 . S
C1473 C1471 1.387 . S
C1473 C1475 1.390 . S
C1473 H1477 0.950 . S
H1474 C1470 0.950 . S
C1475 C1473 1.390 . S
C1475 C1476 1.387 . S
C1475 H1478 0.950 . S
C1476 C1475 1.387 . S
C1476 C1479 1.387 . S
H1477 C1473 0.950 . S
H1478 C1475 0.950 . S
C1479 C1470 1.390 . S
C1479 H1472 0.950 . S
C1479 C1476 1.387 . S
C1480 C1481 1.387 . S
C1480 H1484 0.950 . S
C1480 C1489 1.390 . S
C1481 C1480 1.387 . S
C1481 C1483 1.387 . S
H1482 C1489 0.950 . S
C1483 C1481 1.387 . S
C1483 C1485 1.390 . S
C1483 H1487 0.950 . S
H1484 C1480 0.950 . S
C1485 C1483 1.390 . S
C1485 C1486 1.387 . S
C1485 H1488 0.950 . S
C1486 C1485 1.387 . S
C1486 C1489 1.387 . S
H1487 C1483 0.950 . S
H1488 C1485 0.950 . S
C1489 C1480 1.390 . S
C1489 H1482 0.950 . S
C1489 C1486 1.387 . S
C1490 C1491 1.387 . S
C1490 H1494 0.950 . S
C1490 C1499 1.390 . S
C1491 C1490 1.387 . S
C1491 C1493 1.387 . S
H1492 C1499 0.950 . S
C1493 C1491 1.387 . S
C1493 C1495 1.390 . S
C1493 H1497 0.950 . S
H1494 C1490 0.950 . S
C1495 C1493 1.390 . S
C1495 C1496 1.387 . S
C1495 H1498 0.950 . S
C1496 C1495 1.387 . S
C1496 C1499 1.387 . S
H1497 C1493 0.950 . S
H1498 C1495 0.950 . S
C1499 C1490 1.390 . S
C1499 H1492 0.950 . S
C1499 C1496 1.387 . S
C1500 C1501 1.387 . S
C1500 H1504 0.950 . S
C1500 C1509 1.390 . S
C1501 C1500 1.387 . S
C1501 C1503 1.387 . S
H1502 C1509 0.950 . S
C1503 C1501 1.387 . S
C1503 C1505 1.390 . S
C1503 H1507 0.950 . S
H1504 C1500 0.950 . S
C1505 C1503 1.390 . S
C1505 C1506 1.387 . S
C1505 H1508 0.950 . S
C1506 C1505 1.387 . S
C1506 C1509 1.387 . S
H1507 C1503 0.950 . S
H1508 C1505 0.950 . S
C1509 C1500 1.390 . S
C1509 H1502 0.950 . S
C1509 C1506 1.387 . S
C1510 C1511 1.387 . S
C1510 H1514 0.950 . S
C1510 C1519 1.390 . S
C1511 C1510 1.387 . S
C1511 C1513 1.387 . S
H1512 C1519 0.950 . S
C1513 C1511 1.387 . S
C1513 C1515 1.390 . S
C1513 H1517 0.950 . S
H1514 C1510 0.950 . S
C1515 C1513 1.390 . S
C1515 C1516 1.387 . S
C1515 H1518 0.950 . S
C1516 C1515 1.387 . S
C1516 C1519 1.387 . S
H1517 C1513 0.950 . S
H1518 C1515 0.950 . S
C1519 C1510 1.390 . S
C1519 H1512 0.950 . S
C1519 C1516 1.387 . S
C1520 C1521 1.387 . S
C1520 H1524 0.950 . S
C1520 C1529 1.390 . S
C1521 C1520 1.387 . S
C1521 C1523 1.387 . S
H1522 C1529 0.950 . S
C1523 C1521 1.387 . S
C1523 C1525 1.390 . S
C1523 H1527 0.950 . S
H1524 C1520 0.950 . S
C1525 C1523 1.390 . S
C1525 C1526 1.387 . S
C1525 H1528 0.950 . S
C1526 C1525 1.387 . S
C1526 C1529 1.387 . S
H1527 C1523 0.950 . S
H1528 C1525 0.950 . S
C1529 C1520 1.390 . S
C1529 H1522 0.950 . S
C1529 C1526 1.387 . S
C1530 C1531 1.387 . S
C1530 H1534 0.950 . S
C1530 C1539 1.390 . S
C1531 C1530 1.387 . S
C1531 C1533 1.387 . S
H1532 C1539 0.950 . S
C1533 C1531 1.387 . S
C1533 C1535 1.390 . S
C1533 H1537 0.950 . S
H1534 C1530 0.950 . S
C1535 C1533 1.390 . S
C1535 C1536 1.387 . S
C1535 H1538 0.950 . S
C1536 C1535 1.387 . S
C1536 C1539 1.387 . S
H1537 C1533 0.950 . S
H1538 C1535 0.950 . S
C1539 C1530 1.390 . S
C1539 H1532 0.950 . S
C1539 C1536 1.387 . S
C1540 C1541 1.387 . S
C1540 H1544 0.950 . S
C1540 C1549 1.390 . S
C1541 C1540 1.387 . S
C1541 C1543 1.387 . S
H1542 C1549 0.950 . S
C1543 C1541 1.387 . S
C1543 C1545 1.390 . S
C1543 H1547 0.950 . S
H1544 C1540 0.950 . S
C1545 C1543 1.390 . S
C1545 C1546 1.387 . S
C1545 H1548 0.950 . S
C1546 C1545 1.387 . S
C1546 C1549 1.387 . S
H1547 C1543 0.950 . S
H1548 C1545 0.950 . S
C1549 C1540 1.390 . S
C1549 H1542 0.950 . S
C1549 C1546 1.387 . S
C1550 C1551 1.387 . S
C1550 H1554 0.950 . S
C1550 C1559 1.390 . S
C1551 C1550 1.387 . S
C1551 C1553 1.387 . S
H1552 C1559 0.950 . S
C1553 C1551 1.387 . S
C1553 C1555 1.390 . S
C1553 H1557 0.950 . S
H1554 C1550 0.950 . S
C1555 C1553 1.390 . S
C1555 C1556 1.387 . S
C1555 H1558 0.950 . S
C1556 C1555 1.387 . S
C1556 C1559 1.387 . S
H1557 C1553 0.950 . S
H1558 C1555 0.950 . S
C1559 C1550 1.390 . S
C1559 H1552 0.950 . S
C1559 C1556 1.387 . S
C1560 C1561 1.387 . S
C1560 H1564 0.950 . S
C1560 C1569 1.390 . S
C1561 C1560 1.387 . S
C1561 C1563 1.387 . S
H1562 C1569 0.950 . S
C1563 C1561 1.387 . S
C1563 C1565 1.390 . S
C1563 H1567 0.950 . S
H1564 C1560 0.950 . S
C1565 C1563 1.390 . S
C1565 C1566 1.387 . S
C1565 H1568 0.950 . S
C1566 C1565 1.387 . S
C1566 C1569 1.387 . S
H1567 C1563 0.950 . S
H1568 C1565 0.950 . S
C1569 C1560 1.390 . S
C1569 H1562 0.950 . S
C1569 C1566 1.387 . S
C1570 C1571 1.387 . S
C1570 H1574 0.950 . S
C1570 C1579 1.390 . S
C1571 C1570 1.387 . S
C1571 C1573 1.387 . S
H1572 C1579 0.950 . S
C1573 C1571 1.387 . S
C1573 C1575 1.390 . S
C1573 H1577 0.950 . S
H1574 C1570 0.950 . S
C1575 C1573 1.390 . S
C1575 C1576 1.387 . S
C1575 H1578 0.950 . S
C1576 C1575 1.387 . S
C1576 C1579 1.387 . S
H1577 C1573 0.950 . S
H1578 C1575 0.950 . S
C1579 C1570 1.390 . S
C1579 H1572 0.950 . S
C1579 C1576 1.387 . S
C1580 C1581 1.387 . S
C1580 H1584 0.950 . S
C1580 C1589 1.390 . S
C1581 C1580 1.387 . S
C1581 C1583 1.387 . S
H1582 C1589 0.950 . S
C1583 C1581 1.387 . S
C1583 C1585 1.390 . S
C1583 H1587 0.950 . S
H1584 C1580 0.950 . S
C1585 C1583 1.390 . S
C1585 C1586 1.387 . S
C1585 H1588 0.950 . S
C1586 C1585 1.387 . S
C1586 C1589 1.387 . S
H1587 C1583 0.950 . S
H1588 C1585 0.950 . S
C1589 C1580 1.390 . S
C1589 H1582 0.950 . S
C1589 C1586 1.387 . S
C1590 C1591 1.387 . S
C1590 H1594 0.950 . S
C1590 C1599 1.390 . S
C1591 C1590 1.387 . S
C1591 C1593 1.387 1_556 S
H1592 C1599 0.950 . S
C1593 C1591 1.387 1_554 S
C1593 C1595 1.390 . S
C1593 H1597 0.950 . S
H1594 C1590 0.950 . S
C1595 C1593 1.390 . S
C1595 C1596 1.387 1_554 S
C1595 H1598 0.950 . S
C1596 C1595 1.387 1_556 S
C1596 C1599 1.387 . S
H1597 C1593 0.950 . S
H1598 C1595 0.950 . S
C1599 C1590 1.390 . S
C1599 H1592 0.950 . S
C1599 C1596 1.387 . S
C1600 C1601 1.387 . S
C1600 H1604 0.950 . S
C1600 C1609 1.390 . S
C1601 C1600 1.387 . S
C1601 C1603 1.387 . S
H1602 C1609 0.950 . S
C1603 C1601 1.387 . S
C1603 C1605 1.390 . S
C1603 H1607 0.950 . S
H1604 C1600 0.950 . S
C1605 C1603 1.390 . S
C1605 C1606 1.387 . S
C1605 H1608 0.950 . S
C1606 C1605 1.387 . S
C1606 C1609 1.387 . S
H1607 C1603 0.950 . S
H1608 C1605 0.950 . S
C1609 C1600 1.390 . S
C1609 H1602 0.950 . S
C1609 C1606 1.387 . S
C1610 C1611 1.387 . S
C1610 H1614 0.950 . S
C1610 C1619 1.390 . S
C1611 C1610 1.387 . S
C1611 C1613 1.387 1_554 S
H1612 C1619 0.950 . S
C1613 C1611 1.387 1_556 S
C1613 C1615 1.390 1_556 S
C1613 H1617 0.950 . S
H1614 C1610 0.950 . S
C1615 C1613 1.390 1_554 S
C1615 C1616 1.387 . S
C1615 H1618 0.950 1_554 S
C1616 C1615 1.387 . S
C1616 C1619 1.387 . S
H1617 C1613 0.950 . S
H1618 C1615 0.950 1_556 S
C1619 C1610 1.390 . S
C1619 H1612 0.950 . S
C1619 C1616 1.387 . S
C1620 C1621 1.387 . S
C1620 H1624 0.950 . S
C1620 C1629 1.390 . S
C1621 C1620 1.387 . S
C1621 C1623 1.387 . S
H1622 C1629 0.950 . S
C1623 C1621 1.387 . S
C1623 C1625 1.390 . S
C1623 H1627 0.950 . S
H1624 C1620 0.950 . S
C1625 C1623 1.390 . S
C1625 C1626 1.387 . S
C1625 H1628 0.950 . S
C1626 C1625 1.387 . S
C1626 C1629 1.387 . S
H1627 C1623 0.950 . S
H1628 C1625 0.950 . S
C1629 C1620 1.390 . S
C1629 H1622 0.950 . S
C1629 C1626 1.387 . S
C1630 C1631 1.387 . S
C1630 H1634 0.950 . S
C1630 C1639 1.390 . S
C1631 C1630 1.387 . S
C1631 C1633 1.387 . S
H1632 C1639 0.950 . S
C1633 C1631 1.387 . S
C1633 C1635 1.390 . S
C1633 H1637 0.950 . S
H1634 C1630 0.950 . S
C1635 C1633 1.390 . S
C1635 C1636 1.387 . S
C1635 H1638 0.950 . S
C1636 C1635 1.387 . S
C1636 C1639 1.387 . S
H1637 C1633 0.950 . S
H1638 C1635 0.950 . S
C1639 C1630 1.390 . S
C1639 H1632 0.950 . S
C1639 C1636 1.387 . S
C686 C328 1.231 . S
C681 C10 1.262 . S
C691 C13 1.367 . S
C696 C356 1.305 . S
C701 C34 1.199 . S
C706 C374 1.235 . S
C716 C400 1.303 . S
C711 C44 1.485 . S
C721 C21 1.462 . S
C726 C423 1.353 . S
C736 C443 1.154 . S
C731 C26 1.124 . S
C746 C471 1.380 . S
C741 C49 1.493 . S
C751 C5 1.205 . S
C756 C489 1.189 . S
C761 C62 1.351 . S
C766 C330 1.364 1_545 S
C771 C73 1.129 . S
C776 C352 1.143 . S
C786 C376 1.389 . S
C781 C88 1.369 1_545 S
C796 C397 1.170 . S
C791 C99 1.160 . S
C801 C60 1.175 . S
C806 C420 1.183 . S
C816 C445 1.371 . S
C811 C75 1.353 . S
C826 C467 1.145 . S
C821 C86 1.132 . S
C836 C491 1.374 . S
C831 C101 1.357 . S
C846 C331 1.037 1_556 S
C841 C96 1.164 . S
C856 C514 1.216 . S
C851 C104 1.158 . S
C861 C122 1.150 . S
C866 C538 1.017 . S
C876 C562 1.175 . S
C871 C130 1.145 . S
C881 C57 1.130 . S
C886 C492 0.998 . S
C896 C377 1.064 . S
C891 C70 1.186 . S
C901 C117 1.105 . S
C906 C583 1.151 . S
C916 C608 1.115 . S
C911 C143 1.093 . S
C921 C164 1.307 1_455 S
C926 C329 1.289 . S
C936 C606 1.196 . S
C931 C169 1.178 . S
C941 C192 1.307 . S
C946 C375 1.286 . S
C951 C200 1.152 . S
C956 C585 1.149 . S
C966 C424 1.186 . S
C961 C179 1.254 . S
C976 C536 1.201 . S
C971 C182 1.220 . S
C986 C468 1.293 . S
C981 C203 1.277 . S
C996 C628 1.247 . S
C991 C161 1.242 . S
C1006 C333 1.112 . S
C1001 C216 1.232 . S
C1011 C231 1.433 . S
C1016 C604 1.397 . S
C1026 C379 1.128 . S
C1021 C242 1.254 1_565 S
C1031 C257 1.421 . S
C1036 C582 1.379 . S
C1041 C218 1.443 . S
C1046 C421 1.399 . S
C1051 C229 1.239 . S
C1056 C540 1.119 . S
C1066 C466 1.390 . S
C1061 C244 1.427 . S
C1071 C255 1.230 . S
C1076 C632 1.115 . S
C1081 C252 1.380 . S
C1086 C332 1.368 . S
C1091 C260 1.400 1_556 S
C1096 C517 1.271 . S
C1101 C278 1.350 . S
C1106 C447 1.331 . S
C1111 C286 1.378 . S
C1116 C561 1.224 . S
C1126 C631 1.312 . S
C1121 C213 1.327 . S
C1136 C378 1.388 . S
C1131 C226 1.403 . S
C1146 C402 1.210 . S
C1141 C273 1.334 . S
C1156 C354 1.180 . S
C1151 C299 1.348 . S
C1161 C36 1.260 . S
C1166 C650 1.227 . S
C1176 C609 1.306 . S
C1171 C39 1.367 . S
C1186 C673 1.232 . S
C1181 C8 1.196 . S
C1191 C18 1.484 . S
C1196 C584 1.308 . S
C1201 C47 1.463 . S
C1206 C515 1.352 . S
C1216 C535 1.156 . S
C1211 C0 1.124 . S
C1226 C563 1.379 . S
C1221 C23 1.493 . S
C1236 C627 1.187 . S
C1231 C31 1.207 . S
C1246 C652 1.371 . S
C1241 C153 1.353 . S
C1251 C112 1.129 . S
C1256 C605 1.143 . S
C1261 C127 1.372 . S
C1266 C675 1.390 . S
C1276 C581 1.173 . S
C1271 C138 1.163 . S
C1286 C512 1.184 . S
C1281 C151 1.175 . S
C1291 C114 1.352 . S
C1296 C537 1.370 . S
C1306 C559 1.144 . S
C1301 C125 1.134 . S
C1311 C140 1.357 . S
C1316 C629 1.375 . S
C1326 C653 1.046 . S
C1321 C135 1.164 . S
C1336 C422 1.216 . S
C1331 C65 1.158 . S
C1346 C446 1.011 . S
C1341 C83 1.152 . S
C1351 C91 1.143 . S
C1356 C470 1.176 . S
C1366 C630 0.997 . S
C1361 C148 1.130 . S
C1371 C109 1.188 . S
C1376 C676 1.058 1_556 S
C1386 C399 1.151 . S
C1381 C78 1.100 . S
C1396 C355 1.114 . S
C1391 C52 1.093 . S
C1401 C190 1.311 . S
C1406 C651 1.287 . S
C1416 C353 1.198 . S
C1411 C195 1.182 . S
C1426 C674 1.286 . S
C1421 C166 1.307 1_655 S
C1431 C174 1.155 . S
C1436 C401 1.151 . S
C1441 C205 1.253 . S
C1446 C516 1.185 . S
C1451 C156 1.222 . S
C1456 C444 1.201 . S
C1461 C177 1.278 . S
C1466 C560 1.293 . S
C1471 C187 1.243 . S
C1476 C490 1.246 . S
C1486 C655 1.109 . S
C1481 C307 1.232 . S
C1491 C270 1.435 . S
C1496 C351 1.400 . S
C1506 C678 1.127 . S
C1501 C281 1.254 . S
C1511 C296 1.421 . S
C1516 C398 1.379 . S
C1521 C309 1.444 . S
C1526 C513 1.401 . S
C1536 C448 1.119 . S
C1531 C268 1.238 . S
C1541 C283 1.427 . S
C1546 C558 1.389 . S
C1556 C494 1.109 . S
C1551 C294 1.231 . S
C1566 C654 1.368 . S
C1561 C291 1.380 . S
C1576 C425 1.270 . S
C1571 C221 1.401 . S
C1581 C239 1.349 . S
C1586 C539 1.331 . S
C1596 C469 1.224 . S
C1591 C247 1.380 1_556 S
C1606 C493 1.313 . S
C1601 C304 1.328 . S
C1611 C265 1.403 . S
C1616 C677 1.388 . S
C1626 C586 1.214 . S
C1621 C234 1.335 . S
C1636 C607 1.180 . S
C1631 C208 1.346 . S
