# Generated by pormake.
# Topology ssb, (4,4)-cn, num edge types: 1
# Building blocks:
#     Node 0, Type 0, BuildingBlock: NAWXER_clean_sbu_0, # of connection points: 4
#     Node 1, Type 0, BuildingBlock: NAWXER_clean_sbu_0, # of connection points: 4
#     Node 2, Type 0, BuildingBlock: NAWXER_clean_sbu_0, # of connection points: 4
#     Node 3, Type 0, BuildingBlock: NAWXER_clean_sbu_0, # of connection points: 4
#     Node 4, Type 0, BuildingBlock: NAWXER_clean_sbu_0, # of connection points: 4
#     Node 5, Type 0, BuildingBlock: NAWXER_clean_sbu_0, # of connection points: 4
#     Node 6, Type 0, BuildingBlock: NAWXER_clean_sbu_0, # of connection points: 4
#     Node 7, Type 0, BuildingBlock: NAWXER_clean_sbu_0, # of connection points: 4
#     Node 8, Type 1, BuildingBlock: KOZSID_clean_sbu_0, # of connection points: 4
#     Node 9, Type 1, BuildingBlock: KOZSID_clean_sbu_0, # of connection points: 4
#     Node 10, Type 1, BuildingBlock: KOZSID_clean_sbu_0, # of connection points: 4
#     Node 11, Type 1, BuildingBlock: KOZSID_clean_sbu_0, # of connection points: 4
#     Node 12, Type 1, BuildingBlock: KOZSID_clean_sbu_0, # of connection points: 4
#     Node 13, Type 1, BuildingBlock: KOZSID_clean_sbu_0, # of connection points: 4
#     Node 14, Type 1, BuildingBlock: KOZSID_clean_sbu_0, # of connection points: 4
#     Node 15, Type 1, BuildingBlock: KOZSID_clean_sbu_0, # of connection points: 4
#     Edge 16, Type (0, 1), BuildingBlock: KIFKEQ_clean_linker_1, # of connection points: 2
#     Edge 17, Type (0, 1), BuildingBlock: KIFKEQ_clean_linker_1, # of connection points: 2
#     Edge 18, Type (0, 1), BuildingBlock: KIFKEQ_clean_linker_1, # of connection points: 2
#     Edge 19, Type (0, 1), BuildingBlock: KIFKEQ_clean_linker_1, # of connection points: 2
#     Edge 20, Type (0, 1), BuildingBlock: KIFKEQ_clean_linker_1, # of connection points: 2
#     Edge 21, Type (0, 1), BuildingBlock: KIFKEQ_clean_linker_1, # of connection points: 2
#     Edge 22, Type (0, 1), BuildingBlock: KIFKEQ_clean_linker_1, # of connection points: 2
#     Edge 23, Type (0, 1), BuildingBlock: KIFKEQ_clean_linker_1, # of connection points: 2
#     Edge 24, Type (0, 1), BuildingBlock: KIFKEQ_clean_linker_1, # of connection points: 2
#     Edge 25, Type (0, 1), BuildingBlock: KIFKEQ_clean_linker_1, # of connection points: 2
#     Edge 26, Type (0, 1), BuildingBlock: KIFKEQ_clean_linker_1, # of connection points: 2
#     Edge 27, Type (0, 1), BuildingBlock: KIFKEQ_clean_linker_1, # of connection points: 2
#     Edge 28, Type (0, 1), BuildingBlock: KIFKEQ_clean_linker_1, # of connection points: 2
#     Edge 29, Type (0, 1), BuildingBlock: KIFKEQ_clean_linker_1, # of connection points: 2
#     Edge 30, Type (0, 1), BuildingBlock: KIFKEQ_clean_linker_1, # of connection points: 2
#     Edge 31, Type (0, 1), BuildingBlock: KIFKEQ_clean_linker_1, # of connection points: 2
#     Edge 32, Type (0, 1), BuildingBlock: KIFKEQ_clean_linker_1, # of connection points: 2
#     Edge 33, Type (0, 1), BuildingBlock: KIFKEQ_clean_linker_1, # of connection points: 2
#     Edge 34, Type (0, 1), BuildingBlock: KIFKEQ_clean_linker_1, # of connection points: 2
#     Edge 35, Type (0, 1), BuildingBlock: KIFKEQ_clean_linker_1, # of connection points: 2
#     Edge 36, Type (0, 1), BuildingBlock: KIFKEQ_clean_linker_1, # of connection points: 2
#     Edge 37, Type (0, 1), BuildingBlock: KIFKEQ_clean_linker_1, # of connection points: 2
#     Edge 38, Type (0, 1), BuildingBlock: KIFKEQ_clean_linker_1, # of connection points: 2
#     Edge 39, Type (0, 1), BuildingBlock: KIFKEQ_clean_linker_1, # of connection points: 2
#     Edge 40, Type (0, 1), BuildingBlock: KIFKEQ_clean_linker_1, # of connection points: 2
#     Edge 41, Type (0, 1), BuildingBlock: KIFKEQ_clean_linker_1, # of connection points: 2
#     Edge 42, Type (0, 1), BuildingBlock: KIFKEQ_clean_linker_1, # of connection points: 2
#     Edge 43, Type (0, 1), BuildingBlock: KIFKEQ_clean_linker_1, # of connection points: 2
#     Edge 44, Type (0, 1), BuildingBlock: KIFKEQ_clean_linker_1, # of connection points: 2
#     Edge 45, Type (0, 1), BuildingBlock: KIFKEQ_clean_linker_1, # of connection points: 2
#     Edge 46, Type (0, 1), BuildingBlock: KIFKEQ_clean_linker_1, # of connection points: 2
#     Edge 47, Type (0, 1), BuildingBlock: KIFKEQ_clean_linker_1, # of connection points: 2
# Relax obj value: 0.005
# Max RMSD: 0.029
# Mean RMSD: 0.016
data_MOF--net-ssb--node1-NAWXER_clean_sbu_0--node2-KOZSID_clean_sbu_0--edge1-KIFKEQ_clean_linker_1
_symmetry_space_group_name_H-M    P1
_symmetry_Int_Tables_number       1
_symmetry_cell_setting            triclinic
loop_
_symmetry_equiv_pos_as_xyz
'x, y, z'
_cell_length_a     53.82441
_cell_length_b     53.628745
_cell_length_c     39.248535
_cell_angle_alpha  92.460919
_cell_angle_beta   94.927616
_cell_angle_gamma 90.005853
loop_
_atom_site_label
_atom_site_type_symbol
_atom_site_fract_x
_atom_site_fract_y
_atom_site_fract_z
_atom_type_partial_charge
C0 C 0.23081 0.27013 0.32029 0.0
C1 C 0.30564 0.25307 0.25816 0.0
O2 O 0.22681 0.25713 0.29217 0.0
Zn3 Zn 0.24673 0.24109 0.25181 0.0
O4 O 0.25289 0.27768 0.32978 0.0
Zn5 Zn 0.26916 0.26229 0.29119 0.0
O6 O 0.25435 0.28388 0.24896 0.0
O7 O 0.23238 0.25929 0.2114 0.0
O8 O 0.30529 0.26497 0.28692 0.0
O9 O 0.28531 0.24358 0.24383 0.0
O10 O 0.24197 0.20473 0.25937 0.0
O11 O 0.26468 0.22375 0.30191 0.0
C12 C 0.24109 0.28098 0.22028 0.0
C13 C 0.254 0.20381 0.28877 0.0
C14 C 0.72653 0.25423 0.23065 0.0
C15 C 0.80707 0.26947 0.29802 0.0
O16 O 0.72503 0.26564 0.25975 0.0
Zn17 Zn 0.74851 0.27949 0.30296 0.0
O18 O 0.74786 0.24777 0.22156 0.0
Zn19 Zn 0.76768 0.26158 0.26227 0.0
O20 O 0.75798 0.23798 0.30148 0.0
O21 O 0.73744 0.25975 0.3391 0.0
O22 O 0.80426 0.2601 0.26755 0.0
O23 O 0.78797 0.27709 0.31276 0.0
O24 O 0.74256 0.31537 0.30228 0.0
O25 O 0.76066 0.30013 0.25746 0.0
C26 C 0.74681 0.2392 0.32905 0.0
C27 C 0.7511 0.31852 0.27353 0.0
C28 C 0.76471 0.73164 0.22004 0.0
C29 C 0.75477 0.80976 0.29449 0.0
O30 O 0.75357 0.72939 0.2473 0.0
Zn31 Zn 0.7413 0.7508 0.28984 0.0
O32 O 0.77214 0.75333 0.21304 0.0
Zn33 Zn 0.76008 0.77231 0.25373 0.0
O34 O 0.78368 0.75681 0.29353 0.0
O35 O 0.76188 0.73574 0.32777 0.0
O36 O 0.76458 0.80884 0.26597 0.0
O37 O 0.74558 0.78963 0.30479 0.0
O38 O 0.70486 0.74614 0.28063 0.0
O39 O 0.72086 0.76865 0.24218 0.0
C40 C 0.78292 0.74357 0.3198 0.0
C41 C 0.70191 0.75824 0.25332 0.0
C42 C 0.22356 0.7203 0.18894 0.0
C43 C 0.24105 0.80064 0.24723 0.0
O44 O 0.21714 0.74153 0.17811 0.0
Zn45 Zn 0.2327 0.76083 0.21685 0.0
O46 O 0.23716 0.71863 0.21717 0.0
Zn47 Zn 0.25476 0.74293 0.25644 0.0
O48 O 0.23976 0.73221 0.29669 0.0
O49 O 0.21277 0.74879 0.2586 0.0
O50 O 0.25215 0.78259 0.26253 0.0
O51 O 0.22731 0.79641 0.21961 0.0
O52 O 0.27161 0.75756 0.20896 0.0
O53 O 0.28995 0.73713 0.25175 0.0
C54 C 0.21747 0.73839 0.28728 0.0
C55 C 0.29129 0.74795 0.22377 0.0
C56 C 0.30866 0.76199 0.76492 0.0
C57 C 0.22761 0.74654 0.69757 0.0
O58 O 0.29011 0.77347 0.7767 0.0
Zn59 Zn 0.25083 0.7778 0.76488 0.0
O60 O 0.30525 0.74921 0.73676 0.0
Zn61 Zn 0.26914 0.75474 0.72815 0.0
O62 O 0.26628 0.79329 0.71509 0.0
O63 O 0.24691 0.81387 0.75451 0.0
O64 O 0.24867 0.73844 0.68943 0.0
O65 O 0.22675 0.76084 0.72444 0.0
O66 O 0.23841 0.76133 0.80508 0.0
O67 O 0.25641 0.73525 0.77014 0.0
C68 C 0.25726 0.81386 0.72645 0.0
C69 C 0.24538 0.73915 0.79754 0.0
C70 C 0.27602 0.24296 0.71706 0.0
C71 C 0.2668 0.32202 0.7801 0.0
O72 O 0.26534 0.24103 0.74474 0.0
Zn73 Zn 0.25286 0.26412 0.785 0.0
O74 O 0.28218 0.26436 0.70769 0.0
Zn75 Zn 0.27084 0.28339 0.74653 0.0
O76 O 0.29507 0.27082 0.7887 0.0
O77 O 0.27278 0.25181 0.82463 0.0
O78 O 0.27558 0.31933 0.75109 0.0
O79 O 0.25803 0.30321 0.79421 0.0
O80 O 0.21646 0.25998 0.77866 0.0
O81 O 0.23149 0.28044 0.73744 0.0
C82 C 0.29386 0.25938 0.81657 0.0
C83 C 0.21283 0.27131 0.75084 0.0
C84 C 0.76447 0.21374 0.75488 0.0
C85 C 0.77481 0.29381 0.82725 0.0
O86 O 0.75298 0.23284 0.74297 0.0
Zn87 Zn 0.74725 0.27158 0.75558 0.0
O88 O 0.77687 0.21613 0.78407 0.0
Zn89 Zn 0.77067 0.25253 0.79367 0.0
O90 O 0.73196 0.253 0.80155 0.0
O91 O 0.71111 0.27283 0.76026 0.0
O92 O 0.78433 0.27278 0.83499 0.0
O93 O 0.76133 0.29518 0.7988 0.0
O94 O 0.76279 0.28617 0.71748 0.0
O95 O 0.78983 0.26826 0.75414 0.0
C96 C 0.71123 0.26117 0.78789 0.0
C97 C 0.7852 0.28011 0.72665 0.0
C98 C 0.79015 0.74337 0.71725 0.0
C99 C 0.71926 0.75284 0.78776 0.0
O100 O 0.76795 0.73578 0.70901 0.0
Zn101 Zn 0.75396 0.7476 0.7512 0.0
O102 O 0.79565 0.75413 0.74668 0.0
Zn103 Zn 0.77827 0.76484 0.79183 0.0
O104 O 0.79548 0.74431 0.8258 0.0
O105 O 0.77076 0.72294 0.78731 0.0
O106 O 0.73997 0.76122 0.80256 0.0
O107 O 0.71868 0.74356 0.7573 0.0
O108 O 0.7578 0.78719 0.75008 0.0
O109 O 0.78385 0.80053 0.79375 0.0
C110 C 0.78606 0.72358 0.81419 0.0
C111 C 0.76962 0.80505 0.76718 0.0
C112 C 0.04252 0.30217 0.58676 0.0
C113 C 0.05084 0.32508 0.60112 0.0
C114 C 0.03967 0.34288 0.58128 0.0
C115 C 0.02522 0.32986 0.55607 0.0
N116 N 0.02613 0.30482 0.5589 0.0
Co117 Co 0.0092 0.27881 0.52656 0.0
N118 N 0.99423 0.30485 0.49587 0.0
C119 C 0.99694 0.3299 0.50041 0.0
C120 C 0.98411 0.34306 0.47546 0.0
C121 C 0.97213 0.32541 0.45396 0.0
C122 C 0.97827 0.30241 0.4672 0.0
N123 N 0.99275 0.25275 0.49384 0.0
C124 C 0.97696 0.2552 0.46529 0.0
C125 C 0.96913 0.23207 0.45093 0.0
C126 C 0.98036 0.21448 0.47097 0.0
C127 C 0.99423 0.22771 0.49646 0.0
N128 N 0.02377 0.25278 0.55764 0.0
C129 C 0.02025 0.22783 0.55388 0.0
C130 C 0.03295 0.21463 0.57891 0.0
C131 C 0.04563 0.23219 0.59977 0.0
C132 C 0.03987 0.25515 0.58616 0.0
N133 N 0.97883 0.28038 0.55252 0.0
C134 C 0.93502 0.28315 0.58775 0.0
C135 C 0.94393 0.26022 0.57559 0.0
C136 C 0.96574 0.25926 0.5584 0.0
C137 C 0.94848 0.3046 0.58192 0.0
C138 C 0.97 0.30282 0.56437 0.0
N139 N 0.03952 0.27741 0.50062 0.0
C140 C 0.07224 0.254 0.47499 0.0
C141 C 0.0832 0.27593 0.46502 0.0
C142 C 0.07178 0.29854 0.47322 0.0
C143 C 0.05025 0.29885 0.4908 0.0
C144 C 0.05063 0.25515 0.49259 0.0
H145 H 0.04265 0.31675 0.49611 0.0
H146 H 0.04329 0.23781 0.49959 0.0
H147 H 0.97161 0.2412 0.55009 0.0
H148 H 0.97906 0.31997 0.56055 0.0
C149 C 0.01142 0.34051 0.52861 0.0
C150 C 0.05142 0.27845 0.59988 0.0
C151 C 0.96769 0.2789 0.45222 0.0
C152 C 0.00681 0.21722 0.5249 0.0
H153 H 0.06398 0.3285 0.62329 0.0
H154 H 0.04223 0.36289 0.58438 0.0
H155 H 0.9833 0.36311 0.47339 0.0
H156 H 0.95994 0.32906 0.43134 0.0
H157 H 0.95607 0.22811 0.42889 0.0
H158 H 0.97791 0.19444 0.46806 0.0
H159 H 0.03366 0.19458 0.58101 0.0
H160 H 0.05825 0.22844 0.62191 0.0
H161 H 0.93436 0.243 0.5798 0.0
H162 H 0.94225 0.32285 0.59045 0.0
H163 H 0.08042 0.23596 0.46964 0.0
H164 H 0.07914 0.31606 0.46563 0.0
C165 C 0.73743 0.04567 0.58154 0.0
C166 C 0.71491 0.05202 0.59429 0.0
C167 C 0.697 0.03748 0.5764 0.0
C168 C 0.70948 0.02306 0.5538 0.0
N169 N 0.73433 0.02747 0.55616 0.0
Co170 Co 0.75924 0.01019 0.5279 0.0
N171 N 0.73259 0.99031 0.4995 0.0
C172 C 0.70772 0.99219 0.50182 0.0
C173 C 0.69385 0.97657 0.47904 0.0
C174 C 0.71083 0.96391 0.46102 0.0
C175 C 0.73423 0.9725 0.4739 0.0
N176 N 0.78425 0.99208 0.50069 0.0
C177 C 0.78125 0.97336 0.47602 0.0
C178 C 0.80397 0.96556 0.4652 0.0
C179 C 0.82195 0.97954 0.48379 0.0
C180 C 0.80929 0.99505 0.50488 0.0
N181 N 0.7858 0.03087 0.55512 0.0
C182 C 0.8105 0.0303 0.55111 0.0
C183 C 0.82423 0.04718 0.57214 0.0
C184 C 0.80728 0.05957 0.59046 0.0
C185 C 0.78405 0.0495 0.57953 0.0
N186 N 0.76266 0.98377 0.56182 0.0
C187 C 0.76666 0.94737 0.6115 0.0
C188 C 0.78769 0.96038 0.60347 0.0
C189 C 0.78532 0.97825 0.57847 0.0
C190 C 0.7437 0.9528 0.59429 0.0
C191 C 0.74212 0.97092 0.56987 0.0
N192 N 0.75573 0.03687 0.49443 0.0
C193 C 0.77452 0.06703 0.46046 0.0
C194 C 0.75196 0.07989 0.45562 0.0
C195 C 0.73101 0.06984 0.46872 0.0
C196 C 0.73324 0.04834 0.48745 0.0
C197 C 0.77599 0.04574 0.47982 0.0
H198 H 0.71658 0.04184 0.49685 0.0
H199 H 0.79382 0.03713 0.48325 0.0
H200 H 0.80207 0.9873 0.57307 0.0
H201 H 0.724 0.97421 0.55803 0.0
C202 C 0.69819 0.00709 0.52782 0.0
C203 C 0.761 0.05826 0.59335 0.0
C204 C 0.75741 0.96241 0.46181 0.0
C205 C 0.82027 0.01317 0.52803 0.0
H206 H 0.71167 0.06611 0.61397 0.0
H207 H 0.67713 0.03793 0.57886 0.0
H208 H 0.6738 0.97415 0.47648 0.0
H209 H 0.70651 0.94959 0.44111 0.0
H210 H 0.80721 0.95125 0.44581 0.0
H211 H 0.84189 0.97858 0.48206 0.0
H212 H 0.8442 0.05012 0.57397 0.0
H213 H 0.81153 0.07435 0.60973 0.0
H214 H 0.80593 0.9565 0.61599 0.0
H215 H 0.72685 0.94331 0.59993 0.0
H216 H 0.79115 0.07348 0.44979 0.0
H217 H 0.71304 0.07893 0.46573 0.0
C218 C 0.04769 0.7453 0.55567 0.0
C219 C 0.05721 0.76818 0.5686 0.0
C220 C 0.04221 0.78606 0.55415 0.0
C221 C 0.02442 0.77313 0.53339 0.0
N222 N 0.02674 0.74804 0.53435 0.0
Co223 Co 0.00607 0.72226 0.50604 0.0
N224 N 0.98568 0.74855 0.48191 0.0
C225 C 0.98825 0.77357 0.48685 0.0
C226 C 0.9705 0.78689 0.46829 0.0
C227 C 0.95528 0.76935 0.45111 0.0
C228 C 0.96462 0.74625 0.46032 0.0
N229 N 0.9858 0.6965 0.4771 0.0
C230 C 0.96501 0.69916 0.45541 0.0
C231 C 0.95589 0.67624 0.44204 0.0
C232 C 0.97119 0.65847 0.45618 0.0
C233 C 0.98869 0.67144 0.47735 0.0
N234 N 0.0261 0.69597 0.53077 0.0
C235 C 0.02286 0.67099 0.52674 0.0
C236 C 0.04018 0.6576 0.54596 0.0
C237 C 0.0557 0.67505 0.56283 0.0
C238 C 0.04688 0.69819 0.55294 0.0
N239 N 0.98115 0.7219 0.5407 0.0
C240 C 0.94056 0.7228 0.58161 0.0
C241 C 0.94844 0.70043 0.56665 0.0
C242 C 0.96894 0.70033 0.547 0.0
C243 C 0.95404 0.74447 0.57722 0.0
C244 C 0.97402 0.74364 0.55673 0.0
N245 N 0.03095 0.72265 0.47136 0.0
C246 C 0.06083 0.7009 0.43825 0.0
C247 C 0.07113 0.72347 0.42975 0.0
C248 C 0.06021 0.74559 0.44102 0.0
C249 C 0.04009 0.74475 0.46122 0.0
C250 C 0.04094 0.70092 0.45897 0.0
H251 H 0.0326 0.76226 0.46889 0.0
H252 H 0.0344 0.68312 0.46532 0.0
H253 H 0.97419 0.68265 0.53658 0.0
H254 H 0.98294 0.76098 0.55355 0.0
C255 C 0.00632 0.78395 0.51102 0.0
C256 C 0.05987 0.7216 0.5632 0.0
C257 C 0.95217 0.72273 0.44912 0.0
C258 C 0.00567 0.66066 0.50132 0.0
H259 H 0.07372 0.77161 0.58595 0.0
H260 H 0.04451 0.80609 0.55743 0.0
H261 H 0.96833 0.80696 0.46828 0.0
H262 H 0.93873 0.77312 0.43447 0.0
H263 H 0.93926 0.67261 0.42506 0.0
H264 H 0.96893 0.63842 0.45296 0.0
H265 H 0.04213 0.63752 0.54622 0.0
H266 H 0.0722 0.67111 0.57942 0.0
H267 H 0.93881 0.68309 0.57009 0.0
H268 H 0.94864 0.76222 0.58856 0.0
H269 H 0.06861 0.68326 0.4299 0.0
H270 H 0.06718 0.76353 0.43432 0.0
C271 C 0.2809 0.9702 0.55567 0.0
C272 C 0.30397 0.96054 0.56675 0.0
C273 C 0.32127 0.97224 0.54951 0.0
C274 C 0.30793 0.98842 0.52898 0.0
N275 N 0.28309 0.98792 0.53215 0.0
Co276 Co 0.257 0.00846 0.50628 0.0
N277 N 0.28238 0.02477 0.47954 0.0
C278 C 0.30724 0.02054 0.48231 0.0
C279 C 0.32013 0.03465 0.46139 0.0
C280 C 0.30252 0.04887 0.4443 0.0
C281 C 0.27974 0.0426 0.45573 0.0
N282 N 0.23091 0.02901 0.48054 0.0
C283 C 0.23303 0.0466 0.45688 0.0
C284 C 0.20997 0.05634 0.44595 0.0
C285 C 0.19272 0.04481 0.46346 0.0
C286 C 0.20612 0.02867 0.48397 0.0
N287 N 0.23163 0.99208 0.53296 0.0
C288 C 0.20678 0.99629 0.53015 0.0
C289 C 0.19382 0.9821 0.55088 0.0
C290 C 0.21138 0.96779 0.56787 0.0
C291 C 0.23419 0.97411 0.5566 0.0
N292 N 0.26171 0.0358 0.54189 0.0
C293 C 0.26865 0.07997 0.58278 0.0
C294 C 0.24472 0.07073 0.57304 0.0
C295 C 0.2417 0.04857 0.5531 0.0
C296 C 0.28902 0.06588 0.57372 0.0
C297 C 0.28514 0.04399 0.55356 0.0
N298 N 0.25241 0.98145 0.47021 0.0
C299 C 0.22595 0.9562 0.42934 0.0
C300 C 0.24676 0.94427 0.41749 0.0
C301 C 0.27032 0.95113 0.43235 0.0
C302 C 0.2727 0.96966 0.45829 0.0
C303 C 0.22917 0.97447 0.45588 0.0
H304 H 0.29121 0.97416 0.46811 0.0
H305 H 0.21263 0.98263 0.46434 0.0
H306 H 0.22304 0.04249 0.54636 0.0
H307 H 0.30146 0.03449 0.54693 0.0
C308 C 0.31801 1.00372 0.50555 0.0
C309 C 0.25756 0.96186 0.56841 0.0
C310 C 0.25632 0.05476 0.44394 0.0
C311 C 0.19608 0.01326 0.50719 0.0
H312 H 0.30786 0.94637 0.58528 0.0
H313 H 0.3412 0.96911 0.55142 0.0
H314 H 0.34004 0.03484 0.45918 0.0
H315 H 0.3061 0.06257 0.42585 0.0
H316 H 0.20602 0.07041 0.42729 0.0
H317 H 0.1728 0.04796 0.46163 0.0
H318 H 0.17391 0.98192 0.55302 0.0
H319 H 0.20773 0.95399 0.58617 0.0
H320 H 0.22838 0.08068 0.58047 0.0
H321 H 0.30793 0.07219 0.58098 0.0
H322 H 0.20731 0.95116 0.41862 0.0
H323 H 0.28696 0.94241 0.42369 0.0
C324 C 0.54184 0.7764 0.06498 0.0
C325 C 0.5491 0.79946 0.08001 0.0
C326 C 0.53568 0.81701 0.0623 0.0
C327 C 0.52094 0.80376 0.03767 0.0
N328 N 0.52411 0.77876 0.03849 0.0
Co329 Co 0.50575 0.7527 0.00772 0.0
N330 N 0.48672 0.77869 0.98083 0.0
C331 C 0.48911 0.80375 0.98554 0.0
C332 C 0.47404 0.81693 0.96291 0.0
C333 C 0.46118 0.79928 0.94246 0.0
C334 C 0.46906 0.77622 0.95398 0.0
N335 N 0.48697 0.72664 0.97741 0.0
C336 C 0.46892 0.72902 0.95129 0.0
C337 C 0.46036 0.70593 0.93785 0.0
C338 C 0.47343 0.68836 0.95599 0.0
C339 C 0.48911 0.70161 0.97949 0.0
N340 N 0.52527 0.72675 0.03412 0.0
C341 C 0.52372 0.70171 0.02837 0.0
C342 C 0.53968 0.68857 0.04993 0.0
C343 C 0.55232 0.70624 0.07068 0.0
C344 C 0.54321 0.72925 0.06065 0.0
N345 N 0.4792 0.75189 0.04009 0.0
C346 C 0.44107 0.75066 0.08556 0.0
C347 C 0.45377 0.72898 0.07621 0.0
C348 C 0.47235 0.72996 0.05346 0.0
C349 C 0.44805 0.77299 0.07172 0.0
C350 C 0.46709 0.77322 0.04962 0.0
N351 N 0.53227 0.75349 0.97536 0.0
C352 C 0.56016 0.73203 0.93875 0.0
C353 C 0.57045 0.75462 0.9301 0.0
C354 C 0.56099 0.77664 0.94435 0.0
C355 C 0.54223 0.77565 0.96679 0.0
C356 C 0.54121 0.7319 0.96103 0.0
H357 H 0.53613 0.7931 0.97695 0.0
H358 H 0.53424 0.71407 0.96647 0.0
H359 H 0.48087 0.71268 0.04712 0.0
H360 H 0.47154 0.79091 0.04044 0.0
C361 C 0.50482 0.8143 0.0125 0.0
C362 C 0.55245 0.75289 0.07689 0.0
C363 C 0.45896 0.75261 0.93871 0.0
C364 C 0.50648 0.69113 1.0032 0.0
H365 H 0.56276 0.80322 0.10149 0.0
H366 H 0.53671 0.83706 0.06665 0.0
H367 H 0.4724 0.83699 0.96169 0.0
H368 H 0.4474 0.80296 0.92156 0.0
H369 H 0.44608 0.70218 0.91713 0.0
H370 H 0.47173 0.66828 0.95243 0.0
H371 H 0.54182 0.66853 0.05056 0.0
H372 H 0.56664 0.70259 0.0909 0.0
H373 H 0.44962 0.71119 0.08648 0.0
H374 H 0.43867 0.79035 0.07736 0.0
H375 H 0.56695 0.71436 0.92895 0.0
H376 H 0.56789 0.79472 0.93816 0.0
C377 C 0.20234 0.53838 0.05491 0.0
C378 C 0.17794 0.54276 0.06229 0.0
C379 C 0.16313 0.529 0.03853 0.0
C380 C 0.17934 0.51705 0.01826 0.0
N381 N 0.2036 0.52185 0.02814 0.0
Co382 Co 0.23344 0.50958 1.00538 0.0
N383 N 0.21178 0.49319 0.96679 0.0
C384 C 0.18656 0.49261 0.96302 0.0
C385 C 0.17693 0.48039 0.93343 0.0
C386 C 0.19721 0.47252 0.91744 0.0
C387 C 0.2181 0.4803 0.93842 0.0
N388 N 0.26336 0.49746 0.98244 0.0
C389 C 0.26477 0.48385 0.95278 0.0
C390 C 0.28936 0.47909 0.94641 0.0
C391 C 0.30398 0.49012 0.97291 0.0
C392 C 0.2876 0.50085 0.99395 0.0
N393 N 0.25504 0.5262 0.04395 0.0
C394 C 0.2802 0.52555 0.049 0.0
C395 C 0.28977 0.54026 0.0764 0.0
C396 C 0.26957 0.55141 0.08919 0.0
C397 C 0.24872 0.54267 0.06885 0.0
N398 N 0.23326 0.47785 0.0314 0.0
C399 C 0.2332 0.43368 0.07009 0.0
C400 C 0.25529 0.44655 0.06557 0.0
C401 C 0.2549 0.4682 0.04656 0.0
C402 C 0.21115 0.4433 0.05403 0.0
C403 C 0.21161 0.46499 0.03498 0.0
N404 N 0.23368 0.54113 0.97973 0.0
C405 C 0.25629 0.57603 0.95947 0.0
C406 C 0.23448 0.58602 0.94334 0.0
C407 C 0.21215 0.57309 0.94635 0.0
C408 C 0.21217 0.55093 0.9644 0.0
C409 C 0.25548 0.55393 0.97729 0.0
H410 H 0.19456 0.54192 0.9656 0.0
H411 H 0.27279 0.54754 0.98904 0.0
H412 H 0.27249 0.47674 0.04455 0.0
H413 H 0.19411 0.471 0.0235 0.0
C414 C 0.17239 0.50368 0.98766 0.0
C415 C 0.22354 0.55196 0.07203 0.0
C416 C 0.24345 0.47392 0.93094 0.0
C417 C 0.29441 0.51381 0.02494 0.0
H418 H 0.17155 0.55541 0.08191 0.0
H419 H 0.14295 0.52876 0.03534 0.0
H420 H 0.1575 0.47747 0.92463 0.0
H421 H 0.19672 0.46195 0.89326 0.0
H422 H 0.29614 0.46842 0.92513 0.0
H423 H 0.32414 0.49003 0.97664 0.0
H424 H 0.3092 0.54363 0.08482 0.0
H425 H 0.27037 0.56517 0.11018 0.0
H426 H 0.27312 0.43989 0.07638 0.0
H427 H 0.19336 0.43445 0.05655 0.0
H428 H 0.27407 0.58534 0.95873 0.0
H429 H 0.1947 0.57972 0.93427 0.0
C430 C 0.46779 0.27333 0.97979 0.0
C431 C 0.45929 0.29659 0.96991 0.0
C432 C 0.4752 0.31382 0.98645 0.0
C433 C 0.49253 0.30018 1.00526 0.0
N434 N 0.48876 0.27523 1.00159 0.0
Co435 Co 0.50962 0.24857 0.02428 0.0
N436 N 0.53183 0.274 0.05074 0.0
C437 C 0.52927 0.29911 0.05087 0.0
C438 C 0.5473 0.31176 0.07154 0.0
C439 C 0.56243 0.29369 0.08526 0.0
C440 C 0.55282 0.27096 0.07191 0.0
N441 N 0.53088 0.2219 0.04623 0.0
C442 C 0.55234 0.22375 0.06706 0.0
C443 C 0.56204 0.20041 0.07451 0.0
C444 C 0.54618 0.18322 0.0579 0.0
C445 C 0.5279 0.19694 0.04111 0.0
N446 N 0.48703 0.22312 0.99853 0.0
C447 C 0.48861 0.19803 1.00018 0.0
C448 C 0.46977 0.18532 0.98119 0.0
C449 C 0.45503 0.20336 0.96676 0.0
C450 C 0.46589 0.22614 0.97768 0.0
N451 N 0.5318 0.24843 0.98601 0.0
C452 C 0.56556 0.24838 0.93427 0.0
C453 C 0.55424 0.22628 0.94306 0.0
C454 C 0.53761 0.22671 0.96875 0.0
C455 C 0.55912 0.27051 0.95149 0.0
C456 C 0.54234 0.27013 0.97676 0.0
N457 N 0.48737 0.24888 0.06253 0.0
C458 C 0.46306 0.22718 0.10149 0.0
C459 C 0.45209 0.24952 0.11211 0.0
C460 C 0.4599 0.27156 0.09857 0.0
C461 C 0.47752 0.27085 0.07439 0.0
C462 C 0.48045 0.22727 0.07676 0.0
H463 H 0.48253 0.28838 0.06528 0.0
H464 H 0.48767 0.20958 0.06906 0.0
H465 H 0.52985 0.20922 0.97442 0.0
H466 H 0.53851 0.28768 0.9888 0.0
C467 C 0.51116 0.31027 0.02887 0.0
C468 C 0.455 0.25006 0.96831 0.0
C469 C 0.56461 0.24707 0.07954 0.0
C470 C 0.50795 0.18693 0.01993 0.0
H471 H 0.44303 0.30069 0.95293 0.0
H472 H 0.47389 0.33393 0.9856 0.0
H473 H 0.54959 0.33176 0.0754 0.0
H474 H 0.57895 0.29691 0.10265 0.0
H475 H 0.57904 0.19618 0.08989 0.0
H476 H 0.548 0.16311 0.0576 0.0
H477 H 0.46691 0.16533 0.97854 0.0
H478 H 0.438 0.20007 0.95043 0.0
H479 H 0.55813 0.20862 0.93023 0.0
H480 H 0.56748 0.28816 0.94628 0.0
H481 H 0.45761 0.2096 0.11129 0.0
H482 H 0.4523 0.28939 0.10645 0.0
C483 C 0.75747 0.55814 0.05932 0.0
C484 C 0.73479 0.57055 0.05795 0.0
C485 C 0.71816 0.55596 0.03784 0.0
C486 C 0.73147 0.53548 0.02809 0.0
N487 N 0.75557 0.53587 0.04113 0.0
Co488 Co 0.78153 0.51017 0.03128 0.0
N489 N 0.75681 0.48847 1.0021 0.0
C490 C 0.73205 0.49267 0.99661 0.0
C491 C 0.71947 0.47436 0.97665 0.0
C492 C 0.7372 0.45728 0.96908 0.0
C493 C 0.75972 0.46622 0.98479 0.0
N494 N 0.80775 0.48519 0.01975 0.0
C495 C 0.80622 0.46385 0.99947 0.0
C496 C 0.82939 0.45277 0.99774 0.0
C497 C 0.84612 0.46751 0.01752 0.0
C498 C 0.83232 0.48676 0.03011 0.0
N499 N 0.80593 0.53111 0.06202 0.0
C500 C 0.83023 0.52571 0.06996 0.0
C501 C 0.84258 0.54331 0.09142 0.0
C502 C 0.82516 0.56104 0.09764 0.0
C503 C 0.80301 0.55325 0.07959 0.0
N504 N 0.77391 0.49137 0.07154 0.0
C505 C 0.76273 0.46379 0.12781 0.0
C506 C 0.78723 0.46581 0.11893 0.0
C507 C 0.79236 0.47961 0.09097 0.0
C508 C 0.74406 0.47636 0.10857 0.0
C509 C 0.74999 0.48988 0.08078 0.0
N510 N 0.78901 0.52939 0.99138 0.0
C511 C 0.81498 0.55998 0.96802 0.0
C512 C 0.79521 0.56682 0.94493 0.0
C513 C 0.7734 0.55247 0.94275 0.0
C514 C 0.77068 0.53403 0.96608 0.0
C515 C 0.81164 0.54095 0.99042 0.0
H516 H 0.75317 0.52459 0.96396 0.0
H517 H 0.82728 0.53676 0.00774 0.0
H518 H 0.81135 0.4802 0.08532 0.0
H519 H 0.73482 0.49875 0.06701 0.0
C520 C 0.7216 0.51494 0.00835 0.0
C521 C 0.78009 0.56815 0.0787 0.0
C522 C 0.78334 0.45306 0.98184 0.0
C523 C 0.84147 0.50549 0.05374 0.0
H524 H 0.73061 0.58827 0.07037 0.0
H525 H 0.6986 0.55972 0.03136 0.0
H526 H 0.6998 0.47372 0.96812 0.0
H527 H 0.73398 0.44029 0.95343 0.0
H528 H 0.83368 0.43563 0.98391 0.0
H529 H 0.86592 0.46433 0.02263 0.0
H530 H 0.86216 0.54366 0.10047 0.0
H531 H 0.8286 0.57813 0.113 0.0
H532 H 0.80233 0.45611 0.13273 0.0
H533 H 0.72483 0.47561 0.11468 0.0
H534 H 0.83252 0.57005 0.97023 0.0
H535 H 0.75799 0.55609 0.92403 0.0
H536 H 0.23221 0.28606 0.38835 0.0
H537 H 0.1814 0.26317 0.30147 0.0
H538 H 0.19731 0.28765 0.42465 0.0
H539 H 0.14682 0.26521 0.33721 0.0
H540 H 0.09507 0.24202 0.41459 0.0
H541 H 0.13123 0.24184 0.38143 0.0
H542 H 0.1588 0.30894 0.43685 0.0
H543 H 0.12307 0.30851 0.47116 0.0
C544 C 0.2136 0.28176 0.37688 0.0
C545 C 0.2097 0.27432 0.34202 0.0
C546 C 0.19357 0.28266 0.39768 0.0
C547 C 0.16922 0.27615 0.38404 0.0
C548 C 0.16533 0.2697 0.34889 0.0
C549 C 0.18523 0.26874 0.32827 0.0
C550 C 0.10898 0.25655 0.42014 0.0
C551 C 0.10596 0.27533 0.44556 0.0
C552 C 0.12963 0.25665 0.40075 0.0
C553 C 0.14789 0.27557 0.40609 0.0
C554 C 0.14521 0.29404 0.43204 0.0
C555 C 0.12452 0.29394 0.45148 0.0
H556 H 0.78051 0.20194 0.33047 0.0
H557 H 0.71296 0.22608 0.37389 0.0
H558 H 0.78093 0.16434 0.36305 0.0
H559 H 0.7132 0.18774 0.40631 0.0
H560 H 0.71304 0.09799 0.41364 0.0
H561 H 0.71063 0.13808 0.3863 0.0
H562 H 0.78509 0.15623 0.42974 0.0
H563 H 0.78728 0.11686 0.45855 0.0
C564 C 0.76567 0.19914 0.34692 0.0
C565 C 0.74662 0.21685 0.34959 0.0
C566 C 0.76604 0.17771 0.36569 0.0
C567 C 0.74714 0.17328 0.3871 0.0
C568 C 0.72794 0.19084 0.38981 0.0
C569 C 0.72785 0.21271 0.37147 0.0
C570 C 0.72877 0.11066 0.41794 0.0
C571 C 0.75045 0.10402 0.4382 0.0
C572 C 0.72732 0.13358 0.40225 0.0
C573 C 0.74765 0.15011 0.40607 0.0
C574 C 0.76923 0.14365 0.42635 0.0
C575 C 0.77054 0.12097 0.44248 0.0
H576 H 0.791 0.72135 0.38242 0.0
H577 H 0.82954 0.75349 0.30256 0.0
H578 H 0.83141 0.71401 0.41463 0.0
H579 H 0.86914 0.74664 0.33449 0.0
H580 H 0.93859 0.71155 0.38173 0.0
H581 H 0.897 0.71362 0.35157 0.0
H582 H 0.86673 0.73754 0.44603 0.0
H583 H 0.90849 0.73479 0.47619 0.0
C584 C 0.80798 0.72675 0.37168 0.0
C585 C 0.80691 0.73799 0.33985 0.0
C586 C 0.83112 0.72269 0.39019 0.0
C587 C 0.85361 0.72957 0.37706 0.0
C588 C 0.85236 0.74064 0.34519 0.0
C589 C 0.82945 0.74476 0.32694 0.0
C590 C 0.92295 0.71698 0.39598 0.0
C591 C 0.92661 0.72297 0.43116 0.0
C592 C 0.89915 0.71832 0.37877 0.0
C593 C 0.87845 0.7259 0.3963 0.0
C594 C 0.88213 0.73139 0.43178 0.0
C595 C 0.90601 0.73001 0.449 0.0
H596 H 0.28157 0.82136 0.28274 0.0
H597 H 0.20444 0.83566 0.2503 0.0
H598 H 0.2828 0.85855 0.32057 0.0
H599 H 0.20515 0.8724 0.2896 0.0
H600 H 0.22107 0.94574 0.35437 0.0
H601 H 0.22045 0.91373 0.30772 0.0
H602 H 0.26588 0.8661 0.37379 0.0
H603 H 0.26708 0.89823 0.41943 0.0
C604 C 0.26497 0.83275 0.28344 0.0
C605 C 0.24287 0.82566 0.26397 0.0
C606 C 0.26556 0.85389 0.30534 0.0
C607 C 0.24386 0.86802 0.30888 0.0
C608 C 0.22218 0.86192 0.2875 0.0
C609 C 0.22175 0.84093 0.26499 0.0
C610 C 0.23074 0.9283 0.35872 0.0
C611 C 0.24431 0.92441 0.39022 0.0
C612 C 0.23043 0.91003 0.33211 0.0
C613 C 0.24353 0.88756 0.33679 0.0
C614 C 0.25629 0.8835 0.36886 0.0
C615 C 0.25681 0.90177 0.39515 0.0
H616 H 0.22037 0.72315 0.63315 0.0
H617 H 0.18062 0.75541 0.71526 0.0
H618 H 0.1804 0.71436 0.59964 0.0
H619 H 0.14128 0.74699 0.68207 0.0
H620 H 0.10387 0.7339 0.53852 0.0
H621 H 0.14525 0.73737 0.56999 0.0
H622 H 0.11404 0.71285 0.66075 0.0
H623 H 0.07279 0.7099 0.62926 0.0
C624 C 0.2032 0.72824 0.64411 0.0
C625 C 0.2038 0.74001 0.67691 0.0
C626 C 0.18031 0.72334 0.62487 0.0
C627 C 0.15756 0.72984 0.63822 0.0
C628 C 0.15831 0.74132 0.67113 0.0
C629 C 0.18102 0.74634 0.69012 0.0
C630 C 0.10608 0.72902 0.56511 0.0
C631 C 0.08531 0.72158 0.58157 0.0
C632 C 0.12973 0.73086 0.58308 0.0
C633 C 0.13301 0.72549 0.61798 0.0
C634 C 0.11218 0.71744 0.63405 0.0
C635 C 0.08859 0.71557 0.61607 0.0
H636 H 0.28053 0.23802 0.64795 0.0
H637 H 0.28039 0.1961 0.73952 0.0
H638 H 0.2818 0.19878 0.61354 0.0
H639 H 0.28158 0.1573 0.70546 0.0
H640 H 0.30189 0.0918 0.63766 0.0
H641 H 0.30815 0.13231 0.66805 0.0
H642 H 0.25017 0.16386 0.60018 0.0
H643 H 0.24424 0.12347 0.56934 0.0
C644 C 0.28122 0.22049 0.66071 0.0
C645 C 0.28017 0.22004 0.6963 0.0
C646 C 0.28176 0.1981 0.64108 0.0
C647 C 0.28169 0.17504 0.65688 0.0
C648 C 0.28187 0.17476 0.69262 0.0
C649 C 0.28101 0.197 0.71208 0.0
C650 C 0.29066 0.10746 0.62906 0.0
C651 C 0.27243 0.10446 0.60136 0.0
C652 C 0.29419 0.13059 0.64648 0.0
C653 C 0.27968 0.15121 0.6364 0.0
C654 C 0.26182 0.14835 0.60823 0.0
C655 C 0.25817 0.12517 0.59095 0.0
H656 H 0.8345 0.28304 0.74788 0.0
H657 H 0.78343 0.28712 0.65727 0.0
H658 H 0.86968 0.28548 0.71318 0.0
H659 H 0.81899 0.28955 0.6222 0.0
H660 H 0.89045 0.25821 0.57321 0.0
H661 H 0.85343 0.26038 0.60538 0.0
H662 H 0.89071 0.31422 0.67718 0.0
H663 H 0.92773 0.3118 0.64544 0.0
C664 C 0.83077 0.28479 0.72052 0.0
C665 C 0.80612 0.28491 0.70537 0.0
C666 C 0.85099 0.28628 0.70061 0.0
C667 C 0.8472 0.28764 0.66487 0.0
C668 C 0.82254 0.28832 0.64966 0.0
C669 C 0.80218 0.28718 0.66975 0.0
C670 C 0.89075 0.27047 0.59591 0.0
C671 C 0.91214 0.28476 0.60678 0.0
C672 C 0.86942 0.27193 0.61411 0.0
C673 C 0.86907 0.28749 0.64386 0.0
C674 C 0.89038 0.30193 0.65451 0.0
C675 C 0.91156 0.30066 0.63616 0.0
H676 H 0.72944 0.82585 0.7337 0.0
H677 H 0.80658 0.84015 0.76845 0.0
H678 H 0.72879 0.86276 0.69975 0.0
H679 H 0.80635 0.87675 0.73318 0.0
H680 H 0.79076 0.9499 0.676 0.0
H681 H 0.79077 0.91834 0.71942 0.0
H682 H 0.74682 0.86945 0.64731 0.0
H683 H 0.74644 0.90096 0.60468 0.0
C684 C 0.74616 0.83719 0.73444 0.0
C685 C 0.76811 0.83011 0.75336 0.0
C686 C 0.74588 0.85818 0.71475 0.0
C687 C 0.76772 0.87227 0.71298 0.0
C688 C 0.78923 0.86627 0.73397 0.0
C689 C 0.78937 0.84537 0.7542 0.0
C690 C 0.78127 0.9323 0.66957 0.0
C691 C 0.76837 0.92791 0.63718 0.0
C692 C 0.78123 0.91429 0.69437 0.0
C693 C 0.76838 0.89158 0.68706 0.0
C694 C 0.75622 0.88703 0.65422 0.0
C695 C 0.75612 0.90501 0.62967 0.0
H696 H 0.79699 0.70501 0.67014 0.0
H697 H 0.82834 0.77506 0.71162 0.0
H698 H 0.83326 0.69851 0.63708 0.0
H699 H 0.86358 0.7695 0.67756 0.0
H700 H 0.93696 0.74279 0.64583 0.0
H701 H 0.89992 0.74661 0.67705 0.0
H702 H 0.8561 0.71016 0.59155 0.0
H703 H 0.89375 0.70526 0.56119 0.0
C704 C 0.8114 0.71921 0.67161 0.0
C705 C 0.81003 0.74038 0.69368 0.0
C706 C 0.83219 0.71556 0.65267 0.0
C707 C 0.85175 0.73324 0.65506 0.0
C708 C 0.84948 0.755 0.67588 0.0
C709 C 0.82909 0.75835 0.69519 0.0
C710 C 0.91941 0.73548 0.63389 0.0
C711 C 0.91817 0.72381 0.60114 0.0
C712 C 0.89805 0.73785 0.6516 0.0
C713 C 0.87473 0.72911 0.63669 0.0
C714 C 0.87366 0.71694 0.60407 0.0
C715 C 0.8952 0.71418 0.58659 0.0
H716 H 0.23222 0.85889 0.73317 0.0
H717 H 0.28436 0.8209 0.67169 0.0
H718 H 0.23193 0.8944 0.6959 0.0
H719 H 0.28488 0.85639 0.63542 0.0
H720 H 0.26342 0.91195 0.55376 0.0
H721 H 0.26307 0.87727 0.59212 0.0
H722 H 0.25211 0.92935 0.6766 0.0
H723 H 0.25158 0.96382 0.63745 0.0
C724 C 0.24388 0.85819 0.71201 0.0
C725 C 0.25822 0.83677 0.7056 0.0
C726 C 0.24381 0.87869 0.69052 0.0
C727 C 0.2582 0.87857 0.66198 0.0
C728 C 0.27298 0.85731 0.6563 0.0
C729 C 0.27288 0.83684 0.67751 0.0
C730 C 0.26092 0.9159 0.58055 0.0
C731 C 0.25754 0.94063 0.59252 0.0
C732 C 0.2609 0.896 0.60281 0.0
C733 C 0.25774 0.90012 0.63802 0.0
C734 C 0.2543 0.92505 0.64984 0.0
C735 C 0.25416 0.94495 0.62743 0.0
H736 H 0.16999 0.24451 0.75857 0.0
H737 H 0.19873 0.30373 0.70174 0.0
H738 H 0.13012 0.24638 0.72339 0.0
H739 H 0.15917 0.30603 0.66758 0.0
H740 H 0.09914 0.28284 0.58439 0.0
H741 H 0.13719 0.28121 0.62289 0.0
H742 H 0.09292 0.27127 0.70821 0.0
H743 H 0.05482 0.27234 0.66898 0.0
C744 C 0.16769 0.25814 0.73898 0.0
C745 C 0.18764 0.27374 0.7327 0.0
C746 C 0.14485 0.25926 0.71885 0.0
C747 C 0.14154 0.27609 0.69221 0.0
C748 C 0.16121 0.29237 0.68716 0.0
C749 C 0.18391 0.29114 0.70697 0.0
C750 C 0.09768 0.28036 0.6114 0.0
C751 C 0.07428 0.2778 0.62392 0.0
C752 C 0.11939 0.27955 0.63354 0.0
C753 C 0.11817 0.27632 0.66881 0.0
C754 C 0.09458 0.27359 0.68123 0.0
C755 C 0.07281 0.27437 0.65894 0.0
H756 H 0.74172 0.20567 0.69046 0.0
H757 H 0.78552 0.16745 0.76933 0.0
H758 H 0.74104 0.16835 0.65328 0.0
H759 H 0.78494 0.12964 0.73149 0.0
H760 H 0.75679 0.05941 0.66282 0.0
H761 H 0.75799 0.09595 0.70304 0.0
H762 H 0.76827 0.14384 0.61965 0.0
H763 H 0.76685 0.10734 0.57984 0.0
C764 C 0.75125 0.18928 0.70005 0.0
C765 C 0.76374 0.18985 0.73319 0.0
C766 C 0.751 0.16776 0.6784 0.0
C767 C 0.76312 0.14581 0.68895 0.0
C768 C 0.77527 0.14608 0.72237 0.0
C769 C 0.77568 0.16784 0.74411 0.0
C770 C 0.75925 0.07781 0.65324 0.0
C771 C 0.76152 0.08056 0.61814 0.0
C772 C 0.76013 0.09877 0.6763 0.0
C773 C 0.76312 0.12308 0.66482 0.0
C774 C 0.76555 0.12561 0.62959 0.0
C775 C 0.76483 0.10468 0.60668 0.0
H776 H 0.8155 0.2664 0.36637 0.0
H777 H 0.85402 0.27412 0.27539 0.0
H778 H 0.85466 0.26897 0.40139 0.0
H779 H 0.89376 0.27817 0.31092 0.0
H780 H 0.96293 0.26113 0.38527 0.0
H781 H 0.92484 0.2585 0.34635 0.0
H782 H 0.88466 0.29723 0.4234 0.0
H783 H 0.92222 0.29799 0.46266 0.0
C784 C 0.83244 0.26899 0.35386 0.0
C785 C 0.83164 0.27034 0.31814 0.0
C786 C 0.855 0.27069 0.37405 0.0
C787 C 0.87755 0.27439 0.35929 0.0
C788 C 0.87685 0.27525 0.32331 0.0
C789 C 0.85411 0.27303 0.30289 0.0
C790 C 0.9458 0.2689 0.3937 0.0
C791 C 0.94527 0.27927 0.42711 0.0
C792 C 0.92403 0.26765 0.37134 0.0
C793 C 0.90138 0.27724 0.38176 0.0
C794 C 0.90141 0.28886 0.41469 0.0
C795 C 0.923 0.28961 0.43716 0.0
H796 H 0.7708 0.85786 0.28278 0.0
H797 H 0.73855 0.81495 0.35854 0.0
H798 H 0.77155 0.8949 0.32204 0.0
H799 H 0.73918 0.85154 0.3972 0.0
H800 H 0.74587 0.96183 0.39203 0.0
H801 H 0.74538 0.92602 0.35063 0.0
H802 H 0.76794 0.87781 0.43295 0.0
H803 H 0.76823 0.9136 0.47392 0.0
C804 C 0.76377 0.85627 0.30763 0.0
C805 C 0.75466 0.83317 0.31722 0.0
C806 C 0.76411 0.87759 0.3302 0.0
C807 C 0.75561 0.87639 0.3632 0.0
C808 C 0.74632 0.85333 0.37245 0.0
C809 C 0.74579 0.83222 0.34995 0.0
C810 C 0.75067 0.94352 0.40113 0.0
C811 C 0.75692 0.9405 0.43627 0.0
C812 C 0.75057 0.92298 0.37739 0.0
C813 C 0.75651 0.89875 0.38818 0.0
C814 C 0.76288 0.89595 0.42348 0.0
C815 C 0.76316 0.91648 0.44707 0.0
H816 H 0.16785 0.73675 0.26715 0.0
H817 H 0.22016 0.73016 0.35613 0.0
H818 H 0.13326 0.73146 0.3024 0.0
H819 H 0.18527 0.72506 0.3916 0.0
H820 H 0.11333 0.75166 0.44343 0.0
H821 H 0.14956 0.75328 0.40992 0.0
H822 H 0.11529 0.69802 0.33751 0.0
H823 H 0.07906 0.69638 0.37105 0.0
C824 C 0.17198 0.73409 0.29426 0.0
C825 C 0.19677 0.73394 0.30887 0.0
C826 C 0.15214 0.7309 0.31439 0.0
C827 C 0.15656 0.72785 0.34973 0.0
C828 C 0.18134 0.72752 0.36443 0.0
C829 C 0.20128 0.7303 0.34412 0.0
C830 C 0.11356 0.73988 0.42034 0.0
C831 C 0.09331 0.724 0.40972 0.0
C832 C 0.13438 0.74063 0.40137 0.0
C833 C 0.13524 0.72578 0.37112 0.0
C834 C 0.11507 0.70976 0.36064 0.0
C835 C 0.09441 0.70874 0.37989 0.0
H836 H 0.27614 0.19865 0.35334 0.0
H837 H 0.23394 0.15651 0.27182 0.0
H838 H 0.2767 0.16281 0.38905 0.0
H839 H 0.23439 0.12024 0.30813 0.0
H840 H 0.26184 0.05314 0.37479 0.0
H841 H 0.26116 0.08804 0.33606 0.0
H842 H 0.24913 0.13931 0.42088 0.0
H843 H 0.25003 0.10442 0.45922 0.0
C844 C 0.26697 0.1817 0.34284 0.0
C845 C 0.25494 0.18074 0.30942 0.0
C846 C 0.26714 0.16105 0.36363 0.0
C847 C 0.2554 0.13847 0.35189 0.0
C848 C 0.24377 0.1372 0.31817 0.0
C849 C 0.24343 0.15807 0.29729 0.0
C850 C 0.25912 0.07193 0.38502 0.0
C851 C 0.25618 0.07608 0.42008 0.0
C852 C 0.25854 0.09195 0.3628 0.0
C853 C 0.2552 0.11672 0.37513 0.0
C854 C 0.25214 0.12068 0.41032 0.0
C855 C 0.25255 0.10068 0.43239 0.0
H856 H 0.71685 0.76441 0.85558 0.0
H857 H 0.67052 0.7426 0.76379 0.0
H858 H 0.68063 0.76492 0.88819 0.0
H859 H 0.63376 0.744 0.79644 0.0
H860 H 0.57808 0.72361 0.8741 0.0
H861 H 0.61332 0.72329 0.83907 0.0
H862 H 0.64444 0.78767 0.89768 0.0
H863 H 0.61026 0.78695 0.93403 0.0
C864 C 0.69884 0.75997 0.84221 0.0
C865 C 0.69663 0.75353 0.80697 0.0
C866 C 0.67794 0.76044 0.86096 0.0
C867 C 0.65409 0.75473 0.84503 0.0
C868 C 0.65183 0.74827 0.8097 0.0
C869 C 0.67288 0.7476 0.7909 0.0
C870 C 0.59257 0.73754 0.8798 0.0
C871 C 0.59126 0.7552 0.90721 0.0
C872 C 0.61266 0.73758 0.85931 0.0
C873 C 0.63192 0.75536 0.86554 0.0
C874 C 0.63026 0.77337 0.8924 0.0
C875 C 0.61034 0.77321 0.91302 0.0
H876 H 0.25683 0.69037 0.78435 0.0
H877 H 0.22595 0.73823 0.86118 0.0
H878 H 0.25328 0.65482 0.81957 0.0
H879 H 0.2227 0.70213 0.89721 0.0
H880 H 0.20023 0.62464 0.93749 0.0
H881 H 0.20169 0.66183 0.90355 0.0
H882 H 0.27255 0.63788 0.87017 0.0
H883 H 0.27068 0.60058 0.90281 0.0
C884 C 0.24928 0.69344 0.80889 0.0
C885 C 0.24182 0.71748 0.81978 0.0
C886 C 0.2474 0.67287 0.82935 0.0
C887 C 0.23802 0.67538 0.86169 0.0
C888 C 0.22996 0.69931 0.87246 0.0
C889 C 0.2319 0.7201 0.85182 0.0
C890 C 0.21604 0.62718 0.9227 0.0
C891 C 0.2353 0.6093 0.92308 0.0
C892 C 0.21701 0.64875 0.90348 0.0
C893 C 0.23717 0.65304 0.88376 0.0
C894 C 0.25649 0.63526 0.88448 0.0
C895 C 0.25556 0.61384 0.9037 0.0
H896 H 0.34113 0.27094 0.80311 0.0
H897 H 0.29942 0.24078 0.88128 0.0
H898 H 0.37932 0.26806 0.84014 0.0
H899 H 0.33817 0.23744 0.91848 0.0
H900 H 0.40922 0.26371 0.98728 0.0
H901 H 0.36969 0.26448 0.95113 0.0
H902 H 0.40785 0.23761 0.86431 0.0
H903 H 0.44721 0.23745 0.90046 0.0
C904 C 0.34009 0.26347 0.82815 0.0
C905 C 0.31711 0.25609 0.83917 0.0
C906 C 0.36212 0.26168 0.84937 0.0
C907 C 0.36189 0.25244 0.88228 0.0
C908 C 0.33896 0.24486 0.89336 0.0
C909 C 0.31679 0.2466 0.87198 0.0
C910 C 0.40896 0.25806 0.96042 0.0
C911 C 0.43106 0.25064 0.94642 0.0
C912 C 0.38639 0.25826 0.93981 0.0
C913 C 0.38557 0.25112 0.90478 0.0
C914 C 0.40783 0.24354 0.89103 0.0
C915 C 0.43033 0.24335 0.91163 0.0
H916 H 0.79582 0.29851 0.89451 0.0
H917 H 0.76115 0.34167 0.81327 0.0
H918 H 0.79932 0.33633 0.9322 0.0
H919 H 0.76435 0.37902 0.85063 0.0
H920 H 0.79293 0.44757 0.91461 0.0
H921 H 0.79281 0.40925 0.87825 0.0
H922 H 0.77479 0.36644 0.96361 0.0
H923 H 0.77528 0.40498 0.99986 0.0
C924 C 0.78905 0.316 0.88456 0.0
C925 C 0.77824 0.31681 0.85062 0.0
C926 C 0.79088 0.33775 0.90631 0.0
C927 C 0.78219 0.36103 0.89468 0.0
C928 C 0.77165 0.36174 0.86063 0.0
C929 C 0.76967 0.34009 0.83911 0.0
C930 C 0.78908 0.42992 0.92554 0.0
C931 C 0.78412 0.42928 0.96004 0.0
C932 C 0.78884 0.40789 0.90468 0.0
C933 C 0.78366 0.38446 0.91769 0.0
C934 C 0.77912 0.38391 0.95255 0.0
C935 C 0.77926 0.40601 0.97337 0.0
H936 H 0.72112 0.23718 0.16293 0.0
H937 H 0.67906 0.26246 0.24672 0.0
H938 H 0.68224 0.23357 0.1255 0.0
H939 H 0.64083 0.25948 0.2096 0.0
H940 H 0.57285 0.23157 0.14456 0.0
H941 H 0.61244 0.23019 0.17996 0.0
H942 H 0.65025 0.26043 0.09801 0.0
H943 H 0.61051 0.26099 0.06237 0.0
C944 C 0.70365 0.24179 0.17342 0.0
C945 C 0.70327 0.2501 0.20784 0.0
C946 C 0.6814 0.23993 0.15193 0.0
C947 C 0.65835 0.24621 0.16452 0.0
C948 C 0.65809 0.25409 0.19908 0.0
C949 C 0.68016 0.25596 0.22038 0.0
C950 C 0.58971 0.23779 0.13423 0.0
C951 C 0.58879 0.24642 0.10095 0.0
C952 C 0.61236 0.23712 0.15444 0.0
C953 C 0.63459 0.24529 0.14191 0.0
C954 C 0.6336 0.25371 0.10833 0.0
C955 C 0.61089 0.25428 0.08806 0.0
H956 H 0.78752 0.72606 0.15883 0.0
H957 H 0.74952 0.68436 0.23055 0.0
H958 H 0.79259 0.68731 0.12422 0.0
H959 H 0.75402 0.64644 0.19621 0.0
H960 H 0.78507 0.57668 0.14817 0.0
H961 H 0.78332 0.6163 0.18099 0.0
H962 H 0.77115 0.65517 0.08687 0.0
H963 H 0.77372 0.61528 0.05418 0.0
C964 C 0.78023 0.70876 0.16725 0.0
C965 C 0.76823 0.70857 0.19777 0.0
C966 C 0.78301 0.68648 0.1473 0.0
C967 C 0.77396 0.6634 0.15739 0.0
C968 C 0.76182 0.66348 0.18773 0.0
C969 C 0.75906 0.68552 0.20747 0.0
C970 C 0.78217 0.59373 0.13455 0.0
C971 C 0.77947 0.59281 0.09862 0.0
C972 C 0.78097 0.61653 0.15333 0.0
C973 C 0.77684 0.63924 0.13681 0.0
C974 C 0.77456 0.63829 0.10069 0.0
C975 C 0.77583 0.6154 0.08189 0.0
H976 H 0.30546 0.78289 0.18103 0.0
H977 H 0.33052 0.71535 0.22909 0.0
H978 H 0.34324 0.78354 0.15066 0.0
H979 H 0.36814 0.7157 0.19782 0.0
H980 H 0.40762 0.71258 0.09261 0.0
H981 H 0.37369 0.71198 0.12983 0.0
H982 H 0.39256 0.78683 0.16763 0.0
H983 H 0.42756 0.78716 0.13214 0.0
C984 C 0.31911 0.76825 0.18522 0.0
C985 C 0.31504 0.74906 0.20743 0.0
C986 C 0.34075 0.76869 0.16793 0.0
C987 C 0.35853 0.74965 0.17188 0.0
C988 C 0.35464 0.73056 0.19431 0.0
C989 C 0.33323 0.73043 0.21228 0.0
C990 C 0.4051 0.72876 0.10938 0.0
C991 C 0.42055 0.74997 0.10902 0.0
C992 C 0.3855 0.72839 0.13061 0.0
C993 C 0.38052 0.74936 0.15151 0.0
C994 C 0.39592 0.77048 0.15152 0.0
C995 C 0.41585 0.77069 0.13085 0.0
H996 H 0.24946 0.33024 0.23814 0.0
H997 H 0.22433 0.28193 0.15133 0.0
H998 H 0.24623 0.36608 0.20245 0.0
H999 H 0.22191 0.31799 0.11482 0.0
H1000 H 0.20219 0.3919 0.06247 0.0
H1001 H 0.20228 0.35565 0.09799 0.0
H1002 H 0.26556 0.38634 0.16111 0.0
H1003 H 0.26447 0.42303 0.1272 0.0
C1004 C 0.24328 0.32718 0.21129 0.0
C1005 C 0.23726 0.30295 0.19781 0.0
C1006 C 0.24163 0.3479 0.19054 0.0
C1007 C 0.23418 0.34529 0.15523 0.0
C1008 C 0.22757 0.32107 0.1418 0.0
C1009 C 0.22902 0.30024 0.16278 0.0
C1010 C 0.21594 0.39117 0.0842 0.0
C1011 C 0.23331 0.41082 0.09158 0.0
C1012 C 0.21621 0.37002 0.10445 0.0
C1013 C 0.23386 0.3677 0.13289 0.0
C1014 C 0.25129 0.38729 0.14003 0.0
C1015 C 0.25094 0.40841 0.11997 0.0
H1016 H 0.30823 0.23967 0.19104 0.0
H1017 H 0.35479 0.26299 0.28201 0.0
H1018 H 0.34441 0.23879 0.15807 0.0
H1019 H 0.39149 0.26163 0.2485 0.0
H1020 H 0.45047 0.2264 0.17326 0.0
H1021 H 0.4163 0.22725 0.21115 0.0
H1022 H 0.37365 0.27423 0.14148 0.0
H1023 H 0.40762 0.27364 0.10406 0.0
C1024 C 0.32624 0.2444 0.20419 0.0
C1025 C 0.32851 0.25145 0.2393 0.0
C1026 C 0.34698 0.24399 0.18513 0.0
C1027 C 0.37076 0.25025 0.20062 0.0
C1028 C 0.37336 0.25665 0.23593 0.0
C1029 C 0.35237 0.2575 0.25505 0.0
C1030 C 0.4338 0.23693 0.16617 0.0
C1031 C 0.43175 0.24997 0.13568 0.0
C1032 C 0.41436 0.23757 0.18795 0.0
C1033 C 0.39232 0.2508 0.17925 0.0
C1034 C 0.39037 0.26382 0.14882 0.0
C1035 C 0.40988 0.26356 0.12746 0.0
H1036 H 0.74504 0.32435 0.20574 0.0
H1037 H 0.75171 0.36638 0.3025 0.0
H1038 H 0.74385 0.36276 0.1754 0.0
H1039 H 0.75075 0.40551 0.27155 0.0
H1040 H 0.7885 0.4572 0.19031 0.0
H1041 H 0.78155 0.42462 0.23033 0.0
H1042 H 0.71577 0.40034 0.16695 0.0
H1043 H 0.72297 0.43218 0.1266 0.0
C1044 C 0.74612 0.3419 0.22055 0.0
C1045 C 0.74864 0.34243 0.25647 0.0
C1046 C 0.74519 0.36391 0.20313 0.0
C1047 C 0.74703 0.38708 0.22114 0.0
C1048 C 0.74924 0.38781 0.25716 0.0
C1049 C 0.74971 0.36555 0.27478 0.0
C1050 C 0.77239 0.44508 0.18519 0.0
C1051 C 0.75649 0.44705 0.15503 0.0
C1052 C 0.76825 0.42669 0.20832 0.0
C1053 C 0.74823 0.40992 0.20153 0.0
C1054 C 0.73142 0.41299 0.17264 0.0
C1055 C 0.7355 0.43133 0.14963 0.0
H1056 H 0.66139 0.72642 0.25244 0.0
H1057 H 0.68756 0.79163 0.20538 0.0
H1058 H 0.62462 0.72477 0.21089 0.0
H1059 H 0.65086 0.79049 0.16487 0.0
H1060 H 0.60088 0.76509 0.07117 0.0
H1061 H 0.63555 0.76652 0.11568 0.0
H1062 H 0.58585 0.74347 0.1894 0.0
H1063 H 0.55135 0.74144 0.14412 0.0
C1064 C 0.65905 0.7407 0.23375 0.0
C1065 C 0.67757 0.75903 0.23215 0.0
C1066 C 0.63796 0.73976 0.20984 0.0
C1067 C 0.63486 0.75722 0.18391 0.0
C1068 C 0.65283 0.77625 0.18365 0.0
C1069 C 0.67385 0.77706 0.20722 0.0
C1070 C 0.5975 0.76028 0.09691 0.0
C1071 C 0.57355 0.7532 0.10431 0.0
C1072 C 0.61727 0.76128 0.12257 0.0
C1073 C 0.6136 0.75538 0.15648 0.0
C1074 C 0.58954 0.74797 0.16368 0.0
C1075 C 0.56973 0.7469 0.13785 0.0
H1076 H 0.22592 0.71034 0.12074 0.0
H1077 H 0.20575 0.67836 0.21351 0.0
H1078 H 0.22244 0.66928 0.09133 0.0
H1079 H 0.20043 0.63766 0.1839 0.0
H1080 H 0.23146 0.56563 0.13967 0.0
H1081 H 0.22725 0.60708 0.16623 0.0
H1082 H 0.1995 0.63472 0.06812 0.0
H1083 H 0.2057 0.5934 0.04146 0.0
C1084 C 0.21988 0.6946 0.13439 0.0
C1085 C 0.21632 0.69723 0.16928 0.0
C1086 C 0.21781 0.67106 0.11762 0.0
C1087 C 0.21161 0.64994 0.1354 0.0
C1088 C 0.20607 0.65325 0.16967 0.0
C1089 C 0.20881 0.67658 0.18657 0.0
C1090 C 0.22469 0.58072 0.12394 0.0
C1091 C 0.21949 0.57673 0.0886 0.0
C1092 C 0.22183 0.6044 0.13912 0.0
C1093 C 0.21299 0.62441 0.11935 0.0
C1094 C 0.2068 0.61996 0.08405 0.0
C1095 C 0.21015 0.59634 0.0688 0.0
H1096 H 0.34854 0.72991 0.76056 0.0
H1097 H 0.32359 0.79395 0.81856 0.0
H1098 H 0.38536 0.72698 0.8015 0.0
H1099 H 0.36035 0.79148 0.85865 0.0
H1100 H 0.45937 0.74242 0.86974 0.0
H1101 H 0.42451 0.74532 0.8254 0.0
H1102 H 0.37555 0.76592 0.9036 0.0
H1103 H 0.41055 0.76357 0.94731 0.0
C1104 C 0.35113 0.74365 0.78161 0.0
C1105 C 0.33295 0.76205 0.78632 0.0
C1106 C 0.37226 0.74198 0.80516 0.0
C1107 C 0.37574 0.75872 0.83391 0.0
C1108 C 0.35808 0.77779 0.83751 0.0
C1109 C 0.33702 0.77936 0.81422 0.0
C1110 C 0.44105 0.74744 0.87721 0.0
C1111 C 0.43754 0.75281 0.91181 0.0
C1112 C 0.42106 0.74904 0.8519 0.0
C1113 C 0.39712 0.7561 0.86069 0.0
C1114 C 0.39373 0.76097 0.89559 0.0
C1115 C 0.41369 0.75942 0.92076 0.0
H1116 H 0.27764 0.32927 0.8477 0.0
H1117 H 0.25744 0.36876 0.75591 0.0
H1118 H 0.27362 0.3674 0.88227 0.0
H1119 H 0.25229 0.40727 0.79092 0.0
H1120 H 0.26393 0.47537 0.86953 0.0
H1121 H 0.27214 0.43971 0.83065 0.0
H1122 H 0.23813 0.39044 0.89783 0.0
H1123 H 0.23113 0.42575 0.93686 0.0
C1124 C 0.27239 0.34627 0.83496 0.0
C1125 C 0.26751 0.34614 0.7993 0.0
C1126 C 0.2699 0.36806 0.85476 0.0
C1127 C 0.26195 0.39019 0.83942 0.0
C1128 C 0.25839 0.39046 0.80345 0.0
C1129 C 0.26131 0.36853 0.78344 0.0
C1130 C 0.25835 0.4568 0.8757 0.0
C1131 C 0.24723 0.453 0.90612 0.0
C1132 C 0.26287 0.4365 0.85349 0.0
C1133 C 0.25616 0.41222 0.86145 0.0
C1134 C 0.24416 0.40879 0.89139 0.0
C1135 C 0.23992 0.42895 0.91359 0.0
H1136 H 0.70747 0.23894 0.84829 0.0
H1137 H 0.66283 0.27568 0.76868 0.0
H1138 H 0.67133 0.23492 0.88018 0.0
H1139 H 0.62597 0.27088 0.80048 0.0
H1140 H 0.57392 0.28424 0.88809 0.0
H1141 H 0.60764 0.28622 0.85073 0.0
H1142 H 0.63334 0.2139 0.88277 0.0
H1143 H 0.6007 0.21264 0.92171 0.0
C1144 C 0.68982 0.24591 0.83726 0.0
C1145 C 0.68819 0.25767 0.80577 0.0
C1146 C 0.6689 0.2434 0.85558 0.0
C1147 C 0.6455 0.25239 0.843 0.0
C1148 C 0.6437 0.26392 0.81123 0.0
C1149 C 0.6648 0.26654 0.79284 0.0
C1150 C 0.58685 0.2688 0.88742 0.0
C1151 C 0.58461 0.24842 0.9085 0.0
C1152 C 0.60605 0.26979 0.86549 0.0
C1153 C 0.62352 0.25035 0.8638 0.0
C1154 C 0.62062 0.2295 0.88378 0.0
C1155 C 0.60156 0.22859 0.90587 0.0
H1156 H 0.81998 0.7154 0.86928 0.0
H1157 H 0.76355 0.67872 0.79938 0.0
H1158 H 0.82519 0.67678 0.90075 0.0
H1159 H 0.76863 0.64087 0.83091 0.0
H1160 H 0.75764 0.59973 0.9304 0.0
H1161 H 0.75864 0.63721 0.89803 0.0
H1162 H 0.83649 0.62524 0.88468 0.0
H1163 H 0.83547 0.58664 0.91595 0.0
C1164 C 0.80893 0.69914 0.86046 0.0
C1165 C 0.79122 0.7002 0.83204 0.0
C1166 C 0.81201 0.67711 0.87831 0.0
C1167 C 0.79719 0.6561 0.86815 0.0
C1168 C 0.78015 0.65694 0.8392 0.0
C1169 C 0.7773 0.67867 0.82122 0.0
C1170 C 0.77493 0.60463 0.92007 0.0
C1171 C 0.79635 0.58978 0.92522 0.0
C1172 C 0.77551 0.62629 0.90191 0.0
C1173 C 0.79761 0.6339 0.88895 0.0
C1174 C 0.8193 0.61966 0.89471 0.0
C1175 C 0.81865 0.59764 0.91256 0.0
loop_
_geom_bond_atom_site_label_1
_geom_bond_atom_site_label_2
_geom_bond_distance
_geom_bond_site_symmetry_2
_ccdc_geom_bond_type
C0 O2 1.247 . S
C0 O4 1.258 . S
C1 O8 1.247 . S
C1 O9 1.258 . S
O2 C0 1.247 . S
O2 Zn3 2.028 . S
Zn3 O2 2.028 . S
Zn3 O7 2.035 . S
Zn3 O9 2.035 . S
Zn3 O10 2.028 . S
O4 C0 1.258 . S
O4 Zn5 2.035 . S
Zn5 O4 2.035 . S
Zn5 O6 2.028 . S
Zn5 O8 2.028 . S
Zn5 O11 2.035 . S
O6 Zn5 2.028 . S
O6 C12 1.247 . S
O7 Zn3 2.035 . S
O7 C12 1.258 . S
O8 C1 1.247 . S
O8 Zn5 2.028 . S
O9 C1 1.258 . S
O9 Zn3 2.035 . S
O10 Zn3 2.028 . S
O10 C13 1.247 . S
O11 Zn5 2.035 . S
O11 C13 1.258 . S
C12 O6 1.247 . S
C12 O7 1.258 . S
C13 O10 1.247 . S
C13 O11 1.258 . S
C14 O16 1.247 . S
C14 O18 1.258 . S
C15 O22 1.247 . S
C15 O23 1.258 . S
O16 C14 1.247 . S
O16 Zn17 2.028 . S
Zn17 O16 2.028 . S
Zn17 O21 2.035 . S
Zn17 O23 2.035 . S
Zn17 O24 2.028 . S
O18 C14 1.258 . S
O18 Zn19 2.035 . S
Zn19 O18 2.035 . S
Zn19 O20 2.028 . S
Zn19 O22 2.028 . S
Zn19 O25 2.035 . S
O20 Zn19 2.028 . S
O20 C26 1.247 . S
O21 Zn17 2.035 . S
O21 C26 1.258 . S
O22 C15 1.247 . S
O22 Zn19 2.028 . S
O23 C15 1.258 . S
O23 Zn17 2.035 . S
O24 Zn17 2.028 . S
O24 C27 1.247 . S
O25 Zn19 2.035 . S
O25 C27 1.258 . S
C26 O20 1.247 . S
C26 O21 1.258 . S
C27 O24 1.247 . S
C27 O25 1.258 . S
C28 O30 1.247 . S
C28 O32 1.258 . S
C29 O36 1.247 . S
C29 O37 1.258 . S
O30 C28 1.247 . S
O30 Zn31 2.028 . S
Zn31 O30 2.028 . S
Zn31 O35 2.035 . S
Zn31 O37 2.035 . S
Zn31 O38 2.028 . S
O32 C28 1.258 . S
O32 Zn33 2.035 . S
Zn33 O32 2.035 . S
Zn33 O34 2.028 . S
Zn33 O36 2.028 . S
Zn33 O39 2.035 . S
O34 Zn33 2.028 . S
O34 C40 1.247 . S
O35 Zn31 2.035 . S
O35 C40 1.258 . S
O36 C29 1.247 . S
O36 Zn33 2.028 . S
O37 C29 1.258 . S
O37 Zn31 2.035 . S
O38 Zn31 2.028 . S
O38 C41 1.247 . S
O39 Zn33 2.035 . S
O39 C41 1.258 . S
C40 O34 1.247 . S
C40 O35 1.258 . S
C41 O38 1.247 . S
C41 O39 1.258 . S
C42 O44 1.247 . S
C42 O46 1.258 . S
C43 O50 1.247 . S
C43 O51 1.258 . S
O44 C42 1.247 . S
O44 Zn45 2.028 . S
Zn45 O44 2.028 . S
Zn45 O49 2.035 . S
Zn45 O51 2.035 . S
Zn45 O52 2.028 . S
O46 C42 1.258 . S
O46 Zn47 2.035 . S
Zn47 O46 2.035 . S
Zn47 O48 2.028 . S
Zn47 O50 2.028 . S
Zn47 O53 2.035 . S
O48 Zn47 2.028 . S
O48 C54 1.247 . S
O49 Zn45 2.035 . S
O49 C54 1.258 . S
O50 C43 1.247 . S
O50 Zn47 2.028 . S
O51 C43 1.258 . S
O51 Zn45 2.035 . S
O52 Zn45 2.028 . S
O52 C55 1.247 . S
O53 Zn47 2.035 . S
O53 C55 1.258 . S
C54 O48 1.247 . S
C54 O49 1.258 . S
C55 O52 1.247 . S
C55 O53 1.258 . S
C56 O58 1.247 . S
C56 O60 1.258 . S
C57 O64 1.247 . S
C57 O65 1.258 . S
O58 C56 1.247 . S
O58 Zn59 2.028 . S
Zn59 O58 2.028 . S
Zn59 O63 2.035 . S
Zn59 O65 2.035 . S
Zn59 O66 2.028 . S
O60 C56 1.258 . S
O60 Zn61 2.035 . S
Zn61 O60 2.035 . S
Zn61 O62 2.028 . S
Zn61 O64 2.028 . S
Zn61 O67 2.035 . S
O62 Zn61 2.028 . S
O62 C68 1.247 . S
O63 Zn59 2.035 . S
O63 C68 1.258 . S
O64 C57 1.247 . S
O64 Zn61 2.028 . S
O65 C57 1.258 . S
O65 Zn59 2.035 . S
O66 Zn59 2.028 . S
O66 C69 1.247 . S
O67 Zn61 2.035 . S
O67 C69 1.258 . S
C68 O62 1.247 . S
C68 O63 1.258 . S
C69 O66 1.247 . S
C69 O67 1.258 . S
C70 O72 1.247 . S
C70 O74 1.258 . S
C71 O78 1.247 . S
C71 O79 1.258 . S
O72 C70 1.247 . S
O72 Zn73 2.028 . S
Zn73 O72 2.028 . S
Zn73 O77 2.035 . S
Zn73 O79 2.035 . S
Zn73 O80 2.028 . S
O74 C70 1.258 . S
O74 Zn75 2.035 . S
Zn75 O74 2.035 . S
Zn75 O76 2.028 . S
Zn75 O78 2.028 . S
Zn75 O81 2.035 . S
O76 Zn75 2.028 . S
O76 C82 1.247 . S
O77 Zn73 2.035 . S
O77 C82 1.258 . S
O78 C71 1.247 . S
O78 Zn75 2.028 . S
O79 C71 1.258 . S
O79 Zn73 2.035 . S
O80 Zn73 2.028 . S
O80 C83 1.247 . S
O81 Zn75 2.035 . S
O81 C83 1.258 . S
C82 O76 1.247 . S
C82 O77 1.258 . S
C83 O80 1.247 . S
C83 O81 1.258 . S
C84 O86 1.247 . S
C84 O88 1.258 . S
C85 O92 1.247 . S
C85 O93 1.258 . S
O86 C84 1.247 . S
O86 Zn87 2.028 . S
Zn87 O86 2.028 . S
Zn87 O91 2.035 . S
Zn87 O93 2.035 . S
Zn87 O94 2.028 . S
O88 C84 1.258 . S
O88 Zn89 2.035 . S
Zn89 O88 2.035 . S
Zn89 O90 2.028 . S
Zn89 O92 2.028 . S
Zn89 O95 2.035 . S
O90 Zn89 2.028 . S
O90 C96 1.247 . S
O91 Zn87 2.035 . S
O91 C96 1.258 . S
O92 C85 1.247 . S
O92 Zn89 2.028 . S
O93 C85 1.258 . S
O93 Zn87 2.035 . S
O94 Zn87 2.028 . S
O94 C97 1.247 . S
O95 Zn89 2.035 . S
O95 C97 1.258 . S
C96 O90 1.247 . S
C96 O91 1.258 . S
C97 O94 1.247 . S
C97 O95 1.258 . S
C98 O100 1.247 . S
C98 O102 1.258 . S
C99 O106 1.247 . S
C99 O107 1.258 . S
O100 C98 1.247 . S
O100 Zn101 2.028 . S
Zn101 O100 2.028 . S
Zn101 O105 2.035 . S
Zn101 O107 2.035 . S
Zn101 O108 2.028 . S
O102 C98 1.258 . S
O102 Zn103 2.035 . S
Zn103 O102 2.035 . S
Zn103 O104 2.028 . S
Zn103 O106 2.028 . S
Zn103 O109 2.035 . S
O104 Zn103 2.028 . S
O104 C110 1.247 . S
O105 Zn101 2.035 . S
O105 C110 1.258 . S
O106 C99 1.247 . S
O106 Zn103 2.028 . S
O107 C99 1.258 . S
O107 Zn101 2.035 . S
O108 Zn101 2.028 . S
O108 C111 1.247 . S
O109 Zn103 2.035 . S
O109 C111 1.258 . S
C110 O104 1.247 . S
C110 O105 1.258 . S
C111 O108 1.247 . S
C111 O109 1.258 . S
C112 C113 1.443 . S
C112 N116 1.376 . S
C112 C150 1.389 . S
C113 C112 1.443 . S
C113 C114 1.340 . S
C113 H153 0.951 . S
C114 C113 1.340 . S
C114 C115 1.439 . S
C114 H154 0.950 . S
C115 C114 1.439 . S
C115 N116 1.374 . S
C115 C149 1.395 . S
N116 C112 1.376 . S
N116 C115 1.374 . S
N116 Co117 2.008 . S
Co117 N116 2.008 . S
Co117 N118 1.995 1_455 S
Co117 N123 2.008 1_455 S
Co117 N128 1.995 . S
Co117 N133 2.282 1_455 S
Co117 N139 2.282 . S
N118 Co117 1.995 1_655 S
N118 C119 1.376 . S
N118 C122 1.383 . S
C119 N118 1.376 . S
C119 C120 1.446 . S
C119 C149 1.391 1_655 S
C120 C119 1.446 . S
C120 C121 1.339 . S
C120 H155 0.949 . S
C121 C120 1.339 . S
C121 C122 1.439 . S
C121 H156 0.950 . S
C122 N118 1.383 . S
C122 C121 1.439 . S
C122 C151 1.392 . S
N123 Co117 2.008 1_655 S
N123 C124 1.376 . S
N123 C127 1.374 . S
C124 N123 1.376 . S
C124 C125 1.443 . S
C124 C151 1.389 . S
C125 C124 1.443 . S
C125 C126 1.340 . S
C125 H157 0.951 . S
C126 C125 1.340 . S
C126 C127 1.439 . S
C126 H158 0.950 . S
C127 N123 1.374 . S
C127 C126 1.439 . S
C127 C152 1.398 . S
N128 Co117 1.995 . S
N128 C129 1.376 . S
N128 C132 1.383 . S
C129 N128 1.376 . S
C129 C130 1.446 . S
C129 C152 1.388 1_455 S
C130 C129 1.446 . S
C130 C131 1.339 . S
C130 H159 0.949 . S
C131 C130 1.339 . S
C131 C132 1.439 . S
C131 H160 0.950 . S
C132 N128 1.383 . S
C132 C131 1.439 . S
C132 C150 1.392 . S
N133 Co117 2.282 1_655 S
N133 C136 1.332 . S
N133 C138 1.332 . S
C134 C135 1.386 . S
C134 C137 1.388 . S
C135 C134 1.386 . S
C135 C136 1.382 . S
C135 H161 0.950 . S
C136 N133 1.332 . S
C136 C135 1.382 . S
C136 H147 0.952 . S
C137 C134 1.388 . S
C137 C138 1.382 . S
C137 H162 0.950 . S
C138 N133 1.332 . S
C138 C137 1.382 . S
C138 H148 0.948 . S
N139 Co117 2.282 . S
N139 C143 1.332 . S
N139 C144 1.332 . S
C140 C141 1.388 . S
C140 C144 1.382 . S
C140 H163 0.950 . S
C141 C140 1.388 . S
C141 C142 1.386 . S
C142 C141 1.386 . S
C142 C143 1.382 . S
C142 H164 0.950 . S
C143 N139 1.332 . S
C143 C142 1.382 . S
C143 H145 0.952 . S
C144 N139 1.332 . S
C144 C140 1.382 . S
C144 H146 0.948 . S
H145 C143 0.952 . S
H146 C144 0.948 . S
H147 C136 0.952 . S
H148 C138 0.948 . S
C149 C115 1.395 . S
C149 C119 1.391 1_455 S
C150 C112 1.389 . S
C150 C132 1.392 . S
C151 C122 1.392 . S
C151 C124 1.389 . S
C152 C127 1.398 . S
C152 C129 1.388 1_655 S
H153 C113 0.951 . S
H154 C114 0.950 . S
H155 C120 0.949 . S
H156 C121 0.950 . S
H157 C125 0.951 . S
H158 C126 0.950 . S
H159 C130 0.949 . S
H160 C131 0.950 . S
H161 C135 0.950 . S
H162 C137 0.950 . S
H163 C140 0.950 . S
H164 C142 0.950 . S
C165 C166 1.443 . S
C165 N169 1.376 . S
C165 C203 1.389 . S
C166 C165 1.443 . S
C166 C167 1.340 . S
C166 H206 0.951 . S
C167 C166 1.340 . S
C167 C168 1.439 . S
C167 H207 0.950 . S
C168 C167 1.439 . S
C168 N169 1.374 . S
C168 C202 1.395 . S
N169 C165 1.376 . S
N169 C168 1.374 . S
N169 Co170 2.008 . S
Co170 N169 2.008 . S
Co170 N171 1.995 1_545 S
Co170 N176 2.008 1_545 S
Co170 N181 1.995 . S
Co170 N186 2.282 1_545 S
Co170 N192 2.282 . S
N171 Co170 1.995 1_565 S
N171 C172 1.376 . S
N171 C175 1.383 . S
C172 N171 1.376 . S
C172 C173 1.446 . S
C172 C202 1.391 1_565 S
C173 C172 1.446 . S
C173 C174 1.339 . S
C173 H208 0.949 . S
C174 C173 1.339 . S
C174 C175 1.439 . S
C174 H209 0.950 . S
C175 N171 1.383 . S
C175 C174 1.439 . S
C175 C204 1.392 . S
N176 Co170 2.008 1_565 S
N176 C177 1.376 . S
N176 C180 1.374 . S
C177 N176 1.376 . S
C177 C178 1.443 . S
C177 C204 1.389 . S
C178 C177 1.443 . S
C178 C179 1.340 . S
C178 H210 0.951 . S
C179 C178 1.340 . S
C179 C180 1.439 . S
C179 H211 0.950 . S
C180 N176 1.374 . S
C180 C179 1.439 . S
C180 C205 1.395 . S
N181 Co170 1.995 . S
N181 C182 1.376 . S
N181 C185 1.383 . S
C182 N181 1.376 . S
C182 C183 1.446 . S
C182 C205 1.391 1_545 S
C183 C182 1.446 . S
C183 C184 1.339 . S
C183 H212 0.949 . S
C184 C183 1.339 . S
C184 C185 1.439 . S
C184 H213 0.950 . S
C185 N181 1.383 . S
C185 C184 1.439 . S
C185 C203 1.392 . S
N186 Co170 2.282 1_565 S
N186 C189 1.332 . S
N186 C191 1.332 . S
C187 C188 1.386 . S
C187 C190 1.388 . S
C188 C187 1.386 . S
C188 C189 1.382 . S
C188 H214 0.950 . S
C189 N186 1.332 . S
C189 C188 1.382 . S
C189 H200 0.952 . S
C190 C187 1.388 . S
C190 C191 1.382 . S
C190 H215 0.950 . S
C191 N186 1.332 . S
C191 C190 1.382 . S
C191 H201 0.948 . S
N192 Co170 2.282 . S
N192 C196 1.332 . S
N192 C197 1.332 . S
C193 C194 1.388 . S
C193 C197 1.382 . S
C193 H216 0.950 . S
C194 C193 1.388 . S
C194 C195 1.386 . S
C195 C194 1.386 . S
C195 C196 1.382 . S
C195 H217 0.950 . S
C196 N192 1.332 . S
C196 C195 1.382 . S
C196 H198 0.952 . S
C197 N192 1.332 . S
C197 C193 1.382 . S
C197 H199 0.948 . S
H198 C196 0.952 . S
H199 C197 0.948 . S
H200 C189 0.952 . S
H201 C191 0.948 . S
C202 C168 1.395 . S
C202 C172 1.391 1_545 S
C203 C165 1.389 . S
C203 C185 1.392 . S
C204 C175 1.392 . S
C204 C177 1.389 . S
C205 C180 1.395 . S
C205 C182 1.391 1_565 S
H206 C166 0.951 . S
H207 C167 0.950 . S
H208 C173 0.949 . S
H209 C174 0.950 . S
H210 C178 0.951 . S
H211 C179 0.950 . S
H212 C183 0.949 . S
H213 C184 0.950 . S
H214 C188 0.950 . S
H215 C190 0.950 . S
H216 C193 0.950 . S
H217 C195 0.950 . S
C218 C219 1.443 . S
C218 N222 1.376 . S
C218 C256 1.389 . S
C219 C218 1.443 . S
C219 C220 1.340 . S
C219 H259 0.951 . S
C220 C219 1.340 . S
C220 C221 1.439 . S
C220 H260 0.950 . S
C221 C220 1.439 . S
C221 N222 1.374 . S
C221 C255 1.395 . S
N222 C218 1.376 . S
N222 C221 1.374 . S
N222 Co223 2.008 . S
Co223 N222 2.008 . S
Co223 N224 1.995 1_455 S
Co223 N229 2.008 1_455 S
Co223 N234 1.995 . S
Co223 N239 2.282 1_455 S
Co223 N245 2.282 . S
N224 Co223 1.995 1_655 S
N224 C225 1.376 . S
N224 C228 1.383 . S
C225 N224 1.376 . S
C225 C226 1.446 . S
C225 C255 1.391 1_655 S
C226 C225 1.446 . S
C226 C227 1.339 . S
C226 H261 0.949 . S
C227 C226 1.339 . S
C227 C228 1.439 . S
C227 H262 0.950 . S
C228 N224 1.383 . S
C228 C227 1.439 . S
C228 C257 1.392 . S
N229 Co223 2.008 1_655 S
N229 C230 1.376 . S
N229 C233 1.374 . S
C230 N229 1.376 . S
C230 C231 1.443 . S
C230 C257 1.389 . S
C231 C230 1.443 . S
C231 C232 1.340 . S
C231 H263 0.951 . S
C232 C231 1.340 . S
C232 C233 1.439 . S
C232 H264 0.950 . S
C233 N229 1.374 . S
C233 C232 1.439 . S
C233 C258 1.395 . S
N234 Co223 1.995 . S
N234 C235 1.376 . S
N234 C238 1.383 . S
C235 N234 1.376 . S
C235 C236 1.446 . S
C235 C258 1.391 1_455 S
C236 C235 1.446 . S
C236 C237 1.339 . S
C236 H265 0.949 . S
C237 C236 1.339 . S
C237 C238 1.439 . S
C237 H266 0.950 . S
C238 N234 1.383 . S
C238 C237 1.439 . S
C238 C256 1.392 . S
N239 Co223 2.282 1_655 S
N239 C242 1.332 . S
N239 C244 1.332 . S
C240 C241 1.386 . S
C240 C243 1.388 . S
C241 C240 1.386 . S
C241 C242 1.382 . S
C241 H267 0.950 . S
C242 N239 1.332 . S
C242 C241 1.382 . S
C242 H253 0.952 . S
C243 C240 1.388 . S
C243 C244 1.382 . S
C243 H268 0.950 . S
C244 N239 1.332 . S
C244 C243 1.382 . S
C244 H254 0.948 . S
N245 Co223 2.282 . S
N245 C249 1.332 . S
N245 C250 1.332 . S
C246 C247 1.388 . S
C246 C250 1.382 . S
C246 H269 0.950 . S
C247 C246 1.388 . S
C247 C248 1.386 . S
C248 C247 1.386 . S
C248 C249 1.382 . S
C248 H270 0.950 . S
C249 N245 1.332 . S
C249 C248 1.382 . S
C249 H251 0.952 . S
C250 N245 1.332 . S
C250 C246 1.382 . S
C250 H252 0.948 . S
H251 C249 0.952 . S
H252 C250 0.948 . S
H253 C242 0.952 . S
H254 C244 0.948 . S
C255 C221 1.395 . S
C255 C225 1.391 1_455 S
C256 C218 1.389 . S
C256 C238 1.392 . S
C257 C228 1.392 . S
C257 C230 1.389 . S
C258 C233 1.395 . S
C258 C235 1.391 1_655 S
H259 C219 0.951 . S
H260 C220 0.950 . S
H261 C226 0.949 . S
H262 C227 0.950 . S
H263 C231 0.951 . S
H264 C232 0.950 . S
H265 C236 0.949 . S
H266 C237 0.950 . S
H267 C241 0.950 . S
H268 C243 0.950 . S
H269 C246 0.950 . S
H270 C248 0.950 . S
C271 C272 1.443 . S
C271 N275 1.376 . S
C271 C309 1.389 . S
C272 C271 1.443 . S
C272 C273 1.340 . S
C272 H312 0.951 . S
C273 C272 1.340 . S
C273 C274 1.439 . S
C273 H313 0.950 . S
C274 C273 1.439 . S
C274 N275 1.374 . S
C274 C308 1.395 . S
N275 C271 1.376 . S
N275 C274 1.374 . S
N275 Co276 2.008 1_565 S
Co276 N275 2.008 1_545 S
Co276 N277 1.995 . S
Co276 N282 2.008 . S
Co276 N287 1.995 1_545 S
Co276 N292 2.282 . S
Co276 N298 2.282 1_545 S
N277 Co276 1.995 . S
N277 C278 1.376 . S
N277 C281 1.383 . S
C278 N277 1.376 . S
C278 C279 1.446 . S
C278 C308 1.391 1_545 S
C279 C278 1.446 . S
C279 C280 1.339 . S
C279 H314 0.949 . S
C280 C279 1.339 . S
C280 C281 1.439 . S
C280 H315 0.950 . S
C281 N277 1.383 . S
C281 C280 1.439 . S
C281 C310 1.392 . S
N282 Co276 2.008 . S
N282 C283 1.376 . S
N282 C286 1.374 . S
C283 N282 1.376 . S
C283 C284 1.443 . S
C283 C310 1.389 . S
C284 C283 1.443 . S
C284 C285 1.340 . S
C284 H316 0.951 . S
C285 C284 1.340 . S
C285 C286 1.439 . S
C285 H317 0.950 . S
C286 N282 1.374 . S
C286 C285 1.439 . S
C286 C311 1.395 . S
N287 Co276 1.995 1_565 S
N287 C288 1.376 . S
N287 C291 1.383 . S
C288 N287 1.376 . S
C288 C289 1.446 . S
C288 C311 1.391 1_565 S
C289 C288 1.446 . S
C289 C290 1.339 . S
C289 H318 0.949 . S
C290 C289 1.339 . S
C290 C291 1.439 . S
C290 H319 0.950 . S
C291 N287 1.383 . S
C291 C290 1.439 . S
C291 C309 1.392 . S
N292 Co276 2.282 . S
N292 C295 1.332 . S
N292 C297 1.332 . S
C293 C294 1.386 . S
C293 C296 1.388 . S
C294 C293 1.386 . S
C294 C295 1.382 . S
C294 H320 0.950 . S
C295 N292 1.332 . S
C295 C294 1.382 . S
C295 H306 0.952 . S
C296 C293 1.388 . S
C296 C297 1.382 . S
C296 H321 0.950 . S
C297 N292 1.332 . S
C297 C296 1.382 . S
C297 H307 0.948 . S
N298 Co276 2.282 1_565 S
N298 C302 1.332 . S
N298 C303 1.332 . S
C299 C300 1.388 . S
C299 C303 1.382 . S
C299 H322 0.950 . S
C300 C299 1.388 . S
C300 C301 1.386 . S
C301 C300 1.386 . S
C301 C302 1.382 . S
C301 H323 0.950 . S
C302 N298 1.332 . S
C302 C301 1.382 . S
C302 H304 0.952 . S
C303 N298 1.332 . S
C303 C299 1.382 . S
C303 H305 0.948 . S
H304 C302 0.952 . S
H305 C303 0.948 . S
H306 C295 0.952 . S
H307 C297 0.948 . S
C308 C274 1.395 . S
C308 C278 1.391 1_565 S
C309 C271 1.389 . S
C309 C291 1.392 . S
C310 C281 1.392 . S
C310 C283 1.389 . S
C311 C286 1.395 . S
C311 C288 1.391 1_545 S
H312 C272 0.951 . S
H313 C273 0.950 . S
H314 C279 0.949 . S
H315 C280 0.950 . S
H316 C284 0.951 . S
H317 C285 0.950 . S
H318 C289 0.949 . S
H319 C290 0.950 . S
H320 C294 0.950 . S
H321 C296 0.950 . S
H322 C299 0.950 . S
H323 C301 0.950 . S
C324 C325 1.443 . S
C324 N328 1.376 . S
C324 C362 1.389 . S
C325 C324 1.443 . S
C325 C326 1.340 . S
C325 H365 0.951 . S
C326 C325 1.340 . S
C326 C327 1.439 . S
C326 H366 0.950 . S
C327 C326 1.439 . S
C327 N328 1.374 . S
C327 C361 1.383 1_554 S
N328 C324 1.376 . S
N328 C327 1.374 . S
N328 Co329 2.010 . S
Co329 N328 2.010 . S
Co329 N330 1.992 1_554 S
Co329 N335 2.006 1_554 S
Co329 N340 1.997 . S
Co329 N345 2.286 . S
Co329 N351 2.279 1_554 S
N330 Co329 1.992 1_556 S
N330 C331 1.376 . S
N330 C334 1.383 . S
C331 N330 1.376 . S
C331 C332 1.446 . S
C331 C361 1.402 . S
C332 C331 1.446 . S
C332 C333 1.339 . S
C332 H367 0.949 . S
C333 C332 1.339 . S
C333 C334 1.439 . S
C333 H368 0.950 . S
C334 N330 1.383 . S
C334 C333 1.439 . S
C334 C363 1.392 . S
N335 Co329 2.006 1_556 S
N335 C336 1.376 . S
N335 C339 1.374 . S
C336 N335 1.376 . S
C336 C337 1.443 . S
C336 C363 1.389 . S
C337 C336 1.443 . S
C337 C338 1.340 . S
C337 H369 0.951 . S
C338 C337 1.340 . S
C338 C339 1.439 . S
C338 H370 0.950 . S
C339 N335 1.374 . S
C339 C338 1.439 . S
C339 C364 1.395 1_556 S
N340 Co329 1.997 . S
N340 C341 1.376 . S
N340 C344 1.383 . S
C341 N340 1.376 . S
C341 C342 1.446 . S
C341 C364 1.391 . S
C342 C341 1.446 . S
C342 C343 1.339 . S
C342 H371 0.949 . S
C343 C342 1.339 . S
C343 C344 1.439 . S
C343 H372 0.950 . S
C344 N340 1.383 . S
C344 C343 1.439 . S
C344 C362 1.392 . S
N345 Co329 2.286 . S
N345 C348 1.332 . S
N345 C350 1.332 . S
C346 C347 1.386 . S
C346 C349 1.388 . S
C347 C346 1.386 . S
C347 C348 1.382 . S
C347 H373 0.950 . S
C348 N345 1.332 . S
C348 C347 1.382 . S
C348 H359 0.952 . S
C349 C346 1.388 . S
C349 C350 1.382 . S
C349 H374 0.950 . S
C350 N345 1.332 . S
C350 C349 1.382 . S
C350 H360 0.948 . S
N351 Co329 2.279 1_556 S
N351 C355 1.332 . S
N351 C356 1.332 . S
C352 C353 1.388 . S
C352 C356 1.382 . S
C352 H375 0.950 . S
C353 C352 1.388 . S
C353 C354 1.386 . S
C354 C353 1.386 . S
C354 C355 1.382 . S
C354 H376 0.950 . S
C355 N351 1.332 . S
C355 C354 1.382 . S
C355 H357 0.952 . S
C356 N351 1.332 . S
C356 C352 1.382 . S
C356 H358 0.948 . S
H357 C355 0.952 . S
H358 C356 0.948 . S
H359 C348 0.952 . S
H360 C350 0.948 . S
C361 C327 1.383 1_556 S
C361 C331 1.402 . S
C362 C324 1.389 . S
C362 C344 1.392 . S
C363 C334 1.392 . S
C363 C336 1.389 . S
C364 C339 1.395 1_554 S
C364 C341 1.391 . S
H365 C325 0.951 . S
H366 C326 0.950 . S
H367 C332 0.949 . S
H368 C333 0.950 . S
H369 C337 0.951 . S
H370 C338 0.950 . S
H371 C342 0.949 . S
H372 C343 0.950 . S
H373 C347 0.950 . S
H374 C349 0.950 . S
H375 C352 0.950 . S
H376 C354 0.950 . S
C377 C378 1.443 . S
C377 N381 1.376 . S
C377 C415 1.389 . S
C378 C377 1.443 . S
C378 C379 1.340 . S
C378 H418 0.951 . S
C379 C378 1.340 . S
C379 C380 1.439 . S
C379 H419 0.950 . S
C380 C379 1.439 . S
C380 N381 1.374 . S
C380 C414 1.395 1_554 S
N381 C377 1.376 . S
N381 C380 1.374 . S
N381 Co382 2.008 . S
Co382 N381 2.008 . S
Co382 N383 1.995 1_554 S
Co382 N388 2.008 1_554 S
Co382 N393 1.995 . S
Co382 N398 2.282 . S
Co382 N404 2.282 1_554 S
N383 Co382 1.995 1_556 S
N383 C384 1.376 . S
N383 C387 1.383 . S
C384 N383 1.376 . S
C384 C385 1.446 . S
C384 C414 1.391 . S
C385 C384 1.446 . S
C385 C386 1.339 . S
C385 H420 0.949 . S
C386 C385 1.339 . S
C386 C387 1.439 . S
C386 H421 0.950 . S
C387 N383 1.383 . S
C387 C386 1.439 . S
C387 C416 1.392 . S
N388 Co382 2.008 1_556 S
N388 C389 1.376 . S
N388 C392 1.374 1_556 S
C389 N388 1.376 . S
C389 C390 1.443 . S
C389 C416 1.389 . S
C390 C389 1.443 . S
C390 C391 1.340 . S
C390 H422 0.951 . S
C391 C390 1.340 . S
C391 C392 1.439 1_556 S
C391 H423 0.950 . S
C392 N388 1.374 1_554 S
C392 C391 1.439 1_554 S
C392 C417 1.395 . S
N393 Co382 1.995 . S
N393 C394 1.376 . S
N393 C397 1.383 . S
C394 N393 1.376 . S
C394 C395 1.446 . S
C394 C417 1.391 . S
C395 C394 1.446 . S
C395 C396 1.339 . S
C395 H424 0.949 . S
C396 C395 1.339 . S
C396 C397 1.439 . S
C396 H425 0.950 . S
C397 N393 1.383 . S
C397 C396 1.439 . S
C397 C415 1.392 . S
N398 Co382 2.282 . S
N398 C401 1.332 . S
N398 C403 1.332 . S
C399 C400 1.386 . S
C399 C402 1.388 . S
C400 C399 1.386 . S
C400 C401 1.382 . S
C400 H426 0.950 . S
C401 N398 1.332 . S
C401 C400 1.382 . S
C401 H412 0.952 . S
C402 C399 1.388 . S
C402 C403 1.382 . S
C402 H427 0.950 . S
C403 N398 1.332 . S
C403 C402 1.382 . S
C403 H413 0.948 . S
N404 Co382 2.282 1_556 S
N404 C408 1.332 . S
N404 C409 1.332 . S
C405 C406 1.388 . S
C405 C409 1.382 . S
C405 H428 0.950 . S
C406 C405 1.388 . S
C406 C407 1.386 . S
C407 C406 1.386 . S
C407 C408 1.382 . S
C407 H429 0.950 . S
C408 N404 1.332 . S
C408 C407 1.382 . S
C408 H410 0.952 . S
C409 N404 1.332 . S
C409 C405 1.382 . S
C409 H411 0.948 . S
H410 C408 0.952 . S
H411 C409 0.948 . S
H412 C401 0.952 . S
H413 C403 0.948 . S
C414 C380 1.395 1_556 S
C414 C384 1.391 . S
C415 C377 1.389 . S
C415 C397 1.392 . S
C416 C387 1.392 . S
C416 C389 1.389 . S
C417 C392 1.395 . S
C417 C394 1.391 . S
H418 C378 0.951 . S
H419 C379 0.950 . S
H420 C385 0.949 . S
H421 C386 0.950 . S
H422 C390 0.951 . S
H423 C391 0.950 . S
H424 C395 0.949 . S
H425 C396 0.950 . S
H426 C400 0.950 . S
H427 C402 0.950 . S
H428 C405 0.950 . S
H429 C407 0.950 . S
C430 C431 1.443 . S
C430 N434 1.362 1_556 S
C430 C468 1.389 . S
C431 C430 1.443 . S
C431 C432 1.340 . S
C431 H471 0.951 . S
C432 C431 1.340 . S
C432 C433 1.439 1_556 S
C432 H472 0.950 . S
C433 C432 1.439 1_554 S
C433 N434 1.380 . S
C433 C467 1.395 . S
N434 C430 1.362 1_554 S
N434 C433 1.380 . S
N434 Co435 2.019 . S
Co435 N434 2.019 . S
Co435 N436 1.995 . S
Co435 N441 2.008 . S
Co435 N446 1.995 1_554 S
Co435 N451 2.282 1_554 S
Co435 N457 2.282 . S
N436 Co435 1.995 . S
N436 C437 1.376 . S
N436 C440 1.383 . S
C437 N436 1.376 . S
C437 C438 1.446 . S
C437 C467 1.391 . S
C438 C437 1.446 . S
C438 C439 1.339 . S
C438 H473 0.949 . S
C439 C438 1.339 . S
C439 C440 1.439 . S
C439 H474 0.950 . S
C440 N436 1.383 . S
C440 C439 1.439 . S
C440 C469 1.392 . S
N441 Co435 2.008 . S
N441 C442 1.376 . S
N441 C445 1.374 . S
C442 N441 1.376 . S
C442 C443 1.443 . S
C442 C469 1.389 . S
C443 C442 1.443 . S
C443 C444 1.340 . S
C443 H475 0.951 . S
C444 C443 1.340 . S
C444 C445 1.439 . S
C444 H476 0.950 . S
C445 N441 1.374 . S
C445 C444 1.439 . S
C445 C470 1.395 . S
N446 Co435 1.995 1_556 S
N446 C447 1.376 . S
N446 C450 1.383 . S
C447 N446 1.376 . S
C447 C448 1.446 . S
C447 C470 1.391 1_556 S
C448 C447 1.446 . S
C448 C449 1.339 . S
C448 H477 0.949 . S
C449 C448 1.339 . S
C449 C450 1.439 . S
C449 H478 0.950 . S
C450 N446 1.383 . S
C450 C449 1.439 . S
C450 C468 1.392 . S
N451 Co435 2.282 1_556 S
N451 C454 1.332 . S
N451 C456 1.332 . S
C452 C453 1.386 . S
C452 C455 1.388 . S
C453 C452 1.386 . S
C453 C454 1.382 . S
C453 H479 0.950 . S
C454 N451 1.332 . S
C454 C453 1.382 . S
C454 H465 0.952 . S
C455 C452 1.388 . S
C455 C456 1.382 . S
C455 H480 0.950 . S
C456 N451 1.332 . S
C456 C455 1.382 . S
C456 H466 0.948 . S
N457 Co435 2.282 . S
N457 C461 1.332 . S
N457 C462 1.332 . S
C458 C459 1.388 . S
C458 C462 1.382 . S
C458 H481 0.950 . S
C459 C458 1.388 . S
C459 C460 1.386 . S
C460 C459 1.386 . S
C460 C461 1.382 . S
C460 H482 0.950 . S
C461 N457 1.332 . S
C461 C460 1.382 . S
C461 H463 0.952 . S
C462 N457 1.332 . S
C462 C458 1.382 . S
C462 H464 0.948 . S
H463 C461 0.952 . S
H464 C462 0.948 . S
H465 C454 0.952 . S
H466 C456 0.948 . S
C467 C433 1.395 . S
C467 C437 1.391 . S
C468 C430 1.389 . S
C468 C450 1.392 . S
C469 C440 1.392 . S
C469 C442 1.389 . S
C470 C445 1.395 . S
C470 C447 1.391 1_554 S
H471 C431 0.951 . S
H472 C432 0.950 . S
H473 C438 0.949 . S
H474 C439 0.950 . S
H475 C443 0.951 . S
H476 C444 0.950 . S
H477 C448 0.949 . S
H478 C449 0.950 . S
H479 C453 0.950 . S
H480 C455 0.950 . S
H481 C458 0.950 . S
H482 C460 0.950 . S
C483 C484 1.443 . S
C483 N487 1.376 . S
C483 C521 1.389 . S
C484 C483 1.443 . S
C484 C485 1.340 . S
C484 H524 0.951 . S
C485 C484 1.340 . S
C485 C486 1.439 . S
C485 H525 0.950 . S
C486 C485 1.439 . S
C486 N487 1.374 . S
C486 C520 1.395 1_554 S
N487 C483 1.376 . S
N487 C486 1.374 . S
N487 Co488 2.008 . S
Co488 N487 2.008 . S
Co488 N489 1.995 1_554 S
Co488 N494 2.008 1_554 S
Co488 N499 1.995 . S
Co488 N504 2.282 . S
Co488 N510 2.282 1_554 S
N489 Co488 1.995 1_556 S
N489 C490 1.376 . S
N489 C493 1.383 . S
C490 N489 1.376 . S
C490 C491 1.446 . S
C490 C520 1.391 . S
C491 C490 1.446 . S
C491 C492 1.339 . S
C491 H526 0.949 . S
C492 C491 1.339 . S
C492 C493 1.439 . S
C492 H527 0.950 . S
C493 N489 1.383 . S
C493 C492 1.439 . S
C493 C522 1.392 . S
N494 Co488 2.008 1_556 S
N494 C495 1.376 . S
N494 C498 1.374 1_556 S
C495 N494 1.376 . S
C495 C496 1.443 . S
C495 C522 1.389 . S
C496 C495 1.443 . S
C496 C497 1.340 . S
C496 H528 0.951 . S
C497 C496 1.340 . S
C497 C498 1.439 1_556 S
C497 H529 0.950 . S
C498 N494 1.374 1_554 S
C498 C497 1.439 1_554 S
C498 C523 1.395 . S
N499 Co488 1.995 . S
N499 C500 1.376 . S
N499 C503 1.383 . S
C500 N499 1.376 . S
C500 C501 1.446 . S
C500 C523 1.391 . S
C501 C500 1.446 . S
C501 C502 1.339 . S
C501 H530 0.949 . S
C502 C501 1.339 . S
C502 C503 1.439 . S
C502 H531 0.950 . S
C503 N499 1.383 . S
C503 C502 1.439 . S
C503 C521 1.392 . S
N504 Co488 2.282 . S
N504 C507 1.332 . S
N504 C509 1.332 . S
C505 C506 1.386 . S
C505 C508 1.388 . S
C506 C505 1.386 . S
C506 C507 1.382 . S
C506 H532 0.950 . S
C507 N504 1.332 . S
C507 C506 1.382 . S
C507 H518 0.952 . S
C508 C505 1.388 . S
C508 C509 1.382 . S
C508 H533 0.950 . S
C509 N504 1.332 . S
C509 C508 1.382 . S
C509 H519 0.948 . S
N510 Co488 2.282 1_556 S
N510 C514 1.332 . S
N510 C515 1.332 . S
C511 C512 1.388 . S
C511 C515 1.382 . S
C511 H534 0.950 . S
C512 C511 1.388 . S
C512 C513 1.386 . S
C513 C512 1.386 . S
C513 C514 1.382 . S
C513 H535 0.950 . S
C514 N510 1.332 . S
C514 C513 1.382 . S
C514 H516 0.952 . S
C515 N510 1.332 . S
C515 C511 1.382 . S
C515 H517 0.948 . S
H516 C514 0.952 . S
H517 C515 0.948 . S
H518 C507 0.952 . S
H519 C509 0.948 . S
C520 C486 1.395 1_556 S
C520 C490 1.391 . S
C521 C483 1.389 . S
C521 C503 1.392 . S
C522 C493 1.392 . S
C522 C495 1.389 . S
C523 C498 1.395 . S
C523 C500 1.391 . S
H524 C484 0.951 . S
H525 C485 0.950 . S
H526 C491 0.949 . S
H527 C492 0.950 . S
H528 C496 0.951 . S
H529 C497 0.950 . S
H530 C501 0.949 . S
H531 C502 0.950 . S
H532 C506 0.950 . S
H533 C508 0.950 . S
H534 C511 0.950 . S
H535 C513 0.950 . S
H536 C544 0.950 . S
H537 C549 0.950 . S
H538 C546 0.950 . S
H539 C548 0.950 . S
H540 C550 0.950 . S
H541 C552 0.950 . S
H542 C554 0.950 . S
H543 C555 0.950 . S
C544 H536 0.950 . S
C544 C545 1.386 . S
C544 C546 1.391 . S
C545 C544 1.386 . S
C545 C549 1.393 . S
C546 H538 0.950 . S
C546 C544 1.391 . S
C546 C547 1.400 . S
C547 C546 1.400 . S
C547 C548 1.398 . S
C547 C553 1.491 . S
C548 H539 0.950 . S
C548 C547 1.398 . S
C548 C549 1.391 . S
C549 H537 0.950 . S
C549 C545 1.393 . S
C549 C548 1.391 . S
C550 H540 0.950 . S
C550 C551 1.386 . S
C550 C552 1.391 . S
C551 C550 1.386 . S
C551 C555 1.393 . S
C552 H541 0.950 . S
C552 C550 1.391 . S
C552 C553 1.400 . S
C553 C547 1.491 . S
C553 C552 1.400 . S
C553 C554 1.398 . S
C554 H542 0.950 . S
C554 C553 1.398 . S
C554 C555 1.391 . S
C555 H543 0.950 . S
C555 C551 1.393 . S
C555 C554 1.391 . S
H556 C564 0.950 . S
H557 C569 0.950 . S
H558 C566 0.950 . S
H559 C568 0.950 . S
H560 C570 0.950 . S
H561 C572 0.950 . S
H562 C574 0.950 . S
H563 C575 0.950 . S
C564 H556 0.950 . S
C564 C565 1.386 . S
C564 C566 1.391 . S
C565 C564 1.386 . S
C565 C569 1.393 . S
C566 H558 0.950 . S
C566 C564 1.391 . S
C566 C567 1.400 . S
C567 C566 1.400 . S
C567 C568 1.398 . S
C567 C573 1.491 . S
C568 H559 0.950 . S
C568 C567 1.398 . S
C568 C569 1.391 . S
C569 H557 0.950 . S
C569 C565 1.393 . S
C569 C568 1.391 . S
C570 H560 0.950 . S
C570 C571 1.386 . S
C570 C572 1.391 . S
C571 C570 1.386 . S
C571 C575 1.393 . S
C572 H561 0.950 . S
C572 C570 1.391 . S
C572 C573 1.400 . S
C573 C567 1.491 . S
C573 C572 1.400 . S
C573 C574 1.398 . S
C574 H562 0.950 . S
C574 C573 1.398 . S
C574 C575 1.391 . S
C575 H563 0.950 . S
C575 C571 1.393 . S
C575 C574 1.391 . S
H576 C584 0.950 . S
H577 C589 0.950 . S
H578 C586 0.950 . S
H579 C588 0.950 . S
H580 C590 0.950 . S
H581 C592 0.950 . S
H582 C594 0.950 . S
H583 C595 0.950 . S
C584 H576 0.950 . S
C584 C585 1.386 . S
C584 C586 1.391 . S
C585 C584 1.386 . S
C585 C589 1.393 . S
C586 H578 0.950 . S
C586 C584 1.391 . S
C586 C587 1.400 . S
C587 C586 1.400 . S
C587 C588 1.398 . S
C587 C593 1.491 . S
C588 H579 0.950 . S
C588 C587 1.398 . S
C588 C589 1.391 . S
C589 H577 0.950 . S
C589 C585 1.393 . S
C589 C588 1.391 . S
C590 H580 0.950 . S
C590 C591 1.386 . S
C590 C592 1.391 . S
C591 C590 1.386 . S
C591 C595 1.393 . S
C592 H581 0.950 . S
C592 C590 1.391 . S
C592 C593 1.400 . S
C593 C587 1.491 . S
C593 C592 1.400 . S
C593 C594 1.398 . S
C594 H582 0.950 . S
C594 C593 1.398 . S
C594 C595 1.391 . S
C595 H583 0.950 . S
C595 C591 1.393 . S
C595 C594 1.391 . S
H596 C604 0.950 . S
H597 C609 0.950 . S
H598 C606 0.950 . S
H599 C608 0.950 . S
H600 C610 0.950 . S
H601 C612 0.950 . S
H602 C614 0.950 . S
H603 C615 0.950 . S
C604 H596 0.950 . S
C604 C605 1.386 . S
C604 C606 1.391 . S
C605 C604 1.386 . S
C605 C609 1.393 . S
C606 H598 0.950 . S
C606 C604 1.391 . S
C606 C607 1.400 . S
C607 C606 1.400 . S
C607 C608 1.398 . S
C607 C613 1.491 . S
C608 H599 0.950 . S
C608 C607 1.398 . S
C608 C609 1.391 . S
C609 H597 0.950 . S
C609 C605 1.393 . S
C609 C608 1.391 . S
C610 H600 0.950 . S
C610 C611 1.386 . S
C610 C612 1.391 . S
C611 C610 1.386 . S
C611 C615 1.393 . S
C612 H601 0.950 . S
C612 C610 1.391 . S
C612 C613 1.400 . S
C613 C607 1.491 . S
C613 C612 1.400 . S
C613 C614 1.398 . S
C614 H602 0.950 . S
C614 C613 1.398 . S
C614 C615 1.391 . S
C615 H603 0.950 . S
C615 C611 1.393 . S
C615 C614 1.391 . S
H616 C624 0.950 . S
H617 C629 0.950 . S
H618 C626 0.950 . S
H619 C628 0.950 . S
H620 C630 0.950 . S
H621 C632 0.950 . S
H622 C634 0.950 . S
H623 C635 0.950 . S
C624 H616 0.950 . S
C624 C625 1.386 . S
C624 C626 1.391 . S
C625 C624 1.386 . S
C625 C629 1.393 . S
C626 H618 0.950 . S
C626 C624 1.391 . S
C626 C627 1.400 . S
C627 C626 1.400 . S
C627 C628 1.398 . S
C627 C633 1.491 . S
C628 H619 0.950 . S
C628 C627 1.398 . S
C628 C629 1.391 . S
C629 H617 0.950 . S
C629 C625 1.393 . S
C629 C628 1.391 . S
C630 H620 0.950 . S
C630 C631 1.386 . S
C630 C632 1.391 . S
C631 C630 1.386 . S
C631 C635 1.393 . S
C632 H621 0.950 . S
C632 C630 1.391 . S
C632 C633 1.400 . S
C633 C627 1.491 . S
C633 C632 1.400 . S
C633 C634 1.398 . S
C634 H622 0.950 . S
C634 C633 1.398 . S
C634 C635 1.391 . S
C635 H623 0.950 . S
C635 C631 1.393 . S
C635 C634 1.391 . S
H636 C644 0.950 . S
H637 C649 0.950 . S
H638 C646 0.950 . S
H639 C648 0.950 . S
H640 C650 0.950 . S
H641 C652 0.950 . S
H642 C654 0.950 . S
H643 C655 0.950 . S
C644 H636 0.950 . S
C644 C645 1.386 . S
C644 C646 1.391 . S
C645 C644 1.386 . S
C645 C649 1.393 . S
C646 H638 0.950 . S
C646 C644 1.391 . S
C646 C647 1.400 . S
C647 C646 1.400 . S
C647 C648 1.398 . S
C647 C653 1.491 . S
C648 H639 0.950 . S
C648 C647 1.398 . S
C648 C649 1.391 . S
C649 H637 0.950 . S
C649 C645 1.393 . S
C649 C648 1.391 . S
C650 H640 0.950 . S
C650 C651 1.386 . S
C650 C652 1.391 . S
C651 C650 1.386 . S
C651 C655 1.393 . S
C652 H641 0.950 . S
C652 C650 1.391 . S
C652 C653 1.400 . S
C653 C647 1.491 . S
C653 C652 1.400 . S
C653 C654 1.398 . S
C654 H642 0.950 . S
C654 C653 1.398 . S
C654 C655 1.391 . S
C655 H643 0.950 . S
C655 C651 1.393 . S
C655 C654 1.391 . S
H656 C664 0.950 . S
H657 C669 0.950 . S
H658 C666 0.950 . S
H659 C668 0.950 . S
H660 C670 0.950 . S
H661 C672 0.950 . S
H662 C674 0.950 . S
H663 C675 0.950 . S
C664 H656 0.950 . S
C664 C665 1.386 . S
C664 C666 1.391 . S
C665 C664 1.386 . S
C665 C669 1.393 . S
C666 H658 0.950 . S
C666 C664 1.391 . S
C666 C667 1.400 . S
C667 C666 1.400 . S
C667 C668 1.398 . S
C667 C673 1.491 . S
C668 H659 0.950 . S
C668 C667 1.398 . S
C668 C669 1.391 . S
C669 H657 0.950 . S
C669 C665 1.393 . S
C669 C668 1.391 . S
C670 H660 0.950 . S
C670 C671 1.386 . S
C670 C672 1.391 . S
C671 C670 1.386 . S
C671 C675 1.393 . S
C672 H661 0.950 . S
C672 C670 1.391 . S
C672 C673 1.400 . S
C673 C667 1.491 . S
C673 C672 1.400 . S
C673 C674 1.398 . S
C674 H662 0.950 . S
C674 C673 1.398 . S
C674 C675 1.391 . S
C675 H663 0.950 . S
C675 C671 1.393 . S
C675 C674 1.391 . S
H676 C684 0.950 . S
H677 C689 0.950 . S
H678 C686 0.950 . S
H679 C688 0.950 . S
H680 C690 0.950 . S
H681 C692 0.950 . S
H682 C694 0.950 . S
H683 C695 0.950 . S
C684 H676 0.950 . S
C684 C685 1.386 . S
C684 C686 1.391 . S
C685 C684 1.386 . S
C685 C689 1.393 . S
C686 H678 0.950 . S
C686 C684 1.391 . S
C686 C687 1.400 . S
C687 C686 1.400 . S
C687 C688 1.398 . S
C687 C693 1.491 . S
C688 H679 0.950 . S
C688 C687 1.398 . S
C688 C689 1.391 . S
C689 H677 0.950 . S
C689 C685 1.393 . S
C689 C688 1.391 . S
C690 H680 0.950 . S
C690 C691 1.386 . S
C690 C692 1.391 . S
C691 C690 1.386 . S
C691 C695 1.393 . S
C692 H681 0.950 . S
C692 C690 1.391 . S
C692 C693 1.400 . S
C693 C687 1.491 . S
C693 C692 1.400 . S
C693 C694 1.398 . S
C694 H682 0.950 . S
C694 C693 1.398 . S
C694 C695 1.391 . S
C695 H683 0.950 . S
C695 C691 1.393 . S
C695 C694 1.391 . S
H696 C704 0.950 . S
H697 C709 0.950 . S
H698 C706 0.950 . S
H699 C708 0.950 . S
H700 C710 0.950 . S
H701 C712 0.950 . S
H702 C714 0.950 . S
H703 C715 0.950 . S
C704 H696 0.950 . S
C704 C705 1.386 . S
C704 C706 1.391 . S
C705 C704 1.386 . S
C705 C709 1.393 . S
C706 H698 0.950 . S
C706 C704 1.391 . S
C706 C707 1.400 . S
C707 C706 1.400 . S
C707 C708 1.398 . S
C707 C713 1.491 . S
C708 H699 0.950 . S
C708 C707 1.398 . S
C708 C709 1.391 . S
C709 H697 0.950 . S
C709 C705 1.393 . S
C709 C708 1.391 . S
C710 H700 0.950 . S
C710 C711 1.386 . S
C710 C712 1.391 . S
C711 C710 1.386 . S
C711 C715 1.393 . S
C712 H701 0.950 . S
C712 C710 1.391 . S
C712 C713 1.400 . S
C713 C707 1.491 . S
C713 C712 1.400 . S
C713 C714 1.398 . S
C714 H702 0.950 . S
C714 C713 1.398 . S
C714 C715 1.391 . S
C715 H703 0.950 . S
C715 C711 1.393 . S
C715 C714 1.391 . S
H716 C724 0.950 . S
H717 C729 0.950 . S
H718 C726 0.950 . S
H719 C728 0.950 . S
H720 C730 0.950 . S
H721 C732 0.950 . S
H722 C734 0.950 . S
H723 C735 0.950 . S
C724 H716 0.950 . S
C724 C725 1.386 . S
C724 C726 1.391 . S
C725 C724 1.386 . S
C725 C729 1.393 . S
C726 H718 0.950 . S
C726 C724 1.391 . S
C726 C727 1.400 . S
C727 C726 1.400 . S
C727 C728 1.398 . S
C727 C733 1.491 . S
C728 H719 0.950 . S
C728 C727 1.398 . S
C728 C729 1.391 . S
C729 H717 0.950 . S
C729 C725 1.393 . S
C729 C728 1.391 . S
C730 H720 0.950 . S
C730 C731 1.386 . S
C730 C732 1.391 . S
C731 C730 1.386 . S
C731 C735 1.393 . S
C732 H721 0.950 . S
C732 C730 1.391 . S
C732 C733 1.400 . S
C733 C727 1.491 . S
C733 C732 1.400 . S
C733 C734 1.398 . S
C734 H722 0.950 . S
C734 C733 1.398 . S
C734 C735 1.391 . S
C735 H723 0.950 . S
C735 C731 1.393 . S
C735 C734 1.391 . S
H736 C744 0.950 . S
H737 C749 0.950 . S
H738 C746 0.950 . S
H739 C748 0.950 . S
H740 C750 0.950 . S
H741 C752 0.950 . S
H742 C754 0.950 . S
H743 C755 0.950 . S
C744 H736 0.950 . S
C744 C745 1.386 . S
C744 C746 1.391 . S
C745 C744 1.386 . S
C745 C749 1.393 . S
C746 H738 0.950 . S
C746 C744 1.391 . S
C746 C747 1.400 . S
C747 C746 1.400 . S
C747 C748 1.398 . S
C747 C753 1.491 . S
C748 H739 0.950 . S
C748 C747 1.398 . S
C748 C749 1.391 . S
C749 H737 0.950 . S
C749 C745 1.393 . S
C749 C748 1.391 . S
C750 H740 0.950 . S
C750 C751 1.386 . S
C750 C752 1.391 . S
C751 C750 1.386 . S
C751 C755 1.393 . S
C752 H741 0.950 . S
C752 C750 1.391 . S
C752 C753 1.400 . S
C753 C747 1.491 . S
C753 C752 1.400 . S
C753 C754 1.398 . S
C754 H742 0.950 . S
C754 C753 1.398 . S
C754 C755 1.391 . S
C755 H743 0.950 . S
C755 C751 1.393 . S
C755 C754 1.391 . S
H756 C764 0.950 . S
H757 C769 0.950 . S
H758 C766 0.950 . S
H759 C768 0.950 . S
H760 C770 0.950 . S
H761 C772 0.950 . S
H762 C774 0.950 . S
H763 C775 0.950 . S
C764 H756 0.950 . S
C764 C765 1.386 . S
C764 C766 1.391 . S
C765 C764 1.386 . S
C765 C769 1.393 . S
C766 H758 0.950 . S
C766 C764 1.391 . S
C766 C767 1.400 . S
C767 C766 1.400 . S
C767 C768 1.398 . S
C767 C773 1.491 . S
C768 H759 0.950 . S
C768 C767 1.398 . S
C768 C769 1.391 . S
C769 H757 0.950 . S
C769 C765 1.393 . S
C769 C768 1.391 . S
C770 H760 0.950 . S
C770 C771 1.386 . S
C770 C772 1.391 . S
C771 C770 1.386 . S
C771 C775 1.393 . S
C772 H761 0.950 . S
C772 C770 1.391 . S
C772 C773 1.400 . S
C773 C767 1.491 . S
C773 C772 1.400 . S
C773 C774 1.398 . S
C774 H762 0.950 . S
C774 C773 1.398 . S
C774 C775 1.391 . S
C775 H763 0.950 . S
C775 C771 1.393 . S
C775 C774 1.391 . S
H776 C784 0.950 . S
H777 C789 0.950 . S
H778 C786 0.950 . S
H779 C788 0.950 . S
H780 C790 0.950 . S
H781 C792 0.950 . S
H782 C794 0.950 . S
H783 C795 0.950 . S
C784 H776 0.950 . S
C784 C785 1.386 . S
C784 C786 1.391 . S
C785 C784 1.386 . S
C785 C789 1.393 . S
C786 H778 0.950 . S
C786 C784 1.391 . S
C786 C787 1.400 . S
C787 C786 1.400 . S
C787 C788 1.398 . S
C787 C793 1.491 . S
C788 H779 0.950 . S
C788 C787 1.398 . S
C788 C789 1.391 . S
C789 H777 0.950 . S
C789 C785 1.393 . S
C789 C788 1.391 . S
C790 H780 0.950 . S
C790 C791 1.386 . S
C790 C792 1.391 . S
C791 C790 1.386 . S
C791 C795 1.393 . S
C792 H781 0.950 . S
C792 C790 1.391 . S
C792 C793 1.400 . S
C793 C787 1.491 . S
C793 C792 1.400 . S
C793 C794 1.398 . S
C794 H782 0.950 . S
C794 C793 1.398 . S
C794 C795 1.391 . S
C795 H783 0.950 . S
C795 C791 1.393 . S
C795 C794 1.391 . S
H796 C804 0.950 . S
H797 C809 0.950 . S
H798 C806 0.950 . S
H799 C808 0.950 . S
H800 C810 0.950 . S
H801 C812 0.950 . S
H802 C814 0.950 . S
H803 C815 0.950 . S
C804 H796 0.950 . S
C804 C805 1.386 . S
C804 C806 1.391 . S
C805 C804 1.386 . S
C805 C809 1.393 . S
C806 H798 0.950 . S
C806 C804 1.391 . S
C806 C807 1.400 . S
C807 C806 1.400 . S
C807 C808 1.398 . S
C807 C813 1.491 . S
C808 H799 0.950 . S
C808 C807 1.398 . S
C808 C809 1.391 . S
C809 H797 0.950 . S
C809 C805 1.393 . S
C809 C808 1.391 . S
C810 H800 0.950 . S
C810 C811 1.386 . S
C810 C812 1.391 . S
C811 C810 1.386 . S
C811 C815 1.393 . S
C812 H801 0.950 . S
C812 C810 1.391 . S
C812 C813 1.400 . S
C813 C807 1.491 . S
C813 C812 1.400 . S
C813 C814 1.398 . S
C814 H802 0.950 . S
C814 C813 1.398 . S
C814 C815 1.391 . S
C815 H803 0.950 . S
C815 C811 1.393 . S
C815 C814 1.391 . S
H816 C824 0.950 . S
H817 C829 0.950 . S
H818 C826 0.950 . S
H819 C828 0.950 . S
H820 C830 0.950 . S
H821 C832 0.950 . S
H822 C834 0.950 . S
H823 C835 0.950 . S
C824 H816 0.950 . S
C824 C825 1.386 . S
C824 C826 1.391 . S
C825 C824 1.386 . S
C825 C829 1.393 . S
C826 H818 0.950 . S
C826 C824 1.391 . S
C826 C827 1.400 . S
C827 C826 1.400 . S
C827 C828 1.398 . S
C827 C833 1.491 . S
C828 H819 0.950 . S
C828 C827 1.398 . S
C828 C829 1.391 . S
C829 H817 0.950 . S
C829 C825 1.393 . S
C829 C828 1.391 . S
C830 H820 0.950 . S
C830 C831 1.386 . S
C830 C832 1.391 . S
C831 C830 1.386 . S
C831 C835 1.393 . S
C832 H821 0.950 . S
C832 C830 1.391 . S
C832 C833 1.400 . S
C833 C827 1.491 . S
C833 C832 1.400 . S
C833 C834 1.398 . S
C834 H822 0.950 . S
C834 C833 1.398 . S
C834 C835 1.391 . S
C835 H823 0.950 . S
C835 C831 1.393 . S
C835 C834 1.391 . S
H836 C844 0.950 . S
H837 C849 0.950 . S
H838 C846 0.950 . S
H839 C848 0.950 . S
H840 C850 0.950 . S
H841 C852 0.950 . S
H842 C854 0.950 . S
H843 C855 0.950 . S
C844 H836 0.950 . S
C844 C845 1.386 . S
C844 C846 1.391 . S
C845 C844 1.386 . S
C845 C849 1.393 . S
C846 H838 0.950 . S
C846 C844 1.391 . S
C846 C847 1.400 . S
C847 C846 1.400 . S
C847 C848 1.398 . S
C847 C853 1.491 . S
C848 H839 0.950 . S
C848 C847 1.398 . S
C848 C849 1.391 . S
C849 H837 0.950 . S
C849 C845 1.393 . S
C849 C848 1.391 . S
C850 H840 0.950 . S
C850 C851 1.386 . S
C850 C852 1.391 . S
C851 C850 1.386 . S
C851 C855 1.393 . S
C852 H841 0.950 . S
C852 C850 1.391 . S
C852 C853 1.400 . S
C853 C847 1.491 . S
C853 C852 1.400 . S
C853 C854 1.398 . S
C854 H842 0.950 . S
C854 C853 1.398 . S
C854 C855 1.391 . S
C855 H843 0.950 . S
C855 C851 1.393 . S
C855 C854 1.391 . S
H856 C864 0.950 . S
H857 C869 0.950 . S
H858 C866 0.950 . S
H859 C868 0.950 . S
H860 C870 0.950 . S
H861 C872 0.950 . S
H862 C874 0.950 . S
H863 C875 0.950 . S
C864 H856 0.950 . S
C864 C865 1.386 . S
C864 C866 1.391 . S
C865 C864 1.386 . S
C865 C869 1.393 . S
C866 H858 0.950 . S
C866 C864 1.391 . S
C866 C867 1.400 . S
C867 C866 1.400 . S
C867 C868 1.398 . S
C867 C873 1.491 . S
C868 H859 0.950 . S
C868 C867 1.398 . S
C868 C869 1.391 . S
C869 H857 0.950 . S
C869 C865 1.393 . S
C869 C868 1.391 . S
C870 H860 0.950 . S
C870 C871 1.386 . S
C870 C872 1.391 . S
C871 C870 1.386 . S
C871 C875 1.393 . S
C872 H861 0.950 . S
C872 C870 1.391 . S
C872 C873 1.400 . S
C873 C867 1.491 . S
C873 C872 1.400 . S
C873 C874 1.398 . S
C874 H862 0.950 . S
C874 C873 1.398 . S
C874 C875 1.391 . S
C875 H863 0.950 . S
C875 C871 1.393 . S
C875 C874 1.391 . S
H876 C884 0.950 . S
H877 C889 0.950 . S
H878 C886 0.950 . S
H879 C888 0.950 . S
H880 C890 0.950 . S
H881 C892 0.950 . S
H882 C894 0.950 . S
H883 C895 0.950 . S
C884 H876 0.950 . S
C884 C885 1.386 . S
C884 C886 1.391 . S
C885 C884 1.386 . S
C885 C889 1.393 . S
C886 H878 0.950 . S
C886 C884 1.391 . S
C886 C887 1.400 . S
C887 C886 1.400 . S
C887 C888 1.398 . S
C887 C893 1.491 . S
C888 H879 0.950 . S
C888 C887 1.398 . S
C888 C889 1.391 . S
C889 H877 0.950 . S
C889 C885 1.393 . S
C889 C888 1.391 . S
C890 H880 0.950 . S
C890 C891 1.386 . S
C890 C892 1.391 . S
C891 C890 1.386 . S
C891 C895 1.393 . S
C892 H881 0.950 . S
C892 C890 1.391 . S
C892 C893 1.400 . S
C893 C887 1.491 . S
C893 C892 1.400 . S
C893 C894 1.398 . S
C894 H882 0.950 . S
C894 C893 1.398 . S
C894 C895 1.391 . S
C895 H883 0.950 . S
C895 C891 1.393 . S
C895 C894 1.391 . S
H896 C904 0.950 . S
H897 C909 0.950 . S
H898 C906 0.950 . S
H899 C908 0.950 . S
H900 C910 0.950 . S
H901 C912 0.950 . S
H902 C914 0.950 . S
H903 C915 0.950 . S
C904 H896 0.950 . S
C904 C905 1.386 . S
C904 C906 1.391 . S
C905 C904 1.386 . S
C905 C909 1.393 . S
C906 H898 0.950 . S
C906 C904 1.391 . S
C906 C907 1.400 . S
C907 C906 1.400 . S
C907 C908 1.398 . S
C907 C913 1.491 . S
C908 H899 0.950 . S
C908 C907 1.398 . S
C908 C909 1.391 . S
C909 H897 0.950 . S
C909 C905 1.393 . S
C909 C908 1.391 . S
C910 H900 0.950 . S
C910 C911 1.386 . S
C910 C912 1.391 . S
C911 C910 1.386 . S
C911 C915 1.393 . S
C912 H901 0.950 . S
C912 C910 1.391 . S
C912 C913 1.400 . S
C913 C907 1.491 . S
C913 C912 1.400 . S
C913 C914 1.398 . S
C914 H902 0.950 . S
C914 C913 1.398 . S
C914 C915 1.391 . S
C915 H903 0.950 . S
C915 C911 1.393 . S
C915 C914 1.391 . S
H916 C924 0.950 . S
H917 C929 0.950 . S
H918 C926 0.950 . S
H919 C928 0.950 . S
H920 C930 0.950 . S
H921 C932 0.950 . S
H922 C934 0.950 . S
H923 C935 0.950 . S
C924 H916 0.950 . S
C924 C925 1.386 . S
C924 C926 1.391 . S
C925 C924 1.386 . S
C925 C929 1.393 . S
C926 H918 0.950 . S
C926 C924 1.391 . S
C926 C927 1.400 . S
C927 C926 1.400 . S
C927 C928 1.398 . S
C927 C933 1.491 . S
C928 H919 0.950 . S
C928 C927 1.398 . S
C928 C929 1.391 . S
C929 H917 0.950 . S
C929 C925 1.393 . S
C929 C928 1.391 . S
C930 H920 0.950 . S
C930 C931 1.386 . S
C930 C932 1.391 . S
C931 C930 1.386 . S
C931 C935 1.393 . S
C932 H921 0.950 . S
C932 C930 1.391 . S
C932 C933 1.400 . S
C933 C927 1.491 . S
C933 C932 1.400 . S
C933 C934 1.398 . S
C934 H922 0.950 . S
C934 C933 1.398 . S
C934 C935 1.391 . S
C935 H923 0.950 . S
C935 C931 1.393 . S
C935 C934 1.391 . S
H936 C944 0.950 . S
H937 C949 0.950 . S
H938 C946 0.950 . S
H939 C948 0.950 . S
H940 C950 0.950 . S
H941 C952 0.950 . S
H942 C954 0.950 . S
H943 C955 0.950 . S
C944 H936 0.950 . S
C944 C945 1.386 . S
C944 C946 1.391 . S
C945 C944 1.386 . S
C945 C949 1.393 . S
C946 H938 0.950 . S
C946 C944 1.391 . S
C946 C947 1.400 . S
C947 C946 1.400 . S
C947 C948 1.398 . S
C947 C953 1.491 . S
C948 H939 0.950 . S
C948 C947 1.398 . S
C948 C949 1.391 . S
C949 H937 0.950 . S
C949 C945 1.393 . S
C949 C948 1.391 . S
C950 H940 0.950 . S
C950 C951 1.386 . S
C950 C952 1.391 . S
C951 C950 1.386 . S
C951 C955 1.393 . S
C952 H941 0.950 . S
C952 C950 1.391 . S
C952 C953 1.400 . S
C953 C947 1.491 . S
C953 C952 1.400 . S
C953 C954 1.398 . S
C954 H942 0.950 . S
C954 C953 1.398 . S
C954 C955 1.391 . S
C955 H943 0.950 . S
C955 C951 1.393 . S
C955 C954 1.391 . S
H956 C964 0.950 . S
H957 C969 0.950 . S
H958 C966 0.950 . S
H959 C968 0.950 . S
H960 C970 0.950 . S
H961 C972 0.950 . S
H962 C974 0.950 . S
H963 C975 0.950 . S
C964 H956 0.950 . S
C964 C965 1.386 . S
C964 C966 1.391 . S
C965 C964 1.386 . S
C965 C969 1.393 . S
C966 H958 0.950 . S
C966 C964 1.391 . S
C966 C967 1.400 . S
C967 C966 1.400 . S
C967 C968 1.398 . S
C967 C973 1.491 . S
C968 H959 0.950 . S
C968 C967 1.398 . S
C968 C969 1.391 . S
C969 H957 0.950 . S
C969 C965 1.393 . S
C969 C968 1.391 . S
C970 H960 0.950 . S
C970 C971 1.386 . S
C970 C972 1.391 . S
C971 C970 1.386 . S
C971 C975 1.393 . S
C972 H961 0.950 . S
C972 C970 1.391 . S
C972 C973 1.400 . S
C973 C967 1.491 . S
C973 C972 1.400 . S
C973 C974 1.398 . S
C974 H962 0.950 . S
C974 C973 1.398 . S
C974 C975 1.391 . S
C975 H963 0.950 . S
C975 C971 1.393 . S
C975 C974 1.391 . S
H976 C984 0.950 . S
H977 C989 0.950 . S
H978 C986 0.950 . S
H979 C988 0.950 . S
H980 C990 0.950 . S
H981 C992 0.950 . S
H982 C994 0.950 . S
H983 C995 0.950 . S
C984 H976 0.950 . S
C984 C985 1.386 . S
C984 C986 1.391 . S
C985 C984 1.386 . S
C985 C989 1.393 . S
C986 H978 0.950 . S
C986 C984 1.391 . S
C986 C987 1.400 . S
C987 C986 1.400 . S
C987 C988 1.398 . S
C987 C993 1.491 . S
C988 H979 0.950 . S
C988 C987 1.398 . S
C988 C989 1.391 . S
C989 H977 0.950 . S
C989 C985 1.393 . S
C989 C988 1.391 . S
C990 H980 0.950 . S
C990 C991 1.386 . S
C990 C992 1.391 . S
C991 C990 1.386 . S
C991 C995 1.393 . S
C992 H981 0.950 . S
C992 C990 1.391 . S
C992 C993 1.400 . S
C993 C987 1.491 . S
C993 C992 1.400 . S
C993 C994 1.398 . S
C994 H982 0.950 . S
C994 C993 1.398 . S
C994 C995 1.391 . S
C995 H983 0.950 . S
C995 C991 1.393 . S
C995 C994 1.391 . S
H996 C1004 0.950 . S
H997 C1009 0.950 . S
H998 C1006 0.950 . S
H999 C1008 0.950 . S
H1000 C1010 0.950 . S
H1001 C1012 0.950 . S
H1002 C1014 0.950 . S
H1003 C1015 0.950 . S
C1004 H996 0.950 . S
C1004 C1005 1.386 . S
C1004 C1006 1.391 . S
C1005 C1004 1.386 . S
C1005 C1009 1.393 . S
C1006 H998 0.950 . S
C1006 C1004 1.391 . S
C1006 C1007 1.400 . S
C1007 C1006 1.400 . S
C1007 C1008 1.398 . S
C1007 C1013 1.491 . S
C1008 H999 0.950 . S
C1008 C1007 1.398 . S
C1008 C1009 1.391 . S
C1009 H997 0.950 . S
C1009 C1005 1.393 . S
C1009 C1008 1.391 . S
C1010 H1000 0.950 . S
C1010 C1011 1.386 . S
C1010 C1012 1.391 . S
C1011 C1010 1.386 . S
C1011 C1015 1.393 . S
C1012 H1001 0.950 . S
C1012 C1010 1.391 . S
C1012 C1013 1.400 . S
C1013 C1007 1.491 . S
C1013 C1012 1.400 . S
C1013 C1014 1.398 . S
C1014 H1002 0.950 . S
C1014 C1013 1.398 . S
C1014 C1015 1.391 . S
C1015 H1003 0.950 . S
C1015 C1011 1.393 . S
C1015 C1014 1.391 . S
H1016 C1024 0.950 . S
H1017 C1029 0.950 . S
H1018 C1026 0.950 . S
H1019 C1028 0.950 . S
H1020 C1030 0.950 . S
H1021 C1032 0.950 . S
H1022 C1034 0.950 . S
H1023 C1035 0.950 . S
C1024 H1016 0.950 . S
C1024 C1025 1.386 . S
C1024 C1026 1.391 . S
C1025 C1024 1.386 . S
C1025 C1029 1.393 . S
C1026 H1018 0.950 . S
C1026 C1024 1.391 . S
C1026 C1027 1.400 . S
C1027 C1026 1.400 . S
C1027 C1028 1.398 . S
C1027 C1033 1.491 . S
C1028 H1019 0.950 . S
C1028 C1027 1.398 . S
C1028 C1029 1.391 . S
C1029 H1017 0.950 . S
C1029 C1025 1.393 . S
C1029 C1028 1.391 . S
C1030 H1020 0.950 . S
C1030 C1031 1.386 . S
C1030 C1032 1.391 . S
C1031 C1030 1.386 . S
C1031 C1035 1.393 . S
C1032 H1021 0.950 . S
C1032 C1030 1.391 . S
C1032 C1033 1.400 . S
C1033 C1027 1.491 . S
C1033 C1032 1.400 . S
C1033 C1034 1.398 . S
C1034 H1022 0.950 . S
C1034 C1033 1.398 . S
C1034 C1035 1.391 . S
C1035 H1023 0.950 . S
C1035 C1031 1.393 . S
C1035 C1034 1.391 . S
H1036 C1044 0.950 . S
H1037 C1049 0.950 . S
H1038 C1046 0.950 . S
H1039 C1048 0.950 . S
H1040 C1050 0.950 . S
H1041 C1052 0.950 . S
H1042 C1054 0.950 . S
H1043 C1055 0.950 . S
C1044 H1036 0.950 . S
C1044 C1045 1.386 . S
C1044 C1046 1.391 . S
C1045 C1044 1.386 . S
C1045 C1049 1.393 . S
C1046 H1038 0.950 . S
C1046 C1044 1.391 . S
C1046 C1047 1.400 . S
C1047 C1046 1.400 . S
C1047 C1048 1.398 . S
C1047 C1053 1.491 . S
C1048 H1039 0.950 . S
C1048 C1047 1.398 . S
C1048 C1049 1.391 . S
C1049 H1037 0.950 . S
C1049 C1045 1.393 . S
C1049 C1048 1.391 . S
C1050 H1040 0.950 . S
C1050 C1051 1.386 . S
C1050 C1052 1.391 . S
C1051 C1050 1.386 . S
C1051 C1055 1.393 . S
C1052 H1041 0.950 . S
C1052 C1050 1.391 . S
C1052 C1053 1.400 . S
C1053 C1047 1.491 . S
C1053 C1052 1.400 . S
C1053 C1054 1.398 . S
C1054 H1042 0.950 . S
C1054 C1053 1.398 . S
C1054 C1055 1.391 . S
C1055 H1043 0.950 . S
C1055 C1051 1.393 . S
C1055 C1054 1.391 . S
H1056 C1064 0.950 . S
H1057 C1069 0.950 . S
H1058 C1066 0.950 . S
H1059 C1068 0.950 . S
H1060 C1070 0.950 . S
H1061 C1072 0.950 . S
H1062 C1074 0.950 . S
H1063 C1075 0.950 . S
C1064 H1056 0.950 . S
C1064 C1065 1.386 . S
C1064 C1066 1.391 . S
C1065 C1064 1.386 . S
C1065 C1069 1.393 . S
C1066 H1058 0.950 . S
C1066 C1064 1.391 . S
C1066 C1067 1.400 . S
C1067 C1066 1.400 . S
C1067 C1068 1.398 . S
C1067 C1073 1.491 . S
C1068 H1059 0.950 . S
C1068 C1067 1.398 . S
C1068 C1069 1.391 . S
C1069 H1057 0.950 . S
C1069 C1065 1.393 . S
C1069 C1068 1.391 . S
C1070 H1060 0.950 . S
C1070 C1071 1.386 . S
C1070 C1072 1.391 . S
C1071 C1070 1.386 . S
C1071 C1075 1.393 . S
C1072 H1061 0.950 . S
C1072 C1070 1.391 . S
C1072 C1073 1.400 . S
C1073 C1067 1.491 . S
C1073 C1072 1.400 . S
C1073 C1074 1.398 . S
C1074 H1062 0.950 . S
C1074 C1073 1.398 . S
C1074 C1075 1.391 . S
C1075 H1063 0.950 . S
C1075 C1071 1.393 . S
C1075 C1074 1.391 . S
H1076 C1084 0.950 . S
H1077 C1089 0.950 . S
H1078 C1086 0.950 . S
H1079 C1088 0.950 . S
H1080 C1090 0.950 . S
H1081 C1092 0.950 . S
H1082 C1094 0.950 . S
H1083 C1095 0.950 . S
C1084 H1076 0.950 . S
C1084 C1085 1.386 . S
C1084 C1086 1.391 . S
C1085 C1084 1.386 . S
C1085 C1089 1.393 . S
C1086 H1078 0.950 . S
C1086 C1084 1.391 . S
C1086 C1087 1.400 . S
C1087 C1086 1.400 . S
C1087 C1088 1.398 . S
C1087 C1093 1.491 . S
C1088 H1079 0.950 . S
C1088 C1087 1.398 . S
C1088 C1089 1.391 . S
C1089 H1077 0.950 . S
C1089 C1085 1.393 . S
C1089 C1088 1.391 . S
C1090 H1080 0.950 . S
C1090 C1091 1.386 . S
C1090 C1092 1.391 . S
C1091 C1090 1.386 . S
C1091 C1095 1.393 . S
C1092 H1081 0.950 . S
C1092 C1090 1.391 . S
C1092 C1093 1.400 . S
C1093 C1087 1.491 . S
C1093 C1092 1.400 . S
C1093 C1094 1.398 . S
C1094 H1082 0.950 . S
C1094 C1093 1.398 . S
C1094 C1095 1.391 . S
C1095 H1083 0.950 . S
C1095 C1091 1.393 . S
C1095 C1094 1.391 . S
H1096 C1104 0.950 . S
H1097 C1109 0.950 . S
H1098 C1106 0.950 . S
H1099 C1108 0.950 . S
H1100 C1110 0.950 . S
H1101 C1112 0.950 . S
H1102 C1114 0.950 . S
H1103 C1115 0.950 . S
C1104 H1096 0.950 . S
C1104 C1105 1.386 . S
C1104 C1106 1.391 . S
C1105 C1104 1.386 . S
C1105 C1109 1.393 . S
C1106 H1098 0.950 . S
C1106 C1104 1.391 . S
C1106 C1107 1.400 . S
C1107 C1106 1.400 . S
C1107 C1108 1.398 . S
C1107 C1113 1.491 . S
C1108 H1099 0.950 . S
C1108 C1107 1.398 . S
C1108 C1109 1.391 . S
C1109 H1097 0.950 . S
C1109 C1105 1.393 . S
C1109 C1108 1.391 . S
C1110 H1100 0.950 . S
C1110 C1111 1.386 . S
C1110 C1112 1.391 . S
C1111 C1110 1.386 . S
C1111 C1115 1.393 . S
C1112 H1101 0.950 . S
C1112 C1110 1.391 . S
C1112 C1113 1.400 . S
C1113 C1107 1.491 . S
C1113 C1112 1.400 . S
C1113 C1114 1.398 . S
C1114 H1102 0.950 . S
C1114 C1113 1.398 . S
C1114 C1115 1.391 . S
C1115 H1103 0.950 . S
C1115 C1111 1.393 . S
C1115 C1114 1.391 . S
H1116 C1124 0.950 . S
H1117 C1129 0.950 . S
H1118 C1126 0.950 . S
H1119 C1128 0.950 . S
H1120 C1130 0.950 . S
H1121 C1132 0.950 . S
H1122 C1134 0.950 . S
H1123 C1135 0.950 . S
C1124 H1116 0.950 . S
C1124 C1125 1.386 . S
C1124 C1126 1.391 . S
C1125 C1124 1.386 . S
C1125 C1129 1.393 . S
C1126 H1118 0.950 . S
C1126 C1124 1.391 . S
C1126 C1127 1.400 . S
C1127 C1126 1.400 . S
C1127 C1128 1.398 . S
C1127 C1133 1.491 . S
C1128 H1119 0.950 . S
C1128 C1127 1.398 . S
C1128 C1129 1.391 . S
C1129 H1117 0.950 . S
C1129 C1125 1.393 . S
C1129 C1128 1.391 . S
C1130 H1120 0.950 . S
C1130 C1131 1.386 . S
C1130 C1132 1.391 . S
C1131 C1130 1.386 . S
C1131 C1135 1.393 . S
C1132 H1121 0.950 . S
C1132 C1130 1.391 . S
C1132 C1133 1.400 . S
C1133 C1127 1.491 . S
C1133 C1132 1.400 . S
C1133 C1134 1.398 . S
C1134 H1122 0.950 . S
C1134 C1133 1.398 . S
C1134 C1135 1.391 . S
C1135 H1123 0.950 . S
C1135 C1131 1.393 . S
C1135 C1134 1.391 . S
H1136 C1144 0.950 . S
H1137 C1149 0.950 . S
H1138 C1146 0.950 . S
H1139 C1148 0.950 . S
H1140 C1150 0.950 . S
H1141 C1152 0.950 . S
H1142 C1154 0.950 . S
H1143 C1155 0.950 . S
C1144 H1136 0.950 . S
C1144 C1145 1.386 . S
C1144 C1146 1.391 . S
C1145 C1144 1.386 . S
C1145 C1149 1.393 . S
C1146 H1138 0.950 . S
C1146 C1144 1.391 . S
C1146 C1147 1.400 . S
C1147 C1146 1.400 . S
C1147 C1148 1.398 . S
C1147 C1153 1.491 . S
C1148 H1139 0.950 . S
C1148 C1147 1.398 . S
C1148 C1149 1.391 . S
C1149 H1137 0.950 . S
C1149 C1145 1.393 . S
C1149 C1148 1.391 . S
C1150 H1140 0.950 . S
C1150 C1151 1.386 . S
C1150 C1152 1.391 . S
C1151 C1150 1.386 . S
C1151 C1155 1.393 . S
C1152 H1141 0.950 . S
C1152 C1150 1.391 . S
C1152 C1153 1.400 . S
C1153 C1147 1.491 . S
C1153 C1152 1.400 . S
C1153 C1154 1.398 . S
C1154 H1142 0.950 . S
C1154 C1153 1.398 . S
C1154 C1155 1.391 . S
C1155 H1143 0.950 . S
C1155 C1151 1.393 . S
C1155 C1154 1.391 . S
H1156 C1164 0.950 . S
H1157 C1169 0.950 . S
H1158 C1166 0.950 . S
H1159 C1168 0.950 . S
H1160 C1170 0.950 . S
H1161 C1172 0.950 . S
H1162 C1174 0.950 . S
H1163 C1175 0.950 . S
C1164 H1156 0.950 . S
C1164 C1165 1.386 . S
C1164 C1166 1.391 . S
C1165 C1164 1.386 . S
C1165 C1169 1.393 . S
C1166 H1158 0.950 . S
C1166 C1164 1.391 . S
C1166 C1167 1.400 . S
C1167 C1166 1.400 . S
C1167 C1168 1.398 . S
C1167 C1173 1.491 . S
C1168 H1159 0.950 . S
C1168 C1167 1.398 . S
C1168 C1169 1.391 . S
C1169 H1157 0.950 . S
C1169 C1165 1.393 . S
C1169 C1168 1.391 . S
C1170 H1160 0.950 . S
C1170 C1171 1.386 . S
C1170 C1172 1.391 . S
C1171 C1170 1.386 . S
C1171 C1175 1.393 . S
C1172 H1161 0.950 . S
C1172 C1170 1.391 . S
C1172 C1173 1.400 . S
C1173 C1167 1.491 . S
C1173 C1172 1.400 . S
C1173 C1174 1.398 . S
C1174 H1162 0.950 . S
C1174 C1173 1.398 . S
C1174 C1175 1.391 . S
C1175 H1163 0.950 . S
C1175 C1171 1.393 . S
C1175 C1174 1.391 . S
C551 C141 1.507 . S
C545 C0 1.514 . S
C571 C194 1.341 . S
C565 C26 1.348 . S
C591 C257 1.597 . S
C585 C40 1.599 . S
C611 C300 1.285 . S
C605 C43 1.289 . S
C625 C57 1.600 . S
C631 C256 1.597 . S
C651 C293 1.371 . S
C645 C70 1.374 . S
C671 C134 1.524 . S
C665 C97 1.525 . S
C691 C187 1.256 . S
C685 C111 1.258 . S
C711 C240 1.484 . S
C705 C98 1.489 . S
C731 C309 1.836 . S
C725 C68 1.835 . S
C751 C150 1.586 . S
C745 C83 1.586 . S
C771 C203 1.753 . S
C765 C84 1.755 . S
C791 C151 1.574 . S
C785 C15 1.575 . S
C811 C204 1.842 . S
C805 C29 1.845 . S
C831 C247 1.496 . S
C825 C54 1.499 . S
C851 C310 1.742 . S
C845 C13 1.746 . S
C871 C353 1.471 . S
C865 C99 1.477 . S
C885 C69 1.717 . S
C891 C406 1.711 . S
C905 C82 1.647 . S
C911 C468 1.640 . S
C925 C85 1.706 . S
C931 C522 1.703 . S
C945 C14 1.556 . S
C951 C469 1.552 . S
C965 C28 1.798 . S
C971 C521 1.792 . S
C985 C55 1.560 . S
C991 C346 1.560 . S
C1011 C399 1.632 . S
C1005 C12 1.636 . S
C1031 C459 1.458 . S
C1025 C1 1.459 . S
C1045 C27 1.397 . S
C1051 C505 1.395 . S
C1065 C41 1.620 . S
C1071 C362 1.620 . S
C1085 C42 1.350 . S
C1091 C415 1.350 . S
C1111 C363 1.536 . S
C1105 C56 1.538 . S
C1131 C416 1.450 . S
C1125 C71 1.450 . S
C1145 C96 1.535 . S
C1151 C452 1.531 . S
C1171 C512 1.302 . S
C1165 C110 1.306 . S
