# Generated by pormake.
# Topology ocu, (6,8)-cn, num edge types: 1
# Building blocks:
#     Node 0, Type 0, BuildingBlock: CUWYAW_clean_sbu_0, # of connection points: 6
#     Node 1, Type 0, BuildingBlock: CUWYAW_clean_sbu_0, # of connection points: 6
#     Node 2, Type 0, BuildingBlock: CUWYAW_clean_sbu_0, # of connection points: 6
#     Node 3, Type 0, BuildingBlock: CUWYAW_clean_sbu_0, # of connection points: 6
#     Node 4, Type 0, BuildingBlock: CUWYAW_clean_sbu_0, # of connection points: 6
#     Node 5, Type 0, BuildingBlock: CUWYAW_clean_sbu_0, # of connection points: 6
#     Node 6, Type 0, BuildingBlock: CUWYAW_clean_sbu_0, # of connection points: 6
#     Node 7, Type 0, BuildingBlock: CUWYAW_clean_sbu_0, # of connection points: 6
#     Node 8, Type 1, BuildingBlock: VETTIZ_charged_sbu_0, # of connection points: 8
#     Node 9, Type 1, BuildingBlock: VETTIZ_charged_sbu_0, # of connection points: 8
#     Node 10, Type 1, BuildingBlock: VETTIZ_charged_sbu_0, # of connection points: 8
#     Node 11, Type 1, BuildingBlock: VETTIZ_charged_sbu_0, # of connection points: 8
#     Node 12, Type 1, BuildingBlock: VETTIZ_charged_sbu_0, # of connection points: 8
#     Node 13, Type 1, BuildingBlock: VETTIZ_charged_sbu_0, # of connection points: 8
#     Edge 14, Type (0, 1), BuildingBlock: AJUNOK_clean_linker_0, # of connection points: 2
#     Edge 15, Type (0, 1), BuildingBlock: AJUNOK_clean_linker_0, # of connection points: 2
#     Edge 16, Type (0, 1), BuildingBlock: AJUNOK_clean_linker_0, # of connection points: 2
#     Edge 17, Type (0, 1), BuildingBlock: AJUNOK_clean_linker_0, # of connection points: 2
#     Edge 18, Type (0, 1), BuildingBlock: AJUNOK_clean_linker_0, # of connection points: 2
#     Edge 19, Type (0, 1), BuildingBlock: AJUNOK_clean_linker_0, # of connection points: 2
#     Edge 20, Type (0, 1), BuildingBlock: AJUNOK_clean_linker_0, # of connection points: 2
#     Edge 21, Type (0, 1), BuildingBlock: AJUNOK_clean_linker_0, # of connection points: 2
#     Edge 22, Type (0, 1), BuildingBlock: AJUNOK_clean_linker_0, # of connection points: 2
#     Edge 23, Type (0, 1), BuildingBlock: AJUNOK_clean_linker_0, # of connection points: 2
#     Edge 24, Type (0, 1), BuildingBlock: AJUNOK_clean_linker_0, # of connection points: 2
#     Edge 25, Type (0, 1), BuildingBlock: AJUNOK_clean_linker_0, # of connection points: 2
#     Edge 26, Type (0, 1), BuildingBlock: AJUNOK_clean_linker_0, # of connection points: 2
#     Edge 27, Type (0, 1), BuildingBlock: AJUNOK_clean_linker_0, # of connection points: 2
#     Edge 28, Type (0, 1), BuildingBlock: AJUNOK_clean_linker_0, # of connection points: 2
#     Edge 29, Type (0, 1), BuildingBlock: AJUNOK_clean_linker_0, # of connection points: 2
#     Edge 30, Type (0, 1), BuildingBlock: AJUNOK_clean_linker_0, # of connection points: 2
#     Edge 31, Type (0, 1), BuildingBlock: AJUNOK_clean_linker_0, # of connection points: 2
#     Edge 32, Type (0, 1), BuildingBlock: AJUNOK_clean_linker_0, # of connection points: 2
#     Edge 33, Type (0, 1), BuildingBlock: AJUNOK_clean_linker_0, # of connection points: 2
#     Edge 34, Type (0, 1), BuildingBlock: AJUNOK_clean_linker_0, # of connection points: 2
#     Edge 35, Type (0, 1), BuildingBlock: AJUNOK_clean_linker_0, # of connection points: 2
#     Edge 36, Type (0, 1), BuildingBlock: AJUNOK_clean_linker_0, # of connection points: 2
#     Edge 37, Type (0, 1), BuildingBlock: AJUNOK_clean_linker_0, # of connection points: 2
#     Edge 38, Type (0, 1), BuildingBlock: AJUNOK_clean_linker_0, # of connection points: 2
#     Edge 39, Type (0, 1), BuildingBlock: AJUNOK_clean_linker_0, # of connection points: 2
#     Edge 40, Type (0, 1), BuildingBlock: AJUNOK_clean_linker_0, # of connection points: 2
#     Edge 41, Type (0, 1), BuildingBlock: AJUNOK_clean_linker_0, # of connection points: 2
#     Edge 42, Type (0, 1), BuildingBlock: AJUNOK_clean_linker_0, # of connection points: 2
#     Edge 43, Type (0, 1), BuildingBlock: AJUNOK_clean_linker_0, # of connection points: 2
#     Edge 44, Type (0, 1), BuildingBlock: AJUNOK_clean_linker_0, # of connection points: 2
#     Edge 45, Type (0, 1), BuildingBlock: AJUNOK_clean_linker_0, # of connection points: 2
#     Edge 46, Type (0, 1), BuildingBlock: AJUNOK_clean_linker_0, # of connection points: 2
#     Edge 47, Type (0, 1), BuildingBlock: AJUNOK_clean_linker_0, # of connection points: 2
#     Edge 48, Type (0, 1), BuildingBlock: AJUNOK_clean_linker_0, # of connection points: 2
#     Edge 49, Type (0, 1), BuildingBlock: AJUNOK_clean_linker_0, # of connection points: 2
#     Edge 50, Type (0, 1), BuildingBlock: AJUNOK_clean_linker_0, # of connection points: 2
#     Edge 51, Type (0, 1), BuildingBlock: AJUNOK_clean_linker_0, # of connection points: 2
#     Edge 52, Type (0, 1), BuildingBlock: AJUNOK_clean_linker_0, # of connection points: 2
#     Edge 53, Type (0, 1), BuildingBlock: AJUNOK_clean_linker_0, # of connection points: 2
#     Edge 54, Type (0, 1), BuildingBlock: AJUNOK_clean_linker_0, # of connection points: 2
#     Edge 55, Type (0, 1), BuildingBlock: AJUNOK_clean_linker_0, # of connection points: 2
#     Edge 56, Type (0, 1), BuildingBlock: AJUNOK_clean_linker_0, # of connection points: 2
#     Edge 57, Type (0, 1), BuildingBlock: AJUNOK_clean_linker_0, # of connection points: 2
#     Edge 58, Type (0, 1), BuildingBlock: AJUNOK_clean_linker_0, # of connection points: 2
#     Edge 59, Type (0, 1), BuildingBlock: AJUNOK_clean_linker_0, # of connection points: 2
#     Edge 60, Type (0, 1), BuildingBlock: AJUNOK_clean_linker_0, # of connection points: 2
#     Edge 61, Type (0, 1), BuildingBlock: AJUNOK_clean_linker_0, # of connection points: 2
# Relax obj value: 0.209
# Max RMSD: 0.204
# Mean RMSD: 0.131
data_MOF--net-ocu--node1-CUWYAW_clean_sbu_0--node2-VETTIZ_charged_sbu_0--edge1-AJUNOK_clean_linker_0
_symmetry_space_group_name_H-M    P1
_symmetry_Int_Tables_number       1
_symmetry_cell_setting            triclinic
loop_
_symmetry_equiv_pos_as_xyz
'x, y, z'
_cell_length_a     31.227386
_cell_length_b     30.964508
_cell_length_c     29.638076
_cell_angle_alpha  83.293494
_cell_angle_beta   103.58437
_cell_angle_gamma 101.89567
loop_
_atom_site_label
_atom_site_type_symbol
_atom_site_fract_x
_atom_site_fract_y
_atom_site_fract_z
_atom_type_partial_charge
C0 C 0.37521 0.37017 0.43623 0.0
Eu1 Eu 0.35238 0.3255 0.36233 0.0
C2 C 0.34908 0.37314 0.47052 0.0
C3 C 0.34895 0.41455 0.48478 0.0
C4 C 0.31749 0.41917 0.50947 0.0
C5 C 0.28574 0.38237 0.52027 0.0
C6 C 0.28824 0.3403 0.50914 0.0
C7 C 0.31949 0.33574 0.48411 0.0
C8 C 0.39647 0.35338 0.2901 0.0
C9 C 0.26113 0.35851 0.29377 0.0
C10 C 0.27146 0.21997 0.23846 0.0
Eu11 Eu 0.3076 0.27563 0.30255 0.0
C12 C 0.29091 0.19872 0.20846 0.0
C13 C 0.30918 0.16065 0.22559 0.0
C14 C 0.33989 0.14885 0.20439 0.0
C15 C 0.35215 0.17487 0.16593 0.0
C16 C 0.32963 0.20922 0.14519 0.0
C17 C 0.29871 0.22088 0.16616 0.0
C18 C 0.26673 0.25726 0.37927 0.0
C19 C 0.40415 0.24655 0.35599 0.0
O20 O 0.38534 0.33166 0.43527 0.0
O21 O 0.36076 0.38754 0.39462 0.0
O22 O 0.4149 0.34837 0.33366 0.0
O23 O 0.35373 0.34093 0.28497 0.0
O24 O 0.29091 0.3632 0.3342 0.0
O25 O 0.26296 0.32588 0.27032 0.0
O26 O 0.27513 0.26272 0.2309 0.0
O27 O 0.28124 0.2081 0.28277 0.0
O28 O 0.24736 0.26777 0.33717 0.0
O29 O 0.30822 0.2611 0.37976 0.0
O30 O 0.37063 0.2409 0.31893 0.0
O31 O 0.40384 0.27822 0.38207 0.0
H32 H 0.37129 0.44372 0.47435 0.0
H33 H 0.31604 0.45212 0.5172 0.0
H34 H 0.26455 0.31137 0.51759 0.0
H35 H 0.31886 0.30333 0.47334 0.0
H36 H 0.30284 0.1423 0.25752 0.0
H37 H 0.35675 0.12178 0.22026 0.0
H38 H 0.3382 0.2288 0.1147 0.0
H39 H 0.28403 0.2496 0.1515 0.0
C40 C 0.86613 0.3078 0.20254 0.0
Eu41 Eu 0.84173 0.3125 0.27905 0.0
C42 C 0.83659 0.30246 0.15631 0.0
C43 C 0.85163 0.28993 0.11943 0.0
C44 C 0.83581 0.30853 0.07433 0.0
C45 C 0.81643 0.3463 0.07254 0.0
C46 C 0.78382 0.33852 0.09973 0.0
C47 C 0.79703 0.32033 0.14522 0.0
C48 C 0.76476 0.24965 0.27197 0.0
C49 C 0.76868 0.37859 0.26189 0.0
C50 C 0.77686 0.30012 0.42314 0.0
Eu51 Eu 0.80643 0.31748 0.34756 0.0
C52 C 0.78513 0.2627 0.45684 0.0
C53 C 0.78441 0.26923 0.50438 0.0
C54 C 0.7951 0.23754 0.54188 0.0
C55 C 0.8196 0.19518 0.52353 0.0
C56 C 0.79596 0.14213 0.48904 0.0
C57 C 0.79061 0.22067 0.43917 0.0
C58 C 0.87861 0.38426 0.35416 0.0
C59 C 0.88383 0.2581 0.36544 0.0
O60 O 0.8692 0.34551 0.22024 0.0
O61 O 0.86109 0.27408 0.2325 0.0
O62 O 0.80456 0.2413 0.27858 0.0
O63 O 0.76889 0.28942 0.28023 0.0
O64 O 0.80472 0.3714 0.24946 0.0
O65 O 0.75858 0.35729 0.30005 0.0
O66 O 0.75146 0.29051 0.38252 0.0
O67 O 0.81272 0.32912 0.42002 0.0
O68 O 0.83823 0.38932 0.35298 0.0
O69 O 0.87809 0.34533 0.34427 0.0
O70 O 0.84299 0.25769 0.37069 0.0
O71 O 0.89741 0.28651 0.33307 0.0
H72 H 0.87919 0.27218 0.1259 0.0
H73 H 0.85208 0.30467 0.04694 0.0
H74 H 0.75679 0.357 0.09217 0.0
H75 H 0.78058 0.32549 0.17196 0.0
H76 H 0.7777 0.30012 0.51242 0.0
H77 H 0.80304 0.24679 0.57743 0.0
H78 H 0.77207 0.11162 0.49466 0.0
H79 H 0.77803 0.22545 0.40148 0.0
C80 C 0.80732 0.71849 0.42457 0.0
Eu81 Eu 0.79816 0.78261 0.36177 0.0
C82 C 0.82976 0.6826 0.41946 0.0
C83 C 0.80826 0.63809 0.42123 0.0
C84 C 0.82923 0.60516 0.41202 0.0
C85 C 0.87136 0.61669 0.39996 0.0
C86 C 0.89133 0.66148 0.39603 0.0
C87 C 0.87123 0.69376 0.40625 0.0
C88 C 0.73166 0.77285 0.28692 0.0
C89 C 0.84928 0.75542 0.27943 0.0
C90 C 0.83115 0.91692 0.24328 0.0
Eu91 Eu 0.82278 0.84653 0.29838 0.0
C92 C 0.82129 0.95899 0.25257 0.0
C93 C 0.85475 0.99712 0.25932 0.0
C94 C 0.84414 1.03648 0.26889 0.0
C95 C 0.79988 1.03779 0.27142 0.0
C96 C 0.76983 0.99737 0.27373 0.0
C97 C 0.77919 0.95949 0.2611 0.0
C98 C 0.88398 0.85375 0.38247 0.0
C99 C 0.75768 0.87166 0.36439 0.0
O100 O 0.83332 0.75742 0.4288 0.0
O101 O 0.76927 0.72002 0.39504 0.0
O102 O 0.72562 0.77437 0.3286 0.0
O103 O 0.77313 0.78299 0.28565 0.0
O104 O 0.83491 0.74406 0.31945 0.0
O105 O 0.84718 0.79649 0.26199 0.0
O106 O 0.79668 0.88448 0.23503 0.0
O107 O 0.86548 0.90446 0.27227 0.0
O108 O 0.89433 0.85179 0.343 0.0
O109 O 0.8419 0.84741 0.37536 0.0
O110 O 0.77204 0.88025 0.32468 0.0
O111 O 0.7667 0.83448 0.38911 0.0
H112 H 0.77577 0.62887 0.43026 0.0
H113 H 0.81367 0.57073 0.41635 0.0
H114 H 0.92439 0.67171 0.38847 0.0
H115 H 0.88861 0.72775 0.40363 0.0
H116 H 0.88825 0.99697 0.25513 0.0
H117 H 0.86876 0.06673 0.26863 0.0
H118 H 0.73598 0.99581 0.27754 0.0
H119 H 0.75242 0.93092 0.25666 0.0
C120 C 0.23611 0.91119 0.31456 0.0
Eu121 Eu 0.28863 0.85558 0.31699 0.0
C122 C 0.19311 0.90886 0.32675 0.0
C123 C 0.17246 0.8696 0.34768 0.0
C124 C 0.13975 0.8708 0.37221 0.0
C125 C 0.12768 0.91131 0.37585 0.0
C126 C 0.14408 0.94915 0.34935 0.0
C127 C 0.17692 0.94794 0.3251 0.0
C128 C 0.25807 0.78184 0.26695 0.0
C129 C 0.27539 0.77469 0.39871 0.0
C130 C 0.40091 0.74069 0.33786 0.0
Eu131 Eu 0.35036 0.79768 0.33686 0.0
C132 C 0.42372 0.7296 0.30461 0.0
C133 C 0.43803 0.76159 0.27093 0.0
C134 C 0.45056 0.74856 0.23316 0.0
C135 C 0.44841 0.70354 0.22905 0.0
C136 C 0.43626 0.67201 0.26405 0.0
C137 C 0.42396 0.685 0.30165 0.0
C138 C 0.37861 0.86542 0.39288 0.0
C139 C 0.3639 0.87889 0.25672 0.0
O140 O 0.26897 0.9051 0.34992 0.0
O141 O 0.23547 0.89006 0.27872 0.0
O142 O 0.25636 0.82205 0.2497 0.0
O143 O 0.27793 0.78355 0.30875 0.0
O144 O 0.26414 0.8129 0.37938 0.0
O145 O 0.30745 0.76047 0.38591 0.0
O146 O 0.35731 0.7322 0.32467 0.0
O147 O 0.41619 0.77897 0.35566 0.0
O148 O 0.37541 0.82398 0.4073 0.0
O149 O 0.36164 0.86887 0.34973 0.0
O150 O 0.3681 0.8371 0.26973 0.0
O151 O 0.33755 0.89617 0.27539 0.0
H152 H 0.18445 0.83904 0.34866 0.0
H153 H 0.12755 0.84127 0.39239 0.0
H154 H 0.13585 0.98095 0.35199 0.0
H155 H 0.19255 0.97841 0.30886 0.0
H156 H 0.43772 0.7962 0.27282 0.0
H157 H 0.46022 0.7732 0.2065 0.0
H158 H 0.43524 0.63714 0.26162 0.0
H159 H 0.41252 0.66003 0.32719 0.0
C160 C 0.41372 0.86428 0.7528 0.0
Eu161 Eu 0.36207 0.81727 0.80322 0.0
C162 C 0.40282 0.88026 0.70394 0.0
C163 C 0.37445 0.85271 0.67027 0.0
C164 C 0.37043 0.866 0.62307 0.0
C165 C 0.39494 0.90674 0.60953 0.0
C166 C 0.417 0.93683 0.64368 0.0
C167 C 0.42143 0.92336 0.6906 0.0
C168 C 0.3023 0.74544 0.76821 0.0
C169 C 0.26956 0.85818 0.77332 0.0
C170 C 0.24475 0.75127 0.90767 0.0
Eu171 Eu 0.29992 0.79074 0.85644 0.0
C172 C 0.24557 0.74476 0.95746 0.0
C173 C 0.21569 0.76351 0.97385 0.0
C174 C 0.21328 0.75649 1.02015 0.0
C175 C 0.24067 0.73032 0.05137 0.0
C176 C 0.27205 0.71285 1.03542 0.0
C177 C 0.27469 0.72024 0.9886 0.0
C178 C 0.36346 0.86157 0.89161 0.0
C179 C 0.38738 0.74307 0.8821 0.0
O180 O 0.39638 0.88183 0.78063 0.0
O181 O 0.41102 0.82151 0.76097 0.0
O182 O 0.34457 0.75241 0.76858 0.0
O183 O 0.29248 0.77779 0.78309 0.0
O184 O 0.31332 0.86661 0.7757 0.0
O185 O 0.2533 0.82272 0.79729 0.0
O186 O 0.26973 0.73047 0.89157 0.0
O187 O 0.24574 0.79198 0.89002 0.0
O188 O 0.3208 0.85844 0.88678 0.0
O189 O 0.37072 0.8276 0.87751 0.0
O190 O 0.34398 0.7377 0.88083 0.0
O191 O 0.40585 0.77797 0.85859 0.0
H192 H 0.35796 0.81983 0.68023 0.0
H193 H 0.35262 0.84257 0.59751 0.0
H194 H 0.43599 0.96881 0.63469 0.0
H195 H 0.44196 0.94555 0.71632 0.0
H196 H 0.19294 0.78242 0.95039 0.0
H197 H 0.18738 0.76906 1.03047 0.0
H198 H 0.29288 0.69194 0.05858 0.0
H199 H 0.29839 0.70573 0.97663 0.0
C200 C 0.35139 0.27829 0.71143 0.0
Eu201 Eu 0.32441 0.30844 0.77709 0.0
C202 C 0.38149 0.24883 0.70563 0.0
C203 C 0.41638 0.23794 0.742 0.0
C204 C 0.44463 0.21042 0.73499 0.0
C205 C 0.43872 0.19329 0.69139 0.0
C206 C 0.40326 0.204 0.65542 0.0
C207 C 0.3751 0.23131 0.66248 0.0
C208 C 0.37331 0.36847 0.83739 0.0
C209 C 0.33774 0.23997 0.87281 0.0
C210 C 0.24663 0.342 0.91949 0.0
Eu211 Eu 0.28003 0.31487 0.85642 0.0
C212 C 0.22784 0.37884 0.93205 0.0
C213 C 0.18117 0.37725 0.92193 0.0
C214 C 0.16245 0.40641 0.94115 0.0
C215 C 0.1897 0.43818 0.97105 0.0
C216 C 0.23647 0.44164 0.97913 0.0
C217 C 0.25531 0.4123 0.95997 0.0
C218 C 0.23307 0.25723 0.79021 0.0
C219 C 0.2677 0.38452 0.7681 0.0
O220 O 0.31534 0.25941 0.72648 0.0
O221 O 0.37006 0.31596 0.72972 0.0
O222 O 0.37084 0.37354 0.7928 0.0
O223 O 0.35145 0.33095 0.84866 0.0
O224 O 0.34037 0.24955 0.82855 0.0
O225 O 0.31916 0.26383 0.89411 0.0
O226 O 0.28962 0.34791 0.92068 0.0
O227 O 0.22267 0.31778 0.88579 0.0
O228 O 0.23572 0.24826 0.83464 0.0
O229 O 0.25431 0.2956 0.78335 0.0
O230 O 0.27625 0.37943 0.81374 0.0
O231 O 0.27767 0.3562 0.74354 0.0
H232 H 0.42182 0.25074 0.77578 0.0
H233 H 0.47091 0.20237 0.76384 0.0
H234 H 0.3978 0.19204 0.62124 0.0
H235 H 0.34844 0.23915 0.63388 0.0
H236 H 0.15874 0.35182 0.90115 0.0
H237 H 0.12628 0.40238 0.93486 0.0
H238 H 0.25833 0.4651 1.00274 0.0
H239 H 0.29131 0.41436 0.9691 0.0
C240 C 0.74501 0.38753 0.785 0.0
Eu241 Eu 0.80715 0.33972 0.81213 0.0
C242 C 0.71826 0.40316 0.812 0.0
C243 C 0.69349 0.37295 0.83981 0.0
C244 C 0.67882 0.38762 0.8751 0.0
C245 C 0.68792 0.43281 0.8823 0.0
C246 C 0.70936 0.46335 0.85202 0.0
C247 C 0.72443 0.44859 0.81702 0.0
C248 C 0.79892 0.26871 0.75926 0.0
C249 C 0.77731 0.26804 0.89351 0.0
C250 C 0.93169 0.25064 0.87709 0.0
Eu251 Eu 0.8664 0.29502 0.85721 0.0
C252 C 0.95226 0.234 0.84414 0.0
C253 C 0.99893 0.2373 0.85213 0.0
C254 C 1.01851 0.22633 0.81794 0.0
C255 C 0.99161 0.21201 0.77525 0.0
C256 C 0.94488 0.2083 0.76783 0.0
C257 C 0.92549 0.21938 0.80166 0.0
C258 C 0.86821 0.36271 0.9139 0.0
C259 C 0.89284 0.36086 0.76961 0.0
O260 O 0.78766 0.40423 0.79531 0.0
O261 O 0.7377 0.34503 0.78107 0.0
O262 O 0.80334 0.31003 0.7447 0.0
O263 O 0.80443 0.26666 0.80356 0.0
O264 O 0.77127 0.30601 0.87 0.0
O265 O 0.81278 0.25234 0.89144 0.0
O266 O 0.89012 0.23245 0.87739 0.0
O267 O 0.93816 0.29359 0.87687 0.0
O268 O 0.87125 0.32197 0.92747 0.0
O269 O 0.86516 0.36667 0.86971 0.0
O270 O 0.89835 0.32342 0.79425 0.0
O271 O 0.85992 0.37877 0.77466 0.0
H272 H 0.68777 0.3378 0.83618 0.0
H273 H 0.66247 0.36347 0.89814 0.0
H274 H 0.71595 0.4985 0.8566 0.0
H275 H 0.7434 0.47242 0.79585 0.0
H276 H 1.02027 0.2494 0.88426 0.0
H277 H 1.05464 0.23008 0.82445 0.0
H278 H 0.92313 0.19687 0.7356 0.0
H279 H 0.88948 0.21737 0.79407 0.0
C280 C 0.8435 0.91042 0.90171 0.0
Eu281 Eu 0.8365 0.842 0.85482 0.0
C282 C 0.81087 0.93087 0.91651 0.0
C283 C 0.7849 0.95795 0.88494 0.0
C284 C 0.7499 0.97217 0.89724 0.0
C285 C 0.74134 0.96088 0.94194 0.0
C286 C 0.76907 0.93607 0.97438 0.0
C287 C 0.80343 0.92111 0.96177 0.0
C288 C 0.88912 0.85598 0.78758 0.0
C289 C 0.75502 0.85069 0.77251 0.0
C290 C 0.81868 0.71765 0.74656 0.0
Eu291 Eu 0.81201 0.7751 0.80129 0.0
C292 C 0.8406 0.71904 0.70759 0.0
C293 C 0.83749 0.67983 0.68693 0.0
C294 C 0.86737 0.67711 0.65939 0.0
C295 C 0.90096 0.71362 0.65227 0.0
C296 C 0.90183 0.75391 0.67025 0.0
C297 C 0.87168 0.75666 0.69757 0.0
C298 C 0.75285 0.75537 0.85973 0.0
C299 C 0.88515 0.7645 0.90129 0.0
O300 O 0.84852 0.87126 0.92115 0.0
O301 O 0.84196 0.91301 0.8572 0.0
O302 O 0.90438 0.85781 0.83204 0.0
O303 O 0.84717 0.84305 0.78161 0.0
O304 O 0.76829 0.85547 0.81721 0.0
O305 O 0.77317 0.82402 0.75435 0.0
O306 O 0.78383 0.73663 0.73985 0.0
O307 O 0.84654 0.72667 0.78591 0.0
O308 O 0.74319 0.74842 0.81594 0.0
O309 O 0.79432 0.77396 0.87138 0.0
O310 O 0.86572 0.74838 0.86044 0.0
O311 O 0.87796 0.80265 0.90918 0.0
H312 H 0.7909 0.96733 0.85036 0.0
H313 H 0.72896 0.99101 0.8714 0.0
H314 H 0.76384 0.92776 1.00946 0.0
H315 H 0.8235 0.90104 0.98713 0.0
H316 H 0.81423 0.65033 0.69492 0.0
H317 H 0.86653 0.64533 0.64699 0.0
H318 H 0.92753 0.7824 0.66555 0.0
H319 H 0.87483 0.78713 0.71371 0.0
Fe320 Fe 0.07533 0.10991 0.551 0.0
O321 O 1.03118 0.06153 0.57686 0.0
Fe322 Fe 0.17369 0.06368 0.5895 0.0
Fe323 Fe 0.96805 0.05682 0.57229 0.0
O324 O 0.11157 0.06437 0.58289 0.0
O325 O 0.11039 0.05899 0.58312 0.0
O326 O 1.03018 0.05643 0.57806 0.0
Fe327 Fe 0.06657 1.01055 0.60916 0.0
C328 C 1.02905 0.13733 0.62472 0.0
O329 O 1.02957 0.15078 0.51738 0.0
O330 O 0.96463 0.10099 0.5113 0.0
O331 O 0.07502 0.98416 0.55024 0.0
O332 O 0.15091 1.00921 0.54861 0.0
O333 O 0.177 0.10894 0.53035 0.0
O334 O 0.1267 0.15365 0.52268 0.0
O335 O 0.95836 1.00192 0.5339 0.0
O336 O 1.02648 0.97815 0.54759 0.0
C337 C 0.16222 0.14463 0.51295 0.0
O338 O 0.11244 0.96861 0.64076 0.0
O339 O 0.17619 1.01937 0.64882 0.0
O340 O 0.06561 0.13814 0.60945 0.0
O341 O 0.99013 0.11192 0.61154 0.0
C342 C 0.98753 0.13859 0.49918 0.0
C343 C 0.98398 0.97656 0.52604 0.0
C344 C 0.98208 0.97608 0.64965 0.0
O345 O 0.96676 1.01192 0.63303 0.0
O346 O 1.01638 0.96699 0.63776 0.0
C347 C 0.11127 0.98492 0.53473 0.0
O348 O 0.1821 0.11744 0.62996 0.0
O349 O 0.11321 0.14071 0.61327 0.0
C350 C 0.15496 0.98014 0.65736 0.0
C351 C 0.15475 0.14142 0.63707 0.0
Fe352 Fe 0.5685 0.98703 0.10808 0.0
O353 O 0.56446 0.04951 0.09629 0.0
Fe354 Fe 0.50602 0.07094 0.06265 0.0
Fe355 Fe 0.6079 0.0931 0.06579 0.0
O356 O 0.56065 0.04844 0.09686 0.0
O357 O 0.54919 0.11391 1.02941 0.0
O358 O 0.55421 0.11642 1.03076 0.0
Fe359 Fe 0.55405 0.17991 1.02558 0.0
C360 C 0.65916 0.04435 0.146 0.0
O361 O 0.60987 0.99101 0.06204 0.0
O362 O 0.60049 0.05143 1.01472 0.0
O363 O 0.49474 0.16121 0.97816 0.0
O364 O 0.45558 0.10409 1.01998 0.0
O365 O 0.49194 1.02525 1.01272 0.0
O366 O 0.51436 0.96525 0.05462 0.0
O367 O 0.64876 0.14187 1.0296 0.0
O368 O 0.60041 0.18371 0.98381 0.0
C369 C 0.49175 0.98352 1.01826 0.0
O370 O 0.51255 0.17729 0.07033 0.0
O371 O 0.51813 0.11417 0.11298 0.0
O372 O 0.6263 1.01408 0.15638 0.0
O373 O 0.65865 0.0645 0.10546 0.0
C374 C 0.61221 1.01382 1.02358 0.0
C375 C 0.63934 0.17175 0.99585 0.0
C376 C 0.62486 0.17445 0.11731 0.0
O377 O 0.61784 0.13265 0.11963 0.0
O378 O 0.61001 0.19656 0.07991 0.0
C379 C 0.45817 0.1352 0.98592 0.0
O380 O 0.46864 1.02203 0.10514 0.0
O381 O 0.52109 0.98191 0.14875 0.0
C382 C 0.50597 0.15135 0.10545 0.0
C383 C 0.48125 0.99205 0.1385 0.0
Fe384 Fe 1.02604 0.66175 0.16964 0.0
O385 O 1.01356 0.59904 0.15617 0.0
Fe386 Fe 0.10562 0.57163 0.17006 0.0
Fe387 Fe 0.95499 0.56882 0.11713 0.0
O388 O 1.04224 0.60156 0.14828 0.0
O389 O 1.04887 0.53361 0.17342 0.0
O390 O 0.99848 0.53265 0.10059 0.0
Fe391 Fe 1.02488 0.48084 0.13889 0.0
C392 C 0.92869 0.6353 0.1782 0.0
O393 O 0.98666 0.67783 0.10376 0.0
O394 O 0.96374 0.61691 0.0635 0.0
O395 O 0.06332 0.48706 0.09266 0.0
O396 O 0.10978 0.55124 0.10485 0.0
O397 O 0.08329 0.62597 0.13615 0.0
O398 O 0.08162 0.69238 0.14429 0.0
O399 O 0.90614 0.52835 0.06599 0.0
O400 O 0.96992 0.50732 0.08663 0.0
C401 C 0.10374 0.66603 0.13602 0.0
O402 O 0.07883 0.45361 0.1866 0.0
O403 O 0.13415 0.51505 0.20272 0.0
O404 O 0.96998 0.63976 0.19872 0.0
O405 O 0.91459 0.61029 0.14227 0.0
C406 C 0.96936 0.65895 0.06538 0.0
C407 C 0.92877 0.49967 0.05917 0.0
C408 C 0.94639 0.48139 0.17521 0.0
O409 O 0.94296 0.52207 0.17174 0.0
O410 O 0.98566 0.47273 0.18718 0.0
C411 C 0.09646 0.515 0.08439 0.0
O412 O 0.10974 0.59641 0.23419 0.0
O413 O 0.06546 0.64441 0.23348 0.0
C414 C 0.1201 0.4721 0.20591 0.0
C415 C 0.10484 0.63603 0.2383 0.0
Fe416 Fe 0.5674 0.56202 1.01694 0.0
O417 O 0.60784 0.58768 0.07449 0.0
Fe418 Fe 0.4684 0.52018 0.0567 0.0
Fe419 Fe 0.67395 0.59266 0.08748 0.0
O420 O 0.53353 0.52703 0.06409 0.0
O421 O 0.5349 0.52292 0.07087 0.0
O422 O 0.60901 0.5841 0.08055 0.0
Fe423 Fe 0.57486 0.55075 0.12782 0.0
C424 C 0.64377 0.51681 1.02337 0.0
O425 O 0.61298 0.60517 0.97591 0.0
O426 O 0.66757 0.64038 1.03294 0.0
O427 O 0.53933 0.6011 0.11602 0.0
O428 O 0.46973 0.56395 0.10361 0.0
O429 O 0.46236 0.57107 1.00399 0.0
O430 O 0.52975 0.61255 1.00517 0.0
O431 O 0.6728 0.63125 0.13783 0.0
O432 O 0.62093 0.59139 0.17866 0.0
C433 C 0.48697 0.60749 0.99353 0.0
O434 O 0.529 0.50894 0.16894 0.0
O435 O 0.47253 0.47314 0.11328 0.0
O436 O 0.60305 0.51222 1.02548 0.0
O437 O 0.67275 0.54997 1.03894 0.0
C438 C 0.64877 0.63612 0.9895 0.0
C439 C 0.65214 0.62564 0.17174 0.0
C440 C 0.65778 0.50639 0.15255 0.0
O441 O 0.68137 0.54201 0.13897 0.0
O442 O 0.6147 0.50089 0.14363 0.0
C443 C 0.49808 0.5989 0.11402 0.0
O444 O 0.46869 0.48119 1.00627 0.0
O445 O 0.51878 0.52412 0.96474 0.0
C446 C 0.4928 0.47812 0.15653 0.0
C447 C 0.48688 0.48997 0.97041 0.0
Fe448 Fe 0.08199 0.49733 0.58569 0.0
O449 O 0.06288 0.54802 0.60682 0.0
Fe450 Fe 0.11636 0.54071 0.48355 0.0
Fe451 Fe 0.07076 0.55587 0.67459 0.0
O452 O 0.11576 0.54502 0.54841 0.0
O453 O 0.11983 0.55051 0.54942 0.0
O454 O 0.06745 0.55321 0.60822 0.0
Fe455 Fe 0.09814 0.60087 0.56797 0.0
C456 C 1.01621 0.46376 0.6563 0.0
O457 O 0.13815 0.50602 0.63679 0.0
O458 O 0.11193 0.5087 0.69907 0.0
O459 O 0.13304 0.6451 0.52144 0.0
O460 O 0.16434 0.59897 0.48851 0.0
O461 O 0.15631 0.49573 0.51415 0.0
O462 O 0.11207 0.45198 0.56169 0.0
O463 O 0.12662 0.60515 0.68292 0.0
O464 O 0.15554 0.61578 0.61962 0.0
C465 C 0.14571 0.46041 0.54076 0.0
O466 O 1.04192 0.58764 0.51735 0.0
O467 O 0.06877 0.57953 0.45625 0.0
O468 O 1.04228 0.45407 0.63105 0.0
O469 O 1.01801 0.50326 0.66794 0.0
C470 C 0.13982 0.49739 0.67959 0.0
C471 C 0.15849 0.62103 0.66238 0.0
C472 C 1.04054 0.63962 0.62011 0.0
O473 O 1.03446 0.60559 0.64959 0.0
O474 O 0.06794 0.64606 0.5918 0.0
C475 C 0.16137 0.63811 0.49796 0.0
O476 O 0.06557 0.48609 0.47622 0.0
O477 O 1.02619 0.48605 0.5299 0.0
C478 C 1.03635 0.58163 0.4746 0.0
C479 C 1.02917 0.47505 0.49042 0.0
Fe480 Fe 0.62954 0.96314 0.53581 0.0
O481 O 0.64219 1.02876 0.54527 0.0
Fe482 Fe 0.612 0.06448 0.47979 0.0
Fe483 Fe 0.61558 0.05187 0.59258 0.0
O484 O 0.6385 1.02762 0.53621 0.0
O485 O 0.59214 0.09096 0.5303 0.0
O486 O 0.59584 0.09275 0.53775 0.0
Fe487 Fe 0.60068 0.15544 0.54083 0.0
C488 C 0.54711 0.97034 0.5646 0.0
O489 O 0.67183 0.9641 0.59996 0.0
O490 O 0.6388 1.00053 0.64232 0.0
O491 O 0.65274 0.16974 0.50692 0.0
O492 O 0.67129 0.10717 0.49406 0.0
O493 O 0.64389 1.02428 0.43856 0.0
O494 O 0.67681 0.97737 0.49626 0.0
O495 O 0.67498 0.09702 0.62269 0.0
O496 O 0.64745 0.15892 0.60284 0.0
C497 C 0.67047 0.99352 0.45353 0.0
O498 O 0.55521 0.15555 0.47843 0.0
O499 O 0.57423 0.11262 0.42991 0.0
O500 O 0.57804 0.94825 0.57021 0.0
O501 O 0.55591 1.01162 0.5682 0.0
C502 C 0.66287 0.97146 0.63853 0.0
C503 C 0.67654 0.13824 0.62834 0.0
C504 C 0.55481 0.1107 0.61855 0.0
O505 O 0.58035 0.08075 0.63156 0.0
O506 O 0.55355 0.1367 0.58088 0.0
C507 C 0.68143 0.14473 0.51081 0.0
O508 O 0.55229 1.02061 0.46737 0.0
O509 O 0.58247 0.96111 0.4734 0.0
C510 C 0.55052 0.14155 0.43802 0.0
C511 C 0.54873 0.98016 0.46097 0.0
C512 C 0.25981 0.20208 0.45134 0.0
C513 C 0.2408 0.23124 0.4154 0.0
C514 C 0.23453 0.17516 0.48225 0.0
C515 C 0.18869 0.1761 0.48015 0.0
H516 H 0.29441 0.19906 0.455 0.0
H517 H 0.25138 0.1531 0.50825 0.0
S518 S 0.1226 0.24781 0.3937 0.0
N519 N 0.17252 0.25957 0.38063 0.0
N520 N 0.1263 0.21068 0.43857 0.0
C521 C 0.1697 0.20612 0.44518 0.0
C522 C 0.19521 0.23295 0.41315 0.0
C523 C 0.94733 0.2442 0.43417 0.0
C524 C 0.9134 0.22817 0.39604 0.0
C525 C 0.97206 0.21559 0.46625 0.0
C526 C 0.96358 0.16931 0.46238 0.0
H527 H 0.95408 0.27909 0.43997 0.0
H528 H 0.99699 0.22971 0.49534 0.0
S529 S 0.88178 0.11115 0.36583 0.0
N530 N 0.87609 0.16342 0.3539 0.0
N531 N 0.92042 0.10984 0.41456 0.0
C532 C 0.9307 0.15326 0.42343 0.0
C533 C 0.90636 0.18252 0.39027 0.0
C534 C 0.89737 0.92294 0.4238 0.0
C535 C 0.91247 0.88465 0.41789 0.0
C536 C 0.92145 0.95229 0.45768 0.0
C537 C 0.96181 0.9448 0.48845 0.0
H538 H 0.86638 0.93045 0.40186 0.0
H539 H 0.90768 0.98117 0.45979 0.0
S540 S 1.01559 0.84833 0.48803 0.0
N541 N 0.97078 0.84078 0.44503 0.0
N542 N 1.01504 0.89458 0.51051 0.0
C543 C 0.97746 0.90645 0.4828 0.0
C544 C 0.95314 0.87685 0.44723 0.0
C545 C 0.13711 0.90756 0.46102 0.0
C546 C 0.11125 0.9179 0.41679 0.0
C547 C 0.13505 0.92767 0.5 0.0
C548 C 0.10651 0.95797 0.49602 0.0
H549 H 0.16234 0.88726 0.46485 0.0
H550 H 0.15765 0.92138 0.53287 0.0
S551 S 1.02644 0.99027 0.39009 0.0
N552 N 1.05192 0.95558 0.37261 0.0
N553 N 1.04826 0.99384 0.44629 0.0
C554 C 0.07741 0.96542 0.45316 0.0
C555 C 0.07956 0.94501 0.41338 0.0
C556 C 0.25684 0.93216 0.73049 0.0
C557 C 0.23916 0.88814 0.74383 0.0
C558 C 0.22933 0.96112 0.70369 0.0
C559 C 0.18235 0.94781 0.68792 0.0
H560 H 0.29244 0.94472 0.74122 0.0
H561 H 0.24553 0.99446 0.69498 0.0
S562 S 0.11913 0.83477 0.71059 0.0
N563 N 0.17127 0.83216 0.73771 0.0
N564 N 0.12006 0.8859 0.68698 0.0
C565 C 0.16425 0.90355 0.70053 0.0
C566 C 0.19235 0.87409 0.72841 0.0
C567 C 0.19272 0.24393 0.70731 0.0
C568 C 0.21057 0.22674 0.75251 0.0
C569 C 0.17304 0.21613 0.67049 0.0
C570 C 0.1719 0.17019 0.677 0.0
H571 H 0.19398 0.27926 0.70031 0.0
H572 H 0.15998 0.23087 0.63635 0.0
S573 S 0.21378 0.10843 0.78826 0.0
N574 N 0.22448 0.16048 0.80162 0.0
N575 N 0.18976 0.10874 0.73228 0.0
C576 C 0.18953 0.15262 0.72197 0.0
C577 C 0.20822 0.18071 0.75973 0.0
C578 C 0.99462 0.21503 0.69132 0.0
C579 C 1.01101 0.20049 0.73787 0.0
C580 C 1.00429 0.19731 0.6543 0.0
C581 C 1.03151 0.16518 0.66247 0.0
H582 H 0.97197 0.23844 0.68334 0.0
H583 H 0.98813 0.2068 0.61903 0.0
S584 S 0.08669 0.11909 0.77721 0.0
N585 N 0.05875 0.1543 0.78982 0.0
N586 N 0.07758 0.12181 0.71984 0.0
C587 C 1.05116 0.15296 0.70856 0.0
C588 C 1.0409 0.17057 0.74644 0.0
C589 C 0.89506 0.92127 0.72544 0.0
C590 C 0.91262 0.88512 0.75158 0.0
C591 C 0.91749 0.94998 0.6934 0.0
C592 C 0.95864 0.94407 0.68451 0.0
H593 H 0.86388 0.92806 0.73042 0.0
H594 H 0.90208 0.97723 0.67526 0.0
S595 S 1.01755 0.85221 0.74138 0.0
N596 N 0.9733 0.84439 0.76487 0.0
N597 N 1.01438 0.89645 0.70459 0.0
C598 C 0.97588 0.90717 0.70978 0.0
C599 C 0.95336 0.87848 0.74306 0.0
C600 C 0.39381 0.12889 0.13629 0.0
C601 C 0.39202 0.16951 0.15126 0.0
C602 C 0.43227 0.12268 0.12382 0.0
C603 C 0.46982 0.15694 0.12604 0.0
H604 H 0.365 0.10221 0.13333 0.0
H605 H 0.43185 0.09156 0.11033 0.0
S606 S 0.48191 0.26915 0.1642 0.0
N607 N 0.43091 0.24418 0.16915 0.0
N608 N 0.50331 0.23256 0.14431 0.0
C609 C 0.46852 0.19769 0.14109 0.0
C610 C 0.42947 0.20397 0.15413 0.0
C611 C 0.89644 0.38578 0.09941 0.0
C612 C 0.85041 0.38828 0.08446 0.0
C613 C 0.92576 0.41438 0.13043 0.0
C614 C 0.91223 0.44997 0.14509 0.0
H615 H 0.9102 0.35974 0.0898 0.0
H616 H 0.95989 0.40882 0.14197 0.0
S617 S 0.80095 0.4825 0.1025 0.0
N618 N 0.7962 0.43632 0.07751 0.0
N619 N 0.85206 0.49148 0.13549 0.0
C620 C 0.86791 0.45639 0.1266 0.0
C621 C 0.83751 0.42633 0.09525 0.0
C622 C 0.73759 0.07779 0.26026 0.0
C623 C 0.77917 0.07649 0.24977 0.0
C624 C 0.69783 0.06564 0.22673 0.0
C625 C 0.69994 0.05907 0.18118 0.0
H626 H 0.73515 0.07646 0.29628 0.0
H627 H 0.66587 0.0596 0.23691 0.0
S628 S 0.80204 0.08812 0.13176 0.0
N629 N 0.82038 0.09465 0.18793 0.0
N630 N 0.74716 0.07262 0.12406 0.0
C631 C 0.74161 0.07264 0.16825 0.0
C632 C 0.78116 0.08477 0.20267 0.0
C633 C 0.22449 0.70273 0.25103 0.0
C634 C 0.21888 0.7459 0.25519 0.0
C635 C 0.18776 0.66713 0.24618 0.0
C636 C 0.1442 0.67336 0.24607 0.0
H637 H 0.25752 0.69642 0.2518 0.0
H638 H 0.19354 0.63462 0.24215 0.0
S639 S 0.11343 0.77997 0.26116 0.0
N640 N 0.16761 0.79253 0.26235 0.0
N641 N 0.0989 0.72654 0.25364 0.0
C642 C 0.1388 0.71648 0.25175 0.0
C643 C 0.17602 0.75246 0.25628 0.0
C644 C 0.38744 0.93323 0.93094 0.0
C645 C 0.39805 0.8937 0.92118 0.0
C646 C 0.41858 0.96305 0.96063 0.0
C647 C 0.46136 0.95414 0.98267 0.0
H648 H 0.35458 0.94106 0.91584 0.0
H649 H 0.4084 0.99253 0.9677 0.0
S650 S 0.50691 0.85653 0.96695 0.0
N651 N 0.45564 0.84861 0.93423 0.0
N652 N 0.51334 0.90371 0.9908 0.0
C653 C 0.47272 0.91519 0.97245 0.0
C654 C 0.44137 0.88528 0.94152 0.0
C655 C 0.16807 0.50596 0.9963 0.0
C656 C 0.1689 0.4601 1.00089 0.0
C657 C 0.14594 0.52487 1.02386 0.0
C658 C 0.12395 0.49841 0.05684 0.0
H659 H 0.18373 0.5271 0.97064 0.0
H660 H 0.14503 0.55989 1.01844 0.0
S661 S 0.12256 0.3777 0.08635 0.0
N662 N 0.14953 0.39008 0.04359 0.0
N663 N 0.10951 0.42445 0.09541 0.0
C664 C 0.12691 0.45292 0.06287 0.0
C665 C 0.14885 0.4341 1.03494 0.0
C666 C 0.69843 0.2489 0.90788 0.0
C667 C 0.7434 0.24301 0.92076 0.0
C668 C 0.66551 0.22566 0.93183 0.0
C669 C 0.6756 0.19516 0.97039 0.0
H670 H 0.68812 0.27115 0.87829 0.0
H671 H 0.63164 0.2318 0.91968 0.0
S672 S 0.78902 0.16841 1.01986 0.0
N673 N 0.79645 0.20457 0.97552 0.0
N674 N 0.73539 0.16154 1.02089 0.0
C675 C 0.72075 0.18922 0.98403 0.0
C676 C 0.75424 0.21273 0.95919 0.0
C677 C 0.90583 0.69193 0.94168 0.0
C678 C 0.91143 0.7384 0.94056 0.0
C679 C 0.92561 0.66676 0.98128 0.0
C680 C 0.95213 0.68675 1.02182 0.0
H681 H 0.8846 0.67457 0.91241 0.0
H682 H 0.91887 0.6311 0.98045 0.0
S683 S 0.9814 0.80799 1.035 0.0
N684 N 0.94862 0.80355 0.98261 0.0
N685 N 0.98544 0.7569 0.05605 0.0
C686 C 0.95952 0.73342 1.02018 0.0
C687 C 0.93935 0.75893 0.98001 0.0
C688 C 0.18574 0.37269 0.23989 0.0
C689 C 0.22462 0.38771 0.2744 0.0
C690 C 0.15198 0.39877 0.21978 0.0
C691 C 0.15487 0.4426 0.23154 0.0
H692 H 0.1811 0.33995 0.22799 0.0
H693 H 0.12371 0.38459 0.19364 0.0
S694 S 0.24875 0.49892 0.3206 0.0
N695 N 0.26219 0.45011 0.32011 0.0
N696 N 0.20105 0.49897 0.28191 0.0
C697 C 0.19348 0.45801 0.26623 0.0
C698 C 0.22735 0.43094 0.28755 0.0
C699 C 0.21278 0.66788 0.10242 0.0
C700 C 0.22778 0.7137 0.09593 0.0
C701 C 0.17496 0.65173 0.12118 0.0
C702 C 0.15107 0.68092 0.1329 0.0
H703 H 0.22575 0.64483 0.08676 0.0
H704 H 0.1622 0.61679 0.12203 0.0
S705 S 0.18949 0.80227 0.1404 0.0
N706 N 0.22726 0.78619 0.11875 0.0
N707 N 0.15308 0.75693 0.14907 0.0
C708 C 0.17135 0.72595 0.1351 0.0
C709 C 0.21132 0.74188 0.11863 0.0
C710 C 0.36515 0.19934 0.94931 0.0
C711 C 0.36005 0.20414 0.90046 0.0
C712 C 0.39309 0.17182 0.9772 0.0
C713 C 0.41685 0.14811 0.95726 0.0
H714 H 0.34985 0.21909 0.96657 0.0
H715 H 0.3992 0.17221 1.01472 0.0
S716 S 0.40889 0.14186 0.83153 0.0
N717 N 0.376 0.17681 0.8334 0.0
N718 N 0.42942 0.1264 0.88624 0.0
C719 C 0.40907 0.14941 0.90862 0.0
C720 C 0.38038 0.17704 0.88009 0.0
C721 C 0.85823 0.43095 0.95254 0.0
C722 C 0.88474 0.40001 0.94828 0.0
C723 C 0.87185 0.46214 0.98804 0.0
C724 C 0.91317 0.46496 1.02155 0.0
H725 H 0.82593 0.43042 0.92888 0.0
H726 H 0.84952 0.4843 0.98921 0.0
S727 S 0.99573 0.39225 1.02605 0.0
N728 N 0.95464 0.37487 0.98212 0.0
N729 N 0.98055 0.43317 0.04583 0.0
C730 C 0.94012 0.43469 1.0168 0.0
C731 C 0.92585 0.40247 0.98152 0.0
C732 C 0.67592 0.94306 0.97965 0.0
C733 C 0.70341 0.97416 0.95526 0.0
C734 C 0.64393 0.95574 0.99864 0.0
C735 C 0.63807 0.99999 0.99383 0.0
H736 H 0.68023 0.90886 0.98551 0.0
H737 H 0.62502 0.93097 1.01902 0.0
S738 S 0.69718 0.09288 0.92706 0.0
N739 N 0.71985 0.05016 0.92323 0.0
N740 N 0.65878 0.07402 0.95803 0.0
C741 C 0.66272 1.03075 0.96616 0.0
C742 C 0.6957 1.01782 0.94712 0.0
C743 C 0.89653 0.73886 0.22198 0.0
C744 C 0.86669 0.72271 0.25259 0.0
C745 C 0.91335 0.71084 0.19693 0.0
C746 C 0.90075 0.66368 0.19794 0.0
H747 H 0.90838 0.7742 0.21805 0.0
H748 H 0.93772 0.7268 0.1767 0.0
S749 S 0.82123 0.6019 0.26995 0.0
N750 N 0.82455 0.65389 0.28057 0.0
N751 N 0.85439 0.60282 0.23361 0.0
C752 C 0.87007 0.64686 0.22765 0.0
C753 C 0.85363 0.67548 0.25426 0.0
C754 C 0.4219 0.89132 0.20559 0.0
C755 C 0.39119 0.90789 0.22398 0.0
C756 C 0.44966 0.91858 0.17774 0.0
C757 C 0.44816 0.96405 0.16579 0.0
H758 H 0.42516 0.85697 0.21326 0.0
H759 H 0.47287 0.90364 0.16544 0.0
S760 S 0.3746 1.02498 0.20526 0.0
N761 N 0.36182 0.97402 0.22804 0.0
N762 N 0.41312 1.02414 0.17569 0.0
C763 C 0.41717 0.98097 0.18324 0.0
C764 C 0.38916 0.95335 0.21216 0.0
C765 C 0.68305 0.23103 0.22996 0.0
C766 C 0.72855 0.22944 0.23322 0.0
C767 C 0.64921 0.21422 0.19191 0.0
C768 C 0.6599 0.19644 0.15517 0.0
H769 H 0.67353 0.24502 0.25716 0.0
H770 H 0.61453 0.2148 0.19143 0.0
S771 S 0.77354 0.18981 0.14319 0.0
N772 N 0.78184 0.21051 0.19399 0.0
N773 N 0.71888 0.18127 0.12263 0.0
C774 C 0.70506 0.19596 0.15729 0.0
C775 C 0.73919 0.21189 0.19616 0.0
C776 C 0.68382 0.69852 0.87633 0.0
C777 C 0.72516 0.72724 0.89298 0.0
C778 C 0.65888 0.66989 0.90658 0.0
C779 C 0.67355 0.66825 0.9556 0.0
H780 H 0.67067 0.69759 0.83917 0.0
H781 H 0.62804 0.64858 0.89124 0.0
S782 S 0.77973 0.73753 1.01762 0.0
N783 N 0.77885 0.75208 0.96217 0.0
N784 N 0.7338 0.70023 1.01854 0.0
C785 C 0.71482 0.69765 0.97244 0.0
C786 C 0.73994 0.7264 0.94158 0.0
C787 C 0.39278 0.67104 0.93174 0.0
C788 C 0.41459 0.70995 0.91065 0.0
C789 C 0.41649 0.63904 0.9583 0.0
C790 C 0.46364 0.64388 0.9658 0.0
H791 H 0.35669 0.66485 0.92755 0.0
H792 H 0.39723 0.60998 0.97312 0.0
S793 S 0.53783 0.74025 0.91961 0.0
N794 N 0.48703 0.75173 0.90012 0.0
N795 N 0.53132 0.692 0.94995 0.0
C796 C 0.48614 0.68296 0.94544 0.0
C797 C 0.46182 0.71565 0.91802 0.0
C798 C 0.42201 0.4426 0.85594 0.0
C799 C 0.40611 0.39826 0.87049 0.0
C800 C 0.45156 0.47206 0.88728 0.0
C801 C 0.46658 0.45792 0.9341 0.0
H802 H 0.4102 0.4551 0.82046 0.0
H803 H 0.46055 0.50648 0.87547 0.0
S804 S 0.44065 0.34346 0.98772 0.0
N805 N 0.41147 0.34083 0.9336 0.0
N806 N 0.46732 0.39521 0.99195 0.0
C807 C 0.45315 0.41285 0.94804 0.0
C808 C 0.42281 0.3833 0.91648 0.0
C809 C 0.71034 0.47678 0.95158 0.0
C810 C 0.67721 0.44831 0.92259 0.0
C811 C 0.69995 0.49615 0.98684 0.0
C812 C 0.65597 0.48784 0.99414 0.0
H813 H 0.74427 0.4852 0.94604 0.0
H814 H 0.72619 0.5195 1.00686 0.0
S815 S 0.55913 0.40949 0.93195 0.0
N816 N 0.60034 0.40853 0.90626 0.0
N817 N 0.5805 0.44404 0.97337 0.0
C818 C 0.62344 0.45626 0.96784 0.0
C819 C 0.63413 0.43676 0.93174 0.0
C820 C 0.75697 0.44641 0.20657 0.0
C821 C 0.73905 0.40953 0.23322 0.0
C822 C 0.73032 0.4767 0.18116 0.0
C823 C 0.68375 0.47145 0.17966 0.0
H824 H 0.79233 0.45268 0.20625 0.0
H825 H 0.74684 0.50499 0.16261 0.0
S826 S 0.61939 0.37913 0.2422 0.0
N827 N 0.67101 0.36903 0.2561 0.0
N828 N 0.62113 0.42495 0.20744 0.0
C829 C 0.66514 0.43412 0.20556 0.0
C830 C 0.69259 0.40362 0.23238 0.0
C831 C 0.70478 0.74095 0.21035 0.0
C832 C 0.70247 0.73823 0.2571 0.0
C833 C 0.68636 0.70492 0.18325 0.0
C834 C 0.66545 0.66379 0.20178 0.0
H835 H 0.72258 0.7707 0.19497 0.0
H836 H 0.68989 0.70932 0.14742 0.0
S837 S 0.6474 0.64045 0.32196 0.0
N838 N 0.67456 0.6922 0.32056 0.0
N839 N 0.64064 0.62397 0.26929 0.0
C840 C 0.66063 0.66128 0.24791 0.0
C841 C 0.67904 0.69852 0.27565 0.0
C842 C 0.42634 0.65555 0.16371 0.0
C843 C 0.45833 0.68799 0.18861 0.0
C844 C 0.43882 0.62939 0.1357 0.0
C845 C 0.4838 0.63465 0.13223 0.0
H846 H 0.39229 0.64805 0.16889 0.0
H847 H 0.41363 0.60271 0.11971 0.0
S848 S 0.57693 0.72384 0.18082 0.0
N849 N 0.53405 0.73038 0.20127 0.0
N850 N 0.55813 0.6815 0.14789 0.0
C851 C 0.5147 0.67111 0.15205 0.0
C852 C 0.50176 0.69779 0.18058 0.0
C853 C 0.40055 0.3967 0.21017 0.0
C854 C 0.42174 0.38471 0.25619 0.0
C855 C 0.42375 0.42643 0.1794 0.0
C856 C 0.46979 0.44695 0.19233 0.0
H857 H 0.36547 0.383 0.19758 0.0
H858 H 0.40481 0.43368 0.14472 0.0
S859 S 0.54226 0.42655 0.30849 0.0
N860 N 0.49314 0.39581 0.31244 0.0
N861 N 0.53536 0.45141 0.25555 0.0
C862 C 0.4914 0.43531 0.23827 0.0
C863 C 0.46795 0.40452 0.26956 0.0
C864 C 0.98292 0.71624 0.66219 0.0
C865 C 0.93936 0.70668 0.63426 0.0
C866 C 1.01795 0.69835 0.65409 0.0
C867 C 1.01073 0.6712 0.61727 0.0
H868 H 0.98905 0.73411 0.69309 0.0
H869 H 1.04978 0.70274 0.679 0.0
S870 S 0.90523 0.64224 0.52974 0.0
N871 N 0.89261 0.67301 0.5649 0.0
N872 N 0.95875 0.63962 0.54965 0.0
C873 C 0.96872 0.66505 0.58644 0.0
C874 C 0.93291 0.68282 0.59491 0.0
C875 C 0.42172 0.95476 0.54635 0.0
C876 C 0.41246 0.91154 0.56672 0.0
C877 C 0.46565 0.97339 0.54272 0.0
C878 C 0.49982 0.94798 0.556 0.0
H879 H 0.39814 0.97676 0.54318 0.0
H880 H 0.4735 1.00859 0.53357 0.0
S881 S 0.48294 0.82623 0.58037 0.0
N882 N 0.43354 0.83903 0.57745 0.0
N883 N 0.51631 0.87339 0.57032 0.0
C884 C 0.48724 0.90195 0.5632 0.0
C885 C 0.44249 0.88338 0.56668 0.0
C886 C 0.2146 0.4122 0.69962 0.0
C887 C 0.23885 0.41696 0.74554 0.0
C888 C 0.18203 0.43778 0.67968 0.0
C889 C 0.17261 0.46968 0.70435 0.0
H890 H 0.21954 0.38746 0.67929 0.0
H891 H 0.16339 0.43188 0.64462 0.0
S892 S 0.22762 0.49662 0.82518 0.0
N893 N 0.25183 0.45705 0.81526 0.0
N894 N 0.19055 0.50534 0.77677 0.0
C895 C 0.1967 0.47527 0.75011 0.0
C896 C 0.23001 0.44908 0.77078 0.0
C897 C 0.75977 0.1871 0.74031 0.0
C898 C 0.77206 0.23266 0.72616 0.0
C899 C 0.73173 0.15543 0.70875 0.0
C900 C 0.71414 0.16761 0.66131 0.0
H901 H 0.77099 0.17591 0.77635 0.0
H902 H 0.72214 0.12167 0.72225 0.0
S903 S 0.73534 0.28227 0.60595 0.0
N904 N 0.76386 0.28691 0.66002 0.0
N905 N 0.71261 0.22945 0.60272 0.0
C906 C 0.72731 0.21281 0.64696 0.0
C907 C 0.75564 0.2445 0.67854 0.0
C908 C 0.91003 0.43252 0.42206 0.0
C909 C 0.91729 0.40838 0.3877 0.0
C910 C 0.9457 0.45182 0.45695 0.0
C911 C 0.99039 0.44918 0.4581 0.0
H912 H 0.87633 0.43579 0.42276 0.0
H913 H 0.93818 0.46946 0.48268 0.0
S914 S 1.02711 0.38672 0.37837 0.0
N915 N 0.97228 0.38046 0.35929 0.0
N916 N 1.03919 0.41755 0.42311 0.0
C917 C 0.99783 0.42427 0.4244 0.0
C918 C 0.96147 0.40392 0.38965 0.0
C919 C 0.7489 0.91657 0.43021 0.0
C920 C 0.73527 0.90563 0.38324 0.0
C921 C 0.73005 0.94696 0.44947 0.0
C922 C 0.69453 0.96928 0.42447 0.0
H923 H 0.77514 0.9014 0.45302 0.0
H924 H 0.7434 0.95206 0.48601 0.0
S925 S 0.64432 0.95312 0.29894 0.0
N926 N 0.68291 0.92152 0.3112 0.0
N927 N 0.64701 0.97625 0.34735 0.0
C928 C 0.68068 0.95918 0.37683 0.0
C929 C 0.70081 0.92846 0.35667 0.0
C930 C 0.20493 0.74817 0.43253 0.0
C931 C 0.24866 0.74388 0.43028 0.0
C932 C 0.17752 0.71541 0.45658 0.0
C933 C 0.19241 0.67665 0.47919 0.0
H934 H 0.19097 0.77609 0.41399 0.0
H935 H 0.14366 0.71947 0.45547 0.0
S936 S 0.30586 0.6518 0.48961 0.0
N937 N 0.30661 0.69924 0.45775 0.0
N938 N 0.25548 0.63847 0.50134 0.0
C939 C 0.23671 0.67323 0.47915 0.0
C940 C 0.2646 0.70648 0.45526 0.0
C941 C 0.43526 0.17166 0.36915 0.0
C942 C 0.44272 0.21879 0.36827 0.0
C943 C 0.47061 0.1462 0.38631 0.0
C944 C 0.51656 0.16584 0.40183 0.0
H945 H 0.40119 0.15387 0.35914 0.0
H946 H 0.46124 0.11057 0.39012 0.0
S947 S 0.55595 0.28803 0.40335 0.0
N948 N 0.50134 0.28333 0.38309 0.0
N949 N 0.56607 0.23707 0.41239 0.0
C950 C 0.52428 0.21301 0.39848 0.0
C951 C 0.48839 0.23871 0.38259 0.0
C952 C 0.72855 0.9238 0.75208 0.0
C953 C 0.72503 0.87939 0.74239 0.0
C954 C 0.70556 0.95353 0.72034 0.0
C955 C 0.67771 0.93955 0.67805 0.0
H956 H 0.7514 0.93638 0.78305 0.0
H957 H 0.71183 0.98802 0.72761 0.0
S958 S 0.65107 0.82503 0.63979 0.0
N959 N 0.68769 0.82217 0.68978 0.0
N960 N 0.64353 0.87684 0.63111 0.0
C961 C 0.67128 0.89435 0.6699 0.0
C962 C 0.69519 0.86459 0.70165 0.0
C963 C 0.80807 0.15536 0.58197 0.0
C964 C 0.84299 0.17996 0.55789 0.0
C965 C 0.75791 0.14827 0.56625 0.0
C966 C 0.72882 0.1632 0.52234 0.0
H967 H 0.8206 0.13972 0.61576 0.0
H968 H 0.74099 0.12678 0.59026 0.0
S969 S 0.79564 0.15434 0.40895 0.0
N970 N 0.84937 0.18657 0.45972 0.0
N971 N 0.73824 0.15915 0.43457 0.0
C972 C 0.74757 0.18385 0.48438 0.0
C973 C 0.83304 0.20391 0.50634 0.0
C974 C 0.91106 0.56344 0.45026 0.0
C975 C 0.90114 0.58429 0.4055 0.0
C976 C 0.95515 0.56024 0.47137 0.0
C977 C 0.98996 0.57507 0.44733 0.0
H978 H 0.88664 0.55665 0.472 0.0
H979 H 0.96234 0.54899 0.50792 0.0
S980 S 0.9765 0.61252 0.32244 0.0
N981 N 0.92578 0.60622 0.33286 0.0
N982 N 1.00906 0.59798 0.37207 0.0
C983 C 0.9786 0.58643 0.39944 0.0
C984 C 0.93358 0.59056 0.3782 0.0
C985 C 0.45613 0.87971 0.44108 0.0
C986 C 0.4193 0.89674 0.41339 0.0
C987 C 0.49776 0.90696 0.4548 0.0
C988 C 0.50418 0.95283 0.44321 0.0
H989 H 0.45355 0.84462 0.45094 0.0
H990 H 0.52504 0.89178 0.4754 0.0
S991 S 0.41812 1.01422 0.37221 0.0
N992 N 0.39175 0.96221 0.37443 0.0
N993 N 0.46971 1.01437 0.40292 0.0
C994 C 0.46733 0.97069 0.41663 0.0
C995 C 0.42501 0.94246 0.40121 0.0
C996 C 0.25341 0.41966 0.57079 0.0
C997 C 0.24666 0.38988 0.53634 0.0
C998 C 0.21841 0.43916 0.5758 0.0
C999 C 0.17543 0.42847 0.5475 0.0
H1000 H 0.2868 0.43096 0.59105 0.0
H1001 H 0.22593 0.46551 0.5991 0.0
S1002 S 0.13848 0.348 0.45709 0.0
N1003 N 0.19241 0.34726 0.47677 0.0
N1004 N 0.12637 0.38318 0.48787 0.0
C1005 C 0.16698 0.39541 0.51656 0.0
C1006 C 0.20272 0.37598 0.51076 0.0
C1007 C 0.4526 0.12891 0.65486 0.0
C1008 C 0.46983 0.1657 0.6821 0.0
C1009 C 0.48094 0.10722 0.63862 0.0
C1010 C 0.52778 0.12078 0.64963 0.0
H1011 H 0.41671 0.11808 0.64403 0.0
H1012 H 0.46592 0.0816 0.61467 0.0
S1013 S 0.59073 0.21311 0.72162 0.0
N1014 N 0.53766 0.2131 0.72085 0.0
N1015 N 0.59037 0.1717 0.69104 0.0
C1016 C 0.54566 0.15545 0.67919 0.0
C1017 C 0.5169 0.17794 0.69539 0.0
C1018 C 0.96495 0.37179 0.73815 0.0
C1019 C 0.92218 0.38213 0.73548 0.0
C1020 C 0.99426 0.39508 0.70933 0.0
C1021 C 0.98188 0.42928 0.67581 0.0
H1022 H 0.97685 0.34692 0.76426 0.0
H1023 H 1.02781 0.38807 0.71538 0.0
S1024 S 0.87193 0.46571 0.65015 0.0
N1025 N 0.86814 0.42676 0.69285 0.0
N1026 N 0.92216 0.46935 0.63949 0.0
C1027 C 0.93827 0.43782 0.67102 0.0
C1028 C 0.90882 0.41467 0.70041 0.0
C1029 C 0.26061 0.71335 0.69262 0.0
C1030 C 0.26866 0.71148 0.7415 0.0
C1031 C 0.22621 0.68281 0.66699 0.0
C1032 C 0.19886 0.6493 0.68948 0.0
H1033 H 0.28009 0.73938 0.67405 0.0
H1034 H 0.21997 0.68653 0.62934 0.0
S1035 S 0.21145 0.62728 0.81766 0.0
N1036 N 0.24983 0.67169 0.81155 0.0
N1037 N 0.18607 0.61389 0.76434 0.0
C1038 C 0.20855 0.64605 0.73867 0.0
C1039 C 0.24316 0.67728 0.76442 0.0
loop_
_geom_bond_atom_site_label_1
_geom_bond_atom_site_label_2
_geom_bond_distance
_geom_bond_site_symmetry_2
_ccdc_geom_bond_type
C0 Eu1 2.835 . S
C0 C2 1.500 . S
C0 O20 1.257 . S
C0 O21 1.260 . S
Eu1 C0 2.835 . S
Eu1 O20 2.473 . S
Eu1 O21 2.480 . S
Eu1 O22 2.430 . S
Eu1 O23 2.670 . S
Eu1 O24 2.394 . S
Eu1 O29 2.355 . S
Eu1 O31 2.374 . S
C2 C0 1.500 . S
C2 C3 1.377 . S
C2 C7 1.377 . S
C3 C2 1.377 . S
C3 C4 1.395 . S
C3 H32 0.931 . S
C4 C3 1.395 . S
C4 C5 1.383 . S
C4 H33 0.931 . S
C5 C4 1.383 . S
C5 C6 1.394 . S
C6 C5 1.394 . S
C6 C7 1.378 . S
C6 H34 0.931 . S
C7 C2 1.377 . S
C7 C6 1.378 . S
C7 H35 0.931 . S
C8 O22 1.259 . S
C8 O23 1.270 . S
C9 O24 1.251 . S
C9 O25 1.251 . S
C10 Eu11 2.835 . S
C10 C12 1.500 . S
C10 O26 1.257 . S
C10 O27 1.260 . S
Eu11 C10 2.835 . S
Eu11 O23 2.355 . S
Eu11 O25 2.374 . S
Eu11 O26 2.473 . S
Eu11 O27 2.480 . S
Eu11 O28 2.430 . S
Eu11 O29 2.670 . S
Eu11 O30 2.394 . S
C12 C10 1.500 . S
C12 C13 1.377 . S
C12 C17 1.377 . S
C13 C12 1.377 . S
C13 C14 1.395 . S
C13 H36 0.931 . S
C14 C13 1.395 . S
C14 C15 1.383 . S
C14 H37 0.931 . S
C15 C14 1.383 . S
C15 C16 1.394 . S
C16 C15 1.394 . S
C16 C17 1.378 . S
C16 H38 0.931 . S
C17 C12 1.377 . S
C17 C16 1.378 . S
C17 H39 0.931 . S
C18 O28 1.259 . S
C18 O29 1.270 . S
C19 O30 1.251 . S
C19 O31 1.251 . S
O20 C0 1.257 . S
O20 Eu1 2.473 . S
O21 C0 1.260 . S
O21 Eu1 2.480 . S
O22 Eu1 2.430 . S
O22 C8 1.259 . S
O23 Eu1 2.670 . S
O23 C8 1.270 . S
O23 Eu11 2.355 . S
O24 Eu1 2.394 . S
O24 C9 1.251 . S
O25 C9 1.251 . S
O25 Eu11 2.374 . S
O26 C10 1.257 . S
O26 Eu11 2.473 . S
O27 C10 1.260 . S
O27 Eu11 2.480 . S
O28 Eu11 2.430 . S
O28 C18 1.259 . S
O29 Eu1 2.355 . S
O29 Eu11 2.670 . S
O29 C18 1.270 . S
O30 Eu11 2.394 . S
O30 C19 1.251 . S
O31 Eu1 2.374 . S
O31 C19 1.251 . S
H32 C3 0.931 . S
H33 C4 0.931 . S
H34 C6 0.931 . S
H35 C7 0.931 . S
H36 C13 0.931 . S
H37 C14 0.931 . S
H38 C16 0.931 . S
H39 C17 0.931 . S
C40 Eu41 2.835 . S
C40 C42 1.500 . S
C40 O60 1.257 . S
C40 O61 1.260 . S
Eu41 C40 2.835 . S
Eu41 O60 2.473 . S
Eu41 O61 2.480 . S
Eu41 O62 2.430 . S
Eu41 O63 2.670 . S
Eu41 O64 2.394 . S
Eu41 O69 2.355 . S
Eu41 O71 2.374 . S
C42 C40 1.500 . S
C42 C43 1.377 . S
C42 C47 1.377 . S
C43 C42 1.377 . S
C43 C44 1.395 . S
C43 H72 0.931 . S
C44 C43 1.395 . S
C44 C45 1.383 . S
C44 H73 0.931 . S
C45 C44 1.383 . S
C45 C46 1.394 . S
C46 C45 1.394 . S
C46 C47 1.378 . S
C46 H74 0.931 . S
C47 C42 1.377 . S
C47 C46 1.378 . S
C47 H75 0.931 . S
C48 O62 1.259 . S
C48 O63 1.270 . S
C49 O64 1.251 . S
C49 O65 1.251 . S
C50 Eu51 2.835 . S
C50 C52 1.500 . S
C50 O66 1.257 . S
C50 O67 1.260 . S
Eu51 C50 2.835 . S
Eu51 O63 2.355 . S
Eu51 O65 2.374 . S
Eu51 O66 2.473 . S
Eu51 O67 2.480 . S
Eu51 O68 2.430 . S
Eu51 O69 2.670 . S
Eu51 O70 2.394 . S
C52 C50 1.500 . S
C52 C53 1.377 . S
C52 C57 1.377 . S
C53 C52 1.377 . S
C53 C54 1.395 . S
C53 H76 0.931 . S
C54 C53 1.395 . S
C54 C55 1.383 . S
C54 H77 0.931 . S
C55 C54 1.383 . S
C55 C56 1.394 . S
C56 C55 1.394 . S
C56 C57 1.378 . S
C56 H78 0.931 . S
C57 C52 1.377 . S
C57 C56 1.378 . S
C57 H79 0.931 . S
C58 O68 1.259 . S
C58 O69 1.270 . S
C59 O70 1.251 . S
C59 O71 1.251 . S
O60 C40 1.257 . S
O60 Eu41 2.473 . S
O61 C40 1.260 . S
O61 Eu41 2.480 . S
O62 Eu41 2.430 . S
O62 C48 1.259 . S
O63 Eu41 2.670 . S
O63 C48 1.270 . S
O63 Eu51 2.355 . S
O64 Eu41 2.394 . S
O64 C49 1.251 . S
O65 C49 1.251 . S
O65 Eu51 2.374 . S
O66 C50 1.257 . S
O66 Eu51 2.473 . S
O67 C50 1.260 . S
O67 Eu51 2.480 . S
O68 Eu51 2.430 . S
O68 C58 1.259 . S
O69 Eu41 2.355 . S
O69 Eu51 2.670 . S
O69 C58 1.270 . S
O70 Eu51 2.394 . S
O70 C59 1.251 . S
O71 Eu41 2.374 . S
O71 C59 1.251 . S
H72 C43 0.931 . S
H73 C44 0.931 . S
H74 C46 0.931 . S
H75 C47 0.931 . S
H76 C53 0.931 . S
H77 C54 0.931 . S
H78 C56 0.931 . S
H79 C57 0.931 . S
C80 Eu81 2.835 . S
C80 C82 1.500 . S
C80 O100 1.257 . S
C80 O101 1.260 . S
Eu81 C80 2.835 . S
Eu81 O100 2.473 . S
Eu81 O101 2.480 . S
Eu81 O102 2.430 . S
Eu81 O103 2.670 . S
Eu81 O104 2.394 . S
Eu81 O109 2.355 . S
Eu81 O111 2.374 . S
C82 C80 1.500 . S
C82 C83 1.377 . S
C82 C87 1.377 . S
C83 C82 1.377 . S
C83 C84 1.395 . S
C83 H112 0.931 . S
C84 C83 1.395 . S
C84 C85 1.383 . S
C84 H113 0.931 . S
C85 C84 1.383 . S
C85 C86 1.394 . S
C86 C85 1.394 . S
C86 C87 1.378 . S
C86 H114 0.931 . S
C87 C82 1.377 . S
C87 C86 1.378 . S
C87 H115 0.931 . S
C88 O102 1.259 . S
C88 O103 1.270 . S
C89 O104 1.251 . S
C89 O105 1.251 . S
C90 Eu91 2.835 . S
C90 C92 1.500 . S
C90 O106 1.257 . S
C90 O107 1.260 . S
Eu91 C90 2.835 . S
Eu91 O103 2.355 . S
Eu91 O105 2.374 . S
Eu91 O106 2.473 . S
Eu91 O107 2.480 . S
Eu91 O108 2.430 . S
Eu91 O109 2.670 . S
Eu91 O110 2.394 . S
C92 C90 1.500 . S
C92 C93 1.377 . S
C92 C97 1.377 . S
C93 C92 1.377 . S
C93 C94 1.395 . S
C93 H116 0.931 . S
C94 C93 1.395 . S
C94 C95 1.383 . S
C94 H117 0.931 . S
C95 C94 1.383 . S
C95 C96 1.394 . S
C96 C95 1.394 . S
C96 C97 1.378 . S
C96 H118 0.931 . S
C97 C92 1.377 . S
C97 C96 1.378 . S
C97 H119 0.931 . S
C98 O108 1.259 . S
C98 O109 1.270 . S
C99 O110 1.251 . S
C99 O111 1.251 . S
O100 C80 1.257 . S
O100 Eu81 2.473 . S
O101 C80 1.260 . S
O101 Eu81 2.480 . S
O102 Eu81 2.430 . S
O102 C88 1.259 . S
O103 Eu81 2.670 . S
O103 C88 1.270 . S
O103 Eu91 2.355 . S
O104 Eu81 2.394 . S
O104 C89 1.251 . S
O105 C89 1.251 . S
O105 Eu91 2.374 . S
O106 C90 1.257 . S
O106 Eu91 2.473 . S
O107 C90 1.260 . S
O107 Eu91 2.480 . S
O108 Eu91 2.430 . S
O108 C98 1.259 . S
O109 Eu81 2.355 . S
O109 Eu91 2.670 . S
O109 C98 1.270 . S
O110 Eu91 2.394 . S
O110 C99 1.251 . S
O111 Eu81 2.374 . S
O111 C99 1.251 . S
H112 C83 0.931 . S
H113 C84 0.931 . S
H114 C86 0.931 . S
H115 C87 0.931 . S
H116 C93 0.931 . S
H117 C94 0.931 . S
H118 C96 0.931 . S
H119 C97 0.931 . S
C120 Eu121 2.835 . S
C120 C122 1.500 . S
C120 O140 1.257 . S
C120 O141 1.260 . S
Eu121 C120 2.835 . S
Eu121 O140 2.473 . S
Eu121 O141 2.480 . S
Eu121 O142 2.430 . S
Eu121 O143 2.670 . S
Eu121 O144 2.394 . S
Eu121 O149 2.355 . S
Eu121 O151 2.374 . S
C122 C120 1.500 . S
C122 C123 1.377 . S
C122 C127 1.377 . S
C123 C122 1.377 . S
C123 C124 1.395 . S
C123 H152 0.931 . S
C124 C123 1.395 . S
C124 C125 1.383 . S
C124 H153 0.931 . S
C125 C124 1.383 . S
C125 C126 1.394 . S
C126 C125 1.394 . S
C126 C127 1.378 . S
C126 H154 0.931 . S
C127 C122 1.377 . S
C127 C126 1.378 . S
C127 H155 0.931 . S
C128 O142 1.259 . S
C128 O143 1.270 . S
C129 O144 1.251 . S
C129 O145 1.251 . S
C130 Eu131 2.835 . S
C130 C132 1.500 . S
C130 O146 1.257 . S
C130 O147 1.260 . S
Eu131 C130 2.835 . S
Eu131 O143 2.355 . S
Eu131 O145 2.374 . S
Eu131 O146 2.473 . S
Eu131 O147 2.480 . S
Eu131 O148 2.430 . S
Eu131 O149 2.670 . S
Eu131 O150 2.394 . S
C132 C130 1.500 . S
C132 C133 1.377 . S
C132 C137 1.377 . S
C133 C132 1.377 . S
C133 C134 1.395 . S
C133 H156 0.931 . S
C134 C133 1.395 . S
C134 C135 1.383 . S
C134 H157 0.931 . S
C135 C134 1.383 . S
C135 C136 1.394 . S
C136 C135 1.394 . S
C136 C137 1.378 . S
C136 H158 0.931 . S
C137 C132 1.377 . S
C137 C136 1.378 . S
C137 H159 0.931 . S
C138 O148 1.259 . S
C138 O149 1.270 . S
C139 O150 1.251 . S
C139 O151 1.251 . S
O140 C120 1.257 . S
O140 Eu121 2.473 . S
O141 C120 1.260 . S
O141 Eu121 2.480 . S
O142 Eu121 2.430 . S
O142 C128 1.259 . S
O143 Eu121 2.670 . S
O143 C128 1.270 . S
O143 Eu131 2.355 . S
O144 Eu121 2.394 . S
O144 C129 1.251 . S
O145 C129 1.251 . S
O145 Eu131 2.374 . S
O146 C130 1.257 . S
O146 Eu131 2.473 . S
O147 C130 1.260 . S
O147 Eu131 2.480 . S
O148 Eu131 2.430 . S
O148 C138 1.259 . S
O149 Eu121 2.355 . S
O149 Eu131 2.670 . S
O149 C138 1.270 . S
O150 Eu131 2.394 . S
O150 C139 1.251 . S
O151 Eu121 2.374 . S
O151 C139 1.251 . S
H152 C123 0.931 . S
H153 C124 0.931 . S
H154 C126 0.931 . S
H155 C127 0.931 . S
H156 C133 0.931 . S
H157 C134 0.931 . S
H158 C136 0.931 . S
H159 C137 0.931 . S
C160 Eu161 2.835 . S
C160 C162 1.500 . S
C160 O180 1.257 . S
C160 O181 1.260 . S
Eu161 C160 2.835 . S
Eu161 O180 2.473 . S
Eu161 O181 2.480 . S
Eu161 O182 2.430 . S
Eu161 O183 2.670 . S
Eu161 O184 2.394 . S
Eu161 O189 2.355 . S
Eu161 O191 2.374 . S
C162 C160 1.500 . S
C162 C163 1.377 . S
C162 C167 1.377 . S
C163 C162 1.377 . S
C163 C164 1.395 . S
C163 H192 0.931 . S
C164 C163 1.395 . S
C164 C165 1.383 . S
C164 H193 0.931 . S
C165 C164 1.383 . S
C165 C166 1.394 . S
C166 C165 1.394 . S
C166 C167 1.378 . S
C166 H194 0.931 . S
C167 C162 1.377 . S
C167 C166 1.378 . S
C167 H195 0.931 . S
C168 O182 1.259 . S
C168 O183 1.270 . S
C169 O184 1.251 . S
C169 O185 1.251 . S
C170 Eu171 2.835 . S
C170 C172 1.500 . S
C170 O186 1.257 . S
C170 O187 1.260 . S
Eu171 C170 2.835 . S
Eu171 O183 2.355 . S
Eu171 O185 2.374 . S
Eu171 O186 2.473 . S
Eu171 O187 2.480 . S
Eu171 O188 2.430 . S
Eu171 O189 2.670 . S
Eu171 O190 2.394 . S
C172 C170 1.500 . S
C172 C173 1.377 . S
C172 C177 1.377 . S
C173 C172 1.377 . S
C173 C174 1.395 . S
C173 H196 0.931 . S
C174 C173 1.395 . S
C174 C175 1.383 . S
C174 H197 0.931 1_556 S
C175 C174 1.383 . S
C175 C176 1.394 . S
C176 C175 1.394 . S
C176 C177 1.378 . S
C176 H198 0.931 . S
C177 C172 1.377 . S
C177 C176 1.378 . S
C177 H199 0.931 . S
C178 O188 1.259 . S
C178 O189 1.270 . S
C179 O190 1.251 . S
C179 O191 1.251 . S
O180 C160 1.257 . S
O180 Eu161 2.473 . S
O181 C160 1.260 . S
O181 Eu161 2.480 . S
O182 Eu161 2.430 . S
O182 C168 1.259 . S
O183 Eu161 2.670 . S
O183 C168 1.270 . S
O183 Eu171 2.355 . S
O184 Eu161 2.394 . S
O184 C169 1.251 . S
O185 C169 1.251 . S
O185 Eu171 2.374 . S
O186 C170 1.257 . S
O186 Eu171 2.473 . S
O187 C170 1.260 . S
O187 Eu171 2.480 . S
O188 Eu171 2.430 . S
O188 C178 1.259 . S
O189 Eu161 2.355 . S
O189 Eu171 2.670 . S
O189 C178 1.270 . S
O190 Eu171 2.394 . S
O190 C179 1.251 . S
O191 Eu161 2.374 . S
O191 C179 1.251 . S
H192 C163 0.931 . S
H193 C164 0.931 . S
H194 C166 0.931 . S
H195 C167 0.931 . S
H196 C173 0.931 . S
H197 C174 0.931 1_554 S
H198 C176 0.931 . S
H199 C177 0.931 . S
C200 Eu201 2.835 . S
C200 C202 1.500 . S
C200 O220 1.257 . S
C200 O221 1.260 . S
Eu201 C200 2.835 . S
Eu201 O220 2.473 . S
Eu201 O221 2.480 . S
Eu201 O222 2.430 . S
Eu201 O223 2.670 . S
Eu201 O224 2.394 . S
Eu201 O229 2.355 . S
Eu201 O231 2.374 . S
C202 C200 1.500 . S
C202 C203 1.377 . S
C202 C207 1.377 . S
C203 C202 1.377 . S
C203 C204 1.395 . S
C203 H232 0.931 . S
C204 C203 1.395 . S
C204 C205 1.383 . S
C204 H233 0.931 . S
C205 C204 1.383 . S
C205 C206 1.394 . S
C206 C205 1.394 . S
C206 C207 1.378 . S
C206 H234 0.931 . S
C207 C202 1.377 . S
C207 C206 1.378 . S
C207 H235 0.931 . S
C208 O222 1.259 . S
C208 O223 1.270 . S
C209 O224 1.251 . S
C209 O225 1.251 . S
C210 Eu211 2.835 . S
C210 C212 1.500 . S
C210 O226 1.257 . S
C210 O227 1.260 . S
Eu211 C210 2.835 . S
Eu211 O223 2.355 . S
Eu211 O225 2.374 . S
Eu211 O226 2.473 . S
Eu211 O227 2.480 . S
Eu211 O228 2.430 . S
Eu211 O229 2.670 . S
Eu211 O230 2.394 . S
C212 C210 1.500 . S
C212 C213 1.377 . S
C212 C217 1.377 . S
C213 C212 1.377 . S
C213 C214 1.395 . S
C213 H236 0.931 . S
C214 C213 1.395 . S
C214 C215 1.383 . S
C214 H237 0.931 . S
C215 C214 1.383 . S
C215 C216 1.394 . S
C216 C215 1.394 . S
C216 C217 1.378 . S
C216 H238 0.931 . S
C217 C212 1.377 . S
C217 C216 1.378 . S
C217 H239 0.931 . S
C218 O228 1.259 . S
C218 O229 1.270 . S
C219 O230 1.251 . S
C219 O231 1.251 . S
O220 C200 1.257 . S
O220 Eu201 2.473 . S
O221 C200 1.260 . S
O221 Eu201 2.480 . S
O222 Eu201 2.430 . S
O222 C208 1.259 . S
O223 Eu201 2.670 . S
O223 C208 1.270 . S
O223 Eu211 2.355 . S
O224 Eu201 2.394 . S
O224 C209 1.251 . S
O225 C209 1.251 . S
O225 Eu211 2.374 . S
O226 C210 1.257 . S
O226 Eu211 2.473 . S
O227 C210 1.260 . S
O227 Eu211 2.480 . S
O228 Eu211 2.430 . S
O228 C218 1.259 . S
O229 Eu201 2.355 . S
O229 Eu211 2.670 . S
O229 C218 1.270 . S
O230 Eu211 2.394 . S
O230 C219 1.251 . S
O231 Eu201 2.374 . S
O231 C219 1.251 . S
H232 C203 0.931 . S
H233 C204 0.931 . S
H234 C206 0.931 . S
H235 C207 0.931 . S
H236 C213 0.931 . S
H237 C214 0.931 . S
H238 C216 0.931 . S
H239 C217 0.931 . S
C240 Eu241 2.835 . S
C240 C242 1.500 . S
C240 O260 1.257 . S
C240 O261 1.260 . S
Eu241 C240 2.835 . S
Eu241 O260 2.473 . S
Eu241 O261 2.480 . S
Eu241 O262 2.430 . S
Eu241 O263 2.670 . S
Eu241 O264 2.394 . S
Eu241 O269 2.355 . S
Eu241 O271 2.374 . S
C242 C240 1.500 . S
C242 C243 1.377 . S
C242 C247 1.377 . S
C243 C242 1.377 . S
C243 C244 1.395 . S
C243 H272 0.931 . S
C244 C243 1.395 . S
C244 C245 1.383 . S
C244 H273 0.931 . S
C245 C244 1.383 . S
C245 C246 1.394 . S
C246 C245 1.394 . S
C246 C247 1.378 . S
C246 H274 0.931 . S
C247 C242 1.377 . S
C247 C246 1.378 . S
C247 H275 0.931 . S
C248 O262 1.259 . S
C248 O263 1.270 . S
C249 O264 1.251 . S
C249 O265 1.251 . S
C250 Eu251 2.835 . S
C250 C252 1.500 . S
C250 O266 1.257 . S
C250 O267 1.260 . S
Eu251 C250 2.835 . S
Eu251 O263 2.355 . S
Eu251 O265 2.374 . S
Eu251 O266 2.473 . S
Eu251 O267 2.480 . S
Eu251 O268 2.430 . S
Eu251 O269 2.670 . S
Eu251 O270 2.394 . S
C252 C250 1.500 . S
C252 C253 1.377 . S
C252 C257 1.377 . S
C253 C252 1.377 . S
C253 C254 1.395 . S
C253 H276 0.931 . S
C254 C253 1.395 . S
C254 C255 1.383 . S
C254 H277 0.931 . S
C255 C254 1.383 . S
C255 C256 1.394 . S
C256 C255 1.394 . S
C256 C257 1.378 . S
C256 H278 0.931 . S
C257 C252 1.377 . S
C257 C256 1.378 . S
C257 H279 0.931 . S
C258 O268 1.259 . S
C258 O269 1.270 . S
C259 O270 1.251 . S
C259 O271 1.251 . S
O260 C240 1.257 . S
O260 Eu241 2.473 . S
O261 C240 1.260 . S
O261 Eu241 2.480 . S
O262 Eu241 2.430 . S
O262 C248 1.259 . S
O263 Eu241 2.670 . S
O263 C248 1.270 . S
O263 Eu251 2.355 . S
O264 Eu241 2.394 . S
O264 C249 1.251 . S
O265 C249 1.251 . S
O265 Eu251 2.374 . S
O266 C250 1.257 . S
O266 Eu251 2.473 . S
O267 C250 1.260 . S
O267 Eu251 2.480 . S
O268 Eu251 2.430 . S
O268 C258 1.259 . S
O269 Eu241 2.355 . S
O269 Eu251 2.670 . S
O269 C258 1.270 . S
O270 Eu251 2.394 . S
O270 C259 1.251 . S
O271 Eu241 2.374 . S
O271 C259 1.251 . S
H272 C243 0.931 . S
H273 C244 0.931 . S
H274 C246 0.931 . S
H275 C247 0.931 . S
H276 C253 0.931 . S
H277 C254 0.931 . S
H278 C256 0.931 . S
H279 C257 0.931 . S
C280 Eu281 2.835 . S
C280 C282 1.500 . S
C280 O300 1.257 . S
C280 O301 1.260 . S
Eu281 C280 2.835 . S
Eu281 O300 2.473 . S
Eu281 O301 2.480 . S
Eu281 O302 2.430 . S
Eu281 O303 2.670 . S
Eu281 O304 2.394 . S
Eu281 O309 2.355 . S
Eu281 O311 2.374 . S
C282 C280 1.500 . S
C282 C283 1.377 . S
C282 C287 1.377 . S
C283 C282 1.377 . S
C283 C284 1.395 . S
C283 H312 0.931 . S
C284 C283 1.395 . S
C284 C285 1.383 . S
C284 H313 0.931 . S
C285 C284 1.383 . S
C285 C286 1.394 . S
C286 C285 1.394 . S
C286 C287 1.378 . S
C286 H314 0.931 . S
C287 C282 1.377 . S
C287 C286 1.378 . S
C287 H315 0.931 . S
C288 O302 1.259 . S
C288 O303 1.270 . S
C289 O304 1.251 . S
C289 O305 1.251 . S
C290 Eu291 2.835 . S
C290 C292 1.500 . S
C290 O306 1.257 . S
C290 O307 1.260 . S
Eu291 C290 2.835 . S
Eu291 O303 2.355 . S
Eu291 O305 2.374 . S
Eu291 O306 2.473 . S
Eu291 O307 2.480 . S
Eu291 O308 2.430 . S
Eu291 O309 2.670 . S
Eu291 O310 2.394 . S
C292 C290 1.500 . S
C292 C293 1.377 . S
C292 C297 1.377 . S
C293 C292 1.377 . S
C293 C294 1.395 . S
C293 H316 0.931 . S
C294 C293 1.395 . S
C294 C295 1.383 . S
C294 H317 0.931 . S
C295 C294 1.383 . S
C295 C296 1.394 . S
C296 C295 1.394 . S
C296 C297 1.378 . S
C296 H318 0.931 . S
C297 C292 1.377 . S
C297 C296 1.378 . S
C297 H319 0.931 . S
C298 O308 1.259 . S
C298 O309 1.270 . S
C299 O310 1.251 . S
C299 O311 1.251 . S
O300 C280 1.257 . S
O300 Eu281 2.473 . S
O301 C280 1.260 . S
O301 Eu281 2.480 . S
O302 Eu281 2.430 . S
O302 C288 1.259 . S
O303 Eu281 2.670 . S
O303 C288 1.270 . S
O303 Eu291 2.355 . S
O304 Eu281 2.394 . S
O304 C289 1.251 . S
O305 C289 1.251 . S
O305 Eu291 2.374 . S
O306 C290 1.257 . S
O306 Eu291 2.473 . S
O307 C290 1.260 . S
O307 Eu291 2.480 . S
O308 Eu291 2.430 . S
O308 C298 1.259 . S
O309 Eu281 2.355 . S
O309 Eu291 2.670 . S
O309 C298 1.270 . S
O310 Eu291 2.394 . S
O310 C299 1.251 . S
O311 Eu281 2.374 . S
O311 C299 1.251 . S
H312 C283 0.931 . S
H313 C284 0.931 . S
H314 C286 0.931 . S
H315 C287 0.931 . S
H316 C293 0.931 . S
H317 C294 0.931 . S
H318 C296 0.931 . S
H319 C297 0.931 . S
Fe320 O321 1.886 1_455 S
Fe320 O324 1.715 . S
Fe320 O329 2.077 1_455 S
Fe320 O334 1.935 . S
Fe320 O340 2.077 1_455 S
Fe320 O349 1.935 . S
O321 Fe320 1.886 1_655 S
O321 Fe323 1.715 . S
Fe322 O324 1.886 . S
Fe322 O325 1.715 1_545 S
Fe322 O332 1.935 1_545 S
Fe322 O333 2.077 . S
Fe322 O339 1.935 1_545 S
Fe322 O348 2.077 . S
Fe323 O321 1.715 . S
Fe323 O326 1.886 1_545 S
Fe323 O330 1.935 . S
Fe323 O335 2.077 1_545 S
Fe323 O341 1.935 . S
Fe323 O345 2.077 1_545 S
O324 Fe320 1.715 . S
O324 Fe322 1.886 . S
O325 Fe322 1.715 1_565 S
O325 Fe327 1.886 . S
O326 Fe323 1.886 1_565 S
O326 Fe327 1.715 1_655 S
Fe327 O325 1.886 . S
Fe327 O326 1.715 1_455 S
Fe327 O331 2.077 . S
Fe327 O336 1.935 1_455 S
Fe327 O338 2.077 . S
Fe327 O346 1.935 1_455 S
C328 O340 1.381 . S
C328 O341 1.421 . S
O329 Fe320 2.077 1_655 S
O329 C342 1.381 . S
O330 Fe323 1.935 . S
O330 C342 1.421 . S
O331 Fe327 2.077 . S
O331 C347 1.381 . S
O332 Fe322 1.935 1_565 S
O332 C347 1.421 . S
O333 Fe322 2.077 . S
O333 C337 1.381 . S
O334 Fe320 1.935 . S
O334 C337 1.421 . S
O335 Fe323 2.077 1_565 S
O335 C343 1.381 . S
O336 Fe327 1.935 1_655 S
O336 C343 1.421 . S
C337 O333 1.381 . S
C337 O334 1.421 . S
O338 Fe327 2.077 . S
O338 C350 1.381 . S
O339 Fe322 1.935 1_565 S
O339 C350 1.421 . S
O340 Fe320 2.077 1_655 S
O340 C328 1.381 . S
O341 Fe323 1.935 . S
O341 C328 1.421 . S
C342 O329 1.381 . S
C342 O330 1.421 . S
C343 O335 1.381 . S
C343 O336 1.421 . S
C344 O345 1.381 . S
C344 O346 1.421 . S
O345 Fe323 2.077 1_565 S
O345 C344 1.381 . S
O346 Fe327 1.935 1_655 S
O346 C344 1.421 . S
C347 O331 1.381 . S
C347 O332 1.421 . S
O348 Fe322 2.077 . S
O348 C351 1.381 . S
O349 Fe320 1.935 . S
O349 C351 1.421 . S
C350 O338 1.381 . S
C350 O339 1.421 . S
C351 O348 1.381 . S
C351 O349 1.421 . S
Fe352 O353 1.884 1_565 S
Fe352 O356 1.717 1_554 S
Fe352 O361 2.067 1_554 S
Fe352 O366 1.926 1_554 S
Fe352 O372 2.085 . S
Fe352 O381 1.946 . S
O353 Fe352 1.884 1_545 S
O353 Fe355 1.715 . S
Fe354 O356 1.886 1_545 S
Fe354 O357 1.715 . S
Fe354 O364 1.935 . S
Fe354 O365 2.077 1_545 S
Fe354 O371 1.935 1_556 S
Fe354 O380 2.077 1_546 S
Fe355 O353 1.715 . S
Fe355 O358 1.886 . S
Fe355 O362 1.935 1_554 S
Fe355 O367 2.077 1_554 S
Fe355 O373 1.935 . S
Fe355 O377 2.077 . S
O356 Fe352 1.717 1_556 S
O356 Fe354 1.886 1_565 S
O357 Fe354 1.715 . S
O357 Fe359 1.885 . S
O358 Fe355 1.886 . S
O358 Fe359 1.716 1_554 S
Fe359 O357 1.885 . S
Fe359 O358 1.716 1_556 S
Fe359 O363 2.081 . S
Fe359 O368 1.941 . S
Fe359 O370 2.072 1_556 S
Fe359 O378 1.931 1_556 S
C360 O372 1.381 . S
C360 O373 1.421 1_565 S
O361 Fe352 2.067 1_556 S
O361 C374 1.381 . S
O362 Fe355 1.935 1_556 S
O362 C374 1.421 1_545 S
O363 Fe359 2.081 . S
O363 C379 1.381 . S
O364 Fe354 1.935 . S
O364 C379 1.421 . S
O365 Fe354 2.077 1_565 S
O365 C369 1.381 . S
O366 Fe352 1.926 1_556 S
O366 C369 1.421 . S
O367 Fe355 2.077 1_556 S
O367 C375 1.381 . S
O368 Fe359 1.941 . S
O368 C375 1.421 . S
C369 O365 1.381 . S
C369 O366 1.421 . S
O370 Fe359 2.072 1_554 S
O370 C382 1.381 . S
O371 Fe354 1.935 1_554 S
O371 C382 1.421 . S
O372 Fe352 2.085 . S
O372 C360 1.381 . S
O373 Fe355 1.935 . S
O373 C360 1.421 1_545 S
C374 O361 1.381 . S
C374 O362 1.421 1_565 S
C375 O367 1.381 . S
C375 O368 1.421 . S
C376 O377 1.381 . S
C376 O378 1.421 . S
O377 Fe355 2.077 . S
O377 C376 1.381 . S
O378 Fe359 1.931 1_554 S
O378 C376 1.421 . S
C379 O363 1.381 . S
C379 O364 1.421 . S
O380 Fe354 2.077 1_564 S
O380 C383 1.381 . S
O381 Fe352 1.946 . S
O381 C383 1.421 . S
C382 O370 1.381 . S
C382 O371 1.421 . S
C383 O380 1.381 . S
C383 O381 1.421 . S
Fe384 O385 1.886 1_455 S
Fe384 O388 1.715 . S
Fe384 O393 2.077 1_455 S
Fe384 O398 1.935 . S
Fe384 O404 2.077 1_455 S
Fe384 O413 1.935 . S
O385 Fe384 1.886 1_655 S
O385 Fe387 1.715 . S
Fe386 O388 1.886 . S
Fe386 O389 1.715 . S
Fe386 O396 1.935 . S
Fe386 O397 2.077 . S
Fe386 O403 1.935 . S
Fe386 O412 2.077 . S
Fe387 O385 1.715 . S
Fe387 O390 1.886 . S
Fe387 O394 1.935 1_554 S
Fe387 O399 2.082 . S
Fe387 O405 1.935 . S
Fe387 O409 2.077 . S
O388 Fe384 1.715 . S
O388 Fe386 1.886 . S
O389 Fe386 1.715 . S
O389 Fe391 1.886 1_455 S
O390 Fe387 1.886 . S
O390 Fe391 1.715 . S
Fe391 O389 1.886 1_655 S
Fe391 O390 1.715 . S
Fe391 O395 2.077 1_655 S
Fe391 O400 1.935 . S
Fe391 O402 2.077 1_655 S
Fe391 O410 1.935 . S
C392 O404 1.381 . S
C392 O405 1.421 . S
O393 Fe384 2.077 1_655 S
O393 C406 1.381 1_554 S
O394 Fe387 1.935 1_556 S
O394 C406 1.421 . S
O395 Fe391 2.077 1_455 S
O395 C411 1.381 . S
O396 Fe386 1.935 . S
O396 C411 1.421 . S
O397 Fe386 2.077 . S
O397 C401 1.381 . S
O398 Fe384 1.935 . S
O398 C401 1.421 . S
O399 Fe387 2.082 . S
O399 C407 1.378 1_554 S
O400 Fe391 1.935 . S
O400 C407 1.421 1_554 S
C401 O397 1.381 . S
C401 O398 1.421 . S
O402 Fe391 2.077 1_455 S
O402 C414 1.381 . S
O403 Fe386 1.935 . S
O403 C414 1.421 . S
O404 Fe384 2.077 1_655 S
O404 C392 1.381 . S
O405 Fe387 1.935 . S
O405 C392 1.421 . S
C406 O393 1.381 1_556 S
C406 O394 1.421 . S
C407 O399 1.378 1_556 S
C407 O400 1.421 1_556 S
C408 O409 1.381 . S
C408 O410 1.421 . S
O409 Fe387 2.077 . S
O409 C408 1.381 . S
O410 Fe391 1.935 . S
O410 C408 1.421 . S
C411 O395 1.381 . S
C411 O396 1.421 . S
O412 Fe386 2.077 . S
O412 C415 1.381 . S
O413 Fe384 1.935 . S
O413 C415 1.421 . S
C414 O402 1.381 . S
C414 O403 1.421 . S
C415 O412 1.381 . S
C415 O413 1.421 . S
Fe416 O417 1.886 1_556 S
Fe416 O420 1.715 . S
Fe416 O425 2.077 . S
Fe416 O430 1.935 . S
Fe416 O436 2.077 . S
Fe416 O445 1.935 . S
O417 Fe416 1.886 1_554 S
O417 Fe419 1.715 . S
Fe418 O420 1.886 1_554 S
Fe418 O421 1.715 . S
Fe418 O428 1.935 . S
Fe418 O429 2.077 1_554 S
Fe418 O435 1.935 . S
Fe418 O444 2.077 1_554 S
Fe419 O417 1.715 . S
Fe419 O422 1.886 . S
Fe419 O426 1.935 . S
Fe419 O431 2.077 . S
Fe419 O437 1.935 . S
Fe419 O441 2.077 . S
O420 Fe416 1.715 . S
O420 Fe418 1.886 1_556 S
O421 Fe418 1.715 . S
O421 Fe423 1.886 . S
O422 Fe419 1.886 . S
O422 Fe423 1.715 . S
Fe423 O421 1.886 . S
Fe423 O422 1.715 . S
Fe423 O427 2.077 . S
Fe423 O432 1.935 . S
Fe423 O434 2.077 . S
Fe423 O442 1.935 . S
C424 O436 1.381 . S
C424 O437 1.421 1_556 S
O425 Fe416 2.077 . S
O425 C438 1.381 . S
O426 Fe419 1.935 . S
O426 C438 1.421 1_554 S
O427 Fe423 2.077 . S
O427 C443 1.381 . S
O428 Fe418 1.935 . S
O428 C443 1.421 . S
O429 Fe418 2.077 1_556 S
O429 C433 1.381 . S
O430 Fe416 1.935 . S
O430 C433 1.421 . S
O431 Fe419 2.077 . S
O431 C439 1.381 . S
O432 Fe423 1.935 . S
O432 C439 1.421 . S
C433 O429 1.381 . S
C433 O430 1.421 . S
O434 Fe423 2.077 . S
O434 C446 1.381 . S
O435 Fe418 1.935 . S
O435 C446 1.421 . S
O436 Fe416 2.077 . S
O436 C424 1.381 . S
O437 Fe419 1.935 . S
O437 C424 1.421 1_554 S
C438 O425 1.381 . S
C438 O426 1.421 1_556 S
C439 O431 1.381 . S
C439 O432 1.421 . S
C440 O441 1.381 . S
C440 O442 1.421 . S
O441 Fe419 2.077 . S
O441 C440 1.381 . S
O442 Fe423 1.935 . S
O442 C440 1.421 . S
C443 O427 1.381 . S
C443 O428 1.421 . S
O444 Fe418 2.077 1_556 S
O444 C447 1.381 . S
O445 Fe416 1.935 . S
O445 C447 1.421 . S
C446 O434 1.381 . S
C446 O435 1.421 . S
C447 O444 1.381 . S
C447 O445 1.421 . S
Fe448 O449 1.886 . S
Fe448 O452 1.715 . S
Fe448 O457 2.077 . S
Fe448 O462 1.935 . S
Fe448 O468 2.077 1_455 S
Fe448 O477 1.935 1_455 S
O449 Fe448 1.886 . S
O449 Fe451 1.715 . S
Fe450 O452 1.886 . S
Fe450 O453 1.715 . S
Fe450 O460 1.935 . S
Fe450 O461 2.077 . S
Fe450 O467 1.935 1_455 S
Fe450 O476 2.077 1_455 S
Fe451 O449 1.715 . S
Fe451 O454 1.886 . S
Fe451 O458 1.935 . S
Fe451 O463 2.077 . S
Fe451 O469 1.935 . S
Fe451 O473 2.077 . S
O452 Fe448 1.715 . S
O452 Fe450 1.886 . S
O453 Fe450 1.715 . S
O453 Fe455 1.886 . S
O454 Fe451 1.886 . S
O454 Fe455 1.715 . S
Fe455 O453 1.886 . S
Fe455 O454 1.715 . S
Fe455 O459 2.077 . S
Fe455 O464 1.935 . S
Fe455 O466 2.077 . S
Fe455 O474 1.935 . S
C456 O468 1.381 . S
C456 O469 1.421 1_655 S
O457 Fe448 2.077 . S
O457 C470 1.381 . S
O458 Fe451 1.935 . S
O458 C470 1.421 . S
O459 Fe455 2.077 . S
O459 C475 1.381 . S
O460 Fe450 1.935 . S
O460 C475 1.421 . S
O461 Fe450 2.077 . S
O461 C465 1.381 . S
O462 Fe448 1.935 . S
O462 C465 1.421 . S
O463 Fe451 2.077 . S
O463 C471 1.381 . S
O464 Fe455 1.935 . S
O464 C471 1.421 . S
C465 O461 1.381 . S
C465 O462 1.421 . S
O466 Fe455 2.077 . S
O466 C478 1.381 1_455 S
O467 Fe450 1.935 1_655 S
O467 C478 1.421 . S
O468 Fe448 2.077 1_655 S
O468 C456 1.381 . S
O469 Fe451 1.935 . S
O469 C456 1.421 1_455 S
C470 O457 1.381 . S
C470 O458 1.421 . S
C471 O463 1.381 . S
C471 O464 1.421 . S
C472 O473 1.381 . S
C472 O474 1.421 . S
O473 Fe451 2.077 . S
O473 C472 1.381 . S
O474 Fe455 1.935 . S
O474 C472 1.421 . S
C475 O459 1.381 . S
C475 O460 1.421 . S
O476 Fe450 2.077 1_655 S
O476 C479 1.381 . S
O477 Fe448 1.935 1_655 S
O477 C479 1.421 . S
C478 O466 1.381 1_655 S
C478 O467 1.421 . S
C479 O476 1.381 . S
C479 O477 1.421 . S
Fe480 O481 1.886 . S
Fe480 O484 1.715 . S
Fe480 O489 2.077 . S
Fe480 O494 1.935 . S
Fe480 O500 2.077 . S
Fe480 O509 1.935 . S
O481 Fe480 1.886 . S
O481 Fe483 1.715 1_565 S
Fe482 O484 1.899 . S
Fe482 O485 1.701 1_565 S
Fe482 O492 1.927 1_565 S
Fe482 O493 2.090 . S
Fe482 O499 1.924 1_565 S
Fe482 O508 2.088 . S
Fe483 O481 1.715 1_545 S
Fe483 O486 1.886 . S
Fe483 O490 1.935 1_545 S
Fe483 O495 2.077 . S
Fe483 O501 1.935 1_545 S
Fe483 O505 2.077 . S
O484 Fe480 1.715 . S
O484 Fe482 1.899 . S
O485 Fe482 1.701 1_545 S
O485 Fe487 1.886 . S
O486 Fe483 1.886 . S
O486 Fe487 1.715 . S
Fe487 O485 1.886 . S
Fe487 O486 1.715 . S
Fe487 O491 2.077 . S
Fe487 O496 1.935 . S
Fe487 O498 2.077 . S
Fe487 O506 1.935 . S
C488 O500 1.381 . S
C488 O501 1.421 . S
O489 Fe480 2.077 . S
O489 C502 1.381 . S
O490 Fe483 1.935 1_565 S
O490 C502 1.421 . S
O491 Fe487 2.077 . S
O491 C507 1.381 . S
O492 Fe482 1.927 1_545 S
O492 C507 1.421 . S
O493 Fe482 2.090 . S
O493 C497 1.381 . S
O494 Fe480 1.935 . S
O494 C497 1.421 . S
O495 Fe483 2.077 . S
O495 C503 1.381 . S
O496 Fe487 1.935 . S
O496 C503 1.421 . S
C497 O493 1.381 . S
C497 O494 1.421 . S
O498 Fe487 2.077 . S
O498 C510 1.381 . S
O499 Fe482 1.924 1_545 S
O499 C510 1.421 . S
O500 Fe480 2.077 . S
O500 C488 1.381 . S
O501 Fe483 1.935 1_565 S
O501 C488 1.421 . S
C502 O489 1.381 . S
C502 O490 1.421 . S
C503 O495 1.381 . S
C503 O496 1.421 . S
C504 O505 1.381 . S
C504 O506 1.421 . S
O505 Fe483 2.077 . S
O505 C504 1.381 . S
O506 Fe487 1.935 . S
O506 C504 1.421 . S
C507 O491 1.381 . S
C507 O492 1.421 . S
O508 Fe482 2.088 . S
O508 C511 1.381 . S
O509 Fe480 1.935 . S
O509 C511 1.421 . S
C510 O498 1.381 . S
C510 O499 1.421 . S
C511 O508 1.381 . S
C511 O509 1.421 . S
C512 C513 1.369 . S
C512 C514 1.419 . S
C512 H516 0.930 . S
C513 C512 1.369 . S
C513 C522 1.429 . S
C514 C512 1.419 . S
C514 C515 1.363 . S
C514 H517 0.929 . S
C515 C514 1.363 . S
C515 C521 1.428 . S
H516 C512 0.930 . S
H517 C514 0.929 . S
S518 N519 1.613 . S
S518 N520 1.610 . S
N519 S518 1.613 . S
N519 C522 1.350 . S
N520 S518 1.610 . S
N520 C521 1.351 . S
C521 C515 1.428 . S
C521 N520 1.351 . S
C521 C522 1.434 . S
C522 C513 1.429 . S
C522 N519 1.350 . S
C522 C521 1.434 . S
C523 C524 1.369 . S
C523 C525 1.419 . S
C523 H527 0.930 . S
C524 C523 1.369 . S
C524 C533 1.429 . S
C525 C523 1.419 . S
C525 C526 1.363 . S
C525 H528 0.929 . S
C526 C525 1.363 . S
C526 C532 1.428 . S
H527 C523 0.930 . S
H528 C525 0.929 . S
S529 N530 1.613 . S
S529 N531 1.610 . S
N530 S529 1.613 . S
N530 C533 1.350 . S
N531 S529 1.610 . S
N531 C532 1.351 . S
C532 C526 1.428 . S
C532 N531 1.351 . S
C532 C533 1.434 . S
C533 C524 1.429 . S
C533 N530 1.350 . S
C533 C532 1.434 . S
C534 C535 1.369 . S
C534 C536 1.419 . S
C534 H538 0.930 . S
C535 C534 1.369 . S
C535 C544 1.429 . S
C536 C534 1.419 . S
C536 C537 1.363 . S
C536 H539 0.929 . S
C537 C536 1.363 . S
C537 C543 1.428 . S
H538 C534 0.930 . S
H539 C536 0.929 . S
S540 N541 1.613 . S
S540 N542 1.610 . S
N541 S540 1.613 . S
N541 C544 1.350 . S
N542 S540 1.610 . S
N542 C543 1.351 . S
C543 C537 1.428 . S
C543 N542 1.351 . S
C543 C544 1.434 . S
C544 C535 1.429 . S
C544 N541 1.350 . S
C544 C543 1.434 . S
C545 C546 1.369 . S
C545 C547 1.419 . S
C545 H549 0.930 . S
C546 C545 1.369 . S
C546 C555 1.429 . S
C547 C545 1.419 . S
C547 C548 1.363 . S
C547 H550 0.929 . S
C548 C547 1.363 . S
C548 C554 1.428 . S
H549 C545 0.930 . S
H550 C547 0.929 . S
S551 N552 1.613 . S
S551 N553 1.610 . S
N552 S551 1.613 . S
N552 C555 1.350 . S
N553 S551 1.610 . S
N553 C554 1.351 . S
C554 C548 1.428 . S
C554 N553 1.351 . S
C554 C555 1.434 . S
C555 C546 1.429 . S
C555 N552 1.350 . S
C555 C554 1.434 . S
C556 C557 1.369 . S
C556 C558 1.419 . S
C556 H560 0.930 . S
C557 C556 1.369 . S
C557 C566 1.429 . S
C558 C556 1.419 . S
C558 C559 1.363 . S
C558 H561 0.929 . S
C559 C558 1.363 . S
C559 C565 1.428 . S
H560 C556 0.930 . S
H561 C558 0.929 . S
S562 N563 1.613 . S
S562 N564 1.610 . S
N563 S562 1.613 . S
N563 C566 1.350 . S
N564 S562 1.610 . S
N564 C565 1.351 . S
C565 C559 1.428 . S
C565 N564 1.351 . S
C565 C566 1.434 . S
C566 C557 1.429 . S
C566 N563 1.350 . S
C566 C565 1.434 . S
C567 C568 1.369 . S
C567 C569 1.419 . S
C567 H571 0.930 . S
C568 C567 1.369 . S
C568 C577 1.429 . S
C569 C567 1.419 . S
C569 C570 1.363 . S
C569 H572 0.929 . S
C570 C569 1.363 . S
C570 C576 1.428 . S
H571 C567 0.930 . S
H572 C569 0.929 . S
S573 N574 1.613 . S
S573 N575 1.610 . S
N574 S573 1.613 . S
N574 C577 1.350 . S
N575 S573 1.610 . S
N575 C576 1.351 . S
C576 C570 1.428 . S
C576 N575 1.351 . S
C576 C577 1.434 . S
C577 C568 1.429 . S
C577 N574 1.350 . S
C577 C576 1.434 . S
C578 C579 1.369 . S
C578 C580 1.419 . S
C578 H582 0.930 1_655 S
C579 C578 1.369 . S
C579 C588 1.429 . S
C580 C578 1.419 . S
C580 C581 1.363 . S
C580 H583 0.929 1_655 S
C581 C580 1.363 . S
C581 C587 1.428 . S
H582 C578 0.930 1_455 S
H583 C580 0.929 1_455 S
S584 N585 1.613 . S
S584 N586 1.610 . S
N585 S584 1.613 . S
N585 C588 1.350 . S
N586 S584 1.610 . S
N586 C587 1.351 . S
C587 C581 1.428 . S
C587 N586 1.351 . S
C587 C588 1.434 . S
C588 C579 1.429 . S
C588 N585 1.350 . S
C588 C587 1.434 . S
C589 C590 1.369 . S
C589 C591 1.419 . S
C589 H593 0.930 . S
C590 C589 1.369 . S
C590 C599 1.429 . S
C591 C589 1.419 . S
C591 C592 1.363 . S
C591 H594 0.929 . S
C592 C591 1.363 . S
C592 C598 1.428 . S
H593 C589 0.930 . S
H594 C591 0.929 . S
S595 N596 1.613 . S
S595 N597 1.610 . S
N596 S595 1.613 . S
N596 C599 1.350 . S
N597 S595 1.610 . S
N597 C598 1.351 . S
C598 C592 1.428 . S
C598 N597 1.351 . S
C598 C599 1.434 . S
C599 C590 1.429 . S
C599 N596 1.350 . S
C599 C598 1.434 . S
C600 C601 1.369 . S
C600 C602 1.419 . S
C600 H604 0.930 . S
C601 C600 1.369 . S
C601 C610 1.429 . S
C602 C600 1.419 . S
C602 C603 1.363 . S
C602 H605 0.929 . S
C603 C602 1.363 . S
C603 C609 1.428 . S
H604 C600 0.930 . S
H605 C602 0.929 . S
S606 N607 1.613 . S
S606 N608 1.610 . S
N607 S606 1.613 . S
N607 C610 1.350 . S
N608 S606 1.610 . S
N608 C609 1.351 . S
C609 C603 1.428 . S
C609 N608 1.351 . S
C609 C610 1.434 . S
C610 C601 1.429 . S
C610 N607 1.350 . S
C610 C609 1.434 . S
C611 C612 1.369 . S
C611 C613 1.419 . S
C611 H615 0.930 . S
C612 C611 1.369 . S
C612 C621 1.429 . S
C613 C611 1.419 . S
C613 C614 1.363 . S
C613 H616 0.929 . S
C614 C613 1.363 . S
C614 C620 1.428 . S
H615 C611 0.930 . S
H616 C613 0.929 . S
S617 N618 1.613 . S
S617 N619 1.610 . S
N618 S617 1.613 . S
N618 C621 1.350 . S
N619 S617 1.610 . S
N619 C620 1.351 . S
C620 C614 1.428 . S
C620 N619 1.351 . S
C620 C621 1.434 . S
C621 C612 1.429 . S
C621 N618 1.350 . S
C621 C620 1.434 . S
C622 C623 1.369 . S
C622 C624 1.419 . S
C622 H626 0.930 . S
C623 C622 1.369 . S
C623 C632 1.429 . S
C624 C622 1.419 . S
C624 C625 1.363 . S
C624 H627 0.929 . S
C625 C624 1.363 . S
C625 C631 1.428 . S
H626 C622 0.930 . S
H627 C624 0.929 . S
S628 N629 1.613 . S
S628 N630 1.610 . S
N629 S628 1.613 . S
N629 C632 1.350 . S
N630 S628 1.610 . S
N630 C631 1.351 . S
C631 C625 1.428 . S
C631 N630 1.351 . S
C631 C632 1.434 . S
C632 C623 1.429 . S
C632 N629 1.350 . S
C632 C631 1.434 . S
C633 C634 1.369 . S
C633 C635 1.419 . S
C633 H637 0.930 . S
C634 C633 1.369 . S
C634 C643 1.429 . S
C635 C633 1.419 . S
C635 C636 1.363 . S
C635 H638 0.929 . S
C636 C635 1.363 . S
C636 C642 1.428 . S
H637 C633 0.930 . S
H638 C635 0.929 . S
S639 N640 1.613 . S
S639 N641 1.610 . S
N640 S639 1.613 . S
N640 C643 1.350 . S
N641 S639 1.610 . S
N641 C642 1.351 . S
C642 C636 1.428 . S
C642 N641 1.351 . S
C642 C643 1.434 . S
C643 C634 1.429 . S
C643 N640 1.350 . S
C643 C642 1.434 . S
C644 C645 1.369 . S
C644 C646 1.419 . S
C644 H648 0.930 . S
C645 C644 1.369 . S
C645 C654 1.429 . S
C646 C644 1.419 . S
C646 C647 1.363 . S
C646 H649 0.929 . S
C647 C646 1.363 . S
C647 C653 1.428 . S
H648 C644 0.930 . S
H649 C646 0.929 . S
S650 N651 1.613 . S
S650 N652 1.610 . S
N651 S650 1.613 . S
N651 C654 1.350 . S
N652 S650 1.610 . S
N652 C653 1.351 . S
C653 C647 1.428 . S
C653 N652 1.351 . S
C653 C654 1.434 . S
C654 C645 1.429 . S
C654 N651 1.350 . S
C654 C653 1.434 . S
C655 C656 1.369 . S
C655 C657 1.419 . S
C655 H659 0.930 . S
C656 C655 1.369 . S
C656 C665 1.429 . S
C657 C655 1.419 . S
C657 C658 1.363 . S
C657 H660 0.929 . S
C658 C657 1.363 . S
C658 C664 1.428 . S
H659 C655 0.930 . S
H660 C657 0.929 . S
S661 N662 1.613 1_554 S
S661 N663 1.610 . S
N662 S661 1.613 1_556 S
N662 C665 1.350 . S
N663 S661 1.610 . S
N663 C664 1.351 1_554 S
C664 C658 1.428 . S
C664 N663 1.351 1_556 S
C664 C665 1.434 . S
C665 C656 1.429 . S
C665 N662 1.350 . S
C665 C664 1.434 . S
C666 C667 1.369 . S
C666 C668 1.419 . S
C666 H670 0.930 . S
C667 C666 1.369 . S
C667 C676 1.429 . S
C668 C666 1.419 . S
C668 C669 1.363 . S
C668 H671 0.929 . S
C669 C668 1.363 . S
C669 C675 1.428 . S
H670 C666 0.930 . S
H671 C668 0.929 . S
S672 N673 1.613 . S
S672 N674 1.610 . S
N673 S672 1.613 . S
N673 C676 1.350 . S
N674 S672 1.610 . S
N674 C675 1.351 . S
C675 C669 1.428 . S
C675 N674 1.351 . S
C675 C676 1.434 . S
C676 C667 1.429 . S
C676 N673 1.350 . S
C676 C675 1.434 . S
C677 C678 1.369 . S
C677 C679 1.419 . S
C677 H681 0.930 . S
C678 C677 1.369 . S
C678 C687 1.429 . S
C679 C677 1.419 . S
C679 C680 1.363 . S
C679 H682 0.929 . S
C680 C679 1.363 . S
C680 C686 1.428 . S
H681 C677 0.930 . S
H682 C679 0.929 . S
S683 N684 1.613 . S
S683 N685 1.610 . S
N684 S683 1.613 . S
N684 C687 1.350 . S
N685 S683 1.610 . S
N685 C686 1.351 . S
C686 C680 1.428 . S
C686 N685 1.351 . S
C686 C687 1.434 . S
C687 C678 1.429 . S
C687 N684 1.350 . S
C687 C686 1.434 . S
C688 C689 1.369 . S
C688 C690 1.419 . S
C688 H692 0.930 . S
C689 C688 1.369 . S
C689 C698 1.429 . S
C690 C688 1.419 . S
C690 C691 1.363 . S
C690 H693 0.929 . S
C691 C690 1.363 . S
C691 C697 1.428 . S
H692 C688 0.930 . S
H693 C690 0.929 . S
S694 N695 1.613 . S
S694 N696 1.610 . S
N695 S694 1.613 . S
N695 C698 1.350 . S
N696 S694 1.610 . S
N696 C697 1.351 . S
C697 C691 1.428 . S
C697 N696 1.351 . S
C697 C698 1.434 . S
C698 C689 1.429 . S
C698 N695 1.350 . S
C698 C697 1.434 . S
C699 C700 1.369 . S
C699 C701 1.419 . S
C699 H703 0.930 . S
C700 C699 1.369 . S
C700 C709 1.429 1_556 S
C701 C699 1.419 . S
C701 C702 1.363 . S
C701 H704 0.929 . S
C702 C701 1.363 . S
C702 C708 1.428 1_556 S
H703 C699 0.930 . S
H704 C701 0.929 . S
S705 N706 1.613 . S
S705 N707 1.610 . S
N706 S705 1.613 . S
N706 C709 1.350 . S
N707 S705 1.610 . S
N707 C708 1.351 . S
C708 C702 1.428 1_554 S
C708 N707 1.351 . S
C708 C709 1.434 . S
C709 C700 1.429 1_554 S
C709 N706 1.350 . S
C709 C708 1.434 . S
C710 C711 1.369 . S
C710 C712 1.419 . S
C710 H714 0.930 . S
C711 C710 1.369 . S
C711 C720 1.429 . S
C712 C710 1.419 . S
C712 C713 1.363 . S
C712 H715 0.929 . S
C713 C712 1.363 . S
C713 C719 1.428 . S
H714 C710 0.930 . S
H715 C712 0.929 . S
S716 N717 1.613 . S
S716 N718 1.610 . S
N717 S716 1.613 . S
N717 C720 1.350 . S
N718 S716 1.610 . S
N718 C719 1.351 . S
C719 C713 1.428 . S
C719 N718 1.351 . S
C719 C720 1.434 . S
C720 C711 1.429 . S
C720 N717 1.350 . S
C720 C719 1.434 . S
C721 C722 1.369 . S
C721 C723 1.419 . S
C721 H725 0.930 . S
C722 C721 1.369 . S
C722 C731 1.429 . S
C723 C721 1.419 . S
C723 C724 1.363 . S
C723 H726 0.929 . S
C724 C723 1.363 . S
C724 C730 1.428 . S
H725 C721 0.930 . S
H726 C723 0.929 . S
S727 N728 1.613 . S
S727 N729 1.610 . S
N728 S727 1.613 . S
N728 C731 1.350 . S
N729 S727 1.610 . S
N729 C730 1.351 . S
C730 C724 1.428 . S
C730 N729 1.351 . S
C730 C731 1.434 . S
C731 C722 1.429 . S
C731 N728 1.350 . S
C731 C730 1.434 . S
C732 C733 1.369 . S
C732 C734 1.419 . S
C732 H736 0.930 . S
C733 C732 1.369 . S
C733 C742 1.429 . S
C734 C732 1.419 . S
C734 C735 1.363 . S
C734 H737 0.929 . S
C735 C734 1.363 . S
C735 C741 1.428 . S
H736 C732 0.930 . S
H737 C734 0.929 . S
S738 N739 1.613 . S
S738 N740 1.610 . S
N739 S738 1.613 . S
N739 C742 1.350 1_545 S
N740 S738 1.610 . S
N740 C741 1.351 1_545 S
C741 C735 1.428 . S
C741 N740 1.351 1_565 S
C741 C742 1.434 . S
C742 C733 1.429 . S
C742 N739 1.350 1_565 S
C742 C741 1.434 . S
C743 C744 1.369 . S
C743 C745 1.419 . S
C743 H747 0.930 . S
C744 C743 1.369 . S
C744 C753 1.429 . S
C745 C743 1.419 . S
C745 C746 1.363 . S
C745 H748 0.929 . S
C746 C745 1.363 . S
C746 C752 1.428 . S
H747 C743 0.930 . S
H748 C745 0.929 . S
S749 N750 1.613 . S
S749 N751 1.610 . S
N750 S749 1.613 . S
N750 C753 1.350 . S
N751 S749 1.610 . S
N751 C752 1.351 . S
C752 C746 1.428 . S
C752 N751 1.351 . S
C752 C753 1.434 . S
C753 C744 1.429 . S
C753 N750 1.350 . S
C753 C752 1.434 . S
C754 C755 1.369 . S
C754 C756 1.419 . S
C754 H758 0.930 . S
C755 C754 1.369 . S
C755 C764 1.429 . S
C756 C754 1.419 . S
C756 C757 1.363 . S
C756 H759 0.929 . S
C757 C756 1.363 . S
C757 C763 1.428 . S
H758 C754 0.930 . S
H759 C756 0.929 . S
S760 N761 1.613 . S
S760 N762 1.610 . S
N761 S760 1.613 . S
N761 C764 1.350 . S
N762 S760 1.610 . S
N762 C763 1.351 . S
C763 C757 1.428 . S
C763 N762 1.351 . S
C763 C764 1.434 . S
C764 C755 1.429 . S
C764 N761 1.350 . S
C764 C763 1.434 . S
C765 C766 1.369 . S
C765 C767 1.419 . S
C765 H769 0.930 . S
C766 C765 1.369 . S
C766 C775 1.429 . S
C767 C765 1.419 . S
C767 C768 1.363 . S
C767 H770 0.929 . S
C768 C767 1.363 . S
C768 C774 1.428 . S
H769 C765 0.930 . S
H770 C767 0.929 . S
S771 N772 1.613 . S
S771 N773 1.610 . S
N772 S771 1.613 . S
N772 C775 1.350 . S
N773 S771 1.610 . S
N773 C774 1.351 . S
C774 C768 1.428 . S
C774 N773 1.351 . S
C774 C775 1.434 . S
C775 C766 1.429 . S
C775 N772 1.350 . S
C775 C774 1.434 . S
C776 C777 1.369 . S
C776 C778 1.419 . S
C776 H780 0.930 . S
C777 C776 1.369 . S
C777 C786 1.429 . S
C778 C776 1.419 . S
C778 C779 1.363 . S
C778 H781 0.929 . S
C779 C778 1.363 . S
C779 C785 1.428 . S
H780 C776 0.930 . S
H781 C778 0.929 . S
S782 N783 1.613 . S
S782 N784 1.610 . S
N783 S782 1.613 . S
N783 C786 1.350 . S
N784 S782 1.610 . S
N784 C785 1.351 . S
C785 C779 1.428 . S
C785 N784 1.351 . S
C785 C786 1.434 . S
C786 C777 1.429 . S
C786 N783 1.350 . S
C786 C785 1.434 . S
C787 C788 1.369 . S
C787 C789 1.419 . S
C787 H791 0.930 . S
C788 C787 1.369 . S
C788 C797 1.429 . S
C789 C787 1.419 . S
C789 C790 1.363 . S
C789 H792 0.929 . S
C790 C789 1.363 . S
C790 C796 1.428 . S
H791 C787 0.930 . S
H792 C789 0.929 . S
S793 N794 1.613 . S
S793 N795 1.610 . S
N794 S793 1.613 . S
N794 C797 1.350 . S
N795 S793 1.610 . S
N795 C796 1.351 . S
C796 C790 1.428 . S
C796 N795 1.351 . S
C796 C797 1.434 . S
C797 C788 1.429 . S
C797 N794 1.350 . S
C797 C796 1.434 . S
C798 C799 1.369 . S
C798 C800 1.419 . S
C798 H802 0.930 . S
C799 C798 1.369 . S
C799 C808 1.429 . S
C800 C798 1.419 . S
C800 C801 1.363 . S
C800 H803 0.929 . S
C801 C800 1.363 . S
C801 C807 1.428 . S
H802 C798 0.930 . S
H803 C800 0.929 . S
S804 N805 1.613 . S
S804 N806 1.610 . S
N805 S804 1.613 . S
N805 C808 1.350 . S
N806 S804 1.610 . S
N806 C807 1.351 . S
C807 C801 1.428 . S
C807 N806 1.351 . S
C807 C808 1.434 . S
C808 C799 1.429 . S
C808 N805 1.350 . S
C808 C807 1.434 . S
C809 C810 1.369 . S
C809 C811 1.419 . S
C809 H813 0.930 . S
C810 C809 1.369 . S
C810 C819 1.429 . S
C811 C809 1.419 . S
C811 C812 1.363 . S
C811 H814 0.929 . S
C812 C811 1.363 . S
C812 C818 1.428 . S
H813 C809 0.930 . S
H814 C811 0.929 . S
S815 N816 1.613 . S
S815 N817 1.610 . S
N816 S815 1.613 . S
N816 C819 1.350 . S
N817 S815 1.610 . S
N817 C818 1.351 . S
C818 C812 1.428 . S
C818 N817 1.351 . S
C818 C819 1.434 . S
C819 C810 1.429 . S
C819 N816 1.350 . S
C819 C818 1.434 . S
C820 C821 1.369 . S
C820 C822 1.419 . S
C820 H824 0.930 . S
C821 C820 1.369 . S
C821 C830 1.429 . S
C822 C820 1.419 . S
C822 C823 1.363 . S
C822 H825 0.929 . S
C823 C822 1.363 . S
C823 C829 1.428 . S
H824 C820 0.930 . S
H825 C822 0.929 . S
S826 N827 1.613 . S
S826 N828 1.610 . S
N827 S826 1.613 . S
N827 C830 1.350 . S
N828 S826 1.610 . S
N828 C829 1.351 . S
C829 C823 1.428 . S
C829 N828 1.351 . S
C829 C830 1.434 . S
C830 C821 1.429 . S
C830 N827 1.350 . S
C830 C829 1.434 . S
C831 C832 1.369 . S
C831 C833 1.419 . S
C831 H835 0.930 . S
C832 C831 1.369 . S
C832 C841 1.429 . S
C833 C831 1.419 . S
C833 C834 1.363 . S
C833 H836 0.929 . S
C834 C833 1.363 . S
C834 C840 1.428 . S
H835 C831 0.930 . S
H836 C833 0.929 . S
S837 N838 1.613 . S
S837 N839 1.610 . S
N838 S837 1.613 . S
N838 C841 1.350 . S
N839 S837 1.610 . S
N839 C840 1.351 . S
C840 C834 1.428 . S
C840 N839 1.351 . S
C840 C841 1.434 . S
C841 C832 1.429 . S
C841 N838 1.350 . S
C841 C840 1.434 . S
C842 C843 1.369 . S
C842 C844 1.419 . S
C842 H846 0.930 . S
C843 C842 1.369 . S
C843 C852 1.429 . S
C844 C842 1.419 . S
C844 C845 1.363 . S
C844 H847 0.929 . S
C845 C844 1.363 . S
C845 C851 1.428 . S
H846 C842 0.930 . S
H847 C844 0.929 . S
S848 N849 1.613 . S
S848 N850 1.610 . S
N849 S848 1.613 . S
N849 C852 1.350 . S
N850 S848 1.610 . S
N850 C851 1.351 . S
C851 C845 1.428 . S
C851 N850 1.351 . S
C851 C852 1.434 . S
C852 C843 1.429 . S
C852 N849 1.350 . S
C852 C851 1.434 . S
C853 C854 1.369 . S
C853 C855 1.419 . S
C853 H857 0.930 . S
C854 C853 1.369 . S
C854 C863 1.429 . S
C855 C853 1.419 . S
C855 C856 1.363 . S
C855 H858 0.929 . S
C856 C855 1.363 . S
C856 C862 1.428 . S
H857 C853 0.930 . S
H858 C855 0.929 . S
S859 N860 1.613 . S
S859 N861 1.610 . S
N860 S859 1.613 . S
N860 C863 1.350 . S
N861 S859 1.610 . S
N861 C862 1.351 . S
C862 C856 1.428 . S
C862 N861 1.351 . S
C862 C863 1.434 . S
C863 C854 1.429 . S
C863 N860 1.350 . S
C863 C862 1.434 . S
C864 C865 1.369 . S
C864 C866 1.419 . S
C864 H868 0.930 . S
C865 C864 1.369 . S
C865 C874 1.429 . S
C866 C864 1.419 . S
C866 C867 1.363 . S
C866 H869 0.929 . S
C867 C866 1.363 . S
C867 C873 1.428 . S
H868 C864 0.930 . S
H869 C866 0.929 . S
S870 N871 1.613 . S
S870 N872 1.610 . S
N871 S870 1.613 . S
N871 C874 1.350 . S
N872 S870 1.610 . S
N872 C873 1.351 . S
C873 C867 1.428 . S
C873 N872 1.351 . S
C873 C874 1.434 . S
C874 C865 1.429 . S
C874 N871 1.350 . S
C874 C873 1.434 . S
C875 C876 1.369 . S
C875 C877 1.419 . S
C875 H879 0.930 . S
C876 C875 1.369 . S
C876 C885 1.429 . S
C877 C875 1.419 . S
C877 C878 1.363 . S
C877 H880 0.929 . S
C878 C877 1.363 . S
C878 C884 1.428 . S
H879 C875 0.930 . S
H880 C877 0.929 . S
S881 N882 1.613 . S
S881 N883 1.610 . S
N882 S881 1.613 . S
N882 C885 1.350 . S
N883 S881 1.610 . S
N883 C884 1.351 . S
C884 C878 1.428 . S
C884 N883 1.351 . S
C884 C885 1.434 . S
C885 C876 1.429 . S
C885 N882 1.350 . S
C885 C884 1.434 . S
C886 C887 1.369 . S
C886 C888 1.419 . S
C886 H890 0.930 . S
C887 C886 1.369 . S
C887 C896 1.429 . S
C888 C886 1.419 . S
C888 C889 1.363 . S
C888 H891 0.929 . S
C889 C888 1.363 . S
C889 C895 1.428 . S
H890 C886 0.930 . S
H891 C888 0.929 . S
S892 N893 1.613 . S
S892 N894 1.610 . S
N893 S892 1.613 . S
N893 C896 1.350 . S
N894 S892 1.610 . S
N894 C895 1.351 . S
C895 C889 1.428 . S
C895 N894 1.351 . S
C895 C896 1.434 . S
C896 C887 1.429 . S
C896 N893 1.350 . S
C896 C895 1.434 . S
C897 C898 1.369 . S
C897 C899 1.419 . S
C897 H901 0.930 . S
C898 C897 1.369 . S
C898 C907 1.429 . S
C899 C897 1.419 . S
C899 C900 1.363 . S
C899 H902 0.929 . S
C900 C899 1.363 . S
C900 C906 1.428 . S
H901 C897 0.930 . S
H902 C899 0.929 . S
S903 N904 1.613 . S
S903 N905 1.610 . S
N904 S903 1.613 . S
N904 C907 1.350 . S
N905 S903 1.610 . S
N905 C906 1.351 . S
C906 C900 1.428 . S
C906 N905 1.351 . S
C906 C907 1.434 . S
C907 C898 1.429 . S
C907 N904 1.350 . S
C907 C906 1.434 . S
C908 C909 1.369 . S
C908 C910 1.419 . S
C908 H912 0.930 . S
C909 C908 1.369 . S
C909 C918 1.429 . S
C910 C908 1.419 . S
C910 C911 1.363 . S
C910 H913 0.929 . S
C911 C910 1.363 . S
C911 C917 1.428 . S
H912 C908 0.930 . S
H913 C910 0.929 . S
S914 N915 1.613 . S
S914 N916 1.610 . S
N915 S914 1.613 . S
N915 C918 1.350 . S
N916 S914 1.610 . S
N916 C917 1.351 . S
C917 C911 1.428 . S
C917 N916 1.351 . S
C917 C918 1.434 . S
C918 C909 1.429 . S
C918 N915 1.350 . S
C918 C917 1.434 . S
C919 C920 1.369 . S
C919 C921 1.419 . S
C919 H923 0.930 . S
C920 C919 1.369 . S
C920 C929 1.429 . S
C921 C919 1.419 . S
C921 C922 1.363 . S
C921 H924 0.929 . S
C922 C921 1.363 . S
C922 C928 1.428 . S
H923 C919 0.930 . S
H924 C921 0.929 . S
S925 N926 1.613 . S
S925 N927 1.610 . S
N926 S925 1.613 . S
N926 C929 1.350 . S
N927 S925 1.610 . S
N927 C928 1.351 . S
C928 C922 1.428 . S
C928 N927 1.351 . S
C928 C929 1.434 . S
C929 C920 1.429 . S
C929 N926 1.350 . S
C929 C928 1.434 . S
C930 C931 1.369 . S
C930 C932 1.419 . S
C930 H934 0.930 . S
C931 C930 1.369 . S
C931 C940 1.429 . S
C932 C930 1.419 . S
C932 C933 1.363 . S
C932 H935 0.929 . S
C933 C932 1.363 . S
C933 C939 1.428 . S
H934 C930 0.930 . S
H935 C932 0.929 . S
S936 N937 1.613 . S
S936 N938 1.610 . S
N937 S936 1.613 . S
N937 C940 1.350 . S
N938 S936 1.610 . S
N938 C939 1.351 . S
C939 C933 1.428 . S
C939 N938 1.351 . S
C939 C940 1.434 . S
C940 C931 1.429 . S
C940 N937 1.350 . S
C940 C939 1.434 . S
C941 C942 1.369 . S
C941 C943 1.419 . S
C941 H945 0.930 . S
C942 C941 1.369 . S
C942 C951 1.429 . S
C943 C941 1.419 . S
C943 C944 1.363 . S
C943 H946 0.929 . S
C944 C943 1.363 . S
C944 C950 1.428 . S
H945 C941 0.930 . S
H946 C943 0.929 . S
S947 N948 1.613 . S
S947 N949 1.610 . S
N948 S947 1.613 . S
N948 C951 1.350 . S
N949 S947 1.610 . S
N949 C950 1.351 . S
C950 C944 1.428 . S
C950 N949 1.351 . S
C950 C951 1.434 . S
C951 C942 1.429 . S
C951 N948 1.350 . S
C951 C950 1.434 . S
C952 C953 1.369 . S
C952 C954 1.419 . S
C952 H956 0.930 . S
C953 C952 1.369 . S
C953 C962 1.429 . S
C954 C952 1.419 . S
C954 C955 1.363 . S
C954 H957 0.929 . S
C955 C954 1.363 . S
C955 C961 1.428 . S
H956 C952 0.930 . S
H957 C954 0.929 . S
S958 N959 1.613 . S
S958 N960 1.610 . S
N959 S958 1.613 . S
N959 C962 1.350 . S
N960 S958 1.610 . S
N960 C961 1.351 . S
C961 C955 1.428 . S
C961 N960 1.351 . S
C961 C962 1.434 . S
C962 C953 1.429 . S
C962 N959 1.350 . S
C962 C961 1.434 . S
C963 C964 1.369 . S
C963 C965 1.419 . S
C963 H967 0.930 . S
C964 C963 1.369 . S
C964 C973 1.429 . S
C965 C963 1.419 . S
C965 C966 1.363 . S
C965 H968 0.929 . S
C966 C965 1.363 . S
C966 C972 1.428 . S
H967 C963 0.930 . S
H968 C965 0.929 . S
S969 N970 1.613 . S
S969 N971 1.610 . S
N970 S969 1.613 . S
N970 C973 1.350 . S
N971 S969 1.610 . S
N971 C972 1.351 . S
C972 C966 1.428 . S
C972 N971 1.351 . S
C972 C973 1.434 . S
C973 C964 1.429 . S
C973 N970 1.350 . S
C973 C972 1.434 . S
C974 C975 1.369 . S
C974 C976 1.419 . S
C974 H978 0.930 . S
C975 C974 1.369 . S
C975 C984 1.429 . S
C976 C974 1.419 . S
C976 C977 1.363 . S
C976 H979 0.929 . S
C977 C976 1.363 . S
C977 C983 1.428 . S
H978 C974 0.930 . S
H979 C976 0.929 . S
S980 N981 1.613 . S
S980 N982 1.610 . S
N981 S980 1.613 . S
N981 C984 1.350 . S
N982 S980 1.610 . S
N982 C983 1.351 . S
C983 C977 1.428 . S
C983 N982 1.351 . S
C983 C984 1.434 . S
C984 C975 1.429 . S
C984 N981 1.350 . S
C984 C983 1.434 . S
C985 C986 1.369 . S
C985 C987 1.419 . S
C985 H989 0.930 . S
C986 C985 1.369 . S
C986 C995 1.429 . S
C987 C985 1.419 . S
C987 C988 1.363 . S
C987 H990 0.929 . S
C988 C987 1.363 . S
C988 C994 1.428 . S
H989 C985 0.930 . S
H990 C987 0.929 . S
S991 N992 1.613 . S
S991 N993 1.610 . S
N992 S991 1.613 . S
N992 C995 1.350 . S
N993 S991 1.610 . S
N993 C994 1.351 . S
C994 C988 1.428 . S
C994 N993 1.351 . S
C994 C995 1.434 . S
C995 C986 1.429 . S
C995 N992 1.350 . S
C995 C994 1.434 . S
C996 C997 1.369 . S
C996 C998 1.419 . S
C996 H1000 0.930 . S
C997 C996 1.369 . S
C997 C1006 1.429 . S
C998 C996 1.419 . S
C998 C999 1.363 . S
C998 H1001 0.929 . S
C999 C998 1.363 . S
C999 C1005 1.428 . S
H1000 C996 0.930 . S
H1001 C998 0.929 . S
S1002 N1003 1.613 . S
S1002 N1004 1.610 . S
N1003 S1002 1.613 . S
N1003 C1006 1.350 . S
N1004 S1002 1.610 . S
N1004 C1005 1.351 . S
C1005 C999 1.428 . S
C1005 N1004 1.351 . S
C1005 C1006 1.434 . S
C1006 C997 1.429 . S
C1006 N1003 1.350 . S
C1006 C1005 1.434 . S
C1007 C1008 1.369 . S
C1007 C1009 1.419 . S
C1007 H1011 0.930 . S
C1008 C1007 1.369 . S
C1008 C1017 1.429 . S
C1009 C1007 1.419 . S
C1009 C1010 1.363 . S
C1009 H1012 0.929 . S
C1010 C1009 1.363 . S
C1010 C1016 1.428 . S
H1011 C1007 0.930 . S
H1012 C1009 0.929 . S
S1013 N1014 1.613 . S
S1013 N1015 1.610 . S
N1014 S1013 1.613 . S
N1014 C1017 1.350 . S
N1015 S1013 1.610 . S
N1015 C1016 1.351 . S
C1016 C1010 1.428 . S
C1016 N1015 1.351 . S
C1016 C1017 1.434 . S
C1017 C1008 1.429 . S
C1017 N1014 1.350 . S
C1017 C1016 1.434 . S
C1018 C1019 1.369 . S
C1018 C1020 1.419 . S
C1018 H1022 0.930 . S
C1019 C1018 1.369 . S
C1019 C1028 1.429 . S
C1020 C1018 1.419 . S
C1020 C1021 1.363 . S
C1020 H1023 0.929 . S
C1021 C1020 1.363 . S
C1021 C1027 1.428 . S
H1022 C1018 0.930 . S
H1023 C1020 0.929 . S
S1024 N1025 1.613 . S
S1024 N1026 1.610 . S
N1025 S1024 1.613 . S
N1025 C1028 1.350 . S
N1026 S1024 1.610 . S
N1026 C1027 1.351 . S
C1027 C1021 1.428 . S
C1027 N1026 1.351 . S
C1027 C1028 1.434 . S
C1028 C1019 1.429 . S
C1028 N1025 1.350 . S
C1028 C1027 1.434 . S
C1029 C1030 1.369 . S
C1029 C1031 1.419 . S
C1029 H1033 0.930 . S
C1030 C1029 1.369 . S
C1030 C1039 1.429 . S
C1031 C1029 1.419 . S
C1031 C1032 1.363 . S
C1031 H1034 0.929 . S
C1032 C1031 1.363 . S
C1032 C1038 1.428 . S
H1033 C1029 0.930 . S
H1034 C1031 0.929 . S
S1035 N1036 1.613 . S
S1035 N1037 1.610 . S
N1036 S1035 1.613 . S
N1036 C1039 1.350 . S
N1037 S1035 1.610 . S
N1037 C1038 1.351 . S
C1038 C1032 1.428 . S
C1038 N1037 1.351 . S
C1038 C1039 1.434 . S
C1039 C1030 1.429 . S
C1039 N1036 1.350 . S
C1039 C1038 1.434 . S
C515 C337 2.687 . S
C513 C18 2.703 . S
C526 C342 2.212 . S
C524 C59 2.274 . S
C537 C343 1.475 . S
C535 C98 1.487 . S
C546 C125 0.832 . S
C548 C347 0.836 . S
C557 C169 2.263 . S
C559 C350 2.172 . S
C570 C351 1.480 . S
C568 C218 1.512 . S
C579 C255 1.041 . S
C581 C328 1.091 . S
C590 C288 2.707 . S
C592 C344 2.692 . S
C603 C382 1.040 . S
C601 C15 1.000 . S
C612 C45 1.124 . S
C614 C408 1.219 . S
C625 C360 0.398 . S
C623 C95 0.226 . S
C636 C415 1.131 . S
C634 C128 1.177 . S
C645 C178 1.232 . S
C647 C369 1.176 . S
C658 C411 1.457 1_556 S
C656 C215 1.463 . S
C667 C249 2.338 . S
C669 C375 2.308 . S
C678 C299 2.008 . S
C680 C406 2.043 . S
C689 C9 2.534 . S
C691 C414 2.443 . S
C700 C175 0.710 . S
C702 C401 0.685 1_556 S
C713 C379 1.428 . S
C711 C209 1.512 . S
C724 C407 1.823 . S
C722 C258 1.919 . S
C733 C285 1.272 . S
C735 C374 1.211 . S
C744 C89 3.028 . S
C746 C392 3.020 . S
C757 C383 2.765 . S
C755 C139 2.756 . S
C766 C48 1.804 . S
C768 C376 1.810 . S
C777 C298 2.676 . S
C779 C438 2.567 . S
C788 C179 2.248 . S
C790 C433 2.266 . S
C801 C447 1.467 . S
C799 C208 1.487 . S
C812 C424 1.054 . S
C810 C245 1.031 . S
C821 C49 2.254 . S
C823 C440 2.273 . S
C834 C439 1.467 . S
C832 C88 1.458 . S
C843 C135 0.831 . S
C845 C443 0.833 . S
C854 C8 2.676 . S
C856 C446 2.566 . S
C865 C295 1.281 . S
C867 C472 1.341 1_655 S
C878 C488 0.566 . S
C876 C165 0.692 . S
C887 C219 1.527 . S
C889 C470 1.501 . S
C898 C248 1.925 . S
C900 C503 1.749 . S
C911 C479 1.810 . S
C909 C58 1.818 . S
C920 C99 3.065 . S
C922 C497 3.060 . S
C933 C475 2.698 . S
C931 C129 2.751 . S
C944 C510 2.548 . S
C942 C19 2.573 . S
C955 C502 2.022 . S
C953 C289 2.044 . S
C964 C55 1.078 . S
C966 C507 0.720 . S
C975 C85 0.250 . S
C977 C478 0.277 . S
C988 C511 1.178 . S
C986 C138 1.199 . S
C997 C5 1.027 . S
C999 C465 1.079 . S
C1008 C205 1.478 . S
C1010 C504 1.398 . S
C1021 C456 2.395 . S
C1019 C259 2.340 . S
C1032 C471 1.178 . S
C1030 C168 1.237 . S
