# Generated by pormake.
# Topology gar, (4,6)-cn, num edge types: 1
# Building blocks:
#     Node 0, Type 0, BuildingBlock: QUQFOY_clean_sbu_1, # of connection points: 4
#     Node 1, Type 0, BuildingBlock: QUQFOY_clean_sbu_1, # of connection points: 4
#     Node 2, Type 0, BuildingBlock: QUQFOY_clean_sbu_1, # of connection points: 4
#     Node 3, Type 0, BuildingBlock: QUQFOY_clean_sbu_1, # of connection points: 4
#     Node 4, Type 0, BuildingBlock: QUQFOY_clean_sbu_1, # of connection points: 4
#     Node 5, Type 0, BuildingBlock: QUQFOY_clean_sbu_1, # of connection points: 4
#     Node 6, Type 0, BuildingBlock: QUQFOY_clean_sbu_1, # of connection points: 4
#     Node 7, Type 0, BuildingBlock: QUQFOY_clean_sbu_1, # of connection points: 4
#     Node 8, Type 0, BuildingBlock: QUQFOY_clean_sbu_1, # of connection points: 4
#     Node 9, Type 0, BuildingBlock: QUQFOY_clean_sbu_1, # of connection points: 4
#     Node 10, Type 0, BuildingBlock: QUQFOY_clean_sbu_1, # of connection points: 4
#     Node 11, Type 0, BuildingBlock: QUQFOY_clean_sbu_1, # of connection points: 4
#     Node 12, Type 0, BuildingBlock: QUQFOY_clean_sbu_1, # of connection points: 4
#     Node 13, Type 0, BuildingBlock: QUQFOY_clean_sbu_1, # of connection points: 4
#     Node 14, Type 0, BuildingBlock: QUQFOY_clean_sbu_1, # of connection points: 4
#     Node 15, Type 0, BuildingBlock: QUQFOY_clean_sbu_1, # of connection points: 4
#     Node 16, Type 0, BuildingBlock: QUQFOY_clean_sbu_1, # of connection points: 4
#     Node 17, Type 0, BuildingBlock: QUQFOY_clean_sbu_1, # of connection points: 4
#     Node 18, Type 0, BuildingBlock: QUQFOY_clean_sbu_1, # of connection points: 4
#     Node 19, Type 0, BuildingBlock: QUQFOY_clean_sbu_1, # of connection points: 4
#     Node 20, Type 0, BuildingBlock: QUQFOY_clean_sbu_1, # of connection points: 4
#     Node 21, Type 0, BuildingBlock: QUQFOY_clean_sbu_1, # of connection points: 4
#     Node 22, Type 0, BuildingBlock: QUQFOY_clean_sbu_1, # of connection points: 4
#     Node 23, Type 0, BuildingBlock: QUQFOY_clean_sbu_1, # of connection points: 4
#     Node 24, Type 1, BuildingBlock: GEDQOX_clean_sbu_0, # of connection points: 6
#     Node 25, Type 1, BuildingBlock: GEDQOX_clean_sbu_0, # of connection points: 6
#     Node 26, Type 1, BuildingBlock: GEDQOX_clean_sbu_0, # of connection points: 6
#     Node 27, Type 1, BuildingBlock: GEDQOX_clean_sbu_0, # of connection points: 6
#     Node 28, Type 1, BuildingBlock: GEDQOX_clean_sbu_0, # of connection points: 6
#     Node 29, Type 1, BuildingBlock: GEDQOX_clean_sbu_0, # of connection points: 6
#     Node 30, Type 1, BuildingBlock: GEDQOX_clean_sbu_0, # of connection points: 6
#     Node 31, Type 1, BuildingBlock: GEDQOX_clean_sbu_0, # of connection points: 6
#     Node 32, Type 1, BuildingBlock: GEDQOX_clean_sbu_0, # of connection points: 6
#     Node 33, Type 1, BuildingBlock: GEDQOX_clean_sbu_0, # of connection points: 6
#     Node 34, Type 1, BuildingBlock: GEDQOX_clean_sbu_0, # of connection points: 6
#     Node 35, Type 1, BuildingBlock: GEDQOX_clean_sbu_0, # of connection points: 6
#     Node 36, Type 1, BuildingBlock: GEDQOX_clean_sbu_0, # of connection points: 6
#     Node 37, Type 1, BuildingBlock: GEDQOX_clean_sbu_0, # of connection points: 6
#     Node 38, Type 1, BuildingBlock: GEDQOX_clean_sbu_0, # of connection points: 6
#     Node 39, Type 1, BuildingBlock: GEDQOX_clean_sbu_0, # of connection points: 6
#     Edge 40, Type (0, 1), BuildingBlock: TEMPAE_clean_linker_10, # of connection points: 2
#     Edge 41, Type (0, 1), BuildingBlock: TEMPAE_clean_linker_10, # of connection points: 2
#     Edge 42, Type (0, 1), BuildingBlock: TEMPAE_clean_linker_10, # of connection points: 2
#     Edge 43, Type (0, 1), BuildingBlock: TEMPAE_clean_linker_10, # of connection points: 2
#     Edge 44, Type (0, 1), BuildingBlock: TEMPAE_clean_linker_10, # of connection points: 2
#     Edge 45, Type (0, 1), BuildingBlock: TEMPAE_clean_linker_10, # of connection points: 2
#     Edge 46, Type (0, 1), BuildingBlock: TEMPAE_clean_linker_10, # of connection points: 2
#     Edge 47, Type (0, 1), BuildingBlock: TEMPAE_clean_linker_10, # of connection points: 2
#     Edge 48, Type (0, 1), BuildingBlock: TEMPAE_clean_linker_10, # of connection points: 2
#     Edge 49, Type (0, 1), BuildingBlock: TEMPAE_clean_linker_10, # of connection points: 2
#     Edge 50, Type (0, 1), BuildingBlock: TEMPAE_clean_linker_10, # of connection points: 2
#     Edge 51, Type (0, 1), BuildingBlock: TEMPAE_clean_linker_10, # of connection points: 2
#     Edge 52, Type (0, 1), BuildingBlock: TEMPAE_clean_linker_10, # of connection points: 2
#     Edge 53, Type (0, 1), BuildingBlock: TEMPAE_clean_linker_10, # of connection points: 2
#     Edge 54, Type (0, 1), BuildingBlock: TEMPAE_clean_linker_10, # of connection points: 2
#     Edge 55, Type (0, 1), BuildingBlock: TEMPAE_clean_linker_10, # of connection points: 2
#     Edge 56, Type (0, 1), BuildingBlock: TEMPAE_clean_linker_10, # of connection points: 2
#     Edge 57, Type (0, 1), BuildingBlock: TEMPAE_clean_linker_10, # of connection points: 2
#     Edge 58, Type (0, 1), BuildingBlock: TEMPAE_clean_linker_10, # of connection points: 2
#     Edge 59, Type (0, 1), BuildingBlock: TEMPAE_clean_linker_10, # of connection points: 2
#     Edge 60, Type (0, 1), BuildingBlock: TEMPAE_clean_linker_10, # of connection points: 2
#     Edge 61, Type (0, 1), BuildingBlock: TEMPAE_clean_linker_10, # of connection points: 2
#     Edge 62, Type (0, 1), BuildingBlock: TEMPAE_clean_linker_10, # of connection points: 2
#     Edge 63, Type (0, 1), BuildingBlock: TEMPAE_clean_linker_10, # of connection points: 2
#     Edge 64, Type (0, 1), BuildingBlock: TEMPAE_clean_linker_10, # of connection points: 2
#     Edge 65, Type (0, 1), BuildingBlock: TEMPAE_clean_linker_10, # of connection points: 2
#     Edge 66, Type (0, 1), BuildingBlock: TEMPAE_clean_linker_10, # of connection points: 2
#     Edge 67, Type (0, 1), BuildingBlock: TEMPAE_clean_linker_10, # of connection points: 2
#     Edge 68, Type (0, 1), BuildingBlock: TEMPAE_clean_linker_10, # of connection points: 2
#     Edge 69, Type (0, 1), BuildingBlock: TEMPAE_clean_linker_10, # of connection points: 2
#     Edge 70, Type (0, 1), BuildingBlock: TEMPAE_clean_linker_10, # of connection points: 2
#     Edge 71, Type (0, 1), BuildingBlock: TEMPAE_clean_linker_10, # of connection points: 2
#     Edge 72, Type (0, 1), BuildingBlock: TEMPAE_clean_linker_10, # of connection points: 2
#     Edge 73, Type (0, 1), BuildingBlock: TEMPAE_clean_linker_10, # of connection points: 2
#     Edge 74, Type (0, 1), BuildingBlock: TEMPAE_clean_linker_10, # of connection points: 2
#     Edge 75, Type (0, 1), BuildingBlock: TEMPAE_clean_linker_10, # of connection points: 2
#     Edge 76, Type (0, 1), BuildingBlock: TEMPAE_clean_linker_10, # of connection points: 2
#     Edge 77, Type (0, 1), BuildingBlock: TEMPAE_clean_linker_10, # of connection points: 2
#     Edge 78, Type (0, 1), BuildingBlock: TEMPAE_clean_linker_10, # of connection points: 2
#     Edge 79, Type (0, 1), BuildingBlock: TEMPAE_clean_linker_10, # of connection points: 2
#     Edge 80, Type (0, 1), BuildingBlock: TEMPAE_clean_linker_10, # of connection points: 2
#     Edge 81, Type (0, 1), BuildingBlock: TEMPAE_clean_linker_10, # of connection points: 2
#     Edge 82, Type (0, 1), BuildingBlock: TEMPAE_clean_linker_10, # of connection points: 2
#     Edge 83, Type (0, 1), BuildingBlock: TEMPAE_clean_linker_10, # of connection points: 2
#     Edge 84, Type (0, 1), BuildingBlock: TEMPAE_clean_linker_10, # of connection points: 2
#     Edge 85, Type (0, 1), BuildingBlock: TEMPAE_clean_linker_10, # of connection points: 2
#     Edge 86, Type (0, 1), BuildingBlock: TEMPAE_clean_linker_10, # of connection points: 2
#     Edge 87, Type (0, 1), BuildingBlock: TEMPAE_clean_linker_10, # of connection points: 2
#     Edge 88, Type (0, 1), BuildingBlock: TEMPAE_clean_linker_10, # of connection points: 2
#     Edge 89, Type (0, 1), BuildingBlock: TEMPAE_clean_linker_10, # of connection points: 2
#     Edge 90, Type (0, 1), BuildingBlock: TEMPAE_clean_linker_10, # of connection points: 2
#     Edge 91, Type (0, 1), BuildingBlock: TEMPAE_clean_linker_10, # of connection points: 2
#     Edge 92, Type (0, 1), BuildingBlock: TEMPAE_clean_linker_10, # of connection points: 2
#     Edge 93, Type (0, 1), BuildingBlock: TEMPAE_clean_linker_10, # of connection points: 2
#     Edge 94, Type (0, 1), BuildingBlock: TEMPAE_clean_linker_10, # of connection points: 2
#     Edge 95, Type (0, 1), BuildingBlock: TEMPAE_clean_linker_10, # of connection points: 2
#     Edge 96, Type (0, 1), BuildingBlock: TEMPAE_clean_linker_10, # of connection points: 2
#     Edge 97, Type (0, 1), BuildingBlock: TEMPAE_clean_linker_10, # of connection points: 2
#     Edge 98, Type (0, 1), BuildingBlock: TEMPAE_clean_linker_10, # of connection points: 2
#     Edge 99, Type (0, 1), BuildingBlock: TEMPAE_clean_linker_10, # of connection points: 2
#     Edge 100, Type (0, 1), BuildingBlock: TEMPAE_clean_linker_10, # of connection points: 2
#     Edge 101, Type (0, 1), BuildingBlock: TEMPAE_clean_linker_10, # of connection points: 2
#     Edge 102, Type (0, 1), BuildingBlock: TEMPAE_clean_linker_10, # of connection points: 2
#     Edge 103, Type (0, 1), BuildingBlock: TEMPAE_clean_linker_10, # of connection points: 2
#     Edge 104, Type (0, 1), BuildingBlock: TEMPAE_clean_linker_10, # of connection points: 2
#     Edge 105, Type (0, 1), BuildingBlock: TEMPAE_clean_linker_10, # of connection points: 2
#     Edge 106, Type (0, 1), BuildingBlock: TEMPAE_clean_linker_10, # of connection points: 2
#     Edge 107, Type (0, 1), BuildingBlock: TEMPAE_clean_linker_10, # of connection points: 2
#     Edge 108, Type (0, 1), BuildingBlock: TEMPAE_clean_linker_10, # of connection points: 2
#     Edge 109, Type (0, 1), BuildingBlock: TEMPAE_clean_linker_10, # of connection points: 2
#     Edge 110, Type (0, 1), BuildingBlock: TEMPAE_clean_linker_10, # of connection points: 2
#     Edge 111, Type (0, 1), BuildingBlock: TEMPAE_clean_linker_10, # of connection points: 2
#     Edge 112, Type (0, 1), BuildingBlock: TEMPAE_clean_linker_10, # of connection points: 2
#     Edge 113, Type (0, 1), BuildingBlock: TEMPAE_clean_linker_10, # of connection points: 2
#     Edge 114, Type (0, 1), BuildingBlock: TEMPAE_clean_linker_10, # of connection points: 2
#     Edge 115, Type (0, 1), BuildingBlock: TEMPAE_clean_linker_10, # of connection points: 2
#     Edge 116, Type (0, 1), BuildingBlock: TEMPAE_clean_linker_10, # of connection points: 2
#     Edge 117, Type (0, 1), BuildingBlock: TEMPAE_clean_linker_10, # of connection points: 2
#     Edge 118, Type (0, 1), BuildingBlock: TEMPAE_clean_linker_10, # of connection points: 2
#     Edge 119, Type (0, 1), BuildingBlock: TEMPAE_clean_linker_10, # of connection points: 2
#     Edge 120, Type (0, 1), BuildingBlock: TEMPAE_clean_linker_10, # of connection points: 2
#     Edge 121, Type (0, 1), BuildingBlock: TEMPAE_clean_linker_10, # of connection points: 2
#     Edge 122, Type (0, 1), BuildingBlock: TEMPAE_clean_linker_10, # of connection points: 2
#     Edge 123, Type (0, 1), BuildingBlock: TEMPAE_clean_linker_10, # of connection points: 2
#     Edge 124, Type (0, 1), BuildingBlock: TEMPAE_clean_linker_10, # of connection points: 2
#     Edge 125, Type (0, 1), BuildingBlock: TEMPAE_clean_linker_10, # of connection points: 2
#     Edge 126, Type (0, 1), BuildingBlock: TEMPAE_clean_linker_10, # of connection points: 2
#     Edge 127, Type (0, 1), BuildingBlock: TEMPAE_clean_linker_10, # of connection points: 2
#     Edge 128, Type (0, 1), BuildingBlock: TEMPAE_clean_linker_10, # of connection points: 2
#     Edge 129, Type (0, 1), BuildingBlock: TEMPAE_clean_linker_10, # of connection points: 2
#     Edge 130, Type (0, 1), BuildingBlock: TEMPAE_clean_linker_10, # of connection points: 2
#     Edge 131, Type (0, 1), BuildingBlock: TEMPAE_clean_linker_10, # of connection points: 2
#     Edge 132, Type (0, 1), BuildingBlock: TEMPAE_clean_linker_10, # of connection points: 2
#     Edge 133, Type (0, 1), BuildingBlock: TEMPAE_clean_linker_10, # of connection points: 2
#     Edge 134, Type (0, 1), BuildingBlock: TEMPAE_clean_linker_10, # of connection points: 2
#     Edge 135, Type (0, 1), BuildingBlock: TEMPAE_clean_linker_10, # of connection points: 2
# Relax obj value: 0.271
# Max RMSD: 0.450
# Mean RMSD: 0.201
data_MOF--net-gar--node1-QUQFOY_clean_sbu_1--node2-GEDQOX_clean_sbu_0--edge1-TEMPAE_clean_linker_10
_symmetry_space_group_name_H-M    P1
_symmetry_Int_Tables_number       1
_symmetry_cell_setting            triclinic
loop_
_symmetry_equiv_pos_as_xyz
'x, y, z'
_cell_length_a     62.297722
_cell_length_b     60.531367
_cell_length_c     55.008231
_cell_angle_alpha  98.51298
_cell_angle_beta   98.064273
_cell_angle_gamma 102.43109
loop_
_atom_site_label
_atom_site_type_symbol
_atom_site_fract_x
_atom_site_fract_y
_atom_site_fract_z
_atom_type_partial_charge
O0 O 0.11259 0.34899 0.50113 0.0
Cd1 Cd 0.12123 0.3806 0.49062 0.0
Cd2 Cd 0.12105 0.38636 0.53604 0.0
O3 O 0.13201 0.35792 0.53909 0.0
O4 O 0.11532 0.37054 0.45435 0.0
O5 O 0.14895 0.38847 0.47565 0.0
C6 C 0.13618 0.37856 0.45458 0.0
C7 C 0.13881 0.42293 0.55191 0.0
C8 C 0.12009 0.34288 0.5211 0.0
C9 C 0.08249 0.39001 0.50216 0.0
O10 O 0.08755 0.38009 0.52016 0.0
O11 O 0.09818 0.40003 0.49241 0.0
O12 O 0.12938 0.40981 0.56592 0.0
O13 O 0.14015 0.41425 0.52937 0.0
O14 O 0.99155 0.73686 0.61856 0.0
Cd15 Cd 1.00141 0.77032 0.63657 0.0
Cd16 Cd 1.01431 0.76988 0.5922 0.0
O17 O 0.98692 0.74357 0.58068 0.0
O18 O 0.97935 0.78527 0.65046 0.0
O19 O 0.99924 0.76524 0.67076 0.0
C20 C 0.98461 0.77728 0.67039 0.0
C21 C 1.0176 0.80581 0.58607 0.0
C22 C 0.98654 0.72929 0.59522 0.0
C23 C 0.04935 0.78009 0.63401 0.0
O24 O 0.04383 0.76718 0.61263 0.0
O25 O 0.03454 0.78733 0.6442 0.0
O26 O 1.02185 0.79077 0.56927 0.0
O27 O 1.00841 0.79934 0.60431 0.0
O28 O 0.65239 0.87529 0.9836 0.0
Cd29 Cd 0.63915 0.87404 0.01579 0.0
Cd30 Cd 0.6081 0.8924 0.99183 0.0
O31 O 0.62187 0.88132 0.96291 0.0
O32 O 0.63936 0.84481 0.02847 0.0
O33 O 0.60899 0.8536 0.01023 0.0
C34 C 0.61803 0.83938 0.02057 0.0
C35 C 0.56986 0.88434 0.98102 0.0
C36 C 0.64065 0.87653 0.96321 0.0
C37 C 0.637 0.9205 0.03789 0.0
O38 O 0.6255 0.92044 0.017 0.0
O39 O 0.6429 0.90257 0.04266 0.0
O40 O 0.58225 0.90168 0.97463 0.0
O41 O 0.57899 0.8729 0.99558 0.0
O42 O 0.49257 0.22318 0.10975 0.0
Cd43 Cd 0.50656 0.25234 0.13572 0.0
Cd44 Cd 0.52738 0.26052 0.09868 0.0
O45 O 0.49741 0.24115 0.07899 0.0
O46 O 0.49234 0.24506 0.16394 0.0
O47 O 0.49149 0.27651 0.14763 0.0
C48 C 0.48685 0.26438 0.16448 0.0
C49 C 0.53892 0.29798 0.09822 0.0
C50 C 0.4909 0.22249 0.08644 0.0
C51 C 0.55487 0.25306 0.14103 0.0
O52 O 0.55216 0.2484 0.11738 0.0
O53 O 0.53917 0.25777 0.1515 0.0
O54 O 0.54226 0.283 0.08074 0.0
O55 O 0.52753 0.29147 0.1149 0.0
O56 O 0.0526 0.77221 0.24408 0.0
Cd57 Cd 0.05588 0.80328 0.26764 0.0
Cd58 Cd 0.06894 0.81915 0.22533 0.0
O59 O 0.05357 0.78586 0.209 0.0
O60 O 0.03289 0.79942 0.29166 0.0
O61 O 0.02842 0.81709 0.25993 0.0
C62 C 1.02023 0.80903 0.27811 0.0
C63 C 0.0673 0.84676 0.19972 0.0
C64 C 0.05108 0.76898 0.22042 0.0
C65 C 0.10643 0.82173 0.26897 0.0
O66 O 0.09998 0.82298 0.24638 0.0
O67 O 0.09162 0.81697 0.28287 0.0
O68 O 0.07907 0.83196 0.19625 0.0
O69 O 0.05598 0.84583 0.21762 0.0
O70 O 0.6241 0.8442 0.40913 0.0
Cd71 Cd 0.60048 0.84531 0.43189 0.0
Cd72 Cd 0.574 0.85741 0.38657 0.0
O73 O 0.60518 0.85037 0.3743 0.0
O74 O 0.61108 0.83392 0.46263 0.0
O75 O 0.58002 0.81585 0.43606 0.0
C76 C 0.59353 0.81714 0.45658 0.0
C77 C 0.53399 0.84626 0.36751 0.0
C78 C 0.62306 0.84645 0.38639 0.0
C79 C 0.58703 0.89085 0.43742 0.0
O80 O 0.57834 0.88659 0.4143 0.0
O81 O 0.59624 0.87674 0.44719 0.0
O82 O 0.54859 0.86022 0.3589 0.0
O83 O 0.54215 0.83661 0.38493 0.0
O84 O 0.55486 0.26371 0.73435 0.0
Cd85 Cd 0.55906 0.2929 0.76205 0.0
Cd86 Cd 0.57599 0.31395 0.72437 0.0
O87 O 0.56281 0.28192 0.70364 0.0
O88 O 0.53359 0.28519 0.78252 0.0
O89 O 0.53425 0.31122 0.75876 0.0
C90 C 0.52349 0.2993 0.77291 0.0
C91 C 0.57521 0.344 0.70206 0.0
C92 C 0.55697 0.2633 0.71158 0.0
C93 C 0.6107 0.31207 0.76845 0.0
O94 O 0.60583 0.31664 0.74687 0.0
O95 O 0.59471 0.30463 0.78007 0.0
O96 O 0.58762 0.32996 0.698 0.0
O97 O 0.56299 0.34109 0.71896 0.0
O98 O 0.08374 0.30689 0.91454 0.0
Cd99 Cd 0.08532 0.32723 0.8866 0.0
Cd100 Cd 0.0711 0.3579 0.92733 0.0
O101 O 0.07904 0.33245 0.94531 0.0
O102 O 0.10562 0.31574 0.86267 0.0
O103 O 0.11763 0.34794 0.88965 0.0
C104 C 0.1222 0.33293 0.87309 0.0
C105 C 0.07721 0.39331 0.95479 0.0
C106 C 0.08224 0.31283 0.9374 0.0
C107 C 0.03691 0.33839 0.87891 0.0
O108 O 0.04184 0.34953 0.90123 0.0
O109 O 0.05169 0.32972 0.86903 0.0
O110 O 0.0618 0.37574 0.95577 0.0
O111 O 0.08931 0.39113 0.93779 0.0
O112 O 0.49194 0.15872 0.28843 0.0
Cd113 Cd 0.46373 0.1564 0.30473 0.0
Cd114 Cd 0.49442 0.13802 0.3438 0.0
O115 O 0.50939 0.13909 0.31247 0.0
O116 O 0.4424 0.16872 0.28228 0.0
O117 O 0.45126 0.18104 0.32305 0.0
C118 C 0.43943 0.18133 0.30191 0.0
C119 C 0.51566 0.13654 0.38279 0.0
C120 C 0.50706 0.14789 0.29288 0.0
C121 C 0.44823 0.10988 0.31854 0.0
O122 O 0.46418 0.11468 0.33704 0.0
O123 O 0.44661 0.12314 0.3029 0.0
O124 O 0.51359 0.12117 0.3633 0.0
O125 O 0.50668 0.15355 0.38019 0.0
O126 O 0.28174 0.14653 0.52832 0.0
Cd127 Cd 0.28376 0.12152 0.50043 0.0
Cd128 Cd 0.2818 0.15441 0.47716 0.0
O129 O 0.30398 0.16902 0.51022 0.0
O130 O 0.29941 0.10248 0.51863 0.0
O131 O 0.31439 0.1243 0.49314 0.0
C132 C 0.31681 0.11201 0.51025 0.0
C133 C 0.28618 0.17848 0.44803 0.0
C134 C 0.29659 0.16475 0.52975 0.0
C135 C 0.24095 0.117 0.47974 0.0
O136 O 0.24927 0.13819 0.4798 0.0
O137 O 0.2538 0.10339 0.48066 0.0
O138 O 0.27778 0.18361 0.46752 0.0
O139 O 0.29116 0.15881 0.44401 0.0
O140 O 0.1977 0.04751 0.79023 0.0
Cd141 Cd 0.22635 0.05004 0.81706 0.0
Cd142 Cd 0.19125 0.07439 0.84726 0.0
O143 O 0.17356 0.06234 0.8102 0.0
O144 O 0.24548 0.02822 0.80124 0.0
O145 O 0.22942 0.02027 0.83249 0.0
C146 C 0.24106 0.01395 0.81622 0.0
C147 C 0.17063 0.07236 0.88265 0.0
C148 C 0.17909 0.05344 0.79003 0.0
C149 C 0.23672 0.10528 0.83738 0.0
O150 O 0.2188 0.1025 0.84695 0.0
O151 O 0.24295 0.08745 0.82709 0.0
O152 O 0.17051 0.08792 0.86899 0.0
O153 O 0.18245 0.05795 0.8768 0.0
O154 O 0.24787 0.9149 0.10838 0.0
Cd155 Cd 0.24206 0.93899 0.08661 0.0
Cd156 Cd 0.2596 0.90298 0.05117 0.0
O157 O 0.25623 0.88724 0.08237 0.0
O158 O 0.23133 0.96299 0.10818 0.0
O159 O 0.21137 0.94319 0.07232 0.0
C160 C 0.21365 0.95916 0.09149 0.0
C161 C 0.26111 0.88206 0.01107 0.0
C162 C 0.25332 0.89571 0.10404 0.0
C163 C 0.28678 0.95303 0.0714 0.0
O164 O 0.28444 0.93272 0.05971 0.0
O165 O 0.27156 0.95912 0.08189 0.0
O166 O 0.27544 0.88317 0.03071 0.0
O167 O 0.24473 0.89144 0.01422 0.0
O168 O 0.35516 0.49288 0.20175 0.0
Cd169 Cd 0.36039 0.51651 0.17791 0.0
Cd170 Cd 0.3697 0.48278 0.14815 0.0
O171 O 0.35223 0.46493 0.17001 0.0
O172 O 0.33834 0.53619 0.17805 0.0
O173 O 0.33656 0.50699 0.14785 0.0
C174 C 0.3281 0.52329 0.15696 0.0
C175 C 0.35942 0.46655 0.10668 0.0
C176 C 0.34922 0.47163 0.19187 0.0
C177 C 0.40654 0.52275 0.16651 0.0
O178 O 0.40163 0.50106 0.16051 0.0
O179 O 0.39172 0.53327 0.17181 0.0
O180 O 0.37218 0.45832 0.12156 0.0
O181 O 0.35339 0.48482 0.11512 0.0
O182 O 0.89465 0.24027 0.11809 0.0
Cd183 Cd 0.8926 0.21437 0.08779 0.0
Cd184 Cd 0.87262 0.24314 0.06026 0.0
O185 O 0.87616 0.26071 0.09663 0.0
O186 O 0.91064 0.19289 0.09879 0.0
O187 O 0.91646 0.21064 0.06714 0.0
C188 C 0.92115 0.19587 0.0805 0.0
C189 C 0.86959 0.26169 0.02566 0.0
C190 C 0.88499 0.25679 0.11744 0.0
C191 C 0.8452 0.19607 0.06169 0.0
O192 O 0.84747 0.214 0.05211 0.0
O193 O 0.8612 0.19306 0.07681 0.0
O194 O 0.85556 0.26096 0.04069 0.0
O195 O 0.88693 0.25383 0.03143 0.0
O196 O 0.15132 0.49989 0.29015 0.0
Cd197 Cd 0.17779 0.50213 0.31877 0.0
Cd198 Cd 0.15064 0.52733 0.34685 0.0
O199 O 0.13186 0.5203 0.31097 0.0
O200 O 0.19695 0.48299 0.30338 0.0
O201 O 0.18602 0.47878 0.33918 0.0
C202 C 0.19766 0.47322 0.32263 0.0
C203 C 0.13381 0.53051 0.38261 0.0
C204 C 0.13529 0.50996 0.29045 0.0
C205 C 0.19606 0.55265 0.34021 0.0
O206 O 0.17922 0.55268 0.35077 0.0
O207 O 0.19822 0.53451 0.32693 0.0
O208 O 0.13254 0.54417 0.36698 0.0
O209 O 0.14371 0.51417 0.37758 0.0
O210 O 0.85754 0.99812 0.70643 0.0
Cd211 Cd 0.86135 0.0209 0.68116 0.0
Cd212 Cd 0.87473 0.98941 0.65507 0.0
O213 O 0.85619 0.97075 0.67496 0.0
O214 O 0.83773 0.03857 0.67786 0.0
O215 O 0.83803 1.00751 0.65093 0.0
C216 C 0.82867 0.02381 0.65763 0.0
C217 C 0.86802 0.97252 0.61389 0.0
C218 C 0.85285 0.9768 0.69677 0.0
C219 C 0.90828 0.02968 0.67133 0.0
O220 O 0.90562 1.00832 0.67053 0.0
O221 O 0.89169 0.03859 0.67288 0.0
O222 O 0.87964 0.96488 0.63051 0.0
O223 O 0.8615 0.99096 0.62055 0.0
O224 O 0.93741 0.08891 0.25656 0.0
Cd225 Cd 0.91274 0.08829 0.28173 0.0
Cd226 Cd 0.95285 0.07349 0.31117 0.0
O227 O 0.96676 0.08209 0.27971 0.0
O228 O 0.88956 0.1082 0.2713 0.0
O229 O 0.91454 0.12074 0.30487 0.0
C230 C 0.8983 0.12477 0.29013 0.0
C231 C 0.97485 0.08335 0.35206 0.0
C232 C 0.95778 0.08678 0.25931 0.0
C233 C 0.9065 0.03775 0.2987 0.0
O234 O 0.92748 0.04332 0.30702 0.0
O235 O 0.8973 0.05271 0.28919 0.0
O236 O 0.97725 0.06701 0.33559 0.0
O237 O 0.96076 0.09504 0.34523 0.0
O238 O 0.39018 0.73434 0.60619 0.0
Cd239 Cd 0.39171 0.71124 0.57496 0.0
Cd240 Cd 0.37256 0.74447 0.55207 0.0
O241 O 0.38113 0.76259 0.58865 0.0
O242 O 0.408 0.68903 0.58803 0.0
O243 O 0.41903 0.70869 0.5595 0.0
C244 C 0.42167 0.69331 0.57286 0.0
C245 C 0.36926 0.76293 0.51731 0.0
C246 C 0.38567 0.75402 0.60801 0.0
C247 C 0.3441 0.69652 0.55061 0.0
O248 O 0.34573 0.717 0.54713 0.0
O249 O 0.36105 0.69006 0.55975 0.0
O250 O 0.35751 0.76524 0.53451 0.0
O251 O 0.38435 0.75149 0.52064 0.0
O252 O 0.43958 0.59118 0.76348 0.0
Cd253 Cd 0.41319 0.59054 0.78664 0.0
Cd254 Cd 0.45435 0.57502 0.81941 0.0
O255 O 0.46788 0.58321 0.78756 0.0
O256 O 0.38923 0.60926 0.77429 0.0
O257 O 0.41362 0.62357 0.80802 0.0
C258 C 0.39728 0.62653 0.79253 0.0
C259 C 0.4775 0.58122 0.85996 0.0
C260 C 0.45974 0.58831 0.76694 0.0
C261 C 0.40702 0.5399 0.804 0.0
O262 O 0.42774 0.54592 0.81368 0.0
O263 O 0.39795 0.55463 0.7938 0.0
O264 O 0.4776 0.56478 0.84225 0.0
O265 O 0.4652 0.5951 0.85463 0.0
O266 O 0.65332 1.00108 0.78583 0.0
Cd267 Cd 0.67739 1.00317 0.8171 0.0
Cd268 Cd 0.64581 0.02416 0.83915 0.0
O269 O 0.62738 0.01417 0.80316 0.0
O270 O 0.69864 0.98561 0.80424 0.0
O271 O 0.68305 0.97874 0.83688 0.0
C272 C 0.69703 0.97469 0.82254 0.0
C273 C 0.63041 0.02393 0.87576 0.0
C274 C 0.63466 1.00677 0.78376 0.0
C275 C 0.69161 0.05331 0.83841 0.0
O276 O 0.67187 0.05218 0.8424 0.0
O277 O 0.6976 0.03545 0.82974 0.0
O278 O 0.62626 0.03725 0.86047 0.0
O279 O 0.64225 1.00958 0.86973 0.0
O280 O 0.7853 0.64993 0.0331 0.0
Cd281 Cd 0.78777 0.62573 0.00449 0.0
Cd282 Cd 0.78383 0.65839 0.98185 0.0
O283 O 0.80598 0.67346 0.0147 0.0
O284 O 0.80208 0.60627 0.02313 0.0
O285 O 0.81881 0.62803 0.99861 0.0
C286 C 0.82012 0.61569 0.01584 0.0
C287 C 0.78773 0.68329 0.95405 0.0
C288 C 0.79956 0.66859 0.0345 0.0
C289 C 0.7447 0.61939 0.98284 0.0
O290 O 0.75167 0.64093 0.98403 0.0
O291 O 0.75871 0.60703 0.98332 0.0
O292 O 0.77856 0.68726 0.97321 0.0
O293 O 0.79345 0.66405 0.94935 0.0
O294 O 0.98429 0.65324 0.79571 0.0
Cd295 Cd 0.96138 0.65805 0.81878 0.0
Cd296 Cd 0.99925 0.64113 0.85123 0.0
O297 O 1.01296 0.64595 0.8197 0.0
O298 O 0.93633 0.6653 0.7965 0.0
O299 O 0.95517 0.68902 0.83084 0.0
C300 C 0.939 0.68418 0.81199 0.0
C301 C 1.02084 0.63915 0.88983 0.0
C302 C 1.00348 0.64869 0.79857 0.0
C303 C 0.95071 0.61235 0.83416 0.0
O304 O 0.97119 0.61494 0.84295 0.0
O305 O 0.94323 0.62841 0.82649 0.0
O306 O 1.01855 0.62408 0.87 0.0
O307 O 1.01231 0.65653 0.88769 0.0
O308 O 0.74658 0.40851 0.6159 0.0
Cd309 Cd 0.74397 0.43494 0.5961 0.0
Cd310 Cd 0.76096 0.40021 0.55839 0.0
O311 O 0.7598 0.38496 0.5899 0.0
O312 O 0.73145 0.45699 0.61801 0.0
O313 O 0.71595 0.44244 0.57885 0.0
C314 C 0.7162 0.45618 0.59928 0.0
C315 C 0.76501 0.37938 0.51913 0.0
C316 C 0.75463 0.39095 0.61119 0.0
C317 C 0.78899 0.44935 0.58184 0.0
O318 O 0.7849 0.43025 0.56692 0.0
O319 O 0.77482 0.45475 0.59463 0.0
O320 O 0.77922 0.38231 0.53931 0.0
O321 O 0.74726 0.38668 0.52119 0.0
O322 O 0.70463 0.54708 0.30053 0.0
Cd323 Cd 0.73304 0.55099 0.32828 0.0
Cd324 Cd 0.69644 0.57375 0.35763 0.0
O325 O 0.67963 0.5603 0.32035 0.0
O326 O 0.75336 0.53004 0.31333 0.0
O327 O 0.7367 0.52134 0.34386 0.0
C328 C 0.7489 0.51546 0.328 0.0
C329 C 0.67561 0.57125 0.39297 0.0
C330 C 0.68556 0.55199 0.30017 0.0
C331 C 0.74081 0.60649 0.34808 0.0
O332 O 0.7225 0.60303 0.35691 0.0
O333 O 0.74812 0.58904 0.33863 0.0
O334 O 0.67204 0.58366 0.3764 0.0
O335 O 0.69102 0.56033 0.39007 0.0
Nd336 Nd 0.08358 0.10081 0.08191 0.0
Nd337 Nd 0.05248 0.06201 0.06804 0.0
C338 C 0.10059 0.14566 0.09658 0.0
C339 C 0.09953 0.16499 0.08292 0.0
C340 C 0.08675 0.18073 0.08963 0.0
C341 C 0.08426 0.19787 0.07557 0.0
C342 C 0.09457 0.19972 0.05451 0.0
C343 C 0.10733 0.18394 0.0479 0.0
C344 C 0.10978 0.16685 0.06187 0.0
C345 C 0.09073 0.0818 0.03524 0.0
C346 C 0.03388 0.10221 0.05273 0.0
C347 C 0.03078 0.01793 0.06046 0.0
C348 C 0.03698 0.99748 0.06844 0.0
C349 C 0.05786 0.99277 0.06612 0.0
C350 C 0.06495 0.97577 0.07765 0.0
C351 C 0.0513 0.96336 0.0917 0.0
C352 C 0.0302 0.96747 0.09334 0.0
C353 C 1.02308 0.98435 0.08179 0.0
C354 C 0.04598 0.08545 0.11315 0.0
C355 C 0.10268 0.05924 0.09178 0.0
O356 O 0.0817 0.13498 0.10166 0.0
O357 O 0.11238 0.13138 0.08912 0.0
O358 O 0.10596 0.09196 0.05444 0.0
O359 O 0.07112 0.08132 0.0405 0.0
O360 O 0.05368 0.11316 0.06529 0.0
O361 O 0.02879 0.07967 0.04717 0.0
O362 O 0.04079 0.02714 0.04375 0.0
O363 O 0.02915 0.03341 0.07868 0.0
O364 O 0.03132 0.0786 0.09288 0.0
O365 O 0.06475 0.08181 0.10875 0.0
O366 O 0.0846 0.04945 0.07526 0.0
O367 O 0.10567 0.08087 0.10225 0.0
H368 H 0.07842 0.17958 0.10558 0.0
H369 H 0.0744 0.20976 0.08131 0.0
H370 H 0.11513 0.18447 0.03152 0.0
H371 H 0.11941 0.15483 0.05582 0.0
H372 H 0.06904 1.00277 0.0562 0.0
H373 H 0.08134 0.97286 0.0763 0.0
H374 H 1.01951 0.95806 0.10422 0.0
H375 H 1.00707 0.98782 0.08417 0.0
Nd376 Nd 0.32343 0.85132 0.32064 0.0
Nd377 Nd 0.31282 0.80759 0.29537 0.0
C378 C 0.32102 0.89349 0.33755 0.0
C379 C 0.33249 0.91548 0.33159 0.0
C380 C 0.32283 0.92386 0.31126 0.0
C381 C 0.33463 0.94312 0.30361 0.0
C382 C 0.35622 0.95456 0.31628 0.0
C383 C 0.36571 0.94652 0.33693 0.0
C384 C 0.35397 0.92716 0.34451 0.0
C385 C 0.36628 0.84562 0.31728 0.0
C386 C 0.31539 0.84357 0.26009 0.0
C387 C 0.30635 0.76293 0.27875 0.0
C388 C 0.29576 0.7424 0.28798 0.0
C389 C 0.30293 0.73919 0.31232 0.0
C390 C 0.29197 0.72016 0.3211 0.0
C391 C 0.27362 0.70408 0.30577 0.0
C392 C 0.26633 0.70747 0.28155 0.0
C393 C 0.27733 0.72646 0.27274 0.0
C394 C 0.27385 0.82289 0.29799 0.0
C395 C 0.32151 0.81449 0.35621 0.0
O396 O 0.3065 0.87967 0.31918 0.0
O397 O 0.33338 0.88264 0.35024 0.0
O398 O 0.36102 0.86478 0.32398 0.0
O399 O 0.34872 0.82924 0.30913 0.0
O400 O 0.31319 0.85624 0.28057 0.0
O401 O 0.32073 0.82394 0.26147 0.0
O402 O 0.32512 0.77568 0.29198 0.0
O403 O 0.29294 0.77511 0.27083 0.0
O404 O 0.27894 0.81291 0.27794 0.0
O405 O 0.28984 0.82547 0.31627 0.0
O406 O 0.31584 0.79949 0.33517 0.0
O407 O 0.32443 0.83653 0.35617 0.0
H408 H 0.30632 0.91523 0.30084 0.0
H409 H 0.32694 0.94889 0.28757 0.0
H410 H 0.38215 0.95532 0.3474 0.0
H411 H 0.36187 0.92116 0.36024 0.0
H412 H 0.31688 0.75141 0.32468 0.0
H413 H 0.29777 0.71812 0.33996 0.0
H414 H 0.25237 0.69522 0.26924 0.0
H415 H 0.27139 0.72875 0.25402 0.0
Nd416 Nd 0.59583 0.08224 0.58263 0.0
Nd417 Nd 0.5514 0.06313 0.58583 0.0
C418 C 0.63531 0.09104 0.56911 0.0
C419 C 0.65323 0.07905 0.5723 0.0
C420 C 0.66883 0.07992 0.55621 0.0
C421 C 0.6865 0.06927 0.56033 0.0
C422 C 0.68861 0.05785 0.58064 0.0
C423 C 0.67222 0.05589 0.59577 0.0
C424 C 0.65456 0.06628 0.59153 0.0
C425 C 0.59277 0.06494 0.62636 0.0
C426 C 0.57286 0.02869 0.55631 0.0
C427 C 0.51234 0.05514 0.60003 0.0
C428 C 0.49647 0.06977 0.59884 0.0
C429 C 0.47873 0.06697 0.61207 0.0
C430 C 0.46239 0.07935 0.60826 0.0
C431 C 0.46375 0.09443 0.59113 0.0
C432 C 0.48244 0.09852 0.57948 0.0
C433 C 0.49881 0.08639 0.58346 0.0
C434 C 0.55443 0.07999 0.54203 0.0
C435 C 0.57336 0.11775 0.6093 0.0
O436 O 0.61719 0.0792 0.55387 0.0
O437 O 0.63117 0.1017 0.58972 0.0
O438 O 0.6056 0.08438 0.625 0.0
O439 O 0.58224 0.05479 0.60497 0.0
O440 O 0.58593 0.04821 0.55415 0.0
O441 O 0.55931 0.02866 0.57258 0.0
O442 O 0.531 0.06417 0.61576 0.0
O443 O 0.51548 0.04558 0.57831 0.0
O444 O 0.54154 0.06057 0.54347 0.0
O445 O 0.56497 0.09036 0.56336 0.0
O446 O 0.55923 0.09884 0.61125 0.0
O447 O 0.58838 0.11692 0.59493 0.0
H448 H 0.66767 0.0893 0.54096 0.0
H449 H 0.69906 0.07093 0.54851 0.0
H450 H 0.67355 0.04699 0.61143 0.0
H451 H 0.64228 0.06491 0.60373 0.0
H452 H 0.477 0.05452 0.62437 0.0
H453 H 0.4479 0.07589 0.6172 0.0
H454 H 0.48362 0.10999 0.56608 0.0
H455 H 0.5127 0.08911 0.5735 0.0
Nd456 Nd 0.33234 0.32568 0.83936 0.0
Nd457 Nd 0.31271 0.31714 0.79683 0.0
C458 C 0.34656 0.33036 0.88783 0.0
C459 C 0.33907 0.33877 0.91048 0.0
C460 C 0.31623 0.33431 0.91198 0.0
C461 C 0.30916 0.3461 0.93188 0.0
C462 C 0.32493 0.36239 0.95003 0.0
C463 C 0.3478 0.36573 0.94932 0.0
C464 C 0.35484 0.35392 0.92961 0.0
C465 C 0.34254 0.36704 0.81944 0.0
C466 C 0.28022 0.33018 0.83264 0.0
C467 C 0.30193 0.31312 0.74806 0.0
C468 C 0.308 0.29921 0.72712 0.0
C469 C 0.32238 0.31012 0.7127 0.0
C470 C 0.3291 0.29718 0.6934 0.0
C471 C 0.32149 0.27315 0.68824 0.0
C472 C 0.30741 0.26215 0.70289 0.0
C473 C 0.3007 0.27508 0.72222 0.0
C474 C 0.30074 0.27539 0.81474 0.0
C475 C 0.36523 0.31125 0.80512 0.0
O476 O 0.33419 0.31131 0.87408 0.0
O477 O 0.35313 0.34597 0.87479 0.0
O478 O 0.35698 0.35646 0.8284 0.0
O479 O 0.32313 0.35437 0.81886 0.0
O480 O 0.29591 0.32474 0.84765 0.0
O481 O 0.28423 0.33232 0.81022 0.0
O482 O 0.31831 0.32925 0.76174 0.0
O483 O 0.28901 0.30219 0.76135 0.0
O484 O 0.28714 0.28527 0.80295 0.0
O485 O 0.32057 0.28823 0.81788 0.0
O486 O 0.34859 0.31356 0.78865 0.0
O487 O 0.3622 0.31283 0.82822 0.0
H488 H 0.30381 0.32261 0.89729 0.0
H489 H 0.29149 0.34341 0.93244 0.0
H490 H 0.3601 0.37826 0.96347 0.0
H491 H 0.37248 0.35753 0.92858 0.0
H492 H 0.32841 0.32868 0.71635 0.0
H493 H 0.33994 0.30592 0.68221 0.0
H494 H 0.301 0.24363 0.69886 0.0
H495 H 0.28973 0.26615 0.73316 0.0
Nd496 Nd 0.07367 0.10241 0.58833 0.0
Nd497 Nd 0.07482 0.05217 0.56258 0.0
C498 C 0.06135 0.14023 0.60184 0.0
C499 C 0.05954 0.15866 0.58795 0.0
C500 C 0.03984 0.16636 0.58543 0.0
C501 C 0.03789 0.18368 0.57178 0.0
C502 C 0.05561 0.19322 0.56047 0.0
C503 C 0.07487 0.18469 0.56198 0.0
C504 C 0.07681 0.16745 0.57555 0.0
C505 C 0.11109 0.09818 0.56896 0.0
C506 C 0.05325 0.0831 0.52669 0.0
C507 C 0.09087 0.01756 0.54753 0.0
C508 C 0.09087 0.99808 0.56022 0.0
C509 C 0.11061 0.99093 0.56589 0.0
C510 C 0.1111 0.97383 0.58022 0.0
C511 C 0.09187 0.96389 0.58903 0.0
C512 C 0.07248 0.9719 0.5843 0.0
C513 C 0.07199 0.98889 0.57006 0.0
C514 C 0.03773 0.051 0.58512 0.0
C515 C 0.09375 0.07103 0.62398 0.0
O516 O 0.04689 0.12062 0.5925 0.0
O517 O 0.08167 0.13807 0.60896 0.0
O518 O 0.11184 0.11295 0.58897 0.0
O519 O 0.09131 0.08798 0.55954 0.0
O520 O 0.05553 0.09916 0.54696 0.0
O521 O 0.06074 0.06431 0.52761 0.0
O522 O 0.10378 0.03701 0.56046 0.0
O523 O 0.07109 0.01931 0.53712 0.0
O524 O 0.04092 0.03278 0.57178 0.0
O525 O 0.0538 0.06741 0.58527 0.0
O526 O 0.09415 0.05684 0.60324 0.0
O527 O 0.08396 0.08835 0.62354 0.0
H528 H 0.02614 0.15919 0.59429 0.0
H529 H 1.02295 0.19016 0.57074 0.0
H530 H 0.0889 0.19215 0.55374 0.0
H531 H 0.09196 0.16132 0.57664 0.0
H532 H 0.12554 0.99853 0.55923 0.0
H533 H 0.12618 0.96774 0.58365 0.0
H534 H 0.05727 0.96416 0.59041 0.0
H535 H 0.05674 0.99465 0.56665 0.0
Nd536 Nd 0.33384 0.83157 0.81618 0.0
Nd537 Nd 0.29474 0.80473 0.7886 0.0
C538 C 0.37156 0.86277 0.83274 0.0
C539 C 0.39477 0.86204 0.83858 0.0
C540 C 0.4027 0.84446 0.82575 0.0
C541 C 0.42331 0.84074 0.83524 0.0
C542 C 0.43579 0.85458 0.85749 0.0
C543 C 0.42831 0.87276 0.86958 0.0
C544 C 0.40786 0.8765 0.86012 0.0
C545 C 0.30382 0.82081 0.84767 0.0
C546 C 0.33402 0.77665 0.80656 0.0
C547 C 0.25626 0.77575 0.76851 0.0
C548 C 0.234 0.77875 0.75953 0.0
C549 C 0.22234 0.79023 0.77532 0.0
C550 C 0.20255 0.79546 0.76533 0.0
C551 C 0.19469 0.78973 0.73951 0.0
C552 C 0.20616 0.77807 0.72388 0.0
C553 C 0.22555 0.77242 0.73385 0.0
C554 C 0.32486 0.81635 0.75781 0.0
C555 C 0.29512 0.85969 0.79874 0.0
O556 O 0.36219 0.85742 0.80916 0.0
O557 O 0.35913 0.85322 0.84737 0.0
O558 O 0.32432 0.8189 0.85144 0.0
O559 O 0.29951 0.82678 0.82682 0.0
O560 O 0.3471 0.79768 0.8145 0.0
O561 O 0.31253 0.77494 0.79794 0.0
O562 O 0.26371 0.78043 0.79263 0.0
O563 O 0.27123 0.78375 0.75564 0.0
O564 O 0.30472 0.81942 0.75441 0.0
O565 O 0.32898 0.80964 0.77822 0.0
O566 O 0.28167 0.83876 0.7927 0.0
O567 O 0.31674 0.86119 0.80547 0.0
H568 H 0.39249 0.83289 0.80928 0.0
H569 H 0.42902 0.8266 0.82594 0.0
H570 H 0.43785 0.88333 0.887 0.0
H571 H 0.40165 0.88975 0.87043 0.0
H572 H 0.2287 0.79557 0.79518 0.0
H573 H 0.19363 0.80429 0.77756 0.0
H574 H 0.20003 0.77327 0.70392 0.0
H575 H 0.23437 0.76373 0.72135 0.0
Nd576 Nd 0.54737 0.06763 0.07749 0.0
Nd577 Nd 0.59825 0.0825 0.10276 0.0
C578 C 0.5057 0.05997 0.05524 0.0
C579 C 0.48481 0.04892 0.06269 0.0
C580 C 0.46748 0.06026 0.0631 0.0
C581 C 0.44787 0.05033 0.07093 0.0
C582 C 0.44528 0.02888 0.07859 0.0
C583 C 0.46287 0.01775 0.07864 0.0
C584 C 0.48248 0.02769 0.07083 0.0
C585 C 0.56401 0.03518 0.09854 0.0
C586 C 0.55953 0.086 0.1372 0.0
C587 C 0.64015 0.0903 0.12401 0.0
C588 C 0.66029 0.10167 0.11522 0.0
C589 C 0.67494 0.08874 0.10694 0.0
C590 C 0.69288 0.09888 0.09645 0.0
C591 C 0.69654 0.12215 0.09411 0.0
C592 C 0.6819 0.13508 0.10239 0.0
C593 C 0.66396 0.12496 0.1128 0.0
C594 C 0.58168 0.114 0.08091 0.0
C595 C 0.58553 0.06496 0.04277 0.0
O596 O 0.51653 0.07984 0.06908 0.0
O597 O 0.51879 0.04653 0.04923 0.0
O598 O 0.54337 0.03638 0.09736 0.0
O599 O 0.57377 0.04936 0.08695 0.0
O600 O 0.54505 0.08398 0.11656 0.0
O601 O 0.57978 0.08237 0.13669 0.0
O602 O 0.62913 0.07024 0.11068 0.0
O603 O 0.62705 0.10344 0.13084 0.0
O604 O 0.60245 0.11338 0.08205 0.0
O605 O 0.572 0.10066 0.0933 0.0
O606 O 0.59991 0.06565 0.06313 0.0
O607 O 0.56572 0.06942 0.04379 0.0
H608 H 0.4691 0.0768 0.05728 0.0
H609 H 0.43452 0.05922 0.07035 0.0
H610 H 0.4615 1.00136 0.08473 0.0
H611 H 0.4958 0.01876 0.07123 0.0
H612 H 0.67233 0.07072 0.1083 0.0
H613 H 0.70408 0.08859 0.09048 0.0
H614 H 0.68419 0.15297 0.10056 0.0
H615 H 0.65279 0.13536 0.11857 0.0
Nd616 Nd 0.28887 0.30578 0.30177 0.0
Nd617 Nd 0.33324 0.33658 0.32052 0.0
C618 C 0.24787 0.28239 0.28257 0.0
C619 C 0.2275 0.28687 0.29149 0.0
C620 C 0.21545 0.30109 0.28043 0.0
C621 C 0.19952 0.30953 0.29219 0.0
C622 C 0.19544 0.30414 0.31544 0.0
C623 C 0.20671 0.2889 0.3257 0.0
C624 C 0.22225 0.28019 0.31378 0.0
C625 C 0.30287 0.30633 0.35139 0.0
C626 C 0.29163 0.35845 0.32837 0.0
C627 C 0.37418 0.36037 0.33865 0.0
C628 C 0.39404 0.35295 0.33219 0.0
C629 C 0.39604 0.33048 0.33393 0.0
C630 C 0.40887 0.3199 0.31928 0.0
C631 C 0.42006 0.33173 0.30289 0.0
C632 C 0.42013 0.35502 0.30331 0.0
C633 C 0.40722 0.36556 0.31786 0.0
C634 C 0.31768 0.33532 0.27073 0.0
C635 C 0.33211 0.2838 0.29904 0.0
O636 O 0.25878 0.29821 0.27196 0.0
O637 O 0.26128 0.27488 0.29808 0.0
O638 O 0.28367 0.3095 0.34228 0.0
O639 O 0.31486 0.30624 0.3348 0.0
O640 O 0.27925 0.3398 0.3131 0.0
O641 O 0.31291 0.36048 0.33688 0.0
O642 O 0.3622 0.348 0.35185 0.0
O643 O 0.36189 0.36518 0.31982 0.0
O644 O 0.337 0.332 0.27917 0.0
O645 O 0.30671 0.33618 0.28812 0.0
O646 O 0.343 0.30284 0.31441 0.0
O647 O 0.3113 0.28168 0.28768 0.0
H648 H 0.21908 0.30659 0.26327 0.0
H649 H 0.19092 0.3208 0.28336 0.0
H650 H 0.20461 0.28459 0.34377 0.0
H651 H 0.23116 0.26934 0.323 0.0
H652 H 0.38616 0.32031 0.34488 0.0
H653 H 0.40855 0.30194 0.3193 0.0
H654 H 0.42903 0.36464 0.29115 0.0
H655 H 0.40589 0.38282 0.31607 0.0
Nd656 Nd 0.57885 0.59695 0.09464 0.0
Nd657 Nd 0.58088 0.55074 0.07185 0.0
C658 C 0.56617 0.63498 0.10663 0.0
C659 C 0.56618 0.65359 0.09248 0.0
C660 C 0.548 0.66378 0.09034 0.0
C661 C 0.54809 0.68157 0.07681 0.0
C662 C 0.56644 0.68927 0.06552 0.0
C663 C 0.58401 0.67816 0.06648 0.0
C664 C 0.58381 0.66031 0.07972 0.0
C665 C 0.61704 0.59671 0.07537 0.0
C666 C 0.55848 0.57796 0.03387 0.0
C667 C 0.59403 0.51338 0.05839 0.0
C668 C 0.59638 0.49483 0.07184 0.0
C669 C 0.61641 0.48776 0.07389 0.0
C670 C 0.61897 0.47023 0.08693 0.0
C671 C 0.60144 0.45961 0.0979 0.0
C672 C 0.58197 0.46777 0.09723 0.0
C673 C 0.57948 0.48538 0.08436 0.0
C674 C 0.5424 0.55151 0.09023 0.0
C675 C 0.60188 0.5692 0.13251 0.0
O676 O 0.55195 0.61552 0.09622 0.0
O677 O 0.58588 0.63245 0.1157 0.0
O678 O 0.61638 0.61072 0.09528 0.0
O679 O 0.59781 0.5851 0.06526 0.0
O680 O 0.55717 0.59147 0.05464 0.0
O681 O 0.57018 0.56231 0.0351 0.0
O682 O 0.60802 0.53308 0.06834 0.0
O683 O 0.57357 0.51508 0.05121 0.0
O684 O 0.54303 0.53815 0.06974 0.0
O685 O 0.56167 0.56262 0.10107 0.0
O686 O 0.60076 0.55411 0.11205 0.0
O687 O 0.59245 0.5867 0.13152 0.0
H688 H 0.534 0.65827 0.09949 0.0
H689 H 0.53444 0.69005 0.07622 0.0
H690 H 0.59823 0.68385 0.05768 0.0
H691 H 0.59767 0.6521 0.08035 0.0
H692 H 0.62985 0.4955 0.06499 0.0
H693 H 0.63409 0.4641 0.08732 0.0
H694 H 0.56808 0.45956 0.10522 0.0
H695 H 0.56414 0.49114 0.08369 0.0
Nd696 Nd 0.84454 0.33408 0.32048 0.0
Nd697 Nd 0.80108 0.30551 0.31118 0.0
C698 C 0.88757 0.35335 0.32502 0.0
C699 C 0.90757 0.35183 0.34193 0.0
C700 C 0.92136 0.3378 0.33366 0.0
C701 C 0.93965 0.33544 0.35006 0.0
C702 C 0.94434 0.34703 0.37497 0.0
C703 C 0.93072 0.36126 0.38312 0.0
C704 C 0.91257 0.36369 0.36679 0.0
C705 C 0.82553 0.33488 0.36314 0.0
C706 C 0.83998 0.27718 0.31742 0.0
C707 C 0.75825 0.28729 0.30883 0.0
C708 C 0.73839 0.28958 0.29268 0.0
C709 C 0.71832 0.28844 0.3017 0.0
C710 C 0.69899 0.28895 0.28571 0.0
C711 C 0.69971 0.29059 0.26067 0.0
C712 C 0.72001 0.29293 0.252 0.0
C713 C 0.73932 0.29264 0.26798 0.0
C714 C 0.81962 0.30395 0.26857 0.0
C715 C 0.80589 0.36238 0.3117 0.0
O716 O 0.87732 0.33491 0.30862 0.0
O717 O 0.87369 0.36342 0.33521 0.0
O718 O 0.83803 0.35232 0.35706 0.0
O719 O 0.82457 0.31673 0.34779 0.0
O720 O 0.85254 0.29721 0.31514 0.0
O721 O 0.81922 0.27662 0.32103 0.0
O722 O 0.76922 0.30571 0.32488 0.0
O723 O 0.77132 0.27667 0.29767 0.0
O724 O 0.80649 0.28681 0.27454 0.0
O725 O 0.82111 0.32244 0.28376 0.0
O726 O 0.79258 0.34209 0.31199 0.0
O727 O 0.8273 0.3634 0.31117 0.0
H728 H 0.91789 0.32852 0.31458 0.0
H729 H 0.95001 0.32447 0.34334 0.0
H730 H 0.93434 0.37085 0.40208 0.0
H731 H 0.90242 0.3748 0.37377 0.0
H732 H 0.71747 0.28644 0.32081 0.0
H733 H 0.68331 0.28693 0.29251 0.0
H734 H 0.72069 0.29402 0.23262 0.0
H735 H 0.7548 0.294 0.2608 0.0
Nd736 Nd 0.04791 0.57258 0.58304 0.0
Nd737 Nd 0.09863 0.59257 0.60866 0.0
C738 C 1.00508 0.56735 0.56736 0.0
C739 C 0.98489 0.55676 0.57644 0.0
C740 C 0.9718 0.57067 0.58661 0.0
C741 C 0.95208 0.56069 0.59419 0.0
C742 C 0.94535 0.53674 0.59175 0.0
C743 C 0.95876 0.52285 0.58254 0.0
C744 C 0.97845 0.53277 0.57498 0.0
C745 C 0.0666 0.54106 0.60344 0.0
C746 C 0.06101 0.59561 0.64329 0.0
C747 C 0.1419 0.60415 0.62582 0.0
C748 C 0.16105 0.61347 0.61434 0.0
C749 C 0.17526 0.59952 0.60734 0.0
C750 C 0.19289 0.60791 0.59552 0.0
C751 C 0.19661 0.63041 0.59055 0.0
C752 C 0.18228 0.64429 0.59738 0.0
C753 C 0.16468 0.63593 0.60918 0.0
C754 C 0.07781 0.62234 0.58847 0.0
C755 C 0.08523 0.57109 0.54717 0.0
O756 O 1.01769 0.5864 0.58138 0.0
O757 O 1.01652 0.55333 0.55815 0.0
O758 O 0.04955 0.53549 0.58534 0.0
O759 O 0.07135 0.56242 0.61159 0.0
O760 O 0.04565 0.58921 0.62279 0.0
O761 O 0.08219 0.59542 0.64339 0.0
O762 O 0.13109 0.58288 0.61662 0.0
O763 O 0.12865 0.61773 0.63043 0.0
O764 O 0.09187 0.62847 0.60935 0.0
O765 O 0.07547 0.60165 0.57956 0.0
O766 O 0.10111 0.57898 0.56728 0.0
O767 O 0.06385 0.56963 0.54788 0.0
H768 H 0.97651 0.5892 0.58809 0.0
H769 H 0.94161 0.57152 0.60095 0.0
H770 H 0.95347 0.50427 0.58017 0.0
H771 H 0.98826 0.52156 0.56743 0.0
H772 H 0.17273 0.58212 0.61097 0.0
H773 H 0.20388 0.59694 0.59075 0.0
H774 H 0.18461 0.6616 0.59352 0.0
H775 H 0.15389 0.64708 0.61409 0.0
Nd776 Nd 0.82817 0.82767 0.34472 0.0
Nd777 Nd 0.80859 0.81815 0.3026 0.0
C778 C 0.83853 0.83201 0.3934 0.0
C779 C 0.82841 0.84253 0.41276 0.0
C780 C 0.82909 0.83495 0.43557 0.0
C781 C 0.82162 0.84683 0.45501 0.0
C782 C 0.81376 0.86639 0.45158 0.0
C783 C 0.81046 0.87209 0.42783 0.0
C784 C 0.81779 0.86015 0.40839 0.0
C785 C 0.83945 0.86847 0.32432 0.0
C786 C 0.77572 0.83283 0.33698 0.0
C787 C 0.79716 0.81199 0.25367 0.0
C788 C 0.80426 0.79889 0.23297 0.0
C789 C 0.81905 0.81058 0.21941 0.0
C790 C 0.82592 0.79842 0.19966 0.0
C791 C 0.81806 0.77453 0.19336 0.0
C792 C 0.80378 0.76268 0.20716 0.0
C793 C 0.79691 0.77479 0.22693 0.0
C794 C 0.79857 0.77683 0.32223 0.0
C795 C 0.86101 0.81351 0.31071 0.0
O796 O 0.82546 0.81358 0.37926 0.0
O797 O 0.84921 0.84604 0.38083 0.0
O798 O 0.85351 0.85829 0.33489 0.0
O799 O 0.8197 0.85602 0.32309 0.0
O800 O 0.79213 0.82963 0.35297 0.0
O801 O 0.779 0.83216 0.31393 0.0
O802 O 0.81229 0.82959 0.26679 0.0
O803 O 0.7856 0.80023 0.26747 0.0
O804 O 0.78419 0.78608 0.31078 0.0
O805 O 0.81794 0.79014 0.32421 0.0
O806 O 0.84504 0.81769 0.29489 0.0
O807 O 0.85743 0.81317 0.3335 0.0
H808 H 0.83662 0.82084 0.43877 0.0
H809 H 0.82443 0.84243 0.4734 0.0
H810 H 0.8046 0.8873 0.42508 0.0
H811 H 0.81653 0.86568 0.3905 0.0
H812 H 0.825 0.82914 0.22382 0.0
H813 H 0.83665 0.80769 0.18873 0.0
H814 H 0.79729 0.7442 0.202 0.0
H815 H 0.78559 0.76529 0.23712 0.0
Nd816 Nd 0.82894 0.34835 0.8271 0.0
Nd817 Nd 0.81853 0.29976 0.80026 0.0
C818 C 0.82621 0.3904 0.8435 0.0
C819 C 0.83907 0.41249 0.8396 0.0
C820 C 0.82774 0.42746 0.82913 0.0
C821 C 0.83967 0.44771 0.82341 0.0
C822 C 0.86309 0.45328 0.82827 0.0
C823 C 0.87444 0.43804 0.83815 0.0
C824 C 0.86253 0.41772 0.84367 0.0
C825 C 0.87109 0.33918 0.82528 0.0
C826 C 0.82039 0.33865 0.76564 0.0
C827 C 0.8203 0.25735 0.78382 0.0
C828 C 0.80853 0.23578 0.79044 0.0
C829 C 0.81995 0.22539 0.80767 0.0
C830 C 0.80854 0.20652 0.81634 0.0
C831 C 0.78564 0.19758 0.80762 0.0
C832 C 0.77417 0.20762 0.79025 0.0
C833 C 0.78548 0.22669 0.7818 0.0
C834 C 0.77681 0.30792 0.80625 0.0
C835 C 0.82515 0.30915 0.86113 0.0
O836 O 0.81349 0.37748 0.82328 0.0
O837 O 0.83675 0.37889 0.85742 0.0
O838 O 0.86746 0.3587 0.83435 0.0
O839 O 0.85222 0.32497 0.81628 0.0
O840 O 0.82381 0.35375 0.78646 0.0
O841 O 0.8203 0.31693 0.76595 0.0
O842 O 0.83519 0.27117 0.80187 0.0
O843 O 0.80819 0.26827 0.77092 0.0
O844 O 0.78033 0.28837 0.79716 0.0
O845 O 0.79558 0.3225 0.81376 0.0
O846 O 0.82412 0.29458 0.84054 0.0
O847 O 0.82399 0.33058 0.86067 0.0
H848 H 0.80965 0.4234 0.8253 0.0
H849 H 0.83064 0.45934 0.81591 0.0
H850 H 0.89254 0.442 0.84182 0.0
H851 H 0.8717 0.40614 0.85104 0.0
H852 H 0.83765 0.23214 0.81481 0.0
H853 H 0.81759 0.19876 0.82964 0.0
H854 H 0.75643 0.20078 0.78337 0.0
H855 H 0.7761 0.23445 0.76882 0.0
Nd856 Nd 0.79259 0.81285 0.81072 0.0
Nd857 Nd 0.83595 0.84328 0.8333 0.0
C858 C 0.75251 0.78899 0.78878 0.0
C859 C 0.73187 0.79153 0.79825 0.0
C860 C 0.71681 0.8021 0.78565 0.0
C861 C 0.70018 0.80924 0.79729 0.0
C862 C 0.69839 0.80605 0.82182 0.0
C863 C 0.713 0.79469 0.83394 0.0
C864 C 0.72932 0.78738 0.82229 0.0
C865 C 0.80342 0.81269 0.86099 0.0
C866 C 0.79342 0.86412 0.83864 0.0
C867 C 0.87635 0.86764 0.85221 0.0
C868 C 0.89599 0.86161 0.84321 0.0
C869 C 0.90202 0.84134 0.84801 0.0
C870 C 0.91477 0.83104 0.83304 0.0
C871 C 0.92189 0.84091 0.81316 0.0
C872 C 0.91745 0.86209 0.80958 0.0
C873 C 0.90473 0.87243 0.82457 0.0
C874 C 0.82471 0.84293 0.78315 0.0
C875 C 0.83608 0.79165 0.81016 0.0
O876 O 0.76298 0.8068 0.78062 0.0
O877 O 0.7662 0.78035 0.80266 0.0
O878 O 0.78431 0.81479 0.8502 0.0
O879 O 0.81638 0.81268 0.8455 0.0
O880 O 0.78232 0.84637 0.82134 0.0
O881 O 0.81411 0.86576 0.8493 0.0
O882 O 0.86527 0.85313 0.86417 0.0
O883 O 0.86312 0.87429 0.8357 0.0
O884 O 0.84281 0.83823 0.79333 0.0
O885 O 0.81187 0.84368 0.79873 0.0
O886 O 0.84561 0.80914 0.82834 0.0
O887 O 0.81649 0.79084 0.79657 0.0
H888 H 0.71858 0.80583 0.76727 0.0
H889 H 0.68918 0.81782 0.78732 0.0
H890 H 0.71276 0.7925 0.85309 0.0
H891 H 0.74079 0.77969 0.83289 0.0
H892 H 0.89554 0.83243 0.86211 0.0
H893 H 0.91831 0.81489 0.83638 0.0
H894 H 0.9226 0.86995 0.7942 0.0
H895 H 0.90017 0.88786 0.82016 0.0
Nd896 Nd 0.58954 0.59932 0.59185 0.0
Nd897 Nd 0.55779 0.56122 0.5765 0.0
C898 C 0.6102 0.64357 0.60369 0.0
C899 C 0.60701 0.66316 0.59126 0.0
C900 C 0.59047 0.67496 0.59624 0.0
C901 C 0.5867 0.69241 0.58321 0.0
C902 C 0.59946 0.69854 0.56501 0.0
C903 C 0.61594 0.68669 0.56006 0.0
C904 C 0.61973 0.66935 0.57307 0.0
C905 C 0.59573 0.57791 0.54539 0.0
C906 C 0.54031 0.60317 0.56514 0.0
C907 C 0.53813 0.51708 0.56256 0.0
C908 C 0.54275 0.49806 0.57492 0.0
C909 C 0.5516 0.48104 0.5625 0.0
C910 C 0.55846 0.46456 0.57505 0.0
C911 C 0.55673 0.46496 0.6003 0.0
C912 C 0.54781 0.48189 0.61268 0.0
C913 C 0.54089 0.49826 0.60016 0.0
C914 C 0.55018 0.58203 0.62239 0.0
C915 C 0.60697 0.55798 0.60558 0.0
O916 O 0.59414 0.63423 0.61452 0.0
O917 O 0.61829 0.62813 0.59141 0.0
O918 O 0.61093 0.5856 0.56512 0.0
O919 O 0.577 0.58089 0.55054 0.0
O920 O 0.5588 0.61295 0.58101 0.0
O921 O 0.53646 0.58123 0.55557 0.0
O922 O 0.55422 0.52731 0.55231 0.0
O923 O 0.52908 0.53171 0.5748 0.0
O924 O 0.53531 0.57342 0.60249 0.0
O925 O 0.56947 0.57994 0.61789 0.0
O926 O 0.58824 0.54746 0.59027 0.0
O927 O 0.61125 0.58028 0.61332 0.0
H928 H 0.5803 0.67062 0.61008 0.0
H929 H 0.57396 0.70125 0.58762 0.0
H930 H 0.62577 0.69057 0.5458 0.0
H931 H 0.63248 0.66056 0.56856 0.0
H932 H 0.55366 0.4808 0.54323 0.0
H933 H 0.56549 0.45177 0.5652 0.0
H934 H 0.54609 0.4824 0.63207 0.0
H935 H 0.53449 0.51133 0.61048 0.0
Nd936 Nd 0.10318 0.59366 0.09453 0.0
Nd937 Nd 0.05264 0.57187 0.09739 0.0
C938 C 0.14131 0.60494 0.07897 0.0
C939 C 0.16006 0.5939 0.08192 0.0
C940 C 0.16885 0.58612 0.06104 0.0
C941 C 0.1846 0.57288 0.06335 0.0
C942 C 0.19158 0.56717 0.08654 0.0
C943 C 0.18282 0.5751 0.10738 0.0
C944 C 0.16719 0.58827 0.10509 0.0
C945 C 0.09795 0.57571 0.13724 0.0
C946 C 0.07913 0.53853 0.07013 0.0
C947 C 1.01481 0.56134 0.11381 0.0
C948 C 0.99684 0.5737 0.1117 0.0
C949 C 0.98233 0.57399 0.12903 0.0
C950 C 0.96507 0.58545 0.12587 0.0
C951 C 0.96264 0.59703 0.10571 0.0
C952 C 0.978 0.59795 0.08949 0.0
C953 C 0.99481 0.58634 0.09243 0.0
C954 C 0.05521 0.59429 0.05655 0.0
C955 C 0.07551 0.62602 0.12117 0.0
O956 O 0.1232 0.59212 0.06429 0.0
O957 O 0.13727 0.61596 0.09954 0.0
O958 O 0.11449 0.59228 0.13554 0.0
O959 O 0.08613 0.56723 0.11584 0.0
O960 O 0.09625 0.55653 0.07275 0.0
O961 O 0.06095 0.53918 0.07975 0.0
O962 O 0.03345 0.5731 0.12845 0.0
O963 O 1.01809 0.55049 0.09263 0.0
O964 O 0.03679 0.58293 0.06138 0.0
O965 O 0.0707 0.59258 0.07269 0.0
O966 O 0.06196 0.60671 0.12307 0.0
O967 O 0.09148 0.62627 0.10764 0.0
H968 H 0.16317 0.58985 0.0429 0.0
H969 H 0.19114 0.56689 0.04703 0.0
H970 H 0.18825 0.57134 0.12558 0.0
H971 H 0.1604 0.59364 0.12144 0.0
H972 H 0.98388 0.56481 0.14441 0.0
H973 H 0.95301 0.58432 0.13831 0.0
H974 H 0.97603 0.60633 0.07348 0.0
H975 H 1.00568 0.58671 0.07897 0.0
C976 C 0.07911 0.27291 0.94682 0.0
C977 C 0.08348 0.29671 0.9553 0.0
C978 C 0.07945 0.2576 0.96376 0.0
C979 C 0.08471 0.26628 0.98984 0.0
C980 C 0.08894 0.2903 0.99852 0.0
C981 C 0.08818 0.30517 0.9812 0.0
C982 C 0.0743 0.23209 0.95373 0.0
C983 C 0.09481 0.3004 0.0261 0.0
C984 C 0.07151 0.22356 0.03356 0.0
C985 C 0.09211 0.21785 0.03927 0.0
C986 C 0.06891 0.23971 0.01803 0.0
C987 C 0.08731 0.25034 0.00783 0.0
C988 C 0.10826 0.24516 0.01418 0.0
C989 C 0.1104 0.22907 0.02977 0.0
C990 C 0.04638 0.24504 0.01215 0.0
C991 C 0.12842 0.25635 1.00414 0.0
H992 H 0.0751 0.26618 0.92692 0.0
H993 H 0.09158 0.32354 0.988 0.0
H994 H 0.08896 0.22525 0.95964 0.0
H995 H 0.06019 0.22299 0.96159 0.0
H996 H 0.06988 0.228 0.93302 0.0
H997 H 0.09467 0.31891 0.0299 0.0
H998 H 0.08299 0.29092 0.03648 0.0
H999 H 0.11174 0.29869 0.03359 0.0
H1000 H 0.05723 0.21495 0.04067 0.0
H1001 H 0.12651 0.22523 0.03451 0.0
H1002 H 0.03962 0.23935 0.99188 0.0
H1003 H 0.04803 0.26388 0.01657 0.0
H1004 H 0.03415 0.23642 0.02274 0.0
H1005 H 0.12518 0.25168 0.98345 0.0
H1006 H 0.1437 0.25108 0.01152 0.0
H1007 H 0.13162 0.27536 0.00907 0.0
C1008 C 0.14584 0.82802 0.25963 0.0
C1009 C 0.13143 0.82408 0.27711 0.0
C1010 C 0.16885 0.82843 0.2649 0.0
C1011 C 0.17854 0.82495 0.28851 0.0
C1012 C 0.16433 0.82133 0.3065 0.0
C1013 C 0.14112 0.82086 0.30064 0.0
C1014 C 0.18268 0.83203 0.24471 0.0
C1015 C 0.17366 0.8176 0.33193 0.0
C1016 C 0.23271 0.80323 0.28962 0.0
C1017 C 0.24982 0.82324 0.29941 0.0
C1018 C 0.20975 0.80338 0.28708 0.0
C1019 C 0.2032 0.82424 0.29374 0.0
C1020 C 0.22046 0.84455 0.3037 0.0
C1021 C 0.24338 0.84378 0.30661 0.0
C1022 C 0.19247 0.78118 0.27637 0.0
C1023 C 0.21476 0.86744 0.31012 0.0
H1024 H 0.13904 0.83041 0.24123 0.0
H1025 H 0.13053 0.8176 0.31438 0.0
H1026 H 0.19799 0.846 0.25201 0.0
H1027 H 0.18809 0.81612 0.23859 0.0
H1028 H 0.1733 0.83643 0.22812 0.0
H1029 H 0.16077 0.81502 0.34398 0.0
H1030 H 0.18088 0.80233 0.32998 0.0
H1031 H 0.1874 0.83265 0.34137 0.0
H1032 H 0.23734 0.78732 0.28349 0.0
H1033 H 0.25629 0.85952 0.3134 0.0
H1034 H 0.18387 0.78217 0.25763 0.0
H1035 H 0.17959 0.77838 0.28836 0.0
H1036 H 0.19996 0.76606 0.2745 0.0
H1037 H 0.20809 0.87273 0.29268 0.0
H1038 H 0.22954 0.88113 0.32018 0.0
H1039 H 0.20155 0.86603 0.32178 0.0
C1040 C 0.56392 0.91707 0.45267 0.0
C1041 C 0.58466 0.91143 0.45402 0.0
C1042 C 0.56066 0.93497 0.47012 0.0
C1043 C 0.5788 0.94806 0.48879 0.0
C1044 C 0.59991 0.94265 0.48993 0.0
C1045 C 0.60246 0.92409 0.47284 0.0
C1046 C 0.53778 0.93982 0.46863 0.0
C1047 C 0.61981 0.95652 0.50916 0.0
C1048 C 0.5785 1.00946 0.51547 0.0
C1049 C 0.57288 1.00754 0.539 0.0
C1050 C 0.58001 0.99017 0.49887 0.0
C1051 C 0.57612 0.96836 0.50605 0.0
C1052 C 0.57017 0.96623 0.52974 0.0
C1053 C 0.56835 0.98587 0.54587 0.0
C1054 C 0.58626 0.99327 0.47381 0.0
C1055 C 0.56605 0.9433 0.53814 0.0
H1056 H 0.55001 0.90692 0.43849 0.0
H1057 H 0.61845 0.91958 0.47402 0.0
H1058 H 0.53221 0.93943 0.48689 0.0
H1059 H 0.53847 0.95731 0.46447 0.0
H1060 H 0.52513 0.92717 0.45401 0.0
H1061 H 0.63527 0.9507 0.50692 0.0
H1062 H 0.6228 0.975 0.50774 0.0
H1063 H 0.61642 0.95514 0.52821 0.0
H1064 H 0.58175 0.02617 0.50997 0.0
H1065 H 0.56408 0.98439 0.5641 0.0
H1066 H 0.57335 0.98181 0.45855 0.0
H1067 H 0.60226 0.98837 0.47235 0.0
H1068 H 0.5881 1.01129 0.47081 0.0
H1069 H 0.55179 0.93098 0.52522 0.0
H1070 H 0.56234 0.94466 0.55741 0.0
H1071 H 0.58087 0.93598 0.5375 0.0
C1072 C 0.48542 0.28263 0.78414 0.0
C1073 C 0.49996 0.30081 0.77689 0.0
C1074 C 0.46315 0.2833 0.78703 0.0
C1075 C 0.4548 0.30291 0.78331 0.0
C1076 C 0.46943 0.32133 0.77602 0.0
C1077 C 0.49142 0.31993 0.77258 0.0
C1078 C 0.44839 0.26274 0.79383 0.0
C1079 C 0.46202 0.34292 0.77239 0.0
C1080 C 0.39088 0.30078 0.77439 0.0
C1081 C 0.3878 0.3087 0.79878 0.0
C1082 C 0.41219 0.29841 0.76912 0.0
C1083 C 0.43147 0.30471 0.78842 0.0
C1084 C 0.42837 0.31295 0.81296 0.0
C1085 C 0.40688 0.31451 0.8178 0.0
C1086 C 0.41398 0.28878 0.7428 0.0
C1087 C 0.44795 0.32036 0.83433 0.0
H1088 H 0.49133 0.2675 0.78716 0.0
H1089 H 0.50213 0.33414 0.7669 0.0
H1090 H 0.44289 0.26786 0.8117 0.0
H1091 H 0.43313 0.25608 0.77929 0.0
H1092 H 0.45696 0.24862 0.79571 0.0
H1093 H 0.47467 0.3553 0.76559 0.0
H1094 H 0.4461 0.33862 0.75885 0.0
H1095 H 0.45885 0.35146 0.79038 0.0
H1096 H 0.37651 0.29605 0.75942 0.0
H1097 H 0.40512 0.32078 0.83674 0.0
H1098 H 0.42022 0.27292 0.74261 0.0
H1099 H 0.42624 0.3013 0.73573 0.0
H1100 H 0.3977 0.28459 0.72984 0.0
H1101 H 0.45494 0.30543 0.83746 0.0
H1102 H 0.44326 0.32765 0.85201 0.0
H1103 H 0.4614 0.33348 0.82969 0.0
C1104 C 1.02229 0.84579 0.57902 0.0
C1105 C 0.03042 0.82926 0.58993 0.0
C1106 C 0.03521 0.86841 0.58358 0.0
C1107 C 0.05647 0.87406 0.59932 0.0
C1108 C 0.06442 0.85728 0.61069 0.0
C1109 C 0.05121 0.83491 0.60572 0.0
C1110 C 0.02636 0.88609 0.57117 0.0
C1111 C 0.08684 0.86288 0.62781 0.0
C1112 C 0.09448 0.92376 0.5824 0.0
C1113 C 0.08999 0.94205 0.59791 0.0
C1114 C 0.08496 0.90113 0.58399 0.0
C1115 C 0.07112 0.89703 0.60191 0.0
C1116 C 0.06901 0.91536 0.61984 0.0
C1117 C 0.07845 0.93791 0.61752 0.0
C1118 C 0.08751 0.88186 0.56458 0.0
C1119 C 0.05492 0.91133 0.6397 0.0
H1120 H 1.00604 0.841 0.56698 0.0
H1121 H 0.05717 0.82172 0.61409 0.0
H1122 H 0.02572 0.90078 0.5855 0.0
H1123 H 0.03775 0.89295 0.5588 0.0
H1124 H 1.00936 0.87886 0.55986 0.0
H1125 H 0.09058 0.84756 0.63479 0.0
H1126 H 0.10034 0.87001 0.61793 0.0
H1127 H 0.08718 0.87628 0.64406 0.0
H1128 H 0.10328 0.92702 0.56713 0.0
H1129 H 0.07518 0.95222 0.6296 0.0
H1130 H 0.07142 0.87465 0.55144 0.0
H1131 H 0.09177 0.86772 0.57348 0.0
H1132 H 0.10061 0.88783 0.55364 0.0
H1133 H 0.03702 0.9081 0.63128 0.0
H1134 H 0.05896 0.92647 0.65513 0.0
H1135 H 0.05726 0.89599 0.64758 0.0
C1136 C 0.53137 0.88628 0.96499 0.0
C1137 C 0.54788 0.87399 0.96619 0.0
C1138 C 0.5122 0.87834 0.94655 0.0
C1139 C 0.5104 0.85842 0.92847 0.0
C1140 C 0.52681 0.84562 0.93021 0.0
C1141 C 0.54526 0.85339 0.9495 0.0
C1142 C 0.49452 0.89195 0.94555 0.0
C1143 C 0.52583 0.82494 0.91061 0.0
C1144 C 0.45348 0.83613 0.88872 0.0
C1145 C 0.45568 0.84933 0.87001 0.0
C1146 C 0.4718 0.83753 0.90719 0.0
C1147 C 0.49246 0.85243 0.9065 0.0
C1148 C 0.49516 0.86391 0.88608 0.0
C1149 C 0.4765 0.86232 0.86802 0.0
C1150 C 0.46846 0.82504 0.92869 0.0
C1151 C 0.51709 0.87968 0.88456 0.0
H1152 H 0.53381 0.90236 0.9779 0.0
H1153 H 0.55855 0.84435 0.95031 0.0
H1154 H 0.49442 0.90024 0.92886 0.0
H1155 H 0.47774 0.88035 0.94382 0.0
H1156 H 0.4974 0.90557 0.96241 0.0
H1157 H 0.53883 0.81569 0.916 0.0
H1158 H 0.50919 0.81275 0.90713 0.0
H1159 H 0.52837 0.83064 0.89273 0.0
H1160 H 0.43706 0.82639 0.89016 0.0
H1161 H 0.4778 0.8727 0.85357 0.0
H1162 H 0.46821 0.8376 0.94548 0.0
H1163 H 0.48242 0.81686 0.93339 0.0
H1164 H 0.4525 0.81161 0.92451 0.0
H1165 H 0.5197 0.89609 0.89788 0.0
H1166 H 0.5174 0.88371 0.86553 0.0
H1167 H 0.53126 0.8719 0.88977 0.0
C1168 C 0.49009 0.18113 0.08142 0.0
C1169 C 0.49587 0.20198 0.07294 0.0
C1170 C 0.50356 0.16544 0.07953 0.0
C1171 C 0.52307 0.17111 0.06908 0.0
C1172 C 0.52752 0.19079 0.05803 0.0
C1173 C 0.51324 0.20555 0.05914 0.0
C1174 C 0.49826 0.14426 0.09117 0.0
C1175 C 0.54874 0.19766 0.04766 0.0
C1176 C 0.57334 0.15069 0.09347 0.0
C1177 C 0.57214 0.13233 0.07431 0.0
C1178 C 0.55715 0.16339 0.09226 0.0
C1179 C 0.53983 0.15754 0.07111 0.0
C1180 C 0.53916 0.13956 0.05129 0.0
C1181 C 0.55545 0.12704 0.05317 0.0
C1182 C 0.5581 0.18231 0.11396 0.0
C1183 C 0.5206 0.13286 0.02881 0.0
H1184 H 0.47663 0.17835 0.09202 0.0
H1185 H 0.51776 0.22153 0.05233 0.0
H1186 H 0.50158 0.12916 0.07957 0.0
H1187 H 0.50909 0.14733 0.10976 0.0
H1188 H 0.48057 0.14002 0.09379 0.0
H1189 H 0.54919 0.21298 0.03868 0.0
H1190 H 0.5634 0.20172 0.06302 0.0
H1191 H 0.5506 0.18321 0.0338 0.0
H1192 H 0.58582 0.1538 0.11028 0.0
H1193 H 0.5542 0.11205 0.03904 0.0
H1194 H 0.54215 0.1793 0.12116 0.0
H1195 H 0.56039 0.19911 0.10765 0.0
H1196 H 0.57194 0.18353 0.12961 0.0
H1197 H 0.50425 0.12782 0.03486 0.0
H1198 H 0.52252 0.11834 0.01505 0.0
H1199 H 0.52017 0.14781 0.0194 0.0
C1200 C 0.13018 0.36863 0.40866 0.0
C1201 C 0.14498 0.37407 0.4315 0.0
C1202 C 0.13618 0.35864 0.38691 0.0
C1203 C 0.15776 0.35452 0.38804 0.0
C1204 C 0.1735 0.36195 0.41066 0.0
C1205 C 0.16685 0.37161 0.43229 0.0
C1206 C 0.11871 0.35176 0.36339 0.0
C1207 C 0.19695 0.35859 0.41234 0.0
C1208 C 0.17031 0.30468 0.3474 0.0
C1209 C 0.18136 0.31579 0.33033 0.0
C1210 C 0.1614 0.31689 0.3655 0.0
C1211 C 0.16342 0.3407 0.36643 0.0
C1212 C 0.17161 0.35131 0.34733 0.0
C1213 C 0.18068 0.33877 0.32952 0.0
C1214 C 0.15042 0.30444 0.38407 0.0
C1215 C 0.17145 0.3761 0.34639 0.0
H1216 H 0.11335 0.37102 0.40798 0.0
H1217 H 0.1783 0.37587 0.45 0.0
H1218 H 0.12352 0.34128 0.34772 0.0
H1219 H 0.10277 0.34194 0.36738 0.0
H1220 H 0.11536 0.36757 0.35729 0.0
H1221 H 0.20769 0.36731 0.43057 0.0
H1222 H 0.19646 0.33995 0.40996 0.0
H1223 H 0.20473 0.36532 0.39711 0.0
H1224 H 0.16923 0.28656 0.3472 0.0
H1225 H 0.18837 0.34748 0.31598 0.0
H1226 H 0.13448 0.30928 0.38622 0.0
H1227 H 0.16151 0.30952 0.40262 0.0
H1228 H 0.14693 0.28545 0.37838 0.0
H1229 H 0.15471 0.37906 0.34787 0.0
H1230 H 0.1758 0.38115 0.32879 0.0
H1231 H 0.18328 0.38754 0.36261 0.0
C1232 C 0.99298 0.10393 0.24271 0.0
C1233 C 0.97147 0.08902 0.23838 0.0
C1234 C 1.00662 0.10526 0.22391 0.0
C1235 C 0.99936 0.09056 0.20006 0.0
C1236 C 0.97777 0.07523 0.19577 0.0
C1237 C 0.96411 0.07494 0.21457 0.0
C1238 C 0.02877 0.12274 0.22952 0.0
C1239 C 0.96925 0.05856 0.17134 0.0
C1240 C 1.02252 0.10361 0.14026 0.0
C1241 C 0.03815 0.09001 0.13802 0.0
C1242 C 1.01084 0.10483 0.16066 0.0
C1243 C 1.01391 0.09144 0.1795 0.0
C1244 C 0.03018 0.07812 0.17772 0.0
C1245 C 0.04216 0.07775 0.15734 0.0
C1246 C 0.99454 0.11998 0.1615 0.0
C1247 C 0.03423 0.06332 0.1968 0.0
H1248 H 0.99911 0.1149 0.2609 0.0
H1249 H 0.94785 0.06298 0.21089 0.0
H1250 H 0.0425 0.11405 0.22716 0.0
H1251 H 0.02895 0.13472 0.21606 0.0
H1252 H 0.03223 0.13292 0.24877 0.0
H1253 H 0.95241 0.04745 0.17074 0.0
H1254 H 0.96845 0.06806 0.15561 0.0
H1255 H 0.981 0.04741 0.16835 0.0
H1256 H 1.01892 0.11299 0.12545 0.0
H1257 H 0.05369 0.06674 0.15579 0.0
H1258 H 0.997 0.13046 0.18046 0.0
H1259 H 0.97722 0.10911 0.15726 0.0
H1260 H 0.99628 0.13172 0.14778 0.0
H1261 H 0.04007 0.07419 0.21565 0.0
H1262 H 0.04684 0.05348 0.19271 0.0
H1263 H 1.01836 0.051 0.19737 0.0
C1264 C 0.34997 0.78674 0.4926 0.0
C1265 C 0.36392 0.77141 0.49374 0.0
C1266 C 0.34271 0.79328 0.47002 0.0
C1267 C 0.34943 0.78419 0.4479 0.0
C1268 C 0.36364 0.76881 0.44889 0.0
C1269 C 0.37084 0.7627 0.47185 0.0
C1270 C 0.32764 0.80977 0.46981 0.0
C1271 C 0.37128 0.75886 0.42572 0.0
C1272 C 0.31555 0.78644 0.38528 0.0
C1273 C 0.32773 0.80684 0.37987 0.0
C1274 C 0.32229 0.77887 0.40748 0.0
C1275 C 0.34216 0.79153 0.42399 0.0
C1276 C 0.3548 0.81179 0.4181 0.0
C1277 C 0.34719 0.81943 0.39637 0.0
C1278 C 0.30811 0.75743 0.41332 0.0
C1279 C 0.37647 0.82534 0.43465 0.0
H1280 H 0.34449 0.7935 0.5094 0.0
H1281 H 0.38141 0.75065 0.47252 0.0
H1282 H 0.33577 0.8255 0.46338 0.0
H1283 H 0.31183 0.80174 0.45646 0.0
H1284 H 0.32358 0.81494 0.48853 0.0
H1285 H 0.38034 0.74536 0.42906 0.0
H1286 H 0.35682 0.75133 0.41034 0.0
H1287 H 0.38255 0.77279 0.4193 0.0
H1288 H 0.30063 0.77661 0.37234 0.0
H1289 H 0.35691 0.83494 0.39184 0.0
H1290 H 0.30294 0.76147 0.43165 0.0
H1291 H 0.31796 0.74431 0.41478 0.0
H1292 H 0.29289 0.74989 0.39886 0.0
H1293 H 0.37328 0.83215 0.4533 0.0
H1294 H 0.38492 0.83999 0.42668 0.0
H1295 H 0.38802 0.81394 0.43746 0.0
C1296 C 0.63597 1.01006 0.73905 0.0
C1297 C 0.62377 1.00933 0.75868 0.0
C1298 C 0.62829 0.01737 0.71704 0.0
C1299 C 0.60761 0.02371 0.71414 0.0
C1300 C 0.59451 0.02164 0.73316 0.0
C1301 C 0.6028 0.01465 0.75525 0.0
C1302 C 0.64304 0.01967 0.69752 0.0
C1303 C 0.57215 0.02772 0.73062 0.0
C1304 C 0.60513 0.06813 0.67219 0.0
C1305 C 0.59424 0.05441 0.64911 0.0
C1306 C 0.60846 0.0585 0.69375 0.0
C1307 C 0.60094 0.03442 0.69224 0.0
C1308 C 0.58902 0.0206 0.66919 0.0
C1309 C 0.58574 0.03077 0.6479 0.0
C1310 C 0.6209 0.07404 0.71793 0.0
C1311 C 0.5806 0.99492 0.6667 0.0
H1312 H 0.65228 1.00624 0.74143 0.0
H1313 H 0.59319 0.01416 0.77022 0.0
H1314 H 0.63349 1.01059 0.67886 0.0
H1315 H 0.64881 0.03811 0.6964 0.0
H1316 H 0.65795 1.01267 0.70175 0.0
H1317 H 0.56378 0.02478 0.74682 0.0
H1318 H 0.57428 0.04606 0.72888 0.0
H1319 H 0.56104 0.01727 0.71334 0.0
H1320 H 0.61147 0.08647 0.67334 0.0
H1321 H 0.57719 0.02008 0.63014 0.0
H1322 H 0.63741 0.07018 0.72292 0.0
H1323 H 0.61161 0.07092 0.73336 0.0
H1324 H 0.62362 0.09255 0.71663 0.0
H1325 H 0.59497 0.98679 0.6675 0.0
H1326 H 0.56892 0.98715 0.64881 0.0
H1327 H 0.57201 0.99081 0.6824 0.0
C1328 C 0.36277 0.44078 0.06911 0.0
C1329 C 0.35039 0.45408 0.08132 0.0
C1330 C 0.35345 0.42656 0.04607 0.0
C1331 C 0.33102 0.42532 0.03549 0.0
C1332 C 0.31856 0.43905 0.04755 0.0
C1333 C 0.32855 0.45357 0.07038 0.0
C1334 C 0.36749 0.41257 0.03332 0.0
C1335 C 0.29448 0.43763 0.03703 0.0
C1336 C 0.32294 0.40117 0.96785 0.0
C1337 C 0.31811 0.37771 0.96877 0.0
C1338 C 0.32457 0.41737 0.98924 0.0
C1339 C 0.3211 0.40958 0.01167 0.0
C1340 C 0.31312 0.38583 0.01166 0.0
C1341 C 0.31188 0.36996 0.98998 0.0
C1342 C 0.33314 0.44255 0.9886 0.0
C1343 C 0.30872 0.37708 0.03522 0.0
H1344 H 0.37969 0.44134 0.07775 0.0
H1345 H 0.31893 0.46367 0.08022 0.0
H1346 H 0.36007 0.39395 0.03192 0.0
H1347 H 0.36783 0.41586 0.01405 0.0
H1348 H 0.38497 0.41659 0.04354 0.0
H1349 H 0.28844 0.45209 0.04635 0.0
H1350 H 0.29212 0.43758 0.01665 0.0
H1351 H 0.28392 0.42124 0.03977 0.0
H1352 H 0.32766 0.40683 0.95111 0.0
H1353 H 0.30817 0.35168 0.99036 0.0
H1354 H 0.35114 0.44806 0.99709 0.0
H1355 H 0.32424 0.45329 0.99962 0.0
H1356 H 0.33129 0.44594 0.9692 0.0
H1357 H 0.32484 0.37712 0.04678 0.0
H1358 H 0.29813 0.35921 0.03102 0.0
H1359 H 0.30044 0.38836 0.04645 0.0
C1360 C 0.97794 0.07023 0.39297 0.0
C1361 C 0.98583 0.0864 0.37854 0.0
C1362 C 0.98856 0.07163 0.4177 0.0
C1363 C 1.00797 0.08939 0.42824 0.0
C1364 C 1.01585 0.106 0.41377 0.0
C1365 C 1.00459 0.1044 0.38914 0.0
C1366 C 0.97924 0.05375 0.43236 0.0
C1367 C 0.03669 0.12492 0.42391 0.0
C1368 C 0.02742 0.10021 0.49938 0.0
C1369 C 0.04267 0.08629 0.50169 0.0
C1370 C 1.01625 0.10172 0.47568 0.0
C1371 C 1.02075 0.08944 0.45364 0.0
C1372 C 0.03678 0.07609 0.45593 0.0
C1373 C 0.04731 0.0745 0.47978 0.0
C1374 C 0.99914 0.11595 0.47424 0.0
C1375 C 0.04256 0.06307 0.43312 0.0
H1376 H 0.96343 0.05629 0.38476 0.0
H1377 H 1.01083 0.11682 0.37793 0.0
H1378 H 0.99138 0.04319 0.4363 0.0
H1379 H 0.97656 0.06225 0.45061 0.0
H1380 H 0.96317 0.04209 0.42221 0.0
H1381 H 0.03924 0.13792 0.41163 0.0
H1382 H 0.03599 0.13373 0.44285 0.0
H1383 H 0.05142 0.11734 0.42565 0.0
H1384 H 1.02367 0.10935 0.51613 0.0
H1385 H 0.05925 0.06391 0.48123 0.0
H1386 H 0.98249 0.10469 0.46544 0.0
H1387 H 1.00338 0.12892 0.4623 0.0
H1388 H 0.99796 0.12497 0.49294 0.0
H1389 H 0.02776 0.04943 0.4231 0.0
H1390 H 0.05655 0.05489 0.43793 0.0
H1391 H 0.04724 0.07483 0.42004 0.0
C1392 C 0.36555 0.75003 0.6436 0.0
C1393 C 0.38016 0.76416 0.63187 0.0
C1394 C 0.3572 0.75925 0.66424 0.0
C1395 C 0.36425 0.78316 0.67407 0.0
C1396 C 0.37966 0.79739 0.66282 0.0
C1397 C 0.38703 0.78782 0.64146 0.0
C1398 C 0.34008 0.74351 0.67481 0.0
C1399 C 0.38821 0.82277 0.67326 0.0
C1400 C 0.32661 0.81049 0.71196 0.0
C1401 C 0.33623 0.81035 0.73657 0.0
C1402 C 0.33569 0.80195 0.6915 0.0
C1403 C 0.35504 0.79328 0.6957 0.0
C1404 C 0.36512 0.7936 0.72055 0.0
C1405 C 0.35558 0.80206 0.74062 0.0
C1406 C 0.32409 0.80145 0.66534 0.0
C1407 C 0.38558 0.78433 0.72596 0.0
H1408 H 0.35974 0.73181 0.6358 0.0
H1409 H 0.39815 0.79878 0.63229 0.0
H1410 H 0.34554 0.74493 0.69517 0.0
H1411 H 0.32403 0.74875 0.67219 0.0
H1412 H 0.33705 0.7252 0.66568 0.0
H1413 H 0.4008 0.83133 0.66306 0.0
H1414 H 0.37413 0.83132 0.67226 0.0
H1415 H 0.39587 0.82536 0.69326 0.0
H1416 H 0.31153 0.81661 0.70861 0.0
H1417 H 0.363 0.80163 0.75954 0.0
H1418 H 0.31843 0.78341 0.65506 0.0
H1419 H 0.3359 0.81098 0.65499 0.0
H1420 H 0.3094 0.8091 0.6652 0.0
H1421 H 0.38102 0.76535 0.71997 0.0
H1422 H 0.393 0.78844 0.74616 0.0
H1423 H 0.39843 0.79144 0.71526 0.0
C1424 C 0.60286 0.01687 0.90441 0.0
C1425 C 0.62416 0.0273 0.90068 0.0
C1426 C 0.59625 0.02192 0.92766 0.0
C1427 C 0.61118 0.03811 0.94739 0.0
C1428 C 0.63284 0.0485 0.94364 0.0
C1429 C 0.63908 0.04288 0.92034 0.0
C1430 C 0.57314 1.01026 0.93096 0.0
C1431 C 0.64924 0.06594 0.96404 0.0
C1432 C 0.58655 0.06898 0.99826 0.0
C1433 C 0.59154 0.05794 0.01822 0.0
C1434 C 0.59304 0.06284 0.97518 0.0
C1435 C 0.60404 0.04466 0.97175 0.0
C1436 C 0.60859 0.03312 0.99178 0.0
C1437 C 0.60255 0.04011 0.01485 0.0
C1438 C 0.58857 0.07613 0.95464 0.0
C1439 C 0.61966 1.01325 0.98881 0.0
H1440 H 0.59129 1.00502 0.88904 0.0
H1441 H 0.65548 0.05112 0.91724 0.0
H1442 H 0.57417 1.002 0.94766 0.0
H1443 H 0.56322 0.02325 0.93414 0.0
H1444 H 0.56411 0.997 0.91443 0.0
H1445 H 0.66519 0.07289 0.95791 0.0
H1446 H 0.64183 0.08048 0.97016 0.0
H1447 H 0.65296 0.05796 0.98054 0.0
H1448 H 0.57815 0.08286 1.00094 0.0
H1449 H 0.6061 0.03135 0.03021 0.0
H1450 H 0.57817 0.06431 0.93776 0.0
H1451 H 0.60457 0.08424 0.94937 0.0
H1452 H 0.57993 0.08981 0.96028 0.0
H1453 H 0.60897 0.99903 0.97415 0.0
H1454 H 0.62263 1.00656 0.00642 0.0
H1455 H 0.63588 0.0186 0.98261 0.0
C1456 C 0.34574 0.45411 0.22997 0.0
C1457 C 0.3385 0.45384 0.20469 0.0
C1458 C 0.33899 0.43436 0.24022 0.0
C1459 C 0.32478 0.41423 0.22468 0.0
C1460 C 0.31597 0.41468 0.19975 0.0
C1461 C 0.32291 0.43453 0.19008 0.0
C1462 C 0.34826 0.43449 0.26711 0.0
C1463 C 0.30048 0.3937 0.18279 0.0
C1464 C 0.33375 0.35782 0.24047 0.0
C1465 C 0.31628 0.35153 0.25342 0.0
C1466 C 0.3363 0.37796 0.23038 0.0
C1467 C 0.32105 0.39204 0.23348 0.0
C1468 C 0.30245 0.38487 0.24489 0.0
C1469 C 0.3001 0.36447 0.2544 0.0
C1470 C 0.35599 0.38478 0.21758 0.0
C1471 C 0.28593 0.39948 0.24874 0.0
H1472 H 0.35776 0.46908 0.24119 0.0
H1473 H 0.317 0.43454 0.17057 0.0
H1474 H 0.33472 0.4271 0.27681 0.0
H1475 H 0.36047 0.42359 0.26783 0.0
H1476 H 0.35679 0.45213 0.27741 0.0
H1477 H 0.29402 0.3974 0.16433 0.0
H1478 H 0.30947 0.37985 0.17969 0.0
H1479 H 0.28609 0.38698 0.19164 0.0
H1480 H 0.3462 0.3478 0.23959 0.0
H1481 H 0.28647 0.35964 0.26435 0.0
H1482 H 0.36726 0.40113 0.2283 0.0
H1483 H 0.35018 0.38783 0.19863 0.0
H1484 H 0.36575 0.37146 0.21583 0.0
H1485 H 0.29375 0.41442 0.26402 0.0
H1486 H 0.27053 0.38971 0.25395 0.0
H1487 H 0.28118 0.40635 0.23169 0.0
C1488 C 0.17482 0.96457 0.09223 0.0
C1489 C 0.19764 0.97399 0.09349 0.0
C1490 C 0.15977 0.97886 0.09446 0.0
C1491 C 0.16755 1.00305 0.09665 0.0
C1492 C 0.1906 1.01251 0.09752 0.0
C1493 C 0.2054 0.99793 0.09659 0.0
C1494 C 0.13549 0.96792 0.09407 0.0
C1495 C 0.19955 0.03795 0.09859 0.0
C1496 C 0.12433 0.03398 0.07214 0.0
C1497 C 0.12058 0.04656 0.09403 0.0
C1498 C 0.13997 0.02044 0.07275 0.0
C1499 C 0.15146 0.01826 0.09602 0.0
C1500 C 0.14751 0.03064 0.11836 0.0
C1501 C 0.13244 0.04507 0.11709 0.0
C1502 C 0.14417 1.00852 0.04835 0.0
C1503 C 0.15846 0.02781 0.14359 0.0
H1504 H 0.16881 0.94607 0.08995 0.0
H1505 H 0.22305 1.0052 0.0974 0.0
H1506 H 0.12826 0.97871 0.10723 0.0
H1507 H 0.12582 0.96609 0.07506 0.0
H1508 H 0.13328 0.95051 0.09899 0.0
H1509 H 0.21765 0.0424 0.09773 0.0
H1510 H 0.19033 0.04359 0.0828 0.0
H1511 H 0.19694 0.04787 0.1161 0.0
H1512 H 0.11489 0.0347 0.05431 0.0
H1513 H 0.12919 0.05432 0.13408 0.0
H1514 H 0.13869 0.98961 0.04671 0.0
H1515 H 0.16231 1.01277 0.04777 0.0
H1516 H 0.13516 0.01349 0.0319 0.0
H1517 H 0.15269 1.00968 0.14588 0.0
H1518 H 0.15447 0.03928 0.15914 0.0
H1519 H 0.17685 0.03144 0.14499 0.0
C1520 C 0.72858 0.60925 0.01893 0.0
C1521 C 0.72502 0.61222 0.99403 0.0
C1522 C 0.71107 0.60656 0.03238 0.0
C1523 C 0.68939 0.60619 0.02032 0.0
C1524 C 0.68558 0.60853 0.9949 0.0
C1525 C 0.70366 0.61202 0.98211 0.0
C1526 C 0.7159 0.60465 0.0596 0.0
C1527 C 0.66255 0.60799 0.98152 0.0
C1528 C 0.64011 0.57967 0.04826 0.0
C1529 C 0.63594 0.59915 0.06205 0.0
C1530 C 0.65782 0.58166 0.035 0.0
C1531 C 0.67081 0.60379 0.03454 0.0
C1532 C 0.66635 0.6236 0.0481 0.0
C1533 C 0.6492 0.62097 0.06219 0.0
C1534 C 0.66273 0.56014 0.02163 0.0
C1535 C 0.67971 0.64751 0.04781 0.0
H1536 H 0.74538 0.61015 0.02826 0.0
H1537 H 0.7012 0.61488 0.96303 0.0
H1538 H 0.70998 0.61786 0.0713 0.0
H1539 H 0.70672 0.58757 0.06227 0.0
H1540 H 0.73399 0.60681 0.06653 0.0
H1541 H 0.6623 0.60937 0.96157 0.0
H1542 H 0.65067 0.59175 0.98252 0.0
H1543 H 0.65647 0.62239 0.99085 0.0
H1544 H 0.62969 0.56286 0.04806 0.0
H1545 H 0.6457 0.63603 0.07268 0.0
H1546 H 0.68006 0.5594 0.02884 0.0
H1547 H 0.66153 0.56048 1.00139 0.0
H1548 H 0.65111 0.54422 0.02404 0.0
H1549 H 0.69703 0.64997 0.05785 0.0
H1550 H 0.67237 0.66108 0.05683 0.0
H1551 H 0.68072 0.64986 0.02834 0.0
C1552 C 0.77221 0.4879 0.31056 0.0
C1553 C 0.75686 0.49265 0.3261 0.0
C1554 C 0.77952 0.46686 0.30824 0.0
C1555 C 0.77141 0.44909 0.32145 0.0
C1556 C 0.75564 0.45361 0.33694 0.0
C1557 C 0.74883 0.47498 0.33918 0.0
C1558 C 0.79612 0.46362 0.29138 0.0
C1559 C 0.74604 0.43593 0.35163 0.0
C1560 C 0.77691 0.3857 0.29906 0.0
C1561 C 0.79693 0.38446 0.31387 0.0
C1562 C 0.7686 0.40618 0.30115 0.0
C1563 C 0.77977 0.42634 0.3193 0.0
C1564 C 0.79945 0.42471 0.33503 0.0
C1565 C 0.80789 0.40438 0.33183 0.0
C1566 C 0.7477 0.40621 0.28367 0.0
C1567 C 0.81159 0.44453 0.35573 0.0
H1568 H 0.77873 0.50084 0.30008 0.0
H1569 H 0.73692 0.47773 0.3512 0.0
H1570 H 0.8114 0.46092 0.30233 0.0
H1571 H 0.78894 0.44799 0.27678 0.0
H1572 H 0.80093 0.47861 0.28214 0.0
H1573 H 0.7313 0.43976 0.3591 0.0
H1574 H 0.74104 0.41845 0.33995 0.0
H1575 H 0.75898 0.43566 0.36758 0.0
H1576 H 0.76784 0.37068 0.28531 0.0
H1577 H 0.82296 0.4039 0.34403 0.0
H1578 H 0.75111 0.42057 0.27324 0.0
H1579 H 0.73453 0.40909 0.29454 0.0
H1580 H 0.74121 0.38979 0.27005 0.0
H1581 H 0.81787 0.45994 0.34772 0.0
H1582 H 0.82588 0.44055 0.36729 0.0
H1583 H 0.79988 0.44898 0.36804 0.0
C1584 C 0.82935 0.45272 0.58305 0.0
C1585 C 0.81202 0.46354 0.58697 0.0
C1586 C 0.85155 0.46522 0.58792 0.0
C1587 C 0.85651 0.48923 0.59654 0.0
C1588 C 0.83927 0.50018 0.60156 0.0
C1589 C 0.81709 0.4871 0.59689 0.0
C1590 C 0.86955 0.45285 0.58277 0.0
C1591 C 0.84415 0.52582 0.61071 0.0
C1592 C 0.91788 0.51927 0.61652 0.0
C1593 C 0.92262 0.526 0.59425 0.0
C1594 C 0.89609 0.50783 0.61798 0.0
C1595 C 0.87912 0.50308 0.59657 0.0
C1596 C 0.88403 0.51014 0.57415 0.0
C1597 C 0.9058 0.52159 0.57332 0.0
C1598 C 0.89138 0.50028 0.64205 0.0
C1599 C 0.86649 0.50491 0.55077 0.0
H1600 H 0.82559 0.43433 0.57615 0.0
H1601 H 0.80373 0.49537 0.60034 0.0
H1602 H 0.87684 0.45852 0.56679 0.0
H1603 H 0.88325 0.45717 0.59917 0.0
H1604 H 0.86305 0.43385 0.57824 0.0
H1605 H 0.82942 0.53126 0.61652 0.0
H1606 H 0.85829 0.53133 0.6267 0.0
H1607 H 0.84918 0.53494 0.59556 0.0
H1608 H 0.9312 0.52267 0.63254 0.0
H1609 H 0.90985 0.52673 0.55611 0.0
H1610 H 0.88721 0.48121 0.63931 0.0
H1611 H 0.87672 0.506 0.64761 0.0
H1612 H 0.90589 0.50716 0.65756 0.0
H1613 H 0.86079 0.48602 0.54423 0.0
H1614 H 0.87284 0.5128 0.53537 0.0
H1615 H 0.85171 0.51129 0.55478 0.0
C1616 C 0.40449 0.18953 0.31422 0.0
C1617 C 0.42163 0.19405 0.30034 0.0
C1618 C 0.38666 0.2004 0.31199 0.0
C1619 C 0.38656 0.2171 0.29641 0.0
C1620 C 0.40405 0.22184 0.28258 0.0
C1621 C 0.42096 0.20969 0.28406 0.0
C1622 C 0.36845 0.19422 0.32698 0.0
C1623 C 0.40547 0.24035 0.2669 0.0
C1624 C 0.33828 0.2453 0.27898 0.0
C1625 C 0.34365 0.2646 0.29824 0.0
C1626 C 0.35141 0.22886 0.27864 0.0
C1627 C 0.37048 0.23221 0.29761 0.0
C1628 C 0.37526 0.2512 0.31743 0.0
C1629 C 0.36156 0.26661 0.31778 0.0
C1630 C 0.34512 0.20814 0.25787 0.0
C1631 C 0.39538 0.25589 0.33804 0.0
H1632 H 0.40476 0.1771 0.32651 0.0
H1633 H 0.43413 0.21304 0.27315 0.0
H1634 H 0.35296 0.19927 0.31996 0.0
H1635 H 0.36426 0.17539 0.32675 0.0
H1636 H 0.37456 0.20286 0.34675 0.0
H1637 H 0.4225 0.24568 0.26282 0.0
H1638 H 0.39365 0.23369 0.24897 0.0
H1639 H 0.40111 0.25586 0.27637 0.0
H1640 H 0.32426 0.24329 0.26407 0.0
H1641 H 0.36538 0.28075 0.33349 0.0
H1642 H 0.34678 0.19241 0.26534 0.0
H1643 H 0.35657 0.21055 0.24425 0.0
H1644 H 0.32774 0.20546 0.24779 0.0
H1645 H 0.39294 0.24257 0.34987 0.0
H1646 H 0.39824 0.27298 0.35026 0.0
H1647 H 0.41067 0.25519 0.33004 0.0
C1648 C 0.35815 0.12769 0.51986 0.0
C1649 C 0.3392 0.11166 0.52281 0.0
C1650 C 0.37921 0.12907 0.53377 0.0
C1651 C 0.38132 0.1138 0.55059 0.0
C1652 C 0.36214 0.09823 0.55434 0.0
C1653 C 0.34131 0.09734 0.54038 0.0
C1654 C 0.39928 0.14646 0.53011 0.0
C1655 C 0.36374 0.08198 0.5725 0.0
C1656 C 0.43302 0.09105 0.55662 0.0
C1657 C 0.44372 0.1014 0.58095 0.0
C1658 C 0.41298 0.09553 0.54643 0.0
C1659 C 0.40364 0.11109 0.56086 0.0
C1660 C 0.41478 0.12225 0.58529 0.0
C1661 C 0.43477 0.11706 0.59522 0.0
C1662 C 0.40137 0.08287 0.52055 0.0
C1663 C 0.40576 0.13965 0.60083 0.0
H1664 H 0.3565 0.13939 0.50696 0.0
H1665 H 0.32664 0.08534 0.54322 0.0
H1666 H 0.40891 0.15626 0.54848 0.0
H1667 H 0.41053 0.13745 0.52086 0.0
H1668 H 0.39451 0.15878 0.51852 0.0
H1669 H 0.34707 0.07195 0.57437 0.0
H1670 H 0.37365 0.06975 0.56615 0.0
H1671 H 0.37254 0.09173 0.59122 0.0
H1672 H 0.44005 0.07879 0.54582 0.0
H1673 H 0.44334 0.1251 0.61402 0.0
H1674 H 0.3985 0.09531 0.50827 0.0
H1675 H 0.38479 0.07207 0.52152 0.0
H1676 H 0.41113 0.07158 0.51174 0.0
H1677 H 0.40894 0.15599 0.59357 0.0
H1678 H 0.4139 0.14331 0.62079 0.0
H1679 H 0.38745 0.13372 0.5996 0.0
C1680 C 0.74243 0.65007 0.35497 0.0
C1681 C 0.75208 0.63174 0.34673 0.0
C1682 C 0.75088 0.6733 0.35208 0.0
C1683 C 0.76982 0.67943 0.34044 0.0
C1684 C 0.77996 0.66116 0.33249 0.0
C1685 C 0.77113 0.63795 0.33561 0.0
C1686 C 0.73899 0.69131 0.36112 0.0
C1687 C 0.80016 0.6661 0.32019 0.0
C1688 C 0.77578 0.73471 0.30989 0.0
C1689 C 0.7927 0.7517 0.32667 0.0
C1690 C 0.76887 0.71153 0.31375 0.0
C1691 C 0.7782 0.70443 0.33563 0.0
C1692 C 0.79506 0.72163 0.35294 0.0
C1693 C 0.80227 0.74458 0.34814 0.0
C1694 C 0.75126 0.69454 0.29421 0.0
C1695 C 0.80505 0.71604 0.37717 0.0
H1696 H 0.7277 0.64623 0.36344 0.0
H1697 H 0.77902 0.62453 0.32888 0.0
H1698 H 0.75116 0.70681 0.37245 0.0
H1699 H 0.73029 0.69673 0.34484 0.0
H1700 H 0.72644 0.68486 0.3725 0.0
H1701 H 0.80604 0.65038 0.31443 0.0
H1702 H 0.79622 0.67377 0.30348 0.0
H1703 H 0.81397 0.67889 0.33326 0.0
H1704 H 0.7679 0.73952 0.29329 0.0
H1705 H 0.81492 0.75722 0.36177 0.0
H1706 H 0.73594 0.68916 0.3021 0.0
H1707 H 0.7572 0.67886 0.28851 0.0
H1708 H 0.74682 0.70183 0.27734 0.0
H1709 H 0.79187 0.71226 0.38866 0.0
H1710 H 0.8188 0.73041 0.38813 0.0
H1711 H 0.81151 0.70039 0.37354 0.0
C1712 C 0.94488 0.57056 0.82079 0.0
C1713 C 0.93622 0.58916 0.82943 0.0
C1714 C 0.93183 0.54806 0.81639 0.0
C1715 C 0.90988 0.54419 0.82149 0.0
C1716 C 0.90071 0.56299 0.82923 0.0
C1717 C 0.91399 0.58546 0.83278 0.0
C1718 C 0.94189 0.52843 0.80739 0.0
C1719 C 0.87744 0.55933 0.83523 0.0
C1720 C 0.87163 0.48436 0.80333 0.0
C1721 C 0.87564 0.476 0.82554 0.0
C1722 C 0.88285 0.5066 0.80148 0.0
C1723 C 0.89795 0.52061 0.8225 0.0
C1724 C 0.90206 0.51209 0.84486 0.0
C1725 C 0.89096 0.48978 0.84601 0.0
C1726 C 0.87867 0.51505 0.77717 0.0
C1727 C 0.91807 0.5266 0.86768 0.0
H1728 H 0.96194 0.57362 0.81749 0.0
H1729 H 0.90736 0.60001 0.83916 0.0
H1730 H 0.94423 0.51833 0.82241 0.0
H1731 H 0.93046 0.5166 0.79116 0.0
H1732 H 0.95834 0.53455 0.8019 0.0
H1733 H 0.87202 0.57568 0.83851 0.0
H1734 H 0.86528 0.54713 0.81985 0.0
H1735 H 0.87696 0.5516 0.85229 0.0
H1736 H 0.85983 0.47349 0.78749 0.0
H1737 H 0.89379 0.48329 0.86323 0.0
H1738 H 0.89443 0.51889 0.76968 0.0
H1739 H 0.87312 0.5313 0.7803 0.0
H1740 H 0.86587 0.50223 0.76286 0.0
H1741 H 0.93523 0.5308 0.86348 0.0
H1742 H 0.91835 0.51775 0.88399 0.0
H1743 H 0.91338 0.54311 0.87294 0.0
C1744 C 0.04822 0.87276 0.17836 0.0
C1745 C 0.06719 0.86428 0.18373 0.0
C1746 C 0.0478 0.88886 0.16247 0.0
C1747 C 0.06706 0.89713 0.15234 0.0
C1748 C 0.08641 0.88889 0.15811 0.0
C1749 C 0.08612 0.87228 0.17345 0.0
C1750 C 0.02667 0.89684 0.1563 0.0
C1751 C 0.10748 0.89783 0.14836 0.0
C1752 C 0.05576 0.92394 0.09515 0.0
C1753 C 0.05924 0.94708 0.1061 0.0
C1754 C 0.05948 0.90754 0.10982 0.0
C1755 C 0.0668 0.91461 0.13597 0.0
C1756 C 0.07176 0.93827 0.14676 0.0
C1757 C 0.06775 0.95424 0.13166 0.0
C1758 C 0.05424 0.88251 0.0976 0.0
C1759 C 0.07996 0.94658 0.17446 0.0
H1760 H 0.03353 0.8664 0.18614 0.0
H1761 H 0.10089 0.86584 0.17778 0.0
H1762 H 0.03005 0.91578 0.16222 0.0
H1763 H 1.02072 0.89286 0.13579 0.0
H1764 H 1.01309 0.88859 0.16549 0.0
H1765 H 0.12099 0.88936 0.15425 0.0
H1766 H 0.10399 0.8951 0.12766 0.0
H1767 H 0.11359 0.91665 0.15526 0.0
H1768 H 0.04913 0.91854 0.07533 0.0
H1769 H 0.07039 0.97222 0.14001 0.0
H1770 H 0.03929 0.87292 0.10375 0.0
H1771 H 0.06826 0.87473 0.10339 0.0
H1772 H 0.05089 0.88014 0.07688 0.0
H1773 H 0.06606 0.94147 0.18464 0.0
H1774 H 0.08624 0.96559 0.17924 0.0
H1775 H 0.0935 0.93853 0.18124 0.0
C1776 C 0.99637 0.31524 0.86624 0.0
C1777 C 1.01291 0.33507 0.86573 0.0
C1778 C 0.97307 0.31387 0.85937 0.0
C1779 C 0.96553 0.33266 0.85126 0.0
C1780 C 0.98225 0.35266 0.85058 0.0
C1781 C 1.00537 0.35371 0.85807 0.0
C1782 C 0.95643 0.29255 0.86182 0.0
C1783 C 0.97566 0.37348 0.8428 0.0
C1784 C 0.90501 0.32418 0.81398 0.0
C1785 C 0.89401 0.33414 0.83178 0.0
C1786 C 0.92789 0.32325 0.82006 0.0
C1787 C 0.94041 0.33202 0.84472 0.0
C1788 C 0.92894 0.34114 0.86293 0.0
C1789 C 0.90636 0.34235 0.85622 0.0
C1790 C 0.93899 0.3136 0.79972 0.0
C1791 C 0.94047 0.34965 0.88978 0.0
H1792 H 1.00164 0.30106 0.87322 0.0
H1793 H 1.01766 0.36955 0.8586 0.0
H1794 H 0.94477 0.29725 0.87405 0.0
H1795 H 0.94628 0.28411 0.84325 0.0
H1796 H 0.96465 0.27995 0.86969 0.0
H1797 H 0.99034 0.38693 0.84109 0.0
H1798 H 0.96397 0.36842 0.82464 0.0
H1799 H 0.96681 0.38105 0.85681 0.0
H1800 H 0.89607 0.31803 0.79498 0.0
H1801 H 0.89829 0.35003 0.87034 0.0
H1802 H 0.9459 0.29927 0.8052 0.0
H1803 H 0.95321 0.32711 0.79713 0.0
H1804 H 0.92728 0.30718 0.78163 0.0
H1805 H 0.94363 0.33482 0.89818 0.0
H1806 H 0.93031 0.35846 0.90115 0.0
H1807 H 0.9569 0.36169 0.89094 0.0
C1808 C 0.54848 0.21998 0.70152 0.0
C1809 C 0.55629 0.24139 0.69491 0.0
C1810 C 0.5505 0.19954 0.68705 0.0
C1811 C 0.56094 0.20066 0.66581 0.0
C1812 C 0.56848 0.22215 0.65884 0.0
C1813 C 0.56585 0.24216 0.67326 0.0
C1814 C 0.54206 0.17684 0.69488 0.0
C1815 C 0.57994 0.22412 0.63651 0.0
C1816 C 0.58774 0.15266 0.64241 0.0
C1817 C 0.57118 0.13976 0.62254 0.0
C1818 C 0.58447 0.17237 0.65699 0.0
C1819 C 0.56441 0.17947 0.65101 0.0
C1820 C 0.54792 0.16667 0.63046 0.0
C1821 C 0.55138 0.14671 0.61671 0.0
C1822 C 0.60228 0.18538 0.67898 0.0
C1823 C 0.52656 0.17391 0.62311 0.0
H1824 H 0.54116 0.21921 0.71822 0.0
H1825 H 0.57217 0.25859 0.66803 0.0
H1826 H 0.53101 0.16431 0.67889 0.0
H1827 H 0.55638 0.16952 0.70083 0.0
H1828 H 0.5327 0.17865 0.71053 0.0
H1829 H 0.58466 0.24214 0.63344 0.0
H1830 H 0.59528 0.2176 0.63912 0.0
H1831 H 0.56883 0.21335 0.6194 0.0
H1832 H 0.60287 0.14689 0.64705 0.0
H1833 H 0.53858 0.13645 0.60136 0.0
H1834 H 0.5952 0.18575 0.69641 0.0
H1835 H 0.60819 0.20349 0.67677 0.0
H1836 H 0.61686 0.17756 0.68116 0.0
H1837 H 0.51692 0.17357 0.63859 0.0
H1838 H 0.51588 0.16254 0.60603 0.0
H1839 H 0.53043 0.19184 0.61971 0.0
C1840 C 0.66039 0.86463 0.37472 0.0
C1841 C 0.6438 0.84478 0.37507 0.0
C1842 C 0.68194 0.86345 0.36928 0.0
C1843 C 0.68757 0.84185 0.3638 0.0
C1844 C 0.67083 0.82178 0.36415 0.0
C1845 C 0.64959 0.8235 0.37003 0.0
C1846 C 0.699 0.88551 0.3701 0.0
C1847 C 0.67559 0.7983 0.35895 0.0
C1848 C 0.73532 0.83632 0.3261 0.0
C1849 C 0.75352 0.83589 0.34431 0.0
C1850 C 0.71424 0.83834 0.33219 0.0
C1851 C 0.7106 0.84015 0.35732 0.0
C1852 C 0.729 0.83992 0.37589 0.0
C1853 C 0.74995 0.83781 0.36925 0.0
C1854 C 0.69562 0.8383 0.31146 0.0
C1855 C 0.72677 0.84225 0.40304 0.0
H1856 H 0.65681 0.8813 0.3797 0.0
H1857 H 0.63754 0.80803 0.37126 0.0
H1858 H 0.71419 0.88652 0.38384 0.0
H1859 H 0.70411 0.88575 0.3516 0.0
H1860 H 0.69256 0.90098 0.37529 0.0
H1861 H 0.66075 0.78425 0.35874 0.0
H1862 H 0.68116 0.79563 0.34067 0.0
H1863 H 0.68938 0.79712 0.37347 0.0
H1864 H 0.73744 0.83482 0.30676 0.0
H1865 H 0.76361 0.83765 0.38374 0.0
H1866 H 0.68987 0.8544 0.31509 0.0
H1867 H 0.68114 0.82375 0.31088 0.0
H1868 H 0.7008 0.83678 0.29289 0.0
H1869 H 0.7265 0.86027 0.41032 0.0
H1870 H 0.74087 0.83793 0.41459 0.0
H1871 H 0.71087 0.83099 0.40533 0.0
C1872 C 0.11897 0.30879 0.54145 0.0
C1873 C 0.10818 0.32115 0.52639 0.0
C1874 C 0.10689 0.28847 0.54711 0.0
C1875 C 0.0836 0.28102 0.53786 0.0
C1876 C 0.07249 0.29424 0.52389 0.0
C1877 C 0.08501 0.31409 0.51815 0.0
C1878 C 0.11912 0.27464 0.56226 0.0
C1879 C 0.04753 0.28722 0.51468 0.0
C1880 C 0.06333 0.21701 0.5284 0.0
C1881 C 0.05615 0.21461 0.55104 0.0
C1882 C 0.07089 0.23884 0.52302 0.0
C1883 C 0.07131 0.25837 0.54088 0.0
C1884 C 0.06198 0.25596 0.56258 0.0
C1885 C 0.05436 0.2339 0.56738 0.0
C1886 C 0.08021 0.24105 0.49932 0.0
C1887 C 0.06204 0.2765 0.58189 0.0
H1888 H 0.13679 0.31478 0.54835 0.0
H1889 H 0.07655 0.32436 0.50759 0.0
H1890 H 0.1106 0.27042 0.57798 0.0
H1891 H 0.11898 0.25813 0.55029 0.0
H1892 H 0.13676 0.28391 0.56993 0.0
H1893 H 0.04137 0.30028 0.50528 0.0
H1894 H 0.04306 0.27064 0.50129 0.0
H1895 H 0.03862 0.28452 0.5305 0.0
H1896 H 0.06454 0.2019 0.51584 0.0
H1897 H 0.04898 0.2319 0.585 0.0
H1898 H 0.09854 0.24838 0.50406 0.0
H1899 H 0.07283 0.25301 0.48928 0.0
H1900 H 0.07696 0.22421 0.48652 0.0
H1901 H 0.07909 0.28335 0.59308 0.0
H1902 H 0.05034 0.27185 0.59485 0.0
H1903 H 0.05746 0.2905 0.57295 0.0
C1904 C 0.5776 0.25516 0.18226 0.0
C1905 C 0.57676 0.25622 0.15687 0.0
C1906 C 0.59786 0.26175 0.19898 0.0
C1907 C 0.6178 0.26963 0.19008 0.0
C1908 C 0.6172 0.27042 0.16439 0.0
C1909 C 0.59659 0.26355 0.14795 0.0
C1910 C 0.59785 0.26062 0.22625 0.0
C1911 C 0.63826 0.27883 0.15442 0.0
C1912 C 0.66785 0.30323 0.23898 0.0
C1913 C 0.67894 0.28591 0.24263 0.0
C1914 C 0.64803 0.29837 0.2214 0.0
C1915 C 0.63937 0.2757 0.20756 0.0
C1916 C 0.65069 0.25826 0.21136 0.0
C1917 C 0.67045 0.26364 0.22884 0.0
C1918 C 0.63632 0.31734 0.21777 0.0
C1919 C 0.64166 0.2338 0.19739 0.0
H1920 H 0.56224 0.2496 0.18919 0.0
H1921 H 0.5959 0.26481 0.12842 0.0
H1922 H 0.6093 0.25011 0.23271 0.0
H1923 H 0.60402 0.27816 0.23769 0.0
H1924 H 0.58094 0.25312 0.22986 0.0
H1925 H 0.63488 0.27891 0.13406 0.0
H1926 H 0.64683 0.29654 0.16437 0.0
H1927 H 0.64996 0.26771 0.15792 0.0
H1928 H 0.6747 0.32044 0.2498 0.0
H1929 H 0.67924 0.25039 0.23197 0.0
H1930 H 0.61921 0.31268 0.22202 0.0
H1931 H 0.63461 0.31953 0.19797 0.0
H1932 H 0.6454 0.33406 0.22984 0.0
H1933 H 0.62524 0.22648 0.20228 0.0
H1934 H 0.65305 0.22255 0.20178 0.0
H1935 H 0.63892 0.23345 0.17696 0.0
C1936 C 0.61674 0.92996 0.0703 0.0
C1937 C 0.63444 0.93739 0.05806 0.0
C1938 C 0.60456 0.94518 0.0792 0.0
C1939 C 0.61139 0.96855 0.07734 0.0
C1940 C 0.63073 0.97665 0.06735 0.0
C1941 C 0.64193 0.96073 0.05738 0.0
C1942 C 0.58303 0.93582 0.08796 0.0
C1943 C 0.63856 1.00168 0.06549 0.0
C1944 C 0.56592 1.00035 0.07243 0.0
C1945 C 0.57016 0.01348 0.0965 0.0
C1946 C 0.57969 0.98605 0.06565 0.0
C1947 C 0.59708 0.98394 0.08401 0.0
C1948 C 0.60032 0.99589 0.10883 0.0
C1949 C 0.58693 1.01096 0.11474 0.0
C1950 C 0.57646 0.97443 0.03863 0.0
C1951 C 0.61872 0.9937 0.12863 0.0
H1952 H 0.61048 0.91168 0.06975 0.0
H1953 H 0.65522 0.96612 0.04716 0.0
H1954 H 0.58242 0.94609 0.1062 0.0
H1955 H 0.56865 0.93719 0.07434 0.0
H1956 H 0.58086 0.91748 0.08981 0.0
H1957 H 0.65194 1.00448 0.05408 0.0
H1958 H 0.62449 1.0083 0.0572 0.0
H1959 H 0.64511 1.01206 0.0845 0.0
H1960 H 0.55343 1.00329 0.0582 0.0
H1961 H 0.59058 0.02195 0.133 0.0
H1962 H 0.57136 0.95549 0.03711 0.0
H1963 H 0.59238 0.97843 0.03147 0.0
H1964 H 0.56359 0.9799 0.02638 0.0
H1965 H 0.61689 0.97537 0.1303 0.0
H1966 H 0.61869 1.00384 0.14719 0.0
H1967 H 0.63516 0.9997 0.12314 0.0
C1968 C 0.98453 0.77898 0.71578 0.0
C1969 C 0.97462 0.78219 0.69246 0.0
C1970 C 0.97612 0.78547 0.73731 0.0
C1971 C 0.95746 0.79527 0.73515 0.0
C1972 C 0.94667 0.79725 0.71144 0.0
C1973 C 0.9555 0.79077 0.69034 0.0
C1974 C 0.98748 0.78247 0.76232 0.0
C1975 C 0.9265 0.80734 0.70844 0.0
C1976 C 0.92317 0.80513 0.78497 0.0
C1977 C 0.93255 0.82846 0.79512 0.0
C1978 C 0.93238 0.79342 0.76679 0.0
C1979 C 0.95048 0.80578 0.75766 0.0
C1980 C 0.96019 0.82924 0.768 0.0
C1981 C 0.95126 0.84024 0.7869 0.0
C1982 C 0.92223 0.76818 0.75658 0.0
C1983 C 0.97933 0.84299 0.75829 0.0
H1984 H 0.99926 0.7721 0.71735 0.0
H1985 H 0.94767 0.79284 0.67221 0.0
H1986 H 0.99351 0.79935 0.77515 0.0
H1987 H 0.97533 0.77141 0.77106 0.0
H1988 H 1.00188 0.77458 0.76071 0.0
H1989 H 0.91922 0.80608 0.68851 0.0
H1990 H 0.91338 0.79842 0.71772 0.0
H1991 H 0.93133 0.82576 0.71755 0.0
H1992 H 0.90813 0.79629 0.79056 0.0
H1993 H 0.95851 0.85826 0.7948 0.0
H1994 H 0.93546 0.75858 0.75545 0.0
H1995 H 0.9127 0.76592 0.73742 0.0
H1996 H 0.91079 0.76042 0.76838 0.0
H1997 H 0.99357 0.83468 0.75957 0.0
H1998 H 0.98523 0.86097 0.76875 0.0
H1999 H 0.97403 0.84344 0.73828 0.0
C2000 C 0.14046 0.05254 0.9049 0.0
C2001 C 0.15796 0.0715 0.90436 0.0
C2002 C 0.12775 0.05232 0.92459 0.0
C2003 C 0.13281 0.07123 0.94499 0.0
C2004 C 0.15115 0.08991 0.94492 0.0
C2005 C 0.16299 0.09006 0.92458 0.0
C2006 C 0.10866 0.03186 0.92337 0.0
C2007 C 0.15862 0.10973 0.96674 0.0
C2008 C 0.0908 0.08474 0.98845 0.0
C2009 C 0.09765 0.076 0.00993 0.0
C2010 C 0.10147 0.08257 0.96701 0.0
C2011 C 0.11955 0.07152 0.96665 0.0
C2012 C 0.12585 0.06214 0.98802 0.0
C2013 C 0.1151 0.06467 0.00899 0.0
C2014 C 0.09386 0.09269 0.94481 0.0
C2015 C 0.14424 0.04946 0.98921 0.0
H2016 H 0.13629 0.03804 0.88951 0.0
H2017 H 0.1766 0.10468 0.92474 0.0
H2018 H 0.11135 0.024 0.94016 0.0
H2019 H 0.09287 0.03756 0.92329 0.0
H2020 H 0.10669 0.0185 0.90648 0.0
H2021 H 0.17363 0.12251 0.96459 0.0
H2022 H 0.14493 0.11853 0.96883 0.0
H2023 H 0.16254 0.10315 0.98423 0.0
H2024 H 0.07788 0.09417 0.98876 0.0
H2025 H 0.12098 0.05823 0.02536 0.0
H2026 H 0.09014 0.0795 0.92749 0.0
H2027 H 0.10747 0.10701 0.94251 0.0
H2028 H 0.07879 0.09934 0.94677 0.0
H2029 H 0.1373 0.03145 0.97924 0.0
H2030 H 0.15123 0.04893 0.00879 0.0
H2031 H 0.15805 0.05738 0.98018 0.0
C2032 C 0.75234 0.37981 0.65336 0.0
C2033 C 0.76289 0.38058 0.63247 0.0
C2034 C 0.76191 0.37268 0.67477 0.0
C2035 C 0.78299 0.36713 0.67575 0.0
C2036 C 0.79381 0.36823 0.65483 0.0
C2037 C 0.78347 0.37448 0.63336 0.0
C2038 C 0.74958 0.37136 0.69645 0.0
C2039 C 0.81665 0.3634 0.65535 0.0
C2040 C 0.81683 0.36926 0.74005 0.0
C2041 C 0.8133 0.34583 0.74159 0.0
C2042 C 0.80743 0.37645 0.71867 0.0
C2043 C 0.79368 0.35986 0.69844 0.0
C2044 C 0.79031 0.33618 0.69975 0.0
C2045 C 0.80032 0.32946 0.72113 0.0
C2046 C 0.81194 0.40185 0.71794 0.0
C2047 C 0.77546 0.31795 0.67889 0.0
H2048 H 0.73665 0.38488 0.65299 0.0
H2049 H 0.7921 0.3757 0.61764 0.0
H2050 H 0.74812 0.35427 0.702 0.0
H2051 H 0.75908 0.3845 0.71282 0.0
H2052 H 0.73256 0.37425 0.69196 0.0
H2053 H 0.82346 0.36643 0.63819 0.0
H2054 H 0.8285 0.37451 0.67177 0.0
H2055 H 0.81581 0.34527 0.6573 0.0
H2056 H 0.82671 0.38207 0.75579 0.0
H2057 H 0.79711 0.31135 0.72225 0.0
H2058 H 0.79623 0.40766 0.7179 0.0
H2059 H 0.81806 0.40521 0.70052 0.0
H2060 H 0.82446 0.41236 0.73419 0.0
H2061 H 0.75832 0.32076 0.67622 0.0
H2062 H 0.77455 0.30028 0.68266 0.0
H2063 H 0.78166 0.31921 0.66108 0.0
C2064 C 0.51199 0.13125 0.42612 0.0
C2065 C 0.52528 0.13288 0.40764 0.0
C2066 C 0.51906 0.12393 0.44835 0.0
C2067 C 0.54035 0.11896 0.45268 0.0
C2068 C 0.55437 0.12182 0.43459 0.0
C2069 C 0.54642 0.12816 0.41198 0.0
C2070 C 0.50324 0.12039 0.46664 0.0
C2071 C 0.57742 0.11739 0.4387 0.0
C2072 C 0.56025 0.11394 0.52016 0.0
C2073 C 0.5533 0.09014 0.51908 0.0
C2074 C 0.55708 0.12359 0.49849 0.0
C2075 C 0.54693 0.10905 0.47521 0.0
C2076 C 0.54112 0.08489 0.47392 0.0
C2077 C 0.54421 0.07578 0.49586 0.0
C2078 C 0.56383 0.14938 0.50068 0.0
C2079 C 0.53061 0.06862 0.44956 0.0
H2080 H 0.49546 0.13443 0.42254 0.0
H2081 H 0.55664 0.12923 0.39758 0.0
H2082 H 0.49919 0.10202 0.46855 0.0
H2083 H 0.51128 0.13065 0.48537 0.0
H2084 H 0.4874 0.1253 0.46072 0.0
H2085 H 0.58749 0.12395 0.42498 0.0
H2086 H 0.58648 0.12563 0.45783 0.0
H2087 H 0.57604 0.09862 0.43687 0.0
H2088 H 0.56742 0.1251 0.53806 0.0
H2089 H 0.53913 0.05733 0.49488 0.0
H2090 H 0.54867 0.15613 0.49751 0.0
H2091 H 0.5738 0.15397 0.48616 0.0
H2092 H 0.57373 0.15807 0.51935 0.0
H2093 H 0.51353 0.07074 0.44348 0.0
H2094 H 0.52944 0.05034 0.45119 0.0
H2095 H 0.54035 0.07264 0.43471 0.0
C2096 C 0.80104 0.67822 0.0802 0.0
C2097 C 0.80813 0.68439 0.05855 0.0
C2098 C 0.80709 0.6938 0.1028 0.0
C2099 C 0.82061 0.716 0.10368 0.0
C2100 C 0.82906 0.72185 0.08235 0.0
C2101 C 0.82266 0.70591 0.05988 0.0
C2102 C 0.79762 0.68706 0.12522 0.0
C2103 C 0.84376 0.74535 0.08295 0.0
C2104 C 0.80542 0.7605 0.14861 0.0
C2105 C 0.82128 0.76236 0.16984 0.0
C2106 C 0.80581 0.74632 0.1264 0.0
C2107 C 0.82266 0.73397 0.12563 0.0
C2108 C 0.83957 0.73693 0.14674 0.0
C2109 C 0.83854 0.75106 0.16892 0.0
C2110 C 0.78732 0.7434 0.10436 0.0
C2111 C 0.8579 0.72422 0.14635 0.0
H2112 H 0.79006 0.66147 0.07932 0.0
H2113 H 0.82842 0.71062 0.04322 0.0
H2114 H 0.81098 0.69123 0.14196 0.0
H2115 H 0.78512 0.69702 0.12935 0.0
H2116 H 0.78936 0.66843 0.12212 0.0
H2117 H 0.85058 0.74647 0.06545 0.0
H2118 H 0.83403 0.75859 0.08568 0.0
H2119 H 0.85786 0.74963 0.09896 0.0
H2120 H 0.7921 0.76938 0.14979 0.0
H2121 H 0.85068 0.75269 0.18567 0.0
H2122 H 0.77672 0.72558 0.10066 0.0
H2123 H 0.7944 0.7461 0.08732 0.0
H2124 H 0.77651 0.75555 0.1076 0.0
H2125 H 0.85106 0.70596 0.14746 0.0
H2126 H 0.87189 0.73173 0.16232 0.0
H2127 H 0.86454 0.72442 0.12867 0.0
C2128 C 0.14291 0.05512 0.7633 0.0
C2129 C 0.16513 0.05309 0.76523 0.0
C2130 C 0.13058 0.05723 0.74044 0.0
C2131 C 0.14076 0.05796 0.71894 0.0
C2132 C 0.16315 0.05585 0.72077 0.0
C2133 C 0.17487 0.05317 0.74363 0.0
C2134 C 0.10667 0.05894 0.73938 0.0
C2135 C 0.17513 0.05744 0.69882 0.0
C2136 C 0.10577 0.04552 0.65288 0.0
C2137 C 0.10525 0.06767 0.64846 0.0
C2138 C 0.11672 0.04211 0.67582 0.0
C2139 C 0.12823 0.06132 0.69468 0.0
C2140 C 0.12808 0.08377 0.69007 0.0
C2141 C 0.11626 0.08663 0.66733 0.0
C2142 C 0.11591 0.01786 0.67989 0.0
C2143 C 0.14072 0.10487 0.70902 0.0
H2144 H 0.13515 0.05523 0.77975 0.0
H2145 H 0.19212 0.0521 0.7448 0.0
H2146 H 0.10504 0.07595 0.73526 0.0
H2147 H 0.09563 0.04564 0.72403 0.0
H2148 H 0.1007 0.05676 0.75718 0.0
H2149 H 0.19201 0.0541 0.70268 0.0
H2150 H 0.16529 0.04499 0.68207 0.0
H2151 H 0.17691 0.07491 0.6942 0.0
H2152 H 0.09728 0.03076 0.63847 0.0
H2153 H 0.11618 0.10383 0.66401 0.0
H2154 H 0.10897 0.01513 0.69703 0.0
H2155 H 0.13304 0.01508 0.68277 0.0
H2156 H 0.10556 1.00475 0.66387 0.0
H2157 H 0.13298 0.10571 0.72599 0.0
H2158 H 0.14086 0.12102 0.70167 0.0
H2159 H 0.15824 0.10389 0.7148 0.0
C2160 C 0.754 0.36262 0.47268 0.0
C2161 C 0.77027 0.36994 0.49454 0.0
C2162 C 0.75967 0.35477 0.44942 0.0
C2163 C 0.78221 0.35458 0.44787 0.0
C2164 C 0.79862 0.36216 0.46987 0.0
C2165 C 0.79244 0.36943 0.4928 0.0
C2166 C 0.74156 0.34664 0.42657 0.0
C2167 C 0.82298 0.36333 0.46912 0.0
C2168 C 0.80283 0.32052 0.39516 0.0
C2169 C 0.81134 0.33799 0.38249 0.0
C2170 C 0.79191 0.32525 0.41557 0.0
C2171 C 0.78931 0.34787 0.42332 0.0
C2172 C 0.79646 0.36501 0.40929 0.0
C2173 C 0.80734 0.35987 0.38923 0.0
C2174 C 0.78409 0.30636 0.42964 0.0
C2175 C 0.79362 0.3892 0.41617 0.0
H2176 H 0.73684 0.363 0.47375 0.0
H2177 H 0.80527 0.37539 0.50938 0.0
H2178 H 0.74637 0.35524 0.41101 0.0
H2179 H 0.73926 0.32788 0.42017 0.0
H2180 H 0.72533 0.34988 0.43029 0.0
H2181 H 0.83369 0.36942 0.48788 0.0
H2182 H 0.82513 0.34611 0.46137 0.0
H2183 H 0.82899 0.37521 0.45663 0.0
H2184 H 0.80557 0.30351 0.38988 0.0
H2185 H 0.81327 0.37336 0.3791 0.0
H2186 H 0.76661 0.30561 0.43223 0.0
H2187 H 0.79459 0.31012 0.4485 0.0
H2188 H 0.78503 0.28926 0.41988 0.0
H2189 H 0.77571 0.38884 0.41584 0.0
H2190 H 0.8 0.4005 0.40327 0.0
H2191 H 0.80261 0.39696 0.43545 0.0
C2192 C 0.52919 0.15456 0.25866 0.0
C2193 C 0.51754 0.13958 0.27204 0.0
C2194 C 0.5376 0.14588 0.23771 0.0
C2195 C 0.5333 0.12173 0.22945 0.0
C2196 C 0.5212 0.10662 0.24279 0.0
C2197 C 0.51388 0.11574 0.26418 0.0
C2198 C 0.55073 0.1625 0.22416 0.0
C2199 C 0.5154 0.08082 0.2341 0.0
C2200 C 0.53225 0.10008 0.16087 0.0
C2201 C 0.55288 0.09413 0.16122 0.0
C2202 C 0.52576 0.10906 0.18287 0.0
C2203 C 0.54021 0.11223 0.20601 0.0
C2204 C 0.56089 0.10591 0.20667 0.0
C2205 C 0.56705 0.09701 0.18424 0.0
C2206 C 0.50335 0.11509 0.18128 0.0
C2207 C 0.57659 0.10881 0.23107 0.0
H2208 H 0.53178 0.17297 0.26462 0.0
H2209 H 0.50436 0.10415 0.27424 0.0
H2210 H 0.567 0.15831 0.22245 0.0
H2211 H 0.54151 0.16086 0.20494 0.0
H2212 H 0.55388 0.18066 0.23384 0.0
H2213 H 0.50443 0.07159 0.24553 0.0
H2214 H 0.5068 0.07626 0.21432 0.0
H2215 H 0.5309 0.07453 0.2351 0.0
H2216 H 0.52108 0.09799 0.14326 0.0
H2217 H 0.583 0.09248 0.18473 0.0
H2218 H 0.50568 0.13365 0.1888 0.0
H2219 H 0.49304 0.1053 0.19284 0.0
H2220 H 0.49396 0.11128 0.16181 0.0
H2221 H 0.58183 0.12727 0.23998 0.0
H2222 H 0.59173 0.10245 0.22856 0.0
H2223 H 0.56794 0.0994 0.24415 0.0
C2224 C 0.8029 0.72399 0.9535 0.0
C2225 C 0.79358 0.70169 0.94001 0.0
C2226 C 0.80691 0.74267 0.94131 0.0
C2227 C 0.80089 0.7389 0.91507 0.0
C2228 C 0.79248 0.71623 0.90117 0.0
C2229 C 0.78909 0.69766 0.91392 0.0
C2230 C 0.81704 0.7665 0.95653 0.0
C2231 C 0.78657 0.71174 0.87304 0.0
C2232 C 0.78483 0.78811 0.88805 0.0
C2233 C 0.80422 0.79738 0.87929 0.0
C2234 C 0.78359 0.76897 0.89975 0.0
C2235 C 0.80215 0.75899 0.90262 0.0
C2236 C 0.82215 0.76903 0.895 0.0
C2237 C 0.82303 0.78836 0.88372 0.0
C2238 C 0.76219 0.75901 0.90836 0.0
C2239 C 0.84223 0.75878 0.89732 0.0
H2240 H 0.80684 0.72685 0.97374 0.0
H2241 H 0.78207 0.68026 0.90366 0.0
H2242 H 0.83233 0.77453 0.94983 0.0
H2243 H 0.8051 0.77755 0.95411 0.0
H2244 H 0.82152 0.76632 0.97676 0.0
H2245 H 0.78032 0.69309 0.86504 0.0
H2246 H 0.77354 0.72076 0.86711 0.0
H2247 H 0.80148 0.71873 0.8651 0.0
H2248 H 0.77026 0.79504 0.88464 0.0
H2249 H 0.83811 0.79563 0.87709 0.0
H2250 H 0.76563 0.75883 0.92867 0.0
H2251 H 0.75526 0.74092 0.89858 0.0
H2252 H 0.74934 0.76889 0.90481 0.0
H2253 H 0.85787 0.77208 0.8984 0.0
H2254 H 0.84037 0.74541 0.88051 0.0
H2255 H 0.84392 0.7505 0.91394 0.0
C2256 C 0.9509 0.1868 0.05687 0.0
C2257 C 0.93703 0.18168 0.07431 0.0
C2258 C 0.96562 0.17305 0.05071 0.0
C2259 C 0.96622 0.15356 0.06198 0.0
C2260 C 0.95205 0.14814 0.07933 0.0
C2261 C 0.93771 0.16229 0.08534 0.0
C2262 C 0.98091 0.17966 0.0326 0.0
C2263 C 0.95261 0.12785 0.09226 0.0
C2264 C 0.99553 0.10782 0.0371 0.0
C2265 C 1.01655 0.11557 0.0525 0.0
C2266 C 0.97903 0.12037 0.03937 0.0
C2267 C 0.98353 0.14051 0.05803 0.0
C2268 C 1.00462 0.14808 0.07378 0.0
C2269 C 1.02086 0.13582 0.07052 0.0
C2270 C 0.95676 0.11205 0.02206 0.0
C2271 C 1.01006 0.16895 0.09448 0.0
H2272 H 0.95046 0.20172 0.04825 0.0
H2273 H 0.92696 0.15809 0.09872 0.0
H2274 H 0.99859 0.18386 0.04215 0.0
H2275 H 0.97871 0.16494 0.01708 0.0
H2276 H 0.9778 0.19476 0.02466 0.0
H2277 H 0.93931 0.12487 0.10374 0.0
H2278 H 0.95066 0.11198 0.07834 0.0
H2279 H 0.96905 0.13086 0.10463 0.0
H2280 H 0.99202 0.09207 0.02341 0.0
H2281 H 0.03682 0.14183 0.08305 0.0
H2282 H 0.95352 0.12579 0.01178 0.0
H2283 H 0.9432 0.10824 0.03303 0.0
H2284 H 0.95597 0.09635 0.00832 0.0
H2285 H 1.01025 0.18467 0.08633 0.0
H2286 H 0.02655 0.17119 0.10652 0.0
H2287 H 0.99711 0.16758 0.10649 0.0
C2288 C 0.42798 0.54787 0.1423 0.0
C2289 C 0.42796 0.53497 0.16144 0.0
C2290 C 0.44687 0.55321 0.13107 0.0
C2291 C 0.46619 0.54582 0.13962 0.0
C2292 C 0.46672 0.5343 0.16023 0.0
C2293 C 0.44744 0.52872 0.17067 0.0
C2294 C 0.44549 0.56506 0.1088 0.0
C2295 C 0.48711 0.52642 0.17009 0.0
C2296 C 0.50395 0.53187 0.09416 0.0
C2297 C 0.5224 0.55071 0.1018 0.0
C2298 C 0.48535 0.53024 0.1061 0.0
C2299 C 0.4851 0.54816 0.12574 0.0
C2300 C 0.50338 0.56764 0.13286 0.0
C2301 C 0.52199 0.56855 0.12099 0.0
C2302 C 0.46628 0.50903 0.09816 0.0
C2303 C 0.5034 0.58731 0.15324 0.0
H2304 H 0.41262 0.55202 0.13467 0.0
H2305 H 0.44716 0.51833 0.18513 0.0
H2306 H 0.46072 0.57901 0.1104 0.0
H2307 H 0.44443 0.55245 0.09156 0.0
H2308 H 0.43062 0.57243 0.10663 0.0
H2309 H 0.48539 0.5193 0.1874 0.0
H2310 H 0.48992 0.51292 0.15573 0.0
H2311 H 0.50216 0.54095 0.17408 0.0
H2312 H 0.50432 0.51807 0.07934 0.0
H2313 H 0.53623 0.58322 0.12674 0.0
H2314 H 0.45038 0.51398 0.09285 0.0
H2315 H 0.46444 0.49979 0.11402 0.0
H2316 H 0.46884 0.49697 0.08213 0.0
H2317 H 0.48861 0.59433 0.1485 0.0
H2318 H 0.5187 0.60147 0.15616 0.0
H2319 H 0.50212 0.58104 0.17107 0.0
C2320 C 0.3657 0.64846 0.79585 0.0
C2321 C 0.38843 0.64889 0.79526 0.0
C2322 C 0.35737 0.66896 0.79866 0.0
C2323 C 0.37146 0.69125 0.79962 0.0
C2324 C 0.39438 0.6917 0.79841 0.0
C2325 C 0.40251 0.67104 0.79699 0.0
C2326 C 0.33323 0.66668 0.8011 0.0
C2327 C 0.41069 0.71408 0.79845 0.0
C2328 C 0.34153 0.73975 0.78219 0.0
C2329 C 0.34373 0.75493 0.80508 0.0
C2330 C 0.3509 0.71993 0.7801 0.0
C2331 C 0.36219 0.71361 0.80154 0.0
C2332 C 0.36437 0.72892 0.82475 0.0
C2333 C 0.3557 0.74922 0.82612 0.0
C2334 C 0.34928 0.70609 0.7545 0.0
C2335 C 0.37553 0.72359 0.84855 0.0
H2336 H 0.35432 0.63192 0.79474 0.0
H2337 H 0.42005 0.67226 0.7965 0.0
H2338 H 0.33194 0.67911 0.81751 0.0
H2339 H 0.32397 0.67083 0.78433 0.0
H2340 H 0.32499 0.64904 0.80319 0.0
H2341 H 0.42505 0.71113 0.78959 0.0
H2342 H 0.40258 0.72563 0.7885 0.0
H2343 H 0.4174 0.72306 0.818 0.0
H2344 H 0.3329 0.74375 0.7655 0.0
H2345 H 0.35787 0.76044 0.84401 0.0
H2346 H 0.33912 0.68836 0.75313 0.0
H2347 H 0.3662 0.70472 0.75132 0.0
H2348 H 0.34167 0.71386 0.73943 0.0
H2349 H 0.36636 0.70661 0.85152 0.0
H2350 H 0.37614 0.73683 0.8651 0.0
H2351 H 0.39282 0.7224 0.84711 0.0
C2352 C 0.30331 0.6861 0.53408 0.0
C2353 C 0.32165 0.68192 0.54899 0.0
C2354 C 0.28147 0.67662 0.53705 0.0
C2355 C 0.27812 0.66307 0.55565 0.0
C2356 C 0.29651 0.65778 0.56979 0.0
C2357 C 0.3181 0.66703 0.56602 0.0
C2358 C 0.26219 0.68244 0.52153 0.0
C2359 C 0.29353 0.64375 0.59017 0.0
C2360 C 0.22937 0.66193 0.5894 0.0
C2361 C 0.2161 0.63975 0.57945 0.0
C2362 C 0.2491 0.67026 0.58081 0.0
C2363 C 0.25569 0.65593 0.56197 0.0
C2364 C 0.24186 0.63397 0.55102 0.0
C2365 C 0.22213 0.62612 0.55988 0.0
C2366 C 0.26345 0.69387 0.59288 0.0
C2367 C 0.24837 0.61845 0.53068 0.0
H2368 H 0.30609 0.69768 0.52095 0.0
H2369 H 0.33226 0.66406 0.57784 0.0
H2370 H 0.24835 0.66688 0.51439 0.0
H2371 H 0.2556 0.69499 0.53334 0.0
H2372 H 0.26727 0.6901 0.50545 0.0
H2373 H 0.3095 0.64048 0.59882 0.0
H2374 H 0.28661 0.65296 0.60503 0.0
H2375 H 0.28142 0.62698 0.58258 0.0
H2376 H 0.22486 0.67245 0.60467 0.0
H2377 H 0.21163 0.60914 0.55183 0.0
H2378 H 0.26811 0.70407 0.57844 0.0
H2379 H 0.27915 0.69214 0.60389 0.0
H2380 H 0.25489 0.7036 0.60555 0.0
H2381 H 0.25205 0.62767 0.51519 0.0
H2382 H 0.23509 0.60247 0.52305 0.0
H2383 H 0.26384 0.61359 0.53817 0.0
C2384 C 0.72017 0.94794 0.80847 0.0
C2385 C 0.71213 0.95951 0.8279 0.0
C2386 C 0.73535 0.93433 0.81338 0.0
C2387 C 0.74327 0.9329 0.83842 0.0
C2388 C 0.73561 0.94506 0.85816 0.0
C2389 C 0.71991 0.95798 0.85262 0.0
C2390 C 0.7424 0.92096 0.79171 0.0
C2391 C 0.7441 0.94467 0.88515 0.0
C2392 C 0.75949 0.8771 0.84474 0.0
C2393 C 0.78232 0.88287 0.8443 0.0
C2394 C 0.74704 0.89371 0.84472 0.0
C2395 C 0.75748 0.91659 0.84349 0.0
C2396 C 0.78095 0.92293 0.84485 0.0
C2397 C 0.7932 0.90589 0.84526 0.0
C2398 C 0.72242 0.88621 0.84445 0.0
C2399 C 0.7929 0.94736 0.84469 0.0
H2400 H 0.71429 0.94922 0.78934 0.0
H2401 H 0.71415 0.96739 0.86773 0.0
H2402 H 0.76085 0.92553 0.79358 0.0
H2403 H 0.73717 0.90224 0.79179 0.0
H2404 H 0.73502 0.92423 0.77339 0.0
H2405 H 0.73314 0.95061 0.89768 0.0
H2406 H 0.74548 0.9272 0.88789 0.0
H2407 H 0.76105 0.95629 0.89093 0.0
H2408 H 0.75112 0.85927 0.8441 0.0
H2409 H 0.81093 0.91031 0.84475 0.0
H2410 H 0.71344 0.88308 0.82489 0.0
H2411 H 0.71634 0.89956 0.85563 0.0
H2412 H 0.71843 0.87021 0.85219 0.0
H2413 H 0.7894 0.95115 0.82561 0.0
H2414 H 0.81127 0.95033 0.85035 0.0
H2415 H 0.78678 0.95963 0.85745 0.0
C2416 C 0.80937 0.04186 0.6266 0.0
C2417 C 0.80829 0.02561 0.64222 0.0
C2418 C 0.78988 0.04442 0.61239 0.0
C2419 C 0.76896 0.03073 0.61449 0.0
C2420 C 0.76798 0.01345 0.62936 0.0
C2421 C 0.78782 1.01096 0.64296 0.0
C2422 C 0.79156 0.06276 0.59642 0.0
C2423 C 0.74594 0.9986 0.63205 0.0
C2424 C 0.72161 0.06037 0.61222 0.0
C2425 C 0.70921 0.05072 0.58839 0.0
C2426 C 0.74111 0.05397 0.62076 0.0
C2427 C 0.74827 0.03734 0.60506 0.0
C2428 C 0.73583 0.02751 0.58083 0.0
C2429 C 0.7164 0.03454 0.57262 0.0
C2430 C 0.754 0.065 0.64665 0.0
C2431 C 0.743 1.00968 0.5637 0.0
H2432 H 0.82544 0.0528 0.62584 0.0
H2433 H 0.78729 0.99816 0.65488 0.0
H2434 H 0.78079 0.05598 0.57782 0.0
H2435 H 0.7856 0.07739 0.60544 0.0
H2436 H 0.80899 0.06936 0.59378 0.0
H2437 H 0.74815 0.98521 0.64334 0.0
H2438 H 0.73604 1.0095 0.64118 0.0
H2439 H 0.73605 0.99004 0.61338 0.0
H2440 H 0.71604 0.07311 0.62418 0.0
H2441 H 0.70664 0.02717 0.55416 0.0
H2442 H 0.77122 0.07406 0.64551 0.0
H2443 H 0.75535 0.05158 0.65812 0.0
H2444 H 0.74601 0.07759 0.65643 0.0
H2445 H 0.75953 0.01727 0.55927 0.0
H2446 H 0.73087 1.00296 0.54594 0.0
H2447 H 0.74493 0.99505 0.57312 0.0
C2448 C 0.40513 0.5023 0.82125 0.0
C2449 C 0.39466 0.51485 0.80534 0.0
C2450 C 0.39577 0.47888 0.82275 0.0
C2451 C 0.37499 0.46626 0.80774 0.0
C2452 C 0.36422 0.47863 0.79144 0.0
C2453 C 0.37388 0.50241 0.79058 0.0
C2454 C 0.40856 0.46756 0.84054 0.0
C2455 C 0.34244 0.46653 0.77442 0.0
C2456 C 0.36404 0.39854 0.79871 0.0
C2457 C 0.34887 0.39213 0.81479 0.0
C2458 C 0.37159 0.42187 0.79534 0.0
C2459 C 0.365 0.44043 0.8092 0.0
C2460 C 0.34986 0.43405 0.8257 0.0
C2461 C 0.3418 0.4104 0.82791 0.0
C2462 C 0.38703 0.42661 0.77693 0.0
C2463 C 0.34279 0.45249 0.84199 0.0
H2464 H 0.42113 0.51089 0.83291 0.0
H2465 H 0.36531 0.51106 0.77786 0.0
H2466 H 0.39739 0.45872 0.85201 0.0
H2467 H 0.41514 0.45433 0.82976 0.0
H2468 H 0.42286 0.48009 0.85323 0.0
H2469 H 0.33692 0.47729 0.76126 0.0
H2470 H 0.34407 0.45019 0.76352 0.0
H2471 H 0.3293 0.46203 0.78574 0.0
H2472 H 0.37005 0.38509 0.78847 0.0
H2473 H 0.3306 0.40634 0.84087 0.0
H2474 H 0.40416 0.43506 0.78717 0.0
H2475 H 0.38163 0.43851 0.76516 0.0
H2476 H 0.38765 0.41058 0.76456 0.0
H2477 H 0.3577 0.46399 0.85472 0.0
H2478 H 0.33063 0.44522 0.8534 0.0
H2479 H 0.33521 0.46325 0.83033 0.0
C2480 C 0.21942 0.57753 0.31735 0.0
C2481 C 0.21075 0.57484 0.33917 0.0
C2482 C 0.22958 0.59932 0.31343 0.0
C2483 C 0.23186 0.61874 0.33224 0.0
C2484 C 0.22407 0.61605 0.35484 0.0
C2485 C 0.21328 0.59407 0.35791 0.0
C2486 C 0.23721 0.60159 0.28882 0.0
C2487 C 0.2265 0.63644 0.37535 0.0
C2488 C 0.27569 0.67068 0.32685 0.0
C2489 C 0.26267 0.68332 0.3146 0.0
C2490 C 0.26575 0.65003 0.33366 0.0
C2491 C 0.24227 0.64185 0.32796 0.0
C2492 C 0.22894 0.65488 0.31633 0.0
C2493 C 0.23934 0.67553 0.30979 0.0
C2494 C 0.28041 0.63654 0.3461 0.0
C2495 C 0.20382 0.64651 0.30972 0.0
H2496 H 0.2171 0.56273 0.30262 0.0
H2497 H 0.2064 0.59196 0.37471 0.0
H2498 H 0.22988 0.61432 0.28011 0.0
H2499 H 0.25564 0.60798 0.29205 0.0
H2500 H 0.23246 0.58498 0.2754 0.0
H2501 H 0.22085 0.63121 0.39238 0.0
H2502 H 0.2442 0.64632 0.38042 0.0
H2503 H 0.21654 0.6482 0.36865 0.0
H2504 H 0.29375 0.67652 0.33034 0.0
H2505 H 0.22923 0.68544 0.30059 0.0
H2506 H 0.27931 0.62015 0.33337 0.0
H2507 H 0.27454 0.63206 0.36329 0.0
H2508 H 0.2982 0.6462 0.35111 0.0
H2509 H 0.19935 0.63135 0.29431 0.0
H2510 H 0.19577 0.65995 0.30364 0.0
H2511 H 0.19679 0.64092 0.32588 0.0
C2512 C 0.5859 0.77647 0.46283 0.0
C2513 C 0.58945 0.79987 0.47272 0.0
C2514 C 0.58512 0.76015 0.47859 0.0
C2515 C 0.58706 0.76738 0.50471 0.0
C2516 C 0.58899 0.79086 0.51448 0.0
C2517 C 0.59073 0.80693 0.49842 0.0
C2518 C 0.58362 0.73541 0.46746 0.0
C2519 C 0.5902 0.7992 0.54201 0.0
C2520 C 0.57439 0.71962 0.54249 0.0
C2521 C 0.59595 0.71728 0.55119 0.0
C2522 C 0.57115 0.73639 0.52805 0.0
C2523 C 0.58989 0.75093 0.5219 0.0
C2524 C 0.61167 0.74913 0.53134 0.0
C2525 C 0.61441 0.73251 0.54596 0.0
C2526 C 0.5477 0.73826 0.51899 0.0
C2527 C 0.63215 0.76431 0.52535 0.0
H2528 H 0.58505 0.77113 0.44294 0.0
H2529 H 0.59329 0.82508 0.50598 0.0
H2530 H 0.59913 0.73053 0.47482 0.0
H2531 H 0.5695 0.72384 0.47297 0.0
H2532 H 0.58136 0.73242 0.44674 0.0
H2533 H 0.58722 0.81673 0.5458 0.0
H2534 H 0.57778 0.78728 0.54957 0.0
H2535 H 0.607 0.79974 0.55229 0.0
H2536 H 0.56 0.70794 0.54638 0.0
H2537 H 0.63114 0.73128 0.55315 0.0
H2538 H 0.54339 0.73278 0.4984 0.0
H2539 H 0.54653 0.75641 0.52336 0.0
H2540 H 0.53515 0.72742 0.52751 0.0
H2541 H 0.63172 0.76115 0.50487 0.0
H2542 H 0.64791 0.76117 0.53474 0.0
H2543 H 0.63237 0.7827 0.53115 0.0
C2544 C 0.6494 0.31207 0.7594 0.0
C2545 C 0.63539 0.31348 0.77743 0.0
C2546 C 0.67247 0.31314 0.76575 0.0
C2547 C 0.68271 0.31605 0.79109 0.0
C2548 C 0.66889 0.31796 0.80957 0.0
C2549 C 0.64552 0.31639 0.80261 0.0
C2550 C 0.6858 0.31062 0.74502 0.0
C2551 C 0.67893 0.32177 0.83685 0.0
C2552 C 0.73526 0.29206 0.80213 0.0
C2553 C 0.75328 0.3115 0.80546 0.0
C2554 C 0.71267 0.29354 0.79843 0.0
C2555 C 0.70723 0.31506 0.79771 0.0
C2556 C 0.72534 0.33495 0.80141 0.0
C2557 C 0.74799 0.33298 0.80532 0.0
C2558 C 0.69449 0.27169 0.79438 0.0
C2559 C 0.72088 0.3583 0.80018 0.0
H2560 H 0.64218 0.30961 0.7398 0.0
H2561 H 0.63529 0.31775 0.81689 0.0
H2562 H 0.70052 0.32543 0.7482 0.0
H2563 H 0.69213 0.29483 0.74493 0.0
H2564 H 0.67577 0.30953 0.72633 0.0
H2565 H 0.66646 0.32359 0.84912 0.0
H2566 H 0.68616 0.30715 0.84068 0.0
H2567 H 0.69278 0.33754 0.84169 0.0
H2568 H 0.73883 0.27529 0.80197 0.0
H2569 H 0.76149 0.34815 0.80732 0.0
H2570 H 0.6847 0.26846 0.77518 0.0
H2571 H 0.68277 0.2735 0.80757 0.0
H2572 H 0.70124 0.25646 0.79689 0.0
H2573 H 0.71608 0.35962 0.78034 0.0
H2574 H 0.73587 0.3724 0.80862 0.0
H2575 H 0.70684 0.3608 0.8098 0.0
C2576 C 0.07167 0.41454 0.9948 0.0
C2577 C 0.08046 0.41503 0.97271 0.0
C2578 C 0.07316 0.43484 0.01155 0.0
C2579 C 0.08332 0.45622 0.00586 0.0
C2580 C 0.09267 0.4569 0.98386 0.0
C2581 C 0.09135 0.4362 0.96761 0.0
C2582 C 0.06327 0.43343 0.03501 0.0
C2583 C 0.10336 0.4795 0.97712 0.0
C2584 C 0.0623 0.50617 0.03517 0.0
C2585 C 0.08005 0.51713 0.05461 0.0
C2586 C 0.06358 0.48683 0.01855 0.0
C2587 C 0.08272 0.47781 0.0222 0.0
C2588 C 0.10058 0.48871 0.04219 0.0
C2589 C 0.09918 0.50859 0.05795 0.0
C2590 C 0.04454 0.47621 0.99697 0.0
C2591 C 0.12089 0.47915 0.04725 0.0
H2592 H 0.06343 0.39821 0.99898 0.0
H2593 H 0.09814 0.43664 0.95055 0.0
H2594 H 0.07564 0.44342 0.05161 0.0
H2595 H 0.04861 0.44112 0.03399 0.0
H2596 H 0.05781 0.41541 0.03782 0.0
H2597 H 0.10964 0.4771 0.95922 0.0
H2598 H 0.09108 0.49029 0.97553 0.0
H2599 H 0.1175 0.48919 0.99211 0.0
H2600 H 0.04771 0.51323 0.03249 0.0
H2601 H 0.11287 0.5173 0.0731 0.0
H2602 H 0.03667 0.45839 0.99873 0.0
H2603 H 0.05094 0.4752 0.9791 0.0
H2604 H 0.03149 0.48616 0.99601 0.0
H2605 H 0.11588 0.46205 0.05258 0.0
H2606 H 0.1339 0.49056 0.06251 0.0
H2607 H 0.12829 0.47661 0.03016 0.0
C2608 C 0.97872 0.80505 0.26208 0.0
C2609 C 0.99663 0.80951 0.28233 0.0
C2610 C 0.95634 0.80411 0.26564 0.0
C2611 C 0.95138 0.80901 0.29009 0.0
C2612 C 0.9695 0.8138 0.31057 0.0
C2613 C 0.99153 0.81341 0.3065 0.0
C2614 C 0.93793 0.79758 0.24303 0.0
C2615 C 0.96567 0.81963 0.33699 0.0
C2616 C 0.89752 0.83034 0.29708 0.0
C2617 C 0.88343 0.81168 0.30392 0.0
C2618 C 0.91942 0.82974 0.29278 0.0
C2619 C 0.92759 0.80965 0.29431 0.0
C2620 C 0.91301 0.79044 0.30038 0.0
C2621 C 0.89153 0.79188 0.3056 0.0
C2622 C 0.93405 0.85099 0.28714 0.0
C2623 C 0.91975 0.76798 0.30063 0.0
H2624 H 0.98211 0.80154 0.24328 0.0
H2625 H 1.00496 0.81673 0.32238 0.0
H2626 H 0.92305 0.78554 0.24661 0.0
H2627 H 0.93277 0.8132 0.23876 0.0
H2628 H 0.94339 0.7894 0.2263 0.0
H2629 H 0.98151 0.82467 0.35077 0.0
H2630 H 0.95714 0.83396 0.33865 0.0
H2631 H 0.9546 0.80459 0.34184 0.0
H2632 H 0.89167 0.84584 0.29592 0.0
H2633 H 0.88085 0.77726 0.31068 0.0
H2634 H 0.93752 0.84742 0.26792 0.0
H2635 H 0.95034 0.85583 0.30013 0.0
H2636 H 0.92621 0.86585 0.28875 0.0
H2637 H 0.9203 0.76016 0.28123 0.0
H2638 H 0.90787 0.75555 0.3083 0.0
H2639 H 0.93671 0.7708 0.31173 0.0
C2640 C 0.57308 0.32841 0.11255 0.0
C2641 C 0.55059 0.32178 0.10123 0.0
C2642 C 0.58487 0.35133 0.11608 0.0
C2643 C 0.57375 0.36753 0.10767 0.0
C2644 C 0.55087 0.36078 0.09634 0.0
C2645 C 0.53942 0.33778 0.09344 0.0
C2646 C 0.60912 0.3582 0.12858 0.0
C2647 C 0.53869 0.37766 0.08668 0.0
C2648 C 0.59298 0.43172 0.12615 0.0
C2649 C 0.60097 0.43707 0.10466 0.0
C2650 C 0.58578 0.40876 0.12855 0.0
C2651 C 0.58631 0.3912 0.10877 0.0
C2652 C 0.59622 0.39661 0.08814 0.0
C2653 C 0.60371 0.41962 0.0865 0.0
C2654 C 0.57578 0.40333 0.15107 0.0
C2655 C 0.5967 0.37824 0.06651 0.0
H2656 H 0.58135 0.31563 0.11869 0.0
H2657 H 0.52193 0.3322 0.08478 0.0
H2658 H 0.61967 0.36629 0.1161 0.0
H2659 H 0.61131 0.37123 0.14577 0.0
H2660 H 0.61531 0.34331 0.13367 0.0
H2661 H 0.52081 0.36957 0.07881 0.0
H2662 H 0.53965 0.39224 0.10193 0.0
H2663 H 0.54676 0.38488 0.07189 0.0
H2664 H 0.59096 0.44539 0.14014 0.0
H2665 H 0.6096 0.42384 0.06972 0.0
H2666 H 0.58195 0.38924 0.15828 0.0
H2667 H 0.55735 0.39735 0.14564 0.0
H2668 H 0.57972 0.4186 0.16633 0.0
H2669 H 0.60373 0.36448 0.07332 0.0
H2670 H 0.6067 0.38531 0.05298 0.0
H2671 H 0.5794 0.37016 0.05648 0.0
C2672 C 0.04844 0.39554 0.47657 0.0
C2673 C 0.06063 0.38085 0.4859 0.0
C2674 C 0.02927 0.38665 0.45809 0.0
C2675 C 1.02268 0.36266 0.4484 0.0
C2676 C 0.0351 0.34781 0.45771 0.0
C2677 C 0.05393 0.35715 0.47639 0.0
C2678 C 1.01626 0.40294 0.44861 0.0
C2679 C 0.02919 0.32231 0.44722 0.0
C2680 C 0.96235 0.34325 0.41699 0.0
C2681 C 0.96412 0.34569 0.39237 0.0
C2682 C 0.98146 0.347 0.43521 0.0
C2683 C 1.00274 0.35335 0.42853 0.0
C2684 C 1.00459 0.35346 0.40319 0.0
C2685 C 0.98517 0.3497 0.38533 0.0
C2686 C 0.97887 0.34587 0.46192 0.0
C2687 C 0.02702 0.35933 0.39516 0.0
H2688 H 0.0541 0.41393 0.48346 0.0
H2689 H 0.06417 0.34606 0.48257 0.0
H2690 H 1.0163 0.40233 0.42836 0.0
H2691 H 0.99859 0.39756 0.45095 0.0
H2692 H 1.02326 0.421 0.45853 0.0
H2693 H 0.03882 0.31282 0.45867 0.0
H2694 H 1.0111 0.31478 0.44598 0.0
H2695 H 0.03286 0.31954 0.42799 0.0
H2696 H 0.94598 0.33955 0.42224 0.0
H2697 H 0.98654 0.35145 0.36624 0.0
H2698 H 0.98411 0.36351 0.47328 0.0
H2699 H 0.9898 0.33559 0.47004 0.0
H2700 H 0.96136 0.33821 0.4635 0.0
H2701 H 0.03391 0.37824 0.39989 0.0
H2702 H 0.02567 0.3538 0.37471 0.0
H2703 H 0.03907 0.35118 0.40508 0.0
C2704 C 0.98533 0.69216 0.56793 0.0
C2705 C 0.99627 0.71036 0.58738 0.0
C2706 C 0.99628 0.6751 0.56028 0.0
C2707 C 1.01867 0.67744 0.57164 0.0
C2708 C 0.03032 0.69713 0.58947 0.0
C2709 C 1.01863 0.71274 0.59786 0.0
C2710 C 0.98353 0.65396 0.54156 0.0
C2711 C 0.05457 0.7008 0.6015 0.0
C2712 C 0.04501 0.63539 0.59696 0.0
C2713 C 0.06093 0.6342 0.58182 0.0
C2714 C 0.02801 0.64608 0.59073 0.0
C2715 C 0.0286 0.65772 0.57025 0.0
C2716 C 0.04415 0.65563 0.55415 0.0
C2717 C 0.06 0.64316 0.55987 0.0
C2718 C 1.01147 0.64762 0.60819 0.0
C2719 C 0.04591 0.66879 0.53298 0.0
H2720 H 0.96821 0.6909 0.55948 0.0
H2721 H 0.0271 0.72692 0.61286 0.0
H2722 H 0.9943 0.64798 0.52886 0.0
H2723 H 0.9778 0.63986 0.55168 0.0
H2724 H 0.96865 0.65715 0.53026 0.0
H2725 H 0.06189 0.71885 0.61128 0.0
H2726 H 0.05584 0.68948 0.6155 0.0
H2727 H 0.06482 0.69652 0.58739 0.0
H2728 H 0.04605 0.62838 0.61394 0.0
H2729 H 0.07246 0.64169 0.54818 0.0
H2730 H 0.99486 0.64768 0.59788 0.0
H2731 H 1.01761 0.66384 0.62215 0.0
H2732 H 1.0095 0.63305 0.61851 0.0
H2733 H 0.02921 0.66966 0.52368 0.0
H2734 H 0.05455 0.66096 0.51887 0.0
H2735 H 0.05573 0.6867 0.54055 0.0
C2736 C 0.63117 0.86272 0.91753 0.0
C2737 C 0.64754 0.87049 0.93922 0.0
C2738 C 0.63666 0.85432 0.8948 0.0
C2739 C 0.6591 0.85396 0.8938 0.0
C2740 C 0.67597 0.86363 0.91515 0.0
C2741 C 0.66991 0.87144 0.93784 0.0
C2742 C 0.618 0.84415 0.87272 0.0
C2743 C 0.70027 0.8646 0.91434 0.0
C2744 C 0.67421 0.80533 0.85448 0.0
C2745 C 0.68312 0.81624 0.83605 0.0
C2746 C 0.66505 0.81711 0.87258 0.0
C2747 C 0.66456 0.84025 0.87205 0.0
C2748 C 0.67075 0.85043 0.8518 0.0
C2749 C 0.67984 0.83816 0.83378 0.0
C2750 C 0.65717 0.80525 0.89316 0.0
C2751 C 0.66893 0.87467 0.8501 0.0
H2752 H 0.61377 0.862 0.91851 0.0
H2753 H 0.68257 0.87787 0.95453 0.0
H2754 H 0.62381 0.8441 0.85458 0.0
H2755 H 0.61047 0.82607 0.87395 0.0
H2756 H 0.60464 0.8537 0.87297 0.0
H2757 H 0.71144 0.8751 0.9316 0.0
H2758 H 0.70293 0.84692 0.91214 0.0
H2759 H 0.70512 0.87198 0.89803 0.0
H2760 H 0.67541 0.78789 0.85553 0.0
H2761 H 0.68588 0.84648 0.81911 0.0
H2762 H 0.64021 0.8073 0.8953 0.0
H2763 H 0.66854 0.81331 0.91117 0.0
H2764 H 0.6567 0.78659 0.88955 0.0
H2765 H 0.65164 0.87628 0.85089 0.0
H2766 H 0.67355 0.87987 0.83264 0.0
H2767 H 0.6799 0.8869 0.8664 0.0
C2768 C 0.49759 0.59236 0.75239 0.0
C2769 C 0.47427 0.58998 0.74653 0.0
C2770 C 0.51147 0.59253 0.73384 0.0
C2771 C 0.50221 0.58985 0.70811 0.0
C2772 C 0.47873 0.58779 0.70204 0.0
C2773 C 0.46524 0.58805 0.72107 0.0
C2774 C 0.53624 0.59551 0.74191 0.0
C2775 C 0.46765 0.58469 0.67517 0.0
C2776 C 0.53937 0.60621 0.65866 0.0
C2777 C 0.54255 0.5849 0.64754 0.0
C2778 C 0.52701 0.60821 0.67856 0.0
C2779 C 0.51682 0.58837 0.68767 0.0
C2780 C 0.52034 0.56688 0.67672 0.0
C2781 C 0.53288 0.56543 0.65698 0.0
C2782 C 0.52422 0.63163 0.68925 0.0
C2783 C 0.51014 0.54509 0.68528 0.0
H2784 H 0.50518 0.59407 0.77175 0.0
H2785 H 0.44742 0.58609 0.71583 0.0
H2786 H 0.54152 0.58044 0.73283 0.0
H2787 H 0.54554 0.61091 0.73582 0.0
H2788 H 0.5411 0.59752 0.76248 0.0
H2789 H 0.44959 0.58439 0.67329 0.0
H2790 H 0.47596 0.59879 0.66641 0.0
H2791 H 0.46946 0.5683 0.66459 0.0
H2792 H 0.54585 0.62134 0.6511 0.0
H2793 H 0.53434 0.54871 0.64814 0.0
H2794 H 0.5291 0.63512 0.7099 0.0
H2795 H 0.5064 0.63206 0.68487 0.0
H2796 H 0.53437 0.64558 0.68169 0.0
H2797 H 0.51622 0.5466 0.70554 0.0
H2798 H 0.51419 0.52969 0.67505 0.0
H2799 H 0.49171 0.54244 0.68253 0.0
C2800 C 0.88053 0.27913 0.98901 0.0
C2801 C 0.86404 0.2685 1.00127 0.0
C2802 C 0.8746 0.28555 0.96584 0.0
C2803 C 0.85176 0.28063 0.95457 0.0
C2804 C 0.83523 0.26892 0.96642 0.0
C2805 C 0.84154 0.26335 0.98975 0.0
C2806 C 0.89267 0.29776 0.95353 0.0
C2807 C 0.81087 0.26209 0.95432 0.0
C2808 C 0.83226 0.31611 0.90813 0.0
C2809 C 0.83034 0.3015 0.88524 0.0
C2810 C 0.83937 0.30955 0.93081 0.0
C2811 C 0.84486 0.28798 0.93059 0.0
C2812 C 0.84265 0.27304 0.90755 0.0
C2813 C 0.83543 0.27997 0.88525 0.0
C2814 C 0.8411 0.32571 0.95508 0.0
C2815 C 0.84846 0.24995 0.90619 0.0
H2816 H 0.89794 0.28284 0.99775 0.0
H2817 H 0.82879 0.25448 0.99883 0.0
H2818 H 0.89169 0.28802 0.9345 0.0
H2819 H 0.89013 0.31502 0.95144 0.0
H2820 H 0.90965 0.29987 0.96438 0.0
H2821 H 0.80015 0.25254 0.96575 0.0
H2822 H 0.8049 0.27764 0.95132 0.0
H2823 H 0.80874 0.25106 0.93572 0.0
H2824 H 0.82848 0.33279 0.90834 0.0
H2825 H 0.83429 0.26857 0.8677 0.0
H2826 H 0.85841 0.32994 0.96573 0.0
H2827 H 0.82994 0.31721 0.96678 0.0
H2828 H 0.83651 0.34198 0.95212 0.0
H2829 H 0.86687 0.25261 0.90844 0.0
H2830 H 0.84091 0.23843 0.88794 0.0
H2831 H 0.84288 0.24112 0.9213 0.0
C2832 C 0.10573 0.52473 0.266 0.0
C2833 C 0.12371 0.51409 0.26642 0.0
C2834 C 0.09787 0.53334 0.24487 0.0
C2835 C 0.10827 0.53142 0.22356 0.0
C2836 C 0.12575 0.51981 0.2235 0.0
C2837 C 0.13308 0.51114 0.24473 0.0
C2838 C 0.07907 0.54538 0.24578 0.0
C2839 C 0.1378 0.51789 0.20158 0.0
C2840 C 0.08482 0.54267 0.15946 0.0
C2841 C 0.0979 0.56477 0.15981 0.0
C2842 C 0.0871 0.53194 0.18056 0.0
C2843 C 0.10279 0.54356 0.20241 0.0
C2844 C 0.11505 0.56633 0.20314 0.0
C2845 C 0.11249 0.57653 0.18193 0.0
C2846 C 0.07347 0.50781 0.17913 0.0
C2847 C 0.1317 0.57967 0.22601 0.0
H2848 H 0.09837 0.5272 0.28262 0.0
H2849 H 0.14718 0.5033 0.2448 0.0
H2850 H 0.08454 0.56324 0.24257 0.0
H2851 H 0.06482 0.53632 0.23064 0.0
H2852 H 0.07316 0.54602 0.26395 0.0
H2853 H 0.14989 0.50692 0.20355 0.0
H2854 H 0.12564 0.51064 0.18396 0.0
H2855 H 0.14704 0.53529 0.19988 0.0
H2856 H 0.0734 0.53349 0.14251 0.0
H2857 H 0.12247 0.59371 0.18251 0.0
H2858 H 0.06538 0.50674 0.19579 0.0
H2859 H 0.08463 0.49578 0.1791 0.0
H2860 H 0.06039 0.50199 0.16206 0.0
H2861 H 0.12369 0.57997 0.2428 0.0
H2862 H 0.13878 0.59771 0.22417 0.0
H2863 H 0.14563 0.57111 0.22921 0.0
C2864 C 0.84655 0.96661 0.57091 0.0
C2865 C 0.86028 0.95901 0.58864 0.0
C2866 C 0.83692 0.95251 0.54779 0.0
C2867 C 0.84111 0.93043 0.54263 0.0
C2868 C 0.85526 0.92283 0.56027 0.0
C2869 C 0.86478 0.93732 0.5831 0.0
C2870 C 0.82207 0.96103 0.52904 0.0
C2871 C 0.86054 0.89954 0.55492 0.0
C2872 C 0.8049 0.88296 0.49195 0.0
C2873 C 0.81769 0.88468 0.47315 0.0
C2874 C 0.81171 0.89874 0.5145 0.0
C2875 C 0.83201 0.91575 0.51811 0.0
C2876 C 0.8447 0.91762 0.49886 0.0
C2877 C 0.83711 0.90223 0.47637 0.0
C2878 C 0.79781 0.89665 0.53479 0.0
C2879 C 0.86672 0.9352 0.50226 0.0
H2880 H 0.84299 0.98337 0.57525 0.0
H2881 H 0.87538 0.9314 0.59682 0.0
H2882 H 0.82824 0.96015 0.51104 0.0
H2883 H 0.80493 0.94976 0.52528 0.0
H2884 H 0.82122 0.97902 0.53564 0.0
H2885 H 0.8709 0.89583 0.57126 0.0
H2886 H 0.84488 0.88575 0.54947 0.0
H2887 H 0.86967 0.89879 0.539 0.0
H2888 H 0.79008 0.86901 0.48923 0.0
H2889 H 0.84711 0.90299 0.46172 0.0
H2890 H 0.79332 0.9132 0.54049 0.0
H2891 H 0.80763 0.893 0.55153 0.0
H2892 H 0.78222 0.88279 0.52872 0.0
H2893 H 0.8636 0.95263 0.50302 0.0
H2894 H 0.87597 0.93193 0.48677 0.0
H2895 H 0.87759 0.93527 0.52008 0.0
C2896 C 0.48568 0.56311 0.89727 0.0
C2897 C 0.48944 0.58255 0.88593 0.0
C2898 C 0.49644 0.5636 0.92177 0.0
C2899 C 0.51225 0.58376 0.93517 0.0
C2900 C 0.51628 0.60346 0.92367 0.0
C2901 C 0.50452 0.60276 0.89944 0.0
C2902 C 0.49075 0.54248 0.93338 0.0
C2903 C 0.53363 0.62501 0.93655 0.0
C2904 C 0.52856 0.59017 0.00652 0.0
C2905 C 0.54724 0.58063 0.00885 0.0
C2906 C 0.51716 0.59151 0.98283 0.0
C2907 C 0.52493 0.58378 0.96077 0.0
C2908 C 0.54431 0.57494 0.96317 0.0
C2909 C 0.55494 0.57314 0.98698 0.0
C2910 C 0.49641 0.60065 0.9814 0.0
C2911 C 0.5538 0.56722 0.94048 0.0
H2912 H 0.47388 0.54751 0.88704 0.0
H2913 H 0.50766 0.6178 0.89074 0.0
H2914 H 0.50567 0.53542 0.93697 0.0
H2915 H 0.48569 0.54711 0.95166 0.0
H2916 H 0.47703 0.52877 0.92128 0.0
H2917 H 0.53301 0.63964 0.92664 0.0
H2918 H 0.53145 0.63015 0.95608 0.0
H2919 H 0.55048 0.62157 0.93732 0.0
H2920 H 0.5224 0.59598 0.02321 0.0
H2921 H 0.56948 0.56597 0.98847 0.0
H2922 H 0.48199 0.58731 0.97001 0.0
H2923 H 0.49856 0.61577 0.97199 0.0
H2924 H 0.49239 0.60582 1.00014 0.0
H2925 H 0.5419 0.55188 0.92853 0.0
H2926 H 0.57004 0.56279 0.94555 0.0
H2927 H 0.55619 0.58098 0.92913 0.0
C2928 C 0.85876 0.27366 0.14023 0.0
C2929 C 0.87965 0.26833 0.1409 0.0
C2930 C 0.85124 0.28102 0.16223 0.0
C2931 C 0.86529 0.28417 0.18569 0.0
C2932 C 0.88683 0.27972 0.18651 0.0
C2933 C 0.89357 0.27138 0.16414 0.0
C2934 C 0.82772 0.28424 0.16039 0.0
C2935 C 0.90239 0.28292 0.21106 0.0
C2936 C 0.84551 0.31805 0.23921 0.0
C2937 C 0.8333 0.30015 0.24888 0.0
C2938 C 0.85704 0.31321 0.2194 0.0
C2939 C 0.85639 0.29003 0.20918 0.0
C2940 C 0.8451 0.2721 0.21995 0.0
C2941 C 0.83374 0.27738 0.23946 0.0
C2942 C 0.86942 0.33283 0.20888 0.0
C2943 C 0.84371 0.24708 0.20999 0.0
H2944 H 0.84761 0.27078 0.12245 0.0
H2945 H 0.9096 0.26699 0.16485 0.0
H2946 H 0.81804 0.27241 0.17075 0.0
H2947 H 0.82802 0.30206 0.16911 0.0
H2948 H 0.81879 0.28083 0.14075 0.0
H2949 H 0.91948 0.28173 0.20841 0.0
H2950 H 0.90339 0.29989 0.22264 0.0
H2951 H 0.89582 0.26951 0.22166 0.0
H2952 H 0.84557 0.33568 0.24663 0.0
H2953 H 0.82478 0.26337 0.2471 0.0
H2954 H 0.86084 0.33234 0.18965 0.0
H2955 H 0.8866 0.33101 0.20764 0.0
H2956 H 0.8704 0.34984 0.22038 0.0
H2957 H 0.83101 0.24124 0.19262 0.0
H2958 H 0.83878 0.23593 0.2236 0.0
H2959 H 0.85984 0.24453 0.20529 0.0
C2960 C 0.14165 0.54593 0.42818 0.0
C2961 C 0.12608 0.53506 0.40654 0.0
C2962 C 0.13467 0.55251 0.4508 0.0
C2963 C 0.11157 0.54756 0.45188 0.0
C2964 C 0.09579 0.5364 0.43001 0.0
C2965 C 0.10325 0.5306 0.40746 0.0
C2966 C 0.15198 0.56499 0.47346 0.0
C2967 C 0.07105 0.53058 0.43046 0.0
C2968 C 0.09715 0.54412 0.51637 0.0
C2969 C 0.09173 0.56518 0.52285 0.0
C2970 C 0.10309 0.53796 0.49305 0.0
C2971 C 0.10407 0.55349 0.4761 0.0
C2972 C 0.09857 0.57488 0.48271 0.0
C2973 C 0.09223 0.58037 0.50598 0.0
C2974 C 0.10847 0.51488 0.48656 0.0
C2975 C 0.10003 0.59225 0.46558 0.0
H2976 H 0.1593 0.5498 0.42721 0.0
H2977 H 0.09126 0.52252 0.39055 0.0
H2978 H 0.1482 0.58147 0.48105 0.0
H2979 H 0.15153 0.55449 0.48838 0.0
H2980 H 0.16916 0.5687 0.46917 0.0
H2981 H 0.06102 0.52131 0.41205 0.0
H2982 H 0.0675 0.51972 0.44468 0.0
H2983 H 0.06552 0.54656 0.43587 0.0
H2984 H 0.09655 0.53242 0.52953 0.0
H2985 H 0.08801 0.59669 0.5112 0.0
H2986 H 0.12619 0.51737 0.48431 0.0
H2987 H 0.09804 0.50527 0.46851 0.0
H2988 H 0.10566 0.50427 0.5011 0.0
H2989 H 0.1178 0.59912 0.46445 0.0
H2990 H 0.09293 0.6069 0.47225 0.0
H2991 H 0.09115 0.58404 0.44639 0.0
C2992 C 0.8404 0.93529 0.69723 0.0
C2993 C 0.84449 0.95811 0.71005 0.0
C2994 C 0.83481 0.91669 0.70912 0.0
C2995 C 0.83275 0.92082 0.73446 0.0
C2996 C 0.83542 0.94363 0.7473 0.0
C2997 C 0.84147 0.96219 0.73492 0.0
C2998 C 0.83238 0.89264 0.69482 0.0
C2999 C 0.83289 0.94842 0.77432 0.0
C3000 C 0.80726 0.86708 0.75764 0.0
C3001 C 0.82649 0.86054 0.76737 0.0
C3002 C 0.80894 0.88723 0.74758 0.0
C3003 C 0.83034 0.90119 0.74773 0.0
C3004 C 0.84977 0.89463 0.75755 0.0
C3005 C 0.84761 0.87417 0.76684 0.0
C3006 C 0.78792 0.89357 0.73681 0.0
C3007 C 0.87291 0.90913 0.7581 0.0
H3008 H 0.84234 0.93176 0.67786 0.0
H3009 H 0.84436 0.97973 0.74481 0.0
H3010 H 0.84592 0.88524 0.70304 0.0
H3011 H 0.81627 0.88124 0.69624 0.0
H3012 H 0.8332 0.89236 0.67474 0.0
H3013 H 0.83246 0.96662 0.78055 0.0
H3014 H 0.81738 0.937 0.77736 0.0
H3015 H 0.84712 0.94473 0.78624 0.0
H3016 H 0.79095 0.85675 0.75855 0.0
H3017 H 0.86255 0.86951 0.77484 0.0
H3018 H 0.78722 0.89331 0.71649 0.0
H3019 H 0.78802 0.91133 0.74558 0.0
H3020 H 0.77258 0.88162 0.73953 0.0
H3021 H 0.87622 0.9086 0.73875 0.0
H3022 H 0.88612 0.90304 0.76909 0.0
H3023 H 0.8742 0.92736 0.76626 0.0
C3024 C 0.68698 0.47437 0.57962 0.0
C3025 C 0.70025 0.4713 0.60111 0.0
C3026 C 0.67265 0.48946 0.58116 0.0
C3027 C 0.6713 0.50162 0.6048 0.0
C3028 C 0.68459 0.49851 0.62653 0.0
C3029 C 0.69896 0.48356 0.62441 0.0
C3030 C 0.65912 0.49256 0.55744 0.0
C3031 C 0.68341 0.51079 0.65211 0.0
C3032 C 0.64659 0.55447 0.60853 0.0
C3033 C 0.62424 0.54479 0.6096 0.0
C3034 C 0.66213 0.54068 0.60691 0.0
C3035 C 0.65526 0.51676 0.60696 0.0
C3036 C 0.63287 0.50715 0.60888 0.0
C3037 C 0.61762 0.52118 0.60991 0.0
C3038 C 0.68561 0.55151 0.60403 0.0
C3039 C 0.62486 0.48185 0.60923 0.0
H3040 H 0.68804 0.46522 0.5615 0.0
H3041 H 0.70915 0.48139 0.64114 0.0
H3042 H 0.64112 0.48911 0.55868 0.0
H3043 H 0.66432 0.51066 0.55487 0.0
H3044 H 0.6612 0.48105 0.54068 0.0
H3045 H 0.69525 0.50706 0.66712 0.0
H3046 H 0.68717 0.52966 0.65279 0.0
H3047 H 0.66622 0.5055 0.65598 0.0
H3048 H 0.65163 0.57255 0.60751 0.0
H3049 H 0.60028 0.51356 0.61035 0.0
H3050 H 0.68894 0.54352 0.58589 0.0
H3051 H 0.69787 0.54829 0.61894 0.0
H3052 H 0.68847 0.57038 0.60477 0.0
H3053 H 0.6278 0.47135 0.59228 0.0
H3054 H 0.60682 0.47699 0.60999 0.0
H3055 H 0.63438 0.4774 0.62566 0.0
C3056 C 0.2116 0.08881 0.49359 0.0
C3057 C 0.21897 0.11058 0.48749 0.0
C3058 C 0.19392 0.08447 0.50686 0.0
C3059 C 0.18333 0.10226 0.51399 0.0
C3060 C 0.19004 0.12391 0.50695 0.0
C3061 C 0.20762 0.12772 0.49361 0.0
C3062 C 0.18705 0.06113 0.51392 0.0
C3063 C 0.17925 0.14338 0.5144 0.0
C3064 C 0.1253 0.08969 0.52961 0.0
C3065 C 0.12978 0.09723 0.55556 0.0
C3066 C 0.14266 0.09052 0.5159 0.0
C3067 C 0.16502 0.09845 0.52859 0.0
C3068 C 0.16967 0.1048 0.555 0.0
C3069 C 0.1519 0.10444 0.5682 0.0
C3070 C 0.13704 0.08408 0.48776 0.0
C3071 C 0.19336 0.11256 0.5692 0.0
H3072 H 0.22032 0.07549 0.48907 0.0
H3073 H 0.21323 0.14465 0.48917 0.0
H3074 H 0.18712 0.06299 0.53431 0.0
H3075 H 0.16975 0.05251 0.50432 0.0
H3076 H 0.19821 0.04981 0.50883 0.0
H3077 H 0.18595 0.15894 0.50677 0.0
H3078 H 0.16093 0.13782 0.50777 0.0
H3079 H 0.1821 0.14817 0.53507 0.0
H3080 H 0.10814 0.08407 0.51982 0.0
H3081 H 0.15528 0.1099 0.58832 0.0
H3082 H 0.14608 0.0712 0.48089 0.0
H3083 H 0.14255 0.09953 0.47947 0.0
H3084 H 0.11885 0.07696 0.48088 0.0
H3085 H 0.20282 0.09951 0.56409 0.0
H3086 H 0.1941 0.11544 0.58976 0.0
H3087 H 0.20192 0.12882 0.56407 0.0
C3088 C 0.27011 0.98975 0.8243 0.0
C3089 C 0.24835 0.99094 0.81419 0.0
C3090 C 0.2771 0.96853 0.82231 0.0
C3091 C 0.26239 0.94726 0.80933 0.0
C3092 C 0.24034 0.94841 0.79909 0.0
C3093 C 0.23366 0.9698 0.80179 0.0
C3094 C 0.30049 0.96894 0.83431 0.0
C3095 C 0.22363 0.92687 0.78501 0.0
C3096 C 0.28908 0.89698 0.78385 0.0
C3097 C 0.28596 0.88157 0.80071 0.0
C3098 C 0.28114 0.91765 0.78607 0.0
C3099 C 0.27017 0.92422 0.80616 0.0
C3100 C 0.26709 0.90867 0.82329 0.0
C3101 C 0.2747 0.88783 0.82026 0.0
C3102 C 0.28438 0.93251 0.76656 0.0
C3103 C 0.25618 0.9143 0.84544 0.0
H3104 H 0.28182 1.00557 0.83403 0.0
H3105 H 0.2168 0.97 0.79381 0.0
H3106 H 0.3 0.95623 0.84697 0.0
H3107 H 0.31003 0.96388 0.81972 0.0
H3108 H 0.30956 0.9862 0.84517 0.0
H3109 H 0.20781 0.9305 0.77648 0.0
H3110 H 0.23081 0.91815 0.77006 0.0
H3111 H 0.21972 0.91468 0.79788 0.0
H3112 H 0.29764 0.89275 0.76861 0.0
H3113 H 0.27226 0.87656 0.83374 0.0
H3114 H 0.29476 0.9499 0.77543 0.0
H3115 H 0.26797 0.93467 0.75781 0.0
H3116 H 0.29253 0.92511 0.75169 0.0
H3117 H 0.26717 0.92964 0.85839 0.0
H3118 H 0.25305 0.89985 0.85582 0.0
H3119 H 0.24011 0.91867 0.8394 0.0
C3120 C 0.31835 0.97925 0.05966 0.0
C3121 C 0.30929 0.96786 0.07746 0.0
C3122 C 0.34113 0.99015 0.06392 0.0
C3123 C 0.35506 0.98882 0.08613 0.0
C3124 C 0.34577 0.97756 0.10435 0.0
C3125 C 0.3228 0.96746 0.0999 0.0
C3126 C 0.35047 1.00214 0.04413 0.0
C3127 C 0.36006 0.97538 0.12803 0.0
C3128 C 0.41427 0.99409 0.0756 0.0
C3129 C 0.42368 0.01759 0.08481 0.0
C3130 C 0.39236 0.98399 0.07781 0.0
C3131 C 0.37951 0.99784 0.08907 0.0
C3132 C 0.38948 0.02105 0.10021 0.0
C3133 C 0.41154 0.03064 0.09805 0.0
C3134 C 0.38251 0.95886 0.06666 0.0
C3135 C 0.37639 0.03616 0.11286 0.0
H3136 H 0.30775 0.97907 0.04218 0.0
H3137 H 0.31557 0.95817 0.11339 0.0
H3138 H 0.36069 0.0197 0.05263 0.0
H3139 H 0.36157 0.99247 0.03548 0.0
H3140 H 0.33712 1.00351 0.02916 0.0
H3141 H 0.35097 0.96254 0.13782 0.0
H3142 H 0.37548 0.97033 0.124 0.0
H3143 H 0.36522 0.99225 0.14091 0.0
H3144 H 0.42353 0.98383 0.06541 0.0
H3145 H 0.41901 0.04863 0.10589 0.0
H3146 H 0.37014 0.95731 0.04952 0.0
H3147 H 0.3736 0.95002 0.07995 0.0
H3148 H 0.39547 0.94983 0.06167 0.0
H3149 H 0.36325 0.03906 0.09869 0.0
H3150 H 0.38717 0.05313 0.12265 0.0
H3151 H 0.36788 0.02758 0.12657 0.0
C3152 C 0.90012 0.68873 0.80144 0.0
C3153 C 0.92302 0.69884 0.80908 0.0
C3154 C 0.88438 0.70225 0.80059 0.0
C3155 C 0.8918 0.72659 0.80615 0.0
C3156 C 0.91513 0.73681 0.81347 0.0
C3157 C 0.93033 0.72278 0.81513 0.0
C3158 C 0.85982 0.69039 0.79469 0.0
C3159 C 0.92457 0.76245 0.82128 0.0
C3160 C 0.84981 0.76096 0.78487 0.0
C3161 C 0.84712 0.77229 0.80789 0.0
C3162 C 0.86386 0.74551 0.78376 0.0
C3163 C 0.87519 0.74117 0.8063 0.0
C3164 C 0.87102 0.75142 0.82948 0.0
C3165 C 0.85732 0.76694 0.82991 0.0
C3166 C 0.86639 0.73439 0.75824 0.0
C3167 C 0.88054 0.74583 0.85405 0.0
H3168 H 0.89441 0.67012 0.79718 0.0
H3169 H 0.94802 0.73062 0.82127 0.0
H3170 H 0.85047 0.69886 0.80747 0.0
H3171 H 0.85287 0.69146 0.77533 0.0
H3172 H 0.85684 0.67191 0.79619 0.0
H3173 H 0.93815 0.76816 0.81086 0.0
H3174 H 0.91194 0.77257 0.81853 0.0
H3175 H 0.93228 0.76643 0.84138 0.0
H3176 H 0.84181 0.76492 0.76779 0.0
H3177 H 0.85484 0.77528 0.84776 0.0
H3178 H 0.87978 0.72495 0.75864 0.0
H3179 H 0.86981 0.74765 0.74639 0.0
H3180 H 0.85033 0.72219 0.749 0.0
H3181 H 0.86986 0.72949 0.85676 0.0
H3182 H 0.88091 0.75952 0.87004 0.0
H3183 H 0.89771 0.74346 0.85472 0.0
C3184 C 0.84289 0.61116 0.0545 0.0
C3185 C 0.84186 0.61563 0.03012 0.0
C3186 C 0.86332 0.61257 0.0695 0.0
C3187 C 0.88314 0.61797 0.05964 0.0
C3188 C 0.88237 0.62349 0.03544 0.0
C3189 C 0.86164 0.62244 0.02096 0.0
C3190 C 0.8636 0.60722 0.09551 0.0
C3191 C 0.90327 0.62926 0.02436 0.0
C3192 C 0.93896 0.62526 0.10174 0.0
C3193 C 0.94152 0.60269 0.0972 0.0
C3194 C 0.9198 0.63072 0.08986 0.0
C3195 C 0.90361 0.61328 0.0726 0.0
C3196 C 0.90638 0.59053 0.06808 0.0
C3197 C 0.92521 0.5855 0.08069 0.0
C3198 C 0.91706 0.65505 0.09539 0.0
C3199 C 0.88961 0.57151 0.04962 0.0
H3200 H 0.82769 0.60675 0.06206 0.0
H3201 H 0.86088 0.62649 1.00236 0.0
H3202 H 0.86828 0.59061 0.09618 0.0
H3203 H 0.87631 0.62069 0.1092 0.0
H3204 H 0.84711 0.60598 0.1014 0.0
H3205 H 0.90022 0.63599 0.00678 0.0
H3206 H 0.91659 0.64222 0.03785 0.0
H3207 H 0.90958 0.61356 0.02024 0.0
H3208 H 0.95204 0.63856 0.11412 0.0
H3209 H 0.92772 0.56822 0.07689 0.0
H3210 H 0.90025 0.65508 0.09988 0.0
H3211 H 0.91846 0.66307 0.07864 0.0
H3212 H 0.92989 0.66586 0.1112 0.0
H3213 H 0.87321 0.56849 0.05585 0.0
H3214 H 0.89492 0.55504 0.04746 0.0
H3215 H 0.88714 0.57657 0.03104 0.0
C3216 C 0.26518 0.13538 0.82102 0.0
C3217 C 0.2488 0.13024 0.83607 0.0
C3218 C 0.27444 0.15843 0.81782 0.0
C3219 C 0.26767 0.17769 0.83 0.0
C3220 C 0.25138 0.17262 0.84548 0.0
C3221 C 0.24225 0.14945 0.84814 0.0
C3222 C 0.29129 0.16214 0.80077 0.0
C3223 C 0.24302 0.19173 0.85899 0.0
C3224 C 0.30483 0.24082 0.83698 0.0
C3225 C 0.29349 0.25015 0.81845 0.0
C3226 C 0.2967 0.21778 0.84104 0.0
C3227 C 0.27687 0.20275 0.82592 0.0
C3228 C 0.2656 0.21208 0.80702 0.0
C3229 C 0.27372 0.23526 0.80383 0.0
C3230 C 0.30914 0.20964 0.86211 0.0
C3231 C 0.24476 0.19745 0.78986 0.0
H3232 H 0.27044 0.12122 0.81108 0.0
H3233 H 0.22953 0.14641 0.85963 0.0
H3234 H 0.28525 0.17093 0.7858 0.0
H3235 H 0.30725 0.17354 0.81146 0.0
H3236 H 0.29458 0.14574 0.792 0.0
H3237 H 0.23276 0.1858 0.87281 0.0
H3238 H 0.25724 0.20616 0.86878 0.0
H3239 H 0.23263 0.19856 0.84526 0.0
H3240 H 0.31982 0.25178 0.84888 0.0
H3241 H 0.26446 0.24175 0.78945 0.0
H3242 H 0.31447 0.194 0.85473 0.0
H3243 H 0.29789 0.20483 0.87544 0.0
H3244 H 0.3241 0.22299 0.8724 0.0
H3245 H 0.24863 0.1821 0.77935 0.0
H3246 H 0.23759 0.20697 0.77627 0.0
H3247 H 0.2319 0.19114 0.80089 0.0
C3248 C 0.42635 0.07777 0.33445 0.0
C3249 C 0.43242 0.08741 0.31413 0.0
C3250 C 0.41295 0.05546 0.33081 0.0
C3251 C 0.40607 0.04236 0.30628 0.0
C3252 C 0.41216 0.05205 0.28564 0.0
C3253 C 0.42496 0.07476 0.28981 0.0
C3254 C 0.40651 0.04577 0.35327 0.0
C3255 C 0.40542 0.03861 0.25923 0.0
C3256 C 0.39148 0.97936 0.30909 0.0
C3257 C 0.36845 0.97555 0.30892 0.0
C3258 C 0.40383 1.00067 0.30604 0.0
C3259 C 0.3928 0.01843 0.30283 0.0
C3260 C 0.36932 0.014 0.30029 0.0
C3261 C 0.35737 0.99257 0.30349 0.0
C3262 C 0.42882 1.00466 0.30784 0.0
C3263 C 0.35703 0.03244 0.29614 0.0
H3264 H 0.43219 0.08768 0.35323 0.0
H3265 H 0.42994 0.08227 0.27413 0.0
H3266 H 0.38807 0.0397 0.35076 0.0
H3267 H 0.41367 0.03071 0.3552 0.0
H3268 H 0.41246 0.05862 0.3709 0.0
H3269 H 0.41698 0.04553 0.24702 0.0
H3270 H 0.40499 0.0201 0.25849 0.0
H3271 H 0.38844 0.03996 0.25143 0.0
H3272 H 0.39996 0.96595 0.3125 0.0
H3273 H 0.33955 0.98968 0.30322 0.0
H3274 H 0.43732 0.01645 0.32563 0.0
H3275 H 0.43425 1.01303 0.29235 0.0
H3276 H 0.43443 0.98839 0.30726 0.0
H3277 H 0.36119 0.04599 0.31319 0.0
H3278 H 0.33863 0.02549 0.29179 0.0
H3279 H 0.36237 0.04073 0.28058 0.0
C3280 C 0.55847 0.37497 0.68804 0.0
C3281 C 0.57498 0.36256 0.68743 0.0
C3282 C 0.55761 0.39193 0.67336 0.0
C3283 C 0.57381 0.39674 0.65796 0.0
C3284 C 0.59084 0.38464 0.65769 0.0
C3285 C 0.59113 0.36757 0.67232 0.0
C3286 C 0.53912 0.40445 0.67401 0.0
C3287 C 0.60876 0.38979 0.64206 0.0
C3288 C 0.55556 0.42405 0.60346 0.0
C3289 C 0.56361 0.44748 0.61374 0.0
C3290 C 0.55961 0.40722 0.61729 0.0
C3291 C 0.57239 0.41409 0.64173 0.0
C3292 C 0.58194 0.4377 0.65146 0.0
C3293 C 0.57707 0.45416 0.63751 0.0
C3294 C 0.54914 0.38219 0.60629 0.0
C3295 C 0.5964 0.44569 0.67703 0.0
H3296 H 0.54595 0.37114 0.69965 0.0
H3297 H 0.60408 0.35816 0.67194 0.0
H3298 H 0.54633 0.42323 0.68001 0.0
H3299 H 0.52911 0.4017 0.65499 0.0
H3300 H 0.52778 0.3986 0.6869 0.0
H3301 H 0.62055 0.37844 0.64351 0.0
H3302 H 0.60111 0.38772 0.62215 0.0
H3303 H 0.61839 0.40796 0.64815 0.0
H3304 H 0.54513 0.4189 0.5851 0.0
H3305 H 0.5836 0.47232 0.6453 0.0
H3306 H 0.53637 0.37525 0.61717 0.0
H3307 H 0.56191 0.37196 0.60753 0.0
H3308 H 0.54103 0.37965 0.58644 0.0
H3309 H 0.58566 0.44455 0.69149 0.0
H3310 H 0.60616 0.4638 0.67957 0.0
H3311 H 0.60816 0.43459 0.68026 0.0
C3312 C 0.49396 0.84023 0.37636 0.0
C3313 C 0.50884 0.84318 0.3593 0.0
C3314 C 0.47081 0.83964 0.36974 0.0
C3315 C 0.46149 0.84102 0.34497 0.0
C3316 C 0.47635 0.84323 0.3275 0.0
C3317 C 0.49959 0.84478 0.33491 0.0
C3318 C 0.45641 0.83801 0.3896 0.0
C3319 C 0.46766 0.84426 0.3008 0.0
C3320 C 0.39665 0.82236 0.32158 0.0
C3321 C 0.39051 0.84356 0.32288 0.0
C3322 C 0.41934 0.82119 0.32874 0.0
C3323 C 0.43677 0.84162 0.33762 0.0
C3324 C 0.43051 0.86296 0.33908 0.0
C3325 C 0.40786 0.86363 0.33179 0.0
C3326 C 0.42461 0.79792 0.32705 0.0
C3327 C 0.44776 0.88534 0.34897 0.0
H3328 H 0.50062 0.83929 0.39536 0.0
H3329 H 0.5106 0.84712 0.32141 0.0
H3330 H 0.4466 0.8513 0.38977 0.0
H3331 H 0.44435 0.82097 0.38542 0.0
H3332 H 0.46644 0.84016 0.40853 0.0
H3333 H 0.48063 0.84404 0.28887 0.0
H3334 H 0.4532 0.82944 0.29285 0.0
H3335 H 0.46168 0.86018 0.30011 0.0
H3336 H 0.38368 0.80661 0.3153 0.0
H3337 H 0.4037 0.88021 0.3334 0.0
H3338 H 0.43038 0.79505 0.34609 0.0
H3339 H 0.43839 0.7972 0.3164 0.0
H3340 H 0.40989 0.78373 0.31798 0.0
H3341 H 0.45506 0.8858 0.36869 0.0
H3342 H 0.44063 0.90058 0.3481 0.0
H3343 H 0.46161 0.88669 0.33819 0.0
C3344 C 0.06339 0.7325 0.21812 0.0
C3345 C 0.05134 0.74632 0.20653 0.0
C3346 C 0.06811 0.71338 0.20413 0.0
C3347 C 0.06006 0.70766 0.17806 0.0
C3348 C 0.04705 0.72097 0.16644 0.0
C3349 C 0.04307 0.74035 0.18079 0.0
C3350 C 0.08229 0.69975 0.2171 0.0
C3351 C 0.03756 0.71486 0.13883 0.0
C3352 C 0.08686 0.66889 0.13728 0.0
C3353 C 0.072 0.64744 0.13517 0.0
C3354 C 0.08324 0.68879 0.15125 0.0
C3355 C 0.06432 0.68706 0.16316 0.0
C3356 C 0.04924 0.66552 0.16088 0.0
C3357 C 0.05326 0.64607 0.14698 0.0
C3358 C 0.09964 0.71162 0.15337 0.0
C3359 C 0.02889 0.66293 0.17329 0.0
H3360 H 0.07024 0.73738 0.23792 0.0
H3361 H 0.03388 0.75114 0.17181 0.0
H3362 H 0.07307 0.68146 0.21424 0.0
H3363 H 0.09762 0.7002 0.20888 0.0
H3364 H 0.08728 0.70652 0.23749 0.0
H3365 H 0.02793 0.7271 0.13262 0.0
H3366 H 0.05124 0.71471 0.12793 0.0
H3367 H 0.02639 0.69729 0.13432 0.0
H3368 H 0.10134 0.6701 0.12823 0.0
H3369 H 0.0415 0.62966 0.14544 0.0
H3370 H 0.10648 0.71917 0.17332 0.0
H3371 H 0.09099 0.72387 0.14548 0.0
H3372 H 0.11374 0.71001 0.14346 0.0
H3373 H 0.03417 0.66746 0.19388 0.0
H3374 H 1.01814 0.64513 0.1685 0.0
H3375 H 1.01872 0.67491 0.1677 0.0
C3376 C 0.14946 0.32502 0.84372 0.0
C3377 C 0.14583 0.3345 0.86736 0.0
C3378 C 0.17132 0.32551 0.83842 0.0
C3379 C 0.19064 0.3349 0.85732 0.0
C3380 C 0.18707 0.34437 0.88132 0.0
C3381 C 0.16503 0.34442 0.88585 0.0
C3382 C 0.17374 0.31572 0.81238 0.0
C3383 C 0.20661 0.35439 0.90243 0.0
C3384 C 0.24518 0.31455 0.85009 0.0
C3385 C 0.25787 0.33205 0.84007 0.0
C3386 C 0.22359 0.31522 0.8556 0.0
C3387 C 0.21426 0.3343 0.85206 0.0
C3388 C 0.22748 0.35245 0.84283 0.0
C3389 C 0.24861 0.35085 0.83646 0.0
C3390 C 0.21054 0.29519 0.86495 0.0
C3391 C 0.21924 0.37364 0.83946 0.0
H3392 H 0.13507 0.31731 0.82911 0.0
H3393 H 0.16282 0.35166 0.9043 0.0
H3394 H 0.18529 0.3287 0.80502 0.0
H3395 H 0.18113 0.30064 0.81285 0.0
H3396 H 0.15748 0.31028 0.79929 0.0
H3397 H 0.20121 0.35918 0.92049 0.0
H3398 H 0.21709 0.34189 0.90461 0.0
H3399 H 0.21728 0.36997 0.89807 0.0
H3400 H 0.25186 0.29981 0.85289 0.0
H3401 H 0.25811 0.36461 0.82891 0.0
H3402 H 0.1944 0.28758 0.85203 0.0
H3403 H 0.20663 0.30122 0.88349 0.0
H3404 H 0.21976 0.28153 0.86661 0.0
H3405 H 0.20449 0.36902 0.8242 0.0
H3406 H 0.23224 0.38728 0.83484 0.0
H3407 H 0.21383 0.38074 0.85673 0.0
C3408 C 0.5875 0.81569 0.03674 0.0
C3409 C 0.60434 0.8171 0.02227 0.0
C3410 C 0.57591 0.79421 0.04039 0.0
C3411 C 0.58121 0.77406 0.02884 0.0
C3412 C 0.59641 0.77552 0.01196 0.0
C3413 C 0.60818 0.79716 0.00926 0.0
C3414 C 0.55966 0.79324 0.05837 0.0
C3415 C 0.6018 0.75431 0.99857 0.0
C3416 C 0.58768 0.72877 0.06717 0.0
C3417 C 0.56908 0.71093 0.05614 0.0
C3418 C 0.59116 0.74972 0.05899 0.0
C3419 C 0.57574 0.75272 0.03899 0.0
C3420 C 0.5566 0.73485 0.02799 0.0
C3421 C 0.55334 0.71405 0.03697 0.0
C3422 C 0.61165 0.76846 0.07149 0.0
C3423 C 0.53972 0.73762 0.00685 0.0
H3424 H 0.58433 0.83135 0.04631 0.0
H3425 H 0.62079 0.79853 0.99746 0.0
H3426 H 0.54489 0.77858 0.05137 0.0
H3427 H 0.56792 0.79059 0.07657 0.0
H3428 H 0.55394 0.80942 0.06162 0.0
H3429 H 0.61099 0.7581 0.98317 0.0
H3430 H 0.61233 0.74734 0.01204 0.0
H3431 H 0.5863 0.74072 0.99076 0.0
H3432 H 0.59955 0.72629 0.08234 0.0
H3433 H 0.53885 0.70012 0.02874 0.0
H3434 H 0.60669 0.78438 0.07868 0.0
H3435 H 0.62262 0.7726 0.05772 0.0
H3436 H 0.62152 0.76345 0.08729 0.0
H3437 H 0.53017 0.74985 0.01412 0.0
H3438 H 0.52771 0.72103 0.99801 0.0
H3439 H 0.54815 0.74491 0.99233 0.0
C3440 C 0.08762 0.77304 0.64191 0.0
C3441 C 0.07234 0.78586 0.6482 0.0
C3442 C 0.10824 0.77637 0.65769 0.0
C3443 C 0.11359 0.79305 0.67998 0.0
C3444 C 0.09875 0.80687 0.68569 0.0
C3445 C 0.07831 0.80315 0.66967 0.0
C3446 C 0.12383 0.76136 0.65111 0.0
C3447 C 0.10412 0.82497 0.70919 0.0
C3448 C 0.15363 0.78128 0.73186 0.0
C3449 C 0.17387 0.79451 0.72839 0.0
C3450 C 0.13364 0.78126 0.71671 0.0
C3451 C 0.13414 0.79508 0.69804 0.0
C3452 C 0.15445 0.8098 0.69582 0.0
C3453 C 0.17424 0.80914 0.71093 0.0
C3454 C 0.11226 0.76533 0.7196 0.0
C3455 C 0.15549 0.82516 0.67653 0.0
H3456 H 0.08312 0.7598 0.62527 0.0
H3457 H 0.0667 0.81341 0.67441 0.0
H3458 H 0.14057 0.7722 0.65084 0.0
H3459 H 0.126 0.75064 0.66557 0.0
H3460 H 0.11754 0.74979 0.63266 0.0
H3461 H 0.09063 0.83417 0.71096 0.0
H3462 H 0.10677 0.81691 0.72587 0.0
H3463 H 0.11986 0.83775 0.70932 0.0
H3464 H 0.15365 0.76982 0.74527 0.0
H3465 H 0.19013 0.81923 0.70838 0.0
H3466 H 0.10651 0.75134 0.70296 0.0
H3467 H 0.09889 0.77473 0.72078 0.0
H3468 H 0.11445 0.75742 0.73649 0.0
H3469 H 0.15278 0.81445 0.65766 0.0
H3470 H 0.17189 0.83782 0.67966 0.0
H3471 H 0.14211 0.83463 0.67671 0.0
C3472 C 0.12373 0.45478 0.54307 0.0
C3473 C 0.13959 0.44716 0.55814 0.0
C3474 C 0.11404 0.47176 0.55336 0.0
C3475 C 0.12183 0.48234 0.57867 0.0
C3476 C 0.14014 0.47705 0.59283 0.0
C3477 C 0.14855 0.45892 0.58249 0.0
C3478 C 0.09381 0.47627 0.53807 0.0
C3479 C 0.1492 0.48891 0.61956 0.0
C3480 C 0.10242 0.53555 0.595 0.0
C3481 C 0.083 0.52733 0.60378 0.0
C3482 C 0.11615 0.52146 0.58813 0.0
C3483 C 0.11009 0.49824 0.59042 0.0
C3484 C 0.09097 0.48976 0.6007 0.0
C3485 C 0.0773 0.50451 0.60697 0.0
C3486 C 0.13563 0.53083 0.57592 0.0
C3487 C 0.0839 0.46482 0.60305 0.0
H3488 H 0.11654 0.4452 0.52436 0.0
H3489 H 0.16062 0.45262 0.59405 0.0
H3490 H 0.07853 0.4679 0.54455 0.0
H3491 H 0.09454 0.49492 0.54052 0.0
H3492 H 0.09204 0.46923 0.51786 0.0
H3493 H 0.16505 0.48468 0.62696 0.0
H3494 H 0.15216 0.50786 0.62118 0.0
H3495 H 0.1367 0.48352 0.6314 0.0
H3496 H 0.10562 0.55238 0.59104 0.0
H3497 H 0.06172 0.49798 0.61308 0.0
H3498 H 0.13213 0.5227 0.55587 0.0
H3499 H 0.15101 0.52659 0.5847 0.0
H3500 H 0.13884 0.54978 0.57717 0.0
H3501 H 0.07535 0.45444 0.58453 0.0
H3502 H 0.07214 0.46236 0.6164 0.0
H3503 H 0.09856 0.45811 0.60929 0.0
C3504 C 0.48733 0.29309 0.2013 0.0
C3505 C 0.47651 0.27263 0.18484 0.0
C3506 C 0.47849 0.30016 0.22228 0.0
C3507 C 0.45801 0.28676 0.22607 0.0
C3508 C 0.44721 0.26592 0.20934 0.0
C3509 C 0.45701 0.25882 0.18922 0.0
C3510 C 0.49077 0.32213 0.24012 0.0
C3511 C 0.42539 0.25087 0.2122 0.0
C3512 C 0.44224 0.30373 0.28896 0.0
C3513 C 0.42929 0.31921 0.28335 0.0
C3514 C 0.45113 0.29216 0.27027 0.0
C3515 C 0.44682 0.29626 0.24561 0.0
C3516 C 0.43293 0.31103 0.23967 0.0
C3517 C 0.42432 0.32233 0.25863 0.0
C3518 C 0.46563 0.27621 0.27715 0.0
C3519 C 0.4276 0.31531 0.21335 0.0
H3520 H 0.50293 0.30322 0.19805 0.0
H3521 H 0.44917 0.24265 0.17657 0.0
H3522 H 0.48012 0.33466 0.24078 0.0
H3523 H 0.49445 0.31852 0.25926 0.0
H3524 H 0.50674 0.33023 0.23472 0.0
H3525 H 0.41512 0.24239 0.19364 0.0
H3526 H 0.42903 0.23699 0.22201 0.0
H3527 H 0.41537 0.26052 0.22277 0.0
H3528 H 0.44584 0.30107 0.30802 0.0
H3529 H 0.41363 0.33364 0.25408 0.0
H3530 H 0.48345 0.28554 0.28004 0.0
H3531 H 0.46289 0.26102 0.26204 0.0
H3532 H 0.46238 0.27011 0.29468 0.0
H3533 H 0.44318 0.32368 0.20742 0.0
H3534 H 0.41566 0.32647 0.21165 0.0
H3535 H 0.42035 0.29871 0.20025 0.0
C3536 C 0.63942 0.56887 0.41053 0.0
C3537 C 0.66246 0.56969 0.41433 0.0
C3538 C 0.62692 0.56787 0.43031 0.0
C3539 C 0.6376 0.56885 0.45522 0.0
C3540 C 0.66086 0.56948 0.45911 0.0
C3541 C 0.67276 0.56939 0.43875 0.0
C3542 C 0.60211 0.56583 0.42448 0.0
C3543 C 0.67339 0.57071 0.485 0.0
C3544 C 0.61206 0.59432 0.51032 0.0
C3545 C 0.60246 0.57494 0.51988 0.0
C3546 C 0.62302 0.59247 0.48935 0.0
C3547 C 0.62487 0.57065 0.47721 0.0
C3548 C 0.61491 0.55093 0.48664 0.0
C3549 C 0.60407 0.55332 0.50775 0.0
C3550 C 0.63348 0.61416 0.48075 0.0
C3551 C 0.61585 0.52718 0.4746 0.0
H3552 H 0.63101 0.56867 0.39185 0.0
H3553 H 0.69044 0.56993 0.44217 0.0
H3554 H 0.59301 0.55143 0.4323 0.0
H3555 H 0.59821 0.58182 0.4334 0.0
H3556 H 0.59575 0.56282 0.40407 0.0
H3557 H 0.69158 0.5726 0.48542 0.0
H3558 H 0.67095 0.58548 0.49799 0.0
H3559 H 0.66671 0.55488 0.49211 0.0
H3560 H 0.61173 0.6112 0.51991 0.0
H3561 H 0.59744 0.53823 0.5153 0.0
H3562 H 0.62661 0.61317 0.46079 0.0
H3563 H 0.65176 0.61593 0.48235 0.0
H3564 H 0.63058 0.6298 0.49181 0.0
H3565 H 0.60585 0.52278 0.45545 0.0
H3566 H 0.60926 0.51383 0.48531 0.0
H3567 H 0.63326 0.52665 0.47284 0.0
C3568 C 0.25351 0.8635 0.1284 0.0
C3569 C 0.26179 0.88629 0.12583 0.0
C3570 C 0.2622 0.85507 0.14932 0.0
C3571 C 0.28019 0.86949 0.16745 0.0
C3572 C 0.28897 0.89231 0.16435 0.0
C3573 C 0.27944 0.90049 0.14386 0.0
C3574 C 0.25174 0.83099 0.15241 0.0
C3575 C 0.30854 0.90812 0.18265 0.0
C3576 C 0.28947 0.86103 0.23493 0.0
C3577 C 0.30676 0.84945 0.23583 0.0
C3578 C 0.28022 0.86681 0.21268 0.0
C3579 C 0.28883 0.86152 0.19064 0.0
C3580 C 0.30634 0.84983 0.19133 0.0
C3581 C 0.31483 0.84352 0.21384 0.0
C3582 C 0.26135 0.87885 0.21292 0.0
C3583 C 0.31643 0.84449 0.16843 0.0
H3584 H 0.23994 0.8525 0.11439 0.0
H3585 H 0.28616 0.918 0.1416 0.0
H3586 H 0.26456 0.82085 0.15395 0.0
H3587 H 0.24485 0.83165 0.16998 0.0
H3588 H 0.23808 0.82186 0.13659 0.0
H3589 H 0.31358 0.92527 0.17737 0.0
H3590 H 0.30434 0.91063 0.20165 0.0
H3591 H 0.32305 0.9002 0.18366 0.0
H3592 H 0.28279 0.86534 0.25171 0.0
H3593 H 0.32811 0.83451 0.21438 0.0
H3594 H 0.24719 0.86977 0.19767 0.0
H3595 H 0.26706 0.89663 0.20962 0.0
H3596 H 0.25518 0.87977 0.23095 0.0
H3597 H 0.30344 0.83318 0.15316 0.0
H3598 H 0.33029 0.83589 0.1721 0.0
H3599 H 0.32288 0.86061 0.16169 0.0
C3600 C 1.01985 0.61375 0.9214 0.0
C3601 C 0.02965 0.63447 0.91454 0.0
C3602 C 0.02675 0.60883 0.94503 0.0
C3603 C 0.04454 0.62466 0.96207 0.0
C3604 C 0.05502 0.64536 0.9549 0.0
C3605 C 0.04716 0.65024 0.93137 0.0
C3606 C 1.01446 0.58698 0.95203 0.0
C3607 C 0.0745 0.6623 0.97209 0.0
C3608 C 0.04228 0.61984 0.02984 0.0
C3609 C 0.05663 0.6055 0.03453 0.0
C3610 C 0.03944 0.62749 0.00699 0.0
C3611 C 0.05081 0.62011 0.98791 0.0
C3612 C 0.06617 0.60637 0.99297 0.0
C3613 C 0.06905 0.59934 0.01638 0.0
C3614 C 1.02314 0.64231 1.00278 0.0
C3615 C 0.07848 0.59793 0.97316 0.0
H3616 H 1.00617 0.60163 0.90846 0.0
H3617 H 0.05487 0.66619 0.926 0.0
H3618 H 0.02634 0.57661 0.95762 0.0
H3619 H 1.00646 0.59131 0.96832 0.0
H3620 H 1.00131 0.57625 0.93648 0.0
H3621 H 0.08057 0.67779 0.96405 0.0
H3622 H 0.06974 0.66784 0.9903 0.0
H3623 H 0.08846 0.65387 0.97589 0.0
H3624 H 0.03261 0.62447 0.04387 0.0
H3625 H 0.07988 0.58789 0.01984 0.0
H3626 H 1.00843 0.63239 0.98862 0.0
H3627 H 0.03095 0.65762 0.99544 0.0
H3628 H 1.01723 0.64824 0.02018 0.0
H3629 H 0.06656 0.58472 0.95842 0.0
H3630 H 0.09194 0.59016 0.98089 0.0
H3631 H 0.08586 0.61224 0.9641 0.0
C3632 C 0.29041 0.18142 0.57108 0.0
C3633 C 0.30459 0.18075 0.55357 0.0
C3634 C 0.29714 0.19701 0.59363 0.0
C3635 C 0.3188 0.21183 0.59893 0.0
C3636 C 0.33356 0.21063 0.58174 0.0
C3637 C 0.32613 0.19522 0.55893 0.0
C3638 C 0.28071 0.19817 0.61131 0.0
C3639 C 0.35701 0.22573 0.58738 0.0
C3640 C 0.32011 0.26598 0.64266 0.0
C3641 C 0.32578 0.25973 0.66574 0.0
C3642 C 0.31945 0.25113 0.62046 0.0
C3643 C 0.32496 0.22979 0.6216 0.0
C3644 C 0.33269 0.22434 0.64488 0.0
C3645 C 0.33273 0.23934 0.66685 0.0
C3646 C 0.31071 0.25732 0.59596 0.0
C3647 C 0.33916 0.20192 0.64669 0.0
H3648 H 0.27372 0.17022 0.5668 0.0
H3649 H 0.33717 0.19436 0.54541 0.0
H3650 H 0.28797 0.19561 0.62996 0.0
H3651 H 0.27709 0.21545 0.61373 0.0
H3652 H 0.26469 0.18503 0.60448 0.0
H3653 H 0.36667 0.22204 0.57239 0.0
H3654 H 0.35651 0.24412 0.58974 0.0
H3655 H 0.36598 0.22317 0.60525 0.0
H3656 H 0.31455 0.2817 0.64193 0.0
H3657 H 0.33728 0.23472 0.68484 0.0
H3658 H 0.29385 0.24603 0.58815 0.0
H3659 H 0.32164 0.25448 0.58214 0.0
H3660 H 0.30944 0.27551 0.59818 0.0
H3661 H 0.32385 0.18789 0.64422 0.0
H3662 H 0.34943 0.20266 0.66514 0.0
H3663 H 0.3486 0.19741 0.63178 0.0
C3664 C 0.65227 0.56028 0.27388 0.0
C3665 C 0.67133 0.55121 0.27526 0.0
C3666 C 0.64052 0.56259 0.25079 0.0
C3667 C 0.64779 0.55572 0.22814 0.0
C3668 C 0.66666 0.54603 0.2293 0.0
C3669 C 0.6781 0.5439 0.25265 0.0
C3670 C 0.62051 0.5729 0.25071 0.0
C3671 C 0.67537 0.53873 0.2059 0.0
C3672 C 0.60786 0.54473 0.16503 0.0
C3673 C 0.61341 0.56588 0.15702 0.0
C3674 C 0.61854 0.54133 0.18818 0.0
C3675 C 0.63599 0.55916 0.20341 0.0
C3676 C 0.64204 0.58036 0.19496 0.0
C3677 C 0.63037 0.58362 0.17227 0.0
C3678 C 0.61098 0.51868 0.19644 0.0
C3679 C 0.66099 0.59964 0.20981 0.0
H3680 H 0.64681 0.56623 0.29099 0.0
H3681 H 0.69284 0.53706 0.25318 0.0
H3682 H 0.62389 0.5893 0.24361 0.0
H3683 H 0.60581 0.56112 0.23794 0.0
H3684 H 0.61624 0.57639 0.26961 0.0
H3685 H 0.68898 0.52977 0.20953 0.0
H3686 H 0.66172 0.52714 0.19154 0.0
H3687 H 0.68189 0.55412 0.19796 0.0
H3688 H 0.59477 0.53093 0.15337 0.0
H3689 H 0.63494 0.59992 0.1661 0.0
H3690 H 0.60584 0.5217 0.21493 0.0
H3691 H 0.62502 0.51013 0.19866 0.0
H3692 H 0.59677 0.50681 0.18295 0.0
H3693 H 0.65618 0.60679 0.22743 0.0
H3694 H 0.6655 0.61381 0.19934 0.0
H3695 H 0.67601 0.59308 0.21494 0.0
C3696 C 0.28333 0.8628 0.98365 0.0
C3697 C 0.26457 0.87185 0.98582 0.0
C3698 C 0.28811 0.85461 0.96019 0.0
C3699 C 0.27378 0.85526 0.93804 0.0
C3700 C 0.2547 0.86423 0.94 0.0
C3701 C 0.25031 0.87237 0.96382 0.0
C3702 C 0.30884 0.84562 0.95915 0.0
C3703 C 0.23894 0.86527 0.91694 0.0
C3704 C 0.30046 0.8532 0.87951 0.0
C3705 C 0.2942 0.82962 0.86923 0.0
C3706 C 0.29321 0.86194 0.90129 0.0
C3707 C 0.27917 0.84677 0.91302 0.0
C3708 C 0.27199 0.82307 0.90191 0.0
C3709 C 0.27976 0.81475 0.88027 0.0
C3710 C 0.30128 0.88729 0.91223 0.0
C3711 C 0.25666 0.80636 0.91337 0.0
H3712 H 0.29461 0.86242 1.00039 0.0
H3713 H 0.23586 0.87945 0.96518 0.0
H3714 H 0.30431 0.82769 0.94859 0.0
H3715 H 0.32017 0.85618 0.9491 0.0
H3716 H 0.31811 0.84592 0.97803 0.0
H3717 H 0.22606 0.8746 0.92145 0.0
H3718 H 0.24831 0.87386 0.90381 0.0
H3719 H 0.23042 0.84753 0.90706 0.0
H3720 H 0.31158 0.86473 0.87086 0.0
H3721 H 0.27482 0.79656 0.87221 0.0
H3722 H 0.31206 0.88969 0.93074 0.0
H3723 H 0.28691 0.89482 0.91521 0.0
H3724 H 0.31095 0.89701 0.90006 0.0
H3725 H 0.26552 0.8046 0.93167 0.0
H3726 H 0.25086 0.78906 0.90126 0.0
H3727 H 0.24186 0.81295 0.91685 0.0
C3728 C 0.03337 0.63582 0.77808 0.0
C3729 C 1.01337 0.64309 0.77602 0.0
C3730 C 0.04138 0.62756 0.75676 0.0
C3731 C 0.02922 0.62669 0.73275 0.0
C3732 C 1.00916 0.6342 0.73046 0.0
C3733 C 1.00149 0.64233 0.75209 0.0
C3734 C 0.06269 0.61941 0.75994 0.0
C3735 C 0.99553 0.63319 0.70515 0.0
C3736 C 0.0609 0.62623 0.67854 0.0
C3737 C 0.05392 0.60313 0.66682 0.0
C3738 C 0.05276 0.63415 0.69988 0.0
C3739 C 0.03778 0.61841 0.71 0.0
C3740 C 0.03093 0.59492 0.69826 0.0
C3741 C 0.03891 0.58762 0.67655 0.0
C3742 C 0.05976 0.65945 0.71129 0.0
C3743 C 1.01538 0.57745 0.70868 0.0
H3744 H 0.04256 0.63604 0.79641 0.0
H3745 H 0.98584 0.64754 0.75017 0.0
H3746 H 0.05946 0.60123 0.75039 0.0
H3747 H 0.07527 0.62977 0.75108 0.0
H3748 H 0.0699 0.6207 0.77989 0.0
H3749 H 0.98086 0.64068 0.70652 0.0
H3750 H 1.00606 0.64255 0.69345 0.0
H3751 H 0.98947 0.61503 0.69531 0.0
H3752 H 0.0722 0.63822 0.67055 0.0
H3753 H 0.03351 0.56976 0.66721 0.0
H3754 H 0.06792 0.66184 0.73108 0.0
H3755 H 0.0448 0.66664 0.71114 0.0
H3756 H 0.07146 0.66945 0.70114 0.0
H3757 H 1.02412 0.57491 0.7267 0.0
H3758 H 1.00973 0.56052 0.69582 0.0
H3759 H 1.00048 0.58367 0.71251 0.0
C3760 C 0.28667 0.19039 0.40638 0.0
C3761 C 0.29165 0.19586 0.43248 0.0
C3762 C 0.28984 0.20791 0.39211 0.0
C3763 C 0.29894 0.23106 0.40443 0.0
C3764 C 0.30521 0.23628 0.43072 0.0
C3765 C 0.30114 0.21866 0.44443 0.0
C3766 C 0.28286 0.20175 0.36407 0.0
C3767 C 0.31542 0.26066 0.44447 0.0
C3768 C 0.32117 0.27875 0.37046 0.0
C3769 C 0.30336 0.28955 0.36819 0.0
C3770 C 0.31974 0.25914 0.38145 0.0
C3771 C 0.30011 0.25031 0.39054 0.0
C3772 C 0.28223 0.26133 0.38861 0.0
C3773 C 0.28418 0.28098 0.37773 0.0
C3774 C 0.33904 0.24768 0.38294 0.0
C3775 C 0.26084 0.25209 0.39765 0.0
H3776 H 0.27938 0.17267 0.39727 0.0
H3777 H 0.30526 0.22273 0.46466 0.0
H3778 H 0.27243 0.21307 0.35724 0.0
H3779 H 0.29791 0.2044 0.35519 0.0
H3780 H 0.27333 0.18355 0.35778 0.0
H3781 H 0.32117 0.26148 0.46471 0.0
H3782 H 0.32985 0.26861 0.43632 0.0
H3783 H 0.30294 0.27117 0.44242 0.0
H3784 H 0.33591 0.28511 0.36277 0.0
H3785 H 0.27023 0.28902 0.37571 0.0
H3786 H 0.33352 0.22993 0.37194 0.0
H3787 H 0.3448 0.24635 0.40258 0.0
H3788 H 0.35339 0.25716 0.37569 0.0
H3789 H 0.25377 0.23377 0.38874 0.0
H3790 H 0.24805 0.26191 0.39346 0.0
H3791 H 0.26433 0.25282 0.41813 0.0
C3792 C 0.45508 0.68573 0.55516 0.0
C3793 C 0.43907 0.68015 0.57026 0.0
C3794 C 0.47125 0.67294 0.55231 0.0
C3795 C 0.47126 0.65398 0.56463 0.0
C3796 C 0.4551 0.64822 0.57982 0.0
C3797 C 0.43926 0.66138 0.58248 0.0
C3798 C 0.48845 0.67983 0.53629 0.0
C3799 C 0.45487 0.6285 0.5938 0.0
C3800 C 0.50299 0.60859 0.54545 0.0
C3801 C 0.52288 0.61644 0.56292 0.0
C3802 C 0.48619 0.62098 0.54527 0.0
C3803 C 0.48922 0.64126 0.56334 0.0
C3804 C 0.50927 0.64913 0.58098 0.0
C3805 C 0.52585 0.63687 0.58031 0.0
C3806 C 0.4651 0.61225 0.52599 0.0
C3807 C 0.51317 0.67036 0.60093 0.0
H3808 H 0.45506 0.70018 0.54565 0.0
H3809 H 0.42695 0.65686 0.59414 0.0
H3810 H 0.50549 0.68424 0.54766 0.0
H3811 H 0.4876 0.66515 0.52119 0.0
H3812 H 0.48606 0.69484 0.52773 0.0
H3813 H 0.44047 0.62546 0.60375 0.0
H3814 H 0.45419 0.61245 0.58072 0.0
H3815 H 0.47052 0.63219 0.6077 0.0
H3816 H 0.50051 0.59281 0.53208 0.0
H3817 H 0.54099 0.64306 0.59418 0.0
H3818 H 0.46254 0.62588 0.51522 0.0
H3819 H 0.45049 0.60808 0.53537 0.0
H3820 H 0.46555 0.59666 0.51277 0.0
H3821 H 0.51437 0.68581 0.59212 0.0
H3822 H 0.52874 0.67283 0.6147 0.0
H3823 H 0.49895 0.66928 0.61115 0.0
C3824 C 0.94847 0.0357 0.66988 0.0
C3825 C 0.92824 0.04149 0.66278 0.0
C3826 C 0.96591 0.04033 0.65648 0.0
C3827 C 0.96295 0.05084 0.6353 0.0
C3828 C 0.94297 0.05785 0.62879 0.0
C3829 C 0.92583 0.05323 0.64279 0.0
C3830 C 0.98693 0.03251 0.66399 0.0
C3831 C 0.93898 0.06848 0.60592 0.0
C3832 C 1.01711 0.0718 0.61277 0.0
C3833 C 1.0175 0.05239 0.59563 0.0
C3834 C 0.99866 0.0722 0.62469 0.0
C3835 C 0.98029 0.05277 0.61923 0.0
C3836 C 0.98004 0.03376 0.60066 0.0
C3837 C 0.99879 0.03373 0.58925 0.0
C3838 C 0.99937 0.09283 0.64418 0.0
C3839 C 0.96065 1.01281 0.59387 0.0
H3840 H 0.95011 0.02623 0.68503 0.0
H3841 H 0.9099 0.05703 0.63678 0.0
H3842 H 0.9883 0.01852 0.64922 0.0
H3843 H 1.00186 0.0469 0.66596 0.0
H3844 H 0.98717 0.02602 0.68187 0.0
H3845 H 0.92379 0.07537 0.60506 0.0
H3846 H 0.95356 0.08258 0.60554 0.0
H3847 H 0.93688 0.05528 0.58889 0.0
H3848 H 0.0316 0.08624 0.61765 0.0
H3849 H 0.999 0.01881 0.57576 0.0
H3850 H 1.00085 0.088 0.66292 0.0
H3851 H 0.98363 0.09859 0.64085 0.0
H3852 H 1.01366 0.10748 0.64434 0.0
H3853 H 0.96161 1.00209 0.60851 0.0
H3854 H 0.96086 1.0021 0.5757 0.0
H3855 H 0.94446 0.01777 0.59282 0.0
C3856 C 0.90296 0.16761 0.31113 0.0
C3857 C 0.89022 0.14751 0.29433 0.0
C3858 C 0.89578 0.18877 0.31474 0.0
C3859 C 0.8748 0.19059 0.30185 0.0
C3860 C 0.86196 0.17037 0.28483 0.0
C3861 C 0.86974 0.14961 0.28119 0.0
C3862 C 0.91083 0.20932 0.33261 0.0
C3863 C 0.83972 0.17065 0.27018 0.0
C3864 C 0.844 0.23738 0.32785 0.0
C3865 C 0.84905 0.25511 0.31396 0.0
C3866 C 0.85263 0.21711 0.32463 0.0
C3867 C 0.86619 0.21318 0.30623 0.0
C3868 C 0.87101 0.23092 0.29187 0.0
C3869 C 0.86292 0.25143 0.29619 0.0
C3870 C 0.84735 0.19981 0.34132 0.0
C3871 C 0.88491 0.22842 0.27176 0.0
H3872 H 0.91889 0.16697 0.32143 0.0
H3873 H 0.85946 0.13475 0.26801 0.0
H3874 H 0.91306 0.22474 0.32366 0.0
H3875 H 0.90299 0.21318 0.34914 0.0
H3876 H 0.92754 0.20641 0.33906 0.0
H3877 H 0.83139 0.15384 0.25787 0.0
H3878 H 0.82852 0.17505 0.28317 0.0
H3879 H 0.84204 0.18415 0.2585 0.0
H3880 H 0.83358 0.23955 0.34179 0.0
H3881 H 0.86712 0.26453 0.28501 0.0
H3882 H 0.86311 0.19785 0.35199 0.0
H3883 H 0.83863 0.18273 0.32984 0.0
H3884 H 0.83677 0.20493 0.35475 0.0
H3885 H 0.90257 0.23062 0.28056 0.0
H3886 H 0.88421 0.24139 0.25951 0.0
H3887 H 0.87923 0.21098 0.26 0.0
C3888 C 0.81863 0.1643 0.07376 0.0
C3889 C 0.82258 0.18113 0.05891 0.0
C3890 C 0.79684 0.15396 0.07609 0.0
C3891 C 0.77864 0.16045 0.06304 0.0
C3892 C 0.7824 0.17616 0.04658 0.0
C3893 C 0.80438 0.18628 0.04463 0.0
C3894 C 0.7934 0.13721 0.09383 0.0
C3895 C 0.76338 0.18357 0.03248 0.0
C3896 C 0.72232 0.12171 0.06311 0.0
C3897 C 0.71616 0.13317 0.08412 0.0
C3898 C 0.74213 0.13105 0.05508 0.0
C3899 C 0.756 0.15223 0.06846 0.0
C3900 C 0.74923 0.1645 0.08881 0.0
C3901 C 0.72938 0.15477 0.09643 0.0
C3902 C 0.7487 0.11781 0.03299 0.0
C3903 C 0.76355 0.18725 0.10349 0.0
H3904 H 0.83258 0.16019 0.08479 0.0
H3905 H 0.80727 0.19923 0.03301 0.0
H3906 H 0.78611 0.14455 0.10953 0.0
H3907 H 0.78141 0.12093 0.0841 0.0
H3908 H 0.80923 0.1332 0.10169 0.0
H3909 H 0.76881 0.19344 0.018 0.0
H3910 H 0.74962 0.16844 0.02339 0.0
H3911 H 0.75652 0.19465 0.04575 0.0
H3912 H 0.71185 0.10524 0.05324 0.0
H3913 H 0.72474 0.16363 0.11276 0.0
H3914 H 0.76378 0.11178 0.03936 0.0
H3915 H 0.75306 0.12912 0.01939 0.0
H3916 H 0.73518 0.10263 0.02329 0.0
H3917 H 0.77863 0.18431 0.11462 0.0
H3918 H 0.75452 0.19597 0.11647 0.0
H3919 H 0.7693 0.19897 0.09076 0.0
C3920 C 0.22365 0.45703 0.35005 0.0
C3921 C 0.21252 0.45735 0.32615 0.0
C3922 C 0.23917 0.44345 0.35346 0.0
C3923 C 0.24307 0.42911 0.3325 0.0
C3924 C 0.2315 0.42908 0.30835 0.0
C3925 C 0.21679 0.44355 0.30543 0.0
C3926 C 0.251 0.4447 0.37971 0.0
C3927 C 0.23412 0.41321 0.2856 0.0
C3928 C 0.29161 0.40001 0.33063 0.0
C3929 C 0.28144 0.37791 0.33402 0.0
C3930 C 0.2798 0.41746 0.3314 0.0
C3931 C 0.25749 0.41253 0.33569 0.0
C3932 C 0.24821 0.39079 0.34122 0.0
C3933 C 0.26004 0.3736 0.33978 0.0
C3934 C 0.29093 0.4409 0.32707 0.0
C3935 C 0.22521 0.3852 0.34731 0.0
H3936 H 0.22071 0.46793 0.36613 0.0
H3937 H 0.20823 0.44375 0.28692 0.0
H3938 H 0.26363 0.43431 0.38084 0.0
H3939 H 0.25944 0.4629 0.38806 0.0
H3940 H 0.23849 0.43882 0.39136 0.0
H3941 H 0.22374 0.41505 0.26822 0.0
H3942 H 0.25183 0.41676 0.28319 0.0
H3943 H 0.22928 0.39506 0.28817 0.0
H3944 H 0.30825 0.4033 0.32609 0.0
H3945 H 0.2523 0.35651 0.34254 0.0
H3946 H 0.28834 0.45451 0.34149 0.0
H3947 H 0.2833 0.44358 0.30862 0.0
H3948 H 0.30915 0.44296 0.3275 0.0
H3949 H 0.22355 0.39847 0.36265 0.0
H3950 H 0.22114 0.3682 0.3531 0.0
H3951 H 0.21322 0.38531 0.33048 0.0
C3952 C 0.29799 0.54448 0.15373 0.0
C3953 C 0.30711 0.52673 0.14371 0.0
C3954 C 0.27806 0.54794 0.14147 0.0
C3955 C 0.26697 0.53322 0.11866 0.0
C3956 C 0.27591 0.51506 0.10853 0.0
C3957 C 0.29598 0.51208 0.12115 0.0
C3958 C 0.26893 0.56746 0.1529 0.0
C3959 C 0.26446 0.49901 0.08428 0.0
C3960 C 0.20714 0.5371 0.10425 0.0
C3961 C 0.20918 0.55447 0.08985 0.0
C3962 C 0.22551 0.5284 0.11205 0.0
C3963 C 0.24631 0.53749 0.1054 0.0
C3964 C 0.24786 0.55346 0.08898 0.0
C3965 C 0.2292 0.56176 0.08135 0.0
C3966 C 0.22307 0.51083 0.12894 0.0
C3967 C 0.26971 0.56342 0.08131 0.0
H3968 H 0.30645 0.55577 0.17118 0.0
H3969 H 0.30293 0.49826 0.1133 0.0
H3970 H 0.26743 0.57942 0.13963 0.0
H3971 H 0.25195 0.56061 0.15666 0.0
H3972 H 0.27967 0.57738 0.17068 0.0
H3973 H 0.27197 0.48405 0.08062 0.0
H3974 H 0.24641 0.49255 0.08443 0.0
H3975 H 0.26577 0.50849 0.06857 0.0
H3976 H 0.19146 0.53114 0.11041 0.0
H3977 H 0.23078 0.57521 0.07024 0.0
H3978 H 0.23161 0.51916 0.14824 0.0
H3979 H 0.23111 0.49682 0.12277 0.0
H3980 H 0.20528 0.50316 0.1294 0.0
H3981 H 0.28085 0.57575 0.09741 0.0
H3982 H 0.26733 0.57268 0.06552 0.0
H3983 H 0.27832 0.54972 0.07582 0.0
C3984 C 0.8756 0.99885 0.28377 0.0
C3985 C 0.89371 0.01336 0.30147 0.0
C3986 C 0.86607 0.97536 0.28578 0.0
C3987 C 0.87391 0.96553 0.30649 0.0
C3988 C 0.89191 0.98034 0.32452 0.0
C3989 C 0.90156 1.0033 0.3216 0.0
C3990 C 0.84782 0.96077 0.26517 0.0
C3991 C 0.90142 0.97185 0.34713 0.0
C3992 C 0.83615 0.9109 0.3245 0.0
C3993 C 0.84661 0.89288 0.31792 0.0
C3994 C 0.84463 0.93408 0.32091 0.0
C3995 C 0.86381 0.94011 0.30941 0.0
C3996 C 0.87392 0.9217 0.30198 0.0
C3997 C 0.86566 0.89897 0.30673 0.0
C3998 C 0.83344 0.95251 0.33041 0.0
C3999 C 0.89346 0.92586 0.28848 0.0
H4000 H 0.86933 1.00554 0.26771 0.0
H4001 H 0.91558 0.01362 0.33552 0.0
H4002 H 0.8517 0.94401 0.2589 0.0
H4003 H 0.83185 0.95709 0.27224 0.0
H4004 H 0.84545 0.96936 0.24883 0.0
H4005 H 0.91291 0.98601 0.36126 0.0
H4006 H 0.88779 0.96325 0.35602 0.0
H4007 H 0.91085 0.95897 0.34136 0.0
H4008 H 0.82175 0.90713 0.33352 0.0
H4009 H 0.87418 0.88567 0.30135 0.0
H4010 H 0.82729 0.96049 0.31479 0.0
H4011 H 0.84576 0.96631 0.34416 0.0
H4012 H 0.81917 0.94569 0.33944 0.0
H4013 H 0.88796 0.93037 0.27016 0.0
H4014 H 0.9005 0.91053 0.28518 0.0
H4015 H 0.9069 0.94061 0.29917 0.0
C4016 C 0.72968 0.07947 0.84691 0.0
C4017 C 0.70654 0.07593 0.83995 0.0
C4018 C 0.74405 0.10021 0.84507 0.0
C4019 C 0.73493 0.11719 0.83521 0.0
C4020 C 0.71152 0.11382 0.82876 0.0
C4021 C 0.69758 0.09333 0.83161 0.0
C4022 C 0.76894 0.10363 0.85279 0.0
C4023 C 0.70121 0.13117 0.81731 0.0
C4024 C 0.76845 0.17818 0.83946 0.0
C4025 C 0.7739 0.17694 0.81555 0.0
C4026 C 0.75625 0.15859 0.84653 0.0
C4027 C 0.74973 0.1375 0.82928 0.0
C4028 C 0.75589 0.13617 0.80538 0.0
C4029 C 0.76782 0.15604 0.79876 0.0
C4030 C 0.74975 0.16054 0.87205 0.0
C4031 C 0.74932 0.11395 0.78655 0.0
H4032 H 0.7365 0.0659 0.85338 0.0
H4033 H 0.67966 0.09034 0.82582 0.0
H4034 H 0.77728 0.10547 0.8364 0.0
H4035 H 0.77581 0.11975 0.86674 0.0
H4036 H 0.77326 0.08908 0.86094 0.0
H4037 H 0.68269 0.12661 0.81493 0.0
H4038 H 0.70767 0.14855 0.82904 0.0
H4039 H 0.70589 0.13213 0.79868 0.0
H4040 H 0.77327 0.19454 0.8523 0.0
H4041 H 0.77229 0.15534 0.78035 0.0
H4042 H 0.75492 0.14727 0.88186 0.0
H4043 H 0.73131 0.15734 0.87009 0.0
H4044 H 0.75735 0.17778 0.88382 0.0
H4045 H 0.7553 0.1002 0.79473 0.0
H4046 H 0.75623 0.11572 0.76919 0.0
H4047 H 0.73085 0.10823 0.78152 0.0
loop_
_geom_bond_atom_site_label_1
_geom_bond_atom_site_label_2
_geom_bond_distance
_geom_bond_site_symmetry_2
_ccdc_geom_bond_type
O0 Cd1 2.223 . S
O0 C8 1.315 . S
Cd1 O0 2.223 . S
Cd1 O4 2.297 . S
Cd1 O5 2.439 . S
Cd1 O11 2.240 . S
Cd2 O3 2.240 . S
Cd2 O10 2.223 . S
Cd2 O12 2.297 . S
Cd2 O13 2.439 . S
O3 Cd2 2.240 . S
O3 C8 1.279 . S
O4 Cd1 2.297 . S
O4 C6 1.247 . S
O5 Cd1 2.439 . S
O5 C6 1.208 . S
C6 O4 1.247 . S
C6 O5 1.208 . S
C7 O12 1.247 . S
C7 O13 1.208 . S
C8 O0 1.315 . S
C8 O3 1.279 . S
C9 O10 1.315 . S
C9 O11 1.279 . S
O10 Cd2 2.223 . S
O10 C9 1.315 . S
O11 Cd1 2.240 . S
O11 C9 1.279 . S
O12 Cd2 2.297 . S
O12 C7 1.247 . S
O13 Cd2 2.439 . S
O13 C7 1.208 . S
O14 Cd15 2.221 1_455 S
O14 C22 1.315 1_455 S
Cd15 O14 2.221 1_655 S
Cd15 O18 2.297 . S
Cd15 O19 2.439 . S
Cd15 O25 2.240 1_655 S
Cd16 O17 2.240 1_455 S
Cd16 O24 2.223 . S
Cd16 O26 2.297 . S
Cd16 O27 2.411 1_455 S
O17 Cd16 2.240 1_655 S
O17 C22 1.279 . S
O18 Cd15 2.297 . S
O18 C20 1.247 . S
O19 Cd15 2.439 . S
O19 C20 1.208 . S
C20 O18 1.247 . S
C20 O19 1.208 . S
C21 O26 1.247 . S
C21 O27 1.176 1_455 S
C22 O14 1.315 1_655 S
C22 O17 1.279 . S
C23 O24 1.315 . S
C23 O25 1.279 . S
O24 Cd16 2.223 . S
O24 C23 1.315 . S
O25 Cd15 2.240 1_455 S
O25 C23 1.279 . S
O26 Cd16 2.297 . S
O26 C21 1.247 . S
O27 Cd16 2.411 1_655 S
O27 C21 1.176 1_655 S
O28 Cd29 2.223 . S
O28 C36 1.315 1_554 S
Cd29 O28 2.223 . S
Cd29 O32 2.297 . S
Cd29 O33 2.439 . S
Cd29 O39 2.240 . S
Cd30 O31 2.240 . S
Cd30 O38 2.223 . S
Cd30 O40 2.297 . S
Cd30 O41 2.439 . S
O31 Cd30 2.240 . S
O31 C36 1.279 . S
O32 Cd29 2.297 . S
O32 C34 1.247 . S
O33 Cd29 2.439 . S
O33 C34 1.208 . S
C34 O32 1.247 . S
C34 O33 1.208 . S
C35 O40 1.247 . S
C35 O41 1.208 . S
C36 O28 1.315 1_556 S
C36 O31 1.279 . S
C37 O38 1.315 1_554 S
C37 O39 1.279 . S
O38 Cd30 2.223 . S
O38 C37 1.315 1_556 S
O39 Cd29 2.240 . S
O39 C37 1.279 . S
O40 Cd30 2.297 . S
O40 C35 1.247 . S
O41 Cd30 2.439 . S
O41 C35 1.208 . S
O42 Cd43 2.223 . S
O42 C50 1.315 . S
Cd43 O42 2.223 . S
Cd43 O46 2.297 . S
Cd43 O47 2.439 . S
Cd43 O53 2.240 . S
Cd44 O45 2.240 . S
Cd44 O52 2.223 . S
Cd44 O54 2.297 . S
Cd44 O55 2.439 . S
O45 Cd44 2.240 . S
O45 C50 1.279 . S
O46 Cd43 2.297 . S
O46 C48 1.247 . S
O47 Cd43 2.439 . S
O47 C48 1.208 . S
C48 O46 1.247 . S
C48 O47 1.208 . S
C49 O54 1.247 . S
C49 O55 1.208 . S
C50 O42 1.315 . S
C50 O45 1.279 . S
C51 O52 1.315 . S
C51 O53 1.279 . S
O52 Cd44 2.223 . S
O52 C51 1.315 . S
O53 Cd43 2.240 . S
O53 C51 1.279 . S
O54 Cd44 2.297 . S
O54 C49 1.247 . S
O55 Cd44 2.439 . S
O55 C49 1.208 . S
O56 Cd57 2.223 . S
O56 C64 1.315 . S
Cd57 O56 2.223 . S
Cd57 O60 2.297 . S
Cd57 O61 2.439 . S
Cd57 O67 2.240 . S
Cd58 O59 2.240 . S
Cd58 O66 2.223 . S
Cd58 O68 2.297 . S
Cd58 O69 2.439 . S
O59 Cd58 2.240 . S
O59 C64 1.279 . S
O60 Cd57 2.297 . S
O60 C62 1.247 1_455 S
O61 Cd57 2.439 . S
O61 C62 1.208 1_455 S
C62 O60 1.247 1_655 S
C62 O61 1.208 1_655 S
C63 O68 1.247 . S
C63 O69 1.208 . S
C64 O56 1.315 . S
C64 O59 1.279 . S
C65 O66 1.315 . S
C65 O67 1.279 . S
O66 Cd58 2.223 . S
O66 C65 1.315 . S
O67 Cd57 2.240 . S
O67 C65 1.279 . S
O68 Cd58 2.297 . S
O68 C63 1.247 . S
O69 Cd58 2.439 . S
O69 C63 1.208 . S
O70 Cd71 2.223 . S
O70 C78 1.315 . S
Cd71 O70 2.223 . S
Cd71 O74 2.297 . S
Cd71 O75 2.439 . S
Cd71 O81 2.240 . S
Cd72 O73 2.240 . S
Cd72 O80 2.223 . S
Cd72 O82 2.297 . S
Cd72 O83 2.439 . S
O73 Cd72 2.240 . S
O73 C78 1.279 . S
O74 Cd71 2.297 . S
O74 C76 1.247 . S
O75 Cd71 2.439 . S
O75 C76 1.208 . S
C76 O74 1.247 . S
C76 O75 1.208 . S
C77 O82 1.247 . S
C77 O83 1.208 . S
C78 O70 1.315 . S
C78 O73 1.279 . S
C79 O80 1.315 . S
C79 O81 1.279 . S
O80 Cd72 2.223 . S
O80 C79 1.315 . S
O81 Cd71 2.240 . S
O81 C79 1.279 . S
O82 Cd72 2.297 . S
O82 C77 1.247 . S
O83 Cd72 2.439 . S
O83 C77 1.208 . S
O84 Cd85 2.223 . S
O84 C92 1.315 . S
Cd85 O84 2.223 . S
Cd85 O88 2.297 . S
Cd85 O89 2.439 . S
Cd85 O95 2.240 . S
Cd86 O87 2.240 . S
Cd86 O94 2.223 . S
Cd86 O96 2.297 . S
Cd86 O97 2.439 . S
O87 Cd86 2.240 . S
O87 C92 1.279 . S
O88 Cd85 2.297 . S
O88 C90 1.247 . S
O89 Cd85 2.439 . S
O89 C90 1.208 . S
C90 O88 1.247 . S
C90 O89 1.208 . S
C91 O96 1.247 . S
C91 O97 1.208 . S
C92 O84 1.315 . S
C92 O87 1.279 . S
C93 O94 1.315 . S
C93 O95 1.279 . S
O94 Cd86 2.223 . S
O94 C93 1.315 . S
O95 Cd85 2.240 . S
O95 C93 1.279 . S
O96 Cd86 2.297 . S
O96 C91 1.247 . S
O97 Cd86 2.439 . S
O97 C91 1.208 . S
O98 Cd99 2.223 . S
O98 C106 1.315 . S
Cd99 O98 2.223 . S
Cd99 O102 2.297 . S
Cd99 O103 2.439 . S
Cd99 O109 2.240 . S
Cd100 O101 2.240 . S
Cd100 O108 2.223 . S
Cd100 O110 2.297 . S
Cd100 O111 2.439 . S
O101 Cd100 2.240 . S
O101 C106 1.279 . S
O102 Cd99 2.297 . S
O102 C104 1.247 . S
O103 Cd99 2.439 . S
O103 C104 1.208 . S
C104 O102 1.247 . S
C104 O103 1.208 . S
C105 O110 1.247 . S
C105 O111 1.208 . S
C106 O98 1.315 . S
C106 O101 1.279 . S
C107 O108 1.315 . S
C107 O109 1.279 . S
O108 Cd100 2.223 . S
O108 C107 1.315 . S
O109 Cd99 2.240 . S
O109 C107 1.279 . S
O110 Cd100 2.297 . S
O110 C105 1.247 . S
O111 Cd100 2.439 . S
O111 C105 1.208 . S
O112 Cd113 2.223 . S
O112 C120 1.315 . S
Cd113 O112 2.223 . S
Cd113 O116 2.297 . S
Cd113 O117 2.439 . S
Cd113 O123 2.240 . S
Cd114 O115 2.240 . S
Cd114 O122 2.223 . S
Cd114 O124 2.297 . S
Cd114 O125 2.439 . S
O115 Cd114 2.240 . S
O115 C120 1.279 . S
O116 Cd113 2.297 . S
O116 C118 1.247 . S
O117 Cd113 2.439 . S
O117 C118 1.208 . S
C118 O116 1.247 . S
C118 O117 1.208 . S
C119 O124 1.247 . S
C119 O125 1.208 . S
C120 O112 1.315 . S
C120 O115 1.279 . S
C121 O122 1.315 . S
C121 O123 1.279 . S
O122 Cd114 2.223 . S
O122 C121 1.315 . S
O123 Cd113 2.240 . S
O123 C121 1.279 . S
O124 Cd114 2.297 . S
O124 C119 1.247 . S
O125 Cd114 2.439 . S
O125 C119 1.208 . S
O126 Cd127 2.223 . S
O126 C134 1.315 . S
Cd127 O126 2.223 . S
Cd127 O130 2.297 . S
Cd127 O131 2.439 . S
Cd127 O137 2.240 . S
Cd128 O129 2.240 . S
Cd128 O136 2.223 . S
Cd128 O138 2.297 . S
Cd128 O139 2.439 . S
O129 Cd128 2.240 . S
O129 C134 1.279 . S
O130 Cd127 2.297 . S
O130 C132 1.247 . S
O131 Cd127 2.439 . S
O131 C132 1.208 . S
C132 O130 1.247 . S
C132 O131 1.208 . S
C133 O138 1.247 . S
C133 O139 1.208 . S
C134 O126 1.315 . S
C134 O129 1.279 . S
C135 O136 1.315 . S
C135 O137 1.279 . S
O136 Cd128 2.223 . S
O136 C135 1.315 . S
O137 Cd127 2.240 . S
O137 C135 1.279 . S
O138 Cd128 2.297 . S
O138 C133 1.247 . S
O139 Cd128 2.439 . S
O139 C133 1.208 . S
O140 Cd141 2.223 . S
O140 C148 1.315 . S
Cd141 O140 2.223 . S
Cd141 O144 2.297 1_545 S
Cd141 O145 2.397 1_545 S
Cd141 O151 2.240 . S
Cd142 O143 2.240 . S
Cd142 O150 2.223 . S
Cd142 O152 2.297 . S
Cd142 O153 2.439 . S
O143 Cd142 2.240 . S
O143 C148 1.279 . S
O144 Cd141 2.297 1_565 S
O144 C146 1.247 . S
O145 Cd141 2.397 1_565 S
O145 C146 1.234 . S
C146 O144 1.247 . S
C146 O145 1.234 . S
C147 O152 1.247 . S
C147 O153 1.208 . S
C148 O140 1.315 . S
C148 O143 1.279 . S
C149 O150 1.315 . S
C149 O151 1.279 . S
O150 Cd142 2.223 . S
O150 C149 1.315 . S
O151 Cd141 2.240 . S
O151 C149 1.279 . S
O152 Cd142 2.297 . S
O152 C147 1.247 . S
O153 Cd142 2.439 . S
O153 C147 1.208 . S
O154 Cd155 2.223 . S
O154 C162 1.315 . S
Cd155 O154 2.223 . S
Cd155 O158 2.297 . S
Cd155 O159 2.439 . S
Cd155 O165 2.240 . S
Cd156 O157 2.240 . S
Cd156 O164 2.223 . S
Cd156 O166 2.297 . S
Cd156 O167 2.439 . S
O157 Cd156 2.240 . S
O157 C162 1.279 . S
O158 Cd155 2.297 . S
O158 C160 1.247 . S
O159 Cd155 2.439 . S
O159 C160 1.208 . S
C160 O158 1.247 . S
C160 O159 1.208 . S
C161 O166 1.247 . S
C161 O167 1.208 . S
C162 O154 1.315 . S
C162 O157 1.279 . S
C163 O164 1.315 . S
C163 O165 1.279 . S
O164 Cd156 2.223 . S
O164 C163 1.315 . S
O165 Cd155 2.240 . S
O165 C163 1.279 . S
O166 Cd156 2.297 . S
O166 C161 1.247 . S
O167 Cd156 2.439 . S
O167 C161 1.208 . S
O168 Cd169 2.223 . S
O168 C176 1.315 . S
Cd169 O168 2.223 . S
Cd169 O172 2.297 . S
Cd169 O173 2.439 . S
Cd169 O179 2.240 . S
Cd170 O171 2.240 . S
Cd170 O178 2.223 . S
Cd170 O180 2.297 . S
Cd170 O181 2.439 . S
O171 Cd170 2.240 . S
O171 C176 1.279 . S
O172 Cd169 2.297 . S
O172 C174 1.247 . S
O173 Cd169 2.439 . S
O173 C174 1.208 . S
C174 O172 1.247 . S
C174 O173 1.208 . S
C175 O180 1.247 . S
C175 O181 1.208 . S
C176 O168 1.315 . S
C176 O171 1.279 . S
C177 O178 1.315 . S
C177 O179 1.279 . S
O178 Cd170 2.223 . S
O178 C177 1.315 . S
O179 Cd169 2.240 . S
O179 C177 1.279 . S
O180 Cd170 2.297 . S
O180 C175 1.247 . S
O181 Cd170 2.439 . S
O181 C175 1.208 . S
O182 Cd183 2.223 . S
O182 C190 1.315 . S
Cd183 O182 2.223 . S
Cd183 O186 2.297 . S
Cd183 O187 2.439 . S
Cd183 O193 2.240 . S
Cd184 O185 2.240 . S
Cd184 O192 2.223 . S
Cd184 O194 2.297 . S
Cd184 O195 2.439 . S
O185 Cd184 2.240 . S
O185 C190 1.279 . S
O186 Cd183 2.297 . S
O186 C188 1.247 . S
O187 Cd183 2.439 . S
O187 C188 1.208 . S
C188 O186 1.247 . S
C188 O187 1.208 . S
C189 O194 1.247 . S
C189 O195 1.208 . S
C190 O182 1.315 . S
C190 O185 1.279 . S
C191 O192 1.315 . S
C191 O193 1.279 . S
O192 Cd184 2.223 . S
O192 C191 1.315 . S
O193 Cd183 2.240 . S
O193 C191 1.279 . S
O194 Cd184 2.297 . S
O194 C189 1.247 . S
O195 Cd184 2.439 . S
O195 C189 1.208 . S
O196 Cd197 2.223 . S
O196 C204 1.315 . S
Cd197 O196 2.223 . S
Cd197 O200 2.297 . S
Cd197 O201 2.439 . S
Cd197 O207 2.240 . S
Cd198 O199 2.240 . S
Cd198 O206 2.223 . S
Cd198 O208 2.297 . S
Cd198 O209 2.439 . S
O199 Cd198 2.240 . S
O199 C204 1.279 . S
O200 Cd197 2.297 . S
O200 C202 1.247 . S
O201 Cd197 2.439 . S
O201 C202 1.208 . S
C202 O200 1.247 . S
C202 O201 1.208 . S
C203 O208 1.247 . S
C203 O209 1.208 . S
C204 O196 1.315 . S
C204 O199 1.279 . S
C205 O206 1.315 . S
C205 O207 1.279 . S
O206 Cd198 2.223 . S
O206 C205 1.315 . S
O207 Cd197 2.240 . S
O207 C205 1.279 . S
O208 Cd198 2.297 . S
O208 C203 1.247 . S
O209 Cd198 2.439 . S
O209 C203 1.208 . S
O210 Cd211 2.223 . S
O210 C218 1.315 1_545 S
Cd211 O210 2.223 . S
Cd211 O214 2.297 . S
Cd211 O215 2.439 1_545 S
Cd211 O221 2.240 . S
Cd212 O213 2.240 . S
Cd212 O220 2.223 . S
Cd212 O222 2.297 . S
Cd212 O223 2.439 . S
O213 Cd212 2.240 . S
O213 C218 1.279 . S
O214 Cd211 2.297 . S
O214 C216 1.247 . S
O215 Cd211 2.439 1_565 S
O215 C216 1.208 1_565 S
C216 O214 1.247 . S
C216 O215 1.208 1_545 S
C217 O222 1.247 . S
C217 O223 1.208 . S
C218 O210 1.315 1_565 S
C218 O213 1.279 . S
C219 O220 1.315 . S
C219 O221 1.279 1_565 S
O220 Cd212 2.223 . S
O220 C219 1.315 . S
O221 Cd211 2.240 . S
O221 C219 1.279 1_545 S
O222 Cd212 2.297 . S
O222 C217 1.247 . S
O223 Cd212 2.439 . S
O223 C217 1.208 . S
O224 Cd225 2.223 . S
O224 C232 1.315 . S
Cd225 O224 2.223 . S
Cd225 O228 2.297 . S
Cd225 O229 2.439 . S
Cd225 O235 2.240 . S
Cd226 O227 2.240 . S
Cd226 O234 2.223 . S
Cd226 O236 2.297 . S
Cd226 O237 2.439 . S
O227 Cd226 2.240 . S
O227 C232 1.279 . S
O228 Cd225 2.297 . S
O228 C230 1.247 . S
O229 Cd225 2.439 . S
O229 C230 1.208 . S
C230 O228 1.247 . S
C230 O229 1.208 . S
C231 O236 1.247 . S
C231 O237 1.208 . S
C232 O224 1.315 . S
C232 O227 1.279 . S
C233 O234 1.315 . S
C233 O235 1.279 . S
O234 Cd226 2.223 . S
O234 C233 1.315 . S
O235 Cd225 2.240 . S
O235 C233 1.279 . S
O236 Cd226 2.297 . S
O236 C231 1.247 . S
O237 Cd226 2.439 . S
O237 C231 1.208 . S
O238 Cd239 2.223 . S
O238 C246 1.315 . S
Cd239 O238 2.223 . S
Cd239 O242 2.297 . S
Cd239 O243 2.439 . S
Cd239 O249 2.240 . S
Cd240 O241 2.240 . S
Cd240 O248 2.223 . S
Cd240 O250 2.297 . S
Cd240 O251 2.439 . S
O241 Cd240 2.240 . S
O241 C246 1.279 . S
O242 Cd239 2.297 . S
O242 C244 1.247 . S
O243 Cd239 2.439 . S
O243 C244 1.208 . S
C244 O242 1.247 . S
C244 O243 1.208 . S
C245 O250 1.247 . S
C245 O251 1.208 . S
C246 O238 1.315 . S
C246 O241 1.279 . S
C247 O248 1.315 . S
C247 O249 1.279 . S
O248 Cd240 2.223 . S
O248 C247 1.315 . S
O249 Cd239 2.240 . S
O249 C247 1.279 . S
O250 Cd240 2.297 . S
O250 C245 1.247 . S
O251 Cd240 2.439 . S
O251 C245 1.208 . S
O252 Cd253 2.223 . S
O252 C260 1.315 . S
Cd253 O252 2.223 . S
Cd253 O256 2.297 . S
Cd253 O257 2.439 . S
Cd253 O263 2.240 . S
Cd254 O255 2.240 . S
Cd254 O262 2.223 . S
Cd254 O264 2.297 . S
Cd254 O265 2.439 . S
O255 Cd254 2.240 . S
O255 C260 1.279 . S
O256 Cd253 2.297 . S
O256 C258 1.247 . S
O257 Cd253 2.439 . S
O257 C258 1.208 . S
C258 O256 1.247 . S
C258 O257 1.208 . S
C259 O264 1.247 . S
C259 O265 1.208 . S
C260 O252 1.315 . S
C260 O255 1.279 . S
C261 O262 1.315 . S
C261 O263 1.279 . S
O262 Cd254 2.223 . S
O262 C261 1.315 . S
O263 Cd253 2.240 . S
O263 C261 1.279 . S
O264 Cd254 2.297 . S
O264 C259 1.247 . S
O265 Cd254 2.439 . S
O265 C259 1.208 . S
O266 Cd267 2.212 1_545 S
O266 C274 1.315 1_545 S
Cd267 O266 2.212 1_565 S
Cd267 O270 2.323 . S
Cd267 O271 2.462 . S
Cd267 O277 2.219 1_565 S
Cd268 O269 2.240 1_545 S
Cd268 O276 2.223 . S
Cd268 O278 2.297 . S
Cd268 O279 2.434 1_545 S
O269 Cd268 2.240 1_565 S
O269 C274 1.279 . S
O270 Cd267 2.323 . S
O270 C272 1.247 . S
O271 Cd267 2.462 . S
O271 C272 1.208 . S
C272 O270 1.247 . S
C272 O271 1.208 . S
C273 O278 1.247 . S
C273 O279 1.202 1_545 S
C274 O266 1.315 1_565 S
C274 O269 1.279 . S
C275 O276 1.315 . S
C275 O277 1.279 . S
O276 Cd268 2.223 . S
O276 C275 1.315 . S
O277 Cd267 2.219 1_545 S
O277 C275 1.279 . S
O278 Cd268 2.297 . S
O278 C273 1.247 . S
O279 Cd268 2.434 1_565 S
O279 C273 1.202 1_565 S
O280 Cd281 2.223 . S
O280 C288 1.315 . S
Cd281 O280 2.223 . S
Cd281 O284 2.297 . S
Cd281 O285 2.439 1_554 S
Cd281 O291 2.240 1_554 S
Cd282 O283 2.240 1_556 S
Cd282 O290 2.223 1_556 S
Cd282 O292 2.297 . S
Cd282 O293 2.439 . S
O283 Cd282 2.240 1_554 S
O283 C288 1.279 . S
O284 Cd281 2.297 . S
O284 C286 1.247 . S
O285 Cd281 2.439 1_556 S
O285 C286 1.208 1_556 S
C286 O284 1.247 . S
C286 O285 1.208 1_554 S
C287 O292 1.247 . S
C287 O293 1.208 . S
C288 O280 1.315 . S
C288 O283 1.279 . S
C289 O290 1.315 1_556 S
C289 O291 1.279 . S
O290 Cd282 2.223 1_554 S
O290 C289 1.315 1_554 S
O291 Cd281 2.240 1_556 S
O291 C289 1.279 . S
O292 Cd282 2.297 . S
O292 C287 1.247 . S
O293 Cd282 2.439 . S
O293 C287 1.208 . S
O294 Cd295 2.223 . S
O294 C302 1.315 . S
Cd295 O294 2.223 . S
Cd295 O298 2.297 . S
Cd295 O299 2.439 . S
Cd295 O305 2.240 . S
Cd296 O297 2.240 . S
Cd296 O304 2.223 . S
Cd296 O306 2.297 . S
Cd296 O307 2.439 . S
O297 Cd296 2.240 . S
O297 C302 1.279 . S
O298 Cd295 2.297 . S
O298 C300 1.247 . S
O299 Cd295 2.439 . S
O299 C300 1.208 . S
C300 O298 1.247 . S
C300 O299 1.208 . S
C301 O306 1.247 . S
C301 O307 1.208 . S
C302 O294 1.315 . S
C302 O297 1.279 . S
C303 O304 1.315 . S
C303 O305 1.279 . S
O304 Cd296 2.223 . S
O304 C303 1.315 . S
O305 Cd295 2.240 . S
O305 C303 1.279 . S
O306 Cd296 2.297 . S
O306 C301 1.247 . S
O307 Cd296 2.439 . S
O307 C301 1.208 . S
O308 Cd309 2.223 . S
O308 C316 1.315 . S
Cd309 O308 2.223 . S
Cd309 O312 2.297 . S
Cd309 O313 2.439 . S
Cd309 O319 2.240 . S
Cd310 O311 2.240 . S
Cd310 O318 2.223 . S
Cd310 O320 2.297 . S
Cd310 O321 2.439 . S
O311 Cd310 2.240 . S
O311 C316 1.279 . S
O312 Cd309 2.297 . S
O312 C314 1.247 . S
O313 Cd309 2.439 . S
O313 C314 1.208 . S
C314 O312 1.247 . S
C314 O313 1.208 . S
C315 O320 1.247 . S
C315 O321 1.208 . S
C316 O308 1.315 . S
C316 O311 1.279 . S
C317 O318 1.315 . S
C317 O319 1.279 . S
O318 Cd310 2.223 . S
O318 C317 1.315 . S
O319 Cd309 2.240 . S
O319 C317 1.279 . S
O320 Cd310 2.297 . S
O320 C315 1.247 . S
O321 Cd310 2.439 . S
O321 C315 1.208 . S
O322 Cd323 2.223 . S
O322 C330 1.315 . S
Cd323 O322 2.223 . S
Cd323 O326 2.297 . S
Cd323 O327 2.439 . S
Cd323 O333 2.240 . S
Cd324 O325 2.240 . S
Cd324 O332 2.223 . S
Cd324 O334 2.297 . S
Cd324 O335 2.439 . S
O325 Cd324 2.240 . S
O325 C330 1.279 . S
O326 Cd323 2.297 . S
O326 C328 1.247 . S
O327 Cd323 2.439 . S
O327 C328 1.208 . S
C328 O326 1.247 . S
C328 O327 1.208 . S
C329 O334 1.247 . S
C329 O335 1.208 . S
C330 O322 1.315 . S
C330 O325 1.279 . S
C331 O332 1.315 . S
C331 O333 1.279 . S
O332 Cd324 2.223 . S
O332 C331 1.315 . S
O333 Cd323 2.240 . S
O333 C331 1.279 . S
O334 Cd324 2.297 . S
O334 C329 1.247 . S
O335 Cd324 2.439 . S
O335 C329 1.208 . S
Nd336 C338 2.836 . S
Nd336 O356 2.500 . S
Nd336 O357 2.492 . S
Nd336 O358 2.487 . S
Nd336 O359 2.682 . S
Nd336 O360 2.410 . S
Nd336 O365 2.414 . S
Nd336 O367 2.424 . S
Nd337 C347 2.836 1_545 S
Nd337 O359 2.414 . S
Nd337 O361 2.424 . S
Nd337 O362 2.500 . S
Nd337 O363 2.492 . S
Nd337 O364 2.487 . S
Nd337 O365 2.682 . S
Nd337 O366 2.410 . S
C338 Nd336 2.836 . S
C338 C339 1.498 . S
C338 O356 1.258 . S
C338 O357 1.239 . S
C339 C338 1.498 . S
C339 C340 1.366 . S
C339 C344 1.407 . S
C340 C339 1.366 . S
C340 C341 1.392 . S
C340 H368 0.930 . S
C341 C340 1.392 . S
C341 C342 1.398 . S
C341 H369 0.929 . S
C342 C341 1.398 . S
C342 C343 1.352 . S
C343 C342 1.352 . S
C343 C344 1.384 . S
C343 H370 0.930 . S
C344 C339 1.407 . S
C344 C343 1.384 . S
C344 H371 0.929 . S
C345 O358 1.241 . S
C345 O359 1.273 . S
C346 O360 1.251 . S
C346 O361 1.268 . S
C347 Nd337 2.836 1_565 S
C347 C348 1.498 . S
C347 O362 1.258 1_565 S
C347 O363 1.239 1_565 S
C348 C347 1.498 . S
C348 C349 1.366 . S
C348 C353 1.407 . S
C349 C348 1.366 . S
C349 C350 1.392 . S
C349 H372 0.930 . S
C350 C349 1.392 . S
C350 C351 1.398 . S
C350 H373 0.929 . S
C351 C350 1.398 . S
C351 C352 1.352 . S
C352 C351 1.352 . S
C352 C353 1.384 . S
C352 H374 0.930 . S
C353 C348 1.407 . S
C353 C352 1.384 . S
C353 H375 0.929 . S
C354 O364 1.241 . S
C354 O365 1.273 . S
C355 O366 1.251 . S
C355 O367 1.268 . S
O356 Nd336 2.500 . S
O356 C338 1.258 . S
O357 Nd336 2.492 . S
O357 C338 1.239 . S
O358 Nd336 2.487 . S
O358 C345 1.241 . S
O359 Nd336 2.682 . S
O359 Nd337 2.414 . S
O359 C345 1.273 . S
O360 Nd336 2.410 . S
O360 C346 1.251 . S
O361 Nd337 2.424 . S
O361 C346 1.268 . S
O362 Nd337 2.500 . S
O362 C347 1.258 1_545 S
O363 Nd337 2.492 . S
O363 C347 1.239 1_545 S
O364 Nd337 2.487 . S
O364 C354 1.241 . S
O365 Nd336 2.414 . S
O365 Nd337 2.682 . S
O365 C354 1.273 . S
O366 Nd337 2.410 . S
O366 C355 1.251 . S
O367 Nd336 2.424 . S
O367 C355 1.268 . S
H368 C340 0.930 . S
H369 C341 0.929 . S
H370 C343 0.930 . S
H371 C344 0.929 . S
H372 C349 0.930 . S
H373 C350 0.929 . S
H374 C352 0.930 . S
H375 C353 0.929 . S
Nd376 C378 2.836 . S
Nd376 O396 2.500 . S
Nd376 O397 2.492 . S
Nd376 O398 2.487 . S
Nd376 O399 2.682 . S
Nd376 O400 2.410 . S
Nd376 O405 2.414 . S
Nd376 O407 2.424 . S
Nd377 C387 2.836 . S
Nd377 O399 2.414 . S
Nd377 O401 2.424 . S
Nd377 O402 2.500 . S
Nd377 O403 2.492 . S
Nd377 O404 2.487 . S
Nd377 O405 2.682 . S
Nd377 O406 2.410 . S
C378 Nd376 2.836 . S
C378 C379 1.498 . S
C378 O396 1.258 . S
C378 O397 1.239 . S
C379 C378 1.498 . S
C379 C380 1.366 . S
C379 C384 1.407 . S
C380 C379 1.366 . S
C380 C381 1.392 . S
C380 H408 0.930 . S
C381 C380 1.392 . S
C381 C382 1.398 . S
C381 H409 0.929 . S
C382 C381 1.398 . S
C382 C383 1.352 . S
C383 C382 1.352 . S
C383 C384 1.384 . S
C383 H410 0.930 . S
C384 C379 1.407 . S
C384 C383 1.384 . S
C384 H411 0.929 . S
C385 O398 1.241 . S
C385 O399 1.273 . S
C386 O400 1.251 . S
C386 O401 1.268 . S
C387 Nd377 2.836 . S
C387 C388 1.498 . S
C387 O402 1.258 . S
C387 O403 1.239 . S
C388 C387 1.498 . S
C388 C389 1.366 . S
C388 C393 1.407 . S
C389 C388 1.366 . S
C389 C390 1.392 . S
C389 H412 0.930 . S
C390 C389 1.392 . S
C390 C391 1.398 . S
C390 H413 0.929 . S
C391 C390 1.398 . S
C391 C392 1.352 . S
C392 C391 1.352 . S
C392 C393 1.384 . S
C392 H414 0.930 . S
C393 C388 1.407 . S
C393 C392 1.384 . S
C393 H415 0.929 . S
C394 O404 1.241 . S
C394 O405 1.273 . S
C395 O406 1.251 . S
C395 O407 1.268 . S
O396 Nd376 2.500 . S
O396 C378 1.258 . S
O397 Nd376 2.492 . S
O397 C378 1.239 . S
O398 Nd376 2.487 . S
O398 C385 1.241 . S
O399 Nd376 2.682 . S
O399 Nd377 2.414 . S
O399 C385 1.273 . S
O400 Nd376 2.410 . S
O400 C386 1.251 . S
O401 Nd377 2.424 . S
O401 C386 1.268 . S
O402 Nd377 2.500 . S
O402 C387 1.258 . S
O403 Nd377 2.492 . S
O403 C387 1.239 . S
O404 Nd377 2.487 . S
O404 C394 1.241 . S
O405 Nd376 2.414 . S
O405 Nd377 2.682 . S
O405 C394 1.273 . S
O406 Nd377 2.410 . S
O406 C395 1.251 . S
O407 Nd376 2.424 . S
O407 C395 1.268 . S
H408 C380 0.930 . S
H409 C381 0.929 . S
H410 C383 0.930 . S
H411 C384 0.929 . S
H412 C389 0.930 . S
H413 C390 0.929 . S
H414 C392 0.930 . S
H415 C393 0.929 . S
Nd416 C418 2.836 . S
Nd416 O436 2.500 . S
Nd416 O437 2.492 . S
Nd416 O438 2.487 . S
Nd416 O439 2.682 . S
Nd416 O440 2.410 . S
Nd416 O445 2.414 . S
Nd416 O447 2.424 . S
Nd417 C427 2.836 . S
Nd417 O439 2.414 . S
Nd417 O441 2.424 . S
Nd417 O442 2.500 . S
Nd417 O443 2.492 . S
Nd417 O444 2.487 . S
Nd417 O445 2.682 . S
Nd417 O446 2.410 . S
C418 Nd416 2.836 . S
C418 C419 1.498 . S
C418 O436 1.258 . S
C418 O437 1.239 . S
C419 C418 1.498 . S
C419 C420 1.366 . S
C419 C424 1.407 . S
C420 C419 1.366 . S
C420 C421 1.392 . S
C420 H448 0.930 . S
C421 C420 1.392 . S
C421 C422 1.398 . S
C421 H449 0.929 . S
C422 C421 1.398 . S
C422 C423 1.352 . S
C423 C422 1.352 . S
C423 C424 1.384 . S
C423 H450 0.930 . S
C424 C419 1.407 . S
C424 C423 1.384 . S
C424 H451 0.929 . S
C425 O438 1.241 . S
C425 O439 1.273 . S
C426 O440 1.251 . S
C426 O441 1.268 . S
C427 Nd417 2.836 . S
C427 C428 1.498 . S
C427 O442 1.258 . S
C427 O443 1.239 . S
C428 C427 1.498 . S
C428 C429 1.366 . S
C428 C433 1.407 . S
C429 C428 1.366 . S
C429 C430 1.392 . S
C429 H452 0.930 . S
C430 C429 1.392 . S
C430 C431 1.398 . S
C430 H453 0.929 . S
C431 C430 1.398 . S
C431 C432 1.352 . S
C432 C431 1.352 . S
C432 C433 1.384 . S
C432 H454 0.930 . S
C433 C428 1.407 . S
C433 C432 1.384 . S
C433 H455 0.929 . S
C434 O444 1.241 . S
C434 O445 1.273 . S
C435 O446 1.251 . S
C435 O447 1.268 . S
O436 Nd416 2.500 . S
O436 C418 1.258 . S
O437 Nd416 2.492 . S
O437 C418 1.239 . S
O438 Nd416 2.487 . S
O438 C425 1.241 . S
O439 Nd416 2.682 . S
O439 Nd417 2.414 . S
O439 C425 1.273 . S
O440 Nd416 2.410 . S
O440 C426 1.251 . S
O441 Nd417 2.424 . S
O441 C426 1.268 . S
O442 Nd417 2.500 . S
O442 C427 1.258 . S
O443 Nd417 2.492 . S
O443 C427 1.239 . S
O444 Nd417 2.487 . S
O444 C434 1.241 . S
O445 Nd416 2.414 . S
O445 Nd417 2.682 . S
O445 C434 1.273 . S
O446 Nd417 2.410 . S
O446 C435 1.251 . S
O447 Nd416 2.424 . S
O447 C435 1.268 . S
H448 C420 0.930 . S
H449 C421 0.929 . S
H450 C423 0.930 . S
H451 C424 0.929 . S
H452 C429 0.930 . S
H453 C430 0.929 . S
H454 C432 0.930 . S
H455 C433 0.929 . S
Nd456 C458 2.836 . S
Nd456 O476 2.500 . S
Nd456 O477 2.492 . S
Nd456 O478 2.487 . S
Nd456 O479 2.682 . S
Nd456 O480 2.410 . S
Nd456 O485 2.414 . S
Nd456 O487 2.424 . S
Nd457 C467 2.836 . S
Nd457 O479 2.414 . S
Nd457 O481 2.424 . S
Nd457 O482 2.500 . S
Nd457 O483 2.492 . S
Nd457 O484 2.487 . S
Nd457 O485 2.682 . S
Nd457 O486 2.410 . S
C458 Nd456 2.836 . S
C458 C459 1.498 . S
C458 O476 1.258 . S
C458 O477 1.239 . S
C459 C458 1.498 . S
C459 C460 1.366 . S
C459 C464 1.407 . S
C460 C459 1.366 . S
C460 C461 1.392 . S
C460 H488 0.930 . S
C461 C460 1.392 . S
C461 C462 1.398 . S
C461 H489 0.929 . S
C462 C461 1.398 . S
C462 C463 1.352 . S
C463 C462 1.352 . S
C463 C464 1.384 . S
C463 H490 0.930 . S
C464 C459 1.407 . S
C464 C463 1.384 . S
C464 H491 0.929 . S
C465 O478 1.241 . S
C465 O479 1.273 . S
C466 O480 1.251 . S
C466 O481 1.268 . S
C467 Nd457 2.836 . S
C467 C468 1.498 . S
C467 O482 1.258 . S
C467 O483 1.239 . S
C468 C467 1.498 . S
C468 C469 1.366 . S
C468 C473 1.407 . S
C469 C468 1.366 . S
C469 C470 1.392 . S
C469 H492 0.930 . S
C470 C469 1.392 . S
C470 C471 1.398 . S
C470 H493 0.929 . S
C471 C470 1.398 . S
C471 C472 1.352 . S
C472 C471 1.352 . S
C472 C473 1.384 . S
C472 H494 0.930 . S
C473 C468 1.407 . S
C473 C472 1.384 . S
C473 H495 0.929 . S
C474 O484 1.241 . S
C474 O485 1.273 . S
C475 O486 1.251 . S
C475 O487 1.268 . S
O476 Nd456 2.500 . S
O476 C458 1.258 . S
O477 Nd456 2.492 . S
O477 C458 1.239 . S
O478 Nd456 2.487 . S
O478 C465 1.241 . S
O479 Nd456 2.682 . S
O479 Nd457 2.414 . S
O479 C465 1.273 . S
O480 Nd456 2.410 . S
O480 C466 1.251 . S
O481 Nd457 2.424 . S
O481 C466 1.268 . S
O482 Nd457 2.500 . S
O482 C467 1.258 . S
O483 Nd457 2.492 . S
O483 C467 1.239 . S
O484 Nd457 2.487 . S
O484 C474 1.241 . S
O485 Nd456 2.414 . S
O485 Nd457 2.682 . S
O485 C474 1.273 . S
O486 Nd457 2.410 . S
O486 C475 1.251 . S
O487 Nd456 2.424 . S
O487 C475 1.268 . S
H488 C460 0.930 . S
H489 C461 0.929 . S
H490 C463 0.930 . S
H491 C464 0.929 . S
H492 C469 0.930 . S
H493 C470 0.929 . S
H494 C472 0.930 . S
H495 C473 0.929 . S
Nd496 C498 2.836 . S
Nd496 O516 2.500 . S
Nd496 O517 2.492 . S
Nd496 O518 2.487 . S
Nd496 O519 2.682 . S
Nd496 O520 2.410 . S
Nd496 O525 2.414 . S
Nd496 O527 2.424 . S
Nd497 C507 2.836 1_545 S
Nd497 O519 2.414 . S
Nd497 O521 2.424 . S
Nd497 O522 2.500 . S
Nd497 O523 2.492 1_545 S
Nd497 O524 2.487 . S
Nd497 O525 2.682 . S
Nd497 O526 2.410 . S
C498 Nd496 2.836 . S
C498 C499 1.498 . S
C498 O516 1.258 . S
C498 O517 1.239 . S
C499 C498 1.498 . S
C499 C500 1.366 . S
C499 C504 1.407 . S
C500 C499 1.366 . S
C500 C501 1.392 . S
C500 H528 0.930 . S
C501 C500 1.392 . S
C501 C502 1.398 . S
C501 H529 0.929 . S
C502 C501 1.398 . S
C502 C503 1.352 . S
C503 C502 1.352 . S
C503 C504 1.384 . S
C503 H530 0.930 . S
C504 C499 1.407 . S
C504 C503 1.384 . S
C504 H531 0.929 . S
C505 O518 1.241 . S
C505 O519 1.273 . S
C506 O520 1.251 . S
C506 O521 1.268 . S
C507 Nd497 2.836 1_565 S
C507 C508 1.498 . S
C507 O522 1.258 1_565 S
C507 O523 1.239 . S
C508 C507 1.498 . S
C508 C509 1.366 . S
C508 C513 1.407 . S
C509 C508 1.366 . S
C509 C510 1.392 . S
C509 H532 0.930 . S
C510 C509 1.392 . S
C510 C511 1.398 . S
C510 H533 0.929 . S
C511 C510 1.398 . S
C511 C512 1.352 . S
C512 C511 1.352 . S
C512 C513 1.384 . S
C512 H534 0.930 . S
C513 C508 1.407 . S
C513 C512 1.384 . S
C513 H535 0.929 . S
C514 O524 1.241 . S
C514 O525 1.273 . S
C515 O526 1.251 . S
C515 O527 1.268 . S
O516 Nd496 2.500 . S
O516 C498 1.258 . S
O517 Nd496 2.492 . S
O517 C498 1.239 . S
O518 Nd496 2.487 . S
O518 C505 1.241 . S
O519 Nd496 2.682 . S
O519 Nd497 2.414 . S
O519 C505 1.273 . S
O520 Nd496 2.410 . S
O520 C506 1.251 . S
O521 Nd497 2.424 . S
O521 C506 1.268 . S
O522 Nd497 2.500 . S
O522 C507 1.258 1_545 S
O523 Nd497 2.492 1_565 S
O523 C507 1.239 . S
O524 Nd497 2.487 . S
O524 C514 1.241 . S
O525 Nd496 2.414 . S
O525 Nd497 2.682 . S
O525 C514 1.273 . S
O526 Nd497 2.410 . S
O526 C515 1.251 . S
O527 Nd496 2.424 . S
O527 C515 1.268 . S
H528 C500 0.930 . S
H529 C501 0.929 . S
H530 C503 0.930 . S
H531 C504 0.929 . S
H532 C509 0.930 . S
H533 C510 0.929 . S
H534 C512 0.930 . S
H535 C513 0.929 . S
Nd536 C538 2.836 . S
Nd536 O556 2.500 . S
Nd536 O557 2.492 . S
Nd536 O558 2.487 . S
Nd536 O559 2.682 . S
Nd536 O560 2.410 . S
Nd536 O565 2.414 . S
Nd536 O567 2.424 . S
Nd537 C547 2.836 . S
Nd537 O559 2.414 . S
Nd537 O561 2.424 . S
Nd537 O562 2.500 . S
Nd537 O563 2.492 . S
Nd537 O564 2.487 . S
Nd537 O565 2.682 . S
Nd537 O566 2.410 . S
C538 Nd536 2.836 . S
C538 C539 1.498 . S
C538 O556 1.258 . S
C538 O557 1.239 . S
C539 C538 1.498 . S
C539 C540 1.366 . S
C539 C544 1.407 . S
C540 C539 1.366 . S
C540 C541 1.392 . S
C540 H568 0.930 . S
C541 C540 1.392 . S
C541 C542 1.398 . S
C541 H569 0.929 . S
C542 C541 1.398 . S
C542 C543 1.352 . S
C543 C542 1.352 . S
C543 C544 1.384 . S
C543 H570 0.930 . S
C544 C539 1.407 . S
C544 C543 1.384 . S
C544 H571 0.929 . S
C545 O558 1.241 . S
C545 O559 1.273 . S
C546 O560 1.251 . S
C546 O561 1.268 . S
C547 Nd537 2.836 . S
C547 C548 1.498 . S
C547 O562 1.258 . S
C547 O563 1.239 . S
C548 C547 1.498 . S
C548 C549 1.366 . S
C548 C553 1.407 . S
C549 C548 1.366 . S
C549 C550 1.392 . S
C549 H572 0.930 . S
C550 C549 1.392 . S
C550 C551 1.398 . S
C550 H573 0.929 . S
C551 C550 1.398 . S
C551 C552 1.352 . S
C552 C551 1.352 . S
C552 C553 1.384 . S
C552 H574 0.930 . S
C553 C548 1.407 . S
C553 C552 1.384 . S
C553 H575 0.929 . S
C554 O564 1.241 . S
C554 O565 1.273 . S
C555 O566 1.251 . S
C555 O567 1.268 . S
O556 Nd536 2.500 . S
O556 C538 1.258 . S
O557 Nd536 2.492 . S
O557 C538 1.239 . S
O558 Nd536 2.487 . S
O558 C545 1.241 . S
O559 Nd536 2.682 . S
O559 Nd537 2.414 . S
O559 C545 1.273 . S
O560 Nd536 2.410 . S
O560 C546 1.251 . S
O561 Nd537 2.424 . S
O561 C546 1.268 . S
O562 Nd537 2.500 . S
O562 C547 1.258 . S
O563 Nd537 2.492 . S
O563 C547 1.239 . S
O564 Nd537 2.487 . S
O564 C554 1.241 . S
O565 Nd536 2.414 . S
O565 Nd537 2.682 . S
O565 C554 1.273 . S
O566 Nd537 2.410 . S
O566 C555 1.251 . S
O567 Nd536 2.424 . S
O567 C555 1.268 . S
H568 C540 0.930 . S
H569 C541 0.929 . S
H570 C543 0.930 . S
H571 C544 0.929 . S
H572 C549 0.930 . S
H573 C550 0.929 . S
H574 C552 0.930 . S
H575 C553 0.929 . S
Nd576 C578 2.836 . S
Nd576 O596 2.500 . S
Nd576 O597 2.492 . S
Nd576 O598 2.487 . S
Nd576 O599 2.682 . S
Nd576 O600 2.410 . S
Nd576 O605 2.414 . S
Nd576 O607 2.424 . S
Nd577 C587 2.836 . S
Nd577 O599 2.414 . S
Nd577 O601 2.424 . S
Nd577 O602 2.500 . S
Nd577 O603 2.492 . S
Nd577 O604 2.487 . S
Nd577 O605 2.682 . S
Nd577 O606 2.410 . S
C578 Nd576 2.836 . S
C578 C579 1.498 . S
C578 O596 1.258 . S
C578 O597 1.239 . S
C579 C578 1.498 . S
C579 C580 1.366 . S
C579 C584 1.407 . S
C580 C579 1.366 . S
C580 C581 1.392 . S
C580 H608 0.930 . S
C581 C580 1.392 . S
C581 C582 1.398 . S
C581 H609 0.929 . S
C582 C581 1.398 . S
C582 C583 1.352 1_545 S
C583 C582 1.352 1_565 S
C583 C584 1.384 1_565 S
C583 H610 0.930 . S
C584 C579 1.407 . S
C584 C583 1.384 1_545 S
C584 H611 0.929 1_545 S
C585 O598 1.241 . S
C585 O599 1.273 . S
C586 O600 1.251 . S
C586 O601 1.268 . S
C587 Nd577 2.836 . S
C587 C588 1.498 . S
C587 O602 1.258 . S
C587 O603 1.239 . S
C588 C587 1.498 . S
C588 C589 1.366 . S
C588 C593 1.407 . S
C589 C588 1.366 . S
C589 C590 1.392 . S
C589 H612 0.930 . S
C590 C589 1.392 . S
C590 C591 1.398 . S
C590 H613 0.929 . S
C591 C590 1.398 . S
C591 C592 1.352 . S
C592 C591 1.352 . S
C592 C593 1.384 . S
C592 H614 0.930 . S
C593 C588 1.407 . S
C593 C592 1.384 . S
C593 H615 0.929 . S
C594 O604 1.241 . S
C594 O605 1.273 . S
C595 O606 1.251 . S
C595 O607 1.268 . S
O596 Nd576 2.500 . S
O596 C578 1.258 . S
O597 Nd576 2.492 . S
O597 C578 1.239 . S
O598 Nd576 2.487 . S
O598 C585 1.241 . S
O599 Nd576 2.682 . S
O599 Nd577 2.414 . S
O599 C585 1.273 . S
O600 Nd576 2.410 . S
O600 C586 1.251 . S
O601 Nd577 2.424 . S
O601 C586 1.268 . S
O602 Nd577 2.500 . S
O602 C587 1.258 . S
O603 Nd577 2.492 . S
O603 C587 1.239 . S
O604 Nd577 2.487 . S
O604 C594 1.241 . S
O605 Nd576 2.414 . S
O605 Nd577 2.682 . S
O605 C594 1.273 . S
O606 Nd577 2.410 . S
O606 C595 1.251 . S
O607 Nd576 2.424 . S
O607 C595 1.268 . S
H608 C580 0.930 . S
H609 C581 0.929 . S
H610 C583 0.930 . S
H611 C584 0.929 1_565 S
H612 C589 0.930 . S
H613 C590 0.929 . S
H614 C592 0.930 . S
H615 C593 0.929 . S
Nd616 C618 2.836 . S
Nd616 O636 2.500 . S
Nd616 O637 2.492 . S
Nd616 O638 2.487 . S
Nd616 O639 2.682 . S
Nd616 O640 2.410 . S
Nd616 O645 2.414 . S
Nd616 O647 2.424 . S
Nd617 C627 2.836 . S
Nd617 O639 2.414 . S
Nd617 O641 2.424 . S
Nd617 O642 2.500 . S
Nd617 O643 2.492 . S
Nd617 O644 2.487 . S
Nd617 O645 2.682 . S
Nd617 O646 2.410 . S
C618 Nd616 2.836 . S
C618 C619 1.498 . S
C618 O636 1.258 . S
C618 O637 1.239 . S
C619 C618 1.498 . S
C619 C620 1.366 . S
C619 C624 1.407 . S
C620 C619 1.366 . S
C620 C621 1.392 . S
C620 H648 0.930 . S
C621 C620 1.392 . S
C621 C622 1.398 . S
C621 H649 0.929 . S
C622 C621 1.398 . S
C622 C623 1.352 . S
C623 C622 1.352 . S
C623 C624 1.384 . S
C623 H650 0.930 . S
C624 C619 1.407 . S
C624 C623 1.384 . S
C624 H651 0.929 . S
C625 O638 1.241 . S
C625 O639 1.273 . S
C626 O640 1.251 . S
C626 O641 1.268 . S
C627 Nd617 2.836 . S
C627 C628 1.498 . S
C627 O642 1.258 . S
C627 O643 1.239 . S
C628 C627 1.498 . S
C628 C629 1.366 . S
C628 C633 1.407 . S
C629 C628 1.366 . S
C629 C630 1.392 . S
C629 H652 0.930 . S
C630 C629 1.392 . S
C630 C631 1.398 . S
C630 H653 0.929 . S
C631 C630 1.398 . S
C631 C632 1.352 . S
C632 C631 1.352 . S
C632 C633 1.384 . S
C632 H654 0.930 . S
C633 C628 1.407 . S
C633 C632 1.384 . S
C633 H655 0.929 . S
C634 O644 1.241 . S
C634 O645 1.273 . S
C635 O646 1.251 . S
C635 O647 1.268 . S
O636 Nd616 2.500 . S
O636 C618 1.258 . S
O637 Nd616 2.492 . S
O637 C618 1.239 . S
O638 Nd616 2.487 . S
O638 C625 1.241 . S
O639 Nd616 2.682 . S
O639 Nd617 2.414 . S
O639 C625 1.273 . S
O640 Nd616 2.410 . S
O640 C626 1.251 . S
O641 Nd617 2.424 . S
O641 C626 1.268 . S
O642 Nd617 2.500 . S
O642 C627 1.258 . S
O643 Nd617 2.492 . S
O643 C627 1.239 . S
O644 Nd617 2.487 . S
O644 C634 1.241 . S
O645 Nd616 2.414 . S
O645 Nd617 2.682 . S
O645 C634 1.273 . S
O646 Nd617 2.410 . S
O646 C635 1.251 . S
O647 Nd616 2.424 . S
O647 C635 1.268 . S
H648 C620 0.930 . S
H649 C621 0.929 . S
H650 C623 0.930 . S
H651 C624 0.929 . S
H652 C629 0.930 . S
H653 C630 0.929 . S
H654 C632 0.930 . S
H655 C633 0.929 . S
Nd656 C658 2.836 . S
Nd656 O676 2.500 . S
Nd656 O677 2.492 . S
Nd656 O678 2.487 . S
Nd656 O679 2.682 . S
Nd656 O680 2.410 . S
Nd656 O685 2.414 . S
Nd656 O687 2.424 . S
Nd657 C667 2.836 . S
Nd657 O679 2.414 . S
Nd657 O681 2.424 . S
Nd657 O682 2.500 . S
Nd657 O683 2.492 . S
Nd657 O684 2.487 . S
Nd657 O685 2.682 . S
Nd657 O686 2.410 . S
C658 Nd656 2.836 . S
C658 C659 1.498 . S
C658 O676 1.258 . S
C658 O677 1.239 . S
C659 C658 1.498 . S
C659 C660 1.366 . S
C659 C664 1.407 . S
C660 C659 1.366 . S
C660 C661 1.392 . S
C660 H688 0.930 . S
C661 C660 1.392 . S
C661 C662 1.398 . S
C661 H689 0.929 . S
C662 C661 1.398 . S
C662 C663 1.352 . S
C663 C662 1.352 . S
C663 C664 1.384 . S
C663 H690 0.930 . S
C664 C659 1.407 . S
C664 C663 1.384 . S
C664 H691 0.929 . S
C665 O678 1.241 . S
C665 O679 1.273 . S
C666 O680 1.251 . S
C666 O681 1.268 . S
C667 Nd657 2.836 . S
C667 C668 1.498 . S
C667 O682 1.258 . S
C667 O683 1.239 . S
C668 C667 1.498 . S
C668 C669 1.366 . S
C668 C673 1.407 . S
C669 C668 1.366 . S
C669 C670 1.392 . S
C669 H692 0.930 . S
C670 C669 1.392 . S
C670 C671 1.398 . S
C670 H693 0.929 . S
C671 C670 1.398 . S
C671 C672 1.352 . S
C672 C671 1.352 . S
C672 C673 1.384 . S
C672 H694 0.930 . S
C673 C668 1.407 . S
C673 C672 1.384 . S
C673 H695 0.929 . S
C674 O684 1.241 . S
C674 O685 1.273 . S
C675 O686 1.251 . S
C675 O687 1.268 . S
O676 Nd656 2.500 . S
O676 C658 1.258 . S
O677 Nd656 2.492 . S
O677 C658 1.239 . S
O678 Nd656 2.487 . S
O678 C665 1.241 . S
O679 Nd656 2.682 . S
O679 Nd657 2.414 . S
O679 C665 1.273 . S
O680 Nd656 2.410 . S
O680 C666 1.251 . S
O681 Nd657 2.424 . S
O681 C666 1.268 . S
O682 Nd657 2.500 . S
O682 C667 1.258 . S
O683 Nd657 2.492 . S
O683 C667 1.239 . S
O684 Nd657 2.487 . S
O684 C674 1.241 . S
O685 Nd656 2.414 . S
O685 Nd657 2.682 . S
O685 C674 1.273 . S
O686 Nd657 2.410 . S
O686 C675 1.251 . S
O687 Nd656 2.424 . S
O687 C675 1.268 . S
H688 C660 0.930 . S
H689 C661 0.929 . S
H690 C663 0.930 . S
H691 C664 0.929 . S
H692 C669 0.930 . S
H693 C670 0.929 . S
H694 C672 0.930 . S
H695 C673 0.929 . S
Nd696 C698 2.836 . S
Nd696 O716 2.500 . S
Nd696 O717 2.492 . S
Nd696 O718 2.487 . S
Nd696 O719 2.682 . S
Nd696 O720 2.410 . S
Nd696 O725 2.414 . S
Nd696 O727 2.424 . S
Nd697 C707 2.836 . S
Nd697 O719 2.414 . S
Nd697 O721 2.424 . S
Nd697 O722 2.500 . S
Nd697 O723 2.492 . S
Nd697 O724 2.487 . S
Nd697 O725 2.682 . S
Nd697 O726 2.410 . S
C698 Nd696 2.836 . S
C698 C699 1.498 . S
C698 O716 1.258 . S
C698 O717 1.239 . S
C699 C698 1.498 . S
C699 C700 1.366 . S
C699 C704 1.407 . S
C700 C699 1.366 . S
C700 C701 1.392 . S
C700 H728 0.930 . S
C701 C700 1.392 . S
C701 C702 1.398 . S
C701 H729 0.929 . S
C702 C701 1.398 . S
C702 C703 1.352 . S
C703 C702 1.352 . S
C703 C704 1.384 . S
C703 H730 0.930 . S
C704 C699 1.407 . S
C704 C703 1.384 . S
C704 H731 0.929 . S
C705 O718 1.241 . S
C705 O719 1.273 . S
C706 O720 1.251 . S
C706 O721 1.268 . S
C707 Nd697 2.836 . S
C707 C708 1.498 . S
C707 O722 1.258 . S
C707 O723 1.239 . S
C708 C707 1.498 . S
C708 C709 1.366 . S
C708 C713 1.407 . S
C709 C708 1.366 . S
C709 C710 1.392 . S
C709 H732 0.930 . S
C710 C709 1.392 . S
C710 C711 1.398 . S
C710 H733 0.929 . S
C711 C710 1.398 . S
C711 C712 1.352 . S
C712 C711 1.352 . S
C712 C713 1.384 . S
C712 H734 0.930 . S
C713 C708 1.407 . S
C713 C712 1.384 . S
C713 H735 0.929 . S
C714 O724 1.241 . S
C714 O725 1.273 . S
C715 O726 1.251 . S
C715 O727 1.268 . S
O716 Nd696 2.500 . S
O716 C698 1.258 . S
O717 Nd696 2.492 . S
O717 C698 1.239 . S
O718 Nd696 2.487 . S
O718 C705 1.241 . S
O719 Nd696 2.682 . S
O719 Nd697 2.414 . S
O719 C705 1.273 . S
O720 Nd696 2.410 . S
O720 C706 1.251 . S
O721 Nd697 2.424 . S
O721 C706 1.268 . S
O722 Nd697 2.500 . S
O722 C707 1.258 . S
O723 Nd697 2.492 . S
O723 C707 1.239 . S
O724 Nd697 2.487 . S
O724 C714 1.241 . S
O725 Nd696 2.414 . S
O725 Nd697 2.682 . S
O725 C714 1.273 . S
O726 Nd697 2.410 . S
O726 C715 1.251 . S
O727 Nd696 2.424 . S
O727 C715 1.268 . S
H728 C700 0.930 . S
H729 C701 0.929 . S
H730 C703 0.930 . S
H731 C704 0.929 . S
H732 C709 0.930 . S
H733 C710 0.929 . S
H734 C712 0.930 . S
H735 C713 0.929 . S
Nd736 C738 2.836 1_455 S
Nd736 O756 2.500 1_455 S
Nd736 O757 2.492 1_455 S
Nd736 O758 2.487 . S
Nd736 O759 2.682 . S
Nd736 O760 2.410 . S
Nd736 O765 2.414 . S
Nd736 O767 2.424 . S
Nd737 C747 2.836 . S
Nd737 O759 2.414 . S
Nd737 O761 2.424 . S
Nd737 O762 2.500 . S
Nd737 O763 2.492 . S
Nd737 O764 2.487 . S
Nd737 O765 2.682 . S
Nd737 O766 2.410 . S
C738 Nd736 2.836 1_655 S
C738 C739 1.498 . S
C738 O756 1.258 . S
C738 O757 1.239 . S
C739 C738 1.498 . S
C739 C740 1.366 . S
C739 C744 1.407 . S
C740 C739 1.366 . S
C740 C741 1.392 . S
C740 H768 0.930 . S
C741 C740 1.392 . S
C741 C742 1.398 . S
C741 H769 0.929 . S
C742 C741 1.398 . S
C742 C743 1.352 . S
C743 C742 1.352 . S
C743 C744 1.384 . S
C743 H770 0.930 . S
C744 C739 1.407 . S
C744 C743 1.384 . S
C744 H771 0.929 . S
C745 O758 1.241 . S
C745 O759 1.273 . S
C746 O760 1.251 . S
C746 O761 1.268 . S
C747 Nd737 2.836 . S
C747 C748 1.498 . S
C747 O762 1.258 . S
C747 O763 1.239 . S
C748 C747 1.498 . S
C748 C749 1.366 . S
C748 C753 1.407 . S
C749 C748 1.366 . S
C749 C750 1.392 . S
C749 H772 0.930 . S
C750 C749 1.392 . S
C750 C751 1.398 . S
C750 H773 0.929 . S
C751 C750 1.398 . S
C751 C752 1.352 . S
C752 C751 1.352 . S
C752 C753 1.384 . S
C752 H774 0.930 . S
C753 C748 1.407 . S
C753 C752 1.384 . S
C753 H775 0.929 . S
C754 O764 1.241 . S
C754 O765 1.273 . S
C755 O766 1.251 . S
C755 O767 1.268 . S
O756 Nd736 2.500 1_655 S
O756 C738 1.258 . S
O757 Nd736 2.492 1_655 S
O757 C738 1.239 . S
O758 Nd736 2.487 . S
O758 C745 1.241 . S
O759 Nd736 2.682 . S
O759 Nd737 2.414 . S
O759 C745 1.273 . S
O760 Nd736 2.410 . S
O760 C746 1.251 . S
O761 Nd737 2.424 . S
O761 C746 1.268 . S
O762 Nd737 2.500 . S
O762 C747 1.258 . S
O763 Nd737 2.492 . S
O763 C747 1.239 . S
O764 Nd737 2.487 . S
O764 C754 1.241 . S
O765 Nd736 2.414 . S
O765 Nd737 2.682 . S
O765 C754 1.273 . S
O766 Nd737 2.410 . S
O766 C755 1.251 . S
O767 Nd736 2.424 . S
O767 C755 1.268 . S
H768 C740 0.930 . S
H769 C741 0.929 . S
H770 C743 0.930 . S
H771 C744 0.929 . S
H772 C749 0.930 . S
H773 C750 0.929 . S
H774 C752 0.930 . S
H775 C753 0.929 . S
Nd776 C778 2.836 . S
Nd776 O796 2.500 . S
Nd776 O797 2.492 . S
Nd776 O798 2.487 . S
Nd776 O799 2.682 . S
Nd776 O800 2.410 . S
Nd776 O805 2.414 . S
Nd776 O807 2.424 . S
Nd777 C787 2.836 . S
Nd777 O799 2.414 . S
Nd777 O801 2.424 . S
Nd777 O802 2.500 . S
Nd777 O803 2.492 . S
Nd777 O804 2.487 . S
Nd777 O805 2.682 . S
Nd777 O806 2.410 . S
C778 Nd776 2.836 . S
C778 C779 1.498 . S
C778 O796 1.258 . S
C778 O797 1.239 . S
C779 C778 1.498 . S
C779 C780 1.366 . S
C779 C784 1.407 . S
C780 C779 1.366 . S
C780 C781 1.392 . S
C780 H808 0.930 . S
C781 C780 1.392 . S
C781 C782 1.398 . S
C781 H809 0.929 . S
C782 C781 1.398 . S
C782 C783 1.352 . S
C783 C782 1.352 . S
C783 C784 1.384 . S
C783 H810 0.930 . S
C784 C779 1.407 . S
C784 C783 1.384 . S
C784 H811 0.929 . S
C785 O798 1.241 . S
C785 O799 1.273 . S
C786 O800 1.251 . S
C786 O801 1.268 . S
C787 Nd777 2.836 . S
C787 C788 1.498 . S
C787 O802 1.258 . S
C787 O803 1.239 . S
C788 C787 1.498 . S
C788 C789 1.366 . S
C788 C793 1.407 . S
C789 C788 1.366 . S
C789 C790 1.392 . S
C789 H812 0.930 . S
C790 C789 1.392 . S
C790 C791 1.398 . S
C790 H813 0.929 . S
C791 C790 1.398 . S
C791 C792 1.352 . S
C792 C791 1.352 . S
C792 C793 1.384 . S
C792 H814 0.930 . S
C793 C788 1.407 . S
C793 C792 1.384 . S
C793 H815 0.929 . S
C794 O804 1.241 . S
C794 O805 1.273 . S
C795 O806 1.251 . S
C795 O807 1.268 . S
O796 Nd776 2.500 . S
O796 C778 1.258 . S
O797 Nd776 2.492 . S
O797 C778 1.239 . S
O798 Nd776 2.487 . S
O798 C785 1.241 . S
O799 Nd776 2.682 . S
O799 Nd777 2.414 . S
O799 C785 1.273 . S
O800 Nd776 2.410 . S
O800 C786 1.251 . S
O801 Nd777 2.424 . S
O801 C786 1.268 . S
O802 Nd777 2.500 . S
O802 C787 1.258 . S
O803 Nd777 2.492 . S
O803 C787 1.239 . S
O804 Nd777 2.487 . S
O804 C794 1.241 . S
O805 Nd776 2.414 . S
O805 Nd777 2.682 . S
O805 C794 1.273 . S
O806 Nd777 2.410 . S
O806 C795 1.251 . S
O807 Nd776 2.424 . S
O807 C795 1.268 . S
H808 C780 0.930 . S
H809 C781 0.929 . S
H810 C783 0.930 . S
H811 C784 0.929 . S
H812 C789 0.930 . S
H813 C790 0.929 . S
H814 C792 0.930 . S
H815 C793 0.929 . S
Nd816 C818 2.836 . S
Nd816 O836 2.500 . S
Nd816 O837 2.492 . S
Nd816 O838 2.487 . S
Nd816 O839 2.682 . S
Nd816 O840 2.410 . S
Nd816 O845 2.414 . S
Nd816 O847 2.424 . S
Nd817 C827 2.836 . S
Nd817 O839 2.414 . S
Nd817 O841 2.424 . S
Nd817 O842 2.500 . S
Nd817 O843 2.492 . S
Nd817 O844 2.487 . S
Nd817 O845 2.682 . S
Nd817 O846 2.410 . S
C818 Nd816 2.836 . S
C818 C819 1.498 . S
C818 O836 1.258 . S
C818 O837 1.239 . S
C819 C818 1.498 . S
C819 C820 1.366 . S
C819 C824 1.407 . S
C820 C819 1.366 . S
C820 C821 1.392 . S
C820 H848 0.930 . S
C821 C820 1.392 . S
C821 C822 1.398 . S
C821 H849 0.929 . S
C822 C821 1.398 . S
C822 C823 1.352 . S
C823 C822 1.352 . S
C823 C824 1.384 . S
C823 H850 0.930 . S
C824 C819 1.407 . S
C824 C823 1.384 . S
C824 H851 0.929 . S
C825 O838 1.241 . S
C825 O839 1.273 . S
C826 O840 1.251 . S
C826 O841 1.268 . S
C827 Nd817 2.836 . S
C827 C828 1.498 . S
C827 O842 1.258 . S
C827 O843 1.239 . S
C828 C827 1.498 . S
C828 C829 1.366 . S
C828 C833 1.407 . S
C829 C828 1.366 . S
C829 C830 1.392 . S
C829 H852 0.930 . S
C830 C829 1.392 . S
C830 C831 1.398 . S
C830 H853 0.929 . S
C831 C830 1.398 . S
C831 C832 1.352 . S
C832 C831 1.352 . S
C832 C833 1.384 . S
C832 H854 0.930 . S
C833 C828 1.407 . S
C833 C832 1.384 . S
C833 H855 0.929 . S
C834 O844 1.241 . S
C834 O845 1.273 . S
C835 O846 1.251 . S
C835 O847 1.268 . S
O836 Nd816 2.500 . S
O836 C818 1.258 . S
O837 Nd816 2.492 . S
O837 C818 1.239 . S
O838 Nd816 2.487 . S
O838 C825 1.241 . S
O839 Nd816 2.682 . S
O839 Nd817 2.414 . S
O839 C825 1.273 . S
O840 Nd816 2.410 . S
O840 C826 1.251 . S
O841 Nd817 2.424 . S
O841 C826 1.268 . S
O842 Nd817 2.500 . S
O842 C827 1.258 . S
O843 Nd817 2.492 . S
O843 C827 1.239 . S
O844 Nd817 2.487 . S
O844 C834 1.241 . S
O845 Nd816 2.414 . S
O845 Nd817 2.682 . S
O845 C834 1.273 . S
O846 Nd817 2.410 . S
O846 C835 1.251 . S
O847 Nd816 2.424 . S
O847 C835 1.268 . S
H848 C820 0.930 . S
H849 C821 0.929 . S
H850 C823 0.930 . S
H851 C824 0.929 . S
H852 C829 0.930 . S
H853 C830 0.929 . S
H854 C832 0.930 . S
H855 C833 0.929 . S
Nd856 C858 2.836 . S
Nd856 O876 2.500 . S
Nd856 O877 2.492 . S
Nd856 O878 2.487 . S
Nd856 O879 2.682 . S
Nd856 O880 2.410 . S
Nd856 O885 2.414 . S
Nd856 O887 2.424 . S
Nd857 C867 2.836 . S
Nd857 O879 2.414 . S
Nd857 O881 2.424 . S
Nd857 O882 2.500 . S
Nd857 O883 2.492 . S
Nd857 O884 2.487 . S
Nd857 O885 2.682 . S
Nd857 O886 2.410 . S
C858 Nd856 2.836 . S
C858 C859 1.498 . S
C858 O876 1.258 . S
C858 O877 1.239 . S
C859 C858 1.498 . S
C859 C860 1.366 . S
C859 C864 1.407 . S
C860 C859 1.366 . S
C860 C861 1.392 . S
C860 H888 0.930 . S
C861 C860 1.392 . S
C861 C862 1.398 . S
C861 H889 0.929 . S
C862 C861 1.398 . S
C862 C863 1.352 . S
C863 C862 1.352 . S
C863 C864 1.384 . S
C863 H890 0.930 . S
C864 C859 1.407 . S
C864 C863 1.384 . S
C864 H891 0.929 . S
C865 O878 1.241 . S
C865 O879 1.273 . S
C866 O880 1.251 . S
C866 O881 1.268 . S
C867 Nd857 2.836 . S
C867 C868 1.498 . S
C867 O882 1.258 . S
C867 O883 1.239 . S
C868 C867 1.498 . S
C868 C869 1.366 . S
C868 C873 1.407 . S
C869 C868 1.366 . S
C869 C870 1.392 . S
C869 H892 0.930 . S
C870 C869 1.392 . S
C870 C871 1.398 . S
C870 H893 0.929 . S
C871 C870 1.398 . S
C871 C872 1.352 . S
C872 C871 1.352 . S
C872 C873 1.384 . S
C872 H894 0.930 . S
C873 C868 1.407 . S
C873 C872 1.384 . S
C873 H895 0.929 . S
C874 O884 1.241 . S
C874 O885 1.273 . S
C875 O886 1.251 . S
C875 O887 1.268 . S
O876 Nd856 2.500 . S
O876 C858 1.258 . S
O877 Nd856 2.492 . S
O877 C858 1.239 . S
O878 Nd856 2.487 . S
O878 C865 1.241 . S
O879 Nd856 2.682 . S
O879 Nd857 2.414 . S
O879 C865 1.273 . S
O880 Nd856 2.410 . S
O880 C866 1.251 . S
O881 Nd857 2.424 . S
O881 C866 1.268 . S
O882 Nd857 2.500 . S
O882 C867 1.258 . S
O883 Nd857 2.492 . S
O883 C867 1.239 . S
O884 Nd857 2.487 . S
O884 C874 1.241 . S
O885 Nd856 2.414 . S
O885 Nd857 2.682 . S
O885 C874 1.273 . S
O886 Nd857 2.410 . S
O886 C875 1.251 . S
O887 Nd856 2.424 . S
O887 C875 1.268 . S
H888 C860 0.930 . S
H889 C861 0.929 . S
H890 C863 0.930 . S
H891 C864 0.929 . S
H892 C869 0.930 . S
H893 C870 0.929 . S
H894 C872 0.930 . S
H895 C873 0.929 . S
Nd896 C898 2.836 . S
Nd896 O916 2.500 . S
Nd896 O917 2.492 . S
Nd896 O918 2.487 . S
Nd896 O919 2.682 . S
Nd896 O920 2.410 . S
Nd896 O925 2.414 . S
Nd896 O927 2.424 . S
Nd897 C907 2.836 . S
Nd897 O919 2.414 . S
Nd897 O921 2.424 . S
Nd897 O922 2.500 . S
Nd897 O923 2.492 . S
Nd897 O924 2.487 . S
Nd897 O925 2.682 . S
Nd897 O926 2.410 . S
C898 Nd896 2.836 . S
C898 C899 1.498 . S
C898 O916 1.258 . S
C898 O917 1.239 . S
C899 C898 1.498 . S
C899 C900 1.366 . S
C899 C904 1.407 . S
C900 C899 1.366 . S
C900 C901 1.392 . S
C900 H928 0.930 . S
C901 C900 1.392 . S
C901 C902 1.398 . S
C901 H929 0.929 . S
C902 C901 1.398 . S
C902 C903 1.352 . S
C903 C902 1.352 . S
C903 C904 1.384 . S
C903 H930 0.930 . S
C904 C899 1.407 . S
C904 C903 1.384 . S
C904 H931 0.929 . S
C905 O918 1.241 . S
C905 O919 1.273 . S
C906 O920 1.251 . S
C906 O921 1.268 . S
C907 Nd897 2.836 . S
C907 C908 1.498 . S
C907 O922 1.258 . S
C907 O923 1.239 . S
C908 C907 1.498 . S
C908 C909 1.366 . S
C908 C913 1.407 . S
C909 C908 1.366 . S
C909 C910 1.392 . S
C909 H932 0.930 . S
C910 C909 1.392 . S
C910 C911 1.398 . S
C910 H933 0.929 . S
C911 C910 1.398 . S
C911 C912 1.352 . S
C912 C911 1.352 . S
C912 C913 1.384 . S
C912 H934 0.930 . S
C913 C908 1.407 . S
C913 C912 1.384 . S
C913 H935 0.929 . S
C914 O924 1.241 . S
C914 O925 1.273 . S
C915 O926 1.251 . S
C915 O927 1.268 . S
O916 Nd896 2.500 . S
O916 C898 1.258 . S
O917 Nd896 2.492 . S
O917 C898 1.239 . S
O918 Nd896 2.487 . S
O918 C905 1.241 . S
O919 Nd896 2.682 . S
O919 Nd897 2.414 . S
O919 C905 1.273 . S
O920 Nd896 2.410 . S
O920 C906 1.251 . S
O921 Nd897 2.424 . S
O921 C906 1.268 . S
O922 Nd897 2.500 . S
O922 C907 1.258 . S
O923 Nd897 2.492 . S
O923 C907 1.239 . S
O924 Nd897 2.487 . S
O924 C914 1.241 . S
O925 Nd896 2.414 . S
O925 Nd897 2.682 . S
O925 C914 1.273 . S
O926 Nd897 2.410 . S
O926 C915 1.251 . S
O927 Nd896 2.424 . S
O927 C915 1.268 . S
H928 C900 0.930 . S
H929 C901 0.929 . S
H930 C903 0.930 . S
H931 C904 0.929 . S
H932 C909 0.930 . S
H933 C910 0.929 . S
H934 C912 0.930 . S
H935 C913 0.929 . S
Nd936 C938 2.836 . S
Nd936 O956 2.500 . S
Nd936 O957 2.492 . S
Nd936 O958 2.487 . S
Nd936 O959 2.682 . S
Nd936 O960 2.410 . S
Nd936 O965 2.414 . S
Nd936 O967 2.424 . S
Nd937 C947 2.836 1_455 S
Nd937 O959 2.414 . S
Nd937 O961 2.424 . S
Nd937 O962 2.500 1_455 S
Nd937 O963 2.492 1_455 S
Nd937 O964 2.487 . S
Nd937 O965 2.682 . S
Nd937 O966 2.410 . S
C938 Nd936 2.836 . S
C938 C939 1.498 . S
C938 O956 1.258 . S
C938 O957 1.239 . S
C939 C938 1.498 . S
C939 C940 1.366 . S
C939 C944 1.407 . S
C940 C939 1.366 . S
C940 C941 1.392 . S
C940 H968 0.930 . S
C941 C940 1.392 . S
C941 C942 1.398 . S
C941 H969 0.929 . S
C942 C941 1.398 . S
C942 C943 1.352 . S
C943 C942 1.352 . S
C943 C944 1.384 . S
C943 H970 0.930 . S
C944 C939 1.407 . S
C944 C943 1.384 . S
C944 H971 0.929 . S
C945 O958 1.241 . S
C945 O959 1.273 . S
C946 O960 1.251 . S
C946 O961 1.268 . S
C947 Nd937 2.836 1_655 S
C947 C948 1.498 . S
C947 O962 1.258 . S
C947 O963 1.239 . S
C948 C947 1.498 . S
C948 C949 1.366 . S
C948 C953 1.407 . S
C949 C948 1.366 . S
C949 C950 1.392 . S
C949 H972 0.930 . S
C950 C949 1.392 . S
C950 C951 1.398 . S
C950 H973 0.929 . S
C951 C950 1.398 . S
C951 C952 1.352 . S
C952 C951 1.352 . S
C952 C953 1.384 . S
C952 H974 0.930 . S
C953 C948 1.407 . S
C953 C952 1.384 . S
C953 H975 0.929 . S
C954 O964 1.241 . S
C954 O965 1.273 . S
C955 O966 1.251 . S
C955 O967 1.268 . S
O956 Nd936 2.500 . S
O956 C938 1.258 . S
O957 Nd936 2.492 . S
O957 C938 1.239 . S
O958 Nd936 2.487 . S
O958 C945 1.241 . S
O959 Nd936 2.682 . S
O959 Nd937 2.414 . S
O959 C945 1.273 . S
O960 Nd936 2.410 . S
O960 C946 1.251 . S
O961 Nd937 2.424 . S
O961 C946 1.268 . S
O962 Nd937 2.500 1_655 S
O962 C947 1.258 . S
O963 Nd937 2.492 1_655 S
O963 C947 1.239 . S
O964 Nd937 2.487 . S
O964 C954 1.241 . S
O965 Nd936 2.414 . S
O965 Nd937 2.682 . S
O965 C954 1.273 . S
O966 Nd937 2.410 . S
O966 C955 1.251 . S
O967 Nd936 2.424 . S
O967 C955 1.268 . S
H968 C940 0.930 . S
H969 C941 0.929 . S
H970 C943 0.930 . S
H971 C944 0.929 . S
H972 C949 0.930 . S
H973 C950 0.929 . S
H974 C952 0.930 . S
H975 C953 0.929 . S
C976 C977 1.391 . S
C976 C978 1.394 . S
C976 H992 0.931 . S
C977 C976 1.391 . S
C977 C981 1.376 . S
C978 C976 1.394 . S
C978 C979 1.369 . S
C978 C982 1.531 . S
C979 C978 1.369 . S
C979 C980 1.410 . S
C979 C987 1.503 1_556 S
C980 C979 1.410 . S
C980 C981 1.392 . S
C980 C983 1.511 1_556 S
C981 C977 1.376 . S
C981 C980 1.392 . S
C981 H993 0.929 . S
C982 C978 1.531 . S
C982 H994 0.960 . S
C982 H995 0.962 . S
C982 H996 0.960 . S
C983 C980 1.511 1_554 S
C983 H997 0.961 . S
C983 H998 0.961 . S
C983 H999 0.961 . S
C984 C985 1.370 . S
C984 C986 1.363 . S
C984 H1000 0.931 . S
C985 C984 1.370 . S
C985 C989 1.408 . S
C986 C984 1.363 . S
C986 C987 1.370 . S
C986 C990 1.524 . S
C987 C979 1.503 1_554 S
C987 C986 1.370 . S
C987 C988 1.403 . S
C988 C987 1.403 . S
C988 C989 1.404 . S
C988 C991 1.539 . S
C989 C985 1.408 . S
C989 C988 1.404 . S
C989 H1001 0.930 . S
C990 C986 1.524 . S
C990 H1002 0.956 1_554 S
C990 H1003 0.961 . S
C990 H1004 0.961 . S
C991 C988 1.539 . S
C991 H1005 0.958 1_554 S
C991 H1006 0.961 . S
C991 H1007 0.960 1_554 S
H992 C976 0.931 . S
H993 C981 0.929 . S
H994 C982 0.960 . S
H995 C982 0.962 . S
H996 C982 0.960 . S
H997 C983 0.961 . S
H998 C983 0.961 . S
H999 C983 0.961 . S
H1000 C984 0.931 . S
H1001 C989 0.930 . S
H1002 C990 0.956 1_556 S
H1003 C990 0.961 . S
H1004 C990 0.961 . S
H1005 C991 0.958 1_556 S
H1006 C991 0.961 . S
H1007 C991 0.960 1_556 S
C1008 C1009 1.391 . S
C1008 C1010 1.394 . S
C1008 H1024 0.931 . S
C1009 C1008 1.391 . S
C1009 C1013 1.376 . S
C1010 C1008 1.394 . S
C1010 C1011 1.369 . S
C1010 C1014 1.531 . S
C1011 C1010 1.369 . S
C1011 C1012 1.410 . S
C1011 C1019 1.503 . S
C1012 C1011 1.410 . S
C1012 C1013 1.392 . S
C1012 C1015 1.511 . S
C1013 C1009 1.376 . S
C1013 C1012 1.392 . S
C1013 H1025 0.929 . S
C1014 C1010 1.531 . S
C1014 H1026 0.960 . S
C1014 H1027 0.962 . S
C1014 H1028 0.960 . S
C1015 C1012 1.511 . S
C1015 H1029 0.961 . S
C1015 H1030 0.961 . S
C1015 H1031 0.961 . S
C1016 C1017 1.370 . S
C1016 C1018 1.363 . S
C1016 H1032 0.931 . S
C1017 C1016 1.370 . S
C1017 C1021 1.408 . S
C1018 C1016 1.363 . S
C1018 C1019 1.370 . S
C1018 C1022 1.524 . S
C1019 C1011 1.503 . S
C1019 C1018 1.370 . S
C1019 C1020 1.403 . S
C1020 C1019 1.403 . S
C1020 C1021 1.404 . S
C1020 C1023 1.539 . S
C1021 C1017 1.408 . S
C1021 C1020 1.404 . S
C1021 H1033 0.930 . S
C1022 C1018 1.524 . S
C1022 H1034 0.956 . S
C1022 H1035 0.961 . S
C1022 H1036 0.961 . S
C1023 C1020 1.539 . S
C1023 H1037 0.958 . S
C1023 H1038 0.961 . S
C1023 H1039 0.960 . S
H1024 C1008 0.931 . S
H1025 C1013 0.929 . S
H1026 C1014 0.960 . S
H1027 C1014 0.962 . S
H1028 C1014 0.960 . S
H1029 C1015 0.961 . S
H1030 C1015 0.961 . S
H1031 C1015 0.961 . S
H1032 C1016 0.931 . S
H1033 C1021 0.930 . S
H1034 C1022 0.956 . S
H1035 C1022 0.961 . S
H1036 C1022 0.961 . S
H1037 C1023 0.958 . S
H1038 C1023 0.961 . S
H1039 C1023 0.960 . S
C1040 C1041 1.391 . S
C1040 C1042 1.394 . S
C1040 H1056 0.931 . S
C1041 C1040 1.391 . S
C1041 C1045 1.376 . S
C1042 C1040 1.394 . S
C1042 C1043 1.369 . S
C1042 C1046 1.531 . S
C1043 C1042 1.369 . S
C1043 C1044 1.410 . S
C1043 C1051 1.503 . S
C1044 C1043 1.410 . S
C1044 C1045 1.392 . S
C1044 C1047 1.511 . S
C1045 C1041 1.376 . S
C1045 C1044 1.392 . S
C1045 H1057 0.929 . S
C1046 C1042 1.531 . S
C1046 H1058 0.960 . S
C1046 H1059 0.962 . S
C1046 H1060 0.960 . S
C1047 C1044 1.511 . S
C1047 H1061 0.961 . S
C1047 H1062 0.961 . S
C1047 H1063 0.961 . S
C1048 C1049 1.370 . S
C1048 C1050 1.363 . S
C1048 H1064 0.931 1_565 S
C1049 C1048 1.370 . S
C1049 C1053 1.408 . S
C1050 C1048 1.363 . S
C1050 C1051 1.370 . S
C1050 C1054 1.524 . S
C1051 C1043 1.503 . S
C1051 C1050 1.370 . S
C1051 C1052 1.403 . S
C1052 C1051 1.403 . S
C1052 C1053 1.404 . S
C1052 C1055 1.539 . S
C1053 C1049 1.408 . S
C1053 C1052 1.404 . S
C1053 H1065 0.930 . S
C1054 C1050 1.524 . S
C1054 H1066 0.956 . S
C1054 H1067 0.961 . S
C1054 H1068 0.961 . S
C1055 C1052 1.539 . S
C1055 H1069 0.958 . S
C1055 H1070 0.961 . S
C1055 H1071 0.960 . S
H1056 C1040 0.931 . S
H1057 C1045 0.929 . S
H1058 C1046 0.960 . S
H1059 C1046 0.962 . S
H1060 C1046 0.960 . S
H1061 C1047 0.961 . S
H1062 C1047 0.961 . S
H1063 C1047 0.961 . S
H1064 C1048 0.931 1_545 S
H1065 C1053 0.930 . S
H1066 C1054 0.956 . S
H1067 C1054 0.961 . S
H1068 C1054 0.961 . S
H1069 C1055 0.958 . S
H1070 C1055 0.961 . S
H1071 C1055 0.960 . S
C1072 C1073 1.391 . S
C1072 C1074 1.394 . S
C1072 H1088 0.931 . S
C1073 C1072 1.391 . S
C1073 C1077 1.376 . S
C1074 C1072 1.394 . S
C1074 C1075 1.369 . S
C1074 C1078 1.531 . S
C1075 C1074 1.369 . S
C1075 C1076 1.410 . S
C1075 C1083 1.503 . S
C1076 C1075 1.410 . S
C1076 C1077 1.392 . S
C1076 C1079 1.511 . S
C1077 C1073 1.376 . S
C1077 C1076 1.392 . S
C1077 H1089 0.929 . S
C1078 C1074 1.531 . S
C1078 H1090 0.960 . S
C1078 H1091 0.962 . S
C1078 H1092 0.960 . S
C1079 C1076 1.511 . S
C1079 H1093 0.961 . S
C1079 H1094 0.961 . S
C1079 H1095 0.961 . S
C1080 C1081 1.370 . S
C1080 C1082 1.363 . S
C1080 H1096 0.931 . S
C1081 C1080 1.370 . S
C1081 C1085 1.408 . S
C1082 C1080 1.363 . S
C1082 C1083 1.370 . S
C1082 C1086 1.524 . S
C1083 C1075 1.503 . S
C1083 C1082 1.370 . S
C1083 C1084 1.403 . S
C1084 C1083 1.403 . S
C1084 C1085 1.404 . S
C1084 C1087 1.539 . S
C1085 C1081 1.408 . S
C1085 C1084 1.404 . S
C1085 H1097 0.930 . S
C1086 C1082 1.524 . S
C1086 H1098 0.956 . S
C1086 H1099 0.961 . S
C1086 H1100 0.961 . S
C1087 C1084 1.539 . S
C1087 H1101 0.958 . S
C1087 H1102 0.961 . S
C1087 H1103 0.960 . S
H1088 C1072 0.931 . S
H1089 C1077 0.929 . S
H1090 C1078 0.960 . S
H1091 C1078 0.962 . S
H1092 C1078 0.960 . S
H1093 C1079 0.961 . S
H1094 C1079 0.961 . S
H1095 C1079 0.961 . S
H1096 C1080 0.931 . S
H1097 C1085 0.930 . S
H1098 C1086 0.956 . S
H1099 C1086 0.961 . S
H1100 C1086 0.961 . S
H1101 C1087 0.958 . S
H1102 C1087 0.961 . S
H1103 C1087 0.960 . S
C1104 C1105 1.418 . S
C1104 C1106 1.403 . S
C1104 H1120 0.897 1_455 S
C1105 C1104 1.418 . S
C1105 C1109 1.376 . S
C1106 C1104 1.403 . S
C1106 C1107 1.369 . S
C1106 C1110 1.531 1_455 S
C1107 C1106 1.369 . S
C1107 C1108 1.410 . S
C1107 C1115 1.503 . S
C1108 C1107 1.410 . S
C1108 C1109 1.392 . S
C1108 C1111 1.511 . S
C1109 C1105 1.376 . S
C1109 C1108 1.392 . S
C1109 H1121 0.929 . S
C1110 C1106 1.531 1_655 S
C1110 H1122 0.960 1_655 S
C1110 H1123 0.956 1_655 S
C1110 H1124 0.960 . S
C1111 C1108 1.511 . S
C1111 H1125 0.961 . S
C1111 H1126 0.961 . S
C1111 H1127 0.961 . S
C1112 C1113 1.370 . S
C1112 C1114 1.363 . S
C1112 H1128 0.931 . S
C1113 C1112 1.370 . S
C1113 C1117 1.408 . S
C1114 C1112 1.363 . S
C1114 C1115 1.370 . S
C1114 C1118 1.524 . S
C1115 C1107 1.503 . S
C1115 C1114 1.370 . S
C1115 C1116 1.403 . S
C1116 C1115 1.403 . S
C1116 C1117 1.404 . S
C1116 C1119 1.539 . S
C1117 C1113 1.408 . S
C1117 C1116 1.404 . S
C1117 H1129 0.930 . S
C1118 C1114 1.524 . S
C1118 H1130 0.956 . S
C1118 H1131 0.961 . S
C1118 H1132 0.961 . S
C1119 C1116 1.539 . S
C1119 H1133 0.958 . S
C1119 H1134 0.961 . S
C1119 H1135 0.960 . S
H1120 C1104 0.897 1_655 S
H1121 C1109 0.929 . S
H1122 C1110 0.960 1_455 S
H1123 C1110 0.956 1_455 S
H1124 C1110 0.960 . S
H1125 C1111 0.961 . S
H1126 C1111 0.961 . S
H1127 C1111 0.961 . S
H1128 C1112 0.931 . S
H1129 C1117 0.930 . S
H1130 C1118 0.956 . S
H1131 C1118 0.961 . S
H1132 C1118 0.961 . S
H1133 C1119 0.958 . S
H1134 C1119 0.961 . S
H1135 C1119 0.960 . S
C1136 C1137 1.391 . S
C1136 C1138 1.394 . S
C1136 H1152 0.931 . S
C1137 C1136 1.391 . S
C1137 C1141 1.376 . S
C1138 C1136 1.394 . S
C1138 C1139 1.369 . S
C1138 C1142 1.531 . S
C1139 C1138 1.369 . S
C1139 C1140 1.410 . S
C1139 C1147 1.503 . S
C1140 C1139 1.410 . S
C1140 C1141 1.392 . S
C1140 C1143 1.511 . S
C1141 C1137 1.376 . S
C1141 C1140 1.392 . S
C1141 H1153 0.929 . S
C1142 C1138 1.531 . S
C1142 H1154 0.960 . S
C1142 H1155 0.962 . S
C1142 H1156 0.960 . S
C1143 C1140 1.511 . S
C1143 H1157 0.961 . S
C1143 H1158 0.961 . S
C1143 H1159 0.961 . S
C1144 C1145 1.370 . S
C1144 C1146 1.363 . S
C1144 H1160 0.931 . S
C1145 C1144 1.370 . S
C1145 C1149 1.408 . S
C1146 C1144 1.363 . S
C1146 C1147 1.370 . S
C1146 C1150 1.524 . S
C1147 C1139 1.503 . S
C1147 C1146 1.370 . S
C1147 C1148 1.403 . S
C1148 C1147 1.403 . S
C1148 C1149 1.404 . S
C1148 C1151 1.539 . S
C1149 C1145 1.408 . S
C1149 C1148 1.404 . S
C1149 H1161 0.930 . S
C1150 C1146 1.524 . S
C1150 H1162 0.956 . S
C1150 H1163 0.961 . S
C1150 H1164 0.961 . S
C1151 C1148 1.539 . S
C1151 H1165 0.958 . S
C1151 H1166 0.961 . S
C1151 H1167 0.960 . S
H1152 C1136 0.931 . S
H1153 C1141 0.929 . S
H1154 C1142 0.960 . S
H1155 C1142 0.962 . S
H1156 C1142 0.960 . S
H1157 C1143 0.961 . S
H1158 C1143 0.961 . S
H1159 C1143 0.961 . S
H1160 C1144 0.931 . S
H1161 C1149 0.930 . S
H1162 C1150 0.956 . S
H1163 C1150 0.961 . S
H1164 C1150 0.961 . S
H1165 C1151 0.958 . S
H1166 C1151 0.961 . S
H1167 C1151 0.960 . S
C1168 C1169 1.391 . S
C1168 C1170 1.394 . S
C1168 H1184 0.931 . S
C1169 C1168 1.391 . S
C1169 C1173 1.376 . S
C1170 C1168 1.394 . S
C1170 C1171 1.369 . S
C1170 C1174 1.531 . S
C1171 C1170 1.369 . S
C1171 C1172 1.410 . S
C1171 C1179 1.503 . S
C1172 C1171 1.410 . S
C1172 C1173 1.392 . S
C1172 C1175 1.511 . S
C1173 C1169 1.376 . S
C1173 C1172 1.392 . S
C1173 H1185 0.929 . S
C1174 C1170 1.531 . S
C1174 H1186 0.960 . S
C1174 H1187 0.962 . S
C1174 H1188 0.960 . S
C1175 C1172 1.511 . S
C1175 H1189 0.961 . S
C1175 H1190 0.961 . S
C1175 H1191 0.961 . S
C1176 C1177 1.370 . S
C1176 C1178 1.363 . S
C1176 H1192 0.931 . S
C1177 C1176 1.370 . S
C1177 C1181 1.408 . S
C1178 C1176 1.363 . S
C1178 C1179 1.370 . S
C1178 C1182 1.524 . S
C1179 C1171 1.503 . S
C1179 C1178 1.370 . S
C1179 C1180 1.403 . S
C1180 C1179 1.403 . S
C1180 C1181 1.404 . S
C1180 C1183 1.539 . S
C1181 C1177 1.408 . S
C1181 C1180 1.404 . S
C1181 H1193 0.930 . S
C1182 C1178 1.524 . S
C1182 H1194 0.956 . S
C1182 H1195 0.961 . S
C1182 H1196 0.961 . S
C1183 C1180 1.539 . S
C1183 H1197 0.958 . S
C1183 H1198 0.961 . S
C1183 H1199 0.960 . S
H1184 C1168 0.931 . S
H1185 C1173 0.929 . S
H1186 C1174 0.960 . S
H1187 C1174 0.962 . S
H1188 C1174 0.960 . S
H1189 C1175 0.961 . S
H1190 C1175 0.961 . S
H1191 C1175 0.961 . S
H1192 C1176 0.931 . S
H1193 C1181 0.930 . S
H1194 C1182 0.956 . S
H1195 C1182 0.961 . S
H1196 C1182 0.961 . S
H1197 C1183 0.958 . S
H1198 C1183 0.961 . S
H1199 C1183 0.960 . S
C1200 C1201 1.391 . S
C1200 C1202 1.394 . S
C1200 H1216 0.931 . S
C1201 C1200 1.391 . S
C1201 C1205 1.376 . S
C1202 C1200 1.394 . S
C1202 C1203 1.369 . S
C1202 C1206 1.531 . S
C1203 C1202 1.369 . S
C1203 C1204 1.410 . S
C1203 C1211 1.503 . S
C1204 C1203 1.410 . S
C1204 C1205 1.392 . S
C1204 C1207 1.511 . S
C1205 C1201 1.376 . S
C1205 C1204 1.392 . S
C1205 H1217 0.929 . S
C1206 C1202 1.531 . S
C1206 H1218 0.960 . S
C1206 H1219 0.962 . S
C1206 H1220 0.960 . S
C1207 C1204 1.511 . S
C1207 H1221 0.961 . S
C1207 H1222 0.961 . S
C1207 H1223 0.961 . S
C1208 C1209 1.370 . S
C1208 C1210 1.363 . S
C1208 H1224 0.931 . S
C1209 C1208 1.370 . S
C1209 C1213 1.408 . S
C1210 C1208 1.363 . S
C1210 C1211 1.370 . S
C1210 C1214 1.524 . S
C1211 C1203 1.503 . S
C1211 C1210 1.370 . S
C1211 C1212 1.403 . S
C1212 C1211 1.403 . S
C1212 C1213 1.404 . S
C1212 C1215 1.539 . S
C1213 C1209 1.408 . S
C1213 C1212 1.404 . S
C1213 H1225 0.930 . S
C1214 C1210 1.524 . S
C1214 H1226 0.956 . S
C1214 H1227 0.961 . S
C1214 H1228 0.961 . S
C1215 C1212 1.539 . S
C1215 H1229 0.958 . S
C1215 H1230 0.961 . S
C1215 H1231 0.960 . S
H1216 C1200 0.931 . S
H1217 C1205 0.929 . S
H1218 C1206 0.960 . S
H1219 C1206 0.962 . S
H1220 C1206 0.960 . S
H1221 C1207 0.961 . S
H1222 C1207 0.961 . S
H1223 C1207 0.961 . S
H1224 C1208 0.931 . S
H1225 C1213 0.930 . S
H1226 C1214 0.956 . S
H1227 C1214 0.961 . S
H1228 C1214 0.961 . S
H1229 C1215 0.958 . S
H1230 C1215 0.961 . S
H1231 C1215 0.960 . S
C1232 C1233 1.391 . S
C1232 C1234 1.394 . S
C1232 H1248 0.931 . S
C1233 C1232 1.391 . S
C1233 C1237 1.376 . S
C1234 C1232 1.394 . S
C1234 C1235 1.369 . S
C1234 C1238 1.531 1_655 S
C1235 C1234 1.369 . S
C1235 C1236 1.410 . S
C1235 C1243 1.503 . S
C1236 C1235 1.410 . S
C1236 C1237 1.392 . S
C1236 C1239 1.511 . S
C1237 C1233 1.376 . S
C1237 C1236 1.392 . S
C1237 H1249 0.929 . S
C1238 C1234 1.531 1_455 S
C1238 H1250 0.960 . S
C1238 H1251 0.962 . S
C1238 H1252 0.960 . S
C1239 C1236 1.511 . S
C1239 H1253 0.961 . S
C1239 H1254 0.961 . S
C1239 H1255 0.961 . S
C1240 C1241 1.370 . S
C1240 C1242 1.363 1_455 S
C1240 H1256 0.928 1_455 S
C1241 C1240 1.370 . S
C1241 C1245 1.408 . S
C1242 C1240 1.363 1_655 S
C1242 C1243 1.370 . S
C1242 C1246 1.524 . S
C1243 C1235 1.503 . S
C1243 C1242 1.370 . S
C1243 C1244 1.403 1_655 S
C1244 C1243 1.403 1_455 S
C1244 C1245 1.404 . S
C1244 C1247 1.539 . S
C1245 C1241 1.408 . S
C1245 C1244 1.404 . S
C1245 H1257 0.930 . S
C1246 C1242 1.524 . S
C1246 H1258 0.956 . S
C1246 H1259 0.961 . S
C1246 H1260 0.961 . S
C1247 C1244 1.539 . S
C1247 H1261 0.958 . S
C1247 H1262 0.961 . S
C1247 H1263 0.960 1_455 S
H1248 C1232 0.931 . S
H1249 C1237 0.929 . S
H1250 C1238 0.960 . S
H1251 C1238 0.962 . S
H1252 C1238 0.960 . S
H1253 C1239 0.961 . S
H1254 C1239 0.961 . S
H1255 C1239 0.961 . S
H1256 C1240 0.928 1_655 S
H1257 C1245 0.930 . S
H1258 C1246 0.956 . S
H1259 C1246 0.961 . S
H1260 C1246 0.961 . S
H1261 C1247 0.958 . S
H1262 C1247 0.961 . S
H1263 C1247 0.960 1_655 S
C1264 C1265 1.391 . S
C1264 C1266 1.394 . S
C1264 H1280 0.931 . S
C1265 C1264 1.391 . S
C1265 C1269 1.376 . S
C1266 C1264 1.394 . S
C1266 C1267 1.369 . S
C1266 C1270 1.531 . S
C1267 C1266 1.369 . S
C1267 C1268 1.410 . S
C1267 C1275 1.503 . S
C1268 C1267 1.410 . S
C1268 C1269 1.392 . S
C1268 C1271 1.511 . S
C1269 C1265 1.376 . S
C1269 C1268 1.392 . S
C1269 H1281 0.929 . S
C1270 C1266 1.531 . S
C1270 H1282 0.960 . S
C1270 H1283 0.962 . S
C1270 H1284 0.960 . S
C1271 C1268 1.511 . S
C1271 H1285 0.961 . S
C1271 H1286 0.961 . S
C1271 H1287 0.961 . S
C1272 C1273 1.370 . S
C1272 C1274 1.363 . S
C1272 H1288 0.931 . S
C1273 C1272 1.370 . S
C1273 C1277 1.408 . S
C1274 C1272 1.363 . S
C1274 C1275 1.370 . S
C1274 C1278 1.524 . S
C1275 C1267 1.503 . S
C1275 C1274 1.370 . S
C1275 C1276 1.403 . S
C1276 C1275 1.403 . S
C1276 C1277 1.404 . S
C1276 C1279 1.539 . S
C1277 C1273 1.408 . S
C1277 C1276 1.404 . S
C1277 H1289 0.930 . S
C1278 C1274 1.524 . S
C1278 H1290 0.956 . S
C1278 H1291 0.961 . S
C1278 H1292 0.961 . S
C1279 C1276 1.539 . S
C1279 H1293 0.958 . S
C1279 H1294 0.961 . S
C1279 H1295 0.960 . S
H1280 C1264 0.931 . S
H1281 C1269 0.929 . S
H1282 C1270 0.960 . S
H1283 C1270 0.962 . S
H1284 C1270 0.960 . S
H1285 C1271 0.961 . S
H1286 C1271 0.961 . S
H1287 C1271 0.961 . S
H1288 C1272 0.931 . S
H1289 C1277 0.930 . S
H1290 C1278 0.956 . S
H1291 C1278 0.961 . S
H1292 C1278 0.961 . S
H1293 C1279 0.958 . S
H1294 C1279 0.961 . S
H1295 C1279 0.960 . S
C1296 C1297 1.391 . S
C1296 C1298 1.394 . S
C1296 H1312 0.931 . S
C1297 C1296 1.391 . S
C1297 C1301 1.376 . S
C1298 C1296 1.394 . S
C1298 C1299 1.369 . S
C1298 C1302 1.531 . S
C1299 C1298 1.369 . S
C1299 C1300 1.410 . S
C1299 C1307 1.503 . S
C1300 C1299 1.410 . S
C1300 C1301 1.392 . S
C1300 C1303 1.511 . S
C1301 C1297 1.376 . S
C1301 C1300 1.392 . S
C1301 H1313 0.929 . S
C1302 C1298 1.531 . S
C1302 H1314 0.960 . S
C1302 H1315 0.962 . S
C1302 H1316 0.960 . S
C1303 C1300 1.511 . S
C1303 H1317 0.961 . S
C1303 H1318 0.961 . S
C1303 H1319 0.965 1_545 S
C1304 C1305 1.370 . S
C1304 C1306 1.363 . S
C1304 H1320 0.931 . S
C1305 C1304 1.370 . S
C1305 C1309 1.408 . S
C1306 C1304 1.363 . S
C1306 C1307 1.370 . S
C1306 C1310 1.524 . S
C1307 C1299 1.503 . S
C1307 C1306 1.370 . S
C1307 C1308 1.403 . S
C1308 C1307 1.403 . S
C1308 C1309 1.404 . S
C1308 C1311 1.539 1_545 S
C1309 C1305 1.408 . S
C1309 C1308 1.404 . S
C1309 H1321 0.930 . S
C1310 C1306 1.524 . S
C1310 H1322 0.956 . S
C1310 H1323 0.961 . S
C1310 H1324 0.961 . S
C1311 C1308 1.539 1_565 S
C1311 H1325 0.958 . S
C1311 H1326 0.961 . S
C1311 H1327 0.960 . S
H1312 C1296 0.931 . S
H1313 C1301 0.929 . S
H1314 C1302 0.960 . S
H1315 C1302 0.962 . S
H1316 C1302 0.960 . S
H1317 C1303 0.961 . S
H1318 C1303 0.961 . S
H1319 C1303 0.965 1_565 S
H1320 C1304 0.931 . S
H1321 C1309 0.930 . S
H1322 C1310 0.956 . S
H1323 C1310 0.961 . S
H1324 C1310 0.961 . S
H1325 C1311 0.958 . S
H1326 C1311 0.961 . S
H1327 C1311 0.960 . S
C1328 C1329 1.391 . S
C1328 C1330 1.394 . S
C1328 H1344 0.931 . S
C1329 C1328 1.391 . S
C1329 C1333 1.376 . S
C1330 C1328 1.394 . S
C1330 C1331 1.369 . S
C1330 C1334 1.531 . S
C1331 C1330 1.369 . S
C1331 C1332 1.410 . S
C1331 C1339 1.503 . S
C1332 C1331 1.410 . S
C1332 C1333 1.392 . S
C1332 C1335 1.511 . S
C1333 C1329 1.376 . S
C1333 C1332 1.392 . S
C1333 H1345 0.929 . S
C1334 C1330 1.531 . S
C1334 H1346 0.960 . S
C1334 H1347 0.962 . S
C1334 H1348 0.960 . S
C1335 C1332 1.511 . S
C1335 H1349 0.961 . S
C1335 H1350 0.961 . S
C1335 H1351 0.961 . S
C1336 C1337 1.370 . S
C1336 C1338 1.363 . S
C1336 H1352 0.931 . S
C1337 C1336 1.370 . S
C1337 C1341 1.408 . S
C1338 C1336 1.363 . S
C1338 C1339 1.370 1_556 S
C1338 C1342 1.524 . S
C1339 C1331 1.503 . S
C1339 C1338 1.370 1_554 S
C1339 C1340 1.403 . S
C1340 C1339 1.403 . S
C1340 C1341 1.404 1_554 S
C1340 C1343 1.539 . S
C1341 C1337 1.408 . S
C1341 C1340 1.404 1_556 S
C1341 H1353 0.922 1_556 S
C1342 C1338 1.524 . S
C1342 H1354 0.956 . S
C1342 H1355 0.961 . S
C1342 H1356 0.961 . S
C1343 C1340 1.539 . S
C1343 H1357 0.958 . S
C1343 H1358 0.961 . S
C1343 H1359 0.960 . S
H1344 C1328 0.931 . S
H1345 C1333 0.929 . S
H1346 C1334 0.960 . S
H1347 C1334 0.962 . S
H1348 C1334 0.960 . S
H1349 C1335 0.961 . S
H1350 C1335 0.961 . S
H1351 C1335 0.961 . S
H1352 C1336 0.931 . S
H1353 C1341 0.922 1_554 S
H1354 C1342 0.956 . S
H1355 C1342 0.961 . S
H1356 C1342 0.961 . S
H1357 C1343 0.958 . S
H1358 C1343 0.961 . S
H1359 C1343 0.960 . S
C1360 C1361 1.391 . S
C1360 C1362 1.394 . S
C1360 H1376 0.931 . S
C1361 C1360 1.391 . S
C1361 C1365 1.376 . S
C1362 C1360 1.394 . S
C1362 C1363 1.369 . S
C1362 C1366 1.531 . S
C1363 C1362 1.369 . S
C1363 C1364 1.410 . S
C1363 C1371 1.503 . S
C1364 C1363 1.410 . S
C1364 C1365 1.392 . S
C1364 C1367 1.511 1_655 S
C1365 C1361 1.376 . S
C1365 C1364 1.392 . S
C1365 H1377 0.929 . S
C1366 C1362 1.531 . S
C1366 H1378 0.960 . S
C1366 H1379 0.962 . S
C1366 H1380 0.960 . S
C1367 C1364 1.511 1_455 S
C1367 H1381 0.961 . S
C1367 H1382 0.961 . S
C1367 H1383 0.961 . S
C1368 C1369 1.370 . S
C1368 C1370 1.363 1_455 S
C1368 H1384 0.931 1_455 S
C1369 C1368 1.370 . S
C1369 C1373 1.408 . S
C1370 C1368 1.363 1_655 S
C1370 C1371 1.370 . S
C1370 C1374 1.524 . S
C1371 C1363 1.503 . S
C1371 C1370 1.370 . S
C1371 C1372 1.403 1_655 S
C1372 C1371 1.403 1_455 S
C1372 C1373 1.404 . S
C1372 C1375 1.539 . S
C1373 C1369 1.408 . S
C1373 C1372 1.404 . S
C1373 H1385 0.930 . S
C1374 C1370 1.524 . S
C1374 H1386 0.956 . S
C1374 H1387 0.961 . S
C1374 H1388 0.961 . S
C1375 C1372 1.539 . S
C1375 H1389 0.958 . S
C1375 H1390 0.961 . S
C1375 H1391 0.960 . S
H1376 C1360 0.931 . S
H1377 C1365 0.929 . S
H1378 C1366 0.960 . S
H1379 C1366 0.962 . S
H1380 C1366 0.960 . S
H1381 C1367 0.961 . S
H1382 C1367 0.961 . S
H1383 C1367 0.961 . S
H1384 C1368 0.931 1_655 S
H1385 C1373 0.930 . S
H1386 C1374 0.956 . S
H1387 C1374 0.961 . S
H1388 C1374 0.961 . S
H1389 C1375 0.958 . S
H1390 C1375 0.961 . S
H1391 C1375 0.960 . S
C1392 C1393 1.391 . S
C1392 C1394 1.394 . S
C1392 H1408 0.931 . S
C1393 C1392 1.391 . S
C1393 C1397 1.376 . S
C1394 C1392 1.394 . S
C1394 C1395 1.369 . S
C1394 C1398 1.531 . S
C1395 C1394 1.369 . S
C1395 C1396 1.410 . S
C1395 C1403 1.503 . S
C1396 C1395 1.410 . S
C1396 C1397 1.392 . S
C1396 C1399 1.511 . S
C1397 C1393 1.376 . S
C1397 C1396 1.392 . S
C1397 H1409 0.929 . S
C1398 C1394 1.531 . S
C1398 H1410 0.960 . S
C1398 H1411 0.962 . S
C1398 H1412 0.960 . S
C1399 C1396 1.511 . S
C1399 H1413 0.961 . S
C1399 H1414 0.961 . S
C1399 H1415 0.961 . S
C1400 C1401 1.370 . S
C1400 C1402 1.363 . S
C1400 H1416 0.931 . S
C1401 C1400 1.370 . S
C1401 C1405 1.408 . S
C1402 C1400 1.363 . S
C1402 C1403 1.370 . S
C1402 C1406 1.524 . S
C1403 C1395 1.503 . S
C1403 C1402 1.370 . S
C1403 C1404 1.403 . S
C1404 C1403 1.403 . S
C1404 C1405 1.404 . S
C1404 C1407 1.539 . S
C1405 C1401 1.408 . S
C1405 C1404 1.404 . S
C1405 H1417 0.930 . S
C1406 C1402 1.524 . S
C1406 H1418 0.956 . S
C1406 H1419 0.961 . S
C1406 H1420 0.961 . S
C1407 C1404 1.539 . S
C1407 H1421 0.958 . S
C1407 H1422 0.961 . S
C1407 H1423 0.960 . S
H1408 C1392 0.931 . S
H1409 C1397 0.929 . S
H1410 C1398 0.960 . S
H1411 C1398 0.962 . S
H1412 C1398 0.960 . S
H1413 C1399 0.961 . S
H1414 C1399 0.961 . S
H1415 C1399 0.961 . S
H1416 C1400 0.931 . S
H1417 C1405 0.930 . S
H1418 C1406 0.956 . S
H1419 C1406 0.961 . S
H1420 C1406 0.961 . S
H1421 C1407 0.958 . S
H1422 C1407 0.961 . S
H1423 C1407 0.960 . S
C1424 C1425 1.391 . S
C1424 C1426 1.394 . S
C1424 H1440 0.931 1_545 S
C1425 C1424 1.391 . S
C1425 C1429 1.376 . S
C1426 C1424 1.394 . S
C1426 C1427 1.369 . S
C1426 C1430 1.531 . S
C1427 C1426 1.369 . S
C1427 C1428 1.410 . S
C1427 C1435 1.503 . S
C1428 C1427 1.410 . S
C1428 C1429 1.392 . S
C1428 C1431 1.511 . S
C1429 C1425 1.376 . S
C1429 C1428 1.392 . S
C1429 H1441 0.929 . S
C1430 C1426 1.531 . S
C1430 H1442 0.960 . S
C1430 H1443 0.962 . S
C1430 H1444 0.960 1_545 S
C1431 C1428 1.511 . S
C1431 H1445 0.961 . S
C1431 H1446 0.961 . S
C1431 H1447 0.961 . S
C1432 C1433 1.370 1_556 S
C1432 C1434 1.363 . S
C1432 H1448 0.931 . S
C1433 C1432 1.370 1_554 S
C1433 C1437 1.408 . S
C1434 C1432 1.363 . S
C1434 C1435 1.370 . S
C1434 C1438 1.524 . S
C1435 C1427 1.503 . S
C1435 C1434 1.370 . S
C1435 C1436 1.403 . S
C1436 C1435 1.403 . S
C1436 C1437 1.404 1_556 S
C1436 C1439 1.539 . S
C1437 C1433 1.408 . S
C1437 C1436 1.404 1_554 S
C1437 H1449 0.930 . S
C1438 C1434 1.524 . S
C1438 H1450 0.956 . S
C1438 H1451 0.961 . S
C1438 H1452 0.961 . S
C1439 C1436 1.539 . S
C1439 H1453 0.958 1_545 S
C1439 H1454 0.961 1_556 S
C1439 H1455 0.960 . S
H1440 C1424 0.931 1_565 S
H1441 C1429 0.929 . S
H1442 C1430 0.960 . S
H1443 C1430 0.962 . S
H1444 C1430 0.960 1_565 S
H1445 C1431 0.961 . S
H1446 C1431 0.961 . S
H1447 C1431 0.961 . S
H1448 C1432 0.931 . S
H1449 C1437 0.930 . S
H1450 C1438 0.956 . S
H1451 C1438 0.961 . S
H1452 C1438 0.961 . S
H1453 C1439 0.958 1_565 S
H1454 C1439 0.961 1_554 S
H1455 C1439 0.960 . S
C1456 C1457 1.391 . S
C1456 C1458 1.394 . S
C1456 H1472 0.931 . S
C1457 C1456 1.391 . S
C1457 C1461 1.376 . S
C1458 C1456 1.394 . S
C1458 C1459 1.369 . S
C1458 C1462 1.531 . S
C1459 C1458 1.369 . S
C1459 C1460 1.410 . S
C1459 C1467 1.503 . S
C1460 C1459 1.410 . S
C1460 C1461 1.392 . S
C1460 C1463 1.511 . S
C1461 C1457 1.376 . S
C1461 C1460 1.392 . S
C1461 H1473 0.929 . S
C1462 C1458 1.531 . S
C1462 H1474 0.960 . S
C1462 H1475 0.962 . S
C1462 H1476 0.960 . S
C1463 C1460 1.511 . S
C1463 H1477 0.961 . S
C1463 H1478 0.961 . S
C1463 H1479 0.961 . S
C1464 C1465 1.370 . S
C1464 C1466 1.363 . S
C1464 H1480 0.931 . S
C1465 C1464 1.370 . S
C1465 C1469 1.408 . S
C1466 C1464 1.363 . S
C1466 C1467 1.370 . S
C1466 C1470 1.524 . S
C1467 C1459 1.503 . S
C1467 C1466 1.370 . S
C1467 C1468 1.403 . S
C1468 C1467 1.403 . S
C1468 C1469 1.404 . S
C1468 C1471 1.539 . S
C1469 C1465 1.408 . S
C1469 C1468 1.404 . S
C1469 H1481 0.930 . S
C1470 C1466 1.524 . S
C1470 H1482 0.956 . S
C1470 H1483 0.961 . S
C1470 H1484 0.961 . S
C1471 C1468 1.539 . S
C1471 H1485 0.958 . S
C1471 H1486 0.961 . S
C1471 H1487 0.960 . S
H1472 C1456 0.931 . S
H1473 C1461 0.929 . S
H1474 C1462 0.960 . S
H1475 C1462 0.962 . S
H1476 C1462 0.960 . S
H1477 C1463 0.961 . S
H1478 C1463 0.961 . S
H1479 C1463 0.961 . S
H1480 C1464 0.931 . S
H1481 C1469 0.930 . S
H1482 C1470 0.956 . S
H1483 C1470 0.961 . S
H1484 C1470 0.961 . S
H1485 C1471 0.958 . S
H1486 C1471 0.961 . S
H1487 C1471 0.960 . S
C1488 C1489 1.391 . S
C1488 C1490 1.394 . S
C1488 H1504 0.931 . S
C1489 C1488 1.391 . S
C1489 C1493 1.376 . S
C1490 C1488 1.394 . S
C1490 C1491 1.369 . S
C1490 C1494 1.531 . S
C1491 C1490 1.369 . S
C1491 C1492 1.410 . S
C1491 C1499 1.503 . S
C1492 C1491 1.410 . S
C1492 C1493 1.392 . S
C1492 C1495 1.511 1_565 S
C1493 C1489 1.376 . S
C1493 C1492 1.392 . S
C1493 H1505 0.929 . S
C1494 C1490 1.531 . S
C1494 H1506 0.960 . S
C1494 H1507 0.962 . S
C1494 H1508 0.960 . S
C1495 C1492 1.511 1_545 S
C1495 H1509 0.961 . S
C1495 H1510 0.961 . S
C1495 H1511 0.961 . S
C1496 C1497 1.370 . S
C1496 C1498 1.363 . S
C1496 H1512 0.931 . S
C1497 C1496 1.370 . S
C1497 C1501 1.408 . S
C1498 C1496 1.363 . S
C1498 C1499 1.370 1_545 S
C1498 C1502 1.524 1_545 S
C1499 C1491 1.503 . S
C1499 C1498 1.370 1_565 S
C1499 C1500 1.403 1_565 S
C1500 C1499 1.403 1_545 S
C1500 C1501 1.404 . S
C1500 C1503 1.539 . S
C1501 C1497 1.408 . S
C1501 C1500 1.404 . S
C1501 H1513 0.930 . S
C1502 C1498 1.524 1_565 S
C1502 H1514 0.956 . S
C1502 H1515 0.961 . S
C1502 H1516 0.961 . S
C1503 C1500 1.539 . S
C1503 H1517 0.958 1_545 S
C1503 H1518 0.961 . S
C1503 H1519 0.954 1_545 S
H1504 C1488 0.931 . S
H1505 C1493 0.929 . S
H1506 C1494 0.960 . S
H1507 C1494 0.962 . S
H1508 C1494 0.960 . S
H1509 C1495 0.961 . S
H1510 C1495 0.961 . S
H1511 C1495 0.961 . S
H1512 C1496 0.931 . S
H1513 C1501 0.930 . S
H1514 C1502 0.956 . S
H1515 C1502 0.961 . S
H1516 C1502 0.961 . S
H1517 C1503 0.958 1_565 S
H1518 C1503 0.961 . S
H1519 C1503 0.954 1_565 S
C1520 C1521 1.391 . S
C1520 C1522 1.394 . S
C1520 H1536 0.931 . S
C1521 C1520 1.391 . S
C1521 C1525 1.376 1_554 S
C1522 C1520 1.394 . S
C1522 C1523 1.369 . S
C1522 C1526 1.531 . S
C1523 C1522 1.369 . S
C1523 C1524 1.410 . S
C1523 C1531 1.503 . S
C1524 C1523 1.410 . S
C1524 C1525 1.392 1_554 S
C1524 C1527 1.511 1_554 S
C1525 C1521 1.376 1_556 S
C1525 C1524 1.392 1_556 S
C1525 H1537 0.929 . S
C1526 C1522 1.531 . S
C1526 H1538 0.960 . S
C1526 H1539 0.962 . S
C1526 H1540 0.960 . S
C1527 C1524 1.511 1_556 S
C1527 H1541 0.961 . S
C1527 H1542 0.961 . S
C1527 H1543 0.961 . S
C1528 C1529 1.370 . S
C1528 C1530 1.363 . S
C1528 H1544 0.931 . S
C1529 C1528 1.370 . S
C1529 C1533 1.408 . S
C1530 C1528 1.363 . S
C1530 C1531 1.370 . S
C1530 C1534 1.524 . S
C1531 C1523 1.503 . S
C1531 C1530 1.370 . S
C1531 C1532 1.403 . S
C1532 C1531 1.403 . S
C1532 C1533 1.404 . S
C1532 C1535 1.539 . S
C1533 C1529 1.408 . S
C1533 C1532 1.404 . S
C1533 H1545 0.930 . S
C1534 C1530 1.524 . S
C1534 H1546 0.956 . S
C1534 H1547 0.961 . S
C1534 H1548 0.961 . S
C1535 C1532 1.539 . S
C1535 H1549 0.958 . S
C1535 H1550 0.961 . S
C1535 H1551 0.960 . S
H1536 C1520 0.931 . S
H1537 C1525 0.929 . S
H1538 C1526 0.960 . S
H1539 C1526 0.962 . S
H1540 C1526 0.960 . S
H1541 C1527 0.961 . S
H1542 C1527 0.961 . S
H1543 C1527 0.961 . S
H1544 C1528 0.931 . S
H1545 C1533 0.930 . S
H1546 C1534 0.956 . S
H1547 C1534 0.961 . S
H1548 C1534 0.961 . S
H1549 C1535 0.958 . S
H1550 C1535 0.961 . S
H1551 C1535 0.960 . S
C1552 C1553 1.391 . S
C1552 C1554 1.394 . S
C1552 H1568 0.931 . S
C1553 C1552 1.391 . S
C1553 C1557 1.376 . S
C1554 C1552 1.394 . S
C1554 C1555 1.369 . S
C1554 C1558 1.531 . S
C1555 C1554 1.369 . S
C1555 C1556 1.410 . S
C1555 C1563 1.503 . S
C1556 C1555 1.410 . S
C1556 C1557 1.392 . S
C1556 C1559 1.511 . S
C1557 C1553 1.376 . S
C1557 C1556 1.392 . S
C1557 H1569 0.929 . S
C1558 C1554 1.531 . S
C1558 H1570 0.960 . S
C1558 H1571 0.962 . S
C1558 H1572 0.960 . S
C1559 C1556 1.511 . S
C1559 H1573 0.961 . S
C1559 H1574 0.961 . S
C1559 H1575 0.961 . S
C1560 C1561 1.370 . S
C1560 C1562 1.363 . S
C1560 H1576 0.931 . S
C1561 C1560 1.370 . S
C1561 C1565 1.408 . S
C1562 C1560 1.363 . S
C1562 C1563 1.370 . S
C1562 C1566 1.524 . S
C1563 C1555 1.503 . S
C1563 C1562 1.370 . S
C1563 C1564 1.403 . S
C1564 C1563 1.403 . S
C1564 C1565 1.404 . S
C1564 C1567 1.539 . S
C1565 C1561 1.408 . S
C1565 C1564 1.404 . S
C1565 H1577 0.930 . S
C1566 C1562 1.524 . S
C1566 H1578 0.956 . S
C1566 H1579 0.961 . S
C1566 H1580 0.961 . S
C1567 C1564 1.539 . S
C1567 H1581 0.958 . S
C1567 H1582 0.961 . S
C1567 H1583 0.960 . S
H1568 C1552 0.931 . S
H1569 C1557 0.929 . S
H1570 C1558 0.960 . S
H1571 C1558 0.962 . S
H1572 C1558 0.960 . S
H1573 C1559 0.961 . S
H1574 C1559 0.961 . S
H1575 C1559 0.961 . S
H1576 C1560 0.931 . S
H1577 C1565 0.930 . S
H1578 C1566 0.956 . S
H1579 C1566 0.961 . S
H1580 C1566 0.961 . S
H1581 C1567 0.958 . S
H1582 C1567 0.961 . S
H1583 C1567 0.960 . S
C1584 C1585 1.391 . S
C1584 C1586 1.394 . S
C1584 H1600 0.931 . S
C1585 C1584 1.391 . S
C1585 C1589 1.376 . S
C1586 C1584 1.394 . S
C1586 C1587 1.369 . S
C1586 C1590 1.531 . S
C1587 C1586 1.369 . S
C1587 C1588 1.410 . S
C1587 C1595 1.503 . S
C1588 C1587 1.410 . S
C1588 C1589 1.392 . S
C1588 C1591 1.511 . S
C1589 C1585 1.376 . S
C1589 C1588 1.392 . S
C1589 H1601 0.929 . S
C1590 C1586 1.531 . S
C1590 H1602 0.960 . S
C1590 H1603 0.962 . S
C1590 H1604 0.960 . S
C1591 C1588 1.511 . S
C1591 H1605 0.961 . S
C1591 H1606 0.961 . S
C1591 H1607 0.961 . S
C1592 C1593 1.370 . S
C1592 C1594 1.363 . S
C1592 H1608 0.931 . S
C1593 C1592 1.370 . S
C1593 C1597 1.408 . S
C1594 C1592 1.363 . S
C1594 C1595 1.370 . S
C1594 C1598 1.524 . S
C1595 C1587 1.503 . S
C1595 C1594 1.370 . S
C1595 C1596 1.403 . S
C1596 C1595 1.403 . S
C1596 C1597 1.404 . S
C1596 C1599 1.539 . S
C1597 C1593 1.408 . S
C1597 C1596 1.404 . S
C1597 H1609 0.930 . S
C1598 C1594 1.524 . S
C1598 H1610 0.956 . S
C1598 H1611 0.961 . S
C1598 H1612 0.961 . S
C1599 C1596 1.539 . S
C1599 H1613 0.958 . S
C1599 H1614 0.961 . S
C1599 H1615 0.960 . S
H1600 C1584 0.931 . S
H1601 C1589 0.929 . S
H1602 C1590 0.960 . S
H1603 C1590 0.962 . S
H1604 C1590 0.960 . S
H1605 C1591 0.961 . S
H1606 C1591 0.961 . S
H1607 C1591 0.961 . S
H1608 C1592 0.931 . S
H1609 C1597 0.930 . S
H1610 C1598 0.956 . S
H1611 C1598 0.961 . S
H1612 C1598 0.961 . S
H1613 C1599 0.958 . S
H1614 C1599 0.961 . S
H1615 C1599 0.960 . S
C1616 C1617 1.391 . S
C1616 C1618 1.394 . S
C1616 H1632 0.931 . S
C1617 C1616 1.391 . S
C1617 C1621 1.376 . S
C1618 C1616 1.394 . S
C1618 C1619 1.369 . S
C1618 C1622 1.531 . S
C1619 C1618 1.369 . S
C1619 C1620 1.410 . S
C1619 C1627 1.503 . S
C1620 C1619 1.410 . S
C1620 C1621 1.392 . S
C1620 C1623 1.511 . S
C1621 C1617 1.376 . S
C1621 C1620 1.392 . S
C1621 H1633 0.929 . S
C1622 C1618 1.531 . S
C1622 H1634 0.960 . S
C1622 H1635 0.962 . S
C1622 H1636 0.960 . S
C1623 C1620 1.511 . S
C1623 H1637 0.961 . S
C1623 H1638 0.961 . S
C1623 H1639 0.961 . S
C1624 C1625 1.370 . S
C1624 C1626 1.363 . S
C1624 H1640 0.931 . S
C1625 C1624 1.370 . S
C1625 C1629 1.408 . S
C1626 C1624 1.363 . S
C1626 C1627 1.370 . S
C1626 C1630 1.524 . S
C1627 C1619 1.503 . S
C1627 C1626 1.370 . S
C1627 C1628 1.403 . S
C1628 C1627 1.403 . S
C1628 C1629 1.404 . S
C1628 C1631 1.539 . S
C1629 C1625 1.408 . S
C1629 C1628 1.404 . S
C1629 H1641 0.930 . S
C1630 C1626 1.524 . S
C1630 H1642 0.956 . S
C1630 H1643 0.961 . S
C1630 H1644 0.961 . S
C1631 C1628 1.539 . S
C1631 H1645 0.958 . S
C1631 H1646 0.961 . S
C1631 H1647 0.960 . S
H1632 C1616 0.931 . S
H1633 C1621 0.929 . S
H1634 C1622 0.960 . S
H1635 C1622 0.962 . S
H1636 C1622 0.960 . S
H1637 C1623 0.961 . S
H1638 C1623 0.961 . S
H1639 C1623 0.961 . S
H1640 C1624 0.931 . S
H1641 C1629 0.930 . S
H1642 C1630 0.956 . S
H1643 C1630 0.961 . S
H1644 C1630 0.961 . S
H1645 C1631 0.958 . S
H1646 C1631 0.961 . S
H1647 C1631 0.960 . S
C1648 C1649 1.391 . S
C1648 C1650 1.394 . S
C1648 H1664 0.931 . S
C1649 C1648 1.391 . S
C1649 C1653 1.376 . S
C1650 C1648 1.394 . S
C1650 C1651 1.369 . S
C1650 C1654 1.531 . S
C1651 C1650 1.369 . S
C1651 C1652 1.410 . S
C1651 C1659 1.503 . S
C1652 C1651 1.410 . S
C1652 C1653 1.392 . S
C1652 C1655 1.511 . S
C1653 C1649 1.376 . S
C1653 C1652 1.392 . S
C1653 H1665 0.929 . S
C1654 C1650 1.531 . S
C1654 H1666 0.960 . S
C1654 H1667 0.962 . S
C1654 H1668 0.960 . S
C1655 C1652 1.511 . S
C1655 H1669 0.961 . S
C1655 H1670 0.961 . S
C1655 H1671 0.961 . S
C1656 C1657 1.370 . S
C1656 C1658 1.363 . S
C1656 H1672 0.931 . S
C1657 C1656 1.370 . S
C1657 C1661 1.408 . S
C1658 C1656 1.363 . S
C1658 C1659 1.370 . S
C1658 C1662 1.524 . S
C1659 C1651 1.503 . S
C1659 C1658 1.370 . S
C1659 C1660 1.403 . S
C1660 C1659 1.403 . S
C1660 C1661 1.404 . S
C1660 C1663 1.539 . S
C1661 C1657 1.408 . S
C1661 C1660 1.404 . S
C1661 H1673 0.930 . S
C1662 C1658 1.524 . S
C1662 H1674 0.956 . S
C1662 H1675 0.961 . S
C1662 H1676 0.961 . S
C1663 C1660 1.539 . S
C1663 H1677 0.958 . S
C1663 H1678 0.961 . S
C1663 H1679 0.960 . S
H1664 C1648 0.931 . S
H1665 C1653 0.929 . S
H1666 C1654 0.960 . S
H1667 C1654 0.962 . S
H1668 C1654 0.960 . S
H1669 C1655 0.961 . S
H1670 C1655 0.961 . S
H1671 C1655 0.961 . S
H1672 C1656 0.931 . S
H1673 C1661 0.930 . S
H1674 C1662 0.956 . S
H1675 C1662 0.961 . S
H1676 C1662 0.961 . S
H1677 C1663 0.958 . S
H1678 C1663 0.961 . S
H1679 C1663 0.960 . S
C1680 C1681 1.391 . S
C1680 C1682 1.394 . S
C1680 H1696 0.931 . S
C1681 C1680 1.391 . S
C1681 C1685 1.376 . S
C1682 C1680 1.394 . S
C1682 C1683 1.369 . S
C1682 C1686 1.531 . S
C1683 C1682 1.369 . S
C1683 C1684 1.410 . S
C1683 C1691 1.503 . S
C1684 C1683 1.410 . S
C1684 C1685 1.392 . S
C1684 C1687 1.511 . S
C1685 C1681 1.376 . S
C1685 C1684 1.392 . S
C1685 H1697 0.929 . S
C1686 C1682 1.531 . S
C1686 H1698 0.960 . S
C1686 H1699 0.962 . S
C1686 H1700 0.960 . S
C1687 C1684 1.511 . S
C1687 H1701 0.961 . S
C1687 H1702 0.961 . S
C1687 H1703 0.961 . S
C1688 C1689 1.370 . S
C1688 C1690 1.363 . S
C1688 H1704 0.931 . S
C1689 C1688 1.370 . S
C1689 C1693 1.408 . S
C1690 C1688 1.363 . S
C1690 C1691 1.370 . S
C1690 C1694 1.524 . S
C1691 C1683 1.503 . S
C1691 C1690 1.370 . S
C1691 C1692 1.403 . S
C1692 C1691 1.403 . S
C1692 C1693 1.404 . S
C1692 C1695 1.539 . S
C1693 C1689 1.408 . S
C1693 C1692 1.404 . S
C1693 H1705 0.930 . S
C1694 C1690 1.524 . S
C1694 H1706 0.956 . S
C1694 H1707 0.961 . S
C1694 H1708 0.961 . S
C1695 C1692 1.539 . S
C1695 H1709 0.958 . S
C1695 H1710 0.961 . S
C1695 H1711 0.960 . S
H1696 C1680 0.931 . S
H1697 C1685 0.929 . S
H1698 C1686 0.960 . S
H1699 C1686 0.962 . S
H1700 C1686 0.960 . S
H1701 C1687 0.961 . S
H1702 C1687 0.961 . S
H1703 C1687 0.961 . S
H1704 C1688 0.931 . S
H1705 C1693 0.930 . S
H1706 C1694 0.956 . S
H1707 C1694 0.961 . S
H1708 C1694 0.961 . S
H1709 C1695 0.958 . S
H1710 C1695 0.961 . S
H1711 C1695 0.960 . S
C1712 C1713 1.391 . S
C1712 C1714 1.394 . S
C1712 H1728 0.931 . S
C1713 C1712 1.391 . S
C1713 C1717 1.376 . S
C1714 C1712 1.394 . S
C1714 C1715 1.369 . S
C1714 C1718 1.531 . S
C1715 C1714 1.369 . S
C1715 C1716 1.410 . S
C1715 C1723 1.503 . S
C1716 C1715 1.410 . S
C1716 C1717 1.392 . S
C1716 C1719 1.511 . S
C1717 C1713 1.376 . S
C1717 C1716 1.392 . S
C1717 H1729 0.929 . S
C1718 C1714 1.531 . S
C1718 H1730 0.960 . S
C1718 H1731 0.962 . S
C1718 H1732 0.960 . S
C1719 C1716 1.511 . S
C1719 H1733 0.961 . S
C1719 H1734 0.961 . S
C1719 H1735 0.961 . S
C1720 C1721 1.370 . S
C1720 C1722 1.363 . S
C1720 H1736 0.931 . S
C1721 C1720 1.370 . S
C1721 C1725 1.408 . S
C1722 C1720 1.363 . S
C1722 C1723 1.370 . S
C1722 C1726 1.524 . S
C1723 C1715 1.503 . S
C1723 C1722 1.370 . S
C1723 C1724 1.403 . S
C1724 C1723 1.403 . S
C1724 C1725 1.404 . S
C1724 C1727 1.539 . S
C1725 C1721 1.408 . S
C1725 C1724 1.404 . S
C1725 H1737 0.930 . S
C1726 C1722 1.524 . S
C1726 H1738 0.956 . S
C1726 H1739 0.961 . S
C1726 H1740 0.961 . S
C1727 C1724 1.539 . S
C1727 H1741 0.958 . S
C1727 H1742 0.961 . S
C1727 H1743 0.960 . S
H1728 C1712 0.931 . S
H1729 C1717 0.929 . S
H1730 C1718 0.960 . S
H1731 C1718 0.962 . S
H1732 C1718 0.960 . S
H1733 C1719 0.961 . S
H1734 C1719 0.961 . S
H1735 C1719 0.961 . S
H1736 C1720 0.931 . S
H1737 C1725 0.930 . S
H1738 C1726 0.956 . S
H1739 C1726 0.961 . S
H1740 C1726 0.961 . S
H1741 C1727 0.958 . S
H1742 C1727 0.961 . S
H1743 C1727 0.960 . S
C1744 C1745 1.391 . S
C1744 C1746 1.394 . S
C1744 H1760 0.931 . S
C1745 C1744 1.391 . S
C1745 C1749 1.376 . S
C1746 C1744 1.394 . S
C1746 C1747 1.369 . S
C1746 C1750 1.531 . S
C1747 C1746 1.369 . S
C1747 C1748 1.410 . S
C1747 C1755 1.503 . S
C1748 C1747 1.410 . S
C1748 C1749 1.392 . S
C1748 C1751 1.511 . S
C1749 C1745 1.376 . S
C1749 C1748 1.392 . S
C1749 H1761 0.929 . S
C1750 C1746 1.531 . S
C1750 H1762 0.960 . S
C1750 H1763 0.962 1_455 S
C1750 H1764 0.960 1_455 S
C1751 C1748 1.511 . S
C1751 H1765 0.961 . S
C1751 H1766 0.961 . S
C1751 H1767 0.961 . S
C1752 C1753 1.370 . S
C1752 C1754 1.363 . S
C1752 H1768 0.931 . S
C1753 C1752 1.370 . S
C1753 C1757 1.408 . S
C1754 C1752 1.363 . S
C1754 C1755 1.370 . S
C1754 C1758 1.524 . S
C1755 C1747 1.503 . S
C1755 C1754 1.370 . S
C1755 C1756 1.403 . S
C1756 C1755 1.403 . S
C1756 C1757 1.404 . S
C1756 C1759 1.539 . S
C1757 C1753 1.408 . S
C1757 C1756 1.404 . S
C1757 H1769 0.930 . S
C1758 C1754 1.524 . S
C1758 H1770 0.956 . S
C1758 H1771 0.961 . S
C1758 H1772 0.961 . S
C1759 C1756 1.539 . S
C1759 H1773 0.958 . S
C1759 H1774 0.961 . S
C1759 H1775 0.960 . S
H1760 C1744 0.931 . S
H1761 C1749 0.929 . S
H1762 C1750 0.960 . S
H1763 C1750 0.962 1_655 S
H1764 C1750 0.960 1_655 S
H1765 C1751 0.961 . S
H1766 C1751 0.961 . S
H1767 C1751 0.961 . S
H1768 C1752 0.931 . S
H1769 C1757 0.930 . S
H1770 C1758 0.956 . S
H1771 C1758 0.961 . S
H1772 C1758 0.961 . S
H1773 C1759 0.958 . S
H1774 C1759 0.961 . S
H1775 C1759 0.960 . S
C1776 C1777 1.391 . S
C1776 C1778 1.394 . S
C1776 H1792 0.931 . S
C1777 C1776 1.391 . S
C1777 C1781 1.376 . S
C1778 C1776 1.394 . S
C1778 C1779 1.369 . S
C1778 C1782 1.531 . S
C1779 C1778 1.369 . S
C1779 C1780 1.410 . S
C1779 C1787 1.503 . S
C1780 C1779 1.410 . S
C1780 C1781 1.392 . S
C1780 C1783 1.511 . S
C1781 C1777 1.376 . S
C1781 C1780 1.392 . S
C1781 H1793 0.929 . S
C1782 C1778 1.531 . S
C1782 H1794 0.960 . S
C1782 H1795 0.962 . S
C1782 H1796 0.960 . S
C1783 C1780 1.511 . S
C1783 H1797 0.961 . S
C1783 H1798 0.961 . S
C1783 H1799 0.961 . S
C1784 C1785 1.370 . S
C1784 C1786 1.363 . S
C1784 H1800 0.931 . S
C1785 C1784 1.370 . S
C1785 C1789 1.408 . S
C1786 C1784 1.363 . S
C1786 C1787 1.370 . S
C1786 C1790 1.524 . S
C1787 C1779 1.503 . S
C1787 C1786 1.370 . S
C1787 C1788 1.403 . S
C1788 C1787 1.403 . S
C1788 C1789 1.404 . S
C1788 C1791 1.539 . S
C1789 C1785 1.408 . S
C1789 C1788 1.404 . S
C1789 H1801 0.930 . S
C1790 C1786 1.524 . S
C1790 H1802 0.956 . S
C1790 H1803 0.961 . S
C1790 H1804 0.961 . S
C1791 C1788 1.539 . S
C1791 H1805 0.958 . S
C1791 H1806 0.961 . S
C1791 H1807 0.960 . S
H1792 C1776 0.931 . S
H1793 C1781 0.929 . S
H1794 C1782 0.960 . S
H1795 C1782 0.962 . S
H1796 C1782 0.960 . S
H1797 C1783 0.961 . S
H1798 C1783 0.961 . S
H1799 C1783 0.961 . S
H1800 C1784 0.931 . S
H1801 C1789 0.930 . S
H1802 C1790 0.956 . S
H1803 C1790 0.961 . S
H1804 C1790 0.961 . S
H1805 C1791 0.958 . S
H1806 C1791 0.961 . S
H1807 C1791 0.960 . S
C1808 C1809 1.391 . S
C1808 C1810 1.394 . S
C1808 H1824 0.931 . S
C1809 C1808 1.391 . S
C1809 C1813 1.376 . S
C1810 C1808 1.394 . S
C1810 C1811 1.369 . S
C1810 C1814 1.531 . S
C1811 C1810 1.369 . S
C1811 C1812 1.410 . S
C1811 C1819 1.503 . S
C1812 C1811 1.410 . S
C1812 C1813 1.392 . S
C1812 C1815 1.511 . S
C1813 C1809 1.376 . S
C1813 C1812 1.392 . S
C1813 H1825 0.929 . S
C1814 C1810 1.531 . S
C1814 H1826 0.960 . S
C1814 H1827 0.962 . S
C1814 H1828 0.960 . S
C1815 C1812 1.511 . S
C1815 H1829 0.961 . S
C1815 H1830 0.961 . S
C1815 H1831 0.961 . S
C1816 C1817 1.370 . S
C1816 C1818 1.363 . S
C1816 H1832 0.931 . S
C1817 C1816 1.370 . S
C1817 C1821 1.408 . S
C1818 C1816 1.363 . S
C1818 C1819 1.370 . S
C1818 C1822 1.524 . S
C1819 C1811 1.503 . S
C1819 C1818 1.370 . S
C1819 C1820 1.403 . S
C1820 C1819 1.403 . S
C1820 C1821 1.404 . S
C1820 C1823 1.539 . S
C1821 C1817 1.408 . S
C1821 C1820 1.404 . S
C1821 H1833 0.930 . S
C1822 C1818 1.524 . S
C1822 H1834 0.956 . S
C1822 H1835 0.961 . S
C1822 H1836 0.961 . S
C1823 C1820 1.539 . S
C1823 H1837 0.958 . S
C1823 H1838 0.961 . S
C1823 H1839 0.960 . S
H1824 C1808 0.931 . S
H1825 C1813 0.929 . S
H1826 C1814 0.960 . S
H1827 C1814 0.962 . S
H1828 C1814 0.960 . S
H1829 C1815 0.961 . S
H1830 C1815 0.961 . S
H1831 C1815 0.961 . S
H1832 C1816 0.931 . S
H1833 C1821 0.930 . S
H1834 C1822 0.956 . S
H1835 C1822 0.961 . S
H1836 C1822 0.961 . S
H1837 C1823 0.958 . S
H1838 C1823 0.961 . S
H1839 C1823 0.960 . S
C1840 C1841 1.391 . S
C1840 C1842 1.394 . S
C1840 H1856 0.931 . S
C1841 C1840 1.391 . S
C1841 C1845 1.376 . S
C1842 C1840 1.394 . S
C1842 C1843 1.369 . S
C1842 C1846 1.531 . S
C1843 C1842 1.369 . S
C1843 C1844 1.410 . S
C1843 C1851 1.503 . S
C1844 C1843 1.410 . S
C1844 C1845 1.392 . S
C1844 C1847 1.511 . S
C1845 C1841 1.376 . S
C1845 C1844 1.392 . S
C1845 H1857 0.929 . S
C1846 C1842 1.531 . S
C1846 H1858 0.960 . S
C1846 H1859 0.962 . S
C1846 H1860 0.960 . S
C1847 C1844 1.511 . S
C1847 H1861 0.961 . S
C1847 H1862 0.961 . S
C1847 H1863 0.961 . S
C1848 C1849 1.370 . S
C1848 C1850 1.363 . S
C1848 H1864 0.931 . S
C1849 C1848 1.370 . S
C1849 C1853 1.408 . S
C1850 C1848 1.363 . S
C1850 C1851 1.370 . S
C1850 C1854 1.524 . S
C1851 C1843 1.503 . S
C1851 C1850 1.370 . S
C1851 C1852 1.403 . S
C1852 C1851 1.403 . S
C1852 C1853 1.404 . S
C1852 C1855 1.539 . S
C1853 C1849 1.408 . S
C1853 C1852 1.404 . S
C1853 H1865 0.930 . S
C1854 C1850 1.524 . S
C1854 H1866 0.956 . S
C1854 H1867 0.961 . S
C1854 H1868 0.961 . S
C1855 C1852 1.539 . S
C1855 H1869 0.958 . S
C1855 H1870 0.961 . S
C1855 H1871 0.960 . S
H1856 C1840 0.931 . S
H1857 C1845 0.929 . S
H1858 C1846 0.960 . S
H1859 C1846 0.962 . S
H1860 C1846 0.960 . S
H1861 C1847 0.961 . S
H1862 C1847 0.961 . S
H1863 C1847 0.961 . S
H1864 C1848 0.931 . S
H1865 C1853 0.930 . S
H1866 C1854 0.956 . S
H1867 C1854 0.961 . S
H1868 C1854 0.961 . S
H1869 C1855 0.958 . S
H1870 C1855 0.961 . S
H1871 C1855 0.960 . S
C1872 C1873 1.391 . S
C1872 C1874 1.394 . S
C1872 H1888 0.931 . S
C1873 C1872 1.391 . S
C1873 C1877 1.376 . S
C1874 C1872 1.394 . S
C1874 C1875 1.369 . S
C1874 C1878 1.531 . S
C1875 C1874 1.369 . S
C1875 C1876 1.410 . S
C1875 C1883 1.503 . S
C1876 C1875 1.410 . S
C1876 C1877 1.392 . S
C1876 C1879 1.511 . S
C1877 C1873 1.376 . S
C1877 C1876 1.392 . S
C1877 H1889 0.929 . S
C1878 C1874 1.531 . S
C1878 H1890 0.960 . S
C1878 H1891 0.962 . S
C1878 H1892 0.960 . S
C1879 C1876 1.511 . S
C1879 H1893 0.961 . S
C1879 H1894 0.961 . S
C1879 H1895 0.961 . S
C1880 C1881 1.370 . S
C1880 C1882 1.363 . S
C1880 H1896 0.931 . S
C1881 C1880 1.370 . S
C1881 C1885 1.408 . S
C1882 C1880 1.363 . S
C1882 C1883 1.370 . S
C1882 C1886 1.524 . S
C1883 C1875 1.503 . S
C1883 C1882 1.370 . S
C1883 C1884 1.403 . S
C1884 C1883 1.403 . S
C1884 C1885 1.404 . S
C1884 C1887 1.539 . S
C1885 C1881 1.408 . S
C1885 C1884 1.404 . S
C1885 H1897 0.930 . S
C1886 C1882 1.524 . S
C1886 H1898 0.956 . S
C1886 H1899 0.961 . S
C1886 H1900 0.961 . S
C1887 C1884 1.539 . S
C1887 H1901 0.958 . S
C1887 H1902 0.961 . S
C1887 H1903 0.960 . S
H1888 C1872 0.931 . S
H1889 C1877 0.929 . S
H1890 C1878 0.960 . S
H1891 C1878 0.962 . S
H1892 C1878 0.960 . S
H1893 C1879 0.961 . S
H1894 C1879 0.961 . S
H1895 C1879 0.961 . S
H1896 C1880 0.931 . S
H1897 C1885 0.930 . S
H1898 C1886 0.956 . S
H1899 C1886 0.961 . S
H1900 C1886 0.961 . S
H1901 C1887 0.958 . S
H1902 C1887 0.961 . S
H1903 C1887 0.960 . S
C1904 C1905 1.391 . S
C1904 C1906 1.394 . S
C1904 H1920 0.931 . S
C1905 C1904 1.391 . S
C1905 C1909 1.376 . S
C1906 C1904 1.394 . S
C1906 C1907 1.369 . S
C1906 C1910 1.531 . S
C1907 C1906 1.369 . S
C1907 C1908 1.410 . S
C1907 C1915 1.503 . S
C1908 C1907 1.410 . S
C1908 C1909 1.392 . S
C1908 C1911 1.511 . S
C1909 C1905 1.376 . S
C1909 C1908 1.392 . S
C1909 H1921 0.929 . S
C1910 C1906 1.531 . S
C1910 H1922 0.960 . S
C1910 H1923 0.962 . S
C1910 H1924 0.960 . S
C1911 C1908 1.511 . S
C1911 H1925 0.961 . S
C1911 H1926 0.961 . S
C1911 H1927 0.961 . S
C1912 C1913 1.370 . S
C1912 C1914 1.363 . S
C1912 H1928 0.931 . S
C1913 C1912 1.370 . S
C1913 C1917 1.408 . S
C1914 C1912 1.363 . S
C1914 C1915 1.370 . S
C1914 C1918 1.524 . S
C1915 C1907 1.503 . S
C1915 C1914 1.370 . S
C1915 C1916 1.403 . S
C1916 C1915 1.403 . S
C1916 C1917 1.404 . S
C1916 C1919 1.539 . S
C1917 C1913 1.408 . S
C1917 C1916 1.404 . S
C1917 H1929 0.930 . S
C1918 C1914 1.524 . S
C1918 H1930 0.956 . S
C1918 H1931 0.961 . S
C1918 H1932 0.961 . S
C1919 C1916 1.539 . S
C1919 H1933 0.958 . S
C1919 H1934 0.961 . S
C1919 H1935 0.960 . S
H1920 C1904 0.931 . S
H1921 C1909 0.929 . S
H1922 C1910 0.960 . S
H1923 C1910 0.962 . S
H1924 C1910 0.960 . S
H1925 C1911 0.961 . S
H1926 C1911 0.961 . S
H1927 C1911 0.961 . S
H1928 C1912 0.931 . S
H1929 C1917 0.930 . S
H1930 C1918 0.956 . S
H1931 C1918 0.961 . S
H1932 C1918 0.961 . S
H1933 C1919 0.958 . S
H1934 C1919 0.961 . S
H1935 C1919 0.960 . S
C1936 C1937 1.391 . S
C1936 C1938 1.394 . S
C1936 H1952 0.931 . S
C1937 C1936 1.391 . S
C1937 C1941 1.376 . S
C1938 C1936 1.394 . S
C1938 C1939 1.369 . S
C1938 C1942 1.531 . S
C1939 C1938 1.369 . S
C1939 C1940 1.410 . S
C1939 C1947 1.503 . S
C1940 C1939 1.410 . S
C1940 C1941 1.392 . S
C1940 C1943 1.511 . S
C1941 C1937 1.376 . S
C1941 C1940 1.392 . S
C1941 H1953 0.929 . S
C1942 C1938 1.531 . S
C1942 H1954 0.960 . S
C1942 H1955 0.962 . S
C1942 H1956 0.960 . S
C1943 C1940 1.511 . S
C1943 H1957 0.961 . S
C1943 H1958 0.961 . S
C1943 H1959 0.961 . S
C1944 C1945 1.370 . S
C1944 C1946 1.363 1_545 S
C1944 H1960 0.931 . S
C1945 C1944 1.370 . S
C1945 C1949 1.408 . S
C1946 C1944 1.363 1_565 S
C1946 C1947 1.370 . S
C1946 C1950 1.524 . S
C1947 C1939 1.503 . S
C1947 C1946 1.370 . S
C1947 C1948 1.403 . S
C1948 C1947 1.403 . S
C1948 C1949 1.404 1_565 S
C1948 C1951 1.539 . S
C1949 C1945 1.408 . S
C1949 C1948 1.404 1_545 S
C1949 H1961 0.930 . S
C1950 C1946 1.524 . S
C1950 H1962 0.956 . S
C1950 H1963 0.961 . S
C1950 H1964 0.961 . S
C1951 C1948 1.539 . S
C1951 H1965 0.958 . S
C1951 H1966 0.961 . S
C1951 H1967 0.960 . S
H1952 C1936 0.931 . S
H1953 C1941 0.929 . S
H1954 C1942 0.960 . S
H1955 C1942 0.962 . S
H1956 C1942 0.960 . S
H1957 C1943 0.961 . S
H1958 C1943 0.961 . S
H1959 C1943 0.961 . S
H1960 C1944 0.931 . S
H1961 C1949 0.930 . S
H1962 C1950 0.956 . S
H1963 C1950 0.961 . S
H1964 C1950 0.961 . S
H1965 C1951 0.958 . S
H1966 C1951 0.961 . S
H1967 C1951 0.960 . S
C1968 C1969 1.391 . S
C1968 C1970 1.394 . S
C1968 H1984 0.931 . S
C1969 C1968 1.391 . S
C1969 C1973 1.376 . S
C1970 C1968 1.394 . S
C1970 C1971 1.369 . S
C1970 C1974 1.531 . S
C1971 C1970 1.369 . S
C1971 C1972 1.410 . S
C1971 C1979 1.503 . S
C1972 C1971 1.410 . S
C1972 C1973 1.392 . S
C1972 C1975 1.511 . S
C1973 C1969 1.376 . S
C1973 C1972 1.392 . S
C1973 H1985 0.929 . S
C1974 C1970 1.531 . S
C1974 H1986 0.960 . S
C1974 H1987 0.962 . S
C1974 H1988 0.960 . S
C1975 C1972 1.511 . S
C1975 H1989 0.961 . S
C1975 H1990 0.961 . S
C1975 H1991 0.961 . S
C1976 C1977 1.370 . S
C1976 C1978 1.363 . S
C1976 H1992 0.931 . S
C1977 C1976 1.370 . S
C1977 C1981 1.408 . S
C1978 C1976 1.363 . S
C1978 C1979 1.370 . S
C1978 C1982 1.524 . S
C1979 C1971 1.503 . S
C1979 C1978 1.370 . S
C1979 C1980 1.403 . S
C1980 C1979 1.403 . S
C1980 C1981 1.404 . S
C1980 C1983 1.539 . S
C1981 C1977 1.408 . S
C1981 C1980 1.404 . S
C1981 H1993 0.930 . S
C1982 C1978 1.524 . S
C1982 H1994 0.956 . S
C1982 H1995 0.961 . S
C1982 H1996 0.961 . S
C1983 C1980 1.539 . S
C1983 H1997 0.958 . S
C1983 H1998 0.961 . S
C1983 H1999 0.960 . S
H1984 C1968 0.931 . S
H1985 C1973 0.929 . S
H1986 C1974 0.960 . S
H1987 C1974 0.962 . S
H1988 C1974 0.960 . S
H1989 C1975 0.961 . S
H1990 C1975 0.961 . S
H1991 C1975 0.961 . S
H1992 C1976 0.931 . S
H1993 C1981 0.930 . S
H1994 C1982 0.956 . S
H1995 C1982 0.961 . S
H1996 C1982 0.961 . S
H1997 C1983 0.958 . S
H1998 C1983 0.961 . S
H1999 C1983 0.960 . S
C2000 C2001 1.391 . S
C2000 C2002 1.394 . S
C2000 H2016 0.931 . S
C2001 C2000 1.391 . S
C2001 C2005 1.376 . S
C2002 C2000 1.394 . S
C2002 C2003 1.369 . S
C2002 C2006 1.531 . S
C2003 C2002 1.369 . S
C2003 C2004 1.410 . S
C2003 C2011 1.503 . S
C2004 C2003 1.410 . S
C2004 C2005 1.392 . S
C2004 C2007 1.511 . S
C2005 C2001 1.376 . S
C2005 C2004 1.392 . S
C2005 H2017 0.929 . S
C2006 C2002 1.531 . S
C2006 H2018 0.960 . S
C2006 H2019 0.962 . S
C2006 H2020 0.960 1_545 S
C2007 C2004 1.511 . S
C2007 H2021 0.961 . S
C2007 H2022 0.961 . S
C2007 H2023 0.961 . S
C2008 C2009 1.385 . S
C2008 C2010 1.363 . S
C2008 H2024 0.931 . S
C2009 C2008 1.385 . S
C2009 C2013 1.406 1_556 S
C2010 C2008 1.363 . S
C2010 C2011 1.370 . S
C2010 C2014 1.524 . S
C2011 C2003 1.503 . S
C2011 C2010 1.370 . S
C2011 C2012 1.403 . S
C2012 C2011 1.403 . S
C2012 C2013 1.404 1_556 S
C2012 C2015 1.539 . S
C2013 C2009 1.406 1_554 S
C2013 C2012 1.404 1_554 S
C2013 H2025 0.930 . S
C2014 C2010 1.524 . S
C2014 H2026 0.956 . S
C2014 H2027 0.961 . S
C2014 H2028 0.961 . S
C2015 C2012 1.539 . S
C2015 H2029 0.958 . S
C2015 H2030 0.961 1_556 S
C2015 H2031 0.960 . S
H2016 C2000 0.931 . S
H2017 C2005 0.929 . S
H2018 C2006 0.960 . S
H2019 C2006 0.962 . S
H2020 C2006 0.960 1_565 S
H2021 C2007 0.961 . S
H2022 C2007 0.961 . S
H2023 C2007 0.961 . S
H2024 C2008 0.931 . S
H2025 C2013 0.930 . S
H2026 C2014 0.956 . S
H2027 C2014 0.961 . S
H2028 C2014 0.961 . S
H2029 C2015 0.958 . S
H2030 C2015 0.961 1_554 S
H2031 C2015 0.960 . S
C2032 C2033 1.391 . S
C2032 C2034 1.394 . S
C2032 H2048 0.931 . S
C2033 C2032 1.391 . S
C2033 C2037 1.376 . S
C2034 C2032 1.394 . S
C2034 C2035 1.369 . S
C2034 C2038 1.531 . S
C2035 C2034 1.369 . S
C2035 C2036 1.410 . S
C2035 C2043 1.503 . S
C2036 C2035 1.410 . S
C2036 C2037 1.392 . S
C2036 C2039 1.511 . S
C2037 C2033 1.376 . S
C2037 C2036 1.392 . S
C2037 H2049 0.929 . S
C2038 C2034 1.531 . S
C2038 H2050 0.960 . S
C2038 H2051 0.962 . S
C2038 H2052 0.960 . S
C2039 C2036 1.511 . S
C2039 H2053 0.961 . S
C2039 H2054 0.961 . S
C2039 H2055 0.961 . S
C2040 C2041 1.370 . S
C2040 C2042 1.363 . S
C2040 H2056 0.931 . S
C2041 C2040 1.370 . S
C2041 C2045 1.408 . S
C2042 C2040 1.363 . S
C2042 C2043 1.370 . S
C2042 C2046 1.524 . S
C2043 C2035 1.503 . S
C2043 C2042 1.370 . S
C2043 C2044 1.403 . S
C2044 C2043 1.403 . S
C2044 C2045 1.404 . S
C2044 C2047 1.539 . S
C2045 C2041 1.408 . S
C2045 C2044 1.404 . S
C2045 H2057 0.930 . S
C2046 C2042 1.524 . S
C2046 H2058 0.956 . S
C2046 H2059 0.961 . S
C2046 H2060 0.961 . S
C2047 C2044 1.539 . S
C2047 H2061 0.958 . S
C2047 H2062 0.961 . S
C2047 H2063 0.960 . S
H2048 C2032 0.931 . S
H2049 C2037 0.929 . S
H2050 C2038 0.960 . S
H2051 C2038 0.962 . S
H2052 C2038 0.960 . S
H2053 C2039 0.961 . S
H2054 C2039 0.961 . S
H2055 C2039 0.961 . S
H2056 C2040 0.931 . S
H2057 C2045 0.930 . S
H2058 C2046 0.956 . S
H2059 C2046 0.961 . S
H2060 C2046 0.961 . S
H2061 C2047 0.958 . S
H2062 C2047 0.961 . S
H2063 C2047 0.960 . S
C2064 C2065 1.391 . S
C2064 C2066 1.394 . S
C2064 H2080 0.931 . S
C2065 C2064 1.391 . S
C2065 C2069 1.376 . S
C2066 C2064 1.394 . S
C2066 C2067 1.369 . S
C2066 C2070 1.531 . S
C2067 C2066 1.369 . S
C2067 C2068 1.410 . S
C2067 C2075 1.503 . S
C2068 C2067 1.410 . S
C2068 C2069 1.392 . S
C2068 C2071 1.511 . S
C2069 C2065 1.376 . S
C2069 C2068 1.392 . S
C2069 H2081 0.929 . S
C2070 C2066 1.531 . S
C2070 H2082 0.960 . S
C2070 H2083 0.962 . S
C2070 H2084 0.960 . S
C2071 C2068 1.511 . S
C2071 H2085 0.961 . S
C2071 H2086 0.961 . S
C2071 H2087 0.961 . S
C2072 C2073 1.370 . S
C2072 C2074 1.363 . S
C2072 H2088 0.931 . S
C2073 C2072 1.370 . S
C2073 C2077 1.408 . S
C2074 C2072 1.363 . S
C2074 C2075 1.370 . S
C2074 C2078 1.524 . S
C2075 C2067 1.503 . S
C2075 C2074 1.370 . S
C2075 C2076 1.403 . S
C2076 C2075 1.403 . S
C2076 C2077 1.404 . S
C2076 C2079 1.539 . S
C2077 C2073 1.408 . S
C2077 C2076 1.404 . S
C2077 H2089 0.930 . S
C2078 C2074 1.524 . S
C2078 H2090 0.956 . S
C2078 H2091 0.961 . S
C2078 H2092 0.961 . S
C2079 C2076 1.539 . S
C2079 H2093 0.958 . S
C2079 H2094 0.961 . S
C2079 H2095 0.960 . S
H2080 C2064 0.931 . S
H2081 C2069 0.929 . S
H2082 C2070 0.960 . S
H2083 C2070 0.962 . S
H2084 C2070 0.960 . S
H2085 C2071 0.961 . S
H2086 C2071 0.961 . S
H2087 C2071 0.961 . S
H2088 C2072 0.931 . S
H2089 C2077 0.930 . S
H2090 C2078 0.956 . S
H2091 C2078 0.961 . S
H2092 C2078 0.961 . S
H2093 C2079 0.958 . S
H2094 C2079 0.961 . S
H2095 C2079 0.960 . S
C2096 C2097 1.391 . S
C2096 C2098 1.394 . S
C2096 H2112 0.931 . S
C2097 C2096 1.391 . S
C2097 C2101 1.376 . S
C2098 C2096 1.394 . S
C2098 C2099 1.369 . S
C2098 C2102 1.531 . S
C2099 C2098 1.369 . S
C2099 C2100 1.410 . S
C2099 C2107 1.503 . S
C2100 C2099 1.410 . S
C2100 C2101 1.392 . S
C2100 C2103 1.511 . S
C2101 C2097 1.376 . S
C2101 C2100 1.392 . S
C2101 H2113 0.929 . S
C2102 C2098 1.531 . S
C2102 H2114 0.960 . S
C2102 H2115 0.962 . S
C2102 H2116 0.960 . S
C2103 C2100 1.511 . S
C2103 H2117 0.961 . S
C2103 H2118 0.961 . S
C2103 H2119 0.961 . S
C2104 C2105 1.370 . S
C2104 C2106 1.363 . S
C2104 H2120 0.931 . S
C2105 C2104 1.370 . S
C2105 C2109 1.408 . S
C2106 C2104 1.363 . S
C2106 C2107 1.370 . S
C2106 C2110 1.524 . S
C2107 C2099 1.503 . S
C2107 C2106 1.370 . S
C2107 C2108 1.403 . S
C2108 C2107 1.403 . S
C2108 C2109 1.404 . S
C2108 C2111 1.539 . S
C2109 C2105 1.408 . S
C2109 C2108 1.404 . S
C2109 H2121 0.930 . S
C2110 C2106 1.524 . S
C2110 H2122 0.956 . S
C2110 H2123 0.961 . S
C2110 H2124 0.961 . S
C2111 C2108 1.539 . S
C2111 H2125 0.958 . S
C2111 H2126 0.961 . S
C2111 H2127 0.960 . S
H2112 C2096 0.931 . S
H2113 C2101 0.929 . S
H2114 C2102 0.960 . S
H2115 C2102 0.962 . S
H2116 C2102 0.960 . S
H2117 C2103 0.961 . S
H2118 C2103 0.961 . S
H2119 C2103 0.961 . S
H2120 C2104 0.931 . S
H2121 C2109 0.930 . S
H2122 C2110 0.956 . S
H2123 C2110 0.961 . S
H2124 C2110 0.961 . S
H2125 C2111 0.958 . S
H2126 C2111 0.961 . S
H2127 C2111 0.960 . S
C2128 C2129 1.391 . S
C2128 C2130 1.394 . S
C2128 H2144 0.931 . S
C2129 C2128 1.391 . S
C2129 C2133 1.376 . S
C2130 C2128 1.394 . S
C2130 C2131 1.369 . S
C2130 C2134 1.531 . S
C2131 C2130 1.369 . S
C2131 C2132 1.410 . S
C2131 C2139 1.503 . S
C2132 C2131 1.410 . S
C2132 C2133 1.392 . S
C2132 C2135 1.511 . S
C2133 C2129 1.376 . S
C2133 C2132 1.392 . S
C2133 H2145 0.929 . S
C2134 C2130 1.531 . S
C2134 H2146 0.960 . S
C2134 H2147 0.962 . S
C2134 H2148 0.960 . S
C2135 C2132 1.511 . S
C2135 H2149 0.961 . S
C2135 H2150 0.961 . S
C2135 H2151 0.961 . S
C2136 C2137 1.370 . S
C2136 C2138 1.363 . S
C2136 H2152 0.931 . S
C2137 C2136 1.370 . S
C2137 C2141 1.408 . S
C2138 C2136 1.363 . S
C2138 C2139 1.370 . S
C2138 C2142 1.524 . S
C2139 C2131 1.503 . S
C2139 C2138 1.370 . S
C2139 C2140 1.403 . S
C2140 C2139 1.403 . S
C2140 C2141 1.404 . S
C2140 C2143 1.539 . S
C2141 C2137 1.408 . S
C2141 C2140 1.404 . S
C2141 H2153 0.930 . S
C2142 C2138 1.524 . S
C2142 H2154 0.956 . S
C2142 H2155 0.961 . S
C2142 H2156 0.961 1_545 S
C2143 C2140 1.539 . S
C2143 H2157 0.958 . S
C2143 H2158 0.961 . S
C2143 H2159 0.960 . S
H2144 C2128 0.931 . S
H2145 C2133 0.929 . S
H2146 C2134 0.960 . S
H2147 C2134 0.962 . S
H2148 C2134 0.960 . S
H2149 C2135 0.961 . S
H2150 C2135 0.961 . S
H2151 C2135 0.961 . S
H2152 C2136 0.931 . S
H2153 C2141 0.930 . S
H2154 C2142 0.956 . S
H2155 C2142 0.961 . S
H2156 C2142 0.961 1_565 S
H2157 C2143 0.958 . S
H2158 C2143 0.961 . S
H2159 C2143 0.960 . S
C2160 C2161 1.391 . S
C2160 C2162 1.394 . S
C2160 H2176 0.931 . S
C2161 C2160 1.391 . S
C2161 C2165 1.376 . S
C2162 C2160 1.394 . S
C2162 C2163 1.369 . S
C2162 C2166 1.531 . S
C2163 C2162 1.369 . S
C2163 C2164 1.410 . S
C2163 C2171 1.503 . S
C2164 C2163 1.410 . S
C2164 C2165 1.392 . S
C2164 C2167 1.511 . S
C2165 C2161 1.376 . S
C2165 C2164 1.392 . S
C2165 H2177 0.929 . S
C2166 C2162 1.531 . S
C2166 H2178 0.960 . S
C2166 H2179 0.962 . S
C2166 H2180 0.960 . S
C2167 C2164 1.511 . S
C2167 H2181 0.961 . S
C2167 H2182 0.961 . S
C2167 H2183 0.961 . S
C2168 C2169 1.370 . S
C2168 C2170 1.363 . S
C2168 H2184 0.931 . S
C2169 C2168 1.370 . S
C2169 C2173 1.408 . S
C2170 C2168 1.363 . S
C2170 C2171 1.370 . S
C2170 C2174 1.524 . S
C2171 C2163 1.503 . S
C2171 C2170 1.370 . S
C2171 C2172 1.403 . S
C2172 C2171 1.403 . S
C2172 C2173 1.404 . S
C2172 C2175 1.539 . S
C2173 C2169 1.408 . S
C2173 C2172 1.404 . S
C2173 H2185 0.930 . S
C2174 C2170 1.524 . S
C2174 H2186 0.956 . S
C2174 H2187 0.961 . S
C2174 H2188 0.961 . S
C2175 C2172 1.539 . S
C2175 H2189 0.958 . S
C2175 H2190 0.961 . S
C2175 H2191 0.960 . S
H2176 C2160 0.931 . S
H2177 C2165 0.929 . S
H2178 C2166 0.960 . S
H2179 C2166 0.962 . S
H2180 C2166 0.960 . S
H2181 C2167 0.961 . S
H2182 C2167 0.961 . S
H2183 C2167 0.961 . S
H2184 C2168 0.931 . S
H2185 C2173 0.930 . S
H2186 C2174 0.956 . S
H2187 C2174 0.961 . S
H2188 C2174 0.961 . S
H2189 C2175 0.958 . S
H2190 C2175 0.961 . S
H2191 C2175 0.960 . S
C2192 C2193 1.391 . S
C2192 C2194 1.394 . S
C2192 H2208 0.931 . S
C2193 C2192 1.391 . S
C2193 C2197 1.376 . S
C2194 C2192 1.394 . S
C2194 C2195 1.369 . S
C2194 C2198 1.531 . S
C2195 C2194 1.369 . S
C2195 C2196 1.410 . S
C2195 C2203 1.503 . S
C2196 C2195 1.410 . S
C2196 C2197 1.392 . S
C2196 C2199 1.511 . S
C2197 C2193 1.376 . S
C2197 C2196 1.392 . S
C2197 H2209 0.929 . S
C2198 C2194 1.531 . S
C2198 H2210 0.960 . S
C2198 H2211 0.962 . S
C2198 H2212 0.960 . S
C2199 C2196 1.511 . S
C2199 H2213 0.961 . S
C2199 H2214 0.961 . S
C2199 H2215 0.961 . S
C2200 C2201 1.370 . S
C2200 C2202 1.363 . S
C2200 H2216 0.931 . S
C2201 C2200 1.370 . S
C2201 C2205 1.408 . S
C2202 C2200 1.363 . S
C2202 C2203 1.370 . S
C2202 C2206 1.524 . S
C2203 C2195 1.503 . S
C2203 C2202 1.370 . S
C2203 C2204 1.403 . S
C2204 C2203 1.403 . S
C2204 C2205 1.404 . S
C2204 C2207 1.539 . S
C2205 C2201 1.408 . S
C2205 C2204 1.404 . S
C2205 H2217 0.930 . S
C2206 C2202 1.524 . S
C2206 H2218 0.956 . S
C2206 H2219 0.961 . S
C2206 H2220 0.961 . S
C2207 C2204 1.539 . S
C2207 H2221 0.958 . S
C2207 H2222 0.961 . S
C2207 H2223 0.960 . S
H2208 C2192 0.931 . S
H2209 C2197 0.929 . S
H2210 C2198 0.960 . S
H2211 C2198 0.962 . S
H2212 C2198 0.960 . S
H2213 C2199 0.961 . S
H2214 C2199 0.961 . S
H2215 C2199 0.961 . S
H2216 C2200 0.931 . S
H2217 C2205 0.930 . S
H2218 C2206 0.956 . S
H2219 C2206 0.961 . S
H2220 C2206 0.961 . S
H2221 C2207 0.958 . S
H2222 C2207 0.961 . S
H2223 C2207 0.960 . S
C2224 C2225 1.391 . S
C2224 C2226 1.394 . S
C2224 H2240 0.931 . S
C2225 C2224 1.391 . S
C2225 C2229 1.376 . S
C2226 C2224 1.394 . S
C2226 C2227 1.369 . S
C2226 C2230 1.531 . S
C2227 C2226 1.369 . S
C2227 C2228 1.410 . S
C2227 C2235 1.503 . S
C2228 C2227 1.410 . S
C2228 C2229 1.392 . S
C2228 C2231 1.511 . S
C2229 C2225 1.376 . S
C2229 C2228 1.392 . S
C2229 H2241 0.929 . S
C2230 C2226 1.531 . S
C2230 H2242 0.960 . S
C2230 H2243 0.962 . S
C2230 H2244 0.960 . S
C2231 C2228 1.511 . S
C2231 H2245 0.961 . S
C2231 H2246 0.961 . S
C2231 H2247 0.961 . S
C2232 C2233 1.370 . S
C2232 C2234 1.363 . S
C2232 H2248 0.931 . S
C2233 C2232 1.370 . S
C2233 C2237 1.408 . S
C2234 C2232 1.363 . S
C2234 C2235 1.370 . S
C2234 C2238 1.524 . S
C2235 C2227 1.503 . S
C2235 C2234 1.370 . S
C2235 C2236 1.403 . S
C2236 C2235 1.403 . S
C2236 C2237 1.404 . S
C2236 C2239 1.539 . S
C2237 C2233 1.408 . S
C2237 C2236 1.404 . S
C2237 H2249 0.930 . S
C2238 C2234 1.524 . S
C2238 H2250 0.956 . S
C2238 H2251 0.961 . S
C2238 H2252 0.961 . S
C2239 C2236 1.539 . S
C2239 H2253 0.958 . S
C2239 H2254 0.961 . S
C2239 H2255 0.960 . S
H2240 C2224 0.931 . S
H2241 C2229 0.929 . S
H2242 C2230 0.960 . S
H2243 C2230 0.962 . S
H2244 C2230 0.960 . S
H2245 C2231 0.961 . S
H2246 C2231 0.961 . S
H2247 C2231 0.961 . S
H2248 C2232 0.931 . S
H2249 C2237 0.930 . S
H2250 C2238 0.956 . S
H2251 C2238 0.961 . S
H2252 C2238 0.961 . S
H2253 C2239 0.958 . S
H2254 C2239 0.961 . S
H2255 C2239 0.960 . S
C2256 C2257 1.391 . S
C2256 C2258 1.394 . S
C2256 H2272 0.931 . S
C2257 C2256 1.391 . S
C2257 C2261 1.376 . S
C2258 C2256 1.394 . S
C2258 C2259 1.369 . S
C2258 C2262 1.531 . S
C2259 C2258 1.369 . S
C2259 C2260 1.410 . S
C2259 C2267 1.503 . S
C2260 C2259 1.410 . S
C2260 C2261 1.392 . S
C2260 C2263 1.511 . S
C2261 C2257 1.376 . S
C2261 C2260 1.392 . S
C2261 H2273 0.929 . S
C2262 C2258 1.531 . S
C2262 H2274 0.960 . S
C2262 H2275 0.962 . S
C2262 H2276 0.960 . S
C2263 C2260 1.511 . S
C2263 H2277 0.961 . S
C2263 H2278 0.961 . S
C2263 H2279 0.961 . S
C2264 C2265 1.370 . S
C2264 C2266 1.363 . S
C2264 H2280 0.931 . S
C2265 C2264 1.370 . S
C2265 C2269 1.408 . S
C2266 C2264 1.363 . S
C2266 C2267 1.370 . S
C2266 C2270 1.524 . S
C2267 C2259 1.503 . S
C2267 C2266 1.370 . S
C2267 C2268 1.403 . S
C2268 C2267 1.403 . S
C2268 C2269 1.404 . S
C2268 C2271 1.539 . S
C2269 C2265 1.408 . S
C2269 C2268 1.404 . S
C2269 H2281 0.930 1_655 S
C2270 C2266 1.524 . S
C2270 H2282 0.956 . S
C2270 H2283 0.961 . S
C2270 H2284 0.961 . S
C2271 C2268 1.539 . S
C2271 H2285 0.958 1_655 S
C2271 H2286 0.961 1_655 S
C2271 H2287 0.960 . S
H2272 C2256 0.931 . S
H2273 C2261 0.929 . S
H2274 C2262 0.960 . S
H2275 C2262 0.962 . S
H2276 C2262 0.960 . S
H2277 C2263 0.961 . S
H2278 C2263 0.961 . S
H2279 C2263 0.961 . S
H2280 C2264 0.931 . S
H2281 C2269 0.930 1_455 S
H2282 C2270 0.956 . S
H2283 C2270 0.961 . S
H2284 C2270 0.961 . S
H2285 C2271 0.958 1_455 S
H2286 C2271 0.961 1_455 S
H2287 C2271 0.960 . S
C2288 C2289 1.391 . S
C2288 C2290 1.394 . S
C2288 H2304 0.931 . S
C2289 C2288 1.391 . S
C2289 C2293 1.376 . S
C2290 C2288 1.394 . S
C2290 C2291 1.369 . S
C2290 C2294 1.531 . S
C2291 C2290 1.369 . S
C2291 C2292 1.410 . S
C2291 C2299 1.503 . S
C2292 C2291 1.410 . S
C2292 C2293 1.392 . S
C2292 C2295 1.511 . S
C2293 C2289 1.376 . S
C2293 C2292 1.392 . S
C2293 H2305 0.929 . S
C2294 C2290 1.531 . S
C2294 H2306 0.960 . S
C2294 H2307 0.962 . S
C2294 H2308 0.960 . S
C2295 C2292 1.511 . S
C2295 H2309 0.961 . S
C2295 H2310 0.961 . S
C2295 H2311 0.961 . S
C2296 C2297 1.370 . S
C2296 C2298 1.363 . S
C2296 H2312 0.931 . S
C2297 C2296 1.370 . S
C2297 C2301 1.408 . S
C2298 C2296 1.363 . S
C2298 C2299 1.370 . S
C2298 C2302 1.524 . S
C2299 C2291 1.503 . S
C2299 C2298 1.370 . S
C2299 C2300 1.403 . S
C2300 C2299 1.403 . S
C2300 C2301 1.404 . S
C2300 C2303 1.539 . S
C2301 C2297 1.408 . S
C2301 C2300 1.404 . S
C2301 H2313 0.930 . S
C2302 C2298 1.524 . S
C2302 H2314 0.956 . S
C2302 H2315 0.961 . S
C2302 H2316 0.961 . S
C2303 C2300 1.539 . S
C2303 H2317 0.958 . S
C2303 H2318 0.961 . S
C2303 H2319 0.960 . S
H2304 C2288 0.931 . S
H2305 C2293 0.929 . S
H2306 C2294 0.960 . S
H2307 C2294 0.962 . S
H2308 C2294 0.960 . S
H2309 C2295 0.961 . S
H2310 C2295 0.961 . S
H2311 C2295 0.961 . S
H2312 C2296 0.931 . S
H2313 C2301 0.930 . S
H2314 C2302 0.956 . S
H2315 C2302 0.961 . S
H2316 C2302 0.961 . S
H2317 C2303 0.958 . S
H2318 C2303 0.961 . S
H2319 C2303 0.960 . S
C2320 C2321 1.391 . S
C2320 C2322 1.394 . S
C2320 H2336 0.931 . S
C2321 C2320 1.391 . S
C2321 C2325 1.376 . S
C2322 C2320 1.394 . S
C2322 C2323 1.369 . S
C2322 C2326 1.531 . S
C2323 C2322 1.369 . S
C2323 C2324 1.410 . S
C2323 C2331 1.503 . S
C2324 C2323 1.410 . S
C2324 C2325 1.392 . S
C2324 C2327 1.511 . S
C2325 C2321 1.376 . S
C2325 C2324 1.392 . S
C2325 H2337 0.929 . S
C2326 C2322 1.531 . S
C2326 H2338 0.960 . S
C2326 H2339 0.962 . S
C2326 H2340 0.960 . S
C2327 C2324 1.511 . S
C2327 H2341 0.961 . S
C2327 H2342 0.961 . S
C2327 H2343 0.961 . S
C2328 C2329 1.370 . S
C2328 C2330 1.363 . S
C2328 H2344 0.931 . S
C2329 C2328 1.370 . S
C2329 C2333 1.408 . S
C2330 C2328 1.363 . S
C2330 C2331 1.370 . S
C2330 C2334 1.524 . S
C2331 C2323 1.503 . S
C2331 C2330 1.370 . S
C2331 C2332 1.403 . S
C2332 C2331 1.403 . S
C2332 C2333 1.404 . S
C2332 C2335 1.539 . S
C2333 C2329 1.408 . S
C2333 C2332 1.404 . S
C2333 H2345 0.930 . S
C2334 C2330 1.524 . S
C2334 H2346 0.956 . S
C2334 H2347 0.961 . S
C2334 H2348 0.961 . S
C2335 C2332 1.539 . S
C2335 H2349 0.958 . S
C2335 H2350 0.961 . S
C2335 H2351 0.960 . S
H2336 C2320 0.931 . S
H2337 C2325 0.929 . S
H2338 C2326 0.960 . S
H2339 C2326 0.962 . S
H2340 C2326 0.960 . S
H2341 C2327 0.961 . S
H2342 C2327 0.961 . S
H2343 C2327 0.961 . S
H2344 C2328 0.931 . S
H2345 C2333 0.930 . S
H2346 C2334 0.956 . S
H2347 C2334 0.961 . S
H2348 C2334 0.961 . S
H2349 C2335 0.958 . S
H2350 C2335 0.961 . S
H2351 C2335 0.960 . S
C2352 C2353 1.391 . S
C2352 C2354 1.394 . S
C2352 H2368 0.931 . S
C2353 C2352 1.391 . S
C2353 C2357 1.376 . S
C2354 C2352 1.394 . S
C2354 C2355 1.369 . S
C2354 C2358 1.531 . S
C2355 C2354 1.369 . S
C2355 C2356 1.410 . S
C2355 C2363 1.503 . S
C2356 C2355 1.410 . S
C2356 C2357 1.392 . S
C2356 C2359 1.511 . S
C2357 C2353 1.376 . S
C2357 C2356 1.392 . S
C2357 H2369 0.929 . S
C2358 C2354 1.531 . S
C2358 H2370 0.960 . S
C2358 H2371 0.962 . S
C2358 H2372 0.960 . S
C2359 C2356 1.511 . S
C2359 H2373 0.961 . S
C2359 H2374 0.961 . S
C2359 H2375 0.961 . S
C2360 C2361 1.370 . S
C2360 C2362 1.363 . S
C2360 H2376 0.931 . S
C2361 C2360 1.370 . S
C2361 C2365 1.408 . S
C2362 C2360 1.363 . S
C2362 C2363 1.370 . S
C2362 C2366 1.524 . S
C2363 C2355 1.503 . S
C2363 C2362 1.370 . S
C2363 C2364 1.403 . S
C2364 C2363 1.403 . S
C2364 C2365 1.404 . S
C2364 C2367 1.539 . S
C2365 C2361 1.408 . S
C2365 C2364 1.404 . S
C2365 H2377 0.930 . S
C2366 C2362 1.524 . S
C2366 H2378 0.956 . S
C2366 H2379 0.961 . S
C2366 H2380 0.961 . S
C2367 C2364 1.539 . S
C2367 H2381 0.958 . S
C2367 H2382 0.961 . S
C2367 H2383 0.960 . S
H2368 C2352 0.931 . S
H2369 C2357 0.929 . S
H2370 C2358 0.960 . S
H2371 C2358 0.962 . S
H2372 C2358 0.960 . S
H2373 C2359 0.961 . S
H2374 C2359 0.961 . S
H2375 C2359 0.961 . S
H2376 C2360 0.931 . S
H2377 C2365 0.930 . S
H2378 C2366 0.956 . S
H2379 C2366 0.961 . S
H2380 C2366 0.961 . S
H2381 C2367 0.958 . S
H2382 C2367 0.961 . S
H2383 C2367 0.960 . S
C2384 C2385 1.391 . S
C2384 C2386 1.394 . S
C2384 H2400 0.931 . S
C2385 C2384 1.391 . S
C2385 C2389 1.376 . S
C2386 C2384 1.394 . S
C2386 C2387 1.369 . S
C2386 C2390 1.531 . S
C2387 C2386 1.369 . S
C2387 C2388 1.410 . S
C2387 C2395 1.503 . S
C2388 C2387 1.410 . S
C2388 C2389 1.392 . S
C2388 C2391 1.511 . S
C2389 C2385 1.376 . S
C2389 C2388 1.392 . S
C2389 H2401 0.929 . S
C2390 C2386 1.531 . S
C2390 H2402 0.960 . S
C2390 H2403 0.962 . S
C2390 H2404 0.960 . S
C2391 C2388 1.511 . S
C2391 H2405 0.961 . S
C2391 H2406 0.961 . S
C2391 H2407 0.961 . S
C2392 C2393 1.370 . S
C2392 C2394 1.363 . S
C2392 H2408 0.931 . S
C2393 C2392 1.370 . S
C2393 C2397 1.408 . S
C2394 C2392 1.363 . S
C2394 C2395 1.370 . S
C2394 C2398 1.524 . S
C2395 C2387 1.503 . S
C2395 C2394 1.370 . S
C2395 C2396 1.403 . S
C2396 C2395 1.403 . S
C2396 C2397 1.404 . S
C2396 C2399 1.539 . S
C2397 C2393 1.408 . S
C2397 C2396 1.404 . S
C2397 H2409 0.930 . S
C2398 C2394 1.524 . S
C2398 H2410 0.956 . S
C2398 H2411 0.961 . S
C2398 H2412 0.961 . S
C2399 C2396 1.539 . S
C2399 H2413 0.958 . S
C2399 H2414 0.961 . S
C2399 H2415 0.960 . S
H2400 C2384 0.931 . S
H2401 C2389 0.929 . S
H2402 C2390 0.960 . S
H2403 C2390 0.962 . S
H2404 C2390 0.960 . S
H2405 C2391 0.961 . S
H2406 C2391 0.961 . S
H2407 C2391 0.961 . S
H2408 C2392 0.931 . S
H2409 C2397 0.930 . S
H2410 C2398 0.956 . S
H2411 C2398 0.961 . S
H2412 C2398 0.961 . S
H2413 C2399 0.958 . S
H2414 C2399 0.961 . S
H2415 C2399 0.960 . S
C2416 C2417 1.391 . S
C2416 C2418 1.394 . S
C2416 H2432 0.931 . S
C2417 C2416 1.391 . S
C2417 C2421 1.376 1_545 S
C2418 C2416 1.394 . S
C2418 C2419 1.369 . S
C2418 C2422 1.531 . S
C2419 C2418 1.369 . S
C2419 C2420 1.410 1_545 S
C2419 C2427 1.503 . S
C2420 C2419 1.410 1_565 S
C2420 C2421 1.392 . S
C2420 C2423 1.511 . S
C2421 C2417 1.376 1_565 S
C2421 C2420 1.392 . S
C2421 H2433 0.929 . S
C2422 C2418 1.531 . S
C2422 H2434 0.960 . S
C2422 H2435 0.962 . S
C2422 H2436 0.960 . S
C2423 C2420 1.511 . S
C2423 H2437 0.961 . S
C2423 H2438 0.961 . S
C2423 H2439 0.961 . S
C2424 C2425 1.370 . S
C2424 C2426 1.363 . S
C2424 H2440 0.931 . S
C2425 C2424 1.370 . S
C2425 C2429 1.408 . S
C2426 C2424 1.363 . S
C2426 C2427 1.370 . S
C2426 C2430 1.524 . S
C2427 C2419 1.503 . S
C2427 C2426 1.370 . S
C2427 C2428 1.403 . S
C2428 C2427 1.403 . S
C2428 C2429 1.404 . S
C2428 C2431 1.539 1_545 S
C2429 C2425 1.408 . S
C2429 C2428 1.404 . S
C2429 H2441 0.930 . S
C2430 C2426 1.524 . S
C2430 H2442 0.956 . S
C2430 H2443 0.961 . S
C2430 H2444 0.961 . S
C2431 C2428 1.539 1_565 S
C2431 H2445 0.958 . S
C2431 H2446 0.961 . S
C2431 H2447 0.960 . S
H2432 C2416 0.931 . S
H2433 C2421 0.929 . S
H2434 C2422 0.960 . S
H2435 C2422 0.962 . S
H2436 C2422 0.960 . S
H2437 C2423 0.961 . S
H2438 C2423 0.961 . S
H2439 C2423 0.961 . S
H2440 C2424 0.931 . S
H2441 C2429 0.930 . S
H2442 C2430 0.956 . S
H2443 C2430 0.961 . S
H2444 C2430 0.961 . S
H2445 C2431 0.958 . S
H2446 C2431 0.961 . S
H2447 C2431 0.960 . S
C2448 C2449 1.391 . S
C2448 C2450 1.394 . S
C2448 H2464 0.931 . S
C2449 C2448 1.391 . S
C2449 C2453 1.376 . S
C2450 C2448 1.394 . S
C2450 C2451 1.369 . S
C2450 C2454 1.531 . S
C2451 C2450 1.369 . S
C2451 C2452 1.410 . S
C2451 C2459 1.503 . S
C2452 C2451 1.410 . S
C2452 C2453 1.392 . S
C2452 C2455 1.511 . S
C2453 C2449 1.376 . S
C2453 C2452 1.392 . S
C2453 H2465 0.929 . S
C2454 C2450 1.531 . S
C2454 H2466 0.960 . S
C2454 H2467 0.962 . S
C2454 H2468 0.960 . S
C2455 C2452 1.511 . S
C2455 H2469 0.961 . S
C2455 H2470 0.961 . S
C2455 H2471 0.961 . S
C2456 C2457 1.370 . S
C2456 C2458 1.363 . S
C2456 H2472 0.931 . S
C2457 C2456 1.370 . S
C2457 C2461 1.408 . S
C2458 C2456 1.363 . S
C2458 C2459 1.370 . S
C2458 C2462 1.524 . S
C2459 C2451 1.503 . S
C2459 C2458 1.370 . S
C2459 C2460 1.403 . S
C2460 C2459 1.403 . S
C2460 C2461 1.404 . S
C2460 C2463 1.539 . S
C2461 C2457 1.408 . S
C2461 C2460 1.404 . S
C2461 H2473 0.930 . S
C2462 C2458 1.524 . S
C2462 H2474 0.956 . S
C2462 H2475 0.961 . S
C2462 H2476 0.961 . S
C2463 C2460 1.539 . S
C2463 H2477 0.958 . S
C2463 H2478 0.961 . S
C2463 H2479 0.960 . S
H2464 C2448 0.931 . S
H2465 C2453 0.929 . S
H2466 C2454 0.960 . S
H2467 C2454 0.962 . S
H2468 C2454 0.960 . S
H2469 C2455 0.961 . S
H2470 C2455 0.961 . S
H2471 C2455 0.961 . S
H2472 C2456 0.931 . S
H2473 C2461 0.930 . S
H2474 C2462 0.956 . S
H2475 C2462 0.961 . S
H2476 C2462 0.961 . S
H2477 C2463 0.958 . S
H2478 C2463 0.961 . S
H2479 C2463 0.960 . S
C2480 C2481 1.391 . S
C2480 C2482 1.394 . S
C2480 H2496 0.931 . S
C2481 C2480 1.391 . S
C2481 C2485 1.376 . S
C2482 C2480 1.394 . S
C2482 C2483 1.369 . S
C2482 C2486 1.531 . S
C2483 C2482 1.369 . S
C2483 C2484 1.410 . S
C2483 C2491 1.503 . S
C2484 C2483 1.410 . S
C2484 C2485 1.392 . S
C2484 C2487 1.511 . S
C2485 C2481 1.376 . S
C2485 C2484 1.392 . S
C2485 H2497 0.929 . S
C2486 C2482 1.531 . S
C2486 H2498 0.960 . S
C2486 H2499 0.962 . S
C2486 H2500 0.960 . S
C2487 C2484 1.511 . S
C2487 H2501 0.961 . S
C2487 H2502 0.961 . S
C2487 H2503 0.961 . S
C2488 C2489 1.370 . S
C2488 C2490 1.363 . S
C2488 H2504 0.931 . S
C2489 C2488 1.370 . S
C2489 C2493 1.408 . S
C2490 C2488 1.363 . S
C2490 C2491 1.370 . S
C2490 C2494 1.524 . S
C2491 C2483 1.503 . S
C2491 C2490 1.370 . S
C2491 C2492 1.403 . S
C2492 C2491 1.403 . S
C2492 C2493 1.404 . S
C2492 C2495 1.539 . S
C2493 C2489 1.408 . S
C2493 C2492 1.404 . S
C2493 H2505 0.930 . S
C2494 C2490 1.524 . S
C2494 H2506 0.956 . S
C2494 H2507 0.961 . S
C2494 H2508 0.961 . S
C2495 C2492 1.539 . S
C2495 H2509 0.958 . S
C2495 H2510 0.961 . S
C2495 H2511 0.960 . S
H2496 C2480 0.931 . S
H2497 C2485 0.929 . S
H2498 C2486 0.960 . S
H2499 C2486 0.962 . S
H2500 C2486 0.960 . S
H2501 C2487 0.961 . S
H2502 C2487 0.961 . S
H2503 C2487 0.961 . S
H2504 C2488 0.931 . S
H2505 C2493 0.930 . S
H2506 C2494 0.956 . S
H2507 C2494 0.961 . S
H2508 C2494 0.961 . S
H2509 C2495 0.958 . S
H2510 C2495 0.961 . S
H2511 C2495 0.960 . S
C2512 C2513 1.391 . S
C2512 C2514 1.394 . S
C2512 H2528 0.931 . S
C2513 C2512 1.391 . S
C2513 C2517 1.376 . S
C2514 C2512 1.394 . S
C2514 C2515 1.369 . S
C2514 C2518 1.531 . S
C2515 C2514 1.369 . S
C2515 C2516 1.410 . S
C2515 C2523 1.503 . S
C2516 C2515 1.410 . S
C2516 C2517 1.392 . S
C2516 C2519 1.511 . S
C2517 C2513 1.376 . S
C2517 C2516 1.392 . S
C2517 H2529 0.929 . S
C2518 C2514 1.531 . S
C2518 H2530 0.960 . S
C2518 H2531 0.962 . S
C2518 H2532 0.960 . S
C2519 C2516 1.511 . S
C2519 H2533 0.961 . S
C2519 H2534 0.961 . S
C2519 H2535 0.961 . S
C2520 C2521 1.370 . S
C2520 C2522 1.363 . S
C2520 H2536 0.931 . S
C2521 C2520 1.370 . S
C2521 C2525 1.408 . S
C2522 C2520 1.363 . S
C2522 C2523 1.370 . S
C2522 C2526 1.524 . S
C2523 C2515 1.503 . S
C2523 C2522 1.370 . S
C2523 C2524 1.403 . S
C2524 C2523 1.403 . S
C2524 C2525 1.404 . S
C2524 C2527 1.539 . S
C2525 C2521 1.408 . S
C2525 C2524 1.404 . S
C2525 H2537 0.930 . S
C2526 C2522 1.524 . S
C2526 H2538 0.956 . S
C2526 H2539 0.961 . S
C2526 H2540 0.961 . S
C2527 C2524 1.539 . S
C2527 H2541 0.958 . S
C2527 H2542 0.961 . S
C2527 H2543 0.960 . S
H2528 C2512 0.931 . S
H2529 C2517 0.929 . S
H2530 C2518 0.960 . S
H2531 C2518 0.962 . S
H2532 C2518 0.960 . S
H2533 C2519 0.961 . S
H2534 C2519 0.961 . S
H2535 C2519 0.961 . S
H2536 C2520 0.931 . S
H2537 C2525 0.930 . S
H2538 C2526 0.956 . S
H2539 C2526 0.961 . S
H2540 C2526 0.961 . S
H2541 C2527 0.958 . S
H2542 C2527 0.961 . S
H2543 C2527 0.960 . S
C2544 C2545 1.391 . S
C2544 C2546 1.394 . S
C2544 H2560 0.931 . S
C2545 C2544 1.391 . S
C2545 C2549 1.376 . S
C2546 C2544 1.394 . S
C2546 C2547 1.369 . S
C2546 C2550 1.531 . S
C2547 C2546 1.369 . S
C2547 C2548 1.410 . S
C2547 C2555 1.503 . S
C2548 C2547 1.410 . S
C2548 C2549 1.392 . S
C2548 C2551 1.511 . S
C2549 C2545 1.376 . S
C2549 C2548 1.392 . S
C2549 H2561 0.929 . S
C2550 C2546 1.531 . S
C2550 H2562 0.960 . S
C2550 H2563 0.962 . S
C2550 H2564 0.960 . S
C2551 C2548 1.511 . S
C2551 H2565 0.961 . S
C2551 H2566 0.961 . S
C2551 H2567 0.961 . S
C2552 C2553 1.370 . S
C2552 C2554 1.363 . S
C2552 H2568 0.931 . S
C2553 C2552 1.370 . S
C2553 C2557 1.408 . S
C2554 C2552 1.363 . S
C2554 C2555 1.370 . S
C2554 C2558 1.524 . S
C2555 C2547 1.503 . S
C2555 C2554 1.370 . S
C2555 C2556 1.403 . S
C2556 C2555 1.403 . S
C2556 C2557 1.404 . S
C2556 C2559 1.539 . S
C2557 C2553 1.408 . S
C2557 C2556 1.404 . S
C2557 H2569 0.930 . S
C2558 C2554 1.524 . S
C2558 H2570 0.956 . S
C2558 H2571 0.961 . S
C2558 H2572 0.961 . S
C2559 C2556 1.539 . S
C2559 H2573 0.958 . S
C2559 H2574 0.961 . S
C2559 H2575 0.960 . S
H2560 C2544 0.931 . S
H2561 C2549 0.929 . S
H2562 C2550 0.960 . S
H2563 C2550 0.962 . S
H2564 C2550 0.960 . S
H2565 C2551 0.961 . S
H2566 C2551 0.961 . S
H2567 C2551 0.961 . S
H2568 C2552 0.931 . S
H2569 C2557 0.930 . S
H2570 C2558 0.956 . S
H2571 C2558 0.961 . S
H2572 C2558 0.961 . S
H2573 C2559 0.958 . S
H2574 C2559 0.961 . S
H2575 C2559 0.960 . S
C2576 C2577 1.391 . S
C2576 C2578 1.394 1_556 S
C2576 H2592 0.931 . S
C2577 C2576 1.391 . S
C2577 C2581 1.376 . S
C2578 C2576 1.394 1_554 S
C2578 C2579 1.369 . S
C2578 C2582 1.531 . S
C2579 C2578 1.369 . S
C2579 C2580 1.410 1_554 S
C2579 C2587 1.503 . S
C2580 C2579 1.410 1_556 S
C2580 C2581 1.392 . S
C2580 C2583 1.511 . S
C2581 C2577 1.376 . S
C2581 C2580 1.392 . S
C2581 H2593 0.929 . S
C2582 C2578 1.531 . S
C2582 H2594 0.960 . S
C2582 H2595 0.962 . S
C2582 H2596 0.960 . S
C2583 C2580 1.511 . S
C2583 H2597 0.961 . S
C2583 H2598 0.961 . S
C2583 H2599 0.961 . S
C2584 C2585 1.370 . S
C2584 C2586 1.363 . S
C2584 H2600 0.931 . S
C2585 C2584 1.370 . S
C2585 C2589 1.408 . S
C2586 C2584 1.363 . S
C2586 C2587 1.370 . S
C2586 C2590 1.524 1_554 S
C2587 C2579 1.503 . S
C2587 C2586 1.370 . S
C2587 C2588 1.403 . S
C2588 C2587 1.403 . S
C2588 C2589 1.404 . S
C2588 C2591 1.539 . S
C2589 C2585 1.408 . S
C2589 C2588 1.404 . S
C2589 H2601 0.930 . S
C2590 C2586 1.524 1_556 S
C2590 H2602 0.956 . S
C2590 H2603 0.961 . S
C2590 H2604 0.961 . S
C2591 C2588 1.539 . S
C2591 H2605 0.958 . S
C2591 H2606 0.961 . S
C2591 H2607 0.960 . S
H2592 C2576 0.931 . S
H2593 C2581 0.929 . S
H2594 C2582 0.960 . S
H2595 C2582 0.962 . S
H2596 C2582 0.960 . S
H2597 C2583 0.961 . S
H2598 C2583 0.961 . S
H2599 C2583 0.961 . S
H2600 C2584 0.931 . S
H2601 C2589 0.930 . S
H2602 C2590 0.956 . S
H2603 C2590 0.961 . S
H2604 C2590 0.961 . S
H2605 C2591 0.958 . S
H2606 C2591 0.961 . S
H2607 C2591 0.960 . S
C2608 C2609 1.391 . S
C2608 C2610 1.394 . S
C2608 H2624 0.931 . S
C2609 C2608 1.391 . S
C2609 C2613 1.376 . S
C2610 C2608 1.394 . S
C2610 C2611 1.369 . S
C2610 C2614 1.531 . S
C2611 C2610 1.369 . S
C2611 C2612 1.410 . S
C2611 C2619 1.503 . S
C2612 C2611 1.410 . S
C2612 C2613 1.392 . S
C2612 C2615 1.511 . S
C2613 C2609 1.376 . S
C2613 C2612 1.392 . S
C2613 H2625 0.929 . S
C2614 C2610 1.531 . S
C2614 H2626 0.960 . S
C2614 H2627 0.962 . S
C2614 H2628 0.960 . S
C2615 C2612 1.511 . S
C2615 H2629 0.961 . S
C2615 H2630 0.961 . S
C2615 H2631 0.961 . S
C2616 C2617 1.370 . S
C2616 C2618 1.363 . S
C2616 H2632 0.931 . S
C2617 C2616 1.370 . S
C2617 C2621 1.408 . S
C2618 C2616 1.363 . S
C2618 C2619 1.370 . S
C2618 C2622 1.524 . S
C2619 C2611 1.503 . S
C2619 C2618 1.370 . S
C2619 C2620 1.403 . S
C2620 C2619 1.403 . S
C2620 C2621 1.404 . S
C2620 C2623 1.539 . S
C2621 C2617 1.408 . S
C2621 C2620 1.404 . S
C2621 H2633 0.930 . S
C2622 C2618 1.524 . S
C2622 H2634 0.956 . S
C2622 H2635 0.961 . S
C2622 H2636 0.961 . S
C2623 C2620 1.539 . S
C2623 H2637 0.958 . S
C2623 H2638 0.961 . S
C2623 H2639 0.960 . S
H2624 C2608 0.931 . S
H2625 C2613 0.929 . S
H2626 C2614 0.960 . S
H2627 C2614 0.962 . S
H2628 C2614 0.960 . S
H2629 C2615 0.961 . S
H2630 C2615 0.961 . S
H2631 C2615 0.961 . S
H2632 C2616 0.931 . S
H2633 C2621 0.930 . S
H2634 C2622 0.956 . S
H2635 C2622 0.961 . S
H2636 C2622 0.961 . S
H2637 C2623 0.958 . S
H2638 C2623 0.961 . S
H2639 C2623 0.960 . S
C2640 C2641 1.391 . S
C2640 C2642 1.394 . S
C2640 H2656 0.931 . S
C2641 C2640 1.391 . S
C2641 C2645 1.376 . S
C2642 C2640 1.394 . S
C2642 C2643 1.369 . S
C2642 C2646 1.531 . S
C2643 C2642 1.369 . S
C2643 C2644 1.410 . S
C2643 C2651 1.503 . S
C2644 C2643 1.410 . S
C2644 C2645 1.392 . S
C2644 C2647 1.511 . S
C2645 C2641 1.376 . S
C2645 C2644 1.392 . S
C2645 H2657 0.929 . S
C2646 C2642 1.531 . S
C2646 H2658 0.960 . S
C2646 H2659 0.962 . S
C2646 H2660 0.960 . S
C2647 C2644 1.511 . S
C2647 H2661 0.961 . S
C2647 H2662 0.961 . S
C2647 H2663 0.961 . S
C2648 C2649 1.370 . S
C2648 C2650 1.363 . S
C2648 H2664 0.931 . S
C2649 C2648 1.370 . S
C2649 C2653 1.408 . S
C2650 C2648 1.363 . S
C2650 C2651 1.370 . S
C2650 C2654 1.524 . S
C2651 C2643 1.503 . S
C2651 C2650 1.370 . S
C2651 C2652 1.403 . S
C2652 C2651 1.403 . S
C2652 C2653 1.404 . S
C2652 C2655 1.539 . S
C2653 C2649 1.408 . S
C2653 C2652 1.404 . S
C2653 H2665 0.930 . S
C2654 C2650 1.524 . S
C2654 H2666 0.956 . S
C2654 H2667 0.961 . S
C2654 H2668 0.961 . S
C2655 C2652 1.539 . S
C2655 H2669 0.958 . S
C2655 H2670 0.961 . S
C2655 H2671 0.960 . S
H2656 C2640 0.931 . S
H2657 C2645 0.929 . S
H2658 C2646 0.960 . S
H2659 C2646 0.962 . S
H2660 C2646 0.960 . S
H2661 C2647 0.961 . S
H2662 C2647 0.961 . S
H2663 C2647 0.961 . S
H2664 C2648 0.931 . S
H2665 C2653 0.930 . S
H2666 C2654 0.956 . S
H2667 C2654 0.961 . S
H2668 C2654 0.961 . S
H2669 C2655 0.958 . S
H2670 C2655 0.961 . S
H2671 C2655 0.960 . S
C2672 C2673 1.391 . S
C2672 C2674 1.394 . S
C2672 H2688 0.931 . S
C2673 C2672 1.391 . S
C2673 C2677 1.376 . S
C2674 C2672 1.394 . S
C2674 C2675 1.371 1_455 S
C2674 C2678 1.531 1_455 S
C2675 C2674 1.371 1_655 S
C2675 C2676 1.381 1_655 S
C2675 C2683 1.534 . S
C2676 C2675 1.381 1_455 S
C2676 C2677 1.392 . S
C2676 C2679 1.511 . S
C2677 C2673 1.376 . S
C2677 C2676 1.392 . S
C2677 H2689 0.929 . S
C2678 C2674 1.531 1_655 S
C2678 H2690 0.960 . S
C2678 H2691 0.962 . S
C2678 H2692 0.960 1_655 S
C2679 C2676 1.511 . S
C2679 H2693 0.961 . S
C2679 H2694 0.961 1_455 S
C2679 H2695 0.961 . S
C2680 C2681 1.370 . S
C2680 C2682 1.363 . S
C2680 H2696 0.931 . S
C2681 C2680 1.370 . S
C2681 C2685 1.408 . S
C2682 C2680 1.363 . S
C2682 C2683 1.370 . S
C2682 C2686 1.524 . S
C2683 C2675 1.534 . S
C2683 C2682 1.370 . S
C2683 C2684 1.403 . S
C2684 C2683 1.403 . S
C2684 C2685 1.404 . S
C2684 C2687 1.539 1_655 S
C2685 C2681 1.408 . S
C2685 C2684 1.404 . S
C2685 H2697 0.930 . S
C2686 C2682 1.524 . S
C2686 H2698 0.956 . S
C2686 H2699 0.961 . S
C2686 H2700 0.961 . S
C2687 C2684 1.539 1_455 S
C2687 H2701 0.958 . S
C2687 H2702 0.961 . S
C2687 H2703 0.960 . S
H2688 C2672 0.931 . S
H2689 C2677 0.929 . S
H2690 C2678 0.960 . S
H2691 C2678 0.962 . S
H2692 C2678 0.960 1_455 S
H2693 C2679 0.961 . S
H2694 C2679 0.961 1_655 S
H2695 C2679 0.961 . S
H2696 C2680 0.931 . S
H2697 C2685 0.930 . S
H2698 C2686 0.956 . S
H2699 C2686 0.961 . S
H2700 C2686 0.961 . S
H2701 C2687 0.958 . S
H2702 C2687 0.961 . S
H2703 C2687 0.960 . S
C2704 C2705 1.391 . S
C2704 C2706 1.394 . S
C2704 H2720 0.931 . S
C2705 C2704 1.391 . S
C2705 C2709 1.376 1_655 S
C2706 C2704 1.394 . S
C2706 C2707 1.369 1_655 S
C2706 C2710 1.531 . S
C2707 C2706 1.369 1_455 S
C2707 C2708 1.410 . S
C2707 C2715 1.503 . S
C2708 C2707 1.410 . S
C2708 C2709 1.392 . S
C2708 C2711 1.511 . S
C2709 C2705 1.376 1_455 S
C2709 C2708 1.392 . S
C2709 H2721 0.929 . S
C2710 C2706 1.531 . S
C2710 H2722 0.960 . S
C2710 H2723 0.962 . S
C2710 H2724 0.960 . S
C2711 C2708 1.511 . S
C2711 H2725 0.961 . S
C2711 H2726 0.961 . S
C2711 H2727 0.961 . S
C2712 C2713 1.370 . S
C2712 C2714 1.363 . S
C2712 H2728 0.931 . S
C2713 C2712 1.370 . S
C2713 C2717 1.408 . S
C2714 C2712 1.363 . S
C2714 C2715 1.370 . S
C2714 C2718 1.524 . S
C2715 C2707 1.503 . S
C2715 C2714 1.370 . S
C2715 C2716 1.403 . S
C2716 C2715 1.403 . S
C2716 C2717 1.404 . S
C2716 C2719 1.539 . S
C2717 C2713 1.408 . S
C2717 C2716 1.404 . S
C2717 H2729 0.930 . S
C2718 C2714 1.524 . S
C2718 H2730 0.956 1_455 S
C2718 H2731 0.961 . S
C2718 H2732 0.961 . S
C2719 C2716 1.539 . S
C2719 H2733 0.958 . S
C2719 H2734 0.961 . S
C2719 H2735 0.960 . S
H2720 C2704 0.931 . S
H2721 C2709 0.929 . S
H2722 C2710 0.960 . S
H2723 C2710 0.962 . S
H2724 C2710 0.960 . S
H2725 C2711 0.961 . S
H2726 C2711 0.961 . S
H2727 C2711 0.961 . S
H2728 C2712 0.931 . S
H2729 C2717 0.930 . S
H2730 C2718 0.956 1_655 S
H2731 C2718 0.961 . S
H2732 C2718 0.961 . S
H2733 C2719 0.958 . S
H2734 C2719 0.961 . S
H2735 C2719 0.960 . S
C2736 C2737 1.391 . S
C2736 C2738 1.394 . S
C2736 H2752 0.931 . S
C2737 C2736 1.391 . S
C2737 C2741 1.376 . S
C2738 C2736 1.394 . S
C2738 C2739 1.369 . S
C2738 C2742 1.531 . S
C2739 C2738 1.369 . S
C2739 C2740 1.410 . S
C2739 C2747 1.503 . S
C2740 C2739 1.410 . S
C2740 C2741 1.392 . S
C2740 C2743 1.511 . S
C2741 C2737 1.376 . S
C2741 C2740 1.392 . S
C2741 H2753 0.929 . S
C2742 C2738 1.531 . S
C2742 H2754 0.960 . S
C2742 H2755 0.962 . S
C2742 H2756 0.960 . S
C2743 C2740 1.511 . S
C2743 H2757 0.961 . S
C2743 H2758 0.961 . S
C2743 H2759 0.961 . S
C2744 C2745 1.370 . S
C2744 C2746 1.363 . S
C2744 H2760 0.931 . S
C2745 C2744 1.370 . S
C2745 C2749 1.408 . S
C2746 C2744 1.363 . S
C2746 C2747 1.370 . S
C2746 C2750 1.524 . S
C2747 C2739 1.503 . S
C2747 C2746 1.370 . S
C2747 C2748 1.403 . S
C2748 C2747 1.403 . S
C2748 C2749 1.404 . S
C2748 C2751 1.539 . S
C2749 C2745 1.408 . S
C2749 C2748 1.404 . S
C2749 H2761 0.930 . S
C2750 C2746 1.524 . S
C2750 H2762 0.956 . S
C2750 H2763 0.961 . S
C2750 H2764 0.961 . S
C2751 C2748 1.539 . S
C2751 H2765 0.958 . S
C2751 H2766 0.961 . S
C2751 H2767 0.960 . S
H2752 C2736 0.931 . S
H2753 C2741 0.929 . S
H2754 C2742 0.960 . S
H2755 C2742 0.962 . S
H2756 C2742 0.960 . S
H2757 C2743 0.961 . S
H2758 C2743 0.961 . S
H2759 C2743 0.961 . S
H2760 C2744 0.931 . S
H2761 C2749 0.930 . S
H2762 C2750 0.956 . S
H2763 C2750 0.961 . S
H2764 C2750 0.961 . S
H2765 C2751 0.958 . S
H2766 C2751 0.961 . S
H2767 C2751 0.960 . S
C2768 C2769 1.391 . S
C2768 C2770 1.394 . S
C2768 H2784 0.931 . S
C2769 C2768 1.391 . S
C2769 C2773 1.376 . S
C2770 C2768 1.394 . S
C2770 C2771 1.369 . S
C2770 C2774 1.531 . S
C2771 C2770 1.369 . S
C2771 C2772 1.410 . S
C2771 C2779 1.503 . S
C2772 C2771 1.410 . S
C2772 C2773 1.392 . S
C2772 C2775 1.511 . S
C2773 C2769 1.376 . S
C2773 C2772 1.392 . S
C2773 H2785 0.929 . S
C2774 C2770 1.531 . S
C2774 H2786 0.960 . S
C2774 H2787 0.962 . S
C2774 H2788 0.960 . S
C2775 C2772 1.511 . S
C2775 H2789 0.961 . S
C2775 H2790 0.961 . S
C2775 H2791 0.961 . S
C2776 C2777 1.370 . S
C2776 C2778 1.363 . S
C2776 H2792 0.931 . S
C2777 C2776 1.370 . S
C2777 C2781 1.408 . S
C2778 C2776 1.363 . S
C2778 C2779 1.370 . S
C2778 C2782 1.524 . S
C2779 C2771 1.503 . S
C2779 C2778 1.370 . S
C2779 C2780 1.403 . S
C2780 C2779 1.403 . S
C2780 C2781 1.404 . S
C2780 C2783 1.539 . S
C2781 C2777 1.408 . S
C2781 C2780 1.404 . S
C2781 H2793 0.930 . S
C2782 C2778 1.524 . S
C2782 H2794 0.956 . S
C2782 H2795 0.961 . S
C2782 H2796 0.961 . S
C2783 C2780 1.539 . S
C2783 H2797 0.958 . S
C2783 H2798 0.961 . S
C2783 H2799 0.960 . S
H2784 C2768 0.931 . S
H2785 C2773 0.929 . S
H2786 C2774 0.960 . S
H2787 C2774 0.962 . S
H2788 C2774 0.960 . S
H2789 C2775 0.961 . S
H2790 C2775 0.961 . S
H2791 C2775 0.961 . S
H2792 C2776 0.931 . S
H2793 C2781 0.930 . S
H2794 C2782 0.956 . S
H2795 C2782 0.961 . S
H2796 C2782 0.961 . S
H2797 C2783 0.958 . S
H2798 C2783 0.961 . S
H2799 C2783 0.960 . S
C2800 C2801 1.391 . S
C2800 C2802 1.394 . S
C2800 H2816 0.931 . S
C2801 C2800 1.391 . S
C2801 C2805 1.376 . S
C2802 C2800 1.394 . S
C2802 C2803 1.369 . S
C2802 C2806 1.531 . S
C2803 C2802 1.369 . S
C2803 C2804 1.410 . S
C2803 C2811 1.503 . S
C2804 C2803 1.410 . S
C2804 C2805 1.392 . S
C2804 C2807 1.511 . S
C2805 C2801 1.376 . S
C2805 C2804 1.392 . S
C2805 H2817 0.929 . S
C2806 C2802 1.531 . S
C2806 H2818 0.960 . S
C2806 H2819 0.962 . S
C2806 H2820 0.960 . S
C2807 C2804 1.511 . S
C2807 H2821 0.961 . S
C2807 H2822 0.961 . S
C2807 H2823 0.961 . S
C2808 C2809 1.370 . S
C2808 C2810 1.363 . S
C2808 H2824 0.931 . S
C2809 C2808 1.370 . S
C2809 C2813 1.408 . S
C2810 C2808 1.363 . S
C2810 C2811 1.370 . S
C2810 C2814 1.524 . S
C2811 C2803 1.503 . S
C2811 C2810 1.370 . S
C2811 C2812 1.403 . S
C2812 C2811 1.403 . S
C2812 C2813 1.404 . S
C2812 C2815 1.539 . S
C2813 C2809 1.408 . S
C2813 C2812 1.404 . S
C2813 H2825 0.930 . S
C2814 C2810 1.524 . S
C2814 H2826 0.956 . S
C2814 H2827 0.961 . S
C2814 H2828 0.961 . S
C2815 C2812 1.539 . S
C2815 H2829 0.958 . S
C2815 H2830 0.961 . S
C2815 H2831 0.960 . S
H2816 C2800 0.931 . S
H2817 C2805 0.929 . S
H2818 C2806 0.960 . S
H2819 C2806 0.962 . S
H2820 C2806 0.960 . S
H2821 C2807 0.961 . S
H2822 C2807 0.961 . S
H2823 C2807 0.961 . S
H2824 C2808 0.931 . S
H2825 C2813 0.930 . S
H2826 C2814 0.956 . S
H2827 C2814 0.961 . S
H2828 C2814 0.961 . S
H2829 C2815 0.958 . S
H2830 C2815 0.961 . S
H2831 C2815 0.960 . S
C2832 C2833 1.391 . S
C2832 C2834 1.394 . S
C2832 H2848 0.931 . S
C2833 C2832 1.391 . S
C2833 C2837 1.376 . S
C2834 C2832 1.394 . S
C2834 C2835 1.369 . S
C2834 C2838 1.531 . S
C2835 C2834 1.369 . S
C2835 C2836 1.410 . S
C2835 C2843 1.503 . S
C2836 C2835 1.410 . S
C2836 C2837 1.392 . S
C2836 C2839 1.511 . S
C2837 C2833 1.376 . S
C2837 C2836 1.392 . S
C2837 H2849 0.929 . S
C2838 C2834 1.531 . S
C2838 H2850 0.960 . S
C2838 H2851 0.962 . S
C2838 H2852 0.960 . S
C2839 C2836 1.511 . S
C2839 H2853 0.961 . S
C2839 H2854 0.961 . S
C2839 H2855 0.961 . S
C2840 C2841 1.370 . S
C2840 C2842 1.363 . S
C2840 H2856 0.931 . S
C2841 C2840 1.370 . S
C2841 C2845 1.408 . S
C2842 C2840 1.363 . S
C2842 C2843 1.370 . S
C2842 C2846 1.524 . S
C2843 C2835 1.503 . S
C2843 C2842 1.370 . S
C2843 C2844 1.403 . S
C2844 C2843 1.403 . S
C2844 C2845 1.404 . S
C2844 C2847 1.539 . S
C2845 C2841 1.408 . S
C2845 C2844 1.404 . S
C2845 H2857 0.930 . S
C2846 C2842 1.524 . S
C2846 H2858 0.956 . S
C2846 H2859 0.961 . S
C2846 H2860 0.961 . S
C2847 C2844 1.539 . S
C2847 H2861 0.958 . S
C2847 H2862 0.961 . S
C2847 H2863 0.960 . S
H2848 C2832 0.931 . S
H2849 C2837 0.929 . S
H2850 C2838 0.960 . S
H2851 C2838 0.962 . S
H2852 C2838 0.960 . S
H2853 C2839 0.961 . S
H2854 C2839 0.961 . S
H2855 C2839 0.961 . S
H2856 C2840 0.931 . S
H2857 C2845 0.930 . S
H2858 C2846 0.956 . S
H2859 C2846 0.961 . S
H2860 C2846 0.961 . S
H2861 C2847 0.958 . S
H2862 C2847 0.961 . S
H2863 C2847 0.960 . S
C2864 C2865 1.391 . S
C2864 C2866 1.394 . S
C2864 H2880 0.931 . S
C2865 C2864 1.391 . S
C2865 C2869 1.376 . S
C2866 C2864 1.394 . S
C2866 C2867 1.369 . S
C2866 C2870 1.531 . S
C2867 C2866 1.369 . S
C2867 C2868 1.410 . S
C2867 C2875 1.503 . S
C2868 C2867 1.410 . S
C2868 C2869 1.392 . S
C2868 C2871 1.511 . S
C2869 C2865 1.376 . S
C2869 C2868 1.392 . S
C2869 H2881 0.929 . S
C2870 C2866 1.531 . S
C2870 H2882 0.960 . S
C2870 H2883 0.962 . S
C2870 H2884 0.960 . S
C2871 C2868 1.511 . S
C2871 H2885 0.961 . S
C2871 H2886 0.961 . S
C2871 H2887 0.961 . S
C2872 C2873 1.370 . S
C2872 C2874 1.363 . S
C2872 H2888 0.931 . S
C2873 C2872 1.370 . S
C2873 C2877 1.408 . S
C2874 C2872 1.363 . S
C2874 C2875 1.370 . S
C2874 C2878 1.524 . S
C2875 C2867 1.503 . S
C2875 C2874 1.370 . S
C2875 C2876 1.403 . S
C2876 C2875 1.403 . S
C2876 C2877 1.404 . S
C2876 C2879 1.539 . S
C2877 C2873 1.408 . S
C2877 C2876 1.404 . S
C2877 H2889 0.930 . S
C2878 C2874 1.524 . S
C2878 H2890 0.956 . S
C2878 H2891 0.961 . S
C2878 H2892 0.961 . S
C2879 C2876 1.539 . S
C2879 H2893 0.958 . S
C2879 H2894 0.961 . S
C2879 H2895 0.960 . S
H2880 C2864 0.931 . S
H2881 C2869 0.929 . S
H2882 C2870 0.960 . S
H2883 C2870 0.962 . S
H2884 C2870 0.960 . S
H2885 C2871 0.961 . S
H2886 C2871 0.961 . S
H2887 C2871 0.961 . S
H2888 C2872 0.931 . S
H2889 C2877 0.930 . S
H2890 C2878 0.956 . S
H2891 C2878 0.961 . S
H2892 C2878 0.961 . S
H2893 C2879 0.958 . S
H2894 C2879 0.961 . S
H2895 C2879 0.960 . S
C2896 C2897 1.391 . S
C2896 C2898 1.394 . S
C2896 H2912 0.931 . S
C2897 C2896 1.391 . S
C2897 C2901 1.376 . S
C2898 C2896 1.394 . S
C2898 C2899 1.369 . S
C2898 C2902 1.531 . S
C2899 C2898 1.369 . S
C2899 C2900 1.410 . S
C2899 C2907 1.503 . S
C2900 C2899 1.410 . S
C2900 C2901 1.392 . S
C2900 C2903 1.511 . S
C2901 C2897 1.376 . S
C2901 C2900 1.392 . S
C2901 H2913 0.929 . S
C2902 C2898 1.531 . S
C2902 H2914 0.960 . S
C2902 H2915 0.962 . S
C2902 H2916 0.960 . S
C2903 C2900 1.511 . S
C2903 H2917 0.961 . S
C2903 H2918 0.961 . S
C2903 H2919 0.961 . S
C2904 C2905 1.373 1_556 S
C2904 C2906 1.382 . S
C2904 H2920 0.911 1_556 S
C2905 C2904 1.373 1_554 S
C2905 C2909 1.390 1_554 S
C2906 C2904 1.382 . S
C2906 C2907 1.370 . S
C2906 C2910 1.524 . S
C2907 C2899 1.503 . S
C2907 C2906 1.370 . S
C2907 C2908 1.403 . S
C2908 C2907 1.403 . S
C2908 C2909 1.404 . S
C2908 C2911 1.539 . S
C2909 C2905 1.390 1_556 S
C2909 C2908 1.404 . S
C2909 H2921 0.930 . S
C2910 C2906 1.524 . S
C2910 H2922 0.956 . S
C2910 H2923 0.961 . S
C2910 H2924 0.961 . S
C2911 C2908 1.539 . S
C2911 H2925 0.958 . S
C2911 H2926 0.961 . S
C2911 H2927 0.960 . S
H2912 C2896 0.931 . S
H2913 C2901 0.929 . S
H2914 C2902 0.960 . S
H2915 C2902 0.962 . S
H2916 C2902 0.960 . S
H2917 C2903 0.961 . S
H2918 C2903 0.961 . S
H2919 C2903 0.961 . S
H2920 C2904 0.911 1_554 S
H2921 C2909 0.930 . S
H2922 C2910 0.956 . S
H2923 C2910 0.961 . S
H2924 C2910 0.961 . S
H2925 C2911 0.958 . S
H2926 C2911 0.961 . S
H2927 C2911 0.960 . S
C2928 C2929 1.391 . S
C2928 C2930 1.394 . S
C2928 H2944 0.931 . S
C2929 C2928 1.391 . S
C2929 C2933 1.376 . S
C2930 C2928 1.394 . S
C2930 C2931 1.369 . S
C2930 C2934 1.531 . S
C2931 C2930 1.369 . S
C2931 C2932 1.410 . S
C2931 C2939 1.503 . S
C2932 C2931 1.410 . S
C2932 C2933 1.392 . S
C2932 C2935 1.511 . S
C2933 C2929 1.376 . S
C2933 C2932 1.392 . S
C2933 H2945 0.929 . S
C2934 C2930 1.531 . S
C2934 H2946 0.960 . S
C2934 H2947 0.962 . S
C2934 H2948 0.960 . S
C2935 C2932 1.511 . S
C2935 H2949 0.961 . S
C2935 H2950 0.961 . S
C2935 H2951 0.961 . S
C2936 C2937 1.370 . S
C2936 C2938 1.363 . S
C2936 H2952 0.931 . S
C2937 C2936 1.370 . S
C2937 C2941 1.408 . S
C2938 C2936 1.363 . S
C2938 C2939 1.370 . S
C2938 C2942 1.524 . S
C2939 C2931 1.503 . S
C2939 C2938 1.370 . S
C2939 C2940 1.403 . S
C2940 C2939 1.403 . S
C2940 C2941 1.404 . S
C2940 C2943 1.539 . S
C2941 C2937 1.408 . S
C2941 C2940 1.404 . S
C2941 H2953 0.930 . S
C2942 C2938 1.524 . S
C2942 H2954 0.956 . S
C2942 H2955 0.961 . S
C2942 H2956 0.961 . S
C2943 C2940 1.539 . S
C2943 H2957 0.958 . S
C2943 H2958 0.961 . S
C2943 H2959 0.960 . S
H2944 C2928 0.931 . S
H2945 C2933 0.929 . S
H2946 C2934 0.960 . S
H2947 C2934 0.962 . S
H2948 C2934 0.960 . S
H2949 C2935 0.961 . S
H2950 C2935 0.961 . S
H2951 C2935 0.961 . S
H2952 C2936 0.931 . S
H2953 C2941 0.930 . S
H2954 C2942 0.956 . S
H2955 C2942 0.961 . S
H2956 C2942 0.961 . S
H2957 C2943 0.958 . S
H2958 C2943 0.961 . S
H2959 C2943 0.960 . S
C2960 C2961 1.391 . S
C2960 C2962 1.394 . S
C2960 H2976 0.931 . S
C2961 C2960 1.391 . S
C2961 C2965 1.376 . S
C2962 C2960 1.394 . S
C2962 C2963 1.369 . S
C2962 C2966 1.531 . S
C2963 C2962 1.369 . S
C2963 C2964 1.410 . S
C2963 C2971 1.503 . S
C2964 C2963 1.410 . S
C2964 C2965 1.392 . S
C2964 C2967 1.511 . S
C2965 C2961 1.376 . S
C2965 C2964 1.392 . S
C2965 H2977 0.929 . S
C2966 C2962 1.531 . S
C2966 H2978 0.960 . S
C2966 H2979 0.962 . S
C2966 H2980 0.960 . S
C2967 C2964 1.511 . S
C2967 H2981 0.961 . S
C2967 H2982 0.961 . S
C2967 H2983 0.961 . S
C2968 C2969 1.370 . S
C2968 C2970 1.363 . S
C2968 H2984 0.931 . S
C2969 C2968 1.370 . S
C2969 C2973 1.408 . S
C2970 C2968 1.363 . S
C2970 C2971 1.370 . S
C2970 C2974 1.524 . S
C2971 C2963 1.503 . S
C2971 C2970 1.370 . S
C2971 C2972 1.403 . S
C2972 C2971 1.403 . S
C2972 C2973 1.404 . S
C2972 C2975 1.539 . S
C2973 C2969 1.408 . S
C2973 C2972 1.404 . S
C2973 H2985 0.930 . S
C2974 C2970 1.524 . S
C2974 H2986 0.956 . S
C2974 H2987 0.961 . S
C2974 H2988 0.961 . S
C2975 C2972 1.539 . S
C2975 H2989 0.958 . S
C2975 H2990 0.961 . S
C2975 H2991 0.960 . S
H2976 C2960 0.931 . S
H2977 C2965 0.929 . S
H2978 C2966 0.960 . S
H2979 C2966 0.962 . S
H2980 C2966 0.960 . S
H2981 C2967 0.961 . S
H2982 C2967 0.961 . S
H2983 C2967 0.961 . S
H2984 C2968 0.931 . S
H2985 C2973 0.930 . S
H2986 C2974 0.956 . S
H2987 C2974 0.961 . S
H2988 C2974 0.961 . S
H2989 C2975 0.958 . S
H2990 C2975 0.961 . S
H2991 C2975 0.960 . S
C2992 C2993 1.391 . S
C2992 C2994 1.394 . S
C2992 H3008 0.931 . S
C2993 C2992 1.391 . S
C2993 C2997 1.376 . S
C2994 C2992 1.394 . S
C2994 C2995 1.369 . S
C2994 C2998 1.531 . S
C2995 C2994 1.369 . S
C2995 C2996 1.410 . S
C2995 C3003 1.503 . S
C2996 C2995 1.410 . S
C2996 C2997 1.392 . S
C2996 C2999 1.511 . S
C2997 C2993 1.376 . S
C2997 C2996 1.392 . S
C2997 H3009 0.929 . S
C2998 C2994 1.531 . S
C2998 H3010 0.960 . S
C2998 H3011 0.962 . S
C2998 H3012 0.960 . S
C2999 C2996 1.511 . S
C2999 H3013 0.961 . S
C2999 H3014 0.961 . S
C2999 H3015 0.961 . S
C3000 C3001 1.370 . S
C3000 C3002 1.363 . S
C3000 H3016 0.931 . S
C3001 C3000 1.370 . S
C3001 C3005 1.408 . S
C3002 C3000 1.363 . S
C3002 C3003 1.370 . S
C3002 C3006 1.524 . S
C3003 C2995 1.503 . S
C3003 C3002 1.370 . S
C3003 C3004 1.403 . S
C3004 C3003 1.403 . S
C3004 C3005 1.404 . S
C3004 C3007 1.539 . S
C3005 C3001 1.408 . S
C3005 C3004 1.404 . S
C3005 H3017 0.930 . S
C3006 C3002 1.524 . S
C3006 H3018 0.956 . S
C3006 H3019 0.961 . S
C3006 H3020 0.961 . S
C3007 C3004 1.539 . S
C3007 H3021 0.958 . S
C3007 H3022 0.961 . S
C3007 H3023 0.960 . S
H3008 C2992 0.931 . S
H3009 C2997 0.929 . S
H3010 C2998 0.960 . S
H3011 C2998 0.962 . S
H3012 C2998 0.960 . S
H3013 C2999 0.961 . S
H3014 C2999 0.961 . S
H3015 C2999 0.961 . S
H3016 C3000 0.931 . S
H3017 C3005 0.930 . S
H3018 C3006 0.956 . S
H3019 C3006 0.961 . S
H3020 C3006 0.961 . S
H3021 C3007 0.958 . S
H3022 C3007 0.961 . S
H3023 C3007 0.960 . S
C3024 C3025 1.391 . S
C3024 C3026 1.394 . S
C3024 H3040 0.931 . S
C3025 C3024 1.391 . S
C3025 C3029 1.376 . S
C3026 C3024 1.394 . S
C3026 C3027 1.369 . S
C3026 C3030 1.531 . S
C3027 C3026 1.369 . S
C3027 C3028 1.410 . S
C3027 C3035 1.503 . S
C3028 C3027 1.410 . S
C3028 C3029 1.392 . S
C3028 C3031 1.511 . S
C3029 C3025 1.376 . S
C3029 C3028 1.392 . S
C3029 H3041 0.929 . S
C3030 C3026 1.531 . S
C3030 H3042 0.960 . S
C3030 H3043 0.962 . S
C3030 H3044 0.960 . S
C3031 C3028 1.511 . S
C3031 H3045 0.961 . S
C3031 H3046 0.961 . S
C3031 H3047 0.961 . S
C3032 C3033 1.370 . S
C3032 C3034 1.363 . S
C3032 H3048 0.931 . S
C3033 C3032 1.370 . S
C3033 C3037 1.408 . S
C3034 C3032 1.363 . S
C3034 C3035 1.370 . S
C3034 C3038 1.524 . S
C3035 C3027 1.503 . S
C3035 C3034 1.370 . S
C3035 C3036 1.403 . S
C3036 C3035 1.403 . S
C3036 C3037 1.404 . S
C3036 C3039 1.539 . S
C3037 C3033 1.408 . S
C3037 C3036 1.404 . S
C3037 H3049 0.930 . S
C3038 C3034 1.524 . S
C3038 H3050 0.956 . S
C3038 H3051 0.961 . S
C3038 H3052 0.961 . S
C3039 C3036 1.539 . S
C3039 H3053 0.958 . S
C3039 H3054 0.961 . S
C3039 H3055 0.960 . S
H3040 C3024 0.931 . S
H3041 C3029 0.929 . S
H3042 C3030 0.960 . S
H3043 C3030 0.962 . S
H3044 C3030 0.960 . S
H3045 C3031 0.961 . S
H3046 C3031 0.961 . S
H3047 C3031 0.961 . S
H3048 C3032 0.931 . S
H3049 C3037 0.930 . S
H3050 C3038 0.956 . S
H3051 C3038 0.961 . S
H3052 C3038 0.961 . S
H3053 C3039 0.958 . S
H3054 C3039 0.961 . S
H3055 C3039 0.960 . S
C3056 C3057 1.391 . S
C3056 C3058 1.394 . S
C3056 H3072 0.931 . S
C3057 C3056 1.391 . S
C3057 C3061 1.376 . S
C3058 C3056 1.394 . S
C3058 C3059 1.369 . S
C3058 C3062 1.531 . S
C3059 C3058 1.369 . S
C3059 C3060 1.410 . S
C3059 C3067 1.503 . S
C3060 C3059 1.410 . S
C3060 C3061 1.392 . S
C3060 C3063 1.511 . S
C3061 C3057 1.376 . S
C3061 C3060 1.392 . S
C3061 H3073 0.929 . S
C3062 C3058 1.531 . S
C3062 H3074 0.960 . S
C3062 H3075 0.962 . S
C3062 H3076 0.960 . S
C3063 C3060 1.511 . S
C3063 H3077 0.961 . S
C3063 H3078 0.961 . S
C3063 H3079 0.961 . S
C3064 C3065 1.370 . S
C3064 C3066 1.363 . S
C3064 H3080 0.931 . S
C3065 C3064 1.370 . S
C3065 C3069 1.408 . S
C3066 C3064 1.363 . S
C3066 C3067 1.370 . S
C3066 C3070 1.524 . S
C3067 C3059 1.503 . S
C3067 C3066 1.370 . S
C3067 C3068 1.403 . S
C3068 C3067 1.403 . S
C3068 C3069 1.404 . S
C3068 C3071 1.539 . S
C3069 C3065 1.408 . S
C3069 C3068 1.404 . S
C3069 H3081 0.930 . S
C3070 C3066 1.524 . S
C3070 H3082 0.956 . S
C3070 H3083 0.961 . S
C3070 H3084 0.961 . S
C3071 C3068 1.539 . S
C3071 H3085 0.958 . S
C3071 H3086 0.961 . S
C3071 H3087 0.960 . S
H3072 C3056 0.931 . S
H3073 C3061 0.929 . S
H3074 C3062 0.960 . S
H3075 C3062 0.962 . S
H3076 C3062 0.960 . S
H3077 C3063 0.961 . S
H3078 C3063 0.961 . S
H3079 C3063 0.961 . S
H3080 C3064 0.931 . S
H3081 C3069 0.930 . S
H3082 C3070 0.956 . S
H3083 C3070 0.961 . S
H3084 C3070 0.961 . S
H3085 C3071 0.958 . S
H3086 C3071 0.961 . S
H3087 C3071 0.960 . S
C3088 C3089 1.391 . S
C3088 C3090 1.394 . S
C3088 H3104 0.931 . S
C3089 C3088 1.391 . S
C3089 C3093 1.376 . S
C3090 C3088 1.394 . S
C3090 C3091 1.369 . S
C3090 C3094 1.531 . S
C3091 C3090 1.369 . S
C3091 C3092 1.410 . S
C3091 C3099 1.503 . S
C3092 C3091 1.410 . S
C3092 C3093 1.392 . S
C3092 C3095 1.511 . S
C3093 C3089 1.376 . S
C3093 C3092 1.392 . S
C3093 H3105 0.929 . S
C3094 C3090 1.531 . S
C3094 H3106 0.960 . S
C3094 H3107 0.962 . S
C3094 H3108 0.960 . S
C3095 C3092 1.511 . S
C3095 H3109 0.961 . S
C3095 H3110 0.961 . S
C3095 H3111 0.961 . S
C3096 C3097 1.370 . S
C3096 C3098 1.363 . S
C3096 H3112 0.931 . S
C3097 C3096 1.370 . S
C3097 C3101 1.408 . S
C3098 C3096 1.363 . S
C3098 C3099 1.370 . S
C3098 C3102 1.524 . S
C3099 C3091 1.503 . S
C3099 C3098 1.370 . S
C3099 C3100 1.403 . S
C3100 C3099 1.403 . S
C3100 C3101 1.404 . S
C3100 C3103 1.539 . S
C3101 C3097 1.408 . S
C3101 C3100 1.404 . S
C3101 H3113 0.930 . S
C3102 C3098 1.524 . S
C3102 H3114 0.956 . S
C3102 H3115 0.961 . S
C3102 H3116 0.961 . S
C3103 C3100 1.539 . S
C3103 H3117 0.958 . S
C3103 H3118 0.961 . S
C3103 H3119 0.960 . S
H3104 C3088 0.931 . S
H3105 C3093 0.929 . S
H3106 C3094 0.960 . S
H3107 C3094 0.962 . S
H3108 C3094 0.960 . S
H3109 C3095 0.961 . S
H3110 C3095 0.961 . S
H3111 C3095 0.961 . S
H3112 C3096 0.931 . S
H3113 C3101 0.930 . S
H3114 C3102 0.956 . S
H3115 C3102 0.961 . S
H3116 C3102 0.961 . S
H3117 C3103 0.958 . S
H3118 C3103 0.961 . S
H3119 C3103 0.960 . S
C3120 C3121 1.391 . S
C3120 C3122 1.394 . S
C3120 H3136 0.931 . S
C3121 C3120 1.391 . S
C3121 C3125 1.376 . S
C3122 C3120 1.394 . S
C3122 C3123 1.369 . S
C3122 C3126 1.531 . S
C3123 C3122 1.369 . S
C3123 C3124 1.410 . S
C3123 C3131 1.503 . S
C3124 C3123 1.410 . S
C3124 C3125 1.392 . S
C3124 C3127 1.511 . S
C3125 C3121 1.376 . S
C3125 C3124 1.392 . S
C3125 H3137 0.929 . S
C3126 C3122 1.531 . S
C3126 H3138 0.960 . S
C3126 H3139 0.962 . S
C3126 H3140 0.960 . S
C3127 C3124 1.511 . S
C3127 H3141 0.961 . S
C3127 H3142 0.961 . S
C3127 H3143 0.961 . S
C3128 C3129 1.370 1_565 S
C3128 C3130 1.363 . S
C3128 H3144 0.931 . S
C3129 C3128 1.370 1_545 S
C3129 C3133 1.408 . S
C3130 C3128 1.363 . S
C3130 C3131 1.370 . S
C3130 C3134 1.524 . S
C3131 C3123 1.503 . S
C3131 C3130 1.370 . S
C3131 C3132 1.403 1_565 S
C3132 C3131 1.403 1_545 S
C3132 C3133 1.404 . S
C3132 C3135 1.539 . S
C3133 C3129 1.408 . S
C3133 C3132 1.404 . S
C3133 H3145 0.930 . S
C3134 C3130 1.524 . S
C3134 H3146 0.956 . S
C3134 H3147 0.961 . S
C3134 H3148 0.961 . S
C3135 C3132 1.539 . S
C3135 H3149 0.958 . S
C3135 H3150 0.961 . S
C3135 H3151 0.960 . S
H3136 C3120 0.931 . S
H3137 C3125 0.929 . S
H3138 C3126 0.960 . S
H3139 C3126 0.962 . S
H3140 C3126 0.960 . S
H3141 C3127 0.961 . S
H3142 C3127 0.961 . S
H3143 C3127 0.961 . S
H3144 C3128 0.931 . S
H3145 C3133 0.930 . S
H3146 C3134 0.956 . S
H3147 C3134 0.961 . S
H3148 C3134 0.961 . S
H3149 C3135 0.958 . S
H3150 C3135 0.961 . S
H3151 C3135 0.960 . S
C3152 C3153 1.391 . S
C3152 C3154 1.394 . S
C3152 H3168 0.931 . S
C3153 C3152 1.391 . S
C3153 C3157 1.376 . S
C3154 C3152 1.394 . S
C3154 C3155 1.369 . S
C3154 C3158 1.531 . S
C3155 C3154 1.369 . S
C3155 C3156 1.410 . S
C3155 C3163 1.503 . S
C3156 C3155 1.410 . S
C3156 C3157 1.392 . S
C3156 C3159 1.511 . S
C3157 C3153 1.376 . S
C3157 C3156 1.392 . S
C3157 H3169 0.929 . S
C3158 C3154 1.531 . S
C3158 H3170 0.960 . S
C3158 H3171 0.962 . S
C3158 H3172 0.960 . S
C3159 C3156 1.511 . S
C3159 H3173 0.961 . S
C3159 H3174 0.961 . S
C3159 H3175 0.961 . S
C3160 C3161 1.370 . S
C3160 C3162 1.363 . S
C3160 H3176 0.931 . S
C3161 C3160 1.370 . S
C3161 C3165 1.408 . S
C3162 C3160 1.363 . S
C3162 C3163 1.370 . S
C3162 C3166 1.524 . S
C3163 C3155 1.503 . S
C3163 C3162 1.370 . S
C3163 C3164 1.403 . S
C3164 C3163 1.403 . S
C3164 C3165 1.404 . S
C3164 C3167 1.539 . S
C3165 C3161 1.408 . S
C3165 C3164 1.404 . S
C3165 H3177 0.930 . S
C3166 C3162 1.524 . S
C3166 H3178 0.956 . S
C3166 H3179 0.961 . S
C3166 H3180 0.961 . S
C3167 C3164 1.539 . S
C3167 H3181 0.958 . S
C3167 H3182 0.961 . S
C3167 H3183 0.960 . S
H3168 C3152 0.931 . S
H3169 C3157 0.929 . S
H3170 C3158 0.960 . S
H3171 C3158 0.962 . S
H3172 C3158 0.960 . S
H3173 C3159 0.961 . S
H3174 C3159 0.961 . S
H3175 C3159 0.961 . S
H3176 C3160 0.931 . S
H3177 C3165 0.930 . S
H3178 C3166 0.956 . S
H3179 C3166 0.961 . S
H3180 C3166 0.961 . S
H3181 C3167 0.958 . S
H3182 C3167 0.961 . S
H3183 C3167 0.960 . S
C3184 C3185 1.391 . S
C3184 C3186 1.394 . S
C3184 H3200 0.931 . S
C3185 C3184 1.391 . S
C3185 C3189 1.376 . S
C3186 C3184 1.394 . S
C3186 C3187 1.369 . S
C3186 C3190 1.531 . S
C3187 C3186 1.369 . S
C3187 C3188 1.410 . S
C3187 C3195 1.503 . S
C3188 C3187 1.410 . S
C3188 C3189 1.392 . S
C3188 C3191 1.511 . S
C3189 C3185 1.376 . S
C3189 C3188 1.392 . S
C3189 H3201 0.929 . S
C3190 C3186 1.531 . S
C3190 H3202 0.960 . S
C3190 H3203 0.962 . S
C3190 H3204 0.960 . S
C3191 C3188 1.511 . S
C3191 H3205 0.961 . S
C3191 H3206 0.961 . S
C3191 H3207 0.961 . S
C3192 C3193 1.370 . S
C3192 C3194 1.363 . S
C3192 H3208 0.931 . S
C3193 C3192 1.370 . S
C3193 C3197 1.408 . S
C3194 C3192 1.363 . S
C3194 C3195 1.370 . S
C3194 C3198 1.524 . S
C3195 C3187 1.503 . S
C3195 C3194 1.370 . S
C3195 C3196 1.403 . S
C3196 C3195 1.403 . S
C3196 C3197 1.404 . S
C3196 C3199 1.539 . S
C3197 C3193 1.408 . S
C3197 C3196 1.404 . S
C3197 H3209 0.930 . S
C3198 C3194 1.524 . S
C3198 H3210 0.956 . S
C3198 H3211 0.961 . S
C3198 H3212 0.961 . S
C3199 C3196 1.539 . S
C3199 H3213 0.958 . S
C3199 H3214 0.961 . S
C3199 H3215 0.960 . S
H3200 C3184 0.931 . S
H3201 C3189 0.929 . S
H3202 C3190 0.960 . S
H3203 C3190 0.962 . S
H3204 C3190 0.960 . S
H3205 C3191 0.961 . S
H3206 C3191 0.961 . S
H3207 C3191 0.961 . S
H3208 C3192 0.931 . S
H3209 C3197 0.930 . S
H3210 C3198 0.956 . S
H3211 C3198 0.961 . S
H3212 C3198 0.961 . S
H3213 C3199 0.958 . S
H3214 C3199 0.961 . S
H3215 C3199 0.960 . S
C3216 C3217 1.391 . S
C3216 C3218 1.394 . S
C3216 H3232 0.931 . S
C3217 C3216 1.391 . S
C3217 C3221 1.376 . S
C3218 C3216 1.394 . S
C3218 C3219 1.369 . S
C3218 C3222 1.531 . S
C3219 C3218 1.369 . S
C3219 C3220 1.410 . S
C3219 C3227 1.503 . S
C3220 C3219 1.410 . S
C3220 C3221 1.392 . S
C3220 C3223 1.511 . S
C3221 C3217 1.376 . S
C3221 C3220 1.392 . S
C3221 H3233 0.929 . S
C3222 C3218 1.531 . S
C3222 H3234 0.960 . S
C3222 H3235 0.962 . S
C3222 H3236 0.960 . S
C3223 C3220 1.511 . S
C3223 H3237 0.961 . S
C3223 H3238 0.961 . S
C3223 H3239 0.961 . S
C3224 C3225 1.370 . S
C3224 C3226 1.363 . S
C3224 H3240 0.931 . S
C3225 C3224 1.370 . S
C3225 C3229 1.408 . S
C3226 C3224 1.363 . S
C3226 C3227 1.370 . S
C3226 C3230 1.524 . S
C3227 C3219 1.503 . S
C3227 C3226 1.370 . S
C3227 C3228 1.403 . S
C3228 C3227 1.403 . S
C3228 C3229 1.404 . S
C3228 C3231 1.539 . S
C3229 C3225 1.408 . S
C3229 C3228 1.404 . S
C3229 H3241 0.930 . S
C3230 C3226 1.524 . S
C3230 H3242 0.956 . S
C3230 H3243 0.961 . S
C3230 H3244 0.961 . S
C3231 C3228 1.539 . S
C3231 H3245 0.958 . S
C3231 H3246 0.961 . S
C3231 H3247 0.960 . S
H3232 C3216 0.931 . S
H3233 C3221 0.929 . S
H3234 C3222 0.960 . S
H3235 C3222 0.962 . S
H3236 C3222 0.960 . S
H3237 C3223 0.961 . S
H3238 C3223 0.961 . S
H3239 C3223 0.961 . S
H3240 C3224 0.931 . S
H3241 C3229 0.930 . S
H3242 C3230 0.956 . S
H3243 C3230 0.961 . S
H3244 C3230 0.961 . S
H3245 C3231 0.958 . S
H3246 C3231 0.961 . S
H3247 C3231 0.960 . S
C3248 C3249 1.391 . S
C3248 C3250 1.394 . S
C3248 H3264 0.931 . S
C3249 C3248 1.391 . S
C3249 C3253 1.376 . S
C3250 C3248 1.394 . S
C3250 C3251 1.369 . S
C3250 C3254 1.531 . S
C3251 C3250 1.369 . S
C3251 C3252 1.410 . S
C3251 C3259 1.503 . S
C3252 C3251 1.410 . S
C3252 C3253 1.392 . S
C3252 C3255 1.511 . S
C3253 C3249 1.376 . S
C3253 C3252 1.392 . S
C3253 H3265 0.929 . S
C3254 C3250 1.531 . S
C3254 H3266 0.960 . S
C3254 H3267 0.962 . S
C3254 H3268 0.960 . S
C3255 C3252 1.511 . S
C3255 H3269 0.961 . S
C3255 H3270 0.961 . S
C3255 H3271 0.961 . S
C3256 C3257 1.370 . S
C3256 C3258 1.363 . S
C3256 H3272 0.931 . S
C3257 C3256 1.370 . S
C3257 C3261 1.408 . S
C3258 C3256 1.363 . S
C3258 C3259 1.370 1_565 S
C3258 C3262 1.524 . S
C3259 C3251 1.503 . S
C3259 C3258 1.370 1_545 S
C3259 C3260 1.403 . S
C3260 C3259 1.403 . S
C3260 C3261 1.404 1_545 S
C3260 C3263 1.539 . S
C3261 C3257 1.408 . S
C3261 C3260 1.404 1_565 S
C3261 H3273 0.930 . S
C3262 C3258 1.524 . S
C3262 H3274 0.956 1_565 S
C3262 H3275 0.961 . S
C3262 H3276 0.961 . S
C3263 C3260 1.539 . S
C3263 H3277 0.958 . S
C3263 H3278 0.961 . S
C3263 H3279 0.960 . S
H3264 C3248 0.931 . S
H3265 C3253 0.929 . S
H3266 C3254 0.960 . S
H3267 C3254 0.962 . S
H3268 C3254 0.960 . S
H3269 C3255 0.961 . S
H3270 C3255 0.961 . S
H3271 C3255 0.961 . S
H3272 C3256 0.931 . S
H3273 C3261 0.930 . S
H3274 C3262 0.956 1_545 S
H3275 C3262 0.961 . S
H3276 C3262 0.961 . S
H3277 C3263 0.958 . S
H3278 C3263 0.961 . S
H3279 C3263 0.960 . S
C3280 C3281 1.391 . S
C3280 C3282 1.394 . S
C3280 H3296 0.931 . S
C3281 C3280 1.391 . S
C3281 C3285 1.376 . S
C3282 C3280 1.394 . S
C3282 C3283 1.369 . S
C3282 C3286 1.531 . S
C3283 C3282 1.369 . S
C3283 C3284 1.410 . S
C3283 C3291 1.503 . S
C3284 C3283 1.410 . S
C3284 C3285 1.392 . S
C3284 C3287 1.511 . S
C3285 C3281 1.376 . S
C3285 C3284 1.392 . S
C3285 H3297 0.929 . S
C3286 C3282 1.531 . S
C3286 H3298 0.960 . S
C3286 H3299 0.962 . S
C3286 H3300 0.960 . S
C3287 C3284 1.511 . S
C3287 H3301 0.961 . S
C3287 H3302 0.961 . S
C3287 H3303 0.961 . S
C3288 C3289 1.370 . S
C3288 C3290 1.363 . S
C3288 H3304 0.931 . S
C3289 C3288 1.370 . S
C3289 C3293 1.408 . S
C3290 C3288 1.363 . S
C3290 C3291 1.370 . S
C3290 C3294 1.524 . S
C3291 C3283 1.503 . S
C3291 C3290 1.370 . S
C3291 C3292 1.403 . S
C3292 C3291 1.403 . S
C3292 C3293 1.404 . S
C3292 C3295 1.539 . S
C3293 C3289 1.408 . S
C3293 C3292 1.404 . S
C3293 H3305 0.930 . S
C3294 C3290 1.524 . S
C3294 H3306 0.956 . S
C3294 H3307 0.961 . S
C3294 H3308 0.961 . S
C3295 C3292 1.539 . S
C3295 H3309 0.958 . S
C3295 H3310 0.961 . S
C3295 H3311 0.960 . S
H3296 C3280 0.931 . S
H3297 C3285 0.929 . S
H3298 C3286 0.960 . S
H3299 C3286 0.962 . S
H3300 C3286 0.960 . S
H3301 C3287 0.961 . S
H3302 C3287 0.961 . S
H3303 C3287 0.961 . S
H3304 C3288 0.931 . S
H3305 C3293 0.930 . S
H3306 C3294 0.956 . S
H3307 C3294 0.961 . S
H3308 C3294 0.961 . S
H3309 C3295 0.958 . S
H3310 C3295 0.961 . S
H3311 C3295 0.960 . S
C3312 C3313 1.391 . S
C3312 C3314 1.394 . S
C3312 H3328 0.931 . S
C3313 C3312 1.391 . S
C3313 C3317 1.376 . S
C3314 C3312 1.394 . S
C3314 C3315 1.369 . S
C3314 C3318 1.531 . S
C3315 C3314 1.369 . S
C3315 C3316 1.410 . S
C3315 C3323 1.503 . S
C3316 C3315 1.410 . S
C3316 C3317 1.392 . S
C3316 C3319 1.511 . S
C3317 C3313 1.376 . S
C3317 C3316 1.392 . S
C3317 H3329 0.929 . S
C3318 C3314 1.531 . S
C3318 H3330 0.960 . S
C3318 H3331 0.962 . S
C3318 H3332 0.960 . S
C3319 C3316 1.511 . S
C3319 H3333 0.961 . S
C3319 H3334 0.961 . S
C3319 H3335 0.961 . S
C3320 C3321 1.370 . S
C3320 C3322 1.363 . S
C3320 H3336 0.931 . S
C3321 C3320 1.370 . S
C3321 C3325 1.408 . S
C3322 C3320 1.363 . S
C3322 C3323 1.370 . S
C3322 C3326 1.524 . S
C3323 C3315 1.503 . S
C3323 C3322 1.370 . S
C3323 C3324 1.403 . S
C3324 C3323 1.403 . S
C3324 C3325 1.404 . S
C3324 C3327 1.539 . S
C3325 C3321 1.408 . S
C3325 C3324 1.404 . S
C3325 H3337 0.930 . S
C3326 C3322 1.524 . S
C3326 H3338 0.956 . S
C3326 H3339 0.961 . S
C3326 H3340 0.961 . S
C3327 C3324 1.539 . S
C3327 H3341 0.958 . S
C3327 H3342 0.961 . S
C3327 H3343 0.960 . S
H3328 C3312 0.931 . S
H3329 C3317 0.929 . S
H3330 C3318 0.960 . S
H3331 C3318 0.962 . S
H3332 C3318 0.960 . S
H3333 C3319 0.961 . S
H3334 C3319 0.961 . S
H3335 C3319 0.961 . S
H3336 C3320 0.931 . S
H3337 C3325 0.930 . S
H3338 C3326 0.956 . S
H3339 C3326 0.961 . S
H3340 C3326 0.961 . S
H3341 C3327 0.958 . S
H3342 C3327 0.961 . S
H3343 C3327 0.960 . S
C3344 C3345 1.391 . S
C3344 C3346 1.394 . S
C3344 H3360 0.931 . S
C3345 C3344 1.391 . S
C3345 C3349 1.376 . S
C3346 C3344 1.394 . S
C3346 C3347 1.369 . S
C3346 C3350 1.531 . S
C3347 C3346 1.369 . S
C3347 C3348 1.410 . S
C3347 C3355 1.503 . S
C3348 C3347 1.410 . S
C3348 C3349 1.392 . S
C3348 C3351 1.511 . S
C3349 C3345 1.376 . S
C3349 C3348 1.392 . S
C3349 H3361 0.929 . S
C3350 C3346 1.531 . S
C3350 H3362 0.960 . S
C3350 H3363 0.962 . S
C3350 H3364 0.960 . S
C3351 C3348 1.511 . S
C3351 H3365 0.961 . S
C3351 H3366 0.961 . S
C3351 H3367 0.961 1_455 S
C3352 C3353 1.370 . S
C3352 C3354 1.363 . S
C3352 H3368 0.931 . S
C3353 C3352 1.370 . S
C3353 C3357 1.408 . S
C3354 C3352 1.363 . S
C3354 C3355 1.370 . S
C3354 C3358 1.524 . S
C3355 C3347 1.503 . S
C3355 C3354 1.370 . S
C3355 C3356 1.403 . S
C3356 C3355 1.403 . S
C3356 C3357 1.404 . S
C3356 C3359 1.539 . S
C3357 C3353 1.408 . S
C3357 C3356 1.404 . S
C3357 H3369 0.930 . S
C3358 C3354 1.524 . S
C3358 H3370 0.956 . S
C3358 H3371 0.961 . S
C3358 H3372 0.961 . S
C3359 C3356 1.539 . S
C3359 H3373 0.958 . S
C3359 H3374 0.961 1_455 S
C3359 H3375 0.953 1_455 S
H3360 C3344 0.931 . S
H3361 C3349 0.929 . S
H3362 C3350 0.960 . S
H3363 C3350 0.962 . S
H3364 C3350 0.960 . S
H3365 C3351 0.961 . S
H3366 C3351 0.961 . S
H3367 C3351 0.961 1_655 S
H3368 C3352 0.931 . S
H3369 C3357 0.930 . S
H3370 C3358 0.956 . S
H3371 C3358 0.961 . S
H3372 C3358 0.961 . S
H3373 C3359 0.958 . S
H3374 C3359 0.961 1_655 S
H3375 C3359 0.953 1_655 S
C3376 C3377 1.391 . S
C3376 C3378 1.394 . S
C3376 H3392 0.931 . S
C3377 C3376 1.391 . S
C3377 C3381 1.376 . S
C3378 C3376 1.394 . S
C3378 C3379 1.369 . S
C3378 C3382 1.531 . S
C3379 C3378 1.369 . S
C3379 C3380 1.410 . S
C3379 C3387 1.503 . S
C3380 C3379 1.410 . S
C3380 C3381 1.392 . S
C3380 C3383 1.511 . S
C3381 C3377 1.376 . S
C3381 C3380 1.392 . S
C3381 H3393 0.929 . S
C3382 C3378 1.531 . S
C3382 H3394 0.960 . S
C3382 H3395 0.962 . S
C3382 H3396 0.960 . S
C3383 C3380 1.511 . S
C3383 H3397 0.961 . S
C3383 H3398 0.961 . S
C3383 H3399 0.961 . S
C3384 C3385 1.370 . S
C3384 C3386 1.363 . S
C3384 H3400 0.931 . S
C3385 C3384 1.370 . S
C3385 C3389 1.408 . S
C3386 C3384 1.363 . S
C3386 C3387 1.370 . S
C3386 C3390 1.524 . S
C3387 C3379 1.503 . S
C3387 C3386 1.370 . S
C3387 C3388 1.403 . S
C3388 C3387 1.403 . S
C3388 C3389 1.404 . S
C3388 C3391 1.539 . S
C3389 C3385 1.408 . S
C3389 C3388 1.404 . S
C3389 H3401 0.930 . S
C3390 C3386 1.524 . S
C3390 H3402 0.956 . S
C3390 H3403 0.961 . S
C3390 H3404 0.961 . S
C3391 C3388 1.539 . S
C3391 H3405 0.958 . S
C3391 H3406 0.961 . S
C3391 H3407 0.960 . S
H3392 C3376 0.931 . S
H3393 C3381 0.929 . S
H3394 C3382 0.960 . S
H3395 C3382 0.962 . S
H3396 C3382 0.960 . S
H3397 C3383 0.961 . S
H3398 C3383 0.961 . S
H3399 C3383 0.961 . S
H3400 C3384 0.931 . S
H3401 C3389 0.930 . S
H3402 C3390 0.956 . S
H3403 C3390 0.961 . S
H3404 C3390 0.961 . S
H3405 C3391 0.958 . S
H3406 C3391 0.961 . S
H3407 C3391 0.960 . S
C3408 C3409 1.391 . S
C3408 C3410 1.394 . S
C3408 H3424 0.931 . S
C3409 C3408 1.391 . S
C3409 C3413 1.376 . S
C3410 C3408 1.394 . S
C3410 C3411 1.369 . S
C3410 C3414 1.531 . S
C3411 C3410 1.369 . S
C3411 C3412 1.410 . S
C3411 C3419 1.503 . S
C3412 C3411 1.410 . S
C3412 C3413 1.392 . S
C3412 C3415 1.511 1_554 S
C3413 C3409 1.376 . S
C3413 C3412 1.392 . S
C3413 H3425 0.929 1_554 S
C3414 C3410 1.531 . S
C3414 H3426 0.960 . S
C3414 H3427 0.962 . S
C3414 H3428 0.960 . S
C3415 C3412 1.511 1_556 S
C3415 H3429 0.961 . S
C3415 H3430 0.961 1_556 S
C3415 H3431 0.961 . S
C3416 C3417 1.370 . S
C3416 C3418 1.363 . S
C3416 H3432 0.931 . S
C3417 C3416 1.370 . S
C3417 C3421 1.408 . S
C3418 C3416 1.363 . S
C3418 C3419 1.370 . S
C3418 C3422 1.524 . S
C3419 C3411 1.503 . S
C3419 C3418 1.370 . S
C3419 C3420 1.403 . S
C3420 C3419 1.403 . S
C3420 C3421 1.404 . S
C3420 C3423 1.509 1_554 S
C3421 C3417 1.408 . S
C3421 C3420 1.404 . S
C3421 H3433 0.930 . S
C3422 C3418 1.524 . S
C3422 H3434 0.956 . S
C3422 H3435 0.961 . S
C3422 H3436 0.961 . S
C3423 C3420 1.509 1_556 S
C3423 H3437 0.939 1_556 S
C3423 H3438 0.985 . S
C3423 H3439 0.987 . S
H3424 C3408 0.931 . S
H3425 C3413 0.929 1_556 S
H3426 C3414 0.960 . S
H3427 C3414 0.962 . S
H3428 C3414 0.960 . S
H3429 C3415 0.961 . S
H3430 C3415 0.961 1_554 S
H3431 C3415 0.961 . S
H3432 C3416 0.931 . S
H3433 C3421 0.930 . S
H3434 C3422 0.956 . S
H3435 C3422 0.961 . S
H3436 C3422 0.961 . S
H3437 C3423 0.939 1_554 S
H3438 C3423 0.985 . S
H3439 C3423 0.987 . S
C3440 C3441 1.391 . S
C3440 C3442 1.394 . S
C3440 H3456 0.931 . S
C3441 C3440 1.391 . S
C3441 C3445 1.376 . S
C3442 C3440 1.394 . S
C3442 C3443 1.369 . S
C3442 C3446 1.531 . S
C3443 C3442 1.369 . S
C3443 C3444 1.410 . S
C3443 C3451 1.503 . S
C3444 C3443 1.410 . S
C3444 C3445 1.392 . S
C3444 C3447 1.511 . S
C3445 C3441 1.376 . S
C3445 C3444 1.392 . S
C3445 H3457 0.929 . S
C3446 C3442 1.531 . S
C3446 H3458 0.960 . S
C3446 H3459 0.962 . S
C3446 H3460 0.960 . S
C3447 C3444 1.511 . S
C3447 H3461 0.961 . S
C3447 H3462 0.961 . S
C3447 H3463 0.961 . S
C3448 C3449 1.370 . S
C3448 C3450 1.363 . S
C3448 H3464 0.931 . S
C3449 C3448 1.370 . S
C3449 C3453 1.408 . S
C3450 C3448 1.363 . S
C3450 C3451 1.370 . S
C3450 C3454 1.524 . S
C3451 C3443 1.503 . S
C3451 C3450 1.370 . S
C3451 C3452 1.403 . S
C3452 C3451 1.403 . S
C3452 C3453 1.404 . S
C3452 C3455 1.539 . S
C3453 C3449 1.408 . S
C3453 C3452 1.404 . S
C3453 H3465 0.930 . S
C3454 C3450 1.524 . S
C3454 H3466 0.956 . S
C3454 H3467 0.961 . S
C3454 H3468 0.961 . S
C3455 C3452 1.539 . S
C3455 H3469 0.958 . S
C3455 H3470 0.961 . S
C3455 H3471 0.960 . S
H3456 C3440 0.931 . S
H3457 C3445 0.929 . S
H3458 C3446 0.960 . S
H3459 C3446 0.962 . S
H3460 C3446 0.960 . S
H3461 C3447 0.961 . S
H3462 C3447 0.961 . S
H3463 C3447 0.961 . S
H3464 C3448 0.931 . S
H3465 C3453 0.930 . S
H3466 C3454 0.956 . S
H3467 C3454 0.961 . S
H3468 C3454 0.961 . S
H3469 C3455 0.958 . S
H3470 C3455 0.961 . S
H3471 C3455 0.960 . S
C3472 C3473 1.391 . S
C3472 C3474 1.394 . S
C3472 H3488 0.931 . S
C3473 C3472 1.391 . S
C3473 C3477 1.376 . S
C3474 C3472 1.394 . S
C3474 C3475 1.369 . S
C3474 C3478 1.531 . S
C3475 C3474 1.369 . S
C3475 C3476 1.410 . S
C3475 C3483 1.503 . S
C3476 C3475 1.410 . S
C3476 C3477 1.392 . S
C3476 C3479 1.511 . S
C3477 C3473 1.376 . S
C3477 C3476 1.392 . S
C3477 H3489 0.929 . S
C3478 C3474 1.531 . S
C3478 H3490 0.960 . S
C3478 H3491 0.962 . S
C3478 H3492 0.960 . S
C3479 C3476 1.511 . S
C3479 H3493 0.961 . S
C3479 H3494 0.961 . S
C3479 H3495 0.961 . S
C3480 C3481 1.370 . S
C3480 C3482 1.363 . S
C3480 H3496 0.931 . S
C3481 C3480 1.370 . S
C3481 C3485 1.408 . S
C3482 C3480 1.363 . S
C3482 C3483 1.370 . S
C3482 C3486 1.524 . S
C3483 C3475 1.503 . S
C3483 C3482 1.370 . S
C3483 C3484 1.403 . S
C3484 C3483 1.403 . S
C3484 C3485 1.404 . S
C3484 C3487 1.539 . S
C3485 C3481 1.408 . S
C3485 C3484 1.404 . S
C3485 H3497 0.930 . S
C3486 C3482 1.524 . S
C3486 H3498 0.956 . S
C3486 H3499 0.961 . S
C3486 H3500 0.961 . S
C3487 C3484 1.539 . S
C3487 H3501 0.958 . S
C3487 H3502 0.961 . S
C3487 H3503 0.960 . S
H3488 C3472 0.931 . S
H3489 C3477 0.929 . S
H3490 C3478 0.960 . S
H3491 C3478 0.962 . S
H3492 C3478 0.960 . S
H3493 C3479 0.961 . S
H3494 C3479 0.961 . S
H3495 C3479 0.961 . S
H3496 C3480 0.931 . S
H3497 C3485 0.930 . S
H3498 C3486 0.956 . S
H3499 C3486 0.961 . S
H3500 C3486 0.961 . S
H3501 C3487 0.958 . S
H3502 C3487 0.961 . S
H3503 C3487 0.960 . S
C3504 C3505 1.391 . S
C3504 C3506 1.394 . S
C3504 H3520 0.931 . S
C3505 C3504 1.391 . S
C3505 C3509 1.376 . S
C3506 C3504 1.394 . S
C3506 C3507 1.369 . S
C3506 C3510 1.531 . S
C3507 C3506 1.369 . S
C3507 C3508 1.410 . S
C3507 C3515 1.503 . S
C3508 C3507 1.410 . S
C3508 C3509 1.392 . S
C3508 C3511 1.511 . S
C3509 C3505 1.376 . S
C3509 C3508 1.392 . S
C3509 H3521 0.929 . S
C3510 C3506 1.531 . S
C3510 H3522 0.960 . S
C3510 H3523 0.962 . S
C3510 H3524 0.960 . S
C3511 C3508 1.511 . S
C3511 H3525 0.961 . S
C3511 H3526 0.961 . S
C3511 H3527 0.961 . S
C3512 C3513 1.370 . S
C3512 C3514 1.363 . S
C3512 H3528 0.931 . S
C3513 C3512 1.370 . S
C3513 C3517 1.408 . S
C3514 C3512 1.363 . S
C3514 C3515 1.370 . S
C3514 C3518 1.524 . S
C3515 C3507 1.503 . S
C3515 C3514 1.370 . S
C3515 C3516 1.403 . S
C3516 C3515 1.403 . S
C3516 C3517 1.404 . S
C3516 C3519 1.539 . S
C3517 C3513 1.408 . S
C3517 C3516 1.404 . S
C3517 H3529 0.930 . S
C3518 C3514 1.524 . S
C3518 H3530 0.956 . S
C3518 H3531 0.961 . S
C3518 H3532 0.961 . S
C3519 C3516 1.539 . S
C3519 H3533 0.958 . S
C3519 H3534 0.961 . S
C3519 H3535 0.960 . S
H3520 C3504 0.931 . S
H3521 C3509 0.929 . S
H3522 C3510 0.960 . S
H3523 C3510 0.962 . S
H3524 C3510 0.960 . S
H3525 C3511 0.961 . S
H3526 C3511 0.961 . S
H3527 C3511 0.961 . S
H3528 C3512 0.931 . S
H3529 C3517 0.930 . S
H3530 C3518 0.956 . S
H3531 C3518 0.961 . S
H3532 C3518 0.961 . S
H3533 C3519 0.958 . S
H3534 C3519 0.961 . S
H3535 C3519 0.960 . S
C3536 C3537 1.391 . S
C3536 C3538 1.394 . S
C3536 H3552 0.931 . S
C3537 C3536 1.391 . S
C3537 C3541 1.376 . S
C3538 C3536 1.394 . S
C3538 C3539 1.369 . S
C3538 C3542 1.531 . S
C3539 C3538 1.369 . S
C3539 C3540 1.410 . S
C3539 C3547 1.503 . S
C3540 C3539 1.410 . S
C3540 C3541 1.392 . S
C3540 C3543 1.511 . S
C3541 C3537 1.376 . S
C3541 C3540 1.392 . S
C3541 H3553 0.929 . S
C3542 C3538 1.531 . S
C3542 H3554 0.960 . S
C3542 H3555 0.962 . S
C3542 H3556 0.960 . S
C3543 C3540 1.511 . S
C3543 H3557 0.961 . S
C3543 H3558 0.961 . S
C3543 H3559 0.961 . S
C3544 C3545 1.370 . S
C3544 C3546 1.363 . S
C3544 H3560 0.931 . S
C3545 C3544 1.370 . S
C3545 C3549 1.408 . S
C3546 C3544 1.363 . S
C3546 C3547 1.370 . S
C3546 C3550 1.524 . S
C3547 C3539 1.503 . S
C3547 C3546 1.370 . S
C3547 C3548 1.403 . S
C3548 C3547 1.403 . S
C3548 C3549 1.404 . S
C3548 C3551 1.539 . S
C3549 C3545 1.408 . S
C3549 C3548 1.404 . S
C3549 H3561 0.930 . S
C3550 C3546 1.524 . S
C3550 H3562 0.956 . S
C3550 H3563 0.961 . S
C3550 H3564 0.961 . S
C3551 C3548 1.539 . S
C3551 H3565 0.958 . S
C3551 H3566 0.961 . S
C3551 H3567 0.960 . S
H3552 C3536 0.931 . S
H3553 C3541 0.929 . S
H3554 C3542 0.960 . S
H3555 C3542 0.962 . S
H3556 C3542 0.960 . S
H3557 C3543 0.961 . S
H3558 C3543 0.961 . S
H3559 C3543 0.961 . S
H3560 C3544 0.931 . S
H3561 C3549 0.930 . S
H3562 C3550 0.956 . S
H3563 C3550 0.961 . S
H3564 C3550 0.961 . S
H3565 C3551 0.958 . S
H3566 C3551 0.961 . S
H3567 C3551 0.960 . S
C3568 C3569 1.391 . S
C3568 C3570 1.394 . S
C3568 H3584 0.931 . S
C3569 C3568 1.391 . S
C3569 C3573 1.376 . S
C3570 C3568 1.394 . S
C3570 C3571 1.369 . S
C3570 C3574 1.531 . S
C3571 C3570 1.369 . S
C3571 C3572 1.410 . S
C3571 C3579 1.503 . S
C3572 C3571 1.410 . S
C3572 C3573 1.392 . S
C3572 C3575 1.511 . S
C3573 C3569 1.376 . S
C3573 C3572 1.392 . S
C3573 H3585 0.929 . S
C3574 C3570 1.531 . S
C3574 H3586 0.960 . S
C3574 H3587 0.962 . S
C3574 H3588 0.960 . S
C3575 C3572 1.511 . S
C3575 H3589 0.961 . S
C3575 H3590 0.961 . S
C3575 H3591 0.961 . S
C3576 C3577 1.370 . S
C3576 C3578 1.363 . S
C3576 H3592 0.931 . S
C3577 C3576 1.370 . S
C3577 C3581 1.408 . S
C3578 C3576 1.363 . S
C3578 C3579 1.370 . S
C3578 C3582 1.524 . S
C3579 C3571 1.503 . S
C3579 C3578 1.370 . S
C3579 C3580 1.403 . S
C3580 C3579 1.403 . S
C3580 C3581 1.404 . S
C3580 C3583 1.539 . S
C3581 C3577 1.408 . S
C3581 C3580 1.404 . S
C3581 H3593 0.930 . S
C3582 C3578 1.524 . S
C3582 H3594 0.956 . S
C3582 H3595 0.961 . S
C3582 H3596 0.961 . S
C3583 C3580 1.539 . S
C3583 H3597 0.958 . S
C3583 H3598 0.961 . S
C3583 H3599 0.960 . S
H3584 C3568 0.931 . S
H3585 C3573 0.929 . S
H3586 C3574 0.960 . S
H3587 C3574 0.962 . S
H3588 C3574 0.960 . S
H3589 C3575 0.961 . S
H3590 C3575 0.961 . S
H3591 C3575 0.961 . S
H3592 C3576 0.931 . S
H3593 C3581 0.930 . S
H3594 C3582 0.956 . S
H3595 C3582 0.961 . S
H3596 C3582 0.961 . S
H3597 C3583 0.958 . S
H3598 C3583 0.961 . S
H3599 C3583 0.960 . S
C3600 C3601 1.391 . S
C3600 C3602 1.394 . S
C3600 H3616 0.931 . S
C3601 C3600 1.391 . S
C3601 C3605 1.376 1_655 S
C3602 C3600 1.394 . S
C3602 C3603 1.369 1_655 S
C3602 C3606 1.531 . S
C3603 C3602 1.369 1_455 S
C3603 C3604 1.410 . S
C3603 C3611 1.503 . S
C3604 C3603 1.410 . S
C3604 C3605 1.392 . S
C3604 C3607 1.511 . S
C3605 C3601 1.376 1_455 S
C3605 C3604 1.392 . S
C3605 H3617 0.929 . S
C3606 C3602 1.531 . S
C3606 H3618 0.960 . S
C3606 H3619 0.962 . S
C3606 H3620 0.960 . S
C3607 C3604 1.511 . S
C3607 H3621 0.961 . S
C3607 H3622 0.961 . S
C3607 H3623 0.961 . S
C3608 C3609 1.370 . S
C3608 C3610 1.354 1_554 S
C3608 H3624 0.931 . S
C3609 C3608 1.370 . S
C3609 C3613 1.408 1_554 S
C3610 C3608 1.354 1_556 S
C3610 C3611 1.380 . S
C3610 C3614 1.524 1_556 S
C3611 C3603 1.503 . S
C3611 C3610 1.380 . S
C3611 C3612 1.403 . S
C3612 C3611 1.403 . S
C3612 C3613 1.404 . S
C3612 C3615 1.539 . S
C3613 C3609 1.408 1_556 S
C3613 C3612 1.404 . S
C3613 H3625 0.930 . S
C3614 C3610 1.524 1_554 S
C3614 H3626 0.956 1_454 S
C3614 H3627 0.961 1_554 S
C3614 H3628 0.961 . S
C3615 C3612 1.539 . S
C3615 H3629 0.958 . S
C3615 H3630 0.961 . S
C3615 H3631 0.960 . S
H3616 C3600 0.931 . S
H3617 C3605 0.929 . S
H3618 C3606 0.960 . S
H3619 C3606 0.962 . S
H3620 C3606 0.960 . S
H3621 C3607 0.961 . S
H3622 C3607 0.961 . S
H3623 C3607 0.961 . S
H3624 C3608 0.931 . S
H3625 C3613 0.930 . S
H3626 C3614 0.956 1_656 S
H3627 C3614 0.961 1_556 S
H3628 C3614 0.961 . S
H3629 C3615 0.958 . S
H3630 C3615 0.961 . S
H3631 C3615 0.960 . S
C3632 C3633 1.391 . S
C3632 C3634 1.394 . S
C3632 H3648 0.931 . S
C3633 C3632 1.391 . S
C3633 C3637 1.376 . S
C3634 C3632 1.394 . S
C3634 C3635 1.369 . S
C3634 C3638 1.531 . S
C3635 C3634 1.369 . S
C3635 C3636 1.410 . S
C3635 C3643 1.503 . S
C3636 C3635 1.410 . S
C3636 C3637 1.392 . S
C3636 C3639 1.511 . S
C3637 C3633 1.376 . S
C3637 C3636 1.392 . S
C3637 H3649 0.929 . S
C3638 C3634 1.531 . S
C3638 H3650 0.960 . S
C3638 H3651 0.962 . S
C3638 H3652 0.960 . S
C3639 C3636 1.511 . S
C3639 H3653 0.961 . S
C3639 H3654 0.961 . S
C3639 H3655 0.961 . S
C3640 C3641 1.370 . S
C3640 C3642 1.363 . S
C3640 H3656 0.931 . S
C3641 C3640 1.370 . S
C3641 C3645 1.408 . S
C3642 C3640 1.363 . S
C3642 C3643 1.370 . S
C3642 C3646 1.524 . S
C3643 C3635 1.503 . S
C3643 C3642 1.370 . S
C3643 C3644 1.403 . S
C3644 C3643 1.403 . S
C3644 C3645 1.404 . S
C3644 C3647 1.539 . S
C3645 C3641 1.408 . S
C3645 C3644 1.404 . S
C3645 H3657 0.930 . S
C3646 C3642 1.524 . S
C3646 H3658 0.956 . S
C3646 H3659 0.961 . S
C3646 H3660 0.961 . S
C3647 C3644 1.539 . S
C3647 H3661 0.958 . S
C3647 H3662 0.961 . S
C3647 H3663 0.960 . S
H3648 C3632 0.931 . S
H3649 C3637 0.929 . S
H3650 C3638 0.960 . S
H3651 C3638 0.962 . S
H3652 C3638 0.960 . S
H3653 C3639 0.961 . S
H3654 C3639 0.961 . S
H3655 C3639 0.961 . S
H3656 C3640 0.931 . S
H3657 C3645 0.930 . S
H3658 C3646 0.956 . S
H3659 C3646 0.961 . S
H3660 C3646 0.961 . S
H3661 C3647 0.958 . S
H3662 C3647 0.961 . S
H3663 C3647 0.960 . S
C3664 C3665 1.391 . S
C3664 C3666 1.394 . S
C3664 H3680 0.931 . S
C3665 C3664 1.391 . S
C3665 C3669 1.376 . S
C3666 C3664 1.394 . S
C3666 C3667 1.369 . S
C3666 C3670 1.531 . S
C3667 C3666 1.369 . S
C3667 C3668 1.410 . S
C3667 C3675 1.503 . S
C3668 C3667 1.410 . S
C3668 C3669 1.392 . S
C3668 C3671 1.511 . S
C3669 C3665 1.376 . S
C3669 C3668 1.392 . S
C3669 H3681 0.929 . S
C3670 C3666 1.531 . S
C3670 H3682 0.960 . S
C3670 H3683 0.962 . S
C3670 H3684 0.960 . S
C3671 C3668 1.511 . S
C3671 H3685 0.961 . S
C3671 H3686 0.961 . S
C3671 H3687 0.961 . S
C3672 C3673 1.370 . S
C3672 C3674 1.363 . S
C3672 H3688 0.931 . S
C3673 C3672 1.370 . S
C3673 C3677 1.408 . S
C3674 C3672 1.363 . S
C3674 C3675 1.370 . S
C3674 C3678 1.524 . S
C3675 C3667 1.503 . S
C3675 C3674 1.370 . S
C3675 C3676 1.403 . S
C3676 C3675 1.403 . S
C3676 C3677 1.404 . S
C3676 C3679 1.539 . S
C3677 C3673 1.408 . S
C3677 C3676 1.404 . S
C3677 H3689 0.930 . S
C3678 C3674 1.524 . S
C3678 H3690 0.956 . S
C3678 H3691 0.961 . S
C3678 H3692 0.961 . S
C3679 C3676 1.539 . S
C3679 H3693 0.958 . S
C3679 H3694 0.961 . S
C3679 H3695 0.960 . S
H3680 C3664 0.931 . S
H3681 C3669 0.929 . S
H3682 C3670 0.960 . S
H3683 C3670 0.962 . S
H3684 C3670 0.960 . S
H3685 C3671 0.961 . S
H3686 C3671 0.961 . S
H3687 C3671 0.961 . S
H3688 C3672 0.931 . S
H3689 C3677 0.930 . S
H3690 C3678 0.956 . S
H3691 C3678 0.961 . S
H3692 C3678 0.961 . S
H3693 C3679 0.958 . S
H3694 C3679 0.961 . S
H3695 C3679 0.960 . S
C3696 C3697 1.391 . S
C3696 C3698 1.394 . S
C3696 H3712 0.931 . S
C3697 C3696 1.391 . S
C3697 C3701 1.376 . S
C3698 C3696 1.394 . S
C3698 C3699 1.369 . S
C3698 C3702 1.531 . S
C3699 C3698 1.369 . S
C3699 C3700 1.410 . S
C3699 C3707 1.503 . S
C3700 C3699 1.410 . S
C3700 C3701 1.392 . S
C3700 C3703 1.511 . S
C3701 C3697 1.376 . S
C3701 C3700 1.392 . S
C3701 H3713 0.929 . S
C3702 C3698 1.531 . S
C3702 H3714 0.960 . S
C3702 H3715 0.962 . S
C3702 H3716 0.960 . S
C3703 C3700 1.511 . S
C3703 H3717 0.961 . S
C3703 H3718 0.961 . S
C3703 H3719 0.961 . S
C3704 C3705 1.370 . S
C3704 C3706 1.363 . S
C3704 H3720 0.931 . S
C3705 C3704 1.370 . S
C3705 C3709 1.408 . S
C3706 C3704 1.363 . S
C3706 C3707 1.370 . S
C3706 C3710 1.524 . S
C3707 C3699 1.503 . S
C3707 C3706 1.370 . S
C3707 C3708 1.403 . S
C3708 C3707 1.403 . S
C3708 C3709 1.404 . S
C3708 C3711 1.539 . S
C3709 C3705 1.408 . S
C3709 C3708 1.404 . S
C3709 H3721 0.930 . S
C3710 C3706 1.524 . S
C3710 H3722 0.956 . S
C3710 H3723 0.961 . S
C3710 H3724 0.961 . S
C3711 C3708 1.539 . S
C3711 H3725 0.958 . S
C3711 H3726 0.961 . S
C3711 H3727 0.960 . S
H3712 C3696 0.931 . S
H3713 C3701 0.929 . S
H3714 C3702 0.960 . S
H3715 C3702 0.962 . S
H3716 C3702 0.960 . S
H3717 C3703 0.961 . S
H3718 C3703 0.961 . S
H3719 C3703 0.961 . S
H3720 C3704 0.931 . S
H3721 C3709 0.930 . S
H3722 C3710 0.956 . S
H3723 C3710 0.961 . S
H3724 C3710 0.961 . S
H3725 C3711 0.958 . S
H3726 C3711 0.961 . S
H3727 C3711 0.960 . S
C3728 C3729 1.391 . S
C3728 C3730 1.394 1_655 S
C3728 H3744 0.931 1_655 S
C3729 C3728 1.391 . S
C3729 C3733 1.376 . S
C3730 C3728 1.394 1_455 S
C3730 C3731 1.369 1_455 S
C3730 C3734 1.531 . S
C3731 C3730 1.369 1_655 S
C3731 C3732 1.410 . S
C3731 C3739 1.503 1_655 S
C3732 C3731 1.410 . S
C3732 C3733 1.392 . S
C3732 C3735 1.511 . S
C3733 C3729 1.376 . S
C3733 C3732 1.392 . S
C3733 H3745 0.929 . S
C3734 C3730 1.531 . S
C3734 H3746 0.960 . S
C3734 H3747 0.962 . S
C3734 H3748 0.960 . S
C3735 C3732 1.511 . S
C3735 H3749 0.961 . S
C3735 H3750 0.961 . S
C3735 H3751 0.961 . S
C3736 C3737 1.370 . S
C3736 C3738 1.363 . S
C3736 H3752 0.931 . S
C3737 C3736 1.370 . S
C3737 C3741 1.408 . S
C3738 C3736 1.363 . S
C3738 C3739 1.370 . S
C3738 C3742 1.524 . S
C3739 C3731 1.503 1_455 S
C3739 C3738 1.370 . S
C3739 C3740 1.403 1_455 S
C3740 C3739 1.403 1_655 S
C3740 C3741 1.404 1_655 S
C3740 C3743 1.539 . S
C3741 C3737 1.408 . S
C3741 C3740 1.404 1_455 S
C3741 H3753 0.930 . S
C3742 C3738 1.524 . S
C3742 H3754 0.956 . S
C3742 H3755 0.961 . S
C3742 H3756 0.961 . S
C3743 C3740 1.539 . S
C3743 H3757 0.958 . S
C3743 H3758 0.961 . S
C3743 H3759 0.960 . S
H3744 C3728 0.931 1_455 S
H3745 C3733 0.929 . S
H3746 C3734 0.960 . S
H3747 C3734 0.962 . S
H3748 C3734 0.960 . S
H3749 C3735 0.961 . S
H3750 C3735 0.961 . S
H3751 C3735 0.961 . S
H3752 C3736 0.931 . S
H3753 C3741 0.930 . S
H3754 C3742 0.956 . S
H3755 C3742 0.961 . S
H3756 C3742 0.961 . S
H3757 C3743 0.958 . S
H3758 C3743 0.961 . S
H3759 C3743 0.960 . S
C3760 C3761 1.391 . S
C3760 C3762 1.394 . S
C3760 H3776 0.931 . S
C3761 C3760 1.391 . S
C3761 C3765 1.376 . S
C3762 C3760 1.394 . S
C3762 C3763 1.369 . S
C3762 C3766 1.531 . S
C3763 C3762 1.369 . S
C3763 C3764 1.410 . S
C3763 C3771 1.503 . S
C3764 C3763 1.410 . S
C3764 C3765 1.392 . S
C3764 C3767 1.511 . S
C3765 C3761 1.376 . S
C3765 C3764 1.392 . S
C3765 H3777 0.929 . S
C3766 C3762 1.531 . S
C3766 H3778 0.960 . S
C3766 H3779 0.962 . S
C3766 H3780 0.960 . S
C3767 C3764 1.511 . S
C3767 H3781 0.961 . S
C3767 H3782 0.961 . S
C3767 H3783 0.961 . S
C3768 C3769 1.370 . S
C3768 C3770 1.363 . S
C3768 H3784 0.931 . S
C3769 C3768 1.370 . S
C3769 C3773 1.408 . S
C3770 C3768 1.363 . S
C3770 C3771 1.370 . S
C3770 C3774 1.524 . S
C3771 C3763 1.503 . S
C3771 C3770 1.370 . S
C3771 C3772 1.403 . S
C3772 C3771 1.403 . S
C3772 C3773 1.404 . S
C3772 C3775 1.539 . S
C3773 C3769 1.408 . S
C3773 C3772 1.404 . S
C3773 H3785 0.930 . S
C3774 C3770 1.524 . S
C3774 H3786 0.956 . S
C3774 H3787 0.961 . S
C3774 H3788 0.961 . S
C3775 C3772 1.539 . S
C3775 H3789 0.958 . S
C3775 H3790 0.961 . S
C3775 H3791 0.960 . S
H3776 C3760 0.931 . S
H3777 C3765 0.929 . S
H3778 C3766 0.960 . S
H3779 C3766 0.962 . S
H3780 C3766 0.960 . S
H3781 C3767 0.961 . S
H3782 C3767 0.961 . S
H3783 C3767 0.961 . S
H3784 C3768 0.931 . S
H3785 C3773 0.930 . S
H3786 C3774 0.956 . S
H3787 C3774 0.961 . S
H3788 C3774 0.961 . S
H3789 C3775 0.958 . S
H3790 C3775 0.961 . S
H3791 C3775 0.960 . S
C3792 C3793 1.391 . S
C3792 C3794 1.394 . S
C3792 H3808 0.931 . S
C3793 C3792 1.391 . S
C3793 C3797 1.376 . S
C3794 C3792 1.394 . S
C3794 C3795 1.369 . S
C3794 C3798 1.531 . S
C3795 C3794 1.369 . S
C3795 C3796 1.410 . S
C3795 C3803 1.503 . S
C3796 C3795 1.410 . S
C3796 C3797 1.392 . S
C3796 C3799 1.511 . S
C3797 C3793 1.376 . S
C3797 C3796 1.392 . S
C3797 H3809 0.929 . S
C3798 C3794 1.531 . S
C3798 H3810 0.960 . S
C3798 H3811 0.962 . S
C3798 H3812 0.960 . S
C3799 C3796 1.511 . S
C3799 H3813 0.961 . S
C3799 H3814 0.961 . S
C3799 H3815 0.961 . S
C3800 C3801 1.370 . S
C3800 C3802 1.363 . S
C3800 H3816 0.931 . S
C3801 C3800 1.370 . S
C3801 C3805 1.408 . S
C3802 C3800 1.363 . S
C3802 C3803 1.370 . S
C3802 C3806 1.524 . S
C3803 C3795 1.503 . S
C3803 C3802 1.370 . S
C3803 C3804 1.403 . S
C3804 C3803 1.403 . S
C3804 C3805 1.404 . S
C3804 C3807 1.539 . S
C3805 C3801 1.408 . S
C3805 C3804 1.404 . S
C3805 H3817 0.930 . S
C3806 C3802 1.524 . S
C3806 H3818 0.956 . S
C3806 H3819 0.961 . S
C3806 H3820 0.961 . S
C3807 C3804 1.539 . S
C3807 H3821 0.958 . S
C3807 H3822 0.961 . S
C3807 H3823 0.960 . S
H3808 C3792 0.931 . S
H3809 C3797 0.929 . S
H3810 C3798 0.960 . S
H3811 C3798 0.962 . S
H3812 C3798 0.960 . S
H3813 C3799 0.961 . S
H3814 C3799 0.961 . S
H3815 C3799 0.961 . S
H3816 C3800 0.931 . S
H3817 C3805 0.930 . S
H3818 C3806 0.956 . S
H3819 C3806 0.961 . S
H3820 C3806 0.961 . S
H3821 C3807 0.958 . S
H3822 C3807 0.961 . S
H3823 C3807 0.960 . S
C3824 C3825 1.391 . S
C3824 C3826 1.394 . S
C3824 H3840 0.931 . S
C3825 C3824 1.391 . S
C3825 C3829 1.376 . S
C3826 C3824 1.394 . S
C3826 C3827 1.369 . S
C3826 C3830 1.531 . S
C3827 C3826 1.369 . S
C3827 C3828 1.410 . S
C3827 C3835 1.503 . S
C3828 C3827 1.410 . S
C3828 C3829 1.392 . S
C3828 C3831 1.511 . S
C3829 C3825 1.376 . S
C3829 C3828 1.392 . S
C3829 H3841 0.929 . S
C3830 C3826 1.531 . S
C3830 H3842 0.960 . S
C3830 H3843 0.962 . S
C3830 H3844 0.960 1_545 S
C3831 C3828 1.511 . S
C3831 H3845 0.961 . S
C3831 H3846 0.961 . S
C3831 H3847 0.961 . S
C3832 C3833 1.370 . S
C3832 C3834 1.363 . S
C3832 H3848 0.931 . S
C3833 C3832 1.370 . S
C3833 C3837 1.408 . S
C3834 C3832 1.363 . S
C3834 C3835 1.370 . S
C3834 C3838 1.524 . S
C3835 C3827 1.503 . S
C3835 C3834 1.370 . S
C3835 C3836 1.403 . S
C3836 C3835 1.403 . S
C3836 C3837 1.404 . S
C3836 C3839 1.539 1_545 S
C3837 C3833 1.408 . S
C3837 C3836 1.404 . S
C3837 H3849 0.930 . S
C3838 C3834 1.524 . S
C3838 H3850 0.956 . S
C3838 H3851 0.961 . S
C3838 H3852 0.961 . S
C3839 C3836 1.539 1_565 S
C3839 H3853 0.958 . S
C3839 H3854 0.961 . S
C3839 H3855 0.960 . S
H3840 C3824 0.931 . S
H3841 C3829 0.929 . S
H3842 C3830 0.960 . S
H3843 C3830 0.962 . S
H3844 C3830 0.960 1_565 S
H3845 C3831 0.961 . S
H3846 C3831 0.961 . S
H3847 C3831 0.961 . S
H3848 C3832 0.931 . S
H3849 C3837 0.930 . S
H3850 C3838 0.956 . S
H3851 C3838 0.961 . S
H3852 C3838 0.961 . S
H3853 C3839 0.958 . S
H3854 C3839 0.961 . S
H3855 C3839 0.960 . S
C3856 C3857 1.391 . S
C3856 C3858 1.394 . S
C3856 H3872 0.931 . S
C3857 C3856 1.391 . S
C3857 C3861 1.376 . S
C3858 C3856 1.394 . S
C3858 C3859 1.369 . S
C3858 C3862 1.531 . S
C3859 C3858 1.369 . S
C3859 C3860 1.410 . S
C3859 C3867 1.503 . S
C3860 C3859 1.410 . S
C3860 C3861 1.392 . S
C3860 C3863 1.511 . S
C3861 C3857 1.376 . S
C3861 C3860 1.392 . S
C3861 H3873 0.929 . S
C3862 C3858 1.531 . S
C3862 H3874 0.960 . S
C3862 H3875 0.962 . S
C3862 H3876 0.960 . S
C3863 C3860 1.511 . S
C3863 H3877 0.961 . S
C3863 H3878 0.961 . S
C3863 H3879 0.961 . S
C3864 C3865 1.370 . S
C3864 C3866 1.363 . S
C3864 H3880 0.931 . S
C3865 C3864 1.370 . S
C3865 C3869 1.408 . S
C3866 C3864 1.363 . S
C3866 C3867 1.370 . S
C3866 C3870 1.524 . S
C3867 C3859 1.503 . S
C3867 C3866 1.370 . S
C3867 C3868 1.403 . S
C3868 C3867 1.403 . S
C3868 C3869 1.404 . S
C3868 C3871 1.539 . S
C3869 C3865 1.408 . S
C3869 C3868 1.404 . S
C3869 H3881 0.930 . S
C3870 C3866 1.524 . S
C3870 H3882 0.956 . S
C3870 H3883 0.961 . S
C3870 H3884 0.961 . S
C3871 C3868 1.539 . S
C3871 H3885 0.958 . S
C3871 H3886 0.961 . S
C3871 H3887 0.960 . S
H3872 C3856 0.931 . S
H3873 C3861 0.929 . S
H3874 C3862 0.960 . S
H3875 C3862 0.962 . S
H3876 C3862 0.960 . S
H3877 C3863 0.961 . S
H3878 C3863 0.961 . S
H3879 C3863 0.961 . S
H3880 C3864 0.931 . S
H3881 C3869 0.930 . S
H3882 C3870 0.956 . S
H3883 C3870 0.961 . S
H3884 C3870 0.961 . S
H3885 C3871 0.958 . S
H3886 C3871 0.961 . S
H3887 C3871 0.960 . S
C3888 C3889 1.391 . S
C3888 C3890 1.394 . S
C3888 H3904 0.931 . S
C3889 C3888 1.391 . S
C3889 C3893 1.376 . S
C3890 C3888 1.394 . S
C3890 C3891 1.369 . S
C3890 C3894 1.531 . S
C3891 C3890 1.369 . S
C3891 C3892 1.410 . S
C3891 C3899 1.503 . S
C3892 C3891 1.410 . S
C3892 C3893 1.392 . S
C3892 C3895 1.511 . S
C3893 C3889 1.376 . S
C3893 C3892 1.392 . S
C3893 H3905 0.929 . S
C3894 C3890 1.531 . S
C3894 H3906 0.960 . S
C3894 H3907 0.962 . S
C3894 H3908 0.960 . S
C3895 C3892 1.511 . S
C3895 H3909 0.961 . S
C3895 H3910 0.961 . S
C3895 H3911 0.961 . S
C3896 C3897 1.370 . S
C3896 C3898 1.363 . S
C3896 H3912 0.931 . S
C3897 C3896 1.370 . S
C3897 C3901 1.408 . S
C3898 C3896 1.363 . S
C3898 C3899 1.370 . S
C3898 C3902 1.524 . S
C3899 C3891 1.503 . S
C3899 C3898 1.370 . S
C3899 C3900 1.403 . S
C3900 C3899 1.403 . S
C3900 C3901 1.404 . S
C3900 C3903 1.539 . S
C3901 C3897 1.408 . S
C3901 C3900 1.404 . S
C3901 H3913 0.930 . S
C3902 C3898 1.524 . S
C3902 H3914 0.956 . S
C3902 H3915 0.961 . S
C3902 H3916 0.961 . S
C3903 C3900 1.539 . S
C3903 H3917 0.958 . S
C3903 H3918 0.961 . S
C3903 H3919 0.960 . S
H3904 C3888 0.931 . S
H3905 C3893 0.929 . S
H3906 C3894 0.960 . S
H3907 C3894 0.962 . S
H3908 C3894 0.960 . S
H3909 C3895 0.961 . S
H3910 C3895 0.961 . S
H3911 C3895 0.961 . S
H3912 C3896 0.931 . S
H3913 C3901 0.930 . S
H3914 C3902 0.956 . S
H3915 C3902 0.961 . S
H3916 C3902 0.961 . S
H3917 C3903 0.958 . S
H3918 C3903 0.961 . S
H3919 C3903 0.960 . S
C3920 C3921 1.391 . S
C3920 C3922 1.394 . S
C3920 H3936 0.931 . S
C3921 C3920 1.391 . S
C3921 C3925 1.376 . S
C3922 C3920 1.394 . S
C3922 C3923 1.369 . S
C3922 C3926 1.531 . S
C3923 C3922 1.369 . S
C3923 C3924 1.410 . S
C3923 C3931 1.503 . S
C3924 C3923 1.410 . S
C3924 C3925 1.392 . S
C3924 C3927 1.511 . S
C3925 C3921 1.376 . S
C3925 C3924 1.392 . S
C3925 H3937 0.929 . S
C3926 C3922 1.531 . S
C3926 H3938 0.960 . S
C3926 H3939 0.962 . S
C3926 H3940 0.960 . S
C3927 C3924 1.511 . S
C3927 H3941 0.961 . S
C3927 H3942 0.961 . S
C3927 H3943 0.961 . S
C3928 C3929 1.370 . S
C3928 C3930 1.363 . S
C3928 H3944 0.931 . S
C3929 C3928 1.370 . S
C3929 C3933 1.408 . S
C3930 C3928 1.363 . S
C3930 C3931 1.370 . S
C3930 C3934 1.524 . S
C3931 C3923 1.503 . S
C3931 C3930 1.370 . S
C3931 C3932 1.403 . S
C3932 C3931 1.403 . S
C3932 C3933 1.404 . S
C3932 C3935 1.539 . S
C3933 C3929 1.408 . S
C3933 C3932 1.404 . S
C3933 H3945 0.930 . S
C3934 C3930 1.524 . S
C3934 H3946 0.956 . S
C3934 H3947 0.961 . S
C3934 H3948 0.961 . S
C3935 C3932 1.539 . S
C3935 H3949 0.958 . S
C3935 H3950 0.961 . S
C3935 H3951 0.960 . S
H3936 C3920 0.931 . S
H3937 C3925 0.929 . S
H3938 C3926 0.960 . S
H3939 C3926 0.962 . S
H3940 C3926 0.960 . S
H3941 C3927 0.961 . S
H3942 C3927 0.961 . S
H3943 C3927 0.961 . S
H3944 C3928 0.931 . S
H3945 C3933 0.930 . S
H3946 C3934 0.956 . S
H3947 C3934 0.961 . S
H3948 C3934 0.961 . S
H3949 C3935 0.958 . S
H3950 C3935 0.961 . S
H3951 C3935 0.960 . S
C3952 C3953 1.391 . S
C3952 C3954 1.394 . S
C3952 H3968 0.931 . S
C3953 C3952 1.391 . S
C3953 C3957 1.376 . S
C3954 C3952 1.394 . S
C3954 C3955 1.369 . S
C3954 C3958 1.531 . S
C3955 C3954 1.369 . S
C3955 C3956 1.410 . S
C3955 C3963 1.503 . S
C3956 C3955 1.410 . S
C3956 C3957 1.392 . S
C3956 C3959 1.511 . S
C3957 C3953 1.376 . S
C3957 C3956 1.392 . S
C3957 H3969 0.929 . S
C3958 C3954 1.531 . S
C3958 H3970 0.960 . S
C3958 H3971 0.962 . S
C3958 H3972 0.960 . S
C3959 C3956 1.511 . S
C3959 H3973 0.961 . S
C3959 H3974 0.961 . S
C3959 H3975 0.961 . S
C3960 C3961 1.370 . S
C3960 C3962 1.363 . S
C3960 H3976 0.931 . S
C3961 C3960 1.370 . S
C3961 C3965 1.408 . S
C3962 C3960 1.363 . S
C3962 C3963 1.370 . S
C3962 C3966 1.524 . S
C3963 C3955 1.503 . S
C3963 C3962 1.370 . S
C3963 C3964 1.403 . S
C3964 C3963 1.403 . S
C3964 C3965 1.404 . S
C3964 C3967 1.539 . S
C3965 C3961 1.408 . S
C3965 C3964 1.404 . S
C3965 H3977 0.930 . S
C3966 C3962 1.524 . S
C3966 H3978 0.956 . S
C3966 H3979 0.961 . S
C3966 H3980 0.961 . S
C3967 C3964 1.539 . S
C3967 H3981 0.958 . S
C3967 H3982 0.961 . S
C3967 H3983 0.960 . S
H3968 C3952 0.931 . S
H3969 C3957 0.929 . S
H3970 C3958 0.960 . S
H3971 C3958 0.962 . S
H3972 C3958 0.960 . S
H3973 C3959 0.961 . S
H3974 C3959 0.961 . S
H3975 C3959 0.961 . S
H3976 C3960 0.931 . S
H3977 C3965 0.930 . S
H3978 C3966 0.956 . S
H3979 C3966 0.961 . S
H3980 C3966 0.961 . S
H3981 C3967 0.958 . S
H3982 C3967 0.961 . S
H3983 C3967 0.960 . S
C3984 C3985 1.391 . S
C3984 C3986 1.394 . S
C3984 H4000 0.931 . S
C3985 C3984 1.391 . S
C3985 C3989 1.376 . S
C3986 C3984 1.394 . S
C3986 C3987 1.369 . S
C3986 C3990 1.531 . S
C3987 C3986 1.369 . S
C3987 C3988 1.410 . S
C3987 C3995 1.503 . S
C3988 C3987 1.410 . S
C3988 C3989 1.392 . S
C3988 C3991 1.511 . S
C3989 C3985 1.376 . S
C3989 C3988 1.392 . S
C3989 H4001 0.929 . S
C3990 C3986 1.531 . S
C3990 H4002 0.960 . S
C3990 H4003 0.962 . S
C3990 H4004 0.960 . S
C3991 C3988 1.511 . S
C3991 H4005 0.961 . S
C3991 H4006 0.961 . S
C3991 H4007 0.961 . S
C3992 C3993 1.370 . S
C3992 C3994 1.363 . S
C3992 H4008 0.931 . S
C3993 C3992 1.370 . S
C3993 C3997 1.408 . S
C3994 C3992 1.363 . S
C3994 C3995 1.370 . S
C3994 C3998 1.524 . S
C3995 C3987 1.503 . S
C3995 C3994 1.370 . S
C3995 C3996 1.403 . S
C3996 C3995 1.403 . S
C3996 C3997 1.404 . S
C3996 C3999 1.539 . S
C3997 C3993 1.408 . S
C3997 C3996 1.404 . S
C3997 H4009 0.930 . S
C3998 C3994 1.524 . S
C3998 H4010 0.956 . S
C3998 H4011 0.961 . S
C3998 H4012 0.961 . S
C3999 C3996 1.539 . S
C3999 H4013 0.958 . S
C3999 H4014 0.961 . S
C3999 H4015 0.960 . S
H4000 C3984 0.931 . S
H4001 C3989 0.929 . S
H4002 C3990 0.960 . S
H4003 C3990 0.962 . S
H4004 C3990 0.960 . S
H4005 C3991 0.961 . S
H4006 C3991 0.961 . S
H4007 C3991 0.961 . S
H4008 C3992 0.931 . S
H4009 C3997 0.930 . S
H4010 C3998 0.956 . S
H4011 C3998 0.961 . S
H4012 C3998 0.961 . S
H4013 C3999 0.958 . S
H4014 C3999 0.961 . S
H4015 C3999 0.960 . S
C4016 C4017 1.391 . S
C4016 C4018 1.394 . S
C4016 H4032 0.931 . S
C4017 C4016 1.391 . S
C4017 C4021 1.376 . S
C4018 C4016 1.394 . S
C4018 C4019 1.369 . S
C4018 C4022 1.531 . S
C4019 C4018 1.369 . S
C4019 C4020 1.410 . S
C4019 C4027 1.503 . S
C4020 C4019 1.410 . S
C4020 C4021 1.392 . S
C4020 C4023 1.511 . S
C4021 C4017 1.376 . S
C4021 C4020 1.392 . S
C4021 H4033 0.929 . S
C4022 C4018 1.531 . S
C4022 H4034 0.960 . S
C4022 H4035 0.962 . S
C4022 H4036 0.960 . S
C4023 C4020 1.511 . S
C4023 H4037 0.961 . S
C4023 H4038 0.961 . S
C4023 H4039 0.961 . S
C4024 C4025 1.370 . S
C4024 C4026 1.363 . S
C4024 H4040 0.931 . S
C4025 C4024 1.370 . S
C4025 C4029 1.408 . S
C4026 C4024 1.363 . S
C4026 C4027 1.370 . S
C4026 C4030 1.524 . S
C4027 C4019 1.503 . S
C4027 C4026 1.370 . S
C4027 C4028 1.403 . S
C4028 C4027 1.403 . S
C4028 C4029 1.404 . S
C4028 C4031 1.539 . S
C4029 C4025 1.408 . S
C4029 C4028 1.404 . S
C4029 H4041 0.930 . S
C4030 C4026 1.524 . S
C4030 H4042 0.956 . S
C4030 H4043 0.961 . S
C4030 H4044 0.961 . S
C4031 C4028 1.539 . S
C4031 H4045 0.958 . S
C4031 H4046 0.961 . S
C4031 H4047 0.960 . S
H4032 C4016 0.931 . S
H4033 C4021 0.929 . S
H4034 C4022 0.960 . S
H4035 C4022 0.962 . S
H4036 C4022 0.960 . S
H4037 C4023 0.961 . S
H4038 C4023 0.961 . S
H4039 C4023 0.961 . S
H4040 C4024 0.931 . S
H4041 C4029 0.930 . S
H4042 C4030 0.956 . S
H4043 C4030 0.961 . S
H4044 C4030 0.961 . S
H4045 C4031 0.958 . S
H4046 C4031 0.961 . S
H4047 C4031 0.960 . S
C977 C106 1.662 . S
C985 C342 1.582 . S
C1009 C65 1.944 . S
C1017 C394 1.875 . S
C1041 C79 1.823 . S
C1049 C426 1.880 1_565 S
C1081 C475 2.301 . S
C1073 C90 2.295 . S
C1105 C21 0.899 . S
C1113 C511 0.870 . S
C1145 C542 0.583 . S
C1137 C35 0.533 . S
C1177 C594 0.396 . S
C1169 C50 0.492 . S
C1201 C6 1.758 . S
C1209 C622 1.794 . S
C1241 C354 2.169 . S
C1233 C232 2.380 . S
C1265 C245 1.605 . S
C1273 C395 1.684 . S
C1305 C425 1.841 . S
C1297 C274 2.012 1_545 S
C1337 C462 0.631 . S
C1329 C175 0.521 . S
C1361 C231 1.522 . S
C1369 C506 1.606 . S
C1401 C554 1.899 . S
C1393 C246 1.948 . S
C1433 C595 1.483 . S
C1425 C273 1.460 . S
C1465 C634 1.990 . S
C1457 C176 2.189 . S
C1497 C355 2.348 . S
C1489 C160 2.223 . S
C1521 C289 1.544 1_554 S
C1529 C665 1.465 . S
C1561 C715 2.454 . S
C1553 C328 2.388 . S
C1593 C742 1.179 . S
C1585 C317 1.172 . S
C1617 C118 2.592 . S
C1625 C635 2.676 . S
C1649 C132 1.298 . S
C1657 C431 1.310 . S
C1681 C331 2.562 . S
C1689 C794 2.464 . S
C1721 C822 1.365 . S
C1713 C303 1.417 . S
C1753 C351 1.262 . S
C1745 C63 1.320 . S
C1785 C825 2.143 . S
C1777 C107 2.248 1_655 S
C1809 C92 1.394 . S
C1817 C435 1.391 . S
C1841 C78 2.862 . S
C1849 C786 2.949 . S
C1881 C502 1.142 . S
C1873 C8 1.172 . S
C1905 C51 0.664 . S
C1913 C711 0.602 . S
C1945 C585 0.658 . S
C1937 C37 0.697 . S
C1977 C871 1.649 . S
C1969 C20 1.587 . S
C2009 C345 1.897 1_556 S
C2001 C147 2.004 . S
C2041 C826 1.879 . S
C2033 C316 1.886 . S
C2065 C119 1.850 . S
C2073 C434 1.816 . S
C2097 C288 0.618 . S
C2105 C791 0.666 . S
C2129 C148 1.973 . S
C2137 C515 1.979 . S
C2169 C705 1.879 . S
C2161 C315 1.879 . S
C2193 C120 1.860 . S
C2201 C586 1.860 . S
C2225 C287 1.663 . S
C2233 C865 1.632 . S
C2257 C188 2.099 . S
C2265 C346 2.169 1_655 S
C2289 C177 2.012 . S
C2297 C674 2.018 . S
C2321 C258 2.585 . S
C2329 C546 2.645 . S
C2353 C247 1.185 . S
C2361 C751 1.177 . S
C2393 C866 2.399 . S
C2385 C272 2.271 . S
C2417 C216 1.171 . S
C2425 C422 1.150 . S
C2457 C465 2.694 . S
C2449 C261 2.738 . S
C2489 C391 1.354 . S
C2481 C205 1.439 . S
C2513 C76 1.351 . S
C2521 C902 1.391 . S
C2553 C834 1.963 . S
C2545 C93 2.037 . S
C2577 C105 1.405 . S
C2585 C946 1.508 . S
C2609 C62 2.322 . S
C2617 C795 2.321 . S
C2641 C49 0.870 . S
C2649 C671 0.859 . S
C2681 C702 0.861 . S
C2673 C9 0.831 . S
C2713 C754 0.318 . S
C2705 C22 0.519 . S
C2745 C862 1.843 . S
C2737 C36 1.970 . S
C2777 C914 2.108 . S
C2769 C260 2.336 . S
C2801 C189 1.492 1_556 S
C2809 C835 1.526 . S
C2841 C945 1.734 . S
C2833 C204 1.884 . S
C2873 C782 0.525 . S
C2865 C217 0.660 . S
C2905 C666 1.975 . S
C2897 C259 1.842 . S
C2929 C190 2.057 . S
C2937 C714 2.010 . S
C2969 C755 1.711 . S
C2961 C203 1.601 . S
C2993 C218 2.312 . S
C3001 C874 2.059 . S
C3033 C915 2.315 . S
C3025 C314 2.216 . S
C3057 C135 1.657 . S
C3065 C505 1.609 . S
C3097 C555 2.343 . S
C3089 C146 2.287 . S
C3129 C582 1.214 . S
C3121 C163 1.221 . S
C3161 C875 2.700 . S
C3153 C300 2.603 . S
C3185 C286 1.291 . S
C3193 C951 1.221 . S
C3225 C474 2.373 . S
C3217 C149 2.488 . S
C3257 C382 1.364 . S
C3249 C121 1.405 . S
C3281 C91 1.193 . S
C3289 C911 1.147 . S
C3321 C385 1.764 . S
C3313 C77 1.904 . S
C3345 C64 1.333 . S
C3353 C955 1.338 . S
C3377 C104 2.516 . S
C3385 C466 2.543 . S
C3409 C34 0.830 . S
C3417 C662 0.845 . S
C3449 C551 0.602 . S
C3441 C23 0.560 . S
C3473 C7 0.354 . S
C3481 C745 0.445 . S
C3505 C48 1.370 . S
C3513 C631 1.367 . S
C3545 C905 1.897 . S
C3537 C329 1.955 . S
C3569 C162 1.880 . S
C3577 C386 1.894 . S
C3609 C954 1.807 . S
C3601 C301 1.827 . S
C3633 C134 0.711 . S
C3641 C471 0.709 . S
C3665 C330 1.927 . S
C3673 C675 1.939 . S
C3705 C545 1.938 . S
C3697 C161 1.905 1_556 S
C3729 C302 1.771 . S
C3737 C746 1.795 . S
C3769 C625 1.564 . S
C3761 C133 1.593 . S
C3801 C906 2.447 . S
C3793 C244 2.367 . S
C3833 C514 1.961 1_655 S
C3825 C219 1.912 1_545 S
C3857 C230 2.267 . S
C3865 C706 2.307 . S
C3897 C591 1.193 . S
C3889 C191 1.212 . S
C3921 C202 2.542 . S
C3929 C626 2.615 . S
C3953 C174 1.196 . S
C3961 C942 1.197 . S
C3993 C785 2.724 . S
C3985 C233 2.761 1_565 S
C4025 C831 1.397 . S
C4017 C275 1.467 . S
