# Generated by pormake.
# Topology dag, (6,3)-cn, num edge types: 1
# Building blocks:
#     Node 0, Type 0, BuildingBlock: IZENUY_clean_sbu_0, # of connection points: 6
#     Node 1, Type 0, BuildingBlock: IZENUY_clean_sbu_0, # of connection points: 6
#     Node 2, Type 0, BuildingBlock: IZENUY_clean_sbu_0, # of connection points: 6
#     Node 3, Type 0, BuildingBlock: IZENUY_clean_sbu_0, # of connection points: 6
#     Node 4, Type 1, BuildingBlock: OLANEW_clean_sbu_2, # of connection points: 3
#     Node 5, Type 1, BuildingBlock: OLANEW_clean_sbu_2, # of connection points: 3
#     Node 6, Type 1, BuildingBlock: OLANEW_clean_sbu_2, # of connection points: 3
#     Node 7, Type 1, BuildingBlock: OLANEW_clean_sbu_2, # of connection points: 3
#     Node 8, Type 1, BuildingBlock: OLANEW_clean_sbu_2, # of connection points: 3
#     Node 9, Type 1, BuildingBlock: OLANEW_clean_sbu_2, # of connection points: 3
#     Node 10, Type 1, BuildingBlock: OLANEW_clean_sbu_2, # of connection points: 3
#     Node 11, Type 1, BuildingBlock: OLANEW_clean_sbu_2, # of connection points: 3
#     Edge 12, Type (0, 1), BuildingBlock: AJUNOK_clean_linker_0, # of connection points: 2
#     Edge 13, Type (0, 1), BuildingBlock: AJUNOK_clean_linker_0, # of connection points: 2
#     Edge 14, Type (0, 1), BuildingBlock: AJUNOK_clean_linker_0, # of connection points: 2
#     Edge 15, Type (0, 1), BuildingBlock: AJUNOK_clean_linker_0, # of connection points: 2
#     Edge 16, Type (0, 1), BuildingBlock: AJUNOK_clean_linker_0, # of connection points: 2
#     Edge 17, Type (0, 1), BuildingBlock: AJUNOK_clean_linker_0, # of connection points: 2
#     Edge 18, Type (0, 1), BuildingBlock: AJUNOK_clean_linker_0, # of connection points: 2
#     Edge 19, Type (0, 1), BuildingBlock: AJUNOK_clean_linker_0, # of connection points: 2
#     Edge 20, Type (0, 1), BuildingBlock: AJUNOK_clean_linker_0, # of connection points: 2
#     Edge 21, Type (0, 1), BuildingBlock: AJUNOK_clean_linker_0, # of connection points: 2
#     Edge 22, Type (0, 1), BuildingBlock: AJUNOK_clean_linker_0, # of connection points: 2
#     Edge 23, Type (0, 1), BuildingBlock: AJUNOK_clean_linker_0, # of connection points: 2
#     Edge 24, Type (0, 1), BuildingBlock: AJUNOK_clean_linker_0, # of connection points: 2
#     Edge 25, Type (0, 1), BuildingBlock: AJUNOK_clean_linker_0, # of connection points: 2
#     Edge 26, Type (0, 1), BuildingBlock: AJUNOK_clean_linker_0, # of connection points: 2
#     Edge 27, Type (0, 1), BuildingBlock: AJUNOK_clean_linker_0, # of connection points: 2
#     Edge 28, Type (0, 1), BuildingBlock: AJUNOK_clean_linker_0, # of connection points: 2
#     Edge 29, Type (0, 1), BuildingBlock: AJUNOK_clean_linker_0, # of connection points: 2
#     Edge 30, Type (0, 1), BuildingBlock: AJUNOK_clean_linker_0, # of connection points: 2
#     Edge 31, Type (0, 1), BuildingBlock: AJUNOK_clean_linker_0, # of connection points: 2
#     Edge 32, Type (0, 1), BuildingBlock: AJUNOK_clean_linker_0, # of connection points: 2
#     Edge 33, Type (0, 1), BuildingBlock: AJUNOK_clean_linker_0, # of connection points: 2
#     Edge 34, Type (0, 1), BuildingBlock: AJUNOK_clean_linker_0, # of connection points: 2
#     Edge 35, Type (0, 1), BuildingBlock: AJUNOK_clean_linker_0, # of connection points: 2
# Relax obj value: 0.128
# Max RMSD: 0.157
# Mean RMSD: 0.121
data_MOF--net-dag--node1-IZENUY_clean_sbu_0--node2-OLANEW_clean_sbu_2--edge1-AJUNOK_clean_linker_0
_symmetry_space_group_name_H-M    P1
_symmetry_Int_Tables_number       1
_symmetry_cell_setting            triclinic
loop_
_symmetry_equiv_pos_as_xyz
'x, y, z'
_cell_length_a     32.787097
_cell_length_b     30.6334
_cell_length_c     28.194619
_cell_angle_alpha  92.310742
_cell_angle_beta   94.444036
_cell_angle_gamma 91.215499
loop_
_atom_site_label
_atom_site_type_symbol
_atom_site_fract_x
_atom_site_fract_y
_atom_site_fract_z
_atom_type_partial_charge
Fe0 Fe 0.18589 0.88125 0.02995 0.0
Fe1 Fe 0.09528 0.90432 0.01756 0.0
O2 O 0.13411 0.86497 0.01675 0.0
Fe3 Fe 0.12114 0.80932 0.00257 0.0
O4 O 0.16376 0.78753 0.04121 0.0
O5 O 0.19118 0.84594 0.07975 0.0
O6 O 0.17496 0.92548 0.07326 0.0
C7 C 0.14395 0.93205 0.0967 0.0
C8 C 0.18924 0.81772 0.95366 0.0
O9 O 0.10882 0.91909 0.07983 0.0
C10 C 0.06814 0.85477 0.93828 0.0
O11 O 0.18413 0.9176 0.98106 0.0
O12 O 0.12741 0.94953 0.99754 0.0
O13 O 0.15142 0.80864 0.95139 0.0
O14 O 0.20628 0.83986 0.98909 0.0
C15 C 0.06008 0.83055 0.05929 0.0
O16 O 0.07955 0.89211 0.95529 0.0
O17 O 0.07629 0.82076 0.96114 0.0
C18 C 0.1602 0.94897 0.97625 0.0
O19 O 0.05608 0.86619 0.03791 0.0
O20 O 0.09017 0.80664 0.05282 0.0
C21 C 0.18593 0.8051 0.0761 0.0
Fe22 Fe 0.71235 0.62013 0.48901 0.0
Fe23 Fe 0.66157 0.7003 0.4634 0.0
O24 O 0.66452 0.64473 0.47808 0.0
Fe25 Fe 0.61928 0.61335 0.48192 0.0
O26 O 0.63238 0.6049 0.5442 0.0
O27 O 0.6949 0.58368 0.53455 0.0
O28 O 0.72694 0.65892 0.53735 0.0
C29 C 0.72967 0.69962 0.53349 0.0
C30 C 0.67043 0.55392 0.43866 0.0
O31 O 0.70929 0.71781 0.49976 0.0
C32 C 0.59747 0.65762 0.40283 0.0
O33 O 0.73817 0.65237 0.4461 0.0
O34 O 0.68937 0.69033 0.41067 0.0
O35 O 0.64094 0.56108 0.46392 0.0
O36 O 0.70089 0.57971 0.44077 0.0
C37 C 0.60003 0.69474 0.52286 0.0
O38 O 0.61341 0.69217 0.42401 0.0
O39 O 0.60409 0.62073 0.41984 0.0
C40 C 0.72403 0.67298 0.4106 0.0
O41 O 0.63347 0.71359 0.51552 0.0
O42 O 0.58884 0.65934 0.50074 0.0
C43 C 0.6649 0.58761 0.56021 0.0
Fe44 Fe 0.84811 0.21437 0.02534 0.0
Fe45 Fe 0.86533 0.11789 0.01022 0.0
O46 O 0.82991 0.16006 0.01223 0.0
Fe47 Fe 0.77701 0.14726 0.00151 0.0
O48 O 0.76508 0.19874 0.97214 0.0
O49 O 0.82497 0.23221 0.96946 0.0
O50 O 0.89564 0.20708 0.995 0.0
C51 C 0.9043 0.17921 0.96286 0.0
C52 C 0.77585 0.20881 0.07455 0.0
O53 O 0.88772 0.14154 0.96044 0.0
C54 C 0.80761 0.08002 0.06004 0.0
O55 O 0.87262 0.20006 0.08301 0.0
O56 O 0.90358 0.14444 0.0524 0.0
O57 O 0.76648 0.17042 0.05922 0.0
O58 O 0.8035 0.23097 0.05677 0.0
C59 C 0.80714 0.09158 0.93609 0.0
O60 O 0.84431 0.09307 0.05997 0.0
O61 O 0.78039 0.09367 0.02989 0.0
C62 C 0.89862 0.17041 0.08709 0.0
O63 O 0.83429 0.0824 0.96786 0.0
O64 O 0.78361 0.1229 0.94243 0.0
C65 C 0.78761 0.22772 0.95539 0.0
Fe66 Fe 0.3833 0.39239 0.55015 0.0
Fe67 Fe 0.29895 0.35255 0.56442 0.0
O68 O 0.352 0.34645 0.55895 0.0
Fe69 Fe 0.37422 0.29466 0.56223 0.0
O70 O 0.40773 0.31263 0.61391 0.0
O71 O 0.42971 0.37109 0.5806 0.0
O72 O 0.37198 0.41674 0.60666 0.0
C73 C 0.33649 0.42612 0.61736 0.0
C74 C 0.41262 0.33347 0.48749 0.0
O75 O 0.30512 0.40794 0.5945 0.0
C76 C 0.30344 0.27359 0.50825 0.0
O77 O 0.34295 0.42255 0.51835 0.0
O78 O 0.29207 0.37479 0.50524 0.0
O79 O 0.4131 0.30618 0.52024 0.0
O80 O 0.39599 0.36987 0.493 0.0
C81 C 0.319 0.2946 0.63377 0.0
O82 O 0.28412 0.29834 0.53563 0.0
O83 O 0.34196 0.274 0.51142 0.0
C84 C 0.31143 0.40822 0.49359 0.0
O85 O 0.30294 0.33053 0.62363 0.0
O86 O 0.33919 0.27399 0.60405 0.0
C87 C 0.43258 0.34443 0.61365 0.0
O88 O 0.19935 0.0028 0.31191 0.0
Cd89 Cd 0.21114 0.02598 0.39625 0.0
O90 O 0.14877 0.04782 0.30325 0.0
Cd91 Cd 0.09864 0.08251 0.2674 0.0
O92 O 0.04319 0.10469 0.22937 0.0
C93 C 0.02768 0.14232 0.2327 0.0
O94 O 0.04592 0.17264 0.26161 0.0
C95 C 0.17026 0.01802 0.28567 0.0
C96 C 0.23443 0.11336 0.4174 0.0
O97 O 0.2603 0.08492 0.40551 0.0
O98 O 0.19694 0.10086 0.41818 0.0
O99 O 0.31876 0.62408 0.71398 0.0
Cd100 Cd 0.32897 0.70303 0.73354 0.0
O101 O 0.38429 0.61253 0.70566 0.0
Cd102 Cd 0.41374 0.67777 0.70974 0.0
O103 O 0.46942 0.70396 0.68081 0.0
C104 C 0.46698 0.71988 0.63974 0.0
O105 O 0.43047 0.72455 0.61809 0.0
C106 C 0.34763 0.59812 0.70643 0.0
C107 C 0.28402 0.73808 0.80682 0.0
O108 O 0.26862 0.73468 0.76359 0.0
O109 O 0.32023 0.72394 0.8156 0.0
O110 O 0.92731 0.70621 0.15155 0.0
Cd111 Cd 0.86797 0.65956 0.16743 0.0
O112 O 0.89005 0.76431 0.15197 0.0
Cd113 Cd 0.87397 0.83262 0.14784 0.0
O114 O 0.85297 0.89926 0.14428 0.0
C115 C 0.81703 0.90809 0.12784 0.0
O116 O 0.79158 0.87602 0.11236 0.0
C117 C 0.92425 0.74698 0.14581 0.0
C118 C 0.82458 0.67531 0.24823 0.0
O119 O 0.8569 0.65236 0.24999 0.0
O120 O 0.81385 0.69272 0.20873 0.0
O121 O 0.66965 0.46926 0.75034 0.0
Cd122 Cd 0.65322 0.43115 0.8216 0.0
O123 O 0.62355 0.51777 0.7659 0.0
Cd124 Cd 0.59416 0.47654 0.81535 0.0
O125 O 0.54889 0.42612 0.78993 0.0
C126 C 0.55975 0.40348 0.75451 0.0
O127 O 0.59721 0.40893 0.74197 0.0
C128 C 0.65193 0.50479 0.74074 0.0
C129 C 0.70291 0.36347 0.85182 0.0
O130 O 0.67003 0.35539 0.82494 0.0
O131 O 0.71274 0.40352 0.86289 0.0
O132 O 0.62432 0.39756 0.28389 0.0
Cd133 Cd 0.59659 0.33513 0.23448 0.0
O134 O 0.64654 0.35743 0.34301 0.0
Cd135 Cd 0.61075 0.3002 0.31492 0.0
O136 O 0.55264 0.2848 0.34348 0.0
C137 C 0.52703 0.31538 0.34175 0.0
O138 O 0.53567 0.35027 0.31847 0.0
C139 C 0.6437 0.39444 0.32437 0.0
C140 C 0.65811 0.29388 0.18813 0.0
O141 O 0.64028 0.32726 0.17098 0.0
O142 O 0.64681 0.27986 0.22738 0.0
O143 O 0.26356 0.11693 0.91606 0.0
Cd144 Cd 0.29134 0.1914 0.90995 0.0
O145 O 0.20441 0.14079 0.88876 0.0
Cd146 Cd 0.13908 0.13728 0.86935 0.0
O147 O 0.07397 0.14615 0.8719 0.0
C148 C 0.06175 0.18337 0.88541 0.0
O149 O 0.08883 0.21542 0.89453 0.0
C150 C 0.22553 0.10995 0.90574 0.0
C151 C 0.29866 0.22081 0.81832 0.0
O152 O 0.32719 0.19971 0.84024 0.0
O153 O 0.26588 0.22715 0.83938 0.0
O154 O 0.4161 0.67611 0.29092 0.0
Cd155 Cd 0.34162 0.6605 0.27326 0.0
O156 O 0.42795 0.60564 0.2908 0.0
Cd157 Cd 0.36411 0.58232 0.28621 0.0
O158 O 0.32532 0.54653 0.332 0.0
C159 C 0.31841 0.50555 0.32673 0.0
O160 O 0.33119 0.48469 0.28924 0.0
C161 C 0.44129 0.64505 0.2948 0.0
C162 C 0.29392 0.70779 0.20642 0.0
O163 O 0.30077 0.72184 0.24984 0.0
O164 O 0.3112 0.67241 0.19397 0.0
O165 O 0.99247 0.82097 0.72047 0.0
Cd166 Cd 0.96137 0.81114 0.63805 0.0
O167 O 0.9358 0.84428 0.74755 0.0
Cd168 Cd 0.89699 0.87653 0.79681 0.0
O169 O 0.85637 0.92292 0.82864 0.0
C170 C 0.84549 0.95702 0.80713 0.0
O171 O 0.85881 0.96381 0.76522 0.0
C172 C 0.97339 0.83548 0.75508 0.0
C173 C 0.87993 0.78106 0.6205 0.0
O174 O 0.90902 0.75496 0.63093 0.0
O175 O 0.88889 0.82198 0.62003 0.0
C176 C 0.1888 0.96792 0.16412 0.0
C177 C 0.14917 0.95671 0.14369 0.0
C178 C 0.19507 0.98885 0.20938 0.0
C179 C 0.16204 1.00009 0.23604 0.0
H180 H 0.21547 0.95969 0.1455 0.0
H181 H 0.2262 0.99588 0.22388 0.0
S182 S 0.05214 0.9777 0.19994 0.0
N183 N 0.07614 0.95872 0.15433 0.0
N184 N 0.08827 0.9975 0.2395 0.0
C185 C 0.12223 0.98969 0.21609 0.0
C186 C 0.11573 0.96814 0.16997 0.0
C187 C 0.53183 0.72445 0.53442 0.0
C188 C 0.57099 0.71454 0.55418 0.0
C189 C 0.4991 0.72982 0.56311 0.0
C190 C 0.50403 0.72432 0.61261 0.0
H191 H 0.52586 0.72525 0.49611 0.0
H192 H 0.46914 0.73526 0.54567 0.0
S193 S 0.60213 0.70293 0.68194 0.0
N194 N 0.61422 0.70355 0.62616 0.0
N195 N 0.55273 0.71289 0.68054 0.0
C196 C 0.54392 0.71752 0.63315 0.0
C197 C 0.57739 0.71272 0.60378 0.0
C198 C 0.77451 0.00646 0.06584 0.0
C199 C 0.80034 0.04039 0.08654 0.0
C200 C 0.77775 0.96379 0.08185 0.0
C201 C 0.80676 0.95399 0.11916 0.0
H202 H 0.75413 0.01202 0.03472 0.0
H203 H 0.75961 0.93793 0.06252 0.0
S204 S 0.87287 0.03405 0.19355 0.0
N205 N 0.84934 0.06338 0.15236 0.0
N206 N 0.85556 0.98336 0.18245 0.0
C207 C 0.829 0.98874 0.14377 0.0
C208 C 0.82563 0.03199 0.12754 0.0
C209 C 0.50534 0.36204 0.63819 0.0
C210 C 0.46615 0.35072 0.65101 0.0
C211 C 0.53629 0.37597 0.67265 0.0
C212 C 0.52878 0.38037 0.7211 0.0
H213 H 0.51172 0.36157 0.60102 0.0
H214 H 0.56556 0.3859 0.66067 0.0
S215 S 0.43172 0.35132 0.77305 0.0
N216 N 0.42197 0.34121 0.71524 0.0
N217 N 0.47986 0.36904 0.7804 0.0
C218 C 0.49014 0.3671 0.73461 0.0
C219 C 0.45886 0.35182 0.69942 0.0
C220 C 0.66267 0.47326 0.4306 0.0
C221 C 0.67015 0.5131 0.40962 0.0
C222 C 0.65699 0.43443 0.40279 0.0
C223 C 0.65735 0.43439 0.35288 0.0
H224 H 0.66024 0.47231 0.46867 0.0
H225 H 0.64998 0.4047 0.42038 0.0
S226 S 0.67749 0.53053 0.2814 0.0
N227 N 0.67992 0.5504 0.33692 0.0
N228 N 0.66769 0.47757 0.28399 0.0
C229 C 0.66609 0.474 0.33169 0.0
C230 C 0.6729 0.51337 0.36028 0.0
C231 C 0.95216 0.15282 0.90399 0.0
C232 C 0.94077 0.18617 0.93583 0.0
C233 C 0.99046 0.15365 0.8855 0.0
C234 C 0.01892 0.188 0.89777 0.0
H235 H 0.93223 0.12453 0.89505 0.0
H236 H 0.99844 0.12605 0.86312 0.0
S237 S 1.00122 0.28754 0.97232 0.0
N238 N 0.95883 0.25769 0.97338 0.0
N239 N 0.03093 0.25934 0.93836 0.0
C240 C 0.00656 0.22361 0.92594 0.0
C241 C 0.96744 0.2227 0.945 0.0
C242 C 0.30201 0.41019 0.40553 0.0
C243 C 0.29921 0.43129 0.45023 0.0
C244 C 0.30479 0.43444 0.36461 0.0
C245 C 0.30481 0.48057 0.36716 0.0
H246 H 0.30576 0.37514 0.40282 0.0
H247 H 0.30988 0.41695 0.33153 0.0
S248 S 0.29016 0.55007 0.47537 0.0
N249 N 0.29116 0.49974 0.4942 0.0
N250 N 0.29522 0.54555 0.41757 0.0
C251 C 0.29771 0.5015 0.41113 0.0
C252 C 0.29533 0.47677 0.45265 0.0
C253 C 0.00627 0.82675 0.88677 0.0
C254 C 0.04331 0.85123 0.89202 0.0
C255 C 0.98255 0.82347 0.84283 0.0
C256 C 0.99582 0.84341 0.80243 0.0
H257 H 0.99546 0.8103 0.91688 0.0
H258 H 0.9544 0.80405 0.84003 0.0
S259 S 0.09052 0.91091 0.79762 0.0
N260 N 0.09151 0.89646 0.8535 0.0
N261 N 0.04816 0.88855 0.77066 0.0
C262 C 0.03276 0.86788 0.80736 0.0
C263 C 0.05618 0.87227 0.85224 0.0
C264 C 0.81983 0.06996 0.85334 0.0
C265 C 0.80103 0.06072 0.89497 0.0
C266 C 0.83095 0.03601 0.8223 0.0
C267 C 0.82426 0.9919 0.83264 0.0
H268 H 0.82955 0.10314 0.84716 0.0
H269 H 0.84808 0.04436 0.79247 0.0
S270 S 0.76935 0.9517 0.93309 0.0
N271 N 0.77098 0.00539 0.94146 0.0
N272 N 0.79201 0.94146 0.88366 0.0
C273 C 0.80179 0.98272 0.87168 0.0
C274 C 0.79014 0.01724 0.90276 0.0
C275 C 0.46563 0.29174 0.44661 0.0
C276 C 0.43738 0.32572 0.44621 0.0
C277 C 0.49288 0.28693 0.41098 0.0
C278 C 0.493 0.31592 0.37349 0.0
H279 H 0.46799 0.26967 0.47571 0.0
H280 H 0.51531 0.26155 0.41425 0.0
S281 S 0.42012 0.40537 0.35118 0.0
N282 N 0.4075 0.38518 0.40158 0.0
N283 N 0.45883 0.37626 0.33477 0.0
C284 C 0.46293 0.34804 0.37074 0.0
C285 C 0.43512 0.35292 0.40703 0.0
C286 C 0.15305 0.02781 0.95518 0.0
C287 C 0.17426 0.98837 0.95194 0.0
C288 C 0.16875 0.0667 0.93797 0.0
C289 C 0.20629 0.0677 0.91691 0.0
H290 H 0.12489 0.02917 0.97285 0.0
H291 H 0.15241 0.09658 0.94356 0.0
S292 S 0.27145 0.97293 0.89403 0.0
N293 N 0.23308 0.95239 0.92129 0.0
N294 N 0.26252 0.02553 0.89005 0.0
C295 C 0.2268 0.02831 0.91133 0.0
C296 C 0.21076 0.98866 0.92838 0.0
C297 C 0.53504 0.69427 0.36708 0.0
C298 C 0.56299 0.66003 0.36556 0.0
C299 C 0.49677 0.69112 0.34055 0.0
C300 C 0.48511 0.6536 0.31163 0.0
H301 H 0.54136 0.72213 0.39165 0.0
H302 H 0.47508 0.71675 0.34564 0.0
S303 S 0.55103 0.5593 0.2877 0.0
N304 N 0.57903 0.59083 0.32705 0.0
N305 N 0.50756 0.58482 0.27742 0.0
C306 C 0.51453 0.62124 0.30634 0.0
C307 C 0.55331 0.62448 0.33324 0.0
C308 C 0.30226 0.4959 0.64002 0.0
C309 C 0.3331 0.46537 0.64932 0.0
C310 C 0.30515 0.53818 0.6619 0.0
C311 C 0.33906 0.5512 0.69347 0.0
H312 H 0.27745 0.48832 0.61312 0.0
H313 H 0.28238 0.56172 0.65123 0.0
S314 S 0.42344 0.48057 0.73671 0.0
N315 N 0.39499 0.44897 0.69786 0.0
N316 N 0.4007 0.52815 0.73807 0.0
C317 C 0.36798 0.51965 0.70615 0.0
C318 C 0.36489 0.47679 0.68434 0.0
C319 C 0.98603 0.82729 0.07794 0.0
C320 C 0.02645 0.81309 0.0865 0.0
C321 C 0.95323 0.80718 0.0989 0.0
C322 C 0.95955 0.77234 0.12959 0.0
H323 H 0.97934 0.85277 0.05316 0.0
H324 H 0.92254 0.81754 0.08886 0.0
S325 S 0.06005 0.72667 0.16863 0.0
N326 N 0.07122 0.76464 0.13147 0.0
N327 N 0.00988 0.72722 0.17067 0.0
C328 C 1.00005 0.7594 0.14029 0.0
C329 C 0.03336 0.77971 0.11893 0.0
C330 C 0.63734 0.5823 0.63974 0.0
C331 C 0.66576 0.56839 0.60778 0.0
C332 C 0.63477 0.56305 0.68356 0.0
C333 C 0.66019 0.52853 0.69732 0.0
H334 H 0.6162 0.60789 0.63055 0.0
H335 H 0.61151 0.57448 0.706 0.0
S336 S 0.74205 0.48194 0.62805 0.0
N337 N 0.7218 0.51982 0.59412 0.0
N338 N 0.71665 0.48302 0.67642 0.0
C339 C 0.68997 0.51538 0.66656 0.0
C340 C 0.69284 0.53543 0.62187 0.0
C341 C 0.93834 0.12336 0.14125 0.0
C342 C 0.92602 0.16572 0.13047 0.0
C343 C 0.96971 0.11641 0.17607 0.0
C344 C 0.99064 0.15159 0.20147 0.0
H345 H 0.92463 0.09512 0.12119 0.0
H346 H 0.97855 0.08302 0.18172 0.0
S347 S 0.96738 0.26905 0.18995 0.0
N348 N 0.93456 0.24339 0.15031 0.0
N349 N 0.99439 0.2306 0.21619 0.0
C350 C 0.977 0.19422 0.19321 0.0
C351 C 0.94447 0.20124 0.1576 0.0
C352 C 0.22498 0.79559 0.15477 0.0
C353 C 0.21119 0.77808 0.10926 0.0
C354 C 0.25151 0.77263 0.18571 0.0
C355 C 0.26597 0.73131 0.17233 0.0
H356 H 0.2153 0.82755 0.16664 0.0
H357 H 0.26104 0.78774 0.2203 0.0
S358 S 0.23954 0.67104 0.05656 0.0
N359 N 0.21409 0.71681 0.0522 0.0
N360 N 0.26418 0.67374 0.10999 0.0
C361 C 0.25232 0.71328 0.12687 0.0
C362 C 0.22487 0.73655 0.09552 0.0
C363 C 0.77651 0.76574 0.55019 0.0
C364 C 0.76347 0.72388 0.56263 0.0
C365 C 0.81303 0.7854 0.57131 0.0
C366 C 0.8381 0.76375 0.60527 0.0
H367 H 0.75956 0.78259 0.52224 0.0
H368 H 0.82283 0.81664 0.55888 0.0
S369 S 0.81452 0.65738 0.65654 0.0
N370 N 0.77606 0.6644 0.61647 0.0
N371 N 0.84486 0.70086 0.65471 0.0
C372 C 0.82404 0.72343 0.62045 0.0
C373 C 0.78669 0.70368 0.59958 0.0
C374 C 0.74052 0.27506 0.10292 0.0
C375 C 0.74914 0.23061 0.1076 0.0
C376 C 0.71142 0.29531 0.12964 0.0
C377 C 0.69043 0.27211 0.16269 0.0
H378 H 0.75514 0.29399 0.07705 0.0
H379 H 0.70505 0.32934 0.12393 0.0
S380 S 0.70443 0.15579 0.19095 0.0
N381 N 0.73603 0.16446 0.14928 0.0
N382 N 0.68193 0.20274 0.2004 0.0
C383 C 0.70005 0.22808 0.16918 0.0
C384 C 0.72921 0.20726 0.14135 0.0
C385 C 0.27936 0.28443 0.70558 0.0
C386 C 0.31373 0.27523 0.68035 0.0
C387 C 0.27438 0.26613 0.74974 0.0
C388 C 0.30389 0.23847 0.77071 0.0
H389 H 0.25597 0.30562 0.69095 0.0
H390 H 0.24735 0.27415 0.76776 0.0
S391 S 0.40073 0.20631 0.7201 0.0
N392 N 0.37842 0.2378 0.6802 0.0
N393 N 0.36937 0.2039 0.76299 0.0
C394 C 0.33864 0.22949 0.74595 0.0
C395 C 0.34348 0.24773 0.70089 0.0
C396 C 0.78956 0.66101 0.37218 0.0
C397 C 0.74963 0.67744 0.36944 0.0
C398 C 0.81378 0.66178 0.33339 0.0
C399 C 0.79936 0.67905 0.28992 0.0
H400 H 0.80223 0.64668 0.4044 0.0
H401 H 0.84392 0.64791 0.33743 0.0
S402 S 0.69753 0.72765 0.26409 0.0
N403 N 0.69716 0.71269 0.31965 0.0
N404 N 0.74276 0.71428 0.2468 0.0
C405 C 0.7599 0.69671 0.28688 0.0
C406 C 0.73508 0.69584 0.32654 0.0
C407 C 0.72857 0.25378 0.90288 0.0
C408 C 0.76862 0.26083 0.92404 0.0
C409 C 0.70828 0.28642 0.87746 0.0
C410 C 0.72701 0.32761 0.87275 0.0
H411 H 0.71232 0.22316 0.90689 0.0
H412 H 0.67702 0.27988 0.86316 0.0
S413 S 0.83279 0.36169 0.91742 0.0
N414 N 0.82735 0.31141 0.93527 0.0
N415 N 0.7889 0.37263 0.88814 0.0
C416 C 0.7676 0.33452 0.89189 0.0
C417 C 0.78849 0.30117 0.9173 0.0
C418 C 0.24392 0.22089 0.48979 0.0
C419 C 0.28199 0.23785 0.47832 0.0
C420 C 0.22732 0.18179 0.46772 0.0
C421 C 0.24835 0.15823 0.43368 0.0
H422 H 0.22793 0.23648 0.51785 0.0
H423 H 0.19903 0.16868 0.47945 0.0
S424 S 0.34495 0.19318 0.38448 0.0
N425 N 0.33705 0.23144 0.42542 0.0
N426 N 0.30627 0.15785 0.38488 0.0
C427 C 0.28478 0.17662 0.41934 0.0
C428 C 0.30146 0.21647 0.44137 0.0
C429 C 0.19617 0.78627 0.87119 0.0
C430 C 0.2144 0.79824 0.91686 0.0
C431 C 0.2189 0.76702 0.83601 0.0
C432 C 0.26074 0.75831 0.84512 0.0
H433 H 0.16405 0.79209 0.86236 0.0
H434 H 0.20335 0.75867 0.80143 0.0
S435 S 0.32291 0.78246 0.95942 0.0
N436 N 0.27684 0.79956 0.96947 0.0
N437 N 0.3194 0.76309 0.90372 0.0
C438 C 0.27932 0.76992 0.89078 0.0
C439 C 0.25625 0.78999 0.92647 0.0
loop_
_geom_bond_atom_site_label_1
_geom_bond_atom_site_label_2
_geom_bond_distance
_geom_bond_site_symmetry_2
_ccdc_geom_bond_type
Fe0 O2 1.916 1_554 S
Fe0 O5 1.997 . S
Fe0 O6 2.002 . S
Fe0 O11 1.976 1_554 S
Fe0 O14 1.996 1_554 S
Fe1 O2 1.917 1_554 S
Fe1 O9 1.997 . S
Fe1 O12 1.996 1_554 S
Fe1 O16 1.976 1_554 S
Fe1 O19 2.002 . S
O2 Fe0 1.916 1_556 S
O2 Fe1 1.917 1_556 S
O2 Fe3 1.922 . S
Fe3 O2 1.922 . S
Fe3 O4 2.002 1_556 S
Fe3 O13 1.976 . S
Fe3 O17 1.996 . S
Fe3 O20 1.997 1_556 S
O4 Fe3 2.002 1_554 S
O4 C21 1.295 . S
O5 Fe0 1.997 . S
O5 C21 1.235 . S
O6 Fe0 2.002 . S
O6 C7 1.295 . S
C7 O6 1.295 . S
C7 O9 1.235 . S
C8 O13 1.287 . S
C8 O14 1.255 . S
O9 Fe1 1.997 . S
O9 C7 1.235 . S
C10 O16 1.287 . S
C10 O17 1.255 . S
O11 Fe0 1.976 1_556 S
O11 C18 1.287 . S
O12 Fe1 1.996 1_556 S
O12 C18 1.255 . S
O13 Fe3 1.976 . S
O13 C8 1.287 . S
O14 Fe0 1.996 1_556 S
O14 C8 1.255 . S
C15 O19 1.295 . S
C15 O20 1.235 . S
O16 Fe1 1.976 1_556 S
O16 C10 1.287 . S
O17 Fe3 1.996 . S
O17 C10 1.255 . S
C18 O11 1.287 . S
C18 O12 1.255 . S
O19 Fe1 2.002 . S
O19 C15 1.295 . S
O20 Fe3 1.997 1_554 S
O20 C15 1.235 . S
C21 O4 1.295 . S
C21 O5 1.235 . S
Fe22 O24 1.918 . S
Fe22 O27 1.997 . S
Fe22 O28 2.002 . S
Fe22 O33 1.976 . S
Fe22 O36 1.996 . S
Fe23 O24 1.918 . S
Fe23 O31 1.997 . S
Fe23 O34 1.996 . S
Fe23 O38 1.976 . S
Fe23 O41 2.002 . S
O24 Fe22 1.918 . S
O24 Fe23 1.918 . S
O24 Fe25 1.918 . S
Fe25 O24 1.918 . S
Fe25 O26 2.002 . S
Fe25 O35 1.976 . S
Fe25 O39 1.996 . S
Fe25 O42 1.997 . S
O26 Fe25 2.002 . S
O26 C43 1.295 . S
O27 Fe22 1.997 . S
O27 C43 1.235 . S
O28 Fe22 2.002 . S
O28 C29 1.295 . S
C29 O28 1.295 . S
C29 O31 1.235 . S
C30 O35 1.287 . S
C30 O36 1.255 . S
O31 Fe23 1.997 . S
O31 C29 1.235 . S
C32 O38 1.287 . S
C32 O39 1.255 . S
O33 Fe22 1.976 . S
O33 C40 1.287 . S
O34 Fe23 1.996 . S
O34 C40 1.255 . S
O35 Fe25 1.976 . S
O35 C30 1.287 . S
O36 Fe22 1.996 . S
O36 C30 1.255 . S
C37 O41 1.295 . S
C37 O42 1.235 . S
O38 Fe23 1.976 . S
O38 C32 1.287 . S
O39 Fe25 1.996 . S
O39 C32 1.255 . S
C40 O33 1.287 . S
C40 O34 1.255 . S
O41 Fe23 2.002 . S
O41 C37 1.295 . S
O42 Fe25 1.997 . S
O42 C37 1.235 . S
C43 O26 1.295 . S
C43 O27 1.235 . S
Fe44 O46 1.918 . S
Fe44 O49 1.997 . S
Fe44 O50 2.002 . S
Fe44 O55 1.976 . S
Fe44 O58 1.996 . S
Fe45 O46 1.918 . S
Fe45 O53 1.997 1_554 S
Fe45 O56 1.996 . S
Fe45 O60 1.976 . S
Fe45 O63 2.002 1_554 S
O46 Fe44 1.918 . S
O46 Fe45 1.918 . S
O46 Fe47 1.918 . S
Fe47 O46 1.918 . S
Fe47 O48 2.002 1_554 S
Fe47 O57 1.976 . S
Fe47 O61 1.996 . S
Fe47 O64 1.997 1_554 S
O48 Fe47 2.002 1_556 S
O48 C65 1.295 . S
O49 Fe44 1.997 . S
O49 C65 1.235 1_554 S
O50 Fe44 2.002 . S
O50 C51 1.295 1_554 S
C51 O50 1.295 1_556 S
C51 O53 1.235 . S
C52 O57 1.287 . S
C52 O58 1.255 . S
O53 Fe45 1.997 1_556 S
O53 C51 1.235 . S
C54 O60 1.287 . S
C54 O61 1.255 . S
O55 Fe44 1.976 . S
O55 C62 1.287 . S
O56 Fe45 1.996 . S
O56 C62 1.255 . S
O57 Fe47 1.976 . S
O57 C52 1.287 . S
O58 Fe44 1.996 . S
O58 C52 1.255 . S
C59 O63 1.295 . S
C59 O64 1.235 . S
O60 Fe45 1.976 . S
O60 C54 1.287 . S
O61 Fe47 1.996 . S
O61 C54 1.255 . S
C62 O55 1.287 . S
C62 O56 1.255 . S
O63 Fe45 2.002 1_556 S
O63 C59 1.295 . S
O64 Fe47 1.997 1_556 S
O64 C59 1.235 . S
C65 O48 1.295 . S
C65 O49 1.235 1_556 S
Fe66 O68 1.918 . S
Fe66 O71 1.997 . S
Fe66 O72 2.002 . S
Fe66 O77 1.976 . S
Fe66 O80 1.996 . S
Fe67 O68 1.918 . S
Fe67 O75 1.997 . S
Fe67 O78 1.996 . S
Fe67 O82 1.976 . S
Fe67 O85 2.002 . S
O68 Fe66 1.918 . S
O68 Fe67 1.918 . S
O68 Fe69 1.918 . S
Fe69 O68 1.918 . S
Fe69 O70 2.002 . S
Fe69 O79 1.976 . S
Fe69 O83 1.996 . S
Fe69 O86 1.997 . S
O70 Fe69 2.002 . S
O70 C87 1.295 . S
O71 Fe66 1.997 . S
O71 C87 1.235 . S
O72 Fe66 2.002 . S
O72 C73 1.295 . S
C73 O72 1.295 . S
C73 O75 1.235 . S
C74 O79 1.287 . S
C74 O80 1.255 . S
O75 Fe67 1.997 . S
O75 C73 1.235 . S
C76 O82 1.287 . S
C76 O83 1.255 . S
O77 Fe66 1.976 . S
O77 C84 1.287 . S
O78 Fe67 1.996 . S
O78 C84 1.255 . S
O79 Fe69 1.976 . S
O79 C74 1.287 . S
O80 Fe66 1.996 . S
O80 C74 1.255 . S
C81 O85 1.295 . S
C81 O86 1.235 . S
O82 Fe67 1.976 . S
O82 C76 1.287 . S
O83 Fe69 1.996 . S
O83 C76 1.255 . S
C84 O77 1.287 . S
C84 O78 1.255 . S
O85 Fe67 2.002 . S
O85 C81 1.295 . S
O86 Fe69 1.997 . S
O86 C81 1.235 . S
C87 O70 1.295 . S
C87 O71 1.235 . S
O88 Cd89 2.300 . S
O88 C95 1.275 . S
Cd89 O88 2.300 . S
Cd89 O97 2.381 . S
Cd89 O98 2.378 . S
O90 Cd91 2.385 . S
O90 C95 1.255 . S
Cd91 O90 2.385 . S
Cd91 O92 2.317 . S
O92 Cd91 2.317 . S
O92 C93 1.232 . S
C93 O92 1.232 . S
C93 O94 1.218 . S
O94 C93 1.218 . S
C95 O88 1.275 . S
C95 O90 1.255 . S
C96 O97 1.258 . S
C96 O98 1.256 . S
O97 Cd89 2.381 . S
O97 C96 1.258 . S
O98 Cd89 2.378 . S
O98 C96 1.256 . S
O99 Cd100 2.300 . S
O99 C106 1.275 . S
Cd100 O99 2.300 . S
Cd100 O108 2.381 . S
Cd100 O109 2.378 . S
O101 Cd102 2.385 . S
O101 C106 1.255 . S
Cd102 O101 2.385 . S
Cd102 O103 2.317 . S
O103 Cd102 2.317 . S
O103 C104 1.232 . S
C104 O103 1.232 . S
C104 O105 1.218 . S
O105 C104 1.218 . S
C106 O99 1.275 . S
C106 O101 1.255 . S
C107 O108 1.258 . S
C107 O109 1.256 . S
O108 Cd100 2.381 . S
O108 C107 1.258 . S
O109 Cd100 2.378 . S
O109 C107 1.256 . S
O110 Cd111 2.300 . S
O110 C117 1.275 . S
Cd111 O110 2.300 . S
Cd111 O119 2.381 . S
Cd111 O120 2.378 . S
O112 Cd113 2.385 . S
O112 C117 1.255 . S
Cd113 O112 2.385 . S
Cd113 O114 2.317 . S
O114 Cd113 2.317 . S
O114 C115 1.232 . S
C115 O114 1.232 . S
C115 O116 1.218 . S
O116 C115 1.218 . S
C117 O110 1.275 . S
C117 O112 1.255 . S
C118 O119 1.258 . S
C118 O120 1.256 . S
O119 Cd111 2.381 . S
O119 C118 1.258 . S
O120 Cd111 2.378 . S
O120 C118 1.256 . S
O121 Cd122 2.300 . S
O121 C128 1.275 . S
Cd122 O121 2.300 . S
Cd122 O130 2.381 . S
Cd122 O131 2.378 . S
O123 Cd124 2.385 . S
O123 C128 1.255 . S
Cd124 O123 2.385 . S
Cd124 O125 2.317 . S
O125 Cd124 2.317 . S
O125 C126 1.232 . S
C126 O125 1.232 . S
C126 O127 1.218 . S
O127 C126 1.218 . S
C128 O121 1.275 . S
C128 O123 1.255 . S
C129 O130 1.258 . S
C129 O131 1.256 . S
O130 Cd122 2.381 . S
O130 C129 1.258 . S
O131 Cd122 2.378 . S
O131 C129 1.256 . S
O132 Cd133 2.300 . S
O132 C139 1.275 . S
Cd133 O132 2.300 . S
Cd133 O141 2.381 . S
Cd133 O142 2.378 . S
O134 Cd135 2.385 . S
O134 C139 1.255 . S
Cd135 O134 2.385 . S
Cd135 O136 2.317 . S
O136 Cd135 2.317 . S
O136 C137 1.232 . S
C137 O136 1.232 . S
C137 O138 1.218 . S
O138 C137 1.218 . S
C139 O132 1.275 . S
C139 O134 1.255 . S
C140 O141 1.258 . S
C140 O142 1.256 . S
O141 Cd133 2.381 . S
O141 C140 1.258 . S
O142 Cd133 2.378 . S
O142 C140 1.256 . S
O143 Cd144 2.300 . S
O143 C150 1.275 . S
Cd144 O143 2.300 . S
Cd144 O152 2.381 . S
Cd144 O153 2.378 . S
O145 Cd146 2.385 . S
O145 C150 1.255 . S
Cd146 O145 2.385 . S
Cd146 O147 2.317 . S
O147 Cd146 2.317 . S
O147 C148 1.232 . S
C148 O147 1.232 . S
C148 O149 1.218 . S
O149 C148 1.218 . S
C150 O143 1.275 . S
C150 O145 1.255 . S
C151 O152 1.258 . S
C151 O153 1.256 . S
O152 Cd144 2.381 . S
O152 C151 1.258 . S
O153 Cd144 2.378 . S
O153 C151 1.256 . S
O154 Cd155 2.300 . S
O154 C161 1.275 . S
Cd155 O154 2.300 . S
Cd155 O163 2.381 . S
Cd155 O164 2.378 . S
O156 Cd157 2.385 . S
O156 C161 1.255 . S
Cd157 O156 2.385 . S
Cd157 O158 2.317 . S
O158 Cd157 2.317 . S
O158 C159 1.232 . S
C159 O158 1.232 . S
C159 O160 1.218 . S
O160 C159 1.218 . S
C161 O154 1.275 . S
C161 O156 1.255 . S
C162 O163 1.258 . S
C162 O164 1.256 . S
O163 Cd155 2.381 . S
O163 C162 1.258 . S
O164 Cd155 2.378 . S
O164 C162 1.256 . S
O165 Cd166 2.300 . S
O165 C172 1.275 . S
Cd166 O165 2.300 . S
Cd166 O174 2.381 . S
Cd166 O175 2.378 . S
O167 Cd168 2.385 . S
O167 C172 1.255 . S
Cd168 O167 2.385 . S
Cd168 O169 2.317 . S
O169 Cd168 2.317 . S
O169 C170 1.232 . S
C170 O169 1.232 . S
C170 O171 1.218 . S
O171 C170 1.218 . S
C172 O165 1.275 . S
C172 O167 1.255 . S
C173 O174 1.258 . S
C173 O175 1.256 . S
O174 Cd166 2.381 . S
O174 C173 1.258 . S
O175 Cd166 2.378 . S
O175 C173 1.256 . S
C176 C177 1.369 . S
C176 C178 1.419 . S
C176 H180 0.930 . S
C177 C176 1.369 . S
C177 C186 1.429 . S
C178 C176 1.419 . S
C178 C179 1.363 1_565 S
C178 H181 0.929 . S
C179 C178 1.363 1_545 S
C179 C185 1.428 . S
H180 C176 0.930 . S
H181 C178 0.929 . S
S182 N183 1.613 . S
S182 N184 1.610 . S
N183 S182 1.613 . S
N183 C186 1.350 1_545 S
N184 S182 1.610 . S
N184 C185 1.351 . S
C185 C179 1.428 . S
C185 N184 1.351 . S
C185 C186 1.434 1_545 S
C186 C177 1.429 . S
C186 N183 1.350 1_565 S
C186 C185 1.434 1_565 S
C187 C188 1.369 . S
C187 C189 1.419 . S
C187 H191 0.930 . S
C188 C187 1.369 . S
C188 C197 1.429 . S
C189 C187 1.419 . S
C189 C190 1.363 . S
C189 H192 0.929 . S
C190 C189 1.363 . S
C190 C196 1.428 . S
H191 C187 0.930 . S
H192 C189 0.929 . S
S193 N194 1.613 . S
S193 N195 1.610 . S
N194 S193 1.613 . S
N194 C197 1.350 . S
N195 S193 1.610 . S
N195 C196 1.351 . S
C196 C190 1.428 . S
C196 N195 1.351 . S
C196 C197 1.434 . S
C197 C188 1.429 . S
C197 N194 1.350 . S
C197 C196 1.434 . S
C198 C199 1.369 1_565 S
C198 C200 1.419 . S
C198 H202 0.930 . S
C199 C198 1.369 1_545 S
C199 C208 1.429 1_545 S
C200 C198 1.419 . S
C200 C201 1.363 . S
C200 H203 0.929 . S
C201 C200 1.363 . S
C201 C207 1.428 . S
H202 C198 0.930 . S
H203 C200 0.929 . S
S204 N205 1.613 . S
S204 N206 1.610 . S
N205 S204 1.613 . S
N205 C208 1.350 . S
N206 S204 1.610 . S
N206 C207 1.351 . S
C207 C201 1.428 . S
C207 N206 1.351 . S
C207 C208 1.434 . S
C208 C199 1.429 1_565 S
C208 N205 1.350 . S
C208 C207 1.434 . S
C209 C210 1.369 . S
C209 C211 1.419 . S
C209 H213 0.930 . S
C210 C209 1.369 . S
C210 C219 1.429 . S
C211 C209 1.419 . S
C211 C212 1.363 . S
C211 H214 0.929 . S
C212 C211 1.363 . S
C212 C218 1.428 . S
H213 C209 0.930 . S
H214 C211 0.929 . S
S215 N216 1.613 . S
S215 N217 1.610 . S
N216 S215 1.613 . S
N216 C219 1.350 . S
N217 S215 1.610 . S
N217 C218 1.351 . S
C218 C212 1.428 . S
C218 N217 1.351 . S
C218 C219 1.434 . S
C219 C210 1.429 . S
C219 N216 1.350 . S
C219 C218 1.434 . S
C220 C221 1.369 . S
C220 C222 1.419 . S
C220 H224 0.930 . S
C221 C220 1.369 . S
C221 C230 1.429 . S
C222 C220 1.419 . S
C222 C223 1.363 . S
C222 H225 0.929 . S
C223 C222 1.363 . S
C223 C229 1.428 . S
H224 C220 0.930 . S
H225 C222 0.929 . S
S226 N227 1.613 . S
S226 N228 1.610 . S
N227 S226 1.613 . S
N227 C230 1.350 . S
N228 S226 1.610 . S
N228 C229 1.351 . S
C229 C223 1.428 . S
C229 N228 1.351 . S
C229 C230 1.434 . S
C230 C221 1.429 . S
C230 N227 1.350 . S
C230 C229 1.434 . S
C231 C232 1.369 . S
C231 C233 1.419 1_655 S
C231 H235 0.930 . S
C232 C231 1.369 . S
C232 C241 1.429 1_656 S
C233 C231 1.419 1_455 S
C233 C234 1.363 . S
C233 H236 0.929 . S
C234 C233 1.363 . S
C234 C240 1.428 1_556 S
H235 C231 0.930 . S
H236 C233 0.929 . S
S237 N238 1.613 . S
S237 N239 1.610 . S
N238 S237 1.613 . S
N238 C241 1.350 . S
N239 S237 1.610 . S
N239 C240 1.351 . S
C240 C234 1.428 1_554 S
C240 N239 1.351 . S
C240 C241 1.434 . S
C241 C232 1.429 1_454 S
C241 N238 1.350 . S
C241 C240 1.434 . S
C242 C243 1.369 . S
C242 C244 1.419 . S
C242 H246 0.930 . S
C243 C242 1.369 . S
C243 C252 1.429 . S
C244 C242 1.419 . S
C244 C245 1.363 . S
C244 H247 0.929 . S
C245 C244 1.363 . S
C245 C251 1.428 . S
H246 C242 0.930 . S
H247 C244 0.929 . S
S248 N249 1.613 . S
S248 N250 1.610 . S
N249 S248 1.613 . S
N249 C252 1.350 . S
N250 S248 1.610 . S
N250 C251 1.351 . S
C251 C245 1.428 . S
C251 N250 1.351 . S
C251 C252 1.434 . S
C252 C243 1.429 . S
C252 N249 1.350 . S
C252 C251 1.434 . S
C253 C254 1.369 1_655 S
C253 C255 1.419 . S
C253 H257 0.930 . S
C254 C253 1.369 1_455 S
C254 C263 1.429 . S
C255 C253 1.419 . S
C255 C256 1.363 . S
C255 H258 0.929 . S
C256 C255 1.363 . S
C256 C262 1.428 1_655 S
H257 C253 0.930 . S
H258 C255 0.929 . S
S259 N260 1.613 . S
S259 N261 1.610 . S
N260 S259 1.613 . S
N260 C263 1.350 . S
N261 S259 1.610 . S
N261 C262 1.351 . S
C262 C256 1.428 1_455 S
C262 N261 1.351 . S
C262 C263 1.434 . S
C263 C254 1.429 . S
C263 N260 1.350 . S
C263 C262 1.434 . S
C264 C265 1.369 . S
C264 C266 1.419 . S
C264 H268 0.930 . S
C265 C264 1.369 . S
C265 C274 1.429 . S
C266 C264 1.419 . S
C266 C267 1.363 . S
C266 H269 0.929 . S
C267 C266 1.363 . S
C267 C273 1.428 . S
H268 C264 0.930 . S
H269 C266 0.929 . S
S270 N271 1.613 1_565 S
S270 N272 1.610 . S
N271 S270 1.613 1_545 S
N271 C274 1.350 . S
N272 S270 1.610 . S
N272 C273 1.351 1_565 S
C273 C267 1.428 . S
C273 N272 1.351 1_545 S
C273 C274 1.434 . S
C274 C265 1.429 . S
C274 N271 1.350 . S
C274 C273 1.434 . S
C275 C276 1.369 . S
C275 C277 1.419 . S
C275 H279 0.930 . S
C276 C275 1.369 . S
C276 C285 1.429 . S
C277 C275 1.419 . S
C277 C278 1.363 . S
C277 H280 0.929 . S
C278 C277 1.363 . S
C278 C284 1.428 . S
H279 C275 0.930 . S
H280 C277 0.929 . S
S281 N282 1.613 . S
S281 N283 1.610 . S
N282 S281 1.613 . S
N282 C285 1.350 . S
N283 S281 1.610 . S
N283 C284 1.351 . S
C284 C278 1.428 . S
C284 N283 1.351 . S
C284 C285 1.434 . S
C285 C276 1.429 . S
C285 N282 1.350 . S
C285 C284 1.434 . S
C286 C287 1.369 . S
C286 C288 1.419 . S
C286 H290 0.930 . S
C287 C286 1.369 . S
C287 C296 1.429 . S
C288 C286 1.419 . S
C288 C289 1.363 . S
C288 H291 0.929 . S
C289 C288 1.363 . S
C289 C295 1.428 . S
H290 C286 0.930 . S
H291 C288 0.929 . S
S292 N293 1.613 . S
S292 N294 1.610 . S
N293 S292 1.613 . S
N293 C296 1.350 1_554 S
N294 S292 1.610 . S
N294 C295 1.351 1_554 S
C295 C289 1.428 . S
C295 N294 1.351 1_556 S
C295 C296 1.434 . S
C296 C287 1.429 . S
C296 N293 1.350 1_556 S
C296 C295 1.434 . S
C297 C298 1.369 . S
C297 C299 1.419 . S
C297 H301 0.930 . S
C298 C297 1.369 . S
C298 C307 1.429 . S
C299 C297 1.419 . S
C299 C300 1.363 . S
C299 H302 0.929 . S
C300 C299 1.363 . S
C300 C306 1.428 . S
H301 C297 0.930 . S
H302 C299 0.929 . S
S303 N304 1.613 . S
S303 N305 1.610 . S
N304 S303 1.613 . S
N304 C307 1.350 . S
N305 S303 1.610 . S
N305 C306 1.351 . S
C306 C300 1.428 . S
C306 N305 1.351 . S
C306 C307 1.434 . S
C307 C298 1.429 . S
C307 N304 1.350 . S
C307 C306 1.434 . S
C308 C309 1.369 . S
C308 C310 1.419 . S
C308 H312 0.930 . S
C309 C308 1.369 . S
C309 C318 1.429 . S
C310 C308 1.419 . S
C310 C311 1.363 . S
C310 H313 0.929 . S
C311 C310 1.363 . S
C311 C317 1.428 . S
H312 C308 0.930 . S
H313 C310 0.929 . S
S314 N315 1.613 . S
S314 N316 1.610 . S
N315 S314 1.613 . S
N315 C318 1.350 . S
N316 S314 1.610 . S
N316 C317 1.351 . S
C317 C311 1.428 . S
C317 N316 1.351 . S
C317 C318 1.434 . S
C318 C309 1.429 . S
C318 N315 1.350 . S
C318 C317 1.434 . S
C319 C320 1.369 1_655 S
C319 C321 1.419 . S
C319 H323 0.930 1_655 S
C320 C319 1.369 1_455 S
C320 C329 1.429 1_455 S
C321 C319 1.419 . S
C321 C322 1.363 . S
C321 H324 0.929 . S
C322 C321 1.363 . S
C322 C328 1.428 . S
H323 C319 0.930 1_455 S
H324 C321 0.929 . S
S325 N326 1.613 . S
S325 N327 1.598 1_556 S
N326 S325 1.613 . S
N326 C329 1.350 1_556 S
N327 S325 1.598 1_554 S
N327 C328 1.362 . S
C328 C322 1.428 . S
C328 N327 1.362 . S
C328 C329 1.434 . S
C329 C320 1.429 1_655 S
C329 N326 1.350 1_554 S
C329 C328 1.434 . S
C330 C331 1.369 . S
C330 C332 1.419 . S
C330 H334 0.930 . S
C331 C330 1.369 . S
C331 C340 1.429 . S
C332 C330 1.419 . S
C332 C333 1.363 . S
C332 H335 0.929 . S
C333 C332 1.363 . S
C333 C339 1.428 . S
H334 C330 0.930 . S
H335 C332 0.929 . S
S336 N337 1.613 . S
S336 N338 1.610 . S
N337 S336 1.613 . S
N337 C340 1.350 . S
N338 S336 1.610 . S
N338 C339 1.351 . S
C339 C333 1.428 . S
C339 N338 1.351 . S
C339 C340 1.434 . S
C340 C331 1.429 . S
C340 N337 1.350 . S
C340 C339 1.434 . S
C341 C342 1.369 . S
C341 C343 1.419 . S
C341 H345 0.930 . S
C342 C341 1.369 . S
C342 C351 1.429 . S
C343 C341 1.419 . S
C343 C344 1.363 1_655 S
C343 H346 0.929 1_655 S
C344 C343 1.363 1_455 S
C344 C350 1.428 1_455 S
H345 C341 0.930 . S
H346 C343 0.929 1_455 S
S347 N348 1.613 . S
S347 N349 1.610 . S
N348 S347 1.613 . S
N348 C351 1.350 . S
N349 S347 1.610 . S
N349 C350 1.351 . S
C350 C344 1.428 1_655 S
C350 N349 1.351 . S
C350 C351 1.434 . S
C351 C342 1.429 . S
C351 N348 1.350 . S
C351 C350 1.434 . S
C352 C353 1.369 . S
C352 C354 1.419 . S
C352 H356 0.930 . S
C353 C352 1.369 . S
C353 C362 1.429 . S
C354 C352 1.419 . S
C354 C355 1.363 . S
C354 H357 0.929 . S
C355 C354 1.363 . S
C355 C361 1.428 . S
H356 C352 0.930 . S
H357 C354 0.929 . S
S358 N359 1.613 . S
S358 N360 1.610 . S
N359 S358 1.613 . S
N359 C362 1.350 . S
N360 S358 1.610 . S
N360 C361 1.351 . S
C361 C355 1.428 . S
C361 N360 1.351 . S
C361 C362 1.434 . S
C362 C353 1.429 . S
C362 N359 1.350 . S
C362 C361 1.434 . S
C363 C364 1.369 . S
C363 C365 1.419 . S
C363 H367 0.930 . S
C364 C363 1.369 . S
C364 C373 1.429 . S
C365 C363 1.419 . S
C365 C366 1.363 . S
C365 H368 0.929 . S
C366 C365 1.363 . S
C366 C372 1.428 . S
H367 C363 0.930 . S
H368 C365 0.929 . S
S369 N370 1.613 . S
S369 N371 1.610 . S
N370 S369 1.613 . S
N370 C373 1.350 . S
N371 S369 1.610 . S
N371 C372 1.351 . S
C372 C366 1.428 . S
C372 N371 1.351 . S
C372 C373 1.434 . S
C373 C364 1.429 . S
C373 N370 1.350 . S
C373 C372 1.434 . S
C374 C375 1.369 . S
C374 C376 1.419 . S
C374 H378 0.930 . S
C375 C374 1.369 . S
C375 C384 1.429 . S
C376 C374 1.419 . S
C376 C377 1.363 . S
C376 H379 0.929 . S
C377 C376 1.363 . S
C377 C383 1.428 . S
H378 C374 0.930 . S
H379 C376 0.929 . S
S380 N381 1.613 . S
S380 N382 1.610 . S
N381 S380 1.613 . S
N381 C384 1.350 . S
N382 S380 1.610 . S
N382 C383 1.351 . S
C383 C377 1.428 . S
C383 N382 1.351 . S
C383 C384 1.434 . S
C384 C375 1.429 . S
C384 N381 1.350 . S
C384 C383 1.434 . S
C385 C386 1.369 . S
C385 C387 1.419 . S
C385 H389 0.930 . S
C386 C385 1.369 . S
C386 C395 1.429 . S
C387 C385 1.419 . S
C387 C388 1.363 . S
C387 H390 0.929 . S
C388 C387 1.363 . S
C388 C394 1.428 . S
H389 C385 0.930 . S
H390 C387 0.929 . S
S391 N392 1.613 . S
S391 N393 1.610 . S
N392 S391 1.613 . S
N392 C395 1.350 . S
N393 S391 1.610 . S
N393 C394 1.351 . S
C394 C388 1.428 . S
C394 N393 1.351 . S
C394 C395 1.434 . S
C395 C386 1.429 . S
C395 N392 1.350 . S
C395 C394 1.434 . S
C396 C397 1.369 . S
C396 C398 1.419 . S
C396 H400 0.930 . S
C397 C396 1.369 . S
C397 C406 1.429 . S
C398 C396 1.419 . S
C398 C399 1.363 . S
C398 H401 0.929 . S
C399 C398 1.363 . S
C399 C405 1.428 . S
H400 C396 0.930 . S
H401 C398 0.929 . S
S402 N403 1.613 . S
S402 N404 1.610 . S
N403 S402 1.613 . S
N403 C406 1.350 . S
N404 S402 1.610 . S
N404 C405 1.351 . S
C405 C399 1.428 . S
C405 N404 1.351 . S
C405 C406 1.434 . S
C406 C397 1.429 . S
C406 N403 1.350 . S
C406 C405 1.434 . S
C407 C408 1.369 . S
C407 C409 1.419 . S
C407 H411 0.930 . S
C408 C407 1.369 . S
C408 C417 1.429 . S
C409 C407 1.419 . S
C409 C410 1.363 . S
C409 H412 0.929 . S
C410 C409 1.363 . S
C410 C416 1.428 . S
H411 C407 0.930 . S
H412 C409 0.929 . S
S413 N414 1.613 . S
S413 N415 1.610 1_554 S
N414 S413 1.613 . S
N414 C417 1.350 1_554 S
N415 S413 1.610 1_556 S
N415 C416 1.351 . S
C416 C410 1.428 . S
C416 N415 1.351 . S
C416 C417 1.434 . S
C417 C408 1.429 . S
C417 N414 1.350 1_556 S
C417 C416 1.434 . S
C418 C419 1.369 . S
C418 C420 1.419 . S
C418 H422 0.930 . S
C419 C418 1.369 . S
C419 C428 1.429 . S
C420 C418 1.419 . S
C420 C421 1.363 . S
C420 H423 0.929 . S
C421 C420 1.363 . S
C421 C427 1.428 . S
H422 C418 0.930 . S
H423 C420 0.929 . S
S424 N425 1.613 . S
S424 N426 1.610 . S
N425 S424 1.613 . S
N425 C428 1.350 . S
N426 S424 1.610 . S
N426 C427 1.351 . S
C427 C421 1.428 . S
C427 N426 1.351 . S
C427 C428 1.434 . S
C428 C419 1.429 . S
C428 N425 1.350 . S
C428 C427 1.434 . S
C429 C430 1.369 . S
C429 C431 1.419 . S
C429 H433 0.930 . S
C430 C429 1.369 . S
C430 C439 1.429 . S
C431 C429 1.419 . S
C431 C432 1.363 . S
C431 H434 0.929 . S
C432 C431 1.363 . S
C432 C438 1.428 . S
H433 C429 0.930 . S
H434 C431 0.929 . S
S435 N436 1.613 . S
S435 N437 1.610 . S
N436 S435 1.613 . S
N436 C439 1.350 . S
N437 S435 1.610 . S
N437 C438 1.351 . S
C438 C432 1.428 . S
C438 N437 1.351 . S
C438 C439 1.434 . S
C439 C430 1.429 . S
C439 N436 1.350 . S
C439 C438 1.434 . S
C177 C7 1.645 . S
C179 C95 1.526 . S
C188 C37 1.491 . S
C190 C104 1.121 . S
C199 C54 1.313 . S
C201 C115 0.978 . S
C212 C126 1.141 . S
C210 C87 1.220 . S
C223 C139 1.360 . S
C221 C30 1.358 . S
C232 C51 1.311 . S
C234 C148 0.937 . S
C243 C84 1.192 . S
C245 C159 1.084 . S
C254 C10 1.698 . S
C256 C172 1.582 . S
C265 C59 1.298 . S
C267 C170 0.912 1_545 S
C278 C137 1.191 . S
C276 C74 1.416 . S
C289 C150 1.593 . S
C287 C18 1.682 1_545 S
C298 C32 1.696 . S
C300 C161 1.698 . S
C311 C106 1.441 . S
C309 C73 1.461 . S
C320 C15 1.738 . S
C322 C117 1.657 . S
C333 C128 1.568 . S
C331 C43 1.570 . S
C344 C93 0.907 . S
C342 C62 1.283 . S
C355 C162 1.478 . S
C353 C21 1.451 . S
C366 C173 1.491 . S
C364 C29 1.541 . S
C375 C52 1.394 . S
C377 C140 1.383 . S
C388 C151 1.455 . S
C386 C81 1.549 . S
C399 C118 1.569 . S
C397 C40 1.665 . S
C408 C65 1.425 . S
C410 C129 1.418 . S
C421 C96 1.417 . S
C419 C76 1.495 . S
C432 C107 1.444 . S
C430 C8 1.488 . S
