# Generated by pormake.
# Topology gar, (4,6)-cn, num edge types: 1
# Building blocks:
#     Node 0, Type 0, BuildingBlock: UXUYUI_clean_sbu_0, # of connection points: 4
#     Node 1, Type 0, BuildingBlock: UXUYUI_clean_sbu_0, # of connection points: 4
#     Node 2, Type 0, BuildingBlock: UXUYUI_clean_sbu_0, # of connection points: 4
#     Node 3, Type 0, BuildingBlock: UXUYUI_clean_sbu_0, # of connection points: 4
#     Node 4, Type 0, BuildingBlock: UXUYUI_clean_sbu_0, # of connection points: 4
#     Node 5, Type 0, BuildingBlock: UXUYUI_clean_sbu_0, # of connection points: 4
#     Node 6, Type 0, BuildingBlock: UXUYUI_clean_sbu_0, # of connection points: 4
#     Node 7, Type 0, BuildingBlock: UXUYUI_clean_sbu_0, # of connection points: 4
#     Node 8, Type 0, BuildingBlock: UXUYUI_clean_sbu_0, # of connection points: 4
#     Node 9, Type 0, BuildingBlock: UXUYUI_clean_sbu_0, # of connection points: 4
#     Node 10, Type 0, BuildingBlock: UXUYUI_clean_sbu_0, # of connection points: 4
#     Node 11, Type 0, BuildingBlock: UXUYUI_clean_sbu_0, # of connection points: 4
#     Node 12, Type 0, BuildingBlock: UXUYUI_clean_sbu_0, # of connection points: 4
#     Node 13, Type 0, BuildingBlock: UXUYUI_clean_sbu_0, # of connection points: 4
#     Node 14, Type 0, BuildingBlock: UXUYUI_clean_sbu_0, # of connection points: 4
#     Node 15, Type 0, BuildingBlock: UXUYUI_clean_sbu_0, # of connection points: 4
#     Node 16, Type 0, BuildingBlock: UXUYUI_clean_sbu_0, # of connection points: 4
#     Node 17, Type 0, BuildingBlock: UXUYUI_clean_sbu_0, # of connection points: 4
#     Node 18, Type 0, BuildingBlock: UXUYUI_clean_sbu_0, # of connection points: 4
#     Node 19, Type 0, BuildingBlock: UXUYUI_clean_sbu_0, # of connection points: 4
#     Node 20, Type 0, BuildingBlock: UXUYUI_clean_sbu_0, # of connection points: 4
#     Node 21, Type 0, BuildingBlock: UXUYUI_clean_sbu_0, # of connection points: 4
#     Node 22, Type 0, BuildingBlock: UXUYUI_clean_sbu_0, # of connection points: 4
#     Node 23, Type 0, BuildingBlock: UXUYUI_clean_sbu_0, # of connection points: 4
#     Node 24, Type 1, BuildingBlock: PAMTOO_clean_sbu_0, # of connection points: 6
#     Node 25, Type 1, BuildingBlock: PAMTOO_clean_sbu_0, # of connection points: 6
#     Node 26, Type 1, BuildingBlock: PAMTOO_clean_sbu_0, # of connection points: 6
#     Node 27, Type 1, BuildingBlock: PAMTOO_clean_sbu_0, # of connection points: 6
#     Node 28, Type 1, BuildingBlock: PAMTOO_clean_sbu_0, # of connection points: 6
#     Node 29, Type 1, BuildingBlock: PAMTOO_clean_sbu_0, # of connection points: 6
#     Node 30, Type 1, BuildingBlock: PAMTOO_clean_sbu_0, # of connection points: 6
#     Node 31, Type 1, BuildingBlock: PAMTOO_clean_sbu_0, # of connection points: 6
#     Node 32, Type 1, BuildingBlock: PAMTOO_clean_sbu_0, # of connection points: 6
#     Node 33, Type 1, BuildingBlock: PAMTOO_clean_sbu_0, # of connection points: 6
#     Node 34, Type 1, BuildingBlock: PAMTOO_clean_sbu_0, # of connection points: 6
#     Node 35, Type 1, BuildingBlock: PAMTOO_clean_sbu_0, # of connection points: 6
#     Node 36, Type 1, BuildingBlock: PAMTOO_clean_sbu_0, # of connection points: 6
#     Node 37, Type 1, BuildingBlock: PAMTOO_clean_sbu_0, # of connection points: 6
#     Node 38, Type 1, BuildingBlock: PAMTOO_clean_sbu_0, # of connection points: 6
#     Node 39, Type 1, BuildingBlock: PAMTOO_clean_sbu_0, # of connection points: 6
#     Edge 40, Type (0, 1), BuildingBlock: KIFKEQ_clean_linker_1, # of connection points: 2
#     Edge 41, Type (0, 1), BuildingBlock: KIFKEQ_clean_linker_1, # of connection points: 2
#     Edge 42, Type (0, 1), BuildingBlock: KIFKEQ_clean_linker_1, # of connection points: 2
#     Edge 43, Type (0, 1), BuildingBlock: KIFKEQ_clean_linker_1, # of connection points: 2
#     Edge 44, Type (0, 1), BuildingBlock: KIFKEQ_clean_linker_1, # of connection points: 2
#     Edge 45, Type (0, 1), BuildingBlock: KIFKEQ_clean_linker_1, # of connection points: 2
#     Edge 46, Type (0, 1), BuildingBlock: KIFKEQ_clean_linker_1, # of connection points: 2
#     Edge 47, Type (0, 1), BuildingBlock: KIFKEQ_clean_linker_1, # of connection points: 2
#     Edge 48, Type (0, 1), BuildingBlock: KIFKEQ_clean_linker_1, # of connection points: 2
#     Edge 49, Type (0, 1), BuildingBlock: KIFKEQ_clean_linker_1, # of connection points: 2
#     Edge 50, Type (0, 1), BuildingBlock: KIFKEQ_clean_linker_1, # of connection points: 2
#     Edge 51, Type (0, 1), BuildingBlock: KIFKEQ_clean_linker_1, # of connection points: 2
#     Edge 52, Type (0, 1), BuildingBlock: KIFKEQ_clean_linker_1, # of connection points: 2
#     Edge 53, Type (0, 1), BuildingBlock: KIFKEQ_clean_linker_1, # of connection points: 2
#     Edge 54, Type (0, 1), BuildingBlock: KIFKEQ_clean_linker_1, # of connection points: 2
#     Edge 55, Type (0, 1), BuildingBlock: KIFKEQ_clean_linker_1, # of connection points: 2
#     Edge 56, Type (0, 1), BuildingBlock: KIFKEQ_clean_linker_1, # of connection points: 2
#     Edge 57, Type (0, 1), BuildingBlock: KIFKEQ_clean_linker_1, # of connection points: 2
#     Edge 58, Type (0, 1), BuildingBlock: KIFKEQ_clean_linker_1, # of connection points: 2
#     Edge 59, Type (0, 1), BuildingBlock: KIFKEQ_clean_linker_1, # of connection points: 2
#     Edge 60, Type (0, 1), BuildingBlock: KIFKEQ_clean_linker_1, # of connection points: 2
#     Edge 61, Type (0, 1), BuildingBlock: KIFKEQ_clean_linker_1, # of connection points: 2
#     Edge 62, Type (0, 1), BuildingBlock: KIFKEQ_clean_linker_1, # of connection points: 2
#     Edge 63, Type (0, 1), BuildingBlock: KIFKEQ_clean_linker_1, # of connection points: 2
#     Edge 64, Type (0, 1), BuildingBlock: KIFKEQ_clean_linker_1, # of connection points: 2
#     Edge 65, Type (0, 1), BuildingBlock: KIFKEQ_clean_linker_1, # of connection points: 2
#     Edge 66, Type (0, 1), BuildingBlock: KIFKEQ_clean_linker_1, # of connection points: 2
#     Edge 67, Type (0, 1), BuildingBlock: KIFKEQ_clean_linker_1, # of connection points: 2
#     Edge 68, Type (0, 1), BuildingBlock: KIFKEQ_clean_linker_1, # of connection points: 2
#     Edge 69, Type (0, 1), BuildingBlock: KIFKEQ_clean_linker_1, # of connection points: 2
#     Edge 70, Type (0, 1), BuildingBlock: KIFKEQ_clean_linker_1, # of connection points: 2
#     Edge 71, Type (0, 1), BuildingBlock: KIFKEQ_clean_linker_1, # of connection points: 2
#     Edge 72, Type (0, 1), BuildingBlock: KIFKEQ_clean_linker_1, # of connection points: 2
#     Edge 73, Type (0, 1), BuildingBlock: KIFKEQ_clean_linker_1, # of connection points: 2
#     Edge 74, Type (0, 1), BuildingBlock: KIFKEQ_clean_linker_1, # of connection points: 2
#     Edge 75, Type (0, 1), BuildingBlock: KIFKEQ_clean_linker_1, # of connection points: 2
#     Edge 76, Type (0, 1), BuildingBlock: KIFKEQ_clean_linker_1, # of connection points: 2
#     Edge 77, Type (0, 1), BuildingBlock: KIFKEQ_clean_linker_1, # of connection points: 2
#     Edge 78, Type (0, 1), BuildingBlock: KIFKEQ_clean_linker_1, # of connection points: 2
#     Edge 79, Type (0, 1), BuildingBlock: KIFKEQ_clean_linker_1, # of connection points: 2
#     Edge 80, Type (0, 1), BuildingBlock: KIFKEQ_clean_linker_1, # of connection points: 2
#     Edge 81, Type (0, 1), BuildingBlock: KIFKEQ_clean_linker_1, # of connection points: 2
#     Edge 82, Type (0, 1), BuildingBlock: KIFKEQ_clean_linker_1, # of connection points: 2
#     Edge 83, Type (0, 1), BuildingBlock: KIFKEQ_clean_linker_1, # of connection points: 2
#     Edge 84, Type (0, 1), BuildingBlock: KIFKEQ_clean_linker_1, # of connection points: 2
#     Edge 85, Type (0, 1), BuildingBlock: KIFKEQ_clean_linker_1, # of connection points: 2
#     Edge 86, Type (0, 1), BuildingBlock: KIFKEQ_clean_linker_1, # of connection points: 2
#     Edge 87, Type (0, 1), BuildingBlock: KIFKEQ_clean_linker_1, # of connection points: 2
#     Edge 88, Type (0, 1), BuildingBlock: KIFKEQ_clean_linker_1, # of connection points: 2
#     Edge 89, Type (0, 1), BuildingBlock: KIFKEQ_clean_linker_1, # of connection points: 2
#     Edge 90, Type (0, 1), BuildingBlock: KIFKEQ_clean_linker_1, # of connection points: 2
#     Edge 91, Type (0, 1), BuildingBlock: KIFKEQ_clean_linker_1, # of connection points: 2
#     Edge 92, Type (0, 1), BuildingBlock: KIFKEQ_clean_linker_1, # of connection points: 2
#     Edge 93, Type (0, 1), BuildingBlock: KIFKEQ_clean_linker_1, # of connection points: 2
#     Edge 94, Type (0, 1), BuildingBlock: KIFKEQ_clean_linker_1, # of connection points: 2
#     Edge 95, Type (0, 1), BuildingBlock: KIFKEQ_clean_linker_1, # of connection points: 2
#     Edge 96, Type (0, 1), BuildingBlock: KIFKEQ_clean_linker_1, # of connection points: 2
#     Edge 97, Type (0, 1), BuildingBlock: KIFKEQ_clean_linker_1, # of connection points: 2
#     Edge 98, Type (0, 1), BuildingBlock: KIFKEQ_clean_linker_1, # of connection points: 2
#     Edge 99, Type (0, 1), BuildingBlock: KIFKEQ_clean_linker_1, # of connection points: 2
#     Edge 100, Type (0, 1), BuildingBlock: KIFKEQ_clean_linker_1, # of connection points: 2
#     Edge 101, Type (0, 1), BuildingBlock: KIFKEQ_clean_linker_1, # of connection points: 2
#     Edge 102, Type (0, 1), BuildingBlock: KIFKEQ_clean_linker_1, # of connection points: 2
#     Edge 103, Type (0, 1), BuildingBlock: KIFKEQ_clean_linker_1, # of connection points: 2
#     Edge 104, Type (0, 1), BuildingBlock: KIFKEQ_clean_linker_1, # of connection points: 2
#     Edge 105, Type (0, 1), BuildingBlock: KIFKEQ_clean_linker_1, # of connection points: 2
#     Edge 106, Type (0, 1), BuildingBlock: KIFKEQ_clean_linker_1, # of connection points: 2
#     Edge 107, Type (0, 1), BuildingBlock: KIFKEQ_clean_linker_1, # of connection points: 2
#     Edge 108, Type (0, 1), BuildingBlock: KIFKEQ_clean_linker_1, # of connection points: 2
#     Edge 109, Type (0, 1), BuildingBlock: KIFKEQ_clean_linker_1, # of connection points: 2
#     Edge 110, Type (0, 1), BuildingBlock: KIFKEQ_clean_linker_1, # of connection points: 2
#     Edge 111, Type (0, 1), BuildingBlock: KIFKEQ_clean_linker_1, # of connection points: 2
#     Edge 112, Type (0, 1), BuildingBlock: KIFKEQ_clean_linker_1, # of connection points: 2
#     Edge 113, Type (0, 1), BuildingBlock: KIFKEQ_clean_linker_1, # of connection points: 2
#     Edge 114, Type (0, 1), BuildingBlock: KIFKEQ_clean_linker_1, # of connection points: 2
#     Edge 115, Type (0, 1), BuildingBlock: KIFKEQ_clean_linker_1, # of connection points: 2
#     Edge 116, Type (0, 1), BuildingBlock: KIFKEQ_clean_linker_1, # of connection points: 2
#     Edge 117, Type (0, 1), BuildingBlock: KIFKEQ_clean_linker_1, # of connection points: 2
#     Edge 118, Type (0, 1), BuildingBlock: KIFKEQ_clean_linker_1, # of connection points: 2
#     Edge 119, Type (0, 1), BuildingBlock: KIFKEQ_clean_linker_1, # of connection points: 2
#     Edge 120, Type (0, 1), BuildingBlock: KIFKEQ_clean_linker_1, # of connection points: 2
#     Edge 121, Type (0, 1), BuildingBlock: KIFKEQ_clean_linker_1, # of connection points: 2
#     Edge 122, Type (0, 1), BuildingBlock: KIFKEQ_clean_linker_1, # of connection points: 2
#     Edge 123, Type (0, 1), BuildingBlock: KIFKEQ_clean_linker_1, # of connection points: 2
#     Edge 124, Type (0, 1), BuildingBlock: KIFKEQ_clean_linker_1, # of connection points: 2
#     Edge 125, Type (0, 1), BuildingBlock: KIFKEQ_clean_linker_1, # of connection points: 2
#     Edge 126, Type (0, 1), BuildingBlock: KIFKEQ_clean_linker_1, # of connection points: 2
#     Edge 127, Type (0, 1), BuildingBlock: KIFKEQ_clean_linker_1, # of connection points: 2
#     Edge 128, Type (0, 1), BuildingBlock: KIFKEQ_clean_linker_1, # of connection points: 2
#     Edge 129, Type (0, 1), BuildingBlock: KIFKEQ_clean_linker_1, # of connection points: 2
#     Edge 130, Type (0, 1), BuildingBlock: KIFKEQ_clean_linker_1, # of connection points: 2
#     Edge 131, Type (0, 1), BuildingBlock: KIFKEQ_clean_linker_1, # of connection points: 2
#     Edge 132, Type (0, 1), BuildingBlock: KIFKEQ_clean_linker_1, # of connection points: 2
#     Edge 133, Type (0, 1), BuildingBlock: KIFKEQ_clean_linker_1, # of connection points: 2
#     Edge 134, Type (0, 1), BuildingBlock: KIFKEQ_clean_linker_1, # of connection points: 2
#     Edge 135, Type (0, 1), BuildingBlock: KIFKEQ_clean_linker_1, # of connection points: 2
# Relax obj value: 0.154
# Max RMSD: 0.254
# Mean RMSD: 0.199
data_MOF--net-gar--node1-UXUYUI_clean_sbu_0--node2-PAMTOO_clean_sbu_0--edge1-KIFKEQ_clean_linker_1
_symmetry_space_group_name_H-M    P1
_symmetry_Int_Tables_number       1
_symmetry_cell_setting            triclinic
loop_
_symmetry_equiv_pos_as_xyz
'x, y, z'
_cell_length_a     73.107552
_cell_length_b     73.397847
_cell_length_c     71.414373
_cell_angle_alpha  96.188758
_cell_angle_beta   95.416204
_cell_angle_gamma 104.77746
loop_
_atom_site_label
_atom_site_type_symbol
_atom_site_fract_x
_atom_site_fract_y
_atom_site_fract_z
_atom_type_partial_charge
Li0 Li 0.01936 0.30554 0.34864 0.0
Li1 Li 0.04223 0.327 0.37483 0.0
Li2 Li 0.05559 0.30726 0.34972 0.0
Li3 Li 0.03737 0.29213 0.37453 0.0
C4 C 0.03931 0.33472 0.32986 0.0
N5 N 0.03433 0.34841 0.29573 0.0
C6 C 0.03462 0.35198 0.32942 0.0
C7 C 0.04171 0.32454 0.313 0.0
C8 C 0.03208 0.35863 0.312 0.0
C9 C 0.03907 0.33167 0.29588 0.0
C10 C 0.01029 0.31529 0.39063 0.0
C11 C 0.01043 0.32646 0.42369 0.0
N12 N 0.99501 0.33296 0.41901 0.0
C13 C 0.99434 0.32193 0.38618 0.0
C14 C 0.01832 0.31742 0.40956 0.0
C15 C 0.98685 0.33087 0.40072 0.0
C16 C 0.98089 0.28559 0.3302 0.0
N17 N 0.99367 0.30302 0.33483 0.0
C18 C 0.969 0.31799 0.3258 0.0
C19 C 0.98802 0.31906 0.33255 0.0
C20 C 0.95533 0.30022 0.32127 0.0
C21 C 0.96173 0.28387 0.32328 0.0
H22 H 0.98537 0.27297 0.33252 0.0
H23 H 0.99806 0.33283 0.33682 0.0
C24 C 0.05872 0.35878 0.40538 0.0
N25 N 0.04494 0.35153 0.39031 0.0
C26 C 0.05897 0.37563 0.41696 0.0
C27 C 0.03116 0.37757 0.39712 0.0
C28 C 0.03147 0.36076 0.38594 0.0
C29 C 0.04493 0.38526 0.41305 0.0
H30 H 0.06946 0.35144 0.40858 0.0
H31 H 0.02059 0.35477 0.37396 0.0
C32 C 0.03221 0.27165 0.33067 0.0
N33 N 0.03147 0.24602 0.2991 0.0
C34 C 0.04111 0.25703 0.33215 0.0
C35 C 0.02281 0.27315 0.31316 0.0
C36 C 0.0406 0.24424 0.31602 0.0
C37 C 0.02263 0.26008 0.29736 0.0
C38 C 0.0734 0.30665 0.39123 0.0
C39 C 0.08549 0.29583 0.38515 0.0
C40 C 0.07286 0.31111 0.41066 0.0
C41 C 0.09677 0.28961 0.39862 0.0
C42 C 0.08434 0.3046 0.42369 0.0
N43 N 0.09596 0.29407 0.41745 0.0
C44 C 0.0958 0.31843 0.34508 0.0
C45 C 0.07846 0.29435 0.32063 0.0
C46 C 0.11314 0.3175 0.3384 0.0
N47 N 0.07879 0.3067 0.33647 0.0
C48 C 0.09548 0.29298 0.31345 0.0
C49 C 0.11336 0.30442 0.32248 0.0
H50 H 0.09604 0.32823 0.35761 0.0
H51 H 0.06504 0.28519 0.31362 0.0
C52 C 0.02141 0.26809 0.40172 0.0
N53 N 0.03505 0.27124 0.38982 0.0
C54 C 0.01957 0.25316 0.41275 0.0
C55 C 0.04562 0.24467 0.39895 0.0
C56 C 0.04694 0.25974 0.3882 0.0
C57 C 0.03179 0.24114 0.4115 0.0
H58 H 0.01178 0.27704 0.40257 0.0
H59 H 0.05752 0.26221 0.37855 0.0
O60 O 0.04178 0.32794 0.34675 0.0
O61 O 0.01821 0.30702 0.37654 0.0
O62 O 0.03245 0.28427 0.34631 0.0
O63 O 0.06214 0.31277 0.37823 0.0
H64 H 0.03287 0.36011 0.34237 0.0
H65 H 0.04562 0.31132 0.31314 0.0
H66 H 0.02834 0.37192 0.31143 0.0
H67 H 0.04082 0.3239 0.28271 0.0
H68 H 0.01659 0.32831 0.43838 0.0
H69 H 0.98787 0.32033 0.37165 0.0
H70 H 0.03055 0.31223 0.41327 0.0
H71 H 0.97458 0.33618 0.39744 0.0
H72 H 0.96503 0.33106 0.3244 0.0
H73 H 0.95187 0.26983 0.32029 0.0
H74 H 0.07011 0.38105 0.42883 0.0
H75 H 0.01986 0.38416 0.39355 0.0
H76 H 0.04844 0.25564 0.34556 0.0
H77 H 0.01577 0.28432 0.31177 0.0
H78 H 0.04751 0.23291 0.31694 0.0
H79 H 0.01546 0.26112 0.28371 0.0
H80 H 0.08588 0.29191 0.3702 0.0
H81 H 0.06366 0.31948 0.41567 0.0
H82 H 0.10609 0.28113 0.3941 0.0
H83 H 0.08401 0.30792 0.43876 0.0
H84 H 0.12628 0.327 0.34579 0.0
H85 H 0.09458 0.28256 0.30122 0.0
H86 H 0.00845 0.25087 0.42191 0.0
H87 H 0.05552 0.23602 0.39756 0.0
Li88 Li 0.01641 0.77205 0.66701 0.0
Li89 Li 0.03296 0.75956 0.69238 0.0
Li90 Li 0.01137 0.73695 0.66788 0.0
Li91 Li 0.99737 0.75643 0.692 0.0
C92 C 0.03922 0.75401 0.64682 0.0
N93 N 0.04785 0.74876 0.61012 0.0
C94 C 0.05765 0.75355 0.64356 0.0
C95 C 0.02517 0.75181 0.63141 0.0
C96 C 0.06174 0.75089 0.6249 0.0
C97 C 0.02982 0.74916 0.61297 0.0
C98 C 0.03103 0.7959 0.7055 0.0
C99 C 0.04 0.81818 0.7343 0.0
N100 N 0.05564 0.82775 0.72703 0.0
C101 C 0.04717 0.80593 0.69829 0.0
C102 C 0.02738 0.80203 0.72363 0.0
C103 C 0.05945 0.82201 0.7094 0.0
C104 C 1.00261 0.79905 0.64753 0.0
N105 N 0.01819 0.79247 0.6513 0.0
C106 C 0.03621 0.81507 0.63344 0.0
C107 C 0.03482 0.80022 0.64452 0.0
C108 C 0.02037 0.82222 0.62929 0.0
C109 C 1.00339 0.81393 0.63656 0.0
H110 H 0.98955 0.79277 0.6531 0.0
H111 H 0.04713 0.79497 0.6478 0.0
C112 C 0.06819 0.75053 0.69799 0.0
N113 N 0.05875 0.76238 0.70631 0.0
C114 C 0.08711 0.75148 0.70484 0.0
C115 C 0.08663 0.77669 0.72914 0.0
C116 C 0.06756 0.77516 0.72187 0.0
C117 C 0.09686 0.76483 0.72055 0.0
H118 H 0.06106 0.7404 0.6857 0.0
H119 H 0.05999 0.78439 0.72857 0.0
C120 C 0.97356 0.74026 0.65815 0.0
N121 N 0.93665 0.71764 0.6485 0.0
C122 C 0.96797 0.7227 0.6648 0.0
C123 C 0.96041 0.74632 0.64659 0.0
C124 C 0.94924 0.71147 0.65977 0.0
C125 C 0.9418 0.73467 0.64187 0.0
C126 C 0.01903 0.73482 0.71393 0.0
C127 C 0.03025 0.72223 0.71644 0.0
C128 C 0.016 0.7462 0.72969 0.0
C129 C 0.03833 0.7213 0.73472 0.0
C130 C 0.02431 0.74484 0.74774 0.0
N131 N 0.03522 0.73253 0.74986 0.0
C132 C 0.02177 0.70278 0.65823 0.0
C133 C 0.99769 0.70646 0.63558 0.0
C134 C 0.02268 0.68601 0.64738 0.0
N135 N 0.00937 0.71264 0.65232 0.0
C136 C 0.99824 0.68978 0.62417 0.0
C137 C 0.01091 0.67926 0.62997 0.0
H138 H 0.03138 0.70823 0.67121 0.0
H139 H 0.98822 0.71466 0.63082 0.0
C140 C 0.97001 0.77482 0.7073 0.0
N141 N 0.97413 0.75769 0.70464 0.0
C142 C 0.953 0.77647 0.71427 0.0
C143 C 0.94448 0.74288 0.71598 0.0
C144 C 0.96174 0.74188 0.70905 0.0
C145 C 0.93961 0.76034 0.71856 0.0
H146 H 0.97983 0.78729 0.70367 0.0
H147 H 0.96497 0.72829 0.70676 0.0
O148 O 0.03497 0.75643 0.66502 0.0
O149 O 0.01893 0.78006 0.69493 0.0
O150 O 0.99175 0.75157 0.66306 0.0
O151 O 0.01161 0.73659 0.69613 0.0
H152 H 0.0687 0.75526 0.65533 0.0
H153 H 0.01081 0.7521 0.63362 0.0
H154 H 0.07595 0.75051 0.62217 0.0
H155 H 0.01909 0.74742 0.60092 0.0
H156 H 0.03738 0.8231 0.74837 0.0
H157 H 0.05029 0.80121 0.68436 0.0
H158 H 0.01495 0.79436 0.7294 0.0
H159 H 0.07204 0.82988 0.70405 0.0
H160 H 0.0497 0.8211 0.62847 0.0
H161 H 0.99072 0.81873 0.63363 0.0
H162 H 0.09419 0.74212 0.69747 0.0
H163 H 0.09325 0.78704 0.74144 0.0
H164 H 0.97797 0.71782 0.6738 0.0
H165 H 0.96453 0.75989 0.64134 0.0
H166 H 0.9447 0.69786 0.66484 0.0
H167 H 0.93146 0.73918 0.63294 0.0
H168 H 0.03285 0.71339 0.70441 0.0
H169 H 0.0075 0.75615 0.72798 0.0
H170 H 0.04711 0.71168 0.73686 0.0
H171 H 0.02215 0.75363 0.76005 0.0
H172 H 0.03298 0.67873 0.65234 0.0
H173 H 0.98881 0.68519 0.61093 0.0
H174 H 0.95046 0.7904 0.71626 0.0
H175 H 0.93482 0.72989 0.71875 0.0
Li176 Li 0.52312 0.80552 0.84985 0.0
Li177 Li 0.54574 0.82782 0.87605 0.0
Li178 Li 0.55967 0.80793 0.85128 0.0
Li179 Li 0.54146 0.79288 0.87611 0.0
C180 C 0.54276 0.83561 0.83143 0.0
N181 N 0.53751 0.85062 0.79812 0.0
C182 C 0.53717 0.85247 0.83169 0.0
C183 C 0.54585 0.82646 0.81429 0.0
C184 C 0.53455 0.85981 0.81468 0.0
C185 C 0.54307 0.83425 0.79759 0.0
C186 C 0.51337 0.81499 0.89168 0.0
C187 C 0.51182 0.82457 0.92476 0.0
N188 N 0.49632 0.83085 0.91977 0.0
C189 C 0.49737 0.82148 0.88689 0.0
C190 C 0.52061 0.81649 0.91077 0.0
C191 C 0.48897 0.82947 0.90129 0.0
C192 C 0.48274 0.78943 0.84328 0.0
N193 N 0.49693 0.80179 0.83635 0.0
C194 C 0.47325 0.81076 0.81612 0.0
C195 C 0.49243 0.8122 0.82276 0.0
C196 C 0.45822 0.79855 0.82349 0.0
C197 C 0.46342 0.78765 0.83716 0.0
H198 H 0.48642 0.78146 0.85429 0.0
H199 H 0.50364 0.82201 0.81728 0.0
C200 C 0.5625 0.86109 0.90519 0.0
N201 N 0.54788 0.85244 0.89124 0.0
C202 C 0.56235 0.87798 0.9165 0.0
C203 C 0.53226 0.8769 0.89884 0.0
C204 C 0.53318 0.86032 0.88769 0.0
C205 C 0.54692 0.88611 0.91366 0.0
H206 H 0.57426 0.85487 0.90767 0.0
H207 H 0.52182 0.85345 0.87638 0.0
C208 C 0.5369 0.77244 0.83221 0.0
N209 N 0.53692 0.74761 0.80027 0.0
C210 C 0.54612 0.75804 0.83349 0.0
C211 C 0.52755 0.77413 0.81475 0.0
C212 C 0.54601 0.74565 0.81716 0.0
C213 C 0.52777 0.76146 0.79875 0.0
C214 C 0.57698 0.80888 0.89383 0.0
C215 C 0.5896 0.79816 0.88917 0.0
C216 C 0.5757 0.81441 0.91291 0.0
C217 C 0.60063 0.79299 0.9037 0.0
C218 C 0.58696 0.80895 0.92702 0.0
N219 N 0.59908 0.79844 0.92217 0.0
C220 C 0.60021 0.81859 0.84748 0.0
C221 C 0.58289 0.79565 0.82207 0.0
C222 C 0.6176 0.81768 0.8409 0.0
N223 N 0.58315 0.80743 0.83832 0.0
C224 C 0.59999 0.7943 0.81499 0.0
C225 C 0.61789 0.80519 0.82452 0.0
H226 H 0.60041 0.82798 0.86031 0.0
H227 H 0.56946 0.78694 0.81463 0.0
C228 C 0.52505 0.76827 0.90267 0.0
N229 N 0.53924 0.77203 0.89144 0.0
C230 C 0.52315 0.75324 0.91356 0.0
C231 C 0.55021 0.7458 0.90092 0.0
C232 C 0.55157 0.76095 0.89026 0.0
C233 C 0.53586 0.7417 0.91285 0.0
H234 H 0.51498 0.77677 0.90302 0.0
H235 H 0.56248 0.76379 0.88097 0.0
O236 O 0.54536 0.82819 0.84791 0.0
O237 O 0.52207 0.80749 0.87776 0.0
O238 O 0.53677 0.78467 0.84801 0.0
O239 O 0.56595 0.81395 0.8798 0.0
H240 H 0.53481 0.85976 0.84487 0.0
H241 H 0.55032 0.81349 0.81389 0.0
H242 H 0.53016 0.87281 0.81464 0.0
H243 H 0.54534 0.82729 0.7842 0.0
H244 H 0.51732 0.82586 0.93958 0.0
H245 H 0.4917 0.8207 0.8722 0.0
H246 H 0.5329 0.81146 0.91475 0.0
H247 H 0.47667 0.83466 0.89777 0.0
H248 H 0.47029 0.81926 0.80533 0.0
H249 H 0.4527 0.77824 0.84369 0.0
H250 H 0.57431 0.88456 0.9273 0.0
H251 H 0.51983 0.88209 0.89603 0.0
H252 H 0.55339 0.75652 0.84689 0.0
H253 H 0.52025 0.78513 0.81355 0.0
H254 H 0.55316 0.73449 0.81791 0.0
H255 H 0.52066 0.76264 0.78512 0.0
H256 H 0.59063 0.79354 0.8745 0.0
H257 H 0.56614 0.82282 0.9168 0.0
H258 H 0.61035 0.78458 0.90029 0.0
H259 H 0.58606 0.81309 0.94184 0.0
H260 H 0.63074 0.82678 0.84871 0.0
H261 H 0.59909 0.78434 0.80239 0.0
H262 H 0.51158 0.75049 0.92217 0.0
H263 H 0.56046 0.73749 0.89991 0.0
Li264 Li 0.51336 0.27168 0.16849 0.0
Li265 Li 0.52931 0.2591 0.19374 0.0
Li266 Li 0.50834 0.23575 0.16806 0.0
Li267 Li 0.49347 0.25621 0.19283 0.0
C268 C 0.55076 0.26116 0.16516 0.0
N269 N 0.58988 0.27178 0.16528 0.0
C270 C 0.56042 0.28023 0.16516 0.0
C271 C 0.561 0.24746 0.16502 0.0
C272 C 0.58019 0.28532 0.16524 0.0
C273 C 0.58078 0.25312 0.16516 0.0
C274 C 0.52445 0.29552 0.20852 0.0
C275 C 0.53007 0.3136 0.23976 0.0
N276 N 0.54259 0.32802 0.23343 0.0
C277 C 0.53719 0.31062 0.20226 0.0
C278 C 0.52068 0.2971 0.22736 0.0
C279 C 0.54629 0.32689 0.2151 0.0
C280 C 0.50848 0.30713 0.15832 0.0
N281 N 0.51495 0.29189 0.15253 0.0
C282 C 0.52396 0.30528 0.12446 0.0
C283 C 0.52245 0.29068 0.13586 0.0
C284 C 0.51771 0.32143 0.13018 0.0
C285 C 0.50978 0.32209 0.14739 0.0
H286 H 0.50247 0.30777 0.17156 0.0
H287 H 0.52732 0.27835 0.1314 0.0
C288 C 0.56021 0.24638 0.21262 0.0
N289 N 0.55488 0.26223 0.2087 0.0
C290 C 0.57917 0.24753 0.21974 0.0
C291 C 0.58718 0.28126 0.21873 0.0
C292 C 0.56803 0.27952 0.21191 0.0
C293 C 0.59316 0.2651 0.22254 0.0
H294 H 0.55003 0.2326 0.20929 0.0
H295 H 0.56402 0.29193 0.2082 0.0
C296 C 0.47899 0.25707 0.15005 0.0
N297 N 0.46125 0.27201 0.12193 0.0
C298 C 0.46662 0.26811 0.15459 0.0
C299 C 0.48235 0.25362 0.13122 0.0
C300 C 0.45777 0.27553 0.14016 0.0
C301 C 0.47324 0.2613 0.1172 0.0
C302 C 0.51113 0.22875 0.21259 0.0
C303 C 0.51232 0.20998 0.21186 0.0
C304 C 0.51332 0.23997 0.23015 0.0
C305 C 0.51591 0.20283 0.22878 0.0
C306 C 0.51691 0.23231 0.24675 0.0
N307 N 0.51813 0.21406 0.24573 0.0
C308 C 0.51858 0.20139 0.15831 0.0
C309 C 0.4928 0.20423 0.13728 0.0
C310 C 0.51886 0.18435 0.14752 0.0
N311 N 0.50585 0.21114 0.15299 0.0
C312 C 0.49255 0.18718 0.12606 0.0
C313 C 0.50586 0.177 0.13096 0.0
H314 H 0.52881 0.20704 0.17085 0.0
H315 H 0.48266 0.21203 0.1333 0.0
C316 C 0.46755 0.27428 0.21162 0.0
N317 N 0.47016 0.25702 0.20532 0.0
C318 C 0.45059 0.27572 0.21882 0.0
C319 C 0.43897 0.24163 0.21309 0.0
C320 C 0.4562 0.24082 0.20603 0.0
C321 C 0.43575 0.25928 0.21958 0.0
H322 H 0.47848 0.2871 0.21061 0.0
H323 H 0.45826 0.22719 0.2008 0.0
O324 O 0.53147 0.25601 0.16569 0.0
O325 O 0.51519 0.27958 0.1961 0.0
O326 O 0.48834 0.2503 0.16408 0.0
O327 O 0.50785 0.23608 0.19618 0.0
H328 H 0.55279 0.29104 0.16534 0.0
H329 H 0.55382 0.23266 0.16505 0.0
H330 H 0.58785 0.30005 0.16537 0.0
H331 H 0.58889 0.24269 0.16524 0.0
H332 H 0.52733 0.31497 0.2544 0.0
H333 H 0.54013 0.30977 0.1877 0.0
H334 H 0.51049 0.28579 0.23235 0.0
H335 H 0.55629 0.33861 0.21047 0.0
H336 H 0.52983 0.30381 0.11119 0.0
H337 H 0.50495 0.33422 0.15263 0.0
H338 H 0.58301 0.23459 0.22214 0.0
H339 H 0.59731 0.29515 0.22068 0.0
H340 H 0.46402 0.27107 0.16913 0.0
H341 H 0.49218 0.24541 0.12754 0.0
H342 H 0.44821 0.28415 0.14347 0.0
H343 H 0.47579 0.25885 0.10259 0.0
H344 H 0.51048 0.20103 0.19838 0.0
H345 H 0.51238 0.25447 0.23092 0.0
H346 H 0.51692 0.18835 0.22844 0.0
H347 H 0.51873 0.24088 0.26045 0.0
H348 H 0.52957 0.17732 0.15189 0.0
H349 H 0.482 0.18205 0.11366 0.0
H350 H 0.44896 0.28974 0.22324 0.0
H351 H 0.42827 0.22845 0.21347 0.0
Li352 Li 0.05921 0.81529 0.09951 0.0
Li353 Li 0.07829 0.80161 0.12516 0.0
Li354 Li 0.05577 0.77942 0.09994 0.0
Li355 Li 0.0429 0.79621 0.125 0.0
C356 C 0.08487 0.79117 0.08204 0.0
N357 N 0.09469 0.77027 0.05197 0.0
C358 C 0.09632 0.77896 0.08542 0.0
C359 C 0.07851 0.79287 0.0634 0.0
C360 C 0.1011 0.76848 0.07001 0.0
C361 C 0.08362 0.78216 0.04838 0.0
C362 C 0.07346 0.83502 0.14235 0.0
C363 C 0.08552 0.84611 0.17534 0.0
N364 N 0.09499 0.86312 0.17054 0.0
C365 C 0.08329 0.8526 0.13775 0.0
C366 C 0.07454 0.83174 0.16129 0.0
C367 C 0.0941 0.86663 0.15221 0.0
C368 C 0.04089 0.84234 0.0841 0.0
N369 N 0.05814 0.83842 0.08684 0.0
C370 C 0.07295 0.86808 0.07578 0.0
C371 C 0.07403 0.85095 0.08265 0.0
C372 C 0.05531 0.8726 0.07293 0.0
C373 C 0.03915 0.85916 0.0771 0.0
H374 H 0.02839 0.83253 0.08773 0.0
H375 H 0.08773 0.84793 0.08507 0.0
C376 C 0.10562 0.78636 0.14323 0.0
N377 N 0.10251 0.80352 0.14083 0.0
C378 C 0.12205 0.78516 0.15426 0.0
C379 C 0.13232 0.81939 0.16013 0.0
C380 C 0.11564 0.81994 0.14884 0.0
C381 C 0.13572 0.80178 0.16315 0.0
H382 H 0.09524 0.77346 0.13652 0.0
H383 H 0.11323 0.8335 0.1466 0.0
C384 C 0.02396 0.78339 0.08064 0.0
N385 N 1.0012 0.7633 0.04806 0.0
C386 C 0.01062 0.76614 0.08143 0.0
C387 C 0.02574 0.79042 0.06329 0.0
C388 C 0.99923 0.7562 0.0648 0.0
C389 C 0.01411 0.78005 0.04697 0.0
C390 C 0.05219 0.768 0.14123 0.0
C391 C 0.03748 0.75122 0.13661 0.0
C392 C 0.06007 0.77418 0.16016 0.0
C393 C 0.03073 0.74097 0.15108 0.0
C394 C 0.05293 0.76353 0.17422 0.0
N395 N 0.03852 0.7473 0.16943 0.0
C396 C 0.0611 0.74233 0.0978 0.0
C397 C 0.0449 0.74539 0.06864 0.0
C398 C 0.05966 0.72315 0.09165 0.0
N399 N 0.05336 0.75309 0.08662 0.0
C400 C 0.0432 0.72611 0.06184 0.0
C401 C 0.05031 0.71447 0.07354 0.0
H402 H 0.06839 0.74861 0.11177 0.0
H403 H 0.03925 0.75404 0.05955 0.0
C404 C 0.02246 0.80918 0.15425 0.0
N405 N 0.0221 0.7945 0.14068 0.0
C406 C 0.00757 0.80811 0.16548 0.0
C407 C 0.99185 0.77703 0.14841 0.0
C408 C 0.00709 0.77865 0.1376 0.0
C409 C 0.9919 0.79188 0.16263 0.0
H410 H 0.03422 0.82186 0.15627 0.0
H411 H 0.00689 0.76716 0.12674 0.0
O412 O 0.07939 0.80094 0.09691 0.0
O413 O 0.06291 0.82108 0.12837 0.0
O414 O 0.03514 0.79342 0.09677 0.0
O415 O 0.05886 0.77832 0.12727 0.0
H416 H 0.10125 0.77743 0.09978 0.0
H417 H 0.06965 0.80228 0.06059 0.0
H418 H 0.10984 0.75887 0.07239 0.0
H419 H 0.07874 0.78325 0.03387 0.0
H420 H 0.08651 0.84375 0.19005 0.0
H421 H 0.08263 0.85538 0.12318 0.0
H422 H 0.06701 0.81823 0.1651 0.0
H423 H 0.1018 0.8803 0.14885 0.0
H424 H 0.08588 0.87768 0.0727 0.0
H425 H 0.02523 0.86183 0.07553 0.0
H426 H 0.12404 0.77122 0.15562 0.0
H427 H 0.14228 0.83265 0.16666 0.0
H428 H 0.00921 0.76036 0.09467 0.0
H429 H 0.03599 0.80375 0.06242 0.0
H430 H 0.98889 0.7428 0.06519 0.0
H431 H 0.01535 0.78531 0.03344 0.0
H432 H 0.0312 0.74626 0.12202 0.0
H433 H 0.0716 0.78702 0.16395 0.0
H434 H 0.01927 0.72802 0.14773 0.0
H435 H 0.05886 0.76817 0.18894 0.0
H436 H 0.06596 0.7152 0.10111 0.0
H437 H 0.03595 0.7203 0.04771 0.0
H438 H 0.00815 0.82007 0.17604 0.0
H439 H 0.98024 0.76415 0.14576 0.0
Li440 Li 0.50434 0.78703 0.44899 0.0
Li441 Li 0.48233 0.76471 0.42263 0.0
Li442 Li 0.50263 0.75066 0.44695 0.0
Li443 Li 0.51751 0.76924 0.42228 0.0
C444 C 0.47432 0.76714 0.46737 0.0
N445 N 0.45886 0.77227 0.50074 0.0
C446 C 0.4577 0.77324 0.46733 0.0
C447 C 0.48289 0.76335 0.48431 0.0
C448 C 0.45016 0.77585 0.48438 0.0
C449 C 0.47491 0.7661 0.50105 0.0
C450 C 0.49637 0.79741 0.40712 0.0
C451 C 0.48886 0.79931 0.37387 0.0
N452 N 0.48294 0.81513 0.37861 0.0
C453 C 0.49044 0.81384 0.41164 0.0
C454 C 0.49576 0.79021 0.38808 0.0
C455 C 0.48361 0.82253 0.39704 0.0
C456 C 0.52442 0.8253 0.4685 0.0
N457 N 0.50693 0.81276 0.46312 0.0
C458 C 0.49196 0.83785 0.47101 0.0
C459 C 0.49085 0.81875 0.46453 0.0
C460 C 0.5098 0.85131 0.4762 0.0
C461 C 0.52617 0.84456 0.47519 0.0
H462 H 0.53711 0.82058 0.46688 0.0
H463 H 0.47707 0.80894 0.45962 0.0
C464 C 0.44891 0.74878 0.39345 0.0
N465 N 0.45783 0.76314 0.40761 0.0
C466 C 0.43236 0.74959 0.38215 0.0
C467 C 0.43415 0.77973 0.40037 0.0
C468 C 0.45048 0.77823 0.4114 0.0
C469 C 0.42479 0.76539 0.38529 0.0
H470 H 0.4547 0.73673 0.39074 0.0
H471 H 0.45762 0.78945 0.4228 0.0
C472 C 0.53824 0.77457 0.46593 0.0
N473 N 0.56406 0.77642 0.49738 0.0
C474 C 0.55485 0.76885 0.46387 0.0
C475 C 0.53493 0.78156 0.48391 0.0
C476 C 0.56768 0.76978 0.47997 0.0
C477 C 0.54811 0.78231 0.49966 0.0
C478 C 0.50029 0.73349 0.40339 0.0
C479 C 0.50971 0.71957 0.40667 0.0
C480 C 0.49458 0.73574 0.38475 0.0
C481 C 0.51366 0.70844 0.39123 0.0
C482 C 0.49877 0.72434 0.36968 0.0
N483 N 0.50818 0.71105 0.37321 0.0
C484 C 0.48957 0.71623 0.46642 0.0
C485 C 0.52145 0.72266 0.46007 0.0
C486 C 0.49099 0.69931 0.47358 0.0
N487 N 0.50468 0.72764 0.45972 0.0
C488 C 0.52347 0.70591 0.46704 0.0
C489 C 0.50812 0.69366 0.47391 0.0
H490 H 0.47619 0.72004 0.46597 0.0
H491 H 0.53323 0.73133 0.45424 0.0
C492 C 0.54331 0.78652 0.39706 0.0
N493 N 0.53846 0.77149 0.40691 0.0
C494 C 0.55846 0.78839 0.3861 0.0
C495 C 0.5638 0.75955 0.39592 0.0
C496 C 0.54855 0.75824 0.40668 0.0
C497 C 0.56898 0.77476 0.38534 0.0
H498 H 0.53559 0.79726 0.39786 0.0
H499 H 0.54486 0.74668 0.415 0.0
O500 O 0.48189 0.76445 0.45083 0.0
O501 O 0.50268 0.78842 0.42125 0.0
O502 O 0.52555 0.77382 0.45034 0.0
O503 O 0.49646 0.74465 0.41836 0.0
H504 H 0.45075 0.776 0.45429 0.0
H505 H 0.49553 0.75823 0.4845 0.0
H506 H 0.43738 0.78068 0.48458 0.0
H507 H 0.48144 0.76329 0.51428 0.0
H508 H 0.48825 0.79382 0.35908 0.0
H509 H 0.49095 0.81976 0.42625 0.0
H510 H 0.50073 0.77783 0.3843 0.0
H511 H 0.47884 0.83516 0.40036 0.0
H512 H 0.47885 0.84206 0.47164 0.0
H513 H 0.54029 0.85422 0.47874 0.0
H514 H 0.42559 0.7379 0.37106 0.0
H515 H 0.42929 0.79235 0.4034 0.0
H516 H 0.55773 0.76363 0.45 0.0
H517 H 0.52238 0.78649 0.48568 0.0
H518 H 0.58052 0.76526 0.47861 0.0
H519 H 0.54569 0.78762 0.51368 0.0
H520 H 0.51408 0.71746 0.42096 0.0
H521 H 0.48688 0.74609 0.3819 0.0
H522 H 0.52108 0.69772 0.39359 0.0
H523 H 0.4945 0.72601 0.35519 0.0
H524 H 0.47867 0.69075 0.47882 0.0
H525 H 0.53691 0.70236 0.46644 0.0
H526 H 0.5621 0.80061 0.3786 0.0
H527 H 0.57133 0.74861 0.39578 0.0
Li528 Li 0.55816 0.31494 0.6013 0.0
Li529 Li 0.5756 0.30031 0.62718 0.0
Li530 Li 0.55388 0.27887 0.60127 0.0
Li531 Li 0.54075 0.29585 0.6259 0.0
C532 C 0.58494 0.29011 0.58581 0.0
N533 N 0.59785 0.26858 0.55855 0.0
C534 C 0.59671 0.27879 0.59123 0.0
C535 C 0.57982 0.29061 0.56657 0.0
C536 C 0.60307 0.26797 0.57722 0.0
C537 C 0.58648 0.27959 0.55299 0.0
C538 C 0.57382 0.33337 0.64366 0.0
C539 C 0.58908 0.34286 0.67595 0.0
N540 N 0.6003 0.35882 0.67068 0.0
C541 C 0.58549 0.34986 0.63857 0.0
C542 C 0.57559 0.32983 0.6625 0.0
C543 C 0.59879 0.36256 0.65244 0.0
C544 C 0.5405 0.34249 0.58647 0.0
N545 N 0.55763 0.33828 0.58875 0.0
C546 C 0.57246 0.36781 0.57745 0.0
C547 C 0.57347 0.35057 0.58415 0.0
C548 C 0.55497 0.37277 0.5753 0.0
C549 C 0.53884 0.35943 0.57972 0.0
H550 H 0.528 0.33276 0.59022 0.0
H551 H 0.58709 0.34734 0.58622 0.0
C552 C 0.59917 0.28692 0.65322 0.0
N553 N 0.59937 0.30196 0.64355 0.0
C554 C 0.61543 0.28604 0.66474 0.0
C555 C 0.63239 0.31594 0.65593 0.0
C556 C 0.61564 0.31633 0.64463 0.0
C557 C 0.63244 0.30064 0.66629 0.0
H558 H 0.58642 0.27529 0.65175 0.0
H559 H 0.61573 0.32802 0.6366 0.0
C560 C 0.52336 0.28427 0.58072 0.0
N561 N 0.50209 0.26613 0.54667 0.0
C562 C 0.50891 0.26749 0.58026 0.0
C563 C 0.52701 0.2918 0.56388 0.0
C564 C 0.49829 0.25855 0.5629 0.0
C565 C 0.51611 0.28241 0.5468 0.0
C566 C 0.54491 0.26565 0.63975 0.0
C567 C 0.5306 0.24946 0.63146 0.0
C568 C 0.54788 0.27042 0.6595 0.0
C569 C 0.51955 0.23826 0.64308 0.0
C570 C 0.5365 0.25889 0.67062 0.0
N571 N 0.52269 0.24317 0.66225 0.0
C572 C 0.55974 0.24208 0.59859 0.0
C573 C 0.54333 0.24525 0.56957 0.0
C574 C 0.55837 0.22294 0.59229 0.0
N575 N 0.55182 0.25284 0.58756 0.0
C576 C 0.54175 0.22605 0.5626 0.0
C577 C 0.54897 0.21438 0.57417 0.0
H578 H 0.56697 0.24829 0.61261 0.0
H579 H 0.53756 0.25392 0.56061 0.0
C580 C 0.52092 0.30838 0.65586 0.0
N581 N 0.51956 0.29462 0.64099 0.0
C582 C 0.50603 0.30736 0.6671 0.0
C583 C 0.48847 0.27814 0.64753 0.0
C584 C 0.50359 0.27981 0.63658 0.0
C585 C 0.48953 0.29199 0.66311 0.0
H586 H 0.5336 0.32015 0.65909 0.0
H587 H 0.5026 0.26913 0.62464 0.0
O588 O 0.57798 0.30019 0.5993 0.0
O589 O 0.56104 0.32053 0.63021 0.0
O590 O 0.53379 0.29336 0.59758 0.0
O591 O 0.55566 0.27704 0.6286 0.0
H592 H 0.60069 0.27819 0.6061 0.0
H593 H 0.5707 0.2993 0.56218 0.0
H594 H 0.61209 0.25904 0.58119 0.0
H595 H 0.58257 0.27975 0.53803 0.0
H596 H 0.59065 0.34026 0.69056 0.0
H597 H 0.58438 0.35277 0.62405 0.0
H598 H 0.56676 0.31707 0.66665 0.0
H599 H 0.60794 0.37537 0.64869 0.0
H600 H 0.58547 0.3774 0.57455 0.0
H601 H 0.52488 0.36198 0.57803 0.0
H602 H 0.61477 0.27375 0.67204 0.0
H603 H 0.64511 0.32756 0.65665 0.0
H604 H 0.50603 0.26132 0.59309 0.0
H605 H 0.53816 0.30474 0.56397 0.0
H606 H 0.48711 0.24553 0.56232 0.0
H607 H 0.5188 0.28808 0.53366 0.0
H608 H 0.52776 0.24575 0.6162 0.0
H609 H 0.55878 0.28297 0.66616 0.0
H610 H 0.50838 0.22574 0.63684 0.0
H611 H 0.53861 0.26245 0.68591 0.0
H612 H 0.5647 0.21492 0.60164 0.0
H613 H 0.53448 0.22029 0.54847 0.0
H614 H 0.50758 0.31835 0.67901 0.0
H615 H 0.47597 0.26618 0.64368 0.0
Li616 Li 1.00281 0.2867 0.94788 0.0
Li617 Li 0.98147 0.2645 0.92121 0.0
Li618 Li 1.00129 0.25036 0.94553 0.0
Li619 Li 0.01645 0.26932 0.92115 0.0
C620 C 0.97405 0.26569 0.9668 0.0
N621 N 0.96131 0.26882 0.00191 0.0
C622 C 0.95675 0.27014 0.96856 0.0
C623 C 0.98473 0.26258 0.98283 0.0
C624 C 0.95059 0.27174 0.98646 0.0
C625 C 0.97809 0.26429 0.00047 0.0
C626 C 0.99361 0.29752 0.90708 0.0
C627 C 0.98587 0.30208 0.87462 0.0
N628 N 0.97668 0.31512 0.8807 0.0
C629 C 0.98426 0.31112 0.91301 0.0
C630 C 0.99457 0.29309 0.88773 0.0
C631 C 0.97574 0.3198 0.89947 0.0
C632 C 0.02292 0.32525 0.96565 0.0
N633 N 0.00555 0.31221 0.96252 0.0
C634 C 0.99084 0.33659 0.97367 0.0
C635 C 0.98969 0.31758 0.96668 0.0
C636 C 0.0085 0.35053 0.97657 0.0
C637 C 0.02473 0.3444 0.97277 0.0
H638 H 0.03536 0.32098 0.96189 0.0
H639 H 0.97589 0.30734 0.96365 0.0
C640 C 0.95149 0.25134 0.8885 0.0
N641 N 0.95723 0.26264 0.90555 0.0
C642 C 0.93526 0.25233 0.8768 0.0
C643 C 0.93085 0.2763 0.90046 0.0
C644 C 0.94704 0.27476 0.91172 0.0
C645 C 0.92472 0.26514 0.88256 0.0
H646 H 0.95965 0.24175 0.88376 0.0
H647 H 0.95193 0.28383 0.92517 0.0
C648 C 0.03778 0.27466 0.96396 0.0
N649 N 0.06586 0.27729 0.99364 0.0
C650 C 0.05385 0.26836 0.96074 0.0
C651 C 0.03616 0.28263 0.9822 0.0
C652 C 0.06784 0.2697 0.97595 0.0
C653 C 0.05047 0.28375 0.99703 0.0
C654 C 1.00037 0.23371 0.90232 0.0
C655 C 0.00668 0.21777 0.90566 0.0
C656 C 0.9989 0.23849 0.88392 0.0
C657 C 0.01175 0.20708 0.8906 0.0
C658 C 1.00412 0.22746 0.86923 0.0
N659 N 0.01041 0.21213 0.87285 0.0
C660 C 0.9886 0.21604 0.96527 0.0
C661 C 0.02023 0.22231 0.95813 0.0
C662 C 0.99019 0.19917 0.97242 0.0
N663 N 1.00351 0.22735 0.95819 0.0
C664 C 0.02242 0.20561 0.96509 0.0
C665 C 0.00728 0.19348 0.97235 0.0
H666 H 0.97526 0.21989 0.96512 0.0
H667 H 0.03182 0.23089 0.95196 0.0
C668 C 0.04298 0.28745 0.8971 0.0
N669 N 0.03756 0.27182 0.90602 0.0
C670 C 0.05811 0.28947 0.88612 0.0
C671 C 0.0622 0.25948 0.89395 0.0
C672 C 0.04698 0.25804 0.90477 0.0
C673 C 0.06799 0.27534 0.88435 0.0
H674 H 0.03565 0.29849 0.89862 0.0
H675 H 0.04272 0.24588 0.91222 0.0
O676 O 0.98032 0.26407 0.9494 0.0
O677 O 1.00162 0.2885 0.92013 0.0
O678 O 0.024 0.2736 0.94922 0.0
O679 O 0.99565 0.24455 0.91697 0.0
H680 H 0.94821 0.2724 0.95627 0.0
H681 H 0.99796 0.25877 0.98165 0.0
H682 H 0.93729 0.27528 0.98805 0.0
H683 H 0.98624 0.26196 0.013 0.0
H684 H 0.98644 0.2987 0.8596 0.0
H685 H 0.98334 0.31476 0.92787 0.0
H686 H 1.00199 0.28288 0.88285 0.0
H687 H 0.96832 0.33022 0.90388 0.0
H688 H 0.97788 0.34034 0.97651 0.0
H689 H 0.03867 0.35445 0.97448 0.0
H690 H 0.93108 0.24314 0.86335 0.0
H691 H 0.92361 0.28663 0.90557 0.0
H692 H 0.05546 0.2624 0.94665 0.0
H693 H 0.02404 0.28801 0.98485 0.0
H694 H 0.08029 0.26474 0.97369 0.0
H695 H 0.04936 0.28982 0.01124 0.0
H696 H 0.00765 0.21366 0.91971 0.0
H697 H 0.99383 0.25059 0.88102 0.0
H698 H 0.01675 0.19477 0.89302 0.0
H699 H 1.00316 0.2311 0.85496 0.0
H700 H 0.97804 0.19069 0.97797 0.0
H701 H 0.03579 0.202 0.96416 0.0
H702 H 0.06222 0.30214 0.87934 0.0
H703 H 0.06919 0.24813 0.89297 0.0
Li704 Li 0.41352 0.05239 0.31749 0.0
Li705 Li 0.38483 0.02684 0.30684 0.0
Li706 Li 0.40444 0.04193 0.28361 0.0
Li707 Li 0.38552 0.05861 0.30159 0.0
C708 C 0.4204 0.01335 0.30454 0.0
N709 N 0.43881 0.98491 0.30687 0.0
C710 C 0.41456 0.99924 0.31607 0.0
C711 C 0.43563 0.0129 0.29416 0.0
C712 C 0.42404 0.98502 0.31706 0.0
C713 C 0.44475 0.99844 0.29554 0.0
C714 C 0.38775 0.04379 0.34439 0.0
C715 C 0.37535 0.04282 0.37451 0.0
N716 N 0.38772 0.03288 0.38026 0.0
C717 C 0.40032 0.03355 0.35062 0.0
C718 C 0.37516 0.04848 0.35644 0.0
C719 C 0.4001 0.02819 0.36879 0.0
C720 C 0.4342 0.07553 0.35041 0.0
N721 N 0.43476 0.06165 0.33645 0.0
C722 C 0.46315 0.05741 0.35256 0.0
C723 C 0.44917 0.05306 0.33691 0.0
C724 C 0.46224 0.07074 0.36785 0.0
C725 C 0.44794 0.08038 0.36635 0.0
H726 H 0.42253 0.08209 0.3496 0.0
H727 H 0.44931 0.04214 0.32559 0.0
C728 C 0.36649 0.99026 0.29329 0.0
N729 N 0.36924 0.00272 0.30945 0.0
C730 C 0.35538 0.9717 0.2925 0.0
C731 C 0.35029 0.97897 0.32516 0.0
C732 C 0.36125 0.9976 0.3252 0.0
C733 C 0.34728 0.96588 0.30861 0.0
H734 H 0.37307 0.99481 0.28103 0.0
H735 H 0.3634 0.0078 0.3378 0.0
C736 C 0.43006 0.0788 0.29411 0.0
N737 N 0.46587 0.09935 0.28826 0.0
C738 C 0.43345 0.09804 0.29199 0.0
C739 C 0.44487 0.07004 0.2933 0.0
C740 C 0.45166 0.10818 0.28903 0.0
C741 C 0.46288 0.08064 0.29032 0.0
C742 C 0.35712 0.03028 0.27887 0.0
C743 C 0.34853 0.02455 0.26011 0.0
C744 C 0.34576 0.03067 0.29352 0.0
C745 C 0.32865 0.0193 0.2563 0.0
C746 C 0.32594 0.02534 0.28912 0.0
N747 N 0.31786 0.01981 0.27075 0.0
C748 C 0.41118 0.01804 0.25404 0.0
C749 C 0.42038 0.05063 0.2499 0.0
C750 C 0.41856 0.01297 0.23759 0.0
N751 N 0.41276 0.03663 0.2601 0.0
C752 C 0.42779 0.04619 0.23323 0.0
C753 C 0.42725 0.02719 0.22717 0.0
H754 H 0.40463 0.00721 0.26231 0.0
H755 H 0.42106 0.06525 0.25487 0.0
C756 C 0.35954 0.07934 0.31231 0.0
N757 N 0.37007 0.07506 0.29863 0.0
C758 C 0.34611 0.0894 0.30846 0.0
C759 C 0.35501 0.09062 0.27672 0.0
C760 C 0.36823 0.08058 0.28118 0.0
C761 C 0.34358 0.09496 0.29038 0.0
H762 H 0.36119 0.07446 0.32595 0.0
H763 H 0.37659 0.07655 0.27053 0.0
O764 O 0.4111 0.0273 0.30313 0.0
O765 O 0.3877 0.04932 0.32667 0.0
O766 O 0.4123 0.06874 0.29704 0.0
O767 O 0.37658 0.0354 0.28278 0.0
H768 H 0.4028 0.99915 0.32418 0.0
H769 H 0.44041 0.02357 0.28509 0.0
H770 H 0.41963 0.97404 0.32593 0.0
H771 H 0.45653 0.99797 0.28757 0.0
H772 H 0.36565 0.04634 0.38396 0.0
H773 H 0.41018 0.02983 0.3416 0.0
H774 H 0.36529 0.05635 0.35188 0.0
H775 H 0.40979 0.02029 0.37376 0.0
H776 H 0.47376 0.04948 0.35319 0.0
H777 H 0.44687 0.09091 0.37774 0.0
H778 H 0.35353 0.96185 0.27959 0.0
H779 H 0.34418 0.97485 0.33781 0.0
H780 H 0.42211 0.10503 0.2926 0.0
H781 H 0.44246 0.05521 0.29494 0.0
H782 H 0.45449 0.12308 0.28734 0.0
H783 H 0.47447 0.07401 0.28965 0.0
H784 H 0.35716 0.02414 0.24863 0.0
H785 H 0.35216 0.03503 0.30814 0.0
H786 H 0.3218 0.01482 0.24184 0.0
H787 H 0.31697 0.02559 0.30031 0.0
H788 H 0.41764 0.99815 0.23315 0.0
H789 H 0.43442 0.05753 0.22554 0.0
H790 H 0.3377 0.09262 0.31943 0.0
H791 H 0.3533 0.09438 0.26252 0.0
Li792 Li 0.27884 0.20137 0.53113 0.0
Li793 Li 0.29219 0.17784 0.51457 0.0
Li794 Li 0.27905 0.20078 0.49598 0.0
Li795 Li 0.2577 0.17394 0.51006 0.0
C796 C 0.31328 0.22391 0.52314 0.0
N797 N 0.33733 0.25956 0.53635 0.0
C798 C 0.32903 0.22594 0.53669 0.0
C799 C 0.30986 0.23998 0.51619 0.0
C800 C 0.341 0.2441 0.54322 0.0
C801 C 0.32215 0.25789 0.52309 0.0
C802 C 0.2814 0.16371 0.54535 0.0
C803 C 0.28536 0.13356 0.55277 0.0
N804 N 0.29724 0.14263 0.56872 0.0
C805 C 0.2936 0.17274 0.56183 0.0
C806 C 0.27717 0.14397 0.54079 0.0
C807 C 0.30147 0.16182 0.57347 0.0
C808 C 0.26479 0.20633 0.56574 0.0
N809 N 0.27875 0.21552 0.5561 0.0
C810 C 0.29057 0.23971 0.58311 0.0
C811 C 0.29138 0.23214 0.56434 0.0
C812 C 0.27645 0.2303 0.59357 0.0
C813 C 0.26324 0.21353 0.58431 0.0
H814 H 0.25489 0.19312 0.55903 0.0
H815 H 0.30234 0.23945 0.55662 0.0
C816 C 0.3104 0.14942 0.50211 0.0
N817 N 0.31155 0.16406 0.51597 0.0
C818 C 0.32353 0.13851 0.5031 0.0
C819 C 0.33921 0.1582 0.53237 0.0
C820 C 0.32572 0.16869 0.53085 0.0
C821 C 0.33816 0.14276 0.51845 0.0
H822 H 0.29926 0.14614 0.49025 0.0
H823 H 0.32638 0.18033 0.54174 0.0
C824 C 0.24808 0.21247 0.52014 0.0
N825 N 0.23001 0.23553 0.54016 0.0
C826 C 0.23203 0.20441 0.52864 0.0
C827 C 0.25484 0.23224 0.52165 0.0
C828 C 0.22312 0.21632 0.53874 0.0
C829 C 0.24554 0.24366 0.53189 0.0
C830 C 0.26413 0.15838 0.47648 0.0
C831 C 0.25729 0.16288 0.45911 0.0
C832 C 0.25949 0.13946 0.47995 0.0
C833 C 0.24584 0.14834 0.44549 0.0
C834 C 0.24797 0.12534 0.46598 0.0
N835 N 0.24144 0.13004 0.44919 0.0
C836 C 0.29608 0.21284 0.46338 0.0
C837 C 0.26736 0.22135 0.46681 0.0
C838 C 0.29712 0.21985 0.44588 0.0
N839 N 0.28128 0.21354 0.4734 0.0
C840 C 0.26783 0.22853 0.44935 0.0
C841 C 0.28273 0.22764 0.43841 0.0
H842 H 0.30684 0.20629 0.46873 0.0
H843 H 0.25561 0.22161 0.47489 0.0
C844 C 0.22806 0.14739 0.52275 0.0
N845 N 0.23296 0.15605 0.50737 0.0
C846 C 0.21008 0.13474 0.52224 0.0
C847 C 0.20243 0.13998 0.48997 0.0
C848 C 0.22048 0.15278 0.49122 0.0
C849 C 0.1969 0.13078 0.50567 0.0
H850 H 0.238 0.15059 0.53561 0.0
H851 H 0.22449 0.16016 0.47932 0.0
O852 O 0.30153 0.20625 0.51642 0.0
O853 O 0.27383 0.17417 0.53358 0.0
O854 O 0.25727 0.20105 0.51061 0.0
O855 O 0.27524 0.17244 0.49005 0.0
H856 H 0.33192 0.21367 0.54218 0.0
H857 H 0.29788 0.23865 0.50556 0.0
H858 H 0.35319 0.24589 0.55376 0.0
H859 H 0.31964 0.27045 0.51788 0.0
H860 H 0.28229 0.11828 0.54937 0.0
H861 H 0.29718 0.18803 0.56549 0.0
H862 H 0.26776 0.13677 0.52807 0.0
H863 H 0.31102 0.16862 0.58622 0.0
H864 H 0.30127 0.25255 0.58944 0.0
H865 H 0.25172 0.20587 0.59127 0.0
H866 H 0.32231 0.12696 0.49187 0.0
H867 H 0.35011 0.16192 0.54455 0.0
H868 H 0.22662 0.18913 0.52761 0.0
H869 H 0.26719 0.2387 0.5151 0.0
H870 H 0.21075 0.21028 0.5455 0.0
H871 H 0.25067 0.25899 0.53327 0.0
H872 H 0.26071 0.17743 0.45618 0.0
H873 H 0.26456 0.13575 0.49336 0.0
H874 H 0.24041 0.15162 0.432 0.0
H875 H 0.24419 0.11066 0.46851 0.0
H876 H 0.30875 0.21854 0.43798 0.0
H877 H 0.25652 0.23461 0.44445 0.0
H878 H 0.20645 0.12853 0.53492 0.0
H879 H 0.19296 0.13734 0.4768 0.0
Li880 Li 0.13596 0.05314 0.78276 0.0
Li881 Li 0.11052 0.03036 0.79595 0.0
Li882 Li 0.13365 0.01888 0.77785 0.0
Li883 Li 0.10999 0.03157 0.76124 0.0
C884 C 0.14422 0.04567 0.82026 0.0
N885 N 0.15417 0.06454 0.85687 0.0
C886 C 0.13761 0.06146 0.82574 0.0
C887 C 0.15587 0.03946 0.83338 0.0
C888 C 0.14279 0.0708 0.84432 0.0
C889 C 0.16076 0.0492 0.85183 0.0
C890 C 0.09138 0.05486 0.77526 0.0
C891 C 0.05716 0.04373 0.76815 0.0
N892 N 0.05697 0.05994 0.76062 0.0
C893 C 0.09086 0.07142 0.76748 0.0
C894 C 0.07442 0.0409 0.77563 0.0
C895 C 0.07331 0.07372 0.76014 0.0
C896 C 0.14875 0.08946 0.77268 0.0
N897 N 0.15304 0.07821 0.78539 0.0
C898 C 0.18127 0.10251 0.79881 0.0
C899 C 0.16907 0.08426 0.79821 0.0
C900 C 0.17703 0.11458 0.78599 0.0
C901 C 0.16052 0.10774 0.77275 0.0
H902 H 0.13628 0.08407 0.76223 0.0
H903 H 0.17252 0.0749 0.80786 0.0
C904 C 0.0994 0.01283 0.8286 0.0
N905 N 0.09773 0.02732 0.81874 0.0
C906 C 0.09291 0.01162 0.84644 0.0
C907 C 0.08279 0.04012 0.84368 0.0
C908 C 0.08948 0.04078 0.82589 0.0
C909 C 0.08466 0.02554 0.85445 0.0
H910 H 0.10642 0.00253 0.82291 0.0
H911 H 0.08862 0.05242 0.81807 0.0
C912 C 0.15565 0.04194 0.75466 0.0
N913 N 0.19247 0.05179 0.74556 0.0
C914 C 0.15895 0.04548 0.73627 0.0
C915 C 0.17107 0.04346 0.76845 0.0
C916 C 0.17767 0.05042 0.73194 0.0
C917 C 0.18958 0.04845 0.76356 0.0
C918 C 0.09974 0.99203 0.76234 0.0
C919 C 0.10749 0.99115 0.74521 0.0
C920 C 0.08671 0.97599 0.76667 0.0
C921 C 0.10201 0.9742 0.73265 0.0
C922 C 0.08159 0.95929 0.75373 0.0
N923 N 0.08928 0.95875 0.73713 0.0
C924 C 0.15163 0.99188 0.79171 0.0
C925 C 0.1546 0.99543 0.75949 0.0
C926 C 0.16232 0.9785 0.79107 0.0
N927 N 0.14805 1.00011 0.77608 0.0
C928 C 0.1654 0.98222 0.75825 0.0
C929 C 0.16949 0.97356 0.7742 0.0
H930 H 0.14627 0.99579 0.80473 0.0
H931 H 0.1515 0.002 0.74716 0.0
C932 C 0.10339 0.04683 0.72785 0.0
N933 N 0.09587 0.0315 0.73651 0.0
C934 C 0.09601 0.04824 0.70941 0.0
C935 C 0.07299 0.01806 0.70889 0.0
C936 C 0.08067 0.01737 0.72754 0.0
C937 C 0.0808 0.03357 0.69934 0.0
H938 H 0.11541 0.05795 0.73524 0.0
H939 H 0.07477 0.0053 0.73462 0.0
O940 O 0.13901 0.03602 0.80227 0.0
O941 O 0.10843 0.05199 0.78195 0.0
O942 O 0.1374 0.03729 0.75912 0.0
O943 O 0.10501 0.00839 0.77499 0.0
H944 H 0.12853 0.06644 0.81579 0.0
H945 H 0.16105 0.02721 0.82937 0.0
H946 H 0.13776 0.08303 0.84876 0.0
H947 H 0.16977 0.04456 0.86215 0.0
H948 H 0.04392 0.03301 0.76827 0.0
H949 H 0.10385 0.08236 0.76706 0.0
H950 H 0.07461 0.02791 0.78145 0.0
H951 H 0.07269 0.08644 0.75404 0.0
H952 H 0.1938 0.10714 0.8093 0.0
H953 H 0.15687 0.11629 0.76228 0.0
H954 H 0.095 1.00027 0.85418 0.0
H955 H 0.07638 0.05108 0.849 0.0
H956 H 0.14715 0.04441 0.72547 0.0
H957 H 0.1688 0.04085 0.78278 0.0
H958 H 0.18044 0.05319 0.71776 0.0
H959 H 0.20164 0.04967 0.77407 0.0
H960 H 0.11753 0.00344 0.74157 0.0
H961 H 0.08064 0.97644 0.77991 0.0
H962 H 0.10787 0.97333 0.71932 0.0
H963 H 0.07151 0.94676 0.75689 0.0
H964 H 0.16522 0.97235 0.80378 0.0
H965 H 0.17035 0.97868 0.74486 0.0
H966 H 0.1023 0.06078 0.70314 0.0
H967 H 0.06141 0.00625 0.70189 0.0
Li968 Li 0.2528 0.91663 0.00761 0.0
Li969 Li 0.26566 0.88915 0.01788 0.0
Li970 Li 0.28338 0.91363 0.00051 0.0
Li971 Li 0.25635 0.89053 0.9852 0.0
C972 C 0.28992 0.93133 0.03587 0.0
N973 N 0.32071 0.9598 0.05445 0.0
C974 C 0.30572 0.92674 0.04472 0.0
C975 C 0.28971 0.95038 0.03659 0.0
C976 C 0.32118 0.94135 0.05398 0.0
C977 C 0.30543 0.96457 0.04605 0.0
C978 C 0.22235 0.87885 0.99647 0.0
C979 C 0.19698 0.84989 0.98813 0.0
N980 N 0.18763 0.85879 0.97626 0.0
C981 C 0.21248 0.88771 0.98422 0.0
C982 C 0.21455 0.85979 0.99848 0.0
C983 C 0.19496 0.87733 0.97412 0.0
C984 C 0.23074 0.94188 0.00085 0.0
N985 N 0.23876 0.93387 0.01459 0.0
C986 C 0.22978 0.95356 0.03891 0.0
C987 C 0.23818 0.93912 0.03331 0.0
C988 C 0.22209 0.96263 0.02503 0.0
C989 C 0.22236 0.95645 0.00579 0.0
H990 H 0.23135 0.93731 0.98607 0.0
H991 H 0.24478 0.93249 0.04389 0.0
C992 C 0.285 0.87016 0.04052 0.0
N993 N 0.26753 0.87286 0.03599 0.0
C994 C 0.2872 0.85666 0.05219 0.0
C995 C 0.2533 0.84895 0.05427 0.0
C996 C 0.25182 0.86283 0.04274 0.0
C997 C 0.27117 0.8456 0.05902 0.0
H998 H 0.29715 0.87815 0.03461 0.0
H999 H 0.23811 0.86531 0.03883 0.0
C1000 C 0.27197 0.93072 0.97211 0.0
N1001 N 0.29111 0.95659 0.95043 0.0
C1002 C 0.28155 0.92475 0.9576 0.0
C1003 C 0.27198 0.94985 0.97547 0.0
C1004 C 0.29119 0.93803 0.94684 0.0
C1005 C 0.28177 0.96271 0.96438 0.0
C1006 C 0.28381 0.87158 0.98567 0.0
C1007 C 0.29255 0.87491 0.96932 0.0
C1008 C 0.27885 0.85314 0.99051 0.0
C1009 C 0.29568 0.85966 0.95778 0.0
C1010 C 0.28225 0.83827 0.97862 0.0
N1011 N 0.29048 0.8418 0.96261 0.0
C1012 C 0.32253 0.91831 0.99963 0.0
C1013 C 0.31362 0.94717 -0.00017 0.0
C1014 C 0.34171 0.92803 0.00043 0.0
N1015 N 0.30894 0.92795 0.99933 0.0
C1016 C 0.3326 0.95744 0.00047 0.0
C1017 C 0.34697 0.94789 0.00095 0.0
H1018 H 0.31854 0.90312 -0.00016 0.0
H1019 H 0.30275 0.95467 0.00039 0.0
C1020 C 0.24367 0.88051 0.94578 0.0
N1021 N 0.24531 0.87365 0.96259 0.0
C1022 C 0.23906 0.86805 0.92882 0.0
C1023 C 0.2364 0.8417 0.94696 0.0
C1024 C 0.24089 0.85465 0.96352 0.0
C1025 C 0.23616 0.84845 0.92934 0.0
H1026 H 0.24681 0.89566 0.94548 0.0
H1027 H 0.24184 0.84958 0.97712 0.0
O1028 O 0.27483 0.91725 0.02635 0.0
O1029 O 0.23969 0.88874 0.00621 0.0
O1030 O 0.26236 0.91786 0.98275 0.0
O1031 O 0.2804 0.88631 0.99702 0.0
H1032 H 0.30614 0.91209 0.04425 0.0
H1033 H 0.27772 0.95422 0.02962 0.0
H1034 H 0.33356 0.93801 0.06077 0.0
H1035 H 0.30552 0.97938 0.0466 0.0
H1036 H 0.19083 0.83511 0.98947 0.0
H1037 H 0.21841 0.90236 0.98233 0.0
H1038 H 0.22209 0.8526 0.00768 0.0
H1039 H 0.18721 0.88399 0.96452 0.0
H1040 H 0.22981 0.95797 0.05388 0.0
H1041 H 0.21624 0.96289 0.99469 0.0
H1042 H 0.30133 0.85494 0.0558 0.0
H1043 H 0.24053 0.8407 0.05906 0.0
H1044 H 0.28149 0.91 0.9546 0.0
H1045 H 0.26493 0.95487 0.98679 0.0
H1046 H 0.29871 0.93358 0.93561 0.0
H1047 H 0.28204 0.97757 0.96695 0.0
H1048 H 0.29697 0.88912 0.96563 0.0
H1049 H 0.27206 0.85024 0.00307 0.0
H1050 H 0.30229 0.86203 0.94502 0.0
H1051 H 0.27827 0.82391 0.98207 0.0
H1052 H 0.35231 0.9201 0.00125 0.0
H1053 H 0.33595 0.97273 0.00077 0.0
H1054 H 0.23904 0.87378 0.91546 0.0
H1055 H 0.23399 0.82666 0.94789 0.0
Li1056 Li 0.26277 0.38799 0.03003 0.0
Li1057 Li 0.27612 0.36647 0.04843 0.0
Li1058 Li 0.29806 0.39246 0.03331 0.0
Li1059 Li 0.27751 0.3636 0.01318 0.0
C1060 C 0.27988 0.40974 0.06594 0.0
N1061 N 0.27671 0.43988 0.09106 0.0
C1062 C 0.26981 0.40639 0.08148 0.0
C1063 C 0.28866 0.42844 0.06343 0.0
C1064 C 0.26827 0.4218 0.09394 0.0
C1065 C 0.28682 0.44348 0.07621 0.0
C1066 C 0.24063 0.34478 0.03153 0.0
C1067 C 0.22833 0.31139 0.03353 0.0
N1068 N 0.21298 0.31505 0.04097 0.0
C1069 C 0.22464 0.3482 0.03899 0.0
C1070 C 0.24243 0.32622 0.02859 0.0
C1071 C 0.21085 0.33299 0.04375 0.0
C1072 C 0.23802 0.40639 0.01082 0.0
N1073 N 0.24288 0.401 0.02783 0.0
C1074 C 0.22066 0.41544 0.04204 0.0
C1075 C 0.23417 0.40496 0.0432 0.0
C1076 C 0.2159 0.42185 0.02484 0.0
C1077 C 0.22464 0.41695 0.00903 0.0
H1078 H 0.24467 0.40264 0.99862 0.0
H1079 H 0.23773 0.40005 0.05641 0.0
C1080 C 0.289 0.34905 0.07968 0.0
N1081 N 0.27387 0.35432 0.07156 0.0
C1082 C 0.28854 0.34232 0.09736 0.0
C1083 C 0.25692 0.34639 0.09811 0.0
C1084 C 0.25796 0.35297 0.0804 0.0
C1085 C 0.27242 0.34112 0.10702 0.0
H1086 H 0.30169 0.35058 0.07269 0.0
H1087 H 0.24624 0.35763 0.07407 0.0
C1088 C 0.28496 0.40612 0.00046 0.0
N1089 N 0.2947 0.43727 0.98126 0.0
C1090 C 0.29018 0.404 0.98217 0.0
C1091 C 0.28442 0.42405 0.00882 0.0
C1092 C 0.29515 0.41993 0.97275 0.0
C1093 C 0.28944 0.43963 0.99893 0.0
C1094 C 0.30709 0.35173 0.02881 0.0
C1095 C 0.32404 0.35651 0.02069 0.0
C1096 C 0.2991 0.33285 0.03129 0.0
C1097 C 0.33255 0.3422 0.01484 0.0
C1098 C 0.30805 0.31896 0.02527 0.0
N1099 N 0.32444 0.32388 0.01721 0.0
C1100 C 0.33224 0.42015 0.05177 0.0
C1101 C 0.33067 0.41157 0.01862 0.0
C1102 C 0.35045 0.43252 0.05236 0.0
N1103 N 0.32273 0.41007 0.03503 0.0
C1104 C 0.3487 0.42381 0.01852 0.0
C1105 C 0.35899 0.43442 0.03556 0.0
H1106 H 0.32579 0.41842 0.06472 0.0
H1107 H 0.32309 0.40302 0.00559 0.0
C1108 C 0.26228 0.33447 0.98008 0.0
N1109 N 0.27764 0.3484 0.98903 0.0
C1110 C 0.26258 0.32566 0.96166 0.0
C1111 C 0.29456 0.3454 0.96211 0.0
C1112 C 0.29364 0.35378 0.98044 0.0
C1113 C 0.27881 0.33126 0.95222 0.0
H1114 H 0.24958 0.33054 0.98699 0.0
H1115 H 0.30551 0.36522 0.98755 0.0
O1116 O 0.28161 0.39478 0.05364 0.0
O1117 O 0.2543 0.3595 0.02685 0.0
O1118 O 0.28022 0.39069 0.00999 0.0
O1119 O 0.29842 0.36549 0.03442 0.0
H1120 H 0.26308 0.39206 0.0838 0.0
H1121 H 0.29703 0.43137 0.05189 0.0
H1122 H 0.26036 0.41938 0.10592 0.0
H1123 H 0.2935 0.45801 0.07437 0.0
H1124 H 0.22957 0.29696 0.03141 0.0
H1125 H 0.22299 0.36248 0.04122 0.0
H1126 H 0.25454 0.3233 0.02249 0.0
H1127 H 0.19846 0.33544 0.04967 0.0
H1128 H 0.21433 0.41883 0.05463 0.0
H1129 H 0.22112 0.42116 0.99536 0.0
H1130 H 0.30098 0.33869 0.10367 0.0
H1131 H 0.24409 0.34557 0.10478 0.0
H1132 H 0.29045 0.39022 0.97533 0.0
H1133 H 0.27983 0.42585 0.02266 0.0
H1134 H 0.29933 0.4185 0.95864 0.0
H1135 H 0.28908 0.45358 0.00528 0.0
H1136 H 0.33047 0.37109 0.01881 0.0
H1137 H 0.28617 0.32899 0.03785 0.0
H1138 H 0.3456 0.34567 0.00841 0.0
H1139 H 0.302 0.30428 0.02704 0.0
H1140 H 0.35793 0.44014 0.06588 0.0
H1141 H 0.35451 0.42488 0.00516 0.0
H1142 H 0.25012 0.31472 0.95481 0.0
H1143 H 0.30725 0.35058 0.95548 0.0
Li1144 Li 0.79701 0.1623 0.06466 0.0
Li1145 Li 0.79982 0.14068 0.0372 0.0
Li1146 Li 0.79111 0.16918 0.03182 0.0
Li1147 Li 0.76887 0.14217 0.04299 0.0
C1148 C 0.82787 0.18541 0.05076 0.0
N1149 N 0.85242 0.22125 0.06186 0.0
C1150 C 0.84759 0.18806 0.05187 0.0
C1151 C 0.82066 0.20102 0.05525 0.0
C1152 C 0.85976 0.20628 0.05752 0.0
C1153 C 0.83329 0.21901 0.06083 0.0
C1154 C 0.77716 0.11951 0.06805 0.0
C1155 C 0.75433 0.08878 0.06502 0.0
N1156 N 0.75539 0.09018 0.08426 0.0
C1157 C 0.77814 0.12055 0.08779 0.0
C1158 C 0.76529 0.10341 0.05657 0.0
C1159 C 0.76698 0.10561 0.09571 0.0
C1160 C 0.78933 0.17161 0.10042 0.0
N1161 N 0.80427 0.17356 0.09018 0.0
C1162 C 0.82496 0.19495 0.11562 0.0
C1163 C 0.82203 0.18446 0.09755 0.0
C1164 C 0.80957 0.19364 0.12617 0.0
C1165 C 0.79169 0.18144 0.1186 0.0
H1166 H 0.77535 0.163 0.09406 0.0
H1167 H 0.83375 0.18561 0.08923 0.0
C1168 C 0.83197 0.13065 0.02496 0.0
N1169 N 0.81369 0.12375 0.02834 0.0
C1170 C 0.84232 0.11821 0.01851 0.0
C1171 C 0.81458 0.0919 0.01863 0.0
C1172 C 0.80491 0.10482 0.02532 0.0
C1173 C 0.83362 0.09851 0.01534 0.0
H1174 H 0.83852 0.14581 0.02738 0.0
H1175 H 0.79032 0.09974 0.02787 0.0
C1176 C 0.76389 0.18117 0.05662 0.0
N1177 N 0.74081 0.20475 0.06496 0.0
C1178 C 0.74526 0.17696 0.0474 0.0
C1179 C 0.7707 0.19734 0.07022 0.0
C1180 C 0.73385 0.18907 0.05176 0.0
C1181 C 0.75883 0.20909 0.0742 0.0
C1182 C 0.78319 0.13414 0.00239 0.0
C1183 C 0.79775 0.14354 0.99273 0.0
C1184 C 0.77335 0.1152 0.99585 0.0
C1185 C 0.80229 0.1338 0.97667 0.0
C1186 C 0.77831 0.10596 0.97974 0.0
N1187 N 0.79256 0.11537 0.97057 0.0
C1188 C 0.80756 0.19756 0.00936 0.0
C1189 C 0.77425 0.19126 0.01052 0.0
C1190 C 0.80673 0.21045 0.9965 0.0
N1191 N 0.79141 0.18828 0.01602 0.0
C1192 C 0.77278 0.2041 0.99787 0.0
C1193 C 0.78911 0.21367 0.99051 0.0
H1194 H 0.82096 0.19455 0.01355 0.0
H1195 H 0.76157 0.1831 0.01539 0.0
C1196 C 0.73389 0.12748 0.05729 0.0
N1197 N 0.74266 0.1296 0.0414 0.0
C1198 C 0.71451 0.11816 0.05576 0.0
C1199 C 0.7135 0.11417 0.02156 0.0
C1200 C 0.73289 0.12339 0.02376 0.0
C1201 C 0.70411 0.11137 0.03769 0.0
H1202 H 0.74198 0.13297 0.07112 0.0
H1203 H 0.74013 0.12577 0.01139 0.0
O1204 O 0.81582 0.16759 0.04536 0.0
O1205 O 0.788 0.13406 0.0601 0.0
O1206 O 0.77517 0.16925 0.0528 0.0
O1207 O 0.77892 0.14332 0.01843 0.0
H1208 H 0.85345 0.17615 0.0485 0.0
H1209 H 0.80551 0.19931 0.05426 0.0
H1210 H 0.87505 0.20852 0.05848 0.0
H1211 H 0.82787 0.2312 0.06433 0.0
H1212 H 0.7449 0.07637 0.05629 0.0
H1213 H 0.78753 0.13268 0.09693 0.0
H1214 H 0.76407 0.10245 0.04127 0.0
H1215 H 0.76758 0.10626 0.11097 0.0
H1216 H 0.83893 0.20423 0.12112 0.0
H1217 H 0.77944 0.18031 0.12627 0.0
H1218 H 0.85705 0.12395 0.01642 0.0
H1219 H 0.80716 0.07691 0.01601 0.0
H1220 H 0.73971 0.16459 0.0368 0.0
H1221 H 0.78497 0.20082 0.07771 0.0
H1222 H 0.71945 0.18601 0.04464 0.0
H1223 H 0.76395 0.22164 0.08467 0.0
H1224 H 0.80567 0.15811 0.99774 0.0
H1225 H 0.76224 0.1076 0.00332 0.0
H1226 H 0.8136 0.14087 0.96912 0.0
H1227 H 0.7709 0.09127 0.97458 0.0
H1228 H 0.81959 0.21748 0.99098 0.0
H1229 H 0.75885 0.20579 0.99317 0.0
H1230 H 0.70767 0.11651 0.06851 0.0
H1231 H 0.70597 0.10911 0.0074 0.0
Li1232 Li 0.18009 0.55332 0.24903 0.0
Li1233 Li 0.15753 0.5442 0.27009 0.0
Li1234 Li 0.17561 0.52282 0.25892 0.0
Li1235 Li 0.15099 0.53014 0.23755 0.0
C1236 C 0.19365 0.56353 0.28771 0.0
N1237 N 0.21068 0.59577 0.31336 0.0
C1238 C 0.18949 0.58075 0.28528 0.0
C1239 C 0.2065 0.56272 0.30318 0.0
C1240 C 0.19824 0.59689 0.29839 0.0
C1241 C 0.21495 0.57917 0.316 0.0
C1242 C 0.13676 0.56066 0.24625 0.0
C1243 C 0.10306 0.55116 0.24875 0.0
N1244 N 0.10144 0.56804 0.24358 0.0
C1245 C 0.13475 0.5779 0.24096 0.0
C1246 C 0.12078 0.54716 0.25018 0.0
C1247 C 0.11678 0.58137 0.2397 0.0
C1248 C 0.19207 0.58636 0.2326 0.0
N1249 N 0.19844 0.5742 0.24285 0.0
C1250 C 0.22982 0.59513 0.24863 0.0
C1251 C 0.21699 0.57795 0.25042 0.0
C1252 C 0.22333 0.60869 0.23938 0.0
C1253 C 0.20432 0.60384 0.23072 0.0
H1254 H 0.1772 0.58293 0.22682 0.0
H1255 H 0.22158 0.56803 0.25866 0.0
C1256 C 0.14237 0.54027 0.30428 0.0
N1257 N 0.14692 0.55251 0.29143 0.0
C1258 C 0.13442 0.54562 0.32029 0.0
C1259 C 0.13614 0.57609 0.30953 0.0
C1260 C 0.1441 0.57018 0.29378 0.0
C1261 C 0.13115 0.56372 0.32299 0.0
H1262 H 0.14484 0.52633 0.302 0.0
H1263 H 0.14803 0.57972 0.28344 0.0
C1264 C 0.19194 0.53322 0.22258 0.0
N1265 N 0.22264 0.54272 0.20235 0.0
C1266 C 0.18921 0.5372 0.20398 0.0
C1267 C 0.21027 0.53397 0.23085 0.0
C1268 C 0.20492 0.54201 0.194 0.0
C1269 C 0.22561 0.53882 0.22041 0.0
C1270 C 0.13961 0.49749 0.25557 0.0
C1271 C 0.14516 0.48763 0.24021 0.0
C1272 C 0.12601 0.48767 0.26599 0.0
C1273 C 0.13698 0.46807 0.23553 0.0
C1274 C 0.11814 0.46811 0.26085 0.0
N1275 N 0.12375 0.45879 0.24586 0.0
C1276 C 0.1936 0.5047 0.2844 0.0
C1277 C 0.1939 0.49399 0.25189 0.0
C1278 C 0.20556 0.49364 0.28993 0.0
N1279 N 0.18837 0.50488 0.26567 0.0
C1280 C 0.20599 0.48289 0.25675 0.0
C1281 C 0.21226 0.48296 0.27596 0.0
H1282 H 0.18902 0.51368 0.29499 0.0
H1283 H 0.18956 0.49452 0.23711 0.0
C1284 C 0.13609 0.53469 0.20298 0.0
N1285 N 0.13248 0.5224 0.2159 0.0
C1286 C 0.12422 0.53157 0.18594 0.0
C1287 C 0.10452 0.50343 0.19598 0.0
C1288 C 0.11683 0.50719 0.213 0.0
C1289 C 0.10838 0.51559 0.18209 0.0
H1290 H 0.14825 0.54705 0.20605 0.0
H1291 H 0.11382 0.49799 0.22378 0.0
O1292 O 0.18544 0.5475 0.275 0.0
O1293 O 0.15435 0.5572 0.24753 0.0
O1294 O 0.17677 0.52867 0.23267 0.0
O1295 O 0.1475 0.51661 0.26067 0.0
H1296 H 0.17967 0.58172 0.27337 0.0
H1297 H 0.20993 0.54951 0.30523 0.0
H1298 H 0.19516 0.61031 0.29665 0.0
H1299 H 0.22492 0.57874 0.32803 0.0
H1300 H 0.09059 0.54084 0.25175 0.0
H1301 H 0.14696 0.58853 0.23792 0.0
H1302 H 0.12196 0.53374 0.25432 0.0
H1303 H 0.11503 0.59466 0.23564 0.0
H1304 H 0.24442 0.59812 0.25524 0.0
H1305 H 0.19855 0.61387 0.22368 0.0
H1306 H 0.13055 0.53557 0.33024 0.0
H1307 H 0.13403 0.59023 0.31123 0.0
H1308 H 0.17514 0.53653 0.19726 0.0
H1309 H 0.21272 0.5312 0.24532 0.0
H1310 H 0.20301 0.54515 0.1796 0.0
H1311 H 0.23988 0.53959 0.22669 0.0
H1312 H 0.15549 0.49497 0.23183 0.0
H1313 H 0.12158 0.4951 0.27794 0.0
H1314 H 0.14111 0.46028 0.22365 0.0
H1315 H 0.10759 0.46033 0.26879 0.0
H1316 H 0.21016 0.49403 0.30487 0.0
H1317 H 0.21067 0.47459 0.24561 0.0
H1318 H 0.12737 0.54167 0.17592 0.0
H1319 H 0.09235 0.49104 0.1936 0.0
Li1320 Li 0.76418 0.88766 0.53168 0.0
Li1321 Li 0.77804 0.86605 0.54976 0.0
Li1322 Li 0.79977 0.89302 0.53547 0.0
Li1323 Li 0.77979 0.86439 0.51466 0.0
C1324 C 0.78025 0.90703 0.56965 0.0
N1325 N 0.77572 0.93278 0.59891 0.0
C1326 C 0.76859 0.90084 0.58339 0.0
C1327 C 0.78986 0.92631 0.57099 0.0
C1328 C 0.7664 0.91407 0.59801 0.0
C1329 C 0.78732 0.9391 0.58583 0.0
C1330 C 0.74282 0.84366 0.5312 0.0
C1331 C 0.73212 0.80998 0.53252 0.0
N1332 N 0.71534 0.81224 0.5378 0.0
C1333 C 0.72544 0.84566 0.5365 0.0
C1334 C 0.74617 0.82569 0.52906 0.0
C1335 C 0.71174 0.82959 0.53982 0.0
C1336 C 0.73937 0.90663 0.51314 0.0
N1337 N 0.74389 0.90032 0.52975 0.0
C1338 C 0.72098 0.91352 0.54424 0.0
C1339 C 0.73464 0.90318 0.54501 0.0
C1340 C 0.71666 0.92096 0.52755 0.0
C1341 C 0.72589 0.91712 0.51177 0.0
H1342 H 0.74635 0.90369 0.50093 0.0
H1343 H 0.73789 0.89752 0.55786 0.0
C1344 C 0.79276 0.85312 0.58297 0.0
N1345 N 0.77623 0.85363 0.57276 0.0
C1346 C 0.79264 0.84668 0.60079 0.0
C1347 C 0.75846 0.84099 0.59729 0.0
C1348 C 0.75924 0.84759 0.57958 0.0
C1349 C 0.77533 0.84067 0.60837 0.0
H1350 H 0.80616 0.8582 0.57747 0.0
H1351 H 0.7463 0.84865 0.57172 0.0
C1352 C 0.78541 0.90818 0.50427 0.0
N1353 N 0.79212 0.94171 0.48857 0.0
C1354 C 0.78806 0.90812 0.48513 0.0
C1355 C 0.78604 0.92526 0.51537 0.0
C1356 C 0.79148 0.92523 0.47748 0.0
C1357 C 0.78948 0.94207 0.50719 0.0
C1358 C 0.8098 0.85313 0.52935 0.0
C1359 C 0.82549 0.85874 0.51951 0.0
C1360 C 0.80353 0.8342 0.53246 0.0
C1361 C 0.83445 0.84517 0.5126 0.0
C1362 C 0.81288 0.82106 0.52535 0.0
N1363 N 0.828 0.82677 0.51562 0.0
C1364 C 0.83391 0.9191 0.55547 0.0
C1365 C 0.83151 0.91581 0.52189 0.0
C1366 C 0.85185 0.93218 0.55699 0.0
N1367 N 0.82411 0.91132 0.53809 0.0
C1368 C 0.8492 0.92899 0.52275 0.0
C1369 C 0.85964 0.93736 0.54045 0.0
H1370 H 0.82784 0.91506 0.56815 0.0
H1371 H 0.82379 0.90896 0.50825 0.0
C1372 C 0.76766 0.83415 0.48154 0.0
N1373 N 0.7808 0.85031 0.49013 0.0
C1374 C 0.76888 0.82637 0.46294 0.0
C1375 C 0.79719 0.85175 0.46252 0.0
C1376 C 0.79547 0.85896 0.48102 0.0
C1377 C 0.78363 0.8354 0.45299 0.0
H1378 H 0.75592 0.82758 0.48886 0.0
H1379 H 0.80567 0.87187 0.48801 0.0
O1380 O 0.78276 0.89422 0.55536 0.0
O1381 O 0.7564 0.85923 0.52797 0.0
O1382 O 0.78224 0.8916 0.51208 0.0
O1383 O 0.80068 0.86613 0.53598 0.0
H1384 H 0.76107 0.88601 0.58263 0.0
H1385 H 0.79932 0.93137 0.56079 0.0
H1386 H 0.75727 0.90947 0.60863 0.0
H1387 H 0.79463 0.95406 0.58699 0.0
H1388 H 0.73453 0.79598 0.53098 0.0
H1389 H 0.72263 0.85948 0.53814 0.0
H1390 H 0.75947 0.8239 0.52476 0.0
H1391 H 0.69826 0.83092 0.54403 0.0
H1392 H 0.71424 0.91605 0.55677 0.0
H1393 H 0.72271 0.92214 0.49844 0.0
H1394 H 0.80602 0.84652 0.60859 0.0
H1395 H 0.74479 0.83686 0.60254 0.0
H1396 H 0.78746 0.89502 0.47628 0.0
H1397 H 0.78367 0.92547 0.53006 0.0
H1398 H 0.7936 0.9254 0.4627 0.0
H1399 H 0.78998 0.95538 0.51563 0.0
H1400 H 0.8306 0.87339 0.51713 0.0
H1401 H 0.7916 0.82972 0.54034 0.0
H1402 H 0.84652 0.84928 0.50484 0.0
H1403 H 0.80814 0.80634 0.52758 0.0
H1404 H 0.8595 0.93827 0.57092 0.0
H1405 H 0.85488 0.93225 0.50966 0.0
H1406 H 0.75797 0.81383 0.45617 0.0
H1407 H 0.80897 0.85911 0.45567 0.0
Li1408 Li 0.94588 0.0346 0.28116 0.0
Li1409 Li 0.91698 0.01404 0.26097 0.0
Li1410 Li 0.94319 0.03557 0.24561 0.0
Li1411 Li 0.92148 0.04917 0.26414 0.0
C1412 C 0.95818 0.00512 0.26432 0.0
N1413 N 0.98679 0.98802 0.27344 0.0
C1414 C 0.95401 0.98801 0.27198 0.0
C1415 C 0.97683 0.01339 0.26103 0.0
C1416 C 0.96869 0.97964 0.27659 0.0
C1417 C 0.99111 0.00456 0.2658 0.0
C1418 C 0.90334 0.02637 0.29399 0.0
C1419 C 0.86956 0.01972 0.29594 0.0
N1420 N 0.87242 0.01433 0.31338 0.0
C1421 C 0.90596 0.02099 0.31204 0.0
C1422 C 0.88502 0.02591 0.28597 0.0
C1423 C 0.89014 0.01486 0.32156 0.0
C1424 C 0.97397 0.05023 0.31499 0.0
N1425 N 0.96093 0.03453 0.30535 0.0
C1426 C 0.96445 0.01716 0.33154 0.0
C1427 C 0.95625 0.01816 0.31326 0.0
C1428 C 0.97768 0.0332 0.34211 0.0
C1429 C 0.98259 0.04985 0.33337 0.0
H1430 H 0.97733 0.06323 0.30866 0.0
H1431 H 0.94544 0.00602 0.30568 0.0
C1432 C 0.88825 0.98019 0.2431 0.0
N1433 N 0.89936 0.98942 0.25945 0.0
C1434 C 0.87593 0.96202 0.24272 0.0
C1435 C 0.88676 0.96325 0.27596 0.0
C1436 C 0.89892 0.98123 0.27564 0.0
C1437 C 0.87513 0.95323 0.25932 0.0
H1438 H 0.88914 0.98681 0.23028 0.0
H1439 H 0.90824 0.9886 0.28832 0.0
C1440 C 0.96564 0.07081 0.2634 0.0
N1441 N 0.99702 0.09774 0.25573 0.0
C1442 C 0.9633 0.08688 0.25566 0.0
C1443 C 0.98394 0.06857 0.26753 0.0
C1444 C 0.97935 0.1003 0.2518 0.0
C1445 C 0.99962 0.08231 0.26347 0.0
C1446 C 0.90032 0.03292 0.22851 0.0
C1447 C 0.90449 0.04354 0.2136 0.0
C1448 C 0.8813 0.0248 0.23073 0.0
C1449 C 0.88958 0.04629 0.20147 0.0
C1450 C 0.86677 0.02787 0.21831 0.0
N1451 N 0.87118 0.03849 0.20408 0.0
C1452 C 0.95991 0.02167 0.21383 0.0
C1453 C 0.95802 0.05333 0.21377 0.0
C1454 C 0.96682 0.02174 0.19612 0.0
N1455 N 0.95558 0.03731 0.22232 0.0
C1456 C 0.96477 0.05398 0.19602 0.0
C1457 C 0.96915 0.03798 0.18676 0.0
H1458 H 0.95751 0.0089 0.22056 0.0
H1459 H 0.95409 0.06547 0.22037 0.0
C1460 C 0.90113 0.07298 0.28262 0.0
N1461 N 0.90836 0.06909 0.26623 0.0
C1462 C 0.89056 0.0864 0.28417 0.0
C1463 C 0.89572 0.09233 0.25225 0.0
C1464 C 0.9062 0.07879 0.25134 0.0
C1465 C 0.8875 0.09618 0.26877 0.0
H1466 H 0.90339 0.06553 0.29451 0.0
H1467 H 0.91263 0.07606 0.2387 0.0
O1468 O 0.94403 0.01361 0.25986 0.0
O1469 O 0.91864 0.03215 0.28431 0.0
O1470 O 0.9501 0.05752 0.26724 0.0
O1471 O 0.91478 0.03007 0.24051 0.0
H1472 H 0.9396 0.98134 0.27445 0.0
H1473 H 0.98022 0.02642 0.25476 0.0
H1474 H 0.96569 0.96647 0.28265 0.0
H1475 H 0.00563 0.01083 0.26339 0.0
H1476 H 0.8553 0.01927 0.28986 0.0
H1477 H 0.92004 0.0215 0.31862 0.0
H1478 H 0.88279 0.03054 0.2723 0.0
H1479 H 0.89197 0.01055 0.33548 0.0
H1480 H 0.95978 0.00411 0.3376 0.0
H1481 H 0.99283 0.06257 0.34071 0.0
H1482 H 0.86751 0.95477 0.22947 0.0
H1483 H 0.88654 0.95728 0.28918 0.0
H1484 H 0.94923 0.08889 0.25254 0.0
H1485 H 0.98601 0.05642 0.2739 0.0
H1486 H 0.97775 0.11275 0.24568 0.0
H1487 H 0.01387 0.08073 0.26653 0.0
H1488 H 0.91908 0.04978 0.21152 0.0
H1489 H 0.87773 0.01606 0.24179 0.0
H1490 H 0.89263 0.05464 0.19 0.0
H1491 H 0.852 0.02172 0.21994 0.0
H1492 H 0.96971 0.00894 0.18955 0.0
H1493 H 0.96645 0.06691 0.18958 0.0
H1494 H 0.88451 0.08877 0.29718 0.0
H1495 H 0.89421 0.09981 0.24017 0.0
Li1496 Li 0.29898 0.66937 0.56403 0.0
Li1497 Li 0.30529 0.64303 0.54484 0.0
Li1498 Li 0.29 0.66471 0.53063 0.0
Li1499 Li 0.27321 0.64178 0.54952 0.0
C1500 C 0.33212 0.68351 0.55262 0.0
N1501 N 0.36431 0.70982 0.57171 0.0
C1502 C 0.34769 0.67753 0.55993 0.0
C1503 C 0.33294 0.70287 0.55495 0.0
C1504 C 0.36384 0.69106 0.56954 0.0
C1505 C 0.34932 0.71595 0.56469 0.0
C1506 C 0.28489 0.63284 0.58187 0.0
C1507 C 0.26685 0.60338 0.59078 0.0
N1508 N 0.2637 0.61311 0.60693 0.0
C1509 C 0.2815 0.64255 0.59857 0.0
C1510 C 0.27756 0.61309 0.57795 0.0
C1511 C 0.27075 0.63232 0.61106 0.0
C1512 C 0.29725 0.7006 0.58895 0.0
N1513 N 0.30753 0.68782 0.58578 0.0
C1514 C 0.32811 0.70076 0.61474 0.0
C1515 C 0.32278 0.68767 0.59818 0.0
C1516 C 0.31748 0.71392 0.61854 0.0
C1517 C 0.30204 0.71388 0.60524 0.0
H1518 H 0.28489 0.70005 0.57917 0.0
H1519 H 0.33049 0.67711 0.59542 0.0
C1520 C 0.3327 0.63098 0.52608 0.0
N1521 N 0.32215 0.62794 0.54067 0.0
C1522 C 0.34283 0.61816 0.52024 0.0
C1523 C 0.33193 0.60002 0.54532 0.0
C1524 C 0.32192 0.61315 0.55061 0.0
C1525 C 0.34219 0.60221 0.52967 0.0
H1526 H 0.33248 0.64289 0.51844 0.0
H1527 H 0.31346 0.61121 0.56221 0.0
C1528 C 0.26297 0.67891 0.54241 0.0
N1529 N 0.24093 0.69859 0.5238 0.0
C1530 C 0.24417 0.66974 0.5346 0.0
C1531 C 0.27051 0.69813 0.54082 0.0
C1532 C 0.23326 0.67994 0.52526 0.0
C1533 C 0.25916 0.70781 0.53132 0.0
C1534 C 0.28674 0.62405 0.51217 0.0
C1535 C 0.29394 0.62992 0.49571 0.0
C1536 C 0.28448 0.60519 0.51539 0.0
C1537 C 0.29885 0.61683 0.48278 0.0
C1538 C 0.28961 0.59255 0.50215 0.0
N1539 N 0.29663 0.59858 0.48626 0.0
C1540 C 0.29854 0.693 0.50648 0.0
C1541 C 0.26957 0.6688 0.49744 0.0
C1542 C 0.29401 0.70288 0.49189 0.0
N1543 N 0.28614 0.67654 0.50914 0.0
C1544 C 0.26446 0.67819 0.48271 0.0
C1545 C 0.27661 0.69562 0.48002 0.0
H1546 H 0.31165 0.69871 0.51599 0.0
H1547 H 0.26002 0.65568 0.50005 0.0
C1548 C 0.23853 0.63083 0.56524 0.0
N1549 N 0.24866 0.62625 0.55129 0.0
C1550 C 0.21945 0.62087 0.56486 0.0
C1551 C 0.22183 0.60153 0.53601 0.0
C1552 C 0.24079 0.61185 0.53695 0.0
C1553 C 0.21081 0.60623 0.54989 0.0
H1554 H 0.24507 0.64266 0.57623 0.0
H1555 H 0.24896 0.60891 0.52574 0.0
O1556 O 0.31612 0.67047 0.54331 0.0
O1557 O 0.2952 0.64262 0.56936 0.0
O1558 O 0.27404 0.66906 0.55125 0.0
O1559 O 0.28222 0.63677 0.5252 0.0
H1560 H 0.34728 0.66261 0.55834 0.0
H1561 H 0.32093 0.70773 0.5496 0.0
H1562 H 0.37598 0.68663 0.57532 0.0
H1563 H 0.3501 0.73096 0.56672 0.0
H1564 H 0.26098 0.58812 0.58786 0.0
H1565 H 0.28699 0.65782 0.60182 0.0
H1566 H 0.27984 0.60537 0.56498 0.0
H1567 H 0.26797 0.63965 0.62401 0.0
H1568 H 0.34007 0.70028 0.62466 0.0
H1569 H 0.29309 0.72335 0.60784 0.0
H1570 H 0.35043 0.62031 0.50802 0.0
H1571 H 0.33141 0.58814 0.55323 0.0
H1572 H 0.2381 0.65486 0.53551 0.0
H1573 H 0.28512 0.70541 0.54651 0.0
H1574 H 0.21873 0.67299 0.51909 0.0
H1575 H 0.26489 0.72262 0.52982 0.0
H1576 H 0.29594 0.64448 0.49304 0.0
H1577 H 0.27916 0.60045 0.52817 0.0
H1578 H 0.30451 0.6212 0.47003 0.0
H1579 H 0.28812 0.57797 0.50456 0.0
H1580 H 0.30391 0.71612 0.49003 0.0
H1581 H 0.25085 0.6722 0.47396 0.0
H1582 H 0.21144 0.62487 0.57588 0.0
H1583 H 0.21564 0.59064 0.52402 0.0
Li1584 Li 0.41777 0.51252 0.7617 0.0
Li1585 Li 0.4464 0.53286 0.78224 0.0
Li1586 Li 0.42222 0.54761 0.76534 0.0
Li1587 Li 0.4442 0.53428 0.74681 0.0
C1588 C 0.40315 0.5242 0.79389 0.0
N1589 N 0.37089 0.51143 0.8112 0.0
C1590 C 0.40481 0.51969 0.81239 0.0
C1591 C 0.38509 0.52242 0.7843 0.0
C1592 C 0.38833 0.5132 0.82087 0.0
C1593 C 0.36895 0.51589 0.79325 0.0
C1594 C 0.45923 0.5039 0.76509 0.0
C1595 C 0.492 0.50317 0.76502 0.0
N1596 N 0.48833 0.48735 0.77387 0.0
C1597 C 0.45571 0.4875 0.77395 0.0
C1598 C 0.47745 0.5117 0.7604 0.0
C1599 C 0.47064 0.4794 0.77837 0.0
C1600 C 0.38889 0.47898 0.74344 0.0
N1601 N 0.4001 0.48791 0.75982 0.0
C1602 C 0.38742 0.46151 0.77598 0.0
C1603 C 0.39965 0.4795 0.77587 0.0
C1604 C 0.37573 0.45173 0.75928 0.0
C1605 C 0.37652 0.46079 0.74285 0.0
H1606 H 0.38973 0.48584 0.73076 0.0
H1607 H 0.40892 0.48674 0.78863 0.0
C1608 C 0.47531 0.54696 0.81606 0.0
N1609 N 0.461 0.53226 0.80647 0.0
C1610 C 0.48337 0.54583 0.83447 0.0
C1611 C 0.46205 0.51448 0.8327 0.0
C1612 C 0.45454 0.51614 0.81439 0.0
C1613 C 0.47647 0.52954 0.84322 0.0
H1614 H 0.48007 0.55982 0.80975 0.0
H1615 H 0.44296 0.50476 0.80672 0.0
C1616 C 0.40309 0.53307 0.7285 0.0
N1617 N 0.37748 0.54144 0.70195 0.0
C1618 C 0.40965 0.54491 0.71511 0.0
C1619 C 0.38349 0.52522 0.72816 0.0
C1620 C 0.39649 0.54905 0.70187 0.0
C1621 C 0.37078 0.52969 0.71469 0.0
C1622 C 0.46681 0.56958 0.76639 0.0
C1623 C 0.46526 0.5869 0.76091 0.0
C1624 C 0.48478 0.56638 0.76984 0.0
C1625 C 0.48177 0.60065 0.75865 0.0
C1626 C 0.50095 0.58049 0.76743 0.0
N1627 N 0.49913 0.59717 0.76191 0.0
C1628 C 0.40028 0.57025 0.78307 0.0
C1629 C 0.40828 0.57824 0.75312 0.0
C1630 C 0.38955 0.58354 0.78436 0.0
N1631 N 0.40902 0.56748 0.76741 0.0
C1632 C 0.39772 0.59171 0.75382 0.0
C1633 C 0.3879 0.59435 0.76949 0.0
H1634 H 0.40153 0.56209 0.79461 0.0
H1635 H 0.41582 0.57633 0.74109 0.0
C1636 C 0.45644 0.51952 0.71284 0.0
N1637 N 0.45668 0.53606 0.72365 0.0
C1638 C 0.46309 0.51966 0.69502 0.0
C1639 C 0.47048 0.55389 0.69971 0.0
C1640 C 0.46365 0.55308 0.71741 0.0
C1641 C 0.4701 0.53701 0.68805 0.0
H1642 H 0.45065 0.50611 0.71788 0.0
H1643 H 0.46323 0.56608 0.72577 0.0
O1644 O 0.41909 0.53025 0.78519 0.0
O1645 O 0.44483 0.51211 0.76077 0.0
O1646 O 0.4158 0.5288 0.74152 0.0
O1647 O 0.45079 0.55597 0.76862 0.0
H1648 H 0.41866 0.5212 0.82015 0.0
H1649 H 0.38359 0.52617 0.77014 0.0
H1650 H 0.38941 0.50959 0.83515 0.0
H1651 H 0.35489 0.51442 0.78595 0.0
H1652 H 0.5062 0.5091 0.76155 0.0
H1653 H 0.44161 0.48115 0.77745 0.0
H1654 H 0.48031 0.52416 0.75318 0.0
H1655 H 0.46816 0.46679 0.78535 0.0
H1656 H 0.38717 0.45536 0.7891 0.0
H1657 H 0.36803 0.45375 0.72956 0.0
H1658 H 0.49433 0.5579 0.84206 0.0
H1659 H 0.45636 0.50156 0.83866 0.0
H1660 H 0.42474 0.55106 0.71509 0.0
H1661 H 0.37811 0.51564 0.73806 0.0
H1662 H 0.40139 0.55833 0.69154 0.0
H1663 H 0.35558 0.52376 0.71432 0.0
H1664 H 0.45144 0.58963 0.75831 0.0
H1665 H 0.48623 0.5532 0.77442 0.0
H1666 H 0.48079 0.61407 0.75431 0.0
H1667 H 0.51496 0.57818 0.76999 0.0
H1668 H 0.3827 0.58538 0.79696 0.0
H1669 H 0.39693 0.59966 0.74199 0.0
H1670 H 0.46268 0.50626 0.68677 0.0
H1671 H 0.4754 0.56762 0.69496 0.0
Li1672 Li 0.65134 0.02407 0.76671 0.0
Li1673 Li 0.67441 0.04212 0.74786 0.0
Li1674 Li 0.6461 0.01779 0.73167 0.0
Li1675 Li 0.67239 0.01009 0.75011 0.0
C1676 C 0.63898 0.05553 0.75269 0.0
N1677 N 0.62235 0.08473 0.76163 0.0
C1678 C 0.64975 0.07262 0.76343 0.0
C1679 C 0.61976 0.05341 0.74636 0.0
C1680 C 0.64109 0.08717 0.76784 0.0
C1681 C 0.61161 0.0683 0.75107 0.0
C1682 C 0.69188 0.02617 0.78342 0.0
C1683 C 0.7233 0.02253 0.79222 0.0
N1684 N 0.71702 0.01413 0.80734 0.0
C1685 C 0.68577 0.01763 0.79912 0.0
C1686 C 0.71084 0.0288 0.78001 0.0
C1687 C 0.69869 0.01162 0.81103 0.0
C1688 C 0.62729 0.01191 0.79514 0.0
N1689 N 0.63954 0.02666 0.789 0.0
C1690 C 0.6349 0.04849 0.81418 0.0
C1691 C 0.64405 0.04451 0.79864 0.0
C1692 C 0.62129 0.03378 0.82016 0.0
C1693 C 0.61784 0.0152 0.81072 0.0
H1694 H 0.62469 0.99762 0.78795 0.0
H1695 H 0.65468 0.05573 0.79414 0.0
C1696 C 0.68486 0.0771 0.73361 0.0
N1697 N 0.68976 0.06683 0.74705 0.0
C1698 C 0.69447 0.09626 0.73448 0.0
C1699 C 0.71417 0.09367 0.76275 0.0
C1700 C 0.70422 0.07459 0.7613 0.0
C1701 C 0.70908 0.10485 0.74944 0.0
H1702 H 0.67304 0.07056 0.72264 0.0
H1703 H 0.70745 0.06619 0.77203 0.0
C1704 C 0.62591 0.9889 0.75023 0.0
N1705 N 0.58832 0.9687 0.74962 0.0
C1706 C 0.62117 0.96921 0.75014 0.0
C1707 C 0.61153 0.99831 0.74999 0.0
C1708 C 0.60209 0.95924 0.74984 0.0
C1709 C 0.59262 0.98787 0.74969 0.0
C1710 C 0.68414 0.03209 0.71482 0.0
C1711 C 0.67601 0.0354 0.69744 0.0
C1712 C 0.70374 0.03958 0.72039 0.0
C1713 C 0.68756 0.04642 0.68606 0.0
C1714 C 0.7148 0.05056 0.70863 0.0
N1715 N 0.70655 0.05374 0.69185 0.0
C1716 C 0.6248 0.02836 0.70358 0.0
C1717 C 0.61613 0.99489 0.70333 0.0
C1718 C 0.61042 0.02686 0.6889 0.0
N1719 N 0.62723 0.01257 0.7106 0.0
C1720 C 0.60145 0.99271 0.68854 0.0
C1721 C 0.59836 0.00889 0.68132 0.0
H1722 H 0.63405 0.04218 0.70954 0.0
H1723 H 0.61848 0.98257 0.70917 0.0
C1724 C 0.68378 0.981 0.76574 0.0
N1725 N 0.68702 0.9926 0.75214 0.0
C1726 C 0.69671 0.97073 0.77057 0.0
C1727 C 0.71516 0.98343 0.74623 0.0
C1728 C 0.70196 0.99359 0.742 0.0
C1729 C 0.71287 0.9723 0.76107 0.0
H1730 H 0.67172 0.98057 0.77353 0.0
H1731 H 0.70411 0.00292 0.73124 0.0
O1732 O 0.64734 0.04123 0.74783 0.0
O1733 O 0.67932 0.03178 0.77136 0.0
O1734 O 0.64452 0.99876 0.75027 0.0
O1735 O 0.67302 0.02146 0.72624 0.0
H1736 H 0.6646 0.0746 0.76857 0.0
H1737 H 0.61116 0.04048 0.73779 0.0
H1738 H 0.64927 0.1004 0.77623 0.0
H1739 H 0.59675 0.06681 0.74627 0.0
H1740 H 0.73795 0.02428 0.78963 0.0
H1741 H 0.67115 0.01545 0.80198 0.0
H1742 H 0.71581 0.03532 0.7679 0.0
H1743 H 0.69412 0.00487 0.82316 0.0
H1744 H 0.6381 0.06302 0.82109 0.0
H1745 H 0.60793 0.00334 0.81528 0.0
H1746 H 0.69023 0.10435 0.72385 0.0
H1747 H 0.7251 0.0998 0.77469 0.0
H1748 H 0.63215 0.9617 0.75027 0.0
H1749 H 0.61498 0.01352 0.75021 0.0
H1750 H 0.59821 0.94399 0.74976 0.0
H1751 H 0.58137 0.995 0.74955 0.0
H1752 H 0.66096 0.02947 0.69274 0.0
H1753 H 0.71028 0.03723 0.73382 0.0
H1754 H 0.68143 0.04915 0.6726 0.0
H1755 H 0.72994 0.0566 0.71286 0.0
H1756 H 0.60892 0.03965 0.68338 0.0
H1757 H 0.5925 0.97861 0.683 0.0
H1758 H 0.69435 0.96204 0.7819 0.0
H1759 H 0.72748 0.98499 0.73862 0.0
Li1760 Li 0.77992 0.70323 0.03307 0.0
Li1761 Li 0.79309 0.67901 0.01657 0.0
Li1762 Li 0.77905 0.70144 0.99801 0.0
Li1763 Li 0.75787 0.67518 0.0115 0.0
C1764 C 0.81446 0.72248 0.02917 0.0
N1765 N 0.83878 0.75282 0.05308 0.0
C1766 C 0.82794 0.71936 0.04279 0.0
C1767 C 0.81344 0.741 0.02757 0.0
C1768 C 0.84009 0.7349 0.05479 0.0
C1769 C 0.82584 0.75616 0.03983 0.0
C1770 C 0.77295 0.65922 0.04352 0.0
C1771 C 0.7636 0.62495 0.04088 0.0
N1772 N 0.76945 0.62611 0.05972 0.0
C1773 C 0.77861 0.66006 0.06293 0.0
C1774 C 0.76518 0.64151 0.03248 0.0
C1775 C 0.77683 0.64318 0.07082 0.0
C1776 C 0.77104 0.73044 0.06126 0.0
N1777 N 0.78197 0.71822 0.05784 0.0
C1778 C 0.79267 0.72149 0.09116 0.0
C1779 C 0.79302 0.71408 0.07233 0.0
C1780 C 0.7811 0.73366 0.09522 0.0
C1781 C 0.77059 0.73854 0.07992 0.0
H1782 H 0.76212 0.73336 0.04963 0.0
H1783 H 0.80165 0.70441 0.06932 0.0
C1784 C 0.81941 0.65979 0.00239 0.0
N1785 N 0.81276 0.6658 0.01845 0.0
C1786 C 0.83288 0.64924 0.00326 0.0
C1787 C 0.83324 0.65209 0.0373 0.0
C1788 C 0.81963 0.66243 0.03575 0.0
C1789 C 0.83988 0.64512 0.02088 0.0
H1790 H 0.81402 0.66294 0.98882 0.0
H1791 H 0.81448 0.66769 0.04837 0.0
C1792 C 0.74791 0.7133 0.00539 0.0
N1793 N 0.72779 0.73511 0.9876 0.0
C1794 C 0.73006 0.7047 0.99492 0.0
C1795 C 0.75544 0.73299 0.00699 0.0
C1796 C 0.72013 0.71598 0.98599 0.0
C1797 C 0.74507 0.74377 0.99784 0.0
C1798 C 0.7701 0.65762 0.97856 0.0
C1799 C 0.76145 0.65878 0.96057 0.0
C1800 C 0.77363 0.64044 0.98234 0.0
C1801 C 0.7561 0.64267 0.94685 0.0
C1802 C 0.76808 0.62465 0.96826 0.0
N1803 N 0.75948 0.62607 0.95096 0.0
C1804 C 0.79772 0.72557 0.97171 0.0
C1805 C 0.76499 0.71047 0.96227 0.0
C1806 C 0.79925 0.73284 0.9543 0.0
N1807 N 0.7808 0.71438 0.9753 0.0
C1808 C 0.76593 0.71722 0.94467 0.0
C1809 C 0.78329 0.72833 0.94029 0.0
H1810 H 0.8102 0.7284 0.98211 0.0
H1811 H 0.7517 0.70147 0.96521 0.0
C1812 C 0.72488 0.65613 0.02549 0.0
N1813 N 0.73292 0.65769 0.00912 0.0
C1814 C 0.70691 0.64366 0.02553 0.0
C1815 C 0.70553 0.63479 0.99176 0.0
C1816 C 0.72358 0.64745 0.99238 0.0
C1817 C 0.69696 0.6327 0.00851 0.0
H1818 H 0.7325 0.6646 0.03858 0.0
H1819 H 0.73003 0.64908 0.97949 0.0
O1820 O 0.80217 0.70743 0.0176 0.0
O1821 O 0.77461 0.67565 0.03552 0.0
O1822 O 0.75792 0.70248 0.01407 0.0
O1823 O 0.7756 0.67336 0.99213 0.0
H1824 H 0.82889 0.70509 0.0442 0.0
H1825 H 0.80317 0.74363 0.01699 0.0
H1826 H 0.85052 0.73271 0.06548 0.0
H1827 H 0.82517 0.77058 0.0388 0.0
H1828 H 0.75763 0.61117 0.03244 0.0
H1829 H 0.78435 0.67355 0.07186 0.0
H1830 H 0.76011 0.64053 0.01764 0.0
H1831 H 0.78128 0.64365 0.08579 0.0
H1832 H 0.80116 0.71752 0.10249 0.0
H1833 H 0.76143 0.74782 0.08243 0.0
H1834 H 0.83782 0.64445 0.99027 0.0
H1835 H 0.83818 0.64924 0.05118 0.0
H1836 H 0.72402 0.68948 0.99358 0.0
H1837 H 0.76917 0.73986 0.01515 0.0
H1838 H 0.70635 0.70952 0.97775 0.0
H1839 H 0.75077 0.75902 0.99887 0.0
H1840 H 0.75873 0.67189 0.95722 0.0
H1841 H 0.78076 0.63926 0.99593 0.0
H1842 H 0.74927 0.64338 0.93294 0.0
H1843 H 0.7707 0.61128 0.97107 0.0
H1844 H 0.81296 0.74127 0.95156 0.0
H1845 H 0.75318 0.71356 0.93448 0.0
H1846 H 0.70077 0.64284 0.03873 0.0
H1847 H 0.69848 0.62659 0.97833 0.0
Li1848 Li 0.87952 0.52335 0.78575 0.0
Li1849 Li 0.90578 0.54122 0.80792 0.0
Li1850 Li 0.88394 0.55641 0.79296 0.0
Li1851 Li 0.90582 0.54403 0.77473 0.0
C1852 C 0.87365 0.52505 0.82366 0.0
N1853 N 0.86396 0.50013 0.84978 0.0
C1854 C 0.87989 0.50851 0.82299 0.0
C1855 C 0.86244 0.52885 0.83762 0.0
C1856 C 0.87485 0.49612 0.83631 0.0
C1857 C 0.85771 0.5161 0.8507 0.0
C1858 C 0.92336 0.51782 0.78693 0.0
C1859 C 0.95771 0.52885 0.79169 0.0
N1860 N 0.9587 0.51082 0.78629 0.0
C1861 C 0.92472 0.49941 0.78141 0.0
C1862 C 0.93998 0.53269 0.79211 0.0
C1863 C 0.94272 0.49616 0.78119 0.0
C1864 C 0.86586 0.48661 0.76666 0.0
N1865 N 0.86129 0.49967 0.77899 0.0
C1866 C 0.83279 0.47717 0.78369 0.0
C1867 C 0.84485 0.49556 0.78702 0.0
C1868 C 0.83766 0.46311 0.77179 0.0
C1869 C 0.8541 0.4681 0.76274 0.0
H1870 H 0.879 0.49044 0.76042 0.0
H1871 H 0.84147 0.50638 0.79654 0.0
C1872 C 0.92565 0.55817 0.84321 0.0
N1873 N 0.92125 0.54185 0.83081 0.0
C1874 C 0.93725 0.55979 0.86029 0.0
C1875 C 0.93964 0.5278 0.85137 0.0
C1876 C 0.92773 0.52668 0.83464 0.0
C1877 C 0.94449 0.54452 0.86438 0.0
H1878 H 0.92013 0.56991 0.83978 0.0
H1879 H 0.92369 0.5137 0.82474 0.0
C1880 C 0.86085 0.53403 0.75742 0.0
N1881 N 0.825 0.51776 0.73761 0.0
C1882 C 0.85889 0.52496 0.73882 0.0
C1883 C 0.84457 0.53486 0.76593 0.0
C1884 C 0.84064 0.51681 0.72905 0.0
C1885 C 0.82658 0.52654 0.75569 0.0
C1886 C 0.91829 0.5827 0.79094 0.0
C1887 C 0.91213 0.58573 0.7727 0.0
C1888 C 0.93044 0.59776 0.80352 0.0
C1889 C 0.91824 0.60384 0.76733 0.0
C1890 C 0.93623 0.61566 0.79762 0.0
N1891 N 0.93006 0.6183 0.7798 0.0
C1892 C 0.86443 0.57865 0.813 0.0
C1893 C 0.86699 0.5841 0.78106 0.0
C1894 C 0.85279 0.59094 0.81504 0.0
N1895 N 0.87102 0.57536 0.79615 0.0
C1896 C 0.85577 0.59678 0.78259 0.0
C1897 C 0.84832 0.60004 0.79965 0.0
H1898 H 0.86779 0.57132 0.82466 0.0
H1899 H 0.87194 0.58074 0.76767 0.0
C1900 C 0.91521 0.53012 0.74111 0.0
N1901 N 0.92121 0.54527 0.75497 0.0
C1902 C 0.92672 0.52738 0.72722 0.0
C1903 C 0.95038 0.55603 0.74205 0.0
C1904 C 0.9384 0.55818 0.75574 0.0
C1905 C 0.94465 0.54031 0.72769 0.0
H1906 H 0.90189 0.51964 0.74146 0.0
H1907 H 0.9432 0.56964 0.7674 0.0
O1908 O 0.87825 0.53745 0.81074 0.0
O1909 O 0.90578 0.52117 0.78688 0.0
O1910 O 0.87858 0.54174 0.76738 0.0
O1911 O 0.9125 0.56514 0.79664 0.0
H1912 H 0.88841 0.50514 0.81225 0.0
H1913 H 0.85739 0.54151 0.83833 0.0
H1914 H 0.87957 0.48327 0.83592 0.0
H1915 H 0.84904 0.51889 0.86157 0.0
H1916 H 0.97068 0.54022 0.79564 0.0
H1917 H 0.91199 0.48776 0.77731 0.0
H1918 H 0.93925 0.54704 0.79639 0.0
H1919 H 0.94398 0.48197 0.77695 0.0
H1920 H 0.82013 0.4738 0.79078 0.0
H1921 H 0.85837 0.45757 0.7536 0.0
H1922 H 0.94072 0.57288 0.87009 0.0
H1923 H 0.94476 0.51565 0.85428 0.0
H1924 H 0.87131 0.52423 0.73198 0.0
H1925 H 0.8458 0.54157 0.78042 0.0
H1926 H 0.83892 0.50972 0.71465 0.0
H1927 H 0.81387 0.52699 0.76214 0.0
H1928 H 0.90281 0.57425 0.76273 0.0
H1929 H 0.93534 0.59564 0.8177 0.0
H1930 H 0.91359 0.60638 0.75325 0.0
H1931 H 0.94564 0.62745 0.80721 0.0
H1932 H 0.84721 0.59319 0.82837 0.0
H1933 H 0.85231 0.6034 0.77037 0.0
H1934 H 0.92195 0.5148 0.71672 0.0
H1935 H 0.9641 0.56633 0.7429 0.0
Li1936 Li 0.76481 0.39994 0.51979 0.0
Li1937 Li 0.75583 0.42465 0.5032 0.0
Li1938 Li 0.75993 0.39638 0.48697 0.0
Li1939 Li 0.78838 0.41976 0.50362 0.0
C1940 C 0.72386 0.38806 0.4938 0.0
N1941 N 0.69014 0.36707 0.47236 0.0
C1942 C 0.71151 0.39726 0.48508 0.0
C1943 C 0.71897 0.36819 0.49177 0.0
C1944 C 0.69455 0.38639 0.47427 0.0
C1945 C 0.70189 0.35783 0.48081 0.0
C1946 C 0.78313 0.44632 0.53276 0.0
C1947 C 0.79667 0.47902 0.5287 0.0
N1948 N 0.79765 0.48418 0.54771 0.0
C1949 C 0.78428 0.45194 0.55225 0.0
C1950 C 0.78938 0.45995 0.52086 0.0
C1951 C 0.79166 0.47115 0.55954 0.0
C1952 C 0.77979 0.39349 0.55434 0.0
N1953 N 0.76371 0.38786 0.54167 0.0
C1954 C 0.75162 0.36077 0.55695 0.0
C1955 C 0.74938 0.3723 0.54306 0.0
C1956 C 0.76877 0.36544 0.5693 0.0
C1957 C 0.78265 0.3824 0.56836 0.0
H1958 H 0.79096 0.40587 0.55267 0.0
H1959 H 0.73686 0.36813 0.53262 0.0
C1960 C 0.74794 0.45838 0.49406 0.0
N1961 N 0.74347 0.44412 0.50487 0.0
C1962 C 0.73977 0.47358 0.49617 0.0
C1963 C 0.72269 0.45906 0.52056 0.0
C1964 C 0.73119 0.44416 0.51797 0.0
C1965 C 0.72702 0.47406 0.50963 0.0
H1966 H 0.75815 0.45815 0.48409 0.0
H1967 H 0.72814 0.43266 0.52647 0.0
C1968 C 0.78735 0.37826 0.51097 0.0
N1969 N 0.79819 0.35088 0.5297 0.0
C1970 C 0.80582 0.38199 0.52045 0.0
C1971 C 0.77453 0.36045 0.51072 0.0
C1972 C 0.81099 0.36801 0.52991 0.0
C1973 C 0.78024 0.34684 0.52035 0.0
C1974 C 0.77033 0.42046 0.46275 0.0
C1975 C 0.78298 0.41156 0.45453 0.0
C1976 C 0.75669 0.42582 0.45111 0.0
C1977 C 0.7817 0.40806 0.43477 0.0
C1978 C 0.75591 0.42213 0.4314 0.0
N1979 N 0.76831 0.41338 0.42371 0.0
C1980 C 0.73727 0.37942 0.45131 0.0
C1981 C 0.76112 0.36484 0.46176 0.0
C1982 C 0.73288 0.36724 0.43416 0.0
N1983 N 0.75137 0.37818 0.46458 0.0
C1984 C 0.75705 0.35225 0.44496 0.0
C1985 C 0.74305 0.35363 0.43078 0.0
H1986 H 0.72997 0.39036 0.45367 0.0
H1987 H 0.77266 0.36449 0.47216 0.0
C1988 C 0.8248 0.43481 0.52291 0.0
N1989 N 0.81443 0.4327 0.50562 0.0
C1990 C 0.84401 0.44479 0.52576 0.0
C1991 C 0.84139 0.4506 0.49303 0.0
C1992 C 0.82221 0.44049 0.49082 0.0
C1993 C 0.85254 0.45279 0.51069 0.0
H1994 H 0.81803 0.42885 0.53454 0.0
H1995 H 0.8135 0.43905 0.47739 0.0
O1996 O 0.74048 0.39847 0.50453 0.0
O1997 O 0.77588 0.42755 0.52546 0.0
O1998 O 0.78186 0.39195 0.50198 0.0
O1999 O 0.77107 0.42357 0.48207 0.0
H2000 H 0.71505 0.41261 0.48648 0.0
H2001 H 0.72832 0.36082 0.49841 0.0
H2002 H 0.68491 0.39332 0.46736 0.0
H2003 H 0.69799 0.34245 0.47901 0.0
H2004 H 0.80154 0.48972 0.51966 0.0
H2005 H 0.7795 0.44154 0.56163 0.0
H2006 H 0.78862 0.45588 0.50574 0.0
H2007 H 0.79263 0.47571 0.57461 0.0
H2008 H 0.74063 0.34777 0.55723 0.0
H2009 H 0.79591 0.3866 0.57785 0.0
H2010 H 0.74365 0.48497 0.48764 0.0
H2011 H 0.71273 0.45876 0.5309 0.0
H2012 H 0.81605 0.39553 0.52054 0.0
H2013 H 0.76021 0.35726 0.5034 0.0
H2014 H 0.82518 0.37077 0.53742 0.0
H2015 H 0.77037 0.33309 0.52046 0.0
H2016 H 0.79343 0.40705 0.46334 0.0
H2017 H 0.74662 0.43249 0.45722 0.0
H2018 H 0.79128 0.40103 0.42822 0.0
H2019 H 0.74537 0.42611 0.42222 0.0
H2020 H 0.72206 0.36878 0.42346 0.0
H2021 H 0.76551 0.34225 0.44268 0.0
H2022 H 0.85201 0.44646 0.53969 0.0
H2023 H 0.84746 0.45649 0.48103 0.0
Li2024 Li 0.61158 0.53409 0.29707 0.0
Li2025 Li 0.63705 0.55565 0.28414 0.0
Li2026 Li 0.61143 0.53475 0.26234 0.0
Li2027 Li 0.6353 0.52121 0.27946 0.0
C2028 C 0.59203 0.5584 0.27992 0.0
N2029 N 0.55617 0.56445 0.27526 0.0
C2030 C 0.58971 0.57537 0.27418 0.0
C2031 C 0.5761 0.54451 0.28328 0.0
C2032 C 0.57147 0.57815 0.27187 0.0
C2033 C 0.5581 0.54784 0.28089 0.0
C2034 C 0.64509 0.54795 0.32187 0.0
C2035 C 0.65964 0.54935 0.35392 0.0
N2036 N 0.65453 0.5656 0.35896 0.0
C2037 C 0.64 0.56467 0.32736 0.0
C2038 C 0.65498 0.54021 0.33523 0.0
C2039 C 0.6449 0.57337 0.34618 0.0
C2040 C 0.59802 0.51528 0.32838 0.0
N2041 N 0.59896 0.5313 0.3201 0.0
C2042 C 0.58674 0.54508 0.34662 0.0
C2043 C 0.5934 0.54604 0.32886 0.0
C2044 C 0.58595 0.52887 0.35578 0.0
C2045 C 0.59152 0.51374 0.34619 0.0
H2046 H 0.60294 0.5039 0.32144 0.0
H2047 H 0.59464 0.55886 0.32233 0.0
C2048 C 0.64937 0.59318 0.27639 0.0
N2049 N 0.65443 0.58069 0.28723 0.0
C2050 C 0.66181 0.61109 0.27629 0.0
C2051 C 0.68425 0.60336 0.29911 0.0
C2052 C 0.67147 0.58541 0.29852 0.0
C2053 C 0.67956 0.61635 0.28767 0.0
H2054 H 0.63586 0.58895 0.26734 0.0
H2055 H 0.67534 0.57512 0.30676 0.0
C2056 C 0.59455 0.49869 0.26291 0.0
N2057 N 0.57003 0.4734 0.2343 0.0
C2058 C 0.60163 0.49145 0.24706 0.0
C2059 C 0.57503 0.49297 0.2643 0.0
C2060 C 0.58899 0.47871 0.23272 0.0
C2061 C 0.56286 0.48018 0.24966 0.0
C2062 C 0.65557 0.54972 0.25562 0.0
C2063 C 0.65508 0.56226 0.24228 0.0
C2064 C 0.67312 0.54868 0.2644 0.0
C2065 C 0.67221 0.57357 0.23794 0.0
C2066 C 0.68993 0.56021 0.25964 0.0
N2067 N 0.68913 0.57232 0.24664 0.0
C2068 C 0.57923 0.53379 0.23322 0.0
C2069 C 0.60802 0.53094 0.2223 0.0
C2070 C 0.5712 0.53395 0.21457 0.0
N2071 N 0.59753 0.53268 0.23685 0.0
C2072 C 0.60066 0.53123 0.20355 0.0
C2073 C 0.58209 0.53306 0.19942 0.0
H2074 H 0.57085 0.53483 0.24474 0.0
H2075 H 0.62233 0.52953 0.22524 0.0
C2076 C 0.65195 0.49301 0.29295 0.0
N2077 N 0.64931 0.50225 0.27783 0.0
C2078 C 0.66234 0.47938 0.29197 0.0
C2079 C 0.66708 0.485 0.25986 0.0
C2080 C 0.65654 0.49844 0.26143 0.0
C2081 C 0.67018 0.47526 0.27527 0.0
H2082 H 0.64604 0.49628 0.30583 0.0
H2083 H 0.65416 0.50589 0.24955 0.0
O2084 O 0.60983 0.55555 0.28232 0.0
O2085 O 0.64008 0.53895 0.30362 0.0
O2086 O 0.60667 0.51165 0.27677 0.0
O2087 O 0.63896 0.53902 0.2606 0.0
H2088 H 0.60188 0.5863 0.27153 0.0
H2089 H 0.5776 0.53127 0.28759 0.0
H2090 H 0.56947 0.59121 0.26741 0.0
H2091 H 0.54567 0.53719 0.28344 0.0
H2092 H 0.66727 0.54352 0.36442 0.0
H2093 H 0.63221 0.57077 0.31723 0.0
H2094 H 0.65896 0.52724 0.3312 0.0
H2095 H 0.641 0.58628 0.35064 0.0
H2096 H 0.58242 0.55705 0.35315 0.0
H2097 H 0.59154 0.50107 0.35265 0.0
H2098 H 0.65761 0.62073 0.26736 0.0
H2099 H 0.69787 0.60683 0.30795 0.0
H2100 H 0.61668 0.49586 0.24571 0.0
H2101 H 0.56933 0.49828 0.27655 0.0
H2102 H 0.59425 0.47311 0.22029 0.0
H2103 H 0.54771 0.47566 0.25052 0.0
H2104 H 0.64162 0.56351 0.23561 0.0
H2105 H 0.67376 0.53933 0.27501 0.0
H2106 H 0.67205 0.58342 0.22774 0.0
H2107 H 0.70362 0.55963 0.26639 0.0
H2108 H 0.55679 0.53531 0.21212 0.0
H2109 H 0.60948 0.53001 0.19236 0.0
H2110 H 0.6645 0.4724 0.30428 0.0
H2111 H 0.67256 0.48214 0.2466 0.0
Dy2112 Dy 0.05214 0.04451 0.03232 0.0
Dy2113 Dy 0.00999 0.02111 0.01226 0.0
C2114 C 0.04517 0.02705 0.98813 0.0
O2115 O 0.03684 0.06738 0.02859 0.0
O2116 O 0.01329 0.05093 0.00489 0.0
O2117 O 0.07771 0.06728 0.03293 0.0
O2118 O 0.07493 0.04966 0.0554 0.0
O2119 O 0.00478 0.03455 0.0405 0.0
O2120 O 0.0347 0.03955 0.05629 0.0
O2121 O 0.02091 0.99976 0.02725 0.0
O2122 O 0.05301 0.01356 0.02985 0.0
O2123 O 0.98203 0.0026 0.01349 0.0
O2124 O 0.99002 0.01131 0.98675 0.0
C2125 C 0.02358 0.0672 0.01462 0.0
O2126 O 0.05458 0.0412 0.00114 0.0
O2127 O 0.02968 0.01488 0.9916 0.0
C2128 C 0.10492 0.0592 0.0454 0.0
C2129 C 0.13927 0.04913 0.04288 0.0
C2130 C 0.12372 0.0417 0.02858 0.0
C2131 C 0.10668 0.04666 0.02986 0.0
C2132 C 0.12052 0.06714 0.05942 0.0
C2133 C 0.13763 0.06214 0.05818 0.0
C2134 C 0.08636 0.06258 0.04771 0.0
C2135 C 0.01641 0.03785 0.05646 0.0
C2136 C 0.03859 0.99873 0.03086 0.0
C2137 C 0.95812 0.00828 0.99238 0.0
C2138 C 0.92447 0.02018 0.99016 0.0
C2139 C 0.92497 0.00328 0.99749 0.0
C2140 C 0.94167 0.99733 0.9985 0.0
C2141 C 0.95742 0.02481 0.9844 0.0
C2142 C 0.94068 0.03063 0.9832 0.0
C2143 C 0.97618 0.00313 0.9958 0.0
H2144 H 0.12437 0.03135 0.01682 0.0
H2145 H 0.09466 0.0402 0.01903 0.0
H2146 H 0.11929 0.07677 0.07156 0.0
H2147 H 0.14941 0.06813 0.06934 0.0
H2148 H 0.9126 0.99496 0.00288 0.0
H2149 H 0.94194 0.98454 0.00469 0.0
H2150 H 0.96995 0.03362 0.97969 0.0
H2151 H 0.94074 0.04385 0.97773 0.0
Dy2152 Dy 0.29596 0.78935 0.2565 0.0
Dy2153 Dy 0.26902 0.78657 0.29055 0.0
C2154 C 0.29448 0.82533 0.28303 0.0
O2155 O 0.31338 0.78107 0.28004 0.0
O2156 O 0.29802 0.78785 0.30556 0.0
O2157 O 0.31185 0.80573 0.23722 0.0
O2158 O 0.31129 0.77604 0.23722 0.0
O2159 O 0.27265 0.75767 0.28275 0.0
O2160 O 0.27561 0.76055 0.25167 0.0
O2161 O 0.24871 0.78316 0.26411 0.0
O2162 O 0.26955 0.79679 0.24427 0.0
O2163 O 0.24436 0.77242 0.30297 0.0
O2164 O 0.26226 0.79998 0.31632 0.0
C2165 C 0.31258 0.78336 0.29847 0.0
O2166 O 0.3063 0.81608 0.27686 0.0
O2167 O 0.27679 0.81625 0.28392 0.0
C2168 C 0.31058 0.78755 0.20792 0.0
C2169 C 0.30087 0.7842 0.16843 0.0
C2170 C 0.28728 0.78559 0.18083 0.0
C2171 C 0.29206 0.78712 0.20037 0.0
C2172 C 0.32397 0.78528 0.19572 0.0
C2173 C 0.31913 0.78352 0.17607 0.0
C2174 C 0.31593 0.79097 0.22851 0.0
C2175 C 0.27193 0.74996 0.26519 0.0
C2176 C 0.25202 0.79073 0.24847 0.0
C2177 C 0.2493 0.77811 0.33616 0.0
C2178 C 0.25146 0.76402 0.37101 0.0
C2179 C 0.26715 0.76705 0.36071 0.0
C2180 C 0.26605 0.77397 0.34337 0.0
C2181 C 0.23357 0.77513 0.34632 0.0
C2182 C 0.23461 0.76803 0.36367 0.0
C2183 C 0.24828 0.78531 0.31792 0.0
H2184 H 0.27319 0.7865 0.17559 0.0
H2185 H 0.28149 0.78866 0.20963 0.0
H2186 H 0.33827 0.78534 0.2014 0.0
H2187 H 0.32984 0.78216 0.16692 0.0
H2188 H 0.28017 0.76372 0.36587 0.0
H2189 H 0.27823 0.77601 0.33555 0.0
H2190 H 0.22053 0.77822 0.34083 0.0
H2191 H 0.22233 0.7658 0.37139 0.0
Dy2192 Dy 0.5057 0.02941 0.52629 0.0
Dy2193 Dy 0.55114 0.03672 0.51963 0.0
C2194 C 0.52096 0.04521 0.48938 0.0
O2195 O 0.50798 1.00158 0.51064 0.0
O2196 O 0.53989 0.00514 0.51899 0.0
O2197 O 0.47592 0.02065 0.51449 0.0
O2198 O 0.48404 0.03067 0.54458 0.0
O2199 O 0.54924 0.03682 0.55061 0.0
O2200 O 0.51911 0.0173 0.54945 0.0
O2201 O 0.54716 0.06636 0.52435 0.0
O2202 O 0.52057 0.05953 0.53997 0.0
O2203 O 0.5813 0.04726 0.52983 0.0
O2204 O 0.57203 0.0322 0.50145 0.0
C2205 C 0.52274 0.99428 0.51229 0.0
O2206 O 0.51013 0.0467 0.5027 0.0
O2207 O 0.53509 0.03735 0.49157 0.0
C2208 C 0.45718 0.0383 0.52954 0.0
C2209 C 0.43173 0.06163 0.5275 0.0
C2210 C 0.42489 0.04164 0.5242 0.0
C2211 C 0.43748 0.03013 0.52524 0.0
C2212 C 0.46416 0.05821 0.53266 0.0
C2213 C 0.45157 0.06975 0.53171 0.0
C2214 C 0.47022 0.02591 0.5305 0.0
C2215 C 0.53623 0.02528 0.55839 0.0
C2216 C 0.53508 0.07197 0.53478 0.0
C2217 C 0.59981 0.02767 0.51752 0.0
C2218 C 0.62511 0.00439 0.52128 0.0
C2219 C 0.60737 0.99979 0.52837 0.0
C2220 C 0.59485 0.01131 0.52648 0.0
C2221 C 0.61745 0.03239 0.51054 0.0
C2222 C 0.62996 0.02089 0.51238 0.0
C2223 C 0.58643 0.03945 0.51463 0.0
H2224 H 0.4098 0.03482 0.52057 0.0
H2225 H 0.43181 0.01481 0.52262 0.0
H2226 H 0.47934 0.06484 0.53591 0.0
H2227 H 0.4574 0.08503 0.53455 0.0
H2228 H 0.6032 0.98736 0.53549 0.0
H2229 H 0.58123 0.00738 0.53191 0.0
H2230 H 0.62146 0.04486 0.50341 0.0
H2231 H 0.6433 0.02476 0.50646 0.0
Dy2232 Dy 0.2985 0.27681 0.77441 0.0
Dy2233 Dy 0.25672 0.28766 0.77018 0.0
C2234 C 0.2956 0.31843 0.76607 0.0
O2235 O 0.2912 0.28043 0.80443 0.0
O2236 O 0.2705 0.29897 0.79989 0.0
O2237 O 0.32835 0.28268 0.78552 0.0
O2238 O 0.3149 0.25739 0.76556 0.0
O2239 O 0.2526 0.26147 0.7842 0.0
O2240 O 0.27536 0.24952 0.77154 0.0
O2241 O 0.25945 0.27295 0.74154 0.0
O2242 O 0.29206 0.28019 0.74393 0.0
O2243 O 0.2263 0.27833 0.76123 0.0
O2244 O 0.23919 0.30702 0.77518 0.0
C2245 C 0.28138 0.29192 0.81121 0.0
O2246 O 0.3053 0.30821 0.77464 0.0
O2247 O 0.27714 0.31212 0.76042 0.0
C2248 C 0.34748 0.27185 0.7637 0.0
C2249 C 0.379 0.27755 0.74241 0.0
C2250 C 0.37069 0.29248 0.74741 0.0
C2251 C 0.35509 0.28965 0.75788 0.0
C2252 C 0.35566 0.25697 0.7587 0.0
C2253 C 0.37115 0.25974 0.74818 0.0
C2254 C 0.33091 0.26829 0.77464 0.0
C2255 C 0.25944 0.24706 0.77925 0.0
C2256 C 0.27527 0.27449 0.73364 0.0
C2257 C 0.20787 0.29216 0.78112 0.0
C2258 C 0.17776 0.28819 0.80405 0.0
C2259 C 0.19435 0.28265 0.80965 0.0
C2260 C 0.20924 0.2846 0.7983 0.0
C2261 C 0.19148 0.29779 0.77554 0.0
C2262 C 0.17661 0.29584 0.78684 0.0
C2263 C 0.22329 0.29411 0.76883 0.0
H2264 H 0.37637 0.30645 0.74346 0.0
H2265 H 0.34901 0.30138 0.76143 0.0
H2266 H 0.34996 0.24307 0.76286 0.0
H2267 H 0.37678 0.24776 0.74434 0.0
H2268 H 0.19573 0.27651 0.82265 0.0
H2269 H 0.22177 0.28012 0.80287 0.0
H2270 H 0.19016 0.30372 0.76238 0.0
H2271 H 0.16427 0.30057 0.78216 0.0
Dy2272 Dy 0.03284 0.01139 0.51833 0.0
Dy2273 Dy 0.02295 0.0537 0.52394 0.0
C2274 C 0.99186 0.01538 0.52861 0.0
O2275 O 0.02891 0.01888 0.48855 0.0
O2276 O 0.01106 0.04014 0.49421 0.0
O2277 O 0.02582 0.98142 0.50708 0.0
O2278 O 0.05187 0.99439 0.52596 0.0
O2279 O 0.04916 0.05766 0.50964 0.0
O2280 O 0.0606 0.03378 0.5201 0.0
O2281 O 0.03786 0.0507 0.55218 0.0
O2282 O 0.03069 0.01813 0.54921 0.0
O2283 O 0.03271 0.0841 0.53291 0.0
O2284 O 1.0036 0.07133 0.52012 0.0
C2285 C 0.01766 0.02908 0.48239 0.0
O2286 O 1.00147 0.00539 0.51918 0.0
O2287 O 0.99876 0.0337 0.53452 0.0
C2288 C 0.03674 0.96224 0.5281 0.0
C2289 C 0.03144 0.93148 0.54989 0.0
C2290 C 0.02339 0.94674 0.55421 0.0
C2291 C 0.02601 0.96194 0.54344 0.0
C2292 C 0.04469 0.94708 0.52367 0.0
C2293 C 0.04209 0.93189 0.5344 0.0
C2294 C 0.04044 0.97854 0.51709 0.0
C2295 C 0.0633 0.05016 0.51345 0.0
C2296 C 0.03653 0.03485 0.55972 0.0
C2297 C 0.01827 0.10246 0.51392 0.0
C2298 C 0.02103 0.13217 0.49102 0.0
C2299 C 0.02407 0.11462 0.48394 0.0
C2300 C 0.0227 0.09993 0.49526 0.0
C2301 C 0.01531 0.11989 0.52107 0.0
C2302 C 0.01666 0.13456 0.50979 0.0
C2303 C 0.01674 0.08716 0.5261 0.0
H2304 H 0.01492 0.9469 0.56584 0.0
H2305 H 0.01977 0.97353 0.54716 0.0
H2306 H 0.05315 0.94707 0.512 0.0
H2307 H 0.0488 0.92067 0.53075 0.0
H2308 H 0.02724 0.11211 0.46953 0.0
H2309 H 0.02503 0.08657 0.48944 0.0
H2310 H 0.01197 0.12218 0.53545 0.0
H2311 H 0.01453 0.1479 0.51591 0.0
Dy2312 Dy 0.28172 0.80549 0.76875 0.0
Dy2313 Dy 0.2734 0.7605 0.77713 0.0
C2314 C 0.26552 0.79258 0.80661 0.0
O2315 O 0.30921 0.80356 0.78517 0.0
O2316 O 0.30518 0.77139 0.77841 0.0
O2317 O 0.29137 0.83554 0.7791 0.0
O2318 O 0.28016 0.82604 0.74947 0.0
O2319 O 0.2755 0.761 0.74633 0.0
O2320 O 0.29485 0.79101 0.74678 0.0
O2321 O 0.24396 0.76478 0.77155 0.0
O2322 O 0.25152 0.7907 0.7554 0.0
O2323 O 0.26198 0.73024 0.76792 0.0
O2324 O 0.27796 0.74034 0.79577 0.0
C2325 C 0.31622 0.78861 0.78444 0.0
O2326 O 0.26498 0.80317 0.79307 0.0
O2327 O 0.27189 0.77741 0.80459 0.0
C2328 C 0.27331 0.85361 0.76407 0.0
C2329 C 0.25005 0.87912 0.76614 0.0
C2330 C 0.2452 0.862 0.77403 0.0
C2331 C 0.25667 0.84935 0.77295 0.0
C2332 C 0.27819 0.8706 0.75615 0.0
C2333 C 0.26669 0.88322 0.75714 0.0
C2334 C 0.28561 0.84047 0.763 0.0
C2335 C 0.28805 0.77329 0.73881 0.0
C2336 C 0.23876 0.77665 0.76083 0.0
C2337 C 0.28175 0.71199 0.77988 0.0
C2338 C 0.30475 0.68639 0.77582 0.0
C2339 C 0.31009 0.70437 0.76961 0.0
C2340 C 0.29869 0.71703 0.77161 0.0
C2341 C 0.27627 0.69407 0.78594 0.0
C2342 C 0.28762 0.68139 0.78392 0.0
C2343 C 0.27019 0.72559 0.78303 0.0
H2344 H 0.23238 0.85825 0.78083 0.0
H2345 H 0.25257 0.83624 0.77904 0.0
H2346 H 0.29097 0.87415 0.74925 0.0
H2347 H 0.271 0.89634 0.75111 0.0
H2348 H 0.32303 0.70864 0.7631 0.0
H2349 H 0.30318 0.73082 0.76685 0.0
H2350 H 0.26332 0.68998 0.79249 0.0
H2351 H 0.28316 0.66782 0.78911 0.0
Dy2352 Dy 0.52195 0.04225 0.00444 0.0
Dy2353 Dy 0.52826 0.02028 0.04088 0.0
C2354 C 0.53235 1.00162 0.99933 0.0
O2355 O 0.49337 0.03225 0.01397 0.0
O2356 O 0.49885 0.00659 0.02646 0.0
O2357 O 0.50679 0.04265 0.97708 0.0
O2358 O 0.5281 0.06779 0.99125 0.0
O2359 O 0.51539 0.04371 0.05135 0.0
O2360 O 0.52649 0.06385 0.03031 0.0
O2361 O 0.55607 0.04108 0.03958 0.0
O2362 O 0.55297 0.04409 0.00794 0.0
O2363 O 0.54106 0.02113 0.06956 0.0
O2364 O 0.52247 0.99485 0.05444 0.0
C2365 C 0.48706 0.01551 0.01929 0.0
O2366 O 0.52329 0.01311 0.99195 0.0
O2367 O 0.53851 0.00401 0.01759 0.0
C2368 C 0.5265 0.06125 0.95789 0.0
C2369 C 0.54607 0.06067 0.92585 0.0
C2370 C 0.5274 0.04908 0.92508 0.0
C2371 C 0.51768 0.0494 0.94096 0.0
C2372 C 0.54469 0.07375 0.95821 0.0
C2373 C 0.55439 0.07341 0.94235 0.0
C2374 C 0.51737 0.05952 0.97542 0.0
C2375 C 0.51975 0.06092 0.04644 0.0
C2376 C 0.56352 0.04617 0.02433 0.0
C2377 C 0.51924 0.00274 0.08627 0.0
C2378 C 0.4981 0.00444 0.11686 0.0
C2379 C 0.49274 0.01077 0.09987 0.0
C2380 C 0.50319 0.00989 0.08468 0.0
C2381 C 0.52437 0.99584 0.10296 0.0
C2382 C 0.51374 0.99657 0.1182 0.0
C2383 C 0.5311 0.00395 0.07086 0.0
H2384 H 0.52067 0.03909 0.91254 0.0
H2385 H 0.50357 0.0398 0.94024 0.0
H2386 H 0.55177 0.08332 0.97092 0.0
H2387 H 0.56863 0.08276 0.94317 0.0
H2388 H 0.48059 0.01667 0.09843 0.0
H2389 H 0.49903 0.01523 0.07183 0.0
H2390 H 0.53678 0.99036 0.10436 0.0
H2391 H 0.51815 0.99168 0.13123 0.0
Dy2392 Dy 0.2633 0.26103 0.26196 0.0
Dy2393 Dy 0.28644 0.30355 0.28179 0.0
C2394 C 0.28082 0.26902 0.30624 0.0
O2395 O 0.24045 0.2765 0.26504 0.0
O2396 O 0.25644 0.29965 0.28924 0.0
O2397 O 0.23906 0.23672 0.26075 0.0
O2398 O 0.25935 0.23665 0.24063 0.0
O2399 O 0.27339 0.30785 0.25326 0.0
O2400 O 0.26842 0.27772 0.2377 0.0
O2401 O 0.30831 0.29243 0.26754 0.0
O2402 O 0.29433 0.26035 0.26401 0.0
O2403 O 0.30749 0.33005 0.28132 0.0
O2404 O 0.29239 0.32576 0.30575 0.0
C2405 C 0.24032 0.28949 0.27924 0.0
O2406 O 0.26689 0.25925 0.29319 0.0
O2407 O 0.29269 0.28478 0.30299 0.0
C2408 C 0.24693 0.20819 0.25235 0.0
C2409 C 0.25581 0.17439 0.25964 0.0
C2410 C 0.26056 0.19032 0.27376 0.0
C2411 C 0.25623 0.20709 0.27011 0.0
C2412 C 0.24128 0.19211 0.23853 0.0
C2413 C 0.24568 0.17528 0.24215 0.0
C2414 C 0.24494 0.22657 0.2477 0.0
C2415 C 0.27024 0.29594 0.2374 0.0
C2416 C 0.30929 0.27481 0.2635 0.0
C2417 C 0.29857 0.35587 0.29605 0.0
C2418 C 0.28754 0.38963 0.2943 0.0
C2419 C 0.27873 0.37339 0.28111 0.0
C2420 C 0.28416 0.35665 0.28202 0.0
C2421 C 0.30749 0.37198 0.30925 0.0
C2422 C 0.30195 0.3888 0.30842 0.0
C2423 C 0.30365 0.33797 0.29715 0.0
H2424 H 0.26868 0.19024 0.28724 0.0
H2425 H 0.26089 0.21946 0.28088 0.0
H2426 H 0.23415 0.19281 0.22472 0.0
H2427 H 0.24177 0.16318 0.23107 0.0
H2428 H 0.2673 0.37349 0.27033 0.0
H2429 H 0.27695 0.34423 0.27188 0.0
H2430 H 0.31856 0.3715 0.32024 0.0
H2431 H 0.30895 0.40114 0.31874 0.0
Dy2432 Dy 0.53426 0.51104 0.01933 0.0
Dy2433 Dy 0.52341 0.55281 0.02422 0.0
C2434 C 0.49268 0.51417 0.02852 0.0
O2435 O 0.53065 0.51841 0.98948 0.0
O2436 O 0.51156 0.53851 0.99472 0.0
O2437 O 0.52796 0.48113 0.0082 0.0
O2438 O 0.55368 0.49453 0.02743 0.0
O2439 O 0.54979 0.55685 0.01005 0.0
O2440 O 0.56166 0.53401 0.02211 0.0
O2441 O 0.53787 0.55011 0.05279 0.0
O2442 O 0.53121 0.51759 0.04998 0.0
O2443 O 0.53276 0.58319 0.03335 0.0
O2444 O 0.50409 0.57031 0.01943 0.0
C2445 C 0.51869 0.52779 0.98309 0.0
O2446 O 0.50281 0.50451 0.01947 0.0
O2447 O 0.49907 0.53256 0.0344 0.0
C2448 C 0.53892 0.46228 0.02964 0.0
C2449 C 0.53346 0.43172 0.05168 0.0
C2450 C 0.52075 0.4433 0.05114 0.0
C2451 C 0.52351 0.45847 0.04032 0.0
C2452 C 0.55152 0.45072 0.03004 0.0
C2453 C 0.54885 0.43565 0.04091 0.0
C2454 C 0.54253 0.47854 0.01856 0.0
C2455 C 0.5642 0.54998 0.01475 0.0
C2456 C 0.53666 0.53433 0.06044 0.0
C2457 C 0.51903 0.60163 0.01385 0.0
C2458 C 0.52312 0.6318 0.99142 0.0
C2459 C 0.52673 0.61445 0.98457 0.0
C2460 C 0.52473 0.59955 0.99568 0.0
C2461 C 0.51536 0.61881 0.02071 0.0
C2462 C 0.51738 0.63371 0.00966 0.0
C2463 C 0.51699 0.58618 0.02589 0.0
H2464 H 0.50887 0.44089 0.05938 0.0
H2465 H 0.51369 0.46732 0.04041 0.0
H2466 H 0.56353 0.4534 0.02197 0.0
H2467 H 0.55879 0.42695 0.04073 0.0
H2468 H 0.53138 0.61248 0.97072 0.0
H2469 H 0.52772 0.58642 0.99012 0.0
H2470 H 0.5109 0.62072 0.03467 0.0
H2471 H 0.51418 0.64667 0.01535 0.0
Dy2472 Dy 0.77828 0.30418 0.26706 0.0
Dy2473 Dy 0.7701 0.25985 0.27706 0.0
C2474 C 0.76326 0.2929 0.30584 0.0
O2475 O 0.80589 0.30257 0.2833 0.0
O2476 O 0.80178 0.27039 0.27692 0.0
O2477 O 0.78874 0.3344 0.27624 0.0
O2478 O 0.77616 0.32397 0.2471 0.0
O2479 O 0.76883 0.25961 0.24586 0.0
O2480 O 0.79006 0.28816 0.24493 0.0
O2481 O 0.74052 0.26402 0.27219 0.0
O2482 O 0.74761 0.28953 0.25535 0.0
O2483 O 0.75938 0.22947 0.2683 0.0
O2484 O 0.77452 0.24017 0.29637 0.0
C2485 C 0.81289 0.28763 0.28272 0.0
O2486 O 0.76206 0.30283 0.29184 0.0
O2487 O 0.76995 0.27792 0.30423 0.0
C2488 C 0.77044 0.35229 0.26136 0.0
C2489 C 0.74817 0.37869 0.26442 0.0
C2490 C 0.74247 0.36103 0.27123 0.0
C2491 C 0.75348 0.34797 0.26969 0.0
C2492 C 0.77612 0.36973 0.25441 0.0
C2493 C 0.76512 0.38279 0.25589 0.0
C2494 C 0.78238 0.33882 0.2601 0.0
C2495 C 0.78149 0.27063 0.23735 0.0
C2496 C 0.73507 0.2757 0.26136 0.0
C2497 C 0.77944 0.21199 0.28119 0.0
C2498 C 0.80321 0.18705 0.27776 0.0
C2499 C 0.80774 0.20457 0.27054 0.0
C2500 C 0.79599 0.21691 0.27226 0.0
C2501 C 0.77476 0.19453 0.28826 0.0
C2502 C 0.78649 0.18217 0.28656 0.0
C2503 C 0.76737 0.22522 0.28373 0.0
H2504 H 0.72967 0.35741 0.27807 0.0
H2505 H 0.74883 0.33456 0.27516 0.0
H2506 H 0.78912 0.3733 0.24786 0.0
H2507 H 0.76983 0.39604 0.25019 0.0
H2508 H 0.82058 0.20894 0.26389 0.0
H2509 H 0.79992 0.23039 0.26679 0.0
H2510 H 0.76206 0.19047 0.29519 0.0
H2511 H 0.78237 0.16872 0.29204 0.0
Dy2512 Dy 0.02766 0.5435 0.50519 0.0
Dy2513 Dy 0.0347 0.52185 0.5416 0.0
C2514 C 0.03469 0.50197 0.49927 0.0
O2515 O 0.99975 0.52314 0.50702 0.0
O2516 O 1.00374 0.52034 0.53869 0.0
O2517 O 0.01674 0.54318 0.47597 0.0
O2518 O 0.03064 0.56992 0.49365 0.0
O2519 O 0.03624 0.55207 0.55342 0.0
O2520 O 0.01728 0.55867 0.52921 0.0
O2521 O 0.06214 0.52938 0.52967 0.0
O2522 O 0.05803 0.55582 0.51786 0.0
O2523 O 0.05341 0.52054 0.5663 0.0
O2524 O 0.02644 0.49906 0.55848 0.0
C2525 C 0.99275 0.51823 0.52255 0.0
O2526 O 0.03852 0.51895 0.49372 0.0
O2527 O 0.02943 0.49951 0.51615 0.0
C2528 C 0.03589 0.56711 0.46185 0.0
C2529 C 0.05864 0.57628 0.43286 0.0
C2530 C 0.06513 0.56803 0.44816 0.0
C2531 C 0.05383 0.56349 0.46254 0.0
C2532 C 0.02947 0.57569 0.4469 0.0
C2533 C 0.04078 0.58026 0.43246 0.0
C2534 C 0.02378 0.56146 0.47651 0.0
C2535 C 0.02557 0.56255 0.54685 0.0
C2536 C 0.06924 0.546 0.52446 0.0
C2537 C 0.03645 0.50936 0.59087 0.0
C2538 C 0.02402 0.51421 0.62663 0.0
C2539 C 0.02823 0.5295 0.61608 0.0
C2540 C 0.0343 0.52707 0.59831 0.0
C2541 C 0.03289 0.49422 0.60158 0.0
C2542 C 0.02666 0.49661 0.61937 0.0
C2543 C 0.04105 0.50636 0.57147 0.0
H2544 H 0.07865 0.56448 0.44872 0.0
H2545 H 0.05893 0.5568 0.47403 0.0
H2546 H 0.01564 0.57861 0.44626 0.0
H2547 H 0.03549 0.58673 0.42091 0.0
H2548 H 0.02597 0.54311 0.62115 0.0
H2549 H 0.03675 0.53889 0.59013 0.0
H2550 H 0.03442 0.48045 0.59597 0.0
H2551 H 0.02353 0.48461 0.62726 0.0
Dy2552 Dy 0.80093 0.7783 0.27524 0.0
Dy2553 Dy 0.75859 0.78797 0.27147 0.0
C2554 C 0.79671 0.81949 0.26687 0.0
O2555 O 0.79393 0.78185 0.3054 0.0
O2556 O 0.77285 0.80001 0.30089 0.0
O2557 O 0.83122 0.78545 0.28548 0.0
O2558 O 0.81773 0.75917 0.26698 0.0
O2559 O 0.75561 0.76198 0.28576 0.0
O2560 O 0.77821 0.75068 0.27206 0.0
O2561 O 0.76145 0.7735 0.24272 0.0
O2562 O 0.79408 0.78161 0.24483 0.0
O2563 O 0.7281 0.77775 0.26312 0.0
O2564 O 0.74049 0.80676 0.27638 0.0
C2565 C 0.78412 0.79335 0.31218 0.0
O2566 O 0.80679 0.80963 0.27549 0.0
O2567 O 0.77826 0.81274 0.26134 0.0
C2568 C 0.84986 0.77449 0.26329 0.0
C2569 C 0.88103 0.77987 0.24147 0.0
C2570 C 0.8841 0.78392 0.26146 0.0
C2571 C 0.86873 0.7812 0.27219 0.0
C2572 C 0.84666 0.77078 0.24334 0.0
C2573 C 0.86202 0.77337 0.23259 0.0
C2574 C 0.83383 0.77085 0.27501 0.0
C2575 C 0.76259 0.7478 0.28029 0.0
C2576 C 0.77723 0.77555 0.23468 0.0
C2577 C 0.7094 0.79155 0.28274 0.0
C2578 C 0.67947 0.78796 0.30589 0.0
C2579 C 0.69632 0.78297 0.31175 0.0
C2580 C 0.71113 0.78476 0.3003 0.0
C2581 C 0.69268 0.79649 0.27682 0.0
C2582 C 0.6779 0.79473 0.28823 0.0
C2583 C 0.72476 0.79348 0.27038 0.0
H2584 H 0.89841 0.78929 0.26889 0.0
H2585 H 0.87162 0.78424 0.28753 0.0
H2586 H 0.83229 0.76563 0.23599 0.0
H2587 H 0.85894 0.76985 0.21731 0.0
H2588 H 0.69819 0.77792 0.32531 0.0
H2589 H 0.72394 0.78089 0.30516 0.0
H2590 H 0.69101 0.80167 0.26329 0.0
H2591 H 0.6651 0.79843 0.28304 0.0
Dy2592 Dy 0.79099 0.28056 0.75494 0.0
Dy2593 Dy 0.76904 0.28816 0.79168 0.0
C2594 C 0.79077 0.32251 0.77105 0.0
O2595 O 0.8136 0.28744 0.78026 0.0
O2596 O 0.79413 0.27815 0.80271 0.0
O2597 O 0.81381 0.28842 0.73773 0.0
O2598 O 0.79273 0.26111 0.73078 0.0
O2599 O 0.75678 0.25775 0.77926 0.0
O2600 O 0.78343 0.25362 0.76736 0.0
O2601 O 0.7513 0.29531 0.76778 0.0
O2602 O 0.7607 0.27886 0.74288 0.0
O2603 O 0.74443 0.28168 0.8068 0.0
O2604 O 0.76967 0.30383 0.81915 0.0
C2605 C 0.81117 0.28217 0.79711 0.0
O2606 O 0.79056 0.31076 0.75583 0.0
O2607 O 0.78658 0.31658 0.78719 0.0
C2608 C 0.80309 0.27729 0.7056 0.0
C2609 C 0.79693 0.28817 0.66953 0.0
C2610 C 0.78217 0.28487 0.68102 0.0
C2611 C 0.78526 0.27955 0.69892 0.0
C2612 C 0.81773 0.28001 0.69403 0.0
C2613 C 0.81468 0.28546 0.67608 0.0
C2614 C 0.80665 0.27341 0.7251 0.0
C2615 C 0.76679 0.24657 0.77276 0.0
C2616 C 0.74881 0.2879 0.74982 0.0
C2617 C 0.75383 0.28445 0.83945 0.0
C2618 C 0.75844 0.26985 0.87382 0.0
C2619 C 0.76523 0.26266 0.85759 0.0
C2620 C 0.76289 0.26987 0.84056 0.0
C2621 C 0.74674 0.29153 0.85542 0.0
C2622 C 0.749 0.28424 0.87254 0.0
C2623 C 0.75328 0.29313 0.82202 0.0
H2624 H 0.76847 0.28721 0.67655 0.0
H2625 H 0.77386 0.27774 0.70776 0.0
H2626 H 0.83161 0.2784 0.69907 0.0
H2627 H 0.82627 0.28789 0.66747 0.0
H2628 H 0.77289 0.25186 0.85817 0.0
H2629 H 0.76861 0.2644 0.82836 0.0
H2630 H 0.73981 0.30289 0.85474 0.0
H2631 H 0.74349 0.28993 0.88476 0.0
Dy2632 Dy 0.76782 0.76189 0.76404 0.0
Dy2633 Dy 0.79144 0.80406 0.78379 0.0
C2634 C 0.78465 0.76985 0.80825 0.0
O2635 O 0.74514 0.77757 0.76693 0.0
O2636 O 0.76134 0.80068 0.79107 0.0
O2637 O 0.74221 0.73875 0.76105 0.0
O2638 O 0.76542 0.73588 0.74541 0.0
O2639 O 0.77891 0.80885 0.75522 0.0
O2640 O 0.77215 0.77842 0.73956 0.0
O2641 O 0.8125 0.79316 0.76803 0.0
O2642 O 0.79893 0.76124 0.76591 0.0
O2643 O 0.81469 0.82923 0.78493 0.0
O2644 O 0.79638 0.82689 0.80708 0.0
C2645 C 0.74513 0.79062 0.78111 0.0
O2646 O 0.77023 0.76091 0.7954 0.0
O2647 O 0.79743 0.78477 0.80461 0.0
C2648 C 0.75032 0.70966 0.75943 0.0
C2649 C 0.76076 0.68006 0.77577 0.0
C2650 C 0.75711 0.69512 0.78731 0.0
C2651 C 0.75199 0.70983 0.77922 0.0
C2652 C 0.75242 0.69389 0.74779 0.0
C2653 C 0.75757 0.67913 0.7559 0.0
C2654 C 0.74964 0.72706 0.75131 0.0
C2655 C 0.77478 0.79679 0.73935 0.0
C2656 C 0.81364 0.77559 0.76444 0.0
C2657 C 0.80729 0.85701 0.79771 0.0
C2658 C 0.7979 0.89144 0.79464 0.0
C2659 C 0.79764 0.87887 0.77827 0.0
C2660 C 0.80219 0.86175 0.77979 0.0
C2661 C 0.80844 0.86991 0.81403 0.0
C2662 C 0.8037 0.88701 0.81252 0.0
C2663 C 0.80976 0.83805 0.79962 0.0
H2664 H 0.75929 0.69607 0.80264 0.0
H2665 H 0.75049 0.72186 0.78855 0.0
H2666 H 0.75132 0.69358 0.73252 0.0
H2667 H 0.76047 0.66777 0.74667 0.0
H2668 H 0.79289 0.88176 0.76433 0.0
H2669 H 0.801 0.85193 0.76699 0.0
H2670 H 0.8123 0.86643 0.82797 0.0
H2671 H 0.80403 0.8965 0.82533 0.0
Dy2672 Dy 0.55238 0.54436 0.53329 0.0
Dy2673 Dy 0.51015 0.52074 0.51321 0.0
C2674 C 0.54527 0.52726 0.48886 0.0
O2675 O 0.53684 0.56706 0.52982 0.0
O2676 O 0.51326 0.55068 0.50617 0.0
O2677 O 0.57613 0.56935 0.53597 0.0
O2678 O 0.57703 0.54764 0.55394 0.0
O2679 O 0.50489 0.53366 0.54161 0.0
O2680 O 0.53506 0.53968 0.55739 0.0
O2681 O 0.52134 0.49957 0.52818 0.0
O2682 O 0.55339 0.51345 0.53093 0.0
O2683 O 0.48452 0.4982 0.51283 0.0
O2684 O 0.48783 0.51469 0.48947 0.0
C2685 C 0.52356 0.56693 0.51592 0.0
O2686 O 0.55489 0.54108 0.50212 0.0
O2687 O 0.52953 0.51521 0.49195 0.0
C2688 C 0.60556 0.56226 0.54275 0.0
C2689 C 0.63954 0.55506 0.53249 0.0
C2690 C 0.62597 0.55799 0.51866 0.0
C2691 C 0.60907 0.56142 0.52371 0.0
C2692 C 0.61957 0.56056 0.55674 0.0
C2693 C 0.63642 0.55695 0.55166 0.0
C2694 C 0.5867 0.56287 0.54787 0.0
C2695 C 0.51667 0.53747 0.55754 0.0
C2696 C 0.539 0.49859 0.53188 0.0
C2697 C 0.45724 0.50522 0.49857 0.0
C2698 C 0.42283 0.51544 0.49972 0.0
C2699 C 0.43523 0.51722 0.51649 0.0
C2700 C 0.45234 0.51226 0.51591 0.0
C2701 C 0.44452 0.5026 0.48192 0.0
C2702 C 0.42743 0.50774 0.48247 0.0
C2703 C 0.4762 0.50221 0.49747 0.0
H2704 H 0.62808 0.5569 0.50381 0.0
H2705 H 0.59847 0.56266 0.5126 0.0
H2706 H 0.61707 0.56109 0.57148 0.0
H2707 H 0.64647 0.55455 0.56265 0.0
H2708 H 0.43223 0.52346 0.52992 0.0
H2709 H 0.46203 0.51462 0.52892 0.0
H2710 H 0.44814 0.49724 0.46842 0.0
H2711 H 0.41808 0.50622 0.46937 0.0
Dy2712 Dy 0.00595 0.5295 0.0291 0.0
Dy2713 Dy 0.05016 0.53572 0.01803 0.0
C2714 C 0.01676 0.54001 0.98935 0.0
O2715 O 0.00714 0.5005 0.015 0.0
O2716 O 0.03957 0.50429 0.01806 0.0
O2717 O 0.97582 0.52067 0.0186 0.0
O2718 O 0.98528 0.53225 0.04818 0.0
O2719 O 0.05176 0.53081 0.04824 0.0
O2720 O 0.02025 0.51883 0.05282 0.0
O2721 O 0.04619 0.56544 0.0235 0.0
O2722 O 0.02173 0.55945 0.0419 0.0
O2723 O 0.08067 0.54774 0.02477 0.0
O2724 O 0.06899 0.5305 0.99772 0.0
C2725 C 0.022 0.49332 0.0143 0.0
O2726 O 0.00899 0.54509 0.00407 0.0
O2727 O 0.03052 0.53169 0.99118 0.0
C2728 C 0.95794 0.53975 0.03332 0.0
C2729 C 0.93252 0.56314 0.03049 0.0
C2730 C 0.92876 0.54553 0.0188 0.0
C2731 C 0.94127 0.53398 0.02026 0.0
C2732 C 0.96182 0.55737 0.04496 0.0
C2733 C 0.94925 0.56887 0.0436 0.0
C2734 C 0.97097 0.52722 0.03459 0.0
C2735 C 0.03863 0.52237 0.05815 0.0
C2736 C 0.03541 0.57154 0.03526 0.0
C2737 C 0.09811 0.52734 0.01206 0.0
C2738 C 0.12384 0.50452 0.01579 0.0
C2739 C 0.10692 0.50065 0.02436 0.0
C2740 C 0.09418 0.51193 0.02249 0.0
C2741 C 0.11495 0.53134 0.00359 0.0
C2742 C 0.1277 0.52007 0.00544 0.0
C2743 C 0.08439 0.53878 0.0094 0.0
H2744 H 0.91625 0.54071 0.00831 0.0
H2745 H 0.93792 0.5205 0.01109 0.0
H2746 H 0.97454 0.56229 0.0552 0.0
H2747 H 0.95254 0.58216 0.05304 0.0
H2748 H 0.10355 0.48898 0.03263 0.0
H2749 H 0.08121 0.50858 0.0291 0.0
H2750 H 0.11816 0.54307 0.99536 0.0
H2751 H 0.1404 0.52333 0.99841 0.0
H2752 H 0.97969 0.1591 0.97118 0.0
H2753 H 0.03948 0.18534 0.98961 0.0
H2754 H 0.98304 0.12962 0.98201 0.0
H2755 H 0.04303 0.15563 0.99955 0.0
H2756 H 0.04212 0.10416 0.03084 0.0
H2757 H 0.03785 0.134 0.02153 0.0
H2758 H 0.99417 0.10255 0.97632 0.0
H2759 H 0.99814 0.07277 0.98599 0.0
C2760 C 0.9936 0.15875 0.97758 0.0
C2761 C 0.00927 0.17503 0.97935 0.0
C2762 C 0.99561 0.14154 0.98362 0.0
C2763 C 0.01337 0.13978 0.99174 0.0
C2764 C 0.029 0.15612 0.99365 0.0
C2765 C 0.02699 0.17331 0.98762 0.0
C2766 C 0.03151 0.10354 0.01896 0.0
C2767 C 0.0205 0.08577 0.00928 0.0
C2768 C 0.02913 0.12082 0.01345 0.0
C2769 C 0.01565 0.12112 0.99798 0.0
C2770 C 0.00453 0.10328 0.98844 0.0
C2771 C 0.0069 0.08601 0.99397 0.0
H2772 H 0.13874 0.77525 0.18691 0.0
H2773 H 0.17249 0.8255 0.16774 0.0
H2774 H 0.16676 0.77246 0.20622 0.0
H2775 H 0.20049 0.82328 0.18799 0.0
H2776 H 0.25154 0.80319 0.21323 0.0
H2777 H 0.22402 0.80601 0.19253 0.0
H2778 H 0.18733 0.78605 0.23424 0.0
H2779 H 0.21453 0.78276 0.25449 0.0
C2780 C 0.15213 0.78574 0.18673 0.0
C2781 C 0.15315 0.80057 0.17553 0.0
C2782 C 0.16828 0.78429 0.19812 0.0
C2783 C 0.18609 0.79769 0.1989 0.0
C2784 C 0.18716 0.81254 0.18771 0.0
C2785 C 0.17096 0.81398 0.17624 0.0
C2786 C 0.23759 0.79936 0.21796 0.0
C2787 C 0.23539 0.79263 0.23558 0.0
C2788 C 0.22175 0.80109 0.2061 0.0
C2789 C 0.20323 0.79618 0.21153 0.0
C2790 C 0.20116 0.78962 0.22924 0.0
C2791 C 0.21691 0.78783 0.241 0.0
H2792 H 0.53582 0.87749 0.50322 0.0
H2793 H 0.48721 0.87302 0.46205 0.0
H2794 H 0.53839 0.91115 0.51199 0.0
H2795 H 0.48989 0.90672 0.4706 0.0
H2796 H 0.4895 0.96531 0.50075 0.0
H2797 H 0.48606 0.93124 0.4927 0.0
H2798 H 0.54723 0.94147 0.50299 0.0
H2799 H 0.55054 0.97519 0.51152 0.0
C2800 C 0.52573 0.88365 0.49588 0.0
C2801 C 0.51127 0.87221 0.48187 0.0
C2802 C 0.52722 0.90314 0.50091 0.0
C2803 C 0.51441 0.91207 0.49206 0.0
C2804 C 0.4999 0.90058 0.47809 0.0
C2805 C 0.49836 0.88107 0.47313 0.0
C2806 C 0.50222 0.9603 0.50131 0.0
C2807 C 0.5203 0.97325 0.50688 0.0
C2808 C 0.50027 0.94064 0.49656 0.0
C2809 C 0.51634 0.93319 0.49716 0.0
C2810 C 0.53439 0.94626 0.50264 0.0
C2811 C 0.53632 0.96583 0.50744 0.0
H2812 H 0.47421 0.32016 0.67788 0.0
H2813 H 0.46861 0.25994 0.67555 0.0
H2814 H 0.44804 0.31722 0.69729 0.0
H2815 H 0.44227 0.25694 0.69461 0.0
H2816 H 0.40964 0.26221 0.74582 0.0
H2817 H 0.43611 0.26591 0.727 0.0
H2818 H 0.41321 0.30342 0.6949 0.0
H2819 H 0.38644 0.29946 0.71348 0.0
C2820 C 0.46746 0.3063 0.68155 0.0
C2821 C 0.47357 0.29029 0.67509 0.0
C2822 C 0.45231 0.30458 0.69254 0.0
C2823 C 0.44298 0.28684 0.69756 0.0
C2824 C 0.44919 0.27087 0.6912 0.0
C2825 C 0.46421 0.27256 0.68008 0.0
C2826 C 0.41005 0.2711 0.73462 0.0
C2827 C 0.39567 0.28042 0.7312 0.0
C2828 C 0.42533 0.27325 0.72383 0.0
C2829 C 0.42683 0.28491 0.70933 0.0
C2830 C 0.41267 0.29449 0.70607 0.0
C2831 C 0.39729 0.29224 0.7168 0.0
H2832 H 0.03916 0.82851 0.59797 0.0
H2833 H 1.00439 0.85237 0.63391 0.0
H2834 H 0.04163 0.85471 0.57926 0.0
H2835 H 0.00632 0.87823 0.61476 0.0
H2836 H 0.03115 0.93274 0.58861 0.0
H2837 H 0.02814 0.90661 0.60753 0.0
H2838 H 0.02336 0.86732 0.55664 0.0
H2839 H 0.02626 0.89337 0.53772 0.0
C2840 C 0.03204 0.83934 0.60194 0.0
C2841 C 0.02159 0.83821 0.61756 0.0
C2842 C 0.03328 0.8543 0.59102 0.0
C2843 C 0.02415 0.86869 0.59538 0.0
C2844 C 0.01371 0.86758 0.61101 0.0
C2845 C 0.01241 0.85256 0.6219 0.0
C2846 C 0.02922 0.91851 0.58138 0.0
C2847 C 0.02903 0.91532 0.56154 0.0
C2848 C 0.02751 0.90346 0.59228 0.0
C2849 C 0.02558 0.88475 0.58371 0.0
C2850 C 0.02519 0.88154 0.56386 0.0
C2851 C 0.02686 0.89656 0.55296 0.0
H2852 H 0.44216 0.82677 0.81222 0.0
H2853 H 0.42646 0.76773 0.82082 0.0
H2854 H 0.40878 0.82481 0.80252 0.0
H2855 H 0.39314 0.76614 0.81238 0.0
H2856 H 0.33587 0.7616 0.77941 0.0
H2857 H 0.36942 0.76435 0.78804 0.0
H2858 H 0.37828 0.82319 0.81136 0.0
H2859 H 0.3445 0.82052 0.80196 0.0
C2860 C 0.4317 0.81331 0.81204 0.0
C2861 C 0.43743 0.79741 0.81737 0.0
C2862 C 0.41233 0.81227 0.80672 0.0
C2863 C 0.39784 0.7953 0.80654 0.0
C2864 C 0.4036 0.77944 0.81193 0.0
C2865 C 0.42294 0.78045 0.81713 0.0
C2866 C 0.34488 0.77519 0.78638 0.0
C2867 C 0.33719 0.79082 0.78998 0.0
C2868 C 0.36431 0.77675 0.79152 0.0
C2869 C 0.37696 0.79397 0.80068 0.0
C2870 C 0.36929 0.80969 0.80418 0.0
C2871 C 0.34977 0.80815 0.79887 0.0
H2872 H 0.51416 0.14473 0.14199 0.0
H2873 H 0.49932 0.16869 0.09193 0.0
H2874 H 0.51721 0.11684 0.12202 0.0
H2875 H 0.50146 0.14043 0.07203 0.0
H2876 H 0.50522 0.06116 0.0808 0.0
H2877 H 0.50082 0.0884 0.10106 0.0
H2878 H 0.52435 0.12546 0.06122 0.0
H2879 H 0.52828 0.09835 0.0409 0.0
C2880 C 0.51148 0.1441 0.12674 0.0
C2881 C 0.50659 0.15922 0.1187 0.0
C2882 C 0.51301 0.12789 0.11523 0.0
C2883 C 0.50969 0.12624 0.09528 0.0
C2884 C 0.50444 0.14119 0.08727 0.0
C2885 C 0.50294 0.15739 0.09877 0.0
C2886 C 0.50941 0.07512 0.07634 0.0
C2887 C 0.51707 0.07743 0.05911 0.0
C2888 C 0.50698 0.09082 0.08804 0.0
C2889 C 0.51213 0.1093 0.08286 0.0
C2890 C 0.51984 0.11152 0.06564 0.0
C2891 C 0.52224 0.09588 0.05397 0.0
H2892 H 0.12114 0.29549 0.2857 0.0
H2893 H 0.14839 0.30879 0.34364 0.0
H2894 H 0.15102 0.29226 0.275 0.0
H2895 H 0.17818 0.30559 0.33296 0.0
H2896 H 0.2344 0.31519 0.30764 0.0
H2897 H 0.2044 0.31905 0.3174 0.0
H2898 H 0.17333 0.27374 0.27342 0.0
H2899 H 0.20344 0.27017 0.26342 0.0
C2900 C 0.13339 0.29761 0.29627 0.0
C2901 C 0.132 0.30252 0.31566 0.0
C2902 C 0.1507 0.29574 0.29006 0.0
C2903 C 0.16739 0.29869 0.30298 0.0
C2904 C 0.16597 0.30355 0.32237 0.0
C2905 C 0.14869 0.30541 0.32856 0.0
C2906 C 0.22121 0.30606 0.29994 0.0
C2907 C 0.22161 0.29234 0.28465 0.0
C2908 C 0.20384 0.30819 0.30568 0.0
C2909 C 0.18608 0.29667 0.2964 0.0
C2910 C 0.1865 0.28311 0.28092 0.0
C2911 C 0.2039 0.28097 0.27518 0.0
H2912 H 0.9568 0.05402 0.15642 0.0
H2913 H 0.99636 0.02214 0.17294 0.0
H2914 H 0.96774 0.05449 0.12514 0.0
H2915 H 0.00689 0.02216 0.14155 0.0
H2916 H 0.03666 0.04336 0.0918 0.0
H2917 H 0.02504 0.04357 0.12255 0.0
H2918 H 0.9676 0.03453 0.09523 0.0
H2919 H 0.97933 0.0345 0.06418 0.0
C2920 C 0.96788 0.04715 0.15345 0.0
C2921 C 0.97572 0.03812 0.16741 0.0
C2922 C 0.974 0.04723 0.13536 0.0
C2923 C 0.98828 0.03842 0.13068 0.0
C2924 C 0.99605 0.02932 0.14461 0.0
C2925 C 0.98985 0.02913 0.16264 0.0
C2926 C 0.02152 0.04148 0.09222 0.0
C2927 C 0.00897 0.03889 0.07531 0.0
C2928 C 0.01482 0.04146 0.10997 0.0
C2929 C 0.99531 0.0389 0.11154 0.0
C2930 C 0.98274 0.03667 0.09468 0.0
C2931 C 0.98946 0.03659 0.07681 0.0
H2932 H 0.28034 0.73379 0.48285 0.0
H2933 H 0.26001 0.68163 0.44372 0.0
H2934 H 0.27187 0.75165 0.45799 0.0
H2935 H 0.25144 0.69946 0.41896 0.0
H2936 H 0.22551 0.73468 0.38212 0.0
H2937 H 0.22949 0.71893 0.41012 0.0
H2938 H 0.28445 0.75924 0.42795 0.0
H2939 H 0.28026 0.77518 0.40026 0.0
C2940 C 0.27412 0.72617 0.46892 0.0
C2941 C 0.27099 0.70636 0.46514 0.0
C2942 C 0.26919 0.73636 0.45476 0.0
C2943 C 0.26099 0.72692 0.4366 0.0
C2944 C 0.25746 0.70706 0.43294 0.0
C2945 C 0.26243 0.69687 0.44708 0.0
C2946 C 0.23822 0.74039 0.39227 0.0
C2947 C 0.25266 0.75601 0.38902 0.0
C2948 C 0.24057 0.7313 0.40816 0.0
C2949 C 0.25734 0.73779 0.42108 0.0
C2950 C 0.27133 0.75401 0.41829 0.0
C2951 C 0.26902 0.76302 0.40239 0.0
H2952 H 0.58853 0.98297 0.64904 0.0
H2953 H 0.5743 0.03155 0.67763 0.0
H2954 H 0.56857 0.98491 0.62023 0.0
H2955 H 0.55488 0.03374 0.64868 0.0
H2956 H 0.56133 0.0491 0.58625 0.0
H2957 H 0.57134 0.04244 0.61772 0.0
H2958 H 0.53287 0.98602 0.60552 0.0
H2959 H 0.5224 0.99285 0.5739 0.0
C2960 C 0.58071 0.99368 0.64936 0.0
C2961 C 0.5833 0.00738 0.66542 0.0
C2962 C 0.5693 0.99477 0.6329 0.0
C2963 C 0.56047 0.00962 0.63231 0.0
C2964 C 0.56175 0.02229 0.64883 0.0
C2965 C 0.57295 0.0211 0.66529 0.0
C2966 C 0.55485 0.03536 0.59035 0.0
C2967 C 0.54116 0.02146 0.57772 0.0
C2968 C 0.56045 0.03161 0.60837 0.0
C2969 C 0.55274 0.01378 0.61396 0.0
C2970 C 0.53889 0.99989 0.60145 0.0
C2971 C 0.53293 0.00381 0.58349 0.0
H2972 H 0.30884 0.32328 0.93522 0.0
H2973 H 0.24934 0.32136 0.92288 0.0
H2974 H 0.30983 0.31326 0.9017 0.0
H2975 H 0.25012 0.31053 0.88963 0.0
H2976 H 0.26297 0.31539 0.82922 0.0
H2977 H 0.2625 0.32345 0.8629 0.0
H2978 H 0.29971 0.28786 0.87509 0.0
H2979 H 0.3005 0.27998 0.84095 0.0
C2980 C 0.29591 0.32063 0.92543 0.0
C2981 C 0.27904 0.32334 0.93194 0.0
C2982 C 0.29644 0.31464 0.90616 0.0
C2983 C 0.28011 0.3112 0.89276 0.0
C2984 C 0.26311 0.31334 0.89937 0.0
C2985 C 0.26258 0.31932 0.91861 0.0
C2986 C 0.27114 0.30922 0.83896 0.0
C2987 C 0.28179 0.29697 0.83217 0.0
C2988 C 0.27071 0.31376 0.85843 0.0
C2989 C 0.28088 0.3062 0.87191 0.0
C2990 C 0.29176 0.29408 0.8652 0.0
C2991 C 0.29218 0.2895 0.84558 0.0
H2992 H 0.98686 0.00345 0.35808 0.0
H2993 H 0.98602 0.06189 0.37242 0.0
H2994 H 0.99675 0.00202 0.39135 0.0
H2995 H 0.99683 0.06075 0.40541 0.0
H2996 H 0.99336 0.04703 0.4655 0.0
H2997 H 0.98492 0.04783 0.43205 0.0
H2998 H 0.02156 0.01198 0.4179 0.0
H2999 H 0.02975 0.01079 0.45176 0.0
C3000 C 0.98885 0.01606 0.36825 0.0
C3001 C 0.98541 0.03275 0.36234 0.0
C3002 C 0.99479 0.01529 0.3874 0.0
C3003 C 0.99749 0.0312 0.40131 0.0
C3004 C 0.99459 0.04804 0.3953 0.0
C3005 C 0.98863 0.0488 0.37619 0.0
C3006 C 0.99967 0.03922 0.45536 0.0
C3007 C 0.01231 0.02882 0.46154 0.0
C3008 C 0.99491 0.03984 0.43602 0.0
C3009 C 1.00265 0.03016 0.42204 0.0
C3010 C 0.01515 0.01954 0.42815 0.0
C3011 C 0.01992 0.01889 0.44763 0.0
H3012 H 0.31617 0.75095 0.62585 0.0
H3013 H 0.32539 0.70387 0.65345 0.0
H3014 H 0.31262 0.76727 0.65636 0.0
H3015 H 0.3227 0.72055 0.68395 0.0
H3016 H 0.28014 0.73686 0.72148 0.0
H3017 H 0.29266 0.725 0.6939 0.0
H3018 H 0.3257 0.78198 0.68972 0.0
H3019 H 0.31292 0.79409 0.71753 0.0
C3020 C 0.31796 0.74433 0.6385 0.0
C3021 C 0.32062 0.72594 0.6372 0.0
C3022 C 0.31612 0.75376 0.65598 0.0
C3023 C 0.31696 0.74496 0.67242 0.0
C3024 C 0.32159 0.72746 0.6714 0.0
C3025 C 0.32336 0.71801 0.65394 0.0
C3026 C 0.29005 0.74695 0.71474 0.0
C3027 C 0.29542 0.76646 0.72164 0.0
C3028 C 0.29744 0.74008 0.69906 0.0
C3029 C 0.31038 0.75253 0.68983 0.0
C3030 C 0.31577 0.77208 0.69662 0.0
C3031 C 0.30842 0.77899 0.71248 0.0
H3032 H 0.63459 0.05824 0.85316 0.0
H3033 H 0.58345 0.01891 0.8225 0.0
H3034 H 0.61639 0.06626 0.87813 0.0
H3035 H 0.56547 0.02616 0.84799 0.0
H3036 H 0.53502 0.05753 0.88768 0.0
H3037 H 0.55342 0.05165 0.86192 0.0
H3038 H 0.6008 0.05189 0.90313 0.0
H3039 H 0.58256 0.05801 0.92872 0.0
C3040 C 0.61948 0.05128 0.85177 0.0
C3041 C 0.61047 0.03795 0.83585 0.0
C3042 C 0.60908 0.05573 0.86617 0.0
C3043 C 0.58949 0.04685 0.86502 0.0
C3044 C 0.58049 0.03343 0.84916 0.0
C3045 C 0.59087 0.02906 0.83471 0.0
C3046 C 0.5494 0.05639 0.89116 0.0
C3047 C 0.55742 0.05832 0.91015 0.0
C3048 C 0.5599 0.05296 0.87646 0.0
C3049 C 0.57855 0.05127 0.88051 0.0
C3050 C 0.5866 0.05344 0.89954 0.0
C3051 C 0.57616 0.05695 0.91419 0.0
H3052 H 0.25723 0.35496 0.13766 0.0
H3053 H 0.2866 0.31301 0.12052 0.0
H3054 H 0.25608 0.34443 0.16892 0.0
H3055 H 0.28601 0.30294 0.15193 0.0
H3056 H 0.26389 0.27506 0.20213 0.0
H3057 H 0.26417 0.28615 0.1713 0.0
H3058 H 0.27551 0.34406 0.19848 0.0
H3059 H 0.27496 0.33286 0.22958 0.0
C3060 C 0.26341 0.34344 0.14049 0.0
C3061 C 0.27192 0.3348 0.12637 0.0
C3062 C 0.26295 0.33756 0.15857 0.0
C3063 C 0.27089 0.32276 0.16309 0.0
C3064 C 0.27949 0.3142 0.14899 0.0
C3065 C 0.28003 0.32014 0.13096 0.0
C3066 C 0.26637 0.29018 0.20165 0.0
C3067 C 0.26943 0.30302 0.21851 0.0
C3068 C 0.26668 0.29658 0.18386 0.0
C3069 C 0.27005 0.31606 0.18225 0.0
C3070 C 0.27274 0.32893 0.19908 0.0
C3071 C 0.27248 0.32251 0.21697 0.0
H3072 H 0.22854 0.99672 0.01156 0.0
H3073 H 0.19709 0.96428 0.05074 0.0
H3074 H 0.21282 0.02186 0.01842 0.0
H3075 H 0.18102 0.98912 0.0573 0.0
H3076 H 0.15903 0.03871 0.07243 0.0
H3077 H 0.1832 0.02126 0.0706 0.0
H3078 H 0.18114 0.02439 0.01035 0.0
H3079 H 0.15776 0.0426 0.01241 0.0
C3080 C 0.21828 0.99503 0.02168 0.0
C3081 C 0.21381 0.97851 0.03046 0.0
C3082 C 0.20931 0.0094 0.02562 0.0
C3083 C 0.19557 0.00744 0.03829 0.0
C3084 C 0.19173 0.99123 0.04768 0.0
C3085 C 0.20084 0.97694 0.04385 0.0
C3086 C 0.16422 0.03621 0.05893 0.0
C3087 C 0.15633 0.0418 0.0425 0.0
C3088 C 0.17789 0.02601 0.05784 0.0
C3089 C 0.18386 0.02116 0.04028 0.0
C3090 C 0.17695 0.02794 0.02413 0.0
C3091 C 0.16338 0.03821 0.02525 0.0
H3092 H 0.66568 0.6257 0.98162 0.0
H3093 H 0.68459 0.60945 0.03494 0.0
H3094 H 0.63403 0.60451 0.98175 0.0
H3095 H 0.65275 0.58891 0.03548 0.0
H3096 H 0.59798 0.54092 0.02308 0.0
H3097 H 0.63011 0.55979 0.02038 0.0
H3098 H 0.6068 0.60295 0.99865 0.0
H3099 H 0.57475 0.58397 0.00093 0.0
C3100 C 0.66314 0.61754 0.99332 0.0
C3101 C 0.67772 0.61937 0.0083 0.0
C3102 C 0.6449 0.60554 0.99351 0.0
C3103 C 0.64076 0.59503 0.00867 0.0
C3104 C 0.65543 0.59662 0.02348 0.0
C3105 C 0.67366 0.60861 0.0233 0.0
C3106 C 0.59969 0.55437 0.01759 0.0
C3107 C 0.58373 0.5609 0.01226 0.0
C3108 C 0.61814 0.56525 0.01616 0.0
C3109 C 0.6211 0.58295 0.00935 0.0
C3110 C 0.60509 0.5893 0.00371 0.0
C3111 C 0.58667 0.57843 0.00513 0.0
H3112 H 0.70293 0.47746 0.25874 0.0
H3113 H 0.66339 0.44075 0.28874 0.0
H3114 H 0.72135 0.45412 0.25607 0.0
H3115 H 0.68217 0.41762 0.28657 0.0
H3116 H 0.70908 0.3719 0.26038 0.0
H3117 H 0.69036 0.395 0.2633 0.0
H3118 H 0.74225 0.44065 0.27553 0.0
H3119 H 0.76098 0.4176 0.27279 0.0
C3120 C 0.69812 0.46439 0.26474 0.0
C3121 C 0.68161 0.46102 0.27392 0.0
C3122 C 0.70883 0.45107 0.26339 0.0
C3123 C 0.70331 0.43395 0.27112 0.0
C3124 C 0.68678 0.43055 0.28029 0.0
C3125 C 0.67611 0.44393 0.28172 0.0
C3126 C 0.71654 0.38684 0.26389 0.0
C3127 C 0.73661 0.39281 0.26629 0.0
C3128 C 0.70577 0.40012 0.26556 0.0
C3129 C 0.71476 0.41974 0.26961 0.0
C3130 C 0.73481 0.4257 0.27208 0.0
C3131 C 0.74558 0.41244 0.27047 0.0
H3132 H 0.86896 0.48615 0.49786 0.0
H3133 H 0.88224 0.44325 0.5296 0.0
H3134 H 0.90273 0.50309 0.50165 0.0
H3135 H 0.91598 0.4602 0.53341 0.0
H3136 H 0.97288 0.50478 0.55107 0.0
H3137 H 0.93872 0.49002 0.54907 0.0
H3138 H 0.93168 0.49778 0.48996 0.0
H3139 H 0.96566 0.51278 0.49197 0.0
C3140 C 0.87911 0.4803 0.50556 0.0
C3141 C 0.87297 0.46334 0.51337 0.0
C3142 C 0.89842 0.49001 0.50776 0.0
C3143 C 0.91198 0.48295 0.51781 0.0
C3144 C 0.90582 0.46613 0.52583 0.0
C3145 C 0.88651 0.45642 0.52363 0.0
C3146 C 0.96403 0.50344 0.53768 0.0
C3147 C 0.972 0.50991 0.52166 0.0
C3148 C 0.94449 0.4949 0.53652 0.0
C3149 C 0.93255 0.49273 0.51936 0.0
C3150 C 0.94049 0.49947 0.50345 0.0
C3151 C 0.96 0.50796 0.50458 0.0
H3152 H 0.30707 0.08724 0.29942 0.0
H3153 H 0.34681 0.1249 0.27032 0.0
H3154 H 0.2826 0.10319 0.2906 0.0
H3155 H 0.32241 0.14063 0.26142 0.0
H3156 H 0.27266 0.15576 0.23433 0.0
H3157 H 0.29163 0.1338 0.24088 0.0
H3158 H 0.27709 0.13522 0.29816 0.0
H3159 H 0.2575 0.15673 0.2914 0.0
C3160 C 0.3106 0.09899 0.29125 0.0
C3161 C 0.32884 0.10482 0.28553 0.0
C3162 C 0.29658 0.10802 0.28613 0.0
C3163 C 0.30054 0.12296 0.27512 0.0
C3164 C 0.3188 0.12883 0.26951 0.0
C3165 C 0.3328 0.11988 0.27466 0.0
C3166 C 0.27295 0.15089 0.24811 0.0
C3167 C 0.26376 0.15811 0.26243 0.0
C3168 C 0.28403 0.13852 0.25193 0.0
C3169 C 0.28613 0.13315 0.27014 0.0
C3170 C 0.27574 0.13916 0.28401 0.0
C3171 C 0.26465 0.15155 0.28018 0.0
H3172 H 0.33098 0.10399 0.51107 0.0
H3173 H 0.37686 0.15492 0.5293 0.0
H3174 H 0.35365 0.08477 0.51323 0.0
H3175 H 0.39949 0.13562 0.53189 0.0
H3176 H 0.43645 0.0958 0.51343 0.0
H3177 H 0.41421 0.1155 0.51161 0.0
H3178 H 0.37394 0.07489 0.53728 0.0
H3179 H 0.39623 0.05533 0.5394 0.0
C3180 C 0.34592 0.11111 0.51549 0.0
C3181 C 0.35207 0.13103 0.51996 0.0
C3182 C 0.3589 0.10005 0.51693 0.0
C3183 C 0.37842 0.10862 0.52277 0.0
C3184 C 0.3846 0.12855 0.52719 0.0
C3185 C 0.37158 0.13961 0.52589 0.0
C3186 C 0.42297 0.09115 0.51892 0.0
C3187 C 0.4182 0.07387 0.52652 0.0
C3188 C 0.41018 0.10246 0.51783 0.0
C3189 C 0.39223 0.09677 0.52423 0.0
C3190 C 0.3875 0.07957 0.53192 0.0
C3191 C 0.40031 0.06831 0.5331 0.0
H3192 H 0.69916 0.64248 0.31783 0.0
H3193 H 0.6906 0.63266 0.25657 0.0
H3194 H 0.72057 0.67403 0.31696 0.0
H3195 H 0.71202 0.66409 0.25569 0.0
H3196 H 0.76618 0.71411 0.26258 0.0
H3197 H 0.74723 0.68194 0.265 0.0
H3198 H 0.71631 0.70499 0.30588 0.0
H3199 H 0.73507 0.73714 0.30336 0.0
C3200 C 0.70199 0.64702 0.30421 0.0
C3201 C 0.69315 0.63517 0.28727 0.0
C3202 C 0.71414 0.66509 0.3037 0.0
C3203 C 0.71797 0.67152 0.28626 0.0
C3204 C 0.70946 0.65947 0.26934 0.0
C3205 C 0.69709 0.64156 0.26984 0.0
C3206 C 0.75546 0.71231 0.27221 0.0
C3207 C 0.75211 0.72821 0.28273 0.0
C3208 C 0.74455 0.6939 0.27351 0.0
C3209 C 0.73027 0.69096 0.28561 0.0
C3210 C 0.72731 0.7068 0.29655 0.0
C3211 C 0.73799 0.72522 0.29502 0.0
H3212 H 0.82776 0.44371 0.80103 0.0
H3213 H 0.82433 0.43711 0.7399 0.0
H3214 H 0.8145 0.40969 0.79986 0.0
H3215 H 0.81019 0.40293 0.73852 0.0
H3216 H 0.7801 0.34942 0.79332 0.0
H3217 H 0.78792 0.38345 0.79193 0.0
H3218 H 0.82029 0.37601 0.74534 0.0
H3219 H 0.81155 0.34182 0.74614 0.0
C3220 C 0.82361 0.43498 0.78729 0.0
C3221 C 0.82703 0.44295 0.77055 0.0
C3222 C 0.81596 0.41546 0.78658 0.0
C3223 C 0.81132 0.4035 0.76909 0.0
C3224 C 0.81396 0.41166 0.75225 0.0
C3225 C 0.8219 0.43121 0.753 0.0
C3226 C 0.78885 0.35509 0.78276 0.0
C3227 C 0.79541 0.34305 0.76997 0.0
C3228 C 0.79337 0.3746 0.78197 0.0
C3229 C 0.80488 0.38255 0.76863 0.0
C3230 C 0.81115 0.37039 0.75561 0.0
C3231 C 0.80631 0.35081 0.75617 0.0
H3232 H 0.02623 0.87905 0.04894 0.0
H3233 H 0.08068 0.9087 0.08093 0.0
H3234 H 0.02301 0.90864 0.03849 0.0
H3235 H 0.07734 0.93853 0.07075 0.0
H3236 H 0.07267 0.98871 0.0381 0.0
H3237 H 0.07725 0.95882 0.0474 0.0
H3238 H 0.01639 0.93731 0.04662 0.0
H3239 H 0.0119 0.96665 0.03682 0.0
C3240 C 0.03751 0.89189 0.05397 0.0
C3241 C 0.05369 0.89114 0.06599 0.0
C3242 C 0.03563 0.9091 0.04795 0.0
C3243 C 0.04978 0.92647 0.05377 0.0
C3244 C 0.06612 0.92568 0.06561 0.0
C3245 C 0.06805 0.90839 0.07154 0.0
C3246 C 0.06025 0.97756 0.03981 0.0
C3247 C 0.04188 0.98034 0.03651 0.0
C3248 C 0.06288 0.96031 0.04533 0.0
C3249 C 0.04723 0.94516 0.0478 0.0
C3250 C 0.02892 0.94813 0.04456 0.0
C3251 C 0.02631 0.96524 0.039 0.0
H3252 H 0.91898 0.26205 0.84337 0.0
H3253 H 0.89175 0.27303 0.89289 0.0
H3254 H 0.8918 0.26564 0.8231 0.0
H3255 H 0.86515 0.27777 0.87271 0.0
H3256 H 0.81109 0.2676 0.83101 0.0
H3257 H 0.8379 0.263 0.85111 0.0
H3258 H 0.87612 0.28754 0.81239 0.0
H3259 H 0.84915 0.29151 0.79196 0.0
C3260 C 0.90722 0.26518 0.85002 0.0
C3261 C 0.90779 0.26719 0.86995 0.0
C3262 C 0.89164 0.26756 0.83832 0.0
C3263 C 0.87607 0.27212 0.84609 0.0
C3264 C 0.87662 0.27406 0.86601 0.0
C3265 C 0.89214 0.27159 0.8777 0.0
C3266 C 0.82521 0.27205 0.82675 0.0
C3267 C 0.82782 0.27994 0.80975 0.0
C3268 C 0.84071 0.2695 0.83841 0.0
C3269 C 0.85942 0.27486 0.83355 0.0
C3270 C 0.86201 0.28288 0.81658 0.0
C3271 C 0.84648 0.28532 0.80486 0.0
H3272 H 0.55133 0.1962 0.53865 0.0
H3273 H 0.54108 0.18467 0.59526 0.0
H3274 H 0.54802 0.16232 0.52897 0.0
H3275 H 0.53818 0.15109 0.58576 0.0
H3276 H 0.51467 0.08897 0.55835 0.0
H3277 H 0.51765 0.12273 0.56709 0.0
H3278 H 0.56347 0.13674 0.53278 0.0
H3279 H 0.56039 0.10282 0.5239 0.0
C3280 C 0.54831 0.1865 0.54905 0.0
C3281 C 0.54658 0.19344 0.56782 0.0
C3282 C 0.5466 0.16701 0.54353 0.0
C3283 C 0.54283 0.15371 0.55652 0.0
C3284 C 0.54089 0.16066 0.57521 0.0
C3285 C 0.54278 0.18011 0.58075 0.0
C3286 C 0.52546 0.09918 0.55267 0.0
C3287 C 0.53735 0.09292 0.54045 0.0
C3288 C 0.52724 0.11868 0.55778 0.0
C3289 C 0.54087 0.13274 0.55076 0.0
C3290 C 0.55268 0.12649 0.5384 0.0
C3291 C 0.551 0.10694 0.5334 0.0
H3292 H 0.6033 0.76653 0.39391 0.0
H3293 H 0.57182 0.78703 0.35038 0.0
H3294 H 0.62986 0.76965 0.37516 0.0
H3295 H 0.59837 0.79018 0.33167 0.0
H3296 H 0.65671 0.8121 0.31188 0.0
H3297 H 0.63043 0.80884 0.33093 0.0
H3298 H 0.63973 0.75643 0.34664 0.0
H3299 H 0.66607 0.75968 0.32754 0.0
C3300 C 0.60192 0.77153 0.38027 0.0
C3301 C 0.5853 0.77653 0.37376 0.0
C3302 C 0.61722 0.77334 0.36948 0.0
C3303 C 0.61639 0.78022 0.35184 0.0
C3304 C 0.59974 0.78515 0.3453 0.0
C3305 C 0.58445 0.78334 0.35608 0.0
C3306 C 0.65309 0.79977 0.31925 0.0
C3307 C 0.66358 0.78613 0.31803 0.0
C3308 C 0.63795 0.7979 0.33021 0.0
C3309 C 0.63279 0.78232 0.34034 0.0
C3310 C 0.64339 0.76876 0.33928 0.0
C3311 C 0.65855 0.77063 0.3283 0.0
H3312 H 0.02365 0.24018 0.44832 0.0
H3313 H 0.03602 0.20535 0.40103 0.0
H3314 H 0.021 0.21402 0.46713 0.0
H3315 H 0.0334 0.17922 0.41985 0.0
H3316 H 0.04648 0.14311 0.46559 0.0
H3317 H 0.04899 0.16906 0.4465 0.0
H3318 H 1.00121 0.18304 0.47004 0.0
H3319 H 0.99869 0.15711 0.48909 0.0
C3320 C 0.02564 0.2269 0.44183 0.0
C3321 C 0.03007 0.22501 0.42308 0.0
C3322 C 0.02411 0.21184 0.45266 0.0
C3323 C 0.02697 0.1944 0.44509 0.0
C3324 C 0.0314 0.19249 0.42634 0.0
C3325 C 0.03291 0.20755 0.4155 0.0
C3326 C 0.03637 0.15157 0.46657 0.0
C3327 C 0.02241 0.14792 0.479 0.0
C3328 C 0.03781 0.16652 0.45559 0.0
C3329 C 0.02534 0.1783 0.45669 0.0
C3330 C 0.01131 0.17456 0.46903 0.0
C3331 C 0.00986 0.15962 0.47999 0.0
H3332 H 0.60882 0.24737 0.24969 0.0
H3333 H 0.62476 0.28569 0.20872 0.0
H3334 H 0.64239 0.24979 0.25932 0.0
H3335 H 0.65819 0.28761 0.21767 0.0
H3336 H 0.71844 0.302 0.24778 0.0
H3337 H 0.68489 0.29955 0.23925 0.0
H3338 H 0.67031 0.24222 0.25332 0.0
H3339 H 0.70406 0.24515 0.26275 0.0
C3340 C 0.61948 0.25621 0.2426 0.0
C3341 C 0.61391 0.26646 0.2285 0.0
C3342 C 0.63889 0.25755 0.24806 0.0
C3343 C 0.65347 0.26899 0.23945 0.0
C3344 C 0.64775 0.27902 0.22515 0.0
C3345 C 0.6284 0.27787 0.21989 0.0
C3346 C 0.70812 0.28881 0.24904 0.0
C3347 C 0.71418 0.27375 0.25591 0.0
C3348 C 0.68868 0.28733 0.24398 0.0
C3349 C 0.67442 0.27059 0.24531 0.0
C3350 C 0.68054 0.2555 0.25225 0.0
C3351 C 0.70004 0.2571 0.25758 0.0
H3352 H 0.56205 0.89895 0.95132 0.0
H3353 H 0.52939 0.91393 0.90457 0.0
H3354 H 0.56009 0.9271 0.97122 0.0
H3355 H 0.52577 0.94091 0.92498 0.0
H3356 H 0.5332 0.99765 0.96075 0.0
H3357 H 0.53808 0.97097 0.94032 0.0
H3358 H 0.54197 0.94118 0.989 0.0
H3359 H 0.53833 0.96842 0.00941 0.0
C3360 C 0.55442 0.90815 0.94515 0.0
C3361 C 0.54587 0.90377 0.92609 0.0
C3362 C 0.55296 0.92429 0.95682 0.0
C3363 C 0.54259 0.93655 0.95002 0.0
C3364 C 0.53413 0.93222 0.93093 0.0
C3365 C 0.5359 0.9163 0.91918 0.0
C3366 C 0.5352 0.98542 0.96708 0.0
C3367 C 0.53541 0.98527 0.98677 0.0
C3368 C 0.53785 0.96992 0.9553 0.0
C3369 C 0.54039 0.95353 0.96275 0.0
C3370 C 0.54052 0.95349 0.98253 0.0
C3371 C 0.53827 0.96915 0.99434 0.0
H3372 H 0.91783 0.73901 0.74275 0.0
H3373 H 0.91775 0.7848 0.70957 0.0
H3374 H 0.88777 0.74174 0.75354 0.0
H3375 H 0.88803 0.78765 0.72054 0.0
H3376 H 0.84549 0.80239 0.75821 0.0
H3377 H 0.87489 0.79816 0.74757 0.0
H3378 H 0.85354 0.73737 0.74536 0.0
H3379 H 0.82385 0.74168 0.75632 0.0
C3380 C 0.91147 0.7496 0.73757 0.0
C3381 C 0.92074 0.76177 0.72527 0.0
C3382 C 0.89407 0.75117 0.74384 0.0
C3383 C 0.88523 0.76505 0.73816 0.0
C3384 C 0.89438 0.77703 0.7257 0.0
C3385 C 0.91167 0.77541 0.71938 0.0
C3386 C 0.84691 0.78804 0.75553 0.0
C3387 C 0.83198 0.7724 0.75821 0.0
C3388 C 0.86391 0.78559 0.74921 0.0
C3389 C 0.86687 0.76738 0.74533 0.0
C3390 C 0.85206 0.75167 0.74826 0.0
C3391 C 0.83489 0.75413 0.7545 0.0
H3392 H 0.06823 0.99453 0.87176 0.0
H3393 H 0.08767 0.05585 0.882 0.0
H3394 H 0.0595 0.99414 0.9039 0.0
H3395 H 0.07823 0.05549 0.91375 0.0
H3396 H 0.07721 0.04892 0.97621 0.0
H3397 H 0.08676 0.048 0.94444 0.0
H3398 H 0.0371 1.00122 0.92413 0.0
H3399 H 0.02774 0.00191 0.95608 0.0
C3400 C 0.07066 0.00796 0.88081 0.0
C3401 C 0.0787 0.02522 0.87407 0.0
C3402 C 0.06543 0.00774 0.89926 0.0
C3403 C 0.06814 0.02478 0.91164 0.0
C3404 C 0.07612 0.04203 0.90486 0.0
C3405 C 0.08131 0.04225 0.88643 0.0
C3406 C 0.06835 0.03833 0.96503 0.0
C3407 C 0.05164 0.02551 0.96886 0.0
C3408 C 0.07377 0.0379 0.94668 0.0
C3409 C 0.06267 0.02465 0.93147 0.0
C3410 C 0.04617 0.01154 0.93539 0.0
C3411 C 0.04074 0.01197 0.95379 0.0
H3412 H 0.8014 0.35437 0.57476 0.0
H3413 H 0.74524 0.34611 0.59232 0.0
H3414 H 0.80874 0.33297 0.59641 0.0
H3415 H 0.75262 0.32479 0.61413 0.0
H3416 H 0.76607 0.27709 0.64212 0.0
H3417 H 0.7593 0.29386 0.61568 0.0
H3418 H 0.8145 0.33446 0.63076 0.0
H3419 H 0.82126 0.31769 0.65705 0.0
C3420 C 0.79068 0.34805 0.58337 0.0
C3421 C 0.77285 0.35209 0.58212 0.0
C3422 C 0.79485 0.33576 0.59568 0.0
C3423 C 0.78128 0.32726 0.60699 0.0
C3424 C 0.76327 0.33092 0.60538 0.0
C3425 C 0.75907 0.34319 0.59301 0.0
C3426 C 0.77683 0.28946 0.63959 0.0
C3427 C 0.79413 0.29618 0.65169 0.0
C3428 C 0.77293 0.29908 0.62452 0.0
C3429 C 0.78627 0.31559 0.6213 0.0
C3430 C 0.804 0.32167 0.63277 0.0
C3431 C 0.8079 0.31204 0.64781 0.0
H3432 H 0.50023 0.07177 0.37379 0.0
H3433 H 0.45134 0.07269 0.40315 0.0
H3434 H 0.51827 0.06923 0.40361 0.0
H3435 H 0.46916 0.07018 0.43259 0.0
H3436 H 0.50556 0.07463 0.48584 0.0
H3437 H 0.49524 0.08551 0.45671 0.0
H3438 H 0.51677 0.04423 0.42409 0.0
H3439 H 0.52779 0.0338 0.45352 0.0
C3440 C 0.49345 0.07172 0.38663 0.0
C3441 C 0.47437 0.07246 0.38612 0.0
C3442 C 0.50375 0.07022 0.40366 0.0
C3443 C 0.49515 0.06949 0.42044 0.0
C3444 C 0.47637 0.07109 0.42002 0.0
C3445 C 0.46612 0.07258 0.40309 0.0
C3446 C 0.5083 0.06804 0.47245 0.0
C3447 C 0.5171 0.05311 0.47182 0.0
C3448 C 0.50239 0.07427 0.45578 0.0
C3449 C 0.50485 0.06549 0.43809 0.0
C3450 C 0.51476 0.05135 0.43752 0.0
C3451 C 0.52096 0.04528 0.45432 0.0
H3452 H 0.78552 0.77026 0.11204 0.0
H3453 H 0.77282 0.71225 0.12384 0.0
H3454 H 0.78362 0.78113 0.14542 0.0
H3455 H 0.77044 0.72305 0.157 0.0
H3456 H 0.74855 0.75028 0.20994 0.0
H3457 H 0.7486 0.74051 0.17595 0.0
H3458 H 0.80393 0.77999 0.17804 0.0
H3459 H 0.80416 0.78939 0.212 0.0
C3460 C 0.78217 0.75984 0.12173 0.0
C3461 C 0.77942 0.74041 0.11533 0.0
C3462 C 0.78114 0.76606 0.14083 0.0
C3463 C 0.77682 0.75294 0.15384 0.0
C3464 C 0.77365 0.73349 0.14731 0.0
C3465 C 0.77514 0.72733 0.12836 0.0
C3466 C 0.76064 0.75699 0.20311 0.0
C3467 C 0.77635 0.77061 0.21373 0.0
C3468 C 0.76071 0.75132 0.18367 0.0
C3469 C 0.77627 0.75949 0.1743 0.0
C3470 C 0.79169 0.77352 0.1848 0.0
C3471 C 0.79183 0.77884 0.20429 0.0
H3472 H 0.101 0.04959 0.67164 0.0
H3473 H 0.04417 0.01913 0.68033 0.0
H3474 H 0.0895 0.05096 0.63889 0.0
H3475 H 0.03295 0.0199 0.64721 0.0
H3476 H 0.02769 0.00579 0.58116 0.0
H3477 H 0.03762 0.00607 0.61479 0.0
H3478 H 0.06773 0.06547 0.61941 0.0
H3479 H 0.05764 0.06527 0.58564 0.0
C3480 C 0.086 0.04336 0.66677 0.0
C3481 C 0.07359 0.03432 0.679 0.0
C3482 C 0.07943 0.0441 0.64783 0.0
C3483 C 0.06028 0.03559 0.64034 0.0
C3484 C 0.04784 0.02647 0.65243 0.0
C3485 C 0.05435 0.02595 0.67148 0.0
C3486 C 0.03633 0.01899 0.58932 0.0
C3487 C 0.04186 0.03552 0.58058 0.0
C3488 C 0.04194 0.01915 0.60869 0.0
C3489 C 0.05351 0.03577 0.61988 0.0
C3490 C 0.05894 0.05237 0.6112 0.0
C3491 C 0.05306 0.05229 0.59185 0.0
H3492 H 0.73939 0.31557 0.42244 0.0
H3493 H 0.7424 0.36667 0.3967 0.0
H3494 H 0.74063 0.29826 0.39156 0.0
H3495 H 0.7442 0.34973 0.3661 0.0
H3496 H 0.73818 0.31412 0.31068 0.0
H3497 H 0.72886 0.32612 0.34035 0.0
H3498 H 0.76461 0.29771 0.37118 0.0
H3499 H 0.77327 0.28502 0.34131 0.0
C3500 C 0.74009 0.323 0.4101 0.0
C3501 C 0.74079 0.34241 0.41188 0.0
C3502 C 0.74092 0.31316 0.39248 0.0
C3503 C 0.74267 0.32263 0.37637 0.0
C3504 C 0.74253 0.34187 0.3781 0.0
C3505 C 0.74151 0.35163 0.39565 0.0
C3506 C 0.74392 0.31031 0.3238 0.0
C3507 C 0.75666 0.29886 0.32376 0.0
C3508 C 0.73861 0.31722 0.34081 0.0
C3509 C 0.74616 0.31309 0.35818 0.0
C3510 C 0.75834 0.301 0.35805 0.0
C3511 C 0.76343 0.29384 0.34096 0.0
H3512 H 0.45148 0.00467 0.22454 0.0
H3513 H 0.42384 0.03897 0.19244 0.0
H3514 H 0.46851 0.99842 0.19783 0.0
H3515 H 0.44043 0.03235 0.1655 0.0
H3516 H 0.48993 0.03669 0.13116 0.0
H3517 H 0.47222 0.04125 0.15765 0.0
H3518 H 0.46509 0.98245 0.16594 0.0
H3519 H 0.4834 0.97813 0.1396 0.0
C3520 C 0.44883 0.01059 0.21162 0.0
C3521 C 0.43645 0.02236 0.21051 0.0
C3522 C 0.45853 0.00699 0.19632 0.0
C3523 C 0.45592 0.01499 0.1796 0.0
C3524 C 0.44307 0.02631 0.17834 0.0
C3525 C 0.43351 0.03005 0.19369 0.0
C3526 C 0.48451 0.02475 0.13864 0.0
C3527 C 0.48786 0.00703 0.13333 0.0
C3528 C 0.47429 0.02731 0.15373 0.0
C3529 C 0.46703 0.01215 0.16374 0.0
C3530 C 0.47062 0.99445 0.15859 0.0
C3531 C 0.48105 0.99194 0.14354 0.0
H3532 H 0.80139 0.76336 0.93086 0.0
H3533 H 0.76866 0.70698 0.90579 0.0
H3534 H 0.80248 0.77328 0.89928 0.0
H3535 H 0.77027 0.71652 0.87431 0.0
H3536 H 0.75776 0.74317 0.822 0.0
H3537 H 0.75811 0.73367 0.85345 0.0
H3538 H 0.81435 0.77203 0.86982 0.0
H3539 H 0.81359 0.78217 0.83831 0.0
C3540 C 0.7946 0.75301 0.91859 0.0
C3541 C 0.78473 0.73442 0.92096 0.0
C3542 C 0.79528 0.75867 0.90039 0.0
C3543 C 0.78632 0.74583 0.88398 0.0
C3544 C 0.77692 0.72708 0.88644 0.0
C3545 C 0.77603 0.72153 0.90459 0.0
C3546 C 0.77029 0.74957 0.83222 0.0
C3547 C 0.78567 0.76346 0.82745 0.0
C3548 C 0.77055 0.74399 0.85038 0.0
C3549 C 0.78631 0.75191 0.86445 0.0
C3550 C 0.80181 0.76572 0.85961 0.0
C3551 C 0.80146 0.77145 0.84142 0.0
H3552 H 0.86028 0.1024 0.99045 0.0
H3553 H 0.83166 0.06369 0.02664 0.0
H3554 H 0.88001 0.08119 0.98282 0.0
H3555 H 0.85036 0.04187 0.0179 0.0
H3556 H 0.90631 0.02403 0.02112 0.0
H3557 H 0.88231 0.04115 0.0254 0.0
H3558 H 0.88129 0.05137 0.96682 0.0
H3559 H 0.9059 0.03464 0.9628 0.0
C3560 C 0.85807 0.0893 0.99664 0.0
C3561 C 0.84451 0.08487 0.00931 0.0
C3562 C 0.86916 0.07696 0.992 0.0
C3563 C 0.86681 0.05984 -0.00021 0.0
C3564 C 0.85273 0.05508 0.01187 0.0
C3565 C 0.84182 0.0675 0.01668 0.0
C3566 C 0.90064 0.02957 0.00905 0.0
C3567 C 0.90793 0.02806 0.99164 0.0
C3568 C 0.88685 0.03937 0.01147 0.0
C3569 C 0.87991 0.04771 0.99646 0.0
C3570 C 0.88659 0.04541 0.97876 0.0
C3571 C 0.90057 0.03576 0.97641 0.0
H3572 H 0.37612 0.46948 0.05658 0.0
H3573 H 0.38672 0.42734 0.01497 0.0
H3574 H 0.4086 0.4893 0.05673 0.0
H3575 H 0.41847 0.44746 0.0143 0.0
H3576 H 0.48019 0.47628 0.02986 0.0
H3577 H 0.44838 0.45781 0.03322 0.0
H3578 H 0.42935 0.50905 0.03788 0.0
H3579 H 0.46172 0.5278 0.03516 0.0
C3580 C 0.38533 0.46443 0.04747 0.0
C3581 C 0.37871 0.44678 0.03574 0.0
C3582 C 0.40388 0.47591 0.04739 0.0
C3583 C 0.41625 0.46998 0.0356 0.0
C3584 C 0.40954 0.45239 0.02383 0.0
C3585 C 0.39113 0.44093 0.02399 0.0
C3586 C 0.46927 0.48368 0.03167 0.0
C3587 C 0.47344 0.5035 0.03198 0.0
C3588 C 0.45095 0.47304 0.0335 0.0
C3589 C 0.43613 0.48184 0.03545 0.0
C3590 C 0.44042 0.50179 0.03647 0.0
C3591 C 0.45894 0.51254 0.03484 0.0
H3592 H 0.3533 0.5901 0.78289 0.0
H3593 H 0.39509 0.62973 0.75773 0.0
H3594 H 0.3337 0.61238 0.78433 0.0
H3595 H 0.37508 0.65173 0.75847 0.0
H3596 H 0.34388 0.69479 0.78198 0.0
H3597 H 0.36392 0.67286 0.78021 0.0
H3598 H 0.31369 0.62567 0.7642 0.0
H3599 H 0.29367 0.64759 0.76598 0.0
C3600 C 0.35837 0.60359 0.7777 0.0
C3601 C 0.37587 0.60807 0.77024 0.0
C3602 C 0.34697 0.6163 0.7783 0.0
C3603 C 0.35271 0.63389 0.77146 0.0
C3604 C 0.37024 0.63841 0.76404 0.0
C3605 C 0.38164 0.62567 0.76341 0.0
C3606 C 0.3371 0.67976 0.77787 0.0
C3607 C 0.3171 0.67301 0.77418 0.0
C3608 C 0.34862 0.66716 0.77686 0.0
C3609 C 0.34048 0.64743 0.77213 0.0
C3610 C 0.32049 0.64071 0.76824 0.0
C3611 C 0.30898 0.65331 0.76925 0.0
H3612 H 0.18196 0.62284 0.55538 0.0
H3613 H 0.19286 0.56852 0.53916 0.0
H3614 H 0.14776 0.60791 0.54924 0.0
H3615 H 0.15867 0.55374 0.53225 0.0
H3616 H 0.09613 0.53079 0.54077 0.0
H3617 H 0.13028 0.54521 0.54784 0.0
H3618 H 0.12388 0.59404 0.52172 0.0
H3619 H 0.08954 0.57979 0.51499 0.0
C3620 C 0.17705 0.60767 0.55071 0.0
C3621 C 0.1901 0.59684 0.54777 0.0
C3622 C 0.15747 0.59918 0.5469 0.0
C3623 C 0.15053 0.57969 0.54008 0.0
C3624 C 0.16357 0.56877 0.53759 0.0
C3625 C 0.18315 0.57725 0.54141 0.0
C3626 C 0.10199 0.54456 0.53641 0.0
C3627 C 0.09011 0.55419 0.52736 0.0
C3628 C 0.12158 0.55279 0.54043 0.0
C3629 C 0.12975 0.5708 0.53543 0.0
C3630 C 0.11794 0.58028 0.52604 0.0
C3631 C 0.0983 0.57206 0.52205 0.0
H3632 H 0.73057 0.95158 0.73866 0.0
H3633 H 0.72872 0.97248 0.79715 0.0
H3634 H 0.75442 0.93556 0.74879 0.0
H3635 H 0.75285 0.95673 0.80735 0.0
H3636 H 0.77205 0.90183 0.8154 0.0
H3637 H 0.75378 0.92426 0.80852 0.0
H3638 H 0.78695 0.94017 0.76296 0.0
H3639 H 0.80506 0.91738 0.76972 0.0
C3640 C 0.73548 0.95292 0.75366 0.0
C3641 C 0.72769 0.96303 0.76714 0.0
C3642 C 0.74923 0.94389 0.75948 0.0
C3643 C 0.75555 0.94492 0.77889 0.0
C3644 C 0.74809 0.95548 0.79233 0.0
C3645 C 0.73425 0.96441 0.78651 0.0
C3646 C 0.77581 0.91053 0.80429 0.0
C3647 C 0.78983 0.90779 0.79298 0.0
C3648 C 0.76534 0.92338 0.80032 0.0
C3649 C 0.76875 0.93379 0.78502 0.0
C3650 C 0.78373 0.93203 0.77458 0.0
C3651 C 0.79414 0.91909 0.77849 0.0
H3652 H 0.68257 0.91578 0.54231 0.0
H3653 H 0.71962 0.95334 0.51088 0.0
H3654 H 0.66056 0.93584 0.54143 0.0
H3655 H 0.6974 0.97305 0.50953 0.0
H3656 H 0.66421 0.01525 0.52881 0.0
H3657 H 0.68594 0.99507 0.53039 0.0
H3658 H 0.63802 0.94512 0.51919 0.0
H3659 H 0.61623 0.9653 0.51741 0.0
C3660 C 0.68604 0.92831 0.53522 0.0
C3661 C 0.70291 0.93291 0.52667 0.0
C3662 C 0.67332 0.93972 0.53455 0.0
C3663 C 0.67719 0.95611 0.52543 0.0
C3664 C 0.69404 0.96068 0.51687 0.0
C3665 C 0.70669 0.94923 0.51745 0.0
C3666 C 0.65826 0.99997 0.52652 0.0
C3667 C 0.63839 0.99197 0.5229 0.0
C3668 C 0.67076 0.98838 0.52744 0.0
C3669 C 0.66378 0.96844 0.52484 0.0
C3670 C 0.64391 0.96042 0.52149 0.0
C3671 C 0.6314 0.97202 0.5205 0.0
H3672 H 0.38366 0.42344 0.77794 0.0
H3673 H 0.3397 0.43519 0.74003 0.0
H3674 H 0.3635 0.39186 0.7787 0.0
H3675 H 0.31984 0.40284 0.7398 0.0
H3676 H 0.28212 0.34963 0.76123 0.0
H3677 H 0.30095 0.38187 0.75862 0.0
H3678 H 0.35193 0.36222 0.75987 0.0
H3679 H 0.33338 0.33056 0.76323 0.0
C3680 C 0.36966 0.41932 0.76974 0.0
C3681 C 0.36333 0.43204 0.75904 0.0
C3682 C 0.35816 0.40099 0.76992 0.0
C3683 C 0.34003 0.39461 0.75916 0.0
C3684 C 0.33364 0.40726 0.74838 0.0
C3685 C 0.34515 0.42576 0.74832 0.0
C3686 C 0.29734 0.35227 0.76084 0.0
C3687 C 0.3063 0.33763 0.76274 0.0
C3688 C 0.30814 0.37072 0.75927 0.0
C3689 C 0.32807 0.37481 0.75935 0.0
C3690 C 0.33676 0.35985 0.76035 0.0
C3691 C 0.32607 0.3416 0.76218 0.0
H3692 H 0.24819 0.62917 0.2699 0.0
H3693 H 0.22527 0.63352 0.21296 0.0
H3694 H 0.26324 0.66304 0.27505 0.0
H3695 H 0.23925 0.66779 0.21869 0.0
H3696 H 0.2748 0.72915 0.232 0.0
H3697 H 0.26698 0.69459 0.22467 0.0
H3698 H 0.24996 0.68929 0.28063 0.0
H3699 H 0.25833 0.72367 0.28813 0.0
C3700 C 0.24666 0.63723 0.25829 0.0
C3701 C 0.23529 0.62859 0.24106 0.0
C3702 C 0.25505 0.65677 0.2614 0.0
C3703 C 0.25203 0.66818 0.24747 0.0
C3704 C 0.24182 0.65941 0.22974 0.0
C3705 C 0.23362 0.63978 0.22653 0.0
C3706 C 0.26944 0.72057 0.24273 0.0
C3707 C 0.26713 0.7291 0.26063 0.0
C3708 C 0.26494 0.70078 0.23852 0.0
C3709 C 0.25797 0.68918 0.25209 0.0
C3710 C 0.25572 0.69779 0.26999 0.0
C3711 C 0.26034 0.71752 0.27424 0.0
H3712 H 0.48045 0.65921 0.47215 0.0
H3713 H 0.54003 0.68541 0.49172 0.0
H3714 H 0.48355 0.62964 0.48292 0.0
H3715 H 0.54334 0.65561 0.5016 0.0
H3716 H 0.54189 0.60382 0.5325 0.0
H3717 H 0.53779 0.63375 0.52328 0.0
H3718 H 0.49469 0.60257 0.47746 0.0
H3719 H 0.49848 0.57271 0.48705 0.0
C3720 C 0.49426 0.65884 0.47879 0.0
C3721 C 0.50994 0.67514 0.48089 0.0
C3722 C 0.49612 0.64157 0.4848 0.0
C3723 C 0.51376 0.63976 0.49322 0.0
C3724 C 0.5294 0.65612 0.49546 0.0
C3725 C 0.52753 0.67337 0.48946 0.0
C3726 C 0.53143 0.60328 0.52052 0.0
C3727 C 0.52053 0.58555 0.51065 0.0
C3728 C 0.52916 0.62061 0.51505 0.0
C3729 C 0.5159 0.62102 0.49943 0.0
C3730 C 0.50488 0.60323 0.4897 0.0
C3731 C 0.50714 0.5859 0.49518 0.0
H3732 H 0.63485 0.28924 0.70159 0.0
H3733 H 0.66985 0.30951 0.65877 0.0
H3734 H 0.66283 0.28609 0.72101 0.0
H3735 H 0.69805 0.30665 0.67846 0.0
H3736 H 0.74019 0.27881 0.7108 0.0
H3737 H 0.7127 0.28243 0.69058 0.0
H3738 H 0.69204 0.30551 0.73999 0.0
H3739 H 0.71929 0.30186 0.7601 0.0
C3740 C 0.64852 0.29304 0.69628 0.0
C3741 C 0.64996 0.29961 0.67851 0.0
C3742 C 0.66466 0.29139 0.70754 0.0
C3743 C 0.68282 0.29611 0.70139 0.0
C3744 C 0.68432 0.30271 0.68363 0.0
C3745 C 0.66815 0.30456 0.67241 0.0
C3746 C 0.7298 0.28465 0.71737 0.0
C3747 C 0.73207 0.28997 0.73718 0.0
C3748 C 0.71405 0.28685 0.70573 0.0
C3749 C 0.70001 0.29422 0.71359 0.0
C3750 C 0.70235 0.29955 0.73338 0.0
C3751 C 0.71812 0.29753 0.74496 0.0
H3752 H 0.0369 0.37728 0.00077 0.0
H3753 H 0.98329 0.37136 0.96657 0.0
H3754 H 0.03948 0.41081 0.01022 0.0
H3755 H 0.98597 0.40499 0.97576 0.0
H3756 H 0.98848 0.46396 0.00734 0.0
H3757 H 0.98482 0.42985 0.9991 0.0
H3758 H 0.04588 0.44076 0.00047 0.0
H3759 H 0.0495 0.47446 0.00922 0.0
C3760 C 0.02568 0.3831 0.9951 0.0
C3761 C 0.00988 0.37131 0.98282 0.0
C3762 C 0.02718 0.40252 0.00052 0.0
C3763 C 0.01301 0.41104 0.99377 0.0
C3764 C 0.99711 0.39918 0.98161 0.0
C3765 C 0.99557 0.37972 0.97627 0.0
C3766 C 1.00113 0.45908 0.00593 0.0
C3767 C 0.01929 0.47222 0.00906 0.0
C3768 C 0.99904 0.4394 0.00106 0.0
C3769 C 0.01504 0.43215 0.99909 0.0
C3770 C 0.03315 0.4454 0.00216 0.0
C3771 C 0.03523 0.46497 0.00709 0.0
H3772 H 0.99343 0.80298 0.20093 0.0
H3773 H 0.9535 0.77759 0.15077 0.0
H3774 H 0.96697 0.80063 0.21985 0.0
H3775 H 0.92709 0.77489 0.16975 0.0
H3776 H 0.88363 0.79168 0.20615 0.0
H3777 H 0.91011 0.79464 0.18732 0.0
H3778 H 0.94261 0.77654 0.23186 0.0
H3779 H 0.91603 0.77316 0.25056 0.0
C3780 C 0.97902 0.79696 0.1939 0.0
C3781 C 0.97568 0.79047 0.17427 0.0
C3782 C 0.96382 0.79543 0.2048 0.0
C3783 C 0.94482 0.78755 0.19638 0.0
C3784 C 0.94148 0.7812 0.17673 0.0
C3785 C 0.95668 0.78257 0.16586 0.0
C3786 C 0.8963 0.78811 0.21191 0.0
C3787 C 0.8975 0.78214 0.23 0.0
C3788 C 0.91156 0.78986 0.20108 0.0
C3789 C 0.92857 0.78584 0.20802 0.0
C3790 C 0.92987 0.78003 0.22613 0.0
C3791 C 0.91457 0.77814 0.23691 0.0
H3792 H 0.49337 0.34411 0.12447 0.0
H3793 H 0.54663 0.33551 0.1092 0.0
H3794 H 0.49715 0.37077 0.10628 0.0
H3795 H 0.54987 0.36144 0.09019 0.0
H3796 H 0.56091 0.4211 0.07357 0.0
H3797 H 0.55694 0.39489 0.09233 0.0
H3798 H 0.49611 0.37951 0.07522 0.0
H3799 H 0.50012 0.40599 0.05666 0.0
C3800 C 0.5059 0.34785 0.11725 0.0
C3801 C 0.5197 0.33752 0.11847 0.0
C3802 C 0.50795 0.36306 0.10655 0.0
C3803 C 0.52384 0.36844 0.09665 0.0
C3804 C 0.53756 0.35801 0.09777 0.0
C3805 C 0.53554 0.34286 0.10851 0.0
C3806 C 0.54668 0.41207 0.07368 0.0
C3807 C 0.53086 0.41571 0.06347 0.0
C3808 C 0.54439 0.39693 0.08446 0.0
C3809 C 0.52619 0.38484 0.08532 0.0
C3810 C 0.51034 0.38858 0.0752 0.0
C3811 C 0.51263 0.40381 0.06449 0.0
H3812 H 0.92942 0.27336 0.2948 0.0
H3813 H 0.93364 0.32382 0.33384 0.0
H3814 H 0.89587 0.27084 0.28537 0.0
H3815 H 0.90003 0.32119 0.32462 0.0
H3816 H 0.84212 0.3208 0.29291 0.0
H3817 H 0.87611 0.32414 0.3015 0.0
H3818 H 0.86523 0.26298 0.29439 0.0
H3819 H 0.83156 0.25972 0.28531 0.0
C3820 C 0.92322 0.28388 0.30153 0.0
C3821 C 0.93454 0.29882 0.31515 0.0
C3822 C 0.9038 0.28241 0.29612 0.0
C3823 C 0.89484 0.29575 0.30418 0.0
C3824 C 0.90622 0.31075 0.31774 0.0
C3825 C 0.92566 0.31227 0.32309 0.0
C3826 C 0.84697 0.30806 0.29315 0.0
C3827 C 0.83387 0.28999 0.28831 0.0
C3828 C 0.86658 0.30996 0.29822 0.0
C3829 C 0.8738 0.29386 0.29869 0.0
C3830 C 0.86059 0.27582 0.29392 0.0
C3831 C 0.84106 0.27393 0.2888 0.0
H3832 H 0.0096 0.67282 0.59109 0.0
H3833 H 0.01558 0.64581 0.64123 0.0
H3834 H 0.013 0.64486 0.57151 0.0
H3835 H 0.01866 0.61767 0.62166 0.0
H3836 H 0.0425 0.57726 0.58338 0.0
H3837 H 0.03885 0.60502 0.60322 0.0
H3838 H 0.99839 0.61299 0.5588 0.0
H3839 H 1.00254 0.58569 0.53883 0.0
C3840 C 0.01137 0.66082 0.59795 0.0
C3841 C 0.0123 0.66171 0.61783 0.0
C3842 C 0.01332 0.64467 0.58668 0.0
C3843 C 0.01614 0.62878 0.59486 0.0
C3844 C 0.01689 0.62963 0.61474 0.0
C3845 C 0.01505 0.64583 0.62603 0.0
C3846 C 0.03282 0.58493 0.57783 0.0
C3847 C 0.0229 0.57917 0.55939 0.0
C3848 C 0.0306 0.60086 0.5893 0.0
C3849 C 0.01833 0.61151 0.58273 0.0
C3850 C 0.00826 0.60553 0.56435 0.0
C3851 C 0.01054 0.58969 0.55287 0.0
H3852 H 0.62605 0.79723 0.78766 0.0
H3853 H 0.65277 0.80875 0.84577 0.0
H3854 H 0.65597 0.79413 0.77698 0.0
H3855 H 0.68261 0.80574 0.8351 0.0
H3856 H 0.73922 0.8157 0.81019 0.0
H3857 H 0.7092 0.81949 0.82004 0.0
H3858 H 0.67812 0.77547 0.77488 0.0
H3859 H 0.70823 0.77196 0.76483 0.0
C3860 C 0.63818 0.79899 0.79827 0.0
C3861 C 0.6366 0.80335 0.81772 0.0
C3862 C 0.65553 0.79719 0.79208 0.0
C3863 C 0.67211 0.7997 0.80504 0.0
C3864 C 0.67051 0.80404 0.82447 0.0
C3865 C 0.65318 0.80581 0.83066 0.0
C3866 C 0.72602 0.80686 0.80224 0.0
C3867 C 0.72643 0.79352 0.78661 0.0
C3868 C 0.70863 0.80893 0.80803 0.0
C3869 C 0.69085 0.79776 0.79845 0.0
C3870 C 0.69129 0.78458 0.78264 0.0
C3871 C 0.7087 0.78248 0.77686 0.0
H3872 H 0.50016 0.56283 0.67683 0.0
H3873 H 0.45471 0.51248 0.65504 0.0
H3874 H 0.5104 0.56396 0.64539 0.0
H3875 H 0.46541 0.51321 0.6237 0.0
H3876 H 0.47925 0.52974 0.56516 0.0
H3877 H 0.46766 0.53015 0.59624 0.0
H3878 H 0.52577 0.54762 0.62369 0.0
H3879 H 0.53727 0.54753 0.59288 0.0
C3880 C 0.49229 0.55199 0.66536 0.0
C3881 C 0.47658 0.53753 0.66867 0.0
C3882 C 0.49831 0.55252 0.64728 0.0
C3883 C 0.48882 0.53864 0.63184 0.0
C3884 C 0.47301 0.52427 0.6351 0.0
C3885 C 0.46702 0.5237 0.65322 0.0
C3886 C 0.48955 0.53383 0.57782 0.0
C3887 C 0.50924 0.53863 0.57636 0.0
C3888 C 0.48289 0.53391 0.59571 0.0
C3889 C 0.49573 0.53891 0.61264 0.0
C3890 C 0.51538 0.54395 0.61109 0.0
C3891 C 0.52201 0.54379 0.5933 0.0
H3892 H 0.80414 0.21237 0.9572 0.0
H3893 H 0.76925 0.2405 0.98893 0.0
H3894 H 0.79694 0.22755 0.92971 0.0
H3895 H 0.76188 0.25557 0.96123 0.0
H3896 H 0.76932 0.29044 0.90928 0.0
H3897 H 0.77804 0.27882 0.93881 0.0
H3898 H 0.76489 0.22181 0.90888 0.0
H3899 H 0.7557 0.23318 0.87957 0.0
C3900 C 0.79529 0.22214 0.95843 0.0
C3901 C 0.78718 0.22523 0.97513 0.0
C3902 C 0.79101 0.23064 0.94266 0.0
C3903 C 0.77867 0.24247 0.94336 0.0
C3904 C 0.77143 0.24648 0.96038 0.0
C3905 C 0.77557 0.23782 0.97614 0.0
C3906 C 0.76795 0.27538 0.90909 0.0
C3907 C 0.762 0.26274 0.89207 0.0
C3908 C 0.77305 0.26879 0.92594 0.0
C3909 C 0.77244 0.24953 0.92595 0.0
C3910 C 0.7659 0.23682 0.9091 0.0
C3911 C 0.76064 0.24333 0.89236 0.0
H3912 H 0.12018 0.51903 0.14744 0.0
H3913 H 0.06925 0.50373 0.17482 0.0
H3914 H 0.10096 0.51704 0.1175 0.0
H3915 H 0.04967 0.50052 0.14427 0.0
H3916 H 0.02626 0.52669 0.09283 0.0
H3917 H 0.04137 0.52097 0.12291 0.0
H3918 H 0.08021 0.49714 0.09247 0.0
H3919 H 0.0659 0.50405 0.06284 0.0
C3920 C 0.1048 0.515 0.14698 0.0
C3921 C 0.09624 0.51186 0.16355 0.0
C3922 C 0.09371 0.51353 0.1297 0.0
C3923 C 0.0737 0.50856 0.12839 0.0
C3924 C 0.06505 0.50458 0.14482 0.0
C3925 C 0.07624 0.50622 0.16227 0.0
C3926 C 0.03787 0.52 0.0927 0.0
C3927 C 0.04526 0.51615 0.07576 0.0
C3928 C 0.04645 0.5166 0.10986 0.0
C3929 C 0.06229 0.50895 0.11017 0.0
C3930 C 0.06848 0.50363 0.09286 0.0
C3931 C 0.06025 0.50747 0.07587 0.0
H3932 H 0.79238 0.85691 0.42439 0.0
H3933 H 0.7767 0.79849 0.43504 0.0
H3934 H 0.79379 0.84642 0.39122 0.0
H3935 H 0.77774 0.78791 0.40145 0.0
H3936 H 0.79961 0.77854 0.34212 0.0
H3937 H 0.8 0.78801 0.37629 0.0
H3938 H 0.77103 0.83044 0.36355 0.0
H3939 H 0.77071 0.82122 0.32987 0.0
C3940 C 0.78935 0.84179 0.41972 0.0
C3941 C 0.78447 0.82859 0.43256 0.0
C3942 C 0.78999 0.83575 0.40057 0.0
C3943 C 0.78582 0.81628 0.39353 0.0
C3944 C 0.78118 0.80301 0.40636 0.0
C3945 C 0.78038 0.80908 0.42559 0.0
C3946 C 0.79344 0.78996 0.34665 0.0
C3947 C 0.78521 0.79912 0.33311 0.0
C3948 C 0.79352 0.79529 0.36624 0.0
C3949 C 0.78562 0.81008 0.37276 0.0
C3950 C 0.7775 0.8192 0.35917 0.0
C3951 C 0.77725 0.8138 0.33973 0.0
H3952 H 0.45513 0.51605 0.87075 0.0
H3953 H 0.51332 0.54081 0.86179 0.0
H3954 H 0.46574 0.51444 0.90375 0.0
H3955 H 0.52398 0.53935 0.89512 0.0
H3956 H 0.53578 0.51583 0.95274 0.0
H3957 H 0.52632 0.51583 0.91875 0.0
H3958 H 0.47905 0.5377 0.93253 0.0
H3959 H 0.48837 0.53775 0.96608 0.0
C3960 C 0.47024 0.52102 0.87576 0.0
C3961 C 0.48334 0.52852 0.86348 0.0
C3962 C 0.47632 0.52024 0.89479 0.0
C3963 C 0.49574 0.52679 0.90219 0.0
C3964 C 0.50894 0.53404 0.88989 0.0
C3965 C 0.5028 0.53505 0.87082 0.0
C3966 C 0.52331 0.52051 0.94848 0.0
C3967 C 0.51285 0.52673 0.96225 0.0
C3968 C 0.51797 0.52066 0.929 0.0
C3969 C 0.50186 0.52671 0.92284 0.0
C3970 C 0.49138 0.53273 0.93665 0.0
C3971 C 0.49683 0.53283 0.95599 0.0
H3972 H 0.79948 0.18289 0.1597 0.0
H3973 H 0.82281 0.23223 0.13296 0.0
H3974 H 0.79517 0.20345 0.18718 0.0
H3975 H 0.81813 0.25293 0.16037 0.0
H3976 H 0.81488 0.28221 0.22191 0.0
H3977 H 0.82557 0.26438 0.19594 0.0
H3978 H 0.77126 0.22197 0.188 0.0
H3979 H 0.76075 0.23944 0.21372 0.0
C3980 C 0.80405 0.19818 0.15994 0.0
C3981 C 0.81128 0.20603 0.14426 0.0
C3982 C 0.80148 0.20993 0.17555 0.0
C3983 C 0.80587 0.22974 0.17564 0.0
C3984 C 0.8146 0.23771 0.16063 0.0
C3985 C 0.81731 0.2259 0.14501 0.0
C3986 C 0.80517 0.26925 0.21434 0.0
C3987 C 0.78707 0.26209 0.21992 0.0
C3988 C 0.81132 0.25902 0.19961 0.0
C3989 C 0.79943 0.24155 0.19036 0.0
C3990 C 0.78097 0.23508 0.19529 0.0
C3991 C 0.77489 0.24519 0.20992 0.0
H3992 H 0.10286 0.58183 0.32347 0.0
H3993 H 0.13905 0.55841 0.35979 0.0
H3994 H 0.08646 0.58923 0.35036 0.0
H3995 H 0.12231 0.56528 0.3865 0.0
H3996 H 0.09724 0.59064 0.43435 0.0
H3997 H 0.11612 0.5912 0.40787 0.0
H3998 H 0.06438 0.56915 0.36866 0.0
H3999 H 0.04556 0.56848 0.39504 0.0
C4000 C 0.10746 0.57849 0.33725 0.0
C4001 C 0.12213 0.56942 0.33954 0.0
C4002 C 0.09799 0.58259 0.35259 0.0
C4003 C 0.10307 0.57778 0.37049 0.0
C4004 C 0.11821 0.56934 0.37291 0.0
C4005 C 0.12763 0.56518 0.35758 0.0
C4006 C 0.08992 0.58608 0.42004 0.0
C4007 C 0.06994 0.57934 0.41677 0.0
C4008 C 0.10071 0.58641 0.40492 0.0
C4009 C 0.09172 0.58007 0.38624 0.0
C4010 C 0.07171 0.57433 0.38289 0.0
C4011 C 0.06092 0.57395 0.39801 0.0
H4012 H 0.74873 0.81186 0.62034 0.0
H4013 H 0.80078 0.85566 0.64074 0.0
H4014 H 0.74763 0.80229 0.65193 0.0
H4015 H 0.80003 0.84563 0.67223 0.0
H4016 H 0.78368 0.83388 0.73143 0.0
H4017 H 0.78336 0.84484 0.70023 0.0
H4018 H 0.76359 0.78656 0.67326 0.0
H4019 H 0.7636 0.77569 0.7042 0.0
C4020 C 0.75995 0.8195 0.63154 0.0
C4021 C 0.77487 0.83455 0.6278 0.0
C4022 C 0.75943 0.81387 0.6497 0.0
C4023 C 0.77377 0.82311 0.66479 0.0
C4024 C 0.78862 0.83826 0.66111 0.0
C4025 C 0.78918 0.84385 0.6429 0.0
C4026 C 0.7791 0.82342 0.71885 0.0
C4027 C 0.77364 0.80387 0.72048 0.0
C4028 C 0.77907 0.8297 0.7009 0.0
C4029 C 0.77346 0.81662 0.68407 0.0
C4030 C 0.76775 0.79712 0.68578 0.0
C4031 C 0.76787 0.79086 0.70365 0.0
H4032 H 0.72139 0.49275 0.54284 0.0
H4033 H 0.71226 0.49113 0.48195 0.0
H4034 H 0.70316 0.51612 0.54677 0.0
H4035 H 0.69462 0.51508 0.48592 0.0
H4036 H 0.63867 0.52853 0.50244 0.0
H4037 H 0.6631 0.51273 0.49571 0.0
H4038 H 0.70109 0.54848 0.54316 0.0
H4039 H 0.67649 0.56455 0.54989 0.0
C4040 C 0.71567 0.49757 0.53031 0.0
C4041 C 0.71798 0.4899 0.51208 0.0
C4042 C 0.70548 0.51117 0.53257 0.0
C4043 C 0.6974 0.51737 0.51664 0.0
C4044 C 0.70054 0.51042 0.49844 0.0
C4045 C 0.71074 0.49681 0.49618 0.0
C4046 C 0.65242 0.5335 0.51111 0.0
C4047 C 0.6556 0.54775 0.52678 0.0
C4048 C 0.66645 0.52439 0.50724 0.0
C4049 C 0.68398 0.52929 0.51897 0.0
C4050 C 0.6876 0.54425 0.53403 0.0
C4051 C 0.67353 0.55342 0.53789 0.0
H4052 H 0.18622 0.09873 0.52322 0.0
H4053 H 0.16303 0.13292 0.48678 0.0
H4054 H 0.15427 0.07906 0.52439 0.0
H4055 H 0.1313 0.11229 0.48663 0.0
H4056 H 0.07534 0.0875 0.5087 0.0
H4057 H 0.10734 0.10594 0.50597 0.0
H4058 H 0.12758 0.05571 0.50866 0.0
H4059 H 0.09549 0.03741 0.51235 0.0
C4060 C 0.17436 0.10205 0.51535 0.0
C4061 C 0.17738 0.11767 0.50508 0.0
C4062 C 0.15596 0.09049 0.51576 0.0
C4063 C 0.14001 0.09403 0.50569 0.0
C4064 C 0.1431 0.10926 0.49491 0.0
C4065 C 0.16146 0.12098 0.49472 0.0
C4066 C 0.08657 0.08031 0.50862 0.0
C4067 C 0.08281 0.06094 0.51076 0.0
C4068 C 0.105 0.09091 0.50691 0.0
C4069 C 0.12022 0.0824 0.507 0.0
C4070 C 0.11637 0.0629 0.50884 0.0
C4071 C 0.09792 0.05233 0.51082 0.0
H4072 H 0.16417 0.94013 0.7896 0.0
H4073 H 0.20154 0.97536 0.75658 0.0
H4074 H 0.18319 0.91724 0.78761 0.0
H4075 H 0.22067 0.95265 0.75476 0.0
H4076 H 0.23984 0.89927 0.73857 0.0
H4077 H 0.22035 0.92167 0.74054 0.0
H4078 H 0.2133 0.91234 0.79844 0.0
H4079 H 0.23264 0.88976 0.79636 0.0
C4080 C 0.17655 0.9431 0.78206 0.0
C4081 C 0.18125 0.95961 0.7732 0.0
C4082 C 0.1875 0.92996 0.78093 0.0
C4083 C 0.20352 0.93299 0.77098 0.0
C4084 C 0.20826 0.94958 0.76223 0.0
C4085 C 0.19727 0.96267 0.7633 0.0
C4086 C 0.23424 0.90208 0.75177 0.0
C4087 C 0.23788 0.89269 0.76731 0.0
C4088 C 0.22305 0.91498 0.75293 0.0
C4089 C 0.21523 0.91896 0.76968 0.0
C4090 C 0.2188 0.90948 0.7852 0.0
C4091 C 0.22993 0.89651 0.78402 0.0
H4092 H 0.36464 0.98244 0.02208 0.0
H4093 H 0.37558 0.93756 0.984 0.0
H4094 H 0.39839 0.99943 0.02592 0.0
H4095 H 0.4094 0.95435 0.9884 0.0
H4096 H 0.46965 0.97848 0.02176 0.0
H4097 H 0.43561 0.96271 0.01666 0.0
H4098 H 0.4236 0.01549 0.00575 0.0
H4099 H 0.45778 0.0314 0.01079 0.0
C4100 C 0.37416 0.9763 0.01434 0.0
C4101 C 0.36738 0.9586 0.00274 0.0
C4102 C 0.39349 0.98601 0.01662 0.0
C4103 C 0.40644 0.97813 0.00753 0.0
C4104 C 0.3997 0.9606 0.99577 0.0
C4105 C 0.38035 0.95098 0.99331 0.0
C4106 C 0.45978 0.98677 0.01832 0.0
C4107 C 0.46639 0.00619 0.01665 0.0
C4108 C 0.44031 0.97769 0.01527 0.0
C4109 C 0.42705 0.98788 0.01072 0.0
C4110 C 0.43358 0.00735 0.00931 0.0
C4111 C 0.45311 0.01641 0.01213 0.0
H4112 H 0.81217 0.59048 0.80885 0.0
H4113 H 0.85477 0.63652 0.79256 0.0
H4114 H 0.78894 0.60941 0.80696 0.0
H4115 H 0.83176 0.65549 0.79095 0.0
H4116 H 0.79121 0.69009 0.80317 0.0
H4117 H 0.8116 0.67042 0.81314 0.0
H4118 H 0.77415 0.62168 0.77701 0.0
H4119 H 0.75353 0.64138 0.76701 0.0
C4120 C 0.81661 0.6048 0.80527 0.0
C4121 C 0.83514 0.61216 0.80084 0.0
C4122 C 0.80337 0.61552 0.80411 0.0
C4123 C 0.80865 0.63385 0.79888 0.0
C4124 C 0.82744 0.64146 0.79523 0.0
C4125 C 0.84054 0.63063 0.79605 0.0
C4126 C 0.78696 0.67505 0.7978 0.0
C4127 C 0.7708 0.66724 0.78427 0.0
C4128 C 0.79872 0.66387 0.80341 0.0
C4129 C 0.79445 0.64465 0.79573 0.0
C4130 C 0.77763 0.63648 0.78319 0.0
C4131 C 0.76594 0.64774 0.7774 0.0
H4132 H 0.87171 0.65092 0.04682 0.0
H4133 H 0.83951 0.61269 0.99777 0.0
H4134 H 0.89403 0.63127 0.04917 0.0
H4135 H 0.862 0.59323 -7e-05 0.0
H4136 H 0.89331 0.55191 0.02386 0.0
H4137 H 0.87136 0.57177 0.02124 0.0
H4138 H 0.91887 0.62207 0.03173 0.0
H4139 H 0.94095 0.60223 0.03392 0.0
C4140 C 0.86938 0.63832 0.03655 0.0
C4141 C 0.85379 0.63339 0.02211 0.0
C4142 C 0.88228 0.62714 0.03779 0.0
C4143 C 0.87981 0.61065 0.02475 0.0
C4144 C 0.86423 0.60573 0.01031 0.0
C4145 C 0.85144 0.617 0.00896 0.0
C4146 C 0.89917 0.56718 0.02536 0.0
C4147 C 0.91901 0.57537 0.02906 0.0
C4148 C 0.88653 0.57859 0.02391 0.0
C4149 C 0.89333 0.59853 0.02626 0.0
C4150 C 0.91313 0.60676 0.03008 0.0
C4151 C 0.9258 0.59535 0.03138 0.0
H4152 H 0.16658 0.14715 0.78088 0.0
H4153 H 0.21625 0.12634 0.79159 0.0
H4154 H 0.18706 0.17875 0.77989 0.0
H4155 H 0.23681 0.15826 0.79144 0.0
H4156 H 0.26649 0.2129 0.7674 0.0
H4157 H 0.2471 0.18102 0.76988 0.0
H4158 H 0.20843 0.20542 0.79981 0.0
H4159 H 0.22747 0.23717 0.79694 0.0
C4160 C 0.18188 0.1493 0.78306 0.0
C4161 C 0.18972 0.13411 0.78623 0.0
C4162 C 0.19366 0.16753 0.78274 0.0
C4163 C 0.21364 0.17114 0.78564 0.0
C4164 C 0.22151 0.15599 0.78897 0.0
C4165 C 0.20969 0.13771 0.78928 0.0
C4166 C 0.25391 0.21146 0.77461 0.0
C4167 C 0.24851 0.22764 0.78186 0.0
C4168 C 0.24283 0.19316 0.77612 0.0
C4169 C 0.22609 0.19059 0.78493 0.0
C4170 C 0.221 0.20681 0.7926 0.0
C4171 C 0.23203 0.22506 0.79105 0.0
H4172 H 0.3536 0.94141 0.33284 0.0
H4173 H 0.31737 0.94544 0.28296 0.0
H4174 H 0.3393 0.90695 0.3289 0.0
H4175 H 0.30298 0.91109 0.2791 0.0
H4176 H 0.27253 0.85007 0.28737 0.0
H4177 H 0.28344 0.88455 0.29641 0.0
H4178 H 0.3419 0.88158 0.30134 0.0
H4179 H 0.33109 0.84716 0.29213 0.0
C4180 C 0.34225 0.93494 0.32134 0.0
C4181 C 0.33656 0.9459 0.30814 0.0
C4182 C 0.3342 0.91531 0.31902 0.0
C4183 C 0.32017 0.90648 0.30366 0.0
C4184 C 0.31371 0.91763 0.29112 0.0
C4185 C 0.32195 0.93719 0.29327 0.0
C4186 C 0.28771 0.85677 0.29049 0.0
C4187 C 0.301 0.846 0.28894 0.0
C4188 C 0.2939 0.87645 0.29565 0.0
C4189 C 0.31345 0.88558 0.29965 0.0
C4190 C 0.32672 0.87477 0.29854 0.0
C4191 C 0.32055 0.85515 0.2931 0.0
H4192 H 0.57647 0.39487 0.55136 0.0
H4193 H 0.53023 0.39438 0.58487 0.0
H4194 H 0.57355 0.42486 0.54113 0.0
H4195 H 0.52717 0.42397 0.5744 0.0
H4196 H 0.51223 0.46652 0.53766 0.0
H4197 H 0.51664 0.43717 0.5477 0.0
H4198 H 0.57757 0.45898 0.54986 0.0
H4199 H 0.57309 0.48861 0.53957 0.0
C4200 C 0.56573 0.40107 0.55672 0.0
C4201 C 0.55349 0.39164 0.56894 0.0
C4202 C 0.56404 0.41843 0.55077 0.0
C4203 C 0.54997 0.42708 0.55667 0.0
C4204 C 0.53793 0.41778 0.56906 0.0
C4205 C 0.53968 0.40055 0.57508 0.0
C4206 C 0.52665 0.46521 0.54021 0.0
C4207 C 0.54227 0.48026 0.53771 0.0
C4208 C 0.5292 0.44823 0.54617 0.0
C4209 C 0.54751 0.44541 0.54986 0.0
C4210 C 0.5632 0.46035 0.54711 0.0
C4211 C 0.56064 0.47749 0.54124 0.0
H4212 H 0.39669 0.78255 0.39493 0.0
H4213 H 0.41351 0.75236 0.34705 0.0
H4214 H 0.37028 0.78719 0.37445 0.0
H4215 H 0.38626 0.75574 0.32689 0.0
H4216 H 0.34785 0.78114 0.29005 0.0
H4217 H 0.37417 0.77676 0.31088 0.0
H4218 H 0.34018 0.77419 0.35735 0.0
H4219 H 0.31409 0.77944 0.33657 0.0
C4220 C 0.39483 0.77682 0.38005 0.0
C4221 C 0.40761 0.76717 0.37282 0.0
C4222 C 0.37934 0.77924 0.36826 0.0
C4223 C 0.37589 0.77194 0.34879 0.0
C4224 C 0.38845 0.76195 0.34165 0.0
C4225 C 0.40404 0.7597 0.35339 0.0
C4226 C 0.34594 0.77967 0.30472 0.0
C4227 C 0.32871 0.78068 0.31153 0.0
C4228 C 0.3611 0.77697 0.31673 0.0
C4229 C 0.35954 0.77494 0.33598 0.0
C4230 C 0.34224 0.77595 0.34278 0.0
C4231 C 0.32713 0.77887 0.33078 0.0
H4232 H 0.05196 0.69585 0.03793 0.0
H4233 H 0.04309 0.685 0.09503 0.0
H4234 H 0.04852 0.66192 0.02851 0.0
H4235 H 0.04024 0.65143 0.08581 0.0
H4236 H 0.01649 0.58916 0.05993 0.0
H4237 H 0.01975 0.62296 0.06831 0.0
H4238 H 0.06347 0.63609 0.03148 0.0
H4239 H 0.06001 0.60204 0.02286 0.0
C4240 C 0.04923 0.6863 0.0485 0.0
C4241 C 0.0479 0.69347 0.06733 0.0
C4242 C 0.04747 0.66676 0.04313 0.0
C4243 C 0.04409 0.65363 0.05632 0.0
C4244 C 0.04261 0.66083 0.07508 0.0
C4245 C 0.04449 0.68031 0.08046 0.0
C4246 C 0.0269 0.59917 0.05361 0.0
C4247 C 0.03805 0.5926 0.04073 0.0
C4248 C 0.02884 0.61873 0.05852 0.0
C4249 C 0.04196 0.63258 0.05072 0.0
C4250 C 0.05306 0.62602 0.03773 0.0
C4251 C 0.05118 0.60639 0.03287 0.0
H4252 H 0.0713 0.28936 0.85025 0.0
H4253 H 0.10162 0.26552 0.89183 0.0
H4254 H 0.09775 0.29263 0.83138 0.0
H4255 H 0.12776 0.26811 0.87258 0.0
H4256 H 0.17978 0.29407 0.84306 0.0
H4257 H 0.15361 0.29094 0.86235 0.0
H4258 H 0.11306 0.27412 0.81147 0.0
H4259 H 0.13917 0.27722 0.79222 0.0
C4260 C 0.0836 0.28484 0.85543 0.0
C4261 C 0.08421 0.27718 0.87265 0.0
C4262 C 0.09873 0.2865 0.84445 0.0
C4263 C 0.11498 0.28059 0.85035 0.0
C4264 C 0.11562 0.27299 0.86761 0.0
C4265 C 0.10047 0.27129 0.87857 0.0
C4266 C 0.16529 0.28952 0.83596 0.0
C4267 C 0.1617 0.28597 0.81599 0.0
C4268 C 0.15023 0.28772 0.84706 0.0
C4269 C 0.13111 0.28233 0.83854 0.0
C4270 C 0.12754 0.27865 0.81859 0.0
C4271 C 0.14258 0.28044 0.8075 0.0
H4272 H 0.54155 0.70643 0.90277 0.0
H4273 H 0.52602 0.73998 0.94904 0.0
H4274 H 0.53906 0.68029 0.92155 0.0
H4275 H 0.52273 0.71354 0.96749 0.0
H4276 H 0.53777 0.67015 0.00331 0.0
H4277 H 0.54088 0.6963 0.98449 0.0
H4278 H 0.5166 0.65618 0.93402 0.0
H4279 H 0.51355 0.63 0.95287 0.0
C4280 C 0.53764 0.7083 0.91696 0.0
C4281 C 0.53405 0.72547 0.92431 0.0
C4282 C 0.53596 0.69314 0.92768 0.0
C4283 C 0.53067 0.69467 0.94613 0.0
C4284 C 0.52706 0.71183 0.95347 0.0
C4285 C 0.52872 0.72698 0.94274 0.0
C4286 C 0.53293 0.66687 0.98822 0.0
C4287 C 0.52534 0.64785 0.9797 0.0
C4288 C 0.53471 0.68193 0.97739 0.0
C4289 C 0.52895 0.67849 0.95766 0.0
C4290 C 0.52147 0.65946 0.9491 0.0
C4291 C 0.51971 0.64438 0.95995 0.0
H4292 H 0.11511 0.73624 0.72239 0.0
H4293 H 0.12594 0.7972 0.7345 0.0
H4294 H 0.14872 0.73897 0.73187 0.0
H4295 H 0.1595 0.79988 0.74457 0.0
H4296 H 0.22229 0.80034 0.74176 0.0
H4297 H 0.18857 0.79749 0.73275 0.0
H4298 H 0.17367 0.74571 0.75803 0.0
H4299 H 0.2075 0.74843 0.76683 0.0
C4300 C 0.1246 0.75028 0.72708 0.0
C4301 C 0.11753 0.76649 0.7275 0.0
C4302 C 0.14398 0.75183 0.73276 0.0
C4303 C 0.15714 0.76967 0.73902 0.0
C4304 C 0.15004 0.78588 0.73964 0.0
C4305 C 0.13061 0.78431 0.73406 0.0
C4306 C 0.21189 0.78826 0.74537 0.0
C4307 C 0.21787 0.77458 0.75501 0.0
C4308 C 0.19239 0.78671 0.74031 0.0
C4309 C 0.17809 0.77137 0.74461 0.0
C4310 C 0.18409 0.75763 0.7542 0.0
C4311 C 0.20361 0.75924 0.75935 0.0
H4312 H 0.05351 0.3938 0.45197 0.0
H4313 H 0.03499 0.417 0.40277 0.0
H4314 H 0.05196 0.42206 0.47234 0.0
H4315 H 0.03258 0.44485 0.42323 0.0
H4316 H 0.04668 0.50095 0.46377 0.0
H4317 H 0.04998 0.47345 0.44318 0.0
H4318 H 0.02986 0.43724 0.48492 0.0
H4319 H 0.02702 0.4647 0.5056 0.0
C4320 C 0.04919 0.40493 0.44542 0.0
C4321 C 0.04437 0.40292 0.4256 0.0
C4322 C 0.04803 0.42112 0.4572 0.0
C4323 C 0.04202 0.43587 0.44958 0.0
C4324 C 0.03743 0.43398 0.42973 0.0
C4325 C 0.03859 0.41779 0.41795 0.0
C4326 C 0.04298 0.48713 0.46858 0.0
C4327 C 0.03661 0.48518 0.48645 0.0
C4328 C 0.04478 0.47126 0.45669 0.0
C4329 C 0.04024 0.45295 0.46228 0.0
C4330 C 0.03383 0.45106 0.48015 0.0
C4331 C 0.03206 0.46688 0.49202 0.0
H4332 H 0.42982 0.2851 0.24812 0.0
H4333 H 0.39889 0.23657 0.20757 0.0
H4334 H 0.40003 0.28799 0.25903 0.0
H4335 H 0.36898 0.23951 0.21846 0.0
H4336 H 0.3182 0.24085 0.25237 0.0
H4337 H 0.34822 0.23646 0.24251 0.0
H4338 H 0.37228 0.29734 0.25123 0.0
H4339 H 0.34272 0.30162 0.26139 0.0
C4340 C 0.4167 0.27508 0.24133 0.0
C4341 C 0.41712 0.26064 0.22676 0.0
C4342 C 0.39941 0.27675 0.24765 0.0
C4343 C 0.38171 0.2641 0.23966 0.0
C4344 C 0.38213 0.24946 0.22527 0.0
C4345 C 0.39946 0.24777 0.21896 0.0
C4346 C 0.32994 0.2533 0.2523 0.0
C4347 C 0.3278 0.27161 0.25784 0.0
C4348 C 0.34723 0.2508 0.24648 0.0
C4349 C 0.36305 0.26651 0.24602 0.0
C4350 C 0.36081 0.28476 0.25163 0.0
C4351 C 0.34361 0.28725 0.25741 0.0
H4352 H 0.56566 0.49784 0.37088 0.0
H4353 H 0.59273 0.55799 0.38551 0.0
H4354 H 0.55676 0.49651 0.40285 0.0
H4355 H 0.58294 0.55686 0.41703 0.0
H4356 H 0.579 0.54708 0.47819 0.0
H4357 H 0.58896 0.54674 0.44661 0.0
H4358 H 0.53615 0.50487 0.42396 0.0
H4359 H 0.52646 0.50482 0.45573 0.0
C4360 C 0.56974 0.51082 0.38085 0.0
C4361 C 0.57996 0.52803 0.37537 0.0
C4362 C 0.56439 0.5101 0.39922 0.0
C4363 C 0.56908 0.52657 0.41276 0.0
C4364 C 0.57925 0.54377 0.40725 0.0
C4365 C 0.58464 0.54448 0.38893 0.0
C4366 C 0.56953 0.53768 0.46653 0.0
C4367 C 0.55187 0.526 0.46965 0.0
C4368 C 0.5752 0.5376 0.44828 0.0
C4369 C 0.56334 0.52592 0.43247 0.0
C4370 C 0.54583 0.51394 0.43568 0.0
C4371 C 0.5402 0.51395 0.45398 0.0
H4372 H 0.29491 0.82209 0.05666 0.0
H4373 H 0.25228 0.83608 0.0894 0.0
H4374 H 0.30147 0.80147 0.07961 0.0
H4375 H 0.25828 0.81481 0.11165 0.0
H4376 H 0.26703 0.76926 0.14499 0.0
H4377 H 0.2581 0.77936 0.11475 0.0
H4378 H 0.31608 0.8127 0.11527 0.0
H4379 H 0.32491 0.80349 0.14575 0.0
C4380 C 0.2868 0.82064 0.06859 0.0
C4381 C 0.2733 0.83105 0.07136 0.0
C4382 C 0.29042 0.80867 0.08156 0.0
C4383 C 0.28034 0.80657 0.09729 0.0
C4384 C 0.26603 0.81598 0.09943 0.0
C4385 C 0.26262 0.82819 0.08667 0.0
C4386 C 0.27795 0.77854 0.13854 0.0
C4387 C 0.29659 0.78592 0.14805 0.0
C4388 C 0.27283 0.78418 0.1212 0.0
C4389 C 0.28637 0.79692 0.11288 0.0
C4390 C 0.30541 0.80274 0.12136 0.0
C4391 C 0.31046 0.79738 0.13885 0.0
H4392 H 0.937 0.55411 0.90002 0.0
H4393 H 0.97935 0.53762 0.86895 0.0
H4394 H 0.95621 0.55441 0.92986 0.0
H4395 H 0.99924 0.53884 0.89876 0.0
H4396 H 0.01695 0.5195 0.95526 0.0
H4397 H 1.00065 0.52193 0.92464 0.0
H4398 H 0.98378 0.57027 0.95032 0.0
H4399 H 0.99916 0.56705 0.98104 0.0
C4400 C 0.95064 0.5509 0.89966 0.0
C4401 C 0.95674 0.5458 0.88232 0.0
C4402 C 0.96174 0.55118 0.91672 0.0
C4403 C 0.97936 0.5467 0.91677 0.0
C4404 C 0.98562 0.54204 0.8993 0.0
C4405 C 0.97433 0.54143 0.88223 0.0
C4406 C 0.00992 0.53075 0.95425 0.0
C4407 C 0.00911 0.54296 0.97048 0.0
C4408 C 1.00064 0.53223 0.93669 0.0
C4409 C 0.99069 0.54618 0.935 0.0
C4410 C 0.99083 0.55902 0.95116 0.0
C4411 C 0.99976 0.55729 0.96874 0.0
H4412 H 0.28714 0.26748 0.6118 0.0
H4413 H 0.26413 0.20962 0.62233 0.0
H4414 H 0.28642 0.27877 0.64508 0.0
H4415 H 0.26255 0.22116 0.65518 0.0
H4416 H 0.24534 0.25156 0.70848 0.0
H4417 H 0.24508 0.24146 0.67456 0.0
H4418 H 0.30307 0.27566 0.67748 0.0
H4419 H 0.30348 0.28552 0.71135 0.0
C4420 C 0.28196 0.2571 0.62106 0.0
C4421 C 0.27566 0.23753 0.614 0.0
C4422 C 0.28144 0.26364 0.64019 0.0
C4423 C 0.2743 0.25089 0.6528 0.0
C4424 C 0.26783 0.23141 0.6458 0.0
C4425 C 0.26867 0.22482 0.6268 0.0
C4426 C 0.25798 0.25705 0.70186 0.0
C4427 C 0.27443 0.26934 0.71271 0.0
C4428 C 0.25787 0.25117 0.68244 0.0
C4429 C 0.27407 0.25773 0.67328 0.0
C4430 C 0.29031 0.27043 0.68402 0.0
C4431 C 0.29056 0.27601 0.70349 0.0
H4432 H 0.6005 0.55317 0.17329 0.0
H4433 H 0.54628 0.51573 0.18028 0.0
H4434 H 0.58865 0.55423 0.14041 0.0
H4435 H 0.53431 0.517 0.14739 0.0
H4436 H 0.52978 0.50492 0.08163 0.0
H4437 H 0.53982 0.50545 0.11523 0.0
H4438 H 0.56561 0.56591 0.12053 0.0
H4439 H 0.55556 0.56541 0.08672 0.0
C4440 C 0.58603 0.54515 0.16782 0.0
C4441 C 0.57441 0.53425 0.17948 0.0
C4442 C 0.57916 0.54593 0.14899 0.0
C4443 C 0.5605 0.5357 0.14115 0.0
C4444 C 0.5488 0.52495 0.15286 0.0
C4445 C 0.55562 0.52433 0.17179 0.0
C4446 C 0.53749 0.5184 0.08992 0.0
C4447 C 0.54187 0.53514 0.08134 0.0
C4448 C 0.54316 0.5187 0.10929 0.0
C4449 C 0.55357 0.53571 0.12069 0.0
C4450 C 0.55777 0.55251 0.11218 0.0
C4451 C 0.5519 0.55225 0.09279 0.0
H4452 H 0.21473 0.8456 0.89513 0.0
H4453 H 0.25678 0.82285 0.92396 0.0
H4454 H 0.21826 0.82851 0.86496 0.0
H4455 H 0.26075 0.80625 0.89392 0.0
H4456 H 0.26008 0.77278 0.83705 0.0
H4457 H 0.24856 0.78248 0.86657 0.0
H4458 H 0.24363 0.83443 0.8458 0.0
H4459 H 0.25449 0.82462 0.81639 0.0
C4460 C 0.2245 0.8367 0.89501 0.0
C4461 C 0.23555 0.8356 0.91178 0.0
C4462 C 0.2266 0.82699 0.87778 0.0
C4463 C 0.24001 0.81626 0.87701 0.0
C4464 C 0.25016 0.81421 0.89401 0.0
C4465 C 0.2479 0.82375 0.91124 0.0
C4466 C 0.25641 0.78621 0.8388 0.0
C4467 C 0.25832 0.79797 0.82443 0.0
C4468 C 0.24981 0.79175 0.85568 0.0
C4469 C 0.24508 0.80918 0.8585 0.0
C4470 C 0.24672 0.82073 0.84396 0.0
C4471 C 0.25319 0.81517 0.82714 0.0
H4472 H 0.98318 0.54484 0.73423 0.0
H4473 H 0.93528 0.52752 0.68983 0.0
H4474 H 1.00406 0.53732 0.71148 0.0
H4475 H 0.95605 0.51969 0.66732 0.0
H4476 H 0.99285 0.48977 0.63647 0.0
H4477 H 0.97478 0.49552 0.66245 0.0
H4478 H 0.01622 0.54944 0.68173 0.0
H4479 H 0.03455 0.54352 0.65589 0.0
C4480 C 0.97715 0.53962 0.7196 0.0
C4481 C 0.95757 0.53674 0.71381 0.0
C4482 C 0.98907 0.53521 0.70665 0.0
C4483 C 0.98158 0.52771 0.68776 0.0
C4484 C 0.96209 0.52507 0.68193 0.0
C4485 C 0.95023 0.52959 0.69479 0.0
C4486 C 0.99838 0.5026 0.64655 0.0
C4487 C 0.01502 0.51627 0.64413 0.0
C4488 C 0.98793 0.50599 0.66127 0.0
C4489 C 0.99399 0.52304 0.67388 0.0
C4490 C 0.01126 0.53617 0.67219 0.0
C4491 C 0.02167 0.53284 0.65738 0.0
H4492 H 0.31361 0.24578 0.42158 0.0
H4493 H 0.2523 0.2242 0.41116 0.0
H4494 H 0.3139 0.25516 0.38983 0.0
H4495 H 0.25253 0.23429 0.37981 0.0
H4496 H 0.25981 0.23636 0.31754 0.0
H4497 H 0.26081 0.22657 0.34903 0.0
H4498 H 0.30592 0.27738 0.37026 0.0
H4499 H 0.30518 0.28702 0.33856 0.0
C4500 C 0.30017 0.24303 0.41258 0.0
C4501 C 0.28293 0.23415 0.41912 0.0
C4502 C 0.30032 0.24863 0.39436 0.0
C4503 C 0.28325 0.24549 0.38204 0.0
C4504 C 0.26602 0.23675 0.38866 0.0
C4505 C 0.26587 0.23118 0.40686 0.0
C4506 C 0.27005 0.24545 0.32886 0.0
C4507 C 0.28239 0.26255 0.32538 0.0
C4508 C 0.27052 0.23987 0.34705 0.0
C4509 C 0.28332 0.25121 0.36242 0.0
C4510 C 0.29596 0.26814 0.35885 0.0
C4511 C 0.2955 0.27372 0.34061 0.0
H4512 H 0.37709 0.60818 0.51711 0.0
H4513 H 0.32893 0.56352 0.52687 0.0
H4514 H 0.3931 0.58442 0.50642 0.0
H4515 H 0.34521 0.53972 0.51646 0.0
H4516 H 0.39669 0.51171 0.52493 0.0
H4517 H 0.37455 0.53118 0.52975 0.0
H4518 H 0.39025 0.55776 0.48038 0.0
H4519 H 0.41268 0.53862 0.47581 0.0
C4520 C 0.36983 0.59329 0.51676 0.0
C4521 C 0.3518 0.58774 0.52294 0.0
C4522 C 0.37897 0.57968 0.51058 0.0
C4523 C 0.37032 0.56024 0.51053 0.0
C4524 C 0.35221 0.55463 0.51648 0.0
C4525 C 0.34299 0.56825 0.52255 0.0
C4526 C 0.3951 0.52145 0.51491 0.0
C4527 C 0.40651 0.52383 0.50013 0.0
C4528 C 0.38236 0.53249 0.51759 0.0
C4529 C 0.38092 0.54613 0.50557 0.0
C4530 C 0.39131 0.54751 0.48998 0.0
C4531 C 0.40397 0.53641 0.48725 0.0
H4532 H 0.89253 0.93733 0.56207 0.0
H4533 H 0.87009 0.96757 0.52086 0.0
H4534 H 0.92469 0.95759 0.56139 0.0
H4535 H 0.90224 0.98783 0.52019 0.0
H4536 H 0.96204 0.03027 0.5362 0.0
H4537 H 0.92988 0.0128 0.54124 0.0
H4538 H 0.94642 0.96026 0.5354 0.0
H4539 H 0.9783 0.97753 0.53023 0.0
C4540 C 0.89444 0.94851 0.55311 0.0
C4541 C 0.87883 0.95081 0.54145 0.0
C4542 C 0.91284 0.96001 0.55263 0.0
C4543 C 0.91597 0.97425 0.54069 0.0
C4544 C 0.90025 0.97707 0.52962 0.0
C4545 C 0.88189 0.96539 0.5299 0.0
C4546 C 0.95881 0.01502 0.53613 0.0
C4547 C 0.97267 0.00527 0.53269 0.0
C4548 C 0.94041 0.00503 0.53894 0.0
C4549 C 0.93566 0.98518 0.53875 0.0
C4550 C 0.94969 0.97556 0.53582 0.0
C4551 C 0.96792 0.98546 0.5327 0.0
H4552 H 0.88621 0.12196 0.29924 0.0
H4553 H 0.86189 0.10202 0.24083 0.0
H4554 H 0.86632 0.144 0.30128 0.0
H4555 H 0.84204 0.1241 0.24287 0.0
H4556 H 0.82216 0.17866 0.24785 0.0
H4557 H 0.84304 0.15753 0.2457 0.0
H4558 H 0.83344 0.14421 0.30201 0.0
H4559 H 0.81318 0.16584 0.30444 0.0
C4560 C 0.87654 0.12216 0.28685 0.0
C4561 C 0.87569 0.11011 0.26988 0.0
C4562 C 0.86511 0.13483 0.28803 0.0
C4563 C 0.85248 0.13585 0.27226 0.0
C4564 C 0.85177 0.12394 0.25523 0.0
C4565 C 0.86319 0.11125 0.25406 0.0
C4566 C 0.82465 0.17138 0.25986 0.0
C4567 C 0.81592 0.174 0.27632 0.0
C4568 C 0.83647 0.15907 0.25854 0.0
C4569 C 0.83996 0.14909 0.27367 0.0
C4570 C 0.83128 0.15178 0.29014 0.0
C4571 C 0.81944 0.16404 0.29145 0.0
H4572 H 0.67561 0.11703 0.01343 0.0
H4573 H 0.68635 0.08339 0.05715 0.0
H4574 H 0.64171 0.1007 0.00986 0.0
H4575 H 0.6525 0.06674 0.05337 0.0
H4576 H 0.58883 0.05701 0.05665 0.0
H4577 H 0.62273 0.07252 0.05961 0.0
H4578 H 0.61929 0.07037 0.99861 0.0
H4579 H 0.58512 0.05533 0.99566 0.0
C4580 C 0.67071 0.106 0.02215 0.0
C4581 C 0.68356 0.10148 0.0356 0.0
C4582 C 0.65132 0.0966 0.02006 0.0
C4583 C 0.6444 0.0824 0.03131 0.0
C4584 C 0.65732 0.07782 0.04469 0.0
C4585 C 0.67669 0.08733 0.04686 0.0
C4586 C 0.59528 0.05977 0.04383 0.0
C4587 C 0.58426 0.05496 0.02591 0.0
C4588 C 0.61477 0.06858 0.04554 0.0
C4589 C 0.62373 0.07267 0.02935 0.0
C4590 C 0.61275 0.06766 0.01139 0.0
C4591 C 0.5932 0.05894 0.00968 0.0
H4592 H 0.24528 0.48363 0.26122 0.0
H4593 H 0.21079 0.45884 0.30263 0.0
H4594 H 0.2673 0.46452 0.26797 0.0
H4595 H 0.23253 0.43929 0.3091 0.0
H4596 H 0.27946 0.41215 0.3237 0.0
H4597 H 0.26431 0.43808 0.32149 0.0
H4598 H 0.26481 0.43127 0.26066 0.0
H4599 H 0.28054 0.40604 0.26302 0.0
C4600 C 0.24245 0.47406 0.27178 0.0
C4601 C 0.22623 0.47243 0.28121 0.0
C4602 C 0.25504 0.46315 0.27566 0.0
C4603 C 0.25155 0.45026 0.28892 0.0
C4604 C 0.23574 0.44925 0.29896 0.0
C4605 C 0.22323 0.46032 0.29519 0.0
C4606 C 0.27676 0.41658 0.30996 0.0
C4607 C 0.28097 0.407 0.2935 0.0
C4608 C 0.26792 0.43126 0.30867 0.0
C4609 C 0.26321 0.43661 0.29089 0.0
C4610 C 0.26839 0.42765 0.2746 0.0
C4611 C 0.27721 0.41305 0.2759 0.0
H4612 H 0.18256 0.4181 0.04079 0.0
H4613 H 0.21808 0.4527 0.00582 0.0
H4614 H 0.16057 0.43809 0.03907 0.0
H4615 H 0.19577 0.47225 0.00356 0.0
H4616 H 0.16301 0.51561 0.02077 0.0
H4617 H 0.18494 0.49566 0.02295 0.0
H4618 H 0.1372 0.44573 0.01686 0.0
H4619 H 0.11523 0.46567 0.01458 0.0
C4620 C 0.1857 0.42997 0.03274 0.0
C4621 C 0.20214 0.43376 0.02345 0.0
C4622 C 0.17296 0.44132 0.03158 0.0
C4623 C 0.17636 0.45682 0.02118 0.0
C4624 C 0.19278 0.46058 0.01188 0.0
C4625 C 0.20547 0.4492 0.01298 0.0
C4626 C 0.15715 0.50037 0.01973 0.0
C4627 C 0.13729 0.49231 0.01746 0.0
C4628 C 0.16976 0.4889 0.02098 0.0
C4629 C 0.16288 0.46905 0.02004 0.0
C4630 C 0.14303 0.46098 0.01791 0.0
C4631 C 0.13041 0.47245 0.01662 0.0
H4632 H 0.83911 0.93633 0.24018 0.0
H4633 H 0.88332 0.92528 0.27833 0.0
H4634 H 0.81951 0.90389 0.24017 0.0
H4635 H 0.86344 0.89361 0.27925 0.0
H4636 H 0.83429 0.83216 0.26356 0.0
H4637 H 0.85232 0.86397 0.26009 0.0
H4638 H 0.80085 0.88274 0.25931 0.0
H4639 H 0.78252 0.85032 0.26207 0.0
C4640 C 0.84467 0.92704 0.24857 0.0
C4641 C 0.86284 0.93354 0.25928 0.0
C4642 C 0.83331 0.9085 0.24874 0.0
C4643 C 0.83987 0.89601 0.25962 0.0
C4644 C 0.85798 0.90262 0.2704 0.0
C4645 C 0.86932 0.921 0.27013 0.0
C4646 C 0.82675 0.84302 0.26258 0.0
C4647 C 0.807 0.83876 0.26335 0.0
C4648 C 0.83714 0.86136 0.2607 0.0
C4649 C 0.82817 0.87612 0.25982 0.0
C4650 C 0.80824 0.87173 0.25989 0.0
C4651 C 0.79774 0.85319 0.26153 0.0
H4652 H 0.69163 0.13309 0.74489 0.0
H4653 H 0.74669 0.1235 0.76025 0.0
H4654 H 0.70597 0.1673 0.75084 0.0
H4655 H 0.76088 0.15774 0.76707 0.0
H4656 H 0.78251 0.21967 0.75685 0.0
H4657 H 0.76872 0.18547 0.7509 0.0
H4658 H 0.71971 0.19195 0.77765 0.0
H4659 H 0.7333 0.22635 0.78322 0.0
C4660 C 0.70683 0.13829 0.74939 0.0
C4661 C 0.71805 0.12561 0.75204 0.0
C4662 C 0.71498 0.15788 0.75309 0.0
C4663 C 0.73451 0.16521 0.75958 0.0
C4664 C 0.7458 0.15253 0.76197 0.0
C4665 C 0.73765 0.13293 0.75821 0.0
C4666 C 0.76884 0.21383 0.76158 0.0
C4667 C 0.75895 0.22574 0.77045 0.0
C4668 C 0.76098 0.1942 0.75823 0.0
C4669 C 0.7431 0.18602 0.76373 0.0
C4670 C 0.73338 0.19788 0.77296 0.0
C4671 C 0.74122 0.21756 0.77628 0.0
loop_
_geom_bond_atom_site_label_1
_geom_bond_atom_site_label_2
_geom_bond_distance
_geom_bond_site_symmetry_2
_ccdc_geom_bond_type
Li0 N17 1.990 1_455 S
Li0 O60 1.956 . S
Li0 O61 1.970 . S
Li0 O62 1.961 . S
Li1 N25 1.990 . S
Li1 O60 1.970 . S
Li1 O61 1.956 . S
Li1 O63 1.961 . S
Li2 N47 1.990 . S
Li2 O60 1.961 . S
Li2 O62 1.956 . S
Li2 O63 1.970 . S
Li3 N53 1.990 . S
Li3 O61 1.961 . S
Li3 O62 1.970 . S
Li3 O63 1.956 . S
C4 C6 1.348 . S
C4 C7 1.356 . S
C4 O60 1.325 . S
N5 C8 1.314 . S
N5 C9 1.279 . S
C6 C4 1.348 . S
C6 C8 1.353 . S
C6 H64 0.929 . S
C7 C4 1.356 . S
C7 C9 1.358 . S
C7 H65 0.930 . S
C8 N5 1.314 . S
C8 C6 1.353 . S
C8 H66 0.930 . S
C9 N5 1.279 . S
C9 C7 1.358 . S
C9 H67 0.930 . S
C10 C13 1.348 . S
C10 C14 1.356 . S
C10 O61 1.325 1_655 S
C11 N12 1.279 . S
C11 C14 1.358 . S
C11 H68 0.930 . S
N12 C11 1.279 . S
N12 C15 1.314 . S
C13 C10 1.348 . S
C13 C15 1.353 . S
C13 H69 0.929 . S
C14 C10 1.356 . S
C14 C11 1.358 . S
C14 H70 0.930 1_655 S
C15 N12 1.314 . S
C15 C13 1.353 . S
C15 H71 0.930 . S
C16 N17 1.314 . S
C16 C21 1.353 . S
C16 H22 0.930 . S
N17 Li0 1.990 1_655 S
N17 C16 1.314 . S
N17 C19 1.279 . S
C18 C19 1.358 . S
C18 C20 1.356 . S
C18 H72 0.930 . S
C19 N17 1.279 . S
C19 C18 1.358 . S
C19 H23 0.930 . S
C20 C18 1.356 . S
C20 C21 1.348 . S
C21 C16 1.353 . S
C21 C20 1.348 . S
C21 H73 0.929 . S
H22 C16 0.930 . S
H23 C19 0.930 . S
C24 N25 1.314 . S
C24 C26 1.353 . S
C24 H30 0.930 . S
N25 Li1 1.990 . S
N25 C24 1.314 . S
N25 C28 1.279 . S
C26 C24 1.353 . S
C26 C29 1.348 . S
C26 H74 0.929 . S
C27 C28 1.358 . S
C27 C29 1.356 . S
C27 H75 0.930 . S
C28 N25 1.279 . S
C28 C27 1.358 . S
C28 H31 0.930 . S
C29 C26 1.348 . S
C29 C27 1.356 . S
H30 C24 0.930 . S
H31 C28 0.930 . S
C32 C34 1.348 . S
C32 C35 1.356 . S
C32 O62 1.325 . S
N33 C36 1.314 . S
N33 C37 1.279 . S
C34 C32 1.348 . S
C34 C36 1.353 . S
C34 H76 0.929 . S
C35 C32 1.356 . S
C35 C37 1.358 . S
C35 H77 0.930 . S
C36 N33 1.314 . S
C36 C34 1.353 . S
C36 H78 0.930 . S
C37 N33 1.279 . S
C37 C35 1.358 . S
C37 H79 0.930 . S
C38 C39 1.348 . S
C38 C40 1.356 . S
C38 O63 1.325 . S
C39 C38 1.348 . S
C39 C41 1.353 . S
C39 H80 0.929 . S
C40 C38 1.356 . S
C40 C42 1.358 . S
C40 H81 0.930 . S
C41 C39 1.353 . S
C41 N43 1.314 . S
C41 H82 0.930 . S
C42 C40 1.358 . S
C42 N43 1.279 . S
C42 H83 0.930 . S
N43 C41 1.314 . S
N43 C42 1.279 . S
C44 C46 1.353 . S
C44 N47 1.314 . S
C44 H50 0.930 . S
C45 N47 1.279 . S
C45 C48 1.358 . S
C45 H51 0.930 . S
C46 C44 1.353 . S
C46 C49 1.348 . S
C46 H84 0.929 . S
N47 Li2 1.990 . S
N47 C44 1.314 . S
N47 C45 1.279 . S
C48 C45 1.358 . S
C48 C49 1.356 . S
C48 H85 0.930 . S
C49 C46 1.348 . S
C49 C48 1.356 . S
H50 C44 0.930 . S
H51 C45 0.930 . S
C52 N53 1.314 . S
C52 C54 1.353 . S
C52 H58 0.903 1_455 S
N53 Li3 1.990 . S
N53 C52 1.314 . S
N53 C56 1.279 . S
C54 C52 1.353 . S
C54 C57 1.348 . S
C54 H86 0.929 1_455 S
C55 C56 1.358 . S
C55 C57 1.356 . S
C55 H87 0.930 . S
C56 N53 1.279 . S
C56 C55 1.358 . S
C56 H59 0.930 . S
C57 C54 1.348 . S
C57 C55 1.356 . S
H58 C52 0.903 1_655 S
H59 C56 0.930 . S
O60 Li0 1.956 . S
O60 Li1 1.970 . S
O60 Li2 1.961 . S
O60 C4 1.325 . S
O61 Li0 1.970 . S
O61 Li1 1.956 . S
O61 Li3 1.961 . S
O61 C10 1.325 1_455 S
O62 Li0 1.961 . S
O62 Li2 1.956 . S
O62 Li3 1.970 . S
O62 C32 1.325 . S
O63 Li1 1.961 . S
O63 Li2 1.970 . S
O63 Li3 1.956 . S
O63 C38 1.325 . S
H64 C6 0.929 . S
H65 C7 0.930 . S
H66 C8 0.930 . S
H67 C9 0.930 . S
H68 C11 0.930 . S
H69 C13 0.929 . S
H70 C14 0.930 1_455 S
H71 C15 0.930 . S
H72 C18 0.930 . S
H73 C21 0.929 . S
H74 C26 0.929 . S
H75 C27 0.930 . S
H76 C34 0.929 . S
H77 C35 0.930 . S
H78 C36 0.930 . S
H79 C37 0.930 . S
H80 C39 0.929 . S
H81 C40 0.930 . S
H82 C41 0.930 . S
H83 C42 0.930 . S
H84 C46 0.929 . S
H85 C48 0.930 . S
H86 C54 0.929 1_655 S
H87 C55 0.930 . S
Li88 N105 1.990 . S
Li88 O148 1.956 . S
Li88 O149 1.970 . S
Li88 O150 1.961 1_455 S
Li89 N113 1.990 . S
Li89 O148 1.970 . S
Li89 O149 1.956 . S
Li89 O151 1.961 . S
Li90 N135 1.990 . S
Li90 O148 1.961 . S
Li90 O150 1.956 1_455 S
Li90 O151 1.970 . S
Li91 N141 1.990 1_455 S
Li91 O149 1.961 . S
Li91 O150 1.970 1_455 S
Li91 O151 1.956 . S
C92 C94 1.348 . S
C92 C95 1.356 . S
C92 O148 1.325 . S
N93 C96 1.314 . S
N93 C97 1.279 . S
C94 C92 1.348 . S
C94 C96 1.353 . S
C94 H152 0.929 . S
C95 C92 1.356 . S
C95 C97 1.358 . S
C95 H153 0.930 . S
C96 N93 1.314 . S
C96 C94 1.353 . S
C96 H154 0.930 . S
C97 N93 1.279 . S
C97 C95 1.358 . S
C97 H155 0.930 . S
C98 C101 1.348 . S
C98 C102 1.356 . S
C98 O149 1.325 . S
C99 N100 1.279 . S
C99 C102 1.358 . S
C99 H156 0.930 . S
N100 C99 1.279 . S
N100 C103 1.314 . S
C101 C98 1.348 . S
C101 C103 1.353 . S
C101 H157 0.929 . S
C102 C98 1.356 . S
C102 C99 1.358 . S
C102 H158 0.930 . S
C103 N100 1.314 . S
C103 C101 1.353 . S
C103 H159 0.930 . S
C104 N105 1.314 . S
C104 C109 1.353 . S
C104 H110 0.930 1_455 S
N105 Li88 1.990 . S
N105 C104 1.314 . S
N105 C107 1.279 . S
C106 C107 1.358 . S
C106 C108 1.356 . S
C106 H160 0.930 . S
C107 N105 1.279 . S
C107 C106 1.358 . S
C107 H111 0.930 . S
C108 C106 1.356 . S
C108 C109 1.348 . S
C109 C104 1.353 . S
C109 C108 1.348 . S
C109 H161 0.929 1_455 S
H110 C104 0.930 1_655 S
H111 C107 0.930 . S
C112 N113 1.314 . S
C112 C114 1.353 . S
C112 H118 0.930 . S
N113 Li89 1.990 . S
N113 C112 1.314 . S
N113 C116 1.279 . S
C114 C112 1.353 . S
C114 C117 1.348 . S
C114 H162 0.929 . S
C115 C116 1.358 . S
C115 C117 1.356 . S
C115 H163 0.930 . S
C116 N113 1.279 . S
C116 C115 1.358 . S
C116 H119 0.930 . S
C117 C114 1.348 . S
C117 C115 1.356 . S
H118 C112 0.930 . S
H119 C116 0.930 . S
C120 C122 1.348 . S
C120 C123 1.356 . S
C120 O150 1.325 . S
N121 C124 1.314 . S
N121 C125 1.279 . S
C122 C120 1.348 . S
C122 C124 1.353 . S
C122 H164 0.929 . S
C123 C120 1.356 . S
C123 C125 1.358 . S
C123 H165 0.930 . S
C124 N121 1.314 . S
C124 C122 1.353 . S
C124 H166 0.930 . S
C125 N121 1.279 . S
C125 C123 1.358 . S
C125 H167 0.930 . S
C126 C127 1.348 . S
C126 C128 1.356 . S
C126 O151 1.325 . S
C127 C126 1.348 . S
C127 C129 1.353 . S
C127 H168 0.929 . S
C128 C126 1.356 . S
C128 C130 1.358 . S
C128 H169 0.930 . S
C129 C127 1.353 . S
C129 N131 1.314 . S
C129 H170 0.930 . S
C130 C128 1.358 . S
C130 N131 1.279 . S
C130 H171 0.930 . S
N131 C129 1.314 . S
N131 C130 1.279 . S
C132 C134 1.353 . S
C132 N135 1.314 . S
C132 H138 0.930 . S
C133 N135 1.279 1_655 S
C133 C136 1.358 . S
C133 H139 0.930 . S
C134 C132 1.353 . S
C134 C137 1.348 . S
C134 H172 0.929 . S
N135 Li90 1.990 . S
N135 C132 1.314 . S
N135 C133 1.279 1_455 S
C136 C133 1.358 . S
C136 C137 1.356 1_655 S
C136 H173 0.930 . S
C137 C134 1.348 . S
C137 C136 1.356 1_455 S
H138 C132 0.930 . S
H139 C133 0.930 . S
C140 N141 1.314 . S
C140 C142 1.353 . S
C140 H146 0.930 . S
N141 Li91 1.990 1_655 S
N141 C140 1.314 . S
N141 C144 1.279 . S
C142 C140 1.353 . S
C142 C145 1.348 . S
C142 H174 0.929 . S
C143 C144 1.358 . S
C143 C145 1.356 . S
C143 H175 0.930 . S
C144 N141 1.279 . S
C144 C143 1.358 . S
C144 H147 0.930 . S
C145 C142 1.348 . S
C145 C143 1.356 . S
H146 C140 0.930 . S
H147 C144 0.930 . S
O148 Li88 1.956 . S
O148 Li89 1.970 . S
O148 Li90 1.961 . S
O148 C92 1.325 . S
O149 Li88 1.970 . S
O149 Li89 1.956 . S
O149 Li91 1.961 . S
O149 C98 1.325 . S
O150 Li88 1.961 1_655 S
O150 Li90 1.956 1_655 S
O150 Li91 1.970 1_655 S
O150 C120 1.325 . S
O151 Li89 1.961 . S
O151 Li90 1.970 . S
O151 Li91 1.956 . S
O151 C126 1.325 . S
H152 C94 0.929 . S
H153 C95 0.930 . S
H154 C96 0.930 . S
H155 C97 0.930 . S
H156 C99 0.930 . S
H157 C101 0.929 . S
H158 C102 0.930 . S
H159 C103 0.930 . S
H160 C106 0.930 . S
H161 C109 0.929 1_655 S
H162 C114 0.929 . S
H163 C115 0.930 . S
H164 C122 0.929 . S
H165 C123 0.930 . S
H166 C124 0.930 . S
H167 C125 0.930 . S
H168 C127 0.929 . S
H169 C128 0.930 . S
H170 C129 0.930 . S
H171 C130 0.930 . S
H172 C134 0.929 . S
H173 C136 0.930 . S
H174 C142 0.929 . S
H175 C143 0.930 . S
Li176 N193 1.990 . S
Li176 O236 1.956 . S
Li176 O237 1.970 . S
Li176 O238 1.961 . S
Li177 N201 1.990 . S
Li177 O236 1.970 . S
Li177 O237 1.956 . S
Li177 O239 1.961 . S
Li178 N223 1.990 . S
Li178 O236 1.961 . S
Li178 O238 1.956 . S
Li178 O239 1.970 . S
Li179 N229 1.990 . S
Li179 O237 1.961 . S
Li179 O238 1.970 . S
Li179 O239 1.956 . S
C180 C182 1.348 . S
C180 C183 1.356 . S
C180 O236 1.325 . S
N181 C184 1.314 . S
N181 C185 1.279 . S
C182 C180 1.348 . S
C182 C184 1.353 . S
C182 H240 0.929 . S
C183 C180 1.356 . S
C183 C185 1.358 . S
C183 H241 0.930 . S
C184 N181 1.314 . S
C184 C182 1.353 . S
C184 H242 0.930 . S
C185 N181 1.279 . S
C185 C183 1.358 . S
C185 H243 0.930 . S
C186 C189 1.348 . S
C186 C190 1.356 . S
C186 O237 1.325 . S
C187 N188 1.279 . S
C187 C190 1.358 . S
C187 H244 0.930 . S
N188 C187 1.279 . S
N188 C191 1.314 . S
C189 C186 1.348 . S
C189 C191 1.353 . S
C189 H245 0.929 . S
C190 C186 1.356 . S
C190 C187 1.358 . S
C190 H246 0.930 . S
C191 N188 1.314 . S
C191 C189 1.353 . S
C191 H247 0.930 . S
C192 N193 1.314 . S
C192 C197 1.353 . S
C192 H198 0.930 . S
N193 Li176 1.990 . S
N193 C192 1.314 . S
N193 C195 1.279 . S
C194 C195 1.358 . S
C194 C196 1.356 . S
C194 H248 0.930 . S
C195 N193 1.279 . S
C195 C194 1.358 . S
C195 H199 0.930 . S
C196 C194 1.356 . S
C196 C197 1.348 . S
C197 C192 1.353 . S
C197 C196 1.348 . S
C197 H249 0.929 . S
H198 C192 0.930 . S
H199 C195 0.930 . S
C200 N201 1.314 . S
C200 C202 1.353 . S
C200 H206 0.930 . S
N201 Li177 1.990 . S
N201 C200 1.314 . S
N201 C204 1.279 . S
C202 C200 1.353 . S
C202 C205 1.348 . S
C202 H250 0.929 . S
C203 C204 1.358 . S
C203 C205 1.356 . S
C203 H251 0.930 . S
C204 N201 1.279 . S
C204 C203 1.358 . S
C204 H207 0.930 . S
C205 C202 1.348 . S
C205 C203 1.356 . S
H206 C200 0.930 . S
H207 C204 0.930 . S
C208 C210 1.348 . S
C208 C211 1.356 . S
C208 O238 1.325 . S
N209 C212 1.314 . S
N209 C213 1.279 . S
C210 C208 1.348 . S
C210 C212 1.353 . S
C210 H252 0.929 . S
C211 C208 1.356 . S
C211 C213 1.358 . S
C211 H253 0.930 . S
C212 N209 1.314 . S
C212 C210 1.353 . S
C212 H254 0.930 . S
C213 N209 1.279 . S
C213 C211 1.358 . S
C213 H255 0.930 . S
C214 C215 1.348 . S
C214 C216 1.356 . S
C214 O239 1.325 . S
C215 C214 1.348 . S
C215 C217 1.353 . S
C215 H256 0.929 . S
C216 C214 1.356 . S
C216 C218 1.358 . S
C216 H257 0.930 . S
C217 C215 1.353 . S
C217 N219 1.314 . S
C217 H258 0.930 . S
C218 C216 1.358 . S
C218 N219 1.279 . S
C218 H259 0.930 . S
N219 C217 1.314 . S
N219 C218 1.279 . S
C220 C222 1.353 . S
C220 N223 1.314 . S
C220 H226 0.930 . S
C221 N223 1.279 . S
C221 C224 1.358 . S
C221 H227 0.930 . S
C222 C220 1.353 . S
C222 C225 1.348 . S
C222 H260 0.929 . S
N223 Li178 1.990 . S
N223 C220 1.314 . S
N223 C221 1.279 . S
C224 C221 1.358 . S
C224 C225 1.356 . S
C224 H261 0.930 . S
C225 C222 1.348 . S
C225 C224 1.356 . S
H226 C220 0.930 . S
H227 C221 0.930 . S
C228 N229 1.314 . S
C228 C230 1.353 . S
C228 H234 0.930 . S
N229 Li179 1.990 . S
N229 C228 1.314 . S
N229 C232 1.279 . S
C230 C228 1.353 . S
C230 C233 1.348 . S
C230 H262 0.929 . S
C231 C232 1.358 . S
C231 C233 1.356 . S
C231 H263 0.930 . S
C232 N229 1.279 . S
C232 C231 1.358 . S
C232 H235 0.930 . S
C233 C230 1.348 . S
C233 C231 1.356 . S
H234 C228 0.930 . S
H235 C232 0.930 . S
O236 Li176 1.956 . S
O236 Li177 1.970 . S
O236 Li178 1.961 . S
O236 C180 1.325 . S
O237 Li176 1.970 . S
O237 Li177 1.956 . S
O237 Li179 1.961 . S
O237 C186 1.325 . S
O238 Li176 1.961 . S
O238 Li178 1.956 . S
O238 Li179 1.970 . S
O238 C208 1.325 . S
O239 Li177 1.961 . S
O239 Li178 1.970 . S
O239 Li179 1.956 . S
O239 C214 1.325 . S
H240 C182 0.929 . S
H241 C183 0.930 . S
H242 C184 0.930 . S
H243 C185 0.930 . S
H244 C187 0.930 . S
H245 C189 0.929 . S
H246 C190 0.930 . S
H247 C191 0.930 . S
H248 C194 0.930 . S
H249 C197 0.929 . S
H250 C202 0.929 . S
H251 C203 0.930 . S
H252 C210 0.929 . S
H253 C211 0.930 . S
H254 C212 0.930 . S
H255 C213 0.930 . S
H256 C215 0.929 . S
H257 C216 0.930 . S
H258 C217 0.930 . S
H259 C218 0.930 . S
H260 C222 0.929 . S
H261 C224 0.930 . S
H262 C230 0.929 . S
H263 C231 0.930 . S
Li264 N281 1.990 . S
Li264 O324 1.956 . S
Li264 O325 1.970 . S
Li264 O326 1.961 . S
Li265 N289 1.990 . S
Li265 O324 1.970 . S
Li265 O325 1.956 . S
Li265 O327 1.961 . S
Li266 N311 1.990 . S
Li266 O324 1.961 . S
Li266 O326 1.956 . S
Li266 O327 1.970 . S
Li267 N317 1.990 . S
Li267 O325 1.961 . S
Li267 O326 1.970 . S
Li267 O327 1.956 . S
C268 C270 1.348 . S
C268 C271 1.356 . S
C268 O324 1.325 . S
N269 C272 1.314 . S
N269 C273 1.279 . S
C270 C268 1.348 . S
C270 C272 1.353 . S
C270 H328 0.929 . S
C271 C268 1.356 . S
C271 C273 1.358 . S
C271 H329 0.930 . S
C272 N269 1.314 . S
C272 C270 1.353 . S
C272 H330 0.930 . S
C273 N269 1.279 . S
C273 C271 1.358 . S
C273 H331 0.930 . S
C274 C277 1.348 . S
C274 C278 1.356 . S
C274 O325 1.325 . S
C275 N276 1.279 . S
C275 C278 1.358 . S
C275 H332 0.930 . S
N276 C275 1.279 . S
N276 C279 1.314 . S
C277 C274 1.348 . S
C277 C279 1.353 . S
C277 H333 0.929 . S
C278 C274 1.356 . S
C278 C275 1.358 . S
C278 H334 0.930 . S
C279 N276 1.314 . S
C279 C277 1.353 . S
C279 H335 0.930 . S
C280 N281 1.314 . S
C280 C285 1.353 . S
C280 H286 0.930 . S
N281 Li264 1.990 . S
N281 C280 1.314 . S
N281 C283 1.279 . S
C282 C283 1.358 . S
C282 C284 1.356 . S
C282 H336 0.930 . S
C283 N281 1.279 . S
C283 C282 1.358 . S
C283 H287 0.930 . S
C284 C282 1.356 . S
C284 C285 1.348 . S
C285 C280 1.353 . S
C285 C284 1.348 . S
C285 H337 0.929 . S
H286 C280 0.930 . S
H287 C283 0.930 . S
C288 N289 1.314 . S
C288 C290 1.353 . S
C288 H294 0.930 . S
N289 Li265 1.990 . S
N289 C288 1.314 . S
N289 C292 1.279 . S
C290 C288 1.353 . S
C290 C293 1.348 . S
C290 H338 0.929 . S
C291 C292 1.358 . S
C291 C293 1.356 . S
C291 H339 0.930 . S
C292 N289 1.279 . S
C292 C291 1.358 . S
C292 H295 0.930 . S
C293 C290 1.348 . S
C293 C291 1.356 . S
H294 C288 0.930 . S
H295 C292 0.930 . S
C296 C298 1.348 . S
C296 C299 1.356 . S
C296 O326 1.325 . S
N297 C300 1.314 . S
N297 C301 1.279 . S
C298 C296 1.348 . S
C298 C300 1.353 . S
C298 H340 0.929 . S
C299 C296 1.356 . S
C299 C301 1.358 . S
C299 H341 0.930 . S
C300 N297 1.314 . S
C300 C298 1.353 . S
C300 H342 0.930 . S
C301 N297 1.279 . S
C301 C299 1.358 . S
C301 H343 0.930 . S
C302 C303 1.348 . S
C302 C304 1.356 . S
C302 O327 1.325 . S
C303 C302 1.348 . S
C303 C305 1.353 . S
C303 H344 0.929 . S
C304 C302 1.356 . S
C304 C306 1.358 . S
C304 H345 0.930 . S
C305 C303 1.353 . S
C305 N307 1.314 . S
C305 H346 0.930 . S
C306 C304 1.358 . S
C306 N307 1.279 . S
C306 H347 0.930 . S
N307 C305 1.314 . S
N307 C306 1.279 . S
C308 C310 1.353 . S
C308 N311 1.314 . S
C308 H314 0.930 . S
C309 N311 1.279 . S
C309 C312 1.358 . S
C309 H315 0.930 . S
C310 C308 1.353 . S
C310 C313 1.348 . S
C310 H348 0.929 . S
N311 Li266 1.990 . S
N311 C308 1.314 . S
N311 C309 1.279 . S
C312 C309 1.358 . S
C312 C313 1.356 . S
C312 H349 0.930 . S
C313 C310 1.348 . S
C313 C312 1.356 . S
H314 C308 0.930 . S
H315 C309 0.930 . S
C316 N317 1.314 . S
C316 C318 1.353 . S
C316 H322 0.930 . S
N317 Li267 1.990 . S
N317 C316 1.314 . S
N317 C320 1.279 . S
C318 C316 1.353 . S
C318 C321 1.348 . S
C318 H350 0.929 . S
C319 C320 1.358 . S
C319 C321 1.356 . S
C319 H351 0.930 . S
C320 N317 1.279 . S
C320 C319 1.358 . S
C320 H323 0.930 . S
C321 C318 1.348 . S
C321 C319 1.356 . S
H322 C316 0.930 . S
H323 C320 0.930 . S
O324 Li264 1.956 . S
O324 Li265 1.970 . S
O324 Li266 1.961 . S
O324 C268 1.325 . S
O325 Li264 1.970 . S
O325 Li265 1.956 . S
O325 Li267 1.961 . S
O325 C274 1.325 . S
O326 Li264 1.961 . S
O326 Li266 1.956 . S
O326 Li267 1.970 . S
O326 C296 1.325 . S
O327 Li265 1.961 . S
O327 Li266 1.970 . S
O327 Li267 1.956 . S
O327 C302 1.325 . S
H328 C270 0.929 . S
H329 C271 0.930 . S
H330 C272 0.930 . S
H331 C273 0.930 . S
H332 C275 0.930 . S
H333 C277 0.929 . S
H334 C278 0.930 . S
H335 C279 0.930 . S
H336 C282 0.930 . S
H337 C285 0.929 . S
H338 C290 0.929 . S
H339 C291 0.930 . S
H340 C298 0.929 . S
H341 C299 0.930 . S
H342 C300 0.930 . S
H343 C301 0.930 . S
H344 C303 0.929 . S
H345 C304 0.930 . S
H346 C305 0.930 . S
H347 C306 0.930 . S
H348 C310 0.929 . S
H349 C312 0.930 . S
H350 C318 0.929 . S
H351 C319 0.930 . S
Li352 N369 1.990 . S
Li352 O412 1.956 . S
Li352 O413 1.970 . S
Li352 O414 1.961 . S
Li353 N377 1.990 . S
Li353 O412 1.970 . S
Li353 O413 1.956 . S
Li353 O415 1.961 . S
Li354 N399 1.990 . S
Li354 O412 1.961 . S
Li354 O414 1.956 . S
Li354 O415 1.970 . S
Li355 N405 1.990 . S
Li355 O413 1.961 . S
Li355 O414 1.970 . S
Li355 O415 1.956 . S
C356 C358 1.348 . S
C356 C359 1.356 . S
C356 O412 1.325 . S
N357 C360 1.314 . S
N357 C361 1.279 . S
C358 C356 1.348 . S
C358 C360 1.353 . S
C358 H416 0.929 . S
C359 C356 1.356 . S
C359 C361 1.358 . S
C359 H417 0.930 . S
C360 N357 1.314 . S
C360 C358 1.353 . S
C360 H418 0.930 . S
C361 N357 1.279 . S
C361 C359 1.358 . S
C361 H419 0.930 . S
C362 C365 1.348 . S
C362 C366 1.356 . S
C362 O413 1.325 . S
C363 N364 1.279 . S
C363 C366 1.358 . S
C363 H420 0.930 . S
N364 C363 1.279 . S
N364 C367 1.314 . S
C365 C362 1.348 . S
C365 C367 1.353 . S
C365 H421 0.929 . S
C366 C362 1.356 . S
C366 C363 1.358 . S
C366 H422 0.930 . S
C367 N364 1.314 . S
C367 C365 1.353 . S
C367 H423 0.930 . S
C368 N369 1.314 . S
C368 C373 1.353 . S
C368 H374 0.930 . S
N369 Li352 1.990 . S
N369 C368 1.314 . S
N369 C371 1.279 . S
C370 C371 1.358 . S
C370 C372 1.356 . S
C370 H424 0.930 . S
C371 N369 1.279 . S
C371 C370 1.358 . S
C371 H375 0.930 . S
C372 C370 1.356 . S
C372 C373 1.348 . S
C373 C368 1.353 . S
C373 C372 1.348 . S
C373 H425 0.929 . S
H374 C368 0.930 . S
H375 C371 0.930 . S
C376 N377 1.314 . S
C376 C378 1.353 . S
C376 H382 0.930 . S
N377 Li353 1.990 . S
N377 C376 1.314 . S
N377 C380 1.279 . S
C378 C376 1.353 . S
C378 C381 1.348 . S
C378 H426 0.929 . S
C379 C380 1.358 . S
C379 C381 1.356 . S
C379 H427 0.930 . S
C380 N377 1.279 . S
C380 C379 1.358 . S
C380 H383 0.930 . S
C381 C378 1.348 . S
C381 C379 1.356 . S
H382 C376 0.930 . S
H383 C380 0.930 . S
C384 C386 1.348 1_455 S
C384 C387 1.356 . S
C384 O414 1.325 . S
N385 C388 1.314 . S
N385 C389 1.279 . S
C386 C384 1.348 1_655 S
C386 C388 1.353 . S
C386 H428 0.929 . S
C387 C384 1.356 . S
C387 C389 1.358 1_455 S
C387 H429 0.930 . S
C388 N385 1.314 . S
C388 C386 1.353 . S
C388 H430 0.930 . S
C389 N385 1.279 . S
C389 C387 1.358 1_655 S
C389 H431 0.930 . S
C390 C391 1.348 . S
C390 C392 1.356 . S
C390 O415 1.325 . S
C391 C390 1.348 . S
C391 C393 1.353 . S
C391 H432 0.929 . S
C392 C390 1.356 . S
C392 C394 1.358 . S
C392 H433 0.930 . S
C393 C391 1.353 . S
C393 N395 1.314 . S
C393 H434 0.930 . S
C394 C392 1.358 . S
C394 N395 1.279 . S
C394 H435 0.930 . S
N395 C393 1.314 . S
N395 C394 1.279 . S
C396 C398 1.353 . S
C396 N399 1.314 . S
C396 H402 0.930 . S
C397 N399 1.279 . S
C397 C400 1.358 . S
C397 H403 0.930 . S
C398 C396 1.353 . S
C398 C401 1.348 . S
C398 H436 0.929 . S
N399 Li354 1.990 . S
N399 C396 1.314 . S
N399 C397 1.279 . S
C400 C397 1.358 . S
C400 C401 1.356 . S
C400 H437 0.930 . S
C401 C398 1.348 . S
C401 C400 1.356 . S
H402 C396 0.930 . S
H403 C397 0.930 . S
C404 N405 1.314 . S
C404 C406 1.353 1_455 S
C404 H410 0.930 . S
N405 Li355 1.990 . S
N405 C404 1.314 . S
N405 C408 1.279 . S
C406 C404 1.353 1_655 S
C406 C409 1.348 . S
C406 H438 0.929 . S
C407 C408 1.358 1_655 S
C407 C409 1.356 . S
C407 H439 0.930 . S
C408 N405 1.279 . S
C408 C407 1.358 1_455 S
C408 H411 0.930 . S
C409 C406 1.348 . S
C409 C407 1.356 . S
H410 C404 0.930 . S
H411 C408 0.930 . S
O412 Li352 1.956 . S
O412 Li353 1.970 . S
O412 Li354 1.961 . S
O412 C356 1.325 . S
O413 Li352 1.970 . S
O413 Li353 1.956 . S
O413 Li355 1.961 . S
O413 C362 1.325 . S
O414 Li352 1.961 . S
O414 Li354 1.956 . S
O414 Li355 1.970 . S
O414 C384 1.325 . S
O415 Li353 1.961 . S
O415 Li354 1.970 . S
O415 Li355 1.956 . S
O415 C390 1.325 . S
H416 C358 0.929 . S
H417 C359 0.930 . S
H418 C360 0.930 . S
H419 C361 0.930 . S
H420 C363 0.930 . S
H421 C365 0.929 . S
H422 C366 0.930 . S
H423 C367 0.930 . S
H424 C370 0.930 . S
H425 C373 0.929 . S
H426 C378 0.929 . S
H427 C379 0.930 . S
H428 C386 0.929 . S
H429 C387 0.930 . S
H430 C388 0.930 . S
H431 C389 0.930 . S
H432 C391 0.929 . S
H433 C392 0.930 . S
H434 C393 0.930 . S
H435 C394 0.930 . S
H436 C398 0.929 . S
H437 C400 0.930 . S
H438 C406 0.929 . S
H439 C407 0.930 . S
Li440 N457 1.990 . S
Li440 O500 1.956 . S
Li440 O501 1.970 . S
Li440 O502 1.961 . S
Li441 N465 1.990 . S
Li441 O500 1.970 . S
Li441 O501 1.956 . S
Li441 O503 1.961 . S
Li442 N487 1.990 . S
Li442 O500 1.961 . S
Li442 O502 1.956 . S
Li442 O503 1.970 . S
Li443 N493 1.990 . S
Li443 O501 1.961 . S
Li443 O502 1.970 . S
Li443 O503 1.956 . S
C444 C446 1.348 . S
C444 C447 1.356 . S
C444 O500 1.325 . S
N445 C448 1.314 . S
N445 C449 1.279 . S
C446 C444 1.348 . S
C446 C448 1.353 . S
C446 H504 0.929 . S
C447 C444 1.356 . S
C447 C449 1.358 . S
C447 H505 0.930 . S
C448 N445 1.314 . S
C448 C446 1.353 . S
C448 H506 0.930 . S
C449 N445 1.279 . S
C449 C447 1.358 . S
C449 H507 0.930 . S
C450 C453 1.348 . S
C450 C454 1.356 . S
C450 O501 1.325 . S
C451 N452 1.279 . S
C451 C454 1.358 . S
C451 H508 0.930 . S
N452 C451 1.279 . S
N452 C455 1.314 . S
C453 C450 1.348 . S
C453 C455 1.353 . S
C453 H509 0.929 . S
C454 C450 1.356 . S
C454 C451 1.358 . S
C454 H510 0.930 . S
C455 N452 1.314 . S
C455 C453 1.353 . S
C455 H511 0.930 . S
C456 N457 1.314 . S
C456 C461 1.353 . S
C456 H462 0.930 . S
N457 Li440 1.990 . S
N457 C456 1.314 . S
N457 C459 1.279 . S
C458 C459 1.358 . S
C458 C460 1.356 . S
C458 H512 0.930 . S
C459 N457 1.279 . S
C459 C458 1.358 . S
C459 H463 0.930 . S
C460 C458 1.356 . S
C460 C461 1.348 . S
C461 C456 1.353 . S
C461 C460 1.348 . S
C461 H513 0.929 . S
H462 C456 0.930 . S
H463 C459 0.930 . S
C464 N465 1.314 . S
C464 C466 1.353 . S
C464 H470 0.930 . S
N465 Li441 1.990 . S
N465 C464 1.314 . S
N465 C468 1.279 . S
C466 C464 1.353 . S
C466 C469 1.348 . S
C466 H514 0.929 . S
C467 C468 1.358 . S
C467 C469 1.356 . S
C467 H515 0.930 . S
C468 N465 1.279 . S
C468 C467 1.358 . S
C468 H471 0.930 . S
C469 C466 1.348 . S
C469 C467 1.356 . S
H470 C464 0.930 . S
H471 C468 0.930 . S
C472 C474 1.348 . S
C472 C475 1.356 . S
C472 O502 1.325 . S
N473 C476 1.314 . S
N473 C477 1.279 . S
C474 C472 1.348 . S
C474 C476 1.353 . S
C474 H516 0.929 . S
C475 C472 1.356 . S
C475 C477 1.358 . S
C475 H517 0.930 . S
C476 N473 1.314 . S
C476 C474 1.353 . S
C476 H518 0.930 . S
C477 N473 1.279 . S
C477 C475 1.358 . S
C477 H519 0.930 . S
C478 C479 1.348 . S
C478 C480 1.356 . S
C478 O503 1.325 . S
C479 C478 1.348 . S
C479 C481 1.353 . S
C479 H520 0.929 . S
C480 C478 1.356 . S
C480 C482 1.358 . S
C480 H521 0.930 . S
C481 C479 1.353 . S
C481 N483 1.314 . S
C481 H522 0.930 . S
C482 C480 1.358 . S
C482 N483 1.279 . S
C482 H523 0.930 . S
N483 C481 1.314 . S
N483 C482 1.279 . S
C484 C486 1.353 . S
C484 N487 1.314 . S
C484 H490 0.930 . S
C485 N487 1.279 . S
C485 C488 1.358 . S
C485 H491 0.930 . S
C486 C484 1.353 . S
C486 C489 1.348 . S
C486 H524 0.929 . S
N487 Li442 1.990 . S
N487 C484 1.314 . S
N487 C485 1.279 . S
C488 C485 1.358 . S
C488 C489 1.356 . S
C488 H525 0.930 . S
C489 C486 1.348 . S
C489 C488 1.356 . S
H490 C484 0.930 . S
H491 C485 0.930 . S
C492 N493 1.314 . S
C492 C494 1.353 . S
C492 H498 0.930 . S
N493 Li443 1.990 . S
N493 C492 1.314 . S
N493 C496 1.279 . S
C494 C492 1.353 . S
C494 C497 1.348 . S
C494 H526 0.929 . S
C495 C496 1.358 . S
C495 C497 1.356 . S
C495 H527 0.930 . S
C496 N493 1.279 . S
C496 C495 1.358 . S
C496 H499 0.930 . S
C497 C494 1.348 . S
C497 C495 1.356 . S
H498 C492 0.930 . S
H499 C496 0.930 . S
O500 Li440 1.956 . S
O500 Li441 1.970 . S
O500 Li442 1.961 . S
O500 C444 1.325 . S
O501 Li440 1.970 . S
O501 Li441 1.956 . S
O501 Li443 1.961 . S
O501 C450 1.325 . S
O502 Li440 1.961 . S
O502 Li442 1.956 . S
O502 Li443 1.970 . S
O502 C472 1.325 . S
O503 Li441 1.961 . S
O503 Li442 1.970 . S
O503 Li443 1.956 . S
O503 C478 1.325 . S
H504 C446 0.929 . S
H505 C447 0.930 . S
H506 C448 0.930 . S
H507 C449 0.930 . S
H508 C451 0.930 . S
H509 C453 0.929 . S
H510 C454 0.930 . S
H511 C455 0.930 . S
H512 C458 0.930 . S
H513 C461 0.929 . S
H514 C466 0.929 . S
H515 C467 0.930 . S
H516 C474 0.929 . S
H517 C475 0.930 . S
H518 C476 0.930 . S
H519 C477 0.930 . S
H520 C479 0.929 . S
H521 C480 0.930 . S
H522 C481 0.930 . S
H523 C482 0.930 . S
H524 C486 0.929 . S
H525 C488 0.930 . S
H526 C494 0.929 . S
H527 C495 0.930 . S
Li528 N545 1.990 . S
Li528 O588 1.956 . S
Li528 O589 1.970 . S
Li528 O590 1.961 . S
Li529 N553 1.990 . S
Li529 O588 1.970 . S
Li529 O589 1.956 . S
Li529 O591 1.961 . S
Li530 N575 1.990 . S
Li530 O588 1.961 . S
Li530 O590 1.956 . S
Li530 O591 1.970 . S
Li531 N581 1.990 . S
Li531 O589 1.961 . S
Li531 O590 1.970 . S
Li531 O591 1.956 . S
C532 C534 1.348 . S
C532 C535 1.356 . S
C532 O588 1.325 . S
N533 C536 1.314 . S
N533 C537 1.279 . S
C534 C532 1.348 . S
C534 C536 1.353 . S
C534 H592 0.929 . S
C535 C532 1.356 . S
C535 C537 1.358 . S
C535 H593 0.930 . S
C536 N533 1.314 . S
C536 C534 1.353 . S
C536 H594 0.930 . S
C537 N533 1.279 . S
C537 C535 1.358 . S
C537 H595 0.930 . S
C538 C541 1.348 . S
C538 C542 1.356 . S
C538 O589 1.325 . S
C539 N540 1.279 . S
C539 C542 1.358 . S
C539 H596 0.930 . S
N540 C539 1.279 . S
N540 C543 1.314 . S
C541 C538 1.348 . S
C541 C543 1.353 . S
C541 H597 0.929 . S
C542 C538 1.356 . S
C542 C539 1.358 . S
C542 H598 0.930 . S
C543 N540 1.314 . S
C543 C541 1.353 . S
C543 H599 0.930 . S
C544 N545 1.314 . S
C544 C549 1.353 . S
C544 H550 0.930 . S
N545 Li528 1.990 . S
N545 C544 1.314 . S
N545 C547 1.279 . S
C546 C547 1.358 . S
C546 C548 1.356 . S
C546 H600 0.930 . S
C547 N545 1.279 . S
C547 C546 1.358 . S
C547 H551 0.930 . S
C548 C546 1.356 . S
C548 C549 1.348 . S
C549 C544 1.353 . S
C549 C548 1.348 . S
C549 H601 0.929 . S
H550 C544 0.930 . S
H551 C547 0.930 . S
C552 N553 1.314 . S
C552 C554 1.353 . S
C552 H558 0.930 . S
N553 Li529 1.990 . S
N553 C552 1.314 . S
N553 C556 1.279 . S
C554 C552 1.353 . S
C554 C557 1.348 . S
C554 H602 0.929 . S
C555 C556 1.358 . S
C555 C557 1.356 . S
C555 H603 0.930 . S
C556 N553 1.279 . S
C556 C555 1.358 . S
C556 H559 0.930 . S
C557 C554 1.348 . S
C557 C555 1.356 . S
H558 C552 0.930 . S
H559 C556 0.930 . S
C560 C562 1.348 . S
C560 C563 1.356 . S
C560 O590 1.325 . S
N561 C564 1.314 . S
N561 C565 1.279 . S
C562 C560 1.348 . S
C562 C564 1.353 . S
C562 H604 0.929 . S
C563 C560 1.356 . S
C563 C565 1.358 . S
C563 H605 0.930 . S
C564 N561 1.314 . S
C564 C562 1.353 . S
C564 H606 0.930 . S
C565 N561 1.279 . S
C565 C563 1.358 . S
C565 H607 0.930 . S
C566 C567 1.348 . S
C566 C568 1.356 . S
C566 O591 1.325 . S
C567 C566 1.348 . S
C567 C569 1.353 . S
C567 H608 0.929 . S
C568 C566 1.356 . S
C568 C570 1.358 . S
C568 H609 0.930 . S
C569 C567 1.353 . S
C569 N571 1.314 . S
C569 H610 0.930 . S
C570 C568 1.358 . S
C570 N571 1.279 . S
C570 H611 0.930 . S
N571 C569 1.314 . S
N571 C570 1.279 . S
C572 C574 1.353 . S
C572 N575 1.314 . S
C572 H578 0.930 . S
C573 N575 1.279 . S
C573 C576 1.358 . S
C573 H579 0.930 . S
C574 C572 1.353 . S
C574 C577 1.348 . S
C574 H612 0.929 . S
N575 Li530 1.990 . S
N575 C572 1.314 . S
N575 C573 1.279 . S
C576 C573 1.358 . S
C576 C577 1.356 . S
C576 H613 0.930 . S
C577 C574 1.348 . S
C577 C576 1.356 . S
H578 C572 0.930 . S
H579 C573 0.930 . S
C580 N581 1.314 . S
C580 C582 1.353 . S
C580 H586 0.930 . S
N581 Li531 1.990 . S
N581 C580 1.314 . S
N581 C584 1.279 . S
C582 C580 1.353 . S
C582 C585 1.348 . S
C582 H614 0.929 . S
C583 C584 1.358 . S
C583 C585 1.356 . S
C583 H615 0.930 . S
C584 N581 1.279 . S
C584 C583 1.358 . S
C584 H587 0.930 . S
C585 C582 1.348 . S
C585 C583 1.356 . S
H586 C580 0.930 . S
H587 C584 0.930 . S
O588 Li528 1.956 . S
O588 Li529 1.970 . S
O588 Li530 1.961 . S
O588 C532 1.325 . S
O589 Li528 1.970 . S
O589 Li529 1.956 . S
O589 Li531 1.961 . S
O589 C538 1.325 . S
O590 Li528 1.961 . S
O590 Li530 1.956 . S
O590 Li531 1.970 . S
O590 C560 1.325 . S
O591 Li529 1.961 . S
O591 Li530 1.970 . S
O591 Li531 1.956 . S
O591 C566 1.325 . S
H592 C534 0.929 . S
H593 C535 0.930 . S
H594 C536 0.930 . S
H595 C537 0.930 . S
H596 C539 0.930 . S
H597 C541 0.929 . S
H598 C542 0.930 . S
H599 C543 0.930 . S
H600 C546 0.930 . S
H601 C549 0.929 . S
H602 C554 0.929 . S
H603 C555 0.930 . S
H604 C562 0.929 . S
H605 C563 0.930 . S
H606 C564 0.930 . S
H607 C565 0.930 . S
H608 C567 0.929 . S
H609 C568 0.930 . S
H610 C569 0.930 . S
H611 C570 0.930 . S
H612 C574 0.929 . S
H613 C576 0.930 . S
H614 C582 0.929 . S
H615 C583 0.930 . S
Li616 N633 1.990 . S
Li616 O676 1.956 1_455 S
Li616 O677 1.970 . S
Li616 O678 1.961 . S
Li617 N641 1.990 . S
Li617 O676 1.970 . S
Li617 O677 1.956 1_655 S
Li617 O679 1.961 . S
Li618 N663 1.986 . S
Li618 O676 2.008 . S
Li618 O678 1.922 1_655 S
Li618 O679 1.970 . S
Li619 N669 1.990 . S
Li619 O677 1.961 . S
Li619 O678 1.970 . S
Li619 O679 1.956 1_455 S
C620 C622 1.348 . S
C620 C623 1.356 . S
C620 O676 1.325 . S
N621 C624 1.314 . S
N621 C625 1.279 1_556 S
C622 C620 1.348 . S
C622 C624 1.353 . S
C622 H680 0.929 . S
C623 C620 1.356 . S
C623 C625 1.358 1_556 S
C623 H681 0.930 . S
C624 N621 1.314 . S
C624 C622 1.353 . S
C624 H682 0.930 . S
C625 N621 1.279 1_554 S
C625 C623 1.358 1_554 S
C625 H683 0.930 . S
C626 C629 1.360 . S
C626 C630 1.356 . S
C626 O677 1.325 . S
C627 N628 1.279 . S
C627 C630 1.358 . S
C627 H684 0.930 . S
N628 C627 1.279 . S
N628 C631 1.314 . S
C629 C626 1.360 . S
C629 C631 1.351 . S
C629 H685 0.920 1_455 S
C630 C626 1.356 . S
C630 C627 1.358 . S
C630 H686 0.930 . S
C631 N628 1.314 . S
C631 C629 1.351 . S
C631 H687 0.937 . S
C632 N633 1.314 . S
C632 C637 1.353 . S
C632 H638 0.930 . S
N633 Li616 1.990 . S
N633 C632 1.314 . S
N633 C635 1.279 1_455 S
C634 C635 1.358 1_554 S
C634 C636 1.356 1_655 S
C634 H688 0.930 . S
C635 N633 1.279 1_655 S
C635 C634 1.358 1_556 S
C635 H639 0.930 . S
C636 C634 1.356 1_455 S
C636 C637 1.348 1_554 S
C637 C632 1.353 . S
C637 C636 1.348 1_556 S
C637 H689 0.930 1_556 S
H638 C632 0.930 . S
H639 C635 0.930 . S
C640 N641 1.314 . S
C640 C642 1.353 . S
C640 H646 0.930 . S
N641 Li617 1.990 . S
N641 C640 1.314 . S
N641 C644 1.279 . S
C642 C640 1.353 . S
C642 C645 1.348 . S
C642 H690 0.929 . S
C643 C644 1.358 . S
C643 C645 1.356 . S
C643 H691 0.930 . S
C644 N641 1.279 . S
C644 C643 1.358 . S
C644 H647 0.930 . S
C645 C642 1.348 . S
C645 C643 1.356 . S
H646 C640 0.930 . S
H647 C644 0.930 . S
C648 C650 1.348 . S
C648 C651 1.356 . S
C648 O678 1.325 . S
N649 C652 1.314 1_554 S
N649 C653 1.279 . S
C650 C648 1.348 . S
C650 C652 1.353 . S
C650 H692 0.929 . S
C651 C648 1.356 . S
C651 C653 1.358 1_556 S
C651 H693 0.930 1_556 S
C652 N649 1.314 1_556 S
C652 C650 1.353 . S
C652 H694 0.930 . S
C653 N649 1.279 . S
C653 C651 1.358 1_554 S
C653 H695 0.930 . S
C654 C655 1.348 . S
C654 C656 1.356 . S
C654 O679 1.325 . S
C655 C654 1.348 . S
C655 C657 1.353 . S
C655 H696 0.929 1_655 S
C656 C654 1.356 . S
C656 C658 1.358 . S
C656 H697 0.930 . S
C657 C655 1.353 . S
C657 N659 1.314 . S
C657 H698 0.930 . S
C658 C656 1.358 . S
C658 N659 1.279 . S
C658 H699 0.930 . S
N659 C657 1.314 . S
N659 C658 1.279 . S
C660 C662 1.353 . S
C660 N663 1.314 . S
C660 H666 0.930 . S
C661 N663 1.279 1_455 S
C661 C664 1.358 . S
C661 H667 0.930 . S
C662 C660 1.353 . S
C662 C665 1.348 . S
C662 H700 0.929 . S
N663 Li618 1.986 . S
N663 C660 1.314 . S
N663 C661 1.279 1_655 S
C664 C661 1.358 . S
C664 C665 1.356 1_455 S
C664 H701 0.930 1_556 S
C665 C662 1.348 . S
C665 C664 1.356 1_655 S
H666 C660 0.930 . S
H667 C661 0.930 . S
C668 N669 1.314 . S
C668 C670 1.353 . S
C668 H674 0.930 . S
N669 Li619 1.990 . S
N669 C668 1.314 . S
N669 C672 1.279 . S
C670 C668 1.353 . S
C670 C673 1.348 . S
C670 H702 0.929 . S
C671 C672 1.358 . S
C671 C673 1.356 . S
C671 H703 0.930 . S
C672 N669 1.279 . S
C672 C671 1.358 . S
C672 H675 0.930 . S
C673 C670 1.348 . S
C673 C671 1.356 . S
H674 C668 0.930 . S
H675 C672 0.930 . S
O676 Li616 1.956 1_655 S
O676 Li617 1.970 . S
O676 Li618 2.008 . S
O676 C620 1.325 . S
O677 Li616 1.970 . S
O677 Li617 1.956 1_455 S
O677 Li619 1.961 . S
O677 C626 1.325 . S
O678 Li616 1.961 . S
O678 Li618 1.922 1_455 S
O678 Li619 1.970 . S
O678 C648 1.325 . S
O679 Li617 1.961 . S
O679 Li618 1.970 . S
O679 Li619 1.956 1_655 S
O679 C654 1.325 . S
H680 C622 0.929 . S
H681 C623 0.930 . S
H682 C624 0.930 . S
H683 C625 0.930 . S
H684 C627 0.930 . S
H685 C629 0.920 1_655 S
H686 C630 0.930 . S
H687 C631 0.937 . S
H688 C634 0.930 . S
H689 C637 0.930 1_554 S
H690 C642 0.929 . S
H691 C643 0.930 . S
H692 C650 0.929 . S
H693 C651 0.930 1_554 S
H694 C652 0.930 . S
H695 C653 0.930 . S
H696 C655 0.929 1_455 S
H697 C656 0.930 . S
H698 C657 0.930 . S
H699 C658 0.930 . S
H700 C662 0.929 . S
H701 C664 0.930 1_554 S
H702 C670 0.929 . S
H703 C671 0.930 . S
Li704 N721 1.990 . S
Li704 O764 1.956 1_545 S
Li704 O765 1.971 1_545 S
Li704 O766 1.961 . S
Li705 N729 1.990 . S
Li705 O764 1.970 . S
Li705 O765 1.958 . S
Li705 O767 1.961 . S
Li706 N751 1.990 . S
Li706 O764 1.961 1_545 S
Li706 O766 1.956 . S
Li706 O767 1.970 1_545 S
Li707 N757 1.990 . S
Li707 O765 1.959 1_545 S
Li707 O766 1.970 . S
Li707 O767 1.956 1_545 S
C708 C710 1.348 . S
C708 C711 1.356 . S
C708 O764 1.325 . S
N709 C712 1.314 . S
N709 C713 1.279 . S
C710 C708 1.348 . S
C710 C712 1.353 . S
C710 H768 0.929 . S
C711 C708 1.356 . S
C711 C713 1.358 . S
C711 H769 0.930 . S
C712 N709 1.314 . S
C712 C710 1.353 . S
C712 H770 0.930 . S
C713 N709 1.279 . S
C713 C711 1.358 . S
C713 H771 0.930 . S
C714 C717 1.348 . S
C714 C718 1.356 . S
C714 O765 1.325 . S
C715 N716 1.279 . S
C715 C718 1.358 . S
C715 H772 0.930 . S
N716 C715 1.279 . S
N716 C719 1.314 . S
C717 C714 1.348 . S
C717 C719 1.353 . S
C717 H773 0.929 . S
C718 C714 1.356 . S
C718 C715 1.358 . S
C718 H774 0.944 . S
C719 N716 1.314 . S
C719 C717 1.353 . S
C719 H775 0.930 . S
C720 N721 1.314 . S
C720 C725 1.353 . S
C720 H726 0.930 . S
N721 Li704 1.990 . S
N721 C720 1.314 . S
N721 C723 1.279 1_545 S
C722 C723 1.358 . S
C722 C724 1.356 1_565 S
C722 H776 0.930 . S
C723 N721 1.279 1_565 S
C723 C722 1.358 . S
C723 H727 0.930 . S
C724 C722 1.356 1_545 S
C724 C725 1.348 . S
C725 C720 1.353 . S
C725 C724 1.348 . S
C725 H777 0.929 . S
H726 C720 0.930 . S
H727 C723 0.930 . S
C728 N729 1.314 . S
C728 C730 1.353 . S
C728 H734 0.930 . S
N729 Li705 1.990 . S
N729 C728 1.314 . S
N729 C732 1.279 . S
C730 C728 1.353 . S
C730 C733 1.348 . S
C730 H778 0.929 . S
C731 C732 1.358 . S
C731 C733 1.356 . S
C731 H779 0.930 . S
C732 N729 1.279 . S
C732 C731 1.358 . S
C732 H735 0.930 . S
C733 C730 1.348 . S
C733 C731 1.356 . S
H734 C728 0.930 . S
H735 C732 0.930 . S
C736 C738 1.348 . S
C736 C739 1.356 . S
C736 O766 1.325 . S
N737 C740 1.314 . S
N737 C741 1.279 . S
C738 C736 1.348 . S
C738 C740 1.353 . S
C738 H780 0.929 . S
C739 C736 1.356 . S
C739 C741 1.358 . S
C739 H781 0.930 . S
C740 N737 1.314 . S
C740 C738 1.353 . S
C740 H782 0.930 . S
C741 N737 1.279 . S
C741 C739 1.358 . S
C741 H783 0.930 . S
C742 C743 1.348 . S
C742 C744 1.356 . S
C742 O767 1.325 . S
C743 C742 1.348 . S
C743 C745 1.353 . S
C743 H784 0.929 1_565 S
C744 C742 1.356 . S
C744 C746 1.358 . S
C744 H785 0.930 . S
C745 C743 1.353 . S
C745 N747 1.314 . S
C745 H786 0.947 . S
C746 C744 1.358 . S
C746 N747 1.279 . S
C746 H787 0.930 . S
N747 C745 1.314 . S
N747 C746 1.279 . S
C748 C750 1.353 . S
C748 N751 1.314 1_565 S
C748 H754 0.930 . S
C749 N751 1.279 . S
C749 C752 1.358 . S
C749 H755 0.930 . S
C750 C748 1.353 . S
C750 C753 1.348 1_565 S
C750 H788 0.929 . S
N751 Li706 1.990 . S
N751 C748 1.314 1_545 S
N751 C749 1.279 . S
C752 C749 1.358 . S
C752 C753 1.356 . S
C752 H789 0.930 . S
C753 C750 1.348 1_545 S
C753 C752 1.356 . S
H754 C748 0.930 . S
H755 C749 0.930 . S
C756 N757 1.314 . S
C756 C758 1.353 . S
C756 H762 0.930 . S
N757 Li707 1.990 . S
N757 C756 1.314 . S
N757 C760 1.279 . S
C758 C756 1.353 . S
C758 C761 1.348 . S
C758 H790 0.929 . S
C759 C760 1.358 . S
C759 C761 1.356 . S
C759 H791 0.930 . S
C760 N757 1.279 . S
C760 C759 1.358 . S
C760 H763 0.930 . S
C761 C758 1.348 . S
C761 C759 1.356 . S
H762 C756 0.930 . S
H763 C760 0.930 . S
O764 Li704 1.956 1_565 S
O764 Li705 1.970 . S
O764 Li706 1.961 1_565 S
O764 C708 1.325 . S
O765 Li704 1.971 1_565 S
O765 Li705 1.958 . S
O765 Li707 1.959 1_565 S
O765 C714 1.325 . S
O766 Li704 1.961 . S
O766 Li706 1.956 . S
O766 Li707 1.970 . S
O766 C736 1.325 . S
O767 Li705 1.961 . S
O767 Li706 1.970 1_565 S
O767 Li707 1.956 1_565 S
O767 C742 1.325 . S
H768 C710 0.929 . S
H769 C711 0.930 . S
H770 C712 0.930 . S
H771 C713 0.930 . S
H772 C715 0.930 . S
H773 C717 0.929 . S
H774 C718 0.944 . S
H775 C719 0.930 . S
H776 C722 0.930 . S
H777 C725 0.929 . S
H778 C730 0.929 . S
H779 C731 0.930 . S
H780 C738 0.929 . S
H781 C739 0.930 . S
H782 C740 0.930 . S
H783 C741 0.930 . S
H784 C743 0.929 1_545 S
H785 C744 0.930 . S
H786 C745 0.947 . S
H787 C746 0.930 . S
H788 C750 0.929 . S
H789 C752 0.930 . S
H790 C758 0.929 . S
H791 C759 0.930 . S
Li792 N809 1.990 . S
Li792 O852 1.956 . S
Li792 O853 1.970 . S
Li792 O854 1.961 . S
Li793 N817 1.990 . S
Li793 O852 1.970 . S
Li793 O853 1.956 . S
Li793 O855 1.961 . S
Li794 N839 1.990 . S
Li794 O852 1.961 . S
Li794 O854 1.956 . S
Li794 O855 1.970 . S
Li795 N845 1.990 . S
Li795 O853 1.961 . S
Li795 O854 1.970 . S
Li795 O855 1.956 . S
C796 C798 1.348 . S
C796 C799 1.356 . S
C796 O852 1.325 . S
N797 C800 1.314 . S
N797 C801 1.279 . S
C798 C796 1.348 . S
C798 C800 1.353 . S
C798 H856 0.929 . S
C799 C796 1.356 . S
C799 C801 1.358 . S
C799 H857 0.930 . S
C800 N797 1.314 . S
C800 C798 1.353 . S
C800 H858 0.930 . S
C801 N797 1.279 . S
C801 C799 1.358 . S
C801 H859 0.930 . S
C802 C805 1.348 . S
C802 C806 1.356 . S
C802 O853 1.325 . S
C803 N804 1.279 . S
C803 C806 1.358 . S
C803 H860 0.930 . S
N804 C803 1.279 . S
N804 C807 1.314 . S
C805 C802 1.348 . S
C805 C807 1.353 . S
C805 H861 0.929 . S
C806 C802 1.356 . S
C806 C803 1.358 . S
C806 H862 0.930 . S
C807 N804 1.314 . S
C807 C805 1.353 . S
C807 H863 0.930 . S
C808 N809 1.314 . S
C808 C813 1.353 . S
C808 H814 0.930 . S
N809 Li792 1.990 . S
N809 C808 1.314 . S
N809 C811 1.279 . S
C810 C811 1.358 . S
C810 C812 1.356 . S
C810 H864 0.930 . S
C811 N809 1.279 . S
C811 C810 1.358 . S
C811 H815 0.930 . S
C812 C810 1.356 . S
C812 C813 1.348 . S
C813 C808 1.353 . S
C813 C812 1.348 . S
C813 H865 0.929 . S
H814 C808 0.930 . S
H815 C811 0.930 . S
C816 N817 1.314 . S
C816 C818 1.353 . S
C816 H822 0.930 . S
N817 Li793 1.990 . S
N817 C816 1.314 . S
N817 C820 1.279 . S
C818 C816 1.353 . S
C818 C821 1.348 . S
C818 H866 0.929 . S
C819 C820 1.358 . S
C819 C821 1.356 . S
C819 H867 0.930 . S
C820 N817 1.279 . S
C820 C819 1.358 . S
C820 H823 0.930 . S
C821 C818 1.348 . S
C821 C819 1.356 . S
H822 C816 0.930 . S
H823 C820 0.930 . S
C824 C826 1.348 . S
C824 C827 1.356 . S
C824 O854 1.325 . S
N825 C828 1.314 . S
N825 C829 1.279 . S
C826 C824 1.348 . S
C826 C828 1.353 . S
C826 H868 0.929 . S
C827 C824 1.356 . S
C827 C829 1.358 . S
C827 H869 0.930 . S
C828 N825 1.314 . S
C828 C826 1.353 . S
C828 H870 0.930 . S
C829 N825 1.279 . S
C829 C827 1.358 . S
C829 H871 0.930 . S
C830 C831 1.348 . S
C830 C832 1.356 . S
C830 O855 1.325 . S
C831 C830 1.348 . S
C831 C833 1.353 . S
C831 H872 0.929 . S
C832 C830 1.356 . S
C832 C834 1.358 . S
C832 H873 0.930 . S
C833 C831 1.353 . S
C833 N835 1.314 . S
C833 H874 0.930 . S
C834 C832 1.358 . S
C834 N835 1.279 . S
C834 H875 0.930 . S
N835 C833 1.314 . S
N835 C834 1.279 . S
C836 C838 1.353 . S
C836 N839 1.314 . S
C836 H842 0.930 . S
C837 N839 1.279 . S
C837 C840 1.358 . S
C837 H843 0.930 . S
C838 C836 1.353 . S
C838 C841 1.348 . S
C838 H876 0.929 . S
N839 Li794 1.990 . S
N839 C836 1.314 . S
N839 C837 1.279 . S
C840 C837 1.358 . S
C840 C841 1.356 . S
C840 H877 0.930 . S
C841 C838 1.348 . S
C841 C840 1.356 . S
H842 C836 0.930 . S
H843 C837 0.930 . S
C844 N845 1.314 . S
C844 C846 1.353 . S
C844 H850 0.930 . S
N845 Li795 1.990 . S
N845 C844 1.314 . S
N845 C848 1.279 . S
C846 C844 1.353 . S
C846 C849 1.348 . S
C846 H878 0.929 . S
C847 C848 1.358 . S
C847 C849 1.356 . S
C847 H879 0.930 . S
C848 N845 1.279 . S
C848 C847 1.358 . S
C848 H851 0.930 . S
C849 C846 1.348 . S
C849 C847 1.356 . S
H850 C844 0.930 . S
H851 C848 0.930 . S
O852 Li792 1.956 . S
O852 Li793 1.970 . S
O852 Li794 1.961 . S
O852 C796 1.325 . S
O853 Li792 1.970 . S
O853 Li793 1.956 . S
O853 Li795 1.961 . S
O853 C802 1.325 . S
O854 Li792 1.961 . S
O854 Li794 1.956 . S
O854 Li795 1.970 . S
O854 C824 1.325 . S
O855 Li793 1.961 . S
O855 Li794 1.970 . S
O855 Li795 1.956 . S
O855 C830 1.325 . S
H856 C798 0.929 . S
H857 C799 0.930 . S
H858 C800 0.930 . S
H859 C801 0.930 . S
H860 C803 0.930 . S
H861 C805 0.929 . S
H862 C806 0.930 . S
H863 C807 0.930 . S
H864 C810 0.930 . S
H865 C813 0.929 . S
H866 C818 0.929 . S
H867 C819 0.930 . S
H868 C826 0.929 . S
H869 C827 0.930 . S
H870 C828 0.930 . S
H871 C829 0.930 . S
H872 C831 0.929 . S
H873 C832 0.930 . S
H874 C833 0.930 . S
H875 C834 0.930 . S
H876 C838 0.929 . S
H877 C840 0.930 . S
H878 C846 0.929 . S
H879 C847 0.930 . S
Li880 N897 1.990 . S
Li880 O940 1.956 . S
Li880 O941 1.970 . S
Li880 O942 1.961 . S
Li881 N905 1.990 . S
Li881 O940 1.970 . S
Li881 O941 1.956 . S
Li881 O943 1.961 . S
Li882 N927 1.990 1_545 S
Li882 O940 1.961 . S
Li882 O942 1.956 . S
Li882 O943 1.970 . S
Li883 N933 1.990 . S
Li883 O941 1.961 . S
Li883 O942 1.970 . S
Li883 O943 1.956 . S
C884 C886 1.348 . S
C884 C887 1.356 . S
C884 O940 1.325 . S
N885 C888 1.314 . S
N885 C889 1.279 . S
C886 C884 1.348 . S
C886 C888 1.353 . S
C886 H944 0.929 . S
C887 C884 1.356 . S
C887 C889 1.358 . S
C887 H945 0.930 . S
C888 N885 1.314 . S
C888 C886 1.353 . S
C888 H946 0.930 . S
C889 N885 1.279 . S
C889 C887 1.358 . S
C889 H947 0.930 . S
C890 C893 1.348 . S
C890 C894 1.356 . S
C890 O941 1.325 . S
C891 N892 1.279 . S
C891 C894 1.358 . S
C891 H948 0.930 . S
N892 C891 1.279 . S
N892 C895 1.314 . S
C893 C890 1.348 . S
C893 C895 1.353 . S
C893 H949 0.929 . S
C894 C890 1.356 . S
C894 C891 1.358 . S
C894 H950 0.930 . S
C895 N892 1.314 . S
C895 C893 1.353 . S
C895 H951 0.930 . S
C896 N897 1.314 . S
C896 C901 1.353 . S
C896 H902 0.930 . S
N897 Li880 1.990 . S
N897 C896 1.314 . S
N897 C899 1.279 . S
C898 C899 1.358 . S
C898 C900 1.356 . S
C898 H952 0.930 . S
C899 N897 1.279 . S
C899 C898 1.358 . S
C899 H903 0.930 . S
C900 C898 1.356 . S
C900 C901 1.348 . S
C901 C896 1.353 . S
C901 C900 1.348 . S
C901 H953 0.929 . S
H902 C896 0.930 . S
H903 C899 0.930 . S
C904 N905 1.314 . S
C904 C906 1.353 . S
C904 H910 0.930 . S
N905 Li881 1.990 . S
N905 C904 1.314 . S
N905 C908 1.279 . S
C906 C904 1.353 . S
C906 C909 1.348 . S
C906 H954 0.929 . S
C907 C908 1.358 . S
C907 C909 1.356 . S
C907 H955 0.930 . S
C908 N905 1.279 . S
C908 C907 1.358 . S
C908 H911 0.930 . S
C909 C906 1.348 . S
C909 C907 1.356 . S
H910 C904 0.930 . S
H911 C908 0.930 . S
C912 C914 1.348 . S
C912 C915 1.356 . S
C912 O942 1.325 . S
N913 C916 1.314 . S
N913 C917 1.279 . S
C914 C912 1.348 . S
C914 C916 1.353 . S
C914 H956 0.929 . S
C915 C912 1.356 . S
C915 C917 1.358 . S
C915 H957 0.930 . S
C916 N913 1.314 . S
C916 C914 1.353 . S
C916 H958 0.930 . S
C917 N913 1.279 . S
C917 C915 1.358 . S
C917 H959 0.930 . S
C918 C919 1.348 . S
C918 C920 1.356 . S
C918 O943 1.325 1_565 S
C919 C918 1.348 . S
C919 C921 1.353 . S
C919 H960 0.929 . S
C920 C918 1.356 . S
C920 C922 1.358 . S
C920 H961 0.930 1_565 S
C921 C919 1.353 . S
C921 N923 1.314 . S
C921 H962 0.930 . S
C922 C920 1.358 . S
C922 N923 1.279 . S
C922 H963 0.930 . S
N923 C921 1.314 . S
N923 C922 1.279 . S
C924 C926 1.353 . S
C924 N927 1.314 . S
C924 H930 0.930 . S
C925 N927 1.279 . S
C925 C928 1.358 . S
C925 H931 0.930 . S
C926 C924 1.353 . S
C926 C929 1.348 . S
C926 H964 0.929 . S
N927 Li882 1.990 1_565 S
N927 C924 1.314 . S
N927 C925 1.279 . S
C928 C925 1.358 . S
C928 C929 1.356 . S
C928 H965 0.930 . S
C929 C926 1.348 . S
C929 C928 1.356 . S
H930 C924 0.930 . S
H931 C925 0.930 . S
C932 N933 1.314 . S
C932 C934 1.353 . S
C932 H938 0.930 . S
N933 Li883 1.990 . S
N933 C932 1.314 . S
N933 C936 1.279 . S
C934 C932 1.353 . S
C934 C937 1.348 . S
C934 H966 0.929 . S
C935 C936 1.358 . S
C935 C937 1.356 . S
C935 H967 0.930 1_545 S
C936 N933 1.279 . S
C936 C935 1.358 . S
C936 H939 0.930 1_545 S
C937 C934 1.348 . S
C937 C935 1.356 . S
H938 C932 0.930 . S
H939 C936 0.930 1_565 S
O940 Li880 1.956 . S
O940 Li881 1.970 . S
O940 Li882 1.961 . S
O940 C884 1.325 . S
O941 Li880 1.970 . S
O941 Li881 1.956 . S
O941 Li883 1.961 . S
O941 C890 1.325 . S
O942 Li880 1.961 . S
O942 Li882 1.956 . S
O942 Li883 1.970 . S
O942 C912 1.325 . S
O943 Li881 1.961 . S
O943 Li882 1.970 . S
O943 Li883 1.956 . S
O943 C918 1.325 1_545 S
H944 C886 0.929 . S
H945 C887 0.930 . S
H946 C888 0.930 . S
H947 C889 0.930 . S
H948 C891 0.930 . S
H949 C893 0.929 . S
H950 C894 0.930 . S
H951 C895 0.930 . S
H952 C898 0.930 . S
H953 C901 0.929 . S
H954 C906 0.929 . S
H955 C907 0.930 . S
H956 C914 0.929 . S
H957 C915 0.930 . S
H958 C916 0.930 . S
H959 C917 0.930 . S
H960 C919 0.929 . S
H961 C920 0.930 1_545 S
H962 C921 0.930 . S
H963 C922 0.930 . S
H964 C926 0.929 . S
H965 C928 0.930 . S
H966 C934 0.929 . S
H967 C935 0.930 1_565 S
Li968 N985 1.992 . S
Li968 O1028 1.987 . S
Li968 O1029 1.971 1_554 S
Li968 O1030 1.926 1_554 S
Li969 N993 1.990 . S
Li969 O1028 1.970 . S
Li969 O1029 1.956 1_554 S
Li969 O1031 1.989 . S
Li970 N1015 1.990 . S
Li970 O1028 1.961 . S
Li970 O1030 1.956 1_554 S
Li970 O1031 1.967 . S
Li971 N1021 1.990 . S
Li971 O1029 1.961 . S
Li971 O1030 1.970 . S
Li971 O1031 1.930 1_556 S
C972 C974 1.348 . S
C972 C975 1.356 . S
C972 O1028 1.325 . S
N973 C976 1.314 . S
N973 C977 1.279 . S
C974 C972 1.348 . S
C974 C976 1.353 . S
C974 H1032 0.929 . S
C975 C972 1.356 . S
C975 C977 1.358 . S
C975 H1033 0.930 . S
C976 N973 1.314 . S
C976 C974 1.353 . S
C976 H1034 0.930 . S
C977 N973 1.279 . S
C977 C975 1.358 . S
C977 H1035 0.930 . S
C978 C981 1.333 1_556 S
C978 C982 1.356 . S
C978 O1029 1.325 . S
C979 N980 1.279 . S
C979 C982 1.358 . S
C979 H1036 0.930 . S
N980 C979 1.279 . S
N980 C983 1.314 . S
C981 C978 1.333 1_554 S
C981 C983 1.357 1_554 S
C981 H1037 0.942 . S
C982 C978 1.356 . S
C982 C979 1.358 . S
C982 H1038 0.930 . S
C983 N980 1.314 . S
C983 C981 1.357 1_556 S
C983 H1039 0.930 1_556 S
C984 N985 1.314 1_556 S
C984 C989 1.353 . S
C984 H990 0.930 . S
N985 Li968 1.992 . S
N985 C984 1.314 1_554 S
N985 C987 1.279 . S
C986 C987 1.358 . S
C986 C988 1.364 . S
C986 H1040 0.930 . S
C987 N985 1.279 . S
C987 C986 1.358 . S
C987 H991 0.930 . S
C988 C986 1.364 . S
C988 C989 1.339 1_554 S
C989 C984 1.353 . S
C989 C988 1.339 1_556 S
C989 H1041 0.929 . S
H990 C984 0.930 . S
H991 C987 0.930 . S
C992 N993 1.314 . S
C992 C994 1.353 . S
C992 H998 0.930 . S
N993 Li969 1.990 . S
N993 C992 1.314 . S
N993 C996 1.279 . S
C994 C992 1.353 . S
C994 C997 1.348 . S
C994 H1042 0.929 . S
C995 C996 1.358 . S
C995 C997 1.356 . S
C995 H1043 0.930 . S
C996 N993 1.279 . S
C996 C995 1.358 . S
C996 H999 0.930 . S
C997 C994 1.348 . S
C997 C995 1.356 . S
H998 C992 0.930 . S
H999 C996 0.930 . S
C1000 C1002 1.348 . S
C1000 C1003 1.356 . S
C1000 O1030 1.325 . S
N1001 C1004 1.314 . S
N1001 C1005 1.279 . S
C1002 C1000 1.348 . S
C1002 C1004 1.353 . S
C1002 H1044 0.929 . S
C1003 C1000 1.356 . S
C1003 C1005 1.358 . S
C1003 H1045 0.930 . S
C1004 N1001 1.314 . S
C1004 C1002 1.353 . S
C1004 H1046 0.930 . S
C1005 N1001 1.279 . S
C1005 C1003 1.358 . S
C1005 H1047 0.930 . S
C1006 C1007 1.347 1_554 S
C1006 C1008 1.356 . S
C1006 O1031 1.324 . S
C1007 C1006 1.347 1_556 S
C1007 C1009 1.353 . S
C1007 H1048 0.929 . S
C1008 C1006 1.356 . S
C1008 C1010 1.358 . S
C1008 H1049 0.930 . S
C1009 C1007 1.353 . S
C1009 N1011 1.314 . S
C1009 H1050 0.930 . S
C1010 C1008 1.358 . S
C1010 N1011 1.279 1_554 S
C1010 H1051 0.930 . S
N1011 C1009 1.314 . S
N1011 C1010 1.279 1_556 S
C1012 C1014 1.353 . S
C1012 N1015 1.314 . S
C1012 H1018 0.930 . S
C1013 N1015 1.279 1_556 S
C1013 C1016 1.358 . S
C1013 H1019 0.930 . S
C1014 C1012 1.353 . S
C1014 C1017 1.348 . S
C1014 H1052 0.929 . S
N1015 Li970 1.990 . S
N1015 C1012 1.314 . S
N1015 C1013 1.279 1_554 S
C1016 C1013 1.358 . S
C1016 C1017 1.356 1_556 S
C1016 H1053 0.930 . S
C1017 C1014 1.348 . S
C1017 C1016 1.356 1_554 S
H1018 C1012 0.930 . S
H1019 C1013 0.930 . S
C1020 N1021 1.314 . S
C1020 C1022 1.353 . S
C1020 H1026 0.930 . S
N1021 Li971 1.990 . S
N1021 C1020 1.314 . S
N1021 C1024 1.279 . S
C1022 C1020 1.353 . S
C1022 C1025 1.348 . S
C1022 H1054 0.929 . S
C1023 C1024 1.358 . S
C1023 C1025 1.356 . S
C1023 H1055 0.930 . S
C1024 N1021 1.279 . S
C1024 C1023 1.358 . S
C1024 H1027 0.930 . S
C1025 C1022 1.348 . S
C1025 C1023 1.356 . S
H1026 C1020 0.930 . S
H1027 C1024 0.930 . S
O1028 Li968 1.987 . S
O1028 Li969 1.970 . S
O1028 Li970 1.961 . S
O1028 C972 1.325 . S
O1029 Li968 1.971 1_556 S
O1029 Li969 1.956 1_556 S
O1029 Li971 1.961 . S
O1029 C978 1.325 . S
O1030 Li968 1.926 1_556 S
O1030 Li970 1.956 1_556 S
O1030 Li971 1.970 . S
O1030 C1000 1.325 . S
O1031 Li969 1.989 . S
O1031 Li970 1.967 . S
O1031 Li971 1.930 1_554 S
O1031 C1006 1.324 . S
H1032 C974 0.929 . S
H1033 C975 0.930 . S
H1034 C976 0.930 . S
H1035 C977 0.930 . S
H1036 C979 0.930 . S
H1037 C981 0.942 . S
H1038 C982 0.930 . S
H1039 C983 0.930 1_554 S
H1040 C986 0.930 . S
H1041 C989 0.929 . S
H1042 C994 0.929 . S
H1043 C995 0.930 . S
H1044 C1002 0.929 . S
H1045 C1003 0.930 . S
H1046 C1004 0.930 . S
H1047 C1005 0.930 . S
H1048 C1007 0.929 . S
H1049 C1008 0.930 . S
H1050 C1009 0.930 . S
H1051 C1010 0.930 . S
H1052 C1014 0.929 . S
H1053 C1016 0.930 . S
H1054 C1022 0.929 . S
H1055 C1023 0.930 . S
Li1056 N1073 1.990 . S
Li1056 O1116 1.956 . S
Li1056 O1117 1.970 . S
Li1056 O1118 1.961 . S
Li1057 N1081 1.990 . S
Li1057 O1116 1.970 . S
Li1057 O1117 1.956 . S
Li1057 O1119 1.961 . S
Li1058 N1103 1.990 . S
Li1058 O1116 1.961 . S
Li1058 O1118 1.956 . S
Li1058 O1119 1.970 . S
Li1059 N1109 1.990 1_554 S
Li1059 O1117 1.961 . S
Li1059 O1118 1.970 . S
Li1059 O1119 1.956 . S
C1060 C1062 1.348 . S
C1060 C1063 1.356 . S
C1060 O1116 1.325 . S
N1061 C1064 1.314 . S
N1061 C1065 1.279 . S
C1062 C1060 1.348 . S
C1062 C1064 1.353 . S
C1062 H1120 0.929 . S
C1063 C1060 1.356 . S
C1063 C1065 1.358 . S
C1063 H1121 0.930 . S
C1064 N1061 1.314 . S
C1064 C1062 1.353 . S
C1064 H1122 0.930 . S
C1065 N1061 1.279 . S
C1065 C1063 1.358 . S
C1065 H1123 0.930 . S
C1066 C1069 1.348 . S
C1066 C1070 1.356 . S
C1066 O1117 1.325 . S
C1067 N1068 1.279 . S
C1067 C1070 1.358 . S
C1067 H1124 0.930 . S
N1068 C1067 1.279 . S
N1068 C1071 1.314 . S
C1069 C1066 1.348 . S
C1069 C1071 1.353 . S
C1069 H1125 0.929 . S
C1070 C1066 1.356 . S
C1070 C1067 1.358 . S
C1070 H1126 0.930 . S
C1071 N1068 1.314 . S
C1071 C1069 1.353 . S
C1071 H1127 0.930 . S
C1072 N1073 1.314 . S
C1072 C1077 1.353 . S
C1072 H1078 0.976 . S
N1073 Li1056 1.990 . S
N1073 C1072 1.314 . S
N1073 C1075 1.279 . S
C1074 C1075 1.358 . S
C1074 C1076 1.356 . S
C1074 H1128 0.930 . S
C1075 N1073 1.279 . S
C1075 C1074 1.358 . S
C1075 H1079 0.930 . S
C1076 C1074 1.356 . S
C1076 C1077 1.348 . S
C1077 C1072 1.353 . S
C1077 C1076 1.348 . S
C1077 H1129 0.929 1_554 S
H1078 C1072 0.976 . S
H1079 C1075 0.930 . S
C1080 N1081 1.314 . S
C1080 C1082 1.353 . S
C1080 H1086 0.930 . S
N1081 Li1057 1.990 . S
N1081 C1080 1.314 . S
N1081 C1084 1.279 . S
C1082 C1080 1.353 . S
C1082 C1085 1.348 . S
C1082 H1130 0.929 . S
C1083 C1084 1.358 . S
C1083 C1085 1.356 . S
C1083 H1131 0.930 . S
C1084 N1081 1.279 . S
C1084 C1083 1.358 . S
C1084 H1087 0.930 . S
C1085 C1082 1.348 . S
C1085 C1083 1.356 . S
H1086 C1080 0.930 . S
H1087 C1084 0.930 . S
C1088 C1090 1.348 . S
C1088 C1091 1.356 . S
C1088 O1118 1.325 1_556 S
N1089 C1092 1.314 . S
N1089 C1093 1.279 . S
C1090 C1088 1.348 . S
C1090 C1092 1.353 . S
C1090 H1132 0.929 . S
C1091 C1088 1.356 . S
C1091 C1093 1.358 . S
C1091 H1133 0.930 1_556 S
C1092 N1089 1.314 . S
C1092 C1090 1.353 . S
C1092 H1134 0.930 . S
C1093 N1089 1.279 . S
C1093 C1091 1.358 . S
C1093 H1135 0.930 . S
C1094 C1095 1.348 . S
C1094 C1096 1.356 . S
C1094 O1119 1.325 . S
C1095 C1094 1.348 . S
C1095 C1097 1.353 . S
C1095 H1136 0.929 . S
C1096 C1094 1.356 . S
C1096 C1098 1.358 . S
C1096 H1137 0.930 . S
C1097 C1095 1.353 . S
C1097 N1099 1.314 . S
C1097 H1138 0.930 . S
C1098 C1096 1.358 . S
C1098 N1099 1.279 . S
C1098 H1139 0.930 . S
N1099 C1097 1.314 . S
N1099 C1098 1.279 . S
C1100 C1102 1.353 . S
C1100 N1103 1.314 . S
C1100 H1106 0.930 . S
C1101 N1103 1.279 . S
C1101 C1104 1.358 . S
C1101 H1107 0.930 . S
C1102 C1100 1.353 . S
C1102 C1105 1.348 . S
C1102 H1140 0.929 . S
N1103 Li1058 1.990 . S
N1103 C1100 1.314 . S
N1103 C1101 1.279 . S
C1104 C1101 1.358 . S
C1104 C1105 1.356 . S
C1104 H1141 0.930 . S
C1105 C1102 1.348 . S
C1105 C1104 1.356 . S
H1106 C1100 0.930 . S
H1107 C1101 0.930 . S
C1108 N1109 1.314 . S
C1108 C1110 1.353 . S
C1108 H1114 0.930 . S
N1109 Li1059 1.990 1_556 S
N1109 C1108 1.314 . S
N1109 C1112 1.279 . S
C1110 C1108 1.353 . S
C1110 C1113 1.348 . S
C1110 H1142 0.929 . S
C1111 C1112 1.358 . S
C1111 C1113 1.356 . S
C1111 H1143 0.930 . S
C1112 N1109 1.279 . S
C1112 C1111 1.358 . S
C1112 H1115 0.930 . S
C1113 C1110 1.348 . S
C1113 C1111 1.356 . S
H1114 C1108 0.930 . S
H1115 C1112 0.930 . S
O1116 Li1056 1.956 . S
O1116 Li1057 1.970 . S
O1116 Li1058 1.961 . S
O1116 C1060 1.325 . S
O1117 Li1056 1.970 . S
O1117 Li1057 1.956 . S
O1117 Li1059 1.961 . S
O1117 C1066 1.325 . S
O1118 Li1056 1.961 . S
O1118 Li1058 1.956 . S
O1118 Li1059 1.970 . S
O1118 C1088 1.325 1_554 S
O1119 Li1057 1.961 . S
O1119 Li1058 1.970 . S
O1119 Li1059 1.956 . S
O1119 C1094 1.325 . S
H1120 C1062 0.929 . S
H1121 C1063 0.930 . S
H1122 C1064 0.930 . S
H1123 C1065 0.930 . S
H1124 C1067 0.930 . S
H1125 C1069 0.929 . S
H1126 C1070 0.930 . S
H1127 C1071 0.930 . S
H1128 C1074 0.930 . S
H1129 C1077 0.929 1_556 S
H1130 C1082 0.929 . S
H1131 C1083 0.930 . S
H1132 C1090 0.929 . S
H1133 C1091 0.930 1_554 S
H1134 C1092 0.930 . S
H1135 C1093 0.930 . S
H1136 C1095 0.929 . S
H1137 C1096 0.930 . S
H1138 C1097 0.930 . S
H1139 C1098 0.930 . S
H1140 C1102 0.929 . S
H1141 C1104 0.930 . S
H1142 C1110 0.929 . S
H1143 C1111 0.930 . S
Li1144 N1161 1.990 . S
Li1144 O1204 1.956 . S
Li1144 O1205 1.970 . S
Li1144 O1206 1.961 . S
Li1145 N1169 1.990 . S
Li1145 O1204 1.970 . S
Li1145 O1205 1.956 . S
Li1145 O1207 1.961 . S
Li1146 N1191 1.990 . S
Li1146 O1204 1.961 . S
Li1146 O1206 1.956 . S
Li1146 O1207 1.970 . S
Li1147 N1197 1.990 . S
Li1147 O1205 1.961 . S
Li1147 O1206 1.970 . S
Li1147 O1207 1.956 . S
C1148 C1150 1.348 . S
C1148 C1151 1.356 . S
C1148 O1204 1.325 . S
N1149 C1152 1.314 . S
N1149 C1153 1.279 . S
C1150 C1148 1.348 . S
C1150 C1152 1.353 . S
C1150 H1208 0.929 . S
C1151 C1148 1.356 . S
C1151 C1153 1.358 . S
C1151 H1209 0.930 . S
C1152 N1149 1.314 . S
C1152 C1150 1.353 . S
C1152 H1210 0.930 . S
C1153 N1149 1.279 . S
C1153 C1151 1.358 . S
C1153 H1211 0.930 . S
C1154 C1157 1.348 . S
C1154 C1158 1.356 . S
C1154 O1205 1.325 . S
C1155 N1156 1.279 . S
C1155 C1158 1.358 . S
C1155 H1212 0.930 . S
N1156 C1155 1.279 . S
N1156 C1159 1.314 . S
C1157 C1154 1.348 . S
C1157 C1159 1.353 . S
C1157 H1213 0.929 . S
C1158 C1154 1.356 . S
C1158 C1155 1.358 . S
C1158 H1214 0.930 . S
C1159 N1156 1.314 . S
C1159 C1157 1.353 . S
C1159 H1215 0.930 . S
C1160 N1161 1.314 . S
C1160 C1165 1.353 . S
C1160 H1166 0.930 . S
N1161 Li1144 1.990 . S
N1161 C1160 1.314 . S
N1161 C1163 1.279 . S
C1162 C1163 1.358 . S
C1162 C1164 1.356 . S
C1162 H1216 0.930 . S
C1163 N1161 1.279 . S
C1163 C1162 1.358 . S
C1163 H1167 0.930 . S
C1164 C1162 1.356 . S
C1164 C1165 1.348 . S
C1165 C1160 1.353 . S
C1165 C1164 1.348 . S
C1165 H1217 0.929 . S
H1166 C1160 0.930 . S
H1167 C1163 0.930 . S
C1168 N1169 1.314 . S
C1168 C1170 1.353 . S
C1168 H1174 0.930 . S
N1169 Li1145 1.990 . S
N1169 C1168 1.314 . S
N1169 C1172 1.279 . S
C1170 C1168 1.353 . S
C1170 C1173 1.348 . S
C1170 H1218 0.929 . S
C1171 C1172 1.358 . S
C1171 C1173 1.356 . S
C1171 H1219 0.930 . S
C1172 N1169 1.279 . S
C1172 C1171 1.358 . S
C1172 H1175 0.930 . S
C1173 C1170 1.348 . S
C1173 C1171 1.356 . S
H1174 C1168 0.930 . S
H1175 C1172 0.930 . S
C1176 C1178 1.348 . S
C1176 C1179 1.356 . S
C1176 O1206 1.325 . S
N1177 C1180 1.314 . S
N1177 C1181 1.279 . S
C1178 C1176 1.348 . S
C1178 C1180 1.353 . S
C1178 H1220 0.929 . S
C1179 C1176 1.356 . S
C1179 C1181 1.358 . S
C1179 H1221 0.930 . S
C1180 N1177 1.314 . S
C1180 C1178 1.353 . S
C1180 H1222 0.930 . S
C1181 N1177 1.279 . S
C1181 C1179 1.358 . S
C1181 H1223 0.930 . S
C1182 C1183 1.348 1_554 S
C1182 C1184 1.356 . S
C1182 O1207 1.325 . S
C1183 C1182 1.348 1_556 S
C1183 C1185 1.353 . S
C1183 H1224 0.929 . S
C1184 C1182 1.356 . S
C1184 C1186 1.358 1_554 S
C1184 H1225 0.930 . S
C1185 C1183 1.353 . S
C1185 N1187 1.314 . S
C1185 H1226 0.930 . S
C1186 C1184 1.358 1_556 S
C1186 N1187 1.279 . S
C1186 H1227 0.930 . S
N1187 C1185 1.314 . S
N1187 C1186 1.279 . S
C1188 C1190 1.401 . S
C1188 N1191 1.281 1_556 S
C1188 H1194 0.916 1_556 S
C1189 N1191 1.279 . S
C1189 C1192 1.358 1_554 S
C1189 H1195 0.930 . S
C1190 C1188 1.401 . S
C1190 C1193 1.348 . S
C1190 H1228 0.929 . S
N1191 Li1146 1.990 . S
N1191 C1188 1.281 1_554 S
N1191 C1189 1.279 . S
C1192 C1189 1.358 1_556 S
C1192 C1193 1.356 . S
C1192 H1229 0.930 . S
C1193 C1190 1.348 . S
C1193 C1192 1.356 . S
H1194 C1188 0.916 1_554 S
H1195 C1189 0.930 . S
C1196 N1197 1.314 . S
C1196 C1198 1.353 . S
C1196 H1202 0.930 . S
N1197 Li1147 1.990 . S
N1197 C1196 1.314 . S
N1197 C1200 1.279 . S
C1198 C1196 1.353 . S
C1198 C1201 1.348 . S
C1198 H1230 0.929 . S
C1199 C1200 1.358 . S
C1199 C1201 1.356 . S
C1199 H1231 0.930 . S
C1200 N1197 1.279 . S
C1200 C1199 1.358 . S
C1200 H1203 0.930 . S
C1201 C1198 1.348 . S
C1201 C1199 1.356 . S
H1202 C1196 0.930 . S
H1203 C1200 0.930 . S
O1204 Li1144 1.956 . S
O1204 Li1145 1.970 . S
O1204 Li1146 1.961 . S
O1204 C1148 1.325 . S
O1205 Li1144 1.970 . S
O1205 Li1145 1.956 . S
O1205 Li1147 1.961 . S
O1205 C1154 1.325 . S
O1206 Li1144 1.961 . S
O1206 Li1146 1.956 . S
O1206 Li1147 1.970 . S
O1206 C1176 1.325 . S
O1207 Li1145 1.961 . S
O1207 Li1146 1.970 . S
O1207 Li1147 1.956 . S
O1207 C1182 1.325 . S
H1208 C1150 0.929 . S
H1209 C1151 0.930 . S
H1210 C1152 0.930 . S
H1211 C1153 0.930 . S
H1212 C1155 0.930 . S
H1213 C1157 0.929 . S
H1214 C1158 0.930 . S
H1215 C1159 0.930 . S
H1216 C1162 0.930 . S
H1217 C1165 0.929 . S
H1218 C1170 0.929 . S
H1219 C1171 0.930 . S
H1220 C1178 0.929 . S
H1221 C1179 0.930 . S
H1222 C1180 0.930 . S
H1223 C1181 0.930 . S
H1224 C1183 0.929 . S
H1225 C1184 0.930 . S
H1226 C1185 0.930 . S
H1227 C1186 0.930 . S
H1228 C1190 0.929 . S
H1229 C1192 0.930 . S
H1230 C1198 0.929 . S
H1231 C1199 0.930 . S
Li1232 N1249 1.990 . S
Li1232 O1292 1.956 . S
Li1232 O1293 1.970 . S
Li1232 O1294 1.961 . S
Li1233 N1257 1.990 . S
Li1233 O1292 1.970 . S
Li1233 O1293 1.956 . S
Li1233 O1295 1.961 . S
Li1234 N1279 1.990 . S
Li1234 O1292 1.961 . S
Li1234 O1294 1.956 . S
Li1234 O1295 1.970 . S
Li1235 N1285 1.990 . S
Li1235 O1293 1.961 . S
Li1235 O1294 1.970 . S
Li1235 O1295 1.956 . S
C1236 C1238 1.348 . S
C1236 C1239 1.356 . S
C1236 O1292 1.325 . S
N1237 C1240 1.314 . S
N1237 C1241 1.279 . S
C1238 C1236 1.348 . S
C1238 C1240 1.353 . S
C1238 H1296 0.929 . S
C1239 C1236 1.356 . S
C1239 C1241 1.358 . S
C1239 H1297 0.930 . S
C1240 N1237 1.314 . S
C1240 C1238 1.353 . S
C1240 H1298 0.930 . S
C1241 N1237 1.279 . S
C1241 C1239 1.358 . S
C1241 H1299 0.930 . S
C1242 C1245 1.348 . S
C1242 C1246 1.356 . S
C1242 O1293 1.325 . S
C1243 N1244 1.279 . S
C1243 C1246 1.358 . S
C1243 H1300 0.930 . S
N1244 C1243 1.279 . S
N1244 C1247 1.314 . S
C1245 C1242 1.348 . S
C1245 C1247 1.353 . S
C1245 H1301 0.929 . S
C1246 C1242 1.356 . S
C1246 C1243 1.358 . S
C1246 H1302 0.930 . S
C1247 N1244 1.314 . S
C1247 C1245 1.353 . S
C1247 H1303 0.930 . S
C1248 N1249 1.314 . S
C1248 C1253 1.353 . S
C1248 H1254 0.930 . S
N1249 Li1232 1.990 . S
N1249 C1248 1.314 . S
N1249 C1251 1.279 . S
C1250 C1251 1.358 . S
C1250 C1252 1.356 . S
C1250 H1304 0.930 . S
C1251 N1249 1.279 . S
C1251 C1250 1.358 . S
C1251 H1255 0.930 . S
C1252 C1250 1.356 . S
C1252 C1253 1.348 . S
C1253 C1248 1.353 . S
C1253 C1252 1.348 . S
C1253 H1305 0.929 . S
H1254 C1248 0.930 . S
H1255 C1251 0.930 . S
C1256 N1257 1.314 . S
C1256 C1258 1.353 . S
C1256 H1262 0.930 . S
N1257 Li1233 1.990 . S
N1257 C1256 1.314 . S
N1257 C1260 1.279 . S
C1258 C1256 1.353 . S
C1258 C1261 1.348 . S
C1258 H1306 0.929 . S
C1259 C1260 1.358 . S
C1259 C1261 1.356 . S
C1259 H1307 0.930 . S
C1260 N1257 1.279 . S
C1260 C1259 1.358 . S
C1260 H1263 0.930 . S
C1261 C1258 1.348 . S
C1261 C1259 1.356 . S
H1262 C1256 0.930 . S
H1263 C1260 0.930 . S
C1264 C1266 1.348 . S
C1264 C1267 1.356 . S
C1264 O1294 1.325 . S
N1265 C1268 1.314 . S
N1265 C1269 1.279 . S
C1266 C1264 1.348 . S
C1266 C1268 1.353 . S
C1266 H1308 0.929 . S
C1267 C1264 1.356 . S
C1267 C1269 1.358 . S
C1267 H1309 0.930 . S
C1268 N1265 1.314 . S
C1268 C1266 1.353 . S
C1268 H1310 0.930 . S
C1269 N1265 1.279 . S
C1269 C1267 1.358 . S
C1269 H1311 0.930 . S
C1270 C1271 1.348 . S
C1270 C1272 1.356 . S
C1270 O1295 1.325 . S
C1271 C1270 1.348 . S
C1271 C1273 1.353 . S
C1271 H1312 0.929 . S
C1272 C1270 1.356 . S
C1272 C1274 1.358 . S
C1272 H1313 0.930 . S
C1273 C1271 1.353 . S
C1273 N1275 1.314 . S
C1273 H1314 0.930 . S
C1274 C1272 1.358 . S
C1274 N1275 1.279 . S
C1274 H1315 0.930 . S
N1275 C1273 1.314 . S
N1275 C1274 1.279 . S
C1276 C1278 1.353 . S
C1276 N1279 1.314 . S
C1276 H1282 0.930 . S
C1277 N1279 1.279 . S
C1277 C1280 1.358 . S
C1277 H1283 0.930 . S
C1278 C1276 1.353 . S
C1278 C1281 1.348 . S
C1278 H1316 0.929 . S
N1279 Li1234 1.990 . S
N1279 C1276 1.314 . S
N1279 C1277 1.279 . S
C1280 C1277 1.358 . S
C1280 C1281 1.356 . S
C1280 H1317 0.930 . S
C1281 C1278 1.348 . S
C1281 C1280 1.356 . S
H1282 C1276 0.930 . S
H1283 C1277 0.930 . S
C1284 N1285 1.314 . S
C1284 C1286 1.353 . S
C1284 H1290 0.930 . S
N1285 Li1235 1.990 . S
N1285 C1284 1.314 . S
N1285 C1288 1.279 . S
C1286 C1284 1.353 . S
C1286 C1289 1.348 . S
C1286 H1318 0.929 . S
C1287 C1288 1.358 . S
C1287 C1289 1.356 . S
C1287 H1319 0.930 . S
C1288 N1285 1.279 . S
C1288 C1287 1.358 . S
C1288 H1291 0.930 . S
C1289 C1286 1.348 . S
C1289 C1287 1.356 . S
H1290 C1284 0.930 . S
H1291 C1288 0.930 . S
O1292 Li1232 1.956 . S
O1292 Li1233 1.970 . S
O1292 Li1234 1.961 . S
O1292 C1236 1.325 . S
O1293 Li1232 1.970 . S
O1293 Li1233 1.956 . S
O1293 Li1235 1.961 . S
O1293 C1242 1.325 . S
O1294 Li1232 1.961 . S
O1294 Li1234 1.956 . S
O1294 Li1235 1.970 . S
O1294 C1264 1.325 . S
O1295 Li1233 1.961 . S
O1295 Li1234 1.970 . S
O1295 Li1235 1.956 . S
O1295 C1270 1.325 . S
H1296 C1238 0.929 . S
H1297 C1239 0.930 . S
H1298 C1240 0.930 . S
H1299 C1241 0.930 . S
H1300 C1243 0.930 . S
H1301 C1245 0.929 . S
H1302 C1246 0.930 . S
H1303 C1247 0.930 . S
H1304 C1250 0.930 . S
H1305 C1253 0.929 . S
H1306 C1258 0.929 . S
H1307 C1259 0.930 . S
H1308 C1266 0.929 . S
H1309 C1267 0.930 . S
H1310 C1268 0.930 . S
H1311 C1269 0.930 . S
H1312 C1271 0.929 . S
H1313 C1272 0.930 . S
H1314 C1273 0.930 . S
H1315 C1274 0.930 . S
H1316 C1278 0.929 . S
H1317 C1280 0.930 . S
H1318 C1286 0.929 . S
H1319 C1287 0.930 . S
Li1320 N1337 1.990 . S
Li1320 O1380 1.956 . S
Li1320 O1381 1.970 . S
Li1320 O1382 1.961 . S
Li1321 N1345 1.990 . S
Li1321 O1380 1.970 . S
Li1321 O1381 1.956 . S
Li1321 O1383 1.961 . S
Li1322 N1367 1.990 . S
Li1322 O1380 1.961 . S
Li1322 O1382 1.956 . S
Li1322 O1383 1.970 . S
Li1323 N1373 1.990 . S
Li1323 O1381 1.961 . S
Li1323 O1382 1.970 . S
Li1323 O1383 1.956 . S
C1324 C1326 1.348 . S
C1324 C1327 1.356 . S
C1324 O1380 1.325 . S
N1325 C1328 1.314 . S
N1325 C1329 1.279 . S
C1326 C1324 1.348 . S
C1326 C1328 1.353 . S
C1326 H1384 0.929 . S
C1327 C1324 1.356 . S
C1327 C1329 1.358 . S
C1327 H1385 0.930 . S
C1328 N1325 1.314 . S
C1328 C1326 1.353 . S
C1328 H1386 0.930 . S
C1329 N1325 1.279 . S
C1329 C1327 1.358 . S
C1329 H1387 0.930 . S
C1330 C1333 1.348 . S
C1330 C1334 1.356 . S
C1330 O1381 1.325 . S
C1331 N1332 1.279 . S
C1331 C1334 1.358 . S
C1331 H1388 0.930 . S
N1332 C1331 1.279 . S
N1332 C1335 1.314 . S
C1333 C1330 1.348 . S
C1333 C1335 1.353 . S
C1333 H1389 0.929 . S
C1334 C1330 1.356 . S
C1334 C1331 1.358 . S
C1334 H1390 0.930 . S
C1335 N1332 1.314 . S
C1335 C1333 1.353 . S
C1335 H1391 0.930 . S
C1336 N1337 1.314 . S
C1336 C1341 1.353 . S
C1336 H1342 0.930 . S
N1337 Li1320 1.990 . S
N1337 C1336 1.314 . S
N1337 C1339 1.279 . S
C1338 C1339 1.358 . S
C1338 C1340 1.356 . S
C1338 H1392 0.930 . S
C1339 N1337 1.279 . S
C1339 C1338 1.358 . S
C1339 H1343 0.930 . S
C1340 C1338 1.356 . S
C1340 C1341 1.348 . S
C1341 C1336 1.353 . S
C1341 C1340 1.348 . S
C1341 H1393 0.929 . S
H1342 C1336 0.930 . S
H1343 C1339 0.930 . S
C1344 N1345 1.314 . S
C1344 C1346 1.353 . S
C1344 H1350 0.930 . S
N1345 Li1321 1.990 . S
N1345 C1344 1.314 . S
N1345 C1348 1.279 . S
C1346 C1344 1.353 . S
C1346 C1349 1.348 . S
C1346 H1394 0.929 . S
C1347 C1348 1.358 . S
C1347 C1349 1.356 . S
C1347 H1395 0.930 . S
C1348 N1345 1.279 . S
C1348 C1347 1.358 . S
C1348 H1351 0.930 . S
C1349 C1346 1.348 . S
C1349 C1347 1.356 . S
H1350 C1344 0.930 . S
H1351 C1348 0.930 . S
C1352 C1354 1.348 . S
C1352 C1355 1.356 . S
C1352 O1382 1.325 . S
N1353 C1356 1.314 . S
N1353 C1357 1.279 . S
C1354 C1352 1.348 . S
C1354 C1356 1.353 . S
C1354 H1396 0.929 . S
C1355 C1352 1.356 . S
C1355 C1357 1.358 . S
C1355 H1397 0.930 . S
C1356 N1353 1.314 . S
C1356 C1354 1.353 . S
C1356 H1398 0.930 . S
C1357 N1353 1.279 . S
C1357 C1355 1.358 . S
C1357 H1399 0.930 . S
C1358 C1359 1.348 . S
C1358 C1360 1.356 . S
C1358 O1383 1.325 . S
C1359 C1358 1.348 . S
C1359 C1361 1.353 . S
C1359 H1400 0.929 . S
C1360 C1358 1.356 . S
C1360 C1362 1.358 . S
C1360 H1401 0.930 . S
C1361 C1359 1.353 . S
C1361 N1363 1.314 . S
C1361 H1402 0.930 . S
C1362 C1360 1.358 . S
C1362 N1363 1.279 . S
C1362 H1403 0.930 . S
N1363 C1361 1.314 . S
N1363 C1362 1.279 . S
C1364 C1366 1.353 . S
C1364 N1367 1.314 . S
C1364 H1370 0.930 . S
C1365 N1367 1.279 . S
C1365 C1368 1.358 . S
C1365 H1371 0.930 . S
C1366 C1364 1.353 . S
C1366 C1369 1.348 . S
C1366 H1404 0.929 . S
N1367 Li1322 1.990 . S
N1367 C1364 1.314 . S
N1367 C1365 1.279 . S
C1368 C1365 1.358 . S
C1368 C1369 1.356 . S
C1368 H1405 0.930 . S
C1369 C1366 1.348 . S
C1369 C1368 1.356 . S
H1370 C1364 0.930 . S
H1371 C1365 0.930 . S
C1372 N1373 1.314 . S
C1372 C1374 1.353 . S
C1372 H1378 0.930 . S
N1373 Li1323 1.990 . S
N1373 C1372 1.314 . S
N1373 C1376 1.279 . S
C1374 C1372 1.353 . S
C1374 C1377 1.348 . S
C1374 H1406 0.929 . S
C1375 C1376 1.358 . S
C1375 C1377 1.356 . S
C1375 H1407 0.930 . S
C1376 N1373 1.279 . S
C1376 C1375 1.358 . S
C1376 H1379 0.930 . S
C1377 C1374 1.348 . S
C1377 C1375 1.356 . S
H1378 C1372 0.930 . S
H1379 C1376 0.930 . S
O1380 Li1320 1.956 . S
O1380 Li1321 1.970 . S
O1380 Li1322 1.961 . S
O1380 C1324 1.325 . S
O1381 Li1320 1.970 . S
O1381 Li1321 1.956 . S
O1381 Li1323 1.961 . S
O1381 C1330 1.325 . S
O1382 Li1320 1.961 . S
O1382 Li1322 1.956 . S
O1382 Li1323 1.970 . S
O1382 C1352 1.325 . S
O1383 Li1321 1.961 . S
O1383 Li1322 1.970 . S
O1383 Li1323 1.956 . S
O1383 C1358 1.325 . S
H1384 C1326 0.929 . S
H1385 C1327 0.930 . S
H1386 C1328 0.930 . S
H1387 C1329 0.930 . S
H1388 C1331 0.930 . S
H1389 C1333 0.929 . S
H1390 C1334 0.930 . S
H1391 C1335 0.930 . S
H1392 C1338 0.930 . S
H1393 C1341 0.929 . S
H1394 C1346 0.929 . S
H1395 C1347 0.930 . S
H1396 C1354 0.929 . S
H1397 C1355 0.930 . S
H1398 C1356 0.930 . S
H1399 C1357 0.930 . S
H1400 C1359 0.929 . S
H1401 C1360 0.930 . S
H1402 C1361 0.930 . S
H1403 C1362 0.930 . S
H1404 C1366 0.929 . S
H1405 C1368 0.930 . S
H1406 C1374 0.929 . S
H1407 C1375 0.930 . S
Li1408 N1425 1.990 . S
Li1408 O1468 1.956 . S
Li1408 O1469 1.970 . S
Li1408 O1470 1.961 . S
Li1409 N1433 1.990 1_545 S
Li1409 O1468 1.970 . S
Li1409 O1469 1.956 . S
Li1409 O1471 1.961 . S
Li1410 N1455 1.990 . S
Li1410 O1468 1.961 . S
Li1410 O1470 1.956 . S
Li1410 O1471 1.970 . S
Li1411 N1461 1.990 . S
Li1411 O1469 1.961 . S
Li1411 O1470 1.970 . S
Li1411 O1471 1.956 . S
C1412 C1414 1.348 . S
C1412 C1415 1.356 1_565 S
C1412 O1468 1.325 1_565 S
N1413 C1416 1.314 . S
N1413 C1417 1.279 . S
C1414 C1412 1.348 . S
C1414 C1416 1.353 . S
C1414 H1472 0.929 . S
C1415 C1412 1.356 1_545 S
C1415 C1417 1.358 1_545 S
C1415 H1473 0.930 . S
C1416 N1413 1.314 . S
C1416 C1414 1.353 . S
C1416 H1474 0.930 . S
C1417 N1413 1.279 . S
C1417 C1415 1.358 1_565 S
C1417 H1475 0.930 . S
C1418 C1421 1.348 . S
C1418 C1422 1.356 . S
C1418 O1469 1.325 . S
C1419 N1420 1.279 . S
C1419 C1422 1.358 . S
C1419 H1476 0.930 . S
N1420 C1419 1.279 . S
N1420 C1423 1.314 . S
C1421 C1418 1.348 . S
C1421 C1423 1.353 . S
C1421 H1477 0.929 . S
C1422 C1418 1.356 . S
C1422 C1419 1.358 . S
C1422 H1478 0.930 . S
C1423 N1420 1.314 . S
C1423 C1421 1.353 . S
C1423 H1479 0.930 . S
C1424 N1425 1.314 . S
C1424 C1429 1.353 . S
C1424 H1430 0.930 . S
N1425 Li1408 1.990 . S
N1425 C1424 1.314 . S
N1425 C1427 1.279 . S
C1426 C1427 1.358 . S
C1426 C1428 1.356 . S
C1426 H1480 0.930 . S
C1427 N1425 1.279 . S
C1427 C1426 1.358 . S
C1427 H1431 0.930 . S
C1428 C1426 1.356 . S
C1428 C1429 1.348 . S
C1429 C1424 1.353 . S
C1429 C1428 1.348 . S
C1429 H1481 0.929 . S
H1430 C1424 0.930 . S
H1431 C1427 0.930 . S
C1432 N1433 1.314 . S
C1432 C1434 1.353 . S
C1432 H1438 0.930 . S
N1433 Li1409 1.990 1_565 S
N1433 C1432 1.314 . S
N1433 C1436 1.279 . S
C1434 C1432 1.353 . S
C1434 C1437 1.348 . S
C1434 H1482 0.929 . S
C1435 C1436 1.358 . S
C1435 C1437 1.356 . S
C1435 H1483 0.930 . S
C1436 N1433 1.279 . S
C1436 C1435 1.358 . S
C1436 H1439 0.930 . S
C1437 C1434 1.348 . S
C1437 C1435 1.356 . S
H1438 C1432 0.930 . S
H1439 C1436 0.930 . S
C1440 C1442 1.348 . S
C1440 C1443 1.356 . S
C1440 O1470 1.325 . S
N1441 C1444 1.314 . S
N1441 C1445 1.279 . S
C1442 C1440 1.348 . S
C1442 C1444 1.353 . S
C1442 H1484 0.929 . S
C1443 C1440 1.356 . S
C1443 C1445 1.358 . S
C1443 H1485 0.930 . S
C1444 N1441 1.314 . S
C1444 C1442 1.353 . S
C1444 H1486 0.930 . S
C1445 N1441 1.279 . S
C1445 C1443 1.358 . S
C1445 H1487 0.930 1_655 S
C1446 C1447 1.348 . S
C1446 C1448 1.356 . S
C1446 O1471 1.325 . S
C1447 C1446 1.348 . S
C1447 C1449 1.353 . S
C1447 H1488 0.929 . S
C1448 C1446 1.356 . S
C1448 C1450 1.358 . S
C1448 H1489 0.930 . S
C1449 C1447 1.353 . S
C1449 N1451 1.314 . S
C1449 H1490 0.930 . S
C1450 C1448 1.358 . S
C1450 N1451 1.279 . S
C1450 H1491 0.930 . S
N1451 C1449 1.314 . S
N1451 C1450 1.279 . S
C1452 C1454 1.353 . S
C1452 N1455 1.314 . S
C1452 H1458 0.930 . S
C1453 N1455 1.279 . S
C1453 C1456 1.358 . S
C1453 H1459 0.930 . S
C1454 C1452 1.353 . S
C1454 C1457 1.348 . S
C1454 H1492 0.929 . S
N1455 Li1410 1.990 . S
N1455 C1452 1.314 . S
N1455 C1453 1.279 . S
C1456 C1453 1.358 . S
C1456 C1457 1.356 . S
C1456 H1493 0.930 . S
C1457 C1454 1.348 . S
C1457 C1456 1.356 . S
H1458 C1452 0.930 . S
H1459 C1453 0.930 . S
C1460 N1461 1.314 . S
C1460 C1462 1.353 . S
C1460 H1466 0.930 . S
N1461 Li1411 1.990 . S
N1461 C1460 1.314 . S
N1461 C1464 1.279 . S
C1462 C1460 1.353 . S
C1462 C1465 1.348 . S
C1462 H1494 0.929 . S
C1463 C1464 1.358 . S
C1463 C1465 1.356 . S
C1463 H1495 0.930 . S
C1464 N1461 1.279 . S
C1464 C1463 1.358 . S
C1464 H1467 0.930 . S
C1465 C1462 1.348 . S
C1465 C1463 1.356 . S
H1466 C1460 0.930 . S
H1467 C1464 0.930 . S
O1468 Li1408 1.956 . S
O1468 Li1409 1.970 . S
O1468 Li1410 1.961 . S
O1468 C1412 1.325 1_545 S
O1469 Li1408 1.970 . S
O1469 Li1409 1.956 . S
O1469 Li1411 1.961 . S
O1469 C1418 1.325 . S
O1470 Li1408 1.961 . S
O1470 Li1410 1.956 . S
O1470 Li1411 1.970 . S
O1470 C1440 1.325 . S
O1471 Li1409 1.961 . S
O1471 Li1410 1.970 . S
O1471 Li1411 1.956 . S
O1471 C1446 1.325 . S
H1472 C1414 0.929 . S
H1473 C1415 0.930 . S
H1474 C1416 0.930 . S
H1475 C1417 0.930 . S
H1476 C1419 0.930 . S
H1477 C1421 0.929 . S
H1478 C1422 0.930 . S
H1479 C1423 0.930 . S
H1480 C1426 0.930 . S
H1481 C1429 0.929 . S
H1482 C1434 0.929 . S
H1483 C1435 0.930 . S
H1484 C1442 0.929 . S
H1485 C1443 0.930 . S
H1486 C1444 0.930 . S
H1487 C1445 0.930 1_455 S
H1488 C1447 0.929 . S
H1489 C1448 0.930 . S
H1490 C1449 0.930 . S
H1491 C1450 0.930 . S
H1492 C1454 0.929 . S
H1493 C1456 0.930 . S
H1494 C1462 0.929 . S
H1495 C1463 0.930 . S
Li1496 N1513 1.990 . S
Li1496 O1556 1.956 . S
Li1496 O1557 1.970 . S
Li1496 O1558 1.961 . S
Li1497 N1521 1.990 . S
Li1497 O1556 1.970 . S
Li1497 O1557 1.956 . S
Li1497 O1559 1.961 . S
Li1498 N1543 1.990 . S
Li1498 O1556 1.961 . S
Li1498 O1558 1.956 . S
Li1498 O1559 1.970 . S
Li1499 N1549 1.990 . S
Li1499 O1557 1.961 . S
Li1499 O1558 1.970 . S
Li1499 O1559 1.956 . S
C1500 C1502 1.348 . S
C1500 C1503 1.356 . S
C1500 O1556 1.325 . S
N1501 C1504 1.314 . S
N1501 C1505 1.279 . S
C1502 C1500 1.348 . S
C1502 C1504 1.353 . S
C1502 H1560 0.929 . S
C1503 C1500 1.356 . S
C1503 C1505 1.358 . S
C1503 H1561 0.930 . S
C1504 N1501 1.314 . S
C1504 C1502 1.353 . S
C1504 H1562 0.930 . S
C1505 N1501 1.279 . S
C1505 C1503 1.358 . S
C1505 H1563 0.930 . S
C1506 C1509 1.348 . S
C1506 C1510 1.356 . S
C1506 O1557 1.325 . S
C1507 N1508 1.279 . S
C1507 C1510 1.358 . S
C1507 H1564 0.930 . S
N1508 C1507 1.279 . S
N1508 C1511 1.314 . S
C1509 C1506 1.348 . S
C1509 C1511 1.353 . S
C1509 H1565 0.929 . S
C1510 C1506 1.356 . S
C1510 C1507 1.358 . S
C1510 H1566 0.930 . S
C1511 N1508 1.314 . S
C1511 C1509 1.353 . S
C1511 H1567 0.930 . S
C1512 N1513 1.314 . S
C1512 C1517 1.353 . S
C1512 H1518 0.930 . S
N1513 Li1496 1.990 . S
N1513 C1512 1.314 . S
N1513 C1515 1.279 . S
C1514 C1515 1.358 . S
C1514 C1516 1.356 . S
C1514 H1568 0.930 . S
C1515 N1513 1.279 . S
C1515 C1514 1.358 . S
C1515 H1519 0.930 . S
C1516 C1514 1.356 . S
C1516 C1517 1.348 . S
C1517 C1512 1.353 . S
C1517 C1516 1.348 . S
C1517 H1569 0.929 . S
H1518 C1512 0.930 . S
H1519 C1515 0.930 . S
C1520 N1521 1.314 . S
C1520 C1522 1.353 . S
C1520 H1526 0.930 . S
N1521 Li1497 1.990 . S
N1521 C1520 1.314 . S
N1521 C1524 1.279 . S
C1522 C1520 1.353 . S
C1522 C1525 1.348 . S
C1522 H1570 0.929 . S
C1523 C1524 1.358 . S
C1523 C1525 1.356 . S
C1523 H1571 0.930 . S
C1524 N1521 1.279 . S
C1524 C1523 1.358 . S
C1524 H1527 0.930 . S
C1525 C1522 1.348 . S
C1525 C1523 1.356 . S
H1526 C1520 0.930 . S
H1527 C1524 0.930 . S
C1528 C1530 1.348 . S
C1528 C1531 1.356 . S
C1528 O1558 1.325 . S
N1529 C1532 1.314 . S
N1529 C1533 1.279 . S
C1530 C1528 1.348 . S
C1530 C1532 1.353 . S
C1530 H1572 0.929 . S
C1531 C1528 1.356 . S
C1531 C1533 1.358 . S
C1531 H1573 0.930 . S
C1532 N1529 1.314 . S
C1532 C1530 1.353 . S
C1532 H1574 0.930 . S
C1533 N1529 1.279 . S
C1533 C1531 1.358 . S
C1533 H1575 0.930 . S
C1534 C1535 1.348 . S
C1534 C1536 1.356 . S
C1534 O1559 1.325 . S
C1535 C1534 1.348 . S
C1535 C1537 1.353 . S
C1535 H1576 0.929 . S
C1536 C1534 1.356 . S
C1536 C1538 1.358 . S
C1536 H1577 0.930 . S
C1537 C1535 1.353 . S
C1537 N1539 1.314 . S
C1537 H1578 0.930 . S
C1538 C1536 1.358 . S
C1538 N1539 1.279 . S
C1538 H1579 0.930 . S
N1539 C1537 1.314 . S
N1539 C1538 1.279 . S
C1540 C1542 1.353 . S
C1540 N1543 1.314 . S
C1540 H1546 0.930 . S
C1541 N1543 1.279 . S
C1541 C1544 1.358 . S
C1541 H1547 0.930 . S
C1542 C1540 1.353 . S
C1542 C1545 1.348 . S
C1542 H1580 0.929 . S
N1543 Li1498 1.990 . S
N1543 C1540 1.314 . S
N1543 C1541 1.279 . S
C1544 C1541 1.358 . S
C1544 C1545 1.356 . S
C1544 H1581 0.930 . S
C1545 C1542 1.348 . S
C1545 C1544 1.356 . S
H1546 C1540 0.930 . S
H1547 C1541 0.930 . S
C1548 N1549 1.314 . S
C1548 C1550 1.353 . S
C1548 H1554 0.930 . S
N1549 Li1499 1.990 . S
N1549 C1548 1.314 . S
N1549 C1552 1.279 . S
C1550 C1548 1.353 . S
C1550 C1553 1.348 . S
C1550 H1582 0.929 . S
C1551 C1552 1.358 . S
C1551 C1553 1.356 . S
C1551 H1583 0.930 . S
C1552 N1549 1.279 . S
C1552 C1551 1.358 . S
C1552 H1555 0.930 . S
C1553 C1550 1.348 . S
C1553 C1551 1.356 . S
H1554 C1548 0.930 . S
H1555 C1552 0.930 . S
O1556 Li1496 1.956 . S
O1556 Li1497 1.970 . S
O1556 Li1498 1.961 . S
O1556 C1500 1.325 . S
O1557 Li1496 1.970 . S
O1557 Li1497 1.956 . S
O1557 Li1499 1.961 . S
O1557 C1506 1.325 . S
O1558 Li1496 1.961 . S
O1558 Li1498 1.956 . S
O1558 Li1499 1.970 . S
O1558 C1528 1.325 . S
O1559 Li1497 1.961 . S
O1559 Li1498 1.970 . S
O1559 Li1499 1.956 . S
O1559 C1534 1.325 . S
H1560 C1502 0.929 . S
H1561 C1503 0.930 . S
H1562 C1504 0.930 . S
H1563 C1505 0.930 . S
H1564 C1507 0.930 . S
H1565 C1509 0.929 . S
H1566 C1510 0.930 . S
H1567 C1511 0.930 . S
H1568 C1514 0.930 . S
H1569 C1517 0.929 . S
H1570 C1522 0.929 . S
H1571 C1523 0.930 . S
H1572 C1530 0.929 . S
H1573 C1531 0.930 . S
H1574 C1532 0.930 . S
H1575 C1533 0.930 . S
H1576 C1535 0.929 . S
H1577 C1536 0.930 . S
H1578 C1537 0.930 . S
H1579 C1538 0.930 . S
H1580 C1542 0.929 . S
H1581 C1544 0.930 . S
H1582 C1550 0.929 . S
H1583 C1551 0.930 . S
Li1584 N1601 1.990 . S
Li1584 O1644 1.956 . S
Li1584 O1645 1.970 . S
Li1584 O1646 1.961 . S
Li1585 N1609 1.990 . S
Li1585 O1644 1.970 . S
Li1585 O1645 1.956 . S
Li1585 O1647 1.961 . S
Li1586 N1631 1.990 . S
Li1586 O1644 1.961 . S
Li1586 O1646 1.956 . S
Li1586 O1647 1.970 . S
Li1587 N1637 1.990 . S
Li1587 O1645 1.961 . S
Li1587 O1646 1.970 . S
Li1587 O1647 1.956 . S
C1588 C1590 1.348 . S
C1588 C1591 1.356 . S
C1588 O1644 1.325 . S
N1589 C1592 1.314 . S
N1589 C1593 1.279 . S
C1590 C1588 1.348 . S
C1590 C1592 1.353 . S
C1590 H1648 0.929 . S
C1591 C1588 1.356 . S
C1591 C1593 1.358 . S
C1591 H1649 0.930 . S
C1592 N1589 1.314 . S
C1592 C1590 1.353 . S
C1592 H1650 0.930 . S
C1593 N1589 1.279 . S
C1593 C1591 1.358 . S
C1593 H1651 0.930 . S
C1594 C1597 1.348 . S
C1594 C1598 1.356 . S
C1594 O1645 1.325 . S
C1595 N1596 1.279 . S
C1595 C1598 1.358 . S
C1595 H1652 0.930 . S
N1596 C1595 1.279 . S
N1596 C1599 1.314 . S
C1597 C1594 1.348 . S
C1597 C1599 1.353 . S
C1597 H1653 0.929 . S
C1598 C1594 1.356 . S
C1598 C1595 1.358 . S
C1598 H1654 0.930 . S
C1599 N1596 1.314 . S
C1599 C1597 1.353 . S
C1599 H1655 0.930 . S
C1600 N1601 1.314 . S
C1600 C1605 1.353 . S
C1600 H1606 0.930 . S
N1601 Li1584 1.990 . S
N1601 C1600 1.314 . S
N1601 C1603 1.279 . S
C1602 C1603 1.358 . S
C1602 C1604 1.356 . S
C1602 H1656 0.930 . S
C1603 N1601 1.279 . S
C1603 C1602 1.358 . S
C1603 H1607 0.930 . S
C1604 C1602 1.356 . S
C1604 C1605 1.348 . S
C1605 C1600 1.353 . S
C1605 C1604 1.348 . S
C1605 H1657 0.929 . S
H1606 C1600 0.930 . S
H1607 C1603 0.930 . S
C1608 N1609 1.314 . S
C1608 C1610 1.353 . S
C1608 H1614 0.930 . S
N1609 Li1585 1.990 . S
N1609 C1608 1.314 . S
N1609 C1612 1.279 . S
C1610 C1608 1.353 . S
C1610 C1613 1.348 . S
C1610 H1658 0.929 . S
C1611 C1612 1.358 . S
C1611 C1613 1.356 . S
C1611 H1659 0.930 . S
C1612 N1609 1.279 . S
C1612 C1611 1.358 . S
C1612 H1615 0.930 . S
C1613 C1610 1.348 . S
C1613 C1611 1.356 . S
H1614 C1608 0.930 . S
H1615 C1612 0.930 . S
C1616 C1618 1.348 . S
C1616 C1619 1.356 . S
C1616 O1646 1.325 . S
N1617 C1620 1.314 . S
N1617 C1621 1.279 . S
C1618 C1616 1.348 . S
C1618 C1620 1.353 . S
C1618 H1660 0.929 . S
C1619 C1616 1.356 . S
C1619 C1621 1.358 . S
C1619 H1661 0.930 . S
C1620 N1617 1.314 . S
C1620 C1618 1.353 . S
C1620 H1662 0.930 . S
C1621 N1617 1.279 . S
C1621 C1619 1.358 . S
C1621 H1663 0.930 . S
C1622 C1623 1.348 . S
C1622 C1624 1.356 . S
C1622 O1647 1.325 . S
C1623 C1622 1.348 . S
C1623 C1625 1.353 . S
C1623 H1664 0.929 . S
C1624 C1622 1.356 . S
C1624 C1626 1.358 . S
C1624 H1665 0.930 . S
C1625 C1623 1.353 . S
C1625 N1627 1.314 . S
C1625 H1666 0.930 . S
C1626 C1624 1.358 . S
C1626 N1627 1.279 . S
C1626 H1667 0.930 . S
N1627 C1625 1.314 . S
N1627 C1626 1.279 . S
C1628 C1630 1.353 . S
C1628 N1631 1.314 . S
C1628 H1634 0.930 . S
C1629 N1631 1.279 . S
C1629 C1632 1.358 . S
C1629 H1635 0.930 . S
C1630 C1628 1.353 . S
C1630 C1633 1.348 . S
C1630 H1668 0.929 . S
N1631 Li1586 1.990 . S
N1631 C1628 1.314 . S
N1631 C1629 1.279 . S
C1632 C1629 1.358 . S
C1632 C1633 1.356 . S
C1632 H1669 0.930 . S
C1633 C1630 1.348 . S
C1633 C1632 1.356 . S
H1634 C1628 0.930 . S
H1635 C1629 0.930 . S
C1636 N1637 1.314 . S
C1636 C1638 1.353 . S
C1636 H1642 0.930 . S
N1637 Li1587 1.990 . S
N1637 C1636 1.314 . S
N1637 C1640 1.279 . S
C1638 C1636 1.353 . S
C1638 C1641 1.348 . S
C1638 H1670 0.929 . S
C1639 C1640 1.358 . S
C1639 C1641 1.356 . S
C1639 H1671 0.930 . S
C1640 N1637 1.279 . S
C1640 C1639 1.358 . S
C1640 H1643 0.930 . S
C1641 C1638 1.348 . S
C1641 C1639 1.356 . S
H1642 C1636 0.930 . S
H1643 C1640 0.930 . S
O1644 Li1584 1.956 . S
O1644 Li1585 1.970 . S
O1644 Li1586 1.961 . S
O1644 C1588 1.325 . S
O1645 Li1584 1.970 . S
O1645 Li1585 1.956 . S
O1645 Li1587 1.961 . S
O1645 C1594 1.325 . S
O1646 Li1584 1.961 . S
O1646 Li1586 1.956 . S
O1646 Li1587 1.970 . S
O1646 C1616 1.325 . S
O1647 Li1585 1.961 . S
O1647 Li1586 1.970 . S
O1647 Li1587 1.956 . S
O1647 C1622 1.325 . S
H1648 C1590 0.929 . S
H1649 C1591 0.930 . S
H1650 C1592 0.930 . S
H1651 C1593 0.930 . S
H1652 C1595 0.930 . S
H1653 C1597 0.929 . S
H1654 C1598 0.930 . S
H1655 C1599 0.930 . S
H1656 C1602 0.930 . S
H1657 C1605 0.929 . S
H1658 C1610 0.929 . S
H1659 C1611 0.930 . S
H1660 C1618 0.929 . S
H1661 C1619 0.930 . S
H1662 C1620 0.930 . S
H1663 C1621 0.930 . S
H1664 C1623 0.929 . S
H1665 C1624 0.930 . S
H1666 C1625 0.930 . S
H1667 C1626 0.930 . S
H1668 C1630 0.929 . S
H1669 C1632 0.930 . S
H1670 C1638 0.929 . S
H1671 C1639 0.930 . S
Li1672 N1689 1.990 . S
Li1672 O1732 1.956 . S
Li1672 O1733 1.970 . S
Li1672 O1734 1.961 . S
Li1673 N1697 1.990 . S
Li1673 O1732 1.970 . S
Li1673 O1733 1.956 . S
Li1673 O1735 1.961 . S
Li1674 N1719 1.990 . S
Li1674 O1732 1.961 . S
Li1674 O1734 1.956 . S
Li1674 O1735 1.970 . S
Li1675 N1725 1.990 . S
Li1675 O1733 1.961 . S
Li1675 O1734 1.970 . S
Li1675 O1735 1.956 . S
C1676 C1678 1.348 . S
C1676 C1679 1.356 . S
C1676 O1732 1.325 . S
N1677 C1680 1.314 . S
N1677 C1681 1.279 . S
C1678 C1676 1.348 . S
C1678 C1680 1.353 . S
C1678 H1736 0.929 . S
C1679 C1676 1.356 . S
C1679 C1681 1.358 . S
C1679 H1737 0.930 . S
C1680 N1677 1.314 . S
C1680 C1678 1.353 . S
C1680 H1738 0.930 . S
C1681 N1677 1.279 . S
C1681 C1679 1.358 . S
C1681 H1739 0.930 . S
C1682 C1685 1.348 . S
C1682 C1686 1.356 . S
C1682 O1733 1.325 . S
C1683 N1684 1.279 . S
C1683 C1686 1.358 . S
C1683 H1740 0.930 . S
N1684 C1683 1.279 . S
N1684 C1687 1.314 . S
C1685 C1682 1.348 . S
C1685 C1687 1.353 . S
C1685 H1741 0.929 . S
C1686 C1682 1.356 . S
C1686 C1683 1.358 . S
C1686 H1742 0.930 . S
C1687 N1684 1.314 . S
C1687 C1685 1.353 . S
C1687 H1743 0.930 . S
C1688 N1689 1.314 . S
C1688 C1693 1.353 . S
C1688 H1694 0.930 . S
N1689 Li1672 1.990 . S
N1689 C1688 1.314 . S
N1689 C1691 1.279 . S
C1690 C1691 1.358 . S
C1690 C1692 1.356 . S
C1690 H1744 0.930 . S
C1691 N1689 1.279 . S
C1691 C1690 1.358 . S
C1691 H1695 0.930 . S
C1692 C1690 1.356 . S
C1692 C1693 1.348 . S
C1693 C1688 1.353 . S
C1693 C1692 1.348 . S
C1693 H1745 0.929 . S
H1694 C1688 0.930 . S
H1695 C1691 0.930 . S
C1696 N1697 1.314 . S
C1696 C1698 1.353 . S
C1696 H1702 0.930 . S
N1697 Li1673 1.990 . S
N1697 C1696 1.314 . S
N1697 C1700 1.279 . S
C1698 C1696 1.353 . S
C1698 C1701 1.348 . S
C1698 H1746 0.929 . S
C1699 C1700 1.358 . S
C1699 C1701 1.356 . S
C1699 H1747 0.930 . S
C1700 N1697 1.279 . S
C1700 C1699 1.358 . S
C1700 H1703 0.930 . S
C1701 C1698 1.348 . S
C1701 C1699 1.356 . S
H1702 C1696 0.930 . S
H1703 C1700 0.930 . S
C1704 C1706 1.348 . S
C1704 C1707 1.356 . S
C1704 O1734 1.325 . S
N1705 C1708 1.314 . S
N1705 C1709 1.279 1_565 S
C1706 C1704 1.348 . S
C1706 C1708 1.353 1_545 S
C1706 H1748 0.929 . S
C1707 C1704 1.356 . S
C1707 C1709 1.358 . S
C1707 H1749 0.930 . S
C1708 N1705 1.314 . S
C1708 C1706 1.353 1_565 S
C1708 H1750 0.930 . S
C1709 N1705 1.279 1_545 S
C1709 C1707 1.358 . S
C1709 H1751 0.930 . S
C1710 C1711 1.348 . S
C1710 C1712 1.356 . S
C1710 O1735 1.325 . S
C1711 C1710 1.348 . S
C1711 C1713 1.353 . S
C1711 H1752 0.929 . S
C1712 C1710 1.356 . S
C1712 C1714 1.358 . S
C1712 H1753 0.930 . S
C1713 C1711 1.353 . S
C1713 N1715 1.314 . S
C1713 H1754 0.930 . S
C1714 C1712 1.358 . S
C1714 N1715 1.279 . S
C1714 H1755 0.930 . S
N1715 C1713 1.314 . S
N1715 C1714 1.279 . S
C1716 C1718 1.353 . S
C1716 N1719 1.314 . S
C1716 H1722 0.930 . S
C1717 N1719 1.279 . S
C1717 C1720 1.358 . S
C1717 H1723 0.930 . S
C1718 C1716 1.353 . S
C1718 C1721 1.348 . S
C1718 H1756 0.929 . S
N1719 Li1674 1.990 . S
N1719 C1716 1.314 . S
N1719 C1717 1.279 . S
C1720 C1717 1.358 . S
C1720 C1721 1.356 . S
C1720 H1757 0.930 . S
C1721 C1718 1.348 . S
C1721 C1720 1.356 . S
H1722 C1716 0.930 . S
H1723 C1717 0.930 . S
C1724 N1725 1.314 . S
C1724 C1726 1.353 . S
C1724 H1730 0.930 . S
N1725 Li1675 1.990 . S
N1725 C1724 1.314 . S
N1725 C1728 1.279 . S
C1726 C1724 1.353 . S
C1726 C1729 1.348 1_545 S
C1726 H1758 0.927 . S
C1727 C1728 1.358 . S
C1727 C1729 1.356 1_545 S
C1727 H1759 0.930 . S
C1728 N1725 1.279 . S
C1728 C1727 1.358 . S
C1728 H1731 0.930 . S
C1729 C1726 1.348 1_565 S
C1729 C1727 1.356 1_565 S
H1730 C1724 0.930 . S
H1731 C1728 0.930 . S
O1732 Li1672 1.956 . S
O1732 Li1673 1.970 . S
O1732 Li1674 1.961 . S
O1732 C1676 1.325 . S
O1733 Li1672 1.970 . S
O1733 Li1673 1.956 . S
O1733 Li1675 1.961 . S
O1733 C1682 1.325 . S
O1734 Li1672 1.961 . S
O1734 Li1674 1.956 . S
O1734 Li1675 1.970 . S
O1734 C1704 1.325 . S
O1735 Li1673 1.961 . S
O1735 Li1674 1.970 . S
O1735 Li1675 1.956 . S
O1735 C1710 1.325 . S
H1736 C1678 0.929 . S
H1737 C1679 0.930 . S
H1738 C1680 0.930 . S
H1739 C1681 0.930 . S
H1740 C1683 0.930 . S
H1741 C1685 0.929 . S
H1742 C1686 0.930 . S
H1743 C1687 0.930 . S
H1744 C1690 0.930 . S
H1745 C1693 0.929 . S
H1746 C1698 0.929 . S
H1747 C1699 0.930 . S
H1748 C1706 0.929 . S
H1749 C1707 0.930 . S
H1750 C1708 0.930 . S
H1751 C1709 0.930 . S
H1752 C1711 0.929 . S
H1753 C1712 0.930 . S
H1754 C1713 0.930 . S
H1755 C1714 0.930 . S
H1756 C1718 0.929 . S
H1757 C1720 0.930 . S
H1758 C1726 0.927 . S
H1759 C1727 0.930 . S
Li1760 N1777 1.990 . S
Li1760 O1820 1.956 . S
Li1760 O1821 1.970 . S
Li1760 O1822 1.961 . S
Li1761 N1785 1.990 . S
Li1761 O1820 1.970 . S
Li1761 O1821 1.956 . S
Li1761 O1823 1.961 1_554 S
Li1762 N1807 1.990 1_554 S
Li1762 O1820 1.961 . S
Li1762 O1822 1.956 . S
Li1762 O1823 1.970 1_554 S
Li1763 N1813 1.990 . S
Li1763 O1821 1.961 . S
Li1763 O1822 1.970 . S
Li1763 O1823 1.956 1_554 S
C1764 C1766 1.348 . S
C1764 C1767 1.356 . S
C1764 O1820 1.325 . S
N1765 C1768 1.314 . S
N1765 C1769 1.279 . S
C1766 C1764 1.348 . S
C1766 C1768 1.353 . S
C1766 H1824 0.929 . S
C1767 C1764 1.356 . S
C1767 C1769 1.358 . S
C1767 H1825 0.930 . S
C1768 N1765 1.314 . S
C1768 C1766 1.353 . S
C1768 H1826 0.930 . S
C1769 N1765 1.279 . S
C1769 C1767 1.358 . S
C1769 H1827 0.930 . S
C1770 C1773 1.348 . S
C1770 C1774 1.356 . S
C1770 O1821 1.325 . S
C1771 N1772 1.279 . S
C1771 C1774 1.358 . S
C1771 H1828 0.930 . S
N1772 C1771 1.279 . S
N1772 C1775 1.314 . S
C1773 C1770 1.348 . S
C1773 C1775 1.353 . S
C1773 H1829 0.929 . S
C1774 C1770 1.356 . S
C1774 C1771 1.358 . S
C1774 H1830 0.930 . S
C1775 N1772 1.314 . S
C1775 C1773 1.353 . S
C1775 H1831 0.930 . S
C1776 N1777 1.314 . S
C1776 C1781 1.353 . S
C1776 H1782 0.930 . S
N1777 Li1760 1.990 . S
N1777 C1776 1.314 . S
N1777 C1779 1.279 . S
C1778 C1779 1.358 . S
C1778 C1780 1.356 . S
C1778 H1832 0.930 . S
C1779 N1777 1.279 . S
C1779 C1778 1.358 . S
C1779 H1783 0.930 . S
C1780 C1778 1.356 . S
C1780 C1781 1.348 . S
C1781 C1776 1.353 . S
C1781 C1780 1.348 . S
C1781 H1833 0.929 . S
H1782 C1776 0.930 . S
H1783 C1779 0.930 . S
C1784 N1785 1.314 . S
C1784 C1786 1.353 . S
C1784 H1790 0.930 1_554 S
N1785 Li1761 1.990 . S
N1785 C1784 1.314 . S
N1785 C1788 1.279 . S
C1786 C1784 1.353 . S
C1786 C1789 1.348 . S
C1786 H1834 0.929 1_554 S
C1787 C1788 1.358 . S
C1787 C1789 1.356 . S
C1787 H1835 0.930 . S
C1788 N1785 1.279 . S
C1788 C1787 1.358 . S
C1788 H1791 0.930 . S
C1789 C1786 1.348 . S
C1789 C1787 1.356 . S
H1790 C1784 0.930 1_556 S
H1791 C1788 0.930 . S
C1792 C1794 1.348 . S
C1792 C1795 1.356 . S
C1792 O1822 1.325 . S
N1793 C1796 1.314 . S
N1793 C1797 1.279 . S
C1794 C1792 1.348 . S
C1794 C1796 1.353 . S
C1794 H1836 0.929 . S
C1795 C1792 1.356 . S
C1795 C1797 1.358 . S
C1795 H1837 0.930 . S
C1796 N1793 1.314 . S
C1796 C1794 1.353 . S
C1796 H1838 0.930 . S
C1797 N1793 1.279 . S
C1797 C1795 1.358 . S
C1797 H1839 0.930 . S
C1798 C1799 1.348 . S
C1798 C1800 1.356 . S
C1798 O1823 1.325 . S
C1799 C1798 1.348 . S
C1799 C1801 1.353 . S
C1799 H1840 0.929 . S
C1800 C1798 1.356 . S
C1800 C1802 1.358 . S
C1800 H1841 0.930 . S
C1801 C1799 1.353 . S
C1801 N1803 1.314 . S
C1801 H1842 0.930 . S
C1802 C1800 1.358 . S
C1802 N1803 1.279 . S
C1802 H1843 0.930 . S
N1803 C1801 1.314 . S
N1803 C1802 1.279 . S
C1804 C1806 1.353 . S
C1804 N1807 1.314 . S
C1804 H1810 0.930 . S
C1805 N1807 1.279 . S
C1805 C1808 1.358 . S
C1805 H1811 0.930 . S
C1806 C1804 1.353 . S
C1806 C1809 1.348 . S
C1806 H1844 0.929 . S
N1807 Li1762 1.990 1_556 S
N1807 C1804 1.314 . S
N1807 C1805 1.279 . S
C1808 C1805 1.358 . S
C1808 C1809 1.356 . S
C1808 H1845 0.930 . S
C1809 C1806 1.348 . S
C1809 C1808 1.356 . S
H1810 C1804 0.930 . S
H1811 C1805 0.930 . S
C1812 N1813 1.314 . S
C1812 C1814 1.353 . S
C1812 H1818 0.930 . S
N1813 Li1763 1.990 . S
N1813 C1812 1.314 . S
N1813 C1816 1.279 1_554 S
C1814 C1812 1.353 . S
C1814 C1817 1.348 . S
C1814 H1846 0.929 . S
C1815 C1816 1.358 . S
C1815 C1817 1.356 1_556 S
C1815 H1847 0.930 . S
C1816 N1813 1.279 1_556 S
C1816 C1815 1.358 . S
C1816 H1819 0.930 . S
C1817 C1814 1.348 . S
C1817 C1815 1.356 1_554 S
H1818 C1812 0.930 . S
H1819 C1816 0.930 . S
O1820 Li1760 1.956 . S
O1820 Li1761 1.970 . S
O1820 Li1762 1.961 . S
O1820 C1764 1.325 . S
O1821 Li1760 1.970 . S
O1821 Li1761 1.956 . S
O1821 Li1763 1.961 . S
O1821 C1770 1.325 . S
O1822 Li1760 1.961 . S
O1822 Li1762 1.956 . S
O1822 Li1763 1.970 . S
O1822 C1792 1.325 . S
O1823 Li1761 1.961 1_556 S
O1823 Li1762 1.970 1_556 S
O1823 Li1763 1.956 1_556 S
O1823 C1798 1.325 . S
H1824 C1766 0.929 . S
H1825 C1767 0.930 . S
H1826 C1768 0.930 . S
H1827 C1769 0.930 . S
H1828 C1771 0.930 . S
H1829 C1773 0.929 . S
H1830 C1774 0.930 . S
H1831 C1775 0.930 . S
H1832 C1778 0.930 . S
H1833 C1781 0.929 . S
H1834 C1786 0.929 1_556 S
H1835 C1787 0.930 . S
H1836 C1794 0.929 . S
H1837 C1795 0.930 . S
H1838 C1796 0.930 . S
H1839 C1797 0.930 . S
H1840 C1799 0.929 . S
H1841 C1800 0.930 . S
H1842 C1801 0.930 . S
H1843 C1802 0.930 . S
H1844 C1806 0.929 . S
H1845 C1808 0.930 . S
H1846 C1814 0.929 . S
H1847 C1815 0.930 . S
Li1848 N1865 1.990 . S
Li1848 O1908 1.956 . S
Li1848 O1909 1.970 . S
Li1848 O1910 1.961 . S
Li1849 N1873 1.990 . S
Li1849 O1908 1.970 . S
Li1849 O1909 1.956 . S
Li1849 O1911 1.961 . S
Li1850 N1895 1.990 . S
Li1850 O1908 1.961 . S
Li1850 O1910 1.956 . S
Li1850 O1911 1.970 . S
Li1851 N1901 1.990 . S
Li1851 O1909 1.961 . S
Li1851 O1910 1.970 . S
Li1851 O1911 1.956 . S
C1852 C1854 1.348 . S
C1852 C1855 1.356 . S
C1852 O1908 1.325 . S
N1853 C1856 1.314 . S
N1853 C1857 1.279 . S
C1854 C1852 1.348 . S
C1854 C1856 1.353 . S
C1854 H1912 0.929 . S
C1855 C1852 1.356 . S
C1855 C1857 1.358 . S
C1855 H1913 0.930 . S
C1856 N1853 1.314 . S
C1856 C1854 1.353 . S
C1856 H1914 0.930 . S
C1857 N1853 1.279 . S
C1857 C1855 1.358 . S
C1857 H1915 0.930 . S
C1858 C1861 1.348 . S
C1858 C1862 1.356 . S
C1858 O1909 1.325 . S
C1859 N1860 1.279 . S
C1859 C1862 1.358 . S
C1859 H1916 0.930 . S
N1860 C1859 1.279 . S
N1860 C1863 1.314 . S
C1861 C1858 1.348 . S
C1861 C1863 1.353 . S
C1861 H1917 0.929 . S
C1862 C1858 1.356 . S
C1862 C1859 1.358 . S
C1862 H1918 0.930 . S
C1863 N1860 1.314 . S
C1863 C1861 1.353 . S
C1863 H1919 0.930 . S
C1864 N1865 1.314 . S
C1864 C1869 1.353 . S
C1864 H1870 0.930 . S
N1865 Li1848 1.990 . S
N1865 C1864 1.314 . S
N1865 C1867 1.279 . S
C1866 C1867 1.358 . S
C1866 C1868 1.356 . S
C1866 H1920 0.930 . S
C1867 N1865 1.279 . S
C1867 C1866 1.358 . S
C1867 H1871 0.930 . S
C1868 C1866 1.356 . S
C1868 C1869 1.348 . S
C1869 C1864 1.353 . S
C1869 C1868 1.348 . S
C1869 H1921 0.929 . S
H1870 C1864 0.930 . S
H1871 C1867 0.930 . S
C1872 N1873 1.314 . S
C1872 C1874 1.353 . S
C1872 H1878 0.930 . S
N1873 Li1849 1.990 . S
N1873 C1872 1.314 . S
N1873 C1876 1.279 . S
C1874 C1872 1.353 . S
C1874 C1877 1.348 . S
C1874 H1922 0.929 . S
C1875 C1876 1.358 . S
C1875 C1877 1.356 . S
C1875 H1923 0.930 . S
C1876 N1873 1.279 . S
C1876 C1875 1.358 . S
C1876 H1879 0.930 . S
C1877 C1874 1.348 . S
C1877 C1875 1.356 . S
H1878 C1872 0.930 . S
H1879 C1876 0.930 . S
C1880 C1882 1.348 . S
C1880 C1883 1.356 . S
C1880 O1910 1.325 . S
N1881 C1884 1.314 . S
N1881 C1885 1.279 . S
C1882 C1880 1.348 . S
C1882 C1884 1.353 . S
C1882 H1924 0.929 . S
C1883 C1880 1.356 . S
C1883 C1885 1.358 . S
C1883 H1925 0.930 . S
C1884 N1881 1.314 . S
C1884 C1882 1.353 . S
C1884 H1926 0.930 . S
C1885 N1881 1.279 . S
C1885 C1883 1.358 . S
C1885 H1927 0.930 . S
C1886 C1887 1.348 . S
C1886 C1888 1.356 . S
C1886 O1911 1.325 . S
C1887 C1886 1.348 . S
C1887 C1889 1.353 . S
C1887 H1928 0.929 . S
C1888 C1886 1.356 . S
C1888 C1890 1.358 . S
C1888 H1929 0.930 . S
C1889 C1887 1.353 . S
C1889 N1891 1.314 . S
C1889 H1930 0.930 . S
C1890 C1888 1.358 . S
C1890 N1891 1.279 . S
C1890 H1931 0.930 . S
N1891 C1889 1.314 . S
N1891 C1890 1.279 . S
C1892 C1894 1.353 . S
C1892 N1895 1.314 . S
C1892 H1898 0.930 . S
C1893 N1895 1.279 . S
C1893 C1896 1.358 . S
C1893 H1899 0.930 . S
C1894 C1892 1.353 . S
C1894 C1897 1.348 . S
C1894 H1932 0.929 . S
N1895 Li1850 1.990 . S
N1895 C1892 1.314 . S
N1895 C1893 1.279 . S
C1896 C1893 1.358 . S
C1896 C1897 1.356 . S
C1896 H1933 0.930 . S
C1897 C1894 1.348 . S
C1897 C1896 1.356 . S
H1898 C1892 0.930 . S
H1899 C1893 0.930 . S
C1900 N1901 1.314 . S
C1900 C1902 1.353 . S
C1900 H1906 0.930 . S
N1901 Li1851 1.990 . S
N1901 C1900 1.314 . S
N1901 C1904 1.279 . S
C1902 C1900 1.353 . S
C1902 C1905 1.348 . S
C1902 H1934 0.929 . S
C1903 C1904 1.358 . S
C1903 C1905 1.356 . S
C1903 H1935 0.930 . S
C1904 N1901 1.279 . S
C1904 C1903 1.358 . S
C1904 H1907 0.930 . S
C1905 C1902 1.348 . S
C1905 C1903 1.356 . S
H1906 C1900 0.930 . S
H1907 C1904 0.930 . S
O1908 Li1848 1.956 . S
O1908 Li1849 1.970 . S
O1908 Li1850 1.961 . S
O1908 C1852 1.325 . S
O1909 Li1848 1.970 . S
O1909 Li1849 1.956 . S
O1909 Li1851 1.961 . S
O1909 C1858 1.325 . S
O1910 Li1848 1.961 . S
O1910 Li1850 1.956 . S
O1910 Li1851 1.970 . S
O1910 C1880 1.325 . S
O1911 Li1849 1.961 . S
O1911 Li1850 1.970 . S
O1911 Li1851 1.956 . S
O1911 C1886 1.325 . S
H1912 C1854 0.929 . S
H1913 C1855 0.930 . S
H1914 C1856 0.930 . S
H1915 C1857 0.930 . S
H1916 C1859 0.930 . S
H1917 C1861 0.929 . S
H1918 C1862 0.930 . S
H1919 C1863 0.930 . S
H1920 C1866 0.930 . S
H1921 C1869 0.929 . S
H1922 C1874 0.929 . S
H1923 C1875 0.930 . S
H1924 C1882 0.929 . S
H1925 C1883 0.930 . S
H1926 C1884 0.930 . S
H1927 C1885 0.930 . S
H1928 C1887 0.929 . S
H1929 C1888 0.930 . S
H1930 C1889 0.930 . S
H1931 C1890 0.930 . S
H1932 C1894 0.929 . S
H1933 C1896 0.930 . S
H1934 C1902 0.929 . S
H1935 C1903 0.930 . S
Li1936 N1953 1.990 . S
Li1936 O1996 1.956 . S
Li1936 O1997 1.970 . S
Li1936 O1998 1.961 . S
Li1937 N1961 1.990 . S
Li1937 O1996 1.970 . S
Li1937 O1997 1.956 . S
Li1937 O1999 1.961 . S
Li1938 N1983 1.990 . S
Li1938 O1996 1.961 . S
Li1938 O1998 1.956 . S
Li1938 O1999 1.970 . S
Li1939 N1989 1.990 . S
Li1939 O1997 1.961 . S
Li1939 O1998 1.970 . S
Li1939 O1999 1.956 . S
C1940 C1942 1.348 . S
C1940 C1943 1.356 . S
C1940 O1996 1.325 . S
N1941 C1944 1.314 . S
N1941 C1945 1.279 . S
C1942 C1940 1.348 . S
C1942 C1944 1.353 . S
C1942 H2000 0.929 . S
C1943 C1940 1.356 . S
C1943 C1945 1.358 . S
C1943 H2001 0.930 . S
C1944 N1941 1.314 . S
C1944 C1942 1.353 . S
C1944 H2002 0.930 . S
C1945 N1941 1.279 . S
C1945 C1943 1.358 . S
C1945 H2003 0.930 . S
C1946 C1949 1.348 . S
C1946 C1950 1.356 . S
C1946 O1997 1.325 . S
C1947 N1948 1.279 . S
C1947 C1950 1.358 . S
C1947 H2004 0.930 . S
N1948 C1947 1.279 . S
N1948 C1951 1.314 . S
C1949 C1946 1.348 . S
C1949 C1951 1.353 . S
C1949 H2005 0.929 . S
C1950 C1946 1.356 . S
C1950 C1947 1.358 . S
C1950 H2006 0.930 . S
C1951 N1948 1.314 . S
C1951 C1949 1.353 . S
C1951 H2007 0.930 . S
C1952 N1953 1.314 . S
C1952 C1957 1.353 . S
C1952 H1958 0.930 . S
N1953 Li1936 1.990 . S
N1953 C1952 1.314 . S
N1953 C1955 1.279 . S
C1954 C1955 1.358 . S
C1954 C1956 1.356 . S
C1954 H2008 0.930 . S
C1955 N1953 1.279 . S
C1955 C1954 1.358 . S
C1955 H1959 0.930 . S
C1956 C1954 1.356 . S
C1956 C1957 1.348 . S
C1957 C1952 1.353 . S
C1957 C1956 1.348 . S
C1957 H2009 0.929 . S
H1958 C1952 0.930 . S
H1959 C1955 0.930 . S
C1960 N1961 1.314 . S
C1960 C1962 1.353 . S
C1960 H1966 0.930 . S
N1961 Li1937 1.990 . S
N1961 C1960 1.314 . S
N1961 C1964 1.279 . S
C1962 C1960 1.353 . S
C1962 C1965 1.348 . S
C1962 H2010 0.929 . S
C1963 C1964 1.358 . S
C1963 C1965 1.356 . S
C1963 H2011 0.930 . S
C1964 N1961 1.279 . S
C1964 C1963 1.358 . S
C1964 H1967 0.930 . S
C1965 C1962 1.348 . S
C1965 C1963 1.356 . S
H1966 C1960 0.930 . S
H1967 C1964 0.930 . S
C1968 C1970 1.348 . S
C1968 C1971 1.356 . S
C1968 O1998 1.325 . S
N1969 C1972 1.314 . S
N1969 C1973 1.279 . S
C1970 C1968 1.348 . S
C1970 C1972 1.353 . S
C1970 H2012 0.929 . S
C1971 C1968 1.356 . S
C1971 C1973 1.358 . S
C1971 H2013 0.930 . S
C1972 N1969 1.314 . S
C1972 C1970 1.353 . S
C1972 H2014 0.930 . S
C1973 N1969 1.279 . S
C1973 C1971 1.358 . S
C1973 H2015 0.930 . S
C1974 C1975 1.348 . S
C1974 C1976 1.356 . S
C1974 O1999 1.325 . S
C1975 C1974 1.348 . S
C1975 C1977 1.353 . S
C1975 H2016 0.929 . S
C1976 C1974 1.356 . S
C1976 C1978 1.358 . S
C1976 H2017 0.930 . S
C1977 C1975 1.353 . S
C1977 N1979 1.314 . S
C1977 H2018 0.930 . S
C1978 C1976 1.358 . S
C1978 N1979 1.279 . S
C1978 H2019 0.930 . S
N1979 C1977 1.314 . S
N1979 C1978 1.279 . S
C1980 C1982 1.353 . S
C1980 N1983 1.314 . S
C1980 H1986 0.930 . S
C1981 N1983 1.279 . S
C1981 C1984 1.358 . S
C1981 H1987 0.930 . S
C1982 C1980 1.353 . S
C1982 C1985 1.348 . S
C1982 H2020 0.929 . S
N1983 Li1938 1.990 . S
N1983 C1980 1.314 . S
N1983 C1981 1.279 . S
C1984 C1981 1.358 . S
C1984 C1985 1.356 . S
C1984 H2021 0.930 . S
C1985 C1982 1.348 . S
C1985 C1984 1.356 . S
H1986 C1980 0.930 . S
H1987 C1981 0.930 . S
C1988 N1989 1.314 . S
C1988 C1990 1.353 . S
C1988 H1994 0.930 . S
N1989 Li1939 1.990 . S
N1989 C1988 1.314 . S
N1989 C1992 1.279 . S
C1990 C1988 1.353 . S
C1990 C1993 1.348 . S
C1990 H2022 0.929 . S
C1991 C1992 1.358 . S
C1991 C1993 1.356 . S
C1991 H2023 0.930 . S
C1992 N1989 1.279 . S
C1992 C1991 1.358 . S
C1992 H1995 0.930 . S
C1993 C1990 1.348 . S
C1993 C1991 1.356 . S
H1994 C1988 0.930 . S
H1995 C1992 0.930 . S
O1996 Li1936 1.956 . S
O1996 Li1937 1.970 . S
O1996 Li1938 1.961 . S
O1996 C1940 1.325 . S
O1997 Li1936 1.970 . S
O1997 Li1937 1.956 . S
O1997 Li1939 1.961 . S
O1997 C1946 1.325 . S
O1998 Li1936 1.961 . S
O1998 Li1938 1.956 . S
O1998 Li1939 1.970 . S
O1998 C1968 1.325 . S
O1999 Li1937 1.961 . S
O1999 Li1938 1.970 . S
O1999 Li1939 1.956 . S
O1999 C1974 1.325 . S
H2000 C1942 0.929 . S
H2001 C1943 0.930 . S
H2002 C1944 0.930 . S
H2003 C1945 0.930 . S
H2004 C1947 0.930 . S
H2005 C1949 0.929 . S
H2006 C1950 0.930 . S
H2007 C1951 0.930 . S
H2008 C1954 0.930 . S
H2009 C1957 0.929 . S
H2010 C1962 0.929 . S
H2011 C1963 0.930 . S
H2012 C1970 0.929 . S
H2013 C1971 0.930 . S
H2014 C1972 0.930 . S
H2015 C1973 0.930 . S
H2016 C1975 0.929 . S
H2017 C1976 0.930 . S
H2018 C1977 0.930 . S
H2019 C1978 0.930 . S
H2020 C1982 0.929 . S
H2021 C1984 0.930 . S
H2022 C1990 0.929 . S
H2023 C1991 0.930 . S
Li2024 N2041 1.990 . S
Li2024 O2084 1.956 . S
Li2024 O2085 1.970 . S
Li2024 O2086 1.961 . S
Li2025 N2049 1.990 . S
Li2025 O2084 1.970 . S
Li2025 O2085 1.956 . S
Li2025 O2087 1.961 . S
Li2026 N2071 1.990 . S
Li2026 O2084 1.961 . S
Li2026 O2086 1.956 . S
Li2026 O2087 1.970 . S
Li2027 N2077 1.990 . S
Li2027 O2085 1.961 . S
Li2027 O2086 1.970 . S
Li2027 O2087 1.956 . S
C2028 C2030 1.348 . S
C2028 C2031 1.356 . S
C2028 O2084 1.325 . S
N2029 C2032 1.314 . S
N2029 C2033 1.279 . S
C2030 C2028 1.348 . S
C2030 C2032 1.353 . S
C2030 H2088 0.929 . S
C2031 C2028 1.356 . S
C2031 C2033 1.358 . S
C2031 H2089 0.930 . S
C2032 N2029 1.314 . S
C2032 C2030 1.353 . S
C2032 H2090 0.930 . S
C2033 N2029 1.279 . S
C2033 C2031 1.358 . S
C2033 H2091 0.930 . S
C2034 C2037 1.348 . S
C2034 C2038 1.356 . S
C2034 O2085 1.325 . S
C2035 N2036 1.279 . S
C2035 C2038 1.358 . S
C2035 H2092 0.930 . S
N2036 C2035 1.279 . S
N2036 C2039 1.314 . S
C2037 C2034 1.348 . S
C2037 C2039 1.353 . S
C2037 H2093 0.929 . S
C2038 C2034 1.356 . S
C2038 C2035 1.358 . S
C2038 H2094 0.930 . S
C2039 N2036 1.314 . S
C2039 C2037 1.353 . S
C2039 H2095 0.930 . S
C2040 N2041 1.314 . S
C2040 C2045 1.353 . S
C2040 H2046 0.930 . S
N2041 Li2024 1.990 . S
N2041 C2040 1.314 . S
N2041 C2043 1.279 . S
C2042 C2043 1.358 . S
C2042 C2044 1.356 . S
C2042 H2096 0.930 . S
C2043 N2041 1.279 . S
C2043 C2042 1.358 . S
C2043 H2047 0.930 . S
C2044 C2042 1.356 . S
C2044 C2045 1.348 . S
C2045 C2040 1.353 . S
C2045 C2044 1.348 . S
C2045 H2097 0.929 . S
H2046 C2040 0.930 . S
H2047 C2043 0.930 . S
C2048 N2049 1.314 . S
C2048 C2050 1.353 . S
C2048 H2054 0.930 . S
N2049 Li2025 1.990 . S
N2049 C2048 1.314 . S
N2049 C2052 1.279 . S
C2050 C2048 1.353 . S
C2050 C2053 1.348 . S
C2050 H2098 0.929 . S
C2051 C2052 1.358 . S
C2051 C2053 1.356 . S
C2051 H2099 0.930 . S
C2052 N2049 1.279 . S
C2052 C2051 1.358 . S
C2052 H2055 0.930 . S
C2053 C2050 1.348 . S
C2053 C2051 1.356 . S
H2054 C2048 0.930 . S
H2055 C2052 0.930 . S
C2056 C2058 1.348 . S
C2056 C2059 1.356 . S
C2056 O2086 1.325 . S
N2057 C2060 1.314 . S
N2057 C2061 1.279 . S
C2058 C2056 1.348 . S
C2058 C2060 1.353 . S
C2058 H2100 0.929 . S
C2059 C2056 1.356 . S
C2059 C2061 1.358 . S
C2059 H2101 0.930 . S
C2060 N2057 1.314 . S
C2060 C2058 1.353 . S
C2060 H2102 0.930 . S
C2061 N2057 1.279 . S
C2061 C2059 1.358 . S
C2061 H2103 0.930 . S
C2062 C2063 1.348 . S
C2062 C2064 1.356 . S
C2062 O2087 1.325 . S
C2063 C2062 1.348 . S
C2063 C2065 1.353 . S
C2063 H2104 0.929 . S
C2064 C2062 1.356 . S
C2064 C2066 1.358 . S
C2064 H2105 0.930 . S
C2065 C2063 1.353 . S
C2065 N2067 1.314 . S
C2065 H2106 0.930 . S
C2066 C2064 1.358 . S
C2066 N2067 1.279 . S
C2066 H2107 0.930 . S
N2067 C2065 1.314 . S
N2067 C2066 1.279 . S
C2068 C2070 1.353 . S
C2068 N2071 1.314 . S
C2068 H2074 0.930 . S
C2069 N2071 1.279 . S
C2069 C2072 1.358 . S
C2069 H2075 0.930 . S
C2070 C2068 1.353 . S
C2070 C2073 1.348 . S
C2070 H2108 0.929 . S
N2071 Li2026 1.990 . S
N2071 C2068 1.314 . S
N2071 C2069 1.279 . S
C2072 C2069 1.358 . S
C2072 C2073 1.356 . S
C2072 H2109 0.930 . S
C2073 C2070 1.348 . S
C2073 C2072 1.356 . S
H2074 C2068 0.930 . S
H2075 C2069 0.930 . S
C2076 N2077 1.314 . S
C2076 C2078 1.353 . S
C2076 H2082 0.930 . S
N2077 Li2027 1.990 . S
N2077 C2076 1.314 . S
N2077 C2080 1.279 . S
C2078 C2076 1.353 . S
C2078 C2081 1.348 . S
C2078 H2110 0.929 . S
C2079 C2080 1.358 . S
C2079 C2081 1.356 . S
C2079 H2111 0.930 . S
C2080 N2077 1.279 . S
C2080 C2079 1.358 . S
C2080 H2083 0.930 . S
C2081 C2078 1.348 . S
C2081 C2079 1.356 . S
H2082 C2076 0.930 . S
H2083 C2080 0.930 . S
O2084 Li2024 1.956 . S
O2084 Li2025 1.970 . S
O2084 Li2026 1.961 . S
O2084 C2028 1.325 . S
O2085 Li2024 1.970 . S
O2085 Li2025 1.956 . S
O2085 Li2027 1.961 . S
O2085 C2034 1.325 . S
O2086 Li2024 1.961 . S
O2086 Li2026 1.956 . S
O2086 Li2027 1.970 . S
O2086 C2056 1.325 . S
O2087 Li2025 1.961 . S
O2087 Li2026 1.970 . S
O2087 Li2027 1.956 . S
O2087 C2062 1.325 . S
H2088 C2030 0.929 . S
H2089 C2031 0.930 . S
H2090 C2032 0.930 . S
H2091 C2033 0.930 . S
H2092 C2035 0.930 . S
H2093 C2037 0.929 . S
H2094 C2038 0.930 . S
H2095 C2039 0.930 . S
H2096 C2042 0.930 . S
H2097 C2045 0.929 . S
H2098 C2050 0.929 . S
H2099 C2051 0.930 . S
H2100 C2058 0.929 . S
H2101 C2059 0.930 . S
H2102 C2060 0.930 . S
H2103 C2061 0.930 . S
H2104 C2063 0.929 . S
H2105 C2064 0.930 . S
H2106 C2065 0.930 . S
H2107 C2066 0.930 . S
H2108 C2070 0.929 . S
H2109 C2072 0.930 . S
H2110 C2078 0.929 . S
H2111 C2079 0.930 . S
Dy2112 O2115 2.307 . S
Dy2112 O2117 2.395 . S
Dy2112 O2118 2.379 . S
Dy2112 O2120 2.339 . S
Dy2112 O2122 2.298 . S
Dy2112 O2126 2.275 . S
Dy2112 C2134 2.738 . S
Dy2113 O2116 2.298 1_655 S
Dy2113 O2119 2.275 1_655 S
Dy2113 O2121 2.307 1_645 S
Dy2113 O2123 2.395 . S
Dy2113 O2124 2.379 1_554 S
Dy2113 O2127 2.339 1_654 S
Dy2113 C2143 2.738 . S
C2114 O2126 1.254 1_556 S
C2114 O2127 1.257 . S
O2115 Dy2112 2.307 . S
O2115 C2125 1.266 . S
O2116 Dy2113 2.298 1_455 S
O2116 C2125 1.236 . S
O2117 Dy2112 2.395 . S
O2117 C2134 1.255 . S
O2118 Dy2112 2.379 . S
O2118 C2134 1.249 . S
O2119 Dy2113 2.275 1_455 S
O2119 C2135 1.254 . S
O2120 Dy2112 2.339 . S
O2120 C2135 1.257 . S
O2121 Dy2113 2.307 1_465 S
O2121 C2136 1.266 . S
O2122 Dy2112 2.298 . S
O2122 C2136 1.236 1_545 S
O2123 Dy2113 2.395 . S
O2123 C2143 1.255 . S
O2124 Dy2113 2.379 1_556 S
O2124 C2143 1.249 1_556 S
C2125 O2115 1.266 . S
C2125 O2116 1.236 . S
O2126 Dy2112 2.275 . S
O2126 C2114 1.254 1_554 S
O2127 Dy2113 2.339 1_456 S
O2127 C2114 1.257 . S
C2128 C2131 1.344 . S
C2128 C2132 1.328 . S
C2128 C2134 1.516 . S
C2129 C2130 1.304 1_545 S
C2129 C2133 1.323 . S
C2130 C2129 1.304 1_565 S
C2130 C2131 1.371 1_565 S
C2130 H2144 0.930 . S
C2131 C2128 1.344 . S
C2131 C2130 1.371 1_545 S
C2131 H2145 0.931 . S
C2132 C2128 1.328 . S
C2132 C2133 1.433 . S
C2132 H2146 0.931 . S
C2133 C2129 1.323 . S
C2133 C2132 1.433 . S
C2133 H2147 0.933 . S
C2134 Dy2112 2.738 . S
C2134 O2117 1.255 . S
C2134 O2118 1.249 . S
C2134 C2128 1.516 . S
C2135 O2119 1.254 . S
C2135 O2120 1.257 . S
C2136 O2121 1.266 . S
C2136 O2122 1.236 1_565 S
C2137 C2140 1.344 . S
C2137 C2141 1.328 1_554 S
C2137 C2143 1.516 . S
C2138 C2139 1.304 . S
C2138 C2142 1.323 1_554 S
C2139 C2138 1.304 . S
C2139 C2140 1.371 . S
C2139 H2148 0.930 . S
C2140 C2137 1.344 . S
C2140 C2139 1.371 . S
C2140 H2149 0.931 . S
C2141 C2137 1.328 1_556 S
C2141 C2142 1.433 . S
C2141 H2150 0.931 . S
C2142 C2138 1.323 1_556 S
C2142 C2141 1.433 . S
C2142 H2151 0.933 . S
C2143 Dy2113 2.738 . S
C2143 O2123 1.255 . S
C2143 O2124 1.249 1_554 S
C2143 C2137 1.516 . S
H2144 C2130 0.930 . S
H2145 C2131 0.931 . S
H2146 C2132 0.931 . S
H2147 C2133 0.933 . S
H2148 C2139 0.930 . S
H2149 C2140 0.931 . S
H2150 C2141 0.931 . S
H2151 C2142 0.933 . S
Dy2152 O2155 2.307 . S
Dy2152 O2157 2.395 . S
Dy2152 O2158 2.379 . S
Dy2152 O2160 2.339 . S
Dy2152 O2162 2.298 . S
Dy2152 O2166 2.275 . S
Dy2152 C2174 2.738 . S
Dy2153 O2156 2.298 . S
Dy2153 O2159 2.275 . S
Dy2153 O2161 2.307 . S
Dy2153 O2163 2.395 . S
Dy2153 O2164 2.379 . S
Dy2153 O2167 2.339 . S
Dy2153 C2183 2.738 . S
C2154 O2166 1.254 . S
C2154 O2167 1.257 . S
O2155 Dy2152 2.307 . S
O2155 C2165 1.266 . S
O2156 Dy2153 2.298 . S
O2156 C2165 1.236 . S
O2157 Dy2152 2.395 . S
O2157 C2174 1.255 . S
O2158 Dy2152 2.379 . S
O2158 C2174 1.249 . S
O2159 Dy2153 2.275 . S
O2159 C2175 1.254 . S
O2160 Dy2152 2.339 . S
O2160 C2175 1.257 . S
O2161 Dy2153 2.307 . S
O2161 C2176 1.266 . S
O2162 Dy2152 2.298 . S
O2162 C2176 1.236 . S
O2163 Dy2153 2.395 . S
O2163 C2183 1.255 . S
O2164 Dy2153 2.379 . S
O2164 C2183 1.249 . S
C2165 O2155 1.266 . S
C2165 O2156 1.236 . S
O2166 Dy2152 2.275 . S
O2166 C2154 1.254 . S
O2167 Dy2153 2.339 . S
O2167 C2154 1.257 . S
C2168 C2171 1.344 . S
C2168 C2172 1.328 . S
C2168 C2174 1.516 . S
C2169 C2170 1.304 . S
C2169 C2173 1.323 . S
C2170 C2169 1.304 . S
C2170 C2171 1.371 . S
C2170 H2184 0.930 . S
C2171 C2168 1.344 . S
C2171 C2170 1.371 . S
C2171 H2185 0.931 . S
C2172 C2168 1.328 . S
C2172 C2173 1.433 . S
C2172 H2186 0.931 . S
C2173 C2169 1.323 . S
C2173 C2172 1.433 . S
C2173 H2187 0.933 . S
C2174 Dy2152 2.738 . S
C2174 O2157 1.255 . S
C2174 O2158 1.249 . S
C2174 C2168 1.516 . S
C2175 O2159 1.254 . S
C2175 O2160 1.257 . S
C2176 O2161 1.266 . S
C2176 O2162 1.236 . S
C2177 C2180 1.344 . S
C2177 C2181 1.328 . S
C2177 C2183 1.516 . S
C2178 C2179 1.304 . S
C2178 C2182 1.323 . S
C2179 C2178 1.304 . S
C2179 C2180 1.371 . S
C2179 H2188 0.930 . S
C2180 C2177 1.344 . S
C2180 C2179 1.371 . S
C2180 H2189 0.931 . S
C2181 C2177 1.328 . S
C2181 C2182 1.433 . S
C2181 H2190 0.931 . S
C2182 C2178 1.323 . S
C2182 C2181 1.433 . S
C2182 H2191 0.933 . S
C2183 Dy2153 2.738 . S
C2183 O2163 1.255 . S
C2183 O2164 1.249 . S
C2183 C2177 1.516 . S
H2184 C2170 0.930 . S
H2185 C2171 0.931 . S
H2186 C2172 0.931 . S
H2187 C2173 0.933 . S
H2188 C2179 0.930 . S
H2189 C2180 0.931 . S
H2190 C2181 0.931 . S
H2191 C2182 0.933 . S
Dy2192 O2195 2.358 . S
Dy2192 O2197 2.395 . S
Dy2192 O2198 2.379 . S
Dy2192 O2200 2.339 . S
Dy2192 O2202 2.298 . S
Dy2192 O2206 2.275 . S
Dy2192 C2214 2.738 . S
Dy2193 O2196 2.298 . S
Dy2193 O2199 2.275 . S
Dy2193 O2201 2.307 . S
Dy2193 O2203 2.395 . S
Dy2193 O2204 2.379 . S
Dy2193 O2207 2.339 . S
Dy2193 C2223 2.738 . S
C2194 O2206 1.254 . S
C2194 O2207 1.257 . S
O2195 Dy2192 2.358 . S
O2195 C2205 1.240 1_545 S
O2196 Dy2193 2.298 . S
O2196 C2205 1.236 1_545 S
O2197 Dy2192 2.395 . S
O2197 C2214 1.255 . S
O2198 Dy2192 2.379 . S
O2198 C2214 1.249 . S
O2199 Dy2193 2.275 . S
O2199 C2215 1.254 . S
O2200 Dy2192 2.339 . S
O2200 C2215 1.257 . S
O2201 Dy2193 2.307 . S
O2201 C2216 1.266 . S
O2202 Dy2192 2.298 . S
O2202 C2216 1.236 . S
O2203 Dy2193 2.395 . S
O2203 C2223 1.255 . S
O2204 Dy2193 2.379 . S
O2204 C2223 1.249 . S
C2205 O2195 1.240 1_565 S
C2205 O2196 1.236 1_565 S
O2206 Dy2192 2.275 . S
O2206 C2194 1.254 . S
O2207 Dy2193 2.339 . S
O2207 C2194 1.257 . S
C2208 C2211 1.344 . S
C2208 C2212 1.328 . S
C2208 C2214 1.516 . S
C2209 C2210 1.304 . S
C2209 C2213 1.323 . S
C2210 C2209 1.304 . S
C2210 C2211 1.371 . S
C2210 H2224 0.930 . S
C2211 C2208 1.344 . S
C2211 C2210 1.371 . S
C2211 H2225 0.931 . S
C2212 C2208 1.328 . S
C2212 C2213 1.433 . S
C2212 H2226 0.931 . S
C2213 C2209 1.323 . S
C2213 C2212 1.433 . S
C2213 H2227 0.933 . S
C2214 Dy2192 2.738 . S
C2214 O2197 1.255 . S
C2214 O2198 1.249 . S
C2214 C2208 1.516 . S
C2215 O2199 1.254 . S
C2215 O2200 1.257 . S
C2216 O2201 1.266 . S
C2216 O2202 1.236 . S
C2217 C2220 1.344 1_545 S
C2217 C2221 1.328 . S
C2217 C2223 1.516 . S
C2218 C2219 1.304 . S
C2218 C2222 1.323 . S
C2219 C2218 1.304 . S
C2219 C2220 1.371 . S
C2219 H2228 0.930 . S
C2220 C2217 1.344 1_565 S
C2220 C2219 1.371 . S
C2220 H2229 0.931 . S
C2221 C2217 1.328 . S
C2221 C2222 1.433 1_545 S
C2221 H2230 0.931 . S
C2222 C2218 1.323 . S
C2222 C2221 1.433 1_565 S
C2222 H2231 0.933 . S
C2223 Dy2193 2.738 . S
C2223 O2203 1.255 . S
C2223 O2204 1.249 . S
C2223 C2217 1.516 . S
H2224 C2210 0.930 . S
H2225 C2211 0.931 . S
H2226 C2212 0.931 . S
H2227 C2213 0.933 . S
H2228 C2219 0.930 . S
H2229 C2220 0.931 . S
H2230 C2221 0.931 . S
H2231 C2222 0.933 . S
Dy2232 O2235 2.307 . S
Dy2232 O2237 2.395 . S
Dy2232 O2238 2.379 . S
Dy2232 O2240 2.339 . S
Dy2232 O2242 2.298 . S
Dy2232 O2246 2.275 . S
Dy2232 C2254 2.738 . S
Dy2233 O2236 2.298 . S
Dy2233 O2239 2.275 . S
Dy2233 O2241 2.307 . S
Dy2233 O2243 2.395 . S
Dy2233 O2244 2.379 . S
Dy2233 O2247 2.339 . S
Dy2233 C2263 2.738 . S
C2234 O2246 1.254 . S
C2234 O2247 1.257 . S
O2235 Dy2232 2.307 . S
O2235 C2245 1.266 . S
O2236 Dy2233 2.298 . S
O2236 C2245 1.236 . S
O2237 Dy2232 2.395 . S
O2237 C2254 1.255 . S
O2238 Dy2232 2.379 . S
O2238 C2254 1.249 . S
O2239 Dy2233 2.275 . S
O2239 C2255 1.254 . S
O2240 Dy2232 2.339 . S
O2240 C2255 1.257 . S
O2241 Dy2233 2.307 . S
O2241 C2256 1.266 . S
O2242 Dy2232 2.298 . S
O2242 C2256 1.236 . S
O2243 Dy2233 2.395 . S
O2243 C2263 1.255 . S
O2244 Dy2233 2.379 . S
O2244 C2263 1.249 . S
C2245 O2235 1.266 . S
C2245 O2236 1.236 . S
O2246 Dy2232 2.275 . S
O2246 C2234 1.254 . S
O2247 Dy2233 2.339 . S
O2247 C2234 1.257 . S
C2248 C2251 1.344 . S
C2248 C2252 1.328 . S
C2248 C2254 1.516 . S
C2249 C2250 1.304 . S
C2249 C2253 1.323 . S
C2250 C2249 1.304 . S
C2250 C2251 1.371 . S
C2250 H2264 0.930 . S
C2251 C2248 1.344 . S
C2251 C2250 1.371 . S
C2251 H2265 0.931 . S
C2252 C2248 1.328 . S
C2252 C2253 1.433 . S
C2252 H2266 0.931 . S
C2253 C2249 1.323 . S
C2253 C2252 1.433 . S
C2253 H2267 0.933 . S
C2254 Dy2232 2.738 . S
C2254 O2237 1.255 . S
C2254 O2238 1.249 . S
C2254 C2248 1.516 . S
C2255 O2239 1.254 . S
C2255 O2240 1.257 . S
C2256 O2241 1.266 . S
C2256 O2242 1.236 . S
C2257 C2260 1.344 . S
C2257 C2261 1.328 . S
C2257 C2263 1.516 . S
C2258 C2259 1.304 . S
C2258 C2262 1.323 . S
C2259 C2258 1.304 . S
C2259 C2260 1.371 . S
C2259 H2268 0.930 . S
C2260 C2257 1.344 . S
C2260 C2259 1.371 . S
C2260 H2269 0.931 . S
C2261 C2257 1.328 . S
C2261 C2262 1.433 . S
C2261 H2270 0.931 . S
C2262 C2258 1.323 . S
C2262 C2261 1.433 . S
C2262 H2271 0.933 . S
C2263 Dy2233 2.738 . S
C2263 O2243 1.255 . S
C2263 O2244 1.249 . S
C2263 C2257 1.516 . S
H2264 C2250 0.930 . S
H2265 C2251 0.931 . S
H2266 C2252 0.931 . S
H2267 C2253 0.933 . S
H2268 C2259 0.930 . S
H2269 C2260 0.931 . S
H2270 C2261 0.931 . S
H2271 C2262 0.933 . S
Dy2272 O2275 2.307 . S
Dy2272 O2277 2.395 1_545 S
Dy2272 O2278 2.379 1_545 S
Dy2272 O2280 2.339 . S
Dy2272 O2282 2.298 . S
Dy2272 O2286 2.275 . S
Dy2272 C2294 2.738 1_545 S
Dy2273 O2276 2.298 . S
Dy2273 O2279 2.275 . S
Dy2273 O2281 2.307 . S
Dy2273 O2283 2.395 . S
Dy2273 O2284 2.379 1_455 S
Dy2273 O2287 2.339 1_455 S
Dy2273 C2303 2.738 . S
C2274 O2286 1.254 1_655 S
C2274 O2287 1.257 . S
O2275 Dy2272 2.307 . S
O2275 C2285 1.266 . S
O2276 Dy2273 2.298 . S
O2276 C2285 1.236 . S
O2277 Dy2272 2.395 1_565 S
O2277 C2294 1.255 . S
O2278 Dy2272 2.379 1_565 S
O2278 C2294 1.249 . S
O2279 Dy2273 2.275 . S
O2279 C2295 1.254 . S
O2280 Dy2272 2.339 . S
O2280 C2295 1.257 . S
O2281 Dy2273 2.307 . S
O2281 C2296 1.266 . S
O2282 Dy2272 2.298 . S
O2282 C2296 1.236 . S
O2283 Dy2273 2.395 . S
O2283 C2303 1.255 . S
O2284 Dy2273 2.379 1_655 S
O2284 C2303 1.249 1_655 S
C2285 O2275 1.266 . S
C2285 O2276 1.236 . S
O2286 Dy2272 2.275 . S
O2286 C2274 1.254 1_455 S
O2287 Dy2273 2.339 1_655 S
O2287 C2274 1.257 . S
C2288 C2291 1.344 . S
C2288 C2292 1.328 . S
C2288 C2294 1.516 . S
C2289 C2290 1.304 . S
C2289 C2293 1.323 . S
C2290 C2289 1.304 . S
C2290 C2291 1.371 . S
C2290 H2304 0.930 . S
C2291 C2288 1.344 . S
C2291 C2290 1.371 . S
C2291 H2305 0.931 . S
C2292 C2288 1.328 . S
C2292 C2293 1.433 . S
C2292 H2306 0.931 . S
C2293 C2289 1.323 . S
C2293 C2292 1.433 . S
C2293 H2307 0.933 . S
C2294 Dy2272 2.738 1_565 S
C2294 O2277 1.255 . S
C2294 O2278 1.249 . S
C2294 C2288 1.516 . S
C2295 O2279 1.254 . S
C2295 O2280 1.257 . S
C2296 O2281 1.266 . S
C2296 O2282 1.236 . S
C2297 C2300 1.344 . S
C2297 C2301 1.328 1_455 S
C2297 C2303 1.516 . S
C2298 C2299 1.304 . S
C2298 C2302 1.323 1_455 S
C2299 C2298 1.304 . S
C2299 C2300 1.371 . S
C2299 H2308 0.930 . S
C2300 C2297 1.344 . S
C2300 C2299 1.371 . S
C2300 H2309 0.931 . S
C2301 C2297 1.328 1_655 S
C2301 C2302 1.433 . S
C2301 H2310 0.931 . S
C2302 C2298 1.323 1_655 S
C2302 C2301 1.433 . S
C2302 H2311 0.933 . S
C2303 Dy2273 2.738 . S
C2303 O2283 1.255 . S
C2303 O2284 1.249 1_455 S
C2303 C2297 1.516 . S
H2304 C2290 0.930 . S
H2305 C2291 0.931 . S
H2306 C2292 0.931 . S
H2307 C2293 0.933 . S
H2308 C2299 0.930 . S
H2309 C2300 0.931 . S
H2310 C2301 0.931 . S
H2311 C2302 0.933 . S
Dy2312 O2315 2.307 . S
Dy2312 O2317 2.395 . S
Dy2312 O2318 2.379 . S
Dy2312 O2320 2.339 . S
Dy2312 O2322 2.298 . S
Dy2312 O2326 2.275 . S
Dy2312 C2334 2.738 . S
Dy2313 O2316 2.298 . S
Dy2313 O2319 2.275 . S
Dy2313 O2321 2.307 . S
Dy2313 O2323 2.395 . S
Dy2313 O2324 2.379 . S
Dy2313 O2327 2.339 . S
Dy2313 C2343 2.738 . S
C2314 O2326 1.254 . S
C2314 O2327 1.257 . S
O2315 Dy2312 2.307 . S
O2315 C2325 1.266 . S
O2316 Dy2313 2.298 . S
O2316 C2325 1.236 . S
O2317 Dy2312 2.395 . S
O2317 C2334 1.255 . S
O2318 Dy2312 2.379 . S
O2318 C2334 1.249 . S
O2319 Dy2313 2.275 . S
O2319 C2335 1.254 . S
O2320 Dy2312 2.339 . S
O2320 C2335 1.257 . S
O2321 Dy2313 2.307 . S
O2321 C2336 1.266 . S
O2322 Dy2312 2.298 . S
O2322 C2336 1.236 . S
O2323 Dy2313 2.395 . S
O2323 C2343 1.255 . S
O2324 Dy2313 2.379 . S
O2324 C2343 1.249 . S
C2325 O2315 1.266 . S
C2325 O2316 1.236 . S
O2326 Dy2312 2.275 . S
O2326 C2314 1.254 . S
O2327 Dy2313 2.339 . S
O2327 C2314 1.257 . S
C2328 C2331 1.344 . S
C2328 C2332 1.328 . S
C2328 C2334 1.516 . S
C2329 C2330 1.304 . S
C2329 C2333 1.323 . S
C2330 C2329 1.304 . S
C2330 C2331 1.371 . S
C2330 H2344 0.930 . S
C2331 C2328 1.344 . S
C2331 C2330 1.371 . S
C2331 H2345 0.931 . S
C2332 C2328 1.328 . S
C2332 C2333 1.433 . S
C2332 H2346 0.931 . S
C2333 C2329 1.323 . S
C2333 C2332 1.433 . S
C2333 H2347 0.933 . S
C2334 Dy2312 2.738 . S
C2334 O2317 1.255 . S
C2334 O2318 1.249 . S
C2334 C2328 1.516 . S
C2335 O2319 1.254 . S
C2335 O2320 1.257 . S
C2336 O2321 1.266 . S
C2336 O2322 1.236 . S
C2337 C2340 1.344 . S
C2337 C2341 1.328 . S
C2337 C2343 1.516 . S
C2338 C2339 1.304 . S
C2338 C2342 1.323 . S
C2339 C2338 1.304 . S
C2339 C2340 1.371 . S
C2339 H2348 0.930 . S
C2340 C2337 1.344 . S
C2340 C2339 1.371 . S
C2340 H2349 0.931 . S
C2341 C2337 1.328 . S
C2341 C2342 1.433 . S
C2341 H2350 0.931 . S
C2342 C2338 1.323 . S
C2342 C2341 1.433 . S
C2342 H2351 0.933 . S
C2343 Dy2313 2.738 . S
C2343 O2323 1.255 . S
C2343 O2324 1.249 . S
C2343 C2337 1.516 . S
H2344 C2330 0.930 . S
H2345 C2331 0.931 . S
H2346 C2332 0.931 . S
H2347 C2333 0.933 . S
H2348 C2339 0.930 . S
H2349 C2340 0.931 . S
H2350 C2341 0.931 . S
H2351 C2342 0.933 . S
Dy2352 O2355 2.307 1_556 S
Dy2352 O2357 2.395 . S
Dy2352 O2358 2.379 . S
Dy2352 O2360 2.339 1_556 S
Dy2352 O2362 2.298 1_556 S
Dy2352 O2366 2.275 1_556 S
Dy2352 C2374 2.738 . S
Dy2353 O2356 2.298 . S
Dy2353 O2359 2.275 . S
Dy2353 O2361 2.307 . S
Dy2353 O2363 2.395 . S
Dy2353 O2364 2.379 1_545 S
Dy2353 O2367 2.339 1_545 S
Dy2353 C2383 2.738 . S
C2354 O2366 1.254 1_565 S
C2354 O2367 1.257 . S
O2355 Dy2352 2.307 1_554 S
O2355 C2365 1.266 . S
O2356 Dy2353 2.298 . S
O2356 C2365 1.236 . S
O2357 Dy2352 2.395 . S
O2357 C2374 1.255 . S
O2358 Dy2352 2.379 . S
O2358 C2374 1.249 . S
O2359 Dy2353 2.275 . S
O2359 C2375 1.254 . S
O2360 Dy2352 2.339 1_554 S
O2360 C2375 1.257 . S
O2361 Dy2353 2.307 . S
O2361 C2376 1.266 . S
O2362 Dy2352 2.298 1_554 S
O2362 C2376 1.236 . S
O2363 Dy2353 2.395 . S
O2363 C2383 1.255 . S
O2364 Dy2353 2.379 1_565 S
O2364 C2383 1.249 1_565 S
C2365 O2355 1.266 . S
C2365 O2356 1.236 . S
O2366 Dy2352 2.275 1_554 S
O2366 C2354 1.254 1_545 S
O2367 Dy2353 2.339 1_565 S
O2367 C2354 1.257 . S
C2368 C2371 1.344 . S
C2368 C2372 1.328 . S
C2368 C2374 1.516 . S
C2369 C2370 1.304 . S
C2369 C2373 1.323 . S
C2370 C2369 1.304 . S
C2370 C2371 1.371 . S
C2370 H2384 0.930 . S
C2371 C2368 1.344 . S
C2371 C2370 1.371 . S
C2371 H2385 0.931 . S
C2372 C2368 1.328 . S
C2372 C2373 1.433 . S
C2372 H2386 0.931 . S
C2373 C2369 1.323 . S
C2373 C2372 1.433 . S
C2373 H2387 0.933 . S
C2374 Dy2352 2.738 . S
C2374 O2357 1.255 . S
C2374 O2358 1.249 . S
C2374 C2368 1.516 . S
C2375 O2359 1.254 . S
C2375 O2360 1.257 . S
C2376 O2361 1.266 . S
C2376 O2362 1.236 . S
C2377 C2380 1.344 . S
C2377 C2381 1.328 1_545 S
C2377 C2383 1.516 . S
C2378 C2379 1.304 1_565 S
C2378 C2382 1.323 . S
C2379 C2378 1.304 1_545 S
C2379 C2380 1.371 . S
C2379 H2388 0.930 . S
C2380 C2377 1.344 . S
C2380 C2379 1.371 . S
C2380 H2389 0.931 . S
C2381 C2377 1.328 1_565 S
C2381 C2382 1.433 . S
C2381 H2390 0.931 . S
C2382 C2378 1.323 . S
C2382 C2381 1.433 . S
C2382 H2391 0.933 . S
C2383 Dy2353 2.738 . S
C2383 O2363 1.255 . S
C2383 O2364 1.249 1_545 S
C2383 C2377 1.516 . S
H2384 C2370 0.930 . S
H2385 C2371 0.931 . S
H2386 C2372 0.931 . S
H2387 C2373 0.933 . S
H2388 C2379 0.930 . S
H2389 C2380 0.931 . S
H2390 C2381 0.931 . S
H2391 C2382 0.933 . S
Dy2392 O2395 2.307 . S
Dy2392 O2397 2.395 . S
Dy2392 O2398 2.379 . S
Dy2392 O2400 2.339 . S
Dy2392 O2402 2.298 . S
Dy2392 O2406 2.275 . S
Dy2392 C2414 2.738 . S
Dy2393 O2396 2.298 . S
Dy2393 O2399 2.275 . S
Dy2393 O2401 2.307 . S
Dy2393 O2403 2.395 . S
Dy2393 O2404 2.379 . S
Dy2393 O2407 2.339 . S
Dy2393 C2423 2.738 . S
C2394 O2406 1.254 . S
C2394 O2407 1.257 . S
O2395 Dy2392 2.307 . S
O2395 C2405 1.266 . S
O2396 Dy2393 2.298 . S
O2396 C2405 1.236 . S
O2397 Dy2392 2.395 . S
O2397 C2414 1.255 . S
O2398 Dy2392 2.379 . S
O2398 C2414 1.249 . S
O2399 Dy2393 2.275 . S
O2399 C2415 1.254 . S
O2400 Dy2392 2.339 . S
O2400 C2415 1.257 . S
O2401 Dy2393 2.307 . S
O2401 C2416 1.266 . S
O2402 Dy2392 2.298 . S
O2402 C2416 1.236 . S
O2403 Dy2393 2.395 . S
O2403 C2423 1.255 . S
O2404 Dy2393 2.379 . S
O2404 C2423 1.249 . S
C2405 O2395 1.266 . S
C2405 O2396 1.236 . S
O2406 Dy2392 2.275 . S
O2406 C2394 1.254 . S
O2407 Dy2393 2.339 . S
O2407 C2394 1.257 . S
C2408 C2411 1.344 . S
C2408 C2412 1.328 . S
C2408 C2414 1.516 . S
C2409 C2410 1.304 . S
C2409 C2413 1.323 . S
C2410 C2409 1.304 . S
C2410 C2411 1.371 . S
C2410 H2424 0.930 . S
C2411 C2408 1.344 . S
C2411 C2410 1.371 . S
C2411 H2425 0.931 . S
C2412 C2408 1.328 . S
C2412 C2413 1.433 . S
C2412 H2426 0.931 . S
C2413 C2409 1.323 . S
C2413 C2412 1.433 . S
C2413 H2427 0.933 . S
C2414 Dy2392 2.738 . S
C2414 O2397 1.255 . S
C2414 O2398 1.249 . S
C2414 C2408 1.516 . S
C2415 O2399 1.254 . S
C2415 O2400 1.257 . S
C2416 O2401 1.266 . S
C2416 O2402 1.236 . S
C2417 C2420 1.344 . S
C2417 C2421 1.328 . S
C2417 C2423 1.516 . S
C2418 C2419 1.304 . S
C2418 C2422 1.323 . S
C2419 C2418 1.304 . S
C2419 C2420 1.371 . S
C2419 H2428 0.930 . S
C2420 C2417 1.344 . S
C2420 C2419 1.371 . S
C2420 H2429 0.931 . S
C2421 C2417 1.328 . S
C2421 C2422 1.433 . S
C2421 H2430 0.931 . S
C2422 C2418 1.323 . S
C2422 C2421 1.433 . S
C2422 H2431 0.933 . S
C2423 Dy2393 2.738 . S
C2423 O2403 1.255 . S
C2423 O2404 1.249 . S
C2423 C2417 1.516 . S
H2424 C2410 0.930 . S
H2425 C2411 0.931 . S
H2426 C2412 0.931 . S
H2427 C2413 0.933 . S
H2428 C2419 0.930 . S
H2429 C2420 0.931 . S
H2430 C2421 0.931 . S
H2431 C2422 0.933 . S
Dy2432 O2435 2.307 1_554 S
Dy2432 O2437 2.395 . S
Dy2432 O2438 2.379 . S
Dy2432 O2440 2.339 . S
Dy2432 O2442 2.298 . S
Dy2432 O2446 2.275 . S
Dy2432 C2454 2.738 . S
Dy2433 O2436 2.298 1_554 S
Dy2433 O2439 2.275 . S
Dy2433 O2441 2.307 . S
Dy2433 O2443 2.395 . S
Dy2433 O2444 2.379 . S
Dy2433 O2447 2.339 . S
Dy2433 C2463 2.738 . S
C2434 O2446 1.254 . S
C2434 O2447 1.257 . S
O2435 Dy2432 2.307 1_556 S
O2435 C2445 1.266 . S
O2436 Dy2433 2.298 1_556 S
O2436 C2445 1.236 . S
O2437 Dy2432 2.395 . S
O2437 C2454 1.255 . S
O2438 Dy2432 2.379 . S
O2438 C2454 1.249 . S
O2439 Dy2433 2.275 . S
O2439 C2455 1.254 . S
O2440 Dy2432 2.339 . S
O2440 C2455 1.257 . S
O2441 Dy2433 2.307 . S
O2441 C2456 1.266 . S
O2442 Dy2432 2.298 . S
O2442 C2456 1.236 . S
O2443 Dy2433 2.395 . S
O2443 C2463 1.255 . S
O2444 Dy2433 2.379 . S
O2444 C2463 1.249 . S
C2445 O2435 1.266 . S
C2445 O2436 1.236 . S
O2446 Dy2432 2.275 . S
O2446 C2434 1.254 . S
O2447 Dy2433 2.339 . S
O2447 C2434 1.257 . S
C2448 C2451 1.344 . S
C2448 C2452 1.328 . S
C2448 C2454 1.516 . S
C2449 C2450 1.304 . S
C2449 C2453 1.323 . S
C2450 C2449 1.304 . S
C2450 C2451 1.371 . S
C2450 H2464 0.930 . S
C2451 C2448 1.344 . S
C2451 C2450 1.371 . S
C2451 H2465 0.931 . S
C2452 C2448 1.328 . S
C2452 C2453 1.433 . S
C2452 H2466 0.931 . S
C2453 C2449 1.323 . S
C2453 C2452 1.433 . S
C2453 H2467 0.933 . S
C2454 Dy2432 2.738 . S
C2454 O2437 1.255 . S
C2454 O2438 1.249 . S
C2454 C2448 1.516 . S
C2455 O2439 1.254 . S
C2455 O2440 1.257 . S
C2456 O2441 1.266 . S
C2456 O2442 1.236 . S
C2457 C2460 1.344 . S
C2457 C2461 1.328 . S
C2457 C2463 1.516 1_556 S
C2458 C2459 1.304 . S
C2458 C2462 1.323 . S
C2459 C2458 1.304 . S
C2459 C2460 1.371 . S
C2459 H2468 0.930 . S
C2460 C2457 1.344 . S
C2460 C2459 1.371 . S
C2460 H2469 0.931 . S
C2461 C2457 1.328 . S
C2461 C2462 1.433 . S
C2461 H2470 0.931 1_556 S
C2462 C2458 1.323 . S
C2462 C2461 1.433 . S
C2462 H2471 0.933 . S
C2463 Dy2433 2.738 . S
C2463 O2443 1.255 . S
C2463 O2444 1.249 . S
C2463 C2457 1.516 1_554 S
H2464 C2450 0.930 . S
H2465 C2451 0.931 . S
H2466 C2452 0.931 . S
H2467 C2453 0.933 . S
H2468 C2459 0.930 . S
H2469 C2460 0.931 . S
H2470 C2461 0.931 1_554 S
H2471 C2462 0.933 . S
Dy2472 O2475 2.307 . S
Dy2472 O2477 2.395 . S
Dy2472 O2478 2.379 . S
Dy2472 O2480 2.339 . S
Dy2472 O2482 2.298 . S
Dy2472 O2486 2.275 . S
Dy2472 C2494 2.738 . S
Dy2473 O2476 2.298 . S
Dy2473 O2479 2.275 . S
Dy2473 O2481 2.307 . S
Dy2473 O2483 2.395 . S
Dy2473 O2484 2.379 . S
Dy2473 O2487 2.339 . S
Dy2473 C2503 2.738 . S
C2474 O2486 1.254 . S
C2474 O2487 1.257 . S
O2475 Dy2472 2.307 . S
O2475 C2485 1.266 . S
O2476 Dy2473 2.298 . S
O2476 C2485 1.236 . S
O2477 Dy2472 2.395 . S
O2477 C2494 1.255 . S
O2478 Dy2472 2.379 . S
O2478 C2494 1.249 . S
O2479 Dy2473 2.275 . S
O2479 C2495 1.254 . S
O2480 Dy2472 2.339 . S
O2480 C2495 1.257 . S
O2481 Dy2473 2.307 . S
O2481 C2496 1.266 . S
O2482 Dy2472 2.298 . S
O2482 C2496 1.236 . S
O2483 Dy2473 2.395 . S
O2483 C2503 1.255 . S
O2484 Dy2473 2.379 . S
O2484 C2503 1.249 . S
C2485 O2475 1.266 . S
C2485 O2476 1.236 . S
O2486 Dy2472 2.275 . S
O2486 C2474 1.254 . S
O2487 Dy2473 2.339 . S
O2487 C2474 1.257 . S
C2488 C2491 1.344 . S
C2488 C2492 1.328 . S
C2488 C2494 1.516 . S
C2489 C2490 1.304 . S
C2489 C2493 1.323 . S
C2490 C2489 1.304 . S
C2490 C2491 1.371 . S
C2490 H2504 0.930 . S
C2491 C2488 1.344 . S
C2491 C2490 1.371 . S
C2491 H2505 0.931 . S
C2492 C2488 1.328 . S
C2492 C2493 1.433 . S
C2492 H2506 0.931 . S
C2493 C2489 1.323 . S
C2493 C2492 1.433 . S
C2493 H2507 0.933 . S
C2494 Dy2472 2.738 . S
C2494 O2477 1.255 . S
C2494 O2478 1.249 . S
C2494 C2488 1.516 . S
C2495 O2479 1.254 . S
C2495 O2480 1.257 . S
C2496 O2481 1.266 . S
C2496 O2482 1.236 . S
C2497 C2500 1.344 . S
C2497 C2501 1.328 . S
C2497 C2503 1.516 . S
C2498 C2499 1.304 . S
C2498 C2502 1.323 . S
C2499 C2498 1.304 . S
C2499 C2500 1.371 . S
C2499 H2508 0.930 . S
C2500 C2497 1.344 . S
C2500 C2499 1.371 . S
C2500 H2509 0.931 . S
C2501 C2497 1.328 . S
C2501 C2502 1.433 . S
C2501 H2510 0.931 . S
C2502 C2498 1.323 . S
C2502 C2501 1.433 . S
C2502 H2511 0.933 . S
C2503 Dy2473 2.738 . S
C2503 O2483 1.255 . S
C2503 O2484 1.249 . S
C2503 C2497 1.516 . S
H2504 C2490 0.930 . S
H2505 C2491 0.931 . S
H2506 C2492 0.931 . S
H2507 C2493 0.933 . S
H2508 C2499 0.930 . S
H2509 C2500 0.931 . S
H2510 C2501 0.931 . S
H2511 C2502 0.933 . S
Dy2512 O2515 2.307 1_455 S
Dy2512 O2517 2.395 . S
Dy2512 O2518 2.379 . S
Dy2512 O2520 2.339 . S
Dy2512 O2522 2.298 . S
Dy2512 O2526 2.275 . S
Dy2512 C2534 2.738 . S
Dy2513 O2516 2.298 1_455 S
Dy2513 O2519 2.275 . S
Dy2513 O2521 2.307 . S
Dy2513 O2523 2.395 . S
Dy2513 O2524 2.379 . S
Dy2513 O2527 2.339 . S
Dy2513 C2543 2.738 . S
C2514 O2526 1.254 . S
C2514 O2527 1.257 . S
O2515 Dy2512 2.307 1_655 S
O2515 C2525 1.266 . S
O2516 Dy2513 2.298 1_655 S
O2516 C2525 1.236 . S
O2517 Dy2512 2.395 . S
O2517 C2534 1.255 . S
O2518 Dy2512 2.379 . S
O2518 C2534 1.249 . S
O2519 Dy2513 2.275 . S
O2519 C2535 1.254 . S
O2520 Dy2512 2.339 . S
O2520 C2535 1.257 . S
O2521 Dy2513 2.307 . S
O2521 C2536 1.266 . S
O2522 Dy2512 2.298 . S
O2522 C2536 1.236 . S
O2523 Dy2513 2.395 . S
O2523 C2543 1.255 . S
O2524 Dy2513 2.379 . S
O2524 C2543 1.249 . S
C2525 O2515 1.266 . S
C2525 O2516 1.236 . S
O2526 Dy2512 2.275 . S
O2526 C2514 1.254 . S
O2527 Dy2513 2.339 . S
O2527 C2514 1.257 . S
C2528 C2531 1.344 . S
C2528 C2532 1.328 . S
C2528 C2534 1.516 . S
C2529 C2530 1.304 . S
C2529 C2533 1.323 . S
C2530 C2529 1.304 . S
C2530 C2531 1.371 . S
C2530 H2544 0.930 . S
C2531 C2528 1.344 . S
C2531 C2530 1.371 . S
C2531 H2545 0.931 . S
C2532 C2528 1.328 . S
C2532 C2533 1.433 . S
C2532 H2546 0.931 . S
C2533 C2529 1.323 . S
C2533 C2532 1.433 . S
C2533 H2547 0.933 . S
C2534 Dy2512 2.738 . S
C2534 O2517 1.255 . S
C2534 O2518 1.249 . S
C2534 C2528 1.516 . S
C2535 O2519 1.254 . S
C2535 O2520 1.257 . S
C2536 O2521 1.266 . S
C2536 O2522 1.236 . S
C2537 C2540 1.344 . S
C2537 C2541 1.328 . S
C2537 C2543 1.516 1_655 S
C2538 C2539 1.304 . S
C2538 C2542 1.323 . S
C2539 C2538 1.304 . S
C2539 C2540 1.371 . S
C2539 H2548 0.930 . S
C2540 C2537 1.344 . S
C2540 C2539 1.371 . S
C2540 H2549 0.931 . S
C2541 C2537 1.328 . S
C2541 C2542 1.433 . S
C2541 H2550 0.928 . S
C2542 C2538 1.323 . S
C2542 C2541 1.433 . S
C2542 H2551 0.933 . S
C2543 Dy2513 2.738 . S
C2543 O2523 1.255 . S
C2543 O2524 1.249 . S
C2543 C2537 1.516 1_455 S
H2544 C2530 0.930 . S
H2545 C2531 0.931 . S
H2546 C2532 0.931 . S
H2547 C2533 0.933 . S
H2548 C2539 0.930 . S
H2549 C2540 0.931 . S
H2550 C2541 0.928 . S
H2551 C2542 0.933 . S
Dy2552 O2555 2.307 . S
Dy2552 O2557 2.395 . S
Dy2552 O2558 2.379 . S
Dy2552 O2560 2.339 . S
Dy2552 O2562 2.298 . S
Dy2552 O2566 2.275 . S
Dy2552 C2574 2.738 . S
Dy2553 O2556 2.298 . S
Dy2553 O2559 2.275 . S
Dy2553 O2561 2.307 . S
Dy2553 O2563 2.395 . S
Dy2553 O2564 2.379 . S
Dy2553 O2567 2.339 . S
Dy2553 C2583 2.738 . S
C2554 O2566 1.254 . S
C2554 O2567 1.257 . S
O2555 Dy2552 2.307 . S
O2555 C2565 1.266 . S
O2556 Dy2553 2.298 . S
O2556 C2565 1.236 . S
O2557 Dy2552 2.395 . S
O2557 C2574 1.255 . S
O2558 Dy2552 2.379 . S
O2558 C2574 1.249 . S
O2559 Dy2553 2.275 . S
O2559 C2575 1.254 . S
O2560 Dy2552 2.339 . S
O2560 C2575 1.257 . S
O2561 Dy2553 2.307 . S
O2561 C2576 1.266 . S
O2562 Dy2552 2.298 . S
O2562 C2576 1.236 . S
O2563 Dy2553 2.395 . S
O2563 C2583 1.255 . S
O2564 Dy2553 2.379 . S
O2564 C2583 1.249 . S
C2565 O2555 1.266 . S
C2565 O2556 1.236 . S
O2566 Dy2552 2.275 . S
O2566 C2554 1.254 . S
O2567 Dy2553 2.339 . S
O2567 C2554 1.257 . S
C2568 C2571 1.344 . S
C2568 C2572 1.328 . S
C2568 C2574 1.516 . S
C2569 C2570 1.304 . S
C2569 C2573 1.323 . S
C2570 C2569 1.304 . S
C2570 C2571 1.371 . S
C2570 H2584 0.930 . S
C2571 C2568 1.344 . S
C2571 C2570 1.371 . S
C2571 H2585 0.931 . S
C2572 C2568 1.328 . S
C2572 C2573 1.433 . S
C2572 H2586 0.931 . S
C2573 C2569 1.323 . S
C2573 C2572 1.433 . S
C2573 H2587 0.933 . S
C2574 Dy2552 2.738 . S
C2574 O2557 1.255 . S
C2574 O2558 1.249 . S
C2574 C2568 1.516 . S
C2575 O2559 1.254 . S
C2575 O2560 1.257 . S
C2576 O2561 1.266 . S
C2576 O2562 1.236 . S
C2577 C2580 1.344 . S
C2577 C2581 1.328 . S
C2577 C2583 1.516 . S
C2578 C2579 1.304 . S
C2578 C2582 1.323 . S
C2579 C2578 1.304 . S
C2579 C2580 1.371 . S
C2579 H2588 0.930 . S
C2580 C2577 1.344 . S
C2580 C2579 1.371 . S
C2580 H2589 0.931 . S
C2581 C2577 1.328 . S
C2581 C2582 1.433 . S
C2581 H2590 0.931 . S
C2582 C2578 1.323 . S
C2582 C2581 1.433 . S
C2582 H2591 0.933 . S
C2583 Dy2553 2.738 . S
C2583 O2563 1.255 . S
C2583 O2564 1.249 . S
C2583 C2577 1.516 . S
H2584 C2570 0.930 . S
H2585 C2571 0.931 . S
H2586 C2572 0.931 . S
H2587 C2573 0.933 . S
H2588 C2579 0.930 . S
H2589 C2580 0.931 . S
H2590 C2581 0.931 . S
H2591 C2582 0.933 . S
Dy2592 O2595 2.307 . S
Dy2592 O2597 2.395 . S
Dy2592 O2598 2.379 . S
Dy2592 O2600 2.339 . S
Dy2592 O2602 2.298 . S
Dy2592 O2606 2.275 . S
Dy2592 C2614 2.738 . S
Dy2593 O2596 2.298 . S
Dy2593 O2599 2.275 . S
Dy2593 O2601 2.307 . S
Dy2593 O2603 2.395 . S
Dy2593 O2604 2.379 . S
Dy2593 O2607 2.339 . S
Dy2593 C2623 2.738 . S
C2594 O2606 1.254 . S
C2594 O2607 1.257 . S
O2595 Dy2592 2.307 . S
O2595 C2605 1.266 . S
O2596 Dy2593 2.298 . S
O2596 C2605 1.236 . S
O2597 Dy2592 2.395 . S
O2597 C2614 1.255 . S
O2598 Dy2592 2.379 . S
O2598 C2614 1.249 . S
O2599 Dy2593 2.275 . S
O2599 C2615 1.254 . S
O2600 Dy2592 2.339 . S
O2600 C2615 1.257 . S
O2601 Dy2593 2.307 . S
O2601 C2616 1.266 . S
O2602 Dy2592 2.298 . S
O2602 C2616 1.236 . S
O2603 Dy2593 2.395 . S
O2603 C2623 1.255 . S
O2604 Dy2593 2.379 . S
O2604 C2623 1.249 . S
C2605 O2595 1.266 . S
C2605 O2596 1.236 . S
O2606 Dy2592 2.275 . S
O2606 C2594 1.254 . S
O2607 Dy2593 2.339 . S
O2607 C2594 1.257 . S
C2608 C2611 1.344 . S
C2608 C2612 1.328 . S
C2608 C2614 1.516 . S
C2609 C2610 1.304 . S
C2609 C2613 1.323 . S
C2610 C2609 1.304 . S
C2610 C2611 1.371 . S
C2610 H2624 0.930 . S
C2611 C2608 1.344 . S
C2611 C2610 1.371 . S
C2611 H2625 0.931 . S
C2612 C2608 1.328 . S
C2612 C2613 1.433 . S
C2612 H2626 0.931 . S
C2613 C2609 1.323 . S
C2613 C2612 1.433 . S
C2613 H2627 0.933 . S
C2614 Dy2592 2.738 . S
C2614 O2597 1.255 . S
C2614 O2598 1.249 . S
C2614 C2608 1.516 . S
C2615 O2599 1.254 . S
C2615 O2600 1.257 . S
C2616 O2601 1.266 . S
C2616 O2602 1.236 . S
C2617 C2620 1.344 . S
C2617 C2621 1.328 . S
C2617 C2623 1.516 . S
C2618 C2619 1.304 . S
C2618 C2622 1.323 . S
C2619 C2618 1.304 . S
C2619 C2620 1.371 . S
C2619 H2628 0.930 . S
C2620 C2617 1.344 . S
C2620 C2619 1.371 . S
C2620 H2629 0.931 . S
C2621 C2617 1.328 . S
C2621 C2622 1.433 . S
C2621 H2630 0.931 . S
C2622 C2618 1.323 . S
C2622 C2621 1.433 . S
C2622 H2631 0.933 . S
C2623 Dy2593 2.738 . S
C2623 O2603 1.255 . S
C2623 O2604 1.249 . S
C2623 C2617 1.516 . S
H2624 C2610 0.930 . S
H2625 C2611 0.931 . S
H2626 C2612 0.931 . S
H2627 C2613 0.933 . S
H2628 C2619 0.930 . S
H2629 C2620 0.931 . S
H2630 C2621 0.931 . S
H2631 C2622 0.933 . S
Dy2632 O2635 2.307 . S
Dy2632 O2637 2.395 . S
Dy2632 O2638 2.379 . S
Dy2632 O2640 2.339 . S
Dy2632 O2642 2.298 . S
Dy2632 O2646 2.275 . S
Dy2632 C2654 2.738 . S
Dy2633 O2636 2.298 . S
Dy2633 O2639 2.275 . S
Dy2633 O2641 2.307 . S
Dy2633 O2643 2.395 . S
Dy2633 O2644 2.379 . S
Dy2633 O2647 2.339 . S
Dy2633 C2663 2.738 . S
C2634 O2646 1.254 . S
C2634 O2647 1.257 . S
O2635 Dy2632 2.307 . S
O2635 C2645 1.266 . S
O2636 Dy2633 2.298 . S
O2636 C2645 1.236 . S
O2637 Dy2632 2.395 . S
O2637 C2654 1.255 . S
O2638 Dy2632 2.379 . S
O2638 C2654 1.249 . S
O2639 Dy2633 2.275 . S
O2639 C2655 1.254 . S
O2640 Dy2632 2.339 . S
O2640 C2655 1.257 . S
O2641 Dy2633 2.307 . S
O2641 C2656 1.266 . S
O2642 Dy2632 2.298 . S
O2642 C2656 1.236 . S
O2643 Dy2633 2.395 . S
O2643 C2663 1.255 . S
O2644 Dy2633 2.379 . S
O2644 C2663 1.249 . S
C2645 O2635 1.266 . S
C2645 O2636 1.236 . S
O2646 Dy2632 2.275 . S
O2646 C2634 1.254 . S
O2647 Dy2633 2.339 . S
O2647 C2634 1.257 . S
C2648 C2651 1.344 . S
C2648 C2652 1.328 . S
C2648 C2654 1.516 . S
C2649 C2650 1.304 . S
C2649 C2653 1.323 . S
C2650 C2649 1.304 . S
C2650 C2651 1.371 . S
C2650 H2664 0.930 . S
C2651 C2648 1.344 . S
C2651 C2650 1.371 . S
C2651 H2665 0.931 . S
C2652 C2648 1.328 . S
C2652 C2653 1.433 . S
C2652 H2666 0.931 . S
C2653 C2649 1.323 . S
C2653 C2652 1.433 . S
C2653 H2667 0.933 . S
C2654 Dy2632 2.738 . S
C2654 O2637 1.255 . S
C2654 O2638 1.249 . S
C2654 C2648 1.516 . S
C2655 O2639 1.254 . S
C2655 O2640 1.257 . S
C2656 O2641 1.266 . S
C2656 O2642 1.236 . S
C2657 C2660 1.344 . S
C2657 C2661 1.328 . S
C2657 C2663 1.516 . S
C2658 C2659 1.304 . S
C2658 C2662 1.323 . S
C2659 C2658 1.304 . S
C2659 C2660 1.371 . S
C2659 H2668 0.930 . S
C2660 C2657 1.344 . S
C2660 C2659 1.371 . S
C2660 H2669 0.931 . S
C2661 C2657 1.328 . S
C2661 C2662 1.433 . S
C2661 H2670 0.931 . S
C2662 C2658 1.323 . S
C2662 C2661 1.433 . S
C2662 H2671 0.933 . S
C2663 Dy2633 2.738 . S
C2663 O2643 1.255 . S
C2663 O2644 1.249 . S
C2663 C2657 1.516 . S
H2664 C2650 0.930 . S
H2665 C2651 0.931 . S
H2666 C2652 0.931 . S
H2667 C2653 0.933 . S
H2668 C2659 0.930 . S
H2669 C2660 0.931 . S
H2670 C2661 0.931 . S
H2671 C2662 0.933 . S
Dy2672 O2675 2.307 . S
Dy2672 O2677 2.395 . S
Dy2672 O2678 2.379 . S
Dy2672 O2680 2.339 . S
Dy2672 O2682 2.298 . S
Dy2672 O2686 2.275 . S
Dy2672 C2694 2.738 . S
Dy2673 O2676 2.298 . S
Dy2673 O2679 2.275 . S
Dy2673 O2681 2.307 . S
Dy2673 O2683 2.395 . S
Dy2673 O2684 2.379 . S
Dy2673 O2687 2.339 . S
Dy2673 C2703 2.738 . S
C2674 O2686 1.254 . S
C2674 O2687 1.257 . S
O2675 Dy2672 2.307 . S
O2675 C2685 1.266 . S
O2676 Dy2673 2.298 . S
O2676 C2685 1.236 . S
O2677 Dy2672 2.395 . S
O2677 C2694 1.255 . S
O2678 Dy2672 2.379 . S
O2678 C2694 1.249 . S
O2679 Dy2673 2.275 . S
O2679 C2695 1.254 . S
O2680 Dy2672 2.339 . S
O2680 C2695 1.257 . S
O2681 Dy2673 2.307 . S
O2681 C2696 1.266 . S
O2682 Dy2672 2.298 . S
O2682 C2696 1.236 . S
O2683 Dy2673 2.395 . S
O2683 C2703 1.255 . S
O2684 Dy2673 2.379 . S
O2684 C2703 1.249 . S
C2685 O2675 1.266 . S
C2685 O2676 1.236 . S
O2686 Dy2672 2.275 . S
O2686 C2674 1.254 . S
O2687 Dy2673 2.339 . S
O2687 C2674 1.257 . S
C2688 C2691 1.344 . S
C2688 C2692 1.328 . S
C2688 C2694 1.516 . S
C2689 C2690 1.304 . S
C2689 C2693 1.323 . S
C2690 C2689 1.304 . S
C2690 C2691 1.371 . S
C2690 H2704 0.930 . S
C2691 C2688 1.344 . S
C2691 C2690 1.371 . S
C2691 H2705 0.931 . S
C2692 C2688 1.328 . S
C2692 C2693 1.433 . S
C2692 H2706 0.931 . S
C2693 C2689 1.323 . S
C2693 C2692 1.433 . S
C2693 H2707 0.933 . S
C2694 Dy2672 2.738 . S
C2694 O2677 1.255 . S
C2694 O2678 1.249 . S
C2694 C2688 1.516 . S
C2695 O2679 1.254 . S
C2695 O2680 1.257 . S
C2696 O2681 1.266 . S
C2696 O2682 1.236 . S
C2697 C2700 1.344 . S
C2697 C2701 1.328 . S
C2697 C2703 1.516 . S
C2698 C2699 1.304 . S
C2698 C2702 1.323 . S
C2699 C2698 1.304 . S
C2699 C2700 1.371 . S
C2699 H2708 0.930 . S
C2700 C2697 1.344 . S
C2700 C2699 1.371 . S
C2700 H2709 0.931 . S
C2701 C2697 1.328 . S
C2701 C2702 1.433 . S
C2701 H2710 0.931 . S
C2702 C2698 1.323 . S
C2702 C2701 1.433 . S
C2702 H2711 0.933 . S
C2703 Dy2673 2.738 . S
C2703 O2683 1.255 . S
C2703 O2684 1.249 . S
C2703 C2697 1.516 . S
H2704 C2690 0.930 . S
H2705 C2691 0.931 . S
H2706 C2692 0.931 . S
H2707 C2693 0.933 . S
H2708 C2699 0.930 . S
H2709 C2700 0.931 . S
H2710 C2701 0.931 . S
H2711 C2702 0.933 . S
Dy2712 O2715 2.294 1_655 S
Dy2712 O2717 2.416 . S
Dy2712 O2718 2.398 . S
Dy2712 O2720 2.326 1_655 S
Dy2712 O2722 2.290 1_655 S
Dy2712 O2726 2.265 1_655 S
Dy2712 C2734 2.761 . S
Dy2713 O2716 2.298 . S
Dy2713 O2719 2.275 . S
Dy2713 O2721 2.307 . S
Dy2713 O2723 2.395 . S
Dy2713 O2724 2.379 1_554 S
Dy2713 O2727 2.339 1_554 S
Dy2713 C2743 2.738 . S
C2714 O2726 1.254 1_556 S
C2714 O2727 1.257 . S
O2715 Dy2712 2.294 1_455 S
O2715 C2725 1.266 . S
O2716 Dy2713 2.298 . S
O2716 C2725 1.236 . S
O2717 Dy2712 2.416 . S
O2717 C2734 1.255 . S
O2718 Dy2712 2.398 . S
O2718 C2734 1.249 . S
O2719 Dy2713 2.275 . S
O2719 C2735 1.254 . S
O2720 Dy2712 2.326 1_455 S
O2720 C2735 1.257 . S
O2721 Dy2713 2.307 . S
O2721 C2736 1.266 . S
O2722 Dy2712 2.290 1_455 S
O2722 C2736 1.236 . S
O2723 Dy2713 2.395 . S
O2723 C2743 1.255 . S
O2724 Dy2713 2.379 1_556 S
O2724 C2743 1.249 1_556 S
C2725 O2715 1.266 . S
C2725 O2716 1.236 . S
O2726 Dy2712 2.265 1_455 S
O2726 C2714 1.254 1_554 S
O2727 Dy2713 2.339 1_556 S
O2727 C2714 1.257 . S
C2728 C2731 1.344 . S
C2728 C2732 1.328 . S
C2728 C2734 1.516 . S
C2729 C2730 1.304 . S
C2729 C2733 1.323 . S
C2730 C2729 1.304 . S
C2730 C2731 1.371 . S
C2730 H2744 0.930 . S
C2731 C2728 1.344 . S
C2731 C2730 1.371 . S
C2731 H2745 0.931 . S
C2732 C2728 1.328 . S
C2732 C2733 1.433 . S
C2732 H2746 0.931 . S
C2733 C2729 1.323 . S
C2733 C2732 1.433 . S
C2733 H2747 0.933 . S
C2734 Dy2712 2.761 . S
C2734 O2717 1.255 . S
C2734 O2718 1.249 . S
C2734 C2728 1.516 . S
C2735 O2719 1.254 . S
C2735 O2720 1.257 . S
C2736 O2721 1.266 . S
C2736 O2722 1.236 . S
C2737 C2740 1.344 . S
C2737 C2741 1.328 1_554 S
C2737 C2743 1.516 . S
C2738 C2739 1.301 . S
C2738 C2742 1.326 1_554 S
C2739 C2738 1.301 . S
C2739 C2740 1.371 . S
C2739 H2748 0.930 . S
C2740 C2737 1.344 . S
C2740 C2739 1.371 . S
C2740 H2749 0.931 . S
C2741 C2737 1.328 1_556 S
C2741 C2742 1.433 . S
C2741 H2750 0.931 . S
C2742 C2738 1.326 1_556 S
C2742 C2741 1.433 . S
C2742 H2751 0.933 . S
C2743 Dy2713 2.738 . S
C2743 O2723 1.255 . S
C2743 O2724 1.249 1_554 S
C2743 C2737 1.516 . S
H2744 C2730 0.930 . S
H2745 C2731 0.931 . S
H2746 C2732 0.931 . S
H2747 C2733 0.933 . S
H2748 C2739 0.930 . S
H2749 C2740 0.931 . S
H2750 C2741 0.931 . S
H2751 C2742 0.933 . S
H2752 C2760 0.950 . S
H2753 C2765 0.950 . S
H2754 C2762 0.950 . S
H2755 C2764 0.950 . S
H2756 C2766 0.950 . S
H2757 C2768 0.950 . S
H2758 C2770 0.950 1_656 S
H2759 C2771 0.938 1_656 S
C2760 H2752 0.950 . S
C2760 C2761 1.386 1_556 S
C2760 C2762 1.391 . S
C2761 C2760 1.386 1_554 S
C2761 C2765 1.393 1_655 S
C2762 H2754 0.950 . S
C2762 C2760 1.391 . S
C2762 C2763 1.400 1_656 S
C2763 C2762 1.400 1_454 S
C2763 C2764 1.398 . S
C2763 C2769 1.491 . S
C2764 H2755 0.950 . S
C2764 C2763 1.398 . S
C2764 C2765 1.391 . S
C2765 H2753 0.950 . S
C2765 C2761 1.393 1_455 S
C2765 C2764 1.391 . S
C2766 H2756 0.950 . S
C2766 C2767 1.386 . S
C2766 C2768 1.391 . S
C2767 C2766 1.386 . S
C2767 C2771 1.393 . S
C2768 H2757 0.950 . S
C2768 C2766 1.391 . S
C2768 C2769 1.400 . S
C2769 C2763 1.491 . S
C2769 C2768 1.400 . S
C2769 C2770 1.398 . S
C2770 H2758 0.950 1_454 S
C2770 C2769 1.398 . S
C2770 C2771 1.391 . S
C2771 H2759 0.938 1_454 S
C2771 C2767 1.393 . S
C2771 C2770 1.391 . S
H2772 C2780 0.950 . S
H2773 C2785 0.950 . S
H2774 C2782 0.950 . S
H2775 C2784 0.950 . S
H2776 C2786 0.950 . S
H2777 C2788 0.950 . S
H2778 C2790 0.950 . S
H2779 C2791 0.950 . S
C2780 H2772 0.950 . S
C2780 C2781 1.386 . S
C2780 C2782 1.391 . S
C2781 C2780 1.386 . S
C2781 C2785 1.393 . S
C2782 H2774 0.950 . S
C2782 C2780 1.391 . S
C2782 C2783 1.400 . S
C2783 C2782 1.400 . S
C2783 C2784 1.398 . S
C2783 C2789 1.491 . S
C2784 H2775 0.950 . S
C2784 C2783 1.398 . S
C2784 C2785 1.391 . S
C2785 H2773 0.950 . S
C2785 C2781 1.393 . S
C2785 C2784 1.391 . S
C2786 H2776 0.950 . S
C2786 C2787 1.386 . S
C2786 C2788 1.391 . S
C2787 C2786 1.386 . S
C2787 C2791 1.393 . S
C2788 H2777 0.950 . S
C2788 C2786 1.391 . S
C2788 C2789 1.400 . S
C2789 C2783 1.491 . S
C2789 C2788 1.400 . S
C2789 C2790 1.398 . S
C2790 H2778 0.950 . S
C2790 C2789 1.398 . S
C2790 C2791 1.391 . S
C2791 H2779 0.950 . S
C2791 C2787 1.393 . S
C2791 C2790 1.391 . S
H2792 C2800 0.950 . S
H2793 C2805 0.950 . S
H2794 C2802 0.950 . S
H2795 C2804 0.950 . S
H2796 C2806 0.950 . S
H2797 C2808 0.950 . S
H2798 C2810 0.950 . S
H2799 C2811 0.950 . S
C2800 H2792 0.950 . S
C2800 C2801 1.386 . S
C2800 C2802 1.391 . S
C2801 C2800 1.386 . S
C2801 C2805 1.393 . S
C2802 H2794 0.950 . S
C2802 C2800 1.391 . S
C2802 C2803 1.400 . S
C2803 C2802 1.400 . S
C2803 C2804 1.398 . S
C2803 C2809 1.491 . S
C2804 H2795 0.950 . S
C2804 C2803 1.398 . S
C2804 C2805 1.391 . S
C2805 H2793 0.950 . S
C2805 C2801 1.393 . S
C2805 C2804 1.391 . S
C2806 H2796 0.950 . S
C2806 C2807 1.386 . S
C2806 C2808 1.391 . S
C2807 C2806 1.386 . S
C2807 C2811 1.393 . S
C2808 H2797 0.950 . S
C2808 C2806 1.391 . S
C2808 C2809 1.400 . S
C2809 C2803 1.491 . S
C2809 C2808 1.400 . S
C2809 C2810 1.398 . S
C2810 H2798 0.950 . S
C2810 C2809 1.398 . S
C2810 C2811 1.391 . S
C2811 H2799 0.950 . S
C2811 C2807 1.393 . S
C2811 C2810 1.391 . S
H2812 C2820 0.950 . S
H2813 C2825 0.950 . S
H2814 C2822 0.950 . S
H2815 C2824 0.950 . S
H2816 C2826 0.950 . S
H2817 C2828 0.950 . S
H2818 C2830 0.950 . S
H2819 C2831 0.950 . S
C2820 H2812 0.950 . S
C2820 C2821 1.386 . S
C2820 C2822 1.391 . S
C2821 C2820 1.386 . S
C2821 C2825 1.393 . S
C2822 H2814 0.950 . S
C2822 C2820 1.391 . S
C2822 C2823 1.400 . S
C2823 C2822 1.400 . S
C2823 C2824 1.398 . S
C2823 C2829 1.491 . S
C2824 H2815 0.950 . S
C2824 C2823 1.398 . S
C2824 C2825 1.391 . S
C2825 H2813 0.950 . S
C2825 C2821 1.393 . S
C2825 C2824 1.391 . S
C2826 H2816 0.950 . S
C2826 C2827 1.386 . S
C2826 C2828 1.391 . S
C2827 C2826 1.386 . S
C2827 C2831 1.393 . S
C2828 H2817 0.950 . S
C2828 C2826 1.391 . S
C2828 C2829 1.400 . S
C2829 C2823 1.491 . S
C2829 C2828 1.400 . S
C2829 C2830 1.398 . S
C2830 H2818 0.950 . S
C2830 C2829 1.398 . S
C2830 C2831 1.391 . S
C2831 H2819 0.950 . S
C2831 C2827 1.393 . S
C2831 C2830 1.391 . S
H2832 C2840 0.950 . S
H2833 C2845 0.950 . S
H2834 C2842 0.950 . S
H2835 C2844 0.950 . S
H2836 C2846 0.950 . S
H2837 C2848 0.950 . S
H2838 C2850 0.950 . S
H2839 C2851 0.950 . S
C2840 H2832 0.950 . S
C2840 C2841 1.386 . S
C2840 C2842 1.391 . S
C2841 C2840 1.386 . S
C2841 C2845 1.393 . S
C2842 H2834 0.950 . S
C2842 C2840 1.391 . S
C2842 C2843 1.400 . S
C2843 C2842 1.400 . S
C2843 C2844 1.398 . S
C2843 C2849 1.491 . S
C2844 H2835 0.950 . S
C2844 C2843 1.398 . S
C2844 C2845 1.391 . S
C2845 H2833 0.950 . S
C2845 C2841 1.393 . S
C2845 C2844 1.391 . S
C2846 H2836 0.950 . S
C2846 C2847 1.386 . S
C2846 C2848 1.391 . S
C2847 C2846 1.386 . S
C2847 C2851 1.393 . S
C2848 H2837 0.950 . S
C2848 C2846 1.391 . S
C2848 C2849 1.400 . S
C2849 C2843 1.491 . S
C2849 C2848 1.400 . S
C2849 C2850 1.398 . S
C2850 H2838 0.950 . S
C2850 C2849 1.398 . S
C2850 C2851 1.391 . S
C2851 H2839 0.950 . S
C2851 C2847 1.393 . S
C2851 C2850 1.391 . S
H2852 C2860 0.950 . S
H2853 C2865 0.950 . S
H2854 C2862 0.950 . S
H2855 C2864 0.950 . S
H2856 C2866 0.950 . S
H2857 C2868 0.950 . S
H2858 C2870 0.950 . S
H2859 C2871 0.950 . S
C2860 H2852 0.950 . S
C2860 C2861 1.386 . S
C2860 C2862 1.391 . S
C2861 C2860 1.386 . S
C2861 C2865 1.393 . S
C2862 H2854 0.950 . S
C2862 C2860 1.391 . S
C2862 C2863 1.400 . S
C2863 C2862 1.400 . S
C2863 C2864 1.398 . S
C2863 C2869 1.491 . S
C2864 H2855 0.950 . S
C2864 C2863 1.398 . S
C2864 C2865 1.391 . S
C2865 H2853 0.950 . S
C2865 C2861 1.393 . S
C2865 C2864 1.391 . S
C2866 H2856 0.950 . S
C2866 C2867 1.386 . S
C2866 C2868 1.391 . S
C2867 C2866 1.386 . S
C2867 C2871 1.393 . S
C2868 H2857 0.950 . S
C2868 C2866 1.391 . S
C2868 C2869 1.400 . S
C2869 C2863 1.491 . S
C2869 C2868 1.400 . S
C2869 C2870 1.398 . S
C2870 H2858 0.950 . S
C2870 C2869 1.398 . S
C2870 C2871 1.391 . S
C2871 H2859 0.950 . S
C2871 C2867 1.393 . S
C2871 C2870 1.391 . S
H2872 C2880 0.950 . S
H2873 C2885 0.950 . S
H2874 C2882 0.950 . S
H2875 C2884 0.950 . S
H2876 C2886 0.950 . S
H2877 C2888 0.950 . S
H2878 C2890 0.950 . S
H2879 C2891 0.950 . S
C2880 H2872 0.950 . S
C2880 C2881 1.386 . S
C2880 C2882 1.391 . S
C2881 C2880 1.386 . S
C2881 C2885 1.393 . S
C2882 H2874 0.950 . S
C2882 C2880 1.391 . S
C2882 C2883 1.400 . S
C2883 C2882 1.400 . S
C2883 C2884 1.398 . S
C2883 C2889 1.491 . S
C2884 H2875 0.950 . S
C2884 C2883 1.398 . S
C2884 C2885 1.391 . S
C2885 H2873 0.950 . S
C2885 C2881 1.393 . S
C2885 C2884 1.391 . S
C2886 H2876 0.950 . S
C2886 C2887 1.386 . S
C2886 C2888 1.391 . S
C2887 C2886 1.386 . S
C2887 C2891 1.393 . S
C2888 H2877 0.950 . S
C2888 C2886 1.391 . S
C2888 C2889 1.400 . S
C2889 C2883 1.491 . S
C2889 C2888 1.400 . S
C2889 C2890 1.398 . S
C2890 H2878 0.950 . S
C2890 C2889 1.398 . S
C2890 C2891 1.391 . S
C2891 H2879 0.950 . S
C2891 C2887 1.393 . S
C2891 C2890 1.391 . S
H2892 C2900 0.950 . S
H2893 C2905 0.950 . S
H2894 C2902 0.950 . S
H2895 C2904 0.950 . S
H2896 C2906 0.950 . S
H2897 C2908 0.950 . S
H2898 C2910 0.950 . S
H2899 C2911 0.950 . S
C2900 H2892 0.950 . S
C2900 C2901 1.386 . S
C2900 C2902 1.391 . S
C2901 C2900 1.386 . S
C2901 C2905 1.393 . S
C2902 H2894 0.950 . S
C2902 C2900 1.391 . S
C2902 C2903 1.400 . S
C2903 C2902 1.400 . S
C2903 C2904 1.398 . S
C2903 C2909 1.491 . S
C2904 H2895 0.950 . S
C2904 C2903 1.398 . S
C2904 C2905 1.391 . S
C2905 H2893 0.950 . S
C2905 C2901 1.393 . S
C2905 C2904 1.391 . S
C2906 H2896 0.950 . S
C2906 C2907 1.386 . S
C2906 C2908 1.391 . S
C2907 C2906 1.386 . S
C2907 C2911 1.393 . S
C2908 H2897 0.950 . S
C2908 C2906 1.391 . S
C2908 C2909 1.400 . S
C2909 C2903 1.491 . S
C2909 C2908 1.400 . S
C2909 C2910 1.398 . S
C2910 H2898 0.950 . S
C2910 C2909 1.398 . S
C2910 C2911 1.391 . S
C2911 H2899 0.950 . S
C2911 C2907 1.393 . S
C2911 C2910 1.391 . S
H2912 C2920 0.950 . S
H2913 C2925 0.950 . S
H2914 C2922 0.950 . S
H2915 C2924 0.950 . S
H2916 C2926 0.950 . S
H2917 C2928 0.950 . S
H2918 C2930 0.950 . S
H2919 C2931 0.975 . S
C2920 H2912 0.950 . S
C2920 C2921 1.386 . S
C2920 C2922 1.391 . S
C2921 C2920 1.386 . S
C2921 C2925 1.393 1_655 S
C2922 H2914 0.950 . S
C2922 C2920 1.391 . S
C2922 C2923 1.344 1_655 S
C2923 C2922 1.344 1_455 S
C2923 C2924 1.437 . S
C2923 C2929 1.510 . S
C2924 H2915 0.950 . S
C2924 C2923 1.437 . S
C2924 C2925 1.391 . S
C2925 H2913 0.950 . S
C2925 C2921 1.393 1_455 S
C2925 C2924 1.391 . S
C2926 H2916 0.950 . S
C2926 C2927 1.386 . S
C2926 C2928 1.391 . S
C2927 C2926 1.386 . S
C2927 C2931 1.356 1_455 S
C2928 H2917 0.950 . S
C2928 C2926 1.391 . S
C2928 C2929 1.400 . S
C2929 C2923 1.510 . S
C2929 C2928 1.400 . S
C2929 C2930 1.398 1_455 S
C2930 H2918 0.950 . S
C2930 C2929 1.398 1_655 S
C2930 C2931 1.404 . S
C2931 H2919 0.975 . S
C2931 C2927 1.356 1_655 S
C2931 C2930 1.404 . S
H2932 C2940 0.950 . S
H2933 C2945 0.950 . S
H2934 C2942 0.950 . S
H2935 C2944 0.950 . S
H2936 C2946 0.950 . S
H2937 C2948 0.950 . S
H2938 C2950 0.950 . S
H2939 C2951 0.950 . S
C2940 H2932 0.950 . S
C2940 C2941 1.386 . S
C2940 C2942 1.391 . S
C2941 C2940 1.386 . S
C2941 C2945 1.393 . S
C2942 H2934 0.950 . S
C2942 C2940 1.391 . S
C2942 C2943 1.400 . S
C2943 C2942 1.400 . S
C2943 C2944 1.398 . S
C2943 C2949 1.491 . S
C2944 H2935 0.950 . S
C2944 C2943 1.398 . S
C2944 C2945 1.391 . S
C2945 H2933 0.950 . S
C2945 C2941 1.393 . S
C2945 C2944 1.391 . S
C2946 H2936 0.950 . S
C2946 C2947 1.386 . S
C2946 C2948 1.391 . S
C2947 C2946 1.386 . S
C2947 C2951 1.393 . S
C2948 H2937 0.950 . S
C2948 C2946 1.391 . S
C2948 C2949 1.400 . S
C2949 C2943 1.491 . S
C2949 C2948 1.400 . S
C2949 C2950 1.398 . S
C2950 H2938 0.950 . S
C2950 C2949 1.398 . S
C2950 C2951 1.391 . S
C2951 H2939 0.950 . S
C2951 C2947 1.393 . S
C2951 C2950 1.391 . S
H2952 C2960 0.950 . S
H2953 C2965 0.950 . S
H2954 C2962 0.950 . S
H2955 C2964 0.950 . S
H2956 C2966 0.950 . S
H2957 C2968 0.950 . S
H2958 C2970 0.950 . S
H2959 C2971 0.950 . S
C2960 H2952 0.950 . S
C2960 C2961 1.386 . S
C2960 C2962 1.391 . S
C2961 C2960 1.386 . S
C2961 C2965 1.393 . S
C2962 H2954 0.950 . S
C2962 C2960 1.391 . S
C2962 C2963 1.400 . S
C2963 C2962 1.400 . S
C2963 C2964 1.398 . S
C2963 C2969 1.491 . S
C2964 H2955 0.950 . S
C2964 C2963 1.398 . S
C2964 C2965 1.391 . S
C2965 H2953 0.950 . S
C2965 C2961 1.393 . S
C2965 C2964 1.391 . S
C2966 H2956 0.950 . S
C2966 C2967 1.386 . S
C2966 C2968 1.391 . S
C2967 C2966 1.386 . S
C2967 C2971 1.393 . S
C2968 H2957 0.950 . S
C2968 C2966 1.391 . S
C2968 C2969 1.400 . S
C2969 C2963 1.491 . S
C2969 C2968 1.400 . S
C2969 C2970 1.398 . S
C2970 H2958 0.950 . S
C2970 C2969 1.398 . S
C2970 C2971 1.391 . S
C2971 H2959 0.950 . S
C2971 C2967 1.393 . S
C2971 C2970 1.391 . S
H2972 C2980 0.950 . S
H2973 C2985 0.950 . S
H2974 C2982 0.950 . S
H2975 C2984 0.950 . S
H2976 C2986 0.950 . S
H2977 C2988 0.950 . S
H2978 C2990 0.950 . S
H2979 C2991 0.950 . S
C2980 H2972 0.950 . S
C2980 C2981 1.386 . S
C2980 C2982 1.391 . S
C2981 C2980 1.386 . S
C2981 C2985 1.393 . S
C2982 H2974 0.950 . S
C2982 C2980 1.391 . S
C2982 C2983 1.400 . S
C2983 C2982 1.400 . S
C2983 C2984 1.398 . S
C2983 C2989 1.491 . S
C2984 H2975 0.950 . S
C2984 C2983 1.398 . S
C2984 C2985 1.391 . S
C2985 H2973 0.950 . S
C2985 C2981 1.393 . S
C2985 C2984 1.391 . S
C2986 H2976 0.950 . S
C2986 C2987 1.386 . S
C2986 C2988 1.391 . S
C2987 C2986 1.386 . S
C2987 C2991 1.393 . S
C2988 H2977 0.950 . S
C2988 C2986 1.391 . S
C2988 C2989 1.400 . S
C2989 C2983 1.491 . S
C2989 C2988 1.400 . S
C2989 C2990 1.398 . S
C2990 H2978 0.950 . S
C2990 C2989 1.398 . S
C2990 C2991 1.391 . S
C2991 H2979 0.950 . S
C2991 C2987 1.393 . S
C2991 C2990 1.391 . S
H2992 C3000 0.950 . S
H2993 C3005 0.950 . S
H2994 C3002 0.950 . S
H2995 C3004 0.950 . S
H2996 C3006 0.950 . S
H2997 C3008 0.950 . S
H2998 C3010 0.950 . S
H2999 C3011 0.950 . S
C3000 H2992 0.950 . S
C3000 C3001 1.386 1_455 S
C3000 C3002 1.391 . S
C3001 C3000 1.386 1_655 S
C3001 C3005 1.393 . S
C3002 H2994 0.950 . S
C3002 C3000 1.391 . S
C3002 C3003 1.400 . S
C3003 C3002 1.400 . S
C3003 C3004 1.398 1_455 S
C3003 C3009 1.491 . S
C3004 H2995 0.950 . S
C3004 C3003 1.398 1_655 S
C3004 C3005 1.391 . S
C3005 H2993 0.950 . S
C3005 C3001 1.393 . S
C3005 C3004 1.391 . S
C3006 H2996 0.950 . S
C3006 C3007 1.386 1_655 S
C3006 C3008 1.391 . S
C3007 C3006 1.386 1_455 S
C3007 C3011 1.393 . S
C3008 H2997 0.950 . S
C3008 C3006 1.391 . S
C3008 C3009 1.400 1_655 S
C3009 C3003 1.491 . S
C3009 C3008 1.400 1_455 S
C3009 C3010 1.398 . S
C3010 H2998 0.950 . S
C3010 C3009 1.398 . S
C3010 C3011 1.391 . S
C3011 H2999 0.950 . S
C3011 C3007 1.393 . S
C3011 C3010 1.391 . S
H3012 C3020 0.950 . S
H3013 C3025 0.950 . S
H3014 C3022 0.950 . S
H3015 C3024 0.950 . S
H3016 C3026 0.950 . S
H3017 C3028 0.950 . S
H3018 C3030 0.950 . S
H3019 C3031 0.950 . S
C3020 H3012 0.950 . S
C3020 C3021 1.386 . S
C3020 C3022 1.391 . S
C3021 C3020 1.386 . S
C3021 C3025 1.393 . S
C3022 H3014 0.950 . S
C3022 C3020 1.391 . S
C3022 C3023 1.400 . S
C3023 C3022 1.400 . S
C3023 C3024 1.398 . S
C3023 C3029 1.491 . S
C3024 H3015 0.950 . S
C3024 C3023 1.398 . S
C3024 C3025 1.391 . S
C3025 H3013 0.950 . S
C3025 C3021 1.393 . S
C3025 C3024 1.391 . S
C3026 H3016 0.950 . S
C3026 C3027 1.386 . S
C3026 C3028 1.391 . S
C3027 C3026 1.386 . S
C3027 C3031 1.393 . S
C3028 H3017 0.950 . S
C3028 C3026 1.391 . S
C3028 C3029 1.400 . S
C3029 C3023 1.491 . S
C3029 C3028 1.400 . S
C3029 C3030 1.398 . S
C3030 H3018 0.950 . S
C3030 C3029 1.398 . S
C3030 C3031 1.391 . S
C3031 H3019 0.950 . S
C3031 C3027 1.393 . S
C3031 C3030 1.391 . S
H3032 C3040 0.950 . S
H3033 C3045 0.950 . S
H3034 C3042 0.950 . S
H3035 C3044 0.950 . S
H3036 C3046 0.950 . S
H3037 C3048 0.950 . S
H3038 C3050 0.950 . S
H3039 C3051 0.950 . S
C3040 H3032 0.950 . S
C3040 C3041 1.386 . S
C3040 C3042 1.391 . S
C3041 C3040 1.386 . S
C3041 C3045 1.393 . S
C3042 H3034 0.950 . S
C3042 C3040 1.391 . S
C3042 C3043 1.400 . S
C3043 C3042 1.400 . S
C3043 C3044 1.398 . S
C3043 C3049 1.491 . S
C3044 H3035 0.950 . S
C3044 C3043 1.398 . S
C3044 C3045 1.391 . S
C3045 H3033 0.950 . S
C3045 C3041 1.393 . S
C3045 C3044 1.391 . S
C3046 H3036 0.950 . S
C3046 C3047 1.386 . S
C3046 C3048 1.391 . S
C3047 C3046 1.386 . S
C3047 C3051 1.393 . S
C3048 H3037 0.950 . S
C3048 C3046 1.391 . S
C3048 C3049 1.400 . S
C3049 C3043 1.491 . S
C3049 C3048 1.400 . S
C3049 C3050 1.398 . S
C3050 H3038 0.950 . S
C3050 C3049 1.398 . S
C3050 C3051 1.391 . S
C3051 H3039 0.950 . S
C3051 C3047 1.393 . S
C3051 C3050 1.391 . S
H3052 C3060 0.950 . S
H3053 C3065 0.950 . S
H3054 C3062 0.950 . S
H3055 C3064 0.950 . S
H3056 C3066 0.950 . S
H3057 C3068 0.950 . S
H3058 C3070 0.950 . S
H3059 C3071 0.950 . S
C3060 H3052 0.950 . S
C3060 C3061 1.386 . S
C3060 C3062 1.391 . S
C3061 C3060 1.386 . S
C3061 C3065 1.393 . S
C3062 H3054 0.950 . S
C3062 C3060 1.391 . S
C3062 C3063 1.400 . S
C3063 C3062 1.400 . S
C3063 C3064 1.398 . S
C3063 C3069 1.491 . S
C3064 H3055 0.950 . S
C3064 C3063 1.398 . S
C3064 C3065 1.391 . S
C3065 H3053 0.950 . S
C3065 C3061 1.393 . S
C3065 C3064 1.391 . S
C3066 H3056 0.950 . S
C3066 C3067 1.386 . S
C3066 C3068 1.391 . S
C3067 C3066 1.386 . S
C3067 C3071 1.393 . S
C3068 H3057 0.950 . S
C3068 C3066 1.391 . S
C3068 C3069 1.400 . S
C3069 C3063 1.491 . S
C3069 C3068 1.400 . S
C3069 C3070 1.398 . S
C3070 H3058 0.950 . S
C3070 C3069 1.398 . S
C3070 C3071 1.391 . S
C3071 H3059 0.950 . S
C3071 C3067 1.393 . S
C3071 C3070 1.391 . S
H3072 C3080 0.950 . S
H3073 C3085 0.950 . S
H3074 C3082 0.958 . S
H3075 C3084 0.950 . S
H3076 C3086 0.950 . S
H3077 C3088 0.950 . S
H3078 C3090 0.964 . S
H3079 C3091 0.950 . S
C3080 H3072 0.950 . S
C3080 C3081 1.386 1_556 S
C3080 C3082 1.398 . S
C3081 C3080 1.386 1_554 S
C3081 C3085 1.393 . S
C3082 H3074 0.958 . S
C3082 C3080 1.398 . S
C3082 C3083 1.386 1_556 S
C3083 C3082 1.386 1_554 S
C3083 C3084 1.398 . S
C3083 C3089 1.491 . S
C3084 H3075 0.950 . S
C3084 C3083 1.398 . S
C3084 C3085 1.391 . S
C3085 H3073 0.950 . S
C3085 C3081 1.393 . S
C3085 C3084 1.391 . S
C3086 H3076 0.950 . S
C3086 C3087 1.396 . S
C3086 C3088 1.391 . S
C3087 C3086 1.396 . S
C3087 C3091 1.390 1_565 S
C3088 H3077 0.950 . S
C3088 C3086 1.391 . S
C3088 C3089 1.400 . S
C3089 C3083 1.491 . S
C3089 C3088 1.400 . S
C3089 C3090 1.398 . S
C3090 H3078 0.964 . S
C3090 C3089 1.398 . S
C3090 C3091 1.391 1_565 S
C3091 H3079 0.950 . S
C3091 C3087 1.390 1_545 S
C3091 C3090 1.391 1_545 S
H3092 C3100 0.950 . S
H3093 C3105 0.950 . S
H3094 C3102 0.950 . S
H3095 C3104 0.950 . S
H3096 C3106 0.950 . S
H3097 C3108 0.950 . S
H3098 C3110 0.950 . S
H3099 C3111 0.950 . S
C3100 H3092 0.950 . S
C3100 C3101 1.386 . S
C3100 C3102 1.391 . S
C3101 C3100 1.386 . S
C3101 C3105 1.393 . S
C3102 H3094 0.950 . S
C3102 C3100 1.391 . S
C3102 C3103 1.400 . S
C3103 C3102 1.400 . S
C3103 C3104 1.398 . S
C3103 C3109 1.491 . S
C3104 H3095 0.950 . S
C3104 C3103 1.398 . S
C3104 C3105 1.391 . S
C3105 H3093 0.950 . S
C3105 C3101 1.393 . S
C3105 C3104 1.391 . S
C3106 H3096 0.950 . S
C3106 C3107 1.386 . S
C3106 C3108 1.391 . S
C3107 C3106 1.386 . S
C3107 C3111 1.393 . S
C3108 H3097 0.950 . S
C3108 C3106 1.391 . S
C3108 C3109 1.400 . S
C3109 C3103 1.491 . S
C3109 C3108 1.400 . S
C3109 C3110 1.398 . S
C3110 H3098 0.950 . S
C3110 C3109 1.398 . S
C3110 C3111 1.391 . S
C3111 H3099 0.950 . S
C3111 C3107 1.393 . S
C3111 C3110 1.391 . S
H3112 C3120 0.950 . S
H3113 C3125 0.950 . S
H3114 C3122 0.950 . S
H3115 C3124 0.950 . S
H3116 C3126 0.950 . S
H3117 C3128 0.950 . S
H3118 C3130 0.950 . S
H3119 C3131 0.950 . S
C3120 H3112 0.950 . S
C3120 C3121 1.386 . S
C3120 C3122 1.391 . S
C3121 C3120 1.386 . S
C3121 C3125 1.393 . S
C3122 H3114 0.950 . S
C3122 C3120 1.391 . S
C3122 C3123 1.400 . S
C3123 C3122 1.400 . S
C3123 C3124 1.398 . S
C3123 C3129 1.491 . S
C3124 H3115 0.950 . S
C3124 C3123 1.398 . S
C3124 C3125 1.391 . S
C3125 H3113 0.950 . S
C3125 C3121 1.393 . S
C3125 C3124 1.391 . S
C3126 H3116 0.950 . S
C3126 C3127 1.386 . S
C3126 C3128 1.391 . S
C3127 C3126 1.386 . S
C3127 C3131 1.393 . S
C3128 H3117 0.950 . S
C3128 C3126 1.391 . S
C3128 C3129 1.400 . S
C3129 C3123 1.491 . S
C3129 C3128 1.400 . S
C3129 C3130 1.398 . S
C3130 H3118 0.950 . S
C3130 C3129 1.398 . S
C3130 C3131 1.391 . S
C3131 H3119 0.950 . S
C3131 C3127 1.393 . S
C3131 C3130 1.391 . S
H3132 C3140 0.950 . S
H3133 C3145 0.950 . S
H3134 C3142 0.950 . S
H3135 C3144 0.950 . S
H3136 C3146 0.950 . S
H3137 C3148 0.950 . S
H3138 C3150 0.950 . S
H3139 C3151 0.950 . S
C3140 H3132 0.950 . S
C3140 C3141 1.386 . S
C3140 C3142 1.391 . S
C3141 C3140 1.386 . S
C3141 C3145 1.393 . S
C3142 H3134 0.950 . S
C3142 C3140 1.391 . S
C3142 C3143 1.400 . S
C3143 C3142 1.400 . S
C3143 C3144 1.398 . S
C3143 C3149 1.491 . S
C3144 H3135 0.950 . S
C3144 C3143 1.398 . S
C3144 C3145 1.391 . S
C3145 H3133 0.950 . S
C3145 C3141 1.393 . S
C3145 C3144 1.391 . S
C3146 H3136 0.950 . S
C3146 C3147 1.386 . S
C3146 C3148 1.391 . S
C3147 C3146 1.386 . S
C3147 C3151 1.393 . S
C3148 H3137 0.950 . S
C3148 C3146 1.391 . S
C3148 C3149 1.400 . S
C3149 C3143 1.491 . S
C3149 C3148 1.400 . S
C3149 C3150 1.398 . S
C3150 H3138 0.950 . S
C3150 C3149 1.398 . S
C3150 C3151 1.391 . S
C3151 H3139 0.950 . S
C3151 C3147 1.393 . S
C3151 C3150 1.391 . S
H3152 C3160 0.950 . S
H3153 C3165 0.950 . S
H3154 C3162 0.950 . S
H3155 C3164 0.950 . S
H3156 C3166 0.950 . S
H3157 C3168 0.950 . S
H3158 C3170 0.950 . S
H3159 C3171 0.950 . S
C3160 H3152 0.950 . S
C3160 C3161 1.386 . S
C3160 C3162 1.391 . S
C3161 C3160 1.386 . S
C3161 C3165 1.393 . S
C3162 H3154 0.950 . S
C3162 C3160 1.391 . S
C3162 C3163 1.400 . S
C3163 C3162 1.400 . S
C3163 C3164 1.398 . S
C3163 C3169 1.491 . S
C3164 H3155 0.950 . S
C3164 C3163 1.398 . S
C3164 C3165 1.391 . S
C3165 H3153 0.950 . S
C3165 C3161 1.393 . S
C3165 C3164 1.391 . S
C3166 H3156 0.950 . S
C3166 C3167 1.386 . S
C3166 C3168 1.391 . S
C3167 C3166 1.386 . S
C3167 C3171 1.393 . S
C3168 H3157 0.950 . S
C3168 C3166 1.391 . S
C3168 C3169 1.400 . S
C3169 C3163 1.491 . S
C3169 C3168 1.400 . S
C3169 C3170 1.398 . S
C3170 H3158 0.950 . S
C3170 C3169 1.398 . S
C3170 C3171 1.391 . S
C3171 H3159 0.950 . S
C3171 C3167 1.393 . S
C3171 C3170 1.391 . S
H3172 C3180 0.950 . S
H3173 C3185 0.950 . S
H3174 C3182 0.950 . S
H3175 C3184 0.950 . S
H3176 C3186 0.950 . S
H3177 C3188 0.950 . S
H3178 C3190 0.950 . S
H3179 C3191 0.950 . S
C3180 H3172 0.950 . S
C3180 C3181 1.386 . S
C3180 C3182 1.391 . S
C3181 C3180 1.386 . S
C3181 C3185 1.393 . S
C3182 H3174 0.950 . S
C3182 C3180 1.391 . S
C3182 C3183 1.400 . S
C3183 C3182 1.400 . S
C3183 C3184 1.398 . S
C3183 C3189 1.491 . S
C3184 H3175 0.950 . S
C3184 C3183 1.398 . S
C3184 C3185 1.391 . S
C3185 H3173 0.950 . S
C3185 C3181 1.393 . S
C3185 C3184 1.391 . S
C3186 H3176 0.950 . S
C3186 C3187 1.386 . S
C3186 C3188 1.391 . S
C3187 C3186 1.386 . S
C3187 C3191 1.393 . S
C3188 H3177 0.950 . S
C3188 C3186 1.391 . S
C3188 C3189 1.400 . S
C3189 C3183 1.491 . S
C3189 C3188 1.400 . S
C3189 C3190 1.398 . S
C3190 H3178 0.950 . S
C3190 C3189 1.398 . S
C3190 C3191 1.391 . S
C3191 H3179 0.950 . S
C3191 C3187 1.393 . S
C3191 C3190 1.391 . S
H3192 C3200 0.950 . S
H3193 C3205 0.950 . S
H3194 C3202 0.950 . S
H3195 C3204 0.950 . S
H3196 C3206 0.950 . S
H3197 C3208 0.950 . S
H3198 C3210 0.950 . S
H3199 C3211 0.950 . S
C3200 H3192 0.950 . S
C3200 C3201 1.386 . S
C3200 C3202 1.391 . S
C3201 C3200 1.386 . S
C3201 C3205 1.393 . S
C3202 H3194 0.950 . S
C3202 C3200 1.391 . S
C3202 C3203 1.400 . S
C3203 C3202 1.400 . S
C3203 C3204 1.398 . S
C3203 C3209 1.491 . S
C3204 H3195 0.950 . S
C3204 C3203 1.398 . S
C3204 C3205 1.391 . S
C3205 H3193 0.950 . S
C3205 C3201 1.393 . S
C3205 C3204 1.391 . S
C3206 H3196 0.950 . S
C3206 C3207 1.386 . S
C3206 C3208 1.391 . S
C3207 C3206 1.386 . S
C3207 C3211 1.393 . S
C3208 H3197 0.950 . S
C3208 C3206 1.391 . S
C3208 C3209 1.400 . S
C3209 C3203 1.491 . S
C3209 C3208 1.400 . S
C3209 C3210 1.398 . S
C3210 H3198 0.950 . S
C3210 C3209 1.398 . S
C3210 C3211 1.391 . S
C3211 H3199 0.950 . S
C3211 C3207 1.393 . S
C3211 C3210 1.391 . S
H3212 C3220 0.950 . S
H3213 C3225 0.950 . S
H3214 C3222 0.950 . S
H3215 C3224 0.950 . S
H3216 C3226 0.950 . S
H3217 C3228 0.950 . S
H3218 C3230 0.950 . S
H3219 C3231 0.950 . S
C3220 H3212 0.950 . S
C3220 C3221 1.386 . S
C3220 C3222 1.391 . S
C3221 C3220 1.386 . S
C3221 C3225 1.393 . S
C3222 H3214 0.950 . S
C3222 C3220 1.391 . S
C3222 C3223 1.400 . S
C3223 C3222 1.400 . S
C3223 C3224 1.398 . S
C3223 C3229 1.491 . S
C3224 H3215 0.950 . S
C3224 C3223 1.398 . S
C3224 C3225 1.391 . S
C3225 H3213 0.950 . S
C3225 C3221 1.393 . S
C3225 C3224 1.391 . S
C3226 H3216 0.950 . S
C3226 C3227 1.386 . S
C3226 C3228 1.391 . S
C3227 C3226 1.386 . S
C3227 C3231 1.393 . S
C3228 H3217 0.950 . S
C3228 C3226 1.391 . S
C3228 C3229 1.400 . S
C3229 C3223 1.491 . S
C3229 C3228 1.400 . S
C3229 C3230 1.398 . S
C3230 H3218 0.950 . S
C3230 C3229 1.398 . S
C3230 C3231 1.391 . S
C3231 H3219 0.950 . S
C3231 C3227 1.393 . S
C3231 C3230 1.391 . S
H3232 C3240 0.950 . S
H3233 C3245 0.950 . S
H3234 C3242 0.950 . S
H3235 C3244 0.950 . S
H3236 C3246 0.950 . S
H3237 C3248 0.950 . S
H3238 C3250 0.950 . S
H3239 C3251 0.987 . S
C3240 H3232 0.950 . S
C3240 C3241 1.386 . S
C3240 C3242 1.391 . S
C3241 C3240 1.386 . S
C3241 C3245 1.393 . S
C3242 H3234 0.950 . S
C3242 C3240 1.391 . S
C3242 C3243 1.400 . S
C3243 C3242 1.400 . S
C3243 C3244 1.398 . S
C3243 C3249 1.491 . S
C3244 H3235 0.950 . S
C3244 C3243 1.398 . S
C3244 C3245 1.391 . S
C3245 H3233 0.950 . S
C3245 C3241 1.393 . S
C3245 C3244 1.391 . S
C3246 H3236 0.950 . S
C3246 C3247 1.386 . S
C3246 C3248 1.391 . S
C3247 C3246 1.386 . S
C3247 C3251 1.393 . S
C3248 H3237 0.950 . S
C3248 C3246 1.391 . S
C3248 C3249 1.400 . S
C3249 C3243 1.491 . S
C3249 C3248 1.400 . S
C3249 C3250 1.398 . S
C3250 H3238 0.950 . S
C3250 C3249 1.398 . S
C3250 C3251 1.391 . S
C3251 H3239 0.987 . S
C3251 C3247 1.393 . S
C3251 C3250 1.391 . S
H3252 C3260 0.950 . S
H3253 C3265 0.950 . S
H3254 C3262 0.950 . S
H3255 C3264 0.950 . S
H3256 C3266 0.950 . S
H3257 C3268 0.950 . S
H3258 C3270 0.950 . S
H3259 C3271 0.950 . S
C3260 H3252 0.950 . S
C3260 C3261 1.386 . S
C3260 C3262 1.391 . S
C3261 C3260 1.386 . S
C3261 C3265 1.393 . S
C3262 H3254 0.950 . S
C3262 C3260 1.391 . S
C3262 C3263 1.400 . S
C3263 C3262 1.400 . S
C3263 C3264 1.398 . S
C3263 C3269 1.491 . S
C3264 H3255 0.950 . S
C3264 C3263 1.398 . S
C3264 C3265 1.391 . S
C3265 H3253 0.950 . S
C3265 C3261 1.393 . S
C3265 C3264 1.391 . S
C3266 H3256 0.950 . S
C3266 C3267 1.386 . S
C3266 C3268 1.391 . S
C3267 C3266 1.386 . S
C3267 C3271 1.393 . S
C3268 H3257 0.950 . S
C3268 C3266 1.391 . S
C3268 C3269 1.400 . S
C3269 C3263 1.491 . S
C3269 C3268 1.400 . S
C3269 C3270 1.398 . S
C3270 H3258 0.950 . S
C3270 C3269 1.398 . S
C3270 C3271 1.391 . S
C3271 H3259 0.950 . S
C3271 C3267 1.393 . S
C3271 C3270 1.391 . S
H3272 C3280 0.950 . S
H3273 C3285 0.950 . S
H3274 C3282 0.950 . S
H3275 C3284 0.950 . S
H3276 C3286 0.950 . S
H3277 C3288 0.950 . S
H3278 C3290 0.950 . S
H3279 C3291 0.950 . S
C3280 H3272 0.950 . S
C3280 C3281 1.386 . S
C3280 C3282 1.391 . S
C3281 C3280 1.386 . S
C3281 C3285 1.393 . S
C3282 H3274 0.950 . S
C3282 C3280 1.391 . S
C3282 C3283 1.400 . S
C3283 C3282 1.400 . S
C3283 C3284 1.398 . S
C3283 C3289 1.491 . S
C3284 H3275 0.950 . S
C3284 C3283 1.398 . S
C3284 C3285 1.391 . S
C3285 H3273 0.950 . S
C3285 C3281 1.393 . S
C3285 C3284 1.391 . S
C3286 H3276 0.950 . S
C3286 C3287 1.386 . S
C3286 C3288 1.391 . S
C3287 C3286 1.386 . S
C3287 C3291 1.393 . S
C3288 H3277 0.950 . S
C3288 C3286 1.391 . S
C3288 C3289 1.400 . S
C3289 C3283 1.491 . S
C3289 C3288 1.400 . S
C3289 C3290 1.398 . S
C3290 H3278 0.950 . S
C3290 C3289 1.398 . S
C3290 C3291 1.391 . S
C3291 H3279 0.950 . S
C3291 C3287 1.393 . S
C3291 C3290 1.391 . S
H3292 C3300 0.950 . S
H3293 C3305 0.950 . S
H3294 C3302 0.950 . S
H3295 C3304 0.950 . S
H3296 C3306 0.950 . S
H3297 C3308 0.950 . S
H3298 C3310 0.950 . S
H3299 C3311 0.950 . S
C3300 H3292 0.950 . S
C3300 C3301 1.386 . S
C3300 C3302 1.391 . S
C3301 C3300 1.386 . S
C3301 C3305 1.393 . S
C3302 H3294 0.950 . S
C3302 C3300 1.391 . S
C3302 C3303 1.400 . S
C3303 C3302 1.400 . S
C3303 C3304 1.398 . S
C3303 C3309 1.491 . S
C3304 H3295 0.950 . S
C3304 C3303 1.398 . S
C3304 C3305 1.391 . S
C3305 H3293 0.950 . S
C3305 C3301 1.393 . S
C3305 C3304 1.391 . S
C3306 H3296 0.950 . S
C3306 C3307 1.386 . S
C3306 C3308 1.391 . S
C3307 C3306 1.386 . S
C3307 C3311 1.393 . S
C3308 H3297 0.950 . S
C3308 C3306 1.391 . S
C3308 C3309 1.400 . S
C3309 C3303 1.491 . S
C3309 C3308 1.400 . S
C3309 C3310 1.398 . S
C3310 H3298 0.950 . S
C3310 C3309 1.398 . S
C3310 C3311 1.391 . S
C3311 H3299 0.950 . S
C3311 C3307 1.393 . S
C3311 C3310 1.391 . S
H3312 C3320 0.950 1_655 S
H3313 C3325 0.950 . S
H3314 C3322 0.991 . S
H3315 C3324 0.950 . S
H3316 C3326 0.950 . S
H3317 C3328 0.950 . S
H3318 C3330 0.950 . S
H3319 C3331 0.950 . S
C3320 H3312 0.950 1_455 S
C3320 C3321 1.386 . S
C3320 C3322 1.392 1_455 S
C3321 C3320 1.386 . S
C3321 C3325 1.393 . S
C3322 H3314 0.991 . S
C3322 C3320 1.392 1_655 S
C3322 C3323 1.360 1_655 S
C3323 C3322 1.360 1_455 S
C3323 C3324 1.398 . S
C3323 C3329 1.491 . S
C3324 H3315 0.950 . S
C3324 C3323 1.398 . S
C3324 C3325 1.391 . S
C3325 H3313 0.950 . S
C3325 C3321 1.393 . S
C3325 C3324 1.391 . S
C3326 H3316 0.950 . S
C3326 C3327 1.386 . S
C3326 C3328 1.391 . S
C3327 C3326 1.386 . S
C3327 C3331 1.393 1_455 S
C3328 H3317 0.950 . S
C3328 C3326 1.391 . S
C3328 C3329 1.400 . S
C3329 C3323 1.491 . S
C3329 C3328 1.400 . S
C3329 C3330 1.398 1_455 S
C3330 H3318 0.950 . S
C3330 C3329 1.398 1_655 S
C3330 C3331 1.391 . S
C3331 H3319 0.950 . S
C3331 C3327 1.393 1_655 S
C3331 C3330 1.391 . S
H3332 C3340 0.950 . S
H3333 C3345 0.950 . S
H3334 C3342 0.950 . S
H3335 C3344 0.950 . S
H3336 C3346 0.950 . S
H3337 C3348 0.950 . S
H3338 C3350 0.950 . S
H3339 C3351 0.950 . S
C3340 H3332 0.950 . S
C3340 C3341 1.386 . S
C3340 C3342 1.391 . S
C3341 C3340 1.386 . S
C3341 C3345 1.393 . S
C3342 H3334 0.950 . S
C3342 C3340 1.391 . S
C3342 C3343 1.400 . S
C3343 C3342 1.400 . S
C3343 C3344 1.398 . S
C3343 C3349 1.491 . S
C3344 H3335 0.950 . S
C3344 C3343 1.398 . S
C3344 C3345 1.391 . S
C3345 H3333 0.950 . S
C3345 C3341 1.393 . S
C3345 C3344 1.391 . S
C3346 H3336 0.950 . S
C3346 C3347 1.386 . S
C3346 C3348 1.391 . S
C3347 C3346 1.386 . S
C3347 C3351 1.393 . S
C3348 H3337 0.950 . S
C3348 C3346 1.391 . S
C3348 C3349 1.400 . S
C3349 C3343 1.491 . S
C3349 C3348 1.400 . S
C3349 C3350 1.398 . S
C3350 H3338 0.950 . S
C3350 C3349 1.398 . S
C3350 C3351 1.391 . S
C3351 H3339 0.950 . S
C3351 C3347 1.393 . S
C3351 C3350 1.391 . S
H3352 C3360 0.950 . S
H3353 C3365 0.950 . S
H3354 C3362 0.950 . S
H3355 C3364 0.950 . S
H3356 C3366 0.950 . S
H3357 C3368 0.950 . S
H3358 C3370 0.950 . S
H3359 C3371 0.922 1_554 S
C3360 H3352 0.950 . S
C3360 C3361 1.386 . S
C3360 C3362 1.391 . S
C3361 C3360 1.386 . S
C3361 C3365 1.393 . S
C3362 H3354 0.950 . S
C3362 C3360 1.391 . S
C3362 C3363 1.400 . S
C3363 C3362 1.400 . S
C3363 C3364 1.398 . S
C3363 C3369 1.491 . S
C3364 H3355 0.950 . S
C3364 C3363 1.398 . S
C3364 C3365 1.391 . S
C3365 H3353 0.950 . S
C3365 C3361 1.393 . S
C3365 C3364 1.391 . S
C3366 H3356 0.950 . S
C3366 C3367 1.386 . S
C3366 C3368 1.391 . S
C3367 C3366 1.386 . S
C3367 C3371 1.399 . S
C3368 H3357 0.950 . S
C3368 C3366 1.391 . S
C3368 C3369 1.400 . S
C3369 C3363 1.491 . S
C3369 C3368 1.400 . S
C3369 C3370 1.398 . S
C3370 H3358 0.950 . S
C3370 C3369 1.398 . S
C3370 C3371 1.414 . S
C3371 H3359 0.922 1_556 S
C3371 C3367 1.399 . S
C3371 C3370 1.414 . S
H3372 C3380 0.950 . S
H3373 C3385 0.950 . S
H3374 C3382 0.950 . S
H3375 C3384 0.950 . S
H3376 C3386 0.950 . S
H3377 C3388 0.950 . S
H3378 C3390 0.950 . S
H3379 C3391 0.950 . S
C3380 H3372 0.950 . S
C3380 C3381 1.386 . S
C3380 C3382 1.391 . S
C3381 C3380 1.386 . S
C3381 C3385 1.393 . S
C3382 H3374 0.950 . S
C3382 C3380 1.391 . S
C3382 C3383 1.400 . S
C3383 C3382 1.400 . S
C3383 C3384 1.398 . S
C3383 C3389 1.491 . S
C3384 H3375 0.950 . S
C3384 C3383 1.398 . S
C3384 C3385 1.391 . S
C3385 H3373 0.950 . S
C3385 C3381 1.393 . S
C3385 C3384 1.391 . S
C3386 H3376 0.950 . S
C3386 C3387 1.386 . S
C3386 C3388 1.391 . S
C3387 C3386 1.386 . S
C3387 C3391 1.393 . S
C3388 H3377 0.950 . S
C3388 C3386 1.391 . S
C3388 C3389 1.400 . S
C3389 C3383 1.491 . S
C3389 C3388 1.400 . S
C3389 C3390 1.398 . S
C3390 H3378 0.950 . S
C3390 C3389 1.398 . S
C3390 C3391 1.391 . S
C3391 H3379 0.950 . S
C3391 C3387 1.393 . S
C3391 C3390 1.391 . S
H3392 C3400 0.930 1_565 S
H3393 C3405 0.950 . S
H3394 C3402 0.950 1_565 S
H3395 C3404 0.950 . S
H3396 C3406 0.950 . S
H3397 C3408 0.950 . S
H3398 C3410 0.950 1_565 S
H3399 C3411 0.950 1_565 S
C3400 H3392 0.930 1_545 S
C3400 C3401 1.386 . S
C3400 C3402 1.391 . S
C3401 C3400 1.386 . S
C3401 C3405 1.393 . S
C3402 H3394 0.950 1_545 S
C3402 C3400 1.391 . S
C3402 C3403 1.400 . S
C3403 C3402 1.400 . S
C3403 C3404 1.398 . S
C3403 C3409 1.491 . S
C3404 H3395 0.950 . S
C3404 C3403 1.398 . S
C3404 C3405 1.391 . S
C3405 H3393 0.950 . S
C3405 C3401 1.393 . S
C3405 C3404 1.391 . S
C3406 H3396 0.950 . S
C3406 C3407 1.386 . S
C3406 C3408 1.391 . S
C3407 C3406 1.386 . S
C3407 C3411 1.393 . S
C3408 H3397 0.950 . S
C3408 C3406 1.391 . S
C3408 C3409 1.400 . S
C3409 C3403 1.491 . S
C3409 C3408 1.400 . S
C3409 C3410 1.398 . S
C3410 H3398 0.950 1_545 S
C3410 C3409 1.398 . S
C3410 C3411 1.391 . S
C3411 H3399 0.950 1_545 S
C3411 C3407 1.393 . S
C3411 C3410 1.391 . S
H3412 C3420 0.950 . S
H3413 C3425 0.950 . S
H3414 C3422 0.950 . S
H3415 C3424 0.950 . S
H3416 C3426 0.950 . S
H3417 C3428 0.950 . S
H3418 C3430 0.950 . S
H3419 C3431 0.950 . S
C3420 H3412 0.950 . S
C3420 C3421 1.386 . S
C3420 C3422 1.391 . S
C3421 C3420 1.386 . S
C3421 C3425 1.393 . S
C3422 H3414 0.950 . S
C3422 C3420 1.391 . S
C3422 C3423 1.400 . S
C3423 C3422 1.400 . S
C3423 C3424 1.398 . S
C3423 C3429 1.491 . S
C3424 H3415 0.950 . S
C3424 C3423 1.398 . S
C3424 C3425 1.391 . S
C3425 H3413 0.950 . S
C3425 C3421 1.393 . S
C3425 C3424 1.391 . S
C3426 H3416 0.950 . S
C3426 C3427 1.386 . S
C3426 C3428 1.391 . S
C3427 C3426 1.386 . S
C3427 C3431 1.393 . S
C3428 H3417 0.950 . S
C3428 C3426 1.391 . S
C3428 C3429 1.400 . S
C3429 C3423 1.491 . S
C3429 C3428 1.400 . S
C3429 C3430 1.398 . S
C3430 H3418 0.950 . S
C3430 C3429 1.398 . S
C3430 C3431 1.391 . S
C3431 H3419 0.950 . S
C3431 C3427 1.393 . S
C3431 C3430 1.391 . S
H3432 C3440 0.950 1_565 S
H3433 C3445 0.950 . S
H3434 C3442 0.961 . S
H3435 C3444 0.950 . S
H3436 C3446 0.950 . S
H3437 C3448 0.950 . S
H3438 C3450 0.950 . S
H3439 C3451 0.950 . S
C3440 H3432 0.950 1_545 S
C3440 C3441 1.386 . S
C3440 C3442 1.391 . S
C3441 C3440 1.386 . S
C3441 C3445 1.393 . S
C3442 H3434 0.961 . S
C3442 C3440 1.391 . S
C3442 C3443 1.400 . S
C3443 C3442 1.400 . S
C3443 C3444 1.398 . S
C3443 C3449 1.491 . S
C3444 H3435 0.950 . S
C3444 C3443 1.398 . S
C3444 C3445 1.391 . S
C3445 H3433 0.950 . S
C3445 C3441 1.393 . S
C3445 C3444 1.391 . S
C3446 H3436 0.950 . S
C3446 C3447 1.386 . S
C3446 C3448 1.391 . S
C3447 C3446 1.386 . S
C3447 C3451 1.393 . S
C3448 H3437 0.950 . S
C3448 C3446 1.391 . S
C3448 C3449 1.400 . S
C3449 C3443 1.491 . S
C3449 C3448 1.400 . S
C3449 C3450 1.398 . S
C3450 H3438 0.950 . S
C3450 C3449 1.398 . S
C3450 C3451 1.391 . S
C3451 H3439 0.950 . S
C3451 C3447 1.393 . S
C3451 C3450 1.391 . S
H3452 C3460 0.950 . S
H3453 C3465 0.950 . S
H3454 C3462 0.950 . S
H3455 C3464 0.950 . S
H3456 C3466 0.950 . S
H3457 C3468 0.950 . S
H3458 C3470 0.950 . S
H3459 C3471 0.950 . S
C3460 H3452 0.950 . S
C3460 C3461 1.386 . S
C3460 C3462 1.391 . S
C3461 C3460 1.386 . S
C3461 C3465 1.393 . S
C3462 H3454 0.950 . S
C3462 C3460 1.391 . S
C3462 C3463 1.400 . S
C3463 C3462 1.400 . S
C3463 C3464 1.398 . S
C3463 C3469 1.491 . S
C3464 H3455 0.950 . S
C3464 C3463 1.398 . S
C3464 C3465 1.391 . S
C3465 H3453 0.950 . S
C3465 C3461 1.393 . S
C3465 C3464 1.391 . S
C3466 H3456 0.950 . S
C3466 C3467 1.386 . S
C3466 C3468 1.391 . S
C3467 C3466 1.386 . S
C3467 C3471 1.393 . S
C3468 H3457 0.950 . S
C3468 C3466 1.391 . S
C3468 C3469 1.400 . S
C3469 C3463 1.491 . S
C3469 C3468 1.400 . S
C3469 C3470 1.398 . S
C3470 H3458 0.950 . S
C3470 C3469 1.398 . S
C3470 C3471 1.391 . S
C3471 H3459 0.950 . S
C3471 C3467 1.393 . S
C3471 C3470 1.391 . S
H3472 C3480 0.950 . S
H3473 C3485 0.950 1_565 S
H3474 C3482 0.950 . S
H3475 C3484 0.950 1_565 S
H3476 C3486 0.950 . S
H3477 C3488 0.899 1_565 S
H3478 C3490 0.950 . S
H3479 C3491 0.950 . S
C3480 H3472 0.950 . S
C3480 C3481 1.386 . S
C3480 C3482 1.391 . S
C3481 C3480 1.386 . S
C3481 C3485 1.393 . S
C3482 H3474 0.950 . S
C3482 C3480 1.391 . S
C3482 C3483 1.400 . S
C3483 C3482 1.400 . S
C3483 C3484 1.398 . S
C3483 C3489 1.491 . S
C3484 H3475 0.950 1_545 S
C3484 C3483 1.398 . S
C3484 C3485 1.391 . S
C3485 H3473 0.950 1_545 S
C3485 C3481 1.393 . S
C3485 C3484 1.391 . S
C3486 H3476 0.950 . S
C3486 C3487 1.386 . S
C3486 C3488 1.391 . S
C3487 C3486 1.386 . S
C3487 C3491 1.393 . S
C3488 H3477 0.899 1_545 S
C3488 C3486 1.391 . S
C3488 C3489 1.400 . S
C3489 C3483 1.491 . S
C3489 C3488 1.400 . S
C3489 C3490 1.398 . S
C3490 H3478 0.950 . S
C3490 C3489 1.398 . S
C3490 C3491 1.391 . S
C3491 H3479 0.950 . S
C3491 C3487 1.393 . S
C3491 C3490 1.391 . S
H3492 C3500 0.950 . S
H3493 C3505 0.950 . S
H3494 C3502 0.950 . S
H3495 C3504 0.950 . S
H3496 C3506 0.950 . S
H3497 C3508 0.950 . S
H3498 C3510 0.950 . S
H3499 C3511 0.950 . S
C3500 H3492 0.950 . S
C3500 C3501 1.386 . S
C3500 C3502 1.391 . S
C3501 C3500 1.386 . S
C3501 C3505 1.393 . S
C3502 H3494 0.950 . S
C3502 C3500 1.391 . S
C3502 C3503 1.400 . S
C3503 C3502 1.400 . S
C3503 C3504 1.398 . S
C3503 C3509 1.491 . S
C3504 H3495 0.950 . S
C3504 C3503 1.398 . S
C3504 C3505 1.391 . S
C3505 H3493 0.950 . S
C3505 C3501 1.393 . S
C3505 C3504 1.391 . S
C3506 H3496 0.950 . S
C3506 C3507 1.386 . S
C3506 C3508 1.391 . S
C3507 C3506 1.386 . S
C3507 C3511 1.393 . S
C3508 H3497 0.950 . S
C3508 C3506 1.391 . S
C3508 C3509 1.400 . S
C3509 C3503 1.491 . S
C3509 C3508 1.400 . S
C3509 C3510 1.398 . S
C3510 H3498 0.950 . S
C3510 C3509 1.398 . S
C3510 C3511 1.391 . S
C3511 H3499 0.950 . S
C3511 C3507 1.393 . S
C3511 C3510 1.391 . S
H3512 C3520 0.950 . S
H3513 C3525 0.950 . S
H3514 C3522 0.950 . S
H3515 C3524 0.950 . S
H3516 C3526 0.950 . S
H3517 C3528 0.950 . S
H3518 C3530 0.950 . S
H3519 C3531 0.950 . S
C3520 H3512 0.950 . S
C3520 C3521 1.386 1_565 S
C3520 C3522 1.391 . S
C3521 C3520 1.386 1_545 S
C3521 C3525 1.393 . S
C3522 H3514 0.950 . S
C3522 C3520 1.391 . S
C3522 C3523 1.444 . S
C3523 C3522 1.444 . S
C3523 C3524 1.345 1_565 S
C3523 C3529 1.502 . S
C3524 H3515 0.950 . S
C3524 C3523 1.345 1_545 S
C3524 C3525 1.391 . S
C3525 H3513 0.950 . S
C3525 C3521 1.393 . S
C3525 C3524 1.391 . S
C3526 H3516 0.950 . S
C3526 C3527 1.386 1_545 S
C3526 C3528 1.391 . S
C3527 C3526 1.386 1_565 S
C3527 C3531 1.393 . S
C3528 H3517 0.950 . S
C3528 C3526 1.391 . S
C3528 C3529 1.400 1_545 S
C3529 C3523 1.502 . S
C3529 C3528 1.400 1_565 S
C3529 C3530 1.398 . S
C3530 H3518 0.950 . S
C3530 C3529 1.398 . S
C3530 C3531 1.391 . S
C3531 H3519 0.950 . S
C3531 C3527 1.393 . S
C3531 C3530 1.391 . S
H3532 C3540 0.950 . S
H3533 C3545 0.950 . S
H3534 C3542 0.950 . S
H3535 C3544 0.950 . S
H3536 C3546 0.950 . S
H3537 C3548 0.950 . S
H3538 C3550 0.950 . S
H3539 C3551 0.950 . S
C3540 H3532 0.950 . S
C3540 C3541 1.386 . S
C3540 C3542 1.391 . S
C3541 C3540 1.386 . S
C3541 C3545 1.393 . S
C3542 H3534 0.950 . S
C3542 C3540 1.391 . S
C3542 C3543 1.400 . S
C3543 C3542 1.400 . S
C3543 C3544 1.398 . S
C3543 C3549 1.491 . S
C3544 H3535 0.950 . S
C3544 C3543 1.398 . S
C3544 C3545 1.391 . S
C3545 H3533 0.950 . S
C3545 C3541 1.393 . S
C3545 C3544 1.391 . S
C3546 H3536 0.950 . S
C3546 C3547 1.386 . S
C3546 C3548 1.391 . S
C3547 C3546 1.386 . S
C3547 C3551 1.393 . S
C3548 H3537 0.950 . S
C3548 C3546 1.391 . S
C3548 C3549 1.400 . S
C3549 C3543 1.491 . S
C3549 C3548 1.400 . S
C3549 C3550 1.398 . S
C3550 H3538 0.950 . S
C3550 C3549 1.398 . S
C3550 C3551 1.391 . S
C3551 H3539 0.950 . S
C3551 C3547 1.393 . S
C3551 C3550 1.391 . S
H3552 C3560 0.950 . S
H3553 C3565 0.950 . S
H3554 C3562 0.950 . S
H3555 C3564 0.950 . S
H3556 C3566 0.950 . S
H3557 C3568 0.950 . S
H3558 C3570 0.950 . S
H3559 C3571 0.950 1_556 S
C3560 H3552 0.950 . S
C3560 C3561 1.386 . S
C3560 C3562 1.391 . S
C3561 C3560 1.386 . S
C3561 C3565 1.393 . S
C3562 H3554 0.950 . S
C3562 C3560 1.391 . S
C3562 C3563 1.400 . S
C3563 C3562 1.400 . S
C3563 C3564 1.398 . S
C3563 C3569 1.491 . S
C3564 H3555 0.950 . S
C3564 C3563 1.398 . S
C3564 C3565 1.391 . S
C3565 H3553 0.950 . S
C3565 C3561 1.393 . S
C3565 C3564 1.391 . S
C3566 H3556 0.950 . S
C3566 C3567 1.386 . S
C3566 C3568 1.391 . S
C3567 C3566 1.386 . S
C3567 C3571 1.393 . S
C3568 H3557 0.950 . S
C3568 C3566 1.391 . S
C3568 C3569 1.400 . S
C3569 C3563 1.491 . S
C3569 C3568 1.400 . S
C3569 C3570 1.398 . S
C3570 H3558 0.950 . S
C3570 C3569 1.398 . S
C3570 C3571 1.391 . S
C3571 H3559 0.950 1_554 S
C3571 C3567 1.393 . S
C3571 C3570 1.391 . S
H3572 C3580 0.950 . S
H3573 C3585 0.950 . S
H3574 C3582 0.950 . S
H3575 C3584 0.950 . S
H3576 C3586 0.950 . S
H3577 C3588 0.950 . S
H3578 C3590 0.950 . S
H3579 C3591 0.950 . S
C3580 H3572 0.950 . S
C3580 C3581 1.386 . S
C3580 C3582 1.391 . S
C3581 C3580 1.386 . S
C3581 C3585 1.393 . S
C3582 H3574 0.950 . S
C3582 C3580 1.391 . S
C3582 C3583 1.400 . S
C3583 C3582 1.400 . S
C3583 C3584 1.398 . S
C3583 C3589 1.491 . S
C3584 H3575 0.950 . S
C3584 C3583 1.398 . S
C3584 C3585 1.391 . S
C3585 H3573 0.950 . S
C3585 C3581 1.393 . S
C3585 C3584 1.391 . S
C3586 H3576 0.950 . S
C3586 C3587 1.386 . S
C3586 C3588 1.391 . S
C3587 C3586 1.386 . S
C3587 C3591 1.393 . S
C3588 H3577 0.950 . S
C3588 C3586 1.391 . S
C3588 C3589 1.400 . S
C3589 C3583 1.491 . S
C3589 C3588 1.400 . S
C3589 C3590 1.398 . S
C3590 H3578 0.950 . S
C3590 C3589 1.398 . S
C3590 C3591 1.391 . S
C3591 H3579 0.950 . S
C3591 C3587 1.393 . S
C3591 C3590 1.391 . S
H3592 C3600 0.950 . S
H3593 C3605 0.950 . S
H3594 C3602 0.950 . S
H3595 C3604 0.950 . S
H3596 C3606 0.950 . S
H3597 C3608 0.950 . S
H3598 C3610 0.950 . S
H3599 C3611 0.950 . S
C3600 H3592 0.950 . S
C3600 C3601 1.386 . S
C3600 C3602 1.391 . S
C3601 C3600 1.386 . S
C3601 C3605 1.393 . S
C3602 H3594 0.950 . S
C3602 C3600 1.391 . S
C3602 C3603 1.400 . S
C3603 C3602 1.400 . S
C3603 C3604 1.398 . S
C3603 C3609 1.491 . S
C3604 H3595 0.950 . S
C3604 C3603 1.398 . S
C3604 C3605 1.391 . S
C3605 H3593 0.950 . S
C3605 C3601 1.393 . S
C3605 C3604 1.391 . S
C3606 H3596 0.950 . S
C3606 C3607 1.386 . S
C3606 C3608 1.391 . S
C3607 C3606 1.386 . S
C3607 C3611 1.393 . S
C3608 H3597 0.950 . S
C3608 C3606 1.391 . S
C3608 C3609 1.400 . S
C3609 C3603 1.491 . S
C3609 C3608 1.400 . S
C3609 C3610 1.398 . S
C3610 H3598 0.950 . S
C3610 C3609 1.398 . S
C3610 C3611 1.391 . S
C3611 H3599 0.950 . S
C3611 C3607 1.393 . S
C3611 C3610 1.391 . S
H3612 C3620 0.950 . S
H3613 C3625 0.950 . S
H3614 C3622 0.950 . S
H3615 C3624 0.950 . S
H3616 C3626 0.950 . S
H3617 C3628 0.950 . S
H3618 C3630 0.950 . S
H3619 C3631 0.950 . S
C3620 H3612 0.950 . S
C3620 C3621 1.386 . S
C3620 C3622 1.391 . S
C3621 C3620 1.386 . S
C3621 C3625 1.393 . S
C3622 H3614 0.950 . S
C3622 C3620 1.391 . S
C3622 C3623 1.400 . S
C3623 C3622 1.400 . S
C3623 C3624 1.398 . S
C3623 C3629 1.491 . S
C3624 H3615 0.950 . S
C3624 C3623 1.398 . S
C3624 C3625 1.391 . S
C3625 H3613 0.950 . S
C3625 C3621 1.393 . S
C3625 C3624 1.391 . S
C3626 H3616 0.950 . S
C3626 C3627 1.386 . S
C3626 C3628 1.391 . S
C3627 C3626 1.386 . S
C3627 C3631 1.393 . S
C3628 H3617 0.950 . S
C3628 C3626 1.391 . S
C3628 C3629 1.400 . S
C3629 C3623 1.491 . S
C3629 C3628 1.400 . S
C3629 C3630 1.398 . S
C3630 H3618 0.950 . S
C3630 C3629 1.398 . S
C3630 C3631 1.391 . S
C3631 H3619 0.950 . S
C3631 C3627 1.393 . S
C3631 C3630 1.391 . S
H3632 C3640 0.950 . S
H3633 C3645 0.950 . S
H3634 C3642 0.950 . S
H3635 C3644 0.950 . S
H3636 C3646 0.950 . S
H3637 C3648 0.950 . S
H3638 C3650 0.950 . S
H3639 C3651 0.950 . S
C3640 H3632 0.950 . S
C3640 C3641 1.386 . S
C3640 C3642 1.391 . S
C3641 C3640 1.386 . S
C3641 C3645 1.393 . S
C3642 H3634 0.950 . S
C3642 C3640 1.391 . S
C3642 C3643 1.400 . S
C3643 C3642 1.400 . S
C3643 C3644 1.398 . S
C3643 C3649 1.491 . S
C3644 H3635 0.950 . S
C3644 C3643 1.398 . S
C3644 C3645 1.391 . S
C3645 H3633 0.950 . S
C3645 C3641 1.393 . S
C3645 C3644 1.391 . S
C3646 H3636 0.950 . S
C3646 C3647 1.386 . S
C3646 C3648 1.391 . S
C3647 C3646 1.386 . S
C3647 C3651 1.393 . S
C3648 H3637 0.950 . S
C3648 C3646 1.391 . S
C3648 C3649 1.400 . S
C3649 C3643 1.491 . S
C3649 C3648 1.400 . S
C3649 C3650 1.398 . S
C3650 H3638 0.950 . S
C3650 C3649 1.398 . S
C3650 C3651 1.391 . S
C3651 H3639 0.950 . S
C3651 C3647 1.393 . S
C3651 C3650 1.391 . S
H3652 C3660 0.950 . S
H3653 C3665 0.950 . S
H3654 C3662 0.950 . S
H3655 C3664 0.950 . S
H3656 C3666 0.950 . S
H3657 C3668 0.950 . S
H3658 C3670 0.950 . S
H3659 C3671 0.950 . S
C3660 H3652 0.950 . S
C3660 C3661 1.386 . S
C3660 C3662 1.391 . S
C3661 C3660 1.386 . S
C3661 C3665 1.393 . S
C3662 H3654 0.950 . S
C3662 C3660 1.391 . S
C3662 C3663 1.400 . S
C3663 C3662 1.400 . S
C3663 C3664 1.398 . S
C3663 C3669 1.491 . S
C3664 H3655 0.950 . S
C3664 C3663 1.398 . S
C3664 C3665 1.391 . S
C3665 H3653 0.950 . S
C3665 C3661 1.393 . S
C3665 C3664 1.391 . S
C3666 H3656 0.950 . S
C3666 C3667 1.386 . S
C3666 C3668 1.391 . S
C3667 C3666 1.386 . S
C3667 C3671 1.393 . S
C3668 H3657 0.950 . S
C3668 C3666 1.391 . S
C3668 C3669 1.400 . S
C3669 C3663 1.491 . S
C3669 C3668 1.400 . S
C3669 C3670 1.398 . S
C3670 H3658 0.950 . S
C3670 C3669 1.398 . S
C3670 C3671 1.391 . S
C3671 H3659 0.950 . S
C3671 C3667 1.393 . S
C3671 C3670 1.391 . S
H3672 C3680 0.950 . S
H3673 C3685 0.950 . S
H3674 C3682 0.950 . S
H3675 C3684 0.950 . S
H3676 C3686 0.950 . S
H3677 C3688 0.950 . S
H3678 C3690 0.950 . S
H3679 C3691 0.950 . S
C3680 H3672 0.950 . S
C3680 C3681 1.386 . S
C3680 C3682 1.391 . S
C3681 C3680 1.386 . S
C3681 C3685 1.393 . S
C3682 H3674 0.950 . S
C3682 C3680 1.391 . S
C3682 C3683 1.400 . S
C3683 C3682 1.400 . S
C3683 C3684 1.398 . S
C3683 C3689 1.491 . S
C3684 H3675 0.950 . S
C3684 C3683 1.398 . S
C3684 C3685 1.391 . S
C3685 H3673 0.950 . S
C3685 C3681 1.393 . S
C3685 C3684 1.391 . S
C3686 H3676 0.950 . S
C3686 C3687 1.386 . S
C3686 C3688 1.391 . S
C3687 C3686 1.386 . S
C3687 C3691 1.393 . S
C3688 H3677 0.950 . S
C3688 C3686 1.391 . S
C3688 C3689 1.400 . S
C3689 C3683 1.491 . S
C3689 C3688 1.400 . S
C3689 C3690 1.398 . S
C3690 H3678 0.950 . S
C3690 C3689 1.398 . S
C3690 C3691 1.391 . S
C3691 H3679 0.950 . S
C3691 C3687 1.393 . S
C3691 C3690 1.391 . S
H3692 C3700 0.950 . S
H3693 C3705 0.950 . S
H3694 C3702 0.950 . S
H3695 C3704 0.950 . S
H3696 C3706 0.950 . S
H3697 C3708 0.950 . S
H3698 C3710 0.950 . S
H3699 C3711 0.950 . S
C3700 H3692 0.950 . S
C3700 C3701 1.386 . S
C3700 C3702 1.391 . S
C3701 C3700 1.386 . S
C3701 C3705 1.393 . S
C3702 H3694 0.950 . S
C3702 C3700 1.391 . S
C3702 C3703 1.400 . S
C3703 C3702 1.400 . S
C3703 C3704 1.398 . S
C3703 C3709 1.491 . S
C3704 H3695 0.950 . S
C3704 C3703 1.398 . S
C3704 C3705 1.391 . S
C3705 H3693 0.950 . S
C3705 C3701 1.393 . S
C3705 C3704 1.391 . S
C3706 H3696 0.950 . S
C3706 C3707 1.386 . S
C3706 C3708 1.391 . S
C3707 C3706 1.386 . S
C3707 C3711 1.393 . S
C3708 H3697 0.950 . S
C3708 C3706 1.391 . S
C3708 C3709 1.400 . S
C3709 C3703 1.491 . S
C3709 C3708 1.400 . S
C3709 C3710 1.398 . S
C3710 H3698 0.950 . S
C3710 C3709 1.398 . S
C3710 C3711 1.391 . S
C3711 H3699 0.950 . S
C3711 C3707 1.393 . S
C3711 C3710 1.391 . S
H3712 C3720 0.950 . S
H3713 C3725 0.950 . S
H3714 C3722 0.950 . S
H3715 C3724 0.950 . S
H3716 C3726 0.950 . S
H3717 C3728 0.950 . S
H3718 C3730 0.950 . S
H3719 C3731 0.950 . S
C3720 H3712 0.950 . S
C3720 C3721 1.386 . S
C3720 C3722 1.391 . S
C3721 C3720 1.386 . S
C3721 C3725 1.393 . S
C3722 H3714 0.950 . S
C3722 C3720 1.391 . S
C3722 C3723 1.400 . S
C3723 C3722 1.400 . S
C3723 C3724 1.398 . S
C3723 C3729 1.491 . S
C3724 H3715 0.950 . S
C3724 C3723 1.398 . S
C3724 C3725 1.391 . S
C3725 H3713 0.950 . S
C3725 C3721 1.393 . S
C3725 C3724 1.391 . S
C3726 H3716 0.950 . S
C3726 C3727 1.386 . S
C3726 C3728 1.391 . S
C3727 C3726 1.386 . S
C3727 C3731 1.393 . S
C3728 H3717 0.950 . S
C3728 C3726 1.391 . S
C3728 C3729 1.400 . S
C3729 C3723 1.491 . S
C3729 C3728 1.400 . S
C3729 C3730 1.398 . S
C3730 H3718 0.950 . S
C3730 C3729 1.398 . S
C3730 C3731 1.391 . S
C3731 H3719 0.950 . S
C3731 C3727 1.393 . S
C3731 C3730 1.391 . S
H3732 C3740 0.950 . S
H3733 C3745 0.950 . S
H3734 C3742 0.950 . S
H3735 C3744 0.950 . S
H3736 C3746 0.950 . S
H3737 C3748 0.950 . S
H3738 C3750 0.950 . S
H3739 C3751 0.950 . S
C3740 H3732 0.950 . S
C3740 C3741 1.386 . S
C3740 C3742 1.391 . S
C3741 C3740 1.386 . S
C3741 C3745 1.393 . S
C3742 H3734 0.950 . S
C3742 C3740 1.391 . S
C3742 C3743 1.400 . S
C3743 C3742 1.400 . S
C3743 C3744 1.398 . S
C3743 C3749 1.491 . S
C3744 H3735 0.950 . S
C3744 C3743 1.398 . S
C3744 C3745 1.391 . S
C3745 H3733 0.950 . S
C3745 C3741 1.393 . S
C3745 C3744 1.391 . S
C3746 H3736 0.950 . S
C3746 C3747 1.386 . S
C3746 C3748 1.391 . S
C3747 C3746 1.386 . S
C3747 C3751 1.393 . S
C3748 H3737 0.950 . S
C3748 C3746 1.391 . S
C3748 C3749 1.400 . S
C3749 C3743 1.491 . S
C3749 C3748 1.400 . S
C3749 C3750 1.398 . S
C3750 H3738 0.950 . S
C3750 C3749 1.398 . S
C3750 C3751 1.391 . S
C3751 H3739 0.950 . S
C3751 C3747 1.393 . S
C3751 C3750 1.391 . S
H3752 C3760 0.950 . S
H3753 C3765 0.960 . S
H3754 C3762 0.950 . S
H3755 C3764 0.952 1_655 S
H3756 C3766 0.950 1_655 S
H3757 C3768 0.950 1_655 S
H3758 C3770 0.950 . S
H3759 C3771 0.950 . S
C3760 H3752 0.950 . S
C3760 C3761 1.386 . S
C3760 C3762 1.391 . S
C3761 C3760 1.386 . S
C3761 C3765 1.379 1_455 S
C3762 H3754 0.950 . S
C3762 C3760 1.391 . S
C3762 C3763 1.400 . S
C3763 C3762 1.400 . S
C3763 C3764 1.397 . S
C3763 C3769 1.491 . S
C3764 H3755 0.952 1_455 S
C3764 C3763 1.397 . S
C3764 C3765 1.394 1_455 S
C3765 H3753 0.960 . S
C3765 C3761 1.379 1_655 S
C3765 C3764 1.394 1_655 S
C3766 H3756 0.950 1_455 S
C3766 C3767 1.386 . S
C3766 C3768 1.391 . S
C3767 C3766 1.386 . S
C3767 C3771 1.393 . S
C3768 H3757 0.950 1_455 S
C3768 C3766 1.391 . S
C3768 C3769 1.400 . S
C3769 C3763 1.491 . S
C3769 C3768 1.400 . S
C3769 C3770 1.398 . S
C3770 H3758 0.950 . S
C3770 C3769 1.398 . S
C3770 C3771 1.391 . S
C3771 H3759 0.950 . S
C3771 C3767 1.393 . S
C3771 C3770 1.391 . S
H3772 C3780 0.950 . S
H3773 C3785 0.950 . S
H3774 C3782 0.950 . S
H3775 C3784 0.950 . S
H3776 C3786 0.950 . S
H3777 C3788 0.950 . S
H3778 C3790 0.950 . S
H3779 C3791 0.950 . S
C3780 H3772 0.950 . S
C3780 C3781 1.386 . S
C3780 C3782 1.391 . S
C3781 C3780 1.386 . S
C3781 C3785 1.393 . S
C3782 H3774 0.950 . S
C3782 C3780 1.391 . S
C3782 C3783 1.400 . S
C3783 C3782 1.400 . S
C3783 C3784 1.398 . S
C3783 C3789 1.491 . S
C3784 H3775 0.950 . S
C3784 C3783 1.398 . S
C3784 C3785 1.391 . S
C3785 H3773 0.950 . S
C3785 C3781 1.393 . S
C3785 C3784 1.391 . S
C3786 H3776 0.950 . S
C3786 C3787 1.386 . S
C3786 C3788 1.391 . S
C3787 C3786 1.386 . S
C3787 C3791 1.393 . S
C3788 H3777 0.950 . S
C3788 C3786 1.391 . S
C3788 C3789 1.400 . S
C3789 C3783 1.491 . S
C3789 C3788 1.400 . S
C3789 C3790 1.398 . S
C3790 H3778 0.950 . S
C3790 C3789 1.398 . S
C3790 C3791 1.391 . S
C3791 H3779 0.950 . S
C3791 C3787 1.393 . S
C3791 C3790 1.391 . S
H3792 C3800 0.950 . S
H3793 C3805 0.950 . S
H3794 C3802 0.950 . S
H3795 C3804 0.950 . S
H3796 C3806 0.950 . S
H3797 C3808 0.950 . S
H3798 C3810 0.950 . S
H3799 C3811 0.950 . S
C3800 H3792 0.950 . S
C3800 C3801 1.386 . S
C3800 C3802 1.391 . S
C3801 C3800 1.386 . S
C3801 C3805 1.393 . S
C3802 H3794 0.950 . S
C3802 C3800 1.391 . S
C3802 C3803 1.400 . S
C3803 C3802 1.400 . S
C3803 C3804 1.398 . S
C3803 C3809 1.491 . S
C3804 H3795 0.950 . S
C3804 C3803 1.398 . S
C3804 C3805 1.391 . S
C3805 H3793 0.950 . S
C3805 C3801 1.393 . S
C3805 C3804 1.391 . S
C3806 H3796 0.950 . S
C3806 C3807 1.386 . S
C3806 C3808 1.391 . S
C3807 C3806 1.386 . S
C3807 C3811 1.393 . S
C3808 H3797 0.950 . S
C3808 C3806 1.391 . S
C3808 C3809 1.400 . S
C3809 C3803 1.491 . S
C3809 C3808 1.400 . S
C3809 C3810 1.398 . S
C3810 H3798 0.950 . S
C3810 C3809 1.398 . S
C3810 C3811 1.391 . S
C3811 H3799 0.950 . S
C3811 C3807 1.393 . S
C3811 C3810 1.391 . S
H3812 C3820 0.950 . S
H3813 C3825 0.950 . S
H3814 C3822 0.950 . S
H3815 C3824 0.950 . S
H3816 C3826 0.950 . S
H3817 C3828 0.950 . S
H3818 C3830 0.950 . S
H3819 C3831 0.950 . S
C3820 H3812 0.950 . S
C3820 C3821 1.386 . S
C3820 C3822 1.391 . S
C3821 C3820 1.386 . S
C3821 C3825 1.393 . S
C3822 H3814 0.950 . S
C3822 C3820 1.391 . S
C3822 C3823 1.400 . S
C3823 C3822 1.400 . S
C3823 C3824 1.398 . S
C3823 C3829 1.491 . S
C3824 H3815 0.950 . S
C3824 C3823 1.398 . S
C3824 C3825 1.391 . S
C3825 H3813 0.950 . S
C3825 C3821 1.393 . S
C3825 C3824 1.391 . S
C3826 H3816 0.950 . S
C3826 C3827 1.386 . S
C3826 C3828 1.391 . S
C3827 C3826 1.386 . S
C3827 C3831 1.393 . S
C3828 H3817 0.950 . S
C3828 C3826 1.391 . S
C3828 C3829 1.400 . S
C3829 C3823 1.491 . S
C3829 C3828 1.400 . S
C3829 C3830 1.398 . S
C3830 H3818 0.950 . S
C3830 C3829 1.398 . S
C3830 C3831 1.391 . S
C3831 H3819 0.950 . S
C3831 C3827 1.393 . S
C3831 C3830 1.391 . S
H3832 C3840 0.950 . S
H3833 C3845 0.950 . S
H3834 C3842 0.950 . S
H3835 C3844 0.950 . S
H3836 C3846 0.950 . S
H3837 C3848 0.950 . S
H3838 C3850 0.950 . S
H3839 C3851 0.934 1_655 S
C3840 H3832 0.950 . S
C3840 C3841 1.386 1_655 S
C3840 C3842 1.391 . S
C3841 C3840 1.386 1_455 S
C3841 C3845 1.393 . S
C3842 H3834 0.950 . S
C3842 C3840 1.391 . S
C3842 C3843 1.400 1_655 S
C3843 C3842 1.400 1_455 S
C3843 C3844 1.398 . S
C3843 C3849 1.491 . S
C3844 H3835 0.950 . S
C3844 C3843 1.398 . S
C3844 C3845 1.391 . S
C3845 H3833 0.950 . S
C3845 C3841 1.393 . S
C3845 C3844 1.391 . S
C3846 H3836 0.950 . S
C3846 C3847 1.386 . S
C3846 C3848 1.391 . S
C3847 C3846 1.386 . S
C3847 C3851 1.421 . S
C3848 H3837 0.950 . S
C3848 C3846 1.391 . S
C3848 C3849 1.400 . S
C3849 C3843 1.491 . S
C3849 C3848 1.400 . S
C3849 C3850 1.398 1_455 S
C3850 H3838 0.950 . S
C3850 C3849 1.398 1_655 S
C3850 C3851 1.379 1_655 S
C3851 H3839 0.934 1_455 S
C3851 C3847 1.421 . S
C3851 C3850 1.379 1_455 S
H3852 C3860 0.950 . S
H3853 C3865 0.950 . S
H3854 C3862 0.950 . S
H3855 C3864 0.950 . S
H3856 C3866 0.950 . S
H3857 C3868 0.950 . S
H3858 C3870 0.950 . S
H3859 C3871 0.950 . S
C3860 H3852 0.950 . S
C3860 C3861 1.386 . S
C3860 C3862 1.391 . S
C3861 C3860 1.386 . S
C3861 C3865 1.393 . S
C3862 H3854 0.950 . S
C3862 C3860 1.391 . S
C3862 C3863 1.400 . S
C3863 C3862 1.400 . S
C3863 C3864 1.398 . S
C3863 C3869 1.491 . S
C3864 H3855 0.950 . S
C3864 C3863 1.398 . S
C3864 C3865 1.391 . S
C3865 H3853 0.950 . S
C3865 C3861 1.393 . S
C3865 C3864 1.391 . S
C3866 H3856 0.950 . S
C3866 C3867 1.386 . S
C3866 C3868 1.391 . S
C3867 C3866 1.386 . S
C3867 C3871 1.393 . S
C3868 H3857 0.950 . S
C3868 C3866 1.391 . S
C3868 C3869 1.400 . S
C3869 C3863 1.491 . S
C3869 C3868 1.400 . S
C3869 C3870 1.398 . S
C3870 H3858 0.950 . S
C3870 C3869 1.398 . S
C3870 C3871 1.391 . S
C3871 H3859 0.950 . S
C3871 C3867 1.393 . S
C3871 C3870 1.391 . S
H3872 C3880 0.950 . S
H3873 C3885 0.950 . S
H3874 C3882 0.950 . S
H3875 C3884 0.950 . S
H3876 C3886 0.950 . S
H3877 C3888 0.950 . S
H3878 C3890 0.950 . S
H3879 C3891 0.950 . S
C3880 H3872 0.950 . S
C3880 C3881 1.386 . S
C3880 C3882 1.391 . S
C3881 C3880 1.386 . S
C3881 C3885 1.393 . S
C3882 H3874 0.950 . S
C3882 C3880 1.391 . S
C3882 C3883 1.400 . S
C3883 C3882 1.400 . S
C3883 C3884 1.398 . S
C3883 C3889 1.491 . S
C3884 H3875 0.950 . S
C3884 C3883 1.398 . S
C3884 C3885 1.391 . S
C3885 H3873 0.950 . S
C3885 C3881 1.393 . S
C3885 C3884 1.391 . S
C3886 H3876 0.950 . S
C3886 C3887 1.386 . S
C3886 C3888 1.391 . S
C3887 C3886 1.386 . S
C3887 C3891 1.393 . S
C3888 H3877 0.950 . S
C3888 C3886 1.391 . S
C3888 C3889 1.400 . S
C3889 C3883 1.491 . S
C3889 C3888 1.400 . S
C3889 C3890 1.398 . S
C3890 H3878 0.950 . S
C3890 C3889 1.398 . S
C3890 C3891 1.391 . S
C3891 H3879 0.950 . S
C3891 C3887 1.393 . S
C3891 C3890 1.391 . S
H3892 C3900 0.950 . S
H3893 C3905 0.950 . S
H3894 C3902 0.950 . S
H3895 C3904 0.950 . S
H3896 C3906 0.950 . S
H3897 C3908 0.950 . S
H3898 C3910 0.950 . S
H3899 C3911 0.950 . S
C3900 H3892 0.950 . S
C3900 C3901 1.386 . S
C3900 C3902 1.391 . S
C3901 C3900 1.386 . S
C3901 C3905 1.393 . S
C3902 H3894 0.950 . S
C3902 C3900 1.391 . S
C3902 C3903 1.400 . S
C3903 C3902 1.400 . S
C3903 C3904 1.398 . S
C3903 C3909 1.491 . S
C3904 H3895 0.950 . S
C3904 C3903 1.398 . S
C3904 C3905 1.391 . S
C3905 H3893 0.950 . S
C3905 C3901 1.393 . S
C3905 C3904 1.391 . S
C3906 H3896 0.950 . S
C3906 C3907 1.386 . S
C3906 C3908 1.391 . S
C3907 C3906 1.386 . S
C3907 C3911 1.393 . S
C3908 H3897 0.950 . S
C3908 C3906 1.391 . S
C3908 C3909 1.400 . S
C3909 C3903 1.491 . S
C3909 C3908 1.400 . S
C3909 C3910 1.398 . S
C3910 H3898 0.950 . S
C3910 C3909 1.398 . S
C3910 C3911 1.391 . S
C3911 H3899 0.950 . S
C3911 C3907 1.393 . S
C3911 C3910 1.391 . S
H3912 C3920 0.950 . S
H3913 C3925 0.950 . S
H3914 C3922 0.950 . S
H3915 C3924 0.950 . S
H3916 C3926 0.950 . S
H3917 C3928 0.950 . S
H3918 C3930 0.950 . S
H3919 C3931 0.950 . S
C3920 H3912 0.950 . S
C3920 C3921 1.386 . S
C3920 C3922 1.391 . S
C3921 C3920 1.386 . S
C3921 C3925 1.393 . S
C3922 H3914 0.950 . S
C3922 C3920 1.391 . S
C3922 C3923 1.400 . S
C3923 C3922 1.400 . S
C3923 C3924 1.398 . S
C3923 C3929 1.491 . S
C3924 H3915 0.950 . S
C3924 C3923 1.398 . S
C3924 C3925 1.391 . S
C3925 H3913 0.950 . S
C3925 C3921 1.393 . S
C3925 C3924 1.391 . S
C3926 H3916 0.950 . S
C3926 C3927 1.386 . S
C3926 C3928 1.391 . S
C3927 C3926 1.386 . S
C3927 C3931 1.393 . S
C3928 H3917 0.950 . S
C3928 C3926 1.391 . S
C3928 C3929 1.400 . S
C3929 C3923 1.491 . S
C3929 C3928 1.400 . S
C3929 C3930 1.398 . S
C3930 H3918 0.950 . S
C3930 C3929 1.398 . S
C3930 C3931 1.391 . S
C3931 H3919 0.950 . S
C3931 C3927 1.393 . S
C3931 C3930 1.391 . S
H3932 C3940 0.950 . S
H3933 C3945 0.950 . S
H3934 C3942 0.950 . S
H3935 C3944 0.950 . S
H3936 C3946 0.950 . S
H3937 C3948 0.950 . S
H3938 C3950 0.950 . S
H3939 C3951 0.950 . S
C3940 H3932 0.950 . S
C3940 C3941 1.386 . S
C3940 C3942 1.391 . S
C3941 C3940 1.386 . S
C3941 C3945 1.393 . S
C3942 H3934 0.950 . S
C3942 C3940 1.391 . S
C3942 C3943 1.400 . S
C3943 C3942 1.400 . S
C3943 C3944 1.398 . S
C3943 C3949 1.491 . S
C3944 H3935 0.950 . S
C3944 C3943 1.398 . S
C3944 C3945 1.391 . S
C3945 H3933 0.950 . S
C3945 C3941 1.393 . S
C3945 C3944 1.391 . S
C3946 H3936 0.950 . S
C3946 C3947 1.386 . S
C3946 C3948 1.391 . S
C3947 C3946 1.386 . S
C3947 C3951 1.393 . S
C3948 H3937 0.950 . S
C3948 C3946 1.391 . S
C3948 C3949 1.400 . S
C3949 C3943 1.491 . S
C3949 C3948 1.400 . S
C3949 C3950 1.398 . S
C3950 H3938 0.950 . S
C3950 C3949 1.398 . S
C3950 C3951 1.391 . S
C3951 H3939 0.950 . S
C3951 C3947 1.393 . S
C3951 C3950 1.391 . S
H3952 C3960 0.950 . S
H3953 C3965 0.950 . S
H3954 C3962 0.950 . S
H3955 C3964 0.950 . S
H3956 C3966 0.950 . S
H3957 C3968 0.950 . S
H3958 C3970 0.950 . S
H3959 C3971 0.950 . S
C3960 H3952 0.950 . S
C3960 C3961 1.386 . S
C3960 C3962 1.391 . S
C3961 C3960 1.386 . S
C3961 C3965 1.393 . S
C3962 H3954 0.950 . S
C3962 C3960 1.391 . S
C3962 C3963 1.400 . S
C3963 C3962 1.400 . S
C3963 C3964 1.398 . S
C3963 C3969 1.491 . S
C3964 H3955 0.950 . S
C3964 C3963 1.398 . S
C3964 C3965 1.391 . S
C3965 H3953 0.950 . S
C3965 C3961 1.393 . S
C3965 C3964 1.391 . S
C3966 H3956 0.950 . S
C3966 C3967 1.386 . S
C3966 C3968 1.391 . S
C3967 C3966 1.386 . S
C3967 C3971 1.393 . S
C3968 H3957 0.950 . S
C3968 C3966 1.391 . S
C3968 C3969 1.400 . S
C3969 C3963 1.491 . S
C3969 C3968 1.400 . S
C3969 C3970 1.398 . S
C3970 H3958 0.950 . S
C3970 C3969 1.398 . S
C3970 C3971 1.391 . S
C3971 H3959 0.950 . S
C3971 C3967 1.393 . S
C3971 C3970 1.391 . S
H3972 C3980 0.950 . S
H3973 C3985 0.950 . S
H3974 C3982 0.950 . S
H3975 C3984 0.950 . S
H3976 C3986 0.950 . S
H3977 C3988 0.950 . S
H3978 C3990 0.950 . S
H3979 C3991 0.950 . S
C3980 H3972 0.950 . S
C3980 C3981 1.386 . S
C3980 C3982 1.391 . S
C3981 C3980 1.386 . S
C3981 C3985 1.393 . S
C3982 H3974 0.950 . S
C3982 C3980 1.391 . S
C3982 C3983 1.400 . S
C3983 C3982 1.400 . S
C3983 C3984 1.398 . S
C3983 C3989 1.491 . S
C3984 H3975 0.950 . S
C3984 C3983 1.398 . S
C3984 C3985 1.391 . S
C3985 H3973 0.950 . S
C3985 C3981 1.393 . S
C3985 C3984 1.391 . S
C3986 H3976 0.950 . S
C3986 C3987 1.386 . S
C3986 C3988 1.391 . S
C3987 C3986 1.386 . S
C3987 C3991 1.393 . S
C3988 H3977 0.950 . S
C3988 C3986 1.391 . S
C3988 C3989 1.400 . S
C3989 C3983 1.491 . S
C3989 C3988 1.400 . S
C3989 C3990 1.398 . S
C3990 H3978 0.950 . S
C3990 C3989 1.398 . S
C3990 C3991 1.391 . S
C3991 H3979 0.950 . S
C3991 C3987 1.393 . S
C3991 C3990 1.391 . S
H3992 C4000 0.950 . S
H3993 C4005 0.950 . S
H3994 C4002 0.950 . S
H3995 C4004 0.950 . S
H3996 C4006 0.950 . S
H3997 C4008 0.950 . S
H3998 C4010 0.950 . S
H3999 C4011 0.950 . S
C4000 H3992 0.950 . S
C4000 C4001 1.386 . S
C4000 C4002 1.391 . S
C4001 C4000 1.386 . S
C4001 C4005 1.393 . S
C4002 H3994 0.950 . S
C4002 C4000 1.391 . S
C4002 C4003 1.400 . S
C4003 C4002 1.400 . S
C4003 C4004 1.398 . S
C4003 C4009 1.491 . S
C4004 H3995 0.950 . S
C4004 C4003 1.398 . S
C4004 C4005 1.391 . S
C4005 H3993 0.950 . S
C4005 C4001 1.393 . S
C4005 C4004 1.391 . S
C4006 H3996 0.950 . S
C4006 C4007 1.386 . S
C4006 C4008 1.391 . S
C4007 C4006 1.386 . S
C4007 C4011 1.393 . S
C4008 H3997 0.950 . S
C4008 C4006 1.391 . S
C4008 C4009 1.400 . S
C4009 C4003 1.491 . S
C4009 C4008 1.400 . S
C4009 C4010 1.398 . S
C4010 H3998 0.950 . S
C4010 C4009 1.398 . S
C4010 C4011 1.391 . S
C4011 H3999 0.950 . S
C4011 C4007 1.393 . S
C4011 C4010 1.391 . S
H4012 C4020 0.950 . S
H4013 C4025 0.950 . S
H4014 C4022 0.950 . S
H4015 C4024 0.950 . S
H4016 C4026 0.950 . S
H4017 C4028 0.950 . S
H4018 C4030 0.950 . S
H4019 C4031 0.950 . S
C4020 H4012 0.950 . S
C4020 C4021 1.386 . S
C4020 C4022 1.391 . S
C4021 C4020 1.386 . S
C4021 C4025 1.393 . S
C4022 H4014 0.950 . S
C4022 C4020 1.391 . S
C4022 C4023 1.400 . S
C4023 C4022 1.400 . S
C4023 C4024 1.398 . S
C4023 C4029 1.491 . S
C4024 H4015 0.950 . S
C4024 C4023 1.398 . S
C4024 C4025 1.391 . S
C4025 H4013 0.950 . S
C4025 C4021 1.393 . S
C4025 C4024 1.391 . S
C4026 H4016 0.950 . S
C4026 C4027 1.386 . S
C4026 C4028 1.391 . S
C4027 C4026 1.386 . S
C4027 C4031 1.393 . S
C4028 H4017 0.950 . S
C4028 C4026 1.391 . S
C4028 C4029 1.400 . S
C4029 C4023 1.491 . S
C4029 C4028 1.400 . S
C4029 C4030 1.398 . S
C4030 H4018 0.950 . S
C4030 C4029 1.398 . S
C4030 C4031 1.391 . S
C4031 H4019 0.950 . S
C4031 C4027 1.393 . S
C4031 C4030 1.391 . S
H4032 C4040 0.950 . S
H4033 C4045 0.950 . S
H4034 C4042 0.950 . S
H4035 C4044 0.950 . S
H4036 C4046 0.950 . S
H4037 C4048 0.950 . S
H4038 C4050 0.950 . S
H4039 C4051 0.950 . S
C4040 H4032 0.950 . S
C4040 C4041 1.386 . S
C4040 C4042 1.391 . S
C4041 C4040 1.386 . S
C4041 C4045 1.393 . S
C4042 H4034 0.950 . S
C4042 C4040 1.391 . S
C4042 C4043 1.400 . S
C4043 C4042 1.400 . S
C4043 C4044 1.398 . S
C4043 C4049 1.491 . S
C4044 H4035 0.950 . S
C4044 C4043 1.398 . S
C4044 C4045 1.391 . S
C4045 H4033 0.950 . S
C4045 C4041 1.393 . S
C4045 C4044 1.391 . S
C4046 H4036 0.950 . S
C4046 C4047 1.386 . S
C4046 C4048 1.391 . S
C4047 C4046 1.386 . S
C4047 C4051 1.393 . S
C4048 H4037 0.950 . S
C4048 C4046 1.391 . S
C4048 C4049 1.400 . S
C4049 C4043 1.491 . S
C4049 C4048 1.400 . S
C4049 C4050 1.398 . S
C4050 H4038 0.950 . S
C4050 C4049 1.398 . S
C4050 C4051 1.391 . S
C4051 H4039 0.950 . S
C4051 C4047 1.393 . S
C4051 C4050 1.391 . S
H4052 C4060 0.950 . S
H4053 C4065 0.950 . S
H4054 C4062 0.950 . S
H4055 C4064 0.950 . S
H4056 C4066 0.950 . S
H4057 C4068 0.950 . S
H4058 C4070 0.950 . S
H4059 C4071 0.950 . S
C4060 H4052 0.950 . S
C4060 C4061 1.386 . S
C4060 C4062 1.391 . S
C4061 C4060 1.386 . S
C4061 C4065 1.393 . S
C4062 H4054 0.950 . S
C4062 C4060 1.391 . S
C4062 C4063 1.400 . S
C4063 C4062 1.400 . S
C4063 C4064 1.398 . S
C4063 C4069 1.491 . S
C4064 H4055 0.950 . S
C4064 C4063 1.398 . S
C4064 C4065 1.391 . S
C4065 H4053 0.950 . S
C4065 C4061 1.393 . S
C4065 C4064 1.391 . S
C4066 H4056 0.950 . S
C4066 C4067 1.386 . S
C4066 C4068 1.391 . S
C4067 C4066 1.386 . S
C4067 C4071 1.393 . S
C4068 H4057 0.950 . S
C4068 C4066 1.391 . S
C4068 C4069 1.400 . S
C4069 C4063 1.491 . S
C4069 C4068 1.400 . S
C4069 C4070 1.398 . S
C4070 H4058 0.950 . S
C4070 C4069 1.398 . S
C4070 C4071 1.391 . S
C4071 H4059 0.950 . S
C4071 C4067 1.393 . S
C4071 C4070 1.391 . S
H4072 C4080 0.950 . S
H4073 C4085 0.950 . S
H4074 C4082 0.950 . S
H4075 C4084 0.950 . S
H4076 C4086 0.950 . S
H4077 C4088 0.950 . S
H4078 C4090 0.950 . S
H4079 C4091 0.950 . S
C4080 H4072 0.950 . S
C4080 C4081 1.386 . S
C4080 C4082 1.391 . S
C4081 C4080 1.386 . S
C4081 C4085 1.393 . S
C4082 H4074 0.950 . S
C4082 C4080 1.391 . S
C4082 C4083 1.400 . S
C4083 C4082 1.400 . S
C4083 C4084 1.398 . S
C4083 C4089 1.491 . S
C4084 H4075 0.950 . S
C4084 C4083 1.398 . S
C4084 C4085 1.391 . S
C4085 H4073 0.950 . S
C4085 C4081 1.393 . S
C4085 C4084 1.391 . S
C4086 H4076 0.950 . S
C4086 C4087 1.386 . S
C4086 C4088 1.391 . S
C4087 C4086 1.386 . S
C4087 C4091 1.393 . S
C4088 H4077 0.950 . S
C4088 C4086 1.391 . S
C4088 C4089 1.400 . S
C4089 C4083 1.491 . S
C4089 C4088 1.400 . S
C4089 C4090 1.398 . S
C4090 H4078 0.950 . S
C4090 C4089 1.398 . S
C4090 C4091 1.391 . S
C4091 H4079 0.950 . S
C4091 C4087 1.393 . S
C4091 C4090 1.391 . S
H4092 C4100 0.949 . S
H4093 C4105 0.950 . S
H4094 C4102 0.950 1_545 S
H4095 C4104 0.950 . S
H4096 C4106 0.950 . S
H4097 C4108 0.950 . S
H4098 C4110 0.950 . S
H4099 C4111 0.950 . S
C4100 H4092 0.949 . S
C4100 C4101 1.386 . S
C4100 C4102 1.391 . S
C4101 C4100 1.386 . S
C4101 C4105 1.393 . S
C4102 H4094 0.950 1_565 S
C4102 C4100 1.391 . S
C4102 C4103 1.400 . S
C4103 C4102 1.400 . S
C4103 C4104 1.398 . S
C4103 C4109 1.491 . S
C4104 H4095 0.950 . S
C4104 C4103 1.398 . S
C4104 C4105 1.391 . S
C4105 H4093 0.950 . S
C4105 C4101 1.393 . S
C4105 C4104 1.391 . S
C4106 H4096 0.950 . S
C4106 C4107 1.386 1_565 S
C4106 C4108 1.391 . S
C4107 C4106 1.386 1_545 S
C4107 C4111 1.393 . S
C4108 H4097 0.950 . S
C4108 C4106 1.391 . S
C4108 C4109 1.400 . S
C4109 C4103 1.491 . S
C4109 C4108 1.400 . S
C4109 C4110 1.398 1_565 S
C4110 H4098 0.950 . S
C4110 C4109 1.398 1_545 S
C4110 C4111 1.391 . S
C4111 H4099 0.950 . S
C4111 C4107 1.393 . S
C4111 C4110 1.391 . S
H4112 C4120 0.950 . S
H4113 C4125 0.950 . S
H4114 C4122 0.950 . S
H4115 C4124 0.950 . S
H4116 C4126 0.950 . S
H4117 C4128 0.950 . S
H4118 C4130 0.950 . S
H4119 C4131 0.950 . S
C4120 H4112 0.950 . S
C4120 C4121 1.386 . S
C4120 C4122 1.391 . S
C4121 C4120 1.386 . S
C4121 C4125 1.393 . S
C4122 H4114 0.950 . S
C4122 C4120 1.391 . S
C4122 C4123 1.400 . S
C4123 C4122 1.400 . S
C4123 C4124 1.398 . S
C4123 C4129 1.491 . S
C4124 H4115 0.950 . S
C4124 C4123 1.398 . S
C4124 C4125 1.391 . S
C4125 H4113 0.950 . S
C4125 C4121 1.393 . S
C4125 C4124 1.391 . S
C4126 H4116 0.950 . S
C4126 C4127 1.386 . S
C4126 C4128 1.391 . S
C4127 C4126 1.386 . S
C4127 C4131 1.393 . S
C4128 H4117 0.950 . S
C4128 C4126 1.391 . S
C4128 C4129 1.400 . S
C4129 C4123 1.491 . S
C4129 C4128 1.400 . S
C4129 C4130 1.398 . S
C4130 H4118 0.950 . S
C4130 C4129 1.398 . S
C4130 C4131 1.391 . S
C4131 H4119 0.950 . S
C4131 C4127 1.393 . S
C4131 C4130 1.391 . S
H4132 C4140 0.950 . S
H4133 C4145 0.950 . S
H4134 C4142 0.950 . S
H4135 C4144 0.950 . S
H4136 C4146 0.950 . S
H4137 C4148 0.950 . S
H4138 C4150 0.950 . S
H4139 C4151 0.950 . S
C4140 H4132 0.950 . S
C4140 C4141 1.386 . S
C4140 C4142 1.391 . S
C4141 C4140 1.386 . S
C4141 C4145 1.393 . S
C4142 H4134 0.950 . S
C4142 C4140 1.391 . S
C4142 C4143 1.400 . S
C4143 C4142 1.400 . S
C4143 C4144 1.398 . S
C4143 C4149 1.491 . S
C4144 H4135 0.950 . S
C4144 C4143 1.398 . S
C4144 C4145 1.391 . S
C4145 H4133 0.950 . S
C4145 C4141 1.393 . S
C4145 C4144 1.391 . S
C4146 H4136 0.950 . S
C4146 C4147 1.386 . S
C4146 C4148 1.391 . S
C4147 C4146 1.386 . S
C4147 C4151 1.393 . S
C4148 H4137 0.950 . S
C4148 C4146 1.391 . S
C4148 C4149 1.400 . S
C4149 C4143 1.491 . S
C4149 C4148 1.400 . S
C4149 C4150 1.398 . S
C4150 H4138 0.950 . S
C4150 C4149 1.398 . S
C4150 C4151 1.391 . S
C4151 H4139 0.950 . S
C4151 C4147 1.393 . S
C4151 C4150 1.391 . S
H4152 C4160 0.950 . S
H4153 C4165 0.950 . S
H4154 C4162 0.950 . S
H4155 C4164 0.950 . S
H4156 C4166 0.950 . S
H4157 C4168 0.950 . S
H4158 C4170 0.950 . S
H4159 C4171 0.950 . S
C4160 H4152 0.950 . S
C4160 C4161 1.386 . S
C4160 C4162 1.391 . S
C4161 C4160 1.386 . S
C4161 C4165 1.393 . S
C4162 H4154 0.950 . S
C4162 C4160 1.391 . S
C4162 C4163 1.400 . S
C4163 C4162 1.400 . S
C4163 C4164 1.398 . S
C4163 C4169 1.491 . S
C4164 H4155 0.950 . S
C4164 C4163 1.398 . S
C4164 C4165 1.391 . S
C4165 H4153 0.950 . S
C4165 C4161 1.393 . S
C4165 C4164 1.391 . S
C4166 H4156 0.950 . S
C4166 C4167 1.386 . S
C4166 C4168 1.391 . S
C4167 C4166 1.386 . S
C4167 C4171 1.393 . S
C4168 H4157 0.950 . S
C4168 C4166 1.391 . S
C4168 C4169 1.400 . S
C4169 C4163 1.491 . S
C4169 C4168 1.400 . S
C4169 C4170 1.398 . S
C4170 H4158 0.950 . S
C4170 C4169 1.398 . S
C4170 C4171 1.391 . S
C4171 H4159 0.950 . S
C4171 C4167 1.393 . S
C4171 C4170 1.391 . S
H4172 C4180 0.950 . S
H4173 C4185 0.950 . S
H4174 C4182 0.950 . S
H4175 C4184 0.950 . S
H4176 C4186 0.950 . S
H4177 C4188 0.950 . S
H4178 C4190 0.950 . S
H4179 C4191 0.950 . S
C4180 H4172 0.950 . S
C4180 C4181 1.386 . S
C4180 C4182 1.391 . S
C4181 C4180 1.386 . S
C4181 C4185 1.393 . S
C4182 H4174 0.950 . S
C4182 C4180 1.391 . S
C4182 C4183 1.400 . S
C4183 C4182 1.400 . S
C4183 C4184 1.398 . S
C4183 C4189 1.491 . S
C4184 H4175 0.950 . S
C4184 C4183 1.398 . S
C4184 C4185 1.391 . S
C4185 H4173 0.950 . S
C4185 C4181 1.393 . S
C4185 C4184 1.391 . S
C4186 H4176 0.950 . S
C4186 C4187 1.386 . S
C4186 C4188 1.391 . S
C4187 C4186 1.386 . S
C4187 C4191 1.393 . S
C4188 H4177 0.950 . S
C4188 C4186 1.391 . S
C4188 C4189 1.400 . S
C4189 C4183 1.491 . S
C4189 C4188 1.400 . S
C4189 C4190 1.398 . S
C4190 H4178 0.950 . S
C4190 C4189 1.398 . S
C4190 C4191 1.391 . S
C4191 H4179 0.950 . S
C4191 C4187 1.393 . S
C4191 C4190 1.391 . S
H4192 C4200 0.950 . S
H4193 C4205 0.950 . S
H4194 C4202 0.950 . S
H4195 C4204 0.950 . S
H4196 C4206 0.950 . S
H4197 C4208 0.950 . S
H4198 C4210 0.950 . S
H4199 C4211 0.950 . S
C4200 H4192 0.950 . S
C4200 C4201 1.386 . S
C4200 C4202 1.391 . S
C4201 C4200 1.386 . S
C4201 C4205 1.393 . S
C4202 H4194 0.950 . S
C4202 C4200 1.391 . S
C4202 C4203 1.400 . S
C4203 C4202 1.400 . S
C4203 C4204 1.398 . S
C4203 C4209 1.491 . S
C4204 H4195 0.950 . S
C4204 C4203 1.398 . S
C4204 C4205 1.391 . S
C4205 H4193 0.950 . S
C4205 C4201 1.393 . S
C4205 C4204 1.391 . S
C4206 H4196 0.950 . S
C4206 C4207 1.386 . S
C4206 C4208 1.391 . S
C4207 C4206 1.386 . S
C4207 C4211 1.393 . S
C4208 H4197 0.950 . S
C4208 C4206 1.391 . S
C4208 C4209 1.400 . S
C4209 C4203 1.491 . S
C4209 C4208 1.400 . S
C4209 C4210 1.398 . S
C4210 H4198 0.950 . S
C4210 C4209 1.398 . S
C4210 C4211 1.391 . S
C4211 H4199 0.950 . S
C4211 C4207 1.393 . S
C4211 C4210 1.391 . S
H4212 C4220 0.950 . S
H4213 C4225 0.950 . S
H4214 C4222 0.950 . S
H4215 C4224 0.950 . S
H4216 C4226 0.950 . S
H4217 C4228 0.950 . S
H4218 C4230 0.950 . S
H4219 C4231 0.950 . S
C4220 H4212 0.950 . S
C4220 C4221 1.386 . S
C4220 C4222 1.391 . S
C4221 C4220 1.386 . S
C4221 C4225 1.393 . S
C4222 H4214 0.950 . S
C4222 C4220 1.391 . S
C4222 C4223 1.400 . S
C4223 C4222 1.400 . S
C4223 C4224 1.398 . S
C4223 C4229 1.491 . S
C4224 H4215 0.950 . S
C4224 C4223 1.398 . S
C4224 C4225 1.391 . S
C4225 H4213 0.950 . S
C4225 C4221 1.393 . S
C4225 C4224 1.391 . S
C4226 H4216 0.950 . S
C4226 C4227 1.386 . S
C4226 C4228 1.391 . S
C4227 C4226 1.386 . S
C4227 C4231 1.393 . S
C4228 H4217 0.950 . S
C4228 C4226 1.391 . S
C4228 C4229 1.400 . S
C4229 C4223 1.491 . S
C4229 C4228 1.400 . S
C4229 C4230 1.398 . S
C4230 H4218 0.950 . S
C4230 C4229 1.398 . S
C4230 C4231 1.391 . S
C4231 H4219 0.950 . S
C4231 C4227 1.393 . S
C4231 C4230 1.391 . S
H4232 C4240 0.950 . S
H4233 C4245 0.950 . S
H4234 C4242 0.950 . S
H4235 C4244 0.950 . S
H4236 C4246 0.950 . S
H4237 C4248 0.950 . S
H4238 C4250 0.981 . S
H4239 C4251 0.950 1_556 S
C4240 H4232 0.950 . S
C4240 C4241 1.386 . S
C4240 C4242 1.391 . S
C4241 C4240 1.386 . S
C4241 C4245 1.393 . S
C4242 H4234 0.950 . S
C4242 C4240 1.391 . S
C4242 C4243 1.400 . S
C4243 C4242 1.400 . S
C4243 C4244 1.398 . S
C4243 C4249 1.491 . S
C4244 H4235 0.950 . S
C4244 C4243 1.398 . S
C4244 C4245 1.391 . S
C4245 H4233 0.950 . S
C4245 C4241 1.393 . S
C4245 C4244 1.391 . S
C4246 H4236 0.950 . S
C4246 C4247 1.386 . S
C4246 C4248 1.391 . S
C4247 C4246 1.386 . S
C4247 C4251 1.393 . S
C4248 H4237 0.950 . S
C4248 C4246 1.391 . S
C4248 C4249 1.400 . S
C4249 C4243 1.491 . S
C4249 C4248 1.400 . S
C4249 C4250 1.398 . S
C4250 H4238 0.981 . S
C4250 C4249 1.398 . S
C4250 C4251 1.391 . S
C4251 H4239 0.950 1_554 S
C4251 C4247 1.393 . S
C4251 C4250 1.391 . S
H4252 C4260 0.950 . S
H4253 C4265 0.950 . S
H4254 C4262 0.950 . S
H4255 C4264 0.950 . S
H4256 C4266 0.950 . S
H4257 C4268 0.950 . S
H4258 C4270 0.950 . S
H4259 C4271 0.950 . S
C4260 H4252 0.950 . S
C4260 C4261 1.386 . S
C4260 C4262 1.391 . S
C4261 C4260 1.386 . S
C4261 C4265 1.393 . S
C4262 H4254 0.950 . S
C4262 C4260 1.391 . S
C4262 C4263 1.400 . S
C4263 C4262 1.400 . S
C4263 C4264 1.398 . S
C4263 C4269 1.491 . S
C4264 H4255 0.950 . S
C4264 C4263 1.398 . S
C4264 C4265 1.391 . S
C4265 H4253 0.950 . S
C4265 C4261 1.393 . S
C4265 C4264 1.391 . S
C4266 H4256 0.950 . S
C4266 C4267 1.386 . S
C4266 C4268 1.391 . S
C4267 C4266 1.386 . S
C4267 C4271 1.393 . S
C4268 H4257 0.950 . S
C4268 C4266 1.391 . S
C4268 C4269 1.400 . S
C4269 C4263 1.491 . S
C4269 C4268 1.400 . S
C4269 C4270 1.398 . S
C4270 H4258 0.950 . S
C4270 C4269 1.398 . S
C4270 C4271 1.391 . S
C4271 H4259 0.950 . S
C4271 C4267 1.393 . S
C4271 C4270 1.391 . S
H4272 C4280 0.950 . S
H4273 C4285 0.950 . S
H4274 C4282 0.950 . S
H4275 C4284 0.950 . S
H4276 C4286 0.950 . S
H4277 C4288 0.950 . S
H4278 C4290 0.950 . S
H4279 C4291 0.950 . S
C4280 H4272 0.950 . S
C4280 C4281 1.386 . S
C4280 C4282 1.391 . S
C4281 C4280 1.386 . S
C4281 C4285 1.393 . S
C4282 H4274 0.950 . S
C4282 C4280 1.391 . S
C4282 C4283 1.400 . S
C4283 C4282 1.400 . S
C4283 C4284 1.398 . S
C4283 C4289 1.491 . S
C4284 H4275 0.950 . S
C4284 C4283 1.398 . S
C4284 C4285 1.391 . S
C4285 H4273 0.950 . S
C4285 C4281 1.393 . S
C4285 C4284 1.391 . S
C4286 H4276 0.950 . S
C4286 C4287 1.386 . S
C4286 C4288 1.391 . S
C4287 C4286 1.386 . S
C4287 C4291 1.393 . S
C4288 H4277 0.950 . S
C4288 C4286 1.391 . S
C4288 C4289 1.400 . S
C4289 C4283 1.491 . S
C4289 C4288 1.400 . S
C4289 C4290 1.398 . S
C4290 H4278 0.950 . S
C4290 C4289 1.398 . S
C4290 C4291 1.391 . S
C4291 H4279 0.950 . S
C4291 C4287 1.393 . S
C4291 C4290 1.391 . S
H4292 C4300 0.950 . S
H4293 C4305 0.950 . S
H4294 C4302 0.950 . S
H4295 C4304 0.950 . S
H4296 C4306 0.950 . S
H4297 C4308 0.950 . S
H4298 C4310 0.950 . S
H4299 C4311 0.950 . S
C4300 H4292 0.950 . S
C4300 C4301 1.386 . S
C4300 C4302 1.391 . S
C4301 C4300 1.386 . S
C4301 C4305 1.393 . S
C4302 H4294 0.950 . S
C4302 C4300 1.391 . S
C4302 C4303 1.400 . S
C4303 C4302 1.400 . S
C4303 C4304 1.398 . S
C4303 C4309 1.491 . S
C4304 H4295 0.950 . S
C4304 C4303 1.398 . S
C4304 C4305 1.391 . S
C4305 H4293 0.950 . S
C4305 C4301 1.393 . S
C4305 C4304 1.391 . S
C4306 H4296 0.950 . S
C4306 C4307 1.386 . S
C4306 C4308 1.391 . S
C4307 C4306 1.386 . S
C4307 C4311 1.393 . S
C4308 H4297 0.950 . S
C4308 C4306 1.391 . S
C4308 C4309 1.400 . S
C4309 C4303 1.491 . S
C4309 C4308 1.400 . S
C4309 C4310 1.398 . S
C4310 H4298 0.950 . S
C4310 C4309 1.398 . S
C4310 C4311 1.391 . S
C4311 H4299 0.950 . S
C4311 C4307 1.393 . S
C4311 C4310 1.391 . S
H4312 C4320 0.950 . S
H4313 C4325 0.950 . S
H4314 C4322 0.950 . S
H4315 C4324 0.950 . S
H4316 C4326 0.950 . S
H4317 C4328 0.950 . S
H4318 C4330 0.950 . S
H4319 C4331 0.950 . S
C4320 H4312 0.950 . S
C4320 C4321 1.386 . S
C4320 C4322 1.391 . S
C4321 C4320 1.386 . S
C4321 C4325 1.393 . S
C4322 H4314 0.950 . S
C4322 C4320 1.391 . S
C4322 C4323 1.400 . S
C4323 C4322 1.400 . S
C4323 C4324 1.398 . S
C4323 C4329 1.491 . S
C4324 H4315 0.950 . S
C4324 C4323 1.398 . S
C4324 C4325 1.391 . S
C4325 H4313 0.950 . S
C4325 C4321 1.393 . S
C4325 C4324 1.391 . S
C4326 H4316 0.950 . S
C4326 C4327 1.386 . S
C4326 C4328 1.391 . S
C4327 C4326 1.386 . S
C4327 C4331 1.393 . S
C4328 H4317 0.950 . S
C4328 C4326 1.391 . S
C4328 C4329 1.400 . S
C4329 C4323 1.491 . S
C4329 C4328 1.400 . S
C4329 C4330 1.398 . S
C4330 H4318 0.950 . S
C4330 C4329 1.398 . S
C4330 C4331 1.391 . S
C4331 H4319 0.950 . S
C4331 C4327 1.393 . S
C4331 C4330 1.391 . S
H4332 C4340 0.950 . S
H4333 C4345 0.950 . S
H4334 C4342 0.950 . S
H4335 C4344 0.950 . S
H4336 C4346 0.950 . S
H4337 C4348 0.950 . S
H4338 C4350 0.950 . S
H4339 C4351 0.950 . S
C4340 H4332 0.950 . S
C4340 C4341 1.386 . S
C4340 C4342 1.391 . S
C4341 C4340 1.386 . S
C4341 C4345 1.393 . S
C4342 H4334 0.950 . S
C4342 C4340 1.391 . S
C4342 C4343 1.400 . S
C4343 C4342 1.400 . S
C4343 C4344 1.398 . S
C4343 C4349 1.491 . S
C4344 H4335 0.950 . S
C4344 C4343 1.398 . S
C4344 C4345 1.391 . S
C4345 H4333 0.950 . S
C4345 C4341 1.393 . S
C4345 C4344 1.391 . S
C4346 H4336 0.950 . S
C4346 C4347 1.386 . S
C4346 C4348 1.391 . S
C4347 C4346 1.386 . S
C4347 C4351 1.393 . S
C4348 H4337 0.950 . S
C4348 C4346 1.391 . S
C4348 C4349 1.400 . S
C4349 C4343 1.491 . S
C4349 C4348 1.400 . S
C4349 C4350 1.398 . S
C4350 H4338 0.950 . S
C4350 C4349 1.398 . S
C4350 C4351 1.391 . S
C4351 H4339 0.950 . S
C4351 C4347 1.393 . S
C4351 C4350 1.391 . S
H4352 C4360 0.950 . S
H4353 C4365 0.950 . S
H4354 C4362 0.950 . S
H4355 C4364 0.950 . S
H4356 C4366 0.950 . S
H4357 C4368 0.950 . S
H4358 C4370 0.950 . S
H4359 C4371 0.950 . S
C4360 H4352 0.950 . S
C4360 C4361 1.386 . S
C4360 C4362 1.391 . S
C4361 C4360 1.386 . S
C4361 C4365 1.393 . S
C4362 H4354 0.950 . S
C4362 C4360 1.391 . S
C4362 C4363 1.400 . S
C4363 C4362 1.400 . S
C4363 C4364 1.398 . S
C4363 C4369 1.491 . S
C4364 H4355 0.950 . S
C4364 C4363 1.398 . S
C4364 C4365 1.391 . S
C4365 H4353 0.950 . S
C4365 C4361 1.393 . S
C4365 C4364 1.391 . S
C4366 H4356 0.950 . S
C4366 C4367 1.386 . S
C4366 C4368 1.391 . S
C4367 C4366 1.386 . S
C4367 C4371 1.393 . S
C4368 H4357 0.950 . S
C4368 C4366 1.391 . S
C4368 C4369 1.400 . S
C4369 C4363 1.491 . S
C4369 C4368 1.400 . S
C4369 C4370 1.398 . S
C4370 H4358 0.950 . S
C4370 C4369 1.398 . S
C4370 C4371 1.391 . S
C4371 H4359 0.950 . S
C4371 C4367 1.393 . S
C4371 C4370 1.391 . S
H4372 C4380 0.950 . S
H4373 C4385 0.950 . S
H4374 C4382 0.950 . S
H4375 C4384 0.950 . S
H4376 C4386 0.950 . S
H4377 C4388 0.950 . S
H4378 C4390 0.950 . S
H4379 C4391 0.950 . S
C4380 H4372 0.950 . S
C4380 C4381 1.386 . S
C4380 C4382 1.391 . S
C4381 C4380 1.386 . S
C4381 C4385 1.393 . S
C4382 H4374 0.950 . S
C4382 C4380 1.391 . S
C4382 C4383 1.400 . S
C4383 C4382 1.400 . S
C4383 C4384 1.398 . S
C4383 C4389 1.491 . S
C4384 H4375 0.950 . S
C4384 C4383 1.398 . S
C4384 C4385 1.391 . S
C4385 H4373 0.950 . S
C4385 C4381 1.393 . S
C4385 C4384 1.391 . S
C4386 H4376 0.950 . S
C4386 C4387 1.386 . S
C4386 C4388 1.391 . S
C4387 C4386 1.386 . S
C4387 C4391 1.393 . S
C4388 H4377 0.950 . S
C4388 C4386 1.391 . S
C4388 C4389 1.400 . S
C4389 C4383 1.491 . S
C4389 C4388 1.400 . S
C4389 C4390 1.398 . S
C4390 H4378 0.950 . S
C4390 C4389 1.398 . S
C4390 C4391 1.391 . S
C4391 H4379 0.950 . S
C4391 C4387 1.393 . S
C4391 C4390 1.391 . S
H4392 C4400 0.950 . S
H4393 C4405 0.950 . S
H4394 C4402 0.950 . S
H4395 C4404 0.950 . S
H4396 C4406 0.950 . S
H4397 C4408 0.932 1_455 S
H4398 C4410 0.950 . S
H4399 C4411 0.950 . S
C4400 H4392 0.950 . S
C4400 C4401 1.386 . S
C4400 C4402 1.391 . S
C4401 C4400 1.386 . S
C4401 C4405 1.393 . S
C4402 H4394 0.950 . S
C4402 C4400 1.391 . S
C4402 C4403 1.400 . S
C4403 C4402 1.400 . S
C4403 C4404 1.398 . S
C4403 C4409 1.491 . S
C4404 H4395 0.950 . S
C4404 C4403 1.398 . S
C4404 C4405 1.391 . S
C4405 H4393 0.950 . S
C4405 C4401 1.393 . S
C4405 C4404 1.391 . S
C4406 H4396 0.950 . S
C4406 C4407 1.386 . S
C4406 C4408 1.391 1_455 S
C4407 C4406 1.386 . S
C4407 C4411 1.393 1_455 S
C4408 H4397 0.932 1_655 S
C4408 C4406 1.391 1_655 S
C4408 C4409 1.400 . S
C4409 C4403 1.491 . S
C4409 C4408 1.400 . S
C4409 C4410 1.398 . S
C4410 H4398 0.950 . S
C4410 C4409 1.398 . S
C4410 C4411 1.391 . S
C4411 H4399 0.950 . S
C4411 C4407 1.393 1_655 S
C4411 C4410 1.391 . S
H4412 C4420 0.950 . S
H4413 C4425 0.950 . S
H4414 C4422 0.950 . S
H4415 C4424 0.950 . S
H4416 C4426 0.950 . S
H4417 C4428 0.950 . S
H4418 C4430 0.950 . S
H4419 C4431 0.950 . S
C4420 H4412 0.950 . S
C4420 C4421 1.386 . S
C4420 C4422 1.391 . S
C4421 C4420 1.386 . S
C4421 C4425 1.393 . S
C4422 H4414 0.950 . S
C4422 C4420 1.391 . S
C4422 C4423 1.400 . S
C4423 C4422 1.400 . S
C4423 C4424 1.398 . S
C4423 C4429 1.491 . S
C4424 H4415 0.950 . S
C4424 C4423 1.398 . S
C4424 C4425 1.391 . S
C4425 H4413 0.950 . S
C4425 C4421 1.393 . S
C4425 C4424 1.391 . S
C4426 H4416 0.950 . S
C4426 C4427 1.386 . S
C4426 C4428 1.391 . S
C4427 C4426 1.386 . S
C4427 C4431 1.393 . S
C4428 H4417 0.950 . S
C4428 C4426 1.391 . S
C4428 C4429 1.400 . S
C4429 C4423 1.491 . S
C4429 C4428 1.400 . S
C4429 C4430 1.398 . S
C4430 H4418 0.950 . S
C4430 C4429 1.398 . S
C4430 C4431 1.391 . S
C4431 H4419 0.950 . S
C4431 C4427 1.393 . S
C4431 C4430 1.391 . S
H4432 C4440 0.950 . S
H4433 C4445 0.950 . S
H4434 C4442 0.950 . S
H4435 C4444 0.950 . S
H4436 C4446 0.950 . S
H4437 C4448 0.950 . S
H4438 C4450 0.950 . S
H4439 C4451 0.950 . S
C4440 H4432 0.950 . S
C4440 C4441 1.386 . S
C4440 C4442 1.391 . S
C4441 C4440 1.386 . S
C4441 C4445 1.393 . S
C4442 H4434 0.950 . S
C4442 C4440 1.391 . S
C4442 C4443 1.400 . S
C4443 C4442 1.400 . S
C4443 C4444 1.398 . S
C4443 C4449 1.491 . S
C4444 H4435 0.950 . S
C4444 C4443 1.398 . S
C4444 C4445 1.391 . S
C4445 H4433 0.950 . S
C4445 C4441 1.393 . S
C4445 C4444 1.391 . S
C4446 H4436 0.950 . S
C4446 C4447 1.386 . S
C4446 C4448 1.391 . S
C4447 C4446 1.386 . S
C4447 C4451 1.393 . S
C4448 H4437 0.950 . S
C4448 C4446 1.391 . S
C4448 C4449 1.400 . S
C4449 C4443 1.491 . S
C4449 C4448 1.400 . S
C4449 C4450 1.398 . S
C4450 H4438 0.950 . S
C4450 C4449 1.398 . S
C4450 C4451 1.391 . S
C4451 H4439 0.950 . S
C4451 C4447 1.393 . S
C4451 C4450 1.391 . S
H4452 C4460 0.950 . S
H4453 C4465 0.950 . S
H4454 C4462 0.950 . S
H4455 C4464 0.950 . S
H4456 C4466 0.950 . S
H4457 C4468 0.950 . S
H4458 C4470 0.950 . S
H4459 C4471 0.950 . S
C4460 H4452 0.950 . S
C4460 C4461 1.386 . S
C4460 C4462 1.391 . S
C4461 C4460 1.386 . S
C4461 C4465 1.393 . S
C4462 H4454 0.950 . S
C4462 C4460 1.391 . S
C4462 C4463 1.400 . S
C4463 C4462 1.400 . S
C4463 C4464 1.398 . S
C4463 C4469 1.491 . S
C4464 H4455 0.950 . S
C4464 C4463 1.398 . S
C4464 C4465 1.391 . S
C4465 H4453 0.950 . S
C4465 C4461 1.393 . S
C4465 C4464 1.391 . S
C4466 H4456 0.950 . S
C4466 C4467 1.386 . S
C4466 C4468 1.391 . S
C4467 C4466 1.386 . S
C4467 C4471 1.393 . S
C4468 H4457 0.950 . S
C4468 C4466 1.391 . S
C4468 C4469 1.400 . S
C4469 C4463 1.491 . S
C4469 C4468 1.400 . S
C4469 C4470 1.398 . S
C4470 H4458 0.950 . S
C4470 C4469 1.398 . S
C4470 C4471 1.391 . S
C4471 H4459 0.950 . S
C4471 C4467 1.393 . S
C4471 C4470 1.391 . S
H4472 C4480 0.950 . S
H4473 C4485 0.950 . S
H4474 C4482 0.950 . S
H4475 C4484 0.950 . S
H4476 C4486 0.950 . S
H4477 C4488 0.950 . S
H4478 C4490 0.950 . S
H4479 C4491 0.950 . S
C4480 H4472 0.950 . S
C4480 C4481 1.386 . S
C4480 C4482 1.391 . S
C4481 C4480 1.386 . S
C4481 C4485 1.393 . S
C4482 H4474 0.950 . S
C4482 C4480 1.391 . S
C4482 C4483 1.400 . S
C4483 C4482 1.400 . S
C4483 C4484 1.398 . S
C4483 C4489 1.491 . S
C4484 H4475 0.950 . S
C4484 C4483 1.398 . S
C4484 C4485 1.391 . S
C4485 H4473 0.950 . S
C4485 C4481 1.393 . S
C4485 C4484 1.391 . S
C4486 H4476 0.950 . S
C4486 C4487 1.386 . S
C4486 C4488 1.391 . S
C4487 C4486 1.386 . S
C4487 C4491 1.393 . S
C4488 H4477 0.950 . S
C4488 C4486 1.391 . S
C4488 C4489 1.400 . S
C4489 C4483 1.491 . S
C4489 C4488 1.400 . S
C4489 C4490 1.398 . S
C4490 H4478 0.950 . S
C4490 C4489 1.398 . S
C4490 C4491 1.391 . S
C4491 H4479 0.950 . S
C4491 C4487 1.393 . S
C4491 C4490 1.391 . S
H4492 C4500 0.950 . S
H4493 C4505 0.950 . S
H4494 C4502 0.950 . S
H4495 C4504 0.950 . S
H4496 C4506 0.950 . S
H4497 C4508 0.950 . S
H4498 C4510 0.950 . S
H4499 C4511 0.950 . S
C4500 H4492 0.950 . S
C4500 C4501 1.386 . S
C4500 C4502 1.391 . S
C4501 C4500 1.386 . S
C4501 C4505 1.393 . S
C4502 H4494 0.950 . S
C4502 C4500 1.391 . S
C4502 C4503 1.400 . S
C4503 C4502 1.400 . S
C4503 C4504 1.398 . S
C4503 C4509 1.491 . S
C4504 H4495 0.950 . S
C4504 C4503 1.398 . S
C4504 C4505 1.391 . S
C4505 H4493 0.950 . S
C4505 C4501 1.393 . S
C4505 C4504 1.391 . S
C4506 H4496 0.950 . S
C4506 C4507 1.386 . S
C4506 C4508 1.391 . S
C4507 C4506 1.386 . S
C4507 C4511 1.393 . S
C4508 H4497 0.950 . S
C4508 C4506 1.391 . S
C4508 C4509 1.400 . S
C4509 C4503 1.491 . S
C4509 C4508 1.400 . S
C4509 C4510 1.398 . S
C4510 H4498 0.950 . S
C4510 C4509 1.398 . S
C4510 C4511 1.391 . S
C4511 H4499 0.950 . S
C4511 C4507 1.393 . S
C4511 C4510 1.391 . S
H4512 C4520 0.950 . S
H4513 C4525 0.950 . S
H4514 C4522 0.950 . S
H4515 C4524 0.950 . S
H4516 C4526 0.950 . S
H4517 C4528 0.950 . S
H4518 C4530 0.950 . S
H4519 C4531 0.950 . S
C4520 H4512 0.950 . S
C4520 C4521 1.386 . S
C4520 C4522 1.391 . S
C4521 C4520 1.386 . S
C4521 C4525 1.393 . S
C4522 H4514 0.950 . S
C4522 C4520 1.391 . S
C4522 C4523 1.400 . S
C4523 C4522 1.400 . S
C4523 C4524 1.398 . S
C4523 C4529 1.491 . S
C4524 H4515 0.950 . S
C4524 C4523 1.398 . S
C4524 C4525 1.391 . S
C4525 H4513 0.950 . S
C4525 C4521 1.393 . S
C4525 C4524 1.391 . S
C4526 H4516 0.950 . S
C4526 C4527 1.386 . S
C4526 C4528 1.391 . S
C4527 C4526 1.386 . S
C4527 C4531 1.393 . S
C4528 H4517 0.950 . S
C4528 C4526 1.391 . S
C4528 C4529 1.400 . S
C4529 C4523 1.491 . S
C4529 C4528 1.400 . S
C4529 C4530 1.398 . S
C4530 H4518 0.950 . S
C4530 C4529 1.398 . S
C4530 C4531 1.391 . S
C4531 H4519 0.950 . S
C4531 C4527 1.393 . S
C4531 C4530 1.391 . S
H4532 C4540 0.950 . S
H4533 C4545 0.950 . S
H4534 C4542 0.950 . S
H4535 C4544 0.950 . S
H4536 C4546 0.950 . S
H4537 C4548 0.962 . S
H4538 C4550 0.950 . S
H4539 C4551 0.950 . S
C4540 H4532 0.950 . S
C4540 C4541 1.386 . S
C4540 C4542 1.391 . S
C4541 C4540 1.386 . S
C4541 C4545 1.393 . S
C4542 H4534 0.950 . S
C4542 C4540 1.391 . S
C4542 C4543 1.400 . S
C4543 C4542 1.400 . S
C4543 C4544 1.398 . S
C4543 C4549 1.491 . S
C4544 H4535 0.950 . S
C4544 C4543 1.398 . S
C4544 C4545 1.391 . S
C4545 H4533 0.950 . S
C4545 C4541 1.393 . S
C4545 C4544 1.391 . S
C4546 H4536 0.950 . S
C4546 C4547 1.386 . S
C4546 C4548 1.391 1_545 S
C4547 C4546 1.386 . S
C4547 C4551 1.393 1_545 S
C4548 H4537 0.962 . S
C4548 C4546 1.391 1_565 S
C4548 C4549 1.400 . S
C4549 C4543 1.491 . S
C4549 C4548 1.400 . S
C4549 C4550 1.398 . S
C4550 H4538 0.950 . S
C4550 C4549 1.398 . S
C4550 C4551 1.391 . S
C4551 H4539 0.950 . S
C4551 C4547 1.393 1_565 S
C4551 C4550 1.391 . S
H4552 C4560 0.950 . S
H4553 C4565 0.950 . S
H4554 C4562 0.950 . S
H4555 C4564 0.950 . S
H4556 C4566 0.950 . S
H4557 C4568 0.950 . S
H4558 C4570 0.950 . S
H4559 C4571 0.950 . S
C4560 H4552 0.950 . S
C4560 C4561 1.386 . S
C4560 C4562 1.391 . S
C4561 C4560 1.386 . S
C4561 C4565 1.393 . S
C4562 H4554 0.950 . S
C4562 C4560 1.391 . S
C4562 C4563 1.400 . S
C4563 C4562 1.400 . S
C4563 C4564 1.398 . S
C4563 C4569 1.491 . S
C4564 H4555 0.950 . S
C4564 C4563 1.398 . S
C4564 C4565 1.391 . S
C4565 H4553 0.950 . S
C4565 C4561 1.393 . S
C4565 C4564 1.391 . S
C4566 H4556 0.950 . S
C4566 C4567 1.386 . S
C4566 C4568 1.391 . S
C4567 C4566 1.386 . S
C4567 C4571 1.393 . S
C4568 H4557 0.950 . S
C4568 C4566 1.391 . S
C4568 C4569 1.400 . S
C4569 C4563 1.491 . S
C4569 C4568 1.400 . S
C4569 C4570 1.398 . S
C4570 H4558 0.950 . S
C4570 C4569 1.398 . S
C4570 C4571 1.391 . S
C4571 H4559 0.950 . S
C4571 C4567 1.393 . S
C4571 C4570 1.391 . S
H4572 C4580 0.950 . S
H4573 C4585 0.950 . S
H4574 C4582 0.950 . S
H4575 C4584 0.950 . S
H4576 C4586 0.950 . S
H4577 C4588 0.950 . S
H4578 C4590 0.950 . S
H4579 C4591 0.950 . S
C4580 H4572 0.950 . S
C4580 C4581 1.386 . S
C4580 C4582 1.391 . S
C4581 C4580 1.386 . S
C4581 C4585 1.393 . S
C4582 H4574 0.950 . S
C4582 C4580 1.391 . S
C4582 C4583 1.400 . S
C4583 C4582 1.400 . S
C4583 C4584 1.398 . S
C4583 C4589 1.491 . S
C4584 H4575 0.950 . S
C4584 C4583 1.398 . S
C4584 C4585 1.391 . S
C4585 H4573 0.950 . S
C4585 C4581 1.393 . S
C4585 C4584 1.391 . S
C4586 H4576 0.950 . S
C4586 C4587 1.386 . S
C4586 C4588 1.391 . S
C4587 C4586 1.386 . S
C4587 C4591 1.393 . S
C4588 H4577 0.950 . S
C4588 C4586 1.391 . S
C4588 C4589 1.400 . S
C4589 C4583 1.491 . S
C4589 C4588 1.400 . S
C4589 C4590 1.398 . S
C4590 H4578 0.950 . S
C4590 C4589 1.398 . S
C4590 C4591 1.391 . S
C4591 H4579 0.950 . S
C4591 C4587 1.393 . S
C4591 C4590 1.391 . S
H4592 C4600 0.950 . S
H4593 C4605 0.950 . S
H4594 C4602 0.950 . S
H4595 C4604 0.950 . S
H4596 C4606 0.950 . S
H4597 C4608 0.950 . S
H4598 C4610 0.950 . S
H4599 C4611 0.950 . S
C4600 H4592 0.950 . S
C4600 C4601 1.386 . S
C4600 C4602 1.391 . S
C4601 C4600 1.386 . S
C4601 C4605 1.393 . S
C4602 H4594 0.950 . S
C4602 C4600 1.391 . S
C4602 C4603 1.400 . S
C4603 C4602 1.400 . S
C4603 C4604 1.398 . S
C4603 C4609 1.491 . S
C4604 H4595 0.950 . S
C4604 C4603 1.398 . S
C4604 C4605 1.391 . S
C4605 H4593 0.950 . S
C4605 C4601 1.393 . S
C4605 C4604 1.391 . S
C4606 H4596 0.950 . S
C4606 C4607 1.386 . S
C4606 C4608 1.391 . S
C4607 C4606 1.386 . S
C4607 C4611 1.393 . S
C4608 H4597 0.950 . S
C4608 C4606 1.391 . S
C4608 C4609 1.400 . S
C4609 C4603 1.491 . S
C4609 C4608 1.400 . S
C4609 C4610 1.398 . S
C4610 H4598 0.950 . S
C4610 C4609 1.398 . S
C4610 C4611 1.391 . S
C4611 H4599 0.950 . S
C4611 C4607 1.393 . S
C4611 C4610 1.391 . S
H4612 C4620 0.950 . S
H4613 C4625 0.950 . S
H4614 C4622 0.950 . S
H4615 C4624 0.950 . S
H4616 C4626 0.950 . S
H4617 C4628 0.950 . S
H4618 C4630 0.950 . S
H4619 C4631 0.950 . S
C4620 H4612 0.950 . S
C4620 C4621 1.386 . S
C4620 C4622 1.391 . S
C4621 C4620 1.386 . S
C4621 C4625 1.393 . S
C4622 H4614 0.950 . S
C4622 C4620 1.391 . S
C4622 C4623 1.400 . S
C4623 C4622 1.400 . S
C4623 C4624 1.398 . S
C4623 C4629 1.491 . S
C4624 H4615 0.950 . S
C4624 C4623 1.398 . S
C4624 C4625 1.391 . S
C4625 H4613 0.950 . S
C4625 C4621 1.393 . S
C4625 C4624 1.391 . S
C4626 H4616 0.950 . S
C4626 C4627 1.386 . S
C4626 C4628 1.391 . S
C4627 C4626 1.386 . S
C4627 C4631 1.393 1_556 S
C4628 H4617 0.950 . S
C4628 C4626 1.391 . S
C4628 C4629 1.400 1_556 S
C4629 C4623 1.491 . S
C4629 C4628 1.400 1_554 S
C4629 C4630 1.398 . S
C4630 H4618 0.950 . S
C4630 C4629 1.398 . S
C4630 C4631 1.391 . S
C4631 H4619 0.950 . S
C4631 C4627 1.393 1_554 S
C4631 C4630 1.391 . S
H4632 C4640 0.950 . S
H4633 C4645 0.950 . S
H4634 C4642 0.950 . S
H4635 C4644 0.950 . S
H4636 C4646 0.950 . S
H4637 C4648 0.950 . S
H4638 C4650 0.950 . S
H4639 C4651 0.950 . S
C4640 H4632 0.950 . S
C4640 C4641 1.386 . S
C4640 C4642 1.391 . S
C4641 C4640 1.386 . S
C4641 C4645 1.393 . S
C4642 H4634 0.950 . S
C4642 C4640 1.391 . S
C4642 C4643 1.400 . S
C4643 C4642 1.400 . S
C4643 C4644 1.398 . S
C4643 C4649 1.491 . S
C4644 H4635 0.950 . S
C4644 C4643 1.398 . S
C4644 C4645 1.391 . S
C4645 H4633 0.950 . S
C4645 C4641 1.393 . S
C4645 C4644 1.391 . S
C4646 H4636 0.950 . S
C4646 C4647 1.386 . S
C4646 C4648 1.391 . S
C4647 C4646 1.386 . S
C4647 C4651 1.393 . S
C4648 H4637 0.950 . S
C4648 C4646 1.391 . S
C4648 C4649 1.400 . S
C4649 C4643 1.491 . S
C4649 C4648 1.400 . S
C4649 C4650 1.398 . S
C4650 H4638 0.950 . S
C4650 C4649 1.398 . S
C4650 C4651 1.391 . S
C4651 H4639 0.950 . S
C4651 C4647 1.393 . S
C4651 C4650 1.391 . S
H4652 C4660 0.950 . S
H4653 C4665 0.950 . S
H4654 C4662 0.950 . S
H4655 C4664 0.950 . S
H4656 C4666 0.950 . S
H4657 C4668 0.950 . S
H4658 C4670 0.950 . S
H4659 C4671 0.950 . S
C4660 H4652 0.950 . S
C4660 C4661 1.386 . S
C4660 C4662 1.391 . S
C4661 C4660 1.386 . S
C4661 C4665 1.393 . S
C4662 H4654 0.950 . S
C4662 C4660 1.391 . S
C4662 C4663 1.400 . S
C4663 C4662 1.400 . S
C4663 C4664 1.398 . S
C4663 C4669 1.491 . S
C4664 H4655 0.950 . S
C4664 C4663 1.398 . S
C4664 C4665 1.391 . S
C4665 H4653 0.950 . S
C4665 C4661 1.393 . S
C4665 C4664 1.391 . S
C4666 H4656 0.950 . S
C4666 C4667 1.386 . S
C4666 C4668 1.391 . S
C4667 C4666 1.386 . S
C4667 C4671 1.393 . S
C4668 H4657 0.950 . S
C4668 C4666 1.391 . S
C4668 C4669 1.400 . S
C4669 C4663 1.491 . S
C4669 C4668 1.400 . S
C4669 C4670 1.398 . S
C4670 H4658 0.950 . S
C4670 C4669 1.398 . S
C4670 C4671 1.391 . S
C4671 H4659 0.950 . S
C4671 C4667 1.393 . S
C4671 C4670 1.391 . S
C2761 C665 2.080 1_554 S
C2767 C2125 2.132 . S
C2781 C381 2.011 . S
C2787 C2176 2.018 . S
C2801 C460 1.535 . S
C2807 C2205 1.614 . S
C2827 C2249 1.417 . S
C2821 C585 1.463 . S
C2841 C108 1.333 . S
C2847 C2289 1.304 . S
C2867 C2325 1.561 . S
C2861 C196 1.521 . S
C2887 C2375 1.714 . S
C2881 C313 1.714 . S
C2901 C49 2.226 . S
C2907 C2405 2.249 . S
C2927 C2135 1.818 . S
C2921 C1457 1.847 . S
C2941 C1545 0.316 . S
C2947 C2178 0.447 . S
C2967 C2215 1.129 . S
C2961 C1721 1.134 . S
C2987 C2245 1.459 . S
C2981 C1113 1.424 . S
C3001 C1428 1.451 . S
C3007 C2285 1.493 . S
C3027 C2335 0.829 . S
C3021 C1516 0.820 . S
C3047 C2369 0.671 . S
C3041 C1692 0.669 . S
C3067 C2415 1.821 . S
C3061 C1085 1.849 . S
C3087 C2129 0.977 1_565 S
C3081 C988 0.996 . S
C3101 C1817 1.634 . S
C3107 C2455 1.618 . S
C3127 C2489 1.344 . S
C3121 C2081 1.379 . S
C3147 C2525 0.804 . S
C3141 C1993 0.809 . S
C3161 C761 1.339 . S
C3167 C2409 1.321 . S
C3181 C821 1.454 . S
C3187 C2209 1.410 . S
C3201 C2053 1.557 . S
C3207 C2575 1.543 . S
C3227 C2594 0.259 . S
C3221 C1868 0.294 . S
C3247 C2136 2.134 . S
C3241 C372 2.083 . S
C3267 C2605 2.009 . S
C3261 C645 2.015 . S
C3281 C577 1.542 . S
C3287 C2216 1.604 . S
C3301 C497 1.460 . S
C3307 C2578 1.408 . S
C3327 C2298 1.299 . S
C3321 C57 1.330 . S
C3341 C293 1.505 . S
C3347 C2496 1.561 . S
C3367 C2354 1.712 1_556 S
C3361 C205 1.708 . S
C3387 C2656 2.241 . S
C3381 C145 2.221 . S
C3407 C2114 1.804 . S
C3401 C909 1.834 . S
C3427 C2609 0.429 . S
C3421 C1956 0.303 . S
C3441 C724 1.130 . S
C3447 C2194 1.117 . S
C3461 C1780 1.404 . S
C3467 C2576 1.449 . S
C3481 C937 1.438 . S
C3487 C2296 1.487 . S
C3507 C2474 0.827 . S
C3501 C1985 0.832 . S
C3521 C753 0.657 . S
C3527 C2378 0.686 . S
C3541 C1809 1.838 . S
C3547 C2634 1.812 . S
C3561 C1173 0.980 . S
C3567 C2138 0.951 . S
C3581 C1105 1.628 . S
C3587 C2434 1.609 . S
C3601 C1633 1.374 . S
C3607 C2338 1.328 . S
C3621 C1553 0.807 . S
C3627 C2536 0.796 . S
C3647 C2658 1.312 . S
C3641 C1729 1.351 . S
C3661 C1340 1.447 . S
C3667 C2218 1.392 . S
C3687 C2234 1.545 . S
C3681 C1604 1.548 . S
C3707 C2175 0.229 . S
C3701 C1252 0.326 . S
C3721 C489 2.081 . S
C3727 C2685 2.134 . S
C3747 C2616 2.018 . S
C3741 C557 2.012 . S
C3761 C636 1.535 . S
C3767 C2725 1.615 . S
C3781 C409 1.468 . S
C3787 C2569 1.433 . S
C3801 C284 1.331 . S
C3807 C2449 1.297 . S
C3827 C2485 1.567 . S
C3821 C20 1.518 . S
C3847 C2535 1.722 . S
C3841 C137 1.705 . S
C3867 C2645 2.247 . S
C3861 C225 2.225 . S
C3887 C2695 1.821 . S
C3881 C1641 1.844 . S
C3901 C1193 0.300 . S
C3907 C2618 0.384 . S
C3927 C2735 1.114 . S
C3921 C1289 1.133 . S
C3947 C2565 1.454 . S
C3941 C1377 1.420 . S
C3967 C2445 1.486 . S
C3961 C1613 1.455 . S
C3981 C1164 0.823 . S
C3987 C2495 0.809 . S
C4007 C2529 0.693 . S
C4001 C1261 0.676 . S
C4021 C1349 1.854 . S
C4027 C2655 1.831 . S
C4047 C2689 0.985 . S
C4041 C1965 1.006 . S
C4061 C849 1.628 . S
C4067 C2295 1.618 . S
C4087 C2329 1.332 . S
C4081 C929 1.373 . S
C4107 C2365 0.801 . S
C4101 C1017 0.812 . S
C4127 C2649 1.329 . S
C4121 C1897 1.349 . S
C4141 C1789 1.440 . S
C4147 C2729 1.382 . S
C4167 C2255 1.538 . S
C4161 C900 1.557 . S
C4187 C2154 0.249 . S
C4181 C733 0.326 . S
C4201 C548 2.085 . S
C4207 C2696 2.126 . S
C4227 C2165 2.012 . S
C4221 C469 1.999 . S
C4241 C401 1.542 . S
C4247 C2736 1.603 . S
C4261 C673 1.464 . S
C4267 C2258 1.415 . S
C4281 C233 1.330 . S
C4287 C2458 1.295 . S
C4307 C2336 1.560 . S
C4301 C117 1.505 . S
C4321 C29 1.710 . S
C4327 C2514 1.712 . S
C4341 C321 2.215 . S
C4347 C2416 2.251 . S
C4367 C2674 1.805 . S
C4361 C2044 1.837 . S
C4381 C997 0.306 . S
C4387 C2169 0.435 . S
C4407 C2714 1.121 . S
C4401 C1877 1.129 . S
C4421 C812 1.414 . S
C4427 C2256 1.448 . S
C4441 C2073 1.452 . S
C4447 C2456 1.485 . S
C4467 C2314 0.810 . S
C4461 C1025 0.821 . S
C4481 C1905 0.659 . S
C4487 C2538 0.653 . S
C4507 C2394 1.809 . S
C4501 C841 1.839 . S
C4527 C2698 0.989 . S
C4521 C1525 1.006 . S
C4547 C2274 1.617 . S
C4541 C1369 1.623 . S
C4561 C1465 1.380 . S
C4567 C2498 1.344 . S
C4587 C2376 0.792 . S
C4581 C1201 0.813 . S
C4601 C1281 1.336 . S
C4607 C2418 1.295 . S
C4621 C1076 1.451 . S
C4627 C2738 1.401 1_556 S
C4647 C2554 1.533 . S
C4641 C1437 1.552 . S
C4667 C2615 0.163 . S
C4661 C1701 0.279 . S
