# Generated by pormake.
# Topology gar, (4,6)-cn, num edge types: 1
# Building blocks:
#     Node 0, Type 0, BuildingBlock: TATPOV_clean_sbu_0, # of connection points: 4
#     Node 1, Type 0, BuildingBlock: TATPOV_clean_sbu_0, # of connection points: 4
#     Node 2, Type 0, BuildingBlock: TATPOV_clean_sbu_0, # of connection points: 4
#     Node 3, Type 0, BuildingBlock: TATPOV_clean_sbu_0, # of connection points: 4
#     Node 4, Type 0, BuildingBlock: TATPOV_clean_sbu_0, # of connection points: 4
#     Node 5, Type 0, BuildingBlock: TATPOV_clean_sbu_0, # of connection points: 4
#     Node 6, Type 0, BuildingBlock: TATPOV_clean_sbu_0, # of connection points: 4
#     Node 7, Type 0, BuildingBlock: TATPOV_clean_sbu_0, # of connection points: 4
#     Node 8, Type 0, BuildingBlock: TATPOV_clean_sbu_0, # of connection points: 4
#     Node 9, Type 0, BuildingBlock: TATPOV_clean_sbu_0, # of connection points: 4
#     Node 10, Type 0, BuildingBlock: TATPOV_clean_sbu_0, # of connection points: 4
#     Node 11, Type 0, BuildingBlock: TATPOV_clean_sbu_0, # of connection points: 4
#     Node 12, Type 0, BuildingBlock: TATPOV_clean_sbu_0, # of connection points: 4
#     Node 13, Type 0, BuildingBlock: TATPOV_clean_sbu_0, # of connection points: 4
#     Node 14, Type 0, BuildingBlock: TATPOV_clean_sbu_0, # of connection points: 4
#     Node 15, Type 0, BuildingBlock: TATPOV_clean_sbu_0, # of connection points: 4
#     Node 16, Type 0, BuildingBlock: TATPOV_clean_sbu_0, # of connection points: 4
#     Node 17, Type 0, BuildingBlock: TATPOV_clean_sbu_0, # of connection points: 4
#     Node 18, Type 0, BuildingBlock: TATPOV_clean_sbu_0, # of connection points: 4
#     Node 19, Type 0, BuildingBlock: TATPOV_clean_sbu_0, # of connection points: 4
#     Node 20, Type 0, BuildingBlock: TATPOV_clean_sbu_0, # of connection points: 4
#     Node 21, Type 0, BuildingBlock: TATPOV_clean_sbu_0, # of connection points: 4
#     Node 22, Type 0, BuildingBlock: TATPOV_clean_sbu_0, # of connection points: 4
#     Node 23, Type 0, BuildingBlock: TATPOV_clean_sbu_0, # of connection points: 4
#     Node 24, Type 1, BuildingBlock: PAMTOO_clean_sbu_0, # of connection points: 6
#     Node 25, Type 1, BuildingBlock: PAMTOO_clean_sbu_0, # of connection points: 6
#     Node 26, Type 1, BuildingBlock: PAMTOO_clean_sbu_0, # of connection points: 6
#     Node 27, Type 1, BuildingBlock: PAMTOO_clean_sbu_0, # of connection points: 6
#     Node 28, Type 1, BuildingBlock: PAMTOO_clean_sbu_0, # of connection points: 6
#     Node 29, Type 1, BuildingBlock: PAMTOO_clean_sbu_0, # of connection points: 6
#     Node 30, Type 1, BuildingBlock: PAMTOO_clean_sbu_0, # of connection points: 6
#     Node 31, Type 1, BuildingBlock: PAMTOO_clean_sbu_0, # of connection points: 6
#     Node 32, Type 1, BuildingBlock: PAMTOO_clean_sbu_0, # of connection points: 6
#     Node 33, Type 1, BuildingBlock: PAMTOO_clean_sbu_0, # of connection points: 6
#     Node 34, Type 1, BuildingBlock: PAMTOO_clean_sbu_0, # of connection points: 6
#     Node 35, Type 1, BuildingBlock: PAMTOO_clean_sbu_0, # of connection points: 6
#     Node 36, Type 1, BuildingBlock: PAMTOO_clean_sbu_0, # of connection points: 6
#     Node 37, Type 1, BuildingBlock: PAMTOO_clean_sbu_0, # of connection points: 6
#     Node 38, Type 1, BuildingBlock: PAMTOO_clean_sbu_0, # of connection points: 6
#     Node 39, Type 1, BuildingBlock: PAMTOO_clean_sbu_0, # of connection points: 6
#     Edge 40, Type (0, 1), BuildingBlock: AJUNOK_clean_linker_0, # of connection points: 2
#     Edge 41, Type (0, 1), BuildingBlock: AJUNOK_clean_linker_0, # of connection points: 2
#     Edge 42, Type (0, 1), BuildingBlock: AJUNOK_clean_linker_0, # of connection points: 2
#     Edge 43, Type (0, 1), BuildingBlock: AJUNOK_clean_linker_0, # of connection points: 2
#     Edge 44, Type (0, 1), BuildingBlock: AJUNOK_clean_linker_0, # of connection points: 2
#     Edge 45, Type (0, 1), BuildingBlock: AJUNOK_clean_linker_0, # of connection points: 2
#     Edge 46, Type (0, 1), BuildingBlock: AJUNOK_clean_linker_0, # of connection points: 2
#     Edge 47, Type (0, 1), BuildingBlock: AJUNOK_clean_linker_0, # of connection points: 2
#     Edge 48, Type (0, 1), BuildingBlock: AJUNOK_clean_linker_0, # of connection points: 2
#     Edge 49, Type (0, 1), BuildingBlock: AJUNOK_clean_linker_0, # of connection points: 2
#     Edge 50, Type (0, 1), BuildingBlock: AJUNOK_clean_linker_0, # of connection points: 2
#     Edge 51, Type (0, 1), BuildingBlock: AJUNOK_clean_linker_0, # of connection points: 2
#     Edge 52, Type (0, 1), BuildingBlock: AJUNOK_clean_linker_0, # of connection points: 2
#     Edge 53, Type (0, 1), BuildingBlock: AJUNOK_clean_linker_0, # of connection points: 2
#     Edge 54, Type (0, 1), BuildingBlock: AJUNOK_clean_linker_0, # of connection points: 2
#     Edge 55, Type (0, 1), BuildingBlock: AJUNOK_clean_linker_0, # of connection points: 2
#     Edge 56, Type (0, 1), BuildingBlock: AJUNOK_clean_linker_0, # of connection points: 2
#     Edge 57, Type (0, 1), BuildingBlock: AJUNOK_clean_linker_0, # of connection points: 2
#     Edge 58, Type (0, 1), BuildingBlock: AJUNOK_clean_linker_0, # of connection points: 2
#     Edge 59, Type (0, 1), BuildingBlock: AJUNOK_clean_linker_0, # of connection points: 2
#     Edge 60, Type (0, 1), BuildingBlock: AJUNOK_clean_linker_0, # of connection points: 2
#     Edge 61, Type (0, 1), BuildingBlock: AJUNOK_clean_linker_0, # of connection points: 2
#     Edge 62, Type (0, 1), BuildingBlock: AJUNOK_clean_linker_0, # of connection points: 2
#     Edge 63, Type (0, 1), BuildingBlock: AJUNOK_clean_linker_0, # of connection points: 2
#     Edge 64, Type (0, 1), BuildingBlock: AJUNOK_clean_linker_0, # of connection points: 2
#     Edge 65, Type (0, 1), BuildingBlock: AJUNOK_clean_linker_0, # of connection points: 2
#     Edge 66, Type (0, 1), BuildingBlock: AJUNOK_clean_linker_0, # of connection points: 2
#     Edge 67, Type (0, 1), BuildingBlock: AJUNOK_clean_linker_0, # of connection points: 2
#     Edge 68, Type (0, 1), BuildingBlock: AJUNOK_clean_linker_0, # of connection points: 2
#     Edge 69, Type (0, 1), BuildingBlock: AJUNOK_clean_linker_0, # of connection points: 2
#     Edge 70, Type (0, 1), BuildingBlock: AJUNOK_clean_linker_0, # of connection points: 2
#     Edge 71, Type (0, 1), BuildingBlock: AJUNOK_clean_linker_0, # of connection points: 2
#     Edge 72, Type (0, 1), BuildingBlock: AJUNOK_clean_linker_0, # of connection points: 2
#     Edge 73, Type (0, 1), BuildingBlock: AJUNOK_clean_linker_0, # of connection points: 2
#     Edge 74, Type (0, 1), BuildingBlock: AJUNOK_clean_linker_0, # of connection points: 2
#     Edge 75, Type (0, 1), BuildingBlock: AJUNOK_clean_linker_0, # of connection points: 2
#     Edge 76, Type (0, 1), BuildingBlock: AJUNOK_clean_linker_0, # of connection points: 2
#     Edge 77, Type (0, 1), BuildingBlock: AJUNOK_clean_linker_0, # of connection points: 2
#     Edge 78, Type (0, 1), BuildingBlock: AJUNOK_clean_linker_0, # of connection points: 2
#     Edge 79, Type (0, 1), BuildingBlock: AJUNOK_clean_linker_0, # of connection points: 2
#     Edge 80, Type (0, 1), BuildingBlock: AJUNOK_clean_linker_0, # of connection points: 2
#     Edge 81, Type (0, 1), BuildingBlock: AJUNOK_clean_linker_0, # of connection points: 2
#     Edge 82, Type (0, 1), BuildingBlock: AJUNOK_clean_linker_0, # of connection points: 2
#     Edge 83, Type (0, 1), BuildingBlock: AJUNOK_clean_linker_0, # of connection points: 2
#     Edge 84, Type (0, 1), BuildingBlock: AJUNOK_clean_linker_0, # of connection points: 2
#     Edge 85, Type (0, 1), BuildingBlock: AJUNOK_clean_linker_0, # of connection points: 2
#     Edge 86, Type (0, 1), BuildingBlock: AJUNOK_clean_linker_0, # of connection points: 2
#     Edge 87, Type (0, 1), BuildingBlock: AJUNOK_clean_linker_0, # of connection points: 2
#     Edge 88, Type (0, 1), BuildingBlock: AJUNOK_clean_linker_0, # of connection points: 2
#     Edge 89, Type (0, 1), BuildingBlock: AJUNOK_clean_linker_0, # of connection points: 2
#     Edge 90, Type (0, 1), BuildingBlock: AJUNOK_clean_linker_0, # of connection points: 2
#     Edge 91, Type (0, 1), BuildingBlock: AJUNOK_clean_linker_0, # of connection points: 2
#     Edge 92, Type (0, 1), BuildingBlock: AJUNOK_clean_linker_0, # of connection points: 2
#     Edge 93, Type (0, 1), BuildingBlock: AJUNOK_clean_linker_0, # of connection points: 2
#     Edge 94, Type (0, 1), BuildingBlock: AJUNOK_clean_linker_0, # of connection points: 2
#     Edge 95, Type (0, 1), BuildingBlock: AJUNOK_clean_linker_0, # of connection points: 2
#     Edge 96, Type (0, 1), BuildingBlock: AJUNOK_clean_linker_0, # of connection points: 2
#     Edge 97, Type (0, 1), BuildingBlock: AJUNOK_clean_linker_0, # of connection points: 2
#     Edge 98, Type (0, 1), BuildingBlock: AJUNOK_clean_linker_0, # of connection points: 2
#     Edge 99, Type (0, 1), BuildingBlock: AJUNOK_clean_linker_0, # of connection points: 2
#     Edge 100, Type (0, 1), BuildingBlock: AJUNOK_clean_linker_0, # of connection points: 2
#     Edge 101, Type (0, 1), BuildingBlock: AJUNOK_clean_linker_0, # of connection points: 2
#     Edge 102, Type (0, 1), BuildingBlock: AJUNOK_clean_linker_0, # of connection points: 2
#     Edge 103, Type (0, 1), BuildingBlock: AJUNOK_clean_linker_0, # of connection points: 2
#     Edge 104, Type (0, 1), BuildingBlock: AJUNOK_clean_linker_0, # of connection points: 2
#     Edge 105, Type (0, 1), BuildingBlock: AJUNOK_clean_linker_0, # of connection points: 2
#     Edge 106, Type (0, 1), BuildingBlock: AJUNOK_clean_linker_0, # of connection points: 2
#     Edge 107, Type (0, 1), BuildingBlock: AJUNOK_clean_linker_0, # of connection points: 2
#     Edge 108, Type (0, 1), BuildingBlock: AJUNOK_clean_linker_0, # of connection points: 2
#     Edge 109, Type (0, 1), BuildingBlock: AJUNOK_clean_linker_0, # of connection points: 2
#     Edge 110, Type (0, 1), BuildingBlock: AJUNOK_clean_linker_0, # of connection points: 2
#     Edge 111, Type (0, 1), BuildingBlock: AJUNOK_clean_linker_0, # of connection points: 2
#     Edge 112, Type (0, 1), BuildingBlock: AJUNOK_clean_linker_0, # of connection points: 2
#     Edge 113, Type (0, 1), BuildingBlock: AJUNOK_clean_linker_0, # of connection points: 2
#     Edge 114, Type (0, 1), BuildingBlock: AJUNOK_clean_linker_0, # of connection points: 2
#     Edge 115, Type (0, 1), BuildingBlock: AJUNOK_clean_linker_0, # of connection points: 2
#     Edge 116, Type (0, 1), BuildingBlock: AJUNOK_clean_linker_0, # of connection points: 2
#     Edge 117, Type (0, 1), BuildingBlock: AJUNOK_clean_linker_0, # of connection points: 2
#     Edge 118, Type (0, 1), BuildingBlock: AJUNOK_clean_linker_0, # of connection points: 2
#     Edge 119, Type (0, 1), BuildingBlock: AJUNOK_clean_linker_0, # of connection points: 2
#     Edge 120, Type (0, 1), BuildingBlock: AJUNOK_clean_linker_0, # of connection points: 2
#     Edge 121, Type (0, 1), BuildingBlock: AJUNOK_clean_linker_0, # of connection points: 2
#     Edge 122, Type (0, 1), BuildingBlock: AJUNOK_clean_linker_0, # of connection points: 2
#     Edge 123, Type (0, 1), BuildingBlock: AJUNOK_clean_linker_0, # of connection points: 2
#     Edge 124, Type (0, 1), BuildingBlock: AJUNOK_clean_linker_0, # of connection points: 2
#     Edge 125, Type (0, 1), BuildingBlock: AJUNOK_clean_linker_0, # of connection points: 2
#     Edge 126, Type (0, 1), BuildingBlock: AJUNOK_clean_linker_0, # of connection points: 2
#     Edge 127, Type (0, 1), BuildingBlock: AJUNOK_clean_linker_0, # of connection points: 2
#     Edge 128, Type (0, 1), BuildingBlock: AJUNOK_clean_linker_0, # of connection points: 2
#     Edge 129, Type (0, 1), BuildingBlock: AJUNOK_clean_linker_0, # of connection points: 2
#     Edge 130, Type (0, 1), BuildingBlock: AJUNOK_clean_linker_0, # of connection points: 2
#     Edge 131, Type (0, 1), BuildingBlock: AJUNOK_clean_linker_0, # of connection points: 2
#     Edge 132, Type (0, 1), BuildingBlock: AJUNOK_clean_linker_0, # of connection points: 2
#     Edge 133, Type (0, 1), BuildingBlock: AJUNOK_clean_linker_0, # of connection points: 2
#     Edge 134, Type (0, 1), BuildingBlock: AJUNOK_clean_linker_0, # of connection points: 2
#     Edge 135, Type (0, 1), BuildingBlock: AJUNOK_clean_linker_0, # of connection points: 2
# Relax obj value: 0.209
# Max RMSD: 0.283
# Mean RMSD: 0.184
data_MOF--net-gar--node1-TATPOV_clean_sbu_0--node2-PAMTOO_clean_sbu_0--edge1-AJUNOK_clean_linker_0
_symmetry_space_group_name_H-M    P1
_symmetry_Int_Tables_number       1
_symmetry_cell_setting            triclinic
loop_
_symmetry_equiv_pos_as_xyz
'x, y, z'
_cell_length_a     45.565981
_cell_length_b     45.523118
_cell_length_c     43.619699
_cell_angle_alpha  98.001184
_cell_angle_beta   97.902977
_cell_angle_gamma 108.50056
loop_
_atom_site_label
_atom_site_type_symbol
_atom_site_fract_x
_atom_site_fract_y
_atom_site_fract_z
_atom_type_partial_charge
Zn0 Zn 0.04316 0.3686 0.40292 0.0
Zn1 Zn 0.07984 0.36355 0.37082 0.0
O2 O 0.09029 0.41356 0.39714 0.0
O3 O 0.06429 0.40565 0.43595 0.0
O4 O 0.12348 0.35654 0.35254 0.0
O5 O 0.03175 0.32965 0.41761 0.0
O6 O 0.07416 0.32851 0.40011 0.0
C7 C 0.08268 0.42458 0.4229 0.0
C8 C 1.0074 0.35718 0.34509 0.0
O9 O 0.0318 0.35009 0.33859 0.0
O10 O 1.00871 0.37091 0.37261 0.0
C11 C 0.13689 0.35723 0.32784 0.0
O12 O 0.12304 0.36448 0.30302 0.0
C13 C 0.05249 0.31719 0.41549 0.0
Zn14 Zn 0.03371 0.74312 0.74912 0.0
Zn15 Zn 0.04412 0.78534 0.71623 0.0
O16 O 1.00402 0.79185 0.73643 0.0
O17 O 0.99354 0.75397 0.76322 0.0
O18 O 0.05533 0.82138 0.69355 0.0
O19 O 0.08225 0.75962 0.77195 0.0
O20 O 0.09043 0.79446 0.74154 0.0
C21 C 0.98639 0.77663 0.75384 0.0
C22 C 0.03211 0.71724 0.68249 0.0
O23 O 0.0356 0.74577 0.67991 0.0
O24 O 0.02916 0.70955 0.70913 0.0
C25 C 0.03758 0.82242 0.66901 0.0
O26 O 1.01032 0.79953 0.65859 0.0
C27 C 0.10177 0.78092 0.7615 0.0
Zn28 Zn 0.5485 0.86305 0.91001 0.0
Zn29 Zn 0.58156 0.86477 0.87146 0.0
O30 O 0.59115 0.9131 0.90016 0.0
O31 O 0.55646 0.90478 0.93153 0.0
O32 O 0.62606 0.86348 0.85207 0.0
O33 O 0.55614 0.83543 0.93691 0.0
O34 O 0.57511 0.82489 0.89458 0.0
C35 C 0.57792 0.92374 0.92161 0.0
C36 C 0.50764 0.84775 0.85105 0.0
O37 O 0.5341 0.85518 0.84081 0.0
O38 O 0.50842 0.84655 0.87983 0.0
C39 C 0.63181 0.84139 0.83391 0.0
O40 O 0.60767 0.8158 0.82069 0.0
C41 C 0.56618 0.81756 0.92 0.0
Zn42 Zn 0.53201 0.24157 0.24869 0.0
Zn43 Zn 0.54389 0.28562 0.21755 0.0
O44 O 0.50293 0.29088 0.23673 0.0
O45 O 0.49333 0.25333 0.26397 0.0
O46 O 0.55484 0.32194 0.19496 0.0
O47 O 0.58078 0.25741 0.27058 0.0
O48 O 0.58955 0.29545 0.24388 0.0
C49 C 0.48563 0.27555 0.25428 0.0
C50 C 0.5307 0.21672 0.18302 0.0
O51 O 0.53743 0.24609 0.18215 0.0
O52 O 0.5243 0.20758 0.20831 0.0
C53 C 0.54056 0.32081 0.16753 0.0
O54 O 0.51676 0.2952 0.15349 0.0
C55 C 0.60051 0.28026 0.26222 0.0
Zn56 Zn 0.13069 0.83978 0.08923 0.0
Zn57 Zn 0.09192 0.83197 0.12481 0.0
O58 O 0.08683 0.87446 0.10705 0.0
O59 O 0.11809 0.87919 0.07319 0.0
O60 O 0.05558 0.82041 0.14654 0.0
O61 O 0.11485 0.79046 0.06669 0.0
O62 O 0.08215 0.78475 0.09919 0.0
C63 C 0.09892 0.88961 0.0863 0.0
C64 C 0.15846 0.84221 0.15762 0.0
O65 O 0.13038 0.83895 0.1614 0.0
O66 O 0.16481 0.84545 0.1304 0.0
C67 C 0.05193 0.83856 0.1693 0.0
O68 O 0.07269 0.8672 0.17895 0.0
C69 C 0.09406 0.77185 0.0785 0.0
Zn70 Zn 0.47587 0.78398 0.50015 0.0
Zn71 Zn 0.51666 0.79593 0.46548 0.0
O72 O 0.5291 0.84306 0.49186 0.0
O73 O 0.49262 0.8343 0.52048 0.0
O74 O 0.54805 0.80262 0.43632 0.0
O75 O 0.48948 0.74446 0.51427 0.0
O76 O 0.52491 0.75521 0.48485 0.0
C77 C 0.51461 0.85422 0.51106 0.0
C78 C 0.44534 0.78364 0.43657 0.0
O79 O 0.47418 0.79014 0.43346 0.0
O80 O 0.43839 0.77654 0.46249 0.0
C81 C 0.57592 0.82255 0.44451 0.0
O82 O 0.58506 0.83959 0.47324 0.0
C83 C 0.51156 0.73746 0.50328 0.0
Zn84 Zn 0.63494 0.3423 0.59207 0.0
Zn85 Zn 0.59446 0.3335 0.62713 0.0
O86 O 0.58801 0.37476 0.60838 0.0
O87 O 0.62007 0.38059 0.57523 0.0
O88 O 0.56207 0.32482 0.65442 0.0
O89 O 0.61906 0.29229 0.57174 0.0
O90 O 0.58359 0.28589 0.60147 0.0
C91 C 0.60001 0.3901 0.58774 0.0
C92 C 0.66307 0.34596 0.65941 0.0
O93 O 0.63443 0.34147 0.6618 0.0
O94 O 0.67056 0.34956 0.6327 0.0
C95 C 0.53517 0.32765 0.64857 0.0
O96 O 0.52734 0.33795 0.62308 0.0
C97 C 0.59715 0.2734 0.58212 0.0
Zn98 Zn 0.978 0.28611 0.00393 0.0
Zn99 Zn 1.01654 0.29637 0.96594 0.0
O100 O 0.02761 0.34374 0.99152 0.0
O101 O 0.99677 0.33587 0.02601 0.0
O102 O 0.04752 0.30341 0.93605 0.0
O103 O 0.99132 0.24636 0.01683 0.0
O104 O 0.02488 0.25586 0.98527 0.0
C105 C 1.01631 0.35537 0.01367 0.0
C106 C 0.94545 0.28386 0.93973 0.0
O107 O 0.97363 0.28891 0.93505 0.0
O108 O 0.93981 0.27915 0.96675 0.0
C109 C 0.076 0.32186 0.94493 0.0
O110 O 0.0858 0.3367 0.97449 0.0
C111 C 1.01237 0.23867 0.00449 0.0
Zn112 Zn 0.45737 0.99771 0.35068 0.0
Zn113 Zn 0.41435 0.05683 0.32877 0.0
O114 O 0.43631 0.0779 0.37467 0.0
O115 O 0.44138 0.03328 0.35987 0.0
O116 O 0.3989 0.08552 0.31013 0.0
O117 O 0.4711 0.00961 0.31088 0.0
O118 O 0.4429 0.04159 0.30149 0.0
C119 C 0.44759 0.05712 0.38122 0.0
C120 C 0.38594 0.99763 0.33235 0.0
O121 O 0.37463 0.01856 0.32648 0.0
O122 O 0.41571 1.00637 0.33918 0.0
C123 C 0.37611 0.08748 0.32277 0.0
O124 O 0.37056 0.07456 0.34749 0.0
C125 C 0.46173 0.02714 0.29411 0.0
Zn126 Zn 0.27052 0.27047 0.53365 0.0
Zn127 Zn 0.30228 0.23639 0.53724 0.0
O128 O 0.31017 0.25534 0.49534 0.0
O129 O 0.28382 0.28796 0.49635 0.0
O130 O 0.3351 0.21553 0.54333 0.0
O131 O 0.28337 0.29542 0.57806 0.0
O132 O 0.30895 0.26255 0.58347 0.0
C133 C 0.3009 0.27547 0.48271 0.0
C134 C 0.23265 0.2049 0.52787 0.0
O135 O 0.25916 0.20081 0.53071 0.0
O136 O 0.23155 0.23214 0.52666 0.0
C137 C 0.32765 0.18578 0.54012 0.0
O138 O 0.29782 0.16792 0.53163 0.0
C139 C 0.29931 0.28408 0.59595 0.0
Zn140 Zn 0.10691 0.11335 0.80865 0.0
Zn141 Zn 0.13715 0.07497 0.80309 0.0
O142 O 0.11663 0.06558 0.84338 0.0
O143 O 0.08961 0.0978 0.84626 0.0
O144 O 0.1575 0.04228 0.79579 0.0
O145 O 0.08383 0.10069 0.76244 0.0
O146 O 0.11216 0.06998 0.75795 0.0
C147 C 0.0988 0.07728 0.85746 0.0
C148 C 0.17426 0.14472 0.81625 0.0
O149 O 0.17452 0.1166 0.81108 0.0
O150 O 0.14857 0.14959 0.81765 0.0
C151 C 0.18271 0.04527 0.81434 0.0
O152 O 0.19427 0.06929 0.83823 0.0
C153 C 0.09321 0.0822 0.74506 0.0
Zn154 Zn 0.36644 0.916 0.97874 0.0
Zn155 Zn 0.31353 0.95474 0.00523 0.0
O156 O 0.28627 0.93449 0.96145 0.0
O157 O 0.33168 0.92999 0.96964 0.0
O158 O 0.28828 0.97239 0.02788 0.0
O159 O 0.35674 0.8984 0.01766 0.0
O160 O 0.32332 0.92345 0.02957 0.0
C161 C 0.30532 0.92217 0.95222 0.0
C162 C 0.38082 0.98906 0.99593 0.0
O163 O 0.35475 0.9885 0.00375 0.0
O164 O 0.38712 0.96422 0.98674 0.0
C165 C 0.29406 1.00163 0.03033 0.0
O166 O 0.31782 0.01898 0.0195 0.0
C167 C 0.33754 0.90406 0.03431 0.0
Zn168 Zn 0.34917 0.36709 0.06068 0.0
Zn169 Zn 0.31875 0.40357 0.0584 0.0
O170 O 0.31089 0.37705 0.01209 0.0
O171 O 0.33398 0.34194 0.01633 0.0
O172 O 0.28781 0.42716 0.05534 0.0
O173 O 0.33571 0.34945 0.09805 0.0
O174 O 0.31057 0.38326 0.09942 0.0
C175 C 0.31852 0.35426 0.9991 0.0
C176 C 0.38821 0.43336 0.06628 0.0
O177 O 0.3622 0.43848 0.0646 0.0
O178 O 0.38831 0.4056 0.0666 0.0
C179 C 0.27308 0.42892 0.02907 0.0
O180 O 0.27835 0.41549 0.00278 0.0
C181 C 0.31885 0.36234 0.1116 0.0
Zn182 Zn 0.76 0.19878 0.12487 0.0
Zn183 Zn 0.81116 0.17488 0.09058 0.0
O184 O 0.80349 0.20141 0.06194 0.0
O185 O 0.76759 0.21583 0.08353 0.0
O186 O 0.83938 0.15604 0.07477 0.0
O187 O 0.79249 0.18347 0.14982 0.0
O188 O 0.83399 0.20398 0.13098 0.0
C189 C 0.78443 0.21644 0.06242 0.0
C190 C 0.75368 0.13433 0.10732 0.0
O191 O 0.77019 0.13941 0.08637 0.0
O192 O 0.76177 0.15513 0.13241 0.0
C193 C 0.82747 0.1356 0.04962 0.0
O194 O 0.79817 0.12966 0.03573 0.0
C195 C 0.82012 0.20318 0.15399 0.0
Zn196 Zn 0.17687 0.65048 0.2473 0.0
Zn197 Zn 0.20849 0.56996 0.26398 0.0
O198 O 0.19879 0.58842 0.30484 0.0
O199 O 0.1881 0.61987 0.27575 0.0
O200 O 0.22441 0.53819 0.27431 0.0
O201 O 0.17486 0.60184 0.24177 0.0
O202 O 0.17001 0.55238 0.22874 0.0
C203 C 0.19037 0.6121 0.30281 0.0
C204 C 0.23647 0.62632 0.24664 0.0
O205 O 0.24479 0.60321 0.25154 0.0
O206 O 0.20811 0.62399 0.2484 0.0
C207 C 0.25017 0.55193 0.29367 0.0
O208 O 0.26128 0.58278 0.30263 0.0
C209 C 0.16046 0.57483 0.22365 0.0
Zn210 Zn 0.85282 0.8676 0.5602 0.0
Zn211 Zn 0.81824 0.8997 0.55699 0.0
O212 O 0.80999 0.87293 0.51073 0.0
O213 O 0.83968 0.84356 0.51535 0.0
O214 O 0.78522 0.92036 0.55361 0.0
O215 O 0.83934 0.84948 0.59737 0.0
O216 O 0.81145 0.88073 0.59849 0.0
C217 C 0.82111 0.85272 0.49799 0.0
C218 C 0.88816 0.93384 0.56683 0.0
O219 O 0.86086 0.93633 0.56329 0.0
O220 O 0.89069 0.90707 0.56775 0.0
C221 C 0.7884 0.94263 0.53842 0.0
O222 O 0.81279 0.9511 0.52459 0.0
C223 C 0.82151 0.86102 0.61088 0.0
Zn224 Zn 1.00986 0.02478 0.28033 0.0
Zn225 Zn 0.97434 0.05713 0.28193 0.0
O226 O 0.9988 0.06344 0.32825 0.0
O227 O 0.03397 0.04012 0.32541 0.0
O228 O 0.95301 0.08918 0.28583 0.0
O229 O 0.02762 0.03913 0.24279 0.0
O230 O 0.99452 0.06508 0.24158 0.0
C231 C 0.02084 0.05531 0.34196 0.0
C232 C 0.94186 0.98838 0.27232 0.0
O233 O 0.93812 0.01503 0.27409 0.0
O234 O 0.96937 0.98696 0.27374 0.0
C235 C 0.93329 0.08646 0.30405 0.0
O236 O 0.92847 0.06349 0.32001 0.0
C237 C 1.01518 0.05644 0.22946 0.0
Zn238 Zn 0.26061 0.68535 0.58808 0.0
Zn239 Zn 0.30515 0.6727 0.59015 0.0
O240 O 0.30678 0.70286 0.55969 0.0
O241 O 0.28469 0.73025 0.58718 0.0
O242 O 0.34076 0.65982 0.58703 0.0
O243 O 0.2581 0.67254 0.6302 0.0
O244 O 0.3089 0.69384 0.63372 0.0
C245 C 0.29984 0.72767 0.56544 0.0
C246 C 0.24711 0.62843 0.55603 0.0
O247 O 0.26861 0.63138 0.57907 0.0
O248 O 0.24583 0.65325 0.54707 0.0
C249 C 0.33945 0.64872 0.55843 0.0
O250 O 0.31799 0.65082 0.53628 0.0
C251 C 0.285 0.68841 0.64673 0.0
Zn252 Zn 0.51065 0.52176 0.77861 0.0
Zn253 Zn 0.47584 0.5555 0.78232 0.0
O254 O 0.50186 0.56356 0.82836 0.0
O255 O 0.53472 0.53771 0.8237 0.0
O256 O 0.45435 0.58746 0.78542 0.0
O257 O 0.52823 0.53689 0.74082 0.0
O258 O 0.49506 0.56281 0.74155 0.0
C259 C 0.52364 0.55449 0.84108 0.0
C260 C 0.44306 0.48652 0.77413 0.0
O261 O 0.43983 0.51341 0.77607 0.0
O262 O 0.47 0.48411 0.77369 0.0
C263 C 0.43848 0.58926 0.80688 0.0
O264 O 0.43704 0.57033 0.82719 0.0
C265 C 0.51534 0.55442 0.72848 0.0
Zn266 Zn 0.69668 0.14824 0.7383 0.0
Zn267 Zn 0.71302 0.07293 0.75523 0.0
O268 O 0.68818 0.09513 0.78193 0.0
O269 O 0.67364 0.13708 0.77411 0.0
O270 O 0.71746 0.03821 0.77353 0.0
O271 O 0.69737 0.10458 0.72125 0.0
O272 O 0.68853 0.05507 0.70985 0.0
C273 C 0.67429 0.11497 0.78914 0.0
C274 C 0.75396 0.12775 0.7554 0.0
O275 O 0.75885 0.10338 0.76152 0.0
O276 O 0.72752 0.12334 0.73828 0.0
C277 C 0.73661 0.04806 0.79968 0.0
O278 O 0.74453 0.07773 0.81364 0.0
C279 C 0.6815 0.07837 0.70312 0.0
Zn280 Zn 0.7683 0.76827 0.02974 0.0
Zn281 Zn 0.80396 0.7361 0.03874 0.0
O282 O 0.81331 0.75359 0.99667 0.0
O283 O 0.78867 0.7879 0.99511 0.0
O284 O 0.83548 0.71453 0.04894 0.0
O285 O 0.77689 0.78937 0.07593 0.0
O286 O 0.81017 0.76402 0.08336 0.0
C287 C 0.80601 0.77436 0.98327 0.0
C288 C 0.73364 0.70171 0.02314 0.0
O289 O 0.76109 0.70057 0.0316 0.0
O290 O 0.73063 0.72748 0.01816 0.0
C291 C 0.83779 0.69142 0.03072 0.0
O292 O 0.81971 0.68131 0.00252 0.0
C293 C 0.79626 0.78221 0.09451 0.0
Zn294 Zn 0.94941 0.49594 0.84919 0.0
Zn295 Zn 0.91298 0.55876 0.82394 0.0
O296 O 0.9384 0.58286 0.86802 0.0
O297 O 0.94085 0.53656 0.85717 0.0
O298 O 0.89975 0.58735 0.80331 0.0
O299 O 0.96121 0.50216 0.80653 0.0
O300 O 0.93798 0.53815 0.79676 0.0
C301 C 0.95049 0.563 0.87564 0.0
C302 C 0.88244 0.50275 0.8305 0.0
O303 O 0.87128 0.52351 0.82394 0.0
O304 O 0.91192 0.51186 0.84063 0.0
C305 C 0.87971 0.59269 0.81847 0.0
O306 O 0.87696 0.58308 0.84536 0.0
C307 C 0.9538 0.52035 0.78929 0.0
Zn308 Zn 0.85459 0.43023 0.50525 0.0
Zn309 Zn 0.81359 0.44794 0.51022 0.0
O310 O 0.79658 0.42454 0.46557 0.0
O311 O 0.8455 0.43383 0.46031 0.0
O312 O 0.78436 0.46782 0.52248 0.0
O313 O 0.8367 0.38934 0.51764 0.0
O314 O 0.81378 0.41917 0.54128 0.0
C315 C 0.81664 0.42557 0.4479 0.0
C316 C 0.88134 0.48892 0.52582 0.0
O317 O 0.85376 0.48501 0.51186 0.0
O318 O 0.88672 0.46623 0.53614 0.0
C319 C 0.7858 0.49267 0.51214 0.0
O320 O 0.80414 0.50147 0.49193 0.0
C321 C 0.821 0.39435 0.53815 0.0
Zn322 Zn 0.60775 0.61622 0.30942 0.0
Zn323 Zn 0.63848 0.57849 0.30328 0.0
O324 O 0.61977 0.56931 0.34425 0.0
O325 O 0.58974 0.59849 0.34604 0.0
O326 O 0.65811 0.54602 0.29473 0.0
O327 O 0.58518 0.60425 0.26286 0.0
O328 O 0.613 0.5731 0.25848 0.0
C329 C 0.60075 0.57938 0.35793 0.0
C330 C 0.67564 0.64742 0.31746 0.0
O331 O 0.67579 0.6194 0.31089 0.0
O332 O 0.65006 0.65232 0.31964 0.0
C333 C 0.68001 0.54472 0.31513 0.0
O334 O 0.68837 0.564 0.34266 0.0
C335 C 0.59424 0.58542 0.24554 0.0
Dy336 Dy 0.09249 0.08679 0.05877 0.0
Dy337 Dy 0.02443 0.04346 0.02873 0.0
C338 C 0.07409 0.06017 0.98395 0.0
O339 O 0.07294 0.12588 0.04915 0.0
O340 O 0.02264 0.09395 0.02646 0.0
O341 O 0.13661 0.12157 0.0563 0.0
O342 O 0.13171 0.10078 0.09785 0.0
O343 O 0.02138 0.05336 0.08015 0.0
O344 O 0.06996 0.09046 0.10055 0.0
O345 O 0.0424 1.0052 0.04415 0.0
O346 O 0.09434 0.03577 0.05862 0.0
O347 O 0.98075 1.00621 0.02761 0.0
O348 O 0.98622 0.03146 0.98896 0.0
C349 C 0.04434 0.12282 0.0347 0.0
O350 O 0.09068 0.08386 0.00684 0.0
O351 O 0.05075 0.0372 0.98945 0.0
C352 C 0.17453 0.10116 0.07545 0.0
C353 C 0.21014 0.06242 0.06697 0.0
C354 C 0.18851 0.0633 0.04143 0.0
C355 C 0.17062 0.08241 0.04568 0.0
C356 C 0.19637 0.10044 0.10093 0.0
C357 C 0.21427 0.08111 0.09667 0.0
C358 C 0.15106 0.11538 0.08113 0.0
C359 C 0.04233 0.07276 0.1042 0.0
C360 C 0.07174 1.00764 0.05492 0.0
C361 C 0.94151 0.02565 0.00984 0.0
C362 C 0.90274 0.06103 0.01931 0.0
C363 C 0.92527 0.06111 0.04456 0.0
C364 C 0.94461 0.04359 0.03983 0.0
C365 C 0.91859 0.02511 0.98474 0.0
C366 C 0.89924 0.04286 0.98945 0.0
C367 C 0.96656 0.01388 0.00359 0.0
H368 H 0.18569 0.04948 0.01818 0.0
H369 H 0.15309 0.08172 0.02584 0.0
H370 H 0.19874 0.11393 0.1242 0.0
H371 H 0.23121 0.0806 0.11644 0.0
H372 H 0.92816 0.07502 0.06778 0.0
H373 H 0.96276 0.0451 0.05939 0.0
H374 H 0.91677 0.01228 0.96129 0.0
H375 H 0.88224 0.04317 0.96963 0.0
Dy376 Dy 0.32335 0.82632 0.28017 0.0
Dy377 Dy 0.27464 0.80506 0.32535 0.0
C378 C 0.30959 0.87299 0.32767 0.0
O379 O 0.35368 0.82021 0.32306 0.0
O380 O 0.31697 0.79634 0.3511 0.0
O381 O 0.35728 0.86617 0.26843 0.0
O382 O 0.35113 0.81834 0.24609 0.0
O383 O 0.27866 0.76075 0.30177 0.0
O384 O 0.30013 0.77632 0.25948 0.0
O385 O 0.24506 0.8151 0.28342 0.0
O386 O 0.27849 0.82117 0.2481 0.0
O387 O 0.23761 0.77204 0.34184 0.0
O388 O 0.25443 0.82189 0.36284 0.0
C389 C 0.3464 0.8059 0.34672 0.0
O390 O 0.30448 0.86318 0.29752 0.0
O391 O 0.30915 0.85248 0.34544 0.0
C392 C 0.35467 0.85536 0.21347 0.0
C393 C 0.33731 0.86686 0.15361 0.0
C394 C 0.33996 0.88896 0.18056 0.0
C395 C 0.34858 0.88327 0.21033 0.0
C396 C 0.35109 0.83288 0.18635 0.0
C397 C 0.3423 0.83855 0.15657 0.0
C398 C 0.36183 0.84821 0.24478 0.0
C399 C 0.28743 0.75484 0.27496 0.0
C400 C 0.25084 0.81945 0.25505 0.0
C401 C 0.24816 0.78632 0.39744 0.0
C402 C 0.27378 0.7756 0.45526 0.0
C403 C 0.26118 0.75075 0.42901 0.0
C404 C 0.24845 0.75604 0.40031 0.0
C405 C 0.26036 0.81102 0.42398 0.0
C406 C 0.27333 0.80576 0.45258 0.0
C407 C 0.23949 0.79326 0.36621 0.0
H408 H 0.33639 0.91109 0.17847 0.0
H409 H 0.35067 0.90083 0.23078 0.0
H410 H 0.35529 0.811 0.18814 0.0
H411 H 0.3409 0.82158 0.13588 0.0
H412 H 0.26093 0.72716 0.43076 0.0
H413 H 0.23943 0.73654 0.38029 0.0
H414 H 0.26075 0.83468 0.42242 0.0
H415 H 0.28323 0.82529 0.47254 0.0
Dy416 Dy 0.52261 0.0608 0.55894 0.0
Dy417 Dy 0.58953 0.06658 0.53884 0.0
C418 C 0.5347 0.0689 0.49094 0.0
O419 O 0.52042 1.00869 0.54722 0.0
O420 O 0.56683 0.01324 0.52992 0.0
O421 O 0.47212 0.04379 0.54411 0.0
O422 O 0.49373 0.06835 0.59244 0.0
O423 O 0.5854 0.04645 0.58186 0.0
O424 O 0.55693 0.07337 0.60339 0.0
O425 O 0.59205 0.11894 0.55039 0.0
O426 O 0.54395 0.11368 0.56385 0.0
O427 O 0.63959 0.08128 0.55603 0.0
O428 O 0.61997 0.06177 0.50615 0.0
C429 C 0.53981 0.99534 0.53571 0.0
O430 O 0.52395 0.079 0.51481 0.0
O431 O 0.5565 0.05627 0.494 0.0
C432 C 0.45182 0.08131 0.56731 0.0
C433 C 0.41869 0.1232 0.56147 0.0
C434 C 0.43215 0.11402 0.5365 0.0
C435 C 0.4489 0.09339 0.53946 0.0
C436 C 0.43945 0.09169 0.59272 0.0
C437 C 0.4229 0.11254 0.5898 0.0
C438 C 0.46842 0.05864 0.5704 0.0
C439 C 0.57757 0.05937 0.60642 0.0
C440 C 0.57145 0.13191 0.55953 0.0
C441 C 0.66142 0.04694 0.52927 0.0
C442 C 0.6972 1.00693 0.53034 0.0
C443 C 0.68133 0.01115 0.55507 0.0
C444 C 0.66344 0.03103 0.55452 0.0
C445 C 0.67566 0.04107 0.50375 0.0
C446 C 0.6933 0.0211 0.5042 0.0
C447 C 0.64447 0.06951 0.52889 0.0
H448 H 0.42886 0.12205 0.51444 0.0
H449 H 0.45892 0.08641 0.51974 0.0
H450 H 0.44202 0.08314 0.61455 0.0
H451 H 0.41239 0.11941 0.60917 0.0
H452 H 0.68394 1.00026 0.57536 0.0
H453 H 0.65194 0.03456 0.57418 0.0
H454 H 0.67374 0.05254 0.48377 0.0
H455 H 0.70488 0.01759 0.48461 0.0
Dy456 Dy 0.33768 0.30321 0.80115 0.0
Dy457 Dy 0.27927 0.32957 0.7952 0.0
C458 C 0.34747 0.37473 0.79359 0.0
O459 O 0.32587 0.30691 0.84966 0.0
O460 O 0.30523 0.34609 0.84548 0.0
O461 O 0.38582 0.30926 0.82104 0.0
O462 O 0.35727 0.26761 0.786 0.0
O463 O 0.26377 0.28466 0.81315 0.0
O464 O 0.29471 0.26018 0.79184 0.0
O465 O 0.27909 0.30954 0.74474 0.0
O466 O 0.32964 0.3087 0.75097 0.0
O467 O 0.22961 0.31992 0.77948 0.0
O468 O 0.2591 0.36539 0.80833 0.0
C469 C 0.3162 0.3291 0.86283 0.0
O470 O 0.35798 0.35568 0.80822 0.0
O471 O 0.31746 0.36699 0.78132 0.0
C472 C 0.4091 0.29161 0.78032 0.0
C473 C 0.44919 0.30153 0.73625 0.0
C474 C 0.43997 0.32618 0.74989 0.0
C475 C 0.41993 0.32123 0.7716 0.0
C476 C 0.41798 0.26691 0.76648 0.0
C477 C 0.43774 0.27176 0.7445 0.0
C478 C 0.38564 0.28521 0.80073 0.0
C479 C 0.26989 0.25896 0.80417 0.0
C480 C 0.30338 0.30669 0.73282 0.0
C481 C 0.20831 0.34269 0.81887 0.0
C482 C 0.16606 0.3368 0.86084 0.0
C483 C 0.18091 0.31437 0.85581 0.0
C484 C 0.202 0.31733 0.835 0.0
C485 C 0.19386 0.36535 0.82443 0.0
C486 C 0.17279 0.3624 0.84524 0.0
C487 C 0.23038 0.34609 0.79681 0.0
H488 H 0.44837 0.34932 0.74386 0.0
H489 H 0.41264 0.34046 0.78126 0.0
H490 H 0.40906 0.24368 0.77218 0.0
H491 H 0.44371 0.25208 0.73365 0.0
H492 H 0.17595 0.2945 0.86774 0.0
H493 H 0.2132 0.29974 0.83141 0.0
H494 H 0.19875 0.38524 0.81252 0.0
H495 H 0.16156 0.37995 0.84902 0.0
Dy496 Dy 0.07325 0.03957 0.53993 0.0
Dy497 Dy 0.04518 0.09692 0.54457 0.0
C498 C 1.00196 0.02971 0.55116 0.0
O499 O 0.06885 0.05067 0.49121 0.0
O500 O 0.02774 0.06799 0.49564 0.0
O501 O 0.06787 0.99158 0.52004 0.0
O502 O 0.109 0.02044 0.55548 0.0
O503 O 0.09122 0.11412 0.52908 0.0
O504 O 0.1163 0.08225 0.54785 0.0
O505 O 0.06336 0.09852 0.5957 0.0
O506 O 0.07054 0.05038 0.59073 0.0
O507 O 0.05257 0.14633 0.55909 0.0
O508 O 1.00883 0.11519 0.52828 0.0
C509 C 0.04512 0.05805 0.47807 0.0
O510 O 0.02119 0.01819 0.53773 0.0
O511 O 1.00848 0.06011 0.56018 0.0
C512 C 0.08543 0.9684 0.56026 0.0
C513 C 0.07306 0.92406 0.59969 0.0
C514 C 0.05514 0.94392 0.59723 0.0
C515 C 0.06151 0.96617 0.57788 0.0
C516 C 0.10383 0.94916 0.5632 0.0
C517 C 0.0977 0.92707 0.58285 0.0
C518 C 0.09205 0.99203 0.54027 0.0
C519 C 0.11706 0.10822 0.53797 0.0
C520 C 0.06964 0.07591 0.60815 0.0
C521 C 0.03162 0.16542 0.51648 0.0
C522 C 0.0392 0.20848 0.47534 0.0
C523 C 0.06565 0.20395 0.49155 0.0
C524 C 0.06184 0.18236 0.51177 0.0
C525 C 1.00515 0.16832 0.4985 0.0
C526 C 1.00887 0.18937 0.47778 0.0
C527 C 0.02729 0.14431 0.53948 0.0
H528 H 0.03625 0.94219 0.61026 0.0
H529 H 0.04782 0.98167 0.57664 0.0
H530 H 0.12275 0.9511 0.55018 0.0
H531 H 0.11165 0.9118 0.58426 0.0
H532 H 0.08925 0.21822 0.48992 0.0
H533 H 0.08258 0.17965 0.52433 0.0
H534 H 0.98159 0.15484 0.50101 0.0
H535 H 0.98804 0.19189 0.46482 0.0
Dy536 Dy 0.31285 0.85378 0.78177 0.0
Dy537 Dy 0.30195 0.77976 0.80458 0.0
C538 C 0.29996 0.82852 0.85138 0.0
O539 O 0.36337 0.85257 0.79387 0.0
O540 O 0.35423 0.81007 0.82039 0.0
O541 O 0.32581 0.90235 0.80488 0.0
O542 O 0.30956 0.88867 0.7539 0.0
O543 O 0.32529 0.79783 0.76704 0.0
O544 O 0.30063 0.82084 0.7363 0.0
O545 O 0.25227 0.78103 0.78903 0.0
O546 O 0.25992 0.83205 0.77988 0.0
O547 O 0.29331 0.73299 0.77812 0.0
O548 O 0.30366 0.74291 0.82953 0.0
C549 C 0.37389 0.83437 0.81095 0.0
O550 O 0.30478 0.8379 0.82531 0.0
O551 O 0.29711 0.79956 0.85169 0.0
C552 C 0.2924 0.92653 0.78105 0.0
C553 C 0.2511 0.96021 0.788 0.0
C554 C 0.25016 0.93585 0.80463 0.0
C555 C 0.2703 0.91876 0.80075 0.0
C556 C 0.29209 0.94967 0.76309 0.0
C557 C 0.27131 0.9663 0.76634 0.0
C558 C 0.31565 0.91057 0.779 0.0
C559 C 0.30935 0.79692 0.73989 0.0
C560 C 0.24111 0.80366 0.78231 0.0
C561 C 0.32548 0.70816 0.8043 0.0
C562 C 0.36815 0.67525 0.80626 0.0
C563 C 0.354 0.67925 0.77719 0.0
C564 C 0.33273 0.69559 0.7762 0.0
C565 C 0.34116 0.70564 0.83337 0.0
C566 C 0.36256 0.68969 0.83433 0.0
C567 C 0.30116 0.72311 0.80378 0.0
H568 H 0.23417 0.93039 0.82094 0.0
H569 H 0.26865 0.89971 0.8133 0.0
H570 H 0.30836 0.95534 0.7471 0.0
H571 H 0.27205 0.98485 0.75307 0.0
H572 H 0.35818 0.66846 0.75523 0.0
H573 H 0.3212 0.69739 0.75349 0.0
H574 H 0.33638 0.71535 0.85548 0.0
H575 H 0.37398 0.68773 0.85706 0.0
Dy576 Dy 0.56963 0.10536 0.01883 0.0
Dy577 Dy 0.55047 0.05344 0.06087 0.0
C578 C 0.56996 0.03481 0.99617 0.0
O579 O 0.51984 0.09794 0.02081 0.0
O580 O 0.51124 0.04642 0.02138 0.0
O581 O 0.55835 0.12201 0.9766 0.0
O582 O 0.60191 0.14824 0.01046 0.0
O583 O 0.53799 0.09354 0.08586 0.0
O584 O 0.57012 0.13325 0.06618 0.0
O585 O 0.60007 0.08237 0.08159 0.0
O586 O 0.61295 0.0955 0.03564 0.0
O587 O 0.55817 0.03192 0.10064 0.0
O588 O 0.51654 0.00906 0.06379 0.0
C589 C 0.50075 0.06912 0.01613 0.0
O590 O 0.56136 0.05792 0.98721 0.0
O591 O 0.57358 0.03257 0.02597 0.0
C592 C 0.60337 0.14277 0.95681 0.0
C593 C 0.62972 0.13359 0.90397 0.0
C594 C 0.63121 0.1154 0.92709 0.0
C595 C 0.61788 0.11984 0.9534 0.0
C596 C 0.6027 0.16157 0.93417 0.0
C597 C 0.61583 0.15694 0.90769 0.0
C598 C 0.58589 0.14431 0.98204 0.0
C599 C 0.55195 0.12395 0.08662 0.0
C600 C 0.62105 0.0911 0.06408 0.0
C601 C 0.51168 1.00634 0.11588 0.0
C602 C 0.48451 0.01027 0.16889 0.0
C603 C 0.47635 0.02424 0.1439 0.0
C604 C 0.49018 0.02254 0.11751 0.0
C605 C 0.51839 0.9909 0.13993 0.0
C606 C 0.50498 0.99295 0.16641 0.0
C607 C 0.53083 0.00946 0.09189 0.0
H608 H 0.64174 0.09717 0.92425 0.0
H609 H 0.61802 0.10479 0.97057 0.0
H610 H 0.5912 0.17903 0.93649 0.0
H611 H 0.61468 0.17111 0.88986 0.0
H612 H 0.46021 0.03725 0.14523 0.0
H613 H 0.48517 0.03493 0.09908 0.0
H614 H 0.53531 0.97876 0.13902 0.0
H615 H 0.51187 0.9823 0.18562 0.0
Dy616 Dy 0.29223 0.28033 0.28219 0.0
Dy617 Dy 0.33245 0.35066 0.3089 0.0
C618 C 0.31864 0.30128 0.35657 0.0
O619 O 0.2546 0.30018 0.29707 0.0
O620 O 0.28291 0.35299 0.30934 0.0
O621 O 0.25356 0.23795 0.28177 0.0
O622 O 0.27848 0.24119 0.24292 0.0
O623 O 0.311 0.35389 0.26062 0.0
O624 O 0.29858 0.30205 0.2394 0.0
O625 O 0.36941 0.33075 0.29297 0.0
O626 O 0.34208 0.27802 0.28415 0.0
O627 O 0.36988 0.39266 0.30594 0.0
O628 O 0.3498 0.38989 0.34816 0.0
C629 C 0.25587 0.32954 0.3065 0.0
O630 O 0.30915 0.27777 0.33238 0.0
O631 O 0.32676 0.33048 0.35247 0.0
C632 C 0.27036 0.19685 0.26443 0.0
C633 C 0.29855 0.15301 0.27624 0.0
C634 C 0.30676 0.18113 0.29797 0.0
C635 C 0.29268 0.20281 0.29211 0.0
C636 C 0.26246 0.16892 0.24221 0.0
C637 C 0.27663 0.14675 0.2482 0.0
C638 C 0.26003 0.22253 0.25765 0.0
C639 C 0.30326 0.33114 0.2359 0.0
C640 C 0.36876 0.30143 0.28555 0.0
C641 C 0.3551 0.43439 0.32713 0.0
C642 C 0.32075 0.47422 0.321 0.0
C643 C 0.32121 0.45375 0.29432 0.0
C644 C 0.33832 0.43383 0.29733 0.0
C645 C 0.35494 0.45544 0.35372 0.0
C646 C 0.33766 0.47542 0.35064 0.0
C647 C 0.36581 0.40828 0.33145 0.0
H648 H 0.32432 0.18644 0.31935 0.0
H649 H 0.2999 0.22456 0.30902 0.0
H650 H 0.24604 0.16465 0.22026 0.0
H651 H 0.2707 0.12502 0.23118 0.0
H652 H 0.30798 0.4529 0.27135 0.0
H653 H 0.33729 0.41718 0.27656 0.0
H654 H 0.36692 0.45533 0.37693 0.0
H655 H 0.33718 0.49149 0.37123 0.0
Dy656 Dy 0.57409 0.54071 0.04121 0.0
Dy657 Dy 0.54565 0.59735 0.04476 0.0
C658 C 0.50225 0.52874 0.04811 0.0
O659 O 0.5707 0.55112 0.99215 0.0
O660 O 0.53068 0.57078 0.99469 0.0
O661 O 0.57054 0.49296 0.02261 0.0
O662 O 0.61042 0.52305 0.05878 0.0
O663 O 0.59113 0.61436 0.02788 0.0
O664 O 0.61626 0.58423 0.04962 0.0
O665 O 0.56562 0.59991 0.09563 0.0
O666 O 0.56778 0.54988 0.09108 0.0
O667 O 0.55337 0.64658 0.06072 0.0
O668 O 0.50956 0.6163 0.02952 0.0
C669 C 0.54829 0.55991 0.97808 0.0
O670 O 0.5217 0.51899 0.03337 0.0
O671 O 0.50867 0.55891 0.05901 0.0
C672 C 0.58837 0.4707 0.06362 0.0
C673 C 0.57601 0.42528 0.10185 0.0
C674 C 0.55618 0.44305 0.09763 0.0
C675 C 0.56269 0.46605 0.0791 0.0
C676 C 0.60875 0.45368 0.06858 0.0
C677 C 0.6027 0.43114 0.08778 0.0
C678 C 0.59459 0.49437 0.04359 0.0
C679 C 0.6171 0.60878 0.03699 0.0
C680 C 0.56923 0.57644 0.10838 0.0
C681 C 0.53284 0.66732 0.02029 0.0
C682 C 0.54353 0.7109 0.97986 0.0
C683 C 0.55689 0.68704 0.9774 0.0
C684 C 0.55144 0.66524 0.99743 0.0
C685 C 0.51973 0.69118 0.02292 0.0
C686 C 0.52513 0.71292 0.00296 0.0
C687 C 0.52784 0.64522 0.04201 0.0
H688 H 0.5357 0.43909 0.10864 0.0
H689 H 0.54766 0.48016 0.07675 0.0
H690 H 0.62912 0.45765 0.05743 0.0
H691 H 0.61827 0.41765 0.09088 0.0
H692 H 0.57121 0.6851 0.95987 0.0
H693 H 0.56177 0.64685 0.99513 0.0
H694 H 0.50557 0.69318 0.0406 0.0
H695 H 0.51523 0.7316 0.00588 0.0
Dy696 Dy 0.81115 0.35532 0.28017 0.0
Dy697 Dy 0.79995 0.27811 0.30663 0.0
C698 C 0.80383 0.33129 0.3467 0.0
O699 O 0.8607 0.35172 0.29174 0.0
O700 O 0.85318 0.30417 0.31111 0.0
O701 O 0.82143 0.40079 0.30903 0.0
O702 O 0.81209 0.39478 0.25775 0.0
O703 O 0.80425 0.30085 0.26539 0.0
O704 O 0.81231 0.33194 0.23243 0.0
O705 O 0.75067 0.28134 0.29458 0.0
O706 O 0.75791 0.32907 0.27583 0.0
O707 O 0.7894 0.23053 0.2814 0.0
O708 O 0.8005 0.24191 0.33299 0.0
C709 C 0.87167 0.33059 0.30356 0.0
O710 O 0.81086 0.33098 0.31915 0.0
O711 O 0.79766 0.30365 0.35366 0.0
C712 C 0.79216 0.42889 0.28622 0.0
C713 C 0.74923 0.46076 0.28988 0.0
C714 C 0.74735 0.43592 0.30612 0.0
C715 C 0.76862 0.4199 0.30418 0.0
C716 C 0.79325 0.45279 0.26902 0.0
C717 C 0.77191 0.46874 0.27087 0.0
C718 C 0.81538 0.41319 0.28475 0.0
C719 C 0.8096 0.30394 0.23731 0.0
C720 C 0.73957 0.30245 0.28319 0.0
C721 C 0.8202 0.20501 0.3088 0.0
C722 C 0.86294 0.1722 0.31102 0.0
C723 C 0.85694 0.18532 0.28466 0.0
C724 C 0.83563 0.20148 0.28364 0.0
C725 C 0.82757 0.19341 0.33588 0.0
C726 C 0.84901 0.17738 0.33711 0.0
C727 C 0.79686 0.22112 0.30759 0.0
H728 H 0.72984 0.42938 0.32075 0.0
H729 H 0.76699 0.40095 0.31712 0.0
H730 H 0.81103 0.45955 0.25473 0.0
H731 H 0.77399 0.48814 0.25851 0.0
H732 H 0.86743 0.18172 0.26425 0.0
H733 H 0.83033 0.21022 0.26284 0.0
H734 H 0.81637 0.19629 0.35591 0.0
H735 H 0.85398 0.1682 0.3581 0.0
Dy736 Dy 0.06579 0.60581 0.51253 0.0
Dy737 Dy 0.05186 0.55654 0.55951 0.0
C738 C 0.0671 0.53546 0.49092 0.0
O739 O 1.01649 0.57311 0.49722 0.0
O740 O 1.01037 0.57071 0.54715 0.0
O741 O 0.0515 0.61925 0.46905 0.0
O742 O 0.09313 0.65041 0.50243 0.0
O743 O 0.0619 0.60364 0.59158 0.0
O744 O 0.05145 0.63089 0.5535 0.0
O745 O 0.10147 0.56418 0.55837 0.0
O746 O 0.11257 0.6102 0.53913 0.0
O747 O 0.06097 0.53849 0.60129 0.0
O748 O 0.01935 0.51248 0.56455 0.0
C749 C 0.99839 0.56925 0.51797 0.0
O750 O 0.0781 0.56525 0.48839 0.0
O751 O 0.05122 0.52694 0.51314 0.0
C752 C 0.09566 0.64446 0.44904 0.0
C753 C 0.13346 0.64515 0.40371 0.0
C754 C 0.12137 0.61776 0.41577 0.0
C755 C 0.10268 0.61746 0.4383 0.0
C756 C 0.10737 0.67181 0.4368 0.0
C757 C 0.12611 0.67209 0.41393 0.0
C758 C 0.07704 0.64393 0.47374 0.0
C759 C 0.05509 0.62797 0.58338 0.0
C760 C 0.12107 0.5885 0.55087 0.0
C761 C 1.01477 0.51207 0.61658 0.0
C762 C 0.98345 0.5112 0.66675 0.0
C763 C 0.98469 0.53418 0.64821 0.0
C764 C 1.00039 0.53464 0.62313 0.0
C765 C 1.01244 0.48835 0.63411 0.0
C766 C 0.99684 0.48794 0.65927 0.0
C767 C 0.03425 0.51485 0.59308 0.0
H768 H 0.12628 0.59651 0.40759 0.0
H769 H 0.09369 0.59607 0.44725 0.0
H770 H 0.10216 0.69284 0.44499 0.0
H771 H 0.13514 0.69328 0.40452 0.0
H772 H 0.97458 0.55236 0.65389 0.0
H773 H 1.00233 0.55318 0.60957 0.0
H774 H 0.02374 0.47103 0.62916 0.0
H775 H 0.99675 0.47052 0.67387 0.0
Dy776 Dy 0.83678 0.80355 0.29821 0.0
Dy777 Dy 0.77865 0.83028 0.29385 0.0
C778 C 0.84699 0.87515 0.2895 0.0
O779 O 0.82818 0.80897 0.34803 0.0
O780 O 0.80377 0.84559 0.34431 0.0
O781 O 0.88454 0.80626 0.31545 0.0
O782 O 0.85256 0.76565 0.28118 0.0
O783 O 0.76464 0.78689 0.31406 0.0
O784 O 0.79245 0.76179 0.28837 0.0
O785 O 0.77667 0.80706 0.24387 0.0
O786 O 0.82861 0.81227 0.24917 0.0
O787 O 0.72895 0.8201 0.27803 0.0
O788 O 0.75811 0.86586 0.30666 0.0
C789 C 0.81662 0.82955 0.36129 0.0
O790 O 0.85876 0.85569 0.30213 0.0
O791 O 0.8165 0.86869 0.28086 0.0
C792 C 0.90429 0.78545 0.274 0.0
C793 C 0.94877 0.79703 0.23492 0.0
C794 C 0.92359 0.80823 0.23051 0.0
C795 C 0.90146 0.80244 0.24994 0.0
C796 C 0.92861 0.77291 0.27746 0.0
C797 C 0.95082 0.77864 0.25788 0.0
C798 C 0.88171 0.78105 0.2952 0.0
C799 C 0.76972 0.76098 0.30382 0.0
C800 C 0.80134 0.80717 0.2312 0.0
C801 C 0.70784 0.84239 0.31811 0.0
C802 C 0.66629 0.83625 0.36083 0.0
C803 C 0.674 0.81018 0.34828 0.0
C804 C 0.69482 0.81325 0.32726 0.0
C805 C 0.70078 0.8686 0.33141 0.0
C806 C 0.68028 0.8656 0.35275 0.0
C807 C 0.72951 0.84606 0.29561 0.0
H808 H 0.92145 0.82193 0.21244 0.0
H809 H 0.88245 0.81165 0.24651 0.0
H810 H 0.93075 0.75932 0.29561 0.0
H811 H 0.97017 0.76971 0.26134 0.0
H812 H 0.66383 0.78746 0.35468 0.0
H813 H 0.7005 0.79279 0.31805 0.0
H814 H 0.711 0.89135 0.32511 0.0
H815 H 0.67473 0.88602 0.36238 0.0
Dy816 Dy 0.82559 0.32533 0.78467 0.0
Dy817 Dy 0.775 0.31077 0.82862 0.0
C818 C 0.82156 0.37502 0.83521 0.0
O819 O 0.85528 0.31404 0.82303 0.0
O820 O 0.81881 0.30269 0.85533 0.0
O821 O 0.85517 0.36448 0.76846 0.0
O822 O 0.85451 0.31694 0.75175 0.0
O823 O 0.76529 0.26624 0.79567 0.0
O824 O 0.81214 0.27449 0.77912 0.0
O825 O 0.745 0.31896 0.78745 0.0
O826 O 0.78118 0.32716 0.75511 0.0
O827 O 0.73484 0.2809 0.84391 0.0
O828 O 0.76081 0.3287 0.86994 0.0
C829 C 0.84728 0.30516 0.84904 0.0
O830 O 0.83751 0.35655 0.83112 0.0
O831 O 0.79129 0.36179 0.82824 0.0
C832 C 0.85195 0.34857 0.71441 0.0
C833 C 0.82844 0.34959 0.65236 0.0
C834 C 0.825 0.3706 0.67701 0.0
C835 C 0.83672 0.37016 0.70794 0.0
C836 C 0.8545 0.327 0.68952 0.0
C837 C 0.84282 0.32757 0.65858 0.0
C838 C 0.86166 0.34586 0.74693 0.0
C839 C 0.78674 0.25597 0.78592 0.0
C840 C 0.75292 0.32528 0.76054 0.0
C841 C 0.7465 0.28994 0.89948 0.0
C842 C 0.76671 0.27387 0.956 0.0
C843 C 0.76175 0.25311 0.92733 0.0
C844 C 0.75186 0.26116 0.89913 0.0
C845 C 0.75169 0.31067 0.92819 0.0
C846 C 0.76213 0.30287 0.95628 0.0
C847 C 0.74065 0.3011 0.87029 0.0
H848 H 0.81476 0.38837 0.67224 0.0
H849 H 0.83399 0.38685 0.72663 0.0
H850 H 0.86568 0.30987 0.69401 0.0
H851 H 0.84624 0.31184 0.63943 0.0
H852 H 0.76504 0.2305 0.9268 0.0
H853 H 0.74886 0.24509 0.87721 0.0
H854 H 0.74851 0.33333 0.92877 0.0
H855 H 0.76641 0.31935 0.97824 0.0
Dy856 Dy 0.79235 0.78258 0.78165 0.0
Dy857 Dy 0.83319 0.85194 0.81125 0.0
C858 C 0.82062 0.80132 0.8572 0.0
O859 O 0.75445 0.80528 0.78583 0.0
O860 O 0.78423 0.85015 0.82094 0.0
O861 O 0.75402 0.73997 0.7814 0.0
O862 O 0.77747 0.74417 0.74155 0.0
O863 O 0.81246 0.85471 0.76172 0.0
O864 O 0.80368 0.80387 0.74039 0.0
O865 O 0.87058 0.8329 0.79499 0.0
O866 O 0.84275 0.78014 0.78428 0.0
O867 O 0.86847 0.89505 0.80711 0.0
O868 O 0.84906 0.89196 0.84963 0.0
C869 C 0.75601 0.83016 0.80651 0.0
O870 O 0.80099 0.7805 0.83321 0.0
O871 O 0.83813 0.82912 0.85332 0.0
C872 C 0.77149 0.70015 0.76276 0.0
C873 C 0.80071 0.65711 0.77374 0.0
C874 C 0.81128 0.6866 0.79369 0.0
C875 C 0.79669 0.70795 0.78825 0.0
C876 C 0.76134 0.67097 0.74209 0.0
C877 C 0.77606 0.64917 0.74769 0.0
C878 C 0.75993 0.72508 0.75659 0.0
C879 C 0.80775 0.83267 0.73684 0.0
C880 C 0.86979 0.8036 0.78649 0.0
C881 C 0.85236 0.93625 0.82812 0.0
C882 C 0.81615 0.97471 0.82055 0.0
C883 C 0.82138 0.95756 0.79393 0.0
C884 C 0.8393 0.9383 0.79766 0.0
C885 C 0.84794 0.95429 0.85464 0.0
C886 C 0.82961 0.97317 0.85089 0.0
C887 C 0.86406 0.91056 0.83247 0.0
H888 H 0.83086 0.6931 0.81348 0.0
H889 H 0.80557 0.73085 0.8037 0.0
H890 H 0.74258 0.66535 0.72175 0.0
H891 H 0.76827 0.62632 0.73208 0.0
H892 H 0.81109 0.95856 0.77033 0.0
H893 H 0.84167 0.92404 0.77672 0.0
H894 H 0.85706 0.95226 0.87825 0.0
H895 H 0.82506 0.9857 0.87169 0.0
Dy896 Dy 0.59226 0.58403 0.55767 0.0
Dy897 Dy 0.52278 0.54288 0.52806 0.0
C898 C 0.57169 0.55916 0.48244 0.0
O899 O 0.57346 0.62223 0.54182 0.0
O900 O 0.52088 0.59396 0.53248 0.0
O901 O 0.63656 0.61869 0.55518 0.0
O902 O 0.632 0.5971 0.59621 0.0
O903 O 0.5225 0.55015 0.57998 0.0
O904 O 0.56927 0.59027 0.59919 0.0
O905 O 0.54498 0.50392 0.53262 0.0
O906 O 0.59017 0.53452 0.56696 0.0
O907 O 0.47908 0.5065 0.52929 0.0
O908 O 0.48348 0.52894 0.48888 0.0
C909 C 0.54391 0.6213 0.53412 0.0
O910 O 0.5937 0.5643 0.50731 0.0
O911 O 0.54269 0.55418 0.48573 0.0
C912 C 0.67447 0.59771 0.57297 0.0
C913 C 0.71448 0.5647 0.56009 0.0
C914 C 0.6858 0.55738 0.53965 0.0
C915 C 0.66605 0.5738 0.54606 0.0
C916 C 0.70265 0.60418 0.59435 0.0
C917 C 0.72286 0.58761 0.58782 0.0
C918 C 0.65127 0.61212 0.57968 0.0
C919 C 0.54248 0.57118 0.60351 0.0
C920 C 0.57042 0.50594 0.55298 0.0
C921 C 0.44167 0.52833 0.51286 0.0
C922 C 0.4057 0.56588 0.52559 0.0
C923 C 0.43334 0.57037 0.54667 0.0
C924 C 0.4511 0.55171 0.54034 0.0
C925 C 0.41439 0.52425 0.49118 0.0
C926 C 0.39624 0.54309 0.49762 0.0
C927 C 0.46428 0.51358 0.50525 0.0
H928 H 0.679 0.53937 0.51836 0.0
H929 H 0.64414 0.56757 0.52986 0.0
H930 H 0.70888 0.6218 0.6158 0.0
H931 H 0.7451 0.59302 0.60381 0.0
H932 H 0.44144 0.58864 0.56783 0.0
H933 H 0.47296 0.55651 0.55644 0.0
H934 H 0.40769 0.50724 0.46923 0.0
H935 H 0.37502 0.53999 0.48098 0.0
Dy936 Dy 0.02119 0.55874 0.06289 0.0
Dy937 Dy 0.08669 0.5679 0.03708 0.0
C938 C 0.0257 0.56508 0.99092 0.0
O939 O 0.01807 0.50712 0.05202 0.0
O940 O 0.06437 0.51438 0.03354 0.0
O941 O 0.97067 0.54227 0.05909 0.0
O942 O 1.00108 0.57472 0.10111 0.0
O943 O 0.09506 0.5847 0.0885 0.0
O944 O 0.053 0.54782 0.0984 0.0
O945 O 0.08605 0.61809 0.03989 0.0
O946 O 0.04632 0.61228 0.06817 0.0
O947 O 0.13695 0.58136 0.0519 0.0
O948 O 0.11513 0.56031 0.00301 0.0
C949 C 0.03833 0.49543 0.04035 0.0
O950 O 1.0086 0.55793 0.0123 0.0
O951 O 0.056 0.57059 0.995 0.0
C952 C 0.9553 0.58381 0.08058 0.0
C953 C 0.92103 0.62395 0.06912 0.0
C954 C 0.9475 0.62582 0.05547 0.0
C955 C 0.96455 0.60593 0.06122 0.0
C956 C 0.92958 0.58264 0.09517 0.0
C957 C 0.9125 0.60266 0.08951 0.0
C958 C 0.97237 0.56181 0.08477 0.0
C959 C 0.08196 0.56677 0.10707 0.0
C960 C 0.06878 0.63063 0.05585 0.0
C961 C 0.15744 0.54605 0.02519 0.0
C962 C 0.19131 0.50412 0.02586 0.0
C963 C 0.17448 0.508 0.04989 0.0
C964 C 0.1575 0.5287 0.04949 0.0
C965 C 0.17381 0.54183 1.00104 0.0
C966 C 0.19078 0.52121 1.00145 0.0
C967 C 0.14056 0.56865 0.02465 0.0
H968 H 0.95473 0.64244 0.04011 0.0
H969 H 0.98474 0.60747 0.05024 0.0
H970 H 0.92233 0.56585 0.11036 0.0
H971 H 0.89202 0.60075 0.10015 0.0
H972 H 0.17441 0.49499 0.06889 0.0
H973 H 0.14463 0.53129 0.06823 0.0
H974 H 0.17387 0.5549 0.98208 0.0
H975 H 0.20411 0.51923 0.98301 0.0
C976 C 1.00099 0.18502 0.02452 0.0
C977 C 0.02133 0.20936 0.01204 0.0
C978 C 1.0081 0.15759 0.03119 0.0
C979 C 0.03669 0.15264 0.02702 0.0
H980 H 0.97875 0.18684 0.02885 0.0
H981 H 0.99098 0.14019 0.04026 0.0
S982 S 0.0988 0.20807 0.99465 0.0
N983 N 0.07166 0.225 0.99509 0.0
N984 N 0.08548 0.17554 0.00886 0.0
C985 C 0.05744 0.1769 0.01486 0.0
C986 C 0.04974 0.20435 0.00713 0.0
C987 C 0.17694 0.83501 0.21404 0.0
C988 C 0.1826 0.83818 0.18327 0.0
C989 C 0.19852 0.82873 0.237 0.0
C990 C 0.22683 0.82492 0.23039 0.0
H991 H 0.15552 0.83721 0.22048 0.0
H992 H 0.19292 0.82689 0.26015 0.0
S993 S 0.25243 0.82948 0.15333 0.0
N994 N 0.21886 0.83623 0.14788 0.0
N995 N 0.25839 0.8242 0.1899 0.0
C996 C 0.23248 0.82783 0.19967 0.0
C997 C 0.2108 0.83447 0.17658 0.0
C998 C 0.54899 0.91258 0.51459 0.0
C999 C 0.52108 0.89019 0.51933 0.0
C1000 C 0.55451 0.94574 0.52 0.0
C1001 C 0.53237 0.95911 0.53011 0.0
H1002 H 0.56699 0.90444 0.50649 0.0
H1003 H 0.57664 0.9611 0.51599 0.0
S1004 S 0.45398 0.91117 0.54382 0.0
N1005 N 0.47019 0.8845 0.53363 0.0
N1006 N 0.48019 0.94577 0.54331 0.0
C1007 C 0.50407 0.93692 0.53453 0.0
C1008 C 0.49859 0.90308 0.52929 0.0
C1009 C 0.48611 0.32866 0.66761 0.0
C1010 C 0.51313 0.31984 0.67064 0.0
C1011 C 0.46543 0.32248 0.68876 0.0
C1012 C 0.47086 0.30704 0.71361 0.0
H1013 H 0.48102 0.34079 0.64899 0.0
H1014 H 0.44494 0.32975 0.68558 0.0
S1015 S 0.53772 0.27849 0.73175 0.0
N1016 N 0.54376 0.29416 0.70026 0.0
N1017 N 0.50505 0.28308 0.74016 0.0
C1018 C 0.49752 0.29776 0.71673 0.0
C1019 C 0.51863 0.30405 0.69526 0.0
C1020 C 0.02526 0.85306 0.62902 0.0
C1021 C 0.04748 0.84901 0.65228 0.0
C1022 C 0.03372 0.87772 0.61252 0.0
C1023 C 0.06479 0.89906 0.61841 0.0
H1024 H 1.00104 0.83709 0.62346 0.0
H1025 H 1.01589 0.87979 0.5946 0.0
S1026 S 0.13199 0.89969 0.67719 0.0
N1027 N 0.10214 0.86905 0.68066 0.0
N1028 N 0.11777 0.91543 0.64938 0.0
C1029 C 0.0873 0.89559 0.64164 0.0
C1030 C 0.07871 0.87058 0.65868 0.0
C1031 C 0.44971 0.81804 0.84059 0.0
C1032 C 0.47477 0.84134 0.83254 0.0
C1033 C 0.41809 0.81649 0.8335 0.0
C1034 C 0.40887 0.83804 0.81755 0.0
H1035 H 0.45481 0.80149 0.85425 0.0
H1036 H 0.40076 0.79819 0.84137 0.0
S1037 S 0.46459 0.90269 0.78854 0.0
N1038 N 0.48776 0.88603 0.80625 0.0
N1039 N 0.42823 0.8827 0.79178 0.0
C1040 C 0.43344 0.8608 0.80786 0.0
C1041 C 0.46615 0.86249 0.8155 0.0
C1042 C 0.51972 0.16086 0.15362 0.0
C1043 C 0.5343 0.19377 0.1564 0.0
C1044 C 0.52533 0.13873 0.13109 0.0
C1045 C 0.54625 0.14824 0.11035 0.0
H1046 H 0.50393 0.15199 0.16925 0.0
H1047 H 0.51328 0.11385 0.13021 0.0
S1048 S 0.59184 0.23165 0.10862 0.0
N1049 N 0.57127 0.23459 0.13652 0.0
N1050 N 0.5821 0.19348 0.09483 0.0
C1051 C 0.56103 0.18113 0.11289 0.0
C1052 C 0.55502 0.20366 0.13562 0.0
C1053 C 0.17638 0.32582 0.33597 0.0
C1054 C 0.16857 0.35119 0.32558 0.0
C1055 C 0.20385 0.31853 0.32958 0.0
C1056 C 0.22587 0.33661 0.31314 0.0
H1057 H 0.1606 0.31072 0.34826 0.0
H1058 H 0.20797 0.29858 0.33789 0.0
S1059 S 0.21684 0.40431 0.27941 0.0
N1060 N 0.18593 0.39328 0.29643 0.0
N1061 N 0.23671 0.38053 0.28618 0.0
C1062 C 0.21847 0.36193 0.30304 0.0
C1063 C 0.19034 0.36884 0.3087 0.0
C1064 C 1.00096 0.06798 0.17519 0.0
C1065 C 0.02339 0.06445 0.19883 0.0
C1066 C 1.00717 0.07112 0.14468 0.0
C1067 C 0.03638 0.07188 0.13697 0.0
H1068 H 0.97794 0.06692 0.17983 0.0
H1069 H 0.98889 0.07269 0.12695 0.0
S1070 S 0.10342 0.06463 0.19053 0.0
N1071 N 0.07616 0.06249 0.21226 0.0
N1072 N 0.08807 0.06932 0.15578 0.0
C1073 C 0.05932 0.0695 0.16074 0.0
C1074 C 0.05277 0.06558 0.19139 0.0
C1075 C 0.31395 0.74173 0.51515 0.0
C1076 C 0.30034 0.74736 0.54145 0.0
C1077 C 0.30666 0.75258 0.4877 0.0
C1078 C 0.28565 0.76938 0.48581 0.0
H1079 H 0.32864 0.72711 0.51497 0.0
H1080 H 0.31632 0.74652 0.46734 0.0
S1081 S 0.24642 0.79309 0.54907 0.0
N1082 N 0.26762 0.77374 0.56497 0.0
N1083 N 0.25311 0.7931 0.51286 0.0
C1084 C 0.2738 0.77719 0.51262 0.0
C1085 C 0.28149 0.76652 0.54067 0.0
C1086 C 0.6331 0.04356 0.66608 0.0
C1087 C 0.653 0.07428 0.68061 0.0
C1088 C 0.60618 0.03866 0.64395 0.0
C1089 C 0.5982 0.06429 0.63616 0.0
H1090 H 0.63877 0.02312 0.67105 0.0
H1091 H 0.59245 0.01481 0.63154 0.0
S1092 S 0.642 0.14926 0.6671 0.0
N1093 N 0.66286 0.13077 0.68518 0.0
N1094 N 0.61111 0.12114 0.64436 0.0
C1095 C 0.61684 0.09503 0.65138 0.0
C1096 C 0.64474 0.10015 0.67338 0.0
C1097 C 0.31048 0.36723 0.9448 0.0
C1098 C 0.31429 0.34567 0.96393 0.0
C1099 C 0.3113 0.36174 0.91238 0.0
C1100 C 0.31604 0.33447 0.8975 0.0
H1101 H 0.30787 0.3891 0.95511 0.0
H1102 H 0.30865 0.37937 0.89898 0.0
S1103 S 0.32433 0.26916 0.93627 0.0
N1104 N 0.32088 0.29489 0.96494 0.0
N1105 N 0.32255 0.2847 0.90436 0.0
C1106 C 0.31899 0.31232 0.91617 0.0
C1107 C 0.31803 0.31786 0.94916 0.0
C1108 C 0.05675 0.05913 0.39294 0.0
C1109 C 0.02739 0.05849 0.37701 0.0
C1110 C 0.06222 0.05847 0.42541 0.0
C1111 C 0.03844 0.05684 0.4433 0.0
H1112 H 0.07568 0.06 0.38017 0.0
H1113 H 0.08537 0.05954 0.4366 0.0
S1114 S 0.95625 0.05091 0.41221 0.0
N1115 N 0.9736 0.05399 0.38141 0.0
N1116 N 0.98365 0.05235 0.44193 0.0
C1117 C 1.00879 0.05555 0.4275 0.0
C1118 C 1.00333 0.05651 0.39457 0.0
C1119 C 0.31586 0.72424 0.69569 0.0
C1120 C 0.28721 0.71158 0.6741 0.0
C1121 C 0.32295 0.75256 0.71642 0.0
C1122 C 0.30168 0.76909 0.71595 0.0
H1123 H 0.33349 0.71291 0.69552 0.0
H1124 H 0.34549 0.76182 0.73265 0.0
S1125 S 0.22293 0.74531 0.66512 0.0
N1126 N 0.23684 0.71701 0.65404 0.0
N1127 N 0.25047 0.77069 0.69387 0.0
C1128 C 0.27259 0.75647 0.69528 0.0
C1129 C 0.26515 0.72736 0.67424 0.0
C1130 C 0.63077 0.10898 0.81834 0.0
C1131 C 0.66307 0.11592 0.81874 0.0
C1132 C 0.62002 0.1144 0.84635 0.0
C1133 C 0.64141 0.12722 0.87518 0.0
H1134 H 0.61391 0.09998 0.79624 0.0
H1135 H 0.59494 0.10898 0.84546 0.0
S1136 S 0.72834 0.15136 0.8882 0.0
N1137 N 0.71638 0.13689 0.84994 0.0
N1138 N 0.69597 0.14776 0.90263 0.0
C1139 C 0.67369 0.13419 0.8759 0.0
C1140 C 0.68461 0.12835 0.84753 0.0
C1141 C 0.31611 0.32683 0.15112 0.0
C1142 C 0.31088 0.35367 0.14223 0.0
C1143 C 0.31241 0.31928 0.18083 0.0
C1144 C 0.30368 0.3384 0.20349 0.0
H1145 H 0.32381 0.31162 0.13517 0.0
H1146 H 0.31761 0.29879 0.18643 0.0
S1147 S 0.28408 0.40955 0.19176 0.0
N1148 N 0.29402 0.39815 0.15824 0.0
N1149 N 0.28759 0.38408 0.21428 0.0
C1150 C 0.29725 0.36466 0.19475 0.0
C1151 C 0.30062 0.3722 0.16414 0.0
C1152 C 0.284 0.04669 0.05835 0.0
C1153 C 0.27241 0.01529 0.04233 0.0
C1154 C 0.26343 0.06124 0.068 0.0
C1155 C 0.23089 0.04473 0.06148 0.0
H1156 H 0.30899 0.06024 0.06292 0.0
H1157 H 0.2729 0.08596 0.07928 0.0
S1158 S 0.1891 0.96165 0.02072 0.0
N1159 N 0.22678 0.96756 0.02085 0.0
N1160 N 0.18774 0.99532 0.03911 0.0
C1161 C 0.21898 0.01297 0.04621 0.0
C1162 C 0.23995 0.99805 0.0366 0.0
C1163 C 0.67521 0.67518 0.00947 0.0
C1164 C 0.70484 0.67473 0.02317 0.0
C1165 C 0.64717 0.65339 0.01358 0.0
C1166 C 0.64743 0.63011 0.03163 0.0
H1167 H 0.67356 0.69317 0.99615 0.0
H1168 H 0.62511 0.65532 0.00293 0.0
S1169 S 0.71874 0.61737 0.07104 0.0
N1170 N 0.73276 0.64795 0.05432 0.0
N1171 N 0.67997 0.60686 0.06202 0.0
C1172 C 0.67686 0.62845 0.04438 0.0
C1173 C 0.70555 0.65072 0.04013 0.0
C1174 C 0.71328 0.51406 0.33251 0.0
C1175 C 0.69628 0.52221 0.30772 0.0
C1176 C 0.72961 0.49336 0.32639 0.0
C1177 C 0.72968 0.48035 0.29528 0.0
H1178 H 0.71408 0.52378 0.35686 0.0
H1179 H 0.74295 0.48815 0.34616 0.0
S1180 S 0.6889 0.49382 0.22189 0.0
N1181 N 0.6804 0.51548 0.25066 0.0
N1182 N 0.71122 0.47629 0.23938 0.0
C1183 C 0.71263 0.48795 0.2702 0.0
C1184 C 0.69582 0.50894 0.27637 0.0
C1185 C 0.91681 0.544 0.53037 0.0
C1186 C 0.90743 0.5119 0.51715 0.0
C1187 C 0.94548 0.56467 0.52639 0.0
C1188 C 0.96471 0.55349 0.50878 0.0
H1189 H 0.90333 0.55259 0.54576 0.0
H1190 H 0.95414 0.58871 0.53967 0.0
S1191 S 0.94701 0.47227 0.46509 0.0
N1192 N 0.91659 0.4705 0.48231 0.0
N1193 N 0.97059 0.50952 0.47479 0.0
C1194 C 0.9536 0.52221 0.49244 0.0
C1195 C 0.92479 0.5012 0.49681 0.0
C1196 C 0.33102 0.10572 0.32436 0.0
C1197 C 0.3547 0.10171 0.30858 0.0
C1198 C 0.31088 0.12024 0.31206 0.0
C1199 C 0.31394 0.13103 0.28374 0.0
H1200 H 0.3285 0.09848 0.34677 0.0
H1201 H 0.29382 0.12452 0.32551 0.0
S1202 S 0.37063 0.12465 0.23245 0.0
N1203 N 0.37882 0.10784 0.26212 0.0
N1204 N 0.34099 0.1363 0.23958 0.0
C1205 C 0.33651 0.12618 0.26702 0.0
C1206 C 0.35703 0.11123 0.2794 0.0
C1207 C 0.34314 0.13797 0.53744 0.0
C1208 C 0.35199 0.17103 0.54582 0.0
C1209 C 0.36512 0.12286 0.54257 0.0
C1210 C 0.39663 0.14021 0.55639 0.0
H1211 H 0.31903 0.12351 0.52671 0.0
H1212 H 0.35741 0.09737 0.53578 0.0
S1213 S 0.43241 0.22678 0.58326 0.0
N1214 N 0.39495 0.2206 0.56906 0.0
N1215 N 0.43616 0.19159 0.5787 0.0
C1216 C 0.40609 0.17308 0.56505 0.0
C1217 C 0.38375 0.18867 0.55974 0.0
C1218 C 0.72028 0.6745 0.29282 0.0
C1219 C 0.70398 0.67449 0.31798 0.0
C1220 C 0.74278 0.70238 0.28899 0.0
C1221 C 0.74955 0.73095 0.31025 0.0
H1222 H 0.71421 0.65335 0.27494 0.0
H1223 H 0.75365 0.7019 0.26843 0.0
S1224 S 0.71777 0.74157 0.38329 0.0
N1225 N 0.69904 0.70411 0.36652 0.0
N1226 N 0.74172 0.75638 0.35982 0.0
C1227 C 0.73517 0.73053 0.33679 0.0
C1228 C 0.71222 0.7023 0.34052 0.0
C1229 C 0.83359 0.45996 0.83245 0.0
C1230 C 0.86375 0.46969 0.8251 0.0
C1231 C 0.81972 0.42888 0.83609 0.0
C1232 C 0.83663 0.40793 0.83407 0.0
H1233 H 0.82144 0.47663 0.83677 0.0
H1234 H 0.79621 0.42152 0.84136 0.0
S1235 S 0.91517 0.42265 0.81163 0.0
N1236 N 0.90648 0.45468 0.80868 0.0
N1237 N 0.8857 0.39995 0.82495 0.0
C1238 C 0.86693 0.41797 0.82672 0.0
C1239 C 0.8789 0.44789 0.81929 0.0
C1240 C 0.07943 0.93825 0.0982 0.0
C1241 C 0.09139 0.91947 0.07781 0.0
C1242 C 0.07355 0.96619 0.091 0.0
C1243 C 0.07914 0.97777 0.06283 0.0
H1244 H 0.07479 0.93152 0.12038 0.0
H1245 H 0.06452 0.97898 0.10797 0.0
S1246 S 0.10561 0.93594 0.99865 0.0
N1247 N 0.10561 0.91437 0.02616 0.0
N1248 N 0.09453 0.96535 0.01311 0.0
C1249 C 0.09001 0.95874 0.04185 0.0
C1250 C 0.09612 0.93041 0.04915 0.0
C1251 C 0.8878 0.27382 0.91499 0.0
C1252 C 0.92043 0.28787 0.91535 0.0
C1253 C 0.86432 0.27949 0.89394 0.0
C1254 C 0.87222 0.29971 0.87227 0.0
H1255 H 0.88026 0.25827 0.93121 0.0
H1256 H 0.83974 0.26774 0.89455 0.0
S1257 S 0.95417 0.3458 0.86615 0.0
N1258 N 0.95902 0.32501 0.89334 0.0
N1259 N 0.91569 0.33582 0.85462 0.0
C1260 C 0.9048 0.31445 0.87292 0.0
C1261 C 0.92857 0.30852 0.89412 0.0
C1262 C 0.61088 0.22338 0.56272 0.0
C1263 C 0.58964 0.23713 0.57458 0.0
C1264 C 0.6054 0.19006 0.55806 0.0
C1265 C 0.57815 0.16809 0.56471 0.0
H1266 H 0.63244 0.23862 0.55749 0.0
H1267 H 0.62283 0.18153 0.54914 0.0
S1268 S 0.51434 0.19077 0.59544 0.0
N1269 N 0.53979 0.22482 0.59242 0.0
N1270 N 0.52943 0.16372 0.58352 0.0
C1271 C 0.55669 0.18162 0.57624 0.0
C1272 C 0.56238 0.21539 0.58119 0.0
C1273 C 0.62954 0.84719 0.43247 0.0
C1274 C 0.59827 0.82605 0.42234 0.0
C1275 C 0.65143 0.85051 0.41241 0.0
C1276 C 0.64293 0.83263 0.38162 0.0
H1277 H 0.63733 0.86123 0.45615 0.0
H1278 H 0.67528 0.86689 0.42115 0.0
S1279 S 0.56401 0.77577 0.34248 0.0
N1280 N 0.55977 0.78819 0.37847 0.0
N1281 N 0.60122 0.79435 0.34115 0.0
C1282 C 0.61183 0.81181 0.37092 0.0
C1283 C 0.58941 0.80857 0.39117 0.0
C1284 C 0.06686 0.26928 0.42393 0.0
C1285 C 0.05067 0.29014 0.43151 0.0
C1286 C 0.06319 0.24263 0.43803 0.0
C1287 C 0.0431 0.23606 0.45991 0.0
H1288 H 0.08197 0.27323 0.4067 0.0
H1289 H 0.07576 0.22687 0.43149 0.0
S1290 S 0.9982 0.28489 0.4905 0.0
N1291 N 1.01551 0.30324 0.46435 0.0
N1292 N 1.00921 0.25376 0.49055 0.0
C1293 C 0.0277 0.25722 0.46837 0.0
C1294 C 0.03132 0.28409 0.45425 0.0
C1295 C 0.65777 0.31151 0.25977 0.0
C1296 C 0.6361 0.28667 0.27 0.0
C1297 C 0.69057 0.31628 0.26411 0.0
C1298 C 0.70397 0.29634 0.27868 0.0
H1299 H 0.64931 0.32744 0.24785 0.0
H1300 H 0.70554 0.33584 0.2556 0.0
S1301 S 0.65788 0.2272 0.30958 0.0
N1302 N 0.63105 0.24164 0.29543 0.0
N1303 N 0.6918 0.2502 0.30336 0.0
C1304 C 0.68252 0.27131 0.28902 0.0
C1305 C 0.6491 0.26663 0.28478 0.0
C1306 C 0.60442 0.97382 0.96168 0.0
C1307 C 0.58285 0.95763 0.93342 0.0
C1308 C 0.60084 0.99966 0.98097 0.0
C1309 C 0.57551 0.01048 0.97293 0.0
H1310 H 0.62278 0.96495 0.97022 0.0
H1311 H 0.61738 0.01045 0.0031 0.0
S1312 S 0.51088 0.97444 0.90297 0.0
N1313 N 0.53433 0.95349 0.89938 0.0
N1314 N 0.52785 1.00191 0.93515 0.0
C1315 C 0.55421 0.99501 0.94439 0.0
C1316 C 0.55782 0.96869 0.92486 0.0
C1317 C 0.9302 0.76065 0.76774 0.0
C1318 C 0.95711 0.78433 0.76243 0.0
C1319 C 0.90266 0.76681 0.77515 0.0
C1320 C 0.9001 0.79734 0.77872 0.0
H1321 H 0.9301 0.73664 0.76562 0.0
H1322 H 0.88313 0.74719 0.77831 0.0
S1323 S 0.96414 0.86879 0.76904 0.0
N1324 N 0.9788 0.84023 0.762 0.0
N1325 N 0.9288 0.85202 0.7768 0.0
C1326 C 0.92717 0.82142 0.77403 0.0
C1327 C 0.95488 0.81494 0.76574 0.0
C1328 C 0.09181 0.09602 0.91179 0.0
C1329 C 0.09204 0.07087 0.88909 0.0
C1330 C 0.08616 0.09201 0.94206 0.0
C1331 C 0.07955 0.06243 0.95109 0.0
H1332 H 0.09663 0.1194 0.90634 0.0
H1333 H 0.08663 0.1124 0.95852 0.0
S1334 S 0.07651 0.98846 0.90061 0.0
N1335 N 0.08534 0.01509 0.87801 0.0
N1336 N 0.07304 1.00718 0.93449 0.0
C1337 C 0.07907 0.03679 0.92855 0.0
C1338 C 0.08585 0.04112 0.89779 0.0
C1339 C 0.85061 0.38376 0.5831 0.0
C1340 C 0.82124 0.37841 0.56433 0.0
C1341 C 0.85242 0.37291 0.61116 0.0
C1342 C 0.82489 0.35637 0.62093 0.0
H1343 H 0.87225 0.39761 0.57672 0.0
H1344 H 0.8754 0.37851 0.62594 0.0
S1345 S 0.74256 0.335 0.57892 0.0
N1346 N 0.76423 0.35501 0.55621 0.0
N1347 N 0.76762 0.33387 0.60963 0.0
C1348 C 0.79535 0.35013 0.60202 0.0
C1349 C 0.79352 0.36143 0.57339 0.0
C1350 C 0.49099 0.09005 0.42467 0.0
C1351 C 0.46907 0.06041 0.40999 0.0
C1352 C 0.51431 0.09254 0.45007 0.0
C1353 C 0.51627 0.06541 0.46056 0.0
H1354 H 0.49033 0.11118 0.41628 0.0
H1355 H 0.53043 0.11573 0.46203 0.0
S1356 S 0.46213 0.98304 0.43221 0.0
N1357 N 0.44859 1.00387 0.40952 0.0
N1358 N 0.49377 1.00864 0.45647 0.0
C1359 C 0.4944 0.03573 0.44629 0.0
C1360 C 0.47024 0.03322 0.42113 0.0
C1361 C 0.82621 0.80455 0.15066 0.0
C1362 C 0.79753 0.78958 0.12915 0.0
C1363 C 0.82701 0.81068 0.18344 0.0
C1364 C 0.79922 0.80162 0.19613 0.0
H1365 H 0.84814 0.81175 0.14212 0.0
H1366 H 0.84974 0.82259 0.19895 0.0
S1367 S 0.71851 0.75815 0.14951 0.0
N1368 N 0.74098 0.76381 0.12272 0.0
N1369 N 0.7424 0.77486 0.18397 0.0
C1370 C 0.77047 0.78607 0.1747 0.0
C1371 C 0.76969 0.7801 0.14138 0.0
C1372 C 0.06291 0.08953 0.69516 0.0
C1373 C 0.08615 0.07882 0.70984 0.0
C1374 C 0.05802 0.08941 0.66244 0.0
C1375 C 0.07611 0.07846 0.64304 0.0
H1376 H 0.04844 0.09829 0.70909 0.0
H1377 H 0.03961 0.09743 0.65221 0.0
S1378 S 0.14196 0.05095 0.66947 0.0
N1379 N 0.12882 0.05893 0.70194 0.0
N1380 N 0.1194 0.05862 0.64099 0.0
C1381 C 0.09966 0.06821 0.65735 0.0
C1382 C 0.10473 0.06837 0.69052 0.0
C1383 C 0.78029 0.38106 0.40734 0.0
C1384 C 0.80723 0.40851 0.41528 0.0
C1385 C 0.77834 0.35629 0.38348 0.0
C1386 C 0.80307 0.35878 0.36705 0.0
H1387 H 0.76235 0.37722 0.42173 0.0
H1388 H 0.75841 0.33447 0.37915 0.0
S1389 S 0.8768 0.42685 0.37701 0.0
N1390 N 0.8567 0.43851 0.4019 0.0
N1391 N 0.85458 0.39045 0.3595 0.0
C1392 C 0.82888 0.38684 0.37316 0.0
C1393 C 0.83027 0.41242 0.39641 0.0
C1394 C 0.46017 0.99375 0.24466 0.0
C1395 C 0.46625 0.02414 0.26182 0.0
C1396 C 0.46365 0.98931 0.21348 0.0
C1397 C 0.47403 0.01521 0.19878 0.0
H1398 H 0.45266 0.97321 0.25544 0.0
H1399 H 0.45942 0.96554 0.20114 0.0
S1400 S 0.48981 0.0993 0.23312 0.0
N1401 N 0.47952 0.08013 0.26161 0.0
N1402 N 0.48829 0.07219 0.20292 0.0
C1403 C 0.4786 0.04568 0.21522 0.0
C1404 C 0.47421 0.05006 0.2469 0.0
C1405 C 0.82473 0.81192 0.94681 0.0
C1406 C 0.81453 0.78075 0.95219 0.0
C1407 C 0.82837 0.81843 0.91652 0.0
C1408 C 0.821 0.794 0.88989 0.0
H1409 H 0.82928 0.83151 0.96613 0.0
H1410 H 0.83558 0.84283 0.91374 0.0
S1411 S 0.79316 0.70819 0.89096 0.0
N1412 N 0.79771 0.72519 0.92816 0.0
N1413 N 0.80342 0.73723 0.8714 0.0
C1414 C 0.81122 0.76274 0.89508 0.0
C1415 C 0.8083 0.75616 0.92608 0.0
C1416 C 0.87882 0.13013 0.04631 0.0
C1417 C 0.84579 0.11697 0.03843 0.0
C1418 C 0.89727 0.11199 0.03928 0.0
C1419 C 0.88308 0.08018 0.02438 0.0
H1420 H 0.8905 0.15448 0.05841 0.0
H1421 H 0.92271 0.12275 0.04587 0.0
S1422 S 0.79777 0.03441 1.00009 0.0
N1423 N 0.7996 0.07039 0.01536 0.0
N1424 N 0.8347 0.03591 0.00258 0.0
C1425 C 0.85019 0.06681 0.01608 0.0
C1426 C 0.83135 0.08535 0.023 0.0
C1427 C 0.42079 0.49032 0.06734 0.0
C1428 C 0.41781 0.45817 0.06354 0.0
C1429 C 0.44816 0.51322 0.06255 0.0
C1430 C 0.47317 0.50468 0.05301 0.0
H1431 H 0.40188 0.49785 0.07398 0.0
H1432 H 0.44951 0.53767 0.06594 0.0
S1433 S 0.47664 0.42348 0.03904 0.0
N1434 N 0.44252 0.41925 0.04978 0.0
N1435 N 0.4926 0.46149 0.03956 0.0
C1436 C 0.47018 0.47256 0.04889 0.0
C1437 C 0.44291 0.44956 0.05448 0.0
C1438 C 0.42727 0.63543 0.78987 0.0
C1439 C 0.42101 0.61161 0.80799 0.0
C1440 C 0.41031 0.65622 0.78958 0.0
C1441 C 0.38654 0.65386 0.80738 0.0
H1442 H 0.44538 0.63807 0.77574 0.0
H1443 H 0.41589 0.67428 0.77542 0.0
S1444 S 0.35963 0.59471 0.85726 0.0
N1445 N 0.38874 0.58655 0.84357 0.0
N1446 N 0.35642 0.62516 0.84235 0.0
C1447 C 0.37986 0.63009 0.82538 0.0
C1448 C 0.39723 0.60909 0.82589 0.0
C1449 C 0.2048 0.59562 0.57798 0.0
C1450 C 0.21719 0.60269 0.55094 0.0
C1451 C 0.17262 0.58882 0.57762 0.0
C1452 C 0.1527 0.5887 0.55017 0.0
H1453 H 0.22034 0.59983 0.60052 0.0
H1454 H 0.16392 0.58658 0.5994 0.0
S1455 S 0.17209 0.59443 0.47122 0.0
N1456 N 0.20613 0.60077 0.49456 0.0
N1457 N 0.14545 0.58794 0.49386 0.0
C1458 C 0.16394 0.59041 0.52199 0.0
C1459 C 0.1964 0.59692 0.52228 0.0
C1460 C 0.74628 0.99746 0.79302 0.0
C1461 C 0.75581 0.02916 0.80854 0.0
C1462 C 0.76601 0.9799 0.79702 0.0
C1463 C 0.79582 0.99352 0.81671 0.0
H1464 H 0.72367 0.98624 0.77711 0.0
H1465 H 0.7579 0.95555 0.78467 0.0
S1466 S 0.83259 0.07554 0.86178 0.0
N1467 N 0.79739 0.07352 0.84404 0.0
N1468 N 0.8346 0.04012 0.85123 0.0
C1469 C 0.80568 0.02496 0.83253 0.0
C1470 C 0.78559 0.04291 0.82858 0.0
C1471 C 0.73416 0.94414 0.54039 0.0
C1472 C 0.76538 0.95929 0.53692 0.0
C1473 C 0.71197 0.95962 0.53846 0.0
C1474 C 0.72044 0.99066 0.53305 0.0
H1475 H 0.7267 0.92005 0.54413 0.0
H1476 H 0.68804 0.94715 0.54073 0.0
S1477 S 0.7998 0.04193 0.52642 0.0
N1478 N 0.80399 1.00787 0.53038 0.0
N1479 N 0.76243 0.0369 0.52712 0.0
C1480 C 0.7517 1.00631 0.5306 0.0
C1481 C 0.77415 0.99062 0.5324 0.0
C1482 C 0.38712 0.4481 0.7613 0.0
C1483 C 0.41773 0.45935 0.7797 0.0
C1484 C 0.36396 0.42114 0.76642 0.0
C1485 C 0.37069 0.405 0.79036 0.0
H1486 H 0.38136 0.45958 0.74235 0.0
H1487 H 0.34101 0.41242 0.75099 0.0
S1488 S 0.44601 0.42904 0.84825 0.0
N1489 N 0.45252 0.45486 0.82475 0.0
N1490 N 0.40938 0.40493 0.83484 0.0
C1491 C 0.40081 0.41739 0.80993 0.0
C1492 C 0.42421 0.4444 0.80449 0.0
C1493 C 0.2496 0.67486 0.22605 0.0
C1494 C 0.25898 0.65684 0.24643 0.0
C1495 C 0.26174 0.70767 0.23376 0.0
C1496 C 0.28298 0.72261 0.26217 0.0
H1497 H 0.23042 0.66362 0.20594 0.0
H1498 H 0.25206 0.72117 0.21927 0.0
S1499 S 0.31913 0.68637 0.32034 0.0
N1500 N 0.29428 0.65625 0.29352 0.0
N1501 N 0.3168 0.71844 0.30813 0.0
C1502 C 0.2953 0.70514 0.28079 0.0
C1503 C 0.28338 0.67182 0.27276 0.0
C1504 C 0.49892 0.68184 0.51974 0.0
C1505 C 0.52075 0.70829 0.51131 0.0
C1506 C 0.50629 0.65457 0.5267 0.0
C1507 C 0.53649 0.65158 0.52678 0.0
H1508 H 0.47529 0.68186 0.52054 0.0
H1509 H 0.48785 0.63554 0.53236 0.0
S1510 S 0.60353 0.71395 0.50744 0.0
N1511 N 0.57474 0.7287 0.50378 0.0
N1512 N 0.58879 0.67944 0.51777 0.0
C1513 C 0.55878 0.67814 0.51888 0.0
C1514 C 0.55098 0.70556 0.51099 0.0
C1515 C 0.71569 0.3405 0.68151 0.0
C1516 C 0.68645 0.34299 0.68643 0.0
C1517 C 0.73668 0.33481 0.70526 0.0
C1518 C 0.72974 0.33113 0.73545 0.0
H1519 H 0.72233 0.3424 0.65877 0.0
H1520 H 0.75854 0.333 0.69964 0.0
S1521 S 0.6571 0.33674 0.7617 0.0
N1522 N 0.65238 0.34205 0.7249 0.0
N1523 N 0.69144 0.33156 0.76898 0.0
C1524 C 0.70081 0.33398 0.7409 0.0
C1525 C 0.67941 0.33981 0.71671 0.0
C1526 C 0.0335 0.41125 1.00053 0.0
C1527 C 0.02299 0.39134 0.02204 0.0
C1528 C 0.03809 0.44421 0.00655 0.0
C1529 C 0.03213 0.45962 0.0343 0.0
H1530 H 0.03791 0.40119 0.97838 0.0
H1531 H 0.04613 0.45776 0.98891 0.0
S1532 S 1.00679 0.41994 0.09998 0.0
N1533 N 1.00844 0.39102 0.07356 0.0
N1534 N 1.01659 0.45197 0.08443 0.0
C1535 C 0.02182 0.44019 0.05616 0.0
C1536 C 0.0174 0.40661 0.05018 0.0
C1537 C 0.01897 0.84858 0.20788 0.0
C1538 C 0.02488 0.82722 0.18507 0.0
C1539 C 0.99392 0.83856 0.22359 0.0
C1540 C 0.97421 0.80683 0.2173 0.0
H1541 H 0.03377 0.87325 0.21372 0.0
H1542 H 0.99018 0.85566 0.24113 0.0
S1543 S 0.97823 0.74153 0.15925 0.0
N1544 N 1.00789 0.77267 0.15642 0.0
N1545 N 0.96096 0.75423 0.18655 0.0
C1546 C 0.97939 0.78522 0.1945 0.0
C1547 C 1.00471 0.79533 0.17821 0.0
C1548 C 0.53059 0.34901 0.12432 0.0
C1549 C 0.55044 0.34804 0.15159 0.0
C1550 C 0.53897 0.37435 0.10865 0.0
C1551 C 0.5677 0.3994 0.11941 0.0
H1552 H 0.50824 0.33016 0.11501 0.0
H1553 H 0.52303 0.37418 0.08771 0.0
S1554 S 0.62821 0.40888 0.18954 0.0
N1555 N 0.60033 0.37495 0.1888 0.0
N1556 N 0.61596 0.42238 0.15881 0.0
C1557 C 0.5879 0.39893 0.14648 0.0
C1558 C 0.57928 0.3733 0.16274 0.0
C1559 C 0.95183 0.31887 0.32795 0.0
C1560 C 0.97505 0.34662 0.32428 0.0
C1561 C 0.91905 0.31378 0.32043 0.0
C1562 C 0.9072 0.33634 0.3091 0.0
H1563 H 0.95911 0.3017 0.33891 0.0
H1564 H 0.9029 0.29222 0.32476 0.0
S1565 S 0.95806 0.41322 0.29472 0.0
N1566 N 0.98355 0.39689 0.30813 0.0
N1567 N 0.92265 0.38765 0.29362 0.0
C1568 C 0.93023 0.36386 0.30432 0.0
C1569 C 0.96369 0.3689 0.31204 0.0
C1570 C 0.05042 0.67195 0.6639 0.0
C1571 C 0.03628 0.69419 0.65629 0.0
C1572 C 0.05667 0.65115 0.64049 0.0
C1573 C 0.04899 0.65121 0.60803 0.0
H1574 H 0.05739 0.67096 0.68839 0.0
H1575 H 0.06778 0.6349 0.64807 0.0
S1576 S 1.00911 0.70279 0.57488 0.0
N1577 N 1.01356 0.71385 0.61345 0.0
N1578 N 0.02453 0.67461 0.56966 0.0
C1579 C 0.03429 0.67296 0.60002 0.0
C1580 C 0.02821 0.6944 0.62396 0.0
C1581 C 0.66675 0.82203 0.79993 0.0
C1582 C 0.66485 0.84214 0.82715 0.0
C1583 C 0.69563 0.81874 0.79347 0.0
C1584 C 0.72524 0.83532 0.81369 0.0
H1585 H 0.64532 0.80808 0.78317 0.0
H1586 H 0.69454 0.80268 0.77221 0.0
S1587 S 0.73487 0.88926 0.88981 0.0
N1588 N 0.6966 0.87784 0.8755 0.0
N1589 N 0.75004 0.87185 0.86356 0.0
C1590 C 0.72392 0.85544 0.84116 0.0
C1591 C 0.69431 0.8588 0.84777 0.0
C1592 C 0.55328 0.57189 0.6922 0.0
C1593 C 0.52216 0.56274 0.69765 0.0
C1594 C 0.55989 0.57649 0.66219 0.0
C1595 C 0.53552 0.57111 0.6361 0.0
H1596 H 0.57267 0.57503 0.71121 0.0
H1597 H 0.58414 0.58279 0.65909 0.0
S1598 S 0.45002 0.54706 0.63781 0.0
N1599 N 0.46687 0.54939 0.67453 0.0
N1600 N 0.47907 0.55671 0.61818 0.0
C1601 C 0.50439 0.56242 0.64144 0.0
C1602 C 0.49776 0.55861 0.67214 0.0
C1603 C 0.80238 0.23723 0.01599 0.0
C1604 C 0.78195 0.23481 0.03775 0.0
C1605 C 0.79841 0.25151 0.99026 0.0
C1606 C 0.77402 0.26389 0.98565 0.0
H1607 H 0.821 0.22719 0.0182 0.0
H1608 H 0.81382 0.25199 0.97335 0.0
S1609 S 0.71635 0.26649 0.03715 0.0
N1610 N 0.73829 0.24848 0.05434 0.0
N1611 N 0.73057 0.27494 0.00543 0.0
C1612 C 0.75467 0.26336 0.00806 0.0
C1613 C 0.75871 0.24888 0.0343 0.0
C1614 C 0.14442 0.59821 0.17994 0.0
C1615 C 0.13885 0.57223 0.195 0.0
C1616 C 0.12542 0.59631 0.15152 0.0
C1617 C 0.1001 0.56852 0.13768 0.0
H1618 H 0.16409 0.61989 0.18969 0.0
H1619 H 0.13071 0.61669 0.14031 0.0
S1620 S 0.07603 0.49409 0.16794 0.0
N1621 N 0.10695 0.51801 0.19435 0.0
N1622 N 0.07029 0.51456 0.14071 0.0
C1623 C 0.09402 0.5425 0.15266 0.0
C1624 C 0.1138 0.54428 0.18142 0.0
C1625 C 0.83929 0.83288 0.44979 0.0
C1626 C 0.81708 0.84392 0.46282 0.0
C1627 C 0.83886 0.8279 0.41711 0.0
C1628 C 0.81628 0.83385 0.39586 0.0
H1629 H 0.85794 0.82894 0.46507 0.0
H1630 H 0.85688 0.82009 0.40855 0.0
S1631 S 0.75 0.85834 0.41674 0.0
N1632 N 0.77001 0.85771 0.45108 0.0
N1633 N 0.76892 0.84799 0.38985 0.0
C1634 C 0.79307 0.84349 0.40831 0.0
C1635 C 0.79354 0.84863 0.44164 0.0
C1636 C 0.51259 0.56679 0.8957 0.0
C1637 C 0.53238 0.55897 0.87629 0.0
C1638 C 0.51786 0.56682 0.9283 0.0
C1639 C 0.54318 0.55904 0.94317 0.0
H1640 H 0.49223 0.57206 0.88553 0.0
H1641 H 0.50162 0.57273 0.94185 0.0
S1642 S 0.60319 0.53878 0.90345 0.0
N1643 N 0.57927 0.54466 0.87483 0.0
N1644 N 0.58909 0.54465 0.93576 0.0
C1645 C 0.56355 0.55186 0.92417 0.0
C1646 C 0.5582 0.55189 0.89095 0.0
C1647 C 0.83136 0.23418 0.20709 0.0
C1648 C 0.82605 0.23304 0.17469 0.0
C1649 C 0.82732 0.25829 0.22766 0.0
C1650 C 0.81715 0.28123 0.21592 0.0
H1651 H 0.83755 0.21552 0.21598 0.0
H1652 H 0.83165 0.25884 0.25274 0.0
S1653 S 0.80546 0.29135 0.13283 0.0
N1654 N 0.81494 0.25915 0.1318 0.0
N1655 N 0.806 0.30405 0.17033 0.0
C1656 C 0.81441 0.2819 0.18365 0.0
C1657 C 0.81914 0.25771 0.1629 0.0
C1658 C 0.15595 0.63917 0.32409 0.0
C1659 C 0.18085 0.62745 0.32945 0.0
C1660 C 0.14197 0.64745 0.349 0.0
C1661 C 0.15288 0.6445 0.37972 0.0
H1662 H 0.14577 0.63976 0.30032 0.0
H1663 H 0.12125 0.65407 0.34388 0.0
S1664 S 0.22126 0.62103 0.40666 0.0
N1665 N 0.21859 0.61748 0.36809 0.0
N1666 N 0.19256 0.63371 0.41497 0.0
C1667 C 0.17955 0.63567 0.3857 0.0
C1668 C 0.19353 0.62695 0.36047 0.0
C1669 C 0.80728 0.87306 0.6647 0.0
C1670 C 0.81458 0.85264 0.64184 0.0
C1671 C 0.80493 0.86676 0.69539 0.0
C1672 C 0.80932 0.83957 0.70425 0.0
H1673 H 0.80442 0.89459 0.65924 0.0
H1674 H 0.79984 0.88337 0.71231 0.0
S1675 S 0.82769 0.77798 0.65258 0.0
N1676 N 0.82502 0.80363 0.63013 0.0
N1677 N 0.82084 0.79185 0.6868 0.0
C1678 C 0.8158 0.81867 0.68115 0.0
C1679 C 0.81833 0.82516 0.6503 0.0
C1680 C 0.75716 0.50732 0.55262 0.0
C1681 C 0.76902 0.51247 0.52489 0.0
C1682 C 0.74082 0.52569 0.56524 0.0
C1683 C 0.73605 0.54951 0.55039 0.0
H1684 H 0.76026 0.48886 0.56455 0.0
H1685 H 0.73097 0.5206 0.58595 0.0
S1686 S 0.76156 0.57213 0.47752 0.0
N1687 N 0.77472 0.54308 0.4832 0.0
N1688 N 0.74353 0.57749 0.50704 0.0
C1689 C 0.74791 0.55515 0.52302 0.0
C1690 C 0.76461 0.53663 0.51022 0.0
C1691 C 0.19992 0.14737 0.52336 0.0
C1692 C 0.20357 0.17966 0.53048 0.0
C1693 C 0.17213 0.12392 0.52646 0.0
C1694 C 0.14743 0.1322 0.53699 0.0
H1695 H 0.21836 0.1402 0.51494 0.0
H1696 H 0.16966 0.09929 0.51994 0.0
S1697 S 0.14785 0.21312 0.56429 0.0
N1698 N 0.18138 0.21832 0.55193 0.0
N1699 N 0.13027 0.17455 0.55854 0.0
C1700 C 0.15164 0.16426 0.54571 0.0
C1701 C 0.17941 0.18791 0.54225 0.0
C1702 C 0.19431 1.00483 0.77776 0.0
C1703 C 0.19943 0.02277 0.8083 0.0
C1704 C 0.21102 0.98439 0.77122 0.0
C1705 C 0.23286 0.98089 0.79515 0.0
H1706 H 0.17779 1.00706 0.75861 0.0
H1707 H 0.20685 0.97126 0.74739 0.0
S1708 S 0.25437 0.02165 0.87894 0.0
N1709 N 0.22766 0.03518 0.86265 0.0
N1710 N 0.25875 0.9965 0.85032 0.0
C1711 C 0.23784 0.9982 0.82579 0.0
C1712 C 0.2212 0.01925 0.83237 0.0
C1713 C 0.42154 0.02238 0.9727 0.0
C1714 C 0.40534 0.01913 0.99783 0.0
C1715 C 0.45231 0.04325 0.97759 0.0
C1716 C 0.46714 0.06145 0.00757 0.0
H1717 H 0.41172 1.00618 0.9502 0.0
H1718 H 0.46568 0.0424 0.95896 0.0
S1719 S 0.43266 0.0661 0.07921 0.0
N1720 N 0.40425 0.03917 0.05224 0.0
N1721 N 0.4626 0.07897 0.06129 0.0
C1722 C 0.44982 0.06166 0.03166 0.0
C1723 C 0.41846 0.04024 0.02678 0.0
C1724 C 0.83699 0.61366 0.82315 0.0
C1725 C 0.85771 0.60646 0.80489 0.0
C1726 C 0.81631 0.62779 0.81146 0.0
C1727 C 0.81599 0.63517 0.78136 0.0
H1728 H 0.83725 0.60923 0.84695 0.0
H1729 H 0.80164 0.63458 0.82664 0.0
S1730 S 0.86351 0.61899 0.7233 0.0
N1731 N 0.8749 0.60527 0.75421 0.0
N1732 N 0.83631 0.63347 0.73282 0.0
C1733 C 0.83539 0.62695 0.76222 0.0
C1734 C 0.85635 0.61221 0.77395 0.0
C1735 C 0.86842 0.65588 0.01896 0.0
C1736 C 0.86008 0.67556 0.04139 0.0
C1737 C 0.88872 0.63985 0.02819 0.0
C1738 C 0.90108 0.64255 0.0602 0.0
H1739 H 0.85919 0.65275 0.99403 0.0
H1740 H 0.89427 0.62467 0.01015 0.0
S1741 S 0.88759 0.69148 0.12836 0.0
N1742 N 0.86659 0.69734 0.09729 0.0
N1743 N 0.90459 0.6668 0.11436 0.0
C1744 C 0.89333 0.66229 0.08291 0.0
C1745 C 0.87291 0.67895 0.07358 0.0
C1746 C 0.20662 0.20132 0.83531 0.0
C1747 C 0.20269 0.17199 0.81687 0.0
C1748 C 0.22929 0.22905 0.83179 0.0
C1749 C 0.24879 0.22863 0.80947 0.0
H1750 H 0.19126 0.20302 0.85184 0.0
H1751 H 0.2309 0.25113 0.84616 0.0
S1752 S 0.24852 0.15762 0.75598 0.0
N1753 N 0.22085 0.1438 0.77629 0.0
N1754 N 0.26349 0.19613 0.76946 0.0
C1755 C 0.24612 0.19925 0.79185 0.0
C1756 C 0.22306 0.17086 0.79561 0.0
C1757 C 0.33457 0.95903 0.33508 0.0
C1758 C 0.36659 0.96592 0.3337 0.0
C1759 C 0.3161 0.92868 0.33699 0.0
C1760 C 0.3296 0.90517 0.33847 0.0
H1761 H 0.3236 0.97687 0.33391 0.0
H1762 H 0.29092 0.92309 0.33552 0.0
S1763 S 0.41145 0.91071 0.33366 0.0
N1764 N 0.41018 0.94613 0.33143 0.0
N1765 N 0.37598 0.88996 0.3383 0.0
C1766 C 0.36168 0.91204 0.33836 0.0
C1767 C 0.38007 0.94228 0.33489 0.0
C1768 C 0.59471 0.42903 0.54938 0.0
C1769 C 0.59125 0.41918 0.57876 0.0
C1770 C 0.58737 0.45587 0.54093 0.0
C1771 C 0.57671 0.4757 0.56148 0.0
H1772 H 0.60312 0.41565 0.53233 0.0
H1773 H 0.59071 0.46146 0.51805 0.0
S1774 S 0.56377 0.46214 0.64163 0.0
N1775 N 0.5757 0.43293 0.62834 0.0
N1776 N 0.56343 0.48272 0.61329 0.0
C1777 C 0.57332 0.46632 0.59095 0.0
C1778 C 0.58007 0.43859 0.59926 0.0
C1779 C 0.38809 0.77582 0.41298 0.0
C1780 C 0.42055 0.78786 0.41184 0.0
C1781 C 0.36466 0.78165 0.39212 0.0
C1782 C 0.37218 0.80018 0.36893 0.0
H1783 H 0.38056 0.76179 0.43042 0.0
H1784 H 0.3403 0.77152 0.39439 0.0
S1785 S 0.45379 0.83932 0.35682 0.0
N1786 N 0.45879 0.82045 0.38573 0.0
N1787 N 0.4154 0.83151 0.34714 0.0
C1788 C 0.40462 0.81261 0.36763 0.0
C1789 C 0.42848 0.80647 0.38878 0.0
C1790 C 0.10356 0.72111 0.05338 0.0
C1791 C 0.08609 0.73554 0.07109 0.0
C1792 C 0.09805 0.68784 0.04847 0.0
C1793 C 0.07467 0.66658 0.06093 0.0
H1794 H 0.12219 0.73576 0.0435 0.0
H1795 H 0.11254 0.67877 0.03483 0.0
S1796 S 0.02193 0.69117 0.10906 0.0
N1797 N 0.04397 0.72461 0.10102 0.0
N1798 N 0.0339 0.66354 0.09203 0.0
C1799 C 0.05702 0.68072 0.07853 0.0
C1800 C 0.0626 0.71447 0.08352 0.0
C1801 C 0.13101 0.34096 0.93448 0.0
C1802 C 0.09836 0.32587 0.92271 0.0
C1803 C 0.15287 0.3443 0.91435 0.0
C1804 C 0.14284 0.33306 0.88173 0.0
H1805 H 0.13989 0.34996 0.95952 0.0
H1806 H 0.17777 0.35573 0.92432 0.0
S1807 S 0.06062 0.2931 0.83835 0.0
N1808 N 0.05739 0.30029 0.87569 0.0
N1809 N 0.09875 0.30701 0.83813 0.0
C1810 C 0.11052 0.31839 0.86945 0.0
C1811 C 0.08819 0.31471 0.88986 0.0
C1812 C 0.58558 0.77727 0.94048 0.0
C1813 C 0.56054 0.78599 0.9272 0.0
C1814 C 0.57984 0.75152 0.95602 0.0
C1815 C 0.54896 0.73417 0.95885 0.0
H1816 H 0.6097 0.79164 0.94079 0.0
H1817 H 0.59978 0.74645 0.96757 0.0
S1818 S 0.47534 0.74589 0.9249 0.0
N1819 N 0.50381 0.77408 0.91561 0.0
N1820 N 0.49305 0.72553 0.9442 0.0
C1821 C 0.52372 0.74151 0.94375 0.0
C1822 C 0.52953 0.76753 0.92808 0.0
C1823 C 0.15932 0.81359 0.76107 0.0
C1824 C 0.1374 0.78726 0.76903 0.0
C1825 C 0.19222 0.81861 0.76555 0.0
C1826 C 0.20543 0.7973 0.77768 0.0
H1827 H 0.151 0.83065 0.75108 0.0
H1828 H 0.20743 0.83942 0.75901 0.0
S1829 S 0.15859 0.7236 0.80121 0.0
N1830 N 0.13192 0.73916 0.78928 0.0
N1831 N 0.19276 0.74806 0.79713 0.0
C1832 C 0.18371 0.77065 0.78546 0.0
C1833 C 0.15023 0.76582 0.78132 0.0
C1834 C 0.06446 0.47097 0.42237 0.0
C1835 C 0.08742 0.45866 0.43481 0.0
C1836 C 0.0588 0.49667 0.43985 0.0
C1837 C 0.07567 0.51109 0.47072 0.0
H1838 H 0.04894 0.45899 0.3999 0.0
H1839 H 0.03995 0.50419 0.42975 0.0
S1840 S 0.13919 0.48951 0.51405 0.0
N1841 N 0.12771 0.46425 0.47998 0.0
N1842 N 0.11738 0.5123 0.51231 0.0
C1843 C 0.0995 0.50004 0.48292 0.0
C1844 C 0.10526 0.47397 0.46518 0.0
C1845 C 0.45172 0.31195 0.26218 0.0
C1846 C 0.45594 0.28238 0.26256 0.0
C1847 C 0.42433 0.3181 0.27007 0.0
C1848 C 0.39879 0.29489 0.27815 0.0
H1849 H 0.46995 0.33081 0.25601 0.0
H1850 H 0.42304 0.34134 0.26934 0.0
S1851 S 0.39671 0.21326 0.28213 0.0
N1852 N 0.43092 0.22961 0.27196 0.0
N1853 N 0.38035 0.2408 0.28554 0.0
C1854 C 0.40264 0.26529 0.27828 0.0
C1855 C 0.43068 0.2592 0.2709 0.0
C1856 C 0.56959 0.58087 0.40109 0.0
C1857 C 0.59284 0.57119 0.38882 0.0
C1858 C 0.56289 0.57631 0.43092 0.0
C1859 C 0.57938 0.56227 0.45048 0.0
H1860 H 0.55648 0.59254 0.38768 0.0
H1861 H 0.545 0.58466 0.43906 0.0
S1862 S 0.6411 0.53061 0.42959 0.0
N1863 N 0.63138 0.54511 0.39855 0.0
N1864 N 0.61901 0.53719 0.45494 0.0
C1865 C 0.60234 0.55192 0.4386 0.0
C1866 C 0.60893 0.55613 0.40777 0.0
C1867 C 0.35971 0.91146 0.0899 0.0
C1868 C 0.33655 0.8933 0.06372 0.0
C1869 C 0.35901 0.90295 0.11919 0.0
C1870 C 0.33525 0.87592 0.12285 0.0
H1871 H 0.3784 0.9324 0.0877 0.0
H1872 H 0.37757 0.91719 0.13897 0.0
S1873 S 0.26838 0.82178 0.06106 0.0
N1874 N 0.28829 0.84875 0.04278 0.0
N1875 N 0.28785 0.83124 0.09794 0.0
C1876 C 0.3118 0.85764 0.09668 0.0
C1877 C 0.31215 0.86684 0.06696 0.0
C1878 C 0.99519 0.55294 0.90465 0.0
C1879 C 0.97287 0.56832 0.90443 0.0
C1880 C 1.01367 0.55315 0.9329 0.0
C1881 C 1.00968 0.56829 0.96136 0.0
H1882 H 0.99772 0.53994 0.88297 0.0
H1883 H 0.02998 0.54025 0.93263 0.0
S1884 S 0.95527 0.61247 0.97302 0.0
N1885 N 0.94837 0.59961 0.93454 0.0
N1886 N 0.98346 0.60014 0.98802 0.0
C1887 C 0.98829 0.58459 0.96133 0.0
C1888 C 0.96973 0.58463 0.93263 0.0
C1889 C 0.3178 0.27796 0.65145 0.0
C1890 C 0.30229 0.29225 0.63113 0.0
C1891 C 0.31793 0.28277 0.68412 0.0
C1892 C 0.30201 0.30153 0.69796 0.0
H1893 H 0.32965 0.26256 0.64204 0.0
H1894 H 0.33024 0.27122 0.69863 0.0
S1895 S 0.25899 0.34551 0.65604 0.0
N1896 N 0.27162 0.32727 0.62807 0.0
N1897 N 0.27133 0.3354 0.68902 0.0
C1898 C 0.28663 0.31611 0.67813 0.0
C1899 C 0.28696 0.31176 0.64496 0.0
C1900 C 0.56258 0.59057 0.19532 0.0
C1901 C 0.58695 0.58151 0.21029 0.0
C1902 C 0.55722 0.58967 0.16247 0.0
C1903 C 0.57595 0.57958 0.14328 0.0
H1904 H 0.54756 0.59855 0.20911 0.0
H1905 H 0.53798 0.59643 0.15197 0.0
S1906 S 0.64479 0.55673 0.17043 0.0
N1907 N 0.63143 0.56433 0.20286 0.0
N1908 N 0.62097 0.56245 0.1416 0.0
C1909 C 0.6006 0.57101 0.15784 0.0
C1910 C 0.60619 0.57199 0.19115 0.0
C1911 C 0.29481 0.90188 0.89621 0.0
C1912 C 0.29613 0.89587 0.92666 0.0
C1913 C 0.29544 0.87921 0.87192 0.0
C1914 C 0.29689 0.84999 0.87742 0.0
H1915 H 0.29558 0.92488 0.89156 0.0
H1916 H 0.29623 0.88519 0.849 0.0
S1917 S 0.3006 0.82379 0.95394 0.0
N1918 N 0.29894 0.85969 0.962 0.0
N1919 N 0.29918 0.8161 0.9155 0.0
C1920 C 0.29708 0.84336 0.90775 0.0
C1921 C 0.29689 0.86669 0.93267 0.0
C1922 C 0.97881 0.54471 0.74852 0.0
C1923 C 0.95994 0.51792 0.75771 0.0
C1924 C 0.98519 0.54267 0.71818 0.0
C1925 C 0.97225 0.51392 0.69635 0.0
H1926 H 0.98936 0.567 0.76513 0.0
H1927 H 1.00128 0.56333 0.71218 0.0
S1928 S 0.91661 0.43881 0.70795 0.0
N1929 N 0.92528 0.4631 0.74238 0.0
N1930 N 0.93683 0.45934 0.68466 0.0
C1931 C 0.9517 0.48753 0.70481 0.0
C1932 C 0.94558 0.48952 0.7358 0.0
C1933 C 0.32111 0.26575 0.43166 0.0
C1934 C 0.30772 0.2832 0.45133 0.0
C1935 C 0.32479 0.27145 0.40101 0.0
C1936 C 0.31585 0.29524 0.3891 0.0
H1937 H 0.32813 0.24707 0.43967 0.0
H1938 H 0.33474 0.2572 0.3866 0.0
S1939 S 0.27847 0.34669 0.42993 0.0
N1940 N 0.28478 0.32484 0.45547 0.0
N1941 N 0.29208 0.33546 0.3989 0.0
C1942 C 0.30271 0.31286 0.40852 0.0
C1943 C 0.29859 0.3069 0.43928 0.0
C1944 C 0.36616 0.62601 0.52139 0.0
C1945 C 0.35708 0.62829 0.55082 0.0
C1946 C 0.38137 0.60494 0.51281 0.0
C1947 C 0.38729 0.58557 0.53338 0.0
H1948 H 0.36168 0.64073 0.50511 0.0
H1949 H 0.38902 0.60416 0.49035 0.0
S1950 S 0.36598 0.58109 0.61196 0.0
N1951 N 0.35361 0.60867 0.59989 0.0
N1952 N 0.38212 0.56868 0.58347 0.0
C1953 C 0.37785 0.58726 0.56261 0.0
C1954 C 0.36271 0.60883 0.57146 0.0
C1955 C 0.94545 0.95447 0.56593 0.0
C1956 C 0.91701 0.96053 0.56609 0.0
C1957 C 0.97247 0.97706 0.56116 0.0
C1958 C 0.97274 1.00712 0.557 0.0
H1959 H 0.94686 0.93163 0.56857 0.0
H1960 H 0.99333 0.97066 0.56059 0.0
S1961 S 0.90526 0.03605 0.55667 0.0
N1962 N 0.89103 0.99944 0.56229 0.0
N1963 N 0.94257 0.04248 0.55425 0.0
C1964 C 0.94496 0.0142 0.55818 0.0
C1965 C 0.91696 0.9908 0.56251 0.0
C1966 C 0.92698 0.13802 0.29811 0.0
C1967 C 0.91538 0.10825 0.30645 0.0
C1968 C 0.91014 0.15892 0.29997 0.0
C1969 C 0.88112 0.1506 0.31005 0.0
H1970 H 0.94932 0.14533 0.29034 0.0
H1971 H 0.91993 0.18173 0.29362 0.0
S1972 S 0.83889 0.07428 0.33107 0.0
N1973 N 0.87226 0.07094 0.32334 0.0
N1974 N 0.84025 0.10984 0.32585 0.0
C1975 C 0.86894 0.12068 0.31765 0.0
C1976 C 0.88618 0.0996 0.31612 0.0
C1977 C 0.70692 0.10585 0.06471 0.0
C1978 C 0.72014 0.11496 0.09714 0.0
C1979 C 0.67447 0.09661 0.05428 0.0
C1980 C 0.65418 0.0958 0.0759 0.0
H1981 H 0.72172 0.10814 0.04713 0.0
H1982 H 0.66543 0.09145 0.02908 0.0
S1983 S 0.6766 0.11037 0.1631 0.0
N1984 N 0.71032 0.1174 0.15065 0.0
N1985 N 0.64893 0.09979 0.13099 0.0
C1986 C 0.66672 0.10139 0.10827 0.0
C1987 C 0.69986 0.11096 0.11891 0.0
C1988 C 0.29882 0.54028 0.29627 0.0
C1989 C 0.26872 0.5337 0.30346 0.0
C1990 C 0.31601 0.52092 0.3028 0.0
C1991 C 0.30351 0.49533 0.31721 0.0
H1992 H 0.30852 0.55969 0.28459 0.0
H1993 H 0.33889 0.52556 0.29616 0.0
S1994 S 0.22623 0.46992 0.3417 0.0
N1995 N 0.22704 0.50095 0.32576 0.0
N1996 N 0.26024 0.46474 0.33936 0.0
C1997 C 0.27378 0.48905 0.32523 0.0
C1998 C 0.25603 0.50835 0.31795 0.0
C1999 C 0.25084 0.4672 0.05535 0.0
C2000 C 0.25085 0.44661 0.02809 0.0
C2001 C 0.231 0.48521 0.05464 0.0
C2002 C 0.21034 0.48317 0.0267 0.0
H2003 H 0.26676 0.47 0.07728 0.0
H2004 H 0.23245 0.50147 0.07592 0.0
S2005 S 0.19875 0.43051 0.94977 0.0
N2006 N 0.22688 0.42384 0.97283 0.0
N2007 N 0.18917 0.45721 0.97186 0.0
C2008 C 0.20928 0.4619 0.9996 0.0
C2009 C 0.22963 0.44375 1.00021 0.0
C2010 C 0.88794 0.96066 0.28329 0.0
C2011 C 0.91522 0.95926 0.27217 0.0
C2012 C 0.86517 0.93323 0.28806 0.0
C2013 C 0.86931 0.90375 0.28236 0.0
H2014 H 0.88476 0.98318 0.28954 0.0
H2015 H 0.84495 0.9353 0.29744 0.0
S2016 S 0.93399 0.88687 0.24885 0.0
N2017 N 0.94276 0.92529 0.25208 0.0
N2018 N 0.90085 0.8744 0.26205 0.0
C2019 C 0.89558 0.90196 0.26984 0.0
C2020 C 0.91827 0.92952 0.26446 0.0
C2021 C 0.75155 0.17172 0.7917 0.0
C2022 C 0.77017 0.15804 0.77603 0.0
C2023 C 0.75739 0.20382 0.79544 0.0
C2024 C 0.78323 0.22309 0.78509 0.0
H2025 H 0.73046 0.15723 0.79781 0.0
H2026 H 0.74069 0.21308 0.80505 0.0
S2027 S 0.84777 0.19946 0.7584 0.0
N2028 N 0.82049 0.16599 0.76014 0.0
N2029 N 0.83384 0.22771 0.76966 0.0
C2030 C 0.80574 0.21035 0.77576 0.0
C2031 C 0.79886 0.17728 0.77098 0.0
loop_
_geom_bond_atom_site_label_1
_geom_bond_atom_site_label_2
_geom_bond_distance
_geom_bond_site_symmetry_2
_ccdc_geom_bond_type
Zn0 O3 2.031 . S
Zn0 O5 2.049 . S
Zn0 O10 2.067 1_455 S
Zn1 O2 1.962 . S
Zn1 O4 1.986 . S
Zn1 O6 1.996 . S
Zn1 O9 1.943 . S
O2 Zn1 1.962 . S
O2 C7 1.254 . S
O3 Zn0 2.031 . S
O3 C7 1.269 . S
O4 Zn1 1.986 . S
O4 C11 1.262 . S
O5 Zn0 2.049 . S
O5 C13 1.260 . S
O6 Zn1 1.996 . S
O6 C13 1.257 . S
C7 O2 1.254 . S
C7 O3 1.269 . S
C8 O9 1.249 1_655 S
C8 O10 1.270 . S
O9 Zn1 1.943 . S
O9 C8 1.249 1_455 S
O10 Zn0 2.067 1_655 S
O10 C8 1.270 . S
C11 O4 1.262 . S
C11 O12 1.232 . S
O12 C11 1.232 . S
C13 O5 1.260 . S
C13 O6 1.257 . S
Zn14 O17 2.031 1_455 S
Zn14 O19 2.049 . S
Zn14 O24 2.067 . S
Zn15 O16 1.962 . S
Zn15 O18 1.986 . S
Zn15 O20 1.996 . S
Zn15 O23 1.943 . S
O16 Zn15 1.962 . S
O16 C21 1.254 1_455 S
O17 Zn14 2.031 1_655 S
O17 C21 1.269 . S
O18 Zn15 1.986 . S
O18 C25 1.262 . S
O19 Zn14 2.049 . S
O19 C27 1.260 . S
O20 Zn15 1.996 . S
O20 C27 1.257 . S
C21 O16 1.254 1_655 S
C21 O17 1.269 . S
C22 O23 1.249 . S
C22 O24 1.270 . S
O23 Zn15 1.943 . S
O23 C22 1.249 . S
O24 Zn14 2.067 . S
O24 C22 1.270 . S
C25 O18 1.262 . S
C25 O26 1.232 . S
O26 C25 1.232 . S
C27 O19 1.260 . S
C27 O20 1.257 . S
Zn28 O31 2.031 . S
Zn28 O33 2.049 . S
Zn28 O38 2.067 . S
Zn29 O30 1.962 . S
Zn29 O32 1.986 . S
Zn29 O34 1.996 . S
Zn29 O37 1.943 . S
O30 Zn29 1.962 . S
O30 C35 1.254 . S
O31 Zn28 2.031 . S
O31 C35 1.269 . S
O32 Zn29 1.986 . S
O32 C39 1.262 . S
O33 Zn28 2.049 . S
O33 C41 1.260 . S
O34 Zn29 1.996 . S
O34 C41 1.257 . S
C35 O30 1.254 . S
C35 O31 1.269 . S
C36 O37 1.249 . S
C36 O38 1.270 . S
O37 Zn29 1.943 . S
O37 C36 1.249 . S
O38 Zn28 2.067 . S
O38 C36 1.270 . S
C39 O32 1.262 . S
C39 O40 1.232 . S
O40 C39 1.232 . S
C41 O33 1.260 . S
C41 O34 1.257 . S
Zn42 O45 2.031 . S
Zn42 O47 2.049 . S
Zn42 O52 2.067 . S
Zn43 O44 1.962 . S
Zn43 O46 1.986 . S
Zn43 O48 1.996 . S
Zn43 O51 1.943 . S
O44 Zn43 1.962 . S
O44 C49 1.254 . S
O45 Zn42 2.031 . S
O45 C49 1.269 . S
O46 Zn43 1.986 . S
O46 C53 1.262 . S
O47 Zn42 2.049 . S
O47 C55 1.260 . S
O48 Zn43 1.996 . S
O48 C55 1.257 . S
C49 O44 1.254 . S
C49 O45 1.269 . S
C50 O51 1.249 . S
C50 O52 1.270 . S
O51 Zn43 1.943 . S
O51 C50 1.249 . S
O52 Zn42 2.067 . S
O52 C50 1.270 . S
C53 O46 1.262 . S
C53 O54 1.232 . S
O54 C53 1.232 . S
C55 O47 1.260 . S
C55 O48 1.257 . S
Zn56 O59 2.031 . S
Zn56 O61 2.049 . S
Zn56 O66 2.067 . S
Zn57 O58 1.962 . S
Zn57 O60 1.986 . S
Zn57 O62 1.996 . S
Zn57 O65 1.943 . S
O58 Zn57 1.962 . S
O58 C63 1.254 . S
O59 Zn56 2.031 . S
O59 C63 1.269 . S
O60 Zn57 1.986 . S
O60 C67 1.262 . S
O61 Zn56 2.049 . S
O61 C69 1.260 . S
O62 Zn57 1.996 . S
O62 C69 1.257 . S
C63 O58 1.254 . S
C63 O59 1.269 . S
C64 O65 1.249 . S
C64 O66 1.270 . S
O65 Zn57 1.943 . S
O65 C64 1.249 . S
O66 Zn56 2.067 . S
O66 C64 1.270 . S
C67 O60 1.262 . S
C67 O68 1.232 . S
O68 C67 1.232 . S
C69 O61 1.260 . S
C69 O62 1.257 . S
Zn70 O73 2.031 . S
Zn70 O75 2.049 . S
Zn70 O80 2.067 . S
Zn71 O72 1.962 . S
Zn71 O74 1.986 . S
Zn71 O76 1.996 . S
Zn71 O79 1.943 . S
O72 Zn71 1.962 . S
O72 C77 1.254 . S
O73 Zn70 2.031 . S
O73 C77 1.269 . S
O74 Zn71 1.986 . S
O74 C81 1.262 . S
O75 Zn70 2.049 . S
O75 C83 1.260 . S
O76 Zn71 1.996 . S
O76 C83 1.257 . S
C77 O72 1.254 . S
C77 O73 1.269 . S
C78 O79 1.249 . S
C78 O80 1.270 . S
O79 Zn71 1.943 . S
O79 C78 1.249 . S
O80 Zn70 2.067 . S
O80 C78 1.270 . S
C81 O74 1.262 . S
C81 O82 1.232 . S
O82 C81 1.232 . S
C83 O75 1.260 . S
C83 O76 1.257 . S
Zn84 O87 2.031 . S
Zn84 O89 2.049 . S
Zn84 O94 2.067 . S
Zn85 O86 1.962 . S
Zn85 O88 1.986 . S
Zn85 O90 1.996 . S
Zn85 O93 1.943 . S
O86 Zn85 1.962 . S
O86 C91 1.254 . S
O87 Zn84 2.031 . S
O87 C91 1.269 . S
O88 Zn85 1.986 . S
O88 C95 1.262 . S
O89 Zn84 2.049 . S
O89 C97 1.260 . S
O90 Zn85 1.996 . S
O90 C97 1.257 . S
C91 O86 1.254 . S
C91 O87 1.269 . S
C92 O93 1.249 . S
C92 O94 1.270 . S
O93 Zn85 1.943 . S
O93 C92 1.249 . S
O94 Zn84 2.067 . S
O94 C92 1.270 . S
C95 O88 1.262 . S
C95 O96 1.232 . S
O96 C95 1.232 . S
C97 O89 1.260 . S
C97 O90 1.257 . S
Zn98 O101 2.031 . S
Zn98 O103 2.049 . S
Zn98 O108 2.067 1_554 S
Zn99 O100 1.962 1_556 S
Zn99 O102 1.986 . S
Zn99 O104 1.996 1_556 S
Zn99 O107 1.943 1_455 S
O100 Zn99 1.962 1_554 S
O100 C105 1.254 . S
O101 Zn98 2.031 . S
O101 C105 1.269 1_655 S
O102 Zn99 1.986 . S
O102 C109 1.262 . S
O103 Zn98 2.049 . S
O103 C111 1.260 . S
O104 Zn99 1.996 1_554 S
O104 C111 1.257 1_455 S
C105 O100 1.254 . S
C105 O101 1.269 1_455 S
C106 O107 1.249 . S
C106 O108 1.270 . S
O107 Zn99 1.943 1_655 S
O107 C106 1.249 . S
O108 Zn98 2.067 1_556 S
O108 C106 1.270 . S
C109 O102 1.262 . S
C109 O110 1.232 . S
O110 C109 1.232 . S
C111 O103 1.260 . S
C111 O104 1.257 1_655 S
Zn112 O115 2.031 . S
Zn112 O117 2.049 . S
Zn112 O122 2.067 . S
Zn113 O114 1.962 . S
Zn113 O116 1.986 . S
Zn113 O118 1.996 . S
Zn113 O121 1.943 1_545 S
O114 Zn113 1.962 . S
O114 C119 1.254 . S
O115 Zn112 2.031 . S
O115 C119 1.269 1_565 S
O116 Zn113 1.986 . S
O116 C123 1.262 . S
O117 Zn112 2.049 . S
O117 C125 1.260 . S
O118 Zn113 1.996 . S
O118 C125 1.257 1_545 S
C119 O114 1.254 . S
C119 O115 1.269 1_545 S
C120 O121 1.249 . S
C120 O122 1.270 . S
O121 Zn113 1.943 1_565 S
O121 C120 1.249 . S
O122 Zn112 2.067 . S
O122 C120 1.270 . S
C123 O116 1.262 . S
C123 O124 1.232 . S
O124 C123 1.232 . S
C125 O117 1.260 . S
C125 O118 1.257 1_565 S
Zn126 O129 2.031 . S
Zn126 O131 2.049 . S
Zn126 O136 2.067 . S
Zn127 O128 1.962 . S
Zn127 O130 1.986 . S
Zn127 O132 1.996 . S
Zn127 O135 1.943 . S
O128 Zn127 1.962 . S
O128 C133 1.254 . S
O129 Zn126 2.031 . S
O129 C133 1.269 . S
O130 Zn127 1.986 . S
O130 C137 1.262 . S
O131 Zn126 2.049 . S
O131 C139 1.260 . S
O132 Zn127 1.996 . S
O132 C139 1.257 . S
C133 O128 1.254 . S
C133 O129 1.269 . S
C134 O135 1.249 . S
C134 O136 1.270 . S
O135 Zn127 1.943 . S
O135 C134 1.249 . S
O136 Zn126 2.067 . S
O136 C134 1.270 . S
C137 O130 1.262 . S
C137 O138 1.232 . S
O138 C137 1.232 . S
C139 O131 1.260 . S
C139 O132 1.257 . S
Zn140 O143 2.031 . S
Zn140 O145 2.049 . S
Zn140 O150 2.067 . S
Zn141 O142 1.962 . S
Zn141 O144 1.986 . S
Zn141 O146 1.996 . S
Zn141 O149 1.943 . S
O142 Zn141 1.962 . S
O142 C147 1.254 . S
O143 Zn140 2.031 . S
O143 C147 1.269 . S
O144 Zn141 1.986 . S
O144 C151 1.262 . S
O145 Zn140 2.049 . S
O145 C153 1.260 . S
O146 Zn141 1.996 . S
O146 C153 1.257 . S
C147 O142 1.254 . S
C147 O143 1.269 . S
C148 O149 1.249 . S
C148 O150 1.270 . S
O149 Zn141 1.943 . S
O149 C148 1.249 . S
O150 Zn140 2.067 . S
O150 C148 1.270 . S
C151 O144 1.262 . S
C151 O152 1.232 . S
O152 C151 1.232 . S
C153 O145 1.260 . S
C153 O146 1.257 . S
Zn154 O157 2.031 1_554 S
Zn154 O159 2.049 . S
Zn154 O164 2.067 . S
Zn155 O156 1.962 . S
Zn155 O158 1.986 1_556 S
Zn155 O160 1.996 1_556 S
Zn155 O163 1.943 1_556 S
O156 Zn155 1.962 . S
O156 C161 1.254 . S
O157 Zn154 2.031 1_556 S
O157 C161 1.269 . S
O158 Zn155 1.986 1_554 S
O158 C165 1.262 1_554 S
O159 Zn154 2.049 . S
O159 C167 1.260 . S
O160 Zn155 1.996 1_554 S
O160 C167 1.257 . S
C161 O156 1.254 . S
C161 O157 1.269 . S
C162 O163 1.249 . S
C162 O164 1.270 . S
O163 Zn155 1.943 1_554 S
O163 C162 1.249 . S
O164 Zn154 2.067 . S
O164 C162 1.270 . S
C165 O158 1.262 1_556 S
C165 O166 1.232 . S
O166 C165 1.232 . S
C167 O159 1.260 . S
C167 O160 1.257 . S
Zn168 O171 2.031 . S
Zn168 O173 2.049 . S
Zn168 O178 2.067 . S
Zn169 O170 1.962 . S
Zn169 O172 1.986 . S
Zn169 O174 1.996 . S
Zn169 O177 1.943 . S
O170 Zn169 1.962 . S
O170 C175 1.254 1_554 S
O171 Zn168 2.031 . S
O171 C175 1.269 1_554 S
O172 Zn169 1.986 . S
O172 C179 1.262 . S
O173 Zn168 2.049 . S
O173 C181 1.260 . S
O174 Zn169 1.996 . S
O174 C181 1.257 . S
C175 O170 1.254 1_556 S
C175 O171 1.269 1_556 S
C176 O177 1.249 . S
C176 O178 1.270 . S
O177 Zn169 1.943 . S
O177 C176 1.249 . S
O178 Zn168 2.067 . S
O178 C176 1.270 . S
C179 O172 1.262 . S
C179 O180 1.232 . S
O180 C179 1.232 . S
C181 O173 1.260 . S
C181 O174 1.257 . S
Zn182 O185 2.031 . S
Zn182 O187 2.049 . S
Zn182 O192 2.067 . S
Zn183 O184 1.962 . S
Zn183 O186 1.986 . S
Zn183 O188 1.996 . S
Zn183 O191 1.943 . S
O184 Zn183 1.962 . S
O184 C189 1.254 . S
O185 Zn182 2.031 . S
O185 C189 1.269 . S
O186 Zn183 1.986 . S
O186 C193 1.262 . S
O187 Zn182 2.049 . S
O187 C195 1.260 . S
O188 Zn183 1.996 . S
O188 C195 1.257 . S
C189 O184 1.254 . S
C189 O185 1.269 . S
C190 O191 1.249 . S
C190 O192 1.270 . S
O191 Zn183 1.943 . S
O191 C190 1.249 . S
O192 Zn182 2.067 . S
O192 C190 1.270 . S
C193 O186 1.262 . S
C193 O194 1.232 . S
O194 C193 1.232 . S
C195 O187 1.260 . S
C195 O188 1.257 . S
Zn196 O199 2.031 . S
Zn196 O201 2.049 . S
Zn196 O206 2.067 . S
Zn197 O198 1.962 . S
Zn197 O200 1.986 . S
Zn197 O202 1.996 . S
Zn197 O205 1.943 . S
O198 Zn197 1.962 . S
O198 C203 1.254 . S
O199 Zn196 2.031 . S
O199 C203 1.269 . S
O200 Zn197 1.986 . S
O200 C207 1.262 . S
O201 Zn196 2.049 . S
O201 C209 1.260 . S
O202 Zn197 1.996 . S
O202 C209 1.257 . S
C203 O198 1.254 . S
C203 O199 1.269 . S
C204 O205 1.249 . S
C204 O206 1.270 . S
O205 Zn197 1.943 . S
O205 C204 1.249 . S
O206 Zn196 2.067 . S
O206 C204 1.270 . S
C207 O200 1.262 . S
C207 O208 1.232 . S
O208 C207 1.232 . S
C209 O201 1.260 . S
C209 O202 1.257 . S
Zn210 O213 2.031 . S
Zn210 O215 2.049 . S
Zn210 O220 2.067 . S
Zn211 O212 1.962 . S
Zn211 O214 1.986 . S
Zn211 O216 1.996 . S
Zn211 O219 1.943 . S
O212 Zn211 1.962 . S
O212 C217 1.254 . S
O213 Zn210 2.031 . S
O213 C217 1.269 . S
O214 Zn211 1.986 . S
O214 C221 1.262 . S
O215 Zn210 2.049 . S
O215 C223 1.260 . S
O216 Zn211 1.996 . S
O216 C223 1.257 . S
C217 O212 1.254 . S
C217 O213 1.269 . S
C218 O219 1.249 . S
C218 O220 1.270 . S
O219 Zn211 1.943 . S
O219 C218 1.249 . S
O220 Zn210 2.067 . S
O220 C218 1.270 . S
C221 O214 1.262 . S
C221 O222 1.232 . S
O222 C221 1.232 . S
C223 O215 1.260 . S
C223 O216 1.257 . S
Zn224 O227 2.031 . S
Zn224 O229 2.049 1_655 S
Zn224 O234 2.067 1_545 S
Zn225 O226 1.962 . S
Zn225 O228 1.986 . S
Zn225 O230 1.996 . S
Zn225 O233 1.943 . S
O226 Zn225 1.962 . S
O226 C231 1.254 . S
O227 Zn224 2.031 . S
O227 C231 1.269 . S
O228 Zn225 1.986 . S
O228 C235 1.262 . S
O229 Zn224 2.049 1_455 S
O229 C237 1.259 1_455 S
O230 Zn225 1.996 . S
O230 C237 1.257 . S
C231 O226 1.254 . S
C231 O227 1.269 . S
C232 O233 1.249 1_565 S
C232 O234 1.270 . S
O233 Zn225 1.943 . S
O233 C232 1.249 1_545 S
O234 Zn224 2.067 1_565 S
O234 C232 1.270 . S
C235 O228 1.262 . S
C235 O236 1.232 . S
O236 C235 1.232 . S
C237 O229 1.259 1_655 S
C237 O230 1.257 . S
Zn238 O241 2.031 . S
Zn238 O243 2.049 . S
Zn238 O248 2.067 . S
Zn239 O240 1.962 . S
Zn239 O242 1.986 . S
Zn239 O244 1.996 . S
Zn239 O247 1.943 . S
O240 Zn239 1.962 . S
O240 C245 1.254 . S
O241 Zn238 2.031 . S
O241 C245 1.269 . S
O242 Zn239 1.986 . S
O242 C249 1.262 . S
O243 Zn238 2.049 . S
O243 C251 1.260 . S
O244 Zn239 1.996 . S
O244 C251 1.257 . S
C245 O240 1.254 . S
C245 O241 1.269 . S
C246 O247 1.249 . S
C246 O248 1.270 . S
O247 Zn239 1.943 . S
O247 C246 1.249 . S
O248 Zn238 2.067 . S
O248 C246 1.270 . S
C249 O242 1.262 . S
C249 O250 1.232 . S
O250 C249 1.232 . S
C251 O243 1.260 . S
C251 O244 1.257 . S
Zn252 O255 2.031 . S
Zn252 O257 2.049 . S
Zn252 O262 2.067 . S
Zn253 O254 1.962 . S
Zn253 O256 1.986 . S
Zn253 O258 1.996 . S
Zn253 O261 1.943 . S
O254 Zn253 1.962 . S
O254 C259 1.254 . S
O255 Zn252 2.031 . S
O255 C259 1.269 . S
O256 Zn253 1.986 . S
O256 C263 1.262 . S
O257 Zn252 2.049 . S
O257 C265 1.260 . S
O258 Zn253 1.996 . S
O258 C265 1.257 . S
C259 O254 1.254 . S
C259 O255 1.269 . S
C260 O261 1.249 . S
C260 O262 1.270 . S
O261 Zn253 1.943 . S
O261 C260 1.249 . S
O262 Zn252 2.067 . S
O262 C260 1.270 . S
C263 O256 1.262 . S
C263 O264 1.232 . S
O264 C263 1.232 . S
C265 O257 1.260 . S
C265 O258 1.257 . S
Zn266 O269 2.031 . S
Zn266 O271 2.049 . S
Zn266 O276 2.067 . S
Zn267 O268 1.962 . S
Zn267 O270 1.986 . S
Zn267 O272 1.996 . S
Zn267 O275 1.943 . S
O268 Zn267 1.962 . S
O268 C273 1.254 . S
O269 Zn266 2.031 . S
O269 C273 1.269 . S
O270 Zn267 1.986 . S
O270 C277 1.262 . S
O271 Zn266 2.049 . S
O271 C279 1.260 . S
O272 Zn267 1.996 . S
O272 C279 1.257 . S
C273 O268 1.254 . S
C273 O269 1.269 . S
C274 O275 1.249 . S
C274 O276 1.270 . S
O275 Zn267 1.943 . S
O275 C274 1.249 . S
O276 Zn266 2.067 . S
O276 C274 1.270 . S
C277 O270 1.262 . S
C277 O278 1.232 . S
O278 C277 1.232 . S
C279 O271 1.260 . S
C279 O272 1.257 . S
Zn280 O283 2.031 . S
Zn280 O285 2.049 . S
Zn280 O290 2.067 . S
Zn281 O282 1.962 . S
Zn281 O284 1.986 . S
Zn281 O286 1.996 . S
Zn281 O289 1.943 . S
O282 Zn281 1.962 . S
O282 C287 1.254 1_554 S
O283 Zn280 2.031 . S
O283 C287 1.269 1_554 S
O284 Zn281 1.986 . S
O284 C291 1.262 . S
O285 Zn280 2.049 . S
O285 C293 1.260 . S
O286 Zn281 1.996 . S
O286 C293 1.257 . S
C287 O282 1.254 1_556 S
C287 O283 1.269 1_556 S
C288 O289 1.249 . S
C288 O290 1.270 . S
O289 Zn281 1.943 . S
O289 C288 1.249 . S
O290 Zn280 2.067 . S
O290 C288 1.270 . S
C291 O284 1.262 . S
C291 O292 1.232 . S
O292 C291 1.232 . S
C293 O285 1.260 . S
C293 O286 1.257 . S
Zn294 O297 2.031 . S
Zn294 O299 2.049 . S
Zn294 O304 2.067 . S
Zn295 O296 1.962 . S
Zn295 O298 1.986 . S
Zn295 O300 1.996 . S
Zn295 O303 1.943 . S
O296 Zn295 1.962 . S
O296 C301 1.254 . S
O297 Zn294 2.031 . S
O297 C301 1.269 . S
O298 Zn295 1.986 . S
O298 C305 1.262 . S
O299 Zn294 2.049 . S
O299 C307 1.260 . S
O300 Zn295 1.996 . S
O300 C307 1.257 . S
C301 O296 1.254 . S
C301 O297 1.269 . S
C302 O303 1.249 . S
C302 O304 1.270 . S
O303 Zn295 1.943 . S
O303 C302 1.249 . S
O304 Zn294 2.067 . S
O304 C302 1.270 . S
C305 O298 1.262 . S
C305 O306 1.232 . S
O306 C305 1.232 . S
C307 O299 1.260 . S
C307 O300 1.257 . S
Zn308 O311 2.031 . S
Zn308 O313 2.049 . S
Zn308 O318 2.067 . S
Zn309 O310 1.962 . S
Zn309 O312 1.986 . S
Zn309 O314 1.996 . S
Zn309 O317 1.943 . S
O310 Zn309 1.962 . S
O310 C315 1.254 . S
O311 Zn308 2.031 . S
O311 C315 1.269 . S
O312 Zn309 1.986 . S
O312 C319 1.262 . S
O313 Zn308 2.049 . S
O313 C321 1.260 . S
O314 Zn309 1.996 . S
O314 C321 1.257 . S
C315 O310 1.254 . S
C315 O311 1.269 . S
C316 O317 1.249 . S
C316 O318 1.270 . S
O317 Zn309 1.943 . S
O317 C316 1.249 . S
O318 Zn308 2.067 . S
O318 C316 1.270 . S
C319 O312 1.262 . S
C319 O320 1.232 . S
O320 C319 1.232 . S
C321 O313 1.260 . S
C321 O314 1.257 . S
Zn322 O325 2.031 . S
Zn322 O327 2.049 . S
Zn322 O332 2.067 . S
Zn323 O324 1.962 . S
Zn323 O326 1.986 . S
Zn323 O328 1.996 . S
Zn323 O331 1.943 . S
O324 Zn323 1.962 . S
O324 C329 1.254 . S
O325 Zn322 2.031 . S
O325 C329 1.269 . S
O326 Zn323 1.986 . S
O326 C333 1.262 . S
O327 Zn322 2.049 . S
O327 C335 1.260 . S
O328 Zn323 1.996 . S
O328 C335 1.257 . S
C329 O324 1.254 . S
C329 O325 1.269 . S
C330 O331 1.249 . S
C330 O332 1.270 . S
O331 Zn323 1.943 . S
O331 C330 1.249 . S
O332 Zn322 2.067 . S
O332 C330 1.270 . S
C333 O326 1.262 . S
C333 O334 1.232 . S
O334 C333 1.232 . S
C335 O327 1.260 . S
C335 O328 1.257 . S
Dy336 O339 2.307 . S
Dy336 O341 2.395 . S
Dy336 O342 2.379 . S
Dy336 O344 2.339 . S
Dy336 O346 2.298 . S
Dy336 O350 2.275 . S
Dy336 C358 2.738 . S
Dy337 O340 2.298 1_655 S
Dy337 O343 2.275 1_655 S
Dy337 O345 2.307 1_655 S
Dy337 O347 2.395 . S
Dy337 O348 2.379 1_554 S
Dy337 O351 2.339 1_654 S
Dy337 C367 2.738 . S
C338 O350 1.254 1_556 S
C338 O351 1.257 . S
O339 Dy336 2.307 . S
O339 C349 1.266 . S
O340 Dy337 2.298 1_455 S
O340 C349 1.236 . S
O341 Dy336 2.395 . S
O341 C358 1.255 . S
O342 Dy336 2.379 . S
O342 C358 1.249 . S
O343 Dy337 2.275 1_455 S
O343 C359 1.254 . S
O344 Dy336 2.339 . S
O344 C359 1.257 . S
O345 Dy337 2.307 1_455 S
O345 C360 1.266 . S
O346 Dy336 2.298 . S
O346 C360 1.236 . S
O347 Dy337 2.395 . S
O347 C367 1.255 . S
O348 Dy337 2.379 1_556 S
O348 C367 1.249 1_556 S
C349 O339 1.266 . S
C349 O340 1.236 . S
O350 Dy336 2.275 . S
O350 C338 1.254 1_554 S
O351 Dy337 2.339 1_456 S
O351 C338 1.257 . S
C352 C355 1.344 . S
C352 C356 1.328 . S
C352 C358 1.516 . S
C353 C354 1.304 . S
C353 C357 1.323 . S
C354 C353 1.304 . S
C354 C355 1.371 . S
C354 H368 0.930 . S
C355 C352 1.344 . S
C355 C354 1.371 . S
C355 H369 0.931 . S
C356 C352 1.328 . S
C356 C357 1.433 . S
C356 H370 0.931 . S
C357 C353 1.323 . S
C357 C356 1.433 . S
C357 H371 0.933 . S
C358 Dy336 2.738 . S
C358 O341 1.255 . S
C358 O342 1.249 . S
C358 C352 1.516 . S
C359 O343 1.254 . S
C359 O344 1.257 . S
C360 O345 1.266 . S
C360 O346 1.236 . S
C361 C364 1.344 . S
C361 C365 1.328 1_554 S
C361 C367 1.516 . S
C362 C363 1.304 . S
C362 C366 1.323 1_554 S
C363 C362 1.304 . S
C363 C364 1.371 . S
C363 H372 0.930 . S
C364 C361 1.344 . S
C364 C363 1.371 . S
C364 H373 0.931 . S
C365 C361 1.328 1_556 S
C365 C366 1.433 . S
C365 H374 0.931 . S
C366 C362 1.323 1_556 S
C366 C365 1.433 . S
C366 H375 0.933 . S
C367 Dy337 2.738 . S
C367 O347 1.255 . S
C367 O348 1.249 1_554 S
C367 C361 1.516 . S
H368 C354 0.930 . S
H369 C355 0.931 . S
H370 C356 0.931 . S
H371 C357 0.933 . S
H372 C363 0.930 . S
H373 C364 0.931 . S
H374 C365 0.931 . S
H375 C366 0.933 . S
Dy376 O379 2.307 . S
Dy376 O381 2.395 . S
Dy376 O382 2.379 . S
Dy376 O384 2.339 . S
Dy376 O386 2.298 . S
Dy376 O390 2.275 . S
Dy376 C398 2.738 . S
Dy377 O380 2.298 . S
Dy377 O383 2.275 . S
Dy377 O385 2.307 . S
Dy377 O387 2.395 . S
Dy377 O388 2.379 . S
Dy377 O391 2.339 . S
Dy377 C407 2.738 . S
C378 O390 1.254 . S
C378 O391 1.257 . S
O379 Dy376 2.307 . S
O379 C389 1.266 . S
O380 Dy377 2.298 . S
O380 C389 1.236 . S
O381 Dy376 2.395 . S
O381 C398 1.255 . S
O382 Dy376 2.379 . S
O382 C398 1.249 . S
O383 Dy377 2.275 . S
O383 C399 1.254 . S
O384 Dy376 2.339 . S
O384 C399 1.257 . S
O385 Dy377 2.307 . S
O385 C400 1.266 . S
O386 Dy376 2.298 . S
O386 C400 1.236 . S
O387 Dy377 2.395 . S
O387 C407 1.255 . S
O388 Dy377 2.379 . S
O388 C407 1.249 . S
C389 O379 1.266 . S
C389 O380 1.236 . S
O390 Dy376 2.275 . S
O390 C378 1.254 . S
O391 Dy377 2.339 . S
O391 C378 1.257 . S
C392 C395 1.344 . S
C392 C396 1.328 . S
C392 C398 1.516 . S
C393 C394 1.304 . S
C393 C397 1.323 . S
C394 C393 1.304 . S
C394 C395 1.371 . S
C394 H408 0.930 . S
C395 C392 1.344 . S
C395 C394 1.371 . S
C395 H409 0.931 . S
C396 C392 1.328 . S
C396 C397 1.433 . S
C396 H410 0.931 . S
C397 C393 1.323 . S
C397 C396 1.433 . S
C397 H411 0.933 . S
C398 Dy376 2.738 . S
C398 O381 1.255 . S
C398 O382 1.249 . S
C398 C392 1.516 . S
C399 O383 1.254 . S
C399 O384 1.257 . S
C400 O385 1.266 . S
C400 O386 1.236 . S
C401 C404 1.344 . S
C401 C405 1.328 . S
C401 C407 1.516 . S
C402 C403 1.304 . S
C402 C406 1.323 . S
C403 C402 1.304 . S
C403 C404 1.371 . S
C403 H412 0.930 . S
C404 C401 1.344 . S
C404 C403 1.371 . S
C404 H413 0.931 . S
C405 C401 1.328 . S
C405 C406 1.433 . S
C405 H414 0.931 . S
C406 C402 1.323 . S
C406 C405 1.433 . S
C406 H415 0.933 . S
C407 Dy377 2.738 . S
C407 O387 1.255 . S
C407 O388 1.249 . S
C407 C401 1.516 . S
H408 C394 0.930 . S
H409 C395 0.931 . S
H410 C396 0.931 . S
H411 C397 0.933 . S
H412 C403 0.930 . S
H413 C404 0.931 . S
H414 C405 0.931 . S
H415 C406 0.933 . S
Dy416 O419 2.307 . S
Dy416 O421 2.395 . S
Dy416 O422 2.379 . S
Dy416 O424 2.339 . S
Dy416 O426 2.298 . S
Dy416 O430 2.275 . S
Dy416 C438 2.738 . S
Dy417 O420 2.298 . S
Dy417 O423 2.275 . S
Dy417 O425 2.307 . S
Dy417 O427 2.395 . S
Dy417 O428 2.379 . S
Dy417 O431 2.339 . S
Dy417 C447 2.738 . S
C418 O430 1.254 . S
C418 O431 1.257 . S
O419 Dy416 2.307 . S
O419 C429 1.266 1_545 S
O420 Dy417 2.298 . S
O420 C429 1.236 1_545 S
O421 Dy416 2.395 . S
O421 C438 1.255 . S
O422 Dy416 2.379 . S
O422 C438 1.249 . S
O423 Dy417 2.275 . S
O423 C439 1.254 . S
O424 Dy416 2.339 . S
O424 C439 1.257 . S
O425 Dy417 2.307 . S
O425 C440 1.266 . S
O426 Dy416 2.298 . S
O426 C440 1.236 . S
O427 Dy417 2.395 . S
O427 C447 1.255 . S
O428 Dy417 2.379 . S
O428 C447 1.249 . S
C429 O419 1.266 1_565 S
C429 O420 1.236 1_565 S
O430 Dy416 2.275 . S
O430 C418 1.254 . S
O431 Dy417 2.339 . S
O431 C418 1.257 . S
C432 C435 1.344 . S
C432 C436 1.328 . S
C432 C438 1.516 . S
C433 C434 1.304 . S
C433 C437 1.323 . S
C434 C433 1.304 . S
C434 C435 1.371 . S
C434 H448 0.930 . S
C435 C432 1.344 . S
C435 C434 1.371 . S
C435 H449 0.931 . S
C436 C432 1.328 . S
C436 C437 1.433 . S
C436 H450 0.931 . S
C437 C433 1.323 . S
C437 C436 1.433 . S
C437 H451 0.933 . S
C438 Dy416 2.738 . S
C438 O421 1.255 . S
C438 O422 1.249 . S
C438 C432 1.516 . S
C439 O423 1.254 . S
C439 O424 1.257 . S
C440 O425 1.266 . S
C440 O426 1.236 . S
C441 C444 1.319 1_545 S
C441 C445 1.328 . S
C441 C447 1.516 . S
C442 C443 1.304 . S
C442 C446 1.323 . S
C443 C442 1.304 . S
C443 C444 1.398 . S
C443 H452 0.930 . S
C444 C441 1.319 1_565 S
C444 C443 1.398 . S
C444 H453 0.930 1_565 S
C445 C441 1.328 . S
C445 C446 1.433 1_545 S
C445 H454 0.931 . S
C446 C442 1.323 . S
C446 C445 1.433 1_565 S
C446 H455 0.933 . S
C447 Dy417 2.738 . S
C447 O427 1.255 . S
C447 O428 1.249 . S
C447 C441 1.516 . S
H448 C434 0.930 . S
H449 C435 0.931 . S
H450 C436 0.931 . S
H451 C437 0.933 . S
H452 C443 0.930 . S
H453 C444 0.930 1_545 S
H454 C445 0.931 . S
H455 C446 0.933 . S
Dy456 O459 2.307 . S
Dy456 O461 2.395 . S
Dy456 O462 2.379 . S
Dy456 O464 2.339 . S
Dy456 O466 2.298 . S
Dy456 O470 2.275 . S
Dy456 C478 2.738 . S
Dy457 O460 2.298 . S
Dy457 O463 2.275 . S
Dy457 O465 2.307 . S
Dy457 O467 2.395 . S
Dy457 O468 2.379 . S
Dy457 O471 2.339 . S
Dy457 C487 2.738 . S
C458 O470 1.254 . S
C458 O471 1.257 . S
O459 Dy456 2.307 . S
O459 C469 1.266 . S
O460 Dy457 2.298 . S
O460 C469 1.236 . S
O461 Dy456 2.395 . S
O461 C478 1.255 . S
O462 Dy456 2.379 . S
O462 C478 1.249 . S
O463 Dy457 2.275 . S
O463 C479 1.254 . S
O464 Dy456 2.339 . S
O464 C479 1.257 . S
O465 Dy457 2.307 . S
O465 C480 1.266 . S
O466 Dy456 2.298 . S
O466 C480 1.236 . S
O467 Dy457 2.395 . S
O467 C487 1.255 . S
O468 Dy457 2.379 . S
O468 C487 1.249 . S
C469 O459 1.266 . S
C469 O460 1.236 . S
O470 Dy456 2.275 . S
O470 C458 1.254 . S
O471 Dy457 2.339 . S
O471 C458 1.257 . S
C472 C475 1.344 . S
C472 C476 1.328 . S
C472 C478 1.516 . S
C473 C474 1.304 . S
C473 C477 1.323 . S
C474 C473 1.304 . S
C474 C475 1.371 . S
C474 H488 0.930 . S
C475 C472 1.344 . S
C475 C474 1.371 . S
C475 H489 0.931 . S
C476 C472 1.328 . S
C476 C477 1.433 . S
C476 H490 0.931 . S
C477 C473 1.323 . S
C477 C476 1.433 . S
C477 H491 0.933 . S
C478 Dy456 2.738 . S
C478 O461 1.255 . S
C478 O462 1.249 . S
C478 C472 1.516 . S
C479 O463 1.254 . S
C479 O464 1.257 . S
C480 O465 1.266 . S
C480 O466 1.236 . S
C481 C484 1.344 . S
C481 C485 1.328 . S
C481 C487 1.516 . S
C482 C483 1.304 . S
C482 C486 1.323 . S
C483 C482 1.304 . S
C483 C484 1.371 . S
C483 H492 0.930 . S
C484 C481 1.344 . S
C484 C483 1.371 . S
C484 H493 0.931 . S
C485 C481 1.328 . S
C485 C486 1.433 . S
C485 H494 0.931 . S
C486 C482 1.323 . S
C486 C485 1.433 . S
C486 H495 0.933 . S
C487 Dy457 2.738 . S
C487 O467 1.255 . S
C487 O468 1.249 . S
C487 C481 1.516 . S
H488 C474 0.930 . S
H489 C475 0.931 . S
H490 C476 0.931 . S
H491 C477 0.933 . S
H492 C483 0.930 . S
H493 C484 0.931 . S
H494 C485 0.931 . S
H495 C486 0.933 . S
Dy496 O499 2.307 . S
Dy496 O501 2.395 1_545 S
Dy496 O502 2.379 1_545 S
Dy496 O504 2.339 . S
Dy496 O506 2.298 . S
Dy496 O510 2.275 . S
Dy496 C518 2.738 1_545 S
Dy497 O500 2.298 . S
Dy497 O503 2.275 . S
Dy497 O505 2.307 . S
Dy497 O507 2.395 . S
Dy497 O508 2.358 1_455 S
Dy497 O511 2.339 1_455 S
Dy497 C527 2.738 . S
C498 O510 1.254 1_655 S
C498 O511 1.257 . S
O499 Dy496 2.307 . S
O499 C509 1.266 . S
O500 Dy497 2.298 . S
O500 C509 1.236 . S
O501 Dy496 2.395 1_565 S
O501 C518 1.255 . S
O502 Dy496 2.379 1_565 S
O502 C518 1.249 . S
O503 Dy497 2.275 . S
O503 C519 1.254 . S
O504 Dy496 2.339 . S
O504 C519 1.257 . S
O505 Dy497 2.307 . S
O505 C520 1.266 . S
O506 Dy496 2.298 . S
O506 C520 1.236 . S
O507 Dy497 2.395 . S
O507 C527 1.255 . S
O508 Dy497 2.358 1_655 S
O508 C527 1.230 1_655 S
C509 O499 1.266 . S
C509 O500 1.236 . S
O510 Dy496 2.275 . S
O510 C498 1.254 1_455 S
O511 Dy497 2.339 1_655 S
O511 C498 1.257 . S
C512 C515 1.344 . S
C512 C516 1.328 . S
C512 C518 1.516 . S
C513 C514 1.304 . S
C513 C517 1.323 . S
C514 C513 1.304 . S
C514 C515 1.371 . S
C514 H528 0.930 . S
C515 C512 1.344 . S
C515 C514 1.371 . S
C515 H529 0.931 . S
C516 C512 1.328 . S
C516 C517 1.433 . S
C516 H530 0.931 . S
C517 C513 1.323 . S
C517 C516 1.433 . S
C517 H531 0.933 . S
C518 Dy496 2.738 1_565 S
C518 O501 1.255 . S
C518 O502 1.249 . S
C518 C512 1.516 . S
C519 O503 1.254 . S
C519 O504 1.257 . S
C520 O505 1.266 . S
C520 O506 1.236 . S
C521 C524 1.344 . S
C521 C525 1.328 1_455 S
C521 C527 1.516 . S
C522 C523 1.304 . S
C522 C526 1.323 1_455 S
C523 C522 1.304 . S
C523 C524 1.371 . S
C523 H532 0.930 . S
C524 C521 1.344 . S
C524 C523 1.371 . S
C524 H533 0.931 . S
C525 C521 1.328 1_655 S
C525 C526 1.433 . S
C525 H534 0.931 . S
C526 C522 1.323 1_655 S
C526 C525 1.433 . S
C526 H535 0.933 . S
C527 Dy497 2.738 . S
C527 O507 1.255 . S
C527 O508 1.230 1_455 S
C527 C521 1.516 . S
H528 C514 0.930 . S
H529 C515 0.931 . S
H530 C516 0.931 . S
H531 C517 0.933 . S
H532 C523 0.930 . S
H533 C524 0.931 . S
H534 C525 0.931 . S
H535 C526 0.933 . S
Dy536 O539 2.307 . S
Dy536 O541 2.395 . S
Dy536 O542 2.379 . S
Dy536 O544 2.339 . S
Dy536 O546 2.298 . S
Dy536 O550 2.275 . S
Dy536 C558 2.738 . S
Dy537 O540 2.298 . S
Dy537 O543 2.275 . S
Dy537 O545 2.307 . S
Dy537 O547 2.395 . S
Dy537 O548 2.379 . S
Dy537 O551 2.339 . S
Dy537 C567 2.738 . S
C538 O550 1.254 . S
C538 O551 1.257 . S
O539 Dy536 2.307 . S
O539 C549 1.266 . S
O540 Dy537 2.298 . S
O540 C549 1.236 . S
O541 Dy536 2.395 . S
O541 C558 1.255 . S
O542 Dy536 2.379 . S
O542 C558 1.249 . S
O543 Dy537 2.275 . S
O543 C559 1.254 . S
O544 Dy536 2.339 . S
O544 C559 1.257 . S
O545 Dy537 2.307 . S
O545 C560 1.266 . S
O546 Dy536 2.298 . S
O546 C560 1.236 . S
O547 Dy537 2.395 . S
O547 C567 1.255 . S
O548 Dy537 2.379 . S
O548 C567 1.249 . S
C549 O539 1.266 . S
C549 O540 1.236 . S
O550 Dy536 2.275 . S
O550 C538 1.254 . S
O551 Dy537 2.339 . S
O551 C538 1.257 . S
C552 C555 1.344 . S
C552 C556 1.328 . S
C552 C558 1.516 . S
C553 C554 1.304 . S
C553 C557 1.323 . S
C554 C553 1.304 . S
C554 C555 1.371 . S
C554 H568 0.930 . S
C555 C552 1.344 . S
C555 C554 1.371 . S
C555 H569 0.931 . S
C556 C552 1.328 . S
C556 C557 1.433 . S
C556 H570 0.931 . S
C557 C553 1.323 . S
C557 C556 1.433 . S
C557 H571 0.933 . S
C558 Dy536 2.738 . S
C558 O541 1.255 . S
C558 O542 1.249 . S
C558 C552 1.516 . S
C559 O543 1.254 . S
C559 O544 1.257 . S
C560 O545 1.266 . S
C560 O546 1.236 . S
C561 C564 1.344 . S
C561 C565 1.328 . S
C561 C567 1.516 . S
C562 C563 1.304 . S
C562 C566 1.323 . S
C563 C562 1.304 . S
C563 C564 1.371 . S
C563 H572 0.930 . S
C564 C561 1.344 . S
C564 C563 1.371 . S
C564 H573 0.931 . S
C565 C561 1.328 . S
C565 C566 1.433 . S
C565 H574 0.931 . S
C566 C562 1.323 . S
C566 C565 1.433 . S
C566 H575 0.933 . S
C567 Dy537 2.738 . S
C567 O547 1.255 . S
C567 O548 1.249 . S
C567 C561 1.516 . S
H568 C554 0.930 . S
H569 C555 0.931 . S
H570 C556 0.931 . S
H571 C557 0.933 . S
H572 C563 0.930 . S
H573 C564 0.931 . S
H574 C565 0.931 . S
H575 C566 0.933 . S
Dy576 O579 2.317 . S
Dy576 O581 2.377 1_554 S
Dy576 O582 2.363 1_554 S
Dy576 O584 2.351 . S
Dy576 O586 2.306 . S
Dy576 O590 2.283 . S
Dy576 C598 2.719 1_554 S
Dy577 O580 2.298 . S
Dy577 O583 2.275 . S
Dy577 O585 2.307 . S
Dy577 O587 2.395 . S
Dy577 O588 2.379 . S
Dy577 O591 2.339 . S
Dy577 C607 2.738 . S
C578 O590 1.254 . S
C578 O591 1.257 . S
O579 Dy576 2.317 . S
O579 C589 1.266 . S
O580 Dy577 2.298 . S
O580 C589 1.236 . S
O581 Dy576 2.377 1_556 S
O581 C598 1.255 . S
O582 Dy576 2.363 1_556 S
O582 C598 1.249 . S
O583 Dy577 2.275 . S
O583 C599 1.254 . S
O584 Dy576 2.351 . S
O584 C599 1.257 . S
O585 Dy577 2.307 . S
O585 C600 1.266 . S
O586 Dy576 2.306 . S
O586 C600 1.236 . S
O587 Dy577 2.395 . S
O587 C607 1.255 . S
O588 Dy577 2.379 . S
O588 C607 1.249 . S
C589 O579 1.266 . S
C589 O580 1.236 . S
O590 Dy576 2.283 . S
O590 C578 1.254 . S
O591 Dy577 2.339 . S
O591 C578 1.257 . S
C592 C595 1.344 . S
C592 C596 1.328 . S
C592 C598 1.516 . S
C593 C594 1.304 . S
C593 C597 1.323 . S
C594 C593 1.304 . S
C594 C595 1.371 . S
C594 H608 0.930 . S
C595 C592 1.344 . S
C595 C594 1.371 . S
C595 H609 0.931 . S
C596 C592 1.328 . S
C596 C597 1.433 . S
C596 H610 0.931 . S
C597 C593 1.323 . S
C597 C596 1.433 . S
C597 H611 0.933 . S
C598 Dy576 2.719 1_556 S
C598 O581 1.255 . S
C598 O582 1.249 . S
C598 C592 1.516 . S
C599 O583 1.254 . S
C599 O584 1.257 . S
C600 O585 1.266 . S
C600 O586 1.236 . S
C601 C604 1.344 . S
C601 C605 1.328 1_545 S
C601 C607 1.516 . S
C602 C603 1.304 1_565 S
C602 C606 1.323 . S
C603 C602 1.304 1_545 S
C603 C604 1.371 . S
C603 H612 0.930 . S
C604 C601 1.344 . S
C604 C603 1.371 . S
C604 H613 0.931 . S
C605 C601 1.328 1_565 S
C605 C606 1.433 . S
C605 H614 0.931 . S
C606 C602 1.323 . S
C606 C605 1.433 . S
C606 H615 0.933 . S
C607 Dy577 2.738 . S
C607 O587 1.255 . S
C607 O588 1.249 . S
C607 C601 1.516 . S
H608 C594 0.930 . S
H609 C595 0.931 . S
H610 C596 0.931 . S
H611 C597 0.933 . S
H612 C603 0.930 . S
H613 C604 0.931 . S
H614 C605 0.931 . S
H615 C606 0.933 . S
Dy616 O619 2.307 . S
Dy616 O621 2.395 . S
Dy616 O622 2.379 . S
Dy616 O624 2.339 . S
Dy616 O626 2.298 . S
Dy616 O630 2.275 . S
Dy616 C638 2.738 . S
Dy617 O620 2.298 . S
Dy617 O623 2.275 . S
Dy617 O625 2.307 . S
Dy617 O627 2.395 . S
Dy617 O628 2.379 . S
Dy617 O631 2.339 . S
Dy617 C647 2.738 . S
C618 O630 1.254 . S
C618 O631 1.257 . S
O619 Dy616 2.307 . S
O619 C629 1.266 . S
O620 Dy617 2.298 . S
O620 C629 1.236 . S
O621 Dy616 2.395 . S
O621 C638 1.255 . S
O622 Dy616 2.379 . S
O622 C638 1.249 . S
O623 Dy617 2.275 . S
O623 C639 1.254 . S
O624 Dy616 2.339 . S
O624 C639 1.257 . S
O625 Dy617 2.307 . S
O625 C640 1.266 . S
O626 Dy616 2.298 . S
O626 C640 1.236 . S
O627 Dy617 2.395 . S
O627 C647 1.255 . S
O628 Dy617 2.379 . S
O628 C647 1.249 . S
C629 O619 1.266 . S
C629 O620 1.236 . S
O630 Dy616 2.275 . S
O630 C618 1.254 . S
O631 Dy617 2.339 . S
O631 C618 1.257 . S
C632 C635 1.344 . S
C632 C636 1.328 . S
C632 C638 1.516 . S
C633 C634 1.304 . S
C633 C637 1.323 . S
C634 C633 1.304 . S
C634 C635 1.371 . S
C634 H648 0.930 . S
C635 C632 1.344 . S
C635 C634 1.371 . S
C635 H649 0.931 . S
C636 C632 1.328 . S
C636 C637 1.433 . S
C636 H650 0.931 . S
C637 C633 1.323 . S
C637 C636 1.433 . S
C637 H651 0.933 . S
C638 Dy616 2.738 . S
C638 O621 1.255 . S
C638 O622 1.249 . S
C638 C632 1.516 . S
C639 O623 1.254 . S
C639 O624 1.257 . S
C640 O625 1.266 . S
C640 O626 1.236 . S
C641 C644 1.344 . S
C641 C645 1.328 . S
C641 C647 1.516 . S
C642 C643 1.304 . S
C642 C646 1.323 . S
C643 C642 1.304 . S
C643 C644 1.371 . S
C643 H652 0.930 . S
C644 C641 1.344 . S
C644 C643 1.371 . S
C644 H653 0.931 . S
C645 C641 1.328 . S
C645 C646 1.433 . S
C645 H654 0.931 . S
C646 C642 1.323 . S
C646 C645 1.433 . S
C646 H655 0.933 . S
C647 Dy617 2.738 . S
C647 O627 1.255 . S
C647 O628 1.249 . S
C647 C641 1.516 . S
H648 C634 0.930 . S
H649 C635 0.931 . S
H650 C636 0.931 . S
H651 C637 0.933 . S
H652 C643 0.930 . S
H653 C644 0.931 . S
H654 C645 0.931 . S
H655 C646 0.933 . S
Dy656 O659 2.307 1_554 S
Dy656 O661 2.395 . S
Dy656 O662 2.379 . S
Dy656 O664 2.339 . S
Dy656 O666 2.298 . S
Dy656 O670 2.275 . S
Dy656 C678 2.738 . S
Dy657 O660 2.298 1_554 S
Dy657 O663 2.275 . S
Dy657 O665 2.307 . S
Dy657 O667 2.395 . S
Dy657 O668 2.379 . S
Dy657 O671 2.339 . S
Dy657 C687 2.738 . S
C658 O670 1.254 . S
C658 O671 1.257 . S
O659 Dy656 2.307 1_556 S
O659 C669 1.266 . S
O660 Dy657 2.298 1_556 S
O660 C669 1.236 . S
O661 Dy656 2.395 . S
O661 C678 1.255 . S
O662 Dy656 2.379 . S
O662 C678 1.249 . S
O663 Dy657 2.275 . S
O663 C679 1.254 . S
O664 Dy656 2.339 . S
O664 C679 1.257 . S
O665 Dy657 2.307 . S
O665 C680 1.266 . S
O666 Dy656 2.298 . S
O666 C680 1.236 . S
O667 Dy657 2.395 . S
O667 C687 1.255 . S
O668 Dy657 2.379 . S
O668 C687 1.249 . S
C669 O659 1.266 . S
C669 O660 1.236 . S
O670 Dy656 2.275 . S
O670 C658 1.254 . S
O671 Dy657 2.339 . S
O671 C658 1.257 . S
C672 C675 1.344 . S
C672 C676 1.328 . S
C672 C678 1.516 . S
C673 C674 1.304 . S
C673 C677 1.323 . S
C674 C673 1.304 . S
C674 C675 1.371 . S
C674 H688 0.930 . S
C675 C672 1.344 . S
C675 C674 1.371 . S
C675 H689 0.931 . S
C676 C672 1.328 . S
C676 C677 1.433 . S
C676 H690 0.931 . S
C677 C673 1.323 . S
C677 C676 1.433 . S
C677 H691 0.933 . S
C678 Dy656 2.738 . S
C678 O661 1.255 . S
C678 O662 1.249 . S
C678 C672 1.516 . S
C679 O663 1.254 . S
C679 O664 1.257 . S
C680 O665 1.266 . S
C680 O666 1.236 . S
C681 C684 1.344 . S
C681 C685 1.328 . S
C681 C687 1.516 1_556 S
C682 C683 1.304 . S
C682 C686 1.323 . S
C683 C682 1.304 . S
C683 C684 1.371 . S
C683 H692 0.930 . S
C684 C681 1.344 . S
C684 C683 1.371 . S
C684 H693 0.931 . S
C685 C681 1.328 . S
C685 C686 1.433 . S
C685 H694 0.931 1_556 S
C686 C682 1.323 . S
C686 C685 1.433 . S
C686 H695 0.933 . S
C687 Dy657 2.738 . S
C687 O667 1.255 . S
C687 O668 1.249 . S
C687 C681 1.516 1_554 S
H688 C674 0.930 . S
H689 C675 0.931 . S
H690 C676 0.931 . S
H691 C677 0.933 . S
H692 C683 0.930 . S
H693 C684 0.931 . S
H694 C685 0.931 1_554 S
H695 C686 0.933 . S
Dy696 O699 2.307 . S
Dy696 O701 2.395 . S
Dy696 O702 2.379 . S
Dy696 O704 2.339 . S
Dy696 O706 2.298 . S
Dy696 O710 2.275 . S
Dy696 C718 2.738 . S
Dy697 O700 2.298 . S
Dy697 O703 2.275 . S
Dy697 O705 2.307 . S
Dy697 O707 2.395 . S
Dy697 O708 2.379 . S
Dy697 O711 2.339 . S
Dy697 C727 2.738 . S
C698 O710 1.254 . S
C698 O711 1.257 . S
O699 Dy696 2.307 . S
O699 C709 1.266 . S
O700 Dy697 2.298 . S
O700 C709 1.236 . S
O701 Dy696 2.395 . S
O701 C718 1.255 . S
O702 Dy696 2.379 . S
O702 C718 1.249 . S
O703 Dy697 2.275 . S
O703 C719 1.254 . S
O704 Dy696 2.339 . S
O704 C719 1.257 . S
O705 Dy697 2.307 . S
O705 C720 1.266 . S
O706 Dy696 2.298 . S
O706 C720 1.236 . S
O707 Dy697 2.395 . S
O707 C727 1.255 . S
O708 Dy697 2.379 . S
O708 C727 1.249 . S
C709 O699 1.266 . S
C709 O700 1.236 . S
O710 Dy696 2.275 . S
O710 C698 1.254 . S
O711 Dy697 2.339 . S
O711 C698 1.257 . S
C712 C715 1.344 . S
C712 C716 1.328 . S
C712 C718 1.516 . S
C713 C714 1.304 . S
C713 C717 1.323 . S
C714 C713 1.304 . S
C714 C715 1.371 . S
C714 H728 0.930 . S
C715 C712 1.344 . S
C715 C714 1.371 . S
C715 H729 0.931 . S
C716 C712 1.328 . S
C716 C717 1.433 . S
C716 H730 0.931 . S
C717 C713 1.323 . S
C717 C716 1.433 . S
C717 H731 0.933 . S
C718 Dy696 2.738 . S
C718 O701 1.255 . S
C718 O702 1.249 . S
C718 C712 1.516 . S
C719 O703 1.254 . S
C719 O704 1.257 . S
C720 O705 1.266 . S
C720 O706 1.236 . S
C721 C724 1.344 . S
C721 C725 1.328 . S
C721 C727 1.516 . S
C722 C723 1.304 . S
C722 C726 1.323 . S
C723 C722 1.304 . S
C723 C724 1.371 . S
C723 H732 0.930 . S
C724 C721 1.344 . S
C724 C723 1.371 . S
C724 H733 0.931 . S
C725 C721 1.328 . S
C725 C726 1.433 . S
C725 H734 0.931 . S
C726 C722 1.323 . S
C726 C725 1.433 . S
C726 H735 0.933 . S
C727 Dy697 2.738 . S
C727 O707 1.255 . S
C727 O708 1.249 . S
C727 C721 1.516 . S
H728 C714 0.930 . S
H729 C715 0.931 . S
H730 C716 0.931 . S
H731 C717 0.933 . S
H732 C723 0.930 . S
H733 C724 0.931 . S
H734 C725 0.931 . S
H735 C726 0.933 . S
Dy736 O739 2.307 1_455 S
Dy736 O741 2.395 . S
Dy736 O742 2.379 . S
Dy736 O744 2.339 . S
Dy736 O746 2.298 . S
Dy736 O750 2.275 . S
Dy736 C758 2.738 . S
Dy737 O740 2.298 1_455 S
Dy737 O743 2.275 . S
Dy737 O745 2.307 . S
Dy737 O747 2.395 . S
Dy737 O748 2.379 . S
Dy737 O751 2.339 . S
Dy737 C767 2.738 . S
C738 O750 1.254 . S
C738 O751 1.257 . S
O739 Dy736 2.307 1_655 S
O739 C749 1.266 . S
O740 Dy737 2.298 1_655 S
O740 C749 1.236 . S
O741 Dy736 2.395 . S
O741 C758 1.255 . S
O742 Dy736 2.379 . S
O742 C758 1.249 . S
O743 Dy737 2.275 . S
O743 C759 1.254 . S
O744 Dy736 2.339 . S
O744 C759 1.257 . S
O745 Dy737 2.307 . S
O745 C760 1.266 . S
O746 Dy736 2.298 . S
O746 C760 1.236 . S
O747 Dy737 2.395 . S
O747 C767 1.255 . S
O748 Dy737 2.379 . S
O748 C767 1.249 . S
C749 O739 1.266 . S
C749 O740 1.236 . S
O750 Dy736 2.275 . S
O750 C738 1.254 . S
O751 Dy737 2.339 . S
O751 C738 1.257 . S
C752 C755 1.344 . S
C752 C756 1.328 . S
C752 C758 1.516 . S
C753 C754 1.304 . S
C753 C757 1.323 . S
C754 C753 1.304 . S
C754 C755 1.371 . S
C754 H768 0.930 . S
C755 C752 1.344 . S
C755 C754 1.371 . S
C755 H769 0.931 . S
C756 C752 1.328 . S
C756 C757 1.433 . S
C756 H770 0.931 . S
C757 C753 1.323 . S
C757 C756 1.433 . S
C757 H771 0.933 . S
C758 Dy736 2.738 . S
C758 O741 1.255 . S
C758 O742 1.249 . S
C758 C752 1.516 . S
C759 O743 1.254 . S
C759 O744 1.257 . S
C760 O745 1.266 . S
C760 O746 1.236 . S
C761 C764 1.344 . S
C761 C765 1.328 . S
C761 C767 1.516 1_655 S
C762 C763 1.304 . S
C762 C766 1.323 . S
C763 C762 1.304 . S
C763 C764 1.371 . S
C763 H772 0.930 . S
C764 C761 1.344 . S
C764 C763 1.371 . S
C764 H773 0.931 . S
C765 C761 1.328 . S
C765 C766 1.433 . S
C765 H774 0.931 . S
C766 C762 1.323 . S
C766 C765 1.433 . S
C766 H775 0.933 . S
C767 Dy737 2.738 . S
C767 O747 1.255 . S
C767 O748 1.249 . S
C767 C761 1.516 1_455 S
H768 C754 0.930 . S
H769 C755 0.931 . S
H770 C756 0.931 . S
H771 C757 0.933 . S
H772 C763 0.930 . S
H773 C764 0.931 . S
H774 C765 0.931 . S
H775 C766 0.933 . S
Dy776 O779 2.307 . S
Dy776 O781 2.395 . S
Dy776 O782 2.379 . S
Dy776 O784 2.339 . S
Dy776 O786 2.298 . S
Dy776 O790 2.275 . S
Dy776 C798 2.738 . S
Dy777 O780 2.298 . S
Dy777 O783 2.275 . S
Dy777 O785 2.307 . S
Dy777 O787 2.395 . S
Dy777 O788 2.379 . S
Dy777 O791 2.339 . S
Dy777 C807 2.738 . S
C778 O790 1.254 . S
C778 O791 1.257 . S
O779 Dy776 2.307 . S
O779 C789 1.266 . S
O780 Dy777 2.298 . S
O780 C789 1.236 . S
O781 Dy776 2.395 . S
O781 C798 1.255 . S
O782 Dy776 2.379 . S
O782 C798 1.249 . S
O783 Dy777 2.275 . S
O783 C799 1.254 . S
O784 Dy776 2.339 . S
O784 C799 1.257 . S
O785 Dy777 2.307 . S
O785 C800 1.266 . S
O786 Dy776 2.298 . S
O786 C800 1.236 . S
O787 Dy777 2.395 . S
O787 C807 1.255 . S
O788 Dy777 2.379 . S
O788 C807 1.249 . S
C789 O779 1.266 . S
C789 O780 1.236 . S
O790 Dy776 2.275 . S
O790 C778 1.254 . S
O791 Dy777 2.339 . S
O791 C778 1.257 . S
C792 C795 1.344 . S
C792 C796 1.328 . S
C792 C798 1.516 . S
C793 C794 1.304 . S
C793 C797 1.323 . S
C794 C793 1.304 . S
C794 C795 1.371 . S
C794 H808 0.930 . S
C795 C792 1.344 . S
C795 C794 1.371 . S
C795 H809 0.931 . S
C796 C792 1.328 . S
C796 C797 1.433 . S
C796 H810 0.931 . S
C797 C793 1.323 . S
C797 C796 1.433 . S
C797 H811 0.933 . S
C798 Dy776 2.738 . S
C798 O781 1.255 . S
C798 O782 1.249 . S
C798 C792 1.516 . S
C799 O783 1.254 . S
C799 O784 1.257 . S
C800 O785 1.266 . S
C800 O786 1.236 . S
C801 C804 1.344 . S
C801 C805 1.328 . S
C801 C807 1.516 . S
C802 C803 1.304 . S
C802 C806 1.323 . S
C803 C802 1.304 . S
C803 C804 1.371 . S
C803 H812 0.930 . S
C804 C801 1.344 . S
C804 C803 1.371 . S
C804 H813 0.931 . S
C805 C801 1.328 . S
C805 C806 1.433 . S
C805 H814 0.931 . S
C806 C802 1.323 . S
C806 C805 1.433 . S
C806 H815 0.933 . S
C807 Dy777 2.738 . S
C807 O787 1.255 . S
C807 O788 1.249 . S
C807 C801 1.516 . S
H808 C794 0.930 . S
H809 C795 0.931 . S
H810 C796 0.931 . S
H811 C797 0.933 . S
H812 C803 0.930 . S
H813 C804 0.931 . S
H814 C805 0.931 . S
H815 C806 0.933 . S
Dy816 O819 2.307 . S
Dy816 O821 2.395 . S
Dy816 O822 2.379 . S
Dy816 O824 2.339 . S
Dy816 O826 2.298 . S
Dy816 O830 2.275 . S
Dy816 C838 2.738 . S
Dy817 O820 2.298 . S
Dy817 O823 2.275 . S
Dy817 O825 2.307 . S
Dy817 O827 2.395 . S
Dy817 O828 2.379 . S
Dy817 O831 2.339 . S
Dy817 C847 2.738 . S
C818 O830 1.254 . S
C818 O831 1.257 . S
O819 Dy816 2.307 . S
O819 C829 1.266 . S
O820 Dy817 2.298 . S
O820 C829 1.236 . S
O821 Dy816 2.395 . S
O821 C838 1.255 . S
O822 Dy816 2.379 . S
O822 C838 1.249 . S
O823 Dy817 2.275 . S
O823 C839 1.254 . S
O824 Dy816 2.339 . S
O824 C839 1.257 . S
O825 Dy817 2.307 . S
O825 C840 1.266 . S
O826 Dy816 2.298 . S
O826 C840 1.236 . S
O827 Dy817 2.395 . S
O827 C847 1.255 . S
O828 Dy817 2.379 . S
O828 C847 1.249 . S
C829 O819 1.266 . S
C829 O820 1.236 . S
O830 Dy816 2.275 . S
O830 C818 1.254 . S
O831 Dy817 2.339 . S
O831 C818 1.257 . S
C832 C835 1.344 . S
C832 C836 1.328 . S
C832 C838 1.516 . S
C833 C834 1.304 . S
C833 C837 1.323 . S
C834 C833 1.304 . S
C834 C835 1.371 . S
C834 H848 0.930 . S
C835 C832 1.344 . S
C835 C834 1.371 . S
C835 H849 0.931 . S
C836 C832 1.328 . S
C836 C837 1.433 . S
C836 H850 0.931 . S
C837 C833 1.323 . S
C837 C836 1.433 . S
C837 H851 0.933 . S
C838 Dy816 2.738 . S
C838 O821 1.255 . S
C838 O822 1.249 . S
C838 C832 1.516 . S
C839 O823 1.254 . S
C839 O824 1.257 . S
C840 O825 1.266 . S
C840 O826 1.236 . S
C841 C844 1.344 . S
C841 C845 1.328 . S
C841 C847 1.516 . S
C842 C843 1.304 . S
C842 C846 1.323 . S
C843 C842 1.304 . S
C843 C844 1.371 . S
C843 H852 0.930 . S
C844 C841 1.344 . S
C844 C843 1.371 . S
C844 H853 0.931 . S
C845 C841 1.328 . S
C845 C846 1.433 . S
C845 H854 0.931 . S
C846 C842 1.323 . S
C846 C845 1.433 . S
C846 H855 0.933 . S
C847 Dy817 2.738 . S
C847 O827 1.255 . S
C847 O828 1.249 . S
C847 C841 1.516 . S
H848 C834 0.930 . S
H849 C835 0.931 . S
H850 C836 0.931 . S
H851 C837 0.933 . S
H852 C843 0.930 . S
H853 C844 0.931 . S
H854 C845 0.931 . S
H855 C846 0.933 . S
Dy856 O859 2.307 . S
Dy856 O861 2.395 . S
Dy856 O862 2.379 . S
Dy856 O864 2.339 . S
Dy856 O866 2.298 . S
Dy856 O870 2.275 . S
Dy856 C878 2.738 . S
Dy857 O860 2.298 . S
Dy857 O863 2.275 . S
Dy857 O865 2.307 . S
Dy857 O867 2.395 . S
Dy857 O868 2.379 . S
Dy857 O871 2.339 . S
Dy857 C887 2.738 . S
C858 O870 1.254 . S
C858 O871 1.257 . S
O859 Dy856 2.307 . S
O859 C869 1.266 . S
O860 Dy857 2.298 . S
O860 C869 1.236 . S
O861 Dy856 2.395 . S
O861 C878 1.255 . S
O862 Dy856 2.379 . S
O862 C878 1.249 . S
O863 Dy857 2.275 . S
O863 C879 1.254 . S
O864 Dy856 2.339 . S
O864 C879 1.257 . S
O865 Dy857 2.307 . S
O865 C880 1.266 . S
O866 Dy856 2.298 . S
O866 C880 1.236 . S
O867 Dy857 2.395 . S
O867 C887 1.255 . S
O868 Dy857 2.379 . S
O868 C887 1.249 . S
C869 O859 1.266 . S
C869 O860 1.236 . S
O870 Dy856 2.275 . S
O870 C858 1.254 . S
O871 Dy857 2.339 . S
O871 C858 1.257 . S
C872 C875 1.344 . S
C872 C876 1.328 . S
C872 C878 1.516 . S
C873 C874 1.304 . S
C873 C877 1.323 . S
C874 C873 1.304 . S
C874 C875 1.371 . S
C874 H888 0.930 . S
C875 C872 1.344 . S
C875 C874 1.371 . S
C875 H889 0.931 . S
C876 C872 1.328 . S
C876 C877 1.433 . S
C876 H890 0.931 . S
C877 C873 1.323 . S
C877 C876 1.433 . S
C877 H891 0.933 . S
C878 Dy856 2.738 . S
C878 O861 1.255 . S
C878 O862 1.249 . S
C878 C872 1.516 . S
C879 O863 1.254 . S
C879 O864 1.257 . S
C880 O865 1.266 . S
C880 O866 1.236 . S
C881 C884 1.344 . S
C881 C885 1.328 . S
C881 C887 1.516 . S
C882 C883 1.304 . S
C882 C886 1.323 . S
C883 C882 1.304 . S
C883 C884 1.371 . S
C883 H892 0.930 . S
C884 C881 1.344 . S
C884 C883 1.371 . S
C884 H893 0.931 . S
C885 C881 1.328 . S
C885 C886 1.433 . S
C885 H894 0.931 . S
C886 C882 1.323 . S
C886 C885 1.433 . S
C886 H895 0.933 . S
C887 Dy857 2.738 . S
C887 O867 1.255 . S
C887 O868 1.249 . S
C887 C881 1.516 . S
H888 C874 0.930 . S
H889 C875 0.931 . S
H890 C876 0.931 . S
H891 C877 0.933 . S
H892 C883 0.930 . S
H893 C884 0.931 . S
H894 C885 0.931 . S
H895 C886 0.933 . S
Dy896 O899 2.307 . S
Dy896 O901 2.395 . S
Dy896 O902 2.379 . S
Dy896 O904 2.339 . S
Dy896 O906 2.298 . S
Dy896 O910 2.275 . S
Dy896 C918 2.738 . S
Dy897 O900 2.298 . S
Dy897 O903 2.275 . S
Dy897 O905 2.307 . S
Dy897 O907 2.395 . S
Dy897 O908 2.379 . S
Dy897 O911 2.339 . S
Dy897 C927 2.738 . S
C898 O910 1.254 . S
C898 O911 1.257 . S
O899 Dy896 2.307 . S
O899 C909 1.266 . S
O900 Dy897 2.298 . S
O900 C909 1.236 . S
O901 Dy896 2.395 . S
O901 C918 1.255 . S
O902 Dy896 2.379 . S
O902 C918 1.249 . S
O903 Dy897 2.275 . S
O903 C919 1.254 . S
O904 Dy896 2.339 . S
O904 C919 1.257 . S
O905 Dy897 2.307 . S
O905 C920 1.266 . S
O906 Dy896 2.298 . S
O906 C920 1.236 . S
O907 Dy897 2.395 . S
O907 C927 1.255 . S
O908 Dy897 2.379 . S
O908 C927 1.249 . S
C909 O899 1.266 . S
C909 O900 1.236 . S
O910 Dy896 2.275 . S
O910 C898 1.254 . S
O911 Dy897 2.339 . S
O911 C898 1.257 . S
C912 C915 1.344 . S
C912 C916 1.328 . S
C912 C918 1.516 . S
C913 C914 1.304 . S
C913 C917 1.323 . S
C914 C913 1.304 . S
C914 C915 1.371 . S
C914 H928 0.930 . S
C915 C912 1.344 . S
C915 C914 1.371 . S
C915 H929 0.931 . S
C916 C912 1.328 . S
C916 C917 1.433 . S
C916 H930 0.931 . S
C917 C913 1.323 . S
C917 C916 1.433 . S
C917 H931 0.933 . S
C918 Dy896 2.738 . S
C918 O901 1.255 . S
C918 O902 1.249 . S
C918 C912 1.516 . S
C919 O903 1.254 . S
C919 O904 1.257 . S
C920 O905 1.266 . S
C920 O906 1.236 . S
C921 C924 1.344 . S
C921 C925 1.328 . S
C921 C927 1.516 . S
C922 C923 1.304 . S
C922 C926 1.323 . S
C923 C922 1.304 . S
C923 C924 1.371 . S
C923 H932 0.930 . S
C924 C921 1.344 . S
C924 C923 1.371 . S
C924 H933 0.931 . S
C925 C921 1.328 . S
C925 C926 1.433 . S
C925 H934 0.931 . S
C926 C922 1.323 . S
C926 C925 1.433 . S
C926 H935 0.933 . S
C927 Dy897 2.738 . S
C927 O907 1.255 . S
C927 O908 1.249 . S
C927 C921 1.516 . S
H928 C914 0.930 . S
H929 C915 0.931 . S
H930 C916 0.931 . S
H931 C917 0.933 . S
H932 C923 0.930 . S
H933 C924 0.931 . S
H934 C925 0.931 . S
H935 C926 0.933 . S
Dy936 O939 2.325 . S
Dy936 O941 2.367 1_455 S
Dy936 O942 2.354 1_455 S
Dy936 O944 2.356 . S
Dy936 O946 2.307 . S
Dy936 O950 2.287 . S
Dy936 C958 2.709 1_455 S
Dy937 O940 2.298 . S
Dy937 O943 2.275 . S
Dy937 O945 2.307 . S
Dy937 O947 2.395 . S
Dy937 O948 2.379 1_554 S
Dy937 O951 2.339 1_554 S
Dy937 C967 2.738 . S
C938 O950 1.254 1_556 S
C938 O951 1.257 . S
O939 Dy936 2.325 . S
O939 C949 1.266 . S
O940 Dy937 2.298 . S
O940 C949 1.236 . S
O941 Dy936 2.367 1_655 S
O941 C958 1.255 . S
O942 Dy936 2.354 1_655 S
O942 C958 1.249 . S
O943 Dy937 2.275 . S
O943 C959 1.254 . S
O944 Dy936 2.356 . S
O944 C959 1.257 . S
O945 Dy937 2.307 . S
O945 C960 1.266 . S
O946 Dy936 2.307 . S
O946 C960 1.236 . S
O947 Dy937 2.395 . S
O947 C967 1.255 . S
O948 Dy937 2.379 1_556 S
O948 C967 1.249 1_556 S
C949 O939 1.266 . S
C949 O940 1.236 . S
O950 Dy936 2.287 . S
O950 C938 1.254 1_554 S
O951 Dy937 2.339 1_556 S
O951 C938 1.257 . S
C952 C955 1.344 . S
C952 C956 1.328 . S
C952 C958 1.516 . S
C953 C954 1.304 . S
C953 C957 1.323 . S
C954 C953 1.304 . S
C954 C955 1.371 . S
C954 H968 0.930 . S
C955 C952 1.344 . S
C955 C954 1.371 . S
C955 H969 0.931 . S
C956 C952 1.328 . S
C956 C957 1.433 . S
C956 H970 0.931 . S
C957 C953 1.323 . S
C957 C956 1.433 . S
C957 H971 0.933 . S
C958 Dy936 2.709 1_655 S
C958 O941 1.255 . S
C958 O942 1.249 . S
C958 C952 1.516 . S
C959 O943 1.254 . S
C959 O944 1.257 . S
C960 O945 1.266 . S
C960 O946 1.236 . S
C961 C964 1.344 . S
C961 C965 1.328 1_554 S
C961 C967 1.516 . S
C962 C963 1.304 . S
C962 C966 1.323 1_554 S
C963 C962 1.304 . S
C963 C964 1.371 . S
C963 H972 0.930 . S
C964 C961 1.344 . S
C964 C963 1.371 . S
C964 H973 0.931 . S
C965 C961 1.328 1_556 S
C965 C966 1.433 . S
C965 H974 0.931 . S
C966 C962 1.323 1_556 S
C966 C965 1.433 . S
C966 H975 0.933 . S
C967 Dy937 2.738 . S
C967 O947 1.255 . S
C967 O948 1.249 1_554 S
C967 C961 1.516 . S
H968 C954 0.930 . S
H969 C955 0.931 . S
H970 C956 0.931 . S
H971 C957 0.933 . S
H972 C963 0.930 . S
H973 C964 0.931 . S
H974 C965 0.931 . S
H975 C966 0.933 . S
C976 C977 1.369 1_655 S
C976 C978 1.419 1_655 S
C976 H980 0.930 . S
C977 C976 1.369 1_455 S
C977 C986 1.429 . S
C978 C976 1.419 1_455 S
C978 C979 1.363 . S
C978 H981 0.929 1_455 S
C979 C978 1.363 . S
C979 C985 1.428 . S
H980 C976 0.930 . S
H981 C978 0.929 1_655 S
S982 N983 1.613 . S
S982 N984 1.610 1_556 S
N983 S982 1.613 . S
N983 C986 1.350 1_556 S
N984 S982 1.610 1_554 S
N984 C985 1.351 . S
C985 C979 1.428 . S
C985 N984 1.351 . S
C985 C986 1.434 . S
C986 C977 1.429 . S
C986 N983 1.350 1_554 S
C986 C985 1.434 . S
C987 C988 1.369 . S
C987 C989 1.419 . S
C987 H991 0.930 . S
C988 C987 1.369 . S
C988 C997 1.429 . S
C989 C987 1.419 . S
C989 C990 1.363 . S
C989 H992 0.929 . S
C990 C989 1.363 . S
C990 C996 1.428 . S
H991 C987 0.930 . S
H992 C989 0.929 . S
S993 N994 1.613 . S
S993 N995 1.610 . S
N994 S993 1.613 . S
N994 C997 1.350 . S
N995 S993 1.610 . S
N995 C996 1.351 . S
C996 C990 1.428 . S
C996 N995 1.351 . S
C996 C997 1.434 . S
C997 C988 1.429 . S
C997 N994 1.350 . S
C997 C996 1.434 . S
C998 C999 1.369 . S
C998 C1000 1.419 . S
C998 H1002 0.930 . S
C999 C998 1.369 . S
C999 C1008 1.429 . S
C1000 C998 1.419 . S
C1000 C1001 1.363 . S
C1000 H1003 0.929 . S
C1001 C1000 1.363 . S
C1001 C1007 1.428 . S
H1002 C998 0.930 . S
H1003 C1000 0.929 . S
S1004 N1005 1.613 . S
S1004 N1006 1.610 . S
N1005 S1004 1.613 . S
N1005 C1008 1.350 . S
N1006 S1004 1.610 . S
N1006 C1007 1.351 . S
C1007 C1001 1.428 . S
C1007 N1006 1.351 . S
C1007 C1008 1.434 . S
C1008 C999 1.429 . S
C1008 N1005 1.350 . S
C1008 C1007 1.434 . S
C1009 C1010 1.369 . S
C1009 C1011 1.419 . S
C1009 H1013 0.930 . S
C1010 C1009 1.369 . S
C1010 C1019 1.429 . S
C1011 C1009 1.419 . S
C1011 C1012 1.363 . S
C1011 H1014 0.929 . S
C1012 C1011 1.363 . S
C1012 C1018 1.428 . S
H1013 C1009 0.930 . S
H1014 C1011 0.929 . S
S1015 N1016 1.613 . S
S1015 N1017 1.610 . S
N1016 S1015 1.613 . S
N1016 C1019 1.350 . S
N1017 S1015 1.610 . S
N1017 C1018 1.351 . S
C1018 C1012 1.428 . S
C1018 N1017 1.351 . S
C1018 C1019 1.434 . S
C1019 C1010 1.429 . S
C1019 N1016 1.350 . S
C1019 C1018 1.434 . S
C1020 C1021 1.369 . S
C1020 C1022 1.419 . S
C1020 H1024 0.930 . S
C1021 C1020 1.369 . S
C1021 C1030 1.429 . S
C1022 C1020 1.419 . S
C1022 C1023 1.363 . S
C1022 H1025 0.929 . S
C1023 C1022 1.363 . S
C1023 C1029 1.428 . S
H1024 C1020 0.930 . S
H1025 C1022 0.929 . S
S1026 N1027 1.613 . S
S1026 N1028 1.610 . S
N1027 S1026 1.613 . S
N1027 C1030 1.350 . S
N1028 S1026 1.610 . S
N1028 C1029 1.351 . S
C1029 C1023 1.428 . S
C1029 N1028 1.351 . S
C1029 C1030 1.434 . S
C1030 C1021 1.429 . S
C1030 N1027 1.350 . S
C1030 C1029 1.434 . S
C1031 C1032 1.369 . S
C1031 C1033 1.419 . S
C1031 H1035 0.930 . S
C1032 C1031 1.369 . S
C1032 C1041 1.429 . S
C1033 C1031 1.419 . S
C1033 C1034 1.363 . S
C1033 H1036 0.929 . S
C1034 C1033 1.363 . S
C1034 C1040 1.428 . S
H1035 C1031 0.930 . S
H1036 C1033 0.929 . S
S1037 N1038 1.613 . S
S1037 N1039 1.610 . S
N1038 S1037 1.613 . S
N1038 C1041 1.350 . S
N1039 S1037 1.610 . S
N1039 C1040 1.351 . S
C1040 C1034 1.428 . S
C1040 N1039 1.351 . S
C1040 C1041 1.434 . S
C1041 C1032 1.429 . S
C1041 N1038 1.350 . S
C1041 C1040 1.434 . S
C1042 C1043 1.369 . S
C1042 C1044 1.419 . S
C1042 H1046 0.930 . S
C1043 C1042 1.369 . S
C1043 C1052 1.429 . S
C1044 C1042 1.419 . S
C1044 C1045 1.363 . S
C1044 H1047 0.929 . S
C1045 C1044 1.363 . S
C1045 C1051 1.428 . S
H1046 C1042 0.930 . S
H1047 C1044 0.929 . S
S1048 N1049 1.613 . S
S1048 N1050 1.610 . S
N1049 S1048 1.613 . S
N1049 C1052 1.350 . S
N1050 S1048 1.610 . S
N1050 C1051 1.351 . S
C1051 C1045 1.428 . S
C1051 N1050 1.351 . S
C1051 C1052 1.434 . S
C1052 C1043 1.429 . S
C1052 N1049 1.350 . S
C1052 C1051 1.434 . S
C1053 C1054 1.369 . S
C1053 C1055 1.419 . S
C1053 H1057 0.930 . S
C1054 C1053 1.369 . S
C1054 C1063 1.429 . S
C1055 C1053 1.419 . S
C1055 C1056 1.363 . S
C1055 H1058 0.929 . S
C1056 C1055 1.363 . S
C1056 C1062 1.428 . S
H1057 C1053 0.930 . S
H1058 C1055 0.929 . S
S1059 N1060 1.613 . S
S1059 N1061 1.610 . S
N1060 S1059 1.613 . S
N1060 C1063 1.350 . S
N1061 S1059 1.610 . S
N1061 C1062 1.351 . S
C1062 C1056 1.428 . S
C1062 N1061 1.351 . S
C1062 C1063 1.434 . S
C1063 C1054 1.429 . S
C1063 N1060 1.350 . S
C1063 C1062 1.434 . S
C1064 C1065 1.369 1_655 S
C1064 C1066 1.419 . S
C1064 H1068 0.930 . S
C1065 C1064 1.369 1_455 S
C1065 C1074 1.429 . S
C1066 C1064 1.419 . S
C1066 C1067 1.363 1_655 S
C1066 H1069 0.929 . S
C1067 C1066 1.363 1_455 S
C1067 C1073 1.428 . S
H1068 C1064 0.930 . S
H1069 C1066 0.929 . S
S1070 N1071 1.613 . S
S1070 N1072 1.610 . S
N1071 S1070 1.613 . S
N1071 C1074 1.350 . S
N1072 S1070 1.610 . S
N1072 C1073 1.351 . S
C1073 C1067 1.428 . S
C1073 N1072 1.351 . S
C1073 C1074 1.434 . S
C1074 C1065 1.429 . S
C1074 N1071 1.350 . S
C1074 C1073 1.434 . S
C1075 C1076 1.369 . S
C1075 C1077 1.419 . S
C1075 H1079 0.930 . S
C1076 C1075 1.369 . S
C1076 C1085 1.429 . S
C1077 C1075 1.419 . S
C1077 C1078 1.363 . S
C1077 H1080 0.929 . S
C1078 C1077 1.363 . S
C1078 C1084 1.428 . S
H1079 C1075 0.930 . S
H1080 C1077 0.929 . S
S1081 N1082 1.613 . S
S1081 N1083 1.610 . S
N1082 S1081 1.613 . S
N1082 C1085 1.350 . S
N1083 S1081 1.610 . S
N1083 C1084 1.351 . S
C1084 C1078 1.428 . S
C1084 N1083 1.351 . S
C1084 C1085 1.434 . S
C1085 C1076 1.429 . S
C1085 N1082 1.350 . S
C1085 C1084 1.434 . S
C1086 C1087 1.369 . S
C1086 C1088 1.419 . S
C1086 H1090 0.930 . S
C1087 C1086 1.369 . S
C1087 C1096 1.429 . S
C1088 C1086 1.419 . S
C1088 C1089 1.363 . S
C1088 H1091 0.929 . S
C1089 C1088 1.363 . S
C1089 C1095 1.428 . S
H1090 C1086 0.930 . S
H1091 C1088 0.929 . S
S1092 N1093 1.613 . S
S1092 N1094 1.610 . S
N1093 S1092 1.613 . S
N1093 C1096 1.350 . S
N1094 S1092 1.610 . S
N1094 C1095 1.351 . S
C1095 C1089 1.428 . S
C1095 N1094 1.351 . S
C1095 C1096 1.434 . S
C1096 C1087 1.429 . S
C1096 N1093 1.350 . S
C1096 C1095 1.434 . S
C1097 C1098 1.369 . S
C1097 C1099 1.419 . S
C1097 H1101 0.930 . S
C1098 C1097 1.369 . S
C1098 C1107 1.429 . S
C1099 C1097 1.419 . S
C1099 C1100 1.363 . S
C1099 H1102 0.929 . S
C1100 C1099 1.363 . S
C1100 C1106 1.428 . S
H1101 C1097 0.930 . S
H1102 C1099 0.929 . S
S1103 N1104 1.613 . S
S1103 N1105 1.610 . S
N1104 S1103 1.613 . S
N1104 C1107 1.350 . S
N1105 S1103 1.610 . S
N1105 C1106 1.351 . S
C1106 C1100 1.428 . S
C1106 N1105 1.351 . S
C1106 C1107 1.434 . S
C1107 C1098 1.429 . S
C1107 N1104 1.350 . S
C1107 C1106 1.434 . S
C1108 C1109 1.369 . S
C1108 C1110 1.419 . S
C1108 H1112 0.930 . S
C1109 C1108 1.369 . S
C1109 C1118 1.429 1_455 S
C1110 C1108 1.419 . S
C1110 C1111 1.363 . S
C1110 H1113 0.929 . S
C1111 C1110 1.363 . S
C1111 C1117 1.428 1_455 S
H1112 C1108 0.930 . S
H1113 C1110 0.929 . S
S1114 N1115 1.613 . S
S1114 N1116 1.610 . S
N1115 S1114 1.613 . S
N1115 C1118 1.350 . S
N1116 S1114 1.610 . S
N1116 C1117 1.351 . S
C1117 C1111 1.428 1_655 S
C1117 N1116 1.351 . S
C1117 C1118 1.434 . S
C1118 C1109 1.429 1_655 S
C1118 N1115 1.350 . S
C1118 C1117 1.434 . S
C1119 C1120 1.369 . S
C1119 C1121 1.419 . S
C1119 H1123 0.930 . S
C1120 C1119 1.369 . S
C1120 C1129 1.429 . S
C1121 C1119 1.419 . S
C1121 C1122 1.363 . S
C1121 H1124 0.929 . S
C1122 C1121 1.363 . S
C1122 C1128 1.428 . S
H1123 C1119 0.930 . S
H1124 C1121 0.929 . S
S1125 N1126 1.613 . S
S1125 N1127 1.610 . S
N1126 S1125 1.613 . S
N1126 C1129 1.350 . S
N1127 S1125 1.610 . S
N1127 C1128 1.351 . S
C1128 C1122 1.428 . S
C1128 N1127 1.351 . S
C1128 C1129 1.434 . S
C1129 C1120 1.429 . S
C1129 N1126 1.350 . S
C1129 C1128 1.434 . S
C1130 C1131 1.369 . S
C1130 C1132 1.419 . S
C1130 H1134 0.930 . S
C1131 C1130 1.369 . S
C1131 C1140 1.429 . S
C1132 C1130 1.419 . S
C1132 C1133 1.363 . S
C1132 H1135 0.929 . S
C1133 C1132 1.363 . S
C1133 C1139 1.428 . S
H1134 C1130 0.930 . S
H1135 C1132 0.929 . S
S1136 N1137 1.613 . S
S1136 N1138 1.610 . S
N1137 S1136 1.613 . S
N1137 C1140 1.350 . S
N1138 S1136 1.610 . S
N1138 C1139 1.351 . S
C1139 C1133 1.428 . S
C1139 N1138 1.351 . S
C1139 C1140 1.434 . S
C1140 C1131 1.429 . S
C1140 N1137 1.350 . S
C1140 C1139 1.434 . S
C1141 C1142 1.369 . S
C1141 C1143 1.419 . S
C1141 H1145 0.930 . S
C1142 C1141 1.369 . S
C1142 C1151 1.429 . S
C1143 C1141 1.419 . S
C1143 C1144 1.363 . S
C1143 H1146 0.929 . S
C1144 C1143 1.363 . S
C1144 C1150 1.428 . S
H1145 C1141 0.930 . S
H1146 C1143 0.929 . S
S1147 N1148 1.613 . S
S1147 N1149 1.610 . S
N1148 S1147 1.613 . S
N1148 C1151 1.350 . S
N1149 S1147 1.610 . S
N1149 C1150 1.351 . S
C1150 C1144 1.428 . S
C1150 N1149 1.351 . S
C1150 C1151 1.434 . S
C1151 C1142 1.429 . S
C1151 N1148 1.350 . S
C1151 C1150 1.434 . S
C1152 C1153 1.369 1_545 S
C1152 C1154 1.419 . S
C1152 H1156 0.930 . S
C1153 C1152 1.369 1_565 S
C1153 C1162 1.429 . S
C1154 C1152 1.419 . S
C1154 C1155 1.363 . S
C1154 H1157 0.929 . S
C1155 C1154 1.363 . S
C1155 C1161 1.415 1_545 S
H1156 C1152 0.930 . S
H1157 C1154 0.929 . S
S1158 N1159 1.618 . S
S1158 N1160 1.602 1_556 S
N1159 S1158 1.618 . S
N1159 C1162 1.350 1_556 S
N1160 S1158 1.602 1_554 S
N1160 C1161 1.348 . S
C1161 C1155 1.415 1_565 S
C1161 N1160 1.348 . S
C1161 C1162 1.452 . S
C1162 C1153 1.429 . S
C1162 N1159 1.350 1_554 S
C1162 C1161 1.452 . S
C1163 C1164 1.369 . S
C1163 C1165 1.419 . S
C1163 H1167 0.911 1_554 S
C1164 C1163 1.369 . S
C1164 C1173 1.429 . S
C1165 C1163 1.419 . S
C1165 C1166 1.363 . S
C1165 H1168 0.929 . S
C1166 C1165 1.363 . S
C1166 C1172 1.428 . S
H1167 C1163 0.911 1_556 S
H1168 C1165 0.929 . S
S1169 N1170 1.613 . S
S1169 N1171 1.610 . S
N1170 S1169 1.613 . S
N1170 C1173 1.350 . S
N1171 S1169 1.610 . S
N1171 C1172 1.351 . S
C1172 C1166 1.428 . S
C1172 N1171 1.351 . S
C1172 C1173 1.434 . S
C1173 C1164 1.429 . S
C1173 N1170 1.350 . S
C1173 C1172 1.434 . S
C1174 C1175 1.369 . S
C1174 C1176 1.419 . S
C1174 H1178 0.930 . S
C1175 C1174 1.369 . S
C1175 C1184 1.429 . S
C1176 C1174 1.419 . S
C1176 C1177 1.363 . S
C1176 H1179 0.929 . S
C1177 C1176 1.363 . S
C1177 C1183 1.428 . S
H1178 C1174 0.930 . S
H1179 C1176 0.929 . S
S1180 N1181 1.613 . S
S1180 N1182 1.610 . S
N1181 S1180 1.613 . S
N1181 C1184 1.350 . S
N1182 S1180 1.610 . S
N1182 C1183 1.351 . S
C1183 C1177 1.428 . S
C1183 N1182 1.351 . S
C1183 C1184 1.434 . S
C1184 C1175 1.429 . S
C1184 N1181 1.350 . S
C1184 C1183 1.434 . S
C1185 C1186 1.369 . S
C1185 C1187 1.419 . S
C1185 H1189 0.930 . S
C1186 C1185 1.369 . S
C1186 C1195 1.429 . S
C1187 C1185 1.419 . S
C1187 C1188 1.363 . S
C1187 H1190 0.929 . S
C1188 C1187 1.363 . S
C1188 C1194 1.428 . S
H1189 C1185 0.930 . S
H1190 C1187 0.929 . S
S1191 N1192 1.613 . S
S1191 N1193 1.610 . S
N1192 S1191 1.613 . S
N1192 C1195 1.350 . S
N1193 S1191 1.610 . S
N1193 C1194 1.351 . S
C1194 C1188 1.428 . S
C1194 N1193 1.351 . S
C1194 C1195 1.434 . S
C1195 C1186 1.429 . S
C1195 N1192 1.350 . S
C1195 C1194 1.434 . S
C1196 C1197 1.369 . S
C1196 C1198 1.419 . S
C1196 H1200 0.930 . S
C1197 C1196 1.369 . S
C1197 C1206 1.429 . S
C1198 C1196 1.419 . S
C1198 C1199 1.363 . S
C1198 H1201 0.929 . S
C1199 C1198 1.363 . S
C1199 C1205 1.428 . S
H1200 C1196 0.930 . S
H1201 C1198 0.929 . S
S1202 N1203 1.613 . S
S1202 N1204 1.610 . S
N1203 S1202 1.613 . S
N1203 C1206 1.350 . S
N1204 S1202 1.610 . S
N1204 C1205 1.351 . S
C1205 C1199 1.428 . S
C1205 N1204 1.351 . S
C1205 C1206 1.434 . S
C1206 C1197 1.429 . S
C1206 N1203 1.350 . S
C1206 C1205 1.434 . S
C1207 C1208 1.369 . S
C1207 C1209 1.419 . S
C1207 H1211 0.930 . S
C1208 C1207 1.369 . S
C1208 C1217 1.429 . S
C1209 C1207 1.419 . S
C1209 C1210 1.363 . S
C1209 H1212 0.929 . S
C1210 C1209 1.363 . S
C1210 C1216 1.428 . S
H1211 C1207 0.930 . S
H1212 C1209 0.929 . S
S1213 N1214 1.613 . S
S1213 N1215 1.610 . S
N1214 S1213 1.613 . S
N1214 C1217 1.350 . S
N1215 S1213 1.610 . S
N1215 C1216 1.351 . S
C1216 C1210 1.428 . S
C1216 N1215 1.351 . S
C1216 C1217 1.434 . S
C1217 C1208 1.429 . S
C1217 N1214 1.350 . S
C1217 C1216 1.434 . S
C1218 C1219 1.369 . S
C1218 C1220 1.419 . S
C1218 H1222 0.930 . S
C1219 C1218 1.369 . S
C1219 C1228 1.429 . S
C1220 C1218 1.419 . S
C1220 C1221 1.363 . S
C1220 H1223 0.929 . S
C1221 C1220 1.363 . S
C1221 C1227 1.428 . S
H1222 C1218 0.930 . S
H1223 C1220 0.929 . S
S1224 N1225 1.613 . S
S1224 N1226 1.610 . S
N1225 S1224 1.613 . S
N1225 C1228 1.350 . S
N1226 S1224 1.610 . S
N1226 C1227 1.351 . S
C1227 C1221 1.428 . S
C1227 N1226 1.351 . S
C1227 C1228 1.434 . S
C1228 C1219 1.429 . S
C1228 N1225 1.350 . S
C1228 C1227 1.434 . S
C1229 C1230 1.369 . S
C1229 C1231 1.419 . S
C1229 H1233 0.930 . S
C1230 C1229 1.369 . S
C1230 C1239 1.429 . S
C1231 C1229 1.419 . S
C1231 C1232 1.363 . S
C1231 H1234 0.929 . S
C1232 C1231 1.363 . S
C1232 C1238 1.428 . S
H1233 C1229 0.930 . S
H1234 C1231 0.929 . S
S1235 N1236 1.613 . S
S1235 N1237 1.610 . S
N1236 S1235 1.613 . S
N1236 C1239 1.350 . S
N1237 S1235 1.610 . S
N1237 C1238 1.351 . S
C1238 C1232 1.428 . S
C1238 N1237 1.351 . S
C1238 C1239 1.434 . S
C1239 C1230 1.429 . S
C1239 N1236 1.350 . S
C1239 C1238 1.434 . S
C1240 C1241 1.369 . S
C1240 C1242 1.419 . S
C1240 H1244 0.930 . S
C1241 C1240 1.369 . S
C1241 C1250 1.429 . S
C1242 C1240 1.419 . S
C1242 C1243 1.363 . S
C1242 H1245 0.929 . S
C1243 C1242 1.363 . S
C1243 C1249 1.428 . S
H1244 C1240 0.930 . S
H1245 C1242 0.929 . S
S1246 N1247 1.613 1_556 S
S1246 N1248 1.610 . S
N1247 S1246 1.613 1_554 S
N1247 C1250 1.350 . S
N1248 S1246 1.610 . S
N1248 C1249 1.351 1_556 S
C1249 C1243 1.428 . S
C1249 N1248 1.351 1_554 S
C1249 C1250 1.434 . S
C1250 C1241 1.429 . S
C1250 N1247 1.350 . S
C1250 C1249 1.434 . S
C1251 C1252 1.369 . S
C1251 C1253 1.419 . S
C1251 H1255 0.930 . S
C1252 C1251 1.369 . S
C1252 C1261 1.429 . S
C1253 C1251 1.419 . S
C1253 C1254 1.363 . S
C1253 H1256 0.929 . S
C1254 C1253 1.363 . S
C1254 C1260 1.428 . S
H1255 C1251 0.930 . S
H1256 C1253 0.929 . S
S1257 N1258 1.613 . S
S1257 N1259 1.610 . S
N1258 S1257 1.613 . S
N1258 C1261 1.350 . S
N1259 S1257 1.610 . S
N1259 C1260 1.351 . S
C1260 C1254 1.428 . S
C1260 N1259 1.351 . S
C1260 C1261 1.434 . S
C1261 C1252 1.429 . S
C1261 N1258 1.350 . S
C1261 C1260 1.434 . S
C1262 C1263 1.369 . S
C1262 C1264 1.419 . S
C1262 H1266 0.930 . S
C1263 C1262 1.369 . S
C1263 C1272 1.429 . S
C1264 C1262 1.419 . S
C1264 C1265 1.363 . S
C1264 H1267 0.929 . S
C1265 C1264 1.363 . S
C1265 C1271 1.428 . S
H1266 C1262 0.930 . S
H1267 C1264 0.929 . S
S1268 N1269 1.613 . S
S1268 N1270 1.610 . S
N1269 S1268 1.613 . S
N1269 C1272 1.350 . S
N1270 S1268 1.610 . S
N1270 C1271 1.351 . S
C1271 C1265 1.428 . S
C1271 N1270 1.351 . S
C1271 C1272 1.434 . S
C1272 C1263 1.429 . S
C1272 N1269 1.350 . S
C1272 C1271 1.434 . S
C1273 C1274 1.369 . S
C1273 C1275 1.419 . S
C1273 H1277 0.930 . S
C1274 C1273 1.369 . S
C1274 C1283 1.429 . S
C1275 C1273 1.419 . S
C1275 C1276 1.363 . S
C1275 H1278 0.929 . S
C1276 C1275 1.363 . S
C1276 C1282 1.428 . S
H1277 C1273 0.930 . S
H1278 C1275 0.929 . S
S1279 N1280 1.613 . S
S1279 N1281 1.610 . S
N1280 S1279 1.613 . S
N1280 C1283 1.350 . S
N1281 S1279 1.610 . S
N1281 C1282 1.351 . S
C1282 C1276 1.428 . S
C1282 N1281 1.351 . S
C1282 C1283 1.434 . S
C1283 C1274 1.429 . S
C1283 N1280 1.350 . S
C1283 C1282 1.434 . S
C1284 C1285 1.369 . S
C1284 C1286 1.419 . S
C1284 H1288 0.930 . S
C1285 C1284 1.369 . S
C1285 C1294 1.429 . S
C1286 C1284 1.419 . S
C1286 C1287 1.363 . S
C1286 H1289 0.929 . S
C1287 C1286 1.363 . S
C1287 C1293 1.428 1_455 S
H1288 C1284 0.930 . S
H1289 C1286 0.929 . S
S1290 N1291 1.613 . S
S1290 N1292 1.610 . S
N1291 S1290 1.613 . S
N1291 C1294 1.350 1_655 S
N1292 S1290 1.610 . S
N1292 C1293 1.351 . S
C1293 C1287 1.428 1_655 S
C1293 N1292 1.351 . S
C1293 C1294 1.434 1_655 S
C1294 C1285 1.429 . S
C1294 N1291 1.350 1_455 S
C1294 C1293 1.434 1_455 S
C1295 C1296 1.369 . S
C1295 C1297 1.419 . S
C1295 H1299 0.930 . S
C1296 C1295 1.369 . S
C1296 C1305 1.429 . S
C1297 C1295 1.419 . S
C1297 C1298 1.363 . S
C1297 H1300 0.929 . S
C1298 C1297 1.363 . S
C1298 C1304 1.428 . S
H1299 C1295 0.930 . S
H1300 C1297 0.929 . S
S1301 N1302 1.613 . S
S1301 N1303 1.610 . S
N1302 S1301 1.613 . S
N1302 C1305 1.350 . S
N1303 S1301 1.610 . S
N1303 C1304 1.351 . S
C1304 C1298 1.428 . S
C1304 N1303 1.351 . S
C1304 C1305 1.434 . S
C1305 C1296 1.429 . S
C1305 N1302 1.350 . S
C1305 C1304 1.434 . S
C1306 C1307 1.369 . S
C1306 C1308 1.419 . S
C1306 H1310 0.930 . S
C1307 C1306 1.369 . S
C1307 C1316 1.429 . S
C1308 C1306 1.419 . S
C1308 C1309 1.363 . S
C1308 H1311 0.948 . S
C1309 C1308 1.363 . S
C1309 C1315 1.428 . S
H1310 C1306 0.930 . S
H1311 C1308 0.948 . S
S1312 N1313 1.613 . S
S1312 N1314 1.610 . S
N1313 S1312 1.613 . S
N1313 C1316 1.350 . S
N1314 S1312 1.610 . S
N1314 C1315 1.351 . S
C1315 C1309 1.428 . S
C1315 N1314 1.351 . S
C1315 C1316 1.434 . S
C1316 C1307 1.429 . S
C1316 N1313 1.350 . S
C1316 C1315 1.434 . S
C1317 C1318 1.369 . S
C1317 C1319 1.419 . S
C1317 H1321 0.930 . S
C1318 C1317 1.369 . S
C1318 C1327 1.429 . S
C1319 C1317 1.419 . S
C1319 C1320 1.363 . S
C1319 H1322 0.929 . S
C1320 C1319 1.363 . S
C1320 C1326 1.428 . S
H1321 C1317 0.930 . S
H1322 C1319 0.929 . S
S1323 N1324 1.613 . S
S1323 N1325 1.610 . S
N1324 S1323 1.613 . S
N1324 C1327 1.350 . S
N1325 S1323 1.610 . S
N1325 C1326 1.351 . S
C1326 C1320 1.428 . S
C1326 N1325 1.351 . S
C1326 C1327 1.434 . S
C1327 C1318 1.429 . S
C1327 N1324 1.350 . S
C1327 C1326 1.434 . S
C1328 C1329 1.369 . S
C1328 C1330 1.419 . S
C1328 H1332 0.930 . S
C1329 C1328 1.369 . S
C1329 C1338 1.429 . S
C1330 C1328 1.419 . S
C1330 C1331 1.363 . S
C1330 H1333 0.929 . S
C1331 C1330 1.363 . S
C1331 C1337 1.428 . S
H1332 C1328 0.930 . S
H1333 C1330 0.929 . S
S1334 N1335 1.613 1_565 S
S1334 N1336 1.610 1_565 S
N1335 S1334 1.613 1_545 S
N1335 C1338 1.350 . S
N1336 S1334 1.610 1_545 S
N1336 C1337 1.351 . S
C1337 C1331 1.428 . S
C1337 N1336 1.351 . S
C1337 C1338 1.434 . S
C1338 C1329 1.429 . S
C1338 N1335 1.350 . S
C1338 C1337 1.434 . S
C1339 C1340 1.369 . S
C1339 C1341 1.419 . S
C1339 H1343 0.930 . S
C1340 C1339 1.369 . S
C1340 C1349 1.429 . S
C1341 C1339 1.419 . S
C1341 C1342 1.363 . S
C1341 H1344 0.929 . S
C1342 C1341 1.363 . S
C1342 C1348 1.428 . S
H1343 C1339 0.930 . S
H1344 C1341 0.929 . S
S1345 N1346 1.613 . S
S1345 N1347 1.610 . S
N1346 S1345 1.613 . S
N1346 C1349 1.350 . S
N1347 S1345 1.610 . S
N1347 C1348 1.351 . S
C1348 C1342 1.428 . S
C1348 N1347 1.351 . S
C1348 C1349 1.434 . S
C1349 C1340 1.429 . S
C1349 N1346 1.350 . S
C1349 C1348 1.434 . S
C1350 C1351 1.369 . S
C1350 C1352 1.419 . S
C1350 H1354 0.930 . S
C1351 C1350 1.369 . S
C1351 C1360 1.429 1_545 S
C1352 C1350 1.419 . S
C1352 C1353 1.363 . S
C1352 H1355 0.929 . S
C1353 C1352 1.363 . S
C1353 C1359 1.428 . S
H1354 C1350 0.930 . S
H1355 C1352 0.929 . S
S1356 N1357 1.613 . S
S1356 N1358 1.610 . S
N1357 S1356 1.613 . S
N1357 C1360 1.350 . S
N1358 S1356 1.610 . S
N1358 C1359 1.351 1_565 S
C1359 C1353 1.428 . S
C1359 N1358 1.351 1_545 S
C1359 C1360 1.434 1_545 S
C1360 C1351 1.429 1_565 S
C1360 N1357 1.350 . S
C1360 C1359 1.434 1_565 S
C1361 C1362 1.369 . S
C1361 C1363 1.419 . S
C1361 H1365 0.930 . S
C1362 C1361 1.369 . S
C1362 C1371 1.429 . S
C1363 C1361 1.419 . S
C1363 C1364 1.363 . S
C1363 H1366 0.929 . S
C1364 C1363 1.363 . S
C1364 C1370 1.428 . S
H1365 C1361 0.930 . S
H1366 C1363 0.929 . S
S1367 N1368 1.613 . S
S1367 N1369 1.610 . S
N1368 S1367 1.613 . S
N1368 C1371 1.350 . S
N1369 S1367 1.610 . S
N1369 C1370 1.351 . S
C1370 C1364 1.428 . S
C1370 N1369 1.351 . S
C1370 C1371 1.434 . S
C1371 C1362 1.429 . S
C1371 N1368 1.350 . S
C1371 C1370 1.434 . S
C1372 C1373 1.369 . S
C1372 C1374 1.419 . S
C1372 H1376 0.930 . S
C1373 C1372 1.369 . S
C1373 C1382 1.429 . S
C1374 C1372 1.419 . S
C1374 C1375 1.363 . S
C1374 H1377 0.929 . S
C1375 C1374 1.363 . S
C1375 C1381 1.428 . S
H1376 C1372 0.930 . S
H1377 C1374 0.929 . S
S1378 N1379 1.613 . S
S1378 N1380 1.610 . S
N1379 S1378 1.613 . S
N1379 C1382 1.350 . S
N1380 S1378 1.610 . S
N1380 C1381 1.351 . S
C1381 C1375 1.428 . S
C1381 N1380 1.351 . S
C1381 C1382 1.434 . S
C1382 C1373 1.429 . S
C1382 N1379 1.350 . S
C1382 C1381 1.434 . S
C1383 C1384 1.369 . S
C1383 C1385 1.419 . S
C1383 H1387 0.930 . S
C1384 C1383 1.369 . S
C1384 C1393 1.429 . S
C1385 C1383 1.419 . S
C1385 C1386 1.363 . S
C1385 H1388 0.929 . S
C1386 C1385 1.363 . S
C1386 C1392 1.428 . S
H1387 C1383 0.930 . S
H1388 C1385 0.929 . S
S1389 N1390 1.613 . S
S1389 N1391 1.610 . S
N1390 S1389 1.613 . S
N1390 C1393 1.350 . S
N1391 S1389 1.610 . S
N1391 C1392 1.351 . S
C1392 C1386 1.428 . S
C1392 N1391 1.351 . S
C1392 C1393 1.434 . S
C1393 C1384 1.429 . S
C1393 N1390 1.350 . S
C1393 C1392 1.434 . S
C1394 C1395 1.362 1_565 S
C1394 C1396 1.419 . S
C1394 H1398 0.930 . S
C1395 C1394 1.362 1_545 S
C1395 C1404 1.434 . S
C1396 C1394 1.419 . S
C1396 C1397 1.363 . S
C1396 H1399 0.929 . S
C1397 C1396 1.363 . S
C1397 C1403 1.428 1_565 S
H1398 C1394 0.930 . S
H1399 C1396 0.929 . S
S1400 N1401 1.613 . S
S1400 N1402 1.610 . S
N1401 S1400 1.613 . S
N1401 C1404 1.350 . S
N1402 S1400 1.610 . S
N1402 C1403 1.351 . S
C1403 C1397 1.428 1_545 S
C1403 N1402 1.351 . S
C1403 C1404 1.434 . S
C1404 C1395 1.434 . S
C1404 N1401 1.350 . S
C1404 C1403 1.434 . S
C1405 C1406 1.369 . S
C1405 C1407 1.419 . S
C1405 H1409 0.930 . S
C1406 C1405 1.369 . S
C1406 C1415 1.429 . S
C1407 C1405 1.419 . S
C1407 C1408 1.363 . S
C1407 H1410 0.929 . S
C1408 C1407 1.363 . S
C1408 C1414 1.428 . S
H1409 C1405 0.930 . S
H1410 C1407 0.929 . S
S1411 N1412 1.613 . S
S1411 N1413 1.610 . S
N1412 S1411 1.613 . S
N1412 C1415 1.350 . S
N1413 S1411 1.610 . S
N1413 C1414 1.351 . S
C1414 C1408 1.428 . S
C1414 N1413 1.351 . S
C1414 C1415 1.434 . S
C1415 C1406 1.429 . S
C1415 N1412 1.350 . S
C1415 C1414 1.434 . S
C1416 C1417 1.369 . S
C1416 C1418 1.419 . S
C1416 H1420 0.930 . S
C1417 C1416 1.369 . S
C1417 C1426 1.429 . S
C1418 C1416 1.419 . S
C1418 C1419 1.363 . S
C1418 H1421 0.929 . S
C1419 C1418 1.363 . S
C1419 C1425 1.428 . S
H1420 C1416 0.930 . S
H1421 C1418 0.929 . S
S1422 N1423 1.613 . S
S1422 N1424 1.610 . S
N1423 S1422 1.613 . S
N1423 C1426 1.350 . S
N1424 S1422 1.610 . S
N1424 C1425 1.351 . S
C1425 C1419 1.428 . S
C1425 N1424 1.351 . S
C1425 C1426 1.434 . S
C1426 C1417 1.429 . S
C1426 N1423 1.350 . S
C1426 C1425 1.434 . S
C1427 C1428 1.369 . S
C1427 C1429 1.419 . S
C1427 H1431 0.930 . S
C1428 C1427 1.369 . S
C1428 C1437 1.429 . S
C1429 C1427 1.419 . S
C1429 C1430 1.363 . S
C1429 H1432 0.929 . S
C1430 C1429 1.363 . S
C1430 C1436 1.428 . S
H1431 C1427 0.930 . S
H1432 C1429 0.929 . S
S1433 N1434 1.613 . S
S1433 N1435 1.610 . S
N1434 S1433 1.613 . S
N1434 C1437 1.350 . S
N1435 S1433 1.610 . S
N1435 C1436 1.351 . S
C1436 C1430 1.428 . S
C1436 N1435 1.351 . S
C1436 C1437 1.434 . S
C1437 C1428 1.429 . S
C1437 N1434 1.350 . S
C1437 C1436 1.434 . S
C1438 C1439 1.369 . S
C1438 C1440 1.419 . S
C1438 H1442 0.930 . S
C1439 C1438 1.369 . S
C1439 C1448 1.429 . S
C1440 C1438 1.419 . S
C1440 C1441 1.363 . S
C1440 H1443 0.929 . S
C1441 C1440 1.363 . S
C1441 C1447 1.428 . S
H1442 C1438 0.930 . S
H1443 C1440 0.929 . S
S1444 N1445 1.613 . S
S1444 N1446 1.610 . S
N1445 S1444 1.613 . S
N1445 C1448 1.350 . S
N1446 S1444 1.610 . S
N1446 C1447 1.351 . S
C1447 C1441 1.428 . S
C1447 N1446 1.351 . S
C1447 C1448 1.434 . S
C1448 C1439 1.429 . S
C1448 N1445 1.350 . S
C1448 C1447 1.434 . S
C1449 C1450 1.369 . S
C1449 C1451 1.419 . S
C1449 H1453 0.930 . S
C1450 C1449 1.369 . S
C1450 C1459 1.429 . S
C1451 C1449 1.419 . S
C1451 C1452 1.363 . S
C1451 H1454 0.929 . S
C1452 C1451 1.363 . S
C1452 C1458 1.428 . S
H1453 C1449 0.930 . S
H1454 C1451 0.929 . S
S1455 N1456 1.613 . S
S1455 N1457 1.610 . S
N1456 S1455 1.613 . S
N1456 C1459 1.350 . S
N1457 S1455 1.610 . S
N1457 C1458 1.351 . S
C1458 C1452 1.428 . S
C1458 N1457 1.351 . S
C1458 C1459 1.434 . S
C1459 C1450 1.429 . S
C1459 N1456 1.350 . S
C1459 C1458 1.434 . S
C1460 C1461 1.369 . S
C1460 C1462 1.413 1_545 S
C1460 H1464 0.930 . S
C1461 C1460 1.369 . S
C1461 C1470 1.429 . S
C1462 C1460 1.413 1_565 S
C1462 C1463 1.362 1_565 S
C1462 H1465 0.936 . S
C1463 C1462 1.362 1_545 S
C1463 C1469 1.428 . S
H1464 C1460 0.930 . S
H1465 C1462 0.936 . S
S1466 N1467 1.613 . S
S1466 N1468 1.610 . S
N1467 S1466 1.613 . S
N1467 C1470 1.350 . S
N1468 S1466 1.610 . S
N1468 C1469 1.351 . S
C1469 C1463 1.428 . S
C1469 N1468 1.351 . S
C1469 C1470 1.434 . S
C1470 C1461 1.429 . S
C1470 N1467 1.350 . S
C1470 C1469 1.434 . S
C1471 C1472 1.369 . S
C1471 C1473 1.419 . S
C1471 H1475 0.930 . S
C1472 C1471 1.369 . S
C1472 C1481 1.429 . S
C1473 C1471 1.419 . S
C1473 C1474 1.363 . S
C1473 H1476 0.929 . S
C1474 C1473 1.363 . S
C1474 C1480 1.428 . S
H1475 C1471 0.930 . S
H1476 C1473 0.929 . S
S1477 N1478 1.613 1_545 S
S1477 N1479 1.610 . S
N1478 S1477 1.613 1_565 S
N1478 C1481 1.350 . S
N1479 S1477 1.610 . S
N1479 C1480 1.351 1_545 S
C1480 C1474 1.428 . S
C1480 N1479 1.351 1_565 S
C1480 C1481 1.434 . S
C1481 C1472 1.429 . S
C1481 N1478 1.350 . S
C1481 C1480 1.434 . S
C1482 C1483 1.369 . S
C1482 C1484 1.419 . S
C1482 H1486 0.930 . S
C1483 C1482 1.369 . S
C1483 C1492 1.429 . S
C1484 C1482 1.419 . S
C1484 C1485 1.363 . S
C1484 H1487 0.929 . S
C1485 C1484 1.363 . S
C1485 C1491 1.428 . S
H1486 C1482 0.930 . S
H1487 C1484 0.929 . S
S1488 N1489 1.613 . S
S1488 N1490 1.610 . S
N1489 S1488 1.613 . S
N1489 C1492 1.350 . S
N1490 S1488 1.610 . S
N1490 C1491 1.351 . S
C1491 C1485 1.428 . S
C1491 N1490 1.351 . S
C1491 C1492 1.434 . S
C1492 C1483 1.429 . S
C1492 N1489 1.350 . S
C1492 C1491 1.434 . S
C1493 C1494 1.369 . S
C1493 C1495 1.419 . S
C1493 H1497 0.930 . S
C1494 C1493 1.369 . S
C1494 C1503 1.429 . S
C1495 C1493 1.419 . S
C1495 C1496 1.363 . S
C1495 H1498 0.929 . S
C1496 C1495 1.363 . S
C1496 C1502 1.428 . S
H1497 C1493 0.930 . S
H1498 C1495 0.929 . S
S1499 N1500 1.613 . S
S1499 N1501 1.610 . S
N1500 S1499 1.613 . S
N1500 C1503 1.350 . S
N1501 S1499 1.610 . S
N1501 C1502 1.351 . S
C1502 C1496 1.428 . S
C1502 N1501 1.351 . S
C1502 C1503 1.434 . S
C1503 C1494 1.429 . S
C1503 N1500 1.350 . S
C1503 C1502 1.434 . S
C1504 C1505 1.369 . S
C1504 C1506 1.419 . S
C1504 H1508 0.930 . S
C1505 C1504 1.369 . S
C1505 C1514 1.429 . S
C1506 C1504 1.419 . S
C1506 C1507 1.363 . S
C1506 H1509 0.929 . S
C1507 C1506 1.363 . S
C1507 C1513 1.428 . S
H1508 C1504 0.930 . S
H1509 C1506 0.929 . S
S1510 N1511 1.613 . S
S1510 N1512 1.610 . S
N1511 S1510 1.613 . S
N1511 C1514 1.350 . S
N1512 S1510 1.610 . S
N1512 C1513 1.351 . S
C1513 C1507 1.428 . S
C1513 N1512 1.351 . S
C1513 C1514 1.434 . S
C1514 C1505 1.429 . S
C1514 N1511 1.350 . S
C1514 C1513 1.434 . S
C1515 C1516 1.369 . S
C1515 C1517 1.419 . S
C1515 H1519 0.930 . S
C1516 C1515 1.369 . S
C1516 C1525 1.429 . S
C1517 C1515 1.419 . S
C1517 C1518 1.363 . S
C1517 H1520 0.929 . S
C1518 C1517 1.363 . S
C1518 C1524 1.428 . S
H1519 C1515 0.930 . S
H1520 C1517 0.929 . S
S1521 N1522 1.613 . S
S1521 N1523 1.610 . S
N1522 S1521 1.613 . S
N1522 C1525 1.350 . S
N1523 S1521 1.610 . S
N1523 C1524 1.351 . S
C1524 C1518 1.428 . S
C1524 N1523 1.351 . S
C1524 C1525 1.434 . S
C1525 C1516 1.429 . S
C1525 N1522 1.350 . S
C1525 C1524 1.434 . S
C1526 C1527 1.369 . S
C1526 C1528 1.419 . S
C1526 H1530 0.930 1_554 S
C1527 C1526 1.369 . S
C1527 C1536 1.429 . S
C1528 C1526 1.419 . S
C1528 C1529 1.363 . S
C1528 H1531 0.929 1_554 S
C1529 C1528 1.363 . S
C1529 C1535 1.428 . S
H1530 C1526 0.930 1_556 S
H1531 C1528 0.929 1_556 S
S1532 N1533 1.613 . S
S1532 N1534 1.610 . S
N1533 S1532 1.613 . S
N1533 C1536 1.350 . S
N1534 S1532 1.610 . S
N1534 C1535 1.351 . S
C1535 C1529 1.428 . S
C1535 N1534 1.351 . S
C1535 C1536 1.434 . S
C1536 C1527 1.429 . S
C1536 N1533 1.350 . S
C1536 C1535 1.434 . S
C1537 C1538 1.369 . S
C1537 C1539 1.419 1_455 S
C1537 H1541 0.930 . S
C1538 C1537 1.369 . S
C1538 C1547 1.429 1_455 S
C1539 C1537 1.419 1_655 S
C1539 C1540 1.363 . S
C1539 H1542 0.929 . S
C1540 C1539 1.363 . S
C1540 C1546 1.428 . S
H1541 C1537 0.930 . S
H1542 C1539 0.929 . S
S1543 N1544 1.613 . S
S1543 N1545 1.610 . S
N1544 S1543 1.613 . S
N1544 C1547 1.350 . S
N1545 S1543 1.610 . S
N1545 C1546 1.351 . S
C1546 C1540 1.428 . S
C1546 N1545 1.351 . S
C1546 C1547 1.434 . S
C1547 C1538 1.429 1_655 S
C1547 N1544 1.350 . S
C1547 C1546 1.434 . S
C1548 C1549 1.369 . S
C1548 C1550 1.419 . S
C1548 H1552 0.930 . S
C1549 C1548 1.369 . S
C1549 C1558 1.429 . S
C1550 C1548 1.419 . S
C1550 C1551 1.363 . S
C1550 H1553 0.929 . S
C1551 C1550 1.363 . S
C1551 C1557 1.428 . S
H1552 C1548 0.930 . S
H1553 C1550 0.929 . S
S1554 N1555 1.613 . S
S1554 N1556 1.610 . S
N1555 S1554 1.613 . S
N1555 C1558 1.350 . S
N1556 S1554 1.610 . S
N1556 C1557 1.351 . S
C1557 C1551 1.428 . S
C1557 N1556 1.351 . S
C1557 C1558 1.434 . S
C1558 C1549 1.429 . S
C1558 N1555 1.350 . S
C1558 C1557 1.434 . S
C1559 C1560 1.369 . S
C1559 C1561 1.419 . S
C1559 H1563 0.930 . S
C1560 C1559 1.369 . S
C1560 C1569 1.429 . S
C1561 C1559 1.419 . S
C1561 C1562 1.363 . S
C1561 H1564 0.929 . S
C1562 C1561 1.363 . S
C1562 C1568 1.428 . S
H1563 C1559 0.930 . S
H1564 C1561 0.929 . S
S1565 N1566 1.613 . S
S1565 N1567 1.610 . S
N1566 S1565 1.613 . S
N1566 C1569 1.350 . S
N1567 S1565 1.610 . S
N1567 C1568 1.351 . S
C1568 C1562 1.428 . S
C1568 N1567 1.351 . S
C1568 C1569 1.434 . S
C1569 C1560 1.429 . S
C1569 N1566 1.350 . S
C1569 C1568 1.434 . S
C1570 C1571 1.369 . S
C1570 C1572 1.419 . S
C1570 H1574 0.930 . S
C1571 C1570 1.369 . S
C1571 C1580 1.429 1_455 S
C1572 C1570 1.419 . S
C1572 C1573 1.363 . S
C1572 H1575 0.929 . S
C1573 C1572 1.363 . S
C1573 C1579 1.428 . S
H1574 C1570 0.930 . S
H1575 C1572 0.929 . S
S1576 N1577 1.613 . S
S1576 N1578 1.610 . S
N1577 S1576 1.613 . S
N1577 C1580 1.350 . S
N1578 S1576 1.610 . S
N1578 C1579 1.351 1_655 S
C1579 C1573 1.428 . S
C1579 N1578 1.351 1_455 S
C1579 C1580 1.434 1_455 S
C1580 C1571 1.429 1_655 S
C1580 N1577 1.350 . S
C1580 C1579 1.434 1_655 S
C1581 C1582 1.369 . S
C1581 C1583 1.419 . S
C1581 H1585 0.930 . S
C1582 C1581 1.369 . S
C1582 C1591 1.429 . S
C1583 C1581 1.419 . S
C1583 C1584 1.363 . S
C1583 H1586 0.929 . S
C1584 C1583 1.363 . S
C1584 C1590 1.428 . S
H1585 C1581 0.930 . S
H1586 C1583 0.929 . S
S1587 N1588 1.613 . S
S1587 N1589 1.610 . S
N1588 S1587 1.613 . S
N1588 C1591 1.350 . S
N1589 S1587 1.610 . S
N1589 C1590 1.351 . S
C1590 C1584 1.428 . S
C1590 N1589 1.351 . S
C1590 C1591 1.434 . S
C1591 C1582 1.429 . S
C1591 N1588 1.350 . S
C1591 C1590 1.434 . S
C1592 C1593 1.369 . S
C1592 C1594 1.419 . S
C1592 H1596 0.930 . S
C1593 C1592 1.369 . S
C1593 C1602 1.429 . S
C1594 C1592 1.419 . S
C1594 C1595 1.363 . S
C1594 H1597 0.929 . S
C1595 C1594 1.363 . S
C1595 C1601 1.428 . S
H1596 C1592 0.930 . S
H1597 C1594 0.929 . S
S1598 N1599 1.613 . S
S1598 N1600 1.610 . S
N1599 S1598 1.613 . S
N1599 C1602 1.350 . S
N1600 S1598 1.610 . S
N1600 C1601 1.351 . S
C1601 C1595 1.428 . S
C1601 N1600 1.351 . S
C1601 C1602 1.434 . S
C1602 C1593 1.429 . S
C1602 N1599 1.350 . S
C1602 C1601 1.434 . S
C1603 C1604 1.369 . S
C1603 C1605 1.419 1_554 S
C1603 H1607 0.930 . S
C1604 C1603 1.369 . S
C1604 C1613 1.429 . S
C1605 C1603 1.419 1_556 S
C1605 C1606 1.363 . S
C1605 H1608 0.929 . S
C1606 C1605 1.363 . S
C1606 C1612 1.428 1_556 S
H1607 C1603 0.930 . S
H1608 C1605 0.929 . S
S1609 N1610 1.613 . S
S1609 N1611 1.610 . S
N1610 S1609 1.613 . S
N1610 C1613 1.350 . S
N1611 S1609 1.610 . S
N1611 C1612 1.351 . S
C1612 C1606 1.428 1_554 S
C1612 N1611 1.351 . S
C1612 C1613 1.434 . S
C1613 C1604 1.429 . S
C1613 N1610 1.350 . S
C1613 C1612 1.434 . S
C1614 C1615 1.369 . S
C1614 C1616 1.419 . S
C1614 H1618 0.930 . S
C1615 C1614 1.369 . S
C1615 C1624 1.429 . S
C1616 C1614 1.419 . S
C1616 C1617 1.363 . S
C1616 H1619 0.929 . S
C1617 C1616 1.363 . S
C1617 C1623 1.428 . S
H1618 C1614 0.930 . S
H1619 C1616 0.929 . S
S1620 N1621 1.613 . S
S1620 N1622 1.610 . S
N1621 S1620 1.613 . S
N1621 C1624 1.350 . S
N1622 S1620 1.610 . S
N1622 C1623 1.351 . S
C1623 C1617 1.428 . S
C1623 N1622 1.351 . S
C1623 C1624 1.434 . S
C1624 C1615 1.429 . S
C1624 N1621 1.350 . S
C1624 C1623 1.434 . S
C1625 C1626 1.369 . S
C1625 C1627 1.419 . S
C1625 H1629 0.930 . S
C1626 C1625 1.369 . S
C1626 C1635 1.429 . S
C1627 C1625 1.419 . S
C1627 C1628 1.363 . S
C1627 H1630 0.929 . S
C1628 C1627 1.363 . S
C1628 C1634 1.428 . S
H1629 C1625 0.930 . S
H1630 C1627 0.929 . S
S1631 N1632 1.613 . S
S1631 N1633 1.610 . S
N1632 S1631 1.613 . S
N1632 C1635 1.350 . S
N1633 S1631 1.610 . S
N1633 C1634 1.351 . S
C1634 C1628 1.428 . S
C1634 N1633 1.351 . S
C1634 C1635 1.434 . S
C1635 C1626 1.429 . S
C1635 N1632 1.350 . S
C1635 C1634 1.434 . S
C1636 C1637 1.369 . S
C1636 C1638 1.419 . S
C1636 H1640 0.930 . S
C1637 C1636 1.369 . S
C1637 C1646 1.429 . S
C1638 C1636 1.419 . S
C1638 C1639 1.363 . S
C1638 H1641 0.929 . S
C1639 C1638 1.363 . S
C1639 C1645 1.428 . S
H1640 C1636 0.930 . S
H1641 C1638 0.929 . S
S1642 N1643 1.613 . S
S1642 N1644 1.610 . S
N1643 S1642 1.613 . S
N1643 C1646 1.350 . S
N1644 S1642 1.610 . S
N1644 C1645 1.351 . S
C1645 C1639 1.428 . S
C1645 N1644 1.351 . S
C1645 C1646 1.434 . S
C1646 C1637 1.429 . S
C1646 N1643 1.350 . S
C1646 C1645 1.434 . S
C1647 C1648 1.369 . S
C1647 C1649 1.419 . S
C1647 H1651 0.930 . S
C1648 C1647 1.369 . S
C1648 C1657 1.429 . S
C1649 C1647 1.419 . S
C1649 C1650 1.363 . S
C1649 H1652 0.929 . S
C1650 C1649 1.363 . S
C1650 C1656 1.428 . S
H1651 C1647 0.930 . S
H1652 C1649 0.929 . S
S1653 N1654 1.613 . S
S1653 N1655 1.610 . S
N1654 S1653 1.613 . S
N1654 C1657 1.350 . S
N1655 S1653 1.610 . S
N1655 C1656 1.351 . S
C1656 C1650 1.428 . S
C1656 N1655 1.351 . S
C1656 C1657 1.434 . S
C1657 C1648 1.429 . S
C1657 N1654 1.350 . S
C1657 C1656 1.434 . S
C1658 C1659 1.369 . S
C1658 C1660 1.419 . S
C1658 H1662 0.930 . S
C1659 C1658 1.369 . S
C1659 C1668 1.429 . S
C1660 C1658 1.419 . S
C1660 C1661 1.363 . S
C1660 H1663 0.929 . S
C1661 C1660 1.363 . S
C1661 C1667 1.428 . S
H1662 C1658 0.930 . S
H1663 C1660 0.929 . S
S1664 N1665 1.613 . S
S1664 N1666 1.610 . S
N1665 S1664 1.613 . S
N1665 C1668 1.350 . S
N1666 S1664 1.610 . S
N1666 C1667 1.351 . S
C1667 C1661 1.428 . S
C1667 N1666 1.351 . S
C1667 C1668 1.434 . S
C1668 C1659 1.429 . S
C1668 N1665 1.350 . S
C1668 C1667 1.434 . S
C1669 C1670 1.369 . S
C1669 C1671 1.419 . S
C1669 H1673 0.930 . S
C1670 C1669 1.369 . S
C1670 C1679 1.429 . S
C1671 C1669 1.419 . S
C1671 C1672 1.363 . S
C1671 H1674 0.929 . S
C1672 C1671 1.363 . S
C1672 C1678 1.428 . S
H1673 C1669 0.930 . S
H1674 C1671 0.929 . S
S1675 N1676 1.613 . S
S1675 N1677 1.610 . S
N1676 S1675 1.613 . S
N1676 C1679 1.350 . S
N1677 S1675 1.610 . S
N1677 C1678 1.351 . S
C1678 C1672 1.428 . S
C1678 N1677 1.351 . S
C1678 C1679 1.434 . S
C1679 C1670 1.429 . S
C1679 N1676 1.350 . S
C1679 C1678 1.434 . S
C1680 C1681 1.369 . S
C1680 C1682 1.419 . S
C1680 H1684 0.930 . S
C1681 C1680 1.369 . S
C1681 C1690 1.429 . S
C1682 C1680 1.419 . S
C1682 C1683 1.363 . S
C1682 H1685 0.929 . S
C1683 C1682 1.363 . S
C1683 C1689 1.428 . S
H1684 C1680 0.930 . S
H1685 C1682 0.929 . S
S1686 N1687 1.613 . S
S1686 N1688 1.610 . S
N1687 S1686 1.613 . S
N1687 C1690 1.350 . S
N1688 S1686 1.610 . S
N1688 C1689 1.351 . S
C1689 C1683 1.428 . S
C1689 N1688 1.351 . S
C1689 C1690 1.434 . S
C1690 C1681 1.429 . S
C1690 N1687 1.350 . S
C1690 C1689 1.434 . S
C1691 C1692 1.369 . S
C1691 C1693 1.419 . S
C1691 H1695 0.930 . S
C1692 C1691 1.369 . S
C1692 C1701 1.429 . S
C1693 C1691 1.419 . S
C1693 C1694 1.363 . S
C1693 H1696 0.929 . S
C1694 C1693 1.363 . S
C1694 C1700 1.428 . S
H1695 C1691 0.930 . S
H1696 C1693 0.929 . S
S1697 N1698 1.613 . S
S1697 N1699 1.610 . S
N1698 S1697 1.613 . S
N1698 C1701 1.350 . S
N1699 S1697 1.610 . S
N1699 C1700 1.351 . S
C1700 C1694 1.428 . S
C1700 N1699 1.351 . S
C1700 C1701 1.434 . S
C1701 C1692 1.429 . S
C1701 N1698 1.350 . S
C1701 C1700 1.434 . S
C1702 C1703 1.369 . S
C1702 C1704 1.419 1_545 S
C1702 H1706 0.930 . S
C1703 C1702 1.369 . S
C1703 C1712 1.429 1_545 S
C1704 C1702 1.419 1_565 S
C1704 C1705 1.363 . S
C1704 H1707 0.929 . S
C1705 C1704 1.363 . S
C1705 C1711 1.428 . S
H1706 C1702 0.930 . S
H1707 C1704 0.929 . S
S1708 N1709 1.613 1_565 S
S1708 N1710 1.610 . S
N1709 S1708 1.613 1_545 S
N1709 C1712 1.350 1_545 S
N1710 S1708 1.610 . S
N1710 C1711 1.351 . S
C1711 C1705 1.428 . S
C1711 N1710 1.351 . S
C1711 C1712 1.434 . S
C1712 C1703 1.429 1_565 S
C1712 N1709 1.350 1_565 S
C1712 C1711 1.434 . S
C1713 C1714 1.369 1_556 S
C1713 C1715 1.419 1_566 S
C1713 H1717 0.930 . S
C1714 C1713 1.369 1_554 S
C1714 C1723 1.429 1_565 S
C1715 C1713 1.419 1_544 S
C1715 C1716 1.363 . S
C1715 H1718 0.929 1_554 S
C1716 C1715 1.363 . S
C1716 C1722 1.428 . S
H1717 C1713 0.930 . S
H1718 C1715 0.929 1_556 S
S1719 N1720 1.613 . S
S1719 N1721 1.610 . S
N1720 S1719 1.613 . S
N1720 C1723 1.350 . S
N1721 S1719 1.610 . S
N1721 C1722 1.351 . S
C1722 C1716 1.428 . S
C1722 N1721 1.351 . S
C1722 C1723 1.434 . S
C1723 C1714 1.429 1_545 S
C1723 N1720 1.350 . S
C1723 C1722 1.434 . S
C1724 C1725 1.369 . S
C1724 C1726 1.419 . S
C1724 H1728 0.930 . S
C1725 C1724 1.369 . S
C1725 C1734 1.429 . S
C1726 C1724 1.419 . S
C1726 C1727 1.363 . S
C1726 H1729 0.929 . S
C1727 C1726 1.363 . S
C1727 C1733 1.428 . S
H1728 C1724 0.930 . S
H1729 C1726 0.929 . S
S1730 N1731 1.613 . S
S1730 N1732 1.610 . S
N1731 S1730 1.613 . S
N1731 C1734 1.350 . S
N1732 S1730 1.610 . S
N1732 C1733 1.351 . S
C1733 C1727 1.428 . S
C1733 N1732 1.351 . S
C1733 C1734 1.434 . S
C1734 C1725 1.429 . S
C1734 N1731 1.350 . S
C1734 C1733 1.434 . S
C1735 C1736 1.369 . S
C1735 C1737 1.419 . S
C1735 H1739 0.930 . S
C1736 C1735 1.369 . S
C1736 C1745 1.429 . S
C1737 C1735 1.419 . S
C1737 C1738 1.363 . S
C1737 H1740 0.929 . S
C1738 C1737 1.363 . S
C1738 C1744 1.428 . S
H1739 C1735 0.930 . S
H1740 C1737 0.929 . S
S1741 N1742 1.613 . S
S1741 N1743 1.610 . S
N1742 S1741 1.613 . S
N1742 C1745 1.350 . S
N1743 S1741 1.610 . S
N1743 C1744 1.351 . S
C1744 C1738 1.428 . S
C1744 N1743 1.351 . S
C1744 C1745 1.434 . S
C1745 C1736 1.429 . S
C1745 N1742 1.350 . S
C1745 C1744 1.434 . S
C1746 C1747 1.369 . S
C1746 C1748 1.419 . S
C1746 H1750 0.930 . S
C1747 C1746 1.369 . S
C1747 C1756 1.429 . S
C1748 C1746 1.419 . S
C1748 C1749 1.363 . S
C1748 H1751 0.929 . S
C1749 C1748 1.363 . S
C1749 C1755 1.428 . S
H1750 C1746 0.930 . S
H1751 C1748 0.929 . S
S1752 N1753 1.613 . S
S1752 N1754 1.610 . S
N1753 S1752 1.613 . S
N1753 C1756 1.350 . S
N1754 S1752 1.610 . S
N1754 C1755 1.351 . S
C1755 C1749 1.428 . S
C1755 N1754 1.351 . S
C1755 C1756 1.434 . S
C1756 C1747 1.429 . S
C1756 N1753 1.350 . S
C1756 C1755 1.434 . S
C1757 C1758 1.369 . S
C1757 C1759 1.419 . S
C1757 H1761 0.930 . S
C1758 C1757 1.369 . S
C1758 C1767 1.429 . S
C1759 C1757 1.419 . S
C1759 C1760 1.363 . S
C1759 H1762 0.929 . S
C1760 C1759 1.363 . S
C1760 C1766 1.428 . S
H1761 C1757 0.930 . S
H1762 C1759 0.929 . S
S1763 N1764 1.613 . S
S1763 N1765 1.610 . S
N1764 S1763 1.613 . S
N1764 C1767 1.350 . S
N1765 S1763 1.610 . S
N1765 C1766 1.351 . S
C1766 C1760 1.428 . S
C1766 N1765 1.351 . S
C1766 C1767 1.434 . S
C1767 C1758 1.429 . S
C1767 N1764 1.350 . S
C1767 C1766 1.434 . S
C1768 C1769 1.369 . S
C1768 C1770 1.419 . S
C1768 H1772 0.930 . S
C1769 C1768 1.369 . S
C1769 C1778 1.429 . S
C1770 C1768 1.419 . S
C1770 C1771 1.363 . S
C1770 H1773 0.929 . S
C1771 C1770 1.363 . S
C1771 C1777 1.428 . S
H1772 C1768 0.930 . S
H1773 C1770 0.929 . S
S1774 N1775 1.613 . S
S1774 N1776 1.610 . S
N1775 S1774 1.613 . S
N1775 C1778 1.350 . S
N1776 S1774 1.610 . S
N1776 C1777 1.351 . S
C1777 C1771 1.428 . S
C1777 N1776 1.351 . S
C1777 C1778 1.434 . S
C1778 C1769 1.429 . S
C1778 N1775 1.350 . S
C1778 C1777 1.434 . S
C1779 C1780 1.369 . S
C1779 C1781 1.419 . S
C1779 H1783 0.930 . S
C1780 C1779 1.369 . S
C1780 C1789 1.429 . S
C1781 C1779 1.419 . S
C1781 C1782 1.363 . S
C1781 H1784 0.929 . S
C1782 C1781 1.363 . S
C1782 C1788 1.428 . S
H1783 C1779 0.930 . S
H1784 C1781 0.929 . S
S1785 N1786 1.613 . S
S1785 N1787 1.610 . S
N1786 S1785 1.613 . S
N1786 C1789 1.350 . S
N1787 S1785 1.610 . S
N1787 C1788 1.351 . S
C1788 C1782 1.428 . S
C1788 N1787 1.351 . S
C1788 C1789 1.434 . S
C1789 C1780 1.429 . S
C1789 N1786 1.350 . S
C1789 C1788 1.434 . S
C1790 C1791 1.369 . S
C1790 C1792 1.419 . S
C1790 H1794 0.930 . S
C1791 C1790 1.369 . S
C1791 C1800 1.429 . S
C1792 C1790 1.419 . S
C1792 C1793 1.363 . S
C1792 H1795 0.929 . S
C1793 C1792 1.363 . S
C1793 C1799 1.428 . S
H1794 C1790 0.930 . S
H1795 C1792 0.929 . S
S1796 N1797 1.613 . S
S1796 N1798 1.610 . S
N1797 S1796 1.613 . S
N1797 C1800 1.350 . S
N1798 S1796 1.610 . S
N1798 C1799 1.351 . S
C1799 C1793 1.428 . S
C1799 N1798 1.351 . S
C1799 C1800 1.434 . S
C1800 C1791 1.429 . S
C1800 N1797 1.350 . S
C1800 C1799 1.434 . S
C1801 C1802 1.369 . S
C1801 C1803 1.419 . S
C1801 H1805 0.930 . S
C1802 C1801 1.369 . S
C1802 C1811 1.429 . S
C1803 C1801 1.419 . S
C1803 C1804 1.363 . S
C1803 H1806 0.929 . S
C1804 C1803 1.363 . S
C1804 C1810 1.428 . S
H1805 C1801 0.930 . S
H1806 C1803 0.929 . S
S1807 N1808 1.613 . S
S1807 N1809 1.610 . S
N1808 S1807 1.613 . S
N1808 C1811 1.350 . S
N1809 S1807 1.610 . S
N1809 C1810 1.351 . S
C1810 C1804 1.428 . S
C1810 N1809 1.351 . S
C1810 C1811 1.434 . S
C1811 C1802 1.429 . S
C1811 N1808 1.350 . S
C1811 C1810 1.434 . S
C1812 C1813 1.369 . S
C1812 C1814 1.419 . S
C1812 H1816 0.930 . S
C1813 C1812 1.369 . S
C1813 C1822 1.429 . S
C1814 C1812 1.419 . S
C1814 C1815 1.363 . S
C1814 H1817 0.929 . S
C1815 C1814 1.363 . S
C1815 C1821 1.428 . S
H1816 C1812 0.930 . S
H1817 C1814 0.929 . S
S1818 N1819 1.613 . S
S1818 N1820 1.610 . S
N1819 S1818 1.613 . S
N1819 C1822 1.350 . S
N1820 S1818 1.610 . S
N1820 C1821 1.351 . S
C1821 C1815 1.428 . S
C1821 N1820 1.351 . S
C1821 C1822 1.434 . S
C1822 C1813 1.429 . S
C1822 N1819 1.350 . S
C1822 C1821 1.434 . S
C1823 C1824 1.369 . S
C1823 C1825 1.419 . S
C1823 H1827 0.930 . S
C1824 C1823 1.369 . S
C1824 C1833 1.429 . S
C1825 C1823 1.419 . S
C1825 C1826 1.363 . S
C1825 H1828 0.929 . S
C1826 C1825 1.363 . S
C1826 C1832 1.428 . S
H1827 C1823 0.930 . S
H1828 C1825 0.929 . S
S1829 N1830 1.613 . S
S1829 N1831 1.610 . S
N1830 S1829 1.613 . S
N1830 C1833 1.350 . S
N1831 S1829 1.610 . S
N1831 C1832 1.351 . S
C1832 C1826 1.428 . S
C1832 N1831 1.351 . S
C1832 C1833 1.434 . S
C1833 C1824 1.429 . S
C1833 N1830 1.350 . S
C1833 C1832 1.434 . S
C1834 C1835 1.369 . S
C1834 C1836 1.419 . S
C1834 H1838 0.930 . S
C1835 C1834 1.369 . S
C1835 C1844 1.429 . S
C1836 C1834 1.419 . S
C1836 C1837 1.363 . S
C1836 H1839 0.929 . S
C1837 C1836 1.363 . S
C1837 C1843 1.428 . S
H1838 C1834 0.930 . S
H1839 C1836 0.929 . S
S1840 N1841 1.613 . S
S1840 N1842 1.610 . S
N1841 S1840 1.613 . S
N1841 C1844 1.350 . S
N1842 S1840 1.610 . S
N1842 C1843 1.351 . S
C1843 C1837 1.428 . S
C1843 N1842 1.351 . S
C1843 C1844 1.434 . S
C1844 C1835 1.429 . S
C1844 N1841 1.350 . S
C1844 C1843 1.434 . S
C1845 C1846 1.369 . S
C1845 C1847 1.419 . S
C1845 H1849 0.930 . S
C1846 C1845 1.369 . S
C1846 C1855 1.429 . S
C1847 C1845 1.419 . S
C1847 C1848 1.363 . S
C1847 H1850 0.929 . S
C1848 C1847 1.363 . S
C1848 C1854 1.428 . S
H1849 C1845 0.930 . S
H1850 C1847 0.929 . S
S1851 N1852 1.613 . S
S1851 N1853 1.610 . S
N1852 S1851 1.613 . S
N1852 C1855 1.350 . S
N1853 S1851 1.610 . S
N1853 C1854 1.351 . S
C1854 C1848 1.428 . S
C1854 N1853 1.351 . S
C1854 C1855 1.434 . S
C1855 C1846 1.429 . S
C1855 N1852 1.350 . S
C1855 C1854 1.434 . S
C1856 C1857 1.369 . S
C1856 C1858 1.419 . S
C1856 H1860 0.930 . S
C1857 C1856 1.369 . S
C1857 C1866 1.429 . S
C1858 C1856 1.419 . S
C1858 C1859 1.363 . S
C1858 H1861 0.929 . S
C1859 C1858 1.363 . S
C1859 C1865 1.428 . S
H1860 C1856 0.930 . S
H1861 C1858 0.929 . S
S1862 N1863 1.613 . S
S1862 N1864 1.610 . S
N1863 S1862 1.613 . S
N1863 C1866 1.350 . S
N1864 S1862 1.610 . S
N1864 C1865 1.351 . S
C1865 C1859 1.428 . S
C1865 N1864 1.351 . S
C1865 C1866 1.434 . S
C1866 C1857 1.429 . S
C1866 N1863 1.350 . S
C1866 C1865 1.434 . S
C1867 C1868 1.369 . S
C1867 C1869 1.419 . S
C1867 H1871 0.930 . S
C1868 C1867 1.369 . S
C1868 C1877 1.429 . S
C1869 C1867 1.419 . S
C1869 C1870 1.363 . S
C1869 H1872 0.929 . S
C1870 C1869 1.363 . S
C1870 C1876 1.428 . S
H1871 C1867 0.930 . S
H1872 C1869 0.929 . S
S1873 N1874 1.613 . S
S1873 N1875 1.610 . S
N1874 S1873 1.613 . S
N1874 C1877 1.350 . S
N1875 S1873 1.610 . S
N1875 C1876 1.351 . S
C1876 C1870 1.428 . S
C1876 N1875 1.351 . S
C1876 C1877 1.434 . S
C1877 C1868 1.429 . S
C1877 N1874 1.350 . S
C1877 C1876 1.434 . S
C1878 C1879 1.369 . S
C1878 C1880 1.419 . S
C1878 H1882 0.930 . S
C1879 C1878 1.369 . S
C1879 C1888 1.429 . S
C1880 C1878 1.419 . S
C1880 C1881 1.363 . S
C1880 H1883 0.929 1_655 S
C1881 C1880 1.363 . S
C1881 C1887 1.428 . S
H1882 C1878 0.930 . S
H1883 C1880 0.929 1_455 S
S1884 N1885 1.613 . S
S1884 N1886 1.610 . S
N1885 S1884 1.613 . S
N1885 C1888 1.350 . S
N1886 S1884 1.610 . S
N1886 C1887 1.351 . S
C1887 C1881 1.428 . S
C1887 N1886 1.351 . S
C1887 C1888 1.434 . S
C1888 C1879 1.429 . S
C1888 N1885 1.350 . S
C1888 C1887 1.434 . S
C1889 C1890 1.369 . S
C1889 C1891 1.419 . S
C1889 H1893 0.930 . S
C1890 C1889 1.369 . S
C1890 C1899 1.429 . S
C1891 C1889 1.419 . S
C1891 C1892 1.363 . S
C1891 H1894 0.929 . S
C1892 C1891 1.363 . S
C1892 C1898 1.428 . S
H1893 C1889 0.930 . S
H1894 C1891 0.929 . S
S1895 N1896 1.613 . S
S1895 N1897 1.610 . S
N1896 S1895 1.613 . S
N1896 C1899 1.350 . S
N1897 S1895 1.610 . S
N1897 C1898 1.351 . S
C1898 C1892 1.428 . S
C1898 N1897 1.351 . S
C1898 C1899 1.434 . S
C1899 C1890 1.429 . S
C1899 N1896 1.350 . S
C1899 C1898 1.434 . S
C1900 C1901 1.369 . S
C1900 C1902 1.419 . S
C1900 H1904 0.930 . S
C1901 C1900 1.369 . S
C1901 C1910 1.429 . S
C1902 C1900 1.419 . S
C1902 C1903 1.363 . S
C1902 H1905 0.929 . S
C1903 C1902 1.363 . S
C1903 C1909 1.428 . S
H1904 C1900 0.930 . S
H1905 C1902 0.929 . S
S1906 N1907 1.613 . S
S1906 N1908 1.610 . S
N1907 S1906 1.613 . S
N1907 C1910 1.350 . S
N1908 S1906 1.610 . S
N1908 C1909 1.351 . S
C1909 C1903 1.428 . S
C1909 N1908 1.351 . S
C1909 C1910 1.434 . S
C1910 C1901 1.429 . S
C1910 N1907 1.350 . S
C1910 C1909 1.434 . S
C1911 C1912 1.369 . S
C1911 C1913 1.419 . S
C1911 H1915 0.930 . S
C1912 C1911 1.369 . S
C1912 C1921 1.429 . S
C1913 C1911 1.419 . S
C1913 C1914 1.363 . S
C1913 H1916 0.929 . S
C1914 C1913 1.363 . S
C1914 C1920 1.428 . S
H1915 C1911 0.930 . S
H1916 C1913 0.929 . S
S1917 N1918 1.613 . S
S1917 N1919 1.610 . S
N1918 S1917 1.613 . S
N1918 C1921 1.350 . S
N1919 S1917 1.610 . S
N1919 C1920 1.351 . S
C1920 C1914 1.428 . S
C1920 N1919 1.351 . S
C1920 C1921 1.434 . S
C1921 C1912 1.429 . S
C1921 N1918 1.350 . S
C1921 C1920 1.434 . S
C1922 C1923 1.369 . S
C1922 C1924 1.419 . S
C1922 H1926 0.930 . S
C1923 C1922 1.369 . S
C1923 C1932 1.429 . S
C1924 C1922 1.419 . S
C1924 C1925 1.363 . S
C1924 H1927 0.929 . S
C1925 C1924 1.363 . S
C1925 C1931 1.428 . S
H1926 C1922 0.930 . S
H1927 C1924 0.929 . S
S1928 N1929 1.613 . S
S1928 N1930 1.610 . S
N1929 S1928 1.613 . S
N1929 C1932 1.350 . S
N1930 S1928 1.610 . S
N1930 C1931 1.351 . S
C1931 C1925 1.428 . S
C1931 N1930 1.351 . S
C1931 C1932 1.434 . S
C1932 C1923 1.429 . S
C1932 N1929 1.350 . S
C1932 C1931 1.434 . S
C1933 C1934 1.369 . S
C1933 C1935 1.419 . S
C1933 H1937 0.930 . S
C1934 C1933 1.369 . S
C1934 C1943 1.429 . S
C1935 C1933 1.419 . S
C1935 C1936 1.363 . S
C1935 H1938 0.929 . S
C1936 C1935 1.363 . S
C1936 C1942 1.428 . S
H1937 C1933 0.930 . S
H1938 C1935 0.929 . S
S1939 N1940 1.613 . S
S1939 N1941 1.610 . S
N1940 S1939 1.613 . S
N1940 C1943 1.350 . S
N1941 S1939 1.610 . S
N1941 C1942 1.351 . S
C1942 C1936 1.428 . S
C1942 N1941 1.351 . S
C1942 C1943 1.434 . S
C1943 C1934 1.429 . S
C1943 N1940 1.350 . S
C1943 C1942 1.434 . S
C1944 C1945 1.369 . S
C1944 C1946 1.419 . S
C1944 H1948 0.930 . S
C1945 C1944 1.369 . S
C1945 C1954 1.429 . S
C1946 C1944 1.419 . S
C1946 C1947 1.363 . S
C1946 H1949 0.929 . S
C1947 C1946 1.363 . S
C1947 C1953 1.428 . S
H1948 C1944 0.930 . S
H1949 C1946 0.929 . S
S1950 N1951 1.613 . S
S1950 N1952 1.610 . S
N1951 S1950 1.613 . S
N1951 C1954 1.350 . S
N1952 S1950 1.610 . S
N1952 C1953 1.351 . S
C1953 C1947 1.428 . S
C1953 N1952 1.351 . S
C1953 C1954 1.434 . S
C1954 C1945 1.429 . S
C1954 N1951 1.350 . S
C1954 C1953 1.434 . S
C1955 C1956 1.369 . S
C1955 C1957 1.419 . S
C1955 H1959 0.930 . S
C1956 C1955 1.369 . S
C1956 C1965 1.429 . S
C1957 C1955 1.419 . S
C1957 C1958 1.363 1_565 S
C1957 H1960 0.929 . S
C1958 C1957 1.363 1_545 S
C1958 C1964 1.428 . S
H1959 C1955 0.930 . S
H1960 C1957 0.929 . S
S1961 N1962 1.613 1_545 S
S1961 N1963 1.610 . S
N1962 S1961 1.613 1_565 S
N1962 C1965 1.350 . S
N1963 S1961 1.610 . S
N1963 C1964 1.351 . S
C1964 C1958 1.428 . S
C1964 N1963 1.351 . S
C1964 C1965 1.434 1_545 S
C1965 C1956 1.429 . S
C1965 N1962 1.350 . S
C1965 C1964 1.434 1_565 S
C1966 C1967 1.369 . S
C1966 C1968 1.419 . S
C1966 H1970 0.930 . S
C1967 C1966 1.369 . S
C1967 C1976 1.429 . S
C1968 C1966 1.419 . S
C1968 C1969 1.363 . S
C1968 H1971 0.929 . S
C1969 C1968 1.363 . S
C1969 C1975 1.428 . S
H1970 C1966 0.930 . S
H1971 C1968 0.929 . S
S1972 N1973 1.613 . S
S1972 N1974 1.610 . S
N1973 S1972 1.613 . S
N1973 C1976 1.350 . S
N1974 S1972 1.610 . S
N1974 C1975 1.351 . S
C1975 C1969 1.428 . S
C1975 N1974 1.351 . S
C1975 C1976 1.434 . S
C1976 C1967 1.429 . S
C1976 N1973 1.350 . S
C1976 C1975 1.434 . S
C1977 C1978 1.369 . S
C1977 C1979 1.419 . S
C1977 H1981 0.930 . S
C1978 C1977 1.369 . S
C1978 C1987 1.429 . S
C1979 C1977 1.419 . S
C1979 C1980 1.363 . S
C1979 H1982 0.929 . S
C1980 C1979 1.363 . S
C1980 C1986 1.428 . S
H1981 C1977 0.930 . S
H1982 C1979 0.929 . S
S1983 N1984 1.613 . S
S1983 N1985 1.610 . S
N1984 S1983 1.613 . S
N1984 C1987 1.350 . S
N1985 S1983 1.610 . S
N1985 C1986 1.351 . S
C1986 C1980 1.428 . S
C1986 N1985 1.351 . S
C1986 C1987 1.434 . S
C1987 C1978 1.429 . S
C1987 N1984 1.350 . S
C1987 C1986 1.434 . S
C1988 C1989 1.369 . S
C1988 C1990 1.419 . S
C1988 H1992 0.930 . S
C1989 C1988 1.369 . S
C1989 C1998 1.429 . S
C1990 C1988 1.419 . S
C1990 C1991 1.363 . S
C1990 H1993 0.929 . S
C1991 C1990 1.363 . S
C1991 C1997 1.428 . S
H1992 C1988 0.930 . S
H1993 C1990 0.929 . S
S1994 N1995 1.613 . S
S1994 N1996 1.610 . S
N1995 S1994 1.613 . S
N1995 C1998 1.350 . S
N1996 S1994 1.610 . S
N1996 C1997 1.351 . S
C1997 C1991 1.428 . S
C1997 N1996 1.351 . S
C1997 C1998 1.434 . S
C1998 C1989 1.429 . S
C1998 N1995 1.350 . S
C1998 C1997 1.434 . S
C1999 C2000 1.369 . S
C1999 C2001 1.419 . S
C1999 H2003 0.930 . S
C2000 C1999 1.369 . S
C2000 C2009 1.429 . S
C2001 C1999 1.419 . S
C2001 C2002 1.363 . S
C2001 H2004 0.929 . S
C2002 C2001 1.363 . S
C2002 C2008 1.428 1_554 S
H2003 C1999 0.930 . S
H2004 C2001 0.929 . S
S2005 N2006 1.613 . S
S2005 N2007 1.610 . S
N2006 S2005 1.613 . S
N2006 C2009 1.350 1_556 S
N2007 S2005 1.610 . S
N2007 C2008 1.351 . S
C2008 C2002 1.428 1_556 S
C2008 N2007 1.351 . S
C2008 C2009 1.434 1_556 S
C2009 C2000 1.429 . S
C2009 N2006 1.350 1_554 S
C2009 C2008 1.434 1_554 S
C2010 C2011 1.369 . S
C2010 C2012 1.419 . S
C2010 H2014 0.930 . S
C2011 C2010 1.369 . S
C2011 C2020 1.429 . S
C2012 C2010 1.419 . S
C2012 C2013 1.363 . S
C2012 H2015 0.929 . S
C2013 C2012 1.363 . S
C2013 C2019 1.428 . S
H2014 C2010 0.930 . S
H2015 C2012 0.929 . S
S2016 N2017 1.613 . S
S2016 N2018 1.610 . S
N2017 S2016 1.613 . S
N2017 C2020 1.350 . S
N2018 S2016 1.610 . S
N2018 C2019 1.351 . S
C2019 C2013 1.428 . S
C2019 N2018 1.351 . S
C2019 C2020 1.434 . S
C2020 C2011 1.429 . S
C2020 N2017 1.350 . S
C2020 C2019 1.434 . S
C2021 C2022 1.369 . S
C2021 C2023 1.419 . S
C2021 H2025 0.930 . S
C2022 C2021 1.369 . S
C2022 C2031 1.429 . S
C2023 C2021 1.419 . S
C2023 C2024 1.363 . S
C2023 H2026 0.929 . S
C2024 C2023 1.363 . S
C2024 C2030 1.428 . S
H2025 C2021 0.930 . S
H2026 C2023 0.929 . S
S2027 N2028 1.613 . S
S2027 N2029 1.610 . S
N2028 S2027 1.613 . S
N2028 C2031 1.350 . S
N2029 S2027 1.610 . S
N2029 C2030 1.351 . S
C2030 C2024 1.428 . S
C2030 N2029 1.351 . S
C2030 C2031 1.434 . S
C2031 C2022 1.429 . S
C2031 N2028 1.350 . S
C2031 C2030 1.434 . S
C977 C111 2.469 1_455 S
C979 C349 2.423 . S
C988 C64 2.112 . S
C990 C400 2.184 . S
C999 C77 1.734 . S
C1001 C429 1.743 . S
C1012 C473 1.292 . S
C1010 C95 1.381 . S
C1021 C25 1.274 . S
C1023 C513 1.197 . S
C1034 C549 1.794 . S
C1032 C36 1.694 . S
C1045 C599 2.055 . S
C1043 C50 1.958 . S
C1054 C11 2.444 . S
C1056 C629 2.438 . S
C1067 C359 2.014 . S
C1065 C237 2.029 1_455 S
C1076 C245 0.794 . S
C1078 C402 0.800 . S
C1089 C439 1.278 . S
C1087 C279 1.167 . S
C1100 C469 1.474 . S
C1098 C175 1.467 . S
C1109 C231 1.474 1_455 S
C1111 C509 1.479 . S
C1122 C559 0.894 . S
C1120 C251 0.842 . S
C1133 C593 0.993 . S
C1131 C273 1.047 . S
C1144 C639 2.019 . S
C1142 C181 2.035 . S
C1155 C353 1.352 . S
C1153 C165 1.513 1_554 S
C1164 C288 1.699 . S
C1166 C679 1.761 . S
C1177 C713 1.476 . S
C1175 C333 1.590 . S
C1188 C749 0.797 . S
C1186 C316 0.795 . S
C1197 C123 1.602 . S
C1199 C633 1.482 . S
C1208 C137 1.648 . S
C1210 C433 1.506 . S
C1219 C330 1.625 . S
C1221 C799 1.687 . S
C1232 C818 0.303 . S
C1230 C302 0.413 . S
C1243 C360 2.519 1_565 S
C1241 C63 2.520 . S
C1254 C829 2.206 . S
C1252 C106 2.218 . S
C1263 C97 1.771 . S
C1265 C440 1.826 . S
C1274 C81 1.367 . S
C1276 C802 1.313 . S
C1287 C522 1.270 . S
C1285 C13 1.180 . S
C1296 C55 1.730 . S
C1298 C720 1.800 . S
C1309 C578 1.976 1_566 S
C1307 C35 1.902 . S
C1320 C880 2.600 . S
C1318 C21 2.602 . S
C1331 C338 2.120 . S
C1329 C147 2.163 . S
C1342 C833 0.735 . S
C1340 C321 0.740 . S
C1351 C119 1.295 . S
C1353 C418 1.302 . S
C1362 C293 1.506 . S
C1364 C800 1.588 . S
C1373 C153 1.545 . S
C1375 C520 1.623 . S
C1386 C698 0.931 . S
C1384 C315 0.932 . S
C1395 C125 0.918 1_545 S
C1397 C602 0.922 . S
C1406 C287 2.152 . S
C1408 C858 2.104 . S
C1417 C193 1.428 . S
C1419 C362 1.386 . S
C1428 C176 1.761 . S
C1430 C658 1.765 . S
C1439 C263 1.501 . S
C1441 C562 1.456 . S
C1450 C246 0.906 . S
C1452 C760 0.920 . S
C1463 C882 1.516 1_545 S
C1461 C277 1.522 . S
C1472 C221 1.544 . S
C1474 C442 1.488 . S
C1485 C458 1.704 . S
C1483 C260 1.701 . S
C1496 C399 0.479 . S
C1494 C204 0.577 . S
C1505 C83 2.468 . S
C1507 C909 2.423 . S
C1518 C840 2.186 . S
C1516 C92 2.115 . S
C1527 C105 1.737 . S
C1529 C949 1.745 . S
C1538 C67 1.383 . S
C1540 C793 1.288 . S
C1549 C53 1.275 . S
C1551 C673 1.195 . S
C1562 C709 1.794 . S
C1560 C8 1.694 . S
C1573 C759 2.056 . S
C1571 C22 1.965 . S
C1584 C869 2.436 . S
C1582 C39 2.441 . S
C1595 C919 2.016 . S
C1593 C265 2.032 . S
C1604 C189 0.797 . S
C1606 C842 0.798 . S
C1617 C959 1.284 . S
C1615 C209 1.178 . S
C1628 C789 1.473 . S
C1626 C217 1.468 . S
C1639 C669 1.481 . S
C1637 C259 1.476 . S
C1648 C195 0.846 . S
C1650 C719 0.897 . S
C1661 C753 0.987 . S
C1659 C203 1.050 . S
C1670 C223 2.031 . S
C1672 C879 2.015 . S
C1683 C913 1.358 . S
C1681 C319 1.514 . S
C1692 C134 1.696 . S
C1694 C519 1.762 . S
C1705 C553 1.468 . S
C1703 C151 1.593 . S
C1716 C589 0.807 . S
C1714 C162 0.803 . S
C1727 C873 1.486 . S
C1725 C305 1.602 . S
C1736 C291 1.645 . S
C1738 C953 1.512 . S
C1749 C479 1.686 . S
C1747 C148 1.620 . S
C1760 C378 0.301 . S
C1758 C120 0.407 . S
C1769 C91 2.517 . S
C1771 C920 2.518 . S
C1782 C389 2.206 . S
C1780 C78 2.218 . S
C1791 C69 1.770 . S
C1793 C960 1.826 . S
C1802 C109 1.367 . S
C1804 C482 1.313 . S
C1813 C41 1.180 . S
C1815 C682 1.270 . S
C1826 C560 1.800 . S
C1824 C27 1.730 . S
C1835 C7 1.901 . S
C1837 C738 1.976 . S
C1846 C49 2.605 . S
C1848 C640 2.598 . S
C1859 C898 2.120 . S
C1857 C329 2.162 . S
C1868 C167 0.737 . S
C1870 C393 0.731 . S
C1881 C938 1.306 1_655 S
C1879 C301 1.293 . S
C1890 C139 1.509 . S
C1892 C480 1.588 . S
C1901 C335 1.544 . S
C1903 C680 1.623 . S
C1914 C538 0.931 . S
C1912 C161 0.928 . S
C1923 C307 0.901 . S
C1925 C762 0.936 . S
C1936 C618 2.100 . S
C1934 C133 2.154 . S
C1947 C922 1.377 . S
C1945 C249 1.435 . S
C1958 C498 1.764 . S
C1956 C218 1.763 . S
C1967 C235 1.504 . S
C1969 C722 1.453 . S
C1980 C600 0.916 . S
C1978 C190 0.908 . S
C1989 C207 1.519 . S
C1991 C642 1.513 . S
C2000 C179 1.538 . S
C2002 C962 1.493 . S
C2013 C778 1.704 . S
C2011 C232 1.700 . S
C2024 C839 0.475 . S
C2022 C274 0.579 . S
