# Generated by pormake.
# Topology scu, (8,4)-cn, num edge types: 1
# Building blocks:
#     Node 0, Type 0, BuildingBlock: VETTIZ_charged_sbu_0, # of connection points: 8
#     Node 1, Type 1, BuildingBlock: ESEHIV_clean_sbu_0, # of connection points: 4
#     Node 2, Type 1, BuildingBlock: ESEHIV_clean_sbu_0, # of connection points: 4
#     Edge 3, Type (0, 1), BuildingBlock: UVAHIK_clean_linker_0, # of connection points: 2
#     Edge 4, Type (0, 1), BuildingBlock: UVAHIK_clean_linker_0, # of connection points: 2
#     Edge 5, Type (0, 1), BuildingBlock: UVAHIK_clean_linker_0, # of connection points: 2
#     Edge 6, Type (0, 1), BuildingBlock: UVAHIK_clean_linker_0, # of connection points: 2
#     Edge 7, Type (0, 1), BuildingBlock: UVAHIK_clean_linker_0, # of connection points: 2
#     Edge 8, Type (0, 1), BuildingBlock: UVAHIK_clean_linker_0, # of connection points: 2
#     Edge 9, Type (0, 1), BuildingBlock: UVAHIK_clean_linker_0, # of connection points: 2
#     Edge 10, Type (0, 1), BuildingBlock: UVAHIK_clean_linker_0, # of connection points: 2
# Relax obj value: 0.003
# Max RMSD: 0.097
# Mean RMSD: 0.073
data_MOF--net-scu--node1-VETTIZ_charged_sbu_0--node2-ESEHIV_clean_sbu_0--edge1-UVAHIK_clean_linker_0
_symmetry_space_group_name_H-M    P1
_symmetry_Int_Tables_number       1
_symmetry_cell_setting            triclinic
loop_
_symmetry_equiv_pos_as_xyz
'x, y, z'
_cell_length_a     33.056674
_cell_length_b     33.799054
_cell_length_c     25.162383
_cell_angle_alpha  93.259015
_cell_angle_beta   93.155485
_cell_angle_gamma 90.430301
loop_
_atom_site_label
_atom_site_type_symbol
_atom_site_fract_x
_atom_site_fract_y
_atom_site_fract_z
_atom_type_partial_charge
Fe0 Fe 1.01308 0.02163 0.06572 0.0
O1 O 1.01165 0.06027 0.00845 0.0
Fe2 Fe 0.04775 0.93598 1.00048 0.0
Fe3 Fe 0.97441 0.10506 0.00675 0.0
O4 O 1.01201 0.9816 0.0042 0.0
O5 O 1.01109 0.98138 0.99861 0.0
O6 O 1.01223 0.06031 0.00277 0.0
Fe7 Fe 1.01045 0.01999 0.94119 0.0
C8 C 0.9268 0.04654 0.07118 0.0
O9 O 1.01338 0.06983 0.12322 0.0
O10 O 1.01009 0.12455 0.07257 0.0
O11 O 0.07319 0.02042 0.9403 0.0
O12 O 0.08352 0.95564 0.94314 0.0
O13 O 0.08952 0.96013 0.05858 0.0
O14 O 0.07507 0.02444 0.07016 0.0
O15 O 1.0107 0.12353 0.94885 0.0
O16 O 1.01183 0.068 0.89031 0.0
C17 C 0.0992 0.99558 0.07522 0.0
O18 O 1.00678 0.97073 0.88502 0.0
O19 O 1.00868 0.91645 0.93752 0.0
O20 O 0.95135 0.01831 0.06389 0.0
O21 O 0.93513 0.08197 0.0598 0.0
C22 C 1.0165 0.10781 0.1173 0.0
C23 C 1.01825 0.10571 0.90329 0.0
C24 C 0.92538 0.04867 0.92827 0.0
O25 O 0.93646 0.0836 0.94418 0.0
O26 O 0.94773 0.01895 0.93683 0.0
C27 C 0.09451 0.98984 0.93056 0.0
O28 O 1.01429 0.91858 0.06205 0.0
O29 O 1.01475 0.97497 0.11815 0.0
C30 C 1.00046 0.93328 0.89298 0.0
C31 C 1.01061 0.93683 0.10824 0.0
Cu32 Cu 0.04292 0.52324 0.51554 0.0
N33 N 0.07436 0.49792 0.56737 0.0
N34 N 0.09248 0.44791 0.61794 0.0
C35 C 0.06383 0.46245 0.58438 0.0
C36 C 0.1221 0.47586 0.62308 0.0
C37 C 0.11089 0.50668 0.59162 0.0
O38 O 1.01623 0.47992 0.47243 0.0
C39 C 0.02776 0.59173 0.57162 0.0
O40 O 0.06749 0.59161 0.57152 0.0
H41 H 0.03565 0.44742 0.57165 0.0
H42 H 0.12851 0.53304 0.58601 0.0
N43 N 0.07293 0.55297 0.47073 0.0
N44 N 0.08374 0.60335 0.41926 0.0
C45 C 0.05587 0.58061 0.44054 0.0
C46 C 0.1132 0.55797 0.46808 0.0
C47 C 0.11997 0.58922 0.43638 0.0
C48 C 0.04181 0.45549 0.4538 0.0
O49 O 0.08058 0.46444 0.4607 0.0
H50 H 0.02355 0.58572 0.43745 0.0
H51 H 0.13597 0.54145 0.48964 0.0
O52 O 1.00801 0.56166 0.55072 0.0
H53 H 0.15035 0.47373 0.64655 0.0
H54 H 0.14918 0.60127 0.42784 0.0
Cu55 Cu 0.51231 0.98933 0.49454 0.0
N56 N 0.47636 0.95906 0.53109 0.0
N57 N 0.42536 0.94868 0.58413 0.0
C58 C 0.44499 0.97517 0.55621 0.0
C59 C 0.44536 0.91429 0.57564 0.0
C60 C 0.47674 0.92079 0.54304 0.0
O61 O 0.47757 0.02143 0.449 0.0
C62 C 0.57036 0.9899 0.57364 0.0
O63 O 0.56335 0.95221 0.56051 0.0
H64 H 0.43736 1.00613 0.55438 0.0
H65 H 0.49903 0.89944 0.53075 0.0
N66 N 0.54583 0.96089 0.44848 0.0
N67 N 0.59342 0.9532 0.38878 0.0
C68 C 0.57388 0.9789 0.4212 0.0
C69 C 0.54758 0.92218 0.43308 0.0
C70 C 0.57701 0.91734 0.39632 0.0
C71 C 0.45904 0.9995 0.41229 0.0
O72 O 0.46536 0.96115 0.4109 0.0
H73 H 0.57972 0.0105 0.4254 0.0
H74 H 0.52832 0.89923 0.44651 0.0
O75 O 0.54966 0.01546 0.54869 0.0
H76 H 0.43889 0.88658 0.59305 0.0
H77 H 0.58488 0.88969 0.37583 0.0
C78 C 1.00593 0.12883 0.21301 0.0
C79 C 0.02341 0.13556 0.16458 0.0
C80 C 1.00369 0.1598 0.25239 0.0
C81 C 0.99785 0.26808 0.26052 0.0
H82 H 0.02887 0.26444 0.41088 0.0
C83 C 0.99267 0.40797 0.40272 0.0
C84 C 0.02999 0.41557 0.43094 0.0
C85 C 0.98447 0.37049 0.37725 0.0
C86 C 0.01968 0.26574 0.36903 0.0
H87 H 0.05552 0.17861 0.12146 0.0
H88 H 0.05198 0.232 0.18986 0.0
H89 H 0.03221 0.20412 0.35237 0.0
H90 H 0.08661 0.38934 0.45811 0.0
H91 H 0.07234 0.3246 0.41432 0.0
H92 H 0.98677 0.32978 0.27631 0.0
C93 C 0.03908 0.20335 0.19704 0.0
C94 C 0.02148 0.23122 0.3357 0.0
C95 C 0.04141 0.17265 0.15809 0.0
C96 C 0.05781 0.38457 0.43588 0.0
C97 C 0.04942 0.34722 0.41134 0.0
C98 C 0.99572 0.3024 0.29379 0.0
C99 C 1.01878 0.19778 0.2436 0.0
C100 C 1.0119 0.23245 0.28079 0.0
C101 C 1.01313 0.33992 0.38066 0.0
C102 C 1.00783 0.30195 0.3481 0.0
H103 H 0.99154 0.10064 0.21891 0.0
H104 H 0.98816 0.15469 0.28821 0.0
H105 H 0.98961 0.26969 0.21843 0.0
H106 H 0.97065 0.43132 0.39857 0.0
H107 H 0.95612 0.36562 0.35402 0.0
C108 C 0.88016 0.99892 0.11102 0.0
C109 C 0.8887 0.03782 0.09734 0.0
C110 C 0.84596 0.99055 0.13878 0.0
C111 C 0.77287 0.03799 0.22768 0.0
H112 H 0.71383 0.93879 0.19888 0.0
C113 C 0.62825 1.0012 0.33536 0.0
C114 C 0.62454 0.96263 0.3531 0.0
C115 C 0.65886 0.01074 0.30193 0.0
C116 C 0.73022 0.96646 0.20775 0.0
H117 H 0.86704 0.09827 0.1013 0.0
H118 H 0.80688 0.08351 0.14928 0.0
H119 H 0.76891 0.95537 0.1432 0.0
H120 H 0.65044 0.90385 0.34891 0.0
H121 H 0.70372 0.92045 0.29034 0.0
H122 H 0.73419 0.04899 0.29232 0.0
C123 C 0.82715 0.05958 0.13909 0.0
C124 C 0.76181 0.97601 0.17579 0.0
C125 C 0.86151 0.06801 0.11123 0.0
C126 C 0.65201 0.93371 0.33573 0.0
C127 C 0.6826 0.94325 0.30208 0.0
C128 C 0.74117 0.02849 0.25953 0.0
C129 C 0.81914 0.02076 0.15363 0.0
C130 C 0.78383 0.01174 0.18561 0.0
C131 C 0.68655 0.98196 0.28502 0.0
C132 C 0.71964 0.99246 0.25023 0.0
H133 H 0.90034 0.97481 0.10122 0.0
H134 H 0.84123 0.96045 0.14991 0.0
H135 H 0.78951 0.06545 0.23702 0.0
H136 H 0.60725 0.02412 0.34678 0.0
H137 H 0.66054 0.04065 0.28881 0.0
C138 C 0.98175 0.87714 0.146 0.0
C139 C 1.00698 0.91081 0.15288 0.0
C140 C 0.98589 0.8465 0.18079 0.0
C141 C 0.03879 0.81555 0.30711 0.0
H142 H 0.03153 0.7121 0.2319 0.0
C143 C 0.10155 0.67136 0.39594 0.0
C144 C 0.07563 0.63804 0.38973 0.0
C145 C 0.092 0.70587 0.36975 0.0
C146 C 0.03336 0.74072 0.25363 0.0
H147 H 0.05483 0.93997 0.20301 0.0
H148 H 0.06297 0.88602 0.26327 0.0
H149 H 1.01467 0.77081 0.18438 0.0
H150 H 0.01993 0.61452 0.35042 0.0
H151 H 1.00348 0.67442 0.30429 0.0
H152 H 0.05879 0.78489 0.3761 0.0
C153 C 0.03929 0.88347 0.23175 0.0
C154 C 0.02339 0.77451 0.22648 0.0
C155 C 0.03457 0.91455 0.19736 0.0
C156 C 0.04036 0.63977 0.35616 0.0
C157 C 0.03107 0.67399 0.32955 0.0
C158 C 0.04919 0.78162 0.33421 0.0
C159 C 1.01611 0.84832 0.22255 0.0
C160 C 0.0257 0.81244 0.2528 0.0
C161 C 0.05663 0.70753 0.33625 0.0
C162 C 0.04641 0.74383 0.30775 0.0
H163 H 0.96018 0.87362 0.11199 0.0
H164 H 0.96653 0.82056 0.17341 0.0
H165 H 0.04069 0.84413 0.32887 0.0
H166 H 0.12869 0.67106 0.42202 0.0
H167 H 0.11244 0.73114 0.37534 0.0
C168 C 0.14499 0.03673 0.13999 0.0
C169 C 0.13877 1.00293 0.10508 0.0
C170 C 0.18116 0.04202 0.17139 0.0
C171 C 0.26779 0.98366 0.22422 0.0
H172 H 0.31705 0.08667 0.26257 0.0
C173 C 0.42586 0.99447 0.32187 0.0
C174 C 0.4293 0.0144 0.37245 0.0
C175 C 0.39213 0.99972 0.2875 0.0
C176 C 0.30338 0.05782 0.25236 0.0
H177 H 0.16656 0.94926 0.07383 0.0
H178 H 0.22997 0.95907 0.12686 0.0
H179 H 0.25488 0.08185 0.20442 0.0
H180 H 0.40169 0.05785 0.42525 0.0
H181 H 0.34201 0.06741 0.36419 0.0
H182 H 0.31661 0.95958 0.27091 0.0
C183 C 0.20644 0.98089 0.13163 0.0
C184 C 0.26775 0.05496 0.21919 0.0
C185 C 0.17012 0.97534 0.10083 0.0
C186 C 0.39989 0.04241 0.38627 0.0
C187 C 0.36576 0.0477 0.35151 0.0
C188 C 0.30342 0.9865 0.25657 0.0
C189 C 0.21218 0.01384 0.16825 0.0
C190 C 0.24971 0.01771 0.20421 0.0
C191 C 0.36087 0.02499 0.30285 0.0
C192 C 0.32186 0.02347 0.27055 0.0
H193 H 0.12137 0.05853 0.14441 0.0
H194 H 0.18418 0.06756 0.19935 0.0
H195 H 0.2543 0.9546 0.21521 0.0
H196 H 0.44827 0.97294 0.31002 0.0
H197 H 0.38947 0.98238 0.24988 0.0
C198 C 0.95623 0.87707 0.85752 0.0
C199 C 0.9848 0.90645 0.84814 0.0
C200 C 0.94706 0.84624 0.81938 0.0
C201 C 0.96555 0.8079 0.68016 0.0
H202 H 0.96383 0.70629 0.74443 0.0
C203 C 0.02655 0.66488 0.58366 0.0
C204 C 1.00784 0.6283 0.59097 0.0
C205 C 1.01191 0.69989 0.60699 0.0
C206 C 0.96328 0.73435 0.72564 0.0
H207 H 0.02459 0.92807 0.7906 0.0
H208 H 1.00978 0.87345 0.72428 0.0
H209 H 0.96031 0.76688 0.8004 0.0
H210 H 0.95797 0.59964 0.62631 0.0
H211 H 0.93256 0.66135 0.66878 0.0
H212 H 0.97108 0.77484 0.60565 0.0
C213 C 0.99358 0.87455 0.76056 0.0
C214 C 0.96125 0.7693 0.75778 0.0
C215 C 1.00219 0.90591 0.79853 0.0
C216 C 0.97288 0.62752 0.62012 0.0
C217 C 0.95853 0.66273 0.64448 0.0
C218 C 0.96792 0.77286 0.64805 0.0
C219 C 0.96697 0.84352 0.77135 0.0
C220 C 0.96341 0.80663 0.73572 0.0
C221 C 0.97845 0.69918 0.63893 0.0
C222 C 0.96793 0.73574 0.67068 0.0
H223 H 0.94211 0.8771 0.89538 0.0
H224 H 0.92554 0.82365 0.82855 0.0
H225 H 0.96648 0.83598 0.66156 0.0
H226 H 0.05338 0.66636 0.56091 0.0
H227 H 0.02824 0.72727 0.60236 0.0
C228 C 0.14232 0.02693 0.87484 0.0
C229 C 0.13112 0.99215 0.89887 0.0
C230 C 0.17449 0.02653 0.84041 0.0
C231 C 0.22577 0.95778 0.74964 0.0
H232 H 0.31783 0.02997 0.76325 0.0
C233 C 0.36959 0.92457 0.63681 0.0
C234 C 0.39162 0.95612 0.61778 0.0
C235 C 0.33737 0.93173 0.66975 0.0
C236 C 0.29203 0.00992 0.75822 0.0
H237 H 0.14659 0.93028 0.90732 0.0
H238 H 0.20147 0.92975 0.84751 0.0
H239 H 0.26231 0.03932 0.82315 0.0
H240 H 0.39623 0.02045 0.61977 0.0
H241 H 0.3395 0.03267 0.67518 0.0
H242 H 0.25463 0.9285 0.68472 0.0
C243 C 0.1853 0.95714 0.8547 0.0
C244 C 0.26029 0.01533 0.79266 0.0
C245 C 0.15379 0.9576 0.88923 0.0
C246 C 0.38013 0.99513 0.63273 0.0
C247 C 0.34767 1.00227 0.66536 0.0
C248 C 0.25711 0.95264 0.71494 0.0
C249 C 0.19555 0.99126 0.82905 0.0
C250 C 0.22726 0.98878 0.78938 0.0
C251 C 0.32579 0.97069 0.68437 0.0
C252 C 0.29115 0.97808 0.71936 0.0
H253 H 0.12559 0.05405 0.88136 0.0
H254 H 0.18193 0.05332 0.82121 0.0
H255 H 0.20035 0.9372 0.74568 0.0
H256 H 0.37697 0.89413 0.62625 0.0
H257 H 0.32183 0.90653 0.68425 0.0
C258 C 0.019 0.13301 0.81234 0.0
C259 C 0.03566 0.1314 0.8647 0.0
C260 C 0.03029 0.16376 0.78065 0.0
C261 C 0.06873 0.26658 0.79989 0.0
H262 H 0.08043 0.25985 0.64729 0.0
C263 C 0.11298 0.404 0.69013 0.0
C264 C 0.09151 0.40994 0.64153 0.0
C265 C 0.11 0.36787 0.7143 0.0
C266 C 0.07698 0.26224 0.68989 0.0
H267 H 0.07948 0.1581 0.92343 0.0
H268 H 0.10004 0.21054 0.86806 0.0
H269 H 0.06854 0.19938 0.69362 0.0
H270 H 0.05185 0.38146 0.57882 0.0
H271 H 0.04582 0.31913 0.62153 0.0
H272 H 0.07632 0.32917 0.79651 0.0
C273 C 0.07737 0.18922 0.85176 0.0
C274 C 0.07018 0.22758 0.71638 0.0
C275 C 0.06585 0.15899 0.88334 0.0
C276 C 0.06811 0.37835 0.61683 0.0
C277 C 0.06511 0.34227 0.64098 0.0
C278 C 0.07544 0.30106 0.77354 0.0
C279 C 0.05854 0.19307 0.80092 0.0
C280 C 0.06613 0.22935 0.77179 0.0
C281 C 0.08552 0.33673 0.69043 0.0
C282 C 0.0797 0.29944 0.71822 0.0
H283 H 0.99545 0.1122 0.79728 0.0
H284 H 1.01523 0.16587 0.74162 0.0
H285 H 0.06474 0.26925 0.84237 0.0
H286 H 0.13125 0.42762 0.71023 0.0
H287 H 0.12667 0.36444 0.75199 0.0
C288 C 0.87042 1.00597 0.87987 0.0
C289 C 0.88649 0.04368 0.89592 0.0
C290 C 0.83419 1.00219 0.84813 0.0
C291 C 0.7698 0.05579 0.75244 0.0
H292 H 0.68655 0.98082 0.78431 0.0
C293 C 0.61638 0.03972 0.62707 0.0
C294 C 0.6029 1.00052 0.61516 0.0
C295 C 0.64892 0.04782 0.66464 0.0
C296 C 0.70961 1.0017 0.77449 0.0
H297 H 0.87671 0.10696 0.89109 0.0
H298 H 0.81419 0.10017 0.83594 0.0
H299 H 0.74826 0.98763 0.84185 0.0
H300 H 0.61272 0.93927 0.63423 0.0
H301 H 0.66891 0.95316 0.69777 0.0
H302 H 0.7317 0.06915 0.68426 0.0
C303 C 0.82957 0.07358 0.84763 0.0
C304 C 0.745 1.00553 0.80753 0.0
C305 C 0.86538 0.07738 0.87963 0.0
C306 C 0.62211 0.9699 0.64221 0.0
C307 C 0.65433 0.9779 0.67931 0.0
C308 C 0.73453 0.05171 0.71904 0.0
C309 C 0.81358 0.03601 0.83134 0.0
C310 C 0.77566 0.03235 0.79664 0.0
C311 C 0.66839 0.01686 0.69103 0.0
C312 C 0.70417 0.02422 0.72923 0.0
H313 H 0.88586 0.97942 0.89158 0.0
H314 H 0.82271 0.97279 0.83587 0.0
H315 H 0.79303 0.07657 0.7428 0.0
H316 H 0.60224 0.06395 0.60693 0.0
H317 H 0.6588 0.07826 0.673 0.0
loop_
_geom_bond_atom_site_label_1
_geom_bond_atom_site_label_2
_geom_bond_distance
_geom_bond_site_symmetry_2
_ccdc_geom_bond_type
Fe0 O1 1.886 1_455 S
Fe0 O4 1.715 1_545 S
Fe0 O9 2.077 . S
Fe0 O14 1.935 . S
Fe0 O20 2.077 1_455 S
Fe0 O29 1.935 1_445 S
O1 Fe0 1.886 1_655 S
O1 Fe3 1.700 1_554 S
Fe2 O4 1.886 . S
Fe2 O5 1.715 1_554 S
Fe2 O12 1.935 1_554 S
Fe2 O13 2.077 . S
Fe2 O19 1.935 1_554 S
Fe2 O28 2.077 . S
Fe3 O1 1.700 1_556 S
Fe3 O6 1.900 . S
Fe3 O10 1.925 1_556 S
Fe3 O15 2.091 . S
Fe3 O21 1.924 1_556 S
Fe3 O25 2.090 . S
O4 Fe0 1.715 1_565 S
O4 Fe2 1.886 . S
O5 Fe2 1.715 1_556 S
O5 Fe7 1.881 1_565 S
O6 Fe3 1.900 . S
O6 Fe7 1.719 1_655 S
Fe7 O5 1.881 1_545 S
Fe7 O6 1.719 1_455 S
Fe7 O11 2.077 . S
Fe7 O16 1.943 . S
Fe7 O18 2.070 1_445 S
Fe7 O26 1.934 1_445 S
C8 O20 1.381 . S
C8 O21 1.421 . S
O9 Fe0 2.077 . S
O9 C22 1.381 1_455 S
O10 Fe3 1.925 1_554 S
O10 C22 1.421 . S
O11 Fe7 2.077 . S
O11 C27 1.381 1_545 S
O12 Fe2 1.935 1_556 S
O12 C27 1.421 . S
O13 Fe2 2.077 . S
O13 C17 1.381 . S
O14 Fe0 1.935 . S
O14 C17 1.421 1_545 S
O15 Fe3 2.091 . S
O15 C23 1.381 . S
O16 Fe7 1.943 . S
O16 C23 1.421 1_455 S
C17 O13 1.381 . S
C17 O14 1.421 1_565 S
O18 Fe7 2.070 1_665 S
O18 C30 1.381 1_655 S
O19 Fe2 1.935 1_556 S
O19 C30 1.421 . S
O20 Fe0 2.077 1_655 S
O20 C8 1.381 . S
O21 Fe3 1.924 1_554 S
O21 C8 1.421 . S
C22 O9 1.381 1_655 S
C22 O10 1.421 . S
C23 O15 1.381 . S
C23 O16 1.421 1_655 S
C24 O25 1.381 . S
C24 O26 1.421 1_545 S
O25 Fe3 2.090 . S
O25 C24 1.381 . S
O26 Fe7 1.934 1_665 S
O26 C24 1.421 1_565 S
C27 O11 1.381 1_565 S
C27 O12 1.421 . S
O28 Fe2 2.077 . S
O28 C31 1.381 . S
O29 Fe0 1.935 1_665 S
O29 C31 1.421 1_655 S
C30 O18 1.381 1_455 S
C30 O19 1.421 . S
C31 O28 1.381 . S
C31 O29 1.421 1_455 S
Cu32 N33 1.999 . S
Cu32 O38 1.974 . S
Cu32 N43 1.985 . S
Cu32 O52 1.959 . S
N33 Cu32 1.999 . S
N33 C35 1.263 . S
N33 C37 1.389 . S
N34 C35 1.358 . S
N34 C36 1.400 . S
C35 N33 1.263 . S
C35 N34 1.358 . S
C35 H41 0.930 1_655 S
C36 N34 1.400 . S
C36 C37 1.351 . S
C36 H53 0.930 . S
C37 N33 1.389 . S
C37 C36 1.351 . S
C37 H42 0.930 . S
O38 Cu32 1.974 . S
O38 C48 1.282 1_655 S
C39 O40 1.261 . S
C39 O52 1.251 1_455 S
O40 C39 1.261 . S
H41 C35 0.930 1_455 S
H42 C37 0.930 . S
N43 Cu32 1.985 . S
N43 C45 1.335 . S
N43 C46 1.390 1_655 S
N44 C45 1.345 . S
N44 C47 1.336 1_655 S
C45 N43 1.335 . S
C45 N44 1.345 . S
C45 H50 0.930 . S
C46 N43 1.390 1_455 S
C46 C47 1.346 . S
C46 H51 0.930 . S
C47 N44 1.336 1_455 S
C47 C46 1.346 . S
C47 H54 0.929 . S
C48 O38 1.282 1_455 S
C48 O49 1.216 . S
O49 C48 1.216 . S
H50 C45 0.930 . S
H51 C46 0.930 . S
O52 Cu32 1.959 . S
O52 C39 1.251 1_655 S
H53 C36 0.930 . S
H54 C47 0.929 . S
Cu55 N56 1.999 . S
Cu55 O61 1.974 . S
Cu55 N66 1.985 . S
Cu55 O75 1.959 . S
N56 Cu55 1.999 . S
N56 C58 1.263 . S
N56 C60 1.389 . S
N57 C58 1.358 . S
N57 C59 1.400 . S
C58 N56 1.263 . S
C58 N57 1.358 . S
C58 H64 0.930 1_545 S
C59 N57 1.400 . S
C59 C60 1.351 . S
C59 H76 0.930 . S
C60 N56 1.389 . S
C60 C59 1.351 . S
C60 H65 0.930 . S
O61 Cu55 1.974 . S
O61 C71 1.282 1_545 S
C62 O63 1.261 . S
C62 O75 1.251 1_565 S
O63 C62 1.261 . S
H64 C58 0.930 1_565 S
H65 C60 0.930 . S
N66 Cu55 1.985 . S
N66 C68 1.335 . S
N66 C69 1.390 1_545 S
N67 C68 1.345 . S
N67 C70 1.336 1_545 S
C68 N66 1.335 . S
C68 N67 1.345 . S
C68 H73 0.930 . S
C69 N66 1.390 1_565 S
C69 C70 1.346 . S
C69 H74 0.930 . S
C70 N67 1.336 1_565 S
C70 C69 1.346 . S
C70 H77 0.929 . S
C71 O61 1.282 1_565 S
C71 O72 1.216 . S
O72 C71 1.216 . S
H73 C68 0.930 . S
H74 C69 0.930 . S
O75 Cu55 1.959 . S
O75 C62 1.251 1_545 S
H76 C59 0.930 . S
H77 C70 0.929 . S
C78 C79 1.349 . S
C78 C80 1.327 . S
C78 H103 0.950 . S
C79 C78 1.349 . S
C79 C95 1.349 1_455 S
C80 C78 1.327 . S
C80 C99 1.429 . S
C80 H104 0.950 . S
C81 C98 1.574 . S
C81 C100 1.368 1_655 S
C81 H105 0.949 . S
H82 C86 0.949 . S
C83 C84 1.356 . S
C83 C85 1.328 1_455 S
C83 H106 0.942 1_455 S
C84 C83 1.356 . S
C84 C96 1.349 . S
C85 C83 1.328 1_655 S
C85 C101 1.427 1_655 S
C85 H107 0.951 . S
C86 H82 0.949 . S
C86 C94 1.574 . S
C86 C102 1.368 . S
H87 C95 0.950 . S
H88 C93 0.950 . S
H89 C94 0.949 . S
H90 C96 0.950 . S
H91 C97 0.950 . S
H92 C98 0.949 . S
C93 H88 0.950 . S
C93 C95 1.327 . S
C93 C99 1.429 1_655 S
C94 C86 1.574 . S
C94 H89 0.949 . S
C94 C100 1.368 . S
C95 C79 1.349 1_655 S
C95 H87 0.950 . S
C95 C93 1.327 . S
C96 C84 1.349 . S
C96 H90 0.950 . S
C96 C97 1.327 . S
C97 H91 0.950 . S
C97 C96 1.327 . S
C97 C101 1.429 . S
C98 C81 1.574 . S
C98 H92 0.949 . S
C98 C102 1.368 1_655 S
C99 C80 1.429 . S
C99 C93 1.429 1_455 S
C99 C100 1.523 . S
C100 C81 1.368 1_455 S
C100 C94 1.368 . S
C100 C99 1.523 . S
C101 C85 1.427 1_455 S
C101 C97 1.429 . S
C101 C102 1.523 . S
C102 C86 1.368 . S
C102 C98 1.368 1_455 S
C102 C101 1.523 . S
H103 C78 0.950 . S
H104 C80 0.950 . S
H105 C81 0.949 . S
H106 C83 0.942 1_655 S
H107 C85 0.951 . S
C108 C109 1.349 1_565 S
C108 C110 1.327 . S
C108 H133 0.950 . S
C109 C108 1.349 1_545 S
C109 C125 1.349 . S
C110 C108 1.327 . S
C110 C129 1.429 1_565 S
C110 H134 0.950 . S
C111 C128 1.574 . S
C111 C130 1.368 . S
C111 H135 0.949 . S
H112 C116 0.949 . S
C113 C114 1.349 . S
C113 C115 1.327 . S
C113 H136 0.950 . S
C114 C113 1.349 . S
C114 C126 1.349 1_545 S
C115 C113 1.327 . S
C115 C131 1.429 . S
C115 H137 0.950 . S
C116 H112 0.949 . S
C116 C124 1.574 . S
C116 C132 1.368 1_565 S
H117 C125 0.950 . S
H118 C123 0.950 . S
H119 C124 0.949 . S
H120 C126 0.950 . S
H121 C127 0.950 . S
H122 C128 0.949 . S
C123 H118 0.950 . S
C123 C125 1.327 . S
C123 C129 1.429 . S
C124 C116 1.574 . S
C124 H119 0.949 . S
C124 C130 1.368 1_565 S
C125 C109 1.349 . S
C125 H117 0.950 . S
C125 C123 1.327 . S
C126 C114 1.349 1_565 S
C126 H120 0.950 . S
C126 C127 1.327 . S
C127 H121 0.950 . S
C127 C126 1.327 . S
C127 C131 1.429 1_565 S
C128 C111 1.574 . S
C128 H122 0.949 . S
C128 C132 1.368 . S
C129 C110 1.429 1_545 S
C129 C123 1.429 . S
C129 C130 1.523 . S
C130 C111 1.368 . S
C130 C124 1.368 1_545 S
C130 C129 1.523 . S
C131 C115 1.429 . S
C131 C127 1.429 1_545 S
C131 C132 1.523 . S
C132 C116 1.368 1_545 S
C132 C128 1.368 . S
C132 C131 1.523 . S
H133 C108 0.950 . S
H134 C110 0.950 . S
H135 C111 0.949 . S
H136 C113 0.950 . S
H137 C115 0.950 . S
C138 C139 1.349 . S
C138 C140 1.327 . S
C138 H163 0.950 . S
C139 C138 1.349 . S
C139 C155 1.349 1_455 S
C140 C138 1.327 . S
C140 C159 1.429 . S
C140 H164 0.950 . S
C141 C158 1.574 . S
C141 C160 1.369 1_655 S
C141 H165 0.949 . S
H142 C146 0.949 . S
C143 C144 1.349 . S
C143 C145 1.327 . S
C143 H166 0.950 . S
C144 C143 1.349 . S
C144 C156 1.349 . S
C145 C143 1.327 . S
C145 C161 1.429 . S
C145 H167 0.950 . S
C146 H142 0.949 . S
C146 C154 1.574 . S
C146 C162 1.368 1_455 S
H147 C155 0.950 . S
H148 C153 0.950 . S
H149 C154 0.949 . S
H150 C156 0.950 1_455 S
H151 C157 0.950 1_455 S
H152 C158 0.949 . S
C153 H148 0.950 . S
C153 C155 1.327 . S
C153 C159 1.429 1_655 S
C154 C146 1.574 . S
C154 H149 0.949 . S
C154 C160 1.368 . S
C155 C139 1.349 1_655 S
C155 H147 0.950 . S
C155 C153 1.327 . S
C156 C144 1.349 . S
C156 H150 0.950 1_655 S
C156 C157 1.327 . S
C157 H151 0.950 1_655 S
C157 C156 1.327 . S
C157 C161 1.428 . S
C158 C141 1.574 . S
C158 H152 0.949 . S
C158 C162 1.368 . S
C159 C140 1.429 . S
C159 C153 1.429 1_455 S
C159 C160 1.523 . S
C160 C141 1.369 1_455 S
C160 C154 1.368 . S
C160 C159 1.523 . S
C161 C145 1.429 . S
C161 C157 1.428 . S
C161 C162 1.523 . S
C162 C146 1.368 1_655 S
C162 C158 1.368 . S
C162 C161 1.523 . S
H163 C138 0.950 . S
H164 C140 0.950 . S
H165 C141 0.949 . S
H166 C143 0.950 . S
H167 C145 0.950 . S
C168 C169 1.349 . S
C168 C170 1.327 . S
C168 H193 0.950 . S
C169 C168 1.349 . S
C169 C185 1.349 1_545 S
C170 C168 1.327 . S
C170 C189 1.429 . S
C170 H194 0.950 . S
C171 C188 1.574 . S
C171 C190 1.366 1_565 S
C171 H195 0.949 . S
H172 C176 0.949 . S
C173 C174 1.349 . S
C173 C175 1.327 . S
C173 H196 0.950 . S
C174 C173 1.349 . S
C174 C186 1.349 1_565 S
C175 C173 1.327 . S
C175 C191 1.429 . S
C175 H197 0.950 . S
C176 H172 0.949 . S
C176 C184 1.574 . S
C176 C192 1.368 1_545 S
H177 C185 0.950 . S
H178 C183 0.950 . S
H179 C184 0.949 . S
H180 C186 0.950 . S
H181 C187 0.950 . S
H182 C188 0.949 . S
C183 H178 0.950 . S
C183 C185 1.327 . S
C183 C189 1.429 1_565 S
C184 C176 1.574 . S
C184 H179 0.949 . S
C184 C190 1.371 . S
C185 C169 1.349 1_565 S
C185 H177 0.950 . S
C185 C183 1.327 . S
C186 C174 1.349 1_545 S
C186 H180 0.950 . S
C186 C187 1.327 . S
C187 H181 0.950 . S
C187 C186 1.327 . S
C187 C191 1.429 1_545 S
C188 C171 1.574 . S
C188 H182 0.949 . S
C188 C192 1.368 . S
C189 C170 1.429 . S
C189 C183 1.429 1_545 S
C189 C190 1.523 . S
C190 C171 1.366 1_545 S
C190 C184 1.371 . S
C190 C189 1.523 . S
C191 C175 1.429 . S
C191 C187 1.429 1_565 S
C191 C192 1.523 . S
C192 C176 1.368 1_565 S
C192 C188 1.368 . S
C192 C191 1.523 . S
H193 C168 0.950 . S
H194 C170 0.950 . S
H195 C171 0.949 . S
H196 C173 0.950 . S
H197 C175 0.950 . S
C198 C199 1.349 1_655 S
C198 C200 1.327 . S
C198 H223 0.950 . S
C199 C198 1.349 1_455 S
C199 C215 1.349 . S
C200 C198 1.327 . S
C200 C219 1.429 1_655 S
C200 H224 0.950 . S
C201 C218 1.574 . S
C201 C220 1.368 . S
C201 H225 0.949 . S
H202 C206 0.949 . S
C203 C204 1.349 . S
C203 C205 1.327 . S
C203 H226 0.950 . S
C204 C203 1.349 . S
C204 C216 1.349 1_455 S
C205 C203 1.327 . S
C205 C221 1.429 . S
C205 H227 0.950 . S
C206 H202 0.949 . S
C206 C214 1.574 . S
C206 C222 1.368 1_655 S
H207 C215 0.950 . S
H208 C213 0.950 . S
H209 C214 0.949 . S
H210 C216 0.950 . S
H211 C217 0.950 . S
H212 C218 0.949 . S
C213 H208 0.950 . S
C213 C215 1.327 . S
C213 C219 1.429 . S
C214 C206 1.574 . S
C214 H209 0.949 . S
C214 C220 1.368 1_655 S
C215 C199 1.349 . S
C215 H207 0.950 . S
C215 C213 1.327 . S
C216 C204 1.349 1_655 S
C216 H210 0.950 . S
C216 C217 1.327 . S
C217 H211 0.950 . S
C217 C216 1.327 . S
C217 C221 1.429 1_655 S
C218 C201 1.574 . S
C218 H212 0.949 . S
C218 C222 1.368 . S
C219 C200 1.429 1_455 S
C219 C213 1.429 . S
C219 C220 1.523 . S
C220 C201 1.368 . S
C220 C214 1.368 1_455 S
C220 C219 1.523 . S
C221 C205 1.429 . S
C221 C217 1.429 1_455 S
C221 C222 1.523 . S
C222 C206 1.368 1_455 S
C222 C218 1.368 . S
C222 C221 1.523 . S
H223 C198 0.950 . S
H224 C200 0.950 . S
H225 C201 0.949 . S
H226 C203 0.950 . S
H227 C205 0.950 . S
C228 C229 1.349 . S
C228 C230 1.327 . S
C228 H253 0.950 . S
C229 C228 1.349 . S
C229 C245 1.349 1_545 S
C230 C228 1.327 . S
C230 C249 1.429 . S
C230 H254 0.950 . S
C231 C248 1.574 . S
C231 C250 1.368 1_565 S
C231 H255 0.949 . S
H232 C236 0.949 . S
C233 C234 1.349 1_565 S
C233 C235 1.327 . S
C233 H256 0.950 . S
C234 C233 1.349 1_545 S
C234 C246 1.349 . S
C235 C233 1.327 . S
C235 C251 1.429 1_565 S
C235 H257 0.950 . S
C236 H232 0.949 . S
C236 C244 1.574 . S
C236 C252 1.368 . S
H237 C245 0.950 . S
H238 C243 0.950 . S
H239 C244 0.949 . S
H240 C246 0.950 . S
H241 C247 0.950 . S
H242 C248 0.949 . S
C243 H238 0.950 . S
C243 C245 1.327 . S
C243 C249 1.429 1_565 S
C244 C236 1.574 . S
C244 H239 0.949 . S
C244 C250 1.368 . S
C245 C229 1.349 1_565 S
C245 H237 0.950 . S
C245 C243 1.327 . S
C246 C234 1.349 . S
C246 H240 0.950 . S
C246 C247 1.327 . S
C247 H241 0.950 . S
C247 C246 1.327 . S
C247 C251 1.429 . S
C248 C231 1.574 . S
C248 H242 0.949 . S
C248 C252 1.368 1_565 S
C249 C230 1.429 . S
C249 C243 1.429 1_545 S
C249 C250 1.523 . S
C250 C231 1.368 1_545 S
C250 C244 1.368 . S
C250 C249 1.523 . S
C251 C235 1.429 1_545 S
C251 C247 1.429 . S
C251 C252 1.523 . S
C252 C236 1.368 . S
C252 C248 1.368 1_545 S
C252 C251 1.523 . S
H253 C228 0.950 . S
H254 C230 0.950 . S
H255 C231 0.949 . S
H256 C233 0.950 . S
H257 C235 0.950 . S
C258 C259 1.344 1_655 S
C258 C260 1.327 . S
C258 H283 0.950 . S
C259 C258 1.344 1_455 S
C259 C275 1.354 . S
C260 C258 1.327 . S
C260 C279 1.429 . S
C260 H284 0.950 . S
C261 C278 1.574 . S
C261 C280 1.368 1_455 S
C261 H285 0.949 . S
H262 C266 0.949 . S
C263 C264 1.349 1_455 S
C263 C265 1.327 . S
C263 H286 0.950 . S
C264 C263 1.349 1_655 S
C264 C276 1.349 . S
C265 C263 1.327 . S
C265 C281 1.429 1_455 S
C265 H287 0.950 . S
C266 H262 0.949 . S
C266 C274 1.574 . S
C266 C282 1.368 . S
H267 C275 0.950 . S
H268 C273 0.950 . S
H269 C274 0.949 . S
H270 C276 0.950 . S
H271 C277 0.950 . S
H272 C278 0.949 . S
C273 H268 0.950 . S
C273 C275 1.327 . S
C273 C279 1.429 1_455 S
C274 C266 1.574 . S
C274 H269 0.949 . S
C274 C280 1.368 . S
C275 C259 1.354 . S
C275 H267 0.950 . S
C275 C273 1.327 . S
C276 C264 1.349 . S
C276 H270 0.950 . S
C276 C277 1.327 . S
C277 H271 0.950 . S
C277 C276 1.327 . S
C277 C281 1.429 . S
C278 C261 1.574 . S
C278 H272 0.949 . S
C278 C282 1.368 1_455 S
C279 C260 1.429 . S
C279 C273 1.429 1_655 S
C279 C280 1.523 . S
C280 C261 1.368 1_655 S
C280 C274 1.368 . S
C280 C279 1.523 . S
C281 C265 1.429 1_655 S
C281 C277 1.429 . S
C281 C282 1.523 . S
C282 C266 1.368 . S
C282 C278 1.368 1_655 S
C282 C281 1.523 . S
H283 C258 0.950 . S
H284 C260 0.950 . S
H285 C261 0.949 . S
H286 C263 0.950 . S
H287 C265 0.950 . S
C288 C289 1.346 1_565 S
C288 C290 1.327 . S
C288 H313 0.950 . S
C289 C288 1.346 1_545 S
C289 C305 1.352 . S
C290 C288 1.327 . S
C290 C309 1.429 . S
C290 H314 0.950 . S
C291 C308 1.574 . S
C291 C310 1.368 1_545 S
C291 H315 0.949 . S
H292 C296 0.949 . S
C293 C294 1.349 1_545 S
C293 C295 1.327 . S
C293 H316 0.950 . S
C294 C293 1.349 1_565 S
C294 C306 1.349 . S
C295 C293 1.327 . S
C295 C311 1.429 1_545 S
C295 H317 0.950 . S
C296 H292 0.949 . S
C296 C304 1.574 . S
C296 C312 1.368 . S
H297 C305 0.950 . S
H298 C303 0.950 . S
H299 C304 0.949 . S
H300 C306 0.950 . S
H301 C307 0.950 . S
H302 C308 0.949 . S
C303 H298 0.950 . S
C303 C305 1.327 . S
C303 C309 1.429 1_545 S
C304 C296 1.574 . S
C304 H299 0.949 . S
C304 C310 1.368 . S
C305 C289 1.352 . S
C305 H297 0.950 . S
C305 C303 1.327 . S
C306 C294 1.349 . S
C306 H300 0.950 . S
C306 C307 1.327 . S
C307 H301 0.950 . S
C307 C306 1.327 . S
C307 C311 1.429 . S
C308 C291 1.574 . S
C308 H302 0.949 . S
C308 C312 1.368 1_545 S
C309 C290 1.429 . S
C309 C303 1.429 1_565 S
C309 C310 1.523 . S
C310 C291 1.368 1_565 S
C310 C304 1.368 . S
C310 C309 1.523 . S
C311 C295 1.429 1_565 S
C311 C307 1.429 . S
C311 C312 1.523 . S
C312 C296 1.368 . S
C312 C308 1.368 1_565 S
C312 C311 1.523 . S
H313 C288 0.950 . S
H314 C290 0.950 . S
H315 C291 0.949 . S
H316 C293 0.950 . S
H317 C295 0.950 . S
C79 C22 1.458 1_455 S
C84 C48 1.502 . S
C109 C8 1.349 . S
C114 N67 1.367 . S
C139 C31 1.357 . S
C144 N44 1.368 . S
C169 C17 1.451 1_545 S
C174 C71 1.505 . S
C199 C30 1.498 . S
C204 C39 1.559 . S
C229 C27 1.401 1_545 S
C234 N57 1.413 . S
C264 N34 1.409 . S
C259 C23 1.386 1_455 S
C289 C24 1.507 . S
C294 C62 1.557 . S
