# Generated by pormake.
# Topology ocu, (6,8)-cn, num edge types: 1
# Building blocks:
#     Node 0, Type 0, BuildingBlock: JUFBIX_clean_sbu_0, # of connection points: 6
#     Node 1, Type 0, BuildingBlock: JUFBIX_clean_sbu_0, # of connection points: 6
#     Node 2, Type 0, BuildingBlock: JUFBIX_clean_sbu_0, # of connection points: 6
#     Node 3, Type 0, BuildingBlock: JUFBIX_clean_sbu_0, # of connection points: 6
#     Node 4, Type 0, BuildingBlock: JUFBIX_clean_sbu_0, # of connection points: 6
#     Node 5, Type 0, BuildingBlock: JUFBIX_clean_sbu_0, # of connection points: 6
#     Node 6, Type 0, BuildingBlock: JUFBIX_clean_sbu_0, # of connection points: 6
#     Node 7, Type 0, BuildingBlock: JUFBIX_clean_sbu_0, # of connection points: 6
#     Node 8, Type 1, BuildingBlock: VETTIZ_charged_sbu_0, # of connection points: 8
#     Node 9, Type 1, BuildingBlock: VETTIZ_charged_sbu_0, # of connection points: 8
#     Node 10, Type 1, BuildingBlock: VETTIZ_charged_sbu_0, # of connection points: 8
#     Node 11, Type 1, BuildingBlock: VETTIZ_charged_sbu_0, # of connection points: 8
#     Node 12, Type 1, BuildingBlock: VETTIZ_charged_sbu_0, # of connection points: 8
#     Node 13, Type 1, BuildingBlock: VETTIZ_charged_sbu_0, # of connection points: 8
#     Edge 14, Type (0, 1), BuildingBlock: OJICUG_clean_linker_0, # of connection points: 2
#     Edge 15, Type (0, 1), BuildingBlock: OJICUG_clean_linker_0, # of connection points: 2
#     Edge 16, Type (0, 1), BuildingBlock: OJICUG_clean_linker_0, # of connection points: 2
#     Edge 17, Type (0, 1), BuildingBlock: OJICUG_clean_linker_0, # of connection points: 2
#     Edge 18, Type (0, 1), BuildingBlock: OJICUG_clean_linker_0, # of connection points: 2
#     Edge 19, Type (0, 1), BuildingBlock: OJICUG_clean_linker_0, # of connection points: 2
#     Edge 20, Type (0, 1), BuildingBlock: OJICUG_clean_linker_0, # of connection points: 2
#     Edge 21, Type (0, 1), BuildingBlock: OJICUG_clean_linker_0, # of connection points: 2
#     Edge 22, Type (0, 1), BuildingBlock: OJICUG_clean_linker_0, # of connection points: 2
#     Edge 23, Type (0, 1), BuildingBlock: OJICUG_clean_linker_0, # of connection points: 2
#     Edge 24, Type (0, 1), BuildingBlock: OJICUG_clean_linker_0, # of connection points: 2
#     Edge 25, Type (0, 1), BuildingBlock: OJICUG_clean_linker_0, # of connection points: 2
#     Edge 26, Type (0, 1), BuildingBlock: OJICUG_clean_linker_0, # of connection points: 2
#     Edge 27, Type (0, 1), BuildingBlock: OJICUG_clean_linker_0, # of connection points: 2
#     Edge 28, Type (0, 1), BuildingBlock: OJICUG_clean_linker_0, # of connection points: 2
#     Edge 29, Type (0, 1), BuildingBlock: OJICUG_clean_linker_0, # of connection points: 2
#     Edge 30, Type (0, 1), BuildingBlock: OJICUG_clean_linker_0, # of connection points: 2
#     Edge 31, Type (0, 1), BuildingBlock: OJICUG_clean_linker_0, # of connection points: 2
#     Edge 32, Type (0, 1), BuildingBlock: OJICUG_clean_linker_0, # of connection points: 2
#     Edge 33, Type (0, 1), BuildingBlock: OJICUG_clean_linker_0, # of connection points: 2
#     Edge 34, Type (0, 1), BuildingBlock: OJICUG_clean_linker_0, # of connection points: 2
#     Edge 35, Type (0, 1), BuildingBlock: OJICUG_clean_linker_0, # of connection points: 2
#     Edge 36, Type (0, 1), BuildingBlock: OJICUG_clean_linker_0, # of connection points: 2
#     Edge 37, Type (0, 1), BuildingBlock: OJICUG_clean_linker_0, # of connection points: 2
#     Edge 38, Type (0, 1), BuildingBlock: OJICUG_clean_linker_0, # of connection points: 2
#     Edge 39, Type (0, 1), BuildingBlock: OJICUG_clean_linker_0, # of connection points: 2
#     Edge 40, Type (0, 1), BuildingBlock: OJICUG_clean_linker_0, # of connection points: 2
#     Edge 41, Type (0, 1), BuildingBlock: OJICUG_clean_linker_0, # of connection points: 2
#     Edge 42, Type (0, 1), BuildingBlock: OJICUG_clean_linker_0, # of connection points: 2
#     Edge 43, Type (0, 1), BuildingBlock: OJICUG_clean_linker_0, # of connection points: 2
#     Edge 44, Type (0, 1), BuildingBlock: OJICUG_clean_linker_0, # of connection points: 2
#     Edge 45, Type (0, 1), BuildingBlock: OJICUG_clean_linker_0, # of connection points: 2
#     Edge 46, Type (0, 1), BuildingBlock: OJICUG_clean_linker_0, # of connection points: 2
#     Edge 47, Type (0, 1), BuildingBlock: OJICUG_clean_linker_0, # of connection points: 2
#     Edge 48, Type (0, 1), BuildingBlock: OJICUG_clean_linker_0, # of connection points: 2
#     Edge 49, Type (0, 1), BuildingBlock: OJICUG_clean_linker_0, # of connection points: 2
#     Edge 50, Type (0, 1), BuildingBlock: OJICUG_clean_linker_0, # of connection points: 2
#     Edge 51, Type (0, 1), BuildingBlock: OJICUG_clean_linker_0, # of connection points: 2
#     Edge 52, Type (0, 1), BuildingBlock: OJICUG_clean_linker_0, # of connection points: 2
#     Edge 53, Type (0, 1), BuildingBlock: OJICUG_clean_linker_0, # of connection points: 2
#     Edge 54, Type (0, 1), BuildingBlock: OJICUG_clean_linker_0, # of connection points: 2
#     Edge 55, Type (0, 1), BuildingBlock: OJICUG_clean_linker_0, # of connection points: 2
#     Edge 56, Type (0, 1), BuildingBlock: OJICUG_clean_linker_0, # of connection points: 2
#     Edge 57, Type (0, 1), BuildingBlock: OJICUG_clean_linker_0, # of connection points: 2
#     Edge 58, Type (0, 1), BuildingBlock: OJICUG_clean_linker_0, # of connection points: 2
#     Edge 59, Type (0, 1), BuildingBlock: OJICUG_clean_linker_0, # of connection points: 2
#     Edge 60, Type (0, 1), BuildingBlock: OJICUG_clean_linker_0, # of connection points: 2
#     Edge 61, Type (0, 1), BuildingBlock: OJICUG_clean_linker_0, # of connection points: 2
# Relax obj value: 0.193
# Max RMSD: 0.275
# Mean RMSD: 0.153
data_MOF--net-ocu--node1-JUFBIX_clean_sbu_0--node2-VETTIZ_charged_sbu_0--edge1-OJICUG_clean_linker_0
_symmetry_space_group_name_H-M    P1
_symmetry_Int_Tables_number       1
_symmetry_cell_setting            triclinic
loop_
_symmetry_equiv_pos_as_xyz
'x, y, z'
_cell_length_a     26.791123
_cell_length_b     29.773924
_cell_length_c     27.668759
_cell_angle_alpha  94.421522
_cell_angle_beta   92.684492
_cell_angle_gamma 89.449194
loop_
_atom_site_label
_atom_site_type_symbol
_atom_site_fract_x
_atom_site_fract_y
_atom_site_fract_z
_atom_type_partial_charge
Co0 Co 0.26881 0.22726 0.2723 0.0
C1 C 0.248 0.28981 0.34925 0.0
Co2 Co 0.32567 0.279 0.28751 0.0
C3 C 0.21263 0.15518 0.29793 0.0
C4 C 0.19572 0.16551 0.22341 0.0
N5 N 0.22344 0.18161 0.26298 0.0
N6 N 0.18029 0.12273 0.28208 0.0
C7 C 0.16837 0.1291 0.23539 0.0
H8 H 0.22794 0.15976 0.33489 0.0
H9 H 0.19572 0.17908 0.18825 0.0
C10 C 0.34703 0.21668 0.21121 0.0
N11 N 0.37252 0.3235 0.29598 0.0
C12 C 0.39952 0.33606 0.25982 0.0
C13 C 0.39044 0.34804 0.33603 0.0
N14 N 0.43416 0.36657 0.27526 0.0
C15 C 0.42808 0.37553 0.32304 0.0
C16 C 0.34822 0.20723 0.34021 0.0
O17 O 0.30447 0.20112 0.21905 0.0
O18 O 0.3638 0.24978 0.2382 0.0
O19 O 0.3624 0.24677 0.33416 0.0
O20 O 0.30929 0.19228 0.3163 0.0
O21 O 0.28805 0.30749 0.33713 0.0
H22 H 0.37688 0.34624 0.37205 0.0
H23 H 0.39271 0.32436 0.22207 0.0
O24 O 0.23248 0.25377 0.32586 0.0
O25 O 0.22959 0.26146 0.2291 0.0
O26 O 0.2885 0.31215 0.23937 0.0
C27 C 0.24711 0.29869 0.2186 0.0
H28 H 0.14267 0.1087 0.21187 0.0
H29 H 0.44858 0.40052 0.34634 0.0
Co30 Co 0.83218 0.25137 0.25821 0.0
C31 C 0.84551 0.31615 0.33758 0.0
Co32 Co 0.76996 0.25833 0.3067 0.0
C33 C 0.91122 0.28751 0.2108 0.0
C34 C 0.90527 0.21705 0.19025 0.0
N35 N 0.88548 0.25068 0.219 0.0
N36 N 0.94604 0.27875 0.17813 0.0
C37 C 0.942 0.23464 0.164 0.0
H38 H 0.90146 0.32122 0.2249 0.0
H39 H 0.89194 0.18273 0.18649 0.0
C40 C 0.75699 0.19443 0.22453 0.0
N41 N 0.71715 0.25747 0.34707 0.0
C42 C 0.68889 0.22072 0.34925 0.0
C43 C 0.70545 0.2848 0.38627 0.0
N44 N 0.66067 0.22341 0.38796 0.0
C45 C 0.67112 0.26334 0.41217 0.0
C46 C 0.75745 0.31482 0.23294 0.0
O47 O 0.80172 0.20443 0.21717 0.0
O48 O 0.73651 0.21391 0.26107 0.0
O49 O 0.73845 0.30477 0.272 0.0
O50 O 0.79781 0.29511 0.22016 0.0
O51 O 0.80366 0.30293 0.35067 0.0
H52 H 0.72369 0.31635 0.39768 0.0
H53 H 0.69303 0.18989 0.32639 0.0
O54 O 0.86264 0.29835 0.2987 0.0
O55 O 0.86626 0.20888 0.29627 0.0
O56 O 0.80191 0.21175 0.34215 0.0
C57 C 0.84523 0.19636 0.33309 0.0
H58 H 0.96156 0.21732 0.13461 0.0
H59 H 0.65768 0.27462 0.44739 0.0
Co60 Co 0.7887 0.71164 0.32104 0.0
C61 C 0.85746 0.77533 0.35727 0.0
Co62 Co 0.80061 0.7615 0.26948 0.0
C63 C 0.78839 0.62273 0.34832 0.0
C64 C 0.77395 0.6695 0.40865 0.0
N65 N 0.77874 0.66636 0.36043 0.0
N66 N 0.7962 0.59897 0.38753 0.0
C67 C 0.78438 0.62807 0.42541 0.0
H68 H 0.79657 0.61021 0.31182 0.0
H69 H 0.7698 0.70079 0.43074 0.0
C70 C 0.7357 0.69487 0.23116 0.0
N71 N 0.80972 0.80761 0.23146 0.0
C72 C 0.77182 0.83284 0.21531 0.0
C73 C 0.85126 0.83193 0.22699 0.0
N74 N 0.78725 0.87312 0.20336 0.0
C75 C 0.83746 0.87249 0.20945 0.0
C76 C 0.86564 0.68981 0.25317 0.0
O77 O 0.74266 0.68243 0.2739 0.0
O78 O 0.75468 0.73192 0.22119 0.0
O79 O 0.85415 0.72828 0.23892 0.0
O80 O 0.84281 0.67653 0.28896 0.0
O81 O 0.84672 0.78959 0.31605 0.0
H82 H 0.88846 0.82252 0.2396 0.0
H83 H 0.73317 0.82263 0.21517 0.0
O84 O 0.83632 0.73978 0.36841 0.0
O85 O 0.73564 0.74716 0.35303 0.0
O86 O 0.74652 0.79662 0.30076 0.0
C87 C 0.72477 0.78558 0.33797 0.0
H88 H 0.79113 0.62237 0.46334 0.0
H89 H 0.86209 0.90014 0.20429 0.0
Co90 Co 0.27647 0.78182 0.28599 0.0
C91 C 0.33522 0.79962 0.36812 0.0
Co92 Co 0.33393 0.73146 0.29502 0.0
C93 C 0.19266 0.83854 0.29912 0.0
C94 C 0.22632 0.84875 0.23249 0.0
N95 N 0.22929 0.82346 0.27108 0.0
N96 N 0.16834 0.87372 0.28118 0.0
C97 C 0.18949 0.88071 0.23939 0.0
H98 H 0.18831 0.82805 0.33533 0.0
H99 H 0.25168 0.84645 0.20311 0.0
C100 C 0.27352 0.71147 0.21558 0.0
N101 N 0.38141 0.68998 0.30904 0.0
C102 C 0.43092 0.69669 0.31068 0.0
C103 C 0.37571 0.64617 0.31565 0.0
N104 N 0.45695 0.65783 0.31149 0.0
C105 C 0.42204 0.6265 0.31798 0.0
C106 C 0.24324 0.71213 0.34137 0.0
O107 O 0.25537 0.74947 0.22853 0.0
O108 O 0.3102 0.69604 0.24002 0.0
O109 O 0.28832 0.70044 0.3344 0.0
O110 O 0.22767 0.7478 0.3223 0.0
O111 O 0.35704 0.76512 0.34984 0.0
H112 H 0.34033 0.62881 0.31397 0.0
H113 H 0.44743 0.72855 0.30409 0.0
O114 O 0.29723 0.81525 0.34547 0.0
O115 O 0.32459 0.81542 0.25092 0.0
O116 O 0.38098 0.76294 0.25392 0.0
C117 C 0.36773 0.80114 0.23938 0.0
H118 H 0.1824 0.90946 0.21831 0.0
H119 H 0.42834 0.59042 0.31556 0.0
Co120 Co 0.33155 0.75371 0.75783 0.0
C121 C 0.34435 0.81927 0.83788 0.0
Co122 Co 0.26952 0.76037 0.80677 0.0
C123 C 0.39445 0.79183 0.6945 0.0
C124 C 0.4232 0.72695 0.70932 0.0
N125 N 0.38396 0.75502 0.71717 0.0
N126 N 0.43801 0.7883 0.67286 0.0
C127 C 0.45724 0.74791 0.68255 0.0
H128 H 0.37327 0.82293 0.69767 0.0
H129 H 0.42839 0.69481 0.72467 0.0
C130 C 0.25744 0.69414 0.72861 0.0
N131 N 0.21705 0.7607 0.84694 0.0
C132 C 0.19122 0.72389 0.85503 0.0
C133 C 0.19806 0.79409 0.87657 0.0
N134 N 0.15714 0.73243 0.88847 0.0
C135 C 0.16175 0.77638 0.9032 0.0
C136 C 0.25328 0.81376 0.73135 0.0
O137 O 0.2998 0.70675 0.71602 0.0
O138 O 0.23917 0.71311 0.76646 0.0
O139 O 0.23384 0.80275 0.76956 0.0
O140 O 0.29578 0.79745 0.72113 0.0
O141 O 0.30061 0.80743 0.847 0.0
H142 H 0.21167 0.82832 0.88061 0.0
H143 H 0.20046 0.69027 0.84023 0.0
O144 O 0.36419 0.80094 0.80025 0.0
O145 O 0.36556 0.70968 0.79436 0.0
O146 O 0.3047 0.71687 0.84455 0.0
C147 C 0.3461 0.69863 0.83274 0.0
H148 H 0.49399 0.73566 0.67321 0.0
H149 H 0.14287 0.79345 0.93318 0.0
Co150 Co 0.30067 0.24876 0.79581 0.0
C151 C 0.36576 0.31526 0.83414 0.0
Co152 Co 0.31276 0.29853 0.74422 0.0
C153 C 0.32929 0.1773 0.84976 0.0
C154 C 0.24986 0.1782 0.83796 0.0
N155 N 0.29139 0.20263 0.83379 0.0
N156 N 0.31388 0.13683 0.86116 0.0
C157 C 0.26368 0.13744 0.85505 0.0
H158 H 0.36794 0.18753 0.85003 0.0
H159 H 0.21269 0.18763 0.82531 0.0
C160 C 0.24372 0.23504 0.70796 0.0
N161 N 0.3229 0.3438 0.70491 0.0
C162 C 0.3137 0.38748 0.71719 0.0
C163 C 0.32763 0.34076 0.65668 0.0
N164 N 0.30615 0.41144 0.6781 0.0
C165 C 0.31763 0.38234 0.6401 0.0
C166 C 0.37667 0.22455 0.72744 0.0
O167 O 0.25451 0.22072 0.74914 0.0
O168 O 0.26498 0.27054 0.69682 0.0
O169 O 0.36575 0.26289 0.71223 0.0
O170 O 0.35483 0.21358 0.76462 0.0
O171 O 0.35891 0.32759 0.79136 0.0
H172 H 0.33148 0.30949 0.63448 0.0
H173 H 0.30567 0.39997 0.75374 0.0
O174 O 0.34661 0.27831 0.8442 0.0
O175 O 0.24718 0.28205 0.82633 0.0
O176 O 0.2588 0.33382 0.77638 0.0
C177 C 0.23592 0.32061 0.81218 0.0
H178 H 0.23911 0.10965 0.85982 0.0
H179 H 0.31094 0.38822 0.6022 0.0
Co180 Co 0.76921 0.28048 0.77084 0.0
C181 C 0.82926 0.3003 0.8505 0.0
Co182 Co 0.82651 0.23003 0.78002 0.0
C183 C 0.6724 0.31516 0.75424 0.0
C184 C 0.72761 0.36585 0.75023 0.0
N185 N 0.72189 0.322 0.75658 0.0
N186 N 0.64628 0.35396 0.7532 0.0
C187 C 0.68125 0.38542 0.74735 0.0
H188 H 0.65586 0.28322 0.76045 0.0
H189 H 0.76297 0.38328 0.7524 0.0
C190 C 0.76822 0.21239 0.69772 0.0
N191 N 0.87347 0.18829 0.79517 0.0
C192 C 0.90977 0.17266 0.76703 0.0
C193 C 0.87615 0.16309 0.83384 0.0
N194 N 0.93351 0.13717 0.78493 0.0
C195 C 0.9124 0.1306 0.82686 0.0
C196 C 0.73492 0.2108 0.82611 0.0
O197 O 0.74633 0.24687 0.71594 0.0
O198 O 0.80606 0.19669 0.72052 0.0
O199 O 0.77811 0.19648 0.81476 0.0
O200 O 0.72186 0.24908 0.81166 0.0
O201 O 0.84734 0.26227 0.83756 0.0
H202 H 0.85083 0.16576 0.86326 0.0
H203 H 0.91411 0.18295 0.73073 0.0
O204 O 0.79276 0.31588 0.82594 0.0
O205 O 0.81504 0.31139 0.73169 0.0
O206 O 0.87559 0.26396 0.74398 0.0
C207 C 0.86011 0.29962 0.72482 0.0
H208 H 0.67484 0.42149 0.74979 0.0
H209 H 0.91902 0.1018 0.84795 0.0
Co210 Co 0.77786 0.73204 0.77859 0.0
C211 C 0.75606 0.7943 0.85478 0.0
Co212 Co 0.83465 0.7838 0.79411 0.0
C213 C 0.70345 0.67504 0.80552 0.0
C214 C 0.71372 0.66289 0.72952 0.0
N215 N 0.73107 0.6875 0.76976 0.0
N216 N 0.66899 0.6445 0.78964 0.0
C217 C 0.67582 0.63544 0.74201 0.0
H218 H 0.70971 0.68679 0.84333 0.0
H219 H 0.72784 0.66459 0.69373 0.0
C220 C 0.8558 0.72137 0.71715 0.0
N221 N 0.87983 0.82954 0.80358 0.0
C222 C 0.89113 0.85544 0.76834 0.0
C223 C 0.90604 0.84688 0.84356 0.0
N224 N 0.92222 0.8888 0.78437 0.0
C225 C 0.93288 0.88361 0.83155 0.0
C226 C 0.85618 0.71239 0.84779 0.0
O227 O 0.81571 0.70367 0.72912 0.0
O228 O 0.87129 0.75734 0.7407 0.0
O229 O 0.87371 0.74968 0.83745 0.0
O230 O 0.81489 0.69889 0.82684 0.0
O231 O 0.79866 0.80989 0.84715 0.0
H232 H 0.90501 0.83418 0.87909 0.0
H233 H 0.87661 0.85015 0.73115 0.0
O234 O 0.73947 0.76116 0.82775 0.0
O235 O 0.74132 0.76427 0.73186 0.0
O236 O 0.7944 0.81873 0.74999 0.0
C237 C 0.75557 0.80381 0.72591 0.0
H238 H 0.65568 0.61037 0.71849 0.0
H239 H 0.95707 0.90518 0.85543 0.0
Fe240 Fe 1.0479 0.05655 0.52478 0.0
O241 O 1.00393 1.00284 0.50964 0.0
Fe242 Fe 0.16593 0.00952 0.53906 0.0
Fe243 Fe 0.93315 1.00158 0.52668 0.0
O244 O 0.0953 0.01253 0.55344 0.0
O245 O 0.09513 0.00843 0.55565 0.0
O246 O 1.00374 0.99874 0.51194 0.0
Fe247 Fe 0.0512 0.95474 0.54054 0.0
C248 C 0.97599 0.06806 0.604 0.0
O249 O 0.99091 0.09567 0.49158 0.0
O250 O 0.92583 0.04584 0.47286 0.0
O251 O 0.07874 0.94442 0.47443 0.0
O252 O 0.16024 0.95369 0.49062 0.0
O253 O 0.1571 0.04879 0.48116 0.0
O254 O 0.07655 0.04593 0.45812 0.0
O255 O 0.93197 0.94205 0.48365 0.0
O256 O 0.99854 0.90337 0.51776 0.0
C257 C 0.12201 0.04937 0.44854 0.0
O258 O 0.10794 0.9155 0.57367 0.0
O259 O 0.17291 0.96526 0.59294 0.0
O260 O 1.02039 0.06678 0.59083 0.0
O261 O 0.93886 0.05738 0.57518 0.0
C262 C 0.94864 0.08357 0.46872 0.0
C263 C 0.95815 0.90572 0.48949 0.0
C264 C 0.97753 0.962 0.61709 0.0
O265 O 0.94227 0.96231 0.58464 0.0
O266 O 1.02285 0.96552 0.60722 0.0
C267 C 0.12327 0.94302 0.46158 0.0
O268 O 0.16707 0.06907 0.58205 0.0
O269 O 0.10065 0.1079 0.54782 0.0
C270 C 0.15001 0.92752 0.59684 0.0
C271 C 0.14102 0.10546 0.57615 0.0
Fe272 Fe 0.55548 0.95321 0.04042 0.0
O273 O 0.58567 0.99967 1.00041 0.0
Fe274 Fe 0.44357 1.00346 0.06933 0.0
Fe275 Fe 0.6582 0.00816 0.9947 0.0
O276 O 0.51565 0.00625 0.06461 0.0
O277 O 0.51614 0.01191 0.06374 0.0
O278 O 0.58615 1.00531 0.99954 0.0
Fe279 Fe 0.54625 0.05833 1.02362 0.0
C280 C 0.65484 0.97025 0.09315 0.0
O281 O 0.6048 0.90506 1.00767 0.0
O282 O 0.64992 0.94652 0.95697 0.0
O283 O 0.49417 0.0433 0.96775 0.0
O284 O 0.42642 0.03885 1.01111 0.0
O285 O 0.43478 0.94477 1.02433 0.0
O286 O 0.50418 0.93692 0.98361 0.0
O287 O 0.64019 0.04879 0.93928 0.0
O288 O 0.58699 0.10031 0.97574 0.0
C289 C 0.45766 0.93009 0.9869 0.0
O290 O 0.4969 0.10648 0.05643 0.0
O291 O 0.45192 0.06499 0.10722 0.0
O292 O 0.60761 0.96797 0.0963 0.0
O293 O 0.67548 0.97303 0.05312 0.0
C294 C 0.63573 0.909 0.97296 0.0
C295 C 0.6208 0.08889 0.94343 0.0
C296 C 0.64404 0.08198 0.07672 0.0
O297 O 0.66692 0.06699 0.03942 0.0
O298 O 0.59761 0.07488 0.08028 0.0
C299 C 0.44696 0.04085 0.97093 0.0
O300 O 0.4614 0.96269 0.12465 0.0
O301 O 0.51467 0.9112 0.08826 0.0
C302 C 0.46613 0.10252 0.09128 0.0
C303 C 0.48087 0.92263 0.12059 0.0
Fe304 Fe 0.05201 0.55901 0.03751 0.0
O305 O 1.00557 0.50948 1.01382 0.0
Fe306 Fe 0.16781 0.5025 0.03778 0.0
Fe307 Fe 0.93536 0.50836 1.02842 0.0
O308 O 0.09624 0.50721 0.05666 0.0
O309 O 0.09762 0.50145 0.05245 0.0
O310 O 1.00694 0.50372 1.00963 0.0
Fe311 Fe 1.05115 0.45193 1.02879 0.0
C312 C 0.97426 0.57339 0.11521 0.0
O313 O 0.99951 0.60583 1.00812 0.0
O314 O 0.93122 0.56119 0.98535 0.0
O315 O 0.08249 0.44081 0.96053 0.0
O316 O 0.16265 0.45533 0.97952 0.0
O317 O 0.16214 0.55397 0.99255 0.0
O318 O 0.08228 0.55218 0.97103 0.0
O319 O 0.93191 0.45864 0.97503 0.0
O320 O 0.99319 0.4084 0.99885 0.0
C321 C 0.1254 0.56756 0.96685 0.0
O322 O 0.10363 0.40509 0.05818 0.0
O323 O 0.17195 0.4497 0.08088 0.0
O324 O 1.02057 0.57013 0.10576 0.0
O325 O 0.94044 0.55548 0.08665 0.0
C326 C 0.95616 0.59815 0.98491 0.0
C327 C 0.95331 0.41945 0.97295 0.0
C328 C 0.97779 0.44335 0.09941 0.0
O329 O 0.94106 0.45686 0.07365 0.0
O330 O 1.0209 0.45879 0.09527 0.0
C331 C 0.12876 0.43748 0.951 0.0
O332 O 0.17134 0.55227 0.09114 0.0
O333 O 0.11002 0.60252 0.06745 0.0
C334 C 0.14699 0.41276 0.08137 0.0
C335 C 0.15002 0.5915 0.09321 0.0
Fe336 Fe 0.53656 0.5084 0.97864 0.0
O337 O 0.58839 0.47741 1.01922 0.0
Fe338 Fe 0.44164 0.53276 0.05672 0.0
Fe339 Fe 0.66017 0.47821 1.00759 0.0
O340 O 0.51204 0.53428 0.04106 0.0
O341 O 0.51335 0.53352 0.04496 0.0
O342 O 0.58974 0.4767 1.02314 0.0
Fe343 Fe 0.5653 0.50271 0.08554 0.0
C344 C 0.59843 0.44345 0.91623 0.0
O345 O 0.58189 0.56265 0.97556 0.0
O346 O 0.65231 0.52621 0.95886 0.0
O347 O 0.53443 0.53413 0.14536 0.0
O348 O 0.46798 0.57596 0.1155 0.0
O349 O 0.43404 0.57862 1.00432 0.0
O350 O 0.47945 0.54509 0.94265 0.0
O351 O 0.68135 0.5274 0.0641 0.0
O352 O 0.60908 0.55864 0.08473 0.0
C353 C 0.44673 0.57441 0.95946 0.0
O354 O 0.52009 0.44841 0.08881 0.0
O355 O 0.44962 0.48478 0.10553 0.0
O356 O 0.5675 0.47706 0.91881 0.0
O357 O 0.63385 0.4351 0.9487 0.0
C358 C 0.62147 0.55808 0.95228 0.0
C359 C 0.6563 0.5594 0.08541 0.0
C360 C 0.65533 0.43696 0.10494 0.0
O361 O 0.66773 0.43237 0.06 0.0
O362 O 0.62257 0.4663 0.1216 0.0
C363 C 0.50346 0.56771 0.14793 0.0
O364 O 0.42041 0.48347 1.00032 0.0
O365 O 0.49266 0.45249 0.97917 0.0
C366 C 0.4805 0.45294 0.1121 0.0
C367 C 0.44546 0.45155 0.97885 0.0
Fe368 Fe 0.05153 0.45285 0.53635 0.0
O369 O 1.0201 0.5073 0.56973 0.0
Fe370 Fe 0.07883 0.49161 0.42447 0.0
Fe371 Fe 1.02413 0.51971 0.64111 0.0
O372 O 0.07986 0.49856 0.49526 0.0
O373 O 0.08288 0.504 0.49585 0.0
O374 O 1.02313 0.51275 0.57032 0.0
Fe375 Fe 0.05161 0.55847 0.52933 0.0
C376 C 0.98401 0.42287 0.62059 0.0
O377 O 0.11391 0.46293 0.57975 0.0
O378 O 0.0826 0.47586 0.65233 0.0
O379 O 0.08696 0.59967 0.4787 0.0
O380 O 0.12619 0.54717 0.42766 0.0
O381 O 0.1309 0.44279 0.43858 0.0
O382 O 0.09199 0.40276 0.49493 0.0
O383 O 0.07579 0.57106 0.64515 0.0
O384 O 0.11411 0.56885 0.57516 0.0
C385 C 0.12556 0.40749 0.46271 0.0
O386 O 0.9892 0.54861 0.48593 0.0
O387 O 1.02034 0.53545 0.41329 0.0
O388 O 1.0163 0.41167 0.58707 0.0
O389 O 0.97682 0.46419 0.63789 0.0
C390 C 0.11955 0.47063 0.62522 0.0
C391 C 0.11349 0.57901 0.62071 0.0
C392 C 0.97766 0.60391 0.60298 0.0
O393 O 0.97212 0.56855 0.62697 0.0
O394 O 1.0113 0.60861 0.57083 0.0
C395 C 0.11916 0.58848 0.44509 0.0
O396 O 1.02712 0.44024 0.42045 0.0
O397 O 0.98905 0.44218 0.49057 0.0
C398 C 0.98346 0.5408 0.44047 0.0
C399 C 0.98964 0.4319 0.44504 0.0
Fe400 Fe 0.55177 0.95362 0.53958 0.0
O401 O 0.59023 0.00774 0.56738 0.0
Fe402 Fe 0.50765 0.98811 0.42733 0.0
Fe403 Fe 0.59603 0.02301 0.6395 0.0
O404 O 0.51799 0.99773 0.49751 0.0
O405 O 0.51391 1.00344 0.49926 0.0
O406 O 0.58597 0.01358 0.56923 0.0
Fe407 Fe 0.55197 0.05772 0.52726 0.0
C408 C 0.5083 0.95932 0.63175 0.0
O409 O 0.59476 0.91513 0.5891 0.0
O410 O 0.64398 0.96866 0.63288 0.0
O411 O 0.60432 0.04117 0.47768 0.0
O412 O 0.55882 0.03476 0.40989 0.0
O413 O 0.56044 0.93619 0.41936 0.0
O414 O 0.6049 0.93251 0.48899 0.0
O415 O 0.6439 0.07026 0.61978 0.0
O416 O 0.60124 0.10701 0.55954 0.0
C417 C 0.59761 0.92082 0.44368 0.0
O418 O 0.50908 0.09626 0.47768 0.0
O419 O 0.46001 0.04272 0.43379 0.0
O420 O 0.49991 0.97109 0.58933 0.0
O421 O 0.54543 0.97579 0.65695 0.0
C422 C 0.63348 0.92725 0.61783 0.0
C423 C 0.63934 0.10143 0.58968 0.0
C424 C 0.50549 0.08979 0.62298 0.0
O425 O 0.54269 0.07459 0.64744 0.0
O426 O 0.49845 0.07813 0.57765 0.0
C427 C 0.59585 0.05189 0.43483 0.0
O428 O 0.4594 0.94125 0.44733 0.0
O429 O 0.5018 0.90456 0.5078 0.0
C430 C 0.47053 0.08412 0.44876 0.0
C431 C 0.46376 0.91018 0.47757 0.0
C432 C 0.11216 0.0895 0.32248 0.0
C433 C 0.16282 0.09029 0.31234 0.0
H434 H 0.05897 0.07552 0.37465 0.0
C435 C 0.19819 0.06981 0.34252 0.0
H436 H 0.08459 0.10566 0.29965 0.0
C437 C 0.18441 0.05485 0.38609 0.0
C438 C 0.13452 0.05827 0.39912 0.0
H439 H 0.23749 0.07026 0.33492 0.0
H440 H 0.2134 0.04302 0.41069 0.0
C441 C 0.09789 0.07313 0.36573 0.0
C442 C 0.92479 0.16507 0.37028 0.0
C443 C 0.87213 0.16715 0.36722 0.0
H444 H 0.99054 0.13816 0.40578 0.0
C445 C 0.84544 0.143 0.39909 0.0
H446 H 0.9465 0.18376 0.34666 0.0
C447 C 0.8706 0.11663 0.43234 0.0
C448 C 0.92319 0.11454 0.43558 0.0
H449 H 0.80497 0.14411 0.39801 0.0
H450 H 0.84874 0.09784 0.45577 0.0
C451 C 0.95008 0.13944 0.40451 0.0
C452 C 0.91872 0.83764 0.37492 0.0
C453 C 0.89121 0.80261 0.39202 0.0
H454 H 0.96189 0.89718 0.39286 0.0
C455 C 0.89254 0.79778 0.44235 0.0
H456 H 0.91901 0.84228 0.33647 0.0
C457 C 0.91796 0.82941 0.47489 0.0
C458 C 0.94245 0.86599 0.45739 0.0
H459 H 0.87163 0.77124 0.45668 0.0
H460 H 0.91582 0.8269 0.51358 0.0
C461 C 0.9437 0.869 0.40717 0.0
C462 C 0.18249 0.93461 0.3414 0.0
C463 C 0.14797 0.90715 0.31365 0.0
H464 H 0.20435 0.96274 0.41234 0.0
C465 C 0.1018 0.89816 0.33207 0.0
H466 H 0.21869 0.94107 0.32754 0.0
C467 C 0.09313 0.91101 0.38023 0.0
C468 C 0.13104 0.93236 0.41023 0.0
H469 H 0.07532 0.87637 0.3111 0.0
H470 H 0.05828 0.90135 0.39474 0.0
C471 C 0.175 0.94558 0.39012 0.0
C472 C 0.25283 0.86677 0.66523 0.0
C473 C 0.22617 0.84303 0.69748 0.0
H474 H 0.24962 0.91193 0.60857 0.0
C475 C 0.17357 0.84587 0.69519 0.0
H476 H 0.29326 0.86515 0.66578 0.0
C477 C 0.1483 0.87183 0.66122 0.0
C478 C 0.17525 0.89631 0.62978 0.0
H479 H 0.15192 0.82753 0.71918 0.0
H480 H 0.10788 0.87369 0.66044 0.0
C481 C 0.22776 0.89348 0.63231 0.0
C482 C 0.18175 0.17322 0.69055 0.0
C483 C 0.20956 0.20801 0.67332 0.0
H484 H 0.13779 0.11414 0.67283 0.0
C485 C 0.20795 0.21288 0.62299 0.0
H486 H 0.18166 0.16856 0.729 0.0
C487 C 0.18193 0.18152 0.59056 0.0
C488 C 0.15707 0.14518 0.60818 0.0
H489 H 0.22907 0.23922 0.60854 0.0
H490 H 0.18391 0.18401 0.55185 0.0
C491 C 0.15615 0.14216 0.65842 0.0
C492 C 0.91795 0.07642 0.72482 0.0
C493 C 0.95311 0.10337 0.7524 0.0
H494 H 0.89509 0.0488 0.65392 0.0
C495 C 0.99925 0.11178 0.73364 0.0
H496 H 0.8818 0.07035 0.73899 0.0
C497 C 1.00723 0.09917 0.6853 0.0
C498 C 0.96874 0.07848 0.65549 0.0
H499 H 1.02625 0.13313 0.75449 0.0
H500 H 1.04207 0.10851 0.67056 0.0
C501 C 0.92483 0.06559 0.67595 0.0
C502 C 0.98925 0.923 0.74355 0.0
C503 C 0.93876 0.92165 0.75416 0.0
H504 H 1.0416 0.9372 0.69074 0.0
C505 C 0.90275 0.94151 0.72411 0.0
H506 H 1.01729 0.90728 0.76626 0.0
C507 C 0.91581 0.95633 0.68022 0.0
C508 C 0.96556 0.95332 0.66673 0.0
H509 H 0.86357 0.94057 0.73206 0.0
H510 H 0.88642 0.9677 0.65575 0.0
C511 C 1.00276 0.9392 0.69999 0.0
C512 C 0.43047 0.19993 0.17628 0.0
C513 C 0.37809 0.19498 0.17335 0.0
H514 H 0.50074 0.17408 0.15115 0.0
C515 C 0.35603 0.16631 0.13602 0.0
H516 H 0.44841 0.22212 0.20463 0.0
C517 C 0.38585 0.14018 0.10482 0.0
C518 C 0.43819 0.14179 0.11076 0.0
H519 H 0.31583 0.16237 0.13244 0.0
H520 H 0.36803 0.11581 0.07854 0.0
C521 C 0.46047 0.17305 0.14537 0.0
C522 C 0.99864 0.34459 0.17538 0.0
C523 C 0.96504 0.31339 0.15179 0.0
H524 H 1.02931 0.41106 0.1769 0.0
C525 C 0.93854 0.32392 0.10941 0.0
H526 H 1.01825 0.33708 0.20895 0.0
C527 C 0.94244 0.3665 0.09285 0.0
C528 C 0.97414 0.39874 0.11771 0.0
H529 H 0.91142 0.30056 0.09179 0.0
H530 H 0.91985 0.37439 0.0611 0.0
C531 C 1.00392 0.38693 0.15785 0.0
C532 C 0.77343 0.93948 0.15712 0.0
C533 C 0.75547 0.9086 0.18764 0.0
H534 H 0.75438 0.98572 0.1042 0.0
C535 C 0.70429 0.90909 0.19738 0.0
H536 H 0.81271 0.94087 0.14997 0.0
C537 C 0.67058 0.93389 0.17027 0.0
C538 C 0.68812 0.95894 0.13393 0.0
H539 H 0.68968 0.88763 0.2231 0.0
H540 H 0.63091 0.92983 0.17452 0.0
C541 C 0.73987 0.96498 0.13078 0.0
C542 C 0.21166 0.6992 0.14544 0.0
C543 C 0.24427 0.68183 0.18097 0.0
H544 H 0.15504 0.68387 0.08891 0.0
C545 C 0.24235 0.63633 0.1894 0.0
H546 H 0.21185 0.73473 0.13944 0.0
C547 C 0.20859 0.60845 0.16297 0.0
C548 C 0.17724 0.62482 0.12589 0.0
H549 H 0.26556 0.62247 0.21784 0.0
H550 H 0.2079 0.57343 0.17112 0.0
C551 C 0.17851 0.67059 0.11748 0.0
C552 C 0.34979 0.87097 0.91408 0.0
C553 C 0.37309 0.85066 0.87334 0.0
H554 H 0.35767 0.9115 0.98113 0.0
C555 C 0.42456 0.858 0.86928 0.0
H556 H 0.31029 0.8662 0.91858 0.0
C557 C 0.45214 0.884 0.9057 0.0
C558 C 0.42892 0.90333 0.94707 0.0
H559 H 0.44383 0.84277 0.83854 0.0
H560 H 0.49179 0.8884 0.90173 0.0
C561 C 0.37719 0.8969 0.95025 0.0
C562 C 0.20934 0.39833 0.84565 0.0
C563 C 0.20134 0.35149 0.8409 0.0
H564 H 0.19265 0.462 0.8838 0.0
C565 C 0.16375 0.33436 0.86843 0.0
H566 H 0.23852 0.4128 0.8261 0.0
C567 C 0.13629 0.36298 0.90081 0.0
C568 C 0.14647 0.40943 0.90752 0.0
H569 H 0.1567 0.29848 0.86615 0.0
H570 H 0.10959 0.34824 0.92309 0.0
C571 C 0.18291 0.42666 0.87886 0.0
C572 C 0.71074 0.13496 0.85369 0.0
C573 C 0.70138 0.18159 0.85446 0.0
H574 H 0.69339 0.07106 0.8778 0.0
C575 C 0.66175 0.1982 0.88348 0.0
H576 H 0.74017 0.12006 0.83203 0.0
C577 C 0.63423 0.16923 0.91171 0.0
C578 C 0.64457 0.12234 0.91117 0.0
H579 H 0.65291 0.23383 0.88552 0.0
H580 H 0.60553 0.18375 0.93446 0.0
C581 C 0.68309 0.10637 0.88056 0.0
C582 C 0.93323 0.69297 0.89973 0.0
C583 C 0.88249 0.68572 0.88492 0.0
H584 H 0.99696 0.67129 0.943 0.0
C585 C 0.85633 0.65268 0.90649 0.0
H586 H 0.95445 0.71852 0.88403 0.0
C587 C 0.88012 0.62673 0.9407 0.0
C588 C 0.93142 0.63207 0.95416 0.0
H589 H 0.81716 0.64665 0.89687 0.0
H590 H 0.85802 0.60144 0.95583 0.0
C591 C 0.95757 0.66622 0.93384 0.0
C592 C 0.2469 0.35823 0.1597 0.0
C593 C 0.22074 0.32532 0.18146 0.0
H594 H 0.24519 0.40931 0.11017 0.0
C595 C 0.16995 0.31813 0.16681 0.0
H596 H 0.28611 0.36421 0.1692 0.0
C597 C 0.14557 0.34482 0.13266 0.0
C598 C 0.17174 0.37885 0.11215 0.0
H599 H 0.14872 0.29268 0.18266 0.0
H600 H 0.10615 0.33981 0.12362 0.0
C601 C 0.22308 0.38412 0.12546 0.0
C602 C 0.10468 0.66645 0.89105 0.0
C603 C 0.13838 0.69756 0.91465 0.0
H604 H 0.07385 0.60004 0.88949 0.0
C605 C 0.16496 0.68692 0.95694 0.0
H606 H 0.08498 0.67406 0.85756 0.0
C607 C 0.16098 0.64433 0.97344 0.0
C608 C 0.12914 0.61218 0.9486 0.0
H609 H 0.19214 0.71022 0.97457 0.0
H610 H 0.18359 0.63637 1.00516 0.0
C611 C 0.09933 0.6241 0.90852 0.0
C612 C 0.39684 0.10085 0.8663 0.0
C613 C 0.34574 0.1012 0.87635 0.0
H614 H 0.47043 0.0806 0.88901 0.0
C615 C 0.32808 0.07023 0.90691 0.0
H616 H 0.41118 0.12237 0.84051 0.0
C617 C 0.36191 0.04495 0.9332 0.0
C618 C 0.41359 0.05137 0.92994 0.0
H619 H 0.28884 0.06873 0.91424 0.0
H620 H 0.34768 0.02423 0.95995 0.0
C621 C 0.43082 0.07629 0.89336 0.0
C622 C 0.89049 0.31231 0.92112 0.0
C623 C 0.85867 0.32981 0.88505 0.0
H624 H 0.94669 0.32733 0.97811 0.0
C625 C 0.86178 0.37508 0.87596 0.0
H626 H 0.88941 0.27691 0.92757 0.0
C627 C 0.89587 0.40265 0.90238 0.0
C628 C 0.9263 0.38621 0.94007 0.0
H629 H 0.83925 0.38895 0.84705 0.0
H630 H 0.89746 0.43752 0.89384 0.0
C631 C 0.92393 0.34063 0.94906 0.0
C632 C 0.74639 0.8452 0.92946 0.0
C633 C 0.72467 0.81616 0.89228 0.0
H634 H 0.73384 0.89616 0.98633 0.0
C635 C 0.67231 0.81108 0.88903 0.0
H636 H 0.78657 0.84926 0.93329 0.0
C637 C 0.642 0.83816 0.91944 0.0
C638 C 0.66397 0.86977 0.95387 0.0
H639 H 0.65462 0.78862 0.86077 0.0
H640 H 0.60177 0.83698 0.91342 0.0
C641 C 0.71627 0.87155 0.96017 0.0
C642 C 0.89313 0.61221 0.22017 0.0
C643 C 0.9006 0.65912 0.22467 0.0
H644 H 0.91065 0.54854 0.18245 0.0
C645 C 0.9381 0.67646 0.1972 0.0
H646 H 0.86401 0.59757 0.23966 0.0
C647 C 0.96598 0.64795 0.16508 0.0
C648 C 0.95635 0.6014 0.15861 0.0
H649 H 0.94475 0.71239 0.1993 0.0
H650 H 0.99256 0.66283 0.14278 0.0
C651 C 0.92002 0.58398 0.18725 0.0
C652 C 0.3913 0.8768 0.21088 0.0
C653 C 0.40099 0.83026 0.2106 0.0
H654 H 0.40814 0.94054 0.18607 0.0
C655 C 0.44066 0.81362 0.18164 0.0
H656 H 0.36183 0.89174 0.23245 0.0
C657 C 0.46793 0.84246 0.15304 0.0
C658 C 0.45728 0.88927 0.15312 0.0
H659 H 0.44975 0.77804 0.17995 0.0
H660 H 0.4967 0.82791 0.13039 0.0
C661 C 0.41869 0.90528 0.18364 0.0
C662 C 0.75162 0.14261 0.1484 0.0
C663 C 0.72823 0.1633 0.18885 0.0
H664 H 0.7439 0.10115 0.08194 0.0
C665 C 0.67677 0.15596 0.19299 0.0
H666 H 0.79112 0.14738 0.14387 0.0
C667 C 0.64931 0.12939 0.15701 0.0
C668 C 0.67265 0.10949 0.116 0.0
H669 H 0.65745 0.17142 0.2236 0.0
H670 H 0.6097 0.12491 0.16109 0.0
C671 C 0.72432 0.11612 0.11262 0.0
C672 C 0.61758 0.64432 0.85996 0.0
C673 C 0.64139 0.62026 0.82168 0.0
H674 H 0.59275 0.64329 0.93252 0.0
C675 C 0.65079 0.57426 0.82366 0.0
H676 H 0.61035 0.68008 0.85871 0.0
C677 C 0.64253 0.55385 0.86598 0.0
C678 C 0.62386 0.57912 0.90642 0.0
H679 H 0.66951 0.55541 0.79466 0.0
H680 H 0.65299 0.51876 0.86778 0.0
C681 C 0.60842 0.62369 0.90219 0.0
C682 C 0.41561 0.64284 0.85006 0.0
C683 C 0.37161 0.66576 0.86401 0.0
H684 H 0.47374 0.59595 0.86868 0.0
C685 C 0.3524 0.65747 0.90886 0.0
H686 H 0.43153 0.64832 0.81574 0.0
C687 C 0.3767 0.62779 0.93921 0.0
C688 C 0.42087 0.60501 0.92563 0.0
H689 H 0.31865 0.67429 0.92094 0.0
H690 H 0.36057 0.6227 0.97352 0.0
C691 C 0.4398 0.61266 0.88037 0.0
C692 C 0.36576 0.39298 0.87591 0.0
C693 C 0.38524 0.34871 0.87336 0.0
H694 H 0.3677 0.45946 0.91237 0.0
C695 C 0.42146 0.33753 0.90886 0.0
H696 H 0.33724 0.40249 0.84949 0.0
C697 C 0.43966 0.37061 0.94439 0.0
C698 C 0.42046 0.41505 0.9466 0.0
H699 H 0.43687 0.30374 0.90814 0.0
H700 H 0.4694 0.36163 0.96982 0.0
C701 C 0.3826 0.42551 0.9124 0.0
C702 C 0.58381 0.40677 0.78422 0.0
C703 C 0.60611 0.36404 0.78492 0.0
H704 H 0.568 0.46756 0.82685 0.0
C705 C 0.60663 0.3424 0.82867 0.0
H706 H 0.58024 0.42332 0.7507 0.0
C707 C 0.60267 0.3681 0.87233 0.0
C708 C 0.59311 0.41417 0.87178 0.0
H709 H 0.6196 0.30803 0.83051 0.0
H710 H 0.61035 0.35272 0.90616 0.0
C711 C 0.57843 0.43238 0.82786 0.0
C712 C 0.75031 0.35474 0.15601 0.0
C713 C 0.73197 0.34761 0.20155 0.0
H714 H 0.74095 0.38793 0.09041 0.0
C715 C 0.68842 0.37108 0.2158 0.0
H716 H 0.78367 0.33742 0.14368 0.0
C717 C 0.66372 0.40057 0.18506 0.0
C718 C 0.68169 0.40699 0.13908 0.0
H719 H 0.67314 0.36645 0.25061 0.0
H720 H 0.63012 0.41771 0.197 0.0
C721 C 0.72551 0.38375 0.12526 0.0
C722 C 0.73521 0.61713 0.18942 0.0
C723 C 0.71616 0.66154 0.19186 0.0
H724 H 0.73306 0.55074 0.15275 0.0
C725 C 0.6805 0.67307 0.156 0.0
H726 H 0.76334 0.60735 0.21609 0.0
C727 C 0.66242 0.64021 0.12019 0.0
C728 C 0.68122 0.59564 0.11805 0.0
H729 H 0.66545 0.70699 0.15661 0.0
H730 H 0.6331 0.64946 0.09445 0.0
C731 C 0.71852 0.58481 0.15266 0.0
C732 C 0.49535 0.66894 0.23526 0.0
C733 C 0.49654 0.64749 0.27915 0.0
H734 H 0.49102 0.65838 0.1578 0.0
C735 C 0.5189 0.60479 0.27982 0.0
H736 H 0.4822 0.70325 0.23339 0.0
C737 C 0.52399 0.57907 0.2362 0.0
C738 C 0.50888 0.59711 0.19229 0.0
H739 H 0.52289 0.58837 0.31339 0.0
H740 H 0.53459 0.54393 0.23726 0.0
C741 C 0.49907 0.64312 0.19165 0.0
C742 C 0.48466 0.36659 0.20431 0.0
C743 C 0.46136 0.39074 0.24286 0.0
H744 H 0.50882 0.36756 0.13151 0.0
C745 C 0.45205 0.43676 0.24095 0.0
H746 H 0.49179 0.33081 0.20548 0.0
C747 C 0.45997 0.45715 0.19854 0.0
C748 C 0.47822 0.43184 0.15792 0.0
H749 H 0.4337 0.45567 0.27016 0.0
H750 H 0.44964 0.49229 0.19684 0.0
C751 C 0.49349 0.38721 0.16199 0.0
C752 C 0.93554 0.709 0.67288 0.0
C753 C 0.88517 0.6982 0.67844 0.0
H754 H 1.00506 0.68735 0.64257 0.0
C755 C 0.86405 0.66164 0.64965 0.0
H756 H 0.95278 0.73715 0.69433 0.0
C757 C 0.89369 0.63376 0.61985 0.0
C758 C 0.94499 0.64194 0.6179 0.0
H759 H 0.8252 0.6528 0.65237 0.0
H760 H 0.87734 0.60364 0.60131 0.0
C761 C 0.96534 0.68092 0.64279 0.0
C762 C 0.43535 0.85135 0.62206 0.0
C763 C 0.46171 0.82629 0.65586 0.0
H764 H 0.42846 0.91377 0.58906 0.0
C765 C 0.5037 0.84488 0.68165 0.0
H766 H 0.40205 0.83767 0.60285 0.0
C767 C 0.518 0.88883 0.67511 0.0
C768 C 0.49072 0.91455 0.64217 0.0
H769 H 0.52346 0.82637 0.70889 0.0
H770 H 0.55042 0.90254 0.69581 0.0
C771 C 0.44977 0.89504 0.61511 0.0
C772 C 0.22935 0.4481 0.7083 0.0
C773 C 0.2676 0.44529 0.67459 0.0
H774 H 0.15111 0.45711 0.71838 0.0
C775 C 0.25906 0.46512 0.63059 0.0
H776 H 0.23445 0.4354 0.74367 0.0
C777 C 0.21071 0.47713 0.61603 0.0
C778 C 0.17083 0.4706 0.64599 0.0
H779 H 0.28826 0.46573 0.60489 0.0
H780 H 0.20402 0.48787 0.57973 0.0
C781 C 0.18099 0.46026 0.69382 0.0
C782 C 0.76036 0.14567 0.63788 0.0
C783 C 0.74492 0.18904 0.65381 0.0
H784 H 0.73788 0.08326 0.60063 0.0
C785 C 0.70109 0.20738 0.63255 0.0
H786 H 0.79463 0.13123 0.65244 0.0
C787 C 0.66836 0.17984 0.60337 0.0
C788 C 0.6798 0.13419 0.59509 0.0
H789 H 0.6892 0.24154 0.64278 0.0
H790 H 0.63173 0.19275 0.59314 0.0
C791 C 0.72801 0.11844 0.60797 0.0
C792 C 0.9099 0.37568 0.34218 0.0
C793 C 0.8759 0.35085 0.36634 0.0
H794 H 0.97117 0.42101 0.3478 0.0
C795 C 0.8757 0.35652 0.41729 0.0
H796 H 0.91049 0.37269 0.30293 0.0
C797 C 0.91134 0.38437 0.44354 0.0
C798 C 0.9474 0.40692 0.41905 0.0
H799 H 0.84986 0.33774 0.43682 0.0
H800 H 0.91199 0.38669 0.48282 0.0
C801 C 0.94491 0.40338 0.36805 0.0
C802 C 0.66671 0.85406 0.34156 0.0
C803 C 0.6909 0.81901 0.36521 0.0
H804 H 0.61877 0.91249 0.34686 0.0
C805 C 0.68517 0.81861 0.41573 0.0
H806 H 0.67024 0.85606 0.30297 0.0
C807 C 0.65669 0.8522 0.44153 0.0
C808 C 0.63184 0.88684 0.41759 0.0
H809 H 0.7036 0.79275 0.43565 0.0
H810 H 0.65329 0.85044 0.48019 0.0
C811 C 0.63721 0.88679 0.36701 0.0
C812 C 0.16284 0.69617 0.38675 0.0
C813 C 0.21057 0.68296 0.37035 0.0
H814 H 0.09706 0.6783 0.42396 0.0
C815 C 0.22788 0.64 0.38203 0.0
H816 H 0.14775 0.72884 0.37898 0.0
C817 C 0.19885 0.61113 0.40736 0.0
C818 C 0.15101 0.62364 0.42338 0.0
H819 H 0.26407 0.62792 0.37068 0.0
H820 H 0.21406 0.57822 0.41402 0.0
C821 C 0.13376 0.66719 0.41313 0.0
C822 C 0.36009 0.13544 0.38137 0.0
C823 C 0.37778 0.17818 0.37277 0.0
H824 H 0.37469 0.0732 0.41292 0.0
C825 C 0.42479 0.19176 0.39382 0.0
H826 H 0.32398 0.12393 0.3663 0.0
C827 C 0.4543 0.16238 0.42091 0.0
C828 C 0.43738 0.1188 0.42745 0.0
H829 H 0.43956 0.22456 0.38806 0.0
H830 H 0.49113 0.17304 0.43477 0.0
C831 C 0.38935 0.1063 0.40829 0.0
C832 C 0.67942 0.81926 0.67181 0.0
C833 C 0.72618 0.83294 0.69337 0.0
H834 H 0.61337 0.83795 0.63048 0.0
C835 C 0.74373 0.87587 0.68534 0.0
H836 H 0.66479 0.7863 0.67709 0.0
C837 C 0.71451 0.90513 0.65856 0.0
C838 C 0.66668 0.89254 0.63896 0.0
H839 H 0.77967 0.88745 0.7008 0.0
H840 H 0.72904 0.93838 0.65441 0.0
C841 C 0.64999 0.84874 0.64481 0.0
C842 C 0.66006 0.16493 0.44507 0.0
C843 C 0.63833 0.18466 0.40477 0.0
H844 H 0.66593 0.10607 0.4846 0.0
C845 C 0.60365 0.1604 0.3739 0.0
H846 H 0.68843 0.18268 0.46808 0.0
C847 C 0.59108 0.11667 0.38271 0.0
C848 C 0.61335 0.09625 0.42257 0.0
H849 H 0.58786 0.1749 0.34182 0.0
H850 H 0.56388 0.09899 0.35822 0.0
C851 C 0.64795 0.12089 0.45374 0.0
C852 C 0.84391 0.54588 0.4353 0.0
C853 C 0.83515 0.56549 0.39121 0.0
H854 H 0.89915 0.52352 0.48619 0.0
C855 C 0.87339 0.56285 0.35749 0.0
H856 H 0.81475 0.54515 0.46103 0.0
C857 C 0.92184 0.55097 0.37197 0.0
C858 C 0.93214 0.54075 0.41981 0.0
H859 H 0.86816 0.57544 0.32208 0.0
H860 H 0.95167 0.55419 0.34735 0.0
C861 C 0.89235 0.53415 0.44986 0.0
C862 C 0.40239 0.80447 0.43333 0.0
C863 C 0.35858 0.82288 0.4121 0.0
H864 H 0.4715 0.81885 0.47327 0.0
C865 C 0.34301 0.86612 0.42841 0.0
H866 H 0.4144 0.7704 0.4228 0.0
C867 C 0.37515 0.89315 0.45883 0.0
C868 C 0.42331 0.87737 0.47187 0.0
H869 H 0.30878 0.88063 0.41387 0.0
H870 H 0.36518 0.92826 0.4665 0.0
C871 C 0.43489 0.83179 0.46304 0.0
C872 C 0.23949 0.35004 0.41623 0.0
C873 C 0.21858 0.31314 0.38786 0.0
H874 H 0.22588 0.40836 0.46404 0.0
C875 C 0.16831 0.30213 0.39363 0.0
H876 H 0.27826 0.35907 0.41334 0.0
C877 C 0.13837 0.3303 0.4235 0.0
C878 C 0.15848 0.36957 0.44796 0.0
H879 H 0.15121 0.27373 0.37249 0.0
H880 H 0.0987 0.32365 0.42388 0.0
C881 C 0.20971 0.37801 0.44581 0.0
C882 C 0.41678 0.19136 0.65002 0.0
C883 C 0.4109 0.19121 0.70053 0.0
H884 H 0.44918 0.15946 0.58588 0.0
C885 C 0.43546 0.15654 0.72452 0.0
H886 H 0.39813 0.21692 0.62985 0.0
C887 C 0.46541 0.12394 0.69941 0.0
C888 C 0.4709 0.12363 0.64883 0.0
H889 H 0.43189 0.15477 0.76314 0.0
H890 H 0.4841 0.09854 0.7198 0.0
C891 C 0.44571 0.1579 0.62456 0.0
C892 C 0.94058 0.31545 0.67951 0.0
C893 C 0.89279 0.32866 0.69575 0.0
H894 H 1.00638 0.33325 0.64231 0.0
C895 C 0.87534 0.37147 0.68371 0.0
H896 H 0.95575 0.28288 0.68755 0.0
C897 C 0.90431 0.40022 0.6582 0.0
C898 C 0.95223 0.38774 0.64237 0.0
H899 H 0.83909 0.38354 0.6949 0.0
H900 H 0.88901 0.43304 0.65127 0.0
C901 C 0.96962 0.34433 0.65298 0.0
C902 C 0.19327 0.63447 0.72396 0.0
C903 C 0.2275 0.65913 0.69993 0.0
H904 H 0.13168 0.58948 0.71803 0.0
C905 C 0.22798 0.65344 0.649 0.0
H906 H 0.19246 0.63757 0.76319 0.0
C907 C 0.19229 0.62581 0.62259 0.0
C908 C 0.15591 0.60352 0.6469 0.0
H909 H 0.25397 0.67217 0.6296 0.0
H910 H 0.19179 0.62355 0.58331 0.0
C911 C 0.1582 0.60695 0.69791 0.0
loop_
_geom_bond_atom_site_label_1
_geom_bond_atom_site_label_2
_geom_bond_distance
_geom_bond_site_symmetry_2
_ccdc_geom_bond_type
Co0 N5 2.057 . S
Co0 O17 2.021 . S
Co0 O20 2.062 . S
Co0 O24 2.117 . S
Co0 O25 2.020 . S
C1 O21 1.259 . S
C1 O24 1.258 . S
Co2 N11 2.057 . S
Co2 O18 2.117 . S
Co2 O19 2.020 . S
Co2 O21 2.021 . S
Co2 O26 2.062 . S
C3 N5 1.316 . S
C3 N6 1.347 . S
C3 H8 0.931 . S
C4 N5 1.375 . S
C4 C7 1.350 . S
C4 H9 0.930 . S
N5 Co0 2.057 . S
N5 C3 1.316 . S
N5 C4 1.375 . S
N6 C3 1.347 . S
N6 C7 1.373 . S
C7 C4 1.350 . S
C7 N6 1.373 . S
C7 H28 0.931 . S
H8 C3 0.931 . S
H9 C4 0.930 . S
C10 O17 1.259 . S
C10 O18 1.258 . S
N11 Co2 2.057 . S
N11 C12 1.316 . S
N11 C13 1.375 . S
C12 N11 1.316 . S
C12 N14 1.347 . S
C12 H23 0.931 . S
C13 N11 1.375 . S
C13 C15 1.350 . S
C13 H22 0.930 . S
N14 C12 1.347 . S
N14 C15 1.373 . S
C15 C13 1.350 . S
C15 N14 1.373 . S
C15 H29 0.931 . S
C16 O19 1.256 . S
C16 O20 1.255 . S
O17 Co0 2.021 . S
O17 C10 1.259 . S
O18 Co2 2.117 . S
O18 C10 1.258 . S
O19 Co2 2.020 . S
O19 C16 1.256 . S
O20 Co0 2.062 . S
O20 C16 1.255 . S
O21 C1 1.259 . S
O21 Co2 2.021 . S
H22 C13 0.930 . S
H23 C12 0.931 . S
O24 Co0 2.117 . S
O24 C1 1.258 . S
O25 Co0 2.020 . S
O25 C27 1.256 . S
O26 Co2 2.062 . S
O26 C27 1.255 . S
C27 O25 1.256 . S
C27 O26 1.255 . S
H28 C7 0.931 . S
H29 C15 0.931 . S
Co30 N35 2.057 . S
Co30 O47 2.021 . S
Co30 O50 2.062 . S
Co30 O54 2.117 . S
Co30 O55 2.020 . S
C31 O51 1.259 . S
C31 O54 1.258 . S
Co32 N41 2.057 . S
Co32 O48 2.117 . S
Co32 O49 2.020 . S
Co32 O51 2.021 . S
Co32 O56 2.062 . S
C33 N35 1.316 . S
C33 N36 1.347 . S
C33 H38 0.931 . S
C34 N35 1.375 . S
C34 C37 1.350 . S
C34 H39 0.930 . S
N35 Co30 2.057 . S
N35 C33 1.316 . S
N35 C34 1.375 . S
N36 C33 1.347 . S
N36 C37 1.373 . S
C37 C34 1.350 . S
C37 N36 1.373 . S
C37 H58 0.931 . S
H38 C33 0.931 . S
H39 C34 0.930 . S
C40 O47 1.259 . S
C40 O48 1.258 . S
N41 Co32 2.057 . S
N41 C42 1.316 . S
N41 C43 1.375 . S
C42 N41 1.316 . S
C42 N44 1.347 . S
C42 H53 0.931 . S
C43 N41 1.375 . S
C43 C45 1.350 . S
C43 H52 0.930 . S
N44 C42 1.347 . S
N44 C45 1.373 . S
C45 C43 1.350 . S
C45 N44 1.373 . S
C45 H59 0.931 . S
C46 O49 1.256 . S
C46 O50 1.255 . S
O47 Co30 2.021 . S
O47 C40 1.259 . S
O48 Co32 2.117 . S
O48 C40 1.258 . S
O49 Co32 2.020 . S
O49 C46 1.256 . S
O50 Co30 2.062 . S
O50 C46 1.255 . S
O51 C31 1.259 . S
O51 Co32 2.021 . S
H52 C43 0.930 . S
H53 C42 0.931 . S
O54 Co30 2.117 . S
O54 C31 1.258 . S
O55 Co30 2.020 . S
O55 C57 1.256 . S
O56 Co32 2.062 . S
O56 C57 1.255 . S
C57 O55 1.256 . S
C57 O56 1.255 . S
H58 C37 0.931 . S
H59 C45 0.931 . S
Co60 N65 2.057 . S
Co60 O77 2.021 . S
Co60 O80 2.062 . S
Co60 O84 2.117 . S
Co60 O85 2.020 . S
C61 O81 1.259 . S
C61 O84 1.258 . S
Co62 N71 2.057 . S
Co62 O78 2.117 . S
Co62 O79 2.020 . S
Co62 O81 2.021 . S
Co62 O86 2.062 . S
C63 N65 1.316 . S
C63 N66 1.347 . S
C63 H68 0.931 . S
C64 N65 1.375 . S
C64 C67 1.350 . S
C64 H69 0.930 . S
N65 Co60 2.057 . S
N65 C63 1.316 . S
N65 C64 1.375 . S
N66 C63 1.347 . S
N66 C67 1.373 . S
C67 C64 1.350 . S
C67 N66 1.373 . S
C67 H88 0.931 . S
H68 C63 0.931 . S
H69 C64 0.930 . S
C70 O77 1.259 . S
C70 O78 1.258 . S
N71 Co62 2.057 . S
N71 C72 1.316 . S
N71 C73 1.375 . S
C72 N71 1.316 . S
C72 N74 1.347 . S
C72 H83 0.931 . S
C73 N71 1.375 . S
C73 C75 1.350 . S
C73 H82 0.930 . S
N74 C72 1.347 . S
N74 C75 1.373 . S
C75 C73 1.350 . S
C75 N74 1.373 . S
C75 H89 0.931 . S
C76 O79 1.256 . S
C76 O80 1.255 . S
O77 Co60 2.021 . S
O77 C70 1.259 . S
O78 Co62 2.117 . S
O78 C70 1.258 . S
O79 Co62 2.020 . S
O79 C76 1.256 . S
O80 Co60 2.062 . S
O80 C76 1.255 . S
O81 C61 1.259 . S
O81 Co62 2.021 . S
H82 C73 0.930 . S
H83 C72 0.931 . S
O84 Co60 2.117 . S
O84 C61 1.258 . S
O85 Co60 2.020 . S
O85 C87 1.256 . S
O86 Co62 2.062 . S
O86 C87 1.255 . S
C87 O85 1.256 . S
C87 O86 1.255 . S
H88 C67 0.931 . S
H89 C75 0.931 . S
Co90 N95 2.057 . S
Co90 O107 2.021 . S
Co90 O110 2.062 . S
Co90 O114 2.117 . S
Co90 O115 2.020 . S
C91 O111 1.259 . S
C91 O114 1.258 . S
Co92 N101 2.057 . S
Co92 O108 2.117 . S
Co92 O109 2.020 . S
Co92 O111 2.021 . S
Co92 O116 2.062 . S
C93 N95 1.316 . S
C93 N96 1.347 . S
C93 H98 0.931 . S
C94 N95 1.375 . S
C94 C97 1.350 . S
C94 H99 0.930 . S
N95 Co90 2.057 . S
N95 C93 1.316 . S
N95 C94 1.375 . S
N96 C93 1.347 . S
N96 C97 1.373 . S
C97 C94 1.350 . S
C97 N96 1.373 . S
C97 H118 0.931 . S
H98 C93 0.931 . S
H99 C94 0.930 . S
C100 O107 1.259 . S
C100 O108 1.258 . S
N101 Co92 2.057 . S
N101 C102 1.316 . S
N101 C103 1.375 . S
C102 N101 1.316 . S
C102 N104 1.347 . S
C102 H113 0.931 . S
C103 N101 1.375 . S
C103 C105 1.350 . S
C103 H112 0.930 . S
N104 C102 1.347 . S
N104 C105 1.373 . S
C105 C103 1.350 . S
C105 N104 1.373 . S
C105 H119 0.931 . S
C106 O109 1.256 . S
C106 O110 1.255 . S
O107 Co90 2.021 . S
O107 C100 1.259 . S
O108 Co92 2.117 . S
O108 C100 1.258 . S
O109 Co92 2.020 . S
O109 C106 1.256 . S
O110 Co90 2.062 . S
O110 C106 1.255 . S
O111 C91 1.259 . S
O111 Co92 2.021 . S
H112 C103 0.930 . S
H113 C102 0.931 . S
O114 Co90 2.117 . S
O114 C91 1.258 . S
O115 Co90 2.020 . S
O115 C117 1.256 . S
O116 Co92 2.062 . S
O116 C117 1.255 . S
C117 O115 1.256 . S
C117 O116 1.255 . S
H118 C97 0.931 . S
H119 C105 0.931 . S
Co120 N125 2.057 . S
Co120 O137 2.021 . S
Co120 O140 2.062 . S
Co120 O144 2.117 . S
Co120 O145 2.020 . S
C121 O141 1.259 . S
C121 O144 1.258 . S
Co122 N131 2.057 . S
Co122 O138 2.117 . S
Co122 O139 2.020 . S
Co122 O141 2.021 . S
Co122 O146 2.062 . S
C123 N125 1.316 . S
C123 N126 1.347 . S
C123 H128 0.931 . S
C124 N125 1.375 . S
C124 C127 1.350 . S
C124 H129 0.930 . S
N125 Co120 2.057 . S
N125 C123 1.316 . S
N125 C124 1.375 . S
N126 C123 1.347 . S
N126 C127 1.373 . S
C127 C124 1.350 . S
C127 N126 1.373 . S
C127 H148 0.931 . S
H128 C123 0.931 . S
H129 C124 0.930 . S
C130 O137 1.259 . S
C130 O138 1.258 . S
N131 Co122 2.057 . S
N131 C132 1.316 . S
N131 C133 1.375 . S
C132 N131 1.316 . S
C132 N134 1.347 . S
C132 H143 0.931 . S
C133 N131 1.375 . S
C133 C135 1.350 . S
C133 H142 0.930 . S
N134 C132 1.347 . S
N134 C135 1.373 . S
C135 C133 1.350 . S
C135 N134 1.373 . S
C135 H149 0.931 . S
C136 O139 1.256 . S
C136 O140 1.255 . S
O137 Co120 2.021 . S
O137 C130 1.259 . S
O138 Co122 2.117 . S
O138 C130 1.258 . S
O139 Co122 2.020 . S
O139 C136 1.256 . S
O140 Co120 2.062 . S
O140 C136 1.255 . S
O141 C121 1.259 . S
O141 Co122 2.021 . S
H142 C133 0.930 . S
H143 C132 0.931 . S
O144 Co120 2.117 . S
O144 C121 1.258 . S
O145 Co120 2.020 . S
O145 C147 1.256 . S
O146 Co122 2.062 . S
O146 C147 1.255 . S
C147 O145 1.256 . S
C147 O146 1.255 . S
H148 C127 0.931 . S
H149 C135 0.931 . S
Co150 N155 2.057 . S
Co150 O167 2.021 . S
Co150 O170 2.062 . S
Co150 O174 2.117 . S
Co150 O175 2.020 . S
C151 O171 1.259 . S
C151 O174 1.258 . S
Co152 N161 2.057 . S
Co152 O168 2.117 . S
Co152 O169 2.020 . S
Co152 O171 2.021 . S
Co152 O176 2.062 . S
C153 N155 1.316 . S
C153 N156 1.347 . S
C153 H158 0.931 . S
C154 N155 1.375 . S
C154 C157 1.350 . S
C154 H159 0.930 . S
N155 Co150 2.057 . S
N155 C153 1.316 . S
N155 C154 1.375 . S
N156 C153 1.347 . S
N156 C157 1.373 . S
C157 C154 1.350 . S
C157 N156 1.373 . S
C157 H178 0.931 . S
H158 C153 0.931 . S
H159 C154 0.930 . S
C160 O167 1.259 . S
C160 O168 1.258 . S
N161 Co152 2.057 . S
N161 C162 1.316 . S
N161 C163 1.375 . S
C162 N161 1.316 . S
C162 N164 1.347 . S
C162 H173 0.931 . S
C163 N161 1.375 . S
C163 C165 1.350 . S
C163 H172 0.930 . S
N164 C162 1.347 . S
N164 C165 1.373 . S
C165 C163 1.350 . S
C165 N164 1.373 . S
C165 H179 0.931 . S
C166 O169 1.256 . S
C166 O170 1.255 . S
O167 Co150 2.021 . S
O167 C160 1.259 . S
O168 Co152 2.117 . S
O168 C160 1.258 . S
O169 Co152 2.020 . S
O169 C166 1.256 . S
O170 Co150 2.062 . S
O170 C166 1.255 . S
O171 C151 1.259 . S
O171 Co152 2.021 . S
H172 C163 0.930 . S
H173 C162 0.931 . S
O174 Co150 2.117 . S
O174 C151 1.258 . S
O175 Co150 2.020 . S
O175 C177 1.256 . S
O176 Co152 2.062 . S
O176 C177 1.255 . S
C177 O175 1.256 . S
C177 O176 1.255 . S
H178 C157 0.931 . S
H179 C165 0.931 . S
Co180 N185 2.057 . S
Co180 O197 2.021 . S
Co180 O200 2.062 . S
Co180 O204 2.117 . S
Co180 O205 2.020 . S
C181 O201 1.259 . S
C181 O204 1.258 . S
Co182 N191 2.057 . S
Co182 O198 2.117 . S
Co182 O199 2.020 . S
Co182 O201 2.021 . S
Co182 O206 2.062 . S
C183 N185 1.316 . S
C183 N186 1.347 . S
C183 H188 0.931 . S
C184 N185 1.375 . S
C184 C187 1.350 . S
C184 H189 0.930 . S
N185 Co180 2.057 . S
N185 C183 1.316 . S
N185 C184 1.375 . S
N186 C183 1.347 . S
N186 C187 1.373 . S
C187 C184 1.350 . S
C187 N186 1.373 . S
C187 H208 0.931 . S
H188 C183 0.931 . S
H189 C184 0.930 . S
C190 O197 1.259 . S
C190 O198 1.258 . S
N191 Co182 2.057 . S
N191 C192 1.316 . S
N191 C193 1.375 . S
C192 N191 1.316 . S
C192 N194 1.347 . S
C192 H203 0.931 . S
C193 N191 1.375 . S
C193 C195 1.350 . S
C193 H202 0.930 . S
N194 C192 1.347 . S
N194 C195 1.373 . S
C195 C193 1.350 . S
C195 N194 1.373 . S
C195 H209 0.931 . S
C196 O199 1.256 . S
C196 O200 1.255 . S
O197 Co180 2.021 . S
O197 C190 1.259 . S
O198 Co182 2.117 . S
O198 C190 1.258 . S
O199 Co182 2.020 . S
O199 C196 1.256 . S
O200 Co180 2.062 . S
O200 C196 1.255 . S
O201 C181 1.259 . S
O201 Co182 2.021 . S
H202 C193 0.930 . S
H203 C192 0.931 . S
O204 Co180 2.117 . S
O204 C181 1.258 . S
O205 Co180 2.020 . S
O205 C207 1.256 . S
O206 Co182 2.062 . S
O206 C207 1.255 . S
C207 O205 1.256 . S
C207 O206 1.255 . S
H208 C187 0.931 . S
H209 C195 0.931 . S
Co210 N215 2.057 . S
Co210 O227 2.021 . S
Co210 O230 2.062 . S
Co210 O234 2.117 . S
Co210 O235 2.020 . S
C211 O231 1.259 . S
C211 O234 1.258 . S
Co212 N221 2.057 . S
Co212 O228 2.117 . S
Co212 O229 2.020 . S
Co212 O231 2.021 . S
Co212 O236 2.062 . S
C213 N215 1.316 . S
C213 N216 1.347 . S
C213 H218 0.931 . S
C214 N215 1.375 . S
C214 C217 1.350 . S
C214 H219 0.930 . S
N215 Co210 2.057 . S
N215 C213 1.316 . S
N215 C214 1.375 . S
N216 C213 1.347 . S
N216 C217 1.373 . S
C217 C214 1.350 . S
C217 N216 1.373 . S
C217 H238 0.931 . S
H218 C213 0.931 . S
H219 C214 0.930 . S
C220 O227 1.259 . S
C220 O228 1.258 . S
N221 Co212 2.057 . S
N221 C222 1.316 . S
N221 C223 1.375 . S
C222 N221 1.316 . S
C222 N224 1.347 . S
C222 H233 0.931 . S
C223 N221 1.375 . S
C223 C225 1.350 . S
C223 H232 0.930 . S
N224 C222 1.347 . S
N224 C225 1.373 . S
C225 C223 1.350 . S
C225 N224 1.373 . S
C225 H239 0.931 . S
C226 O229 1.256 . S
C226 O230 1.255 . S
O227 Co210 2.021 . S
O227 C220 1.259 . S
O228 Co212 2.117 . S
O228 C220 1.258 . S
O229 Co212 2.020 . S
O229 C226 1.256 . S
O230 Co210 2.062 . S
O230 C226 1.255 . S
O231 C211 1.259 . S
O231 Co212 2.021 . S
H232 C223 0.930 . S
H233 C222 0.931 . S
O234 Co210 2.117 . S
O234 C211 1.258 . S
O235 Co210 2.020 . S
O235 C237 1.256 . S
O236 Co212 2.062 . S
O236 C237 1.255 . S
C237 O235 1.256 . S
C237 O236 1.255 . S
H238 C217 0.931 . S
H239 C225 0.931 . S
Fe240 O241 1.888 . S
Fe240 O244 1.713 1_655 S
Fe240 O249 2.079 . S
Fe240 O254 1.933 1_655 S
Fe240 O260 2.079 . S
Fe240 O269 1.934 1_655 S
O241 Fe240 1.888 . S
O241 Fe243 1.715 1_545 S
Fe242 O244 1.886 . S
Fe242 O245 1.715 1_545 S
Fe242 O252 1.935 1_545 S
Fe242 O253 2.077 . S
Fe242 O259 1.935 1_545 S
Fe242 O268 2.077 . S
Fe243 O241 1.715 1_565 S
Fe243 O246 1.886 . S
Fe243 O250 1.935 1_565 S
Fe243 O255 2.077 . S
Fe243 O261 1.935 1_565 S
Fe243 O265 2.077 . S
O244 Fe240 1.713 1_455 S
O244 Fe242 1.886 . S
O245 Fe242 1.715 1_565 S
O245 Fe247 1.892 . S
O246 Fe243 1.886 . S
O246 Fe247 1.708 1_655 S
Fe247 O245 1.892 . S
Fe247 O246 1.708 1_455 S
Fe247 O251 2.083 . S
Fe247 O256 1.931 1_455 S
Fe247 O258 2.083 . S
Fe247 O266 1.930 1_455 S
C248 O260 1.381 . S
C248 O261 1.421 . S
O249 Fe240 2.079 . S
O249 C262 1.381 . S
O250 Fe243 1.935 1_545 S
O250 C262 1.421 . S
O251 Fe247 2.083 . S
O251 C267 1.381 . S
O252 Fe242 1.935 1_565 S
O252 C267 1.421 . S
O253 Fe242 2.077 . S
O253 C257 1.381 . S
O254 Fe240 1.933 1_455 S
O254 C257 1.421 . S
O255 Fe243 2.077 . S
O255 C263 1.381 . S
O256 Fe247 1.931 1_655 S
O256 C263 1.421 . S
C257 O253 1.381 . S
C257 O254 1.421 . S
O258 Fe247 2.083 . S
O258 C270 1.381 . S
O259 Fe242 1.935 1_565 S
O259 C270 1.421 . S
O260 Fe240 2.079 . S
O260 C248 1.381 . S
O261 Fe243 1.935 1_545 S
O261 C248 1.421 . S
C262 O249 1.381 . S
C262 O250 1.421 . S
C263 O255 1.381 . S
C263 O256 1.421 . S
C264 O265 1.381 . S
C264 O266 1.421 . S
O265 Fe243 2.077 . S
O265 C264 1.381 . S
O266 Fe247 1.930 1_655 S
O266 C264 1.421 . S
C267 O251 1.381 . S
C267 O252 1.421 . S
O268 Fe242 2.077 . S
O268 C271 1.381 . S
O269 Fe240 1.934 1_455 S
O269 C271 1.421 . S
C270 O258 1.381 . S
C270 O259 1.421 . S
C271 O268 1.381 . S
C271 O269 1.421 . S
Fe272 O273 1.886 1_556 S
Fe272 O276 1.715 . S
Fe272 O281 2.077 . S
Fe272 O286 1.935 . S
Fe272 O292 2.077 1_556 S
Fe272 O301 1.935 1_556 S
O273 Fe272 1.886 1_554 S
O273 Fe275 1.715 1_565 S
Fe274 O276 1.886 . S
Fe274 O277 1.715 1_566 S
Fe274 O284 1.935 1_565 S
Fe274 O285 2.077 . S
Fe274 O291 1.935 1_566 S
Fe274 O300 2.077 1_556 S
Fe275 O273 1.715 1_545 S
Fe275 O278 1.886 . S
Fe275 O282 1.935 1_544 S
Fe275 O287 2.077 1_554 S
Fe275 O293 1.935 1_545 S
Fe275 O297 2.077 . S
O276 Fe272 1.715 . S
O276 Fe274 1.886 . S
O277 Fe274 1.715 1_544 S
O277 Fe279 1.886 . S
O278 Fe275 1.886 . S
O278 Fe279 1.715 . S
Fe279 O277 1.886 . S
Fe279 O278 1.715 . S
Fe279 O283 2.077 1_554 S
Fe279 O288 1.935 1_554 S
Fe279 O290 2.077 . S
Fe279 O298 1.935 . S
C280 O292 1.381 . S
C280 O293 1.421 . S
O281 Fe272 2.077 . S
O281 C294 1.381 . S
O282 Fe275 1.935 1_566 S
O282 C294 1.421 . S
O283 Fe279 2.077 1_556 S
O283 C299 1.381 . S
O284 Fe274 1.935 1_545 S
O284 C299 1.421 . S
O285 Fe274 2.077 . S
O285 C289 1.381 . S
O286 Fe272 1.935 . S
O286 C289 1.421 . S
O287 Fe275 2.077 1_556 S
O287 C295 1.381 . S
O288 Fe279 1.935 1_556 S
O288 C295 1.421 . S
C289 O285 1.381 . S
C289 O286 1.421 . S
O290 Fe279 2.077 . S
O290 C302 1.381 . S
O291 Fe274 1.935 1_544 S
O291 C302 1.421 . S
O292 Fe272 2.077 1_554 S
O292 C280 1.381 . S
O293 Fe275 1.935 1_565 S
O293 C280 1.421 . S
C294 O281 1.381 . S
C294 O282 1.421 . S
C295 O287 1.381 . S
C295 O288 1.421 . S
C296 O297 1.381 . S
C296 O298 1.421 . S
O297 Fe275 2.077 . S
O297 C296 1.381 . S
O298 Fe279 1.935 . S
O298 C296 1.421 . S
C299 O283 1.381 . S
C299 O284 1.421 . S
O300 Fe274 2.077 1_554 S
O300 C303 1.381 . S
O301 Fe272 1.935 1_554 S
O301 C303 1.421 . S
C302 O290 1.381 . S
C302 O291 1.421 . S
C303 O300 1.381 . S
C303 O301 1.421 . S
Fe304 O305 1.887 1_554 S
Fe304 O308 1.713 1_655 S
Fe304 O313 2.079 1_554 S
Fe304 O318 1.934 1_654 S
Fe304 O324 2.079 . S
Fe304 O333 1.934 1_655 S
O305 Fe304 1.887 1_556 S
O305 Fe307 1.715 . S
Fe306 O308 1.886 . S
Fe306 O309 1.715 . S
Fe306 O316 1.935 1_554 S
Fe306 O317 2.077 1_554 S
Fe306 O323 1.935 . S
Fe306 O332 2.077 . S
Fe307 O305 1.715 . S
Fe307 O310 1.886 . S
Fe307 O314 1.935 . S
Fe307 O319 2.077 . S
Fe307 O325 1.935 1_556 S
Fe307 O329 2.077 1_556 S
O308 Fe304 1.713 1_455 S
O308 Fe306 1.886 . S
O309 Fe306 1.715 . S
O309 Fe311 1.892 1_554 S
O310 Fe307 1.886 . S
O310 Fe311 1.709 1_655 S
Fe311 O309 1.892 1_556 S
Fe311 O310 1.709 1_455 S
Fe311 O315 2.083 . S
Fe311 O320 1.931 1_455 S
Fe311 O322 2.082 1_556 S
Fe311 O330 1.930 1_456 S
C312 O324 1.381 . S
C312 O325 1.421 . S
O313 Fe304 2.079 1_556 S
O313 C326 1.381 . S
O314 Fe307 1.935 . S
O314 C326 1.421 . S
O315 Fe311 2.083 . S
O315 C331 1.381 . S
O316 Fe306 1.935 1_556 S
O316 C331 1.421 . S
O317 Fe306 2.077 1_556 S
O317 C321 1.381 . S
O318 Fe304 1.934 1_456 S
O318 C321 1.421 . S
O319 Fe307 2.077 . S
O319 C327 1.381 . S
O320 Fe311 1.931 1_655 S
O320 C327 1.421 . S
C321 O317 1.381 . S
C321 O318 1.421 . S
O322 Fe311 2.082 1_554 S
O322 C334 1.381 . S
O323 Fe306 1.935 . S
O323 C334 1.421 . S
O324 Fe304 2.079 . S
O324 C312 1.381 . S
O325 Fe307 1.935 1_554 S
O325 C312 1.421 . S
C326 O313 1.381 . S
C326 O314 1.421 . S
C327 O319 1.381 . S
C327 O320 1.421 . S
C328 O329 1.381 . S
C328 O330 1.421 . S
O329 Fe307 2.077 1_554 S
O329 C328 1.381 . S
O330 Fe311 1.930 1_654 S
O330 C328 1.421 . S
C331 O315 1.381 . S
C331 O316 1.421 . S
O332 Fe306 2.077 . S
O332 C335 1.381 . S
O333 Fe304 1.934 1_455 S
O333 C335 1.421 . S
C334 O322 1.381 . S
C334 O323 1.421 . S
C335 O332 1.381 . S
C335 O333 1.421 . S
Fe336 O337 1.886 . S
Fe336 O340 1.715 . S
Fe336 O345 2.077 . S
Fe336 O350 1.935 . S
Fe336 O356 2.077 . S
Fe336 O365 1.935 . S
O337 Fe336 1.886 . S
O337 Fe339 1.715 1_556 S
Fe338 O340 1.886 . S
Fe338 O341 1.715 1_556 S
Fe338 O348 1.935 1_556 S
Fe338 O349 2.077 . S
Fe338 O355 1.935 1_556 S
Fe338 O364 2.077 . S
Fe339 O337 1.715 1_554 S
Fe339 O342 1.886 . S
Fe339 O346 1.935 1_554 S
Fe339 O351 2.077 . S
Fe339 O357 1.935 1_554 S
Fe339 O361 2.077 . S
O340 Fe336 1.715 . S
O340 Fe338 1.886 . S
O341 Fe338 1.715 1_554 S
O341 Fe343 1.886 . S
O342 Fe339 1.886 . S
O342 Fe343 1.715 . S
Fe343 O341 1.886 . S
Fe343 O342 1.715 . S
Fe343 O347 2.077 . S
Fe343 O352 1.935 . S
Fe343 O354 2.077 . S
Fe343 O362 1.935 . S
C344 O356 1.381 . S
C344 O357 1.421 . S
O345 Fe336 2.077 . S
O345 C358 1.381 . S
O346 Fe339 1.935 1_556 S
O346 C358 1.421 . S
O347 Fe343 2.077 . S
O347 C363 1.381 . S
O348 Fe338 1.935 1_554 S
O348 C363 1.421 . S
O349 Fe338 2.077 . S
O349 C353 1.381 . S
O350 Fe336 1.935 . S
O350 C353 1.421 . S
O351 Fe339 2.077 . S
O351 C359 1.381 . S
O352 Fe343 1.935 . S
O352 C359 1.421 . S
C353 O349 1.381 . S
C353 O350 1.421 . S
O354 Fe343 2.077 . S
O354 C366 1.381 . S
O355 Fe338 1.935 1_554 S
O355 C366 1.421 . S
O356 Fe336 2.077 . S
O356 C344 1.381 . S
O357 Fe339 1.935 1_556 S
O357 C344 1.421 . S
C358 O345 1.381 . S
C358 O346 1.421 . S
C359 O351 1.381 . S
C359 O352 1.421 . S
C360 O361 1.381 . S
C360 O362 1.421 . S
O361 Fe339 2.077 . S
O361 C360 1.381 . S
O362 Fe343 1.935 . S
O362 C360 1.421 . S
C363 O347 1.381 . S
C363 O348 1.421 . S
O364 Fe338 2.077 . S
O364 C367 1.381 . S
O365 Fe336 1.935 . S
O365 C367 1.421 . S
C366 O354 1.381 . S
C366 O355 1.421 . S
C367 O364 1.381 . S
C367 O365 1.421 . S
Fe368 O369 1.886 1_655 S
Fe368 O372 1.715 . S
Fe368 O377 2.066 1_655 S
Fe368 O382 1.921 1_655 S
Fe368 O388 2.089 . S
Fe368 O397 1.948 . S
O369 Fe368 1.886 1_455 S
O369 Fe371 1.715 . S
Fe370 O372 1.886 . S
Fe370 O373 1.715 . S
Fe370 O380 1.935 1_655 S
Fe370 O381 2.077 1_655 S
Fe370 O387 1.935 . S
Fe370 O396 2.077 . S
Fe371 O369 1.715 . S
Fe371 O374 1.886 . S
Fe371 O378 1.935 . S
Fe371 O383 2.077 . S
Fe371 O389 1.935 1_455 S
Fe371 O393 2.077 1_455 S
O372 Fe368 1.715 . S
O372 Fe370 1.886 . S
O373 Fe370 1.715 . S
O373 Fe375 1.887 1_655 S
O374 Fe371 1.886 . S
O374 Fe375 1.715 . S
Fe375 O373 1.887 1_455 S
Fe375 O374 1.715 . S
Fe375 O379 2.093 . S
Fe375 O384 1.953 . S
Fe375 O386 2.062 1_455 S
Fe375 O394 1.916 1_455 S
C376 O388 1.381 . S
C376 O389 1.421 . S
O377 Fe368 2.066 1_455 S
O377 C390 1.381 . S
O378 Fe371 1.935 . S
O378 C390 1.421 . S
O379 Fe375 2.093 . S
O379 C395 1.381 . S
O380 Fe370 1.935 1_455 S
O380 C395 1.421 . S
O381 Fe370 2.077 1_455 S
O381 C385 1.381 . S
O382 Fe368 1.921 1_455 S
O382 C385 1.421 . S
O383 Fe371 2.077 . S
O383 C391 1.381 . S
O384 Fe375 1.953 . S
O384 C391 1.421 . S
C385 O381 1.381 . S
C385 O382 1.421 . S
O386 Fe375 2.062 1_655 S
O386 C398 1.381 . S
O387 Fe370 1.935 . S
O387 C398 1.421 . S
O388 Fe368 2.089 . S
O388 C376 1.381 . S
O389 Fe371 1.935 1_655 S
O389 C376 1.421 . S
C390 O377 1.381 . S
C390 O378 1.421 . S
C391 O383 1.381 . S
C391 O384 1.421 . S
C392 O393 1.381 . S
C392 O394 1.421 . S
O393 Fe371 2.077 1_655 S
O393 C392 1.381 . S
O394 Fe375 1.916 1_655 S
O394 C392 1.421 . S
C395 O379 1.381 . S
C395 O380 1.421 . S
O396 Fe370 2.077 . S
O396 C399 1.381 . S
O397 Fe368 1.948 . S
O397 C399 1.421 . S
C398 O386 1.381 . S
C398 O387 1.421 . S
C399 O396 1.381 . S
C399 O397 1.421 . S
Fe400 O401 1.886 . S
Fe400 O404 1.715 . S
Fe400 O409 2.077 . S
Fe400 O414 1.935 . S
Fe400 O420 2.077 . S
Fe400 O429 1.935 . S
O401 Fe400 1.886 . S
O401 Fe403 1.715 1_565 S
Fe402 O404 1.886 . S
Fe402 O405 1.715 1_565 S
Fe402 O412 1.935 1_565 S
Fe402 O413 2.077 . S
Fe402 O419 1.935 1_565 S
Fe402 O428 2.077 . S
Fe403 O401 1.715 1_545 S
Fe403 O406 1.886 . S
Fe403 O410 1.935 1_545 S
Fe403 O415 2.077 . S
Fe403 O421 1.935 1_545 S
Fe403 O425 2.077 . S
O404 Fe400 1.715 . S
O404 Fe402 1.886 . S
O405 Fe402 1.715 1_545 S
O405 Fe407 1.886 . S
O406 Fe403 1.886 . S
O406 Fe407 1.715 . S
Fe407 O405 1.886 . S
Fe407 O406 1.715 . S
Fe407 O411 2.077 . S
Fe407 O416 1.935 . S
Fe407 O418 2.077 . S
Fe407 O426 1.935 . S
C408 O420 1.381 . S
C408 O421 1.421 . S
O409 Fe400 2.077 . S
O409 C422 1.381 . S
O410 Fe403 1.935 1_565 S
O410 C422 1.421 . S
O411 Fe407 2.077 . S
O411 C427 1.381 . S
O412 Fe402 1.935 1_545 S
O412 C427 1.421 . S
O413 Fe402 2.077 . S
O413 C417 1.381 . S
O414 Fe400 1.935 . S
O414 C417 1.421 . S
O415 Fe403 2.077 . S
O415 C423 1.381 . S
O416 Fe407 1.935 . S
O416 C423 1.421 . S
C417 O413 1.381 . S
C417 O414 1.421 . S
O418 Fe407 2.077 . S
O418 C430 1.381 . S
O419 Fe402 1.935 1_545 S
O419 C430 1.421 . S
O420 Fe400 2.077 . S
O420 C408 1.381 . S
O421 Fe403 1.935 1_565 S
O421 C408 1.421 . S
C422 O409 1.381 . S
C422 O410 1.421 . S
C423 O415 1.381 . S
C423 O416 1.421 . S
C424 O425 1.381 . S
C424 O426 1.421 . S
O425 Fe403 2.077 . S
O425 C424 1.381 . S
O426 Fe407 1.935 . S
O426 C424 1.421 . S
C427 O411 1.381 . S
C427 O412 1.421 . S
O428 Fe402 2.077 . S
O428 C431 1.381 . S
O429 Fe400 1.935 . S
O429 C431 1.421 . S
C430 O418 1.381 . S
C430 O419 1.421 . S
C431 O428 1.381 . S
C431 O429 1.421 . S
C432 C433 1.387 . S
C432 H436 0.950 . S
C432 C441 1.390 . S
C433 C432 1.387 . S
C433 C435 1.387 . S
H434 C441 0.950 . S
C435 C433 1.387 . S
C435 C437 1.390 . S
C435 H439 0.950 . S
H436 C432 0.950 . S
C437 C435 1.390 . S
C437 C438 1.387 . S
C437 H440 0.950 . S
C438 C437 1.387 . S
C438 C441 1.387 . S
H439 C435 0.950 . S
H440 C437 0.950 . S
C441 C432 1.390 . S
C441 H434 0.950 . S
C441 C438 1.387 . S
C442 C443 1.387 . S
C442 H446 0.950 . S
C442 C451 1.390 . S
C443 C442 1.387 . S
C443 C445 1.387 . S
H444 C451 0.950 . S
C445 C443 1.387 . S
C445 C447 1.390 . S
C445 H449 0.950 . S
H446 C442 0.950 . S
C447 C445 1.390 . S
C447 C448 1.387 . S
C447 H450 0.950 . S
C448 C447 1.387 . S
C448 C451 1.387 . S
H449 C445 0.950 . S
H450 C447 0.950 . S
C451 C442 1.390 . S
C451 H444 0.950 . S
C451 C448 1.387 . S
C452 C453 1.387 . S
C452 H456 0.950 . S
C452 C461 1.390 . S
C453 C452 1.387 . S
C453 C455 1.387 . S
H454 C461 0.950 . S
C455 C453 1.387 . S
C455 C457 1.390 . S
C455 H459 0.950 . S
H456 C452 0.950 . S
C457 C455 1.390 . S
C457 C458 1.387 . S
C457 H460 0.950 . S
C458 C457 1.387 . S
C458 C461 1.387 . S
H459 C455 0.950 . S
H460 C457 0.950 . S
C461 C452 1.390 . S
C461 H454 0.950 . S
C461 C458 1.387 . S
C462 C463 1.387 . S
C462 H466 0.950 . S
C462 C471 1.390 . S
C463 C462 1.387 . S
C463 C465 1.387 . S
H464 C471 0.950 . S
C465 C463 1.387 . S
C465 C467 1.390 . S
C465 H469 0.950 . S
H466 C462 0.950 . S
C467 C465 1.390 . S
C467 C468 1.387 . S
C467 H470 0.950 . S
C468 C467 1.387 . S
C468 C471 1.387 . S
H469 C465 0.950 . S
H470 C467 0.950 . S
C471 C462 1.390 . S
C471 H464 0.950 . S
C471 C468 1.387 . S
C472 C473 1.387 . S
C472 H476 0.950 . S
C472 C481 1.390 . S
C473 C472 1.387 . S
C473 C475 1.387 . S
H474 C481 0.950 . S
C475 C473 1.387 . S
C475 C477 1.390 . S
C475 H479 0.950 . S
H476 C472 0.950 . S
C477 C475 1.390 . S
C477 C478 1.387 . S
C477 H480 0.950 . S
C478 C477 1.387 . S
C478 C481 1.387 . S
H479 C475 0.950 . S
H480 C477 0.950 . S
C481 C472 1.390 . S
C481 H474 0.950 . S
C481 C478 1.387 . S
C482 C483 1.387 . S
C482 H486 0.950 . S
C482 C491 1.390 . S
C483 C482 1.387 . S
C483 C485 1.387 . S
H484 C491 0.950 . S
C485 C483 1.387 . S
C485 C487 1.390 . S
C485 H489 0.950 . S
H486 C482 0.950 . S
C487 C485 1.390 . S
C487 C488 1.387 . S
C487 H490 0.950 . S
C488 C487 1.387 . S
C488 C491 1.387 . S
H489 C485 0.950 . S
H490 C487 0.950 . S
C491 C482 1.390 . S
C491 H484 0.950 . S
C491 C488 1.387 . S
C492 C493 1.387 . S
C492 H496 0.950 . S
C492 C501 1.390 . S
C493 C492 1.387 . S
C493 C495 1.387 . S
H494 C501 0.950 . S
C495 C493 1.387 . S
C495 C497 1.390 . S
C495 H499 0.950 . S
H496 C492 0.950 . S
C497 C495 1.390 . S
C497 C498 1.387 . S
C497 H500 0.950 . S
C498 C497 1.387 . S
C498 C501 1.387 . S
H499 C495 0.950 . S
H500 C497 0.950 . S
C501 C492 1.390 . S
C501 H494 0.950 . S
C501 C498 1.387 . S
C502 C503 1.387 . S
C502 H506 0.950 . S
C502 C511 1.390 . S
C503 C502 1.387 . S
C503 C505 1.387 . S
H504 C511 0.950 . S
C505 C503 1.387 . S
C505 C507 1.390 . S
C505 H509 0.950 . S
H506 C502 0.950 . S
C507 C505 1.390 . S
C507 C508 1.387 . S
C507 H510 0.950 . S
C508 C507 1.387 . S
C508 C511 1.387 . S
H509 C505 0.950 . S
H510 C507 0.950 . S
C511 C502 1.390 . S
C511 H504 0.950 . S
C511 C508 1.387 . S
C512 C513 1.387 . S
C512 H516 0.950 . S
C512 C521 1.390 . S
C513 C512 1.387 . S
C513 C515 1.387 . S
H514 C521 0.950 . S
C515 C513 1.387 . S
C515 C517 1.390 . S
C515 H519 0.950 . S
H516 C512 0.950 . S
C517 C515 1.390 . S
C517 C518 1.387 . S
C517 H520 0.950 . S
C518 C517 1.387 . S
C518 C521 1.387 . S
H519 C515 0.950 . S
H520 C517 0.950 . S
C521 C512 1.390 . S
C521 H514 0.950 . S
C521 C518 1.387 . S
C522 C523 1.387 . S
C522 H526 0.950 . S
C522 C531 1.390 . S
C523 C522 1.387 . S
C523 C525 1.387 . S
H524 C531 0.950 . S
C525 C523 1.387 . S
C525 C527 1.390 . S
C525 H529 0.950 . S
H526 C522 0.950 . S
C527 C525 1.390 . S
C527 C528 1.387 . S
C527 H530 0.950 . S
C528 C527 1.387 . S
C528 C531 1.387 . S
H529 C525 0.950 . S
H530 C527 0.950 . S
C531 C522 1.390 . S
C531 H524 0.950 . S
C531 C528 1.387 . S
C532 C533 1.387 . S
C532 H536 0.950 . S
C532 C541 1.390 . S
C533 C532 1.387 . S
C533 C535 1.387 . S
H534 C541 0.950 . S
C535 C533 1.387 . S
C535 C537 1.390 . S
C535 H539 0.950 . S
H536 C532 0.950 . S
C537 C535 1.390 . S
C537 C538 1.387 . S
C537 H540 0.950 . S
C538 C537 1.387 . S
C538 C541 1.387 . S
H539 C535 0.950 . S
H540 C537 0.950 . S
C541 C532 1.390 . S
C541 H534 0.950 . S
C541 C538 1.387 . S
C542 C543 1.387 . S
C542 H546 0.950 . S
C542 C551 1.390 . S
C543 C542 1.387 . S
C543 C545 1.387 . S
H544 C551 0.950 . S
C545 C543 1.387 . S
C545 C547 1.390 . S
C545 H549 0.950 . S
H546 C542 0.950 . S
C547 C545 1.390 . S
C547 C548 1.387 . S
C547 H550 0.950 . S
C548 C547 1.387 . S
C548 C551 1.387 . S
H549 C545 0.950 . S
H550 C547 0.950 . S
C551 C542 1.390 . S
C551 H544 0.950 . S
C551 C548 1.387 . S
C552 C553 1.387 . S
C552 H556 0.950 . S
C552 C561 1.390 . S
C553 C552 1.387 . S
C553 C555 1.387 . S
H554 C561 0.950 . S
C555 C553 1.387 . S
C555 C557 1.390 . S
C555 H559 0.950 . S
H556 C552 0.950 . S
C557 C555 1.390 . S
C557 C558 1.387 . S
C557 H560 0.950 . S
C558 C557 1.387 . S
C558 C561 1.387 . S
H559 C555 0.950 . S
H560 C557 0.950 . S
C561 C552 1.390 . S
C561 H554 0.950 . S
C561 C558 1.387 . S
C562 C563 1.387 . S
C562 H566 0.950 . S
C562 C571 1.390 . S
C563 C562 1.387 . S
C563 C565 1.387 . S
H564 C571 0.950 . S
C565 C563 1.387 . S
C565 C567 1.390 . S
C565 H569 0.950 . S
H566 C562 0.950 . S
C567 C565 1.390 . S
C567 C568 1.387 . S
C567 H570 0.950 . S
C568 C567 1.387 . S
C568 C571 1.387 . S
H569 C565 0.950 . S
H570 C567 0.950 . S
C571 C562 1.390 . S
C571 H564 0.950 . S
C571 C568 1.387 . S
C572 C573 1.387 . S
C572 H576 0.950 . S
C572 C581 1.390 . S
C573 C572 1.387 . S
C573 C575 1.387 . S
H574 C581 0.950 . S
C575 C573 1.387 . S
C575 C577 1.390 . S
C575 H579 0.950 . S
H576 C572 0.950 . S
C577 C575 1.390 . S
C577 C578 1.387 . S
C577 H580 0.950 . S
C578 C577 1.387 . S
C578 C581 1.387 . S
H579 C575 0.950 . S
H580 C577 0.950 . S
C581 C572 1.390 . S
C581 H574 0.950 . S
C581 C578 1.387 . S
C582 C583 1.387 . S
C582 H586 0.950 . S
C582 C591 1.390 . S
C583 C582 1.387 . S
C583 C585 1.387 . S
H584 C591 0.950 . S
C585 C583 1.387 . S
C585 C587 1.390 . S
C585 H589 0.950 . S
H586 C582 0.950 . S
C587 C585 1.390 . S
C587 C588 1.387 . S
C587 H590 0.950 . S
C588 C587 1.387 . S
C588 C591 1.387 . S
H589 C585 0.950 . S
H590 C587 0.950 . S
C591 C582 1.390 . S
C591 H584 0.950 . S
C591 C588 1.387 . S
C592 C593 1.387 . S
C592 H596 0.950 . S
C592 C601 1.390 . S
C593 C592 1.387 . S
C593 C595 1.387 . S
H594 C601 0.950 . S
C595 C593 1.387 . S
C595 C597 1.390 . S
C595 H599 0.950 . S
H596 C592 0.950 . S
C597 C595 1.390 . S
C597 C598 1.387 . S
C597 H600 0.950 . S
C598 C597 1.387 . S
C598 C601 1.387 . S
H599 C595 0.950 . S
H600 C597 0.950 . S
C601 C592 1.390 . S
C601 H594 0.950 . S
C601 C598 1.387 . S
C602 C603 1.387 . S
C602 H606 0.950 . S
C602 C611 1.390 . S
C603 C602 1.387 . S
C603 C605 1.387 . S
H604 C611 0.950 . S
C605 C603 1.387 . S
C605 C607 1.390 . S
C605 H609 0.950 . S
H606 C602 0.950 . S
C607 C605 1.390 . S
C607 C608 1.387 . S
C607 H610 0.950 . S
C608 C607 1.387 . S
C608 C611 1.387 . S
H609 C605 0.950 . S
H610 C607 0.950 . S
C611 C602 1.390 . S
C611 H604 0.950 . S
C611 C608 1.387 . S
C612 C613 1.387 . S
C612 H616 0.950 . S
C612 C621 1.390 . S
C613 C612 1.387 . S
C613 C615 1.387 . S
H614 C621 0.950 . S
C615 C613 1.387 . S
C615 C617 1.390 . S
C615 H619 0.950 . S
H616 C612 0.950 . S
C617 C615 1.390 . S
C617 C618 1.387 . S
C617 H620 0.950 . S
C618 C617 1.387 . S
C618 C621 1.387 . S
H619 C615 0.950 . S
H620 C617 0.950 . S
C621 C612 1.390 . S
C621 H614 0.950 . S
C621 C618 1.387 . S
C622 C623 1.387 . S
C622 H626 0.950 . S
C622 C631 1.390 . S
C623 C622 1.387 . S
C623 C625 1.387 . S
H624 C631 0.950 . S
C625 C623 1.387 . S
C625 C627 1.390 . S
C625 H629 0.950 . S
H626 C622 0.950 . S
C627 C625 1.390 . S
C627 C628 1.387 . S
C627 H630 0.950 . S
C628 C627 1.387 . S
C628 C631 1.387 . S
H629 C625 0.950 . S
H630 C627 0.950 . S
C631 C622 1.390 . S
C631 H624 0.950 . S
C631 C628 1.387 . S
C632 C633 1.387 . S
C632 H636 0.950 . S
C632 C641 1.390 . S
C633 C632 1.387 . S
C633 C635 1.387 . S
H634 C641 0.950 . S
C635 C633 1.387 . S
C635 C637 1.390 . S
C635 H639 0.950 . S
H636 C632 0.950 . S
C637 C635 1.390 . S
C637 C638 1.387 . S
C637 H640 0.950 . S
C638 C637 1.387 . S
C638 C641 1.387 . S
H639 C635 0.950 . S
H640 C637 0.950 . S
C641 C632 1.390 . S
C641 H634 0.950 . S
C641 C638 1.387 . S
C642 C643 1.387 . S
C642 H646 0.950 . S
C642 C651 1.390 . S
C643 C642 1.387 . S
C643 C645 1.387 . S
H644 C651 0.950 . S
C645 C643 1.387 . S
C645 C647 1.390 . S
C645 H649 0.950 . S
H646 C642 0.950 . S
C647 C645 1.390 . S
C647 C648 1.387 . S
C647 H650 0.950 . S
C648 C647 1.387 . S
C648 C651 1.387 . S
H649 C645 0.950 . S
H650 C647 0.950 . S
C651 C642 1.390 . S
C651 H644 0.950 . S
C651 C648 1.387 . S
C652 C653 1.387 . S
C652 H656 0.950 . S
C652 C661 1.390 . S
C653 C652 1.387 . S
C653 C655 1.387 . S
H654 C661 0.950 . S
C655 C653 1.387 . S
C655 C657 1.390 . S
C655 H659 0.950 . S
H656 C652 0.950 . S
C657 C655 1.390 . S
C657 C658 1.387 . S
C657 H660 0.950 . S
C658 C657 1.387 . S
C658 C661 1.387 . S
H659 C655 0.950 . S
H660 C657 0.950 . S
C661 C652 1.390 . S
C661 H654 0.950 . S
C661 C658 1.387 . S
C662 C663 1.387 . S
C662 H666 0.950 . S
C662 C671 1.390 . S
C663 C662 1.387 . S
C663 C665 1.387 . S
H664 C671 0.950 . S
C665 C663 1.387 . S
C665 C667 1.390 . S
C665 H669 0.950 . S
H666 C662 0.950 . S
C667 C665 1.390 . S
C667 C668 1.387 . S
C667 H670 0.950 . S
C668 C667 1.387 . S
C668 C671 1.387 . S
H669 C665 0.950 . S
H670 C667 0.950 . S
C671 C662 1.390 . S
C671 H664 0.950 . S
C671 C668 1.387 . S
C672 C673 1.387 . S
C672 H676 0.950 . S
C672 C681 1.390 . S
C673 C672 1.387 . S
C673 C675 1.387 . S
H674 C681 0.950 . S
C675 C673 1.387 . S
C675 C677 1.390 . S
C675 H679 0.950 . S
H676 C672 0.950 . S
C677 C675 1.390 . S
C677 C678 1.387 . S
C677 H680 0.950 . S
C678 C677 1.387 . S
C678 C681 1.387 . S
H679 C675 0.950 . S
H680 C677 0.950 . S
C681 C672 1.390 . S
C681 H674 0.950 . S
C681 C678 1.387 . S
C682 C683 1.387 . S
C682 H686 0.950 . S
C682 C691 1.390 . S
C683 C682 1.387 . S
C683 C685 1.387 . S
H684 C691 0.950 . S
C685 C683 1.387 . S
C685 C687 1.390 . S
C685 H689 0.950 . S
H686 C682 0.950 . S
C687 C685 1.390 . S
C687 C688 1.387 . S
C687 H690 0.950 . S
C688 C687 1.387 . S
C688 C691 1.387 . S
H689 C685 0.950 . S
H690 C687 0.950 . S
C691 C682 1.390 . S
C691 H684 0.950 . S
C691 C688 1.387 . S
C692 C693 1.387 . S
C692 H696 0.950 . S
C692 C701 1.390 . S
C693 C692 1.387 . S
C693 C695 1.387 . S
H694 C701 0.950 . S
C695 C693 1.387 . S
C695 C697 1.390 . S
C695 H699 0.950 . S
H696 C692 0.950 . S
C697 C695 1.390 . S
C697 C698 1.387 . S
C697 H700 0.950 . S
C698 C697 1.387 . S
C698 C701 1.387 . S
H699 C695 0.950 . S
H700 C697 0.950 . S
C701 C692 1.390 . S
C701 H694 0.950 . S
C701 C698 1.387 . S
C702 C703 1.387 . S
C702 H706 0.950 . S
C702 C711 1.390 . S
C703 C702 1.387 . S
C703 C705 1.387 . S
H704 C711 0.950 . S
C705 C703 1.387 . S
C705 C707 1.390 . S
C705 H709 0.950 . S
H706 C702 0.950 . S
C707 C705 1.390 . S
C707 C708 1.387 . S
C707 H710 0.950 . S
C708 C707 1.387 . S
C708 C711 1.387 . S
H709 C705 0.950 . S
H710 C707 0.950 . S
C711 C702 1.390 . S
C711 H704 0.950 . S
C711 C708 1.387 . S
C712 C713 1.387 . S
C712 H716 0.950 . S
C712 C721 1.390 . S
C713 C712 1.387 . S
C713 C715 1.387 . S
H714 C721 0.950 . S
C715 C713 1.387 . S
C715 C717 1.390 . S
C715 H719 0.950 . S
H716 C712 0.950 . S
C717 C715 1.390 . S
C717 C718 1.387 . S
C717 H720 0.950 . S
C718 C717 1.387 . S
C718 C721 1.387 . S
H719 C715 0.950 . S
H720 C717 0.950 . S
C721 C712 1.390 . S
C721 H714 0.950 . S
C721 C718 1.387 . S
C722 C723 1.387 . S
C722 H726 0.950 . S
C722 C731 1.390 . S
C723 C722 1.387 . S
C723 C725 1.387 . S
H724 C731 0.950 . S
C725 C723 1.387 . S
C725 C727 1.390 . S
C725 H729 0.950 . S
H726 C722 0.950 . S
C727 C725 1.390 . S
C727 C728 1.387 . S
C727 H730 0.950 . S
C728 C727 1.387 . S
C728 C731 1.387 . S
H729 C725 0.950 . S
H730 C727 0.950 . S
C731 C722 1.390 . S
C731 H724 0.950 . S
C731 C728 1.387 . S
C732 C733 1.387 . S
C732 H736 0.950 . S
C732 C741 1.390 . S
C733 C732 1.387 . S
C733 C735 1.387 . S
H734 C741 0.950 . S
C735 C733 1.387 . S
C735 C737 1.390 . S
C735 H739 0.950 . S
H736 C732 0.950 . S
C737 C735 1.390 . S
C737 C738 1.387 . S
C737 H740 0.950 . S
C738 C737 1.387 . S
C738 C741 1.387 . S
H739 C735 0.950 . S
H740 C737 0.950 . S
C741 C732 1.390 . S
C741 H734 0.950 . S
C741 C738 1.387 . S
C742 C743 1.387 . S
C742 H746 0.950 . S
C742 C751 1.390 . S
C743 C742 1.387 . S
C743 C745 1.387 . S
H744 C751 0.950 . S
C745 C743 1.387 . S
C745 C747 1.390 . S
C745 H749 0.950 . S
H746 C742 0.950 . S
C747 C745 1.390 . S
C747 C748 1.387 . S
C747 H750 0.950 . S
C748 C747 1.387 . S
C748 C751 1.387 . S
H749 C745 0.950 . S
H750 C747 0.950 . S
C751 C742 1.390 . S
C751 H744 0.950 . S
C751 C748 1.387 . S
C752 C753 1.387 . S
C752 H756 0.950 . S
C752 C761 1.390 . S
C753 C752 1.387 . S
C753 C755 1.387 . S
H754 C761 0.950 . S
C755 C753 1.387 . S
C755 C757 1.390 . S
C755 H759 0.950 . S
H756 C752 0.950 . S
C757 C755 1.390 . S
C757 C758 1.387 . S
C757 H760 0.950 . S
C758 C757 1.387 . S
C758 C761 1.387 . S
H759 C755 0.950 . S
H760 C757 0.950 . S
C761 C752 1.390 . S
C761 H754 0.950 . S
C761 C758 1.387 . S
C762 C763 1.387 . S
C762 H766 0.950 . S
C762 C771 1.390 . S
C763 C762 1.387 . S
C763 C765 1.387 . S
H764 C771 0.950 . S
C765 C763 1.387 . S
C765 C767 1.390 . S
C765 H769 0.950 . S
H766 C762 0.950 . S
C767 C765 1.390 . S
C767 C768 1.387 . S
C767 H770 0.950 . S
C768 C767 1.387 . S
C768 C771 1.387 . S
H769 C765 0.950 . S
H770 C767 0.950 . S
C771 C762 1.390 . S
C771 H764 0.950 . S
C771 C768 1.387 . S
C772 C773 1.387 . S
C772 H776 0.950 . S
C772 C781 1.390 . S
C773 C772 1.387 . S
C773 C775 1.387 . S
H774 C781 0.950 . S
C775 C773 1.387 . S
C775 C777 1.390 . S
C775 H779 0.950 . S
H776 C772 0.950 . S
C777 C775 1.390 . S
C777 C778 1.387 . S
C777 H780 0.950 . S
C778 C777 1.387 . S
C778 C781 1.387 . S
H779 C775 0.950 . S
H780 C777 0.950 . S
C781 C772 1.390 . S
C781 H774 0.950 . S
C781 C778 1.387 . S
C782 C783 1.387 . S
C782 H786 0.950 . S
C782 C791 1.390 . S
C783 C782 1.387 . S
C783 C785 1.387 . S
H784 C791 0.950 . S
C785 C783 1.387 . S
C785 C787 1.390 . S
C785 H789 0.950 . S
H786 C782 0.950 . S
C787 C785 1.390 . S
C787 C788 1.387 . S
C787 H790 0.950 . S
C788 C787 1.387 . S
C788 C791 1.387 . S
H789 C785 0.950 . S
H790 C787 0.950 . S
C791 C782 1.390 . S
C791 H784 0.950 . S
C791 C788 1.387 . S
C792 C793 1.387 . S
C792 H796 0.950 . S
C792 C801 1.390 . S
C793 C792 1.387 . S
C793 C795 1.387 . S
H794 C801 0.950 . S
C795 C793 1.387 . S
C795 C797 1.390 . S
C795 H799 0.950 . S
H796 C792 0.950 . S
C797 C795 1.390 . S
C797 C798 1.387 . S
C797 H800 0.950 . S
C798 C797 1.387 . S
C798 C801 1.387 . S
H799 C795 0.950 . S
H800 C797 0.950 . S
C801 C792 1.390 . S
C801 H794 0.950 . S
C801 C798 1.387 . S
C802 C803 1.387 . S
C802 H806 0.950 . S
C802 C811 1.390 . S
C803 C802 1.387 . S
C803 C805 1.387 . S
H804 C811 0.950 . S
C805 C803 1.387 . S
C805 C807 1.390 . S
C805 H809 0.950 . S
H806 C802 0.950 . S
C807 C805 1.390 . S
C807 C808 1.387 . S
C807 H810 0.950 . S
C808 C807 1.387 . S
C808 C811 1.387 . S
H809 C805 0.950 . S
H810 C807 0.950 . S
C811 C802 1.390 . S
C811 H804 0.950 . S
C811 C808 1.387 . S
C812 C813 1.387 . S
C812 H816 0.950 . S
C812 C821 1.390 . S
C813 C812 1.387 . S
C813 C815 1.387 . S
H814 C821 0.950 . S
C815 C813 1.387 . S
C815 C817 1.390 . S
C815 H819 0.950 . S
H816 C812 0.950 . S
C817 C815 1.390 . S
C817 C818 1.387 . S
C817 H820 0.950 . S
C818 C817 1.387 . S
C818 C821 1.387 . S
H819 C815 0.950 . S
H820 C817 0.950 . S
C821 C812 1.390 . S
C821 H814 0.950 . S
C821 C818 1.387 . S
C822 C823 1.387 . S
C822 H826 0.950 . S
C822 C831 1.390 . S
C823 C822 1.387 . S
C823 C825 1.387 . S
H824 C831 0.950 . S
C825 C823 1.387 . S
C825 C827 1.390 . S
C825 H829 0.950 . S
H826 C822 0.950 . S
C827 C825 1.390 . S
C827 C828 1.387 . S
C827 H830 0.950 . S
C828 C827 1.387 . S
C828 C831 1.387 . S
H829 C825 0.950 . S
H830 C827 0.950 . S
C831 C822 1.390 . S
C831 H824 0.950 . S
C831 C828 1.387 . S
C832 C833 1.387 . S
C832 H836 0.950 . S
C832 C841 1.390 . S
C833 C832 1.387 . S
C833 C835 1.387 . S
H834 C841 0.950 . S
C835 C833 1.387 . S
C835 C837 1.390 . S
C835 H839 0.950 . S
H836 C832 0.950 . S
C837 C835 1.390 . S
C837 C838 1.387 . S
C837 H840 0.950 . S
C838 C837 1.387 . S
C838 C841 1.387 . S
H839 C835 0.950 . S
H840 C837 0.950 . S
C841 C832 1.390 . S
C841 H834 0.950 . S
C841 C838 1.387 . S
C842 C843 1.387 . S
C842 H846 0.950 . S
C842 C851 1.390 . S
C843 C842 1.387 . S
C843 C845 1.387 . S
H844 C851 0.950 . S
C845 C843 1.387 . S
C845 C847 1.390 . S
C845 H849 0.950 . S
H846 C842 0.950 . S
C847 C845 1.390 . S
C847 C848 1.387 . S
C847 H850 0.950 . S
C848 C847 1.387 . S
C848 C851 1.387 . S
H849 C845 0.950 . S
H850 C847 0.950 . S
C851 C842 1.390 . S
C851 H844 0.950 . S
C851 C848 1.387 . S
C852 C853 1.387 . S
C852 H856 0.950 . S
C852 C861 1.390 . S
C853 C852 1.387 . S
C853 C855 1.387 . S
H854 C861 0.950 . S
C855 C853 1.387 . S
C855 C857 1.390 . S
C855 H859 0.950 . S
H856 C852 0.950 . S
C857 C855 1.390 . S
C857 C858 1.387 . S
C857 H860 0.950 . S
C858 C857 1.387 . S
C858 C861 1.387 . S
H859 C855 0.950 . S
H860 C857 0.950 . S
C861 C852 1.390 . S
C861 H854 0.950 . S
C861 C858 1.387 . S
C862 C863 1.387 . S
C862 H866 0.950 . S
C862 C871 1.390 . S
C863 C862 1.387 . S
C863 C865 1.387 . S
H864 C871 0.950 . S
C865 C863 1.387 . S
C865 C867 1.390 . S
C865 H869 0.950 . S
H866 C862 0.950 . S
C867 C865 1.390 . S
C867 C868 1.387 . S
C867 H870 0.950 . S
C868 C867 1.387 . S
C868 C871 1.387 . S
H869 C865 0.950 . S
H870 C867 0.950 . S
C871 C862 1.390 . S
C871 H864 0.950 . S
C871 C868 1.387 . S
C872 C873 1.387 . S
C872 H876 0.950 . S
C872 C881 1.390 . S
C873 C872 1.387 . S
C873 C875 1.387 . S
H874 C881 0.950 . S
C875 C873 1.387 . S
C875 C877 1.390 . S
C875 H879 0.950 . S
H876 C872 0.950 . S
C877 C875 1.390 . S
C877 C878 1.387 . S
C877 H880 0.950 . S
C878 C877 1.387 . S
C878 C881 1.387 . S
H879 C875 0.950 . S
H880 C877 0.950 . S
C881 C872 1.390 . S
C881 H874 0.950 . S
C881 C878 1.387 . S
C882 C883 1.387 . S
C882 H886 0.950 . S
C882 C891 1.390 . S
C883 C882 1.387 . S
C883 C885 1.387 . S
H884 C891 0.950 . S
C885 C883 1.387 . S
C885 C887 1.390 . S
C885 H889 0.950 . S
H886 C882 0.950 . S
C887 C885 1.390 . S
C887 C888 1.387 . S
C887 H890 0.950 . S
C888 C887 1.387 . S
C888 C891 1.387 . S
H889 C885 0.950 . S
H890 C887 0.950 . S
C891 C882 1.390 . S
C891 H884 0.950 . S
C891 C888 1.387 . S
C892 C893 1.387 . S
C892 H896 0.950 . S
C892 C901 1.390 . S
C893 C892 1.387 . S
C893 C895 1.387 . S
H894 C901 0.950 . S
C895 C893 1.387 . S
C895 C897 1.390 . S
C895 H899 0.950 . S
H896 C892 0.950 . S
C897 C895 1.390 . S
C897 C898 1.387 . S
C897 H900 0.950 . S
C898 C897 1.387 . S
C898 C901 1.387 . S
H899 C895 0.950 . S
H900 C897 0.950 . S
C901 C892 1.390 . S
C901 H894 0.950 . S
C901 C898 1.387 . S
C902 C903 1.387 . S
C902 H906 0.950 . S
C902 C911 1.390 . S
C903 C902 1.387 . S
C903 C905 1.387 . S
H904 C911 0.950 . S
C905 C903 1.387 . S
C905 C907 1.390 . S
C905 H909 0.950 . S
H906 C902 0.950 . S
C907 C905 1.390 . S
C907 C908 1.387 . S
C907 H910 0.950 . S
C908 C907 1.387 . S
C908 C911 1.387 . S
H909 C905 0.950 . S
H910 C907 0.950 . S
C911 C902 1.390 . S
C911 H904 0.950 . S
C911 C908 1.387 . S
C438 C257 1.172 . S
C433 N6 1.018 . S
C448 C262 1.944 . S
C443 C57 1.944 . S
C458 C263 1.432 . S
C453 C61 1.448 . S
C463 N96 0.722 . S
C468 C267 0.701 . S
C473 C136 1.944 . S
C478 C270 1.944 . S
C488 C271 1.433 . S
C483 C160 1.444 . S
C493 N194 0.723 . S
C498 C248 0.702 . S
C503 N224 1.023 . S
C508 C264 1.173 . S
C518 C302 1.878 . S
C513 C10 1.946 . S
C523 N36 0.953 . S
C528 C328 0.965 . S
C538 C280 0.679 . S
C533 N74 0.693 . S
C548 C335 1.382 . S
C543 C100 1.446 . S
C553 C121 1.455 . S
C558 C289 1.392 . S
C568 C331 1.819 . S
C563 C177 1.863 . S
C573 C196 2.265 . S
C578 C295 2.226 . S
C583 C226 1.941 . S
C588 C326 1.906 . S
C593 C27 1.940 . S
C598 C334 1.902 . S
C603 N134 0.957 . S
C608 C321 0.970 . S
C618 C299 0.679 . S
C613 N156 0.693 . S
C628 C327 1.383 . S
C623 C181 1.448 . S
C633 C211 1.948 . S
C638 C294 1.879 . S
C643 C76 1.864 . S
C648 C312 1.817 . S
C658 C303 2.226 . S
C653 C117 2.265 . S
C663 C40 1.455 . S
C668 C296 1.390 . S
C673 N216 0.998 . S
C678 C358 1.036 . S
C683 C147 1.922 . S
C688 C353 1.884 . S
C698 C367 1.371 . S
C693 C151 1.426 . S
C708 C344 0.693 . S
C703 N186 0.709 . S
C713 C46 1.922 . S
C718 C360 1.883 . S
C728 C359 1.371 . S
C723 C70 1.424 . S
C733 N104 0.712 . S
C738 C363 0.700 . S
C743 N14 0.999 . S
C748 C366 1.036 . S
C753 C220 1.945 . S
C758 C392 1.961 . S
C768 C408 1.011 . S
C763 N126 0.964 . S
C773 N164 0.694 . S
C778 C390 0.650 . S
C783 C190 1.467 . S
C788 C423 1.406 . S
C798 C399 1.464 . S
C793 C31 1.464 . S
C803 C87 1.884 . S
C808 C417 1.840 . S
C818 C395 2.251 . S
C813 C106 2.263 . S
C828 C430 1.915 . S
C823 C16 1.959 . S
C838 C422 1.914 . S
C833 C237 1.959 . S
C843 N44 0.962 . S
C848 C427 1.004 . S
C853 N66 0.693 . S
C858 C398 0.653 . S
C868 C431 1.406 . S
C863 C91 1.468 . S
C873 C1 1.945 . S
C878 C385 1.958 . S
C883 C166 1.884 . S
C888 C424 1.839 . S
C898 C376 2.253 . S
C893 C207 2.263 . S
C908 C391 1.462 . S
C903 C130 1.464 . S
