# Generated by pormake.
# Topology pth, (4,4)-cn, num edge types: 1
# Building blocks:
#     Node 0, Type 0, BuildingBlock: NAHDIM_clean_sbu_0, # of connection points: 4
#     Node 1, Type 0, BuildingBlock: NAHDIM_clean_sbu_0, # of connection points: 4
#     Node 2, Type 0, BuildingBlock: NAHDIM_clean_sbu_0, # of connection points: 4
#     Node 3, Type 1, BuildingBlock: NAWXER_clean_sbu_0, # of connection points: 4
#     Node 4, Type 1, BuildingBlock: NAWXER_clean_sbu_0, # of connection points: 4
#     Node 5, Type 1, BuildingBlock: NAWXER_clean_sbu_0, # of connection points: 4
#     Edge 6, Type (0, 1), BuildingBlock: MIFKUJ_clean_linker_0, # of connection points: 2
#     Edge 7, Type (0, 1), BuildingBlock: MIFKUJ_clean_linker_0, # of connection points: 2
#     Edge 8, Type (0, 1), BuildingBlock: MIFKUJ_clean_linker_0, # of connection points: 2
#     Edge 9, Type (0, 1), BuildingBlock: MIFKUJ_clean_linker_0, # of connection points: 2
#     Edge 10, Type (0, 1), BuildingBlock: MIFKUJ_clean_linker_0, # of connection points: 2
#     Edge 11, Type (0, 1), BuildingBlock: MIFKUJ_clean_linker_0, # of connection points: 2
#     Edge 12, Type (0, 1), BuildingBlock: MIFKUJ_clean_linker_0, # of connection points: 2
#     Edge 13, Type (0, 1), BuildingBlock: MIFKUJ_clean_linker_0, # of connection points: 2
#     Edge 14, Type (0, 1), BuildingBlock: MIFKUJ_clean_linker_0, # of connection points: 2
#     Edge 15, Type (0, 1), BuildingBlock: MIFKUJ_clean_linker_0, # of connection points: 2
#     Edge 16, Type (0, 1), BuildingBlock: MIFKUJ_clean_linker_0, # of connection points: 2
#     Edge 17, Type (0, 1), BuildingBlock: MIFKUJ_clean_linker_0, # of connection points: 2
# Relax obj value: 0.052
# Max RMSD: 0.176
# Mean RMSD: 0.102
data_MOF--net-pth--node1-NAHDIM_clean_sbu_0--node2-NAWXER_clean_sbu_0--edge1-MIFKUJ_clean_linker_0
_symmetry_space_group_name_H-M    P1
_symmetry_Int_Tables_number       1
_symmetry_cell_setting            triclinic
loop_
_symmetry_equiv_pos_as_xyz
'x, y, z'
_cell_length_a     29.836033
_cell_length_b     30.008884
_cell_length_c     73.553973
_cell_angle_alpha  91.955743
_cell_angle_beta   89.990081
_cell_angle_gamma 120.62491
loop_
_atom_site_label
_atom_site_type_symbol
_atom_site_fract_x
_atom_site_fract_y
_atom_site_fract_z
_atom_type_partial_charge
C0 C 0.00926 0.99157 0.09604 0.0
O1 O 0.96864 0.99762 0.09546 0.0
O2 O 0.01828 0.10845 0.08761 0.0
Zn3 Zn 0.03169 0.06331 0.07033 0.0
O4 O 0.96856 0.0124 0.05536 0.0
C5 C 0.12099 0.15745 0.05851 0.0
O6 O 0.11894 0.17356 0.07514 0.0
O7 O 0.04746 0.01866 0.08583 0.0
C8 C 0.95604 0.0193 0.03966 0.0
O9 O 0.98338 0.06483 0.03246 0.0
C10 C 0.00584 0.14111 0.0829 0.0
O11 O 0.9954 0.1429 0.06568 0.0
O12 O 0.08981 0.11026 0.05365 0.0
C13 C 0.08923 0.16883 0.37275 0.0
O14 O 0.11342 0.14551 0.36631 0.0
O15 O 0.04333 0.03741 0.38067 0.0
Zn16 Zn 0.0539 0.09102 0.4001 0.0
O17 O 0.99292 0.07029 0.41664 0.0
C18 C 0.10572 0.05971 0.42256 0.0
O19 O 0.05969 0.01811 0.41968 0.0
O20 O 0.0648 0.15424 0.38754 0.0
C21 C 0.00448 0.09901 0.43105 0.0
O22 O 0.05308 0.13617 0.43388 0.0
C23 C 0.01024 0.98916 0.37978 0.0
O24 O 0.97415 0.96903 0.39215 0.0
O25 O 0.11517 0.10159 0.41541 0.0
C26 C 0.09111 0.04846 0.70947 0.0
O27 O 0.08944 0.091 0.71252 0.0
O28 O 0.9708 0.04192 0.71601 0.0
Zn29 Zn 0.00914 0.01981 0.73253 0.0
O30 O 0.05579 0.07561 0.75102 0.0
C31 C 0.91022 0.92701 0.73936 0.0
O32 O 0.89851 0.93372 0.72285 0.0
O33 O 0.05722 0.00716 0.71682 0.0
C34 C 0.08301 0.0637 0.7608 0.0
O35 O 0.07605 0.01689 0.75877 0.0
C36 C 0.93351 0.04787 0.7212 0.0
O37 O 0.92231 0.04465 0.73856 0.0
O38 O 0.95604 0.95694 0.7458 0.0
C39 C 0.09313 0.65684 0.25825 0.0
C40 C 0.10245 0.55615 0.20636 0.0
O41 O 0.1342 0.6647 0.25026 0.0
Zn42 Zn 0.10066 0.60717 0.23237 0.0
O43 O 0.04876 0.61917 0.25276 0.0
Zn44 Zn 0.01687 0.55902 0.23231 0.0
O45 O 0.98501 0.49682 0.2465 0.0
O46 O 0.07102 0.53985 0.24799 0.0
O47 O 0.05595 0.54078 0.21154 0.0
O48 O 0.14127 0.59351 0.21488 0.0
O49 O 0.05959 0.63087 0.21525 0.0
O50 O 0.97482 0.57806 0.21793 0.0
C51 C 0.02723 0.50096 0.25228 0.0
C52 C 0.01267 0.61736 0.21086 0.0
C53 C 0.55664 0.98361 0.58873 0.0
C54 C 0.45863 0.01356 0.54251 0.0
O55 O 0.52059 0.94923 0.57839 0.0
Zn56 Zn 0.50666 0.99649 0.5655 0.0
O57 O 0.57095 0.03146 0.58744 0.0
Zn58 Zn 0.55248 0.07826 0.57154 0.0
O59 O 0.52966 0.11023 0.58971 0.0
O60 O 0.47701 0.02553 0.58632 0.0
O61 O 0.49438 0.05534 0.55052 0.0
O62 O 0.45187 0.97005 0.54706 0.0
O63 O 0.57517 0.0373 0.54982 0.0
O64 O 0.61728 0.11982 0.55901 0.0
C65 C 0.48882 0.06899 0.59423 0.0
C66 C 0.61403 0.08343 0.54866 0.0
C67 C 0.43263 0.50592 0.92116 0.0
C68 C 0.5484 0.61544 0.87386 0.0
O69 O 0.43008 0.54207 0.91358 0.0
Zn70 Zn 0.48967 0.56309 0.89762 0.0
O71 O 0.46932 0.49729 0.91716 0.0
Zn72 Zn 0.53503 0.5259 0.90024 0.0
O73 O 0.59324 0.55531 0.91768 0.0
O74 O 0.55474 0.6014 0.91595 0.0
O75 O 0.56133 0.58454 0.88052 0.0
O76 O 0.50804 0.61539 0.87955 0.0
O77 O 0.46584 0.49582 0.88039 0.0
O78 O 0.51715 0.46412 0.88525 0.0
C79 C 0.59092 0.59522 0.92247 0.0
C80 C 0.4787 0.46176 0.8768 0.0
H81 H 0.98096 0.21635 0.07851 0.0
H82 H 0.00367 0.29112 0.099 0.0
H83 H 0.07355 0.23669 0.13704 0.0
H84 H 0.04928 0.16113 0.11704 0.0
H85 H 0.02621 0.27467 0.15515 0.0
H86 H 0.14777 0.3345 0.10695 0.0
H87 H 0.17664 0.34745 0.07516 0.0
H88 H 0.10026 0.43378 0.06655 0.0
H89 H 0.07045 0.4209 0.09825 0.0
H90 H 0.16586 0.51551 0.20474 0.0
H91 H 0.15897 0.44964 0.18223 0.0
H92 H 0.04579 0.46619 0.15133 0.0
H93 H 0.05139 0.53055 0.174 0.0
H94 H 0.12286 0.45016 0.13002 0.0
H95 H 0.99707 0.38157 0.17912 0.0
H96 H 0.97573 0.37176 0.21169 0.0
H97 H 0.0702 0.30332 0.21911 0.0
H98 H 0.09292 0.3137 0.18662 0.0
C99 C 0.00051 0.21997 0.09135 0.0
C100 C 0.01357 0.18295 0.09607 0.0
C101 C 0.0139 0.26296 0.10299 0.0
C102 C 0.0415 0.27023 0.11938 0.0
C103 C 0.05254 0.23214 0.12445 0.0
C104 C 0.03858 0.18888 0.11296 0.0
C105 C 0.05985 0.31795 0.13107 0.0
C106 C 0.04797 0.31296 0.14965 0.0
C107 C 0.08833 0.36813 0.12398 0.0
C108 C 0.10648 0.37632 0.10493 0.0
C109 C 0.13684 0.35596 0.09824 0.0
C110 C 0.1534 0.36331 0.08024 0.0
C111 C 0.14013 0.39125 0.06882 0.0
C112 C 0.11044 0.41208 0.0754 0.0
C113 C 0.09376 0.40483 0.0934 0.0
C114 C 0.14098 0.50627 0.1928 0.0
C115 C 0.10917 0.52782 0.19098 0.0
C116 C 0.13689 0.46863 0.18003 0.0
C117 C 0.10169 0.45309 0.16522 0.0
C118 C 0.07329 0.47791 0.16263 0.0
C119 C 0.07646 0.51451 0.17556 0.0
C120 C 0.08882 0.40643 0.15385 0.0
C121 C 0.10157 0.4117 0.13541 0.0
C122 C 0.06203 0.35656 0.16111 0.0
C123 C 0.04717 0.34896 0.1805 0.0
C124 C 0.01361 0.3648 0.18773 0.0
C125 C 0.00123 0.3591 0.20616 0.0
C126 C 0.02173 0.33708 0.21748 0.0
C127 C 0.05444 0.32048 0.21034 0.0
C128 C 0.06708 0.32625 0.19192 0.0
H129 H 0.01218 0.33279 0.23175 0.0
H130 H 0.15297 0.39687 0.05488 0.0
H131 H 0.89822 0.03985 0.42664 0.0
H132 H 0.83235 0.03861 0.44688 0.0
H133 H 0.95353 0.14616 0.48439 0.0
H134 H 0.01936 0.14741 0.46437 0.0
H135 H 0.87115 0.06983 0.50209 0.0
H136 H 0.89976 0.18987 0.45565 0.0
H137 H 0.90578 0.21783 0.42416 0.0
H138 H 0.74526 0.10193 0.41407 0.0
H139 H 0.7385 0.07275 0.44544 0.0
H140 H 0.71886 0.15231 0.55218 0.0
H141 H 0.78716 0.15768 0.53205 0.0
H142 H 0.6695 0.03983 0.49592 0.0
H143 H 0.60152 0.03365 0.51604 0.0
H144 H 0.75143 0.12368 0.47782 0.0
H145 H 0.72261 0.00443 0.52447 0.0
H146 H 0.71657 0.97672 0.55598 0.0
H147 H 0.87798 0.09033 0.56566 0.0
H148 H 0.88456 0.12002 0.53439 0.0
C149 C 0.91077 0.06278 0.43928 0.0
C150 C 0.96401 0.09404 0.44383 0.0
C151 C 0.87314 0.06223 0.45079 0.0
C152 C 0.88816 0.09285 0.46702 0.0
C153 C 0.94112 0.12238 0.47191 0.0
C154 C 0.97869 0.12316 0.46041 0.0
C155 C 0.84894 0.09569 0.4786 0.0
C156 C 0.84542 0.08224 0.49686 0.0
C157 C 0.81492 0.11118 0.47168 0.0
C158 C 0.81879 0.12877 0.45283 0.0
C159 C 0.86587 0.17006 0.44667 0.0
C160 C 0.86939 0.18618 0.42885 0.0
C161 C 0.82597 0.16157 0.41711 0.0
C162 C 0.77889 0.12089 0.42317 0.0
C163 C 0.77518 0.10457 0.44098 0.0
C164 C 0.70773 0.12833 0.53977 0.0
C165 C 0.65509 0.0925 0.53564 0.0
C166 C 0.74664 0.13119 0.52836 0.0
C167 C 0.73321 0.09886 0.51259 0.0
C168 C 0.68057 0.06505 0.50802 0.0
C169 C 0.64187 0.06148 0.51955 0.0
C170 C 0.77372 0.09788 0.50127 0.0
C171 C 0.77739 0.11157 0.48307 0.0
C172 C 0.80786 0.08263 0.50826 0.0
C173 C 0.80388 0.06502 0.52714 0.0
C174 C 0.75664 0.02409 0.53339 0.0
C175 C 0.75311 0.00796 0.55121 0.0
C176 C 0.7968 0.03187 0.56284 0.0
C177 C 0.8441 0.07198 0.55666 0.0
C178 C 0.84771 0.08859 0.53891 0.0
H179 H 0.79404 0.01921 0.57661 0.0
H180 H 0.82877 0.17412 0.40331 0.0
H181 H 0.922 0.89048 0.77146 0.0
H182 H 0.8535 0.83435 0.79212 0.0
H183 H 0.73665 0.82493 0.7551 0.0
H184 H 0.8049 0.8807 0.73426 0.0
H185 H 0.72545 0.84938 0.79212 0.0
H186 H 0.74571 0.72309 0.75724 0.0
H187 H 0.79476 0.68562 0.74313 0.0
H188 H 0.85087 0.67621 0.79577 0.0
H189 H 0.80274 0.71433 0.81019 0.0
H190 H 0.52043 0.65655 0.84619 0.0
H191 H 0.57554 0.7075 0.82121 0.0
H192 H 0.70631 0.70521 0.84527 0.0
H193 H 0.65131 0.65307 0.86958 0.0
H194 H 0.70188 0.68202 0.81131 0.0
H195 H 0.69133 0.81559 0.84621 0.0
H196 H 0.64672 0.85667 0.86119 0.0
H197 H 0.57713 0.85621 0.81003 0.0
H198 H 0.62086 0.81451 0.79478 0.0
C199 C 0.88171 0.87603 0.76762 0.0
C200 C 0.86885 0.88977 0.75118 0.0
C201 C 0.84264 0.84399 0.77943 0.0
C202 C 0.79006 0.82546 0.7751 0.0
C203 C 0.77701 0.83885 0.75867 0.0
C204 C 0.81604 0.87036 0.74673 0.0
C205 C 0.74904 0.79295 0.78799 0.0
C206 C 0.71952 0.81232 0.79614 0.0
C207 C 0.74216 0.74518 0.7934 0.0
C208 C 0.77091 0.72194 0.78478 0.0
C209 C 0.76883 0.7134 0.7658 0.0
C210 C 0.79641 0.69198 0.75774 0.0
C211 C 0.826 0.67864 0.76854 0.0
C212 C 0.82796 0.68659 0.78742 0.0
C213 C 0.80048 0.70804 0.79555 0.0
C214 C 0.56108 0.66749 0.84617 0.0
C215 C 0.58153 0.65062 0.85973 0.0
C216 C 0.59258 0.69664 0.83193 0.0
C217 C 0.64524 0.7103 0.83132 0.0
C218 C 0.66578 0.69478 0.84527 0.0
C219 C 0.63429 0.66507 0.85922 0.0
C220 C 0.67914 0.73908 0.816 0.0
C221 C 0.70726 0.71885 0.80727 0.0
C222 C 0.68517 0.78639 0.81026 0.0
C223 C 0.65884 0.81136 0.81941 0.0
C224 C 0.66616 0.82385 0.83819 0.0
C225 C 0.64111 0.84733 0.84672 0.0
C226 C 0.60897 0.85888 0.83658 0.0
C227 C 0.60194 0.84713 0.81787 0.0
C228 C 0.62687 0.8236 0.80928 0.0
H229 H 0.58962 0.87707 0.84321 0.0
H230 H 0.84733 0.66206 0.76228 0.0
H231 H 0.93373 0.93137 0.11956 0.0
H232 H 0.92962 0.86418 0.13833 0.0
H233 H 0.07824 0.8949 0.11831 0.0
H234 H 0.08243 0.96226 0.09916 0.0
H235 H 0.00773 0.79161 0.11828 0.0
H236 H 0.06893 0.93652 0.16066 0.0
H237 H 0.0683 0.00925 0.17705 0.0
H238 H 0.91918 0.90381 0.19908 0.0
H239 H 0.91857 0.83048 0.1826 0.0
H240 H 0.0807 0.67841 0.18579 0.0
H241 H 0.07182 0.73553 0.16529 0.0
H242 H 0.91781 0.68479 0.18522 0.0
H243 H 0.92637 0.62666 0.20594 0.0
H244 H 0.98394 0.79373 0.18502 0.0
H245 H 0.92679 0.64766 0.14389 0.0
H246 H 0.93065 0.57596 0.12808 0.0
H247 H 0.07546 0.68478 0.10419 0.0
H248 H 0.07291 0.75716 0.12008 0.0
C249 C 0.96576 0.92413 0.11916 0.0
C250 C 0.00854 0.95231 0.10788 0.0
C251 C 0.96336 0.88573 0.12997 0.0
C252 C 0.00381 0.87485 0.12986 0.0
C253 C 0.04661 0.90277 0.1186 0.0
C254 C 0.04908 0.94136 0.10774 0.0
C255 C 0.00083 0.83378 0.14134 0.0
C256 C 0.00315 0.79238 0.1329 0.0
C257 C 0.99327 0.83403 0.16034 0.0
C258 C 0.99344 0.87807 0.17023 0.0
C259 C 0.03577 0.92889 0.16886 0.0
C260 C 0.03569 0.97021 0.17819 0.0
C261 C 0.99365 0.96117 0.18905 0.0
C262 C 0.95167 0.91076 0.19063 0.0
C263 C 0.95153 0.8693 0.18131 0.0
C264 C 0.04468 0.67897 0.18575 0.0
C265 C 0.00425 0.64822 0.19753 0.0
C266 C 0.0396 0.71147 0.17394 0.0
C267 C 0.9941 0.71416 0.17367 0.0
C268 C 0.95319 0.68303 0.18522 0.0
C269 C 0.958 0.64979 0.19696 0.0
C270 C 0.99123 0.75185 0.16198 0.0
C271 C 0.98796 0.79272 0.17038 0.0
C272 C 0.99824 0.75126 0.14296 0.0
C273 C -0.00016 0.70785 0.1333 0.0
C274 C 0.95969 0.65631 0.13538 0.0
C275 C 0.9616 0.61553 0.12639 0.0
C276 C 0.00333 0.6258 0.11517 0.0
C277 C 0.04318 0.67689 0.11289 0.0
C278 C 0.04148 0.71781 0.12188 0.0
H279 H 0.00473 0.59417 0.10822 0.0
H280 H 0.99368 0.99322 0.19628 0.0
H281 H 0.10011 0.97263 0.43473 0.0
H282 H 0.16276 0.96586 0.45383 0.0
H283 H 0.26279 0.13217 0.45532 0.0
H284 H 0.20027 0.13927 0.4357 0.0
H285 H 0.31832 0.08439 0.45096 0.0
H286 H 0.18674 0.0711 0.49141 0.0
H287 H 0.09727 0.03726 0.5022 0.0
H288 H 0.07662 0.88525 0.50512 0.0
H289 H 0.16576 0.91804 0.49409 0.0
H290 H 0.46957 0.10101 0.52818 0.0
H291 H 0.41216 0.10794 0.5064 0.0
H292 H 0.31416 0.94144 0.50314 0.0
H293 H 0.37147 0.93405 0.52519 0.0
H294 H 0.25841 0.9898 0.50822 0.0
H295 H 0.39208 0.00494 0.46825 0.0
H296 H 0.48221 0.04046 0.45792 0.0
H297 H 0.49993 0.19123 0.45482 0.0
H298 H 0.4101 0.15678 0.46538 0.0
C299 C 0.13539 0.00791 0.43909 0.0
C300 C 0.14501 0.05659 0.43384 0.0
C301 C 0.17114 0.00392 0.45007 0.0
C302 C 0.217 0.04854 0.45629 0.0
C303 C 0.22747 0.09724 0.45074 0.0
C304 C 0.19172 0.10126 0.43958 0.0
C305 C 0.25346 0.04389 0.46872 0.0
C306 C 0.30545 0.06438 0.46361 0.0
C307 C 0.23633 0.01674 0.48503 0.0
C308 C 0.18278 0.99695 0.49176 0.0
C309 C 0.16299 0.03038 0.49422 0.0
C310 C 0.11235 0.0114 0.5004 0.0
C311 C 0.08124 0.95912 0.5043 0.0
C312 C 0.10075 0.92573 0.50207 0.0
C313 C 0.15134 0.9445 0.49587 0.0
C314 C 0.43603 0.06572 0.52277 0.0
C315 C 0.42505 0.0169 0.52846 0.0
C316 C 0.40338 0.06981 0.51023 0.0
C317 C 0.35917 0.02522 0.50302 0.0
C318 C 0.34823 0.97634 0.50852 0.0
C319 C 0.38105 0.97217 0.52107 0.0
C320 C 0.32319 0.03003 0.49043 0.0
C321 C 0.27127 0.0097 0.49555 0.0
C322 C 0.34052 0.05758 0.47421 0.0
C323 C 0.39448 0.07835 0.46777 0.0
C324 C 0.41532 0.04576 0.4655 0.0
C325 C 0.46633 0.06568 0.45958 0.0
C326 C 0.49682 0.11809 0.45576 0.0
C327 C 0.47629 0.15065 0.4578 0.0
C328 C 0.4253 0.13093 0.46374 0.0
H329 H 0.53631 0.13344 0.45118 0.0
H330 H 0.04204 0.9445 0.50909 0.0
H331 H 0.14569 0.04869 0.78368 0.0
H332 H 0.21809 0.11348 0.80278 0.0
H333 H 0.18778 0.23144 0.78513 0.0
H334 H 0.11544 0.16681 0.76577 0.0
H335 H 0.29063 0.26305 0.78381 0.0
H336 H 0.15359 0.18307 0.82714 0.0
H337 H 0.08402 0.11035 0.84349 0.0
H338 H 0.19454 0.07135 0.8634 0.0
H339 H 0.26469 0.14347 0.84696 0.0
H340 H 0.41533 0.46247 0.85061 0.0
H341 H 0.35582 0.39147 0.83003 0.0
H342 H 0.40941 0.29434 0.85149 0.0
H343 H 0.46968 0.36599 0.87241 0.0
H344 H 0.30158 0.24736 0.85039 0.0
H345 H 0.4406 0.334 0.80931 0.0
H346 H 0.5096 0.40838 0.79345 0.0
H347 H 0.39521 0.43617 0.76956 0.0
H348 H 0.32554 0.36241 0.7855 0.0
C349 C 0.15414 0.08834 0.78393 0.0
C350 C 0.1247 0.10258 0.77321 0.0
C351 C 0.19551 0.12531 0.7949 0.0
C352 C 0.20816 0.17722 0.79546 0.0
C353 C 0.17869 0.19156 0.78488 0.0
C354 C 0.1372 0.15455 0.7739 0.0
C355 C 0.2527 0.21677 0.80684 0.0
C356 C 0.29281 0.25989 0.7984 0.0
C357 C 0.25639 0.21168 0.82577 0.0
C358 C 0.21426 0.16828 0.83565 0.0
C359 C 0.16297 0.1587 0.83487 0.0
C360 C 0.12345 0.11765 0.84418 0.0
C361 C 0.13481 0.08614 0.85443 0.0
C362 C 0.18577 0.09572 0.85543 0.0
C363 C 0.22543 0.13669 0.84613 0.0
C364 C 0.415 0.42623 0.85087 0.0
C365 C 0.4471 0.41975 0.86318 0.0
C366 C 0.3811 0.38573 0.839 0.0
C367 C 0.37844 0.33776 0.83913 0.0
C368 C 0.41108 0.33121 0.85115 0.0
C369 C 0.4456 0.37214 0.863 0.0
C370 C 0.33903 0.29408 0.82741 0.0
C371 C 0.29981 0.25017 0.83577 0.0
C372 C 0.33608 0.2985 0.80841 0.0
C373 C 0.37784 0.34281 0.79871 0.0
C374 C 0.43017 0.35619 0.80079 0.0
C375 C 0.46941 0.39822 0.79176 0.0
C376 C 0.45681 0.42704 0.78053 0.0
C377 C 0.40491 0.41382 0.77827 0.0
C378 C 0.36552 0.37185 0.78728 0.0
H379 H 0.48725 0.45956 0.77356 0.0
H380 H 0.10417 0.0544 0.86164 0.0
H381 H 0.84115 0.04447 0.72698 0.0
H382 H 0.77511 0.02988 0.7041 0.0
H383 H 0.87609 0.03335 0.6615 0.0
H384 H 0.94263 0.0488 0.68422 0.0
H385 H 0.825 0.08142 0.65168 0.0
H386 H 0.78108 0.91866 0.67648 0.0
H387 H 0.76403 0.8589 0.70121 0.0
H388 H 0.63479 0.87438 0.71826 0.0
H389 H 0.65146 0.93475 0.69371 0.0
H390 H 0.63411 0.96384 0.58209 0.0
H391 H 0.69652 0.9677 0.60478 0.0
H392 H 0.60595 0.98253 0.64776 0.0
H393 H 0.54404 0.97931 0.62506 0.0
H394 H 0.65158 0.92241 0.65693 0.0
H395 H 0.6963 0.08505 0.6311 0.0
H396 H 0.71426 0.14364 0.60592 0.0
H397 H 0.84542 0.12932 0.59078 0.0
H398 H 0.8268 0.06861 0.61534 0.0
C399 C 0.84971 0.04305 0.71273 0.0
C400 C 0.89698 0.04729 0.70744 0.0
C401 C 0.81177 0.03435 0.69968 0.0
C402 C 0.82028 0.02942 0.68112 0.0
C403 C 0.86858 0.03668 0.67575 0.0
C404 C 0.90656 0.04547 0.68877 0.0
C405 C 0.77804 0.0143 0.66739 0.0
C406 C 0.78733 0.04633 0.65269 0.0
C407 C 0.72869 0.96874 0.66883 0.0
C408 C 0.71781 0.93159 0.68336 0.0
C409 C 0.74918 0.90953 0.68556 0.0
C410 C 0.73958 0.87553 0.69954 0.0
C411 C 0.69848 0.863 0.71135 0.0
C412 C 0.66668 0.8842 0.70912 0.0
C413 C 0.67613 0.91825 0.69516 0.0
C414 C 0.62658 0.96573 0.59643 0.0
C415 C 0.58416 0.97043 0.60199 0.0
C416 C 0.66232 0.96835 0.60934 0.0
C417 C 0.65597 0.97584 0.62791 0.0
C418 C 0.61135 0.97651 0.63351 0.0
C419 C 0.57599 0.97449 0.62059 0.0
C420 C 0.69865 0.9895 0.64124 0.0
C421 C 0.68938 0.95731 0.65587 0.0
C422 C 0.74817 0.03478 0.63967 0.0
C423 C 0.7596 0.07154 0.62491 0.0
C424 C 0.72847 0.09367 0.62223 0.0
C425 C 0.73872 0.12722 0.60803 0.0
C426 C 0.78067 0.13979 0.59664 0.0
C427 C 0.81258 0.11904 0.59948 0.0
C428 C 0.80209 0.08492 0.6135 0.0
H429 H 0.78863 0.16585 0.58568 0.0
H430 H 0.6912 0.83677 0.7222 0.0
H431 H 0.91094 0.91684 0.04693 0.0
H432 H 0.84819 0.84232 0.028 0.0
H433 H 0.84505 0.94502 0.9891 0.0
H434 H 0.9087 0.02016 0.00786 0.0
H435 H 0.74376 0.85831 0.99918 0.0
H436 H 0.91348 0.89473 0.97889 0.0
H437 H 0.0018 0.90907 0.98353 0.0
H438 H 0.93713 0.75781 0.00521 0.0
H439 H 0.8484 0.74288 0.00094 0.0
H440 H 0.62247 0.69705 0.92296 0.0
H441 H 0.68382 0.76556 0.94394 0.0
H442 H 0.70877 0.65513 0.97156 0.0
H443 H 0.64856 0.58621 0.9498 0.0
H444 H 0.79703 0.74164 0.96966 0.0
H445 H 0.62898 0.70054 0.98927 0.0
H446 H 0.53911 0.68329 0.98647 0.0
H447 H 0.59674 0.83808 0.96908 0.0
H448 H 0.68697 0.85606 0.97153 0.0
C449 C 0.89666 0.92372 0.03442 0.0
C450 C 0.91491 0.97449 0.02886 0.0
C451 C 0.86097 0.88104 0.0236 0.0
C452 C 0.84241 0.88827 0.00713 0.0
C453 C 0.85912 0.93878 0.00179 0.0
C454 C 0.89547 0.98159 0.01249 0.0
C455 C 0.80621 0.84307 0.99531 0.0
C456 C 0.75542 0.83305 0.99253 0.0
C457 C 0.82105 0.80908 0.98731 0.0
C458 C 0.87435 0.81793 0.98978 0.0
C459 C 0.91811 0.86472 0.9848 0.0
C460 C 0.96824 0.87291 0.98733 0.0
C461 C 0.97508 0.83444 0.99471 0.0
C462 C 0.93178 0.78762 0.99952 0.0
C463 C 0.88157 0.77925 0.99703 0.0
C464 C 0.64102 0.68726 0.93349 0.0
C465 C 0.63027 0.63618 0.93491 0.0
C466 C 0.67592 0.72647 0.94556 0.0
C467 C 0.69978 0.71534 0.95972 0.0
C468 C 0.69043 0.66457 0.96085 0.0
C469 C 0.6561 0.62526 0.94845 0.0
C470 C 0.7344 0.75711 0.97316 0.0
C471 C 0.78495 0.76651 0.97634 0.0
C472 C 0.71899 0.79002 0.98184 0.0
C473 C 0.66476 0.77951 0.98046 0.0
C474 C 0.62249 0.73081 0.98474 0.0
C475 C 0.57148 0.72091 0.98322 0.0
C476 C 0.56222 0.75953 0.97757 0.0
C477 C 0.60397 0.80819 0.97345 0.0
C478 C 0.65507 0.81828 0.97492 0.0
H479 H 0.52269 0.75178 0.9764 0.0
H480 H 0.01392 0.84085 0.99666 0.0
H481 H 0.0845 0.01929 0.35382 0.0
H482 H 0.10273 0.96437 0.33382 0.0
H483 H 0.97141 0.82819 0.35506 0.0
H484 H 0.95347 0.8831 0.37554 0.0
H485 H 0.05485 0.81789 0.35401 0.0
H486 H 0.96801 0.8689 0.31213 0.0
H487 H 0.9509 0.92955 0.29598 0.0
H488 H 0.10415 0.00151 0.27368 0.0
H489 H 0.12245 0.94171 0.28991 0.0
H490 H 0.02233 0.6334 0.28474 0.0
H491 H 0.01612 0.69297 0.30653 0.0
H492 H 0.15932 0.81951 0.28688 0.0
H493 H 0.16599 0.75955 0.26493 0.0
H494 H 0.07609 0.83804 0.28735 0.0
H495 H 0.15947 0.78115 0.32825 0.0
H496 H 0.173 0.71742 0.34387 0.0
H497 H 0.02183 0.65305 0.36746 0.0
H498 H 0.00704 0.71592 0.35177 0.0
C499 C 0.05905 0.97766 0.35415 0.0
C500 C 0.01747 0.95558 0.36632 0.0
C501 C 0.0695 0.94629 0.34263 0.0
C502 C 0.03827 0.89215 0.34284 0.0
C503 C 0.99608 0.86992 0.3547 0.0
C504 C 0.98568 0.90134 0.36632 0.0
C505 C 0.05091 0.85887 0.33114 0.0
C506 C 0.05882 0.82185 0.3394 0.0
C507 C 0.05763 0.86507 0.31215 0.0
C508 C 0.04679 0.90117 0.3024 0.0
C509 C 0.99823 0.89795 0.30391 0.0
C510 C 0.98829 0.93212 0.29472 0.0
C511 C 0.02647 0.96946 0.28385 0.0
C512 C 0.07464 0.97262 0.28213 0.0
C513 C 0.08481 0.93857 0.29131 0.0
C514 C 0.05304 0.67375 0.28525 0.0
C515 C 0.0946 0.69192 0.27311 0.0
C516 C 0.04951 0.7077 0.29776 0.0
C517 C 0.08729 0.76059 0.29834 0.0
C518 C 0.12984 0.77873 0.28665 0.0
C519 C 0.13378 0.74449 0.27422 0.0
C520 C 0.07964 0.79695 0.31022 0.0
C521 C 0.07255 0.83446 0.30199 0.0
C522 C 0.0732 0.79087 0.3292 0.0
C523 C 0.08199 0.75304 0.33871 0.0
C524 C 0.12892 0.75314 0.33665 0.0
C525 C 0.13685 0.71721 0.34554 0.0
C526 C 0.09826 0.68114 0.35662 0.0
C527 C 0.05168 0.68099 0.35886 0.0
C528 C 0.04353 0.71682 0.34999 0.0
H529 H 0.10448 0.65335 0.36349 0.0
H530 H 0.01868 0.99586 0.27674 0.0
H531 H 0.16827 0.13178 0.69279 0.0
H532 H 0.23781 0.13579 0.67431 0.0
H533 H 0.17839 0.97319 0.68166 0.0
H534 H 0.10857 0.96893 0.70053 0.0
H535 H 0.28364 0.02959 0.68582 0.0
H536 H 0.15775 0.01336 0.64185 0.0
H537 H 0.09699 0.03467 0.62724 0.0
H538 H 0.2238 0.18738 0.61712 0.0
H539 H 0.28526 0.16723 0.63191 0.0
H540 H 0.41393 0.98749 0.61228 0.0
H541 H 0.35069 0.98711 0.63337 0.0
H542 H 0.41947 0.15204 0.62858 0.0
H543 H 0.48343 0.15284 0.60736 0.0
H544 H 0.31108 0.09587 0.62345 0.0
H545 H 0.43741 0.1093 0.66685 0.0
H546 H 0.49686 0.0852 0.68078 0.0
H547 H 0.36739 0.93425 0.6912 0.0
H548 H 0.3072 0.95717 0.67707 0.0
C549 C 0.16975 0.09672 0.69048 0.0
C550 C 0.13266 0.04991 0.69807 0.0
C551 C 0.20954 0.0991 0.67985 0.0
C552 C 0.21292 0.05467 0.67641 0.0
C553 C 0.17636 0.00792 0.68411 0.0
C554 C 0.13642 0.00549 0.69482 0.0
C555 C 0.2549 0.05747 0.66482 0.0
C556 C 0.28923 0.0434 0.67209 0.0
C557 C 0.26288 0.07665 0.64706 0.0
C558 C 0.22603 0.08894 0.63816 0.0
C559 C 0.17262 0.05164 0.63665 0.0
C560 C 0.13807 0.06348 0.62831 0.0
C561 C 0.1565 0.1124 0.6213 0.0
C562 C 0.20956 0.14953 0.62258 0.0
C563 C 0.24429 0.13791 0.63093 0.0
C564 C 0.41599 0.02385 0.61581 0.0
C565 C 0.45359 0.07023 0.60811 0.0
C566 C 0.37993 0.02355 0.62794 0.0
C567 C 0.38059 0.06956 0.63259 0.0
C568 C 0.41848 0.11614 0.62516 0.0
C569 C 0.45506 0.11658 0.61313 0.0
C570 C 0.33983 0.06813 0.64446 0.0
C571 C 0.30562 0.08231 0.63722 0.0
C572 C 0.33177 0.04867 0.66216 0.0
C573 C 0.36784 0.03482 0.67074 0.0
C574 C 0.42164 0.07081 0.67196 0.0
C575 C 0.45547 0.05739 0.67993 0.0
C576 C 0.43593 0.00818 0.68683 0.0
C577 C 0.38248 0.97233 0.68583 0.0
C578 C 0.34848 0.98554 0.67786 0.0
H579 H 0.46218 0.99787 0.69299 0.0
H580 H 0.12969 0.12149 0.61484 0.0
H581 H 0.14958 0.13786 0.02514 0.0
H582 H 0.20164 0.20102 0.00242 0.0
H583 H 0.21837 0.3253 0.03841 0.0
H584 H 0.16725 0.26265 0.06129 0.0
H585 H 0.18796 0.32841 0.00124 0.0
H586 H 0.31793 0.31423 0.03509 0.0
H587 H 0.35643 0.26741 0.04897 0.0
H588 H 0.36173 0.20337 0.99646 0.0
H589 H 0.32254 0.24926 0.98229 0.0
H590 H 0.38436 0.5318 0.94789 0.0
H591 H 0.32922 0.47576 0.97196 0.0
H592 H 0.33714 0.34736 0.94725 0.0
H593 H 0.39378 0.40355 0.92397 0.0
H594 H 0.35661 0.35117 0.9809 0.0
H595 H 0.22373 0.3595 0.94667 0.0
H596 H 0.18199 0.40218 0.93195 0.0
H597 H 0.17808 0.4721 0.98339 0.0
H598 H 0.22041 0.43033 0.99838 0.0
C599 C 0.16468 0.17865 0.02826 0.0
C600 C 0.15462 0.19529 0.04505 0.0
C601 C 0.1943 0.21465 0.01528 0.0
C602 C 0.21379 0.26777 0.01877 0.0
C603 C 0.2036 0.28447 0.03546 0.0
C604 C 0.17473 0.24863 0.04856 0.0
C605 C 0.24511 0.30583 0.00499 0.0
C606 C 0.2252 0.33403 0.9969 0.0
C607 C 0.29308 0.31225 0.99917 0.0
C608 C 0.31684 0.28479 0.00766 0.0
C609 C 0.32688 0.28981 0.02652 0.0
C610 C 0.34891 0.26351 0.03444 0.0
C611 C 0.3614 0.23233 0.02361 0.0
C612 C 0.35199 0.22749 0.00484 0.0
C613 C 0.32991 0.25367 0.99685 0.0
C614 C 0.3735 0.4914 0.94753 0.0
C615 C 0.39343 0.47197 0.93419 0.0
C616 C 0.34197 0.45934 0.96125 0.0
C617 C 0.32889 0.40713 0.96148 0.0
C618 C 0.34702 0.3875 0.94757 0.0
C619 C 0.37923 0.4196 0.9342 0.0
C620 C 0.29903 0.37318 0.9766 0.0
C621 C 0.3194 0.34585 0.98512 0.0
C622 C 0.25114 0.36708 0.98259 0.0
C623 C 0.22579 0.39229 0.9736 0.0
C624 C 0.21437 0.38433 0.95481 0.0
C625 C 0.19052 0.40828 0.94643 0.0
C626 C 0.17754 0.43996 0.95672 0.0
C627 C 0.18825 0.44764 0.97543 0.0
C628 C 0.21214 0.42381 0.98388 0.0
H629 H 0.15907 0.45846 0.9502 0.0
H630 H 0.37846 0.21201 0.02977 0.0
H631 H 0.14614 0.21941 0.34328 0.0
H632 H 0.13245 0.27575 0.32354 0.0
H633 H 0.00587 0.25766 0.35693 0.0
H634 H 0.01973 0.20201 0.3769 0.0
H635 H 0.98315 0.24042 0.31802 0.0
H636 H 0.11056 0.36626 0.36106 0.0
H637 H 0.19365 0.40874 0.37847 0.0
H638 H 0.27835 0.44744 0.32869 0.0
H639 H 0.1957 0.40452 0.31097 0.0
H640 H 0.95276 0.43657 0.27599 0.0
H641 H 0.95976 0.37849 0.29706 0.0
H642 H 0.10894 0.41808 0.27482 0.0
H643 H 0.10289 0.47699 0.25439 0.0
H644 H 0.11727 0.42445 0.3097 0.0
H645 H 0.99587 0.29816 0.26622 0.0
H646 H 0.91564 0.25358 0.24725 0.0
H647 H 0.82302 0.21239 0.29525 0.0
H648 H 0.90279 0.25745 0.31451 0.0
C649 C 0.11576 0.22785 0.34653 0.0
C650 C 0.08415 0.20638 0.36168 0.0
C651 C 0.10794 0.25994 0.33524 0.0
C652 C 0.06806 0.27065 0.33879 0.0
C653 C 0.03672 0.24966 0.35396 0.0
C654 C 0.04499 0.2182 0.36541 0.0
C655 C 0.05885 0.30342 0.32652 0.0
C656 C 0.01205 0.2809 0.31635 0.0
C657 C 0.09721 0.3557 0.32406 0.0
C658 C 0.14693 0.38175 0.3347 0.0
C659 C 0.1469 0.38344 0.35383 0.0
C660 C 0.19391 0.40768 0.36375 0.0
C661 C 0.24125 0.43066 0.35469 0.0
C662 C 0.24165 0.42957 0.33569 0.0
C663 C 0.19474 0.40534 0.3257 0.0
C664 C 0.98667 0.4323 0.27553 0.0
C665 C 0.02749 0.4616 0.26371 0.0
C666 C 0.99066 0.39909 0.28752 0.0
C667 C 0.03499 0.39392 0.28756 0.0
C668 C 0.07468 0.4218 0.27523 0.0
C669 C 0.0711 0.4554 0.26352 0.0
C670 C 0.04167 0.36145 0.30088 0.0
C671 C 0.08807 0.38404 0.31133 0.0
C672 C 0.0033 0.30898 0.30332 0.0
C673 C 0.95528 0.28168 0.2918 0.0
C674 C 0.95839 0.27997 0.27272 0.0
C675 C 0.913 0.25455 0.26192 0.0
C676 C 0.86425 0.23029 0.27004 0.0
C677 C 0.86081 0.23128 0.28898 0.0
C678 C 0.9061 0.25673 0.29985 0.0
H679 H 0.82914 0.21062 0.26165 0.0
H680 H 0.27761 0.44941 0.3624 0.0
loop_
_geom_bond_atom_site_label_1
_geom_bond_atom_site_label_2
_geom_bond_distance
_geom_bond_site_symmetry_2
_ccdc_geom_bond_type
C0 O1 1.160 . S
C0 O7 1.185 1_565 S
O1 C0 1.160 . S
O2 Zn3 1.899 . S
O2 C10 1.284 . S
Zn3 O2 1.899 . S
Zn3 O4 2.027 1_445 S
Zn3 O7 2.086 . S
Zn3 O12 1.977 . S
O4 Zn3 2.027 1_665 S
O4 C8 1.273 1_565 S
C5 O6 1.203 . S
C5 O12 1.267 . S
O6 C5 1.203 . S
O7 C0 1.185 1_545 S
O7 Zn3 2.086 . S
C8 O4 1.273 1_545 S
C8 O9 1.211 . S
O9 C8 1.211 . S
C10 O2 1.284 . S
C10 O11 1.273 1_455 S
O11 C10 1.273 1_655 S
O12 Zn3 1.977 . S
O12 C5 1.267 . S
C13 O14 1.160 . S
C13 O20 1.185 . S
O14 C13 1.160 . S
O15 Zn16 1.899 . S
O15 C23 1.284 1_545 S
Zn16 O15 1.899 . S
Zn16 O17 2.031 . S
Zn16 O20 2.086 . S
Zn16 O25 1.977 . S
O17 Zn16 2.031 . S
O17 C21 1.278 1_455 S
C18 O19 1.203 . S
C18 O25 1.267 . S
O19 C18 1.203 . S
O20 C13 1.185 . S
O20 Zn16 2.086 . S
C21 O17 1.278 1_655 S
C21 O22 1.211 1_655 S
O22 C21 1.211 1_455 S
C23 O15 1.284 1_565 S
C23 O24 1.273 1_455 S
O24 C23 1.273 1_655 S
O25 Zn16 1.977 . S
O25 C18 1.267 . S
C26 O27 1.160 . S
C26 O33 1.185 1_545 S
O27 C26 1.160 . S
O28 Zn29 1.899 1_655 S
O28 C36 1.284 . S
Zn29 O28 1.899 1_455 S
Zn29 O30 2.032 . S
Zn29 O33 2.086 1_545 S
Zn29 O38 1.977 1_445 S
O30 Zn29 2.032 . S
O30 C34 1.278 . S
C31 O32 1.203 . S
C31 O38 1.267 . S
O32 C31 1.203 . S
O33 C26 1.185 1_565 S
O33 Zn29 2.086 1_565 S
C34 O30 1.278 . S
C34 O35 1.211 . S
O35 C34 1.211 . S
C36 O28 1.284 . S
C36 O37 1.273 . S
O37 C36 1.273 . S
O38 Zn29 1.977 1_665 S
O38 C31 1.267 . S
C39 O41 1.247 . S
C39 O43 1.258 1_455 S
C40 O47 1.247 1_455 S
C40 O48 1.258 . S
O41 C39 1.247 . S
O41 Zn42 2.028 . S
Zn42 O41 2.028 . S
Zn42 O46 2.035 . S
Zn42 O48 2.035 . S
Zn42 O49 2.028 . S
O43 C39 1.258 1_655 S
O43 Zn44 2.035 . S
Zn44 O43 2.035 . S
Zn44 O45 2.028 . S
Zn44 O47 2.028 . S
Zn44 O50 2.035 . S
O45 Zn44 2.028 . S
O45 C51 1.247 1_655 S
O46 Zn42 2.035 . S
O46 C51 1.258 . S
O47 C40 1.247 1_655 S
O47 Zn44 2.028 . S
O48 C40 1.258 . S
O48 Zn42 2.035 . S
O49 Zn42 2.028 . S
O49 C52 1.247 . S
O50 Zn44 2.035 . S
O50 C52 1.258 1_655 S
C51 O45 1.247 1_455 S
C51 O46 1.258 . S
C52 O49 1.247 . S
C52 O50 1.258 1_455 S
C53 O55 1.246 . S
C53 O57 1.258 . S
C54 O61 1.247 . S
C54 O62 1.258 . S
O55 C53 1.246 . S
O55 Zn56 2.028 1_545 S
Zn56 O55 2.028 1_565 S
Zn56 O60 2.035 1_565 S
Zn56 O62 2.035 1_565 S
Zn56 O63 2.028 1_565 S
O57 C53 1.258 . S
O57 Zn58 2.035 . S
Zn58 O57 2.035 . S
Zn58 O59 2.028 . S
Zn58 O61 2.028 . S
Zn58 O64 2.035 . S
O59 Zn58 2.028 . S
O59 C65 1.247 . S
O60 Zn56 2.035 1_545 S
O60 C65 1.258 . S
O61 C54 1.247 . S
O61 Zn58 2.028 . S
O62 C54 1.258 . S
O62 Zn56 2.035 1_545 S
O63 Zn56 2.028 1_545 S
O63 C66 1.247 . S
O64 Zn58 2.035 . S
O64 C66 1.258 . S
C65 O59 1.247 . S
C65 O60 1.258 . S
C66 O63 1.247 . S
C66 O64 1.258 . S
C67 O69 1.247 . S
C67 O71 1.258 . S
C68 O75 1.247 . S
C68 O76 1.258 . S
O69 C67 1.247 . S
O69 Zn70 2.028 . S
Zn70 O69 2.028 . S
Zn70 O74 2.035 . S
Zn70 O76 2.035 . S
Zn70 O77 2.028 . S
O71 C67 1.258 . S
O71 Zn72 2.035 . S
Zn72 O71 2.035 . S
Zn72 O73 2.028 . S
Zn72 O75 2.028 . S
Zn72 O78 2.035 . S
O73 Zn72 2.028 . S
O73 C79 1.247 . S
O74 Zn70 2.035 . S
O74 C79 1.258 . S
O75 C68 1.247 . S
O75 Zn72 2.028 . S
O76 C68 1.258 . S
O76 Zn70 2.035 . S
O77 Zn70 2.028 . S
O77 C80 1.247 . S
O78 Zn72 2.035 . S
O78 C80 1.258 . S
C79 O73 1.247 . S
C79 O74 1.258 . S
C80 O77 1.247 . S
C80 O78 1.258 . S
H81 C99 0.951 . S
H82 C101 0.951 . S
H83 C103 0.950 . S
H84 C104 0.950 . S
H85 C106 0.950 . S
H86 C109 0.950 . S
H87 C110 0.950 . S
H88 C112 0.950 . S
H89 C113 0.950 . S
H90 C114 0.951 . S
H91 C116 0.951 . S
H92 C118 0.950 . S
H93 C119 0.950 . S
H94 C121 0.950 . S
H95 C124 0.950 . S
H96 C125 0.950 . S
H97 C127 0.950 . S
H98 C128 0.950 1_455 S
C99 H81 0.951 . S
C99 C100 1.366 1_655 S
C99 C101 1.388 . S
C100 C99 1.366 1_455 S
C100 C104 1.385 . S
C101 H82 0.951 . S
C101 C99 1.388 . S
C101 C102 1.366 1_655 S
C102 C101 1.366 1_455 S
C102 C103 1.414 . S
C102 C105 1.499 . S
C103 H83 0.950 . S
C103 C102 1.414 . S
C103 C104 1.374 . S
C104 H84 0.950 . S
C104 C100 1.385 . S
C104 C103 1.374 . S
C105 C102 1.499 . S
C105 C106 1.373 1_455 S
C105 C107 1.389 . S
C106 H85 0.950 . S
C106 C105 1.373 1_655 S
C106 C122 1.377 . S
C107 C105 1.389 . S
C107 C108 1.524 . S
C107 C121 1.377 . S
C108 C107 1.524 . S
C108 C109 1.397 . S
C108 C113 1.363 . S
C109 H86 0.950 . S
C109 C108 1.397 . S
C109 C110 1.334 . S
C110 H87 0.950 . S
C110 C109 1.334 . S
C110 C111 1.287 . S
C111 C110 1.287 . S
C111 C112 1.524 . S
C111 H130 0.913 . S
C112 H88 0.950 . S
C112 C111 1.524 . S
C112 C113 1.415 . S
C113 H89 0.950 . S
C113 C108 1.363 . S
C113 C112 1.415 . S
C114 H90 0.951 . S
C114 C115 1.366 . S
C114 C116 1.388 . S
C115 C114 1.366 . S
C115 C119 1.385 1_455 S
C116 H91 0.951 . S
C116 C114 1.388 . S
C116 C117 1.366 . S
C117 C116 1.366 . S
C117 C118 1.414 1_455 S
C117 C120 1.499 . S
C118 H92 0.950 . S
C118 C117 1.414 1_655 S
C118 C119 1.374 . S
C119 H93 0.950 . S
C119 C115 1.385 1_655 S
C119 C118 1.374 . S
C120 C117 1.499 . S
C120 C121 1.373 . S
C120 C122 1.389 1_455 S
C121 H94 0.950 . S
C121 C107 1.377 . S
C121 C120 1.373 . S
C122 C106 1.377 . S
C122 C120 1.389 1_655 S
C122 C123 1.524 . S
C123 C122 1.524 . S
C123 C124 1.397 . S
C123 C128 1.363 . S
C124 H95 0.950 . S
C124 C123 1.397 . S
C124 C125 1.334 . S
C125 H96 0.950 . S
C125 C124 1.334 . S
C125 C126 1.287 . S
C126 C125 1.287 . S
C126 C127 1.524 . S
C126 H129 0.999 . S
C127 H97 0.950 . S
C127 C126 1.524 . S
C127 C128 1.415 . S
C128 H98 0.950 1_655 S
C128 C123 1.363 . S
C128 C127 1.415 . S
H129 C126 0.999 . S
H130 C111 0.913 . S
H131 C149 0.951 . S
H132 C151 0.951 . S
H133 C153 0.950 . S
H134 C154 0.950 . S
H135 C156 0.950 . S
H136 C159 0.950 . S
H137 C160 0.950 . S
H138 C162 0.950 . S
H139 C163 0.950 . S
H140 C164 0.951 . S
H141 C166 0.951 . S
H142 C168 0.950 . S
H143 C169 0.950 . S
H144 C171 0.950 . S
H145 C174 0.950 . S
H146 C175 0.950 . S
H147 C177 0.950 . S
H148 C178 0.950 1_545 S
C149 H131 0.951 . S
C149 C150 1.366 . S
C149 C151 1.388 . S
C150 C149 1.366 . S
C150 C154 1.385 . S
C151 H132 0.951 . S
C151 C149 1.388 . S
C151 C152 1.366 . S
C152 C151 1.366 . S
C152 C153 1.414 . S
C152 C155 1.499 . S
C153 H133 0.950 . S
C153 C152 1.414 . S
C153 C154 1.374 . S
C154 H134 0.950 . S
C154 C150 1.385 . S
C154 C153 1.374 . S
C155 C152 1.499 . S
C155 C156 1.373 . S
C155 C157 1.389 . S
C156 H135 0.950 . S
C156 C155 1.373 . S
C156 C172 1.377 . S
C157 C155 1.389 . S
C157 C158 1.524 . S
C157 C171 1.377 . S
C158 C157 1.524 . S
C158 C159 1.397 . S
C158 C163 1.363 . S
C159 H136 0.950 . S
C159 C158 1.397 . S
C159 C160 1.334 . S
C160 H137 0.950 . S
C160 C159 1.334 . S
C160 C161 1.287 . S
C161 C160 1.287 . S
C161 C162 1.524 . S
C161 H180 0.913 . S
C162 H138 0.950 . S
C162 C161 1.524 . S
C162 C163 1.415 . S
C163 H139 0.950 . S
C163 C158 1.363 . S
C163 C162 1.415 . S
C164 H140 0.951 . S
C164 C165 1.366 . S
C164 C166 1.388 . S
C165 C164 1.366 . S
C165 C169 1.385 . S
C166 H141 0.951 . S
C166 C164 1.388 . S
C166 C167 1.366 . S
C167 C166 1.366 . S
C167 C168 1.414 . S
C167 C170 1.499 . S
C168 H142 0.950 . S
C168 C167 1.414 . S
C168 C169 1.374 . S
C169 H143 0.950 . S
C169 C165 1.385 . S
C169 C168 1.374 . S
C170 C167 1.499 . S
C170 C171 1.373 . S
C170 C172 1.389 . S
C171 H144 0.950 . S
C171 C157 1.377 . S
C171 C170 1.373 . S
C172 C156 1.377 . S
C172 C170 1.389 . S
C172 C173 1.524 1_545 S
C173 C172 1.524 1_565 S
C173 C174 1.397 . S
C173 C178 1.363 . S
C174 H145 0.950 . S
C174 C173 1.397 . S
C174 C175 1.334 . S
C175 H146 0.950 . S
C175 C174 1.334 . S
C175 C176 1.287 . S
C176 C175 1.287 . S
C176 C177 1.524 . S
C176 H179 0.999 . S
C177 H147 0.950 . S
C177 C176 1.524 . S
C177 C178 1.415 . S
C178 H148 0.950 1_565 S
C178 C173 1.363 . S
C178 C177 1.415 . S
H179 C176 0.999 . S
H180 C161 0.913 . S
H181 C199 0.951 . S
H182 C201 0.951 . S
H183 C203 0.950 . S
H184 C204 0.950 . S
H185 C206 0.950 . S
H186 C209 0.950 . S
H187 C210 0.950 . S
H188 C212 0.950 . S
H189 C213 0.950 . S
H190 C214 0.951 . S
H191 C216 0.951 . S
H192 C218 0.950 . S
H193 C219 0.950 . S
H194 C221 0.950 . S
H195 C224 0.950 . S
H196 C225 0.950 . S
H197 C227 0.950 . S
H198 C228 0.950 . S
C199 H181 0.951 . S
C199 C200 1.366 . S
C199 C201 1.388 . S
C200 C199 1.366 . S
C200 C204 1.385 . S
C201 H182 0.951 . S
C201 C199 1.388 . S
C201 C202 1.366 . S
C202 C201 1.366 . S
C202 C203 1.414 . S
C202 C205 1.499 . S
C203 H183 0.950 . S
C203 C202 1.414 . S
C203 C204 1.374 . S
C204 H184 0.950 . S
C204 C200 1.385 . S
C204 C203 1.374 . S
C205 C202 1.499 . S
C205 C206 1.373 . S
C205 C207 1.389 . S
C206 H185 0.950 . S
C206 C205 1.373 . S
C206 C222 1.377 . S
C207 C205 1.389 . S
C207 C208 1.524 . S
C207 C221 1.377 . S
C208 C207 1.524 . S
C208 C209 1.397 . S
C208 C213 1.363 . S
C209 H186 0.950 . S
C209 C208 1.397 . S
C209 C210 1.334 . S
C210 H187 0.950 . S
C210 C209 1.334 . S
C210 C211 1.287 . S
C211 C210 1.287 . S
C211 C212 1.524 . S
C211 H230 0.913 . S
C212 H188 0.950 . S
C212 C211 1.524 . S
C212 C213 1.415 . S
C213 H189 0.950 . S
C213 C208 1.363 . S
C213 C212 1.415 . S
C214 H190 0.951 . S
C214 C215 1.366 . S
C214 C216 1.388 . S
C215 C214 1.366 . S
C215 C219 1.385 . S
C216 H191 0.951 . S
C216 C214 1.388 . S
C216 C217 1.366 . S
C217 C216 1.366 . S
C217 C218 1.414 . S
C217 C220 1.499 . S
C218 H192 0.950 . S
C218 C217 1.414 . S
C218 C219 1.374 . S
C219 H193 0.950 . S
C219 C215 1.385 . S
C219 C218 1.374 . S
C220 C217 1.499 . S
C220 C221 1.373 . S
C220 C222 1.389 . S
C221 H194 0.950 . S
C221 C207 1.377 . S
C221 C220 1.373 . S
C222 C206 1.377 . S
C222 C220 1.389 . S
C222 C223 1.524 . S
C223 C222 1.524 . S
C223 C224 1.397 . S
C223 C228 1.363 . S
C224 H195 0.950 . S
C224 C223 1.397 . S
C224 C225 1.334 . S
C225 H196 0.950 . S
C225 C224 1.334 . S
C225 C226 1.287 . S
C226 C225 1.287 . S
C226 C227 1.524 . S
C226 H229 0.999 . S
C227 H197 0.950 . S
C227 C226 1.524 . S
C227 C228 1.415 . S
C228 H198 0.950 . S
C228 C223 1.363 . S
C228 C227 1.415 . S
H229 C226 0.999 . S
H230 C211 0.913 . S
H231 C249 0.951 . S
H232 C251 0.951 . S
H233 C253 0.950 . S
H234 C254 0.950 . S
H235 C256 0.950 . S
H236 C259 0.950 . S
H237 C260 0.950 1_545 S
H238 C262 0.950 . S
H239 C263 0.950 . S
H240 C264 0.951 . S
H241 C266 0.951 . S
H242 C268 0.950 1_655 S
H243 C269 0.950 1_655 S
H244 C271 0.950 . S
H245 C274 0.950 . S
H246 C275 0.950 . S
H247 C277 0.950 . S
H248 C278 0.950 1_455 S
C249 H231 0.951 . S
C249 C250 1.366 . S
C249 C251 1.388 . S
C250 C249 1.366 . S
C250 C254 1.385 . S
C251 H232 0.951 . S
C251 C249 1.388 . S
C251 C252 1.366 . S
C252 C251 1.366 . S
C252 C253 1.414 . S
C252 C255 1.499 . S
C253 H233 0.950 . S
C253 C252 1.414 . S
C253 C254 1.374 . S
C254 H234 0.950 . S
C254 C250 1.385 . S
C254 C253 1.374 . S
C255 C252 1.499 . S
C255 C256 1.373 . S
C255 C257 1.389 . S
C256 H235 0.950 . S
C256 C255 1.373 . S
C256 C272 1.377 . S
C257 C255 1.389 . S
C257 C258 1.524 . S
C257 C271 1.377 . S
C258 C257 1.524 . S
C258 C259 1.397 . S
C258 C263 1.363 . S
C259 H236 0.950 . S
C259 C258 1.397 . S
C259 C260 1.334 . S
C260 H237 0.950 1_565 S
C260 C259 1.334 . S
C260 C261 1.287 1_565 S
C261 C260 1.287 1_545 S
C261 C262 1.524 1_545 S
C261 H280 0.913 . S
C262 H238 0.950 . S
C262 C261 1.524 1_565 S
C262 C263 1.415 . S
C263 H239 0.950 . S
C263 C258 1.363 . S
C263 C262 1.415 . S
C264 H240 0.951 . S
C264 C265 1.366 . S
C264 C266 1.388 . S
C265 C264 1.366 . S
C265 C269 1.385 . S
C266 H241 0.951 . S
C266 C264 1.388 . S
C266 C267 1.366 . S
C267 C266 1.366 . S
C267 C268 1.414 . S
C267 C270 1.499 . S
C268 H242 0.950 1_455 S
C268 C267 1.414 . S
C268 C269 1.374 . S
C269 H243 0.950 1_455 S
C269 C265 1.385 . S
C269 C268 1.374 . S
C270 C267 1.499 . S
C270 C271 1.373 . S
C270 C272 1.389 . S
C271 H244 0.950 . S
C271 C257 1.377 . S
C271 C270 1.373 . S
C272 C256 1.377 . S
C272 C270 1.389 . S
C272 C273 1.524 1_455 S
C273 C272 1.524 1_655 S
C273 C274 1.397 . S
C273 C278 1.363 . S
C274 H245 0.950 . S
C274 C273 1.397 . S
C274 C275 1.334 . S
C275 H246 0.950 . S
C275 C274 1.334 . S
C275 C276 1.287 . S
C276 C275 1.287 . S
C276 C277 1.524 . S
C276 H279 0.999 . S
C277 H247 0.950 . S
C277 C276 1.524 . S
C277 C278 1.415 . S
C278 H248 0.950 1_655 S
C278 C273 1.363 . S
C278 C277 1.415 . S
H279 C276 0.999 . S
H280 C261 0.913 . S
H281 C299 0.951 . S
H282 C301 0.951 . S
H283 C303 0.950 . S
H284 C304 0.950 . S
H285 C306 0.950 . S
H286 C309 0.950 . S
H287 C310 0.934 1_545 S
H288 C312 0.950 . S
H289 C313 0.950 . S
H290 C314 0.951 . S
H291 C316 0.951 . S
H292 C318 0.950 1_565 S
H293 C319 0.950 1_565 S
H294 C321 0.950 . S
H295 C324 0.950 . S
H296 C325 0.950 . S
H297 C327 0.950 . S
H298 C328 0.950 . S
C299 H281 0.951 . S
C299 C300 1.366 . S
C299 C301 1.388 . S
C300 C299 1.366 . S
C300 C304 1.385 . S
C301 H282 0.951 . S
C301 C299 1.388 . S
C301 C302 1.366 . S
C302 C301 1.366 . S
C302 C303 1.414 . S
C302 C305 1.499 . S
C303 H283 0.950 . S
C303 C302 1.414 . S
C303 C304 1.374 . S
C304 H284 0.950 . S
C304 C300 1.385 . S
C304 C303 1.374 . S
C305 C302 1.499 . S
C305 C306 1.373 . S
C305 C307 1.389 . S
C306 H285 0.950 . S
C306 C305 1.373 . S
C306 C322 1.377 . S
C307 C305 1.389 . S
C307 C308 1.524 . S
C307 C321 1.377 . S
C308 C307 1.524 . S
C308 C309 1.397 . S
C308 C313 1.363 1_545 S
C309 H286 0.950 . S
C309 C308 1.397 . S
C309 C310 1.333 1_545 S
C310 H287 0.934 1_565 S
C310 C309 1.333 1_565 S
C310 C311 1.305 . S
C311 C310 1.305 . S
C311 C312 1.524 . S
C311 H330 0.913 . S
C312 H288 0.950 . S
C312 C311 1.524 . S
C312 C313 1.415 . S
C313 H289 0.950 . S
C313 C308 1.363 1_565 S
C313 C312 1.415 . S
C314 H290 0.951 . S
C314 C315 1.366 . S
C314 C316 1.388 . S
C315 C314 1.366 . S
C315 C319 1.385 . S
C316 H291 0.951 . S
C316 C314 1.388 . S
C316 C317 1.366 . S
C317 C316 1.366 . S
C317 C318 1.414 . S
C317 C320 1.499 . S
C318 H292 0.950 1_545 S
C318 C317 1.414 . S
C318 C319 1.374 . S
C319 H293 0.950 1_545 S
C319 C315 1.385 . S
C319 C318 1.374 . S
C320 C317 1.499 . S
C320 C321 1.373 . S
C320 C322 1.389 . S
C321 H294 0.950 . S
C321 C307 1.377 . S
C321 C320 1.373 . S
C322 C306 1.377 . S
C322 C320 1.389 . S
C322 C323 1.524 . S
C323 C322 1.524 . S
C323 C324 1.397 . S
C323 C328 1.363 . S
C324 H295 0.950 . S
C324 C323 1.397 . S
C324 C325 1.334 . S
C325 H296 0.950 . S
C325 C324 1.334 . S
C325 C326 1.287 . S
C326 C325 1.287 . S
C326 C327 1.524 . S
C326 H329 0.999 . S
C327 H297 0.950 . S
C327 C326 1.524 . S
C327 C328 1.415 . S
C328 H298 0.950 . S
C328 C323 1.363 . S
C328 C327 1.415 . S
H329 C326 0.999 . S
H330 C311 0.913 . S
H331 C349 0.951 . S
H332 C351 0.951 . S
H333 C353 0.950 . S
H334 C354 0.950 . S
H335 C356 0.950 . S
H336 C359 0.950 . S
H337 C360 0.950 . S
H338 C362 0.950 . S
H339 C363 0.950 . S
H340 C364 0.951 . S
H341 C366 0.951 . S
H342 C368 0.950 . S
H343 C369 0.950 . S
H344 C371 0.950 . S
H345 C374 0.950 . S
H346 C375 0.950 . S
H347 C377 0.950 . S
H348 C378 0.950 . S
C349 H331 0.951 . S
C349 C350 1.366 . S
C349 C351 1.388 . S
C350 C349 1.366 . S
C350 C354 1.385 . S
C351 H332 0.951 . S
C351 C349 1.388 . S
C351 C352 1.366 . S
C352 C351 1.366 . S
C352 C353 1.414 . S
C352 C355 1.499 . S
C353 H333 0.950 . S
C353 C352 1.414 . S
C353 C354 1.374 . S
C354 H334 0.950 . S
C354 C350 1.385 . S
C354 C353 1.374 . S
C355 C352 1.499 . S
C355 C356 1.373 . S
C355 C357 1.389 . S
C356 H335 0.950 . S
C356 C355 1.373 . S
C356 C372 1.377 . S
C357 C355 1.389 . S
C357 C358 1.524 . S
C357 C371 1.377 . S
C358 C357 1.524 . S
C358 C359 1.397 . S
C358 C363 1.363 . S
C359 H336 0.950 . S
C359 C358 1.397 . S
C359 C360 1.334 . S
C360 H337 0.950 . S
C360 C359 1.334 . S
C360 C361 1.287 . S
C361 C360 1.287 . S
C361 C362 1.524 . S
C361 H380 0.913 . S
C362 H338 0.950 . S
C362 C361 1.524 . S
C362 C363 1.415 . S
C363 H339 0.950 . S
C363 C358 1.363 . S
C363 C362 1.415 . S
C364 H340 0.951 . S
C364 C365 1.366 . S
C364 C366 1.388 . S
C365 C364 1.366 . S
C365 C369 1.385 . S
C366 H341 0.951 . S
C366 C364 1.388 . S
C366 C367 1.366 . S
C367 C366 1.366 . S
C367 C368 1.414 . S
C367 C370 1.499 . S
C368 H342 0.950 . S
C368 C367 1.414 . S
C368 C369 1.374 . S
C369 H343 0.950 . S
C369 C365 1.385 . S
C369 C368 1.374 . S
C370 C367 1.499 . S
C370 C371 1.373 . S
C370 C372 1.389 . S
C371 H344 0.950 . S
C371 C357 1.377 . S
C371 C370 1.373 . S
C372 C356 1.377 . S
C372 C370 1.389 . S
C372 C373 1.524 . S
C373 C372 1.524 . S
C373 C374 1.397 . S
C373 C378 1.363 . S
C374 H345 0.950 . S
C374 C373 1.397 . S
C374 C375 1.334 . S
C375 H346 0.950 . S
C375 C374 1.334 . S
C375 C376 1.287 . S
C376 C375 1.287 . S
C376 C377 1.524 . S
C376 H379 0.999 . S
C377 H347 0.950 . S
C377 C376 1.524 . S
C377 C378 1.415 . S
C378 H348 0.950 . S
C378 C373 1.363 . S
C378 C377 1.415 . S
H379 C376 0.999 . S
H380 C361 0.913 . S
H381 C399 0.951 . S
H382 C401 0.951 . S
H383 C403 0.950 . S
H384 C404 0.950 . S
H385 C406 0.950 . S
H386 C409 0.950 . S
H387 C410 0.950 . S
H388 C412 0.950 . S
H389 C413 0.950 1_545 S
H390 C414 0.951 . S
H391 C416 0.951 . S
H392 C418 0.950 . S
H393 C419 0.950 . S
H394 C421 0.950 . S
H395 C424 0.950 . S
H396 C425 0.950 . S
H397 C427 0.950 . S
H398 C428 0.950 . S
C399 H381 0.951 . S
C399 C400 1.366 . S
C399 C401 1.388 . S
C400 C399 1.366 . S
C400 C404 1.385 . S
C401 H382 0.951 . S
C401 C399 1.388 . S
C401 C402 1.366 . S
C402 C401 1.366 . S
C402 C403 1.414 . S
C402 C405 1.499 . S
C403 H383 0.950 . S
C403 C402 1.414 . S
C403 C404 1.374 . S
C404 H384 0.950 . S
C404 C400 1.385 . S
C404 C403 1.374 . S
C405 C402 1.499 . S
C405 C406 1.373 . S
C405 C407 1.389 . S
C406 H385 0.950 . S
C406 C405 1.373 . S
C406 C422 1.377 . S
C407 C405 1.389 . S
C407 C408 1.524 1_545 S
C407 C421 1.377 . S
C408 C407 1.524 1_565 S
C408 C409 1.397 . S
C408 C413 1.363 . S
C409 H386 0.950 . S
C409 C408 1.397 . S
C409 C410 1.334 . S
C410 H387 0.950 . S
C410 C409 1.334 . S
C410 C411 1.287 . S
C411 C410 1.287 . S
C411 C412 1.524 . S
C411 H430 0.913 . S
C412 H388 0.950 . S
C412 C411 1.524 . S
C412 C413 1.415 . S
C413 H389 0.950 1_565 S
C413 C408 1.363 . S
C413 C412 1.415 . S
C414 H390 0.951 . S
C414 C415 1.366 . S
C414 C416 1.388 . S
C415 C414 1.366 . S
C415 C419 1.385 . S
C416 H391 0.951 . S
C416 C414 1.388 . S
C416 C417 1.366 . S
C417 C416 1.366 . S
C417 C418 1.414 . S
C417 C420 1.499 . S
C418 H392 0.950 . S
C418 C417 1.414 . S
C418 C419 1.374 . S
C419 H393 0.950 . S
C419 C415 1.385 . S
C419 C418 1.374 . S
C420 C417 1.499 . S
C420 C421 1.373 . S
C420 C422 1.389 . S
C421 H394 0.950 . S
C421 C407 1.377 . S
C421 C420 1.373 . S
C422 C406 1.377 . S
C422 C420 1.389 . S
C422 C423 1.524 . S
C423 C422 1.524 . S
C423 C424 1.397 . S
C423 C428 1.363 . S
C424 H395 0.950 . S
C424 C423 1.397 . S
C424 C425 1.334 . S
C425 H396 0.950 . S
C425 C424 1.334 . S
C425 C426 1.287 . S
C426 C425 1.287 . S
C426 C427 1.524 . S
C426 H429 0.999 . S
C427 H397 0.950 . S
C427 C426 1.524 . S
C427 C428 1.415 . S
C428 H398 0.950 . S
C428 C423 1.363 . S
C428 C427 1.415 . S
H429 C426 0.999 . S
H430 C411 0.913 . S
H431 C449 0.951 . S
H432 C451 0.951 . S
H433 C453 0.950 1_556 S
H434 C454 0.950 1_545 S
H435 C456 0.950 . S
H436 C459 0.950 . S
H437 C460 0.950 . S
H438 C462 0.950 . S
H439 C463 0.950 . S
H440 C464 0.951 . S
H441 C466 0.951 . S
H442 C468 0.950 . S
H443 C469 0.950 . S
H444 C471 0.950 . S
H445 C474 0.950 . S
H446 C475 0.950 . S
H447 C477 0.950 . S
H448 C478 0.950 . S
C449 H431 0.951 . S
C449 C450 1.366 . S
C449 C451 1.388 . S
C450 C449 1.366 . S
C450 C454 1.385 . S
C451 H432 0.951 . S
C451 C449 1.388 . S
C451 C452 1.366 . S
C452 C451 1.366 . S
C452 C453 1.414 . S
C452 C455 1.499 1_554 S
C453 H433 0.950 1_554 S
C453 C452 1.414 . S
C453 C454 1.374 . S
C454 H434 0.950 1_565 S
C454 C450 1.385 . S
C454 C453 1.374 . S
C455 C452 1.499 1_556 S
C455 C456 1.373 . S
C455 C457 1.389 . S
C456 H435 0.950 . S
C456 C455 1.373 . S
C456 C472 1.377 . S
C457 C455 1.389 . S
C457 C458 1.524 1_556 S
C457 C471 1.377 . S
C458 C457 1.524 1_554 S
C458 C459 1.397 1_554 S
C458 C463 1.363 . S
C459 H436 0.950 . S
C459 C458 1.397 1_556 S
C459 C460 1.334 1_556 S
C460 H437 0.950 . S
C460 C459 1.334 1_554 S
C460 C461 1.287 . S
C461 C460 1.287 . S
C461 C462 1.524 . S
C461 H480 0.913 . S
C462 H438 0.950 . S
C462 C461 1.524 . S
C462 C463 1.415 . S
C463 H439 0.950 . S
C463 C458 1.363 . S
C463 C462 1.415 . S
C464 H440 0.951 . S
C464 C465 1.366 . S
C464 C466 1.388 . S
C465 C464 1.366 . S
C465 C469 1.385 . S
C466 H441 0.951 . S
C466 C464 1.388 . S
C466 C467 1.366 . S
C467 C466 1.366 . S
C467 C468 1.414 . S
C467 C470 1.499 . S
C468 H442 0.950 . S
C468 C467 1.414 . S
C468 C469 1.374 . S
C469 H443 0.950 . S
C469 C465 1.385 . S
C469 C468 1.374 . S
C470 C467 1.499 . S
C470 C471 1.373 . S
C470 C472 1.389 . S
C471 H444 0.950 . S
C471 C457 1.377 . S
C471 C470 1.373 . S
C472 C456 1.377 . S
C472 C470 1.389 . S
C472 C473 1.524 . S
C473 C472 1.524 . S
C473 C474 1.397 . S
C473 C478 1.363 . S
C474 H445 0.950 . S
C474 C473 1.397 . S
C474 C475 1.334 . S
C475 H446 0.950 . S
C475 C474 1.334 . S
C475 C476 1.287 . S
C476 C475 1.287 . S
C476 C477 1.524 . S
C476 H479 0.999 . S
C477 H447 0.950 . S
C477 C476 1.524 . S
C477 C478 1.415 . S
C478 H448 0.950 . S
C478 C473 1.363 . S
C478 C477 1.415 . S
H479 C476 0.999 . S
H480 C461 0.913 . S
H481 C499 0.951 1_545 S
H482 C501 0.951 . S
H483 C503 0.950 . S
H484 C504 0.950 . S
H485 C506 0.950 . S
H486 C509 0.950 . S
H487 C510 0.950 . S
H488 C512 0.950 . S
H489 C513 0.950 . S
H490 C514 0.951 . S
H491 C516 0.951 . S
H492 C518 0.950 . S
H493 C519 0.950 . S
H494 C521 0.950 1_655 S
H495 C524 0.950 . S
H496 C525 0.950 . S
H497 C527 0.950 . S
H498 C528 0.950 . S
C499 H481 0.951 1_565 S
C499 C500 1.366 . S
C499 C501 1.388 . S
C500 C499 1.366 . S
C500 C504 1.385 . S
C501 H482 0.951 . S
C501 C499 1.388 . S
C501 C502 1.366 . S
C502 C501 1.366 . S
C502 C503 1.414 . S
C502 C505 1.499 . S
C503 H483 0.950 . S
C503 C502 1.414 . S
C503 C504 1.374 . S
C504 H484 0.950 . S
C504 C500 1.385 . S
C504 C503 1.374 . S
C505 C502 1.499 . S
C505 C506 1.373 . S
C505 C507 1.389 1_455 S
C506 H485 0.950 . S
C506 C505 1.373 . S
C506 C522 1.377 . S
C507 C505 1.389 1_655 S
C507 C508 1.524 . S
C507 C521 1.377 1_655 S
C508 C507 1.524 . S
C508 C509 1.397 . S
C508 C513 1.363 . S
C509 H486 0.950 . S
C509 C508 1.397 . S
C509 C510 1.334 . S
C510 H487 0.950 . S
C510 C509 1.334 . S
C510 C511 1.287 . S
C511 C510 1.287 . S
C511 C512 1.524 . S
C511 H530 0.913 . S
C512 H488 0.950 . S
C512 C511 1.524 . S
C512 C513 1.415 . S
C513 H489 0.950 . S
C513 C508 1.363 . S
C513 C512 1.415 . S
C514 H490 0.951 . S
C514 C515 1.366 . S
C514 C516 1.388 . S
C515 C514 1.366 . S
C515 C519 1.385 . S
C516 H491 0.951 . S
C516 C514 1.388 . S
C516 C517 1.366 . S
C517 C516 1.366 . S
C517 C518 1.414 . S
C517 C520 1.499 . S
C518 H492 0.950 . S
C518 C517 1.414 . S
C518 C519 1.374 . S
C519 H493 0.950 . S
C519 C515 1.385 . S
C519 C518 1.374 . S
C520 C517 1.499 . S
C520 C521 1.373 . S
C520 C522 1.389 . S
C521 H494 0.950 1_455 S
C521 C507 1.377 1_455 S
C521 C520 1.373 . S
C522 C506 1.377 . S
C522 C520 1.389 . S
C522 C523 1.524 . S
C523 C522 1.524 . S
C523 C524 1.397 . S
C523 C528 1.363 . S
C524 H495 0.950 . S
C524 C523 1.397 . S
C524 C525 1.334 . S
C525 H496 0.950 . S
C525 C524 1.334 . S
C525 C526 1.287 . S
C526 C525 1.287 . S
C526 C527 1.524 . S
C526 H529 0.999 . S
C527 H497 0.950 . S
C527 C526 1.524 . S
C527 C528 1.415 . S
C528 H498 0.950 . S
C528 C523 1.363 . S
C528 C527 1.415 . S
H529 C526 0.999 . S
H530 C511 0.913 . S
H531 C549 0.951 . S
H532 C551 0.951 . S
H533 C553 0.950 . S
H534 C554 0.950 . S
H535 C556 0.950 . S
H536 C559 0.950 . S
H537 C560 0.950 . S
H538 C562 0.950 . S
H539 C563 0.950 . S
H540 C564 0.951 . S
H541 C566 0.951 1_565 S
H542 C568 0.950 . S
H543 C569 0.950 . S
H544 C571 0.950 . S
H545 C574 0.950 . S
H546 C575 0.950 . S
H547 C577 0.950 . S
H548 C578 0.950 . S
C549 H531 0.951 . S
C549 C550 1.366 . S
C549 C551 1.388 . S
C550 C549 1.366 . S
C550 C554 1.385 1_545 S
C551 H532 0.951 . S
C551 C549 1.388 . S
C551 C552 1.366 . S
C552 C551 1.366 . S
C552 C553 1.414 1_545 S
C552 C555 1.499 . S
C553 H533 0.950 . S
C553 C552 1.414 1_565 S
C553 C554 1.374 . S
C554 H534 0.950 . S
C554 C550 1.385 1_565 S
C554 C553 1.374 . S
C555 C552 1.499 . S
C555 C556 1.373 . S
C555 C557 1.389 . S
C556 H535 0.950 . S
C556 C555 1.373 . S
C556 C572 1.377 . S
C557 C555 1.389 . S
C557 C558 1.524 1_545 S
C557 C571 1.377 . S
C558 C557 1.524 1_565 S
C558 C559 1.397 . S
C558 C563 1.363 1_565 S
C559 H536 0.950 . S
C559 C558 1.397 . S
C559 C560 1.334 . S
C560 H537 0.950 . S
C560 C559 1.334 . S
C560 C561 1.287 . S
C561 C560 1.287 . S
C561 C562 1.524 . S
C561 H580 0.913 . S
C562 H538 0.950 . S
C562 C561 1.524 . S
C562 C563 1.415 1_565 S
C563 H539 0.950 . S
C563 C558 1.363 1_545 S
C563 C562 1.415 1_545 S
C564 H540 0.951 . S
C564 C565 1.366 . S
C564 C566 1.388 . S
C565 C564 1.366 . S
C565 C569 1.385 . S
C566 H541 0.951 1_545 S
C566 C564 1.388 . S
C566 C567 1.366 . S
C567 C566 1.366 . S
C567 C568 1.414 . S
C567 C570 1.499 . S
C568 H542 0.950 . S
C568 C567 1.414 . S
C568 C569 1.374 . S
C569 H543 0.950 . S
C569 C565 1.385 . S
C569 C568 1.374 . S
C570 C567 1.499 . S
C570 C571 1.373 . S
C570 C572 1.389 . S
C571 H544 0.950 . S
C571 C557 1.377 . S
C571 C570 1.373 . S
C572 C556 1.377 . S
C572 C570 1.389 . S
C572 C573 1.524 . S
C573 C572 1.524 . S
C573 C574 1.397 . S
C573 C578 1.363 . S
C574 H545 0.950 . S
C574 C573 1.397 . S
C574 C575 1.334 . S
C575 H546 0.950 . S
C575 C574 1.334 . S
C575 C576 1.287 . S
C576 C575 1.287 . S
C576 C577 1.524 . S
C576 H579 0.999 . S
C577 H547 0.950 . S
C577 C576 1.524 . S
C577 C578 1.415 . S
C578 H548 0.950 . S
C578 C573 1.363 . S
C578 C577 1.415 . S
H579 C576 0.999 . S
H580 C561 0.913 . S
H581 C599 0.951 . S
H582 C601 0.951 1_556 S
H583 C603 0.950 . S
H584 C604 0.950 . S
H585 C606 0.950 . S
H586 C609 0.950 . S
H587 C610 0.950 . S
H588 C612 0.950 . S
H589 C613 0.950 . S
H590 C614 0.951 . S
H591 C616 0.951 . S
H592 C618 0.950 . S
H593 C619 0.950 . S
H594 C621 0.950 . S
H595 C624 0.950 . S
H596 C625 0.950 . S
H597 C627 0.950 . S
H598 C628 0.950 . S
C599 H581 0.951 . S
C599 C600 1.366 . S
C599 C601 1.388 . S
C600 C599 1.366 . S
C600 C604 1.385 . S
C601 H582 0.951 1_554 S
C601 C599 1.388 . S
C601 C602 1.366 . S
C602 C601 1.366 . S
C602 C603 1.414 . S
C602 C605 1.499 1_554 S
C603 H583 0.950 . S
C603 C602 1.414 . S
C603 C604 1.374 . S
C604 H584 0.950 . S
C604 C600 1.385 . S
C604 C603 1.374 . S
C605 C602 1.499 1_556 S
C605 C606 1.373 . S
C605 C607 1.389 . S
C606 H585 0.950 . S
C606 C605 1.373 . S
C606 C622 1.377 . S
C607 C605 1.389 . S
C607 C608 1.549 . S
C607 C621 1.377 . S
C608 C607 1.549 . S
C608 C609 1.340 1_556 S
C608 C613 1.396 . S
C609 H586 0.950 . S
C609 C608 1.340 1_554 S
C609 C610 1.334 . S
C610 H587 0.950 . S
C610 C609 1.334 . S
C610 C611 1.287 . S
C611 C610 1.287 . S
C611 C612 1.524 1_554 S
C611 H630 0.913 . S
C612 H588 0.950 . S
C612 C611 1.524 1_556 S
C612 C613 1.415 . S
C613 H589 0.950 . S
C613 C608 1.396 . S
C613 C612 1.415 . S
C614 H590 0.951 . S
C614 C615 1.366 . S
C614 C616 1.388 . S
C615 C614 1.366 . S
C615 C619 1.385 . S
C616 H591 0.951 . S
C616 C614 1.388 . S
C616 C617 1.366 . S
C617 C616 1.366 . S
C617 C618 1.414 . S
C617 C620 1.499 . S
C618 H592 0.950 . S
C618 C617 1.414 . S
C618 C619 1.374 . S
C619 H593 0.950 . S
C619 C615 1.385 . S
C619 C618 1.374 . S
C620 C617 1.499 . S
C620 C621 1.373 . S
C620 C622 1.389 . S
C621 H594 0.950 . S
C621 C607 1.377 . S
C621 C620 1.373 . S
C622 C606 1.377 . S
C622 C620 1.389 . S
C622 C623 1.524 . S
C623 C622 1.524 . S
C623 C624 1.397 . S
C623 C628 1.363 . S
C624 H595 0.950 . S
C624 C623 1.397 . S
C624 C625 1.334 . S
C625 H596 0.950 . S
C625 C624 1.334 . S
C625 C626 1.287 . S
C626 C625 1.287 . S
C626 C627 1.524 . S
C626 H629 0.999 . S
C627 H597 0.950 . S
C627 C626 1.524 . S
C627 C628 1.415 . S
C628 H598 0.950 . S
C628 C623 1.363 . S
C628 C627 1.415 . S
H629 C626 0.999 . S
H630 C611 0.913 . S
H631 C649 0.951 . S
H632 C651 0.951 . S
H633 C653 0.950 . S
H634 C654 0.950 . S
H635 C656 0.950 1_655 S
H636 C659 0.950 . S
H637 C660 0.950 . S
H638 C662 0.950 . S
H639 C663 0.950 . S
H640 C664 0.953 1_655 S
H641 C666 0.951 1_655 S
H642 C668 0.950 . S
H643 C669 0.950 . S
H644 C671 0.950 . S
H645 C674 0.950 . S
H646 C675 0.950 . S
H647 C677 0.950 . S
H648 C678 0.950 . S
C649 H631 0.951 . S
C649 C650 1.366 . S
C649 C651 1.388 . S
C650 C649 1.366 . S
C650 C654 1.385 . S
C651 H632 0.951 . S
C651 C649 1.388 . S
C651 C652 1.366 . S
C652 C651 1.366 . S
C652 C653 1.414 . S
C652 C655 1.499 . S
C653 H633 0.950 . S
C653 C652 1.414 . S
C653 C654 1.374 . S
C654 H634 0.950 . S
C654 C650 1.385 . S
C654 C653 1.374 . S
C655 C652 1.499 . S
C655 C656 1.373 . S
C655 C657 1.389 . S
C656 H635 0.950 1_455 S
C656 C655 1.373 . S
C656 C672 1.377 1_455 S
C657 C655 1.389 . S
C657 C658 1.524 . S
C657 C671 1.377 . S
C658 C657 1.524 . S
C658 C659 1.397 . S
C658 C663 1.363 . S
C659 H636 0.950 . S
C659 C658 1.397 . S
C659 C660 1.334 . S
C660 H637 0.950 . S
C660 C659 1.334 . S
C660 C661 1.287 . S
C661 C660 1.287 . S
C661 C662 1.524 . S
C661 H680 0.913 . S
C662 H638 0.950 . S
C662 C661 1.524 . S
C662 C663 1.415 . S
C663 H639 0.950 . S
C663 C658 1.363 . S
C663 C662 1.415 . S
C664 H640 0.953 1_455 S
C664 C665 1.365 . S
C664 C666 1.387 . S
C665 C664 1.365 . S
C665 C669 1.385 . S
C666 H641 0.951 1_455 S
C666 C664 1.387 . S
C666 C667 1.366 . S
C667 C666 1.366 . S
C667 C668 1.414 . S
C667 C670 1.499 . S
C668 H642 0.950 . S
C668 C667 1.414 . S
C668 C669 1.374 . S
C669 H643 0.950 . S
C669 C665 1.385 . S
C669 C668 1.374 . S
C670 C667 1.499 . S
C670 C671 1.373 . S
C670 C672 1.389 1_455 S
C671 H644 0.950 . S
C671 C657 1.377 . S
C671 C670 1.373 . S
C672 C656 1.377 1_655 S
C672 C670 1.389 1_655 S
C672 C673 1.524 . S
C673 C672 1.524 . S
C673 C674 1.397 . S
C673 C678 1.363 . S
C674 H645 0.950 . S
C674 C673 1.397 . S
C674 C675 1.334 . S
C675 H646 0.950 . S
C675 C674 1.334 . S
C675 C676 1.287 . S
C676 C675 1.287 . S
C676 C677 1.524 . S
C676 H679 0.999 . S
C677 H647 0.950 . S
C677 C676 1.524 . S
C677 C678 1.415 . S
C678 H648 0.950 . S
C678 C673 1.363 . S
C678 C677 1.415 . S
H679 C676 0.999 . S
H680 C661 0.913 . S
C115 C40 1.372 . S
C100 C10 1.372 . S
C150 C21 1.395 . S
C165 C66 1.431 . S
C200 C31 1.336 . S
C215 C68 1.394 . S
C250 C0 1.328 . S
C265 C52 1.375 . S
C315 C54 1.395 . S
C300 C18 1.335 . S
C350 C34 1.350 . S
C365 C80 1.384 . S
C415 C53 1.365 . S
C400 C36 1.366 . S
C450 C8 1.348 1_565 S
C465 C79 1.383 . S
C515 C39 1.376 . S
C500 C23 1.377 . S
C565 C65 1.319 . S
C550 C26 1.273 . S
C615 C67 1.395 . S
C600 C5 1.337 . S
C650 C13 1.330 . S
C665 C51 1.381 . S
