# Generated by pormake.
# Topology ssb, (4,4)-cn, num edge types: 1
# Building blocks:
#     Node 0, Type 0, BuildingBlock: NAWXER_clean_sbu_0, # of connection points: 4
#     Node 1, Type 0, BuildingBlock: NAWXER_clean_sbu_0, # of connection points: 4
#     Node 2, Type 0, BuildingBlock: NAWXER_clean_sbu_0, # of connection points: 4
#     Node 3, Type 0, BuildingBlock: NAWXER_clean_sbu_0, # of connection points: 4
#     Node 4, Type 0, BuildingBlock: NAWXER_clean_sbu_0, # of connection points: 4
#     Node 5, Type 0, BuildingBlock: NAWXER_clean_sbu_0, # of connection points: 4
#     Node 6, Type 0, BuildingBlock: NAWXER_clean_sbu_0, # of connection points: 4
#     Node 7, Type 0, BuildingBlock: NAWXER_clean_sbu_0, # of connection points: 4
#     Node 8, Type 1, BuildingBlock: KOZSID_clean_sbu_0, # of connection points: 4
#     Node 9, Type 1, BuildingBlock: KOZSID_clean_sbu_0, # of connection points: 4
#     Node 10, Type 1, BuildingBlock: KOZSID_clean_sbu_0, # of connection points: 4
#     Node 11, Type 1, BuildingBlock: KOZSID_clean_sbu_0, # of connection points: 4
#     Node 12, Type 1, BuildingBlock: KOZSID_clean_sbu_0, # of connection points: 4
#     Node 13, Type 1, BuildingBlock: KOZSID_clean_sbu_0, # of connection points: 4
#     Node 14, Type 1, BuildingBlock: KOZSID_clean_sbu_0, # of connection points: 4
#     Node 15, Type 1, BuildingBlock: KOZSID_clean_sbu_0, # of connection points: 4
#     Edge 16, Type (0, 1), BuildingBlock: MIFKUJ_clean_linker_0, # of connection points: 2
#     Edge 17, Type (0, 1), BuildingBlock: MIFKUJ_clean_linker_0, # of connection points: 2
#     Edge 18, Type (0, 1), BuildingBlock: MIFKUJ_clean_linker_0, # of connection points: 2
#     Edge 19, Type (0, 1), BuildingBlock: MIFKUJ_clean_linker_0, # of connection points: 2
#     Edge 20, Type (0, 1), BuildingBlock: MIFKUJ_clean_linker_0, # of connection points: 2
#     Edge 21, Type (0, 1), BuildingBlock: MIFKUJ_clean_linker_0, # of connection points: 2
#     Edge 22, Type (0, 1), BuildingBlock: MIFKUJ_clean_linker_0, # of connection points: 2
#     Edge 23, Type (0, 1), BuildingBlock: MIFKUJ_clean_linker_0, # of connection points: 2
#     Edge 24, Type (0, 1), BuildingBlock: MIFKUJ_clean_linker_0, # of connection points: 2
#     Edge 25, Type (0, 1), BuildingBlock: MIFKUJ_clean_linker_0, # of connection points: 2
#     Edge 26, Type (0, 1), BuildingBlock: MIFKUJ_clean_linker_0, # of connection points: 2
#     Edge 27, Type (0, 1), BuildingBlock: MIFKUJ_clean_linker_0, # of connection points: 2
#     Edge 28, Type (0, 1), BuildingBlock: MIFKUJ_clean_linker_0, # of connection points: 2
#     Edge 29, Type (0, 1), BuildingBlock: MIFKUJ_clean_linker_0, # of connection points: 2
#     Edge 30, Type (0, 1), BuildingBlock: MIFKUJ_clean_linker_0, # of connection points: 2
#     Edge 31, Type (0, 1), BuildingBlock: MIFKUJ_clean_linker_0, # of connection points: 2
#     Edge 32, Type (0, 1), BuildingBlock: MIFKUJ_clean_linker_0, # of connection points: 2
#     Edge 33, Type (0, 1), BuildingBlock: MIFKUJ_clean_linker_0, # of connection points: 2
#     Edge 34, Type (0, 1), BuildingBlock: MIFKUJ_clean_linker_0, # of connection points: 2
#     Edge 35, Type (0, 1), BuildingBlock: MIFKUJ_clean_linker_0, # of connection points: 2
#     Edge 36, Type (0, 1), BuildingBlock: MIFKUJ_clean_linker_0, # of connection points: 2
#     Edge 37, Type (0, 1), BuildingBlock: MIFKUJ_clean_linker_0, # of connection points: 2
#     Edge 38, Type (0, 1), BuildingBlock: MIFKUJ_clean_linker_0, # of connection points: 2
#     Edge 39, Type (0, 1), BuildingBlock: MIFKUJ_clean_linker_0, # of connection points: 2
#     Edge 40, Type (0, 1), BuildingBlock: MIFKUJ_clean_linker_0, # of connection points: 2
#     Edge 41, Type (0, 1), BuildingBlock: MIFKUJ_clean_linker_0, # of connection points: 2
#     Edge 42, Type (0, 1), BuildingBlock: MIFKUJ_clean_linker_0, # of connection points: 2
#     Edge 43, Type (0, 1), BuildingBlock: MIFKUJ_clean_linker_0, # of connection points: 2
#     Edge 44, Type (0, 1), BuildingBlock: MIFKUJ_clean_linker_0, # of connection points: 2
#     Edge 45, Type (0, 1), BuildingBlock: MIFKUJ_clean_linker_0, # of connection points: 2
#     Edge 46, Type (0, 1), BuildingBlock: MIFKUJ_clean_linker_0, # of connection points: 2
#     Edge 47, Type (0, 1), BuildingBlock: MIFKUJ_clean_linker_0, # of connection points: 2
# Relax obj value: 0.003
# Max RMSD: 0.024
# Mean RMSD: 0.013
data_MOF--net-ssb--node1-NAWXER_clean_sbu_0--node2-KOZSID_clean_sbu_0--edge1-MIFKUJ_clean_linker_0
_symmetry_space_group_name_H-M    P1
_symmetry_Int_Tables_number       1
_symmetry_cell_setting            triclinic
loop_
_symmetry_equiv_pos_as_xyz
'x, y, z'
_cell_length_a     67.575495
_cell_length_b     67.423786
_cell_length_c     49.350949
_cell_angle_alpha  92.004717
_cell_angle_beta   93.952717
_cell_angle_gamma 90.04654
loop_
_atom_site_label
_atom_site_type_symbol
_atom_site_fract_x
_atom_site_fract_y
_atom_site_fract_z
_atom_type_partial_charge
C0 C 0.23268 0.26305 0.30255 0.0
C1 C 0.29399 0.25032 0.25628 0.0
O2 O 0.23007 0.25269 0.28031 0.0
Zn3 Zn 0.24716 0.24054 0.24872 0.0
O4 O 0.25001 0.26938 0.31013 0.0
Zn5 Zn 0.26381 0.2574 0.28014 0.0
O6 O 0.25329 0.27439 0.24603 0.0
O7 O 0.23671 0.25462 0.21615 0.0
O8 O 0.29244 0.26041 0.27832 0.0
O9 O 0.27844 0.24228 0.24417 0.0
O10 O 0.2431 0.21186 0.25367 0.0
O11 O 0.26071 0.22636 0.288 0.0
C12 C 0.24348 0.27187 0.22297 0.0
C13 C 0.25246 0.21068 0.2769 0.0
C14 C 0.7313 0.24834 0.23186 0.0
C15 C 0.79307 0.2518 0.29025 0.0
O16 O 0.72925 0.25673 0.25519 0.0
Zn17 Zn 0.74678 0.26309 0.2922 0.0
O18 O 0.74795 0.24094 0.22655 0.0
Zn19 Zn 0.76242 0.24886 0.26081 0.0
O20 O 0.75093 0.22934 0.28901 0.0
O21 O 0.73492 0.24726 0.31863 0.0
O22 O 0.79084 0.24431 0.2662 0.0
O23 O 0.77799 0.25899 0.30156 0.0
O24 O 0.7444 0.2915 0.29506 0.0
O25 O 0.76132 0.28071 0.26069 0.0
C26 C 0.74082 0.23045 0.31004 0.0
C27 C 0.75412 0.29509 0.2746 0.0
C28 C 0.75329 0.7178 0.24389 0.0
C29 C 0.74889 0.78039 0.30075 0.0
O30 O 0.74495 0.7197 0.26625 0.0
Zn31 Zn 0.75058 0.74835 0.27362 0.0
O32 O 0.76177 0.73298 0.2348 0.0
Zn33 Zn 0.76683 0.7639 0.24507 0.0
O34 O 0.7957 0.76525 0.25004 0.0
O35 O 0.78213 0.74855 0.28166 0.0
O36 O 0.75813 0.78211 0.27908 0.0
O37 O 0.7418 0.76348 0.30574 0.0
O38 O 0.73296 0.76099 0.24094 0.0
O39 O 0.75263 0.77572 0.21386 0.0
C40 C 0.79764 0.75536 0.27155 0.0
C41 C 0.73526 0.7707 0.21949 0.0
C42 C 0.23443 0.71773 0.20494 0.0
C43 C 0.23757 0.78636 0.23866 0.0
O44 O 0.22481 0.73242 0.19543 0.0
Zn45 Zn 0.23511 0.75205 0.22192 0.0
O46 O 0.24577 0.72006 0.22678 0.0
Zn47 Zn 0.25476 0.74377 0.25524 0.0
O48 O 0.24371 0.73704 0.28929 0.0
O49 O 0.22068 0.74463 0.25756 0.0
O50 O 0.24807 0.77455 0.25345 0.0
O51 O 0.22731 0.77956 0.21782 0.0
O52 O 0.26637 0.75247 0.21476 0.0
O53 O 0.28327 0.74417 0.25256 0.0
C54 C 0.22551 0.73945 0.28187 0.0
C55 C 0.28305 0.74924 0.22794 0.0
C56 C 0.28741 0.7812 0.7941 0.0
C57 C 0.22306 0.76839 0.74363 0.0
O58 O 0.27054 0.78736 0.8007 0.0
Zn59 Zn 0.25471 0.77558 0.7696 0.0
O60 O 0.28856 0.77078 0.77203 0.0
Zn61 Zn 0.26937 0.75835 0.73953 0.0
O62 O 0.2776 0.77204 0.70724 0.0
O63 O 0.26353 0.79235 0.73602 0.0
O64 O 0.2379 0.76029 0.73285 0.0
O65 O 0.22591 0.77879 0.7656 0.0
O66 O 0.25734 0.7445 0.77764 0.0
O67 O 0.27318 0.72958 0.74519 0.0
C68 C 0.27173 0.78946 0.71353 0.0
C69 C 0.26463 0.72861 0.76735 0.0
C70 C 0.27191 0.23101 0.71975 0.0
C71 C 0.26495 0.29486 0.76703 0.0
O72 O 0.26188 0.22991 0.74078 0.0
Zn73 Zn 0.25242 0.24926 0.77267 0.0
O74 O 0.2791 0.24756 0.71364 0.0
Zn75 Zn 0.26876 0.26313 0.74297 0.0
O76 O 0.28627 0.25294 0.77754 0.0
O77 O 0.26633 0.23938 0.80528 0.0
O78 O 0.27371 0.29144 0.74538 0.0
O79 O 0.25667 0.28054 0.77846 0.0
O80 O 0.22378 0.24703 0.76761 0.0
O81 O 0.23713 0.26164 0.73392 0.0
C82 C 0.28374 0.2443 0.79977 0.0
C83 C 0.22173 0.25526 0.74479 0.0
C84 C 0.75339 0.21378 0.74987 0.0
C85 C 0.76332 0.2764 0.8065 0.0
O86 O 0.74573 0.22937 0.73932 0.0
Zn87 Zn 0.7432 0.26069 0.74841 0.0
O88 O 0.76265 0.21539 0.77326 0.0
Zn89 Zn 0.75941 0.24436 0.77932 0.0
O90 O 0.7282 0.24656 0.7834 0.0
O91 O 0.71449 0.26399 0.75011 0.0
O92 O 0.76977 0.25927 0.8127 0.0
O93 O 0.75373 0.27838 0.78342 0.0
O94 O 0.75761 0.27177 0.71931 0.0
O95 O 0.77694 0.25542 0.74856 0.0
C96 C 0.71277 0.25435 0.77157 0.0
C97 C 0.77477 0.26536 0.72687 0.0
C98 C 0.79726 0.75221 0.75726 0.0
C99 C 0.74019 0.75831 0.81402 0.0
O100 O 0.78132 0.74414 0.7464 0.0
Zn101 Zn 0.75156 0.7386 0.75665 0.0
O102 O 0.79751 0.7595 0.78141 0.0
Zn103 Zn 0.7696 0.7546 0.78739 0.0
O104 O 0.76854 0.72327 0.79198 0.0
O105 O 0.74959 0.71008 0.75785 0.0
O106 O 0.75767 0.76486 0.82012 0.0
O107 O 0.73652 0.74854 0.79147 0.0
O108 O 0.73691 0.75208 0.72795 0.0
O109 O 0.75463 0.77203 0.75676 0.0
C110 C 0.76044 0.70799 0.77961 0.0
C111 C 0.74279 0.76948 0.73546 0.0
C112 C 0.03206 0.28851 0.56726 0.0
C113 C 0.03696 0.30695 0.57927 0.0
C114 C 0.02719 0.32073 0.56382 0.0
C115 C 0.0168 0.30997 0.54347 0.0
N116 N 0.01919 0.29012 0.54511 0.0
Co117 Co 0.0065 0.26904 0.51994 0.0
N118 N 0.99389 0.28938 0.49559 0.0
C119 C 0.9963 0.30929 0.49806 0.0
C120 C 0.9859 0.31944 0.47816 0.0
C121 C 0.97614 0.30517 0.46209 0.0
C122 C 0.98109 0.28709 0.47329 0.0
N123 N 0.99314 0.24796 0.49535 0.0
C124 C 0.97988 0.24961 0.47363 0.0
C125 C 0.97319 0.23114 0.46345 0.0
C126 C 0.98249 0.21735 0.47933 0.0
C127 C 0.99416 0.22811 0.49831 0.0
N128 N 0.01979 0.2487 0.54371 0.0
C129 C 0.01867 0.22875 0.53995 0.0
C130 C 0.03055 0.21855 0.55821 0.0
C131 C 0.04009 0.23281 0.57445 0.0
C132 C 0.0333 0.251 0.56526 0.0
N133 N 0.98285 0.26941 0.54205 0.0
C134 C 0.94825 0.26984 0.57135 0.0
C135 C 0.95883 0.2523 0.56722 0.0
C136 C 0.97588 0.25239 0.55257 0.0
C137 C 0.9555 0.28719 0.56087 0.0
C138 C 0.97268 0.28667 0.5466 0.0
N139 N 0.03012 0.26874 0.49778 0.0
C140 C 0.05345 0.25096 0.47077 0.0
C141 C 0.06414 0.26835 0.46739 0.0
C142 C 0.05742 0.28594 0.47935 0.0
C143 C 0.04047 0.28584 0.49411 0.0
C144 C 0.03672 0.25144 0.48607 0.0
H145 H 0.03607 0.29983 0.50238 0.0
H146 H 0.02947 0.23762 0.48824 0.0
H147 H 0.98307 0.23848 0.54982 0.0
H148 H 0.97738 0.30048 0.53934 0.0
C149 C 0.00657 0.31807 0.52093 0.0
C150 C 0.04068 0.27002 0.57697 0.0
C151 C 0.97265 0.26826 0.4626 0.0
C152 C 0.0064 0.22003 0.51896 0.0
H153 H 0.04696 0.31012 0.59698 0.0
H154 H 0.02812 0.33671 0.56653 0.0
H155 H 0.98496 0.33534 0.47613 0.0
H156 H 0.96614 0.30778 0.44449 0.0
H157 H 0.96248 0.22794 0.44653 0.0
H158 H 0.98077 0.20139 0.47744 0.0
H159 H 0.03233 0.20263 0.55929 0.0
H160 H 0.05108 0.23004 0.59087 0.0
H161 H 0.95377 0.23841 0.5748 0.0
H162 H 0.94806 0.30124 0.5639 0.0
H163 H 0.05816 0.23691 0.46204 0.0
H164 H 0.06504 0.29985 0.477 0.0
C165 C 0.7187 0.0279 0.56251 0.0
C166 C 0.70049 0.03387 0.57131 0.0
C167 C 0.68631 0.02332 0.55589 0.0
C168 C 0.69657 0.0114 0.53873 0.0
N169 N 0.7165 0.01358 0.54236 0.0
Co170 Co 0.73685 0.99878 0.52171 0.0
N171 N 0.71591 0.98413 0.49787 0.0
C172 C 0.69607 0.98679 0.49793 0.0
C173 C 0.68533 0.97453 0.47965 0.0
C174 C 0.6991 0.96316 0.4674 0.0
C175 C 0.71753 0.96904 0.47909 0.0
N176 N 0.75719 0.98351 0.50162 0.0
C177 C 0.75501 0.96807 0.4831 0.0
C178 C 0.77327 0.96064 0.47637 0.0
C179 C 0.78743 0.97169 0.49101 0.0
C180 C 0.77712 0.98507 0.50603 0.0
N181 N 0.75781 0.01378 0.54509 0.0
C182 C 0.77765 0.01237 0.54333 0.0
C183 C 0.78844 0.02534 0.56047 0.0
C184 C 0.77471 0.03587 0.57391 0.0
C185 C 0.7562 0.02856 0.56434 0.0
N186 N 0.73687 0.97734 0.54808 0.0
C187 C 0.73697 0.94342 0.57939 0.0
C188 C 0.7546 0.95354 0.57601 0.0
C189 C 0.75422 0.97039 0.56028 0.0
C190 C 0.71924 0.95113 0.56826 0.0
C191 C 0.7195 0.96811 0.5531 0.0
N192 N 0.73677 0.02028 0.49522 0.0
C193 C 0.75435 0.04351 0.46925 0.0
C194 C 0.7368 0.05372 0.46273 0.0
C195 C 0.71916 0.04637 0.47152 0.0
C196 C 0.71946 0.02969 0.48736 0.0
C197 C 0.754 0.02692 0.48545 0.0
H198 H 0.70548 0.02496 0.49336 0.0
H199 H 0.76789 0.01998 0.4902 0.0
H200 H 0.76815 0.97726 0.55773 0.0
H201 H 0.70548 0.9732 0.54515 0.0
C202 C 0.68793 0.9992 0.51759 0.0
C203 C 0.73757 0.0366 0.57361 0.0
C204 C 0.73606 0.95941 0.47221 0.0
C205 C 0.7857 0.99874 0.52524 0.0
H206 H 0.69771 0.04493 0.587 0.0
H207 H 0.67039 0.02454 0.55667 0.0
H208 H 0.66936 0.97344 0.47638 0.0
H209 H 0.6959 0.95152 0.45207 0.0
H210 H 0.77618 0.9482 0.46281 0.0
H211 H 0.80335 0.96981 0.49128 0.0
H212 H 0.8044 0.02713 0.56266 0.0
H213 H 0.77803 0.04781 0.58874 0.0
H214 H 0.76865 0.94809 0.58464 0.0
H215 H 0.70519 0.94397 0.57107 0.0
H216 H 0.76837 0.04865 0.46265 0.0
H217 H 0.70513 0.05354 0.4663 0.0
C218 C 0.03627 0.77412 0.55576 0.0
C219 C 0.04262 0.79289 0.56518 0.0
C220 C 0.03181 0.80624 0.55032 0.0
C221 C 0.01961 0.79499 0.53261 0.0
N222 N 0.02194 0.77521 0.53517 0.0
Co223 Co 0.00734 0.75365 0.51284 0.0
N224 N 0.99281 0.77342 0.48935 0.0
C225 C 0.99512 0.79337 0.49094 0.0
C226 C 0.98304 0.80322 0.47255 0.0
C227 C 0.97236 0.78874 0.45821 0.0
C228 C 0.97866 0.77074 0.46861 0.0
N229 N 0.99209 0.73213 0.49125 0.0
C230 C 0.97782 0.73328 0.47058 0.0
C231 C 0.97108 0.71457 0.46152 0.0
C232 C 0.98109 0.70119 0.47733 0.0
C233 C 0.99342 0.71238 0.49499 0.0
N234 N 0.0225 0.73384 0.53552 0.0
C235 C 0.02103 0.71384 0.53296 0.0
C236 C 0.03342 0.70403 0.55107 0.0
C237 C 0.04365 0.71861 0.5659 0.0
C238 C 0.03695 0.73657 0.55583 0.0
N239 N 0.98601 0.75474 0.53889 0.0
C240 C 0.95638 0.75627 0.57668 0.0
C241 C 0.96626 0.7386 0.57095 0.0
C242 C 0.98073 0.73812 0.55199 0.0
C243 C 0.96143 0.77314 0.56299 0.0
C244 C 0.97628 0.7721 0.54452 0.0
N245 N 0.02879 0.7525 0.487 0.0
C246 C 0.05026 0.7334 0.45864 0.0
C247 C 0.06104 0.75035 0.45342 0.0
C248 C 0.05512 0.76849 0.46477 0.0
C249 C 0.03895 0.76925 0.48108 0.0
C250 C 0.03443 0.73476 0.47545 0.0
H251 H 0.03505 0.78357 0.48883 0.0
H252 H 0.02717 0.72119 0.47906 0.0
H253 H 0.98739 0.72408 0.54829 0.0
H254 H 0.97967 0.78558 0.53516 0.0
C255 C 0.00736 0.80251 0.51157 0.0
C256 C 0.04484 0.75577 0.56625 0.0
C257 C 0.97025 0.75161 0.45874 0.0
C258 C 0.0072 0.70475 0.51422 0.0
H259 H 0.05421 0.79666 0.58071 0.0
H260 H 0.03319 0.82225 0.55162 0.0
H261 H 0.9817 0.8191 0.47039 0.0
H262 H 0.96091 0.79128 0.44231 0.0
H263 H 0.96013 0.71092 0.44506 0.0
H264 H 0.97974 0.68518 0.4759 0.0
H265 H 0.03473 0.68817 0.55338 0.0
H266 H 0.05475 0.71627 0.58233 0.0
H267 H 0.96263 0.72507 0.58077 0.0
H268 H 0.95421 0.78719 0.56686 0.0
H269 H 0.05433 0.719 0.45035 0.0
H270 H 0.06284 0.78208 0.46092 0.0
C271 C 0.28315 0.96574 0.52451 0.0
C272 C 0.30192 0.95795 0.53015 0.0
C273 C 0.31464 0.96853 0.51584 0.0
C274 C 0.30301 0.98222 0.50242 0.0
N275 N 0.2836 0.98104 0.50725 0.0
Co276 Co 0.26182 0.99868 0.4922 0.0
N277 N 0.28025 0.01295 0.46906 0.0
C278 C 0.29966 0.00885 0.46668 0.0
C279 C 0.30844 0.02042 0.44861 0.0
C280 C 0.29379 0.03268 0.43879 0.0
C281 C 0.27685 0.02804 0.45173 0.0
N282 N 0.24021 0.01687 0.47807 0.0
C283 C 0.24069 0.03224 0.46092 0.0
C284 C 0.22247 0.04173 0.45821 0.0
C285 C 0.21004 0.03197 0.47389 0.0
C286 C 0.22132 0.01724 0.48549 0.0
N287 N 0.24319 0.98373 0.5143 0.0
C288 C 0.22349 0.98691 0.51529 0.0
C289 C 0.21427 0.97392 0.5311 0.0
C290 C 0.2289 0.96153 0.54065 0.0
C291 C 0.24633 0.96778 0.53022 0.0
N292 N 0.26797 0.0181 0.52284 0.0
C293 C 0.27475 0.04981 0.56115 0.0
C294 C 0.25689 0.0392 0.55934 0.0
C295 C 0.2538 0.02363 0.54016 0.0
C296 C 0.28966 0.0433 0.54471 0.0
C297 C 0.28608 0.02736 0.52618 0.0
N298 N 0.25562 0.97951 0.46149 0.0
C299 C 0.23176 0.96247 0.43013 0.0
C300 C 0.24689 0.95213 0.41798 0.0
C301 C 0.26647 0.95591 0.42777 0.0
C302 C 0.27046 0.96952 0.44936 0.0
C303 C 0.23641 0.97598 0.45172 0.0
H304 H 0.28568 0.97166 0.45591 0.0
H305 H 0.22422 0.98329 0.46029 0.0
H306 H 0.23966 0.01665 0.53943 0.0
H307 H 0.29808 0.02321 0.51432 0.0
C308 C 0.30949 0.99499 0.48315 0.0
C309 C 0.26541 0.95796 0.53597 0.0
C310 C 0.25802 0.03862 0.44709 0.0
C311 C 0.21435 1.00289 0.50224 0.0
H312 H 0.30597 0.94572 0.54303 0.0
H313 H 0.33042 0.96619 0.5148 0.0
H314 H 0.32375 0.02017 0.44348 0.0
H315 H 0.29547 0.04389 0.42395 0.0
H316 H 0.21854 0.05444 0.44621 0.0
H317 H 0.19457 0.03518 0.47642 0.0
H318 H 0.19876 0.97358 0.53532 0.0
H319 H 0.22696 0.94928 0.55382 0.0
H320 H 0.2451 0.04306 0.57233 0.0
H321 H 0.30383 0.05084 0.54529 0.0
H322 H 0.21634 0.95987 0.42343 0.0
H323 H 0.27873 0.94846 0.41874 0.0
C324 C 0.54035 0.78931 0.05793 0.0
C325 C 0.54806 0.80639 0.07124 0.0
C326 C 0.53672 0.82179 0.06197 0.0
C327 C 0.52287 0.81329 0.04356 0.0
N328 N 0.52433 0.79331 0.04093 0.0
Co329 Co 0.50851 0.77523 0.01441 0.0
N330 N 0.49364 0.79815 0.99807 0.0
C331 C 0.4958 0.81756 0.00559 0.0
C332 C 0.48303 0.82983 0.99139 0.0
C333 C 0.47177 0.81751 0.97406 0.0
C334 C 0.47832 0.79835 0.97879 0.0
N335 N 0.49298 0.75717 0.98747 0.0
C336 C 0.4779 0.76128 0.96891 0.0
C337 C 0.47069 0.74418 0.95508 0.0
C338 C 0.48147 0.72874 0.96537 0.0
C339 C 0.49457 0.73718 0.98487 0.0
N340 N 0.52318 0.7523 0.03101 0.0
C341 C 0.52024 0.73279 0.02467 0.0
C342 C 0.53324 0.7206 0.03868 0.0
C343 C 0.54545 0.73309 0.05451 0.0
C344 C 0.53919 0.75222 0.04916 0.0
N345 N 0.48745 0.77262 0.04056 0.0
C346 C 0.45591 0.7693 0.07492 0.0
C347 C 0.4621 0.75297 0.05959 0.0
C348 C 0.47789 0.75487 0.043 0.0
C349 C 0.46605 0.78722 0.07332 0.0
C350 C 0.48153 0.78859 0.05597 0.0
N351 N 0.52961 0.77777 0.98852 0.0
C352 C 0.55419 0.76218 0.9615 0.0
C353 C 0.56335 0.78043 0.95803 0.0
C354 C 0.55474 0.79746 0.96912 0.0
C355 C 0.5379 0.79582 0.98396 0.0
C356 C 0.53748 0.76122 0.97654 0.0
H357 H 0.53207 0.80931 0.99202 0.0
H358 H 0.53153 0.7468 0.97885 0.0
H359 H 0.48192 0.74176 0.03219 0.0
H360 H 0.48826 0.80281 0.05514 0.0
C361 C 0.50945 0.82375 0.02672 0.0
C362 C 0.54956 0.76987 0.06062 0.0
C363 C 0.46907 0.78084 0.96501 0.0
C364 C 0.5071 0.72662 1.00289 0.0
H365 H 0.56098 0.8077 0.08543 0.0
H366 H 0.5389 0.83742 0.06713 0.0
H367 H 0.48178 0.84579 0.99377 0.0
H368 H 0.45985 0.82207 0.95988 0.0
H369 H 0.45846 0.74286 0.93978 0.0
H370 H 0.47944 0.71312 0.96006 0.0
H371 H 0.53437 0.70462 0.03655 0.0
H372 H 0.55799 0.72868 0.06778 0.0
H373 H 0.45483 0.7387 0.06051 0.0
H374 H 0.4617 0.80029 0.08484 0.0
H375 H 0.56026 0.74852 0.95342 0.0
H376 H 0.56099 0.812 0.96647 0.0
C377 C 0.22457 0.52693 0.03092 0.0
C378 C 0.20545 0.53304 0.03572 0.0
C379 C 0.19289 0.52237 0.01799 0.0
C380 C 0.20497 0.51055 0.00325 0.0
N381 N 0.22451 0.51279 0.01068 0.0
Co382 Co 0.24727 0.49986 0.99284 0.0
N383 N 0.22884 0.48629 0.96447 0.0
C384 C 0.2088 0.48715 0.9624 0.0
C385 C 0.20018 0.47647 0.9406 0.0
C386 C 0.21562 0.46817 0.92799 0.0
C387 C 0.23284 0.47424 0.94302 0.0
N388 N 0.27007 0.48721 0.97481 0.0
C389 C 0.27017 0.4751 0.95231 0.0
C390 C 0.28931 0.46955 0.94676 0.0
C391 C 0.30176 0.47854 0.96638 0.0
C392 C 0.28959 0.48897 0.98275 0.0
N393 N 0.26567 0.51338 0.02129 0.0
C394 C 0.2856 0.51141 0.02459 0.0
C395 C 0.29416 0.52255 0.04603 0.0
C396 C 0.27882 0.5325 0.05683 0.0
C397 C 0.26176 0.52693 0.04112 0.0
N398 N 0.2455 0.47626 0.01649 0.0
C399 C 0.24321 0.44213 0.04877 0.0
C400 C 0.26145 0.45065 0.04381 0.0
C401 C 0.26224 0.46748 0.02793 0.0
C402 C 0.22611 0.45122 0.03739 0.0
C403 C 0.22757 0.46801 0.02145 0.0
N404 N 0.24909 0.52325 0.96921 0.0
C405 C 0.26875 0.54798 0.94839 0.0
C406 C 0.25186 0.55603 0.93487 0.0
C407 C 0.23353 0.54738 0.93917 0.0
C408 C 0.23249 0.53115 0.95614 0.0
C409 C 0.26704 0.53187 0.96537 0.0
H410 H 0.21809 0.52517 0.95832 0.0
H411 H 0.28047 0.52662 0.97526 0.0
H412 H 0.27666 0.47305 0.02523 0.0
H413 H 0.21394 0.47393 0.01322 0.0
C414 C 0.1985 0.49855 0.98082 0.0
C415 C 0.24237 0.53566 0.04502 0.0
C416 C 0.25257 0.46794 0.93619 0.0
C417 C 0.29599 0.5002 0.00601 0.0
H418 H 0.20091 0.54444 0.0499 0.0
H419 H 0.17691 0.52368 0.0154 0.0
H420 H 0.18453 0.475 0.9345 0.0
H421 H 0.21436 0.45872 0.90977 0.0
H422 H 0.29382 0.45982 0.93041 0.0
H423 H 0.31776 0.47745 0.9686 0.0
H424 H 0.30976 0.52376 0.05252 0.0
H425 H 0.28011 0.54305 0.07391 0.0
H426 H 0.2752 0.44453 0.05242 0.0
H427 H 0.21156 0.44523 0.04028 0.0
H428 H 0.28329 0.55426 0.94622 0.0
H429 H 0.21998 0.55285 0.9291 0.0
C430 C 0.47275 0.26464 0.98202 0.0
C431 C 0.46534 0.28304 0.97479 0.0
C432 C 0.47748 0.29692 0.98809 0.0
C433 C 0.49154 0.28624 1.00261 0.0
N434 N 0.48927 0.26635 0.9992 0.0
Co435 Co 0.50605 0.2453 0.01715 0.0
N436 N 0.52317 0.26571 0.03806 0.0
C437 C 0.52109 0.28567 0.03765 0.0
C438 C 0.53494 0.29588 0.05427 0.0
C439 C 0.54677 0.28164 0.06575 0.0
C440 C 0.53952 0.26346 0.05524 0.0
N441 N 0.52285 0.22424 0.03508 0.0
C442 C 0.53952 0.22589 0.05202 0.0
C443 C 0.54723 0.20738 0.05834 0.0
C444 C 0.53498 0.19359 0.04516 0.0
C445 C 0.52063 0.20435 0.03138 0.0
N446 N 0.48892 0.22487 0.99626 0.0
C447 C 0.49084 0.20492 0.99683 0.0
C448 C 0.47662 0.1947 0.98083 0.0
C449 C 0.46473 0.20896 0.96952 0.0
C450 C 0.47244 0.22712 0.97937 0.0
N451 N 0.52425 0.24564 0.98699 0.0
C452 C 0.55119 0.24626 0.94552 0.0
C453 C 0.54417 0.22834 0.9547 0.0
C454 C 0.5308 0.22837 0.97517 0.0
C455 C 0.54425 0.26385 0.95729 0.0
C456 C 0.53096 0.26321 0.97778 0.0
N457 N 0.48779 0.24502 0.04724 0.0
C458 C 0.46687 0.22711 0.07612 0.0
C459 C 0.45964 0.24484 0.08722 0.0
C460 C 0.46718 0.26262 0.07836 0.0
C461 C 0.48109 0.26237 0.05864 0.0
C462 C 0.48084 0.22753 0.05643 0.0
H463 H 0.48596 0.27646 0.05267 0.0
H464 H 0.48566 0.21352 0.04875 0.0
H465 H 0.52605 0.21422 0.98115 0.0
H466 H 0.52651 0.27715 0.98604 0.0
C467 C 0.50638 0.29441 0.02075 0.0
C468 C 0.46319 0.24601 0.97273 0.0
C469 C 0.54899 0.24456 0.06175 0.0
C470 C 0.50566 0.19621 0.01348 0.0
H471 H 0.4523 0.2861 0.96162 0.0
H472 H 0.47597 0.31289 0.98773 0.0
H473 H 0.53643 0.31179 0.05737 0.0
H474 H 0.55945 0.28436 0.08002 0.0
H475 H 0.56059 0.20408 0.07068 0.0
H476 H 0.53666 0.17763 0.04498 0.0
H477 H 0.47488 0.17878 0.97812 0.0
H478 H 0.45167 0.2063 0.9559 0.0
H479 H 0.54885 0.21428 0.94601 0.0
H480 H 0.54937 0.27814 0.95118 0.0
H481 H 0.46183 0.2129 0.08261 0.0
H482 H 0.462 0.27679 0.08604 0.0
C483 C 0.73865 0.53073 0.05551 0.0
C484 C 0.71986 0.53827 0.05911 0.0
C485 C 0.70669 0.52597 0.04462 0.0
C486 C 0.71808 0.51176 0.03278 0.0
N487 N 0.73779 0.51421 0.03878 0.0
Co488 Co 0.75952 0.49729 0.02443 0.0
N489 N 0.74 0.4786 0.00416 0.0
C490 C 0.71999 0.47968 0.00381 0.0
C491 C 0.71038 0.4645 0.98913 0.0
C492 C 0.7251 0.45292 0.97957 0.0
C493 C 0.74296 0.46181 0.98883 0.0
N494 N 0.78126 0.48063 0.00962 0.0
C495 C 0.78041 0.46393 0.99324 0.0
C496 C 0.79921 0.45757 0.98732 0.0
C497 C 0.8124 0.47049 1.00061 0.0
C498 C 0.80099 0.48405 0.01371 0.0
N499 N 0.77905 0.51564 0.04532 0.0
C500 C 0.79905 0.51409 0.04651 0.0
C501 C 0.80868 0.52806 0.0634 0.0
C502 C 0.79398 0.53924 0.07374 0.0
C503 C 0.77611 0.53157 0.06229 0.0
N504 N 0.75929 0.48047 0.0565 0.0
C505 C 0.75895 0.45634 0.10188 0.0
C506 C 0.77681 0.46224 0.09191 0.0
C507 C 0.77664 0.47415 0.06936 0.0
C508 C 0.74127 0.46289 0.08887 0.0
C509 C 0.74178 0.47488 0.06646 0.0
N510 N 0.7597 0.51423 0.99231 0.0
C511 C 0.77705 0.53605 0.96407 0.0
C512 C 0.75947 0.54028 0.94882 0.0
C513 C 0.74213 0.53074 0.95518 0.0
C514 C 0.74258 0.51791 0.97679 0.0
C515 C 0.77685 0.52302 0.98541 0.0
H516 H 0.7288 0.51135 0.98065 0.0
H517 H 0.79072 0.52057 0.99625 0.0
H518 H 0.79073 0.47801 0.06268 0.0
H519 H 0.72781 0.47933 0.05744 0.0
C520 C 0.71069 0.49544 0.01696 0.0
C521 C 0.7568 0.53991 0.06837 0.0
C522 C 0.76227 0.45358 0.98269 0.0
C523 C 0.80837 0.49947 0.03119 0.0
H524 H 0.71601 0.55131 0.07101 0.0
H525 H 0.69068 0.52716 0.04307 0.0
H526 H 0.69455 0.46212 0.98578 0.0
H527 H 0.72291 0.43941 0.96723 0.0
H528 H 0.80303 0.44485 0.97478 0.0
H529 H 0.82842 0.46991 1.00096 0.0
H530 H 0.82451 0.52985 0.06776 0.0
H531 H 0.79624 0.5516 0.08819 0.0
H532 H 0.79093 0.45779 0.10152 0.0
H533 H 0.72702 0.45851 0.09557 0.0
H534 H 0.79089 0.54318 0.96014 0.0
H535 H 0.72818 0.53319 0.94363 0.0
H536 H 0.23263 0.28015 0.35416 0.0
H537 H 0.2046 0.28263 0.38318 0.0
H538 H 0.16635 0.25498 0.31912 0.0
H539 H 0.194 0.25276 0.29005 0.0
H540 H 0.1474 0.28437 0.34215 0.0
H541 H 0.1853 0.22868 0.37334 0.0
H542 H 0.21521 0.21092 0.39059 0.0
H543 H 0.2198 0.2496 0.46175 0.0
H544 H 0.19005 0.26778 0.44474 0.0
H545 H 0.0688 0.25015 0.41776 0.0
H546 H 0.098 0.25079 0.39094 0.0
H547 H 0.12922 0.28682 0.45397 0.0
H548 H 0.10002 0.28631 0.48086 0.0
H549 H 0.15213 0.25471 0.43297 0.0
H550 H 0.1117 0.30898 0.40057 0.0
H551 H 0.08078 0.32442 0.38221 0.0
H552 H 0.07999 0.28531 0.31158 0.0
H553 H 0.11077 0.26942 0.32972 0.0
C554 C 0.2182 0.2748 0.34618 0.0
C555 C 0.21564 0.26621 0.31976 0.0
C556 C 0.20221 0.27609 0.36286 0.0
C557 C 0.18336 0.26876 0.3535 0.0
C558 C 0.18069 0.26074 0.32688 0.0
C559 C 0.1966 0.25944 0.31026 0.0
C560 C 0.1664 0.26907 0.37137 0.0
C561 C 0.14844 0.27773 0.3619 0.0
C562 C 0.1677 0.26062 0.39733 0.0
C563 C 0.18559 0.24975 0.40761 0.0
C564 C 0.19279 0.23351 0.39255 0.0
C565 C 0.20969 0.22335 0.40231 0.0
C566 C 0.21943 0.22917 0.42721 0.0
C567 C 0.21226 0.24514 0.44244 0.0
C568 C 0.19537 0.25537 0.43276 0.0
C569 C 0.08193 0.25809 0.42599 0.0
C570 C 0.08207 0.26824 0.4514 0.0
C571 C 0.09857 0.25853 0.41059 0.0
C572 C 0.11576 0.26895 0.42038 0.0
C573 C 0.11611 0.27872 0.446 0.0
C574 C 0.09938 0.27851 0.46125 0.0
C575 C 0.13322 0.26992 0.40363 0.0
C576 C 0.15122 0.26148 0.4133 0.0
C577 C 0.13187 0.27827 0.37765 0.0
C578 C 0.11344 0.28789 0.36663 0.0
C579 C 0.10485 0.30356 0.38123 0.0
C580 C 0.08736 0.31241 0.37084 0.0
C581 C 0.0784 0.30582 0.34578 0.0
C582 C 0.08694 0.29039 0.33101 0.0
C583 C 0.10441 0.28146 0.34132 0.0
H584 H 0.06486 0.31269 0.33777 0.0
H585 H 0.23251 0.22128 0.43474 0.0
H586 H 0.72188 0.2269 0.35712 0.0
H587 H 0.71892 0.19697 0.3833 0.0
H588 H 0.74941 0.16323 0.32311 0.0
H589 H 0.75206 0.1928 0.29667 0.0
H590 H 0.71959 0.1423 0.3394 0.0
H591 H 0.77376 0.18083 0.38206 0.0
H592 H 0.78991 0.21066 0.40391 0.0
H593 H 0.75003 0.20948 0.46792 0.0
H594 H 0.73345 0.17978 0.44622 0.0
H595 H 0.75499 0.06063 0.41614 0.0
H596 H 0.75381 0.09113 0.39036 0.0
H597 H 0.7174 0.11884 0.44927 0.0
H598 H 0.71857 0.08848 0.47512 0.0
H599 H 0.74843 0.14307 0.43469 0.0
H600 H 0.69562 0.1027 0.39198 0.0
H601 H 0.68093 0.07228 0.36981 0.0
H602 H 0.72013 0.07637 0.30534 0.0
H603 H 0.73527 0.10667 0.32735 0.0
C604 C 0.72775 0.21306 0.34933 0.0
C605 C 0.73732 0.21227 0.32492 0.0
C606 C 0.72614 0.196 0.36437 0.0
C607 C 0.73421 0.17795 0.35532 0.0
C608 C 0.7431 0.177 0.33048 0.0
C609 C 0.74465 0.19397 0.31544 0.0
C610 C 0.7341 0.16013 0.37203 0.0
C611 C 0.72604 0.14244 0.36016 0.0
C612 C 0.74226 0.1604 0.39925 0.0
C613 C 0.75222 0.17823 0.41235 0.0
C614 C 0.76833 0.18703 0.40067 0.0
C615 C 0.77758 0.20389 0.41305 0.0
C616 C 0.77096 0.21199 0.43724 0.0
C617 C 0.75511 0.20321 0.44915 0.0
C618 C 0.74579 0.18636 0.43683 0.0
C619 C 0.74686 0.07329 0.42363 0.0
C620 C 0.73676 0.0722 0.44747 0.0
C621 C 0.7461 0.09061 0.40886 0.0
C622 C 0.73536 0.10711 0.41785 0.0
C623 C 0.72569 0.10622 0.442 0.0
C624 C 0.72628 0.08886 0.4566 0.0
C625 C 0.73407 0.12528 0.40195 0.0
C626 C 0.74187 0.14301 0.41398 0.0
C627 C 0.72586 0.125 0.37481 0.0
C628 C 0.71671 0.10685 0.36146 0.0
C629 C 0.70122 0.09702 0.37319 0.0
C630 C 0.69279 0.07982 0.36063 0.0
C631 C 0.69963 0.07237 0.33621 0.0
C632 C 0.71487 0.08214 0.32427 0.0
C633 C 0.72337 0.09934 0.33677 0.0
H634 H 0.69308 0.05905 0.32652 0.0
H635 H 0.77815 0.22504 0.44681 0.0
H636 H 0.80633 0.73168 0.31434 0.0
H637 H 0.83744 0.72955 0.34207 0.0
H638 H 0.86488 0.77 0.29015 0.0
H639 H 0.83359 0.77219 0.26192 0.0
H640 H 0.89021 0.73718 0.30999 0.0
H641 H 0.84674 0.78811 0.34272 0.0
H642 H 0.81363 0.79866 0.35524 0.0
H643 H 0.81686 0.75856 0.4211 0.0
H644 H 0.84959 0.74694 0.40801 0.0
H645 H 0.97046 0.76282 0.40603 0.0
H646 H 0.94254 0.76304 0.37161 0.0
H647 H 0.90475 0.73774 0.42857 0.0
H648 H 0.93239 0.73884 0.46344 0.0
H649 H 0.88494 0.76403 0.40414 0.0
H650 H 0.92486 0.7107 0.37221 0.0
H651 H 0.95522 0.69438 0.35772 0.0
H652 H 0.95746 0.73442 0.29221 0.0
H653 H 0.92724 0.75116 0.30654 0.0
C654 C 0.819 0.73997 0.30849 0.0
C655 C 0.81735 0.75236 0.28608 0.0
C656 C 0.83682 0.73865 0.32437 0.0
C657 C 0.8534 0.74979 0.31838 0.0
C658 C 0.85224 0.76128 0.29511 0.0
C659 C 0.83433 0.76259 0.27909 0.0
C660 C 0.87105 0.75094 0.33809 0.0
C661 C 0.88922 0.74331 0.33046 0.0
C662 C 0.86953 0.75844 0.36503 0.0
C663 C 0.85056 0.76651 0.37421 0.0
C664 C 0.84036 0.78145 0.35978 0.0
C665 C 0.82161 0.78755 0.3669 0.0
C666 C 0.81314 0.7793 0.38898 0.0
C667 C 0.82343 0.76492 0.40398 0.0
C668 C 0.84205 0.75849 0.39663 0.0
C669 C 0.95614 0.75737 0.41109 0.0
C670 C 0.95351 0.75085 0.43733 0.0
C671 C 0.94022 0.75731 0.39136 0.0
C672 C 0.92147 0.75011 0.3972 0.0
C673 C 0.91897 0.7434 0.42343 0.0
C674 C 0.93478 0.74389 0.44332 0.0
C675 C 0.90434 0.75 0.37632 0.0
C676 C 0.88616 0.75794 0.38369 0.0
C677 C 0.90578 0.74238 0.34933 0.0
C678 C 0.92391 0.73232 0.34062 0.0
C679 C 0.93191 0.71612 0.35483 0.0
C680 C 0.94908 0.70678 0.34663 0.0
C681 C 0.95829 0.7134 0.3241 0.0
C682 C 0.95032 0.72933 0.30968 0.0
C683 C 0.93317 0.73874 0.31782 0.0
H684 H 0.97158 0.70614 0.31778 0.0
H685 H 0.79863 0.7841 0.3945 0.0
H686 H 0.26472 0.80654 0.27163 0.0
H687 H 0.26035 0.83841 0.29506 0.0
H688 H 0.20378 0.8457 0.25063 0.0
H689 H 0.208 0.8134 0.22686 0.0
H690 H 0.23378 0.88286 0.26425 0.0
H691 H 0.19551 0.83117 0.30257 0.0
H692 H 0.19058 0.79722 0.31805 0.0
H693 H 0.24045 0.80457 0.37631 0.0
H694 H 0.24591 0.83841 0.36083 0.0
H695 H 0.21954 0.95426 0.37436 0.0
H696 H 0.21225 0.92893 0.33813 0.0
H697 H 0.25703 0.89102 0.37524 0.0
H698 H 0.26391 0.91583 0.41173 0.0
H699 H 0.22377 0.87081 0.36103 0.0
H700 H 0.26564 0.9183 0.32001 0.0
H701 H 0.27421 0.95143 0.30457 0.0
H702 H 0.22082 0.95172 0.25207 0.0
H703 H 0.21182 0.91867 0.26749 0.0
C704 C 0.25152 0.81507 0.26633 0.0
C705 C 0.23654 0.80736 0.24775 0.0
C706 C 0.2491 0.8333 0.27967 0.0
C707 C 0.23167 0.84417 0.27473 0.0
C708 C 0.21734 0.83742 0.25459 0.0
C709 C 0.21977 0.81902 0.24109 0.0
C710 C 0.2278 0.86103 0.29342 0.0
C711 C 0.23098 0.8804 0.28526 0.0
C712 C 0.22458 0.85759 0.32086 0.0
C713 C 0.22117 0.8373 0.33043 0.0
C714 C 0.20552 0.82549 0.31852 0.0
C715 C 0.20262 0.80627 0.32732 0.0
C716 C 0.2152 0.79876 0.34814 0.0
C717 C 0.23071 0.81043 0.3602 0.0
C718 C 0.2337 0.82963 0.35144 0.0
C719 C 0.2277 0.94044 0.37486 0.0
C720 C 0.24237 0.93706 0.39582 0.0
C721 C 0.22362 0.92608 0.35406 0.0
C722 C 0.23418 0.90816 0.35394 0.0
C723 C 0.2487 0.90475 0.37496 0.0
C724 C 0.25276 0.91902 0.39566 0.0
C725 C 0.23033 0.89272 0.33216 0.0
C726 C 0.22579 0.8735 0.33985 0.0
C727 C 0.23251 0.89633 0.30442 0.0
C728 C 0.23793 0.91616 0.29517 0.0
C729 C 0.25565 0.92551 0.30536 0.0
C730 C 0.2606 0.94426 0.29658 0.0
C731 C 0.24803 0.95371 0.27743 0.0
C732 C 0.23052 0.9444 0.26696 0.0
C733 C 0.22549 0.92567 0.2757 0.0
H734 H 0.25189 0.96822 0.27065 0.0
H735 H 0.21289 0.78394 0.35503 0.0
H736 H 0.21271 0.74417 0.69973 0.0
H737 H 0.18122 0.74249 0.67275 0.0
H738 H 0.15648 0.78581 0.72705 0.0
H739 H 0.18825 0.78758 0.75458 0.0
H740 H 0.13034 0.75328 0.70989 0.0
H741 H 0.17296 0.80045 0.67004 0.0
H742 H 0.2042 0.8106 0.65131 0.0
H743 H 0.19658 0.76509 0.58854 0.0
H744 H 0.16563 0.75422 0.60726 0.0
H745 H 0.04648 0.77112 0.61841 0.0
H746 H 0.07556 0.77403 0.65084 0.0
H747 H 0.11101 0.7439 0.59266 0.0
H748 H 0.08222 0.74233 0.55967 0.0
H749 H 0.13144 0.77208 0.61372 0.0
H750 H 0.09333 0.72181 0.65218 0.0
H751 H 0.06386 0.70679 0.67013 0.0
H752 H 0.06426 0.75222 0.73335 0.0
H753 H 0.0936 0.76768 0.71554 0.0
C754 C 0.20059 0.75328 0.70619 0.0
C755 C 0.20311 0.76619 0.72922 0.0
C756 C 0.18257 0.75229 0.69065 0.0
C757 C 0.16662 0.76426 0.69761 0.0
C758 C 0.16868 0.77652 0.72127 0.0
C759 C 0.18682 0.77753 0.73695 0.0
C760 C 0.14821 0.76441 0.67934 0.0
C761 C 0.13043 0.7577 0.68898 0.0
C762 C 0.14857 0.76953 0.65179 0.0
C763 C 0.167 0.77643 0.6402 0.0
C764 C 0.178 0.79251 0.65235 0.0
C765 C 0.19565 0.7984 0.64174 0.0
C766 C 0.20234 0.78854 0.61877 0.0
C767 C 0.19139 0.77273 0.60633 0.0
C768 C 0.17379 0.76668 0.61695 0.0
C769 C 0.06055 0.76521 0.61265 0.0
C770 C 0.06222 0.7566 0.58659 0.0
C771 C 0.07713 0.76668 0.63126 0.0
C772 C 0.09555 0.75895 0.62447 0.0
C773 C 0.09706 0.75005 0.59847 0.0
C774 C 0.0806 0.74902 0.57968 0.0
C775 C 0.11342 0.76058 0.644 0.0
C776 C 0.13117 0.76773 0.63464 0.0
C777 C 0.11315 0.75529 0.67156 0.0
C778 C 0.09553 0.74603 0.68234 0.0
C779 C 0.08704 0.72869 0.66978 0.0
C780 C 0.07038 0.72008 0.67995 0.0
C781 C 0.06216 0.72858 0.70282 0.0
C782 C 0.07063 0.74568 0.71561 0.0
C783 C 0.08728 0.75436 0.7055 0.0
H784 H 0.04926 0.72189 0.71067 0.0
H785 H 0.21601 0.79314 0.61061 0.0
H786 H 0.30345 0.22119 0.69005 0.0
H787 H 0.30827 0.19003 0.6642 0.0
H788 H 0.25066 0.1697 0.68451 0.0
H789 H 0.24642 0.20014 0.7115 0.0
H790 H 0.27403 0.14113 0.69005 0.0
H791 H 0.26169 0.188 0.61933 0.0
H792 H 0.26735 0.21821 0.59414 0.0
H793 H 0.32612 0.19837 0.57928 0.0
H794 H 0.32087 0.16813 0.60467 0.0
H795 H 0.24665 0.07745 0.57297 0.0
H796 H 0.25082 0.10753 0.60159 0.0
H797 H 0.31299 0.09485 0.61671 0.0
H798 H 0.30885 0.06389 0.58944 0.0
H799 H 0.29266 0.13868 0.5945 0.0
H800 H 0.30148 0.0897 0.66614 0.0
H801 H 0.29127 0.05935 0.68804 0.0
H802 H 0.23348 0.08408 0.69727 0.0
H803 H 0.24328 0.11446 0.67502 0.0
C804 C 0.29185 0.21004 0.68882 0.0
C805 C 0.2746 0.21298 0.70274 0.0
C806 C 0.29455 0.19228 0.674 0.0
C807 C 0.27975 0.17752 0.67217 0.0
C808 C 0.26239 0.18073 0.68575 0.0
C809 C 0.25993 0.19817 0.70109 0.0
C810 C 0.28222 0.15852 0.65659 0.0
C811 C 0.27812 0.14072 0.66916 0.0
C812 C 0.2878 0.15777 0.6294 0.0
C813 C 0.29098 0.17594 0.61418 0.0
C814 C 0.27587 0.19016 0.61087 0.0
C815 C 0.27899 0.20727 0.59653 0.0
C816 C 0.29711 0.21024 0.5852 0.0
C817 C 0.31211 0.19607 0.58812 0.0
C818 C 0.30907 0.17894 0.60247 0.0
C819 C 0.26116 0.08069 0.58281 0.0
C820 C 0.27737 0.06802 0.579 0.0
C821 C 0.26353 0.09805 0.59888 0.0
C822 C 0.28217 0.10328 0.61113 0.0
C823 C 0.29849 0.09096 0.60729 0.0
C824 C 0.29608 0.07335 0.59157 0.0
C825 C 0.28428 0.12171 0.628 0.0
C826 C 0.28907 0.13929 0.61561 0.0
C827 C 0.27887 0.12237 0.65509 0.0
C828 C 0.27305 0.10422 0.66867 0.0
C829 C 0.28654 0.08856 0.67259 0.0
C830 C 0.28084 0.07138 0.68512 0.0
C831 C 0.26172 0.06976 0.69397 0.0
C832 C 0.24828 0.08534 0.69037 0.0
C833 C 0.2539 0.10255 0.67783 0.0
H834 H 0.25734 0.05645 0.70367 0.0
H835 H 0.2995 0.2235 0.5741 0.0
H836 H 0.77661 0.28473 0.67867 0.0
H837 H 0.80537 0.28761 0.65125 0.0
H838 H 0.84083 0.25475 0.71018 0.0
H839 H 0.81253 0.25223 0.73777 0.0
H840 H 0.86182 0.28414 0.69477 0.0
H841 H 0.82075 0.2334 0.64862 0.0
H842 H 0.79009 0.21934 0.62557 0.0
H843 H 0.79125 0.2632 0.56466 0.0
H844 H 0.8218 0.27769 0.58758 0.0
H845 H 0.94137 0.25106 0.61826 0.0
H846 H 0.91136 0.25215 0.64338 0.0
H847 H 0.88348 0.29046 0.58399 0.0
H848 H 0.91337 0.28926 0.55857 0.0
H849 H 0.85818 0.26081 0.5981 0.0
H850 H 0.90106 0.30994 0.64376 0.0
H851 H 0.93223 0.3227 0.66693 0.0
H852 H 0.92801 0.28028 0.72919 0.0
H853 H 0.89695 0.26706 0.70617 0.0
C854 C 0.79057 0.27824 0.68585 0.0
C855 C 0.79217 0.26821 0.71044 0.0
C856 C 0.807 0.27979 0.67007 0.0
C857 C 0.8253 0.27118 0.67842 0.0
C858 C 0.82695 0.26154 0.70321 0.0
C859 C 0.81066 0.26007 0.71899 0.0
C860 C 0.84277 0.27192 0.66149 0.0
C861 C 0.861 0.27886 0.6737 0.0
C862 C 0.84177 0.26544 0.63378 0.0
C863 C 0.82342 0.25677 0.61999 0.0
C864 C 0.81438 0.24015 0.63044 0.0
C865 C 0.79704 0.23208 0.61737 0.0
C866 C 0.7887 0.24041 0.59371 0.0
C867 C 0.79771 0.25679 0.58302 0.0
C868 C 0.81504 0.26493 0.59603 0.0
C869 C 0.9288 0.2596 0.61041 0.0
C870 C 0.92984 0.27014 0.58644 0.0
C871 C 0.91169 0.26032 0.62491 0.0
C872 C 0.8952 0.27155 0.61574 0.0
C873 C 0.89602 0.28176 0.59153 0.0
C874 C 0.91319 0.28117 0.57713 0.0
C875 C 0.87718 0.27273 0.63155 0.0
C876 C 0.8589 0.2662 0.61912 0.0
C877 C 0.87815 0.27941 0.65913 0.0
C878 C 0.89677 0.2874 0.6731 0.0
C879 C 0.90686 0.30323 0.66228 0.0
C880 C 0.92449 0.31056 0.67541 0.0
C881 C 0.93212 0.30228 0.69948 0.0
C882 C 0.9221 0.28667 0.71052 0.0
C883 C 0.90447 0.27926 0.69746 0.0
H884 H 0.94577 0.30798 0.70962 0.0
H885 H 0.77528 0.23414 0.58362 0.0
H886 H 0.72477 0.76985 0.68388 0.0
H887 H 0.72003 0.79875 0.65531 0.0
H888 H 0.74438 0.83681 0.72147 0.0
H889 H 0.74882 0.80831 0.75009 0.0
H890 H 0.71402 0.85438 0.69499 0.0
H891 H 0.77321 0.8196 0.6728 0.0
H892 H 0.79265 0.79062 0.65843 0.0
H893 H 0.75798 0.78684 0.58215 0.0
H894 H 0.73811 0.81563 0.59628 0.0
H895 H 0.75385 0.93614 0.62984 0.0
H896 H 0.75182 0.90533 0.65464 0.0
H897 H 0.71804 0.87777 0.58604 0.0
H898 H 0.71984 0.90857 0.56132 0.0
H899 H 0.75013 0.85401 0.61071 0.0
H900 H 0.69294 0.89215 0.63383 0.0
H901 H 0.67592 0.92224 0.64984 0.0
H902 H 0.70991 0.92079 0.72653 0.0
H903 H 0.72737 0.89085 0.71081 0.0
C904 C 0.72877 0.78443 0.69243 0.0
C905 C 0.73737 0.78679 0.7191 0.0
C906 C 0.72615 0.80088 0.67608 0.0
C907 C 0.73214 0.81984 0.6862 0.0
C908 C 0.7397 0.82231 0.71326 0.0
C909 C 0.74232 0.80596 0.72954 0.0
C910 C 0.73181 0.83704 0.66841 0.0
C911 C 0.72195 0.85431 0.6766 0.0
C912 C 0.74205 0.83686 0.64431 0.0
C913 C 0.75401 0.8196 0.63573 0.0
C914 C 0.76962 0.81248 0.65306 0.0
C915 C 0.78074 0.79611 0.64495 0.0
C916 C 0.77651 0.78686 0.61942 0.0
C917 C 0.7612 0.79399 0.60194 0.0
C918 C 0.75 0.81033 0.60999 0.0
C919 C 0.74615 0.92343 0.62006 0.0
C920 C 0.73688 0.92466 0.59385 0.0
C921 C 0.74494 0.90594 0.63419 0.0
C922 C 0.73466 0.88943 0.62213 0.0
C923 C 0.72598 0.89042 0.59562 0.0
C924 C 0.72693 0.90798 0.58165 0.0
C925 C 0.73254 0.8713 0.63753 0.0
C926 C 0.74196 0.85393 0.62888 0.0
C927 C 0.7222 0.87147 0.66146 0.0
C928 C 0.71158 0.88936 0.67105 0.0
C929 C 0.69691 0.89834 0.65403 0.0
C930 C 0.68716 0.91536 0.66306 0.0
C931 C 0.69186 0.92345 0.68916 0.0
C932 C 0.70629 0.91452 0.70631 0.0
C933 C 0.7161 0.89752 0.69736 0.0
H934 H 0.6843 0.93662 0.69612 0.0
H935 H 0.78514 0.77419 0.61317 0.0
H936 H 0.83696 0.75009 0.77348 0.0
H937 H 0.865 0.75106 0.74447 0.0
H938 H 0.82433 0.76056 0.67473 0.0
H939 H 0.79647 0.75822 0.70329 0.0
H940 H 0.84895 0.73635 0.65937 0.0
H941 H 0.85695 0.79829 0.70971 0.0
H942 H 0.86088 0.82053 0.7505 0.0
H943 H 0.91477 0.79079 0.77617 0.0
H944 H 0.91103 0.76822 0.73568 0.0
H945 H 0.91916 0.77213 0.57048 0.0
H946 H 0.89312 0.77204 0.6028 0.0
H947 H 0.93251 0.74212 0.66033 0.0
H948 H 0.9585 0.7419 0.62793 0.0
H949 H 0.90998 0.77605 0.68241 0.0
H950 H 0.90073 0.71492 0.62847 0.0
H951 H 0.89611 0.69531 0.58537 0.0
H952 H 0.84289 0.72759 0.56394 0.0
H953 H 0.84736 0.7476 0.60675 0.0
C954 C 0.83411 0.75244 0.75197 0.0
C955 C 0.81456 0.75397 0.74061 0.0
C956 C 0.85015 0.75313 0.73536 0.0
C957 C 0.84696 0.75612 0.70725 0.0
C958 C 0.82736 0.75807 0.69618 0.0
C959 C 0.81139 0.75679 0.71257 0.0
C960 C 0.86378 0.75658 0.68902 0.0
C961 C 0.86211 0.74531 0.66441 0.0
C962 C 0.88131 0.7679 0.69547 0.0
C963 C 0.88359 0.78144 0.71982 0.0
C964 C 0.86956 0.79641 0.72416 0.0
C965 C 0.87177 0.80908 0.7472 0.0
C966 C 0.88803 0.80703 0.76595 0.0
C967 C 0.90216 0.79234 0.76166 0.0
C968 C 0.90001 0.77961 0.73865 0.0
C969 C 0.9223 0.76567 0.5901 0.0
C970 C 0.94084 0.75696 0.59665 0.0
C971 C 0.90742 0.76558 0.60849 0.0
C972 C 0.91088 0.75704 0.63394 0.0
C973 C 0.92954 0.7488 0.64082 0.0
C974 C 0.94431 0.74858 0.62225 0.0
C975 C 0.8948 0.75614 0.65297 0.0
C976 C 0.8967 0.76721 0.67761 0.0
C977 C 0.87728 0.74504 0.64631 0.0
C978 C 0.87449 0.73289 0.62069 0.0
C979 C 0.88814 0.71795 0.61446 0.0
C980 C 0.88553 0.70674 0.5901 0.0
C981 C 0.86924 0.71023 0.57189 0.0
C982 C 0.85551 0.72491 0.57804 0.0
C983 C 0.85807 0.73618 0.60236 0.0
H984 H 0.86725 0.70154 0.55304 0.0
H985 H 0.88972 0.81686 0.78378 0.0
H986 H 0.27088 0.82913 0.72668 0.0
H987 H 0.27085 0.85704 0.69655 0.0
H988 H 0.27472 0.81644 0.62762 0.0
H989 H 0.27567 0.78836 0.6581 0.0
H990 H 0.29659 0.84717 0.62027 0.0
H991 H 0.22922 0.8412 0.64699 0.0
H992 H 0.20305 0.83989 0.67952 0.0
H993 H 0.22044 0.89743 0.71268 0.0
H994 H 0.24682 0.89906 0.6807 0.0
H995 H 0.26901 0.91873 0.52092 0.0
H996 H 0.2706 0.8899 0.5501 0.0
H997 H 0.26692 0.92895 0.62074 0.0
H998 H 0.26474 0.95764 0.59133 0.0
H999 H 0.24454 0.8986 0.62643 0.0
H1000 H 0.31143 0.9053 0.60214 0.0
H1001 H 0.33824 0.90808 0.57103 0.0
H1002 H 0.32308 0.85063 0.53521 0.0
H1003 H 0.29595 0.84765 0.56584 0.0
C1004 C 0.27185 0.82608 0.70512 0.0
C1005 C 0.2732 0.8064 0.69489 0.0
C1006 C 0.27164 0.84214 0.68776 0.0
C1007 C 0.27219 0.83905 0.65947 0.0
C1008 C 0.27412 0.8194 0.64926 0.0
C1009 C 0.27469 0.80328 0.66675 0.0
C1010 C 0.27078 0.85627 0.64071 0.0
C1011 C 0.28499 0.85821 0.62139 0.0
C1012 C 0.25604 0.87121 0.64242 0.0
C1013 C 0.2401 0.87018 0.66157 0.0
C1014 C 0.22754 0.85352 0.66132 0.0
C1015 C 0.21267 0.85272 0.67964 0.0
C1016 C 0.21014 0.86852 0.69814 0.0
C1017 C 0.22243 0.88519 0.69835 0.0
C1018 C 0.23732 0.88608 0.68013 0.0
C1019 C 0.26859 0.92108 0.5427 0.0
C1020 C 0.26681 0.94039 0.5539 0.0
C1021 C 0.26962 0.90461 0.55945 0.0
C1022 C 0.26918 0.90706 0.5879 0.0
C1023 C 0.26731 0.92647 0.59898 0.0
C1024 C 0.26614 0.94291 0.5822 0.0
C1025 C 0.27036 0.88952 0.60606 0.0
C1026 C 0.25609 0.88751 0.62523 0.0
C1027 C 0.28514 0.87465 0.60441 0.0
C1028 C 0.30153 0.87634 0.5861 0.0
C1029 C 0.31372 0.89332 0.5875 0.0
C1030 C 0.32899 0.89493 0.56996 0.0
C1031 C 0.33233 0.87956 0.55111 0.0
C1032 C 0.32045 0.86254 0.5498 0.0
C1033 C 0.30513 0.86087 0.56725 0.0
H1034 H 0.34416 0.88083 0.53755 0.0
H1035 H 0.19862 0.86785 0.71228 0.0
H1036 H 0.2129 0.27315 0.69676 0.0
H1037 H 0.18056 0.27681 0.67255 0.0
H1038 H 0.153 0.24646 0.73567 0.0
H1039 H 0.18556 0.24249 0.76009 0.0
H1040 H 0.13879 0.23309 0.68566 0.0
H1041 H 0.14804 0.29613 0.73109 0.0
H1042 H 0.16562 0.32701 0.74625 0.0
H1043 H 0.16801 0.34366 0.66335 0.0
H1044 H 0.15067 0.31271 0.64763 0.0
H1045 H 0.04215 0.25813 0.62941 0.0
H1046 H 0.07141 0.25704 0.66184 0.0
H1047 H 0.10711 0.28241 0.60257 0.0
H1048 H 0.0779 0.2833 0.57013 0.0
H1049 H 0.11516 0.29885 0.65503 0.0
H1050 H 0.1079 0.23423 0.61015 0.0
H1051 H 0.08946 0.20371 0.59552 0.0
H1052 H 0.08272 0.19037 0.67884 0.0
H1053 H 0.10081 0.22105 0.69396 0.0
C1054 C 0.2 0.26727 0.70563 0.0
C1055 C 0.20186 0.25756 0.73046 0.0
C1056 C 0.18147 0.26947 0.69177 0.0
C1057 C 0.16429 0.26216 0.70244 0.0
C1058 C 0.16605 0.25229 0.72711 0.0
C1059 C 0.18466 0.25009 0.74106 0.0
C1060 C 0.14466 0.26455 0.68736 0.0
C1061 C 0.13345 0.24751 0.67943 0.0
C1062 C 0.13778 0.28333 0.67884 0.0
C1063 C 0.14818 0.30201 0.68817 0.0
C1064 C 0.15245 0.3063 0.71607 0.0
C1065 C 0.16235 0.32383 0.72477 0.0
C1066 C 0.16797 0.33728 0.70578 0.0
C1067 C 0.16366 0.33322 0.67804 0.0
C1068 C 0.15377 0.3157 0.66922 0.0
C1069 C 0.05627 0.26354 0.6235 0.0
C1070 C 0.05797 0.27059 0.59733 0.0
C1071 C 0.07292 0.26292 0.64194 0.0
C1072 C 0.09146 0.26947 0.63451 0.0
C1073 C 0.09295 0.27727 0.60871 0.0
C1074 C 0.07634 0.27774 0.59021 0.0
C1075 C 0.10953 0.2674 0.65307 0.0
C1076 C 0.12043 0.28448 0.66158 0.0
C1077 C 0.11606 0.24868 0.66223 0.0
C1078 C 0.10552 0.23005 0.65318 0.0
C1079 C 0.10236 0.22487 0.62535 0.0
C1080 C 0.09198 0.20753 0.61697 0.0
C1081 C 0.08488 0.19513 0.63624 0.0
C1082 C 0.0882 0.20001 0.66394 0.0
C1083 C 0.09851 0.21737 0.67242 0.0
H1084 H 0.07684 0.18172 0.62971 0.0
H1085 H 0.17562 0.35085 0.71256 0.0
H1086 H 0.73464 0.20674 0.69964 0.0
H1087 H 0.7317 0.17579 0.67285 0.0
H1088 H 0.76469 0.14546 0.73674 0.0
H1089 H 0.76802 0.17679 0.7638 0.0
H1090 H 0.77685 0.13354 0.68799 0.0
H1091 H 0.714 0.13947 0.72553 0.0
H1092 H 0.68307 0.15599 0.73743 0.0
H1093 H 0.66601 0.1626 0.65281 0.0
H1094 H 0.69698 0.14637 0.64039 0.0
H1095 H 0.7522 0.0379 0.6269 0.0
H1096 H 0.75438 0.06665 0.65901 0.0
H1097 H 0.72568 0.10299 0.59783 0.0
H1098 H 0.72369 0.07425 0.56567 0.0
H1099 H 0.71111 0.11031 0.64812 0.0
H1100 H 0.77506 0.10525 0.61131 0.0
H1101 H 0.80576 0.08801 0.60009 0.0
H1102 H 0.82048 0.07901 0.6848 0.0
H1103 H 0.78965 0.09588 0.6965 0.0
C1104 C 0.74126 0.19354 0.70821 0.0
C1105 C 0.7515 0.19438 0.73411 0.0
C1106 C 0.73947 0.17572 0.69279 0.0
C1107 C 0.74767 0.15805 0.70278 0.0
C1108 C 0.75812 0.1588 0.72851 0.0
C1109 C 0.75996 0.17674 0.74405 0.0
C1110 C 0.7454 0.13902 0.68604 0.0
C1111 C 0.76242 0.1283 0.67972 0.0
C1112 C 0.72664 0.13219 0.67469 0.0
C1113 C 0.7079 0.14184 0.68204 0.0
C1114 C 0.70372 0.14456 0.70945 0.0
C1115 C 0.68617 0.15386 0.71629 0.0
C1116 C 0.6726 0.16038 0.69589 0.0
C1117 C 0.67654 0.15756 0.66859 0.0
C1118 C 0.69408 0.14829 0.66164 0.0
C1119 C 0.74633 0.05204 0.62039 0.0
C1120 C 0.73789 0.05388 0.59374 0.0
C1121 C 0.74761 0.06848 0.63871 0.0
C1122 C 0.74038 0.08715 0.63086 0.0
C1123 C 0.73139 0.08882 0.60446 0.0
C1124 C 0.73026 0.07241 0.58607 0.0
C1125 C 0.74255 0.10499 0.6499 0.0
C1126 C 0.72551 0.1155 0.65659 0.0
C1127 C 0.76126 0.11153 0.66172 0.0
C1128 C 0.77994 0.10164 0.65476 0.0
C1129 C 0.78477 0.09946 0.62754 0.0
C1130 C 0.8022 0.08977 0.62109 0.0
C1131 C 0.81504 0.08238 0.64172 0.0
C1132 C 0.8105 0.08472 0.66884 0.0
C1133 C 0.79305 0.09434 0.67539 0.0
H1134 H 0.82853 0.07488 0.63669 0.0
H1135 H 0.65903 0.16758 0.70123 0.0
H1136 H 0.80115 0.2636 0.34314 0.0
H1137 H 0.8333 0.26667 0.36826 0.0
H1138 H 0.86209 0.24547 0.29755 0.0
H1139 H 0.82963 0.24204 0.27207 0.0
H1140 H 0.87805 0.22907 0.34437 0.0
H1141 H 0.86306 0.29427 0.31437 0.0
H1142 H 0.84236 0.32397 0.30712 0.0
H1143 H 0.83949 0.3328 0.39334 0.0
H1144 H 0.85993 0.30298 0.40111 0.0
H1145 H 0.97234 0.25754 0.40875 0.0
H1146 H 0.94348 0.25552 0.37555 0.0
H1147 H 0.90579 0.27641 0.43763 0.0
H1148 H 0.93468 0.2786 0.4706 0.0
H1149 H 0.89646 0.29386 0.39012 0.0
H1150 H 0.90898 0.22735 0.41986 0.0
H1151 H 0.9296 0.19766 0.42757 0.0
H1152 H 0.93701 0.19128 0.34199 0.0
H1153 H 0.91672 0.22118 0.33382 0.0
C1154 C 0.81426 0.25954 0.3328 0.0
C1155 C 0.81279 0.25273 0.30545 0.0
C1156 C 0.83268 0.26138 0.34723 0.0
C1157 C 0.85014 0.25667 0.33466 0.0
C1158 C 0.84879 0.24931 0.30759 0.0
C1159 C 0.83025 0.24739 0.29306 0.0
C1160 C 0.86968 0.25967 0.35003 0.0
C1161 C 0.88228 0.24332 0.35393 0.0
C1162 C 0.87505 0.2782 0.36288 0.0
C1163 C 0.86293 0.2963 0.35831 0.0
C1164 C 0.85792 0.30247 0.33178 0.0
C1165 C 0.84624 0.31934 0.32758 0.0
C1166 C 0.83959 0.33025 0.34975 0.0
C1167 C 0.84465 0.32434 0.37618 0.0
C1168 C 0.8563 0.30746 0.3805 0.0
C1169 C 0.95786 0.2618 0.41508 0.0
C1170 C 0.95553 0.26811 0.44206 0.0
C1171 C 0.94142 0.26059 0.39623 0.0
C1172 C 0.92242 0.26558 0.40419 0.0
C1173 C 0.92028 0.27247 0.43103 0.0
C1174 C 0.93671 0.27369 0.44983 0.0
C1175 C 0.90464 0.26318 0.38489 0.0
C1176 C 0.89236 0.27966 0.38026 0.0
C1177 C 0.89958 0.24478 0.37142 0.0
C1178 C 0.91151 0.22663 0.37626 0.0
C1179 C 0.91512 0.2197 0.4027 0.0
C1180 C 0.92674 0.20283 0.40716 0.0
C1181 C 0.93465 0.19262 0.38529 0.0
C1182 C 0.9309 0.19923 0.35891 0.0
C1183 C 0.91935 0.21614 0.35435 0.0
H1184 H 0.94364 0.17956 0.38878 0.0
H1185 H 0.83054 0.34329 0.34645 0.0
H1186 H 0.76322 0.81791 0.29531 0.0
H1187 H 0.76033 0.84709 0.32521 0.0
H1188 H 0.72763 0.8129 0.37938 0.0
H1189 H 0.7302 0.78344 0.34903 0.0
H1190 H 0.71059 0.84804 0.37386 0.0
H1191 H 0.77845 0.83126 0.4045 0.0
H1192 H 0.81351 0.82215 0.40065 0.0
H1193 H 0.82049 0.86965 0.34635 0.0
H1194 H 0.78569 0.87968 0.35107 0.0
H1195 H 0.72174 0.92262 0.48269 0.0
H1196 H 0.72244 0.89199 0.4542 0.0
H1197 H 0.75035 0.92389 0.39282 0.0
H1198 H 0.74941 0.95452 0.42118 0.0
H1199 H 0.76951 0.88919 0.40369 0.0
H1200 H 0.70219 0.90946 0.38366 0.0
H1201 H 0.66856 0.91955 0.39475 0.0
H1202 H 0.66027 0.86386 0.43211 0.0
H1203 H 0.69401 0.85354 0.42163 0.0
C1204 C 0.75543 0.81645 0.3136 0.0
C1205 C 0.74697 0.79814 0.31962 0.0
C1206 C 0.75395 0.83325 0.33093 0.0
C1207 C 0.74408 0.83233 0.35503 0.0
C1208 C 0.73543 0.81411 0.36106 0.0
C1209 C 0.73692 0.79722 0.34365 0.0
C1210 C 0.74234 0.85058 0.37321 0.0
C1211 C 0.72354 0.85683 0.38072 0.0
C1212 C 0.75903 0.86249 0.38196 0.0
C1213 C 0.77949 0.85598 0.37778 0.0
C1214 C 0.78744 0.83963 0.39155 0.0
C1215 C 0.80728 0.83439 0.38937 0.0
C1216 C 0.81914 0.84508 0.37289 0.0
C1217 C 0.81127 0.86129 0.35896 0.0
C1218 C 0.79155 0.86689 0.36161 0.0
C1219 C 0.72784 0.92308 0.46299 0.0
C1220 C 0.73564 0.94091 0.45422 0.0
C1221 C 0.72821 0.90558 0.44667 0.0
C1222 C 0.73641 0.90552 0.4212 0.0
C1223 C 0.74399 0.92344 0.41235 0.0
C1224 C 0.74345 0.94095 0.42854 0.0
C1225 C 0.73779 0.88672 0.4042 0.0
C1226 C 0.75653 0.88039 0.39688 0.0
C1227 C 0.72105 0.8747 0.39596 0.0
C1228 C 0.70071 0.88081 0.4021 0.0
C1229 C 0.69326 0.89942 0.39444 0.0
C1230 C 0.67417 0.90518 0.40059 0.0
C1231 C 0.6623 0.89238 0.41419 0.0
C1232 C 0.66949 0.87377 0.42161 0.0
C1233 C 0.6886 0.86796 0.41556 0.0
H1234 H 0.64752 0.89686 0.41892 0.0
H1235 H 0.83447 0.8409 0.37109 0.0
H1236 H 0.22854 0.74609 0.33713 0.0
H1237 H 0.20148 0.74738 0.36766 0.0
H1238 H 0.15996 0.72975 0.30071 0.0
H1239 H 0.18678 0.72958 0.27002 0.0
H1240 H 0.14412 0.75734 0.32585 0.0
H1241 H 0.17692 0.69842 0.35699 0.0
H1242 H 0.20498 0.67807 0.37446 0.0
H1243 H 0.21267 0.71651 0.44566 0.0
H1244 H 0.1848 0.73723 0.42845 0.0
H1245 H 0.06351 0.73095 0.40415 0.0
H1246 H 0.09227 0.72859 0.3765 0.0
H1247 H 0.12675 0.76403 0.43698 0.0
H1248 H 0.09793 0.76665 0.46461 0.0
H1249 H 0.14629 0.7282 0.41689 0.0
H1250 H 0.11161 0.78615 0.38405 0.0
H1251 H 0.08229 0.80439 0.36585 0.0
H1252 H 0.07686 0.76428 0.2962 0.0
H1253 H 0.10599 0.74561 0.31419 0.0
C1254 C 0.21368 0.74219 0.32907 0.0
C1255 C 0.20979 0.73768 0.3012 0.0
C1256 C 0.19816 0.74286 0.34658 0.0
C1257 C 0.17853 0.73848 0.33672 0.0
C1258 C 0.17485 0.73335 0.30896 0.0
C1259 C 0.19024 0.73313 0.29141 0.0
C1260 C 0.16163 0.74017 0.35476 0.0
C1261 C 0.1446 0.75065 0.34555 0.0
C1262 C 0.16217 0.73194 0.38088 0.0
C1263 C 0.1789 0.71949 0.3913 0.0
C1264 C 0.18469 0.70261 0.37628 0.0
C1265 C 0.20054 0.691 0.38616 0.0
C1266 C 0.21064 0.69602 0.41112 0.0
C1267 C 0.20486 0.71265 0.42631 0.0
C1268 C 0.18902 0.72432 0.41652 0.0
C1269 C 0.07723 0.73821 0.41157 0.0
C1270 C 0.07844 0.74905 0.43651 0.0
C1271 C 0.09363 0.73689 0.39574 0.0
C1272 C 0.11164 0.74615 0.40467 0.0
C1273 C 0.113 0.75676 0.42973 0.0
C1274 C 0.0965 0.75836 0.44537 0.0
C1275 C 0.12894 0.74499 0.38761 0.0
C1276 C 0.14597 0.73475 0.39709 0.0
C1277 C 0.12829 0.75308 0.36153 0.0
C1278 C 0.11086 0.76437 0.3506 0.0
C1279 C 0.10406 0.78111 0.36497 0.0
C1280 C 0.0875 0.79155 0.35467 0.0
C1281 C 0.07769 0.78547 0.32992 0.0
C1282 C 0.08446 0.76896 0.31538 0.0
C1283 C 0.101 0.75846 0.32561 0.0
H1284 H 0.06487 0.79357 0.32198 0.0
H1285 H 0.22291 0.68701 0.41873 0.0
H1286 H 0.23166 0.17561 0.26553 0.0
H1287 H 0.23212 0.14577 0.29278 0.0
H1288 H 0.2755 0.17335 0.35031 0.0
H1289 H 0.27518 0.20297 0.3233 0.0
H1290 H 0.28524 0.13559 0.34119 0.0
H1291 H 0.22665 0.17041 0.36398 0.0
H1292 H 0.19444 0.18696 0.35511 0.0
H1293 H 0.16948 0.13274 0.31944 0.0
H1294 H 0.20164 0.11592 0.32775 0.0
H1295 H 0.27692 0.07451 0.45472 0.0
H1296 H 0.27552 0.1028 0.42461 0.0
H1297 H 0.23461 0.07048 0.3684 0.0
H1298 H 0.23612 0.04212 0.39855 0.0
H1299 H 0.22326 0.10957 0.37525 0.0
H1300 H 0.28278 0.07462 0.35565 0.0
H1301 H 0.31503 0.0589 0.3673 0.0
H1302 H 0.3385 0.11474 0.39949 0.0
H1303 H 0.30625 0.13073 0.38849 0.0
C1304 C 0.2414 0.17526 0.28386 0.0
C1305 C 0.25335 0.19181 0.29212 0.0
C1306 C 0.24157 0.15821 0.29958 0.0
C1307 C 0.25372 0.15725 0.32389 0.0
C1308 C 0.26598 0.17358 0.33173 0.0
C1309 C 0.26573 0.19061 0.3162 0.0
C1310 C 0.25362 0.13947 0.34144 0.0
C1311 C 0.27167 0.13006 0.34878 0.0
C1312 C 0.23596 0.1319 0.35123 0.0
C1313 C 0.21662 0.14196 0.34619 0.0
C1314 C 0.21434 0.16205 0.35402 0.0
C1315 C 0.19609 0.17148 0.34915 0.0
C1316 C 0.17995 0.16092 0.33665 0.0
C1317 C 0.18201 0.1409 0.32907 0.0
C1318 C 0.20025 0.13141 0.33387 0.0
C1319 C 0.26765 0.07348 0.43592 0.0
C1320 C 0.2567 0.05609 0.42892 0.0
C1321 C 0.26686 0.08964 0.41868 0.0
C1322 C 0.25509 0.08881 0.39397 0.0
C1323 C 0.2438 0.07156 0.38726 0.0
C1324 C 0.24469 0.05535 0.40446 0.0
C1325 C 0.25488 0.10577 0.37501 0.0
C1326 C 0.23678 0.11504 0.36746 0.0
C1327 C 0.27253 0.11335 0.36525 0.0
C1328 C 0.29204 0.10384 0.37145 0.0
C1329 C 0.29477 0.08352 0.36538 0.0
C1330 C 0.31306 0.07456 0.37185 0.0
C1331 C 0.32879 0.0858 0.38417 0.0
C1332 C 0.32629 0.10604 0.38997 0.0
C1333 C 0.30801 0.11507 0.38361 0.0
H1334 H 0.34294 0.07884 0.38918 0.0
H1335 H 0.16582 0.16824 0.3329 0.0
H1336 H 0.70368 0.74107 0.80983 0.0
H1337 H 0.67554 0.74833 0.83661 0.0
H1338 H 0.71053 0.79144 0.88561 0.0
H1339 H 0.73921 0.78395 0.85888 0.0
H1340 H 0.68676 0.76963 0.91666 0.0
H1341 H 0.67756 0.80712 0.83682 0.0
H1342 H 0.67615 0.81304 0.78771 0.0
H1343 H 0.62836 0.7711 0.77389 0.0
H1344 H 0.62968 0.76468 0.82288 0.0
H1345 H 0.59644 0.80341 0.97135 0.0
H1346 H 0.62762 0.80353 0.9488 0.0
H1347 H 0.60382 0.75935 0.89007 0.0
H1348 H 0.57248 0.75966 0.91187 0.0
H1349 H 0.62364 0.78718 0.86579 0.0
H1350 H 0.63548 0.74763 0.94557 0.0
H1351 H 0.63652 0.74248 0.99488 0.0
H1352 H 0.67923 0.78953 0.00906 0.0
H1353 H 0.67818 0.7952 0.95983 0.0
C1354 C 0.70553 0.75207 0.82634 0.0
C1355 C 0.72371 0.76209 0.83198 0.0
C1356 C 0.68934 0.75625 0.84163 0.0
C1357 C 0.69074 0.77074 0.86279 0.0
C1358 C 0.70905 0.78029 0.86926 0.0
C1359 C 0.72542 0.77601 0.85396 0.0
C1360 C 0.67277 0.77601 0.87739 0.0
C1361 C 0.67305 0.77384 0.90562 0.0
C1362 C 0.65479 0.78138 0.86302 0.0
C1363 C 0.65381 0.78533 0.83353 0.0
C1364 C 0.66683 0.79906 0.82329 0.0
C1365 C 0.66604 0.80252 0.79547 0.0
C1366 C 0.6522 0.79243 0.77769 0.0
C1367 C 0.63908 0.7789 0.7877 0.0
C1368 C 0.63983 0.77536 0.8155 0.0
C1369 C 0.59774 0.79395 0.95338 0.0
C1370 C 0.58195 0.78145 0.94351 0.0
C1371 C 0.61566 0.79388 0.94067 0.0
C1372 C 0.61821 0.78124 0.91793 0.0
C1373 C 0.60228 0.76917 0.90764 0.0
C1374 C 0.58439 0.76925 0.92027 0.0
C1375 C 0.63744 0.78018 0.90489 0.0
C1376 C 0.6374 0.78321 0.8769 0.0
C1377 C 0.65559 0.77571 0.91953 0.0
C1378 C 0.6566 0.77198 0.94904 0.0
C1379 C 0.64501 0.75696 0.95922 0.0
C1380 C 0.64559 0.75395 0.98715 0.0
C1381 C 0.65787 0.76573 0.0051 0.0
C1382 C 0.66968 0.78046 0.99513 0.0
C1383 C 0.6691 0.78358 0.96722 0.0
H1384 H 0.65828 0.76339 0.02672 0.0
H1385 H 0.65161 0.79512 0.75616 0.0
H1386 H 0.2863 0.69401 0.7619 0.0
H1387 H 0.28496 0.66422 0.78896 0.0
H1388 H 0.23787 0.69045 0.83276 0.0
H1389 H 0.23973 0.72031 0.80668 0.0
H1390 H 0.26129 0.6746 0.86751 0.0
H1391 H 0.23154 0.65054 0.78146 0.0
H1392 H 0.22945 0.64338 0.73199 0.0
H1393 H 0.28111 0.60648 0.74063 0.0
H1394 H 0.28365 0.61362 0.79014 0.0
H1395 H 0.22714 0.58836 0.92962 0.0
H1396 H 0.22976 0.6165 0.90005 0.0
H1397 H 0.28266 0.59132 0.86913 0.0
H1398 H 0.27997 0.56294 0.89838 0.0
H1399 H 0.2578 0.60596 0.82798 0.0
H1400 H 0.28589 0.62969 0.91534 0.0
H1401 H 0.2862 0.63644 0.9648 0.0
H1402 H 0.23519 0.67392 0.9532 0.0
H1403 H 0.23441 0.66716 0.90368 0.0
C1404 C 0.27557 0.69334 0.77716 0.0
C1405 C 0.26315 0.70965 0.78203 0.0
C1406 C 0.27474 0.67621 0.79263 0.0
C1407 C 0.26116 0.67478 0.81299 0.0
C1408 C 0.24858 0.691 0.81745 0.0
C1409 C 0.24961 0.70814 0.80234 0.0
C1410 C 0.26027 0.65683 0.83025 0.0
C1411 C 0.26026 0.65964 0.85867 0.0
C1412 C 0.25938 0.63709 0.81919 0.0
C1413 C 0.25791 0.63279 0.78945 0.0
C1414 C 0.24254 0.64102 0.77278 0.0
C1415 C 0.24126 0.63694 0.74474 0.0
C1416 C 0.25518 0.62453 0.73316 0.0
C1417 C 0.27037 0.61612 0.74962 0.0
C1418 C 0.27173 0.62017 0.77767 0.0
C1419 C 0.23927 0.58867 0.9164 0.0
C1420 C 0.25337 0.57328 0.91658 0.0
C1421 C 0.24084 0.60491 0.89959 0.0
C1422 C 0.25653 0.60625 0.88241 0.0
C1423 C 0.27044 0.59075 0.88217 0.0
C1424 C 0.26897 0.57457 0.89914 0.0
C1425 C 0.25853 0.62387 0.86499 0.0
C1426 C 0.25883 0.62096 0.83666 0.0
C1427 C 0.25943 0.64355 0.87607 0.0
C1428 C 0.25999 0.64777 0.90582 0.0
C1429 C 0.27465 0.63926 0.92335 0.0
C1430 C 0.27493 0.6431 0.9514 0.0
C1431 C 0.2607 0.65556 0.96215 0.0
C1432 C 0.24619 0.66425 0.94485 0.0
C1433 C 0.24584 0.66044 0.91679 0.0
H1434 H 0.26093 0.65852 0.98386 0.0
H1435 H 0.25416 0.62139 0.71145 0.0
H1436 H 0.28432 0.23777 0.8545 0.0
H1437 H 0.31368 0.23598 0.88659 0.0
H1438 H 0.35163 0.24199 0.82057 0.0
H1439 H 0.32256 0.2439 0.7886 0.0
H1440 H 0.36509 0.21351 0.85687 0.0
H1441 H 0.34209 0.28143 0.85828 0.0
H1442 H 0.31733 0.30781 0.86412 0.0
H1443 H 0.31188 0.29138 0.94657 0.0
H1444 H 0.33639 0.26467 0.94106 0.0
H1445 H 0.45697 0.24679 0.91784 0.0
H1446 H 0.42508 0.24487 0.8908 0.0
H1447 H 0.39434 0.24305 0.96451 0.0
H1448 H 0.42634 0.24518 0.99149 0.0
H1449 H 0.37557 0.26717 0.92787 0.0
H1450 H 0.40105 0.20131 0.92804 0.0
H1451 H 0.42617 0.17527 0.92243 0.0
H1452 H 0.42688 0.18731 0.83764 0.0
H1453 H 0.40204 0.21371 0.84284 0.0
C1454 C 0.29893 0.23844 0.84682 0.0
C1455 C 0.30113 0.2411 0.81905 0.0
C1456 C 0.31567 0.23751 0.86517 0.0
C1457 C 0.33483 0.23901 0.85596 0.0
C1458 C 0.33701 0.2408 0.82811 0.0
C1459 C 0.32035 0.24198 0.80988 0.0
C1460 C 0.35269 0.23968 0.87525 0.0
C1461 C 0.36744 0.22528 0.87231 0.0
C1462 C 0.35554 0.2548 0.89578 0.0
C1463 C 0.34088 0.2709 0.89916 0.0
C1464 C 0.33547 0.28332 0.87758 0.0
C1465 C 0.32151 0.29836 0.88084 0.0
C1466 C 0.31299 0.30123 0.90568 0.0
C1467 C 0.31846 0.28911 0.92733 0.0
C1468 C 0.33239 0.27402 0.92415 0.0
C1469 C 0.44334 0.24614 0.92811 0.0
C1470 C 0.44389 0.24612 0.95654 0.0
C1471 C 0.42519 0.24495 0.91276 0.0
C1472 C 0.40733 0.24355 0.92564 0.0
C1473 C 0.40792 0.24407 0.95417 0.0
C1474 C 0.4261 0.24526 0.96952 0.0
C1475 C 0.38815 0.24116 0.90923 0.0
C1476 C 0.37315 0.25523 0.91268 0.0
C1477 C 0.38504 0.22569 0.88922 0.0
C1478 C 0.39978 0.20961 0.88589 0.0
C1479 C 0.40666 0.19851 0.90823 0.0
C1480 C 0.42084 0.18367 0.90512 0.0
C1481 C 0.42814 0.17966 0.8797 0.0
C1482 C 0.42122 0.19045 0.85732 0.0
C1483 C 0.40708 0.20535 0.86034 0.0
H1484 H 0.43912 0.16817 0.87733 0.0
H1485 H 0.30219 0.31288 0.90817 0.0
H1486 H 0.75363 0.31488 0.79637 0.0
H1487 H 0.75548 0.34372 0.82749 0.0
H1488 H 0.7801 0.30753 0.89169 0.0
H1489 H 0.77807 0.27823 0.86041 0.0
H1490 H 0.75168 0.33209 0.91006 0.0
H1491 H 0.80925 0.34058 0.86067 0.0
H1492 H 0.82832 0.34257 0.82001 0.0
H1493 H 0.79318 0.39214 0.79332 0.0
H1494 H 0.77371 0.39028 0.83365 0.0
H1495 H 0.77529 0.41693 0.99811 0.0
H1496 H 0.77738 0.38638 0.96978 0.0
H1497 H 0.75393 0.41766 0.89991 0.0
H1498 H 0.75214 0.44824 0.92825 0.0
H1499 H 0.78392 0.39465 0.88622 0.0
H1500 H 0.72533 0.38521 0.93397 0.0
H1501 H 0.70592 0.38337 0.97432 0.0
H1502 H 0.74266 0.33573 0.0038 0.0
H1503 H 0.7625 0.33749 0.96379 0.0
C1504 C 0.75959 0.31294 0.81704 0.0
C1505 C 0.76578 0.29409 0.82572 0.0
C1506 C 0.76071 0.32958 0.83488 0.0
C1507 C 0.76815 0.32802 0.86201 0.0
C1508 C 0.77435 0.30923 0.87087 0.0
C1509 C 0.77329 0.29247 0.8529 0.0
C1510 C 0.76899 0.34599 0.88095 0.0
C1511 C 0.75906 0.34564 0.90506 0.0
C1512 C 0.77818 0.36396 0.87432 0.0
C1513 C 0.78991 0.36518 0.85009 0.0
C1514 C 0.80549 0.35181 0.84604 0.0
C1515 C 0.81639 0.35293 0.82306 0.0
C1516 C 0.81194 0.36744 0.80407 0.0
C1517 C 0.7966 0.3809 0.80804 0.0
C1518 C 0.78564 0.37983 0.83097 0.0
C1519 C 0.77059 0.41721 0.97669 0.0
C1520 C 0.76347 0.4349 0.96538 0.0
C1521 C 0.77169 0.39973 0.9605 0.0
C1522 C 0.76561 0.39951 0.93261 0.0
C1523 C 0.75871 0.41732 0.92129 0.0
C1524 C 0.7576 0.43478 0.93749 0.0
C1525 C 0.76645 0.38082 0.9152 0.0
C1526 C 0.77667 0.38106 0.89134 0.0
C1527 C 0.7575 0.36279 0.92205 0.0
C1528 C 0.74553 0.36163 0.94603 0.0
C1529 C 0.72937 0.37445 0.94916 0.0
C1530 C 0.71827 0.3734 0.97195 0.0
C1531 C 0.72309 0.35948 0.99165 0.0
C1532 C 0.73897 0.34653 0.98855 0.0
C1533 C 0.75014 0.34754 0.96581 0.0
H1534 H 0.71448 0.35869 0.00928 0.0
H1535 H 0.82039 0.36828 0.78629 0.0
H1536 H 0.71946 0.21859 0.19494 0.0
H1537 H 0.68924 0.21773 0.16432 0.0
H1538 H 0.6754 0.27746 0.19129 0.0
H1539 H 0.70473 0.27773 0.22298 0.0
H1540 H 0.64409 0.25856 0.19002 0.0
H1541 H 0.69308 0.26373 0.1254 0.0
H1542 H 0.72311 0.25477 0.10208 0.0
H1543 H 0.69787 0.19777 0.07847 0.0
H1544 H 0.66778 0.2063 0.10195 0.0
H1545 H 0.58438 0.25911 0.04783 0.0
H1546 H 0.61614 0.26011 0.07512 0.0
H1547 H 0.58914 0.22957 0.13871 0.0
H1548 H 0.55718 0.22979 0.1121 0.0
H1549 H 0.64111 0.2349 0.09356 0.0
H1550 H 0.60958 0.24249 0.20015 0.0
H1551 H 0.58043 0.25677 0.22107 0.0
H1552 H 0.57267 0.298 0.15683 0.0
H1553 H 0.60193 0.28417 0.13576 0.0
C1554 C 0.70998 0.23153 0.19407 0.0
C1555 C 0.71431 0.24817 0.21136 0.0
C1556 C 0.69275 0.23111 0.17648 0.0
C1557 C 0.67996 0.2476 0.17521 0.0
C1558 C 0.68479 0.26444 0.19195 0.0
C1559 C 0.70162 0.26463 0.21001 0.0
C1560 C 0.66109 0.24716 0.15752 0.0
C1561 C 0.64354 0.25341 0.16891 0.0
C1562 C 0.66019 0.24078 0.12978 0.0
C1563 C 0.67826 0.23558 0.11566 0.0
C1564 C 0.694 0.24923 0.1154 0.0
C1565 C 0.71102 0.24424 0.10213 0.0
C1566 C 0.71242 0.22569 0.08886 0.0
C1567 C 0.69677 0.21212 0.08879 0.0
C1568 C 0.67973 0.21703 0.10205 0.0
C1569 C 0.58531 0.25275 0.06773 0.0
C1570 C 0.56842 0.24443 0.07798 0.0
C1571 C 0.60345 0.25318 0.08324 0.0
C1572 C 0.60508 0.24514 0.1092 0.0
C1573 C 0.58825 0.23629 0.11906 0.0
C1574 C 0.57003 0.23625 0.1038 0.0
C1575 C 0.62424 0.24632 0.12614 0.0
C1576 C 0.64176 0.2401 0.11466 0.0
C1577 C 0.62529 0.25353 0.1535 0.0
C1578 C 0.60783 0.26214 0.16625 0.0
C1579 C 0.6017 0.25466 0.19056 0.0
C1580 C 0.58515 0.26267 0.20243 0.0
C1581 C 0.57466 0.27824 0.19024 0.0
C1582 C 0.58076 0.28589 0.16621 0.0
C1583 C 0.59732 0.27796 0.15428 0.0
H1584 H 0.56184 0.2844 0.19945 0.0
H1585 H 0.72561 0.22185 0.07859 0.0
H1586 H 0.73604 0.68174 0.25448 0.0
H1587 H 0.73527 0.65104 0.22601 0.0
H1588 H 0.76906 0.67988 0.16764 0.0
H1589 H 0.76972 0.71037 0.19555 0.0
H1590 H 0.73994 0.65948 0.14167 0.0
H1591 H 0.78996 0.64576 0.21274 0.0
H1592 H 0.80328 0.64216 0.26011 0.0
H1593 H 0.75981 0.59718 0.27109 0.0
H1594 H 0.74607 0.6007 0.22387 0.0
H1595 H 0.77072 0.57743 0.06138 0.0
H1596 H 0.76944 0.60665 0.09218 0.0
H1597 H 0.73829 0.57238 0.14809 0.0
H1598 H 0.74046 0.5429 0.11772 0.0
H1599 H 0.76388 0.59496 0.17616 0.0
H1600 H 0.71476 0.60776 0.10399 0.0
H1601 H 0.70227 0.61097 0.0562 0.0
H1602 H 0.74427 0.65767 0.047 0.0
H1603 H 0.75717 0.65459 0.09467 0.0
C1604 C 0.74337 0.68151 0.23564 0.0
C1605 C 0.75299 0.69864 0.2275 0.0
C1606 C 0.74297 0.66389 0.21935 0.0
C1607 C 0.75222 0.66295 0.19457 0.0
C1608 C 0.76175 0.68007 0.1865 0.0
C1609 C 0.76217 0.69758 0.20268 0.0
C1610 C 0.75202 0.64437 0.17679 0.0
C1611 C 0.74535 0.64543 0.14923 0.0
C1612 C 0.75861 0.62579 0.18652 0.0
C1613 C 0.76685 0.62366 0.21489 0.0
C1614 C 0.78314 0.63522 0.22533 0.0
C1615 C 0.79078 0.63317 0.25214 0.0
C1616 C 0.78235 0.61949 0.26863 0.0
C1617 C 0.7663 0.60779 0.25832 0.0
C1618 C 0.75858 0.6098 0.23153 0.0
C1619 C 0.76366 0.57617 0.0803 0.0
C1620 C 0.75565 0.5579 0.08711 0.0
C1621 C 0.76276 0.59293 0.09786 0.0
C1622 C 0.75341 0.59201 0.12244 0.0
C1623 C 0.74553 0.57366 0.12932 0.0
C1624 C 0.74666 0.55681 0.11189 0.0
C1625 C 0.75196 0.6101 0.14096 0.0
C1626 C 0.75832 0.60896 0.16863 0.0
C1627 C 0.74507 0.62863 0.13134 0.0
C1628 C 0.73702 0.63084 0.10285 0.0
C1629 C 0.72138 0.61867 0.09175 0.0
C1630 C 0.71423 0.62047 0.06468 0.0
C1631 C 0.7225 0.63449 0.04856 0.0
C1632 C 0.73788 0.64681 0.05951 0.0
C1633 C 0.74509 0.64507 0.08657 0.0
H1634 H 0.71698 0.63583 0.02759 0.0
H1635 H 0.7883 0.61792 0.28937 0.0
H1636 H 0.28721 0.74935 0.17342 0.0
H1637 H 0.31774 0.75242 0.15007 0.0
H1638 H 0.35171 0.75693 0.22724 0.0
H1639 H 0.32112 0.75351 0.25092 0.0
H1640 H 0.36057 0.78667 0.18662 0.0
H1641 H 0.35461 0.71588 0.19597 0.0
H1642 H 0.33659 0.68398 0.19173 0.0
H1643 H 0.32805 0.68988 0.10536 0.0
H1644 H 0.34578 0.72197 0.10914 0.0
H1645 H 0.45409 0.77999 0.12868 0.0
H1646 H 0.42598 0.77621 0.15693 0.0
H1647 H 0.39072 0.75177 0.08737 0.0
H1648 H 0.41912 0.75463 0.0596 0.0
H1649 H 0.38328 0.73155 0.12727 0.0
H1650 H 0.38596 0.80165 0.11544 0.0
H1651 H 0.4011 0.83499 0.11673 0.0
H1652 H 0.41266 0.83251 0.2032 0.0
H1653 H 0.3978 0.79902 0.20237 0.0
C1654 C 0.30115 0.75101 0.1855 0.0
C1655 C 0.30172 0.75117 0.21406 0.0
C1656 C 0.31859 0.75272 0.17209 0.0
C1657 C 0.33698 0.75485 0.18692 0.0
C1658 C 0.33765 0.7553 0.21544 0.0
C1659 C 0.32019 0.75326 0.22892 0.0
C1660 C 0.35542 0.75648 0.1724 0.0
C1661 C 0.36581 0.77454 0.17399 0.0
C1662 C 0.36177 0.74086 0.15524 0.0
C1663 C 0.35139 0.72141 0.15288 0.0
C1664 C 0.34877 0.71044 0.1761 0.0
C1665 C 0.33863 0.69231 0.17377 0.0
C1666 C 0.33114 0.68493 0.1483 0.0
C1667 C 0.33385 0.69562 0.12508 0.0
C1668 C 0.34397 0.71377 0.1273 0.0
C1669 C 0.44029 0.77388 0.1195 0.0
C1670 C 0.43875 0.76762 0.09198 0.0
C1671 C 0.42417 0.7718 0.1356 0.0
C1672 C 0.40599 0.76398 0.1243 0.0
C1673 C 0.40451 0.75779 0.09672 0.0
C1674 C 0.42074 0.75947 0.0808 0.0
C1675 C 0.38857 0.76192 0.14113 0.0
C1676 C 0.37828 0.74373 0.13998 0.0
C1677 C 0.38204 0.77762 0.15822 0.0
C1678 C 0.39097 0.79774 0.15879 0.0
C1679 C 0.39187 0.80815 0.1347 0.0
C1680 C 0.40038 0.82708 0.13535 0.0
C1681 C 0.40789 0.83583 0.16002 0.0
C1682 C 0.40686 0.82569 0.1841 0.0
C1683 C 0.39839 0.80674 0.18356 0.0
H1684 H 0.41447 0.85049 0.16049 0.0
H1685 H 0.32328 0.6709 0.14654 0.0
H1686 H 0.254 0.31055 0.23437 0.0
H1687 H 0.25242 0.33844 0.20429 0.0
H1688 H 0.22706 0.30035 0.1389 0.0
H1689 H 0.22827 0.27223 0.16933 0.0
H1690 H 0.27023 0.3458 0.16149 0.0
H1691 H 0.19878 0.32829 0.09354 0.0
H1692 H 0.16647 0.31166 0.09636 0.0
H1693 H 0.16972 0.32309 0.1827 0.0
H1694 H 0.20191 0.34 0.18034 0.0
H1695 H 0.26771 0.40946 0.0496 0.0
H1696 H 0.26656 0.38043 0.07772 0.0
H1697 H 0.21522 0.4043 0.11447 0.0
H1698 H 0.21621 0.43336 0.0862 0.0
H1699 H 0.20998 0.36612 0.10641 0.0
H1700 H 0.26334 0.40622 0.14678 0.0
H1701 H 0.29465 0.42517 0.14865 0.0
H1702 H 0.32595 0.37254 0.12543 0.0
H1703 H 0.29475 0.35333 0.12302 0.0
C1704 C 0.24792 0.30802 0.21366 0.0
C1705 C 0.24122 0.289 0.20442 0.0
C1706 C 0.24711 0.32408 0.19634 0.0
C1707 C 0.23957 0.32174 0.16915 0.0
C1708 C 0.2327 0.30278 0.15983 0.0
C1709 C 0.23343 0.28663 0.17727 0.0
C1710 C 0.23946 0.33911 0.15076 0.0
C1711 C 0.25703 0.35013 0.14937 0.0
C1712 C 0.22225 0.34519 0.13514 0.0
C1713 C 0.20285 0.33519 0.13677 0.0
C1714 C 0.19256 0.32729 0.11311 0.0
C1715 C 0.17428 0.31782 0.11463 0.0
C1716 C 0.16608 0.31626 0.13971 0.0
C1717 C 0.17612 0.32423 0.16331 0.0
C1718 C 0.1944 0.33374 0.16189 0.0
C1719 C 0.25623 0.40866 0.06378 0.0
C1720 C 0.24215 0.424 0.06563 0.0
C1721 C 0.25557 0.39195 0.07991 0.0
C1722 C 0.24097 0.39011 0.09871 0.0
C1723 C 0.22665 0.4052 0.10022 0.0
C1724 C 0.22723 0.42188 0.08394 0.0
C1725 C 0.24081 0.37269 0.11699 0.0
C1726 C 0.22321 0.36168 0.11835 0.0
C1727 C 0.25789 0.36685 0.13311 0.0
C1728 C 0.27666 0.37839 0.1344 0.0
C1729 C 0.27686 0.39873 0.14183 0.0
C1730 C 0.2946 0.40951 0.14303 0.0
C1731 C 0.31227 0.40008 0.13707 0.0
C1732 C 0.31224 0.37983 0.12997 0.0
C1733 C 0.29454 0.36899 0.12869 0.0
H1734 H 0.32599 0.40845 0.13803 0.0
H1735 H 0.15193 0.30891 0.14084 0.0
H1736 H 0.32793 0.27272 0.26689 0.0
H1737 H 0.35801 0.2717 0.24162 0.0
H1738 H 0.33317 0.22335 0.19072 0.0
H1739 H 0.30326 0.22425 0.21571 0.0
H1740 H 0.3721 0.21713 0.20484 0.0
H1741 H 0.33147 0.26973 0.1686 0.0
H1742 H 0.3123 0.3008 0.17038 0.0
H1743 H 0.36462 0.3327 0.20105 0.0
H1744 H 0.38405 0.30174 0.19983 0.0
H1745 H 0.42727 0.22027 0.08783 0.0
H1746 H 0.40131 0.22098 0.11994 0.0
H1747 H 0.43039 0.27038 0.16408 0.0
H1748 H 0.45654 0.26967 0.13216 0.0
H1749 H 0.39113 0.2768 0.15653 0.0
H1750 H 0.43224 0.22372 0.1894 0.0
H1751 H 0.45085 0.1924 0.18599 0.0
H1752 H 0.39706 0.16109 0.16036 0.0
H1753 H 0.37815 0.19229 0.16325 0.0
C1754 C 0.329 0.26172 0.25055 0.0
C1755 C 0.31314 0.24863 0.24327 0.0
C1756 C 0.34615 0.26122 0.23601 0.0
C1757 C 0.34778 0.24757 0.21405 0.0
C1758 C 0.33228 0.23402 0.20752 0.0
C1759 C 0.31514 0.23461 0.22183 0.0
C1760 C 0.36524 0.24769 0.19718 0.0
C1761 C 0.37619 0.23014 0.19415 0.0
C1762 C 0.37082 0.26475 0.18357 0.0
C1763 C 0.35916 0.28337 0.18445 0.0
C1764 C 0.33885 0.28333 0.17598 0.0
C1765 C 0.32794 0.30093 0.17683 0.0
C1766 C 0.33722 0.31871 0.1859 0.0
C1767 C 0.35744 0.31892 0.19409 0.0
C1768 C 0.36841 0.30135 0.19331 0.0
C1769 C 0.42835 0.23111 0.10458 0.0
C1770 C 0.4441 0.24486 0.10737 0.0
C1771 C 0.41343 0.23153 0.12293 0.0
C1772 C 0.41395 0.24562 0.14465 0.0
C1773 C 0.42962 0.25939 0.14749 0.0
C1774 C 0.44455 0.25898 0.12914 0.0
C1775 C 0.39794 0.24619 0.16404 0.0
C1776 C 0.38722 0.26385 0.16748 0.0
C1777 C 0.3925 0.22919 0.17793 0.0
C1778 C 0.40381 0.21038 0.17633 0.0
C1779 C 0.4244 0.21018 0.18285 0.0
C1780 C 0.435 0.19245 0.18104 0.0
C1781 C 0.42515 0.17477 0.17291 0.0
C1782 C 0.40467 0.17479 0.16663 0.0
C1783 C 0.394 0.19249 0.16838 0.0
H1784 H 0.43339 0.16105 0.17152 0.0
H1785 H 0.32876 0.33232 0.1865 0.0
H1786 H 0.73188 0.32778 0.28677 0.0
H1787 H 0.73294 0.36021 0.2658 0.0
H1788 H 0.78224 0.34055 0.22077 0.0
H1789 H 0.78132 0.30834 0.24153 0.0
H1790 H 0.78633 0.37943 0.23863 0.0
H1791 H 0.73692 0.33594 0.19237 0.0
H1792 H 0.70722 0.31449 0.1898 0.0
H1793 H 0.67209 0.36365 0.21609 0.0
H1794 H 0.7017 0.38532 0.21926 0.0
H1795 H 0.78294 0.42454 0.11239 0.0
H1796 H 0.78219 0.40213 0.15 0.0
H1797 H 0.73346 0.43497 0.18128 0.0
H1798 H 0.73437 0.45785 0.14391 0.0
H1799 H 0.72703 0.39426 0.17775 0.0
H1800 H 0.77754 0.43908 0.21467 0.0
H1801 H 0.80811 0.45903 0.21427 0.0
H1802 H 0.84208 0.40602 0.2025 0.0
H1803 H 0.81167 0.38575 0.20242 0.0
C1804 C 0.74319 0.33056 0.27283 0.0
C1805 C 0.75636 0.31549 0.26549 0.0
C1806 C 0.74374 0.34903 0.26084 0.0
C1807 C 0.75754 0.35264 0.24157 0.0
C1808 C 0.77149 0.33804 0.23561 0.0
C1809 C 0.77084 0.3196 0.24735 0.0
C1810 C 0.75644 0.37072 0.22547 0.0
C1811 C 0.77336 0.38277 0.22538 0.0
C1812 C 0.73939 0.37513 0.20851 0.0
C1813 C 0.72156 0.36218 0.20642 0.0
C1814 C 0.72289 0.34213 0.19783 0.0
C1815 C 0.70608 0.32994 0.19623 0.0
C1816 C 0.68779 0.33769 0.20287 0.0
C1817 C 0.68628 0.35766 0.21103 0.0
C1818 C 0.70307 0.3699 0.21274 0.0
C1819 C 0.77229 0.42727 0.12751 0.0
C1820 C 0.75877 0.44305 0.12519 0.0
C1821 C 0.77186 0.4144 0.14896 0.0
C1822 C 0.75792 0.41706 0.16855 0.0
C1823 C 0.74436 0.43274 0.16636 0.0
C1824 C 0.74484 0.44571 0.14494 0.0
C1825 C 0.75707 0.40278 0.1905 0.0
C1826 C 0.7398 0.39136 0.19158 0.0
C1827 C 0.77391 0.39878 0.20807 0.0
C1828 C 0.79229 0.4109 0.20841 0.0
C1829 C 0.79151 0.43168 0.21183 0.0
C1830 C 0.80881 0.44305 0.21171 0.0
C1831 C 0.82702 0.4338 0.20833 0.0
C1832 C 0.82796 0.41316 0.20512 0.0
C1833 C 0.8107 0.40172 0.2052 0.0
H1834 H 0.84039 0.44263 0.20823 0.0
H1835 H 0.67479 0.32823 0.20161 0.0
H1836 H 0.69709 0.77417 0.23263 0.0
H1837 H 0.66731 0.77441 0.20186 0.0
H1838 H 0.70339 0.77439 0.13307 0.0
H1839 H 0.73349 0.77479 0.1641 0.0
H1840 H 0.67059 0.79636 0.1232 0.0
H1841 H 0.6838 0.73127 0.15264 0.0
H1842 H 0.69199 0.7052 0.18534 0.0
H1843 H 0.6378 0.71675 0.22361 0.0
H1844 H 0.62943 0.74314 0.19142 0.0
H1845 H 0.58482 0.7659 0.03754 0.0
H1846 H 0.61822 0.76529 0.06076 0.0
H1847 H 0.5924 0.76991 0.13834 0.0
H1848 H 0.5591 0.77025 0.11505 0.0
H1849 H 0.62242 0.74295 0.13849 0.0
H1850 H 0.61156 0.8105 0.10859 0.0
H1851 H 0.60387 0.83474 0.07311 0.0
H1852 H 0.65483 0.81571 0.03186 0.0
H1853 H 0.66266 0.79115 0.06693 0.0
C1854 C 0.69873 0.77456 0.21097 0.0
C1855 C 0.71763 0.77427 0.20077 0.0
C1856 C 0.68167 0.77458 0.19337 0.0
C1857 C 0.68307 0.77383 0.16509 0.0
C1858 C 0.70193 0.77479 0.15481 0.0
C1859 C 0.71911 0.77507 0.17254 0.0
C1860 C 0.66479 0.7709 0.14669 0.0
C1861 C 0.66021 0.7845 0.12628 0.0
C1862 C 0.65123 0.75534 0.15048 0.0
C1863 C 0.65606 0.7393 0.16972 0.0
C1864 C 0.67368 0.72834 0.16813 0.0
C1865 C 0.67835 0.7135 0.18657 0.0
C1866 C 0.66544 0.70934 0.20656 0.0
C1867 C 0.6478 0.71999 0.20812 0.0
C1868 C 0.64307 0.73489 0.18976 0.0
C1869 C 0.58641 0.76659 0.05955 0.0
C1870 C 0.5696 0.76818 0.07466 0.0
C1871 C 0.60542 0.76634 0.07278 0.0
C1872 C 0.60784 0.76781 0.10132 0.0
C1873 C 0.59091 0.7688 0.11634 0.0
C1874 C 0.57194 0.76902 0.10312 0.0
C1875 C 0.62791 0.7688 0.11575 0.0
C1876 C 0.63288 0.75472 0.13532 0.0
C1877 C 0.64192 0.78366 0.11078 0.0
C1878 C 0.63759 0.79888 0.09024 0.0
C1879 C 0.62108 0.81144 0.0919 0.0
C1880 C 0.6167 0.82523 0.07186 0.0
C1881 C 0.62883 0.82672 0.05021 0.0
C1882 C 0.64543 0.8145 0.04862 0.0
C1883 C 0.64986 0.80066 0.06858 0.0
H1884 H 0.62539 0.83738 0.03468 0.0
H1885 H 0.66908 0.69784 0.22083 0.0
H1886 H 0.26236 0.68883 0.20799 0.0
H1887 H 0.26314 0.65794 0.18098 0.0
H1888 H 0.20584 0.67151 0.14187 0.0
H1889 H 0.20553 0.70307 0.16796 0.0
H1890 H 0.24367 0.62626 0.17672 0.0
H1891 H 0.20119 0.65242 0.07791 0.0
H1892 H 0.19586 0.68314 0.05266 0.0
H1893 H 0.25071 0.70702 0.08916 0.0
H1894 H 0.25647 0.67636 0.11434 0.0
H1895 H 0.22383 0.54107 0.09221 0.0
H1896 H 0.22111 0.5719 0.1194 0.0
H1897 H 0.2571 0.60203 0.06449 0.0
H1898 H 0.25836 0.57156 0.03619 0.0
H1899 H 0.23034 0.62555 0.0766 0.0
H1900 H 0.275 0.58565 0.12994 0.0
H1901 H 0.28669 0.55595 0.15398 0.0
H1902 H 0.23887 0.56157 0.20667 0.0
H1903 H 0.22672 0.59116 0.18269 0.0
C1904 C 0.24987 0.6852 0.19372 0.0
C1905 C 0.23391 0.69839 0.18998 0.0
C1906 C 0.25032 0.6675 0.1783 0.0
C1907 C 0.23468 0.66245 0.15908 0.0
C1908 C 0.21833 0.67527 0.15607 0.0
C1909 C 0.21808 0.69324 0.1711 0.0
C1910 C 0.23576 0.64391 0.14204 0.0
C1911 C 0.24073 0.62612 0.15482 0.0
C1912 C 0.23243 0.64372 0.11339 0.0
C1913 C 0.22912 0.66219 0.09825 0.0
C1914 C 0.21212 0.66421 0.08049 0.0
C1915 C 0.20903 0.68161 0.0662 0.0
C1916 C 0.2229 0.69705 0.06939 0.0
C1917 C 0.23993 0.69509 0.0868 0.0
C1918 C 0.24311 0.67771 0.10111 0.0
C1919 C 0.2309 0.5544 0.08589 0.0
C1920 C 0.24107 0.55414 0.06204 0.0
C1921 C 0.22957 0.57194 0.10155 0.0
C1922 C 0.23914 0.58931 0.09427 0.0
C1923 C 0.24951 0.58891 0.07052 0.0
C1924 C 0.25036 0.57151 0.05447 0.0
C1925 C 0.23832 0.6079 0.11126 0.0
C1926 C 0.23327 0.62567 0.0985 0.0
C1927 C 0.24255 0.60825 0.1398 0.0
C1928 C 0.24984 0.59051 0.15435 0.0
C1929 C 0.2669 0.58047 0.14654 0.0
C1930 C 0.27362 0.56367 0.16016 0.0
C1931 C 0.2635 0.55685 0.18179 0.0
C1932 C 0.24667 0.56685 0.18989 0.0
C1933 C 0.23987 0.58365 0.1763 0.0
H1934 H 0.26873 0.54384 0.19232 0.0
H1935 H 0.22047 0.7105 0.05831 0.0
H1936 H 0.29068 0.79393 0.84791 0.0
H1937 H 0.32098 0.79584 0.8783 0.0
H1938 H 0.3557 0.77824 0.81139 0.0
H1939 H 0.32562 0.77588 0.78127 0.0
H1940 H 0.36612 0.75709 0.85318 0.0
H1941 H 0.35562 0.8268 0.83957 0.0
H1942 H 0.33681 0.85813 0.83981 0.0
H1943 H 0.3317 0.85467 0.92576 0.0
H1944 H 0.35026 0.82316 0.92597 0.0
H1945 H 0.46328 0.77699 0.90984 0.0
H1946 H 0.43183 0.77919 0.88202 0.0
H1947 H 0.40098 0.79159 0.95439 0.0
H1948 H 0.43251 0.78944 0.98215 0.0
H1949 H 0.38775 0.81515 0.91242 0.0
H1950 H 0.39948 0.74607 0.92605 0.0
H1951 H 0.41911 0.71528 0.9258 0.0
H1952 H 0.42206 0.71773 0.83934 0.0
H1953 H 0.40276 0.74878 0.83915 0.0
C1954 C 0.30481 0.79074 0.83963 0.0
C1955 C 0.30569 0.78469 0.81217 0.0
C1956 C 0.32215 0.79185 0.85702 0.0
C1957 C 0.34072 0.78722 0.84718 0.0
C1958 C 0.3416 0.78176 0.81958 0.0
C1959 C 0.32434 0.78049 0.80233 0.0
C1960 C 0.3592 0.78712 0.86558 0.0
C1961 C 0.37093 0.76991 0.86585 0.0
C1962 C 0.36528 0.80358 0.88281 0.0
C1963 C 0.35414 0.82252 0.88272 0.0
C1964 C 0.35034 0.83264 0.85848 0.0
C1965 C 0.33975 0.85044 0.85854 0.0
C1966 C 0.33301 0.85835 0.88277 0.0
C1967 C 0.3369 0.8485 0.907 0.0
C1968 C 0.34746 0.83068 0.90704 0.0
C1969 C 0.44974 0.78022 0.91967 0.0
C1970 C 0.45014 0.78284 0.94803 0.0
C1971 C 0.43182 0.78146 0.90386 0.0
C1972 C 0.41398 0.78532 0.91615 0.0
C1973 C 0.41452 0.78857 0.94447 0.0
C1974 C 0.43246 0.78727 0.96029 0.0
C1975 C 0.39475 0.7853 0.89949 0.0
C1976 C 0.38287 0.80238 0.89972 0.0
C1977 C 0.3885 0.76873 0.88264 0.0
C1978 C 0.39981 0.74986 0.88263 0.0
C1979 C 0.40442 0.74013 0.90701 0.0
C1980 C 0.41549 0.72262 0.90695 0.0
C1981 C 0.42186 0.71457 0.88258 0.0
C1982 C 0.41713 0.724 0.85821 0.0
C1983 C 0.40612 0.74155 0.85817 0.0
H1984 H 0.43042 0.70102 0.88257 0.0
H1985 H 0.32482 0.87214 0.88278 0.0
H1986 H 0.25072 0.30519 0.8156 0.0
H1987 H 0.24893 0.33802 0.83693 0.0
H1988 H 0.27558 0.36335 0.76905 0.0
H1989 H 0.27776 0.33007 0.74739 0.0
H1990 H 0.29133 0.37865 0.81882 0.0
H1991 H 0.22718 0.36974 0.77431 0.0
H1992 H 0.19613 0.35196 0.75997 0.0
H1993 H 0.1819 0.34903 0.8432 0.0
H1994 H 0.21304 0.3665 0.85811 0.0
H1995 H 0.2664 0.47181 0.886 0.0
H1996 H 0.26872 0.44565 0.85025 0.0
H1997 H 0.24501 0.40316 0.903 0.0
H1998 H 0.24278 0.42922 0.93854 0.0
H1999 H 0.22687 0.40134 0.85102 0.0
H2000 H 0.29348 0.40494 0.89507 0.0
H2001 H 0.32463 0.42239 0.91 0.0
H2002 H 0.33393 0.43543 0.82727 0.0
H2003 H 0.30262 0.41833 0.8119 0.0
C2004 C 0.25618 0.31767 0.80502 0.0
C2005 C 0.26423 0.31502 0.77963 0.0
C2006 C 0.25508 0.33648 0.81726 0.0
C2007 C 0.26175 0.35314 0.80432 0.0
C2008 C 0.2702 0.35064 0.77923 0.0
C2009 C 0.2714 0.33167 0.7669 0.0
C2010 C 0.25989 0.37299 0.81763 0.0
C2011 C 0.27718 0.38391 0.82528 0.0
C2012 C 0.24142 0.37972 0.82621 0.0
C2013 C 0.22251 0.3694 0.81733 0.0
C2014 C 0.21749 0.36521 0.78958 0.0
C2015 C 0.19986 0.35519 0.78134 0.0
C2016 C 0.18704 0.34937 0.80066 0.0
C2017 C 0.19183 0.35357 0.82826 0.0
C2018 C 0.20946 0.36357 0.83661 0.0
C2019 C 0.2618 0.45682 0.88978 0.0
C2020 C 0.25448 0.45231 0.91477 0.0
C2021 C 0.2631 0.44197 0.86949 0.0
C2022 C 0.25704 0.42252 0.87407 0.0
C2023 C 0.24967 0.41811 0.89908 0.0
C2024 C 0.24847 0.43289 0.91933 0.0
C2025 C 0.25838 0.4065 0.85308 0.0
C2026 C 0.24094 0.39635 0.84395 0.0
C2027 C 0.27668 0.40054 0.84315 0.0
C2028 C 0.2956 0.41058 0.85237 0.0
C2029 C 0.30209 0.41167 0.88009 0.0
C2030 C 0.31978 0.42148 0.88863 0.0
C2031 C 0.33123 0.43007 0.8696 0.0
C2032 C 0.32503 0.42881 0.84199 0.0
C2033 C 0.30731 0.41906 0.83335 0.0
H2034 H 0.34492 0.43765 0.87625 0.0
H2035 H 0.17339 0.34162 0.79427 0.0
H2036 H 0.70371 0.2292 0.81082 0.0
H2037 H 0.67359 0.22792 0.83499 0.0
H2038 H 0.64792 0.27427 0.78595 0.0
H2039 H 0.67839 0.27576 0.7615 0.0
H2040 H 0.64374 0.28126 0.84075 0.0
H2041 H 0.63073 0.22755 0.7764 0.0
H2042 H 0.63856 0.19689 0.75063 0.0
H2043 H 0.64575 0.1655 0.82486 0.0
H2044 H 0.63828 0.19604 0.85113 0.0
H2045 H 0.5522 0.27121 0.90279 0.0
H2046 H 0.57692 0.27249 0.86894 0.0
H2047 H 0.60816 0.22358 0.90616 0.0
H2048 H 0.58347 0.22218 0.93999 0.0
H2049 H 0.60687 0.21882 0.8525 0.0
H2050 H 0.62397 0.27234 0.91694 0.0
H2051 H 0.61804 0.30291 0.94406 0.0
H2052 H 0.60462 0.33439 0.87093 0.0
H2053 H 0.61021 0.30391 0.84337 0.0
C2054 C 0.69163 0.23904 0.80489 0.0
C2055 C 0.6935 0.2526 0.78416 0.0
C2056 C 0.67434 0.23821 0.81872 0.0
C2057 C 0.65838 0.25087 0.81219 0.0
C2058 C 0.66003 0.26431 0.79128 0.0
C2059 C 0.67739 0.26507 0.77722 0.0
C2060 C 0.64049 0.25046 0.82822 0.0
C2061 C 0.63538 0.26772 0.84283 0.0
C2062 C 0.6299 0.23267 0.83154 0.0
C2063 C 0.63406 0.21415 0.81576 0.0
C2064 C 0.63409 0.21414 0.78725 0.0
C2065 C 0.63846 0.19677 0.77255 0.0
C2066 C 0.64268 0.17927 0.7861 0.0
C2067 C 0.64248 0.17907 0.81439 0.0
C2068 C 0.63816 0.19641 0.82919 0.0
C2069 C 0.56438 0.26078 0.90387 0.0
C2070 C 0.56586 0.24665 0.92425 0.0
C2071 C 0.57851 0.26151 0.88444 0.0
C2072 C 0.5946 0.24829 0.88512 0.0
C2073 C 0.59589 0.23393 0.90512 0.0
C2074 C 0.58172 0.23312 0.92445 0.0
C2075 C 0.61027 0.24957 0.86535 0.0
C2076 C 0.61501 0.23245 0.85009 0.0
C2077 C 0.62062 0.26746 0.86159 0.0
C2078 C 0.61727 0.28579 0.87811 0.0
C2079 C 0.61959 0.28574 0.90665 0.0
C2080 C 0.61632 0.30306 0.9221 0.0
C2081 C 0.6109 0.32056 0.90923 0.0
C2082 C 0.60878 0.3208 0.88087 0.0
C2083 C 0.61201 0.30352 0.86533 0.0
H2084 H 0.60838 0.33396 0.92122 0.0
H2085 H 0.64609 0.16585 0.77468 0.0
H2086 H 0.78687 0.69791 0.82088 0.0
H2087 H 0.78799 0.66723 0.8456 0.0
H2088 H 0.73977 0.64341 0.79236 0.0
H2089 H 0.73878 0.67406 0.76708 0.0
H2090 H 0.75984 0.6537 0.87415 0.0
H2091 H 0.74284 0.59237 0.79077 0.0
H2092 H 0.74867 0.5854 0.74257 0.0
H2093 H 0.80058 0.62249 0.75052 0.0
H2094 H 0.7952 0.62947 0.79884 0.0
H2095 H 0.73082 0.56795 0.93717 0.0
H2096 H 0.73123 0.59401 0.9042 0.0
H2097 H 0.78796 0.57334 0.87987 0.0
H2098 H 0.78724 0.54656 0.91195 0.0
H2099 H 0.76484 0.58482 0.83652 0.0
H2100 H 0.78534 0.61169 0.92571 0.0
H2101 H 0.78197 0.61859 0.97459 0.0
H2102 H 0.72835 0.651 0.95606 0.0
H2103 H 0.73126 0.64406 0.90706 0.0
C2104 C 0.77667 0.68605 0.81414 0.0
C2105 C 0.76265 0.68845 0.79212 0.0
C2106 C 0.77731 0.66854 0.82835 0.0
C2107 C 0.76394 0.65306 0.8209 0.0
C2108 C 0.75037 0.65509 0.79829 0.0
C2109 C 0.74981 0.67262 0.78389 0.0
C2110 C 0.76339 0.63548 0.83804 0.0
C2111 C 0.76094 0.63865 0.86587 0.0
C2112 C 0.76498 0.61585 0.82732 0.0
C2113 C 0.76848 0.6116 0.79835 0.0
C2114 C 0.75553 0.59898 0.78225 0.0
C2115 C 0.75875 0.59504 0.7549 0.0
C2116 C 0.77495 0.60355 0.74346 0.0
C2117 C 0.78799 0.61597 0.75937 0.0
C2118 C 0.78484 0.61995 0.78673 0.0
C2119 C 0.74319 0.56862 0.9244 0.0
C2120 C 0.75908 0.55522 0.92736 0.0
C2121 C 0.74348 0.58366 0.90573 0.0
C2122 C 0.75978 0.5858 0.88993 0.0
C2123 C 0.77528 0.572 0.89198 0.0
C2124 C 0.77495 0.55684 0.91054 0.0
C2125 C 0.76119 0.60311 0.87248 0.0
C2126 C 0.76371 0.59989 0.84468 0.0
C2127 C 0.76005 0.62277 0.88329 0.0
C2128 C 0.75842 0.6272 0.91273 0.0
C2129 C 0.77277 0.62019 0.93207 0.0
C2130 C 0.77095 0.62412 0.9598 0.0
C2131 C 0.75493 0.63518 0.96844 0.0
C2132 C 0.74074 0.64241 0.94935 0.0
C2133 C 0.74247 0.6385 0.9216 0.0
H2134 H 0.75353 0.63819 0.98991 0.0
H2135 H 0.77741 0.60049 0.72229 0.0
loop_
_geom_bond_atom_site_label_1
_geom_bond_atom_site_label_2
_geom_bond_distance
_geom_bond_site_symmetry_2
_ccdc_geom_bond_type
C0 O2 1.247 . S
C0 O4 1.258 . S
C1 O8 1.247 . S
C1 O9 1.258 . S
O2 C0 1.247 . S
O2 Zn3 2.028 . S
Zn3 O2 2.028 . S
Zn3 O7 2.035 . S
Zn3 O9 2.035 . S
Zn3 O10 2.028 . S
O4 C0 1.258 . S
O4 Zn5 2.035 . S
Zn5 O4 2.035 . S
Zn5 O6 2.028 . S
Zn5 O8 2.028 . S
Zn5 O11 2.035 . S
O6 Zn5 2.028 . S
O6 C12 1.247 . S
O7 Zn3 2.035 . S
O7 C12 1.258 . S
O8 C1 1.247 . S
O8 Zn5 2.028 . S
O9 C1 1.258 . S
O9 Zn3 2.035 . S
O10 Zn3 2.028 . S
O10 C13 1.247 . S
O11 Zn5 2.035 . S
O11 C13 1.258 . S
C12 O6 1.247 . S
C12 O7 1.258 . S
C13 O10 1.247 . S
C13 O11 1.258 . S
C14 O16 1.247 . S
C14 O18 1.258 . S
C15 O22 1.247 . S
C15 O23 1.258 . S
O16 C14 1.247 . S
O16 Zn17 2.028 . S
Zn17 O16 2.028 . S
Zn17 O21 2.035 . S
Zn17 O23 2.035 . S
Zn17 O24 2.028 . S
O18 C14 1.258 . S
O18 Zn19 2.035 . S
Zn19 O18 2.035 . S
Zn19 O20 2.028 . S
Zn19 O22 2.028 . S
Zn19 O25 2.035 . S
O20 Zn19 2.028 . S
O20 C26 1.247 . S
O21 Zn17 2.035 . S
O21 C26 1.258 . S
O22 C15 1.247 . S
O22 Zn19 2.028 . S
O23 C15 1.258 . S
O23 Zn17 2.035 . S
O24 Zn17 2.028 . S
O24 C27 1.247 . S
O25 Zn19 2.035 . S
O25 C27 1.258 . S
C26 O20 1.247 . S
C26 O21 1.258 . S
C27 O24 1.247 . S
C27 O25 1.258 . S
C28 O30 1.247 . S
C28 O32 1.258 . S
C29 O36 1.247 . S
C29 O37 1.258 . S
O30 C28 1.247 . S
O30 Zn31 2.028 . S
Zn31 O30 2.028 . S
Zn31 O35 2.035 . S
Zn31 O37 2.035 . S
Zn31 O38 2.028 . S
O32 C28 1.258 . S
O32 Zn33 2.035 . S
Zn33 O32 2.035 . S
Zn33 O34 2.028 . S
Zn33 O36 2.028 . S
Zn33 O39 2.035 . S
O34 Zn33 2.028 . S
O34 C40 1.247 . S
O35 Zn31 2.035 . S
O35 C40 1.258 . S
O36 C29 1.247 . S
O36 Zn33 2.028 . S
O37 C29 1.258 . S
O37 Zn31 2.035 . S
O38 Zn31 2.028 . S
O38 C41 1.247 . S
O39 Zn33 2.035 . S
O39 C41 1.258 . S
C40 O34 1.247 . S
C40 O35 1.258 . S
C41 O38 1.247 . S
C41 O39 1.258 . S
C42 O44 1.247 . S
C42 O46 1.258 . S
C43 O50 1.247 . S
C43 O51 1.258 . S
O44 C42 1.247 . S
O44 Zn45 2.028 . S
Zn45 O44 2.028 . S
Zn45 O49 2.035 . S
Zn45 O51 2.035 . S
Zn45 O52 2.028 . S
O46 C42 1.258 . S
O46 Zn47 2.035 . S
Zn47 O46 2.035 . S
Zn47 O48 2.028 . S
Zn47 O50 2.028 . S
Zn47 O53 2.035 . S
O48 Zn47 2.028 . S
O48 C54 1.247 . S
O49 Zn45 2.035 . S
O49 C54 1.258 . S
O50 C43 1.247 . S
O50 Zn47 2.028 . S
O51 C43 1.258 . S
O51 Zn45 2.035 . S
O52 Zn45 2.028 . S
O52 C55 1.247 . S
O53 Zn47 2.035 . S
O53 C55 1.258 . S
C54 O48 1.247 . S
C54 O49 1.258 . S
C55 O52 1.247 . S
C55 O53 1.258 . S
C56 O58 1.247 . S
C56 O60 1.258 . S
C57 O64 1.247 . S
C57 O65 1.258 . S
O58 C56 1.247 . S
O58 Zn59 2.028 . S
Zn59 O58 2.028 . S
Zn59 O63 2.035 . S
Zn59 O65 2.035 . S
Zn59 O66 2.028 . S
O60 C56 1.258 . S
O60 Zn61 2.035 . S
Zn61 O60 2.035 . S
Zn61 O62 2.028 . S
Zn61 O64 2.028 . S
Zn61 O67 2.035 . S
O62 Zn61 2.028 . S
O62 C68 1.247 . S
O63 Zn59 2.035 . S
O63 C68 1.258 . S
O64 C57 1.247 . S
O64 Zn61 2.028 . S
O65 C57 1.258 . S
O65 Zn59 2.035 . S
O66 Zn59 2.028 . S
O66 C69 1.247 . S
O67 Zn61 2.035 . S
O67 C69 1.258 . S
C68 O62 1.247 . S
C68 O63 1.258 . S
C69 O66 1.247 . S
C69 O67 1.258 . S
C70 O72 1.247 . S
C70 O74 1.258 . S
C71 O78 1.247 . S
C71 O79 1.258 . S
O72 C70 1.247 . S
O72 Zn73 2.028 . S
Zn73 O72 2.028 . S
Zn73 O77 2.035 . S
Zn73 O79 2.035 . S
Zn73 O80 2.028 . S
O74 C70 1.258 . S
O74 Zn75 2.035 . S
Zn75 O74 2.035 . S
Zn75 O76 2.028 . S
Zn75 O78 2.028 . S
Zn75 O81 2.035 . S
O76 Zn75 2.028 . S
O76 C82 1.247 . S
O77 Zn73 2.035 . S
O77 C82 1.258 . S
O78 C71 1.247 . S
O78 Zn75 2.028 . S
O79 C71 1.258 . S
O79 Zn73 2.035 . S
O80 Zn73 2.028 . S
O80 C83 1.247 . S
O81 Zn75 2.035 . S
O81 C83 1.258 . S
C82 O76 1.247 . S
C82 O77 1.258 . S
C83 O80 1.247 . S
C83 O81 1.258 . S
C84 O86 1.247 . S
C84 O88 1.258 . S
C85 O92 1.247 . S
C85 O93 1.258 . S
O86 C84 1.247 . S
O86 Zn87 2.028 . S
Zn87 O86 2.028 . S
Zn87 O91 2.035 . S
Zn87 O93 2.035 . S
Zn87 O94 2.028 . S
O88 C84 1.258 . S
O88 Zn89 2.035 . S
Zn89 O88 2.035 . S
Zn89 O90 2.028 . S
Zn89 O92 2.028 . S
Zn89 O95 2.035 . S
O90 Zn89 2.028 . S
O90 C96 1.247 . S
O91 Zn87 2.035 . S
O91 C96 1.258 . S
O92 C85 1.247 . S
O92 Zn89 2.028 . S
O93 C85 1.258 . S
O93 Zn87 2.035 . S
O94 Zn87 2.028 . S
O94 C97 1.247 . S
O95 Zn89 2.035 . S
O95 C97 1.258 . S
C96 O90 1.247 . S
C96 O91 1.258 . S
C97 O94 1.247 . S
C97 O95 1.258 . S
C98 O100 1.247 . S
C98 O102 1.258 . S
C99 O106 1.247 . S
C99 O107 1.258 . S
O100 C98 1.247 . S
O100 Zn101 2.028 . S
Zn101 O100 2.028 . S
Zn101 O105 2.035 . S
Zn101 O107 2.035 . S
Zn101 O108 2.028 . S
O102 C98 1.258 . S
O102 Zn103 2.035 . S
Zn103 O102 2.035 . S
Zn103 O104 2.028 . S
Zn103 O106 2.028 . S
Zn103 O109 2.035 . S
O104 Zn103 2.028 . S
O104 C110 1.247 . S
O105 Zn101 2.035 . S
O105 C110 1.258 . S
O106 C99 1.247 . S
O106 Zn103 2.028 . S
O107 C99 1.258 . S
O107 Zn101 2.035 . S
O108 Zn101 2.028 . S
O108 C111 1.247 . S
O109 Zn103 2.035 . S
O109 C111 1.258 . S
C110 O104 1.247 . S
C110 O105 1.258 . S
C111 O108 1.247 . S
C111 O109 1.258 . S
C112 C113 1.443 . S
C112 N116 1.376 . S
C112 C150 1.389 . S
C113 C112 1.443 . S
C113 C114 1.340 . S
C113 H153 0.951 . S
C114 C113 1.340 . S
C114 C115 1.439 . S
C114 H154 0.950 . S
C115 C114 1.439 . S
C115 N116 1.374 . S
C115 C149 1.395 . S
N116 C112 1.376 . S
N116 C115 1.374 . S
N116 Co117 2.008 . S
Co117 N116 2.008 . S
Co117 N118 1.995 1_455 S
Co117 N123 2.008 1_455 S
Co117 N128 1.995 . S
Co117 N133 2.282 1_455 S
Co117 N139 2.282 . S
N118 Co117 1.995 1_655 S
N118 C119 1.376 . S
N118 C122 1.383 . S
C119 N118 1.376 . S
C119 C120 1.446 . S
C119 C149 1.391 1_655 S
C120 C119 1.446 . S
C120 C121 1.339 . S
C120 H155 0.949 . S
C121 C120 1.339 . S
C121 C122 1.439 . S
C121 H156 0.950 . S
C122 N118 1.383 . S
C122 C121 1.439 . S
C122 C151 1.392 . S
N123 Co117 2.008 1_655 S
N123 C124 1.376 . S
N123 C127 1.374 . S
C124 N123 1.376 . S
C124 C125 1.443 . S
C124 C151 1.389 . S
C125 C124 1.443 . S
C125 C126 1.340 . S
C125 H157 0.951 . S
C126 C125 1.340 . S
C126 C127 1.439 . S
C126 H158 0.950 . S
C127 N123 1.374 . S
C127 C126 1.439 . S
C127 C152 1.388 1_655 S
N128 Co117 1.995 . S
N128 C129 1.376 . S
N128 C132 1.383 . S
C129 N128 1.376 . S
C129 C130 1.446 . S
C129 C152 1.399 . S
C130 C129 1.446 . S
C130 C131 1.339 . S
C130 H159 0.949 . S
C131 C130 1.339 . S
C131 C132 1.439 . S
C131 H160 0.950 . S
C132 N128 1.383 . S
C132 C131 1.439 . S
C132 C150 1.392 . S
N133 Co117 2.282 1_655 S
N133 C136 1.332 . S
N133 C138 1.332 . S
C134 C135 1.386 . S
C134 C137 1.388 . S
C135 C134 1.386 . S
C135 C136 1.382 . S
C135 H161 0.950 . S
C136 N133 1.332 . S
C136 C135 1.382 . S
C136 H147 0.952 . S
C137 C134 1.388 . S
C137 C138 1.382 . S
C137 H162 0.950 . S
C138 N133 1.332 . S
C138 C137 1.382 . S
C138 H148 0.948 . S
N139 Co117 2.282 . S
N139 C143 1.332 . S
N139 C144 1.332 . S
C140 C141 1.388 . S
C140 C144 1.382 . S
C140 H163 0.950 . S
C141 C140 1.388 . S
C141 C142 1.386 . S
C142 C141 1.386 . S
C142 C143 1.382 . S
C142 H164 0.950 . S
C143 N139 1.332 . S
C143 C142 1.382 . S
C143 H145 0.952 . S
C144 N139 1.332 . S
C144 C140 1.382 . S
C144 H146 0.948 . S
H145 C143 0.952 . S
H146 C144 0.948 . S
H147 C136 0.952 . S
H148 C138 0.948 . S
C149 C115 1.395 . S
C149 C119 1.391 1_455 S
C150 C112 1.389 . S
C150 C132 1.392 . S
C151 C122 1.392 . S
C151 C124 1.389 . S
C152 C127 1.388 1_455 S
C152 C129 1.399 . S
H153 C113 0.951 . S
H154 C114 0.950 . S
H155 C120 0.949 . S
H156 C121 0.950 . S
H157 C125 0.951 . S
H158 C126 0.950 . S
H159 C130 0.949 . S
H160 C131 0.950 . S
H161 C135 0.950 . S
H162 C137 0.950 . S
H163 C140 0.950 . S
H164 C142 0.950 . S
C165 C166 1.443 . S
C165 N169 1.376 . S
C165 C203 1.389 . S
C166 C165 1.443 . S
C166 C167 1.340 . S
C166 H206 0.951 . S
C167 C166 1.340 . S
C167 C168 1.439 . S
C167 H207 0.950 . S
C168 C167 1.439 . S
C168 N169 1.374 . S
C168 C202 1.395 . S
N169 C165 1.376 . S
N169 C168 1.374 . S
N169 Co170 2.008 . S
Co170 N169 2.008 . S
Co170 N171 1.995 1_545 S
Co170 N176 2.008 1_545 S
Co170 N181 1.995 . S
Co170 N186 2.282 1_545 S
Co170 N192 2.282 . S
N171 Co170 1.995 1_565 S
N171 C172 1.376 . S
N171 C175 1.383 . S
C172 N171 1.376 . S
C172 C173 1.446 . S
C172 C202 1.391 1_565 S
C173 C172 1.446 . S
C173 C174 1.339 . S
C173 H208 0.949 . S
C174 C173 1.339 . S
C174 C175 1.439 . S
C174 H209 0.950 . S
C175 N171 1.383 . S
C175 C174 1.439 . S
C175 C204 1.392 . S
N176 Co170 2.008 1_565 S
N176 C177 1.376 . S
N176 C180 1.374 . S
C177 N176 1.376 . S
C177 C178 1.443 . S
C177 C204 1.389 . S
C178 C177 1.443 . S
C178 C179 1.340 . S
C178 H210 0.951 . S
C179 C178 1.340 . S
C179 C180 1.439 . S
C179 H211 0.950 . S
C180 N176 1.374 . S
C180 C179 1.439 . S
C180 C205 1.395 . S
N181 Co170 1.995 . S
N181 C182 1.376 . S
N181 C185 1.383 . S
C182 N181 1.376 . S
C182 C183 1.446 . S
C182 C205 1.391 1_545 S
C183 C182 1.446 . S
C183 C184 1.339 . S
C183 H212 0.949 . S
C184 C183 1.339 . S
C184 C185 1.439 . S
C184 H213 0.950 . S
C185 N181 1.383 . S
C185 C184 1.439 . S
C185 C203 1.392 . S
N186 Co170 2.282 1_565 S
N186 C189 1.332 . S
N186 C191 1.332 . S
C187 C188 1.386 . S
C187 C190 1.388 . S
C188 C187 1.386 . S
C188 C189 1.382 . S
C188 H214 0.950 . S
C189 N186 1.332 . S
C189 C188 1.382 . S
C189 H200 0.952 . S
C190 C187 1.388 . S
C190 C191 1.382 . S
C190 H215 0.950 . S
C191 N186 1.332 . S
C191 C190 1.382 . S
C191 H201 0.948 . S
N192 Co170 2.282 . S
N192 C196 1.332 . S
N192 C197 1.332 . S
C193 C194 1.388 . S
C193 C197 1.382 . S
C193 H216 0.950 . S
C194 C193 1.388 . S
C194 C195 1.386 . S
C195 C194 1.386 . S
C195 C196 1.382 . S
C195 H217 0.950 . S
C196 N192 1.332 . S
C196 C195 1.382 . S
C196 H198 0.952 . S
C197 N192 1.332 . S
C197 C193 1.382 . S
C197 H199 0.948 . S
H198 C196 0.952 . S
H199 C197 0.948 . S
H200 C189 0.952 . S
H201 C191 0.948 . S
C202 C168 1.395 . S
C202 C172 1.391 1_545 S
C203 C165 1.389 . S
C203 C185 1.392 . S
C204 C175 1.392 . S
C204 C177 1.389 . S
C205 C180 1.395 . S
C205 C182 1.391 1_565 S
H206 C166 0.951 . S
H207 C167 0.950 . S
H208 C173 0.949 . S
H209 C174 0.950 . S
H210 C178 0.951 . S
H211 C179 0.950 . S
H212 C183 0.949 . S
H213 C184 0.950 . S
H214 C188 0.950 . S
H215 C190 0.950 . S
H216 C193 0.950 . S
H217 C195 0.950 . S
C218 C219 1.443 . S
C218 N222 1.376 . S
C218 C256 1.389 . S
C219 C218 1.443 . S
C219 C220 1.340 . S
C219 H259 0.951 . S
C220 C219 1.340 . S
C220 C221 1.439 . S
C220 H260 0.950 . S
C221 C220 1.439 . S
C221 N222 1.374 . S
C221 C255 1.395 . S
N222 C218 1.376 . S
N222 C221 1.374 . S
N222 Co223 2.008 . S
Co223 N222 2.008 . S
Co223 N224 1.995 1_455 S
Co223 N229 2.008 1_455 S
Co223 N234 1.995 . S
Co223 N239 2.282 1_455 S
Co223 N245 2.282 . S
N224 Co223 1.995 1_655 S
N224 C225 1.376 . S
N224 C228 1.383 . S
C225 N224 1.376 . S
C225 C226 1.446 . S
C225 C255 1.391 1_655 S
C226 C225 1.446 . S
C226 C227 1.339 . S
C226 H261 0.949 . S
C227 C226 1.339 . S
C227 C228 1.439 . S
C227 H262 0.950 . S
C228 N224 1.383 . S
C228 C227 1.439 . S
C228 C257 1.392 . S
N229 Co223 2.008 1_655 S
N229 C230 1.376 . S
N229 C233 1.374 . S
C230 N229 1.376 . S
C230 C231 1.443 . S
C230 C257 1.389 . S
C231 C230 1.443 . S
C231 C232 1.340 . S
C231 H263 0.951 . S
C232 C231 1.340 . S
C232 C233 1.439 . S
C232 H264 0.950 . S
C233 N229 1.374 . S
C233 C232 1.439 . S
C233 C258 1.419 . S
N234 Co223 1.995 . S
N234 C235 1.376 . S
N234 C238 1.383 . S
C235 N234 1.376 . S
C235 C236 1.446 . S
C235 C258 1.366 1_455 S
C236 C235 1.446 . S
C236 C237 1.339 . S
C236 H265 0.949 . S
C237 C236 1.339 . S
C237 C238 1.439 . S
C237 H266 0.950 . S
C238 N234 1.383 . S
C238 C237 1.439 . S
C238 C256 1.392 . S
N239 Co223 2.282 1_655 S
N239 C242 1.332 . S
N239 C244 1.332 . S
C240 C241 1.386 . S
C240 C243 1.388 . S
C241 C240 1.386 . S
C241 C242 1.382 . S
C241 H267 0.950 . S
C242 N239 1.332 . S
C242 C241 1.382 . S
C242 H253 0.952 . S
C243 C240 1.388 . S
C243 C244 1.382 . S
C243 H268 0.950 . S
C244 N239 1.332 . S
C244 C243 1.382 . S
C244 H254 0.948 . S
N245 Co223 2.282 . S
N245 C249 1.332 . S
N245 C250 1.332 . S
C246 C247 1.388 . S
C246 C250 1.382 . S
C246 H269 0.950 . S
C247 C246 1.388 . S
C247 C248 1.386 . S
C248 C247 1.386 . S
C248 C249 1.382 . S
C248 H270 0.950 . S
C249 N245 1.332 . S
C249 C248 1.382 . S
C249 H251 0.952 . S
C250 N245 1.332 . S
C250 C246 1.382 . S
C250 H252 0.948 . S
H251 C249 0.952 . S
H252 C250 0.948 . S
H253 C242 0.952 . S
H254 C244 0.948 . S
C255 C221 1.395 . S
C255 C225 1.391 1_455 S
C256 C218 1.389 . S
C256 C238 1.392 . S
C257 C228 1.392 . S
C257 C230 1.389 . S
C258 C233 1.419 . S
C258 C235 1.366 1_655 S
H259 C219 0.951 . S
H260 C220 0.950 . S
H261 C226 0.949 . S
H262 C227 0.950 . S
H263 C231 0.951 . S
H264 C232 0.950 . S
H265 C236 0.949 . S
H266 C237 0.950 . S
H267 C241 0.950 . S
H268 C243 0.950 . S
H269 C246 0.950 . S
H270 C248 0.950 . S
C271 C272 1.443 . S
C271 N275 1.376 . S
C271 C309 1.389 . S
C272 C271 1.443 . S
C272 C273 1.340 . S
C272 H312 0.951 . S
C273 C272 1.340 . S
C273 C274 1.439 . S
C273 H313 0.950 . S
C274 C273 1.439 . S
C274 N275 1.374 . S
C274 C308 1.395 . S
N275 C271 1.376 . S
N275 C274 1.374 . S
N275 Co276 2.008 1_565 S
Co276 N275 2.008 1_545 S
Co276 N277 1.995 . S
Co276 N282 2.008 . S
Co276 N287 1.995 1_545 S
Co276 N292 2.282 . S
Co276 N298 2.282 1_545 S
N277 Co276 1.995 . S
N277 C278 1.376 . S
N277 C281 1.383 . S
C278 N277 1.376 . S
C278 C279 1.446 . S
C278 C308 1.391 1_545 S
C279 C278 1.446 . S
C279 C280 1.339 . S
C279 H314 0.949 . S
C280 C279 1.339 . S
C280 C281 1.439 . S
C280 H315 0.950 . S
C281 N277 1.383 . S
C281 C280 1.439 . S
C281 C310 1.392 . S
N282 Co276 2.008 . S
N282 C283 1.376 . S
N282 C286 1.374 . S
C283 N282 1.376 . S
C283 C284 1.443 . S
C283 C310 1.389 . S
C284 C283 1.443 . S
C284 C285 1.340 . S
C284 H316 0.951 . S
C285 C284 1.340 . S
C285 C286 1.439 . S
C285 H317 0.950 . S
C286 N282 1.374 . S
C286 C285 1.439 . S
C286 C311 1.395 . S
N287 Co276 1.995 1_565 S
N287 C288 1.376 . S
N287 C291 1.383 . S
C288 N287 1.376 . S
C288 C289 1.446 . S
C288 C311 1.391 1_565 S
C289 C288 1.446 . S
C289 C290 1.339 . S
C289 H318 0.949 . S
C290 C289 1.339 . S
C290 C291 1.439 . S
C290 H319 0.950 . S
C291 N287 1.383 . S
C291 C290 1.439 . S
C291 C309 1.392 . S
N292 Co276 2.282 . S
N292 C295 1.332 . S
N292 C297 1.332 . S
C293 C294 1.386 . S
C293 C296 1.388 . S
C294 C293 1.386 . S
C294 C295 1.382 . S
C294 H320 0.950 . S
C295 N292 1.332 . S
C295 C294 1.382 . S
C295 H306 0.952 . S
C296 C293 1.388 . S
C296 C297 1.382 . S
C296 H321 0.950 . S
C297 N292 1.332 . S
C297 C296 1.382 . S
C297 H307 0.948 . S
N298 Co276 2.282 1_565 S
N298 C302 1.332 . S
N298 C303 1.332 . S
C299 C300 1.388 . S
C299 C303 1.382 . S
C299 H322 0.950 . S
C300 C299 1.388 . S
C300 C301 1.386 . S
C301 C300 1.386 . S
C301 C302 1.382 . S
C301 H323 0.950 . S
C302 N298 1.332 . S
C302 C301 1.382 . S
C302 H304 0.952 . S
C303 N298 1.332 . S
C303 C299 1.382 . S
C303 H305 0.948 . S
H304 C302 0.952 . S
H305 C303 0.948 . S
H306 C295 0.952 . S
H307 C297 0.948 . S
C308 C274 1.395 . S
C308 C278 1.391 1_565 S
C309 C271 1.389 . S
C309 C291 1.392 . S
C310 C281 1.392 . S
C310 C283 1.389 . S
C311 C286 1.395 . S
C311 C288 1.391 1_545 S
H312 C272 0.951 . S
H313 C273 0.950 . S
H314 C279 0.949 . S
H315 C280 0.950 . S
H316 C284 0.951 . S
H317 C285 0.950 . S
H318 C289 0.949 . S
H319 C290 0.950 . S
H320 C294 0.950 . S
H321 C296 0.950 . S
H322 C299 0.950 . S
H323 C301 0.950 . S
C324 C325 1.443 . S
C324 N328 1.376 . S
C324 C362 1.389 . S
C325 C324 1.443 . S
C325 C326 1.340 . S
C325 H365 0.951 . S
C326 C325 1.340 . S
C326 C327 1.439 . S
C326 H366 0.950 . S
C327 C326 1.439 . S
C327 N328 1.374 . S
C327 C361 1.395 1_554 S
N328 C324 1.376 . S
N328 C327 1.374 . S
N328 Co329 2.010 . S
Co329 N328 2.010 . S
Co329 N330 1.992 1_554 S
Co329 N335 2.006 1_554 S
Co329 N340 1.997 . S
Co329 N345 2.286 . S
Co329 N351 2.279 1_554 S
N330 Co329 1.992 1_556 S
N330 C331 1.376 . S
N330 C334 1.383 . S
C331 N330 1.376 . S
C331 C332 1.446 . S
C331 C361 1.391 . S
C332 C331 1.446 . S
C332 C333 1.339 . S
C332 H367 0.949 . S
C333 C332 1.339 . S
C333 C334 1.439 . S
C333 H368 0.950 . S
C334 N330 1.383 . S
C334 C333 1.439 . S
C334 C363 1.392 . S
N335 Co329 2.006 1_556 S
N335 C336 1.376 . S
N335 C339 1.374 . S
C336 N335 1.376 . S
C336 C337 1.443 . S
C336 C363 1.389 . S
C337 C336 1.443 . S
C337 C338 1.340 . S
C337 H369 0.951 . S
C338 C337 1.340 . S
C338 C339 1.439 . S
C338 H370 0.950 . S
C339 N335 1.374 . S
C339 C338 1.439 . S
C339 C364 1.395 1_556 S
N340 Co329 1.997 . S
N340 C341 1.376 . S
N340 C344 1.383 . S
C341 N340 1.376 . S
C341 C342 1.446 . S
C341 C364 1.391 . S
C342 C341 1.446 . S
C342 C343 1.339 . S
C342 H371 0.949 . S
C343 C342 1.339 . S
C343 C344 1.439 . S
C343 H372 0.950 . S
C344 N340 1.383 . S
C344 C343 1.439 . S
C344 C362 1.392 . S
N345 Co329 2.286 . S
N345 C348 1.332 . S
N345 C350 1.332 . S
C346 C347 1.386 . S
C346 C349 1.388 . S
C347 C346 1.386 . S
C347 C348 1.382 . S
C347 H373 0.950 . S
C348 N345 1.332 . S
C348 C347 1.382 . S
C348 H359 0.952 . S
C349 C346 1.388 . S
C349 C350 1.382 . S
C349 H374 0.950 . S
C350 N345 1.332 . S
C350 C349 1.382 . S
C350 H360 0.948 . S
N351 Co329 2.279 1_556 S
N351 C355 1.332 . S
N351 C356 1.332 . S
C352 C353 1.388 . S
C352 C356 1.382 . S
C352 H375 0.950 . S
C353 C352 1.388 . S
C353 C354 1.386 . S
C354 C353 1.386 . S
C354 C355 1.382 . S
C354 H376 0.950 . S
C355 N351 1.332 . S
C355 C354 1.382 . S
C355 H357 0.952 . S
C356 N351 1.332 . S
C356 C352 1.382 . S
C356 H358 0.948 . S
H357 C355 0.952 . S
H358 C356 0.948 . S
H359 C348 0.952 . S
H360 C350 0.948 . S
C361 C327 1.395 1_556 S
C361 C331 1.391 . S
C362 C324 1.389 . S
C362 C344 1.392 . S
C363 C334 1.392 . S
C363 C336 1.389 . S
C364 C339 1.395 1_554 S
C364 C341 1.391 . S
H365 C325 0.951 . S
H366 C326 0.950 . S
H367 C332 0.949 . S
H368 C333 0.950 . S
H369 C337 0.951 . S
H370 C338 0.950 . S
H371 C342 0.949 . S
H372 C343 0.950 . S
H373 C347 0.950 . S
H374 C349 0.950 . S
H375 C352 0.950 . S
H376 C354 0.950 . S
C377 C378 1.443 . S
C377 N381 1.376 . S
C377 C415 1.389 . S
C378 C377 1.443 . S
C378 C379 1.340 . S
C378 H418 0.951 . S
C379 C378 1.340 . S
C379 C380 1.439 . S
C379 H419 0.950 . S
C380 C379 1.439 . S
C380 N381 1.374 . S
C380 C414 1.395 1_554 S
N381 C377 1.376 . S
N381 C380 1.374 . S
N381 Co382 2.008 . S
Co382 N381 2.008 . S
Co382 N383 1.995 1_554 S
Co382 N388 2.008 1_554 S
Co382 N393 1.995 . S
Co382 N398 2.282 . S
Co382 N404 2.282 1_554 S
N383 Co382 1.995 1_556 S
N383 C384 1.376 . S
N383 C387 1.383 . S
C384 N383 1.376 . S
C384 C385 1.446 . S
C384 C414 1.391 . S
C385 C384 1.446 . S
C385 C386 1.339 . S
C385 H420 0.949 . S
C386 C385 1.339 . S
C386 C387 1.439 . S
C386 H421 0.950 . S
C387 N383 1.383 . S
C387 C386 1.439 . S
C387 C416 1.392 . S
N388 Co382 2.008 1_556 S
N388 C389 1.376 . S
N388 C392 1.374 . S
C389 N388 1.376 . S
C389 C390 1.443 . S
C389 C416 1.389 . S
C390 C389 1.443 . S
C390 C391 1.340 . S
C390 H422 0.951 . S
C391 C390 1.340 . S
C391 C392 1.441 . S
C391 H423 0.950 . S
C392 N388 1.374 . S
C392 C391 1.441 . S
C392 C417 1.393 1_556 S
N393 Co382 1.995 . S
N393 C394 1.376 . S
N393 C397 1.383 . S
C394 N393 1.376 . S
C394 C395 1.446 . S
C394 C417 1.391 . S
C395 C394 1.446 . S
C395 C396 1.339 . S
C395 H424 0.949 . S
C396 C395 1.339 . S
C396 C397 1.439 . S
C396 H425 0.950 . S
C397 N393 1.383 . S
C397 C396 1.439 . S
C397 C415 1.392 . S
N398 Co382 2.282 . S
N398 C401 1.332 . S
N398 C403 1.332 . S
C399 C400 1.386 . S
C399 C402 1.388 . S
C400 C399 1.386 . S
C400 C401 1.382 . S
C400 H426 0.950 . S
C401 N398 1.332 . S
C401 C400 1.382 . S
C401 H412 0.952 . S
C402 C399 1.388 . S
C402 C403 1.382 . S
C402 H427 0.950 . S
C403 N398 1.332 . S
C403 C402 1.382 . S
C403 H413 0.948 . S
N404 Co382 2.282 1_556 S
N404 C408 1.332 . S
N404 C409 1.332 . S
C405 C406 1.388 . S
C405 C409 1.382 . S
C405 H428 0.950 . S
C406 C405 1.388 . S
C406 C407 1.386 . S
C407 C406 1.386 . S
C407 C408 1.382 . S
C407 H429 0.950 . S
C408 N404 1.332 . S
C408 C407 1.382 . S
C408 H410 0.952 . S
C409 N404 1.332 . S
C409 C405 1.382 . S
C409 H411 0.948 . S
H410 C408 0.952 . S
H411 C409 0.948 . S
H412 C401 0.952 . S
H413 C403 0.948 . S
C414 C380 1.395 1_556 S
C414 C384 1.391 . S
C415 C377 1.389 . S
C415 C397 1.392 . S
C416 C387 1.392 . S
C416 C389 1.389 . S
C417 C392 1.393 1_554 S
C417 C394 1.391 . S
H418 C378 0.951 . S
H419 C379 0.950 . S
H420 C385 0.949 . S
H421 C386 0.950 . S
H422 C390 0.951 . S
H423 C391 0.950 . S
H424 C395 0.949 . S
H425 C396 0.950 . S
H426 C400 0.950 . S
H427 C402 0.950 . S
H428 C405 0.950 . S
H429 C407 0.950 . S
C430 C431 1.443 . S
C430 N434 1.369 1_556 S
C430 C468 1.389 . S
C431 C430 1.443 . S
C431 C432 1.340 . S
C431 H471 0.951 . S
C432 C431 1.340 . S
C432 C433 1.439 1_556 S
C432 H472 0.950 . S
C433 C432 1.439 1_554 S
C433 N434 1.377 . S
C433 C467 1.395 . S
N434 C430 1.369 1_554 S
N434 C433 1.377 . S
N434 Co435 2.014 . S
Co435 N434 2.014 . S
Co435 N436 1.995 . S
Co435 N441 2.008 . S
Co435 N446 1.995 1_554 S
Co435 N451 2.282 1_554 S
Co435 N457 2.282 . S
N436 Co435 1.995 . S
N436 C437 1.376 . S
N436 C440 1.383 . S
C437 N436 1.376 . S
C437 C438 1.446 . S
C437 C467 1.391 . S
C438 C437 1.446 . S
C438 C439 1.339 . S
C438 H473 0.949 . S
C439 C438 1.339 . S
C439 C440 1.439 . S
C439 H474 0.950 . S
C440 N436 1.383 . S
C440 C439 1.439 . S
C440 C469 1.392 . S
N441 Co435 2.008 . S
N441 C442 1.376 . S
N441 C445 1.374 . S
C442 N441 1.376 . S
C442 C443 1.443 . S
C442 C469 1.389 . S
C443 C442 1.443 . S
C443 C444 1.340 . S
C443 H475 0.951 . S
C444 C443 1.340 . S
C444 C445 1.439 . S
C444 H476 0.950 . S
C445 N441 1.374 . S
C445 C444 1.439 . S
C445 C470 1.395 . S
N446 Co435 1.995 1_556 S
N446 C447 1.376 . S
N446 C450 1.383 . S
C447 N446 1.376 . S
C447 C448 1.446 . S
C447 C470 1.391 1_556 S
C448 C447 1.446 . S
C448 C449 1.339 . S
C448 H477 0.949 . S
C449 C448 1.339 . S
C449 C450 1.439 . S
C449 H478 0.950 . S
C450 N446 1.383 . S
C450 C449 1.439 . S
C450 C468 1.392 . S
N451 Co435 2.282 1_556 S
N451 C454 1.332 . S
N451 C456 1.332 . S
C452 C453 1.386 . S
C452 C455 1.388 . S
C453 C452 1.386 . S
C453 C454 1.382 . S
C453 H479 0.950 . S
C454 N451 1.332 . S
C454 C453 1.382 . S
C454 H465 0.952 . S
C455 C452 1.388 . S
C455 C456 1.382 . S
C455 H480 0.950 . S
C456 N451 1.332 . S
C456 C455 1.382 . S
C456 H466 0.948 . S
N457 Co435 2.282 . S
N457 C461 1.332 . S
N457 C462 1.332 . S
C458 C459 1.388 . S
C458 C462 1.382 . S
C458 H481 0.950 . S
C459 C458 1.388 . S
C459 C460 1.386 . S
C460 C459 1.386 . S
C460 C461 1.382 . S
C460 H482 0.950 . S
C461 N457 1.332 . S
C461 C460 1.382 . S
C461 H463 0.952 . S
C462 N457 1.332 . S
C462 C458 1.382 . S
C462 H464 0.948 . S
H463 C461 0.952 . S
H464 C462 0.948 . S
H465 C454 0.952 . S
H466 C456 0.948 . S
C467 C433 1.395 . S
C467 C437 1.391 . S
C468 C430 1.389 . S
C468 C450 1.392 . S
C469 C440 1.392 . S
C469 C442 1.389 . S
C470 C445 1.395 . S
C470 C447 1.391 1_554 S
H471 C431 0.951 . S
H472 C432 0.950 . S
H473 C438 0.949 . S
H474 C439 0.950 . S
H475 C443 0.951 . S
H476 C444 0.950 . S
H477 C448 0.949 . S
H478 C449 0.950 . S
H479 C453 0.950 . S
H480 C455 0.950 . S
H481 C458 0.950 . S
H482 C460 0.950 . S
C483 C484 1.443 . S
C483 N487 1.376 . S
C483 C521 1.389 . S
C484 C483 1.443 . S
C484 C485 1.340 . S
C484 H524 0.951 . S
C485 C484 1.340 . S
C485 C486 1.439 . S
C485 H525 0.950 . S
C486 C485 1.439 . S
C486 N487 1.374 . S
C486 C520 1.395 1_554 S
N487 C483 1.376 . S
N487 C486 1.374 . S
N487 Co488 2.008 . S
Co488 N487 2.008 . S
Co488 N489 1.995 1_554 S
Co488 N494 2.008 1_554 S
Co488 N499 1.995 . S
Co488 N504 2.282 . S
Co488 N510 2.282 1_554 S
N489 Co488 1.995 1_556 S
N489 C490 1.376 . S
N489 C493 1.383 . S
C490 N489 1.376 . S
C490 C491 1.446 . S
C490 C520 1.391 . S
C491 C490 1.446 . S
C491 C492 1.339 . S
C491 H526 0.949 . S
C492 C491 1.339 . S
C492 C493 1.439 . S
C492 H527 0.950 . S
C493 N489 1.383 . S
C493 C492 1.439 . S
C493 C522 1.392 . S
N494 Co488 2.008 1_556 S
N494 C495 1.376 . S
N494 C498 1.374 1_556 S
C495 N494 1.376 . S
C495 C496 1.443 . S
C495 C522 1.389 . S
C496 C495 1.443 . S
C496 C497 1.340 . S
C496 H528 0.951 . S
C497 C496 1.340 . S
C497 C498 1.439 1_556 S
C497 H529 0.950 . S
C498 N494 1.374 1_554 S
C498 C497 1.439 1_554 S
C498 C523 1.395 . S
N499 Co488 1.995 . S
N499 C500 1.376 . S
N499 C503 1.383 . S
C500 N499 1.376 . S
C500 C501 1.446 . S
C500 C523 1.391 . S
C501 C500 1.446 . S
C501 C502 1.339 . S
C501 H530 0.949 . S
C502 C501 1.339 . S
C502 C503 1.439 . S
C502 H531 0.950 . S
C503 N499 1.383 . S
C503 C502 1.439 . S
C503 C521 1.392 . S
N504 Co488 2.282 . S
N504 C507 1.332 . S
N504 C509 1.332 . S
C505 C506 1.386 . S
C505 C508 1.388 . S
C506 C505 1.386 . S
C506 C507 1.382 . S
C506 H532 0.950 . S
C507 N504 1.332 . S
C507 C506 1.382 . S
C507 H518 0.952 . S
C508 C505 1.388 . S
C508 C509 1.382 . S
C508 H533 0.950 . S
C509 N504 1.332 . S
C509 C508 1.382 . S
C509 H519 0.948 . S
N510 Co488 2.282 1_556 S
N510 C514 1.332 . S
N510 C515 1.332 . S
C511 C512 1.388 . S
C511 C515 1.382 . S
C511 H534 0.950 . S
C512 C511 1.388 . S
C512 C513 1.386 . S
C513 C512 1.386 . S
C513 C514 1.382 . S
C513 H535 0.950 . S
C514 N510 1.332 . S
C514 C513 1.382 . S
C514 H516 0.952 . S
C515 N510 1.332 . S
C515 C511 1.382 . S
C515 H517 0.948 . S
H516 C514 0.952 . S
H517 C515 0.948 . S
H518 C507 0.952 . S
H519 C509 0.948 . S
C520 C486 1.395 1_556 S
C520 C490 1.391 . S
C521 C483 1.389 . S
C521 C503 1.392 . S
C522 C493 1.392 . S
C522 C495 1.389 . S
C523 C498 1.395 . S
C523 C500 1.391 . S
H524 C484 0.951 . S
H525 C485 0.950 . S
H526 C491 0.949 . S
H527 C492 0.950 . S
H528 C496 0.951 . S
H529 C497 0.950 . S
H530 C501 0.949 . S
H531 C502 0.950 . S
H532 C506 0.950 . S
H533 C508 0.950 . S
H534 C511 0.950 . S
H535 C513 0.950 . S
H536 C554 0.951 . S
H537 C556 0.951 . S
H538 C558 0.950 . S
H539 C559 0.950 . S
H540 C561 0.950 . S
H541 C564 0.950 . S
H542 C565 0.950 . S
H543 C567 0.950 . S
H544 C568 0.950 . S
H545 C569 0.951 . S
H546 C571 0.951 . S
H547 C573 0.950 . S
H548 C574 0.950 . S
H549 C576 0.950 . S
H550 C579 0.950 . S
H551 C580 0.950 . S
H552 C582 0.950 . S
H553 C583 0.950 . S
C554 H536 0.951 . S
C554 C555 1.366 . S
C554 C556 1.388 . S
C555 C554 1.366 . S
C555 C559 1.385 . S
C556 H537 0.951 . S
C556 C554 1.388 . S
C556 C557 1.366 . S
C557 C556 1.366 . S
C557 C558 1.414 . S
C557 C560 1.499 . S
C558 H538 0.950 . S
C558 C557 1.414 . S
C558 C559 1.374 . S
C559 H539 0.950 . S
C559 C555 1.385 . S
C559 C558 1.374 . S
C560 C557 1.499 . S
C560 C561 1.373 . S
C560 C562 1.389 . S
C561 H540 0.950 . S
C561 C560 1.373 . S
C561 C577 1.377 . S
C562 C560 1.389 . S
C562 C563 1.524 . S
C562 C576 1.377 . S
C563 C562 1.524 . S
C563 C564 1.397 . S
C563 C568 1.363 . S
C564 H541 0.950 . S
C564 C563 1.397 . S
C564 C565 1.334 . S
C565 H542 0.950 . S
C565 C564 1.334 . S
C565 C566 1.287 . S
C566 C565 1.287 . S
C566 C567 1.524 . S
C566 H585 0.913 . S
C567 H543 0.950 . S
C567 C566 1.524 . S
C567 C568 1.415 . S
C568 H544 0.950 . S
C568 C563 1.363 . S
C568 C567 1.415 . S
C569 H545 0.951 . S
C569 C570 1.366 . S
C569 C571 1.388 . S
C570 C569 1.366 . S
C570 C574 1.385 . S
C571 H546 0.951 . S
C571 C569 1.388 . S
C571 C572 1.366 . S
C572 C571 1.366 . S
C572 C573 1.414 . S
C572 C575 1.499 . S
C573 H547 0.950 . S
C573 C572 1.414 . S
C573 C574 1.374 . S
C574 H548 0.950 . S
C574 C570 1.385 . S
C574 C573 1.374 . S
C575 C572 1.499 . S
C575 C576 1.373 . S
C575 C577 1.389 . S
C576 H549 0.950 . S
C576 C562 1.377 . S
C576 C575 1.373 . S
C577 C561 1.377 . S
C577 C575 1.389 . S
C577 C578 1.524 . S
C578 C577 1.524 . S
C578 C579 1.397 . S
C578 C583 1.363 . S
C579 H550 0.950 . S
C579 C578 1.397 . S
C579 C580 1.334 . S
C580 H551 0.950 . S
C580 C579 1.334 . S
C580 C581 1.287 . S
C581 C580 1.287 . S
C581 C582 1.524 . S
C581 H584 0.999 . S
C582 H552 0.950 . S
C582 C581 1.524 . S
C582 C583 1.415 . S
C583 H553 0.950 . S
C583 C578 1.363 . S
C583 C582 1.415 . S
H584 C581 0.999 . S
H585 C566 0.913 . S
H586 C604 0.951 . S
H587 C606 0.951 . S
H588 C608 0.950 . S
H589 C609 0.950 . S
H590 C611 0.950 . S
H591 C614 0.950 . S
H592 C615 0.950 . S
H593 C617 0.950 . S
H594 C618 0.950 . S
H595 C619 0.951 . S
H596 C621 0.951 . S
H597 C623 0.950 . S
H598 C624 0.950 . S
H599 C626 0.950 . S
H600 C629 0.950 . S
H601 C630 0.950 . S
H602 C632 0.950 . S
H603 C633 0.950 . S
C604 H586 0.951 . S
C604 C605 1.366 . S
C604 C606 1.388 . S
C605 C604 1.366 . S
C605 C609 1.385 . S
C606 H587 0.951 . S
C606 C604 1.388 . S
C606 C607 1.366 . S
C607 C606 1.366 . S
C607 C608 1.414 . S
C607 C610 1.499 . S
C608 H588 0.950 . S
C608 C607 1.414 . S
C608 C609 1.374 . S
C609 H589 0.950 . S
C609 C605 1.385 . S
C609 C608 1.374 . S
C610 C607 1.499 . S
C610 C611 1.373 . S
C610 C612 1.389 . S
C611 H590 0.950 . S
C611 C610 1.373 . S
C611 C627 1.377 . S
C612 C610 1.389 . S
C612 C613 1.524 . S
C612 C626 1.377 . S
C613 C612 1.524 . S
C613 C614 1.397 . S
C613 C618 1.363 . S
C614 H591 0.950 . S
C614 C613 1.397 . S
C614 C615 1.334 . S
C615 H592 0.950 . S
C615 C614 1.334 . S
C615 C616 1.287 . S
C616 C615 1.287 . S
C616 C617 1.524 . S
C616 H635 0.913 . S
C617 H593 0.950 . S
C617 C616 1.524 . S
C617 C618 1.415 . S
C618 H594 0.950 . S
C618 C613 1.363 . S
C618 C617 1.415 . S
C619 H595 0.951 . S
C619 C620 1.366 . S
C619 C621 1.388 . S
C620 C619 1.366 . S
C620 C624 1.385 . S
C621 H596 0.951 . S
C621 C619 1.388 . S
C621 C622 1.366 . S
C622 C621 1.366 . S
C622 C623 1.414 . S
C622 C625 1.499 . S
C623 H597 0.950 . S
C623 C622 1.414 . S
C623 C624 1.374 . S
C624 H598 0.950 . S
C624 C620 1.385 . S
C624 C623 1.374 . S
C625 C622 1.499 . S
C625 C626 1.373 . S
C625 C627 1.389 . S
C626 H599 0.950 . S
C626 C612 1.377 . S
C626 C625 1.373 . S
C627 C611 1.377 . S
C627 C625 1.389 . S
C627 C628 1.524 . S
C628 C627 1.524 . S
C628 C629 1.397 . S
C628 C633 1.363 . S
C629 H600 0.950 . S
C629 C628 1.397 . S
C629 C630 1.334 . S
C630 H601 0.950 . S
C630 C629 1.334 . S
C630 C631 1.287 . S
C631 C630 1.287 . S
C631 C632 1.524 . S
C631 H634 0.999 . S
C632 H602 0.950 . S
C632 C631 1.524 . S
C632 C633 1.415 . S
C633 H603 0.950 . S
C633 C628 1.363 . S
C633 C632 1.415 . S
H634 C631 0.999 . S
H635 C616 0.913 . S
H636 C654 0.951 . S
H637 C656 0.951 . S
H638 C658 0.950 . S
H639 C659 0.950 . S
H640 C661 0.950 . S
H641 C664 0.950 . S
H642 C665 0.950 . S
H643 C667 0.950 . S
H644 C668 0.950 . S
H645 C669 0.951 . S
H646 C671 0.951 . S
H647 C673 0.950 . S
H648 C674 0.950 . S
H649 C676 0.950 . S
H650 C679 0.950 . S
H651 C680 0.950 . S
H652 C682 0.950 . S
H653 C683 0.950 . S
C654 H636 0.951 . S
C654 C655 1.366 . S
C654 C656 1.388 . S
C655 C654 1.366 . S
C655 C659 1.385 . S
C656 H637 0.951 . S
C656 C654 1.388 . S
C656 C657 1.366 . S
C657 C656 1.366 . S
C657 C658 1.414 . S
C657 C660 1.499 . S
C658 H638 0.950 . S
C658 C657 1.414 . S
C658 C659 1.374 . S
C659 H639 0.950 . S
C659 C655 1.385 . S
C659 C658 1.374 . S
C660 C657 1.499 . S
C660 C661 1.373 . S
C660 C662 1.389 . S
C661 H640 0.950 . S
C661 C660 1.373 . S
C661 C677 1.377 . S
C662 C660 1.389 . S
C662 C663 1.524 . S
C662 C676 1.377 . S
C663 C662 1.524 . S
C663 C664 1.397 . S
C663 C668 1.363 . S
C664 H641 0.950 . S
C664 C663 1.397 . S
C664 C665 1.334 . S
C665 H642 0.950 . S
C665 C664 1.334 . S
C665 C666 1.287 . S
C666 C665 1.287 . S
C666 C667 1.524 . S
C666 H685 0.913 . S
C667 H643 0.950 . S
C667 C666 1.524 . S
C667 C668 1.415 . S
C668 H644 0.950 . S
C668 C663 1.363 . S
C668 C667 1.415 . S
C669 H645 0.951 . S
C669 C670 1.366 . S
C669 C671 1.388 . S
C670 C669 1.366 . S
C670 C674 1.385 . S
C671 H646 0.951 . S
C671 C669 1.388 . S
C671 C672 1.366 . S
C672 C671 1.366 . S
C672 C673 1.414 . S
C672 C675 1.499 . S
C673 H647 0.950 . S
C673 C672 1.414 . S
C673 C674 1.374 . S
C674 H648 0.950 . S
C674 C670 1.385 . S
C674 C673 1.374 . S
C675 C672 1.499 . S
C675 C676 1.373 . S
C675 C677 1.389 . S
C676 H649 0.950 . S
C676 C662 1.377 . S
C676 C675 1.373 . S
C677 C661 1.377 . S
C677 C675 1.389 . S
C677 C678 1.524 . S
C678 C677 1.524 . S
C678 C679 1.397 . S
C678 C683 1.363 . S
C679 H650 0.950 . S
C679 C678 1.397 . S
C679 C680 1.334 . S
C680 H651 0.950 . S
C680 C679 1.334 . S
C680 C681 1.287 . S
C681 C680 1.287 . S
C681 C682 1.524 . S
C681 H684 0.999 . S
C682 H652 0.950 . S
C682 C681 1.524 . S
C682 C683 1.415 . S
C683 H653 0.950 . S
C683 C678 1.363 . S
C683 C682 1.415 . S
H684 C681 0.999 . S
H685 C666 0.913 . S
H686 C704 0.951 . S
H687 C706 0.951 . S
H688 C708 0.950 . S
H689 C709 0.950 . S
H690 C711 0.950 . S
H691 C714 0.950 . S
H692 C715 0.950 . S
H693 C717 0.950 . S
H694 C718 0.950 . S
H695 C719 0.951 . S
H696 C721 0.951 . S
H697 C723 0.950 . S
H698 C724 0.950 . S
H699 C726 0.950 . S
H700 C729 0.950 . S
H701 C730 0.950 . S
H702 C732 0.950 . S
H703 C733 0.950 . S
C704 H686 0.951 . S
C704 C705 1.366 . S
C704 C706 1.388 . S
C705 C704 1.366 . S
C705 C709 1.385 . S
C706 H687 0.951 . S
C706 C704 1.388 . S
C706 C707 1.366 . S
C707 C706 1.366 . S
C707 C708 1.414 . S
C707 C710 1.499 . S
C708 H688 0.950 . S
C708 C707 1.414 . S
C708 C709 1.374 . S
C709 H689 0.950 . S
C709 C705 1.385 . S
C709 C708 1.374 . S
C710 C707 1.499 . S
C710 C711 1.373 . S
C710 C712 1.389 . S
C711 H690 0.950 . S
C711 C710 1.373 . S
C711 C727 1.377 . S
C712 C710 1.389 . S
C712 C713 1.524 . S
C712 C726 1.377 . S
C713 C712 1.524 . S
C713 C714 1.397 . S
C713 C718 1.363 . S
C714 H691 0.950 . S
C714 C713 1.397 . S
C714 C715 1.334 . S
C715 H692 0.950 . S
C715 C714 1.334 . S
C715 C716 1.287 . S
C716 C715 1.287 . S
C716 C717 1.524 . S
C716 H735 0.913 . S
C717 H693 0.950 . S
C717 C716 1.524 . S
C717 C718 1.415 . S
C718 H694 0.950 . S
C718 C713 1.363 . S
C718 C717 1.415 . S
C719 H695 0.951 . S
C719 C720 1.366 . S
C719 C721 1.388 . S
C720 C719 1.366 . S
C720 C724 1.385 . S
C721 H696 0.951 . S
C721 C719 1.388 . S
C721 C722 1.366 . S
C722 C721 1.366 . S
C722 C723 1.414 . S
C722 C725 1.499 . S
C723 H697 0.950 . S
C723 C722 1.414 . S
C723 C724 1.374 . S
C724 H698 0.950 . S
C724 C720 1.385 . S
C724 C723 1.374 . S
C725 C722 1.499 . S
C725 C726 1.373 . S
C725 C727 1.389 . S
C726 H699 0.950 . S
C726 C712 1.377 . S
C726 C725 1.373 . S
C727 C711 1.377 . S
C727 C725 1.389 . S
C727 C728 1.524 . S
C728 C727 1.524 . S
C728 C729 1.397 . S
C728 C733 1.363 . S
C729 H700 0.950 . S
C729 C728 1.397 . S
C729 C730 1.334 . S
C730 H701 0.950 . S
C730 C729 1.334 . S
C730 C731 1.287 . S
C731 C730 1.287 . S
C731 C732 1.524 . S
C731 H734 0.999 . S
C732 H702 0.950 . S
C732 C731 1.524 . S
C732 C733 1.415 . S
C733 H703 0.950 . S
C733 C728 1.363 . S
C733 C732 1.415 . S
H734 C731 0.999 . S
H735 C716 0.913 . S
H736 C754 0.951 . S
H737 C756 0.951 . S
H738 C758 0.950 . S
H739 C759 0.950 . S
H740 C761 0.950 . S
H741 C764 0.950 . S
H742 C765 0.950 . S
H743 C767 0.950 . S
H744 C768 0.950 . S
H745 C769 0.951 . S
H746 C771 0.951 . S
H747 C773 0.950 . S
H748 C774 0.950 . S
H749 C776 0.950 . S
H750 C779 0.950 . S
H751 C780 0.950 . S
H752 C782 0.950 . S
H753 C783 0.950 . S
C754 H736 0.951 . S
C754 C755 1.366 . S
C754 C756 1.388 . S
C755 C754 1.366 . S
C755 C759 1.385 . S
C756 H737 0.951 . S
C756 C754 1.388 . S
C756 C757 1.366 . S
C757 C756 1.366 . S
C757 C758 1.414 . S
C757 C760 1.499 . S
C758 H738 0.950 . S
C758 C757 1.414 . S
C758 C759 1.374 . S
C759 H739 0.950 . S
C759 C755 1.385 . S
C759 C758 1.374 . S
C760 C757 1.499 . S
C760 C761 1.373 . S
C760 C762 1.389 . S
C761 H740 0.950 . S
C761 C760 1.373 . S
C761 C777 1.377 . S
C762 C760 1.389 . S
C762 C763 1.524 . S
C762 C776 1.377 . S
C763 C762 1.524 . S
C763 C764 1.397 . S
C763 C768 1.363 . S
C764 H741 0.950 . S
C764 C763 1.397 . S
C764 C765 1.334 . S
C765 H742 0.950 . S
C765 C764 1.334 . S
C765 C766 1.287 . S
C766 C765 1.287 . S
C766 C767 1.524 . S
C766 H785 0.913 . S
C767 H743 0.950 . S
C767 C766 1.524 . S
C767 C768 1.415 . S
C768 H744 0.950 . S
C768 C763 1.363 . S
C768 C767 1.415 . S
C769 H745 0.951 . S
C769 C770 1.366 . S
C769 C771 1.388 . S
C770 C769 1.366 . S
C770 C774 1.385 . S
C771 H746 0.951 . S
C771 C769 1.388 . S
C771 C772 1.366 . S
C772 C771 1.366 . S
C772 C773 1.414 . S
C772 C775 1.499 . S
C773 H747 0.950 . S
C773 C772 1.414 . S
C773 C774 1.374 . S
C774 H748 0.950 . S
C774 C770 1.385 . S
C774 C773 1.374 . S
C775 C772 1.499 . S
C775 C776 1.373 . S
C775 C777 1.389 . S
C776 H749 0.950 . S
C776 C762 1.377 . S
C776 C775 1.373 . S
C777 C761 1.377 . S
C777 C775 1.389 . S
C777 C778 1.524 . S
C778 C777 1.524 . S
C778 C779 1.397 . S
C778 C783 1.363 . S
C779 H750 0.950 . S
C779 C778 1.397 . S
C779 C780 1.334 . S
C780 H751 0.950 . S
C780 C779 1.334 . S
C780 C781 1.287 . S
C781 C780 1.287 . S
C781 C782 1.524 . S
C781 H784 0.999 . S
C782 H752 0.950 . S
C782 C781 1.524 . S
C782 C783 1.415 . S
C783 H753 0.950 . S
C783 C778 1.363 . S
C783 C782 1.415 . S
H784 C781 0.999 . S
H785 C766 0.913 . S
H786 C804 0.951 . S
H787 C806 0.951 . S
H788 C808 0.950 . S
H789 C809 0.950 . S
H790 C811 0.950 . S
H791 C814 0.950 . S
H792 C815 0.950 . S
H793 C817 0.950 . S
H794 C818 0.950 . S
H795 C819 0.951 . S
H796 C821 0.951 . S
H797 C823 0.950 . S
H798 C824 0.950 . S
H799 C826 0.950 . S
H800 C829 0.950 . S
H801 C830 0.950 . S
H802 C832 0.950 . S
H803 C833 0.950 . S
C804 H786 0.951 . S
C804 C805 1.366 . S
C804 C806 1.388 . S
C805 C804 1.366 . S
C805 C809 1.385 . S
C806 H787 0.951 . S
C806 C804 1.388 . S
C806 C807 1.366 . S
C807 C806 1.366 . S
C807 C808 1.414 . S
C807 C810 1.499 . S
C808 H788 0.950 . S
C808 C807 1.414 . S
C808 C809 1.374 . S
C809 H789 0.950 . S
C809 C805 1.385 . S
C809 C808 1.374 . S
C810 C807 1.499 . S
C810 C811 1.373 . S
C810 C812 1.389 . S
C811 H790 0.950 . S
C811 C810 1.373 . S
C811 C827 1.377 . S
C812 C810 1.389 . S
C812 C813 1.524 . S
C812 C826 1.377 . S
C813 C812 1.524 . S
C813 C814 1.397 . S
C813 C818 1.363 . S
C814 H791 0.950 . S
C814 C813 1.397 . S
C814 C815 1.334 . S
C815 H792 0.950 . S
C815 C814 1.334 . S
C815 C816 1.287 . S
C816 C815 1.287 . S
C816 C817 1.524 . S
C816 H835 0.913 . S
C817 H793 0.950 . S
C817 C816 1.524 . S
C817 C818 1.415 . S
C818 H794 0.950 . S
C818 C813 1.363 . S
C818 C817 1.415 . S
C819 H795 0.951 . S
C819 C820 1.366 . S
C819 C821 1.388 . S
C820 C819 1.366 . S
C820 C824 1.385 . S
C821 H796 0.951 . S
C821 C819 1.388 . S
C821 C822 1.366 . S
C822 C821 1.366 . S
C822 C823 1.414 . S
C822 C825 1.499 . S
C823 H797 0.950 . S
C823 C822 1.414 . S
C823 C824 1.374 . S
C824 H798 0.950 . S
C824 C820 1.385 . S
C824 C823 1.374 . S
C825 C822 1.499 . S
C825 C826 1.373 . S
C825 C827 1.389 . S
C826 H799 0.950 . S
C826 C812 1.377 . S
C826 C825 1.373 . S
C827 C811 1.377 . S
C827 C825 1.389 . S
C827 C828 1.524 . S
C828 C827 1.524 . S
C828 C829 1.397 . S
C828 C833 1.363 . S
C829 H800 0.950 . S
C829 C828 1.397 . S
C829 C830 1.334 . S
C830 H801 0.950 . S
C830 C829 1.334 . S
C830 C831 1.287 . S
C831 C830 1.287 . S
C831 C832 1.524 . S
C831 H834 0.999 . S
C832 H802 0.950 . S
C832 C831 1.524 . S
C832 C833 1.415 . S
C833 H803 0.950 . S
C833 C828 1.363 . S
C833 C832 1.415 . S
H834 C831 0.999 . S
H835 C816 0.913 . S
H836 C854 0.951 . S
H837 C856 0.951 . S
H838 C858 0.950 . S
H839 C859 0.950 . S
H840 C861 0.950 . S
H841 C864 0.950 . S
H842 C865 0.950 . S
H843 C867 0.950 . S
H844 C868 0.950 . S
H845 C869 0.951 . S
H846 C871 0.951 . S
H847 C873 0.950 . S
H848 C874 0.950 . S
H849 C876 0.950 . S
H850 C879 0.950 . S
H851 C880 0.950 . S
H852 C882 0.950 . S
H853 C883 0.950 . S
C854 H836 0.951 . S
C854 C855 1.366 . S
C854 C856 1.388 . S
C855 C854 1.366 . S
C855 C859 1.385 . S
C856 H837 0.951 . S
C856 C854 1.388 . S
C856 C857 1.366 . S
C857 C856 1.366 . S
C857 C858 1.414 . S
C857 C860 1.499 . S
C858 H838 0.950 . S
C858 C857 1.414 . S
C858 C859 1.374 . S
C859 H839 0.950 . S
C859 C855 1.385 . S
C859 C858 1.374 . S
C860 C857 1.499 . S
C860 C861 1.373 . S
C860 C862 1.389 . S
C861 H840 0.950 . S
C861 C860 1.373 . S
C861 C877 1.377 . S
C862 C860 1.389 . S
C862 C863 1.524 . S
C862 C876 1.377 . S
C863 C862 1.524 . S
C863 C864 1.397 . S
C863 C868 1.363 . S
C864 H841 0.950 . S
C864 C863 1.397 . S
C864 C865 1.334 . S
C865 H842 0.950 . S
C865 C864 1.334 . S
C865 C866 1.287 . S
C866 C865 1.287 . S
C866 C867 1.524 . S
C866 H885 0.913 . S
C867 H843 0.950 . S
C867 C866 1.524 . S
C867 C868 1.415 . S
C868 H844 0.950 . S
C868 C863 1.363 . S
C868 C867 1.415 . S
C869 H845 0.951 . S
C869 C870 1.366 . S
C869 C871 1.388 . S
C870 C869 1.366 . S
C870 C874 1.385 . S
C871 H846 0.951 . S
C871 C869 1.388 . S
C871 C872 1.366 . S
C872 C871 1.366 . S
C872 C873 1.414 . S
C872 C875 1.499 . S
C873 H847 0.950 . S
C873 C872 1.414 . S
C873 C874 1.374 . S
C874 H848 0.950 . S
C874 C870 1.385 . S
C874 C873 1.374 . S
C875 C872 1.499 . S
C875 C876 1.373 . S
C875 C877 1.389 . S
C876 H849 0.950 . S
C876 C862 1.377 . S
C876 C875 1.373 . S
C877 C861 1.377 . S
C877 C875 1.389 . S
C877 C878 1.524 . S
C878 C877 1.524 . S
C878 C879 1.397 . S
C878 C883 1.363 . S
C879 H850 0.950 . S
C879 C878 1.397 . S
C879 C880 1.334 . S
C880 H851 0.950 . S
C880 C879 1.334 . S
C880 C881 1.287 . S
C881 C880 1.287 . S
C881 C882 1.524 . S
C881 H884 0.999 . S
C882 H852 0.950 . S
C882 C881 1.524 . S
C882 C883 1.415 . S
C883 H853 0.950 . S
C883 C878 1.363 . S
C883 C882 1.415 . S
H884 C881 0.999 . S
H885 C866 0.913 . S
H886 C904 0.951 . S
H887 C906 0.951 . S
H888 C908 0.950 . S
H889 C909 0.950 . S
H890 C911 0.950 . S
H891 C914 0.950 . S
H892 C915 0.950 . S
H893 C917 0.950 . S
H894 C918 0.950 . S
H895 C919 0.951 . S
H896 C921 0.951 . S
H897 C923 0.950 . S
H898 C924 0.950 . S
H899 C926 0.950 . S
H900 C929 0.950 . S
H901 C930 0.950 . S
H902 C932 0.950 . S
H903 C933 0.950 . S
C904 H886 0.951 . S
C904 C905 1.366 . S
C904 C906 1.388 . S
C905 C904 1.366 . S
C905 C909 1.385 . S
C906 H887 0.951 . S
C906 C904 1.388 . S
C906 C907 1.366 . S
C907 C906 1.366 . S
C907 C908 1.414 . S
C907 C910 1.499 . S
C908 H888 0.950 . S
C908 C907 1.414 . S
C908 C909 1.374 . S
C909 H889 0.950 . S
C909 C905 1.385 . S
C909 C908 1.374 . S
C910 C907 1.499 . S
C910 C911 1.373 . S
C910 C912 1.389 . S
C911 H890 0.950 . S
C911 C910 1.373 . S
C911 C927 1.377 . S
C912 C910 1.389 . S
C912 C913 1.524 . S
C912 C926 1.377 . S
C913 C912 1.524 . S
C913 C914 1.397 . S
C913 C918 1.363 . S
C914 H891 0.950 . S
C914 C913 1.397 . S
C914 C915 1.334 . S
C915 H892 0.950 . S
C915 C914 1.334 . S
C915 C916 1.287 . S
C916 C915 1.287 . S
C916 C917 1.524 . S
C916 H935 0.913 . S
C917 H893 0.950 . S
C917 C916 1.524 . S
C917 C918 1.415 . S
C918 H894 0.950 . S
C918 C913 1.363 . S
C918 C917 1.415 . S
C919 H895 0.951 . S
C919 C920 1.366 . S
C919 C921 1.388 . S
C920 C919 1.366 . S
C920 C924 1.385 . S
C921 H896 0.951 . S
C921 C919 1.388 . S
C921 C922 1.366 . S
C922 C921 1.366 . S
C922 C923 1.414 . S
C922 C925 1.499 . S
C923 H897 0.950 . S
C923 C922 1.414 . S
C923 C924 1.374 . S
C924 H898 0.950 . S
C924 C920 1.385 . S
C924 C923 1.374 . S
C925 C922 1.499 . S
C925 C926 1.373 . S
C925 C927 1.389 . S
C926 H899 0.950 . S
C926 C912 1.377 . S
C926 C925 1.373 . S
C927 C911 1.377 . S
C927 C925 1.389 . S
C927 C928 1.524 . S
C928 C927 1.524 . S
C928 C929 1.397 . S
C928 C933 1.363 . S
C929 H900 0.950 . S
C929 C928 1.397 . S
C929 C930 1.334 . S
C930 H901 0.950 . S
C930 C929 1.334 . S
C930 C931 1.287 . S
C931 C930 1.287 . S
C931 C932 1.524 . S
C931 H934 0.999 . S
C932 H902 0.950 . S
C932 C931 1.524 . S
C932 C933 1.415 . S
C933 H903 0.950 . S
C933 C928 1.363 . S
C933 C932 1.415 . S
H934 C931 0.999 . S
H935 C916 0.913 . S
H936 C954 0.951 . S
H937 C956 0.951 . S
H938 C958 0.950 . S
H939 C959 0.950 . S
H940 C961 0.950 . S
H941 C964 0.950 . S
H942 C965 0.950 . S
H943 C967 0.950 . S
H944 C968 0.950 . S
H945 C969 0.951 . S
H946 C971 0.951 . S
H947 C973 0.950 . S
H948 C974 0.950 . S
H949 C976 0.950 . S
H950 C979 0.950 . S
H951 C980 0.950 . S
H952 C982 0.950 . S
H953 C983 0.950 . S
C954 H936 0.951 . S
C954 C955 1.366 . S
C954 C956 1.388 . S
C955 C954 1.366 . S
C955 C959 1.385 . S
C956 H937 0.951 . S
C956 C954 1.388 . S
C956 C957 1.366 . S
C957 C956 1.366 . S
C957 C958 1.414 . S
C957 C960 1.499 . S
C958 H938 0.950 . S
C958 C957 1.414 . S
C958 C959 1.374 . S
C959 H939 0.950 . S
C959 C955 1.385 . S
C959 C958 1.374 . S
C960 C957 1.499 . S
C960 C961 1.373 . S
C960 C962 1.389 . S
C961 H940 0.950 . S
C961 C960 1.373 . S
C961 C977 1.377 . S
C962 C960 1.389 . S
C962 C963 1.524 . S
C962 C976 1.377 . S
C963 C962 1.524 . S
C963 C964 1.397 . S
C963 C968 1.363 . S
C964 H941 0.950 . S
C964 C963 1.397 . S
C964 C965 1.334 . S
C965 H942 0.950 . S
C965 C964 1.334 . S
C965 C966 1.287 . S
C966 C965 1.287 . S
C966 C967 1.524 . S
C966 H985 0.913 . S
C967 H943 0.950 . S
C967 C966 1.524 . S
C967 C968 1.415 . S
C968 H944 0.950 . S
C968 C963 1.363 . S
C968 C967 1.415 . S
C969 H945 0.951 . S
C969 C970 1.366 . S
C969 C971 1.388 . S
C970 C969 1.366 . S
C970 C974 1.385 . S
C971 H946 0.951 . S
C971 C969 1.388 . S
C971 C972 1.366 . S
C972 C971 1.366 . S
C972 C973 1.414 . S
C972 C975 1.499 . S
C973 H947 0.950 . S
C973 C972 1.414 . S
C973 C974 1.374 . S
C974 H948 0.950 . S
C974 C970 1.385 . S
C974 C973 1.374 . S
C975 C972 1.499 . S
C975 C976 1.373 . S
C975 C977 1.389 . S
C976 H949 0.950 . S
C976 C962 1.377 . S
C976 C975 1.373 . S
C977 C961 1.377 . S
C977 C975 1.389 . S
C977 C978 1.524 . S
C978 C977 1.524 . S
C978 C979 1.397 . S
C978 C983 1.363 . S
C979 H950 0.950 . S
C979 C978 1.397 . S
C979 C980 1.334 . S
C980 H951 0.950 . S
C980 C979 1.334 . S
C980 C981 1.287 . S
C981 C980 1.287 . S
C981 C982 1.524 . S
C981 H984 0.999 . S
C982 H952 0.950 . S
C982 C981 1.524 . S
C982 C983 1.415 . S
C983 H953 0.950 . S
C983 C978 1.363 . S
C983 C982 1.415 . S
H984 C981 0.999 . S
H985 C966 0.913 . S
H986 C1004 0.951 . S
H987 C1006 0.951 . S
H988 C1008 0.950 . S
H989 C1009 0.950 . S
H990 C1011 0.950 . S
H991 C1014 0.950 . S
H992 C1015 0.950 . S
H993 C1017 0.950 . S
H994 C1018 0.950 . S
H995 C1019 0.951 . S
H996 C1021 0.951 . S
H997 C1023 0.950 . S
H998 C1024 0.950 . S
H999 C1026 0.950 . S
H1000 C1029 0.950 . S
H1001 C1030 0.950 . S
H1002 C1032 0.950 . S
H1003 C1033 0.950 . S
C1004 H986 0.951 . S
C1004 C1005 1.366 . S
C1004 C1006 1.388 . S
C1005 C1004 1.366 . S
C1005 C1009 1.385 . S
C1006 H987 0.951 . S
C1006 C1004 1.388 . S
C1006 C1007 1.366 . S
C1007 C1006 1.366 . S
C1007 C1008 1.414 . S
C1007 C1010 1.499 . S
C1008 H988 0.950 . S
C1008 C1007 1.414 . S
C1008 C1009 1.374 . S
C1009 H989 0.950 . S
C1009 C1005 1.385 . S
C1009 C1008 1.374 . S
C1010 C1007 1.499 . S
C1010 C1011 1.373 . S
C1010 C1012 1.389 . S
C1011 H990 0.950 . S
C1011 C1010 1.373 . S
C1011 C1027 1.377 . S
C1012 C1010 1.389 . S
C1012 C1013 1.524 . S
C1012 C1026 1.377 . S
C1013 C1012 1.524 . S
C1013 C1014 1.397 . S
C1013 C1018 1.363 . S
C1014 H991 0.950 . S
C1014 C1013 1.397 . S
C1014 C1015 1.334 . S
C1015 H992 0.950 . S
C1015 C1014 1.334 . S
C1015 C1016 1.287 . S
C1016 C1015 1.287 . S
C1016 C1017 1.524 . S
C1016 H1035 0.913 . S
C1017 H993 0.950 . S
C1017 C1016 1.524 . S
C1017 C1018 1.415 . S
C1018 H994 0.950 . S
C1018 C1013 1.363 . S
C1018 C1017 1.415 . S
C1019 H995 0.951 . S
C1019 C1020 1.366 . S
C1019 C1021 1.388 . S
C1020 C1019 1.366 . S
C1020 C1024 1.385 . S
C1021 H996 0.951 . S
C1021 C1019 1.388 . S
C1021 C1022 1.366 . S
C1022 C1021 1.366 . S
C1022 C1023 1.414 . S
C1022 C1025 1.499 . S
C1023 H997 0.950 . S
C1023 C1022 1.414 . S
C1023 C1024 1.374 . S
C1024 H998 0.950 . S
C1024 C1020 1.385 . S
C1024 C1023 1.374 . S
C1025 C1022 1.499 . S
C1025 C1026 1.373 . S
C1025 C1027 1.389 . S
C1026 H999 0.950 . S
C1026 C1012 1.377 . S
C1026 C1025 1.373 . S
C1027 C1011 1.377 . S
C1027 C1025 1.389 . S
C1027 C1028 1.524 . S
C1028 C1027 1.524 . S
C1028 C1029 1.397 . S
C1028 C1033 1.363 . S
C1029 H1000 0.950 . S
C1029 C1028 1.397 . S
C1029 C1030 1.334 . S
C1030 H1001 0.950 . S
C1030 C1029 1.334 . S
C1030 C1031 1.287 . S
C1031 C1030 1.287 . S
C1031 C1032 1.524 . S
C1031 H1034 0.999 . S
C1032 H1002 0.950 . S
C1032 C1031 1.524 . S
C1032 C1033 1.415 . S
C1033 H1003 0.950 . S
C1033 C1028 1.363 . S
C1033 C1032 1.415 . S
H1034 C1031 0.999 . S
H1035 C1016 0.913 . S
H1036 C1054 0.951 . S
H1037 C1056 0.951 . S
H1038 C1058 0.950 . S
H1039 C1059 0.950 . S
H1040 C1061 0.950 . S
H1041 C1064 0.950 . S
H1042 C1065 0.950 . S
H1043 C1067 0.950 . S
H1044 C1068 0.950 . S
H1045 C1069 0.951 . S
H1046 C1071 0.951 . S
H1047 C1073 0.950 . S
H1048 C1074 0.950 . S
H1049 C1076 0.950 . S
H1050 C1079 0.950 . S
H1051 C1080 0.950 . S
H1052 C1082 0.950 . S
H1053 C1083 0.950 . S
C1054 H1036 0.951 . S
C1054 C1055 1.366 . S
C1054 C1056 1.388 . S
C1055 C1054 1.366 . S
C1055 C1059 1.385 . S
C1056 H1037 0.951 . S
C1056 C1054 1.388 . S
C1056 C1057 1.366 . S
C1057 C1056 1.366 . S
C1057 C1058 1.414 . S
C1057 C1060 1.499 . S
C1058 H1038 0.950 . S
C1058 C1057 1.414 . S
C1058 C1059 1.374 . S
C1059 H1039 0.950 . S
C1059 C1055 1.385 . S
C1059 C1058 1.374 . S
C1060 C1057 1.499 . S
C1060 C1061 1.373 . S
C1060 C1062 1.389 . S
C1061 H1040 0.950 . S
C1061 C1060 1.373 . S
C1061 C1077 1.377 . S
C1062 C1060 1.389 . S
C1062 C1063 1.524 . S
C1062 C1076 1.377 . S
C1063 C1062 1.524 . S
C1063 C1064 1.397 . S
C1063 C1068 1.363 . S
C1064 H1041 0.950 . S
C1064 C1063 1.397 . S
C1064 C1065 1.334 . S
C1065 H1042 0.950 . S
C1065 C1064 1.334 . S
C1065 C1066 1.287 . S
C1066 C1065 1.287 . S
C1066 C1067 1.524 . S
C1066 H1085 0.913 . S
C1067 H1043 0.950 . S
C1067 C1066 1.524 . S
C1067 C1068 1.415 . S
C1068 H1044 0.950 . S
C1068 C1063 1.363 . S
C1068 C1067 1.415 . S
C1069 H1045 0.951 . S
C1069 C1070 1.366 . S
C1069 C1071 1.388 . S
C1070 C1069 1.366 . S
C1070 C1074 1.385 . S
C1071 H1046 0.951 . S
C1071 C1069 1.388 . S
C1071 C1072 1.366 . S
C1072 C1071 1.366 . S
C1072 C1073 1.414 . S
C1072 C1075 1.499 . S
C1073 H1047 0.950 . S
C1073 C1072 1.414 . S
C1073 C1074 1.374 . S
C1074 H1048 0.950 . S
C1074 C1070 1.385 . S
C1074 C1073 1.374 . S
C1075 C1072 1.499 . S
C1075 C1076 1.373 . S
C1075 C1077 1.389 . S
C1076 H1049 0.950 . S
C1076 C1062 1.377 . S
C1076 C1075 1.373 . S
C1077 C1061 1.377 . S
C1077 C1075 1.389 . S
C1077 C1078 1.524 . S
C1078 C1077 1.524 . S
C1078 C1079 1.397 . S
C1078 C1083 1.363 . S
C1079 H1050 0.950 . S
C1079 C1078 1.397 . S
C1079 C1080 1.334 . S
C1080 H1051 0.950 . S
C1080 C1079 1.334 . S
C1080 C1081 1.287 . S
C1081 C1080 1.287 . S
C1081 C1082 1.524 . S
C1081 H1084 0.999 . S
C1082 H1052 0.950 . S
C1082 C1081 1.524 . S
C1082 C1083 1.415 . S
C1083 H1053 0.950 . S
C1083 C1078 1.363 . S
C1083 C1082 1.415 . S
H1084 C1081 0.999 . S
H1085 C1066 0.913 . S
H1086 C1104 0.951 . S
H1087 C1106 0.951 . S
H1088 C1108 0.950 . S
H1089 C1109 0.950 . S
H1090 C1111 0.950 . S
H1091 C1114 0.950 . S
H1092 C1115 0.950 . S
H1093 C1117 0.950 . S
H1094 C1118 0.950 . S
H1095 C1119 0.951 . S
H1096 C1121 0.951 . S
H1097 C1123 0.950 . S
H1098 C1124 0.950 . S
H1099 C1126 0.950 . S
H1100 C1129 0.950 . S
H1101 C1130 0.950 . S
H1102 C1132 0.950 . S
H1103 C1133 0.950 . S
C1104 H1086 0.951 . S
C1104 C1105 1.366 . S
C1104 C1106 1.388 . S
C1105 C1104 1.366 . S
C1105 C1109 1.385 . S
C1106 H1087 0.951 . S
C1106 C1104 1.388 . S
C1106 C1107 1.366 . S
C1107 C1106 1.366 . S
C1107 C1108 1.414 . S
C1107 C1110 1.499 . S
C1108 H1088 0.950 . S
C1108 C1107 1.414 . S
C1108 C1109 1.374 . S
C1109 H1089 0.950 . S
C1109 C1105 1.385 . S
C1109 C1108 1.374 . S
C1110 C1107 1.499 . S
C1110 C1111 1.373 . S
C1110 C1112 1.389 . S
C1111 H1090 0.950 . S
C1111 C1110 1.373 . S
C1111 C1127 1.377 . S
C1112 C1110 1.389 . S
C1112 C1113 1.524 . S
C1112 C1126 1.377 . S
C1113 C1112 1.524 . S
C1113 C1114 1.397 . S
C1113 C1118 1.363 . S
C1114 H1091 0.950 . S
C1114 C1113 1.397 . S
C1114 C1115 1.334 . S
C1115 H1092 0.950 . S
C1115 C1114 1.334 . S
C1115 C1116 1.287 . S
C1116 C1115 1.287 . S
C1116 C1117 1.524 . S
C1116 H1135 0.913 . S
C1117 H1093 0.950 . S
C1117 C1116 1.524 . S
C1117 C1118 1.415 . S
C1118 H1094 0.950 . S
C1118 C1113 1.363 . S
C1118 C1117 1.415 . S
C1119 H1095 0.951 . S
C1119 C1120 1.366 . S
C1119 C1121 1.388 . S
C1120 C1119 1.366 . S
C1120 C1124 1.385 . S
C1121 H1096 0.951 . S
C1121 C1119 1.388 . S
C1121 C1122 1.366 . S
C1122 C1121 1.366 . S
C1122 C1123 1.414 . S
C1122 C1125 1.499 . S
C1123 H1097 0.950 . S
C1123 C1122 1.414 . S
C1123 C1124 1.374 . S
C1124 H1098 0.950 . S
C1124 C1120 1.385 . S
C1124 C1123 1.374 . S
C1125 C1122 1.499 . S
C1125 C1126 1.373 . S
C1125 C1127 1.389 . S
C1126 H1099 0.950 . S
C1126 C1112 1.377 . S
C1126 C1125 1.373 . S
C1127 C1111 1.377 . S
C1127 C1125 1.389 . S
C1127 C1128 1.524 . S
C1128 C1127 1.524 . S
C1128 C1129 1.397 . S
C1128 C1133 1.363 . S
C1129 H1100 0.950 . S
C1129 C1128 1.397 . S
C1129 C1130 1.334 . S
C1130 H1101 0.950 . S
C1130 C1129 1.334 . S
C1130 C1131 1.287 . S
C1131 C1130 1.287 . S
C1131 C1132 1.524 . S
C1131 H1134 0.999 . S
C1132 H1102 0.950 . S
C1132 C1131 1.524 . S
C1132 C1133 1.415 . S
C1133 H1103 0.950 . S
C1133 C1128 1.363 . S
C1133 C1132 1.415 . S
H1134 C1131 0.999 . S
H1135 C1116 0.913 . S
H1136 C1154 0.951 . S
H1137 C1156 0.951 . S
H1138 C1158 0.950 . S
H1139 C1159 0.950 . S
H1140 C1161 0.950 . S
H1141 C1164 0.950 . S
H1142 C1165 0.950 . S
H1143 C1167 0.950 . S
H1144 C1168 0.950 . S
H1145 C1169 0.951 . S
H1146 C1171 0.951 . S
H1147 C1173 0.950 . S
H1148 C1174 0.950 . S
H1149 C1176 0.950 . S
H1150 C1179 0.950 . S
H1151 C1180 0.950 . S
H1152 C1182 0.950 . S
H1153 C1183 0.950 . S
C1154 H1136 0.951 . S
C1154 C1155 1.366 . S
C1154 C1156 1.388 . S
C1155 C1154 1.366 . S
C1155 C1159 1.385 . S
C1156 H1137 0.951 . S
C1156 C1154 1.388 . S
C1156 C1157 1.366 . S
C1157 C1156 1.366 . S
C1157 C1158 1.414 . S
C1157 C1160 1.499 . S
C1158 H1138 0.950 . S
C1158 C1157 1.414 . S
C1158 C1159 1.374 . S
C1159 H1139 0.950 . S
C1159 C1155 1.385 . S
C1159 C1158 1.374 . S
C1160 C1157 1.499 . S
C1160 C1161 1.373 . S
C1160 C1162 1.389 . S
C1161 H1140 0.950 . S
C1161 C1160 1.373 . S
C1161 C1177 1.377 . S
C1162 C1160 1.389 . S
C1162 C1163 1.524 . S
C1162 C1176 1.377 . S
C1163 C1162 1.524 . S
C1163 C1164 1.397 . S
C1163 C1168 1.363 . S
C1164 H1141 0.950 . S
C1164 C1163 1.397 . S
C1164 C1165 1.334 . S
C1165 H1142 0.950 . S
C1165 C1164 1.334 . S
C1165 C1166 1.287 . S
C1166 C1165 1.287 . S
C1166 C1167 1.524 . S
C1166 H1185 0.913 . S
C1167 H1143 0.950 . S
C1167 C1166 1.524 . S
C1167 C1168 1.415 . S
C1168 H1144 0.950 . S
C1168 C1163 1.363 . S
C1168 C1167 1.415 . S
C1169 H1145 0.951 . S
C1169 C1170 1.366 . S
C1169 C1171 1.388 . S
C1170 C1169 1.366 . S
C1170 C1174 1.385 . S
C1171 H1146 0.951 . S
C1171 C1169 1.388 . S
C1171 C1172 1.366 . S
C1172 C1171 1.366 . S
C1172 C1173 1.414 . S
C1172 C1175 1.499 . S
C1173 H1147 0.950 . S
C1173 C1172 1.414 . S
C1173 C1174 1.374 . S
C1174 H1148 0.950 . S
C1174 C1170 1.385 . S
C1174 C1173 1.374 . S
C1175 C1172 1.499 . S
C1175 C1176 1.373 . S
C1175 C1177 1.389 . S
C1176 H1149 0.950 . S
C1176 C1162 1.377 . S
C1176 C1175 1.373 . S
C1177 C1161 1.377 . S
C1177 C1175 1.389 . S
C1177 C1178 1.524 . S
C1178 C1177 1.524 . S
C1178 C1179 1.397 . S
C1178 C1183 1.363 . S
C1179 H1150 0.950 . S
C1179 C1178 1.397 . S
C1179 C1180 1.334 . S
C1180 H1151 0.950 . S
C1180 C1179 1.334 . S
C1180 C1181 1.287 . S
C1181 C1180 1.287 . S
C1181 C1182 1.524 . S
C1181 H1184 0.999 . S
C1182 H1152 0.950 . S
C1182 C1181 1.524 . S
C1182 C1183 1.415 . S
C1183 H1153 0.950 . S
C1183 C1178 1.363 . S
C1183 C1182 1.415 . S
H1184 C1181 0.999 . S
H1185 C1166 0.913 . S
H1186 C1204 0.951 . S
H1187 C1206 0.951 . S
H1188 C1208 0.950 . S
H1189 C1209 0.950 . S
H1190 C1211 0.950 . S
H1191 C1214 0.950 . S
H1192 C1215 0.950 . S
H1193 C1217 0.950 . S
H1194 C1218 0.950 . S
H1195 C1219 0.951 . S
H1196 C1221 0.951 . S
H1197 C1223 0.950 . S
H1198 C1224 0.950 . S
H1199 C1226 0.950 . S
H1200 C1229 0.950 . S
H1201 C1230 0.950 . S
H1202 C1232 0.950 . S
H1203 C1233 0.950 . S
C1204 H1186 0.951 . S
C1204 C1205 1.366 . S
C1204 C1206 1.388 . S
C1205 C1204 1.366 . S
C1205 C1209 1.385 . S
C1206 H1187 0.951 . S
C1206 C1204 1.388 . S
C1206 C1207 1.366 . S
C1207 C1206 1.366 . S
C1207 C1208 1.414 . S
C1207 C1210 1.499 . S
C1208 H1188 0.950 . S
C1208 C1207 1.414 . S
C1208 C1209 1.374 . S
C1209 H1189 0.950 . S
C1209 C1205 1.385 . S
C1209 C1208 1.374 . S
C1210 C1207 1.499 . S
C1210 C1211 1.373 . S
C1210 C1212 1.389 . S
C1211 H1190 0.950 . S
C1211 C1210 1.373 . S
C1211 C1227 1.377 . S
C1212 C1210 1.389 . S
C1212 C1213 1.524 . S
C1212 C1226 1.377 . S
C1213 C1212 1.524 . S
C1213 C1214 1.397 . S
C1213 C1218 1.363 . S
C1214 H1191 0.950 . S
C1214 C1213 1.397 . S
C1214 C1215 1.334 . S
C1215 H1192 0.950 . S
C1215 C1214 1.334 . S
C1215 C1216 1.287 . S
C1216 C1215 1.287 . S
C1216 C1217 1.524 . S
C1216 H1235 0.913 . S
C1217 H1193 0.950 . S
C1217 C1216 1.524 . S
C1217 C1218 1.415 . S
C1218 H1194 0.950 . S
C1218 C1213 1.363 . S
C1218 C1217 1.415 . S
C1219 H1195 0.951 . S
C1219 C1220 1.366 . S
C1219 C1221 1.388 . S
C1220 C1219 1.366 . S
C1220 C1224 1.385 . S
C1221 H1196 0.951 . S
C1221 C1219 1.388 . S
C1221 C1222 1.366 . S
C1222 C1221 1.366 . S
C1222 C1223 1.414 . S
C1222 C1225 1.499 . S
C1223 H1197 0.950 . S
C1223 C1222 1.414 . S
C1223 C1224 1.374 . S
C1224 H1198 0.950 . S
C1224 C1220 1.385 . S
C1224 C1223 1.374 . S
C1225 C1222 1.499 . S
C1225 C1226 1.373 . S
C1225 C1227 1.389 . S
C1226 H1199 0.950 . S
C1226 C1212 1.377 . S
C1226 C1225 1.373 . S
C1227 C1211 1.377 . S
C1227 C1225 1.389 . S
C1227 C1228 1.524 . S
C1228 C1227 1.524 . S
C1228 C1229 1.397 . S
C1228 C1233 1.363 . S
C1229 H1200 0.950 . S
C1229 C1228 1.397 . S
C1229 C1230 1.334 . S
C1230 H1201 0.950 . S
C1230 C1229 1.334 . S
C1230 C1231 1.287 . S
C1231 C1230 1.287 . S
C1231 C1232 1.524 . S
C1231 H1234 0.999 . S
C1232 H1202 0.950 . S
C1232 C1231 1.524 . S
C1232 C1233 1.415 . S
C1233 H1203 0.950 . S
C1233 C1228 1.363 . S
C1233 C1232 1.415 . S
H1234 C1231 0.999 . S
H1235 C1216 0.913 . S
H1236 C1254 0.951 . S
H1237 C1256 0.951 . S
H1238 C1258 0.950 . S
H1239 C1259 0.950 . S
H1240 C1261 0.950 . S
H1241 C1264 0.950 . S
H1242 C1265 0.950 . S
H1243 C1267 0.950 . S
H1244 C1268 0.950 . S
H1245 C1269 0.951 . S
H1246 C1271 0.951 . S
H1247 C1273 0.950 . S
H1248 C1274 0.950 . S
H1249 C1276 0.950 . S
H1250 C1279 0.950 . S
H1251 C1280 0.950 . S
H1252 C1282 0.950 . S
H1253 C1283 0.950 . S
C1254 H1236 0.951 . S
C1254 C1255 1.366 . S
C1254 C1256 1.388 . S
C1255 C1254 1.366 . S
C1255 C1259 1.385 . S
C1256 H1237 0.951 . S
C1256 C1254 1.388 . S
C1256 C1257 1.366 . S
C1257 C1256 1.366 . S
C1257 C1258 1.414 . S
C1257 C1260 1.499 . S
C1258 H1238 0.950 . S
C1258 C1257 1.414 . S
C1258 C1259 1.374 . S
C1259 H1239 0.950 . S
C1259 C1255 1.385 . S
C1259 C1258 1.374 . S
C1260 C1257 1.499 . S
C1260 C1261 1.373 . S
C1260 C1262 1.389 . S
C1261 H1240 0.950 . S
C1261 C1260 1.373 . S
C1261 C1277 1.377 . S
C1262 C1260 1.389 . S
C1262 C1263 1.524 . S
C1262 C1276 1.377 . S
C1263 C1262 1.524 . S
C1263 C1264 1.397 . S
C1263 C1268 1.363 . S
C1264 H1241 0.950 . S
C1264 C1263 1.397 . S
C1264 C1265 1.334 . S
C1265 H1242 0.950 . S
C1265 C1264 1.334 . S
C1265 C1266 1.287 . S
C1266 C1265 1.287 . S
C1266 C1267 1.524 . S
C1266 H1285 0.913 . S
C1267 H1243 0.950 . S
C1267 C1266 1.524 . S
C1267 C1268 1.415 . S
C1268 H1244 0.950 . S
C1268 C1263 1.363 . S
C1268 C1267 1.415 . S
C1269 H1245 0.951 . S
C1269 C1270 1.366 . S
C1269 C1271 1.388 . S
C1270 C1269 1.366 . S
C1270 C1274 1.385 . S
C1271 H1246 0.951 . S
C1271 C1269 1.388 . S
C1271 C1272 1.366 . S
C1272 C1271 1.366 . S
C1272 C1273 1.414 . S
C1272 C1275 1.499 . S
C1273 H1247 0.950 . S
C1273 C1272 1.414 . S
C1273 C1274 1.374 . S
C1274 H1248 0.950 . S
C1274 C1270 1.385 . S
C1274 C1273 1.374 . S
C1275 C1272 1.499 . S
C1275 C1276 1.373 . S
C1275 C1277 1.389 . S
C1276 H1249 0.950 . S
C1276 C1262 1.377 . S
C1276 C1275 1.373 . S
C1277 C1261 1.377 . S
C1277 C1275 1.389 . S
C1277 C1278 1.524 . S
C1278 C1277 1.524 . S
C1278 C1279 1.397 . S
C1278 C1283 1.363 . S
C1279 H1250 0.950 . S
C1279 C1278 1.397 . S
C1279 C1280 1.334 . S
C1280 H1251 0.950 . S
C1280 C1279 1.334 . S
C1280 C1281 1.287 . S
C1281 C1280 1.287 . S
C1281 C1282 1.524 . S
C1281 H1284 0.999 . S
C1282 H1252 0.950 . S
C1282 C1281 1.524 . S
C1282 C1283 1.415 . S
C1283 H1253 0.950 . S
C1283 C1278 1.363 . S
C1283 C1282 1.415 . S
H1284 C1281 0.999 . S
H1285 C1266 0.913 . S
H1286 C1304 0.951 . S
H1287 C1306 0.951 . S
H1288 C1308 0.950 . S
H1289 C1309 0.950 . S
H1290 C1311 0.950 . S
H1291 C1314 0.950 . S
H1292 C1315 0.950 . S
H1293 C1317 0.950 . S
H1294 C1318 0.950 . S
H1295 C1319 0.951 . S
H1296 C1321 0.951 . S
H1297 C1323 0.950 . S
H1298 C1324 0.950 . S
H1299 C1326 0.950 . S
H1300 C1329 0.950 . S
H1301 C1330 0.950 . S
H1302 C1332 0.950 . S
H1303 C1333 0.950 . S
C1304 H1286 0.951 . S
C1304 C1305 1.366 . S
C1304 C1306 1.388 . S
C1305 C1304 1.366 . S
C1305 C1309 1.385 . S
C1306 H1287 0.951 . S
C1306 C1304 1.388 . S
C1306 C1307 1.366 . S
C1307 C1306 1.366 . S
C1307 C1308 1.414 . S
C1307 C1310 1.499 . S
C1308 H1288 0.950 . S
C1308 C1307 1.414 . S
C1308 C1309 1.374 . S
C1309 H1289 0.950 . S
C1309 C1305 1.385 . S
C1309 C1308 1.374 . S
C1310 C1307 1.499 . S
C1310 C1311 1.373 . S
C1310 C1312 1.389 . S
C1311 H1290 0.950 . S
C1311 C1310 1.373 . S
C1311 C1327 1.377 . S
C1312 C1310 1.389 . S
C1312 C1313 1.524 . S
C1312 C1326 1.377 . S
C1313 C1312 1.524 . S
C1313 C1314 1.397 . S
C1313 C1318 1.363 . S
C1314 H1291 0.950 . S
C1314 C1313 1.397 . S
C1314 C1315 1.334 . S
C1315 H1292 0.950 . S
C1315 C1314 1.334 . S
C1315 C1316 1.287 . S
C1316 C1315 1.287 . S
C1316 C1317 1.524 . S
C1316 H1335 0.913 . S
C1317 H1293 0.950 . S
C1317 C1316 1.524 . S
C1317 C1318 1.415 . S
C1318 H1294 0.950 . S
C1318 C1313 1.363 . S
C1318 C1317 1.415 . S
C1319 H1295 0.951 . S
C1319 C1320 1.366 . S
C1319 C1321 1.388 . S
C1320 C1319 1.366 . S
C1320 C1324 1.385 . S
C1321 H1296 0.951 . S
C1321 C1319 1.388 . S
C1321 C1322 1.366 . S
C1322 C1321 1.366 . S
C1322 C1323 1.414 . S
C1322 C1325 1.499 . S
C1323 H1297 0.950 . S
C1323 C1322 1.414 . S
C1323 C1324 1.374 . S
C1324 H1298 0.950 . S
C1324 C1320 1.385 . S
C1324 C1323 1.374 . S
C1325 C1322 1.499 . S
C1325 C1326 1.373 . S
C1325 C1327 1.389 . S
C1326 H1299 0.950 . S
C1326 C1312 1.377 . S
C1326 C1325 1.373 . S
C1327 C1311 1.377 . S
C1327 C1325 1.389 . S
C1327 C1328 1.524 . S
C1328 C1327 1.524 . S
C1328 C1329 1.397 . S
C1328 C1333 1.363 . S
C1329 H1300 0.950 . S
C1329 C1328 1.397 . S
C1329 C1330 1.334 . S
C1330 H1301 0.950 . S
C1330 C1329 1.334 . S
C1330 C1331 1.287 . S
C1331 C1330 1.287 . S
C1331 C1332 1.524 . S
C1331 H1334 0.999 . S
C1332 H1302 0.950 . S
C1332 C1331 1.524 . S
C1332 C1333 1.415 . S
C1333 H1303 0.950 . S
C1333 C1328 1.363 . S
C1333 C1332 1.415 . S
H1334 C1331 0.999 . S
H1335 C1316 0.913 . S
H1336 C1354 0.951 . S
H1337 C1356 0.951 . S
H1338 C1358 0.950 . S
H1339 C1359 0.950 . S
H1340 C1361 0.950 . S
H1341 C1364 0.950 . S
H1342 C1365 0.950 . S
H1343 C1367 0.950 . S
H1344 C1368 0.950 . S
H1345 C1369 0.951 . S
H1346 C1371 0.951 . S
H1347 C1373 0.950 . S
H1348 C1374 0.950 . S
H1349 C1376 0.950 . S
H1350 C1379 0.950 . S
H1351 C1380 0.950 . S
H1352 C1382 0.950 . S
H1353 C1383 0.950 . S
C1354 H1336 0.951 . S
C1354 C1355 1.366 . S
C1354 C1356 1.388 . S
C1355 C1354 1.366 . S
C1355 C1359 1.385 . S
C1356 H1337 0.951 . S
C1356 C1354 1.388 . S
C1356 C1357 1.366 . S
C1357 C1356 1.366 . S
C1357 C1358 1.414 . S
C1357 C1360 1.499 . S
C1358 H1338 0.950 . S
C1358 C1357 1.414 . S
C1358 C1359 1.374 . S
C1359 H1339 0.950 . S
C1359 C1355 1.385 . S
C1359 C1358 1.374 . S
C1360 C1357 1.499 . S
C1360 C1361 1.373 . S
C1360 C1362 1.389 . S
C1361 H1340 0.950 . S
C1361 C1360 1.373 . S
C1361 C1377 1.377 . S
C1362 C1360 1.389 . S
C1362 C1363 1.524 . S
C1362 C1376 1.377 . S
C1363 C1362 1.524 . S
C1363 C1364 1.397 . S
C1363 C1368 1.363 . S
C1364 H1341 0.950 . S
C1364 C1363 1.397 . S
C1364 C1365 1.334 . S
C1365 H1342 0.950 . S
C1365 C1364 1.334 . S
C1365 C1366 1.287 . S
C1366 C1365 1.287 . S
C1366 C1367 1.524 . S
C1366 H1385 0.913 . S
C1367 H1343 0.950 . S
C1367 C1366 1.524 . S
C1367 C1368 1.415 . S
C1368 H1344 0.950 . S
C1368 C1363 1.363 . S
C1368 C1367 1.415 . S
C1369 H1345 0.951 . S
C1369 C1370 1.366 . S
C1369 C1371 1.388 . S
C1370 C1369 1.366 . S
C1370 C1374 1.385 . S
C1371 H1346 0.951 . S
C1371 C1369 1.388 . S
C1371 C1372 1.366 . S
C1372 C1371 1.366 . S
C1372 C1373 1.414 . S
C1372 C1375 1.499 . S
C1373 H1347 0.950 . S
C1373 C1372 1.414 . S
C1373 C1374 1.374 . S
C1374 H1348 0.950 . S
C1374 C1370 1.385 . S
C1374 C1373 1.374 . S
C1375 C1372 1.499 . S
C1375 C1376 1.373 . S
C1375 C1377 1.389 . S
C1376 H1349 0.950 . S
C1376 C1362 1.377 . S
C1376 C1375 1.373 . S
C1377 C1361 1.377 . S
C1377 C1375 1.389 . S
C1377 C1378 1.524 . S
C1378 C1377 1.524 . S
C1378 C1379 1.397 . S
C1378 C1383 1.363 . S
C1379 H1350 0.950 . S
C1379 C1378 1.397 . S
C1379 C1380 1.334 . S
C1380 H1351 0.950 . S
C1380 C1379 1.334 . S
C1380 C1381 1.287 . S
C1381 C1380 1.287 . S
C1381 C1382 1.524 . S
C1381 H1384 0.999 . S
C1382 H1352 0.950 . S
C1382 C1381 1.524 . S
C1382 C1383 1.415 . S
C1383 H1353 0.950 . S
C1383 C1378 1.363 . S
C1383 C1382 1.415 . S
H1384 C1381 0.999 . S
H1385 C1366 0.913 . S
H1386 C1404 0.951 . S
H1387 C1406 0.951 . S
H1388 C1408 0.950 . S
H1389 C1409 0.950 . S
H1390 C1411 0.950 . S
H1391 C1414 0.950 . S
H1392 C1415 0.950 . S
H1393 C1417 0.950 . S
H1394 C1418 0.950 . S
H1395 C1419 0.951 . S
H1396 C1421 0.951 . S
H1397 C1423 0.950 . S
H1398 C1424 0.950 . S
H1399 C1426 0.950 . S
H1400 C1429 0.950 . S
H1401 C1430 0.950 . S
H1402 C1432 0.950 . S
H1403 C1433 0.950 . S
C1404 H1386 0.951 . S
C1404 C1405 1.366 . S
C1404 C1406 1.388 . S
C1405 C1404 1.366 . S
C1405 C1409 1.385 . S
C1406 H1387 0.951 . S
C1406 C1404 1.388 . S
C1406 C1407 1.366 . S
C1407 C1406 1.366 . S
C1407 C1408 1.414 . S
C1407 C1410 1.499 . S
C1408 H1388 0.950 . S
C1408 C1407 1.414 . S
C1408 C1409 1.374 . S
C1409 H1389 0.950 . S
C1409 C1405 1.385 . S
C1409 C1408 1.374 . S
C1410 C1407 1.499 . S
C1410 C1411 1.373 . S
C1410 C1412 1.389 . S
C1411 H1390 0.950 . S
C1411 C1410 1.373 . S
C1411 C1427 1.377 . S
C1412 C1410 1.389 . S
C1412 C1413 1.524 . S
C1412 C1426 1.377 . S
C1413 C1412 1.524 . S
C1413 C1414 1.397 . S
C1413 C1418 1.363 . S
C1414 H1391 0.950 . S
C1414 C1413 1.397 . S
C1414 C1415 1.334 . S
C1415 H1392 0.950 . S
C1415 C1414 1.334 . S
C1415 C1416 1.287 . S
C1416 C1415 1.287 . S
C1416 C1417 1.524 . S
C1416 H1435 0.913 . S
C1417 H1393 0.950 . S
C1417 C1416 1.524 . S
C1417 C1418 1.415 . S
C1418 H1394 0.950 . S
C1418 C1413 1.363 . S
C1418 C1417 1.415 . S
C1419 H1395 0.951 . S
C1419 C1420 1.366 . S
C1419 C1421 1.388 . S
C1420 C1419 1.366 . S
C1420 C1424 1.385 . S
C1421 H1396 0.951 . S
C1421 C1419 1.388 . S
C1421 C1422 1.366 . S
C1422 C1421 1.366 . S
C1422 C1423 1.414 . S
C1422 C1425 1.499 . S
C1423 H1397 0.950 . S
C1423 C1422 1.414 . S
C1423 C1424 1.374 . S
C1424 H1398 0.950 . S
C1424 C1420 1.385 . S
C1424 C1423 1.374 . S
C1425 C1422 1.499 . S
C1425 C1426 1.373 . S
C1425 C1427 1.389 . S
C1426 H1399 0.950 . S
C1426 C1412 1.377 . S
C1426 C1425 1.373 . S
C1427 C1411 1.377 . S
C1427 C1425 1.389 . S
C1427 C1428 1.524 . S
C1428 C1427 1.524 . S
C1428 C1429 1.397 . S
C1428 C1433 1.363 . S
C1429 H1400 0.950 . S
C1429 C1428 1.397 . S
C1429 C1430 1.334 . S
C1430 H1401 0.950 . S
C1430 C1429 1.334 . S
C1430 C1431 1.287 . S
C1431 C1430 1.287 . S
C1431 C1432 1.524 . S
C1431 H1434 0.999 . S
C1432 H1402 0.950 . S
C1432 C1431 1.524 . S
C1432 C1433 1.415 . S
C1433 H1403 0.950 . S
C1433 C1428 1.363 . S
C1433 C1432 1.415 . S
H1434 C1431 0.999 . S
H1435 C1416 0.913 . S
H1436 C1454 0.951 . S
H1437 C1456 0.951 . S
H1438 C1458 0.950 . S
H1439 C1459 0.950 . S
H1440 C1461 0.950 . S
H1441 C1464 0.950 . S
H1442 C1465 0.950 . S
H1443 C1467 0.950 . S
H1444 C1468 0.950 . S
H1445 C1469 0.951 . S
H1446 C1471 0.951 . S
H1447 C1473 0.950 . S
H1448 C1474 0.950 . S
H1449 C1476 0.950 . S
H1450 C1479 0.950 . S
H1451 C1480 0.950 . S
H1452 C1482 0.950 . S
H1453 C1483 0.950 . S
C1454 H1436 0.951 . S
C1454 C1455 1.366 . S
C1454 C1456 1.388 . S
C1455 C1454 1.366 . S
C1455 C1459 1.385 . S
C1456 H1437 0.951 . S
C1456 C1454 1.388 . S
C1456 C1457 1.366 . S
C1457 C1456 1.366 . S
C1457 C1458 1.414 . S
C1457 C1460 1.499 . S
C1458 H1438 0.950 . S
C1458 C1457 1.414 . S
C1458 C1459 1.374 . S
C1459 H1439 0.950 . S
C1459 C1455 1.385 . S
C1459 C1458 1.374 . S
C1460 C1457 1.499 . S
C1460 C1461 1.373 . S
C1460 C1462 1.389 . S
C1461 H1440 0.950 . S
C1461 C1460 1.373 . S
C1461 C1477 1.377 . S
C1462 C1460 1.389 . S
C1462 C1463 1.524 . S
C1462 C1476 1.377 . S
C1463 C1462 1.524 . S
C1463 C1464 1.397 . S
C1463 C1468 1.363 . S
C1464 H1441 0.950 . S
C1464 C1463 1.397 . S
C1464 C1465 1.334 . S
C1465 H1442 0.950 . S
C1465 C1464 1.334 . S
C1465 C1466 1.287 . S
C1466 C1465 1.287 . S
C1466 C1467 1.524 . S
C1466 H1485 0.913 . S
C1467 H1443 0.950 . S
C1467 C1466 1.524 . S
C1467 C1468 1.415 . S
C1468 H1444 0.950 . S
C1468 C1463 1.363 . S
C1468 C1467 1.415 . S
C1469 H1445 0.951 . S
C1469 C1470 1.366 . S
C1469 C1471 1.388 . S
C1470 C1469 1.366 . S
C1470 C1474 1.385 . S
C1471 H1446 0.951 . S
C1471 C1469 1.388 . S
C1471 C1472 1.366 . S
C1472 C1471 1.366 . S
C1472 C1473 1.414 . S
C1472 C1475 1.499 . S
C1473 H1447 0.950 . S
C1473 C1472 1.414 . S
C1473 C1474 1.374 . S
C1474 H1448 0.950 . S
C1474 C1470 1.385 . S
C1474 C1473 1.374 . S
C1475 C1472 1.499 . S
C1475 C1476 1.373 . S
C1475 C1477 1.389 . S
C1476 H1449 0.950 . S
C1476 C1462 1.377 . S
C1476 C1475 1.373 . S
C1477 C1461 1.377 . S
C1477 C1475 1.389 . S
C1477 C1478 1.524 . S
C1478 C1477 1.524 . S
C1478 C1479 1.397 . S
C1478 C1483 1.363 . S
C1479 H1450 0.950 . S
C1479 C1478 1.397 . S
C1479 C1480 1.334 . S
C1480 H1451 0.950 . S
C1480 C1479 1.334 . S
C1480 C1481 1.287 . S
C1481 C1480 1.287 . S
C1481 C1482 1.524 . S
C1481 H1484 0.999 . S
C1482 H1452 0.950 . S
C1482 C1481 1.524 . S
C1482 C1483 1.415 . S
C1483 H1453 0.950 . S
C1483 C1478 1.363 . S
C1483 C1482 1.415 . S
H1484 C1481 0.999 . S
H1485 C1466 0.913 . S
H1486 C1504 0.951 . S
H1487 C1506 0.951 . S
H1488 C1508 0.950 . S
H1489 C1509 0.950 . S
H1490 C1511 0.950 . S
H1491 C1514 0.950 . S
H1492 C1515 0.950 . S
H1493 C1517 0.950 . S
H1494 C1518 0.950 . S
H1495 C1519 0.951 . S
H1496 C1521 0.951 . S
H1497 C1523 0.950 . S
H1498 C1524 0.950 . S
H1499 C1526 0.950 . S
H1500 C1529 0.950 . S
H1501 C1530 0.950 . S
H1502 C1532 0.950 . S
H1503 C1533 0.950 . S
C1504 H1486 0.951 . S
C1504 C1505 1.366 . S
C1504 C1506 1.388 . S
C1505 C1504 1.366 . S
C1505 C1509 1.385 . S
C1506 H1487 0.951 . S
C1506 C1504 1.388 . S
C1506 C1507 1.366 . S
C1507 C1506 1.366 . S
C1507 C1508 1.414 . S
C1507 C1510 1.499 . S
C1508 H1488 0.950 . S
C1508 C1507 1.414 . S
C1508 C1509 1.374 . S
C1509 H1489 0.950 . S
C1509 C1505 1.385 . S
C1509 C1508 1.374 . S
C1510 C1507 1.499 . S
C1510 C1511 1.373 . S
C1510 C1512 1.389 . S
C1511 H1490 0.950 . S
C1511 C1510 1.373 . S
C1511 C1527 1.377 . S
C1512 C1510 1.389 . S
C1512 C1513 1.524 . S
C1512 C1526 1.377 . S
C1513 C1512 1.524 . S
C1513 C1514 1.397 . S
C1513 C1518 1.363 . S
C1514 H1491 0.950 . S
C1514 C1513 1.397 . S
C1514 C1515 1.334 . S
C1515 H1492 0.950 . S
C1515 C1514 1.334 . S
C1515 C1516 1.287 . S
C1516 C1515 1.287 . S
C1516 C1517 1.524 . S
C1516 H1535 0.913 . S
C1517 H1493 0.950 . S
C1517 C1516 1.524 . S
C1517 C1518 1.415 . S
C1518 H1494 0.950 . S
C1518 C1513 1.363 . S
C1518 C1517 1.415 . S
C1519 H1495 0.951 . S
C1519 C1520 1.366 . S
C1519 C1521 1.388 . S
C1520 C1519 1.366 . S
C1520 C1524 1.385 . S
C1521 H1496 0.951 . S
C1521 C1519 1.388 . S
C1521 C1522 1.366 . S
C1522 C1521 1.366 . S
C1522 C1523 1.414 . S
C1522 C1525 1.499 . S
C1523 H1497 0.950 . S
C1523 C1522 1.414 . S
C1523 C1524 1.374 . S
C1524 H1498 0.950 . S
C1524 C1520 1.385 . S
C1524 C1523 1.374 . S
C1525 C1522 1.499 . S
C1525 C1526 1.373 . S
C1525 C1527 1.389 . S
C1526 H1499 0.950 . S
C1526 C1512 1.377 . S
C1526 C1525 1.373 . S
C1527 C1511 1.377 . S
C1527 C1525 1.389 . S
C1527 C1528 1.524 . S
C1528 C1527 1.524 . S
C1528 C1529 1.397 . S
C1528 C1533 1.363 . S
C1529 H1500 0.950 . S
C1529 C1528 1.397 . S
C1529 C1530 1.334 . S
C1530 H1501 0.950 . S
C1530 C1529 1.334 . S
C1530 C1531 1.287 . S
C1531 C1530 1.287 . S
C1531 C1532 1.524 . S
C1531 H1534 0.999 . S
C1532 H1502 0.950 . S
C1532 C1531 1.524 . S
C1532 C1533 1.415 . S
C1533 H1503 0.950 . S
C1533 C1528 1.363 . S
C1533 C1532 1.415 . S
H1534 C1531 0.999 . S
H1535 C1516 0.913 . S
H1536 C1554 0.951 . S
H1537 C1556 0.951 . S
H1538 C1558 0.950 . S
H1539 C1559 0.950 . S
H1540 C1561 0.950 . S
H1541 C1564 0.950 . S
H1542 C1565 0.950 . S
H1543 C1567 0.950 . S
H1544 C1568 0.950 . S
H1545 C1569 0.951 . S
H1546 C1571 0.951 . S
H1547 C1573 0.950 . S
H1548 C1574 0.950 . S
H1549 C1576 0.950 . S
H1550 C1579 0.950 . S
H1551 C1580 0.950 . S
H1552 C1582 0.950 . S
H1553 C1583 0.950 . S
C1554 H1536 0.951 . S
C1554 C1555 1.366 . S
C1554 C1556 1.388 . S
C1555 C1554 1.366 . S
C1555 C1559 1.385 . S
C1556 H1537 0.951 . S
C1556 C1554 1.388 . S
C1556 C1557 1.366 . S
C1557 C1556 1.366 . S
C1557 C1558 1.414 . S
C1557 C1560 1.499 . S
C1558 H1538 0.950 . S
C1558 C1557 1.414 . S
C1558 C1559 1.374 . S
C1559 H1539 0.950 . S
C1559 C1555 1.385 . S
C1559 C1558 1.374 . S
C1560 C1557 1.499 . S
C1560 C1561 1.373 . S
C1560 C1562 1.389 . S
C1561 H1540 0.950 . S
C1561 C1560 1.373 . S
C1561 C1577 1.377 . S
C1562 C1560 1.389 . S
C1562 C1563 1.524 . S
C1562 C1576 1.377 . S
C1563 C1562 1.524 . S
C1563 C1564 1.397 . S
C1563 C1568 1.363 . S
C1564 H1541 0.950 . S
C1564 C1563 1.397 . S
C1564 C1565 1.334 . S
C1565 H1542 0.950 . S
C1565 C1564 1.334 . S
C1565 C1566 1.287 . S
C1566 C1565 1.287 . S
C1566 C1567 1.524 . S
C1566 H1585 0.913 . S
C1567 H1543 0.950 . S
C1567 C1566 1.524 . S
C1567 C1568 1.415 . S
C1568 H1544 0.950 . S
C1568 C1563 1.363 . S
C1568 C1567 1.415 . S
C1569 H1545 0.951 . S
C1569 C1570 1.366 . S
C1569 C1571 1.388 . S
C1570 C1569 1.366 . S
C1570 C1574 1.385 . S
C1571 H1546 0.951 . S
C1571 C1569 1.388 . S
C1571 C1572 1.366 . S
C1572 C1571 1.366 . S
C1572 C1573 1.414 . S
C1572 C1575 1.499 . S
C1573 H1547 0.950 . S
C1573 C1572 1.414 . S
C1573 C1574 1.374 . S
C1574 H1548 0.950 . S
C1574 C1570 1.385 . S
C1574 C1573 1.374 . S
C1575 C1572 1.499 . S
C1575 C1576 1.373 . S
C1575 C1577 1.389 . S
C1576 H1549 0.950 . S
C1576 C1562 1.377 . S
C1576 C1575 1.373 . S
C1577 C1561 1.377 . S
C1577 C1575 1.389 . S
C1577 C1578 1.524 . S
C1578 C1577 1.524 . S
C1578 C1579 1.397 . S
C1578 C1583 1.363 . S
C1579 H1550 0.950 . S
C1579 C1578 1.397 . S
C1579 C1580 1.334 . S
C1580 H1551 0.950 . S
C1580 C1579 1.334 . S
C1580 C1581 1.287 . S
C1581 C1580 1.287 . S
C1581 C1582 1.524 . S
C1581 H1584 0.999 . S
C1582 H1552 0.950 . S
C1582 C1581 1.524 . S
C1582 C1583 1.415 . S
C1583 H1553 0.950 . S
C1583 C1578 1.363 . S
C1583 C1582 1.415 . S
H1584 C1581 0.999 . S
H1585 C1566 0.913 . S
H1586 C1604 0.951 . S
H1587 C1606 0.951 . S
H1588 C1608 0.950 . S
H1589 C1609 0.950 . S
H1590 C1611 0.950 . S
H1591 C1614 0.950 . S
H1592 C1615 0.950 . S
H1593 C1617 0.950 . S
H1594 C1618 0.950 . S
H1595 C1619 0.951 . S
H1596 C1621 0.951 . S
H1597 C1623 0.950 . S
H1598 C1624 0.950 . S
H1599 C1626 0.950 . S
H1600 C1629 0.950 . S
H1601 C1630 0.950 . S
H1602 C1632 0.950 . S
H1603 C1633 0.950 . S
C1604 H1586 0.951 . S
C1604 C1605 1.366 . S
C1604 C1606 1.388 . S
C1605 C1604 1.366 . S
C1605 C1609 1.385 . S
C1606 H1587 0.951 . S
C1606 C1604 1.388 . S
C1606 C1607 1.366 . S
C1607 C1606 1.366 . S
C1607 C1608 1.414 . S
C1607 C1610 1.499 . S
C1608 H1588 0.950 . S
C1608 C1607 1.414 . S
C1608 C1609 1.374 . S
C1609 H1589 0.950 . S
C1609 C1605 1.385 . S
C1609 C1608 1.374 . S
C1610 C1607 1.499 . S
C1610 C1611 1.373 . S
C1610 C1612 1.389 . S
C1611 H1590 0.950 . S
C1611 C1610 1.373 . S
C1611 C1627 1.377 . S
C1612 C1610 1.389 . S
C1612 C1613 1.524 . S
C1612 C1626 1.377 . S
C1613 C1612 1.524 . S
C1613 C1614 1.397 . S
C1613 C1618 1.363 . S
C1614 H1591 0.950 . S
C1614 C1613 1.397 . S
C1614 C1615 1.334 . S
C1615 H1592 0.950 . S
C1615 C1614 1.334 . S
C1615 C1616 1.287 . S
C1616 C1615 1.287 . S
C1616 C1617 1.524 . S
C1616 H1635 0.913 . S
C1617 H1593 0.950 . S
C1617 C1616 1.524 . S
C1617 C1618 1.415 . S
C1618 H1594 0.950 . S
C1618 C1613 1.363 . S
C1618 C1617 1.415 . S
C1619 H1595 0.951 . S
C1619 C1620 1.366 . S
C1619 C1621 1.388 . S
C1620 C1619 1.366 . S
C1620 C1624 1.385 . S
C1621 H1596 0.951 . S
C1621 C1619 1.388 . S
C1621 C1622 1.366 . S
C1622 C1621 1.366 . S
C1622 C1623 1.414 . S
C1622 C1625 1.499 . S
C1623 H1597 0.950 . S
C1623 C1622 1.414 . S
C1623 C1624 1.374 . S
C1624 H1598 0.950 . S
C1624 C1620 1.385 . S
C1624 C1623 1.374 . S
C1625 C1622 1.499 . S
C1625 C1626 1.373 . S
C1625 C1627 1.389 . S
C1626 H1599 0.950 . S
C1626 C1612 1.377 . S
C1626 C1625 1.373 . S
C1627 C1611 1.377 . S
C1627 C1625 1.389 . S
C1627 C1628 1.524 . S
C1628 C1627 1.524 . S
C1628 C1629 1.397 . S
C1628 C1633 1.363 . S
C1629 H1600 0.950 . S
C1629 C1628 1.397 . S
C1629 C1630 1.334 . S
C1630 H1601 0.950 . S
C1630 C1629 1.334 . S
C1630 C1631 1.287 . S
C1631 C1630 1.287 . S
C1631 C1632 1.524 . S
C1631 H1634 0.999 . S
C1632 H1602 0.950 . S
C1632 C1631 1.524 . S
C1632 C1633 1.415 . S
C1633 H1603 0.950 . S
C1633 C1628 1.363 . S
C1633 C1632 1.415 . S
H1634 C1631 0.999 . S
H1635 C1616 0.913 . S
H1636 C1654 0.951 . S
H1637 C1656 0.951 . S
H1638 C1658 0.950 . S
H1639 C1659 0.950 . S
H1640 C1661 0.950 . S
H1641 C1664 0.950 . S
H1642 C1665 0.950 . S
H1643 C1667 0.950 . S
H1644 C1668 0.950 . S
H1645 C1669 0.951 . S
H1646 C1671 0.951 . S
H1647 C1673 0.950 . S
H1648 C1674 0.950 . S
H1649 C1676 0.950 . S
H1650 C1679 0.950 . S
H1651 C1680 0.950 . S
H1652 C1682 0.950 . S
H1653 C1683 0.950 . S
C1654 H1636 0.951 . S
C1654 C1655 1.366 . S
C1654 C1656 1.388 . S
C1655 C1654 1.366 . S
C1655 C1659 1.385 . S
C1656 H1637 0.951 . S
C1656 C1654 1.388 . S
C1656 C1657 1.366 . S
C1657 C1656 1.366 . S
C1657 C1658 1.414 . S
C1657 C1660 1.499 . S
C1658 H1638 0.950 . S
C1658 C1657 1.414 . S
C1658 C1659 1.374 . S
C1659 H1639 0.950 . S
C1659 C1655 1.385 . S
C1659 C1658 1.374 . S
C1660 C1657 1.499 . S
C1660 C1661 1.373 . S
C1660 C1662 1.389 . S
C1661 H1640 0.950 . S
C1661 C1660 1.373 . S
C1661 C1677 1.377 . S
C1662 C1660 1.389 . S
C1662 C1663 1.524 . S
C1662 C1676 1.377 . S
C1663 C1662 1.524 . S
C1663 C1664 1.397 . S
C1663 C1668 1.363 . S
C1664 H1641 0.950 . S
C1664 C1663 1.397 . S
C1664 C1665 1.334 . S
C1665 H1642 0.950 . S
C1665 C1664 1.334 . S
C1665 C1666 1.287 . S
C1666 C1665 1.287 . S
C1666 C1667 1.524 . S
C1666 H1685 0.913 . S
C1667 H1643 0.950 . S
C1667 C1666 1.524 . S
C1667 C1668 1.415 . S
C1668 H1644 0.950 . S
C1668 C1663 1.363 . S
C1668 C1667 1.415 . S
C1669 H1645 0.951 . S
C1669 C1670 1.366 . S
C1669 C1671 1.388 . S
C1670 C1669 1.366 . S
C1670 C1674 1.385 . S
C1671 H1646 0.951 . S
C1671 C1669 1.388 . S
C1671 C1672 1.366 . S
C1672 C1671 1.366 . S
C1672 C1673 1.414 . S
C1672 C1675 1.499 . S
C1673 H1647 0.950 . S
C1673 C1672 1.414 . S
C1673 C1674 1.374 . S
C1674 H1648 0.950 . S
C1674 C1670 1.385 . S
C1674 C1673 1.374 . S
C1675 C1672 1.499 . S
C1675 C1676 1.373 . S
C1675 C1677 1.389 . S
C1676 H1649 0.950 . S
C1676 C1662 1.377 . S
C1676 C1675 1.373 . S
C1677 C1661 1.377 . S
C1677 C1675 1.389 . S
C1677 C1678 1.524 . S
C1678 C1677 1.524 . S
C1678 C1679 1.397 . S
C1678 C1683 1.363 . S
C1679 H1650 0.950 . S
C1679 C1678 1.397 . S
C1679 C1680 1.334 . S
C1680 H1651 0.950 . S
C1680 C1679 1.334 . S
C1680 C1681 1.287 . S
C1681 C1680 1.287 . S
C1681 C1682 1.524 . S
C1681 H1684 0.999 . S
C1682 H1652 0.950 . S
C1682 C1681 1.524 . S
C1682 C1683 1.415 . S
C1683 H1653 0.950 . S
C1683 C1678 1.363 . S
C1683 C1682 1.415 . S
H1684 C1681 0.999 . S
H1685 C1666 0.913 . S
H1686 C1704 0.951 . S
H1687 C1706 0.951 . S
H1688 C1708 0.950 . S
H1689 C1709 0.950 . S
H1690 C1711 0.950 . S
H1691 C1714 0.950 . S
H1692 C1715 0.950 . S
H1693 C1717 0.950 . S
H1694 C1718 0.950 . S
H1695 C1719 0.951 . S
H1696 C1721 0.951 . S
H1697 C1723 0.950 . S
H1698 C1724 0.950 . S
H1699 C1726 0.950 . S
H1700 C1729 0.950 . S
H1701 C1730 0.950 . S
H1702 C1732 0.950 . S
H1703 C1733 0.950 . S
C1704 H1686 0.951 . S
C1704 C1705 1.366 . S
C1704 C1706 1.388 . S
C1705 C1704 1.366 . S
C1705 C1709 1.385 . S
C1706 H1687 0.951 . S
C1706 C1704 1.388 . S
C1706 C1707 1.366 . S
C1707 C1706 1.366 . S
C1707 C1708 1.414 . S
C1707 C1710 1.499 . S
C1708 H1688 0.950 . S
C1708 C1707 1.414 . S
C1708 C1709 1.374 . S
C1709 H1689 0.950 . S
C1709 C1705 1.385 . S
C1709 C1708 1.374 . S
C1710 C1707 1.499 . S
C1710 C1711 1.373 . S
C1710 C1712 1.389 . S
C1711 H1690 0.950 . S
C1711 C1710 1.373 . S
C1711 C1727 1.377 . S
C1712 C1710 1.389 . S
C1712 C1713 1.524 . S
C1712 C1726 1.377 . S
C1713 C1712 1.524 . S
C1713 C1714 1.397 . S
C1713 C1718 1.363 . S
C1714 H1691 0.950 . S
C1714 C1713 1.397 . S
C1714 C1715 1.334 . S
C1715 H1692 0.950 . S
C1715 C1714 1.334 . S
C1715 C1716 1.287 . S
C1716 C1715 1.287 . S
C1716 C1717 1.524 . S
C1716 H1735 0.913 . S
C1717 H1693 0.950 . S
C1717 C1716 1.524 . S
C1717 C1718 1.415 . S
C1718 H1694 0.950 . S
C1718 C1713 1.363 . S
C1718 C1717 1.415 . S
C1719 H1695 0.951 . S
C1719 C1720 1.366 . S
C1719 C1721 1.388 . S
C1720 C1719 1.366 . S
C1720 C1724 1.385 . S
C1721 H1696 0.951 . S
C1721 C1719 1.388 . S
C1721 C1722 1.366 . S
C1722 C1721 1.366 . S
C1722 C1723 1.414 . S
C1722 C1725 1.499 . S
C1723 H1697 0.950 . S
C1723 C1722 1.414 . S
C1723 C1724 1.374 . S
C1724 H1698 0.950 . S
C1724 C1720 1.385 . S
C1724 C1723 1.374 . S
C1725 C1722 1.499 . S
C1725 C1726 1.373 . S
C1725 C1727 1.389 . S
C1726 H1699 0.950 . S
C1726 C1712 1.377 . S
C1726 C1725 1.373 . S
C1727 C1711 1.377 . S
C1727 C1725 1.389 . S
C1727 C1728 1.524 . S
C1728 C1727 1.524 . S
C1728 C1729 1.397 . S
C1728 C1733 1.363 . S
C1729 H1700 0.950 . S
C1729 C1728 1.397 . S
C1729 C1730 1.334 . S
C1730 H1701 0.950 . S
C1730 C1729 1.334 . S
C1730 C1731 1.287 . S
C1731 C1730 1.287 . S
C1731 C1732 1.524 . S
C1731 H1734 0.999 . S
C1732 H1702 0.950 . S
C1732 C1731 1.524 . S
C1732 C1733 1.415 . S
C1733 H1703 0.950 . S
C1733 C1728 1.363 . S
C1733 C1732 1.415 . S
H1734 C1731 0.999 . S
H1735 C1716 0.913 . S
H1736 C1754 0.951 . S
H1737 C1756 0.951 . S
H1738 C1758 0.950 . S
H1739 C1759 0.950 . S
H1740 C1761 0.950 . S
H1741 C1764 0.950 . S
H1742 C1765 0.950 . S
H1743 C1767 0.950 . S
H1744 C1768 0.950 . S
H1745 C1769 0.951 . S
H1746 C1771 0.951 . S
H1747 C1773 0.950 . S
H1748 C1774 0.950 . S
H1749 C1776 0.950 . S
H1750 C1779 0.950 . S
H1751 C1780 0.950 . S
H1752 C1782 0.950 . S
H1753 C1783 0.950 . S
C1754 H1736 0.951 . S
C1754 C1755 1.366 . S
C1754 C1756 1.388 . S
C1755 C1754 1.366 . S
C1755 C1759 1.385 . S
C1756 H1737 0.951 . S
C1756 C1754 1.388 . S
C1756 C1757 1.366 . S
C1757 C1756 1.366 . S
C1757 C1758 1.414 . S
C1757 C1760 1.499 . S
C1758 H1738 0.950 . S
C1758 C1757 1.414 . S
C1758 C1759 1.374 . S
C1759 H1739 0.950 . S
C1759 C1755 1.385 . S
C1759 C1758 1.374 . S
C1760 C1757 1.499 . S
C1760 C1761 1.373 . S
C1760 C1762 1.389 . S
C1761 H1740 0.950 . S
C1761 C1760 1.373 . S
C1761 C1777 1.377 . S
C1762 C1760 1.389 . S
C1762 C1763 1.524 . S
C1762 C1776 1.377 . S
C1763 C1762 1.524 . S
C1763 C1764 1.397 . S
C1763 C1768 1.363 . S
C1764 H1741 0.950 . S
C1764 C1763 1.397 . S
C1764 C1765 1.334 . S
C1765 H1742 0.950 . S
C1765 C1764 1.334 . S
C1765 C1766 1.287 . S
C1766 C1765 1.287 . S
C1766 C1767 1.524 . S
C1766 H1785 0.913 . S
C1767 H1743 0.950 . S
C1767 C1766 1.524 . S
C1767 C1768 1.415 . S
C1768 H1744 0.950 . S
C1768 C1763 1.363 . S
C1768 C1767 1.415 . S
C1769 H1745 0.951 . S
C1769 C1770 1.366 . S
C1769 C1771 1.388 . S
C1770 C1769 1.366 . S
C1770 C1774 1.385 . S
C1771 H1746 0.951 . S
C1771 C1769 1.388 . S
C1771 C1772 1.366 . S
C1772 C1771 1.366 . S
C1772 C1773 1.414 . S
C1772 C1775 1.499 . S
C1773 H1747 0.950 . S
C1773 C1772 1.414 . S
C1773 C1774 1.374 . S
C1774 H1748 0.950 . S
C1774 C1770 1.385 . S
C1774 C1773 1.374 . S
C1775 C1772 1.499 . S
C1775 C1776 1.373 . S
C1775 C1777 1.389 . S
C1776 H1749 0.950 . S
C1776 C1762 1.377 . S
C1776 C1775 1.373 . S
C1777 C1761 1.377 . S
C1777 C1775 1.389 . S
C1777 C1778 1.524 . S
C1778 C1777 1.524 . S
C1778 C1779 1.397 . S
C1778 C1783 1.363 . S
C1779 H1750 0.950 . S
C1779 C1778 1.397 . S
C1779 C1780 1.334 . S
C1780 H1751 0.950 . S
C1780 C1779 1.334 . S
C1780 C1781 1.287 . S
C1781 C1780 1.287 . S
C1781 C1782 1.524 . S
C1781 H1784 0.999 . S
C1782 H1752 0.950 . S
C1782 C1781 1.524 . S
C1782 C1783 1.415 . S
C1783 H1753 0.950 . S
C1783 C1778 1.363 . S
C1783 C1782 1.415 . S
H1784 C1781 0.999 . S
H1785 C1766 0.913 . S
H1786 C1804 0.951 . S
H1787 C1806 0.951 . S
H1788 C1808 0.950 . S
H1789 C1809 0.950 . S
H1790 C1811 0.950 . S
H1791 C1814 0.950 . S
H1792 C1815 0.950 . S
H1793 C1817 0.950 . S
H1794 C1818 0.950 . S
H1795 C1819 0.951 . S
H1796 C1821 0.951 . S
H1797 C1823 0.950 . S
H1798 C1824 0.950 . S
H1799 C1826 0.950 . S
H1800 C1829 0.950 . S
H1801 C1830 0.950 . S
H1802 C1832 0.950 . S
H1803 C1833 0.950 . S
C1804 H1786 0.951 . S
C1804 C1805 1.366 . S
C1804 C1806 1.388 . S
C1805 C1804 1.366 . S
C1805 C1809 1.385 . S
C1806 H1787 0.951 . S
C1806 C1804 1.388 . S
C1806 C1807 1.366 . S
C1807 C1806 1.366 . S
C1807 C1808 1.414 . S
C1807 C1810 1.499 . S
C1808 H1788 0.950 . S
C1808 C1807 1.414 . S
C1808 C1809 1.374 . S
C1809 H1789 0.950 . S
C1809 C1805 1.385 . S
C1809 C1808 1.374 . S
C1810 C1807 1.499 . S
C1810 C1811 1.373 . S
C1810 C1812 1.389 . S
C1811 H1790 0.950 . S
C1811 C1810 1.373 . S
C1811 C1827 1.377 . S
C1812 C1810 1.389 . S
C1812 C1813 1.524 . S
C1812 C1826 1.377 . S
C1813 C1812 1.524 . S
C1813 C1814 1.397 . S
C1813 C1818 1.363 . S
C1814 H1791 0.950 . S
C1814 C1813 1.397 . S
C1814 C1815 1.334 . S
C1815 H1792 0.950 . S
C1815 C1814 1.334 . S
C1815 C1816 1.287 . S
C1816 C1815 1.287 . S
C1816 C1817 1.524 . S
C1816 H1835 0.913 . S
C1817 H1793 0.950 . S
C1817 C1816 1.524 . S
C1817 C1818 1.415 . S
C1818 H1794 0.950 . S
C1818 C1813 1.363 . S
C1818 C1817 1.415 . S
C1819 H1795 0.951 . S
C1819 C1820 1.366 . S
C1819 C1821 1.388 . S
C1820 C1819 1.366 . S
C1820 C1824 1.385 . S
C1821 H1796 0.951 . S
C1821 C1819 1.388 . S
C1821 C1822 1.366 . S
C1822 C1821 1.366 . S
C1822 C1823 1.414 . S
C1822 C1825 1.499 . S
C1823 H1797 0.950 . S
C1823 C1822 1.414 . S
C1823 C1824 1.374 . S
C1824 H1798 0.950 . S
C1824 C1820 1.385 . S
C1824 C1823 1.374 . S
C1825 C1822 1.499 . S
C1825 C1826 1.373 . S
C1825 C1827 1.389 . S
C1826 H1799 0.950 . S
C1826 C1812 1.377 . S
C1826 C1825 1.373 . S
C1827 C1811 1.377 . S
C1827 C1825 1.389 . S
C1827 C1828 1.524 . S
C1828 C1827 1.524 . S
C1828 C1829 1.397 . S
C1828 C1833 1.363 . S
C1829 H1800 0.950 . S
C1829 C1828 1.397 . S
C1829 C1830 1.334 . S
C1830 H1801 0.950 . S
C1830 C1829 1.334 . S
C1830 C1831 1.287 . S
C1831 C1830 1.287 . S
C1831 C1832 1.524 . S
C1831 H1834 0.999 . S
C1832 H1802 0.950 . S
C1832 C1831 1.524 . S
C1832 C1833 1.415 . S
C1833 H1803 0.950 . S
C1833 C1828 1.363 . S
C1833 C1832 1.415 . S
H1834 C1831 0.999 . S
H1835 C1816 0.913 . S
H1836 C1854 0.951 . S
H1837 C1856 0.951 . S
H1838 C1858 0.950 . S
H1839 C1859 0.950 . S
H1840 C1861 0.950 . S
H1841 C1864 0.950 . S
H1842 C1865 0.950 . S
H1843 C1867 0.950 . S
H1844 C1868 0.950 . S
H1845 C1869 0.951 . S
H1846 C1871 0.951 . S
H1847 C1873 0.950 . S
H1848 C1874 0.950 . S
H1849 C1876 0.950 . S
H1850 C1879 0.950 . S
H1851 C1880 0.950 . S
H1852 C1882 0.950 . S
H1853 C1883 0.950 . S
C1854 H1836 0.951 . S
C1854 C1855 1.366 . S
C1854 C1856 1.388 . S
C1855 C1854 1.366 . S
C1855 C1859 1.385 . S
C1856 H1837 0.951 . S
C1856 C1854 1.388 . S
C1856 C1857 1.366 . S
C1857 C1856 1.366 . S
C1857 C1858 1.414 . S
C1857 C1860 1.499 . S
C1858 H1838 0.950 . S
C1858 C1857 1.414 . S
C1858 C1859 1.374 . S
C1859 H1839 0.950 . S
C1859 C1855 1.385 . S
C1859 C1858 1.374 . S
C1860 C1857 1.499 . S
C1860 C1861 1.373 . S
C1860 C1862 1.389 . S
C1861 H1840 0.950 . S
C1861 C1860 1.373 . S
C1861 C1877 1.377 . S
C1862 C1860 1.389 . S
C1862 C1863 1.524 . S
C1862 C1876 1.377 . S
C1863 C1862 1.524 . S
C1863 C1864 1.397 . S
C1863 C1868 1.363 . S
C1864 H1841 0.950 . S
C1864 C1863 1.397 . S
C1864 C1865 1.334 . S
C1865 H1842 0.950 . S
C1865 C1864 1.334 . S
C1865 C1866 1.287 . S
C1866 C1865 1.287 . S
C1866 C1867 1.524 . S
C1866 H1885 0.913 . S
C1867 H1843 0.950 . S
C1867 C1866 1.524 . S
C1867 C1868 1.415 . S
C1868 H1844 0.950 . S
C1868 C1863 1.363 . S
C1868 C1867 1.415 . S
C1869 H1845 0.951 . S
C1869 C1870 1.366 . S
C1869 C1871 1.388 . S
C1870 C1869 1.366 . S
C1870 C1874 1.385 . S
C1871 H1846 0.951 . S
C1871 C1869 1.388 . S
C1871 C1872 1.366 . S
C1872 C1871 1.366 . S
C1872 C1873 1.414 . S
C1872 C1875 1.499 . S
C1873 H1847 0.950 . S
C1873 C1872 1.414 . S
C1873 C1874 1.374 . S
C1874 H1848 0.950 . S
C1874 C1870 1.385 . S
C1874 C1873 1.374 . S
C1875 C1872 1.499 . S
C1875 C1876 1.373 . S
C1875 C1877 1.389 . S
C1876 H1849 0.950 . S
C1876 C1862 1.377 . S
C1876 C1875 1.373 . S
C1877 C1861 1.377 . S
C1877 C1875 1.389 . S
C1877 C1878 1.524 . S
C1878 C1877 1.524 . S
C1878 C1879 1.397 . S
C1878 C1883 1.363 . S
C1879 H1850 0.950 . S
C1879 C1878 1.397 . S
C1879 C1880 1.334 . S
C1880 H1851 0.950 . S
C1880 C1879 1.334 . S
C1880 C1881 1.287 . S
C1881 C1880 1.287 . S
C1881 C1882 1.524 . S
C1881 H1884 0.999 . S
C1882 H1852 0.950 . S
C1882 C1881 1.524 . S
C1882 C1883 1.415 . S
C1883 H1853 0.950 . S
C1883 C1878 1.363 . S
C1883 C1882 1.415 . S
H1884 C1881 0.999 . S
H1885 C1866 0.913 . S
H1886 C1904 0.951 . S
H1887 C1906 0.951 . S
H1888 C1908 0.950 . S
H1889 C1909 0.950 . S
H1890 C1911 0.950 . S
H1891 C1914 0.950 . S
H1892 C1915 0.950 . S
H1893 C1917 0.950 . S
H1894 C1918 0.950 . S
H1895 C1919 0.951 . S
H1896 C1921 0.951 . S
H1897 C1923 0.950 . S
H1898 C1924 0.950 . S
H1899 C1926 0.950 . S
H1900 C1929 0.950 . S
H1901 C1930 0.950 . S
H1902 C1932 0.950 . S
H1903 C1933 0.950 . S
C1904 H1886 0.951 . S
C1904 C1905 1.366 . S
C1904 C1906 1.388 . S
C1905 C1904 1.366 . S
C1905 C1909 1.385 . S
C1906 H1887 0.951 . S
C1906 C1904 1.388 . S
C1906 C1907 1.366 . S
C1907 C1906 1.366 . S
C1907 C1908 1.414 . S
C1907 C1910 1.499 . S
C1908 H1888 0.950 . S
C1908 C1907 1.414 . S
C1908 C1909 1.374 . S
C1909 H1889 0.950 . S
C1909 C1905 1.385 . S
C1909 C1908 1.374 . S
C1910 C1907 1.499 . S
C1910 C1911 1.373 . S
C1910 C1912 1.389 . S
C1911 H1890 0.950 . S
C1911 C1910 1.373 . S
C1911 C1927 1.377 . S
C1912 C1910 1.389 . S
C1912 C1913 1.524 . S
C1912 C1926 1.377 . S
C1913 C1912 1.524 . S
C1913 C1914 1.397 . S
C1913 C1918 1.363 . S
C1914 H1891 0.950 . S
C1914 C1913 1.397 . S
C1914 C1915 1.334 . S
C1915 H1892 0.950 . S
C1915 C1914 1.334 . S
C1915 C1916 1.287 . S
C1916 C1915 1.287 . S
C1916 C1917 1.524 . S
C1916 H1935 0.913 . S
C1917 H1893 0.950 . S
C1917 C1916 1.524 . S
C1917 C1918 1.415 . S
C1918 H1894 0.950 . S
C1918 C1913 1.363 . S
C1918 C1917 1.415 . S
C1919 H1895 0.951 . S
C1919 C1920 1.366 . S
C1919 C1921 1.388 . S
C1920 C1919 1.366 . S
C1920 C1924 1.385 . S
C1921 H1896 0.951 . S
C1921 C1919 1.388 . S
C1921 C1922 1.366 . S
C1922 C1921 1.366 . S
C1922 C1923 1.414 . S
C1922 C1925 1.499 . S
C1923 H1897 0.950 . S
C1923 C1922 1.414 . S
C1923 C1924 1.374 . S
C1924 H1898 0.950 . S
C1924 C1920 1.385 . S
C1924 C1923 1.374 . S
C1925 C1922 1.499 . S
C1925 C1926 1.373 . S
C1925 C1927 1.389 . S
C1926 H1899 0.950 . S
C1926 C1912 1.377 . S
C1926 C1925 1.373 . S
C1927 C1911 1.377 . S
C1927 C1925 1.389 . S
C1927 C1928 1.524 . S
C1928 C1927 1.524 . S
C1928 C1929 1.397 . S
C1928 C1933 1.363 . S
C1929 H1900 0.950 . S
C1929 C1928 1.397 . S
C1929 C1930 1.334 . S
C1930 H1901 0.950 . S
C1930 C1929 1.334 . S
C1930 C1931 1.287 . S
C1931 C1930 1.287 . S
C1931 C1932 1.524 . S
C1931 H1934 0.999 . S
C1932 H1902 0.950 . S
C1932 C1931 1.524 . S
C1932 C1933 1.415 . S
C1933 H1903 0.950 . S
C1933 C1928 1.363 . S
C1933 C1932 1.415 . S
H1934 C1931 0.999 . S
H1935 C1916 0.913 . S
H1936 C1954 0.951 . S
H1937 C1956 0.951 . S
H1938 C1958 0.950 . S
H1939 C1959 0.950 . S
H1940 C1961 0.950 . S
H1941 C1964 0.950 . S
H1942 C1965 0.950 . S
H1943 C1967 0.950 . S
H1944 C1968 0.950 . S
H1945 C1969 0.951 . S
H1946 C1971 0.951 . S
H1947 C1973 0.950 . S
H1948 C1974 0.950 . S
H1949 C1976 0.950 . S
H1950 C1979 0.950 . S
H1951 C1980 0.950 . S
H1952 C1982 0.950 . S
H1953 C1983 0.950 . S
C1954 H1936 0.951 . S
C1954 C1955 1.366 . S
C1954 C1956 1.388 . S
C1955 C1954 1.366 . S
C1955 C1959 1.385 . S
C1956 H1937 0.951 . S
C1956 C1954 1.388 . S
C1956 C1957 1.366 . S
C1957 C1956 1.366 . S
C1957 C1958 1.414 . S
C1957 C1960 1.499 . S
C1958 H1938 0.950 . S
C1958 C1957 1.414 . S
C1958 C1959 1.374 . S
C1959 H1939 0.950 . S
C1959 C1955 1.385 . S
C1959 C1958 1.374 . S
C1960 C1957 1.499 . S
C1960 C1961 1.373 . S
C1960 C1962 1.389 . S
C1961 H1940 0.950 . S
C1961 C1960 1.373 . S
C1961 C1977 1.377 . S
C1962 C1960 1.389 . S
C1962 C1963 1.524 . S
C1962 C1976 1.377 . S
C1963 C1962 1.524 . S
C1963 C1964 1.397 . S
C1963 C1968 1.363 . S
C1964 H1941 0.950 . S
C1964 C1963 1.397 . S
C1964 C1965 1.334 . S
C1965 H1942 0.950 . S
C1965 C1964 1.334 . S
C1965 C1966 1.287 . S
C1966 C1965 1.287 . S
C1966 C1967 1.524 . S
C1966 H1985 0.913 . S
C1967 H1943 0.950 . S
C1967 C1966 1.524 . S
C1967 C1968 1.415 . S
C1968 H1944 0.950 . S
C1968 C1963 1.363 . S
C1968 C1967 1.415 . S
C1969 H1945 0.951 . S
C1969 C1970 1.366 . S
C1969 C1971 1.388 . S
C1970 C1969 1.366 . S
C1970 C1974 1.385 . S
C1971 H1946 0.951 . S
C1971 C1969 1.388 . S
C1971 C1972 1.366 . S
C1972 C1971 1.366 . S
C1972 C1973 1.414 . S
C1972 C1975 1.499 . S
C1973 H1947 0.950 . S
C1973 C1972 1.414 . S
C1973 C1974 1.374 . S
C1974 H1948 0.950 . S
C1974 C1970 1.385 . S
C1974 C1973 1.374 . S
C1975 C1972 1.499 . S
C1975 C1976 1.373 . S
C1975 C1977 1.389 . S
C1976 H1949 0.950 . S
C1976 C1962 1.377 . S
C1976 C1975 1.373 . S
C1977 C1961 1.377 . S
C1977 C1975 1.389 . S
C1977 C1978 1.524 . S
C1978 C1977 1.524 . S
C1978 C1979 1.397 . S
C1978 C1983 1.363 . S
C1979 H1950 0.950 . S
C1979 C1978 1.397 . S
C1979 C1980 1.334 . S
C1980 H1951 0.950 . S
C1980 C1979 1.334 . S
C1980 C1981 1.287 . S
C1981 C1980 1.287 . S
C1981 C1982 1.524 . S
C1981 H1984 0.999 . S
C1982 H1952 0.950 . S
C1982 C1981 1.524 . S
C1982 C1983 1.415 . S
C1983 H1953 0.950 . S
C1983 C1978 1.363 . S
C1983 C1982 1.415 . S
H1984 C1981 0.999 . S
H1985 C1966 0.913 . S
H1986 C2004 0.951 . S
H1987 C2006 0.951 . S
H1988 C2008 0.950 . S
H1989 C2009 0.950 . S
H1990 C2011 0.950 . S
H1991 C2014 0.950 . S
H1992 C2015 0.950 . S
H1993 C2017 0.950 . S
H1994 C2018 0.950 . S
H1995 C2019 0.951 . S
H1996 C2021 0.951 . S
H1997 C2023 0.950 . S
H1998 C2024 0.950 . S
H1999 C2026 0.950 . S
H2000 C2029 0.950 . S
H2001 C2030 0.950 . S
H2002 C2032 0.950 . S
H2003 C2033 0.950 . S
C2004 H1986 0.951 . S
C2004 C2005 1.366 . S
C2004 C2006 1.388 . S
C2005 C2004 1.366 . S
C2005 C2009 1.385 . S
C2006 H1987 0.951 . S
C2006 C2004 1.388 . S
C2006 C2007 1.366 . S
C2007 C2006 1.366 . S
C2007 C2008 1.414 . S
C2007 C2010 1.499 . S
C2008 H1988 0.950 . S
C2008 C2007 1.414 . S
C2008 C2009 1.374 . S
C2009 H1989 0.950 . S
C2009 C2005 1.385 . S
C2009 C2008 1.374 . S
C2010 C2007 1.499 . S
C2010 C2011 1.373 . S
C2010 C2012 1.389 . S
C2011 H1990 0.950 . S
C2011 C2010 1.373 . S
C2011 C2027 1.377 . S
C2012 C2010 1.389 . S
C2012 C2013 1.524 . S
C2012 C2026 1.377 . S
C2013 C2012 1.524 . S
C2013 C2014 1.397 . S
C2013 C2018 1.363 . S
C2014 H1991 0.950 . S
C2014 C2013 1.397 . S
C2014 C2015 1.334 . S
C2015 H1992 0.950 . S
C2015 C2014 1.334 . S
C2015 C2016 1.287 . S
C2016 C2015 1.287 . S
C2016 C2017 1.524 . S
C2016 H2035 0.913 . S
C2017 H1993 0.950 . S
C2017 C2016 1.524 . S
C2017 C2018 1.415 . S
C2018 H1994 0.950 . S
C2018 C2013 1.363 . S
C2018 C2017 1.415 . S
C2019 H1995 0.951 . S
C2019 C2020 1.366 . S
C2019 C2021 1.388 . S
C2020 C2019 1.366 . S
C2020 C2024 1.385 . S
C2021 H1996 0.951 . S
C2021 C2019 1.388 . S
C2021 C2022 1.366 . S
C2022 C2021 1.366 . S
C2022 C2023 1.414 . S
C2022 C2025 1.499 . S
C2023 H1997 0.950 . S
C2023 C2022 1.414 . S
C2023 C2024 1.374 . S
C2024 H1998 0.950 . S
C2024 C2020 1.385 . S
C2024 C2023 1.374 . S
C2025 C2022 1.499 . S
C2025 C2026 1.373 . S
C2025 C2027 1.389 . S
C2026 H1999 0.950 . S
C2026 C2012 1.377 . S
C2026 C2025 1.373 . S
C2027 C2011 1.377 . S
C2027 C2025 1.389 . S
C2027 C2028 1.524 . S
C2028 C2027 1.524 . S
C2028 C2029 1.397 . S
C2028 C2033 1.363 . S
C2029 H2000 0.950 . S
C2029 C2028 1.397 . S
C2029 C2030 1.334 . S
C2030 H2001 0.950 . S
C2030 C2029 1.334 . S
C2030 C2031 1.287 . S
C2031 C2030 1.287 . S
C2031 C2032 1.524 . S
C2031 H2034 0.999 . S
C2032 H2002 0.950 . S
C2032 C2031 1.524 . S
C2032 C2033 1.415 . S
C2033 H2003 0.950 . S
C2033 C2028 1.363 . S
C2033 C2032 1.415 . S
H2034 C2031 0.999 . S
H2035 C2016 0.913 . S
H2036 C2054 0.951 . S
H2037 C2056 0.951 . S
H2038 C2058 0.950 . S
H2039 C2059 0.950 . S
H2040 C2061 0.950 . S
H2041 C2064 0.950 . S
H2042 C2065 0.950 . S
H2043 C2067 0.950 . S
H2044 C2068 0.950 . S
H2045 C2069 0.951 . S
H2046 C2071 0.951 . S
H2047 C2073 0.950 . S
H2048 C2074 0.950 . S
H2049 C2076 0.950 . S
H2050 C2079 0.950 . S
H2051 C2080 0.950 . S
H2052 C2082 0.950 . S
H2053 C2083 0.950 . S
C2054 H2036 0.951 . S
C2054 C2055 1.366 . S
C2054 C2056 1.388 . S
C2055 C2054 1.366 . S
C2055 C2059 1.385 . S
C2056 H2037 0.951 . S
C2056 C2054 1.388 . S
C2056 C2057 1.366 . S
C2057 C2056 1.366 . S
C2057 C2058 1.414 . S
C2057 C2060 1.499 . S
C2058 H2038 0.950 . S
C2058 C2057 1.414 . S
C2058 C2059 1.374 . S
C2059 H2039 0.950 . S
C2059 C2055 1.385 . S
C2059 C2058 1.374 . S
C2060 C2057 1.499 . S
C2060 C2061 1.373 . S
C2060 C2062 1.389 . S
C2061 H2040 0.950 . S
C2061 C2060 1.373 . S
C2061 C2077 1.377 . S
C2062 C2060 1.389 . S
C2062 C2063 1.524 . S
C2062 C2076 1.377 . S
C2063 C2062 1.524 . S
C2063 C2064 1.397 . S
C2063 C2068 1.363 . S
C2064 H2041 0.950 . S
C2064 C2063 1.397 . S
C2064 C2065 1.334 . S
C2065 H2042 0.950 . S
C2065 C2064 1.334 . S
C2065 C2066 1.287 . S
C2066 C2065 1.287 . S
C2066 C2067 1.524 . S
C2066 H2085 0.913 . S
C2067 H2043 0.950 . S
C2067 C2066 1.524 . S
C2067 C2068 1.415 . S
C2068 H2044 0.950 . S
C2068 C2063 1.363 . S
C2068 C2067 1.415 . S
C2069 H2045 0.951 . S
C2069 C2070 1.366 . S
C2069 C2071 1.388 . S
C2070 C2069 1.366 . S
C2070 C2074 1.385 . S
C2071 H2046 0.951 . S
C2071 C2069 1.388 . S
C2071 C2072 1.366 . S
C2072 C2071 1.366 . S
C2072 C2073 1.414 . S
C2072 C2075 1.499 . S
C2073 H2047 0.950 . S
C2073 C2072 1.414 . S
C2073 C2074 1.374 . S
C2074 H2048 0.950 . S
C2074 C2070 1.385 . S
C2074 C2073 1.374 . S
C2075 C2072 1.499 . S
C2075 C2076 1.373 . S
C2075 C2077 1.389 . S
C2076 H2049 0.950 . S
C2076 C2062 1.377 . S
C2076 C2075 1.373 . S
C2077 C2061 1.377 . S
C2077 C2075 1.389 . S
C2077 C2078 1.524 . S
C2078 C2077 1.524 . S
C2078 C2079 1.397 . S
C2078 C2083 1.363 . S
C2079 H2050 0.950 . S
C2079 C2078 1.397 . S
C2079 C2080 1.334 . S
C2080 H2051 0.950 . S
C2080 C2079 1.334 . S
C2080 C2081 1.287 . S
C2081 C2080 1.287 . S
C2081 C2082 1.524 . S
C2081 H2084 0.999 . S
C2082 H2052 0.950 . S
C2082 C2081 1.524 . S
C2082 C2083 1.415 . S
C2083 H2053 0.950 . S
C2083 C2078 1.363 . S
C2083 C2082 1.415 . S
H2084 C2081 0.999 . S
H2085 C2066 0.913 . S
H2086 C2104 0.951 . S
H2087 C2106 0.951 . S
H2088 C2108 0.950 . S
H2089 C2109 0.950 . S
H2090 C2111 0.950 . S
H2091 C2114 0.950 . S
H2092 C2115 0.950 . S
H2093 C2117 0.950 . S
H2094 C2118 0.950 . S
H2095 C2119 0.951 . S
H2096 C2121 0.951 . S
H2097 C2123 0.950 . S
H2098 C2124 0.950 . S
H2099 C2126 0.950 . S
H2100 C2129 0.950 . S
H2101 C2130 0.950 . S
H2102 C2132 0.950 . S
H2103 C2133 0.950 . S
C2104 H2086 0.951 . S
C2104 C2105 1.366 . S
C2104 C2106 1.388 . S
C2105 C2104 1.366 . S
C2105 C2109 1.385 . S
C2106 H2087 0.951 . S
C2106 C2104 1.388 . S
C2106 C2107 1.366 . S
C2107 C2106 1.366 . S
C2107 C2108 1.414 . S
C2107 C2110 1.499 . S
C2108 H2088 0.950 . S
C2108 C2107 1.414 . S
C2108 C2109 1.374 . S
C2109 H2089 0.950 . S
C2109 C2105 1.385 . S
C2109 C2108 1.374 . S
C2110 C2107 1.499 . S
C2110 C2111 1.373 . S
C2110 C2112 1.389 . S
C2111 H2090 0.950 . S
C2111 C2110 1.373 . S
C2111 C2127 1.377 . S
C2112 C2110 1.389 . S
C2112 C2113 1.524 . S
C2112 C2126 1.377 . S
C2113 C2112 1.524 . S
C2113 C2114 1.397 . S
C2113 C2118 1.363 . S
C2114 H2091 0.950 . S
C2114 C2113 1.397 . S
C2114 C2115 1.334 . S
C2115 H2092 0.950 . S
C2115 C2114 1.334 . S
C2115 C2116 1.287 . S
C2116 C2115 1.287 . S
C2116 C2117 1.524 . S
C2116 H2135 0.913 . S
C2117 H2093 0.950 . S
C2117 C2116 1.524 . S
C2117 C2118 1.415 . S
C2118 H2094 0.950 . S
C2118 C2113 1.363 . S
C2118 C2117 1.415 . S
C2119 H2095 0.951 . S
C2119 C2120 1.366 . S
C2119 C2121 1.388 . S
C2120 C2119 1.366 . S
C2120 C2124 1.385 . S
C2121 H2096 0.951 . S
C2121 C2119 1.388 . S
C2121 C2122 1.366 . S
C2122 C2121 1.366 . S
C2122 C2123 1.414 . S
C2122 C2125 1.499 . S
C2123 H2097 0.950 . S
C2123 C2122 1.414 . S
C2123 C2124 1.374 . S
C2124 H2098 0.950 . S
C2124 C2120 1.385 . S
C2124 C2123 1.374 . S
C2125 C2122 1.499 . S
C2125 C2126 1.373 . S
C2125 C2127 1.389 . S
C2126 H2099 0.950 . S
C2126 C2112 1.377 . S
C2126 C2125 1.373 . S
C2127 C2111 1.377 . S
C2127 C2125 1.389 . S
C2127 C2128 1.524 . S
C2128 C2127 1.524 . S
C2128 C2129 1.397 . S
C2128 C2133 1.363 . S
C2129 H2100 0.950 . S
C2129 C2128 1.397 . S
C2129 C2130 1.334 . S
C2130 H2101 0.950 . S
C2130 C2129 1.334 . S
C2130 C2131 1.287 . S
C2131 C2130 1.287 . S
C2131 C2132 1.524 . S
C2131 H2134 0.999 . S
C2132 H2102 0.950 . S
C2132 C2131 1.524 . S
C2132 C2133 1.415 . S
C2133 H2103 0.950 . S
C2133 C2128 1.363 . S
C2133 C2132 1.415 . S
H2134 C2131 0.999 . S
H2135 C2116 0.913 . S
C570 C141 1.511 . S
C555 C0 1.516 . S
C620 C194 1.347 . S
C605 C26 1.350 . S
C670 C257 1.602 . S
C655 C40 1.603 . S
C720 C300 1.286 . S
C705 C43 1.289 . S
C755 C57 1.599 . S
C770 C256 1.594 . S
C820 C293 1.374 . S
C805 C70 1.375 . S
C870 C134 1.518 . S
C855 C97 1.521 . S
C920 C187 1.260 . S
C905 C111 1.261 . S
C970 C240 1.489 . S
C955 C98 1.492 . S
C1020 C309 1.837 . S
C1005 C68 1.839 . S
C1070 C150 1.591 . S
C1055 C83 1.593 . S
C1120 C203 1.754 . S
C1105 C84 1.757 . S
C1170 C151 1.575 . S
C1155 C15 1.578 . S
C1220 C204 1.843 . S
C1205 C29 1.848 . S
C1270 C247 1.504 . S
C1255 C54 1.505 . S
C1320 C310 1.739 . S
C1305 C13 1.745 . S
C1370 C353 1.474 . S
C1355 C99 1.480 . S
C1405 C69 1.719 . S
C1420 C406 1.714 . S
C1455 C82 1.643 . S
C1470 C468 1.639 . S
C1505 C85 1.710 . S
C1520 C522 1.709 . S
C1555 C14 1.560 . S
C1570 C469 1.557 . S
C1605 C28 1.802 . S
C1620 C521 1.798 . S
C1655 C55 1.557 . S
C1670 C346 1.556 . S
C1720 C399 1.634 . S
C1705 C12 1.637 . S
C1770 C459 1.459 . S
C1755 C1 1.461 . S
C1805 C27 1.395 . S
C1820 C505 1.390 . S
C1855 C41 1.627 . S
C1870 C362 1.627 . S
C1905 C42 1.354 . S
C1920 C415 1.353 . S
C1970 C363 1.540 . S
C1955 C56 1.543 . S
C2020 C416 1.449 . S
C2005 C71 1.453 . S
C2055 C96 1.538 . S
C2070 C452 1.535 . S
C2120 C512 1.305 . S
C2105 C110 1.307 . S
