# Generated by pormake.
# Topology tsx, (6,3)-cn, num edge types: 1
# Building blocks:
#     Node 0, Type 0, BuildingBlock: CIFDUS_clean_sbu_1, # of connection points: 6
#     Node 1, Type 0, BuildingBlock: CIFDUS_clean_sbu_1, # of connection points: 6
#     Node 2, Type 1, BuildingBlock: OLANEW_clean_sbu_2, # of connection points: 3
#     Node 3, Type 1, BuildingBlock: OLANEW_clean_sbu_2, # of connection points: 3
#     Node 4, Type 1, BuildingBlock: OLANEW_clean_sbu_2, # of connection points: 3
#     Node 5, Type 1, BuildingBlock: OLANEW_clean_sbu_2, # of connection points: 3
#     Edge 6, Type (0, 1), BuildingBlock: KIFKEQ_clean_linker_1, # of connection points: 2
#     Edge 7, Type (0, 1), BuildingBlock: KIFKEQ_clean_linker_1, # of connection points: 2
#     Edge 8, Type (0, 1), BuildingBlock: KIFKEQ_clean_linker_1, # of connection points: 2
#     Edge 9, Type (0, 1), BuildingBlock: KIFKEQ_clean_linker_1, # of connection points: 2
#     Edge 10, Type (0, 1), BuildingBlock: KIFKEQ_clean_linker_1, # of connection points: 2
#     Edge 11, Type (0, 1), BuildingBlock: KIFKEQ_clean_linker_1, # of connection points: 2
#     Edge 12, Type (0, 1), BuildingBlock: KIFKEQ_clean_linker_1, # of connection points: 2
#     Edge 13, Type (0, 1), BuildingBlock: KIFKEQ_clean_linker_1, # of connection points: 2
#     Edge 14, Type (0, 1), BuildingBlock: KIFKEQ_clean_linker_1, # of connection points: 2
#     Edge 15, Type (0, 1), BuildingBlock: KIFKEQ_clean_linker_1, # of connection points: 2
#     Edge 16, Type (0, 1), BuildingBlock: KIFKEQ_clean_linker_1, # of connection points: 2
#     Edge 17, Type (0, 1), BuildingBlock: KIFKEQ_clean_linker_1, # of connection points: 2
# Relax obj value: 0.039
# Max RMSD: 0.094
# Mean RMSD: 0.050
data_MOF--net-tsx--node1-CIFDUS_clean_sbu_1--node2-OLANEW_clean_sbu_2--edge1-KIFKEQ_clean_linker_1
_symmetry_space_group_name_H-M    P1
_symmetry_Int_Tables_number       1
_symmetry_cell_setting            triclinic
loop_
_symmetry_equiv_pos_as_xyz
'x, y, z'
_cell_length_a     20.579379
_cell_length_b     25.144683
_cell_length_c     35.579928
_cell_angle_alpha  102.22387
_cell_angle_beta   92.592386
_cell_angle_gamma 90.490171
loop_
_atom_site_label
_atom_site_type_symbol
_atom_site_fract_x
_atom_site_fract_y
_atom_site_fract_z
_atom_type_partial_charge
O0 O 0.97752 0.0796 0.01363 0.0
Mn1 Mn 0.03343 0.0082 0.00427 0.0
O2 O 0.87558 0.05431 0.99058 0.0
Mn3 Mn 0.89819 0.98814 0.96115 0.0
O4 O 0.08947 0.93711 0.99484 0.0
O5 O 0.11334 0.05507 0.01722 0.0
Mn6 Mn 0.16869 0.02951 0.04755 0.0
O7 O 0.02647 0.00272 0.06241 0.0
O8 O 0.19016 0.96141 0.02099 0.0
O9 O 0.04108 0.01296 0.9464 0.0
O10 O 0.94156 0.99223 0.91754 0.0
O11 O 0.20692 0.09211 0.03885 0.0
O12 O 0.1251 0.02826 0.09144 0.0
C13 C 0.91297 0.92114 0.98843 0.0
C14 C 0.91684 0.08984 0.00848 0.0
C15 C 0.14918 0.92627 0.00235 0.0
C16 C 0.15407 0.09444 0.01817 0.0
C17 C 0.06635 0.01216 0.09222 0.0
C18 C 1.00137 0.0054 0.91663 0.0
O19 O 0.95367 0.96092 0.99058 0.0
O20 O 0.86064 0.92397 0.96744 0.0
O21 O 0.48074 0.57824 0.51526 0.0
Mn22 Mn 0.53675 0.50773 0.50429 0.0
O23 O 0.40285 0.56137 0.4679 0.0
Mn24 Mn 0.42388 0.48947 0.44977 0.0
O25 O 0.59313 0.43648 0.49207 0.0
O26 O 0.61537 0.55667 0.52256 0.0
Mn27 Mn 0.671 0.52165 0.54678 0.0
O28 O 0.52556 0.49665 0.56073 0.0
O29 O 0.69597 0.4631 0.51064 0.0
O30 O 0.5549 0.52035 0.44876 0.0
O31 O 0.47709 0.47611 0.40929 0.0
O32 O 0.70872 0.58882 0.55007 0.0
O33 O 0.62804 0.50481 0.58734 0.0
C34 C 0.40199 0.42743 0.47689 0.0
C35 C 0.43159 0.59288 0.49657 0.0
C36 C 0.65476 0.42775 0.49285 0.0
C37 C 0.65662 0.59716 0.53054 0.0
C38 C 0.56728 0.49525 0.5887 0.0
C39 C 0.53199 0.4996 0.41468 0.0
O40 O 0.45426 0.45854 0.48755 0.0
O41 O 0.36359 0.43839 0.44969 0.0
O42 O 0.02562 0.95882 0.38377 0.0
Cd43 Cd 0.03964 0.96264 0.45355 0.0
O44 O 0.08705 0.03234 0.3895 0.0
Cd45 Cd 0.06825 0.0581 0.45035 0.0
O46 O 0.99349 0.11362 0.47568 0.0
C47 C 0.93546 0.1032 0.46202 0.0
O48 O 0.92319 0.05745 0.43686 0.0
C49 C 0.05604 0.99225 0.3683 0.0
C50 C 0.13484 0.89264 0.47344 0.0
O51 O 0.07486 0.87771 0.46756 0.0
O52 O 0.15025 0.94065 0.4696 0.0
O53 O 0.04919 0.06114 0.63084 0.0
Cd54 Cd 0.04664 0.06278 0.56269 0.0
O55 O 0.08094 0.97635 0.62243 0.0
Cd56 Cd 0.04195 0.95606 0.5628 0.0
O57 O 0.96077 0.90693 0.53085 0.0
C58 C 0.90403 0.91771 0.54282 0.0
O59 O 0.89693 0.95999 0.5711 0.0
C60 C 0.0707 0.02179 0.64475 0.0
C61 C 0.13574 0.14343 0.55444 0.0
O62 O 0.07546 0.15415 0.55901 0.0
O63 O 0.15345 0.09426 0.55267 0.0
O64 O 0.53501 0.46843 0.88515 0.0
Cd65 Cd 0.55341 0.47516 0.95488 0.0
O66 O 0.59782 0.54015 0.88675 0.0
Cd67 Cd 0.58142 0.57018 0.94758 0.0
O68 O 0.50338 0.6219 0.97324 0.0
C69 C 0.44972 0.61526 0.95345 0.0
O70 O 0.44516 0.57678 0.92201 0.0
C71 C 0.5649 0.4996 0.86758 0.0
C72 C 0.6426 0.39948 0.97333 0.0
O73 O 0.58174 0.38785 0.96723 0.0
O74 O 0.66188 0.44702 0.97047 0.0
O75 O 0.53676 0.6144 0.14419 0.0
Cd76 Cd 0.51722 0.63077 0.07985 0.0
O77 O 0.5315 0.52768 0.11962 0.0
Cd78 Cd 0.52031 0.43975 0.10952 0.0
O79 O 0.45576 0.37811 0.07447 0.0
C80 C 0.40278 0.39591 0.06249 0.0
O81 O 0.39126 0.44821 0.07239 0.0
C82 C 0.53971 0.56602 0.14919 0.0
C83 C 0.63272 0.67331 0.06159 0.0
O84 O 0.59278 0.70289 0.08304 0.0
O85 O 0.61718 0.62349 0.04712 0.0
H86 H 0.09445 0.18781 0.04737 0.0
H87 H 0.19907 0.10601 0.95032 0.0
H88 H 0.14521 0.27382 0.04341 0.0
H89 H 0.24912 0.19233 0.94538 0.0
H90 H 0.41849 0.29059 0.02562 0.0
H91 H 0.33424 0.22505 0.9959 0.0
H92 H 0.18966 0.35003 0.01847 0.0
H93 H 0.27459 0.41596 0.04852 0.0
C94 C 0.1244 0.18902 0.02326 0.0
C95 C 0.14418 0.14051 -0.0003 0.0
C96 C 0.15415 0.23838 0.02113 0.0
C97 C 0.20343 0.23933 0.99511 0.0
C98 C 0.21275 0.19244 0.96648 0.0
C99 C 0.18323 0.14311 0.96885 0.0
C100 C 0.36895 0.30435 0.02364 0.0
C101 C 0.35299 0.35811 0.04 0.0
C102 C 0.3206 0.26696 0.00604 0.0
C103 C 0.25502 0.28235 0.00467 0.0
C104 C 0.23964 0.33698 0.01908 0.0
C105 C 0.28828 0.37461 0.03637 0.0
H106 H 0.1668 0.85908 0.93222 0.0
H107 H 0.18634 0.86906 0.05467 0.0
H108 H 0.23257 0.77664 0.92142 0.0
H109 H 0.25048 0.78665 0.04424 0.0
H110 H 0.4458 0.70404 0.01301 0.0
H111 H 0.3612 0.77191 0.02443 0.0
H112 H 0.24632 0.68119 0.92682 0.0
H113 H 0.33151 0.6136 0.91497 0.0
C114 C 0.18307 0.84232 0.95661 0.0
C115 C 0.17164 0.8699 0.99418 0.0
C116 C 0.22091 0.79536 0.95057 0.0
C117 C 0.24776 0.77568 0.98208 0.0
C118 C 0.23179 0.80135 0.01943 0.0
C119 C 0.19444 0.84809 0.02539 0.0
C120 C 0.40222 0.69819 0.99424 0.0
C121 C 0.39563 0.65355 0.96297 0.0
C122 C 0.35346 0.73697 0.00089 0.0
C123 C 0.2969 0.73198 0.97647 0.0
C124 C 0.28954 0.68652 0.94586 0.0
C125 C 0.33828 0.64767 0.93924 0.0
H126 H 0.89125 0.92809 0.06307 0.0
H127 H 0.94054 0.81625 0.95942 0.0
H128 H 0.83912 0.85477 0.08558 0.0
H129 H 0.89212 0.74121 0.98267 0.0
H130 H 0.68524 0.67164 0.99275 0.0
H131 H 0.78122 0.72229 0.98144 0.0
H132 H 0.81955 0.77428 0.10455 0.0
H133 H 0.72037 0.72685 0.11522 0.0
C134 C 0.895 0.8869 0.04642 0.0
C135 C 0.9193 0.87755 0.00956 0.0
C136 C 0.86456 0.84455 0.05912 0.0
C137 C 0.85905 0.79208 0.03524 0.0
C138 C 0.89323 0.78143 0.00115 0.0
C139 C 0.9224 0.82411 0.98816 0.0
C140 C 0.71503 0.69332 0.0172 0.0
C141 C 0.69553 0.69636 0.05473 0.0
C142 C 0.77058 0.72194 0.0109 0.0
C143 C 0.80848 0.75292 0.04215 0.0
C144 C 0.79101 0.75208 0.07979 0.0
C145 C 0.73444 0.72484 0.08597 0.0
H146 H 0.96487 0.18043 0.98784 0.0
H147 H 0.81135 0.12358 0.04877 0.0
H148 H 0.90211 0.26152 0.98361 0.0
H149 H 0.74985 0.20515 0.04619 0.0
H150 H 0.61639 0.29411 0.97623 0.0
H151 H 0.6905 0.22724 0.99272 0.0
H152 H 0.84799 0.34605 0.01106 0.0
H153 H 0.77338 0.41317 0.99343 0.0
C154 C 0.91919 0.18669 0.00201 0.0
C155 C 0.89282 0.1459 0.01864 0.0
C156 C 0.88291 0.23295 -0.00064 0.0
C157 C 0.81995 0.23915 0.01358 0.0
C158 C 0.79716 0.20092 0.03383 0.0
C159 C 0.83283 0.1546 0.03595 0.0
C160 C 0.66671 0.30622 0.98388 0.0
C161 C 0.68876 0.35912 0.98359 0.0
C162 C 0.7093 0.26791 0.99375 0.0
C163 C 0.77525 0.28136 0.00393 0.0
C164 C 0.79761 0.33423 0.00338 0.0
C165 C 0.7548 0.37272 0.99335 0.0
H166 H 0.63172 0.69093 0.57891 0.0
H167 H 0.67279 0.62269 0.46109 0.0
H168 H 0.67737 0.7779 0.57333 0.0
H169 H 0.71731 0.71067 0.45459 0.0
H170 H 0.90538 0.81893 0.49244 0.0
H171 H 0.82048 0.74885 0.48023 0.0
H172 H 0.69179 0.85857 0.55055 0.0
H173 H 0.77773 0.92815 0.56374 0.0
C174 C 0.64659 0.69574 0.55096 0.0
C175 C 0.64849 0.65035 0.52041 0.0
C176 C 0.67346 0.74567 0.54773 0.0
C177 C 0.70286 0.75116 0.51375 0.0
C178 C 0.6966 0.70754 0.4815 0.0
C179 C 0.66977 0.6574 0.48487 0.0
C180 C 0.85858 0.82851 0.5047 0.0
C181 C 0.84883 0.87887 0.52959 0.0
C182 C 0.8094 0.78837 0.49739 0.0
C183 C 0.74905 0.79765 0.51463 0.0
C184 C 0.73786 0.84954 0.53727 0.0
C185 C 0.78718 0.88957 0.54474 0.0
H186 H 0.76626 0.40656 0.45632 0.0
H187 H 0.60485 0.32754 0.4971 0.0
H188 H 0.82808 0.32329 0.44933 0.0
H189 H 0.66735 0.24317 0.48987 0.0
H190 H 0.80728 0.09486 0.43657 0.0
H191 H 0.72983 0.16895 0.4396 0.0
H192 H 0.87319 0.28146 0.50543 0.0
H193 H 0.95038 0.20798 0.50268 0.0
C194 C 0.74329 0.37073 0.46266 0.0
C195 C 0.68098 0.3735 0.47743 0.0
C196 C 0.77894 0.32329 0.45908 0.0
C197 C 0.7531 0.27741 0.47008 0.0
C198 C 0.68844 0.27826 0.48147 0.0
C199 C 0.6525 0.32622 0.48521 0.0
C200 C 0.82191 0.13527 0.45222 0.0
C201 C 0.88533 0.14566 0.46898 0.0
C202 C 0.77749 0.17754 0.45394 0.0
C203 C 0.79604 0.23095 0.47208 0.0
C204 C 0.85812 0.24073 0.49061 0.0
C205 C 0.90219 0.19856 0.48922 0.0
H206 H 0.33907 0.3372 0.43909 0.0
H207 H 0.41838 0.41388 0.55233 0.0
H208 H 0.28164 0.27048 0.46603 0.0
H209 H 0.36036 0.34499 0.57949 0.0
H210 H 0.26811 0.13566 0.55145 0.0
H211 H 0.34563 0.20482 0.5406 0.0
H212 H 0.18916 0.31716 0.53881 0.0
H213 H 0.1113 0.24857 0.54971 0.0
C214 C 0.34561 0.33896 0.46974 0.0
C215 C 0.38297 0.38099 0.49368 0.0
C216 C 0.31254 0.30074 0.48504 0.0
C217 C 0.31635 0.30316 0.52464 0.0
C218 C 0.35693 0.34275 0.54873 0.0
C219 C 0.39042 0.38165 0.53324 0.0
C220 C 0.25031 0.1754 0.54939 0.0
C221 C 0.18342 0.18644 0.55103 0.0
C222 C 0.29484 0.21503 0.5437 0.0
C223 C 0.27325 0.26633 0.53974 0.0
C224 C 0.20691 0.27815 0.54272 0.0
C225 C 0.1624 0.23869 0.54853 0.0
H226 H 0.45605 0.67462 0.4608 0.0
H227 H 0.34659 0.6331 0.55123 0.0
H228 H 0.38894 0.75441 0.46138 0.0
H229 H 0.27946 0.71345 0.55246 0.0
H230 H 0.11482 0.79335 0.49089 0.0
H231 H 0.19592 0.7297 0.50519 0.0
H232 H 0.34916 0.84329 0.49459 0.0
H233 H 0.26762 0.90713 0.47987 0.0
C234 C 0.41945 0.6842 0.48206 0.0
C235 C 0.40701 0.64853 0.50646 0.0
C236 C 0.38074 0.72973 0.48231 0.0
C237 C 0.32822 0.74001 0.50665 0.0
C238 C 0.31896 0.70627 0.533 0.0
C239 C 0.35792 0.6608 0.53281 0.0
C240 C 0.16576 0.80502 0.49185 0.0
C241 C 0.18465 0.85523 0.48397 0.0
C242 C 0.21235 0.76869 0.50046 0.0
C243 C 0.27917 0.78144 0.50129 0.0
C244 C 0.29814 0.8321 0.49405 0.0
C245 C 0.25139 0.8687 0.48567 0.0
H246 H 0.1357 0.94851 0.12938 0.0
H247 H 0.96057 0.04264 0.13693 0.0
H248 H 0.12619 0.93793 0.19531 0.0
H249 H 0.95072 0.03153 0.20388 0.0
H250 H 0.9566 0.9483 0.31698 0.0
H251 H 0.9474 0.94737 0.24762 0.0
H252 H 0.13677 0.02499 0.25572 0.0
H253 H 0.14544 0.02719 0.32469 0.0
C254 C 0.09424 0.96593 0.14502 0.0
C255 C 0.04926 -0.00306 0.12838 0.0
C256 C 0.08894 0.95988 0.1827 0.0
C257 C 0.03835 0.98452 0.20468 0.0
C258 C 0.99014 0.01211 0.18729 0.0
C259 C 0.99559 0.01835 0.14915 0.0
C260 C 0.99638 0.96473 0.30377 0.0
C261 C 0.05203 0.98742 0.3261 0.0
C262 C 0.99073 0.96469 0.26431 0.0
C263 C 0.04131 0.98617 0.24655 0.0
C264 C 0.09714 0.00812 0.26882 0.0
C265 C 0.10217 0.00925 0.30821 0.0
H266 H 0.92642 0.0348 0.8605 0.0
H267 H 0.12499 -0.00261 0.88876 0.0
H268 H 0.95694 0.04563 0.79766 0.0
H269 H 0.15574 0.00806 0.82453 0.0
H270 H 0.1257 0.9502 0.68479 0.0
H271 H 0.12169 0.95355 0.75388 0.0
H272 H 0.028 0.10904 0.7691 0.0
H273 H 0.03184 0.10601 0.70038 0.0
C274 C 0.97685 0.02904 0.85332 0.0
C275 C 0.02324 0.01471 0.8795 0.0
C276 C 0.99439 0.03582 0.81737 0.0
C277 C 0.05873 0.02805 0.80635 0.0
C278 C 0.10577 0.01433 0.83249 0.0
C279 C 0.08827 0.00836 0.86911 0.0
C280 C 0.10539 0.98559 0.703 0.0
C281 C 0.0781 0.02742 0.687 0.0
C282 C 0.10365 0.98765 0.74257 0.0
C283 C 0.07408 0.03132 0.76665 0.0
C284 C 0.05067 0.07472 0.75104 0.0
C285 C 0.05289 0.07292 0.71167 0.0
H286 H 0.62724 0.42562 0.62564 0.0
H287 H 0.4659 0.53538 0.63394 0.0
H288 H 0.61889 0.42118 0.69293 0.0
H289 H 0.45701 0.53026 0.70205 0.0
H290 H 0.45952 0.45886 0.82038 0.0
H291 H 0.4467 0.45093 0.75029 0.0
H292 H 0.64223 0.5139 0.74977 0.0
H293 H 0.65447 0.52336 0.81954 0.0
C294 C 0.58854 0.44743 0.64163 0.0
C295 C 0.54748 0.48118 0.62477 0.0
C296 C 0.58402 0.44499 0.68012 0.0
C297 C 0.538 0.47594 0.7026 0.0
C298 C 0.49283 0.50597 0.68507 0.0
C299 C 0.4976 0.50866 0.6462 0.0
C300 C 0.49981 0.4706 0.80513 0.0
C301 C 0.55825 0.49127 0.82522 0.0
C302 C 0.49218 0.46652 0.76525 0.0
C303 C 0.5435 0.48173 0.74487 0.0
C304 C 0.60204 0.50177 0.76494 0.0
C305 C 0.60908 0.5071 0.80476 0.0
H306 H 0.49391 0.58752 0.39008 0.0
H307 H 0.61757 0.44863 0.36279 0.0
H308 H 0.50266 0.60371 0.32578 0.0
H309 H 0.63054 0.46654 0.29828 0.0
H310 H 0.55604 0.46894 0.17371 0.0
H311 H 0.5673 0.45692 0.23978 0.0
H312 H 0.56388 0.63146 0.28066 0.0
H313 H 0.54854 0.64307 0.21527 0.0
C314 C 0.52584 0.56217 0.37068 0.0
C315 C 0.55628 0.5177 0.38138 0.0
C316 C 0.53084 0.57123 0.33365 0.0
C317 C 0.56736 0.53643 0.30651 0.0
C318 C 0.60119 0.49366 0.31816 0.0
C319 C 0.59502 0.48397 0.35525 0.0
C320 C 0.55684 0.50464 0.19671 0.0
C321 C 0.54975 0.55684 0.18891 0.0
C322 C 0.56449 0.49785 0.23477 0.0
C323 C 0.56596 0.54321 0.26584 0.0
C324 C 0.56144 0.5954 0.25774 0.0
C325 C 0.55299 0.60206 0.21998 0.0
loop_
_geom_bond_atom_site_label_1
_geom_bond_atom_site_label_2
_geom_bond_distance
_geom_bond_site_symmetry_2
_ccdc_geom_bond_type
O0 Mn1 2.161 1_655 S
O0 C14 1.251 . S
Mn1 O0 2.161 1_455 S
Mn1 O4 2.161 1_544 S
Mn1 O5 2.223 . S
Mn1 O7 2.189 . S
Mn1 O9 2.134 1_554 S
Mn1 O19 2.219 1_444 S
O2 Mn3 2.087 1_545 S
O2 C14 1.250 1_556 S
Mn3 O2 2.087 1_565 S
Mn3 O10 2.089 1_565 S
Mn3 O19 2.290 . S
Mn3 O20 2.251 . S
O4 Mn1 2.161 1_566 S
O4 C15 1.239 1_556 S
O5 Mn1 2.223 . S
O5 Mn6 2.290 . S
O5 C16 1.278 . S
Mn6 O5 2.290 . S
Mn6 O8 2.089 1_545 S
Mn6 O11 2.251 . S
Mn6 O12 2.087 . S
O7 Mn1 2.189 . S
O7 C17 1.244 . S
O8 Mn6 2.089 1_565 S
O8 C15 1.256 . S
O9 Mn1 2.134 1_556 S
O9 C18 1.239 . S
O10 Mn3 2.089 1_545 S
O10 C18 1.256 1_655 S
O11 Mn6 2.251 . S
O11 C16 1.241 . S
O12 Mn6 2.087 . S
O12 C17 1.256 . S
C13 O19 1.269 1_554 S
C13 O20 1.237 1_554 S
C14 O0 1.251 . S
C14 O2 1.250 1_554 S
C15 O4 1.239 1_554 S
C15 O8 1.256 . S
C16 O5 1.278 . S
C16 O11 1.241 . S
C17 O7 1.244 . S
C17 O12 1.256 . S
C18 O9 1.239 . S
C18 O10 1.256 1_455 S
O19 Mn1 2.219 1_666 S
O19 Mn3 2.290 . S
O19 C13 1.269 1_556 S
O20 Mn3 2.251 . S
O20 C13 1.237 1_556 S
O21 Mn22 2.163 . S
O21 C35 1.244 . S
Mn22 O21 2.163 . S
Mn22 O25 2.160 . S
Mn22 O26 2.221 . S
Mn22 O28 2.163 . S
Mn22 O30 2.160 . S
Mn22 O40 2.221 . S
O23 Mn24 2.087 . S
O23 C35 1.256 . S
Mn24 O23 2.087 . S
Mn24 O31 2.089 . S
Mn24 O40 2.290 . S
Mn24 O41 2.251 . S
O25 Mn22 2.160 . S
O25 C36 1.239 . S
O26 Mn22 2.221 . S
O26 Mn27 2.290 . S
O26 C37 1.278 . S
Mn27 O26 2.290 . S
Mn27 O29 2.089 . S
Mn27 O32 2.251 . S
Mn27 O33 2.087 . S
O28 Mn22 2.163 . S
O28 C38 1.244 . S
O29 Mn27 2.089 . S
O29 C36 1.256 . S
O30 Mn22 2.160 . S
O30 C39 1.239 . S
O31 Mn24 2.089 . S
O31 C39 1.256 . S
O32 Mn27 2.251 . S
O32 C37 1.241 . S
O33 Mn27 2.087 . S
O33 C38 1.256 . S
C34 O40 1.278 . S
C34 O41 1.241 . S
C35 O21 1.244 . S
C35 O23 1.256 . S
C36 O25 1.239 . S
C36 O29 1.256 . S
C37 O26 1.278 . S
C37 O32 1.241 . S
C38 O28 1.244 . S
C38 O33 1.256 . S
C39 O30 1.239 . S
C39 O31 1.256 . S
O40 Mn22 2.221 . S
O40 Mn24 2.290 . S
O40 C34 1.278 . S
O41 Mn24 2.251 . S
O41 C34 1.241 . S
O42 Cd43 2.300 . S
O42 C49 1.275 1_565 S
Cd43 O42 2.300 . S
Cd43 O51 2.381 . S
Cd43 O52 2.378 . S
O44 Cd45 2.385 . S
O44 C49 1.255 . S
Cd45 O44 2.385 . S
Cd45 O46 2.317 1_455 S
O46 Cd45 2.317 1_655 S
O46 C47 1.232 . S
C47 O46 1.232 . S
C47 O48 1.218 . S
O48 C47 1.218 . S
C49 O42 1.275 1_545 S
C49 O44 1.255 . S
C50 O51 1.258 . S
C50 O52 1.256 . S
O51 Cd43 2.381 . S
O51 C50 1.258 . S
O52 Cd43 2.378 . S
O52 C50 1.256 . S
O53 Cd54 2.300 . S
O53 C60 1.275 . S
Cd54 O53 2.300 . S
Cd54 O62 2.381 . S
Cd54 O63 2.378 . S
O55 Cd56 2.395 . S
O55 C60 1.246 1_565 S
Cd56 O55 2.395 . S
Cd56 O57 2.317 1_455 S
O57 Cd56 2.317 1_655 S
O57 C58 1.232 . S
C58 O57 1.232 . S
C58 O59 1.218 . S
O59 C58 1.218 . S
C60 O53 1.275 . S
C60 O55 1.246 1_545 S
C61 O62 1.258 . S
C61 O63 1.256 . S
O62 Cd54 2.381 . S
O62 C61 1.258 . S
O63 Cd54 2.378 . S
O63 C61 1.256 . S
O64 Cd65 2.300 . S
O64 C71 1.275 . S
Cd65 O64 2.300 . S
Cd65 O73 2.381 . S
Cd65 O74 2.378 . S
O66 Cd67 2.385 . S
O66 C71 1.255 . S
Cd67 O66 2.385 . S
Cd67 O68 2.317 . S
O68 Cd67 2.317 . S
O68 C69 1.232 . S
C69 O68 1.232 . S
C69 O70 1.218 . S
O70 C69 1.218 . S
C71 O64 1.275 . S
C71 O66 1.255 . S
C72 O73 1.258 . S
C72 O74 1.256 . S
O73 Cd65 2.381 . S
O73 C72 1.258 . S
O74 Cd65 2.378 . S
O74 C72 1.256 . S
O75 Cd76 2.300 . S
O75 C82 1.275 . S
Cd76 O75 2.300 . S
Cd76 O84 2.381 . S
Cd76 O85 2.378 . S
O77 Cd78 2.385 . S
O77 C82 1.255 . S
Cd78 O77 2.385 . S
Cd78 O79 2.317 . S
O79 Cd78 2.317 . S
O79 C80 1.232 . S
C80 O79 1.232 . S
C80 O81 1.218 . S
O81 C80 1.218 . S
C82 O75 1.275 . S
C82 O77 1.255 . S
C83 O84 1.258 . S
C83 O85 1.256 . S
O84 Cd76 2.381 . S
O84 C83 1.258 . S
O85 Cd76 2.378 . S
O85 C83 1.256 . S
H86 C94 0.950 . S
H87 C99 0.950 . S
H88 C96 0.950 . S
H89 C98 0.950 1_556 S
H90 C100 0.950 . S
H91 C102 0.950 1_556 S
H92 C104 0.950 . S
H93 C105 0.950 . S
C94 H86 0.950 . S
C94 C95 1.386 . S
C94 C96 1.391 . S
C95 C94 1.386 . S
C95 C99 1.393 1_554 S
C96 H88 0.950 . S
C96 C94 1.391 . S
C96 C97 1.400 . S
C97 C96 1.400 . S
C97 C98 1.398 . S
C97 C103 1.491 . S
C98 H89 0.950 1_554 S
C98 C97 1.398 . S
C98 C99 1.391 1_554 S
C99 H87 0.950 . S
C99 C95 1.393 1_556 S
C99 C98 1.391 1_556 S
C100 H90 0.950 . S
C100 C101 1.386 . S
C100 C102 1.391 . S
C101 C100 1.386 . S
C101 C105 1.393 . S
C102 H91 0.950 1_554 S
C102 C100 1.391 . S
C102 C103 1.400 . S
C103 C97 1.491 . S
C103 C102 1.400 . S
C103 C104 1.398 . S
C104 H92 0.950 . S
C104 C103 1.398 . S
C104 C105 1.391 . S
C105 H93 0.950 . S
C105 C101 1.393 . S
C105 C104 1.391 . S
H106 C114 0.950 . S
H107 C119 0.950 . S
H108 C116 0.950 . S
H109 C118 0.950 . S
H110 C120 0.950 . S
H111 C122 0.950 . S
H112 C124 0.950 . S
H113 C125 0.950 . S
C114 H106 0.950 . S
C114 C115 1.403 . S
C114 C116 1.391 . S
C115 C114 1.403 . S
C115 C119 1.375 1_556 S
C116 H108 0.950 . S
C116 C114 1.391 . S
C116 C117 1.400 . S
C117 C116 1.400 . S
C117 C118 1.398 1_556 S
C117 C123 1.491 . S
C118 H109 0.950 . S
C118 C117 1.398 1_554 S
C118 C119 1.391 . S
C119 H107 0.950 . S
C119 C115 1.375 1_554 S
C119 C118 1.391 . S
C120 H110 0.950 . S
C120 C121 1.386 1_554 S
C120 C122 1.391 . S
C121 C120 1.386 1_556 S
C121 C125 1.393 . S
C122 H111 0.950 . S
C122 C120 1.391 . S
C122 C123 1.400 1_554 S
C123 C117 1.491 . S
C123 C122 1.400 1_556 S
C123 C124 1.398 . S
C124 H112 0.950 . S
C124 C123 1.398 . S
C124 C125 1.391 . S
C125 H113 0.950 . S
C125 C121 1.393 . S
C125 C124 1.391 . S
H126 C134 0.950 . S
H127 C139 0.950 . S
H128 C136 0.950 . S
H129 C138 0.950 . S
H130 C140 0.960 . S
H131 C142 0.950 . S
H132 C144 0.950 . S
H133 C145 0.950 . S
C134 H126 0.950 . S
C134 C135 1.386 . S
C134 C136 1.391 . S
C135 C134 1.386 . S
C135 C139 1.393 1_554 S
C136 H128 0.950 . S
C136 C134 1.391 . S
C136 C137 1.400 . S
C137 C136 1.400 . S
C137 C138 1.398 1_554 S
C137 C143 1.491 . S
C138 H129 0.950 . S
C138 C137 1.398 1_556 S
C138 C139 1.391 . S
C139 H127 0.950 . S
C139 C135 1.393 1_556 S
C139 C138 1.391 . S
C140 H130 0.960 . S
C140 C141 1.371 1_556 S
C140 C142 1.395 . S
C141 C140 1.371 1_554 S
C141 C145 1.393 . S
C142 H131 0.950 . S
C142 C140 1.395 . S
C142 C143 1.400 1_556 S
C143 C137 1.491 . S
C143 C142 1.400 1_554 S
C143 C144 1.398 . S
C144 H132 0.950 . S
C144 C143 1.398 . S
C144 C145 1.391 . S
C145 H133 0.950 . S
C145 C141 1.393 . S
C145 C144 1.391 . S
H146 C154 0.950 1_554 S
H147 C159 0.950 . S
H148 C156 0.950 . S
H149 C158 0.950 . S
H150 C160 0.950 . S
H151 C162 0.950 . S
H152 C164 0.950 . S
H153 C165 0.950 . S
C154 H146 0.950 1_556 S
C154 C155 1.382 1_556 S
C154 C156 1.395 . S
C155 C154 1.382 1_554 S
C155 C159 1.393 1_554 S
C156 H148 0.950 . S
C156 C154 1.395 . S
C156 C157 1.400 . S
C157 C156 1.400 . S
C157 C158 1.398 . S
C157 C163 1.491 . S
C158 H149 0.950 . S
C158 C157 1.398 . S
C158 C159 1.391 . S
C159 H147 0.950 . S
C159 C155 1.393 1_556 S
C159 C158 1.391 . S
C160 H150 0.950 . S
C160 C161 1.386 . S
C160 C162 1.391 . S
C161 C160 1.386 . S
C161 C165 1.393 . S
C162 H151 0.950 . S
C162 C160 1.391 . S
C162 C163 1.400 . S
C163 C157 1.491 . S
C163 C162 1.400 . S
C163 C164 1.398 . S
C164 H152 0.950 . S
C164 C163 1.398 . S
C164 C165 1.391 . S
C165 H153 0.950 . S
C165 C161 1.393 . S
C165 C164 1.391 . S
H166 C174 0.950 . S
H167 C179 0.950 . S
H168 C176 0.950 . S
H169 C178 0.950 . S
H170 C180 0.950 . S
H171 C182 0.950 . S
H172 C184 0.950 . S
H173 C185 0.950 . S
C174 H166 0.950 . S
C174 C175 1.386 . S
C174 C176 1.391 . S
C175 C174 1.386 . S
C175 C179 1.393 . S
C176 H168 0.950 . S
C176 C174 1.391 . S
C176 C177 1.400 . S
C177 C176 1.400 . S
C177 C178 1.398 . S
C177 C183 1.491 . S
C178 H169 0.950 . S
C178 C177 1.398 . S
C178 C179 1.391 . S
C179 H167 0.950 . S
C179 C175 1.393 . S
C179 C178 1.391 . S
C180 H170 0.950 . S
C180 C181 1.386 . S
C180 C182 1.391 . S
C181 C180 1.386 . S
C181 C185 1.393 . S
C182 H171 0.950 . S
C182 C180 1.391 . S
C182 C183 1.400 . S
C183 C177 1.491 . S
C183 C182 1.400 . S
C183 C184 1.398 . S
C184 H172 0.950 . S
C184 C183 1.398 . S
C184 C185 1.391 . S
C185 H173 0.950 . S
C185 C181 1.393 . S
C185 C184 1.391 . S
H186 C194 0.950 . S
H187 C199 0.950 . S
H188 C196 0.950 . S
H189 C198 0.950 . S
H190 C200 0.950 . S
H191 C202 0.950 . S
H192 C204 0.950 . S
H193 C205 0.950 . S
C194 H186 0.950 . S
C194 C195 1.386 . S
C194 C196 1.391 . S
C195 C194 1.386 . S
C195 C199 1.393 . S
C196 H188 0.950 . S
C196 C194 1.391 . S
C196 C197 1.400 . S
C197 C196 1.400 . S
C197 C198 1.398 . S
C197 C203 1.491 . S
C198 H189 0.950 . S
C198 C197 1.398 . S
C198 C199 1.391 . S
C199 H187 0.950 . S
C199 C195 1.393 . S
C199 C198 1.391 . S
C200 H190 0.950 . S
C200 C201 1.386 . S
C200 C202 1.391 . S
C201 C200 1.386 . S
C201 C205 1.393 . S
C202 H191 0.950 . S
C202 C200 1.391 . S
C202 C203 1.400 . S
C203 C197 1.491 . S
C203 C202 1.400 . S
C203 C204 1.398 . S
C204 H192 0.950 . S
C204 C203 1.398 . S
C204 C205 1.391 . S
C205 H193 0.950 . S
C205 C201 1.393 . S
C205 C204 1.391 . S
H206 C214 0.950 . S
H207 C219 0.950 . S
H208 C216 0.950 . S
H209 C218 0.950 . S
H210 C220 0.950 . S
H211 C222 0.950 . S
H212 C224 0.950 . S
H213 C225 0.950 . S
C214 H206 0.950 . S
C214 C215 1.386 . S
C214 C216 1.391 . S
C215 C214 1.386 . S
C215 C219 1.393 . S
C216 H208 0.950 . S
C216 C214 1.391 . S
C216 C217 1.400 . S
C217 C216 1.400 . S
C217 C218 1.398 . S
C217 C223 1.491 . S
C218 H209 0.950 . S
C218 C217 1.398 . S
C218 C219 1.391 . S
C219 H207 0.950 . S
C219 C215 1.393 . S
C219 C218 1.391 . S
C220 H210 0.950 . S
C220 C221 1.386 . S
C220 C222 1.391 . S
C221 C220 1.386 . S
C221 C225 1.393 . S
C222 H211 0.950 . S
C222 C220 1.391 . S
C222 C223 1.400 . S
C223 C217 1.491 . S
C223 C222 1.400 . S
C223 C224 1.398 . S
C224 H212 0.950 . S
C224 C223 1.398 . S
C224 C225 1.391 . S
C225 H213 0.950 . S
C225 C221 1.393 . S
C225 C224 1.391 . S
H226 C234 0.950 . S
H227 C239 0.950 . S
H228 C236 0.950 . S
H229 C238 0.950 . S
H230 C240 0.950 . S
H231 C242 0.950 . S
H232 C244 0.950 . S
H233 C245 0.950 . S
C234 H226 0.950 . S
C234 C235 1.386 . S
C234 C236 1.391 . S
C235 C234 1.386 . S
C235 C239 1.393 . S
C236 H228 0.950 . S
C236 C234 1.391 . S
C236 C237 1.400 . S
C237 C236 1.400 . S
C237 C238 1.398 . S
C237 C243 1.491 . S
C238 H229 0.950 . S
C238 C237 1.398 . S
C238 C239 1.391 . S
C239 H227 0.950 . S
C239 C235 1.393 . S
C239 C238 1.391 . S
C240 H230 0.950 . S
C240 C241 1.386 . S
C240 C242 1.391 . S
C241 C240 1.386 . S
C241 C245 1.393 . S
C242 H231 0.950 . S
C242 C240 1.391 . S
C242 C243 1.400 . S
C243 C237 1.491 . S
C243 C242 1.400 . S
C243 C244 1.398 . S
C244 H232 0.950 . S
C244 C243 1.398 . S
C244 C245 1.391 . S
C245 H233 0.950 . S
C245 C241 1.393 . S
C245 C244 1.391 . S
H246 C254 0.950 . S
H247 C259 0.950 . S
H248 C256 0.950 . S
H249 C258 0.950 . S
H250 C260 0.950 . S
H251 C262 0.950 . S
H252 C264 0.950 1_565 S
H253 C265 0.951 . S
C254 H246 0.950 . S
C254 C255 1.386 . S
C254 C256 1.391 . S
C255 C254 1.386 . S
C255 C259 1.393 1_455 S
C256 H248 0.950 . S
C256 C254 1.391 . S
C256 C257 1.400 . S
C257 C256 1.400 . S
C257 C258 1.398 1_455 S
C257 C263 1.491 . S
C258 H249 0.950 . S
C258 C257 1.398 1_655 S
C258 C259 1.391 . S
C259 H247 0.950 . S
C259 C255 1.393 1_655 S
C259 C258 1.391 . S
C260 H250 0.950 . S
C260 C261 1.386 1_655 S
C260 C262 1.391 . S
C261 C260 1.386 1_455 S
C261 C265 1.393 . S
C262 H251 0.950 . S
C262 C260 1.391 . S
C262 C263 1.400 1_655 S
C263 C257 1.491 . S
C263 C262 1.400 1_455 S
C263 C264 1.398 . S
C264 H252 0.950 1_545 S
C264 C263 1.398 . S
C264 C265 1.391 . S
C265 H253 0.951 . S
C265 C261 1.393 . S
C265 C264 1.391 . S
H266 C274 0.950 . S
H267 C279 0.950 1_565 S
H268 C276 0.950 . S
H269 C278 0.950 . S
H270 C280 0.950 . S
H271 C282 0.950 . S
H272 C284 0.950 . S
H273 C285 0.950 . S
C274 H266 0.950 . S
C274 C275 1.386 1_655 S
C274 C276 1.391 . S
C275 C274 1.386 1_455 S
C275 C279 1.393 . S
C276 H268 0.950 . S
C276 C274 1.391 . S
C276 C277 1.400 1_655 S
C277 C276 1.400 1_455 S
C277 C278 1.398 . S
C277 C283 1.491 . S
C278 H269 0.950 . S
C278 C277 1.398 . S
C278 C279 1.391 . S
C279 H267 0.950 1_545 S
C279 C275 1.393 . S
C279 C278 1.391 . S
C280 H270 0.950 . S
C280 C281 1.386 1_455 S
C280 C282 1.391 . S
C281 C280 1.386 1_655 S
C281 C285 1.393 . S
C282 H271 0.950 . S
C282 C280 1.391 . S
C282 C283 1.400 . S
C283 C277 1.491 . S
C283 C282 1.400 . S
C283 C284 1.398 1_455 S
C284 H272 0.950 . S
C284 C283 1.398 1_655 S
C284 C285 1.391 . S
C285 H273 0.950 . S
C285 C281 1.393 . S
C285 C284 1.391 . S
H286 C294 0.950 . S
H287 C299 0.950 . S
H288 C296 0.950 . S
H289 C298 0.950 . S
H290 C300 0.950 . S
H291 C302 0.950 . S
H292 C304 0.950 . S
H293 C305 0.950 . S
C294 H286 0.950 . S
C294 C295 1.386 . S
C294 C296 1.391 . S
C295 C294 1.386 . S
C295 C299 1.393 . S
C296 H288 0.950 . S
C296 C294 1.391 . S
C296 C297 1.400 . S
C297 C296 1.400 . S
C297 C298 1.398 . S
C297 C303 1.491 . S
C298 H289 0.950 . S
C298 C297 1.398 . S
C298 C299 1.391 . S
C299 H287 0.950 . S
C299 C295 1.393 . S
C299 C298 1.391 . S
C300 H290 0.950 . S
C300 C301 1.386 . S
C300 C302 1.391 . S
C301 C300 1.386 . S
C301 C305 1.393 . S
C302 H291 0.950 . S
C302 C300 1.391 . S
C302 C303 1.400 . S
C303 C297 1.491 . S
C303 C302 1.400 . S
C303 C304 1.398 . S
C304 H292 0.950 . S
C304 C303 1.398 . S
C304 C305 1.391 . S
C305 H293 0.950 . S
C305 C301 1.393 . S
C305 C304 1.391 . S
H306 C314 0.950 . S
H307 C319 0.950 . S
H308 C316 0.950 . S
H309 C318 0.950 . S
H310 C320 0.950 . S
H311 C322 0.950 . S
H312 C324 0.950 . S
H313 C325 0.950 . S
C314 H306 0.950 . S
C314 C315 1.386 . S
C314 C316 1.391 . S
C315 C314 1.386 . S
C315 C319 1.393 . S
C316 H308 0.950 . S
C316 C314 1.391 . S
C316 C317 1.400 . S
C317 C316 1.400 . S
C317 C318 1.398 . S
C317 C323 1.491 . S
C318 H309 0.950 . S
C318 C317 1.398 . S
C318 C319 1.391 . S
C319 H307 0.950 . S
C319 C315 1.393 . S
C319 C318 1.391 . S
C320 H310 0.950 . S
C320 C321 1.386 . S
C320 C322 1.391 . S
C321 C320 1.386 . S
C321 C325 1.393 . S
C322 H311 0.950 . S
C322 C320 1.391 . S
C322 C323 1.400 . S
C323 C317 1.491 . S
C323 C322 1.400 . S
C323 C324 1.398 . S
C324 H312 0.950 . S
C324 C323 1.398 . S
C324 C325 1.391 . S
C325 H313 0.950 . S
C325 C321 1.393 . S
C325 C324 1.391 . S
C101 C80 1.221 . S
C95 C16 1.242 . S
C115 C15 1.469 1_556 S
C121 C69 1.295 . S
C135 C13 1.276 . S
C141 C83 1.423 . S
C155 C14 1.345 . S
C161 C72 1.391 . S
C175 C37 1.261 . S
C181 C58 1.214 . S
C195 C36 1.476 . S
C201 C47 1.253 . S
C221 C61 1.429 . S
C215 C34 1.282 . S
C241 C50 1.387 . S
C235 C35 1.345 . S
C255 C17 1.515 . S
C261 C49 1.514 . S
C275 C18 1.386 . S
C281 C60 1.380 1_655 S
C301 C71 1.516 . S
C295 C38 1.513 . S
C315 C39 1.391 . S
C321 C82 1.385 . S
