# Generated by pormake.
# Topology rtl, (3,6)-cn, num edge types: 1
# Building blocks:
#     Node 0, Type 0, BuildingBlock: OLANEW_clean_sbu_2, # of connection points: 3
#     Node 1, Type 0, BuildingBlock: OLANEW_clean_sbu_2, # of connection points: 3
#     Node 2, Type 0, BuildingBlock: OLANEW_clean_sbu_2, # of connection points: 3
#     Node 3, Type 0, BuildingBlock: OLANEW_clean_sbu_2, # of connection points: 3
#     Node 4, Type 1, BuildingBlock: KUMBOL_clean_sbu_1, # of connection points: 6
#     Node 5, Type 1, BuildingBlock: KUMBOL_clean_sbu_1, # of connection points: 6
#     Edge 6, Type (0, 1), BuildingBlock: EYOCIG_clean_linker_4, # of connection points: 2
#     Edge 7, Type (0, 1), BuildingBlock: EYOCIG_clean_linker_4, # of connection points: 2
#     Edge 8, Type (0, 1), BuildingBlock: EYOCIG_clean_linker_4, # of connection points: 2
#     Edge 9, Type (0, 1), BuildingBlock: EYOCIG_clean_linker_4, # of connection points: 2
#     Edge 10, Type (0, 1), BuildingBlock: EYOCIG_clean_linker_4, # of connection points: 2
#     Edge 11, Type (0, 1), BuildingBlock: EYOCIG_clean_linker_4, # of connection points: 2
#     Edge 12, Type (0, 1), BuildingBlock: EYOCIG_clean_linker_4, # of connection points: 2
#     Edge 13, Type (0, 1), BuildingBlock: EYOCIG_clean_linker_4, # of connection points: 2
#     Edge 14, Type (0, 1), BuildingBlock: EYOCIG_clean_linker_4, # of connection points: 2
#     Edge 15, Type (0, 1), BuildingBlock: EYOCIG_clean_linker_4, # of connection points: 2
#     Edge 16, Type (0, 1), BuildingBlock: EYOCIG_clean_linker_4, # of connection points: 2
#     Edge 17, Type (0, 1), BuildingBlock: EYOCIG_clean_linker_4, # of connection points: 2
# Relax obj value: 0.046
# Max RMSD: 0.176
# Mean RMSD: 0.138
data_MOF--net-rtl--node1-OLANEW_clean_sbu_2--node2-KUMBOL_clean_sbu_1--edge1-EYOCIG_clean_linker_4
_symmetry_space_group_name_H-M    P1
_symmetry_Int_Tables_number       1
_symmetry_cell_setting            triclinic
loop_
_symmetry_equiv_pos_as_xyz
'x, y, z'
_cell_length_a     30.082046
_cell_length_b     30.00299
_cell_length_c     24.163201
_cell_angle_alpha  73.70138
_cell_angle_beta   103.16299
_cell_angle_gamma 91.660334
loop_
_atom_site_label
_atom_site_type_symbol
_atom_site_fract_x
_atom_site_fract_y
_atom_site_fract_z
_atom_type_partial_charge
O0 O 0.23834 0.88004 0.9505 0.0
Cd1 Cd 0.29523 0.8503 0.04346 0.0
O2 O 0.2299 0.95046 0.9587 0.0
Cd3 Cd 0.27491 0.93348 0.04561 0.0
O4 O 0.25395 0.92678 0.12748 0.0
C5 C 0.21737 0.94996 0.12005 0.0
O6 O 0.19646 0.97406 0.06649 0.0
C7 C 0.2193 0.92034 0.93076 0.0
C8 C 0.34868 0.77699 0.04042 0.0
O9 O 0.30518 0.77724 0.02614 0.0
O10 O 0.36798 0.8114 0.05618 0.0
O11 O 0.66792 0.73592 0.74566 0.0
Cd12 Cd 0.70969 0.76948 0.66676 0.0
O13 O 0.66372 0.66559 0.73232 0.0
Cd14 Cd 0.70008 0.6758 0.6625 0.0
O15 O 0.67092 0.68246 0.56978 0.0
C16 C 0.63185 0.66541 0.55889 0.0
O17 O 0.61385 0.64232 0.60273 0.0
C18 C 0.65385 0.69454 0.75757 0.0
C19 C 0.78092 0.83215 0.66756 0.0
O20 O 0.74164 0.84406 0.672 0.0
O21 O 0.78775 0.79031 0.66737 0.0
O22 O 0.7965 0.15763 0.19145 0.0
Cd23 Cd 0.75461 0.20059 0.09165 0.0
O24 O 0.86504 0.16123 0.17173 0.0
Cd25 Cd 0.84354 0.19677 0.07835 0.0
O26 O 0.83305 0.16736 0.00439 0.0
C27 C 0.85557 0.12942 0.01612 0.0
O28 O 0.88466 0.11409 0.06741 0.0
C29 C 0.83916 0.14778 0.20749 0.0
C30 C 0.6948 0.27189 0.08561 0.0
O31 O 0.686 0.22939 0.1068 0.0
O32 O 0.73207 0.28126 0.0684 0.0
O33 O 0.35978 0.30061 0.55611 0.0
Cd34 Cd 0.3183 0.27534 0.47155 0.0
O35 O 0.3611 0.37503 0.50894 0.0
Cd36 Cd 0.32656 0.36602 0.42417 0.0
O37 O 0.35745 0.36446 0.35219 0.0
C38 C 0.39447 0.38589 0.35338 0.0
O39 O 0.40884 0.40733 0.39427 0.0
C40 C 0.3721 0.34149 0.55564 0.0
C41 C 0.25174 0.21164 0.49743 0.0
O42 O 0.29387 0.2016 0.52231 0.0
O43 O 0.24047 0.25184 0.46103 0.0
C44 C 0.94729 0.17196 0.51649 0.0
C45 C 0.86551 0.1651 0.48483 0.0
C46 C 0.90921 0.14491 0.51588 0.0
C47 C 0.86105 0.21227 0.45238 0.0
C48 C 0.94288 0.21955 0.48434 0.0
C49 C 0.8997 0.23936 0.45181 0.0
N50 N 0.98843 0.15201 0.54955 0.0
C51 C 0.02639 0.1781 0.55306 0.0
C52 C 0.98195 0.24599 0.48653 0.0
C53 C 0.0238 0.22522 0.52126 0.0
Gd54 Gd 0.04556 0.96637 0.54938 0.0
Gd55 Gd 0.98924 0.07222 0.60142 0.0
N56 N 0.91469 0.09919 0.54709 0.0
C57 C 0.82745 0.13749 0.48842 0.0
C58 C 0.87749 0.07258 0.55212 0.0
C59 C 0.83345 0.09121 0.52276 0.0
H60 H 0.88148 0.0372 0.57976 0.0
H61 H 0.80408 0.06991 0.52703 0.0
H62 H 0.15308 1.00295 0.57065 0.0
H63 H 0.05874 0.16291 0.581 0.0
H64 H 0.23085 0.97122 0.62319 0.0
H65 H 0.79331 0.15176 0.4658 0.0
H66 H 0.82782 0.22821 0.42806 0.0
H67 H 0.9776 0.87471 0.57054 0.0
H68 H 0.98005 0.28253 0.46235 0.0
H69 H 0.05408 0.24561 0.52399 0.0
H70 H 0.20911 0.81263 0.72306 0.0
H71 H 0.89575 0.27577 0.42687 0.0
H72 H 0.05765 0.75632 0.68988 0.0
H73 H 0.98323 0.7922 0.62826 0.0
N74 N 0.04771 0.8866 0.60161 0.0
C75 C 0.08905 0.86727 0.63475 0.0
C76 C 1.01011 0.86 0.59847 0.0
C77 C 0.05532 0.7928 0.6654 0.0
C78 C 0.01325 0.81298 0.63068 0.0
C79 C 0.09404 0.81976 0.66722 0.0
H80 H 0.14182 0.76418 0.72485 0.0
N81 N 0.12058 0.94061 0.60388 0.0
C82 C 0.1267 0.89491 0.63522 0.0
C83 C 0.20833 0.90335 0.66228 0.0
C84 C 0.17064 0.87527 0.66618 0.0
C85 C 0.15747 0.96766 0.59854 0.0
C86 C 0.20175 0.94956 0.62775 0.0
O87 O 0.97588 0.07843 0.50369 0.0
O88 O 0.97909 1.00333 0.49461 0.0
O89 O 0.07933 0.98353 0.47438 0.0
O90 O 0.03704 0.92254 0.49086 0.0
O91 O 0.96042 1.00087 0.6218 0.0
O92 O 0.9721 0.95843 0.55789 0.0
O93 O 0.05611 0.95837 0.64702 0.0
O94 O 0.0552 0.0335 0.65488 0.0
O95 O 0.95635 0.05426 0.67657 0.0
O96 O 0.99783 0.11601 0.66055 0.0
O97 O 0.07325 0.03841 0.52831 0.0
O98 O 0.06279 0.07846 0.59503 0.0
C99 C 0.96785 0.04788 0.47314 0.0
C100 C 0.95157 0.96684 0.59703 0.0
C101 C 0.06974 0.93554 0.40475 0.0
C102 C 0.10699 0.94405 0.3225 0.0
C103 C 0.04926 0.88701 0.33788 0.0
C104 C 0.04414 0.89985 0.38716 0.0
C105 C 0.08035 0.90902 0.30568 0.0
C106 C 0.10137 0.95823 0.37163 0.0
C107 C 0.06207 0.94786 0.45731 0.0
C108 C 0.1757 0.82813 0.69882 0.0
C109 C 0.13742 0.80053 0.69971 0.0
H110 H 0.24263 0.88951 0.68476 0.0
C111 C 0.06317 0.98855 0.67795 0.0
C112 C 0.08269 0.07141 0.55479 0.0
C113 C 0.96484 0.10088 0.74689 0.0
C114 C 0.92546 0.08944 0.82728 0.0
C115 C 0.98292 0.14748 0.81629 0.0
C116 C 0.98966 0.13611 0.76668 0.0
C117 C 0.95101 0.12433 0.84643 0.0
C118 C 0.93272 0.07698 0.778 0.0
C119 C 0.97318 0.0899 0.69402 0.0
H120 H 0.02934 0.85947 0.32495 0.0
H121 H 0.01979 0.88168 0.41146 0.0
H122 H 0.0843 0.89782 0.26804 0.0
H123 H 0.12188 0.98551 0.38459 0.0
H124 H 1.00213 0.17472 0.83104 0.0
H125 H 0.01449 0.15501 0.7438 0.0
H126 H 0.94566 0.13437 0.88427 0.0
H127 H 0.91286 0.05004 0.76322 0.0
C128 C 0.66224 0.58182 0.07316 0.0
C129 C 0.65581 0.66575 0.03321 0.0
C130 C 0.63607 0.62287 0.05452 0.0
C131 C 0.70166 0.66654 0.02891 0.0
C132 C 0.7085 0.58254 0.06949 0.0
C133 C 0.72787 0.62501 0.0467 0.0
N134 N 0.64272 0.54135 0.09588 0.0
C135 C 0.66803 0.50054 0.11718 0.0
C136 C 0.73411 0.54059 0.08962 0.0
C137 C 0.71385 0.4995 0.1139 0.0
Gd138 Gd 0.45835 0.503 0.98153 0.0
Gd139 Gd 0.56539 0.54702 0.09972 0.0
N140 N 0.59153 0.62091 0.05824 0.0
C141 C 0.62905 0.70664 0.01785 0.0
C142 C 0.56573 0.66074 0.04489 0.0
C143 C 0.58399 0.70413 0.02431 0.0
H144 H 0.5313 0.6592 0.05112 0.0
H145 H 0.56338 0.73566 0.01381 0.0
H146 H 0.49222 0.39036 0.03073 0.0
H147 H 0.65326 0.46872 0.13768 0.0
H148 H 0.46047 0.31428 0.06961 0.0
H149 H 0.64304 0.74028 0.00188 0.0
H150 H 0.71726 0.69911 0.01235 0.0
H151 H 0.37054 0.58124 0.94456 0.0
H152 H 0.76965 0.53965 0.08746 0.0
H153 H 0.73365 0.467 0.1306 0.0
H154 H 0.30697 0.35107 0.07189 0.0
H155 H 0.76326 0.62616 0.04347 0.0
H156 H 0.25445 0.51041 0.99618 0.0
H157 H 0.29025 0.583 0.9524 0.0
N158 N 0.38112 0.50865 0.98633 0.0
C159 C 0.36172 0.46823 0.0096 0.0
C160 C 0.3558 0.54944 0.96519 0.0
C161 C 0.28991 0.50945 0.99362 0.0
C162 C 0.31006 0.55051 0.96897 0.0
C163 C 0.31554 0.46753 0.01371 0.0
H164 H 0.26092 0.42398 0.04045 0.0
N165 N 0.43233 0.4291 0.02407 0.0
C166 C 0.38793 0.42722 0.02843 0.0
C167 C 0.39499 0.34346 0.06597 0.0
C168 C 0.36827 0.38438 0.05035 0.0
C169 C 0.45801 0.38915 0.03756 0.0
C170 C 0.43989 0.34585 0.05898 0.0
O171 O 0.56936 0.56531 0.00374 0.0
O172 O 0.4965 0.56588 0.94295 0.0
O173 O 0.46916 0.46781 0.91715 0.0
O174 O 0.41214 0.51852 0.89479 0.0
O175 O 0.49438 0.57889 0.07734 0.0
O176 O 0.45459 0.57749 0.98273 0.0
O177 O 0.45469 0.48835 0.07757 0.0
O178 O 0.52947 0.4817 0.13391 0.0
O179 O 0.55276 0.58087 0.16466 0.0
O180 O 0.61115 0.53192 0.18662 0.0
O181 O 0.52838 0.46816 0.00539 0.0
O182 O 0.57035 0.47296 0.09788 0.0
C183 C 0.53996 0.57621 0.95213 0.0
C184 C 0.46257 0.59442 0.02859 0.0
C185 C 0.41983 0.48445 0.81693 0.0
C186 C 0.42559 0.44574 0.74248 0.0
C187 C 0.37056 0.50955 0.71789 0.0
C188 C 0.3847 0.51384 0.77518 0.0
C189 C 0.39081 0.47563 0.70162 0.0
C190 C 0.44079 0.45042 0.8 0.0
C191 C 0.43441 0.49054 0.87714 0.0
C192 C 0.32249 0.38361 0.05495 0.0
C193 C 0.29626 0.42511 0.03695 0.0
H194 H 0.38109 0.30988 0.08247 0.0
C195 C 0.48569 0.4739 0.1275 0.0
C196 C 0.56113 0.45421 0.05358 0.0
C197 C 0.60213 0.56469 0.26489 0.0
C198 C 0.59545 0.60252 0.33983 0.0
C199 C 0.65128 0.53942 0.36399 0.0
C200 C 0.63744 0.53545 0.30654 0.0
C201 C 0.63044 0.57276 0.38057 0.0
C202 C 0.5807 0.59829 0.28205 0.0
C203 C 0.58807 0.55905 0.20445 0.0
H204 H 0.34338 0.53219 0.68621 0.0
H205 H 0.36806 0.54036 0.78672 0.0
H206 H 0.37851 0.47203 0.65731 0.0
H207 H 0.46752 0.427 0.83159 0.0
H208 H 0.6785 0.51682 0.39566 0.0
H209 H 0.65444 0.50927 0.29482 0.0
H210 H 0.64212 0.57571 0.42528 0.0
H211 H 0.55354 0.62129 0.2507 0.0
C212 C 0.18832 0.15152 0.52004 0.0
C213 C 0.21776 0.17852 0.51026 0.0
C214 C 0.15226 0.12243 0.53202 0.0
C215 C 0.12045 0.09914 0.54249 0.0
C216 C 0.39398 0.70538 0.03471 0.0
C217 C 0.3748 0.7388 0.03802 0.0
C218 C 0.41542 0.66644 0.02904 0.0
C219 C 0.43553 0.63363 0.02574 0.0
C220 C 0.84585 0.89087 0.64446 0.0
C221 C 0.81482 0.86605 0.6553 0.0
C222 C 0.88257 0.91711 0.62687 0.0
C223 C 0.91426 0.93878 0.6118 0.0
C224 C 0.6374 0.34008 0.07444 0.0
C225 C 0.66305 0.30835 0.07999 0.0
C226 C 0.60936 0.3789 0.06693 0.0
C227 C 0.58708 0.4133 0.06032 0.0
C228 C 0.18547 0.95914 0.20944 0.0
C229 C 0.2012 0.95397 0.16991 0.0
C230 C 0.16423 0.96431 0.25386 0.0
C231 C 0.14141 0.96117 0.28979 0.0
C232 C 0.59946 0.65988 0.82906 0.0
C233 C 0.62419 0.6796 0.7977 0.0
C234 C 0.57382 0.63184 0.86715 0.0
C235 C 0.55592 0.60659 0.9036 0.0
C236 C 0.88125 0.09891 0.31416 0.0
C237 C 0.85919 0.12087 0.26663 0.0
C238 C 0.911 0.07754 0.36893 0.0
C239 C 0.937 0.06267 0.4163 0.0
C240 C 0.4229 0.3614 0.64895 0.0
C241 C 0.39978 0.34997 0.60795 0.0
C242 C 0.44028 0.38271 0.69393 0.0
C243 C 0.44058 0.40785 0.72496 0.0
C244 C 0.58983 0.66921 0.44931 0.0
C245 C 0.60919 0.66759 0.49927 0.0
C246 C 0.57618 0.65881 0.39481 0.0
C247 C 0.57776 0.63789 0.35948 0.0
C248 C 0.85395 0.08423 0.93681 0.0
C249 C 0.85349 0.10597 0.97163 0.0
C250 C 0.86759 0.06875 0.89319 0.0
C251 C 0.89013 0.07052 0.85745 0.0
C252 C 0.438 0.40147 0.26754 0.0
C253 C 0.41679 0.39306 0.30555 0.0
C254 C 0.45807 0.42175 0.21972 0.0
C255 C 0.47125 0.44552 0.17801 0.0
C256 C 0.15271 0.94263 0.8351 0.0
C257 C 0.18326 0.93116 0.87859 0.0
C258 C 0.11885 0.95852 0.78267 0.0
C259 C 0.0934 0.97307 0.73494 0.0
loop_
_geom_bond_atom_site_label_1
_geom_bond_atom_site_label_2
_geom_bond_distance
_geom_bond_site_symmetry_2
_ccdc_geom_bond_type
O0 Cd1 2.300 1_556 S
O0 C7 1.275 . S
Cd1 O0 2.300 1_554 S
Cd1 O9 2.381 . S
Cd1 O10 2.378 . S
O2 Cd3 2.385 1_556 S
O2 C7 1.255 . S
Cd3 O2 2.385 1_554 S
Cd3 O4 2.317 . S
O4 Cd3 2.317 . S
O4 C5 1.232 . S
C5 O4 1.232 . S
C5 O6 1.218 . S
O6 C5 1.218 . S
C7 O0 1.275 . S
C7 O2 1.255 . S
C8 O9 1.258 . S
C8 O10 1.256 . S
O9 Cd1 2.381 . S
O9 C8 1.258 . S
O10 Cd1 2.378 . S
O10 C8 1.256 . S
O11 Cd12 2.300 . S
O11 C18 1.275 . S
Cd12 O11 2.300 . S
Cd12 O20 2.381 . S
Cd12 O21 2.378 . S
O13 Cd14 2.385 . S
O13 C18 1.255 . S
Cd14 O13 2.385 . S
Cd14 O15 2.317 . S
O15 Cd14 2.317 . S
O15 C16 1.232 . S
C16 O15 1.232 . S
C16 O17 1.218 . S
O17 C16 1.218 . S
C18 O11 1.275 . S
C18 O13 1.255 . S
C19 O20 1.258 . S
C19 O21 1.256 . S
O20 Cd12 2.381 . S
O20 C19 1.258 . S
O21 Cd12 2.378 . S
O21 C19 1.256 . S
O22 Cd23 2.300 . S
O22 C29 1.275 . S
Cd23 O22 2.300 . S
Cd23 O31 2.381 . S
Cd23 O32 2.378 . S
O24 Cd25 2.385 . S
O24 C29 1.255 . S
Cd25 O24 2.385 . S
Cd25 O26 2.317 . S
O26 Cd25 2.317 . S
O26 C27 1.232 . S
C27 O26 1.232 . S
C27 O28 1.218 . S
O28 C27 1.218 . S
C29 O22 1.275 . S
C29 O24 1.255 . S
C30 O31 1.258 . S
C30 O32 1.256 . S
O31 Cd23 2.381 . S
O31 C30 1.258 . S
O32 Cd23 2.378 . S
O32 C30 1.256 . S
O33 Cd34 2.300 . S
O33 C40 1.275 . S
Cd34 O33 2.300 . S
Cd34 O42 2.381 . S
Cd34 O43 2.378 . S
O35 Cd36 2.385 . S
O35 C40 1.255 . S
Cd36 O35 2.385 . S
Cd36 O37 2.317 . S
O37 Cd36 2.317 . S
O37 C38 1.232 . S
C38 O37 1.232 . S
C38 O39 1.218 . S
O39 C38 1.218 . S
C40 O33 1.275 . S
C40 O35 1.255 . S
C41 O42 1.258 . S
C41 O43 1.256 . S
O42 Cd34 2.381 . S
O42 C41 1.258 . S
O43 Cd34 2.378 . S
O43 C41 1.256 . S
C44 C46 1.422 . S
C44 C48 1.415 . S
C44 N50 1.369 . S
C45 C46 1.421 . S
C45 C47 1.417 . S
C45 C57 1.422 . S
C46 C44 1.422 . S
C46 C45 1.421 . S
C46 N56 1.359 . S
C47 C45 1.417 . S
C47 C49 1.329 . S
C47 H66 0.930 . S
C48 C44 1.415 . S
C48 C49 1.437 . S
C48 C52 1.413 . S
C49 C47 1.329 . S
C49 C48 1.437 . S
C49 H71 0.929 . S
N50 C44 1.369 . S
N50 C51 1.338 1_655 S
N50 Gd55 2.622 . S
C51 N50 1.338 1_455 S
C51 C53 1.378 . S
C51 H63 0.929 . S
C52 C48 1.413 . S
C52 C53 1.348 1_655 S
C52 H68 0.931 . S
C53 C51 1.378 . S
C53 C52 1.348 1_455 S
C53 H69 0.930 . S
Gd54 N74 2.622 . S
Gd54 N81 2.570 . S
Gd54 O88 2.353 1_465 S
Gd54 O89 2.468 . S
Gd54 O90 2.427 . S
Gd54 O92 2.388 1_455 S
Gd54 O93 2.386 . S
Gd54 O97 2.307 1_565 S
Gd54 C107 2.805 . S
Gd55 N50 2.622 . S
Gd55 N56 2.570 . S
Gd55 O87 2.386 . S
Gd55 O91 2.307 1_545 S
Gd55 O94 2.353 1_655 S
Gd55 O95 2.468 . S
Gd55 O96 2.427 . S
Gd55 O98 2.388 1_655 S
Gd55 C119 2.805 . S
N56 C46 1.359 . S
N56 Gd55 2.570 . S
N56 C58 1.343 . S
C57 C45 1.422 . S
C57 C59 1.321 . S
C57 H65 0.931 . S
C58 N56 1.343 . S
C58 C59 1.390 . S
C58 H60 0.931 . S
C59 C57 1.321 . S
C59 C58 1.390 . S
C59 H61 0.930 . S
H60 C58 0.931 . S
H61 C59 0.930 . S
H62 C85 0.931 . S
H63 C51 0.929 . S
H64 C86 0.930 . S
H65 C57 0.931 . S
H66 C47 0.930 . S
H67 C76 0.929 1_655 S
H68 C52 0.931 . S
H69 C53 0.930 . S
H70 C108 0.930 . S
H71 C49 0.929 . S
H72 C77 0.931 . S
H73 C78 0.930 1_655 S
N74 Gd54 2.622 . S
N74 C75 1.369 . S
N74 C76 1.338 . S
C75 N74 1.369 . S
C75 C79 1.415 . S
C75 C82 1.422 . S
C76 H67 0.929 1_455 S
C76 N74 1.338 . S
C76 C78 1.378 . S
C77 H72 0.931 . S
C77 C78 1.348 . S
C77 C79 1.413 . S
C78 H73 0.930 1_455 S
C78 C76 1.378 . S
C78 C77 1.348 . S
C79 C75 1.415 . S
C79 C77 1.413 . S
C79 C109 1.437 . S
H80 C109 0.929 . S
N81 Gd54 2.570 . S
N81 C82 1.359 . S
N81 C85 1.343 . S
C82 C75 1.422 . S
C82 N81 1.359 . S
C82 C84 1.421 . S
C83 C84 1.422 . S
C83 C86 1.321 . S
C83 H110 0.931 . S
C84 C82 1.421 . S
C84 C83 1.422 . S
C84 C108 1.417 . S
C85 H62 0.931 . S
C85 N81 1.343 . S
C85 C86 1.390 . S
C86 H64 0.930 . S
C86 C83 1.321 . S
C86 C85 1.390 . S
O87 Gd55 2.386 . S
O87 C99 1.265 . S
O88 Gd54 2.353 1_645 S
O88 C99 1.242 . S
O89 Gd54 2.468 . S
O89 C107 1.263 . S
O90 Gd54 2.427 . S
O90 C107 1.252 . S
O91 Gd55 2.307 1_565 S
O91 C100 1.261 . S
O92 Gd54 2.388 1_655 S
O92 C100 1.252 . S
O93 Gd54 2.386 . S
O93 C111 1.265 . S
O94 Gd55 2.353 1_455 S
O94 C111 1.242 1_545 S
O95 Gd55 2.468 . S
O95 C119 1.263 . S
O96 Gd55 2.427 . S
O96 C119 1.252 . S
O97 Gd54 2.307 1_545 S
O97 C112 1.261 . S
O98 Gd55 2.388 1_455 S
O98 C112 1.252 . S
C99 O87 1.265 . S
C99 O88 1.242 . S
C100 O91 1.261 . S
C100 O92 1.252 . S
C101 C104 1.394 . S
C101 C106 1.370 . S
C101 C107 1.500 . S
C102 C105 1.383 . S
C102 C106 1.395 . S
C103 C104 1.396 . S
C103 C105 1.365 . S
C103 H120 0.929 . S
C104 C101 1.394 . S
C104 C103 1.396 . S
C104 H121 0.930 . S
C105 C102 1.383 . S
C105 C103 1.365 . S
C105 H122 0.931 . S
C106 C101 1.370 . S
C106 C102 1.395 . S
C106 H123 0.930 . S
C107 Gd54 2.805 . S
C107 O89 1.263 . S
C107 O90 1.252 . S
C107 C101 1.500 . S
C108 H70 0.930 . S
C108 C84 1.417 . S
C108 C109 1.329 . S
C109 C79 1.437 . S
C109 H80 0.929 . S
C109 C108 1.329 . S
H110 C83 0.931 . S
C111 O93 1.265 . S
C111 O94 1.242 1_565 S
C112 O97 1.261 . S
C112 O98 1.252 . S
C113 C116 1.394 . S
C113 C118 1.370 . S
C113 C119 1.500 . S
C114 C117 1.383 . S
C114 C118 1.395 . S
C115 C116 1.396 . S
C115 C117 1.365 . S
C115 H124 0.929 . S
C116 C113 1.394 . S
C116 C115 1.396 . S
C116 H125 0.930 . S
C117 C114 1.383 . S
C117 C115 1.365 . S
C117 H126 0.931 . S
C118 C113 1.370 . S
C118 C114 1.395 . S
C118 H127 0.930 . S
C119 Gd55 2.805 . S
C119 O95 1.263 . S
C119 O96 1.252 . S
C119 C113 1.500 . S
H120 C103 0.929 . S
H121 C104 0.930 . S
H122 C105 0.931 . S
H123 C106 0.930 . S
H124 C115 0.929 . S
H125 C116 0.930 . S
H126 C117 0.931 . S
H127 C118 0.930 . S
C128 C130 1.422 . S
C128 C132 1.415 . S
C128 N134 1.369 . S
C129 C130 1.421 . S
C129 C131 1.417 . S
C129 C141 1.422 . S
C130 C128 1.422 . S
C130 C129 1.421 . S
C130 N140 1.359 . S
C131 C129 1.417 . S
C131 C133 1.329 . S
C131 H150 0.930 . S
C132 C128 1.415 . S
C132 C133 1.437 . S
C132 C136 1.413 . S
C133 C131 1.329 . S
C133 C132 1.437 . S
C133 H155 0.929 . S
N134 C128 1.369 . S
N134 C135 1.338 . S
N134 Gd139 2.622 . S
C135 N134 1.338 . S
C135 C137 1.378 . S
C135 H147 0.929 . S
C136 C132 1.413 . S
C136 C137 1.348 . S
C136 H152 0.931 . S
C137 C135 1.378 . S
C137 C136 1.348 . S
C137 H153 0.930 . S
Gd138 N158 2.622 . S
Gd138 N165 2.570 1_556 S
Gd138 O172 2.353 . S
Gd138 O173 2.468 . S
Gd138 O174 2.427 . S
Gd138 O176 2.388 . S
Gd138 O177 2.386 1_556 S
Gd138 O181 2.307 1_556 S
Gd138 C191 2.805 . S
Gd139 N134 2.622 . S
Gd139 N140 2.570 . S
Gd139 O171 2.390 . S
Gd139 O175 2.307 . S
Gd139 O178 2.353 . S
Gd139 O179 2.468 . S
Gd139 O180 2.427 . S
Gd139 O182 2.388 . S
Gd139 C203 2.805 . S
N140 C130 1.359 . S
N140 Gd139 2.570 . S
N140 C142 1.343 . S
C141 C129 1.422 . S
C141 C143 1.321 . S
C141 H149 0.931 . S
C142 N140 1.343 . S
C142 C143 1.390 . S
C142 H144 0.931 . S
C143 C141 1.321 . S
C143 C142 1.390 . S
C143 H145 0.930 . S
H144 C142 0.931 . S
H145 C143 0.930 . S
H146 C169 0.931 . S
H147 C135 0.929 . S
H148 C170 0.930 . S
H149 C141 0.931 . S
H150 C131 0.930 . S
H151 C160 0.929 . S
H152 C136 0.931 . S
H153 C137 0.930 . S
H154 C192 0.930 . S
H155 C133 0.929 . S
H156 C161 0.931 . S
H157 C162 0.930 . S
N158 Gd138 2.622 . S
N158 C159 1.369 1_556 S
N158 C160 1.338 . S
C159 N158 1.369 1_554 S
C159 C163 1.415 . S
C159 C166 1.422 . S
C160 H151 0.929 . S
C160 N158 1.338 . S
C160 C162 1.378 . S
C161 H156 0.931 . S
C161 C162 1.348 1_554 S
C161 C163 1.413 . S
C162 H157 0.930 . S
C162 C160 1.378 . S
C162 C161 1.348 1_556 S
C163 C159 1.415 . S
C163 C161 1.413 . S
C163 C193 1.437 . S
H164 C193 0.929 . S
N165 Gd138 2.570 1_554 S
N165 C166 1.359 . S
N165 C169 1.343 . S
C166 C159 1.422 . S
C166 N165 1.359 . S
C166 C168 1.421 . S
C167 C168 1.422 . S
C167 C170 1.321 . S
C167 H194 0.931 . S
C168 C166 1.421 . S
C168 C167 1.422 . S
C168 C192 1.417 . S
C169 H146 0.931 . S
C169 N165 1.343 . S
C169 C170 1.390 . S
C170 H148 0.930 . S
C170 C167 1.321 . S
C170 C169 1.390 . S
O171 Gd139 2.390 . S
O171 C183 1.262 1_554 S
O172 Gd138 2.353 . S
O172 C183 1.242 . S
O173 Gd138 2.468 . S
O173 C191 1.263 . S
O174 Gd138 2.427 . S
O174 C191 1.252 . S
O175 Gd139 2.307 . S
O175 C184 1.261 . S
O176 Gd138 2.388 . S
O176 C184 1.252 1_556 S
O177 Gd138 2.386 1_554 S
O177 C195 1.265 . S
O178 Gd139 2.353 . S
O178 C195 1.242 . S
O179 Gd139 2.468 . S
O179 C203 1.263 . S
O180 Gd139 2.427 . S
O180 C203 1.252 . S
O181 Gd138 2.307 1_554 S
O181 C196 1.261 . S
O182 Gd139 2.388 . S
O182 C196 1.252 . S
C183 O171 1.262 1_556 S
C183 O172 1.242 . S
C184 O175 1.261 . S
C184 O176 1.252 1_554 S
C185 C188 1.394 . S
C185 C190 1.370 . S
C185 C191 1.500 . S
C186 C189 1.383 . S
C186 C190 1.395 . S
C187 C188 1.396 . S
C187 C189 1.365 . S
C187 H204 0.929 . S
C188 C185 1.394 . S
C188 C187 1.396 . S
C188 H205 0.930 . S
C189 C186 1.383 . S
C189 C187 1.365 . S
C189 H206 0.931 . S
C190 C185 1.370 . S
C190 C186 1.395 . S
C190 H207 0.930 . S
C191 Gd138 2.805 . S
C191 O173 1.263 . S
C191 O174 1.252 . S
C191 C185 1.500 . S
C192 H154 0.930 . S
C192 C168 1.417 . S
C192 C193 1.329 . S
C193 C163 1.437 . S
C193 H164 0.929 . S
C193 C192 1.329 . S
H194 C167 0.931 . S
C195 O177 1.265 . S
C195 O178 1.242 . S
C196 O181 1.261 . S
C196 O182 1.252 . S
C197 C200 1.394 . S
C197 C202 1.370 . S
C197 C203 1.500 . S
C198 C201 1.383 . S
C198 C202 1.395 . S
C199 C200 1.396 . S
C199 C201 1.365 . S
C199 H208 0.929 . S
C200 C197 1.394 . S
C200 C199 1.396 . S
C200 H209 0.930 . S
C201 C198 1.383 . S
C201 C199 1.365 . S
C201 H210 0.931 . S
C202 C197 1.370 . S
C202 C198 1.395 . S
C202 H211 0.930 . S
C203 Gd139 2.805 . S
C203 O179 1.263 . S
C203 O180 1.252 . S
C203 C197 1.500 . S
H204 C187 0.929 . S
H205 C188 0.930 . S
H206 C189 0.931 . S
H207 C190 0.930 . S
H208 C199 0.929 . S
H209 C200 0.930 . S
H210 C201 0.931 . S
H211 C202 0.930 . S
C212 C213 1.170 . S
C212 C214 1.380 . S
C213 C212 1.170 . S
C214 C212 1.380 . S
C214 C215 1.170 . S
C215 C214 1.170 . S
C216 C217 1.170 . S
C216 C218 1.380 . S
C217 C216 1.170 . S
C218 C216 1.380 . S
C218 C219 1.170 . S
C219 C218 1.170 . S
C220 C221 1.170 . S
C220 C222 1.380 . S
C221 C220 1.170 . S
C222 C220 1.380 . S
C222 C223 1.170 . S
C223 C222 1.170 . S
C224 C225 1.170 . S
C224 C226 1.380 . S
C225 C224 1.170 . S
C226 C224 1.380 . S
C226 C227 1.170 . S
C227 C226 1.170 . S
C228 C229 1.170 . S
C228 C230 1.380 . S
C229 C228 1.170 . S
C230 C228 1.380 . S
C230 C231 1.170 . S
C231 C230 1.170 . S
C232 C233 1.170 . S
C232 C234 1.380 . S
C233 C232 1.170 . S
C234 C232 1.380 . S
C234 C235 1.170 . S
C235 C234 1.170 . S
C236 C237 1.170 . S
C236 C238 1.380 . S
C237 C236 1.170 . S
C238 C236 1.380 . S
C238 C239 1.170 . S
C239 C238 1.170 . S
C240 C241 1.170 . S
C240 C242 1.380 . S
C241 C240 1.170 . S
C242 C240 1.380 . S
C242 C243 1.170 . S
C243 C242 1.170 . S
C244 C245 1.170 . S
C244 C246 1.380 . S
C245 C244 1.170 . S
C246 C244 1.380 . S
C246 C247 1.170 . S
C247 C246 1.170 . S
C248 C249 1.170 . S
C248 C250 1.380 . S
C249 C248 1.170 . S
C250 C248 1.380 . S
C250 C251 1.170 . S
C251 C250 1.170 . S
C252 C253 1.170 . S
C252 C254 1.380 . S
C253 C252 1.170 . S
C254 C252 1.380 . S
C254 C255 1.170 . S
C255 C254 1.170 . S
C256 C257 1.170 . S
C256 C258 1.380 . S
C257 C256 1.170 . S
C258 C256 1.380 . S
C258 C259 1.170 . S
C259 C258 1.170 . S
C215 C112 1.624 . S
C213 C41 1.618 . S
C217 C8 1.632 . S
C219 C184 1.626 . S
C221 C19 1.741 . S
C223 C100 1.762 . S
C225 C30 1.592 . S
C227 C196 1.612 . S
C231 C102 1.432 . S
C229 C5 1.472 . S
C235 C183 1.794 . S
C233 C18 1.759 . S
C237 C29 1.621 . S
C239 C99 1.706 . S
C241 C40 1.610 . S
C243 C186 1.533 . S
C247 C198 1.360 . S
C245 C16 1.280 . S
C251 C114 1.374 . S
C249 C27 1.322 1_556 S
C255 C195 1.544 . S
C253 C38 1.322 . S
C257 C7 1.471 . S
C259 C111 1.516 . S
