# Generated by pormake.
# Topology gar, (4,6)-cn, num edge types: 1
# Building blocks:
#     Node 0, Type 0, BuildingBlock: QUQFOY_clean_sbu_1, # of connection points: 4
#     Node 1, Type 0, BuildingBlock: QUQFOY_clean_sbu_1, # of connection points: 4
#     Node 2, Type 0, BuildingBlock: QUQFOY_clean_sbu_1, # of connection points: 4
#     Node 3, Type 0, BuildingBlock: QUQFOY_clean_sbu_1, # of connection points: 4
#     Node 4, Type 0, BuildingBlock: QUQFOY_clean_sbu_1, # of connection points: 4
#     Node 5, Type 0, BuildingBlock: QUQFOY_clean_sbu_1, # of connection points: 4
#     Node 6, Type 0, BuildingBlock: QUQFOY_clean_sbu_1, # of connection points: 4
#     Node 7, Type 0, BuildingBlock: QUQFOY_clean_sbu_1, # of connection points: 4
#     Node 8, Type 0, BuildingBlock: QUQFOY_clean_sbu_1, # of connection points: 4
#     Node 9, Type 0, BuildingBlock: QUQFOY_clean_sbu_1, # of connection points: 4
#     Node 10, Type 0, BuildingBlock: QUQFOY_clean_sbu_1, # of connection points: 4
#     Node 11, Type 0, BuildingBlock: QUQFOY_clean_sbu_1, # of connection points: 4
#     Node 12, Type 0, BuildingBlock: QUQFOY_clean_sbu_1, # of connection points: 4
#     Node 13, Type 0, BuildingBlock: QUQFOY_clean_sbu_1, # of connection points: 4
#     Node 14, Type 0, BuildingBlock: QUQFOY_clean_sbu_1, # of connection points: 4
#     Node 15, Type 0, BuildingBlock: QUQFOY_clean_sbu_1, # of connection points: 4
#     Node 16, Type 0, BuildingBlock: QUQFOY_clean_sbu_1, # of connection points: 4
#     Node 17, Type 0, BuildingBlock: QUQFOY_clean_sbu_1, # of connection points: 4
#     Node 18, Type 0, BuildingBlock: QUQFOY_clean_sbu_1, # of connection points: 4
#     Node 19, Type 0, BuildingBlock: QUQFOY_clean_sbu_1, # of connection points: 4
#     Node 20, Type 0, BuildingBlock: QUQFOY_clean_sbu_1, # of connection points: 4
#     Node 21, Type 0, BuildingBlock: QUQFOY_clean_sbu_1, # of connection points: 4
#     Node 22, Type 0, BuildingBlock: QUQFOY_clean_sbu_1, # of connection points: 4
#     Node 23, Type 0, BuildingBlock: QUQFOY_clean_sbu_1, # of connection points: 4
#     Node 24, Type 1, BuildingBlock: BETDEL_clean_sbu_0, # of connection points: 6
#     Node 25, Type 1, BuildingBlock: BETDEL_clean_sbu_0, # of connection points: 6
#     Node 26, Type 1, BuildingBlock: BETDEL_clean_sbu_0, # of connection points: 6
#     Node 27, Type 1, BuildingBlock: BETDEL_clean_sbu_0, # of connection points: 6
#     Node 28, Type 1, BuildingBlock: BETDEL_clean_sbu_0, # of connection points: 6
#     Node 29, Type 1, BuildingBlock: BETDEL_clean_sbu_0, # of connection points: 6
#     Node 30, Type 1, BuildingBlock: BETDEL_clean_sbu_0, # of connection points: 6
#     Node 31, Type 1, BuildingBlock: BETDEL_clean_sbu_0, # of connection points: 6
#     Node 32, Type 1, BuildingBlock: BETDEL_clean_sbu_0, # of connection points: 6
#     Node 33, Type 1, BuildingBlock: BETDEL_clean_sbu_0, # of connection points: 6
#     Node 34, Type 1, BuildingBlock: BETDEL_clean_sbu_0, # of connection points: 6
#     Node 35, Type 1, BuildingBlock: BETDEL_clean_sbu_0, # of connection points: 6
#     Node 36, Type 1, BuildingBlock: BETDEL_clean_sbu_0, # of connection points: 6
#     Node 37, Type 1, BuildingBlock: BETDEL_clean_sbu_0, # of connection points: 6
#     Node 38, Type 1, BuildingBlock: BETDEL_clean_sbu_0, # of connection points: 6
#     Node 39, Type 1, BuildingBlock: BETDEL_clean_sbu_0, # of connection points: 6
#     Edge 40, Type (0, 1), BuildingBlock: KIFKEQ_clean_linker_1, # of connection points: 2
#     Edge 41, Type (0, 1), BuildingBlock: KIFKEQ_clean_linker_1, # of connection points: 2
#     Edge 42, Type (0, 1), BuildingBlock: KIFKEQ_clean_linker_1, # of connection points: 2
#     Edge 43, Type (0, 1), BuildingBlock: KIFKEQ_clean_linker_1, # of connection points: 2
#     Edge 44, Type (0, 1), BuildingBlock: KIFKEQ_clean_linker_1, # of connection points: 2
#     Edge 45, Type (0, 1), BuildingBlock: KIFKEQ_clean_linker_1, # of connection points: 2
#     Edge 46, Type (0, 1), BuildingBlock: KIFKEQ_clean_linker_1, # of connection points: 2
#     Edge 47, Type (0, 1), BuildingBlock: KIFKEQ_clean_linker_1, # of connection points: 2
#     Edge 48, Type (0, 1), BuildingBlock: KIFKEQ_clean_linker_1, # of connection points: 2
#     Edge 49, Type (0, 1), BuildingBlock: KIFKEQ_clean_linker_1, # of connection points: 2
#     Edge 50, Type (0, 1), BuildingBlock: KIFKEQ_clean_linker_1, # of connection points: 2
#     Edge 51, Type (0, 1), BuildingBlock: KIFKEQ_clean_linker_1, # of connection points: 2
#     Edge 52, Type (0, 1), BuildingBlock: KIFKEQ_clean_linker_1, # of connection points: 2
#     Edge 53, Type (0, 1), BuildingBlock: KIFKEQ_clean_linker_1, # of connection points: 2
#     Edge 54, Type (0, 1), BuildingBlock: KIFKEQ_clean_linker_1, # of connection points: 2
#     Edge 55, Type (0, 1), BuildingBlock: KIFKEQ_clean_linker_1, # of connection points: 2
#     Edge 56, Type (0, 1), BuildingBlock: KIFKEQ_clean_linker_1, # of connection points: 2
#     Edge 57, Type (0, 1), BuildingBlock: KIFKEQ_clean_linker_1, # of connection points: 2
#     Edge 58, Type (0, 1), BuildingBlock: KIFKEQ_clean_linker_1, # of connection points: 2
#     Edge 59, Type (0, 1), BuildingBlock: KIFKEQ_clean_linker_1, # of connection points: 2
#     Edge 60, Type (0, 1), BuildingBlock: KIFKEQ_clean_linker_1, # of connection points: 2
#     Edge 61, Type (0, 1), BuildingBlock: KIFKEQ_clean_linker_1, # of connection points: 2
#     Edge 62, Type (0, 1), BuildingBlock: KIFKEQ_clean_linker_1, # of connection points: 2
#     Edge 63, Type (0, 1), BuildingBlock: KIFKEQ_clean_linker_1, # of connection points: 2
#     Edge 64, Type (0, 1), BuildingBlock: KIFKEQ_clean_linker_1, # of connection points: 2
#     Edge 65, Type (0, 1), BuildingBlock: KIFKEQ_clean_linker_1, # of connection points: 2
#     Edge 66, Type (0, 1), BuildingBlock: KIFKEQ_clean_linker_1, # of connection points: 2
#     Edge 67, Type (0, 1), BuildingBlock: KIFKEQ_clean_linker_1, # of connection points: 2
#     Edge 68, Type (0, 1), BuildingBlock: KIFKEQ_clean_linker_1, # of connection points: 2
#     Edge 69, Type (0, 1), BuildingBlock: KIFKEQ_clean_linker_1, # of connection points: 2
#     Edge 70, Type (0, 1), BuildingBlock: KIFKEQ_clean_linker_1, # of connection points: 2
#     Edge 71, Type (0, 1), BuildingBlock: KIFKEQ_clean_linker_1, # of connection points: 2
#     Edge 72, Type (0, 1), BuildingBlock: KIFKEQ_clean_linker_1, # of connection points: 2
#     Edge 73, Type (0, 1), BuildingBlock: KIFKEQ_clean_linker_1, # of connection points: 2
#     Edge 74, Type (0, 1), BuildingBlock: KIFKEQ_clean_linker_1, # of connection points: 2
#     Edge 75, Type (0, 1), BuildingBlock: KIFKEQ_clean_linker_1, # of connection points: 2
#     Edge 76, Type (0, 1), BuildingBlock: KIFKEQ_clean_linker_1, # of connection points: 2
#     Edge 77, Type (0, 1), BuildingBlock: KIFKEQ_clean_linker_1, # of connection points: 2
#     Edge 78, Type (0, 1), BuildingBlock: KIFKEQ_clean_linker_1, # of connection points: 2
#     Edge 79, Type (0, 1), BuildingBlock: KIFKEQ_clean_linker_1, # of connection points: 2
#     Edge 80, Type (0, 1), BuildingBlock: KIFKEQ_clean_linker_1, # of connection points: 2
#     Edge 81, Type (0, 1), BuildingBlock: KIFKEQ_clean_linker_1, # of connection points: 2
#     Edge 82, Type (0, 1), BuildingBlock: KIFKEQ_clean_linker_1, # of connection points: 2
#     Edge 83, Type (0, 1), BuildingBlock: KIFKEQ_clean_linker_1, # of connection points: 2
#     Edge 84, Type (0, 1), BuildingBlock: KIFKEQ_clean_linker_1, # of connection points: 2
#     Edge 85, Type (0, 1), BuildingBlock: KIFKEQ_clean_linker_1, # of connection points: 2
#     Edge 86, Type (0, 1), BuildingBlock: KIFKEQ_clean_linker_1, # of connection points: 2
#     Edge 87, Type (0, 1), BuildingBlock: KIFKEQ_clean_linker_1, # of connection points: 2
#     Edge 88, Type (0, 1), BuildingBlock: KIFKEQ_clean_linker_1, # of connection points: 2
#     Edge 89, Type (0, 1), BuildingBlock: KIFKEQ_clean_linker_1, # of connection points: 2
#     Edge 90, Type (0, 1), BuildingBlock: KIFKEQ_clean_linker_1, # of connection points: 2
#     Edge 91, Type (0, 1), BuildingBlock: KIFKEQ_clean_linker_1, # of connection points: 2
#     Edge 92, Type (0, 1), BuildingBlock: KIFKEQ_clean_linker_1, # of connection points: 2
#     Edge 93, Type (0, 1), BuildingBlock: KIFKEQ_clean_linker_1, # of connection points: 2
#     Edge 94, Type (0, 1), BuildingBlock: KIFKEQ_clean_linker_1, # of connection points: 2
#     Edge 95, Type (0, 1), BuildingBlock: KIFKEQ_clean_linker_1, # of connection points: 2
#     Edge 96, Type (0, 1), BuildingBlock: KIFKEQ_clean_linker_1, # of connection points: 2
#     Edge 97, Type (0, 1), BuildingBlock: KIFKEQ_clean_linker_1, # of connection points: 2
#     Edge 98, Type (0, 1), BuildingBlock: KIFKEQ_clean_linker_1, # of connection points: 2
#     Edge 99, Type (0, 1), BuildingBlock: KIFKEQ_clean_linker_1, # of connection points: 2
#     Edge 100, Type (0, 1), BuildingBlock: KIFKEQ_clean_linker_1, # of connection points: 2
#     Edge 101, Type (0, 1), BuildingBlock: KIFKEQ_clean_linker_1, # of connection points: 2
#     Edge 102, Type (0, 1), BuildingBlock: KIFKEQ_clean_linker_1, # of connection points: 2
#     Edge 103, Type (0, 1), BuildingBlock: KIFKEQ_clean_linker_1, # of connection points: 2
#     Edge 104, Type (0, 1), BuildingBlock: KIFKEQ_clean_linker_1, # of connection points: 2
#     Edge 105, Type (0, 1), BuildingBlock: KIFKEQ_clean_linker_1, # of connection points: 2
#     Edge 106, Type (0, 1), BuildingBlock: KIFKEQ_clean_linker_1, # of connection points: 2
#     Edge 107, Type (0, 1), BuildingBlock: KIFKEQ_clean_linker_1, # of connection points: 2
#     Edge 108, Type (0, 1), BuildingBlock: KIFKEQ_clean_linker_1, # of connection points: 2
#     Edge 109, Type (0, 1), BuildingBlock: KIFKEQ_clean_linker_1, # of connection points: 2
#     Edge 110, Type (0, 1), BuildingBlock: KIFKEQ_clean_linker_1, # of connection points: 2
#     Edge 111, Type (0, 1), BuildingBlock: KIFKEQ_clean_linker_1, # of connection points: 2
#     Edge 112, Type (0, 1), BuildingBlock: KIFKEQ_clean_linker_1, # of connection points: 2
#     Edge 113, Type (0, 1), BuildingBlock: KIFKEQ_clean_linker_1, # of connection points: 2
#     Edge 114, Type (0, 1), BuildingBlock: KIFKEQ_clean_linker_1, # of connection points: 2
#     Edge 115, Type (0, 1), BuildingBlock: KIFKEQ_clean_linker_1, # of connection points: 2
#     Edge 116, Type (0, 1), BuildingBlock: KIFKEQ_clean_linker_1, # of connection points: 2
#     Edge 117, Type (0, 1), BuildingBlock: KIFKEQ_clean_linker_1, # of connection points: 2
#     Edge 118, Type (0, 1), BuildingBlock: KIFKEQ_clean_linker_1, # of connection points: 2
#     Edge 119, Type (0, 1), BuildingBlock: KIFKEQ_clean_linker_1, # of connection points: 2
#     Edge 120, Type (0, 1), BuildingBlock: KIFKEQ_clean_linker_1, # of connection points: 2
#     Edge 121, Type (0, 1), BuildingBlock: KIFKEQ_clean_linker_1, # of connection points: 2
#     Edge 122, Type (0, 1), BuildingBlock: KIFKEQ_clean_linker_1, # of connection points: 2
#     Edge 123, Type (0, 1), BuildingBlock: KIFKEQ_clean_linker_1, # of connection points: 2
#     Edge 124, Type (0, 1), BuildingBlock: KIFKEQ_clean_linker_1, # of connection points: 2
#     Edge 125, Type (0, 1), BuildingBlock: KIFKEQ_clean_linker_1, # of connection points: 2
#     Edge 126, Type (0, 1), BuildingBlock: KIFKEQ_clean_linker_1, # of connection points: 2
#     Edge 127, Type (0, 1), BuildingBlock: KIFKEQ_clean_linker_1, # of connection points: 2
#     Edge 128, Type (0, 1), BuildingBlock: KIFKEQ_clean_linker_1, # of connection points: 2
#     Edge 129, Type (0, 1), BuildingBlock: KIFKEQ_clean_linker_1, # of connection points: 2
#     Edge 130, Type (0, 1), BuildingBlock: KIFKEQ_clean_linker_1, # of connection points: 2
#     Edge 131, Type (0, 1), BuildingBlock: KIFKEQ_clean_linker_1, # of connection points: 2
#     Edge 132, Type (0, 1), BuildingBlock: KIFKEQ_clean_linker_1, # of connection points: 2
#     Edge 133, Type (0, 1), BuildingBlock: KIFKEQ_clean_linker_1, # of connection points: 2
#     Edge 134, Type (0, 1), BuildingBlock: KIFKEQ_clean_linker_1, # of connection points: 2
#     Edge 135, Type (0, 1), BuildingBlock: KIFKEQ_clean_linker_1, # of connection points: 2
# Relax obj value: 0.156
# Max RMSD: 0.275
# Mean RMSD: 0.181
data_MOF--net-gar--node1-QUQFOY_clean_sbu_1--node2-BETDEL_clean_sbu_0--edge1-KIFKEQ_clean_linker_1
_symmetry_space_group_name_H-M    P1
_symmetry_Int_Tables_number       1
_symmetry_cell_setting            triclinic
loop_
_symmetry_equiv_pos_as_xyz
'x, y, z'
_cell_length_a     57.903528
_cell_length_b     55.142787
_cell_length_c     56.624708
_cell_angle_alpha  95.823843
_cell_angle_beta   92.918294
_cell_angle_gamma 103.34223
loop_
_atom_site_label
_atom_site_type_symbol
_atom_site_fract_x
_atom_site_fract_y
_atom_site_fract_z
_atom_type_partial_charge
O0 O 0.03104 0.23712 0.40691 0.0
Cd1 Cd 0.03497 0.26563 0.38476 0.0
Cd2 Cd 0.0206 0.28913 0.42631 0.0
O3 O 0.0265 0.25834 0.44088 0.0
O4 O 0.04998 0.2528 0.35661 0.0
O5 O 0.06795 0.28647 0.38096 0.0
C6 C 0.06844 0.27102 0.36234 0.0
C7 C 0.03083 0.3285 0.44869 0.0
C8 C 0.02895 0.23826 0.42927 0.0
C9 C 0.98852 0.2813 0.38151 0.0
O10 O 0.99039 0.28487 0.40407 0.0
O11 O 0.00525 0.27551 0.37017 0.0
O12 O 0.01354 0.31095 0.4537 0.0
O13 O 0.04343 0.32327 0.43155 0.0
O14 O 0.97614 0.73044 0.62013 0.0
Cd15 Cd 0.98574 0.75935 0.64758 0.0
Cd16 Cd 0.01179 0.78383 0.61407 0.0
O17 O 0.99696 0.75035 0.59331 0.0
O18 O 0.96398 0.75007 0.67314 0.0
O19 O 0.9653 0.78401 0.65511 0.0
C20 C 0.95639 0.76999 0.67092 0.0
C21 C 0.01185 0.82038 0.59622 0.0
C22 C 0.98325 0.73075 0.59926 0.0
C23 C 0.03911 0.77294 0.65688 0.0
O24 O 0.04014 0.7834 0.63782 0.0
O25 O 0.01909 0.76282 0.66404 0.0
O26 O 0.02647 0.80664 0.59089 0.0
O27 O 0.9972 0.81359 0.61211 0.0
O28 O 0.57597 0.76986 0.89205 0.0
Cd29 Cd 0.55415 0.77364 0.9195 0.0
Cd30 Cd 0.53071 0.79322 0.88176 0.0
O31 O 0.55587 0.78096 0.86239 0.0
O32 O 0.56421 0.75382 0.94406 0.0
O33 O 0.52835 0.74379 0.92517 0.0
C34 C 0.54338 0.7388 0.94052 0.0
C35 C 0.49295 0.79074 0.86333 0.0
C36 C 0.57334 0.7729 0.87017 0.0
C37 C 0.5498 0.82705 0.92794 0.0
O38 O 0.54138 0.82434 0.90644 0.0
O39 O 0.55517 0.80879 0.93714 0.0
O40 O 0.51162 0.80633 0.858 0.0
O41 O 0.49581 0.77542 0.87844 0.0
O42 O 0.48267 0.22131 0.12112 0.0
Cd43 Cd 0.48962 0.25227 0.1465 0.0
Cd44 Cd 0.51253 0.27596 0.11087 0.0
O45 O 0.50005 0.2408 0.09219 0.0
O46 O 0.46834 0.24296 0.17254 0.0
O47 O 0.46656 0.27452 0.15201 0.0
C48 C 0.45872 0.26121 0.16871 0.0
C49 C 0.50753 0.31076 0.09235 0.0
C50 C 0.48898 0.22082 0.09992 0.0
C51 C 0.54286 0.27148 0.15428 0.0
O52 O 0.54234 0.27973 0.13411 0.0
O53 O 0.52367 0.26076 0.16267 0.0
O54 O 0.52287 0.29834 0.08578 0.0
O55 O 0.49495 0.30349 0.10967 0.0
O56 O 0.02495 0.74929 0.1483 0.0
Cd57 Cd 0.02763 0.78232 0.17045 0.0
Cd58 Cd 0.04856 0.80388 0.13377 0.0
O59 O 0.04022 0.76734 0.11774 0.0
O60 O 0.00612 0.774 0.19638 0.0
O61 O 1.00114 0.80058 0.17092 0.0
C62 C 0.99426 0.78933 0.18917 0.0
C63 C 0.03808 0.83414 0.11194 0.0
C64 C 0.03131 0.74764 0.12713 0.0
C65 C 0.0792 0.80931 0.1793 0.0
O66 O 0.07844 0.81371 0.15768 0.0
O67 O 0.06053 0.79794 0.18807 0.0
O68 O 0.05581 0.82456 0.10697 0.0
O69 O 0.02633 0.8268 0.12975 0.0
O70 O 0.54376 0.76267 0.37466 0.0
Cd71 Cd 0.51942 0.76239 0.4002 0.0
Cd72 Cd 0.49474 0.77799 0.35925 0.0
O73 O 0.5249 0.77267 0.34354 0.0
O74 O 0.53445 0.74801 0.42618 0.0
O75 O 0.49925 0.72947 0.40783 0.0
C76 C 0.51616 0.72929 0.42355 0.0
C77 C 0.4591 0.76816 0.33497 0.0
C78 C 0.54291 0.76675 0.35297 0.0
C79 C 0.50431 0.81152 0.40694 0.0
O80 O 0.49683 0.80787 0.38508 0.0
O81 O 0.51355 0.79561 0.41626 0.0
O82 O 0.47588 0.78751 0.3329 0.0
O83 O 0.46276 0.75361 0.35053 0.0
O84 O 0.52977 0.24887 0.64759 0.0
Cd85 Cd 0.53182 0.28052 0.67163 0.0
Cd86 Cd 0.55517 0.30374 0.63654 0.0
O87 O 0.54691 0.26814 0.61841 0.0
O88 O 0.50914 0.26991 0.69616 0.0
O89 O 0.50523 0.29875 0.67288 0.0
C90 C 0.49754 0.28585 0.6899 0.0
C91 C 0.54601 0.33621 0.61712 0.0
C92 C 0.53704 0.24805 0.62673 0.0
C93 C 0.58346 0.30593 0.68318 0.0
O94 O 0.58377 0.31131 0.66187 0.0
O95 O 0.56416 0.29471 0.691 0.0
O96 O 0.56449 0.32774 0.61261 0.0
O97 O 0.53265 0.32635 0.63293 0.0
O98 O 0.99983 0.21259 0.88557 0.0
Cd99 Cd 0.9977 0.23495 0.85866 0.0
Cd100 Cd 0.97889 0.26139 0.89736 0.0
O101 O 0.98855 0.23449 0.91581 0.0
O102 O 0.01652 0.22176 0.83391 0.0
O103 O 0.02714 0.26043 0.85228 0.0
C104 C 0.03165 0.24319 0.83724 0.0
C105 C 0.98534 0.3022 0.91678 0.0
C106 C 0.99608 0.21573 0.90748 0.0
C107 C 0.94749 0.24131 0.85152 0.0
O108 O 0.94965 0.25094 0.87313 0.0
O109 O 0.96484 0.23467 0.84197 0.0
O110 O 0.96924 0.28404 0.92278 0.0
O111 O 0.99828 0.2972 0.89987 0.0
O112 O 0.41851 0.06466 0.23539 0.0
Cd113 Cd 0.39124 0.05558 0.25717 0.0
Cd114 Cd 0.42717 0.04316 0.2855 0.0
O115 O 0.4459 0.05261 0.25661 0.0
O116 O 0.36539 0.06766 0.24138 0.0
O117 O 0.3799 0.08103 0.27858 0.0
C118 C 0.36482 0.08133 0.26106 0.0
C119 C 0.44794 0.05689 0.32247 0.0
C120 C 0.4394 0.06132 0.23816 0.0
C121 C 0.38254 0.00308 0.27094 0.0
O122 O 0.40254 0.00923 0.28298 0.0
O123 O 0.37551 0.01863 0.25899 0.0
O124 O 0.4529 0.03941 0.30823 0.0
O125 O 0.4309 0.06681 0.3158 0.0
O126 O 0.27505 0.16401 0.54502 0.0
Cd127 Cd 0.27365 0.14044 0.51364 0.0
Cd128 Cd 0.25983 0.18159 0.4963 0.0
O129 O 0.27001 0.19854 0.5309 0.0
O130 O 0.28835 0.11309 0.52343 0.0
O131 O 0.30355 0.13799 0.49718 0.0
C132 C 0.30472 0.11953 0.50917 0.0
C133 C 0.26917 0.20356 0.46293 0.0
C134 C 0.2737 0.18682 0.54846 0.0
C135 C 0.22319 0.13174 0.49423 0.0
O136 O 0.22758 0.15522 0.49284 0.0
O137 O 0.23978 0.12136 0.49996 0.0
O138 O 0.25338 0.20814 0.47685 0.0
O139 O 0.28047 0.187 0.46835 0.0
O140 O 0.13973 0.00583 0.73709 0.0
Cd141 Cd 0.16503 0.00639 0.76443 0.0
Cd142 Cd 0.13218 0.02623 0.79213 0.0
O143 O 0.11514 0.02262 0.75839 0.0
O144 O 0.18787 0.98742 0.75072 0.0
O145 O 0.16644 0.97552 0.78047 0.0
C146 C 0.18216 0.97173 0.76604 0.0
C147 C 0.10833 0.01817 0.8244 0.0
C148 C 0.12108 0.01428 0.73836 0.0
C149 C 0.18151 0.05909 0.78998 0.0
O150 O 0.16156 0.05609 0.79906 0.0
O151 O 0.18622 0.04158 0.77605 0.0
O152 O 0.10911 0.03753 0.81329 0.0
O153 O 0.12086 0.00278 0.81698 0.0
O154 O 0.24484 0.90553 0.054 0.0
Cd155 Cd 0.25202 0.93158 0.03031 0.0
Cd156 Cd 0.25841 0.88863 1.00004 0.0
O157 O 0.24799 0.87243 0.03008 0.0
O158 O 0.23955 0.96015 0.04385 0.0
O159 O 0.22664 0.93854 0.00857 0.0
C160 C 0.22569 0.95662 0.02464 0.0
C161 C 0.2507 0.86047 0.96524 0.0
C162 C 0.24382 0.88221 0.0502 0.0
C163 C 0.29939 0.93562 0.01158 0.0
O164 O 0.291 0.91374 1.00083 0.0
O165 O 0.28674 0.94631 0.02475 0.0
O166 O 0.26669 0.85972 0.98154 0.0
O167 O 0.23844 0.87713 0.96877 0.0
O168 O 0.24889 0.38683 0.07954 0.0
Cd169 Cd 0.25302 0.41344 0.0553 0.0
Cd170 Cd 0.26977 0.37377 0.02871 0.0
O171 O 0.25935 0.35566 0.05828 0.0
O172 O 0.23604 0.43929 0.06817 0.0
O173 O 0.22486 0.41598 0.03368 0.0
C174 C 0.22154 0.43336 0.04933 0.0
C175 C 0.26307 0.35339 0.9895 0.0
C176 C 0.25218 0.36464 0.07742 0.0
C177 C 0.30409 0.42475 0.04136 0.0
O178 O 0.30054 0.40171 0.03336 0.0
O179 O 0.28732 0.43342 0.04996 0.0
O180 O 0.2775 0.34776 0.00494 0.0
O181 O 0.25123 0.3696 0.99664 0.0
O182 O 0.80799 0.17654 0.07316 0.0
Cd183 Cd 0.79787 0.14464 0.04922 0.0
Cd184 Cd 0.78365 0.17405 0.01978 0.0
O185 O 0.78943 0.19768 0.05096 0.0
O186 O 0.81573 0.12027 0.05896 0.0
O187 O 0.81807 0.13518 0.02393 0.0
C188 C 0.824 0.12038 0.03822 0.0
C189 C 0.79448 0.19501 0.98703 0.0
C190 C 0.80058 0.19606 0.07035 0.0
C191 C 0.74767 0.12861 0.02917 0.0
O192 O 0.75338 0.14553 0.01546 0.0
O193 O 0.76251 0.12621 0.04555 0.0
O194 O 0.77647 0.19795 0.99837 0.0
O195 O 0.80624 0.17934 0.99371 0.0
O196 O 0.11634 0.47703 0.19217 0.0
Cd197 Cd 0.14092 0.49105 0.22084 0.0
Cd198 Cd 0.10246 0.50485 0.24096 0.0
O199 O 0.08556 0.48612 0.20937 0.0
O200 O 0.16955 0.479 0.21291 0.0
O201 O 0.14995 0.46946 0.24457 0.0
C202 C 0.16785 0.46829 0.23214 0.0
C203 C 0.08174 0.49814 0.27475 0.0
C204 C 0.09429 0.4767 0.19155 0.0
C205 C 0.14499 0.54599 0.23519 0.0
O206 O 0.12375 0.54051 0.2412 0.0
O207 O 0.15481 0.52895 0.22704 0.0
O208 O 0.07538 0.51086 0.25881 0.0
O209 O 0.1 0.48882 0.27143 0.0
O210 O 0.75143 0.88917 0.58173 0.0
Cd211 Cd 0.75554 0.91538 0.55713 0.0
Cd212 Cd 0.77045 0.87523 0.53105 0.0
O213 O 0.75881 0.85654 0.56001 0.0
O214 O 0.73758 0.94075 0.56894 0.0
O215 O 0.72821 0.91739 0.53421 0.0
C216 C 0.72398 0.93461 0.54947 0.0
C217 C 0.76377 0.85583 0.49151 0.0
C218 C 0.75296 0.86635 0.57948 0.0
C219 C 0.80622 0.92555 0.54361 0.0
O220 O 0.80198 0.90233 0.53608 0.0
O221 O 0.78981 0.93506 0.55185 0.0
O222 O 0.77829 0.84995 0.5067 0.0
O223 O 0.75168 0.87162 0.49918 0.0
O224 O 0.89298 0.05403 0.19142 0.0
Cd225 Cd 0.86769 0.04983 0.21664 0.0
Cd226 Cd 0.90615 0.0354 0.24148 0.0
O227 O 0.92409 0.04914 0.21315 0.0
O228 O 0.84358 0.06884 0.20737 0.0
O229 O 0.86625 0.07875 0.24113 0.0
C230 C 0.84976 0.08328 0.22716 0.0
C231 C 0.92635 0.03741 0.27899 0.0
C232 C 0.91498 0.05395 0.19374 0.0
C233 C 0.85902 0.99674 0.22773 0.0
O234 O 0.88095 0.00206 0.23477 0.0
O235 O 0.84933 0.01359 0.22089 0.0
O236 O 0.93057 0.0238 0.26065 0.0
O237 O 0.91177 0.05153 0.27578 0.0
O238 O 0.29518 0.65651 0.56628 0.0
Cd239 Cd 0.28898 0.63405 0.53403 0.0
Cd240 Cd 0.28549 0.67805 0.51821 0.0
O241 O 0.29936 0.69283 0.55193 0.0
O242 O 0.29794 0.60259 0.54048 0.0
O243 O 0.3155 0.62722 0.51484 0.0
C244 C 0.31355 0.607 0.52507 0.0
C245 C 0.29755 0.70127 0.48709 0.0
C246 C 0.29986 0.68034 0.56948 0.0
C247 C 0.24124 0.63636 0.51449 0.0
O248 O 0.25004 0.65961 0.51402 0.0
O249 O 0.25435 0.62211 0.52038 0.0
O250 O 0.28507 0.70882 0.50316 0.0
O251 O 0.30406 0.68064 0.48907 0.0
O252 O 0.39101 0.55057 0.69605 0.0
Cd253 Cd 0.36581 0.54448 0.72113 0.0
Cd254 Cd 0.40349 0.53102 0.74479 0.0
O255 O 0.42247 0.54759 0.71831 0.0
O256 O 0.34078 0.56248 0.71244 0.0
O257 O 0.36319 0.57218 0.74638 0.0
C258 C 0.34639 0.57635 0.7326 0.0
C259 C 0.41959 0.53445 0.78412 0.0
C260 C 0.4133 0.55205 0.6988 0.0
C261 C 0.359 0.49065 0.72891 0.0
O262 O 0.38107 0.49627 0.7354 0.0
O263 O 0.34855 0.50763 0.72398 0.0
O264 O 0.42787 0.52285 0.76685 0.0
O265 O 0.40317 0.54584 0.77889 0.0
O266 O 0.62095 0.98575 0.69469 0.0
Cd267 Cd 0.64547 0.001 0.72283 0.0
Cd268 Cd 0.60881 0.01177 0.74529 0.0
O269 O 0.59107 0.99546 0.71303 0.0
O270 O 0.67373 0.98688 0.7195 0.0
O271 O 0.65062 0.98144 0.74958 0.0
C272 C 0.66922 0.97785 0.73937 0.0
C273 C 0.58958 0.00109 0.77918 0.0
C274 C 0.59907 0.986 0.69471 0.0
C275 C 0.64943 0.05489 0.73867 0.0
O276 O 0.62979 0.04792 0.74788 0.0
O277 O 0.6585 0.03895 0.72714 0.0
O278 O 0.5823 0.01521 0.76515 0.0
O279 O 0.60793 0.99266 0.77385 0.0
O280 O 0.77574 0.66634 0.04717 0.0
Cd281 Cd 0.77069 0.63919 0.01816 0.0
Cd282 Cd 0.75279 0.67665 0.9965 0.0
O283 O 0.76176 0.69533 0.03077 0.0
O284 O 0.78678 0.61328 0.02908 0.0
O285 O 0.7983 0.63418 0.9989 0.0
C286 C 0.80121 0.61759 0.0126 0.0
C287 C 0.76266 0.69776 0.96276 0.0
C288 C 0.77043 0.68757 0.04889 0.0
C289 C 0.71852 0.62671 0.99981 0.0
O290 O 0.72186 0.64841 0.99287 0.0
O291 O 0.73565 0.6195 0.00963 0.0
O292 O 0.74667 0.70276 0.97621 0.0
O293 O 0.77355 0.68102 0.96865 0.0
O294 O 0.92854 0.56994 0.73808 0.0
Cd295 Cd 0.90381 0.56128 0.76257 0.0
Cd296 Cd 0.94295 0.54891 0.78592 0.0
O297 O 0.95937 0.56067 0.75638 0.0
O298 O 0.87538 0.56847 0.74641 0.0
O299 O 0.8918 0.58834 0.78121 0.0
C300 C 0.87517 0.58477 0.76426 0.0
C301 C 0.96175 0.56484 0.82319 0.0
C302 C 0.95012 0.56848 0.73872 0.0
C303 C 0.8989 0.50825 0.77584 0.0
O304 O 0.9206 0.51362 0.78374 0.0
O305 O 0.88984 0.52466 0.76735 0.0
O306 O 0.96947 0.54894 0.80934 0.0
O307 O 0.94339 0.57226 0.81563 0.0
O308 O 0.7387 0.39802 0.554 0.0
Cd309 Cd 0.74717 0.42511 0.53133 0.0
Cd310 Cd 0.75593 0.38388 0.50098 0.0
O311 O 0.74445 0.36632 0.52984 0.0
O312 O 0.73626 0.45424 0.54621 0.0
O313 O 0.7216 0.43389 0.51095 0.0
C314 C 0.72182 0.45183 0.52759 0.0
C315 C 0.74655 0.35878 0.46451 0.0
C316 C 0.73866 0.37496 0.54971 0.0
C317 C 0.79635 0.42981 0.51495 0.0
O318 O 0.78908 0.40798 0.50375 0.0
O319 O 0.78238 0.43991 0.52691 0.0
O320 O 0.7615 0.35478 0.48034 0.0
O321 O 0.73649 0.37709 0.4694 0.0
O322 O 0.6421 0.51068 0.24381 0.0
Cd323 Cd 0.66768 0.51329 0.27154 0.0
Cd324 Cd 0.63118 0.52918 0.29736 0.0
O325 O 0.61354 0.5215 0.26385 0.0
O326 O 0.69167 0.49694 0.25642 0.0
O327 O 0.67286 0.48319 0.28711 0.0
C328 C 0.68808 0.4809 0.27164 0.0
C329 C 0.60861 0.52067 0.33046 0.0
C330 C 0.62149 0.51512 0.24422 0.0
C331 C 0.67865 0.56655 0.29516 0.0
O332 O 0.65767 0.56189 0.30202 0.0
O333 O 0.68649 0.54943 0.28375 0.0
O334 O 0.60686 0.53856 0.31807 0.0
O335 O 0.62301 0.507 0.3239 0.0
Dy336 Dy 0.98746 0.01791 0.00533 0.0
C337 C 0.0876 0.03399 0.01359 0.0
C338 C 0.94009 0.01697 0.00137 0.0
Dy339 Dy 0.04156 0.03567 0.01843 0.0
O340 O 0.95439 0.02098 0.98454 0.0
O341 O 0.95153 0.01242 0.02009 0.0
O342 O 0.99463 0.99427 0.97271 0.0
O343 O 0.01869 0.02814 0.98583 0.0
C344 C 0.01529 0.00914 0.97062 0.0
C345 C 0.01469 0.04583 0.05343 0.0
O346 O 0.03603 0.06873 0.00154 0.0
O347 O 0.99553 0.06023 0.00634 0.0
O348 O 0.08072 0.04789 0.03058 0.0
O349 O 0.06947 0.02155 0.99955 0.0
O350 O 0.03618 0.05921 0.05171 0.0
O351 O 0.01029 0.02663 0.03825 0.0
O352 O 0.99203 0.9832 0.02055 0.0
O353 O 0.03348 0.99507 0.02494 0.0
C354 C 0.01551 0.07549 0.00116 0.0
C355 C 0.01301 0.9784 0.0259 0.0
Dy356 Dy 0.26205 0.77617 0.2338 0.0
C357 C 0.27628 0.76731 0.3329 0.0
C358 C 0.25628 0.78667 0.18827 0.0
Dy359 Dy 0.26292 0.77666 0.28872 0.0
O360 O 0.27657 0.79056 0.20061 0.0
O361 O 0.23915 0.77648 0.20062 0.0
O362 O 0.29094 0.75473 0.23359 0.0
O363 O 0.28914 0.78085 0.26265 0.0
C364 C 0.29974 0.76453 0.25497 0.0
C365 C 0.22542 0.78939 0.26855 0.0
O366 O 0.28392 0.81545 0.28644 0.0
O367 O 0.26975 0.81716 0.24769 0.0
O368 O 0.25863 0.77741 0.32806 0.0
O369 O 0.28636 0.76226 0.31369 0.0
O370 O 0.23372 0.79758 0.29047 0.0
O371 O 0.23584 0.77316 0.26007 0.0
O372 O 0.24125 0.73712 0.23471 0.0
O373 O 0.24846 0.73563 0.27544 0.0
C374 C 0.2812 0.82819 0.2683 0.0
C375 C 0.2399 0.72479 0.25369 0.0
Dy376 Dy 0.5434 0.02941 0.51659 0.0
C377 C 0.44461 0.03827 0.5095 0.0
C378 C 0.5863 0.01636 0.52121 0.0
Dy379 Dy 0.48822 0.02721 0.51556 0.0
O380 O 0.57119 0.01026 0.50265 0.0
O381 O 0.57835 0.03041 0.53717 0.0
O382 O 0.54708 0.05399 0.48688 0.0
O383 O 0.51487 0.02791 0.48978 0.0
C384 C 0.52483 0.04582 0.47894 0.0
C385 C 0.507 0.01066 0.55302 0.0
O386 O 0.48702 0.98997 0.49517 0.0
O387 O 0.5246 0.98844 0.51074 0.0
O388 O 0.45261 0.03026 0.52834 0.0
O389 O 0.46018 0.03953 0.49367 0.0
O390 O 0.48486 0.002 0.54489 0.0
O391 O 0.51673 0.02865 0.54219 0.0
O392 O 0.54522 0.06683 0.53701 0.0
O393 O 0.50605 0.06804 0.52615 0.0
C394 C 0.50381 0.97758 0.4988 0.0
C395 C 0.52785 0.07887 0.5359 0.0
Dy396 Dy 0.24103 0.27475 0.7648 0.0
C397 C 0.34254 0.28911 0.76268 0.0
C398 C 0.19387 0.26824 0.7727 0.0
Dy399 Dy 0.29494 0.28008 0.76971 0.0
O400 O 0.20329 0.25082 0.76284 0.0
O401 O 0.21008 0.28895 0.77772 0.0
O402 O 0.24612 0.30618 0.74195 0.0
O403 O 0.27218 0.30631 0.76928 0.0
C404 C 0.26712 0.31725 0.75192 0.0
C405 C 0.26865 0.23706 0.78186 0.0
O406 O 0.29063 0.29944 0.80535 0.0
O407 O 0.25073 0.27912 0.80444 0.0
O408 O 0.33014 0.26935 0.7707 0.0
O409 O 0.32909 0.3045 0.75922 0.0
O410 O 0.28944 0.24825 0.79227 0.0
O411 O 0.26383 0.24841 0.76472 0.0
O412 O 0.24449 0.25659 0.72836 0.0
O413 O 0.28569 0.27086 0.73007 0.0
C414 C 0.27071 0.29276 0.81617 0.0
C415 C 0.26493 0.26009 0.71807 0.0
Dy416 Dy 0.0055 0.01846 0.48872 0.0
C417 C 0.04543 0.04771 0.58399 0.0
C418 C 0.98329 0.00997 0.44376 0.0
Dy419 Dy 0.02148 0.03939 0.53983 0.0
O420 O 0.0043 0.0067 0.44932 0.0
O421 O 0.97395 0.01674 0.46297 0.0
O422 O 0.04271 0.01438 0.4831 0.0
O423 O 0.03757 0.04427 0.50626 0.0
C424 C 0.05302 0.03364 0.49818 0.0
C425 C 0.974 0.0252 0.53063 0.0
O426 O 0.02404 0.07625 0.52551 0.0
O427 O 1.00094 0.05814 0.49078 0.0
O428 O 0.02312 0.04749 0.57981 0.0
O429 O 0.05488 0.04454 0.56394 0.0
O430 O 0.9847 0.04399 0.54612 0.0
O431 O 0.98904 0.01406 0.52223 0.0
O432 O 0.00178 0.98179 0.50351 0.0
O433 O 0.02657 0.99984 0.53715 0.0
C434 C 0.01181 0.07822 0.5056 0.0
C435 C 0.01492 0.97979 0.52275 0.0
Dy436 Dy 0.28595 0.78432 0.77311 0.0
C437 C 0.19159 0.74417 0.73037 0.0
C438 C 0.32958 0.79794 0.79789 0.0
Dy439 Dy 0.23475 0.75663 0.75603 0.0
O440 O 0.32498 0.80337 0.77662 0.0
O441 O 0.31012 0.78593 0.80596 0.0
O442 O 0.29307 0.7922 0.73565 0.0
O443 O 0.26924 0.75935 0.74168 0.0
C444 C 0.27813 0.77198 0.72569 0.0
C445 C 0.24307 0.7675 0.80321 0.0
O446 O 0.25024 0.72285 0.7552 0.0
O447 O 0.28514 0.74373 0.7777 0.0
O448 O 0.19513 0.74066 0.75249 0.0
O449 O 0.21184 0.75331 0.72197 0.0
O450 O 0.22721 0.74795 0.79321 0.0
O451 O 0.25169 0.78095 0.78767 0.0
O452 O 0.27023 0.81801 0.77425 0.0
O453 O 0.23576 0.79705 0.75124 0.0
C454 C 0.27049 0.72265 0.7673 0.0
C455 C 0.25012 0.8181 0.7619 0.0
Dy456 Dy 0.52541 0.0288 0.04278 0.0
C457 C 0.53059 0.01056 0.94127 0.0
C458 C 0.51861 0.04357 0.08872 0.0
Dy459 Dy 0.52404 0.02318 0.98777 0.0
O460 O 0.52434 0.02276 0.0815 0.0
O461 O 0.5166 0.05612 0.07091 0.0
O462 O 0.5421 0.99577 0.04321 0.0
O463 O 0.51809 0.99762 0.01467 0.0
C464 C 0.53229 0.98551 0.0223 0.0
C465 C 0.51632 0.06615 0.00813 0.0
O466 O 0.48622 0.00466 0.99164 0.0
O467 O 0.48621 0.01925 0.03169 0.0
O468 O 0.52438 0.03073 0.9496 0.0
O469 O 0.5331 0.99712 0.95833 0.0
O470 O 0.50668 0.05558 0.98728 0.0
O471 O 0.53093 0.05449 0.01586 0.0
O472 O 0.56329 0.0468 0.03894 0.0
O473 O 0.56325 0.03255 0.9988 0.0
C474 C 0.47488 0.00853 0.01091 0.0
C475 C 0.57458 0.04311 0.01961 0.0
Dy476 Dy 0.27357 0.30747 0.27214 0.0
C477 C 0.26246 0.20275 0.26781 0.0
C478 C 0.27239 0.3559 0.26796 0.0
Dy479 Dy 0.25925 0.25007 0.2614 0.0
O480 O 0.2751 0.34702 0.28807 0.0
O481 O 0.27114 0.33852 0.2504 0.0
O482 O 0.29467 0.30418 0.30587 0.0
O483 O 0.26378 0.27664 0.2932 0.0
C484 C 0.28108 0.28241 0.3088 0.0
C485 C 0.25119 0.27503 0.22483 0.0
O486 O 0.22552 0.25484 0.27611 0.0
O487 O 0.2335 0.29799 0.27493 0.0
O488 O 0.25269 0.20874 0.24866 0.0
O489 O 0.26971 0.22243 0.28326 0.0
O490 O 0.23803 0.25299 0.22759 0.0
O491 O 0.26862 0.28089 0.24027 0.0
O492 O 0.30806 0.30282 0.25839 0.0
O493 O 0.29862 0.25925 0.25611 0.0
C494 C 0.21884 0.27633 0.27825 0.0
C495 C 0.3139 0.28094 0.25433 0.0
Dy496 Dy 0.49974 0.51257 0.99014 0.0
C497 C 0.54094 0.53978 0.08899 0.0
C498 C 0.47007 0.50485 0.94977 0.0
Dy499 Dy 0.51929 0.53402 0.04403 0.0
O500 O 0.48652 0.49269 0.95349 0.0
O501 O 0.46917 0.52008 0.96861 0.0
O502 O 0.53528 0.51868 0.97393 0.0
O503 O 0.53339 0.52836 0.0099 0.0
C504 C 0.54761 0.52873 0.9938 0.0
C505 C 0.47197 0.52474 0.03343 0.0
O506 O 0.52505 0.57025 0.02837 0.0
O507 O 0.50045 0.55384 0.9937 0.0
O508 O 0.51828 0.53172 0.08332 0.0
O509 O 0.55188 0.54567 0.07011 0.0
O510 O 0.48349 0.54245 0.04966 0.0
O511 O 0.48608 0.51237 0.02516 0.0
O512 O 0.49762 0.47615 0.00551 0.0
O513 O 0.52106 0.49355 0.04076 0.0
C514 C 0.51353 0.57308 0.00831 0.0
C515 C 0.50928 0.47392 0.02579 0.0
Dy516 Dy 0.79685 0.29648 0.27194 0.0
C517 C 0.70201 0.25953 0.22762 0.0
C518 C 0.8401 0.30787 0.29734 0.0
Dy519 Dy 0.74566 0.27071 0.25239 0.0
O520 O 0.83678 0.30772 0.2745 0.0
O521 O 0.81967 0.30272 0.30656 0.0
O522 O 0.80495 0.30995 0.23666 0.0
O523 O 0.7804 0.27562 0.23828 0.0
C524 C 0.78961 0.29123 0.22461 0.0
C525 C 0.75317 0.27791 0.30003 0.0
O526 O 0.76102 0.23685 0.24824 0.0
O527 O 0.79457 0.25514 0.27375 0.0
O528 O 0.70602 0.25489 0.24927 0.0
O529 O 0.72202 0.26937 0.21914 0.0
O530 O 0.73791 0.25871 0.28865 0.0
O531 O 0.76209 0.29243 0.28547 0.0
O532 O 0.78202 0.33073 0.27471 0.0
O533 O 0.74793 0.3119 0.24997 0.0
C534 C 0.78049 0.2352 0.26084 0.0
C535 C 0.76253 0.33208 0.26198 0.0
Dy536 Dy 0.01999 0.54582 0.53484 0.0
C537 C 0.01809 0.52082 0.4336 0.0
C538 C 0.01659 0.56123 0.58146 0.0
Dy539 Dy 0.0138 0.53692 0.47983 0.0
O540 O 0.02676 0.54355 0.57393 0.0
O541 O 0.00821 0.57034 0.56356 0.0
O542 O 0.04031 0.51563 0.53496 0.0
O543 O 0.01307 0.51324 0.50826 0.0
C544 C 0.02946 0.50346 0.5151 0.0
C545 C 0.00407 0.57912 0.49969 0.0
O546 O 0.97762 0.51642 0.48717 0.0
O547 O 0.98027 0.53129 0.52748 0.0
O548 O 0.01308 0.54198 0.44097 0.0
O549 O 0.02048 0.50837 0.45145 0.0
O550 O 0.99319 0.56698 0.47979 0.0
O551 O 0.02051 0.56934 0.50643 0.0
O552 O 0.05523 0.56817 0.52673 0.0
O553 O 0.05352 0.54982 0.48766 0.0
C554 C 0.96784 0.51925 0.50762 0.0
C555 C 0.06551 0.56367 0.5069 0.0
Dy556 Dy 0.73986 0.78021 0.26332 0.0
C557 C 0.84149 0.79697 0.26359 0.0
C558 C 0.69224 0.76817 0.26978 0.0
Dy559 Dy 0.7938 0.7865 0.2699 0.0
O560 O 0.70315 0.78744 0.25994 0.0
O561 O 0.70725 0.75513 0.2755 0.0
O562 O 0.74509 0.81229 0.2413 0.0
O563 O 0.77057 0.81229 0.2692 0.0
C564 C 0.76577 0.82353 0.25193 0.0
C565 C 0.76782 0.74314 0.2813 0.0
O566 O 0.78919 0.80526 0.30575 0.0
O567 O 0.74802 0.7908 0.30297 0.0
O568 O 0.82987 0.77801 0.27337 0.0
O569 O 0.82716 0.81082 0.25793 0.0
O570 O 0.78848 0.75442 0.29192 0.0
O571 O 0.7631 0.75443 0.26402 0.0
O572 O 0.74453 0.76124 0.22756 0.0
O573 O 0.78567 0.77592 0.2303 0.0
C574 C 0.76846 0.80173 0.31551 0.0
C575 C 0.76527 0.76471 0.21783 0.0
Dy576 Dy 0.76919 0.28352 0.73843 0.0
C577 C 0.78778 0.27486 0.83921 0.0
C578 C 0.75671 0.29186 0.69383 0.0
Dy579 Dy 0.7715 0.28408 0.79623 0.0
O580 O 0.77839 0.29253 0.70179 0.0
O581 O 0.742 0.28644 0.71013 0.0
O582 O 0.79589 0.2592 0.73723 0.0
O583 O 0.79499 0.28426 0.76747 0.0
C584 C 0.8043 0.26708 0.75921 0.0
C585 C 0.73146 0.29421 0.77762 0.0
O586 O 0.79371 0.32233 0.7925 0.0
O587 O 0.78445 0.32407 0.75185 0.0
O588 O 0.77667 0.29248 0.83605 0.0
O589 O 0.78975 0.26233 0.81902 0.0
O590 O 0.73476 0.29244 0.8003 0.0
O591 O 0.74932 0.29019 0.76794 0.0
O592 O 0.74492 0.24682 0.74225 0.0
O593 O 0.75434 0.24394 0.78249 0.0
C594 C 0.79448 0.33455 0.77331 0.0
C595 C 0.74363 0.23431 0.76113 0.0
Dy596 Dy 0.76659 0.80299 0.77299 0.0
C597 C 0.76568 0.69922 0.76165 0.0
C598 C 0.75489 0.8474 0.76945 0.0
Dy599 Dy 0.75925 0.74647 0.76053 0.0
O600 O 0.77257 0.84484 0.78343 0.0
O601 O 0.74459 0.82618 0.75725 0.0
O602 O 0.78543 0.80239 0.80867 0.0
O603 O 0.7594 0.771 0.79326 0.0
C604 C 0.77518 0.77899 0.81023 0.0
C605 C 0.75012 0.77154 0.72415 0.0
O606 O 0.72327 0.74511 0.77345 0.0
O607 O 0.7271 0.78816 0.7757 0.0
O608 O 0.75966 0.70821 0.74253 0.0
O609 O 0.76764 0.71585 0.77996 0.0
O610 O 0.73881 0.74851 0.72591 0.0
O611 O 0.76655 0.77866 0.74055 0.0
O612 O 0.8016 0.80302 0.75763 0.0
O613 O 0.79901 0.76098 0.76109 0.0
C614 C 0.71421 0.76506 0.7768 0.0
C615 C 0.81137 0.78342 0.75703 0.0
Dy616 Dy 0.48914 0.51802 0.51215 0.0
C617 C 0.59073 0.54031 0.52652 0.0
C618 C 0.44148 0.51544 0.51061 0.0
Dy619 Dy 0.5431 0.53734 0.52615 0.0
O620 O 0.45315 0.51164 0.49212 0.0
O621 O 0.45575 0.51985 0.52975 0.0
O622 O 0.4973 0.4945 0.48 0.0
O623 O 0.52069 0.52887 0.49317 0.0
C624 C 0.51783 0.50978 0.47811 0.0
C625 C 0.5149 0.5467 0.5601 0.0
O626 O 0.53743 0.57173 0.51156 0.0
O627 O 0.49596 0.5595 0.50878 0.0
O628 O 0.57916 0.54248 0.54541 0.0
O629 O 0.57636 0.53729 0.50756 0.0
O630 O 0.5358 0.56124 0.55823 0.0
O631 O 0.51153 0.52723 0.54534 0.0
O632 O 0.49472 0.48464 0.52876 0.0
O633 O 0.53601 0.49555 0.52844 0.0
C634 C 0.51621 0.57637 0.50734 0.0
C635 C 0.51583 0.47937 0.53163 0.0
Dy636 Dy 0.04096 0.52858 0.02002 0.0
C637 C 0.94206 0.53754 0.01104 0.0
C638 C 0.08393 0.51643 0.02788 0.0
Dy639 Dy 0.98569 0.52628 0.01632 0.0
O640 O 0.07547 0.5212 0.00762 0.0
O641 O 0.06924 0.5191 0.04398 0.0
O642 O 0.04642 0.55562 0.99256 0.0
O643 O 0.01389 0.52871 0.99208 0.0
C644 C 0.02468 0.54767 0.98299 0.0
C645 C 0.00284 0.50775 0.05341 0.0
O646 O 0.9849 0.49016 0.99418 0.0
O647 O 0.02283 0.48789 0.0085 0.0
O648 O 0.9512 0.53143 0.03033 0.0
O649 O 0.95651 0.5368 0.99427 0.0
O650 O 0.98132 0.49867 0.04366 0.0
O651 O 0.01284 0.52669 0.04398 0.0
O652 O 0.04173 0.5652 0.04147 0.0
O653 O 0.00348 0.56697 0.02768 0.0
C654 C 0.00181 0.4777 0.99666 0.0
C655 C 0.0246 0.57744 0.03919 0.0
H656 H 0.01913 0.17825 0.89804 0.0
H657 H 0.98246 0.21103 0.95278 0.0
H658 H 0.02502 0.14682 0.92352 0.0
H659 H 0.98844 0.17945 0.97831 0.0
H660 H 0.97714 0.09665 0.9983 0.0
H661 H 0.97364 0.13252 0.9776 0.0
H662 H 0.04728 0.14392 0.96181 0.0
H663 H 0.05087 0.10811 0.98237 0.0
C664 C 0.0124 0.17883 0.91554 0.0
C665 C 1.00027 0.19713 0.92333 0.0
C666 C 0.01594 0.16092 0.93021 0.0
C667 C 0.00726 0.16073 0.95294 0.0
C668 C 0.99522 0.17907 0.96083 0.0
C669 C 0.99189 0.1972 0.94623 0.0
C670 C 0.99271 0.10704 0.99076 0.0
C671 C 0.01424 0.09935 0.99186 0.0
C672 C 0.9907 0.12764 0.97896 0.0
C673 C 0.01012 0.14084 0.96787 0.0
C674 C 0.03192 0.13386 0.9699 0.0
C675 C 0.03399 0.11342 0.98184 0.0
H676 H 0.08702 0.81083 0.22751 0.0
H677 H 0.12372 0.81797 0.16308 0.0
H678 H 0.12418 0.81028 0.24966 0.0
H679 H 0.16078 0.81717 0.18528 0.0
H680 H 0.20316 0.76844 0.22551 0.0
H681 H 0.17014 0.77942 0.20416 0.0
H682 H 0.1677 0.83536 0.26252 0.0
H683 H 0.20167 0.82499 0.2836 0.0
C684 C 0.10311 0.81284 0.21818 0.0
C685 C 0.10236 0.8142 0.19348 0.0
C686 C 0.12439 0.81261 0.2309 0.0
C687 C 0.14526 0.8134 0.21911 0.0
C688 C 0.14486 0.8163 0.19473 0.0
C689 C 0.12366 0.81691 0.18207 0.0
C690 C 0.19604 0.78354 0.23352 0.0
C691 C 0.20527 0.79618 0.25598 0.0
C692 C 0.17708 0.78978 0.22133 0.0
C693 C 0.16656 0.80846 0.23157 0.0
C694 C 0.17558 0.82097 0.2542 0.0
C695 C 0.19493 0.81501 0.26624 0.0
H696 H 0.48905 0.85134 0.39218 0.0
H697 H 0.51396 0.8238 0.45514 0.0
H698 H 0.48618 0.88962 0.41607 0.0
H699 H 0.51043 0.86184 0.47915 0.0
H700 H 0.5328 0.94606 0.50598 0.0
H701 H 0.53079 0.9051 0.48491 0.0
H702 H 0.46518 0.90766 0.4464 0.0
H703 H 0.46756 0.94938 0.46716 0.0
C704 C 0.49373 0.85333 0.41116 0.0
C705 C 0.50197 0.83455 0.42168 0.0
C706 C 0.49186 0.87523 0.42491 0.0
C707 C 0.49807 0.87887 0.44956 0.0
C708 C 0.50582 0.85983 0.46017 0.0
C709 C 0.5078 0.83798 0.44639 0.0
C710 C 0.51776 0.93789 0.49321 0.0
C711 C 0.50043 0.95118 0.48814 0.0
C712 C 0.51653 0.9142 0.48121 0.0
C713 C 0.49789 0.90305 0.46384 0.0
C714 C 0.47999 0.91588 0.45942 0.0
C715 C 0.48123 0.93969 0.47147 0.0
H716 H 0.46321 0.30944 0.67556 0.0
H717 H 0.48354 0.26947 0.73184 0.0
H718 H 0.42687 0.31218 0.69475 0.0
H719 H 0.44799 0.27312 0.75152 0.0
H720 H 0.36913 0.25468 0.76378 0.0
H721 H 0.40703 0.25561 0.74701 0.0
H722 H 0.40926 0.32983 0.72736 0.0
H723 H 0.37054 0.3283 0.74346 0.0
C724 C 0.46005 0.30151 0.69217 0.0
C725 C 0.47611 0.28898 0.70202 0.0
C726 C 0.43929 0.30323 0.7033 0.0
C727 C 0.43427 0.29269 0.72467 0.0
C728 C 0.45085 0.28093 0.73483 0.0
C729 C 0.47137 0.27895 0.72358 0.0
C730 C 0.37784 0.27132 0.75613 0.0
C731 C 0.3669 0.29143 0.75497 0.0
C732 C 0.3997 0.27194 0.74657 0.0
C733 C 0.4114 0.29282 0.73578 0.0
C734 C 0.40068 0.31328 0.7352 0.0
C735 C 0.37862 0.31255 0.74463 0.0
H736 H 0.04647 0.84458 0.5703 0.0
H737 H 0.97751 0.84725 0.5947 0.0
H738 H 0.04705 0.88184 0.55028 0.0
H739 H 0.97804 0.88452 0.57429 0.0
H740 H 0.98005 0.93628 0.5136 0.0
H741 H 0.97874 0.89667 0.53041 0.0
H742 H 0.04871 0.92793 0.56569 0.0
H743 H 0.0499 0.96741 0.54931 0.0
C744 C 0.03139 0.85307 0.57133 0.0
C745 C 0.01198 0.84304 0.58419 0.0
C746 C 0.03176 0.87441 0.55987 0.0
C747 C 0.01258 0.88599 0.56068 0.0
C748 C 0.99297 0.87579 0.57321 0.0
C749 C 0.99276 0.85462 0.58504 0.0
C750 C 0.99527 0.93449 0.52464 0.0
C751 C 0.01509 0.95487 0.53012 0.0
C752 C 0.99442 0.91197 0.53442 0.0
C753 C 0.0136 0.90932 0.5494 0.0
C754 C 0.03374 0.92941 0.55412 0.0
C755 C 0.03439 0.952 0.54476 0.0
H756 H 0.48186 0.82575 0.8371 0.0
H757 H 0.44996 0.75836 0.86758 0.0
H758 H 0.44273 0.82946 0.82285 0.0
H759 H 0.41061 0.76147 0.85242 0.0
H760 H 0.34175 0.78646 0.84183 0.0
H761 H 0.38133 0.78524 0.85805 0.0
H762 H 0.41103 0.8114 0.7941 0.0
H763 H 0.37168 0.8135 0.77847 0.0
C764 C 0.46648 0.81149 0.84049 0.0
C765 C 0.46905 0.7917 0.85343 0.0
C766 C 0.44398 0.81358 0.83222 0.0
C767 C 0.4234 0.79579 0.83644 0.0
C768 C 0.426 0.77579 0.84918 0.0
C769 C 0.44857 0.77383 0.85767 0.0
C770 C 0.35686 0.79235 0.83148 0.0
C771 C 0.35371 0.80018 0.80896 0.0
C772 C 0.3795 0.79136 0.84062 0.0
C773 C 0.39943 0.79799 0.82733 0.0
C774 C 0.39623 0.80645 0.80502 0.0
C775 C 0.37364 0.80764 0.796 0.0
H776 H 0.49024 0.21198 0.05165 0.0
H777 H 0.48421 0.17479 0.11544 0.0
H778 H 0.49463 0.17335 0.0289 0.0
H779 H 0.4891 0.13642 0.09271 0.0
H780 H 0.48158 0.08929 0.99549 0.0
H781 H 0.47132 0.12567 0.01715 0.0
H782 H 0.5274 0.12916 0.07149 0.0
H783 H 0.53838 0.09356 0.04933 0.0
C784 C 0.48937 0.19544 0.0607 0.0
C785 C 0.48691 0.19645 0.08534 0.0
C786 C 0.4919 0.17338 0.04769 0.0
C787 C 0.49247 0.15209 0.05916 0.0
C788 C 0.48892 0.1527 0.08354 0.0
C789 C 0.48591 0.17459 0.09646 0.0
C790 C 0.49176 0.09791 0.01202 0.0
C791 C 0.51052 0.08838 0.02098 0.0
C792 C 0.48585 0.11864 0.02439 0.0
C793 C 0.49836 0.12993 0.0461 0.0
C794 C 0.5172 0.12047 0.05499 0.0
C795 C 0.52343 0.10011 0.04236 0.0
H796 H 0.07329 0.24209 0.32173 0.0
H797 H 0.11135 0.30564 0.37069 0.0
H798 H 0.10824 0.24467 0.29915 0.0
H799 H 0.14663 0.30792 0.34825 0.0
H800 H 0.20056 0.31702 0.29166 0.0
H801 H 0.16343 0.31703 0.31032 0.0
H802 H 0.14701 0.23608 0.30473 0.0
H803 H 0.18369 0.23598 0.2858 0.0
C804 C 0.08912 0.25666 0.32769 0.0
C805 C 0.08955 0.27356 0.34814 0.0
C806 C 0.10922 0.25807 0.31476 0.0
C807 C 0.13034 0.27639 0.32195 0.0
C808 C 0.1306 0.29372 0.34207 0.0
C809 C 0.11043 0.29232 0.35503 0.0
C810 C 0.18887 0.2992 0.29411 0.0
C811 C 0.19519 0.27649 0.28722 0.0
C812 C 0.16767 0.29924 0.30501 0.0
C813 C 0.15225 0.27657 0.30915 0.0
C814 C 0.15828 0.25388 0.3016 0.0
C815 C 0.17944 0.25384 0.2908 0.0
H816 H 0.9636 0.06382 0.19373 0.0
H817 H 0.89977 0.05087 0.14666 0.0
H818 H 0.98744 0.0643 0.15931 0.0
H819 H 0.92367 0.05113 0.11229 0.0
H820 H 0.97229 0.01574 0.06213 0.0
H821 H 0.94788 0.02108 0.09526 0.0
H822 H 0.99952 0.08875 0.12393 0.0
H823 H 0.02367 0.08379 0.09021 0.0
C824 C 0.95467 0.06138 0.17607 0.0
C825 C 0.92973 0.05723 0.173 0.0
C826 C 0.96836 0.06175 0.15635 0.0
C827 C 0.95742 0.0576 0.13308 0.0
C828 C 0.93258 0.05416 0.13 0.0
C829 C 0.91891 0.05418 0.14972 0.0
C830 C 0.97819 0.03205 0.07518 0.0
C831 C 0.99974 0.04952 0.07336 0.0
C832 C 0.96423 0.03508 0.09421 0.0
C833 C 0.97171 0.0554 0.11216 0.0
C834 C 0.99332 0.07287 0.1104 0.0
C835 C 0.00711 0.07006 0.0911 0.0
H836 H 0.29437 0.74898 0.48261 0.0
H837 H 0.30988 0.68374 0.4438 0.0
H838 H 0.29356 0.7684 0.44596 0.0
H839 H 0.30839 0.70287 0.40693 0.0
H840 H 0.31417 0.74858 0.3448 0.0
H841 H 0.3248 0.7361 0.38328 0.0
H842 H 0.26462 0.75945 0.41217 0.0
H843 H 0.25445 0.77247 0.37389 0.0
C844 C 0.29796 0.73895 0.46627 0.0
C845 C 0.30189 0.71472 0.46596 0.0
C846 C 0.29733 0.75001 0.44527 0.0
C847 C 0.30041 0.73697 0.42348 0.0
C848 C 0.30604 0.71346 0.42344 0.0
C849 C 0.30686 0.70246 0.44455 0.0
C850 C 0.30339 0.75124 0.3595 0.0
C851 C 0.28342 0.76133 0.35646 0.0
C852 C 0.30943 0.74403 0.38147 0.0
C853 C 0.29556 0.74675 0.40077 0.0
C854 C 0.27592 0.75748 0.39778 0.0
C855 C 0.26995 0.76476 0.37584 0.0
H856 H 0.61223 0.97682 0.64962 0.0
H857 H 0.55077 0.97919 0.6893 0.0
H858 H 0.58834 0.97583 0.61264 0.0
H859 H 0.527 0.97817 0.65226 0.0
H860 H 0.552 0.02962 0.57202 0.0
H861 H 0.57316 0.01461 0.60342 0.0
H862 H 0.51071 0.95585 0.60964 0.0
H863 H 0.48965 0.97044 0.5771 0.0
C864 C 0.59348 0.97633 0.65043 0.0
C865 C 0.58351 0.97869 0.67241 0.0
C866 C 0.57984 0.9758 0.62926 0.0
C867 C 0.55599 0.97731 0.62972 0.0
C868 C 0.54535 0.97694 0.65144 0.0
C869 C 0.55903 0.97771 0.67264 0.0
C870 C 0.54301 0.01305 0.57954 0.0
C871 C 0.51938 0.00095 0.57192 0.0
C872 C 0.55511 0.00444 0.59752 0.0
C873 C 0.54366 0.98383 0.60866 0.0
C874 C 0.51995 0.97164 0.60112 0.0
C875 C 0.50792 0.98003 0.58267 0.0
H876 H 0.27245 0.30916 0.97132 0.0
H877 H 0.25179 0.3747 0.95026 0.0
H878 H 0.27417 0.29398 0.92936 0.0
H879 H 0.25436 0.35985 0.90833 0.0
H880 H 0.29695 0.33559 0.84253 0.0
H881 H 0.29369 0.34992 0.8845 0.0
H882 H 0.24037 0.28217 0.88993 0.0
H883 H 0.24298 0.26818 0.84788 0.0
C884 C 0.26812 0.32022 0.95773 0.0
C885 C 0.26183 0.34304 0.96409 0.0
C886 C 0.26915 0.31155 0.93376 0.0
C887 C 0.26458 0.32586 0.91569 0.0
C888 C 0.25811 0.34857 0.92197 0.0
C889 C 0.25644 0.35692 0.94592 0.0
C890 C 0.28464 0.32372 0.85273 0.0
C891 C 0.27023 0.30076 0.84193 0.0
C892 C 0.28267 0.33199 0.87665 0.0
C893 C 0.26671 0.31716 0.89036 0.0
C894 C 0.25279 0.29393 0.87974 0.0
C895 C 0.25429 0.28598 0.8557 0.0
H896 H 0.92136 0.06316 0.3219 0.0
H897 H 0.95319 0.00519 0.2906 0.0
H898 H 0.93492 0.05582 0.36156 0.0
H899 H 0.96586 0.9972 0.32996 0.0
H900 H 0.00544 0.00523 0.40293 0.0
H901 H 0.99272 0.01322 0.36341 0.0
H902 H 0.92724 0.02605 0.38972 0.0
H903 H 0.94055 0.01896 0.42955 0.0
C904 C 0.93134 0.04896 0.32347 0.0
C905 C 0.93626 0.03487 0.30306 0.0
C906 C 0.93889 0.04452 0.34622 0.0
C907 C 0.9514 0.02577 0.34908 0.0
C908 C 0.9566 0.01202 0.32857 0.0
C909 C 0.94924 0.01658 0.30591 0.0
C910 C 0.98819 0.00945 0.40018 0.0
C911 C 0.97394 0.01137 0.41928 0.0
C912 C 0.98085 0.01402 0.37749 0.0
C913 C 0.95895 0.02043 0.37326 0.0
C914 C 0.9444 0.02165 0.39234 0.0
C915 C 0.95186 0.01726 0.41511 0.0
H916 H 0.31974 0.72989 0.58417 0.0
H917 H 0.28375 0.66071 0.6093 0.0
H918 H 0.31696 0.75279 0.62268 0.0
H919 H 0.2796 0.68351 0.64704 0.0
H920 H 0.28746 0.72624 0.71885 0.0
H921 H 0.29723 0.70501 0.68256 0.0
H922 H 0.2889 0.76736 0.64491 0.0
H923 H 0.28073 0.78942 0.68219 0.0
C924 C 0.31146 0.71956 0.59804 0.0
C925 C 0.302 0.69352 0.59377 0.0
C926 C 0.30956 0.73272 0.62 0.0
C927 C 0.29778 0.72015 0.63799 0.0
C928 C 0.28916 0.6939 0.63389 0.0
C929 C 0.2915 0.68073 0.61215 0.0
C930 C 0.2876 0.73535 0.70277 0.0
C931 C 0.28294 0.75924 0.70309 0.0
C932 C 0.29316 0.72314 0.68189 0.0
C933 C 0.29359 0.73422 0.66059 0.0
C934 C 0.28907 0.75834 0.661 0.0
C935 C 0.28409 0.77089 0.6822 0.0
H936 H 0.54602 0.00748 0.78973 0.0
H937 H 0.60664 0.98376 0.81854 0.0
H938 H 0.52868 0.00517 0.82788 0.0
H939 H 0.58957 0.98218 0.85713 0.0
H940 H 0.54597 0.9703 0.92167 0.0
H941 H 0.5575 0.9631 0.88096 0.0
H942 H 0.53935 0.03177 0.86501 0.0
H943 H 0.52746 0.03854 0.90521 0.0
C944 C 0.55556 0.00157 0.80419 0.0
C945 C 0.57785 0.99616 0.80129 0.0
C946 C 0.54566 0.00034 0.82608 0.0
C947 C 0.55795 0.99395 0.84565 0.0
C948 C 0.57961 0.98706 0.84237 0.0
C949 C 0.58944 0.98807 0.82031 0.0
C950 C 0.54422 0.98362 0.90927 0.0
C951 C 0.53589 0.00498 0.91647 0.0
C952 C 0.55092 0.97958 0.88607 0.0
C953 C 0.54929 0.99682 0.86974 0.0
C954 C 0.54042 0.01787 0.87697 0.0
C955 C 0.53376 0.02186 0.90006 0.0
H956 H 0.27311 0.32655 0.08654 0.0
H957 H 0.22543 0.3696 0.1156 0.0
H958 H 0.27167 0.30488 0.1223 0.0
H959 H 0.22349 0.34718 0.15108 0.0
H960 H 0.2125 0.27095 0.19334 0.0
H961 H 0.21085 0.29224 0.15729 0.0
H962 H 0.28517 0.32915 0.17145 0.0
H963 H 0.28671 0.3087 0.20773 0.0
C964 C 0.26199 0.3311 0.10034 0.0
C965 C 0.24938 0.34985 0.09816 0.0
C966 C 0.26127 0.31874 0.12083 0.0
C967 C 0.24746 0.32437 0.13938 0.0
C968 C 0.23419 0.34245 0.13696 0.0
C969 C 0.23536 0.35528 0.11669 0.0
C970 C 0.22841 0.28374 0.18879 0.0
C971 C 0.24972 0.28815 0.20335 0.0
C972 C 0.22744 0.29592 0.16825 0.0
C973 C 0.24792 0.31222 0.16161 0.0
C974 C 0.26918 0.31661 0.17616 0.0
C975 C 0.27 0.30494 0.19693 0.0
H976 H 0.20783 0.98305 0.05931 0.0
H977 H 0.20599 0.96647 0.98298 0.0
H978 H 0.17771 0.00674 0.05466 0.0
H979 H 0.17693 0.99163 0.97806 0.0
H980 H 0.1007 0.00146 0.98124 0.0
H981 H 0.13689 0.98685 0.98253 0.0
H982 H 0.16531 0.04155 0.0435 0.0
H983 H 0.12794 0.05515 0.04292 0.0
C984 C 0.20128 0.98494 0.04148 0.0
C985 C 0.20889 0.97262 0.0215 0.0
C986 C 0.18417 0.99879 0.03877 0.0
C987 C 0.17466 0.00106 0.01596 0.0
C988 C 0.18335 0.9898 0.99593 0.0
C989 C 0.20006 0.97543 0.99869 0.0
C990 C 0.1148 0.01064 0.99474 0.0
C991 C 0.11144 0.02916 0.01222 0.0
C992 C 0.13577 0.0024 0.99536 0.0
C993 C 0.1541 0.01279 0.01327 0.0
C994 C 0.15136 0.03268 0.02978 0.0
C995 C 0.1301 0.04068 0.02936 0.0
H996 H 0.70154 0.58715 0.02478 0.0
H997 H 0.67994 0.62993 0.97146 0.0
H998 H 0.66046 0.56254 0.02416 0.0
H999 H 0.63903 0.60512 0.9707 0.0
H1000 H 0.57553 0.53669 0.95726 0.0
H1001 H 0.61713 0.55923 0.95861 0.0
H1002 H 0.6196 0.57146 0.0353 0.0
H1003 H 0.57753 0.54895 0.03388 0.0
C1004 C 0.68811 0.59112 0.01274 0.0
C1005 C 0.69405 0.61046 0.99809 0.0
C1006 C 0.66457 0.57718 0.01257 0.0
C1007 C 0.64657 0.58196 0.99744 0.0
C1008 C 0.65258 0.60094 0.98246 0.0
C1009 C 0.676 0.61515 0.98292 0.0
C1010 C 0.58494 0.54406 0.97446 0.0
C1011 C 0.57326 0.54114 0.99551 0.0
C1012 C 0.60874 0.55707 0.97519 0.0
C1013 C 0.62157 0.56722 0.99703 0.0
C1014 C 0.61013 0.56373 0.01821 0.0
C1015 C 0.58609 0.55095 0.01743 0.0
H1016 H 0.69193 0.44957 0.30568 0.0
H1017 H 0.71319 0.46582 0.23585 0.0
H1018 H 0.7125 0.41527 0.30357 0.0
H1019 H 0.73338 0.4315 0.2337 0.0
H1020 H 0.73493 0.34665 0.22846 0.0
H1021 H 0.71856 0.38376 0.2314 0.0
H1022 H 0.75558 0.40838 0.30087 0.0
H1023 H 0.77233 0.37122 0.2978 0.0
C1024 C 0.70101 0.44588 0.28993 0.0
C1025 C 0.70085 0.46038 0.2709 0.0
C1026 C 0.71291 0.42636 0.2888 0.0
C1027 C 0.72453 0.42071 0.26846 0.0
C1028 C 0.72447 0.43533 0.24954 0.0
C1029 C 0.71294 0.45503 0.25082 0.0
C1030 C 0.73986 0.36015 0.24423 0.0
C1031 C 0.75502 0.35608 0.26284 0.0
C1032 C 0.73051 0.38142 0.24589 0.0
C1033 C 0.73572 0.39893 0.2664 0.0
C1034 C 0.75116 0.3951 0.28492 0.0
C1035 C 0.76092 0.374 0.28305 0.0
H1036 H 0.83106 0.41377 0.49143 0.0
H1037 H 0.81819 0.47691 0.53623 0.0
H1038 H 0.87225 0.43624 0.48983 0.0
H1039 H 0.8594 0.49955 0.53422 0.0
H1040 H 0.9414 0.51857 0.54639 0.0
H1041 H 0.89974 0.49743 0.54815 0.0
H1042 H 0.89481 0.47261 0.47281 0.0
H1043 H 0.93648 0.49326 0.47103 0.0
C1044 C 0.83698 0.43248 0.50086 0.0
C1045 C 0.82133 0.44355 0.51396 0.0
C1046 C 0.86055 0.44541 0.49982 0.0
C1047 C 0.86901 0.46968 0.51182 0.0
C1048 C 0.85342 0.48076 0.52498 0.0
C1049 C 0.8298 0.46783 0.52602 0.0
C1050 C 0.93143 0.50867 0.53017 0.0
C1051 C 0.94233 0.50747 0.5086 0.0
C1052 C 0.90753 0.49668 0.53118 0.0
C1053 C 0.89407 0.48327 0.51064 0.0
C1054 C 0.90485 0.48247 0.48901 0.0
C1055 C 0.92871 0.49443 0.48799 0.0
H1056 H 0.34577 0.09631 0.3015 0.0
H1057 H 0.3431 0.09947 0.22559 0.0
H1058 H 0.31503 0.1199 0.3048 0.0
H1059 H 0.31368 0.12439 0.22887 0.0
H1060 H 0.25419 0.16081 0.23529 0.0
H1061 H 0.275 0.12697 0.23523 0.0
H1062 H 0.31092 0.16027 0.3038 0.0
H1063 H 0.28905 0.19266 0.3044 0.0
C1064 C 0.33878 0.10235 0.28558 0.0
C1065 C 0.3469 0.09632 0.26335 0.0
C1066 C 0.32116 0.11588 0.28742 0.0
C1067 C 0.31176 0.12417 0.26711 0.0
C1068 C 0.31994 0.11789 0.24485 0.0
C1069 C 0.3371 0.10389 0.24298 0.0
C1070 C 0.26597 0.16028 0.25062 0.0
C1071 C 0.27028 0.17944 0.26968 0.0
C1072 C 0.27817 0.14113 0.2505 0.0
C1073 C 0.29518 0.14115 0.26924 0.0
C1074 C 0.29794 0.15936 0.28909 0.0
C1075 C 0.28546 0.17813 0.28939 0.0
H1076 H 0.34573 0.13233 0.48616 0.0
H1077 H 0.30795 0.07656 0.52765 0.0
H1078 H 0.37865 0.11143 0.48505 0.0
H1079 H 0.34029 0.05526 0.5259 0.0
H1080 H 0.41369 0.04155 0.54361 0.0
H1081 H 0.37967 0.06049 0.5423 0.0
H1082 H 0.39178 0.07516 0.46983 0.0
H1083 H 0.42641 0.05683 0.47156 0.0
C1084 C 0.34433 0.11547 0.49482 0.0
C1085 C 0.32427 0.10625 0.50715 0.0
C1086 C 0.36316 0.10336 0.49407 0.0
C1087 C 0.36231 0.08167 0.50552 0.0
C1088 C 0.3419 0.07218 0.5173 0.0
C1089 C 0.32323 0.08435 0.51818 0.0
C1090 C 0.40894 0.04862 0.52733 0.0
C1091 C 0.42267 0.04766 0.50768 0.0
C1092 C 0.38934 0.05941 0.5265 0.0
C1093 C 0.38283 0.06942 0.50593 0.0
C1094 C 0.39639 0.068 0.48609 0.0
C1095 C 0.41611 0.05728 0.48698 0.0
H1096 H 0.6627 0.60905 0.30486 0.0
H1097 H 0.72642 0.58366 0.29055 0.0
H1098 H 0.68439 0.65231 0.30317 0.0
H1099 H 0.74819 0.6272 0.28935 0.0
H1100 H 0.78117 0.71299 0.3119 0.0
H1101 H 0.7602 0.6704 0.31792 0.0
H1102 H 0.70364 0.67385 0.26665 0.0
H1103 H 0.72496 0.71611 0.25998 0.0
C1104 C 0.68145 0.6127 0.30184 0.0
C1105 C 0.69283 0.59286 0.29777 0.0
C1106 C 0.69377 0.63747 0.30071 0.0
C1107 C 0.71785 0.64299 0.29596 0.0
C1108 C 0.72961 0.62338 0.29309 0.0
C1109 C 0.71716 0.59851 0.29377 0.0
C1110 C 0.76423 0.70467 0.30195 0.0
C1111 C 0.75459 0.71789 0.28557 0.0
C1112 C 0.75231 0.68032 0.30538 0.0
C1113 C 0.73031 0.66897 0.29282 0.0
C1114 C 0.72048 0.68234 0.27673 0.0
C1115 C 0.73264 0.70648 0.27294 0.0
H1116 H 0.85186 0.49195 0.76133 0.0
H1117 H 0.91103 0.46744 0.79263 0.0
H1118 H 0.82616 0.45069 0.76256 0.0
H1119 H 0.8851 0.42568 0.79343 0.0
H1120 H 0.82435 0.3612 0.81104 0.0
H1121 H 0.84964 0.40356 0.81283 0.0
H1122 H 0.82248 0.40894 0.74156 0.0
H1123 H 0.797 0.36708 0.73983 0.0
C1124 C 0.85945 0.47773 0.7684 0.0
C1125 C 0.88358 0.48295 0.77673 0.0
C1126 C 0.84468 0.45404 0.76903 0.0
C1127 C 0.85366 0.43495 0.77795 0.0
C1128 C 0.87768 0.44016 0.78663 0.0
C1129 C 0.89255 0.46397 0.78601 0.0
C1130 C 0.8236 0.37153 0.79585 0.0
C1131 C 0.80863 0.36074 0.77529 0.0
C1132 C 0.83824 0.39568 0.79682 0.0
C1133 C 0.83804 0.4095 0.77733 0.0
C1134 C 0.82282 0.39885 0.75697 0.0
C1135 C 0.80828 0.37477 0.75596 0.0
H1136 H 0.00625 0.86341 0.12094 0.0
H1137 H 0.05537 0.84728 0.07008 0.0
H1138 H 0.99802 0.89619 0.098 0.0
H1139 H 0.04667 0.87927 0.04691 0.0
H1140 H 0.05231 0.95999 0.03222 0.0
H1141 H 0.05617 0.92393 0.0517 0.0
H1142 H 0.98071 0.90611 0.06073 0.0
H1143 H 0.97688 0.94307 0.04156 0.0
C1144 C 0.01509 0.86667 0.10475 0.0
C1145 C 0.03172 0.85298 0.09753 0.0
C1146 C 0.01024 0.88532 0.0915 0.0
C1147 C 0.02185 0.89057 0.0707 0.0
C1148 C 0.03777 0.87614 0.06309 0.0
C1149 C 0.04272 0.85771 0.07636 0.0
C1150 C 0.03642 0.94836 0.03815 0.0
C1151 C 0.01427 0.95455 0.03536 0.0
C1152 C 0.03863 0.92748 0.04922 0.0
C1153 C 0.01875 0.91201 0.0578 0.0
C1154 C 0.99642 0.91777 0.05454 0.0
C1155 C 0.99418 0.9388 0.04335 0.0
H1156 H 0.93867 0.23319 0.80282 0.0
H1157 H 0.90498 0.24531 0.86794 0.0
H1158 H 0.90273 0.23618 0.77972 0.0
H1159 H 0.86916 0.24775 0.84496 0.0
H1160 H 0.82561 0.22846 0.74648 0.0
H1161 H 0.85916 0.21801 0.76836 0.0
H1162 H 0.86157 0.28043 0.82187 0.0
H1163 H 0.8286 0.29072 0.80026 0.0
C1164 C 0.92348 0.236 0.81219 0.0
C1165 C 0.92484 0.23944 0.83723 0.0
C1166 C 0.90286 0.23761 0.79895 0.0
C1167 C 0.88326 0.24262 0.81054 0.0
C1168 C 0.88416 0.24445 0.83552 0.0
C1169 C 0.9047 0.24298 0.84869 0.0
C1170 C 0.83336 0.23979 0.76296 0.0
C1171 C 0.82431 0.26015 0.77187 0.0
C1172 C 0.85253 0.23388 0.77544 0.0
C1173 C 0.86279 0.24818 0.79702 0.0
C1174 C 0.85375 0.26865 0.80563 0.0
C1175 C 0.83485 0.2746 0.79318 0.0
H1176 H 0.53113 0.20208 0.64282 0.0
H1177 H 0.53996 0.23861 0.57875 0.0
H1178 H 0.53114 0.16205 0.61988 0.0
H1179 H 0.53959 0.19843 0.55583 0.0
H1180 H 0.50529 0.11453 0.524 0.0
H1181 H 0.50831 0.156 0.54542 0.0
H1182 H 0.56177 0.14345 0.5956 0.0
H1183 H 0.55903 0.10192 0.57392 0.0
C1184 C 0.53286 0.20154 0.62383 0.0
C1185 C 0.53547 0.22351 0.61259 0.0
C1186 C 0.53311 0.17867 0.61077 0.0
C1187 C 0.53553 0.17722 0.58614 0.0
C1188 C 0.53769 0.19906 0.57481 0.0
C1189 C 0.53789 0.22202 0.58793 0.0
C1190 C 0.51792 0.12074 0.53943 0.0
C1191 C 0.53192 0.10499 0.54731 0.0
C1192 C 0.51968 0.14449 0.55163 0.0
C1193 C 0.53515 0.15282 0.57223 0.0
C1194 C 0.54957 0.13735 0.57985 0.0
C1195 C 0.54815 0.11372 0.56735 0.0
H1196 H 0.58389 0.75395 0.36722 0.0
H1197 H 0.54819 0.77482 0.30627 0.0
H1198 H 0.61791 0.75178 0.34438 0.0
H1199 H 0.58222 0.77217 0.28322 0.0
H1200 H 0.66101 0.7976 0.26384 0.0
H1201 H 0.62337 0.79521 0.2821 0.0
H1202 H 0.63083 0.72784 0.31148 0.0
H1203 H 0.66872 0.73062 0.2936 0.0
C1204 C 0.58319 0.7579 0.34888 0.0
C1205 C 0.5633 0.76468 0.33865 0.0
C1206 C 0.60266 0.75643 0.33569 0.0
C1207 C 0.60278 0.7617 0.31191 0.0
C1208 C 0.58279 0.76821 0.30156 0.0
C1209 C 0.56325 0.76965 0.31476 0.0
C1210 C 0.65437 0.78206 0.27387 0.0
C1211 C 0.66782 0.76439 0.27746 0.0
C1212 C 0.63277 0.78063 0.28428 0.0
C1213 C 0.6242 0.76149 0.29849 0.0
C1214 C 0.63714 0.74309 0.30102 0.0
C1215 C 0.65874 0.74454 0.29062 0.0
H1216 H 0.02805 0.23487 0.47721 0.0
H1217 H 0.02781 0.1905 0.40968 0.0
H1218 H 0.02364 0.19714 0.49739 0.0
H1219 H 0.02356 0.15293 0.42992 0.0
H1220 H 0.03991 0.12424 0.52439 0.0
H1221 H 0.04503 0.16383 0.50687 0.0
H1222 H 0.99124 0.12776 0.45064 0.0
H1223 H 0.9861 0.08852 0.4679 0.0
C1224 C 0.02724 0.21713 0.46667 0.0
C1225 C 0.02812 0.21571 0.44177 0.0
C1226 C 0.02482 0.19554 0.47828 0.0
C1227 C 0.023 0.17204 0.46523 0.0
C1228 C 0.02451 0.17073 0.44043 0.0
C1229 C 0.0271 0.1923 0.42884 0.0
C1230 C 0.02891 0.1249 0.50852 0.0
C1231 C 0.01273 0.10314 0.49748 0.0
C1232 C 0.03189 0.14755 0.49846 0.0
C1233 C 0.01884 0.14877 0.47714 0.0
C1234 C 0.00196 0.12728 0.46676 0.0
C1235 C 0.99891 0.1048 0.47681 0.0
H1236 H 0.55087 0.24342 0.18941 0.0
H1237 H 0.58731 0.29888 0.14682 0.0
H1238 H 0.5888 0.23899 0.20627 0.0
H1239 H 0.62549 0.29549 0.16468 0.0
H1240 H 0.69051 0.26597 0.18171 0.0
H1241 H 0.65194 0.26912 0.16449 0.0
H1242 H 0.62204 0.25693 0.23201 0.0
H1243 H 0.66019 0.25243 0.24856 0.0
C1244 C 0.56701 0.25513 0.18403 0.0
C1245 C 0.56602 0.27153 0.16675 0.0
C1246 C 0.58888 0.25262 0.19378 0.0
C1247 C 0.61041 0.26676 0.18682 0.0
C1248 C 0.60937 0.28382 0.1701 0.0
C1249 C 0.58745 0.28602 0.16005 0.0
C1250 C 0.67552 0.26356 0.19266 0.0
C1251 C 0.67826 0.25879 0.21639 0.0
C1252 C 0.65346 0.26571 0.18293 0.0
C1253 C 0.63375 0.26355 0.19686 0.0
C1254 C 0.63657 0.25835 0.22054 0.0
C1255 C 0.6585 0.2558 0.2301 0.0
H1256 H 0.5566 0.83797 0.97665 0.0
H1257 H 0.54682 0.87128 0.9121 0.0
H1258 H 0.554 0.87684 1.00025 0.0
H1259 H 0.5447 0.90998 0.93556 0.0
H1260 H 0.50783 0.95905 0.98216 0.0
H1261 H 0.51476 0.92156 0.96002 0.0
H1262 H 0.57285 0.92211 0.01127 0.0
H1263 H 0.5657 0.95984 0.03362 0.0
C1264 C 0.55432 0.85369 0.96751 0.0
C1265 C 0.5516 0.8514 0.9425 0.0
C1266 C 0.55288 0.87596 0.98102 0.0
C1267 C 0.54874 0.89633 0.96976 0.0
C1268 C 0.54731 0.89442 0.94478 0.0
C1269 C 0.54866 0.87225 0.93133 0.0
C1270 C 0.52216 0.95126 0.98864 0.0
C1271 C 0.53638 0.96245 0.00944 0.0
C1272 C 0.52621 0.92982 0.97591 0.0
C1273 C 0.54455 0.91901 0.98373 0.0
C1274 C 0.55854 0.92996 0.00484 0.0
C1275 C 0.5545 0.95154 0.01758 0.0
H1276 H 0.94537 0.75376 0.71355 0.0
H1277 H 0.92575 0.80006 0.66263 0.0
H1278 H 0.91344 0.76088 0.7375 0.0
H1279 H 0.89275 0.80624 0.68602 0.0
H1280 H 0.84111 0.82337 0.7398 0.0
H1281 H 0.87848 0.82345 0.72136 0.0
H1282 H 0.87226 0.74659 0.73508 0.0
H1283 H 0.83601 0.74688 0.75414 0.0
C1284 C 0.93414 0.76544 0.70743 0.0
C1285 C 0.93789 0.77608 0.68604 0.0
C1286 C 0.91569 0.76944 0.72112 0.0
C1287 C 0.9001 0.78377 0.71357 0.0
C1288 C 0.90444 0.79525 0.69257 0.0
C1289 C 0.92325 0.79158 0.67903 0.0
C1290 C 0.84804 0.8067 0.73928 0.0
C1291 C 0.83547 0.78513 0.74847 0.0
C1292 C 0.86934 0.80664 0.72847 0.0
C1293 C 0.8785 0.78501 0.7266 0.0
C1294 C 0.86618 0.7638 0.73648 0.0
C1295 C 0.84513 0.7639 0.74734 0.0
H1296 H 0.08576 0.05109 0.84667 0.0
H1297 H 0.09862 0.97731 0.8498 0.0
H1298 H 0.06376 0.04681 0.88203 0.0
H1299 H 0.07624 0.97302 0.8855 0.0
H1300 H 0.05309 0.04471 0.96038 0.0
H1301 H 0.07552 0.04488 0.92521 0.0
H1302 H 0.03308 0.97111 0.89853 0.0
H1303 H 0.01037 0.97091 0.93412 0.0
C1304 C 0.08382 0.03386 0.85483 0.0
C1305 C 0.09409 0.01458 0.84542 0.0
C1306 C 0.07128 0.03148 0.87521 0.0
C1307 C 0.06844 0.00967 0.88667 0.0
C1308 C 0.07811 0.99002 0.87699 0.0
C1309 C 0.09099 0.99253 0.85664 0.0
C1310 C 0.0486 0.02839 0.94716 0.0
C1311 C 0.02984 0.00785 0.94995 0.0
C1312 C 0.06141 0.02856 0.92694 0.0
C1313 C 0.05591 0.00813 0.90898 0.0
C1314 C 0.03774 0.9871 0.91212 0.0
C1315 C 0.0247 0.98702 0.93239 0.0
H1316 H 0.74402 0.32701 0.54853 0.0
H1317 H 0.7242 0.38558 0.59409 0.0
H1318 H 0.74422 0.3026 0.582 0.0
H1319 H 0.72432 0.36089 0.62752 0.0
H1320 H 0.7148 0.30209 0.67977 0.0
H1321 H 0.70524 0.31849 0.64285 0.0
H1322 H 0.77404 0.3141 0.61912 0.0
H1323 H 0.7837 0.29801 0.65608 0.0
C1324 C 0.73922 0.33448 0.56554 0.0
C1325 C 0.73447 0.35845 0.56877 0.0
C1326 C 0.73941 0.32049 0.58466 0.0
C1327 C 0.73454 0.33004 0.60727 0.0
C1328 C 0.72805 0.35311 0.61017 0.0
C1329 C 0.72811 0.36728 0.59108 0.0
C1330 C 0.7277 0.3043 0.66647 0.0
C1331 C 0.75002 0.29895 0.67066 0.0
C1332 C 0.72225 0.31372 0.64546 0.0
C1333 C 0.7389 0.31748 0.62824 0.0
C1334 C 0.76081 0.31107 0.63205 0.0
C1335 C 0.76639 0.30202 0.65319 0.0
H1336 H 0.49381 0.05683 0.33419 0.0
H1337 H 0.43082 0.07223 0.36401 0.0
H1338 H 0.51324 0.06095 0.37418 0.0
H1339 H 0.45014 0.07567 0.40424 0.0
H1340 H 0.48066 0.02528 0.45771 0.0
H1341 H 0.46246 0.03611 0.42178 0.0
H1342 H 0.52642 0.09254 0.41493 0.0
H1343 H 0.54434 0.0826 0.45193 0.0
C1344 C 0.48434 0.06163 0.34933 0.0
C1345 C 0.4608 0.06403 0.34614 0.0
C1346 C 0.49551 0.06415 0.37214 0.0
C1347 C 0.48311 0.06856 0.39215 0.0
C1348 C 0.46001 0.07232 0.38898 0.0
C1349 C 0.44902 0.0704 0.36606 0.0
C1350 C 0.49053 0.04063 0.44909 0.0
C1351 C 0.51373 0.05341 0.45781 0.0
C1352 C 0.48012 0.04679 0.4285 0.0
C1353 C 0.49297 0.06536 0.41586 0.0
C1354 C 0.51614 0.07833 0.4246 0.0
C1355 C 0.52637 0.07257 0.44561 0.0
H1356 H 0.74819 0.72495 0.06283 0.0
H1357 H 0.79563 0.68218 0.0894 0.0
H1358 H 0.747 0.74478 0.10329 0.0
H1359 H 0.79449 0.70206 0.12968 0.0
H1360 H 0.80478 0.76067 0.19487 0.0
H1361 H 0.80702 0.74423 0.15375 0.0
H1362 H 0.73064 0.73037 0.14186 0.0
H1363 H 0.72828 0.74687 0.18329 0.0
C1364 C 0.75866 0.72006 0.07721 0.0
C1365 C 0.77204 0.70198 0.07283 0.0
C1366 C 0.75777 0.73124 0.10041 0.0
C1367 C 0.77054 0.72489 0.1197 0.0
C1368 C 0.78456 0.70747 0.1152 0.0
C1369 C 0.78518 0.69605 0.09209 0.0
C1370 C 0.7884 0.75422 0.18356 0.0
C1371 C 0.7663 0.75505 0.1925 0.0
C1372 C 0.78972 0.74469 0.15997 0.0
C1373 C 0.76903 0.73595 0.14454 0.0
C1374 C 0.74693 0.73716 0.15327 0.0
C1375 C 0.74556 0.74645 0.17704 0.0
H1376 H 0.12612 0.99582 0.69258 0.0
H1377 H 0.08634 0.04013 0.73363 0.0
H1378 H 0.10762 0.00483 0.65593 0.0
H1379 H 0.06851 0.04989 0.69704 0.0
H1380 H 0.02451 0.04349 0.62589 0.0
H1381 H 0.04149 0.03413 0.66323 0.0
H1382 H 0.10898 0.03846 0.63254 0.0
H1383 H 0.0916 0.04688 0.59496 0.0
C1384 C 0.11333 0.00737 0.69381 0.0
C1385 C 0.10776 0.01723 0.71611 0.0
C1386 C 0.1029 0.01281 0.67276 0.0
C1387 C 0.08677 0.02842 0.67342 0.0
C1388 C 0.08067 0.03764 0.69575 0.0
C1389 C 0.09095 0.03204 0.7168 0.0
C1390 C 0.04306 0.04277 0.62727 0.0
C1391 C 0.05675 0.04593 0.60754 0.0
C1392 C 0.05284 0.03741 0.6487 0.0
C1393 C 0.07659 0.03524 0.65093 0.0
C1394 C 0.09048 0.03938 0.63136 0.0
C1395 C 0.08064 0.04454 0.6099 0.0
H1396 H 0.72996 0.37131 0.42258 0.0
H1397 H 0.75476 0.31251 0.45345 0.0
H1398 H 0.72991 0.34927 0.3828 0.0
H1399 H 0.75435 0.2904 0.41371 0.0
H1400 H 0.72977 0.2524 0.33427 0.0
H1401 H 0.72469 0.2699 0.37487 0.0
H1402 H 0.76833 0.34152 0.36235 0.0
H1403 H 0.77388 0.32415 0.3224 0.0
C1404 C 0.73485 0.35344 0.42089 0.0
C1405 C 0.7426 0.34373 0.44101 0.0
C1406 C 0.73493 0.34092 0.39819 0.0
C1407 C 0.74232 0.31832 0.39534 0.0
C1408 C 0.74853 0.30777 0.41552 0.0
C1409 C 0.74886 0.32049 0.43819 0.0
C1410 C 0.73848 0.27176 0.34039 0.0
C1411 C 0.7521 0.28696 0.32522 0.0
C1412 C 0.73549 0.28175 0.36346 0.0
C1413 C 0.74574 0.30713 0.37139 0.0
C1414 C 0.75986 0.32204 0.35642 0.0
C1415 C 0.76318 0.312 0.33365 0.0
H1416 H 0.43087 0.07785 0.19542 0.0
H1417 H 0.48432 0.05353 0.23689 0.0
H1418 H 0.45456 0.07779 0.16122 0.0
H1419 H 0.50823 0.05393 0.20267 0.0
H1420 H 0.51758 0.01691 0.12668 0.0
H1421 H 0.50245 0.0263 0.16512 0.0
H1422 H 0.49132 0.09605 0.14371 0.0
H1423 H 0.50603 0.08634 0.10507 0.0
C1424 C 0.4479 0.073 0.1974 0.0
C1425 C 0.45552 0.06532 0.21877 0.0
C1426 C 0.46157 0.07312 0.17782 0.0
C1427 C 0.48316 0.06562 0.1792 0.0
C1428 C 0.49148 0.05943 0.201 0.0
C1429 C 0.47781 0.05931 0.22061 0.0
C1430 C 0.51225 0.03441 0.13038 0.0
C1431 C 0.51268 0.05077 0.11293 0.0
C1432 C 0.50374 0.0399 0.15243 0.0
C1433 C 0.49555 0.06186 0.15737 0.0
C1434 C 0.4972 0.07884 0.14028 0.0
C1435 C 0.50568 0.07333 0.11823 0.0
H1436 H 0.77987 0.68016 0.92188 0.0
H1437 H 0.7561 0.74358 0.95408 0.0
H1438 H 0.78465 0.69962 0.88471 0.0
H1439 H 0.76167 0.7633 0.91726 0.0
H1440 H 0.80038 0.79853 0.85287 0.0
H1441 H 0.79936 0.77923 0.89012 0.0
H1442 H 0.75093 0.71241 0.8549 0.0
H1443 H 0.75089 0.73209 0.81808 0.0
C1444 C 0.77603 0.6984 0.92115 0.0
C1445 C 0.76758 0.71032 0.94091 0.0
C1446 C 0.77868 0.70946 0.89987 0.0
C1447 C 0.77357 0.73297 0.89815 0.0
C1448 C 0.76587 0.74524 0.91814 0.0
C1449 C 0.76262 0.7339 0.93917 0.0
C1450 C 0.78962 0.77967 0.85303 0.0
C1451 C 0.77596 0.76673 0.83238 0.0
C1452 C 0.78903 0.76867 0.87435 0.0
C1453 C 0.77521 0.74426 0.87532 0.0
C1454 C 0.76199 0.73111 0.85457 0.0
C1455 C 0.76209 0.74235 0.83344 0.0
H1456 H 0.83095 0.10249 0.99305 0.0
H1457 H 0.8506 0.09916 0.06701 0.0
H1458 H 0.85411 0.0721 0.98127 0.0
H1459 H 0.87484 0.0701 0.05545 0.0
H1460 H 0.90688 0.00773 0.0337 0.0
H1461 H 0.87518 0.02948 0.0404 0.0
H1462 H 0.89298 0.06825 0.97864 0.0
H1463 H 0.92339 0.04524 0.97122 0.0
C1464 C 0.8405 0.09548 0.00675 0.0
C1465 C 0.83909 0.10321 0.03092 0.0
C1466 C 0.85379 0.07807 1.00004 0.0
C1467 C 0.8663 0.0684 0.01737 0.0
C1468 C 0.86496 0.07646 0.04156 0.0
C1469 C 0.85132 0.09343 0.04823 0.0
C1470 C 0.90337 0.02028 0.02116 0.0
C1471 C 0.91759 0.02495 0.00206 0.0
C1472 C 0.88548 0.03306 0.02516 0.0
C1473 C 0.88189 0.05123 0.01047 0.0
C1474 C 0.89503 0.05439 0.99031 0.0
C1475 C 0.91255 0.04119 0.98603 0.0
H1476 H 0.34451 0.41086 0.02932 0.0
H1477 H 0.31804 0.47637 0.05027 0.0
H1478 H 0.38356 0.43736 0.026 0.0
H1479 H 0.3574 0.50322 0.04626 0.0
H1480 H 0.43946 0.53773 0.06273 0.0
H1481 H 0.39796 0.51517 0.06402 0.0
H1482 H 0.40431 0.46604 0.00142 0.0
H1483 H 0.44587 0.48791 1.00081 0.0
C1484 C 0.34696 0.43098 0.03308 0.0
C1485 C 0.32803 0.44144 0.04001 0.0
C1486 C 0.36941 0.44626 0.03096 0.0
C1487 C 0.37365 0.47252 0.0355 0.0
C1488 C 0.35482 0.48307 0.04271 0.0
C1489 C 0.33224 0.46768 0.04496 0.0
C1490 C 0.43181 0.52236 0.04905 0.0
C1491 C 0.44593 0.51441 0.03181 0.0
C1492 C 0.408 0.50945 0.04974 0.0
C1493 C 0.39785 0.48844 0.0331 0.0
C1494 C 0.41168 0.48167 0.01493 0.0
C1495 C 0.43545 0.49437 0.0144 0.0
H1496 H 0.35029 0.60561 0.77552 0.0
H1497 H 0.31416 0.59265 0.70516 0.0
H1498 H 0.32995 0.63882 0.78637 0.0
H1499 H 0.2945 0.62631 0.71563 0.0
H1500 H 0.24837 0.6759 0.74465 0.0
H1501 H 0.2652 0.63929 0.7382 0.0
H1502 H 0.32991 0.68029 0.77918 0.0
H1503 H 0.31284 0.71637 0.78631 0.0
C1504 C 0.33807 0.60989 0.76234 0.0
C1505 C 0.33392 0.59647 0.73945 0.0
C1506 C 0.32645 0.62904 0.76851 0.0
C1507 C 0.31049 0.63539 0.75191 0.0
C1508 C 0.30626 0.62175 0.72908 0.0
C1509 C 0.31774 0.60252 0.72298 0.0
C1510 C 0.26602 0.67694 0.75265 0.0
C1511 C 0.27921 0.69919 0.76596 0.0
C1512 C 0.27581 0.656 0.74873 0.0
C1513 C 0.29909 0.65678 0.75792 0.0
C1514 C 0.31187 0.67874 0.772 0.0
C1515 C 0.30205 0.69959 0.77601 0.0
H1516 H 0.21751 0.58709 0.50604 0.0
H1517 H 0.2066 0.66241 0.51224 0.0
H1518 H 0.1745 0.57008 0.50192 0.0
H1519 H 0.16359 0.64525 0.50819 0.0
H1520 H 0.09335 0.60223 0.537 0.0
H1521 H 0.13581 0.62043 0.53592 0.0
H1522 H 0.13787 0.56895 0.47372 0.0
H1523 H 0.0953 0.55067 0.47466 0.0
C1524 C 0.20594 0.6 0.50628 0.0
C1525 C 0.2154 0.62608 0.50963 0.0
C1526 C 0.18137 0.59025 0.5038 0.0
C1527 C 0.16586 0.60641 0.50489 0.0
C1528 C 0.17526 0.63246 0.50751 0.0
C1529 C 0.19984 0.64222 0.5097 0.0
C1530 C 0.10282 0.59482 0.52305 0.0
C1531 C 0.09104 0.575 0.50595 0.0
C1532 C 0.12705 0.60538 0.52233 0.0
C1533 C 0.13998 0.59609 0.50469 0.0
C1534 C 0.12823 0.57634 0.48753 0.0
C1535 C 0.10391 0.56598 0.48805 0.0
H1536 H 0.71379 0.97566 0.72765 0.0
H1537 H 0.65971 0.9472 0.77438 0.0
H1538 H 0.73737 0.94742 0.74089 0.0
H1539 H 0.68331 0.91879 0.78738 0.0
H1540 H 0.70924 0.84666 0.7585 0.0
H1541 H 0.69092 0.88193 0.75735 0.0
H1542 H 0.75871 0.93325 0.77957 0.0
H1543 H 0.77725 0.89731 0.78142 0.0
C1544 C 0.70713 0.96366 0.74102 0.0
C1545 C 0.68472 0.96323 0.74967 0.0
C1546 C 0.72077 0.94777 0.74879 0.0
C1547 C 0.71207 0.93102 0.76508 0.0
C1548 C 0.69033 0.93163 0.77479 0.0
C1549 C 0.67683 0.94776 0.76728 0.0
C1550 C 0.72027 0.86544 0.76335 0.0
C1551 C 0.74467 0.86941 0.76985 0.0
C1552 C 0.70971 0.88558 0.76294 0.0
C1553 C 0.72339 0.91018 0.76859 0.0
C1554 C 0.74784 0.91433 0.77531 0.0
C1555 C 0.7584 0.89393 0.77631 0.0
H1556 H 0.70115 0.93762 0.50668 0.0
H1557 H 0.70228 0.9599 0.58207 0.0
H1558 H 0.66955 0.95903 0.4993 0.0
H1559 H 0.66969 0.97993 0.57506 0.0
H1560 H 0.62317 0.03163 0.55581 0.0
H1561 H 0.65721 0.0132 0.56193 0.0
H1562 H 0.62995 0.95774 0.50127 0.0
H1563 H 0.59705 0.9773 0.49448 0.0
C1564 C 0.69441 0.94686 0.52172 0.0
C1565 C 0.70424 0.94705 0.54494 0.0
C1566 C 0.67611 0.95906 0.51754 0.0
C1567 C 0.66673 0.97135 0.53654 0.0
C1568 C 0.67658 0.97128 0.55982 0.0
C1569 C 0.69521 0.95954 0.56392 0.0
C1570 C 0.62473 0.01569 0.54367 0.0
C1571 C 0.60756 0.00604 0.52459 0.0
C1572 C 0.64413 0.00486 0.54728 0.0
C1573 C 0.64658 0.98373 0.53218 0.0
C1574 C 0.62924 0.97423 0.51305 0.0
C1575 C 0.61017 0.98537 0.5092 0.0
H1576 H 0.37684 0.44979 0.73452 0.0
H1577 H 0.31057 0.47182 0.72289 0.0
H1578 H 0.35493 0.40719 0.73786 0.0
H1579 H 0.28858 0.42907 0.7267 0.0
H1580 H 0.25713 0.3441 0.71655 0.0
H1581 H 0.27948 0.38535 0.70837 0.0
H1582 H 0.33061 0.38672 0.76711 0.0
H1583 H 0.30846 0.34545 0.77501 0.0
C1584 C 0.35757 0.44554 0.73257 0.0
C1585 C 0.34545 0.4643 0.72862 0.0
C1586 C 0.34502 0.42111 0.73462 0.0
C1587 C 0.32002 0.4148 0.73284 0.0
C1588 C 0.30785 0.4333 0.72801 0.0
C1589 C 0.32044 0.45781 0.7259 0.0
C1590 C 0.27323 0.35322 0.7276 0.0
C1591 C 0.2811 0.34164 0.7464 0.0
C1592 C 0.28594 0.37687 0.723 0.0
C1593 C 0.30681 0.38933 0.73708 0.0
C1594 C 0.3148 0.37749 0.7557 0.0
C1595 C 0.30207 0.3539 0.76031 0.0
H1596 H 0.12801 0.58846 0.23806 0.0
H1597 H 0.19315 0.5628 0.23919 0.0
H1598 H 0.15138 0.63203 0.24261 0.0
H1599 H 0.21632 0.60625 0.24417 0.0
H1600 H 0.24405 0.68867 0.28214 0.0
H1601 H 0.22078 0.6451 0.27791 0.0
H1602 H 0.18209 0.65805 0.21509 0.0
H1603 H 0.2055 0.70139 0.21896 0.0
C1604 C 0.14726 0.59213 0.23938 0.0
C1605 C 0.15878 0.57229 0.23818 0.0
C1606 C 0.16057 0.61697 0.24189 0.0
C1607 C 0.18555 0.6223 0.24375 0.0
C1608 C 0.19706 0.60252 0.2429 0.0
C1609 C 0.18379 0.57772 0.23992 0.0
C1610 C 0.23064 0.68216 0.26739 0.0
C1611 C 0.22663 0.69833 0.25083 0.0
C1612 C 0.21742 0.65731 0.26497 0.0
C1613 C 0.19966 0.64845 0.24625 0.0
C1614 C 0.19559 0.6646 0.22975 0.0
C1615 C 0.20912 0.68928 0.23189 0.0
H1616 H 0.47681 0.69659 0.43621 0.0
H1617 H 0.55358 0.71406 0.44261 0.0
H1618 H 0.47578 0.66158 0.45954 0.0
H1619 H 0.55282 0.67817 0.46425 0.0
H1620 H 0.54814 0.62191 0.51617 0.0
H1621 H 0.54691 0.66019 0.49861 0.0
H1622 H 0.48076 0.62166 0.45836 0.0
H1623 H 0.4813 0.58431 0.47733 0.0
C1624 C 0.49345 0.69275 0.44245 0.0
C1625 C 0.51525 0.70802 0.43765 0.0
C1626 C 0.49294 0.67255 0.45571 0.0
C1627 C 0.51423 0.66674 0.4639 0.0
C1628 C 0.53601 0.68218 0.45892 0.0
C1629 C 0.53649 0.70271 0.44625 0.0
C1630 C 0.53322 0.62186 0.50381 0.0
C1631 C 0.51483 0.60018 0.49815 0.0
C1632 C 0.53257 0.64374 0.49349 0.0
C1633 C 0.51385 0.64421 0.4767 0.0
C1634 C 0.49527 0.62246 0.47146 0.0
C1635 C 0.49563 0.60086 0.48227 0.0
H1636 H 0.58987 0.3102 0.73174 0.0
H1637 H 0.628 0.30966 0.66822 0.0
H1638 H 0.62622 0.31112 0.7558 0.0
H1639 H 0.66391 0.30889 0.69185 0.0
H1640 H 0.7303 0.32098 0.74018 0.0
H1641 H 0.69544 0.32821 0.71867 0.0
H1642 H 0.65015 0.28509 0.76573 0.0
H1643 H 0.68534 0.27924 0.78782 0.0
C1644 C 0.60609 0.31041 0.72295 0.0
C1645 C 0.60607 0.30986 0.69809 0.0
C1646 C 0.62693 0.31062 0.7367 0.0
C1647 C 0.64814 0.30969 0.72589 0.0
C1648 C 0.64819 0.31001 0.70103 0.0
C1649 C 0.62749 0.31036 0.68737 0.0
C1650 C 0.71281 0.31306 0.74578 0.0
C1651 C 0.71035 0.29923 0.76533 0.0
C1652 C 0.69277 0.31714 0.73346 0.0
C1653 C 0.66972 0.30708 0.74018 0.0
C1654 C 0.66747 0.29358 0.76015 0.0
C1655 C 0.68761 0.28998 0.77276 0.0
H1656 H 0.97314 0.3159 0.96105 0.0
H1657 H 0.0037 0.34658 0.89933 0.0
H1658 H 0.9764 0.35838 0.9805 0.0
H1659 H 0.00629 0.38917 0.91867 0.0
H1660 H 0.9755 0.45614 0.95517 0.0
H1661 H 0.97182 0.41349 0.93536 0.0
H1662 H 0.01522 0.39777 0.9934 0.0
H1663 H 0.01948 0.44043 0.01285 0.0
C1664 C 0.98053 0.33173 0.95164 0.0
C1665 C 0.98825 0.32797 0.92871 0.0
C1666 C 0.98238 0.35597 0.96278 0.0
C1667 C 0.99144 0.37691 0.95097 0.0
C1668 C 0.99908 0.37324 0.92801 0.0
C1669 C 0.99776 0.34895 0.91707 0.0
C1670 C 0.98407 0.44348 0.96373 0.0
C1671 C 0.99776 0.45153 0.98551 0.0
C1672 C 0.98213 0.41924 0.95234 0.0
C1673 C 0.99333 0.40252 0.96288 0.0
C1674 C 0.00644 0.41035 0.98496 0.0
C1675 C 0.00887 0.43472 0.99603 0.0
H1676 H 0.95872 0.8104 0.17323 0.0
H1677 H 0.98286 0.77815 0.23345 0.0
H1678 H 0.92317 0.81475 0.1931 0.0
H1679 H 0.94812 0.78352 0.25377 0.0
H1680 H 0.86978 0.76469 0.26869 0.0
H1681 H 0.90745 0.76499 0.25169 0.0
H1682 H 0.90634 0.83524 0.22445 0.0
H1683 H 0.86783 0.83422 0.24079 0.0
C1684 C 0.95658 0.80456 0.19084 0.0
C1685 C 0.97343 0.79364 0.20163 0.0
C1686 C 0.93628 0.80722 0.20235 0.0
C1687 C 0.93256 0.7993 0.22504 0.0
C1688 C 0.94999 0.78927 0.23611 0.0
C1689 C 0.97002 0.78629 0.22448 0.0
C1690 C 0.87773 0.78038 0.25934 0.0
C1691 C 0.86589 0.79943 0.25605 0.0
C1692 C 0.89946 0.78064 0.24964 0.0
C1693 C 0.91009 0.80014 0.2366 0.0
C1694 C 0.89856 0.81971 0.23404 0.0
C1695 C 0.87662 0.8193 0.2436 0.0
H1696 H 0.48394 0.34651 0.10728 0.0
H1697 H 0.52537 0.32523 0.05085 0.0
H1698 H 0.48238 0.3847 0.0894 0.0
H1699 H 0.52363 0.36335 0.03294 0.0
H1700 H 0.49653 0.42729 0.99917 0.0
H1701 H 0.49381 0.38623 0.01374 0.0
H1702 H 0.51544 0.42312 0.08497 0.0
H1703 H 0.5184 0.46362 0.07073 0.0
C1704 C 0.49248 0.34983 0.09095 0.0
C1705 C 0.50497 0.33296 0.08063 0.0
C1706 C 0.49163 0.37171 0.08074 0.0
C1707 C 0.50296 0.37702 0.05982 0.0
C1708 C 0.5146 0.35966 0.04895 0.0
C1709 C 0.51574 0.33794 0.05934 0.0
C1710 C 0.50073 0.42656 0.0179 0.0
C1711 C 0.50783 0.44878 0.0337 0.0
C1712 C 0.4992 0.40311 0.02622 0.0
C1713 C 0.50422 0.40152 0.05053 0.0
C1714 C 0.51115 0.42372 0.06622 0.0
C1715 C 0.51307 0.44699 0.05793 0.0
H1716 H 0.98534 0.29835 0.33818 0.0
H1717 H 0.9436 0.27362 0.39599 0.0
H1718 H 0.95083 0.3082 0.31851 0.0
H1719 H 0.90856 0.28157 0.3757 0.0
H1720 H 0.85236 0.31566 0.34521 0.0
H1721 H 0.88905 0.3111 0.36551 0.0
H1722 H 0.9151 0.29271 0.29723 0.0
H1723 H 0.87934 0.29924 0.27731 0.0
C1724 C 0.9686 0.29456 0.34642 0.0
C1725 C 0.96712 0.28521 0.36857 0.0
C1726 C 0.9487 0.30011 0.33512 0.0
C1727 C 0.92665 0.29581 0.34542 0.0
C1728 C 0.92522 0.28586 0.3674 0.0
C1729 C 0.94526 0.28096 0.37895 0.0
C1730 C 0.86624 0.31115 0.33467 0.0
C1731 C 0.86312 0.30793 0.30975 0.0
C1732 C 0.88717 0.30816 0.34625 0.0
C1733 C 0.90517 0.30115 0.33314 0.0
C1734 C 0.90205 0.29851 0.3081 0.0
C1735 C 0.88143 0.30215 0.29659 0.0
H1736 H 0.973 0.6829 0.61095 0.0
H1737 H 0.98443 0.7255 0.55083 0.0
H1738 H 0.97489 0.64497 0.58546 0.0
H1739 H 0.98564 0.68725 0.52528 0.0
H1740 H 0.9674 0.60091 0.4892 0.0
H1741 H 0.95731 0.63688 0.5122 0.0
H1742 H 0.01683 0.64195 0.56297 0.0
H1743 H 0.02768 0.60719 0.53953 0.0
C1744 C 0.97509 0.68402 0.59216 0.0
C1745 C 0.97874 0.70721 0.5829 0.0
C1746 C 0.97627 0.66235 0.57765 0.0
C1747 C 0.9805 0.66338 0.55355 0.0
C1748 C 0.98225 0.68607 0.54382 0.0
C1749 C 0.9816 0.7079 0.55844 0.0
C1750 C 0.97835 0.60984 0.50522 0.0
C1751 C 0.99808 0.60104 0.51285 0.0
C1752 C 0.97253 0.63026 0.51834 0.0
C1753 C 0.98609 0.64173 0.53947 0.0
C1754 C 0.00588 0.63305 0.54694 0.0
C1755 C 0.01203 0.61316 0.53356 0.0
H1756 H 0.57663 0.78268 0.82381 0.0
H1757 H 0.61091 0.75195 0.87931 0.0
H1758 H 0.60786 0.77732 0.79783 0.0
H1759 H 0.64218 0.74681 0.85336 0.0
H1760 H 0.68733 0.72508 0.79586 0.0
H1761 H 0.65074 0.7238 0.81593 0.0
H1762 H 0.65057 0.79806 0.79804 0.0
H1763 H 0.68688 0.7993 0.77788 0.0
C1764 C 0.59069 0.77458 0.83043 0.0
C1765 C 0.59134 0.76793 0.85375 0.0
C1766 C 0.60862 0.77159 0.81554 0.0
C1767 C 0.62752 0.7617 0.82355 0.0
C1768 C 0.62772 0.75422 0.84655 0.0
C1769 C 0.60988 0.75737 0.8615 0.0
C1770 C 0.6792 0.7409 0.79576 0.0
C1771 C 0.69011 0.76235 0.7854 0.0
C1772 C 0.65836 0.74025 0.80743 0.0
C1773 C 0.64788 0.76091 0.80875 0.0
C1774 C 0.65808 0.78176 0.79721 0.0
C1775 C 0.67899 0.78251 0.78575 0.0
H1776 H 0.39837 0.54729 0.65159 0.0
H1777 H 0.462 0.56541 0.69951 0.0
H1778 H 0.42277 0.54813 0.61758 0.0
H1779 H 0.48636 0.56659 0.66538 0.0
H1780 H 0.52108 0.5863 0.59492 0.0
H1781 H 0.49646 0.59074 0.62836 0.0
H1782 H 0.44973 0.51872 0.6032 0.0
H1783 H 0.47477 0.51382 0.57048 0.0
C1784 C 0.41756 0.55194 0.6549 0.0
C1785 C 0.42822 0.55619 0.67831 0.0
C1786 C 0.43151 0.55224 0.6354 0.0
C1787 C 0.45644 0.55726 0.63885 0.0
C1788 C 0.46718 0.56277 0.6622 0.0
C1789 C 0.45322 0.56203 0.68173 0.0
C1790 C 0.50551 0.57147 0.59652 0.0
C1791 C 0.49964 0.54988 0.57985 0.0
C1792 C 0.49146 0.57401 0.61565 0.0
C1793 C 0.47106 0.55519 0.61824 0.0
C1794 C 0.46511 0.53373 0.60142 0.0
C1795 C 0.47939 0.53098 0.58262 0.0
H1796 H 0.79694 0.24423 0.98611 0.0
H1797 H 0.80638 0.17842 0.94338 0.0
H1798 H 0.80196 0.26769 0.95185 0.0
H1799 H 0.80959 0.20112 0.90839 0.0
H1800 H 0.82012 0.24774 0.84842 0.0
H1801 H 0.82835 0.23185 0.88585 0.0
H1802 H 0.77796 0.26917 0.91871 0.0
H1803 H 0.77114 0.28618 0.8818 0.0
C1804 C 0.80024 0.23489 0.96927 0.0
C1805 C 0.80109 0.20958 0.96714 0.0
C1806 C 0.8029 0.24822 0.94958 0.0
C1807 C 0.80559 0.23622 0.92711 0.0
C1808 C 0.80775 0.21114 0.92537 0.0
C1809 C 0.80579 0.19802 0.94534 0.0
C1810 C 0.81124 0.25287 0.86389 0.0
C1811 C 0.79491 0.268 0.86236 0.0
C1812 C 0.81578 0.24362 0.88527 0.0
C1813 C 0.80366 0.24891 0.90536 0.0
C1814 C 0.78803 0.26497 0.90387 0.0
C1815 C 0.78392 0.27464 0.88265 0.0
H1816 H 0.04578 0.46453 0.18542 0.0
H1817 H 0.10895 0.47272 0.14656 0.0
H1818 H 0.02197 0.46486 0.14867 0.0
H1819 H 0.08505 0.47329 0.10993 0.0
H1820 H 0.98794 0.46237 0.07072 0.0
H1821 H 0.00915 0.44571 0.10183 0.0
H1822 H 0.06565 0.51309 0.10849 0.0
H1823 H 0.04417 0.5301 0.0788 0.0
C1824 C 0.05444 0.46552 0.16891 0.0
C1825 C 0.0793 0.46917 0.16893 0.0
C1826 C 0.04076 0.46553 0.14789 0.0
C1827 C 0.05181 0.46944 0.12669 0.0
C1828 C 0.07623 0.47037 0.12619 0.0
C1829 C 0.08987 0.47002 0.14714 0.0
C1830 C 0.00489 0.4735 0.07892 0.0
C1831 C 0.01472 0.49729 0.07212 0.0
C1832 C 0.01703 0.46392 0.09648 0.0
C1833 C 0.03927 0.47788 0.10695 0.0
C1834 C 0.04888 0.50165 0.10013 0.0
C1835 C 0.03657 0.51138 0.08317 0.0
H1836 H 0.79013 0.82584 0.47024 0.0
H1837 H 0.73546 0.86475 0.4545 0.0
H1838 H 0.79116 0.81315 0.42789 0.0
H1839 H 0.73662 0.85215 0.41199 0.0
H1840 H 0.72904 0.8026 0.33997 0.0
H1841 H 0.7272 0.81492 0.38219 0.0
H1842 H 0.80394 0.83242 0.39186 0.0
H1843 H 0.80586 0.81983 0.34948 0.0
C1844 C 0.77818 0.83155 0.45777 0.0
C1845 C 0.76267 0.84631 0.46584 0.0
C1846 C 0.77895 0.82446 0.43343 0.0
C1847 C 0.76413 0.83179 0.41647 0.0
C1848 C 0.74819 0.84604 0.42456 0.0
C1849 C 0.74752 0.85328 0.44894 0.0
C1850 C 0.74559 0.80911 0.35101 0.0
C1851 C 0.76764 0.81016 0.34122 0.0
C1852 C 0.74449 0.81632 0.37527 0.0
C1853 C 0.76539 0.82463 0.39049 0.0
C1854 C 0.78746 0.82583 0.38071 0.0
C1855 C 0.78858 0.81877 0.35636 0.0
H1856 H 0.45906 0.52035 0.80035 0.0
H1857 H 0.39669 0.5429 0.82417 0.0
H1858 H 0.46925 0.5121 0.84046 0.0
H1859 H 0.40623 0.53359 0.86421 0.0
H1860 H 0.44421 0.53789 0.9384 0.0
H1861 H 0.43195 0.54598 0.89883 0.0
H1862 H 0.45794 0.48328 0.86802 0.0
H1863 H 0.47124 0.47606 0.90777 0.0
C1864 C 0.44755 0.52363 0.81422 0.0
C1865 C 0.42711 0.53237 0.80909 0.0
C1866 C 0.45321 0.51856 0.83721 0.0
C1867 C 0.4384 0.52174 0.85567 0.0
C1868 C 0.41822 0.53108 0.8506 0.0
C1869 C 0.41273 0.53647 0.82761 0.0
C1870 C 0.44696 0.52558 0.92317 0.0
C1871 C 0.45875 0.50637 0.92615 0.0
C1872 C 0.43988 0.5302 0.90041 0.0
C1873 C 0.44419 0.51554 0.88004 0.0
C1874 C 0.45487 0.49542 0.88319 0.0
C1875 C 0.46221 0.49101 0.90599 0.0
H1876 H 0.77494 0.23162 0.0748 0.0
H1877 H 0.82993 0.20487 0.11135 0.0
H1878 H 0.77318 0.25999 0.11029 0.0
H1879 H 0.82844 0.23396 0.14668 0.0
H1880 H 0.82573 0.30807 0.19685 0.0
H1881 H 0.83093 0.28929 0.15686 0.0
H1882 H 0.76177 0.23863 0.15543 0.0
H1883 H 0.75694 0.2565 0.19565 0.0
C1884 C 0.7871 0.23225 0.09016 0.0
C1885 C 0.80245 0.21585 0.09041 0.0
C1886 C 0.78605 0.2485 0.11038 0.0
C1887 C 0.80074 0.24905 0.13091 0.0
C1888 C 0.81714 0.23388 0.1308 0.0
C1889 C 0.81788 0.21721 0.11071 0.0
C1890 C 0.81144 0.29331 0.18775 0.0
C1891 C 0.79088 0.2837 0.19919 0.0
C1892 C 0.81449 0.28258 0.16503 0.0
C1893 C 0.79671 0.26268 0.15336 0.0
C1894 C 0.77558 0.25413 0.16419 0.0
C1895 C 0.7728 0.26438 0.18708 0.0
H1896 H 0.0961 0.48297 0.31649 0.0
H1897 H 0.03875 0.50808 0.28244 0.0
H1898 H 0.07747 0.48494 0.35416 0.0
H1899 H 0.01985 0.50936 0.31977 0.0
H1900 H 0.01672 0.5469 0.39565 0.0
H1901 H 0.02952 0.53734 0.35623 0.0
H1902 H 0.04373 0.46848 0.3768 0.0
H1903 H 0.03136 0.47847 0.41658 0.0
C1904 C 0.07928 0.48839 0.31694 0.0
C1905 C 0.06906 0.49572 0.29664 0.0
C1906 C 0.06854 0.48941 0.33848 0.0
C1907 C 0.04733 0.49763 0.34 0.0
C1908 C 0.03645 0.50349 0.3193 0.0
C1909 C 0.04724 0.50265 0.29789 0.0
C1910 C 0.02228 0.52957 0.39163 0.0
C1911 C 0.02316 0.51347 0.40909 0.0
C1912 C 0.02949 0.52399 0.36901 0.0
C1913 C 0.03767 0.50213 0.36338 0.0
C1914 C 0.03778 0.48559 0.38069 0.0
C1915 C 0.03057 0.49121 0.40337 0.0
H1916 H 0.74713 0.88325 0.62553 0.0
H1917 H 0.751 0.81616 0.58092 0.0
H1918 H 0.74444 0.86023 0.66025 0.0
H1919 H 0.74832 0.79314 0.61579 0.0
H1920 H 0.72275 0.75479 0.68203 0.0
H1921 H 0.72131 0.77717 0.64688 0.0
H1922 H 0.77169 0.84173 0.68386 0.0
H1923 H 0.77321 0.81939 0.71873 0.0
C1924 C 0.7472 0.86354 0.62304 0.0
C1925 C 0.74938 0.85165 0.60032 0.0
C1926 C 0.7458 0.85036 0.64303 0.0
C1927 C 0.7463 0.82484 0.64089 0.0
C1928 C 0.74771 0.81272 0.61809 0.0
C1929 C 0.74936 0.82597 0.59809 0.0
C1930 C 0.73339 0.77381 0.68265 0.0
C1931 C 0.74806 0.78532 0.70318 0.0
C1932 C 0.73267 0.78659 0.66248 0.0
C1933 C 0.74637 0.81129 0.6625 0.0
C1934 C 0.76069 0.82287 0.68325 0.0
C1935 C 0.76162 0.81002 0.70325 0.0
H1936 H 0.68509 0.44823 0.49409 0.0
H1937 H 0.72239 0.49423 0.55708 0.0
H1938 H 0.65684 0.47479 0.4932 0.0
H1939 H 0.69459 0.52122 0.5558 0.0
H1940 H 0.61903 0.53533 0.56468 0.0
H1941 H 0.6537 0.51739 0.56375 0.0
H1942 H 0.65078 0.51559 0.48712 0.0
H1943 H 0.61561 0.53289 0.4881 0.0
C1944 C 0.68746 0.46422 0.50753 0.0
C1945 C 0.70578 0.46896 0.5258 0.0
C1946 C 0.67139 0.4796 0.50692 0.0
C1947 C 0.67342 0.50013 0.52449 0.0
C1948 C 0.69231 0.50536 0.54223 0.0
C1949 C 0.70827 0.48991 0.54292 0.0
C1950 C 0.62618 0.53168 0.54772 0.0
C1951 C 0.61458 0.53525 0.52646 0.0
C1952 C 0.64608 0.52143 0.54715 0.0
C1953 C 0.65481 0.5147 0.5253 0.0
C1954 C 0.64418 0.52006 0.50418 0.0
C1955 C 0.62421 0.5302 0.50476 0.0
H1956 H 0.18459 0.1486 0.50636 0.0
H1957 H 0.20549 0.08179 0.47851 0.0
H1958 H 0.1442 0.1246 0.50767 0.0
H1959 H 0.16434 0.0577 0.4777 0.0
H1960 H 0.09298 0.01539 0.50035 0.0
H1961 H 0.13414 0.03871 0.49867 0.0
H1962 H 0.10913 0.10542 0.48835 0.0
H1963 H 0.06873 0.08256 0.49236 0.0
C1964 C 0.18032 0.1288 0.49984 0.0
C1965 C 0.19817 0.11711 0.49219 0.0
C1966 C 0.15697 0.1149 0.50042 0.0
C1967 C 0.15053 0.08897 0.49262 0.0
C1968 C 0.16843 0.07743 0.48434 0.0
C1969 C 0.19204 0.09127 0.48449 0.0
C1970 C 0.09655 0.03513 0.49798 0.0
C1971 C 0.07788 0.04732 0.49684 0.0
C1972 C 0.12012 0.04853 0.49672 0.0
C1973 C 0.12538 0.07425 0.49351 0.0
C1974 C 0.10627 0.08601 0.49165 0.0
C1975 C 0.08294 0.07285 0.49374 0.0
H1976 H 0.16669 0.92897 0.7872 0.0
H1977 H 0.22288 0.96553 0.74645 0.0
H1978 H 0.18424 0.89256 0.78663 0.0
H1979 H 0.24057 0.92928 0.74626 0.0
H1980 H 0.27541 0.86704 0.77454 0.0
H1981 H 0.25989 0.90503 0.7765 0.0
H1982 H 0.18979 0.85985 0.75254 0.0
H1983 H 0.20508 0.82223 0.75018 0.0
C1984 C 0.18287 0.92933 0.7783 0.0
C1985 C 0.1933 0.95008 0.76675 0.0
C1986 C 0.19287 0.90846 0.77792 0.0
C1987 C 0.21376 0.90808 0.76637 0.0
C1988 C 0.22457 0.92911 0.75542 0.0
C1989 C 0.21433 0.94978 0.75541 0.0
C1990 C 0.25674 0.86527 0.76955 0.0
C1991 C 0.24156 0.84156 0.76213 0.0
C1992 C 0.24787 0.887 0.77066 0.0
C1993 C 0.22358 0.88534 0.76486 0.0
C1994 C 0.20851 0.86168 0.75739 0.0
C1995 C 0.21739 0.84013 0.75585 0.0
H1996 H 0.32347 0.98259 0.03127 0.0
H1997 H 0.33199 0.91723 0.98666 0.0
H1998 H 0.36548 0.00228 0.02929 0.0
H1999 H 0.37398 0.93669 0.98517 0.0
H2000 H 0.44479 0.98642 0.97188 0.0
H2001 H 0.40169 0.97103 0.97023 0.0
H2002 H 0.40287 0.9952 0.04539 0.0
H2003 H 0.44575 0.01107 0.04701 0.0
C2004 C 0.33426 0.97246 0.02099 0.0
C2005 C 0.32444 0.94827 0.00927 0.0
C2006 C 0.35833 0.9837 0.01994 0.0
C2007 C 0.37302 0.97097 0.00718 0.0
C2008 C 0.36305 0.94709 0.99492 0.0
C2009 C 0.339 0.93587 0.99593 0.0
C2010 C 0.43584 0.98856 0.98803 0.0
C2011 C 0.44872 0.99982 0.00961 0.0
C2012 C 0.41117 0.97968 0.98708 0.0
C2013 C 0.39893 0.98188 0.00768 0.0
C2014 C 0.41176 0.99355 0.02914 0.0
C2015 C 0.43639 0.00246 0.03009 0.0
H2016 H 0.83509 0.57582 0.73438 0.0
H2017 H 0.87224 0.62465 0.79592 0.0
H2018 H 0.80407 0.59897 0.73464 0.0
H2019 H 0.84153 0.64836 0.79574 0.0
H2020 H 0.7769 0.67822 0.80056 0.0
H2021 H 0.80043 0.64693 0.80219 0.0
H2022 H 0.80033 0.63946 0.72542 0.0
H2023 H 0.77617 0.67015 0.72386 0.0
C2024 C 0.83665 0.59155 0.74796 0.0
C2025 C 0.85619 0.59858 0.76504 0.0
C2026 C 0.81888 0.60483 0.74806 0.0
C2027 C 0.82033 0.62553 0.76515 0.0
C2028 C 0.83966 0.63225 0.78254 0.0
C2029 C 0.85739 0.61883 0.78254 0.0
C2030 C 0.7814 0.66934 0.78403 0.0
C2031 C 0.77493 0.67663 0.76208 0.0
C2032 C 0.79507 0.65164 0.78497 0.0
C2033 C 0.80265 0.64108 0.76399 0.0
C2034 C 0.79469 0.64713 0.74192 0.0
C2035 C 0.78086 0.66471 0.74098 0.0
H2036 H 0.80684 0.57711 0.03417 0.0
H2037 H 0.83962 0.62765 0.98544 0.0
H2038 H 0.8393 0.55604 0.03194 0.0
H2039 H 0.87278 0.60708 0.98382 0.0
H2040 H 0.92107 0.55241 0.97224 0.0
H2041 H 0.88608 0.57026 0.97088 0.0
H2042 H 0.8795 0.56296 0.04568 0.0
H2043 H 0.91375 0.54445 0.04667 0.0
C2044 C 0.82104 0.58379 0.02299 0.0
C2045 C 0.82066 0.60419 0.01009 0.0
C2046 C 0.83982 0.57177 0.02182 0.0
C2047 C 0.85896 0.57994 0.00792 0.0
C2048 C 0.8583 0.60004 0.99456 0.0
C2049 C 0.83934 0.61196 0.99557 0.0
C2050 C 0.9119 0.55438 0.98827 0.0
C2051 C 0.92005 0.5469 0.00952 0.0
C2052 C 0.89197 0.56483 0.98757 0.0
C2053 C 0.8798 0.56811 0.00816 0.0
C2054 C 0.88799 0.56035 0.02933 0.0
C2055 C 0.90777 0.54981 0.02996 0.0
H2056 H 0.18274 0.09853 0.82408 0.0
H2057 H 0.21653 0.07714 0.76152 0.0
H2058 H 0.20498 0.14217 0.82411 0.0
H2059 H 0.23812 0.12072 0.76136 0.0
H2060 H 0.23594 0.20407 0.75091 0.0
H2061 H 0.21708 0.16041 0.75534 0.0
H2062 H 0.25318 0.16872 0.82528 0.0
H2063 H 0.27271 0.21237 0.82062 0.0
C2064 C 0.19519 0.10303 0.81062 0.0
C2065 C 0.19782 0.08438 0.79276 0.0
C2066 C 0.20786 0.12796 0.81066 0.0
C2067 C 0.22296 0.13467 0.79258 0.0
C2068 C 0.2264 0.11593 0.77537 0.0
C2069 C 0.21416 0.09098 0.7756 0.0
C2070 C 0.23977 0.19662 0.76727 0.0
C2071 C 0.25585 0.21147 0.78539 0.0
C2072 C 0.2291 0.17167 0.76974 0.0
C2073 C 0.2339 0.1613 0.79056 0.0
C2074 C 0.2493 0.17637 0.80906 0.0
C2075 C 0.26043 0.20122 0.80638 0.0
H2076 H 0.39241 0.96347 0.29163 0.0
H2077 H 0.33694 0.98585 0.25131 0.0
H2078 H 0.3662 0.92203 0.29212 0.0
H2079 H 0.31064 0.94473 0.25237 0.0
H2080 H 0.28334 0.85943 0.23362 0.0
H2081 H 0.30714 0.90211 0.23513 0.0
H2082 H 0.33011 0.90073 0.30871 0.0
H2083 H 0.30672 0.85768 0.30707 0.0
C2084 C 0.37461 0.9596 0.28297 0.0
C2085 C 0.36682 0.97789 0.2713 0.0
C2086 C 0.35953 0.93593 0.28343 0.0
C2087 C 0.33634 0.93013 0.27231 0.0
C2088 C 0.32851 0.94851 0.26082 0.0
C2089 C 0.34359 0.97211 0.26028 0.0
C2090 C 0.29323 0.86827 0.25022 0.0
C2091 C 0.29326 0.85507 0.27018 0.0
C2092 C 0.30682 0.89281 0.25111 0.0
C2093 C 0.32065 0.90473 0.27199 0.0
C2094 C 0.31997 0.89187 0.29223 0.0
C2095 C 0.30642 0.86727 0.29133 0.0
H2096 H 0.50246 0.3461 0.60773 0.0
H2097 H 0.57702 0.37195 0.5974 0.0
H2098 H 0.49335 0.37825 0.5847 0.0
H2099 H 0.56844 0.40516 0.57597 0.0
H2100 H 0.54813 0.45146 0.52231 0.0
H2101 H 0.5538 0.41542 0.54131 0.0
H2102 H 0.49438 0.41989 0.5836 0.0
H2103 H 0.48782 0.45474 0.56312 0.0
C2104 C 0.51693 0.35893 0.6008 0.0
C2105 C 0.54043 0.35648 0.60427 0.0
C2106 C 0.51177 0.37751 0.58766 0.0
C2107 C 0.53008 0.39448 0.57816 0.0
C2108 C 0.55366 0.39216 0.58222 0.0
C2109 C 0.55869 0.37323 0.5948 0.0
C2110 C 0.53606 0.44438 0.53538 0.0
C2111 C 0.51752 0.45583 0.5412 0.0
C2112 C 0.53947 0.42387 0.54658 0.0
C2113 C 0.52487 0.41476 0.5645 0.0
C2114 C 0.50587 0.42593 0.56977 0.0
C2115 C 0.50209 0.44603 0.55806 0.0
H2116 H 0.44496 0.8001 0.30707 0.0
H2117 H 0.42079 0.72729 0.33137 0.0
H2118 H 0.40578 0.79613 0.28725 0.0
H2119 H 0.38135 0.72327 0.31088 0.0
H2120 H 0.32441 0.72849 0.24363 0.0
H2121 H 0.36313 0.72606 0.26225 0.0
H2122 H 0.36406 0.79197 0.31069 0.0
H2123 H 0.32566 0.79423 0.29264 0.0
C2124 C 0.43142 0.78306 0.3079 0.0
C2125 C 0.43596 0.76407 0.32096 0.0
C2126 C 0.40899 0.78085 0.29655 0.0
C2127 C 0.39068 0.75946 0.29766 0.0
C2128 C 0.39532 0.73988 0.30975 0.0
C2129 C 0.4178 0.74225 0.32149 0.0
C2130 C 0.33286 0.74224 0.25842 0.0
C2131 C 0.32214 0.76159 0.26664 0.0
C2132 C 0.35484 0.74078 0.26907 0.0
C2133 C 0.36645 0.75891 0.28775 0.0
C2134 C 0.35545 0.77786 0.29623 0.0
C2135 C 0.33347 0.7791 0.2859 0.0
H2136 H 0.03441 0.73675 0.07942 0.0
H2137 H 0.02569 0.70229 0.14465 0.0
H2138 H 0.03468 0.69626 0.0577 0.0
H2139 H 0.02613 0.66178 0.12282 0.0
H2140 H 0.05404 0.60036 0.07859 0.0
H2141 H 0.05605 0.64193 0.09988 0.0
H2142 H 0.00474 0.65438 0.04725 0.0
H2143 H 0.0026 0.61305 0.02616 0.0
C2144 C 0.03246 0.72053 0.08912 0.0
C2145 C 0.02992 0.72274 0.11376 0.0
C2146 C 0.03261 0.69735 0.07666 0.0
C2147 C 0.03058 0.67593 0.08861 0.0
C2148 C 0.02801 0.67807 0.11323 0.0
C2149 C 0.02751 0.7012 0.12565 0.0
C2150 C 0.04347 0.61215 0.07143 0.0
C2151 C 0.02814 0.60345 0.05074 0.0
C2152 C 0.04445 0.6358 0.08372 0.0
C2153 C 0.03045 0.6513 0.07526 0.0
C2154 C 0.0158 0.6429 0.05412 0.0
C2155 C 0.01454 0.6192 0.0421 0.0
H2156 H 0.05314 0.20765 0.81802 0.0
H2157 H 0.06081 0.28777 0.82916 0.0
H2158 H 0.09141 0.21384 0.80097 0.0
H2159 H 0.09847 0.29415 0.8106 0.0
H2160 H 0.1771 0.29926 0.80384 0.0
H2161 H 0.13752 0.29338 0.81777 0.0
H2162 H 0.11468 0.2244 0.77007 0.0
H2163 H 0.15511 0.22973 0.75739 0.0
C2164 C 0.06285 0.22663 0.81638 0.0
C2165 C 0.05404 0.24724 0.82508 0.0
C2166 C 0.08481 0.23022 0.80639 0.0
C2167 C 0.09837 0.25454 0.80438 0.0
C2168 C 0.089 0.27513 0.81233 0.0
C2169 C 0.06726 0.27153 0.82283 0.0
C2170 C 0.16357 0.28288 0.79627 0.0
C2171 C 0.16916 0.26491 0.77958 0.0
C2172 C 0.14069 0.27957 0.80411 0.0
C2173 C 0.12257 0.25842 0.79509 0.0
C2174 C 0.12814 0.24071 0.77786 0.0
C2175 C 0.15126 0.2438 0.77038 0.0
H2176 H 0.57304 0.72112 0.96975 0.0
H2177 H 0.50029 0.70509 0.93977 0.0
H2178 H 0.56433 0.68234 0.9881 0.0
H2179 H 0.4913 0.66659 0.95883 0.0
H2180 H 0.53861 0.61848 0.03178 0.0
H2181 H 0.54403 0.65978 0.01783 0.0
H2182 H 0.49966 0.62633 0.95375 0.0
H2183 H 0.49365 0.58553 0.96788 0.0
C2184 C 0.55507 0.70948 0.96735 0.0
C2185 C 0.5374 0.71612 0.95312 0.0
C2186 C 0.55002 0.68728 0.97805 0.0
C2187 C 0.52712 0.67119 0.97492 0.0
C2188 C 0.50925 0.67828 0.9613 0.0
C2189 C 0.51435 0.70043 0.95046 0.0
C2190 C 0.5298 0.62001 0.01485 0.0
C2191 C 0.51575 0.59859 1.00099 0.0
C2192 C 0.53303 0.64368 0.00676 0.0
C2193 C 0.52234 0.64647 0.9846 0.0
C2194 C 0.50787 0.62509 0.97106 0.0
C2195 C 0.50457 0.60154 0.97915 0.0
H2196 H 0.08528 0.79641 0.6508 0.0
H2197 H 0.04307 0.74175 0.69056 0.0
H2198 H 0.1215 0.78796 0.66841 0.0
H2199 H 0.07905 0.73245 0.70726 0.0
H2200 H 0.14943 0.7391 0.75068 0.0
H2201 H 0.11269 0.74694 0.73388 0.0
H2202 H 0.1442 0.75754 0.66692 0.0
H2203 H 0.18136 0.75086 0.6843 0.0
C2204 C 0.08373 0.78265 0.66335 0.0
C2205 C 0.06125 0.76984 0.66931 0.0
C2206 C 0.1045 0.77755 0.67325 0.0
C2207 C 0.10332 0.75927 0.68911 0.0
C2208 C 0.0808 0.74685 0.69538 0.0
C2209 C 0.06008 0.75219 0.68574 0.0
C2210 C 0.14835 0.74271 0.73226 0.0
C2211 C 0.16822 0.74435 0.71878 0.0
C2212 C 0.12725 0.74722 0.72257 0.0
C2213 C 0.12542 0.75318 0.69905 0.0
C2214 C 0.14507 0.75365 0.68526 0.0
C2215 C 0.16627 0.74945 0.69508 0.0
H2216 H 1.00168 0.34565 0.47886 0.0
H2217 H 0.0673 0.36976 0.44543 0.0
H2218 H 0.00376 0.38888 0.4946 0.0
H2219 H 0.0695 0.41334 0.46187 0.0
H2220 H 0.0664 0.48173 0.52409 0.0
H2221 H 0.06969 0.43948 0.50843 0.0
H2222 H 0.00227 0.42774 0.46762 0.0
H2223 H 0.99914 0.46986 0.48274 0.0
C2224 C 0.0168 0.3601 0.4752 0.0
C2225 C 0.03428 0.35429 0.46076 0.0
C2226 C 0.01788 0.38484 0.48416 0.0
C2227 C 0.03666 0.40428 0.47923 0.0
C2228 C 0.05486 0.39853 0.46586 0.0
C2229 C 0.05357 0.37368 0.45648 0.0
C2230 C 0.05245 0.47015 0.51158 0.0
C2231 C 0.03246 0.4789 0.5047 0.0
C2232 C 0.0544 0.44614 0.5026 0.0
C2233 C 0.03616 0.4305 0.487 0.0
C2234 C 0.01647 0.4395 0.47975 0.0
C2235 C 0.01473 0.46356 0.48836 0.0
H2236 H 0.44281 0.2399 0.20804 0.0
H2237 H 0.43049 0.29414 0.16194 0.0
H2238 H 0.41005 0.24675 0.23094 0.0
H2239 H 0.39704 0.3005 0.18451 0.0
H2240 H 0.34827 0.31964 0.24105 0.0
H2241 H 0.38465 0.31666 0.22199 0.0
H2242 H 0.3679 0.23676 0.22614 0.0
H2243 H 0.33223 0.23981 0.24564 0.0
C2244 C 0.43306 0.25328 0.20273 0.0
C2245 C 0.43919 0.26633 0.18301 0.0
C2246 C 0.41415 0.25713 0.21584 0.0
C2247 C 0.40065 0.27401 0.20951 0.0
C2248 C 0.40714 0.28753 0.19009 0.0
C2249 C 0.42623 0.28377 0.17702 0.0
C2250 C 0.35256 0.30151 0.23821 0.0
C2251 C 0.33725 0.27999 0.24493 0.0
C2252 C 0.37332 0.29976 0.22706 0.0
C2253 C 0.37927 0.27645 0.22242 0.0
C2254 C 0.36419 0.2551 0.22969 0.0
C2255 C 0.34355 0.25685 0.24081 0.0
H2256 H 0.58332 0.5515 0.35164 0.0
H2257 H 0.6031 0.48138 0.35785 0.0
H2258 H 0.56213 0.54689 0.38751 0.0
H2259 H 0.58148 0.4767 0.39402 0.0
H2260 H 0.51513 0.47083 0.44283 0.0
H2261 H 0.53759 0.47154 0.40705 0.0
H2262 H 0.57546 0.54781 0.43109 0.0
H2263 H 0.55327 0.54714 0.46646 0.0
C2264 C 0.58307 0.535 0.36059 0.0
C2265 C 0.59502 0.51686 0.35189 0.0
C2266 C 0.57099 0.53244 0.38124 0.0
C2267 C 0.57029 0.51153 0.39369 0.0
C2268 C 0.5817 0.49298 0.38475 0.0
C2269 C 0.59413 0.49572 0.36413 0.0
C2270 C 0.52844 0.4876 0.4405 0.0
C2271 C 0.53239 0.50893 0.4574 0.0
C2272 C 0.54133 0.48798 0.42012 0.0
C2273 C 0.55812 0.50982 0.41619 0.0
C2274 C 0.56245 0.53082 0.43347 0.0
C2275 C 0.54981 0.53036 0.45383 0.0
H2276 H 0.23059 0.83105 0.04744 0.0
H2277 H 0.2498 0.89829 0.09767 0.0
H2278 H 0.23122 0.80545 0.08029 0.0
H2279 H 0.25084 0.87261 0.13021 0.0
H2280 H 0.28935 0.81874 0.16721 0.0
H2281 H 0.28264 0.84091 0.13325 0.0
H2282 H 0.20895 0.80027 0.12474 0.0
H2283 H 0.21544 0.77837 0.15931 0.0
C2284 C 0.23456 0.84032 0.06548 0.0
C2285 C 0.24034 0.86667 0.07001 0.0
C2286 C 0.23485 0.82567 0.08417 0.0
C2287 C 0.2413 0.83723 0.10752 0.0
C2288 C 0.24595 0.86343 0.11221 0.0
C2289 C 0.24524 0.87805 0.09363 0.0
C2290 C 0.2718 0.81426 0.15791 0.0
C2291 C 0.25288 0.79692 0.16579 0.0
C2292 C 0.26796 0.82704 0.13865 0.0
C2293 C 0.24527 0.82234 0.12676 0.0
C2294 C 0.22657 0.80412 0.13382 0.0
C2295 C 0.2303 0.79163 0.15344 0.0
H2296 H 0.94027 0.5782 0.8626 0.0
H2297 H 0.00731 0.5673 0.83903 0.0
H2298 H 0.95581 0.58079 0.9041 0.0
H2299 H 0.0229 0.57037 0.88034 0.0
H2300 H 0.98139 0.52938 0.95897 0.0
H2301 H 0.96643 0.54226 0.92247 0.0
H2302 H 0.03213 0.5983 0.92182 0.0
H2303 H 0.04682 0.58606 0.95916 0.0
C2304 C 0.95855 0.57722 0.86632 0.0
C2305 C 0.97254 0.57227 0.84771 0.0
C2306 C 0.96738 0.57862 0.88999 0.0
C2307 C 0.99047 0.57565 0.8953 0.0
C2308 C 0.00511 0.5729 0.8767 0.0
C2309 C 0.99614 0.571 0.85309 0.0
C2310 C 0.99231 0.54502 0.95153 0.0
C2311 C 0.01514 0.55688 0.96197 0.0
C2312 C 0.98375 0.5524 0.93064 0.0
C2313 C 0.99807 0.5714 0.91951 0.0
C2314 C 0.02073 0.5837 0.93021 0.0
C2315 C 0.02913 0.57664 0.95144 0.0
H2316 H 0.26753 0.16369 0.58885 0.0
H2317 H 0.27977 0.23694 0.56428 0.0
H2318 H 0.26437 0.18242 0.6291 0.0
H2319 H 0.27701 0.25572 0.6049 0.0
H2320 H 0.29843 0.27712 0.68764 0.0
H2321 H 0.30069 0.26047 0.64636 0.0
H2322 H 0.23479 0.20549 0.64944 0.0
H2323 H 0.23227 0.2224 0.69073 0.0
C2324 C 0.26983 0.18384 0.59205 0.0
C2325 C 0.27398 0.19882 0.57327 0.0
C2326 C 0.26778 0.19451 0.6151 0.0
C2327 C 0.27024 0.22049 0.62011 0.0
C2328 C 0.27504 0.23562 0.60155 0.0
C2329 C 0.27664 0.22488 0.57831 0.0
C2330 C 0.2843 0.2616 0.67947 0.0
C2331 C 0.26518 0.25103 0.6925 0.0
C2332 C 0.28557 0.25217 0.65579 0.0
C2333 C 0.268 0.23162 0.64471 0.0
C2334 C 0.24869 0.22124 0.6576 0.0
C2335 C 0.24716 0.23101 0.68117 0.0
H2336 H 0.57958 0.52949 0.23806 0.0
H2337 H 0.633 0.50349 0.19874 0.0
H2338 H 0.56035 0.53659 0.20105 0.0
H2339 H 0.61335 0.50999 0.16162 0.0
H2340 H 0.58858 0.55111 0.10273 0.0
H2341 H 0.60734 0.54416 0.14036 0.0
H2342 H 0.53784 0.51615 0.16507 0.0
H2343 H 0.51927 0.52375 0.12786 0.0
C2344 C 0.587 0.52484 0.22149 0.0
C2345 C 0.60791 0.51595 0.22145 0.0
C2346 C 0.57593 0.52892 0.20021 0.0
C2347 C 0.58541 0.52412 0.17831 0.0
C2348 C 0.60584 0.51441 0.17819 0.0
C2349 C 0.61696 0.51039 0.19949 0.0
C2350 C 0.57739 0.54381 0.11638 0.0
C2351 C 0.5525 0.53808 0.11244 0.0
C2352 C 0.58809 0.53953 0.13783 0.0
C2353 C 0.57411 0.52939 0.15573 0.0
C2354 C 0.54918 0.52421 0.15185 0.0
C2355 C 0.53852 0.52853 0.13048 0.0
H2356 H 0.21395 0.85014 0.93036 0.0
H2357 H 0.28099 0.83262 0.94956 0.0
H2358 H 0.2112 0.82394 0.89206 0.0
H2359 H 0.27835 0.80711 0.91134 0.0
H2360 H 0.27704 0.80553 0.82671 0.0
H2361 H 0.27761 0.82514 0.86743 0.0
H2362 H 0.21155 0.77301 0.87682 0.0
H2363 H 0.21138 0.75259 0.83612 0.0
C2364 C 0.22793 0.84057 0.9265 0.0
C2365 C 0.24772 0.84351 0.94286 0.0
C2366 C 0.22628 0.82552 0.90474 0.0
C2367 C 0.24459 0.81365 0.89898 0.0
C2368 C 0.26405 0.81613 0.91551 0.0
C2369 C 0.2655 0.83072 0.93734 0.0
C2370 C 0.26293 0.79788 0.83762 0.0
C2371 C 0.24431 0.77742 0.82844 0.0
C2372 C 0.26321 0.80915 0.86081 0.0
C2373 C 0.24459 0.80053 0.87502 0.0
C2374 C 0.22603 0.77992 0.86602 0.0
C2375 C 0.22604 0.76821 0.84292 0.0
H2376 H 0.99662 0.56729 0.73332 0.0
H2377 H 0.93481 0.58225 0.6969 0.0
H2378 H 0.0175 0.57134 0.69705 0.0
H2379 H 0.95531 0.58552 0.66068 0.0
H2380 H 0.99836 0.59985 0.5993 0.0
H2381 H 0.98678 0.60776 0.63969 0.0
H2382 H 0.01349 0.54509 0.65974 0.0
H2383 H 0.02576 0.53785 0.61963 0.0
C2384 C 0.98758 0.5717 0.71768 0.0
C2385 C 0.96394 0.57411 0.7179 0.0
C2386 C 0.99951 0.57392 0.69688 0.0
C2387 C 0.98801 0.57852 0.67591 0.0
C2388 C 0.96484 0.58227 0.67656 0.0
C2389 C 0.95297 0.58017 0.69733 0.0
C2390 C 0.00212 0.5881 0.61252 0.0
C2391 C 0.01265 0.56806 0.60641 0.0
C2392 C 0.99542 0.59255 0.63559 0.0
C2393 C 0.99893 0.57686 0.65286 0.0
C2394 C 0.01074 0.5577 0.64698 0.0
C2395 C 0.01762 0.55341 0.62396 0.0
H2396 H 0.3062 0.20579 0.43382 0.0
H2397 H 0.24062 0.22938 0.44182 0.0
H2398 H 0.31087 0.2249 0.39641 0.0
H2399 H 0.24509 0.24784 0.40449 0.0
H2400 H 0.24566 0.24657 0.3231 0.0
H2401 H 0.24442 0.22795 0.36043 0.0
H2402 H 0.31593 0.27094 0.38185 0.0
H2403 H 0.31706 0.29013 0.34439 0.0
C2404 C 0.29286 0.2151 0.42768 0.0
C2405 C 0.27303 0.21603 0.44084 0.0
C2406 C 0.29558 0.22609 0.40633 0.0
C2407 C 0.27827 0.23773 0.39747 0.0
C2408 C 0.25862 0.23883 0.41076 0.0
C2409 C 0.25614 0.22833 0.43223 0.0
C2410 C 0.26121 0.25201 0.33566 0.0
C2411 C 0.28143 0.26996 0.33084 0.0
C2412 C 0.26044 0.24138 0.3571 0.0
C2413 C 0.28001 0.2481 0.37413 0.0
C2414 C 0.30061 0.26538 0.36901 0.0
C2415 C 0.30122 0.2764 0.34765 0.0
H2416 H 0.34945 0.61133 0.49494 0.0
H2417 H 0.31215 0.56275 0.54307 0.0
H2418 H 0.37648 0.58361 0.48869 0.0
H2419 H 0.33888 0.53493 0.53652 0.0
H2420 H 0.41488 0.52269 0.47191 0.0
H2421 H 0.3802 0.54108 0.47263 0.0
H2422 H 0.38101 0.53986 0.54885 0.0
H2423 H 0.41533 0.52143 0.54805 0.0
C2424 C 0.34684 0.5946 0.50394 0.0
C2425 C 0.32888 0.58942 0.51973 0.0
C2426 C 0.36217 0.57859 0.50019 0.0
C2427 C 0.35983 0.55712 0.51218 0.0
C2428 C 0.34128 0.55147 0.52724 0.0
C2429 C 0.32598 0.56743 0.53098 0.0
C2430 C 0.40714 0.52569 0.48866 0.0
C2431 C 0.41774 0.52077 0.50994 0.0
C2432 C 0.38749 0.53643 0.48911 0.0
C2433 C 0.37806 0.54216 0.51082 0.0
C2434 C 0.38772 0.53551 0.53182 0.0
C2435 C 0.4074 0.52498 0.53138 0.0
H2436 H 0.8209 0.97711 0.54931 0.0
H2437 H 0.84644 0.90996 0.53383 0.0
H2438 H 0.86046 0.00271 0.54424 0.0
H2439 H 0.88587 0.93532 0.52957 0.0
H2440 H 0.94896 0.9841 0.50165 0.0
H2441 H 0.90777 0.96145 0.50379 0.0
H2442 H 0.90034 0.01572 0.56186 0.0
H2443 H 0.94127 0.03881 0.559 0.0
C2444 C 0.83498 0.96781 0.54505 0.0
C2445 C 0.83043 0.94146 0.5419 0.0
C2446 C 0.85769 0.98248 0.54219 0.0
C2447 C 0.87641 0.97114 0.53625 0.0
C2448 C 0.87184 0.94479 0.53353 0.0
C2449 C 0.84919 0.93019 0.53621 0.0
C2450 C 0.93839 0.99133 0.51464 0.0
C2451 C 0.94836 0.0131 0.53025 0.0
C2452 C 0.91483 0.97824 0.51605 0.0
C2453 C 0.90074 0.98648 0.53327 0.0
C2454 C 0.91052 0.00886 0.54827 0.0
C2455 C 0.93404 0.02207 0.5467 0.0
H2456 H 0.85441 0.1135 0.26959 0.0
H2457 H 0.81914 0.10093 0.19888 0.0
H2458 H 0.83582 0.1483 0.27953 0.0
H2459 H 0.80128 0.13622 0.20841 0.0
H2460 H 0.82215 0.22691 0.27946 0.0
H2461 H 0.83769 0.18983 0.2722 0.0
H2462 H 0.77282 0.15176 0.22989 0.0
H2463 H 0.75757 0.18945 0.23647 0.0
C2464 C 0.84277 0.11823 0.25612 0.0
C2465 C 0.83834 0.10442 0.23342 0.0
C2466 C 0.83216 0.13832 0.26177 0.0
C2467 C 0.81699 0.1453 0.2448 0.0
C2468 C 0.81247 0.13128 0.22214 0.0
C2469 C 0.82291 0.11108 0.21658 0.0
C2470 C 0.81101 0.21059 0.26878 0.0
C2471 C 0.78856 0.21132 0.2585 0.0
C2472 C 0.81995 0.18914 0.2647 0.0
C2473 C 0.80665 0.16762 0.25034 0.0
C2474 C 0.78384 0.16806 0.24068 0.0
C2475 C 0.77495 0.18964 0.24463 0.0
H2476 H 0.72721 0.09483 0.05869 0.0
H2477 H 0.71304 0.12596 0.99389 0.0
H2478 H 0.68594 0.07067 0.05592 0.0
H2479 H 0.67188 0.10207 0.99135 0.0
H2480 H 0.60444 0.06494 0.0588 0.0
H2481 H 0.64721 0.08234 0.06037 0.0
H2482 H 0.64676 0.05867 0.98522 0.0
H2483 H 0.60392 0.04149 0.98346 0.0
C2484 C 0.71537 0.09636 0.04377 0.0
C2485 C 0.72332 0.11245 0.02661 0.0
C2486 C 0.69175 0.08261 0.04226 0.0
C2487 C 0.67574 0.08459 0.02348 0.0
C2488 C 0.68391 0.09999 0.00589 0.0
C2489 C 0.70744 0.11381 0.00746 0.0
C2490 C 0.61345 0.06327 0.04263 0.0
C2491 C 0.60072 0.05209 0.02095 0.0
C2492 C 0.63798 0.07307 0.04359 0.0
C2493 C 0.65024 0.07192 0.02289 0.0
C2494 C 0.63766 0.06005 0.00138 0.0
C2495 C 0.61314 0.05018 1.00042 0.0
H2496 H 0.16712 0.43808 0.26778 0.0
H2497 H 0.21077 0.47068 0.21404 0.0
H2498 H 0.1974 0.41607 0.27884 0.0
H2499 H 0.24125 0.44944 0.22556 0.0
H2500 H 0.25991 0.38767 0.30256 0.0
H2501 H 0.23769 0.41951 0.29611 0.0
H2502 H 0.24402 0.40666 0.22036 0.0
H2503 H 0.26649 0.37554 0.22692 0.0
C2504 C 0.18328 0.44075 0.25852 0.0
C2505 C 0.18639 0.45573 0.23978 0.0
C2506 C 0.20075 0.42839 0.26503 0.0
C2507 C 0.22172 0.43096 0.25301 0.0
C2508 C 0.22516 0.44675 0.23491 0.0
C2509 C 0.20765 0.4589 0.22829 0.0
C2510 C 0.25718 0.39234 0.28467 0.0
C2511 C 0.26473 0.37913 0.26521 0.0
C2512 C 0.24424 0.41031 0.28094 0.0
C2513 C 0.23878 0.41534 0.2577 0.0
C2514 C 0.24803 0.40343 0.2385 0.0
C2515 C 0.26089 0.38553 0.24223 0.0
H2516 H 0.18845 0.42632 0.01118 0.0
H2517 H 0.20989 0.46953 0.07997 0.0
H2518 H 0.15592 0.44724 0.00618 0.0
H2519 H 0.17769 0.49067 0.07483 0.0
H2520 H 0.10139 0.50242 0.06873 0.0
H2521 H 0.13472 0.48266 0.07378 0.0
H2522 H 0.14801 0.48761 0.99982 0.0
H2523 H 0.11441 0.50702 0.99478 0.0
C2524 C 0.1863 0.44033 0.0252 0.0
C2525 C 0.2018 0.44617 0.04599 0.0
C2526 C 0.16772 0.45247 0.02228 0.0
C2527 C 0.16411 0.47071 0.0401 0.0
C2528 C 0.17968 0.47653 0.06086 0.0
C2529 C 0.19827 0.46447 0.06374 0.0
C2530 C 0.1116 0.4995 0.05363 0.0
C2531 C 0.10534 0.50635 0.03138 0.0
C2532 C 0.13075 0.48821 0.05651 0.0
C2533 C 0.1441 0.48342 0.03718 0.0
C2534 C 0.13797 0.49065 0.01501 0.0
C2535 C 0.11884 0.50199 0.01216 0.0
H2536 H 0.87585 0.95596 0.23609 0.0
H2537 H 0.81035 0.9786 0.22165 0.0
H2538 H 0.85335 0.91397 0.24055 0.0
H2539 H 0.78767 0.93635 0.22664 0.0
H2540 H 0.75612 0.8509 0.21685 0.0
H2541 H 0.77837 0.89242 0.20933 0.0
H2542 H 0.82834 0.89382 0.26911 0.0
H2543 H 0.80632 0.8522 0.27628 0.0
C2544 C 0.8566 0.952 0.23384 0.0
C2545 C 0.8449 0.97077 0.22866 0.0
C2546 C 0.84369 0.92789 0.23656 0.0
C2547 C 0.8187 0.92184 0.23427 0.0
C2548 C 0.80693 0.94035 0.2284 0.0
C2549 C 0.81991 0.96458 0.2256 0.0
C2550 C 0.77192 0.8601 0.2283 0.0
C2551 C 0.77955 0.84835 0.24711 0.0
C2552 C 0.78457 0.88393 0.22409 0.0
C2553 C 0.80514 0.89647 0.23859 0.0
C2554 C 0.81277 0.88457 0.25736 0.0
C2555 C 0.80012 0.86076 0.26156 0.0
H2556 H 0.68745 0.0768 0.71554 0.0
H2557 H 0.64061 0.09319 0.76888 0.0
H2558 H 0.70971 0.1204 0.7214 0.0
H2559 H 0.66303 0.13704 0.77463 0.0
H2560 H 0.72888 0.20435 0.79587 0.0
H2561 H 0.7051 0.1611 0.79042 0.0
H2562 H 0.70204 0.16218 0.71419 0.0
H2563 H 0.7258 0.20517 0.71945 0.0
C2564 C 0.68184 0.08972 0.72846 0.0
C2565 C 0.66226 0.08156 0.74174 0.0
C2566 C 0.69455 0.1147 0.73172 0.0
C2567 C 0.68805 0.13201 0.74845 0.0
C2568 C 0.66847 0.12396 0.76175 0.0
C2569 C 0.65558 0.09895 0.75833 0.0
C2570 C 0.72316 0.19535 0.77795 0.0
C2571 C 0.7293 0.20818 0.7581 0.0
C2572 C 0.70942 0.17069 0.77487 0.0
C2573 C 0.7018 0.15839 0.75189 0.0
C2574 C 0.70788 0.1712 0.73209 0.0
C2575 C 0.72141 0.19586 0.73514 0.0
loop_
_geom_bond_atom_site_label_1
_geom_bond_atom_site_label_2
_geom_bond_distance
_geom_bond_site_symmetry_2
_ccdc_geom_bond_type
O0 Cd1 2.223 . S
O0 C8 1.315 . S
Cd1 O0 2.223 . S
Cd1 O4 2.297 . S
Cd1 O5 2.439 . S
Cd1 O11 2.240 1_455 S
Cd2 O3 2.240 . S
Cd2 O10 2.223 1_455 S
Cd2 O12 2.319 . S
Cd2 O13 2.439 . S
O3 Cd2 2.240 . S
O3 C8 1.279 . S
O4 Cd1 2.297 . S
O4 C6 1.247 . S
O5 Cd1 2.439 . S
O5 C6 1.208 . S
C6 O4 1.247 . S
C6 O5 1.208 . S
C7 O12 1.283 . S
C7 O13 1.208 . S
C8 O0 1.315 . S
C8 O3 1.279 . S
C9 O10 1.315 . S
C9 O11 1.279 . S
O10 Cd2 2.223 1_655 S
O10 C9 1.315 . S
O11 Cd1 2.240 1_655 S
O11 C9 1.279 . S
O12 Cd2 2.319 . S
O12 C7 1.283 . S
O13 Cd2 2.439 . S
O13 C7 1.208 . S
O14 Cd15 2.223 1_455 S
O14 C22 1.317 . S
Cd15 O14 2.223 1_655 S
Cd15 O18 2.297 . S
Cd15 O19 2.439 . S
Cd15 O25 2.240 1_655 S
Cd16 O17 2.240 1_455 S
Cd16 O24 2.223 . S
Cd16 O26 2.297 . S
Cd16 O27 2.439 . S
O17 Cd16 2.240 1_655 S
O17 C22 1.271 1_655 S
O18 Cd15 2.297 . S
O18 C20 1.247 . S
O19 Cd15 2.439 . S
O19 C20 1.208 . S
C20 O18 1.247 . S
C20 O19 1.208 . S
C21 O26 1.247 . S
C21 O27 1.208 . S
C22 O14 1.317 . S
C22 O17 1.271 1_455 S
C23 O24 1.315 . S
C23 O25 1.279 . S
O24 Cd16 2.223 . S
O24 C23 1.315 . S
O25 Cd15 2.240 1_455 S
O25 C23 1.279 . S
O26 Cd16 2.297 . S
O26 C21 1.247 . S
O27 Cd16 2.439 . S
O27 C21 1.208 . S
O28 Cd29 2.223 . S
O28 C36 1.315 . S
Cd29 O28 2.223 . S
Cd29 O32 2.297 . S
Cd29 O33 2.439 . S
Cd29 O39 2.240 . S
Cd30 O31 2.240 . S
Cd30 O38 2.223 . S
Cd30 O40 2.297 . S
Cd30 O41 2.439 . S
O31 Cd30 2.240 . S
O31 C36 1.279 . S
O32 Cd29 2.297 . S
O32 C34 1.247 . S
O33 Cd29 2.439 . S
O33 C34 1.208 . S
C34 O32 1.247 . S
C34 O33 1.208 . S
C35 O40 1.247 . S
C35 O41 1.208 . S
C36 O28 1.315 . S
C36 O31 1.279 . S
C37 O38 1.315 . S
C37 O39 1.279 . S
O38 Cd30 2.223 . S
O38 C37 1.315 . S
O39 Cd29 2.240 . S
O39 C37 1.279 . S
O40 Cd30 2.297 . S
O40 C35 1.247 . S
O41 Cd30 2.439 . S
O41 C35 1.208 . S
O42 Cd43 2.223 . S
O42 C50 1.315 . S
Cd43 O42 2.223 . S
Cd43 O46 2.297 . S
Cd43 O47 2.439 . S
Cd43 O53 2.240 . S
Cd44 O45 2.240 . S
Cd44 O52 2.223 . S
Cd44 O54 2.297 . S
Cd44 O55 2.439 . S
O45 Cd44 2.240 . S
O45 C50 1.279 . S
O46 Cd43 2.297 . S
O46 C48 1.247 . S
O47 Cd43 2.439 . S
O47 C48 1.208 . S
C48 O46 1.247 . S
C48 O47 1.208 . S
C49 O54 1.247 . S
C49 O55 1.208 . S
C50 O42 1.315 . S
C50 O45 1.279 . S
C51 O52 1.315 . S
C51 O53 1.279 . S
O52 Cd44 2.223 . S
O52 C51 1.315 . S
O53 Cd43 2.240 . S
O53 C51 1.279 . S
O54 Cd44 2.297 . S
O54 C49 1.247 . S
O55 Cd44 2.439 . S
O55 C49 1.208 . S
O56 Cd57 2.223 . S
O56 C64 1.315 . S
Cd57 O56 2.223 . S
Cd57 O60 2.297 1_455 S
Cd57 O61 2.439 1_455 S
Cd57 O67 2.240 . S
Cd58 O59 2.240 . S
Cd58 O66 2.223 . S
Cd58 O68 2.297 . S
Cd58 O69 2.439 . S
O59 Cd58 2.240 . S
O59 C64 1.279 . S
O60 Cd57 2.297 1_655 S
O60 C62 1.247 . S
O61 Cd57 2.439 1_655 S
O61 C62 1.208 . S
C62 O60 1.247 . S
C62 O61 1.208 . S
C63 O68 1.247 . S
C63 O69 1.208 . S
C64 O56 1.315 . S
C64 O59 1.279 . S
C65 O66 1.315 . S
C65 O67 1.279 . S
O66 Cd58 2.223 . S
O66 C65 1.315 . S
O67 Cd57 2.240 . S
O67 C65 1.279 . S
O68 Cd58 2.297 . S
O68 C63 1.247 . S
O69 Cd58 2.439 . S
O69 C63 1.208 . S
O70 Cd71 2.223 . S
O70 C78 1.315 . S
Cd71 O70 2.223 . S
Cd71 O74 2.297 . S
Cd71 O75 2.439 . S
Cd71 O81 2.240 . S
Cd72 O73 2.240 . S
Cd72 O80 2.223 . S
Cd72 O82 2.297 . S
Cd72 O83 2.439 . S
O73 Cd72 2.240 . S
O73 C78 1.279 . S
O74 Cd71 2.297 . S
O74 C76 1.247 . S
O75 Cd71 2.439 . S
O75 C76 1.208 . S
C76 O74 1.247 . S
C76 O75 1.208 . S
C77 O82 1.247 . S
C77 O83 1.208 . S
C78 O70 1.315 . S
C78 O73 1.279 . S
C79 O80 1.315 . S
C79 O81 1.279 . S
O80 Cd72 2.223 . S
O80 C79 1.315 . S
O81 Cd71 2.240 . S
O81 C79 1.279 . S
O82 Cd72 2.297 . S
O82 C77 1.247 . S
O83 Cd72 2.439 . S
O83 C77 1.208 . S
O84 Cd85 2.223 . S
O84 C92 1.315 . S
Cd85 O84 2.223 . S
Cd85 O88 2.297 . S
Cd85 O89 2.439 . S
Cd85 O95 2.240 . S
Cd86 O87 2.240 . S
Cd86 O94 2.223 . S
Cd86 O96 2.297 . S
Cd86 O97 2.439 . S
O87 Cd86 2.240 . S
O87 C92 1.279 . S
O88 Cd85 2.297 . S
O88 C90 1.247 . S
O89 Cd85 2.439 . S
O89 C90 1.208 . S
C90 O88 1.247 . S
C90 O89 1.208 . S
C91 O96 1.247 . S
C91 O97 1.208 . S
C92 O84 1.315 . S
C92 O87 1.279 . S
C93 O94 1.315 . S
C93 O95 1.279 . S
O94 Cd86 2.223 . S
O94 C93 1.315 . S
O95 Cd85 2.240 . S
O95 C93 1.279 . S
O96 Cd86 2.297 . S
O96 C91 1.247 . S
O97 Cd86 2.439 . S
O97 C91 1.208 . S
O98 Cd99 2.223 1_655 S
O98 C106 1.315 . S
Cd99 O98 2.223 1_455 S
Cd99 O102 2.297 . S
Cd99 O103 2.439 . S
Cd99 O109 2.240 1_455 S
Cd100 O101 2.240 1_655 S
Cd100 O108 2.223 . S
Cd100 O110 2.297 . S
Cd100 O111 2.439 1_655 S
O101 Cd100 2.240 1_455 S
O101 C106 1.279 1_455 S
O102 Cd99 2.297 . S
O102 C104 1.247 . S
O103 Cd99 2.439 . S
O103 C104 1.208 . S
C104 O102 1.247 . S
C104 O103 1.208 . S
C105 O110 1.247 1_455 S
C105 O111 1.208 . S
C106 O98 1.315 . S
C106 O101 1.279 1_655 S
C107 O108 1.315 . S
C107 O109 1.279 . S
O108 Cd100 2.223 . S
O108 C107 1.315 . S
O109 Cd99 2.240 1_655 S
O109 C107 1.279 . S
O110 Cd100 2.297 . S
O110 C105 1.247 1_655 S
O111 Cd100 2.439 1_455 S
O111 C105 1.208 . S
O112 Cd113 2.223 . S
O112 C120 1.315 . S
Cd113 O112 2.223 . S
Cd113 O116 2.297 . S
Cd113 O117 2.439 . S
Cd113 O123 2.240 . S
Cd114 O115 2.240 . S
Cd114 O122 2.223 1_545 S
Cd114 O124 2.297 . S
Cd114 O125 2.439 . S
O115 Cd114 2.240 . S
O115 C120 1.279 . S
O116 Cd113 2.297 . S
O116 C118 1.247 . S
O117 Cd113 2.439 . S
O117 C118 1.208 . S
C118 O116 1.247 . S
C118 O117 1.208 . S
C119 O124 1.247 . S
C119 O125 1.208 . S
C120 O112 1.315 . S
C120 O115 1.279 . S
C121 O122 1.315 . S
C121 O123 1.279 1_565 S
O122 Cd114 2.223 1_565 S
O122 C121 1.315 . S
O123 Cd113 2.240 . S
O123 C121 1.279 1_545 S
O124 Cd114 2.297 . S
O124 C119 1.247 . S
O125 Cd114 2.439 . S
O125 C119 1.208 . S
O126 Cd127 2.223 . S
O126 C134 1.315 . S
Cd127 O126 2.223 . S
Cd127 O130 2.297 . S
Cd127 O131 2.439 . S
Cd127 O137 2.240 . S
Cd128 O129 2.240 . S
Cd128 O136 2.223 . S
Cd128 O138 2.297 . S
Cd128 O139 2.439 . S
O129 Cd128 2.240 . S
O129 C134 1.279 . S
O130 Cd127 2.297 . S
O130 C132 1.247 . S
O131 Cd127 2.439 . S
O131 C132 1.208 . S
C132 O130 1.247 . S
C132 O131 1.208 . S
C133 O138 1.247 . S
C133 O139 1.208 . S
C134 O126 1.315 . S
C134 O129 1.279 . S
C135 O136 1.315 . S
C135 O137 1.279 . S
O136 Cd128 2.223 . S
O136 C135 1.315 . S
O137 Cd127 2.240 . S
O137 C135 1.279 . S
O138 Cd128 2.297 . S
O138 C133 1.247 . S
O139 Cd128 2.439 . S
O139 C133 1.208 . S
O140 Cd141 2.223 1_545 S
O140 C148 1.315 1_545 S
Cd141 O140 2.223 1_565 S
Cd141 O144 2.297 . S
Cd141 O145 2.439 . S
Cd141 O151 2.240 1_565 S
Cd142 O143 2.240 1_545 S
Cd142 O150 2.223 . S
Cd142 O152 2.297 . S
Cd142 O153 2.439 1_545 S
O143 Cd142 2.240 1_565 S
O143 C148 1.279 . S
O144 Cd141 2.297 . S
O144 C146 1.247 . S
O145 Cd141 2.439 . S
O145 C146 1.208 . S
C146 O144 1.247 . S
C146 O145 1.208 . S
C147 O152 1.247 . S
C147 O153 1.208 1_545 S
C148 O140 1.315 1_565 S
C148 O143 1.279 . S
C149 O150 1.315 . S
C149 O151 1.279 . S
O150 Cd142 2.223 . S
O150 C149 1.315 . S
O151 Cd141 2.240 1_545 S
O151 C149 1.279 . S
O152 Cd142 2.297 . S
O152 C147 1.247 . S
O153 Cd142 2.439 1_565 S
O153 C147 1.208 1_565 S
O154 Cd155 2.223 . S
O154 C162 1.315 . S
Cd155 O154 2.223 . S
Cd155 O158 2.297 . S
Cd155 O159 2.439 . S
Cd155 O165 2.240 . S
Cd156 O157 2.240 . S
Cd156 O164 2.223 . S
Cd156 O166 2.297 1_554 S
Cd156 O167 2.439 1_554 S
O157 Cd156 2.240 . S
O157 C162 1.279 . S
O158 Cd155 2.297 . S
O158 C160 1.247 . S
O159 Cd155 2.439 . S
O159 C160 1.208 . S
C160 O158 1.247 . S
C160 O159 1.208 . S
C161 O166 1.247 . S
C161 O167 1.208 . S
C162 O154 1.315 . S
C162 O157 1.279 . S
C163 O164 1.315 . S
C163 O165 1.279 . S
O164 Cd156 2.223 . S
O164 C163 1.315 . S
O165 Cd155 2.240 . S
O165 C163 1.279 . S
O166 Cd156 2.297 1_556 S
O166 C161 1.247 . S
O167 Cd156 2.439 1_556 S
O167 C161 1.208 . S
O168 Cd169 2.223 . S
O168 C176 1.315 . S
Cd169 O168 2.223 . S
Cd169 O172 2.297 . S
Cd169 O173 2.439 . S
Cd169 O179 2.240 . S
Cd170 O171 2.240 . S
Cd170 O178 2.223 . S
Cd170 O180 2.297 1_554 S
Cd170 O181 2.439 1_554 S
O171 Cd170 2.240 . S
O171 C176 1.279 . S
O172 Cd169 2.297 . S
O172 C174 1.247 . S
O173 Cd169 2.439 . S
O173 C174 1.208 . S
C174 O172 1.247 . S
C174 O173 1.208 . S
C175 O180 1.247 . S
C175 O181 1.208 . S
C176 O168 1.315 . S
C176 O171 1.279 . S
C177 O178 1.315 . S
C177 O179 1.279 . S
O178 Cd170 2.223 . S
O178 C177 1.315 . S
O179 Cd169 2.240 . S
O179 C177 1.279 . S
O180 Cd170 2.297 1_556 S
O180 C175 1.247 . S
O181 Cd170 2.439 1_556 S
O181 C175 1.208 . S
O182 Cd183 2.223 . S
O182 C190 1.315 . S
Cd183 O182 2.223 . S
Cd183 O186 2.297 . S
Cd183 O187 2.439 1_554 S
Cd183 O193 2.240 1_554 S
Cd184 O185 2.240 1_556 S
Cd184 O192 2.223 1_556 S
Cd184 O194 2.297 . S
Cd184 O195 2.439 . S
O185 Cd184 2.240 1_554 S
O185 C190 1.279 . S
O186 Cd183 2.297 . S
O186 C188 1.247 . S
O187 Cd183 2.439 1_556 S
O187 C188 1.208 1_556 S
C188 O186 1.247 . S
C188 O187 1.208 1_554 S
C189 O194 1.247 . S
C189 O195 1.208 . S
C190 O182 1.315 . S
C190 O185 1.279 . S
C191 O192 1.315 . S
C191 O193 1.281 1_554 S
O192 Cd184 2.223 1_554 S
O192 C191 1.315 . S
O193 Cd183 2.240 1_556 S
O193 C191 1.281 1_556 S
O194 Cd184 2.297 . S
O194 C189 1.247 . S
O195 Cd184 2.439 . S
O195 C189 1.208 . S
O196 Cd197 2.223 . S
O196 C204 1.315 . S
Cd197 O196 2.223 . S
Cd197 O200 2.297 . S
Cd197 O201 2.439 . S
Cd197 O207 2.240 . S
Cd198 O199 2.240 . S
Cd198 O206 2.223 . S
Cd198 O208 2.297 . S
Cd198 O209 2.439 . S
O199 Cd198 2.240 . S
O199 C204 1.279 . S
O200 Cd197 2.297 . S
O200 C202 1.247 . S
O201 Cd197 2.439 . S
O201 C202 1.208 . S
C202 O200 1.247 . S
C202 O201 1.208 . S
C203 O208 1.247 . S
C203 O209 1.208 . S
C204 O196 1.315 . S
C204 O199 1.279 . S
C205 O206 1.315 . S
C205 O207 1.279 . S
O206 Cd198 2.223 . S
O206 C205 1.315 . S
O207 Cd197 2.240 . S
O207 C205 1.279 . S
O208 Cd198 2.297 . S
O208 C203 1.247 . S
O209 Cd198 2.439 . S
O209 C203 1.208 . S
O210 Cd211 2.223 . S
O210 C218 1.315 . S
Cd211 O210 2.223 . S
Cd211 O214 2.297 . S
Cd211 O215 2.439 . S
Cd211 O221 2.240 . S
Cd212 O213 2.240 . S
Cd212 O220 2.223 . S
Cd212 O222 2.297 . S
Cd212 O223 2.439 . S
O213 Cd212 2.240 . S
O213 C218 1.279 . S
O214 Cd211 2.297 . S
O214 C216 1.247 . S
O215 Cd211 2.439 . S
O215 C216 1.208 . S
C216 O214 1.247 . S
C216 O215 1.208 . S
C217 O222 1.247 . S
C217 O223 1.208 . S
C218 O210 1.315 . S
C218 O213 1.279 . S
C219 O220 1.315 . S
C219 O221 1.279 . S
O220 Cd212 2.223 . S
O220 C219 1.315 . S
O221 Cd211 2.240 . S
O221 C219 1.279 . S
O222 Cd212 2.297 . S
O222 C217 1.247 . S
O223 Cd212 2.439 . S
O223 C217 1.208 . S
O224 Cd225 2.223 . S
O224 C232 1.315 . S
Cd225 O224 2.223 . S
Cd225 O228 2.297 . S
Cd225 O229 2.439 . S
Cd225 O235 2.240 . S
Cd226 O227 2.240 . S
Cd226 O234 2.223 . S
Cd226 O236 2.297 . S
Cd226 O237 2.439 . S
O227 Cd226 2.240 . S
O227 C232 1.279 . S
O228 Cd225 2.297 . S
O228 C230 1.247 . S
O229 Cd225 2.439 . S
O229 C230 1.208 . S
C230 O228 1.247 . S
C230 O229 1.208 . S
C231 O236 1.247 . S
C231 O237 1.208 . S
C232 O224 1.315 . S
C232 O227 1.279 . S
C233 O234 1.315 . S
C233 O235 1.279 . S
O234 Cd226 2.223 . S
O234 C233 1.315 . S
O235 Cd225 2.240 . S
O235 C233 1.279 . S
O236 Cd226 2.297 . S
O236 C231 1.247 . S
O237 Cd226 2.439 . S
O237 C231 1.208 . S
O238 Cd239 2.223 . S
O238 C246 1.315 . S
Cd239 O238 2.223 . S
Cd239 O242 2.297 . S
Cd239 O243 2.439 . S
Cd239 O249 2.240 . S
Cd240 O241 2.240 . S
Cd240 O248 2.223 . S
Cd240 O250 2.297 . S
Cd240 O251 2.439 . S
O241 Cd240 2.240 . S
O241 C246 1.279 . S
O242 Cd239 2.297 . S
O242 C244 1.247 . S
O243 Cd239 2.439 . S
O243 C244 1.208 . S
C244 O242 1.247 . S
C244 O243 1.208 . S
C245 O250 1.247 . S
C245 O251 1.208 . S
C246 O238 1.315 . S
C246 O241 1.279 . S
C247 O248 1.315 . S
C247 O249 1.279 . S
O248 Cd240 2.223 . S
O248 C247 1.315 . S
O249 Cd239 2.240 . S
O249 C247 1.279 . S
O250 Cd240 2.297 . S
O250 C245 1.247 . S
O251 Cd240 2.439 . S
O251 C245 1.208 . S
O252 Cd253 2.223 . S
O252 C260 1.315 . S
Cd253 O252 2.223 . S
Cd253 O256 2.297 . S
Cd253 O257 2.439 . S
Cd253 O263 2.240 . S
Cd254 O255 2.240 . S
Cd254 O262 2.223 . S
Cd254 O264 2.297 . S
Cd254 O265 2.439 . S
O255 Cd254 2.240 . S
O255 C260 1.279 . S
O256 Cd253 2.297 . S
O256 C258 1.247 . S
O257 Cd253 2.439 . S
O257 C258 1.208 . S
C258 O256 1.247 . S
C258 O257 1.208 . S
C259 O264 1.247 . S
C259 O265 1.208 . S
C260 O252 1.315 . S
C260 O255 1.279 . S
C261 O262 1.315 . S
C261 O263 1.279 . S
O262 Cd254 2.223 . S
O262 C261 1.315 . S
O263 Cd253 2.240 . S
O263 C261 1.279 . S
O264 Cd254 2.297 . S
O264 C259 1.247 . S
O265 Cd254 2.439 . S
O265 C259 1.208 . S
O266 Cd267 2.223 . S
O266 C274 1.315 . S
Cd267 O266 2.223 . S
Cd267 O270 2.297 1_545 S
Cd267 O271 2.439 1_545 S
Cd267 O277 2.240 . S
Cd268 O269 2.240 . S
Cd268 O276 2.223 . S
Cd268 O278 2.297 . S
Cd268 O279 2.439 . S
O269 Cd268 2.240 . S
O269 C274 1.279 . S
O270 Cd267 2.297 1_565 S
O270 C272 1.247 . S
O271 Cd267 2.439 1_565 S
O271 C272 1.208 . S
C272 O270 1.247 . S
C272 O271 1.208 . S
C273 O278 1.247 . S
C273 O279 1.208 . S
C274 O266 1.315 . S
C274 O269 1.279 . S
C275 O276 1.315 . S
C275 O277 1.279 . S
O276 Cd268 2.223 . S
O276 C275 1.315 . S
O277 Cd267 2.240 . S
O277 C275 1.279 . S
O278 Cd268 2.297 . S
O278 C273 1.247 . S
O279 Cd268 2.439 . S
O279 C273 1.208 . S
O280 Cd281 2.223 . S
O280 C288 1.315 . S
Cd281 O280 2.223 . S
Cd281 O284 2.297 . S
Cd281 O285 2.439 . S
Cd281 O291 2.240 . S
Cd282 O283 2.240 . S
Cd282 O290 2.223 . S
Cd282 O292 2.297 1_554 S
Cd282 O293 2.439 1_554 S
O283 Cd282 2.240 . S
O283 C288 1.279 . S
O284 Cd281 2.297 . S
O284 C286 1.247 . S
O285 Cd281 2.439 . S
O285 C286 1.208 . S
C286 O284 1.247 . S
C286 O285 1.208 . S
C287 O292 1.247 . S
C287 O293 1.208 . S
C288 O280 1.315 . S
C288 O283 1.279 . S
C289 O290 1.315 . S
C289 O291 1.279 . S
O290 Cd282 2.223 . S
O290 C289 1.315 . S
O291 Cd281 2.240 . S
O291 C289 1.279 . S
O292 Cd282 2.297 1_556 S
O292 C287 1.247 . S
O293 Cd282 2.439 1_556 S
O293 C287 1.208 . S
O294 Cd295 2.223 . S
O294 C302 1.315 . S
Cd295 O294 2.223 . S
Cd295 O298 2.297 . S
Cd295 O299 2.439 . S
Cd295 O305 2.240 . S
Cd296 O297 2.240 . S
Cd296 O304 2.223 . S
Cd296 O306 2.297 . S
Cd296 O307 2.439 . S
O297 Cd296 2.240 . S
O297 C302 1.279 . S
O298 Cd295 2.297 . S
O298 C300 1.247 . S
O299 Cd295 2.439 . S
O299 C300 1.208 . S
C300 O298 1.247 . S
C300 O299 1.208 . S
C301 O306 1.247 . S
C301 O307 1.208 . S
C302 O294 1.315 . S
C302 O297 1.279 . S
C303 O304 1.315 . S
C303 O305 1.279 . S
O304 Cd296 2.223 . S
O304 C303 1.315 . S
O305 Cd295 2.240 . S
O305 C303 1.279 . S
O306 Cd296 2.297 . S
O306 C301 1.247 . S
O307 Cd296 2.439 . S
O307 C301 1.208 . S
O308 Cd309 2.223 . S
O308 C316 1.315 . S
Cd309 O308 2.223 . S
Cd309 O312 2.297 . S
Cd309 O313 2.439 . S
Cd309 O319 2.240 . S
Cd310 O311 2.240 . S
Cd310 O318 2.223 . S
Cd310 O320 2.297 . S
Cd310 O321 2.439 . S
O311 Cd310 2.240 . S
O311 C316 1.279 . S
O312 Cd309 2.297 . S
O312 C314 1.247 . S
O313 Cd309 2.439 . S
O313 C314 1.208 . S
C314 O312 1.247 . S
C314 O313 1.208 . S
C315 O320 1.247 . S
C315 O321 1.208 . S
C316 O308 1.315 . S
C316 O311 1.279 . S
C317 O318 1.315 . S
C317 O319 1.279 . S
O318 Cd310 2.223 . S
O318 C317 1.315 . S
O319 Cd309 2.240 . S
O319 C317 1.279 . S
O320 Cd310 2.297 . S
O320 C315 1.247 . S
O321 Cd310 2.439 . S
O321 C315 1.208 . S
O322 Cd323 2.223 . S
O322 C330 1.315 . S
Cd323 O322 2.223 . S
Cd323 O326 2.297 . S
Cd323 O327 2.439 . S
Cd323 O333 2.240 . S
Cd324 O325 2.240 . S
Cd324 O332 2.223 . S
Cd324 O334 2.297 . S
Cd324 O335 2.439 . S
O325 Cd324 2.240 . S
O325 C330 1.279 . S
O326 Cd323 2.297 . S
O326 C328 1.247 . S
O327 Cd323 2.439 . S
O327 C328 1.208 . S
C328 O326 1.247 . S
C328 O327 1.208 . S
C329 O334 1.247 . S
C329 O335 1.208 . S
C330 O322 1.315 . S
C330 O325 1.279 . S
C331 O332 1.315 . S
C331 O333 1.279 . S
O332 Cd324 2.223 . S
O332 C331 1.315 . S
O333 Cd323 2.240 . S
O333 C331 1.279 . S
O334 Cd324 2.297 . S
O334 C329 1.247 . S
O335 Cd324 2.439 . S
O335 C329 1.208 . S
Dy336 O340 2.398 1_554 S
Dy336 O341 2.491 . S
Dy336 O342 2.403 1_554 S
Dy336 O343 2.664 1_654 S
Dy336 O347 2.319 1_654 S
Dy336 O351 2.310 1_655 S
Dy336 O352 2.351 1_545 S
C337 O348 1.185 . S
C337 O349 1.355 . S
C338 O340 1.185 . S
C338 O341 1.355 1_556 S
Dy339 O343 2.310 1_554 S
Dy339 O346 2.351 . S
Dy339 O348 2.398 . S
Dy339 O349 2.491 . S
Dy339 O350 2.403 . S
Dy339 O351 2.664 . S
Dy339 O353 2.326 . S
O340 Dy336 2.398 1_556 S
O340 C338 1.185 . S
O341 Dy336 2.491 . S
O341 C338 1.355 1_554 S
O342 Dy336 2.403 1_556 S
O342 C344 1.254 1_655 S
O343 Dy336 2.664 1_456 S
O343 Dy339 2.310 1_556 S
O343 C344 1.268 . S
C344 O342 1.254 1_455 S
C344 O343 1.268 . S
C345 O350 1.254 . S
C345 O351 1.268 . S
O346 Dy339 2.351 . S
O346 C354 1.249 . S
O347 Dy336 2.319 1_456 S
O347 C354 1.284 1_556 S
O348 C337 1.185 . S
O348 Dy339 2.398 . S
O349 C337 1.355 . S
O349 Dy339 2.491 . S
O350 Dy339 2.403 . S
O350 C345 1.254 . S
O351 Dy336 2.310 1_455 S
O351 Dy339 2.664 . S
O351 C345 1.268 . S
O352 Dy336 2.351 1_565 S
O352 C355 1.249 1_655 S
O353 Dy339 2.326 . S
O353 C355 1.267 1_545 S
C354 O346 1.249 . S
C354 O347 1.284 1_554 S
C355 O352 1.249 1_455 S
C355 O353 1.267 1_565 S
Dy356 O360 2.398 . S
Dy356 O361 2.491 . S
Dy356 O362 2.403 . S
Dy356 O363 2.664 . S
Dy356 O367 2.326 . S
Dy356 O371 2.310 . S
Dy356 O372 2.351 . S
C357 O368 1.185 . S
C357 O369 1.355 . S
C358 O360 1.185 . S
C358 O361 1.355 . S
Dy359 O363 2.310 . S
Dy359 O366 2.351 . S
Dy359 O368 2.398 . S
Dy359 O369 2.491 . S
Dy359 O370 2.403 . S
Dy359 O371 2.664 . S
Dy359 O373 2.326 . S
O360 Dy356 2.398 . S
O360 C358 1.185 . S
O361 Dy356 2.491 . S
O361 C358 1.355 . S
O362 Dy356 2.403 . S
O362 C364 1.254 . S
O363 Dy356 2.664 . S
O363 Dy359 2.310 . S
O363 C364 1.268 . S
C364 O362 1.254 . S
C364 O363 1.268 . S
C365 O370 1.254 . S
C365 O371 1.268 . S
O366 Dy359 2.351 . S
O366 C374 1.249 . S
O367 Dy356 2.326 . S
O367 C374 1.267 . S
O368 C357 1.185 . S
O368 Dy359 2.398 . S
O369 C357 1.355 . S
O369 Dy359 2.491 . S
O370 Dy359 2.403 . S
O370 C365 1.254 . S
O371 Dy356 2.310 . S
O371 Dy359 2.664 . S
O371 C365 1.268 . S
O372 Dy356 2.351 . S
O372 C375 1.249 . S
O373 Dy359 2.326 . S
O373 C375 1.267 . S
C374 O366 1.249 . S
C374 O367 1.267 . S
C375 O372 1.249 . S
C375 O373 1.267 . S
Dy376 O380 2.398 . S
Dy376 O381 2.491 . S
Dy376 O382 2.403 . S
Dy376 O383 2.664 . S
Dy376 O387 2.326 1_545 S
Dy376 O391 2.310 . S
Dy376 O392 2.351 . S
C377 O388 1.185 . S
C377 O389 1.355 . S
C378 O380 1.185 . S
C378 O381 1.355 . S
Dy379 O383 2.310 . S
Dy379 O386 2.351 1_545 S
Dy379 O388 2.398 . S
Dy379 O389 2.491 . S
Dy379 O390 2.403 . S
Dy379 O391 2.664 . S
Dy379 O393 2.326 . S
O380 Dy376 2.398 . S
O380 C378 1.185 . S
O381 Dy376 2.491 . S
O381 C378 1.355 . S
O382 Dy376 2.403 . S
O382 C384 1.254 . S
O383 Dy376 2.664 . S
O383 Dy379 2.310 . S
O383 C384 1.268 . S
C384 O382 1.254 . S
C384 O383 1.268 . S
C385 O390 1.254 . S
C385 O391 1.268 . S
O386 Dy379 2.351 1_565 S
O386 C394 1.249 . S
O387 Dy376 2.326 1_565 S
O387 C394 1.267 . S
O388 C377 1.185 . S
O388 Dy379 2.398 . S
O389 C377 1.355 . S
O389 Dy379 2.491 . S
O390 Dy379 2.403 . S
O390 C385 1.254 . S
O391 Dy376 2.310 . S
O391 Dy379 2.664 . S
O391 C385 1.268 . S
O392 Dy376 2.351 . S
O392 C395 1.249 . S
O393 Dy379 2.326 . S
O393 C395 1.267 . S
C394 O386 1.249 . S
C394 O387 1.267 . S
C395 O392 1.249 . S
C395 O393 1.267 . S
Dy396 O400 2.398 . S
Dy396 O401 2.491 . S
Dy396 O402 2.403 . S
Dy396 O403 2.664 . S
Dy396 O407 2.326 . S
Dy396 O411 2.310 . S
Dy396 O412 2.351 . S
C397 O408 1.185 . S
C397 O409 1.355 . S
C398 O400 1.185 . S
C398 O401 1.355 . S
Dy399 O403 2.310 . S
Dy399 O406 2.351 . S
Dy399 O408 2.398 . S
Dy399 O409 2.491 . S
Dy399 O410 2.403 . S
Dy399 O411 2.664 . S
Dy399 O413 2.326 . S
O400 Dy396 2.398 . S
O400 C398 1.185 . S
O401 Dy396 2.491 . S
O401 C398 1.355 . S
O402 Dy396 2.403 . S
O402 C404 1.254 . S
O403 Dy396 2.664 . S
O403 Dy399 2.310 . S
O403 C404 1.268 . S
C404 O402 1.254 . S
C404 O403 1.268 . S
C405 O410 1.254 . S
C405 O411 1.268 . S
O406 Dy399 2.351 . S
O406 C414 1.249 . S
O407 Dy396 2.326 . S
O407 C414 1.267 . S
O408 C397 1.185 . S
O408 Dy399 2.398 . S
O409 C397 1.355 . S
O409 Dy399 2.491 . S
O410 Dy399 2.403 . S
O410 C405 1.254 . S
O411 Dy396 2.310 . S
O411 Dy399 2.664 . S
O411 C405 1.268 . S
O412 Dy396 2.351 . S
O412 C415 1.249 . S
O413 Dy399 2.326 . S
O413 C415 1.267 . S
C414 O406 1.249 . S
C414 O407 1.267 . S
C415 O412 1.249 . S
C415 O413 1.267 . S
Dy416 O420 2.398 . S
Dy416 O421 2.491 1_455 S
Dy416 O422 2.403 . S
Dy416 O423 2.664 . S
Dy416 O427 2.326 . S
Dy416 O431 2.310 1_455 S
Dy416 O432 2.351 1_545 S
C417 O428 1.185 . S
C417 O429 1.355 . S
C418 O420 1.185 . S
C418 O421 1.355 1_455 S
Dy419 O423 2.310 . S
Dy419 O426 2.351 . S
Dy419 O428 2.398 . S
Dy419 O429 2.491 . S
Dy419 O430 2.403 1_455 S
Dy419 O431 2.664 1_455 S
Dy419 O433 2.326 . S
O420 Dy416 2.398 . S
O420 C418 1.185 . S
O421 Dy416 2.491 1_655 S
O421 C418 1.355 1_655 S
O422 Dy416 2.403 . S
O422 C424 1.254 . S
O423 Dy416 2.664 . S
O423 Dy419 2.310 . S
O423 C424 1.268 . S
C424 O422 1.254 . S
C424 O423 1.268 . S
C425 O430 1.254 . S
C425 O431 1.268 . S
O426 Dy419 2.351 . S
O426 C434 1.249 . S
O427 Dy416 2.326 . S
O427 C434 1.267 . S
O428 C417 1.185 . S
O428 Dy419 2.398 . S
O429 C417 1.355 . S
O429 Dy419 2.491 . S
O430 Dy419 2.403 1_655 S
O430 C425 1.254 . S
O431 Dy416 2.310 1_655 S
O431 Dy419 2.664 1_655 S
O431 C425 1.268 . S
O432 Dy416 2.351 1_565 S
O432 C435 1.249 . S
O433 Dy419 2.326 . S
O433 C435 1.267 1_545 S
C434 O426 1.249 . S
C434 O427 1.267 . S
C435 O432 1.249 . S
C435 O433 1.267 1_565 S
Dy436 O440 2.398 . S
Dy436 O441 2.491 . S
Dy436 O442 2.403 . S
Dy436 O443 2.664 . S
Dy436 O447 2.326 . S
Dy436 O451 2.310 . S
Dy436 O452 2.351 . S
C437 O448 1.185 . S
C437 O449 1.355 . S
C438 O440 1.185 . S
C438 O441 1.355 . S
Dy439 O443 2.310 . S
Dy439 O446 2.351 . S
Dy439 O448 2.398 . S
Dy439 O449 2.491 . S
Dy439 O450 2.403 . S
Dy439 O451 2.664 . S
Dy439 O453 2.326 . S
O440 Dy436 2.398 . S
O440 C438 1.185 . S
O441 Dy436 2.491 . S
O441 C438 1.355 . S
O442 Dy436 2.403 . S
O442 C444 1.254 . S
O443 Dy436 2.664 . S
O443 Dy439 2.310 . S
O443 C444 1.268 . S
C444 O442 1.254 . S
C444 O443 1.268 . S
C445 O450 1.254 . S
C445 O451 1.268 . S
O446 Dy439 2.351 . S
O446 C454 1.249 . S
O447 Dy436 2.326 . S
O447 C454 1.267 . S
O448 C437 1.185 . S
O448 Dy439 2.398 . S
O449 C437 1.355 . S
O449 Dy439 2.491 . S
O450 Dy439 2.403 . S
O450 C445 1.254 . S
O451 Dy436 2.310 . S
O451 Dy439 2.664 . S
O451 C445 1.268 . S
O452 Dy436 2.351 . S
O452 C455 1.249 . S
O453 Dy439 2.326 . S
O453 C455 1.267 . S
C454 O446 1.249 . S
C454 O447 1.267 . S
C455 O452 1.249 . S
C455 O453 1.267 . S
Dy456 O460 2.398 1_545 S
Dy456 O461 2.491 . S
Dy456 O462 2.403 1_545 S
Dy456 O463 2.664 . S
Dy456 O467 2.326 . S
Dy456 O471 2.310 . S
Dy456 O472 2.351 . S
C457 O468 1.185 . S
C457 O469 1.355 . S
C458 O460 1.185 1_545 S
C458 O461 1.355 . S
Dy459 O463 2.310 1_556 S
Dy459 O466 2.351 1_556 S
Dy459 O468 2.398 . S
Dy459 O469 2.491 . S
Dy459 O470 2.403 1_556 S
Dy459 O471 2.664 1_556 S
Dy459 O473 2.326 1_556 S
O460 Dy456 2.398 1_565 S
O460 C458 1.185 1_565 S
O461 Dy456 2.491 . S
O461 C458 1.355 . S
O462 Dy456 2.403 1_565 S
O462 C464 1.254 . S
O463 Dy456 2.664 . S
O463 Dy459 2.310 1_554 S
O463 C464 1.268 1_545 S
C464 O462 1.254 . S
C464 O463 1.268 1_565 S
C465 O470 1.254 . S
C465 O471 1.268 . S
O466 Dy459 2.351 1_554 S
O466 C474 1.249 . S
O467 Dy456 2.326 . S
O467 C474 1.267 . S
O468 C457 1.185 . S
O468 Dy459 2.398 . S
O469 C457 1.355 . S
O469 Dy459 2.491 . S
O470 Dy459 2.403 1_554 S
O470 C465 1.254 . S
O471 Dy456 2.310 . S
O471 Dy459 2.664 1_554 S
O471 C465 1.268 . S
O472 Dy456 2.351 . S
O472 C475 1.249 . S
O473 Dy459 2.326 1_554 S
O473 C475 1.267 . S
C474 O466 1.249 . S
C474 O467 1.267 . S
C475 O472 1.249 . S
C475 O473 1.267 . S
Dy476 O480 2.398 . S
Dy476 O481 2.491 . S
Dy476 O482 2.403 . S
Dy476 O483 2.664 . S
Dy476 O487 2.326 . S
Dy476 O491 2.310 . S
Dy476 O492 2.351 . S
C477 O488 1.185 . S
C477 O489 1.355 . S
C478 O480 1.185 . S
C478 O481 1.355 . S
Dy479 O483 2.310 . S
Dy479 O486 2.351 . S
Dy479 O488 2.398 . S
Dy479 O489 2.491 . S
Dy479 O490 2.403 . S
Dy479 O491 2.664 . S
Dy479 O493 2.326 . S
O480 Dy476 2.398 . S
O480 C478 1.185 . S
O481 Dy476 2.491 . S
O481 C478 1.355 . S
O482 Dy476 2.403 . S
O482 C484 1.254 . S
O483 Dy476 2.664 . S
O483 Dy479 2.310 . S
O483 C484 1.268 . S
C484 O482 1.254 . S
C484 O483 1.268 . S
C485 O490 1.254 . S
C485 O491 1.268 . S
O486 Dy479 2.351 . S
O486 C494 1.249 . S
O487 Dy476 2.326 . S
O487 C494 1.267 . S
O488 C477 1.185 . S
O488 Dy479 2.398 . S
O489 C477 1.355 . S
O489 Dy479 2.491 . S
O490 Dy479 2.403 . S
O490 C485 1.254 . S
O491 Dy476 2.310 . S
O491 Dy479 2.664 . S
O491 C485 1.268 . S
O492 Dy476 2.351 . S
O492 C495 1.249 . S
O493 Dy479 2.326 . S
O493 C495 1.267 . S
C494 O486 1.249 . S
C494 O487 1.267 . S
C495 O492 1.249 . S
C495 O493 1.267 . S
Dy496 O500 2.398 . S
Dy496 O501 2.491 . S
Dy496 O502 2.403 . S
Dy496 O503 2.664 1_556 S
Dy496 O507 2.326 . S
Dy496 O511 2.310 1_556 S
Dy496 O512 2.351 1_556 S
C497 O508 1.185 . S
C497 O509 1.355 . S
C498 O500 1.185 . S
C498 O501 1.355 . S
Dy499 O503 2.310 . S
Dy499 O506 2.351 . S
Dy499 O508 2.398 . S
Dy499 O509 2.491 . S
Dy499 O510 2.403 . S
Dy499 O511 2.664 . S
Dy499 O513 2.326 . S
O500 Dy496 2.398 . S
O500 C498 1.185 . S
O501 Dy496 2.491 . S
O501 C498 1.355 . S
O502 Dy496 2.403 . S
O502 C504 1.254 1_556 S
O503 Dy496 2.664 1_554 S
O503 Dy499 2.310 . S
O503 C504 1.268 . S
C504 O502 1.254 1_554 S
C504 O503 1.268 . S
C505 O510 1.254 . S
C505 O511 1.268 . S
O506 Dy499 2.351 . S
O506 C514 1.249 . S
O507 Dy496 2.326 . S
O507 C514 1.267 1_556 S
O508 C497 1.185 . S
O508 Dy499 2.398 . S
O509 C497 1.355 . S
O509 Dy499 2.491 . S
O510 Dy499 2.403 . S
O510 C505 1.254 . S
O511 Dy496 2.310 1_554 S
O511 Dy499 2.664 . S
O511 C505 1.268 . S
O512 Dy496 2.351 1_554 S
O512 C515 1.249 . S
O513 Dy499 2.326 . S
O513 C515 1.267 . S
C514 O506 1.249 . S
C514 O507 1.267 1_554 S
C515 O512 1.249 . S
C515 O513 1.267 . S
Dy516 O520 2.398 . S
Dy516 O521 2.491 . S
Dy516 O522 2.403 . S
Dy516 O523 2.664 . S
Dy516 O527 2.326 . S
Dy516 O531 2.310 . S
Dy516 O532 2.351 . S
C517 O528 1.185 . S
C517 O529 1.355 . S
C518 O520 1.185 . S
C518 O521 1.355 . S
Dy519 O523 2.310 . S
Dy519 O526 2.351 . S
Dy519 O528 2.398 . S
Dy519 O529 2.491 . S
Dy519 O530 2.403 . S
Dy519 O531 2.664 . S
Dy519 O533 2.326 . S
O520 Dy516 2.398 . S
O520 C518 1.185 . S
O521 Dy516 2.491 . S
O521 C518 1.355 . S
O522 Dy516 2.403 . S
O522 C524 1.254 . S
O523 Dy516 2.664 . S
O523 Dy519 2.310 . S
O523 C524 1.268 . S
C524 O522 1.254 . S
C524 O523 1.268 . S
C525 O530 1.254 . S
C525 O531 1.268 . S
O526 Dy519 2.351 . S
O526 C534 1.249 . S
O527 Dy516 2.326 . S
O527 C534 1.267 . S
O528 C517 1.185 . S
O528 Dy519 2.398 . S
O529 C517 1.355 . S
O529 Dy519 2.491 . S
O530 Dy519 2.403 . S
O530 C525 1.254 . S
O531 Dy516 2.310 . S
O531 Dy519 2.664 . S
O531 C525 1.268 . S
O532 Dy516 2.351 . S
O532 C535 1.249 . S
O533 Dy519 2.326 . S
O533 C535 1.267 . S
C534 O526 1.249 . S
C534 O527 1.267 . S
C535 O532 1.249 . S
C535 O533 1.267 . S
Dy536 O540 2.398 1_455 S
Dy536 O541 2.491 1_455 S
Dy536 O542 2.403 . S
Dy536 O543 2.664 . S
Dy536 O547 2.326 1_455 S
Dy536 O551 2.310 . S
Dy536 O552 2.351 . S
C537 O548 1.185 . S
C537 O549 1.355 . S
C538 O540 1.185 . S
C538 O541 1.355 . S
Dy539 O543 2.310 . S
Dy539 O546 2.351 1_455 S
Dy539 O548 2.398 . S
Dy539 O549 2.491 . S
Dy539 O550 2.403 . S
Dy539 O551 2.664 . S
Dy539 O553 2.326 . S
O540 Dy536 2.398 1_655 S
O540 C538 1.185 . S
O541 Dy536 2.491 1_655 S
O541 C538 1.355 . S
O542 Dy536 2.403 . S
O542 C544 1.254 . S
O543 Dy536 2.664 . S
O543 Dy539 2.310 . S
O543 C544 1.268 . S
C544 O542 1.254 . S
C544 O543 1.268 . S
C545 O550 1.254 . S
C545 O551 1.268 . S
O546 Dy539 2.351 1_655 S
O546 C554 1.249 . S
O547 Dy536 2.326 1_655 S
O547 C554 1.267 . S
O548 C537 1.185 . S
O548 Dy539 2.398 . S
O549 C537 1.355 . S
O549 Dy539 2.491 . S
O550 Dy539 2.403 . S
O550 C545 1.254 . S
O551 Dy536 2.310 . S
O551 Dy539 2.664 . S
O551 C545 1.268 . S
O552 Dy536 2.351 . S
O552 C555 1.249 . S
O553 Dy539 2.326 . S
O553 C555 1.267 . S
C554 O546 1.249 . S
C554 O547 1.267 . S
C555 O552 1.249 . S
C555 O553 1.267 . S
Dy556 O560 2.398 . S
Dy556 O561 2.491 . S
Dy556 O562 2.403 . S
Dy556 O563 2.664 . S
Dy556 O567 2.326 . S
Dy556 O571 2.310 . S
Dy556 O572 2.351 . S
C557 O568 1.185 . S
C557 O569 1.355 . S
C558 O560 1.185 . S
C558 O561 1.355 . S
Dy559 O563 2.310 . S
Dy559 O566 2.351 . S
Dy559 O568 2.398 . S
Dy559 O569 2.491 . S
Dy559 O570 2.403 . S
Dy559 O571 2.664 . S
Dy559 O573 2.326 . S
O560 Dy556 2.398 . S
O560 C558 1.185 . S
O561 Dy556 2.491 . S
O561 C558 1.355 . S
O562 Dy556 2.403 . S
O562 C564 1.254 . S
O563 Dy556 2.664 . S
O563 Dy559 2.310 . S
O563 C564 1.268 . S
C564 O562 1.254 . S
C564 O563 1.268 . S
C565 O570 1.254 . S
C565 O571 1.268 . S
O566 Dy559 2.351 . S
O566 C574 1.249 . S
O567 Dy556 2.326 . S
O567 C574 1.267 . S
O568 C557 1.185 . S
O568 Dy559 2.398 . S
O569 C557 1.355 . S
O569 Dy559 2.491 . S
O570 Dy559 2.403 . S
O570 C565 1.254 . S
O571 Dy556 2.310 . S
O571 Dy559 2.664 . S
O571 C565 1.268 . S
O572 Dy556 2.351 . S
O572 C575 1.249 . S
O573 Dy559 2.326 . S
O573 C575 1.267 . S
C574 O566 1.249 . S
C574 O567 1.267 . S
C575 O572 1.249 . S
C575 O573 1.267 . S
Dy576 O580 2.398 . S
Dy576 O581 2.491 . S
Dy576 O582 2.403 . S
Dy576 O583 2.664 . S
Dy576 O587 2.326 . S
Dy576 O591 2.310 . S
Dy576 O592 2.351 . S
C577 O588 1.185 . S
C577 O589 1.355 . S
C578 O580 1.185 . S
C578 O581 1.355 . S
Dy579 O583 2.310 . S
Dy579 O586 2.351 . S
Dy579 O588 2.398 . S
Dy579 O589 2.491 . S
Dy579 O590 2.403 . S
Dy579 O591 2.664 . S
Dy579 O593 2.326 . S
O580 Dy576 2.398 . S
O580 C578 1.185 . S
O581 Dy576 2.491 . S
O581 C578 1.355 . S
O582 Dy576 2.403 . S
O582 C584 1.254 . S
O583 Dy576 2.664 . S
O583 Dy579 2.310 . S
O583 C584 1.268 . S
C584 O582 1.254 . S
C584 O583 1.268 . S
C585 O590 1.254 . S
C585 O591 1.268 . S
O586 Dy579 2.351 . S
O586 C594 1.249 . S
O587 Dy576 2.326 . S
O587 C594 1.267 . S
O588 C577 1.185 . S
O588 Dy579 2.398 . S
O589 C577 1.355 . S
O589 Dy579 2.491 . S
O590 Dy579 2.403 . S
O590 C585 1.254 . S
O591 Dy576 2.310 . S
O591 Dy579 2.664 . S
O591 C585 1.268 . S
O592 Dy576 2.351 . S
O592 C595 1.249 . S
O593 Dy579 2.326 . S
O593 C595 1.267 . S
C594 O586 1.249 . S
C594 O587 1.267 . S
C595 O592 1.249 . S
C595 O593 1.267 . S
Dy596 O600 2.398 . S
Dy596 O601 2.491 . S
Dy596 O602 2.403 . S
Dy596 O603 2.664 . S
Dy596 O607 2.326 . S
Dy596 O611 2.310 . S
Dy596 O612 2.351 . S
C597 O608 1.185 . S
C597 O609 1.355 . S
C598 O600 1.185 . S
C598 O601 1.355 . S
Dy599 O603 2.310 . S
Dy599 O606 2.351 . S
Dy599 O608 2.398 . S
Dy599 O609 2.491 . S
Dy599 O610 2.403 . S
Dy599 O611 2.664 . S
Dy599 O613 2.326 . S
O600 Dy596 2.398 . S
O600 C598 1.185 . S
O601 Dy596 2.491 . S
O601 C598 1.355 . S
O602 Dy596 2.403 . S
O602 C604 1.254 . S
O603 Dy596 2.664 . S
O603 Dy599 2.310 . S
O603 C604 1.268 . S
C604 O602 1.254 . S
C604 O603 1.268 . S
C605 O610 1.254 . S
C605 O611 1.268 . S
O606 Dy599 2.351 . S
O606 C614 1.249 . S
O607 Dy596 2.326 . S
O607 C614 1.267 . S
O608 C597 1.185 . S
O608 Dy599 2.398 . S
O609 C597 1.355 . S
O609 Dy599 2.491 . S
O610 Dy599 2.403 . S
O610 C605 1.254 . S
O611 Dy596 2.310 . S
O611 Dy599 2.664 . S
O611 C605 1.268 . S
O612 Dy596 2.351 . S
O612 C615 1.249 . S
O613 Dy599 2.326 . S
O613 C615 1.267 . S
C614 O606 1.249 . S
C614 O607 1.267 . S
C615 O612 1.249 . S
C615 O613 1.267 . S
Dy616 O620 2.398 . S
Dy616 O621 2.491 . S
Dy616 O622 2.403 . S
Dy616 O623 2.664 . S
Dy616 O627 2.326 . S
Dy616 O631 2.310 . S
Dy616 O632 2.351 . S
C617 O628 1.185 . S
C617 O629 1.355 . S
C618 O620 1.185 . S
C618 O621 1.355 . S
Dy619 O623 2.310 . S
Dy619 O626 2.351 . S
Dy619 O628 2.398 . S
Dy619 O629 2.491 . S
Dy619 O630 2.403 . S
Dy619 O631 2.664 . S
Dy619 O633 2.326 . S
O620 Dy616 2.398 . S
O620 C618 1.185 . S
O621 Dy616 2.491 . S
O621 C618 1.355 . S
O622 Dy616 2.403 . S
O622 C624 1.254 . S
O623 Dy616 2.664 . S
O623 Dy619 2.310 . S
O623 C624 1.268 . S
C624 O622 1.254 . S
C624 O623 1.268 . S
C625 O630 1.254 . S
C625 O631 1.268 . S
O626 Dy619 2.351 . S
O626 C634 1.249 . S
O627 Dy616 2.326 . S
O627 C634 1.267 . S
O628 C617 1.185 . S
O628 Dy619 2.398 . S
O629 C617 1.355 . S
O629 Dy619 2.491 . S
O630 Dy619 2.403 . S
O630 C625 1.254 . S
O631 Dy616 2.310 . S
O631 Dy619 2.664 . S
O631 C625 1.268 . S
O632 Dy616 2.351 . S
O632 C635 1.249 . S
O633 Dy619 2.326 . S
O633 C635 1.267 . S
C634 O626 1.249 . S
C634 O627 1.267 . S
C635 O632 1.249 . S
C635 O633 1.267 . S
Dy636 O640 2.398 . S
Dy636 O641 2.491 . S
Dy636 O642 2.403 1_554 S
Dy636 O643 2.664 . S
Dy636 O647 2.326 . S
Dy636 O651 2.310 . S
Dy636 O652 2.351 . S
C637 O648 1.185 . S
C637 O649 1.355 . S
C638 O640 1.185 . S
C638 O641 1.355 . S
Dy639 O643 2.310 1_655 S
Dy639 O646 2.351 . S
Dy639 O648 2.398 . S
Dy639 O649 2.491 . S
Dy639 O650 2.403 . S
Dy639 O651 2.664 1_655 S
Dy639 O653 2.326 1_655 S
O640 Dy636 2.398 . S
O640 C638 1.185 . S
O641 Dy636 2.491 . S
O641 C638 1.355 . S
O642 Dy636 2.403 1_556 S
O642 C644 1.254 . S
O643 Dy636 2.664 . S
O643 Dy639 2.310 1_455 S
O643 C644 1.268 1_554 S
C644 O642 1.254 . S
C644 O643 1.268 1_556 S
C645 O650 1.254 1_455 S
C645 O651 1.268 . S
O646 Dy639 2.351 . S
O646 C654 1.249 1_655 S
O647 Dy636 2.326 . S
O647 C654 1.267 . S
O648 C637 1.185 . S
O648 Dy639 2.398 . S
O649 C637 1.355 . S
O649 Dy639 2.491 . S
O650 Dy639 2.403 . S
O650 C645 1.254 1_655 S
O651 Dy636 2.310 . S
O651 Dy639 2.664 1_455 S
O651 C645 1.268 . S
O652 Dy636 2.351 . S
O652 C655 1.249 . S
O653 Dy639 2.326 1_455 S
O653 C655 1.267 . S
C654 O646 1.249 1_455 S
C654 O647 1.267 . S
C655 O652 1.249 . S
C655 O653 1.267 . S
H656 C664 0.950 . S
H657 C669 0.950 . S
H658 C666 0.950 . S
H659 C668 0.950 . S
H660 C670 0.950 1_554 S
H661 C672 0.950 . S
H662 C674 0.950 . S
H663 C675 0.950 . S
C664 H656 0.950 . S
C664 C665 1.386 1_455 S
C664 C666 1.391 . S
C665 C664 1.386 1_655 S
C665 C669 1.393 . S
C666 H658 0.950 . S
C666 C664 1.391 . S
C666 C667 1.400 . S
C667 C666 1.400 . S
C667 C668 1.398 1_455 S
C667 C673 1.491 . S
C668 H659 0.950 . S
C668 C667 1.398 1_655 S
C668 C669 1.391 . S
C669 H657 0.950 . S
C669 C665 1.393 . S
C669 C668 1.391 . S
C670 H660 0.950 1_556 S
C670 C671 1.386 1_655 S
C670 C672 1.391 . S
C671 C670 1.386 1_455 S
C671 C675 1.393 . S
C672 H661 0.950 . S
C672 C670 1.391 . S
C672 C673 1.400 1_655 S
C673 C667 1.491 . S
C673 C672 1.400 1_455 S
C673 C674 1.398 . S
C674 H662 0.950 . S
C674 C673 1.398 . S
C674 C675 1.391 . S
C675 H663 0.950 . S
C675 C671 1.393 . S
C675 C674 1.391 . S
H676 C684 0.950 . S
H677 C689 0.950 . S
H678 C686 0.950 . S
H679 C688 0.950 . S
H680 C690 0.950 . S
H681 C692 0.950 . S
H682 C694 0.950 . S
H683 C695 0.950 . S
C684 H676 0.950 . S
C684 C685 1.386 . S
C684 C686 1.391 . S
C685 C684 1.386 . S
C685 C689 1.393 . S
C686 H678 0.950 . S
C686 C684 1.391 . S
C686 C687 1.400 . S
C687 C686 1.400 . S
C687 C688 1.398 . S
C687 C693 1.491 . S
C688 H679 0.950 . S
C688 C687 1.398 . S
C688 C689 1.391 . S
C689 H677 0.950 . S
C689 C685 1.393 . S
C689 C688 1.391 . S
C690 H680 0.950 . S
C690 C691 1.386 . S
C690 C692 1.391 . S
C691 C690 1.386 . S
C691 C695 1.393 . S
C692 H681 0.950 . S
C692 C690 1.391 . S
C692 C693 1.400 . S
C693 C687 1.491 . S
C693 C692 1.400 . S
C693 C694 1.398 . S
C694 H682 0.950 . S
C694 C693 1.398 . S
C694 C695 1.391 . S
C695 H683 0.950 . S
C695 C691 1.393 . S
C695 C694 1.391 . S
H696 C704 0.950 . S
H697 C709 0.950 . S
H698 C706 0.950 . S
H699 C708 0.950 . S
H700 C710 0.950 . S
H701 C712 0.950 . S
H702 C714 0.950 . S
H703 C715 0.950 . S
C704 H696 0.950 . S
C704 C705 1.386 . S
C704 C706 1.391 . S
C705 C704 1.386 . S
C705 C709 1.393 . S
C706 H698 0.950 . S
C706 C704 1.391 . S
C706 C707 1.400 . S
C707 C706 1.400 . S
C707 C708 1.398 . S
C707 C713 1.491 . S
C708 H699 0.950 . S
C708 C707 1.398 . S
C708 C709 1.391 . S
C709 H697 0.950 . S
C709 C705 1.393 . S
C709 C708 1.391 . S
C710 H700 0.950 . S
C710 C711 1.386 . S
C710 C712 1.391 . S
C711 C710 1.386 . S
C711 C715 1.393 . S
C712 H701 0.950 . S
C712 C710 1.391 . S
C712 C713 1.400 . S
C713 C707 1.491 . S
C713 C712 1.400 . S
C713 C714 1.398 . S
C714 H702 0.950 . S
C714 C713 1.398 . S
C714 C715 1.391 . S
C715 H703 0.950 . S
C715 C711 1.393 . S
C715 C714 1.391 . S
H716 C724 0.950 . S
H717 C729 0.950 . S
H718 C726 0.950 . S
H719 C728 0.950 . S
H720 C730 0.950 . S
H721 C732 0.950 . S
H722 C734 0.950 . S
H723 C735 0.950 . S
C724 H716 0.950 . S
C724 C725 1.386 . S
C724 C726 1.391 . S
C725 C724 1.386 . S
C725 C729 1.393 . S
C726 H718 0.950 . S
C726 C724 1.391 . S
C726 C727 1.400 . S
C727 C726 1.400 . S
C727 C728 1.398 . S
C727 C733 1.491 . S
C728 H719 0.950 . S
C728 C727 1.398 . S
C728 C729 1.391 . S
C729 H717 0.950 . S
C729 C725 1.393 . S
C729 C728 1.391 . S
C730 H720 0.950 . S
C730 C731 1.386 . S
C730 C732 1.391 . S
C731 C730 1.386 . S
C731 C735 1.393 . S
C732 H721 0.950 . S
C732 C730 1.391 . S
C732 C733 1.400 . S
C733 C727 1.491 . S
C733 C732 1.400 . S
C733 C734 1.398 . S
C734 H722 0.950 . S
C734 C733 1.398 . S
C734 C735 1.391 . S
C735 H723 0.950 . S
C735 C731 1.393 . S
C735 C734 1.391 . S
H736 C744 0.950 . S
H737 C749 0.950 . S
H738 C746 0.950 . S
H739 C748 0.950 . S
H740 C750 0.950 . S
H741 C752 0.950 . S
H742 C754 0.950 . S
H743 C755 0.950 . S
C744 H736 0.950 . S
C744 C745 1.386 . S
C744 C746 1.391 . S
C745 C744 1.386 . S
C745 C749 1.393 . S
C746 H738 0.950 . S
C746 C744 1.391 . S
C746 C747 1.400 . S
C747 C746 1.400 . S
C747 C748 1.398 . S
C747 C753 1.491 . S
C748 H739 0.950 . S
C748 C747 1.398 . S
C748 C749 1.391 . S
C749 H737 0.950 . S
C749 C745 1.393 . S
C749 C748 1.391 . S
C750 H740 0.950 . S
C750 C751 1.386 . S
C750 C752 1.391 . S
C751 C750 1.386 . S
C751 C755 1.393 . S
C752 H741 0.950 . S
C752 C750 1.391 . S
C752 C753 1.400 . S
C753 C747 1.491 . S
C753 C752 1.400 . S
C753 C754 1.398 . S
C754 H742 0.950 . S
C754 C753 1.398 . S
C754 C755 1.391 . S
C755 H743 0.950 . S
C755 C751 1.393 . S
C755 C754 1.391 . S
H756 C764 0.950 . S
H757 C769 0.950 . S
H758 C766 0.950 . S
H759 C768 0.950 . S
H760 C770 0.950 . S
H761 C772 0.950 . S
H762 C774 0.950 . S
H763 C775 0.950 . S
C764 H756 0.950 . S
C764 C765 1.386 . S
C764 C766 1.391 . S
C765 C764 1.386 . S
C765 C769 1.393 . S
C766 H758 0.950 . S
C766 C764 1.391 . S
C766 C767 1.400 . S
C767 C766 1.400 . S
C767 C768 1.398 . S
C767 C773 1.491 . S
C768 H759 0.950 . S
C768 C767 1.398 . S
C768 C769 1.391 . S
C769 H757 0.950 . S
C769 C765 1.393 . S
C769 C768 1.391 . S
C770 H760 0.950 . S
C770 C771 1.386 . S
C770 C772 1.391 . S
C771 C770 1.386 . S
C771 C775 1.393 . S
C772 H761 0.950 . S
C772 C770 1.391 . S
C772 C773 1.400 . S
C773 C767 1.491 . S
C773 C772 1.400 . S
C773 C774 1.398 . S
C774 H762 0.950 . S
C774 C773 1.398 . S
C774 C775 1.391 . S
C775 H763 0.950 . S
C775 C771 1.393 . S
C775 C774 1.391 . S
H776 C784 0.950 . S
H777 C789 0.950 . S
H778 C786 0.950 . S
H779 C788 0.950 . S
H780 C790 0.950 . S
H781 C792 0.950 . S
H782 C794 0.950 . S
H783 C795 0.950 . S
C784 H776 0.950 . S
C784 C785 1.386 . S
C784 C786 1.391 . S
C785 C784 1.386 . S
C785 C789 1.393 . S
C786 H778 0.950 . S
C786 C784 1.391 . S
C786 C787 1.400 . S
C787 C786 1.400 . S
C787 C788 1.398 . S
C787 C793 1.491 . S
C788 H779 0.950 . S
C788 C787 1.398 . S
C788 C789 1.391 . S
C789 H777 0.950 . S
C789 C785 1.393 . S
C789 C788 1.391 . S
C790 H780 0.950 . S
C790 C791 1.386 . S
C790 C792 1.391 . S
C791 C790 1.386 . S
C791 C795 1.393 . S
C792 H781 0.950 . S
C792 C790 1.391 . S
C792 C793 1.400 . S
C793 C787 1.491 . S
C793 C792 1.400 . S
C793 C794 1.398 . S
C794 H782 0.950 . S
C794 C793 1.398 . S
C794 C795 1.391 . S
C795 H783 0.950 . S
C795 C791 1.393 . S
C795 C794 1.391 . S
H796 C804 0.950 . S
H797 C809 0.950 . S
H798 C806 0.950 . S
H799 C808 0.950 . S
H800 C810 0.950 . S
H801 C812 0.950 . S
H802 C814 0.950 . S
H803 C815 0.950 . S
C804 H796 0.950 . S
C804 C805 1.386 . S
C804 C806 1.391 . S
C805 C804 1.386 . S
C805 C809 1.393 . S
C806 H798 0.950 . S
C806 C804 1.391 . S
C806 C807 1.400 . S
C807 C806 1.400 . S
C807 C808 1.398 . S
C807 C813 1.491 . S
C808 H799 0.950 . S
C808 C807 1.398 . S
C808 C809 1.391 . S
C809 H797 0.950 . S
C809 C805 1.393 . S
C809 C808 1.391 . S
C810 H800 0.950 . S
C810 C811 1.386 . S
C810 C812 1.391 . S
C811 C810 1.386 . S
C811 C815 1.393 . S
C812 H801 0.950 . S
C812 C810 1.391 . S
C812 C813 1.400 . S
C813 C807 1.491 . S
C813 C812 1.400 . S
C813 C814 1.398 . S
C814 H802 0.950 . S
C814 C813 1.398 . S
C814 C815 1.391 . S
C815 H803 0.950 . S
C815 C811 1.393 . S
C815 C814 1.391 . S
H816 C824 0.950 . S
H817 C829 0.950 . S
H818 C826 0.950 . S
H819 C828 0.950 . S
H820 C830 0.950 . S
H821 C832 0.950 . S
H822 C834 0.950 . S
H823 C835 0.989 . S
C824 H816 0.950 . S
C824 C825 1.386 . S
C824 C826 1.391 . S
C825 C824 1.386 . S
C825 C829 1.393 . S
C826 H818 0.950 . S
C826 C824 1.391 . S
C826 C827 1.400 . S
C827 C826 1.400 . S
C827 C828 1.398 . S
C827 C833 1.491 . S
C828 H819 0.950 . S
C828 C827 1.398 . S
C828 C829 1.391 . S
C829 H817 0.950 . S
C829 C825 1.393 . S
C829 C828 1.391 . S
C830 H820 0.950 . S
C830 C831 1.386 . S
C830 C832 1.391 . S
C831 C830 1.386 . S
C831 C835 1.380 1_655 S
C832 H821 0.950 . S
C832 C830 1.391 . S
C832 C833 1.400 . S
C833 C827 1.491 . S
C833 C832 1.400 . S
C833 C834 1.398 . S
C834 H822 0.950 . S
C834 C833 1.398 . S
C834 C835 1.365 1_655 S
C835 H823 0.989 . S
C835 C831 1.380 1_455 S
C835 C834 1.365 1_455 S
H836 C844 0.950 . S
H837 C849 0.950 . S
H838 C846 0.950 . S
H839 C848 0.950 . S
H840 C850 0.950 . S
H841 C852 0.950 . S
H842 C854 0.950 . S
H843 C855 0.950 . S
C844 H836 0.950 . S
C844 C845 1.386 . S
C844 C846 1.391 . S
C845 C844 1.386 . S
C845 C849 1.393 . S
C846 H838 0.950 . S
C846 C844 1.391 . S
C846 C847 1.400 . S
C847 C846 1.400 . S
C847 C848 1.398 . S
C847 C853 1.491 . S
C848 H839 0.950 . S
C848 C847 1.398 . S
C848 C849 1.391 . S
C849 H837 0.950 . S
C849 C845 1.393 . S
C849 C848 1.391 . S
C850 H840 0.950 . S
C850 C851 1.386 . S
C850 C852 1.391 . S
C851 C850 1.386 . S
C851 C855 1.393 . S
C852 H841 0.950 . S
C852 C850 1.391 . S
C852 C853 1.400 . S
C853 C847 1.491 . S
C853 C852 1.400 . S
C853 C854 1.398 . S
C854 H842 0.950 . S
C854 C853 1.398 . S
C854 C855 1.391 . S
C855 H843 0.950 . S
C855 C851 1.393 . S
C855 C854 1.391 . S
H856 C864 0.950 1_565 S
H857 C869 0.950 . S
H858 C866 0.950 1_565 S
H859 C868 0.950 . S
H860 C870 0.950 . S
H861 C872 0.950 . S
H862 C874 0.928 1_565 S
H863 C875 0.950 . S
C864 H856 0.950 1_545 S
C864 C865 1.386 . S
C864 C866 1.391 . S
C865 C864 1.386 . S
C865 C869 1.393 . S
C866 H858 0.950 1_545 S
C866 C864 1.391 . S
C866 C867 1.400 . S
C867 C866 1.400 . S
C867 C868 1.398 . S
C867 C873 1.491 . S
C868 H859 0.950 . S
C868 C867 1.398 . S
C868 C869 1.391 . S
C869 H857 0.950 . S
C869 C865 1.393 . S
C869 C868 1.391 . S
C870 H860 0.950 . S
C870 C871 1.386 . S
C870 C872 1.391 . S
C871 C870 1.386 . S
C871 C875 1.393 1_545 S
C872 H861 0.950 . S
C872 C870 1.391 . S
C872 C873 1.400 . S
C873 C867 1.491 . S
C873 C872 1.400 . S
C873 C874 1.417 . S
C874 H862 0.928 1_545 S
C874 C873 1.417 . S
C874 C875 1.394 1_545 S
C875 H863 0.950 . S
C875 C871 1.393 1_565 S
C875 C874 1.394 1_565 S
H876 C884 0.950 . S
H877 C889 0.950 . S
H878 C886 0.950 . S
H879 C888 0.950 . S
H880 C890 0.950 . S
H881 C892 0.950 . S
H882 C894 0.950 . S
H883 C895 0.950 . S
C884 H876 0.950 . S
C884 C885 1.386 . S
C884 C886 1.391 . S
C885 C884 1.386 . S
C885 C889 1.393 . S
C886 H878 0.950 . S
C886 C884 1.391 . S
C886 C887 1.400 . S
C887 C886 1.400 . S
C887 C888 1.398 . S
C887 C893 1.491 . S
C888 H879 0.950 . S
C888 C887 1.398 . S
C888 C889 1.391 . S
C889 H877 0.950 . S
C889 C885 1.393 . S
C889 C888 1.391 . S
C890 H880 0.950 . S
C890 C891 1.386 . S
C890 C892 1.391 . S
C891 C890 1.386 . S
C891 C895 1.393 . S
C892 H881 0.950 . S
C892 C890 1.391 . S
C892 C893 1.400 . S
C893 C887 1.491 . S
C893 C892 1.400 . S
C893 C894 1.398 . S
C894 H882 0.950 . S
C894 C893 1.398 . S
C894 C895 1.391 . S
C895 H883 0.950 . S
C895 C891 1.393 . S
C895 C894 1.391 . S
H896 C904 0.950 . S
H897 C909 0.950 . S
H898 C906 0.950 . S
H899 C908 0.950 . S
H900 C910 0.950 1_565 S
H901 C912 0.971 . S
H902 C914 0.950 . S
H903 C915 0.950 1_455 S
C904 H896 0.950 . S
C904 C905 1.386 . S
C904 C906 1.391 . S
C905 C904 1.386 . S
C905 C909 1.393 . S
C906 H898 0.950 . S
C906 C904 1.391 . S
C906 C907 1.400 . S
C907 C906 1.400 . S
C907 C908 1.398 . S
C907 C913 1.491 . S
C908 H899 0.950 . S
C908 C907 1.398 . S
C908 C909 1.391 . S
C909 H897 0.950 . S
C909 C905 1.393 . S
C909 C908 1.391 . S
C910 H900 0.950 1_545 S
C910 C911 1.386 . S
C910 C912 1.391 . S
C911 C910 1.386 . S
C911 C915 1.393 . S
C912 H901 0.971 . S
C912 C910 1.391 . S
C912 C913 1.400 . S
C913 C907 1.491 . S
C913 C912 1.400 . S
C913 C914 1.398 . S
C914 H902 0.950 . S
C914 C913 1.398 . S
C914 C915 1.391 . S
C915 H903 0.950 1_655 S
C915 C911 1.393 . S
C915 C914 1.391 . S
H916 C924 0.950 . S
H917 C929 0.950 . S
H918 C926 0.950 . S
H919 C928 0.950 . S
H920 C930 0.950 . S
H921 C932 0.950 . S
H922 C934 0.950 . S
H923 C935 0.950 . S
C924 H916 0.950 . S
C924 C925 1.386 . S
C924 C926 1.391 . S
C925 C924 1.386 . S
C925 C929 1.393 . S
C926 H918 0.950 . S
C926 C924 1.391 . S
C926 C927 1.400 . S
C927 C926 1.400 . S
C927 C928 1.398 . S
C927 C933 1.491 . S
C928 H919 0.950 . S
C928 C927 1.398 . S
C928 C929 1.391 . S
C929 H917 0.950 . S
C929 C925 1.393 . S
C929 C928 1.391 . S
C930 H920 0.950 . S
C930 C931 1.386 . S
C930 C932 1.391 . S
C931 C930 1.386 . S
C931 C935 1.393 . S
C932 H921 0.950 . S
C932 C930 1.391 . S
C932 C933 1.400 . S
C933 C927 1.491 . S
C933 C932 1.400 . S
C933 C934 1.398 . S
C934 H922 0.950 . S
C934 C933 1.398 . S
C934 C935 1.391 . S
C935 H923 0.950 . S
C935 C931 1.393 . S
C935 C934 1.391 . S
H936 C944 0.950 . S
H937 C949 0.950 . S
H938 C946 0.950 . S
H939 C948 0.950 . S
H940 C950 0.950 . S
H941 C952 0.950 . S
H942 C954 0.950 . S
H943 C955 0.950 . S
C944 H936 0.950 . S
C944 C945 1.386 . S
C944 C946 1.391 . S
C945 C944 1.386 . S
C945 C949 1.393 . S
C946 H938 0.950 . S
C946 C944 1.391 . S
C946 C947 1.400 . S
C947 C946 1.400 . S
C947 C948 1.398 . S
C947 C953 1.491 . S
C948 H939 0.950 . S
C948 C947 1.398 . S
C948 C949 1.391 . S
C949 H937 0.950 . S
C949 C945 1.393 . S
C949 C948 1.391 . S
C950 H940 0.950 . S
C950 C951 1.386 . S
C950 C952 1.391 . S
C951 C950 1.386 . S
C951 C955 1.393 . S
C952 H941 0.950 . S
C952 C950 1.391 . S
C952 C953 1.400 . S
C953 C947 1.491 . S
C953 C952 1.400 . S
C953 C954 1.398 . S
C954 H942 0.950 . S
C954 C953 1.398 . S
C954 C955 1.391 . S
C955 H943 0.950 . S
C955 C951 1.393 . S
C955 C954 1.391 . S
H956 C964 0.950 . S
H957 C969 0.950 . S
H958 C966 0.950 . S
H959 C968 0.950 . S
H960 C970 0.950 . S
H961 C972 0.950 . S
H962 C974 0.950 . S
H963 C975 0.950 . S
C964 H956 0.950 . S
C964 C965 1.386 . S
C964 C966 1.391 . S
C965 C964 1.386 . S
C965 C969 1.393 . S
C966 H958 0.950 . S
C966 C964 1.391 . S
C966 C967 1.400 . S
C967 C966 1.400 . S
C967 C968 1.398 . S
C967 C973 1.491 . S
C968 H959 0.950 . S
C968 C967 1.398 . S
C968 C969 1.391 . S
C969 H957 0.950 . S
C969 C965 1.393 . S
C969 C968 1.391 . S
C970 H960 0.950 . S
C970 C971 1.386 . S
C970 C972 1.391 . S
C971 C970 1.386 . S
C971 C975 1.393 . S
C972 H961 0.950 . S
C972 C970 1.391 . S
C972 C973 1.400 . S
C973 C967 1.491 . S
C973 C972 1.400 . S
C973 C974 1.398 . S
C974 H962 0.950 . S
C974 C973 1.398 . S
C974 C975 1.391 . S
C975 H963 0.950 . S
C975 C971 1.393 . S
C975 C974 1.391 . S
H976 C984 0.950 . S
H977 C989 0.950 1_556 S
H978 C986 0.950 . S
H979 C988 0.950 . S
H980 C990 0.950 . S
H981 C992 0.950 . S
H982 C994 0.950 1_545 S
H983 C995 0.950 . S
C984 H976 0.950 . S
C984 C985 1.386 . S
C984 C986 1.391 . S
C985 C984 1.386 . S
C985 C989 1.393 . S
C986 H978 0.950 . S
C986 C984 1.391 . S
C986 C987 1.400 . S
C987 C986 1.400 . S
C987 C988 1.398 . S
C987 C993 1.491 . S
C988 H979 0.950 . S
C988 C987 1.398 . S
C988 C989 1.391 . S
C989 H977 0.950 1_554 S
C989 C985 1.393 . S
C989 C988 1.391 . S
C990 H980 0.950 . S
C990 C991 1.386 1_565 S
C990 C992 1.391 . S
C991 C990 1.386 1_545 S
C991 C995 1.393 . S
C992 H981 0.950 . S
C992 C990 1.391 . S
C992 C993 1.400 . S
C993 C987 1.491 . S
C993 C992 1.400 . S
C993 C994 1.399 . S
C994 H982 0.950 1_565 S
C994 C993 1.399 . S
C994 C995 1.390 1_565 S
C995 H983 0.950 . S
C995 C991 1.393 . S
C995 C994 1.390 1_545 S
H996 C1004 0.950 . S
H997 C1009 0.950 . S
H998 C1006 0.950 . S
H999 C1008 0.950 . S
H1000 C1010 0.950 . S
H1001 C1012 0.950 . S
H1002 C1014 0.950 . S
H1003 C1015 0.950 . S
C1004 H996 0.950 . S
C1004 C1005 1.386 . S
C1004 C1006 1.391 . S
C1005 C1004 1.386 . S
C1005 C1009 1.393 1_554 S
C1006 H998 0.950 . S
C1006 C1004 1.391 . S
C1006 C1007 1.400 . S
C1007 C1006 1.400 . S
C1007 C1008 1.398 1_554 S
C1007 C1013 1.491 . S
C1008 H999 0.950 . S
C1008 C1007 1.398 1_556 S
C1008 C1009 1.391 . S
C1009 H997 0.950 . S
C1009 C1005 1.393 1_556 S
C1009 C1008 1.391 . S
C1010 H1000 0.950 . S
C1010 C1011 1.386 1_556 S
C1010 C1012 1.391 . S
C1011 C1010 1.386 1_554 S
C1011 C1015 1.393 . S
C1012 H1001 0.950 . S
C1012 C1010 1.391 . S
C1012 C1013 1.400 1_556 S
C1013 C1007 1.491 . S
C1013 C1012 1.400 1_554 S
C1013 C1014 1.398 . S
C1014 H1002 0.950 . S
C1014 C1013 1.398 . S
C1014 C1015 1.391 . S
C1015 H1003 0.950 . S
C1015 C1011 1.393 . S
C1015 C1014 1.391 . S
H1016 C1024 0.950 . S
H1017 C1029 0.950 . S
H1018 C1026 0.950 . S
H1019 C1028 0.950 . S
H1020 C1030 0.950 . S
H1021 C1032 0.950 . S
H1022 C1034 0.950 . S
H1023 C1035 0.950 . S
C1024 H1016 0.950 . S
C1024 C1025 1.386 . S
C1024 C1026 1.391 . S
C1025 C1024 1.386 . S
C1025 C1029 1.393 . S
C1026 H1018 0.950 . S
C1026 C1024 1.391 . S
C1026 C1027 1.400 . S
C1027 C1026 1.400 . S
C1027 C1028 1.398 . S
C1027 C1033 1.491 . S
C1028 H1019 0.950 . S
C1028 C1027 1.398 . S
C1028 C1029 1.391 . S
C1029 H1017 0.950 . S
C1029 C1025 1.393 . S
C1029 C1028 1.391 . S
C1030 H1020 0.950 . S
C1030 C1031 1.386 . S
C1030 C1032 1.391 . S
C1031 C1030 1.386 . S
C1031 C1035 1.393 . S
C1032 H1021 0.950 . S
C1032 C1030 1.391 . S
C1032 C1033 1.400 . S
C1033 C1027 1.491 . S
C1033 C1032 1.400 . S
C1033 C1034 1.398 . S
C1034 H1022 0.950 . S
C1034 C1033 1.398 . S
C1034 C1035 1.391 . S
C1035 H1023 0.950 . S
C1035 C1031 1.393 . S
C1035 C1034 1.391 . S
H1036 C1044 0.950 . S
H1037 C1049 0.950 . S
H1038 C1046 0.950 . S
H1039 C1048 0.950 . S
H1040 C1050 0.950 . S
H1041 C1052 0.950 . S
H1042 C1054 0.950 . S
H1043 C1055 0.950 . S
C1044 H1036 0.950 . S
C1044 C1045 1.386 . S
C1044 C1046 1.391 . S
C1045 C1044 1.386 . S
C1045 C1049 1.393 . S
C1046 H1038 0.950 . S
C1046 C1044 1.391 . S
C1046 C1047 1.400 . S
C1047 C1046 1.400 . S
C1047 C1048 1.398 . S
C1047 C1053 1.491 . S
C1048 H1039 0.950 . S
C1048 C1047 1.398 . S
C1048 C1049 1.391 . S
C1049 H1037 0.950 . S
C1049 C1045 1.393 . S
C1049 C1048 1.391 . S
C1050 H1040 0.950 . S
C1050 C1051 1.386 . S
C1050 C1052 1.391 . S
C1051 C1050 1.386 . S
C1051 C1055 1.393 . S
C1052 H1041 0.950 . S
C1052 C1050 1.391 . S
C1052 C1053 1.400 . S
C1053 C1047 1.491 . S
C1053 C1052 1.400 . S
C1053 C1054 1.398 . S
C1054 H1042 0.950 . S
C1054 C1053 1.398 . S
C1054 C1055 1.391 . S
C1055 H1043 0.950 . S
C1055 C1051 1.393 . S
C1055 C1054 1.391 . S
H1056 C1064 0.950 . S
H1057 C1069 0.950 . S
H1058 C1066 0.950 . S
H1059 C1068 0.950 . S
H1060 C1070 0.950 . S
H1061 C1072 0.950 . S
H1062 C1074 0.950 . S
H1063 C1075 0.950 . S
C1064 H1056 0.950 . S
C1064 C1065 1.386 . S
C1064 C1066 1.391 . S
C1065 C1064 1.386 . S
C1065 C1069 1.393 . S
C1066 H1058 0.950 . S
C1066 C1064 1.391 . S
C1066 C1067 1.400 . S
C1067 C1066 1.400 . S
C1067 C1068 1.398 . S
C1067 C1073 1.491 . S
C1068 H1059 0.950 . S
C1068 C1067 1.398 . S
C1068 C1069 1.391 . S
C1069 H1057 0.950 . S
C1069 C1065 1.393 . S
C1069 C1068 1.391 . S
C1070 H1060 0.950 . S
C1070 C1071 1.386 . S
C1070 C1072 1.391 . S
C1071 C1070 1.386 . S
C1071 C1075 1.393 . S
C1072 H1061 0.950 . S
C1072 C1070 1.391 . S
C1072 C1073 1.400 . S
C1073 C1067 1.491 . S
C1073 C1072 1.400 . S
C1073 C1074 1.398 . S
C1074 H1062 0.950 . S
C1074 C1073 1.398 . S
C1074 C1075 1.391 . S
C1075 H1063 0.950 . S
C1075 C1071 1.393 . S
C1075 C1074 1.391 . S
H1076 C1084 0.950 . S
H1077 C1089 0.950 . S
H1078 C1086 0.950 . S
H1079 C1088 0.950 . S
H1080 C1090 0.950 . S
H1081 C1092 0.950 . S
H1082 C1094 0.950 . S
H1083 C1095 0.950 . S
C1084 H1076 0.950 . S
C1084 C1085 1.386 . S
C1084 C1086 1.391 . S
C1085 C1084 1.386 . S
C1085 C1089 1.393 . S
C1086 H1078 0.950 . S
C1086 C1084 1.391 . S
C1086 C1087 1.400 . S
C1087 C1086 1.400 . S
C1087 C1088 1.398 . S
C1087 C1093 1.491 . S
C1088 H1079 0.950 . S
C1088 C1087 1.398 . S
C1088 C1089 1.391 . S
C1089 H1077 0.950 . S
C1089 C1085 1.393 . S
C1089 C1088 1.391 . S
C1090 H1080 0.950 . S
C1090 C1091 1.386 . S
C1090 C1092 1.391 . S
C1091 C1090 1.386 . S
C1091 C1095 1.393 . S
C1092 H1081 0.950 . S
C1092 C1090 1.391 . S
C1092 C1093 1.400 . S
C1093 C1087 1.491 . S
C1093 C1092 1.400 . S
C1093 C1094 1.398 . S
C1094 H1082 0.950 . S
C1094 C1093 1.398 . S
C1094 C1095 1.391 . S
C1095 H1083 0.950 . S
C1095 C1091 1.393 . S
C1095 C1094 1.391 . S
H1096 C1104 0.950 . S
H1097 C1109 0.950 . S
H1098 C1106 0.950 . S
H1099 C1108 0.950 . S
H1100 C1110 0.950 . S
H1101 C1112 0.950 . S
H1102 C1114 0.950 . S
H1103 C1115 0.950 . S
C1104 H1096 0.950 . S
C1104 C1105 1.386 . S
C1104 C1106 1.391 . S
C1105 C1104 1.386 . S
C1105 C1109 1.393 . S
C1106 H1098 0.950 . S
C1106 C1104 1.391 . S
C1106 C1107 1.400 . S
C1107 C1106 1.400 . S
C1107 C1108 1.398 . S
C1107 C1113 1.491 . S
C1108 H1099 0.950 . S
C1108 C1107 1.398 . S
C1108 C1109 1.391 . S
C1109 H1097 0.950 . S
C1109 C1105 1.393 . S
C1109 C1108 1.391 . S
C1110 H1100 0.950 . S
C1110 C1111 1.386 . S
C1110 C1112 1.391 . S
C1111 C1110 1.386 . S
C1111 C1115 1.393 . S
C1112 H1101 0.950 . S
C1112 C1110 1.391 . S
C1112 C1113 1.400 . S
C1113 C1107 1.491 . S
C1113 C1112 1.400 . S
C1113 C1114 1.398 . S
C1114 H1102 0.950 . S
C1114 C1113 1.398 . S
C1114 C1115 1.391 . S
C1115 H1103 0.950 . S
C1115 C1111 1.393 . S
C1115 C1114 1.391 . S
H1116 C1124 0.950 . S
H1117 C1129 0.950 . S
H1118 C1126 0.950 . S
H1119 C1128 0.950 . S
H1120 C1130 0.950 . S
H1121 C1132 0.950 . S
H1122 C1134 0.950 . S
H1123 C1135 0.950 . S
C1124 H1116 0.950 . S
C1124 C1125 1.386 . S
C1124 C1126 1.391 . S
C1125 C1124 1.386 . S
C1125 C1129 1.393 . S
C1126 H1118 0.950 . S
C1126 C1124 1.391 . S
C1126 C1127 1.400 . S
C1127 C1126 1.400 . S
C1127 C1128 1.398 . S
C1127 C1133 1.491 . S
C1128 H1119 0.950 . S
C1128 C1127 1.398 . S
C1128 C1129 1.391 . S
C1129 H1117 0.950 . S
C1129 C1125 1.393 . S
C1129 C1128 1.391 . S
C1130 H1120 0.950 . S
C1130 C1131 1.386 . S
C1130 C1132 1.391 . S
C1131 C1130 1.386 . S
C1131 C1135 1.393 . S
C1132 H1121 0.950 . S
C1132 C1130 1.391 . S
C1132 C1133 1.400 . S
C1133 C1127 1.491 . S
C1133 C1132 1.400 . S
C1133 C1134 1.398 . S
C1134 H1122 0.950 . S
C1134 C1133 1.398 . S
C1134 C1135 1.391 . S
C1135 H1123 0.950 . S
C1135 C1131 1.393 . S
C1135 C1134 1.391 . S
H1136 C1144 0.950 . S
H1137 C1149 0.950 . S
H1138 C1146 0.950 . S
H1139 C1148 0.950 . S
H1140 C1150 0.950 . S
H1141 C1152 0.950 . S
H1142 C1154 0.950 . S
H1143 C1155 0.950 . S
C1144 H1136 0.950 . S
C1144 C1145 1.386 . S
C1144 C1146 1.391 . S
C1145 C1144 1.386 . S
C1145 C1149 1.393 . S
C1146 H1138 0.950 . S
C1146 C1144 1.391 . S
C1146 C1147 1.400 . S
C1147 C1146 1.400 . S
C1147 C1148 1.398 . S
C1147 C1153 1.491 . S
C1148 H1139 0.950 . S
C1148 C1147 1.398 . S
C1148 C1149 1.391 . S
C1149 H1137 0.950 . S
C1149 C1145 1.393 . S
C1149 C1148 1.391 . S
C1150 H1140 0.950 . S
C1150 C1151 1.386 . S
C1150 C1152 1.391 . S
C1151 C1150 1.386 . S
C1151 C1155 1.393 . S
C1152 H1141 0.950 . S
C1152 C1150 1.391 . S
C1152 C1153 1.400 . S
C1153 C1147 1.491 . S
C1153 C1152 1.400 . S
C1153 C1154 1.398 . S
C1154 H1142 0.950 . S
C1154 C1153 1.398 . S
C1154 C1155 1.391 . S
C1155 H1143 0.950 . S
C1155 C1151 1.393 . S
C1155 C1154 1.391 . S
H1156 C1164 0.950 . S
H1157 C1169 0.950 . S
H1158 C1166 0.950 . S
H1159 C1168 0.950 . S
H1160 C1170 0.950 . S
H1161 C1172 0.950 . S
H1162 C1174 0.950 . S
H1163 C1175 0.950 . S
C1164 H1156 0.950 . S
C1164 C1165 1.386 . S
C1164 C1166 1.391 . S
C1165 C1164 1.386 . S
C1165 C1169 1.393 . S
C1166 H1158 0.950 . S
C1166 C1164 1.391 . S
C1166 C1167 1.400 . S
C1167 C1166 1.400 . S
C1167 C1168 1.398 . S
C1167 C1173 1.491 . S
C1168 H1159 0.950 . S
C1168 C1167 1.398 . S
C1168 C1169 1.391 . S
C1169 H1157 0.950 . S
C1169 C1165 1.393 . S
C1169 C1168 1.391 . S
C1170 H1160 0.950 . S
C1170 C1171 1.386 . S
C1170 C1172 1.391 . S
C1171 C1170 1.386 . S
C1171 C1175 1.393 . S
C1172 H1161 0.950 . S
C1172 C1170 1.391 . S
C1172 C1173 1.400 . S
C1173 C1167 1.491 . S
C1173 C1172 1.400 . S
C1173 C1174 1.398 . S
C1174 H1162 0.950 . S
C1174 C1173 1.398 . S
C1174 C1175 1.391 . S
C1175 H1163 0.950 . S
C1175 C1171 1.393 . S
C1175 C1174 1.391 . S
H1176 C1184 0.950 . S
H1177 C1189 0.950 . S
H1178 C1186 0.950 . S
H1179 C1188 0.950 . S
H1180 C1190 0.950 . S
H1181 C1192 0.950 . S
H1182 C1194 0.950 . S
H1183 C1195 0.950 . S
C1184 H1176 0.950 . S
C1184 C1185 1.386 . S
C1184 C1186 1.391 . S
C1185 C1184 1.386 . S
C1185 C1189 1.393 . S
C1186 H1178 0.950 . S
C1186 C1184 1.391 . S
C1186 C1187 1.400 . S
C1187 C1186 1.400 . S
C1187 C1188 1.398 . S
C1187 C1193 1.491 . S
C1188 H1179 0.950 . S
C1188 C1187 1.398 . S
C1188 C1189 1.391 . S
C1189 H1177 0.950 . S
C1189 C1185 1.393 . S
C1189 C1188 1.391 . S
C1190 H1180 0.950 . S
C1190 C1191 1.386 . S
C1190 C1192 1.391 . S
C1191 C1190 1.386 . S
C1191 C1195 1.393 . S
C1192 H1181 0.950 . S
C1192 C1190 1.391 . S
C1192 C1193 1.400 . S
C1193 C1187 1.491 . S
C1193 C1192 1.400 . S
C1193 C1194 1.398 . S
C1194 H1182 0.950 . S
C1194 C1193 1.398 . S
C1194 C1195 1.391 . S
C1195 H1183 0.950 . S
C1195 C1191 1.393 . S
C1195 C1194 1.391 . S
H1196 C1204 0.950 . S
H1197 C1209 0.950 . S
H1198 C1206 0.950 . S
H1199 C1208 0.950 . S
H1200 C1210 0.950 . S
H1201 C1212 0.950 . S
H1202 C1214 0.950 . S
H1203 C1215 0.950 . S
C1204 H1196 0.950 . S
C1204 C1205 1.386 . S
C1204 C1206 1.391 . S
C1205 C1204 1.386 . S
C1205 C1209 1.393 . S
C1206 H1198 0.950 . S
C1206 C1204 1.391 . S
C1206 C1207 1.400 . S
C1207 C1206 1.400 . S
C1207 C1208 1.398 . S
C1207 C1213 1.491 . S
C1208 H1199 0.950 . S
C1208 C1207 1.398 . S
C1208 C1209 1.391 . S
C1209 H1197 0.950 . S
C1209 C1205 1.393 . S
C1209 C1208 1.391 . S
C1210 H1200 0.950 . S
C1210 C1211 1.386 . S
C1210 C1212 1.391 . S
C1211 C1210 1.386 . S
C1211 C1215 1.393 . S
C1212 H1201 0.950 . S
C1212 C1210 1.391 . S
C1212 C1213 1.400 . S
C1213 C1207 1.491 . S
C1213 C1212 1.400 . S
C1213 C1214 1.398 . S
C1214 H1202 0.950 . S
C1214 C1213 1.398 . S
C1214 C1215 1.391 . S
C1215 H1203 0.950 . S
C1215 C1211 1.393 . S
C1215 C1214 1.391 . S
H1216 C1224 0.950 . S
H1217 C1229 0.950 . S
H1218 C1226 0.950 . S
H1219 C1228 0.950 . S
H1220 C1230 0.950 . S
H1221 C1232 0.950 . S
H1222 C1234 0.950 . S
H1223 C1235 0.950 . S
C1224 H1216 0.950 . S
C1224 C1225 1.386 1_655 S
C1224 C1226 1.391 . S
C1225 C1224 1.386 1_455 S
C1225 C1229 1.393 . S
C1226 H1218 0.950 . S
C1226 C1224 1.391 . S
C1226 C1227 1.400 1_655 S
C1227 C1226 1.400 1_455 S
C1227 C1228 1.398 . S
C1227 C1233 1.491 . S
C1228 H1219 0.950 . S
C1228 C1227 1.398 . S
C1228 C1229 1.391 . S
C1229 H1217 0.950 . S
C1229 C1225 1.393 . S
C1229 C1228 1.391 . S
C1230 H1220 0.950 . S
C1230 C1231 1.386 . S
C1230 C1232 1.391 . S
C1231 C1230 1.386 . S
C1231 C1235 1.393 1_455 S
C1232 H1221 0.950 . S
C1232 C1230 1.391 . S
C1232 C1233 1.400 . S
C1233 C1227 1.491 . S
C1233 C1232 1.400 . S
C1233 C1234 1.398 1_455 S
C1234 H1222 0.950 . S
C1234 C1233 1.398 1_655 S
C1234 C1235 1.391 . S
C1235 H1223 0.950 . S
C1235 C1231 1.393 1_655 S
C1235 C1234 1.391 . S
H1236 C1244 0.950 . S
H1237 C1249 0.950 . S
H1238 C1246 0.950 . S
H1239 C1248 0.950 . S
H1240 C1250 0.950 . S
H1241 C1252 0.950 . S
H1242 C1254 0.950 . S
H1243 C1255 0.950 . S
C1244 H1236 0.950 . S
C1244 C1245 1.386 . S
C1244 C1246 1.391 . S
C1245 C1244 1.386 . S
C1245 C1249 1.393 . S
C1246 H1238 0.950 . S
C1246 C1244 1.391 . S
C1246 C1247 1.400 . S
C1247 C1246 1.400 . S
C1247 C1248 1.398 . S
C1247 C1253 1.491 . S
C1248 H1239 0.950 . S
C1248 C1247 1.398 . S
C1248 C1249 1.391 . S
C1249 H1237 0.950 . S
C1249 C1245 1.393 . S
C1249 C1248 1.391 . S
C1250 H1240 0.950 . S
C1250 C1251 1.386 . S
C1250 C1252 1.391 . S
C1251 C1250 1.386 . S
C1251 C1255 1.393 . S
C1252 H1241 0.950 . S
C1252 C1250 1.391 . S
C1252 C1253 1.400 . S
C1253 C1247 1.491 . S
C1253 C1252 1.400 . S
C1253 C1254 1.398 . S
C1254 H1242 0.950 . S
C1254 C1253 1.398 . S
C1254 C1255 1.391 . S
C1255 H1243 0.950 . S
C1255 C1251 1.393 . S
C1255 C1254 1.391 . S
H1256 C1264 0.950 . S
H1257 C1269 0.950 . S
H1258 C1266 0.950 . S
H1259 C1268 0.950 . S
H1260 C1270 0.950 . S
H1261 C1272 0.950 . S
H1262 C1274 0.950 . S
H1263 C1275 0.924 1_554 S
C1264 H1256 0.950 . S
C1264 C1265 1.386 . S
C1264 C1266 1.391 . S
C1265 C1264 1.386 . S
C1265 C1269 1.393 . S
C1266 H1258 0.950 . S
C1266 C1264 1.391 . S
C1266 C1267 1.400 . S
C1267 C1266 1.400 . S
C1267 C1268 1.398 . S
C1267 C1273 1.491 . S
C1268 H1259 0.950 . S
C1268 C1267 1.398 . S
C1268 C1269 1.391 . S
C1269 H1257 0.950 . S
C1269 C1265 1.393 . S
C1269 C1268 1.391 . S
C1270 H1260 0.950 . S
C1270 C1271 1.386 . S
C1270 C1272 1.391 . S
C1271 C1270 1.386 . S
C1271 C1275 1.401 . S
C1272 H1261 0.950 . S
C1272 C1270 1.391 . S
C1272 C1273 1.400 . S
C1273 C1267 1.491 . S
C1273 C1272 1.400 . S
C1273 C1274 1.398 . S
C1274 H1262 0.950 . S
C1274 C1273 1.398 . S
C1274 C1275 1.409 . S
C1275 H1263 0.924 1_556 S
C1275 C1271 1.401 . S
C1275 C1274 1.409 . S
H1276 C1284 0.950 . S
H1277 C1289 0.950 . S
H1278 C1286 0.950 . S
H1279 C1288 0.950 . S
H1280 C1290 0.950 . S
H1281 C1292 0.950 . S
H1282 C1294 0.950 . S
H1283 C1295 0.950 . S
C1284 H1276 0.950 . S
C1284 C1285 1.386 . S
C1284 C1286 1.391 . S
C1285 C1284 1.386 . S
C1285 C1289 1.393 . S
C1286 H1278 0.950 . S
C1286 C1284 1.391 . S
C1286 C1287 1.400 . S
C1287 C1286 1.400 . S
C1287 C1288 1.398 . S
C1287 C1293 1.491 . S
C1288 H1279 0.950 . S
C1288 C1287 1.398 . S
C1288 C1289 1.391 . S
C1289 H1277 0.950 . S
C1289 C1285 1.393 . S
C1289 C1288 1.391 . S
C1290 H1280 0.950 . S
C1290 C1291 1.386 . S
C1290 C1292 1.391 . S
C1291 C1290 1.386 . S
C1291 C1295 1.393 . S
C1292 H1281 0.950 . S
C1292 C1290 1.391 . S
C1292 C1293 1.400 . S
C1293 C1287 1.491 . S
C1293 C1292 1.400 . S
C1293 C1294 1.398 . S
C1294 H1282 0.950 . S
C1294 C1293 1.398 . S
C1294 C1295 1.391 . S
C1295 H1283 0.950 . S
C1295 C1291 1.393 . S
C1295 C1294 1.391 . S
H1296 C1304 0.950 1_565 S
H1297 C1309 0.950 . S
H1298 C1306 0.950 1_565 S
H1299 C1308 0.950 . S
H1300 C1310 0.950 . S
H1301 C1312 0.950 . S
H1302 C1314 0.950 . S
H1303 C1315 0.950 . S
C1304 H1296 0.950 1_545 S
C1304 C1305 1.386 . S
C1304 C1306 1.391 . S
C1305 C1304 1.386 . S
C1305 C1309 1.393 . S
C1306 H1298 0.950 1_545 S
C1306 C1304 1.391 . S
C1306 C1307 1.400 . S
C1307 C1306 1.400 . S
C1307 C1308 1.398 . S
C1307 C1313 1.491 . S
C1308 H1299 0.950 . S
C1308 C1307 1.398 . S
C1308 C1309 1.391 . S
C1309 H1297 0.950 . S
C1309 C1305 1.393 . S
C1309 C1308 1.391 . S
C1310 H1300 0.950 . S
C1310 C1311 1.386 . S
C1310 C1312 1.391 . S
C1311 C1310 1.386 . S
C1311 C1315 1.393 . S
C1312 H1301 0.950 . S
C1312 C1310 1.391 . S
C1312 C1313 1.400 . S
C1313 C1307 1.491 . S
C1313 C1312 1.400 . S
C1313 C1314 1.398 . S
C1314 H1302 0.950 . S
C1314 C1313 1.398 . S
C1314 C1315 1.391 . S
C1315 H1303 0.950 . S
C1315 C1311 1.393 . S
C1315 C1314 1.391 . S
H1316 C1324 0.950 . S
H1317 C1329 0.950 . S
H1318 C1326 0.950 . S
H1319 C1328 0.950 . S
H1320 C1330 0.950 . S
H1321 C1332 0.950 . S
H1322 C1334 0.950 . S
H1323 C1335 0.950 . S
C1324 H1316 0.950 . S
C1324 C1325 1.386 . S
C1324 C1326 1.391 . S
C1325 C1324 1.386 . S
C1325 C1329 1.393 . S
C1326 H1318 0.950 . S
C1326 C1324 1.391 . S
C1326 C1327 1.400 . S
C1327 C1326 1.400 . S
C1327 C1328 1.398 . S
C1327 C1333 1.491 . S
C1328 H1319 0.950 . S
C1328 C1327 1.398 . S
C1328 C1329 1.391 . S
C1329 H1317 0.950 . S
C1329 C1325 1.393 . S
C1329 C1328 1.391 . S
C1330 H1320 0.950 . S
C1330 C1331 1.386 . S
C1330 C1332 1.391 . S
C1331 C1330 1.386 . S
C1331 C1335 1.393 . S
C1332 H1321 0.950 . S
C1332 C1330 1.391 . S
C1332 C1333 1.400 . S
C1333 C1327 1.491 . S
C1333 C1332 1.400 . S
C1333 C1334 1.398 . S
C1334 H1322 0.950 . S
C1334 C1333 1.398 . S
C1334 C1335 1.391 . S
C1335 H1323 0.950 . S
C1335 C1331 1.393 . S
C1335 C1334 1.391 . S
H1336 C1344 0.950 . S
H1337 C1349 0.950 . S
H1338 C1346 0.950 . S
H1339 C1348 0.950 . S
H1340 C1350 0.950 . S
H1341 C1352 0.950 . S
H1342 C1354 0.950 . S
H1343 C1355 0.950 . S
C1344 H1336 0.950 . S
C1344 C1345 1.386 . S
C1344 C1346 1.391 . S
C1345 C1344 1.386 . S
C1345 C1349 1.393 . S
C1346 H1338 0.950 . S
C1346 C1344 1.391 . S
C1346 C1347 1.400 . S
C1347 C1346 1.400 . S
C1347 C1348 1.398 . S
C1347 C1353 1.491 . S
C1348 H1339 0.950 . S
C1348 C1347 1.398 . S
C1348 C1349 1.391 . S
C1349 H1337 0.950 . S
C1349 C1345 1.393 . S
C1349 C1348 1.391 . S
C1350 H1340 0.950 . S
C1350 C1351 1.386 . S
C1350 C1352 1.391 . S
C1351 C1350 1.386 . S
C1351 C1355 1.393 . S
C1352 H1341 0.950 . S
C1352 C1350 1.391 . S
C1352 C1353 1.400 . S
C1353 C1347 1.491 . S
C1353 C1352 1.400 . S
C1353 C1354 1.398 . S
C1354 H1342 0.950 . S
C1354 C1353 1.398 . S
C1354 C1355 1.391 . S
C1355 H1343 0.950 . S
C1355 C1351 1.393 . S
C1355 C1354 1.391 . S
H1356 C1364 0.950 . S
H1357 C1369 0.950 . S
H1358 C1366 0.950 . S
H1359 C1368 0.950 . S
H1360 C1370 0.950 . S
H1361 C1372 0.950 . S
H1362 C1374 0.950 . S
H1363 C1375 0.950 . S
C1364 H1356 0.950 . S
C1364 C1365 1.386 . S
C1364 C1366 1.391 . S
C1365 C1364 1.386 . S
C1365 C1369 1.393 . S
C1366 H1358 0.950 . S
C1366 C1364 1.391 . S
C1366 C1367 1.400 . S
C1367 C1366 1.400 . S
C1367 C1368 1.398 . S
C1367 C1373 1.491 . S
C1368 H1359 0.950 . S
C1368 C1367 1.398 . S
C1368 C1369 1.391 . S
C1369 H1357 0.950 . S
C1369 C1365 1.393 . S
C1369 C1368 1.391 . S
C1370 H1360 0.950 . S
C1370 C1371 1.386 . S
C1370 C1372 1.391 . S
C1371 C1370 1.386 . S
C1371 C1375 1.393 . S
C1372 H1361 0.950 . S
C1372 C1370 1.391 . S
C1372 C1373 1.400 . S
C1373 C1367 1.491 . S
C1373 C1372 1.400 . S
C1373 C1374 1.398 . S
C1374 H1362 0.950 . S
C1374 C1373 1.398 . S
C1374 C1375 1.391 . S
C1375 H1363 0.950 . S
C1375 C1371 1.393 . S
C1375 C1374 1.391 . S
H1376 C1384 0.950 . S
H1377 C1389 0.950 . S
H1378 C1386 0.950 . S
H1379 C1388 0.950 . S
H1380 C1390 0.950 . S
H1381 C1392 0.950 . S
H1382 C1394 0.950 . S
H1383 C1395 0.950 1_565 S
C1384 H1376 0.950 . S
C1384 C1385 1.359 1_565 S
C1384 C1386 1.391 . S
C1385 C1384 1.359 1_545 S
C1385 C1389 1.440 . S
C1386 H1378 0.950 . S
C1386 C1384 1.391 . S
C1386 C1387 1.400 1_565 S
C1387 C1386 1.400 1_545 S
C1387 C1388 1.398 . S
C1387 C1393 1.491 . S
C1388 H1379 0.950 . S
C1388 C1387 1.398 . S
C1388 C1389 1.391 . S
C1389 H1377 0.950 . S
C1389 C1385 1.440 . S
C1389 C1388 1.391 . S
C1390 H1380 0.950 . S
C1390 C1391 1.386 . S
C1390 C1392 1.391 . S
C1391 C1390 1.386 . S
C1391 C1395 1.393 . S
C1392 H1381 0.950 . S
C1392 C1390 1.391 . S
C1392 C1393 1.400 . S
C1393 C1387 1.491 . S
C1393 C1392 1.400 . S
C1393 C1394 1.398 1_545 S
C1394 H1382 0.950 . S
C1394 C1393 1.398 1_565 S
C1394 C1395 1.391 1_565 S
C1395 H1383 0.950 1_545 S
C1395 C1391 1.393 . S
C1395 C1394 1.391 1_545 S
H1396 C1404 0.950 . S
H1397 C1409 0.950 . S
H1398 C1406 0.950 . S
H1399 C1408 0.950 . S
H1400 C1410 0.950 . S
H1401 C1412 0.950 . S
H1402 C1414 0.950 . S
H1403 C1415 0.950 . S
C1404 H1396 0.950 . S
C1404 C1405 1.386 . S
C1404 C1406 1.391 . S
C1405 C1404 1.386 . S
C1405 C1409 1.393 . S
C1406 H1398 0.950 . S
C1406 C1404 1.391 . S
C1406 C1407 1.400 . S
C1407 C1406 1.400 . S
C1407 C1408 1.398 . S
C1407 C1413 1.491 . S
C1408 H1399 0.950 . S
C1408 C1407 1.398 . S
C1408 C1409 1.391 . S
C1409 H1397 0.950 . S
C1409 C1405 1.393 . S
C1409 C1408 1.391 . S
C1410 H1400 0.950 . S
C1410 C1411 1.386 . S
C1410 C1412 1.391 . S
C1411 C1410 1.386 . S
C1411 C1415 1.393 . S
C1412 H1401 0.950 . S
C1412 C1410 1.391 . S
C1412 C1413 1.400 . S
C1413 C1407 1.491 . S
C1413 C1412 1.400 . S
C1413 C1414 1.398 . S
C1414 H1402 0.950 . S
C1414 C1413 1.398 . S
C1414 C1415 1.391 . S
C1415 H1403 0.950 . S
C1415 C1411 1.393 . S
C1415 C1414 1.391 . S
H1416 C1424 0.950 . S
H1417 C1429 0.950 . S
H1418 C1426 0.950 . S
H1419 C1428 0.950 . S
H1420 C1430 0.950 1_565 S
H1421 C1432 0.950 . S
H1422 C1434 0.950 . S
H1423 C1435 0.950 . S
C1424 H1416 0.950 . S
C1424 C1425 1.386 . S
C1424 C1426 1.391 . S
C1425 C1424 1.386 . S
C1425 C1429 1.393 . S
C1426 H1418 0.950 . S
C1426 C1424 1.391 . S
C1426 C1427 1.400 . S
C1427 C1426 1.400 . S
C1427 C1428 1.398 . S
C1427 C1433 1.491 . S
C1428 H1419 0.950 . S
C1428 C1427 1.398 . S
C1428 C1429 1.391 . S
C1429 H1417 0.950 . S
C1429 C1425 1.393 . S
C1429 C1428 1.391 . S
C1430 H1420 0.950 1_545 S
C1430 C1431 1.386 . S
C1430 C1432 1.391 . S
C1431 C1430 1.386 . S
C1431 C1435 1.393 . S
C1432 H1421 0.950 . S
C1432 C1430 1.391 . S
C1432 C1433 1.400 . S
C1433 C1427 1.491 . S
C1433 C1432 1.400 . S
C1433 C1434 1.398 . S
C1434 H1422 0.950 . S
C1434 C1433 1.398 . S
C1434 C1435 1.391 . S
C1435 H1423 0.950 . S
C1435 C1431 1.393 . S
C1435 C1434 1.391 . S
H1436 C1444 0.950 . S
H1437 C1449 0.950 . S
H1438 C1446 0.950 . S
H1439 C1448 0.950 . S
H1440 C1450 0.950 . S
H1441 C1452 0.950 . S
H1442 C1454 0.950 . S
H1443 C1455 0.950 . S
C1444 H1436 0.950 . S
C1444 C1445 1.386 . S
C1444 C1446 1.391 . S
C1445 C1444 1.386 . S
C1445 C1449 1.393 . S
C1446 H1438 0.950 . S
C1446 C1444 1.391 . S
C1446 C1447 1.400 . S
C1447 C1446 1.400 . S
C1447 C1448 1.398 . S
C1447 C1453 1.491 . S
C1448 H1439 0.950 . S
C1448 C1447 1.398 . S
C1448 C1449 1.391 . S
C1449 H1437 0.950 . S
C1449 C1445 1.393 . S
C1449 C1448 1.391 . S
C1450 H1440 0.950 . S
C1450 C1451 1.386 . S
C1450 C1452 1.391 . S
C1451 C1450 1.386 . S
C1451 C1455 1.393 . S
C1452 H1441 0.950 . S
C1452 C1450 1.391 . S
C1452 C1453 1.400 . S
C1453 C1447 1.491 . S
C1453 C1452 1.400 . S
C1453 C1454 1.398 . S
C1454 H1442 0.950 . S
C1454 C1453 1.398 . S
C1454 C1455 1.391 . S
C1455 H1443 0.950 . S
C1455 C1451 1.393 . S
C1455 C1454 1.391 . S
H1456 C1464 0.950 . S
H1457 C1469 0.950 . S
H1458 C1466 0.950 . S
H1459 C1468 0.950 . S
H1460 C1470 0.950 . S
H1461 C1472 0.950 . S
H1462 C1474 0.950 . S
H1463 C1475 0.950 . S
C1464 H1456 0.950 . S
C1464 C1465 1.386 1_556 S
C1464 C1466 1.391 . S
C1465 C1464 1.386 1_554 S
C1465 C1469 1.393 . S
C1466 H1458 0.950 . S
C1466 C1464 1.391 . S
C1466 C1467 1.400 1_556 S
C1467 C1466 1.400 1_554 S
C1467 C1468 1.398 . S
C1467 C1473 1.485 1_554 S
C1468 H1459 0.950 . S
C1468 C1467 1.398 . S
C1468 C1469 1.391 . S
C1469 H1457 0.950 . S
C1469 C1465 1.393 . S
C1469 C1468 1.391 . S
C1470 H1460 0.950 . S
C1470 C1471 1.386 1_554 S
C1470 C1472 1.391 . S
C1471 C1470 1.386 1_556 S
C1471 C1475 1.393 . S
C1472 H1461 0.950 . S
C1472 C1470 1.391 . S
C1472 C1473 1.370 1_554 S
C1473 C1467 1.485 1_556 S
C1473 C1472 1.370 1_556 S
C1473 C1474 1.436 . S
C1474 H1462 0.950 . S
C1474 C1473 1.436 . S
C1474 C1475 1.391 . S
C1475 H1463 0.950 . S
C1475 C1471 1.393 . S
C1475 C1474 1.391 . S
H1476 C1484 0.950 . S
H1477 C1489 0.950 . S
H1478 C1486 0.950 . S
H1479 C1488 0.950 . S
H1480 C1490 0.950 . S
H1481 C1492 0.950 . S
H1482 C1494 0.950 . S
H1483 C1495 0.950 . S
C1484 H1476 0.950 . S
C1484 C1485 1.386 . S
C1484 C1486 1.391 . S
C1485 C1484 1.386 . S
C1485 C1489 1.393 . S
C1486 H1478 0.950 . S
C1486 C1484 1.391 . S
C1486 C1487 1.400 . S
C1487 C1486 1.400 . S
C1487 C1488 1.398 . S
C1487 C1493 1.491 . S
C1488 H1479 0.950 . S
C1488 C1487 1.398 . S
C1488 C1489 1.391 . S
C1489 H1477 0.950 . S
C1489 C1485 1.393 . S
C1489 C1488 1.391 . S
C1490 H1480 0.950 . S
C1490 C1491 1.386 . S
C1490 C1492 1.391 . S
C1491 C1490 1.386 . S
C1491 C1495 1.393 . S
C1492 H1481 0.950 . S
C1492 C1490 1.391 . S
C1492 C1493 1.400 . S
C1493 C1487 1.491 . S
C1493 C1492 1.400 . S
C1493 C1494 1.398 . S
C1494 H1482 0.950 . S
C1494 C1493 1.398 . S
C1494 C1495 1.391 . S
C1495 H1483 0.950 . S
C1495 C1491 1.393 . S
C1495 C1494 1.391 . S
H1496 C1504 0.950 . S
H1497 C1509 0.950 . S
H1498 C1506 0.950 . S
H1499 C1508 0.950 . S
H1500 C1510 0.950 . S
H1501 C1512 0.950 . S
H1502 C1514 0.950 . S
H1503 C1515 0.950 . S
C1504 H1496 0.950 . S
C1504 C1505 1.386 . S
C1504 C1506 1.391 . S
C1505 C1504 1.386 . S
C1505 C1509 1.393 . S
C1506 H1498 0.950 . S
C1506 C1504 1.391 . S
C1506 C1507 1.400 . S
C1507 C1506 1.400 . S
C1507 C1508 1.398 . S
C1507 C1513 1.491 . S
C1508 H1499 0.950 . S
C1508 C1507 1.398 . S
C1508 C1509 1.391 . S
C1509 H1497 0.950 . S
C1509 C1505 1.393 . S
C1509 C1508 1.391 . S
C1510 H1500 0.950 . S
C1510 C1511 1.386 . S
C1510 C1512 1.391 . S
C1511 C1510 1.386 . S
C1511 C1515 1.393 . S
C1512 H1501 0.950 . S
C1512 C1510 1.391 . S
C1512 C1513 1.400 . S
C1513 C1507 1.491 . S
C1513 C1512 1.400 . S
C1513 C1514 1.398 . S
C1514 H1502 0.950 . S
C1514 C1513 1.398 . S
C1514 C1515 1.391 . S
C1515 H1503 0.950 . S
C1515 C1511 1.393 . S
C1515 C1514 1.391 . S
H1516 C1524 0.950 . S
H1517 C1529 0.950 . S
H1518 C1526 0.950 . S
H1519 C1528 0.950 . S
H1520 C1530 0.950 . S
H1521 C1532 0.950 . S
H1522 C1534 0.950 . S
H1523 C1535 0.950 . S
C1524 H1516 0.950 . S
C1524 C1525 1.386 . S
C1524 C1526 1.391 . S
C1525 C1524 1.386 . S
C1525 C1529 1.393 . S
C1526 H1518 0.950 . S
C1526 C1524 1.391 . S
C1526 C1527 1.400 . S
C1527 C1526 1.400 . S
C1527 C1528 1.398 . S
C1527 C1533 1.491 . S
C1528 H1519 0.950 . S
C1528 C1527 1.398 . S
C1528 C1529 1.391 . S
C1529 H1517 0.950 . S
C1529 C1525 1.393 . S
C1529 C1528 1.391 . S
C1530 H1520 0.950 . S
C1530 C1531 1.386 . S
C1530 C1532 1.391 . S
C1531 C1530 1.386 . S
C1531 C1535 1.393 . S
C1532 H1521 0.950 . S
C1532 C1530 1.391 . S
C1532 C1533 1.400 . S
C1533 C1527 1.491 . S
C1533 C1532 1.400 . S
C1533 C1534 1.398 . S
C1534 H1522 0.950 . S
C1534 C1533 1.398 . S
C1534 C1535 1.391 . S
C1535 H1523 0.950 . S
C1535 C1531 1.393 . S
C1535 C1534 1.391 . S
H1536 C1544 0.950 . S
H1537 C1549 0.950 . S
H1538 C1546 0.950 . S
H1539 C1548 0.950 . S
H1540 C1550 0.950 . S
H1541 C1552 0.950 . S
H1542 C1554 0.950 . S
H1543 C1555 0.950 . S
C1544 H1536 0.950 . S
C1544 C1545 1.386 . S
C1544 C1546 1.391 . S
C1545 C1544 1.386 . S
C1545 C1549 1.393 . S
C1546 H1538 0.950 . S
C1546 C1544 1.391 . S
C1546 C1547 1.400 . S
C1547 C1546 1.400 . S
C1547 C1548 1.398 . S
C1547 C1553 1.491 . S
C1548 H1539 0.950 . S
C1548 C1547 1.398 . S
C1548 C1549 1.391 . S
C1549 H1537 0.950 . S
C1549 C1545 1.393 . S
C1549 C1548 1.391 . S
C1550 H1540 0.950 . S
C1550 C1551 1.386 . S
C1550 C1552 1.391 . S
C1551 C1550 1.386 . S
C1551 C1555 1.393 . S
C1552 H1541 0.950 . S
C1552 C1550 1.391 . S
C1552 C1553 1.400 . S
C1553 C1547 1.491 . S
C1553 C1552 1.400 . S
C1553 C1554 1.398 . S
C1554 H1542 0.950 . S
C1554 C1553 1.398 . S
C1554 C1555 1.391 . S
C1555 H1543 0.950 . S
C1555 C1551 1.393 . S
C1555 C1554 1.391 . S
H1556 C1564 0.950 . S
H1557 C1569 0.950 . S
H1558 C1566 0.950 . S
H1559 C1568 0.950 . S
H1560 C1570 0.958 . S
H1561 C1572 0.950 . S
H1562 C1574 0.950 . S
H1563 C1575 0.950 . S
C1564 H1556 0.950 . S
C1564 C1565 1.386 . S
C1564 C1566 1.391 . S
C1565 C1564 1.386 . S
C1565 C1569 1.393 . S
C1566 H1558 0.950 . S
C1566 C1564 1.391 . S
C1566 C1567 1.400 . S
C1567 C1566 1.400 . S
C1567 C1568 1.398 . S
C1567 C1573 1.491 . S
C1568 H1559 0.950 . S
C1568 C1567 1.398 . S
C1568 C1569 1.391 . S
C1569 H1557 0.950 . S
C1569 C1565 1.393 . S
C1569 C1568 1.391 . S
C1570 H1560 0.958 . S
C1570 C1571 1.386 . S
C1570 C1572 1.391 . S
C1571 C1570 1.386 . S
C1571 C1575 1.393 . S
C1572 H1561 0.950 . S
C1572 C1570 1.391 . S
C1572 C1573 1.400 . S
C1573 C1567 1.491 . S
C1573 C1572 1.400 . S
C1573 C1574 1.398 . S
C1574 H1562 0.950 . S
C1574 C1573 1.398 . S
C1574 C1575 1.391 . S
C1575 H1563 0.950 . S
C1575 C1571 1.393 . S
C1575 C1574 1.391 . S
H1576 C1584 0.950 . S
H1577 C1589 0.950 . S
H1578 C1586 0.950 . S
H1579 C1588 0.950 . S
H1580 C1590 0.950 . S
H1581 C1592 0.950 . S
H1582 C1594 0.950 . S
H1583 C1595 0.950 . S
C1584 H1576 0.950 . S
C1584 C1585 1.386 . S
C1584 C1586 1.391 . S
C1585 C1584 1.386 . S
C1585 C1589 1.393 . S
C1586 H1578 0.950 . S
C1586 C1584 1.391 . S
C1586 C1587 1.400 . S
C1587 C1586 1.400 . S
C1587 C1588 1.398 . S
C1587 C1593 1.491 . S
C1588 H1579 0.950 . S
C1588 C1587 1.398 . S
C1588 C1589 1.391 . S
C1589 H1577 0.950 . S
C1589 C1585 1.393 . S
C1589 C1588 1.391 . S
C1590 H1580 0.950 . S
C1590 C1591 1.386 . S
C1590 C1592 1.391 . S
C1591 C1590 1.386 . S
C1591 C1595 1.393 . S
C1592 H1581 0.950 . S
C1592 C1590 1.391 . S
C1592 C1593 1.400 . S
C1593 C1587 1.491 . S
C1593 C1592 1.400 . S
C1593 C1594 1.398 . S
C1594 H1582 0.950 . S
C1594 C1593 1.398 . S
C1594 C1595 1.391 . S
C1595 H1583 0.950 . S
C1595 C1591 1.393 . S
C1595 C1594 1.391 . S
H1596 C1604 0.950 . S
H1597 C1609 0.950 . S
H1598 C1606 0.950 . S
H1599 C1608 0.950 . S
H1600 C1610 0.950 . S
H1601 C1612 0.950 . S
H1602 C1614 0.950 . S
H1603 C1615 0.950 . S
C1604 H1596 0.950 . S
C1604 C1605 1.386 . S
C1604 C1606 1.391 . S
C1605 C1604 1.386 . S
C1605 C1609 1.393 . S
C1606 H1598 0.950 . S
C1606 C1604 1.391 . S
C1606 C1607 1.400 . S
C1607 C1606 1.400 . S
C1607 C1608 1.398 . S
C1607 C1613 1.491 . S
C1608 H1599 0.950 . S
C1608 C1607 1.398 . S
C1608 C1609 1.391 . S
C1609 H1597 0.950 . S
C1609 C1605 1.393 . S
C1609 C1608 1.391 . S
C1610 H1600 0.950 . S
C1610 C1611 1.386 . S
C1610 C1612 1.391 . S
C1611 C1610 1.386 . S
C1611 C1615 1.393 . S
C1612 H1601 0.950 . S
C1612 C1610 1.391 . S
C1612 C1613 1.400 . S
C1613 C1607 1.491 . S
C1613 C1612 1.400 . S
C1613 C1614 1.398 . S
C1614 H1602 0.950 . S
C1614 C1613 1.398 . S
C1614 C1615 1.391 . S
C1615 H1603 0.950 . S
C1615 C1611 1.393 . S
C1615 C1614 1.391 . S
H1616 C1624 0.950 . S
H1617 C1629 0.950 . S
H1618 C1626 0.950 . S
H1619 C1628 0.950 . S
H1620 C1630 0.950 . S
H1621 C1632 0.950 . S
H1622 C1634 0.950 . S
H1623 C1635 0.950 . S
C1624 H1616 0.950 . S
C1624 C1625 1.386 . S
C1624 C1626 1.391 . S
C1625 C1624 1.386 . S
C1625 C1629 1.393 . S
C1626 H1618 0.950 . S
C1626 C1624 1.391 . S
C1626 C1627 1.400 . S
C1627 C1626 1.400 . S
C1627 C1628 1.398 . S
C1627 C1633 1.491 . S
C1628 H1619 0.950 . S
C1628 C1627 1.398 . S
C1628 C1629 1.391 . S
C1629 H1617 0.950 . S
C1629 C1625 1.393 . S
C1629 C1628 1.391 . S
C1630 H1620 0.950 . S
C1630 C1631 1.386 . S
C1630 C1632 1.391 . S
C1631 C1630 1.386 . S
C1631 C1635 1.393 . S
C1632 H1621 0.950 . S
C1632 C1630 1.391 . S
C1632 C1633 1.400 . S
C1633 C1627 1.491 . S
C1633 C1632 1.400 . S
C1633 C1634 1.398 . S
C1634 H1622 0.950 . S
C1634 C1633 1.398 . S
C1634 C1635 1.391 . S
C1635 H1623 0.950 . S
C1635 C1631 1.393 . S
C1635 C1634 1.391 . S
H1636 C1644 0.950 . S
H1637 C1649 0.950 . S
H1638 C1646 0.950 . S
H1639 C1648 0.950 . S
H1640 C1650 0.950 . S
H1641 C1652 0.950 . S
H1642 C1654 0.950 . S
H1643 C1655 0.950 . S
C1644 H1636 0.950 . S
C1644 C1645 1.386 . S
C1644 C1646 1.391 . S
C1645 C1644 1.386 . S
C1645 C1649 1.393 . S
C1646 H1638 0.950 . S
C1646 C1644 1.391 . S
C1646 C1647 1.400 . S
C1647 C1646 1.400 . S
C1647 C1648 1.398 . S
C1647 C1653 1.491 . S
C1648 H1639 0.950 . S
C1648 C1647 1.398 . S
C1648 C1649 1.391 . S
C1649 H1637 0.950 . S
C1649 C1645 1.393 . S
C1649 C1648 1.391 . S
C1650 H1640 0.950 . S
C1650 C1651 1.386 . S
C1650 C1652 1.391 . S
C1651 C1650 1.386 . S
C1651 C1655 1.393 . S
C1652 H1641 0.950 . S
C1652 C1650 1.391 . S
C1652 C1653 1.400 . S
C1653 C1647 1.491 . S
C1653 C1652 1.400 . S
C1653 C1654 1.398 . S
C1654 H1642 0.950 . S
C1654 C1653 1.398 . S
C1654 C1655 1.391 . S
C1655 H1643 0.950 . S
C1655 C1651 1.393 . S
C1655 C1654 1.391 . S
H1656 C1664 0.950 . S
H1657 C1669 0.950 . S
H1658 C1666 0.950 . S
H1659 C1668 0.950 . S
H1660 C1670 0.950 . S
H1661 C1672 0.950 . S
H1662 C1674 0.943 . S
H1663 C1675 0.950 . S
C1664 H1656 0.950 . S
C1664 C1665 1.386 1_655 S
C1664 C1666 1.391 . S
C1665 C1664 1.386 1_455 S
C1665 C1669 1.393 . S
C1666 H1658 0.950 . S
C1666 C1664 1.391 . S
C1666 C1667 1.400 1_655 S
C1667 C1666 1.400 1_455 S
C1667 C1668 1.398 . S
C1667 C1673 1.491 . S
C1668 H1659 0.950 . S
C1668 C1667 1.398 . S
C1668 C1669 1.391 . S
C1669 H1657 0.950 . S
C1669 C1665 1.393 . S
C1669 C1668 1.391 . S
C1670 H1660 0.950 . S
C1670 C1671 1.386 1_556 S
C1670 C1672 1.391 . S
C1671 C1670 1.386 1_554 S
C1671 C1675 1.393 1_455 S
C1672 H1661 0.950 . S
C1672 C1670 1.391 . S
C1672 C1673 1.400 . S
C1673 C1667 1.491 . S
C1673 C1672 1.400 . S
C1673 C1674 1.396 1_456 S
C1674 H1662 0.943 . S
C1674 C1673 1.396 1_654 S
C1674 C1675 1.393 . S
C1675 H1663 0.950 . S
C1675 C1671 1.393 1_655 S
C1675 C1674 1.393 . S
H1676 C1684 0.950 . S
H1677 C1689 0.950 . S
H1678 C1686 0.950 . S
H1679 C1688 0.950 . S
H1680 C1690 0.950 . S
H1681 C1692 0.950 . S
H1682 C1694 0.950 . S
H1683 C1695 0.950 . S
C1684 H1676 0.950 . S
C1684 C1685 1.386 . S
C1684 C1686 1.391 . S
C1685 C1684 1.386 . S
C1685 C1689 1.393 . S
C1686 H1678 0.950 . S
C1686 C1684 1.391 . S
C1686 C1687 1.400 . S
C1687 C1686 1.400 . S
C1687 C1688 1.398 . S
C1687 C1693 1.491 . S
C1688 H1679 0.950 . S
C1688 C1687 1.398 . S
C1688 C1689 1.391 . S
C1689 H1677 0.950 . S
C1689 C1685 1.393 . S
C1689 C1688 1.391 . S
C1690 H1680 0.950 . S
C1690 C1691 1.386 . S
C1690 C1692 1.391 . S
C1691 C1690 1.386 . S
C1691 C1695 1.393 . S
C1692 H1681 0.950 . S
C1692 C1690 1.391 . S
C1692 C1693 1.400 . S
C1693 C1687 1.491 . S
C1693 C1692 1.400 . S
C1693 C1694 1.398 . S
C1694 H1682 0.950 . S
C1694 C1693 1.398 . S
C1694 C1695 1.391 . S
C1695 H1683 0.950 . S
C1695 C1691 1.393 . S
C1695 C1694 1.391 . S
H1696 C1704 0.950 . S
H1697 C1709 0.950 . S
H1698 C1706 0.950 . S
H1699 C1708 0.950 . S
H1700 C1710 0.950 . S
H1701 C1712 0.950 . S
H1702 C1714 0.950 . S
H1703 C1715 0.950 . S
C1704 H1696 0.950 . S
C1704 C1705 1.386 . S
C1704 C1706 1.391 . S
C1705 C1704 1.386 . S
C1705 C1709 1.393 . S
C1706 H1698 0.950 . S
C1706 C1704 1.391 . S
C1706 C1707 1.400 . S
C1707 C1706 1.400 . S
C1707 C1708 1.398 . S
C1707 C1713 1.491 . S
C1708 H1699 0.950 . S
C1708 C1707 1.398 . S
C1708 C1709 1.391 . S
C1709 H1697 0.950 . S
C1709 C1705 1.393 . S
C1709 C1708 1.391 . S
C1710 H1700 0.950 . S
C1710 C1711 1.386 . S
C1710 C1712 1.391 . S
C1711 C1710 1.386 . S
C1711 C1715 1.393 . S
C1712 H1701 0.950 . S
C1712 C1710 1.391 . S
C1712 C1713 1.400 . S
C1713 C1707 1.491 . S
C1713 C1712 1.400 . S
C1713 C1714 1.398 . S
C1714 H1702 0.950 . S
C1714 C1713 1.398 . S
C1714 C1715 1.391 . S
C1715 H1703 0.950 . S
C1715 C1711 1.393 . S
C1715 C1714 1.391 . S
H1716 C1724 0.950 . S
H1717 C1729 0.950 . S
H1718 C1726 0.950 . S
H1719 C1728 0.950 . S
H1720 C1730 0.950 . S
H1721 C1732 0.950 . S
H1722 C1734 0.950 . S
H1723 C1735 0.950 . S
C1724 H1716 0.950 . S
C1724 C1725 1.386 . S
C1724 C1726 1.391 . S
C1725 C1724 1.386 . S
C1725 C1729 1.393 . S
C1726 H1718 0.950 . S
C1726 C1724 1.391 . S
C1726 C1727 1.400 . S
C1727 C1726 1.400 . S
C1727 C1728 1.398 . S
C1727 C1733 1.491 . S
C1728 H1719 0.950 . S
C1728 C1727 1.398 . S
C1728 C1729 1.391 . S
C1729 H1717 0.950 . S
C1729 C1725 1.393 . S
C1729 C1728 1.391 . S
C1730 H1720 0.950 . S
C1730 C1731 1.386 . S
C1730 C1732 1.391 . S
C1731 C1730 1.386 . S
C1731 C1735 1.393 . S
C1732 H1721 0.950 . S
C1732 C1730 1.391 . S
C1732 C1733 1.400 . S
C1733 C1727 1.491 . S
C1733 C1732 1.400 . S
C1733 C1734 1.398 . S
C1734 H1722 0.950 . S
C1734 C1733 1.398 . S
C1734 C1735 1.391 . S
C1735 H1723 0.950 . S
C1735 C1731 1.393 . S
C1735 C1734 1.391 . S
H1736 C1744 0.950 . S
H1737 C1749 0.950 . S
H1738 C1746 0.953 . S
H1739 C1748 0.950 . S
H1740 C1750 0.950 . S
H1741 C1752 0.950 . S
H1742 C1754 0.950 . S
H1743 C1755 0.950 . S
C1744 H1736 0.950 . S
C1744 C1745 1.390 1_655 S
C1744 C1746 1.381 1_655 S
C1745 C1744 1.390 1_455 S
C1745 C1749 1.396 . S
C1746 H1738 0.953 . S
C1746 C1744 1.381 1_455 S
C1746 C1747 1.405 . S
C1747 C1746 1.405 . S
C1747 C1748 1.398 . S
C1747 C1753 1.491 . S
C1748 H1739 0.950 . S
C1748 C1747 1.398 . S
C1748 C1749 1.391 . S
C1749 H1737 0.950 . S
C1749 C1745 1.396 . S
C1749 C1748 1.391 . S
C1750 H1740 0.950 . S
C1750 C1751 1.386 . S
C1750 C1752 1.391 . S
C1751 C1750 1.386 . S
C1751 C1755 1.393 . S
C1752 H1741 0.950 . S
C1752 C1750 1.391 . S
C1752 C1753 1.400 . S
C1753 C1747 1.491 . S
C1753 C1752 1.400 . S
C1753 C1754 1.398 . S
C1754 H1742 0.950 . S
C1754 C1753 1.398 . S
C1754 C1755 1.391 . S
C1755 H1743 0.950 . S
C1755 C1751 1.393 . S
C1755 C1754 1.391 . S
H1756 C1764 0.950 . S
H1757 C1769 0.950 . S
H1758 C1766 0.950 . S
H1759 C1768 0.950 . S
H1760 C1770 0.950 . S
H1761 C1772 0.950 . S
H1762 C1774 0.950 . S
H1763 C1775 0.950 . S
C1764 H1756 0.950 . S
C1764 C1765 1.386 . S
C1764 C1766 1.391 . S
C1765 C1764 1.386 . S
C1765 C1769 1.393 . S
C1766 H1758 0.950 . S
C1766 C1764 1.391 . S
C1766 C1767 1.400 . S
C1767 C1766 1.400 . S
C1767 C1768 1.398 . S
C1767 C1773 1.491 . S
C1768 H1759 0.950 . S
C1768 C1767 1.398 . S
C1768 C1769 1.391 . S
C1769 H1757 0.950 . S
C1769 C1765 1.393 . S
C1769 C1768 1.391 . S
C1770 H1760 0.950 . S
C1770 C1771 1.386 . S
C1770 C1772 1.391 . S
C1771 C1770 1.386 . S
C1771 C1775 1.393 . S
C1772 H1761 0.950 . S
C1772 C1770 1.391 . S
C1772 C1773 1.400 . S
C1773 C1767 1.491 . S
C1773 C1772 1.400 . S
C1773 C1774 1.398 . S
C1774 H1762 0.950 . S
C1774 C1773 1.398 . S
C1774 C1775 1.391 . S
C1775 H1763 0.950 . S
C1775 C1771 1.393 . S
C1775 C1774 1.391 . S
H1776 C1784 0.950 . S
H1777 C1789 0.950 . S
H1778 C1786 0.950 . S
H1779 C1788 0.950 . S
H1780 C1790 0.950 . S
H1781 C1792 0.950 . S
H1782 C1794 0.950 . S
H1783 C1795 0.950 . S
C1784 H1776 0.950 . S
C1784 C1785 1.386 . S
C1784 C1786 1.391 . S
C1785 C1784 1.386 . S
C1785 C1789 1.393 . S
C1786 H1778 0.950 . S
C1786 C1784 1.391 . S
C1786 C1787 1.400 . S
C1787 C1786 1.400 . S
C1787 C1788 1.398 . S
C1787 C1793 1.491 . S
C1788 H1779 0.950 . S
C1788 C1787 1.398 . S
C1788 C1789 1.391 . S
C1789 H1777 0.950 . S
C1789 C1785 1.393 . S
C1789 C1788 1.391 . S
C1790 H1780 0.950 . S
C1790 C1791 1.386 . S
C1790 C1792 1.391 . S
C1791 C1790 1.386 . S
C1791 C1795 1.393 . S
C1792 H1781 0.950 . S
C1792 C1790 1.391 . S
C1792 C1793 1.400 . S
C1793 C1787 1.491 . S
C1793 C1792 1.400 . S
C1793 C1794 1.398 . S
C1794 H1782 0.950 . S
C1794 C1793 1.398 . S
C1794 C1795 1.391 . S
C1795 H1783 0.950 . S
C1795 C1791 1.393 . S
C1795 C1794 1.391 . S
H1796 C1804 0.950 . S
H1797 C1809 0.950 . S
H1798 C1806 0.950 . S
H1799 C1808 0.950 . S
H1800 C1810 0.950 . S
H1801 C1812 0.950 . S
H1802 C1814 0.950 . S
H1803 C1815 0.950 . S
C1804 H1796 0.950 . S
C1804 C1805 1.386 . S
C1804 C1806 1.391 . S
C1805 C1804 1.386 . S
C1805 C1809 1.393 . S
C1806 H1798 0.950 . S
C1806 C1804 1.391 . S
C1806 C1807 1.400 . S
C1807 C1806 1.400 . S
C1807 C1808 1.398 . S
C1807 C1813 1.491 . S
C1808 H1799 0.950 . S
C1808 C1807 1.398 . S
C1808 C1809 1.391 . S
C1809 H1797 0.950 . S
C1809 C1805 1.393 . S
C1809 C1808 1.391 . S
C1810 H1800 0.950 . S
C1810 C1811 1.386 . S
C1810 C1812 1.391 . S
C1811 C1810 1.386 . S
C1811 C1815 1.393 . S
C1812 H1801 0.950 . S
C1812 C1810 1.391 . S
C1812 C1813 1.400 . S
C1813 C1807 1.491 . S
C1813 C1812 1.400 . S
C1813 C1814 1.398 . S
C1814 H1802 0.950 . S
C1814 C1813 1.398 . S
C1814 C1815 1.391 . S
C1815 H1803 0.950 . S
C1815 C1811 1.393 . S
C1815 C1814 1.391 . S
H1816 C1824 0.950 . S
H1817 C1829 0.950 . S
H1818 C1826 0.950 . S
H1819 C1828 0.950 . S
H1820 C1830 0.950 . S
H1821 C1832 0.950 . S
H1822 C1834 0.950 . S
H1823 C1835 0.950 . S
C1824 H1816 0.950 . S
C1824 C1825 1.386 . S
C1824 C1826 1.391 . S
C1825 C1824 1.386 . S
C1825 C1829 1.393 . S
C1826 H1818 0.950 . S
C1826 C1824 1.391 . S
C1826 C1827 1.400 . S
C1827 C1826 1.400 . S
C1827 C1828 1.398 . S
C1827 C1833 1.491 . S
C1828 H1819 0.950 . S
C1828 C1827 1.398 . S
C1828 C1829 1.391 . S
C1829 H1817 0.950 . S
C1829 C1825 1.393 . S
C1829 C1828 1.391 . S
C1830 H1820 0.950 . S
C1830 C1831 1.386 . S
C1830 C1832 1.391 . S
C1831 C1830 1.386 . S
C1831 C1835 1.393 . S
C1832 H1821 0.950 . S
C1832 C1830 1.391 . S
C1832 C1833 1.400 . S
C1833 C1827 1.491 . S
C1833 C1832 1.400 . S
C1833 C1834 1.398 . S
C1834 H1822 0.950 . S
C1834 C1833 1.398 . S
C1834 C1835 1.391 . S
C1835 H1823 0.950 . S
C1835 C1831 1.393 . S
C1835 C1834 1.391 . S
H1836 C1844 0.950 . S
H1837 C1849 0.950 . S
H1838 C1846 0.950 . S
H1839 C1848 0.950 . S
H1840 C1850 0.950 . S
H1841 C1852 0.950 . S
H1842 C1854 0.950 . S
H1843 C1855 0.950 . S
C1844 H1836 0.950 . S
C1844 C1845 1.386 . S
C1844 C1846 1.391 . S
C1845 C1844 1.386 . S
C1845 C1849 1.393 . S
C1846 H1838 0.950 . S
C1846 C1844 1.391 . S
C1846 C1847 1.400 . S
C1847 C1846 1.400 . S
C1847 C1848 1.398 . S
C1847 C1853 1.491 . S
C1848 H1839 0.950 . S
C1848 C1847 1.398 . S
C1848 C1849 1.391 . S
C1849 H1837 0.950 . S
C1849 C1845 1.393 . S
C1849 C1848 1.391 . S
C1850 H1840 0.950 . S
C1850 C1851 1.386 . S
C1850 C1852 1.391 . S
C1851 C1850 1.386 . S
C1851 C1855 1.393 . S
C1852 H1841 0.950 . S
C1852 C1850 1.391 . S
C1852 C1853 1.400 . S
C1853 C1847 1.491 . S
C1853 C1852 1.400 . S
C1853 C1854 1.398 . S
C1854 H1842 0.950 . S
C1854 C1853 1.398 . S
C1854 C1855 1.391 . S
C1855 H1843 0.950 . S
C1855 C1851 1.393 . S
C1855 C1854 1.391 . S
H1856 C1864 0.950 . S
H1857 C1869 0.950 . S
H1858 C1866 0.950 . S
H1859 C1868 0.950 . S
H1860 C1870 0.950 . S
H1861 C1872 0.950 . S
H1862 C1874 0.950 . S
H1863 C1875 0.950 . S
C1864 H1856 0.950 . S
C1864 C1865 1.386 . S
C1864 C1866 1.391 . S
C1865 C1864 1.386 . S
C1865 C1869 1.393 . S
C1866 H1858 0.950 . S
C1866 C1864 1.391 . S
C1866 C1867 1.400 . S
C1867 C1866 1.400 . S
C1867 C1868 1.398 . S
C1867 C1873 1.491 . S
C1868 H1859 0.950 . S
C1868 C1867 1.398 . S
C1868 C1869 1.391 . S
C1869 H1857 0.950 . S
C1869 C1865 1.393 . S
C1869 C1868 1.391 . S
C1870 H1860 0.950 . S
C1870 C1871 1.386 . S
C1870 C1872 1.391 . S
C1871 C1870 1.386 . S
C1871 C1875 1.393 . S
C1872 H1861 0.950 . S
C1872 C1870 1.391 . S
C1872 C1873 1.400 . S
C1873 C1867 1.491 . S
C1873 C1872 1.400 . S
C1873 C1874 1.398 . S
C1874 H1862 0.950 . S
C1874 C1873 1.398 . S
C1874 C1875 1.391 . S
C1875 H1863 0.950 . S
C1875 C1871 1.393 . S
C1875 C1874 1.391 . S
H1876 C1884 0.950 . S
H1877 C1889 0.950 . S
H1878 C1886 0.950 . S
H1879 C1888 0.950 . S
H1880 C1890 0.950 . S
H1881 C1892 0.950 . S
H1882 C1894 0.950 . S
H1883 C1895 0.950 . S
C1884 H1876 0.950 . S
C1884 C1885 1.386 . S
C1884 C1886 1.391 . S
C1885 C1884 1.386 . S
C1885 C1889 1.393 . S
C1886 H1878 0.950 . S
C1886 C1884 1.391 . S
C1886 C1887 1.400 . S
C1887 C1886 1.400 . S
C1887 C1888 1.398 . S
C1887 C1893 1.491 . S
C1888 H1879 0.950 . S
C1888 C1887 1.398 . S
C1888 C1889 1.391 . S
C1889 H1877 0.950 . S
C1889 C1885 1.393 . S
C1889 C1888 1.391 . S
C1890 H1880 0.950 . S
C1890 C1891 1.386 . S
C1890 C1892 1.391 . S
C1891 C1890 1.386 . S
C1891 C1895 1.393 . S
C1892 H1881 0.950 . S
C1892 C1890 1.391 . S
C1892 C1893 1.400 . S
C1893 C1887 1.491 . S
C1893 C1892 1.400 . S
C1893 C1894 1.398 . S
C1894 H1882 0.950 . S
C1894 C1893 1.398 . S
C1894 C1895 1.391 . S
C1895 H1883 0.950 . S
C1895 C1891 1.393 . S
C1895 C1894 1.391 . S
H1896 C1904 0.950 . S
H1897 C1909 0.950 . S
H1898 C1906 0.950 . S
H1899 C1908 0.950 . S
H1900 C1910 0.950 . S
H1901 C1912 0.950 . S
H1902 C1914 0.950 . S
H1903 C1915 0.950 . S
C1904 H1896 0.950 . S
C1904 C1905 1.386 . S
C1904 C1906 1.391 . S
C1905 C1904 1.386 . S
C1905 C1909 1.393 . S
C1906 H1898 0.950 . S
C1906 C1904 1.391 . S
C1906 C1907 1.400 . S
C1907 C1906 1.400 . S
C1907 C1908 1.398 . S
C1907 C1913 1.491 . S
C1908 H1899 0.950 . S
C1908 C1907 1.398 . S
C1908 C1909 1.391 . S
C1909 H1897 0.950 . S
C1909 C1905 1.393 . S
C1909 C1908 1.391 . S
C1910 H1900 0.950 . S
C1910 C1911 1.386 . S
C1910 C1912 1.391 . S
C1911 C1910 1.386 . S
C1911 C1915 1.393 . S
C1912 H1901 0.950 . S
C1912 C1910 1.391 . S
C1912 C1913 1.400 . S
C1913 C1907 1.491 . S
C1913 C1912 1.400 . S
C1913 C1914 1.398 . S
C1914 H1902 0.950 . S
C1914 C1913 1.398 . S
C1914 C1915 1.391 . S
C1915 H1903 0.950 . S
C1915 C1911 1.393 . S
C1915 C1914 1.391 . S
H1916 C1924 0.950 . S
H1917 C1929 0.950 . S
H1918 C1926 0.950 . S
H1919 C1928 0.950 . S
H1920 C1930 0.950 . S
H1921 C1932 0.950 . S
H1922 C1934 0.950 . S
H1923 C1935 0.950 . S
C1924 H1916 0.950 . S
C1924 C1925 1.386 . S
C1924 C1926 1.391 . S
C1925 C1924 1.386 . S
C1925 C1929 1.393 . S
C1926 H1918 0.950 . S
C1926 C1924 1.391 . S
C1926 C1927 1.400 . S
C1927 C1926 1.400 . S
C1927 C1928 1.398 . S
C1927 C1933 1.491 . S
C1928 H1919 0.950 . S
C1928 C1927 1.398 . S
C1928 C1929 1.391 . S
C1929 H1917 0.950 . S
C1929 C1925 1.393 . S
C1929 C1928 1.391 . S
C1930 H1920 0.950 . S
C1930 C1931 1.386 . S
C1930 C1932 1.391 . S
C1931 C1930 1.386 . S
C1931 C1935 1.393 . S
C1932 H1921 0.950 . S
C1932 C1930 1.391 . S
C1932 C1933 1.400 . S
C1933 C1927 1.491 . S
C1933 C1932 1.400 . S
C1933 C1934 1.398 . S
C1934 H1922 0.950 . S
C1934 C1933 1.398 . S
C1934 C1935 1.391 . S
C1935 H1923 0.950 . S
C1935 C1931 1.393 . S
C1935 C1934 1.391 . S
H1936 C1944 0.950 . S
H1937 C1949 0.950 . S
H1938 C1946 0.950 . S
H1939 C1948 0.950 . S
H1940 C1950 0.950 . S
H1941 C1952 0.950 . S
H1942 C1954 0.950 . S
H1943 C1955 0.950 . S
C1944 H1936 0.950 . S
C1944 C1945 1.386 . S
C1944 C1946 1.391 . S
C1945 C1944 1.386 . S
C1945 C1949 1.393 . S
C1946 H1938 0.950 . S
C1946 C1944 1.391 . S
C1946 C1947 1.400 . S
C1947 C1946 1.400 . S
C1947 C1948 1.398 . S
C1947 C1953 1.491 . S
C1948 H1939 0.950 . S
C1948 C1947 1.398 . S
C1948 C1949 1.391 . S
C1949 H1937 0.950 . S
C1949 C1945 1.393 . S
C1949 C1948 1.391 . S
C1950 H1940 0.950 . S
C1950 C1951 1.386 . S
C1950 C1952 1.391 . S
C1951 C1950 1.386 . S
C1951 C1955 1.393 . S
C1952 H1941 0.950 . S
C1952 C1950 1.391 . S
C1952 C1953 1.400 . S
C1953 C1947 1.491 . S
C1953 C1952 1.400 . S
C1953 C1954 1.398 . S
C1954 H1942 0.950 . S
C1954 C1953 1.398 . S
C1954 C1955 1.391 . S
C1955 H1943 0.950 . S
C1955 C1951 1.393 . S
C1955 C1954 1.391 . S
H1956 C1964 0.950 . S
H1957 C1969 0.950 . S
H1958 C1966 0.950 . S
H1959 C1968 0.950 . S
H1960 C1970 0.950 . S
H1961 C1972 0.950 . S
H1962 C1974 0.950 . S
H1963 C1975 0.950 . S
C1964 H1956 0.950 . S
C1964 C1965 1.386 . S
C1964 C1966 1.391 . S
C1965 C1964 1.386 . S
C1965 C1969 1.393 . S
C1966 H1958 0.950 . S
C1966 C1964 1.391 . S
C1966 C1967 1.400 . S
C1967 C1966 1.400 . S
C1967 C1968 1.398 . S
C1967 C1973 1.491 . S
C1968 H1959 0.950 . S
C1968 C1967 1.398 . S
C1968 C1969 1.391 . S
C1969 H1957 0.950 . S
C1969 C1965 1.393 . S
C1969 C1968 1.391 . S
C1970 H1960 0.950 . S
C1970 C1971 1.386 . S
C1970 C1972 1.391 . S
C1971 C1970 1.386 . S
C1971 C1975 1.393 . S
C1972 H1961 0.950 . S
C1972 C1970 1.391 . S
C1972 C1973 1.400 . S
C1973 C1967 1.491 . S
C1973 C1972 1.400 . S
C1973 C1974 1.398 . S
C1974 H1962 0.950 . S
C1974 C1973 1.398 . S
C1974 C1975 1.391 . S
C1975 H1963 0.950 . S
C1975 C1971 1.393 . S
C1975 C1974 1.391 . S
H1976 C1984 0.950 . S
H1977 C1989 0.950 . S
H1978 C1986 0.950 . S
H1979 C1988 0.950 . S
H1980 C1990 0.950 . S
H1981 C1992 0.950 . S
H1982 C1994 0.950 . S
H1983 C1995 0.950 . S
C1984 H1976 0.950 . S
C1984 C1985 1.386 . S
C1984 C1986 1.391 . S
C1985 C1984 1.386 . S
C1985 C1989 1.393 . S
C1986 H1978 0.950 . S
C1986 C1984 1.391 . S
C1986 C1987 1.400 . S
C1987 C1986 1.400 . S
C1987 C1988 1.398 . S
C1987 C1993 1.491 . S
C1988 H1979 0.950 . S
C1988 C1987 1.398 . S
C1988 C1989 1.391 . S
C1989 H1977 0.950 . S
C1989 C1985 1.393 . S
C1989 C1988 1.391 . S
C1990 H1980 0.950 . S
C1990 C1991 1.386 . S
C1990 C1992 1.391 . S
C1991 C1990 1.386 . S
C1991 C1995 1.393 . S
C1992 H1981 0.950 . S
C1992 C1990 1.391 . S
C1992 C1993 1.400 . S
C1993 C1987 1.491 . S
C1993 C1992 1.400 . S
C1993 C1994 1.398 . S
C1994 H1982 0.950 . S
C1994 C1993 1.398 . S
C1994 C1995 1.391 . S
C1995 H1983 0.950 . S
C1995 C1991 1.393 . S
C1995 C1994 1.391 . S
H1996 C2004 0.950 . S
H1997 C2009 0.950 1_556 S
H1998 C2006 0.950 . S
H1999 C2008 0.950 1_556 S
H2000 C2010 0.950 1_556 S
H2001 C2012 0.950 1_556 S
H2002 C2014 0.950 . S
H2003 C2015 0.950 . S
C2004 H1996 0.950 . S
C2004 C2005 1.386 . S
C2004 C2006 1.391 . S
C2005 C2004 1.386 . S
C2005 C2009 1.393 . S
C2006 H1998 0.950 . S
C2006 C2004 1.391 . S
C2006 C2007 1.400 . S
C2007 C2006 1.400 . S
C2007 C2008 1.398 . S
C2007 C2013 1.491 . S
C2008 H1999 0.950 1_554 S
C2008 C2007 1.398 . S
C2008 C2009 1.391 . S
C2009 H1997 0.950 1_554 S
C2009 C2005 1.393 . S
C2009 C2008 1.391 . S
C2010 H2000 0.950 1_554 S
C2010 C2011 1.386 1_565 S
C2010 C2012 1.391 . S
C2011 C2010 1.386 1_545 S
C2011 C2015 1.393 . S
C2012 H2001 0.950 1_554 S
C2012 C2010 1.391 . S
C2012 C2013 1.400 . S
C2013 C2007 1.491 . S
C2013 C2012 1.400 . S
C2013 C2014 1.398 . S
C2014 H2002 0.950 . S
C2014 C2013 1.398 . S
C2014 C2015 1.391 1_565 S
C2015 H2003 0.950 . S
C2015 C2011 1.393 . S
C2015 C2014 1.391 1_545 S
H2016 C2024 0.950 . S
H2017 C2029 0.950 . S
H2018 C2026 0.950 . S
H2019 C2028 0.950 . S
H2020 C2030 0.950 . S
H2021 C2032 0.950 . S
H2022 C2034 0.950 . S
H2023 C2035 0.950 . S
C2024 H2016 0.950 . S
C2024 C2025 1.386 . S
C2024 C2026 1.391 . S
C2025 C2024 1.386 . S
C2025 C2029 1.393 . S
C2026 H2018 0.950 . S
C2026 C2024 1.391 . S
C2026 C2027 1.400 . S
C2027 C2026 1.400 . S
C2027 C2028 1.398 . S
C2027 C2033 1.491 . S
C2028 H2019 0.950 . S
C2028 C2027 1.398 . S
C2028 C2029 1.391 . S
C2029 H2017 0.950 . S
C2029 C2025 1.393 . S
C2029 C2028 1.391 . S
C2030 H2020 0.950 . S
C2030 C2031 1.386 . S
C2030 C2032 1.391 . S
C2031 C2030 1.386 . S
C2031 C2035 1.393 . S
C2032 H2021 0.950 . S
C2032 C2030 1.391 . S
C2032 C2033 1.400 . S
C2033 C2027 1.491 . S
C2033 C2032 1.400 . S
C2033 C2034 1.398 . S
C2034 H2022 0.950 . S
C2034 C2033 1.398 . S
C2034 C2035 1.391 . S
C2035 H2023 0.950 . S
C2035 C2031 1.393 . S
C2035 C2034 1.391 . S
H2036 C2044 0.950 . S
H2037 C2049 0.950 . S
H2038 C2046 0.950 . S
H2039 C2048 0.950 . S
H2040 C2050 0.950 . S
H2041 C2052 0.950 . S
H2042 C2054 0.950 . S
H2043 C2055 0.950 . S
C2044 H2036 0.950 . S
C2044 C2045 1.386 . S
C2044 C2046 1.391 . S
C2045 C2044 1.386 . S
C2045 C2049 1.393 . S
C2046 H2038 0.950 . S
C2046 C2044 1.391 . S
C2046 C2047 1.400 . S
C2047 C2046 1.400 . S
C2047 C2048 1.398 . S
C2047 C2053 1.491 . S
C2048 H2039 0.950 . S
C2048 C2047 1.398 . S
C2048 C2049 1.391 . S
C2049 H2037 0.950 . S
C2049 C2045 1.393 . S
C2049 C2048 1.391 . S
C2050 H2040 0.950 . S
C2050 C2051 1.386 . S
C2050 C2052 1.391 . S
C2051 C2050 1.386 . S
C2051 C2055 1.393 . S
C2052 H2041 0.950 . S
C2052 C2050 1.391 . S
C2052 C2053 1.400 . S
C2053 C2047 1.491 . S
C2053 C2052 1.400 . S
C2053 C2054 1.398 . S
C2054 H2042 0.950 . S
C2054 C2053 1.398 . S
C2054 C2055 1.391 . S
C2055 H2043 0.950 . S
C2055 C2051 1.393 . S
C2055 C2054 1.391 . S
H2056 C2064 0.950 . S
H2057 C2069 0.950 . S
H2058 C2066 0.950 . S
H2059 C2068 0.950 . S
H2060 C2070 0.950 . S
H2061 C2072 0.950 . S
H2062 C2074 0.950 . S
H2063 C2075 0.950 . S
C2064 H2056 0.950 . S
C2064 C2065 1.386 . S
C2064 C2066 1.391 . S
C2065 C2064 1.386 . S
C2065 C2069 1.393 . S
C2066 H2058 0.950 . S
C2066 C2064 1.391 . S
C2066 C2067 1.400 . S
C2067 C2066 1.400 . S
C2067 C2068 1.398 . S
C2067 C2073 1.491 . S
C2068 H2059 0.950 . S
C2068 C2067 1.398 . S
C2068 C2069 1.391 . S
C2069 H2057 0.950 . S
C2069 C2065 1.393 . S
C2069 C2068 1.391 . S
C2070 H2060 0.950 . S
C2070 C2071 1.386 . S
C2070 C2072 1.391 . S
C2071 C2070 1.386 . S
C2071 C2075 1.393 . S
C2072 H2061 0.950 . S
C2072 C2070 1.391 . S
C2072 C2073 1.400 . S
C2073 C2067 1.491 . S
C2073 C2072 1.400 . S
C2073 C2074 1.398 . S
C2074 H2062 0.950 . S
C2074 C2073 1.398 . S
C2074 C2075 1.391 . S
C2075 H2063 0.950 . S
C2075 C2071 1.393 . S
C2075 C2074 1.391 . S
H2076 C2084 0.950 . S
H2077 C2089 0.950 . S
H2078 C2086 0.950 . S
H2079 C2088 0.950 . S
H2080 C2090 0.950 . S
H2081 C2092 0.950 . S
H2082 C2094 0.950 . S
H2083 C2095 0.950 . S
C2084 H2076 0.950 . S
C2084 C2085 1.386 . S
C2084 C2086 1.391 . S
C2085 C2084 1.386 . S
C2085 C2089 1.393 . S
C2086 H2078 0.950 . S
C2086 C2084 1.391 . S
C2086 C2087 1.400 . S
C2087 C2086 1.400 . S
C2087 C2088 1.398 . S
C2087 C2093 1.491 . S
C2088 H2079 0.950 . S
C2088 C2087 1.398 . S
C2088 C2089 1.391 . S
C2089 H2077 0.950 . S
C2089 C2085 1.393 . S
C2089 C2088 1.391 . S
C2090 H2080 0.950 . S
C2090 C2091 1.386 . S
C2090 C2092 1.391 . S
C2091 C2090 1.386 . S
C2091 C2095 1.393 . S
C2092 H2081 0.950 . S
C2092 C2090 1.391 . S
C2092 C2093 1.400 . S
C2093 C2087 1.491 . S
C2093 C2092 1.400 . S
C2093 C2094 1.398 . S
C2094 H2082 0.950 . S
C2094 C2093 1.398 . S
C2094 C2095 1.391 . S
C2095 H2083 0.950 . S
C2095 C2091 1.393 . S
C2095 C2094 1.391 . S
H2096 C2104 0.950 . S
H2097 C2109 0.950 . S
H2098 C2106 0.950 . S
H2099 C2108 0.950 . S
H2100 C2110 0.950 . S
H2101 C2112 0.950 . S
H2102 C2114 0.950 . S
H2103 C2115 0.950 . S
C2104 H2096 0.950 . S
C2104 C2105 1.386 . S
C2104 C2106 1.391 . S
C2105 C2104 1.386 . S
C2105 C2109 1.393 . S
C2106 H2098 0.950 . S
C2106 C2104 1.391 . S
C2106 C2107 1.400 . S
C2107 C2106 1.400 . S
C2107 C2108 1.398 . S
C2107 C2113 1.491 . S
C2108 H2099 0.950 . S
C2108 C2107 1.398 . S
C2108 C2109 1.391 . S
C2109 H2097 0.950 . S
C2109 C2105 1.393 . S
C2109 C2108 1.391 . S
C2110 H2100 0.950 . S
C2110 C2111 1.386 . S
C2110 C2112 1.391 . S
C2111 C2110 1.386 . S
C2111 C2115 1.393 . S
C2112 H2101 0.950 . S
C2112 C2110 1.391 . S
C2112 C2113 1.400 . S
C2113 C2107 1.491 . S
C2113 C2112 1.400 . S
C2113 C2114 1.398 . S
C2114 H2102 0.950 . S
C2114 C2113 1.398 . S
C2114 C2115 1.391 . S
C2115 H2103 0.950 . S
C2115 C2111 1.393 . S
C2115 C2114 1.391 . S
H2116 C2124 0.950 . S
H2117 C2129 0.950 . S
H2118 C2126 0.950 . S
H2119 C2128 0.950 . S
H2120 C2130 0.950 . S
H2121 C2132 0.950 . S
H2122 C2134 0.950 . S
H2123 C2135 0.950 . S
C2124 H2116 0.950 . S
C2124 C2125 1.386 . S
C2124 C2126 1.391 . S
C2125 C2124 1.386 . S
C2125 C2129 1.393 . S
C2126 H2118 0.950 . S
C2126 C2124 1.391 . S
C2126 C2127 1.400 . S
C2127 C2126 1.400 . S
C2127 C2128 1.398 . S
C2127 C2133 1.491 . S
C2128 H2119 0.950 . S
C2128 C2127 1.398 . S
C2128 C2129 1.391 . S
C2129 H2117 0.950 . S
C2129 C2125 1.393 . S
C2129 C2128 1.391 . S
C2130 H2120 0.950 . S
C2130 C2131 1.386 . S
C2130 C2132 1.391 . S
C2131 C2130 1.386 . S
C2131 C2135 1.393 . S
C2132 H2121 0.950 . S
C2132 C2130 1.391 . S
C2132 C2133 1.400 . S
C2133 C2127 1.491 . S
C2133 C2132 1.400 . S
C2133 C2134 1.398 . S
C2134 H2122 0.950 . S
C2134 C2133 1.398 . S
C2134 C2135 1.391 . S
C2135 H2123 0.950 . S
C2135 C2131 1.393 . S
C2135 C2134 1.391 . S
H2136 C2144 0.950 . S
H2137 C2149 0.950 . S
H2138 C2146 0.950 . S
H2139 C2148 0.950 . S
H2140 C2150 0.950 . S
H2141 C2152 0.950 . S
H2142 C2154 0.950 . S
H2143 C2155 0.950 . S
C2144 H2136 0.950 . S
C2144 C2145 1.386 . S
C2144 C2146 1.391 . S
C2145 C2144 1.386 . S
C2145 C2149 1.393 . S
C2146 H2138 0.950 . S
C2146 C2144 1.391 . S
C2146 C2147 1.400 . S
C2147 C2146 1.400 . S
C2147 C2148 1.398 . S
C2147 C2153 1.491 . S
C2148 H2139 0.950 . S
C2148 C2147 1.398 . S
C2148 C2149 1.391 . S
C2149 H2137 0.950 . S
C2149 C2145 1.393 . S
C2149 C2148 1.391 . S
C2150 H2140 0.950 . S
C2150 C2151 1.386 . S
C2150 C2152 1.391 . S
C2151 C2150 1.386 . S
C2151 C2155 1.393 . S
C2152 H2141 0.950 . S
C2152 C2150 1.391 . S
C2152 C2153 1.400 . S
C2153 C2147 1.491 . S
C2153 C2152 1.400 . S
C2153 C2154 1.398 . S
C2154 H2142 0.950 . S
C2154 C2153 1.398 . S
C2154 C2155 1.391 . S
C2155 H2143 0.950 . S
C2155 C2151 1.393 . S
C2155 C2154 1.391 . S
H2156 C2164 0.950 . S
H2157 C2169 0.950 . S
H2158 C2166 0.950 . S
H2159 C2168 0.950 . S
H2160 C2170 0.950 . S
H2161 C2172 0.950 . S
H2162 C2174 0.950 . S
H2163 C2175 0.950 . S
C2164 H2156 0.950 . S
C2164 C2165 1.386 . S
C2164 C2166 1.391 . S
C2165 C2164 1.386 . S
C2165 C2169 1.393 . S
C2166 H2158 0.950 . S
C2166 C2164 1.391 . S
C2166 C2167 1.400 . S
C2167 C2166 1.400 . S
C2167 C2168 1.398 . S
C2167 C2173 1.491 . S
C2168 H2159 0.950 . S
C2168 C2167 1.398 . S
C2168 C2169 1.391 . S
C2169 H2157 0.950 . S
C2169 C2165 1.393 . S
C2169 C2168 1.391 . S
C2170 H2160 0.950 . S
C2170 C2171 1.386 . S
C2170 C2172 1.391 . S
C2171 C2170 1.386 . S
C2171 C2175 1.393 . S
C2172 H2161 0.950 . S
C2172 C2170 1.391 . S
C2172 C2173 1.400 . S
C2173 C2167 1.491 . S
C2173 C2172 1.400 . S
C2173 C2174 1.398 . S
C2174 H2162 0.950 . S
C2174 C2173 1.398 . S
C2174 C2175 1.391 . S
C2175 H2163 0.950 . S
C2175 C2171 1.393 . S
C2175 C2174 1.391 . S
H2176 C2184 0.950 . S
H2177 C2189 0.950 . S
H2178 C2186 0.950 . S
H2179 C2188 0.950 . S
H2180 C2190 0.950 . S
H2181 C2192 0.950 . S
H2182 C2194 0.950 . S
H2183 C2195 0.950 . S
C2184 H2176 0.950 . S
C2184 C2185 1.386 . S
C2184 C2186 1.391 . S
C2185 C2184 1.386 . S
C2185 C2189 1.393 . S
C2186 H2178 0.950 . S
C2186 C2184 1.391 . S
C2186 C2187 1.400 . S
C2187 C2186 1.400 . S
C2187 C2188 1.398 . S
C2187 C2193 1.491 . S
C2188 H2179 0.950 . S
C2188 C2187 1.398 . S
C2188 C2189 1.391 . S
C2189 H2177 0.950 . S
C2189 C2185 1.393 . S
C2189 C2188 1.391 . S
C2190 H2180 0.950 . S
C2190 C2191 1.386 . S
C2190 C2192 1.391 . S
C2191 C2190 1.386 . S
C2191 C2195 1.393 . S
C2192 H2181 0.950 . S
C2192 C2190 1.391 . S
C2192 C2193 1.400 . S
C2193 C2187 1.491 . S
C2193 C2192 1.400 . S
C2193 C2194 1.398 . S
C2194 H2182 0.950 . S
C2194 C2193 1.398 . S
C2194 C2195 1.391 . S
C2195 H2183 0.950 . S
C2195 C2191 1.393 . S
C2195 C2194 1.391 . S
H2196 C2204 0.950 . S
H2197 C2209 0.950 . S
H2198 C2206 0.950 . S
H2199 C2208 0.950 . S
H2200 C2210 0.950 . S
H2201 C2212 0.950 . S
H2202 C2214 0.950 . S
H2203 C2215 0.950 . S
C2204 H2196 0.950 . S
C2204 C2205 1.386 . S
C2204 C2206 1.391 . S
C2205 C2204 1.386 . S
C2205 C2209 1.393 . S
C2206 H2198 0.950 . S
C2206 C2204 1.391 . S
C2206 C2207 1.400 . S
C2207 C2206 1.400 . S
C2207 C2208 1.398 . S
C2207 C2213 1.491 . S
C2208 H2199 0.950 . S
C2208 C2207 1.398 . S
C2208 C2209 1.391 . S
C2209 H2197 0.950 . S
C2209 C2205 1.393 . S
C2209 C2208 1.391 . S
C2210 H2200 0.950 . S
C2210 C2211 1.386 . S
C2210 C2212 1.391 . S
C2211 C2210 1.386 . S
C2211 C2215 1.393 . S
C2212 H2201 0.950 . S
C2212 C2210 1.391 . S
C2212 C2213 1.400 . S
C2213 C2207 1.491 . S
C2213 C2212 1.400 . S
C2213 C2214 1.398 . S
C2214 H2202 0.950 . S
C2214 C2213 1.398 . S
C2214 C2215 1.391 . S
C2215 H2203 0.950 . S
C2215 C2211 1.393 . S
C2215 C2214 1.391 . S
H2216 C2224 0.977 . S
H2217 C2229 0.950 . S
H2218 C2226 0.950 . S
H2219 C2228 0.950 . S
H2220 C2230 0.950 . S
H2221 C2232 0.950 . S
H2222 C2234 0.950 . S
H2223 C2235 0.950 . S
C2224 H2216 0.977 . S
C2224 C2225 1.348 1_655 S
C2224 C2226 1.403 . S
C2225 C2224 1.348 1_455 S
C2225 C2229 1.393 . S
C2226 H2218 0.950 . S
C2226 C2224 1.403 . S
C2226 C2227 1.400 1_655 S
C2227 C2226 1.400 1_455 S
C2227 C2228 1.398 . S
C2227 C2233 1.491 . S
C2228 H2219 0.950 . S
C2228 C2227 1.398 . S
C2228 C2229 1.391 . S
C2229 H2217 0.950 . S
C2229 C2225 1.393 . S
C2229 C2228 1.391 . S
C2230 H2220 0.950 . S
C2230 C2231 1.386 . S
C2230 C2232 1.391 . S
C2231 C2230 1.386 . S
C2231 C2235 1.393 1_455 S
C2232 H2221 0.950 . S
C2232 C2230 1.391 . S
C2232 C2233 1.400 . S
C2233 C2227 1.491 . S
C2233 C2232 1.400 . S
C2233 C2234 1.398 1_455 S
C2234 H2222 0.950 . S
C2234 C2233 1.398 1_655 S
C2234 C2235 1.391 . S
C2235 H2223 0.950 . S
C2235 C2231 1.393 1_655 S
C2235 C2234 1.391 . S
H2236 C2244 0.950 . S
H2237 C2249 0.950 . S
H2238 C2246 0.950 . S
H2239 C2248 0.950 . S
H2240 C2250 0.950 . S
H2241 C2252 0.950 . S
H2242 C2254 0.950 . S
H2243 C2255 0.950 . S
C2244 H2236 0.950 . S
C2244 C2245 1.386 . S
C2244 C2246 1.391 . S
C2245 C2244 1.386 . S
C2245 C2249 1.393 . S
C2246 H2238 0.950 . S
C2246 C2244 1.391 . S
C2246 C2247 1.400 . S
C2247 C2246 1.400 . S
C2247 C2248 1.398 . S
C2247 C2253 1.491 . S
C2248 H2239 0.950 . S
C2248 C2247 1.398 . S
C2248 C2249 1.391 . S
C2249 H2237 0.950 . S
C2249 C2245 1.393 . S
C2249 C2248 1.391 . S
C2250 H2240 0.950 . S
C2250 C2251 1.386 . S
C2250 C2252 1.391 . S
C2251 C2250 1.386 . S
C2251 C2255 1.393 . S
C2252 H2241 0.950 . S
C2252 C2250 1.391 . S
C2252 C2253 1.400 . S
C2253 C2247 1.491 . S
C2253 C2252 1.400 . S
C2253 C2254 1.398 . S
C2254 H2242 0.950 . S
C2254 C2253 1.398 . S
C2254 C2255 1.391 . S
C2255 H2243 0.950 . S
C2255 C2251 1.393 . S
C2255 C2254 1.391 . S
H2256 C2264 0.950 . S
H2257 C2269 0.950 . S
H2258 C2266 0.950 . S
H2259 C2268 0.950 . S
H2260 C2270 0.950 . S
H2261 C2272 0.950 . S
H2262 C2274 0.950 . S
H2263 C2275 0.950 . S
C2264 H2256 0.950 . S
C2264 C2265 1.386 . S
C2264 C2266 1.391 . S
C2265 C2264 1.386 . S
C2265 C2269 1.393 . S
C2266 H2258 0.950 . S
C2266 C2264 1.391 . S
C2266 C2267 1.400 . S
C2267 C2266 1.400 . S
C2267 C2268 1.398 . S
C2267 C2273 1.491 . S
C2268 H2259 0.950 . S
C2268 C2267 1.398 . S
C2268 C2269 1.391 . S
C2269 H2257 0.950 . S
C2269 C2265 1.393 . S
C2269 C2268 1.391 . S
C2270 H2260 0.950 . S
C2270 C2271 1.386 . S
C2270 C2272 1.391 . S
C2271 C2270 1.386 . S
C2271 C2275 1.393 . S
C2272 H2261 0.950 . S
C2272 C2270 1.391 . S
C2272 C2273 1.400 . S
C2273 C2267 1.491 . S
C2273 C2272 1.400 . S
C2273 C2274 1.398 . S
C2274 H2262 0.950 . S
C2274 C2273 1.398 . S
C2274 C2275 1.391 . S
C2275 H2263 0.950 . S
C2275 C2271 1.393 . S
C2275 C2274 1.391 . S
H2276 C2284 0.950 . S
H2277 C2289 0.950 . S
H2278 C2286 0.950 . S
H2279 C2288 0.950 . S
H2280 C2290 0.950 . S
H2281 C2292 0.950 . S
H2282 C2294 0.950 . S
H2283 C2295 0.950 . S
C2284 H2276 0.950 . S
C2284 C2285 1.386 . S
C2284 C2286 1.391 . S
C2285 C2284 1.386 . S
C2285 C2289 1.393 . S
C2286 H2278 0.950 . S
C2286 C2284 1.391 . S
C2286 C2287 1.400 . S
C2287 C2286 1.400 . S
C2287 C2288 1.398 . S
C2287 C2293 1.491 . S
C2288 H2279 0.950 . S
C2288 C2287 1.398 . S
C2288 C2289 1.391 . S
C2289 H2277 0.950 . S
C2289 C2285 1.393 . S
C2289 C2288 1.391 . S
C2290 H2280 0.950 . S
C2290 C2291 1.386 . S
C2290 C2292 1.391 . S
C2291 C2290 1.386 . S
C2291 C2295 1.393 . S
C2292 H2281 0.950 . S
C2292 C2290 1.391 . S
C2292 C2293 1.400 . S
C2293 C2287 1.491 . S
C2293 C2292 1.400 . S
C2293 C2294 1.398 . S
C2294 H2282 0.950 . S
C2294 C2293 1.398 . S
C2294 C2295 1.391 . S
C2295 H2283 0.950 . S
C2295 C2291 1.393 . S
C2295 C2294 1.391 . S
H2296 C2304 0.950 . S
H2297 C2309 0.950 . S
H2298 C2306 0.950 . S
H2299 C2308 0.950 . S
H2300 C2310 0.950 . S
H2301 C2312 0.950 . S
H2302 C2314 0.955 . S
H2303 C2315 0.950 . S
C2304 H2296 0.950 . S
C2304 C2305 1.386 . S
C2304 C2306 1.391 . S
C2305 C2304 1.386 . S
C2305 C2309 1.393 . S
C2306 H2298 0.950 . S
C2306 C2304 1.391 . S
C2306 C2307 1.400 . S
C2307 C2306 1.400 . S
C2307 C2308 1.398 . S
C2307 C2313 1.491 . S
C2308 H2299 0.950 . S
C2308 C2307 1.398 . S
C2308 C2309 1.391 . S
C2309 H2297 0.950 . S
C2309 C2305 1.393 . S
C2309 C2308 1.391 . S
C2310 H2300 0.950 . S
C2310 C2311 1.386 . S
C2310 C2312 1.391 . S
C2311 C2310 1.386 . S
C2311 C2315 1.393 1_655 S
C2312 H2301 0.950 . S
C2312 C2310 1.391 . S
C2312 C2313 1.400 . S
C2313 C2307 1.491 . S
C2313 C2312 1.400 . S
C2313 C2314 1.398 . S
C2314 H2302 0.955 . S
C2314 C2313 1.398 . S
C2314 C2315 1.391 1_655 S
C2315 H2303 0.950 . S
C2315 C2311 1.393 1_455 S
C2315 C2314 1.391 1_455 S
H2316 C2324 0.950 . S
H2317 C2329 0.950 . S
H2318 C2326 0.950 . S
H2319 C2328 0.950 . S
H2320 C2330 0.950 . S
H2321 C2332 0.950 . S
H2322 C2334 0.950 . S
H2323 C2335 0.950 . S
C2324 H2316 0.950 . S
C2324 C2325 1.386 . S
C2324 C2326 1.391 . S
C2325 C2324 1.386 . S
C2325 C2329 1.393 . S
C2326 H2318 0.950 . S
C2326 C2324 1.391 . S
C2326 C2327 1.400 . S
C2327 C2326 1.400 . S
C2327 C2328 1.398 . S
C2327 C2333 1.491 . S
C2328 H2319 0.950 . S
C2328 C2327 1.398 . S
C2328 C2329 1.391 . S
C2329 H2317 0.950 . S
C2329 C2325 1.393 . S
C2329 C2328 1.391 . S
C2330 H2320 0.950 . S
C2330 C2331 1.386 . S
C2330 C2332 1.391 . S
C2331 C2330 1.386 . S
C2331 C2335 1.393 . S
C2332 H2321 0.950 . S
C2332 C2330 1.391 . S
C2332 C2333 1.400 . S
C2333 C2327 1.491 . S
C2333 C2332 1.400 . S
C2333 C2334 1.398 . S
C2334 H2322 0.950 . S
C2334 C2333 1.398 . S
C2334 C2335 1.391 . S
C2335 H2323 0.950 . S
C2335 C2331 1.393 . S
C2335 C2334 1.391 . S
H2336 C2344 0.950 . S
H2337 C2349 0.950 . S
H2338 C2346 0.950 . S
H2339 C2348 0.950 . S
H2340 C2350 0.950 . S
H2341 C2352 0.950 . S
H2342 C2354 0.950 . S
H2343 C2355 0.950 . S
C2344 H2336 0.950 . S
C2344 C2345 1.386 . S
C2344 C2346 1.391 . S
C2345 C2344 1.386 . S
C2345 C2349 1.393 . S
C2346 H2338 0.950 . S
C2346 C2344 1.391 . S
C2346 C2347 1.400 . S
C2347 C2346 1.400 . S
C2347 C2348 1.398 . S
C2347 C2353 1.491 . S
C2348 H2339 0.950 . S
C2348 C2347 1.398 . S
C2348 C2349 1.391 . S
C2349 H2337 0.950 . S
C2349 C2345 1.393 . S
C2349 C2348 1.391 . S
C2350 H2340 0.950 . S
C2350 C2351 1.386 . S
C2350 C2352 1.391 . S
C2351 C2350 1.386 . S
C2351 C2355 1.393 . S
C2352 H2341 0.950 . S
C2352 C2350 1.391 . S
C2352 C2353 1.400 . S
C2353 C2347 1.491 . S
C2353 C2352 1.400 . S
C2353 C2354 1.398 . S
C2354 H2342 0.950 . S
C2354 C2353 1.398 . S
C2354 C2355 1.391 . S
C2355 H2343 0.950 . S
C2355 C2351 1.393 . S
C2355 C2354 1.391 . S
H2356 C2364 0.950 . S
H2357 C2369 0.950 . S
H2358 C2366 0.950 . S
H2359 C2368 0.950 . S
H2360 C2370 0.950 . S
H2361 C2372 0.950 . S
H2362 C2374 0.950 . S
H2363 C2375 0.950 . S
C2364 H2356 0.950 . S
C2364 C2365 1.386 . S
C2364 C2366 1.391 . S
C2365 C2364 1.386 . S
C2365 C2369 1.393 . S
C2366 H2358 0.950 . S
C2366 C2364 1.391 . S
C2366 C2367 1.400 . S
C2367 C2366 1.400 . S
C2367 C2368 1.398 . S
C2367 C2373 1.491 . S
C2368 H2359 0.950 . S
C2368 C2367 1.398 . S
C2368 C2369 1.391 . S
C2369 H2357 0.950 . S
C2369 C2365 1.393 . S
C2369 C2368 1.391 . S
C2370 H2360 0.950 . S
C2370 C2371 1.386 . S
C2370 C2372 1.391 . S
C2371 C2370 1.386 . S
C2371 C2375 1.393 . S
C2372 H2361 0.950 . S
C2372 C2370 1.391 . S
C2372 C2373 1.400 . S
C2373 C2367 1.491 . S
C2373 C2372 1.400 . S
C2373 C2374 1.398 . S
C2374 H2362 0.950 . S
C2374 C2373 1.398 . S
C2374 C2375 1.391 . S
C2375 H2363 0.950 . S
C2375 C2371 1.393 . S
C2375 C2374 1.391 . S
H2376 C2384 0.950 . S
H2377 C2389 0.950 . S
H2378 C2386 0.950 . S
H2379 C2388 0.950 . S
H2380 C2390 0.950 . S
H2381 C2392 0.950 . S
H2382 C2394 0.950 . S
H2383 C2395 0.950 . S
C2384 H2376 0.950 . S
C2384 C2385 1.386 . S
C2384 C2386 1.391 . S
C2385 C2384 1.386 . S
C2385 C2389 1.393 . S
C2386 H2378 0.950 . S
C2386 C2384 1.391 . S
C2386 C2387 1.400 . S
C2387 C2386 1.400 . S
C2387 C2388 1.398 . S
C2387 C2393 1.491 . S
C2388 H2379 0.950 . S
C2388 C2387 1.398 . S
C2388 C2389 1.391 . S
C2389 H2377 0.950 . S
C2389 C2385 1.393 . S
C2389 C2388 1.391 . S
C2390 H2380 0.950 . S
C2390 C2391 1.386 . S
C2390 C2392 1.391 . S
C2391 C2390 1.386 . S
C2391 C2395 1.393 . S
C2392 H2381 0.950 . S
C2392 C2390 1.391 . S
C2392 C2393 1.400 . S
C2393 C2387 1.491 . S
C2393 C2392 1.400 . S
C2393 C2394 1.398 . S
C2394 H2382 0.950 . S
C2394 C2393 1.398 . S
C2394 C2395 1.391 . S
C2395 H2383 0.950 . S
C2395 C2391 1.393 . S
C2395 C2394 1.391 . S
H2396 C2404 0.950 . S
H2397 C2409 0.950 . S
H2398 C2406 0.950 . S
H2399 C2408 0.950 . S
H2400 C2410 0.950 . S
H2401 C2412 0.950 . S
H2402 C2414 0.950 . S
H2403 C2415 0.950 . S
C2404 H2396 0.950 . S
C2404 C2405 1.386 . S
C2404 C2406 1.391 . S
C2405 C2404 1.386 . S
C2405 C2409 1.393 . S
C2406 H2398 0.950 . S
C2406 C2404 1.391 . S
C2406 C2407 1.400 . S
C2407 C2406 1.400 . S
C2407 C2408 1.398 . S
C2407 C2413 1.491 . S
C2408 H2399 0.950 . S
C2408 C2407 1.398 . S
C2408 C2409 1.391 . S
C2409 H2397 0.950 . S
C2409 C2405 1.393 . S
C2409 C2408 1.391 . S
C2410 H2400 0.950 . S
C2410 C2411 1.386 . S
C2410 C2412 1.391 . S
C2411 C2410 1.386 . S
C2411 C2415 1.393 . S
C2412 H2401 0.950 . S
C2412 C2410 1.391 . S
C2412 C2413 1.400 . S
C2413 C2407 1.491 . S
C2413 C2412 1.400 . S
C2413 C2414 1.398 . S
C2414 H2402 0.950 . S
C2414 C2413 1.398 . S
C2414 C2415 1.391 . S
C2415 H2403 0.950 . S
C2415 C2411 1.393 . S
C2415 C2414 1.391 . S
H2416 C2424 0.950 . S
H2417 C2429 0.950 . S
H2418 C2426 0.950 . S
H2419 C2428 0.950 . S
H2420 C2430 0.950 . S
H2421 C2432 0.950 . S
H2422 C2434 0.950 . S
H2423 C2435 0.950 . S
C2424 H2416 0.950 . S
C2424 C2425 1.386 . S
C2424 C2426 1.391 . S
C2425 C2424 1.386 . S
C2425 C2429 1.393 . S
C2426 H2418 0.950 . S
C2426 C2424 1.391 . S
C2426 C2427 1.400 . S
C2427 C2426 1.400 . S
C2427 C2428 1.398 . S
C2427 C2433 1.491 . S
C2428 H2419 0.950 . S
C2428 C2427 1.398 . S
C2428 C2429 1.391 . S
C2429 H2417 0.950 . S
C2429 C2425 1.393 . S
C2429 C2428 1.391 . S
C2430 H2420 0.950 . S
C2430 C2431 1.386 . S
C2430 C2432 1.391 . S
C2431 C2430 1.386 . S
C2431 C2435 1.393 . S
C2432 H2421 0.950 . S
C2432 C2430 1.391 . S
C2432 C2433 1.400 . S
C2433 C2427 1.491 . S
C2433 C2432 1.400 . S
C2433 C2434 1.398 . S
C2434 H2422 0.950 . S
C2434 C2433 1.398 . S
C2434 C2435 1.391 . S
C2435 H2423 0.950 . S
C2435 C2431 1.393 . S
C2435 C2434 1.391 . S
H2436 C2444 0.950 . S
H2437 C2449 0.950 . S
H2438 C2446 0.950 . S
H2439 C2448 0.950 . S
H2440 C2450 0.950 . S
H2441 C2452 0.950 . S
H2442 C2454 0.950 . S
H2443 C2455 0.950 . S
C2444 H2436 0.950 . S
C2444 C2445 1.386 . S
C2444 C2446 1.391 . S
C2445 C2444 1.386 . S
C2445 C2449 1.393 . S
C2446 H2438 0.950 . S
C2446 C2444 1.391 . S
C2446 C2447 1.400 . S
C2447 C2446 1.400 . S
C2447 C2448 1.398 . S
C2447 C2453 1.491 . S
C2448 H2439 0.950 . S
C2448 C2447 1.398 . S
C2448 C2449 1.391 . S
C2449 H2437 0.950 . S
C2449 C2445 1.393 . S
C2449 C2448 1.391 . S
C2450 H2440 0.950 . S
C2450 C2451 1.386 . S
C2450 C2452 1.391 . S
C2451 C2450 1.386 . S
C2451 C2455 1.393 1_565 S
C2452 H2441 0.950 . S
C2452 C2450 1.391 . S
C2452 C2453 1.400 . S
C2453 C2447 1.491 . S
C2453 C2452 1.400 . S
C2453 C2454 1.398 . S
C2454 H2442 0.950 . S
C2454 C2453 1.398 . S
C2454 C2455 1.391 1_565 S
C2455 H2443 0.950 . S
C2455 C2451 1.393 1_545 S
C2455 C2454 1.391 1_545 S
H2456 C2464 0.950 . S
H2457 C2469 0.950 . S
H2458 C2466 0.950 . S
H2459 C2468 0.950 . S
H2460 C2470 0.950 . S
H2461 C2472 0.950 . S
H2462 C2474 0.950 . S
H2463 C2475 0.950 . S
C2464 H2456 0.950 . S
C2464 C2465 1.386 . S
C2464 C2466 1.391 . S
C2465 C2464 1.386 . S
C2465 C2469 1.393 . S
C2466 H2458 0.950 . S
C2466 C2464 1.391 . S
C2466 C2467 1.400 . S
C2467 C2466 1.400 . S
C2467 C2468 1.398 . S
C2467 C2473 1.491 . S
C2468 H2459 0.950 . S
C2468 C2467 1.398 . S
C2468 C2469 1.391 . S
C2469 H2457 0.950 . S
C2469 C2465 1.393 . S
C2469 C2468 1.391 . S
C2470 H2460 0.950 . S
C2470 C2471 1.386 . S
C2470 C2472 1.391 . S
C2471 C2470 1.386 . S
C2471 C2475 1.393 . S
C2472 H2461 0.950 . S
C2472 C2470 1.391 . S
C2472 C2473 1.400 . S
C2473 C2467 1.491 . S
C2473 C2472 1.400 . S
C2473 C2474 1.398 . S
C2474 H2462 0.950 . S
C2474 C2473 1.398 . S
C2474 C2475 1.391 . S
C2475 H2463 0.950 . S
C2475 C2471 1.393 . S
C2475 C2474 1.391 . S
H2476 C2484 0.950 . S
H2477 C2489 0.950 . S
H2478 C2486 0.950 . S
H2479 C2488 0.950 . S
H2480 C2490 0.934 1_556 S
H2481 C2492 0.950 1_556 S
H2482 C2494 0.950 . S
H2483 C2495 0.950 . S
C2484 H2476 0.950 . S
C2484 C2485 1.386 . S
C2484 C2486 1.391 . S
C2485 C2484 1.386 . S
C2485 C2489 1.393 1_554 S
C2486 H2478 0.950 . S
C2486 C2484 1.391 . S
C2486 C2487 1.400 . S
C2487 C2486 1.400 . S
C2487 C2488 1.398 1_554 S
C2487 C2493 1.491 . S
C2488 H2479 0.950 . S
C2488 C2487 1.398 1_556 S
C2488 C2489 1.391 . S
C2489 H2477 0.950 . S
C2489 C2485 1.393 1_556 S
C2489 C2488 1.391 . S
C2490 H2480 0.934 1_554 S
C2490 C2491 1.386 . S
C2490 C2492 1.391 . S
C2491 C2490 1.386 . S
C2491 C2495 1.393 . S
C2492 H2481 0.950 1_554 S
C2492 C2490 1.391 . S
C2492 C2493 1.400 . S
C2493 C2487 1.491 . S
C2493 C2492 1.400 . S
C2493 C2494 1.398 . S
C2494 H2482 0.950 . S
C2494 C2493 1.398 . S
C2494 C2495 1.391 . S
C2495 H2483 0.950 . S
C2495 C2491 1.393 . S
C2495 C2494 1.391 . S
H2496 C2504 0.950 . S
H2497 C2509 0.950 . S
H2498 C2506 0.950 . S
H2499 C2508 0.950 . S
H2500 C2510 0.950 . S
H2501 C2512 0.950 . S
H2502 C2514 0.950 . S
H2503 C2515 0.950 . S
C2504 H2496 0.950 . S
C2504 C2505 1.386 . S
C2504 C2506 1.391 . S
C2505 C2504 1.386 . S
C2505 C2509 1.393 . S
C2506 H2498 0.950 . S
C2506 C2504 1.391 . S
C2506 C2507 1.400 . S
C2507 C2506 1.400 . S
C2507 C2508 1.398 . S
C2507 C2513 1.491 . S
C2508 H2499 0.950 . S
C2508 C2507 1.398 . S
C2508 C2509 1.391 . S
C2509 H2497 0.950 . S
C2509 C2505 1.393 . S
C2509 C2508 1.391 . S
C2510 H2500 0.950 . S
C2510 C2511 1.386 . S
C2510 C2512 1.391 . S
C2511 C2510 1.386 . S
C2511 C2515 1.393 . S
C2512 H2501 0.950 . S
C2512 C2510 1.391 . S
C2512 C2513 1.400 . S
C2513 C2507 1.491 . S
C2513 C2512 1.400 . S
C2513 C2514 1.398 . S
C2514 H2502 0.950 . S
C2514 C2513 1.398 . S
C2514 C2515 1.391 . S
C2515 H2503 0.950 . S
C2515 C2511 1.393 . S
C2515 C2514 1.391 . S
H2516 C2524 0.950 . S
H2517 C2529 0.950 . S
H2518 C2526 0.954 . S
H2519 C2528 0.950 . S
H2520 C2530 0.950 . S
H2521 C2532 0.950 . S
H2522 C2534 0.943 1_556 S
H2523 C2535 0.950 1_556 S
C2524 H2516 0.950 . S
C2524 C2525 1.386 . S
C2524 C2526 1.391 . S
C2525 C2524 1.386 . S
C2525 C2529 1.393 . S
C2526 H2518 0.954 . S
C2526 C2524 1.391 . S
C2526 C2527 1.400 . S
C2527 C2526 1.400 . S
C2527 C2528 1.398 . S
C2527 C2533 1.491 . S
C2528 H2519 0.950 . S
C2528 C2527 1.398 . S
C2528 C2529 1.391 . S
C2529 H2517 0.950 . S
C2529 C2525 1.393 . S
C2529 C2528 1.391 . S
C2530 H2520 0.950 . S
C2530 C2531 1.386 . S
C2530 C2532 1.391 . S
C2531 C2530 1.386 . S
C2531 C2535 1.393 . S
C2532 H2521 0.950 . S
C2532 C2530 1.391 . S
C2532 C2533 1.400 . S
C2533 C2527 1.491 . S
C2533 C2532 1.400 . S
C2533 C2534 1.398 . S
C2534 H2522 0.943 1_554 S
C2534 C2533 1.398 . S
C2534 C2535 1.391 . S
C2535 H2523 0.950 1_554 S
C2535 C2531 1.393 . S
C2535 C2534 1.391 . S
H2536 C2544 0.950 . S
H2537 C2549 0.950 . S
H2538 C2546 0.950 . S
H2539 C2548 0.950 . S
H2540 C2550 0.950 . S
H2541 C2552 0.950 . S
H2542 C2554 0.950 . S
H2543 C2555 0.950 . S
C2544 H2536 0.950 . S
C2544 C2545 1.386 . S
C2544 C2546 1.391 . S
C2545 C2544 1.386 . S
C2545 C2549 1.393 . S
C2546 H2538 0.950 . S
C2546 C2544 1.391 . S
C2546 C2547 1.400 . S
C2547 C2546 1.400 . S
C2547 C2548 1.398 . S
C2547 C2553 1.491 . S
C2548 H2539 0.950 . S
C2548 C2547 1.398 . S
C2548 C2549 1.391 . S
C2549 H2537 0.950 . S
C2549 C2545 1.393 . S
C2549 C2548 1.391 . S
C2550 H2540 0.950 . S
C2550 C2551 1.386 . S
C2550 C2552 1.391 . S
C2551 C2550 1.386 . S
C2551 C2555 1.393 . S
C2552 H2541 0.950 . S
C2552 C2550 1.391 . S
C2552 C2553 1.400 . S
C2553 C2547 1.491 . S
C2553 C2552 1.400 . S
C2553 C2554 1.398 . S
C2554 H2542 0.950 . S
C2554 C2553 1.398 . S
C2554 C2555 1.391 . S
C2555 H2543 0.950 . S
C2555 C2551 1.393 . S
C2555 C2554 1.391 . S
H2556 C2564 0.950 . S
H2557 C2569 0.950 . S
H2558 C2566 0.950 . S
H2559 C2568 0.950 . S
H2560 C2570 0.950 . S
H2561 C2572 0.950 . S
H2562 C2574 0.950 . S
H2563 C2575 0.950 . S
C2564 H2556 0.950 . S
C2564 C2565 1.386 . S
C2564 C2566 1.391 . S
C2565 C2564 1.386 . S
C2565 C2569 1.393 . S
C2566 H2558 0.950 . S
C2566 C2564 1.391 . S
C2566 C2567 1.400 . S
C2567 C2566 1.400 . S
C2567 C2568 1.398 . S
C2567 C2573 1.491 . S
C2568 H2559 0.950 . S
C2568 C2567 1.398 . S
C2568 C2569 1.391 . S
C2569 H2557 0.950 . S
C2569 C2565 1.393 . S
C2569 C2568 1.391 . S
C2570 H2560 0.950 . S
C2570 C2571 1.386 . S
C2570 C2572 1.391 . S
C2571 C2570 1.386 . S
C2571 C2575 1.393 . S
C2572 H2561 0.950 . S
C2572 C2570 1.391 . S
C2572 C2573 1.400 . S
C2573 C2567 1.491 . S
C2573 C2572 1.400 . S
C2573 C2574 1.398 . S
C2574 H2562 0.950 . S
C2574 C2573 1.398 . S
C2574 C2575 1.391 . S
C2575 H2563 0.950 . S
C2575 C2571 1.393 . S
C2575 C2574 1.391 . S
C665 C106 1.900 . S
C671 C354 1.846 1_556 S
C685 C65 1.603 . S
C691 C365 1.599 . S
C705 C79 1.391 . S
C711 C394 1.354 . S
C731 C397 1.222 . S
C725 C90 1.195 . S
C745 C21 1.363 . S
C751 C435 1.373 . S
C771 C438 1.025 . S
C765 C35 0.977 . S
C791 C465 1.502 . S
C785 C50 1.507 . S
C805 C6 1.624 . S
C811 C494 1.603 . S
C831 C345 1.779 1_655 S
C825 C232 1.778 . S
C845 C245 0.899 . S
C851 C357 0.910 . S
C871 C385 1.629 . S
C865 C274 1.629 . S
C891 C414 1.137 . S
C885 C175 1.139 . S
C905 C231 0.869 . S
C911 C418 0.875 1_655 S
C931 C444 1.571 . S
C925 C246 1.600 . S
C951 C457 0.655 . S
C945 C273 0.630 . S
C971 C485 1.747 . S
C965 C176 1.743 . S
C991 C337 1.557 . S
C985 C160 1.513 . S
C1005 C289 1.749 . S
C1011 C504 1.721 . S
C1031 C535 1.596 . S
C1025 C328 1.591 . S
C1051 C554 1.069 . S
C1045 C317 1.090 . S
C1065 C118 1.332 . S
C1071 C477 1.380 . S
C1085 C132 1.445 . S
C1091 C377 1.504 . S
C1105 C331 1.660 . S
C1111 C565 1.655 . S
C1131 C594 1.105 . S
C1125 C303 1.146 . S
C1151 C355 1.475 . S
C1145 C63 1.487 . S
C1171 C584 1.987 . S
C1165 C107 1.956 . S
C1185 C92 1.152 . S
C1191 C395 1.133 . S
C1205 C78 1.735 . S
C1211 C558 1.749 . S
C1231 C434 1.902 . S
C1225 C8 1.927 . S
C1245 C51 1.124 . S
C1251 C517 1.132 . S
C1271 C464 1.826 1_556 S
C1265 C37 1.800 . S
C1291 C615 1.527 . S
C1285 C20 1.551 . S
C1311 C344 1.552 . S
C1305 C147 1.516 . S
C1331 C578 1.017 . S
C1325 C316 1.046 . S
C1345 C119 1.523 . S
C1351 C384 1.554 . S
C1365 C288 1.226 . S
C1371 C575 1.235 . S
C1385 C148 1.137 1_545 S
C1391 C417 1.145 . S
C1411 C525 1.573 . S
C1405 C315 1.559 . S
C1425 C120 0.935 . S
C1431 C458 0.939 . S
C1445 C287 1.583 . S
C1451 C604 1.612 . S
C1465 C188 1.402 . S
C1471 C338 1.406 . S
C1485 C177 1.981 . S
C1491 C505 1.967 . S
C1505 C258 1.659 . S
C1511 C454 1.659 . S
C1525 C247 1.148 . S
C1531 C555 1.135 . S
C1551 C598 1.254 . S
C1545 C272 1.246 . S
C1565 C216 1.341 . S
C1571 C378 1.370 1_565 S
C1591 C404 1.865 . S
C1585 C261 1.848 . S
C1611 C375 1.087 . S
C1605 C205 1.121 . S
C1625 C76 1.509 . S
C1631 C634 1.520 . S
C1651 C585 1.671 . S
C1645 C93 1.674 . S
C1665 C105 1.016 . S
C1671 C654 1.001 . S
C1685 C62 1.243 . S
C1691 C557 1.257 . S
C1705 C49 1.335 . S
C1711 C515 1.316 . S
C1731 C518 1.397 . S
C1725 C9 1.373 . S
C1751 C545 1.443 . S
C1745 C22 1.444 . S
C1771 C614 1.953 . S
C1765 C36 2.028 . S
C1791 C625 1.709 . S
C1785 C260 1.706 . S
C1805 C189 0.726 . S
C1811 C577 0.749 . S
C1831 C645 1.556 . S
C1825 C204 1.556 . S
C1851 C574 0.948 . S
C1845 C217 0.948 . S
C1871 C498 1.050 . S
C1865 C259 1.026 . S
C1885 C190 1.667 . S
C1891 C524 1.654 . S
C1911 C537 0.786 . S
C1905 C203 0.809 . S
C1925 C218 1.801 . S
C1931 C605 1.804 . S
C1951 C617 1.497 . S
C1945 C314 1.460 . S
C1965 C135 1.803 . S
C1971 C424 1.785 . S
C1991 C455 1.503 . S
C1985 C146 1.509 . S
C2011 C474 1.139 . S
C2005 C163 1.140 . S
C2031 C597 1.411 . S
C2025 C300 1.345 . S
C2045 C286 1.390 . S
C2051 C637 1.467 . S
C2071 C405 1.592 . S
C2065 C149 1.589 . S
C2091 C374 1.055 . S
C2085 C121 1.098 . S
C2105 C91 1.474 . S
C2111 C635 1.468 . S
C2131 C364 1.600 . S
C2125 C77 1.511 . S
C2145 C64 1.120 . S
C2151 C655 1.112 . S
C2165 C104 1.387 . S
C2171 C398 1.425 . S
C2185 C34 1.532 . S
C2191 C514 1.548 1_556 S
C2211 C437 1.087 . S
C2205 C23 1.091 . S
C2225 C7 1.383 . S
C2231 C544 1.453 . S
C2245 C48 1.526 . S
C2251 C495 1.509 . S
C2271 C624 1.531 . S
C2265 C329 1.482 . S
C2285 C162 1.037 . S
C2291 C358 1.012 . S
C2311 C644 1.536 1_655 S
C2305 C301 1.524 . S
C2325 C134 1.233 . S
C2331 C415 1.236 . S
C2345 C330 1.138 . S
C2351 C497 1.143 . S
C2371 C445 1.572 . S
C2365 C161 1.561 . S
C2385 C302 0.925 . S
C2391 C538 0.920 . S
C2411 C484 1.580 . S
C2405 C133 1.578 . S
C2431 C618 1.610 . S
C2425 C244 1.584 . S
C2451 C425 1.959 1_565 S
C2445 C219 1.972 . S
C2465 C230 1.440 . S
C2471 C534 1.414 . S
C2491 C475 1.104 . S
C2485 C191 1.112 . S
C2505 C202 1.419 . S
C2511 C478 1.463 . S
C2525 C174 1.529 . S
C2531 C638 1.564 . S
C2551 C564 1.841 . S
C2545 C233 1.816 1_565 S
C2571 C595 1.091 . S
C2565 C275 1.113 . S
