# Generated by pormake.
# Topology pyr, (3,6)-cn, num edge types: 1
# Building blocks:
#     Node 0, Type 0, BuildingBlock: OLANEW_clean_sbu_2, # of connection points: 3
#     Node 1, Type 0, BuildingBlock: OLANEW_clean_sbu_2, # of connection points: 3
#     Node 2, Type 0, BuildingBlock: OLANEW_clean_sbu_2, # of connection points: 3
#     Node 3, Type 0, BuildingBlock: OLANEW_clean_sbu_2, # of connection points: 3
#     Node 4, Type 0, BuildingBlock: OLANEW_clean_sbu_2, # of connection points: 3
#     Node 5, Type 0, BuildingBlock: OLANEW_clean_sbu_2, # of connection points: 3
#     Node 6, Type 0, BuildingBlock: OLANEW_clean_sbu_2, # of connection points: 3
#     Node 7, Type 0, BuildingBlock: OLANEW_clean_sbu_2, # of connection points: 3
#     Node 8, Type 1, BuildingBlock: MIDCAF_clean_sbu_0, # of connection points: 6
#     Node 9, Type 1, BuildingBlock: MIDCAF_clean_sbu_0, # of connection points: 6
#     Node 10, Type 1, BuildingBlock: MIDCAF_clean_sbu_0, # of connection points: 6
#     Node 11, Type 1, BuildingBlock: MIDCAF_clean_sbu_0, # of connection points: 6
#     Edge 12, Type (0, 1), BuildingBlock: EZIPEK_clean_linker_0, # of connection points: 2
#     Edge 13, Type (0, 1), BuildingBlock: EZIPEK_clean_linker_0, # of connection points: 2
#     Edge 14, Type (0, 1), BuildingBlock: EZIPEK_clean_linker_0, # of connection points: 2
#     Edge 15, Type (0, 1), BuildingBlock: EZIPEK_clean_linker_0, # of connection points: 2
#     Edge 16, Type (0, 1), BuildingBlock: EZIPEK_clean_linker_0, # of connection points: 2
#     Edge 17, Type (0, 1), BuildingBlock: EZIPEK_clean_linker_0, # of connection points: 2
#     Edge 18, Type (0, 1), BuildingBlock: EZIPEK_clean_linker_0, # of connection points: 2
#     Edge 19, Type (0, 1), BuildingBlock: EZIPEK_clean_linker_0, # of connection points: 2
#     Edge 20, Type (0, 1), BuildingBlock: EZIPEK_clean_linker_0, # of connection points: 2
#     Edge 21, Type (0, 1), BuildingBlock: EZIPEK_clean_linker_0, # of connection points: 2
#     Edge 22, Type (0, 1), BuildingBlock: EZIPEK_clean_linker_0, # of connection points: 2
#     Edge 23, Type (0, 1), BuildingBlock: EZIPEK_clean_linker_0, # of connection points: 2
#     Edge 24, Type (0, 1), BuildingBlock: EZIPEK_clean_linker_0, # of connection points: 2
#     Edge 25, Type (0, 1), BuildingBlock: EZIPEK_clean_linker_0, # of connection points: 2
#     Edge 26, Type (0, 1), BuildingBlock: EZIPEK_clean_linker_0, # of connection points: 2
#     Edge 27, Type (0, 1), BuildingBlock: EZIPEK_clean_linker_0, # of connection points: 2
#     Edge 28, Type (0, 1), BuildingBlock: EZIPEK_clean_linker_0, # of connection points: 2
#     Edge 29, Type (0, 1), BuildingBlock: EZIPEK_clean_linker_0, # of connection points: 2
#     Edge 30, Type (0, 1), BuildingBlock: EZIPEK_clean_linker_0, # of connection points: 2
#     Edge 31, Type (0, 1), BuildingBlock: EZIPEK_clean_linker_0, # of connection points: 2
#     Edge 32, Type (0, 1), BuildingBlock: EZIPEK_clean_linker_0, # of connection points: 2
#     Edge 33, Type (0, 1), BuildingBlock: EZIPEK_clean_linker_0, # of connection points: 2
#     Edge 34, Type (0, 1), BuildingBlock: EZIPEK_clean_linker_0, # of connection points: 2
#     Edge 35, Type (0, 1), BuildingBlock: EZIPEK_clean_linker_0, # of connection points: 2
# Relax obj value: 0.080
# Max RMSD: 0.155
# Mean RMSD: 0.117
data_MOF--net-pyr--node1-OLANEW_clean_sbu_2--node2-MIDCAF_clean_sbu_0--edge1-EZIPEK_clean_linker_0
_symmetry_space_group_name_H-M    P1
_symmetry_Int_Tables_number       1
_symmetry_cell_setting            triclinic
loop_
_symmetry_equiv_pos_as_xyz
'x, y, z'
_cell_length_a     28.139878
_cell_length_b     28.177088
_cell_length_c     27.556059
_cell_angle_alpha  94.849906
_cell_angle_beta   89.254557
_cell_angle_gamma 95.981147
loop_
_atom_site_label
_atom_site_type_symbol
_atom_site_fract_x
_atom_site_fract_y
_atom_site_fract_z
_atom_type_partial_charge
O0 O 0.35526 0.28014 0.27038 0.0
Cd1 Cd 0.29072 0.32599 0.30367 0.0
O2 O 0.31279 0.21071 0.27596 0.0
Cd3 Cd 0.25687 0.23606 0.32459 0.0
O4 O 0.20309 0.21305 0.37839 0.0
C5 C 0.21684 0.19053 0.41289 0.0
O6 O 0.26263 0.18683 0.41781 0.0
C7 C 0.35035 0.23483 0.2617 0.0
C8 C 0.23441 0.35902 0.23278 0.0
O9 O 0.27219 0.38439 0.24902 0.0
O10 O 0.22338 0.31814 0.24933 0.0
O11 O 0.36133 0.78782 0.91844 0.0
Cd12 Cd 0.316 0.72638 0.86367 0.0
O13 O 0.30862 0.83279 0.8953 0.0
Cd14 Cd 0.26927 0.89374 0.88189 0.0
O15 O 0.21272 0.92039 0.8401 0.0
C16 C 0.21299 0.90912 0.79441 0.0
O17 O 0.24668 0.88406 0.77578 0.0
C18 C 0.34569 0.82862 0.91996 0.0
C19 C 0.37273 0.68732 0.78965 0.0
O20 O 0.35688 0.72798 0.78664 0.0
O21 O 0.36134 0.66485 0.82736 0.0
O22 O 0.8397 0.3773 0.77627 0.0
Cd23 Cd 0.79472 0.32815 0.71091 0.0
O24 O 0.8214 0.31825 0.82183 0.0
Cd25 Cd 0.8177 0.2775 0.88632 0.0
O26 O 0.78139 0.22394 0.93123 0.0
C27 C 0.73603 0.22116 0.93046 0.0
O28 O 0.71522 0.24961 0.90398 0.0
C29 C 0.84343 0.35928 0.81661 0.0
C30 C 0.72536 0.37733 0.67246 0.0
O31 O 0.76821 0.38078 0.65583 0.0
O32 O 0.71483 0.34964 0.70647 0.0
O33 O 0.96325 0.81523 0.28923 0.0
Cd34 Cd 0.94684 0.77332 0.20887 0.0
O35 O 0.88842 0.79396 0.30743 0.0
Cd36 Cd 0.82573 0.78862 0.35476 0.0
O37 O 0.76339 0.75852 0.39395 0.0
C38 C 0.72317 0.74656 0.37355 0.0
O39 O 0.71717 0.7546 0.32789 0.0
C40 C 0.92893 0.81554 0.31965 0.0
C41 C 0.97506 0.68099 0.19412 0.0
O42 O 1.00124 0.71684 0.17906 0.0
O43 O 0.93683 0.68908 0.2178 0.0
O44 O 0.92502 0.85898 0.87682 0.0
Cd45 Cd 0.90558 0.8274 0.9561 0.0
O46 O 0.93911 0.93566 0.90259 0.0
Cd47 Cd 0.90497 0.931 0.9734 0.0
O48 O 0.84186 0.95906 0.00749 0.0
C49 C 0.82601 0.99459 0.98978 0.0
O50 O 0.84896 0.01461 0.95371 0.0
C51 C 0.93868 0.90212 0.86867 0.0
C52 C 0.92982 0.73386 0.96166 0.0
O53 O 0.95936 0.77045 0.97422 0.0
O54 O 0.8885 0.74102 0.94653 0.0
O55 O 0.59626 0.00767 0.40071 0.0
Cd56 Cd 0.62762 0.9596 0.46067 0.0
O57 O 0.60549 0.07679 0.44466 0.0
Cd58 Cd 0.60171 0.15378 0.45935 0.0
O59 O 0.60151 0.23128 0.47268 0.0
C60 C 0.57196 0.24882 0.50261 0.0
O61 O 0.54317 0.21998 0.5274 0.0
C62 C 0.59207 0.05236 0.40539 0.0
C63 C 0.72682 0.96168 0.46421 0.0
O64 O 0.70441 0.99175 0.49066 0.0
O65 O 0.70274 0.9313 0.43437 0.0
O66 O 0.54839 0.7379 0.13132 0.0
Cd67 Cd 0.59029 0.67051 0.15063 0.0
O68 O 0.47933 0.70578 0.15737 0.0
Cd69 Cd 0.40278 0.70324 0.17281 0.0
O70 O 0.32765 0.67484 0.17433 0.0
C71 C 0.31742 0.64098 0.14161 0.0
O72 O 0.35169 0.62656 0.11293 0.0
C73 C 0.50404 0.74026 0.13907 0.0
C74 C 0.57556 0.64797 0.24625 0.0
O75 O 0.61148 0.67702 0.23543 0.0
O76 O 0.54696 0.62985 0.2122 0.0
O77 O 0.15576 0.47336 0.76957 0.0
Cd78 Cd 0.15542 0.53766 0.7156 0.0
O79 O 0.1465 0.41766 0.70908 0.0
Cd80 Cd 0.13335 0.35016 0.66336 0.0
O81 O 0.10323 0.34926 0.59011 0.0
C82 C 0.07998 0.31697 0.56218 0.0
O83 O 0.06267 0.32954 0.52165 0.0
C84 C 0.15056 0.42919 0.75457 0.0
C85 C 0.24421 0.55564 0.6725 0.0
O86 O 0.2338 0.57994 0.71191 0.0
O87 O 0.21254 0.5239 0.65324 0.0
Zn88 Zn 0.95264 0.05146 0.62132 0.0
Zn89 Zn 0.08674 0.95833 0.54001 0.0
Zn90 Zn 0.01748 0.00399 0.58184 0.0
C91 C 0.10416 0.05521 0.52231 0.0
C92 C 0.00341 0.92056 0.49293 0.0
O93 O 0.00372 0.97462 0.65418 0.0
O94 O 0.94343 0.01426 0.67877 0.0
C95 C 0.02014 0.12131 0.60143 0.0
O96 O 0.06954 0.05898 0.55304 0.0
O97 O 0.11671 0.01461 0.50801 0.0
O98 O 0.04534 0.90954 0.49818 0.0
O99 O 0.98816 0.95545 0.51992 0.0
O100 O 0.98274 0.11793 0.62714 0.0
O101 O 0.03652 0.08317 0.58132 0.0
O102 O 0.95168 0.98123 0.53985 0.0
O103 O 0.90381 0.03407 0.56962 0.0
C104 C 0.91145 0.99919 0.53976 0.0
O105 O 0.05195 0.96978 0.63983 0.0
O106 O 0.11569 0.94439 0.60208 0.0
C107 C 0.96827 0.98016 0.68358 0.0
C108 C 0.09242 0.95213 0.64094 0.0
Zn109 Zn 0.48982 0.08783 0.0401 0.0
Zn110 Zn 0.5888 0.9923 0.15119 0.0
Zn111 Zn 0.5361 0.03871 0.1023 0.0
C112 C 0.64974 0.0225 0.08338 0.0
C113 C 0.51303 0.92758 0.11737 0.0
O114 O 0.5008 0.09204 0.14963 0.0
O115 O 0.4599 0.12468 0.09516 0.0
C116 C 0.58712 0.1068 0.02203 0.0
O117 O 0.61211 0.0434 0.0758 0.0
O118 O 0.64972 0.994 0.11617 0.0
O119 O 0.54745 0.93152 0.14675 0.0
O120 O 0.50397 0.96345 0.0943 0.0
O121 O 0.54784 0.11872 0.00799 0.0
O122 O 0.58812 0.07667 0.05461 0.0
O123 O 0.48315 0.98792 0.05961 0.0
O124 O 0.45221 0.03081 0.00647 0.0
C125 C 0.45517 0.99096 0.02347 0.0
O126 O 0.529 0.06668 0.18016 0.0
O127 O 0.58663 0.03184 0.2125 0.0
C128 C 0.47108 0.12146 0.13898 0.0
C129 C 0.55459 0.05997 0.21702 0.0
Zn130 Zn 0.5968 0.61345 0.60326 0.0
Zn131 Zn 0.46293 0.50784 0.4801 0.0
Zn132 Zn 0.53096 0.55693 0.54296 0.0
C133 C 0.52502 0.44346 0.5136 0.0
C134 C 0.51912 0.57475 0.42852 0.0
O135 O 0.49286 0.59201 0.60434 0.0
O136 O 0.54752 0.63805 0.64887 0.0
C137 C 0.61202 0.51406 0.60103 0.0
O138 O 0.54506 0.48134 0.53755 0.0
O139 O 0.48928 0.44563 0.48683 0.0
O140 O 0.48354 0.54362 0.4225 0.0
O141 O 0.53979 0.58327 0.47021 0.0
O142 O 0.62707 0.55546 0.61947 0.0
O143 O 0.57663 0.50786 0.57131 0.0
O144 O 0.57332 0.60973 0.50135 0.0
O145 O 0.62527 0.65306 0.55132 0.0
C146 C 0.6079 0.64312 0.50921 0.0
O147 O 0.45955 0.56455 0.5732 0.0
O148 O 0.4073 0.52456 0.52117 0.0
C149 C 0.50441 0.62188 0.64136 0.0
C150 C 0.41626 0.54943 0.56094 0.0
Zn151 Zn 0.10916 0.52852 0.96307 0.0
Zn152 Zn 0.01824 0.41311 0.05033 0.0
Zn153 Zn 0.0641 0.47594 0.01484 0.0
C154 C 0.10432 0.41722 0.09292 0.0
C155 C 0.97073 0.43103 0.9724 0.0
O156 O 0.0117 0.52404 0.99435 0.0
O157 O 0.0591 0.57153 0.95069 0.0
C158 C 0.14952 0.54475 0.05775 0.0
O159 O 0.1001 0.46062 0.08318 0.0
O160 O 0.07567 0.38352 0.07361 0.0
O161 O 0.98444 0.39351 0.98731 0.0
O162 O 0.99048 0.47214 0.98941 0.0
O163 O 0.15698 0.55434 0.01416 0.0
O164 O 0.1135 0.51537 0.0687 0.0
O165 O 0.09201 0.42183 0.96631 0.0
O166 O 0.12318 0.47345 0.91608 0.0
C167 C 0.1138 0.43062 0.92671 0.0
O168 O 0.06617 0.50134 0.09193 0.0
O169 O 0.99295 0.46776 0.09518 0.0
C170 C 0.01906 0.56163 0.97065 0.0
C171 C 0.02451 0.49997 0.11229 0.0
C172 C 0.14995 0.12469 0.41808 0.0
C173 C 0.18177 0.16155 0.44195 0.0
C174 C 0.15706 0.13324 0.52139 0.0
C175 C 0.12528 0.09685 0.49715 0.0
N176 N 0.08017 0.06775 0.42517 0.0
N177 N 0.20742 0.20814 0.5161 0.0
C178 C 0.11803 0.09596 0.44634 0.0
C179 C 0.18279 0.16808 0.49368 0.0
N180 N 0.15242 0.11455 0.36873 0.0
N181 N 0.16392 0.13342 0.57039 0.0
H182 H 0.226 0.23445 0.49667 0.0
H183 H 0.20585 0.21747 0.55341 0.0
H184 H 0.14444 0.10931 0.5917 0.0
H185 H 0.19042 0.15571 0.58945 0.0
H186 H 0.13375 0.08454 0.35052 0.0
H187 H 0.17641 0.13311 0.34623 0.0
H188 H 0.07017 0.06916 0.38909 0.0
H189 H 0.05565 0.04683 0.44521 0.0
C190 C 0.36971 0.8767 0.99868 0.0
C191 C 0.37265 0.87049 0.94705 0.0
C192 C 0.4359 0.93727 0.94769 0.0
C193 C 0.42874 0.94739 0.99848 0.0
N194 N 0.38485 0.93022 0.07183 0.0
N195 N 0.40461 0.89785 0.87148 0.0
C196 C 0.39482 0.91782 0.02403 0.0
C197 C 0.40444 0.90183 0.92128 0.0
N198 N 0.34317 0.84316 0.02349 0.0
N199 N 0.47442 0.95982 0.9251 0.0
H200 H 0.38343 0.87125 0.8507 0.0
H201 H 0.42299 0.92311 0.85075 0.0
H202 H 0.49955 0.98447 0.94357 0.0
H203 H 0.48441 0.95045 0.88933 0.0
H204 H 0.34419 0.84252 0.0612 0.0
H205 H 0.32252 0.81389 0.00609 0.0
H206 H 0.35705 0.91295 0.09108 0.0
H207 H 0.40198 0.96028 0.09147 0.0
C208 C 0.68166 0.40528 0.6032 0.0
C209 C 0.68974 0.40655 0.65408 0.0
C210 C 0.63367 0.46703 0.66825 0.0
C211 C 0.63353 0.47261 0.61767 0.0
N212 N 0.65962 0.44887 0.53623 0.0
N213 N 0.67753 0.44345 0.7353 0.0
C214 C 0.6576 0.44183 0.5847 0.0
C215 C 0.66635 0.43822 0.68687 0.0
N216 N 0.696 0.36859 0.57279 0.0
N217 N 0.60211 0.48889 0.69844 0.0
H218 H 0.70263 0.42463 0.75073 0.0
H219 H 0.66523 0.46997 0.75948 0.0
H220 H 0.57681 0.50932 0.68563 0.0
H221 H 0.59757 0.48241 0.73497 0.0
H222 H 0.68678 0.36316 0.53609 0.0
H223 H 0.71275 0.3407 0.58544 0.0
H224 H 0.6809 0.43063 0.5114 0.0
H225 H 0.64269 0.4754 0.52129 0.0
C226 C 0.03434 0.61903 0.19045 0.0
C227 C 0.98737 0.63118 0.18227 0.0
C228 C 0.96314 0.54769 0.15459 0.0
C229 C 0.01165 0.539 0.14928 0.0
N230 N 0.09242 0.5608 0.17663 0.0
N231 N 0.9083 0.60678 0.14899 0.0
C232 C 0.0472 0.57314 0.17167 0.0
C233 C 0.95188 0.59536 0.16282 0.0
N234 N 0.06577 0.65071 0.21738 0.0
N235 N 0.9278 0.51061 0.15401 0.0
H236 H 0.89894 0.64169 0.15074 0.0
H237 H 0.88347 0.58189 0.13043 0.0
H238 H 0.93514 0.47521 0.15521 0.0
H239 H 0.89203 0.51575 0.16053 0.0
H240 H 0.09987 0.64385 0.22686 0.0
H241 H 0.05643 0.68323 0.23364 0.0
H242 H 0.12155 0.58461 0.18823 0.0
H243 H 0.10056 0.52559 0.17011 0.0
C244 C 0.39795 0.16377 0.24902 0.0
C245 C 0.38802 0.20919 0.23498 0.0
C246 C 0.44736 0.20165 0.16961 0.0
C247 C 0.44845 0.15256 0.17697 0.0
N248 N 0.41567 0.08463 0.219 0.0
N249 N 0.39843 0.2672 0.17432 0.0
C250 C 0.42174 0.13292 0.21577 0.0
C251 C 0.41183 0.2275 0.19354 0.0
N252 N 0.38552 0.15023 0.29428 0.0
N253 N 0.48006 0.22355 0.13949 0.0
H254 H 0.36997 0.28538 0.18751 0.0
H255 H 0.41208 0.27876 0.14149 0.0
H256 H 0.50733 0.20584 0.1224 0.0
H257 H 0.48321 0.26031 0.13603 0.0
H258 H 0.3954 0.11888 0.30706 0.0
H259 H 0.37079 0.17299 0.32088 0.0
H260 H 0.39279 0.06864 0.24437 0.0
H261 H 0.42919 0.06037 0.19314 0.0
C262 C 0.16392 0.96783 0.75808 0.0
C263 C 0.174 0.91997 0.76232 0.0
C264 C 0.12357 0.89231 0.69153 0.0
C265 C 0.11325 0.94003 0.68714 0.0
N266 N 0.11451 0.02149 0.72265 0.0
N267 N 0.15121 0.83571 0.74342 0.0
C268 C 0.12995 0.97711 0.72294 0.0
C269 C 0.15001 0.88191 0.73216 0.0
N270 N 0.18925 0.00479 0.78493 0.0
N271 N 0.10858 0.85685 0.65647 0.0
H272 H 0.16878 0.82697 0.77405 0.0
H273 H 0.13063 0.80668 0.72566 0.0
H274 H 0.08558 0.86191 0.62839 0.0
H275 H 0.12045 0.82292 0.65419 0.0
H276 H 0.18779 0.04067 0.77925 0.0
H277 H 0.21473 0.99977 0.81058 0.0
H278 H 0.12127 0.04832 0.75081 0.0
H279 H 0.09159 0.0305 0.69632 0.0
C280 C 0.9223 0.40244 0.84599 0.0
C281 C 0.87406 0.38523 0.85611 0.0
C282 C 0.88699 0.40871 0.94316 0.0
C283 C 0.93496 0.42562 0.93291 0.0
N284 N 0.99531 0.44957 0.87468 0.0
N285 N 0.80722 0.38427 0.91188 0.0
C286 C 0.95131 0.42672 0.88418 0.0
C287 C 0.85536 0.3921 0.90404 0.0
N288 N 0.94159 0.39247 0.80091 0.0
N289 N 0.87212 0.40738 0.99048 0.0
H290 H 0.78289 0.37351 0.88386 0.0
H291 H 0.79092 0.39277 0.94516 0.0
H292 H 0.89355 0.42213 0.01974 0.0
H293 H 0.8396 0.38986 0.00079 0.0
H294 H 0.97727 0.40135 0.79218 0.0
H295 H 0.92328 0.3715 0.77281 0.0
H296 H 0.00769 0.45594 0.83984 0.0
H297 H 0.01796 0.46625 0.90206 0.0
C298 C 0.66017 0.74571 0.43849 0.0
C299 C 0.68462 0.72064 0.40084 0.0
C300 C 0.65322 0.64395 0.43012 0.0
C301 C 0.62932 0.66898 0.46841 0.0
N302 N 0.599 0.74181 0.5014 0.0
N303 N 0.69353 0.64696 0.35202 0.0
C304 C 0.62929 0.7194 0.47014 0.0
C305 C 0.67717 0.67005 0.39355 0.0
N306 N 0.66741 0.79456 0.44457 0.0
N307 N 0.65601 0.5958 0.43049 0.0
H308 H 0.71229 0.66493 0.32502 0.0
H309 H 0.68461 0.61063 0.34224 0.0
H310 H 0.63968 0.57517 0.4569 0.0
H311 H 0.6775 0.57673 0.40664 0.0
H312 H 0.65532 0.81477 0.47473 0.0
H313 H 0.68756 0.8149 0.42016 0.0
H314 H 0.59403 0.77791 0.50146 0.0
H315 H 0.57538 0.72318 0.52434 0.0
C316 C 0.15956 0.39505 0.21377 0.0
C317 C 0.20288 0.37726 0.19731 0.0
C318 C 0.18172 0.38605 0.11255 0.0
C319 C 0.13948 0.40603 0.12905 0.0
N320 N 0.08839 0.43176 0.19481 0.0
N321 N 0.25919 0.36238 0.13265 0.0
C322 C 0.12864 0.41144 0.1796 0.0
C323 C 0.2152 0.37487 0.14714 0.0
N324 N 0.14751 0.39506 0.26206 0.0
N325 N 0.18917 0.37658 0.06369 0.0
H326 H 0.28394 0.35241 0.15672 0.0
H327 H 0.27265 0.36518 0.09753 0.0
H328 H 0.16656 0.38608 0.03722 0.0
H329 H 0.21614 0.35696 0.04922 0.0
H330 H 0.11431 0.40224 0.27615 0.0
H331 H 0.17024 0.38558 0.28841 0.0
H332 H 0.08092 0.44231 0.23095 0.0
H333 H 0.06295 0.4403 0.1708 0.0
C334 C 0.67711 0.148 0.92735 0.0
C335 C 0.70608 0.18414 0.9556 0.0
C336 C 0.66291 0.16251 0.02978 0.0
C337 C 0.63218 0.12838 0.00098 0.0
N338 N 0.61731 0.0791 0.9261 0.0
N339 N 0.73515 0.21801 0.03423 0.0
C340 C 0.64168 0.11809 0.95083 0.0
C341 C 0.70206 0.18849 0.00713 0.0
N342 N 0.6829 0.14312 0.8779 0.0
N343 N 0.65283 0.17227 0.07807 0.0
H344 H 0.76315 0.2389 0.01875 0.0
H345 H 0.73729 0.21912 0.07199 0.0
H346 H 0.62498 0.15363 0.09615 0.0
H347 H 0.67018 0.2006 0.09989 0.0
H348 H 0.65932 0.12185 0.85436 0.0
H349 H 0.71086 0.16186 0.85998 0.0
H350 H 0.62536 0.06662 0.89064 0.0
H351 H 0.59143 0.05647 0.94267 0.0
C352 C 0.93588 0.89173 0.37332 0.0
C353 C 0.93663 0.84142 0.36836 0.0
C354 C 0.96493 0.84367 0.45229 0.0
C355 C 0.97322 0.89428 0.45357 0.0
N356 N 0.96828 0.96725 0.41425 0.0
N357 N 0.95045 0.76828 0.4026 0.0
C358 C 0.95818 0.91872 0.41428 0.0
C359 C 0.95009 0.8169 0.408 0.0
N360 N 0.91387 0.91361 0.3387 0.0
N361 N 0.97063 0.82148 0.49374 0.0
H362 H 0.93797 0.74754 0.37129 0.0
H363 H 0.96525 0.74879 0.42797 0.0
H364 H 0.98047 0.8405 0.52687 0.0
H365 H 0.96126 0.78509 0.49656 0.0
H366 H 0.9077 0.94954 0.34262 0.0
H367 H 0.89754 0.89459 0.30814 0.0
H368 H 0.96335 0.9861 0.38411 0.0
H369 H 0.98479 0.98869 0.44308 0.0
C370 C 0.39331 0.66875 0.70109 0.0
C371 C 0.40454 0.66754 0.75113 0.0
C372 C 0.47478 0.62642 0.7273 0.0
C373 C 0.46794 0.63496 0.67805 0.0
N374 N 0.42423 0.67126 0.61878 0.0
N375 N 0.4628 0.65433 0.81123 0.0
C376 C 0.42809 0.658 0.665 0.0
C377 C 0.447 0.64859 0.76419 0.0
N378 N 0.34888 0.67825 0.68782 0.0
N379 N 0.50718 0.59631 0.73892 0.0
H380 H 0.44576 0.67332 0.83922 0.0
H381 H 0.49598 0.64509 0.82133 0.0
H382 H 0.52734 0.57826 0.71274 0.0
H383 H 0.51014 0.58532 0.77384 0.0
H384 H 0.33766 0.67564 0.65172 0.0
H385 H 0.32148 0.68346 0.71292 0.0
H386 H 0.3984 0.69246 0.60874 0.0
H387 H 0.44919 0.66444 0.59145 0.0
C388 C 0.98223 0.90209 0.78806 0.0
C389 C 0.94352 0.91527 0.8179 0.0
C390 C 0.91182 0.95311 0.75021 0.0
C391 C 0.95554 0.94891 0.72459 0.0
N392 N 0.01019 0.88995 0.70532 0.0
N393 N 0.869 0.9511 0.82669 0.0
C394 C 0.98517 0.91514 0.73929 0.0
C395 C 0.90745 0.93996 0.79869 0.0
N396 N 0.01703 0.87854 0.80652 0.0
N397 N 0.87263 0.96385 0.72613 0.0
H398 H 0.86163 0.93845 0.86076 0.0
H399 H 0.84556 0.97497 0.81704 0.0
H400 H 0.87235 0.96546 0.68845 0.0
H401 H 0.83866 0.96365 0.7416 0.0
H402 H 0.0486 0.87286 0.78768 0.0
H403 H 0.01576 0.86787 0.84191 0.0
H404 H 0.02743 0.86064 0.71345 0.0
H405 H 0.00627 0.8927 0.66815 0.0
C406 C 0.59734 0.10696 0.33667 0.0
C407 C 0.57012 0.0738 0.36475 0.0
C408 C 0.51527 0.05056 0.29687 0.0
C409 C 0.54539 0.07957 0.26721 0.0
N410 N 0.60287 0.14762 0.26183 0.0
N411 N 0.49391 0.03004 0.37865 0.0
C412 C 0.58166 0.11281 0.28878 0.0
C413 C 0.52542 0.05166 0.34726 0.0
N414 N 0.63993 0.12938 0.35373 0.0
N415 N 0.48062 0.01801 0.27592 0.0
H416 H 0.5012 0.03059 0.41578 0.0
H417 H 0.45927 0.01615 0.36886 0.0
H418 H 0.47352 0.01544 0.23871 0.0
H419 H 0.46121 0.99181 0.29473 0.0
H420 H 0.66378 0.14984 0.33271 0.0
H421 H 0.65259 0.12563 0.3884 0.0
H422 H 0.62774 0.17515 0.27587 0.0
H423 H 0.5917 0.15089 0.22634 0.0
C424 C 0.57466 0.5841 0.30376 0.0
C425 C 0.5689 0.63229 0.296 0.0
C426 C 0.5367 0.64541 0.37869 0.0
C427 C 0.5407 0.59668 0.38548 0.0
N428 N 0.57593 0.52398 0.36154 0.0
N429 N 0.55522 0.7119 0.32852 0.0
C430 C 0.56348 0.5673 0.35005 0.0
C431 C 0.5537 0.6641 0.33447 0.0
N432 N 0.59025 0.5542 0.26657 0.0
N433 N 0.51477 0.67305 0.41358 0.0
H434 H 0.56568 0.7264 0.29599 0.0
H435 H 0.5495 0.73775 0.35664 0.0
H436 H 0.50305 0.66065 0.44674 0.0
H437 H 0.50601 0.70736 0.40902 0.0
H438 H 0.58915 0.51727 0.2677 0.0
H439 H 0.60255 0.56606 0.23336 0.0
H440 H 0.59683 0.50269 0.3393 0.0
H441 H 0.56932 0.51136 0.39573 0.0
C442 C 0.18566 0.39758 0.82483 0.0
C443 C 0.14732 0.39394 0.79164 0.0
C444 C 0.0911 0.37328 0.85655 0.0
C445 C 0.12681 0.39265 0.89018 0.0
N446 N 0.20962 0.40378 0.91017 0.0
N447 N 0.06781 0.36005 0.77106 0.0
C448 C 0.17509 0.39647 0.87531 0.0
C449 C 0.10143 0.37437 0.80586 0.0
N450 N 0.23118 0.40619 0.80775 0.0
N451 N 0.04701 0.35795 0.87369 0.0
H452 H 0.07573 0.3618 0.73416 0.0
H453 H 0.03364 0.34434 0.77819 0.0
H454 H 0.04048 0.3574 0.91103 0.0
H455 H 0.01804 0.34463 0.85176 0.0
H456 H 0.26147 0.41112 0.82956 0.0
H457 H 0.23811 0.40693 0.77045 0.0
H458 H 0.2461 0.40825 0.90295 0.0
H459 H 0.20064 0.40364 0.9471 0.0
C460 C 0.78045 0.03817 0.05507 0.0
C461 C 0.78102 0.01219 0.00872 0.0
C462 C 0.69356 0.00591 0.00517 0.0
C463 C 0.69304 0.02921 0.05282 0.0
N464 N 0.73387 0.07992 0.11678 0.0
N465 N 0.74021 0.98269 0.934 0.0
C466 C 0.73602 0.04957 0.0756 0.0
C467 C 0.7382 1.00023 0.9817 0.0
N468 N 0.82223 0.05066 0.07991 0.0
N469 N 0.65165 0.98622 0.98389 0.0
H470 H 0.7721 0.97617 0.91623 0.0
H471 H 0.71082 0.97807 0.91089 0.0
H472 H 0.61827 0.99077 0.99939 0.0
H473 H 0.64978 0.96353 0.952 0.0
H474 H 0.8239 0.06477 0.11606 0.0
H475 H 0.85557 0.04498 0.0648 0.0
H476 H 0.76366 0.09924 0.13346 0.0
H477 H 0.70142 0.08911 0.13167 0.0
C478 C 0.80873 0.00442 0.45691 0.0
C479 C 0.77942 0.96289 0.46868 0.0
C480 C 0.84569 0.93592 0.51244 0.0
C481 C 0.87289 0.98005 0.50529 0.0
N482 N 0.88801 0.04824 0.45874 0.0
N483 N 0.77331 0.88274 0.4944 0.0
C484 C 0.85687 0.01152 0.47315 0.0
C485 C 0.79927 0.92619 0.49155 0.0
N486 N 0.78979 0.03768 0.43169 0.0
N487 N 0.86275 0.90515 0.54213 0.0
H488 H 0.73866 0.87511 0.48107 0.0
H489 H 0.78718 0.85299 0.5064 0.0
H490 H 0.89713 0.91048 0.55655 0.0
H491 H 0.84256 0.87525 0.55404 0.0
H492 H 0.80717 0.07135 0.42661 0.0
H493 H 0.75558 0.03186 0.41673 0.0
H494 H 0.88021 0.07085 0.43263 0.0
H495 H 0.92357 0.05335 0.47012 0.0
C496 C 0.22947 0.64228 0.12443 0.0
C497 C 0.26833 0.61658 0.13542 0.0
C498 C 0.22299 0.54105 0.10648 0.0
C499 C 0.18465 0.56657 0.09445 0.0
N500 N 0.14531 0.6385 0.10386 0.0
N501 N 0.29522 0.54159 0.15335 0.0
C502 C 0.18579 0.61626 0.10797 0.0
C503 C 0.26254 0.56587 0.13221 0.0
N504 N 0.23523 0.69113 0.12588 0.0
N505 N 0.22363 0.49412 0.08978 0.0
H506 H 0.32421 0.55917 0.17314 0.0
H507 H 0.29068 0.50466 0.15565 0.0
H508 H 0.19588 0.47529 0.06931 0.0
H509 H 0.25321 0.47521 0.09277 0.0
H510 H 0.21 0.71123 0.1126 0.0
H511 H 0.26649 0.71178 0.13746 0.0
H512 H 0.14236 0.67376 0.11724 0.0
H513 H 0.11315 0.61992 0.09136 0.0
C514 C 0.33213 0.54847 0.67019 0.0
C515 C 0.29141 0.56384 0.64885 0.0
C516 C 0.33854 0.58325 0.57651 0.0
C517 C 0.37613 0.55964 0.59398 0.0
N518 N 0.40814 0.51651 0.65619 0.0
N519 N 0.25507 0.59732 0.58258 0.0
C520 C 0.37329 0.54217 0.64091 0.0
C521 C 0.29449 0.58197 0.60232 0.0
N522 N 0.33126 0.53911 0.71807 0.0
N523 N 0.34562 0.60802 0.53601 0.0
H524 H 0.22323 0.60022 0.60192 0.0
H525 H 0.25318 0.60523 0.54647 0.0
H526 H 0.37805 0.61056 0.51711 0.0
H527 H 0.32133 0.62981 0.5239 0.0
H528 H 0.36164 0.53336 0.73703 0.0
H529 H 0.30112 0.54127 0.74019 0.0
H530 H 0.40528 0.49826 0.68758 0.0
H531 H 0.4385 0.50998 0.63571 0.0
C532 C 0.95792 0.67201 0.01156 0.0
C533 C 0.94331 0.68467 0.96572 0.0
C534 C 0.96215 0.60655 0.92823 0.0
C535 C 0.98442 0.59796 0.97196 0.0
N536 N 0.00701 0.62419 0.05486 0.0
N537 N 0.9336 0.66511 0.87914 0.0
C538 C 0.98254 0.63072 0.01383 0.0
C539 C 0.94512 0.65188 0.92375 0.0
N540 N 0.94748 0.69905 0.0531 0.0
N541 N 0.95754 0.57123 0.89101 0.0
H542 H 0.92149 0.69805 0.8741 0.0
H543 H 0.93936 0.64496 0.84656 0.0
H544 H 0.96966 0.53789 0.89396 0.0
H545 H 0.93788 0.57319 0.85963 0.0
H546 H 0.95307 0.68896 0.08788 0.0
H547 H 0.92876 0.72911 0.05284 0.0
H548 H 0.01309 0.65059 0.08352 0.0
H549 H 0.02421 0.59374 0.05886 0.0
C550 C 0.46595 0.8157 0.16393 0.0
C551 C 0.48295 0.78372 0.12667 0.0
C552 C 0.49463 0.84791 0.07185 0.0
C553 C 0.48438 0.88062 0.11133 0.0
N554 N 0.44178 0.89523 0.1858 0.0
N555 N 0.49504 0.76451 0.04106 0.0
C556 C 0.46268 0.86386 0.15394 0.0
C557 C 0.49049 0.79827 0.07891 0.0
N558 N 0.45746 0.80164 0.20975 0.0
N559 N 0.51209 0.8647 0.02942 0.0
H560 H 0.49179 0.72798 0.04608 0.0
H561 H 0.49749 0.77219 0.00476 0.0
H562 H 0.51438 0.90095 0.02355 0.0
H563 H 0.52547 0.84323 0.00093 0.0
H564 H 0.45041 0.8251 0.23959 0.0
H565 H 0.4598 0.7668 0.2187 0.0
H566 H 0.42239 0.88508 0.21635 0.0
H567 H 0.44034 0.93085 0.17847 0.0
C568 C 0.05696 0.25434 0.62182 0.0
C569 C 0.07079 0.26624 0.57421 0.0
C570 C 0.04976 0.18266 0.54364 0.0
C571 C 0.0423 0.16981 0.59202 0.0
N572 N 0.05096 0.19265 0.67814 0.0
N573 N 0.09335 0.23775 0.49265 0.0
C574 C 0.05016 0.2054 0.63147 0.0
C575 C 0.07149 0.22909 0.53602 0.0
N576 N 0.04612 0.28888 0.65677 0.0
N577 N 0.03325 0.15222 0.50489 0.0
H578 H 0.11319 0.27018 0.48687 0.0
H579 H 0.09648 0.21096 0.46466 0.0
H580 H 0.01454 0.1188 0.50853 0.0
H581 H 0.03395 0.16235 0.46935 0.0
H582 H 0.03176 0.28089 0.69055 0.0
H583 H 0.04576 0.32468 0.65013 0.0
H584 H 0.06034 0.2173 0.70771 0.0
H585 H 0.04735 0.15699 0.68644 0.0
C586 C 0.56542 0.32705 0.55235 0.0
C587 C 0.56651 0.30083 0.50602 0.0
C588 C 0.5563 0.37382 0.46704 0.0
C589 C 0.54562 0.39709 0.51287 0.0
N590 N 0.53585 0.39428 0.5998 0.0
N591 N 0.5542 0.29823 0.41887 0.0
C592 C 0.54953 0.37356 0.55593 0.0
C593 C 0.56011 0.32397 0.46311 0.0
N594 N 0.58064 0.30806 0.59268 0.0
N595 N 0.56323 0.39951 0.42721 0.0
H596 H 0.5535 0.2611 0.41409 0.0
H597 H 0.54461 0.31324 0.38759 0.0
H598 H 0.56205 0.43648 0.42922 0.0
H599 H 0.57541 0.38506 0.39383 0.0
H600 H 0.58512 0.32754 0.62647 0.0
H601 H 0.59364 0.27461 0.59112 0.0
H602 H 0.53343 0.37649 0.63151 0.0
H603 H 0.52346 0.42799 0.60386 0.0
loop_
_geom_bond_atom_site_label_1
_geom_bond_atom_site_label_2
_geom_bond_distance
_geom_bond_site_symmetry_2
_ccdc_geom_bond_type
O0 Cd1 2.300 . S
O0 C7 1.275 . S
Cd1 O0 2.300 . S
Cd1 O9 2.381 . S
Cd1 O10 2.378 . S
O2 Cd3 2.385 . S
O2 C7 1.255 . S
Cd3 O2 2.385 . S
Cd3 O4 2.317 . S
O4 Cd3 2.317 . S
O4 C5 1.232 . S
C5 O4 1.232 . S
C5 O6 1.218 . S
O6 C5 1.218 . S
C7 O0 1.275 . S
C7 O2 1.255 . S
C8 O9 1.258 . S
C8 O10 1.256 . S
O9 Cd1 2.381 . S
O9 C8 1.258 . S
O10 Cd1 2.378 . S
O10 C8 1.256 . S
O11 Cd12 2.300 . S
O11 C18 1.275 . S
Cd12 O11 2.300 . S
Cd12 O20 2.381 . S
Cd12 O21 2.378 . S
O13 Cd14 2.385 . S
O13 C18 1.255 . S
Cd14 O13 2.385 . S
Cd14 O15 2.317 . S
O15 Cd14 2.317 . S
O15 C16 1.232 . S
C16 O15 1.232 . S
C16 O17 1.218 . S
O17 C16 1.218 . S
C18 O11 1.275 . S
C18 O13 1.255 . S
C19 O20 1.258 . S
C19 O21 1.256 . S
O20 Cd12 2.381 . S
O20 C19 1.258 . S
O21 Cd12 2.378 . S
O21 C19 1.256 . S
O22 Cd23 2.300 . S
O22 C29 1.275 . S
Cd23 O22 2.300 . S
Cd23 O31 2.381 . S
Cd23 O32 2.378 . S
O24 Cd25 2.385 . S
O24 C29 1.255 . S
Cd25 O24 2.385 . S
Cd25 O26 2.317 . S
O26 Cd25 2.317 . S
O26 C27 1.232 . S
C27 O26 1.232 . S
C27 O28 1.218 . S
O28 C27 1.218 . S
C29 O22 1.275 . S
C29 O24 1.255 . S
C30 O31 1.258 . S
C30 O32 1.256 . S
O31 Cd23 2.381 . S
O31 C30 1.258 . S
O32 Cd23 2.378 . S
O32 C30 1.256 . S
O33 Cd34 2.300 . S
O33 C40 1.275 . S
Cd34 O33 2.300 . S
Cd34 O42 2.381 . S
Cd34 O43 2.378 . S
O35 Cd36 2.385 . S
O35 C40 1.255 . S
Cd36 O35 2.385 . S
Cd36 O37 2.317 . S
O37 Cd36 2.317 . S
O37 C38 1.232 . S
C38 O37 1.232 . S
C38 O39 1.218 . S
O39 C38 1.218 . S
C40 O33 1.275 . S
C40 O35 1.255 . S
C41 O42 1.258 . S
C41 O43 1.256 . S
O42 Cd34 2.381 . S
O42 C41 1.258 . S
O43 Cd34 2.378 . S
O43 C41 1.256 . S
O44 Cd45 2.300 . S
O44 C51 1.275 . S
Cd45 O44 2.300 . S
Cd45 O53 2.381 1_655 S
Cd45 O54 2.378 1_656 S
O46 Cd47 2.376 1_566 S
O46 C51 1.263 . S
Cd47 O46 2.376 1_544 S
Cd47 O48 2.317 1_545 S
O48 Cd47 2.317 1_565 S
O48 C49 1.232 1_565 S
C49 O48 1.232 1_545 S
C49 O50 1.218 . S
O50 C49 1.218 . S
C51 O44 1.275 . S
C51 O46 1.263 . S
C52 O53 1.258 1_554 S
C52 O54 1.256 . S
O53 Cd45 2.381 1_455 S
O53 C52 1.258 1_556 S
O54 Cd45 2.378 1_454 S
O54 C52 1.256 . S
O55 Cd56 2.300 . S
O55 C62 1.275 . S
Cd56 O55 2.300 . S
Cd56 O64 2.381 . S
Cd56 O65 2.378 . S
O57 Cd58 2.385 . S
O57 C62 1.255 . S
Cd58 O57 2.385 . S
Cd58 O59 2.317 . S
O59 Cd58 2.317 . S
O59 C60 1.232 . S
C60 O59 1.232 . S
C60 O61 1.218 . S
O61 C60 1.218 . S
C62 O55 1.275 . S
C62 O57 1.255 . S
C63 O64 1.258 . S
C63 O65 1.256 . S
O64 Cd56 2.381 . S
O64 C63 1.258 . S
O65 Cd56 2.378 . S
O65 C63 1.256 . S
O66 Cd67 2.300 . S
O66 C73 1.275 . S
Cd67 O66 2.300 . S
Cd67 O75 2.381 . S
Cd67 O76 2.378 . S
O68 Cd69 2.385 . S
O68 C73 1.255 . S
Cd69 O68 2.385 . S
Cd69 O70 2.317 . S
O70 Cd69 2.317 . S
O70 C71 1.232 . S
C71 O70 1.232 . S
C71 O72 1.218 . S
O72 C71 1.218 . S
C73 O66 1.275 . S
C73 O68 1.255 . S
C74 O75 1.258 . S
C74 O76 1.256 . S
O75 Cd67 2.381 . S
O75 C74 1.258 . S
O76 Cd67 2.378 . S
O76 C74 1.256 . S
O77 Cd78 2.300 . S
O77 C84 1.275 . S
Cd78 O77 2.300 . S
Cd78 O86 2.381 . S
Cd78 O87 2.378 . S
O79 Cd80 2.385 . S
O79 C84 1.255 . S
Cd80 O79 2.385 . S
Cd80 O81 2.317 . S
O81 Cd80 2.317 . S
O81 C82 1.232 . S
C82 O81 1.232 . S
C82 O83 1.218 . S
O83 C82 1.218 . S
C84 O77 1.275 . S
C84 O79 1.255 . S
C85 O86 1.258 . S
C85 O87 1.256 . S
O86 Cd78 2.381 . S
O86 C85 1.258 . S
O87 Cd78 2.378 . S
O87 C85 1.256 . S
Zn88 O94 1.920 . S
Zn88 O100 1.898 . S
Zn88 O103 1.905 . S
Zn89 O97 1.905 1_565 S
Zn89 O98 1.898 . S
Zn89 O106 1.920 . S
Zn90 O93 2.080 1_445 S
Zn90 O96 2.114 . S
Zn90 O99 2.120 1_445 S
Zn90 O101 2.120 . S
Zn90 O102 2.114 1_455 S
Zn90 O105 2.086 . S
C91 O96 1.166 . S
C91 O97 1.182 . S
C92 O98 1.167 1_655 S
C92 O99 1.299 . S
O93 Zn90 2.080 1_665 S
O93 C107 1.305 1_565 S
O94 Zn88 1.920 . S
O94 C107 1.234 . S
C95 O100 1.167 1_455 S
C95 O101 1.299 . S
O96 Zn90 2.114 . S
O96 C91 1.166 . S
O97 Zn89 1.905 1_545 S
O97 C91 1.182 . S
O98 Zn89 1.898 . S
O98 C92 1.167 1_455 S
O99 Zn90 2.120 1_665 S
O99 C92 1.299 . S
O100 Zn88 1.898 . S
O100 C95 1.167 1_655 S
O101 Zn90 2.120 . S
O101 C95 1.299 . S
O102 Zn90 2.114 1_655 S
O102 C104 1.166 . S
O103 Zn88 1.905 . S
O103 C104 1.182 . S
C104 O102 1.166 . S
C104 O103 1.182 . S
O105 Zn90 2.086 . S
O105 C108 1.290 1_545 S
O106 Zn89 1.920 . S
O106 C108 1.234 . S
C107 O93 1.305 1_545 S
C107 O94 1.234 . S
C108 O105 1.290 1_565 S
C108 O106 1.234 . S
Zn109 O115 1.920 . S
Zn109 O121 1.898 . S
Zn109 O124 1.905 1_554 S
Zn110 O118 1.905 . S
Zn110 O119 1.898 . S
Zn110 O127 1.920 . S
Zn111 O114 2.080 . S
Zn111 O117 2.114 1_545 S
Zn111 O120 2.120 1_545 S
Zn111 O122 2.120 . S
Zn111 O123 2.114 1_545 S
Zn111 O126 2.080 . S
C112 O117 1.166 . S
C112 O118 1.182 . S
C113 O119 1.167 . S
C113 O120 1.299 . S
O114 Zn111 2.080 . S
O114 C128 1.305 . S
O115 Zn109 1.920 . S
O115 C128 1.234 . S
C116 O121 1.167 . S
C116 O122 1.299 . S
O117 Zn111 2.114 1_565 S
O117 C112 1.166 . S
O118 Zn110 1.905 . S
O118 C112 1.182 . S
O119 Zn110 1.898 . S
O119 C113 1.167 . S
O120 Zn111 2.120 1_565 S
O120 C113 1.299 . S
O121 Zn109 1.898 . S
O121 C116 1.167 . S
O122 Zn111 2.120 . S
O122 C116 1.299 . S
O123 Zn111 2.114 1_565 S
O123 C125 1.166 1_554 S
O124 Zn109 1.905 1_556 S
O124 C125 1.182 1_545 S
C125 O123 1.166 1_556 S
C125 O124 1.182 1_565 S
O126 Zn111 2.080 . S
O126 C129 1.305 . S
O127 Zn110 1.920 . S
O127 C129 1.234 1_565 S
C128 O114 1.305 . S
C128 O115 1.234 . S
C129 O126 1.305 . S
C129 O127 1.234 1_545 S
Zn130 O136 1.920 . S
Zn130 O142 1.898 . S
Zn130 O145 1.905 . S
Zn131 O139 1.905 . S
Zn131 O140 1.898 . S
Zn131 O148 1.920 . S
Zn132 O135 2.080 . S
Zn132 O138 2.114 . S
Zn132 O141 2.120 . S
Zn132 O143 2.120 . S
Zn132 O144 2.114 . S
Zn132 O147 2.080 . S
C133 O138 1.166 . S
C133 O139 1.182 . S
C134 O140 1.167 . S
C134 O141 1.299 . S
O135 Zn132 2.080 . S
O135 C149 1.305 . S
O136 Zn130 1.920 . S
O136 C149 1.234 . S
C137 O142 1.167 . S
C137 O143 1.299 . S
O138 Zn132 2.114 . S
O138 C133 1.166 . S
O139 Zn131 1.905 . S
O139 C133 1.182 . S
O140 Zn131 1.898 . S
O140 C134 1.167 . S
O141 Zn132 2.120 . S
O141 C134 1.299 . S
O142 Zn130 1.898 . S
O142 C137 1.167 . S
O143 Zn132 2.120 . S
O143 C137 1.299 . S
O144 Zn132 2.114 . S
O144 C146 1.166 . S
O145 Zn130 1.905 . S
O145 C146 1.182 . S
C146 O144 1.166 . S
C146 O145 1.182 . S
O147 Zn132 2.080 . S
O147 C150 1.305 . S
O148 Zn131 1.920 . S
O148 C150 1.234 . S
C149 O135 1.305 . S
C149 O136 1.234 . S
C150 O147 1.305 . S
C150 O148 1.234 . S
Zn151 O157 1.920 . S
Zn151 O163 1.898 . S
Zn151 O166 1.905 . S
Zn152 O160 1.905 1_655 S
Zn152 O161 1.898 . S
Zn152 O169 1.920 . S
Zn153 O156 2.080 1_554 S
Zn153 O159 2.114 . S
Zn153 O162 2.120 1_454 S
Zn153 O164 2.120 . S
Zn153 O165 2.114 1_554 S
Zn153 O168 2.080 . S
C154 O159 1.166 . S
C154 O160 1.182 . S
C155 O161 1.167 1_556 S
C155 O162 1.299 . S
O156 Zn153 2.080 1_556 S
O156 C170 1.305 . S
O157 Zn151 1.920 . S
O157 C170 1.234 . S
C158 O163 1.167 1_554 S
C158 O164 1.299 . S
O159 Zn153 2.114 . S
O159 C154 1.166 . S
O160 Zn152 1.905 1_455 S
O160 C154 1.182 . S
O161 Zn152 1.898 . S
O161 C155 1.167 1_554 S
O162 Zn153 2.120 1_656 S
O162 C155 1.299 . S
O163 Zn151 1.898 . S
O163 C158 1.167 1_556 S
O164 Zn153 2.120 . S
O164 C158 1.299 . S
O165 Zn153 2.114 1_556 S
O165 C167 1.166 . S
O166 Zn151 1.905 . S
O166 C167 1.182 . S
C167 O165 1.166 . S
C167 O166 1.182 . S
O168 Zn153 2.080 . S
O168 C171 1.304 . S
O169 Zn152 1.920 . S
O169 C171 1.235 1_655 S
C170 O156 1.305 . S
C170 O157 1.234 . S
C171 O168 1.304 . S
C171 O169 1.235 1_455 S
C172 C173 1.363 . S
C172 C178 1.379 . S
C172 N180 1.356 . S
C173 C172 1.363 . S
C173 C179 1.363 . S
C174 C175 1.363 . S
C174 C179 1.379 . S
C174 N181 1.356 . S
C175 C174 1.363 . S
C175 C178 1.363 . S
N176 C178 1.356 . S
N176 H188 0.984 1_545 S
N176 H189 0.985 . S
N177 C179 1.356 . S
N177 H182 0.984 . S
N177 H183 0.985 . S
C178 C172 1.379 . S
C178 C175 1.363 . S
C178 N176 1.356 . S
C179 C173 1.363 . S
C179 C174 1.379 . S
C179 N177 1.356 . S
N180 C172 1.356 . S
N180 H186 0.984 . S
N180 H187 0.984 . S
N181 C174 1.356 . S
N181 H184 0.984 . S
N181 H185 0.985 . S
H182 N177 0.984 . S
H183 N177 0.985 . S
H184 N181 0.984 . S
H185 N181 0.985 . S
H186 N180 0.984 . S
H187 N180 0.984 . S
H188 N176 0.984 1_565 S
H189 N176 0.985 . S
C190 C191 1.363 . S
C190 C196 1.379 . S
C190 N198 1.356 . S
C191 C190 1.363 . S
C191 C197 1.363 . S
C192 C193 1.363 . S
C192 C197 1.379 . S
C192 N199 1.356 1_565 S
C193 C192 1.363 . S
C193 C196 1.363 . S
N194 C196 1.356 . S
N194 H206 0.985 . S
N194 H207 0.985 1_556 S
N195 C197 1.356 . S
N195 H200 0.984 . S
N195 H201 0.985 1_565 S
C196 C190 1.379 . S
C196 C193 1.363 . S
C196 N194 1.356 . S
C197 C191 1.363 . S
C197 C192 1.379 . S
C197 N195 1.356 . S
N198 C190 1.356 . S
N198 H204 0.984 . S
N198 H205 0.984 . S
N199 C192 1.356 1_545 S
N199 H202 0.984 . S
N199 H203 0.985 . S
H200 N195 0.984 . S
H201 N195 0.985 1_545 S
H202 N199 0.984 . S
H203 N199 0.985 . S
H204 N198 0.984 . S
H205 N198 0.984 . S
H206 N194 0.985 . S
H207 N194 0.985 1_554 S
C208 C209 1.363 . S
C208 C214 1.379 . S
C208 N216 1.356 . S
C209 C208 1.363 . S
C209 C215 1.363 . S
C210 C211 1.363 . S
C210 C215 1.379 . S
C210 N217 1.356 . S
C211 C210 1.363 . S
C211 C214 1.363 . S
N212 C214 1.356 . S
N212 H224 0.984 . S
N212 H225 0.985 . S
N213 C215 1.356 . S
N213 H218 0.984 . S
N213 H219 0.985 . S
C214 C208 1.379 . S
C214 C211 1.363 . S
C214 N212 1.356 . S
C215 C209 1.363 . S
C215 C210 1.379 . S
C215 N213 1.356 . S
N216 C208 1.356 . S
N216 H222 0.984 . S
N216 H223 0.984 . S
N217 C210 1.356 . S
N217 H220 0.984 . S
N217 H221 0.985 . S
H218 N213 0.984 . S
H219 N213 0.985 . S
H220 N217 0.984 . S
H221 N217 0.985 . S
H222 N216 0.984 . S
H223 N216 0.984 . S
H224 N212 0.984 . S
H225 N212 0.985 . S
C226 C227 1.363 . S
C226 C232 1.379 1_655 S
C226 N234 1.356 1_655 S
C227 C226 1.363 . S
C227 C233 1.363 . S
C228 C229 1.363 . S
C228 C233 1.379 . S
C228 N235 1.356 . S
C229 C228 1.363 . S
C229 C232 1.363 1_655 S
N230 C232 1.356 . S
N230 H242 0.984 . S
N230 H243 0.985 . S
N231 C233 1.356 . S
N231 H236 0.984 . S
N231 H237 0.985 . S
C232 C226 1.379 1_455 S
C232 C229 1.363 1_455 S
C232 N230 1.356 . S
C233 C227 1.363 . S
C233 C228 1.379 . S
C233 N231 1.356 . S
N234 C226 1.356 1_455 S
N234 H240 0.984 . S
N234 H241 0.984 1_455 S
N235 C228 1.356 . S
N235 H238 0.984 . S
N235 H239 0.985 . S
H236 N231 0.984 . S
H237 N231 0.985 . S
H238 N235 0.984 . S
H239 N235 0.985 . S
H240 N234 0.984 . S
H241 N234 0.984 1_655 S
H242 N230 0.984 . S
H243 N230 0.985 . S
C244 C245 1.363 . S
C244 C250 1.379 . S
C244 N252 1.356 . S
C245 C244 1.363 . S
C245 C251 1.363 . S
C246 C247 1.363 . S
C246 C251 1.379 . S
C246 N253 1.356 . S
C247 C246 1.363 . S
C247 C250 1.363 . S
N248 C250 1.356 . S
N248 H260 0.984 . S
N248 H261 0.985 . S
N249 C251 1.356 . S
N249 H254 0.984 . S
N249 H255 0.985 . S
C250 C244 1.379 . S
C250 C247 1.363 . S
C250 N248 1.356 . S
C251 C245 1.363 . S
C251 C246 1.379 . S
C251 N249 1.356 . S
N252 C244 1.356 . S
N252 H258 0.984 . S
N252 H259 0.984 . S
N253 C246 1.356 . S
N253 H256 0.984 . S
N253 H257 0.985 . S
H254 N249 0.984 . S
H255 N249 0.985 . S
H256 N253 0.984 . S
H257 N253 0.985 . S
H258 N252 0.984 . S
H259 N252 0.984 . S
H260 N248 0.984 . S
H261 N248 0.985 . S
C262 C263 1.363 . S
C262 C268 1.379 . S
C262 N270 1.356 . S
C263 C262 1.363 . S
C263 C269 1.363 . S
C264 C265 1.363 . S
C264 C269 1.379 . S
C264 N271 1.356 . S
C265 C264 1.363 . S
C265 C268 1.363 . S
N266 C268 1.356 . S
N266 H278 0.984 1_565 S
N266 H279 0.985 . S
N267 C269 1.356 . S
N267 H272 0.984 . S
N267 H273 0.985 . S
C268 C262 1.379 . S
C268 C265 1.363 . S
C268 N266 1.356 . S
C269 C263 1.363 . S
C269 C264 1.379 . S
C269 N267 1.356 . S
N270 C262 1.356 . S
N270 H276 0.984 . S
N270 H277 0.984 . S
N271 C264 1.356 . S
N271 H274 0.984 . S
N271 H275 0.985 . S
H272 N267 0.984 . S
H273 N267 0.985 . S
H274 N271 0.984 . S
H275 N271 0.985 . S
H276 N270 0.984 . S
H277 N270 0.984 . S
H278 N266 0.984 1_545 S
H279 N266 0.985 . S
C280 C281 1.363 . S
C280 C286 1.379 . S
C280 N288 1.356 . S
C281 C280 1.363 . S
C281 C287 1.363 . S
C282 C283 1.363 . S
C282 C287 1.379 . S
C282 N289 1.356 1_556 S
C283 C282 1.363 . S
C283 C286 1.363 . S
N284 C286 1.356 . S
N284 H296 0.984 . S
N284 H297 0.985 . S
N285 C287 1.356 1_554 S
N285 H290 0.984 1_554 S
N285 H291 0.985 . S
C286 C280 1.379 . S
C286 C283 1.363 . S
C286 N284 1.356 . S
C287 C281 1.363 . S
C287 C282 1.379 . S
C287 N285 1.356 1_556 S
N288 C280 1.356 . S
N288 H294 0.984 . S
N288 H295 0.984 . S
N289 C282 1.356 1_554 S
N289 H292 0.984 . S
N289 H293 0.985 . S
H290 N285 0.984 1_556 S
H291 N285 0.985 . S
H292 N289 0.984 . S
H293 N289 0.985 . S
H294 N288 0.984 . S
H295 N288 0.984 . S
H296 N284 0.984 . S
H297 N284 0.985 . S
C298 C299 1.363 . S
C298 C304 1.379 . S
C298 N306 1.356 . S
C299 C298 1.363 . S
C299 C305 1.363 . S
C300 C301 1.363 . S
C300 C305 1.379 . S
C300 N307 1.356 . S
C301 C300 1.363 . S
C301 C304 1.363 . S
N302 C304 1.356 . S
N302 H314 0.984 . S
N302 H315 0.985 . S
N303 C305 1.356 . S
N303 H308 0.984 . S
N303 H309 0.985 . S
C304 C298 1.379 . S
C304 C301 1.363 . S
C304 N302 1.356 . S
C305 C299 1.363 . S
C305 C300 1.379 . S
C305 N303 1.356 . S
N306 C298 1.356 . S
N306 H312 0.984 . S
N306 H313 0.984 . S
N307 C300 1.356 . S
N307 H310 0.984 . S
N307 H311 0.985 . S
H308 N303 0.984 . S
H309 N303 0.985 . S
H310 N307 0.984 . S
H311 N307 0.985 . S
H312 N306 0.984 . S
H313 N306 0.984 . S
H314 N302 0.984 . S
H315 N302 0.985 . S
C316 C317 1.363 . S
C316 C322 1.379 . S
C316 N324 1.356 . S
C317 C316 1.363 . S
C317 C323 1.363 . S
C318 C319 1.363 . S
C318 C323 1.379 . S
C318 N325 1.356 . S
C319 C318 1.363 . S
C319 C322 1.363 . S
N320 C322 1.356 . S
N320 H332 0.984 . S
N320 H333 0.985 . S
N321 C323 1.356 . S
N321 H326 0.984 . S
N321 H327 0.985 . S
C322 C316 1.379 . S
C322 C319 1.363 . S
C322 N320 1.356 . S
C323 C317 1.363 . S
C323 C318 1.379 . S
C323 N321 1.356 . S
N324 C316 1.356 . S
N324 H330 0.984 . S
N324 H331 0.984 . S
N325 C318 1.356 . S
N325 H328 0.984 . S
N325 H329 0.975 1_554 S
H326 N321 0.984 . S
H327 N321 0.985 . S
H328 N325 0.984 . S
H329 N325 0.975 1_556 S
H330 N324 0.984 . S
H331 N324 0.984 . S
H332 N320 0.984 . S
H333 N320 0.985 . S
C334 C335 1.363 . S
C334 C340 1.379 . S
C334 N342 1.356 . S
C335 C334 1.363 . S
C335 C341 1.363 1_556 S
C336 C337 1.363 . S
C336 C341 1.379 . S
C336 N343 1.356 . S
C337 C336 1.363 . S
C337 C340 1.363 1_554 S
N338 C340 1.356 . S
N338 H350 0.984 . S
N338 H351 0.985 . S
N339 C341 1.356 . S
N339 H344 0.984 . S
N339 H345 0.985 . S
C340 C334 1.379 . S
C340 C337 1.363 1_556 S
C340 N338 1.356 . S
C341 C335 1.363 1_554 S
C341 C336 1.379 . S
C341 N339 1.356 . S
N342 C334 1.356 . S
N342 H348 0.984 . S
N342 H349 0.984 . S
N343 C336 1.356 . S
N343 H346 0.984 . S
N343 H347 0.985 . S
H344 N339 0.984 . S
H345 N339 0.985 . S
H346 N343 0.984 . S
H347 N343 0.985 . S
H348 N342 0.984 . S
H349 N342 0.984 . S
H350 N338 0.984 . S
H351 N338 0.985 . S
C352 C353 1.363 . S
C352 C358 1.379 . S
C352 N360 1.356 . S
C353 C352 1.363 . S
C353 C359 1.363 . S
C354 C355 1.363 . S
C354 C359 1.379 . S
C354 N361 1.356 1_655 S
C355 C354 1.363 . S
C355 C358 1.363 . S
N356 C358 1.356 . S
N356 H368 0.984 . S
N356 H369 0.985 . S
N357 C359 1.356 . S
N357 H362 0.984 . S
N357 H363 0.985 1_655 S
C358 C352 1.379 . S
C358 C355 1.363 . S
C358 N356 1.356 . S
C359 C353 1.363 . S
C359 C354 1.379 . S
C359 N357 1.356 . S
N360 C352 1.356 . S
N360 H366 0.984 . S
N360 H367 0.984 . S
N361 C354 1.356 1_455 S
N361 H364 0.984 . S
N361 H365 0.985 . S
H362 N357 0.984 . S
H363 N357 0.985 1_455 S
H364 N361 0.984 . S
H365 N361 0.985 . S
H366 N360 0.984 . S
H367 N360 0.984 . S
H368 N356 0.984 . S
H369 N356 0.985 . S
C370 C371 1.363 . S
C370 C376 1.379 . S
C370 N378 1.356 . S
C371 C370 1.363 . S
C371 C377 1.363 . S
C372 C373 1.363 . S
C372 C377 1.379 . S
C372 N379 1.356 . S
C373 C372 1.363 . S
C373 C376 1.363 . S
N374 C376 1.356 . S
N374 H386 0.984 . S
N374 H387 0.985 . S
N375 C377 1.356 . S
N375 H380 0.984 . S
N375 H381 0.985 . S
C376 C370 1.379 . S
C376 C373 1.363 . S
C376 N374 1.356 . S
C377 C371 1.363 . S
C377 C372 1.379 . S
C377 N375 1.356 . S
N378 C370 1.356 . S
N378 H384 0.984 . S
N378 H385 0.984 . S
N379 C372 1.356 . S
N379 H382 0.984 . S
N379 H383 0.985 . S
H380 N375 0.984 . S
H381 N375 0.985 . S
H382 N379 0.984 . S
H383 N379 0.985 . S
H384 N378 0.984 . S
H385 N378 0.984 . S
H386 N374 0.984 . S
H387 N374 0.985 . S
C388 C389 1.363 1_455 S
C388 C394 1.379 . S
C388 N396 1.356 . S
C389 C388 1.363 1_655 S
C389 C395 1.363 1_565 S
C390 C391 1.363 1_545 S
C390 C395 1.379 . S
C390 N397 1.356 . S
C391 C390 1.363 1_565 S
C391 C394 1.363 1_655 S
N392 C394 1.356 . S
N392 H404 0.984 . S
N392 H405 0.985 . S
N393 C395 1.356 . S
N393 H398 0.984 . S
N393 H399 0.985 . S
C394 C388 1.379 . S
C394 C391 1.363 1_455 S
C394 N392 1.356 . S
C395 C389 1.363 1_545 S
C395 C390 1.379 . S
C395 N393 1.356 . S
N396 C388 1.356 . S
N396 H402 0.984 . S
N396 H403 0.984 . S
N397 C390 1.356 . S
N397 H400 0.984 . S
N397 H401 0.985 . S
H398 N393 0.984 . S
H399 N393 0.985 . S
H400 N397 0.984 . S
H401 N397 0.985 . S
H402 N396 0.984 . S
H403 N396 0.984 . S
H404 N392 0.984 . S
H405 N392 0.985 . S
C406 C407 1.363 . S
C406 C412 1.379 . S
C406 N414 1.356 . S
C407 C406 1.363 . S
C407 C413 1.363 . S
C408 C409 1.363 . S
C408 C413 1.379 . S
C408 N415 1.356 . S
C409 C408 1.363 . S
C409 C412 1.363 . S
N410 C412 1.356 . S
N410 H422 0.984 1_545 S
N410 H423 0.985 . S
N411 C413 1.356 . S
N411 H416 0.984 . S
N411 H417 0.985 . S
C412 C406 1.379 . S
C412 C409 1.363 . S
C412 N410 1.356 . S
C413 C407 1.363 . S
C413 C408 1.379 . S
C413 N411 1.356 . S
N414 C406 1.356 . S
N414 H420 0.984 1_545 S
N414 H421 0.984 . S
N415 C408 1.356 . S
N415 H418 0.984 . S
N415 H419 0.985 . S
H416 N411 0.984 . S
H417 N411 0.985 . S
H418 N415 0.984 . S
H419 N415 0.985 . S
H420 N414 0.984 1_565 S
H421 N414 0.984 . S
H422 N410 0.984 1_565 S
H423 N410 0.985 . S
C424 C425 1.363 . S
C424 C430 1.379 . S
C424 N432 1.356 . S
C425 C424 1.363 . S
C425 C431 1.363 . S
C426 C427 1.363 . S
C426 C431 1.379 . S
C426 N433 1.356 . S
C427 C426 1.363 . S
C427 C430 1.363 . S
N428 C430 1.356 . S
N428 H440 0.984 . S
N428 H441 0.985 . S
N429 C431 1.356 . S
N429 H434 0.984 . S
N429 H435 0.985 . S
C430 C424 1.379 . S
C430 C427 1.363 . S
C430 N428 1.356 . S
C431 C425 1.363 . S
C431 C426 1.379 . S
C431 N429 1.356 . S
N432 C424 1.356 . S
N432 H438 0.984 . S
N432 H439 0.984 . S
N433 C426 1.356 . S
N433 H436 0.984 . S
N433 H437 0.985 . S
H434 N429 0.984 . S
H435 N429 0.985 . S
H436 N433 0.984 . S
H437 N433 0.985 . S
H438 N432 0.984 . S
H439 N432 0.984 . S
H440 N428 0.984 . S
H441 N428 0.985 . S
C442 C443 1.363 . S
C442 C448 1.379 . S
C442 N450 1.356 . S
C443 C442 1.363 . S
C443 C449 1.363 . S
C444 C445 1.363 . S
C444 C449 1.379 . S
C444 N451 1.356 . S
C445 C444 1.363 . S
C445 C448 1.363 . S
N446 C448 1.356 . S
N446 H458 0.984 . S
N446 H459 0.985 . S
N447 C449 1.356 . S
N447 H452 0.984 . S
N447 H453 0.985 . S
C448 C442 1.379 . S
C448 C445 1.363 . S
C448 N446 1.356 . S
C449 C443 1.363 . S
C449 C444 1.379 . S
C449 N447 1.356 . S
N450 C442 1.356 . S
N450 H456 0.984 . S
N450 H457 0.984 . S
N451 C444 1.356 . S
N451 H454 0.984 . S
N451 H455 0.985 . S
H452 N447 0.984 . S
H453 N447 0.985 . S
H454 N451 0.984 . S
H455 N451 0.985 . S
H456 N450 0.984 . S
H457 N450 0.984 . S
H458 N446 0.984 . S
H459 N446 0.985 . S
C460 C461 1.363 . S
C460 C466 1.379 . S
C460 N468 1.356 . S
C461 C460 1.363 . S
C461 C467 1.363 1_544 S
C462 C463 1.363 1_565 S
C462 C467 1.379 1_554 S
C462 N469 1.356 1_554 S
C463 C462 1.363 1_545 S
C463 C466 1.363 . S
N464 C466 1.356 . S
N464 H476 0.984 . S
N464 H477 0.985 . S
N465 C467 1.356 . S
N465 H470 0.984 . S
N465 H471 0.985 . S
C466 C460 1.379 . S
C466 C463 1.363 . S
C466 N464 1.356 . S
C467 C461 1.363 1_566 S
C467 C462 1.379 1_556 S
C467 N465 1.356 . S
N468 C460 1.356 . S
N468 H474 0.984 . S
N468 H475 0.984 . S
N469 C462 1.356 1_556 S
N469 H472 0.977 1_556 S
N469 H473 0.985 . S
H470 N465 0.984 . S
H471 N465 0.985 . S
H472 N469 0.977 1_554 S
H473 N469 0.985 . S
H474 N468 0.984 . S
H475 N468 0.984 . S
H476 N464 0.984 . S
H477 N464 0.985 . S
C478 C479 1.363 . S
C478 C484 1.379 . S
C478 N486 1.356 . S
C479 C478 1.363 . S
C479 C485 1.363 1_545 S
C480 C481 1.363 1_565 S
C480 C485 1.379 . S
C480 N487 1.356 . S
C481 C480 1.363 1_545 S
C481 C484 1.363 . S
N482 C484 1.356 . S
N482 H494 0.984 . S
N482 H495 0.985 . S
N483 C485 1.356 . S
N483 H488 0.984 . S
N483 H489 0.985 . S
C484 C478 1.379 . S
C484 C481 1.363 . S
C484 N482 1.356 . S
C485 C479 1.363 1_565 S
C485 C480 1.379 . S
C485 N483 1.356 . S
N486 C478 1.356 . S
N486 H492 0.984 . S
N486 H493 0.984 . S
N487 C480 1.356 . S
N487 H490 0.984 . S
N487 H491 0.985 . S
H488 N483 0.984 . S
H489 N483 0.985 . S
H490 N487 0.984 . S
H491 N487 0.985 . S
H492 N486 0.984 . S
H493 N486 0.984 . S
H494 N482 0.984 . S
H495 N482 0.985 . S
C496 C497 1.363 . S
C496 C502 1.379 . S
C496 N504 1.356 1_554 S
C497 C496 1.363 . S
C497 C503 1.363 . S
C498 C499 1.363 . S
C498 C503 1.379 . S
C498 N505 1.356 . S
C499 C498 1.363 . S
C499 C502 1.363 . S
N500 C502 1.356 1_556 S
N500 H512 0.984 . S
N500 H513 0.985 . S
N501 C503 1.356 . S
N501 H506 0.984 . S
N501 H507 0.985 . S
C502 C496 1.379 . S
C502 C499 1.363 . S
C502 N500 1.356 1_554 S
C503 C497 1.363 . S
C503 C498 1.379 . S
C503 N501 1.356 . S
N504 C496 1.356 1_556 S
N504 H510 0.984 . S
N504 H511 0.984 . S
N505 C498 1.356 . S
N505 H508 0.984 . S
N505 H509 0.985 . S
H506 N501 0.984 . S
H507 N501 0.985 . S
H508 N505 0.984 . S
H509 N505 0.985 . S
H510 N504 0.984 . S
H511 N504 0.984 . S
H512 N500 0.984 . S
H513 N500 0.985 . S
C514 C515 1.363 . S
C514 C520 1.379 . S
C514 N522 1.356 . S
C515 C514 1.363 . S
C515 C521 1.363 . S
C516 C517 1.363 . S
C516 C521 1.379 . S
C516 N523 1.356 . S
C517 C516 1.363 . S
C517 C520 1.363 . S
N518 C520 1.356 . S
N518 H530 0.984 . S
N518 H531 0.985 . S
N519 C521 1.356 . S
N519 H524 0.984 . S
N519 H525 0.985 . S
C520 C514 1.379 . S
C520 C517 1.363 . S
C520 N518 1.356 . S
C521 C515 1.363 . S
C521 C516 1.379 . S
C521 N519 1.356 . S
N522 C514 1.356 . S
N522 H528 0.984 . S
N522 H529 0.984 . S
N523 C516 1.356 . S
N523 H526 0.984 . S
N523 H527 0.985 . S
H524 N519 0.984 . S
H525 N519 0.985 . S
H526 N523 0.984 . S
H527 N523 0.985 . S
H528 N522 0.984 . S
H529 N522 0.984 . S
H530 N518 0.984 . S
H531 N518 0.985 . S
C532 C533 1.363 . S
C532 C538 1.379 . S
C532 N540 1.356 . S
C533 C532 1.363 . S
C533 C539 1.363 1_454 S
C534 C535 1.363 1_556 S
C534 C539 1.379 1_455 S
C534 N541 1.356 1_455 S
C535 C534 1.363 1_554 S
C535 C538 1.363 . S
N536 C538 1.356 . S
N536 H548 0.984 . S
N536 H549 0.985 . S
N537 C539 1.356 . S
N537 H542 0.984 . S
N537 H543 0.985 . S
C538 C532 1.379 . S
C538 C535 1.363 . S
C538 N536 1.356 . S
C539 C533 1.363 1_656 S
C539 C534 1.379 1_655 S
C539 N537 1.356 . S
N540 C532 1.356 . S
N540 H546 0.984 . S
N540 H547 0.984 . S
N541 C534 1.356 1_655 S
N541 H544 0.984 1_655 S
N541 H545 0.985 . S
H542 N537 0.984 . S
H543 N537 0.985 . S
H544 N541 0.984 1_455 S
H545 N541 0.985 . S
H546 N540 0.984 . S
H547 N540 0.984 . S
H548 N536 0.984 . S
H549 N536 0.985 . S
C550 C551 1.363 . S
C550 C556 1.379 . S
C550 N558 1.356 . S
C551 C550 1.363 . S
C551 C557 1.363 . S
C552 C553 1.363 . S
C552 C557 1.379 . S
C552 N559 1.356 . S
C553 C552 1.363 . S
C553 C556 1.363 . S
N554 C556 1.356 . S
N554 H566 0.984 . S
N554 H567 0.985 . S
N555 C557 1.356 . S
N555 H560 0.984 . S
N555 H561 0.972 1_554 S
C556 C550 1.379 . S
C556 C553 1.363 . S
C556 N554 1.356 . S
C557 C551 1.363 . S
C557 C552 1.379 . S
C557 N555 1.356 . S
N558 C550 1.356 . S
N558 H564 0.984 . S
N558 H565 0.984 . S
N559 C552 1.356 . S
N559 H562 0.984 . S
N559 H563 0.985 . S
H560 N555 0.984 . S
H561 N555 0.972 1_556 S
H562 N559 0.984 . S
H563 N559 0.985 . S
H564 N558 0.984 . S
H565 N558 0.984 . S
H566 N554 0.984 . S
H567 N554 0.985 . S
C568 C569 1.363 . S
C568 C574 1.379 . S
C568 N576 1.356 . S
C569 C568 1.363 . S
C569 C575 1.363 . S
C570 C571 1.363 . S
C570 C575 1.379 . S
C570 N577 1.356 . S
C571 C570 1.363 . S
C571 C574 1.363 . S
N572 C574 1.356 . S
N572 H584 0.984 . S
N572 H585 0.985 . S
N573 C575 1.356 . S
N573 H578 0.984 . S
N573 H579 0.985 1_455 S
C574 C568 1.379 . S
C574 C571 1.363 . S
C574 N572 1.356 . S
C575 C569 1.363 . S
C575 C570 1.379 . S
C575 N573 1.356 . S
N576 C568 1.356 . S
N576 H582 0.984 . S
N576 H583 0.984 . S
N577 C570 1.356 . S
N577 H580 0.984 . S
N577 H581 0.985 1_455 S
H578 N573 0.984 . S
H579 N573 0.985 1_655 S
H580 N577 0.984 . S
H581 N577 0.985 1_655 S
H582 N576 0.984 . S
H583 N576 0.984 . S
H584 N572 0.984 . S
H585 N572 0.985 . S
C586 C587 1.363 . S
C586 C592 1.379 . S
C586 N594 1.356 . S
C587 C586 1.363 . S
C587 C593 1.363 . S
C588 C589 1.363 . S
C588 C593 1.379 . S
C588 N595 1.356 . S
C589 C588 1.363 . S
C589 C592 1.363 . S
N590 C592 1.356 . S
N590 H602 0.984 . S
N590 H603 0.985 . S
N591 C593 1.356 . S
N591 H596 0.984 . S
N591 H597 0.985 . S
C592 C586 1.379 . S
C592 C589 1.363 . S
C592 N590 1.356 . S
C593 C587 1.363 . S
C593 C588 1.379 . S
C593 N591 1.356 . S
N594 C586 1.356 . S
N594 H600 0.984 . S
N594 H601 0.984 . S
N595 C588 1.356 . S
N595 H598 0.984 . S
N595 H599 0.985 . S
H596 N591 0.984 . S
H597 N591 0.985 . S
H598 N595 0.984 . S
H599 N595 0.985 . S
H600 N594 0.984 . S
H601 N594 0.984 . S
H602 N590 0.984 . S
H603 N590 0.985 . S
C173 C5 1.620 . S
C175 C91 1.668 . S
C191 C18 1.524 . S
C193 C125 1.466 . S
C211 C137 1.284 . S
C209 C30 1.351 . S
C227 C41 1.340 . S
C229 C171 1.302 1_655 S
C247 C128 1.649 . S
C245 C7 1.683 . S
C265 C108 1.676 . S
C263 C16 1.562 . S
C283 C155 1.402 . S
C281 C29 1.484 . S
C301 C146 1.134 . S
C299 C38 1.089 . S
C317 C8 1.655 . S
C319 C154 1.559 . S
C337 C116 1.616 . S
C335 C27 1.525 . S
C353 C40 1.476 . S
C355 C92 1.373 . S
C371 C19 1.310 . S
C373 C149 1.250 . S
C391 C107 1.576 1_565 S
C389 C51 1.673 . S
C407 C62 1.594 . S
C409 C129 1.616 . S
C425 C74 1.507 . S
C427 C134 1.522 . S
C443 C84 1.379 . S
C445 C167 1.460 . S
C461 C49 1.874 . S
C463 C112 1.819 1_545 S
C481 C104 1.549 . S
C479 C63 1.559 . S
C499 C158 1.442 . S
C497 C71 1.193 . S
C517 C150 1.360 . S
C515 C85 1.347 . S
C533 C52 1.689 . S
C535 C170 1.609 1_554 S
C553 C113 1.763 . S
C551 C73 1.720 . S
C571 C95 1.442 . S
C569 C82 1.128 . S
C587 C60 1.341 . S
C589 C133 1.637 . S
