# Generated by pormake.
# Topology gar, (4,6)-cn, num edge types: 1
# Building blocks:
#     Node 0, Type 0, BuildingBlock: AZAVOO_clean_sbu_0, # of connection points: 4
#     Node 1, Type 0, BuildingBlock: AZAVOO_clean_sbu_0, # of connection points: 4
#     Node 2, Type 0, BuildingBlock: AZAVOO_clean_sbu_0, # of connection points: 4
#     Node 3, Type 0, BuildingBlock: AZAVOO_clean_sbu_0, # of connection points: 4
#     Node 4, Type 0, BuildingBlock: AZAVOO_clean_sbu_0, # of connection points: 4
#     Node 5, Type 0, BuildingBlock: AZAVOO_clean_sbu_0, # of connection points: 4
#     Node 6, Type 0, BuildingBlock: AZAVOO_clean_sbu_0, # of connection points: 4
#     Node 7, Type 0, BuildingBlock: AZAVOO_clean_sbu_0, # of connection points: 4
#     Node 8, Type 0, BuildingBlock: AZAVOO_clean_sbu_0, # of connection points: 4
#     Node 9, Type 0, BuildingBlock: AZAVOO_clean_sbu_0, # of connection points: 4
#     Node 10, Type 0, BuildingBlock: AZAVOO_clean_sbu_0, # of connection points: 4
#     Node 11, Type 0, BuildingBlock: AZAVOO_clean_sbu_0, # of connection points: 4
#     Node 12, Type 0, BuildingBlock: AZAVOO_clean_sbu_0, # of connection points: 4
#     Node 13, Type 0, BuildingBlock: AZAVOO_clean_sbu_0, # of connection points: 4
#     Node 14, Type 0, BuildingBlock: AZAVOO_clean_sbu_0, # of connection points: 4
#     Node 15, Type 0, BuildingBlock: AZAVOO_clean_sbu_0, # of connection points: 4
#     Node 16, Type 0, BuildingBlock: AZAVOO_clean_sbu_0, # of connection points: 4
#     Node 17, Type 0, BuildingBlock: AZAVOO_clean_sbu_0, # of connection points: 4
#     Node 18, Type 0, BuildingBlock: AZAVOO_clean_sbu_0, # of connection points: 4
#     Node 19, Type 0, BuildingBlock: AZAVOO_clean_sbu_0, # of connection points: 4
#     Node 20, Type 0, BuildingBlock: AZAVOO_clean_sbu_0, # of connection points: 4
#     Node 21, Type 0, BuildingBlock: AZAVOO_clean_sbu_0, # of connection points: 4
#     Node 22, Type 0, BuildingBlock: AZAVOO_clean_sbu_0, # of connection points: 4
#     Node 23, Type 0, BuildingBlock: AZAVOO_clean_sbu_0, # of connection points: 4
#     Node 24, Type 1, BuildingBlock: BETDIP_clean_sbu_0, # of connection points: 6
#     Node 25, Type 1, BuildingBlock: BETDIP_clean_sbu_0, # of connection points: 6
#     Node 26, Type 1, BuildingBlock: BETDIP_clean_sbu_0, # of connection points: 6
#     Node 27, Type 1, BuildingBlock: BETDIP_clean_sbu_0, # of connection points: 6
#     Node 28, Type 1, BuildingBlock: BETDIP_clean_sbu_0, # of connection points: 6
#     Node 29, Type 1, BuildingBlock: BETDIP_clean_sbu_0, # of connection points: 6
#     Node 30, Type 1, BuildingBlock: BETDIP_clean_sbu_0, # of connection points: 6
#     Node 31, Type 1, BuildingBlock: BETDIP_clean_sbu_0, # of connection points: 6
#     Node 32, Type 1, BuildingBlock: BETDIP_clean_sbu_0, # of connection points: 6
#     Node 33, Type 1, BuildingBlock: BETDIP_clean_sbu_0, # of connection points: 6
#     Node 34, Type 1, BuildingBlock: BETDIP_clean_sbu_0, # of connection points: 6
#     Node 35, Type 1, BuildingBlock: BETDIP_clean_sbu_0, # of connection points: 6
#     Node 36, Type 1, BuildingBlock: BETDIP_clean_sbu_0, # of connection points: 6
#     Node 37, Type 1, BuildingBlock: BETDIP_clean_sbu_0, # of connection points: 6
#     Node 38, Type 1, BuildingBlock: BETDIP_clean_sbu_0, # of connection points: 6
#     Node 39, Type 1, BuildingBlock: BETDIP_clean_sbu_0, # of connection points: 6
#     Edge 40, Type (0, 1), BuildingBlock: XIVTED_clean_linker_0, # of connection points: 2
#     Edge 41, Type (0, 1), BuildingBlock: XIVTED_clean_linker_0, # of connection points: 2
#     Edge 42, Type (0, 1), BuildingBlock: XIVTED_clean_linker_0, # of connection points: 2
#     Edge 43, Type (0, 1), BuildingBlock: XIVTED_clean_linker_0, # of connection points: 2
#     Edge 44, Type (0, 1), BuildingBlock: XIVTED_clean_linker_0, # of connection points: 2
#     Edge 45, Type (0, 1), BuildingBlock: XIVTED_clean_linker_0, # of connection points: 2
#     Edge 46, Type (0, 1), BuildingBlock: XIVTED_clean_linker_0, # of connection points: 2
#     Edge 47, Type (0, 1), BuildingBlock: XIVTED_clean_linker_0, # of connection points: 2
#     Edge 48, Type (0, 1), BuildingBlock: XIVTED_clean_linker_0, # of connection points: 2
#     Edge 49, Type (0, 1), BuildingBlock: XIVTED_clean_linker_0, # of connection points: 2
#     Edge 50, Type (0, 1), BuildingBlock: XIVTED_clean_linker_0, # of connection points: 2
#     Edge 51, Type (0, 1), BuildingBlock: XIVTED_clean_linker_0, # of connection points: 2
#     Edge 52, Type (0, 1), BuildingBlock: XIVTED_clean_linker_0, # of connection points: 2
#     Edge 53, Type (0, 1), BuildingBlock: XIVTED_clean_linker_0, # of connection points: 2
#     Edge 54, Type (0, 1), BuildingBlock: XIVTED_clean_linker_0, # of connection points: 2
#     Edge 55, Type (0, 1), BuildingBlock: XIVTED_clean_linker_0, # of connection points: 2
#     Edge 56, Type (0, 1), BuildingBlock: XIVTED_clean_linker_0, # of connection points: 2
#     Edge 57, Type (0, 1), BuildingBlock: XIVTED_clean_linker_0, # of connection points: 2
#     Edge 58, Type (0, 1), BuildingBlock: XIVTED_clean_linker_0, # of connection points: 2
#     Edge 59, Type (0, 1), BuildingBlock: XIVTED_clean_linker_0, # of connection points: 2
#     Edge 60, Type (0, 1), BuildingBlock: XIVTED_clean_linker_0, # of connection points: 2
#     Edge 61, Type (0, 1), BuildingBlock: XIVTED_clean_linker_0, # of connection points: 2
#     Edge 62, Type (0, 1), BuildingBlock: XIVTED_clean_linker_0, # of connection points: 2
#     Edge 63, Type (0, 1), BuildingBlock: XIVTED_clean_linker_0, # of connection points: 2
#     Edge 64, Type (0, 1), BuildingBlock: XIVTED_clean_linker_0, # of connection points: 2
#     Edge 65, Type (0, 1), BuildingBlock: XIVTED_clean_linker_0, # of connection points: 2
#     Edge 66, Type (0, 1), BuildingBlock: XIVTED_clean_linker_0, # of connection points: 2
#     Edge 67, Type (0, 1), BuildingBlock: XIVTED_clean_linker_0, # of connection points: 2
#     Edge 68, Type (0, 1), BuildingBlock: XIVTED_clean_linker_0, # of connection points: 2
#     Edge 69, Type (0, 1), BuildingBlock: XIVTED_clean_linker_0, # of connection points: 2
#     Edge 70, Type (0, 1), BuildingBlock: XIVTED_clean_linker_0, # of connection points: 2
#     Edge 71, Type (0, 1), BuildingBlock: XIVTED_clean_linker_0, # of connection points: 2
#     Edge 72, Type (0, 1), BuildingBlock: XIVTED_clean_linker_0, # of connection points: 2
#     Edge 73, Type (0, 1), BuildingBlock: XIVTED_clean_linker_0, # of connection points: 2
#     Edge 74, Type (0, 1), BuildingBlock: XIVTED_clean_linker_0, # of connection points: 2
#     Edge 75, Type (0, 1), BuildingBlock: XIVTED_clean_linker_0, # of connection points: 2
#     Edge 76, Type (0, 1), BuildingBlock: XIVTED_clean_linker_0, # of connection points: 2
#     Edge 77, Type (0, 1), BuildingBlock: XIVTED_clean_linker_0, # of connection points: 2
#     Edge 78, Type (0, 1), BuildingBlock: XIVTED_clean_linker_0, # of connection points: 2
#     Edge 79, Type (0, 1), BuildingBlock: XIVTED_clean_linker_0, # of connection points: 2
#     Edge 80, Type (0, 1), BuildingBlock: XIVTED_clean_linker_0, # of connection points: 2
#     Edge 81, Type (0, 1), BuildingBlock: XIVTED_clean_linker_0, # of connection points: 2
#     Edge 82, Type (0, 1), BuildingBlock: XIVTED_clean_linker_0, # of connection points: 2
#     Edge 83, Type (0, 1), BuildingBlock: XIVTED_clean_linker_0, # of connection points: 2
#     Edge 84, Type (0, 1), BuildingBlock: XIVTED_clean_linker_0, # of connection points: 2
#     Edge 85, Type (0, 1), BuildingBlock: XIVTED_clean_linker_0, # of connection points: 2
#     Edge 86, Type (0, 1), BuildingBlock: XIVTED_clean_linker_0, # of connection points: 2
#     Edge 87, Type (0, 1), BuildingBlock: XIVTED_clean_linker_0, # of connection points: 2
#     Edge 88, Type (0, 1), BuildingBlock: XIVTED_clean_linker_0, # of connection points: 2
#     Edge 89, Type (0, 1), BuildingBlock: XIVTED_clean_linker_0, # of connection points: 2
#     Edge 90, Type (0, 1), BuildingBlock: XIVTED_clean_linker_0, # of connection points: 2
#     Edge 91, Type (0, 1), BuildingBlock: XIVTED_clean_linker_0, # of connection points: 2
#     Edge 92, Type (0, 1), BuildingBlock: XIVTED_clean_linker_0, # of connection points: 2
#     Edge 93, Type (0, 1), BuildingBlock: XIVTED_clean_linker_0, # of connection points: 2
#     Edge 94, Type (0, 1), BuildingBlock: XIVTED_clean_linker_0, # of connection points: 2
#     Edge 95, Type (0, 1), BuildingBlock: XIVTED_clean_linker_0, # of connection points: 2
#     Edge 96, Type (0, 1), BuildingBlock: XIVTED_clean_linker_0, # of connection points: 2
#     Edge 97, Type (0, 1), BuildingBlock: XIVTED_clean_linker_0, # of connection points: 2
#     Edge 98, Type (0, 1), BuildingBlock: XIVTED_clean_linker_0, # of connection points: 2
#     Edge 99, Type (0, 1), BuildingBlock: XIVTED_clean_linker_0, # of connection points: 2
#     Edge 100, Type (0, 1), BuildingBlock: XIVTED_clean_linker_0, # of connection points: 2
#     Edge 101, Type (0, 1), BuildingBlock: XIVTED_clean_linker_0, # of connection points: 2
#     Edge 102, Type (0, 1), BuildingBlock: XIVTED_clean_linker_0, # of connection points: 2
#     Edge 103, Type (0, 1), BuildingBlock: XIVTED_clean_linker_0, # of connection points: 2
#     Edge 104, Type (0, 1), BuildingBlock: XIVTED_clean_linker_0, # of connection points: 2
#     Edge 105, Type (0, 1), BuildingBlock: XIVTED_clean_linker_0, # of connection points: 2
#     Edge 106, Type (0, 1), BuildingBlock: XIVTED_clean_linker_0, # of connection points: 2
#     Edge 107, Type (0, 1), BuildingBlock: XIVTED_clean_linker_0, # of connection points: 2
#     Edge 108, Type (0, 1), BuildingBlock: XIVTED_clean_linker_0, # of connection points: 2
#     Edge 109, Type (0, 1), BuildingBlock: XIVTED_clean_linker_0, # of connection points: 2
#     Edge 110, Type (0, 1), BuildingBlock: XIVTED_clean_linker_0, # of connection points: 2
#     Edge 111, Type (0, 1), BuildingBlock: XIVTED_clean_linker_0, # of connection points: 2
#     Edge 112, Type (0, 1), BuildingBlock: XIVTED_clean_linker_0, # of connection points: 2
#     Edge 113, Type (0, 1), BuildingBlock: XIVTED_clean_linker_0, # of connection points: 2
#     Edge 114, Type (0, 1), BuildingBlock: XIVTED_clean_linker_0, # of connection points: 2
#     Edge 115, Type (0, 1), BuildingBlock: XIVTED_clean_linker_0, # of connection points: 2
#     Edge 116, Type (0, 1), BuildingBlock: XIVTED_clean_linker_0, # of connection points: 2
#     Edge 117, Type (0, 1), BuildingBlock: XIVTED_clean_linker_0, # of connection points: 2
#     Edge 118, Type (0, 1), BuildingBlock: XIVTED_clean_linker_0, # of connection points: 2
#     Edge 119, Type (0, 1), BuildingBlock: XIVTED_clean_linker_0, # of connection points: 2
#     Edge 120, Type (0, 1), BuildingBlock: XIVTED_clean_linker_0, # of connection points: 2
#     Edge 121, Type (0, 1), BuildingBlock: XIVTED_clean_linker_0, # of connection points: 2
#     Edge 122, Type (0, 1), BuildingBlock: XIVTED_clean_linker_0, # of connection points: 2
#     Edge 123, Type (0, 1), BuildingBlock: XIVTED_clean_linker_0, # of connection points: 2
#     Edge 124, Type (0, 1), BuildingBlock: XIVTED_clean_linker_0, # of connection points: 2
#     Edge 125, Type (0, 1), BuildingBlock: XIVTED_clean_linker_0, # of connection points: 2
#     Edge 126, Type (0, 1), BuildingBlock: XIVTED_clean_linker_0, # of connection points: 2
#     Edge 127, Type (0, 1), BuildingBlock: XIVTED_clean_linker_0, # of connection points: 2
#     Edge 128, Type (0, 1), BuildingBlock: XIVTED_clean_linker_0, # of connection points: 2
#     Edge 129, Type (0, 1), BuildingBlock: XIVTED_clean_linker_0, # of connection points: 2
#     Edge 130, Type (0, 1), BuildingBlock: XIVTED_clean_linker_0, # of connection points: 2
#     Edge 131, Type (0, 1), BuildingBlock: XIVTED_clean_linker_0, # of connection points: 2
#     Edge 132, Type (0, 1), BuildingBlock: XIVTED_clean_linker_0, # of connection points: 2
#     Edge 133, Type (0, 1), BuildingBlock: XIVTED_clean_linker_0, # of connection points: 2
#     Edge 134, Type (0, 1), BuildingBlock: XIVTED_clean_linker_0, # of connection points: 2
#     Edge 135, Type (0, 1), BuildingBlock: XIVTED_clean_linker_0, # of connection points: 2
# Relax obj value: 0.214
# Max RMSD: 0.315
# Mean RMSD: 0.186
data_MOF--net-gar--node1-AZAVOO_clean_sbu_0--node2-BETDIP_clean_sbu_0--edge1-XIVTED_clean_linker_0
_symmetry_space_group_name_H-M    P1
_symmetry_Int_Tables_number       1
_symmetry_cell_setting            triclinic
loop_
_symmetry_equiv_pos_as_xyz
'x, y, z'
_cell_length_a     64.631139
_cell_length_b     55.826489
_cell_length_c     54.736716
_cell_angle_alpha  100.29195
_cell_angle_beta   98.708554
_cell_angle_gamma 101.94311
loop_
_atom_site_label
_atom_site_type_symbol
_atom_site_fract_x
_atom_site_fract_y
_atom_site_fract_z
_atom_type_partial_charge
Mg0 Mg 1.0104 0.28719 0.3813 0.0
O1 O 1.01007 0.32064 0.41265 0.0
O2 O 0.98575 0.30707 0.43528 0.0
Mg3 Mg 0.97166 0.2653 0.41948 0.0
C4 C 0.99985 0.32448 0.43067 0.0
C5 C 0.04236 0.30702 0.34939 0.0
O6 O 0.02483 0.29663 0.33205 0.0
O7 O 0.02959 0.27157 0.40983 0.0
O8 O 1.00533 0.25939 0.43308 0.0
O9 O 0.98426 0.2964 0.35669 0.0
O10 O 0.97913 0.2703 0.38261 0.0
C11 C 0.02431 0.26227 0.42826 0.0
C12 C 0.9712 0.28238 0.36709 0.0
O13 O 0.04131 0.30804 0.37252 0.0
Mg14 Mg 0.05564 0.7703 0.74022 0.0
O15 O 0.04857 0.73252 0.71254 0.0
O16 O 0.01388 0.72257 0.69334 0.0
Mg17 Mg 0.99816 0.7524 0.71163 0.0
C18 C 0.03264 0.71822 0.69613 0.0
C19 C 0.10286 0.79398 0.73794 0.0
O20 O 0.09502 0.81389 0.73794 0.0
O21 O 0.05285 0.78827 0.70635 0.0
O22 O 0.01744 0.77809 0.69033 0.0
O23 O 0.0479 0.7524 0.77246 0.0
O24 O 0.02449 0.7631 0.74502 0.0
C25 C 0.03681 0.789 0.69003 0.0
C26 C 0.02818 0.75283 0.76393 0.0
O27 O 0.09094 0.77373 0.74031 0.0
Mg28 Mg 0.51737 0.7883 0.89376 0.0
O29 O 0.51286 0.8226 0.92082 0.0
O30 O 0.48569 0.80959 0.93999 0.0
Mg31 Mg 0.47331 0.76736 0.92565 0.0
C32 C 0.50048 0.8269 0.93638 0.0
C33 C 0.55164 0.81534 0.86761 0.0
O34 O 0.53432 0.8111 0.84993 0.0
O35 O 0.53366 0.77632 0.92732 0.0
O36 O 0.5061 0.76421 0.94624 0.0
O37 O 0.49359 0.79412 0.86347 0.0
O38 O 0.48546 0.77026 0.89065 0.0
C39 C 0.52612 0.76804 0.9452 0.0
C40 C 0.47913 0.78044 0.87246 0.0
O41 O 0.54964 0.8098 0.88879 0.0
Mg42 Mg 0.55119 0.27401 0.23799 0.0
O43 O 0.54515 0.23657 0.20991 0.0
O44 O 0.51019 0.22393 0.19176 0.0
Mg45 Mg 0.49331 0.25189 0.21143 0.0
C46 C 0.52949 0.22125 0.19395 0.0
C47 C 0.59632 0.2637 0.23463 0.0
O48 O 0.58592 0.24106 0.23532 0.0
O49 O 0.54567 0.29171 0.20431 0.0
O50 O 0.51001 0.27954 0.18999 0.0
O51 O 0.54593 0.2556 0.27069 0.0
O52 O 0.52054 0.264 0.24389 0.0
C53 C 0.52878 0.29173 0.18888 0.0
C54 C 0.52571 0.25434 0.26285 0.0
O55 O 0.58681 0.28148 0.23702 0.0
Mg56 Mg 0.06986 0.81288 0.17543 0.0
O57 O 0.06255 0.77465 0.1472 0.0
O58 O 0.02898 0.76739 0.12539 0.0
Mg59 Mg 0.01464 0.80039 0.13907 0.0
C60 C 0.04666 0.7608 0.13036 0.0
C61 C 0.11151 0.79324 0.18897 0.0
O62 O 0.09644 0.77304 0.18783 0.0
O63 O 0.07377 0.8352 0.1439 0.0
O64 O 0.03926 0.82744 0.1245 0.0
O65 O 0.05513 0.79435 0.2043 0.0
O66 O 0.03689 0.80931 0.1758 0.0
C67 C 0.05914 0.83837 0.12702 0.0
C68 C 0.0369 0.79808 0.19434 0.0
O69 O 0.10591 0.81274 0.18412 0.0
Mg70 Mg 0.49911 0.74803 0.42624 0.0
O71 O 0.50677 0.78521 0.45603 0.0
O72 O 0.47917 0.78305 0.4764 0.0
Mg73 Mg 0.45436 0.74556 0.46057 0.0
C74 C 0.49721 0.79483 0.47271 0.0
C75 C 0.54425 0.77545 0.41447 0.0
O76 O 0.53481 0.79416 0.41448 0.0
O77 O 0.50723 0.72585 0.45684 0.0
O78 O 0.47828 0.72334 0.47486 0.0
O79 O 0.48043 0.76558 0.39879 0.0
O80 O 0.46584 0.74451 0.42475 0.0
C81 C 0.49625 0.71786 0.47262 0.0
C82 C 0.46362 0.75781 0.40807 0.0
O83 O 0.53416 0.75519 0.41922 0.0
Mg84 Mg 0.57239 0.31451 0.68225 0.0
O85 O 0.56607 0.27636 0.65426 0.0
O86 O 0.533 0.26918 0.63111 0.0
Mg87 Mg 0.51798 0.3018 0.64382 0.0
C88 C 0.55056 0.26259 0.63686 0.0
C89 C 0.61552 0.32184 0.71687 0.0
O90 O 0.60291 0.3303 0.73125 0.0
O91 O 0.57744 0.33699 0.65108 0.0
O92 O 0.54324 0.32927 0.63062 0.0
O93 O 0.55682 0.29561 0.71016 0.0
O94 O 0.53921 0.31066 0.68117 0.0
C95 C 0.56317 0.34029 0.63386 0.0
C96 C 0.53875 0.29915 0.6995 0.0
O97 O 0.60811 0.31414 0.69321 0.0
Mg98 Mg 0.99949 0.24582 0.92205 0.0
O99 O 1.00503 0.28361 0.95033 0.0
O100 O 0.97575 0.28144 0.96773 0.0
Mg101 Mg 0.95184 0.24338 0.95098 0.0
C102 C 0.99421 0.29339 0.96535 0.0
C103 C 0.04377 0.27273 0.91077 0.0
O104 O 0.03215 0.28859 0.90564 0.0
O105 O 1.00555 0.22509 0.95406 0.0
O106 O 0.97485 0.22154 0.96865 0.0
O107 O 0.98349 0.26191 0.89188 0.0
O108 O 0.96591 0.24198 0.9167 0.0
C109 C 0.99337 0.21679 0.96857 0.0
C110 C 0.96555 0.25475 0.89927 0.0
O111 O 0.03523 0.25376 0.91883 0.0
Mg112 Mg 0.42726 0.06806 0.30009 0.0
O113 O 0.40119 0.02894 0.2959 0.0
O114 O 0.38756 0.03534 0.33103 0.0
Mg115 Mg 0.40365 0.07403 0.35785 0.0
C116 C 0.38843 0.02105 0.31031 0.0
C117 C 0.45442 0.06095 0.2544 0.0
O118 O 0.4689 0.06697 0.2755 0.0
O119 O 0.40101 0.09419 0.29353 0.0
O120 O 0.39175 0.09924 0.33148 0.0
O121 O 0.45297 0.05254 0.32259 0.0
O122 O 0.43277 0.07295 0.34172 0.0
C123 C 0.39116 0.10488 0.30975 0.0
C124 C 0.44763 0.06078 0.34373 0.0
O125 O 0.43458 0.05938 0.25667 0.0
Mg126 Mg 0.27009 0.16107 0.52287 0.0
O127 O 0.27729 0.18666 0.56295 0.0
O128 O 0.31078 0.21029 0.56916 0.0
Mg129 Mg 0.32496 0.20058 0.53381 0.0
C130 C 0.29327 0.20347 0.5769 0.0
C131 C 0.2266 0.12513 0.51685 0.0
O132 O 0.23886 0.11185 0.50651 0.0
O133 O 0.26571 0.19325 0.50273 0.0
O134 O 0.30008 0.21489 0.50917 0.0
O135 O 0.28482 0.13261 0.5385 0.0
O136 O 0.30304 0.16299 0.52385 0.0
C137 C 0.28012 0.2113 0.49945 0.0
C138 C 0.303 0.14392 0.53401 0.0
O139 O 0.23438 0.14857 0.52538 0.0
Mg140 Mg 0.14635 0.05081 0.84075 0.0
O141 O 0.16541 0.09194 0.8489 0.0
O142 O 0.18642 0.10044 0.88719 0.0
Mg143 Mg 0.17993 0.06563 0.90418 0.0
C144 C 0.17982 0.10692 0.86673 0.0
C145 C 0.12831 0.03055 0.78349 0.0
O146 O 0.12577 1.00971 0.79188 0.0
O147 O 0.17692 0.03872 0.83429 0.0
O148 O 0.19581 0.04652 0.87388 0.0
O149 O 0.11963 0.06049 0.85957 0.0
O150 O 0.14835 0.05094 0.87887 0.0
C151 C 0.19357 0.03839 0.85002 0.0
C152 C 0.13031 0.05685 0.88005 0.0
O153 O 0.13665 0.05134 0.79914 0.0
Mg154 Mg 0.24872 0.88381 0.02839 0.0
O155 O 0.25855 0.86618 0.99193 0.0
O156 O 0.29167 0.86062 1.00332 0.0
Mg157 Mg 0.30266 0.87395 0.04596 0.0
C158 C 0.27514 0.85897 0.98648 0.0
C159 C 0.21106 0.88867 0.99004 0.0
O160 O 0.22752 0.89678 0.97975 0.0
O161 O 0.2421 0.84594 0.03927 0.0
O162 O 0.27572 0.84183 0.05043 0.0
O163 O 0.26381 0.92168 0.02365 0.0
O164 O 0.28092 0.89926 0.04526 0.0
C165 C 0.25529 0.83366 0.04733 0.0
C166 C 0.28162 0.91897 0.03593 0.0
O167 O 0.21419 0.87792 1.00839 0.0
Mg168 Mg 0.33239 0.42233 0.0978 0.0
O169 O 0.32553 0.39291 0.0599 0.0
O170 O 0.35316 0.37453 0.06179 0.0
Mg171 Mg 0.37714 0.39116 0.09916 0.0
C172 C 0.33537 0.37709 0.05009 0.0
C173 C 0.28883 0.43233 0.07063 0.0
O174 O 0.29945 0.43271 0.05198 0.0
O175 O 0.32369 0.39189 0.12043 0.0
O176 O 0.3522 0.37495 0.12171 0.0
O177 O 0.35133 0.45088 0.08039 0.0
O178 O 0.3658 0.42585 0.10075 0.0
C179 C 0.3341 0.37647 0.12777 0.0
C180 C 0.36821 0.44296 0.08774 0.0
O181 O 0.2976 0.42764 0.09113 0.0
Mg182 Mg 0.84074 0.20555 0.03937 0.0
O183 O 0.85537 0.21093 0.08111 0.0
O184 O 0.88695 0.2392 0.09006 0.0
Mg185 Mg 0.89387 0.24932 0.05304 0.0
C186 C 0.872 0.22462 0.09689 0.0
C187 C 0.80141 0.16307 0.0391 0.0
O188 O 0.81203 0.15069 0.02483 0.0
O189 O 0.83398 0.24378 0.04892 0.0
O190 O 0.86637 0.27015 0.05471 0.0
O191 O 0.85557 0.17438 0.02867 0.0
O192 O 0.87139 0.21422 0.03092 0.0
C193 C 0.846 0.26595 0.05384 0.0
C194 C 0.87228 0.19103 0.02726 0.0
O195 O 0.80865 0.18657 0.04744 0.0
Mg196 Mg 0.16104 0.51334 0.31783 0.0
O197 O 0.18479 0.55312 0.32101 0.0
O198 O 0.2076 0.56247 0.3579 0.0
Mg199 Mg 0.19844 0.52974 0.37889 0.0
C200 C 0.20067 0.56827 0.33712 0.0
C201 C 0.12849 0.50546 0.26305 0.0
O202 O 0.11489 0.49684 0.2768 0.0
O203 O 0.18688 0.48715 0.31246 0.0
O204 O 0.20719 0.49742 0.35134 0.0
O205 O 0.13791 0.5314 0.33963 0.0
O206 O 0.16363 0.51829 0.35942 0.0
C207 C 0.20207 0.48368 0.32886 0.0
C208 C 0.14736 0.52816 0.36092 0.0
O209 O 0.14861 0.5127 0.27345 0.0
Mg210 Mg 0.83403 0.92347 0.60037 0.0
O211 O 0.82742 0.89406 0.56271 0.0
O212 O 0.85455 0.87493 0.56497 0.0
Mg213 Mg 0.87777 0.89083 0.60308 0.0
C214 C 0.83707 0.87801 0.55301 0.0
C215 C 0.79879 0.9526 0.59328 0.0
O216 O 0.81698 0.96993 0.59885 0.0
O217 O 0.82378 0.89313 0.62269 0.0
O218 O 0.85166 0.87507 0.62436 0.0
O219 O 0.85438 0.9511 0.58308 0.0
O220 O 0.86743 0.92614 0.60492 0.0
C221 C 0.83352 0.87711 0.62998 0.0
C222 C 0.87074 0.94291 0.59165 0.0
O223 O 0.79968 0.92983 0.59189 0.0
Mg224 Mg 0.94505 0.02825 0.2881 0.0
O225 O 0.9243 0.99012 0.29197 0.0
O226 O 0.91603 0.99811 0.33048 0.0
Mg227 Mg 0.92869 0.0394 0.34965 0.0
C228 C 0.91534 0.98305 0.30969 0.0
C229 C 0.94763 0.03406 0.23556 0.0
O230 O 0.94675 0.0558 0.24878 0.0
O231 O 0.91423 0.04162 0.27962 0.0
O232 O 0.90608 0.04887 0.31814 0.0
O233 O 0.97525 0.02091 0.30857 0.0
O234 O 0.95359 0.0406 0.32704 0.0
C235 C 0.90221 0.04879 0.29451 0.0
C236 C 0.97045 0.03181 0.32916 0.0
O237 O 0.94537 1.01534 0.24606 0.0
Mg238 Mg 0.34159 0.69787 0.5352 0.0
O239 O 0.35434 0.71381 0.57738 0.0
O240 O 0.38248 0.74648 0.58259 0.0
Mg241 Mg 0.38832 0.75035 0.5433 0.0
C242 C 0.36905 0.73195 0.59153 0.0
C243 C 0.31022 0.66369 0.56059 0.0
O244 O 0.32837 0.66384 0.5752 0.0
O245 O 0.32789 0.73135 0.5351 0.0
O246 O 0.35634 0.76337 0.53913 0.0
O247 O 0.3624 0.67198 0.53485 0.0
O248 O 0.37205 0.71042 0.52774 0.0
C249 C 0.33609 0.75458 0.53721 0.0
C250 C 0.37705 0.68985 0.53105 0.0
O251 O 0.31063 0.67593 0.54313 0.0
Mg252 Mg 0.44193 0.52617 0.78809 0.0
O253 O 0.42123 0.48753 0.79068 0.0
O254 O 0.41007 0.49521 0.82754 0.0
Mg255 Mg 0.42091 0.53663 0.84663 0.0
C256 C 0.41108 0.48021 0.80744 0.0
C257 C 0.44715 0.53263 0.73657 0.0
O258 O 0.44548 0.55408 0.74963 0.0
O259 O 0.4112 0.5384 0.77661 0.0
O260 O 0.39972 0.54553 0.81318 0.0
O261 O 0.47133 0.51979 0.81091 0.0
O262 O 0.44799 0.53847 0.82707 0.0
C263 C 0.39774 0.54521 0.78951 0.0
C264 C 0.46509 0.5302 0.83069 0.0
O265 O 0.44473 0.51373 0.7468 0.0
Mg266 Mg 0.66001 1.00983 0.81983 0.0
O267 O 0.68361 0.04948 0.82274 0.0
O268 O 0.7086 0.05732 0.85776 0.0
Mg269 Mg 0.69849 0.02586 0.87994 0.0
C270 C 0.70068 0.06361 0.83769 0.0
C271 C 0.62873 1.01427 0.76937 0.0
O272 O 0.61849 0.01984 0.78779 0.0
O273 O 0.68554 0.98316 0.81383 0.0
O274 O 0.70628 0.99298 0.85242 0.0
O275 O 0.6375 0.02854 0.84194 0.0
O276 O 0.66323 1.01529 0.86155 0.0
C277 C 0.70077 0.97934 0.82992 0.0
C278 C 0.64715 0.02551 0.86321 0.0
O279 O 0.64686 1.00862 0.77534 0.0
Mg280 Mg 0.77292 0.66243 0.02681 0.0
O281 O 0.77957 0.68931 0.06597 0.0
O282 O 0.81294 0.7133 0.07266 0.0
Mg283 Mg 0.82765 0.70242 0.03794 0.0
C284 C 0.79518 0.70657 0.07993 0.0
C285 C 0.73355 0.64121 0.04828 0.0
O286 O 0.75017 0.64057 0.06504 0.0
O287 O 0.76863 0.69356 1.00516 0.0
O288 O 0.80288 0.71562 0.01187 0.0
O289 O 0.78767 0.63495 0.04423 0.0
O290 O 0.80611 0.66454 0.0288 0.0
C291 C 0.78298 0.71152 1.00162 0.0
C292 C 0.80599 0.64614 0.04003 0.0
O293 O 0.73707 0.65061 0.0293 0.0
Mg294 Mg 0.92452 0.56245 0.79609 0.0
O295 O 0.89811 0.5234 0.79252 0.0
O296 O 0.88547 0.53032 0.82832 0.0
Mg297 Mg 0.90178 0.56923 0.8546 0.0
C298 C 0.88579 0.51575 0.80753 0.0
C299 C 0.95173 0.55532 0.75019 0.0
O300 O 0.9662 0.56076 0.77125 0.0
O301 O 0.89847 0.58889 0.78991 0.0
O302 O 0.88972 0.59425 0.82813 0.0
O303 O 0.95047 0.54711 0.81852 0.0
O304 O 0.93043 0.56764 0.83775 0.0
C305 C 0.88891 0.59978 0.80634 0.0
C306 C 0.94535 0.55558 0.83972 0.0
O307 O 0.93192 0.554 0.75253 0.0
Mg308 Mg 0.76973 0.41031 0.52593 0.0
O309 O 0.7703 0.39293 0.48491 0.0
O310 O 0.80488 0.39933 0.48093 0.0
Mg311 Mg 0.82605 0.41842 0.51976 0.0
C312 C 0.78476 0.39102 0.47166 0.0
C313 C 0.72133 0.39893 0.50413 0.0
O314 O 0.72927 0.40779 0.48593 0.0
O315 O 0.77898 0.37664 0.53765 0.0
O316 O 0.81386 0.38315 0.5351 0.0
O317 O 0.77086 0.44785 0.51663 0.0
O318 O 0.79948 0.43422 0.53021 0.0
C319 C 0.79689 0.37021 0.54017 0.0
C320 C 0.79159 0.45145 0.52237 0.0
O321 O 0.73404 0.39334 0.52107 0.0
Mg322 Mg 0.64712 0.55631 0.34406 0.0
O323 O 0.66699 0.59705 0.35145 0.0
O324 O 0.68903 0.60501 0.38904 0.0
Mg325 Mg 0.68243 0.57049 0.40642 0.0
C326 C 0.68204 0.61167 0.36883 0.0
C327 C 0.62859 0.53573 0.28702 0.0
O328 O 0.62817 0.5149 0.29515 0.0
O329 O 0.67678 0.54277 0.3361 0.0
O330 O 0.69652 0.55 0.37518 0.0
O331 O 0.6215 0.56712 0.36433 0.0
O332 O 0.65037 0.55684 0.38223 0.0
C333 C 0.69349 0.54165 0.35127 0.0
C334 C 0.63269 0.5633 0.38437 0.0
O335 O 0.636 0.55665 0.30272 0.0
Tb336 Tb 0.01973 0.02026 0.04402 0.0
Tb337 Tb 0.06299 0.05112 0.07272 0.0
C338 C 0.98004 1.00567 0.02765 0.0
C339 C 0.96581 0.02043 0.01741 0.0
C340 C 0.94887 0.02479 0.02944 0.0
C341 C 0.93984 0.04488 0.02606 0.0
C342 C 0.94754 0.06075 0.01047 0.0
C343 C 0.96284 0.05473 0.99634 0.0
C344 C 0.97202 0.03479 0.99988 0.0
C345 C 0.05059 0.02489 0.01758 0.0
C346 C 0.03163 0.08064 0.0506 0.0
C347 C 0.10308 0.06517 0.08364 0.0
C348 C 0.11805 0.05062 0.0742 0.0
C349 C 0.12325 0.0517 0.05028 0.0
C350 C 0.13173 0.03314 0.03768 0.0
C351 C 0.13554 1.01331 0.04888 0.0
C352 C 0.13221 1.01349 0.07372 0.0
C353 C 0.12358 0.03198 0.08627 0.0
C354 C 0.03257 0.048 0.09946 0.0
C355 C 0.05102 0.99093 0.0643 0.0
O356 O 0.98854 1.01404 0.05178 0.0
O357 O 0.99423 1.00006 0.01427 0.0
O358 O 0.04732 0.04132 0.03434 0.0
O359 O 0.03521 1.00478 0.01372 0.0
O360 O 0.01672 0.05911 0.04447 0.0
O361 O 0.05182 0.08199 0.06082 0.0
O362 O 0.09134 0.07263 0.0662 0.0
O363 O 0.09159 0.05591 0.09911 0.0
O364 O 0.03512 0.03067 0.08286 0.0
O365 O 0.04871 0.06742 0.10339 0.0
O366 O 0.06622 1.01178 0.06691 0.0
O367 O 0.03039 0.99061 0.05857 0.0
H368 H 0.9439 1.01402 0.04307 0.0
H369 H 0.92771 0.0489 0.03678 0.0
H370 H 0.96908 0.0667 0.98425 0.0
H371 H 0.9852 0.03204 0.99047 0.0
H372 H 0.11933 0.06587 0.04045 0.0
H373 H 0.1341 0.0336 0.01859 0.0
H374 H 0.13559 0.99885 0.08316 0.0
H375 H 0.11999 0.03071 0.10476 0.0
Tb376 Tb 0.29568 0.77842 0.28524 0.0
Tb377 Tb 0.28254 0.80313 0.32693 0.0
C378 C 0.30168 0.76307 0.24133 0.0
C379 C 0.28754 0.75032 0.21699 0.0
C380 C 0.2965 0.74733 0.19529 0.0
C381 C 0.28323 0.74121 0.17138 0.0
C382 C 0.26074 0.7381 0.16881 0.0
C383 C 0.25171 0.73876 0.1907 0.0
C384 C 0.26505 0.74493 0.21466 0.0
C385 C 0.32131 0.77848 0.3279 0.0
C386 C 0.31344 0.83888 0.30374 0.0
C387 C 0.27026 0.82253 0.36564 0.0
C388 C 0.2626 0.81943 0.38885 0.0
C389 C 0.26104 0.79699 0.39717 0.0
C390 C 0.25689 0.79606 0.42132 0.0
C391 C 0.25447 0.81764 0.43739 0.0
C392 C 0.25437 0.83944 0.42806 0.0
C393 C 0.2584 0.84029 0.40389 0.0
C394 C 0.25903 0.80295 0.28246 0.0
C395 C 0.26723 0.74403 0.31202 0.0
O396 O 0.30275 0.75026 0.25901 0.0
O397 O 0.29962 0.78564 0.24988 0.0
O398 O 0.31379 0.79664 0.32302 0.0
O399 O 0.31552 0.7605 0.30809 0.0
O400 O 0.31068 0.81867 0.28536 0.0
O401 O 0.30538 0.83647 0.32407 0.0
O402 O 0.29028 0.82174 0.36512 0.0
O403 O 0.25721 0.81104 0.34429 0.0
O404 O 0.26498 0.78464 0.28909 0.0
O405 O 0.26695 0.82233 0.30065 0.0
O406 O 0.27417 0.76364 0.33137 0.0
O407 O 0.27017 0.7473 0.28931 0.0
H408 H 0.31384 0.75156 0.19683 0.0
H409 H 0.29089 0.74121 0.15511 0.0
H410 H 0.23447 0.73615 0.18941 0.0
H411 H 0.25793 0.74716 0.23136 0.0
H412 H 0.26417 0.78073 0.38563 0.0
H413 H 0.25742 0.77909 0.42813 0.0
H414 H 0.25258 0.85627 0.44004 0.0
H415 H 0.25941 0.8577 0.39747 0.0
Tb416 Tb 0.56567 0.03613 0.54699 0.0
Tb417 Tb 0.51749 0.02762 0.55733 0.0
C418 C 0.60575 0.04087 0.55245 0.0
C419 C 0.62299 0.0285 0.56071 0.0
C420 C 0.62248 1.00361 0.54943 0.0
C421 C 0.6405 0.9937 0.55472 0.0
C422 C 0.65943 1.00845 0.57137 0.0
C423 C 0.65941 0.0329 0.58359 0.0
C424 C 0.64145 0.0428 0.57824 0.0
C425 C 0.53703 0.0402 0.50692 0.0
C426 C 0.53576 0.98079 0.53801 0.0
C427 C 0.47745 0.0225 0.55246 0.0
C428 C 0.46075 0.03608 0.54646 0.0
C429 C 0.46559 0.0624 0.55125 0.0
C430 C 0.44898 0.07498 0.54924 0.0
C431 C 0.42725 0.06144 0.54247 0.0
C432 C 0.42263 0.03506 0.53649 0.0
C433 C 0.43923 0.02254 0.53853 0.0
C434 C 0.54595 0.02384 0.59759 0.0
C435 C 0.54694 0.08287 0.56624 0.0
O436 O 0.59656 0.05146 0.56986 0.0
O437 O 0.59201 0.02946 0.53135 0.0
O438 O 0.53418 0.0362 0.52833 0.0
O439 O 0.55754 0.0423 0.50792 0.0
O440 O 0.55557 0.99527 0.54176 0.0
O441 O 0.51855 0.98967 0.54079 0.0
O442 O 0.48663 1.01388 0.53404 0.0
O443 O 0.49122 0.03239 0.57386 0.0
O444 O 0.54909 0.02781 0.57623 0.0
O445 O 0.52543 0.02164 0.59627 0.0
O446 O 0.52725 0.06809 0.56191 0.0
O447 O 0.56446 0.07436 0.56393 0.0
H448 H 0.60847 0.99206 0.53582 0.0
H449 H 0.6399 0.97487 0.54486 0.0
H450 H 0.67348 0.04465 0.59696 0.0
H451 H 0.64228 0.06201 0.5872 0.0
H452 H 0.48213 0.07321 0.5575 0.0
H453 H 0.45312 0.09529 0.55408 0.0
H454 H 0.40613 0.02403 0.53069 0.0
H455 H 0.43518 1.00222 0.53476 0.0
Tb456 Tb 0.2735 0.28675 0.8073 0.0
Tb457 Tb 0.31791 0.27628 0.81803 0.0
C458 C 0.23455 0.28757 0.8063 0.0
C459 C 0.2184 0.2868 0.82298 0.0
C460 C 0.20386 0.26403 0.82231 0.0
C461 C 0.18691 0.26352 0.83553 0.0
C462 C 0.18397 0.2858 0.84966 0.0
C463 C 0.19893 0.30847 0.85096 0.0
C464 C 0.21588 0.30898 0.83773 0.0
C465 C 0.30544 0.32061 0.79948 0.0
C466 C 0.30098 0.30053 0.86415 0.0
C467 C 0.3563 0.27307 0.8195 0.0
C468 C 0.37241 0.27261 0.80308 0.0
C469 C 0.37651 0.29035 0.78806 0.0
C470 C 0.3932 0.29064 0.77442 0.0
C471 C 0.40606 0.27317 0.77546 0.0
C472 C 0.40136 0.25497 0.78989 0.0
C473 C 0.38478 0.25476 0.80358 0.0
C474 C 0.28626 0.24356 0.82762 0.0
C475 C 0.29162 0.2647 0.76107 0.0
O476 O 0.24109 0.26706 0.79986 0.0
O477 O 0.25027 0.30781 0.81086 0.0
O478 O 0.30594 0.30877 0.81697 0.0
O479 O 0.28589 0.31514 0.78654 0.0
O480 O 0.28167 0.29507 0.84916 0.0
O481 O 0.31841 0.29751 0.85528 0.0
O482 O 0.35072 0.29426 0.82584 0.0
O483 O 0.33988 0.25353 0.81432 0.0
O484 O 0.28537 0.25427 0.80923 0.0
O485 O 0.30585 0.24965 0.84036 0.0
O486 O 0.3106 0.27028 0.77662 0.0
O487 O 0.27377 0.2669 0.76937 0.0
H488 H 0.20515 0.24662 0.81089 0.0
H489 H 0.1756 0.24576 0.83378 0.0
H490 H 0.19737 0.32595 0.86194 0.0
H491 H 0.22668 0.32688 0.83856 0.0
H492 H 0.36717 0.30432 0.78729 0.0
H493 H 0.39645 0.30507 0.76371 0.0
H494 H 0.4106 0.24092 0.79076 0.0
H495 H 0.38184 0.24087 0.81497 0.0
Tb496 Tb 0.05234 0.05925 0.56515 0.0
Tb497 Tb 0.04645 1.00169 0.5453 0.0
C498 C 0.06122 0.10618 0.57443 0.0
C499 C 0.06912 0.12587 0.56141 0.0
C500 C 0.07903 0.12089 0.5406 0.0
C501 C 0.08506 0.13958 0.52738 0.0
C502 C 0.08089 0.16336 0.53452 0.0
C503 C 0.07152 0.1683 0.55595 0.0
C504 C 0.06579 0.14974 0.5693 0.0
C505 C 0.01754 0.02901 0.57214 0.0
C506 C 0.03733 0.03468 0.50632 0.0
C507 C 0.02988 0.95558 0.53487 0.0
C508 C 0.03597 0.93382 0.54245 0.0
C509 C 0.0198 0.91254 0.54144 0.0
C510 C 0.02476 0.89311 0.55219 0.0
C511 C 0.04605 0.89466 0.56409 0.0
C512 C 0.06244 0.91551 0.56374 0.0
C513 C 0.0574 0.93505 0.55314 0.0
C514 C 0.08571 0.0273 0.54364 0.0
C515 C 0.06936 0.02775 0.6023 0.0
O516 O 0.07493 0.09316 0.58127 0.0
O517 O 0.04179 0.09217 0.56443 0.0
O518 O 0.02608 0.02662 0.55297 0.0
O519 O 0.02791 0.04968 0.58789 0.0
O520 O 0.04695 0.05527 0.52393 0.0
O521 O 0.03277 1.01214 0.51144 0.0
O522 O 0.02559 0.97135 0.55315 0.0
O523 O 0.0418 0.9668 0.52089 0.0
O524 O 0.07042 0.03495 0.55122 0.0
O525 O 0.07916 1.00303 0.5369 0.0
O526 O 0.05857 1.00665 0.58599 0.0
O527 O 0.07121 0.05014 0.59676 0.0
H528 H 0.08159 0.10242 0.53418 0.0
H529 H 0.09241 0.13517 0.51116 0.0
H530 H 0.06753 0.18609 0.56174 0.0
H531 H 0.05806 0.15378 0.58528 0.0
H532 H 1.00315 0.91148 0.53343 0.0
H533 H 0.01165 0.87762 0.55249 0.0
H534 H 0.07901 0.91714 0.57247 0.0
H535 H 0.07006 0.95151 0.55416 0.0
Tb536 Tb 0.28407 0.75724 0.76532 0.0
Tb537 Tb 0.29973 0.8136 0.78205 0.0
C538 C 0.27242 0.71272 0.74037 0.0
C539 C 0.28271 0.69157 0.73785 0.0
C540 C 0.30523 0.6958 0.74364 0.0
C541 C 0.31493 0.67564 0.74265 0.0
C542 C 0.30225 0.6509 0.73634 0.0
C543 C 0.27968 0.64668 0.73045 0.0
C544 C 0.26998 0.66691 0.73106 0.0
C545 C 0.27564 0.77656 0.80876 0.0
C546 C 0.3279 0.77809 0.8027 0.0
C547 C 0.3125 0.85853 0.80572 0.0
C548 C 0.30297 0.8802 0.80676 0.0
C549 C 0.28071 0.87676 0.79868 0.0
C550 C 0.27169 0.89743 0.79938 0.0
C551 C 0.28479 0.9219 0.80817 0.0
C552 C 0.30715 0.92525 0.81601 0.0
C553 C 0.31617 0.9045 0.81525 0.0
C554 C 0.30977 0.79327 0.73956 0.0
C555 C 0.2549 0.79328 0.74688 0.0
O556 O 0.28098 0.73171 0.73114 0.0
O557 O 0.26803 0.7199 0.76269 0.0
O558 O 0.27493 0.78599 0.78949 0.0
O559 O 0.27969 0.75464 0.8035 0.0
O560 O 0.31641 0.7588 0.78468 0.0
O561 O 0.32273 0.80002 0.80625 0.0
O562 O 0.30288 0.84041 0.81531 0.0
O563 O 0.31726 0.85016 0.78393 0.0
O564 O 0.30955 0.78463 0.75914 0.0
O565 O 0.3054 0.81508 0.7438 0.0
O566 O 0.26758 0.81268 0.7637 0.0
O567 O 0.25936 0.7709 0.7432 0.0
H568 H 0.31533 0.71467 0.74952 0.0
H569 H 0.33234 0.67942 0.74779 0.0
H570 H 0.26958 0.62776 0.72561 0.0
H571 H 0.25255 0.66335 0.72675 0.0
H572 H 0.27028 0.8581 0.79205 0.0
H573 H 0.25437 0.8942 0.79364 0.0
H574 H 0.31764 0.94388 0.8227 0.0
H575 H 0.33343 0.90742 0.82134 0.0
Tb576 Tb 0.52903 0.0429 0.03899 0.0
Tb577 Tb 0.56794 0.04046 0.07476 0.0
C578 C 0.49177 0.0319 0.01265 0.0
C579 C 0.47009 0.02556 0.01846 0.0
C580 C 0.46553 1.00954 0.03502 0.0
C581 C 0.44477 1.00295 0.0398 0.0
C582 C 0.42816 1.01247 0.02837 0.0
C583 C 0.43296 0.02912 0.01236 0.0
C584 C 0.45375 0.03554 1.0074 0.0
C585 C 0.55311 0.08692 0.06432 0.0
C586 C 0.52543 0.03955 0.09746 0.0
C587 C 0.60473 0.05097 0.1025 0.0
C588 C 0.62704 0.05651 0.09875 0.0
C589 C 0.63195 0.04902 0.07491 0.0
C590 C 0.65256 0.05808 0.0705 0.0
C591 C 0.66855 0.07473 0.08993 0.0
C592 C 0.66383 0.08097 0.11419 0.0
C593 C 0.6432 0.072 0.11851 0.0
C594 C 0.54272 0.99703 0.05027 0.0
C595 C 0.57154 0.0444 0.01633 0.0
O596 O 0.50338 1.01553 0.01527 0.0
O597 O 0.50287 0.05504 0.02189 0.0
O598 O 0.54897 0.06698 0.07225 0.0
O599 O 0.54291 0.08246 0.04098 0.0
O600 O 0.51527 0.03713 0.07362 0.0
O601 O 0.54672 0.04276 0.10261 0.0
O602 O 0.59415 0.06772 0.09763 0.0
O603 O 0.59321 0.02797 0.09331 0.0
O604 O 0.54779 0.01643 0.04182 0.0
O605 O 0.55312 1.00102 0.07343 0.0
O606 O 0.58157 0.04582 0.04001 0.0
O607 O 0.55034 0.04199 0.01115 0.0
H608 H 0.47791 1.00171 0.04399 0.0
H609 H 0.44166 0.98976 0.05188 0.0
H610 H 0.42064 0.03712 1.00356 0.0
H611 H 0.45704 0.04815 0.99478 0.0
H612 H 0.61964 0.03698 0.05948 0.0
H613 H 0.6556 0.05305 0.05156 0.0
H614 H 0.67591 0.09338 0.12966 0.0
H615 H 0.63962 0.07795 0.13704 0.0
Tb616 Tb 0.27274 0.27338 0.29832 0.0
Tb617 Tb 0.31404 0.30903 0.32318 0.0
C618 C 0.23374 0.25098 0.29097 0.0
C619 C 0.21502 0.2606 0.29634 0.0
C620 C 0.21766 0.28119 0.31643 0.0
C621 C 0.20021 0.2911 0.32107 0.0
C622 C 0.17959 0.28033 0.30604 0.0
C623 C 0.17697 0.25966 0.28587 0.0
C624 C 0.1946 0.24996 0.281 0.0
C625 C 0.29584 0.29034 0.26667 0.0
C626 C 0.27477 0.33391 0.31612 0.0
C627 C 0.35321 0.32998 0.32968 0.0
C628 C 0.37074 0.31783 0.32456 0.0
C629 C 0.36653 0.29699 0.30436 0.0
C630 C 0.38175 0.28301 0.30115 0.0
C631 C 0.40217 0.29022 0.31719 0.0
C632 C 0.40662 0.31163 0.33707 0.0
C633 C 0.3909 0.32511 0.34092 0.0
C634 C 0.29062 0.29334 0.35501 0.0
C635 C 0.31233 0.2487 0.30515 0.0
O636 O 0.24794 0.25139 0.31092 0.0
O637 O 0.2428 0.25927 0.27331 0.0
O638 O 0.29349 0.30247 0.28739 0.0
O639 O 0.28406 0.26756 0.26246 0.0
O640 O 0.2631 0.31019 0.30796 0.0
O641 O 0.29611 0.33848 0.32241 0.0
O642 O 0.33908 0.3296 0.30964 0.0
O643 O 0.34399 0.32376 0.3481 0.0
O644 O 0.29293 0.28039 0.3346 0.0
O645 O 0.30284 0.31587 0.35881 0.0
O646 O 0.32357 0.27236 0.31436 0.0
O647 O 0.29103 0.24387 0.29792 0.0
H648 H 0.23324 0.28968 0.32866 0.0
H649 H 0.20294 0.30726 0.33647 0.0
H650 H 0.16126 0.25067 0.27414 0.0
H651 H 0.19229 0.2341 0.26538 0.0
H652 H 0.35121 0.29102 0.29121 0.0
H653 H 0.37722 0.26635 0.28609 0.0
H654 H 0.42225 0.31819 0.34957 0.0
H655 H 0.39443 0.34108 0.35668 0.0
Tb656 Tb 0.55041 0.56235 0.06618 0.0
Tb657 Tb 0.54976 0.50887 0.04925 0.0
C658 C 0.56326 0.60829 0.0863 0.0
C659 C 0.57018 0.63209 0.07851 0.0
C660 C 0.58809 0.63683 0.06682 0.0
C661 C 0.59343 0.65902 0.05829 0.0
C662 C 0.58093 0.67678 0.06125 0.0
C663 C 0.56365 0.6724 0.07403 0.0
C664 C 0.55842 0.65035 0.08266 0.0
C665 C 0.51255 0.53176 0.06207 0.0
C666 C 0.53541 0.54041 1.00914 0.0
C667 C 0.54019 0.46265 0.03038 0.0
C668 C 0.54297 0.44093 0.04076 0.0
C669 C 0.55701 0.4443 0.06394 0.0
C670 C 0.5578 0.42408 0.0754 0.0
C671 C 0.54448 0.40019 0.06389 0.0
C672 C 0.53106 0.39672 0.04014 0.0
C673 C 0.53031 0.41702 0.02866 0.0
C674 C 0.58729 0.5404 0.05391 0.0
C675 C 0.5645 0.53028 0.10661 0.0
O676 O 0.57598 0.59287 0.0847 0.0
O677 O 0.54288 0.59671 0.07853 0.0
O678 O 0.53062 0.52797 0.07044 0.0
O679 O 0.51532 0.55414 0.05769 0.0
O680 O 0.54474 0.5615 0.02591 0.0
O681 O 0.53364 0.51834 0.01534 0.0
O682 O 0.5268 0.47452 0.03993 0.0
O683 O 0.55796 0.47796 0.02876 0.0
O684 O 0.56911 0.54325 0.04483 0.0
O685 O 0.58502 0.51864 0.05978 0.0
O686 O 0.55751 0.50923 0.08924 0.0
O687 O 0.5638 0.55227 0.10112 0.0
H688 H 0.5977 0.62324 0.06375 0.0
H689 H 0.60698 0.66195 0.04879 0.0
H690 H 0.55338 0.68538 0.07626 0.0
H691 H 0.54471 0.6472 0.09189 0.0
H692 H 0.56679 0.46274 0.0736 0.0
H693 H 0.56802 0.42745 0.09388 0.0
H694 H 0.52076 0.37847 0.03079 0.0
H695 H 0.51936 0.41422 0.01076 0.0
Tb696 Tb 0.77766 0.25522 0.26407 0.0
Tb697 Tb 0.79447 0.31098 0.27316 0.0
C698 C 0.76624 0.20907 0.24491 0.0
C699 C 0.77632 0.18823 0.24794 0.0
C700 C 0.77439 0.16865 0.2271 0.0
C701 C 0.78494 0.14945 0.22956 0.0
C702 C 0.79739 0.14954 0.25298 0.0
C703 C 0.79921 0.16918 0.27381 0.0
C704 C 0.78888 0.18843 0.27128 0.0
C705 C 0.76725 0.2808 0.3035 0.0
C706 C 0.82012 0.27869 0.30343 0.0
C707 C 0.80833 0.35742 0.29045 0.0
C708 C 0.79837 0.37868 0.29444 0.0
C709 C 0.7761 0.37523 0.28652 0.0
C710 C 0.76672 0.39564 0.2901 0.0
C711 C 0.7795 0.41982 0.30161 0.0
C712 C 0.80186 0.42314 0.30943 0.0
C713 C 0.81121 0.40267 0.30585 0.0
C714 C 0.80684 0.2844 0.23546 0.0
C715 C 0.75001 0.28798 0.2377 0.0
O716 O 0.77642 0.22557 0.23391 0.0
O717 O 0.75974 0.2196 0.26475 0.0
O718 O 0.76825 0.28714 0.28269 0.0
O719 O 0.77041 0.25845 0.30205 0.0
O720 O 0.80863 0.25783 0.2875 0.0
O721 O 0.81603 0.30078 0.30224 0.0
O722 O 0.8042 0.34118 0.30464 0.0
O723 O 0.80671 0.34658 0.2668 0.0
O724 O 0.8049 0.27905 0.25637 0.0
O725 O 0.80303 0.30624 0.23572 0.0
O726 O 0.76175 0.30814 0.2544 0.0
O727 O 0.75542 0.26622 0.23608 0.0
H728 H 0.76494 0.16838 0.20888 0.0
H729 H 0.78329 0.13452 0.21324 0.0
H730 H 0.80905 0.16998 0.29195 0.0
H731 H 0.79094 0.20363 0.2875 0.0
H732 H 0.76597 0.35678 0.27764 0.0
H733 H 0.74942 0.39239 0.28426 0.0
H734 H 0.81214 0.44156 0.31815 0.0
H735 H 0.82847 0.40559 0.31194 0.0
Tb736 Tb 0.02827 0.54186 0.53538 0.0
Tb737 Tb 0.06616 0.53721 0.57068 0.0
C738 C 0.99228 0.53447 0.50687 0.0
C739 C 0.97085 0.53866 0.5086 0.0
C740 C 0.9621 0.53626 0.53019 0.0
C741 C 0.94099 0.53825 0.53057 0.0
C742 C 0.92831 0.54281 0.50939 0.0
C743 C 0.93759 0.54649 0.48831 0.0
C744 C 0.95869 0.54437 0.48793 0.0
C745 C 0.05303 0.58529 0.56233 0.0
C746 C 0.02356 0.53746 0.59338 0.0
C747 C 0.10307 0.54533 0.59753 0.0
C748 C 0.12489 0.55466 0.59318 0.0
C749 C 0.12843 0.57153 0.57721 0.0
C750 C 0.14914 0.58073 0.57338 0.0
C751 C 0.16678 0.57317 0.58533 0.0
C752 C 0.16316 0.5561 0.60119 0.0
C753 C 0.14234 0.5469 0.60506 0.0
C754 C 0.04011 0.49452 0.54538 0.0
C755 C 0.0707 0.54216 0.51325 0.0
O756 O 0.99825 0.51764 0.51844 0.0
O757 O 1.00772 0.55467 0.51004 0.0
O758 O 0.04835 0.56491 0.56921 0.0
O759 O 0.04264 0.58179 0.5393 0.0
O760 O 0.01388 0.5376 0.56995 0.0
O761 O 0.04453 0.53818 0.59828 0.0
O762 O 0.09106 0.56155 0.59843 0.0
O763 O 0.09253 0.5232 0.58399 0.0
O764 O 0.04581 0.51396 0.53711 0.0
O765 O 0.05009 0.49817 0.56868 0.0
O766 O 0.08063 0.5455 0.53727 0.0
O767 O 0.04937 0.53745 0.50771 0.0
H768 H 0.97128 0.532 0.54641 0.0
H769 H 0.9343 0.53489 0.54697 0.0
H770 H 0.92834 0.55031 0.47184 0.0
H771 H 0.96534 0.54655 0.4712 0.0
H772 H 0.11521 0.57789 0.56791 0.0
H773 H 0.15137 0.5942 0.56144 0.0
H774 H 0.17638 0.54973 0.61047 0.0
H775 H 0.13987 0.53381 0.61737 0.0
Tb776 Tb 0.77448 0.79109 0.30972 0.0
Tb777 Tb 0.81961 0.78168 0.32009 0.0
C778 C 0.73523 0.79101 0.30811 0.0
C779 C 0.71853 0.79127 0.32391 0.0
C780 C 0.71556 0.77541 0.34103 0.0
C781 C 0.69822 0.77459 0.35382 0.0
C782 C 0.68351 0.78963 0.34979 0.0
C783 C 0.68688 0.80577 0.33297 0.0
C784 C 0.70414 0.80655 0.32024 0.0
C785 C 0.80613 0.82605 0.30294 0.0
C786 C 0.80203 0.80416 0.36657 0.0
C787 C 0.85846 0.77995 0.32209 0.0
C788 C 0.87521 0.78035 0.30651 0.0
C789 C 0.87012 0.77201 0.28007 0.0
C790 C 0.88661 0.77178 0.26609 0.0
C791 C 0.90845 0.77975 0.27836 0.0
C792 C 0.91334 0.78835 0.30483 0.0
C793 C 0.8969 0.78864 0.3187 0.0
C794 C 0.78833 0.74777 0.32868 0.0
C795 C 0.79329 0.77071 0.26328 0.0
O796 O 0.74239 0.77066 0.30373 0.0
O797 O 0.75056 0.81147 0.31188 0.0
O798 O 0.80674 0.81366 0.31996 0.0
O799 O 0.78663 0.82038 0.28979 0.0
O800 O 0.78271 0.7989 0.35158 0.0
O801 O 0.81957 0.80173 0.35764 0.0
O802 O 0.85229 0.8008 0.32803 0.0
O803 O 0.84231 0.76006 0.31628 0.0
O804 O 0.78726 0.75908 0.31076 0.0
O805 O 0.80792 0.75393 0.34144 0.0
O806 O 0.81229 0.77665 0.27883 0.0
O807 O 0.77524 0.77192 0.2716 0.0
H808 H 0.72641 0.76337 0.34423 0.0
H809 H 0.69633 0.76215 0.36682 0.0
H810 H 0.67579 0.81732 0.32896 0.0
H811 H 0.70593 0.81873 0.30695 0.0
H812 H 0.85346 0.76543 0.27029 0.0
H813 H 0.88225 0.7649 0.24576 0.0
H814 H 0.92992 0.79509 0.31488 0.0
H815 H 0.90116 0.79521 0.33909 0.0
Tb816 Tb 0.79004 0.27615 0.78159 0.0
Tb817 Tb 0.79102 0.2967 0.83773 0.0
C818 C 0.7801 0.25474 0.73555 0.0
C819 C 0.78713 0.25884 0.71217 0.0
C820 C 0.80209 0.28087 0.712 0.0
C821 C 0.8072 0.28559 0.68918 0.0
C822 C 0.79743 0.26833 0.66621 0.0
C823 C 0.7832 0.24574 0.66672 0.0
C824 C 0.77808 0.24106 0.68958 0.0
C825 C 0.82735 0.2832 0.81237 0.0
C826 C 0.80995 0.33382 0.8029 0.0
C827 C 0.80382 0.31335 0.88448 0.0
C828 C 0.79502 0.32306 0.90656 0.0
C829 C 0.78253 0.30661 0.91828 0.0
C830 C 0.77816 0.3153 0.942 0.0
C831 C 0.7863 0.34064 0.95462 0.0
C832 C 0.79667 0.35755 0.94155 0.0
C833 C 0.80118 0.3488 0.91784 0.0
C834 C 0.75465 0.30036 0.81036 0.0
C835 C 0.76954 0.23887 0.81604 0.0
O836 O 0.77068 0.27143 0.74603 0.0
O837 O 0.79406 0.24899 0.75208 0.0
O838 O 0.80891 0.27534 0.81695 0.0
O839 O 0.82532 0.28599 0.78916 0.0
O840 O 0.80029 0.3165 0.782 0.0
O841 O 0.81076 0.32826 0.82563 0.0
O842 O 0.79699 0.2894 0.87401 0.0
O843 O 0.80589 0.32731 0.86777 0.0
O844 O 0.76973 0.2919 0.80297 0.0
O845 O 0.75976 0.3069 0.83483 0.0
O846 O 0.77526 0.25752 0.83638 0.0
O847 O 0.77339 0.24234 0.79353 0.0
H848 H 0.80923 0.29475 0.72939 0.0
H849 H 0.81796 0.30334 0.68942 0.0
H850 H 0.77559 0.232 0.64939 0.0
H851 H 0.7666 0.22388 0.68952 0.0
H852 H 0.77735 0.28669 0.91001 0.0
H853 H 0.77026 0.30152 0.95135 0.0
H854 H 0.80283 0.37723 0.95048 0.0
H855 H 0.81065 0.36197 0.90908 0.0
Tb856 Tb 0.77175 0.76946 0.7976 0.0
Tb857 Tb 0.81321 0.80515 0.82141 0.0
C858 C 0.73287 0.74748 0.79172 0.0
C859 C 0.71538 0.75777 0.80021 0.0
C860 C 0.71997 0.77676 0.82226 0.0
C861 C 0.70396 0.78806 0.82958 0.0
C862 C 0.68288 0.78041 0.81521 0.0
C863 C 0.67826 0.76128 0.79314 0.0
C864 C 0.69445 0.75012 0.78565 0.0
C865 C 0.79402 0.78625 0.76516 0.0
C866 C 0.77379 0.82988 0.81549 0.0
C867 C 0.85226 0.82626 0.82709 0.0
C868 C 0.86993 0.8143 0.82217 0.0
C869 C 0.86585 0.79308 0.80242 0.0
C870 C 0.88138 0.77952 0.79935 0.0
C871 C 0.90191 0.78749 0.81515 0.0
C872 C 0.90618 0.8092 0.83462 0.0
C873 C 0.8902 0.82231 0.83828 0.0
C874 C 0.79047 0.79004 0.85408 0.0
C875 C 0.81131 0.74474 0.80337 0.0
O876 O 0.74783 0.74578 0.80989 0.0
O877 O 0.741 0.75707 0.77413 0.0
O878 O 0.79207 0.79843 0.78603 0.0
O879 O 0.78222 0.76349 0.76118 0.0
O880 O 0.76212 0.80612 0.80819 0.0
O881 O 0.79517 0.83452 0.8207 0.0
O882 O 0.83791 0.82522 0.80701 0.0
O883 O 0.84331 0.82047 0.84584 0.0
O884 O 0.79243 0.77681 0.83363 0.0
O885 O 0.80266 0.81251 0.85738 0.0
O886 O 0.82262 0.76838 0.81262 0.0
O887 O 0.79002 0.73996 0.79631 0.0
H888 H 0.73606 0.78312 0.83379 0.0
H889 H 0.70819 0.80299 0.84641 0.0
H890 H 0.6621 0.75472 0.78184 0.0
H891 H 0.69066 0.73563 0.76849 0.0
H892 H 0.85044 0.78657 0.78946 0.0
H893 H 0.87705 0.76262 0.7846 0.0
H894 H 0.92189 0.81629 0.8469 0.0
H895 H 0.89364 0.83858 0.85371 0.0
Tb896 Tb 0.52553 0.52326 0.5485 0.0
Tb897 Tb 0.56762 0.55377 0.58039 0.0
C898 C 0.48634 0.50936 0.52906 0.0
C899 C 0.47278 0.52514 0.51945 0.0
C900 C 0.45601 0.52978 0.53168 0.0
C901 C 0.44804 0.55085 0.5296 0.0
C902 C 0.45657 0.56736 0.51504 0.0
C903 C 0.47146 0.56111 0.50042 0.0
C904 C 0.47963 0.54019 0.50271 0.0
C905 C 0.55821 0.52852 0.52486 0.0
C906 C 0.53814 0.58373 0.55575 0.0
C907 C 0.60736 0.56804 0.59714 0.0
C908 C 0.6234 0.55273 0.59555 0.0
C909 C 0.63687 0.55529 0.57785 0.0
C910 C 0.64677 0.53617 0.56974 0.0
C911 C 0.64348 0.51421 0.57929 0.0
C912 C 0.63209 0.51299 0.59911 0.0
C913 C 0.62218 0.53213 0.60724 0.0
C914 C 0.53494 0.5502 0.60371 0.0
C915 C 0.55522 0.49329 0.57113 0.0
O916 O 0.49354 0.51568 0.5536 0.0
O917 O 0.50141 0.50505 0.51656 0.0
O918 O 0.55416 0.5447 0.54125 0.0
O919 O 0.54279 0.50833 0.52002 0.0
O920 O 0.52299 0.56238 0.54945 0.0
O921 O 0.55807 0.58476 0.56672 0.0
O922 O 0.59814 0.57086 0.57517 0.0
O923 O 0.59334 0.56284 0.61158 0.0
O924 O 0.53864 0.53296 0.58797 0.0
O925 O 0.55075 0.57005 0.60828 0.0
O926 O 0.57058 0.5144 0.57615 0.0
O927 O 0.53488 0.49275 0.56267 0.0
H928 H 0.4505 0.51848 0.54467 0.0
H929 H 0.43621 0.55514 0.54069 0.0
H930 H 0.47822 0.57358 0.48905 0.0
H931 H 0.49262 0.53718 0.49306 0.0
H932 H 0.63833 0.57113 0.56877 0.0
H933 H 0.65612 0.53804 0.55504 0.0
H934 H 0.62948 0.49646 0.60709 0.0
H935 H 0.6122 0.52979 0.62126 0.0
Tb936 Tb 0.06432 0.53452 0.044 0.0
Tb937 Tb 0.01909 0.52624 0.05628 0.0
C938 C 0.10421 0.53727 0.04761 0.0
C939 C 0.12024 0.52226 0.05269 0.0
C940 C 0.13802 0.53218 0.07279 0.0
C941 C 0.15473 0.51987 0.0761 0.0
C942 C 0.15416 0.49742 0.05922 0.0
C943 C 0.136 0.48709 0.03959 0.0
C944 C 0.11922 0.49931 0.03639 0.0
C945 C 0.03578 0.53762 1.00352 0.0
C946 C 0.03353 0.47994 0.03106 0.0
C947 C 0.9811 0.52595 0.06177 0.0
C948 C 0.96482 0.54083 0.0593 0.0
C949 C 0.94302 0.52816 0.05171 0.0
C950 C 0.92696 0.54148 0.05083 0.0
C951 C 0.93234 0.56785 0.05755 0.0
C952 C 0.95429 0.58058 0.06455 0.0
C953 C 0.9704 0.56718 0.06548 0.0
C954 C 0.04918 0.51661 0.09037 0.0
C955 C 0.04726 0.58201 0.06176 0.0
O956 O 0.09567 0.54609 0.06645 0.0
O957 O 0.09008 0.52926 0.02637 0.0
O958 O 0.03246 0.53347 0.02476 0.0
O959 O 0.05641 0.54072 1.00507 0.0
O960 O 0.05366 0.4936 0.03825 0.0
O961 O 0.01689 0.49003 0.03267 0.0
O962 O 0.98591 0.51522 0.04075 0.0
O963 O 0.99806 0.53536 0.08001 0.0
O964 O 0.05159 0.53414 0.07835 0.0
O965 O 0.0291 0.50463 0.08379 0.0
O966 O 0.02815 0.56682 0.06 0.0
O967 O 0.06449 0.57367 0.05787 0.0
H968 H 0.13932 0.54992 0.08551 0.0
H969 H 0.16853 0.52849 0.09128 0.0
H970 H 0.13486 0.46965 0.02648 0.0
H971 H 0.10574 0.49106 0.02072 0.0
H972 H 0.93838 0.50784 0.04681 0.0
H973 H 0.91028 0.53108 0.04488 0.0
H974 H 0.959 0.60087 0.06996 0.0
H975 H 0.98713 0.57735 0.07149 0.0
H976 H 0.03331 0.20686 0.97945 0.0
H977 H 0.99166 0.09034 0.04015 0.0
H978 H 0.96861 0.18682 0.99332 0.0
H979 H 0.05901 0.12192 0.04299 0.0
H980 H 0.98276 0.12533 0.02269 0.0
H981 H 0.043 0.1757 1.00238 0.0
C982 C 0.02117 0.19608 0.98746 0.0
C983 C 1.00009 0.19953 0.98434 0.0
C984 C 0.99948 0.12468 0.02735 0.0
C985 C 1.01105 0.16351 0.01045 0.0
C986 C 1.00456 0.10468 0.03721 0.0
C987 C 0.02608 0.10307 0.04286 0.0
C988 C 0.016 0.1431 0.02283 0.0
C989 C 0.04219 0.12239 0.039 0.0
C990 C 0.02673 0.17828 1.00059 0.0
C991 C 0.98508 0.18494 0.99523 0.0
N992 N 0.03681 0.14142 0.029 0.0
N993 N 0.99079 0.16745 1.00755 0.0
H994 H 0.1289 0.75388 0.197 0.0
H995 H 0.24424 0.84117 0.26728 0.0
H996 H 0.14662 0.83369 0.20163 0.0
H997 H 0.22924 0.76049 0.25489 0.0
H998 H 0.20954 0.83847 0.24054 0.0
H999 H 0.16616 0.75549 0.21547 0.0
C1000 C 0.14065 0.77174 0.20172 0.0
C1001 C 0.13451 0.79373 0.19793 0.0
C1002 C 0.21389 0.82131 0.24338 0.0
C1003 C 0.17733 0.79571 0.21931 0.0
C1004 C 0.23372 0.82284 0.25863 0.0
C1005 C 0.23954 0.80103 0.26343 0.0
C1006 C 0.19961 0.79776 0.23303 0.0
C1007 C 0.22537 0.77778 0.25168 0.0
C1008 C 0.16197 0.77263 0.21225 0.0
C1009 C 0.15055 0.81627 0.20428 0.0
N1010 N 0.20594 0.77676 0.23727 0.0
N1011 N 0.17113 0.81672 0.21487 0.0
H1012 H 0.48115 0.82162 0.50909 0.0
H1013 H 0.56296 0.95357 0.5187 0.0
H1014 H 0.533 0.82895 0.46749 0.0
H1015 H 0.50101 0.94493 0.541 0.0
H1016 H 0.55595 0.90769 0.50556 0.0
H1017 H 0.49246 0.86642 0.5273 0.0
C1018 C 0.49507 0.83256 0.50394 0.0
C1019 C 0.50596 0.8214 0.48644 0.0
C1020 C 0.54398 0.91593 0.51342 0.0
C1021 C 0.51896 0.87308 0.50728 0.0
C1022 C 0.54797 0.94208 0.52097 0.0
C1023 C 0.53248 0.95317 0.53078 0.0
C1024 C 0.52451 0.90082 0.51606 0.0
C1025 C 0.51335 0.93732 0.5333 0.0
C1026 C 0.50147 0.85824 0.51431 0.0
C1027 C 0.52402 0.8367 0.48076 0.0
N1028 N 0.50995 0.91205 0.52601 0.0
N1029 N 0.52986 0.86181 0.49101 0.0
H1030 H 0.53265 0.27625 0.73912 0.0
H1031 H 0.4092 0.28416 0.72885 0.0
H1032 H 0.49864 0.30486 0.68107 0.0
H1033 H 0.44584 0.2653 0.79235 0.0
H1034 H 0.44073 0.28783 0.70883 0.0
H1035 H 0.49974 0.26754 0.75634 0.0
C1036 C 0.51821 0.28043 0.7298 0.0
C1037 C 0.51845 0.29132 0.7086 0.0
C1038 C 0.44182 0.28278 0.7271 0.0
C1039 C 0.48074 0.28157 0.72834 0.0
C1040 C 0.42385 0.28081 0.73862 0.0
C1041 C 0.42479 0.27447 0.76241 0.0
C1042 C 0.46095 0.27836 0.73939 0.0
C1043 C 0.44417 0.26991 0.77389 0.0
C1044 C 0.49944 0.27554 0.73971 0.0
C1045 C 0.49925 0.29639 0.69738 0.0
N1046 N 0.46145 0.27202 0.76232 0.0
N1047 N 0.48124 0.29159 0.70743 0.0
H1048 H 1.01063 0.78221 0.64411 0.0
H1049 H 0.07316 0.90361 0.61009 0.0
H1050 H 0.07223 0.82529 0.6891 0.0
H1051 H 0.02843 0.84384 0.55358 0.0
H1052 H 0.07437 0.87509 0.63882 0.0
H1053 H 0.01701 0.80478 0.61066 0.0
C1054 C 0.0255 0.79644 0.64695 0.0
C1055 C 0.0408 0.80216 0.66953 0.0
C1056 C 0.06461 0.8681 0.61996 0.0
C1057 C 0.04821 0.82796 0.63134 0.0
C1058 C 0.06401 0.88433 0.60341 0.0
C1059 C 0.05036 0.87625 0.57946 0.0
C1060 C 0.05119 0.84381 0.61267 0.0
C1061 C 0.0387 0.85109 0.57211 0.0
C1062 C 0.02923 0.80912 0.62775 0.0
C1063 C 0.05995 0.82045 0.67203 0.0
N1064 N 0.03905 0.83588 0.58884 0.0
N1065 N 0.06299 0.833 0.65327 0.0
H1066 H 0.44503 0.74239 0.87276 0.0
H1067 H 0.35827 0.81658 0.83455 0.0
H1068 H 0.46127 0.81438 0.85276 0.0
H1069 H 0.34501 0.73689 0.80346 0.0
H1070 H 0.39458 0.81592 0.85353 0.0
H1071 H 0.40657 0.7401 0.85799 0.0
C1072 C 0.44046 0.75769 0.86535 0.0
C1073 C 0.45617 0.77857 0.8638 0.0
C1074 C 0.3836 0.79857 0.84275 0.0
C1075 C 0.4128 0.77631 0.84773 0.0
C1076 C 0.36284 0.79883 0.83196 0.0
C1077 C 0.34867 0.77677 0.81704 0.0
C1078 C 0.39018 0.77608 0.83897 0.0
C1079 C 0.35554 0.75434 0.8146 0.0
C1080 C 0.41867 0.75631 0.85692 0.0
C1081 C 0.4496 0.79791 0.85406 0.0
N1082 N 0.37598 0.75455 0.82543 0.0
N1083 N 0.42834 0.79642 0.84658 0.0
H1084 H 0.56327 0.19884 0.19978 0.0
H1085 H 0.53887 0.12783 0.05468 0.0
H1086 H 0.50759 0.19985 0.14571 0.0
H1087 H 0.57234 0.10043 0.11412 0.0
H1088 H 0.5348 0.16242 0.08664 0.0
H1089 H 0.57308 0.16932 0.16727 0.0
C1090 C 0.55307 0.19277 0.18112 0.0
C1091 C 0.53449 0.20162 0.17548 0.0
C1092 C 0.54339 0.14906 0.09256 0.0
C1093 C 0.54595 0.16856 0.13819 0.0
C1094 C 0.54596 0.12952 0.07434 0.0
C1095 C 0.55589 0.11119 0.08182 0.0
C1096 C 0.55107 0.15039 0.11828 0.0
C1097 C 0.56462 0.11419 0.10758 0.0
C1098 C 0.55872 0.17604 0.16261 0.0
C1099 C 0.52188 0.19321 0.15097 0.0
N1100 N 0.56187 0.13332 0.12495 0.0
N1101 N 0.52792 0.17727 0.13316 0.0
H1102 H 0.05116 0.30105 0.30154 0.0
H1103 H 0.17159 0.29753 0.35292 0.0
H1104 H 0.08212 0.32351 0.38047 0.0
H1105 H 0.14466 0.2852 0.27323 0.0
H1106 H 0.14009 0.31148 0.3629 0.0
H1107 H 0.08619 0.30016 0.29026 0.0
C1108 C 0.06537 0.30627 0.31648 0.0
C1109 C 0.06364 0.31185 0.34203 0.0
C1110 C 0.14112 0.30598 0.34321 0.0
C1111 C 0.10367 0.31053 0.32926 0.0
C1112 C 0.15921 0.29809 0.33746 0.0
C1113 C 0.16081 0.29003 0.31215 0.0
C1114 C 0.12426 0.30553 0.32356 0.0
C1115 C 0.14396 0.29075 0.29301 0.0
C1116 C 0.08536 0.30568 0.31002 0.0
C1117 C 0.08262 0.3187 0.36055 0.0
N1118 N 0.12627 0.29812 0.29911 0.0
N1119 N 0.10178 0.31745 0.35382 0.0
H1120 H 0.95818 0.99469 0.20568 0.0
H1121 H 0.02157 0.08475 0.13069 0.0
H1122 H 0.95427 0.07153 0.20982 0.0
H1123 H 1.00758 1.00432 0.10595 0.0
H1124 H 0.99714 0.07977 0.16039 0.0
H1125 H 0.97592 0.99676 0.16918 0.0
C1126 C 0.96071 1.01182 0.1987 0.0
C1127 C 0.95496 0.03306 0.21107 0.0
C1128 C 0.99923 0.06317 0.14833 0.0
C1129 C 0.97549 0.03566 0.1697 0.0
C1130 C 0.01323 0.06603 0.13146 0.0
C1131 C 0.01665 0.04493 0.11603 0.0
C1132 C 0.98883 0.03899 0.15015 0.0
C1133 C 1.00536 0.02107 0.11762 0.0
C1134 C 0.97087 1.01301 0.17791 0.0
C1135 C 0.95863 0.05476 0.20115 0.0
N1136 N 0.99214 0.0187 0.13466 0.0
N1137 N 0.96889 0.05559 0.18134 0.0
H1138 H 0.29353 0.74391 0.54049 0.0
H1139 H 0.2814 0.85418 0.47522 0.0
H1140 H 0.34493 0.80402 0.53362 0.0
H1141 H 0.23476 0.78346 0.46217 0.0
H1142 H 0.29792 0.84674 0.51525 0.0
H1143 H 0.26771 0.76868 0.53078 0.0
C1144 C 0.29947 0.76248 0.5373 0.0
C1145 C 0.3213 0.77145 0.53659 0.0
C1146 C 0.28353 0.83332 0.50415 0.0
C1147 C 0.2918 0.79984 0.52571 0.0
C1148 C 0.27394 0.83762 0.48132 0.0
C1149 C 0.25729 0.8188 0.46489 0.0
C1150 C 0.27649 0.81 0.5102 0.0
C1151 C 0.24815 0.79793 0.47393 0.0
C1152 C 0.28471 0.7767 0.53205 0.0
C1153 C 0.32814 0.79601 0.53343 0.0
N1154 N 0.25831 0.79366 0.49571 0.0
N1155 N 0.31333 0.80915 0.52745 0.0
H1156 H 0.58818 0.01922 0.75351 0.0
H1157 H 0.59043 0.02285 0.60683 0.0
H1158 H 0.64497 1.01101 0.72369 0.0
H1159 H 0.53569 0.02214 0.64315 0.0
H1160 H 0.6121 0.02006 0.64749 0.0
H1161 H 0.57046 0.02176 0.71227 0.0
C1162 C 0.5971 0.0179 0.73829 0.0
C1163 C 0.61834 1.01485 0.74265 0.0
C1164 C 0.59534 0.02055 0.64644 0.0
C1165 C 0.59747 0.01791 0.69379 0.0
C1166 C 0.58296 0.02226 0.62319 0.0
C1167 C 0.56103 0.02286 0.62128 0.0
C1168 C 0.58577 0.01955 0.66798 0.0
C1169 C 0.55239 0.02178 0.6433 0.0
C1170 C 0.58679 0.01936 0.71438 0.0
C1171 C 0.62861 1.01326 0.72151 0.0
N1172 N 0.56461 0.02025 0.66527 0.0
N1173 N 0.61815 1.01487 0.69812 0.0
H1174 H 0.35085 0.34013 0.02461 0.0
H1175 H 0.2733 0.32137 0.89032 0.0
H1176 H 0.30127 0.38086 0.01481 0.0
H1177 H 0.33439 0.30096 0.90116 0.0
H1178 H 0.27924 0.33801 0.93632 0.0
H1179 H 0.34043 0.31973 0.98004 0.0
C1180 C 0.33763 0.3447 0.01316 0.0
C1181 C 0.32712 0.36254 0.02358 0.0
C1182 C 0.29125 0.32981 0.92852 0.0
C1183 C 0.3151 0.33909 0.97202 0.0
C1184 C 0.28787 0.32026 0.90233 0.0
C1185 C 0.30345 0.30993 0.89182 0.0
C1186 C 0.31017 0.32859 0.94425 0.0
C1187 C 0.32201 0.30897 0.90828 0.0
C1188 C 0.33172 0.33304 0.98759 0.0
C1189 C 0.30992 0.36734 1.00762 0.0
N1190 N 0.3248 0.31811 0.93355 0.0
N1191 N 0.30453 0.35581 0.98257 0.0
H1192 H 0.99805 1.00304 0.34298 0.0
H1193 H 0.02931 0.07548 0.48846 0.0
H1194 H 0.97174 0.0646 0.37278 0.0
H1195 H 0.03085 0.99807 0.46388 0.0
H1196 H 0.01556 0.07637 0.44435 0.0
H1197 H 0.01747 1.00552 0.38594 0.0
C1198 C 0.9965 0.01716 0.35851 0.0
C1199 C 0.98312 0.03345 0.35445 0.0
C1200 C 0.01907 0.05928 0.44869 0.0
C1201 C 1.00539 0.03664 0.40325 0.0
C1202 C 0.02698 0.05879 0.47378 0.0
C1203 C 0.03092 0.03657 0.47982 0.0
C1204 C 0.0155 0.03755 0.4296 0.0
C1205 C 0.02769 1.01548 0.46008 0.0
C1206 C 1.00751 0.01854 0.38295 0.0
C1207 C 0.98167 0.05146 0.37518 0.0
N1208 N 0.02014 0.01647 0.43584 0.0
N1209 N 0.99269 0.0526 0.3987 0.0
H1210 H 0.35044 0.7027 0.6213 0.0
H1211 H 0.32223 0.81696 0.70275 0.0
H1212 H 0.38222 0.77888 0.62167 0.0
H1213 H 0.32261 0.74967 0.73093 0.0
H1214 H 0.34166 0.80208 0.67024 0.0
H1215 H 0.33855 0.71804 0.6603 0.0
C1216 C 0.35539 0.72255 0.62994 0.0
C1217 C 0.36718 0.73957 0.61814 0.0
C1218 C 0.33752 0.79064 0.68364 0.0
C1219 C 0.35305 0.75718 0.66201 0.0
C1220 C 0.32628 0.79898 0.70196 0.0
C1221 C 0.32058 0.78428 0.71923 0.0
C1222 C 0.34268 0.76727 0.68238 0.0
C1223 C 0.32638 0.76127 0.71763 0.0
C1224 C 0.34853 0.73127 0.65209 0.0
C1225 C 0.37315 0.7651 0.63012 0.0
N1226 N 0.33692 0.75329 0.69931 0.0
N1227 N 0.36557 0.77322 0.6511 0.0
H1228 H 0.66263 0.0208 0.91247 0.0
H1229 H 0.5575 0.04679 0.96662 0.0
H1230 H 0.61017 0.04144 0.86941 0.0
H1231 H 0.61387 0.03973 0.01527 0.0
H1232 H 0.57643 0.0436 0.93106 0.0
H1233 H 0.64548 0.02645 0.94984 0.0
C1234 C 0.64764 0.02672 0.91079 0.0
C1235 C 0.63809 0.03072 0.88735 0.0
C1236 C 0.58479 0.04282 0.94949 0.0
C1237 C 0.61788 0.03689 0.93058 0.0
C1238 C 0.5739 0.04467 0.97004 0.0
C1239 C 0.58387 0.04365 0.99451 0.0
C1240 C 0.60604 0.03959 0.95281 0.0
C1241 C 0.6053 0.04077 0.99709 0.0
C1242 C 0.63776 0.0299 0.93226 0.0
C1243 C 0.61843 0.03819 0.88679 0.0
N1244 N 0.61549 0.03872 0.9767 0.0
N1245 N 0.60909 0.04083 0.90772 0.0
H1246 H 0.3421 0.33166 0.1351 0.0
H1247 H 0.30265 0.34005 0.26592 0.0
H1248 H 0.30891 0.38753 0.16223 0.0
H1249 H 0.30343 0.26862 0.22081 0.0
H1250 H 0.31038 0.35982 0.23078 0.0
H1251 H 0.33259 0.30979 0.16845 0.0
C1252 C 0.33263 0.3392 0.14791 0.0
C1253 C 0.32625 0.36146 0.14582 0.0
C1254 C 0.30889 0.33983 0.22858 0.0
C1255 C 0.31586 0.33687 0.18438 0.0
C1256 C 0.30466 0.32855 0.24869 0.0
C1257 C 0.30236 0.30262 0.24624 0.0
C1258 C 0.31131 0.32522 0.20599 0.0
C1259 C 0.30504 0.28865 0.22343 0.0
C1260 C 0.32724 0.3267 0.16691 0.0
C1261 C 0.31404 0.37036 0.16299 0.0
N1262 N 0.30951 0.30015 0.2042 0.0
N1263 N 0.30951 0.35825 0.18175 0.0
H1264 H 0.20473 0.9249 0.96393 0.0
H1265 H 0.12162 0.96331 0.04806 0.0
H1266 H 0.17505 0.87903 0.01087 0.0
H1267 H 0.16362 1.01444 0.01589 0.0
H1268 H 0.13365 0.92851 0.02545 0.0
H1269 H 0.18098 0.95289 0.97211 0.0
C1270 C 0.1928 0.92026 0.97535 0.0
C1271 C 0.19236 0.90004 0.98744 0.0
C1272 C 0.14006 0.94733 0.02317 0.0
C1273 C 0.16541 0.93219 0.9971 0.0
C1274 C 0.13341 0.96725 0.0363 0.0
C1275 C 0.14199 0.99193 0.03432 0.0
C1276 C 0.15534 0.95209 1.00787 0.0
C1277 C 0.15662 0.99577 0.01807 0.0
C1278 C 0.17937 0.9364 0.98018 0.0
C1279 C 0.17632 0.89477 1.00169 0.0
N1280 N 0.16299 0.97608 1.00566 0.0
N1281 N 0.16377 0.91109 1.0066 0.0
H1282 H 0.72223 0.61521 0.08381 0.0
H1283 H 0.59499 0.58006 0.03062 0.0
H1284 H 0.69446 0.63917 0.01827 0.0
H1285 H 0.62705 0.5392 0.07773 0.0
H1286 H 0.63027 0.60679 0.03014 0.0
H1287 H 0.68641 0.59253 0.08628 0.0
C1288 C 0.70858 0.61587 0.06999 0.0
C1289 C 0.71145 0.62903 0.05067 0.0
C1290 C 0.62954 0.59198 0.04059 0.0
C1291 C 0.67016 0.60292 0.05348 0.0
C1292 C 0.60946 0.57681 0.04094 0.0
C1293 C 0.60819 0.55736 0.05416 0.0
C1294 C 0.6484 0.58781 0.0538 0.0
C1295 C 0.62735 0.55392 0.06721 0.0
C1296 C 0.6881 0.60279 0.07139 0.0
C1297 C 0.69303 0.62918 0.0334 0.0
N1298 N 0.64664 0.569 0.06675 0.0
N1299 N 0.67315 0.61627 0.03518 0.0
H1300 H 0.7333 0.54109 0.37609 0.0
H1301 H 0.74733 0.43082 0.26992 0.0
H1302 H 0.68939 0.51227 0.30401 0.0
H1303 H 0.78851 0.4576 0.34388 0.0
H1304 H 0.72872 0.46424 0.2796 0.0
H1305 H 0.75675 0.51488 0.36183 0.0
C1306 C 0.72867 0.52942 0.35715 0.0
C1307 C 0.70915 0.52858 0.34137 0.0
C1308 C 0.74197 0.46294 0.2936 0.0
C1309 C 0.73594 0.49831 0.32499 0.0
C1310 C 0.75251 0.44379 0.28815 0.0
C1311 C 0.76936 0.44126 0.30623 0.0
C1312 C 0.74828 0.47963 0.31732 0.0
C1313 C 0.7757 0.4589 0.32933 0.0
C1314 C 0.7421 0.51443 0.34902 0.0
C1315 C 0.70419 0.51336 0.31689 0.0
N1316 N 0.76503 0.47719 0.33429 0.0
N1317 N 0.71738 0.49856 0.30955 0.0
H1318 H 0.81923 0.48641 0.55978 0.0
H1319 H 0.89521 0.52042 0.46896 0.0
H1320 H 0.79744 0.46683 0.47885 0.0
H1321 H 0.90784 0.55929 0.54731 0.0
H1322 H 0.85723 0.50717 0.47048 0.0
H1323 H 0.84905 0.51892 0.55499 0.0
C1324 C 0.82053 0.48952 0.54102 0.0
C1325 C 0.80615 0.47413 0.51965 0.0
C1326 C 0.86819 0.51914 0.48717 0.0
C1327 C 0.84047 0.51048 0.51382 0.0
C1328 C 0.88994 0.52686 0.4863 0.0
C1329 C 0.90488 0.54041 0.50829 0.0
C1330 C 0.86143 0.52464 0.51029 0.0
C1331 C 0.897 0.54808 0.53017 0.0
C1332 C 0.83749 0.50806 0.53824 0.0
C1333 C 0.80835 0.47854 0.49572 0.0
N1334 N 0.87589 0.53958 0.5308 0.0
N1335 N 0.82559 0.49601 0.49335 0.0
H1336 H 0.36114 0.10934 0.26809 0.0
H1337 H 0.35322 0.24954 0.33035 0.0
H1338 H 0.39545 0.14967 0.34255 0.0
H1339 H 0.29919 0.19854 0.27757 0.0
H1340 H 0.37213 0.2156 0.32965 0.0
H1341 H 0.34186 0.14331 0.26579 0.0
C1342 C 0.36497 0.12539 0.28379 0.0
C1343 C 0.3803 0.12629 0.30553 0.0
C1344 C 0.35616 0.21171 0.31812 0.0
C1345 C 0.35807 0.16593 0.30292 0.0
C1346 C 0.34523 0.23129 0.31843 0.0
C1347 C 0.32423 0.22739 0.30409 0.0
C1348 C 0.34655 0.18754 0.3029 0.0
C1349 C 0.31517 0.20284 0.28914 0.0
C1350 C 0.35374 0.14481 0.28256 0.0
C1351 C 0.38396 0.14778 0.32531 0.0
N1352 N 0.32629 0.18416 0.28883 0.0
N1353 N 0.37328 0.16646 0.32344 0.0
H1354 H 0.34275 0.16196 0.52364 0.0
H1355 H 0.3898 0.04825 0.55981 0.0
H1356 H 0.30794 0.10375 0.55472 0.0
H1357 H 0.4241 0.10488 0.52645 0.0
H1358 H 0.36054 0.06965 0.56013 0.0
H1359 H 0.37371 0.14316 0.52733 0.0
C1360 C 0.34169 0.14541 0.53155 0.0
C1361 C 0.32267 0.13441 0.53885 0.0
C1362 C 0.37445 0.07744 0.55275 0.0
C1363 C 0.35804 0.11256 0.54282 0.0
C1364 C 0.39114 0.0651 0.55236 0.0
C1365 C 0.40941 0.0746 0.54283 0.0
C1366 C 0.37594 0.09953 0.54356 0.0
C1367 C 0.4104 0.0969 0.53408 0.0
C1368 C 0.35937 0.1346 0.53353 0.0
C1369 C 0.32225 0.11287 0.54883 0.0
N1370 N 0.39388 0.10854 0.53455 0.0
N1371 N 0.3396 0.10259 0.55038 0.0
H1372 H 0.67706 0.62985 0.32524 0.0
H1373 H 0.78687 0.7355 0.37409 0.0
H1374 H 0.71389 0.64851 0.40166 0.0
H1375 H 0.74877 0.72262 0.2991 0.0
H1376 H 0.75823 0.70614 0.38529 0.0
H1377 H 0.7006 0.66624 0.31619 0.0
C1378 C 0.68984 0.64179 0.34026 0.0
C1379 C 0.69363 0.63584 0.36419 0.0
C1380 C 0.75595 0.7098 0.36642 0.0
C1381 C 0.72077 0.67738 0.35382 0.0
C1382 C 0.77236 0.72652 0.36 0.0
C1383 C 0.77019 0.73131 0.3356 0.0
C1384 C 0.73727 0.69743 0.3482 0.0
C1385 C 0.75099 0.71941 0.31814 0.0
C1386 C 0.70333 0.66253 0.33502 0.0
C1387 C 0.71044 0.65209 0.38285 0.0
N1388 N 0.73532 0.70276 0.32469 0.0
N1389 N 0.72348 0.67189 0.37718 0.0
H1390 H 0.88187 0.47408 0.76771 0.0
H1391 H 0.82235 0.37586 0.84134 0.0
H1392 H 0.86055 0.49452 0.8378 0.0
H1393 H 0.8222 0.3532 0.76178 0.0
H1394 H 0.83959 0.41875 0.84035 0.0
H1395 H 0.8631 0.42986 0.76473 0.0
C1396 C 0.87317 0.46952 0.78234 0.0
C1397 C 0.873 0.48861 0.80305 0.0
C1398 C 0.83583 0.40453 0.823 0.0
C1399 C 0.8517 0.4375 0.79998 0.0
C1400 C 0.82595 0.37977 0.82355 0.0
C1401 C 0.82059 0.36042 0.80161 0.0
C1402 C 0.84095 0.41062 0.8004 0.0
C1403 C 0.82583 0.36727 0.77922 0.0
C1404 C 0.86246 0.44414 0.78064 0.0
C1405 C 0.86141 0.48098 0.8214 0.0
N1406 N 0.83578 0.39161 0.77922 0.0
N1407 N 0.85158 0.4564 0.81951 0.0
H1408 H 0.03783 0.83927 0.08051 0.0
H1409 H 0.08847 0.98536 0.09206 0.0
H1410 H 0.09123 0.88217 0.13983 0.0
H1411 H 0.02681 0.9431 0.04683 0.0
H1412 H 0.09513 0.94642 0.10325 0.0
H1413 H 0.0398 0.87538 0.06097 0.0
C1414 C 0.05031 0.85617 0.08916 0.0
C1415 C 0.06421 0.85776 0.11203 0.0
C1416 C 0.08029 0.94571 0.09063 0.0
C1417 C 0.06624 0.89962 0.08998 0.0
C1418 C 0.07651 0.96788 0.08417 0.0
C1419 C 0.05691 0.96754 0.06877 0.0
C1420 C 0.06448 0.92307 0.08131 0.0
C1421 C 0.042 0.94436 0.05907 0.0
C1422 C 0.05134 0.87688 0.07805 0.0
C1423 C 0.08017 0.88012 0.12222 0.0
N1424 N 0.04604 0.9232 0.06559 0.0
N1425 N 0.08052 0.90037 0.11137 0.0
H1426 H 0.96052 0.28241 0.86324 0.0
H1427 H 0.83342 0.26693 0.85674 0.0
H1428 H 0.92504 0.24246 0.91038 0.0
H1429 H 0.8679 0.29708 0.80316 0.0
H1430 H 0.8674 0.262 0.87981 0.0
H1431 H 0.92735 0.2919 0.8441 0.0
C1432 C 0.94578 0.27573 0.86969 0.0
C1433 C 0.94562 0.26156 0.88845 0.0
C1434 C 0.86755 0.26983 0.86309 0.0
C1435 C 0.90742 0.27238 0.86651 0.0
C1436 C 0.84818 0.27272 0.84998 0.0
C1437 C 0.84786 0.28226 0.82792 0.0
C1438 C 0.88673 0.27665 0.85413 0.0
C1439 C 0.86743 0.28951 0.82 0.0
C1440 C 0.92681 0.28115 0.85871 0.0
C1441 C 0.92598 0.25347 0.89603 0.0
N1442 N 0.88602 0.28647 0.83302 0.0
N1443 N 0.90768 0.25893 0.885 0.0
H1444 H 0.5843 0.23969 0.64449 0.0
H1445 H 0.51549 0.10801 0.55847 0.0
H1446 H 0.52054 0.22787 0.59976 0.0
H1447 H 0.58285 0.12018 0.59141 0.0
H1448 H 0.51776 0.15232 0.57342 0.0
H1449 H 0.58493 0.19672 0.62519 0.0
C1450 C 0.57052 0.22821 0.63049 0.0
C1451 C 0.55226 0.23747 0.62393 0.0
C1452 C 0.53213 0.14544 0.57732 0.0
C1453 C 0.55287 0.18823 0.60192 0.0
C1454 C 0.53083 0.12003 0.56885 0.0
C1455 C 0.54897 0.11025 0.57387 0.0
C1456 C 0.55169 0.1614 0.59124 0.0
C1457 C 0.56846 0.12691 0.58712 0.0
C1458 C 0.57091 0.20366 0.61949 0.0
C1459 C 0.53493 0.22165 0.60562 0.0
N1460 N 0.56927 0.15167 0.59558 0.0
N1461 N 0.53562 0.19786 0.59546 0.0
H1462 H 0.5668 0.7388 0.40692 0.0
H1463 H 0.66547 0.82789 0.36854 0.0
H1464 H 0.5711 0.81678 0.40592 0.0
H1465 H 0.65752 0.74792 0.35961 0.0
H1466 H 0.63258 0.82466 0.38581 0.0
H1467 H 0.60152 0.74234 0.39329 0.0
C1468 C 0.57507 0.75671 0.40399 0.0
C1469 C 0.56588 0.77751 0.40752 0.0
C1470 C 0.63804 0.8078 0.38016 0.0
C1471 C 0.60576 0.78167 0.39187 0.0
C1472 C 0.65683 0.80961 0.37016 0.0
C1473 C 0.66432 0.78811 0.36229 0.0
C1474 C 0.62649 0.78433 0.38249 0.0
C1475 C 0.65257 0.76506 0.36553 0.0
C1476 C 0.5949 0.75869 0.39614 0.0
C1477 C 0.57743 0.8002 0.40338 0.0
N1478 N 0.63424 0.76378 0.37523 0.0
N1479 N 0.59667 0.80165 0.39577 0.0
H1480 H 0.03136 0.2688 0.47934 0.0
H1481 H 0.07443 0.1541 0.48258 0.0
H1482 H 0.05351 0.2366 0.41346 0.0
H1483 H 0.0928 0.21493 0.54871 0.0
H1484 H 0.06912 0.18395 0.45629 0.0
H1485 H 0.05477 0.2499 0.50538 0.0
C1486 C 0.04142 0.258 0.47049 0.0
C1487 C 0.04043 0.25389 0.44432 0.0
C1488 C 0.0749 0.19083 0.47649 0.0
C1489 C 0.06682 0.232 0.4737 0.0
C1490 C 0.07804 0.17379 0.4916 0.0
C1491 C 0.08344 0.18185 0.5181 0.0
C1492 C 0.07664 0.21588 0.48801 0.0
C1493 C 0.08774 0.20769 0.52849 0.0
C1494 C 0.0549 0.24745 0.48532 0.0
C1495 C 0.05386 0.24001 0.43364 0.0
N1496 N 0.08359 0.22371 0.51349 0.0
N1497 N 0.06614 0.22892 0.44832 0.0
H1498 H 0.61779 0.22877 0.21781 0.0
H1499 H 0.72971 0.32661 0.24314 0.0
H1500 H 0.62462 0.30875 0.23874 0.0
H1501 H 0.71932 0.24861 0.20677 0.0
H1502 H 0.69078 0.32188 0.23596 0.0
H1503 H 0.65436 0.23642 0.20962 0.0
C1504 C 0.62701 0.24796 0.22072 0.0
C1505 C 0.61832 0.26815 0.22939 0.0
C1506 C 0.69703 0.30594 0.22905 0.0
C1507 C 0.66014 0.27708 0.21988 0.0
C1508 C 0.71929 0.30866 0.23302 0.0
C1509 C 0.72777 0.28775 0.22626 0.0
C1510 C 0.68326 0.28213 0.21849 0.0
C1511 C 0.71349 0.26509 0.21289 0.0
C1512 C 0.64781 0.25233 0.21577 0.0
C1513 C 0.63082 0.29263 0.23235 0.0
N1514 N 0.6919 0.26272 0.20998 0.0
N1515 N 0.65123 0.29642 0.2279 0.0
H1516 H 0.52081 0.87127 0.92652 0.0
H1517 H 0.53033 0.95214 0.06399 0.0
H1518 H 0.48898 0.84062 0.98192 0.0
H1519 H 0.53391 0.98531 0.99886 0.0
H1520 H 0.51764 0.91047 0.03544 0.0
H1521 H 0.52869 0.91307 0.95404 0.0
C1522 C 0.5154 0.87336 0.9444 0.0
C1523 C 0.50422 0.85247 0.95195 0.0
C1524 C 0.52102 0.92695 0.02748 0.0
C1525 C 0.51343 0.90006 0.98359 0.0
C1526 C 0.52826 0.95063 0.04371 0.0
C1527 C 0.53322 0.97206 0.03372 0.0
C1528 C 0.51917 0.92483 1.00122 0.0
C1529 C 0.53027 0.96921 1.00733 0.0
C1530 C 0.51982 0.89719 0.96004 0.0
C1531 C 0.49754 0.85625 0.97531 0.0
N1532 N 0.52369 0.94599 0.992 0.0
N1533 N 0.50246 0.87956 0.99046 0.0
H1534 H 0.02673 0.76434 0.81401 0.0
H1535 H 0.90716 0.76215 0.76953 0.0
H1536 H 0.98895 0.72284 0.74142 0.0
H1537 H 0.93585 0.78155 0.84933 0.0
H1538 H 0.93566 0.74215 0.76109 0.0
H1539 H 0.99337 0.76432 0.83025 0.0
C1540 C 0.01143 0.75424 0.80187 0.0
C1541 C 1.01035 0.74408 0.77626 0.0
C1542 C 0.93564 0.7504 0.78055 0.0
C1543 C 0.97244 0.74456 0.79425 0.0
C1544 C 0.91914 0.76184 0.7855 0.0
C1545 C 0.91891 0.77382 0.81028 0.0
C1546 C 0.95264 0.75157 0.8003 0.0
C1547 C 0.93556 0.77321 0.82982 0.0
C1548 C 0.99239 0.75443 0.81104 0.0
C1549 C 0.99028 0.73139 0.76115 0.0
N1550 N 0.95199 0.76271 0.82435 0.0
N1551 N 0.97205 0.73245 0.77021 0.0
H1552 H 0.09856 0.07885 0.89485 0.0
H1553 H 0.06942 0.99332 0.98931 0.0
H1554 H 0.14072 0.03257 0.91719 0.0
H1555 H 0.06341 0.06981 1.00507 0.0
H1556 H 0.09143 1.00362 0.95788 0.0
H1557 H 0.08094 0.0727 0.93087 0.0
C1558 C 0.10425 0.06767 0.90747 0.0
C1559 C 0.12113 0.05627 0.90312 0.0
C1560 C 0.08533 0.01811 0.96837 0.0
C1561 C 0.10073 0.04856 0.9435 0.0
C1562 C 0.07277 1.01222 0.98612 0.0
C1563 C 0.06461 0.03072 0.99957 0.0
C1564 C 0.08906 0.04239 0.9636 0.0
C1565 C 0.06946 0.05503 0.995 0.0
C1566 C 0.09423 0.06418 0.92793 0.0
C1567 C 0.12784 0.04184 0.91996 0.0
N1568 N 0.08109 0.0601 0.97705 0.0
N1569 N 0.11737 0.03802 0.93916 0.0
H1570 H 0.83302 0.35337 0.55433 0.0
H1571 H 0.83444 0.29222 0.65317 0.0
H1572 H 0.76431 0.33696 0.5517 0.0
H1573 H 0.7664 0.26107 0.62398 0.0
H1574 H 0.8367 0.31144 0.61683 0.0
H1575 H 0.83586 0.32156 0.57909 0.0
C1576 C 0.8185 0.34298 0.55883 0.0
C1577 C 0.79847 0.34839 0.55155 0.0
C1578 C 0.8214 0.29972 0.61777 0.0
C1579 C 0.80169 0.31245 0.58057 0.0
C1580 C 0.82008 0.28895 0.63877 0.0
C1581 C 0.80015 0.27535 0.64183 0.0
C1582 C 0.80259 0.29691 0.59974 0.0
C1583 C 0.78212 0.27137 0.62243 0.0
C1584 C 0.82017 0.32496 0.57324 0.0
C1585 C 0.78017 0.33391 0.55741 0.0
N1586 N 0.7837 0.28251 0.60248 0.0
N1587 N 0.78228 0.31686 0.57184 0.0
H1588 H 0.43892 0.07265 0.39261 0.0
H1589 H 0.54371 0.03418 0.45887 0.0
H1590 H 0.48184 0.03918 0.35237 0.0
H1591 H 0.49515 0.04943 0.50121 0.0
H1592 H 0.52124 0.03817 0.42061 0.0
H1593 H 0.45866 0.06653 0.43256 0.0
C1594 C 0.45237 0.06391 0.39202 0.0
C1595 C 0.45853 0.05643 0.36868 0.0
C1596 C 0.51525 0.04055 0.4381 0.0
C1597 C 0.48157 0.0496 0.41488 0.0
C1598 C 0.52818 0.03825 0.46019 0.0
C1599 C 0.52147 0.04125 0.48362 0.0
C1600 C 0.49518 0.04639 0.43888 0.0
C1601 C 0.50105 0.04664 0.48369 0.0
C1602 C 0.46366 0.06041 0.41496 0.0
C1603 C 0.47625 0.04529 0.36956 0.0
N1604 N 0.48877 0.04922 0.46181 0.0
N1605 N 0.48703 0.04243 0.39198 0.0
H1606 H 0.7602 0.6978 0.10325 0.0
H1607 H 0.827 0.77762 0.23863 0.0
H1608 H 0.82596 0.74123 0.11643 0.0
H1609 H 0.75835 0.7462 0.22497 0.0
H1610 H 0.82657 0.7636 0.19381 0.0
H1611 H 0.75874 0.7147 0.14734 0.0
C1612 C 0.77428 0.71101 0.11529 0.0
C1613 C 0.79327 0.718 0.106 0.0
C1614 C 0.81155 0.75979 0.2005 0.0
C1615 C 0.79173 0.73723 0.15661 0.0
C1616 C 0.81179 0.7677 0.22621 0.0
C1617 C 0.7927 0.76292 0.23572 0.0
C1618 C 0.79209 0.74676 0.18395 0.0
C1619 C 0.77346 0.75029 0.21851 0.0
C1620 C 0.77342 0.72064 0.14048 0.0
C1621 C 0.81097 0.7352 0.1226 0.0
N1622 N 0.77366 0.74248 0.19348 0.0
N1623 N 0.8098 0.74404 0.14703 0.0
H1624 H 0.13224 0.06987 0.75958 0.0
H1625 H 0.06755 0.9867 0.62417 0.0
H1626 H 0.10778 0.9896 0.74549 0.0
H1627 H 0.09428 0.06671 0.63956 0.0
H1628 H 0.08305 0.9867 0.66793 0.0
H1629 H 0.11921 0.06848 0.71503 0.0
C1630 C 0.12417 0.05193 0.74711 0.0
C1631 C 0.12104 0.02984 0.75633 0.0
C1632 C 0.08556 1.00421 0.66163 0.0
C1633 C 0.10599 0.02808 0.70516 0.0
C1634 C 0.07674 1.00422 0.63664 0.0
C1635 C 0.07948 0.02675 0.62814 0.0
C1636 C 0.09717 0.02688 0.67818 0.0
C1637 C 0.09158 0.04887 0.64519 0.0
C1638 C 0.11673 0.05113 0.72163 0.0
C1639 C 0.11051 1.00711 0.73922 0.0
N1640 N 0.09987 0.04837 0.66933 0.0
N1641 N 0.10329 1.00682 0.71448 0.0
H1642 H 0.8021 0.40154 0.43123 0.0
H1643 H 0.76399 0.26828 0.34878 0.0
H1644 H 0.75287 0.34858 0.45221 0.0
H1645 H 0.76479 0.32988 0.31104 0.0
H1646 H 0.76408 0.29651 0.38865 0.0
H1647 H 0.79338 0.37531 0.38814 0.0
C1648 C 0.78932 0.38453 0.42664 0.0
C1649 C 0.77817 0.3771 0.44515 0.0
C1650 C 0.76408 0.30373 0.37155 0.0
C1651 C 0.76863 0.347 0.39654 0.0
C1652 C 0.76411 0.28773 0.34888 0.0
C1653 C 0.76496 0.29701 0.3268 0.0
C1654 C 0.76549 0.32923 0.37217 0.0
C1655 C 0.76483 0.32227 0.32786 0.0
C1656 C 0.78432 0.36972 0.40215 0.0
C1657 C 0.76174 0.35495 0.43836 0.0
N1658 N 0.76564 0.33775 0.35037 0.0
N1659 N 0.75776 0.34032 0.41468 0.0
H1660 H 0.43238 0.05129 0.20306 0.0
H1661 H 0.54166 0.04511 0.14823 0.0
H1662 H 0.49544 0.06023 0.24792 0.0
H1663 H 0.48147 0.0377 0.09794 0.0
H1664 H 0.52353 0.0494 0.18412 0.0
H1665 H 0.44812 0.04523 0.16433 0.0
C1666 C 0.44941 0.05194 0.20496 0.0
C1667 C 0.46238 0.05639 0.22934 0.0
C1668 C 0.51409 0.04678 0.16532 0.0
C1669 C 0.48072 0.04939 0.18457 0.0
C1670 C 0.52455 0.04424 0.14453 0.0
C1671 C 0.51335 0.04093 0.1195 0.0
C1672 C 0.49188 0.04611 0.16175 0.0
C1673 C 0.49101 0.04012 0.11664 0.0
C1674 C 0.45845 0.0485 0.18271 0.0
C1675 C 0.48447 0.05698 0.23 0.0
N1676 N 0.48113 0.04271 0.13731 0.0
N1677 N 0.49269 0.05359 0.20837 0.0
H1678 H 0.80047 0.76047 1.0021 0.0
H1679 H 0.77079 0.74135 0.85382 0.0
H1680 H 0.75425 0.69474 0.95633 0.0
H1681 H 0.7948 0.81468 0.90307 0.0
H1682 H 0.7637 0.72378 0.89059 0.0
H1683 H 0.79773 0.78099 0.96624 0.0
C1684 C 0.78936 0.75058 0.98464 0.0
C1685 C 0.77754 0.72588 0.98223 0.0
C1686 C 0.77019 0.74378 0.89328 0.0
C1687 C 0.77486 0.74896 0.94072 0.0
C1688 C 0.77422 0.75382 0.87228 0.0
C1689 C 0.78349 0.77951 0.87538 0.0
C1690 C 0.77584 0.75947 0.91761 0.0
C1691 C 0.78776 0.79475 0.8998 0.0
C1692 C 0.78784 0.76227 0.96413 0.0
C1693 C 0.7635 0.71387 0.95908 0.0
N1694 N 0.78422 0.78446 0.91999 0.0
N1695 N 0.76287 0.72532 0.93905 0.0
H1696 H 0.90723 0.19334 0.06261 0.0
H1697 H 0.93633 0.08273 0.97098 0.0
H1698 H 0.88016 0.16892 0.98289 0.0
H1699 H 0.94671 0.09457 0.05242 0.0
H1700 H 0.92592 0.12286 0.9738 0.0
H1701 H 0.93283 0.1668 0.05737 0.0
C1702 C 0.90737 0.18317 0.04384 0.0
C1703 C 0.89179 0.1831 0.02311 0.0
C1704 C 0.93068 0.11671 0.99102 0.0
C1705 C 0.92016 0.15232 0.01708 0.0
C1706 C 0.93649 0.09383 0.98941 0.0
C1707 C 0.94166 0.08503 0.01145 0.0
C1708 C 0.93025 0.13084 0.01483 0.0
C1709 C 0.94201 0.10026 0.03492 0.0
C1710 C 0.92175 0.16787 0.04087 0.0
C1711 C 0.89211 0.16934 0.99923 0.0
N1712 N 0.93619 0.12233 0.03598 0.0
N1713 N 0.90588 0.15411 0.99688 0.0
H1714 H 0.40713 0.43165 0.10202 0.0
H1715 H 0.47319 0.53872 0.04435 0.0
H1716 H 0.37777 0.47822 0.05958 0.0
H1717 H 0.50342 0.48986 0.08236 0.0
H1718 H 0.43801 0.51533 0.04841 0.0
H1719 H 0.44223 0.45112 0.09374 0.0
C1720 C 0.40799 0.44578 0.09076 0.0
C1721 C 0.3894 0.45329 0.0815 0.0
C1722 C 0.45227 0.50956 0.05579 0.0
C1723 C 0.42966 0.47587 0.07215 0.0
C1724 C 0.47239 0.52295 0.05348 0.0
C1725 C 0.49125 0.51632 0.06317 0.0
C1726 C 0.45088 0.48939 0.06805 0.0
C1727 C 0.48925 0.49562 0.07467 0.0
C1728 C 0.42808 0.45695 0.08609 0.0
C1729 C 0.39161 0.47183 0.06716 0.0
N1730 N 0.46943 0.48298 0.07696 0.0
N1731 N 0.41133 0.48252 0.06305 0.0
H1732 H 0.36093 0.55115 0.8062 0.0
H1733 H 0.3367 0.64169 0.71612 0.0
H1734 H 0.39452 0.56129 0.74496 0.0
H1735 H 0.29183 0.61291 0.7608 0.0
H1736 H 0.35713 0.61076 0.72468 0.0
H1737 H 0.33438 0.57194 0.78846 0.0
C1738 C 0.3626 0.55752 0.78887 0.0
C1739 C 0.38012 0.55477 0.77722 0.0
C1740 C 0.34261 0.61091 0.73226 0.0
C1741 C 0.3499 0.57879 0.75696 0.0
C1742 C 0.33102 0.62858 0.72744 0.0
C1743 C 0.3127 0.62991 0.73796 0.0
C1744 C 0.33604 0.59479 0.74809 0.0
C1745 C 0.30586 0.61243 0.75231 0.0
C1746 C 0.34738 0.5693 0.7787 0.0
C1747 C 0.38133 0.56313 0.75464 0.0
N1748 N 0.31774 0.59584 0.75732 0.0
N1749 N 0.36662 0.57514 0.74547 0.0
H1750 H 0.27118 0.65266 0.52866 0.0
H1751 H 0.20465 0.58819 0.62058 0.0
H1752 H 0.30192 0.64137 0.60001 0.0
H1753 H 0.17917 0.58225 0.54153 0.0
H1754 H 0.24023 0.60862 0.61441 0.0
H1755 H 0.23689 0.62862 0.53427 0.0
C1756 C 0.27072 0.64512 0.54554 0.0
C1757 C 0.28944 0.64905 0.56392 0.0
C1758 C 0.22685 0.60267 0.59841 0.0
C1759 C 0.25015 0.62149 0.57047 0.0
C1760 C 0.20657 0.59088 0.60187 0.0
C1761 C 0.18882 0.58369 0.58159 0.0
C1762 C 0.22935 0.60745 0.57457 0.0
C1763 C 0.19225 0.58796 0.55784 0.0
C1764 C 0.25113 0.63129 0.54867 0.0
C1765 C 0.28787 0.63874 0.58535 0.0
N1766 N 0.21205 0.59972 0.55505 0.0
N1767 N 0.26851 0.62552 0.58813 0.0
H1768 H 0.6856 0.93241 0.7956 0.0
H1769 H 0.79143 0.88053 0.83651 0.0
H1770 H 0.74091 0.97528 0.85209 0.0
H1771 H 0.73069 0.83035 0.79788 0.0
H1772 H 0.77412 0.91586 0.8383 0.0
H1773 H 0.70245 0.89623 0.79171 0.0
C1774 C 0.70141 0.93454 0.80688 0.0
C1775 C 0.71169 0.95751 0.82412 0.0
C1776 C 0.76447 0.89717 0.82939 0.0
C1777 C 0.73136 0.91539 0.81978 0.0
C1778 C 0.77443 0.87675 0.82834 0.0
C1779 C 0.76276 0.85189 0.81707 0.0
C1780 C 0.74242 0.89337 0.81874 0.0
C1781 C 0.74061 0.84888 0.80688 0.0
C1782 C 0.711 0.91362 0.80482 0.0
C1783 C 0.73212 0.95834 0.83844 0.0
N1784 N 0.73135 0.86912 0.80782 0.0
N1785 N 0.74112 0.93799 0.83589 0.0
H1786 H 0.79267 0.9992 0.5917 0.0
H1787 H 0.66384 0.96072 0.5745 0.0
H1788 H 0.75728 0.92318 0.58592 0.0
H1789 H 0.7011 0.03476 0.5756 0.0
H1790 H 0.69728 0.94621 0.57909 0.0
H1791 H 0.75887 1.01208 0.58635 0.0
C1792 C 0.77777 0.98514 0.58928 0.0
C1793 C 0.77791 0.96003 0.58931 0.0
C1794 C 0.69809 0.96563 0.57838 0.0
C1795 C 0.73878 0.97482 0.58319 0.0
C1796 C 0.67899 0.97394 0.57567 0.0
C1797 C 0.67955 0.99911 0.57483 0.0
C1798 C 0.71795 0.98258 0.58021 0.0
C1799 C 0.69976 1.01535 0.57668 0.0
C1800 C 0.75839 0.99255 0.58621 0.0
C1801 C 0.75797 0.94274 0.586 0.0
N1802 N 0.71803 1.00682 0.57927 0.0
N1803 N 0.7392 0.95046 0.58314 0.0
H1804 H 0.40786 0.45285 0.84342 0.0
H1805 H 0.30787 0.34682 0.76174 0.0
H1806 H 0.38729 0.44773 0.76358 0.0
H1807 H 0.34324 0.34141 0.83313 0.0
H1808 H 0.33647 0.38328 0.76111 0.0
H1809 H 0.3844 0.41152 0.83935 0.0
C1810 C 0.39856 0.4428 0.82492 0.0
C1811 C 0.39945 0.45371 0.80381 0.0
C1812 C 0.33808 0.37388 0.77672 0.0
C1813 C 0.3721 0.40648 0.79907 0.0
C1814 C 0.32175 0.35318 0.77714 0.0
C1815 C 0.32317 0.34123 0.79759 0.0
C1816 C 0.35575 0.38281 0.79709 0.0
C1817 C 0.3415 0.35007 0.81699 0.0
C1818 C 0.38517 0.41918 0.82259 0.0
C1819 C 0.38712 0.43987 0.78027 0.0
N1820 N 0.35693 0.37046 0.8164 0.0
N1821 N 0.37363 0.41709 0.77859 0.0
H1822 H 0.19519 0.5866 0.29296 0.0
H1823 H 0.26509 0.72784 0.35682 0.0
H1824 H 0.22894 0.60919 0.37067 0.0
H1825 H 0.24572 0.70077 0.27602 0.0
H1826 H 0.24937 0.68566 0.36254 0.0
H1827 H 0.21092 0.62865 0.28668 0.0
C1828 C 0.20591 0.60026 0.30875 0.0
C1829 C 0.21066 0.59385 0.33242 0.0
C1830 C 0.2485 0.68889 0.34353 0.0
C1831 C 0.2287 0.64284 0.32533 0.0
C1832 C 0.25745 0.71314 0.34022 0.0
C1833 C 0.25688 0.71826 0.31585 0.0
C1834 C 0.23847 0.66922 0.32238 0.0
C1835 C 0.2467 0.69802 0.2952 0.0
C1836 C 0.21494 0.62442 0.30511 0.0
C1837 C 0.22474 0.61282 0.35201 0.0
N1838 N 0.23792 0.67467 0.29892 0.0
N1839 N 0.23304 0.6362 0.34808 0.0
H1840 H 0.47421 0.69205 0.50268 0.0
H1841 H 0.56592 0.62239 0.54428 0.0
H1842 H 0.53485 0.70342 0.47717 0.0
H1843 H 0.49909 0.59572 0.54752 0.0
H1844 H 0.55672 0.65674 0.52594 0.0
H1845 H 0.48522 0.66152 0.52538 0.0
C1846 C 0.48991 0.6883 0.50192 0.0
C1847 C 0.50359 0.70041 0.4878 0.0
C1848 C 0.54409 0.64345 0.53079 0.0
C1849 C 0.51614 0.66504 0.51383 0.0
C1850 C 0.54934 0.62396 0.54146 0.0
C1851 C 0.53318 0.60609 0.54732 0.0
C1852 C 0.52256 0.64532 0.52628 0.0
C1853 C 0.51196 0.60892 0.543 0.0
C1854 C 0.49609 0.67068 0.51481 0.0
C1855 C 0.52372 0.69456 0.48767 0.0
N1856 N 0.50726 0.62813 0.53277 0.0
N1857 N 0.52938 0.6773 0.50045 0.0
H1858 H 0.64542 0.30129 0.69451 0.0
H1859 H 0.72292 0.3179 0.82847 0.0
H1860 H 0.63483 0.33728 0.7666 0.0
H1861 H 0.74055 0.28941 0.7581 0.0
H1862 H 0.69 0.32374 0.80505 0.0
H1863 H 0.67992 0.29592 0.71615 0.0
C1864 C 0.65038 0.30821 0.7148 0.0
C1865 C 0.63712 0.3197 0.72874 0.0
C1866 C 0.70099 0.31621 0.79456 0.0
C1867 C 0.67637 0.31344 0.75356 0.0
C1868 C 0.71985 0.3128 0.80798 0.0
C1869 C 0.73456 0.30308 0.79523 0.0
C1870 C 0.69657 0.30983 0.76798 0.0
C1871 C 0.72965 0.29684 0.76865 0.0
C1872 C 0.67003 0.30508 0.72713 0.0
C1873 C 0.64437 0.32824 0.75499 0.0
N1874 N 0.71102 0.30029 0.75584 0.0
N1875 N 0.66335 0.32485 0.76645 0.0
H1876 H 0.97418 0.3215 0.99589 0.0
H1877 H 0.06169 0.45156 0.01682 0.0
H1878 H 0.032 0.32686 0.96455 0.0
H1879 H 0.99568 0.44523 0.02582 0.0
H1880 H 0.05374 0.40567 1.00292 0.0
H1881 H 0.98491 0.3665 0.01317 0.0
C1882 C 0.98927 0.33205 0.99282 0.0
C1883 C 1.0021 0.32025 0.9785 0.0
C1884 C 0.04105 0.41442 1.00796 0.0
C1885 C 0.01445 0.37217 0.99829 0.0
C1886 C 0.04557 0.44058 0.01591 0.0
C1887 C 0.0293 0.45232 0.02238 0.0
C1888 C 0.02024 0.39994 1.00687 0.0
C1889 C 1.00871 0.43711 0.02086 0.0
C1890 C 0.99533 0.35785 1.00262 0.0
C1891 C 0.02153 0.3351 0.97535 0.0
N1892 N 1.00482 0.4118 0.01337 0.0
N1893 N 0.02708 0.36032 0.98506 0.0
H1894 H 0.03158 0.77556 0.23449 0.0
H1895 H 0.91099 0.79237 0.23235 0.0
H1896 H 0.99688 0.80512 0.17784 0.0
H1897 H 0.94645 0.76606 0.29117 0.0
H1898 H 0.94112 0.7935 0.21006 0.0
H1899 H 0.99947 0.76833 0.25347 0.0
C1900 C 0.01716 0.78025 0.22584 0.0
C1901 C 0.01699 0.79098 0.20451 0.0
C1902 C 0.94228 0.78738 0.2278 0.0
C1903 C 0.98019 0.78295 0.22628 0.0
C1904 C 0.925 0.7866 0.24048 0.0
C1905 C 0.92618 0.7793 0.26382 0.0
C1906 C 0.96094 0.78077 0.23844 0.0
C1907 C 0.94493 0.77227 0.27349 0.0
C1908 C 0.99883 0.77619 0.23674 0.0
C1909 C 0.99781 0.79674 0.1942 0.0
N1910 N 0.96156 0.77327 0.26084 0.0
N1911 N 0.98028 0.79279 0.20524 0.0
H1912 H 0.49694 0.29572 0.15175 0.0
H1913 H 0.57741 0.38704 0.09214 0.0
H1914 H 0.5659 0.31881 0.17908 0.0
H1915 H 0.50815 0.36754 0.06825 0.0
H1916 H 0.57393 0.35803 0.12067 0.0
H1917 H 0.50115 0.31843 0.11803 0.0
C1918 C 0.51297 0.30558 0.15071 0.0
C1919 C 0.53107 0.30554 0.16845 0.0
C1920 C 0.55952 0.3599 0.10897 0.0
C1921 C 0.53599 0.33146 0.12975 0.0
C1922 C 0.5615 0.37644 0.09272 0.0
C1923 C 0.54303 0.37986 0.078 0.0
C1924 C 0.53892 0.34679 0.11058 0.0
C1925 C 0.52282 0.36538 0.07914 0.0
C1926 C 0.51536 0.31847 0.13137 0.0
C1927 C 0.55146 0.31848 0.16597 0.0
N1928 N 0.52129 0.34967 0.09537 0.0
N1929 N 0.55335 0.331 0.14703 0.0
H1930 H 0.93811 0.24463 0.37036 0.0
H1931 H 0.84904 0.31862 0.33547 0.0
H1932 H 0.95205 0.31847 0.35404 0.0
H1933 H 0.8369 0.23825 0.30958 0.0
H1934 H 0.88526 0.31937 0.35633 0.0
H1935 H 0.89936 0.24307 0.36065 0.0
C1936 C 0.93298 0.26057 0.36498 0.0
C1937 C 0.94811 0.2816 0.36265 0.0
C1938 C 0.87451 0.30156 0.34638 0.0
C1939 C 0.90437 0.28015 0.35231 0.0
C1940 C 0.85381 0.30104 0.3345 0.0
C1941 C 0.84011 0.27838 0.3202 0.0
C1942 C 0.88146 0.27927 0.3442 0.0
C1943 C 0.8471 0.25618 0.32004 0.0
C1944 C 0.91101 0.25963 0.35948 0.0
C1945 C 0.94082 0.3018 0.3557 0.0
N1946 N 0.8675 0.2572 0.33164 0.0
N1947 N 0.9194 0.30059 0.3508 0.0
H1948 H 0.06554 0.69426 0.70109 0.0
H1949 H 0.04 0.62747 0.55472 0.0
H1950 H 1.01009 0.69771 0.64806 0.0
H1951 H 0.07204 0.59652 0.61217 0.0
H1952 H 0.03663 0.66138 0.58793 0.0
H1953 H 0.07448 0.66471 0.66774 0.0
C1954 C 0.05516 0.68864 0.68253 0.0
C1955 C 0.03691 0.69822 0.6774 0.0
C1956 C 0.04475 0.64737 0.59315 0.0
C1957 C 0.04747 0.66533 0.63917 0.0
C1958 C 0.04692 0.62821 0.57422 0.0
C1959 C 0.05624 0.6091 0.58075 0.0
C1960 C 0.05223 0.64753 0.61864 0.0
C1961 C 0.06479 0.6109 0.60634 0.0
C1962 C 0.06034 0.67195 0.66354 0.0
C1963 C 0.02412 0.69051 0.65296 0.0
N1964 N 0.06244 0.62968 0.62443 0.0
N1965 N 0.02974 0.67466 0.63469 0.0
H1966 H 0.56174 0.81904 0.82136 0.0
H1967 H 0.67686 0.79392 0.86371 0.0
H1968 H 0.5907 0.82241 0.89874 0.0
H1969 H 0.64984 0.79311 0.78632 0.0
H1970 H 0.6478 0.81089 0.87747 0.0
H1971 H 0.59618 0.81691 0.809 0.0
C1972 C 0.57545 0.81987 0.83585 0.0
C1973 C 0.57321 0.82029 0.86102 0.0
C1974 C 0.64829 0.80725 0.85748 0.0
C1975 C 0.61252 0.81752 0.84695 0.0
C1976 C 0.66497 0.79762 0.84959 0.0
C1977 C 0.66574 0.79187 0.82375 0.0
C1978 C 0.63204 0.81093 0.83943 0.0
C1979 C 0.64965 0.79675 0.80636 0.0
C1980 C 0.59509 0.81854 0.82875 0.0
C1981 C 0.59157 0.82162 0.87903 0.0
N1982 N 0.63333 0.80578 0.8145 0.0
N1983 N 0.61035 0.81975 0.87156 0.0
H1984 H 0.45905 0.49407 0.70715 0.0
H1985 H 0.52203 0.58623 0.63366 0.0
H1986 H 0.45376 0.57047 0.71132 0.0
H1987 H 0.51051 0.50595 0.60959 0.0
H1988 H 0.49694 0.58032 0.66249 0.0
H1989 H 0.47738 0.49699 0.67121 0.0
C1990 C 0.46142 0.51128 0.70029 0.0
C1991 C 0.45509 0.53216 0.7125 0.0
C1992 C 0.49969 0.56394 0.65075 0.0
C1993 C 0.47625 0.53571 0.67176 0.0
C1994 C 0.51407 0.56734 0.63436 0.0
C1995 C 0.5184 0.54656 0.61941 0.0
C1996 C 0.48986 0.53956 0.65256 0.0
C1997 C 0.50759 0.52246 0.62089 0.0
C1998 C 0.47191 0.51295 0.67982 0.0
C1999 C 0.45857 0.55398 0.70277 0.0
N2000 N 0.494 0.51958 0.63747 0.0
N2001 N 0.46914 0.55528 0.68325 0.0
H2002 H 0.86497 0.31619 0.06107 0.0
H2003 H 0.75819 0.32438 0.98508 0.0
H2004 H 0.80314 0.26461 0.0521 0.0
H2005 H 0.82092 0.37199 0.98901 0.0
H2006 H 0.77097 0.31693 0.02666 0.0
H2007 H 0.8465 0.34864 0.05272 0.0
C2008 C 0.84752 0.31179 0.05786 0.0
C2009 C 0.83556 0.28726 0.0559 0.0
C2010 C 0.78171 0.32977 0.01883 0.0
C2011 C 0.81435 0.32422 0.046 0.0
C2012 C 0.7744 0.33405 0.99503 0.0
C2013 C 0.78898 0.34727 0.98268 0.0
C2014 C 0.8037 0.33869 0.02997 0.0
C2015 C 0.80932 0.36057 0.99712 0.0
C2016 C 0.83695 0.33041 0.05322 0.0
C2017 C 0.81302 0.28297 0.05265 0.0
N2018 N 0.81638 0.35515 0.01963 0.0
N2019 N 0.80312 0.30105 0.04706 0.0
H2020 H 0.14673 0.53409 0.23068 0.0
H2021 H 0.04119 0.48159 0.11859 0.0
H2022 H 0.08926 0.48038 0.2337 0.0
H2023 H 0.08946 0.54721 0.11754 0.0
H2024 H 0.0616 0.47881 0.15875 0.0
H2025 H 0.12928 0.53725 0.18816 0.0
C2026 C 0.1306 0.52277 0.22243 0.0
C2027 C 0.11959 0.5069 0.23616 0.0
C2028 C 0.06792 0.49386 0.14989 0.0
C2029 C 0.09941 0.51043 0.18716 0.0
C2030 C 0.0562 0.49546 0.12671 0.0
C2031 C 0.06337 0.51475 0.11435 0.0
C2032 C 0.08737 0.51161 0.1614 0.0
C2033 C 0.08317 0.53198 0.12617 0.0
C2034 C 0.12057 0.52471 0.19814 0.0
C2035 C 0.09857 0.49295 0.22425 0.0
N2036 N 0.09441 0.53004 0.14895 0.0
N2037 N 0.08938 0.495 0.20079 0.0
H2038 H 0.8529 0.84172 0.52683 0.0
H2039 H 0.77444 0.82446 0.39339 0.0
H2040 H 0.80274 0.8818 0.51819 0.0
H2041 H 0.83532 0.80346 0.40312 0.0
H2042 H 0.78059 0.84026 0.43955 0.0
H2043 H 0.84223 0.82168 0.48214 0.0
C2044 C 0.83951 0.84622 0.51561 0.0
C2045 C 0.82889 0.86376 0.52638 0.0
C2046 C 0.7925 0.83209 0.43147 0.0
C2047 C 0.81659 0.84076 0.47474 0.0
C2048 C 0.78899 0.82303 0.40519 0.0
C2049 C 0.80449 0.81284 0.39432 0.0
C2050 C 0.81145 0.83054 0.44691 0.0
C2051 C 0.82303 0.81143 0.41052 0.0
C2052 C 0.83346 0.83477 0.48998 0.0
C2053 C 0.8115 0.86852 0.51072 0.0
N2054 N 0.82595 0.82014 0.43587 0.0
N2055 N 0.80597 0.85721 0.48563 0.0
H2056 H 0.49429 0.50404 0.84613 0.0
H2057 H 0.52238 0.57854 0.99053 0.0
H2058 H 0.46261 0.56121 0.87407 0.0
H2059 H 0.52956 0.50311 0.96751 0.0
H2060 H 0.50636 0.57708 0.94642 0.0
H2061 H 0.51325 0.50792 0.88954 0.0
C2062 C 0.49137 0.51742 0.86138 0.0
C2063 C 0.47674 0.53217 0.85659 0.0
C2064 C 0.51156 0.56093 0.95111 0.0
C2065 C 0.49855 0.53697 0.90599 0.0
C2066 C 0.52077 0.56181 0.97617 0.0
C2067 C 0.52712 0.54086 0.98264 0.0
C2068 C 0.50912 0.53914 0.93246 0.0
C2069 C 0.52466 0.51959 0.96336 0.0
C2070 C 0.50215 0.5196 0.88608 0.0
C2071 C 0.47358 0.54928 0.87701 0.0
N2072 N 0.51589 0.51929 0.93913 0.0
N2073 N 0.48446 0.5513 0.90083 0.0
H2074 H 0.89356 0.26496 0.13461 0.0
H2075 H 0.81678 0.23863 0.23192 0.0
H2076 H 0.84708 0.19385 0.12076 0.0
H2077 H 0.82726 0.30565 0.20197 0.0
H2078 H 0.83836 0.22088 0.20327 0.0
H2079 H 0.88134 0.27823 0.17377 0.0
C2080 C 0.88141 0.25171 0.14025 0.0
C2081 C 0.87089 0.22849 0.12403 0.0
C2082 C 0.83599 0.23953 0.20328 0.0
C2083 C 0.85703 0.24365 0.16872 0.0
C2084 C 0.82353 0.24953 0.21929 0.0
C2085 C 0.81979 0.27334 0.21874 0.0
C2086 C 0.84537 0.25393 0.18752 0.0
C2087 C 0.82946 0.28706 0.20265 0.0
C2088 C 0.87435 0.25943 0.16249 0.0
C2089 C 0.8553 0.21212 0.13248 0.0
N2090 N 0.84189 0.27718 0.18773 0.0
N2091 N 0.8485 0.2202 0.15412 0.0
H2092 H 0.16338 0.52424 0.41022 0.0
H2093 H 0.05606 0.54236 0.46321 0.0
H2094 H 0.10937 0.54188 0.36682 0.0
H2095 H 0.11404 0.54123 0.51309 0.0
H2096 H 0.07523 0.54044 0.4279 0.0
H2097 H 0.14606 0.52879 0.44752 0.0
C2098 C 0.148 0.52928 0.40845 0.0
C2099 C 0.13807 0.53278 0.38494 0.0
C2100 C 0.0839 0.54068 0.44652 0.0
C2101 C 0.11767 0.53761 0.42808 0.0
C2102 C 0.07286 0.54177 0.46692 0.0
C2103 C 0.08321 0.54202 0.49164 0.0
C2104 C 0.10569 0.53947 0.45022 0.0
C2105 C 0.10518 0.54118 0.49464 0.0
C2106 C 0.13804 0.53182 0.42989 0.0
C2107 C 0.11793 0.53909 0.38426 0.0
N2108 N 0.11552 0.53979 0.47435 0.0
N2109 N 0.10851 0.54109 0.40515 0.0
H2110 H 0.80743 0.88803 0.66345 0.0
H2111 H 0.80154 0.76455 0.71927 0.0
H2112 H 0.8403 0.83168 0.63671 0.0
H2113 H 0.80004 0.83582 0.76408 0.0
H2114 H 0.80963 0.78544 0.6846 0.0
H2115 H 0.7974 0.86514 0.69589 0.0
C2116 C 0.81222 0.87064 0.6641 0.0
C2117 C 0.82479 0.86182 0.64738 0.0
C2118 C 0.80756 0.79643 0.70208 0.0
C2119 C 0.81336 0.83556 0.68442 0.0
C2120 C 0.80299 0.78456 0.72182 0.0
C2121 C 0.80021 0.79849 0.74458 0.0
C2122 C 0.80882 0.82226 0.70496 0.0
C2123 C 0.80218 0.82438 0.74691 0.0
C2124 C 0.80667 0.85772 0.68276 0.0
C2125 C 0.8307 0.83924 0.6493 0.0
N2126 N 0.80616 0.83537 0.72729 0.0
N2127 N 0.82491 0.82687 0.66744 0.0
H2128 H 0.69223 0.41771 0.47616 0.0
H2129 H 0.6609 0.4807 0.60189 0.0
H2130 H 0.70503 0.39461 0.54701 0.0
H2131 H 0.6407 0.49642 0.52877 0.0
H2132 H 0.67244 0.44466 0.58099 0.0
H2133 H 0.66747 0.44069 0.4931 0.0
C2134 C 0.6894 0.41689 0.49503 0.0
C2135 C 0.70129 0.40493 0.51048 0.0
C2136 C 0.66531 0.45587 0.56949 0.0
C2137 C 0.6734 0.43169 0.5302 0.0
C2138 C 0.65878 0.4765 0.58144 0.0
C2139 C 0.6503 0.49197 0.56712 0.0
C2140 C 0.66345 0.45075 0.54305 0.0
C2141 C 0.64783 0.48554 0.54066 0.0
C2142 C 0.67535 0.43018 0.50478 0.0
C2143 C 0.69664 0.40411 0.53462 0.0
N2144 N 0.65459 0.46561 0.52952 0.0
N2145 N 0.68348 0.41791 0.544 0.0
H2146 H 0.19726 0.14507 0.54083 0.0
H2147 H 0.11646 1.01013 0.52226 0.0
H2148 H 0.20662 0.07555 0.5004 0.0
H2149 H 0.10212 0.07852 0.55755 0.0
H2150 H 0.15009 0.03448 0.51522 0.0
H2151 H 0.16262 0.12195 0.5477 0.0
C2152 C 0.19201 0.12503 0.53327 0.0
C2153 C 0.20494 0.11226 0.52006 0.0
C2154 C 0.13964 0.0443 0.5245 0.0
C2155 C 0.16549 0.08572 0.52803 0.0
C2156 C 0.12043 0.03035 0.5286 0.0
C2157 C 0.10643 0.04237 0.54044 0.0
C2158 C 0.14505 0.07058 0.53236 0.0
C2159 C 0.1124 0.0686 0.54824 0.0
C2160 C 0.17227 0.11185 0.53725 0.0
C2161 C 0.19731 0.08627 0.51075 0.0
N2162 N 0.13128 0.08189 0.54408 0.0
N2163 N 0.17822 0.07393 0.51499 0.0
H2164 H 0.23398 0.04126 0.87572 0.0
H2165 H 0.2524 0.93022 0.77455 0.0
H2166 H 0.19126 1.00895 0.80332 0.0
H2167 H 0.29437 0.96291 0.84731 0.0
H2168 H 0.2329 0.96315 0.78174 0.0
H2169 H 0.25939 0.01735 0.86252 0.0
C2170 C 0.23001 0.0293 0.85693 0.0
C2171 C 0.21026 0.02674 0.84078 0.0
C2172 C 0.24656 0.96331 0.79598 0.0
C2173 C 0.23928 0.99912 0.82559 0.0
C2174 C 0.25762 0.94446 0.79194 0.0
C2175 C 0.27483 0.94362 0.81053 0.0
C2176 C 0.25267 0.98135 0.81884 0.0
C2177 C 0.28123 0.96283 0.83245 0.0
C2178 C 0.24457 1.01566 0.84938 0.0
C2179 C 0.20619 1.0113 0.81649 0.0
N2180 N 0.26997 0.98072 0.83613 0.0
N2181 N 0.22045 0.99776 0.80977 0.0
H2182 H 0.29026 0.95277 1.00621 0.0
H2183 H 0.41466 1.00239 0.07156 0.0
H2184 H 0.31996 0.92498 0.0679 0.0
H2185 H 0.39043 1.00248 0.99354 0.0
H2186 H 0.37819 0.98262 0.07533 0.0
H2187 H 0.32539 0.97977 1.00639 0.0
C2188 C 0.30414 0.95253 0.01994 0.0
C2189 C 0.30231 0.93648 0.03692 0.0
C2190 C 0.38091 0.98721 0.05749 0.0
C2191 C 0.34229 0.96737 0.03736 0.0
C2192 C 0.40171 0.99839 0.05525 0.0
C2193 C 0.40575 1.00376 0.03205 0.0
C2194 C 0.36398 0.98168 0.03651 0.0
C2195 C 0.38815 0.99884 0.01183 0.0
C2196 C 0.32413 0.96787 0.01998 0.0
C2197 C 0.32076 0.93689 0.05431 0.0
N2198 N 0.36804 0.98793 0.01449 0.0
N2199 N 0.34003 0.9521 0.05408 0.0
H2200 H 0.85855 0.60446 0.76513 0.0
H2201 H 0.85236 0.74526 0.82792 0.0
H2202 H 0.89396 0.64475 0.83914 0.0
H2203 H 0.79773 0.69465 0.77576 0.0
H2204 H 0.87099 0.71104 0.82683 0.0
H2205 H 0.83961 0.63876 0.7632 0.0
C2206 C 0.86269 0.62057 0.78081 0.0
C2207 C 0.87822 0.62136 0.80231 0.0
C2208 C 0.85494 0.7073 0.81552 0.0
C2209 C 0.85639 0.66138 0.80013 0.0
C2210 C 0.84419 0.72705 0.81606 0.0
C2211 C 0.82311 0.72333 0.80202 0.0
C2212 C 0.84507 0.68317 0.80036 0.0
C2213 C 0.81379 0.69881 0.78711 0.0
C2214 C 0.85165 0.64018 0.77979 0.0
C2215 C 0.8823 0.64294 0.82208 0.0
N2216 N 0.82475 0.67998 0.78657 0.0
N2217 N 0.87179 0.66179 0.82042 0.0
H2218 H 0.81089 0.60852 0.06469 0.0
H2219 H 0.93079 0.61147 0.04122 0.0
H2220 H 0.84615 0.66329 0.03008 0.0
H2221 H 0.89435 0.55607 0.07416 0.0
H2222 H 0.90125 0.63283 0.04002 0.0
H2223 H 0.84256 0.59128 0.07146 0.0
C2224 C 0.82537 0.6171 0.05875 0.0
C2225 C 0.82581 0.63734 0.04672 0.0
C2226 C 0.89977 0.61604 0.04759 0.0
C2227 C 0.86216 0.6175 0.0542 0.0
C2228 C 0.91667 0.6039 0.04839 0.0
C2229 C 0.915 0.58178 0.05758 0.0
C2230 C 0.88105 0.60606 0.05612 0.0
C2231 C 0.89621 0.57276 0.06643 0.0
C2232 C 0.84345 0.60719 0.06256 0.0
C2233 C 0.84505 0.64768 0.03944 0.0
N2234 N 0.87999 0.58486 0.0654 0.0
N2235 N 0.8624 0.63754 0.04313 0.0
H2236 H 0.17503 0.1253 0.82325 0.0
H2237 H 0.28487 0.23066 0.87277 0.0
H2238 H 0.21132 0.14391 0.89993 0.0
H2239 H 0.24653 0.21892 0.79809 0.0
H2240 H 0.25618 0.20117 0.88376 0.0
H2241 H 0.19862 0.16182 0.8145 0.0
C2242 C 0.1877 0.13726 0.83839 0.0
C2243 C 0.19132 0.13124 0.86231 0.0
C2244 C 0.25386 0.20512 0.86501 0.0
C2245 C 0.21854 0.17294 0.85226 0.0
C2246 C 0.2703 0.22191 0.8587 0.0
C2247 C 0.26809 0.22705 0.83445 0.0
C2248 C 0.2351 0.19303 0.8468 0.0
C2249 C 0.24881 0.21543 0.81702 0.0
C2250 C 0.20121 0.15808 0.83333 0.0
C2251 C 0.20799 0.14754 0.88114 0.0
N2252 N 0.23311 0.19871 0.82344 0.0
N2253 N 0.22108 0.16739 0.87562 0.0
H2254 H 0.35637 1.00122 0.33359 0.0
H2255 H 0.33699 0.85477 0.26777 0.0
H2256 H 0.39128 0.97821 0.27596 0.0
H2257 H 0.31593 0.88346 0.3358 0.0
H2258 H 0.35458 0.89839 0.26671 0.0
H2259 H 0.3387 0.95762 0.33028 0.0
C2260 C 0.36028 0.98707 0.31997 0.0
C2261 C 0.37561 0.99394 0.30511 0.0
C2262 C 0.34611 0.89504 0.28185 0.0
C2263 C 0.35499 0.94264 0.30132 0.0
C2264 C 0.33601 0.87006 0.28247 0.0
C2265 C 0.32486 0.86501 0.30197 0.0
C2266 C 0.34486 0.91532 0.30066 0.0
C2267 C 0.32428 0.88594 0.32038 0.0
C2268 C 0.35012 0.96188 0.31818 0.0
C2269 C 0.3796 0.97415 0.2878 0.0
N2270 N 0.33393 0.90976 0.31918 0.0
N2271 N 0.36948 0.94953 0.28646 0.0
H2272 H 0.59567 0.38364 0.64794 0.0
H2273 H 0.53379 0.44532 0.54791 0.0
H2274 H 0.54228 0.34279 0.58765 0.0
H2275 H 0.58845 0.48766 0.60569 0.0
H2276 H 0.54031 0.40666 0.55878 0.0
H2277 H 0.59756 0.42057 0.62903 0.0
C2278 C 0.58478 0.38218 0.63034 0.0
C2279 C 0.56861 0.36017 0.61953 0.0
C2280 C 0.55112 0.42435 0.56893 0.0
C2281 C 0.57039 0.40243 0.59811 0.0
C2282 C 0.54735 0.44646 0.56275 0.0
C2283 C 0.56062 0.46978 0.57593 0.0
C2284 C 0.56811 0.42544 0.58878 0.0
C2285 C 0.57803 0.47009 0.59485 0.0
C2286 C 0.58572 0.40336 0.61968 0.0
C2287 C 0.55482 0.35945 0.59683 0.0
N2288 N 0.58113 0.44829 0.60096 0.0
N2289 N 0.55584 0.38031 0.58712 0.0
H2290 H 0.42434 0.73719 0.41773 0.0
H2291 H 0.35806 0.81695 0.3422 0.0
H2292 H 0.45501 0.79267 0.38049 0.0
H2293 H 0.33029 0.74358 0.35335 0.0
H2294 H 0.39337 0.81465 0.36496 0.0
H2295 H 0.38955 0.74564 0.40277 0.0
C2296 C 0.42383 0.75135 0.40661 0.0
C2297 C 0.44268 0.76412 0.40024 0.0
C2298 C 0.37943 0.79929 0.3628 0.0
C2299 C 0.4027 0.77399 0.38311 0.0
C2300 C 0.35928 0.80074 0.35013 0.0
C2301 C 0.34128 0.78048 0.34615 0.0
C2302 C 0.3814 0.77762 0.37181 0.0
C2303 C 0.34378 0.75964 0.35621 0.0
C2304 C 0.40391 0.75611 0.39801 0.0
C2305 C 0.44089 0.78224 0.3857 0.0
N2306 N 0.36342 0.75872 0.36854 0.0
N2307 N 0.42126 0.78662 0.37759 0.0
H2308 H 0.01566 0.72554 0.09477 0.0
H2309 H 0.08343 0.62019 0.08343 0.0
H2310 H 0.08093 0.73844 0.1358 0.0
H2311 H 0.0149 0.60624 0.056 0.0
H2312 H 0.08464 0.66487 0.098 0.0
H2313 H 0.01705 0.68321 0.07565 0.0
C2314 C 0.03037 0.71958 0.09969 0.0
C2315 C 0.04814 0.73566 0.11715 0.0
C2316 C 0.06938 0.65199 0.08867 0.0
C2317 C 0.0498 0.68681 0.09519 0.0
C2318 C 0.0687 0.62654 0.08024 0.0
C2319 C 0.04899 0.60939 0.06871 0.0
C2320 C 0.05026 0.66033 0.08525 0.0
C2321 C 0.0304 0.61865 0.06513 0.0
C2322 C 0.03113 0.6953 0.08875 0.0
C2323 C 0.06678 0.72672 0.12256 0.0
N2324 N 0.0315 0.64339 0.07339 0.0
N2325 N 0.06709 0.70286 0.11172 0.0
H2326 H 0.07146 0.24172 0.91555 0.0
H2327 H 0.15897 0.32006 0.85221 0.0
H2328 H 0.06636 0.31077 0.89283 0.0
H2329 H 0.16461 0.25081 0.87417 0.0
H2330 H 0.1263 0.31825 0.86969 0.0
H2331 H 0.10664 0.24591 0.90308 0.0
C2332 C 0.07778 0.25785 0.90812 0.0
C2333 C 0.06583 0.27585 0.90513 0.0
C2334 C 0.13472 0.3035 0.87083 0.0
C2335 C 0.10611 0.28071 0.89069 0.0
C2336 C 0.15353 0.30461 0.861 0.0
C2337 C 0.16467 0.28555 0.86166 0.0
C2338 C 0.12681 0.28314 0.88142 0.0
C2339 C 0.15646 0.26576 0.87289 0.0
C2340 C 0.09787 0.26021 0.90095 0.0
C2341 C 0.0749 0.29636 0.8954 0.0
N2342 N 0.13803 0.26504 0.88223 0.0
N2343 N 0.0944 0.29815 0.88844 0.0
H2344 H 0.52258 0.7709 0.99442 0.0
H2345 H 0.591 0.67717 0.01444 0.0
H2346 H 0.56324 0.75257 0.94175 0.0
H2347 H 0.57684 0.72471 0.078 0.0
H2348 H 0.58523 0.70748 0.98887 0.0
H2349 H 0.5448 0.75688 0.02648 0.0
C2350 C 0.53634 0.76411 0.98972 0.0
C2351 C 0.54089 0.76236 0.96534 0.0
C2352 C 0.58397 0.71162 1.00861 0.0
C2353 C 0.56624 0.74616 1.00176 0.0
C2354 C 0.58738 0.69435 0.02333 0.0
C2355 C 0.58372 0.69801 0.04823 0.0
C2356 C 0.57643 0.73234 0.01873 0.0
C2357 C 0.57899 0.72066 0.05858 0.0
C2358 C 0.54915 0.75637 1.00808 0.0
C2359 C 0.55911 0.75392 0.96031 0.0
N2360 N 0.57486 0.73667 0.04357 0.0
N2361 N 0.57088 0.74553 0.97822 0.0
H2362 H 0.11999 0.75399 0.72495 0.0
H2363 H 0.23929 0.83552 0.75003 0.0
H2364 H 0.13557 0.83494 0.74047 0.0
H2365 H 0.22091 0.75563 0.71916 0.0
H2366 H 0.2014 0.83663 0.74164 0.0
H2367 H 0.15662 0.75477 0.71893 0.0
C2368 C 0.13115 0.77196 0.7271 0.0
C2369 C 0.12487 0.79447 0.73365 0.0
C2370 C 0.2057 0.81894 0.73625 0.0
C2371 C 0.16687 0.7955 0.72669 0.0
C2372 C 0.22735 0.81829 0.74099 0.0
C2373 C 0.23322 0.79532 0.73591 0.0
C2374 C 0.18988 0.79645 0.72661 0.0
C2375 C 0.2171 0.77369 0.72383 0.0
C2376 C 0.15203 0.77239 0.72343 0.0
C2377 C 0.13986 0.81718 0.73571 0.0
N2378 N 0.1961 0.7747 0.72006 0.0
N2379 N 0.16031 0.81714 0.73257 0.0
H2380 H 0.01922 0.36927 0.42071 0.0
H2381 H 0.02862 0.44954 0.55899 0.0
H2382 H 0.9912 0.33741 0.47798 0.0
H2383 H 0.03143 0.48279 0.49385 0.0
H2384 H 0.01728 0.40784 0.53062 0.0
H2385 H 0.02692 0.41094 0.44843 0.0
C2386 C 0.01471 0.37103 0.4391 0.0
C2387 C 1.00456 0.34984 0.44704 0.0
C2388 C 0.0202 0.4243 0.52258 0.0
C2389 C 0.01341 0.39735 0.47883 0.0
C2390 C 0.02664 0.44803 0.53872 0.0
C2391 C 0.03104 0.46953 0.52871 0.0
C2392 C 0.01853 0.42217 0.49634 0.0
C2393 C 0.02824 0.46665 0.50233 0.0
C2394 C 0.01899 0.39481 0.45483 0.0
C2395 C 0.99897 0.35325 0.47104 0.0
N2396 N 0.02241 0.44338 0.48706 0.0
N2397 N 1.00362 0.37653 0.48618 0.0
H2398 H 0.52596 0.26679 0.31329 0.0
H2399 H 0.40712 0.26473 0.27143 0.0
H2400 H 0.48692 0.22221 0.24257 0.0
H2401 H 0.43582 0.28332 0.35122 0.0
H2402 H 0.43505 0.2439 0.26282 0.0
H2403 H 0.49321 0.26675 0.33079 0.0
C2404 C 0.51057 0.25594 0.30189 0.0
C2405 C 0.5089 0.24499 0.27634 0.0
C2406 C 0.43513 0.25212 0.28232 0.0
C2407 C 0.47164 0.24547 0.29575 0.0
C2408 C 0.41895 0.26406 0.28738 0.0
C2409 C 0.41887 0.27608 0.31221 0.0
C2410 C 0.45203 0.25285 0.302 0.0
C2411 C 0.43539 0.275 0.33168 0.0
C2412 C 0.49186 0.25612 0.31178 0.0
C2413 C 0.4887 0.23136 0.26222 0.0
N2414 N 0.45158 0.26406 0.32609 0.0
N2415 N 0.47076 0.23248 0.27191 0.0
H2416 H 0.60069 0.58425 0.40025 0.0
H2417 H 0.57741 0.49829 0.4957 0.0
H2418 H 0.64537 0.5404 0.42177 0.0
H2419 H 0.56924 0.57387 0.51253 0.0
H2420 H 0.59803 0.50964 0.46343 0.0
H2421 H 0.58435 0.57768 0.4371 0.0
C2422 C 0.60722 0.57357 0.41287 0.0
C2423 C 0.6244 0.56289 0.40801 0.0
C2424 C 0.59181 0.52371 0.47438 0.0
C2425 C 0.60548 0.55472 0.44929 0.0
C2426 C 0.58007 0.51724 0.49264 0.0
C2427 C 0.57176 0.53519 0.50668 0.0
C2428 C 0.59455 0.54801 0.46972 0.0
C2429 C 0.57555 0.55954 0.50211 0.0
C2430 C 0.59792 0.56984 0.43378 0.0
C2431 C 0.63221 0.54908 0.42487 0.0
N2432 N 0.5864 0.56518 0.48369 0.0
N2433 N 0.62244 0.545 0.44451 0.0
H2434 H 0.21659 0.8183 0.06163 0.0
H2435 H 0.22902 0.76335 0.16147 0.0
H2436 H 0.2753 0.79578 0.05178 0.0
H2437 H 0.26366 0.71698 0.12026 0.0
H2438 H 0.21819 0.77795 0.12365 0.0
H2439 H 0.20734 0.78443 0.08393 0.0
C2440 C 0.22734 0.80596 0.06376 0.0
C2441 C 0.2471 0.81035 0.05563 0.0
C2442 C 0.22739 0.76379 0.12239 0.0
C2443 C 0.23687 0.77204 0.08144 0.0
C2444 C 0.23361 0.75532 0.14418 0.0
C2445 C 0.24792 0.73948 0.14436 0.0
C2446 C 0.23576 0.75661 0.10073 0.0
C2447 C 0.2533 0.72994 0.12126 0.0
C2448 C 0.22213 0.78677 0.07667 0.0
C2449 C 0.26023 0.79354 0.05845 0.0
N2450 N 0.24783 0.7393 0.1006 0.0
N2451 N 0.25503 0.77536 0.07145 0.0
H2452 H 0.93628 0.56674 0.88846 0.0
H2453 H 0.04374 0.53466 0.95608 0.0
H2454 H 0.98062 0.53573 0.84862 0.0
H2455 H 0.99296 0.54382 0.99695 0.0
H2456 H 0.02111 0.53805 0.91762 0.0
H2457 H 0.95643 0.5614 0.92853 0.0
C2458 C 0.95013 0.55871 0.88798 0.0
C2459 C 0.95656 0.55166 0.86472 0.0
C2460 C 0.0147 0.53926 0.93485 0.0
C2461 C 0.98009 0.5458 0.91106 0.0
C2462 C 0.02773 0.53733 0.95705 0.0
C2463 C 0.02043 0.53881 0.98012 0.0
C2464 C 0.99393 0.54318 0.93517 0.0
C2465 C 0.99937 0.54236 0.97973 0.0
C2466 C 0.96166 0.55565 0.91099 0.0
C2467 C 0.9748 0.54144 0.86575 0.0
N2468 N 0.98699 0.54461 0.95777 0.0
N2469 N 0.98582 0.53904 0.88825 0.0
H2470 H 0.32551 0.23574 0.61357 0.0
H2471 H 0.25593 0.24375 0.72286 0.0
H2472 H 0.25866 0.19603 0.60109 0.0
H2473 H 0.32542 0.26677 0.73626 0.0
H2474 H 0.25547 0.22991 0.67754 0.0
H2475 H 0.32445 0.25136 0.65772 0.0
C2476 C 0.31052 0.23039 0.62001 0.0
C2477 C 0.29215 0.21439 0.60344 0.0
C2478 C 0.27078 0.23801 0.69045 0.0
C2479 C 0.2909 0.23234 0.6544 0.0
C2480 C 0.27107 0.24597 0.71632 0.0
C2481 C 0.29075 0.25638 0.73349 0.0
C2482 C 0.29029 0.24075 0.68165 0.0
C2483 C 0.30985 0.25874 0.72385 0.0
C2484 C 0.30997 0.23928 0.64535 0.0
C2485 C 0.27324 0.20823 0.61312 0.0
N2486 N 0.30912 0.25106 0.69867 0.0
N2487 N 0.2731 0.21719 0.63795 0.0
H2488 H 0.6256 0.57515 0.26444 0.0
H2489 H 0.5693 0.48955 0.12706 0.0
H2490 H 0.61132 0.49423 0.24852 0.0
H2491 H 0.58027 0.57024 0.14649 0.0
H2492 H 0.58524 0.49036 0.17094 0.0
H2493 H 0.60994 0.57328 0.22055 0.0
C2494 C 0.61922 0.55697 0.2517 0.0
C2495 C 0.61975 0.53482 0.26021 0.0
C2496 C 0.58408 0.50785 0.16552 0.0
C2497 C 0.60168 0.5325 0.20979 0.0
C2498 C 0.57497 0.50739 0.14051 0.0
C2499 C 0.5734 0.52985 0.13304 0.0
C2500 C 0.59172 0.53092 0.1831 0.0
C2501 C 0.58108 0.55242 0.15128 0.0
C2502 C 0.61022 0.5559 0.22661 0.0
C2503 C 0.61123 0.51179 0.24279 0.0
N2504 N 0.5899 0.55236 0.17536 0.0
N2505 N 0.60252 0.51122 0.2184 0.0
H2506 H 0.30151 0.83023 0.96958 0.0
H2507 H 0.25981 0.81791 0.82245 0.0
H2508 H 0.24905 0.86192 0.94298 0.0
H2509 H 0.28949 0.76431 0.85293 0.0
H2510 H 0.25937 0.83902 0.86586 0.0
H2511 H 0.30136 0.81092 0.926 0.0
C2512 C 0.28999 0.83323 0.95456 0.0
C2513 C 0.27521 0.84766 0.95995 0.0
C2514 C 0.26588 0.82258 0.86293 0.0
C2515 C 0.27504 0.82559 0.90992 0.0
C2516 C 0.2662 0.81064 0.83829 0.0
C2517 C 0.27471 0.78942 0.83429 0.0
C2518 C 0.27444 0.81336 0.88348 0.0
C2519 C 0.28273 0.78059 0.85527 0.0
C2520 C 0.28986 0.82208 0.92969 0.0
C2521 C 0.26062 0.8508 0.93965 0.0
N2522 N 0.28254 0.7927 0.87898 0.0
N2523 N 0.26095 0.83991 0.91543 0.0
H2524 H 0.93047 0.54959 0.69905 0.0
H2525 H 0.03874 0.53827 0.64354 0.0
H2526 H 0.99214 0.55166 0.7434 0.0
H2527 H 0.98041 0.53971 0.59451 0.0
H2528 H 0.02043 0.54171 0.67938 0.0
H2529 H 0.94646 0.54462 0.66044 0.0
C2530 C 0.94724 0.54891 0.70086 0.0
C2531 C 0.95975 0.55115 0.72508 0.0
C2532 C 0.01144 0.54122 0.66085 0.0
C2533 C 0.9784 0.54541 0.6804 0.0
C2534 C 0.02201 0.53918 0.64008 0.0
C2535 C 1.01138 0.53857 0.6154 0.0
C2536 C 0.9897 0.54273 0.65761 0.0
C2537 C 0.98951 0.53997 0.61289 0.0
C2538 C 0.95644 0.54612 0.67867 0.0
C2539 C 0.98153 0.55016 0.72561 0.0
N2540 N 0.97952 0.54198 0.63351 0.0
N2541 N 0.98991 0.54741 0.70404 0.0
H2542 H 0.29747 0.26065 0.50155 0.0
H2543 H 0.2707 0.24447 0.35361 0.0
H2544 H 0.25169 0.19558 0.45395 0.0
H2545 H 0.29398 0.31722 0.40409 0.0
H2546 H 0.2626 0.22618 0.38963 0.0
H2547 H 0.29532 0.28216 0.46639 0.0
C2548 C 0.28653 0.25113 0.48385 0.0
C2549 C 0.27469 0.22632 0.4807 0.0
C2550 C 0.26914 0.24621 0.39275 0.0
C2551 C 0.27275 0.2505 0.43998 0.0
C2552 C 0.27375 0.25667 0.37218 0.0
C2553 C 0.2831 0.28241 0.37584 0.0
C2554 C 0.27431 0.26152 0.41725 0.0
C2555 C 0.28689 0.29727 0.40039 0.0
C2556 C 0.28537 0.26338 0.46373 0.0
C2557 C 0.26093 0.21479 0.45727 0.0
N2558 N 0.2828 0.28657 0.42018 0.0
N2559 N 0.26068 0.22677 0.43763 0.0
H2560 H 0.39712 0.68505 0.491 0.0
H2561 H 0.45978 0.60029 0.55897 0.0
H2562 H 0.40468 0.68407 0.5703 0.0
H2563 H 0.44461 0.59195 0.47797 0.0
H2564 H 0.45009 0.64052 0.56445 0.0
H2565 H 0.42535 0.66191 0.48748 0.0
C2566 C 0.40549 0.68096 0.50788 0.0
C2567 C 0.39866 0.68608 0.53091 0.0
C2568 C 0.449 0.63005 0.54544 0.0
C2569 C 0.43008 0.65922 0.52698 0.0
C2570 C 0.4543 0.60698 0.54232 0.0
C2571 C 0.45214 0.59247 0.51798 0.0
C2572 C 0.44107 0.63848 0.52406 0.0
C2573 C 0.44595 0.60241 0.49704 0.0
C2574 C 0.42137 0.66753 0.50583 0.0
C2575 C 0.40958 0.68021 0.55222 0.0
N2576 N 0.44015 0.62466 0.50053 0.0
N2577 N 0.42453 0.66665 0.54965 0.0
H2578 H 0.8814 0.96434 0.55244 0.0
H2579 H 1.00323 0.02302 0.61544 0.0
H2580 H 0.90964 0.94399 0.61997 0.0
H2581 H 0.98461 0.99994 0.53418 0.0
H2582 H 0.96773 0.99934 0.61916 0.0
H2583 H 0.91784 0.98272 0.54652 0.0
C2584 C 0.89526 0.96364 0.56593 0.0
C2585 C 0.89251 0.95263 0.58673 0.0
C2586 C 0.9715 0.99933 0.60054 0.0
C2587 C 0.93403 0.97406 0.58038 0.0
C2588 C 0.99167 1.01286 0.5984 0.0
C2589 C 0.99678 1.01338 0.57449 0.0
C2590 C 0.95611 0.98689 0.57857 0.0
C2591 C 0.98127 0.9999 0.55297 0.0
C2592 C 0.91599 0.97403 0.56249 0.0
C2593 C 0.91103 0.9522 0.60363 0.0
N2594 N 0.96146 0.9875 0.55549 0.0
N2595 N 0.93099 0.96312 0.60032 0.0
H2596 H 0.8927 0.06184 0.24864 0.0
H2597 H 0.79922 0.12382 0.29083 0.0
H2598 H 0.86953 0.05791 0.31816 0.0
H2599 H 0.82219 0.13041 0.22175 0.0
H2600 H 0.82183 0.09484 0.29808 0.0
H2601 H 0.86402 0.08217 0.2354 0.0
C2602 C 0.88146 0.06496 0.26098 0.0
C2603 C 0.88372 0.05848 0.28471 0.0
C2604 C 0.82184 0.10241 0.2812 0.0
C2605 C 0.85099 0.08171 0.26973 0.0
C2606 C 0.80897 0.119 0.27711 0.0
C2607 C 0.80907 0.12973 0.25584 0.0
C2608 C 0.83511 0.09664 0.26402 0.0
C2609 C 0.82167 0.12252 0.2384 0.0
C2610 C 0.86512 0.07661 0.25343 0.0
C2611 C 0.86864 0.06291 0.29987 0.0
N2612 N 0.83442 0.10664 0.24303 0.0
N2613 N 0.85307 0.07439 0.2922 0.0
H2614 H 0.78197 0.11292 0.02504 0.0
H2615 H 0.69041 0.12386 0.10676 0.0
H2616 H 0.77687 0.18236 0.07045 0.0
H2617 H 0.69386 0.05433 0.06002 0.0
H2618 H 0.72324 0.14503 0.09531 0.0
H2619 H 0.7505 0.09077 0.03862 0.0
C2620 C 0.7742 0.12353 0.0378 0.0
C2621 C 0.78201 0.14956 0.04655 0.0
C2622 C 0.7169 0.12512 0.08762 0.0
C2623 C 0.74607 0.12428 0.06227 0.0
C2624 C 0.69824 0.11293 0.09436 0.0
C2625 C 0.68936 0.08723 0.08438 0.0
C2626 C 0.7268 0.11157 0.0707 0.0
C2627 C 0.7 0.07422 0.06794 0.0
C2628 C 0.75626 0.11085 0.04559 0.0
C2629 C 0.77135 0.16231 0.06315 0.0
N2630 N 0.71815 0.08655 0.06156 0.0
N2631 N 0.75393 0.14954 0.07046 0.0
H2632 H 0.18772 0.43719 0.29382 0.0
H2633 H 0.29213 0.38431 0.33855 0.0
H2634 H 0.24164 0.47925 0.35262 0.0
H2635 H 0.23217 0.3348 0.29651 0.0
H2636 H 0.27499 0.41976 0.34002 0.0
H2637 H 0.20452 0.40098 0.29031 0.0
C2638 C 0.20322 0.43914 0.30571 0.0
C2639 C 0.21312 0.46191 0.32346 0.0
C2640 C 0.26547 0.4012 0.33043 0.0
C2641 C 0.23274 0.41972 0.31957 0.0
C2642 C 0.27534 0.38071 0.32955 0.0
C2643 C 0.26383 0.35599 0.31743 0.0
C2644 C 0.2437 0.39763 0.31876 0.0
C2645 C 0.24195 0.3532 0.30621 0.0
C2646 C 0.21278 0.4182 0.30386 0.0
C2647 C 0.23316 0.4625 0.33854 0.0
N2648 N 0.23279 0.37352 0.30702 0.0
N2649 N 0.24214 0.44213 0.33619 0.0
H2650 H 0.2641 0.43919 0.02835 0.0
H2651 H 0.1789 0.49108 0.10216 0.0
H2652 H 0.26541 0.4416 0.10782 0.0
H2653 H 0.17244 0.47708 0.02093 0.0
H2654 H 0.21072 0.47351 0.10491 0.0
H2655 H 0.23061 0.45323 0.02547 0.0
C2656 C 0.2573 0.44254 0.0452 0.0
C2657 C 0.26769 0.43924 0.06839 0.0
C2658 C 0.20226 0.47414 0.08648 0.0
C2659 C 0.22925 0.45559 0.06524 0.0
C2660 C 0.18414 0.48429 0.0849 0.0
C2661 C 0.17291 0.4856 0.06127 0.0
C2662 C 0.20941 0.46542 0.0643 0.0
C2663 C 0.18037 0.47622 0.03954 0.0
C2664 C 0.23813 0.45057 0.04353 0.0
C2665 C 0.25801 0.44386 0.08954 0.0
N2666 N 0.19817 0.46671 0.0416 0.0
N2667 N 0.23944 0.45195 0.0875 0.0
H2668 H 0.91178 0.95568 0.34571 0.0
H2669 H 0.80903 0.85207 0.26505 0.0
H2670 H 0.88984 0.95137 0.26628 0.0
H2671 H 0.84361 0.84702 0.33703 0.0
H2672 H 0.83813 0.88798 0.26424 0.0
H2673 H 0.88706 0.91529 0.34214 0.0
C2674 C 0.9019 0.94601 0.32739 0.0
C2675 C 0.90281 0.9569 0.30627 0.0
C2676 C 0.83944 0.87879 0.28004 0.0
C2677 C 0.874 0.91072 0.30211 0.0
C2678 C 0.82283 0.85841 0.28056 0.0
C2679 C 0.82394 0.84664 0.30116 0.0
C2680 C 0.85709 0.88759 0.30045 0.0
C2681 C 0.84215 0.85547 0.32072 0.0
C2682 C 0.88777 0.92292 0.32535 0.0
C2683 C 0.88969 0.94352 0.28298 0.0
N2684 N 0.85788 0.87551 0.31999 0.0
N2685 N 0.87554 0.92126 0.28159 0.0
H2686 H 0.74385 0.08535 0.84131 0.0
H2687 H 0.73779 0.22491 0.84294 0.0
H2688 H 0.68105 0.09991 0.82346 0.0
H2689 H 0.77693 0.19324 0.79527 0.0
H2690 H 0.72057 0.18223 0.84675 0.0
H2691 H 0.76028 0.1273 0.83498 0.0
C2692 C 0.73348 0.09729 0.836 0.0
C2693 C 0.71093 0.08874 0.83265 0.0
C2694 C 0.73294 0.18466 0.83547 0.0
C2695 C 0.72985 0.1375 0.82639 0.0
C2696 C 0.74285 0.20905 0.83334 0.0
C2697 C 0.75883 0.21288 0.81861 0.0
C2698 C 0.73955 0.16377 0.82364 0.0
C2699 C 0.76462 0.19135 0.80665 0.0
C2700 C 0.7429 0.12126 0.83238 0.0
C2701 C 0.69844 0.10539 0.82594 0.0
N2702 N 0.75529 0.16793 0.80972 0.0
N2703 N 0.70802 0.12895 0.82346 0.0
loop_
_geom_bond_atom_site_label_1
_geom_bond_atom_site_label_2
_geom_bond_distance
_geom_bond_site_symmetry_2
_ccdc_geom_bond_type
Mg0 O1 2.027 1_655 S
Mg0 O7 1.982 1_655 S
Mg0 O9 2.124 . S
Mg0 O10 2.270 . S
Mg0 O13 1.993 1_655 S
O1 Mg0 2.027 1_455 S
O1 C4 1.250 . S
O2 Mg3 2.028 . S
O2 C4 1.248 1_655 S
Mg3 O2 2.028 . S
Mg3 O8 2.032 . S
Mg3 O10 2.079 . S
C4 O1 1.250 . S
C4 O2 1.248 1_455 S
C5 O6 1.264 . S
C5 O13 1.249 . S
O6 C5 1.264 . S
O7 Mg0 1.982 1_455 S
O7 C11 1.246 1_455 S
O8 Mg3 2.032 . S
O8 C11 1.259 . S
O9 Mg0 2.124 . S
O9 C12 1.252 . S
O10 Mg0 2.270 . S
O10 Mg3 2.079 . S
O10 C12 1.273 . S
C11 O7 1.246 1_655 S
C11 O8 1.259 . S
C12 O9 1.252 . S
C12 O10 1.273 . S
O13 Mg0 1.993 1_455 S
O13 C5 1.249 . S
Mg14 O15 2.028 . S
Mg14 O21 1.986 . S
Mg14 O23 2.114 . S
Mg14 O24 2.251 . S
Mg14 O27 2.010 . S
O15 Mg14 2.028 . S
O15 C18 1.250 . S
O16 Mg17 2.028 . S
O16 C18 1.248 . S
Mg17 O16 2.028 . S
Mg17 O22 2.032 . S
Mg17 O24 2.079 . S
C18 O15 1.250 . S
C18 O16 1.248 . S
C19 O20 1.264 . S
C19 O27 1.249 . S
O20 C19 1.264 . S
O21 Mg14 1.986 . S
O21 C25 1.246 . S
O22 Mg17 2.032 . S
O22 C25 1.259 . S
O23 Mg14 2.114 . S
O23 C26 1.252 . S
O24 Mg14 2.251 . S
O24 Mg17 2.079 . S
O24 C26 1.273 . S
C25 O21 1.246 . S
C25 O22 1.259 . S
C26 O23 1.252 . S
C26 O24 1.273 . S
O27 Mg14 2.010 . S
O27 C19 1.249 . S
Mg28 O29 2.028 . S
Mg28 O35 1.986 . S
Mg28 O37 2.114 . S
Mg28 O38 2.251 . S
Mg28 O41 2.010 . S
O29 Mg28 2.028 . S
O29 C32 1.250 . S
O30 Mg31 2.028 . S
O30 C32 1.248 . S
Mg31 O30 2.028 . S
Mg31 O36 2.032 . S
Mg31 O38 2.079 . S
C32 O29 1.250 . S
C32 O30 1.248 . S
C33 O34 1.264 . S
C33 O41 1.249 . S
O34 C33 1.264 . S
O35 Mg28 1.986 . S
O35 C39 1.246 . S
O36 Mg31 2.032 . S
O36 C39 1.259 . S
O37 Mg28 2.114 . S
O37 C40 1.252 . S
O38 Mg28 2.251 . S
O38 Mg31 2.079 . S
O38 C40 1.273 . S
C39 O35 1.246 . S
C39 O36 1.259 . S
C40 O37 1.252 . S
C40 O38 1.273 . S
O41 Mg28 2.010 . S
O41 C33 1.249 . S
Mg42 O43 2.028 . S
Mg42 O49 1.986 . S
Mg42 O51 2.114 . S
Mg42 O52 2.251 . S
Mg42 O55 2.010 . S
O43 Mg42 2.028 . S
O43 C46 1.250 . S
O44 Mg45 2.028 . S
O44 C46 1.248 . S
Mg45 O44 2.028 . S
Mg45 O50 2.032 . S
Mg45 O52 2.079 . S
C46 O43 1.250 . S
C46 O44 1.248 . S
C47 O48 1.264 . S
C47 O55 1.249 . S
O48 C47 1.264 . S
O49 Mg42 1.986 . S
O49 C53 1.246 . S
O50 Mg45 2.032 . S
O50 C53 1.259 . S
O51 Mg42 2.114 . S
O51 C54 1.252 . S
O52 Mg42 2.251 . S
O52 Mg45 2.079 . S
O52 C54 1.273 . S
C53 O49 1.246 . S
C53 O50 1.259 . S
C54 O51 1.252 . S
C54 O52 1.273 . S
O55 Mg42 2.010 . S
O55 C47 1.249 . S
Mg56 O57 2.028 . S
Mg56 O63 1.986 . S
Mg56 O65 2.114 . S
Mg56 O66 2.251 . S
Mg56 O69 2.010 . S
O57 Mg56 2.028 . S
O57 C60 1.250 . S
O58 Mg59 2.028 . S
O58 C60 1.248 . S
Mg59 O58 2.028 . S
Mg59 O64 2.032 . S
Mg59 O66 2.079 . S
C60 O57 1.250 . S
C60 O58 1.248 . S
C61 O62 1.264 . S
C61 O69 1.249 . S
O62 C61 1.264 . S
O63 Mg56 1.986 . S
O63 C67 1.246 . S
O64 Mg59 2.032 . S
O64 C67 1.259 . S
O65 Mg56 2.114 . S
O65 C68 1.252 . S
O66 Mg56 2.251 . S
O66 Mg59 2.079 . S
O66 C68 1.273 . S
C67 O63 1.246 . S
C67 O64 1.259 . S
C68 O65 1.252 . S
C68 O66 1.273 . S
O69 Mg56 2.010 . S
O69 C61 1.249 . S
Mg70 O71 2.028 . S
Mg70 O77 1.986 . S
Mg70 O79 2.114 . S
Mg70 O80 2.251 . S
Mg70 O83 2.010 . S
O71 Mg70 2.028 . S
O71 C74 1.250 . S
O72 Mg73 2.028 . S
O72 C74 1.248 . S
Mg73 O72 2.028 . S
Mg73 O78 2.032 . S
Mg73 O80 2.079 . S
C74 O71 1.250 . S
C74 O72 1.248 . S
C75 O76 1.264 . S
C75 O83 1.249 . S
O76 C75 1.264 . S
O77 Mg70 1.986 . S
O77 C81 1.246 . S
O78 Mg73 2.032 . S
O78 C81 1.259 . S
O79 Mg70 2.114 . S
O79 C82 1.252 . S
O80 Mg70 2.251 . S
O80 Mg73 2.079 . S
O80 C82 1.273 . S
C81 O77 1.246 . S
C81 O78 1.259 . S
C82 O79 1.252 . S
C82 O80 1.273 . S
O83 Mg70 2.010 . S
O83 C75 1.249 . S
Mg84 O85 2.028 . S
Mg84 O91 1.986 . S
Mg84 O93 2.114 . S
Mg84 O94 2.251 . S
Mg84 O97 2.010 . S
O85 Mg84 2.028 . S
O85 C88 1.250 . S
O86 Mg87 2.028 . S
O86 C88 1.248 . S
Mg87 O86 2.028 . S
Mg87 O92 2.032 . S
Mg87 O94 2.079 . S
C88 O85 1.250 . S
C88 O86 1.248 . S
C89 O90 1.264 . S
C89 O97 1.249 . S
O90 C89 1.264 . S
O91 Mg84 1.986 . S
O91 C95 1.246 . S
O92 Mg87 2.032 . S
O92 C95 1.259 . S
O93 Mg84 2.114 . S
O93 C96 1.252 . S
O94 Mg84 2.251 . S
O94 Mg87 2.079 . S
O94 C96 1.273 . S
C95 O91 1.246 . S
C95 O92 1.259 . S
C96 O93 1.252 . S
C96 O94 1.273 . S
O97 Mg84 2.010 . S
O97 C89 1.249 . S
Mg98 O99 2.028 . S
Mg98 O105 1.986 . S
Mg98 O107 2.114 1_455 S
Mg98 O108 2.251 1_455 S
Mg98 O111 2.010 . S
O99 Mg98 2.028 . S
O99 C102 1.250 . S
O100 Mg101 2.028 . S
O100 C102 1.248 1_655 S
Mg101 O100 2.028 . S
Mg101 O106 2.032 . S
Mg101 O108 2.079 . S
C102 O99 1.250 . S
C102 O100 1.248 1_455 S
C103 O104 1.264 . S
C103 O111 1.249 . S
O104 C103 1.264 . S
O105 Mg98 1.986 . S
O105 C109 1.246 . S
O106 Mg101 2.032 . S
O106 C109 1.259 1_655 S
O107 Mg98 2.114 1_655 S
O107 C110 1.252 . S
O108 Mg98 2.251 1_655 S
O108 Mg101 2.079 . S
O108 C110 1.273 . S
C109 O105 1.246 . S
C109 O106 1.259 1_455 S
C110 O107 1.252 . S
C110 O108 1.273 . S
O111 Mg98 2.010 . S
O111 C103 1.249 . S
Mg112 O113 2.027 . S
Mg112 O119 1.986 . S
Mg112 O121 2.114 . S
Mg112 O122 2.251 . S
Mg112 O125 2.010 . S
O113 Mg112 2.027 . S
O113 C116 1.251 1_545 S
O114 Mg115 2.028 1_565 S
O114 C116 1.248 . S
Mg115 O114 2.028 1_545 S
Mg115 O120 2.032 . S
Mg115 O122 2.079 . S
C116 O113 1.251 1_565 S
C116 O114 1.248 . S
C117 O118 1.264 . S
C117 O125 1.249 . S
O118 C117 1.264 . S
O119 Mg112 1.986 . S
O119 C123 1.246 . S
O120 Mg115 2.032 . S
O120 C123 1.259 . S
O121 Mg112 2.114 . S
O121 C124 1.252 . S
O122 Mg112 2.251 . S
O122 Mg115 2.079 . S
O122 C124 1.273 . S
C123 O119 1.246 . S
C123 O120 1.259 . S
C124 O121 1.252 . S
C124 O122 1.273 . S
O125 Mg112 2.010 . S
O125 C117 1.249 . S
Mg126 O127 2.028 . S
Mg126 O133 1.986 . S
Mg126 O135 2.114 . S
Mg126 O136 2.251 . S
Mg126 O139 2.010 . S
O127 Mg126 2.028 . S
O127 C130 1.250 . S
O128 Mg129 2.028 . S
O128 C130 1.248 . S
Mg129 O128 2.028 . S
Mg129 O134 2.032 . S
Mg129 O136 2.079 . S
C130 O127 1.250 . S
C130 O128 1.248 . S
C131 O132 1.264 . S
C131 O139 1.249 . S
O132 C131 1.264 . S
O133 Mg126 1.986 . S
O133 C137 1.246 . S
O134 Mg129 2.032 . S
O134 C137 1.259 . S
O135 Mg126 2.114 . S
O135 C138 1.252 . S
O136 Mg126 2.251 . S
O136 Mg129 2.079 . S
O136 C138 1.273 . S
C137 O133 1.246 . S
C137 O134 1.259 . S
C138 O135 1.252 . S
C138 O136 1.273 . S
O139 Mg126 2.010 . S
O139 C131 1.249 . S
Mg140 O141 2.028 . S
Mg140 O147 1.986 . S
Mg140 O149 2.114 . S
Mg140 O150 2.251 . S
Mg140 O153 2.010 . S
O141 Mg140 2.028 . S
O141 C144 1.250 . S
O142 Mg143 2.028 . S
O142 C144 1.248 . S
Mg143 O142 2.028 . S
Mg143 O148 2.032 . S
Mg143 O150 2.079 . S
C144 O141 1.250 . S
C144 O142 1.248 . S
C145 O146 1.264 . S
C145 O153 1.249 . S
O146 C145 1.264 . S
O147 Mg140 1.986 . S
O147 C151 1.246 . S
O148 Mg143 2.032 . S
O148 C151 1.259 . S
O149 Mg140 2.114 . S
O149 C152 1.252 . S
O150 Mg140 2.251 . S
O150 Mg143 2.079 . S
O150 C152 1.273 . S
C151 O147 1.246 . S
C151 O148 1.259 . S
C152 O149 1.252 . S
C152 O150 1.273 . S
O153 Mg140 2.010 . S
O153 C145 1.249 . S
Mg154 O155 2.028 1_554 S
Mg154 O161 1.986 . S
Mg154 O163 2.090 1_554 S
Mg154 O164 2.251 . S
Mg154 O167 2.010 . S
O155 Mg154 2.028 1_556 S
O155 C158 1.250 . S
O156 Mg157 2.028 1_556 S
O156 C158 1.248 . S
Mg157 O156 2.028 1_554 S
Mg157 O162 2.032 . S
Mg157 O164 2.079 . S
C158 O155 1.250 . S
C158 O156 1.248 . S
C159 O160 1.264 . S
C159 O167 1.249 . S
O160 C159 1.264 . S
O161 Mg154 1.986 . S
O161 C165 1.246 . S
O162 Mg157 2.032 . S
O162 C165 1.259 . S
O163 Mg154 2.090 1_556 S
O163 C166 1.243 1_556 S
O164 Mg154 2.251 . S
O164 Mg157 2.079 . S
O164 C166 1.273 . S
C165 O161 1.246 . S
C165 O162 1.259 . S
C166 O163 1.243 1_554 S
C166 O164 1.273 . S
O167 Mg154 2.010 . S
O167 C159 1.249 . S
Mg168 O169 2.028 . S
Mg168 O175 1.986 . S
Mg168 O177 2.114 . S
Mg168 O178 2.251 . S
Mg168 O181 2.010 . S
O169 Mg168 2.028 . S
O169 C172 1.250 . S
O170 Mg171 2.028 . S
O170 C172 1.248 . S
Mg171 O170 2.028 . S
Mg171 O176 2.032 . S
Mg171 O178 2.079 . S
C172 O169 1.250 . S
C172 O170 1.248 . S
C173 O174 1.264 . S
C173 O181 1.249 . S
O174 C173 1.264 . S
O175 Mg168 1.986 . S
O175 C179 1.246 . S
O176 Mg171 2.032 . S
O176 C179 1.259 . S
O177 Mg168 2.114 . S
O177 C180 1.252 . S
O178 Mg168 2.251 . S
O178 Mg171 2.079 . S
O178 C180 1.273 . S
C179 O175 1.246 . S
C179 O176 1.259 . S
C180 O177 1.252 . S
C180 O178 1.273 . S
O181 Mg168 2.010 . S
O181 C173 1.249 . S
Mg182 O183 2.028 . S
Mg182 O189 1.986 . S
Mg182 O191 2.114 . S
Mg182 O192 2.251 . S
Mg182 O195 2.010 . S
O183 Mg182 2.028 . S
O183 C186 1.250 . S
O184 Mg185 2.028 . S
O184 C186 1.248 . S
Mg185 O184 2.028 . S
Mg185 O190 2.032 . S
Mg185 O192 2.079 . S
C186 O183 1.250 . S
C186 O184 1.248 . S
C187 O188 1.264 . S
C187 O195 1.249 . S
O188 C187 1.264 . S
O189 Mg182 1.986 . S
O189 C193 1.246 . S
O190 Mg185 2.032 . S
O190 C193 1.259 . S
O191 Mg182 2.114 . S
O191 C194 1.252 . S
O192 Mg182 2.251 . S
O192 Mg185 2.079 . S
O192 C194 1.273 . S
C193 O189 1.246 . S
C193 O190 1.259 . S
C194 O191 1.252 . S
C194 O192 1.273 . S
O195 Mg182 2.010 . S
O195 C187 1.249 . S
Mg196 O197 2.028 . S
Mg196 O203 1.986 . S
Mg196 O205 2.114 . S
Mg196 O206 2.251 . S
Mg196 O209 2.010 . S
O197 Mg196 2.028 . S
O197 C200 1.250 . S
O198 Mg199 2.028 . S
O198 C200 1.248 . S
Mg199 O198 2.028 . S
Mg199 O204 2.032 . S
Mg199 O206 2.079 . S
C200 O197 1.250 . S
C200 O198 1.248 . S
C201 O202 1.264 . S
C201 O209 1.249 . S
O202 C201 1.264 . S
O203 Mg196 1.986 . S
O203 C207 1.246 . S
O204 Mg199 2.032 . S
O204 C207 1.259 . S
O205 Mg196 2.114 . S
O205 C208 1.252 . S
O206 Mg196 2.251 . S
O206 Mg199 2.079 . S
O206 C208 1.273 . S
C207 O203 1.246 . S
C207 O204 1.259 . S
C208 O205 1.252 . S
C208 O206 1.273 . S
O209 Mg196 2.010 . S
O209 C201 1.249 . S
Mg210 O211 2.028 . S
Mg210 O217 1.986 . S
Mg210 O219 2.114 . S
Mg210 O220 2.251 . S
Mg210 O223 2.010 . S
O211 Mg210 2.028 . S
O211 C214 1.250 . S
O212 Mg213 2.028 . S
O212 C214 1.248 . S
Mg213 O212 2.028 . S
Mg213 O218 2.032 . S
Mg213 O220 2.079 . S
C214 O211 1.250 . S
C214 O212 1.248 . S
C215 O216 1.264 . S
C215 O223 1.249 . S
O216 C215 1.264 . S
O217 Mg210 1.986 . S
O217 C221 1.246 . S
O218 Mg213 2.032 . S
O218 C221 1.259 . S
O219 Mg210 2.114 . S
O219 C222 1.252 . S
O220 Mg210 2.251 . S
O220 Mg213 2.079 . S
O220 C222 1.273 . S
C221 O217 1.246 . S
C221 O218 1.259 . S
C222 O219 1.252 . S
C222 O220 1.273 . S
O223 Mg210 2.010 . S
O223 C215 1.249 . S
Mg224 O225 2.028 1_545 S
Mg224 O231 1.986 . S
Mg224 O233 2.109 1_545 S
Mg224 O234 2.251 . S
Mg224 O237 2.010 . S
O225 Mg224 2.028 1_565 S
O225 C228 1.250 . S
O226 Mg227 2.028 1_565 S
O226 C228 1.248 . S
Mg227 O226 2.028 1_545 S
Mg227 O232 2.032 . S
Mg227 O234 2.079 . S
C228 O225 1.250 . S
C228 O226 1.248 . S
C229 O230 1.264 . S
C229 O237 1.249 . S
O230 C229 1.264 . S
O231 Mg224 1.986 . S
O231 C235 1.246 . S
O232 Mg227 2.032 . S
O232 C235 1.259 . S
O233 Mg224 2.109 1_565 S
O233 C236 1.250 1_565 S
O234 Mg224 2.251 . S
O234 Mg227 2.079 . S
O234 C236 1.273 . S
C235 O231 1.246 . S
C235 O232 1.259 . S
C236 O233 1.250 1_545 S
C236 O234 1.273 . S
O237 Mg224 2.010 . S
O237 C229 1.249 . S
Mg238 O239 2.028 . S
Mg238 O245 1.986 . S
Mg238 O247 2.114 . S
Mg238 O248 2.251 . S
Mg238 O251 2.010 . S
O239 Mg238 2.028 . S
O239 C242 1.250 . S
O240 Mg241 2.028 . S
O240 C242 1.248 . S
Mg241 O240 2.028 . S
Mg241 O246 2.032 . S
Mg241 O248 2.079 . S
C242 O239 1.250 . S
C242 O240 1.248 . S
C243 O244 1.264 . S
C243 O251 1.249 . S
O244 C243 1.264 . S
O245 Mg238 1.986 . S
O245 C249 1.246 . S
O246 Mg241 2.032 . S
O246 C249 1.259 . S
O247 Mg238 2.114 . S
O247 C250 1.252 . S
O248 Mg238 2.251 . S
O248 Mg241 2.079 . S
O248 C250 1.273 . S
C249 O245 1.246 . S
C249 O246 1.259 . S
C250 O247 1.252 . S
C250 O248 1.273 . S
O251 Mg238 2.010 . S
O251 C243 1.249 . S
Mg252 O253 2.028 . S
Mg252 O259 1.986 . S
Mg252 O261 2.114 . S
Mg252 O262 2.251 . S
Mg252 O265 2.010 . S
O253 Mg252 2.028 . S
O253 C256 1.250 . S
O254 Mg255 2.028 . S
O254 C256 1.248 . S
Mg255 O254 2.028 . S
Mg255 O260 2.032 . S
Mg255 O262 2.079 . S
C256 O253 1.250 . S
C256 O254 1.248 . S
C257 O258 1.264 . S
C257 O265 1.249 . S
O258 C257 1.264 . S
O259 Mg252 1.986 . S
O259 C263 1.246 . S
O260 Mg255 2.032 . S
O260 C263 1.259 . S
O261 Mg252 2.114 . S
O261 C264 1.252 . S
O262 Mg252 2.251 . S
O262 Mg255 2.079 . S
O262 C264 1.273 . S
C263 O259 1.246 . S
C263 O260 1.259 . S
C264 O261 1.252 . S
C264 O262 1.273 . S
O265 Mg252 2.010 . S
O265 C257 1.249 . S
Mg266 O267 2.028 . S
Mg266 O273 1.986 1_545 S
Mg266 O275 2.114 . S
Mg266 O276 2.251 . S
Mg266 O279 2.010 . S
O267 Mg266 2.028 . S
O267 C270 1.250 . S
O268 Mg269 2.028 . S
O268 C270 1.248 . S
Mg269 O268 2.028 . S
Mg269 O274 2.032 . S
Mg269 O276 2.079 . S
C270 O267 1.250 . S
C270 O268 1.248 . S
C271 O272 1.264 1_545 S
C271 O279 1.249 . S
O272 C271 1.264 1_565 S
O273 Mg266 1.986 1_565 S
O273 C277 1.246 . S
O274 Mg269 2.032 . S
O274 C277 1.259 1_545 S
O275 Mg266 2.114 . S
O275 C278 1.252 . S
O276 Mg266 2.251 . S
O276 Mg269 2.079 . S
O276 C278 1.273 . S
C277 O273 1.246 . S
C277 O274 1.259 1_565 S
C278 O275 1.252 . S
C278 O276 1.273 . S
O279 Mg266 2.010 . S
O279 C271 1.249 . S
Mg280 O281 2.028 . S
Mg280 O287 1.986 . S
Mg280 O289 2.114 . S
Mg280 O290 2.251 . S
Mg280 O293 2.010 . S
O281 Mg280 2.028 . S
O281 C284 1.250 . S
O282 Mg283 2.028 . S
O282 C284 1.248 . S
Mg283 O282 2.028 . S
Mg283 O288 2.032 . S
Mg283 O290 2.079 . S
C284 O281 1.250 . S
C284 O282 1.248 . S
C285 O286 1.264 . S
C285 O293 1.249 . S
O286 C285 1.264 . S
O287 Mg280 1.986 . S
O287 C291 1.246 . S
O288 Mg283 2.032 . S
O288 C291 1.259 . S
O289 Mg280 2.114 . S
O289 C292 1.252 . S
O290 Mg280 2.251 . S
O290 Mg283 2.079 . S
O290 C292 1.273 . S
C291 O287 1.246 . S
C291 O288 1.259 . S
C292 O289 1.252 . S
C292 O290 1.273 . S
O293 Mg280 2.010 . S
O293 C285 1.249 . S
Mg294 O295 2.028 . S
Mg294 O301 1.986 . S
Mg294 O303 2.114 . S
Mg294 O304 2.251 . S
Mg294 O307 2.010 . S
O295 Mg294 2.028 . S
O295 C298 1.250 . S
O296 Mg297 2.028 . S
O296 C298 1.248 . S
Mg297 O296 2.028 . S
Mg297 O302 2.032 . S
Mg297 O304 2.079 . S
C298 O295 1.250 . S
C298 O296 1.248 . S
C299 O300 1.264 . S
C299 O307 1.249 . S
O300 C299 1.264 . S
O301 Mg294 1.986 . S
O301 C305 1.246 . S
O302 Mg297 2.032 . S
O302 C305 1.259 . S
O303 Mg294 2.114 . S
O303 C306 1.252 . S
O304 Mg294 2.251 . S
O304 Mg297 2.079 . S
O304 C306 1.273 . S
C305 O301 1.246 . S
C305 O302 1.259 . S
C306 O303 1.252 . S
C306 O304 1.273 . S
O307 Mg294 2.010 . S
O307 C299 1.249 . S
Mg308 O309 2.028 . S
Mg308 O315 1.986 . S
Mg308 O317 2.114 . S
Mg308 O318 2.251 . S
Mg308 O321 2.010 . S
O309 Mg308 2.028 . S
O309 C312 1.250 . S
O310 Mg311 2.028 . S
O310 C312 1.248 . S
Mg311 O310 2.028 . S
Mg311 O316 2.032 . S
Mg311 O318 2.079 . S
C312 O309 1.250 . S
C312 O310 1.248 . S
C313 O314 1.264 . S
C313 O321 1.249 . S
O314 C313 1.264 . S
O315 Mg308 1.986 . S
O315 C319 1.246 . S
O316 Mg311 2.032 . S
O316 C319 1.259 . S
O317 Mg308 2.114 . S
O317 C320 1.252 . S
O318 Mg308 2.251 . S
O318 Mg311 2.079 . S
O318 C320 1.273 . S
C319 O315 1.246 . S
C319 O316 1.259 . S
C320 O317 1.252 . S
C320 O318 1.273 . S
O321 Mg308 2.010 . S
O321 C313 1.249 . S
Mg322 O323 2.028 . S
Mg322 O329 1.986 . S
Mg322 O331 2.114 . S
Mg322 O332 2.251 . S
Mg322 O335 2.010 . S
O323 Mg322 2.028 . S
O323 C326 1.250 . S
O324 Mg325 2.028 . S
O324 C326 1.248 . S
Mg325 O324 2.028 . S
Mg325 O330 2.032 . S
Mg325 O332 2.079 . S
C326 O323 1.250 . S
C326 O324 1.248 . S
C327 O328 1.264 . S
C327 O335 1.249 . S
O328 C327 1.264 . S
O329 Mg322 1.986 . S
O329 C333 1.246 . S
O330 Mg325 2.032 . S
O330 C333 1.259 . S
O331 Mg322 2.114 . S
O331 C334 1.252 . S
O332 Mg322 2.251 . S
O332 Mg325 2.079 . S
O332 C334 1.273 . S
C333 O329 1.246 . S
C333 O330 1.259 . S
C334 O331 1.252 . S
C334 O332 1.273 . S
O335 Mg322 2.010 . S
O335 C327 1.249 . S
Tb336 C338 2.809 . S
Tb336 O356 2.484 . S
Tb336 O357 2.440 1_554 S
Tb336 O358 2.658 1_655 S
Tb336 O359 2.409 1_654 S
Tb336 O360 2.378 1_655 S
Tb336 O364 2.325 1_655 S
Tb336 O367 2.341 1_645 S
Tb337 C347 2.826 . S
Tb337 O358 2.325 . S
Tb337 O361 2.341 . S
Tb337 O362 2.457 1_545 S
Tb337 O363 2.440 . S
Tb337 O364 2.658 . S
Tb337 O365 2.409 . S
Tb337 O366 2.378 1_545 S
C338 Tb336 2.809 . S
C338 C339 1.514 . S
C338 O356 1.248 . S
C338 O357 1.266 1_554 S
C339 C338 1.514 . S
C339 C340 1.359 . S
C339 C344 1.348 1_554 S
C340 C339 1.359 . S
C340 C341 1.380 . S
C340 H368 0.929 . S
C341 C340 1.380 . S
C341 C342 1.347 . S
C341 H369 0.931 . S
C342 C341 1.347 . S
C342 C343 1.369 1_554 S
C343 C342 1.369 1_556 S
C343 C344 1.408 . S
C343 H370 0.930 . S
C344 C339 1.348 1_556 S
C344 C343 1.408 . S
C344 H371 0.930 . S
C345 O358 1.281 1_556 S
C345 O359 1.254 . S
C346 O360 1.236 . S
C346 O361 1.266 . S
C347 Tb337 2.826 . S
C347 C348 1.497 1_545 S
C347 O362 1.264 1_545 S
C347 O363 1.277 . S
C348 C347 1.497 1_565 S
C348 C349 1.359 . S
C348 C353 1.348 . S
C349 C348 1.359 . S
C349 C350 1.380 . S
C349 H372 0.929 . S
C350 C349 1.380 . S
C350 C351 1.347 . S
C350 H373 0.931 . S
C351 C350 1.347 . S
C351 C352 1.369 . S
C352 C351 1.369 . S
C352 C353 1.408 . S
C352 H374 0.930 . S
C353 C348 1.348 . S
C353 C352 1.408 . S
C353 H375 0.930 . S
C354 O364 1.281 . S
C354 O365 1.254 . S
C355 O366 1.236 . S
C355 O367 1.266 . S
O356 Tb336 2.484 . S
O356 C338 1.248 . S
O357 Tb336 2.440 1_556 S
O357 C338 1.266 1_556 S
O358 Tb336 2.658 1_455 S
O358 Tb337 2.325 . S
O358 C345 1.281 1_554 S
O359 Tb336 2.409 1_456 S
O359 C345 1.254 . S
O360 Tb336 2.378 1_455 S
O360 C346 1.236 . S
O361 Tb337 2.341 . S
O361 C346 1.266 . S
O362 Tb337 2.457 1_565 S
O362 C347 1.264 1_565 S
O363 Tb337 2.440 . S
O363 C347 1.277 . S
O364 Tb336 2.325 1_455 S
O364 Tb337 2.658 . S
O364 C354 1.281 . S
O365 Tb337 2.409 . S
O365 C354 1.254 . S
O366 Tb337 2.378 1_565 S
O366 C355 1.236 . S
O367 Tb336 2.341 1_465 S
O367 C355 1.266 . S
H368 C340 0.929 . S
H369 C341 0.931 . S
H370 C343 0.930 . S
H371 C344 0.930 . S
H372 C349 0.929 . S
H373 C350 0.931 . S
H374 C352 0.930 . S
H375 C353 0.930 . S
Tb376 C378 2.809 . S
Tb376 O396 2.484 . S
Tb376 O397 2.440 . S
Tb376 O398 2.658 . S
Tb376 O399 2.409 . S
Tb376 O400 2.378 . S
Tb376 O404 2.325 . S
Tb376 O407 2.341 . S
Tb377 C387 2.809 . S
Tb377 O398 2.325 . S
Tb377 O401 2.341 . S
Tb377 O402 2.484 . S
Tb377 O403 2.440 . S
Tb377 O404 2.658 . S
Tb377 O405 2.409 . S
Tb377 O406 2.378 . S
C378 Tb376 2.809 . S
C378 C379 1.514 . S
C378 O396 1.248 . S
C378 O397 1.266 . S
C379 C378 1.514 . S
C379 C380 1.359 . S
C379 C384 1.348 . S
C380 C379 1.359 . S
C380 C381 1.380 . S
C380 H408 0.929 . S
C381 C380 1.380 . S
C381 C382 1.347 . S
C381 H409 0.931 . S
C382 C381 1.347 . S
C382 C383 1.369 . S
C383 C382 1.369 . S
C383 C384 1.408 . S
C383 H410 0.930 . S
C384 C379 1.348 . S
C384 C383 1.408 . S
C384 H411 0.930 . S
C385 O398 1.281 . S
C385 O399 1.254 . S
C386 O400 1.236 . S
C386 O401 1.266 . S
C387 Tb377 2.809 . S
C387 C388 1.514 . S
C387 O402 1.248 . S
C387 O403 1.266 . S
C388 C387 1.514 . S
C388 C389 1.359 . S
C388 C393 1.348 . S
C389 C388 1.359 . S
C389 C390 1.380 . S
C389 H412 0.929 . S
C390 C389 1.380 . S
C390 C391 1.347 . S
C390 H413 0.931 . S
C391 C390 1.347 . S
C391 C392 1.369 . S
C392 C391 1.369 . S
C392 C393 1.408 . S
C392 H414 0.930 . S
C393 C388 1.348 . S
C393 C392 1.408 . S
C393 H415 0.930 . S
C394 O404 1.281 . S
C394 O405 1.254 . S
C395 O406 1.236 . S
C395 O407 1.266 . S
O396 Tb376 2.484 . S
O396 C378 1.248 . S
O397 Tb376 2.440 . S
O397 C378 1.266 . S
O398 Tb376 2.658 . S
O398 Tb377 2.325 . S
O398 C385 1.281 . S
O399 Tb376 2.409 . S
O399 C385 1.254 . S
O400 Tb376 2.378 . S
O400 C386 1.236 . S
O401 Tb377 2.341 . S
O401 C386 1.266 . S
O402 Tb377 2.484 . S
O402 C387 1.248 . S
O403 Tb377 2.440 . S
O403 C387 1.266 . S
O404 Tb376 2.325 . S
O404 Tb377 2.658 . S
O404 C394 1.281 . S
O405 Tb377 2.409 . S
O405 C394 1.254 . S
O406 Tb377 2.378 . S
O406 C395 1.236 . S
O407 Tb376 2.341 . S
O407 C395 1.266 . S
H408 C380 0.929 . S
H409 C381 0.931 . S
H410 C383 0.930 . S
H411 C384 0.930 . S
H412 C389 0.929 . S
H413 C390 0.931 . S
H414 C392 0.930 . S
H415 C393 0.930 . S
Tb416 C418 2.837 . S
Tb416 O436 2.484 . S
Tb416 O437 2.440 . S
Tb416 O438 2.658 . S
Tb416 O439 2.409 . S
Tb416 O440 2.378 1_545 S
Tb416 O444 2.325 . S
Tb416 O447 2.341 . S
Tb417 C427 2.809 . S
Tb417 O438 2.325 . S
Tb417 O441 2.341 1_545 S
Tb417 O442 2.484 . S
Tb417 O443 2.440 . S
Tb417 O444 2.658 . S
Tb417 O445 2.409 . S
Tb417 O446 2.378 . S
C418 Tb416 2.837 . S
C418 C419 1.486 1_545 S
C418 O436 1.248 . S
C418 O437 1.294 . S
C419 C418 1.486 1_565 S
C419 C420 1.359 . S
C419 C424 1.348 . S
C420 C419 1.359 . S
C420 C421 1.380 . S
C420 H448 0.929 . S
C421 C420 1.380 . S
C421 C422 1.347 . S
C421 H449 0.931 . S
C422 C421 1.347 . S
C422 C423 1.369 . S
C423 C422 1.369 . S
C423 C424 1.408 . S
C423 H450 0.930 . S
C424 C419 1.348 . S
C424 C423 1.408 . S
C424 H451 0.930 . S
C425 O438 1.281 . S
C425 O439 1.254 . S
C426 O440 1.236 . S
C426 O441 1.266 . S
C427 Tb417 2.809 . S
C427 C428 1.514 . S
C427 O442 1.248 . S
C427 O443 1.266 . S
C428 C427 1.514 . S
C428 C429 1.359 . S
C428 C433 1.348 . S
C429 C428 1.359 . S
C429 C430 1.380 . S
C429 H452 0.929 . S
C430 C429 1.380 . S
C430 C431 1.347 . S
C430 H453 0.931 . S
C431 C430 1.347 . S
C431 C432 1.369 . S
C432 C431 1.369 . S
C432 C433 1.408 . S
C432 H454 0.930 . S
C433 C428 1.348 . S
C433 C432 1.408 . S
C433 H455 0.930 . S
C434 O444 1.281 . S
C434 O445 1.254 . S
C435 O446 1.236 . S
C435 O447 1.266 . S
O436 Tb416 2.484 . S
O436 C418 1.248 . S
O437 Tb416 2.440 . S
O437 C418 1.294 . S
O438 Tb416 2.658 . S
O438 Tb417 2.325 . S
O438 C425 1.281 . S
O439 Tb416 2.409 . S
O439 C425 1.254 . S
O440 Tb416 2.378 1_565 S
O440 C426 1.236 . S
O441 Tb417 2.341 1_565 S
O441 C426 1.266 . S
O442 Tb417 2.484 . S
O442 C427 1.248 . S
O443 Tb417 2.440 . S
O443 C427 1.266 . S
O444 Tb416 2.325 . S
O444 Tb417 2.658 . S
O444 C434 1.281 . S
O445 Tb417 2.409 . S
O445 C434 1.254 . S
O446 Tb417 2.378 . S
O446 C435 1.236 . S
O447 Tb416 2.341 . S
O447 C435 1.266 . S
H448 C420 0.929 . S
H449 C421 0.931 . S
H450 C423 0.930 . S
H451 C424 0.930 . S
H452 C429 0.929 . S
H453 C430 0.931 . S
H454 C432 0.930 . S
H455 C433 0.930 . S
Tb456 C458 2.809 . S
Tb456 O476 2.484 . S
Tb456 O477 2.440 . S
Tb456 O478 2.658 . S
Tb456 O479 2.409 . S
Tb456 O480 2.378 . S
Tb456 O484 2.325 . S
Tb456 O487 2.341 . S
Tb457 C467 2.809 . S
Tb457 O478 2.325 . S
Tb457 O481 2.341 . S
Tb457 O482 2.484 . S
Tb457 O483 2.440 . S
Tb457 O484 2.658 . S
Tb457 O485 2.409 . S
Tb457 O486 2.378 . S
C458 Tb456 2.809 . S
C458 C459 1.514 . S
C458 O476 1.248 . S
C458 O477 1.266 . S
C459 C458 1.514 . S
C459 C460 1.359 . S
C459 C464 1.348 . S
C460 C459 1.359 . S
C460 C461 1.380 . S
C460 H488 0.929 . S
C461 C460 1.380 . S
C461 C462 1.347 . S
C461 H489 0.931 . S
C462 C461 1.347 . S
C462 C463 1.369 . S
C463 C462 1.369 . S
C463 C464 1.408 . S
C463 H490 0.930 . S
C464 C459 1.348 . S
C464 C463 1.408 . S
C464 H491 0.930 . S
C465 O478 1.281 . S
C465 O479 1.254 . S
C466 O480 1.236 . S
C466 O481 1.266 . S
C467 Tb457 2.809 . S
C467 C468 1.514 . S
C467 O482 1.248 . S
C467 O483 1.266 . S
C468 C467 1.514 . S
C468 C469 1.359 . S
C468 C473 1.348 . S
C469 C468 1.359 . S
C469 C470 1.380 . S
C469 H492 0.929 . S
C470 C469 1.380 . S
C470 C471 1.347 . S
C470 H493 0.931 . S
C471 C470 1.347 . S
C471 C472 1.369 . S
C472 C471 1.369 . S
C472 C473 1.408 . S
C472 H494 0.930 . S
C473 C468 1.348 . S
C473 C472 1.408 . S
C473 H495 0.930 . S
C474 O484 1.281 . S
C474 O485 1.254 . S
C475 O486 1.236 . S
C475 O487 1.266 . S
O476 Tb456 2.484 . S
O476 C458 1.248 . S
O477 Tb456 2.440 . S
O477 C458 1.266 . S
O478 Tb456 2.658 . S
O478 Tb457 2.325 . S
O478 C465 1.281 . S
O479 Tb456 2.409 . S
O479 C465 1.254 . S
O480 Tb456 2.378 . S
O480 C466 1.236 . S
O481 Tb457 2.341 . S
O481 C466 1.266 . S
O482 Tb457 2.484 . S
O482 C467 1.248 . S
O483 Tb457 2.440 . S
O483 C467 1.266 . S
O484 Tb456 2.325 . S
O484 Tb457 2.658 . S
O484 C474 1.281 . S
O485 Tb457 2.409 . S
O485 C474 1.254 . S
O486 Tb457 2.378 . S
O486 C475 1.236 . S
O487 Tb456 2.341 . S
O487 C475 1.266 . S
H488 C460 0.929 . S
H489 C461 0.931 . S
H490 C463 0.930 . S
H491 C464 0.930 . S
H492 C469 0.929 . S
H493 C470 0.931 . S
H494 C472 0.930 . S
H495 C473 0.930 . S
Tb496 C498 2.809 . S
Tb496 O516 2.484 . S
Tb496 O517 2.440 1_455 S
Tb496 O518 2.658 . S
Tb496 O519 2.409 1_455 S
Tb496 O520 2.378 . S
Tb496 O524 2.325 . S
Tb496 O527 2.341 . S
Tb497 C507 2.809 . S
Tb497 O518 2.325 1_565 S
Tb497 O521 2.345 . S
Tb497 O522 2.484 . S
Tb497 O523 2.440 . S
Tb497 O524 2.658 1_565 S
Tb497 O525 2.409 1_565 S
Tb497 O526 2.378 1_565 S
C498 Tb496 2.809 . S
C498 C499 1.514 . S
C498 O516 1.248 . S
C498 O517 1.266 1_455 S
C499 C498 1.514 . S
C499 C500 1.359 . S
C499 C504 1.348 1_455 S
C500 C499 1.359 . S
C500 C501 1.380 . S
C500 H528 0.929 . S
C501 C500 1.380 . S
C501 C502 1.347 1_455 S
C501 H529 0.931 . S
C502 C501 1.347 1_655 S
C502 C503 1.369 . S
C503 C502 1.369 . S
C503 C504 1.408 . S
C503 H530 0.930 . S
C504 C499 1.348 1_655 S
C504 C503 1.408 . S
C504 H531 0.930 . S
C505 O518 1.281 1_655 S
C505 O519 1.254 . S
C506 O520 1.236 . S
C506 O521 1.259 1_545 S
C507 Tb497 2.809 . S
C507 C508 1.514 . S
C507 O522 1.248 . S
C507 O523 1.266 . S
C508 C507 1.514 . S
C508 C509 1.359 . S
C508 C513 1.348 . S
C509 C508 1.359 . S
C509 C510 1.380 . S
C509 H532 0.929 . S
C510 C509 1.380 . S
C510 C511 1.347 . S
C510 H533 0.931 . S
C511 C510 1.347 . S
C511 C512 1.369 . S
C512 C511 1.369 . S
C512 C513 1.408 . S
C512 H534 0.930 . S
C513 C508 1.348 . S
C513 C512 1.408 . S
C513 H535 0.930 . S
C514 O524 1.281 . S
C514 O525 1.254 . S
C515 O526 1.236 . S
C515 O527 1.266 . S
O516 Tb496 2.484 . S
O516 C498 1.248 . S
O517 Tb496 2.440 1_655 S
O517 C498 1.266 1_655 S
O518 Tb496 2.658 . S
O518 Tb497 2.325 1_545 S
O518 C505 1.281 1_455 S
O519 Tb496 2.409 1_655 S
O519 C505 1.254 . S
O520 Tb496 2.378 . S
O520 C506 1.236 . S
O521 Tb497 2.345 . S
O521 C506 1.259 1_565 S
O522 Tb497 2.484 . S
O522 C507 1.248 . S
O523 Tb497 2.440 . S
O523 C507 1.266 . S
O524 Tb496 2.325 . S
O524 Tb497 2.658 1_545 S
O524 C514 1.281 . S
O525 Tb497 2.409 1_545 S
O525 C514 1.254 . S
O526 Tb497 2.378 1_545 S
O526 C515 1.236 . S
O527 Tb496 2.341 . S
O527 C515 1.266 . S
H528 C500 0.929 . S
H529 C501 0.931 . S
H530 C503 0.930 . S
H531 C504 0.930 . S
H532 C509 0.929 . S
H533 C510 0.931 . S
H534 C512 0.930 . S
H535 C513 0.930 . S
Tb536 C538 2.809 . S
Tb536 O556 2.484 . S
Tb536 O557 2.440 . S
Tb536 O558 2.658 . S
Tb536 O559 2.409 . S
Tb536 O560 2.378 . S
Tb536 O564 2.325 . S
Tb536 O567 2.341 . S
Tb537 C547 2.809 . S
Tb537 O558 2.325 . S
Tb537 O561 2.341 . S
Tb537 O562 2.484 . S
Tb537 O563 2.440 . S
Tb537 O564 2.658 . S
Tb537 O565 2.409 . S
Tb537 O566 2.378 . S
C538 Tb536 2.809 . S
C538 C539 1.514 . S
C538 O556 1.248 . S
C538 O557 1.266 . S
C539 C538 1.514 . S
C539 C540 1.359 . S
C539 C544 1.348 . S
C540 C539 1.359 . S
C540 C541 1.380 . S
C540 H568 0.929 . S
C541 C540 1.380 . S
C541 C542 1.347 . S
C541 H569 0.931 . S
C542 C541 1.347 . S
C542 C543 1.369 . S
C543 C542 1.369 . S
C543 C544 1.408 . S
C543 H570 0.930 . S
C544 C539 1.348 . S
C544 C543 1.408 . S
C544 H571 0.930 . S
C545 O558 1.281 . S
C545 O559 1.254 . S
C546 O560 1.236 . S
C546 O561 1.266 . S
C547 Tb537 2.809 . S
C547 C548 1.514 . S
C547 O562 1.248 . S
C547 O563 1.266 . S
C548 C547 1.514 . S
C548 C549 1.359 . S
C548 C553 1.348 . S
C549 C548 1.359 . S
C549 C550 1.380 . S
C549 H572 0.929 . S
C550 C549 1.380 . S
C550 C551 1.347 . S
C550 H573 0.931 . S
C551 C550 1.347 . S
C551 C552 1.369 . S
C552 C551 1.369 . S
C552 C553 1.408 . S
C552 H574 0.930 . S
C553 C548 1.348 . S
C553 C552 1.408 . S
C553 H575 0.930 . S
C554 O564 1.281 . S
C554 O565 1.254 . S
C555 O566 1.236 . S
C555 O567 1.266 . S
O556 Tb536 2.484 . S
O556 C538 1.248 . S
O557 Tb536 2.440 . S
O557 C538 1.266 . S
O558 Tb536 2.658 . S
O558 Tb537 2.325 . S
O558 C545 1.281 . S
O559 Tb536 2.409 . S
O559 C545 1.254 . S
O560 Tb536 2.378 . S
O560 C546 1.236 . S
O561 Tb537 2.341 . S
O561 C546 1.266 . S
O562 Tb537 2.484 . S
O562 C547 1.248 . S
O563 Tb537 2.440 . S
O563 C547 1.266 . S
O564 Tb536 2.325 . S
O564 Tb537 2.658 . S
O564 C554 1.281 . S
O565 Tb537 2.409 . S
O565 C554 1.254 . S
O566 Tb537 2.378 . S
O566 C555 1.236 . S
O567 Tb536 2.341 . S
O567 C555 1.266 . S
H568 C540 0.929 . S
H569 C541 0.931 . S
H570 C543 0.930 . S
H571 C544 0.930 . S
H572 C549 0.929 . S
H573 C550 0.931 . S
H574 C552 0.930 . S
H575 C553 0.930 . S
Tb576 C578 2.809 1_545 S
Tb576 O596 2.484 1_545 S
Tb576 O597 2.440 . S
Tb576 O598 2.658 . S
Tb576 O599 2.409 . S
Tb576 O600 2.378 . S
Tb576 O604 2.325 1_545 S
Tb576 O607 2.341 . S
Tb577 C587 2.809 . S
Tb577 O598 2.325 . S
Tb577 O601 2.341 . S
Tb577 O602 2.484 . S
Tb577 O603 2.440 . S
Tb577 O604 2.658 1_545 S
Tb577 O605 2.409 1_545 S
Tb577 O606 2.378 . S
C578 Tb576 2.809 1_565 S
C578 C579 1.514 . S
C578 O596 1.248 . S
C578 O597 1.266 1_565 S
C579 C578 1.514 . S
C579 C580 1.359 . S
C579 C584 1.348 1_565 S
C580 C579 1.359 . S
C580 C581 1.380 . S
C580 H608 0.929 . S
C581 C580 1.380 . S
C581 C582 1.347 . S
C581 H609 0.931 . S
C582 C581 1.347 . S
C582 C583 1.369 . S
C583 C582 1.369 . S
C583 C584 1.408 1_565 S
C583 H610 0.930 1_565 S
C584 C579 1.348 1_545 S
C584 C583 1.408 1_545 S
C584 H611 0.930 . S
C585 O598 1.281 . S
C585 O599 1.254 . S
C586 O600 1.236 . S
C586 O601 1.266 . S
C587 Tb577 2.809 . S
C587 C588 1.514 . S
C587 O602 1.248 . S
C587 O603 1.266 . S
C588 C587 1.514 . S
C588 C589 1.359 . S
C588 C593 1.348 . S
C589 C588 1.359 . S
C589 C590 1.380 . S
C589 H612 0.929 . S
C590 C589 1.380 . S
C590 C591 1.347 . S
C590 H613 0.931 . S
C591 C590 1.347 . S
C591 C592 1.369 . S
C592 C591 1.369 . S
C592 C593 1.408 . S
C592 H614 0.930 . S
C593 C588 1.348 . S
C593 C592 1.408 . S
C593 H615 0.930 . S
C594 O604 1.281 . S
C594 O605 1.254 . S
C595 O606 1.236 . S
C595 O607 1.266 . S
O596 Tb576 2.484 1_565 S
O596 C578 1.248 . S
O597 Tb576 2.440 . S
O597 C578 1.266 1_545 S
O598 Tb576 2.658 . S
O598 Tb577 2.325 . S
O598 C585 1.281 . S
O599 Tb576 2.409 . S
O599 C585 1.254 . S
O600 Tb576 2.378 . S
O600 C586 1.236 . S
O601 Tb577 2.341 . S
O601 C586 1.266 . S
O602 Tb577 2.484 . S
O602 C587 1.248 . S
O603 Tb577 2.440 . S
O603 C587 1.266 . S
O604 Tb576 2.325 1_565 S
O604 Tb577 2.658 1_565 S
O604 C594 1.281 . S
O605 Tb577 2.409 1_565 S
O605 C594 1.254 . S
O606 Tb577 2.378 . S
O606 C595 1.236 . S
O607 Tb576 2.341 . S
O607 C595 1.266 . S
H608 C580 0.929 . S
H609 C581 0.931 . S
H610 C583 0.930 1_545 S
H611 C584 0.930 . S
H612 C589 0.929 . S
H613 C590 0.931 . S
H614 C592 0.930 . S
H615 C593 0.930 . S
Tb616 C618 2.809 . S
Tb616 O636 2.484 . S
Tb616 O637 2.440 . S
Tb616 O638 2.658 . S
Tb616 O639 2.409 . S
Tb616 O640 2.378 . S
Tb616 O644 2.325 . S
Tb616 O647 2.341 . S
Tb617 C627 2.809 . S
Tb617 O638 2.325 . S
Tb617 O641 2.341 . S
Tb617 O642 2.484 . S
Tb617 O643 2.440 . S
Tb617 O644 2.658 . S
Tb617 O645 2.409 . S
Tb617 O646 2.378 . S
C618 Tb616 2.809 . S
C618 C619 1.514 . S
C618 O636 1.248 . S
C618 O637 1.266 . S
C619 C618 1.514 . S
C619 C620 1.359 . S
C619 C624 1.348 . S
C620 C619 1.359 . S
C620 C621 1.380 . S
C620 H648 0.929 . S
C621 C620 1.380 . S
C621 C622 1.347 . S
C621 H649 0.931 . S
C622 C621 1.347 . S
C622 C623 1.369 . S
C623 C622 1.369 . S
C623 C624 1.408 . S
C623 H650 0.930 . S
C624 C619 1.348 . S
C624 C623 1.408 . S
C624 H651 0.930 . S
C625 O638 1.281 . S
C625 O639 1.254 . S
C626 O640 1.236 . S
C626 O641 1.266 . S
C627 Tb617 2.809 . S
C627 C628 1.514 . S
C627 O642 1.248 . S
C627 O643 1.266 . S
C628 C627 1.514 . S
C628 C629 1.359 . S
C628 C633 1.348 . S
C629 C628 1.359 . S
C629 C630 1.380 . S
C629 H652 0.929 . S
C630 C629 1.380 . S
C630 C631 1.347 . S
C630 H653 0.931 . S
C631 C630 1.347 . S
C631 C632 1.369 . S
C632 C631 1.369 . S
C632 C633 1.408 . S
C632 H654 0.930 . S
C633 C628 1.348 . S
C633 C632 1.408 . S
C633 H655 0.930 . S
C634 O644 1.281 . S
C634 O645 1.254 . S
C635 O646 1.236 . S
C635 O647 1.266 . S
O636 Tb616 2.484 . S
O636 C618 1.248 . S
O637 Tb616 2.440 . S
O637 C618 1.266 . S
O638 Tb616 2.658 . S
O638 Tb617 2.325 . S
O638 C625 1.281 . S
O639 Tb616 2.409 . S
O639 C625 1.254 . S
O640 Tb616 2.378 . S
O640 C626 1.236 . S
O641 Tb617 2.341 . S
O641 C626 1.266 . S
O642 Tb617 2.484 . S
O642 C627 1.248 . S
O643 Tb617 2.440 . S
O643 C627 1.266 . S
O644 Tb616 2.325 . S
O644 Tb617 2.658 . S
O644 C634 1.281 . S
O645 Tb617 2.409 . S
O645 C634 1.254 . S
O646 Tb617 2.378 . S
O646 C635 1.236 . S
O647 Tb616 2.341 . S
O647 C635 1.266 . S
H648 C620 0.929 . S
H649 C621 0.931 . S
H650 C623 0.930 . S
H651 C624 0.930 . S
H652 C629 0.929 . S
H653 C630 0.931 . S
H654 C632 0.930 . S
H655 C633 0.930 . S
Tb656 C658 2.809 . S
Tb656 O676 2.484 . S
Tb656 O677 2.440 . S
Tb656 O678 2.658 . S
Tb656 O679 2.409 . S
Tb656 O680 2.378 . S
Tb656 O684 2.325 . S
Tb656 O687 2.341 . S
Tb657 C667 2.809 . S
Tb657 O678 2.325 . S
Tb657 O681 2.338 1_554 S
Tb657 O682 2.484 . S
Tb657 O683 2.440 . S
Tb657 O684 2.658 . S
Tb657 O685 2.409 . S
Tb657 O686 2.378 . S
C658 Tb656 2.809 . S
C658 C659 1.514 . S
C658 O676 1.248 . S
C658 O677 1.266 . S
C659 C658 1.514 . S
C659 C660 1.359 1_554 S
C659 C664 1.348 . S
C660 C659 1.359 1_556 S
C660 C661 1.380 . S
C660 H688 0.929 . S
C661 C660 1.380 . S
C661 C662 1.347 . S
C661 H689 0.931 . S
C662 C661 1.347 . S
C662 C663 1.369 . S
C663 C662 1.369 . S
C663 C664 1.408 1_556 S
C663 H690 0.930 . S
C664 C659 1.348 . S
C664 C663 1.408 1_554 S
C664 H691 0.930 . S
C665 O678 1.281 . S
C665 O679 1.254 . S
C666 O680 1.236 1_556 S
C666 O681 1.267 . S
C667 Tb657 2.809 . S
C667 C668 1.514 . S
C667 O682 1.248 . S
C667 O683 1.266 . S
C668 C667 1.514 . S
C668 C669 1.359 . S
C668 C673 1.348 . S
C669 C668 1.359 . S
C669 C670 1.380 . S
C669 H692 0.929 . S
C670 C669 1.380 . S
C670 C671 1.347 . S
C670 H693 0.931 . S
C671 C670 1.347 . S
C671 C672 1.369 . S
C672 C671 1.369 . S
C672 C673 1.408 . S
C672 H694 0.930 . S
C673 C668 1.348 . S
C673 C672 1.408 . S
C673 H695 0.930 . S
C674 O684 1.281 . S
C674 O685 1.254 . S
C675 O686 1.236 . S
C675 O687 1.266 . S
O676 Tb656 2.484 . S
O676 C658 1.248 . S
O677 Tb656 2.440 . S
O677 C658 1.266 . S
O678 Tb656 2.658 . S
O678 Tb657 2.325 . S
O678 C665 1.281 . S
O679 Tb656 2.409 . S
O679 C665 1.254 . S
O680 Tb656 2.378 . S
O680 C666 1.236 1_554 S
O681 Tb657 2.338 1_556 S
O681 C666 1.267 . S
O682 Tb657 2.484 . S
O682 C667 1.248 . S
O683 Tb657 2.440 . S
O683 C667 1.266 . S
O684 Tb656 2.325 . S
O684 Tb657 2.658 . S
O684 C674 1.281 . S
O685 Tb657 2.409 . S
O685 C674 1.254 . S
O686 Tb657 2.378 . S
O686 C675 1.236 . S
O687 Tb656 2.341 . S
O687 C675 1.266 . S
H688 C660 0.929 . S
H689 C661 0.931 . S
H690 C663 0.930 . S
H691 C664 0.930 . S
H692 C669 0.929 . S
H693 C670 0.931 . S
H694 C672 0.930 . S
H695 C673 0.930 . S
Tb696 C698 2.809 . S
Tb696 O716 2.484 . S
Tb696 O717 2.440 . S
Tb696 O718 2.658 . S
Tb696 O719 2.409 . S
Tb696 O720 2.378 . S
Tb696 O724 2.325 . S
Tb696 O727 2.341 . S
Tb697 C707 2.809 . S
Tb697 O718 2.325 . S
Tb697 O721 2.341 . S
Tb697 O722 2.484 . S
Tb697 O723 2.440 . S
Tb697 O724 2.658 . S
Tb697 O725 2.409 . S
Tb697 O726 2.378 . S
C698 Tb696 2.809 . S
C698 C699 1.514 . S
C698 O716 1.248 . S
C698 O717 1.266 . S
C699 C698 1.514 . S
C699 C700 1.359 . S
C699 C704 1.348 . S
C700 C699 1.359 . S
C700 C701 1.380 . S
C700 H728 0.929 . S
C701 C700 1.380 . S
C701 C702 1.347 . S
C701 H729 0.931 . S
C702 C701 1.347 . S
C702 C703 1.369 . S
C703 C702 1.369 . S
C703 C704 1.408 . S
C703 H730 0.930 . S
C704 C699 1.348 . S
C704 C703 1.408 . S
C704 H731 0.930 . S
C705 O718 1.281 . S
C705 O719 1.254 . S
C706 O720 1.236 . S
C706 O721 1.266 . S
C707 Tb697 2.809 . S
C707 C708 1.514 . S
C707 O722 1.248 . S
C707 O723 1.266 . S
C708 C707 1.514 . S
C708 C709 1.359 . S
C708 C713 1.348 . S
C709 C708 1.359 . S
C709 C710 1.380 . S
C709 H732 0.929 . S
C710 C709 1.380 . S
C710 C711 1.347 . S
C710 H733 0.931 . S
C711 C710 1.347 . S
C711 C712 1.369 . S
C712 C711 1.369 . S
C712 C713 1.408 . S
C712 H734 0.930 . S
C713 C708 1.348 . S
C713 C712 1.408 . S
C713 H735 0.930 . S
C714 O724 1.281 . S
C714 O725 1.254 . S
C715 O726 1.236 . S
C715 O727 1.266 . S
O716 Tb696 2.484 . S
O716 C698 1.248 . S
O717 Tb696 2.440 . S
O717 C698 1.266 . S
O718 Tb696 2.658 . S
O718 Tb697 2.325 . S
O718 C705 1.281 . S
O719 Tb696 2.409 . S
O719 C705 1.254 . S
O720 Tb696 2.378 . S
O720 C706 1.236 . S
O721 Tb697 2.341 . S
O721 C706 1.266 . S
O722 Tb697 2.484 . S
O722 C707 1.248 . S
O723 Tb697 2.440 . S
O723 C707 1.266 . S
O724 Tb696 2.325 . S
O724 Tb697 2.658 . S
O724 C714 1.281 . S
O725 Tb697 2.409 . S
O725 C714 1.254 . S
O726 Tb697 2.378 . S
O726 C715 1.236 . S
O727 Tb696 2.341 . S
O727 C715 1.266 . S
H728 C700 0.929 . S
H729 C701 0.931 . S
H730 C703 0.930 . S
H731 C704 0.930 . S
H732 C709 0.929 . S
H733 C710 0.931 . S
H734 C712 0.930 . S
H735 C713 0.930 . S
Tb736 C738 2.809 1_455 S
Tb736 O756 2.484 1_455 S
Tb736 O757 2.440 1_455 S
Tb736 O758 2.658 . S
Tb736 O759 2.409 . S
Tb736 O760 2.378 . S
Tb736 O764 2.325 . S
Tb736 O767 2.341 . S
Tb737 C747 2.809 . S
Tb737 O758 2.325 . S
Tb737 O761 2.341 . S
Tb737 O762 2.484 . S
Tb737 O763 2.440 . S
Tb737 O764 2.658 . S
Tb737 O765 2.409 . S
Tb737 O766 2.378 . S
C738 Tb736 2.809 1_655 S
C738 C739 1.514 . S
C738 O756 1.248 . S
C738 O757 1.266 . S
C739 C738 1.514 . S
C739 C740 1.359 . S
C739 C744 1.348 . S
C740 C739 1.359 . S
C740 C741 1.380 . S
C740 H768 0.929 . S
C741 C740 1.380 . S
C741 C742 1.347 . S
C741 H769 0.931 . S
C742 C741 1.347 . S
C742 C743 1.369 . S
C743 C742 1.369 . S
C743 C744 1.408 . S
C743 H770 0.930 . S
C744 C739 1.348 . S
C744 C743 1.408 . S
C744 H771 0.930 . S
C745 O758 1.281 . S
C745 O759 1.254 . S
C746 O760 1.236 . S
C746 O761 1.266 . S
C747 Tb737 2.809 . S
C747 C748 1.514 . S
C747 O762 1.248 . S
C747 O763 1.266 . S
C748 C747 1.514 . S
C748 C749 1.359 . S
C748 C753 1.348 . S
C749 C748 1.359 . S
C749 C750 1.380 . S
C749 H772 0.929 . S
C750 C749 1.380 . S
C750 C751 1.347 . S
C750 H773 0.931 . S
C751 C750 1.347 . S
C751 C752 1.369 . S
C752 C751 1.369 . S
C752 C753 1.408 . S
C752 H774 0.930 . S
C753 C748 1.348 . S
C753 C752 1.408 . S
C753 H775 0.930 . S
C754 O764 1.281 . S
C754 O765 1.254 . S
C755 O766 1.236 . S
C755 O767 1.266 . S
O756 Tb736 2.484 1_655 S
O756 C738 1.248 . S
O757 Tb736 2.440 1_655 S
O757 C738 1.266 . S
O758 Tb736 2.658 . S
O758 Tb737 2.325 . S
O758 C745 1.281 . S
O759 Tb736 2.409 . S
O759 C745 1.254 . S
O760 Tb736 2.378 . S
O760 C746 1.236 . S
O761 Tb737 2.341 . S
O761 C746 1.266 . S
O762 Tb737 2.484 . S
O762 C747 1.248 . S
O763 Tb737 2.440 . S
O763 C747 1.266 . S
O764 Tb736 2.325 . S
O764 Tb737 2.658 . S
O764 C754 1.281 . S
O765 Tb737 2.409 . S
O765 C754 1.254 . S
O766 Tb737 2.378 . S
O766 C755 1.236 . S
O767 Tb736 2.341 . S
O767 C755 1.266 . S
H768 C740 0.929 . S
H769 C741 0.931 . S
H770 C743 0.930 . S
H771 C744 0.930 . S
H772 C749 0.929 . S
H773 C750 0.931 . S
H774 C752 0.930 . S
H775 C753 0.930 . S
Tb776 C778 2.809 . S
Tb776 O796 2.484 . S
Tb776 O797 2.440 . S
Tb776 O798 2.658 . S
Tb776 O799 2.409 . S
Tb776 O800 2.378 . S
Tb776 O804 2.325 . S
Tb776 O807 2.341 . S
Tb777 C787 2.809 . S
Tb777 O798 2.325 . S
Tb777 O801 2.341 . S
Tb777 O802 2.484 . S
Tb777 O803 2.440 . S
Tb777 O804 2.658 . S
Tb777 O805 2.409 . S
Tb777 O806 2.378 . S
C778 Tb776 2.809 . S
C778 C779 1.514 . S
C778 O796 1.248 . S
C778 O797 1.266 . S
C779 C778 1.514 . S
C779 C780 1.359 . S
C779 C784 1.348 . S
C780 C779 1.359 . S
C780 C781 1.380 . S
C780 H808 0.929 . S
C781 C780 1.380 . S
C781 C782 1.347 . S
C781 H809 0.931 . S
C782 C781 1.347 . S
C782 C783 1.369 . S
C783 C782 1.369 . S
C783 C784 1.408 . S
C783 H810 0.930 . S
C784 C779 1.348 . S
C784 C783 1.408 . S
C784 H811 0.930 . S
C785 O798 1.281 . S
C785 O799 1.254 . S
C786 O800 1.236 . S
C786 O801 1.266 . S
C787 Tb777 2.809 . S
C787 C788 1.514 . S
C787 O802 1.248 . S
C787 O803 1.266 . S
C788 C787 1.514 . S
C788 C789 1.359 . S
C788 C793 1.348 . S
C789 C788 1.359 . S
C789 C790 1.380 . S
C789 H812 0.929 . S
C790 C789 1.380 . S
C790 C791 1.347 . S
C790 H813 0.931 . S
C791 C790 1.347 . S
C791 C792 1.369 . S
C792 C791 1.369 . S
C792 C793 1.408 . S
C792 H814 0.930 . S
C793 C788 1.348 . S
C793 C792 1.408 . S
C793 H815 0.930 . S
C794 O804 1.281 . S
C794 O805 1.254 . S
C795 O806 1.236 . S
C795 O807 1.266 . S
O796 Tb776 2.484 . S
O796 C778 1.248 . S
O797 Tb776 2.440 . S
O797 C778 1.266 . S
O798 Tb776 2.658 . S
O798 Tb777 2.325 . S
O798 C785 1.281 . S
O799 Tb776 2.409 . S
O799 C785 1.254 . S
O800 Tb776 2.378 . S
O800 C786 1.236 . S
O801 Tb777 2.341 . S
O801 C786 1.266 . S
O802 Tb777 2.484 . S
O802 C787 1.248 . S
O803 Tb777 2.440 . S
O803 C787 1.266 . S
O804 Tb776 2.325 . S
O804 Tb777 2.658 . S
O804 C794 1.281 . S
O805 Tb777 2.409 . S
O805 C794 1.254 . S
O806 Tb777 2.378 . S
O806 C795 1.236 . S
O807 Tb776 2.341 . S
O807 C795 1.266 . S
H808 C780 0.929 . S
H809 C781 0.931 . S
H810 C783 0.930 . S
H811 C784 0.930 . S
H812 C789 0.929 . S
H813 C790 0.931 . S
H814 C792 0.930 . S
H815 C793 0.930 . S
Tb816 C818 2.809 . S
Tb816 O836 2.484 . S
Tb816 O837 2.440 . S
Tb816 O838 2.658 . S
Tb816 O839 2.409 . S
Tb816 O840 2.378 . S
Tb816 O844 2.325 . S
Tb816 O847 2.341 . S
Tb817 C827 2.809 . S
Tb817 O838 2.325 . S
Tb817 O841 2.341 . S
Tb817 O842 2.484 . S
Tb817 O843 2.440 . S
Tb817 O844 2.658 . S
Tb817 O845 2.409 . S
Tb817 O846 2.378 . S
C818 Tb816 2.809 . S
C818 C819 1.514 . S
C818 O836 1.248 . S
C818 O837 1.266 . S
C819 C818 1.514 . S
C819 C820 1.359 . S
C819 C824 1.348 . S
C820 C819 1.359 . S
C820 C821 1.380 . S
C820 H848 0.929 . S
C821 C820 1.380 . S
C821 C822 1.347 . S
C821 H849 0.931 . S
C822 C821 1.347 . S
C822 C823 1.369 . S
C823 C822 1.369 . S
C823 C824 1.408 . S
C823 H850 0.930 . S
C824 C819 1.348 . S
C824 C823 1.408 . S
C824 H851 0.930 . S
C825 O838 1.281 . S
C825 O839 1.254 . S
C826 O840 1.236 . S
C826 O841 1.266 . S
C827 Tb817 2.809 . S
C827 C828 1.514 . S
C827 O842 1.248 . S
C827 O843 1.266 . S
C828 C827 1.514 . S
C828 C829 1.359 . S
C828 C833 1.348 . S
C829 C828 1.359 . S
C829 C830 1.380 . S
C829 H852 0.929 . S
C830 C829 1.380 . S
C830 C831 1.347 . S
C830 H853 0.931 . S
C831 C830 1.347 . S
C831 C832 1.369 . S
C832 C831 1.369 . S
C832 C833 1.408 . S
C832 H854 0.930 . S
C833 C828 1.348 . S
C833 C832 1.408 . S
C833 H855 0.930 . S
C834 O844 1.281 . S
C834 O845 1.254 . S
C835 O846 1.236 . S
C835 O847 1.266 . S
O836 Tb816 2.484 . S
O836 C818 1.248 . S
O837 Tb816 2.440 . S
O837 C818 1.266 . S
O838 Tb816 2.658 . S
O838 Tb817 2.325 . S
O838 C825 1.281 . S
O839 Tb816 2.409 . S
O839 C825 1.254 . S
O840 Tb816 2.378 . S
O840 C826 1.236 . S
O841 Tb817 2.341 . S
O841 C826 1.266 . S
O842 Tb817 2.484 . S
O842 C827 1.248 . S
O843 Tb817 2.440 . S
O843 C827 1.266 . S
O844 Tb816 2.325 . S
O844 Tb817 2.658 . S
O844 C834 1.281 . S
O845 Tb817 2.409 . S
O845 C834 1.254 . S
O846 Tb817 2.378 . S
O846 C835 1.236 . S
O847 Tb816 2.341 . S
O847 C835 1.266 . S
H848 C820 0.929 . S
H849 C821 0.931 . S
H850 C823 0.930 . S
H851 C824 0.930 . S
H852 C829 0.929 . S
H853 C830 0.931 . S
H854 C832 0.930 . S
H855 C833 0.930 . S
Tb856 C858 2.809 . S
Tb856 O876 2.484 . S
Tb856 O877 2.440 . S
Tb856 O878 2.658 . S
Tb856 O879 2.409 . S
Tb856 O880 2.378 . S
Tb856 O884 2.325 . S
Tb856 O887 2.341 . S
Tb857 C867 2.809 . S
Tb857 O878 2.325 . S
Tb857 O881 2.341 . S
Tb857 O882 2.484 . S
Tb857 O883 2.440 . S
Tb857 O884 2.658 . S
Tb857 O885 2.409 . S
Tb857 O886 2.378 . S
C858 Tb856 2.809 . S
C858 C859 1.514 . S
C858 O876 1.248 . S
C858 O877 1.266 . S
C859 C858 1.514 . S
C859 C860 1.359 . S
C859 C864 1.348 . S
C860 C859 1.359 . S
C860 C861 1.380 . S
C860 H888 0.929 . S
C861 C860 1.380 . S
C861 C862 1.347 . S
C861 H889 0.931 . S
C862 C861 1.347 . S
C862 C863 1.369 . S
C863 C862 1.369 . S
C863 C864 1.408 . S
C863 H890 0.930 . S
C864 C859 1.348 . S
C864 C863 1.408 . S
C864 H891 0.930 . S
C865 O878 1.281 . S
C865 O879 1.254 . S
C866 O880 1.236 . S
C866 O881 1.266 . S
C867 Tb857 2.809 . S
C867 C868 1.514 . S
C867 O882 1.248 . S
C867 O883 1.266 . S
C868 C867 1.514 . S
C868 C869 1.359 . S
C868 C873 1.348 . S
C869 C868 1.359 . S
C869 C870 1.380 . S
C869 H892 0.929 . S
C870 C869 1.380 . S
C870 C871 1.347 . S
C870 H893 0.931 . S
C871 C870 1.347 . S
C871 C872 1.369 . S
C872 C871 1.369 . S
C872 C873 1.408 . S
C872 H894 0.930 . S
C873 C868 1.348 . S
C873 C872 1.408 . S
C873 H895 0.930 . S
C874 O884 1.281 . S
C874 O885 1.254 . S
C875 O886 1.236 . S
C875 O887 1.266 . S
O876 Tb856 2.484 . S
O876 C858 1.248 . S
O877 Tb856 2.440 . S
O877 C858 1.266 . S
O878 Tb856 2.658 . S
O878 Tb857 2.325 . S
O878 C865 1.281 . S
O879 Tb856 2.409 . S
O879 C865 1.254 . S
O880 Tb856 2.378 . S
O880 C866 1.236 . S
O881 Tb857 2.341 . S
O881 C866 1.266 . S
O882 Tb857 2.484 . S
O882 C867 1.248 . S
O883 Tb857 2.440 . S
O883 C867 1.266 . S
O884 Tb856 2.325 . S
O884 Tb857 2.658 . S
O884 C874 1.281 . S
O885 Tb857 2.409 . S
O885 C874 1.254 . S
O886 Tb857 2.378 . S
O886 C875 1.236 . S
O887 Tb856 2.341 . S
O887 C875 1.266 . S
H888 C860 0.929 . S
H889 C861 0.931 . S
H890 C863 0.930 . S
H891 C864 0.930 . S
H892 C869 0.929 . S
H893 C870 0.931 . S
H894 C872 0.930 . S
H895 C873 0.930 . S
Tb896 C898 2.809 . S
Tb896 O916 2.484 . S
Tb896 O917 2.440 . S
Tb896 O918 2.658 . S
Tb896 O919 2.409 . S
Tb896 O920 2.378 . S
Tb896 O924 2.325 . S
Tb896 O927 2.341 . S
Tb897 C907 2.809 . S
Tb897 O918 2.325 . S
Tb897 O921 2.341 . S
Tb897 O922 2.484 . S
Tb897 O923 2.440 . S
Tb897 O924 2.658 . S
Tb897 O925 2.409 . S
Tb897 O926 2.378 . S
C898 Tb896 2.809 . S
C898 C899 1.514 . S
C898 O916 1.248 . S
C898 O917 1.266 . S
C899 C898 1.514 . S
C899 C900 1.359 . S
C899 C904 1.348 . S
C900 C899 1.359 . S
C900 C901 1.380 . S
C900 H928 0.929 . S
C901 C900 1.380 . S
C901 C902 1.347 . S
C901 H929 0.931 . S
C902 C901 1.347 . S
C902 C903 1.369 . S
C903 C902 1.369 . S
C903 C904 1.408 . S
C903 H930 0.930 . S
C904 C899 1.348 . S
C904 C903 1.408 . S
C904 H931 0.930 . S
C905 O918 1.281 . S
C905 O919 1.254 . S
C906 O920 1.236 . S
C906 O921 1.266 . S
C907 Tb897 2.809 . S
C907 C908 1.514 . S
C907 O922 1.248 . S
C907 O923 1.266 . S
C908 C907 1.514 . S
C908 C909 1.359 . S
C908 C913 1.348 . S
C909 C908 1.359 . S
C909 C910 1.380 . S
C909 H932 0.929 . S
C910 C909 1.380 . S
C910 C911 1.347 . S
C910 H933 0.931 . S
C911 C910 1.347 . S
C911 C912 1.369 . S
C912 C911 1.369 . S
C912 C913 1.408 . S
C912 H934 0.930 . S
C913 C908 1.348 . S
C913 C912 1.408 . S
C913 H935 0.930 . S
C914 O924 1.281 . S
C914 O925 1.254 . S
C915 O926 1.236 . S
C915 O927 1.266 . S
O916 Tb896 2.484 . S
O916 C898 1.248 . S
O917 Tb896 2.440 . S
O917 C898 1.266 . S
O918 Tb896 2.658 . S
O918 Tb897 2.325 . S
O918 C905 1.281 . S
O919 Tb896 2.409 . S
O919 C905 1.254 . S
O920 Tb896 2.378 . S
O920 C906 1.236 . S
O921 Tb897 2.341 . S
O921 C906 1.266 . S
O922 Tb897 2.484 . S
O922 C907 1.248 . S
O923 Tb897 2.440 . S
O923 C907 1.266 . S
O924 Tb896 2.325 . S
O924 Tb897 2.658 . S
O924 C914 1.281 . S
O925 Tb897 2.409 . S
O925 C914 1.254 . S
O926 Tb897 2.378 . S
O926 C915 1.236 . S
O927 Tb896 2.341 . S
O927 C915 1.266 . S
H928 C900 0.929 . S
H929 C901 0.931 . S
H930 C903 0.930 . S
H931 C904 0.930 . S
H932 C909 0.929 . S
H933 C910 0.931 . S
H934 C912 0.930 . S
H935 C913 0.930 . S
Tb936 C938 2.809 . S
Tb936 O956 2.484 . S
Tb936 O957 2.440 . S
Tb936 O958 2.658 . S
Tb936 O959 2.409 1_554 S
Tb936 O960 2.378 . S
Tb936 O964 2.325 . S
Tb936 O967 2.341 . S
Tb937 C947 2.781 1_455 S
Tb937 O958 2.343 . S
Tb937 O961 2.359 . S
Tb937 O962 2.461 1_455 S
Tb937 O963 2.414 1_455 S
Tb937 O964 2.690 . S
Tb937 O965 2.421 . S
Tb937 O966 2.387 . S
C938 Tb936 2.809 . S
C938 C939 1.514 . S
C938 O956 1.248 . S
C938 O957 1.266 . S
C939 C938 1.514 . S
C939 C940 1.359 . S
C939 C944 1.334 1_554 S
C940 C939 1.359 . S
C940 C941 1.380 . S
C940 H968 0.929 . S
C941 C940 1.380 . S
C941 C942 1.347 . S
C941 H969 0.931 . S
C942 C941 1.347 . S
C942 C943 1.369 1_554 S
C943 C942 1.369 1_556 S
C943 C944 1.412 . S
C943 H970 0.930 . S
C944 C939 1.334 1_556 S
C944 C943 1.412 . S
C944 H971 0.942 . S
C945 O958 1.281 1_556 S
C945 O959 1.254 . S
C946 O960 1.236 . S
C946 O961 1.266 . S
C947 Tb937 2.781 1_655 S
C947 C948 1.514 . S
C947 O962 1.248 . S
C947 O963 1.266 . S
C948 C947 1.514 . S
C948 C949 1.359 . S
C948 C953 1.348 . S
C949 C948 1.359 . S
C949 C950 1.380 . S
C949 H972 0.929 . S
C950 C949 1.380 . S
C950 C951 1.347 . S
C950 H973 0.931 . S
C951 C950 1.347 . S
C951 C952 1.369 . S
C952 C951 1.369 . S
C952 C953 1.408 . S
C952 H974 0.930 . S
C953 C948 1.348 . S
C953 C952 1.408 . S
C953 H975 0.930 . S
C954 O964 1.281 . S
C954 O965 1.254 . S
C955 O966 1.236 . S
C955 O967 1.266 . S
O956 Tb936 2.484 . S
O956 C938 1.248 . S
O957 Tb936 2.440 . S
O957 C938 1.266 . S
O958 Tb936 2.658 . S
O958 Tb937 2.343 . S
O958 C945 1.281 1_554 S
O959 Tb936 2.409 1_556 S
O959 C945 1.254 . S
O960 Tb936 2.378 . S
O960 C946 1.236 . S
O961 Tb937 2.359 . S
O961 C946 1.266 . S
O962 Tb937 2.461 1_655 S
O962 C947 1.248 . S
O963 Tb937 2.414 1_655 S
O963 C947 1.266 . S
O964 Tb936 2.325 . S
O964 Tb937 2.690 . S
O964 C954 1.281 . S
O965 Tb937 2.421 . S
O965 C954 1.254 . S
O966 Tb937 2.387 . S
O966 C955 1.236 . S
O967 Tb936 2.341 . S
O967 C955 1.266 . S
H968 C940 0.929 . S
H969 C941 0.931 . S
H970 C943 0.930 . S
H971 C944 0.942 . S
H972 C949 0.929 . S
H973 C950 0.931 . S
H974 C952 0.930 . S
H975 C953 0.930 . S
H976 C982 0.930 . S
H977 C986 0.930 . S
H978 C991 0.929 1_655 S
H979 C989 0.929 . S
H980 C984 0.929 . S
H981 C990 0.929 . S
C982 H976 0.930 . S
C982 C983 1.367 . S
C982 C990 1.378 . S
C983 C982 1.367 . S
C983 C991 1.433 1_556 S
C984 H980 0.929 . S
C984 C986 1.378 . S
C984 C988 1.350 . S
C985 C988 1.463 . S
C985 C990 1.350 1_554 S
C985 N993 1.427 . S
C986 H977 0.930 . S
C986 C984 1.378 . S
C986 C987 1.367 . S
C987 C986 1.367 . S
C987 C989 1.433 . S
C988 C984 1.350 . S
C988 C985 1.463 . S
C988 N992 1.427 . S
C989 H979 0.929 . S
C989 C987 1.433 . S
C989 N992 1.384 . S
C990 H981 0.929 . S
C990 C982 1.378 . S
C990 C985 1.350 1_556 S
C991 H978 0.929 1_455 S
C991 C983 1.433 1_554 S
C991 N993 1.384 . S
N992 C988 1.427 . S
N992 C989 1.384 . S
N993 C985 1.427 . S
N993 C991 1.384 . S
H994 C1000 0.930 . S
H995 C1004 0.930 . S
H996 C1009 0.929 . S
H997 C1007 0.929 . S
H998 C1002 0.929 . S
H999 C1008 0.929 . S
C1000 H994 0.930 . S
C1000 C1001 1.367 . S
C1000 C1008 1.378 . S
C1001 C1000 1.367 . S
C1001 C1009 1.433 . S
C1002 H998 0.929 . S
C1002 C1004 1.378 . S
C1002 C1006 1.350 . S
C1003 C1006 1.463 . S
C1003 C1008 1.350 . S
C1003 N1011 1.427 . S
C1004 H995 0.930 . S
C1004 C1002 1.378 . S
C1004 C1005 1.367 . S
C1005 C1004 1.367 . S
C1005 C1007 1.433 . S
C1006 C1002 1.350 . S
C1006 C1003 1.463 . S
C1006 N1010 1.427 . S
C1007 H997 0.929 . S
C1007 C1005 1.433 . S
C1007 N1010 1.384 . S
C1008 H999 0.929 . S
C1008 C1000 1.378 . S
C1008 C1003 1.350 . S
C1009 H996 0.929 . S
C1009 C1001 1.433 . S
C1009 N1011 1.384 . S
N1010 C1006 1.427 . S
N1010 C1007 1.384 . S
N1011 C1003 1.427 . S
N1011 C1009 1.384 . S
H1012 C1018 0.930 . S
H1013 C1022 0.930 . S
H1014 C1027 0.929 . S
H1015 C1025 0.929 . S
H1016 C1020 0.929 . S
H1017 C1026 0.929 . S
C1018 H1012 0.930 . S
C1018 C1019 1.367 . S
C1018 C1026 1.378 . S
C1019 C1018 1.367 . S
C1019 C1027 1.433 . S
C1020 H1016 0.929 . S
C1020 C1022 1.378 . S
C1020 C1024 1.350 . S
C1021 C1024 1.463 . S
C1021 C1026 1.350 . S
C1021 N1029 1.427 . S
C1022 H1013 0.930 . S
C1022 C1020 1.378 . S
C1022 C1023 1.367 . S
C1023 C1022 1.367 . S
C1023 C1025 1.433 . S
C1024 C1020 1.350 . S
C1024 C1021 1.463 . S
C1024 N1028 1.427 . S
C1025 H1015 0.929 . S
C1025 C1023 1.433 . S
C1025 N1028 1.384 . S
C1026 H1017 0.929 . S
C1026 C1018 1.378 . S
C1026 C1021 1.350 . S
C1027 H1014 0.929 . S
C1027 C1019 1.433 . S
C1027 N1029 1.384 . S
N1028 C1024 1.427 . S
N1028 C1025 1.384 . S
N1029 C1021 1.427 . S
N1029 C1027 1.384 . S
H1030 C1036 0.930 . S
H1031 C1040 0.930 . S
H1032 C1045 0.929 . S
H1033 C1043 0.929 . S
H1034 C1038 0.929 . S
H1035 C1044 0.929 . S
C1036 H1030 0.930 . S
C1036 C1037 1.367 . S
C1036 C1044 1.378 . S
C1037 C1036 1.367 . S
C1037 C1045 1.433 . S
C1038 H1034 0.929 . S
C1038 C1040 1.378 . S
C1038 C1042 1.350 . S
C1039 C1042 1.463 . S
C1039 C1044 1.350 . S
C1039 N1047 1.427 . S
C1040 H1031 0.930 . S
C1040 C1038 1.378 . S
C1040 C1041 1.367 . S
C1041 C1040 1.367 . S
C1041 C1043 1.433 . S
C1042 C1038 1.350 . S
C1042 C1039 1.463 . S
C1042 N1046 1.427 . S
C1043 H1033 0.929 . S
C1043 C1041 1.433 . S
C1043 N1046 1.384 . S
C1044 H1035 0.929 . S
C1044 C1036 1.378 . S
C1044 C1039 1.350 . S
C1045 H1032 0.929 . S
C1045 C1037 1.433 . S
C1045 N1047 1.384 . S
N1046 C1042 1.427 . S
N1046 C1043 1.384 . S
N1047 C1039 1.427 . S
N1047 C1045 1.384 . S
H1048 C1054 0.930 . S
H1049 C1058 0.930 . S
H1050 C1063 0.929 . S
H1051 C1061 0.929 . S
H1052 C1056 0.929 . S
H1053 C1062 0.929 . S
C1054 H1048 0.930 . S
C1054 C1055 1.367 . S
C1054 C1062 1.378 . S
C1055 C1054 1.367 . S
C1055 C1063 1.433 . S
C1056 H1052 0.929 . S
C1056 C1058 1.378 . S
C1056 C1060 1.350 . S
C1057 C1060 1.463 . S
C1057 C1062 1.350 . S
C1057 N1065 1.427 . S
C1058 H1049 0.930 . S
C1058 C1056 1.378 . S
C1058 C1059 1.367 . S
C1059 C1058 1.367 . S
C1059 C1061 1.433 . S
C1060 C1056 1.350 . S
C1060 C1057 1.463 . S
C1060 N1064 1.427 . S
C1061 H1051 0.929 . S
C1061 C1059 1.433 . S
C1061 N1064 1.384 . S
C1062 H1053 0.929 . S
C1062 C1054 1.378 . S
C1062 C1057 1.350 . S
C1063 H1050 0.929 . S
C1063 C1055 1.433 . S
C1063 N1065 1.384 . S
N1064 C1060 1.427 . S
N1064 C1061 1.384 . S
N1065 C1057 1.427 . S
N1065 C1063 1.384 . S
H1066 C1072 0.930 . S
H1067 C1076 0.930 . S
H1068 C1081 0.929 . S
H1069 C1079 0.929 . S
H1070 C1074 0.929 . S
H1071 C1080 0.929 . S
C1072 H1066 0.930 . S
C1072 C1073 1.367 . S
C1072 C1080 1.378 . S
C1073 C1072 1.367 . S
C1073 C1081 1.433 . S
C1074 H1070 0.929 . S
C1074 C1076 1.378 . S
C1074 C1078 1.350 . S
C1075 C1078 1.463 . S
C1075 C1080 1.350 . S
C1075 N1083 1.427 . S
C1076 H1067 0.930 . S
C1076 C1074 1.378 . S
C1076 C1077 1.367 . S
C1077 C1076 1.367 . S
C1077 C1079 1.433 . S
C1078 C1074 1.350 . S
C1078 C1075 1.463 . S
C1078 N1082 1.427 . S
C1079 H1069 0.929 . S
C1079 C1077 1.433 . S
C1079 N1082 1.384 . S
C1080 H1071 0.929 . S
C1080 C1072 1.378 . S
C1080 C1075 1.350 . S
C1081 H1068 0.929 . S
C1081 C1073 1.433 . S
C1081 N1083 1.384 . S
N1082 C1078 1.427 . S
N1082 C1079 1.384 . S
N1083 C1075 1.427 . S
N1083 C1081 1.384 . S
H1084 C1090 0.930 . S
H1085 C1094 0.930 . S
H1086 C1099 0.929 . S
H1087 C1097 0.929 . S
H1088 C1092 0.929 . S
H1089 C1098 0.929 . S
C1090 H1084 0.930 . S
C1090 C1091 1.367 . S
C1090 C1098 1.378 . S
C1091 C1090 1.367 . S
C1091 C1099 1.433 . S
C1092 H1088 0.929 . S
C1092 C1094 1.378 . S
C1092 C1096 1.350 . S
C1093 C1096 1.463 . S
C1093 C1098 1.350 . S
C1093 N1101 1.427 . S
C1094 H1085 0.930 . S
C1094 C1092 1.378 . S
C1094 C1095 1.367 . S
C1095 C1094 1.367 . S
C1095 C1097 1.433 . S
C1096 C1092 1.350 . S
C1096 C1093 1.463 . S
C1096 N1100 1.427 . S
C1097 H1087 0.929 . S
C1097 C1095 1.433 . S
C1097 N1100 1.384 . S
C1098 H1089 0.929 . S
C1098 C1090 1.378 . S
C1098 C1093 1.350 . S
C1099 H1086 0.929 . S
C1099 C1091 1.433 . S
C1099 N1101 1.384 . S
N1100 C1096 1.427 . S
N1100 C1097 1.384 . S
N1101 C1093 1.427 . S
N1101 C1099 1.384 . S
H1102 C1108 0.930 . S
H1103 C1112 0.930 . S
H1104 C1117 0.929 . S
H1105 C1115 0.929 . S
H1106 C1110 0.929 . S
H1107 C1116 0.929 . S
C1108 H1102 0.930 . S
C1108 C1109 1.367 . S
C1108 C1116 1.378 . S
C1109 C1108 1.367 . S
C1109 C1117 1.433 . S
C1110 H1106 0.929 . S
C1110 C1112 1.378 . S
C1110 C1114 1.350 . S
C1111 C1114 1.463 . S
C1111 C1116 1.350 . S
C1111 N1119 1.427 . S
C1112 H1103 0.930 . S
C1112 C1110 1.378 . S
C1112 C1113 1.367 . S
C1113 C1112 1.367 . S
C1113 C1115 1.433 . S
C1114 C1110 1.350 . S
C1114 C1111 1.463 . S
C1114 N1118 1.427 . S
C1115 H1105 0.929 . S
C1115 C1113 1.433 . S
C1115 N1118 1.384 . S
C1116 H1107 0.929 . S
C1116 C1108 1.378 . S
C1116 C1111 1.350 . S
C1117 H1104 0.929 . S
C1117 C1109 1.433 . S
C1117 N1119 1.384 . S
N1118 C1114 1.427 . S
N1118 C1115 1.384 . S
N1119 C1111 1.427 . S
N1119 C1117 1.384 . S
H1120 C1126 0.930 . S
H1121 C1130 0.930 . S
H1122 C1135 0.929 . S
H1123 C1133 0.929 1_565 S
H1124 C1128 0.929 . S
H1125 C1134 0.929 . S
C1126 H1120 0.930 . S
C1126 C1127 1.367 . S
C1126 C1134 1.378 . S
C1127 C1126 1.367 . S
C1127 C1135 1.433 1_565 S
C1128 H1124 0.929 . S
C1128 C1130 1.378 . S
C1128 C1132 1.350 1_455 S
C1129 C1132 1.463 . S
C1129 C1134 1.350 1_545 S
C1129 N1137 1.427 . S
C1130 H1121 0.930 . S
C1130 C1128 1.378 . S
C1130 C1131 1.367 . S
C1131 C1130 1.367 . S
C1131 C1133 1.433 1_455 S
C1132 C1128 1.350 1_655 S
C1132 C1129 1.463 . S
C1132 N1136 1.432 . S
C1133 H1123 0.929 1_545 S
C1133 C1131 1.433 1_655 S
C1133 N1136 1.389 . S
C1134 H1125 0.929 . S
C1134 C1126 1.378 . S
C1134 C1129 1.350 1_565 S
C1135 H1122 0.929 . S
C1135 C1127 1.433 1_545 S
C1135 N1137 1.384 . S
N1136 C1132 1.432 . S
N1136 C1133 1.389 . S
N1137 C1129 1.427 . S
N1137 C1135 1.384 . S
H1138 C1144 0.930 . S
H1139 C1148 0.930 . S
H1140 C1153 0.929 . S
H1141 C1151 0.929 . S
H1142 C1146 0.929 . S
H1143 C1152 0.929 . S
C1144 H1138 0.930 . S
C1144 C1145 1.367 . S
C1144 C1152 1.378 . S
C1145 C1144 1.367 . S
C1145 C1153 1.433 . S
C1146 H1142 0.929 . S
C1146 C1148 1.378 . S
C1146 C1150 1.350 . S
C1147 C1150 1.463 . S
C1147 C1152 1.350 . S
C1147 N1155 1.427 . S
C1148 H1139 0.930 . S
C1148 C1146 1.378 . S
C1148 C1149 1.367 . S
C1149 C1148 1.367 . S
C1149 C1151 1.433 . S
C1150 C1146 1.350 . S
C1150 C1147 1.463 . S
C1150 N1154 1.427 . S
C1151 H1141 0.929 . S
C1151 C1149 1.433 . S
C1151 N1154 1.384 . S
C1152 H1143 0.929 . S
C1152 C1144 1.378 . S
C1152 C1147 1.350 . S
C1153 H1140 0.929 . S
C1153 C1145 1.433 . S
C1153 N1155 1.384 . S
N1154 C1150 1.427 . S
N1154 C1151 1.384 . S
N1155 C1147 1.427 . S
N1155 C1153 1.384 . S
H1156 C1162 0.930 . S
H1157 C1166 0.930 . S
H1158 C1171 0.929 . S
H1159 C1169 0.929 . S
H1160 C1164 0.929 . S
H1161 C1170 0.929 . S
C1162 H1156 0.930 . S
C1162 C1163 1.367 . S
C1162 C1170 1.378 . S
C1163 C1162 1.367 . S
C1163 C1171 1.433 1_545 S
C1164 H1160 0.929 . S
C1164 C1166 1.378 . S
C1164 C1168 1.350 1_565 S
C1165 C1168 1.463 . S
C1165 C1170 1.350 . S
C1165 N1173 1.427 1_545 S
C1166 H1157 0.930 . S
C1166 C1164 1.378 . S
C1166 C1167 1.367 1_565 S
C1167 C1166 1.367 1_545 S
C1167 C1169 1.433 . S
C1168 C1164 1.350 1_545 S
C1168 C1165 1.463 . S
C1168 N1172 1.427 . S
C1169 H1159 0.929 . S
C1169 C1167 1.433 . S
C1169 N1172 1.384 . S
C1170 H1161 0.929 . S
C1170 C1162 1.378 . S
C1170 C1165 1.350 . S
C1171 H1158 0.929 . S
C1171 C1163 1.433 1_565 S
C1171 N1173 1.384 . S
N1172 C1168 1.427 . S
N1172 C1169 1.384 . S
N1173 C1165 1.427 1_565 S
N1173 C1171 1.384 . S
H1174 C1180 0.930 . S
H1175 C1184 0.930 . S
H1176 C1189 0.929 . S
H1177 C1187 0.929 . S
H1178 C1182 0.929 . S
H1179 C1188 0.929 . S
C1180 H1174 0.930 . S
C1180 C1181 1.367 . S
C1180 C1188 1.378 . S
C1181 C1180 1.367 . S
C1181 C1189 1.433 . S
C1182 H1178 0.929 . S
C1182 C1184 1.378 . S
C1182 C1186 1.350 . S
C1183 C1186 1.463 . S
C1183 C1188 1.350 . S
C1183 N1191 1.427 . S
C1184 H1175 0.930 . S
C1184 C1182 1.378 . S
C1184 C1185 1.367 . S
C1185 C1184 1.367 . S
C1185 C1187 1.433 . S
C1186 C1182 1.350 . S
C1186 C1183 1.463 . S
C1186 N1190 1.427 . S
C1187 H1177 0.929 . S
C1187 C1185 1.433 . S
C1187 N1190 1.384 . S
C1188 H1179 0.929 . S
C1188 C1180 1.378 . S
C1188 C1183 1.350 . S
C1189 H1176 0.929 . S
C1189 C1181 1.433 . S
C1189 N1191 1.384 . S
N1190 C1186 1.427 . S
N1190 C1187 1.384 . S
N1191 C1183 1.427 . S
N1191 C1189 1.384 . S
H1192 C1198 0.930 . S
H1193 C1202 0.930 . S
H1194 C1207 0.929 . S
H1195 C1205 0.929 . S
H1196 C1200 0.929 . S
H1197 C1206 0.929 . S
C1198 H1192 0.930 . S
C1198 C1199 1.367 1_565 S
C1198 C1206 1.378 . S
C1199 C1198 1.367 1_545 S
C1199 C1207 1.433 . S
C1200 H1196 0.929 . S
C1200 C1202 1.378 . S
C1200 C1204 1.350 . S
C1201 C1204 1.463 . S
C1201 C1206 1.350 1_545 S
C1201 N1209 1.427 . S
C1202 H1193 0.930 . S
C1202 C1200 1.378 . S
C1202 C1203 1.367 1_655 S
C1203 C1202 1.367 1_455 S
C1203 C1205 1.433 1_545 S
C1204 C1200 1.350 . S
C1204 C1201 1.463 . S
C1204 N1208 1.428 1_545 S
C1205 H1195 0.929 . S
C1205 C1203 1.433 1_565 S
C1205 N1208 1.383 1_455 S
C1206 H1197 0.929 . S
C1206 C1198 1.378 . S
C1206 C1201 1.350 1_565 S
C1207 H1194 0.929 . S
C1207 C1199 1.433 . S
C1207 N1209 1.384 . S
N1208 C1204 1.428 1_565 S
N1208 C1205 1.383 1_655 S
N1209 C1201 1.427 . S
N1209 C1207 1.384 . S
H1210 C1216 0.930 . S
H1211 C1220 0.930 . S
H1212 C1225 0.929 . S
H1213 C1223 0.929 . S
H1214 C1218 0.929 . S
H1215 C1224 0.929 . S
C1216 H1210 0.930 . S
C1216 C1217 1.367 . S
C1216 C1224 1.378 . S
C1217 C1216 1.367 . S
C1217 C1225 1.433 . S
C1218 H1214 0.929 . S
C1218 C1220 1.378 . S
C1218 C1222 1.350 . S
C1219 C1222 1.463 . S
C1219 C1224 1.350 . S
C1219 N1227 1.427 . S
C1220 H1211 0.930 . S
C1220 C1218 1.378 . S
C1220 C1221 1.367 . S
C1221 C1220 1.367 . S
C1221 C1223 1.433 . S
C1222 C1218 1.350 . S
C1222 C1219 1.463 . S
C1222 N1226 1.427 . S
C1223 H1213 0.929 . S
C1223 C1221 1.433 . S
C1223 N1226 1.384 . S
C1224 H1215 0.929 . S
C1224 C1216 1.378 . S
C1224 C1219 1.350 . S
C1225 H1212 0.929 . S
C1225 C1217 1.433 . S
C1225 N1227 1.384 . S
N1226 C1222 1.427 . S
N1226 C1223 1.384 . S
N1227 C1219 1.427 . S
N1227 C1225 1.384 . S
H1228 C1234 0.930 1_565 S
H1229 C1238 0.930 . S
H1230 C1243 0.929 . S
H1231 C1241 0.929 1_565 S
H1232 C1236 0.929 . S
H1233 C1242 0.929 1_565 S
C1234 H1228 0.930 1_545 S
C1234 C1235 1.367 . S
C1234 C1242 1.378 . S
C1235 C1234 1.367 . S
C1235 C1243 1.433 . S
C1236 H1232 0.929 . S
C1236 C1238 1.378 . S
C1236 C1240 1.350 . S
C1237 C1240 1.463 . S
C1237 C1242 1.350 . S
C1237 N1245 1.427 . S
C1238 H1229 0.930 . S
C1238 C1236 1.378 . S
C1238 C1239 1.367 . S
C1239 C1238 1.367 . S
C1239 C1241 1.433 . S
C1240 C1236 1.350 . S
C1240 C1237 1.463 . S
C1240 N1244 1.427 . S
C1241 H1231 0.929 1_545 S
C1241 C1239 1.433 . S
C1241 N1244 1.384 . S
C1242 H1233 0.929 1_545 S
C1242 C1234 1.378 . S
C1242 C1237 1.350 . S
C1243 H1230 0.929 . S
C1243 C1235 1.433 . S
C1243 N1245 1.384 . S
N1244 C1240 1.427 . S
N1244 C1241 1.384 . S
N1245 C1237 1.427 . S
N1245 C1243 1.384 . S
H1246 C1252 0.930 . S
H1247 C1256 0.930 . S
H1248 C1261 0.929 . S
H1249 C1259 0.929 . S
H1250 C1254 0.929 . S
H1251 C1260 0.929 . S
C1252 H1246 0.930 . S
C1252 C1253 1.367 . S
C1252 C1260 1.378 . S
C1253 C1252 1.367 . S
C1253 C1261 1.433 . S
C1254 H1250 0.929 . S
C1254 C1256 1.378 . S
C1254 C1258 1.350 . S
C1255 C1258 1.463 . S
C1255 C1260 1.350 . S
C1255 N1263 1.427 . S
C1256 H1247 0.930 . S
C1256 C1254 1.378 . S
C1256 C1257 1.367 . S
C1257 C1256 1.367 . S
C1257 C1259 1.433 . S
C1258 C1254 1.350 . S
C1258 C1255 1.463 . S
C1258 N1262 1.427 . S
C1259 H1249 0.929 . S
C1259 C1257 1.433 . S
C1259 N1262 1.384 . S
C1260 H1251 0.929 . S
C1260 C1252 1.378 . S
C1260 C1255 1.350 . S
C1261 H1248 0.929 . S
C1261 C1253 1.433 . S
C1261 N1263 1.384 . S
N1262 C1258 1.427 . S
N1262 C1259 1.384 . S
N1263 C1255 1.427 . S
N1263 C1261 1.384 . S
H1264 C1270 0.930 . S
H1265 C1274 0.930 . S
H1266 C1279 0.929 . S
H1267 C1277 0.929 . S
H1268 C1272 0.929 . S
H1269 C1278 0.929 . S
C1270 H1264 0.930 . S
C1270 C1271 1.365 1_556 S
C1270 C1278 1.378 1_556 S
C1271 C1270 1.365 1_554 S
C1271 C1279 1.437 . S
C1272 H1268 0.929 . S
C1272 C1274 1.378 . S
C1272 C1276 1.350 . S
C1273 C1276 1.463 . S
C1273 C1278 1.350 . S
C1273 N1281 1.427 . S
C1274 H1265 0.930 . S
C1274 C1272 1.378 . S
C1274 C1275 1.367 . S
C1275 C1274 1.367 . S
C1275 C1277 1.433 . S
C1276 C1272 1.350 . S
C1276 C1273 1.463 . S
C1276 N1280 1.427 . S
C1277 H1267 0.929 . S
C1277 C1275 1.433 . S
C1277 N1280 1.384 . S
C1278 H1269 0.929 . S
C1278 C1270 1.378 1_554 S
C1278 C1273 1.350 . S
C1279 H1266 0.929 . S
C1279 C1271 1.437 . S
C1279 N1281 1.384 . S
N1280 C1276 1.427 . S
N1280 C1277 1.384 . S
N1281 C1273 1.427 . S
N1281 C1279 1.384 . S
H1282 C1288 0.930 . S
H1283 C1292 0.930 . S
H1284 C1297 0.929 . S
H1285 C1295 0.929 . S
H1286 C1290 0.929 . S
H1287 C1296 0.929 . S
C1288 H1282 0.930 . S
C1288 C1289 1.367 . S
C1288 C1296 1.378 . S
C1289 C1288 1.367 . S
C1289 C1297 1.433 . S
C1290 H1286 0.929 . S
C1290 C1292 1.378 . S
C1290 C1294 1.350 . S
C1291 C1294 1.463 . S
C1291 C1296 1.350 . S
C1291 N1299 1.427 . S
C1292 H1283 0.930 . S
C1292 C1290 1.378 . S
C1292 C1293 1.367 . S
C1293 C1292 1.367 . S
C1293 C1295 1.433 . S
C1294 C1290 1.350 . S
C1294 C1291 1.463 . S
C1294 N1298 1.427 . S
C1295 H1285 0.929 . S
C1295 C1293 1.433 . S
C1295 N1298 1.384 . S
C1296 H1287 0.929 . S
C1296 C1288 1.378 . S
C1296 C1291 1.350 . S
C1297 H1284 0.929 . S
C1297 C1289 1.433 . S
C1297 N1299 1.384 . S
N1298 C1294 1.427 . S
N1298 C1295 1.384 . S
N1299 C1291 1.427 . S
N1299 C1297 1.384 . S
H1300 C1306 0.930 . S
H1301 C1310 0.930 . S
H1302 C1315 0.929 . S
H1303 C1313 0.929 . S
H1304 C1308 0.929 . S
H1305 C1314 0.929 . S
C1306 H1300 0.930 . S
C1306 C1307 1.367 . S
C1306 C1314 1.378 . S
C1307 C1306 1.367 . S
C1307 C1315 1.433 . S
C1308 H1304 0.929 . S
C1308 C1310 1.378 . S
C1308 C1312 1.350 . S
C1309 C1312 1.463 . S
C1309 C1314 1.350 . S
C1309 N1317 1.427 . S
C1310 H1301 0.930 . S
C1310 C1308 1.378 . S
C1310 C1311 1.367 . S
C1311 C1310 1.367 . S
C1311 C1313 1.433 . S
C1312 C1308 1.350 . S
C1312 C1309 1.463 . S
C1312 N1316 1.427 . S
C1313 H1303 0.929 . S
C1313 C1311 1.433 . S
C1313 N1316 1.384 . S
C1314 H1305 0.929 . S
C1314 C1306 1.378 . S
C1314 C1309 1.350 . S
C1315 H1302 0.929 . S
C1315 C1307 1.433 . S
C1315 N1317 1.384 . S
N1316 C1312 1.427 . S
N1316 C1313 1.384 . S
N1317 C1309 1.427 . S
N1317 C1315 1.384 . S
H1318 C1324 0.930 . S
H1319 C1328 0.930 . S
H1320 C1333 0.929 . S
H1321 C1331 0.929 . S
H1322 C1326 0.929 . S
H1323 C1332 0.929 . S
C1324 H1318 0.930 . S
C1324 C1325 1.367 . S
C1324 C1332 1.378 . S
C1325 C1324 1.367 . S
C1325 C1333 1.433 . S
C1326 H1322 0.929 . S
C1326 C1328 1.378 . S
C1326 C1330 1.350 . S
C1327 C1330 1.463 . S
C1327 C1332 1.350 . S
C1327 N1335 1.427 . S
C1328 H1319 0.930 . S
C1328 C1326 1.378 . S
C1328 C1329 1.367 . S
C1329 C1328 1.367 . S
C1329 C1331 1.433 . S
C1330 C1326 1.350 . S
C1330 C1327 1.463 . S
C1330 N1334 1.427 . S
C1331 H1321 0.929 . S
C1331 C1329 1.433 . S
C1331 N1334 1.384 . S
C1332 H1323 0.929 . S
C1332 C1324 1.378 . S
C1332 C1327 1.350 . S
C1333 H1320 0.929 . S
C1333 C1325 1.433 . S
C1333 N1335 1.384 . S
N1334 C1330 1.427 . S
N1334 C1331 1.384 . S
N1335 C1327 1.427 . S
N1335 C1333 1.384 . S
H1336 C1342 0.930 . S
H1337 C1346 0.930 . S
H1338 C1351 0.929 . S
H1339 C1349 0.929 . S
H1340 C1344 0.929 . S
H1341 C1350 0.929 . S
C1342 H1336 0.930 . S
C1342 C1343 1.367 . S
C1342 C1350 1.378 . S
C1343 C1342 1.367 . S
C1343 C1351 1.433 . S
C1344 H1340 0.929 . S
C1344 C1346 1.378 . S
C1344 C1348 1.350 . S
C1345 C1348 1.463 . S
C1345 C1350 1.350 . S
C1345 N1353 1.427 . S
C1346 H1337 0.930 . S
C1346 C1344 1.378 . S
C1346 C1347 1.367 . S
C1347 C1346 1.367 . S
C1347 C1349 1.433 . S
C1348 C1344 1.350 . S
C1348 C1345 1.463 . S
C1348 N1352 1.427 . S
C1349 H1339 0.929 . S
C1349 C1347 1.433 . S
C1349 N1352 1.384 . S
C1350 H1341 0.929 . S
C1350 C1342 1.378 . S
C1350 C1345 1.350 . S
C1351 H1338 0.929 . S
C1351 C1343 1.433 . S
C1351 N1353 1.384 . S
N1352 C1348 1.427 . S
N1352 C1349 1.384 . S
N1353 C1345 1.427 . S
N1353 C1351 1.384 . S
H1354 C1360 0.930 . S
H1355 C1364 0.930 . S
H1356 C1369 0.929 . S
H1357 C1367 0.929 . S
H1358 C1362 0.929 . S
H1359 C1368 0.929 . S
C1360 H1354 0.930 . S
C1360 C1361 1.367 . S
C1360 C1368 1.378 . S
C1361 C1360 1.367 . S
C1361 C1369 1.433 . S
C1362 H1358 0.929 . S
C1362 C1364 1.378 . S
C1362 C1366 1.350 . S
C1363 C1366 1.463 . S
C1363 C1368 1.350 . S
C1363 N1371 1.427 . S
C1364 H1355 0.930 . S
C1364 C1362 1.378 . S
C1364 C1365 1.367 . S
C1365 C1364 1.367 . S
C1365 C1367 1.433 . S
C1366 C1362 1.350 . S
C1366 C1363 1.463 . S
C1366 N1370 1.427 . S
C1367 H1357 0.929 . S
C1367 C1365 1.433 . S
C1367 N1370 1.384 . S
C1368 H1359 0.929 . S
C1368 C1360 1.378 . S
C1368 C1363 1.350 . S
C1369 H1356 0.929 . S
C1369 C1361 1.433 . S
C1369 N1371 1.384 . S
N1370 C1366 1.427 . S
N1370 C1367 1.384 . S
N1371 C1363 1.427 . S
N1371 C1369 1.384 . S
H1372 C1378 0.930 . S
H1373 C1382 0.930 . S
H1374 C1387 0.929 . S
H1375 C1385 0.929 . S
H1376 C1380 0.929 . S
H1377 C1386 0.929 . S
C1378 H1372 0.930 . S
C1378 C1379 1.367 . S
C1378 C1386 1.378 . S
C1379 C1378 1.367 . S
C1379 C1387 1.433 . S
C1380 H1376 0.929 . S
C1380 C1382 1.378 . S
C1380 C1384 1.350 . S
C1381 C1384 1.463 . S
C1381 C1386 1.350 . S
C1381 N1389 1.427 . S
C1382 H1373 0.930 . S
C1382 C1380 1.378 . S
C1382 C1383 1.367 . S
C1383 C1382 1.367 . S
C1383 C1385 1.433 . S
C1384 C1380 1.350 . S
C1384 C1381 1.463 . S
C1384 N1388 1.427 . S
C1385 H1375 0.929 . S
C1385 C1383 1.433 . S
C1385 N1388 1.384 . S
C1386 H1377 0.929 . S
C1386 C1378 1.378 . S
C1386 C1381 1.350 . S
C1387 H1374 0.929 . S
C1387 C1379 1.433 . S
C1387 N1389 1.384 . S
N1388 C1384 1.427 . S
N1388 C1385 1.384 . S
N1389 C1381 1.427 . S
N1389 C1387 1.384 . S
H1390 C1396 0.930 . S
H1391 C1400 0.930 . S
H1392 C1405 0.929 . S
H1393 C1403 0.929 . S
H1394 C1398 0.929 . S
H1395 C1404 0.929 . S
C1396 H1390 0.930 . S
C1396 C1397 1.367 . S
C1396 C1404 1.378 . S
C1397 C1396 1.367 . S
C1397 C1405 1.433 . S
C1398 H1394 0.929 . S
C1398 C1400 1.378 . S
C1398 C1402 1.350 . S
C1399 C1402 1.463 . S
C1399 C1404 1.350 . S
C1399 N1407 1.427 . S
C1400 H1391 0.930 . S
C1400 C1398 1.378 . S
C1400 C1401 1.367 . S
C1401 C1400 1.367 . S
C1401 C1403 1.433 . S
C1402 C1398 1.350 . S
C1402 C1399 1.463 . S
C1402 N1406 1.427 . S
C1403 H1393 0.929 . S
C1403 C1401 1.433 . S
C1403 N1406 1.384 . S
C1404 H1395 0.929 . S
C1404 C1396 1.378 . S
C1404 C1399 1.350 . S
C1405 H1392 0.929 . S
C1405 C1397 1.433 . S
C1405 N1407 1.384 . S
N1406 C1402 1.427 . S
N1406 C1403 1.384 . S
N1407 C1399 1.427 . S
N1407 C1405 1.384 . S
H1408 C1414 0.930 . S
H1409 C1418 0.930 . S
H1410 C1423 0.929 . S
H1411 C1421 0.929 . S
H1412 C1416 0.929 . S
H1413 C1422 0.929 . S
C1414 H1408 0.930 . S
C1414 C1415 1.367 . S
C1414 C1422 1.378 . S
C1415 C1414 1.367 . S
C1415 C1423 1.433 . S
C1416 H1412 0.929 . S
C1416 C1418 1.378 . S
C1416 C1420 1.350 . S
C1417 C1420 1.463 . S
C1417 C1422 1.350 . S
C1417 N1425 1.427 . S
C1418 H1409 0.930 . S
C1418 C1416 1.378 . S
C1418 C1419 1.367 . S
C1419 C1418 1.367 . S
C1419 C1421 1.433 . S
C1420 C1416 1.350 . S
C1420 C1417 1.463 . S
C1420 N1424 1.427 . S
C1421 H1411 0.929 . S
C1421 C1419 1.433 . S
C1421 N1424 1.384 . S
C1422 H1413 0.929 . S
C1422 C1414 1.378 . S
C1422 C1417 1.350 . S
C1423 H1410 0.929 . S
C1423 C1415 1.433 . S
C1423 N1425 1.384 . S
N1424 C1420 1.427 . S
N1424 C1421 1.384 . S
N1425 C1417 1.427 . S
N1425 C1423 1.384 . S
H1426 C1432 0.930 . S
H1427 C1436 0.930 . S
H1428 C1441 0.929 . S
H1429 C1439 0.929 . S
H1430 C1434 0.929 . S
H1431 C1440 0.929 . S
C1432 H1426 0.930 . S
C1432 C1433 1.367 . S
C1432 C1440 1.378 . S
C1433 C1432 1.367 . S
C1433 C1441 1.433 . S
C1434 H1430 0.929 . S
C1434 C1436 1.378 . S
C1434 C1438 1.350 . S
C1435 C1438 1.463 . S
C1435 C1440 1.350 . S
C1435 N1443 1.427 . S
C1436 H1427 0.930 . S
C1436 C1434 1.378 . S
C1436 C1437 1.367 . S
C1437 C1436 1.367 . S
C1437 C1439 1.433 . S
C1438 C1434 1.350 . S
C1438 C1435 1.463 . S
C1438 N1442 1.427 . S
C1439 H1429 0.929 . S
C1439 C1437 1.433 . S
C1439 N1442 1.384 . S
C1440 H1431 0.929 . S
C1440 C1432 1.378 . S
C1440 C1435 1.350 . S
C1441 H1428 0.929 . S
C1441 C1433 1.433 . S
C1441 N1443 1.384 . S
N1442 C1438 1.427 . S
N1442 C1439 1.384 . S
N1443 C1435 1.427 . S
N1443 C1441 1.384 . S
H1444 C1450 0.930 . S
H1445 C1454 0.930 . S
H1446 C1459 0.929 . S
H1447 C1457 0.929 . S
H1448 C1452 0.929 . S
H1449 C1458 0.929 . S
C1450 H1444 0.930 . S
C1450 C1451 1.367 . S
C1450 C1458 1.378 . S
C1451 C1450 1.367 . S
C1451 C1459 1.433 . S
C1452 H1448 0.929 . S
C1452 C1454 1.378 . S
C1452 C1456 1.350 . S
C1453 C1456 1.463 . S
C1453 C1458 1.350 . S
C1453 N1461 1.427 . S
C1454 H1445 0.930 . S
C1454 C1452 1.378 . S
C1454 C1455 1.367 . S
C1455 C1454 1.367 . S
C1455 C1457 1.433 . S
C1456 C1452 1.350 . S
C1456 C1453 1.463 . S
C1456 N1460 1.427 . S
C1457 H1447 0.929 . S
C1457 C1455 1.433 . S
C1457 N1460 1.384 . S
C1458 H1449 0.929 . S
C1458 C1450 1.378 . S
C1458 C1453 1.350 . S
C1459 H1446 0.929 . S
C1459 C1451 1.433 . S
C1459 N1461 1.384 . S
N1460 C1456 1.427 . S
N1460 C1457 1.384 . S
N1461 C1453 1.427 . S
N1461 C1459 1.384 . S
H1462 C1468 0.930 . S
H1463 C1472 0.930 . S
H1464 C1477 0.929 . S
H1465 C1475 0.929 . S
H1466 C1470 0.929 . S
H1467 C1476 0.929 . S
C1468 H1462 0.930 . S
C1468 C1469 1.367 . S
C1468 C1476 1.378 . S
C1469 C1468 1.367 . S
C1469 C1477 1.433 . S
C1470 H1466 0.929 . S
C1470 C1472 1.378 . S
C1470 C1474 1.350 . S
C1471 C1474 1.463 . S
C1471 C1476 1.350 . S
C1471 N1479 1.427 . S
C1472 H1463 0.930 . S
C1472 C1470 1.378 . S
C1472 C1473 1.367 . S
C1473 C1472 1.367 . S
C1473 C1475 1.433 . S
C1474 C1470 1.350 . S
C1474 C1471 1.463 . S
C1474 N1478 1.427 . S
C1475 H1465 0.929 . S
C1475 C1473 1.433 . S
C1475 N1478 1.384 . S
C1476 H1467 0.929 . S
C1476 C1468 1.378 . S
C1476 C1471 1.350 . S
C1477 H1464 0.929 . S
C1477 C1469 1.433 . S
C1477 N1479 1.384 . S
N1478 C1474 1.427 . S
N1478 C1475 1.384 . S
N1479 C1471 1.427 . S
N1479 C1477 1.384 . S
H1480 C1486 0.930 . S
H1481 C1490 0.917 1_455 S
H1482 C1495 0.929 . S
H1483 C1493 0.929 . S
H1484 C1488 0.914 1_455 S
H1485 C1494 0.929 . S
C1486 H1480 0.930 . S
C1486 C1487 1.367 . S
C1486 C1494 1.378 . S
C1487 C1486 1.367 . S
C1487 C1495 1.433 1_655 S
C1488 H1484 0.914 1_655 S
C1488 C1490 1.375 . S
C1488 C1492 1.369 . S
C1489 C1492 1.463 . S
C1489 C1494 1.350 . S
C1489 N1497 1.427 1_655 S
C1490 H1481 0.917 1_655 S
C1490 C1488 1.375 . S
C1490 C1491 1.367 . S
C1491 C1490 1.367 . S
C1491 C1493 1.433 . S
C1492 C1488 1.369 . S
C1492 C1489 1.463 . S
C1492 N1496 1.427 . S
C1493 H1483 0.929 . S
C1493 C1491 1.433 . S
C1493 N1496 1.384 . S
C1494 H1485 0.929 . S
C1494 C1486 1.378 . S
C1494 C1489 1.350 . S
C1495 H1482 0.929 . S
C1495 C1487 1.433 1_455 S
C1495 N1497 1.384 . S
N1496 C1492 1.427 . S
N1496 C1493 1.384 . S
N1497 C1489 1.427 1_455 S
N1497 C1495 1.384 . S
H1498 C1504 0.930 . S
H1499 C1508 0.930 . S
H1500 C1513 0.929 . S
H1501 C1511 0.929 . S
H1502 C1506 0.929 . S
H1503 C1512 0.929 . S
C1504 H1498 0.930 . S
C1504 C1505 1.367 . S
C1504 C1512 1.378 . S
C1505 C1504 1.367 . S
C1505 C1513 1.433 . S
C1506 H1502 0.929 . S
C1506 C1508 1.378 . S
C1506 C1510 1.350 . S
C1507 C1510 1.463 . S
C1507 C1512 1.350 . S
C1507 N1515 1.427 . S
C1508 H1499 0.930 . S
C1508 C1506 1.378 . S
C1508 C1509 1.367 . S
C1509 C1508 1.367 . S
C1509 C1511 1.433 . S
C1510 C1506 1.350 . S
C1510 C1507 1.463 . S
C1510 N1514 1.427 . S
C1511 H1501 0.929 . S
C1511 C1509 1.433 . S
C1511 N1514 1.384 . S
C1512 H1503 0.929 . S
C1512 C1504 1.378 . S
C1512 C1507 1.350 . S
C1513 H1500 0.929 . S
C1513 C1505 1.433 . S
C1513 N1515 1.384 . S
N1514 C1510 1.427 . S
N1514 C1511 1.384 . S
N1515 C1507 1.427 . S
N1515 C1513 1.384 . S
H1516 C1522 0.930 . S
H1517 C1526 0.930 . S
H1518 C1531 0.929 . S
H1519 C1529 0.929 . S
H1520 C1524 0.929 . S
H1521 C1530 0.929 . S
C1522 H1516 0.930 . S
C1522 C1523 1.367 . S
C1522 C1530 1.378 . S
C1523 C1522 1.367 . S
C1523 C1531 1.433 . S
C1524 H1520 0.929 . S
C1524 C1526 1.378 . S
C1524 C1528 1.350 1_554 S
C1525 C1528 1.463 . S
C1525 C1530 1.350 . S
C1525 N1533 1.427 . S
C1526 H1517 0.930 . S
C1526 C1524 1.378 . S
C1526 C1527 1.367 . S
C1527 C1526 1.367 . S
C1527 C1529 1.433 1_554 S
C1528 C1524 1.350 1_556 S
C1528 C1525 1.463 . S
C1528 N1532 1.427 . S
C1529 H1519 0.929 . S
C1529 C1527 1.433 1_556 S
C1529 N1532 1.384 . S
C1530 H1521 0.929 . S
C1530 C1522 1.378 . S
C1530 C1525 1.350 . S
C1531 H1518 0.929 . S
C1531 C1523 1.433 . S
C1531 N1533 1.384 . S
N1532 C1528 1.427 . S
N1532 C1529 1.384 . S
N1533 C1525 1.427 . S
N1533 C1531 1.384 . S
H1534 C1540 0.930 . S
H1535 C1544 0.930 . S
H1536 C1549 0.929 . S
H1537 C1547 0.929 . S
H1538 C1542 0.929 . S
H1539 C1548 0.929 . S
C1540 H1534 0.930 . S
C1540 C1541 1.367 . S
C1540 C1548 1.378 1_455 S
C1541 C1540 1.367 . S
C1541 C1549 1.433 . S
C1542 H1538 0.929 . S
C1542 C1544 1.378 . S
C1542 C1546 1.350 . S
C1543 C1546 1.463 . S
C1543 C1548 1.350 . S
C1543 N1551 1.427 . S
C1544 H1535 0.930 . S
C1544 C1542 1.378 . S
C1544 C1545 1.367 . S
C1545 C1544 1.367 . S
C1545 C1547 1.433 . S
C1546 C1542 1.350 . S
C1546 C1543 1.463 . S
C1546 N1550 1.427 . S
C1547 H1537 0.929 . S
C1547 C1545 1.433 . S
C1547 N1550 1.384 . S
C1548 H1539 0.929 . S
C1548 C1540 1.378 1_655 S
C1548 C1543 1.350 . S
C1549 H1536 0.929 . S
C1549 C1541 1.433 . S
C1549 N1551 1.384 1_455 S
N1550 C1546 1.427 . S
N1550 C1547 1.384 . S
N1551 C1543 1.427 . S
N1551 C1549 1.384 1_655 S
H1552 C1558 0.930 . S
H1553 C1562 0.930 1_565 S
H1554 C1567 0.929 . S
H1555 C1565 0.929 . S
H1556 C1560 0.929 . S
H1557 C1566 0.929 . S
C1558 H1552 0.930 . S
C1558 C1559 1.367 . S
C1558 C1566 1.378 . S
C1559 C1558 1.367 . S
C1559 C1567 1.433 . S
C1560 H1556 0.929 . S
C1560 C1562 1.378 . S
C1560 C1564 1.350 . S
C1561 C1564 1.463 . S
C1561 C1566 1.350 . S
C1561 N1569 1.427 . S
C1562 H1553 0.930 1_545 S
C1562 C1560 1.378 . S
C1562 C1563 1.367 . S
C1563 C1562 1.367 . S
C1563 C1565 1.433 . S
C1564 C1560 1.350 . S
C1564 C1561 1.463 . S
C1564 N1568 1.427 . S
C1565 H1555 0.929 . S
C1565 C1563 1.433 . S
C1565 N1568 1.384 . S
C1566 H1557 0.929 . S
C1566 C1558 1.378 . S
C1566 C1561 1.350 . S
C1567 H1554 0.929 . S
C1567 C1559 1.433 . S
C1567 N1569 1.384 . S
N1568 C1564 1.427 . S
N1568 C1565 1.384 . S
N1569 C1561 1.427 . S
N1569 C1567 1.384 . S
H1570 C1576 0.930 . S
H1571 C1580 0.930 . S
H1572 C1585 0.929 . S
H1573 C1583 0.929 . S
H1574 C1578 0.929 . S
H1575 C1584 0.929 . S
C1576 H1570 0.930 . S
C1576 C1577 1.367 . S
C1576 C1584 1.378 . S
C1577 C1576 1.367 . S
C1577 C1585 1.433 . S
C1578 H1574 0.929 . S
C1578 C1580 1.378 . S
C1578 C1582 1.350 . S
C1579 C1582 1.463 . S
C1579 C1584 1.350 . S
C1579 N1587 1.427 . S
C1580 H1571 0.930 . S
C1580 C1578 1.378 . S
C1580 C1581 1.367 . S
C1581 C1580 1.367 . S
C1581 C1583 1.433 . S
C1582 C1578 1.350 . S
C1582 C1579 1.463 . S
C1582 N1586 1.427 . S
C1583 H1573 0.929 . S
C1583 C1581 1.433 . S
C1583 N1586 1.384 . S
C1584 H1575 0.929 . S
C1584 C1576 1.378 . S
C1584 C1579 1.350 . S
C1585 H1572 0.929 . S
C1585 C1577 1.433 . S
C1585 N1587 1.384 . S
N1586 C1582 1.427 . S
N1586 C1583 1.384 . S
N1587 C1579 1.427 . S
N1587 C1585 1.384 . S
H1588 C1594 0.930 . S
H1589 C1598 0.930 1_565 S
H1590 C1603 0.929 . S
H1591 C1601 0.929 . S
H1592 C1596 0.929 1_565 S
H1593 C1602 0.929 . S
C1594 H1588 0.930 . S
C1594 C1595 1.367 . S
C1594 C1602 1.378 . S
C1595 C1594 1.367 . S
C1595 C1603 1.433 . S
C1596 H1592 0.929 1_545 S
C1596 C1598 1.378 . S
C1596 C1600 1.350 . S
C1597 C1600 1.463 . S
C1597 C1602 1.350 . S
C1597 N1605 1.427 . S
C1598 H1589 0.930 1_545 S
C1598 C1596 1.378 . S
C1598 C1599 1.367 . S
C1599 C1598 1.367 . S
C1599 C1601 1.433 . S
C1600 C1596 1.350 . S
C1600 C1597 1.463 . S
C1600 N1604 1.427 . S
C1601 H1591 0.929 . S
C1601 C1599 1.433 . S
C1601 N1604 1.384 . S
C1602 H1593 0.929 . S
C1602 C1594 1.378 . S
C1602 C1597 1.350 . S
C1603 H1590 0.929 . S
C1603 C1595 1.433 . S
C1603 N1605 1.384 . S
N1604 C1600 1.427 . S
N1604 C1601 1.384 . S
N1605 C1597 1.427 . S
N1605 C1603 1.384 . S
H1606 C1612 0.930 . S
H1607 C1616 0.930 . S
H1608 C1621 0.929 . S
H1609 C1619 0.929 . S
H1610 C1614 0.929 . S
H1611 C1620 0.929 . S
C1612 H1606 0.930 . S
C1612 C1613 1.367 . S
C1612 C1620 1.378 . S
C1613 C1612 1.367 . S
C1613 C1621 1.433 . S
C1614 H1610 0.929 . S
C1614 C1616 1.378 . S
C1614 C1618 1.350 . S
C1615 C1618 1.463 . S
C1615 C1620 1.350 . S
C1615 N1623 1.427 . S
C1616 H1607 0.930 . S
C1616 C1614 1.378 . S
C1616 C1617 1.367 . S
C1617 C1616 1.367 . S
C1617 C1619 1.433 . S
C1618 C1614 1.350 . S
C1618 C1615 1.463 . S
C1618 N1622 1.427 . S
C1619 H1609 0.929 . S
C1619 C1617 1.433 . S
C1619 N1622 1.384 . S
C1620 H1611 0.929 . S
C1620 C1612 1.378 . S
C1620 C1615 1.350 . S
C1621 H1608 0.929 . S
C1621 C1613 1.433 . S
C1621 N1623 1.384 . S
N1622 C1618 1.427 . S
N1622 C1619 1.384 . S
N1623 C1615 1.427 . S
N1623 C1621 1.384 . S
H1624 C1630 0.930 . S
H1625 C1634 0.930 . S
H1626 C1639 0.929 . S
H1627 C1637 0.929 . S
H1628 C1632 0.929 . S
H1629 C1638 0.929 . S
C1630 H1624 0.930 . S
C1630 C1631 1.367 . S
C1630 C1638 1.378 . S
C1631 C1630 1.367 . S
C1631 C1639 1.433 . S
C1632 H1628 0.929 . S
C1632 C1634 1.378 . S
C1632 C1636 1.350 . S
C1633 C1636 1.463 . S
C1633 C1638 1.350 . S
C1633 N1641 1.427 . S
C1634 H1625 0.930 . S
C1634 C1632 1.378 . S
C1634 C1635 1.367 . S
C1635 C1634 1.367 . S
C1635 C1637 1.433 . S
C1636 C1632 1.350 . S
C1636 C1633 1.463 . S
C1636 N1640 1.427 . S
C1637 H1627 0.929 . S
C1637 C1635 1.433 . S
C1637 N1640 1.384 . S
C1638 H1629 0.929 . S
C1638 C1630 1.378 . S
C1638 C1633 1.350 . S
C1639 H1626 0.929 . S
C1639 C1631 1.433 . S
C1639 N1641 1.384 . S
N1640 C1636 1.427 . S
N1640 C1637 1.384 . S
N1641 C1633 1.427 . S
N1641 C1639 1.384 . S
H1642 C1648 0.930 . S
H1643 C1652 0.930 . S
H1644 C1657 0.929 . S
H1645 C1655 0.929 . S
H1646 C1650 0.929 . S
H1647 C1656 0.929 . S
C1648 H1642 0.930 . S
C1648 C1649 1.367 . S
C1648 C1656 1.378 . S
C1649 C1648 1.367 . S
C1649 C1657 1.433 . S
C1650 H1646 0.929 . S
C1650 C1652 1.378 . S
C1650 C1654 1.350 . S
C1651 C1654 1.463 . S
C1651 C1656 1.350 . S
C1651 N1659 1.427 . S
C1652 H1643 0.930 . S
C1652 C1650 1.378 . S
C1652 C1653 1.367 . S
C1653 C1652 1.367 . S
C1653 C1655 1.433 . S
C1654 C1650 1.350 . S
C1654 C1651 1.463 . S
C1654 N1658 1.427 . S
C1655 H1645 0.929 . S
C1655 C1653 1.433 . S
C1655 N1658 1.384 . S
C1656 H1647 0.929 . S
C1656 C1648 1.378 . S
C1656 C1651 1.350 . S
C1657 H1644 0.929 . S
C1657 C1649 1.433 . S
C1657 N1659 1.384 . S
N1658 C1654 1.427 . S
N1658 C1655 1.384 . S
N1659 C1651 1.427 . S
N1659 C1657 1.384 . S
H1660 C1666 0.930 . S
H1661 C1670 0.930 . S
H1662 C1675 0.929 . S
H1663 C1673 0.929 . S
H1664 C1668 0.929 . S
H1665 C1674 0.929 . S
C1666 H1660 0.930 . S
C1666 C1667 1.367 . S
C1666 C1674 1.378 . S
C1667 C1666 1.367 . S
C1667 C1675 1.433 1_545 S
C1668 H1664 0.929 . S
C1668 C1670 1.378 . S
C1668 C1672 1.350 1_565 S
C1669 C1672 1.463 . S
C1669 C1674 1.350 . S
C1669 N1677 1.427 1_545 S
C1670 H1661 0.930 . S
C1670 C1668 1.378 . S
C1670 C1671 1.367 1_565 S
C1671 C1670 1.367 1_545 S
C1671 C1673 1.433 . S
C1672 C1668 1.350 1_545 S
C1672 C1669 1.463 . S
C1672 N1676 1.427 . S
C1673 H1663 0.929 . S
C1673 C1671 1.433 . S
C1673 N1676 1.384 . S
C1674 H1665 0.929 . S
C1674 C1666 1.378 . S
C1674 C1669 1.350 . S
C1675 H1662 0.929 . S
C1675 C1667 1.433 1_565 S
C1675 N1677 1.384 . S
N1676 C1672 1.427 . S
N1676 C1673 1.384 . S
N1677 C1669 1.427 1_565 S
N1677 C1675 1.384 . S
H1678 C1684 0.930 . S
H1679 C1688 0.930 . S
H1680 C1693 0.929 . S
H1681 C1691 0.929 . S
H1682 C1686 0.929 . S
H1683 C1692 0.929 . S
C1684 H1678 0.930 . S
C1684 C1685 1.367 . S
C1684 C1692 1.378 . S
C1685 C1684 1.367 . S
C1685 C1693 1.433 . S
C1686 H1682 0.929 . S
C1686 C1688 1.378 . S
C1686 C1690 1.350 . S
C1687 C1690 1.463 . S
C1687 C1692 1.350 . S
C1687 N1695 1.427 . S
C1688 H1679 0.930 . S
C1688 C1686 1.378 . S
C1688 C1689 1.367 . S
C1689 C1688 1.367 . S
C1689 C1691 1.433 . S
C1690 C1686 1.350 . S
C1690 C1687 1.463 . S
C1690 N1694 1.427 . S
C1691 H1681 0.929 . S
C1691 C1689 1.433 . S
C1691 N1694 1.384 . S
C1692 H1683 0.929 . S
C1692 C1684 1.378 . S
C1692 C1687 1.350 . S
C1693 H1680 0.929 . S
C1693 C1685 1.433 . S
C1693 N1695 1.384 . S
N1694 C1690 1.427 . S
N1694 C1691 1.384 . S
N1695 C1687 1.427 . S
N1695 C1693 1.384 . S
H1696 C1702 0.930 . S
H1697 C1706 0.930 1_556 S
H1698 C1711 0.929 . S
H1699 C1709 0.929 . S
H1700 C1704 0.929 . S
H1701 C1710 0.929 . S
C1702 H1696 0.930 . S
C1702 C1703 1.367 . S
C1702 C1710 1.378 . S
C1703 C1702 1.367 . S
C1703 C1711 1.433 . S
C1704 H1700 0.929 . S
C1704 C1706 1.378 . S
C1704 C1708 1.350 . S
C1705 C1708 1.463 . S
C1705 C1710 1.350 . S
C1705 N1713 1.427 . S
C1706 H1697 0.930 1_554 S
C1706 C1704 1.378 . S
C1706 C1707 1.367 . S
C1707 C1706 1.367 . S
C1707 C1709 1.433 . S
C1708 C1704 1.350 . S
C1708 C1705 1.463 . S
C1708 N1712 1.427 . S
C1709 H1699 0.929 . S
C1709 C1707 1.433 . S
C1709 N1712 1.384 . S
C1710 H1701 0.929 . S
C1710 C1702 1.378 . S
C1710 C1705 1.350 . S
C1711 H1698 0.929 . S
C1711 C1703 1.433 . S
C1711 N1713 1.384 . S
N1712 C1708 1.427 . S
N1712 C1709 1.384 . S
N1713 C1705 1.427 . S
N1713 C1711 1.384 . S
H1714 C1720 0.930 . S
H1715 C1724 0.930 . S
H1716 C1729 0.929 . S
H1717 C1727 0.929 . S
H1718 C1722 0.929 . S
H1719 C1728 0.929 . S
C1720 H1714 0.930 . S
C1720 C1721 1.367 . S
C1720 C1728 1.378 . S
C1721 C1720 1.367 . S
C1721 C1729 1.433 . S
C1722 H1718 0.929 . S
C1722 C1724 1.378 . S
C1722 C1726 1.350 . S
C1723 C1726 1.463 . S
C1723 C1728 1.350 . S
C1723 N1731 1.427 . S
C1724 H1715 0.930 . S
C1724 C1722 1.378 . S
C1724 C1725 1.367 . S
C1725 C1724 1.367 . S
C1725 C1727 1.433 . S
C1726 C1722 1.350 . S
C1726 C1723 1.463 . S
C1726 N1730 1.427 . S
C1727 H1717 0.929 . S
C1727 C1725 1.433 . S
C1727 N1730 1.384 . S
C1728 H1719 0.929 . S
C1728 C1720 1.378 . S
C1728 C1723 1.350 . S
C1729 H1716 0.929 . S
C1729 C1721 1.433 . S
C1729 N1731 1.384 . S
N1730 C1726 1.427 . S
N1730 C1727 1.384 . S
N1731 C1723 1.427 . S
N1731 C1729 1.384 . S
H1732 C1738 0.930 . S
H1733 C1742 0.930 . S
H1734 C1747 0.929 . S
H1735 C1745 0.929 . S
H1736 C1740 0.929 . S
H1737 C1746 0.929 . S
C1738 H1732 0.930 . S
C1738 C1739 1.367 . S
C1738 C1746 1.378 . S
C1739 C1738 1.367 . S
C1739 C1747 1.433 . S
C1740 H1736 0.929 . S
C1740 C1742 1.378 . S
C1740 C1744 1.350 . S
C1741 C1744 1.463 . S
C1741 C1746 1.350 . S
C1741 N1749 1.427 . S
C1742 H1733 0.930 . S
C1742 C1740 1.378 . S
C1742 C1743 1.367 . S
C1743 C1742 1.367 . S
C1743 C1745 1.433 . S
C1744 C1740 1.350 . S
C1744 C1741 1.463 . S
C1744 N1748 1.427 . S
C1745 H1735 0.929 . S
C1745 C1743 1.433 . S
C1745 N1748 1.384 . S
C1746 H1737 0.929 . S
C1746 C1738 1.378 . S
C1746 C1741 1.350 . S
C1747 H1734 0.929 . S
C1747 C1739 1.433 . S
C1747 N1749 1.384 . S
N1748 C1744 1.427 . S
N1748 C1745 1.384 . S
N1749 C1741 1.427 . S
N1749 C1747 1.384 . S
H1750 C1756 0.930 . S
H1751 C1760 0.930 . S
H1752 C1765 0.929 . S
H1753 C1763 0.929 . S
H1754 C1758 0.929 . S
H1755 C1764 0.929 . S
C1756 H1750 0.930 . S
C1756 C1757 1.367 . S
C1756 C1764 1.378 . S
C1757 C1756 1.367 . S
C1757 C1765 1.433 . S
C1758 H1754 0.929 . S
C1758 C1760 1.378 . S
C1758 C1762 1.350 . S
C1759 C1762 1.463 . S
C1759 C1764 1.350 . S
C1759 N1767 1.427 . S
C1760 H1751 0.930 . S
C1760 C1758 1.378 . S
C1760 C1761 1.367 . S
C1761 C1760 1.367 . S
C1761 C1763 1.433 . S
C1762 C1758 1.350 . S
C1762 C1759 1.463 . S
C1762 N1766 1.427 . S
C1763 H1753 0.929 . S
C1763 C1761 1.433 . S
C1763 N1766 1.384 . S
C1764 H1755 0.929 . S
C1764 C1756 1.378 . S
C1764 C1759 1.350 . S
C1765 H1752 0.929 . S
C1765 C1757 1.433 . S
C1765 N1767 1.384 . S
N1766 C1762 1.427 . S
N1766 C1763 1.384 . S
N1767 C1759 1.427 . S
N1767 C1765 1.384 . S
H1768 C1774 0.930 . S
H1769 C1778 0.930 . S
H1770 C1783 0.929 . S
H1771 C1781 0.929 . S
H1772 C1776 0.929 . S
H1773 C1782 0.929 . S
C1774 H1768 0.930 . S
C1774 C1775 1.367 . S
C1774 C1782 1.378 . S
C1775 C1774 1.367 . S
C1775 C1783 1.433 . S
C1776 H1772 0.929 . S
C1776 C1778 1.378 . S
C1776 C1780 1.350 . S
C1777 C1780 1.463 . S
C1777 C1782 1.350 . S
C1777 N1785 1.427 . S
C1778 H1769 0.930 . S
C1778 C1776 1.378 . S
C1778 C1779 1.367 . S
C1779 C1778 1.367 . S
C1779 C1781 1.433 . S
C1780 C1776 1.350 . S
C1780 C1777 1.463 . S
C1780 N1784 1.427 . S
C1781 H1771 0.929 . S
C1781 C1779 1.433 . S
C1781 N1784 1.384 . S
C1782 H1773 0.929 . S
C1782 C1774 1.378 . S
C1782 C1777 1.350 . S
C1783 H1770 0.929 . S
C1783 C1775 1.433 . S
C1783 N1785 1.384 . S
N1784 C1780 1.427 . S
N1784 C1781 1.384 . S
N1785 C1777 1.427 . S
N1785 C1783 1.384 . S
H1786 C1792 0.930 . S
H1787 C1796 0.930 . S
H1788 C1801 0.929 . S
H1789 C1799 0.929 . S
H1790 C1794 0.929 . S
H1791 C1800 0.929 . S
C1792 H1786 0.930 . S
C1792 C1793 1.367 . S
C1792 C1800 1.378 . S
C1793 C1792 1.367 . S
C1793 C1801 1.433 . S
C1794 H1790 0.929 . S
C1794 C1796 1.378 . S
C1794 C1798 1.350 . S
C1795 C1798 1.463 . S
C1795 C1800 1.350 . S
C1795 N1803 1.427 . S
C1796 H1787 0.930 . S
C1796 C1794 1.378 . S
C1796 C1797 1.367 . S
C1797 C1796 1.367 . S
C1797 C1799 1.433 . S
C1798 C1794 1.350 . S
C1798 C1795 1.463 . S
C1798 N1802 1.427 . S
C1799 H1789 0.929 . S
C1799 C1797 1.433 . S
C1799 N1802 1.384 . S
C1800 H1791 0.929 . S
C1800 C1792 1.378 . S
C1800 C1795 1.350 . S
C1801 H1788 0.929 . S
C1801 C1793 1.433 . S
C1801 N1803 1.384 . S
N1802 C1798 1.427 . S
N1802 C1799 1.384 . S
N1803 C1795 1.427 . S
N1803 C1801 1.384 . S
H1804 C1810 0.930 . S
H1805 C1814 0.930 . S
H1806 C1819 0.929 . S
H1807 C1817 0.929 . S
H1808 C1812 0.929 . S
H1809 C1818 0.929 . S
C1810 H1804 0.930 . S
C1810 C1811 1.367 . S
C1810 C1818 1.378 . S
C1811 C1810 1.367 . S
C1811 C1819 1.433 . S
C1812 H1808 0.929 . S
C1812 C1814 1.378 . S
C1812 C1816 1.350 . S
C1813 C1816 1.463 . S
C1813 C1818 1.350 . S
C1813 N1821 1.427 . S
C1814 H1805 0.930 . S
C1814 C1812 1.378 . S
C1814 C1815 1.367 . S
C1815 C1814 1.367 . S
C1815 C1817 1.433 . S
C1816 C1812 1.350 . S
C1816 C1813 1.463 . S
C1816 N1820 1.427 . S
C1817 H1807 0.929 . S
C1817 C1815 1.433 . S
C1817 N1820 1.384 . S
C1818 H1809 0.929 . S
C1818 C1810 1.378 . S
C1818 C1813 1.350 . S
C1819 H1806 0.929 . S
C1819 C1811 1.433 . S
C1819 N1821 1.384 . S
N1820 C1816 1.427 . S
N1820 C1817 1.384 . S
N1821 C1813 1.427 . S
N1821 C1819 1.384 . S
H1822 C1828 0.930 . S
H1823 C1832 0.930 . S
H1824 C1837 0.929 . S
H1825 C1835 0.929 . S
H1826 C1830 0.929 . S
H1827 C1836 0.929 . S
C1828 H1822 0.930 . S
C1828 C1829 1.367 . S
C1828 C1836 1.378 . S
C1829 C1828 1.367 . S
C1829 C1837 1.433 . S
C1830 H1826 0.929 . S
C1830 C1832 1.378 . S
C1830 C1834 1.350 . S
C1831 C1834 1.463 . S
C1831 C1836 1.350 . S
C1831 N1839 1.427 . S
C1832 H1823 0.930 . S
C1832 C1830 1.378 . S
C1832 C1833 1.367 . S
C1833 C1832 1.367 . S
C1833 C1835 1.433 . S
C1834 C1830 1.350 . S
C1834 C1831 1.463 . S
C1834 N1838 1.427 . S
C1835 H1825 0.929 . S
C1835 C1833 1.433 . S
C1835 N1838 1.384 . S
C1836 H1827 0.929 . S
C1836 C1828 1.378 . S
C1836 C1831 1.350 . S
C1837 H1824 0.929 . S
C1837 C1829 1.433 . S
C1837 N1839 1.384 . S
N1838 C1834 1.427 . S
N1838 C1835 1.384 . S
N1839 C1831 1.427 . S
N1839 C1837 1.384 . S
H1840 C1846 0.930 . S
H1841 C1850 0.930 . S
H1842 C1855 0.929 . S
H1843 C1853 0.929 . S
H1844 C1848 0.929 . S
H1845 C1854 0.929 . S
C1846 H1840 0.930 . S
C1846 C1847 1.367 . S
C1846 C1854 1.378 . S
C1847 C1846 1.367 . S
C1847 C1855 1.433 . S
C1848 H1844 0.929 . S
C1848 C1850 1.378 . S
C1848 C1852 1.350 . S
C1849 C1852 1.463 . S
C1849 C1854 1.350 . S
C1849 N1857 1.427 . S
C1850 H1841 0.930 . S
C1850 C1848 1.378 . S
C1850 C1851 1.367 . S
C1851 C1850 1.367 . S
C1851 C1853 1.433 . S
C1852 C1848 1.350 . S
C1852 C1849 1.463 . S
C1852 N1856 1.427 . S
C1853 H1843 0.929 . S
C1853 C1851 1.433 . S
C1853 N1856 1.384 . S
C1854 H1845 0.929 . S
C1854 C1846 1.378 . S
C1854 C1849 1.350 . S
C1855 H1842 0.929 . S
C1855 C1847 1.433 . S
C1855 N1857 1.384 . S
N1856 C1852 1.427 . S
N1856 C1853 1.384 . S
N1857 C1849 1.427 . S
N1857 C1855 1.384 . S
H1858 C1864 0.930 . S
H1859 C1868 0.930 . S
H1860 C1873 0.929 . S
H1861 C1871 0.929 . S
H1862 C1866 0.929 . S
H1863 C1872 0.929 . S
C1864 H1858 0.930 . S
C1864 C1865 1.367 . S
C1864 C1872 1.378 . S
C1865 C1864 1.367 . S
C1865 C1873 1.433 . S
C1866 H1862 0.929 . S
C1866 C1868 1.378 . S
C1866 C1870 1.350 . S
C1867 C1870 1.463 . S
C1867 C1872 1.350 . S
C1867 N1875 1.427 . S
C1868 H1859 0.930 . S
C1868 C1866 1.378 . S
C1868 C1869 1.367 . S
C1869 C1868 1.367 . S
C1869 C1871 1.433 . S
C1870 C1866 1.350 . S
C1870 C1867 1.463 . S
C1870 N1874 1.427 . S
C1871 H1861 0.929 . S
C1871 C1869 1.433 . S
C1871 N1874 1.384 . S
C1872 H1863 0.929 . S
C1872 C1864 1.378 . S
C1872 C1867 1.350 . S
C1873 H1860 0.929 . S
C1873 C1865 1.433 . S
C1873 N1875 1.384 . S
N1874 C1870 1.427 . S
N1874 C1871 1.384 . S
N1875 C1867 1.427 . S
N1875 C1873 1.384 . S
H1876 C1882 0.930 1_655 S
H1877 C1886 0.930 . S
H1878 C1891 0.929 . S
H1879 C1889 0.929 1_655 S
H1880 C1884 0.929 . S
H1881 C1890 0.929 1_654 S
C1882 H1876 0.930 1_455 S
C1882 C1883 1.367 . S
C1882 C1890 1.378 . S
C1883 C1882 1.367 . S
C1883 C1891 1.433 . S
C1884 H1880 0.929 . S
C1884 C1886 1.378 . S
C1884 C1888 1.350 . S
C1885 C1888 1.463 1_556 S
C1885 C1890 1.350 . S
C1885 N1893 1.427 . S
C1886 H1877 0.930 . S
C1886 C1884 1.378 . S
C1886 C1887 1.367 . S
C1887 C1886 1.367 . S
C1887 C1889 1.433 . S
C1888 C1884 1.350 . S
C1888 C1885 1.463 1_554 S
C1888 N1892 1.427 . S
C1889 H1879 0.929 1_455 S
C1889 C1887 1.433 . S
C1889 N1892 1.384 . S
C1890 H1881 0.929 1_456 S
C1890 C1882 1.378 . S
C1890 C1885 1.350 . S
C1891 H1878 0.929 . S
C1891 C1883 1.433 . S
C1891 N1893 1.384 . S
N1892 C1888 1.427 . S
N1892 C1889 1.384 . S
N1893 C1885 1.427 . S
N1893 C1891 1.384 . S
H1894 C1900 0.930 . S
H1895 C1904 0.930 . S
H1896 C1909 0.929 1_455 S
H1897 C1907 0.929 . S
H1898 C1902 0.929 . S
H1899 C1908 0.929 . S
C1900 H1894 0.930 . S
C1900 C1901 1.367 1_655 S
C1900 C1908 1.378 . S
C1901 C1900 1.367 1_455 S
C1901 C1909 1.433 1_455 S
C1902 H1898 0.929 . S
C1902 C1904 1.378 . S
C1902 C1906 1.350 . S
C1903 C1906 1.463 . S
C1903 C1908 1.350 . S
C1903 N1911 1.427 . S
C1904 H1895 0.930 . S
C1904 C1902 1.378 . S
C1904 C1905 1.367 . S
C1905 C1904 1.367 . S
C1905 C1907 1.433 . S
C1906 C1902 1.350 . S
C1906 C1903 1.463 . S
C1906 N1910 1.427 . S
C1907 H1897 0.929 . S
C1907 C1905 1.433 . S
C1907 N1910 1.384 . S
C1908 H1899 0.929 . S
C1908 C1900 1.378 . S
C1908 C1903 1.350 . S
C1909 H1896 0.929 1_655 S
C1909 C1901 1.433 1_655 S
C1909 N1911 1.384 . S
N1910 C1906 1.427 . S
N1910 C1907 1.384 . S
N1911 C1903 1.427 . S
N1911 C1909 1.384 . S
H1912 C1918 0.930 . S
H1913 C1922 0.930 . S
H1914 C1927 0.929 . S
H1915 C1925 0.929 . S
H1916 C1920 0.929 . S
H1917 C1926 0.929 . S
C1918 H1912 0.930 . S
C1918 C1919 1.367 . S
C1918 C1926 1.378 . S
C1919 C1918 1.367 . S
C1919 C1927 1.433 . S
C1920 H1916 0.929 . S
C1920 C1922 1.378 . S
C1920 C1924 1.350 . S
C1921 C1924 1.463 . S
C1921 C1926 1.350 . S
C1921 N1929 1.427 . S
C1922 H1913 0.930 . S
C1922 C1920 1.378 . S
C1922 C1923 1.367 . S
C1923 C1922 1.367 . S
C1923 C1925 1.433 . S
C1924 C1920 1.350 . S
C1924 C1921 1.463 . S
C1924 N1928 1.427 . S
C1925 H1915 0.929 . S
C1925 C1923 1.433 . S
C1925 N1928 1.384 . S
C1926 H1917 0.929 . S
C1926 C1918 1.378 . S
C1926 C1921 1.350 . S
C1927 H1914 0.929 . S
C1927 C1919 1.433 . S
C1927 N1929 1.384 . S
N1928 C1924 1.427 . S
N1928 C1925 1.384 . S
N1929 C1921 1.427 . S
N1929 C1927 1.384 . S
H1930 C1936 0.930 . S
H1931 C1940 0.930 . S
H1932 C1945 0.929 . S
H1933 C1943 0.929 . S
H1934 C1938 0.929 . S
H1935 C1944 0.929 . S
C1936 H1930 0.930 . S
C1936 C1937 1.367 . S
C1936 C1944 1.378 . S
C1937 C1936 1.367 . S
C1937 C1945 1.433 . S
C1938 H1934 0.929 . S
C1938 C1940 1.378 . S
C1938 C1942 1.350 . S
C1939 C1942 1.463 . S
C1939 C1944 1.350 . S
C1939 N1947 1.427 . S
C1940 H1931 0.930 . S
C1940 C1938 1.378 . S
C1940 C1941 1.367 . S
C1941 C1940 1.367 . S
C1941 C1943 1.433 . S
C1942 C1938 1.350 . S
C1942 C1939 1.463 . S
C1942 N1946 1.427 . S
C1943 H1933 0.929 . S
C1943 C1941 1.433 . S
C1943 N1946 1.384 . S
C1944 H1935 0.929 . S
C1944 C1936 1.378 . S
C1944 C1939 1.350 . S
C1945 H1932 0.929 . S
C1945 C1937 1.433 . S
C1945 N1947 1.384 . S
N1946 C1942 1.427 . S
N1946 C1943 1.384 . S
N1947 C1939 1.427 . S
N1947 C1945 1.384 . S
H1948 C1954 0.930 . S
H1949 C1958 0.930 . S
H1950 C1963 0.929 . S
H1951 C1961 0.929 . S
H1952 C1956 0.929 . S
H1953 C1962 0.929 . S
C1954 H1948 0.930 . S
C1954 C1955 1.367 . S
C1954 C1962 1.378 . S
C1955 C1954 1.367 . S
C1955 C1963 1.433 . S
C1956 H1952 0.929 . S
C1956 C1958 1.378 . S
C1956 C1960 1.350 . S
C1957 C1960 1.463 . S
C1957 C1962 1.350 . S
C1957 N1965 1.427 . S
C1958 H1949 0.930 . S
C1958 C1956 1.378 . S
C1958 C1959 1.367 . S
C1959 C1958 1.367 . S
C1959 C1961 1.433 . S
C1960 C1956 1.350 . S
C1960 C1957 1.463 . S
C1960 N1964 1.427 . S
C1961 H1951 0.929 . S
C1961 C1959 1.433 . S
C1961 N1964 1.384 . S
C1962 H1953 0.929 . S
C1962 C1954 1.378 . S
C1962 C1957 1.350 . S
C1963 H1950 0.929 . S
C1963 C1955 1.433 . S
C1963 N1965 1.384 . S
N1964 C1960 1.427 . S
N1964 C1961 1.384 . S
N1965 C1957 1.427 . S
N1965 C1963 1.384 . S
H1966 C1972 0.930 . S
H1967 C1976 0.930 . S
H1968 C1981 0.929 . S
H1969 C1979 0.929 . S
H1970 C1974 0.929 . S
H1971 C1980 0.929 . S
C1972 H1966 0.930 . S
C1972 C1973 1.367 . S
C1972 C1980 1.378 . S
C1973 C1972 1.367 . S
C1973 C1981 1.433 . S
C1974 H1970 0.929 . S
C1974 C1976 1.378 . S
C1974 C1978 1.350 . S
C1975 C1978 1.463 . S
C1975 C1980 1.350 . S
C1975 N1983 1.427 . S
C1976 H1967 0.930 . S
C1976 C1974 1.378 . S
C1976 C1977 1.367 . S
C1977 C1976 1.367 . S
C1977 C1979 1.433 . S
C1978 C1974 1.350 . S
C1978 C1975 1.463 . S
C1978 N1982 1.427 . S
C1979 H1969 0.929 . S
C1979 C1977 1.433 . S
C1979 N1982 1.384 . S
C1980 H1971 0.929 . S
C1980 C1972 1.378 . S
C1980 C1975 1.350 . S
C1981 H1968 0.929 . S
C1981 C1973 1.433 . S
C1981 N1983 1.384 . S
N1982 C1978 1.427 . S
N1982 C1979 1.384 . S
N1983 C1975 1.427 . S
N1983 C1981 1.384 . S
H1984 C1990 0.930 . S
H1985 C1994 0.930 . S
H1986 C1999 0.929 . S
H1987 C1997 0.929 . S
H1988 C1992 0.929 . S
H1989 C1998 0.929 . S
C1990 H1984 0.930 . S
C1990 C1991 1.367 . S
C1990 C1998 1.378 . S
C1991 C1990 1.367 . S
C1991 C1999 1.433 . S
C1992 H1988 0.929 . S
C1992 C1994 1.378 . S
C1992 C1996 1.350 . S
C1993 C1996 1.463 . S
C1993 C1998 1.350 . S
C1993 N2001 1.427 . S
C1994 H1985 0.930 . S
C1994 C1992 1.378 . S
C1994 C1995 1.367 . S
C1995 C1994 1.367 . S
C1995 C1997 1.433 . S
C1996 C1992 1.350 . S
C1996 C1993 1.463 . S
C1996 N2000 1.427 . S
C1997 H1987 0.929 . S
C1997 C1995 1.433 . S
C1997 N2000 1.384 . S
C1998 H1989 0.929 . S
C1998 C1990 1.378 . S
C1998 C1993 1.350 . S
C1999 H1986 0.929 . S
C1999 C1991 1.433 . S
C1999 N2001 1.384 . S
N2000 C1996 1.427 . S
N2000 C1997 1.384 . S
N2001 C1993 1.427 . S
N2001 C1999 1.384 . S
H2002 C2008 0.930 . S
H2003 C2012 0.930 . S
H2004 C2017 0.929 . S
H2005 C2015 0.929 . S
H2006 C2010 0.929 . S
H2007 C2016 0.929 . S
C2008 H2002 0.930 . S
C2008 C2009 1.367 . S
C2008 C2016 1.378 . S
C2009 C2008 1.367 . S
C2009 C2017 1.433 . S
C2010 H2006 0.929 . S
C2010 C2012 1.378 . S
C2010 C2014 1.350 . S
C2011 C2014 1.463 1_554 S
C2011 C2016 1.350 . S
C2011 N2019 1.427 . S
C2012 H2003 0.930 . S
C2012 C2010 1.378 . S
C2012 C2013 1.367 . S
C2013 C2012 1.367 . S
C2013 C2015 1.433 . S
C2014 C2010 1.350 . S
C2014 C2011 1.463 1_556 S
C2014 N2018 1.427 . S
C2015 H2005 0.929 . S
C2015 C2013 1.433 . S
C2015 N2018 1.384 . S
C2016 H2007 0.929 . S
C2016 C2008 1.378 . S
C2016 C2011 1.350 . S
C2017 H2004 0.929 . S
C2017 C2009 1.433 . S
C2017 N2019 1.384 . S
N2018 C2014 1.427 . S
N2018 C2015 1.384 . S
N2019 C2011 1.427 . S
N2019 C2017 1.384 . S
H2020 C2026 0.930 . S
H2021 C2030 0.930 . S
H2022 C2035 0.929 . S
H2023 C2033 0.929 . S
H2024 C2028 0.929 . S
H2025 C2034 0.929 . S
C2026 H2020 0.930 . S
C2026 C2027 1.367 . S
C2026 C2034 1.378 . S
C2027 C2026 1.367 . S
C2027 C2035 1.433 . S
C2028 H2024 0.929 . S
C2028 C2030 1.378 . S
C2028 C2032 1.350 . S
C2029 C2032 1.463 . S
C2029 C2034 1.350 . S
C2029 N2037 1.427 . S
C2030 H2021 0.930 . S
C2030 C2028 1.378 . S
C2030 C2031 1.367 . S
C2031 C2030 1.367 . S
C2031 C2033 1.433 . S
C2032 C2028 1.350 . S
C2032 C2029 1.463 . S
C2032 N2036 1.427 . S
C2033 H2023 0.929 . S
C2033 C2031 1.433 . S
C2033 N2036 1.384 . S
C2034 H2025 0.929 . S
C2034 C2026 1.378 . S
C2034 C2029 1.350 . S
C2035 H2022 0.929 . S
C2035 C2027 1.433 . S
C2035 N2037 1.384 . S
N2036 C2032 1.427 . S
N2036 C2033 1.384 . S
N2037 C2029 1.427 . S
N2037 C2035 1.384 . S
H2038 C2044 0.930 . S
H2039 C2048 0.930 . S
H2040 C2053 0.929 . S
H2041 C2051 0.929 . S
H2042 C2046 0.929 . S
H2043 C2052 0.929 . S
C2044 H2038 0.930 . S
C2044 C2045 1.367 . S
C2044 C2052 1.378 . S
C2045 C2044 1.367 . S
C2045 C2053 1.433 . S
C2046 H2042 0.929 . S
C2046 C2048 1.378 . S
C2046 C2050 1.350 . S
C2047 C2050 1.463 . S
C2047 C2052 1.350 . S
C2047 N2055 1.427 . S
C2048 H2039 0.930 . S
C2048 C2046 1.378 . S
C2048 C2049 1.367 . S
C2049 C2048 1.367 . S
C2049 C2051 1.433 . S
C2050 C2046 1.350 . S
C2050 C2047 1.463 . S
C2050 N2054 1.427 . S
C2051 H2041 0.929 . S
C2051 C2049 1.433 . S
C2051 N2054 1.384 . S
C2052 H2043 0.929 . S
C2052 C2044 1.378 . S
C2052 C2047 1.350 . S
C2053 H2040 0.929 . S
C2053 C2045 1.433 . S
C2053 N2055 1.384 . S
N2054 C2050 1.427 . S
N2054 C2051 1.384 . S
N2055 C2047 1.427 . S
N2055 C2053 1.384 . S
H2056 C2062 0.930 . S
H2057 C2066 0.930 . S
H2058 C2071 0.929 . S
H2059 C2069 0.929 . S
H2060 C2064 0.929 . S
H2061 C2070 0.929 . S
C2062 H2056 0.930 . S
C2062 C2063 1.367 . S
C2062 C2070 1.378 . S
C2063 C2062 1.367 . S
C2063 C2071 1.433 . S
C2064 H2060 0.929 . S
C2064 C2066 1.378 . S
C2064 C2068 1.350 . S
C2065 C2068 1.463 . S
C2065 C2070 1.350 . S
C2065 N2073 1.427 . S
C2066 H2057 0.930 . S
C2066 C2064 1.378 . S
C2066 C2067 1.367 . S
C2067 C2066 1.367 . S
C2067 C2069 1.433 . S
C2068 C2064 1.350 . S
C2068 C2065 1.463 . S
C2068 N2072 1.427 . S
C2069 H2059 0.929 . S
C2069 C2067 1.433 . S
C2069 N2072 1.384 . S
C2070 H2061 0.929 . S
C2070 C2062 1.378 . S
C2070 C2065 1.350 . S
C2071 H2058 0.929 . S
C2071 C2063 1.433 . S
C2071 N2073 1.384 . S
N2072 C2068 1.427 . S
N2072 C2069 1.384 . S
N2073 C2065 1.427 . S
N2073 C2071 1.384 . S
H2074 C2080 0.930 . S
H2075 C2084 0.930 . S
H2076 C2089 0.929 . S
H2077 C2087 0.929 . S
H2078 C2082 0.929 . S
H2079 C2088 0.929 . S
C2080 H2074 0.930 . S
C2080 C2081 1.367 . S
C2080 C2088 1.378 . S
C2081 C2080 1.367 . S
C2081 C2089 1.433 . S
C2082 H2078 0.929 . S
C2082 C2084 1.378 . S
C2082 C2086 1.350 . S
C2083 C2086 1.463 . S
C2083 C2088 1.350 . S
C2083 N2091 1.427 . S
C2084 H2075 0.930 . S
C2084 C2082 1.378 . S
C2084 C2085 1.367 . S
C2085 C2084 1.367 . S
C2085 C2087 1.433 . S
C2086 C2082 1.350 . S
C2086 C2083 1.463 . S
C2086 N2090 1.427 . S
C2087 H2077 0.929 . S
C2087 C2085 1.433 . S
C2087 N2090 1.384 . S
C2088 H2079 0.929 . S
C2088 C2080 1.378 . S
C2088 C2083 1.350 . S
C2089 H2076 0.929 . S
C2089 C2081 1.433 . S
C2089 N2091 1.384 . S
N2090 C2086 1.427 . S
N2090 C2087 1.384 . S
N2091 C2083 1.427 . S
N2091 C2089 1.384 . S
H2092 C2098 0.930 . S
H2093 C2102 0.930 . S
H2094 C2107 0.929 . S
H2095 C2105 0.929 . S
H2096 C2100 0.929 . S
H2097 C2106 0.929 . S
C2098 H2092 0.930 . S
C2098 C2099 1.367 . S
C2098 C2106 1.378 . S
C2099 C2098 1.367 . S
C2099 C2107 1.433 . S
C2100 H2096 0.929 . S
C2100 C2102 1.378 . S
C2100 C2104 1.350 . S
C2101 C2104 1.463 . S
C2101 C2106 1.350 . S
C2101 N2109 1.427 . S
C2102 H2093 0.930 . S
C2102 C2100 1.378 . S
C2102 C2103 1.367 . S
C2103 C2102 1.367 . S
C2103 C2105 1.433 . S
C2104 C2100 1.350 . S
C2104 C2101 1.463 . S
C2104 N2108 1.427 . S
C2105 H2095 0.929 . S
C2105 C2103 1.433 . S
C2105 N2108 1.384 . S
C2106 H2097 0.929 . S
C2106 C2098 1.378 . S
C2106 C2101 1.350 . S
C2107 H2094 0.929 . S
C2107 C2099 1.433 . S
C2107 N2109 1.384 . S
N2108 C2104 1.427 . S
N2108 C2105 1.384 . S
N2109 C2101 1.427 . S
N2109 C2107 1.384 . S
H2110 C2116 0.930 . S
H2111 C2120 0.930 . S
H2112 C2125 0.929 . S
H2113 C2123 0.929 . S
H2114 C2118 0.929 . S
H2115 C2124 0.929 . S
C2116 H2110 0.930 . S
C2116 C2117 1.367 . S
C2116 C2124 1.378 . S
C2117 C2116 1.367 . S
C2117 C2125 1.433 . S
C2118 H2114 0.929 . S
C2118 C2120 1.378 . S
C2118 C2122 1.350 . S
C2119 C2122 1.463 . S
C2119 C2124 1.350 . S
C2119 N2127 1.427 . S
C2120 H2111 0.930 . S
C2120 C2118 1.378 . S
C2120 C2121 1.367 . S
C2121 C2120 1.367 . S
C2121 C2123 1.433 . S
C2122 C2118 1.350 . S
C2122 C2119 1.463 . S
C2122 N2126 1.427 . S
C2123 H2113 0.929 . S
C2123 C2121 1.433 . S
C2123 N2126 1.384 . S
C2124 H2115 0.929 . S
C2124 C2116 1.378 . S
C2124 C2119 1.350 . S
C2125 H2112 0.929 . S
C2125 C2117 1.433 . S
C2125 N2127 1.384 . S
N2126 C2122 1.427 . S
N2126 C2123 1.384 . S
N2127 C2119 1.427 . S
N2127 C2125 1.384 . S
H2128 C2134 0.930 . S
H2129 C2138 0.930 . S
H2130 C2143 0.929 . S
H2131 C2141 0.929 . S
H2132 C2136 0.929 . S
H2133 C2142 0.929 . S
C2134 H2128 0.930 . S
C2134 C2135 1.367 . S
C2134 C2142 1.378 . S
C2135 C2134 1.367 . S
C2135 C2143 1.433 . S
C2136 H2132 0.929 . S
C2136 C2138 1.378 . S
C2136 C2140 1.350 . S
C2137 C2140 1.463 . S
C2137 C2142 1.350 . S
C2137 N2145 1.427 . S
C2138 H2129 0.930 . S
C2138 C2136 1.378 . S
C2138 C2139 1.367 . S
C2139 C2138 1.367 . S
C2139 C2141 1.433 . S
C2140 C2136 1.350 . S
C2140 C2137 1.463 . S
C2140 N2144 1.427 . S
C2141 H2131 0.929 . S
C2141 C2139 1.433 . S
C2141 N2144 1.384 . S
C2142 H2133 0.929 . S
C2142 C2134 1.378 . S
C2142 C2137 1.350 . S
C2143 H2130 0.929 . S
C2143 C2135 1.433 . S
C2143 N2145 1.384 . S
N2144 C2140 1.427 . S
N2144 C2141 1.384 . S
N2145 C2137 1.427 . S
N2145 C2143 1.384 . S
H2146 C2152 0.930 . S
H2147 C2156 0.930 . S
H2148 C2161 0.929 . S
H2149 C2159 0.929 . S
H2150 C2154 0.929 . S
H2151 C2160 0.929 . S
C2152 H2146 0.930 . S
C2152 C2153 1.367 . S
C2152 C2160 1.378 . S
C2153 C2152 1.367 . S
C2153 C2161 1.433 . S
C2154 H2150 0.929 . S
C2154 C2156 1.378 . S
C2154 C2158 1.350 . S
C2155 C2158 1.463 . S
C2155 C2160 1.350 . S
C2155 N2163 1.427 . S
C2156 H2147 0.930 . S
C2156 C2154 1.378 . S
C2156 C2157 1.367 . S
C2157 C2156 1.367 . S
C2157 C2159 1.433 . S
C2158 C2154 1.350 . S
C2158 C2155 1.463 . S
C2158 N2162 1.427 . S
C2159 H2149 0.929 . S
C2159 C2157 1.433 . S
C2159 N2162 1.384 . S
C2160 H2151 0.929 . S
C2160 C2152 1.378 . S
C2160 C2155 1.350 . S
C2161 H2148 0.929 . S
C2161 C2153 1.433 . S
C2161 N2163 1.384 . S
N2162 C2158 1.427 . S
N2162 C2159 1.384 . S
N2163 C2155 1.427 . S
N2163 C2161 1.384 . S
H2164 C2170 0.930 1_545 S
H2165 C2174 0.930 . S
H2166 C2179 0.929 . S
H2167 C2177 0.929 . S
H2168 C2172 0.929 . S
H2169 C2178 0.929 . S
C2170 H2164 0.930 1_565 S
C2170 C2171 1.367 . S
C2170 C2178 1.378 . S
C2171 C2170 1.367 . S
C2171 C2179 1.433 . S
C2172 H2168 0.929 . S
C2172 C2174 1.378 . S
C2172 C2176 1.350 . S
C2173 C2176 1.463 . S
C2173 C2178 1.350 . S
C2173 N2181 1.427 . S
C2174 H2165 0.930 . S
C2174 C2172 1.378 . S
C2174 C2175 1.367 . S
C2175 C2174 1.367 . S
C2175 C2177 1.433 . S
C2176 C2172 1.350 . S
C2176 C2173 1.463 . S
C2176 N2180 1.427 . S
C2177 H2167 0.929 . S
C2177 C2175 1.433 . S
C2177 N2180 1.384 . S
C2178 H2169 0.929 . S
C2178 C2170 1.378 . S
C2178 C2173 1.350 . S
C2179 H2166 0.929 . S
C2179 C2171 1.433 . S
C2179 N2181 1.384 . S
N2180 C2176 1.427 . S
N2180 C2177 1.384 . S
N2181 C2173 1.427 . S
N2181 C2179 1.384 . S
H2182 C2188 0.930 . S
H2183 C2192 0.930 . S
H2184 C2197 0.929 . S
H2185 C2195 0.929 1_556 S
H2186 C2190 0.929 . S
H2187 C2196 0.929 . S
C2188 H2182 0.930 . S
C2188 C2189 1.367 1_556 S
C2188 C2196 1.378 . S
C2189 C2188 1.367 1_554 S
C2189 C2197 1.433 . S
C2190 H2186 0.929 . S
C2190 C2192 1.378 . S
C2190 C2194 1.350 . S
C2191 C2194 1.463 . S
C2191 C2196 1.350 1_554 S
C2191 N2199 1.427 . S
C2192 H2183 0.930 . S
C2192 C2190 1.378 . S
C2192 C2193 1.367 . S
C2193 C2192 1.367 . S
C2193 C2195 1.433 . S
C2194 C2190 1.350 . S
C2194 C2191 1.463 . S
C2194 N2198 1.394 1_554 S
C2195 H2185 0.929 1_554 S
C2195 C2193 1.433 . S
C2195 N2198 1.389 1_554 S
C2196 H2187 0.929 . S
C2196 C2188 1.378 . S
C2196 C2191 1.350 1_556 S
C2197 H2184 0.929 . S
C2197 C2189 1.433 . S
C2197 N2199 1.384 . S
N2198 C2194 1.394 1_556 S
N2198 C2195 1.389 1_556 S
N2199 C2191 1.427 . S
N2199 C2197 1.384 . S
H2200 C2206 0.930 . S
H2201 C2210 0.930 . S
H2202 C2215 0.929 . S
H2203 C2213 0.929 . S
H2204 C2208 0.929 . S
H2205 C2214 0.929 . S
C2206 H2200 0.930 . S
C2206 C2207 1.367 . S
C2206 C2214 1.378 . S
C2207 C2206 1.367 . S
C2207 C2215 1.433 . S
C2208 H2204 0.929 . S
C2208 C2210 1.378 . S
C2208 C2212 1.350 . S
C2209 C2212 1.463 . S
C2209 C2214 1.350 . S
C2209 N2217 1.427 . S
C2210 H2201 0.930 . S
C2210 C2208 1.378 . S
C2210 C2211 1.367 . S
C2211 C2210 1.367 . S
C2211 C2213 1.433 . S
C2212 C2208 1.350 . S
C2212 C2209 1.463 . S
C2212 N2216 1.427 . S
C2213 H2203 0.929 . S
C2213 C2211 1.433 . S
C2213 N2216 1.384 . S
C2214 H2205 0.929 . S
C2214 C2206 1.378 . S
C2214 C2209 1.350 . S
C2215 H2202 0.929 . S
C2215 C2207 1.433 . S
C2215 N2217 1.384 . S
N2216 C2212 1.427 . S
N2216 C2213 1.384 . S
N2217 C2209 1.427 . S
N2217 C2215 1.384 . S
H2218 C2224 0.930 . S
H2219 C2228 0.930 . S
H2220 C2233 0.929 . S
H2221 C2231 0.929 . S
H2222 C2226 0.929 . S
H2223 C2232 0.929 . S
C2224 H2218 0.930 . S
C2224 C2225 1.367 . S
C2224 C2232 1.378 . S
C2225 C2224 1.367 . S
C2225 C2233 1.433 . S
C2226 H2222 0.929 . S
C2226 C2228 1.378 . S
C2226 C2230 1.350 . S
C2227 C2230 1.463 . S
C2227 C2232 1.350 . S
C2227 N2235 1.427 . S
C2228 H2219 0.930 . S
C2228 C2226 1.378 . S
C2228 C2229 1.367 . S
C2229 C2228 1.367 . S
C2229 C2231 1.433 . S
C2230 C2226 1.350 . S
C2230 C2227 1.463 . S
C2230 N2234 1.427 . S
C2231 H2221 0.929 . S
C2231 C2229 1.433 . S
C2231 N2234 1.384 . S
C2232 H2223 0.929 . S
C2232 C2224 1.378 . S
C2232 C2227 1.350 . S
C2233 H2220 0.929 . S
C2233 C2225 1.433 . S
C2233 N2235 1.384 . S
N2234 C2230 1.427 . S
N2234 C2231 1.384 . S
N2235 C2227 1.427 . S
N2235 C2233 1.384 . S
H2236 C2242 0.930 . S
H2237 C2246 0.930 . S
H2238 C2251 0.929 . S
H2239 C2249 0.929 . S
H2240 C2244 0.929 . S
H2241 C2250 0.929 . S
C2242 H2236 0.930 . S
C2242 C2243 1.367 . S
C2242 C2250 1.378 . S
C2243 C2242 1.367 . S
C2243 C2251 1.433 . S
C2244 H2240 0.929 . S
C2244 C2246 1.378 . S
C2244 C2248 1.350 . S
C2245 C2248 1.463 . S
C2245 C2250 1.350 . S
C2245 N2253 1.427 . S
C2246 H2237 0.930 . S
C2246 C2244 1.378 . S
C2246 C2247 1.367 . S
C2247 C2246 1.367 . S
C2247 C2249 1.433 . S
C2248 C2244 1.350 . S
C2248 C2245 1.463 . S
C2248 N2252 1.427 . S
C2249 H2239 0.929 . S
C2249 C2247 1.433 . S
C2249 N2252 1.384 . S
C2250 H2241 0.929 . S
C2250 C2242 1.378 . S
C2250 C2245 1.350 . S
C2251 H2238 0.929 . S
C2251 C2243 1.433 . S
C2251 N2253 1.384 . S
N2252 C2248 1.427 . S
N2252 C2249 1.384 . S
N2253 C2245 1.427 . S
N2253 C2251 1.384 . S
H2254 C2260 0.930 . S
H2255 C2264 0.930 . S
H2256 C2269 0.929 . S
H2257 C2267 0.929 . S
H2258 C2262 0.929 . S
H2259 C2268 0.929 . S
C2260 H2254 0.930 . S
C2260 C2261 1.367 . S
C2260 C2268 1.378 . S
C2261 C2260 1.367 . S
C2261 C2269 1.433 . S
C2262 H2258 0.929 . S
C2262 C2264 1.378 . S
C2262 C2266 1.350 . S
C2263 C2266 1.463 . S
C2263 C2268 1.350 . S
C2263 N2271 1.427 . S
C2264 H2255 0.930 . S
C2264 C2262 1.378 . S
C2264 C2265 1.367 . S
C2265 C2264 1.367 . S
C2265 C2267 1.433 . S
C2266 C2262 1.350 . S
C2266 C2263 1.463 . S
C2266 N2270 1.427 . S
C2267 H2257 0.929 . S
C2267 C2265 1.433 . S
C2267 N2270 1.384 . S
C2268 H2259 0.929 . S
C2268 C2260 1.378 . S
C2268 C2263 1.350 . S
C2269 H2256 0.929 . S
C2269 C2261 1.433 . S
C2269 N2271 1.384 . S
N2270 C2266 1.427 . S
N2270 C2267 1.384 . S
N2271 C2263 1.427 . S
N2271 C2269 1.384 . S
H2272 C2278 0.930 . S
H2273 C2282 0.930 . S
H2274 C2287 0.929 . S
H2275 C2285 0.929 . S
H2276 C2280 0.929 . S
H2277 C2286 0.929 . S
C2278 H2272 0.930 . S
C2278 C2279 1.367 . S
C2278 C2286 1.378 . S
C2279 C2278 1.367 . S
C2279 C2287 1.433 . S
C2280 H2276 0.929 . S
C2280 C2282 1.378 . S
C2280 C2284 1.350 . S
C2281 C2284 1.463 . S
C2281 C2286 1.350 . S
C2281 N2289 1.427 . S
C2282 H2273 0.930 . S
C2282 C2280 1.378 . S
C2282 C2283 1.367 . S
C2283 C2282 1.367 . S
C2283 C2285 1.433 . S
C2284 C2280 1.350 . S
C2284 C2281 1.463 . S
C2284 N2288 1.427 . S
C2285 H2275 0.929 . S
C2285 C2283 1.433 . S
C2285 N2288 1.384 . S
C2286 H2277 0.929 . S
C2286 C2278 1.378 . S
C2286 C2281 1.350 . S
C2287 H2274 0.929 . S
C2287 C2279 1.433 . S
C2287 N2289 1.384 . S
N2288 C2284 1.427 . S
N2288 C2285 1.384 . S
N2289 C2281 1.427 . S
N2289 C2287 1.384 . S
H2290 C2296 0.930 . S
H2291 C2300 0.930 . S
H2292 C2305 0.929 . S
H2293 C2303 0.929 . S
H2294 C2298 0.929 . S
H2295 C2304 0.929 . S
C2296 H2290 0.930 . S
C2296 C2297 1.367 . S
C2296 C2304 1.378 . S
C2297 C2296 1.367 . S
C2297 C2305 1.433 . S
C2298 H2294 0.929 . S
C2298 C2300 1.378 . S
C2298 C2302 1.350 . S
C2299 C2302 1.463 . S
C2299 C2304 1.350 . S
C2299 N2307 1.427 . S
C2300 H2291 0.930 . S
C2300 C2298 1.378 . S
C2300 C2301 1.367 . S
C2301 C2300 1.367 . S
C2301 C2303 1.433 . S
C2302 C2298 1.350 . S
C2302 C2299 1.463 . S
C2302 N2306 1.427 . S
C2303 H2293 0.929 . S
C2303 C2301 1.433 . S
C2303 N2306 1.384 . S
C2304 H2295 0.929 . S
C2304 C2296 1.378 . S
C2304 C2299 1.350 . S
C2305 H2292 0.929 . S
C2305 C2297 1.433 . S
C2305 N2307 1.384 . S
N2306 C2302 1.427 . S
N2306 C2303 1.384 . S
N2307 C2299 1.427 . S
N2307 C2305 1.384 . S
H2308 C2314 0.930 . S
H2309 C2318 0.930 . S
H2310 C2323 0.929 . S
H2311 C2321 0.929 . S
H2312 C2316 0.929 . S
H2313 C2322 0.929 . S
C2314 H2308 0.930 . S
C2314 C2315 1.367 . S
C2314 C2322 1.378 . S
C2315 C2314 1.367 . S
C2315 C2323 1.433 . S
C2316 H2312 0.929 . S
C2316 C2318 1.378 . S
C2316 C2320 1.350 . S
C2317 C2320 1.463 . S
C2317 C2322 1.350 . S
C2317 N2325 1.427 . S
C2318 H2309 0.930 . S
C2318 C2316 1.378 . S
C2318 C2319 1.367 . S
C2319 C2318 1.367 . S
C2319 C2321 1.433 . S
C2320 C2316 1.350 . S
C2320 C2317 1.463 . S
C2320 N2324 1.427 . S
C2321 H2311 0.929 . S
C2321 C2319 1.433 . S
C2321 N2324 1.384 . S
C2322 H2313 0.929 . S
C2322 C2314 1.378 . S
C2322 C2317 1.350 . S
C2323 H2310 0.929 . S
C2323 C2315 1.433 . S
C2323 N2325 1.384 . S
N2324 C2320 1.427 . S
N2324 C2321 1.384 . S
N2325 C2317 1.427 . S
N2325 C2323 1.384 . S
H2326 C2332 0.930 . S
H2327 C2336 0.930 . S
H2328 C2341 0.929 . S
H2329 C2339 0.929 . S
H2330 C2334 0.929 . S
H2331 C2340 0.929 . S
C2332 H2326 0.930 . S
C2332 C2333 1.367 . S
C2332 C2340 1.378 . S
C2333 C2332 1.367 . S
C2333 C2341 1.433 . S
C2334 H2330 0.929 . S
C2334 C2336 1.378 . S
C2334 C2338 1.350 . S
C2335 C2338 1.463 . S
C2335 C2340 1.350 . S
C2335 N2343 1.427 . S
C2336 H2327 0.930 . S
C2336 C2334 1.378 . S
C2336 C2337 1.367 . S
C2337 C2336 1.367 . S
C2337 C2339 1.433 . S
C2338 C2334 1.350 . S
C2338 C2335 1.463 . S
C2338 N2342 1.427 . S
C2339 H2329 0.929 . S
C2339 C2337 1.433 . S
C2339 N2342 1.384 . S
C2340 H2331 0.929 . S
C2340 C2332 1.378 . S
C2340 C2335 1.350 . S
C2341 H2328 0.929 . S
C2341 C2333 1.433 . S
C2341 N2343 1.384 . S
N2342 C2338 1.427 . S
N2342 C2339 1.384 . S
N2343 C2335 1.427 . S
N2343 C2341 1.384 . S
H2344 C2350 0.930 . S
H2345 C2354 0.930 . S
H2346 C2359 0.929 . S
H2347 C2357 0.929 1_554 S
H2348 C2352 0.929 . S
H2349 C2358 0.929 . S
C2350 H2344 0.930 . S
C2350 C2351 1.367 . S
C2350 C2358 1.378 . S
C2351 C2350 1.367 . S
C2351 C2359 1.433 . S
C2352 H2348 0.929 . S
C2352 C2354 1.378 . S
C2352 C2356 1.350 . S
C2353 C2356 1.463 . S
C2353 C2358 1.350 . S
C2353 N2361 1.427 . S
C2354 H2345 0.930 . S
C2354 C2352 1.378 . S
C2354 C2355 1.367 . S
C2355 C2354 1.367 . S
C2355 C2357 1.433 . S
C2356 C2352 1.350 . S
C2356 C2353 1.463 . S
C2356 N2360 1.427 . S
C2357 H2347 0.929 1_556 S
C2357 C2355 1.433 . S
C2357 N2360 1.384 . S
C2358 H2349 0.929 . S
C2358 C2350 1.378 . S
C2358 C2353 1.350 . S
C2359 H2346 0.929 . S
C2359 C2351 1.433 . S
C2359 N2361 1.384 . S
N2360 C2356 1.427 . S
N2360 C2357 1.384 . S
N2361 C2353 1.427 . S
N2361 C2359 1.384 . S
H2362 C2368 0.930 . S
H2363 C2372 0.930 . S
H2364 C2377 0.929 . S
H2365 C2375 0.929 . S
H2366 C2370 0.929 . S
H2367 C2376 0.929 . S
C2368 H2362 0.930 . S
C2368 C2369 1.367 . S
C2368 C2376 1.378 . S
C2369 C2368 1.367 . S
C2369 C2377 1.433 . S
C2370 H2366 0.929 . S
C2370 C2372 1.378 . S
C2370 C2374 1.350 . S
C2371 C2374 1.463 . S
C2371 C2376 1.350 . S
C2371 N2379 1.427 . S
C2372 H2363 0.930 . S
C2372 C2370 1.378 . S
C2372 C2373 1.367 . S
C2373 C2372 1.367 . S
C2373 C2375 1.433 . S
C2374 C2370 1.350 . S
C2374 C2371 1.463 . S
C2374 N2378 1.427 . S
C2375 H2365 0.929 . S
C2375 C2373 1.433 . S
C2375 N2378 1.384 . S
C2376 H2367 0.929 . S
C2376 C2368 1.378 . S
C2376 C2371 1.350 . S
C2377 H2364 0.929 . S
C2377 C2369 1.433 . S
C2377 N2379 1.384 . S
N2378 C2374 1.427 . S
N2378 C2375 1.384 . S
N2379 C2371 1.427 . S
N2379 C2377 1.384 . S
H2380 C2386 0.943 . S
H2381 C2390 0.930 . S
H2382 C2395 0.929 . S
H2383 C2393 0.929 . S
H2384 C2388 0.929 . S
H2385 C2394 0.929 . S
C2386 H2380 0.943 . S
C2386 C2387 1.367 . S
C2386 C2394 1.378 . S
C2387 C2386 1.367 . S
C2387 C2395 1.433 . S
C2388 H2384 0.929 . S
C2388 C2390 1.378 . S
C2388 C2392 1.350 . S
C2389 C2392 1.463 . S
C2389 C2394 1.350 . S
C2389 N2397 1.427 . S
C2390 H2381 0.930 . S
C2390 C2388 1.378 . S
C2390 C2391 1.367 . S
C2391 C2390 1.367 . S
C2391 C2393 1.433 . S
C2392 C2388 1.350 . S
C2392 C2389 1.463 . S
C2392 N2396 1.427 . S
C2393 H2383 0.929 . S
C2393 C2391 1.433 . S
C2393 N2396 1.384 . S
C2394 H2385 0.929 . S
C2394 C2386 1.378 . S
C2394 C2389 1.350 . S
C2395 H2382 0.929 . S
C2395 C2387 1.433 . S
C2395 N2397 1.384 . S
N2396 C2392 1.427 . S
N2396 C2393 1.384 . S
N2397 C2389 1.427 . S
N2397 C2395 1.384 . S
H2398 C2404 0.930 . S
H2399 C2408 0.930 . S
H2400 C2413 0.929 . S
H2401 C2411 0.929 . S
H2402 C2406 0.929 . S
H2403 C2412 0.929 . S
C2404 H2398 0.930 . S
C2404 C2405 1.367 . S
C2404 C2412 1.378 . S
C2405 C2404 1.367 . S
C2405 C2413 1.433 . S
C2406 H2402 0.929 . S
C2406 C2408 1.378 . S
C2406 C2410 1.350 . S
C2407 C2410 1.463 . S
C2407 C2412 1.350 . S
C2407 N2415 1.427 . S
C2408 H2399 0.930 . S
C2408 C2406 1.378 . S
C2408 C2409 1.367 . S
C2409 C2408 1.367 . S
C2409 C2411 1.433 . S
C2410 C2406 1.350 . S
C2410 C2407 1.463 . S
C2410 N2414 1.427 . S
C2411 H2401 0.929 . S
C2411 C2409 1.433 . S
C2411 N2414 1.384 . S
C2412 H2403 0.929 . S
C2412 C2404 1.378 . S
C2412 C2407 1.350 . S
C2413 H2400 0.929 . S
C2413 C2405 1.433 . S
C2413 N2415 1.384 . S
N2414 C2410 1.427 . S
N2414 C2411 1.384 . S
N2415 C2407 1.427 . S
N2415 C2413 1.384 . S
H2416 C2422 0.930 . S
H2417 C2426 0.930 . S
H2418 C2431 0.929 . S
H2419 C2429 0.929 . S
H2420 C2424 0.929 . S
H2421 C2430 0.929 . S
C2422 H2416 0.930 . S
C2422 C2423 1.367 . S
C2422 C2430 1.378 . S
C2423 C2422 1.367 . S
C2423 C2431 1.433 . S
C2424 H2420 0.929 . S
C2424 C2426 1.378 . S
C2424 C2428 1.350 . S
C2425 C2428 1.463 . S
C2425 C2430 1.350 . S
C2425 N2433 1.427 . S
C2426 H2417 0.930 . S
C2426 C2424 1.378 . S
C2426 C2427 1.367 . S
C2427 C2426 1.367 . S
C2427 C2429 1.433 . S
C2428 C2424 1.350 . S
C2428 C2425 1.463 . S
C2428 N2432 1.427 . S
C2429 H2419 0.929 . S
C2429 C2427 1.433 . S
C2429 N2432 1.384 . S
C2430 H2421 0.929 . S
C2430 C2422 1.378 . S
C2430 C2425 1.350 . S
C2431 H2418 0.929 . S
C2431 C2423 1.433 . S
C2431 N2433 1.384 . S
N2432 C2428 1.427 . S
N2432 C2429 1.384 . S
N2433 C2425 1.427 . S
N2433 C2431 1.384 . S
H2434 C2440 0.930 . S
H2435 C2444 0.930 . S
H2436 C2449 0.929 . S
H2437 C2447 0.929 . S
H2438 C2442 0.929 . S
H2439 C2448 0.929 . S
C2440 H2434 0.930 . S
C2440 C2441 1.367 . S
C2440 C2448 1.378 . S
C2441 C2440 1.367 . S
C2441 C2449 1.433 . S
C2442 H2438 0.929 . S
C2442 C2444 1.378 . S
C2442 C2446 1.350 . S
C2443 C2446 1.463 . S
C2443 C2448 1.350 . S
C2443 N2451 1.427 . S
C2444 H2435 0.930 . S
C2444 C2442 1.378 . S
C2444 C2445 1.367 . S
C2445 C2444 1.367 . S
C2445 C2447 1.433 . S
C2446 C2442 1.350 . S
C2446 C2443 1.463 . S
C2446 N2450 1.427 . S
C2447 H2437 0.929 . S
C2447 C2445 1.433 . S
C2447 N2450 1.384 . S
C2448 H2439 0.929 . S
C2448 C2440 1.378 . S
C2448 C2443 1.350 . S
C2449 H2436 0.929 . S
C2449 C2441 1.433 . S
C2449 N2451 1.384 . S
N2450 C2446 1.427 . S
N2450 C2447 1.384 . S
N2451 C2443 1.427 . S
N2451 C2449 1.384 . S
H2452 C2458 0.930 . S
H2453 C2462 0.937 . S
H2454 C2467 0.929 . S
H2455 C2465 0.929 . S
H2456 C2460 0.929 . S
H2457 C2466 0.929 . S
C2458 H2452 0.930 . S
C2458 C2459 1.367 . S
C2458 C2466 1.378 . S
C2459 C2458 1.367 . S
C2459 C2467 1.433 . S
C2460 H2456 0.929 . S
C2460 C2462 1.374 1_655 S
C2460 C2464 1.350 . S
C2461 C2464 1.463 . S
C2461 C2466 1.350 . S
C2461 N2469 1.427 . S
C2462 H2453 0.937 . S
C2462 C2460 1.374 1_455 S
C2462 C2463 1.363 . S
C2463 C2462 1.363 . S
C2463 C2465 1.435 1_455 S
C2464 C2460 1.350 . S
C2464 C2461 1.463 . S
C2464 N2468 1.427 . S
C2465 H2455 0.929 . S
C2465 C2463 1.435 1_655 S
C2465 N2468 1.384 . S
C2466 H2457 0.929 . S
C2466 C2458 1.378 . S
C2466 C2461 1.350 . S
C2467 H2454 0.929 . S
C2467 C2459 1.433 . S
C2467 N2469 1.384 . S
N2468 C2464 1.427 . S
N2468 C2465 1.384 . S
N2469 C2461 1.427 . S
N2469 C2467 1.384 . S
H2470 C2476 0.930 . S
H2471 C2480 0.930 . S
H2472 C2485 0.929 . S
H2473 C2483 0.929 . S
H2474 C2478 0.929 . S
H2475 C2484 0.929 . S
C2476 H2470 0.930 . S
C2476 C2477 1.367 . S
C2476 C2484 1.378 . S
C2477 C2476 1.367 . S
C2477 C2485 1.433 . S
C2478 H2474 0.929 . S
C2478 C2480 1.378 . S
C2478 C2482 1.350 . S
C2479 C2482 1.463 . S
C2479 C2484 1.350 . S
C2479 N2487 1.427 . S
C2480 H2471 0.930 . S
C2480 C2478 1.378 . S
C2480 C2481 1.367 . S
C2481 C2480 1.367 . S
C2481 C2483 1.433 . S
C2482 C2478 1.350 . S
C2482 C2479 1.463 . S
C2482 N2486 1.427 . S
C2483 H2473 0.929 . S
C2483 C2481 1.433 . S
C2483 N2486 1.384 . S
C2484 H2475 0.929 . S
C2484 C2476 1.378 . S
C2484 C2479 1.350 . S
C2485 H2472 0.929 . S
C2485 C2477 1.433 . S
C2485 N2487 1.384 . S
N2486 C2482 1.427 . S
N2486 C2483 1.384 . S
N2487 C2479 1.427 . S
N2487 C2485 1.384 . S
H2488 C2494 0.930 . S
H2489 C2498 0.930 . S
H2490 C2503 0.929 . S
H2491 C2501 0.929 . S
H2492 C2496 0.929 . S
H2493 C2502 0.929 . S
C2494 H2488 0.930 . S
C2494 C2495 1.367 . S
C2494 C2502 1.378 . S
C2495 C2494 1.367 . S
C2495 C2503 1.433 . S
C2496 H2492 0.929 . S
C2496 C2498 1.378 . S
C2496 C2500 1.350 . S
C2497 C2500 1.463 . S
C2497 C2502 1.350 . S
C2497 N2505 1.427 . S
C2498 H2489 0.930 . S
C2498 C2496 1.378 . S
C2498 C2499 1.367 . S
C2499 C2498 1.367 . S
C2499 C2501 1.433 . S
C2500 C2496 1.350 . S
C2500 C2497 1.463 . S
C2500 N2504 1.427 . S
C2501 H2491 0.929 . S
C2501 C2499 1.433 . S
C2501 N2504 1.384 . S
C2502 H2493 0.929 . S
C2502 C2494 1.378 . S
C2502 C2497 1.350 . S
C2503 H2490 0.929 . S
C2503 C2495 1.433 . S
C2503 N2505 1.384 . S
N2504 C2500 1.427 . S
N2504 C2501 1.384 . S
N2505 C2497 1.427 . S
N2505 C2503 1.384 . S
H2506 C2512 0.930 . S
H2507 C2516 0.930 . S
H2508 C2521 0.929 . S
H2509 C2519 0.929 . S
H2510 C2514 0.929 . S
H2511 C2520 0.929 . S
C2512 H2506 0.930 . S
C2512 C2513 1.367 . S
C2512 C2520 1.378 . S
C2513 C2512 1.367 . S
C2513 C2521 1.433 . S
C2514 H2510 0.929 . S
C2514 C2516 1.378 . S
C2514 C2518 1.350 . S
C2515 C2518 1.463 . S
C2515 C2520 1.350 . S
C2515 N2523 1.427 . S
C2516 H2507 0.930 . S
C2516 C2514 1.378 . S
C2516 C2517 1.367 . S
C2517 C2516 1.367 . S
C2517 C2519 1.433 . S
C2518 C2514 1.350 . S
C2518 C2515 1.463 . S
C2518 N2522 1.427 . S
C2519 H2509 0.929 . S
C2519 C2517 1.433 . S
C2519 N2522 1.384 . S
C2520 H2511 0.929 . S
C2520 C2512 1.378 . S
C2520 C2515 1.350 . S
C2521 H2508 0.929 . S
C2521 C2513 1.433 . S
C2521 N2523 1.384 . S
N2522 C2518 1.427 . S
N2522 C2519 1.384 . S
N2523 C2515 1.427 . S
N2523 C2521 1.384 . S
H2524 C2530 0.930 . S
H2525 C2534 0.930 . S
H2526 C2539 0.929 . S
H2527 C2537 0.929 . S
H2528 C2532 0.929 . S
H2529 C2538 0.929 . S
C2530 H2524 0.930 . S
C2530 C2531 1.367 . S
C2530 C2538 1.378 . S
C2531 C2530 1.367 . S
C2531 C2539 1.433 . S
C2532 H2528 0.929 . S
C2532 C2534 1.378 . S
C2532 C2536 1.350 . S
C2533 C2536 1.463 . S
C2533 C2538 1.350 . S
C2533 N2541 1.427 . S
C2534 H2525 0.930 . S
C2534 C2532 1.378 . S
C2534 C2535 1.367 . S
C2535 C2534 1.367 . S
C2535 C2537 1.433 . S
C2536 C2532 1.350 . S
C2536 C2533 1.463 . S
C2536 N2540 1.427 . S
C2537 H2527 0.929 . S
C2537 C2535 1.433 . S
C2537 N2540 1.384 . S
C2538 H2529 0.929 . S
C2538 C2530 1.378 . S
C2538 C2533 1.350 . S
C2539 H2526 0.929 . S
C2539 C2531 1.433 . S
C2539 N2541 1.384 . S
N2540 C2536 1.427 . S
N2540 C2537 1.384 . S
N2541 C2533 1.427 . S
N2541 C2539 1.384 . S
H2542 C2548 0.930 . S
H2543 C2552 0.930 . S
H2544 C2557 0.929 . S
H2545 C2555 0.929 . S
H2546 C2550 0.929 . S
H2547 C2556 0.929 . S
C2548 H2542 0.930 . S
C2548 C2549 1.367 . S
C2548 C2556 1.378 . S
C2549 C2548 1.367 . S
C2549 C2557 1.433 . S
C2550 H2546 0.929 . S
C2550 C2552 1.378 . S
C2550 C2554 1.350 . S
C2551 C2554 1.463 . S
C2551 C2556 1.350 . S
C2551 N2559 1.427 . S
C2552 H2543 0.930 . S
C2552 C2550 1.378 . S
C2552 C2553 1.367 . S
C2553 C2552 1.367 . S
C2553 C2555 1.433 . S
C2554 C2550 1.350 . S
C2554 C2551 1.463 . S
C2554 N2558 1.427 . S
C2555 H2545 0.929 . S
C2555 C2553 1.433 . S
C2555 N2558 1.384 . S
C2556 H2547 0.929 . S
C2556 C2548 1.378 . S
C2556 C2551 1.350 . S
C2557 H2544 0.929 . S
C2557 C2549 1.433 . S
C2557 N2559 1.384 . S
N2558 C2554 1.427 . S
N2558 C2555 1.384 . S
N2559 C2551 1.427 . S
N2559 C2557 1.384 . S
H2560 C2566 0.930 . S
H2561 C2570 0.930 . S
H2562 C2575 0.929 . S
H2563 C2573 0.929 . S
H2564 C2568 0.929 . S
H2565 C2574 0.929 . S
C2566 H2560 0.930 . S
C2566 C2567 1.367 . S
C2566 C2574 1.378 . S
C2567 C2566 1.367 . S
C2567 C2575 1.433 . S
C2568 H2564 0.929 . S
C2568 C2570 1.378 . S
C2568 C2572 1.350 . S
C2569 C2572 1.463 . S
C2569 C2574 1.350 . S
C2569 N2577 1.427 . S
C2570 H2561 0.930 . S
C2570 C2568 1.378 . S
C2570 C2571 1.367 . S
C2571 C2570 1.367 . S
C2571 C2573 1.433 . S
C2572 C2568 1.350 . S
C2572 C2569 1.463 . S
C2572 N2576 1.427 . S
C2573 H2563 0.929 . S
C2573 C2571 1.433 . S
C2573 N2576 1.384 . S
C2574 H2565 0.929 . S
C2574 C2566 1.378 . S
C2574 C2569 1.350 . S
C2575 H2562 0.929 . S
C2575 C2567 1.433 . S
C2575 N2577 1.384 . S
N2576 C2572 1.427 . S
N2576 C2573 1.384 . S
N2577 C2569 1.427 . S
N2577 C2575 1.384 . S
H2578 C2584 0.930 . S
H2579 C2588 0.930 . S
H2580 C2593 0.929 . S
H2581 C2591 0.929 . S
H2582 C2586 0.929 . S
H2583 C2592 0.929 . S
C2584 H2578 0.930 . S
C2584 C2585 1.367 . S
C2584 C2592 1.378 . S
C2585 C2584 1.367 . S
C2585 C2593 1.433 . S
C2586 H2582 0.929 . S
C2586 C2588 1.378 . S
C2586 C2590 1.350 . S
C2587 C2590 1.463 . S
C2587 C2592 1.350 . S
C2587 N2595 1.427 . S
C2588 H2579 0.930 . S
C2588 C2586 1.378 . S
C2588 C2589 1.367 . S
C2589 C2588 1.367 . S
C2589 C2591 1.433 . S
C2590 C2586 1.350 . S
C2590 C2587 1.463 . S
C2590 N2594 1.427 . S
C2591 H2581 0.929 . S
C2591 C2589 1.433 . S
C2591 N2594 1.384 . S
C2592 H2583 0.929 . S
C2592 C2584 1.378 . S
C2592 C2587 1.350 . S
C2593 H2580 0.929 . S
C2593 C2585 1.433 . S
C2593 N2595 1.384 . S
N2594 C2590 1.427 . S
N2594 C2591 1.384 . S
N2595 C2587 1.427 . S
N2595 C2593 1.384 . S
H2596 C2602 0.930 . S
H2597 C2606 0.930 . S
H2598 C2611 0.929 . S
H2599 C2609 0.929 . S
H2600 C2604 0.929 . S
H2601 C2610 0.929 . S
C2602 H2596 0.930 . S
C2602 C2603 1.367 . S
C2602 C2610 1.378 . S
C2603 C2602 1.367 . S
C2603 C2611 1.433 . S
C2604 H2600 0.929 . S
C2604 C2606 1.378 . S
C2604 C2608 1.350 . S
C2605 C2608 1.463 . S
C2605 C2610 1.350 . S
C2605 N2613 1.427 . S
C2606 H2597 0.930 . S
C2606 C2604 1.378 . S
C2606 C2607 1.367 . S
C2607 C2606 1.367 . S
C2607 C2609 1.433 . S
C2608 C2604 1.350 . S
C2608 C2605 1.463 . S
C2608 N2612 1.427 . S
C2609 H2599 0.929 . S
C2609 C2607 1.433 . S
C2609 N2612 1.384 . S
C2610 H2601 0.929 . S
C2610 C2602 1.378 . S
C2610 C2605 1.350 . S
C2611 H2598 0.929 . S
C2611 C2603 1.433 . S
C2611 N2613 1.384 . S
N2612 C2608 1.427 . S
N2612 C2609 1.384 . S
N2613 C2605 1.427 . S
N2613 C2611 1.384 . S
H2614 C2620 0.930 . S
H2615 C2624 0.930 . S
H2616 C2629 0.929 . S
H2617 C2627 0.929 . S
H2618 C2622 0.929 . S
H2619 C2628 0.929 . S
C2620 H2614 0.930 . S
C2620 C2621 1.367 . S
C2620 C2628 1.378 . S
C2621 C2620 1.367 . S
C2621 C2629 1.433 . S
C2622 H2618 0.929 . S
C2622 C2624 1.378 . S
C2622 C2626 1.350 . S
C2623 C2626 1.463 . S
C2623 C2628 1.350 . S
C2623 N2631 1.427 . S
C2624 H2615 0.930 . S
C2624 C2622 1.378 . S
C2624 C2625 1.367 . S
C2625 C2624 1.367 . S
C2625 C2627 1.433 . S
C2626 C2622 1.350 . S
C2626 C2623 1.463 . S
C2626 N2630 1.427 . S
C2627 H2617 0.929 . S
C2627 C2625 1.433 . S
C2627 N2630 1.384 . S
C2628 H2619 0.929 . S
C2628 C2620 1.378 . S
C2628 C2623 1.350 . S
C2629 H2616 0.929 . S
C2629 C2621 1.433 . S
C2629 N2631 1.384 . S
N2630 C2626 1.427 . S
N2630 C2627 1.384 . S
N2631 C2623 1.427 . S
N2631 C2629 1.384 . S
H2632 C2638 0.930 . S
H2633 C2642 0.930 . S
H2634 C2647 0.929 . S
H2635 C2645 0.929 . S
H2636 C2640 0.929 . S
H2637 C2646 0.929 . S
C2638 H2632 0.930 . S
C2638 C2639 1.367 . S
C2638 C2646 1.378 . S
C2639 C2638 1.367 . S
C2639 C2647 1.433 . S
C2640 H2636 0.929 . S
C2640 C2642 1.378 . S
C2640 C2644 1.350 . S
C2641 C2644 1.463 . S
C2641 C2646 1.350 . S
C2641 N2649 1.427 . S
C2642 H2633 0.930 . S
C2642 C2640 1.378 . S
C2642 C2643 1.367 . S
C2643 C2642 1.367 . S
C2643 C2645 1.433 . S
C2644 C2640 1.350 . S
C2644 C2641 1.463 . S
C2644 N2648 1.427 . S
C2645 H2635 0.929 . S
C2645 C2643 1.433 . S
C2645 N2648 1.384 . S
C2646 H2637 0.929 . S
C2646 C2638 1.378 . S
C2646 C2641 1.350 . S
C2647 H2634 0.929 . S
C2647 C2639 1.433 . S
C2647 N2649 1.384 . S
N2648 C2644 1.427 . S
N2648 C2645 1.384 . S
N2649 C2641 1.427 . S
N2649 C2647 1.384 . S
H2650 C2656 0.930 . S
H2651 C2660 0.930 . S
H2652 C2665 0.929 . S
H2653 C2663 0.929 1_556 S
H2654 C2658 0.929 . S
H2655 C2664 0.929 . S
C2656 H2650 0.930 . S
C2656 C2657 1.367 . S
C2656 C2664 1.378 . S
C2657 C2656 1.367 . S
C2657 C2665 1.433 . S
C2658 H2654 0.929 . S
C2658 C2660 1.378 . S
C2658 C2662 1.350 . S
C2659 C2662 1.463 . S
C2659 C2664 1.350 . S
C2659 N2667 1.427 . S
C2660 H2651 0.930 . S
C2660 C2658 1.378 . S
C2660 C2661 1.367 . S
C2661 C2660 1.367 . S
C2661 C2663 1.433 . S
C2662 C2658 1.350 . S
C2662 C2659 1.463 . S
C2662 N2666 1.427 . S
C2663 H2653 0.929 1_554 S
C2663 C2661 1.433 . S
C2663 N2666 1.384 . S
C2664 H2655 0.929 . S
C2664 C2656 1.378 . S
C2664 C2659 1.350 . S
C2665 H2652 0.929 . S
C2665 C2657 1.433 . S
C2665 N2667 1.384 . S
N2666 C2662 1.427 . S
N2666 C2663 1.384 . S
N2667 C2659 1.427 . S
N2667 C2665 1.384 . S
H2668 C2674 0.930 . S
H2669 C2678 0.930 . S
H2670 C2683 0.929 . S
H2671 C2681 0.929 . S
H2672 C2676 0.929 . S
H2673 C2682 0.929 . S
C2674 H2668 0.930 . S
C2674 C2675 1.367 . S
C2674 C2682 1.378 . S
C2675 C2674 1.367 . S
C2675 C2683 1.433 . S
C2676 H2672 0.929 . S
C2676 C2678 1.378 . S
C2676 C2680 1.350 . S
C2677 C2680 1.463 . S
C2677 C2682 1.350 . S
C2677 N2685 1.427 . S
C2678 H2669 0.930 . S
C2678 C2676 1.378 . S
C2678 C2679 1.367 . S
C2679 C2678 1.367 . S
C2679 C2681 1.433 . S
C2680 C2676 1.350 . S
C2680 C2677 1.463 . S
C2680 N2684 1.427 . S
C2681 H2671 0.929 . S
C2681 C2679 1.433 . S
C2681 N2684 1.384 . S
C2682 H2673 0.929 . S
C2682 C2674 1.378 . S
C2682 C2677 1.350 . S
C2683 H2670 0.929 . S
C2683 C2675 1.433 . S
C2683 N2685 1.384 . S
N2684 C2680 1.427 . S
N2684 C2681 1.384 . S
N2685 C2677 1.427 . S
N2685 C2683 1.384 . S
H2686 C2692 0.930 . S
H2687 C2696 0.930 . S
H2688 C2701 0.929 . S
H2689 C2699 0.929 . S
H2690 C2694 0.929 . S
H2691 C2700 0.929 . S
C2692 H2686 0.930 . S
C2692 C2693 1.367 . S
C2692 C2700 1.378 . S
C2693 C2692 1.367 . S
C2693 C2701 1.433 . S
C2694 H2690 0.929 . S
C2694 C2696 1.378 . S
C2694 C2698 1.350 . S
C2695 C2698 1.463 . S
C2695 C2700 1.350 . S
C2695 N2703 1.427 . S
C2696 H2687 0.930 . S
C2696 C2694 1.378 . S
C2696 C2697 1.367 . S
C2697 C2696 1.367 . S
C2697 C2699 1.433 . S
C2698 C2694 1.350 . S
C2698 C2695 1.463 . S
C2698 N2702 1.427 . S
C2699 H2689 0.929 . S
C2699 C2697 1.433 . S
C2699 N2702 1.384 . S
C2700 H2691 0.929 . S
C2700 C2692 1.378 . S
C2700 C2695 1.350 . S
C2701 H2688 0.929 . S
C2701 C2693 1.433 . S
C2701 N2703 1.384 . S
N2702 C2698 1.427 . S
N2702 C2699 1.384 . S
N2703 C2695 1.427 . S
N2703 C2701 1.384 . S
C983 C109 2.203 . S
C987 C346 2.141 . S
C1001 C61 1.788 . S
C1005 C394 1.985 . S
C1019 C74 1.297 . S
C1023 C426 1.321 . S
C1041 C471 1.588 . S
C1037 C96 1.632 . S
C1055 C25 0.851 . S
C1059 C511 0.843 . S
C1077 C546 0.934 . S
C1073 C40 0.923 . S
C1095 C585 1.199 . S
C1091 C46 1.185 . S
C1109 C5 0.960 . S
C1113 C622 1.158 . S
C1131 C354 1.931 . S
C1127 C229 1.573 1_565 S
C1145 C249 0.340 . S
C1149 C391 0.483 . S
C1167 C434 2.271 . S
C1163 C271 2.078 . S
C1185 C466 1.205 . S
C1181 C172 1.174 1_556 S
C1199 C236 1.239 . S
C1203 C506 1.239 . S
C1221 C554 0.568 . S
C1217 C242 0.542 . S
C1239 C595 1.948 1_556 S
C1235 C278 2.020 . S
C1257 C625 2.013 . S
C1253 C179 2.036 . S
C1275 C351 1.308 . S
C1271 C159 0.911 . S
C1289 C285 1.865 . S
C1293 C674 2.055 . S
C1311 C711 1.052 . S
C1307 C333 1.047 . S
C1329 C742 0.585 . S
C1325 C320 0.550 . S
C1343 C123 2.680 . S
C1347 C635 2.642 . S
C1361 C138 1.438 . S
C1365 C431 1.419 . S
C1379 C326 1.794 . S
C1383 C794 1.799 . S
C1401 C826 1.854 . S
C1397 C298 1.760 . S
C1419 C355 2.128 . S
C1415 C67 2.158 . S
C1437 C825 1.893 . S
C1433 C110 1.906 . S
C1451 C88 1.309 . S
C1455 C435 1.318 . S
C1469 C75 1.366 . S
C1473 C782 1.502 . S
C1491 C502 0.806 . S
C1487 C11 0.804 . S
C1505 C47 0.894 . S
C1509 C715 0.944 . S
C1527 C594 1.146 . S
C1523 C32 1.131 . S
C1545 C871 1.199 . S
C1541 C26 1.205 . S
C1563 C345 2.052 . S
C1559 C152 2.049 . S
C1581 C822 0.538 . S
C1577 C319 0.598 . S
C1595 C124 2.287 . S
C1599 C425 2.258 . S
C1613 C284 1.223 . S
C1617 C795 1.221 . S
C1631 C145 1.054 . S
C1635 C515 1.169 . S
C1653 C705 0.464 . S
C1649 C312 0.598 . S
C1667 C117 1.529 . S
C1671 C586 1.743 . S
C1685 C291 1.955 1_556 S
C1689 C874 1.977 . S
C1703 C194 1.490 . S
C1707 C342 1.464 . S
C1721 C180 2.015 . S
C1725 C665 1.979 . S
C1739 C263 0.973 . S
C1743 C542 0.987 . S
C1757 C243 0.735 . S
C1761 C751 0.528 . S
C1779 C866 2.659 . S
C1775 C277 2.694 . S
C1793 C215 1.237 . S
C1797 C422 1.360 . S
C1815 C465 1.676 . S
C1811 C256 1.578 . S
C1833 C395 1.916 . S
C1829 C200 1.940 . S
C1847 C81 2.203 . S
C1851 C906 2.132 . S
C1869 C834 1.982 . S
C1865 C89 1.794 . S
C1883 C102 1.285 . S
C1887 C946 1.325 . S
C1901 C68 1.629 . S
C1905 C791 1.580 . S
C1919 C53 0.838 . S
C1923 C671 0.851 . S
C1941 C706 0.935 . S
C1937 C12 0.921 . S
C1959 C745 1.202 . S
C1955 C18 1.181 . S
C1977 C862 1.155 . S
C1973 C33 0.948 . S
C1995 C914 1.933 . S
C1991 C257 1.575 . S
C2009 C193 0.389 . S
C2013 C831 0.522 . S
C2031 C954 2.269 . S
C2027 C201 2.080 . S
C2049 C786 1.204 . S
C2045 C214 1.174 . S
C2067 C666 1.236 . S
C2063 C264 1.241 . S
C2081 C186 0.553 . S
C2085 C714 0.588 . S
C2103 C755 1.946 . S
C2099 C208 2.021 . S
C2117 C221 2.037 . S
C2121 C865 2.014 . S
C2139 C911 1.311 . S
C2135 C313 0.923 . S
C2153 C131 1.877 . S
C2157 C514 2.047 . S
C2175 C551 1.045 . S
C2171 C151 1.048 1_565 S
C2193 C582 0.571 . S
C2189 C166 0.544 . S
C2211 C875 2.642 . S
C2207 C305 2.680 . S
C2225 C292 1.438 . S
C2229 C951 1.417 . S
C2247 C474 1.796 . S
C2243 C144 1.796 . S
C2265 C386 1.854 . S
C2261 C116 1.752 . S
C2279 C95 2.161 . S
C2283 C915 2.137 . S
C2301 C385 1.894 . S
C2297 C82 1.908 . S
C2315 C60 1.309 . S
C2319 C955 1.310 . S
C2333 C103 1.373 . S
C2337 C462 1.499 . S
C2351 C39 0.805 . S
C2355 C662 0.807 . S
C2373 C555 0.946 . S
C2369 C19 0.886 . S
C2387 C4 1.127 . S
C2391 C754 1.143 . S
C2405 C54 1.203 . S
C2409 C631 1.196 . S
C2427 C905 2.051 . S
C2423 C334 2.050 . S
C2441 C165 0.582 . S
C2445 C382 0.525 . S
C2463 C945 2.258 . S
C2459 C306 2.288 . S
C2477 C130 1.214 . S
C2481 C475 1.225 . S
C2495 C327 1.058 . S
C2499 C675 1.168 . S
C2517 C545 0.498 . S
C2513 C158 0.605 . S
C2531 C299 1.525 . S
C2535 C746 1.744 1_655 S
C2553 C634 1.976 . S
C2549 C137 1.957 . S
C2571 C902 1.447 . S
C2567 C250 1.475 . S
C2589 C505 1.982 1_565 S
C2585 C222 2.014 . S
C2603 C235 0.992 . S
C2607 C702 0.998 . S
C2625 C591 0.504 . S
C2621 C187 0.715 . S
C2639 C207 2.694 . S
C2643 C626 2.659 . S
C2657 C173 1.229 . S
C2661 C942 1.363 . S
C2679 C785 1.675 . S
C2675 C228 1.583 . S
C2697 C835 1.909 . S
C2693 C270 1.938 . S
