# Generated by pormake.
# Topology anh, (6,3)-cn, num edge types: 1
# Building blocks:
#     Node 0, Type 0, BuildingBlock: BETGAK_clean_sbu_0, # of connection points: 6
#     Node 1, Type 0, BuildingBlock: BETGAK_clean_sbu_0, # of connection points: 6
#     Node 2, Type 0, BuildingBlock: BETGAK_clean_sbu_0, # of connection points: 6
#     Node 3, Type 1, BuildingBlock: WUSLED_clean_sbu_0, # of connection points: 3
#     Node 4, Type 1, BuildingBlock: WUSLED_clean_sbu_0, # of connection points: 3
#     Node 5, Type 1, BuildingBlock: WUSLED_clean_sbu_0, # of connection points: 3
#     Node 6, Type 1, BuildingBlock: WUSLED_clean_sbu_0, # of connection points: 3
#     Node 7, Type 1, BuildingBlock: WUSLED_clean_sbu_0, # of connection points: 3
#     Node 8, Type 1, BuildingBlock: WUSLED_clean_sbu_0, # of connection points: 3
#     Edge 9, Type (0, 1), BuildingBlock: EZIPEK_clean_linker_0, # of connection points: 2
#     Edge 10, Type (0, 1), BuildingBlock: EZIPEK_clean_linker_0, # of connection points: 2
#     Edge 11, Type (0, 1), BuildingBlock: EZIPEK_clean_linker_0, # of connection points: 2
#     Edge 12, Type (0, 1), BuildingBlock: EZIPEK_clean_linker_0, # of connection points: 2
#     Edge 13, Type (0, 1), BuildingBlock: EZIPEK_clean_linker_0, # of connection points: 2
#     Edge 14, Type (0, 1), BuildingBlock: EZIPEK_clean_linker_0, # of connection points: 2
#     Edge 15, Type (0, 1), BuildingBlock: EZIPEK_clean_linker_0, # of connection points: 2
#     Edge 16, Type (0, 1), BuildingBlock: EZIPEK_clean_linker_0, # of connection points: 2
#     Edge 17, Type (0, 1), BuildingBlock: EZIPEK_clean_linker_0, # of connection points: 2
#     Edge 18, Type (0, 1), BuildingBlock: EZIPEK_clean_linker_0, # of connection points: 2
#     Edge 19, Type (0, 1), BuildingBlock: EZIPEK_clean_linker_0, # of connection points: 2
#     Edge 20, Type (0, 1), BuildingBlock: EZIPEK_clean_linker_0, # of connection points: 2
#     Edge 21, Type (0, 1), BuildingBlock: EZIPEK_clean_linker_0, # of connection points: 2
#     Edge 22, Type (0, 1), BuildingBlock: EZIPEK_clean_linker_0, # of connection points: 2
#     Edge 23, Type (0, 1), BuildingBlock: EZIPEK_clean_linker_0, # of connection points: 2
#     Edge 24, Type (0, 1), BuildingBlock: EZIPEK_clean_linker_0, # of connection points: 2
#     Edge 25, Type (0, 1), BuildingBlock: EZIPEK_clean_linker_0, # of connection points: 2
#     Edge 26, Type (0, 1), BuildingBlock: EZIPEK_clean_linker_0, # of connection points: 2
# Relax obj value: 0.196
# Max RMSD: 0.213
# Mean RMSD: 0.156
data_MOF--net-anh--node1-BETGAK_clean_sbu_0--node2-WUSLED_clean_sbu_0--edge1-EZIPEK_clean_linker_0
_symmetry_space_group_name_H-M    P1
_symmetry_Int_Tables_number       1
_symmetry_cell_setting            triclinic
loop_
_symmetry_equiv_pos_as_xyz
'x, y, z'
_cell_length_a     31.914578
_cell_length_b     37.904224
_cell_length_c     55.622209
_cell_angle_alpha  91.458523
_cell_angle_beta   90.189503
_cell_angle_gamma 129.58258
loop_
_atom_site_label
_atom_site_type_symbol
_atom_site_fract_x
_atom_site_fract_y
_atom_site_fract_z
_atom_type_partial_charge
La0 La 0.12725 0.52039 0.16794 0.0
La1 La 1.07403 0.5483 0.16061 0.0
C2 C 0.16723 0.48255 0.16983 0.0
C3 C 0.21779 0.50199 0.18211 0.0
C4 C 0.22255 0.4735 0.19489 0.0
C5 C 0.27406 0.48789 0.19969 0.0
C6 C 0.31904 0.52953 0.19064 0.0
C7 C 0.31473 0.56217 0.18352 0.0
C8 C 0.26341 0.54811 0.17895 0.0
C9 C 0.11446 0.54336 0.21067 0.0
C10 C 0.19989 0.62558 0.1691 0.0
C11 C 1.03688 0.58914 0.16355 0.0
C12 C 0.98838 0.57202 0.176 0.0
C13 C 0.95162 0.57485 0.16482 0.0
C14 C 0.89729 0.54362 0.17031 0.0
C15 C 0.88018 0.51007 0.18713 0.0
C16 C 0.91731 0.5091 0.19956 0.0
C17 C 0.9717 0.54033 0.19406 0.0
C18 C 0.0913 0.52547 0.11836 0.0
C19 C 1.00093 0.44496 0.16608 0.0
O20 O 0.12926 0.47248 0.18421 0.0
O21 O 0.17107 0.50393 0.15075 0.0
O22 O 0.15893 0.55377 0.20286 0.0
O23 O 1.07798 0.52189 0.19393 0.0
O24 O 0.20167 0.59202 0.17055 0.0
O25 O 0.15362 0.61589 0.16395 0.0
O26 O 1.02723 0.5628 0.14506 0.0
O27 O 1.0768 0.59977 0.17736 0.0
O28 O 1.04559 0.51393 0.12516 0.0
O29 O 0.12579 0.54871 0.13541 0.0
O30 O 1.0017 0.47969 0.17007 0.0
O31 O 1.04682 0.4546 0.16017 0.0
H32 H 0.18717 0.43856 0.19834 0.0
H33 H 0.27785 0.46312 0.20585 0.0
H34 H 0.34965 0.5947 0.17682 0.0
H35 H 0.26033 0.57108 0.16967 0.0
H36 H 0.96408 0.5983 0.15044 0.0
H37 H 0.86819 0.54447 0.16086 0.0
H38 H 0.90395 0.48344 0.21272 0.0
H39 H 0.99981 0.53714 0.20244 0.0
La40 La 0.6245 1.01471 0.48499 0.0
La41 La 0.55944 0.04504 0.4846 0.0
C42 C 0.6604 0.97488 0.49726 0.0
C43 C 0.63918 0.92706 0.49787 0.0
C44 C 0.65472 0.91034 0.48028 0.0
C45 C 0.64127 0.86759 0.48247 0.0
C46 C 0.6122 0.84105 0.5023 0.0
C47 C 0.59354 0.85615 0.51906 0.0
C48 C 0.60694 0.89891 0.51689 0.0
C49 C 0.60795 0.03063 0.44158 0.0
C50 C 0.49444 0.93916 0.48026 0.0
C51 C 0.52433 0.08688 0.47589 0.0
C52 C 0.54536 0.13398 0.48153 0.0
C53 C 0.5554 0.15107 0.50545 0.0
C54 C 0.57049 0.19413 0.51048 0.0
C55 C 0.57619 0.22081 0.49171 0.0
C56 C 0.5697 0.2052 0.4678 0.0
C57 C 0.55433 0.16199 0.46275 0.0
C58 C 0.57711 0.02984 0.52821 0.0
C59 C 0.6903 0.11981 0.484 0.0
O60 O 0.66743 0.99166 0.476 0.0
O61 O 0.63995 0.98712 0.51237 0.0
O62 O 0.65007 0.03518 0.44833 0.0
O63 O 0.57376 1.01231 0.45819 0.0
O64 O 0.54157 0.94862 0.4844 0.0
O65 O 0.49188 0.97231 0.47714 0.0
O66 O 0.50871 0.06007 0.49404 0.0
O67 O 0.55203 0.08278 0.46054 0.0
O68 O 0.53431 0.02405 0.52136 0.0
O69 O 0.61047 0.04798 0.51126 0.0
O70 O 0.64269 0.11032 0.48193 0.0
O71 O 0.69395 0.08762 0.48799 0.0
H72 H 0.67933 0.93115 0.46538 0.0
H73 H 0.65596 0.85627 0.46942 0.0
H74 H 0.5712 0.83598 0.53451 0.0
H75 H 0.59399 0.91061 0.53067 0.0
H76 H 0.54994 0.1307 0.52033 0.0
H77 H 0.57542 0.20583 0.52905 0.0
H78 H 0.57401 0.2255 0.45315 0.0
H79 H 0.54773 0.14981 0.44419 0.0
La80 La 0.65818 0.59399 0.84277 0.0
La81 La 0.58391 0.49292 0.84065 0.0
C82 C 0.70493 0.6757 0.83278 0.0
C83 C 0.68717 0.70297 0.83007 0.0
C84 C 0.72209 0.74916 0.83782 0.0
C85 C 0.70714 0.77624 0.83444 0.0
C86 C 0.65711 0.7574 0.82321 0.0
C87 C 0.62115 0.71081 0.81631 0.0
C88 C 0.63592 0.68367 0.8199 0.0
C89 C 0.63835 0.55697 0.88459 0.0
C90 C 0.52635 0.5386 0.84619 0.0
C91 C 0.54023 0.41073 0.84802 0.0
C92 C 0.55335 0.38077 0.84171 0.0
C93 C 0.57247 0.38122 0.81887 0.0
C94 C 0.5828 0.35127 0.81313 0.0
C95 C 0.57446 0.32076 0.83017 0.0
C96 C 0.55735 0.32152 0.85322 0.0
C97 C 0.54695 0.35138 0.85895 0.0
C98 C 0.60681 0.52982 0.79811 0.0
C99 C 0.71651 0.54925 0.84553 0.0
O100 O 0.70325 0.66271 0.85453 0.0
O101 O 0.68672 0.64295 0.81653 0.0
O102 O 0.68255 0.5973 0.87958 0.0
O103 O 0.60465 0.5422 0.86737 0.0
O104 O 0.57625 0.57786 0.84224 0.0
O105 O 0.52006 0.5003 0.84795 0.0
O106 O 0.52585 0.42339 0.83031 0.0
O107 O 0.57399 0.44458 0.8633 0.0
O108 O 0.56095 0.49114 0.80335 0.0
O109 O 0.63961 0.54435 0.81579 0.0
O110 O 0.6655 0.50945 0.84512 0.0
O111 O 0.7241 0.58803 0.84288 0.0
H112 H 0.7613 0.76444 0.84613 0.0
H113 H 0.73509 0.81215 0.84 0.0
H114 H 0.58227 0.69579 0.80771 0.0
H115 H 0.60753 0.64789 0.81445 0.0
H116 H 0.57862 0.40413 0.80538 0.0
H117 H 0.59608 0.35113 0.79525 0.0
H118 H 0.55088 0.29827 0.86657 0.0
H119 H 0.53308 0.35106 0.87676 0.0
C120 C 0.72367 0.15831 0.18659 0.0
C121 C 0.75841 0.1841 0.2066 0.0
C122 C 0.81585 0.25178 0.18209 0.0
C123 C 0.80432 0.23054 0.20433 0.0
C124 C 0.7809 0.22568 0.16226 0.0
C125 C 0.73549 0.17955 0.16449 0.0
U126 U 0.60718 0.04114 0.21597 0.0
O127 O 0.52316 0.99198 0.20093 0.0
O128 O 0.57545 0.97287 0.20212 0.0
C129 C 0.52847 0.96114 0.19526 0.0
C130 C 0.67537 0.10919 0.18754 0.0
C131 C 0.47963 0.91208 0.19385 0.0
C132 C 0.40165 0.84909 0.16966 0.0
C133 C 0.44589 0.89572 0.17315 0.0
C134 C 0.42327 0.83396 0.2078 0.0
C135 C 0.39008 0.81773 0.18685 0.0
C136 C 0.46801 0.88087 0.21125 0.0
C137 C 0.61051 0.04597 0.28827 0.0
C138 C 0.54994 1.00471 0.32166 0.0
C139 C 0.64596 0.06676 0.32952 0.0
C140 C 0.65408 0.07334 0.30488 0.0
C141 C 0.59394 0.03258 0.33821 0.0
C142 C 0.55817 1.01136 0.29676 0.0
C143 C 0.62215 0.05766 0.2627 0.0
O144 O 0.68275 0.0811 0.19544 0.0
O145 O 0.62994 0.09929 0.19479 0.0
O146 O 0.58978 0.06055 0.24989 0.0
O147 O 0.64447 0.04378 0.2502 0.0
H148 H 0.75014 0.16838 0.22383 0.0
H149 H 0.83072 0.24993 0.21989 0.0
H150 H 0.78885 0.2411 0.14495 0.0
H151 H 0.70944 0.16029 0.14881 0.0
H152 H 0.37644 0.83741 0.15348 0.0
H153 H 0.45437 0.91908 0.15938 0.0
H154 H 0.41469 0.81028 0.22138 0.0
H155 H 0.49363 0.89262 0.22727 0.0
H156 H 0.50943 0.97817 0.32802 0.0
H157 H 0.68037 0.08876 0.3419 0.0
H158 H 0.69463 0.10058 0.29875 0.0
H159 H 0.52389 0.99001 0.28427 0.0
C160 C 0.59756 0.61276 0.53415 0.0
C161 C 0.59389 0.63632 0.55279 0.0
C162 C 0.59949 0.686 0.52377 0.0
C163 C 0.5948 0.67276 0.54761 0.0
C164 C 0.60297 0.66234 0.50518 0.0
C165 C 0.60194 0.62591 0.51035 0.0
U166 U 0.60088 0.53754 0.57753 0.0
O167 O 0.55883 0.46384 0.57487 0.0
O168 O 0.64828 0.51373 0.57566 0.0
C169 C 0.6045 0.47043 0.57358 0.0
C170 C 0.59819 0.5752 0.53917 0.0
C171 C 0.60599 0.44158 0.55601 0.0
C172 C 0.57678 0.39615 0.51858 0.0
C173 C 0.57982 0.42848 0.53323 0.0
C174 C 0.62768 0.39149 0.54892 0.0
C175 C 0.59947 0.37658 0.52674 0.0
C176 C 0.63097 0.42375 0.56338 0.0
C177 C 0.60469 0.56009 0.64622 0.0
C178 C 0.62924 0.53331 0.67836 0.0
C179 C 0.59866 0.57566 0.68807 0.0
C180 C 0.59104 0.57817 0.66362 0.0
C181 C 0.62357 0.55756 0.69613 0.0
C182 C 0.62158 0.53579 0.65372 0.0
C183 C 0.6018 0.56816 0.62065 0.0
O184 O 0.64347 0.58773 0.5491 0.0
O185 O 0.55429 0.53914 0.54893 0.0
O186 O 0.55677 0.53581 0.60856 0.0
O187 O 0.6459 0.586 0.60831 0.0
H188 H 0.59073 0.62672 0.57129 0.0
H189 H 0.59235 0.6909 0.56216 0.0
H190 H 0.60689 0.67234 0.48672 0.0
H191 H 0.60501 0.6082 0.49578 0.0
H192 H 0.55498 0.38502 0.50142 0.0
H193 H 0.56043 0.44203 0.52717 0.0
H194 H 0.64547 0.37682 0.55545 0.0
H195 H 0.65138 0.43351 0.58084 0.0
H196 H 0.63871 0.51161 0.68285 0.0
H197 H 0.58486 0.58848 0.7005 0.0
H198 H 0.57496 0.59487 0.6583 0.0
H199 H 0.62908 0.51893 0.64056 0.0
C200 C 1.00112 0.54928 0.86666 0.0
C201 C 0.94709 0.51223 0.87326 0.0
C202 C 0.90866 0.55003 0.86033 0.0
C203 C 0.90252 0.51262 0.8702 0.0
C204 C 0.96296 0.58723 0.85407 0.0
C205 C 1.0073 0.58666 0.85692 0.0
U206 U 0.12137 0.543 0.88874 0.0
O207 O 0.14545 0.50487 0.87031 0.0
O208 O 0.20452 0.57887 0.874 0.0
C209 C 0.19591 0.54148 0.86644 0.0
C210 C 1.04892 0.54741 0.86641 0.0
C211 C 0.24329 0.53923 0.86617 0.0
C212 C 0.29099 0.51536 0.8445 0.0
C213 C 0.24641 0.51552 0.84701 0.0
C214 C 0.33294 0.56269 0.88034 0.0
C215 C 0.33608 0.53912 0.86095 0.0
C216 C 0.28812 0.5629 0.88284 0.0
C217 C 0.11741 0.53785 0.96281 0.0
C218 C 0.16443 0.56123 1.00209 0.0
C219 C 1.06618 0.51022 0.99997 0.0
C220 C 1.06757 0.51126 0.97469 0.0
C221 C 0.11459 0.53514 0.01397 0.0
C222 C 0.16583 0.56288 0.97682 0.0
C223 C 0.11888 0.53973 0.936 0.0
O224 O 0.09882 0.58335 0.87313 0.0
O225 O 1.04013 0.50926 0.8709 0.0
O226 O 0.08848 0.50279 0.92186 0.0
O227 O 0.15061 0.57844 0.92474 0.0
H228 H 0.93869 0.48209 0.88046 0.0
H229 H 0.86248 0.48283 0.8754 0.0
H230 H 0.97131 0.6171 0.84648 0.0
H231 H 1.04693 0.61573 0.85088 0.0
H232 H 0.29034 0.49669 0.82925 0.0
H233 H 0.2142 0.49733 0.83337 0.0
H234 H 0.36584 0.58168 0.89363 0.0
H235 H 0.28901 0.58219 0.89782 0.0
H236 H 0.20231 0.58071 0.01243 0.0
H237 H 1.02725 0.49003 1.00865 0.0
H238 H 1.02962 0.49182 0.96441 0.0
H239 H 0.20483 0.58349 0.9682 0.0
C240 C 0.96891 0.40444 0.4649 0.0
C241 C 0.92707 0.3804 0.44722 0.0
C242 C 0.87817 0.31123 0.47064 0.0
C243 C 0.88198 0.33399 0.45006 0.0
C244 C 0.92036 0.3353 0.48805 0.0
C245 C 0.96516 0.38138 0.4852 0.0
U246 U 1.08519 0.52784 0.43942 0.0
O247 O 0.11054 0.59129 0.45784 0.0
O248 O 0.16645 0.57617 0.45678 0.0
C249 C 0.15885 0.60503 0.46387 0.0
C250 C 1.01531 0.45407 0.4641 0.0
C251 C 0.20539 0.65463 0.46296 0.0
C252 C 0.25721 0.72995 0.48299 0.0
C253 C 0.21115 0.68362 0.48136 0.0
C254 C 0.29245 0.7197 0.4474 0.0
C255 C 0.29854 0.74829 0.46622 0.0
C256 C 0.24618 0.67309 0.44579 0.0
C257 C 1.0815 0.5253 0.3657 0.0
C258 C 1.07865 0.55622 0.32837 0.0
C259 C 0.08808 0.49768 0.32697 0.0
C260 C 0.08678 0.49654 0.35216 0.0
C261 C 1.08459 0.52788 0.31487 0.0
C262 C 1.07689 0.5548 0.35354 0.0
C263 C 1.08289 0.52588 0.39237 0.0
O264 O 1.06244 0.46669 0.4574 0.0
O265 O 1.00603 0.48136 0.45691 0.0
O266 O 1.05652 0.53539 0.40529 0.0
O267 O 0.1101 0.51686 0.40476 0.0
H268 H 0.92894 0.39753 0.43146 0.0
H269 H 0.84989 0.3159 0.43636 0.0
H270 H 0.91833 0.31845 0.50398 0.0
H271 H 0.99671 0.39935 0.49916 0.0
H272 H 0.26123 0.75133 0.49768 0.0
H273 H 0.18052 0.67005 0.49494 0.0
H274 H 0.32406 0.73324 0.43434 0.0
H275 H 0.24288 0.65139 0.43152 0.0
H276 H 1.07651 0.58011 0.31944 0.0
H277 H 0.09298 0.47571 0.31692 0.0
H278 H 0.0903 0.47342 0.36107 0.0
H279 H 1.07334 0.57766 0.36354 0.0
C280 C 0.6119 0.95225 0.79193 0.0
C281 C 0.57299 0.90707 0.78262 0.0
C282 C 0.62182 0.88518 0.80159 0.0
C283 C 0.5778 0.87372 0.78754 0.0
C284 C 0.6607 0.93015 0.8108 0.0
C285 C 0.65564 0.96334 0.80609 0.0
U286 U 0.60181 0.02617 0.75025 0.0
O287 O 0.55647 0.05167 0.75414 0.0
O288 O 0.64578 0.10032 0.75271 0.0
C289 C 0.60109 0.09479 0.75563 0.0
C290 C 0.60763 0.98825 0.78758 0.0
C291 C 0.60383 0.12576 0.77355 0.0
C292 C 0.56247 0.14047 0.8046 0.0
C293 C 0.56486 0.1097 0.79147 0.0
C294 C 0.63988 0.20362 0.78326 0.0
C295 C 0.59869 0.18741 0.7998 0.0
C296 C 0.64243 0.17307 0.77028 0.0
C297 C 0.60157 1.0064 0.68111 0.0
C298 C 0.57863 0.03262 0.64791 0.0
C299 C 0.62186 0.99943 0.63997 0.0
C300 C 0.6229 0.99331 0.66457 0.0
C301 C 0.59924 1.01865 0.63138 0.0
C302 C 0.57995 0.02668 0.67268 0.0
C303 C 0.60139 0.99694 0.70675 0.0
O304 O 0.65047 0.02571 0.77819 0.0
O305 O 0.56136 0.97497 0.77835 0.0
O306 O 0.55684 0.97978 0.71863 0.0
O307 O 0.6461 0.028 0.71936 0.0
H308 H 0.53887 0.89744 0.7716 0.0
H309 H 0.54751 0.83909 0.78029 0.0
H310 H 0.69485 0.93947 0.82169 0.0
H311 H 0.68601 0.99781 0.81354 0.0
H312 H 0.53048 0.12745 0.8174 0.0
H313 H 0.53469 0.07339 0.79447 0.0
H314 H 0.66813 0.23967 0.77935 0.0
H315 H 0.67274 0.18627 0.75658 0.0
H316 H 0.56092 0.04746 0.6416 0.0
H317 H 0.63763 0.98821 0.62752 0.0
H318 H 0.6397 0.9776 0.67069 0.0
H319 H 0.56348 0.03725 0.68515 0.0
C320 C 0.60517 0.44554 0.14165 0.0
C321 C 0.65345 0.46066 0.13082 0.0
C322 C 0.67729 0.44147 0.16628 0.0
C323 C 0.68977 0.4592 0.14326 0.0
C324 C 0.62758 0.42361 0.17655 0.0
C325 C 0.59162 0.42623 0.16428 0.0
U326 U 0.56375 0.46383 0.0843 0.0
O327 O 0.48804 0.44812 0.07145 0.0
O328 O 0.56378 0.51989 0.07555 0.0
C329 C 0.51042 0.49157 0.0747 0.0
C330 C 0.57097 0.45241 0.12956 0.0
C331 C 0.48922 0.50062 0.09462 0.0
C332 C 0.47124 0.49245 0.13724 0.0
C333 C 0.48264 0.47968 0.11642 0.0
C334 C 0.47414 0.54822 0.11483 0.0
C335 C 0.46409 0.52495 0.13608 0.0
C336 C 0.48711 0.53621 0.09405 0.0
C337 C 0.61375 0.46676 0.02629 0.0
C338 C 0.58875 0.49769 0.99749 0.0
C339 C 0.63698 0.47052 0.98482 0.0
C340 C 0.63726 0.45864 1.00828 0.0
C341 C 0.61335 0.49056 0.97958 0.0
C342 C 0.5887 0.48554 0.02075 0.0
C343 C 0.61441 0.45638 0.0511 0.0
O344 O 0.59862 0.49294 0.12021 0.0
O345 O 0.53346 0.41843 0.11493 0.0
O346 O 0.56644 0.4207 0.05842 0.0
O347 O 0.63949 0.49256 0.06583 0.0
H348 H 0.66399 0.47529 0.11318 0.0
H349 H 0.72831 0.47316 0.13528 0.0
H350 H 0.61818 0.41003 0.19441 0.0
H351 H 0.55425 0.41445 0.17264 0.0
H352 H 0.4621 0.47358 0.15342 0.0
H353 H 0.48544 0.45282 0.11729 0.0
H354 H 0.4677 0.573 0.11392 0.0
H355 H 0.49467 0.55401 0.07763 0.0
H356 H 0.57052 0.5132 0.99352 0.0
H357 H 0.65597 0.46497 0.97084 0.0
H358 H 0.65616 0.44377 0.01239 0.0
H359 H 0.56974 0.49139 0.03451 0.0
C360 C 0.33986 0.50209 0.15587 0.0
C361 C 0.35776 0.52845 0.17784 0.0
C362 C 0.4477 0.55117 0.17379 0.0
C363 C 0.42767 0.52199 0.15298 0.0
N364 N 0.35125 0.45908 0.12856 0.0
N365 N 0.42567 0.57513 0.20913 0.0
C366 C 0.37245 0.49359 0.14566 0.0
C367 C 0.41089 0.55205 0.18738 0.0
N368 N 0.29363 0.48755 0.14376 0.0
N369 N 0.50161 0.57829 0.18007 0.0
H370 H 0.39963 0.57749 0.21891 0.0
H371 H 0.46244 0.5899 0.21806 0.0
H372 H 0.5286 0.57644 0.17082 0.0
H373 H 0.51989 0.60357 0.19373 0.0
H374 H 0.28341 0.47319 0.12633 0.0
H375 H 0.26871 0.49453 0.14943 0.0
H376 H 0.30963 0.43453 0.12478 0.0
H377 H 0.37397 0.4519 0.11981 0.0
C378 C 0.74955 0.20332 0.49696 0.0
C379 C 0.74061 0.16848 0.48156 0.0
C380 C 0.82469 0.22716 0.46045 0.0
C381 C 0.83029 0.26208 0.47414 0.0
N382 N 0.794 0.28395 0.50321 0.0
N383 N 0.76503 0.14839 0.44576 0.0
C384 C 0.79162 0.25028 0.49184 0.0
C385 C 0.7771 0.18068 0.4626 0.0
N386 N 0.71888 0.19153 0.51696 0.0
N387 N 0.86559 0.23824 0.4458 0.0
H388 H 0.7309 0.11414 0.44651 0.0
H389 H 0.78622 0.15621 0.4299 0.0
H390 H 0.90086 0.27185 0.44354 0.0
H391 H 0.86674 0.21391 0.43752 0.0
H392 H 0.72722 0.21512 0.53031 0.0
H393 H 0.68791 0.15763 0.52136 0.0
H394 H 0.76371 0.27738 0.51434 0.0
H395 H 0.82401 0.31863 0.4999 0.0
C396 C 0.65877 0.80773 0.79437 0.0
C397 C 0.64423 0.78746 0.81719 0.0
C398 C 0.61216 0.82922 0.82933 0.0
C399 C 0.62774 0.85023 0.80667 0.0
N400 N 0.65961 0.8565 0.76652 0.0
N401 N 0.60998 0.7792 0.85692 0.0
C402 C 0.64918 0.83852 0.78885 0.0
C403 C 0.62135 0.79807 0.83479 0.0
N404 N 0.68423 0.79912 0.77847 0.0
N405 N 0.58707 0.83817 0.84523 0.0
H406 H 0.61416 0.75488 0.86107 0.0
H407 H 0.59835 0.78846 0.87158 0.0
H408 H 0.57982 0.86081 0.84177 0.0
H409 H 0.57064 0.82175 0.86133 0.0
H410 H 0.70183 0.81655 0.76271 0.0
H411 H 0.69065 0.77585 0.78157 0.0
H412 H 0.669 0.84555 0.75174 0.0
H413 H 0.65615 0.88117 0.76222 0.0
C414 C 0.78939 0.43847 0.17662 0.0
C415 C 0.82272 0.47767 0.19197 0.0
C416 C 0.752 0.48327 0.19686 0.0
C417 C 0.71949 0.44591 0.17996 0.0
N418 N 0.70399 0.3835 0.15639 0.0
N419 N 0.83279 0.52805 0.22274 0.0
C420 C 0.73626 0.4212 0.17136 0.0
C421 C 0.80201 0.49585 0.20469 0.0
N422 N 0.80969 0.41972 0.16563 0.0
N423 N 0.7386 0.51006 0.20308 0.0
H424 H 0.87065 0.53832 0.22806 0.0
H425 H 0.81887 0.54117 0.2337 0.0
H426 H 0.70259 0.50282 0.19748 0.0
H427 H 0.76507 0.54148 0.21241 0.0
H428 H 0.7867 0.39196 0.15331 0.0
H429 H 0.84911 0.43184 0.16918 0.0
H430 H 0.66419 0.36884 0.15135 0.0
H431 H 0.66419 0.36884 0.15135 0.0
C432 C 0.40896 0.87637 0.45632 0.0
C433 C 0.4446 0.88999 0.47647 0.0
C434 C 0.3882 0.80914 0.48751 0.0
C435 C 0.34936 0.79694 0.46931 0.0
N436 N 0.31837 0.82005 0.43877 0.0
N437 N 0.46399 0.86884 0.51312 0.0
C438 C 0.35843 0.83092 0.45444 0.0
C439 C 0.43321 0.85621 0.49254 0.0
N440 N 0.42474 0.9057 0.43804 0.0
N441 N 0.38296 0.77556 0.49958 0.0
H442 H 0.49823 0.90228 0.51756 0.0
H443 H 0.45314 0.84653 0.52691 0.0
H444 H 0.35046 0.74076 0.49655 0.0
H445 H 0.41316 0.78183 0.51099 0.0
H446 H 0.40255 0.89598 0.42195 0.0
H447 H 0.46297 0.93796 0.43756 0.0
H448 H 0.32028 0.84455 0.42948 0.0
H449 H 0.28117 0.78701 0.43661 0.0
C450 C 0.5392 0.24768 0.80819 0.0
C451 C 0.57977 0.28562 0.82334 0.0
C452 C 0.62694 0.25414 0.82668 0.0
C453 C 0.58977 0.2191 0.80941 0.0
N454 N 0.51579 0.1869 0.78056 0.0
N455 N 0.66608 0.32868 0.84468 0.0
C456 C 0.54715 0.21691 0.79936 0.0
C457 C 0.62468 0.28983 0.83205 0.0
N458 N 0.49235 0.24037 0.8027 0.0
N459 N 0.66369 0.25273 0.83823 0.0
H460 H 0.66574 0.35548 0.84888 0.0
H461 H 0.7026 0.33602 0.84933 0.0
H462 H 0.66615 0.22693 0.8347 0.0
H463 H 0.68837 0.27464 0.85268 0.0
H464 H 0.45881 0.21057 0.79398 0.0
H465 H 0.48488 0.26214 0.80875 0.0
H466 H 0.48865 0.18767 0.77065 0.0
H467 H 0.52 0.16365 0.7734 0.0
C468 C 0.56145 0.75626 0.50036 0.0
C469 C 0.60853 0.80105 0.50745 0.0
C470 C 0.65132 0.77074 0.52329 0.0
C471 C 0.60239 0.72561 0.51822 0.0
N472 N 0.50842 0.67447 0.50474 0.0
N473 N 0.69561 0.85138 0.52839 0.0
C474 C 0.55672 0.71807 0.50746 0.0
C475 C 0.65274 0.80842 0.5197 0.0
N476 N 0.52192 0.7504 0.48642 0.0
N477 N 0.69705 0.77766 0.53068 0.0
H478 H 0.6991 0.88026 0.52562 0.0
H479 H 0.72585 0.85802 0.53992 0.0
H480 H 0.69766 0.75092 0.53362 0.0
H481 H 0.73547 0.8098 0.53197 0.0
H482 H 0.48942 0.71911 0.47841 0.0
H483 H 0.52378 0.77768 0.48135 0.0
H484 H 0.47216 0.66691 0.49931 0.0
H485 H 0.50353 0.6457 0.5097 0.0
C486 C 0.80653 0.56582 0.83139 0.0
C487 C 0.76612 0.54974 0.84924 0.0
C488 C 0.82236 0.53918 0.87523 0.0
C489 C 0.85934 0.55018 0.85645 0.0
N490 N 0.87528 0.56379 0.81409 0.0
N491 N 0.73239 0.51115 0.88681 0.0
C492 C 0.84835 0.56105 0.83391 0.0
C493 C 0.77312 0.53326 0.87061 0.0
N494 N 0.80486 0.58525 0.81149 0.0
N495 N 0.83555 0.53697 0.89819 0.0
H496 H 0.69675 0.50657 0.88474 0.0
H497 H 0.73212 0.49403 0.90125 0.0
H498 H 0.8717 0.5435 0.9027 0.0
H499 H 0.8139 0.53409 0.91307 0.0
H500 H 0.83625 0.60271 0.79927 0.0
H501 H 0.77385 0.5867 0.80809 0.0
H502 H 0.86572 0.56676 0.79674 0.0
H503 H 0.90286 0.55773 0.81456 0.0
C504 C 0.29718 0.6944 0.16093 0.0
C505 C 0.24903 0.67468 0.17394 0.0
C506 C 0.29226 0.75003 0.19403 0.0
C507 C 0.34198 0.76811 0.18296 0.0
N508 N 0.39401 0.75693 0.15765 0.0
N509 N 0.20182 0.68339 0.2045 0.0
C510 C 0.34503 0.74005 0.16694 0.0
C511 C 0.24679 0.70248 0.19087 0.0
N512 N 0.29624 0.67061 0.14174 0.0
N513 N 0.28792 0.77878 0.20693 0.0
H514 H 0.16708 0.64918 0.20285 0.0
H515 H 0.20042 0.70025 0.21914 0.0
H516 H 0.32052 0.8135 0.21014 0.0
H517 H 0.25126 0.76935 0.21292 0.0
H518 H 0.32788 0.68499 0.12974 0.0
H519 H 0.26169 0.63777 0.13627 0.0
H520 H 0.40027 0.73686 0.14794 0.0
H521 H 0.42964 0.79036 0.16127 0.0
C522 C 0.6324 0.30634 0.49671 0.0
C523 C 0.58122 0.2618 0.49735 0.0
C524 C 0.53999 0.29307 0.51457 0.0
C525 C 0.59087 0.33787 0.51343 0.0
N526 N 0.68194 0.38839 0.49866 0.0
N527 N 0.48392 0.21338 0.50122 0.0
C528 C 0.63598 0.34486 0.50289 0.0
C529 C 0.53421 0.25543 0.50441 0.0
N530 N 0.67777 0.31162 0.49116 0.0
N531 N 0.49809 0.28604 0.52664 0.0
H532 H 0.47801 0.18475 0.49405 0.0
H533 H 0.44776 0.20775 0.50363 0.0
H534 H 0.50015 0.31254 0.53424 0.0
H535 H 0.46258 0.25368 0.53071 0.0
H536 H 0.71713 0.34273 0.49298 0.0
H537 H 0.67633 0.28411 0.48624 0.0
H538 H 0.71457 0.3958 0.48912 0.0
H539 H 0.6853 0.41712 0.50285 0.0
C540 C 0.45017 0.52722 0.87254 0.0
C541 C 0.47718 0.53837 0.85004 0.0
C542 C 0.41671 0.55544 0.8359 0.0
C543 C 0.38569 0.53955 0.85746 0.0
N544 N 0.36978 0.50214 0.89471 0.0
N545 N 0.47648 0.55501 0.80876 0.0
C546 C 0.40187 0.52331 0.8753 0.0
C547 C 0.45762 0.55032 0.8314 0.0
N548 N 0.47216 0.52234 0.89193 0.0
N549 N 0.40905 0.57766 0.81988 0.0
H550 H 0.50415 0.54993 0.80468 0.0
H551 H 0.46047 0.55892 0.79371 0.0
H552 H 0.38161 0.58352 0.82263 0.0
H553 H 0.43383 0.59446 0.80522 0.0
H554 H 0.45857 0.51885 0.90939 0.0
H555 H 0.50784 0.5268 0.8909 0.0
H556 H 0.37534 0.48511 0.90703 0.0
H557 H 0.33432 0.49765 0.89722 0.0
C558 C 0.94483 0.35961 0.15631 0.0
C559 C 0.95146 0.39557 0.16982 0.0
C560 C 0.86633 0.33648 0.19043 0.0
C561 C 0.86411 0.30133 0.17914 0.0
N562 N 0.90921 0.28076 0.15548 0.0
N563 N 0.92343 0.41517 0.20482 0.0
C564 C 0.906 0.31338 0.16343 0.0
C565 C 0.91357 0.38326 0.18827 0.0
N566 N 0.97321 0.3689 0.13578 0.0
N567 N 0.82266 0.32554 0.20273 0.0
H568 H 0.95797 0.44944 0.20529 0.0
H569 H 0.90001 0.40645 0.22003 0.0
H570 H 0.7872 0.29192 0.20471 0.0
H571 H 0.81977 0.35009 0.20893 0.0
H572 H 0.96706 0.34349 0.12451 0.0
H573 H 0.99732 0.40098 0.12817 0.0
H574 H 0.94209 0.28848 0.14598 0.0
H575 H 0.88189 0.24674 0.16054 0.0
C576 C 0.10482 0.4988 0.07923 0.0
C577 C 0.10491 0.53162 0.09219 0.0
C578 C 0.11803 0.56986 0.05427 0.0
C579 C 0.11302 0.53466 0.04106 0.0
N580 N 0.09901 0.46426 0.0405 0.0
N581 N 0.10981 0.59773 0.09238 0.0
C582 C 0.106 0.49888 0.05347 0.0
C583 C 0.11144 0.56717 0.07978 0.0
N584 N 0.10421 0.46785 0.0917 0.0
N585 N 0.1298 0.60628 0.04239 0.0
H586 H 0.10921 0.59912 0.11111 0.0
H587 H 0.10673 0.62055 0.08442 0.0
H588 H 0.13265 0.60853 0.02373 0.0
H589 H 0.14009 0.6357 0.05092 0.0
H590 H 0.1094 0.44569 0.08388 0.0
H591 H 0.10235 0.46654 0.11041 0.0
H592 H 0.08776 0.43448 0.04792 0.0
H593 H 0.10158 0.46407 0.02181 0.0
C594 C 0.57627 0.98807 0.40159 0.0
C595 C 0.59404 0.02739 0.41564 0.0
C596 C 0.59626 0.06355 0.37915 0.0
C597 C 0.58686 0.02747 0.36481 0.0
N598 N 0.57432 0.95761 0.36235 0.0
N599 N 0.62842 0.10543 0.4175 0.0
C600 C 0.57787 0.98995 0.37601 0.0
C601 C 0.60563 0.06581 0.40438 0.0
N602 N 0.55825 0.949 0.41269 0.0
N603 N 0.59602 0.09559 0.3686 0.0
H604 H 0.6366 0.1086 0.43591 0.0
H605 H 0.64336 0.13617 0.40984 0.0
H606 H 0.58884 0.09464 0.35018 0.0
H607 H 0.59757 0.12025 0.37834 0.0
H608 H 0.53973 0.91786 0.40345 0.0
H609 H 0.55734 0.94664 0.43135 0.0
H610 H 0.5745 0.93267 0.36964 0.0
H611 H 0.57551 0.95778 0.34362 0.0
C612 C 0.62143 0.57717 0.76322 0.0
C613 C 0.62281 0.54368 0.77281 0.0
C614 C 0.65149 0.53562 0.73349 0.0
C615 C 0.63789 0.56112 0.72297 0.0
N616 N 0.65575 0.63212 0.73223 0.0
N617 N 0.64093 0.49122 0.7671 0.0
C618 C 0.6363 0.58988 0.73909 0.0
C619 C 0.63862 0.52306 0.75798 0.0
N620 N 0.60371 0.59565 0.7767 0.0
N621 N 0.68568 0.53128 0.72197 0.0
H622 H 0.63441 0.48277 0.78517 0.0
H623 H 0.64613 0.47142 0.75632 0.0
H624 H 0.70726 0.55071 0.70711 0.0
H625 H 0.70014 0.51582 0.72946 0.0
H626 H 0.59666 0.61669 0.76957 0.0
H627 H 0.59222 0.58691 0.79444 0.0
H628 H 0.65981 0.65605 0.74401 0.0
H629 H 0.67439 0.645 0.71573 0.0
C630 C 0.5429 0.98639 0.56668 0.0
C631 C 0.58693 0.0249 0.55399 0.0
C632 C 0.63753 0.0605 0.59265 0.0
C633 C 0.59456 0.02136 0.60487 0.0
N634 N 0.5107 0.94361 0.60332 0.0
N635 N 0.68181 0.09365 0.55503 0.0
C636 C 0.5486 0.9833 0.59179 0.0
C637 C 0.63605 0.06039 0.56696 0.0
N638 N 0.49483 0.95272 0.55484 0.0
N639 N 0.67936 0.09842 0.60571 0.0
H640 H 0.684 0.0953 0.53646 0.0
H641 H 0.71982 0.11726 0.56346 0.0
H642 H 0.68247 0.09932 0.62443 0.0
H643 H 0.70846 0.13012 0.59825 0.0
H644 H 0.45904 0.92773 0.56354 0.0
H645 H 0.48947 0.95055 0.53626 0.0
H646 H 0.48024 0.91259 0.59441 0.0
H647 H 0.51185 0.9406 0.62186 0.0
C648 C 0.57742 0.49601 0.91578 0.0
C649 C 0.63002 0.53436 0.90775 0.0
C650 C 0.66801 0.54622 0.94817 0.0
C651 C 0.61731 0.50657 0.95544 0.0
N652 N 0.5252 0.43924 0.94608 0.0
N653 N 0.72775 0.58162 0.91507 0.0
C654 C 0.57229 0.48026 0.93928 0.0
C655 C 0.67609 0.5554 0.92356 0.0
N656 N 0.53207 0.47415 0.9014 0.0
N657 N 0.7086 0.57536 0.96479 0.0
H658 H 0.73634 0.58446 0.89687 0.0
H659 H 0.76164 0.59444 0.92602 0.0
H660 H 0.70406 0.56978 0.98322 0.0
H661 H 0.74459 0.60727 0.96043 0.0
H662 H 0.49274 0.4533 0.90794 0.0
H663 H 0.53306 0.47571 0.88296 0.0
H664 H 0.49322 0.41551 0.93417 0.0
H665 H 0.51942 0.42718 0.96341 0.0
C666 C 1.06027 0.49747 0.24737 0.0
C667 C 0.10509 0.53931 0.23737 0.0
C668 C 0.14032 0.57097 0.27874 0.0
C669 C 0.09111 0.53212 0.28819 0.0
N670 N 1.00026 0.46108 0.28105 0.0
N671 N 0.18858 0.61714 0.24447 0.0
C672 C 1.04978 0.49632 0.27234 0.0
C673 C 0.14524 0.57641 0.25337 0.0
N674 N 1.03102 0.4576 0.23383 0.0
N675 N 0.18369 0.6016 0.29394 0.0
H676 H 0.1977 0.62184 0.22636 0.0
H677 H 0.2142 0.64717 0.25502 0.0
H678 H 0.1821 0.59875 0.31257 0.0
H679 H 0.22275 0.62744 0.28802 0.0
H680 H 1.00153 0.42566 0.24103 0.0
H681 H 1.04076 0.45555 0.21629 0.0
H682 H 0.96704 0.43644 0.26987 0.0
H683 H 0.99111 0.45895 0.29922 0.0
loop_
_geom_bond_atom_site_label_1
_geom_bond_atom_site_label_2
_geom_bond_distance
_geom_bond_site_symmetry_2
_ccdc_geom_bond_type
La0 C2 2.928 . S
La0 O20 2.521 . S
La0 O21 2.628 . S
La0 O22 2.554 . S
La0 O23 2.778 . S
La0 O24 2.470 . S
La0 O29 2.482 . S
La0 O31 2.503 1_455 S
La1 C11 2.928 . S
La1 O23 2.468 1_655 S
La1 O25 2.503 1_655 S
La1 O26 2.521 . S
La1 O27 2.628 . S
La1 O28 2.554 . S
La1 O29 2.757 1_655 S
La1 O30 2.470 . S
C2 La0 2.928 . S
C2 C3 1.503 . S
C2 O20 1.261 . S
C2 O21 1.243 . S
C3 C2 1.503 . S
C3 C4 1.394 . S
C3 C8 1.373 . S
C4 C3 1.394 . S
C4 C5 1.380 . S
C4 H32 0.930 . S
C5 C4 1.380 . S
C5 C6 1.376 . S
C5 H33 0.930 . S
C6 C5 1.376 . S
C6 C7 1.370 . S
C7 C6 1.370 . S
C7 C8 1.396 . S
C7 H34 0.929 . S
C8 C3 1.373 . S
C8 C7 1.396 . S
C8 H35 0.929 . S
C9 O22 1.240 . S
C9 O23 1.302 . S
C10 O24 1.258 . S
C10 O25 1.256 . S
C11 La1 2.928 . S
C11 C12 1.503 . S
C11 O26 1.261 . S
C11 O27 1.243 . S
C12 C11 1.503 . S
C12 C13 1.394 . S
C12 C17 1.373 . S
C13 C12 1.394 . S
C13 C14 1.380 . S
C13 H36 0.930 . S
C14 C13 1.380 . S
C14 C15 1.376 . S
C14 H37 0.930 . S
C15 C14 1.376 . S
C15 C16 1.370 . S
C16 C15 1.370 . S
C16 C17 1.396 . S
C16 H38 0.929 . S
C17 C12 1.373 . S
C17 C16 1.396 . S
C17 H39 0.929 . S
C18 O28 1.240 1_455 S
C18 O29 1.289 . S
C19 O30 1.258 . S
C19 O31 1.256 . S
O20 La0 2.521 . S
O20 C2 1.261 . S
O21 La0 2.628 . S
O21 C2 1.243 . S
O22 La0 2.554 . S
O22 C9 1.240 . S
O23 La0 2.778 . S
O23 La1 2.468 1_455 S
O23 C9 1.302 . S
O24 La0 2.470 . S
O24 C10 1.258 . S
O25 La1 2.503 1_455 S
O25 C10 1.256 . S
O26 La1 2.521 . S
O26 C11 1.261 . S
O27 La1 2.628 . S
O27 C11 1.243 . S
O28 La1 2.554 . S
O28 C18 1.240 1_655 S
O29 La0 2.482 . S
O29 La1 2.757 1_455 S
O29 C18 1.289 . S
O30 La1 2.470 . S
O30 C19 1.258 . S
O31 La0 2.503 1_655 S
O31 C19 1.256 . S
H32 C4 0.930 . S
H33 C5 0.930 . S
H34 C7 0.929 . S
H35 C8 0.929 . S
H36 C13 0.930 . S
H37 C14 0.930 . S
H38 C16 0.929 . S
H39 C17 0.929 . S
La40 C42 2.928 . S
La40 O60 2.521 . S
La40 O61 2.628 . S
La40 O62 2.554 . S
La40 O63 2.757 1_565 S
La40 O64 2.470 . S
La40 O69 2.482 . S
La40 O71 2.503 1_565 S
La41 C51 2.928 . S
La41 O63 2.482 . S
La41 O65 2.503 1_545 S
La41 O66 2.521 . S
La41 O67 2.628 . S
La41 O68 2.554 . S
La41 O69 2.757 1_545 S
La41 O70 2.470 . S
C42 La40 2.928 . S
C42 C43 1.503 . S
C42 O60 1.261 . S
C42 O61 1.243 . S
C43 C42 1.503 . S
C43 C44 1.394 . S
C43 C48 1.373 . S
C44 C43 1.394 . S
C44 C45 1.380 . S
C44 H72 0.930 . S
C45 C44 1.380 . S
C45 C46 1.376 . S
C45 H73 0.930 . S
C46 C45 1.376 . S
C46 C47 1.370 . S
C47 C46 1.370 . S
C47 C48 1.396 . S
C47 H74 0.929 . S
C48 C43 1.373 . S
C48 C47 1.396 . S
C48 H75 0.929 . S
C49 O62 1.240 1_545 S
C49 O63 1.289 . S
C50 O64 1.258 . S
C50 O65 1.256 . S
C51 La41 2.928 . S
C51 C52 1.503 . S
C51 O66 1.261 . S
C51 O67 1.243 . S
C52 C51 1.503 . S
C52 C53 1.394 . S
C52 C57 1.373 . S
C53 C52 1.394 . S
C53 C54 1.380 . S
C53 H76 0.930 . S
C54 C53 1.380 . S
C54 C55 1.376 . S
C54 H77 0.930 . S
C55 C54 1.376 . S
C55 C56 1.370 . S
C56 C55 1.370 . S
C56 C57 1.396 . S
C56 H78 0.929 . S
C57 C52 1.373 . S
C57 C56 1.396 . S
C57 H79 0.929 . S
C58 O68 1.240 . S
C58 O69 1.289 1_545 S
C59 O70 1.258 . S
C59 O71 1.256 . S
O60 La40 2.521 . S
O60 C42 1.261 . S
O61 La40 2.628 . S
O61 C42 1.243 . S
O62 La40 2.554 . S
O62 C49 1.240 1_565 S
O63 La40 2.757 1_545 S
O63 La41 2.482 . S
O63 C49 1.289 . S
O64 La40 2.470 . S
O64 C50 1.258 . S
O65 La41 2.503 1_565 S
O65 C50 1.256 . S
O66 La41 2.521 . S
O66 C51 1.261 . S
O67 La41 2.628 . S
O67 C51 1.243 . S
O68 La41 2.554 . S
O68 C58 1.240 . S
O69 La40 2.482 . S
O69 La41 2.757 1_565 S
O69 C58 1.289 1_565 S
O70 La41 2.470 . S
O70 C59 1.258 . S
O71 La40 2.503 1_545 S
O71 C59 1.256 . S
H72 C44 0.930 . S
H73 C45 0.930 . S
H74 C47 0.929 . S
H75 C48 0.929 . S
H76 C53 0.930 . S
H77 C54 0.930 . S
H78 C56 0.929 . S
H79 C57 0.929 . S
La80 C82 2.928 . S
La80 O100 2.521 . S
La80 O101 2.628 . S
La80 O102 2.554 . S
La80 O103 2.757 . S
La80 O104 2.470 . S
La80 O109 2.482 . S
La80 O111 2.503 . S
La81 C91 2.928 . S
La81 O103 2.482 . S
La81 O105 2.503 . S
La81 O106 2.521 . S
La81 O107 2.628 . S
La81 O108 2.554 . S
La81 O109 2.757 . S
La81 O110 2.470 . S
C82 La80 2.928 . S
C82 C83 1.503 . S
C82 O100 1.261 . S
C82 O101 1.243 . S
C83 C82 1.503 . S
C83 C84 1.394 . S
C83 C88 1.373 . S
C84 C83 1.394 . S
C84 C85 1.380 . S
C84 H112 0.930 . S
C85 C84 1.380 . S
C85 C86 1.376 . S
C85 H113 0.930 . S
C86 C85 1.376 . S
C86 C87 1.370 . S
C87 C86 1.370 . S
C87 C88 1.396 . S
C87 H114 0.929 . S
C88 C83 1.373 . S
C88 C87 1.396 . S
C88 H115 0.929 . S
C89 O102 1.240 . S
C89 O103 1.289 . S
C90 O104 1.258 . S
C90 O105 1.256 . S
C91 La81 2.928 . S
C91 C92 1.503 . S
C91 O106 1.261 . S
C91 O107 1.243 . S
C92 C91 1.503 . S
C92 C93 1.394 . S
C92 C97 1.373 . S
C93 C92 1.394 . S
C93 C94 1.380 . S
C93 H116 0.930 . S
C94 C93 1.380 . S
C94 C95 1.376 . S
C94 H117 0.930 . S
C95 C94 1.376 . S
C95 C96 1.370 . S
C96 C95 1.370 . S
C96 C97 1.396 . S
C96 H118 0.929 . S
C97 C92 1.373 . S
C97 C96 1.396 . S
C97 H119 0.929 . S
C98 O108 1.240 . S
C98 O109 1.289 . S
C99 O110 1.258 . S
C99 O111 1.256 . S
O100 La80 2.521 . S
O100 C82 1.261 . S
O101 La80 2.628 . S
O101 C82 1.243 . S
O102 La80 2.554 . S
O102 C89 1.240 . S
O103 La80 2.757 . S
O103 La81 2.482 . S
O103 C89 1.289 . S
O104 La80 2.470 . S
O104 C90 1.258 . S
O105 La81 2.503 . S
O105 C90 1.256 . S
O106 La81 2.521 . S
O106 C91 1.261 . S
O107 La81 2.628 . S
O107 C91 1.243 . S
O108 La81 2.554 . S
O108 C98 1.240 . S
O109 La80 2.482 . S
O109 La81 2.757 . S
O109 C98 1.289 . S
O110 La81 2.470 . S
O110 C99 1.258 . S
O111 La80 2.503 . S
O111 C99 1.256 . S
H112 C84 0.930 . S
H113 C85 0.930 . S
H114 C87 0.929 . S
H115 C88 0.929 . S
H116 C93 0.930 . S
H117 C94 0.930 . S
H118 C96 0.929 . S
H119 C97 0.929 . S
C120 C121 1.264 . S
C120 C125 1.479 . S
C120 C130 1.465 . S
C121 C120 1.264 . S
C121 C123 1.339 . S
C121 H148 0.931 . S
C122 C123 1.395 . S
C122 C124 1.320 . S
C123 C121 1.339 . S
C123 C122 1.395 . S
C123 H149 0.929 . S
C124 C122 1.320 . S
C124 C125 1.405 . S
C124 H150 0.930 . S
C125 C120 1.479 . S
C125 C124 1.405 . S
C125 H151 0.931 . S
U126 O127 2.454 1_545 S
U126 O128 2.458 1_545 S
U126 C129 2.984 1_545 S
U126 C130 2.847 . S
U126 C143 2.882 . S
U126 O144 2.441 . S
U126 O145 2.420 . S
U126 O146 2.455 1_545 S
U126 O147 2.449 . S
O127 U126 2.454 1_565 S
O127 C129 1.353 . S
O128 U126 2.458 1_565 S
O128 C129 1.286 . S
C129 U126 2.984 1_565 S
C129 O127 1.353 . S
C129 O128 1.286 . S
C129 C131 1.363 . S
C130 C120 1.465 . S
C130 U126 2.847 . S
C130 O144 1.249 . S
C130 O145 1.202 . S
C131 C129 1.363 . S
C131 C133 1.408 . S
C131 C136 1.342 . S
C132 C133 1.310 . S
C132 C135 1.461 . S
C132 H152 0.932 . S
C133 C131 1.408 . S
C133 C132 1.310 . S
C133 H153 0.930 . S
C134 C135 1.474 . S
C134 C136 1.285 . S
C134 H154 0.929 . S
C135 C132 1.461 . S
C135 C134 1.474 . S
C136 C131 1.342 . S
C136 C134 1.285 . S
C136 H155 0.930 . S
C137 C140 1.424 . S
C137 C142 1.245 1_545 S
C137 C143 1.428 . S
C138 C141 1.260 1_565 S
C138 C142 1.477 . S
C138 H156 0.932 . S
C139 C140 1.384 . S
C139 C141 1.479 . S
C139 H157 0.929 . S
C140 C137 1.424 . S
C140 C139 1.384 . S
C140 H158 0.928 . S
C141 C138 1.260 1_545 S
C141 C139 1.479 . S
C142 C137 1.245 1_565 S
C142 C138 1.477 . S
C142 H159 0.932 . S
C143 U126 2.882 . S
C143 C137 1.428 . S
C143 O146 1.301 1_545 S
C143 O147 1.282 . S
O144 U126 2.441 . S
O144 C130 1.249 . S
O145 U126 2.420 . S
O145 C130 1.202 . S
O146 U126 2.455 1_565 S
O146 C143 1.301 1_565 S
O147 U126 2.449 . S
O147 C143 1.282 . S
H148 C121 0.931 . S
H149 C123 0.929 . S
H150 C124 0.930 . S
H151 C125 0.931 . S
H152 C132 0.932 . S
H153 C133 0.930 . S
H154 C134 0.929 . S
H155 C136 0.930 . S
H156 C138 0.932 . S
H157 C139 0.929 . S
H158 C140 0.928 . S
H159 C142 0.932 . S
C160 C161 1.264 . S
C160 C165 1.479 . S
C160 C170 1.465 . S
C161 C160 1.264 . S
C161 C163 1.339 . S
C161 H188 0.931 . S
C162 C163 1.395 . S
C162 C164 1.320 . S
C163 C161 1.339 . S
C163 C162 1.395 . S
C163 H189 0.929 . S
C164 C162 1.320 . S
C164 C165 1.405 . S
C164 H190 0.930 . S
C165 C160 1.479 . S
C165 C164 1.405 . S
C165 H191 0.931 . S
U166 O167 2.454 . S
U166 O168 2.458 . S
U166 C169 2.984 . S
U166 C170 2.847 . S
U166 C183 2.882 . S
U166 O184 2.441 . S
U166 O185 2.420 . S
U166 O186 2.455 . S
U166 O187 2.449 . S
O167 U166 2.454 . S
O167 C169 1.353 . S
O168 U166 2.458 . S
O168 C169 1.286 . S
C169 U166 2.984 . S
C169 O167 1.353 . S
C169 O168 1.286 . S
C169 C171 1.363 . S
C170 C160 1.465 . S
C170 U166 2.847 . S
C170 O184 1.249 . S
C170 O185 1.202 . S
C171 C169 1.363 . S
C171 C173 1.408 . S
C171 C176 1.342 . S
C172 C173 1.310 . S
C172 C175 1.461 . S
C172 H192 0.932 . S
C173 C171 1.408 . S
C173 C172 1.310 . S
C173 H193 0.930 . S
C174 C175 1.474 . S
C174 C176 1.285 . S
C174 H194 0.929 . S
C175 C172 1.461 . S
C175 C174 1.474 . S
C176 C171 1.342 . S
C176 C174 1.285 . S
C176 H195 0.930 . S
C177 C180 1.424 . S
C177 C182 1.245 . S
C177 C183 1.428 . S
C178 C181 1.260 . S
C178 C182 1.477 . S
C178 H196 0.932 . S
C179 C180 1.384 . S
C179 C181 1.479 . S
C179 H197 0.929 . S
C180 C177 1.424 . S
C180 C179 1.384 . S
C180 H198 0.928 . S
C181 C178 1.260 . S
C181 C179 1.479 . S
C182 C177 1.245 . S
C182 C178 1.477 . S
C182 H199 0.932 . S
C183 U166 2.882 . S
C183 C177 1.428 . S
C183 O186 1.301 . S
C183 O187 1.282 . S
O184 U166 2.441 . S
O184 C170 1.249 . S
O185 U166 2.420 . S
O185 C170 1.202 . S
O186 U166 2.455 . S
O186 C183 1.301 . S
O187 U166 2.449 . S
O187 C183 1.282 . S
H188 C161 0.931 . S
H189 C163 0.929 . S
H190 C164 0.930 . S
H191 C165 0.931 . S
H192 C172 0.932 . S
H193 C173 0.930 . S
H194 C174 0.929 . S
H195 C176 0.930 . S
H196 C178 0.932 . S
H197 C179 0.929 . S
H198 C180 0.928 . S
H199 C182 0.932 . S
C200 C201 1.264 . S
C200 C205 1.479 . S
C200 C210 1.465 . S
C201 C200 1.264 . S
C201 C203 1.339 . S
C201 H228 0.931 . S
C202 C203 1.395 . S
C202 C204 1.320 . S
C203 C201 1.339 . S
C203 C202 1.395 . S
C203 H229 0.929 . S
C204 C202 1.320 . S
C204 C205 1.405 . S
C204 H230 0.930 . S
C205 C200 1.479 . S
C205 C204 1.405 . S
C205 H231 0.931 . S
U206 O207 2.454 . S
U206 O208 2.458 . S
U206 C209 2.984 . S
U206 C210 2.847 1_455 S
U206 C223 2.882 . S
U206 O224 2.441 1_455 S
U206 O225 2.420 1_455 S
U206 O226 2.455 . S
U206 O227 2.449 1_455 S
O207 U206 2.454 . S
O207 C209 1.353 . S
O208 U206 2.458 . S
O208 C209 1.286 . S
C209 U206 2.984 . S
C209 O207 1.353 . S
C209 O208 1.286 . S
C209 C211 1.363 . S
C210 C200 1.465 . S
C210 U206 2.847 1_655 S
C210 O224 1.249 . S
C210 O225 1.202 . S
C211 C209 1.363 . S
C211 C213 1.408 . S
C211 C216 1.342 . S
C212 C213 1.310 . S
C212 C215 1.461 . S
C212 H232 0.932 . S
C213 C211 1.408 . S
C213 C212 1.310 . S
C213 H233 0.930 . S
C214 C215 1.474 . S
C214 C216 1.285 . S
C214 H234 0.929 . S
C215 C212 1.461 . S
C215 C214 1.474 . S
C216 C211 1.342 . S
C216 C214 1.285 . S
C216 H235 0.930 . S
C217 C220 1.424 1_455 S
C217 C222 1.245 . S
C217 C223 1.428 . S
C218 C221 1.260 1_556 S
C218 C222 1.477 . S
C218 H236 0.932 1_556 S
C219 C220 1.384 . S
C219 C221 1.479 1_656 S
C219 H237 0.929 1_556 S
C220 C217 1.424 1_655 S
C220 C219 1.384 . S
C220 H238 0.928 . S
C221 C218 1.260 1_554 S
C221 C219 1.479 1_454 S
C222 C217 1.245 . S
C222 C218 1.477 . S
C222 H239 0.932 . S
C223 U206 2.882 . S
C223 C217 1.428 . S
C223 O226 1.301 . S
C223 O227 1.282 1_455 S
O224 U206 2.441 1_655 S
O224 C210 1.249 . S
O225 U206 2.420 1_655 S
O225 C210 1.202 . S
O226 U206 2.455 . S
O226 C223 1.301 . S
O227 U206 2.449 1_655 S
O227 C223 1.282 1_655 S
H228 C201 0.931 . S
H229 C203 0.929 . S
H230 C204 0.930 . S
H231 C205 0.931 . S
H232 C212 0.932 . S
H233 C213 0.930 . S
H234 C214 0.929 . S
H235 C216 0.930 . S
H236 C218 0.932 1_554 S
H237 C219 0.929 1_554 S
H238 C220 0.928 . S
H239 C222 0.932 . S
C240 C241 1.264 . S
C240 C245 1.479 . S
C240 C250 1.465 . S
C241 C240 1.264 . S
C241 C243 1.339 . S
C241 H268 0.931 . S
C242 C243 1.395 . S
C242 C244 1.320 . S
C243 C241 1.339 . S
C243 C242 1.395 . S
C243 H269 0.929 . S
C244 C242 1.320 . S
C244 C245 1.405 . S
C244 H270 0.930 . S
C245 C240 1.479 . S
C245 C244 1.405 . S
C245 H271 0.931 . S
U246 O247 2.454 1_655 S
U246 O248 2.458 1_655 S
U246 C249 2.984 1_655 S
U246 C250 2.847 . S
U246 C263 2.882 . S
U246 O264 2.441 . S
U246 O265 2.420 . S
U246 O266 2.455 1_655 S
U246 O267 2.449 . S
O247 U246 2.454 1_455 S
O247 C249 1.353 . S
O248 U246 2.458 1_455 S
O248 C249 1.286 . S
C249 U246 2.984 1_455 S
C249 O247 1.353 . S
C249 O248 1.286 . S
C249 C251 1.363 . S
C250 C240 1.465 . S
C250 U246 2.847 . S
C250 O264 1.249 . S
C250 O265 1.202 . S
C251 C249 1.363 . S
C251 C253 1.408 . S
C251 C256 1.342 . S
C252 C253 1.310 . S
C252 C255 1.461 . S
C252 H272 0.932 . S
C253 C251 1.408 . S
C253 C252 1.310 . S
C253 H273 0.930 . S
C254 C255 1.474 . S
C254 C256 1.285 . S
C254 H274 0.929 . S
C255 C252 1.461 . S
C255 C254 1.474 . S
C256 C251 1.342 . S
C256 C254 1.285 . S
C256 H275 0.930 . S
C257 C260 1.424 . S
C257 C262 1.245 1_655 S
C257 C263 1.428 . S
C258 C261 1.260 1_455 S
C258 C262 1.477 . S
C258 H276 0.932 . S
C259 C260 1.384 . S
C259 C261 1.479 . S
C259 H277 0.929 . S
C260 C257 1.424 . S
C260 C259 1.384 . S
C260 H278 0.928 . S
C261 C258 1.260 1_655 S
C261 C259 1.479 . S
C262 C257 1.245 1_455 S
C262 C258 1.477 . S
C262 H279 0.932 . S
C263 U246 2.882 . S
C263 C257 1.428 . S
C263 O266 1.301 1_655 S
C263 O267 1.282 . S
O264 U246 2.441 . S
O264 C250 1.249 . S
O265 U246 2.420 . S
O265 C250 1.202 . S
O266 U246 2.455 1_455 S
O266 C263 1.301 1_455 S
O267 U246 2.449 . S
O267 C263 1.282 . S
H268 C241 0.931 . S
H269 C243 0.929 . S
H270 C244 0.930 . S
H271 C245 0.931 . S
H272 C252 0.932 . S
H273 C253 0.930 . S
H274 C254 0.929 . S
H275 C256 0.930 . S
H276 C258 0.932 . S
H277 C259 0.929 . S
H278 C260 0.928 . S
H279 C262 0.932 . S
C280 C281 1.264 . S
C280 C285 1.479 . S
C280 C290 1.465 . S
C281 C280 1.264 . S
C281 C283 1.339 . S
C281 H308 0.931 . S
C282 C283 1.395 . S
C282 C284 1.320 . S
C283 C281 1.339 . S
C283 C282 1.395 . S
C283 H309 0.929 . S
C284 C282 1.320 . S
C284 C285 1.405 . S
C284 H310 0.930 . S
C285 C280 1.479 . S
C285 C284 1.405 . S
C285 H311 0.931 . S
U286 O287 2.454 1_565 S
U286 O288 2.458 1_565 S
U286 C289 2.984 1_565 S
U286 C290 2.847 . S
U286 C303 2.882 . S
U286 O304 2.441 . S
U286 O305 2.420 . S
U286 O306 2.455 1_565 S
U286 O307 2.449 . S
O287 U286 2.454 1_545 S
O287 C289 1.353 . S
O288 U286 2.458 1_545 S
O288 C289 1.286 . S
C289 U286 2.984 1_545 S
C289 O287 1.353 . S
C289 O288 1.286 . S
C289 C291 1.363 . S
C290 C280 1.465 . S
C290 U286 2.847 . S
C290 O304 1.249 . S
C290 O305 1.202 . S
C291 C289 1.363 . S
C291 C293 1.408 . S
C291 C296 1.342 . S
C292 C293 1.310 . S
C292 C295 1.461 . S
C292 H312 0.932 . S
C293 C291 1.408 . S
C293 C292 1.310 . S
C293 H313 0.930 . S
C294 C295 1.474 . S
C294 C296 1.285 . S
C294 H314 0.929 . S
C295 C292 1.461 . S
C295 C294 1.474 . S
C296 C291 1.342 . S
C296 C294 1.285 . S
C296 H315 0.930 . S
C297 C300 1.424 . S
C297 C302 1.245 1_565 S
C297 C303 1.428 . S
C298 C301 1.260 1_545 S
C298 C302 1.477 . S
C298 H316 0.932 . S
C299 C300 1.384 . S
C299 C301 1.479 . S
C299 H317 0.929 . S
C300 C297 1.424 . S
C300 C299 1.384 . S
C300 H318 0.928 . S
C301 C298 1.260 1_565 S
C301 C299 1.479 . S
C302 C297 1.245 1_545 S
C302 C298 1.477 . S
C302 H319 0.932 . S
C303 U286 2.882 . S
C303 C297 1.428 . S
C303 O306 1.301 1_565 S
C303 O307 1.282 . S
O304 U286 2.441 . S
O304 C290 1.249 . S
O305 U286 2.420 . S
O305 C290 1.202 . S
O306 U286 2.455 1_545 S
O306 C303 1.301 1_545 S
O307 U286 2.449 . S
O307 C303 1.282 . S
H308 C281 0.931 . S
H309 C283 0.929 . S
H310 C284 0.930 . S
H311 C285 0.931 . S
H312 C292 0.932 . S
H313 C293 0.930 . S
H314 C294 0.929 . S
H315 C296 0.930 . S
H316 C298 0.932 . S
H317 C299 0.929 . S
H318 C300 0.928 . S
H319 C302 0.932 . S
C320 C321 1.264 . S
C320 C325 1.479 . S
C320 C330 1.465 . S
C321 C320 1.264 . S
C321 C323 1.339 . S
C321 H348 0.931 . S
C322 C323 1.395 . S
C322 C324 1.320 . S
C323 C321 1.339 . S
C323 C322 1.395 . S
C323 H349 0.929 . S
C324 C322 1.320 . S
C324 C325 1.405 . S
C324 H350 0.930 . S
C325 C320 1.479 . S
C325 C324 1.405 . S
C325 H351 0.931 . S
U326 O327 2.454 . S
U326 O328 2.458 . S
U326 C329 2.984 . S
U326 C330 2.847 . S
U326 C343 2.882 . S
U326 O344 2.441 . S
U326 O345 2.420 . S
U326 O346 2.455 . S
U326 O347 2.449 . S
O327 U326 2.454 . S
O327 C329 1.353 . S
O328 U326 2.458 . S
O328 C329 1.286 . S
C329 U326 2.984 . S
C329 O327 1.353 . S
C329 O328 1.286 . S
C329 C331 1.363 . S
C330 C320 1.465 . S
C330 U326 2.847 . S
C330 O344 1.249 . S
C330 O345 1.202 . S
C331 C329 1.363 . S
C331 C333 1.408 . S
C331 C336 1.342 . S
C332 C333 1.310 . S
C332 C335 1.461 . S
C332 H352 0.932 . S
C333 C331 1.408 . S
C333 C332 1.310 . S
C333 H353 0.930 . S
C334 C335 1.474 . S
C334 C336 1.285 . S
C334 H354 0.929 . S
C335 C332 1.461 . S
C335 C334 1.474 . S
C336 C331 1.342 . S
C336 C334 1.285 . S
C336 H355 0.930 . S
C337 C340 1.423 . S
C337 C342 1.245 1_554 S
C337 C343 1.428 . S
C338 C341 1.260 . S
C338 C342 1.477 . S
C338 H356 0.932 . S
C339 C340 1.386 1_556 S
C339 C341 1.479 . S
C339 H357 0.929 . S
C340 C337 1.423 . S
C340 C339 1.386 1_554 S
C340 H358 0.927 . S
C341 C338 1.260 . S
C341 C339 1.479 . S
C342 C337 1.245 1_556 S
C342 C338 1.477 . S
C342 H359 0.932 1_556 S
C343 U326 2.882 . S
C343 C337 1.428 . S
C343 O346 1.301 . S
C343 O347 1.282 . S
O344 U326 2.441 . S
O344 C330 1.249 . S
O345 U326 2.420 . S
O345 C330 1.202 . S
O346 U326 2.455 . S
O346 C343 1.301 . S
O347 U326 2.449 . S
O347 C343 1.282 . S
H348 C321 0.931 . S
H349 C323 0.929 . S
H350 C324 0.930 . S
H351 C325 0.931 . S
H352 C332 0.932 . S
H353 C333 0.930 . S
H354 C334 0.929 . S
H355 C336 0.930 . S
H356 C338 0.932 . S
H357 C339 0.929 . S
H358 C340 0.927 . S
H359 C342 0.932 1_554 S
C360 C361 1.363 . S
C360 C366 1.379 . S
C360 N368 1.356 . S
C361 C360 1.363 . S
C361 C367 1.363 . S
C362 C363 1.363 . S
C362 C367 1.379 . S
C362 N369 1.356 . S
C363 C362 1.363 . S
C363 C366 1.363 . S
N364 C366 1.356 . S
N364 H376 0.984 . S
N364 H377 0.985 . S
N365 C367 1.356 . S
N365 H370 0.984 . S
N365 H371 0.985 . S
C366 C360 1.379 . S
C366 C363 1.363 . S
C366 N364 1.356 . S
C367 C361 1.363 . S
C367 C362 1.379 . S
C367 N365 1.356 . S
N368 C360 1.356 . S
N368 H374 0.984 . S
N368 H375 0.984 . S
N369 C362 1.356 . S
N369 H372 0.984 . S
N369 H373 0.985 . S
H370 N365 0.984 . S
H371 N365 0.985 . S
H372 N369 0.984 . S
H373 N369 0.985 . S
H374 N368 0.984 . S
H375 N368 0.984 . S
H376 N364 0.984 . S
H377 N364 0.985 . S
C378 C379 1.363 . S
C378 C384 1.379 . S
C378 N386 1.356 . S
C379 C378 1.363 . S
C379 C385 1.363 . S
C380 C381 1.363 . S
C380 C385 1.379 . S
C380 N387 1.356 . S
C381 C380 1.363 . S
C381 C384 1.363 . S
N382 C384 1.356 . S
N382 H394 0.984 . S
N382 H395 0.985 . S
N383 C385 1.356 . S
N383 H388 0.984 . S
N383 H389 0.985 . S
C384 C378 1.379 . S
C384 C381 1.363 . S
C384 N382 1.356 . S
C385 C379 1.363 . S
C385 C380 1.379 . S
C385 N383 1.356 . S
N386 C378 1.356 . S
N386 H392 0.984 . S
N386 H393 0.984 . S
N387 C380 1.356 . S
N387 H390 0.984 . S
N387 H391 0.985 . S
H388 N383 0.984 . S
H389 N383 0.985 . S
H390 N387 0.984 . S
H391 N387 0.985 . S
H392 N386 0.984 . S
H393 N386 0.984 . S
H394 N382 0.984 . S
H395 N382 0.985 . S
C396 C397 1.363 . S
C396 C402 1.379 . S
C396 N404 1.356 . S
C397 C396 1.363 . S
C397 C403 1.363 . S
C398 C399 1.363 . S
C398 C403 1.379 . S
C398 N405 1.356 . S
C399 C398 1.363 . S
C399 C402 1.363 . S
N400 C402 1.356 . S
N400 H412 0.984 . S
N400 H413 0.985 . S
N401 C403 1.356 . S
N401 H406 0.984 . S
N401 H407 0.985 . S
C402 C396 1.379 . S
C402 C399 1.363 . S
C402 N400 1.356 . S
C403 C397 1.363 . S
C403 C398 1.379 . S
C403 N401 1.356 . S
N404 C396 1.356 . S
N404 H410 0.984 . S
N404 H411 0.984 . S
N405 C398 1.356 . S
N405 H408 0.984 . S
N405 H409 0.985 . S
H406 N401 0.984 . S
H407 N401 0.985 . S
H408 N405 0.984 . S
H409 N405 0.985 . S
H410 N404 0.984 . S
H411 N404 0.984 . S
H412 N400 0.984 . S
H413 N400 0.985 . S
C414 C415 1.363 . S
C414 C420 1.379 . S
C414 N422 1.356 . S
C415 C414 1.363 . S
C415 C421 1.363 . S
C416 C417 1.363 . S
C416 C421 1.379 . S
C416 N423 1.356 . S
C417 C416 1.363 . S
C417 C420 1.363 . S
N418 C420 1.356 . S
N418 H430 0.984 . S
N418 H431 0.985 . S
N419 C421 1.356 . S
N419 H424 0.984 . S
N419 H425 0.985 . S
C420 C414 1.379 . S
C420 C417 1.363 . S
C420 N418 1.356 . S
C421 C415 1.363 . S
C421 C416 1.379 . S
C421 N419 1.356 . S
N422 C414 1.356 . S
N422 H428 0.984 . S
N422 H429 0.984 . S
N423 C416 1.356 . S
N423 H426 0.984 . S
N423 H427 0.985 . S
H424 N419 0.984 . S
H425 N419 0.985 . S
H426 N423 0.984 . S
H427 N423 0.985 . S
H428 N422 0.984 . S
H429 N422 0.984 . S
H430 N418 0.984 . S
H431 N418 0.985 . S
C432 C433 1.363 . S
C432 C438 1.379 . S
C432 N440 1.356 . S
C433 C432 1.363 . S
C433 C439 1.363 . S
C434 C435 1.363 . S
C434 C439 1.379 . S
C434 N441 1.356 . S
C435 C434 1.363 . S
C435 C438 1.363 . S
N436 C438 1.356 . S
N436 H448 0.984 . S
N436 H449 0.985 . S
N437 C439 1.356 . S
N437 H442 0.984 . S
N437 H443 0.985 . S
C438 C432 1.379 . S
C438 C435 1.363 . S
C438 N436 1.356 . S
C439 C433 1.363 . S
C439 C434 1.379 . S
C439 N437 1.356 . S
N440 C432 1.356 . S
N440 H446 0.984 . S
N440 H447 0.984 . S
N441 C434 1.356 . S
N441 H444 0.984 . S
N441 H445 0.985 . S
H442 N437 0.984 . S
H443 N437 0.985 . S
H444 N441 0.984 . S
H445 N441 0.985 . S
H446 N440 0.984 . S
H447 N440 0.984 . S
H448 N436 0.984 . S
H449 N436 0.985 . S
C450 C451 1.363 . S
C450 C456 1.379 . S
C450 N458 1.356 . S
C451 C450 1.363 . S
C451 C457 1.363 . S
C452 C453 1.363 . S
C452 C457 1.379 . S
C452 N459 1.356 . S
C453 C452 1.363 . S
C453 C456 1.363 . S
N454 C456 1.356 . S
N454 H466 0.984 . S
N454 H467 0.985 . S
N455 C457 1.356 . S
N455 H460 0.984 . S
N455 H461 0.985 . S
C456 C450 1.379 . S
C456 C453 1.363 . S
C456 N454 1.356 . S
C457 C451 1.363 . S
C457 C452 1.379 . S
C457 N455 1.356 . S
N458 C450 1.356 . S
N458 H464 0.984 . S
N458 H465 0.984 . S
N459 C452 1.356 . S
N459 H462 0.984 . S
N459 H463 0.985 . S
H460 N455 0.984 . S
H461 N455 0.985 . S
H462 N459 0.984 . S
H463 N459 0.985 . S
H464 N458 0.984 . S
H465 N458 0.984 . S
H466 N454 0.984 . S
H467 N454 0.985 . S
C468 C469 1.363 . S
C468 C474 1.379 . S
C468 N476 1.356 . S
C469 C468 1.363 . S
C469 C475 1.363 . S
C470 C471 1.363 . S
C470 C475 1.379 . S
C470 N477 1.356 . S
C471 C470 1.363 . S
C471 C474 1.363 . S
N472 C474 1.356 . S
N472 H484 0.984 . S
N472 H485 0.985 . S
N473 C475 1.356 . S
N473 H478 0.984 . S
N473 H479 0.985 . S
C474 C468 1.379 . S
C474 C471 1.363 . S
C474 N472 1.356 . S
C475 C469 1.363 . S
C475 C470 1.379 . S
C475 N473 1.356 . S
N476 C468 1.356 . S
N476 H482 0.984 . S
N476 H483 0.984 . S
N477 C470 1.356 . S
N477 H480 0.984 . S
N477 H481 0.985 . S
H478 N473 0.984 . S
H479 N473 0.985 . S
H480 N477 0.984 . S
H481 N477 0.985 . S
H482 N476 0.984 . S
H483 N476 0.984 . S
H484 N472 0.984 . S
H485 N472 0.985 . S
C486 C487 1.363 . S
C486 C492 1.379 . S
C486 N494 1.356 . S
C487 C486 1.363 . S
C487 C493 1.363 . S
C488 C489 1.363 . S
C488 C493 1.379 . S
C488 N495 1.356 . S
C489 C488 1.363 . S
C489 C492 1.363 . S
N490 C492 1.356 . S
N490 H502 0.984 . S
N490 H503 0.985 . S
N491 C493 1.356 . S
N491 H496 0.984 . S
N491 H497 0.985 . S
C492 C486 1.379 . S
C492 C489 1.363 . S
C492 N490 1.356 . S
C493 C487 1.363 . S
C493 C488 1.379 . S
C493 N491 1.356 . S
N494 C486 1.356 . S
N494 H500 0.984 . S
N494 H501 0.984 . S
N495 C488 1.356 . S
N495 H498 0.984 . S
N495 H499 0.985 . S
H496 N491 0.984 . S
H497 N491 0.985 . S
H498 N495 0.984 . S
H499 N495 0.985 . S
H500 N494 0.984 . S
H501 N494 0.984 . S
H502 N490 0.984 . S
H503 N490 0.985 . S
C504 C505 1.363 . S
C504 C510 1.379 . S
C504 N512 1.356 . S
C505 C504 1.363 . S
C505 C511 1.363 . S
C506 C507 1.363 . S
C506 C511 1.379 . S
C506 N513 1.356 . S
C507 C506 1.363 . S
C507 C510 1.363 . S
N508 C510 1.356 . S
N508 H520 0.984 . S
N508 H521 0.985 . S
N509 C511 1.356 . S
N509 H514 0.984 . S
N509 H515 0.985 . S
C510 C504 1.379 . S
C510 C507 1.363 . S
C510 N508 1.356 . S
C511 C505 1.363 . S
C511 C506 1.379 . S
C511 N509 1.356 . S
N512 C504 1.356 . S
N512 H518 0.984 . S
N512 H519 0.984 . S
N513 C506 1.356 . S
N513 H516 0.984 . S
N513 H517 0.985 . S
H514 N509 0.984 . S
H515 N509 0.985 . S
H516 N513 0.984 . S
H517 N513 0.985 . S
H518 N512 0.984 . S
H519 N512 0.984 . S
H520 N508 0.984 . S
H521 N508 0.985 . S
C522 C523 1.363 . S
C522 C528 1.379 . S
C522 N530 1.356 . S
C523 C522 1.363 . S
C523 C529 1.363 . S
C524 C525 1.363 . S
C524 C529 1.379 . S
C524 N531 1.356 . S
C525 C524 1.363 . S
C525 C528 1.363 . S
N526 C528 1.356 . S
N526 H538 0.984 . S
N526 H539 0.985 . S
N527 C529 1.356 . S
N527 H532 0.984 . S
N527 H533 0.985 . S
C528 C522 1.379 . S
C528 C525 1.363 . S
C528 N526 1.356 . S
C529 C523 1.363 . S
C529 C524 1.379 . S
C529 N527 1.356 . S
N530 C522 1.356 . S
N530 H536 0.984 . S
N530 H537 0.984 . S
N531 C524 1.356 . S
N531 H534 0.984 . S
N531 H535 0.985 . S
H532 N527 0.984 . S
H533 N527 0.985 . S
H534 N531 0.984 . S
H535 N531 0.985 . S
H536 N530 0.984 . S
H537 N530 0.984 . S
H538 N526 0.984 . S
H539 N526 0.985 . S
C540 C541 1.363 . S
C540 C546 1.379 . S
C540 N548 1.356 . S
C541 C540 1.363 . S
C541 C547 1.363 . S
C542 C543 1.363 . S
C542 C547 1.379 . S
C542 N549 1.356 . S
C543 C542 1.363 . S
C543 C546 1.363 . S
N544 C546 1.356 . S
N544 H556 0.984 . S
N544 H557 0.985 . S
N545 C547 1.356 . S
N545 H550 0.984 . S
N545 H551 0.985 . S
C546 C540 1.379 . S
C546 C543 1.363 . S
C546 N544 1.356 . S
C547 C541 1.363 . S
C547 C542 1.379 . S
C547 N545 1.356 . S
N548 C540 1.356 . S
N548 H554 0.984 . S
N548 H555 0.984 . S
N549 C542 1.356 . S
N549 H552 0.984 . S
N549 H553 0.985 . S
H550 N545 0.984 . S
H551 N545 0.985 . S
H552 N549 0.984 . S
H553 N549 0.985 . S
H554 N548 0.984 . S
H555 N548 0.984 . S
H556 N544 0.984 . S
H557 N544 0.985 . S
C558 C559 1.363 . S
C558 C564 1.379 . S
C558 N566 1.356 . S
C559 C558 1.363 . S
C559 C565 1.363 . S
C560 C561 1.363 . S
C560 C565 1.379 . S
C560 N567 1.356 . S
C561 C560 1.363 . S
C561 C564 1.363 . S
N562 C564 1.356 . S
N562 H574 0.984 . S
N562 H575 0.985 . S
N563 C565 1.356 . S
N563 H568 0.984 . S
N563 H569 0.985 . S
C564 C558 1.379 . S
C564 C561 1.363 . S
C564 N562 1.356 . S
C565 C559 1.363 . S
C565 C560 1.379 . S
C565 N563 1.356 . S
N566 C558 1.356 . S
N566 H572 0.984 . S
N566 H573 0.984 . S
N567 C560 1.356 . S
N567 H570 0.984 . S
N567 H571 0.985 . S
H568 N563 0.984 . S
H569 N563 0.985 . S
H570 N567 0.984 . S
H571 N567 0.985 . S
H572 N566 0.984 . S
H573 N566 0.984 . S
H574 N562 0.984 . S
H575 N562 0.985 . S
C576 C577 1.363 . S
C576 C582 1.379 . S
C576 N584 1.356 . S
C577 C576 1.363 . S
C577 C583 1.363 . S
C578 C579 1.363 . S
C578 C583 1.379 . S
C578 N585 1.356 . S
C579 C578 1.363 . S
C579 C582 1.363 . S
N580 C582 1.356 . S
N580 H592 0.984 . S
N580 H593 0.985 . S
N581 C583 1.356 . S
N581 H586 0.984 . S
N581 H587 0.985 . S
C582 C576 1.379 . S
C582 C579 1.363 . S
C582 N580 1.356 . S
C583 C577 1.363 . S
C583 C578 1.379 . S
C583 N581 1.356 . S
N584 C576 1.356 . S
N584 H590 0.984 . S
N584 H591 0.984 . S
N585 C578 1.356 . S
N585 H588 0.984 . S
N585 H589 0.985 . S
H586 N581 0.984 . S
H587 N581 0.985 . S
H588 N585 0.984 . S
H589 N585 0.985 . S
H590 N584 0.984 . S
H591 N584 0.984 . S
H592 N580 0.984 . S
H593 N580 0.985 . S
C594 C595 1.363 1_565 S
C594 C600 1.379 . S
C594 N602 1.356 . S
C595 C594 1.363 1_545 S
C595 C601 1.363 . S
C596 C597 1.363 . S
C596 C601 1.379 . S
C596 N603 1.356 . S
C597 C596 1.363 . S
C597 C600 1.363 1_545 S
N598 C600 1.356 . S
N598 H610 0.984 . S
N598 H611 0.985 . S
N599 C601 1.356 . S
N599 H604 0.984 . S
N599 H605 0.985 . S
C600 C594 1.379 . S
C600 C597 1.363 1_565 S
C600 N598 1.356 . S
C601 C595 1.363 . S
C601 C596 1.379 . S
C601 N599 1.356 . S
N602 C594 1.356 . S
N602 H608 0.984 . S
N602 H609 0.984 . S
N603 C596 1.356 . S
N603 H606 0.984 . S
N603 H607 0.985 . S
H604 N599 0.984 . S
H605 N599 0.985 . S
H606 N603 0.984 . S
H607 N603 0.985 . S
H608 N602 0.984 . S
H609 N602 0.984 . S
H610 N598 0.984 . S
H611 N598 0.985 . S
C612 C613 1.363 . S
C612 C618 1.379 . S
C612 N620 1.356 . S
C613 C612 1.363 . S
C613 C619 1.363 . S
C614 C615 1.363 . S
C614 C619 1.379 . S
C614 N621 1.356 . S
C615 C614 1.363 . S
C615 C618 1.363 . S
N616 C618 1.356 . S
N616 H628 0.984 . S
N616 H629 0.985 . S
N617 C619 1.356 . S
N617 H622 0.984 . S
N617 H623 0.985 . S
C618 C612 1.379 . S
C618 C615 1.363 . S
C618 N616 1.356 . S
C619 C613 1.363 . S
C619 C614 1.379 . S
C619 N617 1.356 . S
N620 C612 1.356 . S
N620 H626 0.984 . S
N620 H627 0.984 . S
N621 C614 1.356 . S
N621 H624 0.984 . S
N621 H625 0.985 . S
H622 N617 0.984 . S
H623 N617 0.985 . S
H624 N621 0.984 . S
H625 N621 0.985 . S
H626 N620 0.984 . S
H627 N620 0.984 . S
H628 N616 0.984 . S
H629 N616 0.985 . S
C630 C631 1.363 1_565 S
C630 C636 1.379 . S
C630 N638 1.356 . S
C631 C630 1.363 1_545 S
C631 C637 1.363 . S
C632 C633 1.363 1_545 S
C632 C637 1.379 . S
C632 N639 1.356 . S
C633 C632 1.363 1_565 S
C633 C636 1.363 . S
N634 C636 1.356 . S
N634 H646 0.984 . S
N634 H647 0.985 . S
N635 C637 1.356 . S
N635 H640 0.984 . S
N635 H641 0.985 . S
C636 C630 1.379 . S
C636 C633 1.363 . S
C636 N634 1.356 . S
C637 C631 1.363 . S
C637 C632 1.379 . S
C637 N635 1.356 . S
N638 C630 1.356 . S
N638 H644 0.984 . S
N638 H645 0.984 . S
N639 C632 1.356 . S
N639 H642 0.984 . S
N639 H643 0.985 . S
H640 N635 0.984 . S
H641 N635 0.985 . S
H642 N639 0.984 . S
H643 N639 0.985 . S
H644 N638 0.984 . S
H645 N638 0.984 . S
H646 N634 0.984 . S
H647 N634 0.985 . S
C648 C649 1.363 . S
C648 C654 1.379 . S
C648 N656 1.356 . S
C649 C648 1.363 . S
C649 C655 1.363 . S
C650 C651 1.363 . S
C650 C655 1.379 . S
C650 N657 1.356 . S
C651 C650 1.363 . S
C651 C654 1.363 . S
N652 C654 1.356 . S
N652 H664 0.984 . S
N652 H665 0.985 . S
N653 C655 1.356 . S
N653 H658 0.984 . S
N653 H659 0.985 . S
C654 C648 1.379 . S
C654 C651 1.363 . S
C654 N652 1.356 . S
C655 C649 1.363 . S
C655 C650 1.379 . S
C655 N653 1.356 . S
N656 C648 1.356 . S
N656 H662 0.984 . S
N656 H663 0.984 . S
N657 C650 1.356 . S
N657 H660 0.984 . S
N657 H661 0.985 . S
H658 N653 0.984 . S
H659 N653 0.985 . S
H660 N657 0.984 . S
H661 N657 0.985 . S
H662 N656 0.984 . S
H663 N656 0.984 . S
H664 N652 0.984 . S
H665 N652 0.985 . S
C666 C667 1.363 1_655 S
C666 C672 1.379 . S
C666 N674 1.356 . S
C667 C666 1.363 1_455 S
C667 C673 1.363 . S
C668 C669 1.363 1_455 S
C668 C673 1.379 . S
C668 N675 1.356 . S
C669 C668 1.363 1_655 S
C669 C672 1.363 . S
N670 C672 1.356 . S
N670 H682 0.984 . S
N670 H683 0.985 . S
N671 C673 1.356 . S
N671 H676 0.984 . S
N671 H677 0.985 . S
C672 C666 1.379 . S
C672 C669 1.363 . S
C672 N670 1.356 . S
C673 C667 1.363 . S
C673 C668 1.379 . S
C673 N671 1.356 . S
N674 C666 1.356 . S
N674 H680 0.984 . S
N674 H681 0.984 . S
N675 C668 1.356 . S
N675 H678 0.984 . S
N675 H679 0.985 . S
H676 N671 0.984 . S
H677 N671 0.985 . S
H678 N675 0.984 . S
H679 N675 0.985 . S
H680 N674 0.984 . S
H681 N674 0.984 . S
H682 N670 0.984 . S
H683 N670 0.985 . S
C361 C6 0.856 . S
C363 C335 0.882 . S
C379 C59 2.069 . S
C381 C242 2.045 . S
C397 C86 1.315 . S
C399 C282 1.348 . S
C415 C15 0.566 . S
C417 C322 0.486 . S
C435 C255 2.150 . S
C433 C50 2.276 . S
C453 C295 1.365 . S
C451 C95 1.362 . S
C469 C46 1.248 . S
C471 C162 1.245 . S
C487 C99 3.251 . S
C489 C202 3.218 . S
C505 C10 2.304 . S
C507 C135 2.198 . S
C525 C175 1.361 . S
C523 C55 1.344 . S
C543 C215 3.128 . S
C541 C90 3.210 . S
C559 C19 2.062 . S
C561 C122 2.046 . S
C579 C221 1.772 . S
C577 C18 1.714 . S
C595 C49 1.337 . S
C597 C141 1.375 . S
C613 C98 1.457 . S
C615 C181 1.504 . S
C633 C301 1.495 . S
C631 C58 1.449 . S
C651 C341 1.106 . S
C649 C89 1.098 . S
C667 C9 1.327 . S
C669 C261 1.362 . S
