# Generated by pormake.
# Topology ctn, (3,4)-cn, num edge types: 1
# Building blocks:
#     Node 0, Type 0, BuildingBlock: WUSLED_clean_sbu_0, # of connection points: 3
#     Node 1, Type 0, BuildingBlock: WUSLED_clean_sbu_0, # of connection points: 3
#     Node 2, Type 0, BuildingBlock: WUSLED_clean_sbu_0, # of connection points: 3
#     Node 3, Type 0, BuildingBlock: WUSLED_clean_sbu_0, # of connection points: 3
#     Node 4, Type 0, BuildingBlock: WUSLED_clean_sbu_0, # of connection points: 3
#     Node 5, Type 0, BuildingBlock: WUSLED_clean_sbu_0, # of connection points: 3
#     Node 6, Type 0, BuildingBlock: WUSLED_clean_sbu_0, # of connection points: 3
#     Node 7, Type 0, BuildingBlock: WUSLED_clean_sbu_0, # of connection points: 3
#     Node 8, Type 0, BuildingBlock: WUSLED_clean_sbu_0, # of connection points: 3
#     Node 9, Type 0, BuildingBlock: WUSLED_clean_sbu_0, # of connection points: 3
#     Node 10, Type 0, BuildingBlock: WUSLED_clean_sbu_0, # of connection points: 3
#     Node 11, Type 0, BuildingBlock: WUSLED_clean_sbu_0, # of connection points: 3
#     Node 12, Type 0, BuildingBlock: WUSLED_clean_sbu_0, # of connection points: 3
#     Node 13, Type 0, BuildingBlock: WUSLED_clean_sbu_0, # of connection points: 3
#     Node 14, Type 0, BuildingBlock: WUSLED_clean_sbu_0, # of connection points: 3
#     Node 15, Type 0, BuildingBlock: WUSLED_clean_sbu_0, # of connection points: 3
#     Node 16, Type 1, BuildingBlock: TATPOV_clean_sbu_0, # of connection points: 4
#     Node 17, Type 1, BuildingBlock: TATPOV_clean_sbu_0, # of connection points: 4
#     Node 18, Type 1, BuildingBlock: TATPOV_clean_sbu_0, # of connection points: 4
#     Node 19, Type 1, BuildingBlock: TATPOV_clean_sbu_0, # of connection points: 4
#     Node 20, Type 1, BuildingBlock: TATPOV_clean_sbu_0, # of connection points: 4
#     Node 21, Type 1, BuildingBlock: TATPOV_clean_sbu_0, # of connection points: 4
#     Node 22, Type 1, BuildingBlock: TATPOV_clean_sbu_0, # of connection points: 4
#     Node 23, Type 1, BuildingBlock: TATPOV_clean_sbu_0, # of connection points: 4
#     Node 24, Type 1, BuildingBlock: TATPOV_clean_sbu_0, # of connection points: 4
#     Node 25, Type 1, BuildingBlock: TATPOV_clean_sbu_0, # of connection points: 4
#     Node 26, Type 1, BuildingBlock: TATPOV_clean_sbu_0, # of connection points: 4
#     Node 27, Type 1, BuildingBlock: TATPOV_clean_sbu_0, # of connection points: 4
#     Edge 28, Type (0, 1), BuildingBlock: OJICUG_clean_linker_0, # of connection points: 2
#     Edge 29, Type (0, 1), BuildingBlock: OJICUG_clean_linker_0, # of connection points: 2
#     Edge 30, Type (0, 1), BuildingBlock: OJICUG_clean_linker_0, # of connection points: 2
#     Edge 31, Type (0, 1), BuildingBlock: OJICUG_clean_linker_0, # of connection points: 2
#     Edge 32, Type (0, 1), BuildingBlock: OJICUG_clean_linker_0, # of connection points: 2
#     Edge 33, Type (0, 1), BuildingBlock: OJICUG_clean_linker_0, # of connection points: 2
#     Edge 34, Type (0, 1), BuildingBlock: OJICUG_clean_linker_0, # of connection points: 2
#     Edge 35, Type (0, 1), BuildingBlock: OJICUG_clean_linker_0, # of connection points: 2
#     Edge 36, Type (0, 1), BuildingBlock: OJICUG_clean_linker_0, # of connection points: 2
#     Edge 37, Type (0, 1), BuildingBlock: OJICUG_clean_linker_0, # of connection points: 2
#     Edge 38, Type (0, 1), BuildingBlock: OJICUG_clean_linker_0, # of connection points: 2
#     Edge 39, Type (0, 1), BuildingBlock: OJICUG_clean_linker_0, # of connection points: 2
#     Edge 40, Type (0, 1), BuildingBlock: OJICUG_clean_linker_0, # of connection points: 2
#     Edge 41, Type (0, 1), BuildingBlock: OJICUG_clean_linker_0, # of connection points: 2
#     Edge 42, Type (0, 1), BuildingBlock: OJICUG_clean_linker_0, # of connection points: 2
#     Edge 43, Type (0, 1), BuildingBlock: OJICUG_clean_linker_0, # of connection points: 2
#     Edge 44, Type (0, 1), BuildingBlock: OJICUG_clean_linker_0, # of connection points: 2
#     Edge 45, Type (0, 1), BuildingBlock: OJICUG_clean_linker_0, # of connection points: 2
#     Edge 46, Type (0, 1), BuildingBlock: OJICUG_clean_linker_0, # of connection points: 2
#     Edge 47, Type (0, 1), BuildingBlock: OJICUG_clean_linker_0, # of connection points: 2
#     Edge 48, Type (0, 1), BuildingBlock: OJICUG_clean_linker_0, # of connection points: 2
#     Edge 49, Type (0, 1), BuildingBlock: OJICUG_clean_linker_0, # of connection points: 2
#     Edge 50, Type (0, 1), BuildingBlock: OJICUG_clean_linker_0, # of connection points: 2
#     Edge 51, Type (0, 1), BuildingBlock: OJICUG_clean_linker_0, # of connection points: 2
#     Edge 52, Type (0, 1), BuildingBlock: OJICUG_clean_linker_0, # of connection points: 2
#     Edge 53, Type (0, 1), BuildingBlock: OJICUG_clean_linker_0, # of connection points: 2
#     Edge 54, Type (0, 1), BuildingBlock: OJICUG_clean_linker_0, # of connection points: 2
#     Edge 55, Type (0, 1), BuildingBlock: OJICUG_clean_linker_0, # of connection points: 2
#     Edge 56, Type (0, 1), BuildingBlock: OJICUG_clean_linker_0, # of connection points: 2
#     Edge 57, Type (0, 1), BuildingBlock: OJICUG_clean_linker_0, # of connection points: 2
#     Edge 58, Type (0, 1), BuildingBlock: OJICUG_clean_linker_0, # of connection points: 2
#     Edge 59, Type (0, 1), BuildingBlock: OJICUG_clean_linker_0, # of connection points: 2
#     Edge 60, Type (0, 1), BuildingBlock: OJICUG_clean_linker_0, # of connection points: 2
#     Edge 61, Type (0, 1), BuildingBlock: OJICUG_clean_linker_0, # of connection points: 2
#     Edge 62, Type (0, 1), BuildingBlock: OJICUG_clean_linker_0, # of connection points: 2
#     Edge 63, Type (0, 1), BuildingBlock: OJICUG_clean_linker_0, # of connection points: 2
#     Edge 64, Type (0, 1), BuildingBlock: OJICUG_clean_linker_0, # of connection points: 2
#     Edge 65, Type (0, 1), BuildingBlock: OJICUG_clean_linker_0, # of connection points: 2
#     Edge 66, Type (0, 1), BuildingBlock: OJICUG_clean_linker_0, # of connection points: 2
#     Edge 67, Type (0, 1), BuildingBlock: OJICUG_clean_linker_0, # of connection points: 2
#     Edge 68, Type (0, 1), BuildingBlock: OJICUG_clean_linker_0, # of connection points: 2
#     Edge 69, Type (0, 1), BuildingBlock: OJICUG_clean_linker_0, # of connection points: 2
#     Edge 70, Type (0, 1), BuildingBlock: OJICUG_clean_linker_0, # of connection points: 2
#     Edge 71, Type (0, 1), BuildingBlock: OJICUG_clean_linker_0, # of connection points: 2
#     Edge 72, Type (0, 1), BuildingBlock: OJICUG_clean_linker_0, # of connection points: 2
#     Edge 73, Type (0, 1), BuildingBlock: OJICUG_clean_linker_0, # of connection points: 2
#     Edge 74, Type (0, 1), BuildingBlock: OJICUG_clean_linker_0, # of connection points: 2
#     Edge 75, Type (0, 1), BuildingBlock: OJICUG_clean_linker_0, # of connection points: 2
# Relax obj value: 0.004
# Max RMSD: 0.048
# Mean RMSD: 0.023
data_MOF--net-ctn--node1-WUSLED_clean_sbu_0--node2-TATPOV_clean_sbu_0--edge1-OJICUG_clean_linker_0
_symmetry_space_group_name_H-M    P1
_symmetry_Int_Tables_number       1
_symmetry_cell_setting            triclinic
loop_
_symmetry_equiv_pos_as_xyz
'x, y, z'
_cell_length_a     55.790995
_cell_length_b     56.088353
_cell_length_c     55.946916
_cell_angle_alpha  91.47853
_cell_angle_beta   90.853513
_cell_angle_gamma 90.843298
loop_
_atom_site_label
_atom_site_type_symbol
_atom_site_fract_x
_atom_site_fract_y
_atom_site_fract_z
_atom_type_partial_charge
C0 C 0.99897 0.06016 0.09816 0.0
C1 C 0.99014 0.03686 0.10154 0.0
C2 C 0.97263 0.04915 0.13971 0.0
C3 C 0.97709 0.03145 0.12206 0.0
C4 C 0.98166 0.07237 0.13626 0.0
C5 C 0.99458 0.07777 0.11578 0.0
U6 U 0.04929 0.05472 0.051 0.0
O7 O 0.04739 0.05942 0.01196 0.0
O8 O 0.07013 0.08337 0.03442 0.0
C9 C 0.06188 0.07813 0.01277 0.0
C10 C 0.01163 0.06705 0.07609 0.0
C11 C 0.05546 0.09847 0.99773 0.0
C12 C 0.03253 0.13408 0.98927 0.0
C13 C 0.03697 0.11425 1.00355 0.0
C14 C 0.06477 0.1223 0.96323 0.0
C15 C 0.04666 0.13853 0.96911 0.0
C16 C 0.06906 0.10255 0.97735 0.0
C17 C 0.09796 1.00612 0.05844 0.0
C18 C 0.12217 0.98301 0.03043 0.0
C19 C 0.1358 0.98909 0.07141 0.0
C20 C 0.11531 1.00234 0.07632 0.0
C21 C 0.13953 0.97912 0.04844 0.0
C22 C 0.10163 0.99639 0.03536 0.0
C23 C 0.07581 0.019 0.06495 0.0
O24 O 0.03294 0.07707 0.0792 0.0
O25 O 1.0105 0.05205 0.05762 0.0
O26 O 0.05702 0.01628 0.05059 0.0
O27 O 0.07873 0.04099 0.07326 0.0
H28 H 0.99316 0.02285 0.0883 0.0
H29 H 0.97065 0.01333 0.12418 0.0
H30 H 0.97831 0.08659 0.14918 0.0
H31 H 1.00091 0.09592 0.11354 0.0
H32 H 0.01852 0.14627 0.99438 0.0
H33 H 0.02627 0.11145 0.01926 0.0
H34 H 0.07574 0.1249 0.94768 0.0
H35 H 0.08336 0.09057 0.97248 0.0
H36 H 0.12453 0.97584 0.01248 0.0
H37 H 0.14848 0.98621 0.08585 0.0
H38 H 0.11282 1.00939 0.09431 0.0
H39 H 0.08858 0.99895 0.02117 0.0
C40 C 0.26305 0.75557 0.17653 0.0
C41 C 0.24545 0.77312 0.17462 0.0
C42 C 0.26475 0.7892 0.13944 0.0
C43 C 0.2463 0.78979 0.15634 0.0
C44 C 0.2824 0.7716 0.14155 0.0
C45 C 0.28164 0.75512 0.15987 0.0
U46 U 0.28715 0.72006 0.22992 0.0
O47 O 0.26799 0.70611 0.26098 0.0
O48 O 0.28552 0.68153 0.23585 0.0
C49 C 0.2714 0.68375 0.25436 0.0
C50 C 0.26093 0.73708 0.19497 0.0
C51 C 0.25036 0.66723 0.25504 0.0
C52 C 0.22865 0.63168 0.24012 0.0
C53 C 0.24692 0.6488 0.23771 0.0
C54 C 0.21639 0.65134 0.27684 0.0
C55 C 0.21338 0.63252 0.2599 0.0
C56 C 0.23474 0.6684 0.2745 0.0
C57 C 0.35096 0.73554 0.25551 0.0
C58 C 0.37056 0.73879 0.29481 0.0
C59 C 0.39427 0.732 0.2595 0.0
C60 C 0.37344 0.73174 0.24528 0.0
C61 C 0.3932 0.73623 0.28435 0.0
C62 C 0.34963 0.73853 0.28053 0.0
C63 C 0.32988 0.73867 0.23945 0.0
O64 O 0.27469 0.71838 0.19248 0.0
O65 O 0.25942 0.74473 0.2173 0.0
O66 O 0.3101 0.74673 0.24907 0.0
O67 O 0.32591 0.72192 0.22294 0.0
H68 H 0.23084 0.7738 0.18715 0.0
H69 H 0.23253 0.80315 0.15553 0.0
H70 H 0.29663 0.77012 0.12867 0.0
H71 H 0.29544 0.74178 0.16067 0.0
H72 H 0.22665 0.61762 0.22657 0.0
H73 H 0.25865 0.6472 0.22253 0.0
H74 H 0.20515 0.65238 0.29244 0.0
H75 H 0.23712 0.68216 0.28831 0.0
H76 H 0.3691 0.74225 0.31386 0.0
H77 H 0.41136 0.72963 0.25089 0.0
H78 H 0.37503 0.72942 0.22608 0.0
H79 H 0.33258 0.74154 0.289 0.0
C80 C 0.97571 0.41708 1.00811 0.0
C81 C 1.00028 0.41316 1.00487 0.0
C82 C 0.99115 0.37727 0.98069 0.0
C83 C 1.00791 0.39352 0.99119 0.0
C84 C 0.96662 0.38072 0.98482 0.0
C85 C 0.95899 0.40049 0.99832 0.0
U86 U 0.98126 0.46386 0.05894 0.0
O87 O 0.97654 0.50274 0.05907 0.0
O88 O 0.95346 0.48049 0.08106 0.0
C89 C 0.95778 0.50191 0.07296 0.0
C90 C 0.96716 0.43859 0.021 0.0
C91 C 0.93677 0.51496 0.06437 0.0
C92 C 0.9021 0.51795 0.03791 0.0
C93 C 0.92126 0.50485 0.04682 0.0
C94 C 0.91354 0.55132 0.06421 0.0
C95 C 0.89818 0.54149 0.04624 0.0
C96 C 0.93267 0.53816 0.07315 0.0
C97 C 0.03308 0.4576 0.1044 0.0
C98 C 0.0396 0.48365 0.1394 0.0
C99 C 0.06312 0.44795 0.13423 0.0
C100 C 0.05121 0.44273 0.11258 0.0
C101 C 0.05714 0.46818 0.14812 0.0
C102 C 0.02754 0.47832 0.11769 0.0
C103 C 0.01936 0.45025 0.08277 0.0
O104 O 0.95862 0.43517 0.04242 0.0
O105 O 0.98091 0.45779 0.01997 0.0
O106 O 0.0204 0.4647 0.06468 0.0
O107 O 0.99766 0.44187 0.0865 0.0
H108 H 0.01359 0.42551 0.0125 0.0
H109 H 0.02694 0.39123 0.98851 0.0
H110 H 0.95326 0.36869 0.97677 0.0
H111 H 0.93996 0.40312 1.00067 0.0
H112 H 0.89043 0.50967 0.02436 0.0
H113 H 0.92415 0.48695 0.03981 0.0
H114 H 0.91124 0.56943 0.07084 0.0
H115 H 0.94455 0.54627 0.08664 0.0
H116 H 0.03453 0.49927 0.14981 0.0
H117 H 0.07674 0.43586 0.14037 0.0
H118 H 0.05573 0.42671 0.1025 0.0
H119 H 0.0135 0.48996 0.11161 0.0
C120 C 0.72534 0.73139 0.17448 0.0
C121 C 0.74746 0.73534 0.1635 0.0
C122 C 0.73828 0.7036 0.1339 0.0
C123 C 0.75388 0.72156 0.14339 0.0
C124 C 0.71596 0.70012 0.14479 0.0
C125 C 0.7096 0.71385 0.16486 0.0
U126 U 0.73071 0.78466 0.21935 0.0
O127 O 0.70226 0.80397 0.23809 0.0
O128 O 0.72896 0.78442 0.25874 0.0
C129 C 0.70906 0.79666 0.25924 0.0
C130 C 0.71847 0.74479 0.19627 0.0
C131 C 0.6899 0.78771 0.27478 0.0
C132 C 0.65114 0.76821 0.28044 0.0
C133 C 0.6704 0.77397 0.26567 0.0
C134 C 0.67123 0.78884 0.31377 0.0
C135 C 0.65104 0.77619 0.30452 0.0
C136 C 0.6904 0.79454 0.29905 0.0
C137 C 0.77578 0.83582 0.21016 0.0
C138 C 0.77564 0.87308 0.23334 0.0
C139 C 0.80912 0.86415 0.20773 0.0
C140 C 0.79802 0.84242 0.20079 0.0
C141 C 0.79815 0.87973 0.22424 0.0
C142 C 0.76463 0.85134 0.22645 0.0
C143 C 0.76446 0.81278 0.20281 0.0
O144 O 0.73459 0.74599 0.21366 0.0
O145 O 0.70763 0.76511 0.19294 0.0
O146 O 0.74184 0.81364 0.196 0.0
O147 O 0.7689 0.79483 0.21678 0.0
H148 H 0.75987 0.74885 0.17067 0.0
H149 H 0.77127 0.72463 0.1356 0.0
H150 H 0.7033 0.6868 0.13775 0.0
H151 H 0.69239 0.71062 0.17302 0.0
H152 H 0.63581 0.75861 0.2727 0.0
H153 H 0.66968 0.76841 0.24698 0.0
H154 H 0.67187 0.795 0.33229 0.0
H155 H 0.70532 0.80504 0.30648 0.0
H156 H 0.76642 0.88474 0.24577 0.0
H157 H 0.82652 0.86848 0.20056 0.0
H158 H 0.80692 0.83066 0.1882 0.0
H159 H 0.74742 0.84662 0.23387 0.0
C160 C 1.00267 0.97599 0.41317 0.0
C161 C 0.99629 1.00003 0.41119 0.0
C162 C 0.97422 0.99069 0.37407 0.0
C163 C 0.98212 1.00726 0.3919 0.0
C164 C 0.98144 0.96686 0.37559 0.0
C165 C 0.99543 0.95958 0.395 0.0
U166 U 0.0548 0.98086 0.45859 0.0
O167 O 0.05587 0.97636 0.49747 0.0
O168 O 0.07665 0.95255 0.47426 0.0
C169 C 0.06908 0.95716 0.49602 0.0
C170 C 0.01604 0.96751 0.43429 0.0
C171 C 0.06035 0.93646 0.50933 0.0
C172 C 0.02771 0.91237 0.52461 0.0
C173 C 0.03573 0.93159 0.51129 0.0
C174 C 0.06879 0.90226 0.53388 0.0
C175 C 0.04411 0.89736 0.53605 0.0
C176 C 0.0768 0.92164 0.52067 0.0
C177 C 0.10098 0.03177 0.45163 0.0
C178 C 0.13543 0.03912 0.47808 0.0
C179 C 0.13117 0.06128 0.44168 0.0
C180 C 0.10961 0.04921 0.43638 0.0
C181 C 0.14453 0.05613 0.46238 0.0
C182 C 0.11382 0.02692 0.47268 0.0
C183 C 0.07908 0.01833 0.44461 0.0
O184 O 0.03728 0.95862 0.4301 0.0
O185 O 0.01563 0.9812 0.45373 0.0
O186 O 0.06114 0.0197 0.45952 0.0
O187 O 0.08242 0.99664 0.436 0.0
H188 H 1.00182 0.01318 0.42476 0.0
H189 H 0.97702 0.02579 0.39112 0.0
H190 H 0.97544 0.95362 0.3623 0.0
H191 H 1.00015 0.94097 0.39611 0.0
H192 H 1.00857 0.9095 0.52618 0.0
H193 H 0.02266 0.94277 0.50271 0.0
H194 H 0.08195 0.89098 0.54214 0.0
H195 H 0.09589 0.92509 0.51934 0.0
H196 H 0.14542 0.03466 0.49406 0.0
H197 H 0.13755 0.07449 0.4294 0.0
H198 H 0.09987 0.05322 0.42011 0.0
H199 H 0.10738 0.01343 0.48463 0.0
C200 C 0.20903 0.77862 0.83958 0.0
C201 C 0.22337 0.76634 0.85584 0.0
C202 C 0.2235 0.80062 0.88372 0.0
C203 C 0.23044 0.77717 0.87769 0.0
C204 C 0.20901 0.81277 0.86736 0.0
C205 C 0.20186 0.80186 0.84552 0.0
U206 U 0.21699 0.73217 0.78915 0.0
O207 O 0.19004 0.70971 0.76967 0.0
O208 O 0.21249 0.7349 0.75021 0.0
C209 C 0.19441 0.71958 0.7491 0.0
C210 C 0.20147 0.76741 0.81645 0.0
C211 C 0.17324 0.72661 0.73496 0.0
C212 C 0.14477 0.75618 0.72172 0.0
C213 C 0.16426 0.74986 0.73625 0.0
C214 C 0.14278 0.71598 0.70488 0.0
C215 C 0.13392 0.73935 0.70565 0.0
C216 C 0.16223 0.70973 0.71934 0.0
C217 C 0.27038 0.68905 0.79527 0.0
C218 C 0.27688 0.65258 0.77176 0.0
C219 C 0.30505 0.66467 0.80329 0.0
C220 C 0.29162 0.685 0.80809 0.0
C221 C 0.29757 0.64792 0.78548 0.0
C222 C 0.26329 0.67299 0.7767 0.0
C223 C 0.25541 0.70924 0.80285 0.0
O224 O 0.21613 0.77058 0.79859 0.0
O225 O 0.19323 0.74538 0.81741 0.0
O226 O 0.23364 0.70376 0.80971 0.0
O227 O 0.25628 0.72832 0.78972 0.0
H228 H 0.22911 0.74836 0.85163 0.0
H229 H 0.24126 0.76706 0.88993 0.0
H230 H 0.20357 0.83091 0.87118 0.0
H231 H 0.19083 0.81166 0.83318 0.0
H232 H 0.13854 0.77437 0.72269 0.0
H233 H 0.17248 0.76318 0.74824 0.0
H234 H 0.13463 0.70242 0.69312 0.0
H235 H 0.16882 0.69166 0.71818 0.0
H236 H 0.27059 0.6399 0.75806 0.0
H237 H 0.321 0.66167 0.81402 0.0
H238 H 0.29743 0.69722 0.82242 0.0
H239 H 0.24691 0.67583 0.7666 0.0
C240 C 0.95587 0.60493 0.53609 0.0
C241 C 0.97592 0.61859 0.5296 0.0
C242 C 0.96723 0.64807 0.56094 0.0
C243 C 0.98164 0.64 0.54204 0.0
C244 C 0.94774 0.63377 0.56787 0.0
C245 C 0.94214 0.61241 0.55555 0.0
U246 U 0.96056 0.56073 0.4828 0.0
O247 O 0.95491 0.52187 0.4812 0.0
O248 O 0.93117 0.54479 0.46059 0.0
C249 C 0.93518 0.5232 0.46816 0.0
C250 C 0.94798 0.58368 0.52204 0.0
C251 C 0.91401 0.50986 0.47669 0.0
C252 C 0.89264 0.48966 0.50814 0.0
C253 C 0.91178 0.50402 0.50084 0.0
C254 C 0.8769 0.48784 0.46756 0.0
C255 C 0.87521 0.48105 0.49151 0.0
C256 C 0.89618 0.50202 0.46022 0.0
C257 C 1.01068 0.56708 0.43726 0.0
C258 C 0.01269 0.54214 0.40124 0.0
C259 C 0.04716 0.56626 0.41398 0.0
C260 C 0.03428 0.57495 0.43356 0.0
C261 C 0.03664 0.54947 0.39774 0.0
C262 C 0.99988 0.55078 0.42086 0.0
C263 C 0.99801 0.5752 0.45881 0.0
O264 O 0.93881 0.5879 0.50083 0.0
O265 O 0.96257 0.56549 0.52198 0.0
O266 O 0.99949 0.56094 0.47702 0.0
O267 O 0.97629 0.58339 0.45536 0.0
H268 H 0.98668 0.61305 0.51455 0.0
H269 H 0.99664 0.65074 0.53621 0.0
H270 H 0.93649 0.63939 0.58252 0.0
H271 H 0.92664 0.60204 0.56082 0.0
H272 H 0.89171 0.48491 0.52675 0.0
H273 H 0.9251 0.51006 0.51401 0.0
H274 H 0.86391 0.48131 0.45429 0.0
H275 H 0.8975 0.50636 0.44152 0.0
H276 H 1.00387 0.52953 0.3889 0.0
H277 H 0.0656 0.57208 0.41203 0.0
H278 H 0.04293 0.58746 0.44613 0.0
H279 H 0.98167 0.54448 0.42342 0.0
C280 C 0.79961 0.7869 0.87329 0.0
C281 C 0.80132 0.76366 0.86355 0.0
C282 C 0.80194 0.74724 0.90352 0.0
C283 C 0.80232 0.74409 0.87846 0.0
C284 C 0.80057 0.77059 0.91322 0.0
C285 C 0.79934 0.79018 0.89824 0.0
U286 U 0.81985 0.82422 0.82063 0.0
O287 O 0.79889 0.83974 0.79159 0.0
O288 O 0.81985 0.86324 0.81623 0.0
C289 C 0.80376 0.8618 0.79881 0.0
C290 C 0.7973 0.8077 0.85773 0.0
C291 C 0.783 0.87772 0.80109 0.0
C292 C 0.74007 0.88367 0.80417 0.0
C293 C 0.75966 0.86847 0.80348 0.0
C294 C 0.76678 0.91779 0.80086 0.0
C295 C 0.7433 0.90856 0.80281 0.0
C296 C 0.7864 0.9025 0.79993 0.0
C297 C 0.87372 0.80463 0.78367 0.0
C298 C 0.87991 0.80754 0.7409 0.0
C299 C 0.91413 0.80539 0.76783 0.0
C300 C 0.89865 0.80419 0.78726 0.0
C301 C 0.90495 0.80688 0.74434 0.0
C302 C 0.8645 0.80658 0.76031 0.0
C303 C 0.85763 0.80215 0.80426 0.0
O304 O 0.8145 0.82396 0.85966 0.0
O305 O 0.79054 0.80301 0.83547 0.0
O306 O 0.83547 0.79528 0.79915 0.0
O307 O 0.85904 0.81922 0.82081 0.0
H308 H 0.80157 0.7605 0.84437 0.0
H309 H 0.80288 0.72643 0.87024 0.0
H310 H 0.80054 0.77377 0.93238 0.0
H311 H 0.79804 0.80794 0.90616 0.0
H312 H 0.7223 0.87577 0.80521 0.0
H313 H 0.75645 0.84942 0.80443 0.0
H314 H 0.77004 0.93683 0.80008 0.0
H315 H 0.80425 0.91004 0.79811 0.0
H316 H 0.87207 0.80821 0.72312 0.0
H317 H 0.93328 0.80516 0.77125 0.0
H318 H 0.90617 0.80273 0.80512 0.0
H319 H 0.84535 0.80699 0.75693 0.0
C320 C 0.29977 0.28339 0.37614 0.0
C321 C 0.30331 0.26016 0.36706 0.0
C322 C 0.30147 0.24443 0.40728 0.0
C323 C 0.30399 0.24092 0.38241 0.0
C324 C 0.29846 0.26783 0.41634 0.0
C325 C 0.29755 0.28708 0.4009 0.0
U326 U 0.31915 0.31931 0.32208 0.0
O327 O 0.2975 0.334 0.29307 0.0
O328 O 0.3188 0.35819 0.31673 0.0
C329 C 0.30233 0.35624 0.2997 0.0
C330 C 0.29732 0.30371 0.36002 0.0
C331 C 0.28151 0.37214 0.302 0.0
C332 C 0.23847 0.37814 0.30369 0.0
C333 C 0.25802 0.36288 0.30292 0.0
C334 C 0.26547 0.4123 0.30331 0.0
C335 C 0.24188 0.40308 0.30384 0.0
C336 C 0.28505 0.39697 0.30232 0.0
C337 C 0.37241 0.29928 0.28442 0.0
C338 C 0.37788 0.30006 0.24138 0.0
C339 C 0.41252 0.30201 0.26796 0.0
C340 C 0.39739 0.30081 0.28768 0.0
C341 C 0.40296 0.30154 0.24452 0.0
C342 C 0.3628 0.29908 0.26105 0.0
C343 C 0.35675 0.29712 0.30541 0.0
O344 O 0.31456 0.31995 0.36124 0.0
O345 O 0.29027 0.29834 0.33797 0.0
O346 O 0.33454 0.28999 0.30093 0.0
O347 O 0.35837 0.31452 0.3216 0.0
H348 H 0.30511 0.25675 0.34803 0.0
H349 H 0.30588 0.22319 0.37462 0.0
H350 H 0.2968 0.27132 0.43536 0.0
H351 H 0.29485 0.30487 0.4083 0.0
H352 H 0.22063 0.37029 0.3036 0.0
H353 H 0.25464 0.34381 0.30268 0.0
H354 H 0.26885 0.43137 0.30372 0.0
H355 H 0.303 0.40454 0.30162 0.0
H356 H 0.3698 0.29917 0.22366 0.0
H357 H 0.43169 0.30342 0.27113 0.0
H358 H 0.40523 0.30097 0.30552 0.0
H359 H 0.34362 0.29788 0.25787 0.0
C360 C 0.47149 0.91454 0.50876 0.0
C361 C 0.49587 0.91134 0.50379 0.0
C362 C 0.48619 0.87503 0.48051 0.0
C363 C 0.50311 0.89185 0.48971 0.0
C364 C 0.46197 0.87763 0.48651 0.0
C365 C 0.45469 0.89728 0.50042 0.0
U366 U 0.47771 0.96209 0.55902 0.0
O367 O 0.47313 1.00089 0.55879 0.0
O368 O 0.44977 0.97903 0.58092 0.0
C369 C 0.45407 1.00024 0.57232 0.0
C370 C 0.46315 0.93613 0.5217 0.0
C371 C 0.43301 0.01304 0.56324 0.0
C372 C 0.40874 0.02703 0.53017 0.0
C373 C 0.42826 0.01421 0.53861 0.0
C374 C 0.398 0.03734 0.57088 0.0
C375 C 0.39324 0.03872 0.54617 0.0
C376 C 0.41772 0.02465 0.5793 0.0
C377 C 0.53054 0.95713 0.60361 0.0
C378 C 0.53681 0.9828 0.63893 0.0
C379 C 0.563 0.94941 0.63152 0.0
C380 C 0.55035 0.94371 0.61039 0.0
C381 C 0.55608 0.96869 0.64629 0.0
C382 C 0.52404 0.97699 0.61774 0.0
C383 C 0.5163 0.94919 0.58251 0.0
O384 O 0.45511 0.9329 0.54335 0.0
O385 O 0.4767 0.95541 0.52014 0.0
O386 O 0.51695 0.96314 0.564 0.0
O387 O 0.49469 0.94093 0.58691 0.0
H388 H 0.50926 0.92421 0.51027 0.0
H389 H 0.52193 0.8902 0.48555 0.0
H390 H 0.44851 0.86509 0.47951 0.0
H391 H 0.43582 0.89934 0.50411 0.0
H392 H 0.40601 0.02802 0.51103 0.0
H393 H 0.43979 1.0054 0.52582 0.0
H394 H 0.38635 0.04583 0.58374 0.0
H395 H 0.42106 0.02392 0.5984 0.0
H396 H 0.53098 0.99765 0.65004 0.0
H397 H 0.57793 0.93839 0.63659 0.0
H398 H 0.55566 0.92839 0.59963 0.0
H399 H 0.50874 0.98754 0.61272 0.0
C400 C 0.2297 0.23801 0.67389 0.0
C401 C 0.24334 0.25026 0.65713 0.0
C402 C 0.2462 0.2139 0.63238 0.0
C403 C 0.25149 0.23833 0.63654 0.0
C404 C 0.23271 0.20174 0.64944 0.0
C405 C 0.22455 0.21369 0.66994 0.0
U406 U 0.23002 0.28959 0.72053 0.0
O407 O 0.19992 0.30813 0.73727 0.0
O408 O 0.22478 0.28803 0.75952 0.0
C409 C 0.20465 0.29989 0.7586 0.0
C410 C 0.22055 0.25017 0.69549 0.0
C411 C 0.18406 0.28953 0.77129 0.0
C412 C 0.14548 0.26866 0.7709 0.0
C413 C 0.16617 0.27598 0.75905 0.0
C414 C 0.16084 0.28711 0.80771 0.0
C415 C 0.1423 0.2746 0.79526 0.0
C416 C 0.18147 0.29455 0.79581 0.0
C417 C 0.27558 0.34157 0.71485 0.0
C418 C 0.27356 0.38015 0.7355 0.0
C419 C 0.3098 0.36904 0.71498 0.0
C420 C 0.29905 0.34716 0.70804 0.0
C421 C 0.29724 0.38582 0.7289 0.0
C422 C 0.26288 0.35823 0.72862 0.0
C423 C 0.26463 0.31847 0.70708 0.0
O424 O 0.23521 0.2511 0.71411 0.0
O425 O 0.20942 0.27033 0.6921 0.0
O426 O 0.24252 0.31922 0.6987 0.0
O427 O 0.26818 0.30054 0.72132 0.0
H428 H 0.24754 0.26906 0.65988 0.0
H429 H 0.26159 0.24835 0.62371 0.0
H430 H 0.22864 0.18288 0.64711 0.0
H431 H 0.21416 0.2039 0.68275 0.0
H432 H 0.13167 0.25882 0.76083 0.0
H433 H 0.16786 0.2717 0.74016 0.0
H434 H 0.1589 0.29222 0.82637 0.0
H435 H 0.19506 0.30497 0.8056 0.0
H436 H 0.26318 0.39272 0.74591 0.0
H437 H 0.32812 0.37258 0.70984 0.0
H438 H 0.30915 0.33452 0.6974 0.0
H439 H 0.2447 0.35432 0.734 0.0
C440 C 0.76074 0.25262 0.67366 0.0
C441 C 0.78046 0.26837 0.67291 0.0
C442 C 0.76323 0.28731 0.63788 0.0
C443 C 0.78169 0.28555 0.65521 0.0
C444 C 0.74313 0.27197 0.63926 0.0
C445 C 0.74195 0.25477 0.65696 0.0
U446 U 0.78726 0.21982 0.72693 0.0
O447 O 0.7692 0.20391 0.75764 0.0
O448 O 0.79001 0.18143 0.73313 0.0
C449 C 0.77551 0.18215 0.75144 0.0
C450 C 0.75992 0.23342 0.69118 0.0
C451 C 0.75641 0.16364 0.75153 0.0
C452 C 0.72787 0.13679 0.73084 0.0
C453 C 0.74472 0.15556 0.73036 0.0
C454 C 0.73367 0.13447 0.77369 0.0
C455 C 0.72228 0.12587 0.7525 0.0
C456 C 0.75056 0.15312 0.77317 0.0
C457 C 0.84686 0.24487 0.75494 0.0
C458 C 0.86881 0.22932 0.78905 0.0
C459 C 0.88261 0.26542 0.77042 0.0
C460 C 0.86363 0.26359 0.75393 0.0
C461 C 0.8853 0.24855 0.78842 0.0
C462 C 0.84961 0.22755 0.77246 0.0
C463 C 0.8266 0.24444 0.73772 0.0
O464 O 0.77656 0.2172 0.68892 0.0
O465 O 0.75665 0.24027 0.71352 0.0
O466 O 0.80551 0.24959 0.74648 0.0
O467 O 0.82581 0.22671 0.7219 0.0
H468 H 0.79509 0.26709 0.68575 0.0
H469 H 0.79728 0.29726 0.6549 0.0
H470 H 0.72874 0.27261 0.6261 0.0
H471 H 0.72657 0.24276 0.65726 0.0
H472 H 0.71923 0.13081 0.71424 0.0
H473 H 0.74887 0.16351 0.71344 0.0
H474 H 0.73006 0.12632 0.79063 0.0
H475 H 0.75944 0.15903 0.78969 0.0
H476 H 0.87039 0.21607 0.80271 0.0
H477 H 0.89522 0.28018 0.76909 0.0
H478 H 0.86191 0.27703 0.74046 0.0
H479 H 0.83681 0.21292 0.77348 0.0
C480 C 0.49825 0.55156 0.59969 0.0
C481 C 0.50988 0.54321 0.62024 0.0
C482 C 0.47132 0.53751 0.63986 0.0
C483 C 0.49657 0.53627 0.64009 0.0
C484 C 0.45982 0.54541 0.619 0.0
C485 C 0.47312 0.55236 0.59923 0.0
U486 U 0.55036 0.55205 0.55409 0.0
O487 O 0.54908 0.56079 0.51588 0.0
O488 O 0.57078 0.58294 0.54105 0.0
C489 C 0.56244 0.58018 0.51904 0.0
C490 C 0.5117 0.56091 0.57915 0.0
C491 C 0.55486 0.60218 0.5068 0.0
C492 C 0.52811 0.62346 0.47997 0.0
C493 C 0.53351 0.60313 0.49311 0.0
C494 C 0.5651 0.64231 0.49408 0.0
C495 C 0.54391 0.64332 0.48017 0.0
C496 C 0.57049 0.62205 0.50713 0.0
C497 C 0.60011 0.50372 0.55777 0.0
C498 C 0.62371 0.47955 0.53008 0.0
C499 C 0.63932 0.48903 0.56979 0.0
C500 C 0.6186 0.50186 0.57491 0.0
C501 C 0.64217 0.47754 0.54736 0.0
C502 C 0.60293 0.49248 0.53521 0.0
C503 C 0.57748 0.51561 0.56478 0.0
O504 O 0.5328 0.5708 0.58393 0.0
O505 O 0.51137 0.54769 0.55939 0.0
O506 O 0.5591 0.51398 0.54979 0.0
O507 O 0.57967 0.53675 0.57536 0.0
H508 H 0.52926 0.54244 0.62114 0.0
H509 H 0.50614 0.53051 0.65585 0.0
H510 H 0.44046 0.54623 0.61788 0.0
H511 H 0.46372 0.55873 0.58361 0.0
H512 H 0.51153 0.62362 0.46969 0.0
H513 H 0.52111 0.58809 0.49227 0.0
H514 H 0.57797 0.65696 0.49441 0.0
H515 H 0.58726 0.62173 0.51712 0.0
H516 H 0.62533 0.47117 0.51254 0.0
H517 H 0.65286 0.4876 0.58373 0.0
H518 H 0.6168 0.50996 0.59257 0.0
H519 H 0.58898 0.49339 0.52161 0.0
C520 C 0.50856 0.47782 0.91587 0.0
C521 C 0.50352 0.50203 0.91271 0.0
C522 C 0.48037 0.49199 0.87643 0.0
C523 C 0.48947 0.50901 0.89325 0.0
C524 C 0.48642 0.46794 0.879 0.0
C525 C 0.50029 0.46093 0.8986 0.0
U526 U 0.55986 0.48327 0.96217 0.0
O527 O 0.56004 0.48006 1.0012 0.0
O528 O 0.58078 0.45507 0.97925 0.0
C529 C 0.57269 0.46045 1.00064 0.0
C530 C 0.52145 0.46973 0.93744 0.0
C531 C 0.56296 0.44035 0.01425 0.0
C532 C 0.52933 0.41891 0.03119 0.0
C533 C 0.53823 0.43771 0.01784 0.0
C534 C 0.56968 0.40477 0.03735 0.0
C535 C 0.54489 0.40206 0.04103 0.0
C536 C 0.57861 0.42375 0.02413 0.0
C537 C 0.60679 0.53352 0.95449 0.0
C538 C 0.64124 0.54128 0.98087 0.0
C539 C 0.63707 0.56273 0.94402 0.0
C540 C 0.61549 0.55065 0.93893 0.0
C541 C 0.65041 0.5579 0.96482 0.0
C542 C 0.61958 0.52906 0.97568 0.0
C543 C 0.58493 0.51998 0.94758 0.0
O544 O 0.54266 0.46052 0.93388 0.0
O545 O 0.52083 0.48395 0.95648 0.0
O546 O 0.5667 0.52202 0.96208 0.0
O547 O 0.58824 0.49799 0.93979 0.0
H548 H 0.50992 0.51551 0.92557 0.0
H549 H 0.48526 0.5277 0.89164 0.0
H550 H 0.47947 0.45439 0.86648 0.0
H551 H 0.50401 0.44217 0.90063 0.0
H552 H 0.51019 0.41776 0.03397 0.0
H553 H 0.52573 0.45025 1.01043 0.0
H554 H 0.58219 0.39203 0.04436 0.0
H555 H 0.59776 0.42544 0.02156 0.0
H556 H 0.65121 0.53711 0.99695 0.0
H557 H 0.64353 0.57564 0.93147 0.0
H558 H 0.60578 0.55437 0.92255 0.0
H559 H 0.61309 0.51582 0.98788 0.0
C560 C 0.713 0.27663 0.33974 0.0
C561 C 0.72839 0.26506 0.35558 0.0
C562 C 0.72835 0.29968 0.38304 0.0
C563 C 0.73593 0.27643 0.37703 0.0
C564 C 0.71295 0.31117 0.36701 0.0
C565 C 0.70536 0.29974 0.3456 0.0
U566 U 0.71684 0.22907 0.28903 0.0
O567 O 0.68777 0.20687 0.27263 0.0
O568 O 0.70814 0.23173 0.25073 0.0
C569 C 0.68977 0.21683 0.25173 0.0
C570 C 0.70418 0.26472 0.31742 0.0
C571 C 0.66713 0.22434 0.24033 0.0
C572 C 0.64001 0.25495 0.22662 0.0
C573 C 0.66124 0.2485 0.23835 0.0
C574 C 0.63009 0.21323 0.21912 0.0
C575 C 0.62418 0.23737 0.21683 0.0
C576 C 0.65134 0.20682 0.2307 0.0
C577 C 0.76835 0.18413 0.28804 0.0
C578 C 0.76735 0.14514 0.2679 0.0
C579 C 0.80459 0.16058 0.28534 0.0
C580 C 0.79294 0.18144 0.29264 0.0
C581 C 0.79179 0.1419 0.27341 0.0
C582 C 0.75575 0.16607 0.27508 0.0
C583 C 0.75593 0.20506 0.29822 0.0
O584 O 0.71745 0.26754 0.29844 0.0
O585 O 0.69618 0.24272 0.31946 0.0
O586 O 0.73513 0.2006 0.30805 0.0
O587 O 0.75584 0.22428 0.28527 0.0
H588 H 0.73443 0.24718 0.35144 0.0
H589 H 0.74749 0.26685 0.38904 0.0
H590 H 0.70702 0.32915 0.37081 0.0
H591 H 0.69347 0.30897 0.33359 0.0
H592 H 0.63587 0.27369 0.22541 0.0
H593 H 0.67307 0.26238 0.24576 0.0
H594 H 0.6185 0.19924 0.21155 0.0
H595 H 0.65556 0.18809 0.23193 0.0
H596 H 0.75703 0.13123 0.2585 0.0
H597 H 0.82333 0.1586 0.2901 0.0
H598 H 0.80299 0.19517 0.3026 0.0
H599 H 0.7368 0.16784 0.27115 0.0
C600 C 0.45692 0.10838 0.03152 0.0
C601 C 0.46719 0.12649 0.01796 0.0
C602 C 0.47133 0.15214 0.0536 0.0
C603 C 0.47419 0.14823 0.02888 0.0
C604 C 0.46221 0.13353 0.06733 0.0
C605 C 0.45495 0.11185 0.05633 0.0
U606 U 0.45779 0.06112 0.98143 0.0
O607 O 0.45152 0.02235 0.98164 0.0
O608 O 0.42781 0.04475 0.96038 0.0
C609 C 0.43171 0.02342 0.96867 0.0
C610 C 0.44719 0.08637 0.01986 0.0
C611 C 0.41048 1.0104 0.97752 0.0
C612 C 0.38987 0.98907 1.00871 0.0
C613 C 0.40901 1.00341 1.00141 0.0
C614 C 0.37264 0.98952 0.96876 0.0
C615 C 0.3717 0.98156 0.99236 0.0
C616 C 0.3919 1.0037 0.96141 0.0
C617 C 0.50745 0.0657 0.93477 0.0
C618 C 0.50952 0.04027 0.89908 0.0
C619 C 0.54378 0.06492 0.91133 0.0
C620 C 0.53094 0.07371 0.93086 0.0
C621 C 0.53333 0.0479 0.8953 0.0
C622 C 0.49673 0.04903 0.91868 0.0
C623 C 0.49487 0.07425 0.95618 0.0
O624 O 0.43673 0.08913 0.99892 0.0
O625 O 0.46112 0.06769 0.02041 0.0
O626 O 0.49653 0.06051 0.97477 0.0
O627 O 0.47314 0.08241 0.95272 0.0
H628 H 0.46918 0.1241 0.99882 0.0
H629 H 0.48137 0.16221 0.01792 0.0
H630 H 0.45967 0.13613 0.08637 0.0
H631 H 0.44716 0.09803 0.0671 0.0
H632 H 0.38953 0.9834 0.02707 0.0
H633 H 0.42294 1.00849 0.01432 0.0
H634 H 0.35908 0.98385 0.95568 0.0
H635 H 0.39263 1.00887 0.9429 0.0
H636 H 0.50078 0.02744 0.88693 0.0
H637 H 0.56214 0.07095 0.90921 0.0
H638 H 0.53954 0.0865 0.94319 0.0
H639 H 0.4786 0.0426 0.92144 0.0
Zn640 Zn 0.29233 0.85592 1.0105 0.0
Zn641 Zn 0.25357 0.88161 0.0159 0.0
O642 O 0.25535 0.86131 0.04721 0.0
O643 O 0.28837 0.84084 0.0421 0.0
O644 O 0.22362 0.90211 0.02039 0.0
O645 O 0.31356 0.88469 1.00901 0.0
O646 O 0.28148 0.90691 0.01207 0.0
C647 C 0.27058 0.84628 0.05476 0.0
C648 C 0.25814 0.8461 0.97274 0.0
O649 O 0.24602 0.86151 0.98447 0.0
O650 O 0.27875 0.84049 0.98029 0.0
C651 C 0.2243 0.92129 0.03314 0.0
O652 O 0.24463 0.92778 0.04373 0.0
C653 C 0.30418 0.90507 1.00989 0.0
Zn654 Zn 0.10646 0.4659 0.29207 0.0
Zn655 Zn 0.12971 0.50582 0.28185 0.0
O656 O 0.10784 0.51634 0.3102 0.0
O657 O 0.08797 0.48315 0.31737 0.0
O658 O 0.1501 0.53505 0.27455 0.0
O659 O 0.13668 0.4491 0.30086 0.0
O660 O 0.15619 0.48123 0.28972 0.0
C661 C 0.09208 0.50504 0.32203 0.0
C662 C 0.09806 0.48008 0.24358 0.0
O663 O 0.11117 0.49803 0.25004 0.0
O664 O 0.09383 0.46373 0.25819 0.0
C665 C 0.14398 0.55674 0.27701 0.0
O666 O 0.12243 0.56165 0.2847 0.0
C667 C 0.15629 0.45995 0.29732 0.0
Zn668 Zn 0.79339 0.61142 0.96329 0.0
Zn669 Zn 0.78203 0.63367 1.00383 0.0
O670 O 0.81074 0.61226 0.01377 0.0
O671 O 0.81921 0.59349 0.97997 0.0
O672 O 0.77426 0.65277 0.03406 0.0
O673 O 0.80134 0.64209 0.94733 0.0
O674 O 0.78947 0.66074 0.98004 0.0
C675 C 0.82329 0.59719 1.00208 0.0
C676 C 0.74482 0.60144 0.97729 0.0
O677 O 0.75066 0.61462 0.99545 0.0
O678 O 0.75984 0.59773 0.9609 0.0
C679 C 0.76355 0.64393 0.05177 0.0
O680 O 0.7574 0.62122 0.05089 0.0
C681 C 0.79722 0.66134 0.9587 0.0
Zn682 Zn 0.85047 1.00767 0.2911 0.0
Zn683 Zn 0.8769 0.01322 0.25381 0.0
O684 O 0.85632 0.04461 0.25612 0.0
O685 O 0.83134 0.03664 0.28503 0.0
O686 O 0.89752 0.01807 0.22403 0.0
O687 O 0.87888 1.00973 0.31337 0.0
O688 O 0.902 1.00948 0.28182 0.0
C689 C 0.83845 0.05044 0.26901 0.0
C690 C 0.84327 0.96879 0.25835 0.0
O691 O 0.8573 0.98147 0.24576 0.0
O692 O 0.83813 0.97586 0.27927 0.0
C693 C 0.91622 0.03145 0.2247 0.0
O694 O 0.92235 0.04232 0.24501 0.0
C695 C 0.8996 1.00923 0.30451 0.0
Zn696 Zn 0.28775 0.10868 0.46545 0.0
Zn697 Zn 0.27569 0.13044 0.50588 0.0
O698 O 0.3042 0.10899 0.51624 0.0
O699 O 0.31154 0.08886 0.4829 0.0
O700 O 0.2659 0.14767 0.53655 0.0
O701 O 0.29787 0.13975 0.45126 0.0
O702 O 0.28419 0.15823 0.48334 0.0
C703 C 0.31581 0.09292 0.50491 0.0
C704 C 0.23882 0.09942 0.47688 0.0
O705 O 0.24465 0.11157 0.49574 0.0
O706 O 0.254 0.09629 0.46054 0.0
C707 C 0.27897 0.16376 0.54687 0.0
O708 O 0.29982 0.16921 0.53767 0.0
C709 C 0.29334 0.15894 0.46258 0.0
Zn710 Zn 0.35401 0.51069 0.7987 0.0
Zn711 Zn 0.37841 0.51745 0.76014 0.0
O712 O 0.35819 0.54892 0.7648 0.0
O713 O 0.33769 0.5418 0.79723 0.0
O714 O 0.39772 0.52407 0.72988 0.0
O715 O 0.38338 0.50893 0.81914 0.0
O716 O 0.40496 0.51267 0.78675 0.0
C717 C 0.34309 0.55558 0.78055 0.0
C718 C 0.3433 0.47412 0.76389 0.0
O719 O 0.35818 0.48622 0.75169 0.0
O720 O 0.33845 0.48101 0.78496 0.0
C721 C 0.41626 0.51244 0.72386 0.0
O722 O 0.42334 0.49495 0.73732 0.0
C723 C 0.40362 0.51001 0.80934 0.0
Zn724 Zn 0.79624 0.35564 0.50983 0.0
Zn725 Zn 0.75731 0.38086 0.5153 0.0
O726 O 0.75906 0.35998 0.54627 0.0
O727 O 0.79166 0.33909 0.54052 0.0
O728 O 0.7271 0.40108 0.51996 0.0
O729 O 0.8175 0.3845 0.50963 0.0
O730 O 0.7851 0.40637 0.51166 0.0
C731 C 0.77392 0.34435 0.55332 0.0
C732 C 0.76264 0.3462 0.47159 0.0
O733 O 0.75007 0.36098 0.48366 0.0
O734 O 0.78344 0.34106 0.47898 0.0
C735 C 0.72774 0.42083 0.53179 0.0
O736 O 0.74824 0.42824 0.5414 0.0
C737 C 0.80787 0.40476 0.51011 0.0
Zn738 Zn 0.60654 0.96727 0.78969 0.0
Zn739 Zn 0.6282 1.00815 0.77998 0.0
O740 O 0.60531 0.01675 0.80805 0.0
O741 O 0.58644 0.98292 0.81477 0.0
O742 O 0.64614 0.03936 0.77467 0.0
O743 O 0.63757 0.95225 0.79901 0.0
O744 O 0.65599 0.98496 0.78771 0.0
C745 C 0.58974 1.00489 0.81957 0.0
C746 C 0.59845 0.98152 0.74101 0.0
O747 O 0.61056 1.00006 0.74774 0.0
O748 O 0.59483 0.96489 0.75548 0.0
C749 C 0.66085 0.04164 0.75767 0.0
O750 O 0.66388 0.02355 0.74268 0.0
C751 C 0.6568 0.96378 0.79551 0.0
Zn752 Zn 1.01043 0.29633 0.85733 0.0
Zn753 Zn 0.01305 0.2581 0.88081 0.0
O754 O 0.04496 0.25896 0.86058 0.0
O755 O 0.0382 0.28882 0.83676 0.0
O756 O 0.01586 0.22799 0.90099 0.0
O757 O 0.01482 0.3179 0.88599 0.0
O758 O 1.01001 0.28559 0.90696 0.0
C759 C 0.05127 0.27183 0.84309 0.0
C760 C 0.96919 0.26739 0.84811 0.0
O761 O 0.98131 0.25253 0.86017 0.0
O762 O 0.97735 0.28829 0.8455 0.0
C763 C 0.03575 0.22259 0.91081 0.0
O764 O 0.05456 0.23642 0.9075 0.0
C765 C 0.01219 0.30828 0.90598 0.0
Zn766 Zn 0.51449 0.79476 0.35632 0.0
Zn767 Zn 0.51634 0.75646 0.38168 0.0
O768 O 0.55004 0.75844 0.3646 0.0
O769 O 0.54796 0.79219 0.3454 0.0
O770 O 0.51908 0.72647 0.40215 0.0
O771 O 0.50845 0.81596 0.38452 0.0
O772 O 0.50994 0.78425 0.40688 0.0
C773 C 0.55965 0.77412 0.35135 0.0
C774 C 0.47829 0.76109 0.34107 0.0
O775 O 0.48686 0.74925 0.35841 0.0
O776 O 0.48747 0.78111 0.33621 0.0
C777 C 0.52894 0.72756 0.42288 0.0
O778 O 0.5373 0.74825 0.43109 0.0
C779 C 0.5075 0.80676 0.40488 0.0
Zn780 Zn 0.96614 0.79231 0.60892 0.0
Zn781 Zn 1.00674 0.78268 0.63132 0.0
O782 O 0.01648 0.81033 0.60873 0.0
O783 O 0.983 0.81572 0.58836 0.0
O784 O 0.03699 0.77604 0.65073 0.0
O785 O 0.95041 0.80317 0.63928 0.0
O786 O 0.98276 0.79132 0.65825 0.0
C787 C 1.00489 0.82084 0.59226 0.0
C788 C 0.97981 0.74354 0.60169 0.0
O789 O 0.99845 0.75043 0.61361 0.0
O790 O 0.96302 0.75799 0.59796 0.0
C791 C 0.05386 0.76295 0.64319 0.0
O792 O 0.05228 0.75354 0.62146 0.0
C793 C 0.96158 0.79962 0.65867 0.0
Zn794 Zn 0.46538 0.29361 0.10811 0.0
Zn795 Zn 0.50588 0.28399 0.13135 0.0
O796 O 0.51509 0.31284 0.11004 0.0
O797 O 0.4814 0.31995 0.0907 0.0
O798 O 0.53671 0.27709 0.1496 0.0
O799 O 0.44863 0.30027 0.13917 0.0
O800 O 0.48169 0.29089 0.15849 0.0
C801 C 0.50334 0.32474 0.09472 0.0
C802 C 0.48148 0.24615 0.09783 0.0
O803 O 0.49846 0.25232 0.11235 0.0
O804 O 0.46501 0.26065 0.09309 0.0
C805 C 0.53688 0.26092 0.16515 0.0
O806 O 0.51695 0.24892 0.16896 0.0
C807 C 0.45983 0.29729 0.15868 0.0
C808 C 0.21713 0.82778 0.91997 0.0
C809 C 0.232 0.81246 0.90663 0.0
H810 H 0.21353 0.8504 0.95129 0.0
C811 C 0.25536 0.80859 0.91529 0.0
H812 H 0.19895 0.83103 0.91399 0.0
C813 C 0.26358 0.81946 0.93666 0.0
C814 C 0.24877 0.83471 0.95007 0.0
H815 H 0.26756 0.79738 0.90537 0.0
H816 H 0.28174 0.81598 0.94257 0.0
C817 C 0.22543 0.8388 0.94143 0.0
C818 C 0.06735 0.55219 0.36498 0.0
C819 C 0.05089 0.53859 0.37805 0.0
H820 H 0.09329 0.55241 0.33693 0.0
C821 C 0.04843 0.5141 0.37256 0.0
H822 H 0.06959 0.57114 0.36864 0.0
C823 C 0.06182 0.50347 0.35447 0.0
C824 C 0.07822 0.51697 0.34129 0.0
H825 H 0.03638 0.50293 0.38255 0.0
H826 H 0.05934 0.48453 0.35093 0.0
C827 C 0.08086 0.54148 0.34676 0.0
C828 C 0.78876 0.72536 0.94016 0.0
C829 C 0.80246 0.72611 0.91921 0.0
H830 H 0.77653 0.70438 0.96926 0.0
C831 C 0.81589 0.70599 0.91274 0.0
H832 H 0.77802 0.7404 0.94564 0.0
C833 C 0.81469 0.6853 0.92603 0.0
C834 C 0.80033 0.68424 0.94641 0.0
H835 H 0.82718 0.70606 0.89716 0.0
H836 H 0.8248 0.66996 0.92011 0.0
C837 C 0.78783 0.70468 0.95369 0.0
C838 C 0.95906 0.99 0.33123 0.0
C839 C 0.95676 0.99774 0.35523 0.0
H840 H 0.94299 0.98812 0.29601 0.0
C841 C 0.93662 1.01104 0.36164 0.0
H842 H 0.97447 0.97983 0.32574 0.0
C843 C 0.91865 0.01555 0.3448 0.0
C844 C 0.92047 1.00717 0.321 0.0
H845 H 0.93417 0.01707 0.37998 0.0
H846 H 0.90295 0.02512 0.35061 0.0
C847 C 0.94116 0.9949 0.31419 0.0
C848 C 0.27747 0.2059 0.60116 0.0
C849 C 0.25461 0.20112 0.61037 0.0
H850 H 0.30309 0.19788 0.57409 0.0
C851 C 0.23987 0.1839 0.59844 0.0
H852 H 0.28945 0.21879 0.61001 0.0
C853 C 0.24778 0.17174 0.57794 0.0
C854 C 0.27063 0.17651 0.56876 0.0
H855 H 0.22202 0.17999 0.60476 0.0
H856 H 0.23589 0.15867 0.56921 0.0
C857 C 0.28536 0.19377 0.58061 0.0
C858 C 0.43663 0.54395 0.66787 0.0
C859 C 0.45706 0.53095 0.66132 0.0
H860 H 0.40784 0.54844 0.69251 0.0
C861 C 0.46374 0.51173 0.67554 0.0
H862 H 0.43106 0.5591 0.65765 0.0
C863 C 0.45046 0.50572 0.69566 0.0
C864 C 0.43009 0.51874 0.70221 0.0
H865 H 0.47912 0.50107 0.67097 0.0
H866 H 0.45622 0.49079 0.7061 0.0
C867 C 0.42333 0.53793 0.688 0.0
C868 C 0.74635 0.31649 0.60828 0.0
C869 C 0.76588 0.30366 0.6174 0.0
H870 H 0.73351 0.33981 0.58107 0.0
C871 C 0.78804 0.30556 0.60597 0.0
H872 H 0.72906 0.31556 0.61676 0.0
C873 C 0.79053 0.31928 0.5857 0.0
C874 C 0.77098 0.33168 0.57617 0.0
H875 H 0.80339 0.29573 0.6122 0.0
H876 H 0.80786 0.31982 0.57722 0.0
C877 C 0.74891 0.3305 0.58794 0.0
C878 C 0.57098 0.95295 0.68495 0.0
C879 C 0.56764 0.97252 0.67019 0.0
H880 H 0.58322 0.94049 0.7186 0.0
C881 C 0.57494 0.99536 0.67869 0.0
H882 H 0.56526 0.93519 0.67906 0.0
C883 C 0.5855 0.99846 0.70153 0.0
C884 C 0.58848 0.9788 0.71636 0.0
H885 H 0.57261 1.01076 0.66764 0.0
H886 H 0.59091 0.01621 0.70772 0.0
C887 C 0.58115 0.95605 0.70772 0.0
C888 C 0.91998 0.2331 0.8132 0.0
C889 C 0.90497 0.25191 0.80661 0.0
H890 H 0.95229 0.22308 0.83177 0.0
C891 C 0.9098 0.27483 0.81634 0.0
H892 H 0.91667 0.21521 0.80603 0.0
C893 C 0.92999 0.27928 0.83081 0.0
C894 C 0.94593 0.26094 0.8362 0.0
H895 H 0.89828 0.28959 0.81218 0.0
H896 H 0.9335 0.29741 0.83721 0.0
C897 C 0.94034 0.23758 0.82793 0.0
C898 C 0.50754 0.863 0.44335 0.0
C899 C 0.49342 0.85642 0.46272 0.0
H900 H 0.52295 0.85244 0.4101 0.0
C901 C 0.48523 0.8326 0.4639 0.0
H902 H 0.51391 0.88122 0.44176 0.0
C903 C 0.49072 0.81585 0.44574 0.0
C904 C 0.50398 0.82287 0.42588 0.0
H905 H 0.47435 0.82704 0.47869 0.0
H906 H 0.48379 0.79777 0.44673 0.0
C907 C 0.51259 0.84651 0.42512 0.0
C908 C 0.11737 0.26267 0.83071 0.0
C909 C 0.11878 0.27019 0.8069 0.0
H910 H 0.09467 0.25659 0.86084 0.0
C911 C 0.09744 0.27555 0.79467 0.0
H912 H 0.13348 0.25828 0.84058 0.0
C913 C 0.07547 0.27473 0.80625 0.0
C914 C 0.0741 0.26826 0.83031 0.0
H915 H 0.0978 0.28164 0.77647 0.0
H916 H 0.05954 0.28001 0.79654 0.0
C917 C 0.09517 0.2615 0.84226 0.0
C918 C 0.54474 0.68787 0.4748 0.0
C919 C 0.53875 0.66488 0.46573 0.0
H920 H 0.54633 0.72533 0.46865 0.0
C921 C 0.52859 0.66276 0.44252 0.0
H922 H 0.55215 0.69037 0.49271 0.0
C923 C 0.52506 0.68301 0.42866 0.0
C924 C 0.5316 0.70591 0.43763 0.0
H925 H 0.52394 0.64538 0.43479 0.0
H926 H 0.51757 0.68067 0.41077 0.0
C927 C 0.54126 0.70803 0.46098 0.0
C928 C 0.94194 0.793 0.72281 0.0
C929 C 0.92118 0.807 0.72336 0.0
H930 H 0.97121 0.7799 0.70204 0.0
C931 C 0.91531 0.82019 0.70309 0.0
H932 H 0.94696 0.78241 0.73795 0.0
C933 C 0.92897 0.81839 0.68243 0.0
C934 C 0.94911 0.80367 0.68158 0.0
H935 H 0.89989 0.83169 0.703 0.0
H936 H 0.92347 0.82826 0.66693 0.0
C937 C 0.95585 0.79148 0.70219 0.0
C938 C 0.01487 0.86366 0.5421 0.0
C939 C 0.0353 0.87672 0.55 0.0
H940 H 0.98949 0.83599 0.54909 0.0
C941 C 0.04669 0.8702 0.57149 0.0
H942 H 1.00598 0.86763 0.52536 0.0
C943 C 0.03739 0.85155 0.58503 0.0
C944 C 0.01639 0.83924 0.57746 0.0
H945 H 0.06238 0.87992 0.57824 0.0
H946 H 0.04618 0.8473 0.60174 0.0
C947 C 1.00549 0.84534 0.55568 0.0
C948 C 0.11228 0.73713 0.6658 0.0
C949 C 0.11366 0.74605 0.68954 0.0
H950 H 0.09259 0.73547 0.63267 0.0
C951 C 0.09541 0.76114 0.69771 0.0
H952 H 0.1262 0.72581 0.65872 0.0
C953 C 0.07614 0.76683 0.68265 0.0
C954 C 0.07465 0.75762 0.65902 0.0
H955 H 0.09574 0.76816 0.71592 0.0
H956 H 0.06227 0.77827 0.68963 0.0
C957 C 0.09305 0.74281 0.65077 0.0
C958 C 0.9939 0.6806 0.57943 0.0
C959 C 0.971 0.67218 0.57208 0.0
H960 H 0.01473 0.70976 0.59503 0.0
C961 C 0.9513 0.68722 0.57494 0.0
H962 H 1.00938 0.66934 0.57746 0.0
C963 C 0.95435 0.71018 0.58471 0.0
C964 C 0.97715 0.71874 0.59209 0.0
H965 H 0.9335 0.6814 0.56916 0.0
H966 H 0.93869 0.72127 0.58642 0.0
C967 C 0.99692 0.70364 0.58957 0.0
C968 C 0.82349 0.91673 0.21692 0.0
C969 C 0.81033 0.90243 0.23261 0.0
H970 H 0.84426 0.94892 0.21257 0.0
C971 C 0.80885 0.90995 0.25667 0.0
H972 H 0.8249 0.91158 0.19821 0.0
C973 C 0.81972 0.93128 0.26477 0.0
C974 C 0.83259 0.9458 0.24913 0.0
H975 H 0.79943 0.89923 0.26945 0.0
H976 H 0.81799 0.93634 0.28347 0.0
C977 C 0.83452 0.93818 0.2251 0.0
C978 C 0.82691 0.11648 0.26088 0.0
C979 C 0.8032 0.11831 0.26905 0.0
H980 H 0.85665 0.09342 0.25382 0.0
C981 C 0.79082 0.09733 0.27492 0.0
H982 H 0.8369 0.13231 0.25608 0.0
C983 C 0.8021 0.0753 0.27378 0.0
C984 C 0.82604 0.0735 0.26649 0.0
H985 H 0.77269 0.09803 0.28154 0.0
H986 H 0.79221 0.05966 0.2793 0.0
C987 C 0.83817 0.09423 0.2594 0.0
C988 C 0.32907 0.96551 0.99232 0.0
C989 C 0.35335 0.96354 0.99917 0.0
H990 H 0.2941 0.94872 0.99087 0.0
C991 C 0.36056 0.94315 0.01124 0.0
H992 H 0.32298 0.98108 0.98307 0.0
C993 C 0.34424 0.92471 0.01542 0.0
C994 C 0.32015 0.92625 1.00794 0.0
H995 H 0.37914 0.94093 0.01654 0.0
H996 H 0.35066 0.90891 0.02406 0.0
C997 C 0.31253 0.9471 0.9969 0.0
C998 C 0.22067 0.44012 0.29058 0.0
C999 C 0.22079 0.41917 0.30395 0.0
H1000 H 0.20027 0.46964 0.27816 0.0
C1001 C 0.20008 0.41306 0.3166 0.0
H1002 H 0.23617 0.44532 0.28042 0.0
C1003 C 0.17946 0.42675 0.31495 0.0
C1004 C 0.17906 0.44716 0.30091 0.0
H1005 H 0.19965 0.39746 0.32761 0.0
H1006 H 0.16367 0.42112 0.32446 0.0
C1007 C 0.20006 0.45405 0.2892 0.0
C1008 C 0.1756 0.0768 0.48921 0.0
C1009 C 0.16851 0.06747 0.46657 0.0
H1010 H 0.20333 0.0946 0.51027 0.0
C1011 C 0.18462 0.06887 0.4476 0.0
H1012 H 0.16349 0.07605 0.50414 0.0
C1013 C 0.20727 0.0793 0.45109 0.0
C1014 C 0.21444 0.08878 0.47363 0.0
H1015 H 0.17984 0.06155 0.43003 0.0
H1016 H 0.21918 0.07992 0.43599 0.0
C1017 C 0.19832 0.08753 0.49267 0.0
C1018 C 0.68891 0.10272 0.77163 0.0
C1019 C 0.70539 0.10501 0.753 0.0
H1020 H 0.66183 0.08114 0.78764 0.0
C1021 C 0.70631 0.08671 0.73538 0.0
H1022 H 0.6875 0.1166 0.78533 0.0
C1023 C 0.69157 0.06638 0.73668 0.0
C1024 C 0.67545 0.06386 0.75559 0.0
H1025 H 0.71896 0.08775 0.72093 0.0
H1026 H 0.69311 0.05247 0.72304 0.0
C1027 C 0.67409 0.08243 0.77288 0.0
C1028 C 0.35965 0.0436 0.51642 0.0
C1029 C 0.37229 0.05214 0.53689 0.0
H1030 H 0.33213 0.04968 0.49049 0.0
C1031 C 0.3651 0.07378 0.54779 0.0
H1032 H 0.3641 0.02673 0.50789 0.0
C1033 C 0.34624 0.08685 0.53797 0.0
C1034 C 0.3344 0.07865 0.51693 0.0
H1035 H 0.37449 0.08101 0.56349 0.0
H1036 H 0.34146 0.10369 0.54639 0.0
C1037 C 0.34114 0.05673 0.5065 0.0
C1038 C 0.66276 0.44137 0.52947 0.0
C1039 C 0.66416 0.46328 0.54237 0.0
H1040 H 0.68151 0.41074 0.51608 0.0
C1041 C 0.68675 0.47119 0.55115 0.0
H1042 H 0.64568 0.43454 0.52263 0.0
C1043 C 0.70722 0.45749 0.54754 0.0
C1044 C 0.7058 0.43543 0.53499 0.0
H1045 H 0.68869 0.48811 0.5608 0.0
H1046 H 0.72421 0.46423 0.55471 0.0
C1047 C 0.68331 0.42762 0.52584 0.0
C1048 C 0.72159 0.32661 0.41933 0.0
C1049 C 0.73686 0.31196 0.4057 0.0
H1050 H 0.71759 0.34891 0.4508 0.0
C1051 C 0.76055 0.30911 0.41388 0.0
H1052 H 0.70316 0.32905 0.41372 0.0
C1053 C 0.7687 0.32028 0.43513 0.0
C1054 C 0.75347 0.33479 0.44887 0.0
H1055 H 0.77301 0.29842 0.40371 0.0
H1056 H 0.78711 0.31755 0.44071 0.0
C1057 C 0.72981 0.33792 0.44066 0.0
C1058 C 0.56374 0.05125 0.86243 0.0
C1059 C 0.54755 0.0373 0.87544 0.0
H1060 H 0.58978 0.05211 0.83454 0.0
C1061 C 0.54545 0.01281 0.86977 0.0
H1062 H 0.56566 0.07022 0.86617 0.0
C1063 C 0.55909 1.0025 0.85165 0.0
C1064 C 0.57534 0.01637 0.83867 0.0
H1065 H 0.53356 1.00139 0.87967 0.0
H1066 H 0.55698 0.98355 0.84799 0.0
C1067 C 0.57749 0.04089 0.84424 0.0
C1068 C 0.31561 0.20371 0.41835 0.0
C1069 C 0.30126 0.22358 0.42337 0.0
H1070 H 0.32439 0.1679 0.4268 0.0
C1071 C 0.28584 0.22274 0.44308 0.0
H1072 H 0.32819 0.20387 0.40381 0.0
C1073 C 0.28409 0.20216 0.4567 0.0
C1074 C 0.29747 0.18191 0.45069 0.0
H1075 H 0.27436 0.23757 0.44743 0.0
H1076 H 0.27145 0.20174 0.47119 0.0
C1077 C 0.31358 0.1831 0.43168 0.0
C1078 C 0.46367 0.49022 0.83409 0.0
C1079 C 0.46254 0.49891 0.85791 0.0
H1080 H 0.44608 0.48752 0.79956 0.0
C1081 C 0.44306 0.513 0.86463 0.0
H1082 H 0.47855 0.47937 0.82841 0.0
C1083 C 0.42456 0.51734 0.84836 0.0
C1084 C 0.4252 0.50806 0.82482 0.0
H1085 H 0.4415 0.51974 0.88285 0.0
H1086 H 0.40933 0.5275 0.85444 0.0
C1087 C 0.44524 0.49501 0.81757 0.0
C1088 C 0.75748 0.69804 0.0936 0.0
C1089 C 0.74524 0.68831 0.11296 0.0
H1090 H 0.7728 0.69179 0.05913 0.0
C1091 C 0.73948 0.66379 0.11212 0.0
H1092 H 0.762 0.71688 0.0935 0.0
C1093 C 0.74555 0.64943 0.09237 0.0
C1094 C 0.75759 0.65918 0.07292 0.0
H1095 H 0.73042 0.65557 0.12686 0.0
H1096 H 0.74075 0.63065 0.09238 0.0
C1097 C 0.76357 0.68365 0.07381 0.0
C1098 C 0.96517 0.054 0.18395 0.0
C1099 C 0.95853 0.04369 0.16157 0.0
H1100 H 0.95729 0.05822 0.22111 0.0
C1101 C 0.93803 0.0287 0.16027 0.0
H1102 H 0.98103 0.0653 0.18582 0.0
C1103 C 0.92435 0.02452 0.18069 0.0
C1104 C 0.93086 0.03517 0.20295 0.0
H1105 H 0.9322 0.02061 0.14335 0.0
H1106 H 0.90854 0.01314 0.17895 0.0
C1107 C 0.95156 0.04982 0.20429 0.0
C1108 C 0.24456 0.81385 0.10762 0.0
C1109 C 0.26561 0.80637 0.11939 0.0
H1110 H 0.22948 0.83271 0.07802 0.0
C1111 C 0.28784 0.81449 0.111 0.0
H1112 H 0.22709 0.80793 0.11345 0.0
C1113 C 0.28912 0.82822 0.0906 0.0
C1114 C 0.26824 0.83472 0.07818 0.0
H1115 H 0.30442 0.80987 0.11992 0.0
H1116 H 0.30665 0.83341 0.08423 0.0
C1117 C 0.24586 0.82804 0.08729 0.0
C1118 C 0.06874 0.45255 0.18789 0.0
C1119 C 0.06784 0.47182 0.17242 0.0
H1120 H 0.07881 0.44009 0.22222 0.0
C1121 C 0.07699 0.49417 0.18046 0.0
H1122 H 0.06154 0.4352 0.18234 0.0
C1123 C 0.08714 0.49702 0.2035 0.0
C1124 C 0.0879 0.47764 0.21897 0.0
H1125 H 0.07655 0.50932 0.16885 0.0
H1126 H 0.09416 0.51437 0.20926 0.0
C1127 C 0.07852 0.45543 0.21085 0.0
C1128 C 0.41892 0.73135 0.32171 0.0
C1129 C 0.41571 0.74052 0.29868 0.0
H1130 H 0.44158 0.73014 0.35318 0.0
C1131 C 0.43388 0.75511 0.28952 0.0
H1132 H 0.40527 0.71999 0.32924 0.0
C1133 C 0.45436 0.76096 0.30314 0.0
C1134 C 0.45747 0.75228 0.32632 0.0
H1135 H 0.43194 0.76279 0.27204 0.0
H1136 H 0.46766 0.77272 0.29557 0.0
C1137 C 0.43975 0.737 0.33534 0.0
C1138 C 0.98901 0.33495 0.96404 0.0
C1139 C 0.99901 0.35815 0.96372 0.0
H1140 H 0.98588 0.30055 0.94628 0.0
C1141 C 0.01536 0.36365 0.94576 0.0
H1142 H 0.97648 0.33014 0.97777 0.0
C1143 C 0.02055 0.34688 0.92778 0.0
C1144 C 1.0098 0.32404 0.92745 0.0
H1145 H 0.02322 0.38137 0.94485 0.0
H1146 H 0.0324 0.3521 0.9136 0.0
C1147 C 0.99455 0.31795 0.94617 0.0
C1148 C 0.61501 0.75274 0.31901 0.0
C1149 C 0.62901 0.77389 0.31915 0.0
H1150 H 0.5821 0.73584 0.3299 0.0
C1151 C 0.62095 0.79387 0.33221 0.0
H1152 H 0.62079 0.73703 0.30917 0.0
C1153 C 0.599 0.79319 0.34379 0.0
C1154 C 0.5846 0.77244 0.34299 0.0
H1155 H 0.63102 0.81054 0.33249 0.0
H1156 H 0.59283 0.80929 0.35273 0.0
C1157 C 0.59304 0.75195 0.33105 0.0
C1158 C 0.02045 0.16805 0.94764 0.0
C1159 C 0.04337 0.16033 0.95458 0.0
H1160 H 0.99995 0.19348 0.92812 0.0
C1161 C 0.0635 0.17343 0.94715 0.0
H1162 H 1.00456 0.15832 0.95294 0.0
C1163 C 0.06088 0.19352 0.93308 0.0
C1164 C 0.03805 0.2011 0.92582 0.0
H1165 H 0.08141 0.16825 0.95239 0.0
H1166 H 0.07689 0.20305 0.92779 0.0
C1167 C 0.01782 0.18811 0.93329 0.0
C1168 C 0.41169 0.31413 0.20267 0.0
C1169 C 0.41887 0.30215 0.2233 0.0
H1170 H 0.41895 0.32202 0.16629 0.0
C1171 C 0.4408 0.29001 0.22302 0.0
H1172 H 0.39529 0.32422 0.20235 0.0
C1173 C 0.45471 0.28917 0.20235 0.0
C1174 C 0.44683 0.30024 0.18146 0.0
H1175 H 0.44685 0.2804 0.23847 0.0
H1176 H 0.47112 0.2791 0.20246 0.0
C1177 C 0.42537 0.31303 0.182 0.0
C1178 C 0.51321 0.37073 0.04739 0.0
C1179 C 0.53506 0.38163 0.05463 0.0
H1180 H 0.48627 0.34455 0.05424 0.0
C1181 C 0.54704 0.37301 0.07496 0.0
H1182 H 0.50375 0.37635 0.03152 0.0
C1183 C 0.5371 0.35426 0.08793 0.0
C1184 C 0.51489 0.34393 0.08094 0.0
H1185 H 0.56383 0.38106 0.08118 0.0
H1186 H 0.54653 0.34822 0.10366 0.0
C1187 C 0.50323 0.35231 0.06042 0.0
C1188 C 0.60152 0.2629 0.18798 0.0
C1189 C 0.60168 0.24404 0.20409 0.0
H1190 H 0.58108 0.28294 0.16293 0.0
C1191 C 0.58025 0.23116 0.20755 0.0
H1192 H 0.61776 0.27303 0.18472 0.0
C1193 C 0.55927 0.23679 0.19505 0.0
C1194 C 0.55916 0.25541 0.17868 0.0
H1195 H 0.57963 0.21674 0.22005 0.0
H1196 H 0.54315 0.2264 0.19816 0.0
C1197 C 0.58052 0.26848 0.17538 0.0
C1198 C 0.46548 0.19612 0.05371 0.0
C1199 C 0.47563 0.17625 0.0645 0.0
H1200 H 0.45933 0.23358 0.05585 0.0
C1201 C 0.48871 0.17959 0.08605 0.0
H1202 H 0.45509 0.19405 0.03725 0.0
C1203 C 0.49142 0.20245 0.09666 0.0
C1204 C 0.4806 0.22217 0.08614 0.0
H1205 H 0.49674 0.16454 0.09469 0.0
H1206 H 0.50134 0.20456 0.11338 0.0
C1207 C 0.46778 0.21874 0.06447 0.0
C1208 C 0.32462 0.42158 0.72259 0.0
C1209 C 0.30901 0.40871 0.73731 0.0
H1210 H 0.34768 0.45236 0.71923 0.0
C1211 C 0.30491 0.4177 0.76052 0.0
H1212 H 0.32805 0.4153 0.70451 0.0
C1213 C 0.31596 0.43888 0.76881 0.0
C1214 C 0.33159 0.45179 0.75422 0.0
H1215 H 0.29345 0.40815 0.77258 0.0
H1216 H 0.31231 0.44499 0.78689 0.0
C1217 C 0.33579 0.44289 0.73095 0.0
C1218 C 0.31709 0.61485 0.7612 0.0
C1219 C 0.30989 0.62462 0.78336 0.0
H1220 H 0.33391 0.58542 0.74278 0.0
C1221 C 0.31421 0.61176 0.80413 0.0
H1222 H 0.31399 0.62444 0.74491 0.0
C1223 C 0.32516 0.58963 0.80289 0.0
C1224 C 0.33244 0.57971 0.78088 0.0
H1225 H 0.30866 0.61864 0.82142 0.0
H1226 H 0.32794 0.58023 0.81936 0.0
C1227 C 0.32859 0.59266 0.75999 0.0
C1228 C 0.8638 0.4435 0.51187 0.0
C1229 C 0.85681 0.4632 0.4986 0.0
H1230 H 0.85377 0.40978 0.52591 0.0
C1231 C 0.83272 0.46462 0.4909 0.0
H1232 H 0.88223 0.44172 0.51786 0.0
C1233 C 0.81619 0.44632 0.49583 0.0
C1234 C 0.82364 0.42608 0.50805 0.0
H1235 H 0.8268 0.47967 0.48072 0.0
H1236 H 0.79795 0.44745 0.48909 0.0
C1237 C 0.8475 0.42513 0.51638 0.0
C1238 C 0.70192 0.91897 0.81646 0.0
C1239 C 0.72212 0.92453 0.8028 0.0
H1240 H 0.66563 0.92702 0.82488 0.0
C1241 C 0.72132 0.9447 0.7883 0.0
H1242 H 0.70203 0.90405 0.82836 0.0
C1243 C 0.70048 0.95829 0.78675 0.0
C1244 C 0.67994 0.95179 0.79942 0.0
H1245 H 0.73642 0.94946 0.77737 0.0
H1246 H 0.7001 0.97318 0.77481 0.0
C1247 C 0.68107 0.93228 0.81462 0.0
C1248 C 0.6906 0.56957 0.9496 0.0
C1249 C 0.67452 0.56908 0.96864 0.0
H1250 H 0.72511 0.58002 0.93742 0.0
C1251 C 0.68171 0.57924 0.99091 0.0
H1252 H 0.68572 0.56159 0.93233 0.0
C1253 C 0.70448 0.59003 0.99388 0.0
C1254 C 0.72052 0.59048 0.97471 0.0
H1255 H 0.66963 0.57915 1.00588 0.0
H1256 H 0.70955 0.59784 1.01115 0.0
C1257 C 0.71327 0.58004 0.9526 0.0
C1258 C 0.20092 0.58921 0.259 0.0
C1259 C 0.19516 0.61324 0.26342 0.0
H1260 H 0.18947 0.55266 0.25984 0.0
C1261 C 0.17217 0.61856 0.27188 0.0
H1262 H 0.21855 0.58442 0.25281 0.0
C1263 C 0.15545 0.60028 0.27599 0.0
C1264 C 0.16136 0.57624 0.27187 0.0
H1265 H 0.16706 0.63688 0.27525 0.0
H1266 H 0.13796 0.60502 0.28261 0.0
C1267 C 0.18426 0.57096 0.2632 0.0
C1268 C 0.87458 0.55453 1.01056 0.0
C1269 C 0.8789 0.55602 0.03534 0.0
H1270 H 0.854 0.56625 0.98082 0.0
C1271 C 0.86495 0.57165 0.0493 0.0
H1272 H 0.88526 0.54313 0.99915 0.0
C1273 C 0.84694 0.58524 0.03867 0.0
C1274 C 0.84256 0.58349 0.01387 0.0
H1275 H 0.86771 0.57313 0.06849 0.0
H1276 H 0.83637 0.59694 0.04989 0.0
C1277 C 0.85669 0.56801 1.0 0.0
C1278 C 0.16003 0.94359 0.02925 0.0
C1279 C 0.16135 0.96462 0.04357 0.0
H1280 H 0.17865 0.91335 0.0148 0.0
C1281 C 0.18368 0.9714 0.05384 0.0
H1282 H 0.14312 0.93765 0.02122 0.0
C1283 C 0.20396 0.95742 0.05028 0.0
C1284 C 0.2026 0.93621 0.03631 0.0
H1285 H 0.18556 0.98765 0.06463 0.0
H1286 H 0.22075 0.96328 0.05862 0.0
C1287 C 0.18039 0.92954 0.02569 0.0
loop_
_geom_bond_atom_site_label_1
_geom_bond_atom_site_label_2
_geom_bond_distance
_geom_bond_site_symmetry_2
_ccdc_geom_bond_type
C0 C1 1.264 . S
C0 C5 1.479 . S
C0 C10 1.465 1_655 S
C1 C0 1.264 . S
C1 C3 1.339 . S
C1 H28 0.931 1_645 S
C2 C3 1.395 . S
C2 C4 1.320 . S
C3 C1 1.339 . S
C3 C2 1.395 . S
C3 H29 0.929 1_545 S
C4 C2 1.320 . S
C4 C5 1.405 . S
C4 H30 0.930 . S
C5 C0 1.479 . S
C5 C4 1.405 . S
C5 H31 0.931 . S
U6 O7 2.454 . S
U6 O8 2.458 . S
U6 C9 2.984 . S
U6 C10 2.847 . S
U6 C23 2.882 . S
U6 O24 2.445 1_455 S
U6 O25 2.420 . S
U6 O26 2.455 . S
U6 O27 2.449 1_545 S
O7 U6 2.454 . S
O7 C9 1.353 . S
O8 U6 2.458 . S
O8 C9 1.286 . S
C9 U6 2.984 . S
C9 O7 1.353 . S
C9 O8 1.286 . S
C9 C11 1.363 1_554 S
C10 C0 1.465 1_455 S
C10 U6 2.847 . S
C10 O24 1.249 1_455 S
C10 O25 1.202 . S
C11 C9 1.363 1_556 S
C11 C13 1.408 . S
C11 C16 1.342 . S
C12 C13 1.310 . S
C12 C15 1.461 . S
C12 H32 0.932 1_455 S
C13 C11 1.408 . S
C13 C12 1.310 . S
C13 H33 0.930 1_456 S
C14 C15 1.474 . S
C14 C16 1.285 . S
C14 H34 0.929 . S
C15 C12 1.461 . S
C15 C14 1.474 . S
C16 C11 1.342 . S
C16 C14 1.285 . S
C16 H35 0.930 . S
C17 C20 1.424 . S
C17 C22 1.245 . S
C17 C23 1.428 1_565 S
C18 C21 1.260 . S
C18 C22 1.477 . S
C18 H36 0.932 1_554 S
C19 C20 1.384 . S
C19 C21 1.479 . S
C19 H37 0.929 . S
C20 C17 1.424 . S
C20 C19 1.384 . S
C20 H38 0.928 . S
C21 C18 1.260 . S
C21 C19 1.479 . S
C22 C17 1.245 . S
C22 C18 1.477 . S
C22 H39 0.932 1_564 S
C23 U6 2.882 . S
C23 C17 1.428 1_545 S
C23 O26 1.301 . S
C23 O27 1.282 1_545 S
O24 U6 2.445 1_655 S
O24 C10 1.249 1_655 S
O25 U6 2.420 . S
O25 C10 1.202 . S
O26 U6 2.455 . S
O26 C23 1.301 . S
O27 U6 2.449 1_565 S
O27 C23 1.282 1_565 S
H28 C1 0.931 1_465 S
H29 C3 0.929 1_565 S
H30 C4 0.930 . S
H31 C5 0.931 . S
H32 C12 0.932 1_655 S
H33 C13 0.930 1_654 S
H34 C14 0.929 . S
H35 C16 0.930 . S
H36 C18 0.932 1_556 S
H37 C19 0.929 . S
H38 C20 0.928 . S
H39 C22 0.932 1_546 S
C40 C41 1.264 . S
C40 C45 1.479 . S
C40 C50 1.465 . S
C41 C40 1.264 . S
C41 C43 1.339 . S
C41 H68 0.931 . S
C42 C43 1.395 . S
C42 C44 1.320 . S
C43 C41 1.339 . S
C43 C42 1.395 . S
C43 H69 0.929 . S
C44 C42 1.320 . S
C44 C45 1.405 . S
C44 H70 0.930 . S
C45 C40 1.479 . S
C45 C44 1.405 . S
C45 H71 0.931 . S
U46 O47 2.454 . S
U46 O48 2.458 . S
U46 C49 2.984 . S
U46 C50 2.847 . S
U46 C63 2.882 . S
U46 O64 2.441 . S
U46 O65 2.420 . S
U46 O66 2.455 . S
U46 O67 2.449 . S
O47 U46 2.454 . S
O47 C49 1.353 . S
O48 U46 2.458 . S
O48 C49 1.286 . S
C49 U46 2.984 . S
C49 O47 1.353 . S
C49 O48 1.286 . S
C49 C51 1.363 . S
C50 C40 1.465 . S
C50 U46 2.847 . S
C50 O64 1.249 . S
C50 O65 1.202 . S
C51 C49 1.363 . S
C51 C53 1.408 . S
C51 C56 1.342 . S
C52 C53 1.310 . S
C52 C55 1.461 . S
C52 H72 0.932 . S
C53 C51 1.408 . S
C53 C52 1.310 . S
C53 H73 0.930 . S
C54 C55 1.474 . S
C54 C56 1.285 . S
C54 H74 0.929 . S
C55 C52 1.461 . S
C55 C54 1.474 . S
C56 C51 1.342 . S
C56 C54 1.285 . S
C56 H75 0.930 . S
C57 C60 1.424 . S
C57 C62 1.245 . S
C57 C63 1.428 . S
C58 C61 1.260 . S
C58 C62 1.477 . S
C58 H76 0.932 . S
C59 C60 1.384 . S
C59 C61 1.479 . S
C59 H77 0.929 . S
C60 C57 1.424 . S
C60 C59 1.384 . S
C60 H78 0.928 . S
C61 C58 1.260 . S
C61 C59 1.479 . S
C62 C57 1.245 . S
C62 C58 1.477 . S
C62 H79 0.932 . S
C63 U46 2.882 . S
C63 C57 1.428 . S
C63 O66 1.301 . S
C63 O67 1.282 . S
O64 U46 2.441 . S
O64 C50 1.249 . S
O65 U46 2.420 . S
O65 C50 1.202 . S
O66 U46 2.455 . S
O66 C63 1.301 . S
O67 U46 2.449 . S
O67 C63 1.282 . S
H68 C41 0.931 . S
H69 C43 0.929 . S
H70 C44 0.930 . S
H71 C45 0.931 . S
H72 C52 0.932 . S
H73 C53 0.930 . S
H74 C54 0.929 . S
H75 C56 0.930 . S
H76 C58 0.932 . S
H77 C59 0.929 . S
H78 C60 0.928 . S
H79 C62 0.932 . S
C80 C81 1.269 . S
C80 C85 1.459 1_554 S
C80 C90 1.478 . S
C81 C80 1.269 . S
C81 C83 1.339 1_554 S
C81 H108 0.931 . S
C82 C83 1.395 . S
C82 C84 1.320 . S
C83 C81 1.339 1_556 S
C83 C82 1.395 . S
C83 H109 0.929 1_655 S
C84 C82 1.320 . S
C84 C85 1.405 . S
C84 H110 0.930 . S
C85 C80 1.459 1_556 S
C85 C84 1.405 . S
C85 H111 0.931 . S
U86 O87 2.454 . S
U86 O88 2.458 . S
U86 C89 2.984 . S
U86 C90 2.847 . S
U86 C103 2.882 . S
U86 O104 2.441 . S
U86 O105 2.420 . S
U86 O106 2.455 . S
U86 O107 2.449 . S
O87 U86 2.454 . S
O87 C89 1.353 . S
O88 U86 2.458 . S
O88 C89 1.286 . S
C89 U86 2.984 . S
C89 O87 1.353 . S
C89 O88 1.286 . S
C89 C91 1.363 . S
C90 C80 1.478 . S
C90 U86 2.847 . S
C90 O104 1.249 . S
C90 O105 1.202 . S
C91 C89 1.363 . S
C91 C93 1.408 . S
C91 C96 1.342 . S
C92 C93 1.310 . S
C92 C95 1.461 . S
C92 H112 0.932 . S
C93 C91 1.408 . S
C93 C92 1.310 . S
C93 H113 0.930 . S
C94 C95 1.474 . S
C94 C96 1.285 . S
C94 H114 0.929 . S
C95 C92 1.461 . S
C95 C94 1.474 . S
C96 C91 1.342 . S
C96 C94 1.285 . S
C96 H115 0.930 . S
C97 C100 1.424 . S
C97 C102 1.245 1_455 S
C97 C103 1.428 1_455 S
C98 C101 1.260 . S
C98 C102 1.477 1_455 S
C98 H116 0.932 . S
C99 C100 1.384 . S
C99 C101 1.479 . S
C99 H117 0.929 . S
C100 C97 1.424 . S
C100 C99 1.384 . S
C100 H118 0.928 . S
C101 C98 1.260 . S
C101 C99 1.479 . S
C102 C97 1.245 1_655 S
C102 C98 1.477 1_655 S
C102 H119 0.932 . S
C103 U86 2.882 . S
C103 C97 1.428 1_655 S
C103 O106 1.301 . S
C103 O107 1.282 . S
O104 U86 2.441 . S
O104 C90 1.249 . S
O105 U86 2.420 . S
O105 C90 1.202 . S
O106 U86 2.455 . S
O106 C103 1.301 . S
O107 U86 2.449 . S
O107 C103 1.282 . S
H108 C81 0.931 . S
H109 C83 0.929 1_455 S
H110 C84 0.930 . S
H111 C85 0.931 . S
H112 C92 0.932 . S
H113 C93 0.930 . S
H114 C94 0.929 . S
H115 C96 0.930 . S
H116 C98 0.932 . S
H117 C99 0.929 . S
H118 C100 0.928 . S
H119 C102 0.932 . S
C120 C121 1.264 . S
C120 C125 1.479 . S
C120 C130 1.465 . S
C121 C120 1.264 . S
C121 C123 1.339 . S
C121 H148 0.931 . S
C122 C123 1.395 . S
C122 C124 1.320 . S
C123 C121 1.339 . S
C123 C122 1.395 . S
C123 H149 0.929 . S
C124 C122 1.320 . S
C124 C125 1.405 . S
C124 H150 0.930 . S
C125 C120 1.479 . S
C125 C124 1.405 . S
C125 H151 0.931 . S
U126 O127 2.454 . S
U126 O128 2.458 . S
U126 C129 2.984 . S
U126 C130 2.847 . S
U126 C143 2.882 . S
U126 O144 2.441 . S
U126 O145 2.420 . S
U126 O146 2.455 . S
U126 O147 2.449 . S
O127 U126 2.454 . S
O127 C129 1.353 . S
O128 U126 2.458 . S
O128 C129 1.286 . S
C129 U126 2.984 . S
C129 O127 1.353 . S
C129 O128 1.286 . S
C129 C131 1.363 . S
C130 C120 1.465 . S
C130 U126 2.847 . S
C130 O144 1.249 . S
C130 O145 1.202 . S
C131 C129 1.363 . S
C131 C133 1.408 . S
C131 C136 1.342 . S
C132 C133 1.310 . S
C132 C135 1.461 . S
C132 H152 0.932 . S
C133 C131 1.408 . S
C133 C132 1.310 . S
C133 H153 0.930 . S
C134 C135 1.474 . S
C134 C136 1.285 . S
C134 H154 0.929 . S
C135 C132 1.461 . S
C135 C134 1.474 . S
C136 C131 1.342 . S
C136 C134 1.285 . S
C136 H155 0.930 . S
C137 C140 1.424 . S
C137 C142 1.245 . S
C137 C143 1.428 . S
C138 C141 1.260 . S
C138 C142 1.477 . S
C138 H156 0.932 . S
C139 C140 1.384 . S
C139 C141 1.479 . S
C139 H157 0.929 . S
C140 C137 1.424 . S
C140 C139 1.384 . S
C140 H158 0.928 . S
C141 C138 1.260 . S
C141 C139 1.479 . S
C142 C137 1.245 . S
C142 C138 1.477 . S
C142 H159 0.932 . S
C143 U126 2.882 . S
C143 C137 1.428 . S
C143 O146 1.301 . S
C143 O147 1.282 . S
O144 U126 2.441 . S
O144 C130 1.249 . S
O145 U126 2.420 . S
O145 C130 1.202 . S
O146 U126 2.455 . S
O146 C143 1.301 . S
O147 U126 2.449 . S
O147 C143 1.282 . S
H148 C121 0.931 . S
H149 C123 0.929 . S
H150 C124 0.930 . S
H151 C125 0.931 . S
H152 C132 0.932 . S
H153 C133 0.930 . S
H154 C134 0.929 . S
H155 C136 0.930 . S
H156 C138 0.932 . S
H157 C139 0.929 . S
H158 C140 0.928 . S
H159 C142 0.932 . S
C160 C161 1.264 . S
C160 C165 1.479 1_455 S
C160 C170 1.465 . S
C161 C160 1.264 . S
C161 C163 1.339 1_455 S
C161 H188 0.931 . S
C162 C163 1.395 . S
C162 C164 1.320 . S
C163 C161 1.339 1_655 S
C163 C162 1.395 . S
C163 H189 0.917 1_565 S
C164 C162 1.320 . S
C164 C165 1.405 . S
C164 H190 0.930 . S
C165 C160 1.479 1_655 S
C165 C164 1.405 . S
C165 H191 0.931 . S
U166 O167 2.454 . S
U166 O168 2.458 . S
U166 C169 2.984 . S
U166 C170 2.847 . S
U166 C183 2.882 . S
U166 O184 2.441 . S
U166 O185 2.420 . S
U166 O186 2.455 . S
U166 O187 2.449 . S
O167 U166 2.454 . S
O167 C169 1.353 . S
O168 U166 2.458 . S
O168 C169 1.286 . S
C169 U166 2.984 . S
C169 O167 1.353 . S
C169 O168 1.286 . S
C169 C171 1.363 . S
C170 C160 1.465 . S
C170 U166 2.847 . S
C170 O184 1.249 . S
C170 O185 1.202 . S
C171 C169 1.363 . S
C171 C173 1.408 . S
C171 C176 1.342 . S
C172 C173 1.310 . S
C172 C175 1.461 . S
C172 H192 0.932 . S
C173 C171 1.408 . S
C173 C172 1.310 . S
C173 H193 0.930 . S
C174 C175 1.474 . S
C174 C176 1.285 . S
C174 H194 0.929 . S
C175 C172 1.461 . S
C175 C174 1.474 . S
C176 C171 1.342 . S
C176 C174 1.285 . S
C176 H195 0.930 . S
C177 C180 1.424 . S
C177 C182 1.245 1_545 S
C177 C183 1.428 1_545 S
C178 C181 1.260 . S
C178 C182 1.477 1_545 S
C178 H196 0.932 . S
C179 C180 1.384 . S
C179 C181 1.479 . S
C179 H197 0.929 . S
C180 C177 1.424 . S
C180 C179 1.384 . S
C180 H198 0.928 . S
C181 C178 1.260 . S
C181 C179 1.479 . S
C182 C177 1.245 1_565 S
C182 C178 1.477 1_565 S
C182 H199 0.932 . S
C183 U166 2.882 . S
C183 C177 1.428 1_565 S
C183 O186 1.301 . S
C183 O187 1.282 . S
O184 U166 2.441 . S
O184 C170 1.249 . S
O185 U166 2.420 . S
O185 C170 1.202 . S
O186 U166 2.455 . S
O186 C183 1.301 . S
O187 U166 2.449 . S
O187 C183 1.282 . S
H188 C161 0.931 . S
H189 C163 0.917 1_545 S
H190 C164 0.930 . S
H191 C165 0.931 . S
H192 C172 0.932 . S
H193 C173 0.930 . S
H194 C174 0.929 . S
H195 C176 0.930 . S
H196 C178 0.932 . S
H197 C179 0.929 . S
H198 C180 0.928 . S
H199 C182 0.932 . S
C200 C201 1.264 . S
C200 C205 1.479 . S
C200 C210 1.465 . S
C201 C200 1.264 . S
C201 C203 1.339 . S
C201 H228 0.931 . S
C202 C203 1.395 . S
C202 C204 1.320 . S
C203 C201 1.339 . S
C203 C202 1.395 . S
C203 H229 0.929 . S
C204 C202 1.320 . S
C204 C205 1.405 . S
C204 H230 0.930 . S
C205 C200 1.479 . S
C205 C204 1.405 . S
C205 H231 0.931 . S
U206 O207 2.454 . S
U206 O208 2.458 . S
U206 C209 2.984 . S
U206 C210 2.847 . S
U206 C223 2.882 . S
U206 O224 2.441 . S
U206 O225 2.420 . S
U206 O226 2.455 . S
U206 O227 2.449 . S
O207 U206 2.454 . S
O207 C209 1.353 . S
O208 U206 2.458 . S
O208 C209 1.286 . S
C209 U206 2.984 . S
C209 O207 1.353 . S
C209 O208 1.286 . S
C209 C211 1.363 . S
C210 C200 1.465 . S
C210 U206 2.847 . S
C210 O224 1.249 . S
C210 O225 1.202 . S
C211 C209 1.363 . S
C211 C213 1.408 . S
C211 C216 1.342 . S
C212 C213 1.310 . S
C212 C215 1.461 . S
C212 H232 0.932 . S
C213 C211 1.408 . S
C213 C212 1.310 . S
C213 H233 0.930 . S
C214 C215 1.474 . S
C214 C216 1.285 . S
C214 H234 0.929 . S
C215 C212 1.461 . S
C215 C214 1.474 . S
C216 C211 1.342 . S
C216 C214 1.285 . S
C216 H235 0.930 . S
C217 C220 1.424 . S
C217 C222 1.245 . S
C217 C223 1.428 . S
C218 C221 1.260 . S
C218 C222 1.477 . S
C218 H236 0.932 . S
C219 C220 1.384 . S
C219 C221 1.479 . S
C219 H237 0.929 . S
C220 C217 1.424 . S
C220 C219 1.384 . S
C220 H238 0.928 . S
C221 C218 1.260 . S
C221 C219 1.479 . S
C222 C217 1.245 . S
C222 C218 1.477 . S
C222 H239 0.932 . S
C223 U206 2.882 . S
C223 C217 1.428 . S
C223 O226 1.301 . S
C223 O227 1.282 . S
O224 U206 2.441 . S
O224 C210 1.249 . S
O225 U206 2.420 . S
O225 C210 1.202 . S
O226 U206 2.455 . S
O226 C223 1.301 . S
O227 U206 2.449 . S
O227 C223 1.282 . S
H228 C201 0.931 . S
H229 C203 0.929 . S
H230 C204 0.930 . S
H231 C205 0.931 . S
H232 C212 0.932 . S
H233 C213 0.930 . S
H234 C214 0.929 . S
H235 C216 0.930 . S
H236 C218 0.932 . S
H237 C219 0.929 . S
H238 C220 0.928 . S
H239 C222 0.932 . S
C240 C241 1.264 . S
C240 C245 1.479 . S
C240 C250 1.465 . S
C241 C240 1.264 . S
C241 C243 1.339 . S
C241 H268 0.931 1_655 S
C242 C243 1.395 . S
C242 C244 1.320 . S
C243 C241 1.339 . S
C243 C242 1.395 . S
C243 H269 0.929 1_655 S
C244 C242 1.320 . S
C244 C245 1.405 . S
C244 H270 0.930 . S
C245 C240 1.479 . S
C245 C244 1.405 . S
C245 H271 0.931 . S
U246 O247 2.454 . S
U246 O248 2.458 . S
U246 C249 2.984 . S
U246 C250 2.847 . S
U246 C263 2.882 . S
U246 O264 2.441 . S
U246 O265 2.420 . S
U246 O266 2.455 . S
U246 O267 2.415 1_655 S
O247 U246 2.454 . S
O247 C249 1.353 . S
O248 U246 2.458 . S
O248 C249 1.286 . S
C249 U246 2.984 . S
C249 O247 1.353 . S
C249 O248 1.286 . S
C249 C251 1.363 . S
C250 C240 1.465 . S
C250 U246 2.847 . S
C250 O264 1.249 . S
C250 O265 1.202 . S
C251 C249 1.363 . S
C251 C253 1.408 . S
C251 C256 1.342 . S
C252 C253 1.310 . S
C252 C255 1.461 . S
C252 H272 0.932 . S
C253 C251 1.408 . S
C253 C252 1.310 . S
C253 H273 0.930 . S
C254 C255 1.474 . S
C254 C256 1.285 . S
C254 H274 0.929 . S
C255 C252 1.461 . S
C255 C254 1.474 . S
C256 C251 1.342 . S
C256 C254 1.285 . S
C256 H275 0.930 . S
C257 C260 1.424 . S
C257 C262 1.245 . S
C257 C263 1.428 1_455 S
C258 C261 1.260 . S
C258 C262 1.477 . S
C258 H276 0.932 . S
C259 C260 1.384 . S
C259 C261 1.479 . S
C259 H277 0.929 . S
C260 C257 1.424 . S
C260 C259 1.384 . S
C260 H278 0.928 . S
C261 C258 1.260 . S
C261 C259 1.479 . S
C262 C257 1.245 . S
C262 C258 1.477 . S
C262 H279 0.932 1_455 S
C263 U246 2.882 . S
C263 C257 1.428 1_655 S
C263 O266 1.301 . S
C263 O267 1.275 1_655 S
O264 U246 2.441 . S
O264 C250 1.249 . S
O265 U246 2.420 . S
O265 C250 1.202 . S
O266 U246 2.455 . S
O266 C263 1.301 . S
O267 U246 2.415 1_455 S
O267 C263 1.275 1_455 S
H268 C241 0.931 1_455 S
H269 C243 0.929 1_455 S
H270 C244 0.930 . S
H271 C245 0.931 . S
H272 C252 0.932 . S
H273 C253 0.930 . S
H274 C254 0.929 . S
H275 C256 0.930 . S
H276 C258 0.932 . S
H277 C259 0.929 . S
H278 C260 0.928 . S
H279 C262 0.932 1_655 S
C280 C281 1.264 . S
C280 C285 1.479 . S
C280 C290 1.465 . S
C281 C280 1.264 . S
C281 C283 1.339 . S
C281 H308 0.931 . S
C282 C283 1.395 . S
C282 C284 1.320 . S
C283 C281 1.339 . S
C283 C282 1.395 . S
C283 H309 0.929 . S
C284 C282 1.320 . S
C284 C285 1.405 . S
C284 H310 0.930 . S
C285 C280 1.479 . S
C285 C284 1.405 . S
C285 H311 0.931 . S
U286 O287 2.454 . S
U286 O288 2.458 . S
U286 C289 2.984 . S
U286 C290 2.847 . S
U286 C303 2.882 . S
U286 O304 2.441 . S
U286 O305 2.420 . S
U286 O306 2.455 . S
U286 O307 2.449 . S
O287 U286 2.454 . S
O287 C289 1.353 . S
O288 U286 2.458 . S
O288 C289 1.286 . S
C289 U286 2.984 . S
C289 O287 1.353 . S
C289 O288 1.286 . S
C289 C291 1.363 . S
C290 C280 1.465 . S
C290 U286 2.847 . S
C290 O304 1.249 . S
C290 O305 1.202 . S
C291 C289 1.363 . S
C291 C293 1.408 . S
C291 C296 1.342 . S
C292 C293 1.310 . S
C292 C295 1.461 . S
C292 H312 0.932 . S
C293 C291 1.408 . S
C293 C292 1.310 . S
C293 H313 0.930 . S
C294 C295 1.474 . S
C294 C296 1.285 . S
C294 H314 0.929 . S
C295 C292 1.461 . S
C295 C294 1.474 . S
C296 C291 1.342 . S
C296 C294 1.285 . S
C296 H315 0.930 . S
C297 C300 1.424 . S
C297 C302 1.245 . S
C297 C303 1.428 . S
C298 C301 1.260 . S
C298 C302 1.477 . S
C298 H316 0.932 . S
C299 C300 1.384 . S
C299 C301 1.479 . S
C299 H317 0.929 . S
C300 C297 1.424 . S
C300 C299 1.384 . S
C300 H318 0.928 . S
C301 C298 1.260 . S
C301 C299 1.479 . S
C302 C297 1.245 . S
C302 C298 1.477 . S
C302 H319 0.932 . S
C303 U286 2.882 . S
C303 C297 1.428 . S
C303 O306 1.301 . S
C303 O307 1.282 . S
O304 U286 2.441 . S
O304 C290 1.249 . S
O305 U286 2.420 . S
O305 C290 1.202 . S
O306 U286 2.455 . S
O306 C303 1.301 . S
O307 U286 2.449 . S
O307 C303 1.282 . S
H308 C281 0.931 . S
H309 C283 0.929 . S
H310 C284 0.930 . S
H311 C285 0.931 . S
H312 C292 0.932 . S
H313 C293 0.930 . S
H314 C294 0.929 . S
H315 C296 0.930 . S
H316 C298 0.932 . S
H317 C299 0.929 . S
H318 C300 0.928 . S
H319 C302 0.932 . S
C320 C321 1.264 . S
C320 C325 1.479 . S
C320 C330 1.465 . S
C321 C320 1.264 . S
C321 C323 1.339 . S
C321 H348 0.931 . S
C322 C323 1.395 . S
C322 C324 1.320 . S
C323 C321 1.339 . S
C323 C322 1.395 . S
C323 H349 0.929 . S
C324 C322 1.320 . S
C324 C325 1.405 . S
C324 H350 0.930 . S
C325 C320 1.479 . S
C325 C324 1.405 . S
C325 H351 0.931 . S
U326 O327 2.454 . S
U326 O328 2.458 . S
U326 C329 2.984 . S
U326 C330 2.847 . S
U326 C343 2.882 . S
U326 O344 2.441 . S
U326 O345 2.420 . S
U326 O346 2.455 . S
U326 O347 2.449 . S
O327 U326 2.454 . S
O327 C329 1.353 . S
O328 U326 2.458 . S
O328 C329 1.286 . S
C329 U326 2.984 . S
C329 O327 1.353 . S
C329 O328 1.286 . S
C329 C331 1.363 . S
C330 C320 1.465 . S
C330 U326 2.847 . S
C330 O344 1.249 . S
C330 O345 1.202 . S
C331 C329 1.363 . S
C331 C333 1.408 . S
C331 C336 1.342 . S
C332 C333 1.310 . S
C332 C335 1.461 . S
C332 H352 0.932 . S
C333 C331 1.408 . S
C333 C332 1.310 . S
C333 H353 0.930 . S
C334 C335 1.474 . S
C334 C336 1.285 . S
C334 H354 0.929 . S
C335 C332 1.461 . S
C335 C334 1.474 . S
C336 C331 1.342 . S
C336 C334 1.285 . S
C336 H355 0.930 . S
C337 C340 1.424 . S
C337 C342 1.245 . S
C337 C343 1.428 . S
C338 C341 1.260 . S
C338 C342 1.477 . S
C338 H356 0.932 . S
C339 C340 1.384 . S
C339 C341 1.479 . S
C339 H357 0.929 . S
C340 C337 1.424 . S
C340 C339 1.384 . S
C340 H358 0.928 . S
C341 C338 1.260 . S
C341 C339 1.479 . S
C342 C337 1.245 . S
C342 C338 1.477 . S
C342 H359 0.932 . S
C343 U326 2.882 . S
C343 C337 1.428 . S
C343 O346 1.301 . S
C343 O347 1.282 . S
O344 U326 2.441 . S
O344 C330 1.249 . S
O345 U326 2.420 . S
O345 C330 1.202 . S
O346 U326 2.455 . S
O346 C343 1.301 . S
O347 U326 2.449 . S
O347 C343 1.282 . S
H348 C321 0.931 . S
H349 C323 0.929 . S
H350 C324 0.930 . S
H351 C325 0.931 . S
H352 C332 0.932 . S
H353 C333 0.930 . S
H354 C334 0.929 . S
H355 C336 0.930 . S
H356 C338 0.932 . S
H357 C339 0.929 . S
H358 C340 0.928 . S
H359 C342 0.932 . S
C360 C361 1.264 . S
C360 C365 1.479 . S
C360 C370 1.465 . S
C361 C360 1.264 . S
C361 C363 1.339 . S
C361 H388 0.931 . S
C362 C363 1.395 . S
C362 C364 1.320 . S
C363 C361 1.339 . S
C363 C362 1.395 . S
C363 H389 0.929 . S
C364 C362 1.320 . S
C364 C365 1.405 . S
C364 H390 0.930 . S
C365 C360 1.479 . S
C365 C364 1.405 . S
C365 H391 0.931 . S
U366 O367 2.454 . S
U366 O368 2.458 . S
U366 C369 2.984 . S
U366 C370 2.847 . S
U366 C383 2.882 . S
U366 O384 2.441 . S
U366 O385 2.420 . S
U366 O386 2.455 . S
U366 O387 2.449 . S
O367 U366 2.454 . S
O367 C369 1.353 . S
O368 U366 2.458 . S
O368 C369 1.286 . S
C369 U366 2.984 . S
C369 O367 1.353 . S
C369 O368 1.286 . S
C369 C371 1.363 1_565 S
C370 C360 1.465 . S
C370 U366 2.847 . S
C370 O384 1.249 . S
C370 O385 1.202 . S
C371 C369 1.363 1_545 S
C371 C373 1.408 . S
C371 C376 1.342 . S
C372 C373 1.310 . S
C372 C375 1.461 . S
C372 H392 0.932 . S
C373 C371 1.408 . S
C373 C372 1.310 . S
C373 H393 0.930 1_545 S
C374 C375 1.474 . S
C374 C376 1.285 . S
C374 H394 0.929 . S
C375 C372 1.461 . S
C375 C374 1.474 . S
C376 C371 1.342 . S
C376 C374 1.285 . S
C376 H395 0.930 . S
C377 C380 1.424 . S
C377 C382 1.245 . S
C377 C383 1.428 . S
C378 C381 1.260 . S
C378 C382 1.477 . S
C378 H396 0.932 1_565 S
C379 C380 1.384 . S
C379 C381 1.479 . S
C379 H397 0.929 . S
C380 C377 1.424 . S
C380 C379 1.384 . S
C380 H398 0.928 . S
C381 C378 1.260 . S
C381 C379 1.479 . S
C382 C377 1.245 . S
C382 C378 1.477 . S
C382 H399 0.932 1_565 S
C383 U366 2.882 . S
C383 C377 1.428 . S
C383 O386 1.301 . S
C383 O387 1.282 . S
O384 U366 2.441 . S
O384 C370 1.249 . S
O385 U366 2.420 . S
O385 C370 1.202 . S
O386 U366 2.455 . S
O386 C383 1.301 . S
O387 U366 2.449 . S
O387 C383 1.282 . S
H388 C361 0.931 . S
H389 C363 0.929 . S
H390 C364 0.930 . S
H391 C365 0.931 . S
H392 C372 0.932 . S
H393 C373 0.930 1_565 S
H394 C374 0.929 . S
H395 C376 0.930 . S
H396 C378 0.932 1_545 S
H397 C379 0.929 . S
H398 C380 0.928 . S
H399 C382 0.932 1_545 S
C400 C401 1.264 . S
C400 C405 1.479 . S
C400 C410 1.465 . S
C401 C400 1.264 . S
C401 C403 1.339 . S
C401 H428 0.931 . S
C402 C403 1.395 . S
C402 C404 1.320 . S
C403 C401 1.339 . S
C403 C402 1.395 . S
C403 H429 0.929 . S
C404 C402 1.320 . S
C404 C405 1.405 . S
C404 H430 0.930 . S
C405 C400 1.479 . S
C405 C404 1.405 . S
C405 H431 0.931 . S
U406 O407 2.454 . S
U406 O408 2.458 . S
U406 C409 2.984 . S
U406 C410 2.847 . S
U406 C423 2.882 . S
U406 O424 2.441 . S
U406 O425 2.420 . S
U406 O426 2.455 . S
U406 O427 2.449 . S
O407 U406 2.454 . S
O407 C409 1.353 . S
O408 U406 2.458 . S
O408 C409 1.286 . S
C409 U406 2.984 . S
C409 O407 1.353 . S
C409 O408 1.286 . S
C409 C411 1.363 . S
C410 C400 1.465 . S
C410 U406 2.847 . S
C410 O424 1.249 . S
C410 O425 1.202 . S
C411 C409 1.363 . S
C411 C413 1.408 . S
C411 C416 1.342 . S
C412 C413 1.310 . S
C412 C415 1.461 . S
C412 H432 0.932 . S
C413 C411 1.408 . S
C413 C412 1.310 . S
C413 H433 0.930 . S
C414 C415 1.474 . S
C414 C416 1.285 . S
C414 H434 0.929 . S
C415 C412 1.461 . S
C415 C414 1.474 . S
C416 C411 1.342 . S
C416 C414 1.285 . S
C416 H435 0.930 . S
C417 C420 1.424 . S
C417 C422 1.245 . S
C417 C423 1.428 . S
C418 C421 1.260 . S
C418 C422 1.477 . S
C418 H436 0.932 . S
C419 C420 1.384 . S
C419 C421 1.479 . S
C419 H437 0.929 . S
C420 C417 1.424 . S
C420 C419 1.384 . S
C420 H438 0.928 . S
C421 C418 1.260 . S
C421 C419 1.479 . S
C422 C417 1.245 . S
C422 C418 1.477 . S
C422 H439 0.932 . S
C423 U406 2.882 . S
C423 C417 1.428 . S
C423 O426 1.301 . S
C423 O427 1.282 . S
O424 U406 2.441 . S
O424 C410 1.249 . S
O425 U406 2.420 . S
O425 C410 1.202 . S
O426 U406 2.455 . S
O426 C423 1.301 . S
O427 U406 2.449 . S
O427 C423 1.282 . S
H428 C401 0.931 . S
H429 C403 0.929 . S
H430 C404 0.930 . S
H431 C405 0.931 . S
H432 C412 0.932 . S
H433 C413 0.930 . S
H434 C414 0.929 . S
H435 C416 0.930 . S
H436 C418 0.932 . S
H437 C419 0.929 . S
H438 C420 0.928 . S
H439 C422 0.932 . S
C440 C441 1.264 . S
C440 C445 1.479 . S
C440 C450 1.465 . S
C441 C440 1.264 . S
C441 C443 1.339 . S
C441 H468 0.931 . S
C442 C443 1.395 . S
C442 C444 1.320 . S
C443 C441 1.339 . S
C443 C442 1.395 . S
C443 H469 0.929 . S
C444 C442 1.320 . S
C444 C445 1.405 . S
C444 H470 0.930 . S
C445 C440 1.479 . S
C445 C444 1.405 . S
C445 H471 0.931 . S
U446 O447 2.454 . S
U446 O448 2.458 . S
U446 C449 2.984 . S
U446 C450 2.847 . S
U446 C463 2.882 . S
U446 O464 2.441 . S
U446 O465 2.420 . S
U446 O466 2.455 . S
U446 O467 2.449 . S
O447 U446 2.454 . S
O447 C449 1.353 . S
O448 U446 2.458 . S
O448 C449 1.286 . S
C449 U446 2.984 . S
C449 O447 1.353 . S
C449 O448 1.286 . S
C449 C451 1.363 . S
C450 C440 1.465 . S
C450 U446 2.847 . S
C450 O464 1.249 . S
C450 O465 1.202 . S
C451 C449 1.363 . S
C451 C453 1.408 . S
C451 C456 1.342 . S
C452 C453 1.310 . S
C452 C455 1.461 . S
C452 H472 0.932 . S
C453 C451 1.408 . S
C453 C452 1.310 . S
C453 H473 0.930 . S
C454 C455 1.474 . S
C454 C456 1.285 . S
C454 H474 0.929 . S
C455 C452 1.461 . S
C455 C454 1.474 . S
C456 C451 1.342 . S
C456 C454 1.285 . S
C456 H475 0.930 . S
C457 C460 1.424 . S
C457 C462 1.245 . S
C457 C463 1.428 . S
C458 C461 1.260 . S
C458 C462 1.477 . S
C458 H476 0.932 . S
C459 C460 1.384 . S
C459 C461 1.479 . S
C459 H477 0.929 . S
C460 C457 1.424 . S
C460 C459 1.384 . S
C460 H478 0.928 . S
C461 C458 1.260 . S
C461 C459 1.479 . S
C462 C457 1.245 . S
C462 C458 1.477 . S
C462 H479 0.932 . S
C463 U446 2.882 . S
C463 C457 1.428 . S
C463 O466 1.301 . S
C463 O467 1.282 . S
O464 U446 2.441 . S
O464 C450 1.249 . S
O465 U446 2.420 . S
O465 C450 1.202 . S
O466 U446 2.455 . S
O466 C463 1.301 . S
O467 U446 2.449 . S
O467 C463 1.282 . S
H468 C441 0.931 . S
H469 C443 0.929 . S
H470 C444 0.930 . S
H471 C445 0.931 . S
H472 C452 0.932 . S
H473 C453 0.930 . S
H474 C454 0.929 . S
H475 C456 0.930 . S
H476 C458 0.932 . S
H477 C459 0.929 . S
H478 C460 0.928 . S
H479 C462 0.932 . S
C480 C481 1.264 . S
C480 C485 1.479 . S
C480 C490 1.465 . S
C481 C480 1.264 . S
C481 C483 1.339 . S
C481 H508 0.931 . S
C482 C483 1.395 . S
C482 C484 1.320 . S
C483 C481 1.339 . S
C483 C482 1.395 . S
C483 H509 0.929 . S
C484 C482 1.320 . S
C484 C485 1.405 . S
C484 H510 0.930 . S
C485 C480 1.479 . S
C485 C484 1.405 . S
C485 H511 0.931 . S
U486 O487 2.454 . S
U486 O488 2.458 . S
U486 C489 2.984 . S
U486 C490 2.847 . S
U486 C503 2.882 . S
U486 O504 2.441 . S
U486 O505 2.420 . S
U486 O506 2.455 . S
U486 O507 2.449 . S
O487 U486 2.454 . S
O487 C489 1.353 . S
O488 U486 2.458 . S
O488 C489 1.286 . S
C489 U486 2.984 . S
C489 O487 1.353 . S
C489 O488 1.286 . S
C489 C491 1.363 . S
C490 C480 1.465 . S
C490 U486 2.847 . S
C490 O504 1.249 . S
C490 O505 1.202 . S
C491 C489 1.363 . S
C491 C493 1.408 . S
C491 C496 1.342 . S
C492 C493 1.310 . S
C492 C495 1.461 . S
C492 H512 0.932 . S
C493 C491 1.408 . S
C493 C492 1.310 . S
C493 H513 0.930 . S
C494 C495 1.474 . S
C494 C496 1.285 . S
C494 H514 0.929 . S
C495 C492 1.461 . S
C495 C494 1.474 . S
C496 C491 1.342 . S
C496 C494 1.285 . S
C496 H515 0.930 . S
C497 C500 1.424 . S
C497 C502 1.245 . S
C497 C503 1.428 . S
C498 C501 1.260 . S
C498 C502 1.477 . S
C498 H516 0.932 . S
C499 C500 1.384 . S
C499 C501 1.479 . S
C499 H517 0.929 . S
C500 C497 1.424 . S
C500 C499 1.384 . S
C500 H518 0.928 . S
C501 C498 1.260 . S
C501 C499 1.479 . S
C502 C497 1.245 . S
C502 C498 1.477 . S
C502 H519 0.932 . S
C503 U486 2.882 . S
C503 C497 1.428 . S
C503 O506 1.301 . S
C503 O507 1.282 . S
O504 U486 2.441 . S
O504 C490 1.249 . S
O505 U486 2.420 . S
O505 C490 1.202 . S
O506 U486 2.455 . S
O506 C503 1.301 . S
O507 U486 2.449 . S
O507 C503 1.282 . S
H508 C481 0.931 . S
H509 C483 0.929 . S
H510 C484 0.930 . S
H511 C485 0.931 . S
H512 C492 0.932 . S
H513 C493 0.930 . S
H514 C494 0.929 . S
H515 C496 0.930 . S
H516 C498 0.932 . S
H517 C499 0.929 . S
H518 C500 0.928 . S
H519 C502 0.932 . S
C520 C521 1.264 . S
C520 C525 1.479 . S
C520 C530 1.465 . S
C521 C520 1.264 . S
C521 C523 1.339 . S
C521 H548 0.931 . S
C522 C523 1.395 . S
C522 C524 1.320 . S
C523 C521 1.339 . S
C523 C522 1.395 . S
C523 H549 0.929 . S
C524 C522 1.320 . S
C524 C525 1.405 . S
C524 H550 0.930 . S
C525 C520 1.479 . S
C525 C524 1.405 . S
C525 H551 0.931 . S
U526 O527 2.454 . S
U526 O528 2.458 . S
U526 C529 2.984 . S
U526 C530 2.847 . S
U526 C543 2.882 . S
U526 O544 2.441 . S
U526 O545 2.420 . S
U526 O546 2.455 . S
U526 O547 2.449 . S
O527 U526 2.454 . S
O527 C529 1.353 . S
O528 U526 2.458 . S
O528 C529 1.286 . S
C529 U526 2.984 . S
C529 O527 1.353 . S
C529 O528 1.286 . S
C529 C531 1.363 1_556 S
C530 C520 1.465 . S
C530 U526 2.847 . S
C530 O544 1.249 . S
C530 O545 1.202 . S
C531 C529 1.363 1_554 S
C531 C533 1.408 . S
C531 C536 1.342 . S
C532 C533 1.310 . S
C532 C535 1.461 . S
C532 H552 0.932 . S
C533 C531 1.408 . S
C533 C532 1.310 . S
C533 H553 0.930 1_554 S
C534 C535 1.474 . S
C534 C536 1.285 . S
C534 H554 0.929 . S
C535 C532 1.461 . S
C535 C534 1.474 . S
C536 C531 1.342 . S
C536 C534 1.285 . S
C536 H555 0.930 . S
C537 C540 1.424 . S
C537 C542 1.245 . S
C537 C543 1.428 . S
C538 C541 1.260 . S
C538 C542 1.477 . S
C538 H556 0.932 1_556 S
C539 C540 1.384 . S
C539 C541 1.479 . S
C539 H557 0.929 . S
C540 C537 1.424 . S
C540 C539 1.384 . S
C540 H558 0.928 . S
C541 C538 1.260 . S
C541 C539 1.479 . S
C542 C537 1.245 . S
C542 C538 1.477 . S
C542 H559 0.932 1_556 S
C543 U526 2.882 . S
C543 C537 1.428 . S
C543 O546 1.301 . S
C543 O547 1.282 . S
O544 U526 2.441 . S
O544 C530 1.249 . S
O545 U526 2.420 . S
O545 C530 1.202 . S
O546 U526 2.455 . S
O546 C543 1.301 . S
O547 U526 2.449 . S
O547 C543 1.282 . S
H548 C521 0.931 . S
H549 C523 0.929 . S
H550 C524 0.930 . S
H551 C525 0.931 . S
H552 C532 0.932 . S
H553 C533 0.930 1_556 S
H554 C534 0.929 . S
H555 C536 0.930 . S
H556 C538 0.932 1_554 S
H557 C539 0.929 . S
H558 C540 0.928 . S
H559 C542 0.932 1_554 S
C560 C561 1.264 . S
C560 C565 1.479 . S
C560 C570 1.465 . S
C561 C560 1.264 . S
C561 C563 1.339 . S
C561 H588 0.931 . S
C562 C563 1.395 . S
C562 C564 1.320 . S
C563 C561 1.339 . S
C563 C562 1.395 . S
C563 H589 0.929 . S
C564 C562 1.320 . S
C564 C565 1.405 . S
C564 H590 0.930 . S
C565 C560 1.479 . S
C565 C564 1.405 . S
C565 H591 0.931 . S
U566 O567 2.454 . S
U566 O568 2.458 . S
U566 C569 2.984 . S
U566 C570 2.847 . S
U566 C583 2.882 . S
U566 O584 2.441 . S
U566 O585 2.420 . S
U566 O586 2.455 . S
U566 O587 2.449 . S
O567 U566 2.454 . S
O567 C569 1.353 . S
O568 U566 2.458 . S
O568 C569 1.286 . S
C569 U566 2.984 . S
C569 O567 1.353 . S
C569 O568 1.286 . S
C569 C571 1.363 . S
C570 C560 1.465 . S
C570 U566 2.847 . S
C570 O584 1.249 . S
C570 O585 1.202 . S
C571 C569 1.363 . S
C571 C573 1.408 . S
C571 C576 1.342 . S
C572 C573 1.310 . S
C572 C575 1.461 . S
C572 H592 0.932 . S
C573 C571 1.408 . S
C573 C572 1.310 . S
C573 H593 0.930 . S
C574 C575 1.474 . S
C574 C576 1.285 . S
C574 H594 0.929 . S
C575 C572 1.461 . S
C575 C574 1.474 . S
C576 C571 1.342 . S
C576 C574 1.285 . S
C576 H595 0.930 . S
C577 C580 1.424 . S
C577 C582 1.245 . S
C577 C583 1.428 . S
C578 C581 1.260 . S
C578 C582 1.477 . S
C578 H596 0.932 . S
C579 C580 1.384 . S
C579 C581 1.479 . S
C579 H597 0.929 . S
C580 C577 1.424 . S
C580 C579 1.384 . S
C580 H598 0.928 . S
C581 C578 1.260 . S
C581 C579 1.479 . S
C582 C577 1.245 . S
C582 C578 1.477 . S
C582 H599 0.932 . S
C583 U566 2.882 . S
C583 C577 1.428 . S
C583 O586 1.301 . S
C583 O587 1.282 . S
O584 U566 2.441 . S
O584 C570 1.249 . S
O585 U566 2.420 . S
O585 C570 1.202 . S
O586 U566 2.455 . S
O586 C583 1.301 . S
O587 U566 2.449 . S
O587 C583 1.282 . S
H588 C561 0.931 . S
H589 C563 0.929 . S
H590 C564 0.930 . S
H591 C565 0.931 . S
H592 C572 0.932 . S
H593 C573 0.930 . S
H594 C574 0.929 . S
H595 C576 0.930 . S
H596 C578 0.932 . S
H597 C579 0.929 . S
H598 C580 0.928 . S
H599 C582 0.932 . S
C600 C601 1.266 . S
C600 C605 1.479 . S
C600 C610 1.465 1_554 S
C601 C600 1.266 . S
C601 C603 1.343 . S
C601 H628 0.925 1_554 S
C602 C603 1.395 . S
C602 C604 1.320 . S
C603 C601 1.343 . S
C603 C602 1.395 . S
C603 H629 0.929 . S
C604 C602 1.320 . S
C604 C605 1.405 . S
C604 H630 0.930 . S
C605 C600 1.479 . S
C605 C604 1.405 . S
C605 H631 0.931 . S
U606 O607 2.454 . S
U606 O608 2.458 . S
U606 C609 2.984 . S
U606 C610 2.847 . S
U606 C623 2.882 . S
U606 O624 2.441 . S
U606 O625 2.420 . S
U606 O626 2.455 . S
U606 O627 2.449 . S
O607 U606 2.454 . S
O607 C609 1.353 . S
O608 U606 2.458 . S
O608 C609 1.286 . S
C609 U606 2.984 . S
C609 O607 1.353 . S
C609 O608 1.286 . S
C609 C611 1.363 . S
C610 C600 1.465 1_556 S
C610 U606 2.847 . S
C610 O624 1.249 . S
C610 O625 1.202 . S
C611 C609 1.363 . S
C611 C613 1.408 . S
C611 C616 1.342 1_545 S
C612 C613 1.310 1_565 S
C612 C615 1.461 . S
C612 H632 0.932 . S
C613 C611 1.408 . S
C613 C612 1.310 1_545 S
C613 H633 0.930 . S
C614 C615 1.474 . S
C614 C616 1.285 . S
C614 H634 0.929 . S
C615 C612 1.461 . S
C615 C614 1.474 . S
C616 C611 1.342 1_565 S
C616 C614 1.285 . S
C616 H635 0.930 . S
C617 C620 1.424 . S
C617 C622 1.245 . S
C617 C623 1.428 . S
C618 C621 1.260 . S
C618 C622 1.477 . S
C618 H636 0.932 . S
C619 C620 1.384 . S
C619 C621 1.479 . S
C619 H637 0.929 . S
C620 C617 1.424 . S
C620 C619 1.384 . S
C620 H638 0.928 . S
C621 C618 1.260 . S
C621 C619 1.479 . S
C622 C617 1.245 . S
C622 C618 1.477 . S
C622 H639 0.932 . S
C623 U606 2.882 . S
C623 C617 1.428 . S
C623 O626 1.301 . S
C623 O627 1.282 . S
O624 U606 2.441 . S
O624 C610 1.249 . S
O625 U606 2.420 . S
O625 C610 1.202 . S
O626 U606 2.455 . S
O626 C623 1.301 . S
O627 U606 2.449 . S
O627 C623 1.282 . S
H628 C601 0.925 1_556 S
H629 C603 0.929 . S
H630 C604 0.930 . S
H631 C605 0.931 . S
H632 C612 0.932 . S
H633 C613 0.930 . S
H634 C614 0.929 . S
H635 C616 0.930 . S
H636 C618 0.932 . S
H637 C619 0.929 . S
H638 C620 0.928 . S
H639 C622 0.932 . S
Zn640 O643 2.031 . S
Zn640 O645 2.049 1_554 S
Zn640 O650 2.067 1_554 S
Zn641 O642 1.962 . S
Zn641 O644 1.986 . S
Zn641 O646 1.996 . S
Zn641 O649 1.943 1_554 S
O642 Zn641 1.962 . S
O642 C647 1.254 . S
O643 Zn640 2.031 . S
O643 C647 1.269 . S
O644 Zn641 1.986 . S
O644 C651 1.262 . S
O645 Zn640 2.049 1_556 S
O645 C653 1.260 . S
O646 Zn641 1.996 . S
O646 C653 1.257 1_554 S
C647 O642 1.254 . S
C647 O643 1.269 . S
C648 O649 1.249 . S
C648 O650 1.270 . S
O649 Zn641 1.943 1_556 S
O649 C648 1.249 . S
O650 Zn640 2.067 1_556 S
O650 C648 1.270 . S
C651 O644 1.262 . S
C651 O652 1.232 . S
O652 C651 1.232 . S
C653 O645 1.260 . S
C653 O646 1.257 1_556 S
Zn654 O657 2.031 . S
Zn654 O659 2.049 . S
Zn654 O664 2.067 . S
Zn655 O656 1.962 . S
Zn655 O658 1.986 . S
Zn655 O660 1.996 . S
Zn655 O663 1.943 . S
O656 Zn655 1.962 . S
O656 C661 1.254 . S
O657 Zn654 2.031 . S
O657 C661 1.269 . S
O658 Zn655 1.986 . S
O658 C665 1.262 . S
O659 Zn654 2.049 . S
O659 C667 1.260 . S
O660 Zn655 1.996 . S
O660 C667 1.257 . S
C661 O656 1.254 . S
C661 O657 1.269 . S
C662 O663 1.249 . S
C662 O664 1.270 . S
O663 Zn655 1.943 . S
O663 C662 1.249 . S
O664 Zn654 2.067 . S
O664 C662 1.270 . S
C665 O658 1.262 . S
C665 O666 1.232 . S
O666 C665 1.232 . S
C667 O659 1.260 . S
C667 O660 1.257 . S
Zn668 O671 2.031 . S
Zn668 O673 2.049 . S
Zn668 O678 2.067 . S
Zn669 O670 1.962 . S
Zn669 O672 1.986 . S
Zn669 O674 1.996 1_554 S
Zn669 O677 1.943 . S
O670 Zn669 1.962 . S
O670 C675 1.254 . S
O671 Zn668 2.031 . S
O671 C675 1.269 1_556 S
O672 Zn669 1.986 . S
O672 C679 1.262 . S
O673 Zn668 2.049 . S
O673 C681 1.260 . S
O674 Zn669 1.996 1_556 S
O674 C681 1.257 . S
C675 O670 1.254 . S
C675 O671 1.269 1_554 S
C676 O677 1.249 1_556 S
C676 O678 1.270 . S
O677 Zn669 1.943 . S
O677 C676 1.249 1_554 S
O678 Zn668 2.067 . S
O678 C676 1.270 . S
C679 O672 1.262 . S
C679 O680 1.232 . S
O680 C679 1.232 . S
C681 O673 1.260 . S
C681 O674 1.257 . S
Zn682 O685 2.031 1_565 S
Zn682 O687 2.050 . S
Zn682 O692 2.068 . S
Zn683 O684 1.962 . S
Zn683 O686 1.986 . S
Zn683 O688 1.996 . S
Zn683 O691 1.943 1_545 S
O684 Zn683 1.962 . S
O684 C689 1.254 . S
O685 Zn682 2.031 1_545 S
O685 C689 1.269 . S
O686 Zn683 1.986 . S
O686 C693 1.262 . S
O687 Zn682 2.050 . S
O687 C695 1.260 . S
O688 Zn683 1.996 . S
O688 C695 1.257 1_545 S
C689 O684 1.254 . S
C689 O685 1.269 . S
C690 O691 1.249 . S
C690 O692 1.270 . S
O691 Zn683 1.943 1_565 S
O691 C690 1.249 . S
O692 Zn682 2.068 . S
O692 C690 1.270 . S
C693 O686 1.262 . S
C693 O694 1.232 . S
O694 C693 1.232 . S
C695 O687 1.260 . S
C695 O688 1.257 1_565 S
Zn696 O699 2.031 . S
Zn696 O701 2.049 . S
Zn696 O706 2.067 . S
Zn697 O698 1.962 . S
Zn697 O700 1.986 . S
Zn697 O702 1.996 . S
Zn697 O705 1.943 . S
O698 Zn697 1.962 . S
O698 C703 1.254 . S
O699 Zn696 2.031 . S
O699 C703 1.269 . S
O700 Zn697 1.986 . S
O700 C707 1.262 . S
O701 Zn696 2.049 . S
O701 C709 1.260 . S
O702 Zn697 1.996 . S
O702 C709 1.257 . S
C703 O698 1.254 . S
C703 O699 1.269 . S
C704 O705 1.249 . S
C704 O706 1.270 . S
O705 Zn697 1.943 . S
O705 C704 1.249 . S
O706 Zn696 2.067 . S
O706 C704 1.270 . S
C707 O700 1.262 . S
C707 O708 1.232 . S
O708 C707 1.232 . S
C709 O701 1.260 . S
C709 O702 1.257 . S
Zn710 O713 2.031 . S
Zn710 O715 2.049 . S
Zn710 O720 2.067 . S
Zn711 O712 1.962 . S
Zn711 O714 1.986 . S
Zn711 O716 1.996 . S
Zn711 O719 1.943 . S
O712 Zn711 1.962 . S
O712 C717 1.254 . S
O713 Zn710 2.031 . S
O713 C717 1.269 . S
O714 Zn711 1.986 . S
O714 C721 1.262 . S
O715 Zn710 2.049 . S
O715 C723 1.260 . S
O716 Zn711 1.996 . S
O716 C723 1.257 . S
C717 O712 1.254 . S
C717 O713 1.269 . S
C718 O719 1.249 . S
C718 O720 1.270 . S
O719 Zn711 1.943 . S
O719 C718 1.249 . S
O720 Zn710 2.067 . S
O720 C718 1.270 . S
C721 O714 1.262 . S
C721 O722 1.232 . S
O722 C721 1.232 . S
C723 O715 1.260 . S
C723 O716 1.257 . S
Zn724 O727 2.031 . S
Zn724 O729 2.049 . S
Zn724 O734 2.067 . S
Zn725 O726 1.962 . S
Zn725 O728 1.986 . S
Zn725 O730 1.996 . S
Zn725 O733 1.943 . S
O726 Zn725 1.962 . S
O726 C731 1.254 . S
O727 Zn724 2.031 . S
O727 C731 1.269 . S
O728 Zn725 1.986 . S
O728 C735 1.262 . S
O729 Zn724 2.049 . S
O729 C737 1.260 . S
O730 Zn725 1.996 . S
O730 C737 1.257 . S
C731 O726 1.254 . S
C731 O727 1.269 . S
C732 O733 1.249 . S
C732 O734 1.270 . S
O733 Zn725 1.943 . S
O733 C732 1.249 . S
O734 Zn724 2.067 . S
O734 C732 1.270 . S
C735 O728 1.262 . S
C735 O736 1.232 . S
O736 C735 1.232 . S
C737 O729 1.260 . S
C737 O730 1.257 . S
Zn738 O741 2.031 . S
Zn738 O743 2.049 . S
Zn738 O748 2.067 . S
Zn739 O740 1.962 . S
Zn739 O742 1.986 . S
Zn739 O744 1.996 1_545 S
Zn739 O747 1.943 . S
O740 Zn739 1.962 . S
O740 C745 1.254 . S
O741 Zn738 2.031 . S
O741 C745 1.269 1_565 S
O742 Zn739 1.986 . S
O742 C749 1.262 . S
O743 Zn738 2.049 . S
O743 C751 1.260 . S
O744 Zn739 1.996 1_565 S
O744 C751 1.257 . S
C745 O740 1.254 . S
C745 O741 1.269 1_545 S
C746 O747 1.249 1_565 S
C746 O748 1.270 . S
O747 Zn739 1.943 . S
O747 C746 1.249 1_545 S
O748 Zn738 2.067 . S
O748 C746 1.270 . S
C749 O742 1.262 . S
C749 O750 1.232 . S
O750 C749 1.232 . S
C751 O743 1.260 . S
C751 O744 1.257 . S
Zn752 O755 2.031 . S
Zn752 O757 2.049 1_455 S
Zn752 O762 2.067 1_455 S
Zn753 O754 1.962 . S
Zn753 O756 1.986 . S
Zn753 O758 1.996 . S
Zn753 O761 1.943 1_455 S
O754 Zn753 1.962 . S
O754 C759 1.254 . S
O755 Zn752 2.031 . S
O755 C759 1.269 . S
O756 Zn753 1.986 . S
O756 C763 1.262 . S
O757 Zn752 2.049 1_655 S
O757 C765 1.260 . S
O758 Zn753 1.996 . S
O758 C765 1.257 1_455 S
C759 O754 1.254 . S
C759 O755 1.269 . S
C760 O761 1.249 . S
C760 O762 1.270 . S
O761 Zn753 1.943 1_655 S
O761 C760 1.249 . S
O762 Zn752 2.067 1_655 S
O762 C760 1.270 . S
C763 O756 1.262 . S
C763 O764 1.232 . S
O764 C763 1.232 . S
C765 O757 1.260 . S
C765 O758 1.257 1_655 S
Zn766 O769 2.031 . S
Zn766 O771 2.049 . S
Zn766 O776 2.067 . S
Zn767 O768 1.962 . S
Zn767 O770 1.986 . S
Zn767 O772 1.996 . S
Zn767 O775 1.943 . S
O768 Zn767 1.962 . S
O768 C773 1.254 . S
O769 Zn766 2.031 . S
O769 C773 1.269 . S
O770 Zn767 1.986 . S
O770 C777 1.262 . S
O771 Zn766 2.049 . S
O771 C779 1.260 . S
O772 Zn767 1.996 . S
O772 C779 1.257 . S
C773 O768 1.254 . S
C773 O769 1.269 . S
C774 O775 1.249 . S
C774 O776 1.270 . S
O775 Zn767 1.943 . S
O775 C774 1.249 . S
O776 Zn766 2.067 . S
O776 C774 1.270 . S
C777 O770 1.262 . S
C777 O778 1.232 . S
O778 C777 1.232 . S
C779 O771 1.260 . S
C779 O772 1.257 . S
Zn780 O783 2.031 . S
Zn780 O785 2.049 . S
Zn780 O790 2.067 . S
Zn781 O782 1.962 . S
Zn781 O784 1.986 . S
Zn781 O786 1.996 1_455 S
Zn781 O789 1.943 . S
O782 Zn781 1.962 . S
O782 C787 1.254 . S
O783 Zn780 2.031 . S
O783 C787 1.269 1_655 S
O784 Zn781 1.986 . S
O784 C791 1.262 . S
O785 Zn780 2.049 . S
O785 C793 1.260 . S
O786 Zn781 1.996 1_655 S
O786 C793 1.257 . S
C787 O782 1.254 . S
C787 O783 1.269 1_455 S
C788 O789 1.249 1_655 S
C788 O790 1.270 . S
O789 Zn781 1.943 . S
O789 C788 1.249 1_455 S
O790 Zn780 2.067 . S
O790 C788 1.270 . S
C791 O784 1.262 . S
C791 O792 1.232 . S
O792 C791 1.232 . S
C793 O785 1.260 . S
C793 O786 1.257 . S
Zn794 O797 2.031 . S
Zn794 O799 2.049 . S
Zn794 O804 2.067 . S
Zn795 O796 1.962 . S
Zn795 O798 1.986 . S
Zn795 O800 1.996 . S
Zn795 O803 1.943 . S
O796 Zn795 1.962 . S
O796 C801 1.254 . S
O797 Zn794 2.031 . S
O797 C801 1.269 . S
O798 Zn795 1.986 . S
O798 C805 1.262 . S
O799 Zn794 2.049 . S
O799 C807 1.260 . S
O800 Zn795 1.996 . S
O800 C807 1.257 . S
C801 O796 1.254 . S
C801 O797 1.269 . S
C802 O803 1.249 . S
C802 O804 1.270 . S
O803 Zn795 1.943 . S
O803 C802 1.249 . S
O804 Zn794 2.067 . S
O804 C802 1.270 . S
C805 O798 1.262 . S
C805 O806 1.232 . S
O806 C805 1.232 . S
C807 O799 1.260 . S
C807 O800 1.257 . S
C808 C809 1.387 . S
C808 H812 0.950 . S
C808 C817 1.390 . S
C809 C808 1.387 . S
C809 C811 1.387 . S
H810 C817 0.950 . S
C811 C809 1.387 . S
C811 C813 1.390 . S
C811 H815 0.950 . S
H812 C808 0.950 . S
C813 C811 1.390 . S
C813 C814 1.387 . S
C813 H816 0.950 . S
C814 C813 1.387 . S
C814 C817 1.387 . S
H815 C811 0.950 . S
H816 C813 0.950 . S
C817 C808 1.390 . S
C817 H810 0.950 . S
C817 C814 1.387 . S
C818 C819 1.387 . S
C818 H822 0.950 . S
C818 C827 1.390 . S
C819 C818 1.387 . S
C819 C821 1.387 . S
H820 C827 0.950 . S
C821 C819 1.387 . S
C821 C823 1.390 . S
C821 H825 0.950 . S
H822 C818 0.950 . S
C823 C821 1.390 . S
C823 C824 1.387 . S
C823 H826 0.950 . S
C824 C823 1.387 . S
C824 C827 1.387 . S
H825 C821 0.950 . S
H826 C823 0.950 . S
C827 C818 1.390 . S
C827 H820 0.950 . S
C827 C824 1.387 . S
C828 C829 1.387 . S
C828 H832 0.950 . S
C828 C837 1.390 . S
C829 C828 1.387 . S
C829 C831 1.387 . S
H830 C837 0.950 . S
C831 C829 1.387 . S
C831 C833 1.390 . S
C831 H835 0.950 . S
H832 C828 0.950 . S
C833 C831 1.390 . S
C833 C834 1.387 . S
C833 H836 0.950 . S
C834 C833 1.387 . S
C834 C837 1.387 . S
H835 C831 0.950 . S
H836 C833 0.950 . S
C837 C828 1.390 . S
C837 H830 0.950 . S
C837 C834 1.387 . S
C838 C839 1.387 . S
C838 H842 0.950 . S
C838 C847 1.390 . S
C839 C838 1.387 . S
C839 C841 1.387 . S
H840 C847 0.950 . S
C841 C839 1.387 . S
C841 C843 1.390 1_565 S
C841 H845 0.950 1_565 S
H842 C838 0.950 . S
C843 C841 1.390 1_545 S
C843 C844 1.387 1_545 S
C843 H846 0.950 . S
C844 C843 1.387 1_565 S
C844 C847 1.387 . S
H845 C841 0.950 1_545 S
H846 C843 0.950 . S
C847 C838 1.390 . S
C847 H840 0.950 . S
C847 C844 1.387 . S
C848 C849 1.387 . S
C848 H852 0.950 . S
C848 C857 1.390 . S
C849 C848 1.387 . S
C849 C851 1.387 . S
H850 C857 0.950 . S
C851 C849 1.387 . S
C851 C853 1.390 . S
C851 H855 0.950 . S
H852 C848 0.950 . S
C853 C851 1.390 . S
C853 C854 1.387 . S
C853 H856 0.950 . S
C854 C853 1.387 . S
C854 C857 1.387 . S
H855 C851 0.950 . S
H856 C853 0.950 . S
C857 C848 1.390 . S
C857 H850 0.950 . S
C857 C854 1.387 . S
C858 C859 1.387 . S
C858 H862 0.950 . S
C858 C867 1.390 . S
C859 C858 1.387 . S
C859 C861 1.387 . S
H860 C867 0.950 . S
C861 C859 1.387 . S
C861 C863 1.390 . S
C861 H865 0.950 . S
H862 C858 0.950 . S
C863 C861 1.390 . S
C863 C864 1.387 . S
C863 H866 0.950 . S
C864 C863 1.387 . S
C864 C867 1.387 . S
H865 C861 0.950 . S
H866 C863 0.950 . S
C867 C858 1.390 . S
C867 H860 0.950 . S
C867 C864 1.387 . S
C868 C869 1.387 . S
C868 H872 0.950 . S
C868 C877 1.390 . S
C869 C868 1.387 . S
C869 C871 1.387 . S
H870 C877 0.950 . S
C871 C869 1.387 . S
C871 C873 1.390 . S
C871 H875 0.950 . S
H872 C868 0.950 . S
C873 C871 1.390 . S
C873 C874 1.387 . S
C873 H876 0.950 . S
C874 C873 1.387 . S
C874 C877 1.387 . S
H875 C871 0.950 . S
H876 C873 0.950 . S
C877 C868 1.390 . S
C877 H870 0.950 . S
C877 C874 1.387 . S
C878 C879 1.387 . S
C878 H882 0.950 . S
C878 C887 1.390 . S
C879 C878 1.387 . S
C879 C881 1.387 1_565 S
H880 C887 0.950 . S
C881 C879 1.387 1_545 S
C881 C883 1.390 . S
C881 H885 0.950 . S
H882 C878 0.950 . S
C883 C881 1.390 . S
C883 C884 1.387 1_545 S
C883 H886 0.950 . S
C884 C883 1.387 1_565 S
C884 C887 1.387 . S
H885 C881 0.950 . S
H886 C883 0.950 . S
C887 C878 1.390 . S
C887 H880 0.950 . S
C887 C884 1.387 . S
C888 C889 1.387 . S
C888 H892 0.950 . S
C888 C897 1.390 . S
C889 C888 1.387 . S
C889 C891 1.387 . S
H890 C897 0.950 . S
C891 C889 1.387 . S
C891 C893 1.390 . S
C891 H895 0.950 . S
H892 C888 0.950 . S
C893 C891 1.390 . S
C893 C894 1.387 . S
C893 H896 0.950 . S
C894 C893 1.387 . S
C894 C897 1.387 . S
H895 C891 0.950 . S
H896 C893 0.950 . S
C897 C888 1.390 . S
C897 H890 0.950 . S
C897 C894 1.387 . S
C898 C899 1.387 . S
C898 H902 0.950 . S
C898 C907 1.390 . S
C899 C898 1.387 . S
C899 C901 1.387 . S
H900 C907 0.950 . S
C901 C899 1.387 . S
C901 C903 1.390 . S
C901 H905 0.950 . S
H902 C898 0.950 . S
C903 C901 1.390 . S
C903 C904 1.387 . S
C903 H906 0.950 . S
C904 C903 1.387 . S
C904 C907 1.387 . S
H905 C901 0.950 . S
H906 C903 0.950 . S
C907 C898 1.390 . S
C907 H900 0.950 . S
C907 C904 1.387 . S
C908 C909 1.387 . S
C908 H912 0.950 . S
C908 C917 1.390 . S
C909 C908 1.387 . S
C909 C911 1.387 . S
H910 C917 0.950 . S
C911 C909 1.387 . S
C911 C913 1.390 . S
C911 H915 0.950 . S
H912 C908 0.950 . S
C913 C911 1.390 . S
C913 C914 1.387 . S
C913 H916 0.950 . S
C914 C913 1.387 . S
C914 C917 1.387 . S
H915 C911 0.950 . S
H916 C913 0.950 . S
C917 C908 1.390 . S
C917 H910 0.950 . S
C917 C914 1.387 . S
C918 C919 1.387 . S
C918 H922 0.950 . S
C918 C927 1.390 . S
C919 C918 1.387 . S
C919 C921 1.387 . S
H920 C927 0.950 . S
C921 C919 1.387 . S
C921 C923 1.390 . S
C921 H925 0.950 . S
H922 C918 0.950 . S
C923 C921 1.390 . S
C923 C924 1.387 . S
C923 H926 0.950 . S
C924 C923 1.387 . S
C924 C927 1.387 . S
H925 C921 0.950 . S
H926 C923 0.950 . S
C927 C918 1.390 . S
C927 H920 0.950 . S
C927 C924 1.387 . S
C928 C929 1.387 . S
C928 H932 0.950 . S
C928 C937 1.390 . S
C929 C928 1.387 . S
C929 C931 1.387 . S
H930 C937 0.950 . S
C931 C929 1.387 . S
C931 C933 1.390 . S
C931 H935 0.950 . S
H932 C928 0.950 . S
C933 C931 1.390 . S
C933 C934 1.387 . S
C933 H936 0.950 . S
C934 C933 1.387 . S
C934 C937 1.387 . S
H935 C931 0.950 . S
H936 C933 0.950 . S
C937 C928 1.390 . S
C937 H930 0.950 . S
C937 C934 1.387 . S
C938 C939 1.387 . S
C938 H942 0.950 . S
C938 C947 1.390 . S
C939 C938 1.387 . S
C939 C941 1.387 . S
H940 C947 0.950 . S
C941 C939 1.387 . S
C941 C943 1.390 . S
C941 H945 0.950 . S
H942 C938 0.950 . S
C943 C941 1.390 . S
C943 C944 1.387 . S
C943 H946 0.950 . S
C944 C943 1.387 . S
C944 C947 1.387 . S
H945 C941 0.950 . S
H946 C943 0.950 . S
C947 C938 1.390 . S
C947 H940 0.950 . S
C947 C944 1.387 . S
C948 C949 1.387 . S
C948 H952 0.950 . S
C948 C957 1.390 . S
C949 C948 1.387 . S
C949 C951 1.387 . S
H950 C957 0.950 . S
C951 C949 1.387 . S
C951 C953 1.390 . S
C951 H955 0.950 . S
H952 C948 0.950 . S
C953 C951 1.390 . S
C953 C954 1.387 . S
C953 H956 0.950 . S
C954 C953 1.387 . S
C954 C957 1.387 . S
H955 C951 0.950 . S
H956 C953 0.950 . S
C957 C948 1.390 . S
C957 H950 0.950 . S
C957 C954 1.387 . S
C958 C959 1.387 1_455 S
C958 H962 0.950 . S
C958 C967 1.390 . S
C959 C958 1.387 1_655 S
C959 C961 1.387 . S
H960 C967 0.950 . S
C961 C959 1.387 . S
C961 C963 1.390 . S
C961 H965 0.950 . S
H962 C958 0.950 . S
C963 C961 1.390 . S
C963 C964 1.387 . S
C963 H966 0.950 . S
C964 C963 1.387 . S
C964 C967 1.387 1_655 S
H965 C961 0.950 . S
H966 C963 0.950 . S
C967 C958 1.390 . S
C967 H960 0.950 . S
C967 C964 1.387 1_455 S
C968 C969 1.387 . S
C968 H972 0.950 . S
C968 C977 1.390 . S
C969 C968 1.387 . S
C969 C971 1.387 . S
H970 C977 0.950 . S
C971 C969 1.387 . S
C971 C973 1.390 . S
C971 H975 0.950 . S
H972 C968 0.950 . S
C973 C971 1.390 . S
C973 C974 1.387 . S
C973 H976 0.950 . S
C974 C973 1.387 . S
C974 C977 1.387 . S
H975 C971 0.950 . S
H976 C973 0.950 . S
C977 C968 1.390 . S
C977 H970 0.950 . S
C977 C974 1.387 . S
C978 C979 1.387 . S
C978 H982 0.950 . S
C978 C987 1.390 . S
C979 C978 1.387 . S
C979 C981 1.387 . S
H980 C987 0.950 . S
C981 C979 1.387 . S
C981 C983 1.390 . S
C981 H985 0.950 . S
H982 C978 0.950 . S
C983 C981 1.390 . S
C983 C984 1.387 . S
C983 H986 0.950 . S
C984 C983 1.387 . S
C984 C987 1.387 . S
H985 C981 0.950 . S
H986 C983 0.950 . S
C987 C978 1.390 . S
C987 H980 0.950 . S
C987 C984 1.387 . S
C988 C989 1.387 . S
C988 H992 0.950 . S
C988 C997 1.390 . S
C989 C988 1.387 . S
C989 C991 1.387 . S
H990 C997 0.950 . S
C991 C989 1.387 . S
C991 C993 1.390 1_556 S
C991 H995 0.950 1_556 S
H992 C988 0.950 . S
C993 C991 1.390 1_554 S
C993 C994 1.387 1_554 S
C993 H996 0.950 . S
C994 C993 1.387 1_556 S
C994 C997 1.387 . S
H995 C991 0.950 1_554 S
H996 C993 0.950 . S
C997 C988 1.390 . S
C997 H990 0.950 . S
C997 C994 1.387 . S
C998 C999 1.387 . S
C998 H1002 0.950 . S
C998 C1007 1.390 . S
C999 C998 1.387 . S
C999 C1001 1.387 . S
H1000 C1007 0.950 . S
C1001 C999 1.387 . S
C1001 C1003 1.390 . S
C1001 H1005 0.950 . S
H1002 C998 0.950 . S
C1003 C1001 1.390 . S
C1003 C1004 1.387 . S
C1003 H1006 0.950 . S
C1004 C1003 1.387 . S
C1004 C1007 1.387 . S
H1005 C1001 0.950 . S
H1006 C1003 0.950 . S
C1007 C998 1.390 . S
C1007 H1000 0.950 . S
C1007 C1004 1.387 . S
C1008 C1009 1.387 . S
C1008 H1012 0.950 . S
C1008 C1017 1.390 . S
C1009 C1008 1.387 . S
C1009 C1011 1.387 . S
H1010 C1017 0.950 . S
C1011 C1009 1.387 . S
C1011 C1013 1.390 . S
C1011 H1015 0.950 . S
H1012 C1008 0.950 . S
C1013 C1011 1.390 . S
C1013 C1014 1.387 . S
C1013 H1016 0.950 . S
C1014 C1013 1.387 . S
C1014 C1017 1.387 . S
H1015 C1011 0.950 . S
H1016 C1013 0.950 . S
C1017 C1008 1.390 . S
C1017 H1010 0.950 . S
C1017 C1014 1.387 . S
C1018 C1019 1.387 . S
C1018 H1022 0.950 . S
C1018 C1027 1.390 . S
C1019 C1018 1.387 . S
C1019 C1021 1.387 . S
H1020 C1027 0.950 . S
C1021 C1019 1.387 . S
C1021 C1023 1.390 . S
C1021 H1025 0.950 . S
H1022 C1018 0.950 . S
C1023 C1021 1.390 . S
C1023 C1024 1.387 . S
C1023 H1026 0.950 . S
C1024 C1023 1.387 . S
C1024 C1027 1.387 . S
H1025 C1021 0.950 . S
H1026 C1023 0.950 . S
C1027 C1018 1.390 . S
C1027 H1020 0.950 . S
C1027 C1024 1.387 . S
C1028 C1029 1.387 . S
C1028 H1032 0.950 . S
C1028 C1037 1.390 . S
C1029 C1028 1.387 . S
C1029 C1031 1.387 . S
H1030 C1037 0.950 . S
C1031 C1029 1.387 . S
C1031 C1033 1.390 . S
C1031 H1035 0.950 . S
H1032 C1028 0.950 . S
C1033 C1031 1.390 . S
C1033 C1034 1.387 . S
C1033 H1036 0.950 . S
C1034 C1033 1.387 . S
C1034 C1037 1.387 . S
H1035 C1031 0.950 . S
H1036 C1033 0.950 . S
C1037 C1028 1.390 . S
C1037 H1030 0.950 . S
C1037 C1034 1.387 . S
C1038 C1039 1.387 . S
C1038 H1042 0.950 . S
C1038 C1047 1.390 . S
C1039 C1038 1.387 . S
C1039 C1041 1.387 . S
H1040 C1047 0.950 . S
C1041 C1039 1.387 . S
C1041 C1043 1.390 . S
C1041 H1045 0.950 . S
H1042 C1038 0.950 . S
C1043 C1041 1.390 . S
C1043 C1044 1.387 . S
C1043 H1046 0.950 . S
C1044 C1043 1.387 . S
C1044 C1047 1.387 . S
H1045 C1041 0.950 . S
H1046 C1043 0.950 . S
C1047 C1038 1.390 . S
C1047 H1040 0.950 . S
C1047 C1044 1.387 . S
C1048 C1049 1.387 . S
C1048 H1052 0.950 . S
C1048 C1057 1.390 . S
C1049 C1048 1.387 . S
C1049 C1051 1.387 . S
H1050 C1057 0.950 . S
C1051 C1049 1.387 . S
C1051 C1053 1.390 . S
C1051 H1055 0.950 . S
H1052 C1048 0.950 . S
C1053 C1051 1.390 . S
C1053 C1054 1.387 . S
C1053 H1056 0.950 . S
C1054 C1053 1.387 . S
C1054 C1057 1.387 . S
H1055 C1051 0.950 . S
H1056 C1053 0.950 . S
C1057 C1048 1.390 . S
C1057 H1050 0.950 . S
C1057 C1054 1.387 . S
C1058 C1059 1.387 . S
C1058 H1062 0.950 . S
C1058 C1067 1.390 . S
C1059 C1058 1.387 . S
C1059 C1061 1.387 . S
H1060 C1067 0.950 . S
C1061 C1059 1.387 . S
C1061 C1063 1.390 . S
C1061 H1065 0.950 1_545 S
H1062 C1058 0.950 . S
C1063 C1061 1.390 . S
C1063 C1064 1.387 . S
C1063 H1066 0.950 1_545 S
C1064 C1063 1.387 . S
C1064 C1067 1.387 . S
H1065 C1061 0.950 1_565 S
H1066 C1063 0.950 1_565 S
C1067 C1058 1.390 . S
C1067 H1060 0.950 . S
C1067 C1064 1.387 . S
C1068 C1069 1.387 . S
C1068 H1072 0.950 . S
C1068 C1077 1.390 . S
C1069 C1068 1.387 . S
C1069 C1071 1.387 . S
H1070 C1077 0.950 . S
C1071 C1069 1.387 . S
C1071 C1073 1.390 . S
C1071 H1075 0.950 . S
H1072 C1068 0.950 . S
C1073 C1071 1.390 . S
C1073 C1074 1.387 . S
C1073 H1076 0.950 . S
C1074 C1073 1.387 . S
C1074 C1077 1.387 . S
H1075 C1071 0.950 . S
H1076 C1073 0.950 . S
C1077 C1068 1.390 . S
C1077 H1070 0.950 . S
C1077 C1074 1.387 . S
C1078 C1079 1.387 . S
C1078 H1082 0.950 . S
C1078 C1087 1.390 . S
C1079 C1078 1.387 . S
C1079 C1081 1.387 . S
H1080 C1087 0.950 . S
C1081 C1079 1.387 . S
C1081 C1083 1.390 . S
C1081 H1085 0.950 . S
H1082 C1078 0.950 . S
C1083 C1081 1.390 . S
C1083 C1084 1.387 . S
C1083 H1086 0.950 . S
C1084 C1083 1.387 . S
C1084 C1087 1.387 . S
H1085 C1081 0.950 . S
H1086 C1083 0.950 . S
C1087 C1078 1.390 . S
C1087 H1080 0.950 . S
C1087 C1084 1.387 . S
C1088 C1089 1.387 . S
C1088 H1092 0.950 . S
C1088 C1097 1.390 . S
C1089 C1088 1.387 . S
C1089 C1091 1.387 . S
H1090 C1097 0.950 . S
C1091 C1089 1.387 . S
C1091 C1093 1.390 . S
C1091 H1095 0.950 . S
H1092 C1088 0.950 . S
C1093 C1091 1.390 . S
C1093 C1094 1.387 . S
C1093 H1096 0.950 . S
C1094 C1093 1.387 . S
C1094 C1097 1.387 . S
H1095 C1091 0.950 . S
H1096 C1093 0.950 . S
C1097 C1088 1.390 . S
C1097 H1090 0.950 . S
C1097 C1094 1.387 . S
C1098 C1099 1.387 . S
C1098 H1102 0.950 . S
C1098 C1107 1.390 . S
C1099 C1098 1.387 . S
C1099 C1101 1.387 1_545 S
H1100 C1107 0.950 . S
C1101 C1099 1.387 1_565 S
C1101 C1103 1.390 . S
C1101 H1105 0.950 . S
H1102 C1098 0.950 . S
C1103 C1101 1.390 . S
C1103 C1104 1.387 1_565 S
C1103 H1106 0.950 . S
C1104 C1103 1.387 1_545 S
C1104 C1107 1.387 . S
H1105 C1101 0.950 . S
H1106 C1103 0.950 . S
C1107 C1098 1.390 . S
C1107 H1100 0.950 . S
C1107 C1104 1.387 . S
C1108 C1109 1.387 . S
C1108 H1112 0.950 . S
C1108 C1117 1.390 . S
C1109 C1108 1.387 . S
C1109 C1111 1.387 . S
H1110 C1117 0.950 . S
C1111 C1109 1.387 . S
C1111 C1113 1.390 . S
C1111 H1115 0.950 . S
H1112 C1108 0.950 . S
C1113 C1111 1.390 . S
C1113 C1114 1.387 . S
C1113 H1116 0.950 . S
C1114 C1113 1.387 . S
C1114 C1117 1.387 . S
H1115 C1111 0.950 . S
H1116 C1113 0.950 . S
C1117 C1108 1.390 . S
C1117 H1110 0.950 . S
C1117 C1114 1.387 . S
C1118 C1119 1.387 . S
C1118 H1122 0.950 . S
C1118 C1127 1.390 . S
C1119 C1118 1.387 . S
C1119 C1121 1.387 . S
H1120 C1127 0.950 . S
C1121 C1119 1.387 . S
C1121 C1123 1.390 . S
C1121 H1125 0.950 . S
H1122 C1118 0.950 . S
C1123 C1121 1.390 . S
C1123 C1124 1.387 . S
C1123 H1126 0.950 . S
C1124 C1123 1.387 . S
C1124 C1127 1.387 . S
H1125 C1121 0.950 . S
H1126 C1123 0.950 . S
C1127 C1118 1.390 . S
C1127 H1120 0.950 . S
C1127 C1124 1.387 . S
C1128 C1129 1.387 . S
C1128 H1132 0.950 . S
C1128 C1137 1.390 . S
C1129 C1128 1.387 . S
C1129 C1131 1.387 . S
H1130 C1137 0.950 . S
C1131 C1129 1.387 . S
C1131 C1133 1.390 . S
C1131 H1135 0.950 . S
H1132 C1128 0.950 . S
C1133 C1131 1.390 . S
C1133 C1134 1.387 . S
C1133 H1136 0.950 . S
C1134 C1133 1.387 . S
C1134 C1137 1.387 . S
H1135 C1131 0.950 . S
H1136 C1133 0.950 . S
C1137 C1128 1.390 . S
C1137 H1130 0.950 . S
C1137 C1134 1.387 . S
C1138 C1139 1.387 . S
C1138 H1142 0.950 . S
C1138 C1147 1.390 . S
C1139 C1138 1.387 . S
C1139 C1141 1.387 . S
H1140 C1147 0.950 . S
C1141 C1139 1.387 . S
C1141 C1143 1.390 . S
C1141 H1145 0.950 . S
H1142 C1138 0.950 . S
C1143 C1141 1.390 . S
C1143 C1144 1.387 . S
C1143 H1146 0.950 1_655 S
C1144 C1143 1.387 . S
C1144 C1147 1.387 . S
H1145 C1141 0.950 . S
H1146 C1143 0.950 1_455 S
C1147 C1138 1.390 . S
C1147 H1140 0.950 . S
C1147 C1144 1.387 . S
C1148 C1149 1.387 . S
C1148 H1152 0.950 . S
C1148 C1157 1.390 . S
C1149 C1148 1.387 . S
C1149 C1151 1.387 . S
H1150 C1157 0.950 . S
C1151 C1149 1.387 . S
C1151 C1153 1.390 . S
C1151 H1155 0.950 . S
H1152 C1148 0.950 . S
C1153 C1151 1.390 . S
C1153 C1154 1.387 . S
C1153 H1156 0.950 . S
C1154 C1153 1.387 . S
C1154 C1157 1.387 . S
H1155 C1151 0.950 . S
H1156 C1153 0.950 . S
C1157 C1148 1.390 . S
C1157 H1150 0.950 . S
C1157 C1154 1.387 . S
C1158 C1159 1.387 . S
C1158 H1162 0.950 1_455 S
C1158 C1167 1.390 1_455 S
C1159 C1158 1.387 . S
C1159 C1161 1.387 . S
H1160 C1167 0.950 . S
C1161 C1159 1.387 . S
C1161 C1163 1.390 . S
C1161 H1165 0.950 . S
H1162 C1158 0.950 1_655 S
C1163 C1161 1.390 . S
C1163 C1164 1.387 . S
C1163 H1166 0.950 . S
C1164 C1163 1.387 . S
C1164 C1167 1.387 1_455 S
H1165 C1161 0.950 . S
H1166 C1163 0.950 . S
C1167 C1158 1.390 1_655 S
C1167 H1160 0.950 . S
C1167 C1164 1.387 1_655 S
C1168 C1169 1.387 . S
C1168 H1172 0.950 . S
C1168 C1177 1.390 . S
C1169 C1168 1.387 . S
C1169 C1171 1.387 . S
H1170 C1177 0.950 . S
C1171 C1169 1.387 . S
C1171 C1173 1.390 . S
C1171 H1175 0.950 . S
H1172 C1168 0.950 . S
C1173 C1171 1.390 . S
C1173 C1174 1.387 . S
C1173 H1176 0.950 . S
C1174 C1173 1.387 . S
C1174 C1177 1.387 . S
H1175 C1171 0.950 . S
H1176 C1173 0.950 . S
C1177 C1168 1.390 . S
C1177 H1170 0.950 . S
C1177 C1174 1.387 . S
C1178 C1179 1.387 . S
C1178 H1182 0.950 . S
C1178 C1187 1.390 . S
C1179 C1178 1.387 . S
C1179 C1181 1.387 . S
H1180 C1187 0.950 . S
C1181 C1179 1.387 . S
C1181 C1183 1.390 . S
C1181 H1185 0.950 . S
H1182 C1178 0.950 . S
C1183 C1181 1.390 . S
C1183 C1184 1.387 . S
C1183 H1186 0.950 . S
C1184 C1183 1.387 . S
C1184 C1187 1.387 . S
H1185 C1181 0.950 . S
H1186 C1183 0.950 . S
C1187 C1178 1.390 . S
C1187 H1180 0.950 . S
C1187 C1184 1.387 . S
C1188 C1189 1.387 . S
C1188 H1192 0.950 . S
C1188 C1197 1.390 . S
C1189 C1188 1.387 . S
C1189 C1191 1.387 . S
H1190 C1197 0.950 . S
C1191 C1189 1.387 . S
C1191 C1193 1.390 . S
C1191 H1195 0.950 . S
H1192 C1188 0.950 . S
C1193 C1191 1.390 . S
C1193 C1194 1.387 . S
C1193 H1196 0.950 . S
C1194 C1193 1.387 . S
C1194 C1197 1.387 . S
H1195 C1191 0.950 . S
H1196 C1193 0.950 . S
C1197 C1188 1.390 . S
C1197 H1190 0.950 . S
C1197 C1194 1.387 . S
C1198 C1199 1.387 . S
C1198 H1202 0.950 . S
C1198 C1207 1.390 . S
C1199 C1198 1.387 . S
C1199 C1201 1.387 . S
H1200 C1207 0.950 . S
C1201 C1199 1.387 . S
C1201 C1203 1.390 . S
C1201 H1205 0.950 . S
H1202 C1198 0.950 . S
C1203 C1201 1.390 . S
C1203 C1204 1.387 . S
C1203 H1206 0.950 . S
C1204 C1203 1.387 . S
C1204 C1207 1.387 . S
H1205 C1201 0.950 . S
H1206 C1203 0.950 . S
C1207 C1198 1.390 . S
C1207 H1200 0.950 . S
C1207 C1204 1.387 . S
C1208 C1209 1.387 . S
C1208 H1212 0.950 . S
C1208 C1217 1.390 . S
C1209 C1208 1.387 . S
C1209 C1211 1.387 . S
H1210 C1217 0.950 . S
C1211 C1209 1.387 . S
C1211 C1213 1.390 . S
C1211 H1215 0.950 . S
H1212 C1208 0.950 . S
C1213 C1211 1.390 . S
C1213 C1214 1.387 . S
C1213 H1216 0.950 . S
C1214 C1213 1.387 . S
C1214 C1217 1.387 . S
H1215 C1211 0.950 . S
H1216 C1213 0.950 . S
C1217 C1208 1.390 . S
C1217 H1210 0.950 . S
C1217 C1214 1.387 . S
C1218 C1219 1.387 . S
C1218 H1222 0.950 . S
C1218 C1227 1.390 . S
C1219 C1218 1.387 . S
C1219 C1221 1.387 . S
H1220 C1227 0.950 . S
C1221 C1219 1.387 . S
C1221 C1223 1.390 . S
C1221 H1225 0.950 . S
H1222 C1218 0.950 . S
C1223 C1221 1.390 . S
C1223 C1224 1.387 . S
C1223 H1226 0.950 . S
C1224 C1223 1.387 . S
C1224 C1227 1.387 . S
H1225 C1221 0.950 . S
H1226 C1223 0.950 . S
C1227 C1218 1.390 . S
C1227 H1220 0.950 . S
C1227 C1224 1.387 . S
C1228 C1229 1.387 . S
C1228 H1232 0.950 . S
C1228 C1237 1.390 . S
C1229 C1228 1.387 . S
C1229 C1231 1.387 . S
H1230 C1237 0.950 . S
C1231 C1229 1.387 . S
C1231 C1233 1.390 . S
C1231 H1235 0.950 . S
H1232 C1228 0.950 . S
C1233 C1231 1.390 . S
C1233 C1234 1.387 . S
C1233 H1236 0.950 . S
C1234 C1233 1.387 . S
C1234 C1237 1.387 . S
H1235 C1231 0.950 . S
H1236 C1233 0.950 . S
C1237 C1228 1.390 . S
C1237 H1230 0.950 . S
C1237 C1234 1.387 . S
C1238 C1239 1.387 . S
C1238 H1242 0.950 . S
C1238 C1247 1.390 . S
C1239 C1238 1.387 . S
C1239 C1241 1.387 . S
H1240 C1247 0.950 . S
C1241 C1239 1.387 . S
C1241 C1243 1.390 . S
C1241 H1245 0.950 . S
H1242 C1238 0.950 . S
C1243 C1241 1.390 . S
C1243 C1244 1.387 . S
C1243 H1246 0.950 . S
C1244 C1243 1.387 . S
C1244 C1247 1.387 . S
H1245 C1241 0.950 . S
H1246 C1243 0.950 . S
C1247 C1238 1.390 . S
C1247 H1240 0.950 . S
C1247 C1244 1.387 . S
C1248 C1249 1.387 . S
C1248 H1252 0.950 . S
C1248 C1257 1.390 . S
C1249 C1248 1.387 . S
C1249 C1251 1.387 1_556 S
H1250 C1257 0.950 . S
C1251 C1249 1.387 1_554 S
C1251 C1253 1.390 . S
C1251 H1255 0.950 . S
H1252 C1248 0.950 . S
C1253 C1251 1.390 . S
C1253 C1254 1.387 1_554 S
C1253 H1256 0.950 . S
C1254 C1253 1.387 1_556 S
C1254 C1257 1.387 . S
H1255 C1251 0.950 . S
H1256 C1253 0.950 . S
C1257 C1248 1.390 . S
C1257 H1250 0.950 . S
C1257 C1254 1.387 . S
C1258 C1259 1.387 . S
C1258 H1262 0.950 . S
C1258 C1267 1.390 . S
C1259 C1258 1.387 . S
C1259 C1261 1.387 . S
H1260 C1267 0.950 . S
C1261 C1259 1.387 . S
C1261 C1263 1.390 . S
C1261 H1265 0.950 . S
H1262 C1258 0.950 . S
C1263 C1261 1.390 . S
C1263 C1264 1.387 . S
C1263 H1266 0.950 . S
C1264 C1263 1.387 . S
C1264 C1267 1.387 . S
H1265 C1261 0.950 . S
H1266 C1263 0.950 . S
C1267 C1258 1.390 . S
C1267 H1260 0.950 . S
C1267 C1264 1.387 . S
C1268 C1269 1.387 . S
C1268 H1272 0.950 1_554 S
C1268 C1277 1.390 1_554 S
C1269 C1268 1.387 . S
C1269 C1271 1.387 . S
H1270 C1277 0.949 . S
C1271 C1269 1.387 . S
C1271 C1273 1.390 . S
C1271 H1275 0.950 . S
H1272 C1268 0.950 1_556 S
C1273 C1271 1.390 . S
C1273 C1274 1.387 . S
C1273 H1276 0.950 . S
C1274 C1273 1.387 . S
C1274 C1277 1.388 1_554 S
H1275 C1271 0.950 . S
H1276 C1273 0.950 . S
C1277 C1268 1.390 1_556 S
C1277 H1270 0.949 . S
C1277 C1274 1.388 1_556 S
C1278 C1279 1.387 1_556 S
C1278 H1282 0.950 . S
C1278 C1287 1.390 . S
C1279 C1278 1.387 1_554 S
C1279 C1281 1.387 . S
H1280 C1287 0.950 . S
C1281 C1279 1.387 . S
C1281 C1283 1.390 . S
C1281 H1285 0.950 . S
H1282 C1278 0.950 . S
C1283 C1281 1.390 . S
C1283 C1284 1.387 . S
C1283 H1286 0.950 . S
C1284 C1283 1.387 . S
C1284 C1287 1.387 1_554 S
H1285 C1281 0.950 . S
H1286 C1283 0.950 . S
C1287 C1278 1.390 . S
C1287 H1280 0.950 . S
C1287 C1284 1.387 1_556 S
C814 C648 1.482 . S
C809 C202 1.496 . S
C824 C661 1.507 . S
C819 C261 1.484 . S
C829 C282 1.679 . S
C834 C681 1.534 . S
C844 C695 1.400 . S
C839 C162 1.431 . S
C854 C707 1.498 . S
C849 C402 1.492 . S
C864 C721 1.445 . S
C859 C482 1.438 . S
C869 C442 1.481 . S
C874 C731 1.488 . S
C884 C746 1.527 . S
C879 C381 1.534 . S
C889 C461 1.540 . S
C894 C760 1.526 . S
C904 C779 1.383 . S
C899 C362 1.404 . S
C909 C415 1.458 . S
C914 C759 1.443 . S
C924 C777 1.453 . S
C919 C495 1.456 . S
C929 C301 1.718 . S
C934 C793 1.574 . S
C939 C175 1.512 . S
C944 C787 1.513 . S
C949 C215 1.485 . S
C954 C791 1.484 . S
C959 C242 1.497 . S
C964 C788 1.506 . S
C969 C141 1.542 . S
C974 C690 1.524 . S
C979 C581 1.520 . S
C984 C689 1.514 . S
C994 C653 1.369 . S
C989 C615 1.422 . S
C1004 C667 1.528 . S
C999 C335 1.653 . S
C1009 C181 1.570 . S
C1014 C704 1.567 . S
C1024 C749 1.497 . S
C1019 C455 1.501 . S
C1034 C703 1.459 . S
C1029 C375 1.454 . S
C1044 C735 1.486 . S
C1039 C501 1.483 . S
C1054 C732 1.482 . S
C1049 C562 1.496 . S
C1059 C621 1.484 . S
C1064 C745 1.507 . S
C1069 C322 1.679 . S
C1074 C709 1.539 . S
C1084 C723 1.400 . S
C1079 C522 1.431 . S
C1089 C122 1.491 . S
C1094 C679 1.497 . S
C1104 C693 1.445 . S
C1099 C2 1.438 . S
C1114 C647 1.487 . S
C1109 C42 1.479 . S
C1124 C662 1.527 . S
C1119 C101 1.534 . S
C1129 C61 1.540 . S
C1134 C774 1.526 . S
C1139 C82 1.406 . S
C1144 C765 1.381 . S
C1149 C135 1.459 . S
C1154 C773 1.445 . S
C1159 C15 1.457 . S
C1164 C763 1.454 . S
C1174 C807 1.578 . S
C1169 C341 1.718 . S
C1184 C801 1.513 . S
C1179 C535 1.512 . S
C1194 C805 1.483 . S
C1189 C575 1.485 . S
C1199 C602 1.499 . S
C1204 C802 1.506 . S
C1209 C421 1.543 . S
C1214 C718 1.524 . S
C1224 C717 1.514 . S
C1219 C221 1.519 . S
C1234 C737 1.372 . S
C1229 C255 1.421 . S
C1244 C751 1.533 . S
C1239 C295 1.654 . S
C1249 C541 1.572 . S
C1254 C676 1.568 . S
C1264 C665 1.498 . S
C1259 C55 1.501 . S
C1269 C95 1.454 . S
C1274 C675 1.458 . S
C1284 C651 1.486 . S
C1279 C21 1.483 . S
