# Generated by pormake.
# Topology gar, (4,6)-cn, num edge types: 1
# Building blocks:
#     Node 0, Type 0, BuildingBlock: QUQFOY_clean_sbu_1, # of connection points: 4
#     Node 1, Type 0, BuildingBlock: QUQFOY_clean_sbu_1, # of connection points: 4
#     Node 2, Type 0, BuildingBlock: QUQFOY_clean_sbu_1, # of connection points: 4
#     Node 3, Type 0, BuildingBlock: QUQFOY_clean_sbu_1, # of connection points: 4
#     Node 4, Type 0, BuildingBlock: QUQFOY_clean_sbu_1, # of connection points: 4
#     Node 5, Type 0, BuildingBlock: QUQFOY_clean_sbu_1, # of connection points: 4
#     Node 6, Type 0, BuildingBlock: QUQFOY_clean_sbu_1, # of connection points: 4
#     Node 7, Type 0, BuildingBlock: QUQFOY_clean_sbu_1, # of connection points: 4
#     Node 8, Type 0, BuildingBlock: QUQFOY_clean_sbu_1, # of connection points: 4
#     Node 9, Type 0, BuildingBlock: QUQFOY_clean_sbu_1, # of connection points: 4
#     Node 10, Type 0, BuildingBlock: QUQFOY_clean_sbu_1, # of connection points: 4
#     Node 11, Type 0, BuildingBlock: QUQFOY_clean_sbu_1, # of connection points: 4
#     Node 12, Type 0, BuildingBlock: QUQFOY_clean_sbu_1, # of connection points: 4
#     Node 13, Type 0, BuildingBlock: QUQFOY_clean_sbu_1, # of connection points: 4
#     Node 14, Type 0, BuildingBlock: QUQFOY_clean_sbu_1, # of connection points: 4
#     Node 15, Type 0, BuildingBlock: QUQFOY_clean_sbu_1, # of connection points: 4
#     Node 16, Type 0, BuildingBlock: QUQFOY_clean_sbu_1, # of connection points: 4
#     Node 17, Type 0, BuildingBlock: QUQFOY_clean_sbu_1, # of connection points: 4
#     Node 18, Type 0, BuildingBlock: QUQFOY_clean_sbu_1, # of connection points: 4
#     Node 19, Type 0, BuildingBlock: QUQFOY_clean_sbu_1, # of connection points: 4
#     Node 20, Type 0, BuildingBlock: QUQFOY_clean_sbu_1, # of connection points: 4
#     Node 21, Type 0, BuildingBlock: QUQFOY_clean_sbu_1, # of connection points: 4
#     Node 22, Type 0, BuildingBlock: QUQFOY_clean_sbu_1, # of connection points: 4
#     Node 23, Type 0, BuildingBlock: QUQFOY_clean_sbu_1, # of connection points: 4
#     Node 24, Type 1, BuildingBlock: KUMBUR_clean_sbu_1, # of connection points: 6
#     Node 25, Type 1, BuildingBlock: KUMBUR_clean_sbu_1, # of connection points: 6
#     Node 26, Type 1, BuildingBlock: KUMBUR_clean_sbu_1, # of connection points: 6
#     Node 27, Type 1, BuildingBlock: KUMBUR_clean_sbu_1, # of connection points: 6
#     Node 28, Type 1, BuildingBlock: KUMBUR_clean_sbu_1, # of connection points: 6
#     Node 29, Type 1, BuildingBlock: KUMBUR_clean_sbu_1, # of connection points: 6
#     Node 30, Type 1, BuildingBlock: KUMBUR_clean_sbu_1, # of connection points: 6
#     Node 31, Type 1, BuildingBlock: KUMBUR_clean_sbu_1, # of connection points: 6
#     Node 32, Type 1, BuildingBlock: KUMBUR_clean_sbu_1, # of connection points: 6
#     Node 33, Type 1, BuildingBlock: KUMBUR_clean_sbu_1, # of connection points: 6
#     Node 34, Type 1, BuildingBlock: KUMBUR_clean_sbu_1, # of connection points: 6
#     Node 35, Type 1, BuildingBlock: KUMBUR_clean_sbu_1, # of connection points: 6
#     Node 36, Type 1, BuildingBlock: KUMBUR_clean_sbu_1, # of connection points: 6
#     Node 37, Type 1, BuildingBlock: KUMBUR_clean_sbu_1, # of connection points: 6
#     Node 38, Type 1, BuildingBlock: KUMBUR_clean_sbu_1, # of connection points: 6
#     Node 39, Type 1, BuildingBlock: KUMBUR_clean_sbu_1, # of connection points: 6
#     Edge 40, Type (0, 1), BuildingBlock: MIFKUJ_clean_linker_0, # of connection points: 2
#     Edge 41, Type (0, 1), BuildingBlock: MIFKUJ_clean_linker_0, # of connection points: 2
#     Edge 42, Type (0, 1), BuildingBlock: MIFKUJ_clean_linker_0, # of connection points: 2
#     Edge 43, Type (0, 1), BuildingBlock: MIFKUJ_clean_linker_0, # of connection points: 2
#     Edge 44, Type (0, 1), BuildingBlock: MIFKUJ_clean_linker_0, # of connection points: 2
#     Edge 45, Type (0, 1), BuildingBlock: MIFKUJ_clean_linker_0, # of connection points: 2
#     Edge 46, Type (0, 1), BuildingBlock: MIFKUJ_clean_linker_0, # of connection points: 2
#     Edge 47, Type (0, 1), BuildingBlock: MIFKUJ_clean_linker_0, # of connection points: 2
#     Edge 48, Type (0, 1), BuildingBlock: MIFKUJ_clean_linker_0, # of connection points: 2
#     Edge 49, Type (0, 1), BuildingBlock: MIFKUJ_clean_linker_0, # of connection points: 2
#     Edge 50, Type (0, 1), BuildingBlock: MIFKUJ_clean_linker_0, # of connection points: 2
#     Edge 51, Type (0, 1), BuildingBlock: MIFKUJ_clean_linker_0, # of connection points: 2
#     Edge 52, Type (0, 1), BuildingBlock: MIFKUJ_clean_linker_0, # of connection points: 2
#     Edge 53, Type (0, 1), BuildingBlock: MIFKUJ_clean_linker_0, # of connection points: 2
#     Edge 54, Type (0, 1), BuildingBlock: MIFKUJ_clean_linker_0, # of connection points: 2
#     Edge 55, Type (0, 1), BuildingBlock: MIFKUJ_clean_linker_0, # of connection points: 2
#     Edge 56, Type (0, 1), BuildingBlock: MIFKUJ_clean_linker_0, # of connection points: 2
#     Edge 57, Type (0, 1), BuildingBlock: MIFKUJ_clean_linker_0, # of connection points: 2
#     Edge 58, Type (0, 1), BuildingBlock: MIFKUJ_clean_linker_0, # of connection points: 2
#     Edge 59, Type (0, 1), BuildingBlock: MIFKUJ_clean_linker_0, # of connection points: 2
#     Edge 60, Type (0, 1), BuildingBlock: MIFKUJ_clean_linker_0, # of connection points: 2
#     Edge 61, Type (0, 1), BuildingBlock: MIFKUJ_clean_linker_0, # of connection points: 2
#     Edge 62, Type (0, 1), BuildingBlock: MIFKUJ_clean_linker_0, # of connection points: 2
#     Edge 63, Type (0, 1), BuildingBlock: MIFKUJ_clean_linker_0, # of connection points: 2
#     Edge 64, Type (0, 1), BuildingBlock: MIFKUJ_clean_linker_0, # of connection points: 2
#     Edge 65, Type (0, 1), BuildingBlock: MIFKUJ_clean_linker_0, # of connection points: 2
#     Edge 66, Type (0, 1), BuildingBlock: MIFKUJ_clean_linker_0, # of connection points: 2
#     Edge 67, Type (0, 1), BuildingBlock: MIFKUJ_clean_linker_0, # of connection points: 2
#     Edge 68, Type (0, 1), BuildingBlock: MIFKUJ_clean_linker_0, # of connection points: 2
#     Edge 69, Type (0, 1), BuildingBlock: MIFKUJ_clean_linker_0, # of connection points: 2
#     Edge 70, Type (0, 1), BuildingBlock: MIFKUJ_clean_linker_0, # of connection points: 2
#     Edge 71, Type (0, 1), BuildingBlock: MIFKUJ_clean_linker_0, # of connection points: 2
#     Edge 72, Type (0, 1), BuildingBlock: MIFKUJ_clean_linker_0, # of connection points: 2
#     Edge 73, Type (0, 1), BuildingBlock: MIFKUJ_clean_linker_0, # of connection points: 2
#     Edge 74, Type (0, 1), BuildingBlock: MIFKUJ_clean_linker_0, # of connection points: 2
#     Edge 75, Type (0, 1), BuildingBlock: MIFKUJ_clean_linker_0, # of connection points: 2
#     Edge 76, Type (0, 1), BuildingBlock: MIFKUJ_clean_linker_0, # of connection points: 2
#     Edge 77, Type (0, 1), BuildingBlock: MIFKUJ_clean_linker_0, # of connection points: 2
#     Edge 78, Type (0, 1), BuildingBlock: MIFKUJ_clean_linker_0, # of connection points: 2
#     Edge 79, Type (0, 1), BuildingBlock: MIFKUJ_clean_linker_0, # of connection points: 2
#     Edge 80, Type (0, 1), BuildingBlock: MIFKUJ_clean_linker_0, # of connection points: 2
#     Edge 81, Type (0, 1), BuildingBlock: MIFKUJ_clean_linker_0, # of connection points: 2
#     Edge 82, Type (0, 1), BuildingBlock: MIFKUJ_clean_linker_0, # of connection points: 2
#     Edge 83, Type (0, 1), BuildingBlock: MIFKUJ_clean_linker_0, # of connection points: 2
#     Edge 84, Type (0, 1), BuildingBlock: MIFKUJ_clean_linker_0, # of connection points: 2
#     Edge 85, Type (0, 1), BuildingBlock: MIFKUJ_clean_linker_0, # of connection points: 2
#     Edge 86, Type (0, 1), BuildingBlock: MIFKUJ_clean_linker_0, # of connection points: 2
#     Edge 87, Type (0, 1), BuildingBlock: MIFKUJ_clean_linker_0, # of connection points: 2
#     Edge 88, Type (0, 1), BuildingBlock: MIFKUJ_clean_linker_0, # of connection points: 2
#     Edge 89, Type (0, 1), BuildingBlock: MIFKUJ_clean_linker_0, # of connection points: 2
#     Edge 90, Type (0, 1), BuildingBlock: MIFKUJ_clean_linker_0, # of connection points: 2
#     Edge 91, Type (0, 1), BuildingBlock: MIFKUJ_clean_linker_0, # of connection points: 2
#     Edge 92, Type (0, 1), BuildingBlock: MIFKUJ_clean_linker_0, # of connection points: 2
#     Edge 93, Type (0, 1), BuildingBlock: MIFKUJ_clean_linker_0, # of connection points: 2
#     Edge 94, Type (0, 1), BuildingBlock: MIFKUJ_clean_linker_0, # of connection points: 2
#     Edge 95, Type (0, 1), BuildingBlock: MIFKUJ_clean_linker_0, # of connection points: 2
#     Edge 96, Type (0, 1), BuildingBlock: MIFKUJ_clean_linker_0, # of connection points: 2
#     Edge 97, Type (0, 1), BuildingBlock: MIFKUJ_clean_linker_0, # of connection points: 2
#     Edge 98, Type (0, 1), BuildingBlock: MIFKUJ_clean_linker_0, # of connection points: 2
#     Edge 99, Type (0, 1), BuildingBlock: MIFKUJ_clean_linker_0, # of connection points: 2
#     Edge 100, Type (0, 1), BuildingBlock: MIFKUJ_clean_linker_0, # of connection points: 2
#     Edge 101, Type (0, 1), BuildingBlock: MIFKUJ_clean_linker_0, # of connection points: 2
#     Edge 102, Type (0, 1), BuildingBlock: MIFKUJ_clean_linker_0, # of connection points: 2
#     Edge 103, Type (0, 1), BuildingBlock: MIFKUJ_clean_linker_0, # of connection points: 2
#     Edge 104, Type (0, 1), BuildingBlock: MIFKUJ_clean_linker_0, # of connection points: 2
#     Edge 105, Type (0, 1), BuildingBlock: MIFKUJ_clean_linker_0, # of connection points: 2
#     Edge 106, Type (0, 1), BuildingBlock: MIFKUJ_clean_linker_0, # of connection points: 2
#     Edge 107, Type (0, 1), BuildingBlock: MIFKUJ_clean_linker_0, # of connection points: 2
#     Edge 108, Type (0, 1), BuildingBlock: MIFKUJ_clean_linker_0, # of connection points: 2
#     Edge 109, Type (0, 1), BuildingBlock: MIFKUJ_clean_linker_0, # of connection points: 2
#     Edge 110, Type (0, 1), BuildingBlock: MIFKUJ_clean_linker_0, # of connection points: 2
#     Edge 111, Type (0, 1), BuildingBlock: MIFKUJ_clean_linker_0, # of connection points: 2
#     Edge 112, Type (0, 1), BuildingBlock: MIFKUJ_clean_linker_0, # of connection points: 2
#     Edge 113, Type (0, 1), BuildingBlock: MIFKUJ_clean_linker_0, # of connection points: 2
#     Edge 114, Type (0, 1), BuildingBlock: MIFKUJ_clean_linker_0, # of connection points: 2
#     Edge 115, Type (0, 1), BuildingBlock: MIFKUJ_clean_linker_0, # of connection points: 2
#     Edge 116, Type (0, 1), BuildingBlock: MIFKUJ_clean_linker_0, # of connection points: 2
#     Edge 117, Type (0, 1), BuildingBlock: MIFKUJ_clean_linker_0, # of connection points: 2
#     Edge 118, Type (0, 1), BuildingBlock: MIFKUJ_clean_linker_0, # of connection points: 2
#     Edge 119, Type (0, 1), BuildingBlock: MIFKUJ_clean_linker_0, # of connection points: 2
#     Edge 120, Type (0, 1), BuildingBlock: MIFKUJ_clean_linker_0, # of connection points: 2
#     Edge 121, Type (0, 1), BuildingBlock: MIFKUJ_clean_linker_0, # of connection points: 2
#     Edge 122, Type (0, 1), BuildingBlock: MIFKUJ_clean_linker_0, # of connection points: 2
#     Edge 123, Type (0, 1), BuildingBlock: MIFKUJ_clean_linker_0, # of connection points: 2
#     Edge 124, Type (0, 1), BuildingBlock: MIFKUJ_clean_linker_0, # of connection points: 2
#     Edge 125, Type (0, 1), BuildingBlock: MIFKUJ_clean_linker_0, # of connection points: 2
#     Edge 126, Type (0, 1), BuildingBlock: MIFKUJ_clean_linker_0, # of connection points: 2
#     Edge 127, Type (0, 1), BuildingBlock: MIFKUJ_clean_linker_0, # of connection points: 2
#     Edge 128, Type (0, 1), BuildingBlock: MIFKUJ_clean_linker_0, # of connection points: 2
#     Edge 129, Type (0, 1), BuildingBlock: MIFKUJ_clean_linker_0, # of connection points: 2
#     Edge 130, Type (0, 1), BuildingBlock: MIFKUJ_clean_linker_0, # of connection points: 2
#     Edge 131, Type (0, 1), BuildingBlock: MIFKUJ_clean_linker_0, # of connection points: 2
#     Edge 132, Type (0, 1), BuildingBlock: MIFKUJ_clean_linker_0, # of connection points: 2
#     Edge 133, Type (0, 1), BuildingBlock: MIFKUJ_clean_linker_0, # of connection points: 2
#     Edge 134, Type (0, 1), BuildingBlock: MIFKUJ_clean_linker_0, # of connection points: 2
#     Edge 135, Type (0, 1), BuildingBlock: MIFKUJ_clean_linker_0, # of connection points: 2
# Relax obj value: 0.077
# Max RMSD: 0.182
# Mean RMSD: 0.141
data_MOF--net-gar--node1-QUQFOY_clean_sbu_1--node2-KUMBUR_clean_sbu_1--edge1-MIFKUJ_clean_linker_0
_symmetry_space_group_name_H-M    P1
_symmetry_Int_Tables_number       1
_symmetry_cell_setting            triclinic
loop_
_symmetry_equiv_pos_as_xyz
'x, y, z'
_cell_length_a     77.677879
_cell_length_b     77.700207
_cell_length_c     73.192801
_cell_angle_alpha  95.896482
_cell_angle_beta   95.893284
_cell_angle_gamma 102.72952
loop_
_atom_site_label
_atom_site_type_symbol
_atom_site_fract_x
_atom_site_fract_y
_atom_site_fract_z
_atom_type_partial_charge
O0 O 0.04223 0.27136 0.37989 0.0
Cd1 Cd 0.04314 0.28805 0.35907 0.0
Cd2 Cd 0.03128 0.31014 0.39336 0.0
O3 O 0.03732 0.28783 0.40476 0.0
O4 O 0.05705 0.2776 0.33947 0.0
O5 O 0.06885 0.30269 0.35713 0.0
C6 C 0.07097 0.29039 0.34483 0.0
C7 C 0.03655 0.33891 0.41167 0.0
C8 C 0.04043 0.27346 0.39707 0.0
C9 C 1.00482 0.29716 0.35664 0.0
O10 O 0.00878 0.30441 0.37348 0.0
O11 O 0.0165 0.29101 0.3482 0.0
O12 O 0.02505 0.32534 0.41509 0.0
O13 O 0.04565 0.33627 0.39828 0.0
O14 O 1.00522 0.7236 0.69041 0.0
Cd15 Cd 0.00849 0.74631 0.71025 0.0
Cd16 Cd 0.02257 0.76167 0.67986 0.0
O17 O 0.01144 0.73656 0.66559 0.0
O18 O 0.98802 0.74045 0.72702 0.0
O19 O 0.98901 0.76148 0.70933 0.0
C20 C 0.98037 0.7522 0.72063 0.0
C21 C 0.02147 0.78744 0.6653 0.0
C22 C 1.00687 0.72248 0.67315 0.0
C23 C 0.05 0.75923 0.71231 0.0
O24 O 0.04632 0.76243 0.69583 0.0
O25 O 0.0371 0.7545 0.72201 0.0
O26 O 0.03046 0.77629 0.65976 0.0
O27 O 0.01261 0.78386 0.67897 0.0
O28 O 0.57152 0.79885 0.87483 0.0
Cd29 Cd 0.55251 0.79733 0.89343 0.0
Cd30 Cd 0.5338 0.81072 0.86013 0.0
O31 O 0.55772 0.80471 0.84891 0.0
O32 O 0.56164 0.78374 0.91322 0.0
O33 O 0.53654 0.77277 0.89489 0.0
C34 C 0.5481 0.77059 0.90793 0.0
C35 C 0.50252 0.80352 0.84539 0.0
C36 C 0.57156 0.80112 0.85779 0.0
C37 C 0.54312 0.83404 0.89942 0.0
O38 O 0.53823 0.83227 0.88195 0.0
O39 O 0.5482 0.82139 0.90672 0.0
O40 O 0.51444 0.81658 0.84148 0.0
O41 O 0.50837 0.79354 0.85646 0.0
O42 O 0.50701 0.21441 0.18752 0.0
Cd43 Cd 0.51061 0.23726 0.2074 0.0
Cd44 Cd 0.52651 0.25375 0.17886 0.0
O45 O 0.51782 0.22822 0.16469 0.0
O46 O 0.49076 0.23309 0.22507 0.0
O47 O 0.49072 0.25173 0.20476 0.0
C48 C 0.48261 0.24381 0.21727 0.0
C49 C 0.52307 0.27928 0.16538 0.0
C50 C 0.51108 0.21392 0.171 0.0
C51 C 0.55272 0.25247 0.2118 0.0
O52 O 0.55009 0.25678 0.19564 0.0
O53 O 0.53913 0.24571 0.21983 0.0
O54 O 0.53266 0.26914 0.15891 0.0
O55 O 0.51478 0.27471 0.17917 0.0
O56 O 0.04113 0.75973 0.12083 0.0
Cd57 Cd 0.04398 0.78336 0.13768 0.0
Cd58 Cd 0.06096 0.79835 0.10852 0.0
O59 O 0.05263 0.77008 0.09652 0.0
O60 O 0.02952 0.77621 0.15808 0.0
O61 O 0.02259 0.79446 0.13894 0.0
C62 C 0.01886 0.78574 0.15267 0.0
C63 C 0.05499 0.82622 0.09814 0.0
C64 C 0.04568 0.7568 0.10482 0.0
C65 C 0.08393 0.79826 0.14518 0.0
O66 O 0.08348 0.80146 0.12837 0.0
O67 O 0.06949 0.79268 0.15183 0.0
O68 O 0.06635 0.8183 0.09128 0.0
O69 O 0.04616 0.81794 0.10999 0.0
O70 O 0.5341 0.76467 0.43808 0.0
Cd71 Cd 0.5178 0.76321 0.45927 0.0
Cd72 Cd 0.496 0.7754 0.42464 0.0
O73 O 0.51797 0.76911 0.41281 0.0
O74 O 0.52969 0.74922 0.4778 0.0
O75 O 0.5035 0.73753 0.46227 0.0
C76 C 0.51666 0.73534 0.47344 0.0
C77 C 0.46693 0.77046 0.40688 0.0
C78 C 0.53244 0.76649 0.42087 0.0
C79 C 0.50976 0.80175 0.46171 0.0
O80 O 0.5028 0.79781 0.44476 0.0
O81 O 0.51507 0.78982 0.47051 0.0
O82 O 0.48034 0.78223 0.40358 0.0
O83 O 0.46985 0.76098 0.41984 0.0
O84 O 0.54842 0.2543 0.61949 0.0
Cd85 Cd 0.55101 0.27678 0.63799 0.0
Cd86 Cd 0.56836 0.29577 0.6114 0.0
O87 O 0.56141 0.26784 0.59748 0.0
O88 O 0.5351 0.26946 0.65718 0.0
O89 O 0.53051 0.28914 0.63864 0.0
C90 C 0.52552 0.28 0.65173 0.0
C91 C 0.56208 0.32377 0.60151 0.0
C92 C 0.55403 0.25337 0.6038 0.0
C93 C 0.59063 0.29306 0.64782 0.0
O94 O 0.59039 0.29929 0.63232 0.0
O95 O 0.57628 0.28456 0.65281 0.0
O96 O 0.57467 0.31699 0.59582 0.0
O97 O 0.55225 0.31434 0.61183 0.0
O98 O 0.00811 0.23521 0.94305 0.0
Cd99 Cd 0.0085 0.25378 0.92418 0.0
Cd100 Cd 0.99495 0.27246 0.95718 0.0
O101 O 1.00048 0.24826 0.96836 0.0
O102 O 0.02316 0.2448 0.90549 0.0
O103 O 0.03238 0.27093 0.92251 0.0
C104 C 0.03557 0.25903 0.91048 0.0
C105 C 1.00294 0.30365 0.97214 0.0
C106 C 1.00518 0.23488 0.95986 0.0
C107 C 0.97166 0.26311 0.91769 0.0
O108 O 0.97379 0.2689 0.93501 0.0
O109 O 0.98387 0.25695 0.91064 0.0
O110 O 0.98986 0.2919 0.97629 0.0
O111 O 0.0125 0.29761 0.9607 0.0
O112 O 0.38431 0.01663 0.27887 0.0
Cd113 Cd 0.37425 0.0203 0.30351 0.0
Cd114 Cd 0.40321 0.01751 0.31496 0.0
O115 O 0.41089 0.0295 0.29319 0.0
O116 O 0.354 0.03074 0.29894 0.0
O117 O 0.37971 0.04488 0.31605 0.0
C118 C 0.36391 0.04498 0.30859 0.0
C119 C 0.41799 0.02477 0.34371 0.0
C120 C 0.40056 0.0237 0.27828 0.0
C121 C 0.37479 0.9872 0.3144 0.0
O122 O 0.39036 0.99139 0.31006 0.0
O123 O 0.36615 0.99906 0.31678 0.0
O124 O 0.42475 0.01731 0.33054 0.0
O125 O 0.40323 0.02957 0.33997 0.0
O126 O 0.28138 0.17286 0.55144 0.0
Cd127 Cd 0.27985 0.15533 0.52778 0.0
Cd128 Cd 0.26733 0.18215 0.51204 0.0
O129 O 0.27671 0.19641 0.53892 0.0
O130 O 0.29401 0.13863 0.53721 0.0
O131 O 0.30148 0.15421 0.51452 0.0
C132 C 0.30506 0.14324 0.52565 0.0
C133 C 0.27307 0.19188 0.48274 0.0
C134 C 0.28033 0.18901 0.55322 0.0
C135 C 0.24095 0.14718 0.51405 0.0
O136 O 0.24344 0.16352 0.51158 0.0
O137 O 0.25415 0.14053 0.51856 0.0
O138 O 0.26355 0.19909 0.49328 0.0
O139 O 0.28018 0.17978 0.4891 0.0
O140 O 0.12855 0.02756 0.7625 0.0
Cd141 Cd 0.14585 0.0281 0.78587 0.0
Cd142 Cd 0.12006 0.04267 0.80135 0.0
O143 O 0.1057 0.03511 0.77416 0.0
O144 O 0.1616 0.01371 0.77512 0.0
O145 O 0.14731 0.00643 0.7988 0.0
C146 C 0.15765 1.00284 0.78698 0.0
C147 C 0.10938 0.03701 0.83021 0.0
C148 C 0.11306 0.03044 0.76017 0.0
C149 C 0.1569 0.06658 0.79999 0.0
O150 O 0.14085 0.06523 0.80311 0.0
O151 O 0.16221 0.05282 0.79448 0.0
O152 O 0.10528 0.04927 0.82117 0.0
O153 O 0.11867 0.02712 0.82247 0.0
O154 O 0.28499 0.92324 0.03145 0.0
Cd155 Cd 0.28245 0.93307 0.00665 0.0
Cd156 Cd 0.28476 0.90337 0.99696 0.0
O157 O 0.27102 0.89658 0.01819 0.0
O158 O 0.27323 0.954 0.01237 0.0
O159 O 0.25798 0.9295 0.9941 0.0
C160 C 0.25847 0.94493 0.00297 0.0
C161 C 0.27903 0.88978 0.96749 0.0
C162 C 0.27658 0.90757 0.0327 0.0
C163 C 0.31617 0.93177 0.99973 0.0
O164 O 0.31077 0.91632 0.00408 0.0
O165 O 0.30493 0.94061 0.99507 0.0
O166 O 0.28534 0.88217 0.98067 0.0
O167 O 0.27441 0.9046 0.97152 0.0
O168 O 0.28665 0.38244 0.07424 0.0
Cd169 Cd 0.28839 0.39968 0.05439 0.0
Cd170 Cd 0.29856 0.37 0.03473 0.0
O171 O 0.29065 0.35813 0.05831 0.0
O172 O 0.27551 0.41812 0.06349 0.0
O173 O 0.26549 0.39925 0.03796 0.0
C174 C 0.26322 0.41188 0.04972 0.0
C175 C 0.29106 0.35628 0.00337 0.0
C176 C 0.28736 0.36617 0.07327 0.0
C177 C 0.3263 0.40547 0.04519 0.0
O178 O 0.3226 0.38889 0.03932 0.0
O179 O 0.31421 0.41284 0.05058 0.0
O180 O 0.30223 0.35139 0.01483 0.0
O181 O 0.28327 0.36826 0.0098 0.0
O182 O 0.7652 0.12836 0.07979 0.0
Cd183 Cd 0.76596 0.11611 0.05423 0.0
Cd184 Cd 0.76366 0.14515 0.0465 0.0
O185 O 0.77973 0.15309 0.07104 0.0
O186 O 0.77966 0.09797 0.05511 0.0
O187 O 0.78873 0.12451 0.0453 0.0
C188 C 0.79176 0.10955 0.04916 0.0
C189 C 0.76781 0.15497 0.01901 0.0
C190 C 0.77466 0.14407 0.0838 0.0
C191 C 0.73194 0.11748 0.04096 0.0
O192 O 0.73787 0.13356 0.04786 0.0
O193 O 0.74262 0.10772 0.03771 0.0
O194 O 0.76275 0.16463 0.03192 0.0
O195 O 0.77191 0.14029 0.02236 0.0
O196 O 0.17969 0.53988 0.24039 0.0
Cd197 Cd 0.1961 0.54005 0.26388 0.0
Cd198 Cd 0.16786 0.53996 0.27658 0.0
O199 O 0.15799 0.5239 0.25255 0.0
O200 O 0.21206 0.52472 0.2584 0.0
O201 O 0.19008 0.51866 0.27604 0.0
C202 C 0.20221 0.51369 0.26735 0.0
C203 C 0.15385 0.53697 0.30249 0.0
C204 C 0.16409 0.53013 0.23859 0.0
C205 C 0.1947 0.57345 0.27758 0.0
O206 O 0.17832 0.56586 0.27417 0.0
O207 O 0.2063 0.56428 0.27847 0.0
O208 O 0.1464 0.54176 0.28794 0.0
O209 O 0.16902 0.53282 0.30192 0.0
O210 O 0.79121 0.88265 0.58022 0.0
Cd211 Cd 0.7909 0.89899 0.55973 0.0
Cd212 Cd 0.79925 0.87028 0.53971 0.0
O213 O 0.79024 0.85757 0.56245 0.0
O214 O 0.77784 0.91675 0.5694 0.0
O215 O 0.76775 0.89791 0.54385 0.0
C216 C 0.76541 0.91039 0.55577 0.0
C217 C 0.79115 0.85785 0.50816 0.0
C218 C 0.7895 0.8659 0.57825 0.0
C219 C 0.82736 0.90538 0.54898 0.0
O220 O 0.82389 0.8886 0.54435 0.0
O221 O 0.81526 0.91282 0.55399 0.0
O222 O 0.80229 0.85227 0.51901 0.0
O223 O 0.78372 0.86981 0.51531 0.0
O224 O 0.92361 0.01845 0.23802 0.0
Cd225 Cd 0.90735 0.01591 0.25868 0.0
Cd226 Cd 0.93629 0.00518 0.27665 0.0
O227 O 0.9476 0.01268 0.25279 0.0
O228 O 0.8883 0.02809 0.25038 0.0
O229 O 0.90778 0.03842 0.2754 0.0
C230 C 0.89467 0.04043 0.26408 0.0
C231 C 0.95023 0.01438 0.30769 0.0
C232 C 0.93962 0.01702 0.23844 0.0
C233 C 0.90117 0.97793 0.26787 0.0
O234 O 0.91784 0.98093 0.27301 0.0
O235 O 0.89423 0.99038 0.26282 0.0
O236 O 0.95572 1.00344 0.29649 0.0
O237 O 0.93738 0.02097 0.30106 0.0
O238 O 0.26726 0.62647 0.57599 0.0
Cd239 Cd 0.26707 0.61224 0.55102 0.0
Cd240 Cd 0.26747 0.64149 0.54067 0.0
O241 O 0.28338 0.64908 0.56526 0.0
O242 O 0.28068 0.59399 0.55259 0.0
O243 O 0.2891 0.61924 0.54019 0.0
C244 C 0.29247 0.60477 0.54531 0.0
C245 C 0.27258 0.65407 0.51455 0.0
C246 C 0.2771 0.64207 0.57879 0.0
C247 C 0.23392 0.61589 0.53724 0.0
O248 O 0.24125 0.63216 0.54216 0.0
O249 O 0.24329 0.60455 0.53535 0.0
O250 O 0.26881 0.66309 0.52876 0.0
O251 O 0.27453 0.63811 0.51558 0.0
O252 O 0.42257 0.51942 0.74225 0.0
Cd253 Cd 0.40568 0.51745 0.76236 0.0
Cd254 Cd 0.4354 0.50752 0.78224 0.0
O255 O 0.44675 0.51528 0.75829 0.0
O256 O 0.38624 0.52935 0.75377 0.0
O257 O 0.40604 0.54063 0.77828 0.0
C258 C 0.39268 0.54215 0.76701 0.0
C259 C 0.45 0.51573 0.81323 0.0
C260 C 0.43884 0.51867 0.74332 0.0
C261 C 0.40033 0.47959 0.77236 0.0
O262 O 0.4168 0.48327 0.77867 0.0
O263 O 0.39315 0.49151 0.76625 0.0
O264 O 0.45519 0.50509 0.80143 0.0
O265 O 0.43713 0.52262 0.80726 0.0
O266 O 0.68021 0.04321 0.73746 0.0
Cd267 Cd 0.69484 0.04236 0.7618 0.0
Cd268 Cd 0.6655 0.04102 0.77239 0.0
O269 O 0.65799 0.02577 0.74748 0.0
O270 O 0.71248 0.02833 0.75819 0.0
O271 O 0.68795 0.02004 0.77175 0.0
C272 C 0.70184 0.01639 0.76543 0.0
C273 C 0.65256 0.03496 0.79793 0.0
C274 C 0.66498 0.03265 0.73426 0.0
C275 C 0.69134 0.07449 0.77812 0.0
O276 O 0.67516 0.06745 0.77232 0.0
O277 O 0.70251 0.0649 0.77946 0.0
O278 O 0.64387 0.03958 0.78401 0.0
O279 O 0.66837 0.03257 0.79674 0.0
O280 O 0.77838 0.67611 0.05556 0.0
Cd281 Cd 0.77827 0.65943 0.03168 0.0
Cd282 Cd 0.76494 0.6865 0.01753 0.0
O283 O 0.77397 0.70041 0.04447 0.0
O284 O 0.79265 0.64323 0.04173 0.0
O285 O 0.80044 0.65895 0.0192 0.0
C286 C 0.80392 0.64806 0.03046 0.0
C287 C 0.76961 0.69749 0.98864 0.0
C288 C 0.77711 0.69217 0.05824 0.0
C289 C 0.73984 0.65018 0.01791 0.0
O290 O 0.74182 0.66672 0.01668 0.0
O291 O 0.75332 0.64372 0.02157 0.0
O292 O 0.75884 0.70274 0.99907 0.0
O293 O 0.77859 0.68674 0.99504 0.0
O294 O 0.88251 0.51788 0.78594 0.0
Cd295 Cd 0.87073 0.52143 0.80933 0.0
Cd296 Cd 0.89957 0.52004 0.82376 0.0
O297 O 0.90845 0.53092 0.80159 0.0
O298 O 0.85093 0.53189 0.80212 0.0
O299 O 0.87497 0.54602 0.82173 0.0
C300 C 0.86006 0.54625 0.81221 0.0
C301 C 0.91367 0.5294 0.85273 0.0
C302 C 0.89885 0.5251 0.78623 0.0
C303 C 0.87104 0.4886 0.82127 0.0
O304 O 0.8874 0.49365 0.81972 0.0
O305 O 0.86135 0.49971 0.8214 0.0
O306 O 0.921 0.52144 0.84043 0.0
O307 O 0.8985 0.53307 0.84813 0.0
O308 O 0.7868 0.42247 0.53854 0.0
Cd309 Cd 0.78386 0.43073 0.51284 0.0
Cd310 Cd 0.78722 0.40113 0.50414 0.0
O311 O 0.7742 0.39516 0.52597 0.0
O312 O 0.77233 0.45059 0.51437 0.0
O313 O 0.75957 0.42338 0.49959 0.0
C314 C 0.75856 0.43939 0.50527 0.0
C315 C 0.7807 0.38669 0.47505 0.0
C316 C 0.77953 0.40653 0.54024 0.0
C317 C 0.81781 0.42954 0.50546 0.0
O318 O 0.81311 0.41431 0.51053 0.0
O319 O 0.80605 0.43769 0.50053 0.0
O320 O 0.78733 0.37945 0.48838 0.0
O321 O 0.77637 0.40169 0.47874 0.0
O322 O 0.63222 0.52295 0.26777 0.0
Cd323 Cd 0.65006 0.52623 0.29142 0.0
Cd324 Cd 0.62362 0.54034 0.30679 0.0
O325 O 0.61022 0.53233 0.27936 0.0
O326 O 0.66781 0.51365 0.28193 0.0
O327 O 0.65272 0.50488 0.30451 0.0
C328 C 0.664 0.50229 0.29336 0.0
C329 C 0.61302 0.53359 0.3354 0.0
C330 C 0.61693 0.52632 0.26547 0.0
C331 C 0.65888 0.56566 0.30485 0.0
O332 O 0.64293 0.56375 0.30847 0.0
O333 O 0.66467 0.55218 0.29928 0.0
O334 O 0.6067 0.54417 0.32551 0.0
O335 O 0.62468 0.52602 0.32873 0.0
Tb336 Tb 0.05629 0.04388 0.05069 0.0
C337 C 0.99292 0.98491 0.00991 0.0
N338 N 1.00225 1.00054 0.00525 0.0
C339 C 1.00073 0.98661 0.97402 0.0
C340 C 0.98753 0.96946 0.99682 0.0
C341 C 1.00539 1.00169 0.98727 0.0
C342 C 0.99194 0.97038 0.97885 0.0
C343 C 0.97656 0.96917 0.03222 0.0
C344 C 0.98736 0.98471 0.02739 0.0
C345 C 0.97154 0.95375 0.01932 0.0
C346 C 0.97707 0.95385 0.00172 0.0
Tb347 Tb 1.00637 0.02441 0.0278 0.0
N348 N 0.99187 1.00003 0.03939 0.0
C349 C 0.97048 0.9698 0.04959 0.0
C350 C 0.98493 1.00103 0.05577 0.0
C351 C 0.97456 0.98587 0.06135 0.0
H352 H 0.01061 0.01427 0.9826 0.0
H353 H 0.96934 0.98669 0.07448 0.0
H354 H 0.04837 0.05328 0.09507 0.0
H355 H 0.09501 0.0835 0.00643 0.0
H356 H 0.98694 0.01362 0.06428 0.0
H357 H 0.96216 0.95813 0.05378 0.0
H358 H 0.07651 0.05612 0.01489 0.0
H359 H 1.00337 0.98766 0.95989 0.0
H360 H 0.96292 0.94184 0.02264 0.0
H361 H 0.97271 0.94193 0.99178 0.0
H362 H 0.05436 0.07938 0.11816 0.0
H363 H 0.98793 0.95884 0.96839 0.0
H364 H 0.10224 0.11123 0.02842 0.0
N365 N 0.05879 0.06737 0.07342 0.0
C366 C 0.06907 0.08301 0.0698 0.0
C367 C 0.05819 0.08071 0.10447 0.0
C368 C 0.0738 0.09818 0.0833 0.0
C369 C 0.05416 0.06592 0.09088 0.0
C370 C 0.0679 0.09695 0.10063 0.0
N371 N 0.0714 0.06869 0.04022 0.0
C372 C 0.07849 0.06841 0.02393 0.0
C373 C 0.08684 0.09942 0.04891 0.0
C374 C 0.0757 0.08365 0.05281 0.0
C375 C 0.09354 0.0994 0.03187 0.0
C376 C 0.08941 0.0838 0.01937 0.0
H377 H 0.07136 0.10827 0.11137 0.0
H378 H 0.08864 0.12563 0.08964 0.0
H379 H 0.09997 0.12674 0.05955 0.0
O380 O 0.08299 0.04351 0.04849 0.0
O381 O 0.04281 0.06436 0.03952 0.0
O382 O 0.01525 0.05204 0.02185 0.0
O383 O 0.07268 0.04137 0.07457 0.0
O384 O 0.05321 0.03033 0.02228 0.0
O385 O 0.0258 0.03316 0.00874 0.0
O386 O 0.98396 0.03255 0.03595 0.0
O387 O 0.01886 0.00619 0.04393 0.0
O388 O 0.04918 0.01436 0.04325 0.0
O389 O 0.984 0.02084 0.00797 0.0
O390 O 0.01243 0.04132 0.05459 0.0
O391 O 0.03644 0.03317 0.06837 0.0
C392 C 0.02847 0.06582 0.02868 0.0
C393 C 0.10033 0.03334 0.07219 0.0
C394 C 0.12548 0.02065 0.06614 0.0
C395 C 0.13069 0.02215 0.08532 0.0
C396 C 0.10571 0.03464 0.0913 0.0
C397 C 0.12076 0.02899 0.0978 0.0
C398 C 0.11017 0.02609 0.0596 0.0
C399 C 0.04219 0.03141 0.00776 0.0
C400 C 0.08665 0.04261 0.06602 0.0
C401 C 0.08481 0.11393 0.07937 0.0
C402 C 0.09129 0.11455 0.06225 0.0
C403 C 0.03473 1.00239 0.04543 0.0
C404 C 0.96651 0.04174 0.01247 0.0
C405 C 0.94379 0.05821 0.01589 0.0
C406 C 0.94664 0.06482 0.99906 0.0
C407 C 0.96967 0.04863 0.99576 0.0
C408 C 0.95376 0.0468 0.02257 0.0
C409 C 0.95972 0.06017 0.98913 0.0
C410 C 0.02098 0.03718 0.06921 0.0
C411 C 0.97534 0.02846 0.01932 0.0
H412 H 0.14244 0.01797 0.09064 0.0
H413 H 0.09862 0.04064 0.10123 0.0
H414 H 0.12493 0.03025 0.11254 0.0
H415 H 0.10646 0.0254 0.0448 0.0
H416 H 0.93879 0.07355 0.99369 0.0
H417 H 0.97955 0.04492 0.98773 0.0
H418 H 0.95118 0.04141 0.03539 0.0
H419 H 0.96197 0.06531 0.97617 0.0
Tb420 Tb 0.26051 0.78137 0.29857 0.0
C421 C 0.29727 0.74557 0.22646 0.0
N422 N 0.30431 0.75855 0.24088 0.0
C423 C 0.33184 0.74915 0.24268 0.0
C424 C 0.3072 0.73367 0.21977 0.0
C425 C 0.32149 0.76064 0.24884 0.0
C426 C 0.32466 0.73557 0.22812 0.0
C427 C 0.27201 0.73052 0.20382 0.0
C428 C 0.27996 0.7441 0.21849 0.0
C429 C 0.28189 0.71873 0.19703 0.0
C430 C 0.29944 0.72029 0.20499 0.0
Tb431 Tb 0.28645 0.77715 0.24896 0.0
N432 N 0.27068 0.75556 0.22568 0.0
C433 C 0.25431 0.72908 0.19655 0.0
C434 C 0.25349 0.75436 0.21827 0.0
C435 C 0.24502 0.74102 0.20386 0.0
H436 H 0.32751 0.77148 0.25963 0.0
H437 H 0.23133 0.74006 0.19828 0.0
H438 H 0.2209 0.78896 0.28634 0.0
H439 H 0.3063 0.80845 0.36106 0.0
H440 H 0.24607 0.76353 0.22324 0.0
H441 H 0.24772 0.71883 0.18531 0.0
H442 H 0.29061 0.78491 0.33596 0.0
H443 H 0.34542 0.75091 0.24904 0.0
H444 H 0.27603 0.70825 0.18574 0.0
H445 H 0.30687 0.71103 0.19966 0.0
H446 H 0.2054 0.81311 0.29195 0.0
H447 H 0.33273 0.72672 0.22335 0.0
H448 H 0.29667 0.83676 0.36559 0.0
N449 N 0.244 0.80179 0.3049 0.0
C450 C 0.25159 0.81573 0.31801 0.0
C451 C 0.21852 0.81416 0.29923 0.0
C452 C 0.24333 0.8299 0.32181 0.0
C453 C 0.22741 0.80053 0.29591 0.0
C454 C 0.22665 0.82908 0.31202 0.0
N455 N 0.27378 0.80053 0.32477 0.0
C456 C 0.28682 0.79749 0.33715 0.0
C457 C 0.27527 0.82876 0.34283 0.0
C458 C 0.26725 0.81518 0.32823 0.0
C459 C 0.29003 0.82663 0.35425 0.0
C460 C 0.29551 0.81068 0.35171 0.0
H461 H 0.21977 0.83962 0.31458 0.0
H462 H 0.24582 0.85525 0.33852 0.0
H463 H 0.27391 0.85428 0.35698 0.0
O464 O 0.26095 0.76062 0.31459 0.0
O465 O 0.26883 0.80636 0.2874 0.0
O466 O 0.28996 0.79645 0.27362 0.0
O467 O 0.23608 0.76558 0.30338 0.0
O468 O 0.28869 0.77834 0.30318 0.0
O469 O 0.30299 0.77602 0.27589 0.0
O470 O 0.28438 0.79319 0.22738 0.0
O471 O 0.27275 0.75085 0.25343 0.0
O472 O 0.26869 0.76877 0.2757 0.0
O473 O 0.31005 0.79096 0.2408 0.0
O474 O 0.26078 0.78609 0.24773 0.0
O475 O 0.24352 0.77634 0.2713 0.0
C476 C 0.2811 0.80871 0.27626 0.0
C477 C 0.23792 0.75559 0.3329 0.0
C478 C 0.24048 0.74395 0.3623 0.0
C479 C 0.22958 0.7546 0.36917 0.0
C480 C 0.22692 0.76619 0.33981 0.0
C481 C 0.22269 0.76556 0.35787 0.0
C482 C 0.24444 0.74429 0.34414 0.0
C483 C 0.30246 0.77613 0.29423 0.0
C484 C 0.2438 0.7568 0.31457 0.0
C485 C 0.25179 0.84409 0.33554 0.0
C486 C 0.26779 0.84355 0.34603 0.0
C487 C 0.26574 0.75247 0.26832 0.0
C488 C 0.31122 0.8092 0.21608 0.0
C489 C 0.31154 0.82346 0.18801 0.0
C490 C 0.33025 0.82781 0.19096 0.0
C491 C 0.32991 0.81385 0.21887 0.0
C492 C 0.30204 0.81428 0.20076 0.0
C493 C 0.33933 0.82305 0.20632 0.0
C494 C 0.24549 0.78263 0.25513 0.0
C495 C 0.30162 0.79739 0.22796 0.0
H496 H 0.22641 0.7544 0.38323 0.0
H497 H 0.2218 0.7751 0.33143 0.0
H498 H 0.21425 0.77374 0.36319 0.0
H499 H 0.25305 0.73616 0.33897 0.0
H500 H 0.3379 0.83512 0.18149 0.0
H501 H 0.33729 0.81001 0.23053 0.0
H502 H 0.28762 0.81044 0.19833 0.0
H503 H 0.35374 0.82649 0.20848 0.0
Tb504 Tb 0.50941 0.02358 0.55242 0.0
C505 C 0.57511 0.06519 0.51841 0.0
N506 N 0.56255 0.04993 0.51195 0.0
C507 C 0.55936 0.0601 0.48208 0.0
C508 C 0.5796 0.07881 0.50718 0.0
C509 C 0.55555 0.04688 0.49362 0.0
C510 C 0.57118 0.07627 0.48897 0.0
C511 C 0.59833 0.08167 0.54271 0.0
C512 C 0.58452 0.06661 0.53589 0.0
C513 C 0.60222 0.09561 0.53191 0.0
C514 C 0.59289 0.09417 0.51417 0.0
Tb515 Tb 0.55847 0.02934 0.53257 0.0
N516 N 0.5804 0.05294 0.54605 0.0
C517 C 0.60812 0.08201 0.55997 0.0
C518 C 0.59076 0.05254 0.56211 0.0
C519 C 0.60449 0.06725 0.56959 0.0
H520 H 0.5476 0.03408 0.48739 0.0
H521 H 0.61241 0.06708 0.5826 0.0
H522 H 0.51911 0.02396 0.59884 0.0
H523 H 0.46212 0.9773 0.50111 0.0
H524 H 0.58849 0.04079 0.56904 0.0
H525 H 0.61885 0.09333 0.56571 0.0
H526 H 0.48485 0.00477 0.51243 0.0
H527 H 0.55354 0.05761 0.4677 0.0
H528 H 0.61272 0.10734 0.53694 0.0
H529 H 0.59642 0.10479 0.50577 0.0
H530 H 0.51263 1.00268 0.62111 0.0
H531 H 0.57434 0.08636 0.47987 0.0
H532 H 0.45411 0.95455 0.52194 0.0
N533 N 0.50456 0.00593 0.57547 0.0
C534 C 0.49272 0.98999 0.56986 0.0
C535 C 0.50712 0.99887 0.60669 0.0
C536 C 0.48809 0.9777 0.58249 0.0
C537 C 0.51107 0.01081 0.59381 0.0
C538 C 0.49576 0.98218 0.60098 0.0
N539 N 0.48965 0.99801 0.53944 0.0
C540 C 0.48167 0.995 0.52157 0.0
C541 C 0.4721 0.96993 0.54545 0.0
C542 C 0.4848 0.98607 0.55146 0.0
C543 C 0.4641 0.96667 0.52703 0.0
C544 C 0.46874 0.97938 0.51514 0.0
H545 H 0.49258 0.97306 0.61106 0.0
H546 H 0.47194 0.95196 0.58595 0.0
H547 H 0.45766 0.94541 0.55373 0.0
O548 O 0.4849 0.02966 0.54311 0.0
O549 O 0.51781 0.99834 0.54263 0.0
O550 O 0.53999 1.00311 0.52291 0.0
O551 O 0.49731 0.03712 0.57163 0.0
O552 O 0.51804 0.03536 0.52857 0.0
O553 O 0.53515 0.02194 0.51184 0.0
O554 O 0.57821 0.01514 0.54125 0.0
O555 O 0.55416 0.05378 0.54953 0.0
O556 O 0.52355 0.05101 0.54869 0.0
O557 O 0.57531 0.02365 0.51389 0.0
O558 O 0.55061 0.01835 0.55754 0.0
O559 O 0.5324 0.03248 0.57281 0.0
C560 C 0.52762 0.99248 0.53046 0.0
C561 C 0.46718 0.03952 0.56552 0.0
C562 C 0.44289 0.05506 0.56492 0.0
C563 C 0.43781 0.04759 0.58083 0.0
C564 C 0.46175 0.03217 0.58129 0.0
C565 C 0.44709 0.03618 0.58884 0.0
C566 C 0.45755 0.05074 0.5572 0.0
C567 C 0.52017 0.02663 0.51332 0.0
C568 C 0.48432 0.03811 0.55928 0.0
C569 C 0.47566 0.96151 0.57642 0.0
C570 C 0.46758 0.95773 0.55802 0.0
C571 C 0.54019 0.06076 0.55173 0.0
C572 C 0.59933 0.00921 0.51924 0.0
C573 C 0.62131 0.99111 0.52206 0.0
C574 C 0.6273 0.9965 0.50561 0.0
C575 C 0.60576 0.01439 0.50285 0.0
C576 C 0.60737 0.99766 0.52907 0.0
C577 C 0.61962 0.0081 0.49616 0.0
C578 C 0.54747 0.02786 0.57209 0.0
C579 C 0.58408 0.01591 0.52522 0.0
H580 H 0.42655 0.05051 0.58708 0.0
H581 H 0.46912 0.02377 0.58807 0.0
H582 H 0.44308 0.03065 0.60115 0.0
H583 H 0.46202 0.05682 0.5453 0.0
H584 H 0.6381 0.99177 0.50011 0.0
H585 H 0.60003 0.02335 0.49506 0.0
H586 H 0.60263 0.99352 0.54172 0.0
H587 H 0.62439 0.01218 0.48352 0.0
Tb588 Tb 0.30541 0.26191 0.78156 0.0
C589 C 0.24317 0.28485 0.73746 0.0
N590 N 0.2527 0.29308 0.75389 0.0
C591 C 0.25436 0.32151 0.74308 0.0
C592 C 0.23949 0.29463 0.72293 0.0
C593 C 0.25735 0.31128 0.75721 0.0
C594 C 0.24568 0.31314 0.72576 0.0
C595 C 0.22449 0.25791 0.71963 0.0
C596 C 0.23577 0.26672 0.73575 0.0
C597 C 0.22157 0.26742 0.70476 0.0
C598 C 0.22909 0.28574 0.70639 0.0
Tb599 Tb 0.2569 0.27446 0.77548 0.0
N600 N 0.23902 0.25786 0.75032 0.0
C601 C 0.21605 0.23995 0.71921 0.0
C602 C 0.22973 0.24079 0.75059 0.0
C603 C 0.21848 0.23146 0.73489 0.0
H604 H 0.26317 0.31808 0.7708 0.0
H605 H 0.2117 0.21776 0.73488 0.0
H606 H 0.29504 0.21899 0.78835 0.0
H607 H 0.35423 0.31771 0.82022 0.0
H608 H 0.23124 0.23437 0.76283 0.0
H609 H 0.20728 0.23269 0.70709 0.0
H610 H 0.334 0.30132 0.79281 0.0
H611 H 0.25846 0.33588 0.74569 0.0
H612 H 0.21311 0.26085 0.69216 0.0
H613 H 0.22626 0.29302 0.69502 0.0
H614 H 0.29902 0.20151 0.81383 0.0
H615 H 0.24312 0.32113 0.71495 0.0
H616 H 0.35839 0.30301 0.84824 0.0
N617 N 0.30868 0.24385 0.80391 0.0
C618 C 0.31959 0.25182 0.81964 0.0
C619 C 0.30462 0.21572 0.8158 0.0
C620 C 0.32276 0.24217 0.83444 0.0
C621 C 0.302 0.22583 0.80146 0.0
C622 C 0.3148 0.22397 0.83249 0.0
N623 N 0.32526 0.27823 0.80571 0.0
C624 C 0.33491 0.29509 0.80524 0.0
C625 C 0.34002 0.27823 0.83638 0.0
C626 C 0.32816 0.26959 0.82057 0.0
C627 C 0.34912 0.2959 0.83639 0.0
C628 C 0.34675 0.30427 0.82063 0.0
H629 H 0.31694 0.21607 0.84351 0.0
H630 H 0.33665 0.24369 0.86202 0.0
H631 H 0.35173 0.27529 0.86374 0.0
O632 O 0.33193 0.26676 0.77498 0.0
O633 O 0.29315 0.26898 0.80672 0.0
O634 O 0.27538 0.28866 0.79983 0.0
O635 O 0.31331 0.24112 0.76621 0.0
O636 O 0.30619 0.28842 0.77305 0.0
O637 O 0.28014 0.29767 0.77902 0.0
O638 O 0.23854 0.26442 0.79359 0.0
O639 O 0.26444 0.25736 0.75276 0.0
O640 O 0.29425 0.26883 0.75535 0.0
O641 O 0.23502 0.28585 0.77875 0.0
O642 O 0.26184 0.25236 0.78974 0.0
O643 O 0.28142 0.2399 0.77473 0.0
C644 C 0.28569 0.28227 0.81157 0.0
C645 C 0.34318 0.244 0.75734 0.0
C646 C 0.36937 0.24813 0.7408 0.0
C647 C 0.3691 0.23002 0.7408 0.0
C648 C 0.34315 0.2259 0.75696 0.0
C649 C 0.35613 0.21902 0.74889 0.0
C650 C 0.35646 0.25521 0.74928 0.0
C651 C 0.29683 0.30066 0.77519 0.0
C652 C 0.3293 0.25082 0.76624 0.0
C653 C 0.33413 0.25086 0.85046 0.0
C654 C 0.34273 0.26886 0.85144 0.0
C655 C 0.27948 0.25963 0.74549 0.0
C656 C 0.2217 0.28391 0.80642 0.0
C657 C 0.19726 0.28518 0.82512 0.0
C658 C 0.20678 0.30211 0.83357 0.0
C659 C 0.23095 0.30071 0.81543 0.0
C660 C 0.20488 0.27599 0.81155 0.0
C661 C 0.22348 0.3097 0.82887 0.0
C662 C 0.26657 0.23832 0.78234 0.0
C663 C 0.22861 0.2755 0.79047 0.0
H664 H 0.37897 0.22436 0.73446 0.0
H665 H 0.33318 0.21706 0.76311 0.0
H666 H 0.35606 0.20507 0.7488 0.0
H667 H 0.35663 0.26921 0.74941 0.0
H668 H 0.20124 0.30952 0.8439 0.0
H669 H 0.24376 0.30709 0.81172 0.0
H670 H 0.19751 0.2631 0.80455 0.0
H671 H 0.2305 0.32278 0.83553 0.0
Tb672 Tb 0.04152 0.00568 0.53141 0.0
C673 C 0.02018 0.06927 0.57557 0.0
N674 N 0.01132 0.0586 0.56005 0.0
C675 C 0.98362 0.05755 0.57237 0.0
C676 C 0.01115 0.07394 0.59042 0.0
C677 C 0.99313 0.0538 0.55785 0.0
C678 C 0.99272 0.06738 0.58891 0.0
C679 C 0.04748 0.08936 0.59084 0.0
C680 C 0.03805 0.07695 0.57579 0.0
C681 C 0.03866 0.09372 0.60582 0.0
C682 C 0.02059 0.08588 0.60574 0.0
Tb683 Tb 0.02822 0.05366 0.53694 0.0
N684 N 0.04596 0.0729 0.56072 0.0
C685 C 0.06528 0.09756 0.58999 0.0
C686 C 0.06287 0.08192 0.5592 0.0
C687 C 0.07295 0.09397 0.57399 0.0
H688 H 0.98587 0.04801 0.54455 0.0
H689 H 0.08651 0.1007 0.57294 0.0
H690 H 0.08441 0.01375 0.52553 0.0
H691 H 0.9828 0.963 0.49026 0.0
H692 H 0.06856 0.0797 0.54662 0.0
H693 H 0.07301 0.1071 0.60133 0.0
H694 H 0.99912 0.98405 0.51679 0.0
H695 H 0.96924 0.05343 0.57054 0.0
H696 H 0.04554 0.10364 0.61723 0.0
H697 H 0.01386 0.08971 0.61722 0.0
H698 H 0.10231 0.0065 0.50131 0.0
H699 H 0.98528 0.0707 0.59997 0.0
H700 H 0.99888 0.9532 0.46521 0.0
N701 N 0.05962 1.00035 0.5099 0.0
C702 C 0.05146 0.98893 0.49458 0.0
C703 C 0.08799 1.00168 0.49911 0.0
C704 C 0.06127 0.98382 0.48063 0.0
C705 C 0.07772 0.00615 0.51266 0.0
C706 C 0.07971 0.9906 0.48293 0.0
N707 N 0.02419 0.98718 0.50682 0.0
C708 C 1.0063 0.98047 0.5059 0.0
C709 C 0.02438 0.96984 0.47755 0.0
C710 C 0.03322 0.98201 0.49306 0.0
C711 C 1.00606 0.96292 0.47664 0.0
C712 C 0.99697 0.96835 0.49081 0.0
H713 H 0.08772 0.98698 0.47254 0.0
H714 H 0.05979 0.96772 0.45426 0.0
H715 H 0.02756 0.95534 0.45169 0.0
O716 O 0.03565 0.97894 0.53732 0.0
O717 O 0.03474 0.01762 0.50606 0.0
O718 O 0.01415 0.03343 0.51407 0.0
O719 O 0.06164 0.99689 0.54679 0.0
O720 O 0.01652 0.0055 0.54273 0.0
O721 O 1.00541 0.02984 0.53499 0.0
O722 O 0.03604 0.07317 0.51809 0.0
O723 O 0.04628 0.0473 0.55964 0.0
O724 O 0.0358 0.01734 0.55803 0.0
O725 O 0.01308 0.072 0.5325 0.0
O726 O 0.05089 0.05005 0.52258 0.0
O727 O 0.06337 0.02979 0.537 0.0
C728 C 0.02127 0.02489 0.50152 0.0
C729 C 0.05763 0.96675 0.55517 0.0
C730 C 0.05247 0.93966 0.5704 0.0
C731 C 0.0707 0.94003 0.57114 0.0
C732 C 0.07578 0.96676 0.55633 0.0
C733 C 0.08222 0.95348 0.56422 0.0
C734 C 0.04589 0.95313 0.56235 0.0
C735 C 1.0034 0.01367 0.54027 0.0
C736 C 0.05141 0.98106 0.54642 0.0
C737 C 0.05247 0.97184 0.46509 0.0
C738 C 0.03409 0.9648 0.4636 0.0
C739 C 0.04456 0.03254 0.56737 0.0
C740 C 0.01766 0.09598 0.51375 0.0
C741 C 0.02032 0.12054 0.49437 0.0
C742 C 1.00566 0.12516 0.50162 0.0
C743 C 1.00301 0.10133 0.52045 0.0
C744 C 0.02653 0.10586 0.5006 0.0
C745 C 0.99715 0.11568 0.51448 0.0
C746 C 0.06489 0.04448 0.52904 0.0
C747 C 0.02273 0.0802 0.52126 0.0
H748 H 0.07606 0.92988 0.57726 0.0
H749 H 0.08501 0.97699 0.55093 0.0
H750 H 0.09623 0.95358 0.56494 0.0
H751 H 0.03186 0.95297 0.56164 0.0
H752 H 1.00072 0.1363 0.49727 0.0
H753 H 0.99586 0.09439 0.5305 0.0
H754 H 0.03783 0.10211 0.49518 0.0
H755 H 0.98587 0.11949 0.51986 0.0
Tb756 Tb 0.27901 0.80004 0.75616 0.0
C757 C 0.23904 0.73424 0.79131 0.0
N758 N 0.25435 0.74661 0.79791 0.0
C759 C 0.24405 0.75033 0.82755 0.0
C760 C 0.2254 0.72982 0.80249 0.0
C761 C 0.25723 0.75427 0.81596 0.0
C762 C 0.22801 0.73819 0.82076 0.0
C763 C 0.2215 0.71293 0.76592 0.0
C764 C 0.23704 0.72596 0.77319 0.0
C765 C 0.20778 0.70868 0.77695 0.0
C766 C 0.20971 0.71712 0.79517 0.0
Tb767 Tb 0.27446 0.75161 0.77722 0.0
N768 N 0.25041 0.7307 0.76272 0.0
C769 C 0.22039 0.70439 0.74789 0.0
C770 C 0.24996 0.72155 0.74574 0.0
C771 C 0.23481 0.70852 0.73787 0.0
H772 H 0.26979 0.76306 0.82172 0.0
H773 H 0.23439 0.70146 0.72422 0.0
H774 H 0.2791 0.78987 0.71069 0.0
H775 H 0.32272 0.85083 0.80631 0.0
H776 H 0.26152 0.72388 0.73857 0.0
H777 H 0.2087 0.69424 0.7418 0.0
H778 H 0.29562 0.82749 0.79463 0.0
H779 H 0.24637 0.75654 0.8418 0.0
H780 H 0.19569 0.69875 0.77158 0.0
H781 H 0.19906 0.71358 0.80355 0.0
H782 H 0.3001 0.79666 0.68792 0.0
H783 H 0.21786 0.73513 0.82982 0.0
H784 H 0.34596 0.85886 0.78588 0.0
N785 N 0.29681 0.80577 0.73339 0.0
C786 C 0.31235 0.81819 0.73861 0.0
C787 C 0.3038 0.80265 0.7022 0.0
C788 C 0.32459 0.8228 0.72597 0.0
C789 C 0.29204 0.7986 0.71525 0.0
C790 C 0.32026 0.8146 0.70764 0.0
N791 N 0.30358 0.82186 0.76831 0.0
C792 C 0.30569 0.83072 0.78577 0.0
C793 C 0.33146 0.83999 0.76256 0.0
C794 C 0.31573 0.82674 0.75659 0.0
C795 C 0.33405 0.8486 0.78074 0.0
C796 C 0.321 0.84407 0.79233 0.0
H797 H 0.3293 0.81777 0.69748 0.0
H798 H 0.35017 0.83929 0.72246 0.0
H799 H 0.3562 0.85429 0.75454 0.0
O800 O 0.26682 0.82059 0.76612 0.0
O801 O 0.30497 0.7956 0.76969 0.0
O802 O 0.30193 0.76726 0.77915 0.0
O803 O 0.26659 0.8128 0.73696 0.0
O804 O 0.26819 0.79246 0.78085 0.0
O805 O 0.28332 0.77579 0.79689 0.0
O806 O 0.28378 0.72832 0.77005 0.0
O807 O 0.24931 0.76078 0.76936 0.0
O808 O 0.25421 0.77902 0.74631 0.0
O809 O 0.284 0.73889 0.79884 0.0
O810 O 0.28453 0.75422 0.75056 0.0
O811 O 0.27223 0.77539 0.73816 0.0
C812 C 0.31168 0.78282 0.77653 0.0
C813 C 0.26137 0.84131 0.74485 0.0
C814 C 0.24602 0.86563 0.74596 0.0
C815 C 0.25386 0.87143 0.73054 0.0
C816 C 0.26946 0.8477 0.72974 0.0
C817 C 0.26566 0.86263 0.72265 0.0
C818 C 0.24994 0.85062 0.75319 0.0
C819 C 0.27761 0.79037 0.7958 0.0
C820 C 0.26164 0.82324 0.74934 0.0
C821 C 0.34053 0.83568 0.73193 0.0
C822 C 0.34396 0.84425 0.75019 0.0
C823 C 0.24324 0.76917 0.75601 0.0
C824 C 0.29589 0.71238 0.79381 0.0
C825 C 0.31195 0.68867 0.78902 0.0
C826 C 0.31255 0.68697 0.80795 0.0
C827 C 0.2967 0.7102 0.81268 0.0
C828 C 0.30358 0.70146 0.78186 0.0
C829 C 0.30497 0.69762 0.81965 0.0
C830 C 0.28144 0.76335 0.73696 0.0
C831 C 0.288 0.72684 0.78739 0.0
H832 H 0.25092 0.88286 0.72467 0.0
H833 H 0.27811 0.84071 0.72286 0.0
H834 H 0.27158 0.86719 0.71073 0.0
H835 H 0.24334 0.84563 0.76459 0.0
H836 H 0.31894 0.6773 0.81372 0.0
H837 H 0.29106 0.71837 0.82218 0.0
H838 H 0.30323 0.70299 0.76729 0.0
H839 H 0.30556 0.69617 0.83423 0.0
Tb840 Tb 0.52734 0.03868 0.01404 0.0
C841 C 0.55594 1.00103 0.08565 0.0
N842 N 0.5421 0.99275 0.07254 0.0
C843 C 0.5528 0.96598 0.07154 0.0
C844 C 0.56931 0.9924 0.0915 0.0
C845 C 0.5402 0.97532 0.06573 0.0
C846 C 0.56756 0.97463 0.0843 0.0
C847 C 0.57191 0.02816 0.10501 0.0
C848 C 0.5572 0.01863 0.09226 0.0
C849 C 0.58549 0.01977 0.11061 0.0
C850 C 0.58416 1.00191 0.10391 0.0
Tb851 Tb 0.52423 0.00998 0.06086 0.0
N852 N 0.54431 0.02656 0.08552 0.0
C853 C 0.57255 0.04582 0.11167 0.0
C854 C 0.54404 0.04317 0.09361 0.0
C855 C 0.5583 0.05318 0.10633 0.0
H856 H 0.52892 0.96857 0.05578 0.0
H857 H 0.55817 0.06653 0.11215 0.0
H858 H 0.52219 0.07886 0.02859 0.0
H859 H 0.48767 0.98675 0.96099 0.0
H860 H 0.5328 0.04883 0.09101 0.0
H861 H 0.58365 0.05365 0.12139 0.0
H862 H 0.50943 0.99835 0.98802 0.0
H863 H 0.55124 0.9522 0.06597 0.0
H864 H 0.59703 0.02696 0.12016 0.0
H865 H 0.59473 0.9956 0.10834 0.0
H866 H 0.5027 0.09848 0.01963 0.0
H867 H 0.57752 0.96749 0.08845 0.0
H868 H 0.46987 0.006 0.94737 0.0
N869 N 0.51007 0.05795 0.00689 0.0
C870 C 0.49752 0.05243 0.99185 0.0
C871 C 0.50108 0.08554 0.01171 0.0
C872 C 0.4861 0.06325 0.98622 0.0
C873 C 0.51202 0.07429 0.01684 0.0
C874 C 0.48806 0.08001 0.99633 0.0
N875 N 0.50571 0.02487 0.98975 0.0
C876 C 0.50257 0.0074 0.98229 0.0
C877 C 0.48194 0.02885 0.96769 0.0
C878 C 0.49541 0.0354 0.98283 0.0
C879 C 0.47968 0.01138 0.95935 0.0
C880 C 0.48981 1.00053 0.9669 0.0
H881 H 0.47952 0.0887 0.99248 0.0
H882 H 0.46391 0.06496 0.9665 0.0
H883 H 0.46034 0.03484 0.95018 0.0
O884 O 0.54745 0.03779 0.9973 0.0
O885 O 0.5004 0.03083 0.02028 0.0
O886 O 0.50997 0.01026 0.03409 0.0
O887 O 0.54289 0.06288 0.00854 0.0
O888 O 0.53366 0.01164 0.00961 0.0
O889 O 0.52591 0.99388 0.03373 0.0
O890 O 0.50393 0.01117 0.07735 0.0
O891 O 0.55169 0.01711 0.05557 0.0
O892 O 0.53908 0.03292 0.03924 0.0
O893 O 0.50798 0.98599 0.06609 0.0
O894 O 0.51652 0.03657 0.06278 0.0
O895 O 0.53145 0.05398 0.04222 0.0
C896 C 0.49729 0.01837 0.0308 0.0
C897 C 0.55196 0.06076 0.97882 0.0
C898 C 0.56186 0.05706 0.94877 0.0
C899 C 0.55333 0.0701 0.94301 0.0
C900 C 0.54349 0.07394 0.97316 0.0
C901 C 0.54427 0.07861 0.95527 0.0
C902 C 0.56128 0.05258 0.96663 0.0
C903 C 0.5316 0.99627 0.0171 0.0
C904 C 0.55124 0.05495 0.99712 0.0
C905 C 0.47284 0.05686 0.971 0.0
C906 C 0.47082 0.03972 0.9617 0.0
C907 C 0.5537 0.02831 0.04392 0.0
C908 C 0.49813 0.98796 0.09562 0.0
C909 C 0.48919 0.9923 0.12628 0.0
C910 C 0.49486 0.97709 0.13068 0.0
C911 C 0.50363 0.97267 0.10009 0.0
C912 C 0.49074 0.99758 0.10873 0.0
C913 C 0.50197 0.96729 0.11758 0.0
C914 C 0.52164 0.05209 0.05613 0.0
C915 C 0.49962 0.99404 0.07739 0.0
H916 H 0.55397 0.0739 0.92922 0.0
H917 H 0.53628 0.08056 0.98243 0.0
H918 H 0.53787 0.08882 0.95092 0.0
H919 H 0.56795 0.0425 0.97098 0.0
H920 H 0.49342 0.97258 0.14408 0.0
H921 H 0.50916 0.96485 0.09014 0.0
H922 H 0.48627 0.00928 0.10532 0.0
H923 H 0.50611 0.95546 0.12096 0.0
Tb924 Tb 0.26172 0.245 0.25785 0.0
C925 C 0.32291 0.31005 0.30269 0.0
N926 N 0.307 0.30197 0.30754 0.0
C927 C 0.3194 0.30824 0.33968 0.0
C928 C 0.33778 0.31743 0.31617 0.0
C929 C 0.30499 0.30149 0.32585 0.0
C930 C 0.33593 0.31611 0.33481 0.0
C931 C 0.33994 0.32127 0.27873 0.0
C932 C 0.32402 0.31183 0.28423 0.0
C933 C 0.35483 0.32845 0.29204 0.0
C934 C 0.35378 0.32643 0.31071 0.0
Tb935 Tb 0.28391 0.29242 0.28385 0.0
N936 N 0.30923 0.30498 0.27179 0.0
C937 C 0.34024 0.32372 0.26011 0.0
C938 C 0.30946 0.30796 0.25376 0.0
C939 C 0.32496 0.31686 0.24755 0.0
H940 H 0.2919 0.29706 0.32983 0.0
H941 H 0.32494 0.31886 0.23314 0.0
H942 H 0.25411 0.24999 0.2127 0.0
H943 H 0.21761 0.21917 0.30614 0.0
H944 H 0.29771 0.30427 0.24418 0.0
H945 H 0.35194 0.33137 0.25538 0.0
H946 H 0.24549 0.23592 0.29739 0.0
H947 H 0.31759 0.30783 0.35411 0.0
H948 H 0.36712 0.33584 0.28811 0.0
H949 H 0.3653 0.33226 0.32087 0.0
H950 H 0.22876 0.24183 0.18812 0.0
H951 H 0.34701 0.32166 0.34557 0.0
H952 H 0.19159 0.2073 0.28223 0.0
N953 N 0.23902 0.24069 0.23395 0.0
C954 C 0.22289 0.23181 0.2378 0.0
C955 C 0.22687 0.23915 0.20209 0.0
C956 C 0.20819 0.22607 0.22384 0.0
C957 C 0.24118 0.24426 0.21628 0.0
C958 C 0.21032 0.22997 0.20586 0.0
N959 N 0.23562 0.23406 0.26899 0.0
C960 C 0.23437 0.23103 0.2869 0.0
C961 C 0.20493 0.21842 0.26018 0.0
C962 C 0.22126 0.22802 0.25577 0.0
C963 C 0.20376 0.21501 0.27844 0.0
C964 C 0.21845 0.22158 0.29192 0.0
H965 H 0.19937 0.22572 0.19474 0.0
H966 H 0.18057 0.21166 0.21756 0.0
H967 H 0.17772 0.20497 0.24939 0.0
O968 O 0.26759 0.22106 0.26483 0.0
O969 O 0.24316 0.26197 0.26637 0.0
O970 O 0.25824 0.27983 0.2926 0.0
O971 O 0.25718 0.22334 0.23711 0.0
O972 O 0.27545 0.24511 0.28595 0.0
O973 O 0.27755 0.27255 0.30306 0.0
O974 O 0.27604 0.31519 0.2745 0.0
O975 O 0.30361 0.27643 0.27679 0.0
O976 O 0.28957 0.25546 0.25175 0.0
O977 O 0.282 0.31264 0.30369 0.0
O978 O 0.26794 0.28908 0.25617 0.0
O979 O 0.27329 0.26437 0.24043 0.0
C980 C 0.24317 0.27233 0.28196 0.0
C981 C 0.27512 0.20286 0.2402 0.0
C982 C 0.29349 0.18172 0.24422 0.0
C983 C 0.29594 0.18098 0.22547 0.0
C984 C 0.27747 0.20191 0.22131 0.0
C985 C 0.28785 0.191 0.21404 0.0
C986 C 0.28302 0.19252 0.25151 0.0
C987 C 0.27791 0.25553 0.30191 0.0
C988 C 0.26321 0.21321 0.24784 0.0
C989 C 0.19195 0.21634 0.22815 0.0
C990 C 0.19033 0.21248 0.24626 0.0
C991 C 0.30424 0.26477 0.26245 0.0
C992 C 0.27499 0.34003 0.29799 0.0
C993 C 0.26009 0.36394 0.29428 0.0
C994 C 0.2675 0.37197 0.31228 0.0
C995 C 0.28243 0.34825 0.31597 0.0
C996 C 0.26406 0.3481 0.287 0.0
C997 C 0.27873 0.36419 0.32301 0.0
C998 C 0.26994 0.28015 0.24054 0.0
C999 C 0.27756 0.3224 0.29167 0.0
H1000 H 0.3038 0.1724 0.21965 0.0
H1001 H 0.27112 0.20937 0.21208 0.0
H1002 H 0.28948 0.19019 0.19949 0.0
H1003 H 0.28094 0.19276 0.26597 0.0
H1004 H 0.26461 0.38431 0.31798 0.0
H1005 H 0.29094 0.34224 0.3247 0.0
H1006 H 0.25809 0.34178 0.27321 0.0
H1007 H 0.2844 0.37039 0.33689 0.0
Tb1008 Tb 0.54568 0.50042 0.03398 0.0
C1009 C 0.51936 0.5677 0.07479 0.0
N1010 N 0.51148 0.55699 0.05898 0.0
C1011 C 0.4827 0.55834 0.06738 0.0
C1012 C 0.50921 0.57382 0.08784 0.0
C1013 C 0.49339 0.55265 0.05486 0.0
C1014 C 0.49064 0.56882 0.08405 0.0
C1015 C 0.54654 0.58411 0.09381 0.0
C1016 C 0.5377 0.5727 0.07776 0.0
C1017 C 0.53654 0.58997 0.10708 0.0
C1018 C 0.51791 0.58479 0.10413 0.0
Tb1019 Tb 0.53005 0.54707 0.0403 0.0
N1020 N 0.54687 0.5661 0.06498 0.0
C1021 C 0.56514 0.5891 0.09611 0.0
C1022 C 0.56497 0.5716 0.0668 0.0
C1023 C 0.57438 0.58297 0.08241 0.0
H1024 H 0.48716 0.5447 0.04191 0.0
H1025 H 0.58876 0.58702 0.08384 0.0
H1026 H 0.58828 0.50964 0.02665 0.0
H1027 H 0.48586 0.46269 0.99065 0.0
H1028 H 0.57227 0.5674 0.0563 0.0
H1029 H 0.57246 0.5978 0.10825 0.0
H1030 H 0.50277 0.48387 0.01689 0.0
H1031 H 0.46836 0.55462 0.06417 0.0
H1032 H 0.54309 0.59854 0.11963 0.0
H1033 H 0.51034 0.58948 0.11442 0.0
H1034 H 0.60594 0.50146 0.00255 0.0
H1035 H 0.48234 0.57317 0.09374 0.0
H1036 H 0.50166 0.45028 0.96681 0.0
N1037 N 0.56351 0.49477 0.01215 0.0
C1038 C 0.55522 0.48315 0.99704 0.0
C1039 C 0.59165 0.49634 1.00072 0.0
C1040 C 0.56487 0.47763 0.98314 0.0
C1041 C 0.58154 0.50131 0.0142 0.0
C1042 C 0.58329 0.48444 0.98512 0.0
N1043 N 0.52803 0.48329 0.00868 0.0
C1044 C 0.50991 0.4784 0.00697 0.0
C1045 C 0.52775 0.46508 0.97983 0.0
C1046 C 0.53691 0.47699 0.99538 0.0
C1047 C 0.5092 0.45963 0.97836 0.0
C1048 C 0.50024 0.46652 0.99186 0.0
H1049 H 0.59119 0.48051 0.97476 0.0
H1050 H 0.56304 0.46096 0.95705 0.0
H1051 H 0.53058 0.44971 0.95436 0.0
O1052 O 0.53685 0.47732 0.04747 0.0
O1053 O 0.53837 0.51215 0.0087 0.0
O1054 O 0.51704 0.52547 0.01845 0.0
O1055 O 0.56386 0.48531 0.04088 0.0
O1056 O 0.52103 0.49954 0.04687 0.0
O1057 O 0.50827 0.52335 0.04056 0.0
O1058 O 0.54146 0.56867 0.02634 0.0
O1059 O 0.53864 0.53739 0.06669 0.0
O1060 O 0.55715 0.51876 0.05923 0.0
O1061 O 0.51319 0.55966 0.02506 0.0
O1062 O 0.5536 0.54449 0.02676 0.0
O1063 O 0.567 0.52468 0.04049 0.0
C1064 C 0.52501 0.51969 0.00501 0.0
C1065 C 0.55803 0.45867 0.05572 0.0
C1066 C 0.55347 0.43334 0.07348 0.0
C1067 C 0.57038 0.43094 0.07051 0.0
C1068 C 0.57493 0.45582 0.05298 0.0
C1069 C 0.581 0.44209 0.06031 0.0
C1070 C 0.54718 0.44723 0.06602 0.0
C1071 C 0.5076 0.50753 0.04628 0.0
C1072 C 0.55258 0.47391 0.04804 0.0
C1073 C 0.55585 0.46549 0.96779 0.0
C1074 C 0.53735 0.45912 0.96622 0.0
C1075 C 0.54972 0.52735 0.07148 0.0
C1076 C 0.52368 0.58956 0.01942 0.0
C1077 C 0.52573 0.61624 0.00344 0.0
C1078 C 0.51477 0.62233 0.01546 0.0
C1079 C 0.51298 0.59627 0.03137 0.0
C1080 C 0.5302 0.59975 0.00546 0.0
C1081 C 0.50854 0.61248 0.02933 0.0
C1082 C 0.56795 0.53941 0.03286 0.0
C1083 C 0.52604 0.5711 0.01986 0.0
H1084 H 0.57538 0.42033 0.0761 0.0
H1085 H 0.58358 0.46427 0.04515 0.0
H1086 H 0.59403 0.4401 0.0581 0.0
H1087 H 0.53415 0.44918 0.06833 0.0
H1088 H 0.51093 0.63476 0.01403 0.0
H1089 H 0.50761 0.58875 0.04199 0.0
H1090 H 0.53822 0.59464 0.99592 0.0
H1091 H 0.5 0.61733 0.0384 0.0
Tb1092 Tb 0.78472 0.29818 0.26655 0.0
C1093 C 0.74215 0.22966 0.29764 0.0
N1094 N 0.75729 0.24221 0.30462 0.0
C1095 C 0.74746 0.24334 0.33473 0.0
C1096 C 0.72877 0.22412 0.30888 0.0
C1097 C 0.76043 0.24834 0.32316 0.0
C1098 C 0.73146 0.23137 0.32752 0.0
C1099 C 0.72459 0.20904 0.27164 0.0
C1100 C 0.74012 0.22202 0.2792 0.0
C1101 C 0.71118 0.20378 0.28276 0.0
C1102 C 0.71326 0.21128 0.3013 0.0
Tb1103 Tb 0.77731 0.248 0.28383 0.0
N1104 N 0.75314 0.22766 0.26856 0.0
C1105 C 0.72298 0.20176 0.25308 0.0
C1106 C 0.75203 0.21994 0.25076 0.0
C1107 C 0.7368 0.20716 0.24264 0.0
H1108 H 0.77308 0.25658 0.32946 0.0
H1109 H 0.73581 0.20126 0.22842 0.0
H1110 H 0.78577 0.28844 0.22008 0.0
H1111 H 0.82945 0.34749 0.31679 0.0
H1112 H 0.76312 0.2231 0.24309 0.0
H1113 H 0.71125 0.19178 0.24676 0.0
H1114 H 0.80138 0.32543 0.30481 0.0
H1115 H 0.74997 0.24845 0.34931 0.0
H1116 H 0.69916 0.19385 0.27716 0.0
H1117 H 0.70285 0.20694 0.30974 0.0
H1118 H 0.80818 0.29282 0.19898 0.0
H1119 H 0.72152 0.22742 0.33658 0.0
H1120 H 0.85431 0.35194 0.29789 0.0
N1121 N 0.80392 0.3005 0.24448 0.0
C1122 C 0.82034 0.31129 0.25065 0.0
C1123 C 0.81191 0.29773 0.21355 0.0
C1124 C 0.83334 0.31504 0.23854 0.0
C1125 C 0.79929 0.29478 0.22588 0.0
C1126 C 0.82909 0.30764 0.21995 0.0
N1127 N 0.81066 0.31694 0.27993 0.0
C1128 C 0.81228 0.3271 0.29668 0.0
C1129 C 0.83989 0.33251 0.27498 0.0
C1130 C 0.82367 0.32003 0.26873 0.0
C1131 C 0.84209 0.34214 0.29266 0.0
C1132 C 0.82811 0.33963 0.30342 0.0
H1133 H 0.83869 0.31026 0.21024 0.0
H1134 H 0.85994 0.32977 0.23591 0.0
H1135 H 0.86564 0.34505 0.26777 0.0
O1136 O 0.77307 0.31865 0.27721 0.0
O1137 O 0.80731 0.29205 0.285 0.0
O1138 O 0.8048 0.26159 0.27974 0.0
O1139 O 0.78193 0.31843 0.25049 0.0
O1140 O 0.77128 0.28808 0.28908 0.0
O1141 O 0.78488 0.27056 0.3054 0.0
O1142 O 0.78431 0.22356 0.27544 0.0
O1143 O 0.75218 0.25573 0.2724 0.0
O1144 O 0.75672 0.28228 0.25855 0.0
O1145 O 0.78863 0.23562 0.30441 0.0
O1146 O 0.78895 0.25734 0.26004 0.0
O1147 O 0.77553 0.27584 0.24512 0.0
C1148 C 0.81441 0.27797 0.28554 0.0
C1149 C 0.7577 0.33145 0.2544 0.0
C1150 C 0.73887 0.35278 0.25468 0.0
C1151 C 0.72999 0.3444 0.23729 0.0
C1152 C 0.74839 0.32303 0.23715 0.0
C1153 C 0.73462 0.32951 0.22869 0.0
C1154 C 0.75266 0.34617 0.26329 0.0
C1155 C 0.77934 0.2852 0.30452 0.0
C1156 C 0.77379 0.32624 0.26223 0.0
C1157 C 0.84983 0.32682 0.24504 0.0
C1158 C 0.85308 0.33555 0.26318 0.0
C1159 C 0.74616 0.2677 0.26311 0.0
C1160 C 0.79676 0.20741 0.29882 0.0
C1161 C 0.81287 0.18392 0.29441 0.0
C1162 C 0.80989 0.17957 0.31213 0.0
C1163 C 0.79397 0.20277 0.31651 0.0
C1164 C 0.80616 0.19782 0.28763 0.0
C1165 C 0.80046 0.1889 0.32307 0.0
C1166 C 0.77974 0.26056 0.24551 0.0
C1167 C 0.78991 0.22239 0.29256 0.0
H1168 H 0.7194 0.34937 0.2304 0.0
H1169 H 0.75202 0.31171 0.22999 0.0
H1170 H 0.72769 0.32312 0.21529 0.0
H1171 H 0.75987 0.35287 0.2765 0.0
H1172 H 0.81499 0.16894 0.31755 0.0
H1173 H 0.78671 0.20986 0.3253 0.0
H1174 H 0.80852 0.20133 0.274 0.0
H1175 H 0.79825 0.18544 0.33673 0.0
Tb1176 Tb 0.02503 0.54575 0.5199 0.0
C1177 C 0.05944 0.51001 0.58998 0.0
N1178 N 0.04512 0.50191 0.57741 0.0
C1179 C 0.05313 0.47388 0.5786 0.0
C1180 C 0.07135 0.50032 0.59722 0.0
C1181 C 0.04175 0.48405 0.57178 0.0
C1182 C 0.06801 0.48205 0.59138 0.0
C1183 C 0.07796 0.53726 0.60712 0.0
C1184 C 0.06266 0.52824 0.59485 0.0
C1185 C 0.08962 0.52763 0.61473 0.0
C1186 C 0.08634 0.5092 0.60976 0.0
Tb1187 Tb 0.02718 0.51951 0.56711 0.0
N1188 N 0.05149 0.53721 0.58649 0.0
C1189 C 0.08141 0.55577 0.61097 0.0
C1190 C 0.05533 0.55541 0.58982 0.0
C1191 C 0.0701 0.56487 0.60218 0.0
H1192 H 0.03005 0.47749 0.56228 0.0
H1193 H 0.07289 0.57926 0.60467 0.0
H1194 H 0.02326 0.58819 0.52617 0.0
H1195 H 0.98258 0.48908 0.47447 0.0
H1196 H 0.04762 0.56301 0.58273 0.0
H1197 H 0.093 0.56319 0.62031 0.0
H1198 H 1.00405 0.50315 0.50112 0.0
H1199 H 0.05037 0.45973 0.57406 0.0
H1200 H 0.10141 0.53435 0.62417 0.0
H1201 H 0.09563 0.50199 0.61547 0.0
H1202 H 1.00435 0.60713 0.51396 0.0
H1203 H 0.07687 0.47415 0.59658 0.0
H1204 H 0.96617 0.5071 0.45674 0.0
N1205 N 0.00877 0.56464 0.50901 0.0
C1206 C 0.99534 0.55749 0.49514 0.0
C1207 C 1.0016 0.59316 0.50858 0.0
C1208 C 0.98444 0.56792 0.48741 0.0
C1209 C 0.01212 0.58231 0.51566 0.0
C1210 C 0.98765 0.58593 0.49442 0.0
N1211 N 1.0021 0.5297 0.49791 0.0
C1212 C 0.99799 0.5116 0.49332 0.0
C1213 C 0.97851 0.53162 0.47447 0.0
C1214 C 0.99221 0.53953 0.48905 0.0
C1215 C 0.97579 0.51347 0.46856 0.0
C1216 C 0.98524 0.50333 0.47834 0.0
H1217 H 0.97951 0.59436 0.48894 0.0
H1218 H 0.96209 0.56782 0.46701 0.0
H1219 H 0.95712 0.53603 0.45541 0.0
O1220 O 0.04313 0.54264 0.50107 0.0
O1221 O 0.99909 0.53795 0.52852 0.0
O1222 O 0.00908 0.51737 0.54206 0.0
O1223 O 0.04134 0.56866 0.51262 0.0
O1224 O 0.03203 0.51924 0.51612 0.0
O1225 O 0.02644 0.50191 0.54071 0.0
O1226 O 0.01464 0.52195 0.59113 0.0
O1227 O 0.05237 0.5258 0.55722 0.0
O1228 O 0.0416 0.54653 0.54537 0.0
O1229 O 0.01096 0.49631 0.57414 0.0
O1230 O 0.01813 0.54502 0.57037 0.0
O1231 O 0.02516 0.5627 0.54641 0.0
C1232 C 0.99647 0.52576 0.53947 0.0
C1233 C 0.04906 0.56557 0.48226 0.0
C1234 C 0.05924 0.56238 0.45213 0.0
C1235 C 0.05251 0.57694 0.44746 0.0
C1236 C 0.04244 0.5802 0.47753 0.0
C1237 C 0.04418 0.58582 0.46016 0.0
C1238 C 0.05752 0.5568 0.46953 0.0
C1239 C 0.03116 0.50421 0.52382 0.0
C1240 C 0.04823 0.5597 0.50063 0.0
C1241 C 0.97064 0.56005 0.47308 0.0
C1242 C 0.96782 0.54197 0.46646 0.0
C1243 C 0.0545 0.53843 0.54696 0.0
C1244 C 0.99661 0.49622 0.60192 0.0
C1245 C 0.98066 0.4984 0.62842 0.0
C1246 C 0.97752 0.47992 0.62838 0.0
C1247 C 0.99338 0.47769 0.60186 0.0
C1248 C 0.99019 0.50655 0.61524 0.0
C1249 C 0.98387 0.4696 0.6151 0.0
C1250 C 0.01915 0.56004 0.56264 0.0
C1251 C 0.00787 0.50489 0.58912 0.0
H1252 H 0.05408 0.58171 0.43419 0.0
H1253 H 0.03612 0.58742 0.48722 0.0
H1254 H 0.03924 0.59719 0.45661 0.0
H1255 H 0.06287 0.54566 0.47321 0.0
H1256 H 0.97022 0.47355 0.63865 0.0
H1257 H 0.99853 0.46953 0.59186 0.0
H1258 H 0.99269 0.52088 0.61552 0.0
H1259 H 0.98156 0.45536 0.61517 0.0
Tb1260 Tb 0.8002 0.76489 0.28639 0.0
C1261 C 0.73625 0.78598 0.24236 0.0
N1262 N 0.74552 0.79448 0.25878 0.0
C1263 C 0.74458 0.82274 0.24876 0.0
C1264 C 0.73131 0.79565 0.22821 0.0
C1265 C 0.74842 0.81253 0.26262 0.0
C1266 C 0.73633 0.81425 0.23131 0.0
C1267 C 0.71798 0.75863 0.22497 0.0
C1268 C 0.72978 0.76766 0.24063 0.0
C1269 C 0.71349 0.76816 0.21064 0.0
C1270 C 0.7204 0.78656 0.21208 0.0
Tb1271 Tb 0.75143 0.77634 0.28004 0.0
N1272 N 0.73382 0.75897 0.25511 0.0
C1273 C 0.71018 0.74053 0.22471 0.0
C1274 C 0.72496 0.74178 0.25569 0.0
C1275 C 0.71345 0.73214 0.24029 0.0
H1276 H 0.75321 0.81899 0.27655 0.0
H1277 H 0.70689 0.71837 0.24055 0.0
H1278 H 0.79273 0.7218 0.29198 0.0
H1279 H 0.8426 0.8233 0.32817 0.0
H1280 H 0.72697 0.73553 0.26796 0.0
H1281 H 0.70104 0.73312 0.2129 0.0
H1282 H 0.82293 0.80678 0.30063 0.0
H1283 H 0.74744 0.83709 0.25173 0.0
H1284 H 0.70402 0.76157 0.19878 0.0
H1285 H 0.71638 0.79376 0.2011 0.0
H1286 H 0.79847 0.70402 0.31678 0.0
H1287 H 0.73286 0.82216 0.22076 0.0
H1288 H 0.8496 0.8077 0.35478 0.0
N1289 N 0.80481 0.74673 0.30818 0.0
C1290 C 0.81533 0.75494 0.32405 0.0
C1291 C 0.80303 0.71837 0.31915 0.0
C1292 C 0.81953 0.74519 0.33845 0.0
C1293 C 0.7994 0.72859 0.30523 0.0
C1294 C 0.81294 0.72672 0.33595 0.0
N1295 N 0.81832 0.78202 0.31133 0.0
C1296 C 0.82562 0.79978 0.31204 0.0
C1297 C 0.83365 0.78208 0.34175 0.0
C1298 C 0.8224 0.77314 0.32564 0.0
C1299 C 0.84086 0.80035 0.34267 0.0
C1300 C 0.83694 0.8092 0.32768 0.0
H1301 H 0.81587 0.71875 0.34665 0.0
H1302 H 0.83379 0.74684 0.36586 0.0
H1303 H 0.84609 0.77915 0.36879 0.0
O1304 O 0.8271 0.77127 0.28084 0.0
O1305 O 0.78734 0.77192 0.31102 0.0
O1306 O 0.77032 0.79189 0.30333 0.0
O1307 O 0.80956 0.74512 0.27123 0.0
O1308 O 0.79992 0.7902 0.27592 0.0
O1309 O 0.77424 0.80016 0.28152 0.0
O1310 O 0.73515 0.76835 0.30088 0.0
O1311 O 0.7591 0.75883 0.25785 0.0
O1312 O 0.78887 0.77053 0.25961 0.0
O1313 O 0.72769 0.78486 0.28154 0.0
O1314 O 0.7564 0.75421 0.29435 0.0
O1315 O 0.77685 0.74232 0.28002 0.0
C1316 C 0.78031 0.7856 0.31543 0.0
C1317 C 0.83979 0.74945 0.26334 0.0
C1318 C 0.86603 0.75442 0.24686 0.0
C1319 C 0.86659 0.73654 0.24734 0.0
C1320 C 0.84063 0.73159 0.26343 0.0
C1321 C 0.85398 0.72524 0.25555 0.0
C1322 C 0.85261 0.76096 0.25501 0.0
C1323 C 0.7909 0.80276 0.27736 0.0
C1324 C 0.82528 0.75555 0.27176 0.0
C1325 C 0.83048 0.7541 0.35464 0.0
C1326 C 0.83751 0.77249 0.3563 0.0
C1327 C 0.77385 0.76152 0.25009 0.0
C1328 C 0.71441 0.78589 0.30921 0.0
C1329 C 0.68969 0.78606 0.32783 0.0
C1330 C 0.6956 0.80463 0.33179 0.0
C1331 C 0.71996 0.80445 0.31363 0.0
C1332 C 0.69912 0.77668 0.31634 0.0
C1333 C 0.71055 0.8137 0.32473 0.0
C1334 C 0.76199 0.74042 0.28762 0.0
C1335 C 0.72308 0.77654 0.29535 0.0
H1336 H 0.87683 0.73129 0.24126 0.0
H1337 H 0.83099 0.72254 0.26974 0.0
H1338 H 0.85456 0.71147 0.2558 0.0
H1339 H 0.85209 0.77475 0.25474 0.0
H1340 H 0.68851 0.81219 0.34031 0.0
H1341 H 0.73133 0.81185 0.30808 0.0
H1342 H 0.69451 0.76239 0.31282 0.0
H1343 H 0.71477 0.82804 0.32777 0.0
Tb1344 Tb 0.76841 0.28316 0.80604 0.0
C1345 C 0.80465 0.25006 0.73505 0.0
N1346 N 0.81259 0.26445 0.74754 0.0
C1347 C 0.83974 0.25445 0.7498 0.0
C1348 C 0.81378 0.23695 0.72976 0.0
C1349 C 0.82998 0.26694 0.75483 0.0
C1350 C 0.83156 0.2393 0.73732 0.0
C1351 C 0.77822 0.23361 0.71495 0.0
C1352 C 0.78718 0.24844 0.72784 0.0
C1353 C 0.78707 0.22024 0.70991 0.0
C1354 C 0.80484 0.22193 0.71727 0.0
Tb1355 Tb 0.79507 0.28275 0.75704 0.0
N1356 N 0.77904 0.2615 0.73343 0.0
C1357 C 0.76073 0.23274 0.70745 0.0
C1358 C 0.76237 0.26124 0.72511 0.0
C1359 C 0.7529 0.24679 0.7123 0.0
H1360 H 0.83636 0.27846 0.7647 0.0
H1361 H 0.73958 0.24658 0.70608 0.0
H1362 H 0.72888 0.29004 0.78929 0.0
H1363 H 0.81605 0.31614 0.86504 0.0
H1364 H 0.75622 0.27213 0.7278 0.0
H1365 H 0.75334 0.22155 0.69756 0.0
H1366 H 0.80285 0.29239 0.83939 0.0
H1367 H 0.8535 0.25642 0.75571 0.0
H1368 H 0.78035 0.20864 0.70019 0.0
H1369 H 0.81155 0.21159 0.71317 0.0
H1370 H 0.71094 0.31167 0.79593 0.0
H1371 H 0.83908 0.22955 0.73361 0.0
H1372 H 0.80042 0.33988 0.87299 0.0
N1373 N 0.75025 0.30245 0.81053 0.0
C1374 C 0.75579 0.31525 0.82543 0.0
C1375 C 0.72366 0.31297 0.80418 0.0
C1376 C 0.74572 0.32776 0.82992 0.0
C1377 C 0.73413 0.30089 0.80021 0.0
C1378 C 0.72953 0.32656 0.81899 0.0
N1379 N 0.78111 0.30362 0.83124 0.0
C1380 C 0.79638 0.30312 0.84197 0.0
C1381 C 0.77839 0.32932 0.85123 0.0
C1382 C 0.77175 0.31587 0.83615 0.0
C1383 C 0.79476 0.32965 0.86141 0.0
C1384 C 0.80368 0.31635 0.85689 0.0
H1385 H 0.72138 0.33589 0.82201 0.0
H1386 H 0.74459 0.3508 0.84876 0.0
H1387 H 0.77339 0.3524 0.86716 0.0
O1388 O 0.76957 0.26446 0.82496 0.0
O1389 O 0.78194 0.31008 0.80316 0.0
O1390 O 0.78682 0.29341 0.78061 0.0
O1391 O 0.74469 0.27166 0.81574 0.0
O1392 O 0.79595 0.27758 0.8087 0.0
O1393 O 0.81279 0.28501 0.78377 0.0
O1394 O 0.79364 0.30068 0.73793 0.0
O1395 O 0.78847 0.25725 0.76724 0.0
O1396 O 0.76609 0.26461 0.78091 0.0
O1397 O 0.81852 0.30159 0.7544 0.0
O1398 O 0.76894 0.29077 0.75505 0.0
O1399 O 0.75225 0.27875 0.7779 0.0
C1400 C 0.78922 0.3094 0.78844 0.0
C1401 C 0.74285 0.2504 0.83745 0.0
C1402 C 0.7424 0.23602 0.86518 0.0
C1403 C 0.72387 0.22959 0.86098 0.0
C1404 C 0.72434 0.24391 0.83323 0.0
C1405 C 0.71491 0.23345 0.84497 0.0
C1406 C 0.75184 0.24625 0.85326 0.0
C1407 C 0.81106 0.2803 0.80077 0.0
C1408 C 0.75263 0.2625 0.82614 0.0
C1409 C 0.7521 0.34102 0.84515 0.0
C1410 C 0.7685 0.34193 0.85564 0.0
C1411 C 0.77598 0.25332 0.77785 0.0
C1412 C 0.8195 0.31096 0.72434 0.0
C1413 C 0.81845 0.31993 0.69327 0.0
C1414 C 0.83667 0.32023 0.69368 0.0
C1415 C 0.83765 0.31134 0.72444 0.0
C1416 C 0.80998 0.31515 0.70866 0.0
C1417 C 0.84613 0.31586 0.70911 0.0
C1418 C 0.75381 0.28673 0.76258 0.0
C1419 C 0.81061 0.30789 0.74094 0.0
H1420 H 0.7164 0.2214 0.86995 0.0
H1421 H 0.71718 0.24702 0.82098 0.0
H1422 H 0.70066 0.22843 0.84172 0.0
H1423 H 0.7661 0.25144 0.85665 0.0
H1424 H 0.8438 0.32433 0.68231 0.0
H1425 H 0.84537 0.30845 0.73644 0.0
H1426 H 0.79597 0.31494 0.70856 0.0
H1427 H 0.86018 0.31634 0.70934 0.0
Tb1428 Tb 0.76149 0.75024 0.76552 0.0
C1429 C 0.81816 0.81606 0.80983 0.0
N1430 N 0.80353 0.805 0.8144 0.0
C1431 C 0.81908 0.80479 0.84442 0.0
C1432 C 0.83406 0.82147 0.82221 0.0
C1433 C 0.80365 0.79969 0.83164 0.0
C1434 C 0.83443 0.81553 0.83962 0.0
C1435 C 0.83161 0.83436 0.78777 0.0
C1436 C 0.81695 0.82244 0.79286 0.0
C1437 C 0.84769 0.8393 0.79977 0.0
C1438 C 0.8489 0.8329 0.81697 0.0
Tb1439 Tb 0.77915 0.79793 0.79232 0.0
N1440 N 0.80121 0.8173 0.78158 0.0
C1441 C 0.82951 0.84125 0.77097 0.0
C1442 C 0.79865 0.82523 0.76608 0.0
C1443 C 0.81284 0.83692 0.76025 0.0
H1444 H 0.79176 0.79206 0.83592 0.0
H1445 H 0.81083 0.8428 0.74765 0.0
H1446 H 0.75165 0.75617 0.72123 0.0
H1447 H 0.72167 0.71759 0.81399 0.0
H1448 H 0.78562 0.82295 0.75834 0.0
H1449 H 0.84045 0.85041 0.7665 0.0
H1450 H 0.74898 0.73408 0.80397 0.0
H1451 H 0.81903 0.80065 0.85807 0.0
H1452 H 0.85915 0.84834 0.79604 0.0
H1453 H 0.86128 0.83711 0.82625 0.0
H1454 H 0.72546 0.74762 0.69755 0.0
H1455 H 0.84634 0.81951 0.84961 0.0
H1456 H 0.69397 0.70824 0.79197 0.0
N1457 N 0.73799 0.74478 0.74253 0.0
C1458 C 0.72245 0.73503 0.74682 0.0
C1459 C 0.72439 0.74415 0.71141 0.0
C1460 C 0.70723 0.72949 0.73348 0.0
C1461 C 0.73917 0.74929 0.72504 0.0
C1462 C 0.70835 0.7342 0.71562 0.0
N1463 N 0.73682 0.73603 0.77717 0.0
C1464 C 0.73695 0.7311 0.79453 0.0
C1465 C 0.70598 0.7204 0.76959 0.0
C1466 C 0.72185 0.73051 0.76467 0.0
C1467 C 0.70588 0.716 0.78764 0.0
C1468 C 0.72146 0.72133 0.80014 0.0
H1469 H 0.69698 0.73009 0.70496 0.0
H1470 H 0.67965 0.71483 0.72822 0.0
H1471 H 0.67857 0.70684 0.75978 0.0
O1472 O 0.76794 0.72625 0.77139 0.0
O1473 O 0.74099 0.76593 0.77198 0.0
O1474 O 0.75413 0.78198 0.79948 0.0
O1475 O 0.76201 0.73144 0.7429 0.0
O1476 O 0.77655 0.75181 0.79338 0.0
O1477 O 0.77146 0.77676 0.80924 0.0
O1478 O 0.76385 0.81644 0.78733 0.0
O1479 O 0.80153 0.78611 0.78327 0.0
O1480 O 0.78934 0.7614 0.76142 0.0
O1481 O 0.77837 0.81713 0.81433 0.0
O1482 O 0.76617 0.79492 0.76339 0.0
O1483 O 0.7724 0.77016 0.74824 0.0
C1484 C 0.73962 0.77516 0.78782 0.0
C1485 C 0.77001 0.70353 0.74677 0.0
C1486 C 0.78251 0.67822 0.75207 0.0
C1487 C 0.77932 0.67236 0.73296 0.0
C1488 C 0.76695 0.69761 0.72767 0.0
C1489 C 0.77159 0.68206 0.72083 0.0
C1490 C 0.77783 0.6938 0.75892 0.0
C1491 C 0.776 0.7615 0.80907 0.0
C1492 C 0.7669 0.72076 0.75379 0.0
C1493 C 0.69144 0.71932 0.73832 0.0
C1494 C 0.69082 0.71479 0.75631 0.0
C1495 C 0.80326 0.77311 0.77074 0.0
C1496 C 0.77169 0.84404 0.80673 0.0
C1497 C 0.76254 0.87041 0.79869 0.0
C1498 C 0.77409 0.88066 0.81381 0.0
C1499 C 0.78322 0.85433 0.82196 0.0
C1500 C 0.76136 0.85221 0.79518 0.0
C1501 C 0.78442 0.8726 0.82541 0.0
C1502 C 0.77002 0.78633 0.74849 0.0
C1503 C 0.76813 0.82459 0.80423 0.0
H1504 H 0.78313 0.66048 0.72738 0.0
H1505 H 0.76128 0.70515 0.71799 0.0
H1506 H 0.7694 0.67764 0.70609 0.0
H1507 H 0.78056 0.69843 0.77365 0.0
H1508 H 0.77477 0.89476 0.81686 0.0
H1509 H 0.79093 0.84823 0.83145 0.0
H1510 H 0.75193 0.84436 0.78378 0.0
H1511 H 0.79307 0.88044 0.83731 0.0
Tb1512 Tb 0.56191 0.54404 0.56017 0.0
C1513 C 0.49422 0.48478 0.51353 0.0
N1514 N 0.50436 0.50029 0.50971 0.0
C1515 C 0.50076 0.48837 0.47753 0.0
C1516 C 0.48736 0.47025 0.49956 0.0
C1517 C 0.50731 0.50239 0.49185 0.0
C1518 C 0.49087 0.47218 0.48142 0.0
C1519 C 0.47958 0.46788 0.53596 0.0
C1520 C 0.49014 0.48369 0.53138 0.0
C1521 C 0.47317 0.45319 0.52224 0.0
C1522 C 0.47695 0.45441 0.50405 0.0
Tb1523 Tb 0.51352 0.52251 0.53424 0.0
N1524 N 0.49641 0.49821 0.54425 0.0
C1525 C 0.47582 0.46731 0.55421 0.0
C1526 C 0.49155 0.49811 0.56166 0.0
C1527 C 0.48188 0.48253 0.56711 0.0
H1528 H 0.51455 0.51503 0.4886 0.0
H1529 H 0.47913 0.48231 0.58126 0.0
H1530 H 0.55248 0.55243 0.60389 0.0
H1531 H 0.60948 0.58362 0.52314 0.0
H1532 H 0.49532 0.50989 0.57142 0.0
H1533 H 0.46809 0.45532 0.5584 0.0
H1534 H 0.59054 0.55596 0.53015 0.0
H1535 H 0.50323 0.49013 0.46348 0.0
H1536 H 0.46508 0.44092 0.52551 0.0
H1537 H 0.47164 0.44309 0.49352 0.0
H1538 H 0.55583 0.57846 0.62687 0.0
H1539 H 0.48573 0.46137 0.47028 0.0
H1540 H 0.61209 0.61191 0.54322 0.0
N1541 N 0.56441 0.56702 0.58346 0.0
C1542 C 0.57438 0.58299 0.58042 0.0
C1543 C 0.56076 0.58001 0.61369 0.0
C1544 C 0.5773 0.59824 0.59367 0.0
C1545 C 0.55836 0.56525 0.60025 0.0
C1546 C 0.57002 0.59664 0.61027 0.0
N1547 N 0.5805 0.56867 0.55258 0.0
C1548 C 0.59064 0.56833 0.5384 0.0
C1549 C 0.59404 0.59986 0.56148 0.0
C1550 C 0.5827 0.58381 0.56452 0.0
C1551 C 0.60326 0.59986 0.54604 0.0
C1552 C 0.60178 0.58395 0.53463 0.0
H1553 H 0.57209 0.60799 0.62084 0.0
H1554 H 0.59028 0.62623 0.60027 0.0
H1555 H 0.60487 0.62767 0.57205 0.0
O1556 O 0.58456 0.53449 0.55527 0.0
O1557 O 0.54607 0.56364 0.55213 0.0
O1558 O 0.52689 0.54853 0.52649 0.0
O1559 O 0.58106 0.54539 0.58313 0.0
O1560 O 0.55963 0.5416 0.52977 0.0
O1561 O 0.5354 0.5185 0.51835 0.0
O1562 O 0.49028 0.53034 0.54139 0.0
O1563 O 0.52416 0.50294 0.54947 0.0
O1564 O 0.55476 0.5142 0.55572 0.0
O1565 O 0.49658 0.5283 0.51291 0.0
O1566 O 0.51811 0.539 0.56138 0.0
O1567 O 0.54178 0.53179 0.57674 0.0
C1568 C 0.53496 0.56358 0.53703 0.0
C1569 C 0.60805 0.53502 0.58017 0.0
C1570 C 0.63212 0.5202 0.57641 0.0
C1571 C 0.63905 0.52597 0.59505 0.0
C1572 C 0.61518 0.54091 0.59876 0.0
C1573 C 0.63067 0.53643 0.60612 0.0
C1574 C 0.61674 0.52489 0.56898 0.0
C1575 C 0.55067 0.5292 0.51647 0.0
C1576 C 0.59099 0.53835 0.57276 0.0
C1577 C 0.58797 0.6144 0.59029 0.0
C1578 C 0.5963 0.61521 0.57422 0.0
C1579 C 0.54042 0.50088 0.55432 0.0
C1580 C 0.46934 0.53716 0.51732 0.0
C1581 C 0.44357 0.54868 0.52302 0.0
C1582 C 0.43859 0.54744 0.50387 0.0
C1583 C 0.46428 0.53605 0.49815 0.0
C1584 C 0.45899 0.54364 0.52978 0.0
C1585 C 0.44898 0.5412 0.49149 0.0
C1586 C 0.52588 0.53491 0.57654 0.0
C1587 C 0.48558 0.53186 0.52411 0.0
H1588 H 0.65102 0.52252 0.60096 0.0
H1589 H 0.60869 0.54876 0.60766 0.0
H1590 H 0.6361 0.54093 0.62047 0.0
H1591 H 0.61127 0.52016 0.55464 0.0
H1592 H 0.42673 0.55141 0.49853 0.0
H1593 H 0.47213 0.53119 0.48827 0.0
H1594 H 0.46279 0.54469 0.5446 0.0
H1595 H 0.44515 0.54034 0.47673 0.0
Tb1596 Tb 1.00579 0.525 0.0612 0.0
C1597 C 0.07394 0.56802 0.02653 0.0
N1598 N 0.0624 0.55215 0.01995 0.0
C1599 C 0.06274 0.55955 0.98893 0.0
C1600 C 0.07978 0.58055 0.01453 0.0
C1601 C 0.05764 0.5474 0.00131 0.0
C1602 C 0.07363 0.57631 0.99559 0.0
C1603 C 0.09339 0.58723 0.05235 0.0
C1604 C 0.08073 0.57135 0.04526 0.0
C1605 C 0.09883 0.59992 0.04049 0.0
C1606 C 0.092 0.59662 0.02166 0.0
Tb1607 Tb 0.05579 0.53372 0.04187 0.0
N1608 N 0.07467 0.55912 0.0566 0.0
C1609 C 0.10012 0.58991 0.07118 0.0
C1610 C 0.08201 0.56117 0.07466 0.0
C1611 C 0.09455 0.57673 0.08233 0.0
H1612 H 0.05063 0.53402 0.99585 0.0
H1613 H 0.10008 0.57845 0.09676 0.0
H1614 H 0.01543 0.52462 0.10755 0.0
H1615 H 0.96123 0.478 0.00825 0.0
H1616 H 0.0784 0.55078 0.08308 0.0
H1617 H 0.10985 0.60195 0.07715 0.0
H1618 H 0.98426 0.50519 0.02018 0.0
H1619 H 0.05869 0.5558 0.9742 0.0
H1620 H 0.10842 0.61228 0.04571 0.0
H1621 H 0.09654 0.60643 0.01264 0.0
H1622 H 0.00763 0.50369 0.12973 0.0
H1623 H 0.0778 0.58559 0.98592 0.0
H1624 H 0.95038 0.45651 0.02958 0.0
N1625 N 1.00087 0.50692 0.08392 0.0
C1626 C 0.98848 0.49139 0.07823 0.0
C1627 C 1.00238 0.49993 0.11523 0.0
C1628 C 0.98291 0.47937 0.09086 0.0
C1629 C 0.0072 0.51163 0.10236 0.0
C1630 C 0.9903 0.48368 0.10946 0.0
N1631 N 0.98657 0.49931 0.04777 0.0
C1632 C 0.97965 0.49602 0.02952 0.0
C1633 C 0.96766 0.4719 0.05358 0.0
C1634 C 0.98085 0.48767 0.05976 0.0
C1635 C 0.9605 0.46849 0.03486 0.0
C1636 C 0.9666 0.48057 0.02277 0.0
H1637 H 0.98636 0.47479 0.11955 0.0
H1638 H 0.96543 0.45431 0.09423 0.0
H1639 H 0.95214 0.44776 0.06162 0.0
O1640 O 0.98141 0.53165 0.05115 0.0
O1641 O 0.0145 0.50073 0.04873 0.0
O1642 O 0.0385 0.50704 0.03106 0.0
O1643 O 0.99175 0.5355 0.08038 0.0
O1644 O 0.01441 0.53824 0.03784 0.0
O1645 O 0.03296 0.52718 0.02038 0.0
O1646 O 0.07502 0.52091 0.05359 0.0
O1647 O 0.04829 0.55824 0.05486 0.0
O1648 O 0.02048 0.55324 0.06586 0.0
O1649 O 0.07646 0.52983 0.02696 0.0
O1650 O 0.04617 0.52072 0.06482 0.0
O1651 O 0.02871 0.5333 0.08188 0.0
C1652 C 0.02548 0.49571 0.03725 0.0
C1653 C 0.96279 0.54089 0.07401 0.0
C1654 C 0.93965 0.55786 0.07284 0.0
C1655 C 0.93496 0.55218 0.08967 0.0
C1656 C 0.95763 0.53528 0.09071 0.0
C1657 C 0.94381 0.54089 0.09843 0.0
C1658 C 0.95352 0.55198 0.06492 0.0
C1659 C 0.01741 0.53075 0.02212 0.0
C1660 C 0.97955 0.53777 0.06792 0.0
C1661 C 0.96986 0.46363 0.0847 0.0
C1662 C 0.96223 0.45994 0.06613 0.0
C1663 C 0.03548 0.56393 0.06281 0.0
C1664 C 0.08937 0.50566 0.03169 0.0
C1665 C 0.1111 0.48709 0.03259 0.0
C1666 C 0.10321 0.47828 0.01504 0.0
C1667 C 0.0818 0.49662 0.01406 0.0
C1668 C 0.10412 0.5008 0.04096 0.0
C1669 C 0.08864 0.48299 0.00588 0.0
C1670 C 0.04383 0.52913 0.08028 0.0
C1671 C 0.08354 0.5216 0.03917 0.0
H1672 H 0.92434 0.55642 0.09604 0.0
H1673 H 0.96467 0.52698 0.09812 0.0
H1674 H 0.94012 0.53672 0.11143 0.0
H1675 H 0.95767 0.55674 0.05228 0.0
H1676 H 0.10853 0.46787 0.0083 0.0
H1677 H 0.07077 0.50032 0.00639 0.0
H1678 H 0.11044 0.50797 0.05432 0.0
H1679 H 0.0828 0.47627 0.99224 0.0
H1680 H 0.99202 0.22087 0.99131 0.0
H1681 H 0.99497 0.19302 0.0032 0.0
H1682 H 0.02739 0.18309 0.96075 0.0
H1683 H 0.02374 0.21021 0.94846 0.0
H1684 H 0.01017 0.15286 0.96364 0.0
H1685 H 0.0428 0.19788 0.01277 0.0
H1686 H 0.04621 0.22444 0.03564 0.0
H1687 H 1.00315 0.19697 0.06186 0.0
H1688 H 0.9994 0.17029 0.03904 0.0
H1689 H 0.04998 0.08836 0.00848 0.0
H1690 H 0.04572 0.11635 0.99759 0.0
H1691 H 0.99937 0.1131 0.02578 0.0
H1692 H 1.00307 0.08467 0.03579 0.0
H1693 H 0.02304 0.14942 0.03071 0.0
H1694 H 0.99216 0.10362 0.98246 0.0
H1695 H 0.98869 0.07745 0.95914 0.0
H1696 H 0.02898 0.10673 0.93084 0.0
H1697 H 0.03299 0.13302 0.95423 0.0
C1698 C 0.99991 0.21288 0.98457 0.0
C1699 C 0.00767 0.21832 0.96882 0.0
C1700 C 1.00174 0.19674 0.9915 0.0
C1701 C 0.01179 0.18543 0.98333 0.0
C1702 C 0.0195 0.191 0.96764 0.0
C1703 C 0.01746 0.20687 0.96058 0.0
C1704 C 0.01434 0.168 0.99077 0.0
C1705 C 0.01325 0.15242 0.97834 0.0
C1706 C 0.01804 0.16648 0.00998 0.0
C1707 C 0.02075 0.18216 0.02416 0.0
C1708 C 0.03408 0.19752 0.02343 0.0
C1709 C 0.03605 0.21259 0.03636 0.0
C1710 C 0.02488 0.2124 0.05017 0.0
C1711 C 0.01179 0.19709 0.05116 0.0
C1712 C 0.00976 0.18198 0.03826 0.0
C1713 C 0.03893 0.09361 0.01249 0.0
C1714 C 0.02698 0.08402 0.02323 0.0
C1715 C 0.03643 0.10975 0.00616 0.0
C1716 C 0.02217 0.11734 0.01075 0.0
C1717 C 0.01054 0.10796 0.02191 0.0
C1718 C 0.01269 0.09154 0.0277 0.0
C1719 C 0.0191 0.13457 0.00356 0.0
C1720 C 0.02007 0.15001 0.01602 0.0
C1721 C 0.01543 0.13599 0.98438 0.0
C1722 C 0.01306 0.12024 0.97026 0.0
C1723 C 1.00044 0.10444 0.9714 0.0
C1724 C 0.99834 0.08958 0.95814 0.0
C1725 C 0.00864 0.09041 0.94355 0.0
C1726 C 0.02104 0.1061 0.94218 0.0
C1727 C 0.02324 0.12099 0.95544 0.0
H1728 H 0.00698 0.07891 0.93328 0.0
H1729 H 0.02638 0.22411 0.06012 0.0
H1730 H 0.11746 0.80291 0.13423 0.0
H1731 H 0.14505 0.8005 0.15224 0.0
H1732 H 0.11724 0.79156 0.19969 0.0
H1733 H 0.08978 0.79414 0.18191 0.0
H1734 H 0.14803 0.81323 0.21075 0.0
H1735 H 0.12876 0.75744 0.17204 0.0
H1736 H 0.1198 0.73623 0.1434 0.0
H1737 H 0.17029 0.75616 0.12499 0.0
H1738 H 0.17946 0.7777 0.15339 0.0
H1739 H 0.21013 0.77045 0.2598 0.0
H1740 H 0.18369 0.77515 0.24168 0.0
H1741 H 0.21661 0.80247 0.20481 0.0
H1742 H 0.24331 0.79917 0.22371 0.0
H1743 H 0.18401 0.77195 0.18837 0.0
H1744 H 0.20282 0.82764 0.22837 0.0
H1745 H 0.21134 0.84725 0.25809 0.0
H1746 H 0.1605 0.8256 0.27492 0.0
H1747 H 0.15184 0.80552 0.24545 0.0
C1748 C 0.11725 0.80067 0.14857 0.0
C1749 C 0.10129 0.79885 0.15657 0.0
C1750 C 0.13305 0.79908 0.15883 0.0
C1751 C 0.13333 0.79559 0.17736 0.0
C1752 C 0.11751 0.79422 0.18546 0.0
C1753 C 0.10174 0.79575 0.17523 0.0
C1754 C 0.15004 0.79367 0.18847 0.0
C1755 C 0.15573 0.80403 0.20586 0.0
C1756 C 0.16043 0.78189 0.18214 0.0
C1757 C 0.15469 0.76939 0.16474 0.0
C1758 C 0.13786 0.75749 0.16177 0.0
C1759 C 0.13276 0.74536 0.1456 0.0
C1760 C 0.14444 0.7449 0.13235 0.0
C1761 C 0.16123 0.75657 0.13524 0.0
C1762 C 0.16638 0.76875 0.15136 0.0
C1763 C 0.21192 0.77803 0.24826 0.0
C1764 C 0.2291 0.78494 0.24373 0.0
C1765 C 0.19667 0.78046 0.23771 0.0
C1766 C 0.19812 0.7893 0.22194 0.0
C1767 C 0.21514 0.79571 0.21698 0.0
C1768 C 0.23043 0.79379 0.22785 0.0
C1769 C 0.18186 0.79152 0.21046 0.0
C1770 C 0.17626 0.78117 0.1931 0.0
C1771 C 0.17143 0.80314 0.21688 0.0
C1772 C 0.1768 0.81484 0.23482 0.0
C1773 C 0.19358 0.82682 0.23853 0.0
C1774 C 0.1984 0.83808 0.25531 0.0
C1775 C 0.1865 0.83762 0.26842 0.0
C1776 C 0.16974 0.82589 0.26478 0.0
C1777 C 0.16487 0.81455 0.24805 0.0
H1778 H 0.19024 0.84639 0.28138 0.0
H1779 H 0.1405 0.73545 0.11988 0.0
H1780 H 0.50496 0.83027 0.4441 0.0
H1781 H 0.50867 0.86132 0.45636 0.0
H1782 H 0.5239 0.8496 0.5111 0.0
H1783 H 0.52018 0.818 0.49874 0.0
H1784 H 0.50178 0.87207 0.51299 0.0
H1785 H 0.55444 0.87294 0.48336 0.0
H1786 H 0.57178 0.86781 0.45777 0.0
H1787 H 0.54521 0.89966 0.42544 0.0
H1788 H 0.52753 0.90478 0.45072 0.0
H1789 H 0.52377 0.96445 0.55155 0.0
H1790 H 0.52224 0.93301 0.54169 0.0
H1791 H 0.52162 0.94345 0.48487 0.0
H1792 H 0.52498 0.97513 0.49512 0.0
H1793 H 0.53775 0.9209 0.48493 0.0
H1794 H 0.48238 0.91698 0.51008 0.0
H1795 H 0.46238 0.92128 0.53328 0.0
H1796 H 0.49067 0.89519 0.57105 0.0
H1797 H 0.51072 0.89051 0.54789 0.0
C1798 C 0.50913 0.83407 0.45882 0.0
C1799 C 0.5122 0.82112 0.47029 0.0
C1800 C 0.51141 0.85216 0.46585 0.0
C1801 C 0.51688 0.85838 0.48478 0.0
C1802 C 0.51977 0.84551 0.49642 0.0
C1803 C 0.51764 0.82727 0.4893 0.0
C1804 C 0.51904 0.87806 0.49224 0.0
C1805 C 0.5099 0.8827 0.50697 0.0
C1806 C 0.52904 0.89238 0.48421 0.0
C1807 C 0.53953 0.8891 0.46891 0.0
C1808 C 0.55217 0.87871 0.47074 0.0
C1809 C 0.56209 0.87583 0.45629 0.0
C1810 C 0.55957 0.88336 0.43997 0.0
C1811 C 0.54714 0.89381 0.43807 0.0
C1812 C 0.53717 0.89671 0.45246 0.0
C1813 C 0.52316 0.96002 0.53692 0.0
C1814 C 0.52442 0.97258 0.52422 0.0
C1815 C 0.52207 0.94174 0.53112 0.0
C1816 C 0.52132 0.93497 0.5122 0.0
C1817 C 0.52224 0.94766 0.49953 0.0
C1818 C 0.52402 0.96601 0.50542 0.0
C1819 C 0.52015 0.91512 0.50559 0.0
C1820 C 0.52954 0.91039 0.491 0.0
C1821 C 0.50999 0.90067 0.51339 0.0
C1822 C 0.49816 0.90362 0.52738 0.0
C1823 C 0.48439 0.91227 0.52338 0.0
C1824 C 0.47304 0.91476 0.53652 0.0
C1825 C 0.47536 0.9087 0.55374 0.0
C1826 C 0.48894 0.89996 0.55776 0.0
C1827 C 0.50025 0.89731 0.5446 0.0
H1828 H 0.46659 0.9107 0.56392 0.0
H1829 H 0.56728 0.88114 0.42882 0.0
H1830 H 0.49278 0.28025 0.63409 0.0
H1831 H 0.46497 0.27808 0.64775 0.0
H1832 H 0.49389 0.28074 0.70203 0.0
H1833 H 0.52124 0.28134 0.6881 0.0
H1834 H 0.46669 0.25678 0.69996 0.0
H1835 H 0.47451 0.31653 0.68196 0.0
H1836 H 0.47807 0.33807 0.65928 0.0
H1837 H 0.4282 0.30994 0.62803 0.0
H1838 H 0.42447 0.28811 0.65037 0.0
H1839 H 0.4023 0.26669 0.75662 0.0
H1840 H 0.42801 0.27699 0.74038 0.0
H1841 H 0.39412 0.26274 0.68805 0.0
H1842 H 0.36837 0.2526 0.70438 0.0
H1843 H 0.422 0.29226 0.68726 0.0
H1844 H 0.41363 0.23349 0.70421 0.0
H1845 H 0.40923 0.21076 0.7255 0.0
H1846 H 0.4599 0.23577 0.75704 0.0
H1847 H 0.46441 0.25894 0.7362 0.0
C1848 C 0.49314 0.28058 0.64896 0.0
C1849 C 0.50914 0.28103 0.66007 0.0
C1850 C 0.47724 0.27946 0.65682 0.0
C1851 C 0.47716 0.27952 0.67609 0.0
C1852 C 0.49339 0.28057 0.68716 0.0
C1853 C 0.50909 0.28103 0.67923 0.0
C1854 C 0.46027 0.27741 0.68482 0.0
C1855 C 0.45719 0.26489 0.6974 0.0
C1856 C 0.44719 0.28723 0.68092 0.0
C1857 C 0.44928 0.30062 0.66777 0.0
C1858 C 0.46434 0.31492 0.67022 0.0
C1859 C 0.46639 0.32717 0.65742 0.0
C1860 C 0.45339 0.32535 0.64221 0.0
C1861 C 0.43827 0.31132 0.6398 0.0
C1862 C 0.43617 0.29902 0.65254 0.0
C1863 C 0.40026 0.26646 0.74172 0.0
C1864 C 0.38338 0.25903 0.73174 0.0
C1865 C 0.41495 0.27221 0.73242 0.0
C1866 C 0.41308 0.27037 0.71293 0.0
C1867 C 0.39593 0.2643 0.70305 0.0
C1868 C 0.38122 0.25855 0.71238 0.0
C1869 C 0.42913 0.27237 0.70298 0.0
C1870 C 0.43179 0.28451 0.68999 0.0
C1871 C 0.44186 0.26214 0.70635 0.0
C1872 C 0.43926 0.24808 0.71877 0.0
C1873 C 0.42376 0.23425 0.71578 0.0
C1874 C 0.42125 0.22128 0.72777 0.0
C1875 C 0.43425 0.22184 0.74264 0.0
C1876 C 0.44982 0.23537 0.74554 0.0
C1877 C 0.45235 0.24844 0.73366 0.0
H1878 H 0.43229 0.21178 0.75189 0.0
H1879 H 0.45501 0.33483 0.6323 0.0
H1880 H 0.03467 0.79535 0.63329 0.0
H1881 H 0.03642 0.82248 0.61892 0.0
H1882 H 0.01156 0.84448 0.6629 0.0
H1883 H 0.00925 0.81689 0.67712 0.0
H1884 H 0.99864 0.85304 0.6317 0.0
H1885 H 0.05753 0.85876 0.66028 0.0
H1886 H 0.086 0.85074 0.66895 0.0
H1887 H 0.09442 0.84486 0.6118 0.0
H1888 H 0.06591 0.85264 0.60275 0.0
H1889 H 0.03568 0.94133 0.60159 0.0
H1890 H 0.02524 0.91629 0.61895 0.0
H1891 H 0.03456 0.87978 0.57467 0.0
H1892 H 0.04488 0.9046 0.55743 0.0
H1893 H 0.05528 0.88169 0.61034 0.0
H1894 H 0.99416 0.87553 0.58292 0.0
H1895 H 0.96586 0.88455 0.5764 0.0
H1896 H 0.96282 0.89387 0.63469 0.0
H1897 H 0.99121 0.8851 0.64157 0.0
C1898 C 0.02952 0.80592 0.63994 0.0
C1899 C 0.02186 0.80392 0.65642 0.0
C1900 C 0.03066 0.82155 0.63175 0.0
C1901 C 0.02449 0.83582 0.63997 0.0
C1902 C 0.01651 0.83376 0.65628 0.0
C1903 C 0.0152 0.81797 0.66441 0.0
C1904 C 0.02624 0.85264 0.63124 0.0
C1905 C 0.01112 0.85948 0.62732 0.0
C1906 C 0.0425 0.8612 0.62549 0.0
C1907 C 0.05949 0.85614 0.63083 0.0
C1908 C 0.06537 0.85559 0.64954 0.0
C1909 C 0.08154 0.85112 0.65453 0.0
C1910 C 0.09199 0.84725 0.64093 0.0
C1911 C 0.08631 0.84784 0.62232 0.0
C1912 C 0.07015 0.8523 0.61725 0.0
C1913 C 0.03473 0.92787 0.59526 0.0
C1914 C 0.04103 0.92488 0.57813 0.0
C1915 C 0.02884 0.91357 0.60522 0.0
C1916 C 0.02922 0.89614 0.59817 0.0
C1917 C 0.03415 0.89308 0.5804 0.0
C1918 C 0.03997 0.90727 0.57051 0.0
C1919 C 0.02756 0.88158 0.61015 0.0
C1920 C 0.04283 0.8753 0.61485 0.0
C1921 C 0.01157 0.87387 0.61691 0.0
C1922 C 0.99496 0.87993 0.61276 0.0
C1923 C 0.98762 0.87978 0.59435 0.0
C1924 C 0.9715 0.88475 0.59059 0.0
C1925 C 0.96257 0.88982 0.60512 0.0
C1926 C 0.96976 0.88998 0.62345 0.0
C1927 C 0.98586 0.885 0.62728 0.0
H1928 H 0.95007 0.8936 0.60218 0.0
H1929 H 0.10452 0.84382 0.64482 0.0
H1930 H 0.47588 0.77224 0.83662 0.0
H1931 H 0.44406 0.76866 0.82544 0.0
H1932 H 0.45193 0.82551 0.8285 0.0
H1933 H 0.48381 0.82907 0.83876 0.0
H1934 H 0.419 0.80683 0.84393 0.0
H1935 H 0.44813 0.80528 0.78873 0.0
H1936 H 0.46697 0.79402 0.7675 0.0
H1937 H 0.43225 0.74189 0.76117 0.0
H1938 H 0.41337 0.75278 0.78267 0.0
H1939 H 0.33724 0.81406 0.7911 0.0
H1940 H 0.36874 0.81732 0.80322 0.0
H1941 H 0.3631 0.76106 0.7887 0.0
H1942 H 0.33177 0.75779 0.77689 0.0
H1943 H 0.39473 0.77861 0.77989 0.0
H1944 H 0.36536 0.77792 0.83299 0.0
H1945 H 0.34566 0.78652 0.8548 0.0
H1946 H 0.37945 0.83914 0.86655 0.0
H1947 H 0.39923 0.83095 0.84451 0.0
C1948 C 0.47091 0.784 0.83484 0.0
C1949 C 0.48277 0.80097 0.83847 0.0
C1950 C 0.45255 0.78194 0.82845 0.0
C1951 C 0.44517 0.79679 0.82605 0.0
C1952 C 0.45694 0.81373 0.83016 0.0
C1953 C 0.47536 0.81576 0.83594 0.0
C1954 C 0.42553 0.7947 0.81859 0.0
C1955 C 0.41383 0.80089 0.82982 0.0
C1956 C 0.41817 0.78638 0.80039 0.0
C1957 C 0.42947 0.7798 0.78749 0.0
C1958 C 0.44462 0.79137 0.78298 0.0
C1959 C 0.45529 0.78507 0.77087 0.0
C1960 C 0.45085 0.76724 0.76304 0.0
C1961 C 0.4357 0.75569 0.76728 0.0
C1962 C 0.42501 0.76192 0.77943 0.0
C1963 C 0.34271 0.80243 0.79021 0.0
C1964 C 0.33163 0.7857 0.78272 0.0
C1965 C 0.36085 0.80424 0.79738 0.0
C1966 C 0.36874 0.78944 0.7971 0.0
C1967 C 0.35775 0.77282 0.78922 0.0
C1968 C 0.33962 0.77097 0.78241 0.0
C1969 C 0.3882 0.79109 0.80505 0.0
C1970 C 0.39986 0.78468 0.79396 0.0
C1971 C 0.3954 0.79887 0.8235 0.0
C1972 C 0.38366 0.8039 0.83687 0.0
C1973 C 0.36851 0.79139 0.84007 0.0
C1974 C 0.35734 0.79618 0.8525 0.0
C1975 C 0.36126 0.81339 0.862 0.0
C1976 C 0.37641 0.82583 0.85913 0.0
C1977 C 0.38761 0.82112 0.84667 0.0
H1978 H 0.3526 0.81708 0.87162 0.0
H1979 H 0.45911 0.76239 0.75364 0.0
H1980 H 0.48281 0.18591 0.15594 0.0
H1981 H 0.48409 0.15859 0.1364 0.0
H1982 H 0.54141 0.17554 0.14279 0.0
H1983 H 0.53992 0.20316 0.16113 0.0
H1984 H 0.53255 0.1626 0.11007 0.0
H1985 H 0.51492 0.13976 0.1655 0.0
H1986 H 0.4962 0.13481 0.19061 0.0
H1987 H 0.451 0.10924 0.15068 0.0
H1988 H 0.46942 0.1142 0.12533 0.0
H1989 H 0.54859 0.08044 0.07108 0.0
H1990 H 0.54709 0.10702 0.09122 0.0
H1991 H 0.48994 0.08862 0.0863 0.0
H1992 H 0.49182 0.06114 0.0676 0.0
H1993 H 0.49878 0.10257 0.11838 0.0
H1994 H 0.51859 0.12629 0.06259 0.0
H1995 H 0.53889 0.13214 0.03895 0.0
H1996 H 0.58218 0.15656 0.08153 0.0
H1997 H 0.56219 0.1507 0.10541 0.0
C1998 C 0.49564 0.18369 0.15319 0.0
C1999 C 0.51126 0.19666 0.16009 0.0
C2000 C 0.49642 0.16797 0.14209 0.0
C2001 C 0.51291 0.16458 0.13813 0.0
C2002 C 0.52847 0.17759 0.14535 0.0
C2003 C 0.52764 0.19341 0.15598 0.0
C2004 C 0.51413 0.14792 0.12613 0.0
C2005 C 0.52527 0.14947 0.11209 0.0
C2006 C 0.50454 0.13061 0.1283 0.0
C2007 C 0.49351 0.12748 0.14353 0.0
C2008 C 0.50097 0.13316 0.16208 0.0
C2009 C 0.49041 0.13035 0.17635 0.0
C2010 C 0.47241 0.12175 0.17224 0.0
C2011 C 0.46494 0.11591 0.15385 0.0
C2012 C 0.47543 0.11869 0.13953 0.0
C2013 C 0.5357 0.08213 0.07427 0.0
C2014 C 0.52031 0.06871 0.06765 0.0
C2015 C 0.53478 0.09754 0.08568 0.0
C2016 C 0.5183 0.1005 0.09007 0.0
C2017 C 0.50289 0.08699 0.08329 0.0
C2018 C 0.50391 0.07123 0.07247 0.0
C2019 C 0.51708 0.11722 0.1021 0.0
C2020 C 0.50598 0.11569 0.11624 0.0
C2021 C 0.52694 0.13457 0.1002 0.0
C2022 C 0.53892 0.13792 0.08578 0.0
C2023 C 0.53246 0.13281 0.0669 0.0
C2024 C 0.54391 0.13615 0.05346 0.0
C2025 C 0.56182 0.14469 0.05874 0.0
C2026 C 0.56831 0.14994 0.07746 0.0
C2027 C 0.55693 0.14662 0.09094 0.0
H2028 H 0.57065 0.14727 0.04831 0.0
H2029 H 0.46426 0.1196 0.1833 0.0
H2030 H 0.10486 0.31058 0.35923 0.0
H2031 H 0.13373 0.30846 0.34965 0.0
H2032 H 0.10708 0.26794 0.30481 0.0
H2033 H 0.07836 0.26942 0.31503 0.0
H2034 H 0.13339 0.25773 0.31594 0.0
H2035 H 0.13128 0.31737 0.3036 0.0
H2036 H 0.13 0.34878 0.31057 0.0
H2037 H 0.17672 0.35826 0.35045 0.0
H2038 H 0.1781 0.32686 0.34396 0.0
H2039 H 0.20824 0.25788 0.2652 0.0
H2040 H 0.18021 0.26101 0.27617 0.0
H2041 H 0.20942 0.29588 0.32419 0.0
H2042 H 0.23751 0.29239 0.31349 0.0
H2043 H 0.18282 0.30935 0.31255 0.0
H2044 H 0.1855 0.25134 0.32582 0.0
H2045 H 0.18707 0.21987 0.32131 0.0
H2046 H 0.14017 0.2076 0.28137 0.0
H2047 H 0.13839 0.23904 0.28552 0.0
C2048 C 0.10507 0.30131 0.3472 0.0
C2049 C 0.08891 0.29027 0.33794 0.0
C2050 C 0.12182 0.30017 0.34154 0.0
C2051 C 0.1232 0.28822 0.32607 0.0
C2052 C 0.10695 0.27734 0.31676 0.0
C2053 C 0.09028 0.27826 0.3226 0.0
C2054 C 0.14121 0.28634 0.31992 0.0
C2055 C 0.14394 0.26918 0.31488 0.0
C2056 C 0.15586 0.30096 0.31915 0.0
C2057 C 0.15464 0.31969 0.32345 0.0
C2058 C 0.14115 0.3261 0.31401 0.0
C2059 C 0.14044 0.34392 0.31785 0.0
C2060 C 0.15323 0.35549 0.33098 0.0
C2061 C 0.16678 0.34927 0.34032 0.0
C2062 C 0.16752 0.33147 0.33658 0.0
C2063 C 0.20884 0.26599 0.27826 0.0
C2064 C 0.22555 0.27455 0.28847 0.0
C2065 C 0.19258 0.26784 0.2846 0.0
C2066 C 0.19222 0.27857 0.30132 0.0
C2067 C 0.20891 0.28744 0.31132 0.0
C2068 C 0.22516 0.28538 0.30513 0.0
C2069 C 0.17466 0.28081 0.30816 0.0
C2070 C 0.17211 0.29798 0.31343 0.0
C2071 C 0.16021 0.26623 0.30927 0.0
C2072 C 0.16191 0.24759 0.30586 0.0
C2073 C 0.17565 0.24199 0.3159 0.0
C2074 C 0.17651 0.22413 0.3135 0.0
C2075 C 0.16366 0.21174 0.30115 0.0
C2076 C 0.15006 0.21721 0.29099 0.0
C2077 C 0.14912 0.23504 0.29336 0.0
H2078 H 0.16429 0.1979 0.29938 0.0
H2079 H 0.15269 0.36929 0.33388 0.0
H2080 H 0.95647 0.9947 0.21994 0.0
H2081 H 0.96843 0.9977 0.19047 0.0
H2082 H 0.95497 0.04865 0.18946 0.0
H2083 H 0.94159 0.0448 0.21817 0.0
H2084 H 0.94918 0.03319 0.15608 0.0
H2085 H 1.00024 0.042 0.20344 0.0
H2086 H 0.01637 0.03231 0.22985 0.0
H2087 H 0.01836 0.98455 0.19579 0.0
H2088 H 1.0021 0.9939 0.16923 0.0
H2089 H 1.00266 0.05973 0.08541 0.0
H2090 H 0.98918 0.05756 0.11418 0.0
H2091 H 1.00583 0.00869 0.12009 0.0
H2092 H 0.0207 0.01191 0.09237 0.0
H2093 H 0.00978 0.02394 0.15136 0.0
H2094 H 0.95961 0.01462 0.10356 0.0
H2095 H 0.94142 0.02241 0.0774 0.0
H2096 H 0.93585 0.06887 0.11126 0.0
H2097 H 0.95425 0.06153 0.13755 0.0
C2098 C 0.95626 0.00661 0.2135 0.0
C2099 C 0.94849 0.01971 0.22157 0.0
C2100 C 0.96315 0.00838 0.19662 0.0
C2101 C 0.96323 0.02372 0.1878 0.0
C2102 C 0.95527 0.03674 0.19586 0.0
C2103 C 0.94779 0.03464 0.21241 0.0
C2104 C 0.97184 0.02632 0.17043 0.0
C2105 C 0.96252 0.03136 0.15512 0.0
C2106 C 0.98911 0.02361 0.16881 0.0
C2107 C 0.99996 0.01864 0.18439 0.0
C2108 C 1.00422 0.02949 0.20158 0.0
C2109 C 0.01333 0.02403 0.21658 0.0
C2110 C 0.01838 0.00782 0.2145 0.0
C2111 C 0.01446 0.99711 0.19737 0.0
C2112 C 1.00535 1.0025 0.18233 0.0
C2113 C 1.00348 0.0486 0.09297 0.0
C2114 C 0.01273 0.036 0.08666 0.0
C2115 C 0.99556 0.0472 0.10936 0.0
C2116 C 0.99592 0.03266 0.11935 0.0
C2117 C 1.00525 0.0201 0.1129 0.0
C2118 C 0.01377 0.0219 0.09698 0.0
C2119 C 0.98707 0.03059 0.13668 0.0
C2120 C 0.99641 0.02575 0.15213 0.0
C2121 C 0.96972 0.03332 0.13827 0.0
C2122 C 0.95846 0.0376 0.1225 0.0
C2123 C 0.95458 0.02655 0.10541 0.0
C2124 C 0.94423 0.03089 0.09055 0.0
C2125 C 0.93751 0.04614 0.09266 0.0
C2126 C 0.94108 0.05707 0.10965 0.0
C2127 C 0.95147 0.05282 0.12453 0.0
H2128 H 0.92951 0.04947 0.08114 0.0
H2129 H 0.02533 1.00357 0.22616 0.0
H2130 H 0.28892 0.68709 0.50877 0.0
H2131 H 0.28545 0.70047 0.48019 0.0
H2132 H 0.25082 0.65104 0.45323 0.0
H2133 H 0.25527 0.63736 0.48152 0.0
H2134 H 0.27146 0.66504 0.43032 0.0
H2135 H 0.23295 0.68685 0.46929 0.0
H2136 H 0.22469 0.70045 0.49809 0.0
H2137 H 0.26474 0.74809 0.49687 0.0
H2138 H 0.27324 0.73476 0.46807 0.0
H2139 H 0.23094 0.70803 0.36052 0.0
H2140 H 0.2401 0.69009 0.38375 0.0
H2141 H 0.27673 0.73701 0.41357 0.0
H2142 H 0.26696 0.75498 0.39076 0.0
H2143 H 0.25368 0.72267 0.4344 0.0
H2144 H 0.29101 0.69919 0.39337 0.0
H2145 H 0.2981 0.68375 0.36492 0.0
H2146 H 0.25767 0.63741 0.36965 0.0
H2147 H 0.25022 0.65264 0.39799 0.0
C2148 C 0.28092 0.67907 0.49656 0.0
C2149 C 0.27255 0.66127 0.49701 0.0
C2150 C 0.27874 0.68671 0.48039 0.0
C2151 C 0.26756 0.67683 0.46478 0.0
C2152 C 0.25952 0.65886 0.46514 0.0
C2153 C 0.26213 0.65105 0.48118 0.0
C2154 C 0.26423 0.68538 0.44817 0.0
C2155 C 0.26735 0.67754 0.43109 0.0
C2156 C 0.25893 0.70168 0.44932 0.0
C2157 C 0.2538 0.70977 0.4666 0.0
C2158 C 0.24004 0.7002 0.47522 0.0
C2159 C 0.23529 0.70787 0.49152 0.0
C2160 C 0.24421 0.72511 0.49932 0.0
C2161 C 0.25784 0.73474 0.4908 0.0
C2162 C 0.26258 0.72716 0.47446 0.0
C2163 C 0.24118 0.71433 0.3719 0.0
C2164 C 0.24806 0.73279 0.37429 0.0
C2165 C 0.24655 0.70409 0.38501 0.0
C2166 C 0.25906 0.71225 0.40039 0.0
C2167 C 0.26698 0.73051 0.40183 0.0
C2168 C 0.26139 0.74075 0.38893 0.0
C2169 C 0.26154 0.70269 0.4165 0.0
C2170 C 0.25792 0.71024 0.43354 0.0
C2171 C 0.266 0.68596 0.41516 0.0
C2172 C 0.26993 0.67714 0.39766 0.0
C2173 C 0.28347 0.6858 0.38819 0.0
C2174 C 0.2876 0.67705 0.37213 0.0
C2175 C 0.27829 0.65964 0.36545 0.0
C2176 C 0.26487 0.6509 0.37483 0.0
C2177 C 0.26068 0.65959 0.39088 0.0
H2178 H 0.28152 0.65289 0.35302 0.0
H2179 H 0.24054 0.73101 0.51196 0.0
H2180 H 0.67224 0.05231 0.70608 0.0
H2181 H 0.65154 0.05314 0.67882 0.0
H2182 H 0.61211 0.01169 0.69608 0.0
H2183 H 0.63261 0.01056 0.72314 0.0
H2184 H 0.61896 0.00607 0.65947 0.0
H2185 H 0.60853 0.05366 0.70364 0.0
H2186 H 0.61699 0.08253 0.72367 0.0
H2187 H 0.63348 0.10893 0.67748 0.0
H2188 H 0.62528 0.08021 0.65723 0.0
H2189 H 0.54664 1.00165 0.59345 0.0
H2190 H 0.56475 1.00346 0.62319 0.0
H2191 H 0.59164 0.05743 0.61756 0.0
H2192 H 0.57055 0.05668 0.59036 0.0
H2193 H 0.59243 0.05728 0.64918 0.0
H2194 H 0.60671 0.01238 0.60482 0.0
H2195 H 0.60107 0.98443 0.58341 0.0
H2196 H 0.58244 0.95451 0.62659 0.0
H2197 H 0.58787 0.98225 0.64816 0.0
C2198 C 0.65926 0.04318 0.70388 0.0
C2199 C 0.65397 0.03132 0.71661 0.0
C2200 C 0.64745 0.04389 0.68853 0.0
C2201 C 0.63039 0.03271 0.68588 0.0
C2202 C 0.62528 0.0205 0.6982 0.0
C2203 C 0.63701 0.01979 0.7135 0.0
C2204 C 0.61802 0.03276 0.66962 0.0
C2205 C 0.61307 0.01722 0.65706 0.0
C2206 C 0.61103 0.04761 0.66653 0.0
C2207 C 0.61647 0.06474 0.67897 0.0
C2208 C 0.61416 0.06558 0.69781 0.0
C2209 C 0.61885 0.08194 0.70919 0.0
C2210 C 0.6258 0.09754 0.70187 0.0
C2211 C 0.62812 0.09684 0.68315 0.0
C2212 C 0.62345 0.08053 0.67172 0.0
C2213 C 0.55632 0.01389 0.59893 0.0
C2214 C 0.55817 0.02879 0.58952 0.0
C2215 C 0.56688 0.01485 0.61565 0.0
C2216 C 0.58041 0.03017 0.62209 0.0
C2217 C 0.58154 0.04531 0.61286 0.0
C2218 C 0.56984 0.04482 0.59712 0.0
C2219 C 0.59343 0.03057 0.63831 0.0
C2220 C 0.59848 0.04616 0.65108 0.0
C2221 C 0.60114 0.01598 0.64121 0.0
C2222 C 0.59756 0.99939 0.62803 0.0
C2223 C 0.60131 0.99984 0.60968 0.0
C2224 C 0.59817 0.98403 0.59754 0.0
C2225 C 0.59137 0.96771 0.60363 0.0
C2226 C 0.58769 0.96715 0.62187 0.0
C2227 C 0.59082 0.9829 0.63406 0.0
H2228 H 0.58898 0.95549 0.59422 0.0
H2229 H 0.6293 0.11019 0.71067 0.0
H2230 H 0.26696 0.32707 0.98435 0.0
H2231 H 0.26494 0.31498 0.95158 0.0
H2232 H 0.30844 0.35799 0.94444 0.0
H2233 H 0.31016 0.37019 0.97708 0.0
H2234 H 0.28459 0.35102 0.91413 0.0
H2235 H 0.31464 0.31576 0.95043 0.0
H2236 H 0.31776 0.2975 0.97567 0.0
H2237 H 0.27018 0.25921 0.95108 0.0
H2238 H 0.26666 0.27737 0.92579 0.0
H2239 H 0.30871 0.31178 0.83088 0.0
H2240 H 0.30918 0.32442 0.86318 0.0
H2241 H 0.26543 0.28121 0.86926 0.0
H2242 H 0.26525 0.26847 0.83704 0.0
H2243 H 0.28873 0.28835 0.89995 0.0
H2244 H 0.26027 0.32355 0.86187 0.0
H2245 H 0.25837 0.34239 0.83687 0.0
H2246 H 0.3037 0.38149 0.865 0.0
H2247 H 0.30631 0.36273 0.88989 0.0
C2248 C 0.27593 0.33401 0.97569 0.0
C2249 C 0.2887 0.34956 0.98325 0.0
C2250 C 0.27486 0.32705 0.95695 0.0
C2251 C 0.28672 0.33535 0.94537 0.0
C2252 C 0.29912 0.35124 0.95289 0.0
C2253 C 0.30014 0.3582 0.9716 0.0
C2254 C 0.28676 0.32713 0.92578 0.0
C2255 C 0.28567 0.33737 0.91109 0.0
C2256 C 0.28792 0.30922 0.92151 0.0
C2257 C 0.29032 0.29797 0.93631 0.0
C2258 C 0.30482 0.30346 0.95044 0.0
C2259 C 0.30666 0.29314 0.96475 0.0
C2260 C 0.29415 0.27722 0.965 0.0
C2261 C 0.27984 0.27155 0.95087 0.0
C2262 C 0.27794 0.28183 0.93653 0.0
C2263 C 0.29934 0.30493 0.83921 0.0
C2264 C 0.28701 0.28911 0.83152 0.0
C2265 C 0.2995 0.31221 0.85767 0.0
C2266 C 0.28715 0.30399 0.8688 0.0
C2267 C 0.27511 0.2879 0.86113 0.0
C2268 C 0.27501 0.28059 0.84271 0.0
C2269 C 0.28657 0.31223 0.88824 0.0
C2270 C 0.28758 0.30199 0.90293 0.0
C2271 C 0.28542 0.33018 0.89247 0.0
C2272 C 0.28357 0.34165 0.8777 0.0
C2273 C 0.2699 0.33612 0.86269 0.0
C2274 C 0.26869 0.34677 0.84854 0.0
C2275 C 0.28085 0.3631 0.84939 0.0
C2276 C 0.29428 0.36883 0.86438 0.0
C2277 C 0.29566 0.35819 0.8785 0.0
H2278 H 0.27986 0.3713 0.83842 0.0
H2279 H 0.29557 0.26927 0.97613 0.0
H2280 H 0.93495 0.02605 0.33753 0.0
H2281 H 0.94617 0.02871 0.37051 0.0
H2282 H 0.99413 0.01441 0.35607 0.0
H2283 H 0.98254 0.01086 0.32329 0.0
H2284 H 0.98368 0.9965 0.3812 0.0
H2285 H 0.98919 0.05924 0.37535 0.0
H2286 H 0.97822 0.08571 0.36866 0.0
H2287 H 0.94216 0.07654 0.40923 0.0
H2288 H 0.95271 0.04988 0.41597 0.0
H2289 H 0.03515 0.01443 0.47009 0.0
H2290 H 0.02286 0.01339 0.43775 0.0
H2291 H 0.97706 0.02995 0.4555 0.0
H2292 H 0.98962 0.03167 0.48775 0.0
H2293 H 0.98518 0.04683 0.42917 0.0
H2294 H 0.97464 0.98397 0.43238 0.0
H2295 H 0.98055 0.95484 0.43755 0.0
H2296 H 0.02235 0.96286 0.40301 0.0
H2297 H 0.01623 0.99181 0.39712 0.0
C2298 C 0.948 0.02372 0.34141 0.0
C2299 C 0.95784 0.01824 0.3277 0.0
C2300 C 0.95449 0.02533 0.36036 0.0
C2301 C 0.9712 0.02196 0.36608 0.0
C2302 C 0.9812 0.01704 0.35227 0.0
C2303 C 0.97457 0.01507 0.33342 0.0
C2304 C 0.97796 0.02234 0.38622 0.0
C2305 C 0.98428 0.00773 0.39155 0.0
C2306 C 0.97802 0.03647 0.4002 0.0
C2307 C 0.97162 0.05245 0.39601 0.0
C2308 C 0.97882 0.06278 0.38273 0.0
C2309 C 0.97269 0.07783 0.37895 0.0
C2310 C 0.95947 0.08277 0.38848 0.0
C2311 C 0.95237 0.07268 0.40183 0.0
C2312 C 0.95842 0.05761 0.40563 0.0
C2313 C 0.0224 0.01774 0.46712 0.0
C2314 C 0.01346 0.02318 0.48166 0.0
C2315 C 0.01526 0.01702 0.44852 0.0
C2316 C 0.99879 0.02138 0.44388 0.0
C2317 C 0.98978 0.02658 0.45845 0.0
C2318 C 0.99701 0.02751 0.47701 0.0
C2319 C 0.99123 0.02113 0.42399 0.0
C2320 C 0.98469 0.03569 0.41875 0.0
C2321 C 0.99061 0.00683 0.41009 0.0
C2322 C 0.99512 0.99008 0.4145 0.0
C2323 C 0.98521 0.97958 0.42605 0.0
C2324 C 0.98852 0.96307 0.42901 0.0
C2325 C 1.00192 0.95705 0.42074 0.0
C2326 C 0.01199 0.96753 0.40942 0.0
C2327 C 0.00853 0.98393 0.40616 0.0
H2328 H 1.00444 0.94424 0.42303 0.0
H2329 H 0.95476 0.09444 0.38554 0.0
H2330 H 0.25846 0.63424 0.6078 0.0
H2331 H 0.2559 0.65536 0.63413 0.0
H2332 H 0.29294 0.69687 0.61399 0.0
H2333 H 0.29589 0.67609 0.58806 0.0
H2334 H 0.30114 0.69088 0.65115 0.0
H2335 H 0.2484 0.69684 0.60781 0.0
H2336 H 0.21753 0.68815 0.59187 0.0
H2337 H 0.1984 0.67287 0.6422 0.0
H2338 H 0.22906 0.68139 0.65836 0.0
H2339 H 0.307 0.76525 0.71403 0.0
H2340 H 0.304 0.74751 0.6837 0.0
H2341 H 0.25022 0.72134 0.691 0.0
H2342 H 0.25191 0.74257 0.71801 0.0
H2343 H 0.2495 0.71707 0.66006 0.0
H2344 H 0.2969 0.70746 0.70509 0.0
H2345 H 0.32549 0.71656 0.72568 0.0
H2346 H 0.35264 0.73254 0.67976 0.0
H2347 H 0.32423 0.72365 0.65897 0.0
C2348 C 0.26626 0.64781 0.60919 0.0
C2349 C 0.27753 0.65353 0.59603 0.0
C2350 C 0.26451 0.65984 0.62398 0.0
C2351 C 0.27401 0.67755 0.6256 0.0
C2352 C 0.28541 0.68319 0.61269 0.0
C2353 C 0.28724 0.67126 0.59805 0.0
C2354 C 0.27382 0.69016 0.64166 0.0
C2355 C 0.28983 0.69657 0.65339 0.0
C2356 C 0.25886 0.69692 0.64473 0.0
C2357 C 0.241 0.68957 0.63419 0.0
C2358 C 0.23765 0.69126 0.61533 0.0
C2359 C 0.22018 0.6865 0.60632 0.0
C2360 C 0.20606 0.68007 0.61608 0.0
C2361 C 0.20936 0.6779 0.6347 0.0
C2362 C 0.22675 0.68266 0.64376 0.0
C2363 C 0.29452 0.75591 0.70865 0.0
C2364 C 0.28001 0.754 0.71864 0.0
C2365 C 0.29287 0.74554 0.69162 0.0
C2366 C 0.27742 0.73196 0.68568 0.0
C2367 C 0.26252 0.73131 0.6952 0.0
C2368 C 0.2636 0.743 0.71101 0.0
C2369 C 0.27684 0.71781 0.67039 0.0
C2370 C 0.26077 0.71115 0.65857 0.0
C2371 C 0.29144 0.70995 0.66805 0.0
C2372 C 0.30848 0.71501 0.68055 0.0
C2373 C 0.30899 0.71292 0.69943 0.0
C2374 C 0.32515 0.71806 0.71112 0.0
C2375 C 0.34086 0.72515 0.70404 0.0
C2376 C 0.34047 0.72706 0.68523 0.0
C2377 C 0.32437 0.72195 0.67349 0.0
H2378 H 0.35335 0.72915 0.71311 0.0
H2379 H 0.19255 0.67697 0.60932 0.0
H2380 H 0.61783 0.02697 0.80257 0.0
H2381 H 0.60548 0.0302 0.83168 0.0
H2382 H 0.65858 0.0469 0.86148 0.0
H2383 H 0.67102 0.043 0.83232 0.0
H2384 H 0.63783 0.02387 0.87849 0.0
H2385 H 0.63369 0.07824 0.8555 0.0
H2386 H 0.62672 0.09833 0.83326 0.0
H2387 H 0.57143 0.0716 0.82685 0.0
H2388 H 0.57806 0.0513 0.84894 0.0
H2389 H 0.5967 0.05679 0.95534 0.0
H2390 H 0.6151 0.04804 0.93251 0.0
H2391 H 0.56812 0.02858 0.89247 0.0
H2392 H 0.54983 0.03806 0.91505 0.0
H2393 H 0.5906 0.05716 0.88375 0.0
H2394 H 0.5962 1.00056 0.90479 0.0
H2395 H 0.60414 0.98107 0.92726 0.0
H2396 H 0.65744 0.01354 0.93831 0.0
H2397 H 0.64979 0.03318 0.91589 0.0
C2398 C 0.62682 0.03108 0.81538 0.0
C2399 C 0.64528 0.03456 0.81541 0.0
C2400 C 0.6198 0.03317 0.83191 0.0
C2401 C 0.63119 0.03921 0.84855 0.0
C2402 C 0.64966 0.04232 0.84868 0.0
C2403 C 0.6567 0.03992 0.83213 0.0
C2404 C 0.62352 0.04135 0.86583 0.0
C2405 C 0.62769 0.03138 0.87986 0.0
C2406 C 0.61038 0.05119 0.86745 0.0
C2407 C 0.60641 0.06316 0.8538 0.0
C2408 C 0.62007 0.07654 0.84922 0.0
C2409 C 0.61617 0.08801 0.83669 0.0
C2410 C 0.59866 0.08622 0.82862 0.0
C2411 C 0.585 0.07298 0.8331 0.0
C2412 C 0.58881 0.06152 0.84566 0.0
C2413 C 0.59034 0.05024 0.94176 0.0
C2414 C 0.57211 0.0486 0.93649 0.0
C2415 C 0.60079 0.04502 0.92889 0.0
C2416 C 0.59292 0.03787 0.91085 0.0
C2417 C 0.57435 0.03422 0.90637 0.0
C2418 C 0.56399 0.0398 0.91908 0.0
C2419 C 0.60392 0.03858 0.89574 0.0
C2420 C 0.6007 0.04959 0.88239 0.0
C2421 C 0.61799 0.02985 0.89491 0.0
C2422 C 0.62235 0.01845 0.90887 0.0
C2423 C 0.60954 1.00365 0.91219 0.0
C2424 C 0.61401 0.99253 0.92484 0.0
C2425 C 0.63126 0.99611 0.93427 0.0
C2426 C 0.64408 0.01079 0.93103 0.0
C2427 C 0.63969 0.02189 0.91833 0.0
H2428 H 0.6347 0.98748 0.94405 0.0
H2429 H 0.59566 0.0951 0.81893 0.0
H2430 H 0.29465 0.33411 0.08051 0.0
H2431 H 0.29176 0.32024 0.10899 0.0
H2432 H 0.27141 0.36355 0.13293 0.0
H2433 H 0.2748 0.3777 0.10484 0.0
H2434 H 0.29254 0.3554 0.15874 0.0
H2435 H 0.24352 0.3215 0.11598 0.0
H2436 H 0.22943 0.30466 0.08575 0.0
H2437 H 0.26017 0.2657 0.09347 0.0
H2438 H 0.27459 0.28244 0.12369 0.0
H2439 H 0.25863 0.31032 0.23309 0.0
H2440 H 0.26108 0.32525 0.2052 0.0
H2441 H 0.28478 0.28476 0.18064 0.0
H2442 H 0.28236 0.26984 0.20836 0.0
H2443 H 0.26108 0.29203 0.15541 0.0
H2444 H 0.31213 0.32962 0.19778 0.0
H2445 H 0.3264 0.3489 0.22681 0.0
H2446 H 0.28881 0.38149 0.22001 0.0
H2447 H 0.27468 0.36278 0.19067 0.0
C2448 C 0.28946 0.34063 0.09178 0.0
C2449 C 0.28484 0.35698 0.09018 0.0
C2450 C 0.28777 0.33267 0.10813 0.0
C2451 C 0.2811 0.34065 0.12323 0.0
C2452 C 0.2766 0.35703 0.12165 0.0
C2453 C 0.27846 0.36508 0.10543 0.0
C2454 C 0.27853 0.33183 0.14047 0.0
C2455 C 0.28547 0.3416 0.15795 0.0
C2456 C 0.26937 0.3138 0.13974 0.0
C2457 C 0.26018 0.30325 0.12203 0.0
C2458 C 0.24727 0.30933 0.11122 0.0
C2459 C 0.23924 0.29983 0.09409 0.0
C2460 C 0.24392 0.28413 0.08768 0.0
C2461 C 0.25655 0.27786 0.09846 0.0
C2462 C 0.26463 0.28733 0.11561 0.0
C2463 C 0.26422 0.3045 0.22169 0.0
C2464 C 0.27002 0.28866 0.22298 0.0
C2465 C 0.2658 0.31317 0.20576 0.0
C2466 C 0.27334 0.30633 0.19072 0.0
C2467 C 0.27888 0.29039 0.19191 0.0
C2468 C 0.27736 0.28175 0.20781 0.0
C2469 C 0.27531 0.31552 0.17366 0.0
C2470 C 0.26817 0.30583 0.15619 0.0
C2471 C 0.284 0.33372 0.17444 0.0
C2472 C 0.29228 0.34475 0.19217 0.0
C2473 C 0.30688 0.34086 0.20254 0.0
C2474 C 0.31496 0.3517 0.219 0.0
C2475 C 0.3084 0.36627 0.22533 0.0
C2476 C 0.29386 0.37018 0.21511 0.0
C2477 C 0.28589 0.35955 0.19851 0.0
H2478 H 0.31464 0.37459 0.23811 0.0
H2479 H 0.23774 0.27682 0.07438 0.0
H2480 H 0.25557 0.97537 0.02266 0.0
H2481 H 0.22836 0.98325 0.03025 0.0
H2482 H 0.19709 0.93611 0.99572 0.0
H2483 H 0.22449 0.92789 0.98806 0.0
H2484 H 0.18641 0.96788 0.99048 0.0
H2485 H 0.19804 0.93527 0.04007 0.0
H2486 H 0.21562 0.92591 0.06561 0.0
H2487 H 0.2272 0.97873 0.09494 0.0
H2488 H 0.20992 0.9885 0.0695 0.0
H2489 H 0.11431 0.99352 0.03772 0.0
H2490 H 0.13337 0.97784 0.02093 0.0
H2491 H 0.1799 0.01616 0.04894 0.0
H2492 H 0.16102 0.03174 0.0657 0.0
H2493 H 0.17728 0.9807 0.05608 0.0
H2494 H 0.17185 0.01467 0.00485 0.0
H2495 H 0.15788 0.02576 0.97808 0.0
H2496 H 0.13733 0.97217 0.95153 0.0
H2497 H 0.15099 0.96075 0.97825 0.0
C2498 C 0.24294 0.96674 0.01647 0.0
C2499 C 0.24211 0.95102 0.00475 0.0
C2500 C 0.22744 0.97115 0.02102 0.0
C2501 C 0.21087 0.95998 0.01389 0.0
C2502 C 0.20987 0.94468 0.00152 0.0
C2503 C 0.22547 0.94014 0.99704 0.0
C2504 C 0.19475 0.96518 0.01877 0.0
C2505 C 0.18397 0.97024 0.00476 0.0
C2506 C 0.19204 0.96843 0.03748 0.0
C2507 C 0.20268 0.96264 0.05278 0.0
C2508 C 0.20444 0.94494 0.05189 0.0
C2509 C 0.21434 0.93955 0.06638 0.0
C2510 C 0.22253 0.95171 0.08188 0.0
C2511 C 0.22084 0.9693 0.08293 0.0
C2512 C 0.21096 0.97477 0.06849 0.0
C2513 C 0.12858 0.99884 0.03981 0.0
C2514 C 0.13631 0.01354 0.05322 0.0
C2515 C 0.1394 0.98994 0.03022 0.0
C2516 C 0.15795 0.99581 0.03392 0.0
C2517 C 0.16556 0.01142 0.04606 0.0
C2518 C 0.15482 0.02023 0.05566 0.0
C2519 C 0.16957 0.98434 0.02786 0.0
C2520 C 0.17934 0.97791 0.04174 0.0
C2521 C 0.17149 0.98004 0.00907 0.0
C2522 C 0.16208 0.98684 0.99376 0.0
C2523 C 0.164 0.00523 0.99351 0.0
C2524 C 0.15625 0.01159 0.97827 0.0
C2525 C 0.14662 0.99968 0.96317 0.0
C2526 C 0.14469 0.98138 0.96328 0.0
C2527 C 0.15242 0.97497 0.97847 0.0
H2528 H 0.14073 1.00464 0.95134 0.0
H2529 H 0.23016 0.94751 0.09309 0.0
H2530 H 0.72894 0.61378 0.01067 0.0
H2531 H 0.69927 0.59529 0.01241 0.0
H2532 H 0.68031 0.64245 0.02653 0.0
H2533 H 0.70969 0.66101 0.02435 0.0
H2534 H 0.67201 0.61516 0.05062 0.0
H2535 H 0.6664 0.62371 0.98677 0.0
H2536 H 0.67569 0.62402 0.95558 0.0
H2537 H 0.67227 0.5678 0.9513 0.0
H2538 H 0.66321 0.56722 0.98263 0.0
H2539 H 0.57523 0.56967 0.01594 0.0
H2540 H 0.60433 0.58872 0.0137 0.0
H2541 H 0.63005 0.55309 0.04148 0.0
H2542 H 0.60113 0.53506 0.04566 0.0
H2543 H 0.63452 0.5757 0.99676 0.0
H2544 H 0.64738 0.57183 0.06655 0.0
H2545 H 0.63711 0.57399 0.09731 0.0
H2546 H 0.62625 0.6248 0.08963 0.0
H2547 H 0.63572 0.6225 0.05843 0.0
C2548 C 0.71839 0.62021 0.01392 0.0
C2549 C 0.72165 0.63886 0.01725 0.0
C2550 C 0.70148 0.60964 0.01496 0.0
C2551 C 0.68764 0.61752 0.01969 0.0
C2552 C 0.69082 0.63611 0.02292 0.0
C2553 C 0.70759 0.64669 0.0215 0.0
C2554 C 0.66987 0.60633 0.02141 0.0
C2555 C 0.66385 0.60651 0.03884 0.0
C2556 C 0.65911 0.59523 0.00603 0.0
C2557 C 0.66432 0.59545 0.98712 0.0
C2558 C 0.66778 0.61144 0.97924 0.0
C2559 C 0.67297 0.61166 0.96153 0.0
C2560 C 0.67462 0.59595 0.95148 0.0
C2561 C 0.67101 0.57997 0.95911 0.0
C2562 C 0.66583 0.57968 0.97684 0.0
C2563 C 0.58705 0.56591 0.02174 0.0
C2564 C 0.58572 0.55053 0.03068 0.0
C2565 C 0.60369 0.57685 0.02043 0.0
C2566 C 0.61936 0.57254 0.02778 0.0
C2567 C 0.61814 0.55701 0.03626 0.0
C2568 C 0.60152 0.5464 0.03816 0.0
C2569 C 0.63697 0.58404 0.02609 0.0
C2570 C 0.64283 0.58414 0.00858 0.0
C2571 C 0.64756 0.59546 0.04137 0.0
C2572 C 0.64167 0.5967 0.05995 0.0
C2573 C 0.64235 0.58322 0.07122 0.0
C2574 C 0.63675 0.58451 0.08876 0.0
C2575 C 0.63087 0.59945 0.09536 0.0
C2576 C 0.63062 0.61314 0.08442 0.0
C2577 C 0.63599 0.6118 0.06677 0.0
H2578 H 0.62664 0.60047 0.10898 0.0
H2579 H 0.67866 0.59615 0.93777 0.0
H2580 H 0.6615 0.4768 0.31721 0.0
H2581 H 0.67338 0.44992 0.31461 0.0
H2582 H 0.69522 0.46487 0.26514 0.0
H2583 H 0.68358 0.49153 0.26764 0.0
H2584 H 0.67734 0.42988 0.26079 0.0
H2585 H 0.72131 0.47136 0.30581 0.0
H2586 H 0.731 0.49134 0.33524 0.0
H2587 H 0.71361 0.44766 0.36563 0.0
H2588 H 0.70355 0.42746 0.33634 0.0
H2589 H 0.741 0.3842 0.24113 0.0
H2590 H 0.72838 0.40886 0.25247 0.0
H2591 H 0.71201 0.38157 0.29848 0.0
H2592 H 0.72515 0.35697 0.28733 0.0
H2593 H 0.72325 0.41917 0.30786 0.0
H2594 H 0.68269 0.37687 0.26263 0.0
H2595 H 0.67417 0.35699 0.23306 0.0
H2596 H 0.68495 0.40203 0.20306 0.0
H2597 H 0.69389 0.42217 0.23246 0.0
C2598 C 0.66892 0.47437 0.30586 0.0
C2599 C 0.67166 0.48637 0.29269 0.0
C2600 C 0.67568 0.45902 0.30439 0.0
C2601 C 0.68519 0.45539 0.28967 0.0
C2602 C 0.68788 0.46735 0.27656 0.0
C2603 C 0.6813 0.48268 0.2781 0.0
C2604 C 0.69254 0.43926 0.28765 0.0
C2605 C 0.68739 0.42757 0.27108 0.0
C2606 C 0.70525 0.4359 0.30131 0.0
C2607 C 0.71148 0.44796 0.3189 0.0
C2608 C 0.71942 0.46605 0.31877 0.0
C2609 C 0.725 0.4774 0.33542 0.0
C2610 C 0.72287 0.47078 0.35229 0.0
C2611 C 0.71521 0.45277 0.35255 0.0
C2612 C 0.70957 0.44136 0.33593 0.0
C2613 C 0.73502 0.38367 0.25386 0.0
C2614 C 0.73385 0.36871 0.2633 0.0
C2615 C 0.72781 0.39771 0.26032 0.0
C2616 C 0.71894 0.39688 0.27611 0.0
C2617 C 0.71875 0.38245 0.28625 0.0
C2618 C 0.72621 0.36844 0.27989 0.0
C2619 C 0.70851 0.41027 0.28071 0.0
C2620 C 0.71297 0.42132 0.29774 0.0
C2621 C 0.69507 0.41304 0.26751 0.0
C2622 C 0.68903 0.40103 0.24977 0.0
C2623 C 0.6833 0.38254 0.24973 0.0
C2624 C 0.67842 0.37122 0.23299 0.0
C2625 C 0.67903 0.37824 0.21619 0.0
C2626 C 0.68447 0.39661 0.21609 0.0
C2627 C 0.68943 0.40799 0.23279 0.0
H2628 H 0.67528 0.36945 0.20324 0.0
H2629 H 0.72719 0.4796 0.36517 0.0
H2630 H 0.84616 0.41667 0.51767 0.0
H2631 H 0.87637 0.4341 0.52862 0.0
H2632 H 0.86103 0.48169 0.51452 0.0
H2633 H 0.831 0.46449 0.50328 0.0
H2634 H 0.88921 0.47428 0.4988 0.0
H2635 H 0.86907 0.47694 0.55873 0.0
H2636 H 0.85635 0.46529 0.58574 0.0
H2637 H 0.8981 0.43769 0.59433 0.0
H2638 H 0.91093 0.44894 0.56719 0.0
H2639 H 0.96715 0.53847 0.53176 0.0
H2640 H 0.93632 0.52154 0.5279 0.0
H2641 H 0.95354 0.47591 0.54523 0.0
H2642 H 0.98443 0.49258 0.54881 0.0
H2643 H 0.92448 0.4817 0.56073 0.0
H2644 H 0.93908 0.4715 0.49777 0.0
H2645 H 0.94697 0.47587 0.46647 0.0
H2646 H 0.9148 0.51409 0.46255 0.0
H2647 H 0.90638 0.50957 0.49362 0.0
C2648 C 0.84929 0.43083 0.5168 0.0
C2649 C 0.83635 0.43926 0.50955 0.0
C2650 C 0.86637 0.44075 0.52338 0.0
C2651 C 0.87054 0.4591 0.52276 0.0
C2652 C 0.85775 0.46751 0.51534 0.0
C2653 C 0.84075 0.45764 0.50867 0.0
C2654 C 0.8889 0.46917 0.52713 0.0
C2655 C 0.89684 0.47626 0.51246 0.0
C2656 C 0.89882 0.47079 0.54473 0.0
C2657 C 0.89084 0.46363 0.56077 0.0
C2658 C 0.87541 0.46819 0.56622 0.0
C2659 C 0.86822 0.46171 0.5816 0.0
C2660 C 0.87638 0.45071 0.59171 0.0
C2661 C 0.89177 0.44618 0.58647 0.0
C2662 C 0.89901 0.45262 0.57109 0.0
C2663 C 0.96435 0.52491 0.53501 0.0
C2664 C 0.97811 0.51678 0.54056 0.0
C2665 C 0.94682 0.51527 0.53265 0.0
C2666 C 0.94292 0.49749 0.53594 0.0
C2667 C 0.95649 0.48964 0.54253 0.0
C2668 C 0.97406 0.49923 0.54476 0.0
C2669 C 0.92459 0.48712 0.53243 0.0
C2670 C 0.91673 0.47987 0.54718 0.0
C2671 C 0.91463 0.48508 0.51482 0.0
C2672 C 0.92239 0.49044 0.49809 0.0
C2673 C 0.93406 0.48115 0.4904 0.0
C2674 C 0.93838 0.48344 0.47259 0.0
C2675 C 0.93131 0.49519 0.46251 0.0
C2676 C 0.92022 0.50497 0.47036 0.0
C2677 C 0.91565 0.50252 0.48803 0.0
H2678 H 0.93441 0.49673 0.4486 0.0
H2679 H 0.87081 0.44574 0.60364 0.0
H2680 H 0.33006 0.04845 0.30762 0.0
H2681 H 0.31937 0.07452 0.30023 0.0
H2682 H 0.37356 0.10407 0.30107 0.0
H2683 H 0.38435 0.07812 0.30907 0.0
H2684 H 0.35328 0.12442 0.31567 0.0
H2685 H 0.35015 0.08566 0.25996 0.0
H2686 H 0.34277 0.0573 0.23912 0.0
H2687 H 0.28714 0.05284 0.24257 0.0
H2688 H 0.2942 0.08112 0.26355 0.0
H2689 H 0.3285 0.18415 0.2542 0.0
H2690 H 0.34166 0.1634 0.27095 0.0
H2691 H 0.28909 0.13363 0.27697 0.0
H2692 H 0.27594 0.15452 0.26043 0.0
H2693 H 0.31018 0.11419 0.25846 0.0
H2694 H 0.315 0.1531 0.31629 0.0
H2695 H 0.32397 0.18132 0.33741 0.0
H2696 H 0.37841 0.18589 0.32808 0.0
H2697 H 0.36972 0.15767 0.30695 0.0
C2698 C 0.33966 0.06069 0.30673 0.0
C2699 C 0.35794 0.06144 0.30881 0.0
C2700 C 0.33358 0.07544 0.30235 0.0
C2701 C 0.34572 0.09091 0.29963 0.0
C2702 C 0.36406 0.09212 0.30302 0.0
C2703 C 0.37018 0.07741 0.30771 0.0
C2704 C 0.33909 0.10549 0.29252 0.0
C2705 C 0.34404 0.12229 0.30303 0.0
C2706 C 0.32704 0.10252 0.27605 0.0
C2707 C 0.32272 0.08545 0.26346 0.0
C2708 C 0.33635 0.07857 0.25639 0.0
C2709 C 0.33222 0.06252 0.24452 0.0
C2710 C 0.3145 0.05325 0.23956 0.0
C2711 C 0.30087 0.06003 0.24643 0.0
C2712 C 0.30492 0.07609 0.25828 0.0
C2713 C 0.31987 0.17333 0.25944 0.0
C2714 C 0.30134 0.17064 0.25602 0.0
C2715 C 0.32734 0.16165 0.26908 0.0
C2716 C 0.31628 0.14712 0.27516 0.0
C2717 C 0.29775 0.14488 0.27242 0.0
C2718 C 0.29029 0.15671 0.263 0.0
C2719 C 0.32392 0.13299 0.28195 0.0
C2720 C 0.31936 0.11629 0.27114 0.0
C2721 C 0.33657 0.13615 0.29791 0.0
C2722 C 0.34169 0.15344 0.30992 0.0
C2723 C 0.32884 0.16025 0.3186 0.0
C2724 C 0.33389 0.17619 0.33063 0.0
C2725 C 0.35174 0.18543 0.33404 0.0
C2726 C 0.36459 0.17874 0.32542 0.0
C2727 C 0.35962 0.16276 0.31346 0.0
H2728 H 0.35563 0.19775 0.34339 0.0
H2729 H 0.31133 0.04083 0.23038 0.0
H2730 H 0.32363 0.13477 0.55548 0.0
H2731 H 0.35097 0.124 0.55684 0.0
H2732 H 0.35144 0.12586 0.49824 0.0
H2733 H 0.32422 0.13735 0.49691 0.0
H2734 H 0.35456 0.09178 0.51299 0.0
H2735 H 0.38185 0.15439 0.52241 0.0
H2736 H 0.38726 0.18552 0.53688 0.0
H2737 H 0.40185 0.17005 0.58988 0.0
H2738 H 0.3963 0.1388 0.5758 0.0
H2739 H 0.43148 0.05643 0.52825 0.0
H2740 H 0.41228 0.0749 0.51596 0.0
H2741 H 0.41238 0.09993 0.57145 0.0
H2742 H 0.43223 0.08236 0.58347 0.0
H2743 H 0.41143 0.12324 0.55109 0.0
H2744 H 0.37837 0.0619 0.54571 0.0
H2745 H 0.37037 0.02977 0.53446 0.0
H2746 H 0.36356 0.04113 0.47833 0.0
H2747 H 0.37181 0.07334 0.48925 0.0
C2748 C 0.32957 0.13297 0.54288 0.0
C2749 C 0.32173 0.13683 0.52607 0.0
C2750 C 0.34527 0.12692 0.54371 0.0
C2751 C 0.35332 0.12423 0.52768 0.0
C2752 C 0.34551 0.12798 0.5108 0.0
C2753 C 0.32998 0.13451 0.51005 0.0
C2754 C 0.36924 0.11647 0.52869 0.0
C2755 C 0.36718 0.09876 0.52095 0.0
C2756 C 0.38549 0.12544 0.53951 0.0
C2757 C 0.38854 0.14421 0.54804 0.0
C2758 C 0.38603 0.15759 0.53718 0.0
C2759 C 0.38917 0.17528 0.54531 0.0
C2760 C 0.39487 0.17976 0.56429 0.0
C2761 C 0.39744 0.16657 0.57518 0.0
C2762 C 0.39431 0.14887 0.56712 0.0
C2763 C 0.42765 0.06613 0.53774 0.0
C2764 C 0.43302 0.06759 0.55691 0.0
C2765 C 0.41649 0.07657 0.53073 0.0
C2766 C 0.41029 0.08851 0.54278 0.0
C2767 C 0.41667 0.09073 0.56176 0.0
C2768 C 0.4279 0.08049 0.56871 0.0
C2769 C 0.39654 0.09812 0.53618 0.0
C2770 C 0.39899 0.11626 0.5428 0.0
C2771 C 0.38039 0.08934 0.52486 0.0
C2772 C 0.37601 0.07001 0.51827 0.0
C2773 C 0.37538 0.05754 0.53096 0.0
C2774 C 0.37077 0.03932 0.52464 0.0
C2775 C 0.36654 0.03341 0.50568 0.0
C2776 C 0.36692 0.04572 0.493 0.0
C2777 C 0.3716 0.06396 0.49924 0.0
H2778 H 0.3629 0.0193 0.50083 0.0
H2779 H 0.39732 0.19346 0.57055 0.0
H2780 H 0.65012 0.59761 0.31333 0.0
H2781 H 0.6675 0.62732 0.31057 0.0
H2782 H 0.71022 0.60477 0.29353 0.0
H2783 H 0.69305 0.57503 0.29648 0.0
H2784 H 0.72307 0.63387 0.31758 0.0
H2785 H 0.68091 0.61833 0.26208 0.0
H2786 H 0.65144 0.60931 0.24321 0.0
H2787 H 0.63666 0.65511 0.26912 0.0
H2788 H 0.66596 0.66428 0.28832 0.0
H2789 H 0.76638 0.70781 0.2728 0.0
H2790 H 0.74929 0.67832 0.27717 0.0
H2791 H 0.71604 0.70269 0.31012 0.0
H2792 H 0.73363 0.73211 0.30689 0.0
H2793 H 0.69843 0.67327 0.27817 0.0
H2794 H 0.73975 0.68856 0.33388 0.0
H2795 H 0.76932 0.69845 0.3524 0.0
H2796 H 0.78533 0.65351 0.32623 0.0
H2797 H 0.75595 0.64358 0.3072 0.0
C2798 C 0.66329 0.59895 0.30918 0.0
C2799 C 0.67016 0.58386 0.30514 0.0
C2800 C 0.67315 0.61597 0.30744 0.0
C2801 C 0.69006 0.61828 0.30153 0.0
C2802 C 0.69717 0.60333 0.29803 0.0
C2803 C 0.68734 0.58631 0.29977 0.0
C2804 C 0.70044 0.63628 0.29919 0.0
C2805 C 0.71773 0.64235 0.30875 0.0
C2806 C 0.69335 0.64761 0.28804 0.0
C2807 C 0.67556 0.64186 0.27682 0.0
C2808 C 0.6713 0.62636 0.26392 0.0
C2809 C 0.65464 0.62125 0.25312 0.0
C2810 C 0.64216 0.6316 0.25501 0.0
C2811 C 0.64632 0.64708 0.2677 0.0
C2812 C 0.66295 0.65224 0.27854 0.0
C2813 C 0.75572 0.70693 0.28134 0.0
C2814 C 0.75168 0.72239 0.28982 0.0
C2815 C 0.74586 0.69007 0.28366 0.0
C2816 C 0.73149 0.6884 0.29403 0.0
C2817 C 0.72712 0.70374 0.3021 0.0
C2818 C 0.73724 0.72055 0.30023 0.0
C2819 C 0.72094 0.67062 0.29644 0.0
C2820 C 0.70369 0.66468 0.28693 0.0
C2821 C 0.72799 0.65944 0.30766 0.0
C2822 C 0.74575 0.66549 0.31888 0.0
C2823 C 0.74966 0.68094 0.33184 0.0
C2824 C 0.76636 0.68652 0.34249 0.0
C2825 C 0.77921 0.67665 0.34045 0.0
C2826 C 0.77538 0.66117 0.32776 0.0
C2827 C 0.75871 0.65557 0.31702 0.0
H2828 H 0.79213 0.68097 0.34873 0.0
H2829 H 0.62929 0.62764 0.24661 0.0
H2830 H 0.88213 0.4608 0.83435 0.0
H2831 H 0.86926 0.42914 0.82343 0.0
H2832 H 0.82988 0.44354 0.78556 0.0
H2833 H 0.84178 0.47472 0.79736 0.0
H2834 H 0.81497 0.41885 0.80251 0.0
H2835 H 0.86808 0.4282 0.77079 0.0
H2836 H 0.90033 0.43625 0.76872 0.0
H2837 H 0.90893 0.39845 0.80551 0.0
H2838 H 0.87676 0.39022 0.80781 0.0
H2839 H 0.77875 0.33004 0.76426 0.0
H2840 H 0.79366 0.36131 0.76381 0.0
H2841 H 0.83736 0.35492 0.80215 0.0
H2842 H 0.82285 0.32377 0.80181 0.0
H2843 H 0.84961 0.37621 0.78038 0.0
H2844 H 0.79934 0.37098 0.81734 0.0
H2845 H 0.76833 0.36547 0.82419 0.0
H2846 H 0.75505 0.39607 0.78154 0.0
H2847 H 0.78607 0.40195 0.77455 0.0
C2848 C 0.8705 0.45699 0.82399 0.0
C2849 C 0.86257 0.46987 0.81695 0.0
C2850 C 0.86342 0.43908 0.81751 0.0
C2851 C 0.84888 0.43415 0.80345 0.0
C2852 C 0.84109 0.44714 0.79644 0.0
C2853 C 0.84773 0.46486 0.80333 0.0
C2854 C 0.84077 0.41543 0.79679 0.0
C2855 C 0.82247 0.40957 0.7973 0.0
C2856 C 0.85072 0.40337 0.79054 0.0
C2857 C 0.87007 0.40871 0.78956 0.0
C2858 C 0.87689 0.42173 0.77855 0.0
C2859 C 0.89514 0.42628 0.77729 0.0
C2860 C 0.90667 0.41789 0.787 0.0
C2861 C 0.89999 0.40494 0.798 0.0
C2862 C 0.88176 0.4003 0.79924 0.0
C2863 C 0.79197 0.33527 0.77173 0.0
C2864 C 0.80004 0.32487 0.7828 0.0
C2865 C 0.80027 0.35307 0.77178 0.0
C2866 C 0.81637 0.3604 0.78326 0.0
C2867 C 0.82496 0.34946 0.79316 0.0
C2868 C 0.81681 0.33171 0.79288 0.0
C2869 C 0.82386 0.3796 0.78636 0.0
C2870 C 0.84204 0.38559 0.78518 0.0
C2871 C 0.81386 0.39177 0.79234 0.0
C2872 C 0.79489 0.38653 0.79513 0.0
C2873 C 0.78972 0.37621 0.80917 0.0
C2874 C 0.77216 0.37313 0.81317 0.0
C2875 C 0.75966 0.38023 0.8032 0.0
C2876 C 0.76469 0.39045 0.78917 0.0
C2877 C 0.78225 0.39368 0.78519 0.0
H2878 H 0.74612 0.37792 0.80644 0.0
H2879 H 0.92079 0.42141 0.78599 0.0
H2880 H 0.07611 0.85013 0.07904 0.0
H2881 H 0.073 0.87954 0.07175 0.0
H2882 H 0.02566 0.87376 0.09862 0.0
H2883 H 0.02888 0.84441 0.10612 0.0
H2884 H 0.01959 0.88777 0.0679 0.0
H2885 H 0.06729 0.90344 0.11737 0.0
H2886 H 0.09652 0.90513 0.13509 0.0
H2887 H 0.1228 0.92692 0.09093 0.0
H2888 H 0.09373 0.92512 0.07282 0.0
H2889 H 0.01069 0.9775 0.06081 0.0
H2890 H 0.01357 0.94906 0.07059 0.0
H2891 H 0.06578 0.95693 0.05319 0.0
H2892 H 0.06312 0.98583 0.04414 0.0
H2893 H 0.06893 0.94172 0.08052 0.0
H2894 H 0.02079 0.92409 0.03005 0.0
H2895 H 0.99135 0.9218 0.0125 0.0
H2896 H 0.96586 0.90367 0.05865 0.0
H2897 H 0.99516 0.90593 0.07651 0.0
C2898 C 0.06498 0.85502 0.08344 0.0
C2899 C 0.05273 0.84443 0.09319 0.0
C2900 C 0.06326 0.87213 0.07934 0.0
C2901 C 0.04911 0.8795 0.08463 0.0
C2902 C 0.03677 0.86883 0.09422 0.0
C2903 C 0.03863 0.85183 0.09856 0.0
C2904 C 0.04688 0.89785 0.07974 0.0
C2905 C 0.03042 0.89956 0.07092 0.0
C2906 C 0.06084 0.91362 0.08313 0.0
C2907 C 0.07831 0.91391 0.09362 0.0
C2908 C 0.07929 0.90834 0.11131 0.0
C2909 C 0.09584 0.90938 0.12146 0.0
C2910 C 0.1115 0.91606 0.11411 0.0
C2911 C 0.11066 0.92169 0.09658 0.0
C2912 C 0.09415 0.92066 0.08637 0.0
C2913 C 0.02274 0.97318 0.05878 0.0
C2914 C 0.03649 0.98429 0.05121 0.0
C2915 C 0.02439 0.95655 0.06438 0.0
C2916 C 0.03977 0.94987 0.06236 0.0
C2917 C 0.05362 0.96114 0.05503 0.0
C2918 C 0.05206 0.9779 0.04967 0.0
C2919 C 0.04171 0.93165 0.06816 0.0
C2920 C 0.05811 0.92995 0.07731 0.0
C2921 C 0.0277 0.91585 0.06503 0.0
C2922 C 0.01016 0.91534 0.05466 0.0
C2923 C 0.00891 0.9198 0.03652 0.0
C2924 C 0.99225 0.91844 0.0265 0.0
C2925 C 0.97675 0.91256 0.03446 0.0
C2926 C 0.97787 0.9082 0.05251 0.0
C2927 C 0.9945 0.9095 0.06257 0.0
H2928 H 0.96385 0.91132 0.02661 0.0
H2929 H 0.12429 0.91694 0.12202 0.0
H2930 H 0.94741 0.28338 0.92488 0.0
H2931 H 0.92069 0.28552 0.90542 0.0
H2932 H 0.92982 0.24625 0.86376 0.0
H2933 H 0.95724 0.24495 0.88283 0.0
H2934 H 0.91813 0.26675 0.84571 0.0
H2935 H 0.89413 0.24065 0.89655 0.0
H2936 H 0.88902 0.23695 0.92877 0.0
H2937 H 0.8728 0.28639 0.93457 0.0
H2938 H 0.87807 0.29053 0.90248 0.0
H2939 H 0.82933 0.25385 0.79581 0.0
H2940 H 0.85587 0.24986 0.81491 0.0
H2941 H 0.85723 0.298 0.8505 0.0
H2942 H 0.83115 0.30224 0.83111 0.0
H2943 H 0.86246 0.2714 0.87125 0.0
H2944 H 0.88685 0.29617 0.81908 0.0
H2945 H 0.89014 0.29734 0.78605 0.0
H2946 H 0.90373 0.24655 0.78237 0.0
H2947 H 0.90023 0.24494 0.81532 0.0
C2948 C 0.94376 0.27511 0.91159 0.0
C2949 C 0.95474 0.26393 0.90564 0.0
C2950 C 0.92817 0.27621 0.9004 0.0
C2951 C 0.92248 0.26577 0.88294 0.0
C2952 C 0.93349 0.25456 0.87701 0.0
C2953 C 0.94932 0.25375 0.88805 0.0
C2954 C 0.90563 0.26697 0.87068 0.0
C2955 C 0.90594 0.26742 0.85145 0.0
C2956 C 0.88937 0.26819 0.87765 0.0
C2957 C 0.88671 0.26599 0.89715 0.0
C2958 C 0.88967 0.25083 0.90475 0.0
C2959 C 0.8867 0.24864 0.92299 0.0
C2960 C 0.88064 0.26145 0.93373 0.0
C2961 C 0.87754 0.27649 0.92626 0.0
C2962 C 0.88052 0.27877 0.90805 0.0
C2963 C 0.83533 0.26362 0.80769 0.0
C2964 C 0.82769 0.27814 0.81212 0.0
C2965 C 0.85059 0.26134 0.81867 0.0
C2966 C 0.85881 0.27355 0.83446 0.0
C2967 C 0.85124 0.28816 0.83869 0.0
C2968 C 0.83611 0.29052 0.82762 0.0
C2969 C 0.87516 0.27123 0.84654 0.0
C2970 C 0.8747 0.2706 0.86567 0.0
C2971 C 0.89113 0.26946 0.83945 0.0
C2972 C 0.89307 0.27035 0.81961 0.0
C2973 C 0.89036 0.28517 0.81118 0.0
C2974 C 0.89229 0.28592 0.79248 0.0
C2975 C 0.89708 0.272 0.7821 0.0
C2976 C 0.89997 0.2573 0.79041 0.0
C2977 C 0.89802 0.25646 0.8091 0.0
H2978 H 0.8986 0.27263 0.76763 0.0
H2979 H 0.87829 0.2597 0.94782 0.0
H2980 H 0.58049 0.23549 0.60775 0.0
H2981 H 0.57866 0.20367 0.60019 0.0
H2982 H 0.52488 0.19627 0.5738 0.0
H2983 H 0.52654 0.22816 0.58234 0.0
H2984 H 0.52532 0.16917 0.5914 0.0
H2985 H 0.56578 0.19519 0.54986 0.0
H2986 H 0.59273 0.21594 0.5433 0.0
H2987 H 0.62534 0.19245 0.57957 0.0
H2988 H 0.59856 0.1717 0.58648 0.0
H2989 H 0.51522 0.08082 0.54758 0.0
H2990 H 0.51814 0.11255 0.55575 0.0
H2991 H 0.57331 0.11877 0.57697 0.0
H2992 H 0.57055 0.0868 0.5679 0.0
H2993 H 0.57278 0.14657 0.56333 0.0
H2994 H 0.53461 0.12043 0.60495 0.0
H2995 H 0.50883 0.10032 0.61458 0.0
H2996 H 0.47321 0.124 0.58226 0.0
H2997 H 0.49877 0.14415 0.57228 0.0
C2998 C 0.56847 0.22724 0.59974 0.0
C2999 C 0.554 0.23484 0.59487 0.0
C3000 C 0.56735 0.20879 0.59543 0.0
C3001 C 0.55176 0.19702 0.5858 0.0
C3002 C 0.53724 0.20466 0.581 0.0
C3003 C 0.53828 0.22312 0.5856 0.0
C3004 C 0.5505 0.17694 0.58115 0.0
C3005 C 0.53562 0.16434 0.58497 0.0
C3006 C 0.5641 0.17 0.57347 0.0
C3007 C 0.58019 0.18197 0.56873 0.0
C3008 C 0.57871 0.19446 0.55641 0.0
C3009 C 0.59395 0.20623 0.55266 0.0
C3010 C 0.61074 0.20553 0.56103 0.0
C3011 C 0.61233 0.19298 0.57309 0.0
C3012 C 0.59714 0.18119 0.57691 0.0
C3013 C 0.52806 0.08882 0.554 0.0
C3014 C 0.54263 0.08081 0.55694 0.0
C3015 C 0.52969 0.10724 0.55895 0.0
C3016 C 0.54585 0.11865 0.56765 0.0
C3017 C 0.56054 0.11071 0.57043 0.0
C3018 C 0.55898 0.09221 0.56516 0.0
C3019 C 0.54742 0.13868 0.57327 0.0
C3020 C 0.5624 0.15131 0.5697 0.0
C3021 C 0.53405 0.14561 0.58154 0.0
C3022 C 0.51863 0.13368 0.58771 0.0
C3023 C 0.52128 0.12129 0.59982 0.0
C3024 C 0.5067 0.10989 0.60535 0.0
C3025 C 0.48939 0.11084 0.59898 0.0
C3026 C 0.48663 0.12327 0.58716 0.0
C3027 C 0.50116 0.1347 0.58158 0.0
H3028 H 0.47812 0.10198 0.60324 0.0
H3029 H 0.62251 0.21469 0.55815 0.0
H3030 H 0.56692 0.76819 0.43519 0.0
H3031 H 0.59297 0.76922 0.41897 0.0
H3032 H 0.56039 0.76605 0.36685 0.0
H3033 H 0.53409 0.76509 0.38309 0.0
H3034 H 0.58334 0.74387 0.36445 0.0
H3035 H 0.58873 0.80551 0.38757 0.0
H3036 H 0.59132 0.83167 0.41072 0.0
H3037 H 0.63791 0.82084 0.43971 0.0
H3038 H 0.63546 0.79448 0.41688 0.0
H3039 H 0.65552 0.77171 0.31064 0.0
H3040 H 0.6284 0.7647 0.32574 0.0
H3041 H 0.66061 0.77466 0.37905 0.0
H3042 H 0.68751 0.78203 0.36397 0.0
H3043 H 0.63739 0.79288 0.38076 0.0
H3044 H 0.63321 0.73205 0.35965 0.0
H3045 H 0.63111 0.70452 0.33867 0.0
H3046 H 0.58353 0.71187 0.30828 0.0
H3047 H 0.58547 0.73957 0.32892 0.0
C3048 C 0.56517 0.76764 0.42026 0.0
C3049 C 0.54821 0.7665 0.41053 0.0
C3050 C 0.58022 0.76837 0.41097 0.0
C3051 C 0.57885 0.7679 0.39161 0.0
C3052 C 0.56191 0.76648 0.38178 0.0
C3053 C 0.54683 0.76595 0.39111 0.0
C3054 C 0.59503 0.76864 0.38172 0.0
C3055 C 0.59507 0.75475 0.36779 0.0
C3056 C 0.61071 0.78241 0.38652 0.0
C3057 C 0.61177 0.79788 0.40063 0.0
C3058 C 0.59939 0.80856 0.39902 0.0
C3059 C 0.60087 0.82347 0.41205 0.0
C3060 C 0.61473 0.82788 0.42671 0.0
C3061 C 0.62715 0.81739 0.42838 0.0
C3062 C 0.62572 0.80247 0.4154 0.0
C3063 C 0.65678 0.7718 0.32552 0.0
C3064 C 0.67369 0.77725 0.3361 0.0
C3065 C 0.64123 0.76782 0.33421 0.0
C3066 C 0.64223 0.76917 0.35369 0.0
C3067 C 0.65926 0.7736 0.36408 0.0
C3068 C 0.67471 0.77766 0.35543 0.0
C3069 C 0.62585 0.76805 0.3634 0.0
C3070 C 0.62572 0.78194 0.37732 0.0
C3071 C 0.61025 0.7541 0.3588 0.0
C3072 C 0.60965 0.73805 0.34567 0.0
C3073 C 0.62247 0.72797 0.3483 0.0
C3074 C 0.62126 0.71228 0.33652 0.0
C3075 C 0.60724 0.70649 0.3221 0.0
C3076 C 0.59442 0.7164 0.31941 0.0
C3077 C 0.59558 0.73209 0.33114 0.0
H3078 H 0.60627 0.69429 0.31306 0.0
H3079 H 0.61589 0.83946 0.43674 0.0
H3080 H 0.0118 0.24761 0.40119 0.0
H3081 H 0.01114 0.2209 0.41647 0.0
H3082 H 0.06799 0.23748 0.43201 0.0
H3083 H 0.06862 0.26402 0.4161 0.0
H3084 H 0.05973 0.20312 0.42137 0.0
H3085 H 0.0361 0.2404 0.46371 0.0
H3086 H 0.01606 0.25936 0.47304 0.0
H3087 H 0.97082 0.21556 0.45605 0.0
H3088 H 0.99058 0.1964 0.44637 0.0
H3089 H 0.05243 0.14516 0.49777 0.0
H3090 H 0.05914 0.17037 0.47966 0.0
H3091 H 0.01076 0.14802 0.44267 0.0
H3092 H 1.00438 0.12271 0.46025 0.0
H3093 H 0.0165 0.18569 0.46534 0.0
H3094 H 0.03982 0.14883 0.42224 0.0
H3095 H 0.0595 0.12999 0.41173 0.0
H3096 H 0.10517 0.17306 0.42987 0.0
H3097 H 0.08575 0.19207 0.44087 0.0
C3098 C 0.02412 0.24563 0.40804 0.0
C3099 C 0.04021 0.25805 0.4077 0.0
C3100 C 0.02376 0.23033 0.41686 0.0
C3101 C 0.03947 0.2271 0.42584 0.0
C3102 C 0.05562 0.23953 0.42535 0.0
C3103 C 0.05599 0.25481 0.41637 0.0
C3104 C 0.03899 0.21072 0.43545 0.0
C3105 C 0.05047 0.19954 0.43123 0.0
C3106 C 0.0267 0.20558 0.44812 0.0
C3107 C 0.01482 0.21701 0.45418 0.0
C3108 C 0.02187 0.23484 0.46187 0.0
C3109 C 0.01056 0.24562 0.46723 0.0
C3110 C 0.99218 0.23868 0.4651 0.0
C3111 C 0.98507 0.22092 0.45767 0.0
C3112 C 0.99631 0.21009 0.45227 0.0
C3113 C 0.04375 0.14514 0.4852 0.0
C3114 C 0.02802 0.13169 0.4803 0.0
C3115 C 0.04746 0.15971 0.47498 0.0
C3116 C 0.03539 0.16123 0.45981 0.0
C3117 C 0.02031 0.14722 0.45424 0.0
C3118 C 0.01678 0.13261 0.4642 0.0
C3119 C 0.03715 0.17817 0.45117 0.0
C3120 C 0.02589 0.18943 0.45563 0.0
C3121 C 0.04961 0.18333 0.43876 0.0
C3122 C 0.06135 0.17176 0.43274 0.0
C3123 C 0.05407 0.15419 0.42434 0.0
C3124 C 0.06518 0.1435 0.41819 0.0
C3125 C 0.08358 0.15029 0.42022 0.0
C3126 C 0.09091 0.16779 0.42839 0.0
C3127 C 0.07987 0.17852 0.43459 0.0
H3128 H 0.09215 0.14202 0.41539 0.0
H3129 H 0.98344 0.24705 0.46924 0.0
H3130 H 0.58219 0.27493 0.20282 0.0
H3131 H 0.6136 0.27643 0.21146 0.0
H3132 H 0.60003 0.23577 0.2468 0.0
H3133 H 0.56813 0.23455 0.2384 0.0
H3134 H 0.62864 0.25738 0.26331 0.0
H3135 H 0.61566 0.22979 0.20027 0.0
H3136 H 0.60553 0.22617 0.16674 0.0
H3137 H 0.64314 0.27442 0.16149 0.0
H3138 H 0.65334 0.27846 0.19502 0.0
H3139 H 0.71789 0.24476 0.27536 0.0
H3140 H 0.68589 0.241 0.26717 0.0
H3141 H 0.69591 0.28183 0.23141 0.0
H3142 H 0.72799 0.28495 0.23892 0.0
H3143 H 0.6688 0.25843 0.21483 0.0
H3144 H 0.68093 0.28676 0.27762 0.0
H3145 H 0.6914 0.29063 0.31109 0.0
H3146 H 0.65559 0.24128 0.31655 0.0
H3147 H 0.64509 0.237 0.28306 0.0
C3148 C 0.58572 0.26633 0.21261 0.0
C3149 C 0.57217 0.25463 0.21986 0.0
C3150 C 0.60397 0.26705 0.2174 0.0
C3151 C 0.60978 0.25586 0.22947 0.0
C3152 C 0.59632 0.24456 0.23733 0.0
C3153 C 0.57789 0.24392 0.2326 0.0
C3154 C 0.62969 0.25631 0.23399 0.0
C3155 C 0.63725 0.25728 0.25256 0.0
C3156 C 0.6416 0.25669 0.22032 0.0
C3157 C 0.63513 0.25452 0.20022 0.0
C3158 C 0.62164 0.23973 0.19201 0.0
C3159 C 0.61591 0.23758 0.17299 0.0
C3160 C 0.62365 0.25008 0.16201 0.0
C3161 C 0.63713 0.26476 0.17002 0.0
C3162 C 0.64289 0.26698 0.18903 0.0
C3163 C 0.71345 0.25272 0.26545 0.0
C3164 C 0.72605 0.265 0.25773 0.0
C3165 C 0.69485 0.25079 0.26096 0.0
C3166 C 0.68788 0.26129 0.24876 0.0
C3167 C 0.70046 0.27344 0.24086 0.0
C3168 C 0.71905 0.27529 0.24528 0.0
C3169 C 0.66774 0.25966 0.24415 0.0
C3170 C 0.66016 0.25846 0.22556 0.0
C3171 C 0.65582 0.2591 0.25778 0.0
C3172 C 0.66239 0.26146 0.27781 0.0
C3173 C 0.67543 0.27665 0.28593 0.0
C3174 C 0.68134 0.27893 0.30491 0.0
C3175 C 0.6742 0.26618 0.31593 0.0
C3176 C 0.66114 0.25112 0.30799 0.0
C3177 C 0.6552 0.24876 0.28902 0.0
H3178 H 0.67876 0.268 0.33063 0.0
H3179 H 0.61923 0.24837 0.14728 0.0
H3180 H 0.53722 0.86558 0.88853 0.0
H3181 H 0.53613 0.89294 0.90779 0.0
H3182 H 0.54689 0.86897 0.95694 0.0
H3183 H 0.54802 0.84155 0.93773 0.0
H3184 H 0.52086 0.88591 0.96109 0.0
H3185 H 0.57864 0.90228 0.94022 0.0
H3186 H 0.60022 0.90792 0.9178 0.0
H3187 H 0.57332 0.94539 0.8956 0.0
H3188 H 0.5514 0.93974 0.91765 0.0
H3189 H 0.53231 0.96273 0.02656 0.0
H3190 H 0.53535 0.93647 0.00746 0.0
H3191 H 0.53772 0.96532 0.96014 0.0
H3192 H 0.53665 0.99224 0.97987 0.0
H3193 H 0.55677 0.94554 0.9544 0.0
H3194 H 0.49814 0.92921 0.97199 0.0
H3195 H 0.47503 0.92418 0.99289 0.0
H3196 H 0.50035 0.88727 0.0185 0.0
H3197 H 0.5237 0.89222 0.99789 0.0
C3198 C 0.53944 0.86607 0.90344 0.0
C3199 C 0.54275 0.85109 0.9114 0.0
C3200 C 0.53891 0.88191 0.91453 0.0
C3201 C 0.54161 0.88341 0.93404 0.0
C3202 C 0.5448 0.86843 0.94201 0.0
C3203 C 0.54549 0.85264 0.93093 0.0
C3204 C 0.54055 0.90022 0.94613 0.0
C3205 C 0.5289 0.89892 0.95972 0.0
C3206 C 0.55041 0.91751 0.94413 0.0
C3207 C 0.56324 0.9204 0.93045 0.0
C3208 C 0.57718 0.91153 0.9304 0.0
C3209 C 0.58951 0.91478 0.91778 0.0
C3210 C 0.58811 0.92696 0.90524 0.0
C3211 C 0.57436 0.93592 0.90527 0.0
C3212 C 0.56198 0.93269 0.91782 0.0
C3213 C 0.53356 0.96368 0.01218 0.0
C3214 C 0.53386 0.97992 0.00505 0.0
C3215 C 0.53501 0.94831 1.00097 0.0
C3216 C 0.53606 0.94819 0.98182 0.0
C3217 C 0.53676 0.96454 0.9747 0.0
C3218 C 0.53597 0.98011 0.98611 0.0
C3219 C 0.53692 0.93138 0.96941 0.0
C3220 C 0.54857 0.93262 0.95576 0.0
C3221 C 0.52668 0.91406 0.97099 0.0
C3222 C 0.51276 0.91123 0.98352 0.0
C3223 C 0.49884 0.92012 0.98217 0.0
C3224 C 0.48569 0.91726 0.99395 0.0
C3225 C 0.48625 0.90545 0.00704 0.0
C3226 C 0.49995 0.89644 0.00837 0.0
C3227 C 0.51313 0.89925 0.99664 0.0
H3228 H 0.47605 0.90324 0.01613 0.0
H3229 H 0.5977 0.9295 0.89554 0.0
H3230 H 0.96653 0.78253 0.72332 0.0
H3231 H 0.9372 0.78578 0.73121 0.0
H3232 H 0.92222 0.72983 0.73559 0.0
H3233 H 0.95185 0.72671 0.72865 0.0
H3234 H 0.8937 0.74528 0.71435 0.0
H3235 H 0.92923 0.75209 0.77318 0.0
H3236 H 0.95582 0.76465 0.79599 0.0
H3237 H 0.94664 0.81701 0.7942 0.0
H3238 H 0.9201 0.80475 0.77113 0.0
H3239 H 0.81267 0.74373 0.75376 0.0
H3240 H 0.84127 0.73998 0.74547 0.0
H3241 H 0.86503 0.79478 0.76687 0.0
H3242 H 0.83636 0.7982 0.77634 0.0
H3243 H 0.88941 0.77973 0.7739 0.0
H3244 H 0.853 0.77263 0.71495 0.0
H3245 H 0.82672 0.7597 0.69177 0.0
H3246 H 0.83739 0.70787 0.69288 0.0
H3247 H 0.86364 0.72046 0.71619 0.0
C3248 C 0.95709 0.77087 0.72603 0.0
C3249 C 0.96203 0.75435 0.72544 0.0
C3250 C 0.94011 0.77275 0.73055 0.0
C3251 C 0.92697 0.75809 0.73405 0.0
C3252 C 0.93174 0.74149 0.733 0.0
C3253 C 0.94892 0.73973 0.7291 0.0
C3254 C 0.90876 0.76024 0.73944 0.0
C3255 C 0.89283 0.7527 0.72746 0.0
C3256 C 0.90705 0.77012 0.75636 0.0
C3257 C 0.92283 0.77755 0.77029 0.0
C3258 C 0.93298 0.7663 0.77753 0.0
C3259 C 0.94801 0.77336 0.79052 0.0
C3260 C 0.95295 0.79163 0.7965 0.0
C3261 C 0.94281 0.80287 0.78953 0.0
C3262 C 0.92777 0.79587 0.7765 0.0
C3263 C 0.82389 0.75513 0.75675 0.0
C3264 C 0.82168 0.77139 0.76577 0.0
C3265 C 0.84053 0.753 0.75168 0.0
C3266 C 0.85592 0.76716 0.75472 0.0
C3267 C 0.85379 0.78341 0.76399 0.0
C3268 C 0.83714 0.78545 0.76947 0.0
C3269 C 0.87404 0.76492 0.74875 0.0
C3270 C 0.8901 0.77243 0.76066 0.0
C3271 C 0.8758 0.75502 0.73168 0.0
C3272 C 0.86021 0.74748 0.71742 0.0
C3273 C 0.84971 0.75847 0.71029 0.0
C3274 C 0.83482 0.7512 0.69713 0.0
C3275 C 0.83037 0.73297 0.69089 0.0
C3276 C 0.84085 0.72198 0.69773 0.0
C3277 C 0.85575 0.72918 0.71089 0.0
H3278 H 0.81882 0.72736 0.68073 0.0
H3279 H 0.9646 0.79708 0.80657 0.0
H3280 H 0.11376 0.06332 0.85914 0.0
H3281 H 0.1048 0.06102 0.89021 0.0
H3282 H 0.08416 1.00456 0.87538 0.0
H3283 H 0.09395 0.0067 0.84452 0.0
H3284 H 0.05933 0.02468 0.88996 0.0
H3285 H 0.11718 0.01463 0.90576 0.0
H3286 H 0.14984 0.01926 0.91056 0.0
H3287 H 0.15421 0.06839 0.94536 0.0
H3288 H 0.12159 0.06419 0.94058 0.0
H3289 H 0.04475 1.00292 0.98375 0.0
H3290 H 0.0564 1.0033 0.95366 0.0
H3291 H 0.06718 0.06056 0.96075 0.0
H3292 H 0.05411 0.06009 0.98995 0.0
H3293 H 0.0975 0.03909 0.95066 0.0
H3294 H 0.03995 0.05034 0.93295 0.0
H3295 H 0.00727 0.04448 0.93072 0.0
H3296 H 1.00273 0.99308 0.90023 0.0
H3297 H 0.03547 0.99847 0.90273 0.0
C3298 C 0.10746 0.05038 0.86256 0.0
C3299 C 0.10442 0.03521 0.84928 0.0
C3300 C 0.10244 0.04906 0.8804 0.0
C3301 C 0.09378 0.03261 0.88528 0.0
C3302 C 0.09088 0.0174 0.87207 0.0
C3303 C 0.09645 0.01863 0.8544 0.0
C3304 C 0.08635 0.03167 0.90343 0.0
C3305 C 0.06775 0.02761 0.90319 0.0
C3306 C 0.09722 0.03593 0.92087 0.0
C3307 C 0.11691 0.03924 0.92251 0.0
C3308 C 0.12511 0.02661 0.9141 0.0
C3309 C 0.14362 0.0291 0.91693 0.0
C3310 C 0.1541 0.04414 0.92818 0.0
C3311 C 0.14609 0.05677 0.93658 0.0
C3312 C 0.12759 0.05435 0.93381 0.0
C3313 C 0.04949 0.01556 0.97878 0.0
C3314 C 0.04883 0.0315 0.98936 0.0
C3315 C 0.05618 0.01577 0.96162 0.0
C3316 C 0.06287 0.03197 0.95497 0.0
C3317 C 0.06219 0.0479 0.96557 0.0
C3318 C 0.0548 0.04763 0.9823 0.0
C3319 C 0.07062 0.03225 0.93704 0.0
C3320 C 0.08919 0.03619 0.93736 0.0
C3321 C 0.0598 0.02805 0.91968 0.0
C3322 C 0.04016 0.02466 0.91836 0.0
C3323 C 0.03201 0.03766 0.92607 0.0
C3324 C 0.01347 0.03446 0.92469 0.0
C3325 C 1.00293 0.01838 0.91542 0.0
C3326 C 0.01092 0.00549 0.90749 0.0
C3327 C 0.02946 0.0086 0.90891 0.0
H3328 H 0.98857 0.01595 0.9143 0.0
H3329 H 0.16841 0.04598 0.93045 0.0
H3330 H 0.76483 0.41304 0.5718 0.0
H3331 H 0.76807 0.39844 0.59992 0.0
H3332 H 0.80491 0.37139 0.57575 0.0
H3333 H 0.8013 0.38548 0.54776 0.0
H3334 H 0.77747 0.3487 0.58667 0.0
H3335 H 0.82078 0.40287 0.6119 0.0
H3336 H 0.83059 0.43552 0.61927 0.0
H3337 H 0.78885 0.43564 0.65345 0.0
H3338 H 0.77877 0.40296 0.6462 0.0
H3339 H 0.8218 0.31346 0.65651 0.0
H3340 H 0.81004 0.32731 0.63131 0.0
H3341 H 0.78003 0.35214 0.66816 0.0
H3342 H 0.79291 0.33948 0.69387 0.0
H3343 H 0.79849 0.37603 0.65162 0.0
H3344 H 0.75822 0.31879 0.62741 0.0
H3345 H 0.74951 0.28647 0.61696 0.0
H3346 H 0.78812 0.29229 0.57867 0.0
H3347 H 0.79699 0.3246 0.58883 0.0
C3348 C 0.77371 0.40411 0.57277 0.0
C3349 C 0.78257 0.39994 0.55782 0.0
C3350 C 0.77562 0.39589 0.58871 0.0
C3351 C 0.78658 0.38375 0.58969 0.0
C3352 C 0.79622 0.38054 0.57507 0.0
C3353 C 0.79415 0.38852 0.55918 0.0
C3354 C 0.78703 0.37315 0.60514 0.0
C3355 C 0.7821 0.35461 0.60091 0.0
C3356 C 0.79265 0.38099 0.62361 0.0
C3357 C 0.79897 0.40053 0.62845 0.0
C3358 C 0.81368 0.40988 0.62096 0.0
C3359 C 0.8193 0.42837 0.62512 0.0
C3360 C 0.81033 0.43765 0.6368 0.0
C3361 C 0.79579 0.42843 0.64442 0.0
C3362 C 0.79015 0.40992 0.64034 0.0
C3363 C 0.81266 0.32182 0.65929 0.0
C3364 C 0.80867 0.32565 0.67733 0.0
C3365 C 0.80561 0.32945 0.64473 0.0
C3366 C 0.79401 0.34067 0.64777 0.0
C3367 C 0.78897 0.34352 0.66549 0.0
C3368 C 0.79627 0.33614 0.68017 0.0
C3369 C 0.78931 0.35131 0.63319 0.0
C3370 C 0.79342 0.36997 0.63752 0.0
C3371 C 0.78328 0.34356 0.61464 0.0
C3372 C 0.77832 0.32406 0.60898 0.0
C3373 C 0.76493 0.31313 0.61688 0.0
C3374 C 0.75992 0.29483 0.61094 0.0
C3375 C 0.76828 0.28733 0.59719 0.0
C3376 C 0.78164 0.29811 0.5893 0.0
C3377 C 0.78661 0.31641 0.59509 0.0
H3378 H 0.76438 0.27316 0.59262 0.0
H3379 H 0.81466 0.45197 0.63996 0.0
H3380 H 0.40434 0.03379 0.3753 0.0
H3381 H 0.41631 0.03126 0.40699 0.0
H3382 H 0.46075 0.01416 0.38636 0.0
H3383 H 0.44909 0.01664 0.35497 0.0
H3384 H 0.44618 0.99395 0.41241 0.0
H3385 H 0.46474 0.05569 0.40101 0.0
H3386 H 0.45913 0.08435 0.39351 0.0
H3387 H 0.43143 0.08828 0.44107 0.0
H3388 H 0.43655 0.05941 0.44859 0.0
H3389 H 0.52103 0.01107 0.47843 0.0
H3390 H 0.49988 0.01009 0.45122 0.0
H3391 H 0.46935 0.03814 0.48456 0.0
H3392 H 0.49189 0.04171 0.51091 0.0
H3393 H 0.47003 0.05001 0.45501 0.0
H3394 H 0.45898 0.98885 0.46929 0.0
H3395 H 0.46858 0.96134 0.47518 0.0
H3396 H 0.48572 0.9571 0.42144 0.0
H3397 H 0.47639 0.98447 0.41516 0.0
C3398 C 0.41676 0.0297 0.37761 0.0
C3399 C 0.42592 0.02558 0.36279 0.0
C3400 C 0.42338 0.02802 0.39558 0.0
C3401 C 0.43918 0.0223 0.39873 0.0
C3402 C 0.44834 0.0183 0.38399 0.0
C3403 C 0.44181 0.02 0.36615 0.0
C3404 C 0.44742 0.02203 0.41744 0.0
C3405 C 0.45123 0.00607 0.42199 0.0
C3406 C 0.45376 0.03791 0.42969 0.0
C3407 C 0.45073 0.05526 0.42516 0.0
C3408 C 0.45727 0.06257 0.40973 0.0
C3409 C 0.4542 0.07886 0.4055 0.0
C3410 C 0.44485 0.08809 0.41675 0.0
C3411 C 0.4386 0.08107 0.43231 0.0
C3412 C 0.44154 0.06474 0.43654 0.0
C3413 C 0.51005 0.0174 0.47979 0.0
C3414 C 0.508 0.02635 0.49674 0.0
C3415 C 0.49772 0.01642 0.46439 0.0
C3416 C 0.48263 0.02332 0.46612 0.0
C3417 C 0.48078 0.03251 0.483 0.0
C3418 C 0.49365 0.03448 0.49806 0.0
C3419 C 0.46921 0.0219 0.45012 0.0
C3420 C 0.46441 0.03759 0.44604 0.0
C3421 C 0.46221 0.00576 0.43823 0.0
C3422 C 0.46694 0.98874 0.44175 0.0
C3423 C 0.46474 0.98202 0.45871 0.0
C3424 C 0.47019 0.9665 0.46215 0.0
C3425 C 0.47777 0.95757 0.44875 0.0
C3426 C 0.47982 0.96402 0.4318 0.0
C3427 C 0.47439 0.97949 0.42827 0.0
H3428 H 0.48205 0.94563 0.4515 0.0
H3429 H 0.44251 0.10072 0.41347 0.0
H3430 H 0.7956 0.72487 0.07726 0.0
H3431 H 0.79581 0.73555 0.11031 0.0
H3432 H 0.75789 0.68732 0.11584 0.0
H3433 H 0.75814 0.67645 0.08333 0.0
H3434 H 0.74886 0.71898 0.13072 0.0
H3435 H 0.79605 0.68955 0.13442 0.0
H3436 H 0.82402 0.68206 0.12715 0.0
H3437 H 0.8528 0.73557 0.14739 0.0
H3438 H 0.82492 0.74347 0.15452 0.0
H3439 H 0.74923 0.73383 0.22878 0.0
H3440 H 0.74971 0.72107 0.19696 0.0
H3441 H 0.79878 0.75932 0.19472 0.0
H3442 H 0.79868 0.77151 0.22681 0.0
H3443 H 0.80203 0.73082 0.17788 0.0
H3444 H 0.7521 0.76029 0.169 0.0
H3445 H 0.72269 0.7664 0.17246 0.0
H3446 H 0.69849 0.71042 0.16193 0.0
H3447 H 0.72772 0.70408 0.15774 0.0
C3448 C 0.78728 0.71665 0.08555 0.0
C3449 C 0.77681 0.69986 0.07768 0.0
C3450 C 0.7875 0.72267 0.10446 0.0
C3451 C 0.77692 0.7122 0.11566 0.0
C3452 C 0.76621 0.69563 0.1076 0.0
C3453 C 0.76636 0.68945 0.08898 0.0
C3454 C 0.77649 0.71857 0.1356 0.0
C3455 C 0.76048 0.72146 0.14106 0.0
C3456 C 0.79156 0.72176 0.14918 0.0
C3457 C 0.80835 0.71718 0.14474 0.0
C3458 C 0.8083 0.6998 0.1371 0.0
C3459 C 0.82415 0.69545 0.13306 0.0
C3460 C 0.84017 0.70835 0.13674 0.0
C3461 C 0.84037 0.72561 0.1445 0.0
C3462 C 0.82455 0.73002 0.14855 0.0
C3463 C 0.76001 0.73966 0.22145 0.0
C3464 C 0.77376 0.75391 0.2304 0.0
C3465 C 0.76025 0.73239 0.20307 0.0
C3466 C 0.77407 0.7394 0.1929 0.0
C3467 C 0.78789 0.75355 0.20197 0.0
C3468 C 0.78779 0.76062 0.22042 0.0
C3469 C 0.77444 0.73195 0.17305 0.0
C3470 C 0.79043 0.72859 0.16759 0.0
C3471 C 0.75925 0.72808 0.15941 0.0
C3472 C 0.74204 0.73173 0.1633 0.0
C3473 C 0.74052 0.7493 0.16761 0.0
C3474 C 0.72387 0.7528 0.16955 0.0
C3475 C 0.70873 0.73879 0.16754 0.0
C3476 C 0.71021 0.72125 0.16352 0.0
C3477 C 0.72678 0.71771 0.16122 0.0
H3478 H 0.69584 0.74152 0.16902 0.0
H3479 H 0.85243 0.70496 0.13362 0.0
H3480 H 0.07923 0.01433 0.74182 0.0
H3481 H 0.06871 0.01369 0.70862 0.0
H3482 H 0.11934 0.04677 0.70156 0.0
H3483 H 0.12994 0.04695 0.7342 0.0
H3484 H 0.0898 0.05867 0.68621 0.0
H3485 H 0.11291 0.00706 0.68418 0.0
H3486 H 0.11692 0.97809 0.69241 0.0
H3487 H 0.06177 0.95451 0.67339 0.0
H3488 H 0.05737 0.98344 0.66526 0.0
H3489 H 0.07333 0.05642 0.58798 0.0
H3490 H 0.08644 0.05572 0.61966 0.0
H3491 H 0.04551 0.00911 0.62361 0.0
H3492 H 0.03333 0.00906 0.59151 0.0
H3493 H 0.07233 1.00398 0.64084 0.0
H3494 H 0.04915 0.05847 0.64943 0.0
H3495 H 0.04628 0.08858 0.64422 0.0
H3496 H 0.10322 0.10681 0.65068 0.0
H3497 H 0.10634 0.07692 0.6569 0.0
C3498 C 0.088 0.02154 0.73317 0.0
C3499 C 0.10537 0.0308 0.74069 0.0
C3500 C 0.08207 0.02106 0.71417 0.0
C3501 C 0.09326 0.03014 0.70247 0.0
C3502 C 0.11043 0.03963 0.71016 0.0
C3503 C 0.11646 0.03975 0.72888 0.0
C3504 C 0.08706 0.03038 0.68238 0.0
C3505 C 0.08607 0.0467 0.67628 0.0
C3506 C 0.08226 0.01485 0.66928 0.0
C3507 C 0.08475 0.99748 0.67435 0.0
C3508 C 0.10158 0.99576 0.68196 0.0
C3509 C 0.10394 0.97933 0.68655 0.0
C3510 C 0.08959 0.96449 0.6835 0.0
C3511 C 0.07286 0.96603 0.6758 0.0
C3512 C 0.07043 0.98244 0.67118 0.0
C3513 C 0.06707 0.0461 0.59566 0.0
C3514 C 0.05214 0.0329 0.58714 0.0
C3515 C 0.07449 0.04578 0.614 0.0
C3516 C 0.06682 0.03264 0.62468 0.0
C3517 C 0.05188 0.01946 0.61603 0.0
C3518 C 0.04479 0.01949 0.59757 0.0
C3519 C 0.07425 0.03231 0.64462 0.0
C3520 C 0.07578 0.01597 0.65073 0.0
C3521 C 0.07972 0.04786 0.6578 0.0
C3522 C 0.07794 0.0655 0.65331 0.0
C3523 C 0.06102 0.0689 0.64959 0.0
C3524 C 0.05937 0.08594 0.64656 0.0
C3525 C 0.07456 0.09957 0.64678 0.0
C3526 C 0.09146 0.09624 0.65038 0.0
C3527 C 0.09318 0.0793 0.65386 0.0
H3528 H 0.07323 0.11274 0.6443 0.0
H3529 H 0.09145 0.95177 0.68704 0.0
H3530 H 0.77425 0.40159 0.44359 0.0
H3531 H 0.77703 0.38969 0.41196 0.0
H3532 H 0.7893 0.3429 0.43206 0.0
H3533 H 0.78667 0.35457 0.46348 0.0
H3534 H 0.81186 0.35719 0.40715 0.0
H3535 H 0.748 0.34351 0.41537 0.0
H3536 H 0.72003 0.35223 0.4205 0.0
H3537 H 0.72305 0.3804 0.37299 0.0
H3538 H 0.75123 0.37211 0.3678 0.0
H3539 H 0.79498 0.28396 0.3394 0.0
H3540 H 0.79578 0.30474 0.3669 0.0
H3541 H 0.76831 0.33596 0.33386 0.0
H3542 H 0.7642 0.31342 0.30765 0.0
H3543 H 0.75675 0.33672 0.36253 0.0
H3544 H 0.81733 0.34567 0.34976 0.0
H3545 H 0.844 0.335 0.34311 0.0
H3546 H 0.84809 0.31696 0.39651 0.0
H3547 H 0.82131 0.32719 0.4034 0.0
C3548 C 0.77735 0.38868 0.44118 0.0
C3549 C 0.78011 0.37889 0.45589 0.0
C3550 C 0.77914 0.38206 0.42323 0.0
C3551 C 0.78357 0.3656 0.41993 0.0
C3552 C 0.78615 0.35578 0.43454 0.0
C3553 C 0.7844 0.36235 0.45239 0.0
C3554 C 0.78421 0.35758 0.40115 0.0
C3555 C 0.79996 0.35286 0.39714 0.0
C3556 C 0.76875 0.35249 0.38814 0.0
C3557 C 0.75186 0.35746 0.3914 0.0
C3558 C 0.7428 0.35173 0.40615 0.0
C3559 C 0.7269 0.35657 0.40905 0.0
C3560 C 0.71981 0.36694 0.39713 0.0
C3561 C 0.72859 0.37244 0.38226 0.0
C3562 C 0.74454 0.3677 0.37935 0.0
C3563 C 0.78881 0.29507 0.33816 0.0
C3564 C 0.78002 0.29739 0.32123 0.0
C3565 C 0.78965 0.30719 0.35376 0.0
C3566 C 0.7829 0.32242 0.35224 0.0
C3567 C 0.77389 0.3245 0.33536 0.0
C3568 C 0.77187 0.31174 0.32022 0.0
C3569 C 0.78439 0.33582 0.36838 0.0
C3570 C 0.76902 0.34158 0.37193 0.0
C3571 C 0.80035 0.34216 0.38071 0.0
C3572 C 0.81728 0.33725 0.37711 0.0
C3573 C 0.82397 0.33952 0.36013 0.0
C3574 C 0.83906 0.33348 0.35628 0.0
C3575 C 0.84772 0.32533 0.36937 0.0
C3576 C 0.84139 0.32332 0.3864 0.0
C3577 C 0.82628 0.32927 0.39031 0.0
H3578 H 0.85933 0.32057 0.36632 0.0
H3579 H 0.70749 0.37065 0.39938 0.0
H3580 H 0.4344 0.02256 0.27453 0.0
H3581 H 0.44745 0.01969 0.24595 0.0
H3582 H 0.39716 0.01898 0.21433 0.0
H3583 H 0.38363 0.02106 0.24317 0.0
H3584 H 0.41517 0.99469 0.19912 0.0
H3585 H 0.42826 0.05716 0.22327 0.0
H3586 H 0.43813 0.08073 0.24989 0.0
H3587 H 0.4895 0.06847 0.25636 0.0
H3588 H 0.47984 0.04462 0.22995 0.0
H3589 H 0.45777 1.00212 0.12032 0.0
H3590 H 0.44155 0.0136 0.1439 0.0
H3591 H 0.48564 0.01601 0.18584 0.0
H3592 H 0.50197 1.00469 0.16228 0.0
H3593 H 0.46796 0.04247 0.19362 0.0
H3594 H 0.45596 0.97946 0.17463 0.0
H3595 H 0.44705 0.95199 0.15251 0.0
H3596 H 0.39497 0.96157 0.14034 0.0
H3597 H 0.40378 0.98946 0.16199 0.0
C3598 C 0.42612 0.02192 0.26151 0.0
C3599 C 0.40816 0.02253 0.26094 0.0
C3600 C 0.43357 0.02019 0.24524 0.0
C3601 C 0.42334 0.01966 0.22821 0.0
C3602 C 0.40522 0.01961 0.22748 0.0
C3603 C 0.3976 0.02094 0.24384 0.0
C3604 C 0.43199 0.01994 0.21135 0.0
C3605 C 0.42638 0.00535 0.19756 0.0
C3606 C 0.44693 0.03367 0.20988 0.0
C3607 C 0.45335 0.04916 0.22454 0.0
C3608 C 0.44171 0.0596 0.23026 0.0
C3609 C 0.44724 0.07294 0.24538 0.0
C3610 C 0.46444 0.07612 0.25479 0.0
C3611 C 0.4762 0.06604 0.24901 0.0
C3612 C 0.47072 0.05263 0.23393 0.0
C3613 C 0.46418 0.0056 0.13449 0.0
C3614 C 0.48087 1.00214 0.1397 0.0
C3615 C 0.45494 0.01218 0.14788 0.0
C3616 C 0.46234 0.01528 0.16655 0.0
C3617 C 0.47974 0.01356 0.17147 0.0
C3618 C 0.48893 0.0069 0.15811 0.0
C3619 C 0.45106 0.01723 0.18119 0.0
C3620 C 0.45632 0.03215 0.19473 0.0
C3621 C 0.43597 1.00359 0.18263 0.0
C3622 C 0.43066 0.98678 0.16963 0.0
C3623 C 0.4427 0.97588 0.16703 0.0
C3624 C 0.43766 0.9602 0.1546 0.0
C3625 C 0.42048 0.95509 0.14494 0.0
C3626 C 0.40831 0.96561 0.14775 0.0
C3627 C 0.41334 0.98139 0.16005 0.0
H3628 H 0.41659 0.94292 0.13536 0.0
H3629 H 0.46866 0.08637 0.26657 0.0
H3630 H 0.75033 0.71784 0.97066 0.0
H3631 H 0.75161 0.72619 0.93945 0.0
H3632 H 0.79261 0.69769 0.9318 0.0
H3633 H 0.79147 0.68937 0.96319 0.0
H3634 H 0.80141 0.72826 0.91884 0.0
H3635 H 0.74869 0.6816 0.90875 0.0
H3636 H 0.71887 0.66431 0.91252 0.0
H3637 H 0.69675 0.70904 0.90272 0.0
H3638 H 0.72647 0.72665 0.89903 0.0
H3639 H 0.79322 0.73575 0.81985 0.0
H3640 H 0.79314 0.72327 0.84954 0.0
H3641 H 0.75903 0.75663 0.86784 0.0
H3642 H 0.75931 0.76923 0.83873 0.0
H3643 H 0.74726 0.72101 0.87383 0.0
H3644 H 0.80091 0.76804 0.88622 0.0
H3645 H 0.83058 0.7843 0.88063 0.0
H3646 H 0.85038 0.7372 0.88416 0.0
H3647 H 0.82085 0.72066 0.8899 0.0
C3648 C 0.75967 0.71334 0.9624 0.0
C3649 C 0.77087 0.70297 0.96963 0.0
C3650 C 0.76027 0.71801 0.94438 0.0
C3651 C 0.77205 0.71244 0.93295 0.0
C3652 C 0.78336 0.70219 0.94018 0.0
C3653 C 0.78271 0.69744 0.95822 0.0
C3654 C 0.77298 0.71788 0.91381 0.0
C3655 C 0.78955 0.72634 0.90893 0.0
C3656 C 0.75759 0.71574 0.90073 0.0
C3657 C 0.73986 0.70551 0.90385 0.0
C3658 C 0.73751 0.68783 0.90765 0.0
C3659 C 0.72061 0.67795 0.90969 0.0
C3660 C 0.70594 0.68559 0.90793 0.0
C3661 C 0.70814 0.70315 0.90413 0.0
C3662 C 0.725 0.71308 0.90204 0.0
C3663 C 0.78579 0.74044 0.83026 0.0
C3664 C 0.77643 0.75362 0.8269 0.0
C3665 C 0.78577 0.73334 0.84725 0.0
C3666 C 0.7761 0.73903 0.86104 0.0
C3667 C 0.7666 0.75199 0.85753 0.0
C3668 C 0.76687 0.75927 0.84082 0.0
C3669 C 0.77556 0.7315 0.8791 0.0
C3670 C 0.75908 0.72272 0.88375 0.0
C3671 C 0.79099 0.73324 0.89189 0.0
C3672 C 0.80866 0.74307 0.88828 0.0
C3673 C 0.81156 0.76111 0.88564 0.0
C3674 C 0.82834 0.77038 0.88248 0.0
C3675 C 0.8423 0.76175 0.88188 0.0
C3676 C 0.83954 0.74385 0.88457 0.0
C3677 C 0.82281 0.73454 0.88784 0.0
H3678 H 0.85528 0.76896 0.87942 0.0
H3679 H 0.69286 0.67789 0.90945 0.0
H3680 H 0.82193 0.12967 0.06836 0.0
H3681 H 0.85105 0.12217 0.07132 0.0
H3682 H 0.82969 0.07546 0.03118 0.0
H3683 H 0.80038 0.08238 0.02929 0.0
H3684 H 0.84608 0.06711 0.06032 0.0
H3685 H 0.85787 0.11483 0.02198 0.0
H3686 H 0.86049 0.14557 0.01487 0.0
H3687 H 0.89972 0.165 0.06251 0.0
H3688 H 0.8971 0.13437 0.07009 0.0
H3689 H 0.90844 0.04756 0.00546 0.0
H3690 H 0.88493 0.05537 0.02211 0.0
H3691 H 0.92446 0.08564 0.06634 0.0
H3692 H 0.94807 0.07748 0.04972 0.0
H3693 H 0.90292 0.10494 0.04813 0.0
H3694 H 0.89446 0.05247 0.07861 0.0
H3695 H 0.89021 0.02056 0.08186 0.0
H3696 H 0.84309 0.00842 0.04222 0.0
H3697 H 0.84714 0.04015 0.03856 0.0
C3698 C 0.8237 0.11796 0.06005 0.0
C3699 C 0.80931 0.10647 0.04863 0.0
C3700 C 0.84021 0.11372 0.06173 0.0
C3701 C 0.8424 0.09827 0.05151 0.0
C3702 C 0.8281 0.08732 0.03935 0.0
C3703 C 0.81151 0.09126 0.03815 0.0
C3704 C 0.85927 0.09279 0.05391 0.0
C3705 C 0.85855 0.07533 0.0576 0.0
C3706 C 0.87559 0.10393 0.05132 0.0
C3707 C 0.87708 0.12234 0.04677 0.0
C3708 C 0.86691 0.12567 0.03105 0.0
C3709 C 0.86842 0.14307 0.02692 0.0
C3710 C 0.8802 0.15724 0.03828 0.0
C3711 C 0.89055 0.15402 0.05377 0.0
C3712 C 0.88905 0.13665 0.058 0.0
C3713 C 0.91199 0.05571 0.01882 0.0
C3714 C 0.92983 0.06237 0.02624 0.0
C3715 C 0.89865 0.05988 0.02846 0.0
C3716 C 0.90307 0.07089 0.0455 0.0
C3717 C 0.92091 0.07695 0.0533 0.0
C3718 C 0.93428 0.07251 0.04377 0.0
C3719 C 0.88931 0.07873 0.05284 0.0
C3720 C 0.89062 0.09683 0.05138 0.0
C3721 C 0.87327 0.06794 0.0566 0.0
C3722 C 0.87115 0.04873 0.05831 0.0
C3723 C 0.88329 0.04297 0.07046 0.0
C3724 C 0.88088 0.02491 0.07241 0.0
C3725 C 0.86639 0.01247 0.06226 0.0
C3726 C 0.85429 0.01806 0.0501 0.0
C3727 C 0.85663 0.03609 0.04811 0.0
H3728 H 0.86452 0.99851 0.06383 0.0
H3729 H 0.88137 0.1707 0.03504 0.0
H3730 H 0.34058 0.44084 0.05866 0.0
H3731 H 0.37159 0.45742 0.06061 0.0
H3732 H 0.38571 0.41044 0.03604 0.0
H3733 H 0.35492 0.39375 0.03428 0.0
H3734 H 0.41089 0.42742 0.06386 0.0
H3735 H 0.3804 0.44378 0.01033 0.0
H3736 H 0.35606 0.45433 0.99409 0.0
H3737 H 0.37168 0.50401 0.02988 0.0
H3738 H 0.39599 0.49365 0.0465 0.0
H3739 H 0.49641 0.47098 0.04377 0.0
H3740 H 0.46636 0.45333 0.04327 0.0
H3741 H 0.44844 0.50121 0.05739 0.0
H3742 H 0.4781 0.51889 0.05583 0.0
H3743 H 0.42473 0.48272 0.03449 0.0
H3744 H 0.45605 0.46559 0.08835 0.0
H3745 H 0.47964 0.45376 0.10431 0.0
H3746 H 0.46229 0.40461 0.0678 0.0
H3747 H 0.43874 0.41622 0.05149 0.0
C3748 C 0.35025 0.43402 0.05362 0.0
C3749 C 0.34509 0.41594 0.04617 0.0
C3750 C 0.36803 0.44355 0.05474 0.0
C3751 C 0.38109 0.43528 0.04831 0.0
C3752 C 0.376 0.41718 0.04113 0.0
C3753 C 0.35827 0.40766 0.04003 0.0
C3754 C 0.3999 0.44556 0.04856 0.0
C3755 C 0.41395 0.43947 0.05736 0.0
C3756 C 0.40401 0.46134 0.0402 0.0
C3757 C 0.38993 0.46791 0.02972 0.0
C3758 C 0.37862 0.45695 0.01475 0.0
C3759 C 0.36482 0.46289 0.00549 0.0
C3760 C 0.36231 0.47982 0.01097 0.0
C3761 C 0.37365 0.4909 0.02565 0.0
C3762 C 0.38746 0.48501 0.03498 0.0
C3763 C 0.4861 0.47786 0.04666 0.0
C3764 C 0.48979 0.49661 0.04919 0.0
C3765 C 0.46878 0.46761 0.04667 0.0
C3766 C 0.45478 0.4757 0.05055 0.0
C3767 C 0.45871 0.49441 0.0541 0.0
C3768 C 0.47585 0.50465 0.05324 0.0
C3769 C 0.43601 0.46497 0.05033 0.0
C3770 C 0.42185 0.47084 0.04129 0.0
C3771 C 0.43184 0.44894 0.05848 0.0
C3772 C 0.44571 0.44183 0.06863 0.0
C3773 C 0.45729 0.45227 0.08372 0.0
C3774 C 0.47067 0.44561 0.09281 0.0
C3775 C 0.47249 0.42846 0.08705 0.0
C3776 C 0.46088 0.41789 0.07224 0.0
C3777 C 0.4475 0.4245 0.06309 0.0
H3778 H 0.48288 0.42334 0.09407 0.0
H3779 H 0.35158 0.48437 0.00383 0.0
H3780 H 0.35801 0.54416 0.76109 0.0
H3781 H 0.34622 0.57084 0.76132 0.0
H3782 H 0.3996 0.60368 0.77433 0.0
H3783 H 0.41121 0.57684 0.77564 0.0
H3784 H 0.38061 0.61978 0.79127 0.0
H3785 H 0.37287 0.5953 0.72775 0.0
H3786 H 0.36366 0.57171 0.70106 0.0
H3787 H 0.30921 0.56431 0.71127 0.0
H3788 H 0.31812 0.58779 0.73808 0.0
H3789 H 0.34564 0.69508 0.77934 0.0
H3790 H 0.36174 0.67233 0.77013 0.0
H3791 H 0.31317 0.63171 0.76596 0.0
H3792 H 0.29713 0.65446 0.77465 0.0
H3793 H 0.33343 0.62226 0.74118 0.0
H3794 H 0.34376 0.64608 0.80718 0.0
H3795 H 0.35436 0.67066 0.83276 0.0
H3796 H 0.40653 0.68067 0.81567 0.0
H3797 H 0.39615 0.6563 0.78981 0.0
C3798 C 0.36719 0.55709 0.76418 0.0
C3799 C 0.38552 0.5584 0.76837 0.0
C3800 C 0.36047 0.57241 0.76405 0.0
C3801 C 0.37198 0.58951 0.76718 0.0
C3802 C 0.39033 0.59079 0.77174 0.0
C3803 C 0.397 0.57542 0.77252 0.0
C3804 C 0.36479 0.6059 0.76593 0.0
C3805 C 0.37055 0.62036 0.78007 0.0
C3806 C 0.35165 0.60702 0.75137 0.0
C3807 C 0.34617 0.59324 0.73496 0.0
C3808 C 0.35894 0.58863 0.7243 0.0
C3809 C 0.35377 0.57527 0.70916 0.0
C3810 C 0.33586 0.5665 0.70449 0.0
C3811 C 0.32307 0.57113 0.71489 0.0
C3812 C 0.32816 0.58449 0.73003 0.0
C3813 C 0.3383 0.68138 0.77561 0.0
C3814 C 0.3201 0.67653 0.77751 0.0
C3815 C 0.34755 0.66833 0.77062 0.0
C3816 C 0.33882 0.65015 0.76784 0.0
C3817 C 0.3203 0.64555 0.76812 0.0
C3818 C 0.31107 0.65858 0.77298 0.0
C3819 C 0.34893 0.63577 0.76674 0.0
C3820 C 0.34372 0.62171 0.75216 0.0
C3821 C 0.36284 0.63519 0.78067 0.0
C3822 C 0.36915 0.64949 0.7965 0.0
C3823 C 0.35748 0.65356 0.80887 0.0
C3824 C 0.36344 0.66746 0.8234 0.0
C3825 C 0.3811 0.67724 0.82582 0.0
C3826 C 0.39285 0.6731 0.81376 0.0
C3827 C 0.38694 0.65925 0.79917 0.0
H3828 H 0.38568 0.68801 0.83707 0.0
H3829 H 0.3319 0.55613 0.6928 0.0
H3830 H 0.20692 0.63077 0.52584 0.0
H3831 H 0.17563 0.62061 0.53057 0.0
H3832 H 0.1892 0.57897 0.55998 0.0
H3833 H 0.22 0.5884 0.5544 0.0
H3834 H 0.16484 0.56672 0.53088 0.0
H3835 H 0.17594 0.61446 0.58221 0.0
H3836 H 0.18505 0.64564 0.59667 0.0
H3837 H 0.14535 0.65929 0.55919 0.0
H3838 H 0.13613 0.62817 0.54438 0.0
H3839 H 0.08378 0.52609 0.55489 0.0
H3840 H 0.11432 0.54212 0.55581 0.0
H3841 H 0.09665 0.58598 0.53433 0.0
H3842 H 0.06608 0.57133 0.53686 0.0
H3843 H 0.12282 0.59826 0.55847 0.0
H3844 H 0.11272 0.55243 0.50574 0.0
H3845 H 0.10298 0.52168 0.49005 0.0
H3846 H 0.14045 0.50532 0.52793 0.0
H3847 H 0.15038 0.53604 0.54385 0.0
C3848 C 0.20301 0.61938 0.53315 0.0
C3849 C 0.21536 0.60981 0.53913 0.0
C3850 C 0.18539 0.61387 0.53618 0.0
C3851 C 0.18038 0.59918 0.54568 0.0
C3852 C 0.193 0.59032 0.55256 0.0
C3853 C 0.21039 0.59546 0.54908 0.0
C3854 C 0.16169 0.59105 0.54577 0.0
C3855 C 0.15566 0.57354 0.53712 0.0
C3856 C 0.1498 0.60034 0.55318 0.0
C3857 C 0.15549 0.61904 0.56207 0.0
C3858 C 0.16928 0.62415 0.57694 0.0
C3859 C 0.17443 0.64183 0.58523 0.0
C3860 C 0.16582 0.65449 0.5788 0.0
C3861 C 0.15202 0.64948 0.56413 0.0
C3862 C 0.14682 0.63183 0.55581 0.0
C3863 C 0.08637 0.53911 0.55024 0.0
C3864 C 0.07253 0.54716 0.54481 0.0
C3865 C 0.10381 0.54816 0.55062 0.0
C3866 C 0.10762 0.56481 0.54429 0.0
C3867 C 0.09386 0.57292 0.53886 0.0
C3868 C 0.07639 0.56431 0.53966 0.0
C3869 C 0.12604 0.57385 0.54375 0.0
C3870 C 0.132 0.59151 0.55218 0.0
C3871 C 0.13792 0.56484 0.53583 0.0
C3872 C 0.13225 0.54648 0.52597 0.0
C3873 C 0.11887 0.54226 0.5107 0.0
C3874 C 0.11331 0.52482 0.50178 0.0
C3875 C 0.12109 0.51151 0.50801 0.0
C3876 C 0.13447 0.51564 0.52311 0.0
C3877 C 0.14011 0.53307 0.53203 0.0
H3878 H 0.1168 0.49799 0.50116 0.0
H3879 H 0.16974 0.66819 0.58514 0.0
H3880 H 0.68176 0.98893 0.77945 0.0
H3881 H 0.68579 0.95866 0.77841 0.0
H3882 H 0.73178 0.97295 0.74983 0.0
H3883 H 0.72773 1.0033 0.75051 0.0
H3884 H 0.71029 0.93938 0.73627 0.0
H3885 H 0.73834 0.97445 0.79346 0.0
H3886 H 0.7395 0.99491 0.82184 0.0
H3887 H 0.69987 0.95577 0.84135 0.0
H3888 H 0.69813 0.93521 0.81281 0.0
H3889 H 0.77124 0.89198 0.77273 0.0
H3890 H 0.7526 0.90987 0.7584 0.0
H3891 H 0.70868 0.88474 0.78551 0.0
H3892 H 0.7273 0.86668 0.79963 0.0
H3893 H 0.7237 0.92075 0.79798 0.0
H3894 H 0.69792 0.88502 0.73927 0.0
H3895 H 0.69734 0.86685 0.70944 0.0
H3896 H 0.73711 0.90845 0.69361 0.0
H3897 H 0.73746 0.92712 0.72311 0.0
C3898 C 0.69273 0.98564 0.77291 0.0
C3899 C 0.70466 0.99846 0.76534 0.0
C3900 C 0.69488 0.96836 0.77219 0.0
C3901 C 0.70908 0.9638 0.7641 0.0
C3902 C 0.7207 0.97638 0.75603 0.0
C3903 C 0.71854 0.99369 0.75669 0.0
C3904 C 0.71291 0.94644 0.76582 0.0
C3905 C 0.71324 0.93521 0.74971 0.0
C3906 C 0.71657 0.94121 0.78344 0.0
C3907 C 0.71792 0.95337 0.80086 0.0
C3908 C 0.72975 0.97025 0.80371 0.0
C3909 C 0.73051 0.98187 0.81983 0.0
C3910 C 0.71972 0.97667 0.83336 0.0
C3911 C 0.70818 0.9598 0.83082 0.0
C3912 C 0.70729 0.94816 0.81467 0.0
C3913 C 0.75743 0.88995 0.77505 0.0
C3914 C 0.75063 0.87843 0.78742 0.0
C3915 C 0.74674 0.89989 0.7667 0.0
C3916 C 0.72931 0.8985 0.77092 0.0
C3917 C 0.72205 0.88577 0.78198 0.0
C3918 C 0.73269 0.87567 0.79016 0.0
C3919 C 0.72104 0.91345 0.76837 0.0
C3920 C 0.72018 0.92454 0.78447 0.0
C3921 C 0.71743 0.91873 0.75079 0.0
C3922 C 0.71785 0.90734 0.73344 0.0
C3923 C 0.70666 0.89021 0.72948 0.0
C3924 C 0.7063 0.87986 0.7126 0.0
C3925 C 0.71736 0.88638 0.69973 0.0
C3926 C 0.72862 0.90337 0.70361 0.0
C3927 C 0.72879 0.9139 0.72035 0.0
H3928 H 0.71712 0.87829 0.6867 0.0
H3929 H 0.72032 0.98568 0.84583 0.0
H3930 H 0.73916 0.90432 0.52621 0.0
H3931 H 0.71206 0.91567 0.52397 0.0
H3932 H 0.72687 0.94224 0.5799 0.0
H3933 H 0.75398 0.93105 0.58222 0.0
H3934 H 0.69045 0.9261 0.57248 0.0
H3935 H 0.73487 0.96546 0.54634 0.0
H3936 H 0.75792 0.97357 0.52595 0.0
H3937 H 0.71912 0.95351 0.47806 0.0
H3938 H 0.69588 0.94492 0.49818 0.0
H3939 H 0.64131 0.99682 0.55613 0.0
H3940 H 0.6633 0.98 0.56605 0.0
H3941 H 0.64425 0.94143 0.5175 0.0
H3942 H 0.62223 0.95792 0.50779 0.0
H3943 H 0.68278 0.96414 0.52322 0.0
H3944 H 0.63825 0.92471 0.55034 0.0
H3945 H 0.61557 0.91787 0.57139 0.0
H3946 H 0.65503 0.93993 0.6183 0.0
H3947 H 0.67791 0.94724 0.59748 0.0
C3948 C 0.73662 0.91253 0.53804 0.0
C3949 C 0.74883 0.91695 0.55431 0.0
C3950 C 0.72112 0.91897 0.53677 0.0
C3951 C 0.71748 0.92987 0.55176 0.0
C3952 C 0.72938 0.93384 0.56819 0.0
C3953 C 0.74495 0.92755 0.56941 0.0
C3954 C 0.70189 0.93804 0.54984 0.0
C3955 C 0.68884 0.93455 0.56183 0.0
C3956 C 0.69977 0.94906 0.53594 0.0
C3957 C 0.71367 0.95434 0.52378 0.0
C3958 C 0.73128 0.96262 0.53146 0.0
C3959 C 0.74438 0.96732 0.51995 0.0
C3960 C 0.74 0.964 0.50072 0.0
C3961 C 0.7225 0.95603 0.49297 0.0
C3962 C 0.70936 0.95123 0.50442 0.0
C3963 C 0.64131 0.98431 0.5481 0.0
C3964 C 0.63012 0.97861 0.53122 0.0
C3965 C 0.65392 0.97479 0.55368 0.0
C3966 C 0.65543 0.95956 0.54241 0.0
C3967 C 0.64328 0.95314 0.52637 0.0
C3968 C 0.63066 0.96251 0.52089 0.0
C3969 C 0.67119 0.95191 0.54556 0.0
C3970 C 0.68437 0.95566 0.53386 0.0
C3971 C 0.67343 0.9413 0.55978 0.0
C3972 C 0.65974 0.93678 0.57233 0.0
C3973 C 0.64206 0.92832 0.56513 0.0
C3974 C 0.62917 0.92431 0.57702 0.0
C3975 C 0.63383 0.92854 0.59617 0.0
C3976 C 0.65142 0.93672 0.60346 0.0
C3977 C 0.66436 0.9408 0.59162 0.0
H3978 H 0.62383 0.92542 0.60535 0.0
H3979 H 0.75016 0.96766 0.49184 0.0
H3980 H 0.37151 0.46206 0.74742 0.0
H3981 H 0.3548 0.43118 0.7454 0.0
H3982 H 0.38784 0.42431 0.79397 0.0
H3983 H 0.40534 0.45483 0.79519 0.0
H3984 H 0.38153 0.39542 0.77236 0.0
H3985 H 0.34245 0.4317 0.79323 0.0
H3986 H 0.32626 0.45557 0.79119 0.0
H3987 H 0.29812 0.42937 0.73859 0.0
H3988 H 0.31429 0.40545 0.74025 0.0
H3989 H 0.31905 0.32408 0.80234 0.0
H3990 H 0.33782 0.35325 0.79939 0.0
H3991 H 0.31387 0.34891 0.7428 0.0
H3992 H 0.29591 0.31907 0.74541 0.0
H3993 H 0.31559 0.38232 0.76609 0.0
H3994 H 0.35277 0.34405 0.74766 0.0
H3995 H 0.36977 0.32087 0.74978 0.0
H3996 H 0.40191 0.35092 0.79881 0.0
H3997 H 0.38487 0.37413 0.79722 0.0
C3998 C 0.37516 0.45398 0.75772 0.0
C3999 C 0.38962 0.46101 0.77162 0.0
C4000 C 0.36552 0.43628 0.75661 0.0
C4001 C 0.36962 0.42532 0.76983 0.0
C4002 C 0.38424 0.43233 0.7836 0.0
C4003 C 0.3942 0.44988 0.78438 0.0
C4004 C 0.35858 0.40674 0.76954 0.0
C4005 C 0.36712 0.39266 0.77126 0.0
C4006 C 0.33969 0.40279 0.76758 0.0
C4007 C 0.32965 0.41689 0.7668 0.0
C4008 C 0.33283 0.43107 0.78122 0.0
C4009 C 0.32367 0.4446 0.78012 0.0
C4010 C 0.3112 0.44401 0.76475 0.0
C4011 C 0.30779 0.42983 0.75048 0.0
C4012 C 0.31692 0.41627 0.7515 0.0
C4013 C 0.31799 0.32924 0.7892 0.0
C4014 C 0.30627 0.31922 0.77402 0.0
C4015 C 0.32869 0.34593 0.78754 0.0
C4016 C 0.32749 0.3532 0.77078 0.0
C4017 C 0.31518 0.34351 0.7558 0.0
C4018 C 0.30483 0.32655 0.75733 0.0
C4019 C 0.33856 0.3712 0.76926 0.0
C4020 C 0.33 0.38513 0.7672 0.0
C4021 C 0.35741 0.37499 0.77113 0.0
C4022 C 0.36733 0.36074 0.77247 0.0
C4023 C 0.36326 0.3456 0.75908 0.0
C4024 C 0.37296 0.33247 0.76014 0.0
C4025 C 0.38686 0.33438 0.77446 0.0
C4026 C 0.39109 0.34942 0.78775 0.0
C4027 C 0.38141 0.36257 0.78678 0.0
H4028 H 0.3944 0.32424 0.77521 0.0
H4029 H 0.30415 0.45452 0.7639 0.0
H4030 H 0.2259 0.59575 0.29341 0.0
H4031 H 0.23461 0.62791 0.29241 0.0
H4032 H 0.18426 0.62584 0.26019 0.0
H4033 H 0.17535 0.5939 0.2613 0.0
H4034 H 0.21636 0.64487 0.24674 0.0
H4035 H 0.18611 0.64073 0.30062 0.0
H4036 H 0.1796 0.63036 0.33043 0.0
H4037 H 0.23307 0.65545 0.35481 0.0
H4038 H 0.2401 0.66547 0.32498 0.0
H4039 H 0.2317 0.73857 0.2549 0.0
H4040 H 0.21578 0.70797 0.25688 0.0
H4041 H 0.25953 0.70196 0.29528 0.0
H4042 H 0.27534 0.73254 0.2933 0.0
H4043 H 0.22687 0.68713 0.30465 0.0
H4044 H 0.25899 0.6861 0.25111 0.0
H4045 H 0.2681 0.69238 0.22073 0.0
H4046 H 0.21354 0.67647 0.1959 0.0
H4047 H 0.20414 0.66991 0.22616 0.0
C4048 C 0.21673 0.60223 0.28623 0.0
C4049 C 0.19995 0.59258 0.27768 0.0
C4050 C 0.22167 0.62044 0.28565 0.0
C4051 C 0.20992 0.62892 0.27634 0.0
C4052 C 0.19333 0.61929 0.26748 0.0
C4053 C 0.18827 0.60119 0.26829 0.0
C4054 C 0.21494 0.64801 0.27609 0.0
C4055 C 0.21833 0.65424 0.25927 0.0
C4056 C 0.21775 0.65984 0.2926 0.0
C4057 C 0.21366 0.6537 0.31052 0.0
C4058 C 0.19656 0.64382 0.31227 0.0
C4059 C 0.19278 0.638 0.32918 0.0
C4060 C 0.20596 0.64214 0.34448 0.0
C4061 C 0.22294 0.65213 0.34291 0.0
C4062 C 0.22682 0.65787 0.32601 0.0
C4063 C 0.23742 0.73085 0.26435 0.0
C4064 C 0.25433 0.73761 0.27434 0.0
C4065 C 0.22856 0.71345 0.26521 0.0
C4066 C 0.23674 0.70289 0.27597 0.0
C4067 C 0.25315 0.7101 0.28693 0.0
C4068 C 0.26201 0.72747 0.28601 0.0
C4069 C 0.22862 0.68408 0.27535 0.0
C4070 C 0.22459 0.67786 0.29202 0.0
C4071 C 0.22545 0.67225 0.25871 0.0
C4072 C 0.23085 0.67779 0.24094 0.0
C4073 C 0.24891 0.68425 0.23924 0.0
C4074 C 0.25414 0.68773 0.22201 0.0
C4075 C 0.2414 0.68489 0.2064 0.0
C4076 C 0.22339 0.67869 0.20801 0.0
C4077 C 0.21811 0.67505 0.22519 0.0
H4078 H 0.24548 0.68736 0.19303 0.0
H4079 H 0.203 0.63768 0.35758 0.0
H4080 H 0.5452 0.72526 0.49161 0.0
H4081 H 0.54714 0.69634 0.5011 0.0
H4082 H 0.49191 0.67501 0.4799 0.0
H4083 H 0.48999 0.70401 0.47014 0.0
H4084 H 0.4983 0.66192 0.51176 0.0
H4085 H 0.5253 0.66212 0.45725 0.0
H4086 H 0.54505 0.67264 0.4344 0.0
H4087 H 0.59085 0.67545 0.47378 0.0
H4088 H 0.57134 0.66506 0.49695 0.0
H4089 H 0.50589 0.57024 0.51602 0.0
H4090 H 0.5016 0.59822 0.50548 0.0
H4091 H 0.55391 0.62515 0.53235 0.0
H4092 H 0.55797 0.59734 0.54342 0.0
H4093 H 0.54754 0.63429 0.49605 0.0
H4094 H 0.51728 0.63316 0.5506 0.0
H4095 H 0.49531 0.62091 0.57076 0.0
H4096 H 0.45282 0.61702 0.527 0.0
H4097 H 0.47457 0.62918 0.50653 0.0
C4098 C 0.53337 0.71451 0.48897 0.0
C4099 C 0.51739 0.71739 0.48008 0.0
C4100 C 0.53454 0.69771 0.49435 0.0
C4101 C 0.51975 0.68294 0.49126 0.0
C4102 C 0.50366 0.68586 0.48263 0.0
C4103 C 0.50255 0.70263 0.47699 0.0
C4104 C 0.5212 0.66476 0.49712 0.0
C4105 C 0.50898 0.65588 0.50804 0.0
C4106 C 0.53502 0.65632 0.49254 0.0
C4107 C 0.54686 0.66304 0.47892 0.0
C4108 C 0.53958 0.66518 0.46112 0.0
C4109 C 0.55073 0.67105 0.44808 0.0
C4110 C 0.56919 0.67478 0.45266 0.0
C4111 C 0.57654 0.6726 0.47027 0.0
C4112 C 0.56545 0.66669 0.48336 0.0
C4113 C 0.51652 0.58209 0.51981 0.0
C4114 C 0.53235 0.58117 0.53074 0.0
C4115 C 0.514 0.59828 0.51376 0.0
C4116 C 0.52736 0.61425 0.51798 0.0
C4117 C 0.54325 0.6133 0.52873 0.0
C4118 C 0.54557 0.59722 0.53519 0.0
C4119 C 0.52492 0.63172 0.51107 0.0
C4120 C 0.53691 0.6404 0.49982 0.0
C4121 C 0.51062 0.63969 0.51495 0.0
C4122 C 0.49756 0.63193 0.527 0.0
C4123 C 0.50326 0.62952 0.54522 0.0
C4124 C 0.49085 0.62267 0.55672 0.0
C4125 C 0.47269 0.61821 0.55016 0.0
C4126 C 0.4669 0.62052 0.53206 0.0
C4127 C 0.47926 0.62742 0.52051 0.0
H4128 H 0.46311 0.61302 0.55914 0.0
H4129 H 0.57781 0.6793 0.44253 0.0
H4130 H 0.60035 0.2647 0.66054 0.0
H4131 H 0.62823 0.2633 0.67824 0.0
H4132 H 0.64777 0.31984 0.67884 0.0
H4133 H 0.62014 0.32091 0.65958 0.0
H4134 H 0.67419 0.30522 0.67585 0.0
H4135 H 0.62903 0.29692 0.71814 0.0
H4136 H 0.6001 0.28154 0.72646 0.0
H4137 H 0.61617 0.23198 0.7218 0.0
H4138 H 0.64512 0.24704 0.71332 0.0
H4139 H 0.74619 0.31517 0.74708 0.0
H4140 H 0.71885 0.31665 0.72808 0.0
H4141 H 0.69687 0.26117 0.73167 0.0
H4142 H 0.72366 0.26027 0.75204 0.0
H4143 H 0.67149 0.2749 0.73223 0.0
H4144 H 0.71542 0.28059 0.69061 0.0
H4145 H 0.74392 0.29321 0.67957 0.0
H4146 H 0.73042 0.34392 0.67993 0.0
H4147 H 0.70192 0.33167 0.69117 0.0
C4148 C 0.61057 0.27688 0.66449 0.0
C4149 C 0.60787 0.29298 0.65892 0.0
C4150 C 0.62655 0.2761 0.6748 0.0
C4151 C 0.64011 0.29157 0.68071 0.0
C4152 C 0.63758 0.30767 0.67477 0.0
C4153 C 0.62173 0.30834 0.66381 0.0
C4154 C 0.65676 0.29089 0.69304 0.0
C4155 C 0.67355 0.29883 0.68833 0.0
C4156 C 0.65625 0.28193 0.70904 0.0
C4157 C 0.6392 0.2731 0.71506 0.0
C4158 C 0.62639 0.28275 0.71894 0.0
C4159 C 0.60999 0.27408 0.72365 0.0
C4160 C 0.6063 0.25579 0.72464 0.0
C4161 C 0.61905 0.24615 0.72105 0.0
C4162 C 0.63548 0.25475 0.71635 0.0
C4163 C 0.73546 0.30334 0.74385 0.0
C4164 C 0.73709 0.28763 0.75106 0.0
C4165 C 0.71981 0.30409 0.73274 0.0
C4166 C 0.70566 0.28889 0.72774 0.0
C4167 C 0.70737 0.27317 0.73512 0.0
C4168 C 0.72276 0.27262 0.74678 0.0
C4169 C 0.68906 0.2894 0.71518 0.0
C4170 C 0.67224 0.28138 0.7198 0.0
C4171 C 0.68958 0.29791 0.69886 0.0
C4172 C 0.7066 0.30524 0.69186 0.0
C4173 C 0.71856 0.29445 0.6884 0.0
C4174 C 0.73472 0.30154 0.68211 0.0
C4175 C 0.73899 0.31936 0.67908 0.0
C4176 C 0.72709 0.33012 0.68229 0.0
C4177 C 0.71093 0.32311 0.68859 0.0
H4178 H 0.7515 0.32482 0.67421 0.0
H4179 H 0.59356 0.24909 0.7282 0.0
H4180 H 0.98046 0.32135 0.98927 0.0
H4181 H 0.98457 0.35322 0.99949 0.0
H4182 H 0.0366 0.36339 0.98172 0.0
H4183 H 0.03237 0.33144 0.97112 0.0
H4184 H 0.03825 0.38358 0.01478 0.0
H4185 H 1.00176 0.37556 0.95713 0.0
H4186 H 0.97651 0.36339 0.93258 0.0
H4187 H 0.9403 0.37676 0.96919 0.0
H4188 H 0.96534 0.38888 0.99404 0.0
H4189 H 0.04849 0.47893 0.0198 0.0
H4190 H 0.04557 0.44733 0.00949 0.0
H4191 H 0.99448 0.435 0.02917 0.0
H4192 H 0.99778 0.46656 0.04 0.0
H4193 H 0.99303 0.41622 0.99462 0.0
H4194 H 0.0308 0.42426 0.05247 0.0
H4195 H 0.05693 0.43834 0.07542 0.0
H4196 H 0.09174 0.42651 0.03645 0.0
H4197 H 0.06578 0.41235 0.01322 0.0
C4198 C 0.99286 0.33028 0.98755 0.0
C4199 C 1.00607 0.32343 0.97933 0.0
C4200 C 0.99517 0.34872 0.99335 0.0
C4201 C 0.01091 0.36122 0.99143 0.0
C4202 C 0.02428 0.35437 0.98352 0.0
C4203 C 0.02184 0.33592 0.9774 0.0
C4204 C 0.01334 0.38118 0.99771 0.0
C4205 C 0.0284 0.39066 0.01009 0.0
C4206 C 1.00059 0.3909 0.99208 0.0
C4207 C 0.9854 0.38288 0.97753 0.0
C4208 C 0.98839 0.37567 0.96004 0.0
C4209 C 0.97412 0.36885 0.94604 0.0
C4210 C 0.9568 0.36923 0.94935 0.0
C4211 C 0.95371 0.37643 0.96667 0.0
C4212 C 0.96794 0.38328 0.98071 0.0
C4213 C 0.03658 0.46962 0.02196 0.0
C4214 C 0.02327 0.47586 0.03067 0.0
C4215 C 0.03494 0.4513 0.01608 0.0
C4216 C 0.01976 0.43829 0.01842 0.0
C4217 C 1.00637 0.44445 0.02698 0.0
C4218 C 0.00823 0.46275 0.03321 0.0
C4219 C 0.01776 0.4185 0.01181 0.0
C4220 C 1.00282 0.40909 0.99934 0.0
C4221 C 0.0307 0.40892 0.01721 0.0
C4222 C 0.04635 0.41739 0.03106 0.0
C4223 C 0.04403 0.42475 0.04876 0.0
C4224 C 0.0588 0.4327 0.06183 0.0
C4225 C 0.07598 0.43332 0.05738 0.0
C4226 C 0.07842 0.42597 0.03986 0.0
C4227 C 0.06368 0.41795 0.02675 0.0
H4228 H 0.0874 0.43946 0.06753 0.0
H4229 H 0.94579 0.36401 0.93847 0.0
H4230 H 0.01484 0.78277 0.18871 0.0
H4231 H 0.98792 0.78121 0.20353 0.0
H4232 H 0.95886 0.78626 0.15158 0.0
H4233 H 0.98629 0.78905 0.13702 0.0
H4234 H 0.94667 0.80302 0.17676 0.0
H4235 H 0.95584 0.74429 0.17048 0.0
H4236 H 0.97183 0.72032 0.17291 0.0
H4237 H 0.98043 0.73276 0.23214 0.0
H4238 H 0.96463 0.7569 0.23007 0.0
H4239 H 0.86352 0.76261 0.21142 0.0
H4240 H 0.8886 0.77269 0.1941 0.0
H4241 H 0.92503 0.77991 0.24436 0.0
H4242 H 0.90005 0.76978 0.26153 0.0
H4243 H 0.9314 0.75602 0.21725 0.0
H4244 H 0.92096 0.81577 0.22135 0.0
H4245 H 0.90382 0.83851 0.21649 0.0
H4246 H 0.89478 0.82106 0.15798 0.0
H4247 H 0.91178 0.79816 0.16252 0.0
C4248 C 1.00274 0.78371 0.18049 0.0
C4249 C 1.00266 0.786 0.16171 0.0
C4250 C 0.98725 0.78261 0.18893 0.0
C4251 C 0.97106 0.78304 0.17862 0.0
C4252 C 0.97107 0.78578 0.1599 0.0
C4253 C 0.98676 0.78739 0.15156 0.0
C4254 C 0.95427 0.78057 0.1875 0.0
C4255 C 0.94323 0.79256 0.1854 0.0
C4256 C 0.94955 0.76694 0.1988 0.0
C4257 C 0.95918 0.7525 0.2001 0.0
C4258 C 0.96125 0.74199 0.18401 0.0
C4259 C 0.97026 0.72836 0.18533 0.0
C4260 C 0.97718 0.72505 0.20266 0.0
C4261 C 0.97508 0.73534 0.21872 0.0
C4262 C 0.96607 0.74898 0.21749 0.0
C4263 C 0.87683 0.76713 0.21885 0.0
C4264 C 0.87987 0.76565 0.23784 0.0
C4265 C 0.89117 0.77282 0.20894 0.0
C4266 C 0.90877 0.77702 0.21789 0.0
C4267 C 0.91161 0.77676 0.23714 0.0
C4268 C 0.89733 0.77111 0.24699 0.0
C4269 C 0.92423 0.77884 0.20708 0.0
C4270 C 0.93489 0.76649 0.20863 0.0
C4271 C 0.92822 0.7918 0.19492 0.0
C4272 C 0.91746 0.80512 0.19231 0.0
C4273 C 0.91513 0.81664 0.20749 0.0
C4274 C 0.90551 0.82961 0.20477 0.0
C4275 C 0.89817 0.83119 0.18695 0.0
C4276 C 0.90044 0.81981 0.17179 0.0
C4277 C 0.91009 0.80685 0.17442 0.0
H4278 H 0.89077 0.84127 0.18488 0.0
H4279 H 0.98415 0.71448 0.20365 0.0
H4280 H 0.52996 0.31285 0.1839 0.0
H4281 H 0.53295 0.34081 0.17045 0.0
H4282 H 0.51703 0.31107 0.11585 0.0
H4283 H 0.51568 0.28333 0.12926 0.0
H4284 H 0.54263 0.33559 0.11333 0.0
H4285 H 0.49015 0.33641 0.14519 0.0
H4286 H 0.47444 0.33663 0.17284 0.0
H4287 H 0.51264 0.38389 0.19842 0.0
H4288 H 0.5287 0.38381 0.17105 0.0
H4289 H 0.53007 0.40205 0.06045 0.0
H4290 H 0.52122 0.37712 0.07814 0.0
H4291 H 0.5464 0.41076 0.12866 0.0
H4292 H 0.55506 0.43573 0.11091 0.0
H4293 H 0.51744 0.38619 0.13518 0.0
H4294 H 0.56917 0.38688 0.10541 0.0
H4295 H 0.58719 0.38799 0.07955 0.0
H4296 H 0.55328 0.33886 0.05218 0.0
H4297 H 0.53478 0.33767 0.07768 0.0
C4298 C 0.52687 0.31238 0.16905 0.0
C4299 C 0.52241 0.29598 0.1576 0.0
C4300 C 0.52847 0.32838 0.16134 0.0
C4301 C 0.52489 0.32827 0.14204 0.0
C4302 C 0.51993 0.31172 0.13074 0.0
C4303 C 0.519 0.29581 0.13839 0.0
C4304 C 0.52722 0.34515 0.1333 0.0
C4305 C 0.53673 0.34642 0.11794 0.0
C4306 C 0.52051 0.35994 0.13981 0.0
C4307 C 0.51069 0.36001 0.15613 0.0
C4308 C 0.49523 0.34679 0.15675 0.0
C4309 C 0.48627 0.34689 0.17237 0.0
C4310 C 0.49256 0.36024 0.18739 0.0
C4311 C 0.50779 0.37355 0.18679 0.0
C4312 C 0.51682 0.37348 0.17123 0.0
C4313 C 0.53295 0.40429 0.07542 0.0
C4314 C 0.543 0.42082 0.08438 0.0
C4315 C 0.52811 0.39 0.08551 0.0
C4316 C 0.53347 0.39194 0.10471 0.0
C4317 C 0.54215 0.4089 0.11388 0.0
C4318 C 0.54699 0.4232 0.10377 0.0
C4319 C 0.5319 0.37598 0.11472 0.0
C4320 C 0.52296 0.3751 0.13044 0.0
C4321 C 0.53933 0.36161 0.10875 0.0
C4322 C 0.55044 0.36231 0.09337 0.0
C4323 C 0.56543 0.37641 0.09379 0.0
C4324 C 0.57575 0.37704 0.0792 0.0
C4325 C 0.57135 0.36353 0.06421 0.0
C4326 C 0.55664 0.34935 0.06378 0.0
C4327 C 0.54622 0.34869 0.07829 0.0
H4328 H 0.57938 0.36403 0.05294 0.0
H4329 H 0.4856 0.36029 0.19946 0.0
H4330 H 0.9813 0.31706 0.36664 0.0
H4331 H 0.95021 0.31395 0.35473 0.0
H4332 H 0.95266 0.26986 0.31503 0.0
H4333 H 0.98436 0.27355 0.32654 0.0
H4334 H 0.93216 0.28519 0.29844 0.0
H4335 H 0.93012 0.26793 0.35882 0.0
H4336 H 0.93619 0.26967 0.39278 0.0
H4337 H 0.91485 0.31609 0.39942 0.0
H4338 H 0.90885 0.31477 0.36549 0.0
H4339 H 0.83634 0.255 0.27868 0.0
H4340 H 0.86793 0.25839 0.28976 0.0
H4341 H 0.86956 0.30961 0.31948 0.0
H4342 H 0.83788 0.30626 0.30836 0.0
H4343 H 0.88743 0.29007 0.34115 0.0
H4344 H 0.88916 0.3056 0.27933 0.0
H4345 H 0.88221 0.30146 0.2453 0.0
H4346 H 0.90318 0.25466 0.24192 0.0
H4347 H 0.91001 0.25837 0.27595 0.0
C4348 C 0.97537 0.3067 0.35527 0.0
C4349 C 0.98577 0.29561 0.34766 0.0
C4350 C 0.95723 0.30474 0.34854 0.0
C4351 C 0.94829 0.29127 0.33413 0.0
C4352 C 0.95876 0.28038 0.32619 0.0
C4353 C 0.97711 0.28252 0.33277 0.0
C4354 C 0.92839 0.28895 0.32717 0.0
C4355 C 0.92247 0.28598 0.30797 0.0
C4356 C 0.91517 0.29022 0.33916 0.0
C4357 C 0.91924 0.29137 0.35958 0.0
C4358 C 0.9269 0.27862 0.36751 0.0
C4359 C 0.93029 0.27951 0.38676 0.0
C4360 C 0.92597 0.29301 0.39825 0.0
C4361 C 0.91824 0.30566 0.3905 0.0
C4362 C 0.91484 0.30485 0.37126 0.0
C4363 C 0.84335 0.26709 0.28749 0.0
C4364 C 0.83422 0.28044 0.29229 0.0
C4365 C 0.86164 0.26906 0.29383 0.0
C4366 C 0.87166 0.28437 0.30547 0.0
C4367 C 0.86251 0.29764 0.3105 0.0
C4368 C 0.84424 0.29578 0.30394 0.0
C4369 C 0.89139 0.28635 0.31255 0.0
C4370 C 0.89722 0.28926 0.33174 0.0
C4371 C 0.90445 0.28465 0.3006 0.0
C4372 C 0.89991 0.28216 0.2802 0.0
C4373 C 0.8921 0.29431 0.27134 0.0
C4374 C 0.88823 0.29207 0.25205 0.0
C4375 C 0.89222 0.27779 0.24146 0.0
C4376 C 0.90007 0.2657 0.25014 0.0
C4377 C 0.90394 0.26787 0.26942 0.0
H4378 H 0.88927 0.2761 0.22652 0.0
H4379 H 0.92856 0.29365 0.41315 0.0
H4380 H 1.00277 0.71388 0.63533 0.0
H4381 H 1.00475 0.686 0.61765 0.0
H4382 H 0.01219 0.66341 0.66841 0.0
H4383 H 0.00994 0.6912 0.68622 0.0
H4384 H 0.03674 0.65721 0.64296 0.0
H4385 H 0.97371 0.6495 0.64343 0.0
H4386 H 0.94514 0.6584 0.63916 0.0
H4387 H 0.95006 0.66149 0.58162 0.0
H4388 H 0.9788 0.65282 0.58561 0.0
H4389 H 0.02149 0.56607 0.60084 0.0
H4390 H 0.0198 0.59322 0.62014 0.0
H4391 H 0.00918 0.6174 0.57109 0.0
H4392 H 0.01054 0.59034 0.55191 0.0
H4393 H 0.9868 0.6227 0.59654 0.0
H4394 H 0.04913 0.62986 0.59525 0.0
H4395 H 0.07817 0.62186 0.59892 0.0
H4396 H 0.07554 0.62062 0.65709 0.0
H4397 H 0.0463 0.62831 0.65372 0.0
C4398 C 1.00457 0.70292 0.64277 0.0
C4399 C 1.00595 0.70481 0.66225 0.0
C4400 C 1.0058 0.68697 0.63261 0.0
C4401 C 0.00867 0.67252 0.64164 0.0
C4402 C 0.01003 0.67433 0.66108 0.0
C4403 C 0.00852 0.6902 0.67124 0.0
C4404 C 0.0099 0.6555 0.63071 0.0
C4405 C 0.02572 0.64949 0.63303 0.0
C4406 C 0.99576 0.64561 0.61736 0.0
C4407 C 0.97845 0.65067 0.61485 0.0
C4408 C 0.96875 0.6522 0.62989 0.0
C4409 C 0.95252 0.65718 0.62752 0.0
C4410 C 0.9458 0.66055 0.61014 0.0
C4411 C 0.95528 0.6589 0.59508 0.0
C4412 C 0.97153 0.65393 0.59738 0.0
C4413 C 0.01878 0.57713 0.59409 0.0
C4414 C 0.01667 0.57603 0.57459 0.0
C4415 C 0.01794 0.59275 0.60521 0.0
C4416 C 0.01466 0.60758 0.59714 0.0
C4417 C 0.01193 0.60628 0.57774 0.0
C4418 C 0.01294 0.59078 0.56668 0.0
C4419 C 0.0136 0.62428 0.60879 0.0
C4420 C 0.99782 0.63029 0.60655 0.0
C4421 C 0.02784 0.63418 0.6221 0.0
C4422 C 0.04537 0.62942 0.62418 0.0
C4423 C 0.05463 0.62767 0.60879 0.0
C4424 C 0.07116 0.62324 0.61082 0.0
C4425 C 0.07867 0.62067 0.62821 0.0
C4426 C 0.06968 0.62257 0.64361 0.0
C4427 C 0.05313 0.62697 0.64165 0.0
H4428 H 0.09147 0.61725 0.62976 0.0
H4429 H 0.93323 0.66441 0.60833 0.0
H4430 H 0.60418 0.79937 0.87528 0.0
H4431 H 0.63106 0.79551 0.86266 0.0
H4432 H 0.60538 0.79473 0.8075 0.0
H4433 H 0.578 0.79854 0.82025 0.0
H4434 H 0.62457 0.76982 0.8066 0.0
H4435 H 0.64013 0.8316 0.83279 0.0
H4436 H 0.64458 0.85715 0.85716 0.0
H4437 H 0.68102 0.83525 0.89054 0.0
H4438 H 0.67661 0.80945 0.86649 0.0
H4439 H 0.70627 0.7702 0.76644 0.0
H4440 H 0.6783 0.77528 0.77623 0.0
H4441 H 0.70348 0.78854 0.83278 0.0
H4442 H 0.73153 0.78472 0.82276 0.0
H4443 H 0.68377 0.80816 0.83182 0.0
H4444 H 0.66772 0.74598 0.80899 0.0
H4445 H 0.66344 0.71902 0.78651 0.0
H4446 H 0.6283 0.73918 0.74959 0.0
H4447 H 0.6325 0.76635 0.7718 0.0
C4448 C 0.60403 0.79848 0.8604 0.0
C4449 C 0.58842 0.79938 0.84899 0.0
C4450 C 0.61976 0.79636 0.85311 0.0
C4451 C 0.62092 0.79501 0.83391 0.0
C4452 C 0.60532 0.79577 0.82236 0.0
C4453 C 0.58948 0.79805 0.82972 0.0
C4454 C 0.63813 0.79247 0.82616 0.0
C4455 C 0.63746 0.77845 0.812 0.0
C4456 C 0.65543 0.80308 0.83332 0.0
C4457 C 0.6579 0.8185 0.84789 0.0
C4458 C 0.64897 0.83215 0.84539 0.0
C4459 C 0.65151 0.84669 0.85914 0.0
C4460 C 0.66304 0.8478 0.87541 0.0
C4461 C 0.67207 0.83437 0.87795 0.0
C4462 C 0.66956 0.81979 0.86426 0.0
C4463 C 0.70588 0.77416 0.78098 0.0
C4464 C 0.72157 0.777 0.79365 0.0
C4465 C 0.68958 0.77694 0.78675 0.0
C4466 C 0.68795 0.78211 0.8056 0.0
C4467 C 0.7037 0.78472 0.81818 0.0
C4468 C 0.72001 0.78237 0.81236 0.0
C4469 C 0.67039 0.78525 0.81233 0.0
C4470 C 0.67096 0.79944 0.82635 0.0
C4471 C 0.65305 0.77452 0.80535 0.0
C4472 C 0.65062 0.75829 0.79194 0.0
C4473 C 0.65919 0.74472 0.79601 0.0
C4474 C 0.65677 0.7294 0.78332 0.0
C4475 C 0.6457 0.72743 0.76657 0.0
C4476 C 0.63694 0.74075 0.76253 0.0
C4477 C 0.63932 0.75611 0.77517 0.0
H4478 H 0.64385 0.71556 0.75676 0.0
H4479 H 0.66501 0.85908 0.88602 0.0
H4480 H 0.4706 0.51067 0.73607 0.0
H4481 H 0.48471 0.51362 0.70775 0.0
H4482 H 0.44246 0.53569 0.68421 0.0
H4483 H 0.42802 0.53215 0.71211 0.0
H4484 H 0.44971 0.51498 0.65824 0.0
H4485 H 0.48554 0.56204 0.70146 0.0
H4486 H 0.50283 0.5753 0.73171 0.0
H4487 H 0.54016 0.54285 0.72304 0.0
H4488 H 0.52295 0.52923 0.69279 0.0
H4489 H 0.49662 0.5477 0.58432 0.0
H4490 H 0.48152 0.54559 0.61211 0.0
H4491 H 0.51962 0.51859 0.63573 0.0
H4492 H 0.53474 0.52065 0.60804 0.0
H4493 H 0.51398 0.54305 0.66143 0.0
H4494 H 0.47226 0.49307 0.61926 0.0
H4495 H 0.45128 0.47972 0.59101 0.0
H4496 H 0.42437 0.52213 0.5977 0.0
H4497 H 0.44452 0.53522 0.62648 0.0
C4498 C 0.46437 0.51626 0.72492 0.0
C4499 C 0.4482 0.52128 0.72655 0.0
C4500 C 0.47249 0.518 0.70867 0.0
C4501 C 0.46488 0.52516 0.69373 0.0
C4502 C 0.4487 0.53011 0.69537 0.0
C4503 C 0.44048 0.52817 0.71148 0.0
C4504 C 0.47375 0.52757 0.6765 0.0
C4505 C 0.46372 0.52132 0.65902 0.0
C4506 C 0.49204 0.53586 0.67719 0.0
C4507 C 0.50291 0.54455 0.69493 0.0
C4508 C 0.49744 0.55773 0.70601 0.0
C4509 C 0.50721 0.56529 0.72316 0.0
C4510 C 0.52257 0.5599 0.72931 0.0
C4511 C 0.52826 0.54701 0.71825 0.0
C4512 C 0.51852 0.53939 0.70109 0.0
C4513 C 0.50182 0.54133 0.59544 0.0
C4514 C 0.51701 0.53442 0.59386 0.0
C4515 C 0.49305 0.53998 0.61132 0.0
C4516 C 0.49918 0.53166 0.62608 0.0
C4517 C 0.5145 0.52502 0.62463 0.0
C4518 C 0.52321 0.52627 0.60874 0.0
C4519 C 0.48999 0.53018 0.64319 0.0
C4520 C 0.49997 0.5367 0.66068 0.0
C4521 C 0.47153 0.5226 0.64249 0.0
C4522 C 0.46002 0.51523 0.62481 0.0
C4523 C 0.46195 0.4996 0.6146 0.0
C4524 C 0.45018 0.49205 0.59857 0.0
C4525 C 0.43676 0.50025 0.59241 0.0
C4526 C 0.43485 0.51586 0.60243 0.0
C4527 C 0.44631 0.52325 0.61869 0.0
H4528 H 0.42774 0.49441 0.57995 0.0
H4529 H 0.53008 0.56571 0.74263 0.0
H4530 H 0.74454 0.17132 0.00259 0.0
H4531 H 0.74411 0.18067 0.9718 0.0
H4532 H 0.78948 0.1588 0.9627 0.0
H4533 H 0.78965 0.14888 0.99356 0.0
H4534 H 0.79328 0.1967 0.96172 0.0
H4535 H 0.75461 0.14118 0.93465 0.0
H4536 H 0.72872 0.11562 0.93093 0.0
H4537 H 0.69334 0.15063 0.92519 0.0
H4538 H 0.71894 0.17644 0.92921 0.0
H4539 H 0.77186 0.22253 0.86713 0.0
H4540 H 0.78387 0.20963 0.89335 0.0
H4541 H 0.74636 0.22676 0.92638 0.0
H4542 H 0.73437 0.23979 0.90031 0.0
H4543 H 0.7437 0.18673 0.91061 0.0
H4544 H 0.7786 0.24106 0.94634 0.0
H4545 H 0.80236 0.26847 0.95409 0.0
H4546 H 0.84189 0.23818 0.94772 0.0
H4547 H 0.81829 0.21058 0.93965 0.0
C4548 C 0.75432 0.16839 0.99394 0.0
C4549 C 0.76742 0.15987 1.00038 0.0
C4550 C 0.75386 0.17343 0.97632 0.0
C4551 C 0.76667 0.17021 0.96511 0.0
C4552 C 0.7794 0.16111 0.97123 0.0
C4553 C 0.7796 0.15568 0.98878 0.0
C4554 C 0.76847 0.17936 0.94874 0.0
C4555 C 0.78277 0.19424 0.95013 0.0
C4556 C 0.75429 0.17632 0.93424 0.0
C4557 C 0.73878 0.1608 0.93229 0.0
C4558 C 0.74132 0.14347 0.93279 0.0
C4559 C 0.72667 0.12892 0.93059 0.0
C4560 C 0.7094 0.1315 0.92783 0.0
C4561 C 0.70672 0.14865 0.92731 0.0
C4562 C 0.72131 0.16324 0.92953 0.0
C4563 C 0.76668 0.22412 0.88023 0.0
C4564 C 0.75195 0.23167 0.88175 0.0
C4565 C 0.77366 0.21693 0.89517 0.0
C4566 C 0.76598 0.21741 0.91162 0.0
C4567 C 0.75249 0.22652 0.91373 0.0
C4568 C 0.74549 0.23366 0.89883 0.0
C4569 C 0.76808 0.20438 0.92413 0.0
C4570 C 0.75452 0.1888 0.92184 0.0
C4571 C 0.78254 0.20713 0.93819 0.0
C4572 C 0.79665 0.22381 0.94187 0.0
C4573 C 0.79232 0.24028 0.94614 0.0
C4574 C 0.80577 0.25584 0.95074 0.0
C4575 C 0.82362 0.25509 0.95126 0.0
C4576 C 0.82805 0.23876 0.9472 0.0
C4577 C 0.81465 0.22316 0.94259 0.0
H4578 H 0.83403 0.26714 0.95491 0.0
H4579 H 0.69809 0.12021 0.92608 0.0
H4580 H 0.17211 0.53486 0.20389 0.0
H4581 H 0.15142 0.53783 0.17736 0.0
H4582 H 0.1085 0.53072 0.21104 0.0
H4583 H 0.12876 0.52713 0.23719 0.0
H4584 H 0.10133 0.50787 0.18049 0.0
H4585 H 0.12445 0.5709 0.19734 0.0
H4586 H 0.14659 0.5996 0.20401 0.0
H4587 H 0.16206 0.59227 0.14962 0.0
H4588 H 0.14016 0.56343 0.14269 0.0
H4589 H 0.04436 0.54708 0.11422 0.0
H4590 H 0.06442 0.547 0.14222 0.0
H4591 H 0.08987 0.51128 0.11185 0.0
H4592 H 0.06889 0.5098 0.08441 0.0
H4593 H 0.1052 0.55619 0.14068 0.0
H4594 H 0.08689 0.48792 0.13012 0.0
H4595 H 0.06336 0.46019 0.12458 0.0
H4596 H 0.03822 0.47925 0.16959 0.0
H4597 H 0.06133 0.50739 0.1749 0.0
C4598 C 0.1582 0.53377 0.20546 0.0
C4599 C 0.15182 0.53028 0.22227 0.0
C4600 C 0.14656 0.5358 0.19052 0.0
C4601 C 0.12862 0.53464 0.19249 0.0
C4602 C 0.12237 0.53162 0.20941 0.0
C4603 C 0.13386 0.52928 0.22417 0.0
C4604 C 0.11575 0.53404 0.17637 0.0
C4605 C 0.10214 0.51853 0.17189 0.0
C4606 C 0.11709 0.54787 0.16512 0.0
C4607 C 0.13082 0.56486 0.1696 0.0
C4608 C 0.13275 0.57527 0.1869 0.0
C4609 C 0.14521 0.59161 0.1907 0.0
C4610 C 0.15577 0.59772 0.17728 0.0
C4611 C 0.1539 0.5875 0.16003 0.0
C4612 C 0.14147 0.57116 0.15616 0.0
C4613 C 0.05389 0.53881 0.11369 0.0
C4614 C 0.05516 0.52849 0.09721 0.0
C4615 C 0.06532 0.53887 0.12957 0.0
C4616 C 0.07819 0.52886 0.12891 0.0
C4617 C 0.07955 0.51861 0.11255 0.0
C4618 C 0.0678 0.51808 0.09685 0.0
C4619 C 0.09107 0.53012 0.14505 0.0
C4620 C 0.1046 0.54566 0.14942 0.0
C4621 C 0.08976 0.5164 0.15629 0.0
C4622 C 0.07544 0.49995 0.15247 0.0
C4623 C 0.07607 0.4864 0.13847 0.0
C4624 C 0.06287 0.47057 0.13545 0.0
C4625 C 0.0492 0.46802 0.14662 0.0
C4626 C 0.0487 0.48131 0.16082 0.0
C4627 C 0.06178 0.49724 0.16376 0.0
H4628 H 0.03908 0.4557 0.14436 0.0
H4629 H 0.16536 0.6104 0.18022 0.0
H4630 H 0.81292 0.86911 0.48294 0.0
H4631 H 0.81007 0.8578 0.44993 0.0
H4632 H 0.76065 0.82128 0.4548 0.0
H4633 H 0.76352 0.83274 0.48789 0.0
H4634 H 0.78236 0.80448 0.43723 0.0
H4635 H 0.76204 0.85812 0.43105 0.0
H4636 H 0.76321 0.89028 0.43463 0.0
H4637 H 0.81059 0.89995 0.40809 0.0
H4638 H 0.80984 0.86788 0.40456 0.0
H4639 H 0.75986 0.77211 0.34099 0.0
H4640 H 0.76074 0.7846 0.37333 0.0
H4641 H 0.80493 0.82733 0.36692 0.0
H4642 H 0.80292 0.81553 0.33421 0.0
H4643 H 0.78539 0.84108 0.38555 0.0
H4644 H 0.80726 0.78876 0.39217 0.0
H4645 H 0.80723 0.75686 0.38815 0.0
H4646 H 0.75962 0.74499 0.41412 0.0
H4647 H 0.75919 0.77679 0.41803 0.0
C4648 C 0.80134 0.85883 0.47686 0.0
C4649 C 0.7884 0.85184 0.48792 0.0
C4650 C 0.79967 0.8524 0.45796 0.0
C4651 C 0.78506 0.83871 0.44966 0.0
C4652 C 0.77202 0.83186 0.46075 0.0
C4653 C 0.77361 0.83843 0.47965 0.0
C4654 C 0.78399 0.83082 0.42983 0.0
C4655 C 0.78275 0.81246 0.42589 0.0
C4656 C 0.78517 0.84123 0.41499 0.0
C4657 C 0.786 0.8606 0.41775 0.0
C4658 C 0.77284 0.86712 0.4262 0.0
C4659 C 0.77339 0.88534 0.42816 0.0
C4660 C 0.787 0.89716 0.42165 0.0
C4661 C 0.80009 0.8908 0.41317 0.0
C4662 C 0.7996 0.8726 0.41119 0.0
C4663 C 0.7698 0.78411 0.3466 0.0
C4664 C 0.78156 0.79268 0.33524 0.0
C4665 C 0.77043 0.79121 0.36517 0.0
C4666 C 0.7832 0.8068 0.373 0.0
C4667 C 0.79497 0.81529 0.36148 0.0
C4668 C 0.794 0.80843 0.34279 0.0
C4669 C 0.78387 0.81468 0.39285 0.0
C4670 C 0.78503 0.83304 0.39683 0.0
C4671 C 0.78296 0.80432 0.40778 0.0
C4672 C 0.78309 0.78516 0.40522 0.0
C4673 C 0.79669 0.77934 0.39687 0.0
C4674 C 0.79677 0.76127 0.39464 0.0
C4675 C 0.78341 0.7489 0.40083 0.0
C4676 C 0.76994 0.75458 0.40929 0.0
C4677 C 0.76978 0.77262 0.41152 0.0
H4678 H 0.78351 0.73492 0.39912 0.0
H4679 H 0.78736 0.91125 0.42312 0.0
H4680 H 0.43374 0.52207 0.84404 0.0
H4681 H 0.44566 0.52329 0.87658 0.0
H4682 H 0.49628 0.5183 0.86 0.0
H4683 H 0.48389 0.51571 0.82752 0.0
H4684 H 0.4906 0.49849 0.88372 0.0
H4685 H 0.48432 0.55931 0.88403 0.0
H4686 H 0.4682 0.58297 0.87992 0.0
H4687 H 0.4332 0.56292 0.91855 0.0
H4688 H 0.44895 0.53901 0.92271 0.0
H4689 H 0.54075 0.51577 0.97336 0.0
H4690 H 0.52828 0.51623 0.94141 0.0
H4691 H 0.47855 0.52168 0.96001 0.0
H4692 H 0.49145 0.52246 0.99203 0.0
H4693 H 0.48301 0.54119 0.93562 0.0
H4694 H 0.48666 0.47913 0.93289 0.0
H4695 H 0.50057 0.45363 0.9351 0.0
H4696 H 0.53972 0.47585 0.90141 0.0
H4697 H 0.52569 0.50117 0.89846 0.0
C4698 C 0.44749 0.52147 0.84739 0.0
C4699 C 0.45788 0.51886 0.83314 0.0
C4700 C 0.4544 0.52229 0.86611 0.0
C4701 C 0.47211 0.52118 0.87115 0.0
C4702 C 0.48259 0.51912 0.8568 0.0
C4703 C 0.47552 0.51775 0.83812 0.0
C4704 C 0.47957 0.521 0.89103 0.0
C4705 C 0.48914 0.50811 0.89494 0.0
C4706 C 0.47722 0.53294 0.90614 0.0
C4707 C 0.46771 0.54727 0.90353 0.0
C4708 C 0.47311 0.55987 0.89154 0.0
C4709 C 0.46404 0.57334 0.88922 0.0
C4710 C 0.44966 0.57442 0.89893 0.0
C4711 C 0.44432 0.56206 0.91101 0.0
C4712 C 0.45331 0.54855 0.91336 0.0
C4713 C 0.52714 0.51703 0.97062 0.0
C4714 C 0.51716 0.51911 0.98534 0.0
C4715 C 0.51988 0.51708 0.95221 0.0
C4716 C 0.50218 0.5186 0.94788 0.0
C4717 C 0.4922 0.52052 0.96267 0.0
C4718 C 0.4996 0.5209 0.9811 0.0
C4719 C 0.49424 0.51883 0.92818 0.0
C4720 C 0.48452 0.53166 0.92434 0.0
C4721 C 0.49635 0.50681 0.91309 0.0
C4722 C 0.50526 0.49209 0.91563 0.0
C4723 C 0.49833 0.47863 0.9261 0.0
C4724 C 0.50619 0.46419 0.92743 0.0
C4725 C 0.52113 0.46322 0.91859 0.0
C4726 C 0.52818 0.47664 0.90829 0.0
C4727 C 0.52022 0.49096 0.90667 0.0
H4728 H 0.52718 0.45201 0.91963 0.0
H4729 H 0.44267 0.58486 0.89712 0.0
H4730 H 0.74619 0.1484 0.09945 0.0
H4731 H 0.74606 0.16842 0.12753 0.0
H4732 H 0.80351 0.18097 0.13621 0.0
H4733 H 0.80369 0.16144 0.10757 0.0
H4734 H 0.78206 0.17099 0.16814 0.0
H4735 H 0.78969 0.20855 0.11893 0.0
H4736 H 0.78161 0.2183 0.08889 0.0
H4737 H 0.7317 0.22459 0.10553 0.0
H4738 H 0.73929 0.21444 0.13552 0.0
H4739 H 0.80542 0.24512 0.2346 0.0
H4740 H 0.80303 0.22408 0.20688 0.0
H4741 H 0.74971 0.22982 0.19048 0.0
H4742 H 0.75255 0.25181 0.21781 0.0
H4743 H 0.76657 0.22903 0.1623 0.0
H4744 H 0.75791 0.19343 0.21106 0.0
H4745 H 0.76416 0.18358 0.24155 0.0
H4746 H 0.81282 0.17229 0.22629 0.0
H4747 H 0.80704 0.18244 0.19588 0.0
C4748 C 0.75873 0.1552 0.10764 0.0
C4749 C 0.77498 0.15346 0.10186 0.0
C4750 C 0.75863 0.16663 0.12342 0.0
C4751 C 0.77477 0.17604 0.13355 0.0
C4752 C 0.79102 0.1737 0.12828 0.0
C4753 C 0.79113 0.16262 0.11217 0.0
C4754 C 0.77466 0.18861 0.14956 0.0
C4755 C 0.77888 0.18379 0.16702 0.0
C4756 C 0.76969 0.2048 0.14765 0.0
C4757 C 0.76492 0.21037 0.12935 0.0
C4758 C 0.77684 0.21166 0.11607 0.0
C4759 C 0.77239 0.21735 0.09907 0.0
C4760 C 0.75612 0.22197 0.09526 0.0
C4761 C 0.74427 0.22092 0.10846 0.0
C4762 C 0.74863 0.21517 0.12544 0.0
C4763 C 0.79331 0.242 0.2249 0.0
C4764 C 0.77908 0.24977 0.22808 0.0
C4765 C 0.79188 0.22991 0.20927 0.0
C4766 C 0.77599 0.22507 0.19708 0.0
C4767 C 0.76199 0.23336 0.19992 0.0
C4768 C 0.76363 0.2459 0.21532 0.0
C4769 C 0.77426 0.21163 0.18112 0.0
C4770 C 0.76961 0.21619 0.16358 0.0
C4771 C 0.77851 0.19503 0.18299 0.0
C4772 C 0.78211 0.18892 0.20128 0.0
C4773 C 0.77002 0.18904 0.21431 0.0
C4774 C 0.77347 0.18339 0.23155 0.0
C4775 C 0.7889 0.1774 0.23586 0.0
C4776 C 0.8009 0.177 0.22293 0.0
C4777 C 0.79753 0.1827 0.20569 0.0
H4778 H 0.7915 0.17306 0.2492 0.0
H4779 H 0.75273 0.22645 0.08213 0.0
H4780 H 0.1698 0.5378 0.3376 0.0
H4781 H 0.15657 0.54134 0.36632 0.0
H4782 H 0.10657 0.5414 0.33456 0.0
H4783 H 0.11977 0.53834 0.30596 0.0
H4784 H 0.11535 0.56735 0.36381 0.0
H4785 H 0.11402 0.504 0.35148 0.0
H4786 H 0.12962 0.47998 0.34543 0.0
H4787 H 0.16218 0.49679 0.39805 0.0
H4788 H 0.14692 0.5211 0.40426 0.0
H4789 H 0.04834 0.54983 0.41587 0.0
H4790 H 0.06678 0.5411 0.3931 0.0
H4791 H 0.11045 0.54689 0.43649 0.0
H4792 H 0.09191 0.5553 0.45943 0.0
H4793 H 0.10973 0.52023 0.40537 0.0
H4794 H 0.10841 0.58167 0.4192 0.0
H4795 H 0.09309 0.60599 0.42465 0.0
H4796 H 0.06662 0.59381 0.36884 0.0
H4797 H 0.08143 0.5691 0.36319 0.0
C4798 C 0.15594 0.53838 0.3368 0.0
C4799 C 0.1457 0.53757 0.31963 0.0
C4800 C 0.14846 0.5405 0.35316 0.0
C4801 C 0.13061 0.5415 0.35245 0.0
C4802 C 0.12041 0.54071 0.33532 0.0
C4803 C 0.12791 0.53881 0.31903 0.0
C4804 C 0.12213 0.54281 0.36943 0.0
C4805 C 0.11408 0.55705 0.37288 0.0
C4806 C 0.12103 0.52963 0.3815 0.0
C4807 C 0.12939 0.51437 0.37831 0.0
C4808 C 0.12448 0.50254 0.36177 0.0
C4809 C 0.13329 0.48891 0.35829 0.0
C4810 C 0.1469 0.48687 0.37134 0.0
C4811 C 0.15164 0.49839 0.38795 0.0
C4812 C 0.1429 0.51207 0.39148 0.0
C4813 C 0.06172 0.54879 0.42056 0.0
C4814 C 0.06895 0.55368 0.43919 0.0
C4815 C 0.07215 0.54367 0.40764 0.0
C4816 C 0.09002 0.54382 0.41319 0.0
C4817 C 0.09669 0.54682 0.43204 0.0
C4818 C 0.08615 0.55173 0.44505 0.0
C4819 C 0.10229 0.54433 0.39915 0.0
C4820 C 0.11119 0.53063 0.39642 0.0
C4821 C 0.10429 0.55809 0.38772 0.0
C4822 C 0.09595 0.57345 0.39081 0.0
C4823 C 0.09926 0.58412 0.40811 0.0
C4824 C 0.09065 0.59796 0.41124 0.0
C4825 C 0.07887 0.60143 0.39711 0.0
C4826 C 0.07573 0.5911 0.37978 0.0
C4827 C 0.08424 0.57717 0.37661 0.0
H4828 H 0.0722 0.61213 0.39956 0.0
H4829 H 0.15376 0.47636 0.36859 0.0
H4830 H 0.80999 0.87436 0.61164 0.0
H4831 H 0.80551 0.8606 0.64003 0.0
H4832 H 0.75843 0.82361 0.61144 0.0
H4833 H 0.76331 0.837 0.5827 0.0
H4834 H 0.7567 0.84334 0.6505 0.0
H4835 H 0.79044 0.80741 0.61669 0.0
H4836 H 0.81621 0.8047 0.60047 0.0
H4837 H 0.85178 0.82922 0.64962 0.0
H4838 H 0.82622 0.83241 0.66602 0.0
H4839 H 0.7426 0.78936 0.72316 0.0
H4840 H 0.74464 0.80123 0.69352 0.0
H4841 H 0.80202 0.81515 0.70574 0.0
H4842 H 0.79977 0.80084 0.73385 0.0
H4843 H 0.79772 0.80742 0.67358 0.0
H4844 H 0.76859 0.8459 0.70799 0.0
H4845 H 0.74549 0.85264 0.72646 0.0
H4846 H 0.70521 0.83039 0.68031 0.0
H4847 H 0.72803 0.82329 0.66164 0.0
C4848 C 0.79879 0.86316 0.61137 0.0
C4849 C 0.78717 0.85655 0.59488 0.0
C4850 C 0.79618 0.85539 0.62763 0.0
C4851 C 0.78159 0.8411 0.62795 0.0
C4852 C 0.76977 0.83463 0.61156 0.0
C4853 C 0.77266 0.84213 0.5951 0.0
C4854 C 0.77919 0.83258 0.64524 0.0
C4855 C 0.7655 0.83529 0.65551 0.0
C4856 C 0.79113 0.82276 0.65223 0.0
C4857 C 0.80642 0.82026 0.64253 0.0
C4858 C 0.80376 0.81232 0.624 0.0
C4859 C 0.81833 0.8107 0.61478 0.0
C4860 C 0.83562 0.81681 0.624 0.0
C4861 C 0.83838 0.8245 0.64249 0.0
C4862 C 0.82386 0.82621 0.65176 0.0
C4863 C 0.75561 0.79497 0.71941 0.0
C4864 C 0.77104 0.7946 0.73104 0.0
C4865 C 0.75683 0.80205 0.7025 0.0
C4866 C 0.77352 0.80989 0.69727 0.0
C4867 C 0.7889 0.80936 0.70907 0.0
C4868 C 0.78765 0.80139 0.7254 0.0
C4869 C 0.77515 0.81816 0.67944 0.0
C4870 C 0.78879 0.81547 0.66891 0.0
C4871 C 0.7636 0.82868 0.67267 0.0
C4872 C 0.74999 0.8338 0.68352 0.0
C4873 C 0.7548 0.84242 0.70179 0.0
C4874 C 0.74176 0.84628 0.7123 0.0
C4875 C 0.72389 0.84174 0.70462 0.0
C4876 C 0.71905 0.83374 0.68628 0.0
C4877 C 0.73203 0.82982 0.67572 0.0
H4878 H 0.7138 0.84437 0.71292 0.0
H4879 H 0.84688 0.81557 0.61683 0.0
H4880 H 0.74898 0.4673 0.49125 0.0
H4881 H 0.72306 0.47879 0.4981 0.0
H4882 H 0.70569 0.43434 0.52812 0.0
H4883 H 0.73072 0.42223 0.51993 0.0
H4884 H 0.67832 0.44253 0.51345 0.0
H4885 H 0.73166 0.47557 0.55073 0.0
H4886 H 0.76276 0.49302 0.55742 0.0
H4887 H 0.74943 0.5333 0.52637 0.0
H4888 H 0.71826 0.51604 0.51943 0.0
H4889 H 0.64 0.48888 0.58293 0.0
H4890 H 0.65715 0.47204 0.56485 0.0
H4891 H 0.6612 0.51018 0.52568 0.0
H4892 H 0.64384 0.52693 0.5436 0.0
H4893 H 0.69407 0.50519 0.54335 0.0
H4894 H 0.63778 0.46899 0.50963 0.0
H4895 H 0.60762 0.44963 0.50745 0.0
H4896 H 0.6284 0.41354 0.53926 0.0
H4897 H 0.65865 0.43269 0.54159 0.0
C4898 C 0.73913 0.45972 0.49861 0.0
C4899 C 0.74144 0.44389 0.5049 0.0
C4900 C 0.72455 0.46635 0.50276 0.0
C4901 C 0.71277 0.45764 0.51403 0.0
C4902 C 0.7146 0.44124 0.51936 0.0
C4903 C 0.72879 0.43429 0.51462 0.0
C4904 C 0.69937 0.4662 0.52142 0.0
C4905 C 0.68179 0.45621 0.52005 0.0
C4906 C 0.70396 0.48398 0.53023 0.0
C4907 C 0.72268 0.49443 0.5344 0.0
C4908 C 0.7354 0.4881 0.54524 0.0
C4909 C 0.75302 0.49797 0.54911 0.0
C4910 C 0.75808 0.51424 0.54227 0.0
C4911 C 0.7455 0.5207 0.53163 0.0
C4912 C 0.72785 0.5109 0.52777 0.0
C4913 C 0.64439 0.49348 0.57032 0.0
C4914 C 0.64092 0.50923 0.56469 0.0
C4915 C 0.65397 0.48381 0.55995 0.0
C4916 C 0.66028 0.4899 0.54397 0.0
C4917 C 0.65626 0.50528 0.53794 0.0
C4918 C 0.64645 0.51481 0.54816 0.0
C4919 C 0.67304 0.48161 0.53504 0.0
C4920 C 0.69059 0.49162 0.53641 0.0
C4921 C 0.6686 0.46364 0.52704 0.0
C4922 C 0.6504 0.45231 0.52588 0.0
C4923 C 0.63587 0.45699 0.51626 0.0
C4924 C 0.61878 0.44602 0.51495 0.0
C4925 C 0.61609 0.43039 0.52324 0.0
C4926 C 0.63049 0.42565 0.53283 0.0
C4927 C 0.64761 0.43652 0.53411 0.0
H4928 H 0.60285 0.42193 0.52222 0.0
H4929 H 0.77173 0.52185 0.54526 0.0
H4930 H 0.21036 0.15905 0.51498 0.0
H4931 H 0.18045 0.14175 0.51721 0.0
H4932 H 0.19962 0.09366 0.51457 0.0
H4933 H 0.2297 0.1109 0.51254 0.0
H4934 H 0.16746 0.08988 0.49194 0.0
H4935 H 0.19278 0.11229 0.55504 0.0
H4936 H 0.20699 0.13518 0.58132 0.0
H4937 H 0.16282 0.15991 0.57504 0.0
H4938 H 0.14847 0.13732 0.54851 0.0
H4939 H 0.09776 0.04031 0.54352 0.0
H4940 H 0.12713 0.05745 0.53898 0.0
H4941 H 0.10243 0.09124 0.50721 0.0
H4942 H 0.07306 0.07328 0.51016 0.0
H4943 H 0.13703 0.10195 0.54661 0.0
H4944 H 0.11469 0.08287 0.48003 0.0
H4945 H 0.10058 0.06018 0.45358 0.0
H4946 H 0.13961 0.03018 0.46604 0.0
H4947 H 0.15356 0.05245 0.49303 0.0
C4948 C 0.20822 0.14476 0.51467 0.0
C4949 C 0.22248 0.13638 0.51354 0.0
C4950 C 0.19111 0.13491 0.5161 0.0
C4951 C 0.18781 0.11643 0.51626 0.0
C4952 C 0.20186 0.10792 0.51455 0.0
C4953 C 0.21906 0.1178 0.51337 0.0
C4954 C 0.16971 0.10598 0.51824 0.0
C4955 C 0.16088 0.09249 0.50396 0.0
C4956 C 0.16094 0.10953 0.53378 0.0
C4957 C 0.16965 0.12322 0.54962 0.0
C4958 C 0.18619 0.12272 0.55912 0.0
C4959 C 0.19425 0.13562 0.57409 0.0
C4960 C 0.18585 0.14903 0.57981 0.0
C4961 C 0.16934 0.14954 0.57057 0.0
C4962 C 0.16124 0.13669 0.55557 0.0
C4963 C 0.0985 0.05096 0.53499 0.0
C4964 C 0.08292 0.05495 0.5267 0.0
C4965 C 0.11534 0.06089 0.53261 0.0
C4966 C 0.11696 0.07531 0.52232 0.0
C4967 C 0.1015 0.0798 0.51466 0.0
C4968 C 0.08469 0.06954 0.5165 0.0
C4969 C 0.13482 0.08609 0.52023 0.0
C4970 C 0.14362 0.0995 0.53457 0.0
C4971 C 0.1435 0.08269 0.50466 0.0
C4972 C 0.13479 0.06902 0.48888 0.0
C4973 C 0.11995 0.07119 0.47746 0.0
C4974 C 0.11205 0.05847 0.46229 0.0
C4975 C 0.11909 0.04366 0.45823 0.0
C4976 C 0.13406 0.04157 0.46931 0.0
C4977 C 0.14192 0.0542 0.48459 0.0
H4978 H 0.11303 0.03387 0.44641 0.0
H4979 H 0.1921 0.15899 0.59142 0.0
H4980 H 0.17427 0.9894 0.81518 0.0
H4981 H 0.18736 0.96321 0.81234 0.0
H4982 H 0.16813 0.95301 0.75394 0.0
H4983 H 0.15581 0.97947 0.75659 0.0
H4984 H 0.16282 0.92163 0.77418 0.0
H4985 H 0.20686 0.97182 0.76209 0.0
H4986 H 0.22601 1.00213 0.76909 0.0
H4987 H 0.25171 0.98779 0.81813 0.0
H4988 H 0.23242 0.95744 0.81159 0.0
H4989 H 0.2158 0.87192 0.72852 0.0
H4990 H 0.19805 0.89196 0.74029 0.0
H4991 H 0.23077 0.90165 0.79332 0.0
H4992 H 0.2486 0.88152 0.78145 0.0
H4993 H 0.22865 0.93224 0.78028 0.0
H4994 H 0.18518 0.88033 0.79011 0.0
H4995 H 0.16543 0.85038 0.7818 0.0
H4996 H 0.1393 0.86779 0.73498 0.0
H4997 H 0.15867 0.89796 0.74322 0.0
C4998 C 0.17272 0.9814 0.80183 0.0
C4999 C 0.16411 0.98636 0.78608 0.0
C5000 C 0.18018 0.96652 0.80021 0.0
C5001 C 0.17865 0.95619 0.78292 0.0
C5002 C 0.16938 0.96076 0.76739 0.0
C5003 C 0.16244 0.97588 0.7689 0.0
C5004 C 0.18762 0.94127 0.7806 0.0
C5005 C 0.17721 0.9239 0.77554 0.0
C5006 C 0.20637 0.94426 0.78256 0.0
C5007 C 0.21798 0.96246 0.78654 0.0
C5008 C 0.21642 0.97519 0.77451 0.0
C5009 C 0.22734 0.99236 0.77835 0.0
C5010 C 0.24001 0.99691 0.7941 0.0
C5011 C 0.24183 0.98426 0.80598 0.0
C5012 C 0.2309 0.96708 0.80222 0.0
C5013 C 0.21895 0.87807 0.7428 0.0
C5014 C 0.23358 0.87529 0.75409 0.0
C5015 C 0.20873 0.88942 0.74957 0.0
C5016 C 0.21299 0.89829 0.76775 0.0
C5017 C 0.22718 0.89492 0.77928 0.0
C5018 C 0.2373 0.88338 0.77255 0.0
C5019 C 0.20388 0.91244 0.77387 0.0
C5020 C 0.21427 0.92979 0.77944 0.0
C5021 C 0.1851 0.90944 0.77222 0.0
C5022 C 0.17344 0.89134 0.76721 0.0
C5023 C 0.17527 0.87774 0.778 0.0
C5024 C 0.16413 0.86073 0.77332 0.0
C5025 C 0.15123 0.85713 0.75778 0.0
C5026 C 0.14932 0.87058 0.74699 0.0
C5027 C 0.16029 0.88767 0.75173 0.0
H5028 H 0.14268 0.84392 0.75415 0.0
H5029 H 0.24846 0.01021 0.79705 0.0
H5030 H 0.34339 0.91704 0.01121 0.0
H5031 H 0.37421 0.93277 0.02187 0.0
H5032 H 0.36182 0.98214 0.00945 0.0
H5033 H 0.3311 0.96661 0.99856 0.0
H5034 H 0.38923 0.97359 0.9931 0.0
H5035 H 0.36975 0.97596 0.05332 0.0
H5036 H 0.35673 0.96452 0.08027 0.0
H5037 H 0.39605 0.93377 0.08716 0.0
H5038 H 0.40913 0.9448 0.06005 0.0
H5039 H 0.46938 0.03376 0.02799 0.0
H5040 H 0.438 0.01847 0.02539 0.0
H5041 H 0.4529 0.96963 0.03553 0.0
H5042 H 0.48425 0.98462 0.03752 0.0
H5043 H 0.42449 0.97727 0.05445 0.0
H5044 H 0.44028 0.97002 0.99233 0.0
H5045 H 0.4502 0.97659 0.9623 0.0
H5046 H 0.41714 0.01399 0.95829 0.0
H5047 H 0.40689 0.00748 0.9882 0.0
C5048 C 0.34728 0.93124 0.01067 0.0
C5049 C 0.33496 0.94064 0.00396 0.0
C5050 C 0.36472 0.94018 0.01706 0.0
C5051 C 0.36993 0.95855 0.01679 0.0
C5052 C 0.35776 0.96794 0.00995 0.0
C5053 C 0.34036 0.95903 0.00351 0.0
C5054 C 0.38863 0.96761 0.02114 0.0
C5055 C 0.39687 0.97475 0.00664 0.0
C5056 C 0.39853 0.96817 0.03857 0.0
C5057 C 0.39028 0.96105 0.05449 0.0
C5058 C 0.37546 0.96656 0.0604 0.0
C5059 C 0.36811 0.9602 0.07576 0.0
C5060 C 0.37552 0.94838 0.08539 0.0
C5061 C 0.39029 0.94289 0.07967 0.0
C5062 C 0.39768 0.9492 0.06431 0.0
C5063 C 0.46592 0.01985 0.03003 0.0
C5064 C 0.47907 0.01032 0.0331 0.0
C5065 C 0.44812 0.01119 0.02846 0.0
C5066 C 0.44343 0.99302 0.03008 0.0
C5067 C 0.4565 0.98371 0.03429 0.0
C5068 C 0.47432 0.99232 0.03565 0.0
C5069 C 0.42483 0.98359 0.0265 0.0
C5070 C 0.4167 0.97624 0.04103 0.0
C5071 C 0.41494 0.98261 0.00903 0.0
C5072 C 0.42304 0.98846 0.99259 0.0
C5073 C 0.43545 0.97993 0.98523 0.0
C5074 C 0.44097 0.9835 0.96814 0.0
C5075 C 0.43427 0.99568 0.95839 0.0
C5076 C 0.4223 1.00456 0.96585 0.0
C5077 C 0.41661 1.00091 0.98284 0.0
H5078 H 0.43825 0.99817 0.94499 0.0
H5079 H 0.36985 0.94353 0.09731 0.0
H5080 H 0.82868 0.55008 0.79538 0.0
H5081 H 0.82106 0.5777 0.78883 0.0
H5082 H 0.87107 0.60775 0.8191 0.0
H5083 H 0.87893 0.57994 0.82582 0.0
H5084 H 0.84095 0.6209 0.8267 0.0
H5085 H 0.86866 0.60518 0.77418 0.0
H5086 H 0.87502 0.58566 0.74822 0.0
H5087 H 0.82049 0.57503 0.72374 0.0
H5088 H 0.81373 0.5943 0.74962 0.0
H5089 H 0.81212 0.69096 0.77747 0.0
H5090 H 0.82941 0.67307 0.7941 0.0
H5091 H 0.78959 0.62548 0.77157 0.0
H5092 H 0.77248 0.64315 0.75489 0.0
H5093 H 0.8239 0.62751 0.76108 0.0
H5094 H 0.79484 0.63749 0.81567 0.0
H5095 H 0.78697 0.65437 0.84271 0.0
H5096 H 0.84233 0.67377 0.8637 0.0
H5097 H 0.85054 0.65719 0.83664 0.0
C5098 C 0.83801 0.56254 0.80085 0.0
C5099 C 0.85443 0.56291 0.81103 0.0
C5100 C 0.8337 0.57827 0.79695 0.0
C5101 C 0.84576 0.59459 0.80311 0.0
C5102 C 0.86178 0.59516 0.81408 0.0
C5103 C 0.86615 0.57933 0.818 0.0
C5104 C 0.84105 0.61091 0.79818 0.0
C5105 C 0.83765 0.62274 0.81237 0.0
C5106 C 0.83671 0.61299 0.77946 0.0
C5107 C 0.84069 0.6012 0.76391 0.0
C5108 C 0.85799 0.59859 0.76334 0.0
C5109 C 0.86167 0.58758 0.74861 0.0
C5110 C 0.84817 0.57911 0.73435 0.0
C5111 C 0.83095 0.58162 0.73478 0.0
C5112 C 0.8272 0.59262 0.74946 0.0
C5113 C 0.8069 0.67672 0.77653 0.0
C5114 C 0.79123 0.66825 0.76468 0.0
C5115 C 0.81671 0.6666 0.78605 0.0
C5116 C 0.81076 0.64804 0.78386 0.0
C5117 C 0.79436 0.63982 0.7733 0.0
C5118 C 0.78468 0.64985 0.76371 0.0
C5119 C 0.82266 0.63676 0.78959 0.0
C5120 C 0.82766 0.62605 0.77544 0.0
C5121 C 0.82825 0.63562 0.80831 0.0
C5122 C 0.82331 0.64644 0.82391 0.0
C5123 C 0.80534 0.64566 0.82584 0.0
C5124 C 0.80082 0.65508 0.84124 0.0
C5125 C 0.81414 0.66524 0.85485 0.0
C5126 C 0.83202 0.66599 0.8531 0.0
C5127 C 0.83662 0.6566 0.83773 0.0
H5128 H 0.8106 0.67245 0.86681 0.0
H5129 H 0.85105 0.57061 0.72296 0.0
H5130 H 0.82555 0.6462 0.06122 0.0
H5131 H 0.85227 0.63428 0.06327 0.0
H5132 H 0.84619 0.62299 0.00374 0.0
H5133 H 0.81972 0.63569 0.0016 0.0
H5134 H 0.84881 0.59311 0.02644 0.0
H5135 H 0.8793 0.65285 0.01981 0.0
H5136 H 0.88781 0.68551 0.02737 0.0
H5137 H 0.90819 0.68043 0.08284 0.0
H5138 H 0.89957 0.64774 0.07571 0.0
H5139 H 0.92383 0.55479 0.03693 0.0
H5140 H 0.90389 0.57256 0.02452 0.0
H5141 H 0.91335 0.60592 0.07717 0.0
H5142 H 0.93355 0.58861 0.08926 0.0
H5143 H 0.9102 0.62572 0.05233 0.0
H5144 H 0.87638 0.56935 0.06361 0.0
H5145 H 0.86554 0.53676 0.06073 0.0
H5146 H 0.84875 0.53515 0.0027 0.0
H5147 H 0.85978 0.56772 0.00517 0.0
C5148 C 0.83005 0.64138 0.04856 0.0
C5149 C 0.8206 0.64181 0.03125 0.0
C5150 C 0.84535 0.63466 0.04975 0.0
C5151 C 0.85126 0.62782 0.03367 0.0
C5152 C 0.84192 0.62834 0.01631 0.0
C5153 C 0.82685 0.63558 0.01509 0.0
C5154 C 0.86627 0.61884 0.03532 0.0
C5155 C 0.86237 0.60024 0.03164 0.0
C5156 C 0.88374 0.62814 0.04286 0.0
C5157 C 0.88866 0.64782 0.04725 0.0
C5158 C 0.88542 0.65868 0.03368 0.0
C5159 C 0.89031 0.67721 0.03787 0.0
C5160 C 0.8985 0.68504 0.05558 0.0
C5161 C 0.90183 0.67435 0.06913 0.0
C5162 C 0.89696 0.65582 0.06501 0.0
C5163 C 0.92193 0.56617 0.04565 0.0
C5164 C 0.93002 0.57015 0.06414 0.0
C5165 C 0.91039 0.57622 0.03863 0.0
C5166 C 0.9067 0.59038 0.05002 0.0
C5167 C 0.91577 0.59503 0.06808 0.0
C5168 C 0.92727 0.58505 0.07505 0.0
C5169 C 0.89275 0.59982 0.04376 0.0
C5170 C 0.89679 0.61853 0.04669 0.0
C5171 C 0.87519 0.59058 0.03618 0.0
C5172 C 0.8692 0.57093 0.0345 0.0
C5173 C 0.87062 0.56201 0.05018 0.0
C5174 C 0.86439 0.54355 0.04863 0.0
C5175 C 0.85654 0.53388 0.03152 0.0
C5176 C 0.85491 0.54265 0.01592 0.0
C5177 C 0.86117 0.56111 0.01738 0.0
H5178 H 0.85165 0.5196 0.03037 0.0
H5179 H 0.90231 0.69938 0.05879 0.0
H5180 H 0.18925 0.07463 0.78738 0.0
H5181 H 0.2074 0.10394 0.78499 0.0
H5182 H 0.17013 0.12856 0.8114 0.0
H5183 H 0.15147 0.0991 0.81331 0.0
H5184 H 0.17928 0.14467 0.78263 0.0
H5185 H 0.21145 0.12873 0.83465 0.0
H5186 H 0.22531 0.10839 0.85161 0.0
H5187 H 0.26218 0.1077 0.8118 0.0
H5188 H 0.24837 0.12788 0.79446 0.0
H5189 H 0.23864 0.23068 0.80229 0.0
H5190 H 0.21972 0.20176 0.80475 0.0
H5191 H 0.25003 0.17625 0.76902 0.0
H5192 H 0.26881 0.20542 0.76584 0.0
H5193 H 0.24433 0.1612 0.80332 0.0
H5194 H 0.20755 0.17247 0.74896 0.0
H5195 H 0.19059 0.18962 0.7306 0.0
H5196 H 0.16254 0.1997 0.77665 0.0
H5197 H 0.17883 0.18195 0.79499 0.0
C5198 C 0.18499 0.08624 0.79295 0.0
C5199 C 0.16893 0.08446 0.80068 0.0
C5200 C 0.19543 0.10305 0.79157 0.0
C5201 C 0.1903 0.11853 0.79823 0.0
C5202 C 0.1744 0.11683 0.80619 0.0
C5203 C 0.1638 0.09997 0.80739 0.0
C5204 C 0.2014 0.13639 0.79642 0.0
C5205 C 0.19344 0.14836 0.78746 0.0
C5206 C 0.21995 0.14121 0.8024 0.0
C5207 C 0.22883 0.12974 0.81321 0.0
C5208 C 0.2225 0.12422 0.8295 0.0
C5209 C 0.23034 0.11271 0.83917 0.0
C5210 C 0.2446 0.10673 0.83277 0.0
C5211 C 0.25113 0.11235 0.81675 0.0
C5212 C 0.24334 0.12386 0.80701 0.0
C5213 C 0.2413 0.219 0.79479 0.0
C5214 C 0.2554 0.22045 0.78393 0.0
C5215 C 0.23038 0.20244 0.7962 0.0
C5216 C 0.23338 0.18686 0.78698 0.0
C5217 C 0.24748 0.18814 0.77622 0.0
C5218 C 0.25827 0.20481 0.77452 0.0
C5219 C 0.22221 0.16928 0.78937 0.0
C5220 C 0.23015 0.15745 0.79857 0.0
C5221 C 0.20361 0.16468 0.78387 0.0
C5222 C 0.19454 0.17613 0.77337 0.0
C5223 C 0.19787 0.17849 0.75519 0.0
C5224 C 0.1883 0.1882 0.74476 0.0
C5225 C 0.17567 0.19595 0.75253 0.0
C5226 C 0.17239 0.19378 0.77068 0.0
C5227 C 0.18168 0.18377 0.78103 0.0
H5228 H 0.16834 0.20354 0.74445 0.0
H5229 H 0.2506 0.09776 0.84024 0.0
H5230 H 0.33923 0.97406 0.30912 0.0
H5231 H 0.32375 0.94312 0.30057 0.0
H5232 H 0.37375 0.92733 0.30708 0.0
H5233 H 0.38959 0.95862 0.31498 0.0
H5234 H 0.35275 0.91241 0.2745 0.0
H5235 H 0.34657 0.92007 0.33909 0.0
H5236 H 0.34026 0.93777 0.36645 0.0
H5237 H 0.28639 0.93144 0.34145 0.0
H5238 H 0.29247 0.91394 0.31377 0.0
H5239 H 0.3158 0.8212 0.27292 0.0
H5240 H 0.33161 0.85207 0.27709 0.0
H5241 H 0.28188 0.86822 0.27824 0.0
H5242 H 0.26593 0.83695 0.27544 0.0
H5243 H 0.30343 0.88333 0.30704 0.0
H5244 H 0.31006 0.87479 0.24204 0.0
H5245 H 0.31849 0.86187 0.213 0.0
H5246 H 0.37261 0.87104 0.23834 0.0
H5247 H 0.3645 0.88371 0.2676 0.0
C5248 C 0.34693 0.964 0.30913 0.0
C5249 C 0.36556 0.96859 0.31279 0.0
C5250 C 0.33808 0.94639 0.30418 0.0
C5251 C 0.3477 0.93314 0.30342 0.0
C5252 C 0.36625 0.93755 0.30765 0.0
C5253 C 0.37519 0.95528 0.31229 0.0
C5254 C 0.33818 0.91469 0.29773 0.0
C5255 C 0.34214 0.9058 0.28169 0.0
C5256 C 0.32415 0.90662 0.30705 0.0
C5257 C 0.31998 0.91568 0.32436 0.0
C5258 C 0.33335 0.92237 0.33947 0.0
C5259 C 0.32984 0.93243 0.355 0.0
C5260 C 0.31293 0.93573 0.35569 0.0
C5261 C 0.29947 0.92883 0.34091 0.0
C5262 C 0.30292 0.9188 0.32531 0.0
C5263 C 0.30814 0.83128 0.27357 0.0
C5264 C 0.2897 0.82685 0.27409 0.0
C5265 C 0.31721 0.84896 0.2758 0.0
C5266 C 0.30788 0.86239 0.27778 0.0
C5267 C 0.28926 0.85795 0.27675 0.0
C5268 C 0.28019 0.8402 0.27509 0.0
C5269 C 0.31779 0.88083 0.28345 0.0
C5270 C 0.31399 0.88977 0.29969 0.0
C5271 C 0.33208 0.88888 0.27434 0.0
C5272 C 0.33667 0.88029 0.257 0.0
C5273 C 0.32372 0.87388 0.24149 0.0
C5274 C 0.32845 0.86664 0.22497 0.0
C5275 C 0.34612 0.86587 0.22379 0.0
C5276 C 0.35898 0.87183 0.23924 0.0
C5277 C 0.35432 0.87903 0.25578 0.0
H5278 H 0.34992 0.8608 0.21088 0.0
H5279 H 0.31027 0.94363 0.36767 0.0
H5280 H 0.58769 0.35394 0.59793 0.0
H5281 H 0.58404 0.38357 0.59168 0.0
H5282 H 0.52721 0.36511 0.58808 0.0
H5283 H 0.53089 0.33571 0.59532 0.0
H5284 H 0.53971 0.38499 0.55725 0.0
H5285 H 0.54594 0.39196 0.62347 0.0
H5286 H 0.5596 0.39281 0.65556 0.0
H5287 H 0.60505 0.43208 0.64617 0.0
H5288 H 0.59182 0.43124 0.61389 0.0
H5289 H 0.51559 0.46829 0.54967 0.0
H5290 H 0.51896 0.43947 0.55805 0.0
H5291 H 0.57395 0.46246 0.57917 0.0
H5292 H 0.57048 0.4915 0.571 0.0
H5293 H 0.56245 0.44007 0.60145 0.0
H5294 H 0.55826 0.43273 0.53578 0.0
H5295 H 0.54557 0.43306 0.50357 0.0
H5296 H 0.49837 0.39513 0.5112 0.0
H5297 H 0.51067 0.39478 0.54358 0.0
C5298 C 0.57436 0.3561 0.59584 0.0
C5299 C 0.55961 0.34204 0.5971 0.0
C5300 C 0.57227 0.37325 0.59231 0.0
C5301 C 0.55529 0.37703 0.58928 0.0
C5302 C 0.54052 0.36293 0.5903 0.0
C5303 C 0.54265 0.34594 0.59447 0.0
C5304 C 0.55297 0.39536 0.58465 0.0
C5305 C 0.5445 0.39694 0.5671 0.0
C5306 C 0.55961 0.41145 0.59701 0.0
C5307 C 0.568 0.4113 0.61612 0.0
C5308 C 0.55899 0.40053 0.62811 0.0
C5309 C 0.56662 0.40108 0.64638 0.0
C5310 C 0.58322 0.41243 0.65288 0.0
C5311 C 0.59223 0.42324 0.64111 0.0
C5312 C 0.58468 0.42272 0.62282 0.0
C5313 C 0.52845 0.46738 0.55606 0.0
C5314 C 0.54271 0.48268 0.55938 0.0
C5315 C 0.53046 0.45058 0.56081 0.0
C5316 C 0.54687 0.44811 0.56912 0.0
C5317 C 0.56108 0.46347 0.57276 0.0
C5318 C 0.55908 0.48029 0.56792 0.0
C5319 C 0.54917 0.42976 0.57398 0.0
C5320 C 0.55767 0.42815 0.59156 0.0
C5321 C 0.54281 0.41365 0.56156 0.0
C5322 C 0.5353 0.41389 0.54217 0.0
C5323 C 0.5451 0.42458 0.53064 0.0
C5324 C 0.53799 0.42476 0.51235 0.0
C5325 C 0.52115 0.41417 0.50536 0.0
C5326 C 0.51139 0.40336 0.51665 0.0
C5327 C 0.51843 0.40316 0.53497 0.0
H5328 H 0.51567 0.41431 0.49119 0.0
H5329 H 0.58905 0.41291 0.66705 0.0
H5330 H 0.43836 0.78139 0.41894 0.0
H5331 H 0.40993 0.78126 0.40085 0.0
H5332 H 0.42596 0.75437 0.35318 0.0
H5333 H 0.45479 0.75561 0.37105 0.0
H5334 H 0.41244 0.77723 0.34115 0.0
H5335 H 0.39002 0.73552 0.38251 0.0
H5336 H 0.38367 0.72396 0.41188 0.0
H5337 H 0.35835 0.76647 0.42606 0.0
H5338 H 0.36473 0.7784 0.39691 0.0
H5339 H 0.32493 0.75397 0.28746 0.0
H5340 H 0.35231 0.75233 0.30665 0.0
H5341 H 0.34525 0.79408 0.34663 0.0
H5342 H 0.31879 0.79663 0.32685 0.0
H5343 H 0.35308 0.76342 0.36264 0.0
H5344 H 0.37583 0.80512 0.32227 0.0
H5345 H 0.3808 0.8164 0.29251 0.0
H5346 H 0.40462 0.77318 0.27658 0.0
H5347 H 0.39956 0.7615 0.30617 0.0
C5348 C 0.43568 0.77526 0.40464 0.0
C5349 C 0.44882 0.76844 0.39646 0.0
C5350 C 0.41927 0.77504 0.39426 0.0
C5351 C 0.41531 0.76758 0.37545 0.0
C5352 C 0.4284 0.76032 0.36752 0.0
C5353 C 0.44494 0.76092 0.37779 0.0
C5354 C 0.39831 0.76842 0.36364 0.0
C5355 C 0.39949 0.77378 0.34588 0.0
C5356 C 0.38116 0.76468 0.36968 0.0
C5357 C 0.37808 0.75798 0.38762 0.0
C5358 C 0.38332 0.74254 0.392 0.0
C5359 C 0.37965 0.73588 0.40859 0.0
C5360 C 0.37067 0.74451 0.42085 0.0
C5361 C 0.36535 0.75983 0.41658 0.0
C5362 C 0.36899 0.76654 0.40003 0.0
C5363 C 0.3293 0.76293 0.30024 0.0
C5364 C 0.31923 0.77509 0.30583 0.0
C5365 C 0.34493 0.7619 0.31129 0.0
C5366 C 0.35085 0.77291 0.32832 0.0
C5367 C 0.34088 0.78516 0.33381 0.0
C5368 C 0.32549 0.78641 0.32259 0.0
C5369 C 0.36743 0.7718 0.34032 0.0
C5370 C 0.36612 0.76657 0.35804 0.0
C5371 C 0.38444 0.77559 0.3343 0.0
C5372 C 0.3871 0.7823 0.31632 0.0
C5373 C 0.38191 0.79789 0.31232 0.0
C5374 C 0.3848 0.80439 0.29551 0.0
C5375 C 0.39296 0.79548 0.28263 0.0
C5376 C 0.39825 0.78004 0.28654 0.0
C5377 C 0.39538 0.77348 0.30333 0.0
H5378 H 0.39523 0.80056 0.26965 0.0
H5379 H 0.36778 0.7393 0.43364 0.0
H5380 H 0.06809 0.74117 0.08452 0.0
H5381 H 0.06761 0.70936 0.07825 0.0
H5382 H 0.019 0.69625 0.10275 0.0
H5383 H 0.01999 0.7279 0.10974 0.0
H5384 H 0.0369 0.67506 0.11361 0.0
H5385 H 0.02367 0.68958 0.05176 0.0
H5386 H 0.02966 0.70712 0.0259 0.0
H5387 H 0.07994 0.69294 0.02425 0.0
H5388 H 0.07429 0.67544 0.05022 0.0
H5389 H 0.01379 0.58126 0.08203 0.0
H5390 H 0.0155 0.61308 0.08857 0.0
H5391 H 0.0631 0.62447 0.06216 0.0
H5392 H 0.06039 0.59273 0.05424 0.0
H5393 H 0.04676 0.64674 0.05301 0.0
H5394 H 0.05954 0.6309 0.11386 0.0
H5395 H 0.05404 0.61385 0.14016 0.0
H5396 H 1.00536 0.63066 0.14445 0.0
H5397 H 0.01046 0.64764 0.11803 0.0
C5398 C 0.05704 0.73152 0.08813 0.0
C5399 C 0.04388 0.7374 0.09732 0.0
C5400 C 0.05677 0.71311 0.08458 0.0
C5401 C 0.04308 0.69981 0.08968 0.0
C5402 C 0.02981 0.70579 0.09857 0.0
C5403 C 0.03027 0.7241 0.10238 0.0
C5404 C 0.04252 0.67984 0.08611 0.0
C5405 C 0.03885 0.66893 0.10023 0.0
C5406 C 0.04549 0.67135 0.06894 0.0
C5407 C 0.04862 0.68133 0.05297 0.0
C5408 C 0.036 0.69022 0.04587 0.0
C5409 C 0.03934 0.70017 0.03122 0.0
C5410 C 0.05519 0.70117 0.02347 0.0
C5411 C 0.06768 0.69215 0.03028 0.0
C5412 C 0.0644 0.6822 0.04494 0.0
C5413 C 0.02476 0.59045 0.07766 0.0
C5414 C 0.03733 0.5839 0.06794 0.0
C5415 C 0.02584 0.60893 0.08164 0.0
C5416 C 0.03976 0.62181 0.07644 0.0
C5417 C 0.05224 0.61526 0.06666 0.0
C5418 C 0.05092 0.5968 0.06239 0.0
C5419 C 0.04104 0.64187 0.08046 0.0
C5420 C 0.04484 0.65282 0.06643 0.0
C5421 C 0.03825 0.65037 0.09776 0.0
C5422 C 0.03532 0.64042 0.11385 0.0
C5423 C 0.04763 0.6309 0.12036 0.0
C5424 C 0.04458 0.62125 0.13529 0.0
C5425 C 0.02934 0.62114 0.14394 0.0
C5426 C 0.01715 0.63074 0.13773 0.0
C5427 C 0.02013 0.6404 0.12279 0.0
H5428 H 0.02699 0.61364 0.15548 0.0
H5429 H 0.05778 0.70892 0.01216 0.0
H5430 H 0.05494 0.23397 0.90557 0.0
H5431 H 0.08324 0.23665 0.89259 0.0
H5432 H 0.08387 0.29108 0.88527 0.0
H5433 H 0.05595 0.2887 0.89909 0.0
H5434 H 0.08613 0.26406 0.85168 0.0
H5435 H 0.11312 0.28898 0.9142 0.0
H5436 H 0.12065 0.28977 0.94787 0.0
H5437 H 0.14139 0.2432 0.93867 0.0
H5438 H 0.13377 0.242 0.90493 0.0
H5439 H 0.16808 0.29888 0.8201 0.0
H5440 H 0.14055 0.29141 0.83401 0.0
H5441 H 0.1583 0.24852 0.85726 0.0
H5442 H 0.18611 0.25621 0.84332 0.0
H5443 H 0.14644 0.26659 0.88314 0.0
H5444 H 0.12079 0.24035 0.82251 0.0
H5445 H 0.11317 0.23691 0.78858 0.0
H5446 H 0.08926 0.28173 0.79357 0.0
H5447 H 0.09685 0.28551 0.82753 0.0
C5448 C 0.0612 0.24657 0.90135 0.0
C5449 C 0.05311 0.26109 0.90321 0.0
C5450 C 0.07746 0.24811 0.89405 0.0
C5451 C 0.08579 0.26408 0.88798 0.0
C5452 C 0.07781 0.27866 0.88998 0.0
C5453 C 0.06182 0.27729 0.89784 0.0
C5454 C 0.10176 0.265 0.87788 0.0
C5455 C 0.09938 0.26487 0.8586 0.0
C5456 C 0.1189 0.26508 0.88672 0.0
C5457 C 0.12256 0.26522 0.90703 0.0
C5458 C 0.11896 0.27871 0.91935 0.0
C5459 C 0.12336 0.2793 0.93846 0.0
C5460 C 0.13141 0.26649 0.94541 0.0
C5461 C 0.13508 0.25307 0.93328 0.0
C5462 C 0.13073 0.25243 0.91416 0.0
C5463 C 0.16591 0.28756 0.82778 0.0
C5464 C 0.1792 0.27803 0.83043 0.0
C5465 C 0.15009 0.28324 0.83575 0.0
C5466 C 0.14707 0.26927 0.8467 0.0
C5467 C 0.16016 0.25934 0.84889 0.0
C5468 C 0.17599 0.26361 0.84076 0.0
C5469 C 0.13095 0.26612 0.85685 0.0
C5470 C 0.13322 0.2657 0.87613 0.0
C5471 C 0.11357 0.26511 0.84798 0.0
C5472 C 0.10955 0.26332 0.82754 0.0
C5473 C 0.11409 0.24959 0.81635 0.0
C5474 C 0.10971 0.24754 0.79712 0.0
C5475 C 0.10078 0.25913 0.78892 0.0
C5476 C 0.0962 0.27278 0.79993 0.0
C5477 C 0.10051 0.27487 0.81917 0.0
H5478 H 0.09737 0.25749 0.77403 0.0
H5479 H 0.13487 0.26702 0.9602 0.0
H5480 H 0.52013 0.7409 0.9016 0.0
H5481 H 0.5178 0.71277 0.91466 0.0
H5482 H 0.5699 0.73298 0.94568 0.0
H5483 H 0.57233 0.76106 0.93262 0.0
H5484 H 0.56651 0.69899 0.93156 0.0
H5485 H 0.53142 0.73081 0.96587 0.0
H5486 H 0.50781 0.74674 0.97094 0.0
H5487 H 0.46809 0.70057 0.94541 0.0
H5488 H 0.4915 0.68447 0.93988 0.0
H5489 H 0.55687 0.64118 0.00421 0.0
H5490 H 0.56264 0.66481 0.98413 0.0
H5491 H 0.51259 0.64105 0.95029 0.0
H5492 H 0.50692 0.61746 0.9703 0.0
H5493 H 0.51512 0.67575 0.96419 0.0
H5494 H 0.55026 0.64309 0.93198 0.0
H5495 H 0.57392 0.62727 0.92686 0.0
H5496 H 0.61372 0.6746 0.94887 0.0
H5497 H 0.5903 0.69066 0.95444 0.0
C5498 C 0.53108 0.73941 0.91124 0.0
C5499 C 0.54636 0.75343 0.91613 0.0
C5500 C 0.52973 0.72325 0.91875 0.0
C5501 C 0.54361 0.72063 0.93137 0.0
C5502 C 0.55897 0.73452 0.93602 0.0
C5503 C 0.56029 0.75069 0.9286 0.0
C5504 C 0.542 0.70363 0.94001 0.0
C5505 C 0.55537 0.69403 0.93889 0.0
C5506 C 0.52729 0.69675 0.94925 0.0
C5507 C 0.51323 0.70653 0.95222 0.0
C5508 C 0.51767 0.72413 0.96113 0.0
C5509 C 0.50432 0.73318 0.96412 0.0
C5510 C 0.48647 0.7247 0.95844 0.0
C5511 C 0.48193 0.70714 0.94975 0.0
C5512 C 0.49523 0.69806 0.94667 0.0
C5513 C 0.54748 0.64063 0.99204 0.0
C5514 C 0.53156 0.62732 0.98868 0.0
C5515 C 0.55073 0.6542 0.98058 0.0
C5516 C 0.53804 0.65485 0.96563 0.0
C5517 C 0.52261 0.64094 0.96169 0.0
C5518 C 0.51942 0.62736 0.97306 0.0
C5519 C 0.5396 0.67108 0.95577 0.0
C5520 C 0.52623 0.68061 0.95676 0.0
C5521 C 0.55434 0.67786 0.94653 0.0
C5522 C 0.56847 0.66803 0.94389 0.0
C5523 C 0.56404 0.65007 0.93602 0.0
C5524 C 0.57742 0.64107 0.93296 0.0
C5525 C 0.59531 0.6499 0.9376 0.0
C5526 C 0.59985 0.66776 0.94533 0.0
C5527 C 0.58653 0.67682 0.94845 0.0
H5528 H 0.60564 0.64293 0.93516 0.0
H5529 H 0.47615 0.73171 0.96082 0.0
H5530 H 0.07628 0.7582 0.69037 0.0
H5531 H 0.10766 0.75939 0.69828 0.0
H5532 H 0.10123 0.76293 0.75615 0.0
H5533 H 0.06913 0.76162 0.74819 0.0
H5534 H 0.13293 0.7865 0.75023 0.0
H5535 H 0.10669 0.72393 0.73084 0.0
H5536 H 0.08913 0.69781 0.70966 0.0
H5537 H 0.12275 0.71133 0.66775 0.0
H5538 H 0.14036 0.73768 0.68857 0.0
H5539 H 0.21724 0.76467 0.77951 0.0
H5540 H 0.18525 0.76345 0.77272 0.0
H5541 H 0.19125 0.7677 0.71545 0.0
H5542 H 0.22342 0.76981 0.72237 0.0
H5543 H 0.15998 0.74014 0.72116 0.0
H5544 H 0.18451 0.80152 0.73586 0.0
H5545 H 0.20299 0.82935 0.75348 0.0
H5546 H 0.17369 0.8205 0.79963 0.0
H5547 H 0.15512 0.79248 0.78234 0.0
C5548 C 0.0813 0.75925 0.70491 0.0
C5549 C 0.06964 0.75985 0.71856 0.0
C5550 C 0.09954 0.75982 0.70942 0.0
C5551 C 0.10733 0.76109 0.72789 0.0
C5552 C 0.09588 0.7619 0.74172 0.0
C5553 C 0.07734 0.76108 0.73715 0.0
C5554 C 0.12725 0.76161 0.73236 0.0
C5555 C 0.13865 0.77608 0.74415 0.0
C5556 C 0.13543 0.74867 0.72382 0.0
C5557 C 0.12475 0.73289 0.71124 0.0
C5558 C 0.11025 0.72143 0.71706 0.0
C5559 C 0.1003 0.70656 0.70512 0.0
C5560 C 0.1048 0.70293 0.68736 0.0
C5561 C 0.11927 0.71416 0.6815 0.0
C5562 C 0.12924 0.72906 0.69337 0.0
C5563 C 0.21182 0.76533 0.76544 0.0
C5564 C 0.22323 0.76737 0.75156 0.0
C5565 C 0.19337 0.76469 0.76154 0.0
C5566 C 0.18541 0.76548 0.74349 0.0
C5567 C 0.19672 0.76705 0.72951 0.0
C5568 C 0.21528 0.76829 0.73352 0.0
C5569 C 0.16548 0.76476 0.73934 0.0
C5570 C 0.15417 0.75038 0.72746 0.0
C5571 C 0.15746 0.77801 0.74734 0.0
C5572 C 0.16863 0.79472 0.75793 0.0
C5573 C 0.18215 0.80538 0.74987 0.0
C5574 C 0.19261 0.82122 0.75976 0.0
C5575 C 0.18962 0.82661 0.77772 0.0
C5576 C 0.17607 0.81623 0.78576 0.0
C5577 C 0.16555 0.80038 0.77591 0.0
H5578 H 0.19769 0.83889 0.78535 0.0
H5579 H 0.0971 0.6914 0.67815 0.0
H5580 H 0.03934 0.34741 0.44918 0.0
H5581 H 0.04059 0.37624 0.46683 0.0
H5582 H 0.03784 0.39973 0.41601 0.0
H5583 H 0.03822 0.37108 0.39851 0.0
H5584 H 0.05632 0.42414 0.43997 0.0
H5585 H 0.99962 0.38568 0.44205 0.0
H5586 H 0.97941 0.35771 0.44694 0.0
H5587 H 1.0018 0.36529 0.50414 0.0
H5588 H 0.02225 0.39322 0.49953 0.0
H5589 H 0.03191 0.50001 0.48589 0.0
H5590 H 0.03279 0.47337 0.46566 0.0
H5591 H 0.03704 0.44529 0.51317 0.0
H5592 H 0.03492 0.47149 0.53319 0.0
H5593 H 0.01624 0.42379 0.48853 0.0
H5594 H 0.07421 0.46311 0.4841 0.0
H5595 H 0.09269 0.49119 0.47726 0.0
H5596 H 0.06493 0.4828 0.42217 0.0
H5597 H 0.04623 0.45456 0.42863 0.0
C5598 C 0.03922 0.35878 0.44179 0.0
C5599 C 0.0386 0.35688 0.42242 0.0
C5600 C 0.03971 0.37532 0.4519 0.0
C5601 C 0.03859 0.39034 0.44289 0.0
C5602 C 0.03856 0.38854 0.4235 0.0
C5603 C 0.03875 0.37209 0.41344 0.0
C5604 C 0.03696 0.40755 0.45366 0.0
C5605 C 0.0474 0.42399 0.45045 0.0
C5606 C 0.02532 0.40781 0.4674 0.0
C5607 C 0.01251 0.39147 0.47042 0.0
C5608 C 1.00021 0.38137 0.45567 0.0
C5609 C 0.98874 0.36552 0.45838 0.0
C5610 C 0.98934 0.35971 0.47583 0.0
C5611 C 1.00134 0.36981 0.49063 0.0
C5612 C 0.01284 0.38567 0.48799 0.0
C5613 C 0.03304 0.4882 0.49214 0.0
C5614 C 0.03316 0.48813 0.51145 0.0
C5615 C 0.03376 0.47286 0.48044 0.0
C5616 C 0.03535 0.45706 0.48766 0.0
C5617 C 0.03578 0.4571 0.50696 0.0
C5618 C 0.03461 0.47228 0.51858 0.0
C5619 C 0.03608 0.44034 0.47538 0.0
C5620 C 0.02526 0.42396 0.47815 0.0
C5621 C 0.04709 0.44024 0.461 0.0
C5622 C 0.05878 0.4568 0.45689 0.0
C5623 C 0.07207 0.46725 0.47052 0.0
C5624 C 0.08257 0.48321 0.46672 0.0
C5625 C 0.07997 0.48886 0.44935 0.0
C5626 C 0.06694 0.47843 0.43563 0.0
C5627 C 0.05642 0.46241 0.43933 0.0
H5628 H 0.08807 0.50129 0.44651 0.0
H5629 H 0.98051 0.34739 0.47789 0.0
H5630 H 0.46394 0.23242 0.2461 0.0
H5631 H 0.43469 0.2359 0.25323 0.0
H5632 H 0.42932 0.26347 0.20556 0.0
H5633 H 0.45902 0.26075 0.19903 0.0
H5634 H 0.41401 0.27845 0.2273 0.0
H5635 H 0.4046 0.21589 0.21217 0.0
H5636 H 0.40831 0.18526 0.21307 0.0
H5637 H 0.39925 0.18813 0.27009 0.0
H5638 H 0.39571 0.21887 0.2696 0.0
H5639 H 0.3174 0.26618 0.22849 0.0
H5640 H 0.34697 0.26359 0.22067 0.0
H5641 H 0.36229 0.25606 0.27694 0.0
H5642 H 0.3331 0.25956 0.28495 0.0
H5643 H 0.37138 0.23045 0.2498 0.0
H5644 H 0.38416 0.29493 0.26395 0.0
H5645 H 0.38066 0.32535 0.26131 0.0
H5646 H 0.38023 0.31632 0.20238 0.0
H5647 H 0.38461 0.28605 0.20482 0.0
C5648 C 0.45662 0.23929 0.23709 0.0
C5649 C 0.46432 0.24628 0.22191 0.0
C5650 C 0.43949 0.24111 0.24108 0.0
C5651 C 0.42886 0.24966 0.22984 0.0
C5652 C 0.43668 0.25678 0.21473 0.0
C5653 C 0.45392 0.25517 0.21091 0.0
C5654 C 0.41009 0.25159 0.234 0.0
C5655 C 0.40476 0.26765 0.23189 0.0
C5656 C 0.39733 0.23797 0.24034 0.0
C5657 C 0.40014 0.21977 0.24091 0.0
C5658 C 0.40362 0.21007 0.22497 0.0
C5659 C 0.40564 0.19267 0.22539 0.0
C5660 C 0.40409 0.18478 0.24165 0.0
C5661 C 0.40051 0.19428 0.25752 0.0
C5662 C 0.3985 0.21169 0.25718 0.0
C5663 C 0.32705 0.264 0.23926 0.0
C5664 C 0.32252 0.26298 0.25742 0.0
C5665 C 0.34416 0.26259 0.23476 0.0
C5666 C 0.35735 0.25955 0.24809 0.0
C5667 C 0.35272 0.25838 0.26619 0.0
C5668 C 0.33585 0.2604 0.27082 0.0
C5669 C 0.37564 0.2572 0.24318 0.0
C5670 C 0.38076 0.24108 0.24511 0.0
C5671 C 0.38802 0.27053 0.23626 0.0
C5672 C 0.38443 0.28821 0.23454 0.0
C5673 C 0.38314 0.29939 0.25042 0.0
C5674 C 0.38112 0.31663 0.24897 0.0
C5675 C 0.3799 0.32268 0.23166 0.0
C5676 C 0.38103 0.31158 0.21577 0.0
C5677 C 0.38346 0.29444 0.21719 0.0
H5678 H 0.37821 0.33602 0.23058 0.0
H5679 H 0.4056 0.17129 0.24192 0.0
H5680 H 0.58172 0.51422 0.3441 0.0
H5681 H 0.57222 0.51173 0.37485 0.0
H5682 H 0.6224 0.54602 0.39996 0.0
H5683 H 0.63221 0.5476 0.36915 0.0
H5684 H 0.61337 0.52368 0.42272 0.0
H5685 H 0.582 0.56116 0.39312 0.0
H5686 H 0.56384 0.5702 0.3678 0.0
H5687 H 0.52053 0.52596 0.37117 0.0
H5688 H 0.53852 0.51656 0.39641 0.0
H5689 H 0.57311 0.55572 0.50236 0.0
H5690 H 0.58466 0.55469 0.47256 0.0
H5691 H 0.55342 0.50109 0.45714 0.0
H5692 H 0.54295 0.50145 0.48773 0.0
H5693 H 0.55343 0.53357 0.43056 0.0
H5694 H 0.58829 0.49789 0.46296 0.0
H5695 H 0.60768 0.49377 0.49024 0.0
H5696 H 0.64622 0.54085 0.48353 0.0
H5697 H 0.62688 0.54544 0.45639 0.0
C5698 C 0.59077 0.52104 0.35621 0.0
C5699 C 0.60769 0.5311 0.35418 0.0
C5700 C 0.58529 0.51977 0.37387 0.0
C5701 C 0.59632 0.52905 0.39002 0.0
C5702 C 0.61349 0.53872 0.38795 0.0
C5703 C 0.61911 0.53967 0.37028 0.0
C5704 C 0.58965 0.52914 0.40878 0.0
C5705 C 0.60028 0.52593 0.42431 0.0
C5706 C 0.57266 0.53229 0.41138 0.0
C5707 C 0.56164 0.53808 0.39653 0.0
C5708 C 0.56861 0.55333 0.38841 0.0
C5709 C 0.55836 0.55852 0.37408 0.0
C5710 C 0.54106 0.54863 0.36785 0.0
C5711 C 0.53394 0.53359 0.37601 0.0
C5712 C 0.54414 0.52835 0.39035 0.0
C5713 C 0.5691 0.54346 0.49299 0.0
C5714 C 0.55733 0.52853 0.49785 0.0
C5715 C 0.57553 0.54301 0.47573 0.0
C5716 C 0.57003 0.5278 0.46255 0.0
C5717 C 0.55793 0.513 0.46706 0.0
C5718 C 0.55184 0.51327 0.48457 0.0
C5719 C 0.57686 0.52753 0.44408 0.0
C5720 C 0.56638 0.53105 0.42875 0.0
C5721 C 0.59414 0.52518 0.44185 0.0
C5722 C 0.60605 0.52211 0.45776 0.0
C5723 C 0.60083 0.50745 0.46739 0.0
C5724 C 0.61182 0.50502 0.48281 0.0
C5725 C 0.62815 0.51707 0.48865 0.0
C5726 C 0.63356 0.53154 0.479 0.0
C5727 C 0.62259 0.53405 0.46359 0.0
H5728 H 0.63661 0.51519 0.50061 0.0
H5729 H 0.53315 0.55264 0.35673 0.0
H5730 H 0.2547 0.90718 0.05939 0.0
H5731 H 0.25695 0.89261 0.08765 0.0
H5732 H 0.30485 0.87829 0.07285 0.0
H5733 H 0.30258 0.89276 0.04482 0.0
H5734 H 0.27707 0.84964 0.07855 0.0
H5735 H 0.31113 0.90716 0.10818 0.0
H5736 H 0.31569 0.93966 0.11572 0.0
H5737 H 0.26855 0.93207 0.14274 0.0
H5738 H 0.26369 0.89949 0.13526 0.0
H5739 H 0.3197 0.81987 0.1529 0.0
H5740 H 0.30834 0.83274 0.12677 0.0
H5741 H 0.2701 0.85 0.15881 0.0
H5742 H 0.28244 0.83811 0.18568 0.0
H5743 H 0.28726 0.87651 0.14435 0.0
H5744 H 0.25665 0.81649 0.11667 0.0
H5745 H 0.25353 0.78453 0.10645 0.0
H5746 H 0.29649 0.79727 0.07392 0.0
H5747 H 0.29982 0.82925 0.0839 0.0
C5748 C 0.26575 0.90109 0.06248 0.0
C5749 C 0.27838 0.90073 0.05022 0.0
C5750 C 0.26708 0.8929 0.07848 0.0
C5751 C 0.281 0.88439 0.08208 0.0
C5752 C 0.29399 0.88475 0.07012 0.0
C5753 C 0.29269 0.89293 0.05424 0.0
C5754 C 0.28131 0.87373 0.09741 0.0
C5755 C 0.2793 0.85541 0.09299 0.0
C5756 C 0.28382 0.88143 0.11603 0.0
C5757 C 0.28699 0.90093 0.12109 0.0
C5758 C 0.30172 0.91244 0.1157 0.0
C5759 C 0.30437 0.93086 0.11997 0.0
C5760 C 0.2924 0.93793 0.12968 0.0
C5761 C 0.27782 0.92657 0.13523 0.0
C5762 C 0.27513 0.90813 0.13103 0.0
C5763 C 0.30878 0.8263 0.15435 0.0
C5764 C 0.30221 0.82835 0.1714 0.0
C5765 C 0.30203 0.83335 0.13926 0.0
C5766 C 0.28817 0.84214 0.1407 0.0
C5767 C 0.28076 0.84321 0.15739 0.0
C5768 C 0.28774 0.83634 0.17267 0.0
C5769 C 0.2833 0.85213 0.12563 0.0
C5770 C 0.28449 0.87048 0.13001 0.0
C5771 C 0.28031 0.84447 0.10684 0.0
C5772 C 0.27851 0.82523 0.10111 0.0
C5773 C 0.26549 0.81244 0.10743 0.0
C5774 C 0.26365 0.79434 0.10163 0.0
C5775 C 0.27482 0.78888 0.08957 0.0
C5776 C 0.28782 0.80151 0.08324 0.0
C5777 C 0.28964 0.81962 0.0889 0.0
H5778 H 0.27338 0.77486 0.08511 0.0
H5779 H 0.29443 0.9522 0.13292 0.0
H5780 H 0.89637 0.52742 0.88309 0.0
H5781 H 0.90941 0.52443 0.91426 0.0
H5782 H 0.96149 0.53304 0.89617 0.0
H5783 H 0.94855 0.53564 0.86511 0.0
H5784 H 0.95314 0.50312 0.91451 0.0
H5785 H 0.94709 0.56593 0.92025 0.0
H5786 H 0.92831 0.58773 0.91993 0.0
H5787 H 0.90014 0.56347 0.96174 0.0
H5788 H 0.91859 0.54136 0.96207 0.0
H5789 H 0.02206 0.52293 0.98582 0.0
H5790 H 1.00168 0.52331 0.95872 0.0
H5791 H 0.96313 0.53492 0.99395 0.0
H5792 H 0.98542 0.53969 0.02047 0.0
H5793 H 0.95732 0.54854 0.96853 0.0
H5794 H 0.96568 0.48881 0.96819 0.0
H5795 H 0.98386 0.46651 0.96962 0.0
H5796 H 1.0045 0.48091 0.91968 0.0
H5797 H 0.98665 0.50341 0.91806 0.0
C5798 C 0.91065 0.52913 0.886 0.0
C5799 C 0.92158 0.53186 0.87194 0.0
C5800 C 0.91798 0.52718 0.90362 0.0
C5801 C 0.93629 0.52828 0.90723 0.0
C5802 C 0.94727 0.53187 0.89341 0.0
C5803 C 0.93995 0.53361 0.87584 0.0
C5804 C 0.94449 0.52613 0.92545 0.0
C5805 C 0.95399 0.51283 0.92654 0.0
C5806 C 0.94482 0.53837 0.9411 0.0
C5807 C 0.93406 0.55191 0.94104 0.0
C5808 C 0.93682 0.5652 0.92929 0.0
C5809 C 0.92624 0.57761 0.92911 0.0
C5810 C 0.91301 0.57696 0.94077 0.0
C5811 C 0.91037 0.56394 0.95269 0.0
C5812 C 0.92087 0.55147 0.95287 0.0
C5813 C 0.00956 0.52628 0.98777 0.0
C5814 C 1.00528 0.53093 0.00545 0.0
C5815 C 0.99754 0.52579 0.97221 0.0
C5816 C 0.9803 0.52793 0.97417 0.0
C5817 C 0.97619 0.53293 0.99186 0.0
C5818 C 0.9889 0.53532 0.00718 0.0
C5819 C 0.96678 0.52572 0.95785 0.0
C5820 C 0.95613 0.53817 0.95705 0.0
C5821 C 0.96497 0.51222 0.9427 0.0
C5822 C 0.97477 0.49779 0.943 0.0
C5823 C 0.974 0.48714 0.95746 0.0
C5824 C 0.98431 0.47451 0.95833 0.0
C5825 C 0.99531 0.47229 0.94475 0.0
C5826 C 0.99594 0.4826 0.93017 0.0
C5827 C 0.98568 0.49525 0.92923 0.0
H5828 H 1.00336 0.46258 0.94552 0.0
H5829 H 0.90482 0.58657 0.9406 0.0
H5830 H 0.25387 0.18239 0.57449 0.0
H5831 H 0.25415 0.19333 0.60714 0.0
H5832 H 0.30739 0.22517 0.60843 0.0
H5833 H 0.30709 0.214 0.57554 0.0
H5834 H 0.30359 0.20778 0.63988 0.0
H5835 H 0.27123 0.24417 0.60661 0.0
H5836 H 0.24755 0.24796 0.58328 0.0
H5837 H 0.20788 0.21804 0.61185 0.0
H5838 H 0.23136 0.21388 0.63523 0.0
H5839 H 0.30769 0.26342 0.72502 0.0
H5840 H 0.30804 0.25073 0.69307 0.0
H5841 H 0.25268 0.22414 0.68976 0.0
H5842 H 0.2524 0.23662 0.72172 0.0
H5843 H 0.25718 0.23797 0.65925 0.0
H5844 H 0.28656 0.20133 0.69224 0.0
H5845 H 0.30826 0.19315 0.71475 0.0
H5846 H 0.35113 0.21882 0.68716 0.0
H5847 H 0.32969 0.22738 0.66459 0.0
C5848 C 0.26552 0.19198 0.58166 0.0
C5849 C 0.28026 0.19773 0.57231 0.0
C5850 C 0.26571 0.19819 0.6004 0.0
C5851 C 0.28071 0.21032 0.61041 0.0
C5852 C 0.29559 0.21593 0.60111 0.0
C5853 C 0.29536 0.20974 0.58224 0.0
C5854 C 0.28063 0.21723 0.63042 0.0
C5855 C 0.29365 0.21469 0.64407 0.0
C5856 C 0.2672 0.22552 0.63619 0.0
C5857 C 0.25305 0.22866 0.62261 0.0
C5858 C 0.25746 0.23839 0.6079 0.0
C5859 C 0.24408 0.24059 0.59466 0.0
C5860 C 0.22623 0.23323 0.59607 0.0
C5861 C 0.22172 0.22374 0.61078 0.0
C5862 C 0.23505 0.22149 0.62405 0.0
C5863 C 0.29555 0.25486 0.71754 0.0
C5864 C 0.27986 0.25143 0.72602 0.0
C5865 C 0.2958 0.24748 0.69919 0.0
C5866 C 0.28039 0.23635 0.68873 0.0
C5867 C 0.26477 0.23276 0.69727 0.0
C5868 C 0.26457 0.24004 0.71564 0.0
C5869 C 0.28041 0.22891 0.66883 0.0
C5870 C 0.26727 0.23122 0.65516 0.0
C5871 C 0.29351 0.22005 0.66313 0.0
C5872 C 0.30651 0.21518 0.67682 0.0
C5873 C 0.30062 0.20541 0.69107 0.0
C5874 C 0.31287 0.20066 0.70382 0.0
C5875 C 0.33105 0.20547 0.70238 0.0
C5876 C 0.33703 0.21511 0.68824 0.0
C5877 C 0.32484 0.2199 0.67546 0.0
H5878 H 0.34049 0.20163 0.71213 0.0
H5879 H 0.21589 0.23489 0.58577 0.0
H5880 H 0.61811 0.50251 0.2356 0.0
H5881 H 0.60743 0.50282 0.20305 0.0
H5882 H 0.58768 0.54934 0.21831 0.0
H5883 H 0.59729 0.54822 0.251 0.0
H5884 H 0.56545 0.53116 0.19375 0.0
H5885 H 0.62935 0.54732 0.19571 0.0
H5886 H 0.66016 0.54374 0.20134 0.0
H5887 H 0.64623 0.49511 0.16387 0.0
H5888 H 0.6153 0.4983 0.15815 0.0
H5889 H 0.54683 0.55034 0.10208 0.0
H5890 H 0.55956 0.55159 0.13417 0.0
H5891 H 0.5794 0.50507 0.11929 0.0
H5892 H 0.5682 0.50496 0.08689 0.0
H5893 H 0.60248 0.5238 0.1436 0.0
H5894 H 0.53821 0.50724 0.14333 0.0
H5895 H 0.50747 0.51112 0.13811 0.0
H5896 H 0.52292 0.5613 0.17308 0.0
H5897 H 0.55375 0.55776 0.17837 0.0
C5898 C 0.61118 0.51261 0.23202 0.0
C5899 C 0.6083 0.52517 0.24601 0.0
C5900 C 0.60535 0.513 0.21326 0.0
C5901 C 0.59705 0.5264 0.20779 0.0
C5902 C 0.59398 0.5388 0.22187 0.0
C5903 C 0.59938 0.5381 0.24068 0.0
C5904 C 0.59091 0.52718 0.18765 0.0
C5905 C 0.57378 0.52984 0.18291 0.0
C5906 C 0.60135 0.52496 0.17307 0.0
C5907 C 0.61994 0.52298 0.17664 0.0
C5908 C 0.63282 0.5358 0.18878 0.0
C5909 C 0.65031 0.53385 0.19196 0.0
C5910 C 0.65513 0.51919 0.18301 0.0
C5911 C 0.64248 0.50646 0.17082 0.0
C5912 C 0.62497 0.50834 0.16758 0.0
C5913 C 0.55413 0.54057 0.10551 0.0
C5914 C 0.5566 0.52777 0.09159 0.0
C5915 C 0.56121 0.54105 0.12411 0.0
C5916 C 0.57022 0.52814 0.12966 0.0
C5917 C 0.57261 0.51528 0.11573 0.0
C5918 C 0.56605 0.51518 0.09705 0.0
C5919 C 0.57702 0.52785 0.14979 0.0
C5920 C 0.59424 0.52521 0.1545 0.0
C5921 C 0.56674 0.53016 0.16444 0.0
C5922 C 0.54827 0.5323 0.16109 0.0
C5923 C 0.53504 0.51913 0.1498 0.0
C5924 C 0.51761 0.52127 0.14685 0.0
C5925 C 0.51325 0.53647 0.15522 0.0
C5926 C 0.52631 0.54955 0.16658 0.0
C5927 C 0.54375 0.54748 0.16957 0.0
H5928 H 0.49975 0.53809 0.15293 0.0
H5929 H 0.66868 0.51771 0.18548 0.0
H5930 H 0.28897 0.85976 0.95534 0.0
H5931 H 0.29159 0.84896 0.92367 0.0
H5932 H 0.2725 0.89286 0.90432 0.0
H5933 H 0.2698 0.90392 0.93625 0.0
H5934 H 0.25446 0.85983 0.88664 0.0
H5935 H 0.31545 0.89232 0.90087 0.0
H5936 H 0.34551 0.90246 0.91843 0.0
H5937 H 0.35122 0.84854 0.91494 0.0
H5938 H 0.32118 0.83806 0.89755 0.0
H5939 H 0.2604 0.81713 0.7991 0.0
H5940 H 0.26307 0.83921 0.82545 0.0
H5941 H 0.2948 0.8112 0.85796 0.0
H5942 H 0.29461 0.79049 0.83045 0.0
H5943 H 0.30817 0.84355 0.86566 0.0
H5944 H 0.2464 0.80977 0.85882 0.0
H5945 H 0.21657 0.79747 0.84127 0.0
H5946 H 0.21164 0.85016 0.8329 0.0
H5947 H 0.2415 0.86275 0.85028 0.0
C5948 C 0.28529 0.86715 0.94439 0.0
C5949 C 0.27903 0.88259 0.94821 0.0
C5950 C 0.28708 0.86112 0.92636 0.0
C5951 C 0.28267 0.87043 0.91187 0.0
C5952 C 0.27622 0.88574 0.9155 0.0
C5953 C 0.27449 0.89187 0.93364 0.0
C5954 C 0.28275 0.86265 0.89284 0.0
C5955 C 0.26625 0.85657 0.8818 0.0
C5956 C 0.29812 0.85815 0.88694 0.0
C5957 C 0.31599 0.86441 0.89797 0.0
C5958 C 0.32304 0.88261 0.90401 0.0
C5959 C 0.3401 0.88842 0.91389 0.0
C5960 C 0.35025 0.87615 0.91782 0.0
C5961 C 0.34336 0.85804 0.9119 0.0
C5962 C 0.32632 0.85216 0.902 0.0
C5963 C 0.26821 0.81574 0.81173 0.0
C5964 C 0.2776 0.80225 0.81263 0.0
C5965 C 0.26943 0.82826 0.82693 0.0
C5966 C 0.27876 0.82664 0.84378 0.0
C5967 C 0.28755 0.81271 0.84499 0.0
C5968 C 0.28726 0.80076 0.82939 0.0
C5969 C 0.27968 0.83963 0.86011 0.0
C5970 C 0.29639 0.84693 0.8704 0.0
C5971 C 0.2644 0.84474 0.86566 0.0
C5972 C 0.24622 0.83718 0.85572 0.0
C5973 C 0.23895 0.81872 0.85321 0.0
C5974 C 0.22205 0.8117 0.84329 0.0
C5975 C 0.21223 0.82302 0.83594 0.0
C5976 C 0.21926 0.8414 0.8386 0.0
C5977 C 0.23615 0.84849 0.84851 0.0
H5978 H 0.19918 0.81756 0.82822 0.0
H5979 H 0.36347 0.88068 0.92544 0.0
H5980 H 0.93409 0.53085 0.7833 0.0
H5981 H 0.94788 0.52938 0.75496 0.0
H5982 H 0.89613 0.51759 0.72239 0.0
H5983 H 0.88209 0.51852 0.75082 0.0
H5984 H 0.9183 0.49656 0.71024 0.0
H5985 H 0.92101 0.55899 0.72728 0.0
H5986 H 0.92755 0.58501 0.75134 0.0
H5987 H 0.9825 0.58268 0.75923 0.0
H5988 H 0.97622 0.55646 0.73537 0.0
H5989 H 0.94802 0.50512 0.62635 0.0
H5990 H 0.93426 0.51638 0.65231 0.0
H5991 H 0.98429 0.52604 0.68774 0.0
H5992 H 0.99811 0.515 0.66163 0.0
H5993 H 0.96236 0.5497 0.69804 0.0
H5994 H 0.96033 0.48715 0.68433 0.0
H5995 H 0.95454 0.45848 0.66424 0.0
H5996 H 0.89935 0.45915 0.65303 0.0
H5997 H 0.90487 0.48796 0.67293 0.0
C5998 C 0.92564 0.52809 0.77011 0.0
C5999 C 0.90706 0.52508 0.76916 0.0
C6000 C 0.93353 0.5272 0.75399 0.0
C6001 C 0.92297 0.5237 0.73673 0.0
C6002 C 0.90441 0.5204 0.73569 0.0
C6003 C 0.89646 0.52106 0.75186 0.0
C6004 C 0.93144 0.5239 0.71975 0.0
C6005 C 0.92763 0.50826 0.70732 0.0
C6006 C 0.94399 0.53907 0.71647 0.0
C6007 C 0.94816 0.55582 0.72949 0.0
C6008 C 0.93452 0.56412 0.73405 0.0
C6009 C 0.93816 0.57885 0.74771 0.0
C6010 C 0.95544 0.58551 0.75679 0.0
C6011 C 0.96914 0.57754 0.75213 0.0
C6012 C 0.96556 0.56277 0.73849 0.0
C6013 C 0.95614 0.51028 0.63953 0.0
C6014 C 0.97389 0.50904 0.64235 0.0
C6015 C 0.94837 0.51676 0.65425 0.0
C6016 C 0.95826 0.52169 0.67188 0.0
C6017 C 0.97652 0.52226 0.67418 0.0
C6018 C 0.98433 0.51585 0.6594 0.0
C6019 C 0.94889 0.52244 0.68826 0.0
C6020 C 0.95271 0.53814 0.70072 0.0
C6021 C 0.93645 0.50723 0.69174 0.0
C6022 C 0.93306 0.48983 0.67989 0.0
C6023 C 0.94699 0.48127 0.67744 0.0
C6024 C 0.94376 0.46498 0.66612 0.0
C6025 C 0.92661 0.45705 0.65727 0.0
C6026 C 0.91264 0.46534 0.65983 0.0
C6027 C 0.91581 0.48164 0.67115 0.0
H6028 H 0.92414 0.44445 0.64849 0.0
H6029 H 0.95822 0.59684 0.76746 0.0
H6030 H 0.26507 0.16998 0.44969 0.0
H6031 H 0.26502 0.17838 0.41833 0.0
H6032 H 0.28629 0.23335 0.44141 0.0
H6033 H 0.28458 0.22499 0.47262 0.0
H6034 H 0.26473 0.23463 0.41585 0.0
H6035 H 0.30931 0.19852 0.41586 0.0
H6036 H 0.32064 0.17129 0.41694 0.0
H6037 H 0.28026 0.14394 0.37261 0.0
H6038 H 0.26856 0.17088 0.37144 0.0
H6039 H 0.29203 0.27139 0.33737 0.0
H6040 H 0.2909 0.25918 0.36624 0.0
H6041 H 0.26522 0.20757 0.3366 0.0
H6042 H 0.26713 0.21996 0.30719 0.0
H6043 H 0.28587 0.2027 0.36375 0.0
H6044 H 0.24244 0.23772 0.36179 0.0
H6045 H 0.23079 0.26449 0.35858 0.0
H6046 H 0.26766 0.29303 0.40528 0.0
H6047 H 0.27972 0.26654 0.40861 0.0
C6048 C 0.26988 0.18384 0.448 0.0
C6049 C 0.27496 0.19681 0.46368 0.0
C6050 C 0.27003 0.18868 0.42995 0.0
C6051 C 0.27603 0.20659 0.42701 0.0
C6052 C 0.28149 0.21944 0.44288 0.0
C6053 C 0.28066 0.21467 0.46086 0.0
C6054 C 0.27583 0.21232 0.40776 0.0
C6055 C 0.26972 0.22771 0.40467 0.0
C6056 C 0.28128 0.203 0.3924 0.0
C6057 C 0.28793 0.18665 0.39375 0.0
C6058 C 0.30273 0.18663 0.40651 0.0
C6059 C 0.30924 0.17126 0.4071 0.0
C6060 C 0.30114 0.15588 0.3949 0.0
C6061 C 0.28649 0.15583 0.38209 0.0
C6062 C 0.27991 0.17113 0.38148 0.0
C6063 C 0.28586 0.25762 0.33674 0.0
C6064 C 0.27893 0.24715 0.31964 0.0
C6065 C 0.2852 0.25048 0.35353 0.0
C6066 C 0.27719 0.23251 0.354 0.0
C6067 C 0.27114 0.22159 0.3369 0.0
C6068 C 0.2722 0.22877 0.31997 0.0
C6069 C 0.27551 0.22527 0.37229 0.0
C6070 C 0.28103 0.20959 0.37508 0.0
C6071 C 0.26937 0.2342 0.38733 0.0
C6072 C 0.26207 0.25015 0.38537 0.0
C6073 C 0.24814 0.24973 0.37131 0.0
C6074 C 0.24146 0.26486 0.36947 0.0
C6075 C 0.2485 0.28046 0.3817 0.0
C6076 C 0.26222 0.28095 0.39581 0.0
C6077 C 0.26897 0.26588 0.39769 0.0
H6078 H 0.24331 0.29215 0.38026 0.0
H6079 H 0.30625 0.14403 0.39533 0.0
H6080 H 0.32336 0.62967 0.55188 0.0
H6081 H 0.35329 0.6244 0.55656 0.0
H6082 H 0.33121 0.56786 0.5426 0.0
H6083 H 0.30122 0.57307 0.53907 0.0
H6084 H 0.35385 0.57406 0.57253 0.0
H6085 H 0.35238 0.59589 0.51252 0.0
H6086 H 0.34882 0.61838 0.49189 0.0
H6087 H 0.39275 0.65611 0.52458 0.0
H6088 H 0.39636 0.63392 0.54562 0.0
H6089 H 0.41053 0.53222 0.52822 0.0
H6090 H 0.38908 0.54601 0.54247 0.0
H6091 H 0.42987 0.59425 0.5598 0.0
H6092 H 0.45144 0.58025 0.54524 0.0
H6093 H 0.40272 0.59973 0.53772 0.0
H6094 H 0.40711 0.57168 0.59275 0.0
H6095 H 0.40873 0.54707 0.61115 0.0
H6096 H 0.35744 0.51781 0.58405 0.0
H6097 H 0.35557 0.5421 0.56537 0.0
C6098 C 0.32502 0.61616 0.54953 0.0
C6099 C 0.31022 0.60171 0.54503 0.0
C6100 C 0.34205 0.61318 0.55227 0.0
C6101 C 0.34441 0.59577 0.5499 0.0
C6102 C 0.3296 0.58139 0.54468 0.0
C6103 C 0.31256 0.58434 0.54249 0.0
C6104 C 0.36222 0.59221 0.55308 0.0
C6105 C 0.36458 0.57962 0.56492 0.0
C6106 C 0.37637 0.60017 0.54378 0.0
C6107 C 0.37451 0.61331 0.53078 0.0
C6108 C 0.36123 0.60901 0.51537 0.0
C6109 C 0.35919 0.62171 0.50361 0.0
C6110 C 0.37052 0.63868 0.50696 0.0
C6111 C 0.38396 0.64297 0.52203 0.0
C6112 C 0.386 0.63034 0.53388 0.0
C6113 C 0.41501 0.54551 0.5357 0.0
C6114 C 0.43241 0.55532 0.53568 0.0
C6115 C 0.40283 0.55336 0.54398 0.0
C6116 C 0.40794 0.57112 0.55234 0.0
C6117 C 0.42577 0.58048 0.55356 0.0
C6118 C 0.43801 0.57255 0.54531 0.0
C6119 C 0.39393 0.58054 0.55616 0.0
C6120 C 0.39227 0.59449 0.5458 0.0
C6121 C 0.38016 0.57341 0.56636 0.0
C6122 C 0.38123 0.55876 0.57766 0.0
C6123 C 0.39622 0.55997 0.59065 0.0
C6124 C 0.39716 0.54607 0.60115 0.0
C6125 C 0.38321 0.53088 0.59876 0.0
C6126 C 0.36824 0.52958 0.58591 0.0
C6127 C 0.3672 0.54344 0.57541 0.0
H6128 H 0.38399 0.52013 0.60687 0.0
H6129 H 0.3689 0.6485 0.49785 0.0
H6130 H 0.83854 0.94175 0.55255 0.0
H6131 H 0.86864 0.95953 0.5519 0.0
H6132 H 0.88784 0.91162 0.54443 0.0
H6133 H 0.85776 0.89369 0.54496 0.0
H6134 H 0.91018 0.93814 0.57067 0.0
H6135 H 0.882 0.93192 0.50815 0.0
H6136 H 0.8579 0.93332 0.48405 0.0
H6137 H 0.86619 0.9895 0.50054 0.0
H6138 H 0.8902 0.98837 0.52492 0.0
H6139 H 0.99514 0.98028 0.5506 0.0
H6140 H 0.96629 0.96124 0.55117 0.0
H6141 H 0.9415 1.00395 0.53858 0.0
H6142 H 0.9702 0.02168 0.53392 0.0
H6143 H 0.92148 0.9783 0.5226 0.0
H6144 H 0.94994 0.98407 0.58683 0.0
H6145 H 0.97351 0.98135 0.61097 0.0
H6146 H 0.96465 0.92559 0.59197 0.0
H6147 H 0.94112 0.92798 0.56771 0.0
C6148 C 0.84914 0.93496 0.55078 0.0
C6149 C 0.84567 0.91626 0.54871 0.0
C6150 C 0.86635 0.94516 0.55039 0.0
C6151 C 0.88049 0.93691 0.54801 0.0
C6152 C 0.87715 0.91828 0.54628 0.0
C6153 C 0.85991 0.90805 0.54649 0.0
C6154 C 0.89866 0.94775 0.54696 0.0
C6155 C 0.91276 0.94692 0.56016 0.0
C6156 C 0.90195 0.95925 0.53333 0.0
C6157 C 0.88778 0.96003 0.51845 0.0
C6158 C 0.87861 0.94455 0.5067 0.0
C6159 C 0.86498 0.9453 0.49298 0.0
C6160 C 0.86049 0.96148 0.49079 0.0
C6161 C 0.86967 0.97697 0.50226 0.0
C6162 C 0.88331 0.97629 0.51602 0.0
C6163 C 0.98361 0.98579 0.54791 0.0
C6164 C 0.98538 1.00305 0.54275 0.0
C6165 C 0.96691 0.97482 0.54867 0.0
C6166 C 0.95138 0.98117 0.54591 0.0
C6167 C 0.95311 0.99854 0.54108 0.0
C6168 C 0.96978 0.00908 0.53896 0.0
C6169 C 0.93333 0.96954 0.54694 0.0
C6170 C 0.91912 0.96994 0.53349 0.0
C6171 C 0.92997 0.95769 0.56049 0.0
C6172 C 0.94385 0.95625 0.57539 0.0
C6173 C 0.95303 0.97124 0.58782 0.0
C6174 C 0.96638 0.96975 0.60152 0.0
C6175 C 0.97057 0.9533 0.603 0.0
C6176 C 0.96137 0.9383 0.59084 0.0
C6177 C 0.94801 0.93971 0.57714 0.0
H6178 H 0.98094 0.95218 0.61357 0.0
H6179 H 0.84991 0.96203 0.48018 0.0
H6180 H 0.90986 0.0722 0.28564 0.0
H6181 H 0.89918 0.09962 0.28705 0.0
H6182 H 0.85305 0.07297 0.24826 0.0
H6183 H 0.86402 0.04578 0.24626 0.0
H6184 H 0.8642 0.10475 0.23977 0.0
H6185 H 0.85264 0.08091 0.29655 0.0
H6186 H 0.85996 0.06983 0.32608 0.0
H6187 H 0.89591 0.12012 0.34652 0.0
H6188 H 0.88903 0.1314 0.31698 0.0
H6189 H 0.80083 0.1537 0.27009 0.0
H6190 H 0.81844 0.13273 0.25999 0.0
H6191 H 0.86634 0.16946 0.28719 0.0
H6192 H 0.84877 0.1907 0.29674 0.0
H6193 H 0.85752 0.13541 0.30057 0.0
H6194 H 0.86482 0.16013 0.24421 0.0
H6195 H 0.85516 0.17066 0.21511 0.0
H6196 H 0.82457 0.118 0.19408 0.0
H6197 H 0.83373 0.1072 0.22323 0.0
C6198 C 0.89739 0.07216 0.2775 0.0
C6199 C 0.88771 0.05675 0.26598 0.0
C6200 C 0.89129 0.08787 0.2783 0.0
C6201 C 0.87516 0.08839 0.26792 0.0
C6202 C 0.86553 0.07299 0.25637 0.0
C6203 C 0.87176 0.05738 0.25536 0.0
C6204 C 0.86803 0.10475 0.26938 0.0
C6205 C 0.86261 0.11136 0.25307 0.0
C6206 C 0.8663 0.11371 0.28672 0.0
C6207 C 0.8705 0.10691 0.30446 0.0
C6208 C 0.86223 0.08955 0.30728 0.0
C6209 C 0.86629 0.08324 0.32403 0.0
C6210 C 0.87844 0.09424 0.33814 0.0
C6211 C 0.88654 0.11159 0.33556 0.0
C6212 C 0.88257 0.11795 0.31881 0.0
C6213 C 0.81521 0.15767 0.273 0.0
C6214 C 0.82353 0.17393 0.28381 0.0
C6215 C 0.82525 0.14564 0.26737 0.0
C6216 C 0.8437 0.14955 0.27285 0.0
C6217 C 0.85214 0.16625 0.28273 0.0
C6218 C 0.84214 0.17839 0.28808 0.0
C6219 C 0.8535 0.1352 0.27101 0.0
C6220 C 0.85935 0.12893 0.28728 0.0
C6221 C 0.85532 0.12646 0.25366 0.0
C6222 C 0.84982 0.13288 0.23604 0.0
C6223 C 0.85587 0.15082 0.23348 0.0
C6224 C 0.85051 0.15684 0.21695 0.0
C6225 C 0.83921 0.14502 0.20278 0.0
C6226 C 0.8333 0.12715 0.20509 0.0
C6227 C 0.83858 0.12107 0.22162 0.0
H6228 H 0.83508 0.14971 0.18999 0.0
H6229 H 0.88155 0.08934 0.35111 0.0
H6230 H 0.70368 0.13187 0.03338 0.0
H6231 H 0.67256 0.11828 0.03624 0.0
H6232 H 0.68845 0.07225 0.05445 0.0
H6233 H 0.71917 0.08531 0.05075 0.0
H6234 H 0.66323 0.0638 0.02604 0.0
H6235 H 0.675 0.10172 0.08452 0.0
H6236 H 0.68512 0.13055 0.10447 0.0
H6237 H 0.64462 0.15059 0.075 0.0
H6238 H 0.63437 0.12195 0.05472 0.0
H6239 H 0.58318 0.01585 0.04819 0.0
H6240 H 0.61366 0.03299 0.04985 0.0
H6241 H 0.59452 0.07843 0.03485 0.0
H6242 H 0.56411 0.06198 0.03564 0.0
H6243 H 0.62113 0.08839 0.06165 0.0
H6244 H 0.61091 0.0514 0.00214 0.0
H6245 H 0.60187 0.02315 0.98107 0.0
H6246 H 0.64052 1.00208 0.01232 0.0
H6247 H 0.64974 0.03018 0.03359 0.0
C6248 C 0.70034 0.11879 0.0378 0.0
C6249 C 0.71342 0.10928 0.04132 0.0
C6250 C 0.68278 0.11124 0.03974 0.0
C6251 C 0.67847 0.09443 0.04571 0.0
C6252 C 0.69169 0.08524 0.04979 0.0
C6253 C 0.70907 0.09255 0.0474 0.0
C6254 C 0.65995 0.08529 0.04548 0.0
C6255 C 0.65407 0.06904 0.03405 0.0
C6256 C 0.64811 0.0926 0.05549 0.0
C6257 C 0.65399 0.10971 0.068 0.0
C6258 C 0.6683 0.1123 0.08223 0.0
C6259 C 0.67405 0.12861 0.09361 0.0
C6260 C 0.66554 0.1424 0.09098 0.0
C6261 C 0.6512 0.13989 0.07702 0.0
C6262 C 0.64539 0.12361 0.0656 0.0
C6263 C 0.58549 0.02937 0.04482 0.0
C6264 C 0.57131 0.03735 0.04061 0.0
C6265 C 0.60285 0.03913 0.04583 0.0
C6266 C 0.60621 0.05674 0.0419 0.0
C6267 C 0.59208 0.06472 0.03759 0.0
C6268 C 0.5747 0.05513 0.03732 0.0
C6269 C 0.62454 0.06677 0.04236 0.0
C6270 C 0.63035 0.08319 0.05372 0.0
C6271 C 0.63647 0.05971 0.03226 0.0
C6272 C 0.63094 0.04283 0.01946 0.0
C6273 C 0.61742 0.0407 0.00454 0.0
C6274 C 0.61228 0.02473 0.99255 0.0
C6275 C 0.6206 0.01082 0.99536 0.0
C6276 C 0.6341 0.01286 0.01014 0.0
C6277 C 0.63932 0.02882 0.02213 0.0
H6278 H 0.61661 0.99847 0.98607 0.0
H6279 H 0.67004 0.15503 0.09977 0.0
H6280 H 0.21516 0.49581 0.24036 0.0
H6281 H 0.21765 0.4649 0.23815 0.0
H6282 H 0.19429 0.45896 0.2888 0.0
H6283 H 0.19144 0.48986 0.29099 0.0
H6284 H 0.23055 0.455 0.2879 0.0
H6285 H 0.17182 0.43407 0.25487 0.0
H6286 H 0.14733 0.43293 0.23018 0.0
H6287 H 0.17929 0.41905 0.18905 0.0
H6288 H 0.20406 0.42028 0.2135 0.0
H6289 H 0.22901 0.37006 0.30322 0.0
H6290 H 0.21367 0.39137 0.29064 0.0
H6291 H 0.24918 0.39849 0.24901 0.0
H6292 H 0.26469 0.37707 0.26165 0.0
H6293 H 0.20627 0.40102 0.24224 0.0
H6294 H 0.2662 0.42553 0.27552 0.0
H6295 H 0.29095 0.42868 0.30052 0.0
H6296 H 0.25682 0.43814 0.34113 0.0
H6297 H 0.23176 0.43464 0.31637 0.0
C6298 C 0.21049 0.48787 0.25098 0.0
C6299 C 0.20359 0.49522 0.26614 0.0
C6300 C 0.21158 0.47019 0.24947 0.0
C6301 C 0.20596 0.4598 0.2632 0.0
C6302 C 0.19844 0.46688 0.27799 0.0
C6303 C 0.19707 0.4845 0.27935 0.0
C6304 C 0.21136 0.44305 0.26414 0.0
C6305 C 0.22508 0.44311 0.27806 0.0
C6306 C 0.20463 0.42799 0.25076 0.0
C6307 C 0.18986 0.42743 0.23601 0.0
C6308 C 0.1737 0.43095 0.24055 0.0
C6309 C 0.15975 0.43023 0.2266 0.0
C6310 C 0.16177 0.42596 0.20805 0.0
C6311 C 0.17775 0.42237 0.20342 0.0
C6312 C 0.19174 0.42304 0.21732 0.0
C6313 C 0.23307 0.37568 0.29095 0.0
C6314 C 0.24807 0.37231 0.28348 0.0
C6315 C 0.22428 0.3877 0.28374 0.0
C6316 C 0.23049 0.39645 0.26909 0.0
C6317 C 0.24423 0.39166 0.26027 0.0
C6318 C 0.25307 0.37954 0.26749 0.0
C6319 C 0.22528 0.41301 0.26616 0.0
C6320 C 0.21173 0.41297 0.25194 0.0
C6321 C 0.23225 0.42833 0.27917 0.0
C6322 C 0.24701 0.42939 0.29412 0.0
C6323 C 0.26387 0.42786 0.2898 0.0
C6324 C 0.27798 0.42982 0.30392 0.0
C6325 C 0.27543 0.43349 0.32241 0.0
C6326 C 0.25875 0.43518 0.32682 0.0
C6327 C 0.24458 0.43317 0.31275 0.0
H6328 H 0.2864 0.43513 0.33332 0.0
H6329 H 0.15095 0.4254 0.19728 0.0
H6330 H 0.2575 0.44149 0.0355 0.0
H6331 H 0.23083 0.45355 0.03577 0.0
H6332 H 0.20525 0.40932 0.0621 0.0
H6333 H 0.23182 0.39703 0.06132 0.0
H6334 H 0.18139 0.4176 0.03704 0.0
H6335 H 0.22317 0.4497 0.08799 0.0
H6336 H 0.25283 0.46641 0.10313 0.0
H6337 H 0.25143 0.50729 0.0681 0.0
H6338 H 0.22181 0.49072 0.05263 0.0
H6339 H 0.11234 0.46084 0.05423 0.0
H6340 H 0.13793 0.44801 0.06206 0.0
H6341 H 0.1711 0.48829 0.03635 0.0
H6342 H 0.1456 0.50134 0.02909 0.0
H6343 H 0.19021 0.48034 0.06517 0.0
H6344 H 0.14879 0.44597 0.01271 0.0
H6345 H 0.11886 0.42903 0.99855 0.0
H6346 H 0.11917 0.39185 0.03805 0.0
H6347 H 0.14902 0.40873 0.05261 0.0
C6348 C 0.24608 0.43427 0.0411 0.0
C6349 C 0.24663 0.41834 0.04831 0.0
C6350 C 0.23088 0.4412 0.04138 0.0
C6351 C 0.21604 0.43254 0.04925 0.0
C6352 C 0.21644 0.41629 0.05597 0.0
C6353 C 0.23162 0.40928 0.05553 0.0
C6354 C 0.20052 0.44085 0.05102 0.0
C6355 C 0.1833 0.43122 0.04344 0.0
C6356 C 0.20283 0.45862 0.05941 0.0
C6357 C 0.22033 0.46895 0.06911 0.0
C6358 C 0.2292 0.46225 0.08351 0.0
C6359 C 0.246 0.47168 0.09214 0.0
C6360 C 0.25402 0.48789 0.08656 0.0
C6361 C 0.2452 0.49474 0.07241 0.0
C6362 C 0.22838 0.48536 0.06374 0.0
C6363 C 0.12526 0.46725 0.05086 0.0
C6364 C 0.1271 0.48213 0.04123 0.0
C6365 C 0.13985 0.45982 0.05513 0.0
C6366 C 0.15644 0.46688 0.0494 0.0
C6367 C 0.15849 0.4825 0.04086 0.0
C6368 C 0.14395 0.49001 0.03676 0.0
C6369 C 0.17118 0.4573 0.05067 0.0
C6370 C 0.18826 0.46666 0.05891 0.0
C6371 C 0.16867 0.43923 0.04304 0.0
C6372 C 0.15109 0.42864 0.03379 0.0
C6373 C 0.14248 0.43417 0.01836 0.0
C6374 C 0.12552 0.4246 0.01028 0.0
C6375 C 0.11713 0.40936 0.01739 0.0
C6376 C 0.1257 0.40364 0.03255 0.0
C6377 C 0.14265 0.41319 0.04071 0.0
H6378 H 0.10397 0.40202 0.01116 0.0
H6379 H 0.26706 0.49515 0.09321 0.0
H6380 H 0.91181 0.94733 0.27402 0.0
H6381 H 0.8931 0.91754 0.27402 0.0
H6382 H 0.84616 0.93728 0.26119 0.0
H6383 H 0.86474 0.96712 0.26119 0.0
H6384 H 0.84381 0.9171 0.29019 0.0
H6385 H 0.86214 0.91191 0.22819 0.0
H6386 H 0.88438 0.91268 0.20633 0.0
H6387 H 0.90526 0.87346 0.23286 0.0
H6388 H 0.8833 0.87262 0.25502 0.0
H6389 H 0.78074 0.83518 0.27998 0.0
H6390 H 0.79812 0.86412 0.27544 0.0
H6391 H 0.84307 0.84119 0.26743 0.0
H6392 H 0.82484 0.81204 0.26852 0.0
H6393 H 0.84709 0.86376 0.2486 0.0
H6394 H 0.83456 0.8689 0.31154 0.0
H6395 H 0.81616 0.86766 0.33715 0.0
H6396 H 0.79015 0.9059 0.31521 0.0
H6397 H 0.80827 0.90722 0.28939 0.0
C6398 C 0.8975 0.94536 0.27115 0.0
C6399 C 0.88981 0.95972 0.26765 0.0
C6400 C 0.88682 0.92826 0.27105 0.0
C6401 C 0.8682 0.92509 0.26746 0.0
C6402 C 0.86049 0.93937 0.26396 0.0
C6403 C 0.87116 0.95645 0.26395 0.0
C6404 C 0.85664 0.90713 0.2681 0.0
C6405 C 0.84437 0.90542 0.28097 0.0
C6406 C 0.85795 0.89173 0.25672 0.0
C6407 C 0.87115 0.89232 0.24336 0.0
C6408 C 0.87156 0.90356 0.22946 0.0
C6409 C 0.8841 0.90398 0.21699 0.0
C6410 C 0.89624 0.89315 0.21823 0.0
C6411 C 0.89586 0.88185 0.23192 0.0
C6412 C 0.88336 0.88139 0.24442 0.0
C6413 C 0.79405 0.83611 0.27661 0.0
C6414 C 0.80107 0.82093 0.2746 0.0
C6415 C 0.80433 0.85295 0.27455 0.0
C6416 C 0.82236 0.85533 0.27172 0.0
C6417 C 0.8293 0.84012 0.26957 0.0
C6418 C 0.81875 0.82325 0.27047 0.0
C6419 C 0.83409 0.87342 0.27094 0.0
C6420 C 0.84645 0.87526 0.25801 0.0
C6421 C 0.83353 0.88881 0.28295 0.0
C6422 C 0.82263 0.88802 0.29845 0.0
C6423 C 0.82484 0.87696 0.31214 0.0
C6424 C 0.81448 0.87626 0.32669 0.0
C6425 C 0.80197 0.88667 0.32778 0.0
C6426 C 0.79983 0.89783 0.31434 0.0
C6427 C 0.81015 0.89858 0.29976 0.0
H6428 H 0.79395 0.8861 0.33906 0.0
H6429 H 0.90593 0.89349 0.20857 0.0
H6430 H 0.68124 0.10294 0.79461 0.0
H6431 H 0.69295 0.13418 0.79031 0.0
H6432 H 0.72573 0.11733 0.75095 0.0
H6433 H 0.71486 0.08657 0.75598 0.0
H6434 H 0.74445 0.14 0.77926 0.0
H6435 H 0.69197 0.13528 0.73631 0.0
H6436 H 0.65956 0.12752 0.7268 0.0
H6437 H 0.65293 0.16589 0.77051 0.0
H6438 H 0.68535 0.17378 0.7804 0.0
H6439 H 0.78456 0.22471 0.75925 0.0
H6440 H 0.7674 0.19406 0.75544 0.0
H6441 H 0.73205 0.20895 0.79284 0.0
H6442 H 0.74816 0.23977 0.79543 0.0
H6443 H 0.7138 0.18719 0.76337 0.0
H6444 H 0.76563 0.18961 0.80777 0.0
H6445 H 0.79785 0.19613 0.81846 0.0
H6446 H 0.80511 0.16064 0.77241 0.0
H6447 H 0.77295 0.15406 0.76136 0.0
C6448 C 0.69102 0.10615 0.78519 0.0
C6449 C 0.69788 0.09289 0.77619 0.0
C6450 C 0.69739 0.12374 0.78248 0.0
C6451 C 0.7101 0.12778 0.77031 0.0
C6452 C 0.71599 0.11429 0.76045 0.0
C6453 C 0.71004 0.09691 0.76355 0.0
C6454 C 0.71944 0.14607 0.76994 0.0
C6455 C 0.73782 0.15028 0.77543 0.0
C6456 C 0.7105 0.1593 0.76546 0.0
C6457 C 0.69108 0.15506 0.75915 0.0
C6458 C 0.6836 0.14204 0.74393 0.0
C6459 C 0.66522 0.13761 0.73847 0.0
C6460 C 0.65417 0.14618 0.74806 0.0
C6461 C 0.66151 0.15927 0.76308 0.0
C6462 C 0.67989 0.16376 0.76859 0.0
C6463 C 0.77324 0.22146 0.76678 0.0
C6464 C 0.76781 0.23458 0.77791 0.0
C6465 C 0.76344 0.204 0.76453 0.0
C6466 C 0.74862 0.19944 0.77397 0.0
C6467 C 0.74345 0.21238 0.78541 0.0
C6468 C 0.75291 0.22988 0.78723 0.0
C6469 C 0.73883 0.181 0.77253 0.0
C6470 C 0.7204 0.17681 0.76689 0.0
C6471 C 0.74766 0.16765 0.7769 0.0
C6472 C 0.76695 0.17147 0.78367 0.0
C6473 C 0.77413 0.18328 0.79989 0.0
C6474 C 0.79237 0.18697 0.80601 0.0
C6475 C 0.80353 0.17884 0.79609 0.0
C6476 C 0.79646 0.16695 0.78007 0.0
C6477 C 0.77823 0.16322 0.77388 0.0
H6478 H 0.81764 0.18172 0.80085 0.0
H6479 H 0.63994 0.14269 0.74385 0.0
loop_
_geom_bond_atom_site_label_1
_geom_bond_atom_site_label_2
_geom_bond_distance
_geom_bond_site_symmetry_2
_ccdc_geom_bond_type
O0 Cd1 2.223 . S
O0 C8 1.315 . S
Cd1 O0 2.223 . S
Cd1 O4 2.297 . S
Cd1 O5 2.439 . S
Cd1 O11 2.240 . S
Cd2 O3 2.240 . S
Cd2 O10 2.225 . S
Cd2 O12 2.297 . S
Cd2 O13 2.439 . S
O3 Cd2 2.240 . S
O3 C8 1.279 . S
O4 Cd1 2.297 . S
O4 C6 1.247 . S
O5 Cd1 2.439 . S
O5 C6 1.208 . S
C6 O4 1.247 . S
C6 O5 1.208 . S
C7 O12 1.247 . S
C7 O13 1.208 . S
C8 O0 1.315 . S
C8 O3 1.279 . S
C9 O10 1.315 . S
C9 O11 1.279 . S
O10 Cd2 2.225 . S
O10 C9 1.315 . S
O11 Cd1 2.240 . S
O11 C9 1.279 . S
O12 Cd2 2.297 . S
O12 C7 1.247 . S
O13 Cd2 2.439 . S
O13 C7 1.208 . S
O14 Cd15 2.223 . S
O14 C22 1.315 . S
Cd15 O14 2.223 . S
Cd15 O18 2.297 1_455 S
Cd15 O19 2.439 1_455 S
Cd15 O25 2.240 . S
Cd16 O17 2.231 1_455 S
Cd16 O24 2.223 . S
Cd16 O26 2.297 . S
Cd16 O27 2.439 . S
O17 Cd16 2.231 1_655 S
O17 C22 1.271 1_655 S
O18 Cd15 2.297 1_655 S
O18 C20 1.247 . S
O19 Cd15 2.439 1_655 S
O19 C20 1.208 . S
C20 O18 1.247 . S
C20 O19 1.208 . S
C21 O26 1.247 . S
C21 O27 1.208 . S
C22 O14 1.315 . S
C22 O17 1.271 1_455 S
C23 O24 1.315 . S
C23 O25 1.279 . S
O24 Cd16 2.223 . S
O24 C23 1.315 . S
O25 Cd15 2.240 . S
O25 C23 1.279 . S
O26 Cd16 2.297 . S
O26 C21 1.247 . S
O27 Cd16 2.439 . S
O27 C21 1.208 . S
O28 Cd29 2.223 . S
O28 C36 1.315 . S
Cd29 O28 2.223 . S
Cd29 O32 2.297 . S
Cd29 O33 2.439 . S
Cd29 O39 2.240 . S
Cd30 O31 2.240 . S
Cd30 O38 2.223 . S
Cd30 O40 2.297 . S
Cd30 O41 2.439 . S
O31 Cd30 2.240 . S
O31 C36 1.279 . S
O32 Cd29 2.297 . S
O32 C34 1.247 . S
O33 Cd29 2.439 . S
O33 C34 1.208 . S
C34 O32 1.247 . S
C34 O33 1.208 . S
C35 O40 1.247 . S
C35 O41 1.208 . S
C36 O28 1.315 . S
C36 O31 1.279 . S
C37 O38 1.315 . S
C37 O39 1.279 . S
O38 Cd30 2.223 . S
O38 C37 1.315 . S
O39 Cd29 2.240 . S
O39 C37 1.279 . S
O40 Cd30 2.297 . S
O40 C35 1.247 . S
O41 Cd30 2.439 . S
O41 C35 1.208 . S
O42 Cd43 2.223 . S
O42 C50 1.315 . S
Cd43 O42 2.223 . S
Cd43 O46 2.297 . S
Cd43 O47 2.439 . S
Cd43 O53 2.240 . S
Cd44 O45 2.240 . S
Cd44 O52 2.223 . S
Cd44 O54 2.297 . S
Cd44 O55 2.439 . S
O45 Cd44 2.240 . S
O45 C50 1.279 . S
O46 Cd43 2.297 . S
O46 C48 1.247 . S
O47 Cd43 2.439 . S
O47 C48 1.208 . S
C48 O46 1.247 . S
C48 O47 1.208 . S
C49 O54 1.247 . S
C49 O55 1.208 . S
C50 O42 1.315 . S
C50 O45 1.279 . S
C51 O52 1.315 . S
C51 O53 1.279 . S
O52 Cd44 2.223 . S
O52 C51 1.315 . S
O53 Cd43 2.240 . S
O53 C51 1.279 . S
O54 Cd44 2.297 . S
O54 C49 1.247 . S
O55 Cd44 2.439 . S
O55 C49 1.208 . S
O56 Cd57 2.223 . S
O56 C64 1.315 . S
Cd57 O56 2.223 . S
Cd57 O60 2.297 . S
Cd57 O61 2.439 . S
Cd57 O67 2.240 . S
Cd58 O59 2.240 . S
Cd58 O66 2.223 . S
Cd58 O68 2.297 . S
Cd58 O69 2.439 . S
O59 Cd58 2.240 . S
O59 C64 1.279 . S
O60 Cd57 2.297 . S
O60 C62 1.247 . S
O61 Cd57 2.439 . S
O61 C62 1.208 . S
C62 O60 1.247 . S
C62 O61 1.208 . S
C63 O68 1.247 . S
C63 O69 1.208 . S
C64 O56 1.315 . S
C64 O59 1.279 . S
C65 O66 1.315 . S
C65 O67 1.279 . S
O66 Cd58 2.223 . S
O66 C65 1.315 . S
O67 Cd57 2.240 . S
O67 C65 1.279 . S
O68 Cd58 2.297 . S
O68 C63 1.247 . S
O69 Cd58 2.439 . S
O69 C63 1.208 . S
O70 Cd71 2.223 . S
O70 C78 1.315 . S
Cd71 O70 2.223 . S
Cd71 O74 2.297 . S
Cd71 O75 2.439 . S
Cd71 O81 2.240 . S
Cd72 O73 2.240 . S
Cd72 O80 2.223 . S
Cd72 O82 2.297 . S
Cd72 O83 2.439 . S
O73 Cd72 2.240 . S
O73 C78 1.279 . S
O74 Cd71 2.297 . S
O74 C76 1.247 . S
O75 Cd71 2.439 . S
O75 C76 1.208 . S
C76 O74 1.247 . S
C76 O75 1.208 . S
C77 O82 1.247 . S
C77 O83 1.208 . S
C78 O70 1.315 . S
C78 O73 1.279 . S
C79 O80 1.315 . S
C79 O81 1.279 . S
O80 Cd72 2.223 . S
O80 C79 1.315 . S
O81 Cd71 2.240 . S
O81 C79 1.279 . S
O82 Cd72 2.297 . S
O82 C77 1.247 . S
O83 Cd72 2.439 . S
O83 C77 1.208 . S
O84 Cd85 2.223 . S
O84 C92 1.315 . S
Cd85 O84 2.223 . S
Cd85 O88 2.297 . S
Cd85 O89 2.439 . S
Cd85 O95 2.240 . S
Cd86 O87 2.240 . S
Cd86 O94 2.223 . S
Cd86 O96 2.297 . S
Cd86 O97 2.439 . S
O87 Cd86 2.240 . S
O87 C92 1.279 . S
O88 Cd85 2.297 . S
O88 C90 1.247 . S
O89 Cd85 2.439 . S
O89 C90 1.208 . S
C90 O88 1.247 . S
C90 O89 1.208 . S
C91 O96 1.247 . S
C91 O97 1.208 . S
C92 O84 1.315 . S
C92 O87 1.279 . S
C93 O94 1.315 . S
C93 O95 1.279 . S
O94 Cd86 2.223 . S
O94 C93 1.315 . S
O95 Cd85 2.240 . S
O95 C93 1.279 . S
O96 Cd86 2.297 . S
O96 C91 1.247 . S
O97 Cd86 2.439 . S
O97 C91 1.208 . S
O98 Cd99 2.223 1_655 S
O98 C106 1.315 . S
Cd99 O98 2.223 1_455 S
Cd99 O102 2.297 . S
Cd99 O103 2.439 . S
Cd99 O109 2.240 1_455 S
Cd100 O101 2.240 1_655 S
Cd100 O108 2.223 . S
Cd100 O110 2.297 . S
Cd100 O111 2.439 1_655 S
O101 Cd100 2.240 1_455 S
O101 C106 1.279 1_455 S
O102 Cd99 2.297 . S
O102 C104 1.247 . S
O103 Cd99 2.439 . S
O103 C104 1.208 . S
C104 O102 1.247 . S
C104 O103 1.208 . S
C105 O110 1.271 . S
C105 O111 1.185 1_655 S
C106 O98 1.315 . S
C106 O101 1.279 1_655 S
C107 O108 1.315 . S
C107 O109 1.279 . S
O108 Cd100 2.223 . S
O108 C107 1.315 . S
O109 Cd99 2.240 1_655 S
O109 C107 1.279 . S
O110 Cd100 2.297 . S
O110 C105 1.271 . S
O111 Cd100 2.439 1_455 S
O111 C105 1.185 1_455 S
O112 Cd113 2.223 . S
O112 C120 1.315 . S
Cd113 O112 2.223 . S
Cd113 O116 2.297 . S
Cd113 O117 2.439 . S
Cd113 O123 2.240 1_545 S
Cd114 O115 2.240 . S
Cd114 O122 2.223 1_545 S
Cd114 O124 2.297 1_545 S
Cd114 O125 2.439 . S
O115 Cd114 2.240 . S
O115 C120 1.279 . S
O116 Cd113 2.297 . S
O116 C118 1.247 . S
O117 Cd113 2.439 . S
O117 C118 1.208 . S
C118 O116 1.247 . S
C118 O117 1.208 . S
C119 O124 1.247 1_545 S
C119 O125 1.208 . S
C120 O112 1.315 . S
C120 O115 1.279 . S
C121 O122 1.315 . S
C121 O123 1.279 . S
O122 Cd114 2.223 1_565 S
O122 C121 1.315 . S
O123 Cd113 2.240 1_565 S
O123 C121 1.279 . S
O124 Cd114 2.297 1_565 S
O124 C119 1.247 1_565 S
O125 Cd114 2.439 . S
O125 C119 1.208 . S
O126 Cd127 2.223 . S
O126 C134 1.315 . S
Cd127 O126 2.223 . S
Cd127 O130 2.297 . S
Cd127 O131 2.439 . S
Cd127 O137 2.240 . S
Cd128 O129 2.240 . S
Cd128 O136 2.223 . S
Cd128 O138 2.297 . S
Cd128 O139 2.439 . S
O129 Cd128 2.240 . S
O129 C134 1.279 . S
O130 Cd127 2.297 . S
O130 C132 1.247 . S
O131 Cd127 2.439 . S
O131 C132 1.208 . S
C132 O130 1.247 . S
C132 O131 1.208 . S
C133 O138 1.247 . S
C133 O139 1.208 . S
C134 O126 1.315 . S
C134 O129 1.279 . S
C135 O136 1.315 . S
C135 O137 1.279 . S
O136 Cd128 2.223 . S
O136 C135 1.315 . S
O137 Cd127 2.240 . S
O137 C135 1.279 . S
O138 Cd128 2.297 . S
O138 C133 1.247 . S
O139 Cd128 2.439 . S
O139 C133 1.208 . S
O140 Cd141 2.223 . S
O140 C148 1.315 . S
Cd141 O140 2.223 . S
Cd141 O144 2.297 1_545 S
Cd141 O145 2.439 1_545 S
Cd141 O151 2.240 . S
Cd142 O143 2.240 . S
Cd142 O150 2.223 . S
Cd142 O152 2.297 . S
Cd142 O153 2.439 . S
O143 Cd142 2.240 . S
O143 C148 1.279 . S
O144 Cd141 2.297 1_565 S
O144 C146 1.247 . S
O145 Cd141 2.439 1_565 S
O145 C146 1.208 . S
C146 O144 1.247 . S
C146 O145 1.208 . S
C147 O152 1.247 . S
C147 O153 1.208 . S
C148 O140 1.315 . S
C148 O143 1.279 . S
C149 O150 1.315 . S
C149 O151 1.279 . S
O150 Cd142 2.223 . S
O150 C149 1.315 . S
O151 Cd141 2.240 . S
O151 C149 1.279 . S
O152 Cd142 2.297 . S
O152 C147 1.247 . S
O153 Cd142 2.439 . S
O153 C147 1.208 . S
O154 Cd155 2.223 . S
O154 C162 1.315 . S
Cd155 O154 2.223 . S
Cd155 O158 2.297 . S
Cd155 O159 2.439 1_554 S
Cd155 O165 2.240 1_554 S
Cd156 O157 2.240 1_556 S
Cd156 O164 2.223 1_556 S
Cd156 O166 2.297 . S
Cd156 O167 2.439 . S
O157 Cd156 2.240 1_554 S
O157 C162 1.279 . S
O158 Cd155 2.297 . S
O158 C160 1.247 . S
O159 Cd155 2.439 1_556 S
O159 C160 1.208 1_556 S
C160 O158 1.247 . S
C160 O159 1.208 1_554 S
C161 O166 1.247 . S
C161 O167 1.208 . S
C162 O154 1.315 . S
C162 O157 1.279 . S
C163 O164 1.315 . S
C163 O165 1.279 1_554 S
O164 Cd156 2.223 1_554 S
O164 C163 1.315 . S
O165 Cd155 2.240 1_556 S
O165 C163 1.279 1_556 S
O166 Cd156 2.297 . S
O166 C161 1.247 . S
O167 Cd156 2.439 . S
O167 C161 1.208 . S
O168 Cd169 2.223 . S
O168 C176 1.315 . S
Cd169 O168 2.223 . S
Cd169 O172 2.297 . S
Cd169 O173 2.439 . S
Cd169 O179 2.240 . S
Cd170 O171 2.240 . S
Cd170 O178 2.223 . S
Cd170 O180 2.297 . S
Cd170 O181 2.439 . S
O171 Cd170 2.240 . S
O171 C176 1.279 . S
O172 Cd169 2.297 . S
O172 C174 1.247 . S
O173 Cd169 2.439 . S
O173 C174 1.208 . S
C174 O172 1.247 . S
C174 O173 1.208 . S
C175 O180 1.254 . S
C175 O181 1.217 . S
C176 O168 1.315 . S
C176 O171 1.279 . S
C177 O178 1.315 . S
C177 O179 1.279 . S
O178 Cd170 2.223 . S
O178 C177 1.315 . S
O179 Cd169 2.240 . S
O179 C177 1.279 . S
O180 Cd170 2.297 . S
O180 C175 1.254 . S
O181 Cd170 2.439 . S
O181 C175 1.217 . S
O182 Cd183 2.223 . S
O182 C190 1.315 . S
Cd183 O182 2.223 . S
Cd183 O186 2.297 . S
Cd183 O187 2.439 . S
Cd183 O193 2.240 . S
Cd184 O185 2.240 . S
Cd184 O192 2.223 . S
Cd184 O194 2.297 . S
Cd184 O195 2.439 . S
O185 Cd184 2.240 . S
O185 C190 1.279 . S
O186 Cd183 2.297 . S
O186 C188 1.247 . S
O187 Cd183 2.439 . S
O187 C188 1.208 . S
C188 O186 1.247 . S
C188 O187 1.208 . S
C189 O194 1.247 . S
C189 O195 1.208 . S
C190 O182 1.315 . S
C190 O185 1.279 . S
C191 O192 1.315 . S
C191 O193 1.279 . S
O192 Cd184 2.223 . S
O192 C191 1.315 . S
O193 Cd183 2.240 . S
O193 C191 1.279 . S
O194 Cd184 2.297 . S
O194 C189 1.247 . S
O195 Cd184 2.439 . S
O195 C189 1.208 . S
O196 Cd197 2.223 . S
O196 C204 1.315 . S
Cd197 O196 2.223 . S
Cd197 O200 2.297 . S
Cd197 O201 2.439 . S
Cd197 O207 2.240 . S
Cd198 O199 2.240 . S
Cd198 O206 2.223 . S
Cd198 O208 2.297 . S
Cd198 O209 2.439 . S
O199 Cd198 2.240 . S
O199 C204 1.279 . S
O200 Cd197 2.297 . S
O200 C202 1.247 . S
O201 Cd197 2.439 . S
O201 C202 1.208 . S
C202 O200 1.247 . S
C202 O201 1.208 . S
C203 O208 1.247 . S
C203 O209 1.208 . S
C204 O196 1.315 . S
C204 O199 1.279 . S
C205 O206 1.315 . S
C205 O207 1.279 . S
O206 Cd198 2.223 . S
O206 C205 1.315 . S
O207 Cd197 2.240 . S
O207 C205 1.279 . S
O208 Cd198 2.297 . S
O208 C203 1.247 . S
O209 Cd198 2.439 . S
O209 C203 1.208 . S
O210 Cd211 2.223 . S
O210 C218 1.315 . S
Cd211 O210 2.223 . S
Cd211 O214 2.297 . S
Cd211 O215 2.439 . S
Cd211 O221 2.240 . S
Cd212 O213 2.240 . S
Cd212 O220 2.223 . S
Cd212 O222 2.297 . S
Cd212 O223 2.439 . S
O213 Cd212 2.240 . S
O213 C218 1.279 . S
O214 Cd211 2.297 . S
O214 C216 1.247 . S
O215 Cd211 2.439 . S
O215 C216 1.208 . S
C216 O214 1.247 . S
C216 O215 1.208 . S
C217 O222 1.247 . S
C217 O223 1.208 . S
C218 O210 1.315 . S
C218 O213 1.279 . S
C219 O220 1.315 . S
C219 O221 1.279 . S
O220 Cd212 2.223 . S
O220 C219 1.315 . S
O221 Cd211 2.240 . S
O221 C219 1.279 . S
O222 Cd212 2.297 . S
O222 C217 1.247 . S
O223 Cd212 2.439 . S
O223 C217 1.208 . S
O224 Cd225 2.223 . S
O224 C232 1.315 . S
Cd225 O224 2.223 . S
Cd225 O228 2.297 . S
Cd225 O229 2.439 . S
Cd225 O235 2.240 1_545 S
Cd226 O227 2.240 . S
Cd226 O234 2.223 1_545 S
Cd226 O236 2.297 1_545 S
Cd226 O237 2.439 . S
O227 Cd226 2.240 . S
O227 C232 1.279 . S
O228 Cd225 2.297 . S
O228 C230 1.247 . S
O229 Cd225 2.439 . S
O229 C230 1.208 . S
C230 O228 1.247 . S
C230 O229 1.208 . S
C231 O236 1.247 1_545 S
C231 O237 1.208 . S
C232 O224 1.315 . S
C232 O227 1.279 . S
C233 O234 1.315 . S
C233 O235 1.279 . S
O234 Cd226 2.223 1_565 S
O234 C233 1.315 . S
O235 Cd225 2.240 1_565 S
O235 C233 1.279 . S
O236 Cd226 2.297 1_565 S
O236 C231 1.247 1_565 S
O237 Cd226 2.439 . S
O237 C231 1.208 . S
O238 Cd239 2.223 . S
O238 C246 1.315 . S
Cd239 O238 2.223 . S
Cd239 O242 2.297 . S
Cd239 O243 2.439 . S
Cd239 O249 2.240 . S
Cd240 O241 2.240 . S
Cd240 O248 2.223 . S
Cd240 O250 2.297 . S
Cd240 O251 2.439 . S
O241 Cd240 2.240 . S
O241 C246 1.279 . S
O242 Cd239 2.297 . S
O242 C244 1.247 . S
O243 Cd239 2.439 . S
O243 C244 1.208 . S
C244 O242 1.247 . S
C244 O243 1.208 . S
C245 O250 1.247 . S
C245 O251 1.208 . S
C246 O238 1.315 . S
C246 O241 1.279 . S
C247 O248 1.315 . S
C247 O249 1.279 . S
O248 Cd240 2.223 . S
O248 C247 1.315 . S
O249 Cd239 2.240 . S
O249 C247 1.279 . S
O250 Cd240 2.297 . S
O250 C245 1.247 . S
O251 Cd240 2.439 . S
O251 C245 1.208 . S
O252 Cd253 2.223 . S
O252 C260 1.315 . S
Cd253 O252 2.223 . S
Cd253 O256 2.297 . S
Cd253 O257 2.439 . S
Cd253 O263 2.240 . S
Cd254 O255 2.240 . S
Cd254 O262 2.223 . S
Cd254 O264 2.297 . S
Cd254 O265 2.439 . S
O255 Cd254 2.240 . S
O255 C260 1.279 . S
O256 Cd253 2.297 . S
O256 C258 1.247 . S
O257 Cd253 2.439 . S
O257 C258 1.208 . S
C258 O256 1.247 . S
C258 O257 1.208 . S
C259 O264 1.247 . S
C259 O265 1.208 . S
C260 O252 1.315 . S
C260 O255 1.279 . S
C261 O262 1.315 . S
C261 O263 1.279 . S
O262 Cd254 2.223 . S
O262 C261 1.315 . S
O263 Cd253 2.240 . S
O263 C261 1.279 . S
O264 Cd254 2.297 . S
O264 C259 1.247 . S
O265 Cd254 2.439 . S
O265 C259 1.208 . S
O266 Cd267 2.223 . S
O266 C274 1.315 . S
Cd267 O266 2.223 . S
Cd267 O270 2.297 . S
Cd267 O271 2.439 . S
Cd267 O277 2.240 . S
Cd268 O269 2.240 . S
Cd268 O276 2.223 . S
Cd268 O278 2.297 . S
Cd268 O279 2.439 . S
O269 Cd268 2.240 . S
O269 C274 1.279 . S
O270 Cd267 2.297 . S
O270 C272 1.271 . S
O271 Cd267 2.439 . S
O271 C272 1.237 . S
C272 O270 1.271 . S
C272 O271 1.237 . S
C273 O278 1.247 . S
C273 O279 1.208 . S
C274 O266 1.315 . S
C274 O269 1.279 . S
C275 O276 1.315 . S
C275 O277 1.279 . S
O276 Cd268 2.223 . S
O276 C275 1.315 . S
O277 Cd267 2.240 . S
O277 C275 1.279 . S
O278 Cd268 2.297 . S
O278 C273 1.247 . S
O279 Cd268 2.439 . S
O279 C273 1.208 . S
O280 Cd281 2.223 . S
O280 C288 1.315 . S
Cd281 O280 2.223 . S
Cd281 O284 2.297 . S
Cd281 O285 2.439 . S
Cd281 O291 2.240 . S
Cd282 O283 2.240 . S
Cd282 O290 2.223 . S
Cd282 O292 2.297 1_554 S
Cd282 O293 2.439 1_554 S
O283 Cd282 2.240 . S
O283 C288 1.279 . S
O284 Cd281 2.297 . S
O284 C286 1.247 . S
O285 Cd281 2.439 . S
O285 C286 1.208 . S
C286 O284 1.247 . S
C286 O285 1.208 . S
C287 O292 1.247 . S
C287 O293 1.208 . S
C288 O280 1.315 . S
C288 O283 1.279 . S
C289 O290 1.315 . S
C289 O291 1.279 . S
O290 Cd282 2.223 . S
O290 C289 1.315 . S
O291 Cd281 2.240 . S
O291 C289 1.279 . S
O292 Cd282 2.297 1_556 S
O292 C287 1.247 . S
O293 Cd282 2.439 1_556 S
O293 C287 1.208 . S
O294 Cd295 2.223 . S
O294 C302 1.315 . S
Cd295 O294 2.223 . S
Cd295 O298 2.297 . S
Cd295 O299 2.439 . S
Cd295 O305 2.240 . S
Cd296 O297 2.240 . S
Cd296 O304 2.223 . S
Cd296 O306 2.297 . S
Cd296 O307 2.439 . S
O297 Cd296 2.240 . S
O297 C302 1.279 . S
O298 Cd295 2.297 . S
O298 C300 1.247 . S
O299 Cd295 2.439 . S
O299 C300 1.208 . S
C300 O298 1.247 . S
C300 O299 1.208 . S
C301 O306 1.247 . S
C301 O307 1.208 . S
C302 O294 1.315 . S
C302 O297 1.279 . S
C303 O304 1.315 . S
C303 O305 1.279 . S
O304 Cd296 2.223 . S
O304 C303 1.315 . S
O305 Cd295 2.240 . S
O305 C303 1.279 . S
O306 Cd296 2.297 . S
O306 C301 1.247 . S
O307 Cd296 2.439 . S
O307 C301 1.208 . S
O308 Cd309 2.223 . S
O308 C316 1.315 . S
Cd309 O308 2.223 . S
Cd309 O312 2.297 . S
Cd309 O313 2.439 . S
Cd309 O319 2.240 . S
Cd310 O311 2.240 . S
Cd310 O318 2.223 . S
Cd310 O320 2.297 . S
Cd310 O321 2.439 . S
O311 Cd310 2.240 . S
O311 C316 1.279 . S
O312 Cd309 2.297 . S
O312 C314 1.247 . S
O313 Cd309 2.439 . S
O313 C314 1.208 . S
C314 O312 1.247 . S
C314 O313 1.208 . S
C315 O320 1.247 . S
C315 O321 1.208 . S
C316 O308 1.315 . S
C316 O311 1.279 . S
C317 O318 1.315 . S
C317 O319 1.279 . S
O318 Cd310 2.223 . S
O318 C317 1.315 . S
O319 Cd309 2.240 . S
O319 C317 1.279 . S
O320 Cd310 2.297 . S
O320 C315 1.247 . S
O321 Cd310 2.439 . S
O321 C315 1.208 . S
O322 Cd323 2.223 . S
O322 C330 1.315 . S
Cd323 O322 2.223 . S
Cd323 O326 2.297 . S
Cd323 O327 2.439 . S
Cd323 O333 2.240 . S
Cd324 O325 2.240 . S
Cd324 O332 2.223 . S
Cd324 O334 2.297 . S
Cd324 O335 2.439 . S
O325 Cd324 2.240 . S
O325 C330 1.279 . S
O326 Cd323 2.297 . S
O326 C328 1.247 . S
O327 Cd323 2.439 . S
O327 C328 1.208 . S
C328 O326 1.247 . S
C328 O327 1.208 . S
C329 O334 1.247 . S
C329 O335 1.208 . S
C330 O322 1.315 . S
C330 O325 1.279 . S
C331 O332 1.315 . S
C331 O333 1.279 . S
O332 Cd324 2.223 . S
O332 C331 1.315 . S
O333 Cd323 2.240 . S
O333 C331 1.279 . S
O334 Cd324 2.297 . S
O334 C329 1.247 . S
O335 Cd324 2.439 . S
O335 C329 1.208 . S
Tb336 N365 2.617 . S
Tb336 N371 2.572 . S
Tb336 O380 2.465 . S
Tb336 O381 2.387 . S
Tb336 O383 2.428 . S
Tb336 O384 2.308 . S
Tb336 O388 2.349 . S
Tb336 O391 2.393 . S
Tb336 C400 2.802 . S
C337 N338 1.393 . S
C337 C340 1.416 1_554 S
C337 C344 1.424 . S
N338 C337 1.393 . S
N338 C341 1.303 1_554 S
N338 Tb347 2.637 1_565 S
C339 C341 1.390 . S
C339 C342 1.339 . S
C339 H359 0.930 . S
C340 C337 1.416 1_556 S
C340 C342 1.416 . S
C340 C346 1.448 . S
C341 N338 1.303 1_556 S
C341 C339 1.390 . S
C341 H352 0.930 1_565 S
C342 C339 1.339 . S
C342 C340 1.416 . S
C342 H363 0.930 . S
C343 C344 1.413 . S
C343 C345 1.427 . S
C343 C349 1.416 . S
C344 C337 1.424 . S
C344 C343 1.413 . S
C344 N348 1.361 . S
C345 C343 1.427 . S
C345 C346 1.328 1_554 S
C345 H360 0.929 . S
C346 C340 1.448 . S
C346 C345 1.328 1_556 S
C346 H361 0.930 . S
Tb347 N338 2.637 1_545 S
Tb347 N348 2.572 1_545 S
Tb347 O382 2.349 1_655 S
Tb347 O385 2.393 1_655 S
Tb347 O386 2.465 . S
Tb347 O387 2.387 1_645 S
Tb347 O389 2.428 . S
Tb347 O390 2.308 1_655 S
Tb347 C411 2.802 . S
N348 C344 1.361 . S
N348 Tb347 2.572 1_565 S
N348 C350 1.340 . S
C349 C343 1.416 . S
C349 C351 1.332 . S
C349 H357 0.931 . S
C350 N348 1.340 . S
C350 C351 1.407 . S
C350 H356 0.930 1_565 S
C351 C349 1.332 . S
C351 C350 1.407 . S
C351 H353 0.929 . S
H352 C341 0.930 1_545 S
H353 C351 0.929 . S
H354 C369 0.930 . S
H355 C376 0.929 . S
H356 C350 0.930 1_545 S
H357 C349 0.931 . S
H358 C372 0.930 . S
H359 C339 0.930 . S
H360 C345 0.929 . S
H361 C346 0.930 . S
H362 C367 0.930 . S
H363 C342 0.930 . S
H364 C375 0.931 . S
N365 Tb336 2.617 . S
N365 C366 1.379 . S
N365 C369 1.334 . S
C366 N365 1.379 . S
C366 C368 1.416 . S
C366 C374 1.424 . S
C367 H362 0.930 . S
C367 C369 1.390 . S
C367 C370 1.339 . S
C368 C366 1.416 . S
C368 C370 1.416 . S
C368 C401 1.448 . S
C369 H354 0.930 . S
C369 N365 1.334 . S
C369 C367 1.390 . S
C370 C367 1.339 . S
C370 C368 1.416 . S
C370 H377 0.930 . S
N371 Tb336 2.572 . S
N371 C372 1.340 . S
N371 C374 1.361 . S
C372 H358 0.930 . S
C372 N371 1.340 . S
C372 C376 1.407 . S
C373 C374 1.413 . S
C373 C375 1.416 . S
C373 C402 1.427 . S
C374 C366 1.424 . S
C374 N371 1.361 . S
C374 C373 1.413 . S
C375 H364 0.931 . S
C375 C373 1.416 . S
C375 C376 1.332 . S
C376 H355 0.929 . S
C376 C372 1.407 . S
C376 C375 1.332 . S
H377 C370 0.930 . S
H378 C401 0.930 . S
H379 C402 0.929 . S
O380 Tb336 2.465 . S
O380 C400 1.264 . S
O381 Tb336 2.387 . S
O381 C392 1.264 . S
O382 Tb347 2.349 1_455 S
O382 C392 1.243 . S
O383 Tb336 2.428 . S
O383 C400 1.256 . S
O384 Tb336 2.308 . S
O384 C399 1.266 . S
O385 Tb347 2.393 1_455 S
O385 C399 1.248 . S
O386 Tb347 2.465 . S
O386 C411 1.264 . S
O387 Tb347 2.387 1_465 S
O387 C403 1.264 . S
O388 Tb336 2.349 . S
O388 C403 1.243 1_545 S
O389 Tb347 2.428 . S
O389 C411 1.256 . S
O390 Tb347 2.308 1_455 S
O390 C410 1.266 . S
O391 Tb336 2.393 . S
O391 C410 1.248 . S
C392 O381 1.264 . S
C392 O382 1.243 . S
C393 C396 1.399 . S
C393 C398 1.383 . S
C393 C400 1.496 . S
C394 C395 1.399 . S
C394 C398 1.389 . S
C395 C394 1.399 . S
C395 C397 1.380 . S
C395 H412 0.929 . S
C396 C393 1.399 . S
C396 C397 1.392 . S
C396 H413 0.929 . S
C397 C395 1.380 . S
C397 C396 1.392 . S
C397 H414 0.929 . S
C398 C393 1.383 . S
C398 C394 1.389 . S
C398 H415 0.931 . S
C399 O384 1.266 . S
C399 O385 1.248 . S
C400 Tb336 2.802 . S
C400 O380 1.264 . S
C400 O383 1.256 . S
C400 C393 1.496 . S
C401 C368 1.448 . S
C401 H378 0.930 . S
C401 C402 1.328 . S
C402 C373 1.427 . S
C402 H379 0.929 . S
C402 C401 1.328 . S
C403 O387 1.264 . S
C403 O388 1.243 1_565 S
C404 C407 1.399 1_554 S
C404 C408 1.383 . S
C404 C411 1.496 . S
C405 C406 1.399 . S
C405 C408 1.389 . S
C406 C405 1.399 . S
C406 C409 1.380 1_554 S
C406 H416 0.929 . S
C407 C404 1.399 1_556 S
C407 C409 1.392 . S
C407 H417 0.929 . S
C408 C404 1.383 . S
C408 C405 1.389 . S
C408 H418 0.931 . S
C409 C406 1.380 1_556 S
C409 C407 1.392 . S
C409 H419 0.929 . S
C410 O390 1.266 . S
C410 O391 1.248 . S
C411 Tb347 2.802 . S
C411 O386 1.264 . S
C411 O389 1.256 . S
C411 C404 1.496 . S
H412 C395 0.929 . S
H413 C396 0.929 . S
H414 C397 0.929 . S
H415 C398 0.931 . S
H416 C406 0.929 . S
H417 C407 0.929 . S
H418 C408 0.931 . S
H419 C409 0.929 . S
Tb420 N449 2.617 . S
Tb420 N455 2.572 . S
Tb420 O464 2.465 . S
Tb420 O465 2.387 . S
Tb420 O467 2.428 . S
Tb420 O468 2.308 . S
Tb420 O472 2.349 . S
Tb420 O475 2.393 . S
Tb420 C484 2.802 . S
C421 N422 1.379 . S
C421 C424 1.416 . S
C421 C428 1.424 . S
N422 C421 1.379 . S
N422 C425 1.334 . S
N422 Tb431 2.617 . S
C423 C425 1.390 . S
C423 C426 1.339 . S
C423 H443 0.930 . S
C424 C421 1.416 . S
C424 C426 1.416 . S
C424 C430 1.448 . S
C425 N422 1.334 . S
C425 C423 1.390 . S
C425 H436 0.930 . S
C426 C423 1.339 . S
C426 C424 1.416 . S
C426 H447 0.930 . S
C427 C428 1.413 . S
C427 C429 1.427 . S
C427 C433 1.416 . S
C428 C421 1.424 . S
C428 C427 1.413 . S
C428 N432 1.361 . S
C429 C427 1.427 . S
C429 C430 1.328 . S
C429 H444 0.929 . S
C430 C424 1.448 . S
C430 C429 1.328 . S
C430 H445 0.930 . S
Tb431 N422 2.617 . S
Tb431 N432 2.572 . S
Tb431 O466 2.349 . S
Tb431 O469 2.393 . S
Tb431 O470 2.465 . S
Tb431 O471 2.387 . S
Tb431 O473 2.428 . S
Tb431 O474 2.308 . S
Tb431 C495 2.802 . S
N432 C428 1.361 . S
N432 Tb431 2.572 . S
N432 C434 1.340 . S
C433 C427 1.416 . S
C433 C435 1.332 . S
C433 H441 0.931 . S
C434 N432 1.340 . S
C434 C435 1.407 . S
C434 H440 0.930 . S
C435 C433 1.332 . S
C435 C434 1.407 . S
C435 H437 0.929 . S
H436 C425 0.930 . S
H437 C435 0.929 . S
H438 C453 0.930 . S
H439 C460 0.929 . S
H440 C434 0.930 . S
H441 C433 0.931 . S
H442 C456 0.930 . S
H443 C423 0.930 . S
H444 C429 0.929 . S
H445 C430 0.930 . S
H446 C451 0.930 . S
H447 C426 0.930 . S
H448 C459 0.931 . S
N449 Tb420 2.617 . S
N449 C450 1.379 . S
N449 C453 1.334 . S
C450 N449 1.379 . S
C450 C452 1.416 . S
C450 C458 1.424 . S
C451 H446 0.930 . S
C451 C453 1.390 . S
C451 C454 1.339 . S
C452 C450 1.416 . S
C452 C454 1.416 . S
C452 C485 1.448 . S
C453 H438 0.930 . S
C453 N449 1.334 . S
C453 C451 1.390 . S
C454 C451 1.339 . S
C454 C452 1.416 . S
C454 H461 0.930 . S
N455 Tb420 2.572 . S
N455 C456 1.340 . S
N455 C458 1.361 . S
C456 H442 0.930 . S
C456 N455 1.340 . S
C456 C460 1.407 . S
C457 C458 1.413 . S
C457 C459 1.416 . S
C457 C486 1.427 . S
C458 C450 1.424 . S
C458 N455 1.361 . S
C458 C457 1.413 . S
C459 H448 0.931 . S
C459 C457 1.416 . S
C459 C460 1.332 . S
C460 H439 0.929 . S
C460 C456 1.407 . S
C460 C459 1.332 . S
H461 C454 0.930 . S
H462 C485 0.930 . S
H463 C486 0.929 . S
O464 Tb420 2.465 . S
O464 C484 1.264 . S
O465 Tb420 2.387 . S
O465 C476 1.264 . S
O466 Tb431 2.349 . S
O466 C476 1.243 . S
O467 Tb420 2.428 . S
O467 C484 1.256 . S
O468 Tb420 2.308 . S
O468 C483 1.266 . S
O469 Tb431 2.393 . S
O469 C483 1.248 . S
O470 Tb431 2.465 . S
O470 C495 1.264 . S
O471 Tb431 2.387 . S
O471 C487 1.264 . S
O472 Tb420 2.349 . S
O472 C487 1.243 . S
O473 Tb431 2.428 . S
O473 C495 1.256 . S
O474 Tb431 2.308 . S
O474 C494 1.266 . S
O475 Tb420 2.393 . S
O475 C494 1.248 . S
C476 O465 1.264 . S
C476 O466 1.243 . S
C477 C480 1.399 . S
C477 C482 1.383 . S
C477 C484 1.496 . S
C478 C479 1.399 . S
C478 C482 1.389 . S
C479 C478 1.399 . S
C479 C481 1.380 . S
C479 H496 0.929 . S
C480 C477 1.399 . S
C480 C481 1.392 . S
C480 H497 0.929 . S
C481 C479 1.380 . S
C481 C480 1.392 . S
C481 H498 0.929 . S
C482 C477 1.383 . S
C482 C478 1.389 . S
C482 H499 0.931 . S
C483 O468 1.266 . S
C483 O469 1.248 . S
C484 Tb420 2.802 . S
C484 O464 1.264 . S
C484 O467 1.256 . S
C484 C477 1.496 . S
C485 C452 1.448 . S
C485 H462 0.930 . S
C485 C486 1.328 . S
C486 C457 1.427 . S
C486 H463 0.929 . S
C486 C485 1.328 . S
C487 O471 1.264 . S
C487 O472 1.243 . S
C488 C491 1.399 . S
C488 C492 1.383 . S
C488 C495 1.496 . S
C489 C490 1.399 . S
C489 C492 1.389 . S
C490 C489 1.399 . S
C490 C493 1.380 . S
C490 H500 0.929 . S
C491 C488 1.399 . S
C491 C493 1.392 . S
C491 H501 0.929 . S
C492 C488 1.383 . S
C492 C489 1.389 . S
C492 H502 0.931 . S
C493 C490 1.380 . S
C493 C491 1.392 . S
C493 H503 0.929 . S
C494 O474 1.266 . S
C494 O475 1.248 . S
C495 Tb431 2.802 . S
C495 O470 1.264 . S
C495 O473 1.256 . S
C495 C488 1.496 . S
H496 C479 0.929 . S
H497 C480 0.929 . S
H498 C481 0.929 . S
H499 C482 0.931 . S
H500 C490 0.929 . S
H501 C491 0.929 . S
H502 C492 0.931 . S
H503 C493 0.929 . S
Tb504 N533 2.617 1_545 S
Tb504 N539 2.572 1_545 S
Tb504 O548 2.465 . S
Tb504 O549 2.387 1_545 S
Tb504 O551 2.428 . S
Tb504 O552 2.308 . S
Tb504 O556 2.349 . S
Tb504 O559 2.393 . S
Tb504 C568 2.802 . S
C505 N506 1.379 . S
C505 C508 1.416 . S
C505 C512 1.424 . S
N506 C505 1.379 . S
N506 C509 1.334 . S
N506 Tb515 2.617 . S
C507 C509 1.390 . S
C507 C510 1.339 . S
C507 H527 0.930 . S
C508 C505 1.416 . S
C508 C510 1.416 . S
C508 C514 1.448 . S
C509 N506 1.334 . S
C509 C507 1.390 . S
C509 H520 0.930 . S
C510 C507 1.339 . S
C510 C508 1.416 . S
C510 H531 0.930 . S
C511 C512 1.413 . S
C511 C513 1.427 . S
C511 C517 1.416 . S
C512 C505 1.424 . S
C512 C511 1.413 . S
C512 N516 1.361 . S
C513 C511 1.427 . S
C513 C514 1.328 . S
C513 H528 0.929 . S
C514 C508 1.448 . S
C514 C513 1.328 . S
C514 H529 0.930 . S
Tb515 N506 2.617 . S
Tb515 N516 2.572 . S
Tb515 O550 2.349 1_545 S
Tb515 O553 2.393 . S
Tb515 O554 2.465 . S
Tb515 O555 2.387 . S
Tb515 O557 2.428 . S
Tb515 O558 2.308 . S
Tb515 C579 2.802 . S
N516 C512 1.361 . S
N516 Tb515 2.572 . S
N516 C518 1.340 . S
C517 C511 1.416 . S
C517 C519 1.332 . S
C517 H525 0.931 . S
C518 N516 1.340 . S
C518 C519 1.407 . S
C518 H524 0.930 . S
C519 C517 1.332 . S
C519 C518 1.407 . S
C519 H521 0.929 . S
H520 C509 0.930 . S
H521 C519 0.929 . S
H522 C537 0.930 1_545 S
H523 C544 0.929 . S
H524 C518 0.930 . S
H525 C517 0.931 . S
H526 C540 0.930 . S
H527 C507 0.930 . S
H528 C513 0.929 . S
H529 C514 0.930 . S
H530 C535 0.930 . S
H531 C510 0.930 . S
H532 C543 0.931 . S
N533 Tb504 2.617 1_565 S
N533 C534 1.379 . S
N533 C537 1.334 . S
C534 N533 1.379 . S
C534 C536 1.416 . S
C534 C542 1.424 . S
C535 H530 0.930 . S
C535 C537 1.390 . S
C535 C538 1.339 . S
C536 C534 1.416 . S
C536 C538 1.416 . S
C536 C569 1.448 . S
C537 H522 0.930 1_565 S
C537 N533 1.334 . S
C537 C535 1.390 . S
C538 C535 1.339 . S
C538 C536 1.416 . S
C538 H545 0.930 . S
N539 Tb504 2.572 1_565 S
N539 C540 1.340 . S
N539 C542 1.361 . S
C540 H526 0.930 . S
C540 N539 1.340 . S
C540 C544 1.407 . S
C541 C542 1.413 . S
C541 C543 1.416 . S
C541 C570 1.427 . S
C542 C534 1.424 . S
C542 N539 1.361 . S
C542 C541 1.413 . S
C543 H532 0.931 . S
C543 C541 1.416 . S
C543 C544 1.332 . S
C544 H523 0.929 . S
C544 C540 1.407 . S
C544 C543 1.332 . S
H545 C538 0.930 . S
H546 C569 0.930 . S
H547 C570 0.929 . S
O548 Tb504 2.465 . S
O548 C568 1.264 . S
O549 Tb504 2.387 1_565 S
O549 C560 1.264 . S
O550 Tb515 2.349 1_565 S
O550 C560 1.243 . S
O551 Tb504 2.428 . S
O551 C568 1.256 . S
O552 Tb504 2.308 . S
O552 C567 1.266 . S
O553 Tb515 2.393 . S
O553 C567 1.248 . S
O554 Tb515 2.465 . S
O554 C579 1.264 . S
O555 Tb515 2.387 . S
O555 C571 1.264 . S
O556 Tb504 2.349 . S
O556 C571 1.243 . S
O557 Tb515 2.428 . S
O557 C579 1.256 . S
O558 Tb515 2.308 . S
O558 C578 1.266 . S
O559 Tb504 2.393 . S
O559 C578 1.248 . S
C560 O549 1.264 . S
C560 O550 1.243 . S
C561 C564 1.399 . S
C561 C566 1.383 . S
C561 C568 1.496 . S
C562 C563 1.399 . S
C562 C566 1.389 . S
C563 C562 1.399 . S
C563 C565 1.380 . S
C563 H580 0.929 . S
C564 C561 1.399 . S
C564 C565 1.392 . S
C564 H581 0.929 . S
C565 C563 1.380 . S
C565 C564 1.392 . S
C565 H582 0.929 . S
C566 C561 1.383 . S
C566 C562 1.389 . S
C566 H583 0.931 . S
C567 O552 1.266 . S
C567 O553 1.248 . S
C568 Tb504 2.802 . S
C568 O548 1.264 . S
C568 O551 1.256 . S
C568 C561 1.496 . S
C569 C536 1.448 . S
C569 H546 0.930 . S
C569 C570 1.328 . S
C570 C541 1.427 . S
C570 H547 0.929 . S
C570 C569 1.328 . S
C571 O555 1.264 . S
C571 O556 1.243 . S
C572 C575 1.399 . S
C572 C576 1.383 . S
C572 C579 1.496 1_565 S
C573 C574 1.399 . S
C573 C576 1.389 . S
C574 C573 1.399 . S
C574 C577 1.380 . S
C574 H584 0.929 . S
C575 C572 1.399 . S
C575 C577 1.392 . S
C575 H585 0.929 . S
C576 C572 1.383 . S
C576 C573 1.389 . S
C576 H586 0.931 . S
C577 C574 1.380 . S
C577 C575 1.392 . S
C577 H587 0.929 . S
C578 O558 1.266 . S
C578 O559 1.248 . S
C579 Tb515 2.802 . S
C579 O554 1.264 . S
C579 O557 1.256 . S
C579 C572 1.496 1_545 S
H580 C563 0.929 . S
H581 C564 0.929 . S
H582 C565 0.929 . S
H583 C566 0.931 . S
H584 C574 0.929 . S
H585 C575 0.929 . S
H586 C576 0.931 . S
H587 C577 0.929 . S
Tb588 N617 2.617 . S
Tb588 N623 2.572 . S
Tb588 O632 2.465 . S
Tb588 O633 2.387 . S
Tb588 O635 2.428 . S
Tb588 O636 2.308 . S
Tb588 O640 2.349 . S
Tb588 O643 2.393 . S
Tb588 C652 2.802 . S
C589 N590 1.379 . S
C589 C592 1.416 . S
C589 C596 1.424 . S
N590 C589 1.379 . S
N590 C593 1.334 . S
N590 Tb599 2.617 . S
C591 C593 1.390 . S
C591 C594 1.339 . S
C591 H611 0.930 . S
C592 C589 1.416 . S
C592 C594 1.416 . S
C592 C598 1.448 . S
C593 N590 1.334 . S
C593 C591 1.390 . S
C593 H604 0.930 . S
C594 C591 1.339 . S
C594 C592 1.416 . S
C594 H615 0.930 . S
C595 C596 1.413 . S
C595 C597 1.427 . S
C595 C601 1.416 . S
C596 C589 1.424 . S
C596 C595 1.413 . S
C596 N600 1.361 . S
C597 C595 1.427 . S
C597 C598 1.328 . S
C597 H612 0.929 . S
C598 C592 1.448 . S
C598 C597 1.328 . S
C598 H613 0.930 . S
Tb599 N590 2.617 . S
Tb599 N600 2.572 . S
Tb599 O634 2.349 . S
Tb599 O637 2.393 . S
Tb599 O638 2.465 . S
Tb599 O639 2.387 . S
Tb599 O641 2.428 . S
Tb599 O642 2.308 . S
Tb599 C663 2.802 . S
N600 C596 1.361 . S
N600 Tb599 2.572 . S
N600 C602 1.340 . S
C601 C595 1.416 . S
C601 C603 1.332 . S
C601 H609 0.931 . S
C602 N600 1.340 . S
C602 C603 1.407 . S
C602 H608 0.930 . S
C603 C601 1.332 . S
C603 C602 1.407 . S
C603 H605 0.929 . S
H604 C593 0.930 . S
H605 C603 0.929 . S
H606 C621 0.930 . S
H607 C628 0.929 . S
H608 C602 0.930 . S
H609 C601 0.931 . S
H610 C624 0.930 . S
H611 C591 0.930 . S
H612 C597 0.929 . S
H613 C598 0.930 . S
H614 C619 0.930 . S
H615 C594 0.930 . S
H616 C627 0.931 . S
N617 Tb588 2.617 . S
N617 C618 1.379 . S
N617 C621 1.334 . S
C618 N617 1.379 . S
C618 C620 1.416 . S
C618 C626 1.424 . S
C619 H614 0.930 . S
C619 C621 1.390 . S
C619 C622 1.339 . S
C620 C618 1.416 . S
C620 C622 1.416 . S
C620 C653 1.448 . S
C621 H606 0.930 . S
C621 N617 1.334 . S
C621 C619 1.390 . S
C622 C619 1.339 . S
C622 C620 1.416 . S
C622 H629 0.930 . S
N623 Tb588 2.572 . S
N623 C624 1.340 . S
N623 C626 1.361 . S
C624 H610 0.930 . S
C624 N623 1.340 . S
C624 C628 1.407 . S
C625 C626 1.413 . S
C625 C627 1.416 . S
C625 C654 1.427 . S
C626 C618 1.424 . S
C626 N623 1.361 . S
C626 C625 1.413 . S
C627 H616 0.931 . S
C627 C625 1.416 . S
C627 C628 1.332 . S
C628 H607 0.929 . S
C628 C624 1.407 . S
C628 C627 1.332 . S
H629 C622 0.930 . S
H630 C653 0.930 . S
H631 C654 0.929 . S
O632 Tb588 2.465 . S
O632 C652 1.264 . S
O633 Tb588 2.387 . S
O633 C644 1.264 . S
O634 Tb599 2.349 . S
O634 C644 1.243 . S
O635 Tb588 2.428 . S
O635 C652 1.256 . S
O636 Tb588 2.308 . S
O636 C651 1.266 . S
O637 Tb599 2.393 . S
O637 C651 1.248 . S
O638 Tb599 2.465 . S
O638 C663 1.264 . S
O639 Tb599 2.387 . S
O639 C655 1.264 . S
O640 Tb588 2.349 . S
O640 C655 1.243 . S
O641 Tb599 2.428 . S
O641 C663 1.256 . S
O642 Tb599 2.308 . S
O642 C662 1.266 . S
O643 Tb588 2.393 . S
O643 C662 1.248 . S
C644 O633 1.264 . S
C644 O634 1.243 . S
C645 C648 1.399 . S
C645 C650 1.383 . S
C645 C652 1.496 . S
C646 C647 1.399 . S
C646 C650 1.389 . S
C647 C646 1.399 . S
C647 C649 1.380 . S
C647 H664 0.929 . S
C648 C645 1.399 . S
C648 C649 1.392 . S
C648 H665 0.929 . S
C649 C647 1.380 . S
C649 C648 1.392 . S
C649 H666 0.929 . S
C650 C645 1.383 . S
C650 C646 1.389 . S
C650 H667 0.931 . S
C651 O636 1.266 . S
C651 O637 1.248 . S
C652 Tb588 2.802 . S
C652 O632 1.264 . S
C652 O635 1.256 . S
C652 C645 1.496 . S
C653 C620 1.448 . S
C653 H630 0.930 . S
C653 C654 1.328 . S
C654 C625 1.427 . S
C654 H631 0.929 . S
C654 C653 1.328 . S
C655 O639 1.264 . S
C655 O640 1.243 . S
C656 C659 1.399 . S
C656 C660 1.383 . S
C656 C663 1.496 . S
C657 C658 1.399 . S
C657 C660 1.389 . S
C658 C657 1.399 . S
C658 C661 1.380 . S
C658 H668 0.929 . S
C659 C656 1.399 . S
C659 C661 1.392 . S
C659 H669 0.929 . S
C660 C656 1.383 . S
C660 C657 1.389 . S
C660 H670 0.931 . S
C661 C658 1.380 . S
C661 C659 1.392 . S
C661 H671 0.929 . S
C662 O642 1.266 . S
C662 O643 1.248 . S
C663 Tb599 2.802 . S
C663 O638 1.264 . S
C663 O641 1.256 . S
C663 C656 1.496 . S
H664 C647 0.929 . S
H665 C648 0.929 . S
H666 C649 0.929 . S
H667 C650 0.931 . S
H668 C658 0.929 . S
H669 C659 0.929 . S
H670 C660 0.931 . S
H671 C661 0.929 . S
Tb672 N701 2.632 . S
Tb672 N707 2.596 . S
Tb672 O716 2.498 . S
Tb672 O717 2.364 1_565 S
Tb672 O719 2.459 . S
Tb672 O720 2.295 1_565 S
Tb672 O724 2.337 1_565 S
Tb672 O727 2.369 1_565 S
Tb672 C736 2.838 . S
C673 N674 1.379 . S
C673 C676 1.416 . S
C673 C680 1.424 . S
N674 C673 1.379 . S
N674 C677 1.334 1_455 S
N674 Tb683 2.617 . S
C675 C677 1.390 . S
C675 C678 1.339 . S
C675 H695 0.930 . S
C676 C673 1.416 . S
C676 C678 1.416 1_455 S
C676 C682 1.448 . S
C677 N674 1.334 1_655 S
C677 C675 1.390 . S
C677 H688 0.930 . S
C678 C675 1.339 . S
C678 C676 1.416 1_655 S
C678 H699 0.930 . S
C679 C680 1.413 . S
C679 C681 1.427 . S
C679 C685 1.416 . S
C680 C673 1.424 . S
C680 C679 1.413 . S
C680 N684 1.361 . S
C681 C679 1.427 . S
C681 C682 1.328 . S
C681 H696 0.929 . S
C682 C676 1.448 . S
C682 C681 1.328 . S
C682 H697 0.930 . S
Tb683 N674 2.617 . S
Tb683 N684 2.572 . S
Tb683 O718 2.349 . S
Tb683 O721 2.393 1_455 S
Tb683 O722 2.465 . S
Tb683 O723 2.387 . S
Tb683 O725 2.428 . S
Tb683 O726 2.308 . S
Tb683 C747 2.802 . S
N684 C680 1.361 . S
N684 Tb683 2.572 . S
N684 C686 1.340 . S
C685 C679 1.416 . S
C685 C687 1.332 . S
C685 H693 0.931 . S
C686 N684 1.340 . S
C686 C687 1.407 . S
C686 H692 0.930 . S
C687 C685 1.332 . S
C687 C686 1.407 . S
C687 H689 0.929 . S
H688 C677 0.930 . S
H689 C687 0.929 . S
H690 C705 0.930 1_545 S
H691 C712 0.929 . S
H692 C686 0.930 . S
H693 C685 0.931 . S
H694 C708 0.930 1_655 S
H695 C675 0.930 . S
H696 C681 0.929 . S
H697 C682 0.930 . S
H698 C703 0.930 . S
H699 C678 0.930 . S
H700 C711 0.930 1_655 S
N701 Tb672 2.632 . S
N701 C702 1.379 . S
N701 C705 1.334 . S
C702 N701 1.379 . S
C702 C704 1.416 . S
C702 C710 1.424 . S
C703 H698 0.930 . S
C703 C705 1.390 . S
C703 C706 1.339 . S
C704 C702 1.416 . S
C704 C706 1.416 . S
C704 C737 1.448 . S
C705 H690 0.930 1_565 S
C705 N701 1.334 . S
C705 C703 1.390 . S
C706 C703 1.339 . S
C706 C704 1.416 . S
C706 H713 0.930 . S
N707 Tb672 2.596 . S
N707 C708 1.340 . S
N707 C710 1.361 . S
C708 H694 0.930 1_455 S
C708 N707 1.340 . S
C708 C712 1.407 1_455 S
C709 C710 1.413 . S
C709 C711 1.418 . S
C709 C738 1.427 . S
C710 C702 1.424 . S
C710 N707 1.361 . S
C710 C709 1.413 . S
C711 H700 0.930 1_455 S
C711 C709 1.418 . S
C711 C712 1.331 1_455 S
C712 H691 0.929 . S
C712 C708 1.407 1_655 S
C712 C711 1.331 1_655 S
H713 C706 0.930 . S
H714 C737 0.930 . S
H715 C738 0.929 . S
O716 Tb672 2.498 . S
O716 C736 1.264 . S
O717 Tb672 2.364 1_545 S
O717 C728 1.264 . S
O718 Tb683 2.349 . S
O718 C728 1.243 . S
O719 Tb672 2.459 . S
O719 C736 1.256 . S
O720 Tb672 2.295 1_545 S
O720 C735 1.266 1_455 S
O721 Tb683 2.393 1_655 S
O721 C735 1.248 . S
O722 Tb683 2.465 . S
O722 C747 1.264 . S
O723 Tb683 2.387 . S
O723 C739 1.264 . S
O724 Tb672 2.337 1_545 S
O724 C739 1.243 . S
O725 Tb683 2.428 . S
O725 C747 1.256 . S
O726 Tb683 2.308 . S
O726 C746 1.266 . S
O727 Tb672 2.369 1_545 S
O727 C746 1.248 . S
C728 O717 1.264 . S
C728 O718 1.243 . S
C729 C732 1.399 . S
C729 C734 1.383 . S
C729 C736 1.496 . S
C730 C731 1.399 . S
C730 C734 1.389 . S
C731 C730 1.399 . S
C731 C733 1.380 . S
C731 H748 0.929 . S
C732 C729 1.399 . S
C732 C733 1.392 . S
C732 H749 0.929 . S
C733 C731 1.380 . S
C733 C732 1.392 . S
C733 H750 0.929 . S
C734 C729 1.383 . S
C734 C730 1.389 . S
C734 H751 0.931 . S
C735 O720 1.266 1_655 S
C735 O721 1.248 . S
C736 Tb672 2.838 . S
C736 O716 1.264 . S
C736 O719 1.256 . S
C736 C729 1.496 . S
C737 C704 1.448 . S
C737 H714 0.930 . S
C737 C738 1.328 . S
C738 C709 1.427 . S
C738 H715 0.929 . S
C738 C737 1.328 . S
C739 O723 1.264 . S
C739 O724 1.243 . S
C740 C743 1.399 1_455 S
C740 C744 1.383 . S
C740 C747 1.496 . S
C741 C742 1.399 . S
C741 C744 1.389 . S
C742 C741 1.399 . S
C742 C745 1.380 1_455 S
C742 H752 0.929 . S
C743 C740 1.399 1_655 S
C743 C745 1.392 . S
C743 H753 0.929 . S
C744 C740 1.383 . S
C744 C741 1.389 . S
C744 H754 0.931 . S
C745 C742 1.380 1_655 S
C745 C743 1.392 . S
C745 H755 0.929 . S
C746 O726 1.266 . S
C746 O727 1.248 . S
C747 Tb683 2.802 . S
C747 O722 1.264 . S
C747 O725 1.256 . S
C747 C740 1.496 . S
H748 C731 0.929 . S
H749 C732 0.929 . S
H750 C733 0.929 . S
H751 C734 0.931 . S
H752 C742 0.929 . S
H753 C743 0.929 . S
H754 C744 0.931 . S
H755 C745 0.929 . S
Tb756 N785 2.617 . S
Tb756 N791 2.572 . S
Tb756 O800 2.465 . S
Tb756 O801 2.387 . S
Tb756 O803 2.428 . S
Tb756 O804 2.308 . S
Tb756 O808 2.349 . S
Tb756 O811 2.393 . S
Tb756 C820 2.802 . S
C757 N758 1.379 . S
C757 C760 1.416 . S
C757 C764 1.424 . S
N758 C757 1.379 . S
N758 C761 1.334 . S
N758 Tb767 2.617 . S
C759 C761 1.390 . S
C759 C762 1.339 . S
C759 H779 0.930 . S
C760 C757 1.416 . S
C760 C762 1.416 . S
C760 C766 1.448 . S
C761 N758 1.334 . S
C761 C759 1.390 . S
C761 H772 0.930 . S
C762 C759 1.339 . S
C762 C760 1.416 . S
C762 H783 0.930 . S
C763 C764 1.413 . S
C763 C765 1.427 . S
C763 C769 1.416 . S
C764 C757 1.424 . S
C764 C763 1.413 . S
C764 N768 1.361 . S
C765 C763 1.427 . S
C765 C766 1.328 . S
C765 H780 0.929 . S
C766 C760 1.448 . S
C766 C765 1.328 . S
C766 H781 0.930 . S
Tb767 N758 2.617 . S
Tb767 N768 2.572 . S
Tb767 O802 2.349 . S
Tb767 O805 2.393 . S
Tb767 O806 2.465 . S
Tb767 O807 2.387 . S
Tb767 O809 2.428 . S
Tb767 O810 2.308 . S
Tb767 C831 2.802 . S
N768 C764 1.361 . S
N768 Tb767 2.572 . S
N768 C770 1.340 . S
C769 C763 1.416 . S
C769 C771 1.332 . S
C769 H777 0.931 . S
C770 N768 1.340 . S
C770 C771 1.407 . S
C770 H776 0.930 . S
C771 C769 1.332 . S
C771 C770 1.407 . S
C771 H773 0.929 . S
H772 C761 0.930 . S
H773 C771 0.929 . S
H774 C789 0.930 . S
H775 C796 0.929 . S
H776 C770 0.930 . S
H777 C769 0.931 . S
H778 C792 0.930 . S
H779 C759 0.930 . S
H780 C765 0.929 . S
H781 C766 0.930 . S
H782 C787 0.930 . S
H783 C762 0.930 . S
H784 C795 0.931 . S
N785 Tb756 2.617 . S
N785 C786 1.379 . S
N785 C789 1.334 . S
C786 N785 1.379 . S
C786 C788 1.416 . S
C786 C794 1.424 . S
C787 H782 0.930 . S
C787 C789 1.390 . S
C787 C790 1.339 . S
C788 C786 1.416 . S
C788 C790 1.416 . S
C788 C821 1.448 . S
C789 H774 0.930 . S
C789 N785 1.334 . S
C789 C787 1.390 . S
C790 C787 1.339 . S
C790 C788 1.416 . S
C790 H797 0.930 . S
N791 Tb756 2.572 . S
N791 C792 1.340 . S
N791 C794 1.361 . S
C792 H778 0.930 . S
C792 N791 1.340 . S
C792 C796 1.407 . S
C793 C794 1.413 . S
C793 C795 1.416 . S
C793 C822 1.427 . S
C794 C786 1.424 . S
C794 N791 1.361 . S
C794 C793 1.413 . S
C795 H784 0.931 . S
C795 C793 1.416 . S
C795 C796 1.332 . S
C796 H775 0.929 . S
C796 C792 1.407 . S
C796 C795 1.332 . S
H797 C790 0.930 . S
H798 C821 0.930 . S
H799 C822 0.929 . S
O800 Tb756 2.465 . S
O800 C820 1.264 . S
O801 Tb756 2.387 . S
O801 C812 1.264 . S
O802 Tb767 2.349 . S
O802 C812 1.243 . S
O803 Tb756 2.428 . S
O803 C820 1.256 . S
O804 Tb756 2.308 . S
O804 C819 1.266 . S
O805 Tb767 2.393 . S
O805 C819 1.248 . S
O806 Tb767 2.465 . S
O806 C831 1.264 . S
O807 Tb767 2.387 . S
O807 C823 1.264 . S
O808 Tb756 2.349 . S
O808 C823 1.243 . S
O809 Tb767 2.428 . S
O809 C831 1.256 . S
O810 Tb767 2.308 . S
O810 C830 1.266 . S
O811 Tb756 2.393 . S
O811 C830 1.248 . S
C812 O801 1.264 . S
C812 O802 1.243 . S
C813 C816 1.399 . S
C813 C818 1.383 . S
C813 C820 1.496 . S
C814 C815 1.399 . S
C814 C818 1.389 . S
C815 C814 1.399 . S
C815 C817 1.380 . S
C815 H832 0.929 . S
C816 C813 1.399 . S
C816 C817 1.392 . S
C816 H833 0.929 . S
C817 C815 1.380 . S
C817 C816 1.392 . S
C817 H834 0.929 . S
C818 C813 1.383 . S
C818 C814 1.389 . S
C818 H835 0.931 . S
C819 O804 1.266 . S
C819 O805 1.248 . S
C820 Tb756 2.802 . S
C820 O800 1.264 . S
C820 O803 1.256 . S
C820 C813 1.496 . S
C821 C788 1.448 . S
C821 H798 0.930 . S
C821 C822 1.328 . S
C822 C793 1.427 . S
C822 H799 0.929 . S
C822 C821 1.328 . S
C823 O807 1.264 . S
C823 O808 1.243 . S
C824 C827 1.399 . S
C824 C828 1.383 . S
C824 C831 1.496 . S
C825 C826 1.399 . S
C825 C828 1.389 . S
C826 C825 1.399 . S
C826 C829 1.380 . S
C826 H836 0.929 . S
C827 C824 1.399 . S
C827 C829 1.392 . S
C827 H837 0.929 . S
C828 C824 1.383 . S
C828 C825 1.389 . S
C828 H838 0.931 . S
C829 C826 1.380 . S
C829 C827 1.392 . S
C829 H839 0.929 . S
C830 O810 1.266 . S
C830 O811 1.248 . S
C831 Tb767 2.802 . S
C831 O806 1.264 . S
C831 O809 1.256 . S
C831 C824 1.496 . S
H832 C815 0.929 . S
H833 C816 0.929 . S
H834 C817 0.929 . S
H835 C818 0.931 . S
H836 C826 0.929 . S
H837 C827 0.929 . S
H838 C828 0.931 . S
H839 C829 0.929 . S
Tb840 N869 2.628 . S
Tb840 N875 2.572 1_554 S
Tb840 O884 2.465 1_554 S
Tb840 O885 2.387 . S
Tb840 O887 2.428 1_554 S
Tb840 O888 2.308 . S
Tb840 O892 2.349 . S
Tb840 O895 2.393 . S
Tb840 C904 2.802 1_554 S
C841 N842 1.380 . S
C841 C844 1.418 . S
C841 C848 1.420 1_565 S
N842 C841 1.380 . S
N842 C845 1.334 . S
N842 Tb851 2.617 1_565 S
C843 C845 1.390 . S
C843 C846 1.339 . S
C843 H863 0.930 . S
C844 C841 1.418 . S
C844 C846 1.416 . S
C844 C850 1.447 1_565 S
C845 N842 1.334 . S
C845 C843 1.390 . S
C845 H856 0.930 . S
C846 C843 1.339 . S
C846 C844 1.416 . S
C846 H867 0.930 . S
C847 C848 1.413 . S
C847 C849 1.427 . S
C847 C853 1.416 . S
C848 C841 1.420 1_545 S
C848 C847 1.413 . S
C848 N852 1.361 . S
C849 C847 1.427 . S
C849 C850 1.335 . S
C849 H864 0.929 . S
C850 C844 1.447 1_545 S
C850 C849 1.335 . S
C850 H865 0.925 1_545 S
Tb851 N842 2.617 1_545 S
Tb851 N852 2.572 . S
Tb851 O886 2.349 . S
Tb851 O889 2.393 1_545 S
Tb851 O890 2.465 . S
Tb851 O891 2.387 . S
Tb851 O893 2.428 1_545 S
Tb851 O894 2.308 . S
Tb851 C915 2.802 . S
N852 C848 1.361 . S
N852 Tb851 2.572 . S
N852 C854 1.340 . S
C853 C847 1.416 . S
C853 C855 1.332 . S
C853 H861 0.931 . S
C854 N852 1.340 . S
C854 C855 1.407 . S
C854 H860 0.930 . S
C855 C853 1.332 . S
C855 C854 1.407 . S
C855 H857 0.929 . S
H856 C845 0.930 . S
H857 C855 0.929 . S
H858 C873 0.930 . S
H859 C880 0.929 . S
H860 C854 0.930 . S
H861 C853 0.931 . S
H862 C876 0.930 1_565 S
H863 C843 0.930 . S
H864 C849 0.929 . S
H865 C850 0.925 1_565 S
H866 C871 0.930 . S
H867 C846 0.930 . S
H868 C879 0.931 1_565 S
N869 Tb840 2.628 . S
N869 C870 1.361 1_554 S
N869 C873 1.345 . S
C870 N869 1.361 1_556 S
C870 C872 1.416 . S
C870 C878 1.424 . S
C871 H866 0.930 . S
C871 C873 1.390 . S
C871 C874 1.339 1_554 S
C872 C870 1.416 . S
C872 C874 1.416 . S
C872 C905 1.448 . S
C873 H858 0.930 . S
C873 N869 1.345 . S
C873 C871 1.390 . S
C874 C871 1.339 1_556 S
C874 C872 1.416 . S
C874 H881 0.930 . S
N875 Tb840 2.572 1_556 S
N875 C876 1.340 . S
N875 C878 1.361 . S
C876 H862 0.930 1_545 S
C876 N875 1.340 . S
C876 C880 1.407 1_545 S
C877 C878 1.413 . S
C877 C879 1.416 . S
C877 C906 1.427 . S
C878 C870 1.424 . S
C878 N875 1.361 . S
C878 C877 1.413 . S
C879 H868 0.931 1_545 S
C879 C877 1.416 . S
C879 C880 1.332 1_545 S
C880 H859 0.929 . S
C880 C876 1.407 1_565 S
C880 C879 1.332 1_565 S
H881 C874 0.930 . S
H882 C905 0.930 . S
H883 C906 0.929 . S
O884 Tb840 2.465 1_556 S
O884 C904 1.264 . S
O885 Tb840 2.387 . S
O885 C896 1.264 . S
O886 Tb851 2.349 . S
O886 C896 1.243 . S
O887 Tb840 2.428 1_556 S
O887 C904 1.256 . S
O888 Tb840 2.308 . S
O888 C903 1.266 1_545 S
O889 Tb851 2.393 1_565 S
O889 C903 1.248 . S
O890 Tb851 2.465 . S
O890 C915 1.264 . S
O891 Tb851 2.387 . S
O891 C907 1.264 . S
O892 Tb840 2.349 . S
O892 C907 1.243 . S
O893 Tb851 2.428 1_565 S
O893 C915 1.256 1_565 S
O894 Tb851 2.308 . S
O894 C914 1.266 . S
O895 Tb840 2.393 . S
O895 C914 1.248 . S
C896 O885 1.264 . S
C896 O886 1.243 . S
C897 C900 1.399 . S
C897 C902 1.383 . S
C897 C904 1.496 . S
C898 C899 1.399 . S
C898 C902 1.389 . S
C899 C898 1.399 . S
C899 C901 1.380 . S
C899 H916 0.929 . S
C900 C897 1.399 . S
C900 C901 1.392 . S
C900 H917 0.929 . S
C901 C899 1.380 . S
C901 C900 1.392 . S
C901 H918 0.929 . S
C902 C897 1.383 . S
C902 C898 1.389 . S
C902 H919 0.931 . S
C903 O888 1.266 1_565 S
C903 O889 1.248 . S
C904 Tb840 2.802 1_556 S
C904 O884 1.264 . S
C904 O887 1.256 . S
C904 C897 1.496 . S
C905 C872 1.448 . S
C905 H882 0.930 . S
C905 C906 1.328 . S
C906 C877 1.427 . S
C906 H883 0.929 . S
C906 C905 1.328 . S
C907 O891 1.264 . S
C907 O892 1.243 . S
C908 C911 1.399 . S
C908 C912 1.383 1_565 S
C908 C915 1.496 1_565 S
C909 C910 1.399 1_545 S
C909 C912 1.389 . S
C910 C909 1.399 1_565 S
C910 C913 1.380 . S
C910 H920 0.929 . S
C911 C908 1.399 . S
C911 C913 1.392 . S
C911 H921 0.929 . S
C912 C908 1.383 1_545 S
C912 C909 1.389 . S
C912 H922 0.931 . S
C913 C910 1.380 . S
C913 C911 1.392 . S
C913 H923 0.929 . S
C914 O894 1.266 . S
C914 O895 1.248 . S
C915 Tb851 2.802 . S
C915 O890 1.264 . S
C915 O893 1.256 1_545 S
C915 C908 1.496 1_545 S
H916 C899 0.929 . S
H917 C900 0.929 . S
H918 C901 0.929 . S
H919 C902 0.931 . S
H920 C910 0.929 . S
H921 C911 0.929 . S
H922 C912 0.931 . S
H923 C913 0.929 . S
Tb924 N953 2.617 . S
Tb924 N959 2.572 . S
Tb924 O968 2.465 . S
Tb924 O969 2.387 . S
Tb924 O971 2.428 . S
Tb924 O972 2.308 . S
Tb924 O976 2.349 . S
Tb924 O979 2.393 . S
Tb924 C988 2.802 . S
C925 N926 1.379 . S
C925 C928 1.416 . S
C925 C932 1.424 . S
N926 C925 1.379 . S
N926 C929 1.334 . S
N926 Tb935 2.617 . S
C927 C929 1.390 . S
C927 C930 1.339 . S
C927 H947 0.930 . S
C928 C925 1.416 . S
C928 C930 1.416 . S
C928 C934 1.448 . S
C929 N926 1.334 . S
C929 C927 1.390 . S
C929 H940 0.930 . S
C930 C927 1.339 . S
C930 C928 1.416 . S
C930 H951 0.930 . S
C931 C932 1.413 . S
C931 C933 1.427 . S
C931 C937 1.416 . S
C932 C925 1.424 . S
C932 C931 1.413 . S
C932 N936 1.361 . S
C933 C931 1.427 . S
C933 C934 1.328 . S
C933 H948 0.929 . S
C934 C928 1.448 . S
C934 C933 1.328 . S
C934 H949 0.930 . S
Tb935 N926 2.617 . S
Tb935 N936 2.572 . S
Tb935 O970 2.349 . S
Tb935 O973 2.393 . S
Tb935 O974 2.465 . S
Tb935 O975 2.387 . S
Tb935 O977 2.428 . S
Tb935 O978 2.308 . S
Tb935 C999 2.802 . S
N936 C932 1.361 . S
N936 Tb935 2.572 . S
N936 C938 1.340 . S
C937 C931 1.416 . S
C937 C939 1.332 . S
C937 H945 0.931 . S
C938 N936 1.340 . S
C938 C939 1.407 . S
C938 H944 0.930 . S
C939 C937 1.332 . S
C939 C938 1.407 . S
C939 H941 0.929 . S
H940 C929 0.930 . S
H941 C939 0.929 . S
H942 C957 0.930 . S
H943 C964 0.929 . S
H944 C938 0.930 . S
H945 C937 0.931 . S
H946 C960 0.930 . S
H947 C927 0.930 . S
H948 C933 0.929 . S
H949 C934 0.930 . S
H950 C955 0.930 . S
H951 C930 0.930 . S
H952 C963 0.931 . S
N953 Tb924 2.617 . S
N953 C954 1.379 . S
N953 C957 1.334 . S
C954 N953 1.379 . S
C954 C956 1.416 . S
C954 C962 1.424 . S
C955 H950 0.930 . S
C955 C957 1.390 . S
C955 C958 1.339 . S
C956 C954 1.416 . S
C956 C958 1.416 . S
C956 C989 1.448 . S
C957 H942 0.930 . S
C957 N953 1.334 . S
C957 C955 1.390 . S
C958 C955 1.339 . S
C958 C956 1.416 . S
C958 H965 0.930 . S
N959 Tb924 2.572 . S
N959 C960 1.340 . S
N959 C962 1.361 . S
C960 H946 0.930 . S
C960 N959 1.340 . S
C960 C964 1.407 . S
C961 C962 1.413 . S
C961 C963 1.416 . S
C961 C990 1.427 . S
C962 C954 1.424 . S
C962 N959 1.361 . S
C962 C961 1.413 . S
C963 H952 0.931 . S
C963 C961 1.416 . S
C963 C964 1.332 . S
C964 H943 0.929 . S
C964 C960 1.407 . S
C964 C963 1.332 . S
H965 C958 0.930 . S
H966 C989 0.930 . S
H967 C990 0.929 . S
O968 Tb924 2.465 . S
O968 C988 1.264 . S
O969 Tb924 2.387 . S
O969 C980 1.264 . S
O970 Tb935 2.349 . S
O970 C980 1.243 . S
O971 Tb924 2.428 . S
O971 C988 1.256 . S
O972 Tb924 2.308 . S
O972 C987 1.266 . S
O973 Tb935 2.393 . S
O973 C987 1.248 . S
O974 Tb935 2.465 . S
O974 C999 1.264 . S
O975 Tb935 2.387 . S
O975 C991 1.264 . S
O976 Tb924 2.349 . S
O976 C991 1.243 . S
O977 Tb935 2.428 . S
O977 C999 1.256 . S
O978 Tb935 2.308 . S
O978 C998 1.266 . S
O979 Tb924 2.393 . S
O979 C998 1.248 . S
C980 O969 1.264 . S
C980 O970 1.243 . S
C981 C984 1.399 . S
C981 C986 1.383 . S
C981 C988 1.496 . S
C982 C983 1.399 . S
C982 C986 1.389 . S
C983 C982 1.399 . S
C983 C985 1.380 . S
C983 H1000 0.929 . S
C984 C981 1.399 . S
C984 C985 1.392 . S
C984 H1001 0.929 . S
C985 C983 1.380 . S
C985 C984 1.392 . S
C985 H1002 0.929 . S
C986 C981 1.383 . S
C986 C982 1.389 . S
C986 H1003 0.931 . S
C987 O972 1.266 . S
C987 O973 1.248 . S
C988 Tb924 2.802 . S
C988 O968 1.264 . S
C988 O971 1.256 . S
C988 C981 1.496 . S
C989 C956 1.448 . S
C989 H966 0.930 . S
C989 C990 1.328 . S
C990 C961 1.427 . S
C990 H967 0.929 . S
C990 C989 1.328 . S
C991 O975 1.264 . S
C991 O976 1.243 . S
C992 C995 1.399 . S
C992 C996 1.383 . S
C992 C999 1.496 . S
C993 C994 1.399 . S
C993 C996 1.389 . S
C994 C993 1.399 . S
C994 C997 1.380 . S
C994 H1004 0.929 . S
C995 C992 1.399 . S
C995 C997 1.392 . S
C995 H1005 0.929 . S
C996 C992 1.383 . S
C996 C993 1.389 . S
C996 H1006 0.931 . S
C997 C994 1.380 . S
C997 C995 1.392 . S
C997 H1007 0.929 . S
C998 O978 1.266 . S
C998 O979 1.248 . S
C999 Tb935 2.802 . S
C999 O974 1.264 . S
C999 O977 1.256 . S
C999 C992 1.496 . S
H1000 C983 0.929 . S
H1001 C984 0.929 . S
H1002 C985 0.929 . S
H1003 C986 0.931 . S
H1004 C994 0.929 . S
H1005 C995 0.929 . S
H1006 C996 0.931 . S
H1007 C997 0.929 . S
Tb1008 N1037 2.617 . S
Tb1008 N1043 2.572 . S
Tb1008 O1052 2.465 . S
Tb1008 O1053 2.387 . S
Tb1008 O1055 2.428 . S
Tb1008 O1056 2.308 . S
Tb1008 O1060 2.349 . S
Tb1008 O1063 2.393 . S
Tb1008 C1072 2.802 . S
C1009 N1010 1.379 . S
C1009 C1012 1.416 . S
C1009 C1016 1.424 . S
N1010 C1009 1.379 . S
N1010 C1013 1.334 . S
N1010 Tb1019 2.617 . S
C1011 C1013 1.390 . S
C1011 C1014 1.339 . S
C1011 H1031 0.930 . S
C1012 C1009 1.416 . S
C1012 C1014 1.416 . S
C1012 C1018 1.448 . S
C1013 N1010 1.334 . S
C1013 C1011 1.390 . S
C1013 H1024 0.930 . S
C1014 C1011 1.339 . S
C1014 C1012 1.416 . S
C1014 H1035 0.930 . S
C1015 C1016 1.413 . S
C1015 C1017 1.427 . S
C1015 C1021 1.416 . S
C1016 C1009 1.424 . S
C1016 C1015 1.413 . S
C1016 N1020 1.361 . S
C1017 C1015 1.427 . S
C1017 C1018 1.328 . S
C1017 H1032 0.929 . S
C1018 C1012 1.448 . S
C1018 C1017 1.328 . S
C1018 H1033 0.930 . S
Tb1019 N1010 2.617 . S
Tb1019 N1020 2.572 . S
Tb1019 O1054 2.349 . S
Tb1019 O1057 2.393 . S
Tb1019 O1058 2.465 . S
Tb1019 O1059 2.387 . S
Tb1019 O1061 2.428 . S
Tb1019 O1062 2.308 . S
Tb1019 C1083 2.802 . S
N1020 C1016 1.361 . S
N1020 Tb1019 2.572 . S
N1020 C1022 1.340 . S
C1021 C1015 1.416 . S
C1021 C1023 1.332 . S
C1021 H1029 0.931 . S
C1022 N1020 1.340 . S
C1022 C1023 1.407 . S
C1022 H1028 0.930 . S
C1023 C1021 1.332 . S
C1023 C1022 1.407 . S
C1023 H1025 0.929 . S
H1024 C1013 0.930 . S
H1025 C1023 0.929 . S
H1026 C1041 0.930 . S
H1027 C1048 0.929 . S
H1028 C1022 0.930 . S
H1029 C1021 0.931 . S
H1030 C1044 0.930 . S
H1031 C1011 0.930 . S
H1032 C1017 0.929 . S
H1033 C1018 0.930 . S
H1034 C1039 0.930 . S
H1035 C1014 0.930 . S
H1036 C1047 0.931 . S
N1037 Tb1008 2.617 . S
N1037 C1038 1.379 1_554 S
N1037 C1041 1.334 . S
C1038 N1037 1.379 1_556 S
C1038 C1040 1.416 . S
C1038 C1046 1.424 . S
C1039 H1034 0.930 . S
C1039 C1041 1.390 1_556 S
C1039 C1042 1.339 . S
C1040 C1038 1.416 . S
C1040 C1042 1.416 . S
C1040 C1073 1.448 . S
C1041 H1026 0.930 . S
C1041 N1037 1.334 . S
C1041 C1039 1.390 1_554 S
C1042 C1039 1.339 . S
C1042 C1040 1.416 . S
C1042 H1049 0.930 . S
N1043 Tb1008 2.572 . S
N1043 C1044 1.340 . S
N1043 C1046 1.361 1_554 S
C1044 H1030 0.930 . S
C1044 N1043 1.340 . S
C1044 C1048 1.407 1_554 S
C1045 C1046 1.413 . S
C1045 C1047 1.416 . S
C1045 C1074 1.427 . S
C1046 C1038 1.424 . S
C1046 N1043 1.361 1_556 S
C1046 C1045 1.413 . S
C1047 H1036 0.931 . S
C1047 C1045 1.416 . S
C1047 C1048 1.332 . S
C1048 H1027 0.929 . S
C1048 C1044 1.407 1_556 S
C1048 C1047 1.332 . S
H1049 C1042 0.930 . S
H1050 C1073 0.930 . S
H1051 C1074 0.929 . S
O1052 Tb1008 2.465 . S
O1052 C1072 1.264 . S
O1053 Tb1008 2.387 . S
O1053 C1064 1.272 . S
O1054 Tb1019 2.349 . S
O1054 C1064 1.262 . S
O1055 Tb1008 2.428 . S
O1055 C1072 1.256 . S
O1056 Tb1008 2.308 . S
O1056 C1071 1.266 . S
O1057 Tb1019 2.393 . S
O1057 C1071 1.248 . S
O1058 Tb1019 2.465 . S
O1058 C1083 1.264 . S
O1059 Tb1019 2.387 . S
O1059 C1075 1.264 . S
O1060 Tb1008 2.349 . S
O1060 C1075 1.243 . S
O1061 Tb1019 2.428 . S
O1061 C1083 1.256 . S
O1062 Tb1019 2.308 . S
O1062 C1082 1.266 . S
O1063 Tb1008 2.393 . S
O1063 C1082 1.248 . S
C1064 O1053 1.272 . S
C1064 O1054 1.262 . S
C1065 C1068 1.399 . S
C1065 C1070 1.383 . S
C1065 C1072 1.496 . S
C1066 C1067 1.399 . S
C1066 C1070 1.389 . S
C1067 C1066 1.399 . S
C1067 C1069 1.380 . S
C1067 H1084 0.929 . S
C1068 C1065 1.399 . S
C1068 C1069 1.392 . S
C1068 H1085 0.929 . S
C1069 C1067 1.380 . S
C1069 C1068 1.392 . S
C1069 H1086 0.929 . S
C1070 C1065 1.383 . S
C1070 C1066 1.389 . S
C1070 H1087 0.931 . S
C1071 O1056 1.266 . S
C1071 O1057 1.248 . S
C1072 Tb1008 2.802 . S
C1072 O1052 1.264 . S
C1072 O1055 1.256 . S
C1072 C1065 1.496 . S
C1073 C1040 1.448 . S
C1073 H1050 0.930 . S
C1073 C1074 1.328 . S
C1074 C1045 1.427 . S
C1074 H1051 0.929 . S
C1074 C1073 1.328 . S
C1075 O1059 1.264 . S
C1075 O1060 1.243 . S
C1076 C1079 1.399 . S
C1076 C1080 1.383 . S
C1076 C1083 1.496 . S
C1077 C1078 1.399 . S
C1077 C1080 1.389 1_556 S
C1078 C1077 1.399 . S
C1078 C1081 1.380 1_556 S
C1078 H1088 0.929 . S
C1079 C1076 1.399 . S
C1079 C1081 1.392 . S
C1079 H1089 0.929 . S
C1080 C1076 1.383 . S
C1080 C1077 1.389 1_554 S
C1080 H1090 0.931 . S
C1081 C1078 1.380 1_554 S
C1081 C1079 1.392 . S
C1081 H1091 0.929 . S
C1082 O1062 1.266 . S
C1082 O1063 1.248 . S
C1083 Tb1019 2.802 . S
C1083 O1058 1.264 . S
C1083 O1061 1.256 . S
C1083 C1076 1.496 . S
H1084 C1067 0.929 . S
H1085 C1068 0.929 . S
H1086 C1069 0.929 . S
H1087 C1070 0.931 . S
H1088 C1078 0.929 . S
H1089 C1079 0.929 . S
H1090 C1080 0.931 . S
H1091 C1081 0.929 . S
Tb1092 N1121 2.617 . S
Tb1092 N1127 2.572 . S
Tb1092 O1136 2.465 . S
Tb1092 O1137 2.387 . S
Tb1092 O1139 2.428 . S
Tb1092 O1140 2.308 . S
Tb1092 O1144 2.349 . S
Tb1092 O1147 2.393 . S
Tb1092 C1156 2.802 . S
C1093 N1094 1.379 . S
C1093 C1096 1.416 . S
C1093 C1100 1.424 . S
N1094 C1093 1.379 . S
N1094 C1097 1.334 . S
N1094 Tb1103 2.617 . S
C1095 C1097 1.390 . S
C1095 C1098 1.339 . S
C1095 H1115 0.930 . S
C1096 C1093 1.416 . S
C1096 C1098 1.416 . S
C1096 C1102 1.448 . S
C1097 N1094 1.334 . S
C1097 C1095 1.390 . S
C1097 H1108 0.930 . S
C1098 C1095 1.339 . S
C1098 C1096 1.416 . S
C1098 H1119 0.930 . S
C1099 C1100 1.413 . S
C1099 C1101 1.427 . S
C1099 C1105 1.416 . S
C1100 C1093 1.424 . S
C1100 C1099 1.413 . S
C1100 N1104 1.361 . S
C1101 C1099 1.427 . S
C1101 C1102 1.328 . S
C1101 H1116 0.929 . S
C1102 C1096 1.448 . S
C1102 C1101 1.328 . S
C1102 H1117 0.930 . S
Tb1103 N1094 2.617 . S
Tb1103 N1104 2.572 . S
Tb1103 O1138 2.349 . S
Tb1103 O1141 2.393 . S
Tb1103 O1142 2.465 . S
Tb1103 O1143 2.387 . S
Tb1103 O1145 2.428 . S
Tb1103 O1146 2.308 . S
Tb1103 C1167 2.802 . S
N1104 C1100 1.361 . S
N1104 Tb1103 2.572 . S
N1104 C1106 1.340 . S
C1105 C1099 1.416 . S
C1105 C1107 1.332 . S
C1105 H1113 0.931 . S
C1106 N1104 1.340 . S
C1106 C1107 1.407 . S
C1106 H1112 0.930 . S
C1107 C1105 1.332 . S
C1107 C1106 1.407 . S
C1107 H1109 0.929 . S
H1108 C1097 0.930 . S
H1109 C1107 0.929 . S
H1110 C1125 0.930 . S
H1111 C1132 0.929 . S
H1112 C1106 0.930 . S
H1113 C1105 0.931 . S
H1114 C1128 0.930 . S
H1115 C1095 0.930 . S
H1116 C1101 0.929 . S
H1117 C1102 0.930 . S
H1118 C1123 0.930 . S
H1119 C1098 0.930 . S
H1120 C1131 0.931 . S
N1121 Tb1092 2.617 . S
N1121 C1122 1.379 . S
N1121 C1125 1.334 . S
C1122 N1121 1.379 . S
C1122 C1124 1.416 . S
C1122 C1130 1.424 . S
C1123 H1118 0.930 . S
C1123 C1125 1.390 . S
C1123 C1126 1.339 . S
C1124 C1122 1.416 . S
C1124 C1126 1.416 . S
C1124 C1157 1.448 . S
C1125 H1110 0.930 . S
C1125 N1121 1.334 . S
C1125 C1123 1.390 . S
C1126 C1123 1.339 . S
C1126 C1124 1.416 . S
C1126 H1133 0.930 . S
N1127 Tb1092 2.572 . S
N1127 C1128 1.340 . S
N1127 C1130 1.361 . S
C1128 H1114 0.930 . S
C1128 N1127 1.340 . S
C1128 C1132 1.407 . S
C1129 C1130 1.413 . S
C1129 C1131 1.416 . S
C1129 C1158 1.427 . S
C1130 C1122 1.424 . S
C1130 N1127 1.361 . S
C1130 C1129 1.413 . S
C1131 H1120 0.931 . S
C1131 C1129 1.416 . S
C1131 C1132 1.332 . S
C1132 H1111 0.929 . S
C1132 C1128 1.407 . S
C1132 C1131 1.332 . S
H1133 C1126 0.930 . S
H1134 C1157 0.930 . S
H1135 C1158 0.929 . S
O1136 Tb1092 2.465 . S
O1136 C1156 1.264 . S
O1137 Tb1092 2.387 . S
O1137 C1148 1.264 . S
O1138 Tb1103 2.349 . S
O1138 C1148 1.243 . S
O1139 Tb1092 2.428 . S
O1139 C1156 1.256 . S
O1140 Tb1092 2.308 . S
O1140 C1155 1.266 . S
O1141 Tb1103 2.393 . S
O1141 C1155 1.248 . S
O1142 Tb1103 2.465 . S
O1142 C1167 1.264 . S
O1143 Tb1103 2.387 . S
O1143 C1159 1.264 . S
O1144 Tb1092 2.349 . S
O1144 C1159 1.243 . S
O1145 Tb1103 2.428 . S
O1145 C1167 1.256 . S
O1146 Tb1103 2.308 . S
O1146 C1166 1.266 . S
O1147 Tb1092 2.393 . S
O1147 C1166 1.248 . S
C1148 O1137 1.264 . S
C1148 O1138 1.243 . S
C1149 C1152 1.399 . S
C1149 C1154 1.383 . S
C1149 C1156 1.496 . S
C1150 C1151 1.399 . S
C1150 C1154 1.389 . S
C1151 C1150 1.399 . S
C1151 C1153 1.380 . S
C1151 H1168 0.929 . S
C1152 C1149 1.399 . S
C1152 C1153 1.392 . S
C1152 H1169 0.929 . S
C1153 C1151 1.380 . S
C1153 C1152 1.392 . S
C1153 H1170 0.929 . S
C1154 C1149 1.383 . S
C1154 C1150 1.389 . S
C1154 H1171 0.931 . S
C1155 O1140 1.266 . S
C1155 O1141 1.248 . S
C1156 Tb1092 2.802 . S
C1156 O1136 1.264 . S
C1156 O1139 1.256 . S
C1156 C1149 1.496 . S
C1157 C1124 1.448 . S
C1157 H1134 0.930 . S
C1157 C1158 1.328 . S
C1158 C1129 1.427 . S
C1158 H1135 0.929 . S
C1158 C1157 1.328 . S
C1159 O1143 1.264 . S
C1159 O1144 1.243 . S
C1160 C1163 1.399 . S
C1160 C1164 1.383 . S
C1160 C1167 1.496 . S
C1161 C1162 1.399 . S
C1161 C1164 1.389 . S
C1162 C1161 1.399 . S
C1162 C1165 1.380 . S
C1162 H1172 0.929 . S
C1163 C1160 1.399 . S
C1163 C1165 1.392 . S
C1163 H1173 0.929 . S
C1164 C1160 1.383 . S
C1164 C1161 1.389 . S
C1164 H1174 0.931 . S
C1165 C1162 1.380 . S
C1165 C1163 1.392 . S
C1165 H1175 0.929 . S
C1166 O1146 1.266 . S
C1166 O1147 1.248 . S
C1167 Tb1103 2.802 . S
C1167 O1142 1.264 . S
C1167 O1145 1.256 . S
C1167 C1160 1.496 . S
H1168 C1151 0.929 . S
H1169 C1152 0.929 . S
H1170 C1153 0.929 . S
H1171 C1154 0.931 . S
H1172 C1162 0.929 . S
H1173 C1163 0.929 . S
H1174 C1164 0.931 . S
H1175 C1165 0.929 . S
Tb1176 N1205 2.617 1_455 S
Tb1176 N1211 2.572 1_455 S
Tb1176 O1220 2.465 . S
Tb1176 O1221 2.387 1_455 S
Tb1176 O1223 2.428 . S
Tb1176 O1224 2.308 . S
Tb1176 O1228 2.349 . S
Tb1176 O1231 2.393 . S
Tb1176 C1240 2.802 . S
C1177 N1178 1.379 . S
C1177 C1180 1.416 . S
C1177 C1184 1.424 . S
N1178 C1177 1.379 . S
N1178 C1181 1.334 . S
N1178 Tb1187 2.617 . S
C1179 C1181 1.390 . S
C1179 C1182 1.339 . S
C1179 H1199 0.930 . S
C1180 C1177 1.416 . S
C1180 C1182 1.416 . S
C1180 C1186 1.448 . S
C1181 N1178 1.334 . S
C1181 C1179 1.390 . S
C1181 H1192 0.930 . S
C1182 C1179 1.339 . S
C1182 C1180 1.416 . S
C1182 H1203 0.930 . S
C1183 C1184 1.413 . S
C1183 C1185 1.427 . S
C1183 C1189 1.416 . S
C1184 C1177 1.424 . S
C1184 C1183 1.413 . S
C1184 N1188 1.361 . S
C1185 C1183 1.427 . S
C1185 C1186 1.328 . S
C1185 H1200 0.929 . S
C1186 C1180 1.448 . S
C1186 C1185 1.328 . S
C1186 H1201 0.930 . S
Tb1187 N1178 2.617 . S
Tb1187 N1188 2.572 . S
Tb1187 O1222 2.349 1_455 S
Tb1187 O1225 2.393 . S
Tb1187 O1226 2.465 . S
Tb1187 O1227 2.387 . S
Tb1187 O1229 2.428 . S
Tb1187 O1230 2.308 . S
Tb1187 C1251 2.802 . S
N1188 C1184 1.361 . S
N1188 Tb1187 2.572 . S
N1188 C1190 1.340 . S
C1189 C1183 1.416 . S
C1189 C1191 1.332 . S
C1189 H1197 0.931 . S
C1190 N1188 1.340 . S
C1190 C1191 1.407 . S
C1190 H1196 0.930 . S
C1191 C1189 1.332 . S
C1191 C1190 1.407 . S
C1191 H1193 0.929 . S
H1192 C1181 0.930 . S
H1193 C1191 0.929 . S
H1194 C1209 0.930 1_455 S
H1195 C1216 0.929 . S
H1196 C1190 0.930 . S
H1197 C1189 0.931 . S
H1198 C1212 0.930 . S
H1199 C1179 0.930 . S
H1200 C1185 0.929 . S
H1201 C1186 0.930 . S
H1202 C1207 0.930 . S
H1203 C1182 0.930 . S
H1204 C1215 0.931 . S
N1205 Tb1176 2.617 1_655 S
N1205 C1206 1.379 . S
N1205 C1209 1.334 . S
C1206 N1205 1.379 . S
C1206 C1208 1.416 . S
C1206 C1214 1.424 . S
C1207 H1202 0.930 . S
C1207 C1209 1.390 . S
C1207 C1210 1.339 . S
C1208 C1206 1.416 . S
C1208 C1210 1.416 . S
C1208 C1241 1.448 . S
C1209 H1194 0.930 1_655 S
C1209 N1205 1.334 . S
C1209 C1207 1.390 . S
C1210 C1207 1.339 . S
C1210 C1208 1.416 . S
C1210 H1217 0.930 . S
N1211 Tb1176 2.572 1_655 S
N1211 C1212 1.340 . S
N1211 C1214 1.361 . S
C1212 H1198 0.930 . S
C1212 N1211 1.340 . S
C1212 C1216 1.407 . S
C1213 C1214 1.413 . S
C1213 C1215 1.416 . S
C1213 C1242 1.427 . S
C1214 C1206 1.424 . S
C1214 N1211 1.361 . S
C1214 C1213 1.413 . S
C1215 H1204 0.931 . S
C1215 C1213 1.416 . S
C1215 C1216 1.332 . S
C1216 H1195 0.929 . S
C1216 C1212 1.407 . S
C1216 C1215 1.332 . S
H1217 C1210 0.930 . S
H1218 C1241 0.930 . S
H1219 C1242 0.929 . S
O1220 Tb1176 2.465 . S
O1220 C1240 1.264 . S
O1221 Tb1176 2.387 1_655 S
O1221 C1232 1.264 . S
O1222 Tb1187 2.349 1_655 S
O1222 C1232 1.243 . S
O1223 Tb1176 2.428 . S
O1223 C1240 1.256 . S
O1224 Tb1176 2.308 . S
O1224 C1239 1.266 . S
O1225 Tb1187 2.393 . S
O1225 C1239 1.248 . S
O1226 Tb1187 2.465 . S
O1226 C1251 1.264 . S
O1227 Tb1187 2.387 . S
O1227 C1243 1.264 . S
O1228 Tb1176 2.349 . S
O1228 C1243 1.243 . S
O1229 Tb1187 2.428 . S
O1229 C1251 1.256 . S
O1230 Tb1187 2.308 . S
O1230 C1250 1.266 . S
O1231 Tb1176 2.393 . S
O1231 C1250 1.248 . S
C1232 O1221 1.264 . S
C1232 O1222 1.243 . S
C1233 C1236 1.399 . S
C1233 C1238 1.383 . S
C1233 C1240 1.496 . S
C1234 C1235 1.399 . S
C1234 C1238 1.389 . S
C1235 C1234 1.399 . S
C1235 C1237 1.380 . S
C1235 H1252 0.929 . S
C1236 C1233 1.399 . S
C1236 C1237 1.392 . S
C1236 H1253 0.929 . S
C1237 C1235 1.380 . S
C1237 C1236 1.392 . S
C1237 H1254 0.929 . S
C1238 C1233 1.383 . S
C1238 C1234 1.389 . S
C1238 H1255 0.931 . S
C1239 O1224 1.266 . S
C1239 O1225 1.248 . S
C1240 Tb1176 2.802 . S
C1240 O1220 1.264 . S
C1240 O1223 1.256 . S
C1240 C1233 1.496 . S
C1241 C1208 1.448 . S
C1241 H1218 0.930 . S
C1241 C1242 1.328 . S
C1242 C1213 1.427 . S
C1242 H1219 0.929 . S
C1242 C1241 1.328 . S
C1243 O1227 1.264 . S
C1243 O1228 1.243 . S
C1244 C1247 1.399 . S
C1244 C1248 1.383 . S
C1244 C1251 1.496 1_655 S
C1245 C1246 1.399 . S
C1245 C1248 1.389 . S
C1246 C1245 1.399 . S
C1246 C1249 1.380 . S
C1246 H1256 0.929 . S
C1247 C1244 1.399 . S
C1247 C1249 1.392 . S
C1247 H1257 0.929 . S
C1248 C1244 1.383 . S
C1248 C1245 1.389 . S
C1248 H1258 0.931 . S
C1249 C1246 1.380 . S
C1249 C1247 1.392 . S
C1249 H1259 0.929 . S
C1250 O1230 1.266 . S
C1250 O1231 1.248 . S
C1251 Tb1187 2.802 . S
C1251 O1226 1.264 . S
C1251 O1229 1.256 . S
C1251 C1244 1.496 1_455 S
H1252 C1235 0.929 . S
H1253 C1236 0.929 . S
H1254 C1237 0.929 . S
H1255 C1238 0.931 . S
H1256 C1246 0.929 . S
H1257 C1247 0.929 . S
H1258 C1248 0.931 . S
H1259 C1249 0.929 . S
Tb1260 N1289 2.617 . S
Tb1260 N1295 2.572 . S
Tb1260 O1304 2.465 . S
Tb1260 O1305 2.387 . S
Tb1260 O1307 2.428 . S
Tb1260 O1308 2.308 . S
Tb1260 O1312 2.349 . S
Tb1260 O1315 2.393 . S
Tb1260 C1324 2.802 . S
C1261 N1262 1.379 . S
C1261 C1264 1.416 . S
C1261 C1268 1.424 . S
N1262 C1261 1.379 . S
N1262 C1265 1.334 . S
N1262 Tb1271 2.617 . S
C1263 C1265 1.390 . S
C1263 C1266 1.339 . S
C1263 H1283 0.930 . S
C1264 C1261 1.416 . S
C1264 C1266 1.416 . S
C1264 C1270 1.448 . S
C1265 N1262 1.334 . S
C1265 C1263 1.390 . S
C1265 H1276 0.930 . S
C1266 C1263 1.339 . S
C1266 C1264 1.416 . S
C1266 H1287 0.930 . S
C1267 C1268 1.413 . S
C1267 C1269 1.427 . S
C1267 C1273 1.416 . S
C1268 C1261 1.424 . S
C1268 C1267 1.413 . S
C1268 N1272 1.361 . S
C1269 C1267 1.427 . S
C1269 C1270 1.328 . S
C1269 H1284 0.929 . S
C1270 C1264 1.448 . S
C1270 C1269 1.328 . S
C1270 H1285 0.930 . S
Tb1271 N1262 2.617 . S
Tb1271 N1272 2.572 . S
Tb1271 O1306 2.349 . S
Tb1271 O1309 2.393 . S
Tb1271 O1310 2.465 . S
Tb1271 O1311 2.387 . S
Tb1271 O1313 2.428 . S
Tb1271 O1314 2.308 . S
Tb1271 C1335 2.802 . S
N1272 C1268 1.361 . S
N1272 Tb1271 2.572 . S
N1272 C1274 1.340 . S
C1273 C1267 1.416 . S
C1273 C1275 1.332 . S
C1273 H1281 0.931 . S
C1274 N1272 1.340 . S
C1274 C1275 1.407 . S
C1274 H1280 0.930 . S
C1275 C1273 1.332 . S
C1275 C1274 1.407 . S
C1275 H1277 0.929 . S
H1276 C1265 0.930 . S
H1277 C1275 0.929 . S
H1278 C1293 0.930 . S
H1279 C1300 0.929 . S
H1280 C1274 0.930 . S
H1281 C1273 0.931 . S
H1282 C1296 0.930 . S
H1283 C1263 0.930 . S
H1284 C1269 0.929 . S
H1285 C1270 0.930 . S
H1286 C1291 0.930 . S
H1287 C1266 0.930 . S
H1288 C1299 0.931 . S
N1289 Tb1260 2.617 . S
N1289 C1290 1.379 . S
N1289 C1293 1.334 . S
C1290 N1289 1.379 . S
C1290 C1292 1.416 . S
C1290 C1298 1.424 . S
C1291 H1286 0.930 . S
C1291 C1293 1.390 . S
C1291 C1294 1.339 . S
C1292 C1290 1.416 . S
C1292 C1294 1.416 . S
C1292 C1325 1.448 . S
C1293 H1278 0.930 . S
C1293 N1289 1.334 . S
C1293 C1291 1.390 . S
C1294 C1291 1.339 . S
C1294 C1292 1.416 . S
C1294 H1301 0.930 . S
N1295 Tb1260 2.572 . S
N1295 C1296 1.340 . S
N1295 C1298 1.361 . S
C1296 H1282 0.930 . S
C1296 N1295 1.340 . S
C1296 C1300 1.407 . S
C1297 C1298 1.413 . S
C1297 C1299 1.416 . S
C1297 C1326 1.427 . S
C1298 C1290 1.424 . S
C1298 N1295 1.361 . S
C1298 C1297 1.413 . S
C1299 H1288 0.931 . S
C1299 C1297 1.416 . S
C1299 C1300 1.332 . S
C1300 H1279 0.929 . S
C1300 C1296 1.407 . S
C1300 C1299 1.332 . S
H1301 C1294 0.930 . S
H1302 C1325 0.930 . S
H1303 C1326 0.929 . S
O1304 Tb1260 2.465 . S
O1304 C1324 1.264 . S
O1305 Tb1260 2.387 . S
O1305 C1316 1.264 . S
O1306 Tb1271 2.349 . S
O1306 C1316 1.243 . S
O1307 Tb1260 2.428 . S
O1307 C1324 1.256 . S
O1308 Tb1260 2.308 . S
O1308 C1323 1.266 . S
O1309 Tb1271 2.393 . S
O1309 C1323 1.248 . S
O1310 Tb1271 2.465 . S
O1310 C1335 1.264 . S
O1311 Tb1271 2.387 . S
O1311 C1327 1.264 . S
O1312 Tb1260 2.349 . S
O1312 C1327 1.243 . S
O1313 Tb1271 2.428 . S
O1313 C1335 1.256 . S
O1314 Tb1271 2.308 . S
O1314 C1334 1.266 . S
O1315 Tb1260 2.393 . S
O1315 C1334 1.248 . S
C1316 O1305 1.264 . S
C1316 O1306 1.243 . S
C1317 C1320 1.399 . S
C1317 C1322 1.383 . S
C1317 C1324 1.496 . S
C1318 C1319 1.399 . S
C1318 C1322 1.389 . S
C1319 C1318 1.399 . S
C1319 C1321 1.380 . S
C1319 H1336 0.929 . S
C1320 C1317 1.399 . S
C1320 C1321 1.392 . S
C1320 H1337 0.929 . S
C1321 C1319 1.380 . S
C1321 C1320 1.392 . S
C1321 H1338 0.929 . S
C1322 C1317 1.383 . S
C1322 C1318 1.389 . S
C1322 H1339 0.931 . S
C1323 O1308 1.266 . S
C1323 O1309 1.248 . S
C1324 Tb1260 2.802 . S
C1324 O1304 1.264 . S
C1324 O1307 1.256 . S
C1324 C1317 1.496 . S
C1325 C1292 1.448 . S
C1325 H1302 0.930 . S
C1325 C1326 1.328 . S
C1326 C1297 1.427 . S
C1326 H1303 0.929 . S
C1326 C1325 1.328 . S
C1327 O1311 1.264 . S
C1327 O1312 1.243 . S
C1328 C1331 1.399 . S
C1328 C1332 1.383 . S
C1328 C1335 1.496 . S
C1329 C1330 1.399 . S
C1329 C1332 1.389 . S
C1330 C1329 1.399 . S
C1330 C1333 1.380 . S
C1330 H1340 0.929 . S
C1331 C1328 1.399 . S
C1331 C1333 1.392 . S
C1331 H1341 0.929 . S
C1332 C1328 1.383 . S
C1332 C1329 1.389 . S
C1332 H1342 0.931 . S
C1333 C1330 1.380 . S
C1333 C1331 1.392 . S
C1333 H1343 0.929 . S
C1334 O1314 1.266 . S
C1334 O1315 1.248 . S
C1335 Tb1271 2.802 . S
C1335 O1310 1.264 . S
C1335 O1313 1.256 . S
C1335 C1328 1.496 . S
H1336 C1319 0.929 . S
H1337 C1320 0.929 . S
H1338 C1321 0.929 . S
H1339 C1322 0.931 . S
H1340 C1330 0.929 . S
H1341 C1331 0.929 . S
H1342 C1332 0.931 . S
H1343 C1333 0.929 . S
Tb1344 N1373 2.617 . S
Tb1344 N1379 2.572 . S
Tb1344 O1388 2.465 . S
Tb1344 O1389 2.387 . S
Tb1344 O1391 2.428 . S
Tb1344 O1392 2.308 . S
Tb1344 O1396 2.349 . S
Tb1344 O1399 2.393 . S
Tb1344 C1408 2.802 . S
C1345 N1346 1.379 . S
C1345 C1348 1.416 . S
C1345 C1352 1.424 . S
N1346 C1345 1.379 . S
N1346 C1349 1.334 . S
N1346 Tb1355 2.617 . S
C1347 C1349 1.390 . S
C1347 C1350 1.339 . S
C1347 H1367 0.930 . S
C1348 C1345 1.416 . S
C1348 C1350 1.416 . S
C1348 C1354 1.448 . S
C1349 N1346 1.334 . S
C1349 C1347 1.390 . S
C1349 H1360 0.930 . S
C1350 C1347 1.339 . S
C1350 C1348 1.416 . S
C1350 H1371 0.930 . S
C1351 C1352 1.413 . S
C1351 C1353 1.427 . S
C1351 C1357 1.416 . S
C1352 C1345 1.424 . S
C1352 C1351 1.413 . S
C1352 N1356 1.361 . S
C1353 C1351 1.427 . S
C1353 C1354 1.328 . S
C1353 H1368 0.929 . S
C1354 C1348 1.448 . S
C1354 C1353 1.328 . S
C1354 H1369 0.930 . S
Tb1355 N1346 2.617 . S
Tb1355 N1356 2.572 . S
Tb1355 O1390 2.349 . S
Tb1355 O1393 2.393 . S
Tb1355 O1394 2.465 . S
Tb1355 O1395 2.387 . S
Tb1355 O1397 2.428 . S
Tb1355 O1398 2.308 . S
Tb1355 C1419 2.802 . S
N1356 C1352 1.361 . S
N1356 Tb1355 2.572 . S
N1356 C1358 1.340 . S
C1357 C1351 1.416 . S
C1357 C1359 1.332 . S
C1357 H1365 0.931 . S
C1358 N1356 1.340 . S
C1358 C1359 1.407 . S
C1358 H1364 0.930 . S
C1359 C1357 1.332 . S
C1359 C1358 1.407 . S
C1359 H1361 0.929 . S
H1360 C1349 0.930 . S
H1361 C1359 0.929 . S
H1362 C1377 0.930 . S
H1363 C1384 0.929 . S
H1364 C1358 0.930 . S
H1365 C1357 0.931 . S
H1366 C1380 0.930 . S
H1367 C1347 0.930 . S
H1368 C1353 0.929 . S
H1369 C1354 0.930 . S
H1370 C1375 0.930 . S
H1371 C1350 0.930 . S
H1372 C1383 0.931 . S
N1373 Tb1344 2.617 . S
N1373 C1374 1.379 . S
N1373 C1377 1.334 . S
C1374 N1373 1.379 . S
C1374 C1376 1.416 . S
C1374 C1382 1.424 . S
C1375 H1370 0.930 . S
C1375 C1377 1.390 . S
C1375 C1378 1.339 . S
C1376 C1374 1.416 . S
C1376 C1378 1.416 . S
C1376 C1409 1.448 . S
C1377 H1362 0.930 . S
C1377 N1373 1.334 . S
C1377 C1375 1.390 . S
C1378 C1375 1.339 . S
C1378 C1376 1.416 . S
C1378 H1385 0.930 . S
N1379 Tb1344 2.572 . S
N1379 C1380 1.340 . S
N1379 C1382 1.361 . S
C1380 H1366 0.930 . S
C1380 N1379 1.340 . S
C1380 C1384 1.407 . S
C1381 C1382 1.413 . S
C1381 C1383 1.416 . S
C1381 C1410 1.427 . S
C1382 C1374 1.424 . S
C1382 N1379 1.361 . S
C1382 C1381 1.413 . S
C1383 H1372 0.931 . S
C1383 C1381 1.416 . S
C1383 C1384 1.332 . S
C1384 H1363 0.929 . S
C1384 C1380 1.407 . S
C1384 C1383 1.332 . S
H1385 C1378 0.930 . S
H1386 C1409 0.930 . S
H1387 C1410 0.929 . S
O1388 Tb1344 2.465 . S
O1388 C1408 1.264 . S
O1389 Tb1344 2.387 . S
O1389 C1400 1.264 . S
O1390 Tb1355 2.349 . S
O1390 C1400 1.243 . S
O1391 Tb1344 2.428 . S
O1391 C1408 1.256 . S
O1392 Tb1344 2.308 . S
O1392 C1407 1.266 . S
O1393 Tb1355 2.393 . S
O1393 C1407 1.248 . S
O1394 Tb1355 2.465 . S
O1394 C1419 1.264 . S
O1395 Tb1355 2.387 . S
O1395 C1411 1.264 . S
O1396 Tb1344 2.349 . S
O1396 C1411 1.243 . S
O1397 Tb1355 2.428 . S
O1397 C1419 1.256 . S
O1398 Tb1355 2.308 . S
O1398 C1418 1.266 . S
O1399 Tb1344 2.393 . S
O1399 C1418 1.248 . S
C1400 O1389 1.264 . S
C1400 O1390 1.243 . S
C1401 C1404 1.399 . S
C1401 C1406 1.383 . S
C1401 C1408 1.496 . S
C1402 C1403 1.399 . S
C1402 C1406 1.389 . S
C1403 C1402 1.399 . S
C1403 C1405 1.380 . S
C1403 H1420 0.929 . S
C1404 C1401 1.399 . S
C1404 C1405 1.392 . S
C1404 H1421 0.929 . S
C1405 C1403 1.380 . S
C1405 C1404 1.392 . S
C1405 H1422 0.929 . S
C1406 C1401 1.383 . S
C1406 C1402 1.389 . S
C1406 H1423 0.931 . S
C1407 O1392 1.266 . S
C1407 O1393 1.248 . S
C1408 Tb1344 2.802 . S
C1408 O1388 1.264 . S
C1408 O1391 1.256 . S
C1408 C1401 1.496 . S
C1409 C1376 1.448 . S
C1409 H1386 0.930 . S
C1409 C1410 1.328 . S
C1410 C1381 1.427 . S
C1410 H1387 0.929 . S
C1410 C1409 1.328 . S
C1411 O1395 1.264 . S
C1411 O1396 1.243 . S
C1412 C1415 1.399 . S
C1412 C1416 1.383 . S
C1412 C1419 1.496 . S
C1413 C1414 1.399 . S
C1413 C1416 1.389 . S
C1414 C1413 1.399 . S
C1414 C1417 1.380 . S
C1414 H1424 0.929 . S
C1415 C1412 1.399 . S
C1415 C1417 1.392 . S
C1415 H1425 0.929 . S
C1416 C1412 1.383 . S
C1416 C1413 1.389 . S
C1416 H1426 0.931 . S
C1417 C1414 1.380 . S
C1417 C1415 1.392 . S
C1417 H1427 0.929 . S
C1418 O1398 1.266 . S
C1418 O1399 1.248 . S
C1419 Tb1355 2.802 . S
C1419 O1394 1.264 . S
C1419 O1397 1.256 . S
C1419 C1412 1.496 . S
H1420 C1403 0.929 . S
H1421 C1404 0.929 . S
H1422 C1405 0.929 . S
H1423 C1406 0.931 . S
H1424 C1414 0.929 . S
H1425 C1415 0.929 . S
H1426 C1416 0.931 . S
H1427 C1417 0.929 . S
Tb1428 N1457 2.617 . S
Tb1428 N1463 2.572 . S
Tb1428 O1472 2.465 . S
Tb1428 O1473 2.387 . S
Tb1428 O1475 2.428 . S
Tb1428 O1476 2.308 . S
Tb1428 O1480 2.349 . S
Tb1428 O1483 2.393 . S
Tb1428 C1492 2.802 . S
C1429 N1430 1.379 . S
C1429 C1432 1.416 . S
C1429 C1436 1.424 . S
N1430 C1429 1.379 . S
N1430 C1433 1.334 . S
N1430 Tb1439 2.617 . S
C1431 C1433 1.390 . S
C1431 C1434 1.339 . S
C1431 H1451 0.930 . S
C1432 C1429 1.416 . S
C1432 C1434 1.416 . S
C1432 C1438 1.448 . S
C1433 N1430 1.334 . S
C1433 C1431 1.390 . S
C1433 H1444 0.930 . S
C1434 C1431 1.339 . S
C1434 C1432 1.416 . S
C1434 H1455 0.930 . S
C1435 C1436 1.413 . S
C1435 C1437 1.427 . S
C1435 C1441 1.416 . S
C1436 C1429 1.424 . S
C1436 C1435 1.413 . S
C1436 N1440 1.361 . S
C1437 C1435 1.427 . S
C1437 C1438 1.328 . S
C1437 H1452 0.929 . S
C1438 C1432 1.448 . S
C1438 C1437 1.328 . S
C1438 H1453 0.930 . S
Tb1439 N1430 2.617 . S
Tb1439 N1440 2.572 . S
Tb1439 O1474 2.349 . S
Tb1439 O1477 2.393 . S
Tb1439 O1478 2.465 . S
Tb1439 O1479 2.387 . S
Tb1439 O1481 2.428 . S
Tb1439 O1482 2.308 . S
Tb1439 C1503 2.802 . S
N1440 C1436 1.361 . S
N1440 Tb1439 2.572 . S
N1440 C1442 1.340 . S
C1441 C1435 1.416 . S
C1441 C1443 1.332 . S
C1441 H1449 0.931 . S
C1442 N1440 1.340 . S
C1442 C1443 1.407 . S
C1442 H1448 0.930 . S
C1443 C1441 1.332 . S
C1443 C1442 1.407 . S
C1443 H1445 0.929 . S
H1444 C1433 0.930 . S
H1445 C1443 0.929 . S
H1446 C1461 0.930 . S
H1447 C1468 0.929 . S
H1448 C1442 0.930 . S
H1449 C1441 0.931 . S
H1450 C1464 0.930 . S
H1451 C1431 0.930 . S
H1452 C1437 0.929 . S
H1453 C1438 0.930 . S
H1454 C1459 0.930 . S
H1455 C1434 0.930 . S
H1456 C1467 0.931 . S
N1457 Tb1428 2.617 . S
N1457 C1458 1.379 . S
N1457 C1461 1.334 . S
C1458 N1457 1.379 . S
C1458 C1460 1.416 . S
C1458 C1466 1.424 . S
C1459 H1454 0.930 . S
C1459 C1461 1.390 . S
C1459 C1462 1.339 . S
C1460 C1458 1.416 . S
C1460 C1462 1.416 . S
C1460 C1493 1.448 . S
C1461 H1446 0.930 . S
C1461 N1457 1.334 . S
C1461 C1459 1.390 . S
C1462 C1459 1.339 . S
C1462 C1460 1.416 . S
C1462 H1469 0.930 . S
N1463 Tb1428 2.572 . S
N1463 C1464 1.340 . S
N1463 C1466 1.361 . S
C1464 H1450 0.930 . S
C1464 N1463 1.340 . S
C1464 C1468 1.407 . S
C1465 C1466 1.413 . S
C1465 C1467 1.416 . S
C1465 C1494 1.427 . S
C1466 C1458 1.424 . S
C1466 N1463 1.361 . S
C1466 C1465 1.413 . S
C1467 H1456 0.931 . S
C1467 C1465 1.416 . S
C1467 C1468 1.332 . S
C1468 H1447 0.929 . S
C1468 C1464 1.407 . S
C1468 C1467 1.332 . S
H1469 C1462 0.930 . S
H1470 C1493 0.930 . S
H1471 C1494 0.929 . S
O1472 Tb1428 2.465 . S
O1472 C1492 1.264 . S
O1473 Tb1428 2.387 . S
O1473 C1484 1.264 . S
O1474 Tb1439 2.349 . S
O1474 C1484 1.243 . S
O1475 Tb1428 2.428 . S
O1475 C1492 1.256 . S
O1476 Tb1428 2.308 . S
O1476 C1491 1.266 . S
O1477 Tb1439 2.393 . S
O1477 C1491 1.248 . S
O1478 Tb1439 2.465 . S
O1478 C1503 1.264 . S
O1479 Tb1439 2.387 . S
O1479 C1495 1.264 . S
O1480 Tb1428 2.349 . S
O1480 C1495 1.243 . S
O1481 Tb1439 2.428 . S
O1481 C1503 1.256 . S
O1482 Tb1439 2.308 . S
O1482 C1502 1.266 . S
O1483 Tb1428 2.393 . S
O1483 C1502 1.248 . S
C1484 O1473 1.264 . S
C1484 O1474 1.243 . S
C1485 C1488 1.399 . S
C1485 C1490 1.383 . S
C1485 C1492 1.496 . S
C1486 C1487 1.399 . S
C1486 C1490 1.389 . S
C1487 C1486 1.399 . S
C1487 C1489 1.380 . S
C1487 H1504 0.929 . S
C1488 C1485 1.399 . S
C1488 C1489 1.392 . S
C1488 H1505 0.929 . S
C1489 C1487 1.380 . S
C1489 C1488 1.392 . S
C1489 H1506 0.929 . S
C1490 C1485 1.383 . S
C1490 C1486 1.389 . S
C1490 H1507 0.931 . S
C1491 O1476 1.266 . S
C1491 O1477 1.248 . S
C1492 Tb1428 2.802 . S
C1492 O1472 1.264 . S
C1492 O1475 1.256 . S
C1492 C1485 1.496 . S
C1493 C1460 1.448 . S
C1493 H1470 0.930 . S
C1493 C1494 1.328 . S
C1494 C1465 1.427 . S
C1494 H1471 0.929 . S
C1494 C1493 1.328 . S
C1495 O1479 1.264 . S
C1495 O1480 1.243 . S
C1496 C1499 1.399 . S
C1496 C1500 1.383 . S
C1496 C1503 1.496 . S
C1497 C1498 1.399 . S
C1497 C1500 1.389 . S
C1498 C1497 1.399 . S
C1498 C1501 1.380 . S
C1498 H1508 0.929 . S
C1499 C1496 1.399 . S
C1499 C1501 1.392 . S
C1499 H1509 0.929 . S
C1500 C1496 1.383 . S
C1500 C1497 1.389 . S
C1500 H1510 0.931 . S
C1501 C1498 1.380 . S
C1501 C1499 1.392 . S
C1501 H1511 0.929 . S
C1502 O1482 1.266 . S
C1502 O1483 1.248 . S
C1503 Tb1439 2.802 . S
C1503 O1478 1.264 . S
C1503 O1481 1.256 . S
C1503 C1496 1.496 . S
H1504 C1487 0.929 . S
H1505 C1488 0.929 . S
H1506 C1489 0.929 . S
H1507 C1490 0.931 . S
H1508 C1498 0.929 . S
H1509 C1499 0.929 . S
H1510 C1500 0.931 . S
H1511 C1501 0.929 . S
Tb1512 N1541 2.617 . S
Tb1512 N1547 2.572 . S
Tb1512 O1556 2.465 . S
Tb1512 O1557 2.387 . S
Tb1512 O1559 2.428 . S
Tb1512 O1560 2.308 . S
Tb1512 O1564 2.349 . S
Tb1512 O1567 2.393 . S
Tb1512 C1576 2.802 . S
C1513 N1514 1.379 . S
C1513 C1516 1.416 . S
C1513 C1520 1.424 . S
N1514 C1513 1.379 . S
N1514 C1517 1.334 . S
N1514 Tb1523 2.617 . S
C1515 C1517 1.390 . S
C1515 C1518 1.339 . S
C1515 H1535 0.930 . S
C1516 C1513 1.416 . S
C1516 C1518 1.416 . S
C1516 C1522 1.448 . S
C1517 N1514 1.334 . S
C1517 C1515 1.390 . S
C1517 H1528 0.930 . S
C1518 C1515 1.339 . S
C1518 C1516 1.416 . S
C1518 H1539 0.930 . S
C1519 C1520 1.413 . S
C1519 C1521 1.427 . S
C1519 C1525 1.416 . S
C1520 C1513 1.424 . S
C1520 C1519 1.413 . S
C1520 N1524 1.361 . S
C1521 C1519 1.427 . S
C1521 C1522 1.328 . S
C1521 H1536 0.929 . S
C1522 C1516 1.448 . S
C1522 C1521 1.328 . S
C1522 H1537 0.930 . S
Tb1523 N1514 2.617 . S
Tb1523 N1524 2.572 . S
Tb1523 O1558 2.349 . S
Tb1523 O1561 2.393 . S
Tb1523 O1562 2.465 . S
Tb1523 O1563 2.387 . S
Tb1523 O1565 2.428 . S
Tb1523 O1566 2.308 . S
Tb1523 C1587 2.802 . S
N1524 C1520 1.361 . S
N1524 Tb1523 2.572 . S
N1524 C1526 1.340 . S
C1525 C1519 1.416 . S
C1525 C1527 1.332 . S
C1525 H1533 0.931 . S
C1526 N1524 1.340 . S
C1526 C1527 1.407 . S
C1526 H1532 0.930 . S
C1527 C1525 1.332 . S
C1527 C1526 1.407 . S
C1527 H1529 0.929 . S
H1528 C1517 0.930 . S
H1529 C1527 0.929 . S
H1530 C1545 0.930 . S
H1531 C1552 0.929 . S
H1532 C1526 0.930 . S
H1533 C1525 0.931 . S
H1534 C1548 0.930 . S
H1535 C1515 0.930 . S
H1536 C1521 0.929 . S
H1537 C1522 0.930 . S
H1538 C1543 0.930 . S
H1539 C1518 0.930 . S
H1540 C1551 0.931 . S
N1541 Tb1512 2.617 . S
N1541 C1542 1.379 . S
N1541 C1545 1.334 . S
C1542 N1541 1.379 . S
C1542 C1544 1.416 . S
C1542 C1550 1.424 . S
C1543 H1538 0.930 . S
C1543 C1545 1.390 . S
C1543 C1546 1.339 . S
C1544 C1542 1.416 . S
C1544 C1546 1.416 . S
C1544 C1577 1.448 . S
C1545 H1530 0.930 . S
C1545 N1541 1.334 . S
C1545 C1543 1.390 . S
C1546 C1543 1.339 . S
C1546 C1544 1.416 . S
C1546 H1553 0.930 . S
N1547 Tb1512 2.572 . S
N1547 C1548 1.340 . S
N1547 C1550 1.361 . S
C1548 H1534 0.930 . S
C1548 N1547 1.340 . S
C1548 C1552 1.407 . S
C1549 C1550 1.413 . S
C1549 C1551 1.416 . S
C1549 C1578 1.427 . S
C1550 C1542 1.424 . S
C1550 N1547 1.361 . S
C1550 C1549 1.413 . S
C1551 H1540 0.931 . S
C1551 C1549 1.416 . S
C1551 C1552 1.332 . S
C1552 H1531 0.929 . S
C1552 C1548 1.407 . S
C1552 C1551 1.332 . S
H1553 C1546 0.930 . S
H1554 C1577 0.930 . S
H1555 C1578 0.929 . S
O1556 Tb1512 2.465 . S
O1556 C1576 1.264 . S
O1557 Tb1512 2.387 . S
O1557 C1568 1.264 . S
O1558 Tb1523 2.349 . S
O1558 C1568 1.243 . S
O1559 Tb1512 2.428 . S
O1559 C1576 1.256 . S
O1560 Tb1512 2.308 . S
O1560 C1575 1.266 . S
O1561 Tb1523 2.393 . S
O1561 C1575 1.248 . S
O1562 Tb1523 2.465 . S
O1562 C1587 1.264 . S
O1563 Tb1523 2.387 . S
O1563 C1579 1.264 . S
O1564 Tb1512 2.349 . S
O1564 C1579 1.243 . S
O1565 Tb1523 2.428 . S
O1565 C1587 1.256 . S
O1566 Tb1523 2.308 . S
O1566 C1586 1.266 . S
O1567 Tb1512 2.393 . S
O1567 C1586 1.248 . S
C1568 O1557 1.264 . S
C1568 O1558 1.243 . S
C1569 C1572 1.399 . S
C1569 C1574 1.383 . S
C1569 C1576 1.496 . S
C1570 C1571 1.399 . S
C1570 C1574 1.389 . S
C1571 C1570 1.399 . S
C1571 C1573 1.380 . S
C1571 H1588 0.929 . S
C1572 C1569 1.399 . S
C1572 C1573 1.392 . S
C1572 H1589 0.929 . S
C1573 C1571 1.380 . S
C1573 C1572 1.392 . S
C1573 H1590 0.929 . S
C1574 C1569 1.383 . S
C1574 C1570 1.389 . S
C1574 H1591 0.931 . S
C1575 O1560 1.266 . S
C1575 O1561 1.248 . S
C1576 Tb1512 2.802 . S
C1576 O1556 1.264 . S
C1576 O1559 1.256 . S
C1576 C1569 1.496 . S
C1577 C1544 1.448 . S
C1577 H1554 0.930 . S
C1577 C1578 1.328 . S
C1578 C1549 1.427 . S
C1578 H1555 0.929 . S
C1578 C1577 1.328 . S
C1579 O1563 1.264 . S
C1579 O1564 1.243 . S
C1580 C1583 1.399 . S
C1580 C1584 1.383 . S
C1580 C1587 1.496 . S
C1581 C1582 1.399 . S
C1581 C1584 1.389 . S
C1582 C1581 1.399 . S
C1582 C1585 1.380 . S
C1582 H1592 0.929 . S
C1583 C1580 1.399 . S
C1583 C1585 1.392 . S
C1583 H1593 0.929 . S
C1584 C1580 1.383 . S
C1584 C1581 1.389 . S
C1584 H1594 0.931 . S
C1585 C1582 1.380 . S
C1585 C1583 1.392 . S
C1585 H1595 0.929 . S
C1586 O1566 1.266 . S
C1586 O1567 1.248 . S
C1587 Tb1523 2.802 . S
C1587 O1562 1.264 . S
C1587 O1565 1.256 . S
C1587 C1580 1.496 . S
H1588 C1571 0.929 . S
H1589 C1572 0.929 . S
H1590 C1573 0.929 . S
H1591 C1574 0.931 . S
H1592 C1582 0.929 . S
H1593 C1583 0.929 . S
H1594 C1584 0.931 . S
H1595 C1585 0.929 . S
Tb1596 N1625 2.617 . S
Tb1596 N1631 2.572 . S
Tb1596 O1640 2.465 . S
Tb1596 O1641 2.387 1_655 S
Tb1596 O1643 2.428 . S
Tb1596 O1644 2.308 1_655 S
Tb1596 O1648 2.349 1_655 S
Tb1596 O1651 2.393 1_655 S
Tb1596 C1660 2.802 . S
C1597 N1598 1.379 . S
C1597 C1600 1.416 . S
C1597 C1604 1.424 . S
N1598 C1597 1.379 . S
N1598 C1601 1.334 1_554 S
N1598 Tb1607 2.617 . S
C1599 C1601 1.390 . S
C1599 C1602 1.339 . S
C1599 H1619 0.930 . S
C1600 C1597 1.416 . S
C1600 C1602 1.416 1_554 S
C1600 C1606 1.448 . S
C1601 N1598 1.334 1_556 S
C1601 C1599 1.390 . S
C1601 H1612 0.930 . S
C1602 C1599 1.339 . S
C1602 C1600 1.416 1_556 S
C1602 H1623 0.930 . S
C1603 C1604 1.413 . S
C1603 C1605 1.427 . S
C1603 C1609 1.416 . S
C1604 C1597 1.424 . S
C1604 C1603 1.413 . S
C1604 N1608 1.361 . S
C1605 C1603 1.427 . S
C1605 C1606 1.328 . S
C1605 H1620 0.929 . S
C1606 C1600 1.448 . S
C1606 C1605 1.328 . S
C1606 H1621 0.930 . S
Tb1607 N1598 2.617 . S
Tb1607 N1608 2.572 . S
Tb1607 O1642 2.349 . S
Tb1607 O1645 2.393 . S
Tb1607 O1646 2.465 . S
Tb1607 O1647 2.387 . S
Tb1607 O1649 2.428 . S
Tb1607 O1650 2.308 . S
Tb1607 C1671 2.802 . S
N1608 C1604 1.361 . S
N1608 Tb1607 2.572 . S
N1608 C1610 1.340 . S
C1609 C1603 1.416 . S
C1609 C1611 1.332 . S
C1609 H1617 0.931 . S
C1610 N1608 1.340 . S
C1610 C1611 1.407 . S
C1610 H1616 0.930 . S
C1611 C1609 1.332 . S
C1611 C1610 1.407 . S
C1611 H1613 0.929 . S
H1612 C1601 0.930 . S
H1613 C1611 0.929 . S
H1614 C1629 0.930 1_455 S
H1615 C1636 0.929 . S
H1616 C1610 0.930 . S
H1617 C1609 0.931 . S
H1618 C1632 0.930 . S
H1619 C1599 0.930 . S
H1620 C1605 0.929 . S
H1621 C1606 0.930 . S
H1622 C1627 0.930 . S
H1623 C1602 0.930 . S
H1624 C1635 0.931 . S
N1625 Tb1596 2.617 . S
N1625 C1626 1.379 . S
N1625 C1629 1.334 . S
C1626 N1625 1.379 . S
C1626 C1628 1.416 . S
C1626 C1634 1.424 . S
C1627 H1622 0.930 . S
C1627 C1629 1.390 . S
C1627 C1630 1.339 . S
C1628 C1626 1.416 . S
C1628 C1630 1.416 . S
C1628 C1661 1.448 . S
C1629 H1614 0.930 1_655 S
C1629 N1625 1.334 . S
C1629 C1627 1.390 . S
C1630 C1627 1.339 . S
C1630 C1628 1.416 . S
C1630 H1637 0.930 . S
N1631 Tb1596 2.572 . S
N1631 C1632 1.340 . S
N1631 C1634 1.361 . S
C1632 H1618 0.930 . S
C1632 N1631 1.340 . S
C1632 C1636 1.407 . S
C1633 C1634 1.413 . S
C1633 C1635 1.416 . S
C1633 C1662 1.427 . S
C1634 C1626 1.424 . S
C1634 N1631 1.361 . S
C1634 C1633 1.413 . S
C1635 H1624 0.931 . S
C1635 C1633 1.416 . S
C1635 C1636 1.332 . S
C1636 H1615 0.929 . S
C1636 C1632 1.407 . S
C1636 C1635 1.332 . S
H1637 C1630 0.930 . S
H1638 C1661 0.930 . S
H1639 C1662 0.929 . S
O1640 Tb1596 2.465 . S
O1640 C1660 1.264 . S
O1641 Tb1596 2.387 1_455 S
O1641 C1652 1.264 . S
O1642 Tb1607 2.349 . S
O1642 C1652 1.243 . S
O1643 Tb1596 2.428 . S
O1643 C1660 1.256 . S
O1644 Tb1596 2.308 1_455 S
O1644 C1659 1.266 . S
O1645 Tb1607 2.393 . S
O1645 C1659 1.248 . S
O1646 Tb1607 2.465 . S
O1646 C1671 1.264 . S
O1647 Tb1607 2.387 . S
O1647 C1663 1.264 . S
O1648 Tb1596 2.349 1_455 S
O1648 C1663 1.243 . S
O1649 Tb1607 2.428 . S
O1649 C1671 1.256 . S
O1650 Tb1607 2.308 . S
O1650 C1670 1.266 . S
O1651 Tb1596 2.393 1_455 S
O1651 C1670 1.248 . S
C1652 O1641 1.264 . S
C1652 O1642 1.243 . S
C1653 C1656 1.399 . S
C1653 C1658 1.383 . S
C1653 C1660 1.496 . S
C1654 C1655 1.399 . S
C1654 C1658 1.389 . S
C1655 C1654 1.399 . S
C1655 C1657 1.380 . S
C1655 H1672 0.929 . S
C1656 C1653 1.399 . S
C1656 C1657 1.392 . S
C1656 H1673 0.929 . S
C1657 C1655 1.380 . S
C1657 C1656 1.392 . S
C1657 H1674 0.929 . S
C1658 C1653 1.383 . S
C1658 C1654 1.389 . S
C1658 H1675 0.931 . S
C1659 O1644 1.266 . S
C1659 O1645 1.248 . S
C1660 Tb1596 2.802 . S
C1660 O1640 1.264 . S
C1660 O1643 1.256 . S
C1660 C1653 1.496 . S
C1661 C1628 1.448 . S
C1661 H1638 0.930 . S
C1661 C1662 1.328 . S
C1662 C1633 1.427 . S
C1662 H1639 0.929 . S
C1662 C1661 1.328 . S
C1663 O1647 1.264 . S
C1663 O1648 1.243 . S
C1664 C1667 1.399 . S
C1664 C1668 1.383 . S
C1664 C1671 1.496 . S
C1665 C1666 1.399 . S
C1665 C1668 1.389 . S
C1666 C1665 1.399 . S
C1666 C1669 1.380 . S
C1666 H1676 0.929 . S
C1667 C1664 1.399 . S
C1667 C1669 1.392 . S
C1667 H1677 0.929 . S
C1668 C1664 1.383 . S
C1668 C1665 1.389 . S
C1668 H1678 0.931 . S
C1669 C1666 1.380 . S
C1669 C1667 1.392 . S
C1669 H1679 0.929 1_554 S
C1670 O1650 1.266 . S
C1670 O1651 1.248 . S
C1671 Tb1607 2.802 . S
C1671 O1646 1.264 . S
C1671 O1649 1.256 . S
C1671 C1664 1.496 . S
H1672 C1655 0.929 . S
H1673 C1656 0.929 . S
H1674 C1657 0.929 . S
H1675 C1658 0.931 . S
H1676 C1666 0.929 . S
H1677 C1667 0.929 . S
H1678 C1668 0.931 . S
H1679 C1669 0.929 1_556 S
H1680 C1698 0.951 . S
H1681 C1700 0.951 . S
H1682 C1702 0.950 . S
H1683 C1703 0.950 . S
H1684 C1705 0.950 . S
H1685 C1708 0.950 . S
H1686 C1709 0.950 . S
H1687 C1711 0.950 1_655 S
H1688 C1712 0.930 1_655 S
H1689 C1713 0.951 . S
H1690 C1715 0.951 1_556 S
H1691 C1717 0.950 1_655 S
H1692 C1718 0.972 . S
H1693 C1720 0.950 . S
H1694 C1723 0.950 . S
H1695 C1724 0.950 . S
H1696 C1726 0.950 . S
H1697 C1727 0.950 . S
C1698 H1680 0.951 . S
C1698 C1699 1.366 . S
C1698 C1700 1.388 . S
C1699 C1698 1.366 . S
C1699 C1703 1.385 1_655 S
C1700 H1681 0.951 . S
C1700 C1698 1.388 . S
C1700 C1701 1.366 1_655 S
C1701 C1700 1.366 1_455 S
C1701 C1702 1.414 . S
C1701 C1704 1.499 . S
C1702 H1682 0.950 . S
C1702 C1701 1.414 . S
C1702 C1703 1.374 . S
C1703 H1683 0.950 . S
C1703 C1699 1.385 1_455 S
C1703 C1702 1.374 . S
C1704 C1701 1.499 . S
C1704 C1705 1.373 . S
C1704 C1706 1.389 1_556 S
C1705 H1684 0.950 . S
C1705 C1704 1.373 . S
C1705 C1721 1.377 . S
C1706 C1704 1.389 1_554 S
C1706 C1707 1.524 . S
C1706 C1720 1.377 . S
C1707 C1706 1.524 . S
C1707 C1708 1.397 . S
C1707 C1712 1.390 . S
C1708 H1685 0.950 . S
C1708 C1707 1.397 . S
C1708 C1709 1.334 . S
C1709 H1686 0.950 . S
C1709 C1708 1.334 . S
C1709 C1710 1.287 . S
C1710 C1709 1.287 . S
C1710 C1711 1.524 . S
C1710 H1729 0.913 . S
C1711 H1687 0.950 1_455 S
C1711 C1710 1.524 . S
C1711 C1712 1.410 . S
C1712 H1688 0.930 1_455 S
C1712 C1707 1.390 . S
C1712 C1711 1.410 . S
C1713 H1689 0.951 . S
C1713 C1714 1.366 . S
C1713 C1715 1.388 . S
C1714 C1713 1.366 . S
C1714 C1718 1.385 . S
C1715 H1690 0.951 1_554 S
C1715 C1713 1.388 . S
C1715 C1716 1.366 . S
C1716 C1715 1.366 . S
C1716 C1717 1.414 . S
C1716 C1719 1.492 1_554 S
C1717 H1691 0.950 1_455 S
C1717 C1716 1.414 . S
C1717 C1718 1.374 . S
C1718 H1692 0.972 . S
C1718 C1714 1.385 . S
C1718 C1717 1.374 . S
C1719 C1716 1.492 1_556 S
C1719 C1720 1.366 1_556 S
C1719 C1721 1.403 . S
C1720 H1693 0.950 . S
C1720 C1706 1.377 . S
C1720 C1719 1.366 1_554 S
C1721 C1705 1.377 . S
C1721 C1719 1.403 . S
C1721 C1722 1.524 . S
C1722 C1721 1.524 . S
C1722 C1723 1.397 1_455 S
C1722 C1727 1.363 . S
C1723 H1694 0.950 . S
C1723 C1722 1.397 1_655 S
C1723 C1724 1.334 . S
C1724 H1695 0.950 . S
C1724 C1723 1.334 . S
C1724 C1725 1.287 . S
C1725 C1724 1.287 . S
C1725 C1726 1.524 1_655 S
C1725 H1728 0.999 . S
C1726 H1696 0.950 . S
C1726 C1725 1.524 1_455 S
C1726 C1727 1.415 . S
C1727 H1697 0.950 . S
C1727 C1722 1.363 . S
C1727 C1726 1.415 . S
H1728 C1725 0.999 . S
H1729 C1710 0.913 . S
H1730 C1748 0.951 . S
H1731 C1750 0.951 . S
H1732 C1752 0.950 . S
H1733 C1753 0.950 . S
H1734 C1755 0.950 . S
H1735 C1758 0.950 . S
H1736 C1759 0.950 . S
H1737 C1761 0.950 . S
H1738 C1762 0.950 . S
H1739 C1763 0.951 . S
H1740 C1765 0.951 . S
H1741 C1767 0.950 . S
H1742 C1768 0.950 . S
H1743 C1770 0.950 . S
H1744 C1773 0.950 . S
H1745 C1774 0.950 . S
H1746 C1776 0.950 . S
H1747 C1777 0.950 . S
C1748 H1730 0.951 . S
C1748 C1749 1.366 . S
C1748 C1750 1.388 . S
C1749 C1748 1.366 . S
C1749 C1753 1.385 . S
C1750 H1731 0.951 . S
C1750 C1748 1.388 . S
C1750 C1751 1.366 . S
C1751 C1750 1.366 . S
C1751 C1752 1.414 . S
C1751 C1754 1.499 . S
C1752 H1732 0.950 . S
C1752 C1751 1.414 . S
C1752 C1753 1.374 . S
C1753 H1733 0.950 . S
C1753 C1749 1.385 . S
C1753 C1752 1.374 . S
C1754 C1751 1.499 . S
C1754 C1755 1.373 . S
C1754 C1756 1.389 . S
C1755 H1734 0.950 . S
C1755 C1754 1.373 . S
C1755 C1771 1.377 . S
C1756 C1754 1.389 . S
C1756 C1757 1.524 . S
C1756 C1770 1.377 . S
C1757 C1756 1.524 . S
C1757 C1758 1.397 . S
C1757 C1762 1.363 . S
C1758 H1735 0.950 . S
C1758 C1757 1.397 . S
C1758 C1759 1.334 . S
C1759 H1736 0.950 . S
C1759 C1758 1.334 . S
C1759 C1760 1.287 . S
C1760 C1759 1.287 . S
C1760 C1761 1.524 . S
C1760 H1779 0.913 . S
C1761 H1737 0.950 . S
C1761 C1760 1.524 . S
C1761 C1762 1.415 . S
C1762 H1738 0.950 . S
C1762 C1757 1.363 . S
C1762 C1761 1.415 . S
C1763 H1739 0.951 . S
C1763 C1764 1.366 . S
C1763 C1765 1.388 . S
C1764 C1763 1.366 . S
C1764 C1768 1.385 . S
C1765 H1740 0.951 . S
C1765 C1763 1.388 . S
C1765 C1766 1.366 . S
C1766 C1765 1.366 . S
C1766 C1767 1.414 . S
C1766 C1769 1.499 . S
C1767 H1741 0.950 . S
C1767 C1766 1.414 . S
C1767 C1768 1.374 . S
C1768 H1742 0.950 . S
C1768 C1764 1.385 . S
C1768 C1767 1.374 . S
C1769 C1766 1.499 . S
C1769 C1770 1.373 . S
C1769 C1771 1.389 . S
C1770 H1743 0.950 . S
C1770 C1756 1.377 . S
C1770 C1769 1.373 . S
C1771 C1755 1.377 . S
C1771 C1769 1.389 . S
C1771 C1772 1.524 . S
C1772 C1771 1.524 . S
C1772 C1773 1.397 . S
C1772 C1777 1.363 . S
C1773 H1744 0.950 . S
C1773 C1772 1.397 . S
C1773 C1774 1.334 . S
C1774 H1745 0.950 . S
C1774 C1773 1.334 . S
C1774 C1775 1.287 . S
C1775 C1774 1.287 . S
C1775 C1776 1.524 . S
C1775 H1778 0.999 . S
C1776 H1746 0.950 . S
C1776 C1775 1.524 . S
C1776 C1777 1.415 . S
C1777 H1747 0.950 . S
C1777 C1772 1.363 . S
C1777 C1776 1.415 . S
H1778 C1775 0.999 . S
H1779 C1760 0.913 . S
H1780 C1798 0.951 . S
H1781 C1800 0.951 . S
H1782 C1802 0.950 . S
H1783 C1803 0.950 . S
H1784 C1805 0.950 . S
H1785 C1808 0.950 . S
H1786 C1809 0.950 . S
H1787 C1811 0.950 . S
H1788 C1812 0.950 . S
H1789 C1813 0.951 . S
H1790 C1815 0.951 . S
H1791 C1817 0.950 . S
H1792 C1818 0.950 . S
H1793 C1820 0.950 . S
H1794 C1823 0.950 . S
H1795 C1824 0.950 . S
H1796 C1826 0.950 . S
H1797 C1827 0.950 . S
C1798 H1780 0.951 . S
C1798 C1799 1.366 . S
C1798 C1800 1.388 . S
C1799 C1798 1.366 . S
C1799 C1803 1.385 . S
C1800 H1781 0.951 . S
C1800 C1798 1.388 . S
C1800 C1801 1.366 . S
C1801 C1800 1.366 . S
C1801 C1802 1.414 . S
C1801 C1804 1.499 . S
C1802 H1782 0.950 . S
C1802 C1801 1.414 . S
C1802 C1803 1.374 . S
C1803 H1783 0.950 . S
C1803 C1799 1.385 . S
C1803 C1802 1.374 . S
C1804 C1801 1.499 . S
C1804 C1805 1.373 . S
C1804 C1806 1.389 . S
C1805 H1784 0.950 . S
C1805 C1804 1.373 . S
C1805 C1821 1.377 . S
C1806 C1804 1.389 . S
C1806 C1807 1.524 . S
C1806 C1820 1.377 . S
C1807 C1806 1.524 . S
C1807 C1808 1.397 . S
C1807 C1812 1.363 . S
C1808 H1785 0.950 . S
C1808 C1807 1.397 . S
C1808 C1809 1.334 . S
C1809 H1786 0.950 . S
C1809 C1808 1.334 . S
C1809 C1810 1.287 . S
C1810 C1809 1.287 . S
C1810 C1811 1.524 . S
C1810 H1829 0.913 . S
C1811 H1787 0.950 . S
C1811 C1810 1.524 . S
C1811 C1812 1.415 . S
C1812 H1788 0.950 . S
C1812 C1807 1.363 . S
C1812 C1811 1.415 . S
C1813 H1789 0.951 . S
C1813 C1814 1.366 . S
C1813 C1815 1.388 . S
C1814 C1813 1.366 . S
C1814 C1818 1.385 . S
C1815 H1790 0.951 . S
C1815 C1813 1.388 . S
C1815 C1816 1.366 . S
C1816 C1815 1.366 . S
C1816 C1817 1.414 . S
C1816 C1819 1.499 . S
C1817 H1791 0.950 . S
C1817 C1816 1.414 . S
C1817 C1818 1.374 . S
C1818 H1792 0.950 . S
C1818 C1814 1.385 . S
C1818 C1817 1.374 . S
C1819 C1816 1.499 . S
C1819 C1820 1.373 . S
C1819 C1821 1.389 . S
C1820 H1793 0.950 . S
C1820 C1806 1.377 . S
C1820 C1819 1.373 . S
C1821 C1805 1.377 . S
C1821 C1819 1.389 . S
C1821 C1822 1.524 . S
C1822 C1821 1.524 . S
C1822 C1823 1.397 . S
C1822 C1827 1.363 . S
C1823 H1794 0.950 . S
C1823 C1822 1.397 . S
C1823 C1824 1.334 . S
C1824 H1795 0.950 . S
C1824 C1823 1.334 . S
C1824 C1825 1.287 . S
C1825 C1824 1.287 . S
C1825 C1826 1.524 . S
C1825 H1828 0.999 . S
C1826 H1796 0.950 . S
C1826 C1825 1.524 . S
C1826 C1827 1.415 . S
C1827 H1797 0.950 . S
C1827 C1822 1.363 . S
C1827 C1826 1.415 . S
H1828 C1825 0.999 . S
H1829 C1810 0.913 . S
H1830 C1848 0.951 . S
H1831 C1850 0.951 . S
H1832 C1852 0.950 . S
H1833 C1853 0.950 . S
H1834 C1855 0.950 . S
H1835 C1858 0.950 . S
H1836 C1859 0.950 . S
H1837 C1861 0.950 . S
H1838 C1862 0.950 . S
H1839 C1863 0.951 . S
H1840 C1865 0.951 . S
H1841 C1867 0.950 . S
H1842 C1868 0.950 . S
H1843 C1870 0.950 . S
H1844 C1873 0.950 . S
H1845 C1874 0.950 . S
H1846 C1876 0.950 . S
H1847 C1877 0.950 . S
C1848 H1830 0.951 . S
C1848 C1849 1.366 . S
C1848 C1850 1.388 . S
C1849 C1848 1.366 . S
C1849 C1853 1.385 . S
C1850 H1831 0.951 . S
C1850 C1848 1.388 . S
C1850 C1851 1.366 . S
C1851 C1850 1.366 . S
C1851 C1852 1.414 . S
C1851 C1854 1.499 . S
C1852 H1832 0.950 . S
C1852 C1851 1.414 . S
C1852 C1853 1.374 . S
C1853 H1833 0.950 . S
C1853 C1849 1.385 . S
C1853 C1852 1.374 . S
C1854 C1851 1.499 . S
C1854 C1855 1.373 . S
C1854 C1856 1.389 . S
C1855 H1834 0.950 . S
C1855 C1854 1.373 . S
C1855 C1871 1.377 . S
C1856 C1854 1.389 . S
C1856 C1857 1.524 . S
C1856 C1870 1.377 . S
C1857 C1856 1.524 . S
C1857 C1858 1.397 . S
C1857 C1862 1.363 . S
C1858 H1835 0.950 . S
C1858 C1857 1.397 . S
C1858 C1859 1.334 . S
C1859 H1836 0.950 . S
C1859 C1858 1.334 . S
C1859 C1860 1.287 . S
C1860 C1859 1.287 . S
C1860 C1861 1.524 . S
C1860 H1879 0.913 . S
C1861 H1837 0.950 . S
C1861 C1860 1.524 . S
C1861 C1862 1.415 . S
C1862 H1838 0.950 . S
C1862 C1857 1.363 . S
C1862 C1861 1.415 . S
C1863 H1839 0.951 . S
C1863 C1864 1.366 . S
C1863 C1865 1.388 . S
C1864 C1863 1.366 . S
C1864 C1868 1.385 . S
C1865 H1840 0.951 . S
C1865 C1863 1.388 . S
C1865 C1866 1.366 . S
C1866 C1865 1.366 . S
C1866 C1867 1.414 . S
C1866 C1869 1.499 . S
C1867 H1841 0.950 . S
C1867 C1866 1.414 . S
C1867 C1868 1.374 . S
C1868 H1842 0.950 . S
C1868 C1864 1.385 . S
C1868 C1867 1.374 . S
C1869 C1866 1.499 . S
C1869 C1870 1.373 . S
C1869 C1871 1.389 . S
C1870 H1843 0.950 . S
C1870 C1856 1.377 . S
C1870 C1869 1.373 . S
C1871 C1855 1.377 . S
C1871 C1869 1.389 . S
C1871 C1872 1.524 . S
C1872 C1871 1.524 . S
C1872 C1873 1.397 . S
C1872 C1877 1.363 . S
C1873 H1844 0.950 . S
C1873 C1872 1.397 . S
C1873 C1874 1.334 . S
C1874 H1845 0.950 . S
C1874 C1873 1.334 . S
C1874 C1875 1.287 . S
C1875 C1874 1.287 . S
C1875 C1876 1.524 . S
C1875 H1878 0.999 . S
C1876 H1846 0.950 . S
C1876 C1875 1.524 . S
C1876 C1877 1.415 . S
C1877 H1847 0.950 . S
C1877 C1872 1.363 . S
C1877 C1876 1.415 . S
H1878 C1875 0.999 . S
H1879 C1860 0.913 . S
H1880 C1898 0.951 . S
H1881 C1900 0.951 . S
H1882 C1902 0.950 . S
H1883 C1903 0.950 . S
H1884 C1905 0.950 1_655 S
H1885 C1908 0.950 . S
H1886 C1909 0.950 . S
H1887 C1911 0.950 . S
H1888 C1912 0.950 . S
H1889 C1913 0.951 . S
H1890 C1915 0.951 . S
H1891 C1917 0.950 . S
H1892 C1918 0.950 . S
H1893 C1920 0.950 . S
H1894 C1923 0.950 . S
H1895 C1924 0.950 . S
H1896 C1926 0.950 . S
H1897 C1927 0.950 . S
C1898 H1880 0.951 . S
C1898 C1899 1.366 . S
C1898 C1900 1.388 . S
C1899 C1898 1.366 . S
C1899 C1903 1.385 . S
C1900 H1881 0.951 . S
C1900 C1898 1.388 . S
C1900 C1901 1.366 . S
C1901 C1900 1.366 . S
C1901 C1902 1.414 . S
C1901 C1904 1.499 . S
C1902 H1882 0.950 . S
C1902 C1901 1.414 . S
C1902 C1903 1.374 . S
C1903 H1883 0.950 . S
C1903 C1899 1.385 . S
C1903 C1902 1.374 . S
C1904 C1901 1.499 . S
C1904 C1905 1.373 . S
C1904 C1906 1.389 . S
C1905 H1884 0.950 1_455 S
C1905 C1904 1.373 . S
C1905 C1921 1.377 . S
C1906 C1904 1.389 . S
C1906 C1907 1.524 . S
C1906 C1920 1.377 . S
C1907 C1906 1.524 . S
C1907 C1908 1.397 . S
C1907 C1912 1.363 . S
C1908 H1885 0.950 . S
C1908 C1907 1.397 . S
C1908 C1909 1.334 . S
C1909 H1886 0.950 . S
C1909 C1908 1.334 . S
C1909 C1910 1.287 . S
C1910 C1909 1.287 . S
C1910 C1911 1.524 . S
C1910 H1929 0.913 . S
C1911 H1887 0.950 . S
C1911 C1910 1.524 . S
C1911 C1912 1.415 . S
C1912 H1888 0.950 . S
C1912 C1907 1.363 . S
C1912 C1911 1.415 . S
C1913 H1889 0.951 . S
C1913 C1914 1.366 . S
C1913 C1915 1.388 . S
C1914 C1913 1.366 . S
C1914 C1918 1.385 . S
C1915 H1890 0.951 . S
C1915 C1913 1.388 . S
C1915 C1916 1.366 . S
C1916 C1915 1.366 . S
C1916 C1917 1.414 . S
C1916 C1919 1.499 . S
C1917 H1891 0.950 . S
C1917 C1916 1.414 . S
C1917 C1918 1.374 . S
C1918 H1892 0.950 . S
C1918 C1914 1.385 . S
C1918 C1917 1.374 . S
C1919 C1916 1.499 . S
C1919 C1920 1.373 . S
C1919 C1921 1.389 . S
C1920 H1893 0.950 . S
C1920 C1906 1.377 . S
C1920 C1919 1.373 . S
C1921 C1905 1.377 . S
C1921 C1919 1.389 . S
C1921 C1922 1.524 1_455 S
C1922 C1921 1.524 1_655 S
C1922 C1923 1.397 . S
C1922 C1927 1.363 . S
C1923 H1894 0.950 . S
C1923 C1922 1.397 . S
C1923 C1924 1.334 . S
C1924 H1895 0.950 . S
C1924 C1923 1.334 . S
C1924 C1925 1.287 . S
C1925 C1924 1.287 . S
C1925 C1926 1.524 . S
C1925 H1928 0.999 . S
C1926 H1896 0.950 . S
C1926 C1925 1.524 . S
C1926 C1927 1.415 . S
C1927 H1897 0.950 . S
C1927 C1922 1.363 . S
C1927 C1926 1.415 . S
H1928 C1925 0.999 . S
H1929 C1910 0.913 . S
H1930 C1948 0.951 . S
H1931 C1950 0.951 . S
H1932 C1952 0.950 . S
H1933 C1953 0.950 . S
H1934 C1955 0.950 . S
H1935 C1958 0.950 . S
H1936 C1959 0.950 . S
H1937 C1961 0.950 . S
H1938 C1962 0.950 . S
H1939 C1963 0.951 . S
H1940 C1965 0.951 . S
H1941 C1967 0.950 . S
H1942 C1968 0.950 . S
H1943 C1970 0.950 . S
H1944 C1973 0.950 . S
H1945 C1974 0.950 . S
H1946 C1976 0.950 . S
H1947 C1977 0.950 . S
C1948 H1930 0.951 . S
C1948 C1949 1.366 . S
C1948 C1950 1.388 . S
C1949 C1948 1.366 . S
C1949 C1953 1.385 . S
C1950 H1931 0.951 . S
C1950 C1948 1.388 . S
C1950 C1951 1.366 . S
C1951 C1950 1.366 . S
C1951 C1952 1.414 . S
C1951 C1954 1.499 . S
C1952 H1932 0.950 . S
C1952 C1951 1.414 . S
C1952 C1953 1.374 . S
C1953 H1933 0.950 . S
C1953 C1949 1.385 . S
C1953 C1952 1.374 . S
C1954 C1951 1.499 . S
C1954 C1955 1.373 . S
C1954 C1956 1.389 . S
C1955 H1934 0.950 . S
C1955 C1954 1.373 . S
C1955 C1971 1.377 . S
C1956 C1954 1.389 . S
C1956 C1957 1.524 . S
C1956 C1970 1.377 . S
C1957 C1956 1.524 . S
C1957 C1958 1.397 . S
C1957 C1962 1.363 . S
C1958 H1935 0.950 . S
C1958 C1957 1.397 . S
C1958 C1959 1.334 . S
C1959 H1936 0.950 . S
C1959 C1958 1.334 . S
C1959 C1960 1.287 . S
C1960 C1959 1.287 . S
C1960 C1961 1.524 . S
C1960 H1979 0.913 . S
C1961 H1937 0.950 . S
C1961 C1960 1.524 . S
C1961 C1962 1.415 . S
C1962 H1938 0.950 . S
C1962 C1957 1.363 . S
C1962 C1961 1.415 . S
C1963 H1939 0.951 . S
C1963 C1964 1.366 . S
C1963 C1965 1.388 . S
C1964 C1963 1.366 . S
C1964 C1968 1.385 . S
C1965 H1940 0.951 . S
C1965 C1963 1.388 . S
C1965 C1966 1.366 . S
C1966 C1965 1.366 . S
C1966 C1967 1.414 . S
C1966 C1969 1.499 . S
C1967 H1941 0.950 . S
C1967 C1966 1.414 . S
C1967 C1968 1.374 . S
C1968 H1942 0.950 . S
C1968 C1964 1.385 . S
C1968 C1967 1.374 . S
C1969 C1966 1.499 . S
C1969 C1970 1.373 . S
C1969 C1971 1.389 . S
C1970 H1943 0.950 . S
C1970 C1956 1.377 . S
C1970 C1969 1.373 . S
C1971 C1955 1.377 . S
C1971 C1969 1.389 . S
C1971 C1972 1.524 . S
C1972 C1971 1.524 . S
C1972 C1973 1.397 . S
C1972 C1977 1.363 . S
C1973 H1944 0.950 . S
C1973 C1972 1.397 . S
C1973 C1974 1.334 . S
C1974 H1945 0.950 . S
C1974 C1973 1.334 . S
C1974 C1975 1.287 . S
C1975 C1974 1.287 . S
C1975 C1976 1.524 . S
C1975 H1978 0.999 . S
C1976 H1946 0.950 . S
C1976 C1975 1.524 . S
C1976 C1977 1.415 . S
C1977 H1947 0.950 . S
C1977 C1972 1.363 . S
C1977 C1976 1.415 . S
H1978 C1975 0.999 . S
H1979 C1960 0.913 . S
H1980 C1998 0.951 . S
H1981 C2000 0.951 . S
H1982 C2002 0.950 . S
H1983 C2003 0.950 . S
H1984 C2005 0.950 . S
H1985 C2008 0.950 . S
H1986 C2009 0.950 . S
H1987 C2011 0.950 . S
H1988 C2012 0.950 . S
H1989 C2013 0.951 . S
H1990 C2015 0.951 . S
H1991 C2017 0.950 . S
H1992 C2018 0.950 . S
H1993 C2020 0.950 . S
H1994 C2023 0.950 . S
H1995 C2024 0.950 . S
H1996 C2026 0.950 . S
H1997 C2027 0.950 . S
C1998 H1980 0.951 . S
C1998 C1999 1.366 . S
C1998 C2000 1.388 . S
C1999 C1998 1.366 . S
C1999 C2003 1.385 . S
C2000 H1981 0.951 . S
C2000 C1998 1.388 . S
C2000 C2001 1.366 . S
C2001 C2000 1.366 . S
C2001 C2002 1.414 . S
C2001 C2004 1.499 . S
C2002 H1982 0.950 . S
C2002 C2001 1.414 . S
C2002 C2003 1.374 . S
C2003 H1983 0.950 . S
C2003 C1999 1.385 . S
C2003 C2002 1.374 . S
C2004 C2001 1.499 . S
C2004 C2005 1.373 . S
C2004 C2006 1.389 . S
C2005 H1984 0.950 . S
C2005 C2004 1.373 . S
C2005 C2021 1.377 . S
C2006 C2004 1.389 . S
C2006 C2007 1.524 . S
C2006 C2020 1.377 . S
C2007 C2006 1.524 . S
C2007 C2008 1.397 . S
C2007 C2012 1.363 . S
C2008 H1985 0.950 . S
C2008 C2007 1.397 . S
C2008 C2009 1.334 . S
C2009 H1986 0.950 . S
C2009 C2008 1.334 . S
C2009 C2010 1.287 . S
C2010 C2009 1.287 . S
C2010 C2011 1.524 . S
C2010 H2029 0.913 . S
C2011 H1987 0.950 . S
C2011 C2010 1.524 . S
C2011 C2012 1.415 . S
C2012 H1988 0.950 . S
C2012 C2007 1.363 . S
C2012 C2011 1.415 . S
C2013 H1989 0.951 . S
C2013 C2014 1.366 . S
C2013 C2015 1.388 . S
C2014 C2013 1.366 . S
C2014 C2018 1.385 . S
C2015 H1990 0.951 . S
C2015 C2013 1.388 . S
C2015 C2016 1.366 . S
C2016 C2015 1.366 . S
C2016 C2017 1.414 . S
C2016 C2019 1.499 . S
C2017 H1991 0.950 . S
C2017 C2016 1.414 . S
C2017 C2018 1.374 . S
C2018 H1992 0.950 . S
C2018 C2014 1.385 . S
C2018 C2017 1.374 . S
C2019 C2016 1.499 . S
C2019 C2020 1.373 . S
C2019 C2021 1.389 . S
C2020 H1993 0.950 . S
C2020 C2006 1.377 . S
C2020 C2019 1.373 . S
C2021 C2005 1.377 . S
C2021 C2019 1.389 . S
C2021 C2022 1.524 . S
C2022 C2021 1.524 . S
C2022 C2023 1.397 . S
C2022 C2027 1.363 . S
C2023 H1994 0.950 . S
C2023 C2022 1.397 . S
C2023 C2024 1.334 . S
C2024 H1995 0.950 . S
C2024 C2023 1.334 . S
C2024 C2025 1.287 . S
C2025 C2024 1.287 . S
C2025 C2026 1.524 . S
C2025 H2028 0.999 . S
C2026 H1996 0.950 . S
C2026 C2025 1.524 . S
C2026 C2027 1.415 . S
C2027 H1997 0.950 . S
C2027 C2022 1.363 . S
C2027 C2026 1.415 . S
H2028 C2025 0.999 . S
H2029 C2010 0.913 . S
H2030 C2048 0.951 . S
H2031 C2050 0.951 . S
H2032 C2052 0.950 . S
H2033 C2053 0.950 . S
H2034 C2055 0.950 . S
H2035 C2058 0.950 . S
H2036 C2059 0.950 . S
H2037 C2061 0.950 . S
H2038 C2062 0.950 . S
H2039 C2063 0.951 . S
H2040 C2065 0.951 . S
H2041 C2067 0.950 . S
H2042 C2068 0.950 . S
H2043 C2070 0.950 . S
H2044 C2073 0.950 . S
H2045 C2074 0.950 . S
H2046 C2076 0.950 . S
H2047 C2077 0.950 . S
C2048 H2030 0.951 . S
C2048 C2049 1.366 . S
C2048 C2050 1.388 . S
C2049 C2048 1.366 . S
C2049 C2053 1.385 . S
C2050 H2031 0.951 . S
C2050 C2048 1.388 . S
C2050 C2051 1.366 . S
C2051 C2050 1.366 . S
C2051 C2052 1.414 . S
C2051 C2054 1.499 . S
C2052 H2032 0.950 . S
C2052 C2051 1.414 . S
C2052 C2053 1.374 . S
C2053 H2033 0.950 . S
C2053 C2049 1.385 . S
C2053 C2052 1.374 . S
C2054 C2051 1.499 . S
C2054 C2055 1.373 . S
C2054 C2056 1.389 . S
C2055 H2034 0.950 . S
C2055 C2054 1.373 . S
C2055 C2071 1.377 . S
C2056 C2054 1.389 . S
C2056 C2057 1.524 . S
C2056 C2070 1.377 . S
C2057 C2056 1.524 . S
C2057 C2058 1.397 . S
C2057 C2062 1.363 . S
C2058 H2035 0.950 . S
C2058 C2057 1.397 . S
C2058 C2059 1.334 . S
C2059 H2036 0.950 . S
C2059 C2058 1.334 . S
C2059 C2060 1.287 . S
C2060 C2059 1.287 . S
C2060 C2061 1.524 . S
C2060 H2079 0.913 . S
C2061 H2037 0.950 . S
C2061 C2060 1.524 . S
C2061 C2062 1.415 . S
C2062 H2038 0.950 . S
C2062 C2057 1.363 . S
C2062 C2061 1.415 . S
C2063 H2039 0.951 . S
C2063 C2064 1.366 . S
C2063 C2065 1.388 . S
C2064 C2063 1.366 . S
C2064 C2068 1.385 . S
C2065 H2040 0.951 . S
C2065 C2063 1.388 . S
C2065 C2066 1.366 . S
C2066 C2065 1.366 . S
C2066 C2067 1.414 . S
C2066 C2069 1.499 . S
C2067 H2041 0.950 . S
C2067 C2066 1.414 . S
C2067 C2068 1.374 . S
C2068 H2042 0.950 . S
C2068 C2064 1.385 . S
C2068 C2067 1.374 . S
C2069 C2066 1.499 . S
C2069 C2070 1.373 . S
C2069 C2071 1.389 . S
C2070 H2043 0.950 . S
C2070 C2056 1.377 . S
C2070 C2069 1.373 . S
C2071 C2055 1.377 . S
C2071 C2069 1.389 . S
C2071 C2072 1.524 . S
C2072 C2071 1.524 . S
C2072 C2073 1.397 . S
C2072 C2077 1.363 . S
C2073 H2044 0.950 . S
C2073 C2072 1.397 . S
C2073 C2074 1.334 . S
C2074 H2045 0.950 . S
C2074 C2073 1.334 . S
C2074 C2075 1.287 . S
C2075 C2074 1.287 . S
C2075 C2076 1.524 . S
C2075 H2078 0.999 . S
C2076 H2046 0.950 . S
C2076 C2075 1.524 . S
C2076 C2077 1.415 . S
C2077 H2047 0.950 . S
C2077 C2072 1.363 . S
C2077 C2076 1.415 . S
H2078 C2075 0.999 . S
H2079 C2060 0.913 . S
H2080 C2098 0.951 . S
H2081 C2100 0.906 1_565 S
H2082 C2102 0.950 . S
H2083 C2103 0.950 . S
H2084 C2105 0.950 . S
H2085 C2108 0.950 . S
H2086 C2109 0.956 1_455 S
H2087 C2111 0.950 . S
H2088 C2112 0.950 . S
H2089 C2113 0.951 . S
H2090 C2115 0.951 . S
H2091 C2117 0.950 . S
H2092 C2118 0.950 . S
H2093 C2120 0.950 . S
H2094 C2123 0.950 . S
H2095 C2124 0.950 . S
H2096 C2126 0.950 . S
H2097 C2127 0.950 . S
C2098 H2080 0.951 . S
C2098 C2099 1.366 1_565 S
C2098 C2100 1.381 1_565 S
C2099 C2098 1.366 1_545 S
C2099 C2103 1.385 . S
C2100 H2081 0.906 1_545 S
C2100 C2098 1.381 1_545 S
C2100 C2101 1.419 . S
C2101 C2100 1.419 . S
C2101 C2102 1.414 . S
C2101 C2104 1.499 . S
C2102 H2082 0.950 . S
C2102 C2101 1.414 . S
C2102 C2103 1.374 . S
C2103 H2083 0.950 . S
C2103 C2099 1.385 . S
C2103 C2102 1.374 . S
C2104 C2101 1.499 . S
C2104 C2105 1.373 . S
C2104 C2106 1.389 . S
C2105 H2084 0.950 . S
C2105 C2104 1.373 . S
C2105 C2121 1.377 . S
C2106 C2104 1.389 . S
C2106 C2107 1.524 . S
C2106 C2120 1.377 . S
C2107 C2106 1.524 . S
C2107 C2108 1.397 . S
C2107 C2112 1.363 1_545 S
C2108 H2085 0.950 . S
C2108 C2107 1.397 . S
C2108 C2109 1.363 . S
C2109 H2086 0.956 1_655 S
C2109 C2108 1.363 . S
C2109 C2110 1.255 1_655 S
C2110 C2109 1.255 1_455 S
C2110 C2111 1.524 1_545 S
C2110 H2129 0.924 . S
C2111 H2087 0.950 . S
C2111 C2110 1.524 1_565 S
C2111 C2112 1.415 1_455 S
C2112 H2088 0.950 . S
C2112 C2107 1.363 1_565 S
C2112 C2111 1.415 1_655 S
C2113 H2089 0.951 . S
C2113 C2114 1.366 1_655 S
C2113 C2115 1.388 . S
C2114 C2113 1.366 1_455 S
C2114 C2118 1.385 . S
C2115 H2090 0.951 . S
C2115 C2113 1.388 . S
C2115 C2116 1.366 . S
C2116 C2115 1.366 . S
C2116 C2117 1.414 . S
C2116 C2119 1.499 . S
C2117 H2091 0.950 . S
C2117 C2116 1.414 . S
C2117 C2118 1.374 1_655 S
C2118 H2092 0.950 . S
C2118 C2114 1.385 . S
C2118 C2117 1.374 1_455 S
C2119 C2116 1.499 . S
C2119 C2120 1.373 . S
C2119 C2121 1.389 . S
C2120 H2093 0.950 . S
C2120 C2106 1.377 . S
C2120 C2119 1.373 . S
C2121 C2105 1.377 . S
C2121 C2119 1.389 . S
C2121 C2122 1.524 . S
C2122 C2121 1.524 . S
C2122 C2123 1.397 . S
C2122 C2127 1.363 . S
C2123 H2094 0.950 . S
C2123 C2122 1.397 . S
C2123 C2124 1.334 . S
C2124 H2095 0.950 . S
C2124 C2123 1.334 . S
C2124 C2125 1.287 . S
C2125 C2124 1.287 . S
C2125 C2126 1.524 . S
C2125 H2128 0.999 . S
C2126 H2096 0.950 . S
C2126 C2125 1.524 . S
C2126 C2127 1.415 . S
C2127 H2097 0.950 . S
C2127 C2122 1.363 . S
C2127 C2126 1.415 . S
H2128 C2125 0.999 . S
H2129 C2110 0.924 . S
H2130 C2148 0.951 . S
H2131 C2150 0.951 . S
H2132 C2152 0.950 . S
H2133 C2153 0.950 . S
H2134 C2155 0.950 . S
H2135 C2158 0.950 . S
H2136 C2159 0.950 . S
H2137 C2161 0.950 . S
H2138 C2162 0.950 . S
H2139 C2163 0.951 . S
H2140 C2165 0.951 . S
H2141 C2167 0.950 . S
H2142 C2168 0.950 . S
H2143 C2170 0.950 . S
H2144 C2173 0.950 . S
H2145 C2174 0.950 . S
H2146 C2176 0.950 . S
H2147 C2177 0.950 . S
C2148 H2130 0.951 . S
C2148 C2149 1.366 . S
C2148 C2150 1.388 . S
C2149 C2148 1.366 . S
C2149 C2153 1.385 . S
C2150 H2131 0.951 . S
C2150 C2148 1.388 . S
C2150 C2151 1.366 . S
C2151 C2150 1.366 . S
C2151 C2152 1.414 . S
C2151 C2154 1.499 . S
C2152 H2132 0.950 . S
C2152 C2151 1.414 . S
C2152 C2153 1.374 . S
C2153 H2133 0.950 . S
C2153 C2149 1.385 . S
C2153 C2152 1.374 . S
C2154 C2151 1.499 . S
C2154 C2155 1.373 . S
C2154 C2156 1.389 . S
C2155 H2134 0.950 . S
C2155 C2154 1.373 . S
C2155 C2171 1.377 . S
C2156 C2154 1.389 . S
C2156 C2157 1.524 . S
C2156 C2170 1.377 . S
C2157 C2156 1.524 . S
C2157 C2158 1.397 . S
C2157 C2162 1.363 . S
C2158 H2135 0.950 . S
C2158 C2157 1.397 . S
C2158 C2159 1.334 . S
C2159 H2136 0.950 . S
C2159 C2158 1.334 . S
C2159 C2160 1.287 . S
C2160 C2159 1.287 . S
C2160 C2161 1.524 . S
C2160 H2179 0.913 . S
C2161 H2137 0.950 . S
C2161 C2160 1.524 . S
C2161 C2162 1.415 . S
C2162 H2138 0.950 . S
C2162 C2157 1.363 . S
C2162 C2161 1.415 . S
C2163 H2139 0.951 . S
C2163 C2164 1.366 . S
C2163 C2165 1.388 . S
C2164 C2163 1.366 . S
C2164 C2168 1.385 . S
C2165 H2140 0.951 . S
C2165 C2163 1.388 . S
C2165 C2166 1.366 . S
C2166 C2165 1.366 . S
C2166 C2167 1.414 . S
C2166 C2169 1.499 . S
C2167 H2141 0.950 . S
C2167 C2166 1.414 . S
C2167 C2168 1.374 . S
C2168 H2142 0.950 . S
C2168 C2164 1.385 . S
C2168 C2167 1.374 . S
C2169 C2166 1.499 . S
C2169 C2170 1.373 . S
C2169 C2171 1.389 . S
C2170 H2143 0.950 . S
C2170 C2156 1.377 . S
C2170 C2169 1.373 . S
C2171 C2155 1.377 . S
C2171 C2169 1.389 . S
C2171 C2172 1.524 . S
C2172 C2171 1.524 . S
C2172 C2173 1.397 . S
C2172 C2177 1.363 . S
C2173 H2144 0.950 . S
C2173 C2172 1.397 . S
C2173 C2174 1.334 . S
C2174 H2145 0.950 . S
C2174 C2173 1.334 . S
C2174 C2175 1.287 . S
C2175 C2174 1.287 . S
C2175 C2176 1.524 . S
C2175 H2178 0.999 . S
C2176 H2146 0.950 . S
C2176 C2175 1.524 . S
C2176 C2177 1.415 . S
C2177 H2147 0.950 . S
C2177 C2172 1.363 . S
C2177 C2176 1.415 . S
H2178 C2175 0.999 . S
H2179 C2160 0.913 . S
H2180 C2198 0.951 . S
H2181 C2200 0.951 . S
H2182 C2202 0.950 . S
H2183 C2203 0.950 . S
H2184 C2205 0.950 . S
H2185 C2208 0.950 . S
H2186 C2209 0.950 . S
H2187 C2211 0.950 . S
H2188 C2212 0.950 . S
H2189 C2213 0.955 1_565 S
H2190 C2215 0.951 . S
H2191 C2217 0.950 . S
H2192 C2218 0.950 . S
H2193 C2220 0.950 . S
H2194 C2223 0.950 1_545 S
H2195 C2224 0.950 . S
H2196 C2226 0.950 . S
H2197 C2227 0.950 . S
C2198 H2180 0.951 . S
C2198 C2199 1.366 . S
C2198 C2200 1.388 . S
C2199 C2198 1.366 . S
C2199 C2203 1.385 . S
C2200 H2181 0.951 . S
C2200 C2198 1.388 . S
C2200 C2201 1.366 . S
C2201 C2200 1.366 . S
C2201 C2202 1.414 . S
C2201 C2204 1.499 . S
C2202 H2182 0.950 . S
C2202 C2201 1.414 . S
C2202 C2203 1.374 . S
C2203 H2183 0.950 . S
C2203 C2199 1.385 . S
C2203 C2202 1.374 . S
C2204 C2201 1.499 . S
C2204 C2205 1.373 . S
C2204 C2206 1.389 . S
C2205 H2184 0.950 . S
C2205 C2204 1.373 . S
C2205 C2221 1.377 . S
C2206 C2204 1.389 . S
C2206 C2207 1.524 . S
C2206 C2220 1.377 . S
C2207 C2206 1.524 . S
C2207 C2208 1.397 . S
C2207 C2212 1.363 . S
C2208 H2185 0.950 . S
C2208 C2207 1.397 . S
C2208 C2209 1.334 . S
C2209 H2186 0.950 . S
C2209 C2208 1.334 . S
C2209 C2210 1.287 . S
C2210 C2209 1.287 . S
C2210 C2211 1.524 . S
C2210 H2229 0.913 . S
C2211 H2187 0.950 . S
C2211 C2210 1.524 . S
C2211 C2212 1.415 . S
C2212 H2188 0.950 . S
C2212 C2207 1.363 . S
C2212 C2211 1.415 . S
C2213 H2189 0.955 1_545 S
C2213 C2214 1.366 . S
C2213 C2215 1.388 . S
C2214 C2213 1.366 . S
C2214 C2218 1.385 . S
C2215 H2190 0.951 . S
C2215 C2213 1.388 . S
C2215 C2216 1.366 . S
C2216 C2215 1.366 . S
C2216 C2217 1.414 . S
C2216 C2219 1.499 . S
C2217 H2191 0.950 . S
C2217 C2216 1.414 . S
C2217 C2218 1.374 . S
C2218 H2192 0.950 . S
C2218 C2214 1.385 . S
C2218 C2217 1.374 . S
C2219 C2216 1.499 . S
C2219 C2220 1.373 . S
C2219 C2221 1.389 . S
C2220 H2193 0.950 . S
C2220 C2206 1.377 . S
C2220 C2219 1.373 . S
C2221 C2205 1.377 . S
C2221 C2219 1.389 . S
C2221 C2222 1.524 1_545 S
C2222 C2221 1.524 1_565 S
C2222 C2223 1.397 . S
C2222 C2227 1.363 . S
C2223 H2194 0.950 1_565 S
C2223 C2222 1.397 . S
C2223 C2224 1.334 . S
C2224 H2195 0.950 . S
C2224 C2223 1.334 . S
C2224 C2225 1.287 . S
C2225 C2224 1.287 . S
C2225 C2226 1.524 . S
C2225 H2228 0.999 . S
C2226 H2196 0.950 . S
C2226 C2225 1.524 . S
C2226 C2227 1.415 . S
C2227 H2197 0.950 . S
C2227 C2222 1.363 . S
C2227 C2226 1.415 . S
H2228 C2225 0.999 . S
H2229 C2210 0.913 . S
H2230 C2248 0.951 . S
H2231 C2250 0.951 . S
H2232 C2252 0.950 . S
H2233 C2253 0.950 . S
H2234 C2255 0.950 . S
H2235 C2258 0.950 . S
H2236 C2259 0.950 . S
H2237 C2261 0.950 . S
H2238 C2262 0.950 . S
H2239 C2263 0.951 . S
H2240 C2265 0.951 . S
H2241 C2267 0.950 . S
H2242 C2268 0.950 . S
H2243 C2270 0.950 . S
H2244 C2273 0.950 . S
H2245 C2274 0.950 . S
H2246 C2276 0.950 . S
H2247 C2277 0.950 . S
C2248 H2230 0.951 . S
C2248 C2249 1.366 . S
C2248 C2250 1.388 . S
C2249 C2248 1.366 . S
C2249 C2253 1.385 . S
C2250 H2231 0.951 . S
C2250 C2248 1.388 . S
C2250 C2251 1.366 . S
C2251 C2250 1.366 . S
C2251 C2252 1.414 . S
C2251 C2254 1.499 . S
C2252 H2232 0.950 . S
C2252 C2251 1.414 . S
C2252 C2253 1.374 . S
C2253 H2233 0.950 . S
C2253 C2249 1.385 . S
C2253 C2252 1.374 . S
C2254 C2251 1.499 . S
C2254 C2255 1.373 . S
C2254 C2256 1.389 . S
C2255 H2234 0.950 . S
C2255 C2254 1.373 . S
C2255 C2271 1.377 . S
C2256 C2254 1.389 . S
C2256 C2257 1.524 . S
C2256 C2270 1.377 . S
C2257 C2256 1.524 . S
C2257 C2258 1.397 . S
C2257 C2262 1.363 . S
C2258 H2235 0.950 . S
C2258 C2257 1.397 . S
C2258 C2259 1.334 . S
C2259 H2236 0.950 . S
C2259 C2258 1.334 . S
C2259 C2260 1.287 . S
C2260 C2259 1.287 . S
C2260 C2261 1.524 . S
C2260 H2279 0.913 . S
C2261 H2237 0.950 . S
C2261 C2260 1.524 . S
C2261 C2262 1.415 . S
C2262 H2238 0.950 . S
C2262 C2257 1.363 . S
C2262 C2261 1.415 . S
C2263 H2239 0.951 . S
C2263 C2264 1.366 . S
C2263 C2265 1.388 . S
C2264 C2263 1.366 . S
C2264 C2268 1.385 . S
C2265 H2240 0.951 . S
C2265 C2263 1.388 . S
C2265 C2266 1.366 . S
C2266 C2265 1.366 . S
C2266 C2267 1.414 . S
C2266 C2269 1.499 . S
C2267 H2241 0.950 . S
C2267 C2266 1.414 . S
C2267 C2268 1.374 . S
C2268 H2242 0.950 . S
C2268 C2264 1.385 . S
C2268 C2267 1.374 . S
C2269 C2266 1.499 . S
C2269 C2270 1.373 . S
C2269 C2271 1.389 . S
C2270 H2243 0.950 . S
C2270 C2256 1.377 . S
C2270 C2269 1.373 . S
C2271 C2255 1.377 . S
C2271 C2269 1.389 . S
C2271 C2272 1.524 . S
C2272 C2271 1.524 . S
C2272 C2273 1.397 . S
C2272 C2277 1.363 . S
C2273 H2244 0.950 . S
C2273 C2272 1.397 . S
C2273 C2274 1.334 . S
C2274 H2245 0.950 . S
C2274 C2273 1.334 . S
C2274 C2275 1.287 . S
C2275 C2274 1.287 . S
C2275 C2276 1.524 . S
C2275 H2278 0.999 . S
C2276 H2246 0.950 . S
C2276 C2275 1.524 . S
C2276 C2277 1.415 . S
C2277 H2247 0.950 . S
C2277 C2272 1.363 . S
C2277 C2276 1.415 . S
H2278 C2275 0.999 . S
H2279 C2260 0.913 . S
H2280 C2298 0.951 . S
H2281 C2300 0.951 . S
H2282 C2302 0.950 . S
H2283 C2303 0.950 . S
H2284 C2305 0.950 1_565 S
H2285 C2308 0.950 . S
H2286 C2309 0.950 . S
H2287 C2311 0.950 . S
H2288 C2312 0.950 . S
H2289 C2313 0.951 . S
H2290 C2315 0.951 . S
H2291 C2317 0.950 . S
H2292 C2318 0.950 . S
H2293 C2320 0.950 . S
H2294 C2323 0.950 . S
H2295 C2324 0.950 . S
H2296 C2326 0.950 . S
H2297 C2327 0.949 1_455 S
C2298 H2280 0.951 . S
C2298 C2299 1.366 . S
C2298 C2300 1.388 . S
C2299 C2298 1.366 . S
C2299 C2303 1.385 . S
C2300 H2281 0.951 . S
C2300 C2298 1.388 . S
C2300 C2301 1.366 . S
C2301 C2300 1.366 . S
C2301 C2302 1.414 . S
C2301 C2304 1.499 . S
C2302 H2282 0.950 . S
C2302 C2301 1.414 . S
C2302 C2303 1.374 . S
C2303 H2283 0.950 . S
C2303 C2299 1.385 . S
C2303 C2302 1.374 . S
C2304 C2301 1.499 . S
C2304 C2305 1.373 . S
C2304 C2306 1.389 . S
C2305 H2284 0.950 1_545 S
C2305 C2304 1.373 . S
C2305 C2321 1.377 . S
C2306 C2304 1.389 . S
C2306 C2307 1.524 . S
C2306 C2320 1.377 . S
C2307 C2306 1.524 . S
C2307 C2308 1.397 . S
C2307 C2312 1.363 . S
C2308 H2285 0.950 . S
C2308 C2307 1.397 . S
C2308 C2309 1.334 . S
C2309 H2286 0.950 . S
C2309 C2308 1.334 . S
C2309 C2310 1.287 . S
C2310 C2309 1.287 . S
C2310 C2311 1.524 . S
C2310 H2329 0.913 . S
C2311 H2287 0.950 . S
C2311 C2310 1.524 . S
C2311 C2312 1.415 . S
C2312 H2288 0.950 . S
C2312 C2307 1.363 . S
C2312 C2311 1.415 . S
C2313 H2289 0.951 . S
C2313 C2314 1.366 . S
C2313 C2315 1.388 . S
C2314 C2313 1.366 . S
C2314 C2318 1.385 1_455 S
C2315 H2290 0.951 . S
C2315 C2313 1.388 . S
C2315 C2316 1.366 1_455 S
C2316 C2315 1.366 1_655 S
C2316 C2317 1.414 . S
C2316 C2319 1.499 . S
C2317 H2291 0.950 . S
C2317 C2316 1.414 . S
C2317 C2318 1.374 . S
C2318 H2292 0.950 . S
C2318 C2314 1.385 1_655 S
C2318 C2317 1.374 . S
C2319 C2316 1.499 . S
C2319 C2320 1.373 . S
C2319 C2321 1.389 . S
C2320 H2293 0.950 . S
C2320 C2306 1.377 . S
C2320 C2319 1.373 . S
C2321 C2305 1.377 . S
C2321 C2319 1.389 . S
C2321 C2322 1.524 1_545 S
C2322 C2321 1.524 1_565 S
C2322 C2323 1.397 . S
C2322 C2327 1.366 . S
C2323 H2294 0.950 . S
C2323 C2322 1.397 . S
C2323 C2324 1.334 . S
C2324 H2295 0.950 . S
C2324 C2323 1.334 . S
C2324 C2325 1.287 . S
C2325 C2324 1.287 . S
C2325 C2326 1.524 1_655 S
C2325 H2328 0.988 1_655 S
C2326 H2296 0.950 . S
C2326 C2325 1.524 1_455 S
C2326 C2327 1.413 1_455 S
C2327 H2297 0.949 1_655 S
C2327 C2322 1.366 . S
C2327 C2326 1.413 1_655 S
H2328 C2325 0.988 1_455 S
H2329 C2310 0.913 . S
H2330 C2348 0.951 . S
H2331 C2350 0.951 . S
H2332 C2352 0.950 . S
H2333 C2353 0.950 . S
H2334 C2355 0.950 . S
H2335 C2358 0.950 . S
H2336 C2359 0.950 . S
H2337 C2361 0.950 . S
H2338 C2362 0.950 . S
H2339 C2363 0.951 . S
H2340 C2365 0.951 . S
H2341 C2367 0.950 . S
H2342 C2368 0.950 . S
H2343 C2370 0.950 . S
H2344 C2373 0.950 . S
H2345 C2374 0.950 . S
H2346 C2376 0.950 . S
H2347 C2377 0.950 . S
C2348 H2330 0.951 . S
C2348 C2349 1.366 . S
C2348 C2350 1.388 . S
C2349 C2348 1.366 . S
C2349 C2353 1.385 . S
C2350 H2331 0.951 . S
C2350 C2348 1.388 . S
C2350 C2351 1.366 . S
C2351 C2350 1.366 . S
C2351 C2352 1.414 . S
C2351 C2354 1.499 . S
C2352 H2332 0.950 . S
C2352 C2351 1.414 . S
C2352 C2353 1.374 . S
C2353 H2333 0.950 . S
C2353 C2349 1.385 . S
C2353 C2352 1.374 . S
C2354 C2351 1.499 . S
C2354 C2355 1.373 . S
C2354 C2356 1.389 . S
C2355 H2334 0.950 . S
C2355 C2354 1.373 . S
C2355 C2371 1.377 . S
C2356 C2354 1.389 . S
C2356 C2357 1.524 . S
C2356 C2370 1.377 . S
C2357 C2356 1.524 . S
C2357 C2358 1.397 . S
C2357 C2362 1.363 . S
C2358 H2335 0.950 . S
C2358 C2357 1.397 . S
C2358 C2359 1.334 . S
C2359 H2336 0.950 . S
C2359 C2358 1.334 . S
C2359 C2360 1.287 . S
C2360 C2359 1.287 . S
C2360 C2361 1.524 . S
C2360 H2379 0.913 . S
C2361 H2337 0.950 . S
C2361 C2360 1.524 . S
C2361 C2362 1.415 . S
C2362 H2338 0.950 . S
C2362 C2357 1.363 . S
C2362 C2361 1.415 . S
C2363 H2339 0.951 . S
C2363 C2364 1.366 . S
C2363 C2365 1.388 . S
C2364 C2363 1.366 . S
C2364 C2368 1.385 . S
C2365 H2340 0.951 . S
C2365 C2363 1.388 . S
C2365 C2366 1.366 . S
C2366 C2365 1.366 . S
C2366 C2367 1.414 . S
C2366 C2369 1.499 . S
C2367 H2341 0.950 . S
C2367 C2366 1.414 . S
C2367 C2368 1.374 . S
C2368 H2342 0.950 . S
C2368 C2364 1.385 . S
C2368 C2367 1.374 . S
C2369 C2366 1.499 . S
C2369 C2370 1.373 . S
C2369 C2371 1.389 . S
C2370 H2343 0.950 . S
C2370 C2356 1.377 . S
C2370 C2369 1.373 . S
C2371 C2355 1.377 . S
C2371 C2369 1.389 . S
C2371 C2372 1.524 . S
C2372 C2371 1.524 . S
C2372 C2373 1.397 . S
C2372 C2377 1.363 . S
C2373 H2344 0.950 . S
C2373 C2372 1.397 . S
C2373 C2374 1.334 . S
C2374 H2345 0.950 . S
C2374 C2373 1.334 . S
C2374 C2375 1.287 . S
C2375 C2374 1.287 . S
C2375 C2376 1.524 . S
C2375 H2378 0.999 . S
C2376 H2346 0.950 . S
C2376 C2375 1.524 . S
C2376 C2377 1.415 . S
C2377 H2347 0.950 . S
C2377 C2372 1.363 . S
C2377 C2376 1.415 . S
H2378 C2375 0.999 . S
H2379 C2360 0.913 . S
H2380 C2398 0.951 . S
H2381 C2400 0.951 . S
H2382 C2402 0.950 . S
H2383 C2403 0.950 . S
H2384 C2405 0.950 . S
H2385 C2408 0.950 . S
H2386 C2409 0.950 . S
H2387 C2411 0.950 . S
H2388 C2412 0.950 . S
H2389 C2413 0.951 . S
H2390 C2415 0.951 . S
H2391 C2417 0.950 . S
H2392 C2418 0.950 . S
H2393 C2420 0.950 . S
H2394 C2423 0.950 . S
H2395 C2424 0.950 . S
H2396 C2426 0.950 . S
H2397 C2427 0.950 . S
C2398 H2380 0.951 . S
C2398 C2399 1.366 . S
C2398 C2400 1.388 . S
C2399 C2398 1.366 . S
C2399 C2403 1.385 . S
C2400 H2381 0.951 . S
C2400 C2398 1.388 . S
C2400 C2401 1.366 . S
C2401 C2400 1.366 . S
C2401 C2402 1.414 . S
C2401 C2404 1.499 . S
C2402 H2382 0.950 . S
C2402 C2401 1.414 . S
C2402 C2403 1.374 . S
C2403 H2383 0.950 . S
C2403 C2399 1.385 . S
C2403 C2402 1.374 . S
C2404 C2401 1.499 . S
C2404 C2405 1.373 . S
C2404 C2406 1.389 . S
C2405 H2384 0.950 . S
C2405 C2404 1.373 . S
C2405 C2421 1.377 . S
C2406 C2404 1.389 . S
C2406 C2407 1.524 . S
C2406 C2420 1.377 . S
C2407 C2406 1.524 . S
C2407 C2408 1.397 . S
C2407 C2412 1.363 . S
C2408 H2385 0.950 . S
C2408 C2407 1.397 . S
C2408 C2409 1.334 . S
C2409 H2386 0.950 . S
C2409 C2408 1.334 . S
C2409 C2410 1.287 . S
C2410 C2409 1.287 . S
C2410 C2411 1.524 . S
C2410 H2429 0.913 . S
C2411 H2387 0.950 . S
C2411 C2410 1.524 . S
C2411 C2412 1.415 . S
C2412 H2388 0.950 . S
C2412 C2407 1.363 . S
C2412 C2411 1.415 . S
C2413 H2389 0.951 . S
C2413 C2414 1.366 . S
C2413 C2415 1.388 . S
C2414 C2413 1.366 . S
C2414 C2418 1.385 . S
C2415 H2390 0.951 . S
C2415 C2413 1.388 . S
C2415 C2416 1.366 . S
C2416 C2415 1.366 . S
C2416 C2417 1.414 . S
C2416 C2419 1.499 . S
C2417 H2391 0.950 . S
C2417 C2416 1.414 . S
C2417 C2418 1.374 . S
C2418 H2392 0.950 . S
C2418 C2414 1.385 . S
C2418 C2417 1.374 . S
C2419 C2416 1.499 . S
C2419 C2420 1.373 . S
C2419 C2421 1.389 . S
C2420 H2393 0.950 . S
C2420 C2406 1.377 . S
C2420 C2419 1.373 . S
C2421 C2405 1.377 . S
C2421 C2419 1.389 . S
C2421 C2422 1.524 . S
C2422 C2421 1.524 . S
C2422 C2423 1.397 . S
C2422 C2427 1.363 . S
C2423 H2394 0.950 . S
C2423 C2422 1.397 . S
C2423 C2424 1.334 1_545 S
C2424 H2395 0.950 . S
C2424 C2423 1.334 1_565 S
C2424 C2425 1.287 . S
C2425 C2424 1.287 . S
C2425 C2426 1.524 1_565 S
C2425 H2428 0.999 . S
C2426 H2396 0.950 . S
C2426 C2425 1.524 1_545 S
C2426 C2427 1.415 . S
C2427 H2397 0.950 . S
C2427 C2422 1.363 . S
C2427 C2426 1.415 . S
H2428 C2425 0.999 . S
H2429 C2410 0.913 . S
H2430 C2448 0.951 . S
H2431 C2450 0.951 . S
H2432 C2452 0.950 . S
H2433 C2453 0.950 . S
H2434 C2455 0.950 . S
H2435 C2458 0.950 . S
H2436 C2459 0.950 . S
H2437 C2461 0.950 . S
H2438 C2462 0.950 . S
H2439 C2463 0.951 . S
H2440 C2465 0.951 . S
H2441 C2467 0.950 . S
H2442 C2468 0.950 . S
H2443 C2470 0.950 . S
H2444 C2473 0.950 . S
H2445 C2474 0.950 . S
H2446 C2476 0.950 . S
H2447 C2477 0.950 . S
C2448 H2430 0.951 . S
C2448 C2449 1.366 . S
C2448 C2450 1.388 . S
C2449 C2448 1.366 . S
C2449 C2453 1.385 . S
C2450 H2431 0.951 . S
C2450 C2448 1.388 . S
C2450 C2451 1.366 . S
C2451 C2450 1.366 . S
C2451 C2452 1.414 . S
C2451 C2454 1.499 . S
C2452 H2432 0.950 . S
C2452 C2451 1.414 . S
C2452 C2453 1.374 . S
C2453 H2433 0.950 . S
C2453 C2449 1.385 . S
C2453 C2452 1.374 . S
C2454 C2451 1.499 . S
C2454 C2455 1.373 . S
C2454 C2456 1.389 . S
C2455 H2434 0.950 . S
C2455 C2454 1.373 . S
C2455 C2471 1.377 . S
C2456 C2454 1.389 . S
C2456 C2457 1.524 . S
C2456 C2470 1.377 . S
C2457 C2456 1.524 . S
C2457 C2458 1.397 . S
C2457 C2462 1.363 . S
C2458 H2435 0.950 . S
C2458 C2457 1.397 . S
C2458 C2459 1.334 . S
C2459 H2436 0.950 . S
C2459 C2458 1.334 . S
C2459 C2460 1.287 . S
C2460 C2459 1.287 . S
C2460 C2461 1.524 . S
C2460 H2479 0.913 . S
C2461 H2437 0.950 . S
C2461 C2460 1.524 . S
C2461 C2462 1.415 . S
C2462 H2438 0.950 . S
C2462 C2457 1.363 . S
C2462 C2461 1.415 . S
C2463 H2439 0.951 . S
C2463 C2464 1.366 . S
C2463 C2465 1.388 . S
C2464 C2463 1.366 . S
C2464 C2468 1.385 . S
C2465 H2440 0.951 . S
C2465 C2463 1.388 . S
C2465 C2466 1.366 . S
C2466 C2465 1.366 . S
C2466 C2467 1.414 . S
C2466 C2469 1.499 . S
C2467 H2441 0.950 . S
C2467 C2466 1.414 . S
C2467 C2468 1.374 . S
C2468 H2442 0.950 . S
C2468 C2464 1.385 . S
C2468 C2467 1.374 . S
C2469 C2466 1.499 . S
C2469 C2470 1.373 . S
C2469 C2471 1.389 . S
C2470 H2443 0.950 . S
C2470 C2456 1.377 . S
C2470 C2469 1.373 . S
C2471 C2455 1.377 . S
C2471 C2469 1.389 . S
C2471 C2472 1.524 . S
C2472 C2471 1.524 . S
C2472 C2473 1.397 . S
C2472 C2477 1.363 . S
C2473 H2444 0.950 . S
C2473 C2472 1.397 . S
C2473 C2474 1.334 . S
C2474 H2445 0.950 . S
C2474 C2473 1.334 . S
C2474 C2475 1.287 . S
C2475 C2474 1.287 . S
C2475 C2476 1.524 . S
C2475 H2478 0.999 . S
C2476 H2446 0.950 . S
C2476 C2475 1.524 . S
C2476 C2477 1.415 . S
C2477 H2447 0.950 . S
C2477 C2472 1.363 . S
C2477 C2476 1.415 . S
H2478 C2475 0.999 . S
H2479 C2460 0.913 . S
H2480 C2498 0.951 . S
H2481 C2500 0.951 . S
H2482 C2502 0.950 1_556 S
H2483 C2503 0.950 . S
H2484 C2505 0.950 1_556 S
H2485 C2508 0.950 . S
H2486 C2509 0.950 . S
H2487 C2511 0.950 . S
H2488 C2512 0.950 . S
H2489 C2513 0.951 . S
H2490 C2515 0.951 . S
H2491 C2517 0.950 . S
H2492 C2518 0.950 . S
H2493 C2520 0.950 . S
H2494 C2523 0.950 1_544 S
H2495 C2524 0.950 . S
H2496 C2526 0.950 . S
H2497 C2527 0.950 . S
C2498 H2480 0.951 . S
C2498 C2499 1.366 . S
C2498 C2500 1.388 . S
C2499 C2498 1.366 . S
C2499 C2503 1.385 1_554 S
C2500 H2481 0.951 . S
C2500 C2498 1.388 . S
C2500 C2501 1.366 . S
C2501 C2500 1.366 . S
C2501 C2502 1.414 . S
C2501 C2504 1.499 . S
C2502 H2482 0.950 1_554 S
C2502 C2501 1.414 . S
C2502 C2503 1.374 1_554 S
C2503 H2483 0.950 . S
C2503 C2499 1.385 1_556 S
C2503 C2502 1.374 1_556 S
C2504 C2501 1.499 . S
C2504 C2505 1.373 . S
C2504 C2506 1.389 . S
C2505 H2484 0.950 1_554 S
C2505 C2504 1.373 . S
C2505 C2521 1.377 . S
C2506 C2504 1.389 . S
C2506 C2507 1.524 . S
C2506 C2520 1.377 . S
C2507 C2506 1.524 . S
C2507 C2508 1.397 . S
C2507 C2512 1.363 . S
C2508 H2485 0.950 . S
C2508 C2507 1.397 . S
C2508 C2509 1.334 . S
C2509 H2486 0.950 . S
C2509 C2508 1.334 . S
C2509 C2510 1.287 . S
C2510 C2509 1.287 . S
C2510 C2511 1.524 . S
C2510 H2529 0.913 . S
C2511 H2487 0.950 . S
C2511 C2510 1.524 . S
C2511 C2512 1.415 . S
C2512 H2488 0.950 . S
C2512 C2507 1.363 . S
C2512 C2511 1.415 . S
C2513 H2489 0.951 . S
C2513 C2514 1.366 1_565 S
C2513 C2515 1.388 . S
C2514 C2513 1.366 1_545 S
C2514 C2518 1.385 . S
C2515 H2490 0.951 . S
C2515 C2513 1.388 . S
C2515 C2516 1.366 . S
C2516 C2515 1.366 . S
C2516 C2517 1.414 1_565 S
C2516 C2519 1.499 . S
C2517 H2491 0.950 . S
C2517 C2516 1.414 1_545 S
C2517 C2518 1.374 . S
C2518 H2492 0.950 . S
C2518 C2514 1.385 . S
C2518 C2517 1.374 . S
C2519 C2516 1.499 . S
C2519 C2520 1.373 . S
C2519 C2521 1.389 . S
C2520 H2493 0.950 . S
C2520 C2506 1.377 . S
C2520 C2519 1.373 . S
C2521 C2505 1.377 . S
C2521 C2519 1.389 . S
C2521 C2522 1.524 1_554 S
C2522 C2521 1.524 1_556 S
C2522 C2523 1.397 . S
C2522 C2527 1.363 . S
C2523 H2494 0.950 1_566 S
C2523 C2522 1.397 . S
C2523 C2524 1.334 1_565 S
C2524 H2495 0.950 . S
C2524 C2523 1.334 1_545 S
C2524 C2525 1.287 1_545 S
C2525 C2524 1.287 1_565 S
C2525 C2526 1.524 . S
C2525 H2528 0.999 . S
C2526 H2496 0.950 . S
C2526 C2525 1.524 . S
C2526 C2527 1.415 . S
C2527 H2497 0.950 . S
C2527 C2522 1.363 . S
C2527 C2526 1.415 . S
H2528 C2525 0.999 . S
H2529 C2510 0.913 . S
H2530 C2548 0.951 . S
H2531 C2550 0.951 . S
H2532 C2552 0.950 . S
H2533 C2553 0.950 . S
H2534 C2555 0.950 . S
H2535 C2558 0.950 . S
H2536 C2559 0.950 . S
H2537 C2561 0.950 . S
H2538 C2562 0.950 . S
H2539 C2563 0.951 . S
H2540 C2565 0.951 . S
H2541 C2567 0.950 . S
H2542 C2568 0.950 . S
H2543 C2570 0.936 1_556 S
H2544 C2573 0.950 . S
H2545 C2574 0.950 . S
H2546 C2576 0.950 . S
H2547 C2577 0.950 . S
C2548 H2530 0.951 . S
C2548 C2549 1.366 . S
C2548 C2550 1.388 . S
C2549 C2548 1.366 . S
C2549 C2553 1.385 . S
C2550 H2531 0.951 . S
C2550 C2548 1.388 . S
C2550 C2551 1.366 . S
C2551 C2550 1.366 . S
C2551 C2552 1.414 . S
C2551 C2554 1.499 . S
C2552 H2532 0.950 . S
C2552 C2551 1.414 . S
C2552 C2553 1.374 . S
C2553 H2533 0.950 . S
C2553 C2549 1.385 . S
C2553 C2552 1.374 . S
C2554 C2551 1.499 . S
C2554 C2555 1.373 . S
C2554 C2556 1.389 . S
C2555 H2534 0.950 . S
C2555 C2554 1.373 . S
C2555 C2571 1.377 . S
C2556 C2554 1.389 . S
C2556 C2557 1.524 1_554 S
C2556 C2570 1.377 . S
C2557 C2556 1.524 1_556 S
C2557 C2558 1.397 . S
C2557 C2562 1.363 . S
C2558 H2535 0.950 . S
C2558 C2557 1.397 . S
C2558 C2559 1.334 . S
C2559 H2536 0.950 . S
C2559 C2558 1.334 . S
C2559 C2560 1.287 . S
C2560 C2559 1.287 . S
C2560 C2561 1.524 . S
C2560 H2579 0.913 . S
C2561 H2537 0.950 . S
C2561 C2560 1.524 . S
C2561 C2562 1.415 . S
C2562 H2538 0.950 . S
C2562 C2557 1.363 . S
C2562 C2561 1.415 . S
C2563 H2539 0.951 . S
C2563 C2564 1.366 . S
C2563 C2565 1.388 . S
C2564 C2563 1.366 . S
C2564 C2568 1.385 . S
C2565 H2540 0.951 . S
C2565 C2563 1.388 . S
C2565 C2566 1.366 . S
C2566 C2565 1.366 . S
C2566 C2567 1.414 . S
C2566 C2569 1.499 . S
C2567 H2541 0.950 . S
C2567 C2566 1.414 . S
C2567 C2568 1.374 . S
C2568 H2542 0.950 . S
C2568 C2564 1.385 . S
C2568 C2567 1.374 . S
C2569 C2566 1.499 . S
C2569 C2570 1.373 . S
C2569 C2571 1.389 . S
C2570 H2543 0.936 1_554 S
C2570 C2556 1.377 . S
C2570 C2569 1.373 . S
C2571 C2555 1.377 . S
C2571 C2569 1.389 . S
C2571 C2572 1.524 . S
C2572 C2571 1.524 . S
C2572 C2573 1.397 . S
C2572 C2577 1.363 . S
C2573 H2544 0.950 . S
C2573 C2572 1.397 . S
C2573 C2574 1.334 . S
C2574 H2545 0.950 . S
C2574 C2573 1.334 . S
C2574 C2575 1.287 . S
C2575 C2574 1.287 . S
C2575 C2576 1.524 . S
C2575 H2578 0.999 . S
C2576 H2546 0.950 . S
C2576 C2575 1.524 . S
C2576 C2577 1.415 . S
C2577 H2547 0.950 . S
C2577 C2572 1.363 . S
C2577 C2576 1.415 . S
H2578 C2575 0.999 . S
H2579 C2560 0.913 . S
H2580 C2598 0.951 . S
H2581 C2600 0.951 . S
H2582 C2602 0.950 . S
H2583 C2603 0.950 . S
H2584 C2605 0.950 . S
H2585 C2608 0.950 . S
H2586 C2609 0.950 . S
H2587 C2611 0.950 . S
H2588 C2612 0.950 . S
H2589 C2613 0.951 . S
H2590 C2615 0.951 . S
H2591 C2617 0.950 . S
H2592 C2618 0.950 . S
H2593 C2620 0.950 . S
H2594 C2623 0.950 . S
H2595 C2624 0.950 . S
H2596 C2626 0.950 . S
H2597 C2627 0.950 . S
C2598 H2580 0.951 . S
C2598 C2599 1.366 . S
C2598 C2600 1.388 . S
C2599 C2598 1.366 . S
C2599 C2603 1.385 . S
C2600 H2581 0.951 . S
C2600 C2598 1.388 . S
C2600 C2601 1.366 . S
C2601 C2600 1.366 . S
C2601 C2602 1.414 . S
C2601 C2604 1.499 . S
C2602 H2582 0.950 . S
C2602 C2601 1.414 . S
C2602 C2603 1.374 . S
C2603 H2583 0.950 . S
C2603 C2599 1.385 . S
C2603 C2602 1.374 . S
C2604 C2601 1.499 . S
C2604 C2605 1.373 . S
C2604 C2606 1.389 . S
C2605 H2584 0.950 . S
C2605 C2604 1.373 . S
C2605 C2621 1.377 . S
C2606 C2604 1.389 . S
C2606 C2607 1.524 . S
C2606 C2620 1.377 . S
C2607 C2606 1.524 . S
C2607 C2608 1.397 . S
C2607 C2612 1.363 . S
C2608 H2585 0.950 . S
C2608 C2607 1.397 . S
C2608 C2609 1.334 . S
C2609 H2586 0.950 . S
C2609 C2608 1.334 . S
C2609 C2610 1.287 . S
C2610 C2609 1.287 . S
C2610 C2611 1.524 . S
C2610 H2629 0.913 . S
C2611 H2587 0.950 . S
C2611 C2610 1.524 . S
C2611 C2612 1.415 . S
C2612 H2588 0.950 . S
C2612 C2607 1.363 . S
C2612 C2611 1.415 . S
C2613 H2589 0.951 . S
C2613 C2614 1.366 . S
C2613 C2615 1.388 . S
C2614 C2613 1.366 . S
C2614 C2618 1.385 . S
C2615 H2590 0.951 . S
C2615 C2613 1.388 . S
C2615 C2616 1.366 . S
C2616 C2615 1.366 . S
C2616 C2617 1.414 . S
C2616 C2619 1.499 . S
C2617 H2591 0.950 . S
C2617 C2616 1.414 . S
C2617 C2618 1.374 . S
C2618 H2592 0.950 . S
C2618 C2614 1.385 . S
C2618 C2617 1.374 . S
C2619 C2616 1.499 . S
C2619 C2620 1.373 . S
C2619 C2621 1.389 . S
C2620 H2593 0.950 . S
C2620 C2606 1.377 . S
C2620 C2619 1.373 . S
C2621 C2605 1.377 . S
C2621 C2619 1.389 . S
C2621 C2622 1.524 . S
C2622 C2621 1.524 . S
C2622 C2623 1.397 . S
C2622 C2627 1.363 . S
C2623 H2594 0.950 . S
C2623 C2622 1.397 . S
C2623 C2624 1.334 . S
C2624 H2595 0.950 . S
C2624 C2623 1.334 . S
C2624 C2625 1.287 . S
C2625 C2624 1.287 . S
C2625 C2626 1.524 . S
C2625 H2628 0.999 . S
C2626 H2596 0.950 . S
C2626 C2625 1.524 . S
C2626 C2627 1.415 . S
C2627 H2597 0.950 . S
C2627 C2622 1.363 . S
C2627 C2626 1.415 . S
H2628 C2625 0.999 . S
H2629 C2610 0.913 . S
H2630 C2648 0.951 . S
H2631 C2650 0.951 . S
H2632 C2652 0.950 . S
H2633 C2653 0.950 . S
H2634 C2655 0.950 . S
H2635 C2658 0.950 . S
H2636 C2659 0.950 . S
H2637 C2661 0.950 . S
H2638 C2662 0.950 . S
H2639 C2663 0.951 . S
H2640 C2665 0.951 . S
H2641 C2667 0.950 . S
H2642 C2668 0.950 . S
H2643 C2670 0.950 . S
H2644 C2673 0.950 . S
H2645 C2674 0.950 . S
H2646 C2676 0.950 . S
H2647 C2677 0.950 . S
C2648 H2630 0.951 . S
C2648 C2649 1.366 . S
C2648 C2650 1.388 . S
C2649 C2648 1.366 . S
C2649 C2653 1.385 . S
C2650 H2631 0.951 . S
C2650 C2648 1.388 . S
C2650 C2651 1.366 . S
C2651 C2650 1.366 . S
C2651 C2652 1.414 . S
C2651 C2654 1.499 . S
C2652 H2632 0.950 . S
C2652 C2651 1.414 . S
C2652 C2653 1.374 . S
C2653 H2633 0.950 . S
C2653 C2649 1.385 . S
C2653 C2652 1.374 . S
C2654 C2651 1.499 . S
C2654 C2655 1.373 . S
C2654 C2656 1.389 . S
C2655 H2634 0.950 . S
C2655 C2654 1.373 . S
C2655 C2671 1.377 . S
C2656 C2654 1.389 . S
C2656 C2657 1.524 . S
C2656 C2670 1.377 . S
C2657 C2656 1.524 . S
C2657 C2658 1.397 . S
C2657 C2662 1.363 . S
C2658 H2635 0.950 . S
C2658 C2657 1.397 . S
C2658 C2659 1.334 . S
C2659 H2636 0.950 . S
C2659 C2658 1.334 . S
C2659 C2660 1.287 . S
C2660 C2659 1.287 . S
C2660 C2661 1.524 . S
C2660 H2679 0.913 . S
C2661 H2637 0.950 . S
C2661 C2660 1.524 . S
C2661 C2662 1.415 . S
C2662 H2638 0.950 . S
C2662 C2657 1.363 . S
C2662 C2661 1.415 . S
C2663 H2639 0.951 . S
C2663 C2664 1.366 . S
C2663 C2665 1.388 . S
C2664 C2663 1.366 . S
C2664 C2668 1.385 . S
C2665 H2640 0.951 . S
C2665 C2663 1.388 . S
C2665 C2666 1.366 . S
C2666 C2665 1.366 . S
C2666 C2667 1.414 . S
C2666 C2669 1.499 . S
C2667 H2641 0.950 . S
C2667 C2666 1.414 . S
C2667 C2668 1.374 . S
C2668 H2642 0.950 . S
C2668 C2664 1.385 . S
C2668 C2667 1.374 . S
C2669 C2666 1.499 . S
C2669 C2670 1.373 . S
C2669 C2671 1.389 . S
C2670 H2643 0.950 . S
C2670 C2656 1.377 . S
C2670 C2669 1.373 . S
C2671 C2655 1.377 . S
C2671 C2669 1.389 . S
C2671 C2672 1.524 . S
C2672 C2671 1.524 . S
C2672 C2673 1.397 . S
C2672 C2677 1.363 . S
C2673 H2644 0.950 . S
C2673 C2672 1.397 . S
C2673 C2674 1.334 . S
C2674 H2645 0.950 . S
C2674 C2673 1.334 . S
C2674 C2675 1.287 . S
C2675 C2674 1.287 . S
C2675 C2676 1.524 . S
C2675 H2678 0.999 . S
C2676 H2646 0.950 . S
C2676 C2675 1.524 . S
C2676 C2677 1.415 . S
C2677 H2647 0.950 . S
C2677 C2672 1.363 . S
C2677 C2676 1.415 . S
H2678 C2675 0.999 . S
H2679 C2660 0.913 . S
H2680 C2698 0.951 . S
H2681 C2700 0.951 . S
H2682 C2702 0.950 . S
H2683 C2703 0.950 . S
H2684 C2705 0.950 . S
H2685 C2708 0.950 . S
H2686 C2709 0.950 . S
H2687 C2711 0.950 . S
H2688 C2712 0.950 . S
H2689 C2713 0.951 . S
H2690 C2715 0.951 . S
H2691 C2717 0.950 . S
H2692 C2718 0.950 . S
H2693 C2720 0.950 . S
H2694 C2723 0.950 . S
H2695 C2724 0.950 . S
H2696 C2726 0.950 . S
H2697 C2727 0.950 . S
C2698 H2680 0.951 . S
C2698 C2699 1.366 . S
C2698 C2700 1.388 . S
C2699 C2698 1.366 . S
C2699 C2703 1.385 . S
C2700 H2681 0.951 . S
C2700 C2698 1.388 . S
C2700 C2701 1.366 . S
C2701 C2700 1.366 . S
C2701 C2702 1.414 . S
C2701 C2704 1.499 . S
C2702 H2682 0.950 . S
C2702 C2701 1.414 . S
C2702 C2703 1.374 . S
C2703 H2683 0.950 . S
C2703 C2699 1.385 . S
C2703 C2702 1.374 . S
C2704 C2701 1.499 . S
C2704 C2705 1.373 . S
C2704 C2706 1.389 . S
C2705 H2684 0.950 . S
C2705 C2704 1.373 . S
C2705 C2721 1.377 . S
C2706 C2704 1.389 . S
C2706 C2707 1.524 . S
C2706 C2720 1.377 . S
C2707 C2706 1.524 . S
C2707 C2708 1.397 . S
C2707 C2712 1.363 . S
C2708 H2685 0.950 . S
C2708 C2707 1.397 . S
C2708 C2709 1.334 . S
C2709 H2686 0.950 . S
C2709 C2708 1.334 . S
C2709 C2710 1.287 . S
C2710 C2709 1.287 . S
C2710 C2711 1.524 . S
C2710 H2729 0.913 . S
C2711 H2687 0.950 . S
C2711 C2710 1.524 . S
C2711 C2712 1.415 . S
C2712 H2688 0.950 . S
C2712 C2707 1.363 . S
C2712 C2711 1.415 . S
C2713 H2689 0.951 . S
C2713 C2714 1.366 . S
C2713 C2715 1.388 . S
C2714 C2713 1.366 . S
C2714 C2718 1.385 . S
C2715 H2690 0.951 . S
C2715 C2713 1.388 . S
C2715 C2716 1.366 . S
C2716 C2715 1.366 . S
C2716 C2717 1.414 . S
C2716 C2719 1.499 . S
C2717 H2691 0.950 . S
C2717 C2716 1.414 . S
C2717 C2718 1.374 . S
C2718 H2692 0.950 . S
C2718 C2714 1.385 . S
C2718 C2717 1.374 . S
C2719 C2716 1.499 . S
C2719 C2720 1.373 . S
C2719 C2721 1.389 . S
C2720 H2693 0.950 . S
C2720 C2706 1.377 . S
C2720 C2719 1.373 . S
C2721 C2705 1.377 . S
C2721 C2719 1.389 . S
C2721 C2722 1.524 . S
C2722 C2721 1.524 . S
C2722 C2723 1.397 . S
C2722 C2727 1.363 . S
C2723 H2694 0.950 . S
C2723 C2722 1.397 . S
C2723 C2724 1.334 . S
C2724 H2695 0.950 . S
C2724 C2723 1.334 . S
C2724 C2725 1.287 . S
C2725 C2724 1.287 . S
C2725 C2726 1.524 . S
C2725 H2728 0.999 . S
C2726 H2696 0.950 . S
C2726 C2725 1.524 . S
C2726 C2727 1.415 . S
C2727 H2697 0.950 . S
C2727 C2722 1.363 . S
C2727 C2726 1.415 . S
H2728 C2725 0.999 . S
H2729 C2710 0.913 . S
H2730 C2748 0.951 . S
H2731 C2750 0.951 . S
H2732 C2752 0.950 . S
H2733 C2753 0.950 . S
H2734 C2755 0.950 . S
H2735 C2758 0.950 . S
H2736 C2759 0.950 . S
H2737 C2761 0.950 . S
H2738 C2762 0.950 . S
H2739 C2763 0.951 . S
H2740 C2765 0.951 . S
H2741 C2767 0.950 . S
H2742 C2768 0.950 . S
H2743 C2770 0.950 . S
H2744 C2773 0.950 . S
H2745 C2774 0.950 . S
H2746 C2776 0.950 . S
H2747 C2777 0.950 . S
C2748 H2730 0.951 . S
C2748 C2749 1.366 . S
C2748 C2750 1.388 . S
C2749 C2748 1.366 . S
C2749 C2753 1.385 . S
C2750 H2731 0.951 . S
C2750 C2748 1.388 . S
C2750 C2751 1.366 . S
C2751 C2750 1.366 . S
C2751 C2752 1.414 . S
C2751 C2754 1.499 . S
C2752 H2732 0.950 . S
C2752 C2751 1.414 . S
C2752 C2753 1.374 . S
C2753 H2733 0.950 . S
C2753 C2749 1.385 . S
C2753 C2752 1.374 . S
C2754 C2751 1.499 . S
C2754 C2755 1.373 . S
C2754 C2756 1.389 . S
C2755 H2734 0.950 . S
C2755 C2754 1.373 . S
C2755 C2771 1.377 . S
C2756 C2754 1.389 . S
C2756 C2757 1.524 . S
C2756 C2770 1.377 . S
C2757 C2756 1.524 . S
C2757 C2758 1.397 . S
C2757 C2762 1.363 . S
C2758 H2735 0.950 . S
C2758 C2757 1.397 . S
C2758 C2759 1.334 . S
C2759 H2736 0.950 . S
C2759 C2758 1.334 . S
C2759 C2760 1.287 . S
C2760 C2759 1.287 . S
C2760 C2761 1.524 . S
C2760 H2779 0.913 . S
C2761 H2737 0.950 . S
C2761 C2760 1.524 . S
C2761 C2762 1.415 . S
C2762 H2738 0.950 . S
C2762 C2757 1.363 . S
C2762 C2761 1.415 . S
C2763 H2739 0.951 . S
C2763 C2764 1.366 . S
C2763 C2765 1.388 . S
C2764 C2763 1.366 . S
C2764 C2768 1.385 . S
C2765 H2740 0.951 . S
C2765 C2763 1.388 . S
C2765 C2766 1.366 . S
C2766 C2765 1.366 . S
C2766 C2767 1.414 . S
C2766 C2769 1.499 . S
C2767 H2741 0.950 . S
C2767 C2766 1.414 . S
C2767 C2768 1.374 . S
C2768 H2742 0.950 . S
C2768 C2764 1.385 . S
C2768 C2767 1.374 . S
C2769 C2766 1.499 . S
C2769 C2770 1.373 . S
C2769 C2771 1.389 . S
C2770 H2743 0.950 . S
C2770 C2756 1.377 . S
C2770 C2769 1.373 . S
C2771 C2755 1.377 . S
C2771 C2769 1.389 . S
C2771 C2772 1.524 . S
C2772 C2771 1.524 . S
C2772 C2773 1.397 . S
C2772 C2777 1.363 . S
C2773 H2744 0.950 . S
C2773 C2772 1.397 . S
C2773 C2774 1.334 . S
C2774 H2745 0.950 . S
C2774 C2773 1.334 . S
C2774 C2775 1.287 . S
C2775 C2774 1.287 . S
C2775 C2776 1.524 . S
C2775 H2778 0.999 . S
C2776 H2746 0.950 . S
C2776 C2775 1.524 . S
C2776 C2777 1.415 . S
C2777 H2747 0.950 . S
C2777 C2772 1.363 . S
C2777 C2776 1.415 . S
H2778 C2775 0.999 . S
H2779 C2760 0.913 . S
H2780 C2798 0.951 . S
H2781 C2800 0.951 . S
H2782 C2802 0.950 . S
H2783 C2803 0.950 . S
H2784 C2805 0.950 . S
H2785 C2808 0.950 . S
H2786 C2809 0.950 . S
H2787 C2811 0.950 . S
H2788 C2812 0.950 . S
H2789 C2813 0.951 . S
H2790 C2815 0.951 . S
H2791 C2817 0.950 . S
H2792 C2818 0.950 . S
H2793 C2820 0.950 . S
H2794 C2823 0.950 . S
H2795 C2824 0.950 . S
H2796 C2826 0.950 . S
H2797 C2827 0.950 . S
C2798 H2780 0.951 . S
C2798 C2799 1.366 . S
C2798 C2800 1.388 . S
C2799 C2798 1.366 . S
C2799 C2803 1.385 . S
C2800 H2781 0.951 . S
C2800 C2798 1.388 . S
C2800 C2801 1.366 . S
C2801 C2800 1.366 . S
C2801 C2802 1.414 . S
C2801 C2804 1.499 . S
C2802 H2782 0.950 . S
C2802 C2801 1.414 . S
C2802 C2803 1.374 . S
C2803 H2783 0.950 . S
C2803 C2799 1.385 . S
C2803 C2802 1.374 . S
C2804 C2801 1.499 . S
C2804 C2805 1.373 . S
C2804 C2806 1.389 . S
C2805 H2784 0.950 . S
C2805 C2804 1.373 . S
C2805 C2821 1.377 . S
C2806 C2804 1.389 . S
C2806 C2807 1.524 . S
C2806 C2820 1.377 . S
C2807 C2806 1.524 . S
C2807 C2808 1.397 . S
C2807 C2812 1.363 . S
C2808 H2785 0.950 . S
C2808 C2807 1.397 . S
C2808 C2809 1.334 . S
C2809 H2786 0.950 . S
C2809 C2808 1.334 . S
C2809 C2810 1.287 . S
C2810 C2809 1.287 . S
C2810 C2811 1.524 . S
C2810 H2829 0.913 . S
C2811 H2787 0.950 . S
C2811 C2810 1.524 . S
C2811 C2812 1.415 . S
C2812 H2788 0.950 . S
C2812 C2807 1.363 . S
C2812 C2811 1.415 . S
C2813 H2789 0.951 . S
C2813 C2814 1.366 . S
C2813 C2815 1.388 . S
C2814 C2813 1.366 . S
C2814 C2818 1.385 . S
C2815 H2790 0.951 . S
C2815 C2813 1.388 . S
C2815 C2816 1.366 . S
C2816 C2815 1.366 . S
C2816 C2817 1.414 . S
C2816 C2819 1.499 . S
C2817 H2791 0.950 . S
C2817 C2816 1.414 . S
C2817 C2818 1.374 . S
C2818 H2792 0.950 . S
C2818 C2814 1.385 . S
C2818 C2817 1.374 . S
C2819 C2816 1.499 . S
C2819 C2820 1.373 . S
C2819 C2821 1.389 . S
C2820 H2793 0.950 . S
C2820 C2806 1.377 . S
C2820 C2819 1.373 . S
C2821 C2805 1.377 . S
C2821 C2819 1.389 . S
C2821 C2822 1.524 . S
C2822 C2821 1.524 . S
C2822 C2823 1.397 . S
C2822 C2827 1.363 . S
C2823 H2794 0.950 . S
C2823 C2822 1.397 . S
C2823 C2824 1.334 . S
C2824 H2795 0.950 . S
C2824 C2823 1.334 . S
C2824 C2825 1.287 . S
C2825 C2824 1.287 . S
C2825 C2826 1.524 . S
C2825 H2828 0.999 . S
C2826 H2796 0.950 . S
C2826 C2825 1.524 . S
C2826 C2827 1.415 . S
C2827 H2797 0.950 . S
C2827 C2822 1.363 . S
C2827 C2826 1.415 . S
H2828 C2825 0.999 . S
H2829 C2810 0.913 . S
H2830 C2848 0.951 . S
H2831 C2850 0.951 . S
H2832 C2852 0.950 . S
H2833 C2853 0.950 . S
H2834 C2855 0.950 . S
H2835 C2858 0.950 . S
H2836 C2859 0.950 . S
H2837 C2861 0.950 . S
H2838 C2862 0.950 . S
H2839 C2863 0.951 . S
H2840 C2865 0.951 . S
H2841 C2867 0.950 . S
H2842 C2868 0.950 . S
H2843 C2870 0.950 . S
H2844 C2873 0.950 . S
H2845 C2874 0.950 . S
H2846 C2876 0.950 . S
H2847 C2877 0.950 . S
C2848 H2830 0.951 . S
C2848 C2849 1.366 . S
C2848 C2850 1.388 . S
C2849 C2848 1.366 . S
C2849 C2853 1.385 . S
C2850 H2831 0.951 . S
C2850 C2848 1.388 . S
C2850 C2851 1.366 . S
C2851 C2850 1.366 . S
C2851 C2852 1.414 . S
C2851 C2854 1.499 . S
C2852 H2832 0.950 . S
C2852 C2851 1.414 . S
C2852 C2853 1.374 . S
C2853 H2833 0.950 . S
C2853 C2849 1.385 . S
C2853 C2852 1.374 . S
C2854 C2851 1.499 . S
C2854 C2855 1.373 . S
C2854 C2856 1.389 . S
C2855 H2834 0.950 . S
C2855 C2854 1.373 . S
C2855 C2871 1.377 . S
C2856 C2854 1.389 . S
C2856 C2857 1.524 . S
C2856 C2870 1.377 . S
C2857 C2856 1.524 . S
C2857 C2858 1.397 . S
C2857 C2862 1.363 . S
C2858 H2835 0.950 . S
C2858 C2857 1.397 . S
C2858 C2859 1.334 . S
C2859 H2836 0.950 . S
C2859 C2858 1.334 . S
C2859 C2860 1.287 . S
C2860 C2859 1.287 . S
C2860 C2861 1.524 . S
C2860 H2879 0.913 . S
C2861 H2837 0.950 . S
C2861 C2860 1.524 . S
C2861 C2862 1.415 . S
C2862 H2838 0.950 . S
C2862 C2857 1.363 . S
C2862 C2861 1.415 . S
C2863 H2839 0.951 . S
C2863 C2864 1.366 . S
C2863 C2865 1.388 . S
C2864 C2863 1.366 . S
C2864 C2868 1.385 . S
C2865 H2840 0.951 . S
C2865 C2863 1.388 . S
C2865 C2866 1.366 . S
C2866 C2865 1.366 . S
C2866 C2867 1.414 . S
C2866 C2869 1.499 . S
C2867 H2841 0.950 . S
C2867 C2866 1.414 . S
C2867 C2868 1.374 . S
C2868 H2842 0.950 . S
C2868 C2864 1.385 . S
C2868 C2867 1.374 . S
C2869 C2866 1.499 . S
C2869 C2870 1.373 . S
C2869 C2871 1.389 . S
C2870 H2843 0.950 . S
C2870 C2856 1.377 . S
C2870 C2869 1.373 . S
C2871 C2855 1.377 . S
C2871 C2869 1.389 . S
C2871 C2872 1.524 . S
C2872 C2871 1.524 . S
C2872 C2873 1.397 . S
C2872 C2877 1.363 . S
C2873 H2844 0.950 . S
C2873 C2872 1.397 . S
C2873 C2874 1.334 . S
C2874 H2845 0.950 . S
C2874 C2873 1.334 . S
C2874 C2875 1.287 . S
C2875 C2874 1.287 . S
C2875 C2876 1.524 . S
C2875 H2878 0.999 . S
C2876 H2846 0.950 . S
C2876 C2875 1.524 . S
C2876 C2877 1.415 . S
C2877 H2847 0.950 . S
C2877 C2872 1.363 . S
C2877 C2876 1.415 . S
H2878 C2875 0.999 . S
H2879 C2860 0.913 . S
H2880 C2898 0.951 . S
H2881 C2900 0.951 . S
H2882 C2902 0.950 . S
H2883 C2903 0.950 . S
H2884 C2905 0.950 . S
H2885 C2908 0.950 . S
H2886 C2909 0.950 . S
H2887 C2911 0.950 . S
H2888 C2912 0.950 . S
H2889 C2913 0.951 . S
H2890 C2915 0.951 . S
H2891 C2917 0.950 . S
H2892 C2918 0.950 . S
H2893 C2920 0.950 . S
H2894 C2923 0.950 . S
H2895 C2924 0.950 . S
H2896 C2926 0.950 . S
H2897 C2927 0.950 . S
C2898 H2880 0.951 . S
C2898 C2899 1.366 . S
C2898 C2900 1.388 . S
C2899 C2898 1.366 . S
C2899 C2903 1.385 . S
C2900 H2881 0.951 . S
C2900 C2898 1.388 . S
C2900 C2901 1.366 . S
C2901 C2900 1.366 . S
C2901 C2902 1.414 . S
C2901 C2904 1.499 . S
C2902 H2882 0.950 . S
C2902 C2901 1.414 . S
C2902 C2903 1.374 . S
C2903 H2883 0.950 . S
C2903 C2899 1.385 . S
C2903 C2902 1.374 . S
C2904 C2901 1.499 . S
C2904 C2905 1.373 . S
C2904 C2906 1.389 . S
C2905 H2884 0.950 . S
C2905 C2904 1.373 . S
C2905 C2921 1.377 . S
C2906 C2904 1.389 . S
C2906 C2907 1.524 . S
C2906 C2920 1.377 . S
C2907 C2906 1.524 . S
C2907 C2908 1.397 . S
C2907 C2912 1.363 . S
C2908 H2885 0.950 . S
C2908 C2907 1.397 . S
C2908 C2909 1.334 . S
C2909 H2886 0.950 . S
C2909 C2908 1.334 . S
C2909 C2910 1.287 . S
C2910 C2909 1.287 . S
C2910 C2911 1.524 . S
C2910 H2929 0.913 . S
C2911 H2887 0.950 . S
C2911 C2910 1.524 . S
C2911 C2912 1.415 . S
C2912 H2888 0.950 . S
C2912 C2907 1.363 . S
C2912 C2911 1.415 . S
C2913 H2889 0.951 . S
C2913 C2914 1.366 . S
C2913 C2915 1.388 . S
C2914 C2913 1.366 . S
C2914 C2918 1.385 . S
C2915 H2890 0.951 . S
C2915 C2913 1.388 . S
C2915 C2916 1.366 . S
C2916 C2915 1.366 . S
C2916 C2917 1.414 . S
C2916 C2919 1.499 . S
C2917 H2891 0.950 . S
C2917 C2916 1.414 . S
C2917 C2918 1.374 . S
C2918 H2892 0.950 . S
C2918 C2914 1.385 . S
C2918 C2917 1.374 . S
C2919 C2916 1.499 . S
C2919 C2920 1.373 . S
C2919 C2921 1.389 . S
C2920 H2893 0.950 . S
C2920 C2906 1.377 . S
C2920 C2919 1.373 . S
C2921 C2905 1.377 . S
C2921 C2919 1.389 . S
C2921 C2922 1.524 . S
C2922 C2921 1.524 . S
C2922 C2923 1.397 . S
C2922 C2927 1.363 1_455 S
C2923 H2894 0.950 . S
C2923 C2922 1.397 . S
C2923 C2924 1.334 1_455 S
C2924 H2895 0.950 . S
C2924 C2923 1.334 1_655 S
C2924 C2925 1.287 . S
C2925 C2924 1.287 . S
C2925 C2926 1.524 . S
C2925 H2928 0.999 . S
C2926 H2896 0.950 . S
C2926 C2925 1.524 . S
C2926 C2927 1.415 . S
C2927 H2897 0.950 . S
C2927 C2922 1.363 1_655 S
C2927 C2926 1.415 . S
H2928 C2925 0.999 . S
H2929 C2910 0.913 . S
H2930 C2948 0.951 . S
H2931 C2950 0.951 . S
H2932 C2952 0.950 . S
H2933 C2953 0.950 . S
H2934 C2955 0.950 . S
H2935 C2958 0.950 . S
H2936 C2959 0.950 . S
H2937 C2961 0.950 . S
H2938 C2962 0.950 . S
H2939 C2963 0.951 . S
H2940 C2965 0.951 . S
H2941 C2967 0.950 . S
H2942 C2968 0.950 . S
H2943 C2970 0.950 . S
H2944 C2973 0.950 . S
H2945 C2974 0.950 . S
H2946 C2976 0.950 . S
H2947 C2977 0.950 . S
C2948 H2930 0.951 . S
C2948 C2949 1.366 . S
C2948 C2950 1.388 . S
C2949 C2948 1.366 . S
C2949 C2953 1.385 . S
C2950 H2931 0.951 . S
C2950 C2948 1.388 . S
C2950 C2951 1.366 . S
C2951 C2950 1.366 . S
C2951 C2952 1.414 . S
C2951 C2954 1.499 . S
C2952 H2932 0.950 . S
C2952 C2951 1.414 . S
C2952 C2953 1.374 . S
C2953 H2933 0.950 . S
C2953 C2949 1.385 . S
C2953 C2952 1.374 . S
C2954 C2951 1.499 . S
C2954 C2955 1.373 . S
C2954 C2956 1.389 . S
C2955 H2934 0.950 . S
C2955 C2954 1.373 . S
C2955 C2971 1.377 . S
C2956 C2954 1.389 . S
C2956 C2957 1.524 . S
C2956 C2970 1.377 . S
C2957 C2956 1.524 . S
C2957 C2958 1.397 . S
C2957 C2962 1.363 . S
C2958 H2935 0.950 . S
C2958 C2957 1.397 . S
C2958 C2959 1.334 . S
C2959 H2936 0.950 . S
C2959 C2958 1.334 . S
C2959 C2960 1.287 . S
C2960 C2959 1.287 . S
C2960 C2961 1.524 . S
C2960 H2979 0.913 . S
C2961 H2937 0.950 . S
C2961 C2960 1.524 . S
C2961 C2962 1.415 . S
C2962 H2938 0.950 . S
C2962 C2957 1.363 . S
C2962 C2961 1.415 . S
C2963 H2939 0.951 . S
C2963 C2964 1.366 . S
C2963 C2965 1.388 . S
C2964 C2963 1.366 . S
C2964 C2968 1.385 . S
C2965 H2940 0.951 . S
C2965 C2963 1.388 . S
C2965 C2966 1.366 . S
C2966 C2965 1.366 . S
C2966 C2967 1.414 . S
C2966 C2969 1.499 . S
C2967 H2941 0.950 . S
C2967 C2966 1.414 . S
C2967 C2968 1.374 . S
C2968 H2942 0.950 . S
C2968 C2964 1.385 . S
C2968 C2967 1.374 . S
C2969 C2966 1.499 . S
C2969 C2970 1.373 . S
C2969 C2971 1.389 . S
C2970 H2943 0.950 . S
C2970 C2956 1.377 . S
C2970 C2969 1.373 . S
C2971 C2955 1.377 . S
C2971 C2969 1.389 . S
C2971 C2972 1.524 . S
C2972 C2971 1.524 . S
C2972 C2973 1.397 . S
C2972 C2977 1.363 . S
C2973 H2944 0.950 . S
C2973 C2972 1.397 . S
C2973 C2974 1.334 . S
C2974 H2945 0.950 . S
C2974 C2973 1.334 . S
C2974 C2975 1.287 . S
C2975 C2974 1.287 . S
C2975 C2976 1.524 . S
C2975 H2978 0.999 . S
C2976 H2946 0.950 . S
C2976 C2975 1.524 . S
C2976 C2977 1.415 . S
C2977 H2947 0.950 . S
C2977 C2972 1.363 . S
C2977 C2976 1.415 . S
H2978 C2975 0.999 . S
H2979 C2960 0.913 . S
H2980 C2998 0.951 . S
H2981 C3000 0.951 . S
H2982 C3002 0.950 . S
H2983 C3003 0.950 . S
H2984 C3005 0.950 . S
H2985 C3008 0.950 . S
H2986 C3009 0.950 . S
H2987 C3011 0.950 . S
H2988 C3012 0.950 . S
H2989 C3013 0.951 . S
H2990 C3015 0.951 . S
H2991 C3017 0.950 . S
H2992 C3018 0.950 . S
H2993 C3020 0.950 . S
H2994 C3023 0.950 . S
H2995 C3024 0.950 . S
H2996 C3026 0.950 . S
H2997 C3027 0.950 . S
C2998 H2980 0.951 . S
C2998 C2999 1.366 . S
C2998 C3000 1.388 . S
C2999 C2998 1.366 . S
C2999 C3003 1.385 . S
C3000 H2981 0.951 . S
C3000 C2998 1.388 . S
C3000 C3001 1.366 . S
C3001 C3000 1.366 . S
C3001 C3002 1.414 . S
C3001 C3004 1.499 . S
C3002 H2982 0.950 . S
C3002 C3001 1.414 . S
C3002 C3003 1.374 . S
C3003 H2983 0.950 . S
C3003 C2999 1.385 . S
C3003 C3002 1.374 . S
C3004 C3001 1.499 . S
C3004 C3005 1.373 . S
C3004 C3006 1.389 . S
C3005 H2984 0.950 . S
C3005 C3004 1.373 . S
C3005 C3021 1.377 . S
C3006 C3004 1.389 . S
C3006 C3007 1.524 . S
C3006 C3020 1.377 . S
C3007 C3006 1.524 . S
C3007 C3008 1.397 . S
C3007 C3012 1.363 . S
C3008 H2985 0.950 . S
C3008 C3007 1.397 . S
C3008 C3009 1.334 . S
C3009 H2986 0.950 . S
C3009 C3008 1.334 . S
C3009 C3010 1.287 . S
C3010 C3009 1.287 . S
C3010 C3011 1.524 . S
C3010 H3029 0.913 . S
C3011 H2987 0.950 . S
C3011 C3010 1.524 . S
C3011 C3012 1.415 . S
C3012 H2988 0.950 . S
C3012 C3007 1.363 . S
C3012 C3011 1.415 . S
C3013 H2989 0.951 . S
C3013 C3014 1.366 . S
C3013 C3015 1.388 . S
C3014 C3013 1.366 . S
C3014 C3018 1.385 . S
C3015 H2990 0.951 . S
C3015 C3013 1.388 . S
C3015 C3016 1.366 . S
C3016 C3015 1.366 . S
C3016 C3017 1.414 . S
C3016 C3019 1.499 . S
C3017 H2991 0.950 . S
C3017 C3016 1.414 . S
C3017 C3018 1.374 . S
C3018 H2992 0.950 . S
C3018 C3014 1.385 . S
C3018 C3017 1.374 . S
C3019 C3016 1.499 . S
C3019 C3020 1.373 . S
C3019 C3021 1.389 . S
C3020 H2993 0.950 . S
C3020 C3006 1.377 . S
C3020 C3019 1.373 . S
C3021 C3005 1.377 . S
C3021 C3019 1.389 . S
C3021 C3022 1.524 . S
C3022 C3021 1.524 . S
C3022 C3023 1.397 . S
C3022 C3027 1.363 . S
C3023 H2994 0.950 . S
C3023 C3022 1.397 . S
C3023 C3024 1.334 . S
C3024 H2995 0.950 . S
C3024 C3023 1.334 . S
C3024 C3025 1.287 . S
C3025 C3024 1.287 . S
C3025 C3026 1.524 . S
C3025 H3028 0.999 . S
C3026 H2996 0.950 . S
C3026 C3025 1.524 . S
C3026 C3027 1.415 . S
C3027 H2997 0.950 . S
C3027 C3022 1.363 . S
C3027 C3026 1.415 . S
H3028 C3025 0.999 . S
H3029 C3010 0.913 . S
H3030 C3048 0.951 . S
H3031 C3050 0.951 . S
H3032 C3052 0.950 . S
H3033 C3053 0.950 . S
H3034 C3055 0.950 . S
H3035 C3058 0.950 . S
H3036 C3059 0.950 . S
H3037 C3061 0.950 . S
H3038 C3062 0.950 . S
H3039 C3063 0.951 . S
H3040 C3065 0.951 . S
H3041 C3067 0.950 . S
H3042 C3068 0.950 . S
H3043 C3070 0.950 . S
H3044 C3073 0.950 . S
H3045 C3074 0.950 . S
H3046 C3076 0.950 . S
H3047 C3077 0.950 . S
C3048 H3030 0.951 . S
C3048 C3049 1.366 . S
C3048 C3050 1.388 . S
C3049 C3048 1.366 . S
C3049 C3053 1.385 . S
C3050 H3031 0.951 . S
C3050 C3048 1.388 . S
C3050 C3051 1.366 . S
C3051 C3050 1.366 . S
C3051 C3052 1.414 . S
C3051 C3054 1.499 . S
C3052 H3032 0.950 . S
C3052 C3051 1.414 . S
C3052 C3053 1.374 . S
C3053 H3033 0.950 . S
C3053 C3049 1.385 . S
C3053 C3052 1.374 . S
C3054 C3051 1.499 . S
C3054 C3055 1.373 . S
C3054 C3056 1.389 . S
C3055 H3034 0.950 . S
C3055 C3054 1.373 . S
C3055 C3071 1.377 . S
C3056 C3054 1.389 . S
C3056 C3057 1.524 . S
C3056 C3070 1.377 . S
C3057 C3056 1.524 . S
C3057 C3058 1.397 . S
C3057 C3062 1.363 . S
C3058 H3035 0.950 . S
C3058 C3057 1.397 . S
C3058 C3059 1.334 . S
C3059 H3036 0.950 . S
C3059 C3058 1.334 . S
C3059 C3060 1.287 . S
C3060 C3059 1.287 . S
C3060 C3061 1.524 . S
C3060 H3079 0.913 . S
C3061 H3037 0.950 . S
C3061 C3060 1.524 . S
C3061 C3062 1.415 . S
C3062 H3038 0.950 . S
C3062 C3057 1.363 . S
C3062 C3061 1.415 . S
C3063 H3039 0.951 . S
C3063 C3064 1.366 . S
C3063 C3065 1.388 . S
C3064 C3063 1.366 . S
C3064 C3068 1.385 . S
C3065 H3040 0.951 . S
C3065 C3063 1.388 . S
C3065 C3066 1.366 . S
C3066 C3065 1.366 . S
C3066 C3067 1.414 . S
C3066 C3069 1.499 . S
C3067 H3041 0.950 . S
C3067 C3066 1.414 . S
C3067 C3068 1.374 . S
C3068 H3042 0.950 . S
C3068 C3064 1.385 . S
C3068 C3067 1.374 . S
C3069 C3066 1.499 . S
C3069 C3070 1.373 . S
C3069 C3071 1.389 . S
C3070 H3043 0.950 . S
C3070 C3056 1.377 . S
C3070 C3069 1.373 . S
C3071 C3055 1.377 . S
C3071 C3069 1.389 . S
C3071 C3072 1.524 . S
C3072 C3071 1.524 . S
C3072 C3073 1.397 . S
C3072 C3077 1.363 . S
C3073 H3044 0.950 . S
C3073 C3072 1.397 . S
C3073 C3074 1.334 . S
C3074 H3045 0.950 . S
C3074 C3073 1.334 . S
C3074 C3075 1.287 . S
C3075 C3074 1.287 . S
C3075 C3076 1.524 . S
C3075 H3078 0.999 . S
C3076 H3046 0.950 . S
C3076 C3075 1.524 . S
C3076 C3077 1.415 . S
C3077 H3047 0.950 . S
C3077 C3072 1.363 . S
C3077 C3076 1.415 . S
H3078 C3075 0.999 . S
H3079 C3060 0.913 . S
H3080 C3098 0.951 . S
H3081 C3100 0.951 . S
H3082 C3102 0.950 . S
H3083 C3103 0.950 . S
H3084 C3105 0.950 . S
H3085 C3108 0.950 . S
H3086 C3109 0.950 . S
H3087 C3111 0.950 . S
H3088 C3112 0.950 . S
H3089 C3113 0.951 . S
H3090 C3115 0.951 . S
H3091 C3117 0.950 . S
H3092 C3118 0.950 . S
H3093 C3120 0.950 . S
H3094 C3123 0.950 . S
H3095 C3124 0.950 . S
H3096 C3126 0.950 . S
H3097 C3127 0.950 . S
C3098 H3080 0.951 . S
C3098 C3099 1.366 . S
C3098 C3100 1.388 . S
C3099 C3098 1.366 . S
C3099 C3103 1.385 . S
C3100 H3081 0.951 . S
C3100 C3098 1.388 . S
C3100 C3101 1.366 . S
C3101 C3100 1.366 . S
C3101 C3102 1.414 . S
C3101 C3104 1.499 . S
C3102 H3082 0.950 . S
C3102 C3101 1.414 . S
C3102 C3103 1.374 . S
C3103 H3083 0.950 . S
C3103 C3099 1.385 . S
C3103 C3102 1.374 . S
C3104 C3101 1.499 . S
C3104 C3105 1.373 . S
C3104 C3106 1.389 . S
C3105 H3084 0.950 . S
C3105 C3104 1.373 . S
C3105 C3121 1.377 . S
C3106 C3104 1.389 . S
C3106 C3107 1.524 . S
C3106 C3120 1.377 . S
C3107 C3106 1.524 . S
C3107 C3108 1.397 . S
C3107 C3112 1.363 1_455 S
C3108 H3085 0.950 . S
C3108 C3107 1.397 . S
C3108 C3109 1.334 . S
C3109 H3086 0.950 . S
C3109 C3108 1.334 . S
C3109 C3110 1.287 1_455 S
C3110 C3109 1.287 1_655 S
C3110 C3111 1.524 . S
C3110 H3129 0.913 . S
C3111 H3087 0.950 . S
C3111 C3110 1.524 . S
C3111 C3112 1.415 . S
C3112 H3088 0.950 . S
C3112 C3107 1.363 1_655 S
C3112 C3111 1.415 . S
C3113 H3089 0.951 . S
C3113 C3114 1.366 . S
C3113 C3115 1.388 . S
C3114 C3113 1.366 . S
C3114 C3118 1.385 . S
C3115 H3090 0.951 . S
C3115 C3113 1.388 . S
C3115 C3116 1.366 . S
C3116 C3115 1.366 . S
C3116 C3117 1.414 . S
C3116 C3119 1.499 . S
C3117 H3091 0.950 . S
C3117 C3116 1.414 . S
C3117 C3118 1.374 . S
C3118 H3092 0.950 . S
C3118 C3114 1.385 . S
C3118 C3117 1.374 . S
C3119 C3116 1.499 . S
C3119 C3120 1.373 . S
C3119 C3121 1.389 . S
C3120 H3093 0.950 . S
C3120 C3106 1.377 . S
C3120 C3119 1.373 . S
C3121 C3105 1.377 . S
C3121 C3119 1.389 . S
C3121 C3122 1.524 . S
C3122 C3121 1.524 . S
C3122 C3123 1.397 . S
C3122 C3127 1.363 . S
C3123 H3094 0.950 . S
C3123 C3122 1.397 . S
C3123 C3124 1.334 . S
C3124 H3095 0.950 . S
C3124 C3123 1.334 . S
C3124 C3125 1.287 . S
C3125 C3124 1.287 . S
C3125 C3126 1.524 . S
C3125 H3128 0.999 . S
C3126 H3096 0.950 . S
C3126 C3125 1.524 . S
C3126 C3127 1.415 . S
C3127 H3097 0.950 . S
C3127 C3122 1.363 . S
C3127 C3126 1.415 . S
H3128 C3125 0.999 . S
H3129 C3110 0.913 . S
H3130 C3148 0.951 . S
H3131 C3150 0.951 . S
H3132 C3152 0.950 . S
H3133 C3153 0.950 . S
H3134 C3155 0.950 . S
H3135 C3158 0.950 . S
H3136 C3159 0.950 . S
H3137 C3161 0.950 . S
H3138 C3162 0.950 . S
H3139 C3163 0.951 . S
H3140 C3165 0.951 . S
H3141 C3167 0.950 . S
H3142 C3168 0.950 . S
H3143 C3170 0.950 . S
H3144 C3173 0.950 . S
H3145 C3174 0.950 . S
H3146 C3176 0.950 . S
H3147 C3177 0.950 . S
C3148 H3130 0.951 . S
C3148 C3149 1.366 . S
C3148 C3150 1.388 . S
C3149 C3148 1.366 . S
C3149 C3153 1.385 . S
C3150 H3131 0.951 . S
C3150 C3148 1.388 . S
C3150 C3151 1.366 . S
C3151 C3150 1.366 . S
C3151 C3152 1.414 . S
C3151 C3154 1.499 . S
C3152 H3132 0.950 . S
C3152 C3151 1.414 . S
C3152 C3153 1.374 . S
C3153 H3133 0.950 . S
C3153 C3149 1.385 . S
C3153 C3152 1.374 . S
C3154 C3151 1.499 . S
C3154 C3155 1.373 . S
C3154 C3156 1.389 . S
C3155 H3134 0.950 . S
C3155 C3154 1.373 . S
C3155 C3171 1.377 . S
C3156 C3154 1.389 . S
C3156 C3157 1.524 . S
C3156 C3170 1.377 . S
C3157 C3156 1.524 . S
C3157 C3158 1.397 . S
C3157 C3162 1.363 . S
C3158 H3135 0.950 . S
C3158 C3157 1.397 . S
C3158 C3159 1.334 . S
C3159 H3136 0.950 . S
C3159 C3158 1.334 . S
C3159 C3160 1.287 . S
C3160 C3159 1.287 . S
C3160 C3161 1.524 . S
C3160 H3179 0.913 . S
C3161 H3137 0.950 . S
C3161 C3160 1.524 . S
C3161 C3162 1.415 . S
C3162 H3138 0.950 . S
C3162 C3157 1.363 . S
C3162 C3161 1.415 . S
C3163 H3139 0.951 . S
C3163 C3164 1.366 . S
C3163 C3165 1.388 . S
C3164 C3163 1.366 . S
C3164 C3168 1.385 . S
C3165 H3140 0.951 . S
C3165 C3163 1.388 . S
C3165 C3166 1.366 . S
C3166 C3165 1.366 . S
C3166 C3167 1.414 . S
C3166 C3169 1.499 . S
C3167 H3141 0.950 . S
C3167 C3166 1.414 . S
C3167 C3168 1.374 . S
C3168 H3142 0.950 . S
C3168 C3164 1.385 . S
C3168 C3167 1.374 . S
C3169 C3166 1.499 . S
C3169 C3170 1.373 . S
C3169 C3171 1.389 . S
C3170 H3143 0.950 . S
C3170 C3156 1.377 . S
C3170 C3169 1.373 . S
C3171 C3155 1.377 . S
C3171 C3169 1.389 . S
C3171 C3172 1.524 . S
C3172 C3171 1.524 . S
C3172 C3173 1.397 . S
C3172 C3177 1.363 . S
C3173 H3144 0.950 . S
C3173 C3172 1.397 . S
C3173 C3174 1.334 . S
C3174 H3145 0.950 . S
C3174 C3173 1.334 . S
C3174 C3175 1.287 . S
C3175 C3174 1.287 . S
C3175 C3176 1.524 . S
C3175 H3178 0.999 . S
C3176 H3146 0.950 . S
C3176 C3175 1.524 . S
C3176 C3177 1.415 . S
C3177 H3147 0.950 . S
C3177 C3172 1.363 . S
C3177 C3176 1.415 . S
H3178 C3175 0.999 . S
H3179 C3160 0.913 . S
H3180 C3198 0.951 . S
H3181 C3200 0.951 . S
H3182 C3202 0.950 . S
H3183 C3203 0.950 . S
H3184 C3205 0.950 . S
H3185 C3208 0.950 . S
H3186 C3209 0.950 . S
H3187 C3211 0.950 . S
H3188 C3212 0.950 . S
H3189 C3213 0.951 . S
H3190 C3215 0.951 1_554 S
H3191 C3217 0.950 . S
H3192 C3218 0.950 . S
H3193 C3220 0.950 . S
H3194 C3223 0.950 . S
H3195 C3224 0.950 . S
H3196 C3226 0.950 . S
H3197 C3227 0.950 . S
C3198 H3180 0.951 . S
C3198 C3199 1.366 . S
C3198 C3200 1.388 . S
C3199 C3198 1.366 . S
C3199 C3203 1.385 . S
C3200 H3181 0.951 . S
C3200 C3198 1.388 . S
C3200 C3201 1.366 . S
C3201 C3200 1.366 . S
C3201 C3202 1.414 . S
C3201 C3204 1.499 . S
C3202 H3182 0.950 . S
C3202 C3201 1.414 . S
C3202 C3203 1.374 . S
C3203 H3183 0.950 . S
C3203 C3199 1.385 . S
C3203 C3202 1.374 . S
C3204 C3201 1.499 . S
C3204 C3205 1.373 . S
C3204 C3206 1.389 . S
C3205 H3184 0.950 . S
C3205 C3204 1.373 . S
C3205 C3221 1.377 . S
C3206 C3204 1.389 . S
C3206 C3207 1.524 . S
C3206 C3220 1.377 . S
C3207 C3206 1.524 . S
C3207 C3208 1.397 . S
C3207 C3212 1.363 . S
C3208 H3185 0.950 . S
C3208 C3207 1.397 . S
C3208 C3209 1.334 . S
C3209 H3186 0.950 . S
C3209 C3208 1.334 . S
C3209 C3210 1.287 . S
C3210 C3209 1.287 . S
C3210 C3211 1.524 . S
C3210 H3229 0.913 . S
C3211 H3187 0.950 . S
C3211 C3210 1.524 . S
C3211 C3212 1.415 . S
C3212 H3188 0.950 . S
C3212 C3207 1.363 . S
C3212 C3211 1.415 . S
C3213 H3189 0.951 . S
C3213 C3214 1.366 . S
C3213 C3215 1.388 1_554 S
C3214 C3213 1.366 . S
C3214 C3218 1.385 1_554 S
C3215 H3190 0.951 1_556 S
C3215 C3213 1.388 1_556 S
C3215 C3216 1.366 . S
C3216 C3215 1.366 . S
C3216 C3217 1.414 . S
C3216 C3219 1.499 . S
C3217 H3191 0.950 . S
C3217 C3216 1.414 . S
C3217 C3218 1.374 . S
C3218 H3192 0.950 . S
C3218 C3214 1.385 1_556 S
C3218 C3217 1.374 . S
C3219 C3216 1.499 . S
C3219 C3220 1.373 . S
C3219 C3221 1.389 . S
C3220 H3193 0.950 . S
C3220 C3206 1.377 . S
C3220 C3219 1.373 . S
C3221 C3205 1.377 . S
C3221 C3219 1.389 . S
C3221 C3222 1.524 . S
C3222 C3221 1.524 . S
C3222 C3223 1.397 . S
C3222 C3227 1.363 . S
C3223 H3194 0.950 . S
C3223 C3222 1.397 . S
C3223 C3224 1.334 . S
C3224 H3195 0.950 . S
C3224 C3223 1.334 . S
C3224 C3225 1.284 . S
C3225 C3224 1.284 . S
C3225 C3226 1.524 1_556 S
C3225 H3228 1.002 1_556 S
C3226 H3196 0.950 . S
C3226 C3225 1.524 1_554 S
C3226 C3227 1.415 1_554 S
C3227 H3197 0.950 . S
C3227 C3222 1.363 . S
C3227 C3226 1.415 1_556 S
H3228 C3225 1.002 1_554 S
H3229 C3210 0.913 . S
H3230 C3248 0.951 . S
H3231 C3250 0.951 . S
H3232 C3252 0.950 . S
H3233 C3253 0.950 . S
H3234 C3255 0.950 . S
H3235 C3258 0.950 . S
H3236 C3259 0.950 . S
H3237 C3261 0.950 . S
H3238 C3262 0.950 . S
H3239 C3263 0.951 . S
H3240 C3265 0.951 . S
H3241 C3267 0.950 . S
H3242 C3268 0.950 . S
H3243 C3270 0.950 . S
H3244 C3273 0.950 . S
H3245 C3274 0.950 . S
H3246 C3276 0.950 . S
H3247 C3277 0.950 . S
C3248 H3230 0.951 . S
C3248 C3249 1.366 . S
C3248 C3250 1.388 . S
C3249 C3248 1.366 . S
C3249 C3253 1.385 . S
C3250 H3231 0.951 . S
C3250 C3248 1.388 . S
C3250 C3251 1.366 . S
C3251 C3250 1.366 . S
C3251 C3252 1.414 . S
C3251 C3254 1.499 . S
C3252 H3232 0.950 . S
C3252 C3251 1.414 . S
C3252 C3253 1.374 . S
C3253 H3233 0.950 . S
C3253 C3249 1.385 . S
C3253 C3252 1.374 . S
C3254 C3251 1.499 . S
C3254 C3255 1.373 . S
C3254 C3256 1.389 . S
C3255 H3234 0.950 . S
C3255 C3254 1.373 . S
C3255 C3271 1.377 . S
C3256 C3254 1.389 . S
C3256 C3257 1.524 . S
C3256 C3270 1.377 . S
C3257 C3256 1.524 . S
C3257 C3258 1.397 . S
C3257 C3262 1.363 . S
C3258 H3235 0.950 . S
C3258 C3257 1.397 . S
C3258 C3259 1.334 . S
C3259 H3236 0.950 . S
C3259 C3258 1.334 . S
C3259 C3260 1.287 . S
C3260 C3259 1.287 . S
C3260 C3261 1.524 . S
C3260 H3279 0.913 . S
C3261 H3237 0.950 . S
C3261 C3260 1.524 . S
C3261 C3262 1.415 . S
C3262 H3238 0.950 . S
C3262 C3257 1.363 . S
C3262 C3261 1.415 . S
C3263 H3239 0.951 . S
C3263 C3264 1.366 . S
C3263 C3265 1.388 . S
C3264 C3263 1.366 . S
C3264 C3268 1.385 . S
C3265 H3240 0.951 . S
C3265 C3263 1.388 . S
C3265 C3266 1.366 . S
C3266 C3265 1.366 . S
C3266 C3267 1.414 . S
C3266 C3269 1.499 . S
C3267 H3241 0.950 . S
C3267 C3266 1.414 . S
C3267 C3268 1.374 . S
C3268 H3242 0.950 . S
C3268 C3264 1.385 . S
C3268 C3267 1.374 . S
C3269 C3266 1.499 . S
C3269 C3270 1.373 . S
C3269 C3271 1.389 . S
C3270 H3243 0.950 . S
C3270 C3256 1.377 . S
C3270 C3269 1.373 . S
C3271 C3255 1.377 . S
C3271 C3269 1.389 . S
C3271 C3272 1.524 . S
C3272 C3271 1.524 . S
C3272 C3273 1.397 . S
C3272 C3277 1.363 . S
C3273 H3244 0.950 . S
C3273 C3272 1.397 . S
C3273 C3274 1.334 . S
C3274 H3245 0.950 . S
C3274 C3273 1.334 . S
C3274 C3275 1.287 . S
C3275 C3274 1.287 . S
C3275 C3276 1.524 . S
C3275 H3278 0.999 . S
C3276 H3246 0.950 . S
C3276 C3275 1.524 . S
C3276 C3277 1.415 . S
C3277 H3247 0.950 . S
C3277 C3272 1.363 . S
C3277 C3276 1.415 . S
H3278 C3275 0.999 . S
H3279 C3260 0.913 . S
H3280 C3298 0.951 . S
H3281 C3300 0.951 . S
H3282 C3302 0.950 . S
H3283 C3303 0.950 . S
H3284 C3305 0.950 . S
H3285 C3308 0.950 . S
H3286 C3309 0.950 . S
H3287 C3311 0.950 . S
H3288 C3312 0.950 . S
H3289 C3313 0.961 . S
H3290 C3315 0.951 . S
H3291 C3317 0.950 . S
H3292 C3318 0.950 . S
H3293 C3320 0.950 . S
H3294 C3323 0.950 . S
H3295 C3324 0.950 . S
H3296 C3326 0.973 1_565 S
H3297 C3327 0.950 1_565 S
C3298 H3280 0.951 . S
C3298 C3299 1.366 . S
C3298 C3300 1.388 . S
C3299 C3298 1.366 . S
C3299 C3303 1.385 . S
C3300 H3281 0.951 . S
C3300 C3298 1.388 . S
C3300 C3301 1.366 . S
C3301 C3300 1.366 . S
C3301 C3302 1.414 . S
C3301 C3304 1.499 . S
C3302 H3282 0.950 . S
C3302 C3301 1.414 . S
C3302 C3303 1.374 . S
C3303 H3283 0.950 . S
C3303 C3299 1.385 . S
C3303 C3302 1.374 . S
C3304 C3301 1.499 . S
C3304 C3305 1.373 . S
C3304 C3306 1.389 . S
C3305 H3284 0.950 . S
C3305 C3304 1.373 . S
C3305 C3321 1.377 . S
C3306 C3304 1.389 . S
C3306 C3307 1.524 . S
C3306 C3320 1.377 . S
C3307 C3306 1.524 . S
C3307 C3308 1.397 . S
C3307 C3312 1.363 . S
C3308 H3285 0.950 . S
C3308 C3307 1.397 . S
C3308 C3309 1.334 . S
C3309 H3286 0.950 . S
C3309 C3308 1.334 . S
C3309 C3310 1.287 . S
C3310 C3309 1.287 . S
C3310 C3311 1.524 . S
C3310 H3329 0.913 . S
C3311 H3287 0.950 . S
C3311 C3310 1.524 . S
C3311 C3312 1.415 . S
C3312 H3288 0.950 . S
C3312 C3307 1.363 . S
C3312 C3311 1.415 . S
C3313 H3289 0.961 . S
C3313 C3314 1.366 . S
C3313 C3315 1.388 . S
C3314 C3313 1.366 . S
C3314 C3318 1.385 . S
C3315 H3290 0.951 . S
C3315 C3313 1.388 . S
C3315 C3316 1.366 . S
C3316 C3315 1.366 . S
C3316 C3317 1.414 . S
C3316 C3319 1.499 . S
C3317 H3291 0.950 . S
C3317 C3316 1.414 . S
C3317 C3318 1.374 . S
C3318 H3292 0.950 . S
C3318 C3314 1.385 . S
C3318 C3317 1.374 . S
C3319 C3316 1.499 . S
C3319 C3320 1.373 . S
C3319 C3321 1.389 . S
C3320 H3293 0.950 . S
C3320 C3306 1.377 . S
C3320 C3319 1.373 . S
C3321 C3305 1.377 . S
C3321 C3319 1.389 . S
C3321 C3322 1.524 . S
C3322 C3321 1.524 . S
C3322 C3323 1.397 . S
C3322 C3327 1.363 . S
C3323 H3294 0.950 . S
C3323 C3322 1.397 . S
C3323 C3324 1.334 . S
C3324 H3295 0.950 . S
C3324 C3323 1.334 . S
C3324 C3325 1.287 . S
C3325 C3324 1.287 . S
C3325 C3326 1.524 . S
C3325 H3328 0.999 1_455 S
C3326 H3296 0.973 1_545 S
C3326 C3325 1.524 . S
C3326 C3327 1.415 . S
C3327 H3297 0.950 1_545 S
C3327 C3322 1.363 . S
C3327 C3326 1.415 . S
H3328 C3325 0.999 1_655 S
H3329 C3310 0.913 . S
H3330 C3348 0.951 . S
H3331 C3350 0.951 . S
H3332 C3352 0.950 . S
H3333 C3353 0.950 . S
H3334 C3355 0.950 . S
H3335 C3358 0.950 . S
H3336 C3359 0.950 . S
H3337 C3361 0.950 . S
H3338 C3362 0.950 . S
H3339 C3363 0.951 . S
H3340 C3365 0.951 . S
H3341 C3367 0.950 . S
H3342 C3368 0.950 . S
H3343 C3370 0.950 . S
H3344 C3373 0.950 . S
H3345 C3374 0.950 . S
H3346 C3376 0.950 . S
H3347 C3377 0.950 . S
C3348 H3330 0.951 . S
C3348 C3349 1.366 . S
C3348 C3350 1.388 . S
C3349 C3348 1.366 . S
C3349 C3353 1.385 . S
C3350 H3331 0.951 . S
C3350 C3348 1.388 . S
C3350 C3351 1.366 . S
C3351 C3350 1.366 . S
C3351 C3352 1.414 . S
C3351 C3354 1.499 . S
C3352 H3332 0.950 . S
C3352 C3351 1.414 . S
C3352 C3353 1.374 . S
C3353 H3333 0.950 . S
C3353 C3349 1.385 . S
C3353 C3352 1.374 . S
C3354 C3351 1.499 . S
C3354 C3355 1.373 . S
C3354 C3356 1.389 . S
C3355 H3334 0.950 . S
C3355 C3354 1.373 . S
C3355 C3371 1.377 . S
C3356 C3354 1.389 . S
C3356 C3357 1.524 . S
C3356 C3370 1.377 . S
C3357 C3356 1.524 . S
C3357 C3358 1.397 . S
C3357 C3362 1.363 . S
C3358 H3335 0.950 . S
C3358 C3357 1.397 . S
C3358 C3359 1.334 . S
C3359 H3336 0.950 . S
C3359 C3358 1.334 . S
C3359 C3360 1.287 . S
C3360 C3359 1.287 . S
C3360 C3361 1.524 . S
C3360 H3379 0.913 . S
C3361 H3337 0.950 . S
C3361 C3360 1.524 . S
C3361 C3362 1.415 . S
C3362 H3338 0.950 . S
C3362 C3357 1.363 . S
C3362 C3361 1.415 . S
C3363 H3339 0.951 . S
C3363 C3364 1.366 . S
C3363 C3365 1.388 . S
C3364 C3363 1.366 . S
C3364 C3368 1.385 . S
C3365 H3340 0.951 . S
C3365 C3363 1.388 . S
C3365 C3366 1.366 . S
C3366 C3365 1.366 . S
C3366 C3367 1.414 . S
C3366 C3369 1.499 . S
C3367 H3341 0.950 . S
C3367 C3366 1.414 . S
C3367 C3368 1.374 . S
C3368 H3342 0.950 . S
C3368 C3364 1.385 . S
C3368 C3367 1.374 . S
C3369 C3366 1.499 . S
C3369 C3370 1.373 . S
C3369 C3371 1.389 . S
C3370 H3343 0.950 . S
C3370 C3356 1.377 . S
C3370 C3369 1.373 . S
C3371 C3355 1.377 . S
C3371 C3369 1.389 . S
C3371 C3372 1.524 . S
C3372 C3371 1.524 . S
C3372 C3373 1.397 . S
C3372 C3377 1.363 . S
C3373 H3344 0.950 . S
C3373 C3372 1.397 . S
C3373 C3374 1.334 . S
C3374 H3345 0.950 . S
C3374 C3373 1.334 . S
C3374 C3375 1.287 . S
C3375 C3374 1.287 . S
C3375 C3376 1.524 . S
C3375 H3378 0.999 . S
C3376 H3346 0.950 . S
C3376 C3375 1.524 . S
C3376 C3377 1.415 . S
C3377 H3347 0.950 . S
C3377 C3372 1.363 . S
C3377 C3376 1.415 . S
H3378 C3375 0.999 . S
H3379 C3360 0.913 . S
H3380 C3398 0.951 . S
H3381 C3400 0.951 . S
H3382 C3402 0.950 . S
H3383 C3403 0.950 . S
H3384 C3405 0.950 1_565 S
H3385 C3408 0.950 . S
H3386 C3409 0.950 . S
H3387 C3411 0.950 . S
H3388 C3412 0.950 . S
H3389 C3413 0.951 . S
H3390 C3415 0.951 . S
H3391 C3417 0.950 . S
H3392 C3418 0.950 . S
H3393 C3420 0.950 . S
H3394 C3423 0.950 . S
H3395 C3424 0.950 . S
H3396 C3426 0.950 . S
H3397 C3427 0.950 . S
C3398 H3380 0.951 . S
C3398 C3399 1.366 . S
C3398 C3400 1.388 . S
C3399 C3398 1.366 . S
C3399 C3403 1.385 . S
C3400 H3381 0.951 . S
C3400 C3398 1.388 . S
C3400 C3401 1.366 . S
C3401 C3400 1.366 . S
C3401 C3402 1.414 . S
C3401 C3404 1.499 . S
C3402 H3382 0.950 . S
C3402 C3401 1.414 . S
C3402 C3403 1.374 . S
C3403 H3383 0.950 . S
C3403 C3399 1.385 . S
C3403 C3402 1.374 . S
C3404 C3401 1.499 . S
C3404 C3405 1.373 . S
C3404 C3406 1.389 . S
C3405 H3384 0.950 1_545 S
C3405 C3404 1.373 . S
C3405 C3421 1.377 . S
C3406 C3404 1.389 . S
C3406 C3407 1.524 . S
C3406 C3420 1.377 . S
C3407 C3406 1.524 . S
C3407 C3408 1.397 . S
C3407 C3412 1.363 . S
C3408 H3385 0.950 . S
C3408 C3407 1.397 . S
C3408 C3409 1.334 . S
C3409 H3386 0.950 . S
C3409 C3408 1.334 . S
C3409 C3410 1.287 . S
C3410 C3409 1.287 . S
C3410 C3411 1.524 . S
C3410 H3429 0.913 . S
C3411 H3387 0.950 . S
C3411 C3410 1.524 . S
C3411 C3412 1.415 . S
C3412 H3388 0.950 . S
C3412 C3407 1.363 . S
C3412 C3411 1.415 . S
C3413 H3389 0.951 . S
C3413 C3414 1.366 . S
C3413 C3415 1.388 . S
C3414 C3413 1.366 . S
C3414 C3418 1.385 . S
C3415 H3390 0.951 . S
C3415 C3413 1.388 . S
C3415 C3416 1.366 . S
C3416 C3415 1.366 . S
C3416 C3417 1.414 . S
C3416 C3419 1.499 . S
C3417 H3391 0.950 . S
C3417 C3416 1.414 . S
C3417 C3418 1.374 . S
C3418 H3392 0.950 . S
C3418 C3414 1.385 . S
C3418 C3417 1.374 . S
C3419 C3416 1.499 . S
C3419 C3420 1.373 . S
C3419 C3421 1.389 . S
C3420 H3393 0.950 . S
C3420 C3406 1.377 . S
C3420 C3419 1.373 . S
C3421 C3405 1.377 . S
C3421 C3419 1.389 . S
C3421 C3422 1.524 1_545 S
C3422 C3421 1.524 1_565 S
C3422 C3423 1.397 . S
C3422 C3427 1.363 . S
C3423 H3394 0.950 . S
C3423 C3422 1.397 . S
C3423 C3424 1.334 . S
C3424 H3395 0.950 . S
C3424 C3423 1.334 . S
C3424 C3425 1.287 . S
C3425 C3424 1.287 . S
C3425 C3426 1.524 . S
C3425 H3428 0.999 . S
C3426 H3396 0.950 . S
C3426 C3425 1.524 . S
C3426 C3427 1.415 . S
C3427 H3397 0.950 . S
C3427 C3422 1.363 . S
C3427 C3426 1.415 . S
H3428 C3425 0.999 . S
H3429 C3410 0.913 . S
H3430 C3448 0.951 . S
H3431 C3450 0.951 . S
H3432 C3452 0.950 . S
H3433 C3453 0.950 . S
H3434 C3455 0.950 . S
H3435 C3458 0.950 . S
H3436 C3459 0.950 . S
H3437 C3461 0.950 . S
H3438 C3462 0.950 . S
H3439 C3463 0.951 . S
H3440 C3465 0.951 . S
H3441 C3467 0.950 . S
H3442 C3468 0.950 . S
H3443 C3470 0.950 . S
H3444 C3473 0.950 . S
H3445 C3474 0.950 . S
H3446 C3476 0.950 . S
H3447 C3477 0.950 . S
C3448 H3430 0.951 . S
C3448 C3449 1.366 . S
C3448 C3450 1.388 . S
C3449 C3448 1.366 . S
C3449 C3453 1.385 . S
C3450 H3431 0.951 . S
C3450 C3448 1.388 . S
C3450 C3451 1.366 . S
C3451 C3450 1.366 . S
C3451 C3452 1.414 . S
C3451 C3454 1.499 . S
C3452 H3432 0.950 . S
C3452 C3451 1.414 . S
C3452 C3453 1.374 . S
C3453 H3433 0.950 . S
C3453 C3449 1.385 . S
C3453 C3452 1.374 . S
C3454 C3451 1.499 . S
C3454 C3455 1.373 . S
C3454 C3456 1.389 . S
C3455 H3434 0.950 . S
C3455 C3454 1.373 . S
C3455 C3471 1.377 . S
C3456 C3454 1.389 . S
C3456 C3457 1.524 . S
C3456 C3470 1.377 . S
C3457 C3456 1.524 . S
C3457 C3458 1.397 . S
C3457 C3462 1.363 . S
C3458 H3435 0.950 . S
C3458 C3457 1.397 . S
C3458 C3459 1.334 . S
C3459 H3436 0.950 . S
C3459 C3458 1.334 . S
C3459 C3460 1.287 . S
C3460 C3459 1.287 . S
C3460 C3461 1.524 . S
C3460 H3479 0.913 . S
C3461 H3437 0.950 . S
C3461 C3460 1.524 . S
C3461 C3462 1.415 . S
C3462 H3438 0.950 . S
C3462 C3457 1.363 . S
C3462 C3461 1.415 . S
C3463 H3439 0.951 . S
C3463 C3464 1.366 . S
C3463 C3465 1.388 . S
C3464 C3463 1.366 . S
C3464 C3468 1.385 . S
C3465 H3440 0.951 . S
C3465 C3463 1.388 . S
C3465 C3466 1.366 . S
C3466 C3465 1.366 . S
C3466 C3467 1.414 . S
C3466 C3469 1.499 . S
C3467 H3441 0.950 . S
C3467 C3466 1.414 . S
C3467 C3468 1.374 . S
C3468 H3442 0.950 . S
C3468 C3464 1.385 . S
C3468 C3467 1.374 . S
C3469 C3466 1.499 . S
C3469 C3470 1.373 . S
C3469 C3471 1.389 . S
C3470 H3443 0.950 . S
C3470 C3456 1.377 . S
C3470 C3469 1.373 . S
C3471 C3455 1.377 . S
C3471 C3469 1.389 . S
C3471 C3472 1.524 . S
C3472 C3471 1.524 . S
C3472 C3473 1.397 . S
C3472 C3477 1.363 . S
C3473 H3444 0.950 . S
C3473 C3472 1.397 . S
C3473 C3474 1.334 . S
C3474 H3445 0.950 . S
C3474 C3473 1.334 . S
C3474 C3475 1.287 . S
C3475 C3474 1.287 . S
C3475 C3476 1.524 . S
C3475 H3478 0.999 . S
C3476 H3446 0.950 . S
C3476 C3475 1.524 . S
C3476 C3477 1.415 . S
C3477 H3447 0.950 . S
C3477 C3472 1.363 . S
C3477 C3476 1.415 . S
H3478 C3475 0.999 . S
H3479 C3460 0.913 . S
H3480 C3498 0.951 . S
H3481 C3500 0.951 . S
H3482 C3502 0.950 . S
H3483 C3503 0.950 . S
H3484 C3505 0.950 . S
H3485 C3508 0.942 1_545 S
H3486 C3509 0.950 . S
H3487 C3511 0.950 . S
H3488 C3512 0.950 . S
H3489 C3513 0.951 . S
H3490 C3515 0.951 . S
H3491 C3517 0.950 . S
H3492 C3518 0.950 . S
H3493 C3520 0.949 . S
H3494 C3523 0.950 . S
H3495 C3524 0.950 . S
H3496 C3526 0.950 . S
H3497 C3527 0.950 . S
C3498 H3480 0.951 . S
C3498 C3499 1.366 . S
C3498 C3500 1.388 . S
C3499 C3498 1.366 . S
C3499 C3503 1.385 . S
C3500 H3481 0.951 . S
C3500 C3498 1.388 . S
C3500 C3501 1.366 . S
C3501 C3500 1.366 . S
C3501 C3502 1.414 . S
C3501 C3504 1.499 . S
C3502 H3482 0.950 . S
C3502 C3501 1.414 . S
C3502 C3503 1.374 . S
C3503 H3483 0.950 . S
C3503 C3499 1.385 . S
C3503 C3502 1.374 . S
C3504 C3501 1.499 . S
C3504 C3505 1.373 . S
C3504 C3506 1.389 . S
C3505 H3484 0.950 . S
C3505 C3504 1.373 . S
C3505 C3521 1.377 . S
C3506 C3504 1.389 . S
C3506 C3507 1.524 1_545 S
C3506 C3520 1.377 . S
C3507 C3506 1.524 1_565 S
C3507 C3508 1.397 . S
C3507 C3512 1.363 . S
C3508 H3485 0.942 1_565 S
C3508 C3507 1.397 . S
C3508 C3509 1.334 . S
C3509 H3486 0.950 . S
C3509 C3508 1.334 . S
C3509 C3510 1.287 . S
C3510 C3509 1.287 . S
C3510 C3511 1.524 . S
C3510 H3529 0.913 . S
C3511 H3487 0.950 . S
C3511 C3510 1.524 . S
C3511 C3512 1.415 . S
C3512 H3488 0.950 . S
C3512 C3507 1.363 . S
C3512 C3511 1.415 . S
C3513 H3489 0.951 . S
C3513 C3514 1.366 . S
C3513 C3515 1.388 . S
C3514 C3513 1.366 . S
C3514 C3518 1.385 . S
C3515 H3490 0.951 . S
C3515 C3513 1.388 . S
C3515 C3516 1.366 . S
C3516 C3515 1.366 . S
C3516 C3517 1.414 . S
C3516 C3519 1.499 . S
C3517 H3491 0.950 . S
C3517 C3516 1.414 . S
C3517 C3518 1.374 . S
C3518 H3492 0.950 . S
C3518 C3514 1.385 . S
C3518 C3517 1.374 . S
C3519 C3516 1.499 . S
C3519 C3520 1.373 . S
C3519 C3521 1.389 . S
C3520 H3493 0.949 . S
C3520 C3506 1.377 . S
C3520 C3519 1.373 . S
C3521 C3505 1.377 . S
C3521 C3519 1.389 . S
C3521 C3522 1.524 . S
C3522 C3521 1.524 . S
C3522 C3523 1.397 . S
C3522 C3527 1.363 . S
C3523 H3494 0.950 . S
C3523 C3522 1.397 . S
C3523 C3524 1.334 . S
C3524 H3495 0.950 . S
C3524 C3523 1.334 . S
C3524 C3525 1.287 . S
C3525 C3524 1.287 . S
C3525 C3526 1.524 . S
C3525 H3528 0.999 . S
C3526 H3496 0.950 . S
C3526 C3525 1.524 . S
C3526 C3527 1.415 . S
C3527 H3497 0.950 . S
C3527 C3522 1.363 . S
C3527 C3526 1.415 . S
H3528 C3525 0.999 . S
H3529 C3510 0.913 . S
H3530 C3548 0.951 . S
H3531 C3550 0.951 . S
H3532 C3552 0.950 . S
H3533 C3553 0.950 . S
H3534 C3555 0.950 . S
H3535 C3558 0.950 . S
H3536 C3559 0.950 . S
H3537 C3561 0.950 . S
H3538 C3562 0.950 . S
H3539 C3563 0.951 . S
H3540 C3565 0.951 . S
H3541 C3567 0.950 . S
H3542 C3568 0.950 . S
H3543 C3570 0.950 . S
H3544 C3573 0.950 . S
H3545 C3574 0.950 . S
H3546 C3576 0.950 . S
H3547 C3577 0.950 . S
C3548 H3530 0.951 . S
C3548 C3549 1.366 . S
C3548 C3550 1.388 . S
C3549 C3548 1.366 . S
C3549 C3553 1.385 . S
C3550 H3531 0.951 . S
C3550 C3548 1.388 . S
C3550 C3551 1.366 . S
C3551 C3550 1.366 . S
C3551 C3552 1.414 . S
C3551 C3554 1.499 . S
C3552 H3532 0.950 . S
C3552 C3551 1.414 . S
C3552 C3553 1.374 . S
C3553 H3533 0.950 . S
C3553 C3549 1.385 . S
C3553 C3552 1.374 . S
C3554 C3551 1.499 . S
C3554 C3555 1.373 . S
C3554 C3556 1.389 . S
C3555 H3534 0.950 . S
C3555 C3554 1.373 . S
C3555 C3571 1.377 . S
C3556 C3554 1.389 . S
C3556 C3557 1.524 . S
C3556 C3570 1.377 . S
C3557 C3556 1.524 . S
C3557 C3558 1.397 . S
C3557 C3562 1.363 . S
C3558 H3535 0.950 . S
C3558 C3557 1.397 . S
C3558 C3559 1.334 . S
C3559 H3536 0.950 . S
C3559 C3558 1.334 . S
C3559 C3560 1.287 . S
C3560 C3559 1.287 . S
C3560 C3561 1.524 . S
C3560 H3579 0.913 . S
C3561 H3537 0.950 . S
C3561 C3560 1.524 . S
C3561 C3562 1.415 . S
C3562 H3538 0.950 . S
C3562 C3557 1.363 . S
C3562 C3561 1.415 . S
C3563 H3539 0.951 . S
C3563 C3564 1.366 . S
C3563 C3565 1.388 . S
C3564 C3563 1.366 . S
C3564 C3568 1.385 . S
C3565 H3540 0.951 . S
C3565 C3563 1.388 . S
C3565 C3566 1.366 . S
C3566 C3565 1.366 . S
C3566 C3567 1.414 . S
C3566 C3569 1.499 . S
C3567 H3541 0.950 . S
C3567 C3566 1.414 . S
C3567 C3568 1.374 . S
C3568 H3542 0.950 . S
C3568 C3564 1.385 . S
C3568 C3567 1.374 . S
C3569 C3566 1.499 . S
C3569 C3570 1.373 . S
C3569 C3571 1.389 . S
C3570 H3543 0.950 . S
C3570 C3556 1.377 . S
C3570 C3569 1.373 . S
C3571 C3555 1.377 . S
C3571 C3569 1.389 . S
C3571 C3572 1.524 . S
C3572 C3571 1.524 . S
C3572 C3573 1.397 . S
C3572 C3577 1.363 . S
C3573 H3544 0.950 . S
C3573 C3572 1.397 . S
C3573 C3574 1.334 . S
C3574 H3545 0.950 . S
C3574 C3573 1.334 . S
C3574 C3575 1.287 . S
C3575 C3574 1.287 . S
C3575 C3576 1.524 . S
C3575 H3578 0.999 . S
C3576 H3546 0.950 . S
C3576 C3575 1.524 . S
C3576 C3577 1.415 . S
C3577 H3547 0.950 . S
C3577 C3572 1.363 . S
C3577 C3576 1.415 . S
H3578 C3575 0.999 . S
H3579 C3560 0.913 . S
H3580 C3598 0.951 . S
H3581 C3600 0.951 . S
H3582 C3602 0.950 . S
H3583 C3603 0.950 . S
H3584 C3605 0.950 . S
H3585 C3608 0.950 . S
H3586 C3609 0.950 . S
H3587 C3611 0.950 . S
H3588 C3612 0.950 . S
H3589 C3613 0.951 . S
H3590 C3615 0.951 . S
H3591 C3617 0.950 . S
H3592 C3618 0.950 . S
H3593 C3620 0.950 . S
H3594 C3623 0.950 . S
H3595 C3624 0.950 . S
H3596 C3626 0.950 . S
H3597 C3627 0.950 . S
C3598 H3580 0.951 . S
C3598 C3599 1.366 . S
C3598 C3600 1.388 . S
C3599 C3598 1.366 . S
C3599 C3603 1.385 . S
C3600 H3581 0.951 . S
C3600 C3598 1.388 . S
C3600 C3601 1.366 . S
C3601 C3600 1.366 . S
C3601 C3602 1.414 . S
C3601 C3604 1.499 . S
C3602 H3582 0.950 . S
C3602 C3601 1.414 . S
C3602 C3603 1.374 . S
C3603 H3583 0.950 . S
C3603 C3599 1.385 . S
C3603 C3602 1.374 . S
C3604 C3601 1.499 . S
C3604 C3605 1.373 1_545 S
C3604 C3606 1.389 . S
C3605 H3584 0.950 . S
C3605 C3604 1.373 1_565 S
C3605 C3621 1.377 . S
C3606 C3604 1.389 . S
C3606 C3607 1.524 . S
C3606 C3620 1.377 . S
C3607 C3606 1.524 . S
C3607 C3608 1.397 . S
C3607 C3612 1.363 . S
C3608 H3585 0.950 . S
C3608 C3607 1.397 . S
C3608 C3609 1.334 . S
C3609 H3586 0.950 . S
C3609 C3608 1.334 . S
C3609 C3610 1.287 . S
C3610 C3609 1.287 . S
C3610 C3611 1.524 . S
C3610 H3629 0.913 . S
C3611 H3587 0.950 . S
C3611 C3610 1.524 . S
C3611 C3612 1.415 . S
C3612 H3588 0.950 . S
C3612 C3607 1.363 . S
C3612 C3611 1.415 . S
C3613 H3589 0.951 . S
C3613 C3614 1.366 . S
C3613 C3615 1.388 . S
C3614 C3613 1.366 . S
C3614 C3618 1.385 . S
C3615 H3590 0.951 . S
C3615 C3613 1.388 . S
C3615 C3616 1.366 . S
C3616 C3615 1.366 . S
C3616 C3617 1.414 . S
C3616 C3619 1.499 . S
C3617 H3591 0.950 . S
C3617 C3616 1.414 . S
C3617 C3618 1.374 . S
C3618 H3592 0.950 . S
C3618 C3614 1.385 . S
C3618 C3617 1.374 . S
C3619 C3616 1.499 . S
C3619 C3620 1.373 . S
C3619 C3621 1.389 1_545 S
C3620 H3593 0.950 . S
C3620 C3606 1.377 . S
C3620 C3619 1.373 . S
C3621 C3605 1.377 . S
C3621 C3619 1.389 1_565 S
C3621 C3622 1.524 . S
C3622 C3621 1.524 . S
C3622 C3623 1.397 . S
C3622 C3627 1.363 . S
C3623 H3594 0.950 . S
C3623 C3622 1.397 . S
C3623 C3624 1.334 . S
C3624 H3595 0.950 . S
C3624 C3623 1.334 . S
C3624 C3625 1.287 . S
C3625 C3624 1.287 . S
C3625 C3626 1.524 . S
C3625 H3628 0.999 . S
C3626 H3596 0.950 . S
C3626 C3625 1.524 . S
C3626 C3627 1.415 . S
C3627 H3597 0.950 . S
C3627 C3622 1.363 . S
C3627 C3626 1.415 . S
H3628 C3625 0.999 . S
H3629 C3610 0.913 . S
H3630 C3648 0.951 . S
H3631 C3650 0.951 . S
H3632 C3652 0.950 . S
H3633 C3653 0.950 . S
H3634 C3655 0.950 . S
H3635 C3658 0.950 . S
H3636 C3659 0.950 . S
H3637 C3661 0.950 . S
H3638 C3662 0.950 . S
H3639 C3663 0.951 . S
H3640 C3665 0.951 . S
H3641 C3667 0.950 . S
H3642 C3668 0.950 . S
H3643 C3670 0.950 . S
H3644 C3673 0.950 . S
H3645 C3674 0.950 . S
H3646 C3676 0.950 . S
H3647 C3677 0.950 . S
C3648 H3630 0.951 . S
C3648 C3649 1.366 . S
C3648 C3650 1.388 . S
C3649 C3648 1.366 . S
C3649 C3653 1.385 . S
C3650 H3631 0.951 . S
C3650 C3648 1.388 . S
C3650 C3651 1.366 . S
C3651 C3650 1.366 . S
C3651 C3652 1.414 . S
C3651 C3654 1.499 . S
C3652 H3632 0.950 . S
C3652 C3651 1.414 . S
C3652 C3653 1.374 . S
C3653 H3633 0.950 . S
C3653 C3649 1.385 . S
C3653 C3652 1.374 . S
C3654 C3651 1.499 . S
C3654 C3655 1.373 . S
C3654 C3656 1.389 . S
C3655 H3634 0.950 . S
C3655 C3654 1.373 . S
C3655 C3671 1.377 . S
C3656 C3654 1.389 . S
C3656 C3657 1.524 . S
C3656 C3670 1.377 . S
C3657 C3656 1.524 . S
C3657 C3658 1.397 . S
C3657 C3662 1.363 . S
C3658 H3635 0.950 . S
C3658 C3657 1.397 . S
C3658 C3659 1.334 . S
C3659 H3636 0.950 . S
C3659 C3658 1.334 . S
C3659 C3660 1.287 . S
C3660 C3659 1.287 . S
C3660 C3661 1.524 . S
C3660 H3679 0.913 . S
C3661 H3637 0.950 . S
C3661 C3660 1.524 . S
C3661 C3662 1.415 . S
C3662 H3638 0.950 . S
C3662 C3657 1.363 . S
C3662 C3661 1.415 . S
C3663 H3639 0.951 . S
C3663 C3664 1.366 . S
C3663 C3665 1.388 . S
C3664 C3663 1.366 . S
C3664 C3668 1.385 . S
C3665 H3640 0.951 . S
C3665 C3663 1.388 . S
C3665 C3666 1.366 . S
C3666 C3665 1.366 . S
C3666 C3667 1.414 . S
C3666 C3669 1.499 . S
C3667 H3641 0.950 . S
C3667 C3666 1.414 . S
C3667 C3668 1.374 . S
C3668 H3642 0.950 . S
C3668 C3664 1.385 . S
C3668 C3667 1.374 . S
C3669 C3666 1.499 . S
C3669 C3670 1.373 . S
C3669 C3671 1.389 . S
C3670 H3643 0.950 . S
C3670 C3656 1.377 . S
C3670 C3669 1.373 . S
C3671 C3655 1.377 . S
C3671 C3669 1.389 . S
C3671 C3672 1.524 . S
C3672 C3671 1.524 . S
C3672 C3673 1.397 . S
C3672 C3677 1.363 . S
C3673 H3644 0.950 . S
C3673 C3672 1.397 . S
C3673 C3674 1.334 . S
C3674 H3645 0.950 . S
C3674 C3673 1.334 . S
C3674 C3675 1.287 . S
C3675 C3674 1.287 . S
C3675 C3676 1.524 . S
C3675 H3678 0.999 . S
C3676 H3646 0.950 . S
C3676 C3675 1.524 . S
C3676 C3677 1.415 . S
C3677 H3647 0.950 . S
C3677 C3672 1.363 . S
C3677 C3676 1.415 . S
H3678 C3675 0.999 . S
H3679 C3660 0.913 . S
H3680 C3698 0.951 . S
H3681 C3700 0.951 . S
H3682 C3702 0.950 . S
H3683 C3703 0.950 . S
H3684 C3705 0.950 . S
H3685 C3708 0.950 . S
H3686 C3709 0.950 . S
H3687 C3711 0.950 . S
H3688 C3712 0.950 . S
H3689 C3713 0.951 . S
H3690 C3715 0.951 . S
H3691 C3717 0.950 . S
H3692 C3718 0.950 . S
H3693 C3720 0.950 . S
H3694 C3723 0.950 . S
H3695 C3724 0.950 . S
H3696 C3726 0.950 . S
H3697 C3727 0.950 . S
C3698 H3680 0.951 . S
C3698 C3699 1.366 . S
C3698 C3700 1.388 . S
C3699 C3698 1.366 . S
C3699 C3703 1.385 . S
C3700 H3681 0.951 . S
C3700 C3698 1.388 . S
C3700 C3701 1.366 . S
C3701 C3700 1.366 . S
C3701 C3702 1.414 . S
C3701 C3704 1.499 . S
C3702 H3682 0.950 . S
C3702 C3701 1.414 . S
C3702 C3703 1.374 . S
C3703 H3683 0.950 . S
C3703 C3699 1.385 . S
C3703 C3702 1.374 . S
C3704 C3701 1.499 . S
C3704 C3705 1.373 . S
C3704 C3706 1.389 . S
C3705 H3684 0.950 . S
C3705 C3704 1.373 . S
C3705 C3721 1.377 . S
C3706 C3704 1.389 . S
C3706 C3707 1.524 . S
C3706 C3720 1.377 . S
C3707 C3706 1.524 . S
C3707 C3708 1.397 . S
C3707 C3712 1.363 . S
C3708 H3685 0.950 . S
C3708 C3707 1.397 . S
C3708 C3709 1.334 . S
C3709 H3686 0.950 . S
C3709 C3708 1.334 . S
C3709 C3710 1.287 . S
C3710 C3709 1.287 . S
C3710 C3711 1.524 . S
C3710 H3729 0.913 . S
C3711 H3687 0.950 . S
C3711 C3710 1.524 . S
C3711 C3712 1.415 . S
C3712 H3688 0.950 . S
C3712 C3707 1.363 . S
C3712 C3711 1.415 . S
C3713 H3689 0.951 . S
C3713 C3714 1.366 . S
C3713 C3715 1.388 . S
C3714 C3713 1.366 . S
C3714 C3718 1.385 . S
C3715 H3690 0.951 . S
C3715 C3713 1.388 . S
C3715 C3716 1.366 . S
C3716 C3715 1.366 . S
C3716 C3717 1.414 . S
C3716 C3719 1.499 . S
C3717 H3691 0.950 . S
C3717 C3716 1.414 . S
C3717 C3718 1.374 . S
C3718 H3692 0.950 . S
C3718 C3714 1.385 . S
C3718 C3717 1.374 . S
C3719 C3716 1.499 . S
C3719 C3720 1.373 . S
C3719 C3721 1.389 . S
C3720 H3693 0.950 . S
C3720 C3706 1.377 . S
C3720 C3719 1.373 . S
C3721 C3705 1.377 . S
C3721 C3719 1.389 . S
C3721 C3722 1.524 . S
C3722 C3721 1.524 . S
C3722 C3723 1.397 . S
C3722 C3727 1.363 . S
C3723 H3694 0.950 . S
C3723 C3722 1.397 . S
C3723 C3724 1.334 . S
C3724 H3695 0.950 . S
C3724 C3723 1.334 . S
C3724 C3725 1.287 . S
C3725 C3724 1.287 . S
C3725 C3726 1.524 . S
C3725 H3728 0.973 1_545 S
C3726 H3696 0.950 . S
C3726 C3725 1.524 . S
C3726 C3727 1.415 . S
C3727 H3697 0.950 . S
C3727 C3722 1.363 . S
C3727 C3726 1.415 . S
H3728 C3725 0.973 1_565 S
H3729 C3710 0.913 . S
H3730 C3748 0.951 . S
H3731 C3750 0.951 . S
H3732 C3752 0.950 . S
H3733 C3753 0.950 . S
H3734 C3755 0.950 . S
H3735 C3758 0.950 . S
H3736 C3759 0.950 1_556 S
H3737 C3761 0.950 . S
H3738 C3762 0.950 . S
H3739 C3763 0.951 . S
H3740 C3765 0.951 . S
H3741 C3767 0.950 . S
H3742 C3768 0.950 . S
H3743 C3770 0.950 . S
H3744 C3773 0.950 . S
H3745 C3774 0.950 . S
H3746 C3776 0.950 . S
H3747 C3777 0.950 . S
C3748 H3730 0.951 . S
C3748 C3749 1.366 . S
C3748 C3750 1.388 . S
C3749 C3748 1.366 . S
C3749 C3753 1.385 . S
C3750 H3731 0.951 . S
C3750 C3748 1.388 . S
C3750 C3751 1.366 . S
C3751 C3750 1.366 . S
C3751 C3752 1.414 . S
C3751 C3754 1.499 . S
C3752 H3732 0.950 . S
C3752 C3751 1.414 . S
C3752 C3753 1.374 . S
C3753 H3733 0.950 . S
C3753 C3749 1.385 . S
C3753 C3752 1.374 . S
C3754 C3751 1.499 . S
C3754 C3755 1.373 . S
C3754 C3756 1.389 . S
C3755 H3734 0.950 . S
C3755 C3754 1.373 . S
C3755 C3771 1.377 . S
C3756 C3754 1.389 . S
C3756 C3757 1.524 . S
C3756 C3770 1.377 . S
C3757 C3756 1.524 . S
C3757 C3758 1.397 . S
C3757 C3762 1.363 . S
C3758 H3735 0.950 . S
C3758 C3757 1.397 . S
C3758 C3759 1.334 . S
C3759 H3736 0.950 1_554 S
C3759 C3758 1.334 . S
C3759 C3760 1.287 . S
C3760 C3759 1.287 . S
C3760 C3761 1.524 . S
C3760 H3779 0.913 . S
C3761 H3737 0.950 . S
C3761 C3760 1.524 . S
C3761 C3762 1.415 . S
C3762 H3738 0.950 . S
C3762 C3757 1.363 . S
C3762 C3761 1.415 . S
C3763 H3739 0.951 . S
C3763 C3764 1.366 . S
C3763 C3765 1.388 . S
C3764 C3763 1.366 . S
C3764 C3768 1.385 . S
C3765 H3740 0.951 . S
C3765 C3763 1.388 . S
C3765 C3766 1.366 . S
C3766 C3765 1.366 . S
C3766 C3767 1.414 . S
C3766 C3769 1.499 . S
C3767 H3741 0.950 . S
C3767 C3766 1.414 . S
C3767 C3768 1.374 . S
C3768 H3742 0.950 . S
C3768 C3764 1.385 . S
C3768 C3767 1.374 . S
C3769 C3766 1.499 . S
C3769 C3770 1.373 . S
C3769 C3771 1.389 . S
C3770 H3743 0.950 . S
C3770 C3756 1.377 . S
C3770 C3769 1.373 . S
C3771 C3755 1.377 . S
C3771 C3769 1.389 . S
C3771 C3772 1.524 . S
C3772 C3771 1.524 . S
C3772 C3773 1.397 . S
C3772 C3777 1.363 . S
C3773 H3744 0.950 . S
C3773 C3772 1.397 . S
C3773 C3774 1.334 . S
C3774 H3745 0.950 . S
C3774 C3773 1.334 . S
C3774 C3775 1.287 . S
C3775 C3774 1.287 . S
C3775 C3776 1.524 . S
C3775 H3778 0.999 . S
C3776 H3746 0.950 . S
C3776 C3775 1.524 . S
C3776 C3777 1.415 . S
C3777 H3747 0.950 . S
C3777 C3772 1.363 . S
C3777 C3776 1.415 . S
H3778 C3775 0.999 . S
H3779 C3760 0.913 . S
H3780 C3798 0.951 . S
H3781 C3800 0.951 . S
H3782 C3802 0.950 . S
H3783 C3803 0.950 . S
H3784 C3805 0.950 . S
H3785 C3808 0.950 . S
H3786 C3809 0.950 . S
H3787 C3811 0.950 . S
H3788 C3812 0.950 . S
H3789 C3813 0.951 . S
H3790 C3815 0.951 . S
H3791 C3817 0.950 . S
H3792 C3818 0.950 . S
H3793 C3820 0.950 . S
H3794 C3823 0.950 . S
H3795 C3824 0.950 . S
H3796 C3826 0.950 . S
H3797 C3827 0.950 . S
C3798 H3780 0.951 . S
C3798 C3799 1.366 . S
C3798 C3800 1.388 . S
C3799 C3798 1.366 . S
C3799 C3803 1.385 . S
C3800 H3781 0.951 . S
C3800 C3798 1.388 . S
C3800 C3801 1.366 . S
C3801 C3800 1.366 . S
C3801 C3802 1.414 . S
C3801 C3804 1.499 . S
C3802 H3782 0.950 . S
C3802 C3801 1.414 . S
C3802 C3803 1.374 . S
C3803 H3783 0.950 . S
C3803 C3799 1.385 . S
C3803 C3802 1.374 . S
C3804 C3801 1.499 . S
C3804 C3805 1.373 . S
C3804 C3806 1.389 . S
C3805 H3784 0.950 . S
C3805 C3804 1.373 . S
C3805 C3821 1.377 . S
C3806 C3804 1.389 . S
C3806 C3807 1.524 . S
C3806 C3820 1.377 . S
C3807 C3806 1.524 . S
C3807 C3808 1.397 . S
C3807 C3812 1.363 . S
C3808 H3785 0.950 . S
C3808 C3807 1.397 . S
C3808 C3809 1.334 . S
C3809 H3786 0.950 . S
C3809 C3808 1.334 . S
C3809 C3810 1.287 . S
C3810 C3809 1.287 . S
C3810 C3811 1.524 . S
C3810 H3829 0.913 . S
C3811 H3787 0.950 . S
C3811 C3810 1.524 . S
C3811 C3812 1.415 . S
C3812 H3788 0.950 . S
C3812 C3807 1.363 . S
C3812 C3811 1.415 . S
C3813 H3789 0.951 . S
C3813 C3814 1.366 . S
C3813 C3815 1.388 . S
C3814 C3813 1.366 . S
C3814 C3818 1.385 . S
C3815 H3790 0.951 . S
C3815 C3813 1.388 . S
C3815 C3816 1.366 . S
C3816 C3815 1.366 . S
C3816 C3817 1.414 . S
C3816 C3819 1.499 . S
C3817 H3791 0.950 . S
C3817 C3816 1.414 . S
C3817 C3818 1.374 . S
C3818 H3792 0.950 . S
C3818 C3814 1.385 . S
C3818 C3817 1.374 . S
C3819 C3816 1.499 . S
C3819 C3820 1.373 . S
C3819 C3821 1.389 . S
C3820 H3793 0.950 . S
C3820 C3806 1.377 . S
C3820 C3819 1.373 . S
C3821 C3805 1.377 . S
C3821 C3819 1.389 . S
C3821 C3822 1.524 . S
C3822 C3821 1.524 . S
C3822 C3823 1.397 . S
C3822 C3827 1.363 . S
C3823 H3794 0.950 . S
C3823 C3822 1.397 . S
C3823 C3824 1.334 . S
C3824 H3795 0.950 . S
C3824 C3823 1.334 . S
C3824 C3825 1.287 . S
C3825 C3824 1.287 . S
C3825 C3826 1.524 . S
C3825 H3828 0.999 . S
C3826 H3796 0.950 . S
C3826 C3825 1.524 . S
C3826 C3827 1.415 . S
C3827 H3797 0.950 . S
C3827 C3822 1.363 . S
C3827 C3826 1.415 . S
H3828 C3825 0.999 . S
H3829 C3810 0.913 . S
H3830 C3848 0.951 . S
H3831 C3850 0.951 . S
H3832 C3852 0.950 . S
H3833 C3853 0.950 . S
H3834 C3855 0.950 . S
H3835 C3858 0.950 . S
H3836 C3859 0.950 . S
H3837 C3861 0.950 . S
H3838 C3862 0.950 . S
H3839 C3863 0.951 . S
H3840 C3865 0.951 . S
H3841 C3867 0.950 . S
H3842 C3868 0.950 . S
H3843 C3870 0.950 . S
H3844 C3873 0.950 . S
H3845 C3874 0.950 . S
H3846 C3876 0.950 . S
H3847 C3877 0.950 . S
C3848 H3830 0.951 . S
C3848 C3849 1.366 . S
C3848 C3850 1.388 . S
C3849 C3848 1.366 . S
C3849 C3853 1.385 . S
C3850 H3831 0.951 . S
C3850 C3848 1.388 . S
C3850 C3851 1.366 . S
C3851 C3850 1.366 . S
C3851 C3852 1.414 . S
C3851 C3854 1.499 . S
C3852 H3832 0.950 . S
C3852 C3851 1.414 . S
C3852 C3853 1.374 . S
C3853 H3833 0.950 . S
C3853 C3849 1.385 . S
C3853 C3852 1.374 . S
C3854 C3851 1.499 . S
C3854 C3855 1.373 . S
C3854 C3856 1.389 . S
C3855 H3834 0.950 . S
C3855 C3854 1.373 . S
C3855 C3871 1.377 . S
C3856 C3854 1.389 . S
C3856 C3857 1.524 . S
C3856 C3870 1.377 . S
C3857 C3856 1.524 . S
C3857 C3858 1.397 . S
C3857 C3862 1.363 . S
C3858 H3835 0.950 . S
C3858 C3857 1.397 . S
C3858 C3859 1.334 . S
C3859 H3836 0.950 . S
C3859 C3858 1.334 . S
C3859 C3860 1.287 . S
C3860 C3859 1.287 . S
C3860 C3861 1.524 . S
C3860 H3879 0.913 . S
C3861 H3837 0.950 . S
C3861 C3860 1.524 . S
C3861 C3862 1.415 . S
C3862 H3838 0.950 . S
C3862 C3857 1.363 . S
C3862 C3861 1.415 . S
C3863 H3839 0.951 . S
C3863 C3864 1.366 . S
C3863 C3865 1.388 . S
C3864 C3863 1.366 . S
C3864 C3868 1.385 . S
C3865 H3840 0.951 . S
C3865 C3863 1.388 . S
C3865 C3866 1.366 . S
C3866 C3865 1.366 . S
C3866 C3867 1.414 . S
C3866 C3869 1.499 . S
C3867 H3841 0.950 . S
C3867 C3866 1.414 . S
C3867 C3868 1.374 . S
C3868 H3842 0.950 . S
C3868 C3864 1.385 . S
C3868 C3867 1.374 . S
C3869 C3866 1.499 . S
C3869 C3870 1.373 . S
C3869 C3871 1.389 . S
C3870 H3843 0.950 . S
C3870 C3856 1.377 . S
C3870 C3869 1.373 . S
C3871 C3855 1.377 . S
C3871 C3869 1.389 . S
C3871 C3872 1.524 . S
C3872 C3871 1.524 . S
C3872 C3873 1.397 . S
C3872 C3877 1.363 . S
C3873 H3844 0.950 . S
C3873 C3872 1.397 . S
C3873 C3874 1.334 . S
C3874 H3845 0.950 . S
C3874 C3873 1.334 . S
C3874 C3875 1.287 . S
C3875 C3874 1.287 . S
C3875 C3876 1.524 . S
C3875 H3878 0.999 . S
C3876 H3846 0.950 . S
C3876 C3875 1.524 . S
C3876 C3877 1.415 . S
C3877 H3847 0.950 . S
C3877 C3872 1.363 . S
C3877 C3876 1.415 . S
H3878 C3875 0.999 . S
H3879 C3860 0.913 . S
H3880 C3898 0.951 . S
H3881 C3900 0.951 . S
H3882 C3902 0.950 . S
H3883 C3903 0.950 . S
H3884 C3905 0.950 . S
H3885 C3908 0.950 . S
H3886 C3909 0.950 . S
H3887 C3911 0.950 . S
H3888 C3912 0.950 . S
H3889 C3913 0.951 . S
H3890 C3915 0.951 . S
H3891 C3917 0.950 . S
H3892 C3918 0.950 . S
H3893 C3920 0.950 . S
H3894 C3923 0.950 . S
H3895 C3924 0.950 . S
H3896 C3926 0.950 . S
H3897 C3927 0.950 . S
C3898 H3880 0.951 . S
C3898 C3899 1.366 . S
C3898 C3900 1.388 . S
C3899 C3898 1.366 . S
C3899 C3903 1.385 . S
C3900 H3881 0.951 . S
C3900 C3898 1.388 . S
C3900 C3901 1.366 . S
C3901 C3900 1.366 . S
C3901 C3902 1.414 . S
C3901 C3904 1.499 . S
C3902 H3882 0.950 . S
C3902 C3901 1.414 . S
C3902 C3903 1.374 . S
C3903 H3883 0.950 . S
C3903 C3899 1.385 . S
C3903 C3902 1.374 . S
C3904 C3901 1.499 . S
C3904 C3905 1.373 . S
C3904 C3906 1.389 . S
C3905 H3884 0.950 . S
C3905 C3904 1.373 . S
C3905 C3921 1.377 . S
C3906 C3904 1.389 . S
C3906 C3907 1.524 . S
C3906 C3920 1.377 . S
C3907 C3906 1.524 . S
C3907 C3908 1.397 . S
C3907 C3912 1.363 . S
C3908 H3885 0.950 . S
C3908 C3907 1.397 . S
C3908 C3909 1.334 . S
C3909 H3886 0.950 . S
C3909 C3908 1.334 . S
C3909 C3910 1.287 . S
C3910 C3909 1.287 . S
C3910 C3911 1.524 . S
C3910 H3929 0.913 . S
C3911 H3887 0.950 . S
C3911 C3910 1.524 . S
C3911 C3912 1.415 . S
C3912 H3888 0.950 . S
C3912 C3907 1.363 . S
C3912 C3911 1.415 . S
C3913 H3889 0.951 . S
C3913 C3914 1.366 . S
C3913 C3915 1.388 . S
C3914 C3913 1.366 . S
C3914 C3918 1.385 . S
C3915 H3890 0.951 . S
C3915 C3913 1.388 . S
C3915 C3916 1.366 . S
C3916 C3915 1.366 . S
C3916 C3917 1.414 . S
C3916 C3919 1.499 . S
C3917 H3891 0.950 . S
C3917 C3916 1.414 . S
C3917 C3918 1.374 . S
C3918 H3892 0.950 . S
C3918 C3914 1.385 . S
C3918 C3917 1.374 . S
C3919 C3916 1.499 . S
C3919 C3920 1.373 . S
C3919 C3921 1.389 . S
C3920 H3893 0.950 . S
C3920 C3906 1.377 . S
C3920 C3919 1.373 . S
C3921 C3905 1.377 . S
C3921 C3919 1.389 . S
C3921 C3922 1.524 . S
C3922 C3921 1.524 . S
C3922 C3923 1.397 . S
C3922 C3927 1.363 . S
C3923 H3894 0.950 . S
C3923 C3922 1.397 . S
C3923 C3924 1.334 . S
C3924 H3895 0.950 . S
C3924 C3923 1.334 . S
C3924 C3925 1.287 . S
C3925 C3924 1.287 . S
C3925 C3926 1.524 . S
C3925 H3928 0.999 . S
C3926 H3896 0.950 . S
C3926 C3925 1.524 . S
C3926 C3927 1.415 . S
C3927 H3897 0.950 . S
C3927 C3922 1.363 . S
C3927 C3926 1.415 . S
H3928 C3925 0.999 . S
H3929 C3910 0.913 . S
H3930 C3948 0.951 . S
H3931 C3950 0.951 . S
H3932 C3952 0.950 . S
H3933 C3953 0.950 . S
H3934 C3955 0.950 . S
H3935 C3958 0.950 . S
H3936 C3959 0.950 . S
H3937 C3961 0.950 . S
H3938 C3962 0.950 . S
H3939 C3963 0.951 . S
H3940 C3965 0.951 . S
H3941 C3967 0.950 . S
H3942 C3968 0.950 . S
H3943 C3970 0.950 . S
H3944 C3973 0.950 . S
H3945 C3974 0.950 . S
H3946 C3976 0.950 . S
H3947 C3977 0.950 . S
C3948 H3930 0.951 . S
C3948 C3949 1.366 . S
C3948 C3950 1.388 . S
C3949 C3948 1.366 . S
C3949 C3953 1.385 . S
C3950 H3931 0.951 . S
C3950 C3948 1.388 . S
C3950 C3951 1.366 . S
C3951 C3950 1.366 . S
C3951 C3952 1.414 . S
C3951 C3954 1.499 . S
C3952 H3932 0.950 . S
C3952 C3951 1.414 . S
C3952 C3953 1.374 . S
C3953 H3933 0.950 . S
C3953 C3949 1.385 . S
C3953 C3952 1.374 . S
C3954 C3951 1.499 . S
C3954 C3955 1.373 . S
C3954 C3956 1.389 . S
C3955 H3934 0.950 . S
C3955 C3954 1.373 . S
C3955 C3971 1.377 . S
C3956 C3954 1.389 . S
C3956 C3957 1.524 . S
C3956 C3970 1.377 . S
C3957 C3956 1.524 . S
C3957 C3958 1.397 . S
C3957 C3962 1.363 . S
C3958 H3935 0.950 . S
C3958 C3957 1.397 . S
C3958 C3959 1.334 . S
C3959 H3936 0.950 . S
C3959 C3958 1.334 . S
C3959 C3960 1.287 . S
C3960 C3959 1.287 . S
C3960 C3961 1.524 . S
C3960 H3979 0.913 . S
C3961 H3937 0.950 . S
C3961 C3960 1.524 . S
C3961 C3962 1.415 . S
C3962 H3938 0.950 . S
C3962 C3957 1.363 . S
C3962 C3961 1.415 . S
C3963 H3939 0.951 . S
C3963 C3964 1.366 . S
C3963 C3965 1.388 . S
C3964 C3963 1.366 . S
C3964 C3968 1.385 . S
C3965 H3940 0.951 . S
C3965 C3963 1.388 . S
C3965 C3966 1.366 . S
C3966 C3965 1.366 . S
C3966 C3967 1.414 . S
C3966 C3969 1.499 . S
C3967 H3941 0.950 . S
C3967 C3966 1.414 . S
C3967 C3968 1.374 . S
C3968 H3942 0.950 . S
C3968 C3964 1.385 . S
C3968 C3967 1.374 . S
C3969 C3966 1.499 . S
C3969 C3970 1.373 . S
C3969 C3971 1.389 . S
C3970 H3943 0.950 . S
C3970 C3956 1.377 . S
C3970 C3969 1.373 . S
C3971 C3955 1.377 . S
C3971 C3969 1.389 . S
C3971 C3972 1.524 . S
C3972 C3971 1.524 . S
C3972 C3973 1.397 . S
C3972 C3977 1.363 . S
C3973 H3944 0.950 . S
C3973 C3972 1.397 . S
C3973 C3974 1.334 . S
C3974 H3945 0.950 . S
C3974 C3973 1.334 . S
C3974 C3975 1.287 . S
C3975 C3974 1.287 . S
C3975 C3976 1.524 . S
C3975 H3978 0.999 . S
C3976 H3946 0.950 . S
C3976 C3975 1.524 . S
C3976 C3977 1.415 . S
C3977 H3947 0.950 . S
C3977 C3972 1.363 . S
C3977 C3976 1.415 . S
H3978 C3975 0.999 . S
H3979 C3960 0.913 . S
H3980 C3998 0.951 . S
H3981 C4000 0.951 . S
H3982 C4002 0.950 . S
H3983 C4003 0.950 . S
H3984 C4005 0.950 . S
H3985 C4008 0.950 . S
H3986 C4009 0.950 . S
H3987 C4011 0.950 . S
H3988 C4012 0.950 . S
H3989 C4013 0.951 . S
H3990 C4015 0.951 . S
H3991 C4017 0.950 . S
H3992 C4018 0.950 . S
H3993 C4020 0.950 . S
H3994 C4023 0.950 . S
H3995 C4024 0.950 . S
H3996 C4026 0.950 . S
H3997 C4027 0.950 . S
C3998 H3980 0.951 . S
C3998 C3999 1.366 . S
C3998 C4000 1.388 . S
C3999 C3998 1.366 . S
C3999 C4003 1.385 . S
C4000 H3981 0.951 . S
C4000 C3998 1.388 . S
C4000 C4001 1.366 . S
C4001 C4000 1.366 . S
C4001 C4002 1.414 . S
C4001 C4004 1.499 . S
C4002 H3982 0.950 . S
C4002 C4001 1.414 . S
C4002 C4003 1.374 . S
C4003 H3983 0.950 . S
C4003 C3999 1.385 . S
C4003 C4002 1.374 . S
C4004 C4001 1.499 . S
C4004 C4005 1.373 . S
C4004 C4006 1.389 . S
C4005 H3984 0.950 . S
C4005 C4004 1.373 . S
C4005 C4021 1.377 . S
C4006 C4004 1.389 . S
C4006 C4007 1.524 . S
C4006 C4020 1.377 . S
C4007 C4006 1.524 . S
C4007 C4008 1.397 . S
C4007 C4012 1.363 . S
C4008 H3985 0.950 . S
C4008 C4007 1.397 . S
C4008 C4009 1.334 . S
C4009 H3986 0.950 . S
C4009 C4008 1.334 . S
C4009 C4010 1.287 . S
C4010 C4009 1.287 . S
C4010 C4011 1.524 . S
C4010 H4029 0.913 . S
C4011 H3987 0.950 . S
C4011 C4010 1.524 . S
C4011 C4012 1.415 . S
C4012 H3988 0.950 . S
C4012 C4007 1.363 . S
C4012 C4011 1.415 . S
C4013 H3989 0.951 . S
C4013 C4014 1.366 . S
C4013 C4015 1.388 . S
C4014 C4013 1.366 . S
C4014 C4018 1.385 . S
C4015 H3990 0.951 . S
C4015 C4013 1.388 . S
C4015 C4016 1.366 . S
C4016 C4015 1.366 . S
C4016 C4017 1.414 . S
C4016 C4019 1.499 . S
C4017 H3991 0.950 . S
C4017 C4016 1.414 . S
C4017 C4018 1.374 . S
C4018 H3992 0.950 . S
C4018 C4014 1.385 . S
C4018 C4017 1.374 . S
C4019 C4016 1.499 . S
C4019 C4020 1.373 . S
C4019 C4021 1.389 . S
C4020 H3993 0.950 . S
C4020 C4006 1.377 . S
C4020 C4019 1.373 . S
C4021 C4005 1.377 . S
C4021 C4019 1.389 . S
C4021 C4022 1.524 . S
C4022 C4021 1.524 . S
C4022 C4023 1.397 . S
C4022 C4027 1.363 . S
C4023 H3994 0.950 . S
C4023 C4022 1.397 . S
C4023 C4024 1.334 . S
C4024 H3995 0.950 . S
C4024 C4023 1.334 . S
C4024 C4025 1.287 . S
C4025 C4024 1.287 . S
C4025 C4026 1.524 . S
C4025 H4028 0.999 . S
C4026 H3996 0.950 . S
C4026 C4025 1.524 . S
C4026 C4027 1.415 . S
C4027 H3997 0.950 . S
C4027 C4022 1.363 . S
C4027 C4026 1.415 . S
H4028 C4025 0.999 . S
H4029 C4010 0.913 . S
H4030 C4048 0.951 . S
H4031 C4050 0.951 . S
H4032 C4052 0.950 . S
H4033 C4053 0.950 . S
H4034 C4055 0.950 . S
H4035 C4058 0.950 . S
H4036 C4059 0.950 . S
H4037 C4061 0.950 . S
H4038 C4062 0.950 . S
H4039 C4063 0.951 . S
H4040 C4065 0.951 . S
H4041 C4067 0.950 . S
H4042 C4068 0.950 . S
H4043 C4070 0.950 . S
H4044 C4073 0.950 . S
H4045 C4074 0.950 . S
H4046 C4076 0.950 . S
H4047 C4077 0.950 . S
C4048 H4030 0.951 . S
C4048 C4049 1.366 . S
C4048 C4050 1.388 . S
C4049 C4048 1.366 . S
C4049 C4053 1.385 . S
C4050 H4031 0.951 . S
C4050 C4048 1.388 . S
C4050 C4051 1.366 . S
C4051 C4050 1.366 . S
C4051 C4052 1.414 . S
C4051 C4054 1.499 . S
C4052 H4032 0.950 . S
C4052 C4051 1.414 . S
C4052 C4053 1.374 . S
C4053 H4033 0.950 . S
C4053 C4049 1.385 . S
C4053 C4052 1.374 . S
C4054 C4051 1.499 . S
C4054 C4055 1.373 . S
C4054 C4056 1.389 . S
C4055 H4034 0.950 . S
C4055 C4054 1.373 . S
C4055 C4071 1.377 . S
C4056 C4054 1.389 . S
C4056 C4057 1.524 . S
C4056 C4070 1.377 . S
C4057 C4056 1.524 . S
C4057 C4058 1.397 . S
C4057 C4062 1.363 . S
C4058 H4035 0.950 . S
C4058 C4057 1.397 . S
C4058 C4059 1.334 . S
C4059 H4036 0.950 . S
C4059 C4058 1.334 . S
C4059 C4060 1.287 . S
C4060 C4059 1.287 . S
C4060 C4061 1.524 . S
C4060 H4079 0.913 . S
C4061 H4037 0.950 . S
C4061 C4060 1.524 . S
C4061 C4062 1.415 . S
C4062 H4038 0.950 . S
C4062 C4057 1.363 . S
C4062 C4061 1.415 . S
C4063 H4039 0.951 . S
C4063 C4064 1.366 . S
C4063 C4065 1.388 . S
C4064 C4063 1.366 . S
C4064 C4068 1.385 . S
C4065 H4040 0.951 . S
C4065 C4063 1.388 . S
C4065 C4066 1.366 . S
C4066 C4065 1.366 . S
C4066 C4067 1.414 . S
C4066 C4069 1.499 . S
C4067 H4041 0.950 . S
C4067 C4066 1.414 . S
C4067 C4068 1.374 . S
C4068 H4042 0.950 . S
C4068 C4064 1.385 . S
C4068 C4067 1.374 . S
C4069 C4066 1.499 . S
C4069 C4070 1.373 . S
C4069 C4071 1.389 . S
C4070 H4043 0.950 . S
C4070 C4056 1.377 . S
C4070 C4069 1.373 . S
C4071 C4055 1.377 . S
C4071 C4069 1.389 . S
C4071 C4072 1.524 . S
C4072 C4071 1.524 . S
C4072 C4073 1.397 . S
C4072 C4077 1.363 . S
C4073 H4044 0.950 . S
C4073 C4072 1.397 . S
C4073 C4074 1.334 . S
C4074 H4045 0.950 . S
C4074 C4073 1.334 . S
C4074 C4075 1.287 . S
C4075 C4074 1.287 . S
C4075 C4076 1.524 . S
C4075 H4078 0.999 . S
C4076 H4046 0.950 . S
C4076 C4075 1.524 . S
C4076 C4077 1.415 . S
C4077 H4047 0.950 . S
C4077 C4072 1.363 . S
C4077 C4076 1.415 . S
H4078 C4075 0.999 . S
H4079 C4060 0.913 . S
H4080 C4098 0.951 . S
H4081 C4100 0.951 . S
H4082 C4102 0.950 . S
H4083 C4103 0.950 . S
H4084 C4105 0.950 . S
H4085 C4108 0.950 . S
H4086 C4109 0.950 . S
H4087 C4111 0.950 . S
H4088 C4112 0.950 . S
H4089 C4113 0.951 . S
H4090 C4115 0.951 . S
H4091 C4117 0.950 . S
H4092 C4118 0.950 . S
H4093 C4120 0.950 . S
H4094 C4123 0.950 . S
H4095 C4124 0.950 . S
H4096 C4126 0.950 . S
H4097 C4127 0.950 . S
C4098 H4080 0.951 . S
C4098 C4099 1.366 . S
C4098 C4100 1.388 . S
C4099 C4098 1.366 . S
C4099 C4103 1.385 . S
C4100 H4081 0.951 . S
C4100 C4098 1.388 . S
C4100 C4101 1.366 . S
C4101 C4100 1.366 . S
C4101 C4102 1.414 . S
C4101 C4104 1.499 . S
C4102 H4082 0.950 . S
C4102 C4101 1.414 . S
C4102 C4103 1.374 . S
C4103 H4083 0.950 . S
C4103 C4099 1.385 . S
C4103 C4102 1.374 . S
C4104 C4101 1.499 . S
C4104 C4105 1.373 . S
C4104 C4106 1.389 . S
C4105 H4084 0.950 . S
C4105 C4104 1.373 . S
C4105 C4121 1.377 . S
C4106 C4104 1.389 . S
C4106 C4107 1.524 . S
C4106 C4120 1.377 . S
C4107 C4106 1.524 . S
C4107 C4108 1.397 . S
C4107 C4112 1.363 . S
C4108 H4085 0.950 . S
C4108 C4107 1.397 . S
C4108 C4109 1.334 . S
C4109 H4086 0.950 . S
C4109 C4108 1.334 . S
C4109 C4110 1.287 . S
C4110 C4109 1.287 . S
C4110 C4111 1.524 . S
C4110 H4129 0.913 . S
C4111 H4087 0.950 . S
C4111 C4110 1.524 . S
C4111 C4112 1.415 . S
C4112 H4088 0.950 . S
C4112 C4107 1.363 . S
C4112 C4111 1.415 . S
C4113 H4089 0.951 . S
C4113 C4114 1.366 . S
C4113 C4115 1.388 . S
C4114 C4113 1.366 . S
C4114 C4118 1.385 . S
C4115 H4090 0.951 . S
C4115 C4113 1.388 . S
C4115 C4116 1.366 . S
C4116 C4115 1.366 . S
C4116 C4117 1.414 . S
C4116 C4119 1.499 . S
C4117 H4091 0.950 . S
C4117 C4116 1.414 . S
C4117 C4118 1.374 . S
C4118 H4092 0.950 . S
C4118 C4114 1.385 . S
C4118 C4117 1.374 . S
C4119 C4116 1.499 . S
C4119 C4120 1.373 . S
C4119 C4121 1.389 . S
C4120 H4093 0.950 . S
C4120 C4106 1.377 . S
C4120 C4119 1.373 . S
C4121 C4105 1.377 . S
C4121 C4119 1.389 . S
C4121 C4122 1.524 . S
C4122 C4121 1.524 . S
C4122 C4123 1.397 . S
C4122 C4127 1.363 . S
C4123 H4094 0.950 . S
C4123 C4122 1.397 . S
C4123 C4124 1.334 . S
C4124 H4095 0.950 . S
C4124 C4123 1.334 . S
C4124 C4125 1.287 . S
C4125 C4124 1.287 . S
C4125 C4126 1.524 . S
C4125 H4128 0.999 . S
C4126 H4096 0.950 . S
C4126 C4125 1.524 . S
C4126 C4127 1.415 . S
C4127 H4097 0.950 . S
C4127 C4122 1.363 . S
C4127 C4126 1.415 . S
H4128 C4125 0.999 . S
H4129 C4110 0.913 . S
H4130 C4148 0.951 . S
H4131 C4150 0.951 . S
H4132 C4152 0.950 . S
H4133 C4153 0.950 . S
H4134 C4155 0.950 . S
H4135 C4158 0.950 . S
H4136 C4159 0.950 . S
H4137 C4161 0.950 . S
H4138 C4162 0.950 . S
H4139 C4163 0.951 . S
H4140 C4165 0.951 . S
H4141 C4167 0.950 . S
H4142 C4168 0.950 . S
H4143 C4170 0.950 . S
H4144 C4173 0.950 . S
H4145 C4174 0.950 . S
H4146 C4176 0.950 . S
H4147 C4177 0.950 . S
C4148 H4130 0.951 . S
C4148 C4149 1.366 . S
C4148 C4150 1.388 . S
C4149 C4148 1.366 . S
C4149 C4153 1.385 . S
C4150 H4131 0.951 . S
C4150 C4148 1.388 . S
C4150 C4151 1.366 . S
C4151 C4150 1.366 . S
C4151 C4152 1.414 . S
C4151 C4154 1.499 . S
C4152 H4132 0.950 . S
C4152 C4151 1.414 . S
C4152 C4153 1.374 . S
C4153 H4133 0.950 . S
C4153 C4149 1.385 . S
C4153 C4152 1.374 . S
C4154 C4151 1.499 . S
C4154 C4155 1.373 . S
C4154 C4156 1.389 . S
C4155 H4134 0.950 . S
C4155 C4154 1.373 . S
C4155 C4171 1.377 . S
C4156 C4154 1.389 . S
C4156 C4157 1.524 . S
C4156 C4170 1.377 . S
C4157 C4156 1.524 . S
C4157 C4158 1.397 . S
C4157 C4162 1.363 . S
C4158 H4135 0.950 . S
C4158 C4157 1.397 . S
C4158 C4159 1.334 . S
C4159 H4136 0.950 . S
C4159 C4158 1.334 . S
C4159 C4160 1.287 . S
C4160 C4159 1.287 . S
C4160 C4161 1.524 . S
C4160 H4179 0.913 . S
C4161 H4137 0.950 . S
C4161 C4160 1.524 . S
C4161 C4162 1.415 . S
C4162 H4138 0.950 . S
C4162 C4157 1.363 . S
C4162 C4161 1.415 . S
C4163 H4139 0.951 . S
C4163 C4164 1.366 . S
C4163 C4165 1.388 . S
C4164 C4163 1.366 . S
C4164 C4168 1.385 . S
C4165 H4140 0.951 . S
C4165 C4163 1.388 . S
C4165 C4166 1.366 . S
C4166 C4165 1.366 . S
C4166 C4167 1.414 . S
C4166 C4169 1.499 . S
C4167 H4141 0.950 . S
C4167 C4166 1.414 . S
C4167 C4168 1.374 . S
C4168 H4142 0.950 . S
C4168 C4164 1.385 . S
C4168 C4167 1.374 . S
C4169 C4166 1.499 . S
C4169 C4170 1.373 . S
C4169 C4171 1.389 . S
C4170 H4143 0.950 . S
C4170 C4156 1.377 . S
C4170 C4169 1.373 . S
C4171 C4155 1.377 . S
C4171 C4169 1.389 . S
C4171 C4172 1.524 . S
C4172 C4171 1.524 . S
C4172 C4173 1.397 . S
C4172 C4177 1.363 . S
C4173 H4144 0.950 . S
C4173 C4172 1.397 . S
C4173 C4174 1.334 . S
C4174 H4145 0.950 . S
C4174 C4173 1.334 . S
C4174 C4175 1.287 . S
C4175 C4174 1.287 . S
C4175 C4176 1.524 . S
C4175 H4178 0.999 . S
C4176 H4146 0.950 . S
C4176 C4175 1.524 . S
C4176 C4177 1.415 . S
C4177 H4147 0.950 . S
C4177 C4172 1.363 . S
C4177 C4176 1.415 . S
H4178 C4175 0.999 . S
H4179 C4160 0.913 . S
H4180 C4198 0.951 . S
H4181 C4200 0.951 . S
H4182 C4202 0.950 . S
H4183 C4203 0.950 . S
H4184 C4205 0.950 . S
H4185 C4208 0.950 . S
H4186 C4209 0.950 . S
H4187 C4211 0.950 . S
H4188 C4212 0.950 . S
H4189 C4213 0.951 . S
H4190 C4215 0.951 . S
H4191 C4217 0.950 . S
H4192 C4218 0.954 1_655 S
H4193 C4220 0.951 . S
H4194 C4223 0.950 . S
H4195 C4224 0.950 . S
H4196 C4226 0.950 . S
H4197 C4227 0.950 . S
C4198 H4180 0.951 . S
C4198 C4199 1.366 1_655 S
C4198 C4200 1.388 . S
C4199 C4198 1.366 1_455 S
C4199 C4203 1.385 . S
C4200 H4181 0.951 . S
C4200 C4198 1.388 . S
C4200 C4201 1.366 1_655 S
C4201 C4200 1.366 1_455 S
C4201 C4202 1.414 . S
C4201 C4204 1.499 . S
C4202 H4182 0.950 . S
C4202 C4201 1.414 . S
C4202 C4203 1.374 . S
C4203 H4183 0.950 . S
C4203 C4199 1.385 . S
C4203 C4202 1.374 . S
C4204 C4201 1.499 . S
C4204 C4205 1.373 1_556 S
C4204 C4206 1.389 1_455 S
C4205 H4184 0.950 . S
C4205 C4204 1.373 1_554 S
C4205 C4221 1.377 . S
C4206 C4204 1.389 1_655 S
C4206 C4207 1.524 . S
C4206 C4220 1.378 . S
C4207 C4206 1.524 . S
C4207 C4208 1.397 . S
C4207 C4212 1.363 . S
C4208 H4185 0.950 . S
C4208 C4207 1.397 . S
C4208 C4209 1.334 . S
C4209 H4186 0.950 . S
C4209 C4208 1.334 . S
C4209 C4210 1.287 . S
C4210 C4209 1.287 . S
C4210 C4211 1.524 . S
C4210 H4229 0.913 . S
C4211 H4187 0.950 . S
C4211 C4210 1.524 . S
C4211 C4212 1.415 . S
C4212 H4188 0.950 . S
C4212 C4207 1.363 . S
C4212 C4211 1.415 . S
C4213 H4189 0.951 . S
C4213 C4214 1.366 . S
C4213 C4215 1.388 . S
C4214 C4213 1.366 . S
C4214 C4218 1.382 . S
C4215 H4190 0.951 . S
C4215 C4213 1.388 . S
C4215 C4216 1.366 . S
C4216 C4215 1.366 . S
C4216 C4217 1.414 1_455 S
C4216 C4219 1.499 . S
C4217 H4191 0.950 . S
C4217 C4216 1.414 1_655 S
C4217 C4218 1.373 1_655 S
C4218 H4192 0.954 1_455 S
C4218 C4214 1.382 . S
C4218 C4217 1.373 1_455 S
C4219 C4216 1.499 . S
C4219 C4220 1.371 1_454 S
C4219 C4221 1.389 . S
C4220 H4193 0.951 . S
C4220 C4206 1.378 . S
C4220 C4219 1.371 1_656 S
C4221 C4205 1.377 . S
C4221 C4219 1.389 . S
C4221 C4222 1.524 . S
C4222 C4221 1.524 . S
C4222 C4223 1.397 . S
C4222 C4227 1.363 . S
C4223 H4194 0.950 . S
C4223 C4222 1.397 . S
C4223 C4224 1.334 . S
C4224 H4195 0.950 . S
C4224 C4223 1.334 . S
C4224 C4225 1.287 . S
C4225 C4224 1.287 . S
C4225 C4226 1.524 . S
C4225 H4228 0.999 . S
C4226 H4196 0.950 . S
C4226 C4225 1.524 . S
C4226 C4227 1.415 . S
C4227 H4197 0.950 . S
C4227 C4222 1.363 . S
C4227 C4226 1.415 . S
H4228 C4225 0.999 . S
H4229 C4210 0.913 . S
H4230 C4248 0.951 1_455 S
H4231 C4250 0.951 . S
H4232 C4252 0.950 . S
H4233 C4253 0.950 . S
H4234 C4255 0.950 . S
H4235 C4258 0.950 . S
H4236 C4259 0.950 . S
H4237 C4261 0.950 . S
H4238 C4262 0.950 . S
H4239 C4263 0.951 . S
H4240 C4265 0.951 . S
H4241 C4267 0.950 . S
H4242 C4268 0.950 . S
H4243 C4270 0.950 . S
H4244 C4273 0.950 . S
H4245 C4274 0.950 . S
H4246 C4276 0.950 . S
H4247 C4277 0.950 . S
C4248 H4230 0.951 1_655 S
C4248 C4249 1.366 . S
C4248 C4250 1.388 . S
C4249 C4248 1.366 . S
C4249 C4253 1.385 . S
C4250 H4231 0.951 . S
C4250 C4248 1.388 . S
C4250 C4251 1.366 . S
C4251 C4250 1.366 . S
C4251 C4252 1.414 . S
C4251 C4254 1.499 . S
C4252 H4232 0.950 . S
C4252 C4251 1.414 . S
C4252 C4253 1.374 . S
C4253 H4233 0.950 . S
C4253 C4249 1.385 . S
C4253 C4252 1.374 . S
C4254 C4251 1.499 . S
C4254 C4255 1.373 . S
C4254 C4256 1.389 . S
C4255 H4234 0.950 . S
C4255 C4254 1.373 . S
C4255 C4271 1.377 . S
C4256 C4254 1.389 . S
C4256 C4257 1.524 . S
C4256 C4270 1.377 . S
C4257 C4256 1.524 . S
C4257 C4258 1.397 . S
C4257 C4262 1.363 . S
C4258 H4235 0.950 . S
C4258 C4257 1.397 . S
C4258 C4259 1.334 . S
C4259 H4236 0.950 . S
C4259 C4258 1.334 . S
C4259 C4260 1.287 . S
C4260 C4259 1.287 . S
C4260 C4261 1.524 . S
C4260 H4279 0.913 . S
C4261 H4237 0.950 . S
C4261 C4260 1.524 . S
C4261 C4262 1.415 . S
C4262 H4238 0.950 . S
C4262 C4257 1.363 . S
C4262 C4261 1.415 . S
C4263 H4239 0.951 . S
C4263 C4264 1.366 . S
C4263 C4265 1.388 . S
C4264 C4263 1.366 . S
C4264 C4268 1.385 . S
C4265 H4240 0.951 . S
C4265 C4263 1.388 . S
C4265 C4266 1.366 . S
C4266 C4265 1.366 . S
C4266 C4267 1.414 . S
C4266 C4269 1.499 . S
C4267 H4241 0.950 . S
C4267 C4266 1.414 . S
C4267 C4268 1.374 . S
C4268 H4242 0.950 . S
C4268 C4264 1.385 . S
C4268 C4267 1.374 . S
C4269 C4266 1.499 . S
C4269 C4270 1.373 . S
C4269 C4271 1.389 . S
C4270 H4243 0.950 . S
C4270 C4256 1.377 . S
C4270 C4269 1.373 . S
C4271 C4255 1.377 . S
C4271 C4269 1.389 . S
C4271 C4272 1.524 . S
C4272 C4271 1.524 . S
C4272 C4273 1.397 . S
C4272 C4277 1.363 . S
C4273 H4244 0.950 . S
C4273 C4272 1.397 . S
C4273 C4274 1.334 . S
C4274 H4245 0.950 . S
C4274 C4273 1.334 . S
C4274 C4275 1.287 . S
C4275 C4274 1.287 . S
C4275 C4276 1.524 . S
C4275 H4278 0.999 . S
C4276 H4246 0.950 . S
C4276 C4275 1.524 . S
C4276 C4277 1.415 . S
C4277 H4247 0.950 . S
C4277 C4272 1.363 . S
C4277 C4276 1.415 . S
H4278 C4275 0.999 . S
H4279 C4260 0.913 . S
H4280 C4298 0.951 . S
H4281 C4300 0.951 . S
H4282 C4302 0.950 . S
H4283 C4303 0.950 . S
H4284 C4305 0.950 . S
H4285 C4308 0.950 . S
H4286 C4309 0.950 . S
H4287 C4311 0.950 . S
H4288 C4312 0.950 . S
H4289 C4313 0.951 . S
H4290 C4315 0.951 . S
H4291 C4317 0.950 . S
H4292 C4318 0.950 . S
H4293 C4320 0.950 . S
H4294 C4323 0.950 . S
H4295 C4324 0.950 . S
H4296 C4326 0.950 . S
H4297 C4327 0.950 . S
C4298 H4280 0.951 . S
C4298 C4299 1.366 . S
C4298 C4300 1.388 . S
C4299 C4298 1.366 . S
C4299 C4303 1.385 . S
C4300 H4281 0.951 . S
C4300 C4298 1.388 . S
C4300 C4301 1.366 . S
C4301 C4300 1.366 . S
C4301 C4302 1.414 . S
C4301 C4304 1.499 . S
C4302 H4282 0.950 . S
C4302 C4301 1.414 . S
C4302 C4303 1.374 . S
C4303 H4283 0.950 . S
C4303 C4299 1.385 . S
C4303 C4302 1.374 . S
C4304 C4301 1.499 . S
C4304 C4305 1.373 . S
C4304 C4306 1.389 . S
C4305 H4284 0.950 . S
C4305 C4304 1.373 . S
C4305 C4321 1.377 . S
C4306 C4304 1.389 . S
C4306 C4307 1.524 . S
C4306 C4320 1.377 . S
C4307 C4306 1.524 . S
C4307 C4308 1.397 . S
C4307 C4312 1.363 . S
C4308 H4285 0.950 . S
C4308 C4307 1.397 . S
C4308 C4309 1.334 . S
C4309 H4286 0.950 . S
C4309 C4308 1.334 . S
C4309 C4310 1.287 . S
C4310 C4309 1.287 . S
C4310 C4311 1.524 . S
C4310 H4329 0.913 . S
C4311 H4287 0.950 . S
C4311 C4310 1.524 . S
C4311 C4312 1.415 . S
C4312 H4288 0.950 . S
C4312 C4307 1.363 . S
C4312 C4311 1.415 . S
C4313 H4289 0.951 . S
C4313 C4314 1.366 . S
C4313 C4315 1.388 . S
C4314 C4313 1.366 . S
C4314 C4318 1.385 . S
C4315 H4290 0.951 . S
C4315 C4313 1.388 . S
C4315 C4316 1.366 . S
C4316 C4315 1.366 . S
C4316 C4317 1.414 . S
C4316 C4319 1.499 . S
C4317 H4291 0.950 . S
C4317 C4316 1.414 . S
C4317 C4318 1.374 . S
C4318 H4292 0.950 . S
C4318 C4314 1.385 . S
C4318 C4317 1.374 . S
C4319 C4316 1.499 . S
C4319 C4320 1.373 . S
C4319 C4321 1.389 . S
C4320 H4293 0.950 . S
C4320 C4306 1.377 . S
C4320 C4319 1.373 . S
C4321 C4305 1.377 . S
C4321 C4319 1.389 . S
C4321 C4322 1.524 . S
C4322 C4321 1.524 . S
C4322 C4323 1.397 . S
C4322 C4327 1.363 . S
C4323 H4294 0.950 . S
C4323 C4322 1.397 . S
C4323 C4324 1.334 . S
C4324 H4295 0.950 . S
C4324 C4323 1.334 . S
C4324 C4325 1.287 . S
C4325 C4324 1.287 . S
C4325 C4326 1.524 . S
C4325 H4328 0.999 . S
C4326 H4296 0.950 . S
C4326 C4325 1.524 . S
C4326 C4327 1.415 . S
C4327 H4297 0.950 . S
C4327 C4322 1.363 . S
C4327 C4326 1.415 . S
H4328 C4325 0.999 . S
H4329 C4310 0.913 . S
H4330 C4348 0.951 . S
H4331 C4350 0.951 . S
H4332 C4352 0.950 . S
H4333 C4353 0.950 . S
H4334 C4355 0.950 . S
H4335 C4358 0.950 . S
H4336 C4359 0.950 . S
H4337 C4361 0.950 . S
H4338 C4362 0.950 . S
H4339 C4363 0.951 . S
H4340 C4365 0.951 . S
H4341 C4367 0.950 . S
H4342 C4368 0.950 . S
H4343 C4370 0.950 . S
H4344 C4373 0.950 . S
H4345 C4374 0.950 . S
H4346 C4376 0.950 . S
H4347 C4377 0.950 . S
C4348 H4330 0.951 . S
C4348 C4349 1.366 . S
C4348 C4350 1.388 . S
C4349 C4348 1.366 . S
C4349 C4353 1.385 . S
C4350 H4331 0.951 . S
C4350 C4348 1.388 . S
C4350 C4351 1.366 . S
C4351 C4350 1.366 . S
C4351 C4352 1.414 . S
C4351 C4354 1.499 . S
C4352 H4332 0.950 . S
C4352 C4351 1.414 . S
C4352 C4353 1.374 . S
C4353 H4333 0.950 . S
C4353 C4349 1.385 . S
C4353 C4352 1.374 . S
C4354 C4351 1.499 . S
C4354 C4355 1.373 . S
C4354 C4356 1.389 . S
C4355 H4334 0.950 . S
C4355 C4354 1.373 . S
C4355 C4371 1.377 . S
C4356 C4354 1.389 . S
C4356 C4357 1.524 . S
C4356 C4370 1.377 . S
C4357 C4356 1.524 . S
C4357 C4358 1.397 . S
C4357 C4362 1.363 . S
C4358 H4335 0.950 . S
C4358 C4357 1.397 . S
C4358 C4359 1.334 . S
C4359 H4336 0.950 . S
C4359 C4358 1.334 . S
C4359 C4360 1.287 . S
C4360 C4359 1.287 . S
C4360 C4361 1.524 . S
C4360 H4379 0.913 . S
C4361 H4337 0.950 . S
C4361 C4360 1.524 . S
C4361 C4362 1.415 . S
C4362 H4338 0.950 . S
C4362 C4357 1.363 . S
C4362 C4361 1.415 . S
C4363 H4339 0.951 . S
C4363 C4364 1.366 . S
C4363 C4365 1.388 . S
C4364 C4363 1.366 . S
C4364 C4368 1.385 . S
C4365 H4340 0.951 . S
C4365 C4363 1.388 . S
C4365 C4366 1.366 . S
C4366 C4365 1.366 . S
C4366 C4367 1.414 . S
C4366 C4369 1.499 . S
C4367 H4341 0.950 . S
C4367 C4366 1.414 . S
C4367 C4368 1.374 . S
C4368 H4342 0.950 . S
C4368 C4364 1.385 . S
C4368 C4367 1.374 . S
C4369 C4366 1.499 . S
C4369 C4370 1.373 . S
C4369 C4371 1.389 . S
C4370 H4343 0.950 . S
C4370 C4356 1.377 . S
C4370 C4369 1.373 . S
C4371 C4355 1.377 . S
C4371 C4369 1.389 . S
C4371 C4372 1.524 . S
C4372 C4371 1.524 . S
C4372 C4373 1.397 . S
C4372 C4377 1.363 . S
C4373 H4344 0.950 . S
C4373 C4372 1.397 . S
C4373 C4374 1.334 . S
C4374 H4345 0.950 . S
C4374 C4373 1.334 . S
C4374 C4375 1.287 . S
C4375 C4374 1.287 . S
C4375 C4376 1.524 . S
C4375 H4378 0.999 . S
C4376 H4346 0.950 . S
C4376 C4375 1.524 . S
C4376 C4377 1.415 . S
C4377 H4347 0.950 . S
C4377 C4372 1.363 . S
C4377 C4376 1.415 . S
H4378 C4375 0.999 . S
H4379 C4360 0.913 . S
H4380 C4398 0.951 1_655 S
H4381 C4400 0.946 1_655 S
H4382 C4402 0.950 . S
H4383 C4403 0.950 . S
H4384 C4405 0.950 . S
H4385 C4408 0.950 . S
H4386 C4409 0.950 . S
H4387 C4411 0.950 . S
H4388 C4412 0.950 . S
H4389 C4413 0.951 . S
H4390 C4415 0.951 . S
H4391 C4417 0.950 . S
H4392 C4418 0.950 . S
H4393 C4420 0.950 . S
H4394 C4423 0.950 . S
H4395 C4424 0.950 . S
H4396 C4426 0.950 . S
H4397 C4427 0.950 . S
C4398 H4380 0.951 1_455 S
C4398 C4399 1.366 . S
C4398 C4400 1.388 . S
C4399 C4398 1.366 . S
C4399 C4403 1.385 . S
C4400 H4381 0.946 1_455 S
C4400 C4398 1.388 . S
C4400 C4401 1.366 . S
C4401 C4400 1.366 . S
C4401 C4402 1.414 . S
C4401 C4404 1.499 . S
C4402 H4382 0.950 . S
C4402 C4401 1.414 . S
C4402 C4403 1.374 . S
C4403 H4383 0.950 . S
C4403 C4399 1.385 . S
C4403 C4402 1.374 . S
C4404 C4401 1.499 . S
C4404 C4405 1.373 . S
C4404 C4406 1.389 1_455 S
C4405 H4384 0.950 . S
C4405 C4404 1.373 . S
C4405 C4421 1.377 . S
C4406 C4404 1.389 1_655 S
C4406 C4407 1.524 . S
C4406 C4420 1.377 . S
C4407 C4406 1.524 . S
C4407 C4408 1.397 . S
C4407 C4412 1.363 . S
C4408 H4385 0.950 . S
C4408 C4407 1.397 . S
C4408 C4409 1.334 . S
C4409 H4386 0.950 . S
C4409 C4408 1.334 . S
C4409 C4410 1.287 . S
C4410 C4409 1.287 . S
C4410 C4411 1.524 . S
C4410 H4429 0.913 . S
C4411 H4387 0.950 . S
C4411 C4410 1.524 . S
C4411 C4412 1.415 . S
C4412 H4388 0.950 . S
C4412 C4407 1.363 . S
C4412 C4411 1.415 . S
C4413 H4389 0.951 . S
C4413 C4414 1.366 . S
C4413 C4415 1.388 . S
C4414 C4413 1.366 . S
C4414 C4418 1.385 . S
C4415 H4390 0.951 . S
C4415 C4413 1.388 . S
C4415 C4416 1.366 . S
C4416 C4415 1.366 . S
C4416 C4417 1.414 . S
C4416 C4419 1.499 . S
C4417 H4391 0.950 . S
C4417 C4416 1.414 . S
C4417 C4418 1.374 . S
C4418 H4392 0.950 . S
C4418 C4414 1.385 . S
C4418 C4417 1.374 . S
C4419 C4416 1.499 . S
C4419 C4420 1.373 1_455 S
C4419 C4421 1.389 . S
C4420 H4393 0.950 . S
C4420 C4406 1.377 . S
C4420 C4419 1.373 1_655 S
C4421 C4405 1.377 . S
C4421 C4419 1.389 . S
C4421 C4422 1.524 . S
C4422 C4421 1.524 . S
C4422 C4423 1.397 . S
C4422 C4427 1.363 . S
C4423 H4394 0.950 . S
C4423 C4422 1.397 . S
C4423 C4424 1.334 . S
C4424 H4395 0.950 . S
C4424 C4423 1.334 . S
C4424 C4425 1.287 . S
C4425 C4424 1.287 . S
C4425 C4426 1.524 . S
C4425 H4428 0.999 . S
C4426 H4396 0.950 . S
C4426 C4425 1.524 . S
C4426 C4427 1.415 . S
C4427 H4397 0.950 . S
C4427 C4422 1.363 . S
C4427 C4426 1.415 . S
H4428 C4425 0.999 . S
H4429 C4410 0.913 . S
H4430 C4448 0.951 . S
H4431 C4450 0.951 . S
H4432 C4452 0.950 . S
H4433 C4453 0.950 . S
H4434 C4455 0.950 . S
H4435 C4458 0.950 . S
H4436 C4459 0.950 . S
H4437 C4461 0.950 . S
H4438 C4462 0.950 . S
H4439 C4463 0.951 . S
H4440 C4465 0.951 . S
H4441 C4467 0.950 . S
H4442 C4468 0.950 . S
H4443 C4470 0.950 . S
H4444 C4473 0.950 . S
H4445 C4474 0.950 . S
H4446 C4476 0.950 . S
H4447 C4477 0.950 . S
C4448 H4430 0.951 . S
C4448 C4449 1.366 . S
C4448 C4450 1.388 . S
C4449 C4448 1.366 . S
C4449 C4453 1.385 . S
C4450 H4431 0.951 . S
C4450 C4448 1.388 . S
C4450 C4451 1.366 . S
C4451 C4450 1.366 . S
C4451 C4452 1.414 . S
C4451 C4454 1.499 . S
C4452 H4432 0.950 . S
C4452 C4451 1.414 . S
C4452 C4453 1.374 . S
C4453 H4433 0.950 . S
C4453 C4449 1.385 . S
C4453 C4452 1.374 . S
C4454 C4451 1.499 . S
C4454 C4455 1.373 . S
C4454 C4456 1.389 . S
C4455 H4434 0.950 . S
C4455 C4454 1.373 . S
C4455 C4471 1.377 . S
C4456 C4454 1.389 . S
C4456 C4457 1.524 . S
C4456 C4470 1.377 . S
C4457 C4456 1.524 . S
C4457 C4458 1.397 . S
C4457 C4462 1.363 . S
C4458 H4435 0.950 . S
C4458 C4457 1.397 . S
C4458 C4459 1.334 . S
C4459 H4436 0.950 . S
C4459 C4458 1.334 . S
C4459 C4460 1.287 . S
C4460 C4459 1.287 . S
C4460 C4461 1.524 . S
C4460 H4479 0.913 . S
C4461 H4437 0.950 . S
C4461 C4460 1.524 . S
C4461 C4462 1.415 . S
C4462 H4438 0.950 . S
C4462 C4457 1.363 . S
C4462 C4461 1.415 . S
C4463 H4439 0.951 . S
C4463 C4464 1.366 . S
C4463 C4465 1.388 . S
C4464 C4463 1.366 . S
C4464 C4468 1.385 . S
C4465 H4440 0.951 . S
C4465 C4463 1.388 . S
C4465 C4466 1.366 . S
C4466 C4465 1.366 . S
C4466 C4467 1.414 . S
C4466 C4469 1.499 . S
C4467 H4441 0.950 . S
C4467 C4466 1.414 . S
C4467 C4468 1.374 . S
C4468 H4442 0.950 . S
C4468 C4464 1.385 . S
C4468 C4467 1.374 . S
C4469 C4466 1.499 . S
C4469 C4470 1.373 . S
C4469 C4471 1.389 . S
C4470 H4443 0.950 . S
C4470 C4456 1.377 . S
C4470 C4469 1.373 . S
C4471 C4455 1.377 . S
C4471 C4469 1.389 . S
C4471 C4472 1.524 . S
C4472 C4471 1.524 . S
C4472 C4473 1.397 . S
C4472 C4477 1.363 . S
C4473 H4444 0.950 . S
C4473 C4472 1.397 . S
C4473 C4474 1.334 . S
C4474 H4445 0.950 . S
C4474 C4473 1.334 . S
C4474 C4475 1.287 . S
C4475 C4474 1.287 . S
C4475 C4476 1.524 . S
C4475 H4478 0.999 . S
C4476 H4446 0.950 . S
C4476 C4475 1.524 . S
C4476 C4477 1.415 . S
C4477 H4447 0.950 . S
C4477 C4472 1.363 . S
C4477 C4476 1.415 . S
H4478 C4475 0.999 . S
H4479 C4460 0.913 . S
H4480 C4498 0.951 . S
H4481 C4500 0.951 . S
H4482 C4502 0.950 . S
H4483 C4503 0.950 . S
H4484 C4505 0.950 . S
H4485 C4508 0.950 . S
H4486 C4509 0.950 . S
H4487 C4511 0.950 . S
H4488 C4512 0.950 . S
H4489 C4513 0.951 . S
H4490 C4515 0.951 . S
H4491 C4517 0.950 . S
H4492 C4518 0.950 . S
H4493 C4520 0.950 . S
H4494 C4523 0.950 . S
H4495 C4524 0.950 . S
H4496 C4526 0.950 . S
H4497 C4527 0.950 . S
C4498 H4480 0.951 . S
C4498 C4499 1.366 . S
C4498 C4500 1.388 . S
C4499 C4498 1.366 . S
C4499 C4503 1.385 . S
C4500 H4481 0.951 . S
C4500 C4498 1.388 . S
C4500 C4501 1.366 . S
C4501 C4500 1.366 . S
C4501 C4502 1.414 . S
C4501 C4504 1.499 . S
C4502 H4482 0.950 . S
C4502 C4501 1.414 . S
C4502 C4503 1.374 . S
C4503 H4483 0.950 . S
C4503 C4499 1.385 . S
C4503 C4502 1.374 . S
C4504 C4501 1.499 . S
C4504 C4505 1.373 . S
C4504 C4506 1.389 . S
C4505 H4484 0.950 . S
C4505 C4504 1.373 . S
C4505 C4521 1.377 . S
C4506 C4504 1.389 . S
C4506 C4507 1.524 . S
C4506 C4520 1.377 . S
C4507 C4506 1.524 . S
C4507 C4508 1.397 . S
C4507 C4512 1.363 . S
C4508 H4485 0.950 . S
C4508 C4507 1.397 . S
C4508 C4509 1.334 . S
C4509 H4486 0.950 . S
C4509 C4508 1.334 . S
C4509 C4510 1.287 . S
C4510 C4509 1.287 . S
C4510 C4511 1.524 . S
C4510 H4529 0.913 . S
C4511 H4487 0.950 . S
C4511 C4510 1.524 . S
C4511 C4512 1.415 . S
C4512 H4488 0.950 . S
C4512 C4507 1.363 . S
C4512 C4511 1.415 . S
C4513 H4489 0.951 . S
C4513 C4514 1.366 . S
C4513 C4515 1.388 . S
C4514 C4513 1.366 . S
C4514 C4518 1.385 . S
C4515 H4490 0.951 . S
C4515 C4513 1.388 . S
C4515 C4516 1.366 . S
C4516 C4515 1.366 . S
C4516 C4517 1.414 . S
C4516 C4519 1.499 . S
C4517 H4491 0.950 . S
C4517 C4516 1.414 . S
C4517 C4518 1.374 . S
C4518 H4492 0.950 . S
C4518 C4514 1.385 . S
C4518 C4517 1.374 . S
C4519 C4516 1.499 . S
C4519 C4520 1.373 . S
C4519 C4521 1.389 . S
C4520 H4493 0.950 . S
C4520 C4506 1.377 . S
C4520 C4519 1.373 . S
C4521 C4505 1.377 . S
C4521 C4519 1.389 . S
C4521 C4522 1.524 . S
C4522 C4521 1.524 . S
C4522 C4523 1.397 . S
C4522 C4527 1.363 . S
C4523 H4494 0.950 . S
C4523 C4522 1.397 . S
C4523 C4524 1.334 . S
C4524 H4495 0.950 . S
C4524 C4523 1.334 . S
C4524 C4525 1.287 . S
C4525 C4524 1.287 . S
C4525 C4526 1.524 . S
C4525 H4528 0.999 . S
C4526 H4496 0.950 . S
C4526 C4525 1.524 . S
C4526 C4527 1.415 . S
C4527 H4497 0.950 . S
C4527 C4522 1.363 . S
C4527 C4526 1.415 . S
H4528 C4525 0.999 . S
H4529 C4510 0.913 . S
H4530 C4548 0.951 . S
H4531 C4550 0.951 . S
H4532 C4552 0.950 . S
H4533 C4553 0.950 . S
H4534 C4555 0.950 . S
H4535 C4558 0.950 . S
H4536 C4559 0.950 . S
H4537 C4561 0.950 . S
H4538 C4562 0.950 . S
H4539 C4563 0.951 . S
H4540 C4565 0.951 . S
H4541 C4567 0.950 . S
H4542 C4568 0.950 . S
H4543 C4570 0.950 . S
H4544 C4573 0.950 . S
H4545 C4574 0.950 . S
H4546 C4576 0.950 . S
H4547 C4577 0.950 . S
C4548 H4530 0.951 . S
C4548 C4549 1.366 . S
C4548 C4550 1.388 . S
C4549 C4548 1.366 . S
C4549 C4553 1.385 . S
C4550 H4531 0.951 . S
C4550 C4548 1.388 . S
C4550 C4551 1.366 . S
C4551 C4550 1.366 . S
C4551 C4552 1.414 . S
C4551 C4554 1.499 . S
C4552 H4532 0.950 . S
C4552 C4551 1.414 . S
C4552 C4553 1.374 . S
C4553 H4533 0.950 . S
C4553 C4549 1.385 . S
C4553 C4552 1.374 . S
C4554 C4551 1.499 . S
C4554 C4555 1.373 . S
C4554 C4556 1.389 . S
C4555 H4534 0.950 . S
C4555 C4554 1.373 . S
C4555 C4571 1.377 . S
C4556 C4554 1.389 . S
C4556 C4557 1.524 . S
C4556 C4570 1.377 . S
C4557 C4556 1.524 . S
C4557 C4558 1.397 . S
C4557 C4562 1.363 . S
C4558 H4535 0.950 . S
C4558 C4557 1.397 . S
C4558 C4559 1.334 . S
C4559 H4536 0.950 . S
C4559 C4558 1.334 . S
C4559 C4560 1.287 . S
C4560 C4559 1.287 . S
C4560 C4561 1.524 . S
C4560 H4579 0.913 . S
C4561 H4537 0.950 . S
C4561 C4560 1.524 . S
C4561 C4562 1.415 . S
C4562 H4538 0.950 . S
C4562 C4557 1.363 . S
C4562 C4561 1.415 . S
C4563 H4539 0.951 . S
C4563 C4564 1.366 . S
C4563 C4565 1.388 . S
C4564 C4563 1.366 . S
C4564 C4568 1.385 . S
C4565 H4540 0.951 . S
C4565 C4563 1.388 . S
C4565 C4566 1.366 . S
C4566 C4565 1.366 . S
C4566 C4567 1.414 . S
C4566 C4569 1.499 . S
C4567 H4541 0.950 . S
C4567 C4566 1.414 . S
C4567 C4568 1.374 . S
C4568 H4542 0.950 . S
C4568 C4564 1.385 . S
C4568 C4567 1.374 . S
C4569 C4566 1.499 . S
C4569 C4570 1.373 . S
C4569 C4571 1.389 . S
C4570 H4543 0.950 . S
C4570 C4556 1.377 . S
C4570 C4569 1.373 . S
C4571 C4555 1.377 . S
C4571 C4569 1.389 . S
C4571 C4572 1.524 . S
C4572 C4571 1.524 . S
C4572 C4573 1.397 . S
C4572 C4577 1.363 . S
C4573 H4544 0.950 . S
C4573 C4572 1.397 . S
C4573 C4574 1.334 . S
C4574 H4545 0.950 . S
C4574 C4573 1.334 . S
C4574 C4575 1.287 . S
C4575 C4574 1.287 . S
C4575 C4576 1.524 . S
C4575 H4578 0.999 . S
C4576 H4546 0.950 . S
C4576 C4575 1.524 . S
C4576 C4577 1.415 . S
C4577 H4547 0.950 . S
C4577 C4572 1.363 . S
C4577 C4576 1.415 . S
H4578 C4575 0.999 . S
H4579 C4560 0.913 . S
H4580 C4598 0.951 . S
H4581 C4600 0.951 . S
H4582 C4602 0.950 . S
H4583 C4603 0.950 . S
H4584 C4605 0.950 . S
H4585 C4608 0.950 . S
H4586 C4609 0.950 . S
H4587 C4611 0.950 . S
H4588 C4612 0.950 . S
H4589 C4613 0.951 . S
H4590 C4615 0.951 . S
H4591 C4617 0.950 . S
H4592 C4618 0.950 . S
H4593 C4620 0.950 . S
H4594 C4623 0.950 . S
H4595 C4624 0.950 . S
H4596 C4626 0.950 . S
H4597 C4627 0.950 . S
C4598 H4580 0.951 . S
C4598 C4599 1.366 . S
C4598 C4600 1.388 . S
C4599 C4598 1.366 . S
C4599 C4603 1.385 . S
C4600 H4581 0.951 . S
C4600 C4598 1.388 . S
C4600 C4601 1.366 . S
C4601 C4600 1.366 . S
C4601 C4602 1.414 . S
C4601 C4604 1.499 . S
C4602 H4582 0.950 . S
C4602 C4601 1.414 . S
C4602 C4603 1.374 . S
C4603 H4583 0.950 . S
C4603 C4599 1.385 . S
C4603 C4602 1.374 . S
C4604 C4601 1.499 . S
C4604 C4605 1.373 . S
C4604 C4606 1.389 . S
C4605 H4584 0.950 . S
C4605 C4604 1.373 . S
C4605 C4621 1.377 . S
C4606 C4604 1.389 . S
C4606 C4607 1.524 . S
C4606 C4620 1.377 . S
C4607 C4606 1.524 . S
C4607 C4608 1.397 . S
C4607 C4612 1.363 . S
C4608 H4585 0.950 . S
C4608 C4607 1.397 . S
C4608 C4609 1.334 . S
C4609 H4586 0.950 . S
C4609 C4608 1.334 . S
C4609 C4610 1.287 . S
C4610 C4609 1.287 . S
C4610 C4611 1.524 . S
C4610 H4629 0.913 . S
C4611 H4587 0.950 . S
C4611 C4610 1.524 . S
C4611 C4612 1.415 . S
C4612 H4588 0.950 . S
C4612 C4607 1.363 . S
C4612 C4611 1.415 . S
C4613 H4589 0.951 . S
C4613 C4614 1.366 . S
C4613 C4615 1.388 . S
C4614 C4613 1.366 . S
C4614 C4618 1.385 . S
C4615 H4590 0.951 . S
C4615 C4613 1.388 . S
C4615 C4616 1.366 . S
C4616 C4615 1.366 . S
C4616 C4617 1.414 . S
C4616 C4619 1.499 . S
C4617 H4591 0.950 . S
C4617 C4616 1.414 . S
C4617 C4618 1.374 . S
C4618 H4592 0.950 . S
C4618 C4614 1.385 . S
C4618 C4617 1.374 . S
C4619 C4616 1.499 . S
C4619 C4620 1.373 . S
C4619 C4621 1.389 . S
C4620 H4593 0.950 . S
C4620 C4606 1.377 . S
C4620 C4619 1.373 . S
C4621 C4605 1.377 . S
C4621 C4619 1.389 . S
C4621 C4622 1.524 . S
C4622 C4621 1.524 . S
C4622 C4623 1.397 . S
C4622 C4627 1.363 . S
C4623 H4594 0.950 . S
C4623 C4622 1.397 . S
C4623 C4624 1.334 . S
C4624 H4595 0.950 . S
C4624 C4623 1.334 . S
C4624 C4625 1.287 . S
C4625 C4624 1.287 . S
C4625 C4626 1.524 . S
C4625 H4628 0.999 . S
C4626 H4596 0.950 . S
C4626 C4625 1.524 . S
C4626 C4627 1.415 . S
C4627 H4597 0.950 . S
C4627 C4622 1.363 . S
C4627 C4626 1.415 . S
H4628 C4625 0.999 . S
H4629 C4610 0.913 . S
H4630 C4648 0.951 . S
H4631 C4650 0.951 . S
H4632 C4652 0.950 . S
H4633 C4653 0.950 . S
H4634 C4655 0.950 . S
H4635 C4658 0.950 . S
H4636 C4659 0.950 . S
H4637 C4661 0.950 . S
H4638 C4662 0.950 . S
H4639 C4663 0.951 . S
H4640 C4665 0.951 . S
H4641 C4667 0.950 . S
H4642 C4668 0.950 . S
H4643 C4670 0.950 . S
H4644 C4673 0.950 . S
H4645 C4674 0.950 . S
H4646 C4676 0.950 . S
H4647 C4677 0.950 . S
C4648 H4630 0.951 . S
C4648 C4649 1.366 . S
C4648 C4650 1.388 . S
C4649 C4648 1.366 . S
C4649 C4653 1.385 . S
C4650 H4631 0.951 . S
C4650 C4648 1.388 . S
C4650 C4651 1.366 . S
C4651 C4650 1.366 . S
C4651 C4652 1.414 . S
C4651 C4654 1.499 . S
C4652 H4632 0.950 . S
C4652 C4651 1.414 . S
C4652 C4653 1.374 . S
C4653 H4633 0.950 . S
C4653 C4649 1.385 . S
C4653 C4652 1.374 . S
C4654 C4651 1.499 . S
C4654 C4655 1.373 . S
C4654 C4656 1.389 . S
C4655 H4634 0.950 . S
C4655 C4654 1.373 . S
C4655 C4671 1.377 . S
C4656 C4654 1.389 . S
C4656 C4657 1.524 . S
C4656 C4670 1.377 . S
C4657 C4656 1.524 . S
C4657 C4658 1.397 . S
C4657 C4662 1.363 . S
C4658 H4635 0.950 . S
C4658 C4657 1.397 . S
C4658 C4659 1.334 . S
C4659 H4636 0.950 . S
C4659 C4658 1.334 . S
C4659 C4660 1.287 . S
C4660 C4659 1.287 . S
C4660 C4661 1.524 . S
C4660 H4679 0.913 . S
C4661 H4637 0.950 . S
C4661 C4660 1.524 . S
C4661 C4662 1.415 . S
C4662 H4638 0.950 . S
C4662 C4657 1.363 . S
C4662 C4661 1.415 . S
C4663 H4639 0.951 . S
C4663 C4664 1.366 . S
C4663 C4665 1.388 . S
C4664 C4663 1.366 . S
C4664 C4668 1.385 . S
C4665 H4640 0.951 . S
C4665 C4663 1.388 . S
C4665 C4666 1.366 . S
C4666 C4665 1.366 . S
C4666 C4667 1.414 . S
C4666 C4669 1.499 . S
C4667 H4641 0.950 . S
C4667 C4666 1.414 . S
C4667 C4668 1.374 . S
C4668 H4642 0.950 . S
C4668 C4664 1.385 . S
C4668 C4667 1.374 . S
C4669 C4666 1.499 . S
C4669 C4670 1.373 . S
C4669 C4671 1.389 . S
C4670 H4643 0.950 . S
C4670 C4656 1.377 . S
C4670 C4669 1.373 . S
C4671 C4655 1.377 . S
C4671 C4669 1.389 . S
C4671 C4672 1.524 . S
C4672 C4671 1.524 . S
C4672 C4673 1.397 . S
C4672 C4677 1.363 . S
C4673 H4644 0.950 . S
C4673 C4672 1.397 . S
C4673 C4674 1.334 . S
C4674 H4645 0.950 . S
C4674 C4673 1.334 . S
C4674 C4675 1.287 . S
C4675 C4674 1.287 . S
C4675 C4676 1.524 . S
C4675 H4678 0.999 . S
C4676 H4646 0.950 . S
C4676 C4675 1.524 . S
C4676 C4677 1.415 . S
C4677 H4647 0.950 . S
C4677 C4672 1.363 . S
C4677 C4676 1.415 . S
H4678 C4675 0.999 . S
H4679 C4660 0.913 . S
H4680 C4698 0.951 . S
H4681 C4700 0.951 . S
H4682 C4702 0.950 . S
H4683 C4703 0.950 . S
H4684 C4705 0.950 . S
H4685 C4708 0.950 . S
H4686 C4709 0.950 . S
H4687 C4711 0.950 . S
H4688 C4712 0.950 . S
H4689 C4713 0.951 . S
H4690 C4715 0.951 . S
H4691 C4717 0.950 . S
H4692 C4718 0.950 . S
H4693 C4720 0.950 . S
H4694 C4723 0.950 . S
H4695 C4724 0.950 . S
H4696 C4726 0.950 . S
H4697 C4727 0.950 . S
C4698 H4680 0.951 . S
C4698 C4699 1.366 . S
C4698 C4700 1.388 . S
C4699 C4698 1.366 . S
C4699 C4703 1.385 . S
C4700 H4681 0.951 . S
C4700 C4698 1.388 . S
C4700 C4701 1.366 . S
C4701 C4700 1.366 . S
C4701 C4702 1.414 . S
C4701 C4704 1.499 . S
C4702 H4682 0.950 . S
C4702 C4701 1.414 . S
C4702 C4703 1.374 . S
C4703 H4683 0.950 . S
C4703 C4699 1.385 . S
C4703 C4702 1.374 . S
C4704 C4701 1.499 . S
C4704 C4705 1.373 . S
C4704 C4706 1.389 . S
C4705 H4684 0.950 . S
C4705 C4704 1.373 . S
C4705 C4721 1.377 . S
C4706 C4704 1.389 . S
C4706 C4707 1.524 . S
C4706 C4720 1.377 . S
C4707 C4706 1.524 . S
C4707 C4708 1.397 . S
C4707 C4712 1.363 . S
C4708 H4685 0.950 . S
C4708 C4707 1.397 . S
C4708 C4709 1.334 . S
C4709 H4686 0.950 . S
C4709 C4708 1.334 . S
C4709 C4710 1.287 . S
C4710 C4709 1.287 . S
C4710 C4711 1.524 . S
C4710 H4729 0.913 . S
C4711 H4687 0.950 . S
C4711 C4710 1.524 . S
C4711 C4712 1.415 . S
C4712 H4688 0.950 . S
C4712 C4707 1.363 . S
C4712 C4711 1.415 . S
C4713 H4689 0.951 . S
C4713 C4714 1.366 . S
C4713 C4715 1.388 . S
C4714 C4713 1.366 . S
C4714 C4718 1.385 . S
C4715 H4690 0.951 . S
C4715 C4713 1.388 . S
C4715 C4716 1.366 . S
C4716 C4715 1.366 . S
C4716 C4717 1.414 . S
C4716 C4719 1.499 . S
C4717 H4691 0.950 . S
C4717 C4716 1.414 . S
C4717 C4718 1.374 . S
C4718 H4692 0.950 . S
C4718 C4714 1.385 . S
C4718 C4717 1.374 . S
C4719 C4716 1.499 . S
C4719 C4720 1.373 . S
C4719 C4721 1.389 . S
C4720 H4693 0.950 . S
C4720 C4706 1.377 . S
C4720 C4719 1.373 . S
C4721 C4705 1.377 . S
C4721 C4719 1.389 . S
C4721 C4722 1.524 . S
C4722 C4721 1.524 . S
C4722 C4723 1.397 . S
C4722 C4727 1.363 . S
C4723 H4694 0.950 . S
C4723 C4722 1.397 . S
C4723 C4724 1.334 . S
C4724 H4695 0.950 . S
C4724 C4723 1.334 . S
C4724 C4725 1.287 . S
C4725 C4724 1.287 . S
C4725 C4726 1.524 . S
C4725 H4728 0.999 . S
C4726 H4696 0.950 . S
C4726 C4725 1.524 . S
C4726 C4727 1.415 . S
C4727 H4697 0.950 . S
C4727 C4722 1.363 . S
C4727 C4726 1.415 . S
H4728 C4725 0.999 . S
H4729 C4710 0.913 . S
H4730 C4748 0.951 . S
H4731 C4750 0.951 . S
H4732 C4752 0.950 . S
H4733 C4753 0.950 . S
H4734 C4755 0.950 . S
H4735 C4758 0.950 . S
H4736 C4759 0.950 . S
H4737 C4761 0.950 . S
H4738 C4762 0.950 . S
H4739 C4763 0.951 . S
H4740 C4765 0.951 . S
H4741 C4767 0.950 . S
H4742 C4768 0.950 . S
H4743 C4770 0.950 . S
H4744 C4773 0.950 . S
H4745 C4774 0.950 . S
H4746 C4776 0.950 . S
H4747 C4777 0.950 . S
C4748 H4730 0.951 . S
C4748 C4749 1.366 . S
C4748 C4750 1.388 . S
C4749 C4748 1.366 . S
C4749 C4753 1.385 . S
C4750 H4731 0.951 . S
C4750 C4748 1.388 . S
C4750 C4751 1.366 . S
C4751 C4750 1.366 . S
C4751 C4752 1.414 . S
C4751 C4754 1.499 . S
C4752 H4732 0.950 . S
C4752 C4751 1.414 . S
C4752 C4753 1.374 . S
C4753 H4733 0.950 . S
C4753 C4749 1.385 . S
C4753 C4752 1.374 . S
C4754 C4751 1.499 . S
C4754 C4755 1.373 . S
C4754 C4756 1.389 . S
C4755 H4734 0.950 . S
C4755 C4754 1.373 . S
C4755 C4771 1.377 . S
C4756 C4754 1.389 . S
C4756 C4757 1.524 . S
C4756 C4770 1.377 . S
C4757 C4756 1.524 . S
C4757 C4758 1.397 . S
C4757 C4762 1.363 . S
C4758 H4735 0.950 . S
C4758 C4757 1.397 . S
C4758 C4759 1.334 . S
C4759 H4736 0.950 . S
C4759 C4758 1.334 . S
C4759 C4760 1.287 . S
C4760 C4759 1.287 . S
C4760 C4761 1.524 . S
C4760 H4779 0.913 . S
C4761 H4737 0.950 . S
C4761 C4760 1.524 . S
C4761 C4762 1.415 . S
C4762 H4738 0.950 . S
C4762 C4757 1.363 . S
C4762 C4761 1.415 . S
C4763 H4739 0.951 . S
C4763 C4764 1.366 . S
C4763 C4765 1.388 . S
C4764 C4763 1.366 . S
C4764 C4768 1.385 . S
C4765 H4740 0.951 . S
C4765 C4763 1.388 . S
C4765 C4766 1.366 . S
C4766 C4765 1.366 . S
C4766 C4767 1.414 . S
C4766 C4769 1.499 . S
C4767 H4741 0.950 . S
C4767 C4766 1.414 . S
C4767 C4768 1.374 . S
C4768 H4742 0.950 . S
C4768 C4764 1.385 . S
C4768 C4767 1.374 . S
C4769 C4766 1.499 . S
C4769 C4770 1.373 . S
C4769 C4771 1.389 . S
C4770 H4743 0.950 . S
C4770 C4756 1.377 . S
C4770 C4769 1.373 . S
C4771 C4755 1.377 . S
C4771 C4769 1.389 . S
C4771 C4772 1.524 . S
C4772 C4771 1.524 . S
C4772 C4773 1.397 . S
C4772 C4777 1.363 . S
C4773 H4744 0.950 . S
C4773 C4772 1.397 . S
C4773 C4774 1.334 . S
C4774 H4745 0.950 . S
C4774 C4773 1.334 . S
C4774 C4775 1.287 . S
C4775 C4774 1.287 . S
C4775 C4776 1.524 . S
C4775 H4778 0.999 . S
C4776 H4746 0.950 . S
C4776 C4775 1.524 . S
C4776 C4777 1.415 . S
C4777 H4747 0.950 . S
C4777 C4772 1.363 . S
C4777 C4776 1.415 . S
H4778 C4775 0.999 . S
H4779 C4760 0.913 . S
H4780 C4798 0.951 . S
H4781 C4800 0.951 . S
H4782 C4802 0.950 . S
H4783 C4803 0.950 . S
H4784 C4805 0.950 . S
H4785 C4808 0.950 . S
H4786 C4809 0.950 . S
H4787 C4811 0.950 . S
H4788 C4812 0.950 . S
H4789 C4813 0.951 . S
H4790 C4815 0.951 . S
H4791 C4817 0.950 . S
H4792 C4818 0.950 . S
H4793 C4820 0.950 . S
H4794 C4823 0.950 . S
H4795 C4824 0.950 . S
H4796 C4826 0.950 . S
H4797 C4827 0.950 . S
C4798 H4780 0.951 . S
C4798 C4799 1.366 . S
C4798 C4800 1.388 . S
C4799 C4798 1.366 . S
C4799 C4803 1.385 . S
C4800 H4781 0.951 . S
C4800 C4798 1.388 . S
C4800 C4801 1.366 . S
C4801 C4800 1.366 . S
C4801 C4802 1.414 . S
C4801 C4804 1.499 . S
C4802 H4782 0.950 . S
C4802 C4801 1.414 . S
C4802 C4803 1.374 . S
C4803 H4783 0.950 . S
C4803 C4799 1.385 . S
C4803 C4802 1.374 . S
C4804 C4801 1.499 . S
C4804 C4805 1.373 . S
C4804 C4806 1.389 . S
C4805 H4784 0.950 . S
C4805 C4804 1.373 . S
C4805 C4821 1.377 . S
C4806 C4804 1.389 . S
C4806 C4807 1.524 . S
C4806 C4820 1.377 . S
C4807 C4806 1.524 . S
C4807 C4808 1.397 . S
C4807 C4812 1.363 . S
C4808 H4785 0.950 . S
C4808 C4807 1.397 . S
C4808 C4809 1.334 . S
C4809 H4786 0.950 . S
C4809 C4808 1.334 . S
C4809 C4810 1.287 . S
C4810 C4809 1.287 . S
C4810 C4811 1.524 . S
C4810 H4829 0.913 . S
C4811 H4787 0.950 . S
C4811 C4810 1.524 . S
C4811 C4812 1.415 . S
C4812 H4788 0.950 . S
C4812 C4807 1.363 . S
C4812 C4811 1.415 . S
C4813 H4789 0.951 . S
C4813 C4814 1.366 . S
C4813 C4815 1.388 . S
C4814 C4813 1.366 . S
C4814 C4818 1.385 . S
C4815 H4790 0.951 . S
C4815 C4813 1.388 . S
C4815 C4816 1.366 . S
C4816 C4815 1.366 . S
C4816 C4817 1.414 . S
C4816 C4819 1.499 . S
C4817 H4791 0.950 . S
C4817 C4816 1.414 . S
C4817 C4818 1.374 . S
C4818 H4792 0.950 . S
C4818 C4814 1.385 . S
C4818 C4817 1.374 . S
C4819 C4816 1.499 . S
C4819 C4820 1.373 . S
C4819 C4821 1.389 . S
C4820 H4793 0.950 . S
C4820 C4806 1.377 . S
C4820 C4819 1.373 . S
C4821 C4805 1.377 . S
C4821 C4819 1.389 . S
C4821 C4822 1.524 . S
C4822 C4821 1.524 . S
C4822 C4823 1.397 . S
C4822 C4827 1.363 . S
C4823 H4794 0.950 . S
C4823 C4822 1.397 . S
C4823 C4824 1.334 . S
C4824 H4795 0.950 . S
C4824 C4823 1.334 . S
C4824 C4825 1.287 . S
C4825 C4824 1.287 . S
C4825 C4826 1.524 . S
C4825 H4828 0.999 . S
C4826 H4796 0.950 . S
C4826 C4825 1.524 . S
C4826 C4827 1.415 . S
C4827 H4797 0.950 . S
C4827 C4822 1.363 . S
C4827 C4826 1.415 . S
H4828 C4825 0.999 . S
H4829 C4810 0.913 . S
H4830 C4848 0.951 . S
H4831 C4850 0.951 . S
H4832 C4852 0.950 . S
H4833 C4853 0.950 . S
H4834 C4855 0.950 . S
H4835 C4858 0.950 . S
H4836 C4859 0.950 . S
H4837 C4861 0.950 . S
H4838 C4862 0.950 . S
H4839 C4863 0.951 . S
H4840 C4865 0.951 . S
H4841 C4867 0.950 . S
H4842 C4868 0.950 . S
H4843 C4870 0.950 . S
H4844 C4873 0.950 . S
H4845 C4874 0.950 . S
H4846 C4876 0.950 . S
H4847 C4877 0.950 . S
C4848 H4830 0.951 . S
C4848 C4849 1.366 . S
C4848 C4850 1.388 . S
C4849 C4848 1.366 . S
C4849 C4853 1.385 . S
C4850 H4831 0.951 . S
C4850 C4848 1.388 . S
C4850 C4851 1.366 . S
C4851 C4850 1.366 . S
C4851 C4852 1.414 . S
C4851 C4854 1.499 . S
C4852 H4832 0.950 . S
C4852 C4851 1.414 . S
C4852 C4853 1.374 . S
C4853 H4833 0.950 . S
C4853 C4849 1.385 . S
C4853 C4852 1.374 . S
C4854 C4851 1.499 . S
C4854 C4855 1.373 . S
C4854 C4856 1.389 . S
C4855 H4834 0.950 . S
C4855 C4854 1.373 . S
C4855 C4871 1.377 . S
C4856 C4854 1.389 . S
C4856 C4857 1.524 . S
C4856 C4870 1.377 . S
C4857 C4856 1.524 . S
C4857 C4858 1.397 . S
C4857 C4862 1.363 . S
C4858 H4835 0.950 . S
C4858 C4857 1.397 . S
C4858 C4859 1.334 . S
C4859 H4836 0.950 . S
C4859 C4858 1.334 . S
C4859 C4860 1.287 . S
C4860 C4859 1.287 . S
C4860 C4861 1.524 . S
C4860 H4879 0.913 . S
C4861 H4837 0.950 . S
C4861 C4860 1.524 . S
C4861 C4862 1.415 . S
C4862 H4838 0.950 . S
C4862 C4857 1.363 . S
C4862 C4861 1.415 . S
C4863 H4839 0.951 . S
C4863 C4864 1.366 . S
C4863 C4865 1.388 . S
C4864 C4863 1.366 . S
C4864 C4868 1.385 . S
C4865 H4840 0.951 . S
C4865 C4863 1.388 . S
C4865 C4866 1.366 . S
C4866 C4865 1.366 . S
C4866 C4867 1.414 . S
C4866 C4869 1.499 . S
C4867 H4841 0.950 . S
C4867 C4866 1.414 . S
C4867 C4868 1.374 . S
C4868 H4842 0.950 . S
C4868 C4864 1.385 . S
C4868 C4867 1.374 . S
C4869 C4866 1.499 . S
C4869 C4870 1.373 . S
C4869 C4871 1.389 . S
C4870 H4843 0.950 . S
C4870 C4856 1.377 . S
C4870 C4869 1.373 . S
C4871 C4855 1.377 . S
C4871 C4869 1.389 . S
C4871 C4872 1.524 . S
C4872 C4871 1.524 . S
C4872 C4873 1.397 . S
C4872 C4877 1.363 . S
C4873 H4844 0.950 . S
C4873 C4872 1.397 . S
C4873 C4874 1.334 . S
C4874 H4845 0.950 . S
C4874 C4873 1.334 . S
C4874 C4875 1.287 . S
C4875 C4874 1.287 . S
C4875 C4876 1.524 . S
C4875 H4878 0.999 . S
C4876 H4846 0.950 . S
C4876 C4875 1.524 . S
C4876 C4877 1.415 . S
C4877 H4847 0.950 . S
C4877 C4872 1.363 . S
C4877 C4876 1.415 . S
H4878 C4875 0.999 . S
H4879 C4860 0.913 . S
H4880 C4898 0.951 . S
H4881 C4900 0.951 . S
H4882 C4902 0.950 . S
H4883 C4903 0.950 . S
H4884 C4905 0.950 . S
H4885 C4908 0.950 . S
H4886 C4909 0.950 . S
H4887 C4911 0.950 . S
H4888 C4912 0.950 . S
H4889 C4913 0.951 . S
H4890 C4915 0.951 . S
H4891 C4917 0.950 . S
H4892 C4918 0.950 . S
H4893 C4920 0.950 . S
H4894 C4923 0.950 . S
H4895 C4924 0.950 . S
H4896 C4926 0.950 . S
H4897 C4927 0.950 . S
C4898 H4880 0.951 . S
C4898 C4899 1.366 . S
C4898 C4900 1.388 . S
C4899 C4898 1.366 . S
C4899 C4903 1.385 . S
C4900 H4881 0.951 . S
C4900 C4898 1.388 . S
C4900 C4901 1.366 . S
C4901 C4900 1.366 . S
C4901 C4902 1.414 . S
C4901 C4904 1.499 . S
C4902 H4882 0.950 . S
C4902 C4901 1.414 . S
C4902 C4903 1.374 . S
C4903 H4883 0.950 . S
C4903 C4899 1.385 . S
C4903 C4902 1.374 . S
C4904 C4901 1.499 . S
C4904 C4905 1.373 . S
C4904 C4906 1.389 . S
C4905 H4884 0.950 . S
C4905 C4904 1.373 . S
C4905 C4921 1.377 . S
C4906 C4904 1.389 . S
C4906 C4907 1.524 . S
C4906 C4920 1.377 . S
C4907 C4906 1.524 . S
C4907 C4908 1.397 . S
C4907 C4912 1.363 . S
C4908 H4885 0.950 . S
C4908 C4907 1.397 . S
C4908 C4909 1.334 . S
C4909 H4886 0.950 . S
C4909 C4908 1.334 . S
C4909 C4910 1.287 . S
C4910 C4909 1.287 . S
C4910 C4911 1.524 . S
C4910 H4929 0.913 . S
C4911 H4887 0.950 . S
C4911 C4910 1.524 . S
C4911 C4912 1.415 . S
C4912 H4888 0.950 . S
C4912 C4907 1.363 . S
C4912 C4911 1.415 . S
C4913 H4889 0.951 . S
C4913 C4914 1.366 . S
C4913 C4915 1.388 . S
C4914 C4913 1.366 . S
C4914 C4918 1.385 . S
C4915 H4890 0.951 . S
C4915 C4913 1.388 . S
C4915 C4916 1.366 . S
C4916 C4915 1.366 . S
C4916 C4917 1.414 . S
C4916 C4919 1.499 . S
C4917 H4891 0.950 . S
C4917 C4916 1.414 . S
C4917 C4918 1.374 . S
C4918 H4892 0.950 . S
C4918 C4914 1.385 . S
C4918 C4917 1.374 . S
C4919 C4916 1.499 . S
C4919 C4920 1.373 . S
C4919 C4921 1.389 . S
C4920 H4893 0.950 . S
C4920 C4906 1.377 . S
C4920 C4919 1.373 . S
C4921 C4905 1.377 . S
C4921 C4919 1.389 . S
C4921 C4922 1.524 . S
C4922 C4921 1.524 . S
C4922 C4923 1.397 . S
C4922 C4927 1.363 . S
C4923 H4894 0.950 . S
C4923 C4922 1.397 . S
C4923 C4924 1.334 . S
C4924 H4895 0.950 . S
C4924 C4923 1.334 . S
C4924 C4925 1.287 . S
C4925 C4924 1.287 . S
C4925 C4926 1.524 . S
C4925 H4928 0.999 . S
C4926 H4896 0.950 . S
C4926 C4925 1.524 . S
C4926 C4927 1.415 . S
C4927 H4897 0.950 . S
C4927 C4922 1.363 . S
C4927 C4926 1.415 . S
H4928 C4925 0.999 . S
H4929 C4910 0.913 . S
H4930 C4948 0.951 . S
H4931 C4950 0.951 . S
H4932 C4952 0.950 . S
H4933 C4953 0.950 . S
H4934 C4955 0.950 . S
H4935 C4958 0.950 . S
H4936 C4959 0.950 . S
H4937 C4961 0.950 . S
H4938 C4962 0.950 . S
H4939 C4963 0.951 . S
H4940 C4965 0.951 . S
H4941 C4967 0.950 . S
H4942 C4968 0.950 . S
H4943 C4970 0.950 . S
H4944 C4973 0.950 . S
H4945 C4974 0.950 . S
H4946 C4976 0.950 . S
H4947 C4977 0.950 . S
C4948 H4930 0.951 . S
C4948 C4949 1.366 . S
C4948 C4950 1.388 . S
C4949 C4948 1.366 . S
C4949 C4953 1.385 . S
C4950 H4931 0.951 . S
C4950 C4948 1.388 . S
C4950 C4951 1.366 . S
C4951 C4950 1.366 . S
C4951 C4952 1.414 . S
C4951 C4954 1.499 . S
C4952 H4932 0.950 . S
C4952 C4951 1.414 . S
C4952 C4953 1.374 . S
C4953 H4933 0.950 . S
C4953 C4949 1.385 . S
C4953 C4952 1.374 . S
C4954 C4951 1.499 . S
C4954 C4955 1.373 . S
C4954 C4956 1.389 . S
C4955 H4934 0.950 . S
C4955 C4954 1.373 . S
C4955 C4971 1.377 . S
C4956 C4954 1.389 . S
C4956 C4957 1.524 . S
C4956 C4970 1.377 . S
C4957 C4956 1.524 . S
C4957 C4958 1.397 . S
C4957 C4962 1.363 . S
C4958 H4935 0.950 . S
C4958 C4957 1.397 . S
C4958 C4959 1.334 . S
C4959 H4936 0.950 . S
C4959 C4958 1.334 . S
C4959 C4960 1.287 . S
C4960 C4959 1.287 . S
C4960 C4961 1.524 . S
C4960 H4979 0.913 . S
C4961 H4937 0.950 . S
C4961 C4960 1.524 . S
C4961 C4962 1.415 . S
C4962 H4938 0.950 . S
C4962 C4957 1.363 . S
C4962 C4961 1.415 . S
C4963 H4939 0.951 . S
C4963 C4964 1.366 . S
C4963 C4965 1.388 . S
C4964 C4963 1.366 . S
C4964 C4968 1.385 . S
C4965 H4940 0.951 . S
C4965 C4963 1.388 . S
C4965 C4966 1.366 . S
C4966 C4965 1.366 . S
C4966 C4967 1.414 . S
C4966 C4969 1.499 . S
C4967 H4941 0.950 . S
C4967 C4966 1.414 . S
C4967 C4968 1.374 . S
C4968 H4942 0.950 . S
C4968 C4964 1.385 . S
C4968 C4967 1.374 . S
C4969 C4966 1.499 . S
C4969 C4970 1.373 . S
C4969 C4971 1.389 . S
C4970 H4943 0.950 . S
C4970 C4956 1.377 . S
C4970 C4969 1.373 . S
C4971 C4955 1.377 . S
C4971 C4969 1.389 . S
C4971 C4972 1.524 . S
C4972 C4971 1.524 . S
C4972 C4973 1.397 . S
C4972 C4977 1.363 . S
C4973 H4944 0.950 . S
C4973 C4972 1.397 . S
C4973 C4974 1.334 . S
C4974 H4945 0.950 . S
C4974 C4973 1.334 . S
C4974 C4975 1.287 . S
C4975 C4974 1.287 . S
C4975 C4976 1.524 . S
C4975 H4978 0.999 . S
C4976 H4946 0.950 . S
C4976 C4975 1.524 . S
C4976 C4977 1.415 . S
C4977 H4947 0.950 . S
C4977 C4972 1.363 . S
C4977 C4976 1.415 . S
H4978 C4975 0.999 . S
H4979 C4960 0.913 . S
H4980 C4998 0.951 . S
H4981 C5000 0.951 . S
H4982 C5002 0.950 . S
H4983 C5003 0.950 . S
H4984 C5005 0.950 . S
H4985 C5008 0.950 . S
H4986 C5009 0.950 . S
H4987 C5011 0.950 . S
H4988 C5012 0.950 . S
H4989 C5013 0.951 . S
H4990 C5015 0.951 . S
H4991 C5017 0.950 . S
H4992 C5018 0.950 . S
H4993 C5020 0.950 . S
H4994 C5023 0.950 . S
H4995 C5024 0.950 . S
H4996 C5026 0.950 . S
H4997 C5027 0.950 . S
C4998 H4980 0.951 . S
C4998 C4999 1.366 . S
C4998 C5000 1.388 . S
C4999 C4998 1.366 . S
C4999 C5003 1.385 . S
C5000 H4981 0.951 . S
C5000 C4998 1.388 . S
C5000 C5001 1.366 . S
C5001 C5000 1.366 . S
C5001 C5002 1.414 . S
C5001 C5004 1.499 . S
C5002 H4982 0.950 . S
C5002 C5001 1.414 . S
C5002 C5003 1.374 . S
C5003 H4983 0.950 . S
C5003 C4999 1.385 . S
C5003 C5002 1.374 . S
C5004 C5001 1.499 . S
C5004 C5005 1.373 . S
C5004 C5006 1.389 . S
C5005 H4984 0.950 . S
C5005 C5004 1.373 . S
C5005 C5021 1.377 . S
C5006 C5004 1.389 . S
C5006 C5007 1.524 . S
C5006 C5020 1.377 . S
C5007 C5006 1.524 . S
C5007 C5008 1.397 . S
C5007 C5012 1.363 . S
C5008 H4985 0.950 . S
C5008 C5007 1.397 . S
C5008 C5009 1.334 . S
C5009 H4986 0.950 . S
C5009 C5008 1.334 . S
C5009 C5010 1.287 . S
C5010 C5009 1.287 . S
C5010 C5011 1.524 . S
C5010 H5029 0.913 1_565 S
C5011 H4987 0.950 . S
C5011 C5010 1.524 . S
C5011 C5012 1.415 . S
C5012 H4988 0.950 . S
C5012 C5007 1.363 . S
C5012 C5011 1.415 . S
C5013 H4989 0.951 . S
C5013 C5014 1.366 . S
C5013 C5015 1.388 . S
C5014 C5013 1.366 . S
C5014 C5018 1.385 . S
C5015 H4990 0.951 . S
C5015 C5013 1.388 . S
C5015 C5016 1.366 . S
C5016 C5015 1.366 . S
C5016 C5017 1.414 . S
C5016 C5019 1.499 . S
C5017 H4991 0.950 . S
C5017 C5016 1.414 . S
C5017 C5018 1.374 . S
C5018 H4992 0.950 . S
C5018 C5014 1.385 . S
C5018 C5017 1.374 . S
C5019 C5016 1.499 . S
C5019 C5020 1.373 . S
C5019 C5021 1.389 . S
C5020 H4993 0.950 . S
C5020 C5006 1.377 . S
C5020 C5019 1.373 . S
C5021 C5005 1.377 . S
C5021 C5019 1.389 . S
C5021 C5022 1.524 . S
C5022 C5021 1.524 . S
C5022 C5023 1.397 . S
C5022 C5027 1.363 . S
C5023 H4994 0.950 . S
C5023 C5022 1.397 . S
C5023 C5024 1.334 . S
C5024 H4995 0.950 . S
C5024 C5023 1.334 . S
C5024 C5025 1.287 . S
C5025 C5024 1.287 . S
C5025 C5026 1.524 . S
C5025 H5028 0.999 . S
C5026 H4996 0.950 . S
C5026 C5025 1.524 . S
C5026 C5027 1.415 . S
C5027 H4997 0.950 . S
C5027 C5022 1.363 . S
C5027 C5026 1.415 . S
H5028 C5025 0.999 . S
H5029 C5010 0.913 1_545 S
H5030 C5048 0.951 . S
H5031 C5050 0.951 . S
H5032 C5052 0.950 . S
H5033 C5053 0.930 1_556 S
H5034 C5055 0.950 1_556 S
H5035 C5058 0.950 . S
H5036 C5059 0.950 . S
H5037 C5061 0.950 . S
H5038 C5062 0.950 . S
H5039 C5063 0.951 . S
H5040 C5065 0.951 . S
H5041 C5067 0.950 . S
H5042 C5068 0.950 . S
H5043 C5070 0.950 . S
H5044 C5073 0.950 . S
H5045 C5074 0.950 . S
H5046 C5076 0.950 1_545 S
H5047 C5077 0.950 . S
C5048 H5030 0.951 . S
C5048 C5049 1.366 . S
C5048 C5050 1.388 . S
C5049 C5048 1.366 . S
C5049 C5053 1.385 . S
C5050 H5031 0.951 . S
C5050 C5048 1.388 . S
C5050 C5051 1.366 . S
C5051 C5050 1.366 . S
C5051 C5052 1.414 . S
C5051 C5054 1.499 . S
C5052 H5032 0.950 . S
C5052 C5051 1.414 . S
C5052 C5053 1.374 . S
C5053 H5033 0.930 1_554 S
C5053 C5049 1.385 . S
C5053 C5052 1.374 . S
C5054 C5051 1.499 . S
C5054 C5055 1.373 . S
C5054 C5056 1.389 . S
C5055 H5034 0.950 1_554 S
C5055 C5054 1.373 . S
C5055 C5071 1.377 . S
C5056 C5054 1.389 . S
C5056 C5057 1.524 . S
C5056 C5070 1.377 . S
C5057 C5056 1.524 . S
C5057 C5058 1.397 . S
C5057 C5062 1.363 . S
C5058 H5035 0.950 . S
C5058 C5057 1.397 . S
C5058 C5059 1.334 . S
C5059 H5036 0.950 . S
C5059 C5058 1.334 . S
C5059 C5060 1.287 . S
C5060 C5059 1.287 . S
C5060 C5061 1.524 . S
C5060 H5079 0.913 . S
C5061 H5037 0.950 . S
C5061 C5060 1.524 . S
C5061 C5062 1.415 . S
C5062 H5038 0.950 . S
C5062 C5057 1.363 . S
C5062 C5061 1.415 . S
C5063 H5039 0.951 . S
C5063 C5064 1.366 . S
C5063 C5065 1.388 . S
C5064 C5063 1.366 . S
C5064 C5068 1.385 1_545 S
C5065 H5040 0.951 . S
C5065 C5063 1.388 . S
C5065 C5066 1.366 1_545 S
C5066 C5065 1.366 1_565 S
C5066 C5067 1.414 . S
C5066 C5069 1.499 . S
C5067 H5041 0.950 . S
C5067 C5066 1.414 . S
C5067 C5068 1.374 . S
C5068 H5042 0.950 . S
C5068 C5064 1.385 1_565 S
C5068 C5067 1.374 . S
C5069 C5066 1.499 . S
C5069 C5070 1.373 . S
C5069 C5071 1.389 . S
C5070 H5043 0.950 . S
C5070 C5056 1.377 . S
C5070 C5069 1.373 . S
C5071 C5055 1.377 . S
C5071 C5069 1.389 . S
C5071 C5072 1.524 1_554 S
C5072 C5071 1.524 1_556 S
C5072 C5073 1.397 . S
C5072 C5077 1.363 . S
C5073 H5044 0.950 . S
C5073 C5072 1.397 . S
C5073 C5074 1.334 . S
C5074 H5045 0.950 . S
C5074 C5073 1.334 . S
C5074 C5075 1.287 . S
C5075 C5074 1.287 . S
C5075 C5076 1.524 . S
C5075 H5078 0.999 . S
C5076 H5046 0.950 1_565 S
C5076 C5075 1.524 . S
C5076 C5077 1.415 . S
C5077 H5047 0.950 . S
C5077 C5072 1.363 . S
C5077 C5076 1.415 . S
H5078 C5075 0.999 . S
H5079 C5060 0.913 . S
H5080 C5098 0.951 . S
H5081 C5100 0.951 . S
H5082 C5102 0.950 . S
H5083 C5103 0.950 . S
H5084 C5105 0.950 . S
H5085 C5108 0.950 . S
H5086 C5109 0.950 . S
H5087 C5111 0.950 . S
H5088 C5112 0.950 . S
H5089 C5113 0.951 . S
H5090 C5115 0.951 . S
H5091 C5117 0.950 . S
H5092 C5118 0.950 . S
H5093 C5120 0.950 . S
H5094 C5123 0.950 . S
H5095 C5124 0.950 . S
H5096 C5126 0.950 . S
H5097 C5127 0.950 . S
C5098 H5080 0.951 . S
C5098 C5099 1.366 . S
C5098 C5100 1.388 . S
C5099 C5098 1.366 . S
C5099 C5103 1.385 . S
C5100 H5081 0.951 . S
C5100 C5098 1.388 . S
C5100 C5101 1.366 . S
C5101 C5100 1.366 . S
C5101 C5102 1.414 . S
C5101 C5104 1.499 . S
C5102 H5082 0.950 . S
C5102 C5101 1.414 . S
C5102 C5103 1.374 . S
C5103 H5083 0.950 . S
C5103 C5099 1.385 . S
C5103 C5102 1.374 . S
C5104 C5101 1.499 . S
C5104 C5105 1.373 . S
C5104 C5106 1.389 . S
C5105 H5084 0.950 . S
C5105 C5104 1.373 . S
C5105 C5121 1.377 . S
C5106 C5104 1.389 . S
C5106 C5107 1.524 . S
C5106 C5120 1.377 . S
C5107 C5106 1.524 . S
C5107 C5108 1.397 . S
C5107 C5112 1.363 . S
C5108 H5085 0.950 . S
C5108 C5107 1.397 . S
C5108 C5109 1.334 . S
C5109 H5086 0.950 . S
C5109 C5108 1.334 . S
C5109 C5110 1.287 . S
C5110 C5109 1.287 . S
C5110 C5111 1.524 . S
C5110 H5129 0.913 . S
C5111 H5087 0.950 . S
C5111 C5110 1.524 . S
C5111 C5112 1.415 . S
C5112 H5088 0.950 . S
C5112 C5107 1.363 . S
C5112 C5111 1.415 . S
C5113 H5089 0.951 . S
C5113 C5114 1.366 . S
C5113 C5115 1.388 . S
C5114 C5113 1.366 . S
C5114 C5118 1.385 . S
C5115 H5090 0.951 . S
C5115 C5113 1.388 . S
C5115 C5116 1.366 . S
C5116 C5115 1.366 . S
C5116 C5117 1.414 . S
C5116 C5119 1.499 . S
C5117 H5091 0.950 . S
C5117 C5116 1.414 . S
C5117 C5118 1.374 . S
C5118 H5092 0.950 . S
C5118 C5114 1.385 . S
C5118 C5117 1.374 . S
C5119 C5116 1.499 . S
C5119 C5120 1.373 . S
C5119 C5121 1.389 . S
C5120 H5093 0.950 . S
C5120 C5106 1.377 . S
C5120 C5119 1.373 . S
C5121 C5105 1.377 . S
C5121 C5119 1.389 . S
C5121 C5122 1.524 . S
C5122 C5121 1.524 . S
C5122 C5123 1.397 . S
C5122 C5127 1.363 . S
C5123 H5094 0.950 . S
C5123 C5122 1.397 . S
C5123 C5124 1.334 . S
C5124 H5095 0.950 . S
C5124 C5123 1.334 . S
C5124 C5125 1.287 . S
C5125 C5124 1.287 . S
C5125 C5126 1.524 . S
C5125 H5128 0.999 . S
C5126 H5096 0.950 . S
C5126 C5125 1.524 . S
C5126 C5127 1.415 . S
C5127 H5097 0.950 . S
C5127 C5122 1.363 . S
C5127 C5126 1.415 . S
H5128 C5125 0.999 . S
H5129 C5110 0.913 . S
H5130 C5148 0.951 . S
H5131 C5150 0.951 . S
H5132 C5152 0.950 . S
H5133 C5153 0.950 . S
H5134 C5155 0.950 . S
H5135 C5158 0.950 . S
H5136 C5159 0.950 . S
H5137 C5161 0.950 . S
H5138 C5162 0.950 . S
H5139 C5163 0.951 . S
H5140 C5165 0.951 . S
H5141 C5167 0.950 . S
H5142 C5168 0.950 . S
H5143 C5170 0.950 . S
H5144 C5173 0.950 . S
H5145 C5174 0.950 . S
H5146 C5176 0.950 . S
H5147 C5177 0.950 . S
C5148 H5130 0.951 . S
C5148 C5149 1.366 . S
C5148 C5150 1.388 . S
C5149 C5148 1.366 . S
C5149 C5153 1.385 . S
C5150 H5131 0.951 . S
C5150 C5148 1.388 . S
C5150 C5151 1.366 . S
C5151 C5150 1.366 . S
C5151 C5152 1.414 . S
C5151 C5154 1.499 . S
C5152 H5132 0.950 . S
C5152 C5151 1.414 . S
C5152 C5153 1.374 . S
C5153 H5133 0.950 . S
C5153 C5149 1.385 . S
C5153 C5152 1.374 . S
C5154 C5151 1.499 . S
C5154 C5155 1.373 . S
C5154 C5156 1.389 . S
C5155 H5134 0.950 . S
C5155 C5154 1.373 . S
C5155 C5171 1.377 . S
C5156 C5154 1.389 . S
C5156 C5157 1.524 . S
C5156 C5170 1.377 . S
C5157 C5156 1.524 . S
C5157 C5158 1.397 . S
C5157 C5162 1.363 . S
C5158 H5135 0.950 . S
C5158 C5157 1.397 . S
C5158 C5159 1.334 . S
C5159 H5136 0.950 . S
C5159 C5158 1.334 . S
C5159 C5160 1.287 . S
C5160 C5159 1.287 . S
C5160 C5161 1.524 . S
C5160 H5179 0.913 . S
C5161 H5137 0.950 . S
C5161 C5160 1.524 . S
C5161 C5162 1.415 . S
C5162 H5138 0.950 . S
C5162 C5157 1.363 . S
C5162 C5161 1.415 . S
C5163 H5139 0.951 . S
C5163 C5164 1.366 . S
C5163 C5165 1.388 . S
C5164 C5163 1.366 . S
C5164 C5168 1.385 . S
C5165 H5140 0.951 . S
C5165 C5163 1.388 . S
C5165 C5166 1.366 . S
C5166 C5165 1.366 . S
C5166 C5167 1.414 . S
C5166 C5169 1.499 . S
C5167 H5141 0.950 . S
C5167 C5166 1.414 . S
C5167 C5168 1.374 . S
C5168 H5142 0.950 . S
C5168 C5164 1.385 . S
C5168 C5167 1.374 . S
C5169 C5166 1.499 . S
C5169 C5170 1.373 . S
C5169 C5171 1.389 . S
C5170 H5143 0.950 . S
C5170 C5156 1.377 . S
C5170 C5169 1.373 . S
C5171 C5155 1.377 . S
C5171 C5169 1.389 . S
C5171 C5172 1.524 . S
C5172 C5171 1.524 . S
C5172 C5173 1.397 . S
C5172 C5177 1.363 . S
C5173 H5144 0.950 . S
C5173 C5172 1.397 . S
C5173 C5174 1.334 . S
C5174 H5145 0.950 . S
C5174 C5173 1.334 . S
C5174 C5175 1.287 . S
C5175 C5174 1.287 . S
C5175 C5176 1.524 . S
C5175 H5178 0.999 . S
C5176 H5146 0.950 . S
C5176 C5175 1.524 . S
C5176 C5177 1.415 . S
C5177 H5147 0.950 . S
C5177 C5172 1.363 . S
C5177 C5176 1.415 . S
H5178 C5175 0.999 . S
H5179 C5160 0.913 . S
H5180 C5198 0.951 . S
H5181 C5200 0.951 . S
H5182 C5202 0.950 . S
H5183 C5203 0.950 . S
H5184 C5205 0.950 . S
H5185 C5208 0.950 . S
H5186 C5209 0.950 . S
H5187 C5211 0.950 . S
H5188 C5212 0.950 . S
H5189 C5213 0.951 . S
H5190 C5215 0.951 . S
H5191 C5217 0.950 . S
H5192 C5218 0.950 . S
H5193 C5220 0.950 . S
H5194 C5223 0.950 . S
H5195 C5224 0.950 . S
H5196 C5226 0.950 . S
H5197 C5227 0.950 . S
C5198 H5180 0.951 . S
C5198 C5199 1.366 . S
C5198 C5200 1.388 . S
C5199 C5198 1.366 . S
C5199 C5203 1.385 . S
C5200 H5181 0.951 . S
C5200 C5198 1.388 . S
C5200 C5201 1.366 . S
C5201 C5200 1.366 . S
C5201 C5202 1.414 . S
C5201 C5204 1.499 . S
C5202 H5182 0.950 . S
C5202 C5201 1.414 . S
C5202 C5203 1.374 . S
C5203 H5183 0.950 . S
C5203 C5199 1.385 . S
C5203 C5202 1.374 . S
C5204 C5201 1.499 . S
C5204 C5205 1.373 . S
C5204 C5206 1.389 . S
C5205 H5184 0.950 . S
C5205 C5204 1.373 . S
C5205 C5221 1.377 . S
C5206 C5204 1.389 . S
C5206 C5207 1.524 . S
C5206 C5220 1.377 . S
C5207 C5206 1.524 . S
C5207 C5208 1.397 . S
C5207 C5212 1.363 . S
C5208 H5185 0.950 . S
C5208 C5207 1.397 . S
C5208 C5209 1.334 . S
C5209 H5186 0.950 . S
C5209 C5208 1.334 . S
C5209 C5210 1.287 . S
C5210 C5209 1.287 . S
C5210 C5211 1.524 . S
C5210 H5229 0.913 . S
C5211 H5187 0.950 . S
C5211 C5210 1.524 . S
C5211 C5212 1.415 . S
C5212 H5188 0.950 . S
C5212 C5207 1.363 . S
C5212 C5211 1.415 . S
C5213 H5189 0.951 . S
C5213 C5214 1.366 . S
C5213 C5215 1.388 . S
C5214 C5213 1.366 . S
C5214 C5218 1.385 . S
C5215 H5190 0.951 . S
C5215 C5213 1.388 . S
C5215 C5216 1.366 . S
C5216 C5215 1.366 . S
C5216 C5217 1.414 . S
C5216 C5219 1.499 . S
C5217 H5191 0.950 . S
C5217 C5216 1.414 . S
C5217 C5218 1.374 . S
C5218 H5192 0.950 . S
C5218 C5214 1.385 . S
C5218 C5217 1.374 . S
C5219 C5216 1.499 . S
C5219 C5220 1.373 . S
C5219 C5221 1.389 . S
C5220 H5193 0.950 . S
C5220 C5206 1.377 . S
C5220 C5219 1.373 . S
C5221 C5205 1.377 . S
C5221 C5219 1.389 . S
C5221 C5222 1.524 . S
C5222 C5221 1.524 . S
C5222 C5223 1.397 . S
C5222 C5227 1.363 . S
C5223 H5194 0.950 . S
C5223 C5222 1.397 . S
C5223 C5224 1.334 . S
C5224 H5195 0.950 . S
C5224 C5223 1.334 . S
C5224 C5225 1.287 . S
C5225 C5224 1.287 . S
C5225 C5226 1.524 . S
C5225 H5228 0.999 . S
C5226 H5196 0.950 . S
C5226 C5225 1.524 . S
C5226 C5227 1.415 . S
C5227 H5197 0.950 . S
C5227 C5222 1.363 . S
C5227 C5226 1.415 . S
H5228 C5225 0.999 . S
H5229 C5210 0.913 . S
H5230 C5248 0.951 . S
H5231 C5250 0.951 . S
H5232 C5252 0.950 . S
H5233 C5253 0.950 . S
H5234 C5255 0.950 . S
H5235 C5258 0.950 . S
H5236 C5259 0.950 . S
H5237 C5261 0.950 . S
H5238 C5262 0.950 . S
H5239 C5263 0.951 . S
H5240 C5265 0.951 . S
H5241 C5267 0.950 . S
H5242 C5268 0.950 . S
H5243 C5270 0.950 . S
H5244 C5273 0.950 . S
H5245 C5274 0.950 . S
H5246 C5276 0.950 . S
H5247 C5277 0.950 . S
C5248 H5230 0.951 . S
C5248 C5249 1.366 . S
C5248 C5250 1.388 . S
C5249 C5248 1.366 . S
C5249 C5253 1.385 . S
C5250 H5231 0.951 . S
C5250 C5248 1.388 . S
C5250 C5251 1.366 . S
C5251 C5250 1.366 . S
C5251 C5252 1.414 . S
C5251 C5254 1.499 . S
C5252 H5232 0.950 . S
C5252 C5251 1.414 . S
C5252 C5253 1.374 . S
C5253 H5233 0.950 . S
C5253 C5249 1.385 . S
C5253 C5252 1.374 . S
C5254 C5251 1.499 . S
C5254 C5255 1.373 . S
C5254 C5256 1.389 . S
C5255 H5234 0.950 . S
C5255 C5254 1.373 . S
C5255 C5271 1.377 . S
C5256 C5254 1.389 . S
C5256 C5257 1.524 . S
C5256 C5270 1.377 . S
C5257 C5256 1.524 . S
C5257 C5258 1.397 . S
C5257 C5262 1.363 . S
C5258 H5235 0.950 . S
C5258 C5257 1.397 . S
C5258 C5259 1.334 . S
C5259 H5236 0.950 . S
C5259 C5258 1.334 . S
C5259 C5260 1.287 . S
C5260 C5259 1.287 . S
C5260 C5261 1.524 . S
C5260 H5279 0.913 . S
C5261 H5237 0.950 . S
C5261 C5260 1.524 . S
C5261 C5262 1.415 . S
C5262 H5238 0.950 . S
C5262 C5257 1.363 . S
C5262 C5261 1.415 . S
C5263 H5239 0.951 . S
C5263 C5264 1.366 . S
C5263 C5265 1.388 . S
C5264 C5263 1.366 . S
C5264 C5268 1.385 . S
C5265 H5240 0.951 . S
C5265 C5263 1.388 . S
C5265 C5266 1.366 . S
C5266 C5265 1.366 . S
C5266 C5267 1.414 . S
C5266 C5269 1.499 . S
C5267 H5241 0.950 . S
C5267 C5266 1.414 . S
C5267 C5268 1.374 . S
C5268 H5242 0.950 . S
C5268 C5264 1.385 . S
C5268 C5267 1.374 . S
C5269 C5266 1.499 . S
C5269 C5270 1.373 . S
C5269 C5271 1.389 . S
C5270 H5243 0.950 . S
C5270 C5256 1.377 . S
C5270 C5269 1.373 . S
C5271 C5255 1.377 . S
C5271 C5269 1.389 . S
C5271 C5272 1.524 . S
C5272 C5271 1.524 . S
C5272 C5273 1.397 . S
C5272 C5277 1.363 . S
C5273 H5244 0.950 . S
C5273 C5272 1.397 . S
C5273 C5274 1.334 . S
C5274 H5245 0.950 . S
C5274 C5273 1.334 . S
C5274 C5275 1.287 . S
C5275 C5274 1.287 . S
C5275 C5276 1.524 . S
C5275 H5278 0.999 . S
C5276 H5246 0.950 . S
C5276 C5275 1.524 . S
C5276 C5277 1.415 . S
C5277 H5247 0.950 . S
C5277 C5272 1.363 . S
C5277 C5276 1.415 . S
H5278 C5275 0.999 . S
H5279 C5260 0.913 . S
H5280 C5298 0.951 . S
H5281 C5300 0.951 . S
H5282 C5302 0.950 . S
H5283 C5303 0.950 . S
H5284 C5305 0.950 . S
H5285 C5308 0.950 . S
H5286 C5309 0.950 . S
H5287 C5311 0.950 . S
H5288 C5312 0.950 . S
H5289 C5313 0.951 . S
H5290 C5315 0.951 . S
H5291 C5317 0.950 . S
H5292 C5318 0.950 . S
H5293 C5320 0.950 . S
H5294 C5323 0.950 . S
H5295 C5324 0.950 . S
H5296 C5326 0.950 . S
H5297 C5327 0.950 . S
C5298 H5280 0.951 . S
C5298 C5299 1.366 . S
C5298 C5300 1.388 . S
C5299 C5298 1.366 . S
C5299 C5303 1.385 . S
C5300 H5281 0.951 . S
C5300 C5298 1.388 . S
C5300 C5301 1.366 . S
C5301 C5300 1.366 . S
C5301 C5302 1.414 . S
C5301 C5304 1.499 . S
C5302 H5282 0.950 . S
C5302 C5301 1.414 . S
C5302 C5303 1.374 . S
C5303 H5283 0.950 . S
C5303 C5299 1.385 . S
C5303 C5302 1.374 . S
C5304 C5301 1.499 . S
C5304 C5305 1.373 . S
C5304 C5306 1.389 . S
C5305 H5284 0.950 . S
C5305 C5304 1.373 . S
C5305 C5321 1.377 . S
C5306 C5304 1.389 . S
C5306 C5307 1.524 . S
C5306 C5320 1.377 . S
C5307 C5306 1.524 . S
C5307 C5308 1.397 . S
C5307 C5312 1.363 . S
C5308 H5285 0.950 . S
C5308 C5307 1.397 . S
C5308 C5309 1.334 . S
C5309 H5286 0.950 . S
C5309 C5308 1.334 . S
C5309 C5310 1.287 . S
C5310 C5309 1.287 . S
C5310 C5311 1.524 . S
C5310 H5329 0.913 . S
C5311 H5287 0.950 . S
C5311 C5310 1.524 . S
C5311 C5312 1.415 . S
C5312 H5288 0.950 . S
C5312 C5307 1.363 . S
C5312 C5311 1.415 . S
C5313 H5289 0.951 . S
C5313 C5314 1.366 . S
C5313 C5315 1.388 . S
C5314 C5313 1.366 . S
C5314 C5318 1.385 . S
C5315 H5290 0.951 . S
C5315 C5313 1.388 . S
C5315 C5316 1.366 . S
C5316 C5315 1.366 . S
C5316 C5317 1.414 . S
C5316 C5319 1.499 . S
C5317 H5291 0.950 . S
C5317 C5316 1.414 . S
C5317 C5318 1.374 . S
C5318 H5292 0.950 . S
C5318 C5314 1.385 . S
C5318 C5317 1.374 . S
C5319 C5316 1.499 . S
C5319 C5320 1.373 . S
C5319 C5321 1.389 . S
C5320 H5293 0.950 . S
C5320 C5306 1.377 . S
C5320 C5319 1.373 . S
C5321 C5305 1.377 . S
C5321 C5319 1.389 . S
C5321 C5322 1.524 . S
C5322 C5321 1.524 . S
C5322 C5323 1.397 . S
C5322 C5327 1.363 . S
C5323 H5294 0.950 . S
C5323 C5322 1.397 . S
C5323 C5324 1.334 . S
C5324 H5295 0.950 . S
C5324 C5323 1.334 . S
C5324 C5325 1.287 . S
C5325 C5324 1.287 . S
C5325 C5326 1.524 . S
C5325 H5328 0.999 . S
C5326 H5296 0.950 . S
C5326 C5325 1.524 . S
C5326 C5327 1.415 . S
C5327 H5297 0.950 . S
C5327 C5322 1.363 . S
C5327 C5326 1.415 . S
H5328 C5325 0.999 . S
H5329 C5310 0.913 . S
H5330 C5348 0.951 . S
H5331 C5350 0.951 . S
H5332 C5352 0.950 . S
H5333 C5353 0.950 . S
H5334 C5355 0.950 . S
H5335 C5358 0.950 . S
H5336 C5359 0.950 . S
H5337 C5361 0.950 . S
H5338 C5362 0.950 . S
H5339 C5363 0.951 . S
H5340 C5365 0.951 . S
H5341 C5367 0.950 . S
H5342 C5368 0.950 . S
H5343 C5370 0.950 . S
H5344 C5373 0.950 . S
H5345 C5374 0.950 . S
H5346 C5376 0.950 . S
H5347 C5377 0.950 . S
C5348 H5330 0.951 . S
C5348 C5349 1.366 . S
C5348 C5350 1.388 . S
C5349 C5348 1.366 . S
C5349 C5353 1.385 . S
C5350 H5331 0.951 . S
C5350 C5348 1.388 . S
C5350 C5351 1.366 . S
C5351 C5350 1.366 . S
C5351 C5352 1.414 . S
C5351 C5354 1.499 . S
C5352 H5332 0.950 . S
C5352 C5351 1.414 . S
C5352 C5353 1.374 . S
C5353 H5333 0.950 . S
C5353 C5349 1.385 . S
C5353 C5352 1.374 . S
C5354 C5351 1.499 . S
C5354 C5355 1.373 . S
C5354 C5356 1.389 . S
C5355 H5334 0.950 . S
C5355 C5354 1.373 . S
C5355 C5371 1.377 . S
C5356 C5354 1.389 . S
C5356 C5357 1.524 . S
C5356 C5370 1.377 . S
C5357 C5356 1.524 . S
C5357 C5358 1.397 . S
C5357 C5362 1.363 . S
C5358 H5335 0.950 . S
C5358 C5357 1.397 . S
C5358 C5359 1.334 . S
C5359 H5336 0.950 . S
C5359 C5358 1.334 . S
C5359 C5360 1.287 . S
C5360 C5359 1.287 . S
C5360 C5361 1.524 . S
C5360 H5379 0.913 . S
C5361 H5337 0.950 . S
C5361 C5360 1.524 . S
C5361 C5362 1.415 . S
C5362 H5338 0.950 . S
C5362 C5357 1.363 . S
C5362 C5361 1.415 . S
C5363 H5339 0.951 . S
C5363 C5364 1.366 . S
C5363 C5365 1.388 . S
C5364 C5363 1.366 . S
C5364 C5368 1.385 . S
C5365 H5340 0.951 . S
C5365 C5363 1.388 . S
C5365 C5366 1.366 . S
C5366 C5365 1.366 . S
C5366 C5367 1.414 . S
C5366 C5369 1.499 . S
C5367 H5341 0.950 . S
C5367 C5366 1.414 . S
C5367 C5368 1.374 . S
C5368 H5342 0.950 . S
C5368 C5364 1.385 . S
C5368 C5367 1.374 . S
C5369 C5366 1.499 . S
C5369 C5370 1.373 . S
C5369 C5371 1.389 . S
C5370 H5343 0.950 . S
C5370 C5356 1.377 . S
C5370 C5369 1.373 . S
C5371 C5355 1.377 . S
C5371 C5369 1.389 . S
C5371 C5372 1.524 . S
C5372 C5371 1.524 . S
C5372 C5373 1.397 . S
C5372 C5377 1.363 . S
C5373 H5344 0.950 . S
C5373 C5372 1.397 . S
C5373 C5374 1.334 . S
C5374 H5345 0.950 . S
C5374 C5373 1.334 . S
C5374 C5375 1.287 . S
C5375 C5374 1.287 . S
C5375 C5376 1.524 . S
C5375 H5378 0.999 . S
C5376 H5346 0.950 . S
C5376 C5375 1.524 . S
C5376 C5377 1.415 . S
C5377 H5347 0.950 . S
C5377 C5372 1.363 . S
C5377 C5376 1.415 . S
H5378 C5375 0.999 . S
H5379 C5360 0.913 . S
H5380 C5398 0.951 . S
H5381 C5400 0.951 . S
H5382 C5402 0.950 . S
H5383 C5403 0.950 . S
H5384 C5405 0.950 . S
H5385 C5408 0.950 . S
H5386 C5409 0.950 . S
H5387 C5411 0.950 . S
H5388 C5412 0.950 . S
H5389 C5413 0.951 . S
H5390 C5415 0.951 . S
H5391 C5417 0.950 . S
H5392 C5418 0.950 . S
H5393 C5420 0.950 . S
H5394 C5423 0.950 . S
H5395 C5424 0.950 . S
H5396 C5426 0.950 1_655 S
H5397 C5427 0.950 . S
C5398 H5380 0.951 . S
C5398 C5399 1.366 . S
C5398 C5400 1.388 . S
C5399 C5398 1.366 . S
C5399 C5403 1.385 . S
C5400 H5381 0.951 . S
C5400 C5398 1.388 . S
C5400 C5401 1.366 . S
C5401 C5400 1.366 . S
C5401 C5402 1.414 . S
C5401 C5404 1.499 . S
C5402 H5382 0.950 . S
C5402 C5401 1.414 . S
C5402 C5403 1.374 . S
C5403 H5383 0.950 . S
C5403 C5399 1.385 . S
C5403 C5402 1.374 . S
C5404 C5401 1.499 . S
C5404 C5405 1.373 . S
C5404 C5406 1.389 . S
C5405 H5384 0.950 . S
C5405 C5404 1.373 . S
C5405 C5421 1.377 . S
C5406 C5404 1.389 . S
C5406 C5407 1.524 . S
C5406 C5420 1.377 . S
C5407 C5406 1.524 . S
C5407 C5408 1.397 . S
C5407 C5412 1.363 . S
C5408 H5385 0.950 . S
C5408 C5407 1.397 . S
C5408 C5409 1.334 . S
C5409 H5386 0.950 . S
C5409 C5408 1.334 . S
C5409 C5410 1.287 . S
C5410 C5409 1.287 . S
C5410 C5411 1.524 . S
C5410 H5429 0.913 . S
C5411 H5387 0.950 . S
C5411 C5410 1.524 . S
C5411 C5412 1.415 . S
C5412 H5388 0.950 . S
C5412 C5407 1.363 . S
C5412 C5411 1.415 . S
C5413 H5389 0.951 . S
C5413 C5414 1.366 . S
C5413 C5415 1.388 . S
C5414 C5413 1.366 . S
C5414 C5418 1.385 . S
C5415 H5390 0.951 . S
C5415 C5413 1.388 . S
C5415 C5416 1.366 . S
C5416 C5415 1.366 . S
C5416 C5417 1.414 . S
C5416 C5419 1.499 . S
C5417 H5391 0.950 . S
C5417 C5416 1.414 . S
C5417 C5418 1.374 . S
C5418 H5392 0.950 . S
C5418 C5414 1.385 . S
C5418 C5417 1.374 . S
C5419 C5416 1.499 . S
C5419 C5420 1.373 . S
C5419 C5421 1.389 . S
C5420 H5393 0.950 . S
C5420 C5406 1.377 . S
C5420 C5419 1.373 . S
C5421 C5405 1.377 . S
C5421 C5419 1.389 . S
C5421 C5422 1.524 . S
C5422 C5421 1.524 . S
C5422 C5423 1.397 . S
C5422 C5427 1.363 . S
C5423 H5394 0.950 . S
C5423 C5422 1.397 . S
C5423 C5424 1.334 . S
C5424 H5395 0.950 . S
C5424 C5423 1.334 . S
C5424 C5425 1.287 . S
C5425 C5424 1.287 . S
C5425 C5426 1.524 . S
C5425 H5428 0.999 . S
C5426 H5396 0.950 1_455 S
C5426 C5425 1.524 . S
C5426 C5427 1.415 . S
C5427 H5397 0.950 . S
C5427 C5422 1.363 . S
C5427 C5426 1.415 . S
H5428 C5425 0.999 . S
H5429 C5410 0.913 . S
H5430 C5448 0.951 . S
H5431 C5450 0.951 . S
H5432 C5452 0.950 . S
H5433 C5453 0.950 . S
H5434 C5455 0.950 . S
H5435 C5458 0.950 . S
H5436 C5459 0.950 . S
H5437 C5461 0.950 . S
H5438 C5462 0.950 . S
H5439 C5463 0.951 . S
H5440 C5465 0.951 . S
H5441 C5467 0.950 . S
H5442 C5468 0.950 . S
H5443 C5470 0.950 . S
H5444 C5473 0.950 . S
H5445 C5474 0.950 . S
H5446 C5476 0.950 . S
H5447 C5477 0.950 . S
C5448 H5430 0.951 . S
C5448 C5449 1.366 . S
C5448 C5450 1.388 . S
C5449 C5448 1.366 . S
C5449 C5453 1.385 . S
C5450 H5431 0.951 . S
C5450 C5448 1.388 . S
C5450 C5451 1.366 . S
C5451 C5450 1.366 . S
C5451 C5452 1.414 . S
C5451 C5454 1.499 . S
C5452 H5432 0.950 . S
C5452 C5451 1.414 . S
C5452 C5453 1.374 . S
C5453 H5433 0.950 . S
C5453 C5449 1.385 . S
C5453 C5452 1.374 . S
C5454 C5451 1.499 . S
C5454 C5455 1.373 . S
C5454 C5456 1.389 . S
C5455 H5434 0.950 . S
C5455 C5454 1.373 . S
C5455 C5471 1.377 . S
C5456 C5454 1.389 . S
C5456 C5457 1.524 . S
C5456 C5470 1.377 . S
C5457 C5456 1.524 . S
C5457 C5458 1.397 . S
C5457 C5462 1.363 . S
C5458 H5435 0.950 . S
C5458 C5457 1.397 . S
C5458 C5459 1.334 . S
C5459 H5436 0.950 . S
C5459 C5458 1.334 . S
C5459 C5460 1.287 . S
C5460 C5459 1.287 . S
C5460 C5461 1.524 . S
C5460 H5479 0.913 . S
C5461 H5437 0.950 . S
C5461 C5460 1.524 . S
C5461 C5462 1.415 . S
C5462 H5438 0.950 . S
C5462 C5457 1.363 . S
C5462 C5461 1.415 . S
C5463 H5439 0.951 . S
C5463 C5464 1.366 . S
C5463 C5465 1.388 . S
C5464 C5463 1.366 . S
C5464 C5468 1.385 . S
C5465 H5440 0.951 . S
C5465 C5463 1.388 . S
C5465 C5466 1.366 . S
C5466 C5465 1.366 . S
C5466 C5467 1.414 . S
C5466 C5469 1.499 . S
C5467 H5441 0.950 . S
C5467 C5466 1.414 . S
C5467 C5468 1.374 . S
C5468 H5442 0.950 . S
C5468 C5464 1.385 . S
C5468 C5467 1.374 . S
C5469 C5466 1.499 . S
C5469 C5470 1.373 . S
C5469 C5471 1.389 . S
C5470 H5443 0.950 . S
C5470 C5456 1.377 . S
C5470 C5469 1.373 . S
C5471 C5455 1.377 . S
C5471 C5469 1.389 . S
C5471 C5472 1.524 . S
C5472 C5471 1.524 . S
C5472 C5473 1.397 . S
C5472 C5477 1.363 . S
C5473 H5444 0.950 . S
C5473 C5472 1.397 . S
C5473 C5474 1.334 . S
C5474 H5445 0.950 . S
C5474 C5473 1.334 . S
C5474 C5475 1.287 . S
C5475 C5474 1.287 . S
C5475 C5476 1.524 . S
C5475 H5478 0.999 . S
C5476 H5446 0.950 . S
C5476 C5475 1.524 . S
C5476 C5477 1.415 . S
C5477 H5447 0.950 . S
C5477 C5472 1.363 . S
C5477 C5476 1.415 . S
H5478 C5475 0.999 . S
H5479 C5460 0.913 . S
H5480 C5498 0.951 . S
H5481 C5500 0.951 . S
H5482 C5502 0.950 . S
H5483 C5503 0.950 . S
H5484 C5505 0.950 . S
H5485 C5508 0.950 . S
H5486 C5509 0.950 . S
H5487 C5511 0.950 . S
H5488 C5512 0.950 . S
H5489 C5513 0.951 . S
H5490 C5515 0.951 . S
H5491 C5517 0.950 . S
H5492 C5518 0.950 . S
H5493 C5520 0.950 . S
H5494 C5523 0.950 . S
H5495 C5524 0.950 . S
H5496 C5526 0.950 . S
H5497 C5527 0.950 . S
C5498 H5480 0.951 . S
C5498 C5499 1.366 . S
C5498 C5500 1.388 . S
C5499 C5498 1.366 . S
C5499 C5503 1.385 . S
C5500 H5481 0.951 . S
C5500 C5498 1.388 . S
C5500 C5501 1.366 . S
C5501 C5500 1.366 . S
C5501 C5502 1.414 . S
C5501 C5504 1.499 . S
C5502 H5482 0.950 . S
C5502 C5501 1.414 . S
C5502 C5503 1.374 . S
C5503 H5483 0.950 . S
C5503 C5499 1.385 . S
C5503 C5502 1.374 . S
C5504 C5501 1.499 . S
C5504 C5505 1.373 . S
C5504 C5506 1.389 . S
C5505 H5484 0.950 . S
C5505 C5504 1.373 . S
C5505 C5521 1.377 . S
C5506 C5504 1.389 . S
C5506 C5507 1.524 . S
C5506 C5520 1.377 . S
C5507 C5506 1.524 . S
C5507 C5508 1.397 . S
C5507 C5512 1.363 . S
C5508 H5485 0.950 . S
C5508 C5507 1.397 . S
C5508 C5509 1.334 . S
C5509 H5486 0.950 . S
C5509 C5508 1.334 . S
C5509 C5510 1.287 . S
C5510 C5509 1.287 . S
C5510 C5511 1.524 . S
C5510 H5529 0.913 . S
C5511 H5487 0.950 . S
C5511 C5510 1.524 . S
C5511 C5512 1.415 . S
C5512 H5488 0.950 . S
C5512 C5507 1.363 . S
C5512 C5511 1.415 . S
C5513 H5489 0.951 . S
C5513 C5514 1.366 . S
C5513 C5515 1.388 . S
C5514 C5513 1.366 . S
C5514 C5518 1.385 . S
C5515 H5490 0.951 . S
C5515 C5513 1.388 . S
C5515 C5516 1.366 . S
C5516 C5515 1.366 . S
C5516 C5517 1.414 . S
C5516 C5519 1.499 . S
C5517 H5491 0.950 . S
C5517 C5516 1.414 . S
C5517 C5518 1.374 . S
C5518 H5492 0.950 . S
C5518 C5514 1.385 . S
C5518 C5517 1.374 . S
C5519 C5516 1.499 . S
C5519 C5520 1.373 . S
C5519 C5521 1.389 . S
C5520 H5493 0.950 . S
C5520 C5506 1.377 . S
C5520 C5519 1.373 . S
C5521 C5505 1.377 . S
C5521 C5519 1.389 . S
C5521 C5522 1.524 . S
C5522 C5521 1.524 . S
C5522 C5523 1.397 . S
C5522 C5527 1.363 . S
C5523 H5494 0.950 . S
C5523 C5522 1.397 . S
C5523 C5524 1.334 . S
C5524 H5495 0.950 . S
C5524 C5523 1.334 . S
C5524 C5525 1.287 . S
C5525 C5524 1.287 . S
C5525 C5526 1.524 . S
C5525 H5528 0.999 . S
C5526 H5496 0.950 . S
C5526 C5525 1.524 . S
C5526 C5527 1.415 . S
C5527 H5497 0.950 . S
C5527 C5522 1.363 . S
C5527 C5526 1.415 . S
H5528 C5525 0.999 . S
H5529 C5510 0.913 . S
H5530 C5548 0.951 . S
H5531 C5550 0.951 . S
H5532 C5552 0.950 . S
H5533 C5553 0.950 . S
H5534 C5555 0.950 . S
H5535 C5558 0.950 . S
H5536 C5559 0.950 . S
H5537 C5561 0.950 . S
H5538 C5562 0.950 . S
H5539 C5563 0.951 . S
H5540 C5565 0.951 . S
H5541 C5567 0.950 . S
H5542 C5568 0.950 . S
H5543 C5570 0.950 . S
H5544 C5573 0.950 . S
H5545 C5574 0.950 . S
H5546 C5576 0.950 . S
H5547 C5577 0.950 . S
C5548 H5530 0.951 . S
C5548 C5549 1.366 . S
C5548 C5550 1.388 . S
C5549 C5548 1.366 . S
C5549 C5553 1.385 . S
C5550 H5531 0.951 . S
C5550 C5548 1.388 . S
C5550 C5551 1.366 . S
C5551 C5550 1.366 . S
C5551 C5552 1.414 . S
C5551 C5554 1.499 . S
C5552 H5532 0.950 . S
C5552 C5551 1.414 . S
C5552 C5553 1.374 . S
C5553 H5533 0.950 . S
C5553 C5549 1.385 . S
C5553 C5552 1.374 . S
C5554 C5551 1.499 . S
C5554 C5555 1.373 . S
C5554 C5556 1.389 . S
C5555 H5534 0.950 . S
C5555 C5554 1.373 . S
C5555 C5571 1.377 . S
C5556 C5554 1.389 . S
C5556 C5557 1.524 . S
C5556 C5570 1.377 . S
C5557 C5556 1.524 . S
C5557 C5558 1.397 . S
C5557 C5562 1.363 . S
C5558 H5535 0.950 . S
C5558 C5557 1.397 . S
C5558 C5559 1.334 . S
C5559 H5536 0.950 . S
C5559 C5558 1.334 . S
C5559 C5560 1.287 . S
C5560 C5559 1.287 . S
C5560 C5561 1.524 . S
C5560 H5579 0.913 . S
C5561 H5537 0.950 . S
C5561 C5560 1.524 . S
C5561 C5562 1.415 . S
C5562 H5538 0.950 . S
C5562 C5557 1.363 . S
C5562 C5561 1.415 . S
C5563 H5539 0.951 . S
C5563 C5564 1.366 . S
C5563 C5565 1.388 . S
C5564 C5563 1.366 . S
C5564 C5568 1.385 . S
C5565 H5540 0.951 . S
C5565 C5563 1.388 . S
C5565 C5566 1.366 . S
C5566 C5565 1.366 . S
C5566 C5567 1.414 . S
C5566 C5569 1.499 . S
C5567 H5541 0.950 . S
C5567 C5566 1.414 . S
C5567 C5568 1.374 . S
C5568 H5542 0.950 . S
C5568 C5564 1.385 . S
C5568 C5567 1.374 . S
C5569 C5566 1.499 . S
C5569 C5570 1.373 . S
C5569 C5571 1.389 . S
C5570 H5543 0.950 . S
C5570 C5556 1.377 . S
C5570 C5569 1.373 . S
C5571 C5555 1.377 . S
C5571 C5569 1.389 . S
C5571 C5572 1.524 . S
C5572 C5571 1.524 . S
C5572 C5573 1.397 . S
C5572 C5577 1.363 . S
C5573 H5544 0.950 . S
C5573 C5572 1.397 . S
C5573 C5574 1.334 . S
C5574 H5545 0.950 . S
C5574 C5573 1.334 . S
C5574 C5575 1.287 . S
C5575 C5574 1.287 . S
C5575 C5576 1.524 . S
C5575 H5578 0.999 . S
C5576 H5546 0.950 . S
C5576 C5575 1.524 . S
C5576 C5577 1.415 . S
C5577 H5547 0.950 . S
C5577 C5572 1.363 . S
C5577 C5576 1.415 . S
H5578 C5575 0.999 . S
H5579 C5560 0.913 . S
H5580 C5598 0.951 . S
H5581 C5600 0.951 . S
H5582 C5602 0.950 . S
H5583 C5603 0.950 . S
H5584 C5605 0.950 . S
H5585 C5608 0.950 . S
H5586 C5609 0.950 . S
H5587 C5611 0.948 . S
H5588 C5612 0.950 . S
H5589 C5613 0.951 . S
H5590 C5615 0.951 . S
H5591 C5617 0.950 . S
H5592 C5618 0.950 . S
H5593 C5620 0.950 . S
H5594 C5623 0.950 . S
H5595 C5624 0.950 . S
H5596 C5626 0.950 . S
H5597 C5627 0.950 . S
C5598 H5580 0.951 . S
C5598 C5599 1.366 . S
C5598 C5600 1.388 . S
C5599 C5598 1.366 . S
C5599 C5603 1.385 . S
C5600 H5581 0.951 . S
C5600 C5598 1.388 . S
C5600 C5601 1.366 . S
C5601 C5600 1.366 . S
C5601 C5602 1.414 . S
C5601 C5604 1.499 . S
C5602 H5582 0.950 . S
C5602 C5601 1.414 . S
C5602 C5603 1.374 . S
C5603 H5583 0.950 . S
C5603 C5599 1.385 . S
C5603 C5602 1.374 . S
C5604 C5601 1.499 . S
C5604 C5605 1.373 . S
C5604 C5606 1.389 . S
C5605 H5584 0.950 . S
C5605 C5604 1.373 . S
C5605 C5621 1.377 . S
C5606 C5604 1.389 . S
C5606 C5607 1.524 . S
C5606 C5620 1.377 . S
C5607 C5606 1.524 . S
C5607 C5608 1.397 1_455 S
C5607 C5612 1.363 . S
C5608 H5585 0.950 . S
C5608 C5607 1.397 1_655 S
C5608 C5609 1.334 . S
C5609 H5586 0.950 . S
C5609 C5608 1.334 . S
C5609 C5610 1.287 . S
C5610 C5609 1.287 . S
C5610 C5611 1.555 . S
C5610 H5629 0.913 . S
C5611 H5587 0.948 . S
C5611 C5610 1.555 . S
C5611 C5612 1.390 1_655 S
C5612 H5588 0.950 . S
C5612 C5607 1.363 . S
C5612 C5611 1.390 1_455 S
C5613 H5589 0.951 . S
C5613 C5614 1.366 . S
C5613 C5615 1.388 . S
C5614 C5613 1.366 . S
C5614 C5618 1.385 . S
C5615 H5590 0.951 . S
C5615 C5613 1.388 . S
C5615 C5616 1.366 . S
C5616 C5615 1.366 . S
C5616 C5617 1.414 . S
C5616 C5619 1.499 . S
C5617 H5591 0.950 . S
C5617 C5616 1.414 . S
C5617 C5618 1.374 . S
C5618 H5592 0.950 . S
C5618 C5614 1.385 . S
C5618 C5617 1.374 . S
C5619 C5616 1.499 . S
C5619 C5620 1.373 . S
C5619 C5621 1.389 . S
C5620 H5593 0.950 . S
C5620 C5606 1.377 . S
C5620 C5619 1.373 . S
C5621 C5605 1.377 . S
C5621 C5619 1.389 . S
C5621 C5622 1.524 . S
C5622 C5621 1.524 . S
C5622 C5623 1.397 . S
C5622 C5627 1.363 . S
C5623 H5594 0.950 . S
C5623 C5622 1.397 . S
C5623 C5624 1.334 . S
C5624 H5595 0.950 . S
C5624 C5623 1.334 . S
C5624 C5625 1.287 . S
C5625 C5624 1.287 . S
C5625 C5626 1.524 . S
C5625 H5628 0.999 . S
C5626 H5596 0.950 . S
C5626 C5625 1.524 . S
C5626 C5627 1.415 . S
C5627 H5597 0.950 . S
C5627 C5622 1.363 . S
C5627 C5626 1.415 . S
H5628 C5625 0.999 . S
H5629 C5610 0.913 . S
H5630 C5648 0.951 . S
H5631 C5650 0.951 . S
H5632 C5652 0.950 . S
H5633 C5653 0.950 . S
H5634 C5655 0.950 . S
H5635 C5658 0.950 . S
H5636 C5659 0.950 . S
H5637 C5661 0.950 . S
H5638 C5662 0.950 . S
H5639 C5663 0.951 . S
H5640 C5665 0.951 . S
H5641 C5667 0.950 . S
H5642 C5668 0.950 . S
H5643 C5670 0.950 . S
H5644 C5673 0.950 . S
H5645 C5674 0.950 . S
H5646 C5676 0.950 . S
H5647 C5677 0.950 . S
C5648 H5630 0.951 . S
C5648 C5649 1.366 . S
C5648 C5650 1.388 . S
C5649 C5648 1.366 . S
C5649 C5653 1.385 . S
C5650 H5631 0.951 . S
C5650 C5648 1.388 . S
C5650 C5651 1.366 . S
C5651 C5650 1.366 . S
C5651 C5652 1.414 . S
C5651 C5654 1.499 . S
C5652 H5632 0.950 . S
C5652 C5651 1.414 . S
C5652 C5653 1.374 . S
C5653 H5633 0.950 . S
C5653 C5649 1.385 . S
C5653 C5652 1.374 . S
C5654 C5651 1.499 . S
C5654 C5655 1.373 . S
C5654 C5656 1.389 . S
C5655 H5634 0.950 . S
C5655 C5654 1.373 . S
C5655 C5671 1.377 . S
C5656 C5654 1.389 . S
C5656 C5657 1.524 . S
C5656 C5670 1.377 . S
C5657 C5656 1.524 . S
C5657 C5658 1.397 . S
C5657 C5662 1.363 . S
C5658 H5635 0.950 . S
C5658 C5657 1.397 . S
C5658 C5659 1.334 . S
C5659 H5636 0.950 . S
C5659 C5658 1.334 . S
C5659 C5660 1.287 . S
C5660 C5659 1.287 . S
C5660 C5661 1.524 . S
C5660 H5679 0.913 . S
C5661 H5637 0.950 . S
C5661 C5660 1.524 . S
C5661 C5662 1.415 . S
C5662 H5638 0.950 . S
C5662 C5657 1.363 . S
C5662 C5661 1.415 . S
C5663 H5639 0.951 . S
C5663 C5664 1.366 . S
C5663 C5665 1.388 . S
C5664 C5663 1.366 . S
C5664 C5668 1.385 . S
C5665 H5640 0.951 . S
C5665 C5663 1.388 . S
C5665 C5666 1.366 . S
C5666 C5665 1.366 . S
C5666 C5667 1.414 . S
C5666 C5669 1.499 . S
C5667 H5641 0.950 . S
C5667 C5666 1.414 . S
C5667 C5668 1.374 . S
C5668 H5642 0.950 . S
C5668 C5664 1.385 . S
C5668 C5667 1.374 . S
C5669 C5666 1.499 . S
C5669 C5670 1.373 . S
C5669 C5671 1.389 . S
C5670 H5643 0.950 . S
C5670 C5656 1.377 . S
C5670 C5669 1.373 . S
C5671 C5655 1.377 . S
C5671 C5669 1.389 . S
C5671 C5672 1.524 . S
C5672 C5671 1.524 . S
C5672 C5673 1.397 . S
C5672 C5677 1.363 . S
C5673 H5644 0.950 . S
C5673 C5672 1.397 . S
C5673 C5674 1.334 . S
C5674 H5645 0.950 . S
C5674 C5673 1.334 . S
C5674 C5675 1.287 . S
C5675 C5674 1.287 . S
C5675 C5676 1.524 . S
C5675 H5678 0.999 . S
C5676 H5646 0.950 . S
C5676 C5675 1.524 . S
C5676 C5677 1.415 . S
C5677 H5647 0.950 . S
C5677 C5672 1.363 . S
C5677 C5676 1.415 . S
H5678 C5675 0.999 . S
H5679 C5660 0.913 . S
H5680 C5698 0.951 . S
H5681 C5700 0.951 . S
H5682 C5702 0.950 . S
H5683 C5703 0.950 . S
H5684 C5705 0.950 . S
H5685 C5708 0.950 . S
H5686 C5709 0.950 . S
H5687 C5711 0.950 . S
H5688 C5712 0.950 . S
H5689 C5713 0.951 . S
H5690 C5715 0.951 . S
H5691 C5717 0.950 . S
H5692 C5718 0.950 . S
H5693 C5720 0.950 . S
H5694 C5723 0.950 . S
H5695 C5724 0.950 . S
H5696 C5726 0.950 . S
H5697 C5727 0.950 . S
C5698 H5680 0.951 . S
C5698 C5699 1.366 . S
C5698 C5700 1.388 . S
C5699 C5698 1.366 . S
C5699 C5703 1.385 . S
C5700 H5681 0.951 . S
C5700 C5698 1.388 . S
C5700 C5701 1.366 . S
C5701 C5700 1.366 . S
C5701 C5702 1.414 . S
C5701 C5704 1.499 . S
C5702 H5682 0.950 . S
C5702 C5701 1.414 . S
C5702 C5703 1.374 . S
C5703 H5683 0.950 . S
C5703 C5699 1.385 . S
C5703 C5702 1.374 . S
C5704 C5701 1.499 . S
C5704 C5705 1.373 . S
C5704 C5706 1.389 . S
C5705 H5684 0.950 . S
C5705 C5704 1.373 . S
C5705 C5721 1.377 . S
C5706 C5704 1.389 . S
C5706 C5707 1.524 . S
C5706 C5720 1.377 . S
C5707 C5706 1.524 . S
C5707 C5708 1.397 . S
C5707 C5712 1.363 . S
C5708 H5685 0.950 . S
C5708 C5707 1.397 . S
C5708 C5709 1.334 . S
C5709 H5686 0.950 . S
C5709 C5708 1.334 . S
C5709 C5710 1.287 . S
C5710 C5709 1.287 . S
C5710 C5711 1.524 . S
C5710 H5729 0.913 . S
C5711 H5687 0.950 . S
C5711 C5710 1.524 . S
C5711 C5712 1.415 . S
C5712 H5688 0.950 . S
C5712 C5707 1.363 . S
C5712 C5711 1.415 . S
C5713 H5689 0.951 . S
C5713 C5714 1.366 . S
C5713 C5715 1.388 . S
C5714 C5713 1.366 . S
C5714 C5718 1.385 . S
C5715 H5690 0.951 . S
C5715 C5713 1.388 . S
C5715 C5716 1.366 . S
C5716 C5715 1.366 . S
C5716 C5717 1.414 . S
C5716 C5719 1.499 . S
C5717 H5691 0.950 . S
C5717 C5716 1.414 . S
C5717 C5718 1.374 . S
C5718 H5692 0.950 . S
C5718 C5714 1.385 . S
C5718 C5717 1.374 . S
C5719 C5716 1.499 . S
C5719 C5720 1.373 . S
C5719 C5721 1.389 . S
C5720 H5693 0.950 . S
C5720 C5706 1.377 . S
C5720 C5719 1.373 . S
C5721 C5705 1.377 . S
C5721 C5719 1.389 . S
C5721 C5722 1.524 . S
C5722 C5721 1.524 . S
C5722 C5723 1.397 . S
C5722 C5727 1.363 . S
C5723 H5694 0.950 . S
C5723 C5722 1.397 . S
C5723 C5724 1.334 . S
C5724 H5695 0.950 . S
C5724 C5723 1.334 . S
C5724 C5725 1.287 . S
C5725 C5724 1.287 . S
C5725 C5726 1.524 . S
C5725 H5728 0.999 . S
C5726 H5696 0.950 . S
C5726 C5725 1.524 . S
C5726 C5727 1.415 . S
C5727 H5697 0.950 . S
C5727 C5722 1.363 . S
C5727 C5726 1.415 . S
H5728 C5725 0.999 . S
H5729 C5710 0.913 . S
H5730 C5748 0.951 . S
H5731 C5750 0.951 . S
H5732 C5752 0.950 . S
H5733 C5753 0.950 . S
H5734 C5755 0.950 . S
H5735 C5758 0.950 . S
H5736 C5759 0.950 . S
H5737 C5761 0.950 . S
H5738 C5762 0.950 . S
H5739 C5763 0.951 . S
H5740 C5765 0.951 . S
H5741 C5767 0.950 . S
H5742 C5768 0.950 . S
H5743 C5770 0.950 . S
H5744 C5773 0.950 . S
H5745 C5774 0.950 . S
H5746 C5776 0.950 . S
H5747 C5777 0.950 . S
C5748 H5730 0.951 . S
C5748 C5749 1.366 . S
C5748 C5750 1.388 . S
C5749 C5748 1.366 . S
C5749 C5753 1.385 . S
C5750 H5731 0.951 . S
C5750 C5748 1.388 . S
C5750 C5751 1.366 . S
C5751 C5750 1.366 . S
C5751 C5752 1.414 . S
C5751 C5754 1.499 . S
C5752 H5732 0.950 . S
C5752 C5751 1.414 . S
C5752 C5753 1.374 . S
C5753 H5733 0.950 . S
C5753 C5749 1.385 . S
C5753 C5752 1.374 . S
C5754 C5751 1.499 . S
C5754 C5755 1.373 . S
C5754 C5756 1.389 . S
C5755 H5734 0.950 . S
C5755 C5754 1.373 . S
C5755 C5771 1.377 . S
C5756 C5754 1.389 . S
C5756 C5757 1.524 . S
C5756 C5770 1.377 . S
C5757 C5756 1.524 . S
C5757 C5758 1.397 . S
C5757 C5762 1.363 . S
C5758 H5735 0.950 . S
C5758 C5757 1.397 . S
C5758 C5759 1.334 . S
C5759 H5736 0.950 . S
C5759 C5758 1.334 . S
C5759 C5760 1.287 . S
C5760 C5759 1.287 . S
C5760 C5761 1.524 . S
C5760 H5779 0.913 . S
C5761 H5737 0.950 . S
C5761 C5760 1.524 . S
C5761 C5762 1.415 . S
C5762 H5738 0.950 . S
C5762 C5757 1.363 . S
C5762 C5761 1.415 . S
C5763 H5739 0.951 . S
C5763 C5764 1.366 . S
C5763 C5765 1.388 . S
C5764 C5763 1.366 . S
C5764 C5768 1.385 . S
C5765 H5740 0.951 . S
C5765 C5763 1.388 . S
C5765 C5766 1.366 . S
C5766 C5765 1.366 . S
C5766 C5767 1.414 . S
C5766 C5769 1.499 . S
C5767 H5741 0.950 . S
C5767 C5766 1.414 . S
C5767 C5768 1.374 . S
C5768 H5742 0.950 . S
C5768 C5764 1.385 . S
C5768 C5767 1.374 . S
C5769 C5766 1.499 . S
C5769 C5770 1.373 . S
C5769 C5771 1.389 . S
C5770 H5743 0.950 . S
C5770 C5756 1.377 . S
C5770 C5769 1.373 . S
C5771 C5755 1.377 . S
C5771 C5769 1.389 . S
C5771 C5772 1.524 . S
C5772 C5771 1.524 . S
C5772 C5773 1.397 . S
C5772 C5777 1.363 . S
C5773 H5744 0.950 . S
C5773 C5772 1.397 . S
C5773 C5774 1.334 . S
C5774 H5745 0.950 . S
C5774 C5773 1.334 . S
C5774 C5775 1.287 . S
C5775 C5774 1.287 . S
C5775 C5776 1.524 . S
C5775 H5778 0.999 . S
C5776 H5746 0.950 . S
C5776 C5775 1.524 . S
C5776 C5777 1.415 . S
C5777 H5747 0.950 . S
C5777 C5772 1.363 . S
C5777 C5776 1.415 . S
H5778 C5775 0.999 . S
H5779 C5760 0.913 . S
H5780 C5798 0.951 . S
H5781 C5800 0.951 . S
H5782 C5802 0.950 . S
H5783 C5803 0.950 . S
H5784 C5805 0.950 . S
H5785 C5808 0.950 . S
H5786 C5809 0.950 . S
H5787 C5811 0.950 . S
H5788 C5812 0.950 . S
H5789 C5813 0.951 . S
H5790 C5815 0.951 . S
H5791 C5817 0.950 . S
H5792 C5818 0.950 . S
H5793 C5820 0.950 . S
H5794 C5823 0.950 . S
H5795 C5824 0.950 . S
H5796 C5826 0.950 1_455 S
H5797 C5827 0.950 . S
C5798 H5780 0.951 . S
C5798 C5799 1.366 . S
C5798 C5800 1.388 . S
C5799 C5798 1.366 . S
C5799 C5803 1.385 . S
C5800 H5781 0.951 . S
C5800 C5798 1.388 . S
C5800 C5801 1.366 . S
C5801 C5800 1.366 . S
C5801 C5802 1.414 . S
C5801 C5804 1.499 . S
C5802 H5782 0.950 . S
C5802 C5801 1.414 . S
C5802 C5803 1.374 . S
C5803 H5783 0.950 . S
C5803 C5799 1.385 . S
C5803 C5802 1.374 . S
C5804 C5801 1.499 . S
C5804 C5805 1.373 . S
C5804 C5806 1.389 . S
C5805 H5784 0.950 . S
C5805 C5804 1.373 . S
C5805 C5821 1.377 . S
C5806 C5804 1.389 . S
C5806 C5807 1.524 . S
C5806 C5820 1.377 . S
C5807 C5806 1.524 . S
C5807 C5808 1.397 . S
C5807 C5812 1.363 . S
C5808 H5785 0.950 . S
C5808 C5807 1.397 . S
C5808 C5809 1.334 . S
C5809 H5786 0.950 . S
C5809 C5808 1.334 . S
C5809 C5810 1.287 . S
C5810 C5809 1.287 . S
C5810 C5811 1.524 . S
C5810 H5829 0.913 . S
C5811 H5787 0.950 . S
C5811 C5810 1.524 . S
C5811 C5812 1.415 . S
C5812 H5788 0.950 . S
C5812 C5807 1.363 . S
C5812 C5811 1.415 . S
C5813 H5789 0.951 . S
C5813 C5814 1.366 1_456 S
C5813 C5815 1.388 1_455 S
C5814 C5813 1.366 1_654 S
C5814 C5818 1.385 . S
C5815 H5790 0.951 . S
C5815 C5813 1.388 1_655 S
C5815 C5816 1.366 . S
C5816 C5815 1.366 . S
C5816 C5817 1.414 . S
C5816 C5819 1.499 . S
C5817 H5791 0.950 . S
C5817 C5816 1.414 . S
C5817 C5818 1.374 1_556 S
C5818 H5792 0.950 . S
C5818 C5814 1.385 . S
C5818 C5817 1.374 1_554 S
C5819 C5816 1.499 . S
C5819 C5820 1.373 . S
C5819 C5821 1.389 . S
C5820 H5793 0.950 . S
C5820 C5806 1.377 . S
C5820 C5819 1.373 . S
C5821 C5805 1.377 . S
C5821 C5819 1.389 . S
C5821 C5822 1.524 . S
C5822 C5821 1.524 . S
C5822 C5823 1.397 . S
C5822 C5827 1.363 . S
C5823 H5794 0.950 . S
C5823 C5822 1.397 . S
C5823 C5824 1.334 . S
C5824 H5795 0.950 . S
C5824 C5823 1.334 . S
C5824 C5825 1.287 . S
C5825 C5824 1.287 . S
C5825 C5826 1.524 . S
C5825 H5828 1.026 . S
C5826 H5796 0.950 1_655 S
C5826 C5825 1.524 . S
C5826 C5827 1.415 . S
C5827 H5797 0.950 . S
C5827 C5822 1.363 . S
C5827 C5826 1.415 . S
H5828 C5825 1.026 . S
H5829 C5810 0.913 . S
H5830 C5848 0.951 . S
H5831 C5850 0.951 . S
H5832 C5852 0.950 . S
H5833 C5853 0.950 . S
H5834 C5855 0.950 . S
H5835 C5858 0.950 . S
H5836 C5859 0.950 . S
H5837 C5861 0.950 . S
H5838 C5862 0.950 . S
H5839 C5863 0.951 . S
H5840 C5865 0.951 . S
H5841 C5867 0.950 . S
H5842 C5868 0.950 . S
H5843 C5870 0.950 . S
H5844 C5873 0.950 . S
H5845 C5874 0.950 . S
H5846 C5876 0.950 . S
H5847 C5877 0.950 . S
C5848 H5830 0.951 . S
C5848 C5849 1.366 . S
C5848 C5850 1.388 . S
C5849 C5848 1.366 . S
C5849 C5853 1.385 . S
C5850 H5831 0.951 . S
C5850 C5848 1.388 . S
C5850 C5851 1.366 . S
C5851 C5850 1.366 . S
C5851 C5852 1.414 . S
C5851 C5854 1.499 . S
C5852 H5832 0.950 . S
C5852 C5851 1.414 . S
C5852 C5853 1.374 . S
C5853 H5833 0.950 . S
C5853 C5849 1.385 . S
C5853 C5852 1.374 . S
C5854 C5851 1.499 . S
C5854 C5855 1.373 . S
C5854 C5856 1.389 . S
C5855 H5834 0.950 . S
C5855 C5854 1.373 . S
C5855 C5871 1.377 . S
C5856 C5854 1.389 . S
C5856 C5857 1.524 . S
C5856 C5870 1.377 . S
C5857 C5856 1.524 . S
C5857 C5858 1.397 . S
C5857 C5862 1.363 . S
C5858 H5835 0.950 . S
C5858 C5857 1.397 . S
C5858 C5859 1.334 . S
C5859 H5836 0.950 . S
C5859 C5858 1.334 . S
C5859 C5860 1.287 . S
C5860 C5859 1.287 . S
C5860 C5861 1.524 . S
C5860 H5879 0.913 . S
C5861 H5837 0.950 . S
C5861 C5860 1.524 . S
C5861 C5862 1.415 . S
C5862 H5838 0.950 . S
C5862 C5857 1.363 . S
C5862 C5861 1.415 . S
C5863 H5839 0.951 . S
C5863 C5864 1.366 . S
C5863 C5865 1.388 . S
C5864 C5863 1.366 . S
C5864 C5868 1.385 . S
C5865 H5840 0.951 . S
C5865 C5863 1.388 . S
C5865 C5866 1.366 . S
C5866 C5865 1.366 . S
C5866 C5867 1.414 . S
C5866 C5869 1.499 . S
C5867 H5841 0.950 . S
C5867 C5866 1.414 . S
C5867 C5868 1.374 . S
C5868 H5842 0.950 . S
C5868 C5864 1.385 . S
C5868 C5867 1.374 . S
C5869 C5866 1.499 . S
C5869 C5870 1.373 . S
C5869 C5871 1.389 . S
C5870 H5843 0.950 . S
C5870 C5856 1.377 . S
C5870 C5869 1.373 . S
C5871 C5855 1.377 . S
C5871 C5869 1.389 . S
C5871 C5872 1.524 . S
C5872 C5871 1.524 . S
C5872 C5873 1.397 . S
C5872 C5877 1.363 . S
C5873 H5844 0.950 . S
C5873 C5872 1.397 . S
C5873 C5874 1.334 . S
C5874 H5845 0.950 . S
C5874 C5873 1.334 . S
C5874 C5875 1.287 . S
C5875 C5874 1.287 . S
C5875 C5876 1.524 . S
C5875 H5878 0.999 . S
C5876 H5846 0.950 . S
C5876 C5875 1.524 . S
C5876 C5877 1.415 . S
C5877 H5847 0.950 . S
C5877 C5872 1.363 . S
C5877 C5876 1.415 . S
H5878 C5875 0.999 . S
H5879 C5860 0.913 . S
H5880 C5898 0.951 . S
H5881 C5900 0.951 . S
H5882 C5902 0.950 . S
H5883 C5903 0.950 . S
H5884 C5905 0.950 . S
H5885 C5908 0.950 . S
H5886 C5909 0.950 . S
H5887 C5911 0.950 . S
H5888 C5912 0.950 . S
H5889 C5913 0.951 . S
H5890 C5915 0.951 . S
H5891 C5917 0.950 . S
H5892 C5918 0.950 . S
H5893 C5920 0.950 . S
H5894 C5923 0.950 . S
H5895 C5924 0.950 . S
H5896 C5926 0.950 . S
H5897 C5927 0.950 . S
C5898 H5880 0.951 . S
C5898 C5899 1.366 . S
C5898 C5900 1.388 . S
C5899 C5898 1.366 . S
C5899 C5903 1.385 . S
C5900 H5881 0.951 . S
C5900 C5898 1.388 . S
C5900 C5901 1.366 . S
C5901 C5900 1.366 . S
C5901 C5902 1.414 . S
C5901 C5904 1.499 . S
C5902 H5882 0.950 . S
C5902 C5901 1.414 . S
C5902 C5903 1.374 . S
C5903 H5883 0.950 . S
C5903 C5899 1.385 . S
C5903 C5902 1.374 . S
C5904 C5901 1.499 . S
C5904 C5905 1.373 . S
C5904 C5906 1.389 . S
C5905 H5884 0.950 . S
C5905 C5904 1.373 . S
C5905 C5921 1.377 . S
C5906 C5904 1.389 . S
C5906 C5907 1.524 . S
C5906 C5920 1.377 . S
C5907 C5906 1.524 . S
C5907 C5908 1.397 . S
C5907 C5912 1.363 . S
C5908 H5885 0.950 . S
C5908 C5907 1.397 . S
C5908 C5909 1.334 . S
C5909 H5886 0.950 . S
C5909 C5908 1.334 . S
C5909 C5910 1.287 . S
C5910 C5909 1.287 . S
C5910 C5911 1.524 . S
C5910 H5929 0.913 . S
C5911 H5887 0.950 . S
C5911 C5910 1.524 . S
C5911 C5912 1.415 . S
C5912 H5888 0.950 . S
C5912 C5907 1.363 . S
C5912 C5911 1.415 . S
C5913 H5889 0.951 . S
C5913 C5914 1.366 . S
C5913 C5915 1.388 . S
C5914 C5913 1.366 . S
C5914 C5918 1.385 . S
C5915 H5890 0.951 . S
C5915 C5913 1.388 . S
C5915 C5916 1.366 . S
C5916 C5915 1.366 . S
C5916 C5917 1.414 . S
C5916 C5919 1.499 . S
C5917 H5891 0.950 . S
C5917 C5916 1.414 . S
C5917 C5918 1.374 . S
C5918 H5892 0.950 . S
C5918 C5914 1.385 . S
C5918 C5917 1.374 . S
C5919 C5916 1.499 . S
C5919 C5920 1.373 . S
C5919 C5921 1.389 . S
C5920 H5893 0.950 . S
C5920 C5906 1.377 . S
C5920 C5919 1.373 . S
C5921 C5905 1.377 . S
C5921 C5919 1.389 . S
C5921 C5922 1.524 . S
C5922 C5921 1.524 . S
C5922 C5923 1.397 . S
C5922 C5927 1.363 . S
C5923 H5894 0.950 . S
C5923 C5922 1.397 . S
C5923 C5924 1.334 . S
C5924 H5895 0.950 . S
C5924 C5923 1.334 . S
C5924 C5925 1.287 . S
C5925 C5924 1.287 . S
C5925 C5926 1.524 . S
C5925 H5928 0.999 . S
C5926 H5896 0.950 . S
C5926 C5925 1.524 . S
C5926 C5927 1.415 . S
C5927 H5897 0.950 . S
C5927 C5922 1.363 . S
C5927 C5926 1.415 . S
H5928 C5925 0.999 . S
H5929 C5910 0.913 . S
H5930 C5948 0.951 . S
H5931 C5950 0.951 . S
H5932 C5952 0.950 . S
H5933 C5953 0.950 . S
H5934 C5955 0.950 . S
H5935 C5958 0.950 . S
H5936 C5959 0.950 . S
H5937 C5961 0.950 . S
H5938 C5962 0.950 . S
H5939 C5963 0.951 . S
H5940 C5965 0.951 . S
H5941 C5967 0.950 . S
H5942 C5968 0.950 . S
H5943 C5970 0.950 . S
H5944 C5973 0.950 . S
H5945 C5974 0.950 . S
H5946 C5976 0.950 . S
H5947 C5977 0.950 . S
C5948 H5930 0.951 . S
C5948 C5949 1.366 . S
C5948 C5950 1.388 . S
C5949 C5948 1.366 . S
C5949 C5953 1.385 . S
C5950 H5931 0.951 . S
C5950 C5948 1.388 . S
C5950 C5951 1.366 . S
C5951 C5950 1.366 . S
C5951 C5952 1.414 . S
C5951 C5954 1.499 . S
C5952 H5932 0.950 . S
C5952 C5951 1.414 . S
C5952 C5953 1.374 . S
C5953 H5933 0.950 . S
C5953 C5949 1.385 . S
C5953 C5952 1.374 . S
C5954 C5951 1.499 . S
C5954 C5955 1.373 . S
C5954 C5956 1.389 . S
C5955 H5934 0.950 . S
C5955 C5954 1.373 . S
C5955 C5971 1.377 . S
C5956 C5954 1.389 . S
C5956 C5957 1.524 . S
C5956 C5970 1.377 . S
C5957 C5956 1.524 . S
C5957 C5958 1.397 . S
C5957 C5962 1.363 . S
C5958 H5935 0.950 . S
C5958 C5957 1.397 . S
C5958 C5959 1.334 . S
C5959 H5936 0.950 . S
C5959 C5958 1.334 . S
C5959 C5960 1.287 . S
C5960 C5959 1.287 . S
C5960 C5961 1.524 . S
C5960 H5979 0.913 . S
C5961 H5937 0.950 . S
C5961 C5960 1.524 . S
C5961 C5962 1.415 . S
C5962 H5938 0.950 . S
C5962 C5957 1.363 . S
C5962 C5961 1.415 . S
C5963 H5939 0.951 . S
C5963 C5964 1.366 . S
C5963 C5965 1.388 . S
C5964 C5963 1.366 . S
C5964 C5968 1.385 . S
C5965 H5940 0.951 . S
C5965 C5963 1.388 . S
C5965 C5966 1.366 . S
C5966 C5965 1.366 . S
C5966 C5967 1.414 . S
C5966 C5969 1.499 . S
C5967 H5941 0.950 . S
C5967 C5966 1.414 . S
C5967 C5968 1.374 . S
C5968 H5942 0.950 . S
C5968 C5964 1.385 . S
C5968 C5967 1.374 . S
C5969 C5966 1.499 . S
C5969 C5970 1.373 . S
C5969 C5971 1.389 . S
C5970 H5943 0.950 . S
C5970 C5956 1.377 . S
C5970 C5969 1.373 . S
C5971 C5955 1.377 . S
C5971 C5969 1.389 . S
C5971 C5972 1.524 . S
C5972 C5971 1.524 . S
C5972 C5973 1.397 . S
C5972 C5977 1.363 . S
C5973 H5944 0.950 . S
C5973 C5972 1.397 . S
C5973 C5974 1.334 . S
C5974 H5945 0.950 . S
C5974 C5973 1.334 . S
C5974 C5975 1.287 . S
C5975 C5974 1.287 . S
C5975 C5976 1.524 . S
C5975 H5978 0.999 . S
C5976 H5946 0.950 . S
C5976 C5975 1.524 . S
C5976 C5977 1.415 . S
C5977 H5947 0.950 . S
C5977 C5972 1.363 . S
C5977 C5976 1.415 . S
H5978 C5975 0.999 . S
H5979 C5960 0.913 . S
H5980 C5998 0.951 . S
H5981 C6000 0.951 . S
H5982 C6002 0.950 . S
H5983 C6003 0.950 . S
H5984 C6005 0.950 . S
H5985 C6008 0.950 . S
H5986 C6009 0.950 . S
H5987 C6011 0.950 . S
H5988 C6012 0.950 . S
H5989 C6013 0.951 . S
H5990 C6015 0.951 . S
H5991 C6017 0.950 . S
H5992 C6018 0.950 . S
H5993 C6020 0.950 . S
H5994 C6023 0.950 . S
H5995 C6024 0.950 . S
H5996 C6026 0.950 . S
H5997 C6027 0.950 . S
C5998 H5980 0.951 . S
C5998 C5999 1.366 . S
C5998 C6000 1.388 . S
C5999 C5998 1.366 . S
C5999 C6003 1.385 . S
C6000 H5981 0.951 . S
C6000 C5998 1.388 . S
C6000 C6001 1.366 . S
C6001 C6000 1.366 . S
C6001 C6002 1.414 . S
C6001 C6004 1.499 . S
C6002 H5982 0.950 . S
C6002 C6001 1.414 . S
C6002 C6003 1.374 . S
C6003 H5983 0.950 . S
C6003 C5999 1.385 . S
C6003 C6002 1.374 . S
C6004 C6001 1.499 . S
C6004 C6005 1.373 . S
C6004 C6006 1.389 . S
C6005 H5984 0.950 . S
C6005 C6004 1.373 . S
C6005 C6021 1.377 . S
C6006 C6004 1.389 . S
C6006 C6007 1.524 . S
C6006 C6020 1.377 . S
C6007 C6006 1.524 . S
C6007 C6008 1.397 . S
C6007 C6012 1.363 . S
C6008 H5985 0.950 . S
C6008 C6007 1.397 . S
C6008 C6009 1.334 . S
C6009 H5986 0.950 . S
C6009 C6008 1.334 . S
C6009 C6010 1.287 . S
C6010 C6009 1.287 . S
C6010 C6011 1.524 . S
C6010 H6029 0.913 . S
C6011 H5987 0.950 . S
C6011 C6010 1.524 . S
C6011 C6012 1.415 . S
C6012 H5988 0.950 . S
C6012 C6007 1.363 . S
C6012 C6011 1.415 . S
C6013 H5989 0.951 . S
C6013 C6014 1.366 . S
C6013 C6015 1.388 . S
C6014 C6013 1.366 . S
C6014 C6018 1.385 . S
C6015 H5990 0.951 . S
C6015 C6013 1.388 . S
C6015 C6016 1.366 . S
C6016 C6015 1.366 . S
C6016 C6017 1.414 . S
C6016 C6019 1.499 . S
C6017 H5991 0.950 . S
C6017 C6016 1.414 . S
C6017 C6018 1.374 . S
C6018 H5992 0.950 . S
C6018 C6014 1.385 . S
C6018 C6017 1.374 . S
C6019 C6016 1.499 . S
C6019 C6020 1.373 . S
C6019 C6021 1.389 . S
C6020 H5993 0.950 . S
C6020 C6006 1.377 . S
C6020 C6019 1.373 . S
C6021 C6005 1.377 . S
C6021 C6019 1.389 . S
C6021 C6022 1.524 . S
C6022 C6021 1.524 . S
C6022 C6023 1.397 . S
C6022 C6027 1.363 . S
C6023 H5994 0.950 . S
C6023 C6022 1.397 . S
C6023 C6024 1.334 . S
C6024 H5995 0.950 . S
C6024 C6023 1.334 . S
C6024 C6025 1.287 . S
C6025 C6024 1.287 . S
C6025 C6026 1.524 . S
C6025 H6028 0.999 . S
C6026 H5996 0.950 . S
C6026 C6025 1.524 . S
C6026 C6027 1.415 . S
C6027 H5997 0.950 . S
C6027 C6022 1.363 . S
C6027 C6026 1.415 . S
H6028 C6025 0.999 . S
H6029 C6010 0.913 . S
H6030 C6048 0.951 . S
H6031 C6050 0.951 . S
H6032 C6052 0.950 . S
H6033 C6053 0.950 . S
H6034 C6055 0.950 . S
H6035 C6058 0.950 . S
H6036 C6059 0.950 . S
H6037 C6061 0.950 . S
H6038 C6062 0.950 . S
H6039 C6063 0.951 . S
H6040 C6065 0.951 . S
H6041 C6067 0.950 . S
H6042 C6068 0.950 . S
H6043 C6070 0.950 . S
H6044 C6073 0.950 . S
H6045 C6074 0.950 . S
H6046 C6076 0.950 . S
H6047 C6077 0.950 . S
C6048 H6030 0.951 . S
C6048 C6049 1.366 . S
C6048 C6050 1.388 . S
C6049 C6048 1.366 . S
C6049 C6053 1.385 . S
C6050 H6031 0.951 . S
C6050 C6048 1.388 . S
C6050 C6051 1.366 . S
C6051 C6050 1.366 . S
C6051 C6052 1.414 . S
C6051 C6054 1.499 . S
C6052 H6032 0.950 . S
C6052 C6051 1.414 . S
C6052 C6053 1.374 . S
C6053 H6033 0.950 . S
C6053 C6049 1.385 . S
C6053 C6052 1.374 . S
C6054 C6051 1.499 . S
C6054 C6055 1.373 . S
C6054 C6056 1.389 . S
C6055 H6034 0.950 . S
C6055 C6054 1.373 . S
C6055 C6071 1.377 . S
C6056 C6054 1.389 . S
C6056 C6057 1.524 . S
C6056 C6070 1.377 . S
C6057 C6056 1.524 . S
C6057 C6058 1.397 . S
C6057 C6062 1.363 . S
C6058 H6035 0.950 . S
C6058 C6057 1.397 . S
C6058 C6059 1.334 . S
C6059 H6036 0.950 . S
C6059 C6058 1.334 . S
C6059 C6060 1.287 . S
C6060 C6059 1.287 . S
C6060 C6061 1.524 . S
C6060 H6079 0.913 . S
C6061 H6037 0.950 . S
C6061 C6060 1.524 . S
C6061 C6062 1.415 . S
C6062 H6038 0.950 . S
C6062 C6057 1.363 . S
C6062 C6061 1.415 . S
C6063 H6039 0.951 . S
C6063 C6064 1.366 . S
C6063 C6065 1.388 . S
C6064 C6063 1.366 . S
C6064 C6068 1.385 . S
C6065 H6040 0.951 . S
C6065 C6063 1.388 . S
C6065 C6066 1.366 . S
C6066 C6065 1.366 . S
C6066 C6067 1.414 . S
C6066 C6069 1.499 . S
C6067 H6041 0.950 . S
C6067 C6066 1.414 . S
C6067 C6068 1.374 . S
C6068 H6042 0.950 . S
C6068 C6064 1.385 . S
C6068 C6067 1.374 . S
C6069 C6066 1.499 . S
C6069 C6070 1.373 . S
C6069 C6071 1.389 . S
C6070 H6043 0.950 . S
C6070 C6056 1.377 . S
C6070 C6069 1.373 . S
C6071 C6055 1.377 . S
C6071 C6069 1.389 . S
C6071 C6072 1.524 . S
C6072 C6071 1.524 . S
C6072 C6073 1.397 . S
C6072 C6077 1.363 . S
C6073 H6044 0.950 . S
C6073 C6072 1.397 . S
C6073 C6074 1.334 . S
C6074 H6045 0.950 . S
C6074 C6073 1.334 . S
C6074 C6075 1.287 . S
C6075 C6074 1.287 . S
C6075 C6076 1.524 . S
C6075 H6078 0.999 . S
C6076 H6046 0.950 . S
C6076 C6075 1.524 . S
C6076 C6077 1.415 . S
C6077 H6047 0.950 . S
C6077 C6072 1.363 . S
C6077 C6076 1.415 . S
H6078 C6075 0.999 . S
H6079 C6060 0.913 . S
H6080 C6098 0.951 . S
H6081 C6100 0.951 . S
H6082 C6102 0.950 . S
H6083 C6103 0.950 . S
H6084 C6105 0.950 . S
H6085 C6108 0.950 . S
H6086 C6109 0.950 . S
H6087 C6111 0.950 . S
H6088 C6112 0.950 . S
H6089 C6113 0.951 . S
H6090 C6115 0.951 . S
H6091 C6117 0.950 . S
H6092 C6118 0.950 . S
H6093 C6120 0.950 . S
H6094 C6123 0.950 . S
H6095 C6124 0.950 . S
H6096 C6126 0.950 . S
H6097 C6127 0.950 . S
C6098 H6080 0.951 . S
C6098 C6099 1.366 . S
C6098 C6100 1.388 . S
C6099 C6098 1.366 . S
C6099 C6103 1.385 . S
C6100 H6081 0.951 . S
C6100 C6098 1.388 . S
C6100 C6101 1.366 . S
C6101 C6100 1.366 . S
C6101 C6102 1.414 . S
C6101 C6104 1.499 . S
C6102 H6082 0.950 . S
C6102 C6101 1.414 . S
C6102 C6103 1.374 . S
C6103 H6083 0.950 . S
C6103 C6099 1.385 . S
C6103 C6102 1.374 . S
C6104 C6101 1.499 . S
C6104 C6105 1.373 . S
C6104 C6106 1.389 . S
C6105 H6084 0.950 . S
C6105 C6104 1.373 . S
C6105 C6121 1.377 . S
C6106 C6104 1.389 . S
C6106 C6107 1.524 . S
C6106 C6120 1.377 . S
C6107 C6106 1.524 . S
C6107 C6108 1.397 . S
C6107 C6112 1.363 . S
C6108 H6085 0.950 . S
C6108 C6107 1.397 . S
C6108 C6109 1.334 . S
C6109 H6086 0.950 . S
C6109 C6108 1.334 . S
C6109 C6110 1.287 . S
C6110 C6109 1.287 . S
C6110 C6111 1.524 . S
C6110 H6129 0.913 . S
C6111 H6087 0.950 . S
C6111 C6110 1.524 . S
C6111 C6112 1.415 . S
C6112 H6088 0.950 . S
C6112 C6107 1.363 . S
C6112 C6111 1.415 . S
C6113 H6089 0.951 . S
C6113 C6114 1.366 . S
C6113 C6115 1.388 . S
C6114 C6113 1.366 . S
C6114 C6118 1.385 . S
C6115 H6090 0.951 . S
C6115 C6113 1.388 . S
C6115 C6116 1.366 . S
C6116 C6115 1.366 . S
C6116 C6117 1.414 . S
C6116 C6119 1.499 . S
C6117 H6091 0.950 . S
C6117 C6116 1.414 . S
C6117 C6118 1.374 . S
C6118 H6092 0.950 . S
C6118 C6114 1.385 . S
C6118 C6117 1.374 . S
C6119 C6116 1.499 . S
C6119 C6120 1.373 . S
C6119 C6121 1.389 . S
C6120 H6093 0.950 . S
C6120 C6106 1.377 . S
C6120 C6119 1.373 . S
C6121 C6105 1.377 . S
C6121 C6119 1.389 . S
C6121 C6122 1.524 . S
C6122 C6121 1.524 . S
C6122 C6123 1.397 . S
C6122 C6127 1.363 . S
C6123 H6094 0.950 . S
C6123 C6122 1.397 . S
C6123 C6124 1.334 . S
C6124 H6095 0.950 . S
C6124 C6123 1.334 . S
C6124 C6125 1.287 . S
C6125 C6124 1.287 . S
C6125 C6126 1.524 . S
C6125 H6128 0.999 . S
C6126 H6096 0.950 . S
C6126 C6125 1.524 . S
C6126 C6127 1.415 . S
C6127 H6097 0.950 . S
C6127 C6122 1.363 . S
C6127 C6126 1.415 . S
H6128 C6125 0.999 . S
H6129 C6110 0.913 . S
H6130 C6148 0.951 . S
H6131 C6150 0.951 . S
H6132 C6152 0.950 . S
H6133 C6153 0.950 . S
H6134 C6155 0.950 . S
H6135 C6158 0.950 . S
H6136 C6159 0.950 . S
H6137 C6161 0.950 . S
H6138 C6162 0.950 . S
H6139 C6163 0.951 . S
H6140 C6165 0.951 . S
H6141 C6167 0.950 . S
H6142 C6168 0.946 . S
H6143 C6170 0.950 . S
H6144 C6173 0.950 . S
H6145 C6174 0.950 . S
H6146 C6176 0.950 . S
H6147 C6177 0.950 . S
C6148 H6130 0.951 . S
C6148 C6149 1.366 . S
C6148 C6150 1.388 . S
C6149 C6148 1.366 . S
C6149 C6153 1.385 . S
C6150 H6131 0.951 . S
C6150 C6148 1.388 . S
C6150 C6151 1.366 . S
C6151 C6150 1.366 . S
C6151 C6152 1.414 . S
C6151 C6154 1.499 . S
C6152 H6132 0.950 . S
C6152 C6151 1.414 . S
C6152 C6153 1.374 . S
C6153 H6133 0.950 . S
C6153 C6149 1.385 . S
C6153 C6152 1.374 . S
C6154 C6151 1.499 . S
C6154 C6155 1.373 . S
C6154 C6156 1.389 . S
C6155 H6134 0.950 . S
C6155 C6154 1.373 . S
C6155 C6171 1.377 . S
C6156 C6154 1.389 . S
C6156 C6157 1.524 . S
C6156 C6170 1.377 . S
C6157 C6156 1.524 . S
C6157 C6158 1.397 . S
C6157 C6162 1.363 . S
C6158 H6135 0.950 . S
C6158 C6157 1.397 . S
C6158 C6159 1.334 . S
C6159 H6136 0.950 . S
C6159 C6158 1.334 . S
C6159 C6160 1.287 . S
C6160 C6159 1.287 . S
C6160 C6161 1.524 . S
C6160 H6179 0.913 . S
C6161 H6137 0.950 . S
C6161 C6160 1.524 . S
C6161 C6162 1.415 . S
C6162 H6138 0.950 . S
C6162 C6157 1.363 . S
C6162 C6161 1.415 . S
C6163 H6139 0.951 . S
C6163 C6164 1.366 . S
C6163 C6165 1.388 . S
C6164 C6163 1.366 . S
C6164 C6168 1.387 1_565 S
C6165 H6140 0.951 . S
C6165 C6163 1.388 . S
C6165 C6166 1.366 . S
C6166 C6165 1.366 . S
C6166 C6167 1.414 . S
C6166 C6169 1.499 . S
C6167 H6141 0.950 . S
C6167 C6166 1.414 . S
C6167 C6168 1.375 1_565 S
C6168 H6142 0.946 . S
C6168 C6164 1.387 1_545 S
C6168 C6167 1.375 1_545 S
C6169 C6166 1.499 . S
C6169 C6170 1.373 . S
C6169 C6171 1.389 . S
C6170 H6143 0.950 . S
C6170 C6156 1.377 . S
C6170 C6169 1.373 . S
C6171 C6155 1.377 . S
C6171 C6169 1.389 . S
C6171 C6172 1.524 . S
C6172 C6171 1.524 . S
C6172 C6173 1.397 . S
C6172 C6177 1.363 . S
C6173 H6144 0.950 . S
C6173 C6172 1.397 . S
C6173 C6174 1.334 . S
C6174 H6145 0.950 . S
C6174 C6173 1.334 . S
C6174 C6175 1.287 . S
C6175 C6174 1.287 . S
C6175 C6176 1.524 . S
C6175 H6178 0.999 . S
C6176 H6146 0.950 . S
C6176 C6175 1.524 . S
C6176 C6177 1.415 . S
C6177 H6147 0.950 . S
C6177 C6172 1.363 . S
C6177 C6176 1.415 . S
H6178 C6175 0.999 . S
H6179 C6160 0.913 . S
H6180 C6198 0.951 . S
H6181 C6200 0.951 . S
H6182 C6202 0.950 . S
H6183 C6203 0.950 . S
H6184 C6205 0.950 . S
H6185 C6208 0.950 . S
H6186 C6209 0.950 . S
H6187 C6211 0.950 . S
H6188 C6212 0.950 . S
H6189 C6213 0.951 . S
H6190 C6215 0.951 . S
H6191 C6217 0.950 . S
H6192 C6218 0.950 . S
H6193 C6220 0.950 . S
H6194 C6223 0.950 . S
H6195 C6224 0.950 . S
H6196 C6226 0.950 . S
H6197 C6227 0.950 . S
C6198 H6180 0.951 . S
C6198 C6199 1.366 . S
C6198 C6200 1.388 . S
C6199 C6198 1.366 . S
C6199 C6203 1.385 . S
C6200 H6181 0.951 . S
C6200 C6198 1.388 . S
C6200 C6201 1.366 . S
C6201 C6200 1.366 . S
C6201 C6202 1.414 . S
C6201 C6204 1.499 . S
C6202 H6182 0.950 . S
C6202 C6201 1.414 . S
C6202 C6203 1.374 . S
C6203 H6183 0.950 . S
C6203 C6199 1.385 . S
C6203 C6202 1.374 . S
C6204 C6201 1.499 . S
C6204 C6205 1.373 . S
C6204 C6206 1.389 . S
C6205 H6184 0.950 . S
C6205 C6204 1.373 . S
C6205 C6221 1.377 . S
C6206 C6204 1.389 . S
C6206 C6207 1.524 . S
C6206 C6220 1.377 . S
C6207 C6206 1.524 . S
C6207 C6208 1.397 . S
C6207 C6212 1.363 . S
C6208 H6185 0.950 . S
C6208 C6207 1.397 . S
C6208 C6209 1.334 . S
C6209 H6186 0.950 . S
C6209 C6208 1.334 . S
C6209 C6210 1.287 . S
C6210 C6209 1.287 . S
C6210 C6211 1.524 . S
C6210 H6229 0.913 . S
C6211 H6187 0.950 . S
C6211 C6210 1.524 . S
C6211 C6212 1.415 . S
C6212 H6188 0.950 . S
C6212 C6207 1.363 . S
C6212 C6211 1.415 . S
C6213 H6189 0.951 . S
C6213 C6214 1.366 . S
C6213 C6215 1.388 . S
C6214 C6213 1.366 . S
C6214 C6218 1.385 . S
C6215 H6190 0.951 . S
C6215 C6213 1.388 . S
C6215 C6216 1.366 . S
C6216 C6215 1.366 . S
C6216 C6217 1.414 . S
C6216 C6219 1.499 . S
C6217 H6191 0.950 . S
C6217 C6216 1.414 . S
C6217 C6218 1.374 . S
C6218 H6192 0.950 . S
C6218 C6214 1.385 . S
C6218 C6217 1.374 . S
C6219 C6216 1.499 . S
C6219 C6220 1.373 . S
C6219 C6221 1.389 . S
C6220 H6193 0.950 . S
C6220 C6206 1.377 . S
C6220 C6219 1.373 . S
C6221 C6205 1.377 . S
C6221 C6219 1.389 . S
C6221 C6222 1.524 . S
C6222 C6221 1.524 . S
C6222 C6223 1.397 . S
C6222 C6227 1.363 . S
C6223 H6194 0.950 . S
C6223 C6222 1.397 . S
C6223 C6224 1.334 . S
C6224 H6195 0.950 . S
C6224 C6223 1.334 . S
C6224 C6225 1.287 . S
C6225 C6224 1.287 . S
C6225 C6226 1.524 . S
C6225 H6228 0.999 . S
C6226 H6196 0.950 . S
C6226 C6225 1.524 . S
C6226 C6227 1.415 . S
C6227 H6197 0.950 . S
C6227 C6222 1.363 . S
C6227 C6226 1.415 . S
H6228 C6225 0.999 . S
H6229 C6210 0.913 . S
H6230 C6248 0.951 . S
H6231 C6250 0.951 . S
H6232 C6252 0.950 . S
H6233 C6253 0.950 . S
H6234 C6255 0.950 . S
H6235 C6258 0.950 . S
H6236 C6259 0.950 . S
H6237 C6261 0.950 . S
H6238 C6262 0.950 . S
H6239 C6263 0.951 . S
H6240 C6265 0.951 . S
H6241 C6267 0.950 . S
H6242 C6268 0.950 . S
H6243 C6270 0.950 . S
H6244 C6273 0.950 . S
H6245 C6274 0.950 . S
H6246 C6276 0.950 . S
H6247 C6277 0.950 . S
C6248 H6230 0.951 . S
C6248 C6249 1.366 . S
C6248 C6250 1.388 . S
C6249 C6248 1.366 . S
C6249 C6253 1.385 . S
C6250 H6231 0.951 . S
C6250 C6248 1.388 . S
C6250 C6251 1.366 . S
C6251 C6250 1.366 . S
C6251 C6252 1.414 . S
C6251 C6254 1.499 . S
C6252 H6232 0.950 . S
C6252 C6251 1.414 . S
C6252 C6253 1.374 . S
C6253 H6233 0.950 . S
C6253 C6249 1.385 . S
C6253 C6252 1.374 . S
C6254 C6251 1.499 . S
C6254 C6255 1.373 . S
C6254 C6256 1.389 . S
C6255 H6234 0.950 . S
C6255 C6254 1.373 . S
C6255 C6271 1.377 . S
C6256 C6254 1.389 . S
C6256 C6257 1.524 . S
C6256 C6270 1.377 . S
C6257 C6256 1.524 . S
C6257 C6258 1.397 . S
C6257 C6262 1.363 . S
C6258 H6235 0.950 . S
C6258 C6257 1.397 . S
C6258 C6259 1.334 . S
C6259 H6236 0.950 . S
C6259 C6258 1.334 . S
C6259 C6260 1.287 . S
C6260 C6259 1.287 . S
C6260 C6261 1.524 . S
C6260 H6279 0.913 . S
C6261 H6237 0.950 . S
C6261 C6260 1.524 . S
C6261 C6262 1.415 . S
C6262 H6238 0.950 . S
C6262 C6257 1.363 . S
C6262 C6261 1.415 . S
C6263 H6239 0.951 . S
C6263 C6264 1.366 . S
C6263 C6265 1.388 . S
C6264 C6263 1.366 . S
C6264 C6268 1.385 . S
C6265 H6240 0.951 . S
C6265 C6263 1.388 . S
C6265 C6266 1.366 . S
C6266 C6265 1.366 . S
C6266 C6267 1.414 . S
C6266 C6269 1.499 . S
C6267 H6241 0.950 . S
C6267 C6266 1.414 . S
C6267 C6268 1.374 . S
C6268 H6242 0.950 . S
C6268 C6264 1.385 . S
C6268 C6267 1.374 . S
C6269 C6266 1.499 . S
C6269 C6270 1.373 . S
C6269 C6271 1.389 . S
C6270 H6243 0.950 . S
C6270 C6256 1.377 . S
C6270 C6269 1.373 . S
C6271 C6255 1.377 . S
C6271 C6269 1.389 . S
C6271 C6272 1.524 . S
C6272 C6271 1.524 . S
C6272 C6273 1.397 . S
C6272 C6277 1.363 . S
C6273 H6244 0.950 . S
C6273 C6272 1.397 . S
C6273 C6274 1.334 1_554 S
C6274 H6245 0.950 . S
C6274 C6273 1.334 1_556 S
C6274 C6275 1.292 . S
C6275 C6274 1.292 . S
C6275 C6276 1.503 1_556 S
C6275 H6278 0.985 1_545 S
C6276 H6246 0.950 . S
C6276 C6275 1.503 1_554 S
C6276 C6277 1.415 . S
C6277 H6247 0.950 . S
C6277 C6272 1.363 . S
C6277 C6276 1.415 . S
H6278 C6275 0.985 1_565 S
H6279 C6260 0.913 . S
H6280 C6298 0.951 . S
H6281 C6300 0.951 . S
H6282 C6302 0.950 . S
H6283 C6303 0.950 . S
H6284 C6305 0.950 . S
H6285 C6308 0.950 . S
H6286 C6309 0.950 . S
H6287 C6311 0.950 . S
H6288 C6312 0.950 . S
H6289 C6313 0.951 . S
H6290 C6315 0.951 . S
H6291 C6317 0.950 . S
H6292 C6318 0.950 . S
H6293 C6320 0.950 . S
H6294 C6323 0.950 . S
H6295 C6324 0.950 . S
H6296 C6326 0.950 . S
H6297 C6327 0.950 . S
C6298 H6280 0.951 . S
C6298 C6299 1.366 . S
C6298 C6300 1.388 . S
C6299 C6298 1.366 . S
C6299 C6303 1.385 . S
C6300 H6281 0.951 . S
C6300 C6298 1.388 . S
C6300 C6301 1.366 . S
C6301 C6300 1.366 . S
C6301 C6302 1.414 . S
C6301 C6304 1.499 . S
C6302 H6282 0.950 . S
C6302 C6301 1.414 . S
C6302 C6303 1.374 . S
C6303 H6283 0.950 . S
C6303 C6299 1.385 . S
C6303 C6302 1.374 . S
C6304 C6301 1.499 . S
C6304 C6305 1.373 . S
C6304 C6306 1.389 . S
C6305 H6284 0.950 . S
C6305 C6304 1.373 . S
C6305 C6321 1.377 . S
C6306 C6304 1.389 . S
C6306 C6307 1.524 . S
C6306 C6320 1.377 . S
C6307 C6306 1.524 . S
C6307 C6308 1.397 . S
C6307 C6312 1.363 . S
C6308 H6285 0.950 . S
C6308 C6307 1.397 . S
C6308 C6309 1.334 . S
C6309 H6286 0.950 . S
C6309 C6308 1.334 . S
C6309 C6310 1.287 . S
C6310 C6309 1.287 . S
C6310 C6311 1.524 . S
C6310 H6329 0.913 . S
C6311 H6287 0.950 . S
C6311 C6310 1.524 . S
C6311 C6312 1.415 . S
C6312 H6288 0.950 . S
C6312 C6307 1.363 . S
C6312 C6311 1.415 . S
C6313 H6289 0.951 . S
C6313 C6314 1.366 . S
C6313 C6315 1.388 . S
C6314 C6313 1.366 . S
C6314 C6318 1.385 . S
C6315 H6290 0.951 . S
C6315 C6313 1.388 . S
C6315 C6316 1.366 . S
C6316 C6315 1.366 . S
C6316 C6317 1.414 . S
C6316 C6319 1.499 . S
C6317 H6291 0.950 . S
C6317 C6316 1.414 . S
C6317 C6318 1.374 . S
C6318 H6292 0.950 . S
C6318 C6314 1.385 . S
C6318 C6317 1.374 . S
C6319 C6316 1.499 . S
C6319 C6320 1.373 . S
C6319 C6321 1.389 . S
C6320 H6293 0.950 . S
C6320 C6306 1.377 . S
C6320 C6319 1.373 . S
C6321 C6305 1.377 . S
C6321 C6319 1.389 . S
C6321 C6322 1.524 . S
C6322 C6321 1.524 . S
C6322 C6323 1.397 . S
C6322 C6327 1.363 . S
C6323 H6294 0.950 . S
C6323 C6322 1.397 . S
C6323 C6324 1.334 . S
C6324 H6295 0.950 . S
C6324 C6323 1.334 . S
C6324 C6325 1.287 . S
C6325 C6324 1.287 . S
C6325 C6326 1.524 . S
C6325 H6328 0.999 . S
C6326 H6296 0.950 . S
C6326 C6325 1.524 . S
C6326 C6327 1.415 . S
C6327 H6297 0.950 . S
C6327 C6322 1.363 . S
C6327 C6326 1.415 . S
H6328 C6325 0.999 . S
H6329 C6310 0.913 . S
H6330 C6348 0.951 . S
H6331 C6350 0.951 . S
H6332 C6352 0.950 . S
H6333 C6353 0.950 . S
H6334 C6355 0.950 . S
H6335 C6358 0.950 . S
H6336 C6359 0.950 . S
H6337 C6361 0.950 . S
H6338 C6362 0.950 . S
H6339 C6363 0.951 . S
H6340 C6365 0.951 . S
H6341 C6367 0.950 . S
H6342 C6368 0.950 . S
H6343 C6370 0.950 . S
H6344 C6373 0.950 . S
H6345 C6374 0.915 1_556 S
H6346 C6376 0.950 . S
H6347 C6377 0.950 . S
C6348 H6330 0.951 . S
C6348 C6349 1.366 . S
C6348 C6350 1.388 . S
C6349 C6348 1.366 . S
C6349 C6353 1.385 . S
C6350 H6331 0.951 . S
C6350 C6348 1.388 . S
C6350 C6351 1.366 . S
C6351 C6350 1.366 . S
C6351 C6352 1.414 . S
C6351 C6354 1.499 . S
C6352 H6332 0.950 . S
C6352 C6351 1.414 . S
C6352 C6353 1.374 . S
C6353 H6333 0.950 . S
C6353 C6349 1.385 . S
C6353 C6352 1.374 . S
C6354 C6351 1.499 . S
C6354 C6355 1.373 . S
C6354 C6356 1.389 . S
C6355 H6334 0.950 . S
C6355 C6354 1.373 . S
C6355 C6371 1.377 . S
C6356 C6354 1.389 . S
C6356 C6357 1.524 . S
C6356 C6370 1.377 . S
C6357 C6356 1.524 . S
C6357 C6358 1.397 . S
C6357 C6362 1.363 . S
C6358 H6335 0.950 . S
C6358 C6357 1.397 . S
C6358 C6359 1.334 . S
C6359 H6336 0.950 . S
C6359 C6358 1.334 . S
C6359 C6360 1.287 . S
C6360 C6359 1.287 . S
C6360 C6361 1.524 . S
C6360 H6379 0.913 . S
C6361 H6337 0.950 . S
C6361 C6360 1.524 . S
C6361 C6362 1.415 . S
C6362 H6338 0.950 . S
C6362 C6357 1.363 . S
C6362 C6361 1.415 . S
C6363 H6339 0.951 . S
C6363 C6364 1.366 . S
C6363 C6365 1.388 . S
C6364 C6363 1.366 . S
C6364 C6368 1.385 . S
C6365 H6340 0.951 . S
C6365 C6363 1.388 . S
C6365 C6366 1.366 . S
C6366 C6365 1.366 . S
C6366 C6367 1.414 . S
C6366 C6369 1.499 . S
C6367 H6341 0.950 . S
C6367 C6366 1.414 . S
C6367 C6368 1.374 . S
C6368 H6342 0.950 . S
C6368 C6364 1.385 . S
C6368 C6367 1.374 . S
C6369 C6366 1.499 . S
C6369 C6370 1.373 . S
C6369 C6371 1.389 . S
C6370 H6343 0.950 . S
C6370 C6356 1.377 . S
C6370 C6369 1.373 . S
C6371 C6355 1.377 . S
C6371 C6369 1.389 . S
C6371 C6372 1.524 . S
C6372 C6371 1.524 . S
C6372 C6373 1.397 . S
C6372 C6377 1.363 . S
C6373 H6344 0.950 . S
C6373 C6372 1.397 . S
C6373 C6374 1.334 . S
C6374 H6345 0.915 1_554 S
C6374 C6373 1.334 . S
C6374 C6375 1.287 . S
C6375 C6374 1.287 . S
C6375 C6376 1.524 . S
C6375 H6378 0.999 . S
C6376 H6346 0.950 . S
C6376 C6375 1.524 . S
C6376 C6377 1.415 . S
C6377 H6347 0.950 . S
C6377 C6372 1.363 . S
C6377 C6376 1.415 . S
H6378 C6375 0.999 . S
H6379 C6360 0.913 . S
H6380 C6398 0.951 . S
H6381 C6400 0.951 . S
H6382 C6402 0.950 . S
H6383 C6403 0.950 . S
H6384 C6405 0.950 . S
H6385 C6408 0.950 . S
H6386 C6409 0.950 . S
H6387 C6411 0.950 . S
H6388 C6412 0.950 . S
H6389 C6413 0.951 . S
H6390 C6415 0.951 . S
H6391 C6417 0.950 . S
H6392 C6418 0.950 . S
H6393 C6420 0.950 . S
H6394 C6423 0.950 . S
H6395 C6424 0.950 . S
H6396 C6426 0.950 . S
H6397 C6427 0.950 . S
C6398 H6380 0.951 . S
C6398 C6399 1.366 . S
C6398 C6400 1.388 . S
C6399 C6398 1.366 . S
C6399 C6403 1.385 . S
C6400 H6381 0.951 . S
C6400 C6398 1.388 . S
C6400 C6401 1.366 . S
C6401 C6400 1.366 . S
C6401 C6402 1.414 . S
C6401 C6404 1.499 . S
C6402 H6382 0.950 . S
C6402 C6401 1.414 . S
C6402 C6403 1.374 . S
C6403 H6383 0.950 . S
C6403 C6399 1.385 . S
C6403 C6402 1.374 . S
C6404 C6401 1.499 . S
C6404 C6405 1.373 . S
C6404 C6406 1.389 . S
C6405 H6384 0.950 . S
C6405 C6404 1.373 . S
C6405 C6421 1.377 . S
C6406 C6404 1.389 . S
C6406 C6407 1.524 . S
C6406 C6420 1.377 . S
C6407 C6406 1.524 . S
C6407 C6408 1.397 . S
C6407 C6412 1.363 . S
C6408 H6385 0.950 . S
C6408 C6407 1.397 . S
C6408 C6409 1.334 . S
C6409 H6386 0.950 . S
C6409 C6408 1.334 . S
C6409 C6410 1.287 . S
C6410 C6409 1.287 . S
C6410 C6411 1.524 . S
C6410 H6429 0.913 . S
C6411 H6387 0.950 . S
C6411 C6410 1.524 . S
C6411 C6412 1.415 . S
C6412 H6388 0.950 . S
C6412 C6407 1.363 . S
C6412 C6411 1.415 . S
C6413 H6389 0.951 . S
C6413 C6414 1.366 . S
C6413 C6415 1.388 . S
C6414 C6413 1.366 . S
C6414 C6418 1.385 . S
C6415 H6390 0.951 . S
C6415 C6413 1.388 . S
C6415 C6416 1.366 . S
C6416 C6415 1.366 . S
C6416 C6417 1.414 . S
C6416 C6419 1.499 . S
C6417 H6391 0.950 . S
C6417 C6416 1.414 . S
C6417 C6418 1.374 . S
C6418 H6392 0.950 . S
C6418 C6414 1.385 . S
C6418 C6417 1.374 . S
C6419 C6416 1.499 . S
C6419 C6420 1.373 . S
C6419 C6421 1.389 . S
C6420 H6393 0.950 . S
C6420 C6406 1.377 . S
C6420 C6419 1.373 . S
C6421 C6405 1.377 . S
C6421 C6419 1.389 . S
C6421 C6422 1.524 . S
C6422 C6421 1.524 . S
C6422 C6423 1.397 . S
C6422 C6427 1.363 . S
C6423 H6394 0.950 . S
C6423 C6422 1.397 . S
C6423 C6424 1.334 . S
C6424 H6395 0.950 . S
C6424 C6423 1.334 . S
C6424 C6425 1.287 . S
C6425 C6424 1.287 . S
C6425 C6426 1.524 . S
C6425 H6428 0.999 . S
C6426 H6396 0.950 . S
C6426 C6425 1.524 . S
C6426 C6427 1.415 . S
C6427 H6397 0.950 . S
C6427 C6422 1.363 . S
C6427 C6426 1.415 . S
H6428 C6425 0.999 . S
H6429 C6410 0.913 . S
H6430 C6448 0.951 . S
H6431 C6450 0.951 . S
H6432 C6452 0.950 . S
H6433 C6453 0.950 . S
H6434 C6455 0.950 . S
H6435 C6458 0.950 . S
H6436 C6459 0.950 . S
H6437 C6461 0.950 . S
H6438 C6462 0.950 . S
H6439 C6463 0.951 . S
H6440 C6465 0.951 . S
H6441 C6467 0.950 . S
H6442 C6468 0.950 . S
H6443 C6470 0.950 . S
H6444 C6473 0.950 . S
H6445 C6474 0.950 . S
H6446 C6476 0.950 . S
H6447 C6477 0.950 . S
C6448 H6430 0.951 . S
C6448 C6449 1.366 . S
C6448 C6450 1.388 . S
C6449 C6448 1.366 . S
C6449 C6453 1.385 . S
C6450 H6431 0.951 . S
C6450 C6448 1.388 . S
C6450 C6451 1.366 . S
C6451 C6450 1.366 . S
C6451 C6452 1.414 . S
C6451 C6454 1.499 . S
C6452 H6432 0.950 . S
C6452 C6451 1.414 . S
C6452 C6453 1.374 . S
C6453 H6433 0.950 . S
C6453 C6449 1.385 . S
C6453 C6452 1.374 . S
C6454 C6451 1.499 . S
C6454 C6455 1.373 . S
C6454 C6456 1.389 . S
C6455 H6434 0.950 . S
C6455 C6454 1.373 . S
C6455 C6471 1.377 . S
C6456 C6454 1.389 . S
C6456 C6457 1.524 . S
C6456 C6470 1.377 . S
C6457 C6456 1.524 . S
C6457 C6458 1.397 . S
C6457 C6462 1.363 . S
C6458 H6435 0.950 . S
C6458 C6457 1.397 . S
C6458 C6459 1.334 . S
C6459 H6436 0.950 . S
C6459 C6458 1.334 . S
C6459 C6460 1.287 . S
C6460 C6459 1.287 . S
C6460 C6461 1.524 . S
C6460 H6479 0.913 . S
C6461 H6437 0.950 . S
C6461 C6460 1.524 . S
C6461 C6462 1.415 . S
C6462 H6438 0.950 . S
C6462 C6457 1.363 . S
C6462 C6461 1.415 . S
C6463 H6439 0.951 . S
C6463 C6464 1.366 . S
C6463 C6465 1.388 . S
C6464 C6463 1.366 . S
C6464 C6468 1.385 . S
C6465 H6440 0.951 . S
C6465 C6463 1.388 . S
C6465 C6466 1.366 . S
C6466 C6465 1.366 . S
C6466 C6467 1.414 . S
C6466 C6469 1.499 . S
C6467 H6441 0.950 . S
C6467 C6466 1.414 . S
C6467 C6468 1.374 . S
C6468 H6442 0.950 . S
C6468 C6464 1.385 . S
C6468 C6467 1.374 . S
C6469 C6466 1.499 . S
C6469 C6470 1.373 . S
C6469 C6471 1.389 . S
C6470 H6443 0.950 . S
C6470 C6456 1.377 . S
C6470 C6469 1.373 . S
C6471 C6455 1.377 . S
C6471 C6469 1.389 . S
C6471 C6472 1.524 . S
C6472 C6471 1.524 . S
C6472 C6473 1.397 . S
C6472 C6477 1.363 . S
C6473 H6444 0.950 . S
C6473 C6472 1.397 . S
C6473 C6474 1.334 . S
C6474 H6445 0.950 . S
C6474 C6473 1.334 . S
C6474 C6475 1.287 . S
C6475 C6474 1.287 . S
C6475 C6476 1.524 . S
C6475 H6478 0.999 . S
C6476 H6446 0.950 . S
C6476 C6475 1.524 . S
C6476 C6477 1.415 . S
C6477 H6447 0.950 . S
C6477 C6472 1.363 . S
C6477 C6476 1.415 . S
H6478 C6475 0.999 . S
H6479 C6460 0.913 . S
C1699 C106 2.301 . S
C1714 C392 2.347 . S
C1749 C65 1.788 . S
C1764 C494 1.768 . S
C1799 C79 2.113 . S
C1814 C560 2.143 . S
C1864 C646 1.227 . S
C1849 C90 1.286 . S
C1899 C21 1.332 . S
C1914 C730 1.264 . S
C1964 C812 1.719 . S
C1949 C35 1.699 . S
C2014 C914 1.841 . S
C1999 C50 1.860 . S
C2049 C6 1.895 . S
C2064 C980 1.942 . S
C2114 C410 1.763 . S
C2099 C232 1.788 . S
C2149 C245 0.865 . S
C2164 C478 0.850 . S
C2214 C578 1.127 . S
C2199 C274 1.140 . S
C2264 C644 1.598 . S
C2249 C175 1.547 1_556 S
C2299 C231 1.394 . S
C2314 C728 1.421 . S
C2364 C830 1.029 . S
C2349 C246 1.039 . S
C2414 C898 0.758 . S
C2399 C273 0.762 . S
C2464 C998 1.668 . S
C2449 C176 1.690 . S
C2514 C394 0.910 . S
C2499 C160 0.915 . S
C2549 C289 1.662 . S
C2564 C1082 1.642 . S
C2614 C1150 1.321 . S
C2599 C328 1.343 . S
C2664 C1232 0.978 . S
C2649 C317 0.973 . S
C2699 C118 0.881 . S
C2714 C982 0.880 . S
C2749 C132 1.342 . S
C2764 C562 1.320 . S
C2799 C331 1.751 . S
C2814 C1334 1.728 . S
C2864 C1400 1.053 . S
C2849 C303 1.046 . S
C2914 C403 1.930 . S
C2899 C63 1.920 . S
C2964 C1407 2.241 . S
C2949 C107 2.213 . S
C2999 C92 1.965 . S
C3014 C571 2.005 . S
C3049 C78 1.936 . S
C3064 C1329 1.778 . S
C3114 C741 1.779 . S
C3099 C8 1.936 . S
C3149 C51 1.966 . S
C3164 C1159 2.005 . S
C3214 C903 2.240 . S
C3199 C37 2.212 . S
C3264 C1495 1.930 . S
C3249 C20 1.920 . S
C3314 C399 1.600 1_556 S
C3299 C147 1.602 . S
C3364 C1413 1.050 . S
C3349 C316 1.115 . S
C3399 C119 1.089 . S
C3414 C567 1.122 . S
C3449 C288 1.803 . S
C3464 C1327 1.816 . S
C3499 C148 1.803 . S
C3514 C739 1.817 . S
C3564 C1155 1.123 . S
C3549 C315 1.089 . S
C3599 C120 1.115 . S
C3614 C909 1.051 . S
C3649 C287 1.602 . S
C3664 C1491 1.599 . S
C3699 C188 0.781 . S
C3714 C405 0.775 . S
C3749 C177 2.025 . S
C3764 C1071 2.023 . S
C3799 C258 1.469 . S
C3814 C825 1.401 . S
C3849 C247 1.034 . S
C3864 C1243 1.041 . S
C3914 C1497 0.774 . S
C3899 C272 0.728 1_565 S
C3949 C216 1.216 . S
C3964 C573 1.173 . S
C4014 C651 2.023 . S
C3999 C261 2.025 . S
C4064 C487 1.040 . S
C4049 C205 1.034 . S
C4099 C76 1.895 . S
C4114 C1568 1.942 . S
C4164 C1418 1.841 . S
C4149 C93 1.861 . S
C4199 C105 1.703 1_455 S
C4214 C1652 1.719 . S
C4249 C62 1.332 1_655 S
C4264 C1318 1.264 . S
C4299 C49 1.286 . S
C4314 C1066 1.227 . S
C4364 C1148 2.143 . S
C4349 C9 2.113 1_655 S
C4414 C1250 1.768 . S
C4399 C22 1.787 . S
C4464 C1484 2.346 . S
C4449 C36 2.300 . S
C4514 C1586 1.667 . S
C4499 C260 1.690 . S
C4549 C189 0.761 1_556 S
C4564 C1402 0.759 . S
C4614 C1670 1.029 . S
C4599 C204 1.039 . S
C4664 C1316 1.421 . S
C4649 C217 1.394 . S
C4714 C1064 1.569 1_556 S
C4699 C259 1.562 . S
C4749 C190 1.141 . S
C4764 C1166 1.127 . S
C4814 C1234 0.852 . S
C4799 C203 0.864 . S
C4849 C218 1.788 . S
C4864 C1502 1.763 . S
C4914 C1570 0.880 . S
C4899 C314 0.881 . S
C4949 C135 1.751 . S
C4964 C746 1.728 . S
C5014 C814 1.280 . S
C4999 C146 1.288 . S
C5064 C896 1.053 . S
C5049 C163 1.044 . S
C5114 C1486 0.910 . S
C5099 C300 0.916 . S
C5149 C286 1.286 . S
C5164 C1654 1.280 . S
C5214 C662 1.642 . S
C5199 C149 1.662 . S
C5264 C476 0.978 . S
C5249 C121 0.973 . S
C5299 C91 1.907 . S
C5314 C1579 1.917 . S
C5364 C483 1.848 . S
C5349 C77 1.770 . S
C5399 C64 1.948 . S
C5414 C1663 1.989 . S
C5449 C104 1.547 . S
C5464 C657 1.462 . S
C5499 C34 1.548 . S
C5514 C1077 1.462 . S
C5564 C823 1.990 . S
C5549 C23 1.948 . S
C5599 C7 1.771 . S
C5614 C1239 1.848 . S
C5649 C48 1.907 . S
C5664 C991 1.917 . S
C5714 C1575 1.594 . S
C5699 C329 1.602 . S
C5749 C162 1.150 . S
C5764 C489 1.072 . S
C5814 C1659 1.130 1_655 S
C5799 C301 1.100 . S
C5849 C134 1.821 . S
C5864 C655 1.838 . S
C5899 C330 1.822 . S
C5914 C1075 1.838 . S
C5964 C819 1.130 . S
C5949 C161 1.108 . S
C5999 C302 1.151 . S
C6014 C1245 1.079 . S
C6064 C987 1.595 . S
C6049 C133 1.601 . S
C6114 C1581 0.957 . S
C6099 C244 0.997 . S
C6164 C735 1.973 1_565 S
C6149 C219 1.965 . S
C6199 C230 1.215 . S
C6214 C1161 1.172 . S
C6264 C907 1.004 . S
C6249 C191 0.997 . S
C6299 C202 0.997 . S
C6314 C993 0.958 . S
C6349 C174 1.469 . S
C6364 C1665 1.400 . S
C6414 C1323 1.973 . S
C6399 C233 1.964 . S
C6464 C1411 1.004 . S
C6449 C275 0.997 . S
