# Generated by pormake.
# Topology gar, (4,6)-cn, num edge types: 1
# Building blocks:
#     Node 0, Type 0, BuildingBlock: NAHDIM_clean_sbu_0, # of connection points: 4
#     Node 1, Type 0, BuildingBlock: NAHDIM_clean_sbu_0, # of connection points: 4
#     Node 2, Type 0, BuildingBlock: NAHDIM_clean_sbu_0, # of connection points: 4
#     Node 3, Type 0, BuildingBlock: NAHDIM_clean_sbu_0, # of connection points: 4
#     Node 4, Type 0, BuildingBlock: NAHDIM_clean_sbu_0, # of connection points: 4
#     Node 5, Type 0, BuildingBlock: NAHDIM_clean_sbu_0, # of connection points: 4
#     Node 6, Type 0, BuildingBlock: NAHDIM_clean_sbu_0, # of connection points: 4
#     Node 7, Type 0, BuildingBlock: NAHDIM_clean_sbu_0, # of connection points: 4
#     Node 8, Type 0, BuildingBlock: NAHDIM_clean_sbu_0, # of connection points: 4
#     Node 9, Type 0, BuildingBlock: NAHDIM_clean_sbu_0, # of connection points: 4
#     Node 10, Type 0, BuildingBlock: NAHDIM_clean_sbu_0, # of connection points: 4
#     Node 11, Type 0, BuildingBlock: NAHDIM_clean_sbu_0, # of connection points: 4
#     Node 12, Type 0, BuildingBlock: NAHDIM_clean_sbu_0, # of connection points: 4
#     Node 13, Type 0, BuildingBlock: NAHDIM_clean_sbu_0, # of connection points: 4
#     Node 14, Type 0, BuildingBlock: NAHDIM_clean_sbu_0, # of connection points: 4
#     Node 15, Type 0, BuildingBlock: NAHDIM_clean_sbu_0, # of connection points: 4
#     Node 16, Type 0, BuildingBlock: NAHDIM_clean_sbu_0, # of connection points: 4
#     Node 17, Type 0, BuildingBlock: NAHDIM_clean_sbu_0, # of connection points: 4
#     Node 18, Type 0, BuildingBlock: NAHDIM_clean_sbu_0, # of connection points: 4
#     Node 19, Type 0, BuildingBlock: NAHDIM_clean_sbu_0, # of connection points: 4
#     Node 20, Type 0, BuildingBlock: NAHDIM_clean_sbu_0, # of connection points: 4
#     Node 21, Type 0, BuildingBlock: NAHDIM_clean_sbu_0, # of connection points: 4
#     Node 22, Type 0, BuildingBlock: NAHDIM_clean_sbu_0, # of connection points: 4
#     Node 23, Type 0, BuildingBlock: NAHDIM_clean_sbu_0, # of connection points: 4
#     Node 24, Type 1, BuildingBlock: KUMJIN_clean_sbu_1, # of connection points: 6
#     Node 25, Type 1, BuildingBlock: KUMJIN_clean_sbu_1, # of connection points: 6
#     Node 26, Type 1, BuildingBlock: KUMJIN_clean_sbu_1, # of connection points: 6
#     Node 27, Type 1, BuildingBlock: KUMJIN_clean_sbu_1, # of connection points: 6
#     Node 28, Type 1, BuildingBlock: KUMJIN_clean_sbu_1, # of connection points: 6
#     Node 29, Type 1, BuildingBlock: KUMJIN_clean_sbu_1, # of connection points: 6
#     Node 30, Type 1, BuildingBlock: KUMJIN_clean_sbu_1, # of connection points: 6
#     Node 31, Type 1, BuildingBlock: KUMJIN_clean_sbu_1, # of connection points: 6
#     Node 32, Type 1, BuildingBlock: KUMJIN_clean_sbu_1, # of connection points: 6
#     Node 33, Type 1, BuildingBlock: KUMJIN_clean_sbu_1, # of connection points: 6
#     Node 34, Type 1, BuildingBlock: KUMJIN_clean_sbu_1, # of connection points: 6
#     Node 35, Type 1, BuildingBlock: KUMJIN_clean_sbu_1, # of connection points: 6
#     Node 36, Type 1, BuildingBlock: KUMJIN_clean_sbu_1, # of connection points: 6
#     Node 37, Type 1, BuildingBlock: KUMJIN_clean_sbu_1, # of connection points: 6
#     Node 38, Type 1, BuildingBlock: KUMJIN_clean_sbu_1, # of connection points: 6
#     Node 39, Type 1, BuildingBlock: KUMJIN_clean_sbu_1, # of connection points: 6
#     Edge 40, Type (0, 1), BuildingBlock: UVAHIK_clean_linker_0, # of connection points: 2
#     Edge 41, Type (0, 1), BuildingBlock: UVAHIK_clean_linker_0, # of connection points: 2
#     Edge 42, Type (0, 1), BuildingBlock: UVAHIK_clean_linker_0, # of connection points: 2
#     Edge 43, Type (0, 1), BuildingBlock: UVAHIK_clean_linker_0, # of connection points: 2
#     Edge 44, Type (0, 1), BuildingBlock: UVAHIK_clean_linker_0, # of connection points: 2
#     Edge 45, Type (0, 1), BuildingBlock: UVAHIK_clean_linker_0, # of connection points: 2
#     Edge 46, Type (0, 1), BuildingBlock: UVAHIK_clean_linker_0, # of connection points: 2
#     Edge 47, Type (0, 1), BuildingBlock: UVAHIK_clean_linker_0, # of connection points: 2
#     Edge 48, Type (0, 1), BuildingBlock: UVAHIK_clean_linker_0, # of connection points: 2
#     Edge 49, Type (0, 1), BuildingBlock: UVAHIK_clean_linker_0, # of connection points: 2
#     Edge 50, Type (0, 1), BuildingBlock: UVAHIK_clean_linker_0, # of connection points: 2
#     Edge 51, Type (0, 1), BuildingBlock: UVAHIK_clean_linker_0, # of connection points: 2
#     Edge 52, Type (0, 1), BuildingBlock: UVAHIK_clean_linker_0, # of connection points: 2
#     Edge 53, Type (0, 1), BuildingBlock: UVAHIK_clean_linker_0, # of connection points: 2
#     Edge 54, Type (0, 1), BuildingBlock: UVAHIK_clean_linker_0, # of connection points: 2
#     Edge 55, Type (0, 1), BuildingBlock: UVAHIK_clean_linker_0, # of connection points: 2
#     Edge 56, Type (0, 1), BuildingBlock: UVAHIK_clean_linker_0, # of connection points: 2
#     Edge 57, Type (0, 1), BuildingBlock: UVAHIK_clean_linker_0, # of connection points: 2
#     Edge 58, Type (0, 1), BuildingBlock: UVAHIK_clean_linker_0, # of connection points: 2
#     Edge 59, Type (0, 1), BuildingBlock: UVAHIK_clean_linker_0, # of connection points: 2
#     Edge 60, Type (0, 1), BuildingBlock: UVAHIK_clean_linker_0, # of connection points: 2
#     Edge 61, Type (0, 1), BuildingBlock: UVAHIK_clean_linker_0, # of connection points: 2
#     Edge 62, Type (0, 1), BuildingBlock: UVAHIK_clean_linker_0, # of connection points: 2
#     Edge 63, Type (0, 1), BuildingBlock: UVAHIK_clean_linker_0, # of connection points: 2
#     Edge 64, Type (0, 1), BuildingBlock: UVAHIK_clean_linker_0, # of connection points: 2
#     Edge 65, Type (0, 1), BuildingBlock: UVAHIK_clean_linker_0, # of connection points: 2
#     Edge 66, Type (0, 1), BuildingBlock: UVAHIK_clean_linker_0, # of connection points: 2
#     Edge 67, Type (0, 1), BuildingBlock: UVAHIK_clean_linker_0, # of connection points: 2
#     Edge 68, Type (0, 1), BuildingBlock: UVAHIK_clean_linker_0, # of connection points: 2
#     Edge 69, Type (0, 1), BuildingBlock: UVAHIK_clean_linker_0, # of connection points: 2
#     Edge 70, Type (0, 1), BuildingBlock: UVAHIK_clean_linker_0, # of connection points: 2
#     Edge 71, Type (0, 1), BuildingBlock: UVAHIK_clean_linker_0, # of connection points: 2
#     Edge 72, Type (0, 1), BuildingBlock: UVAHIK_clean_linker_0, # of connection points: 2
#     Edge 73, Type (0, 1), BuildingBlock: UVAHIK_clean_linker_0, # of connection points: 2
#     Edge 74, Type (0, 1), BuildingBlock: UVAHIK_clean_linker_0, # of connection points: 2
#     Edge 75, Type (0, 1), BuildingBlock: UVAHIK_clean_linker_0, # of connection points: 2
#     Edge 76, Type (0, 1), BuildingBlock: UVAHIK_clean_linker_0, # of connection points: 2
#     Edge 77, Type (0, 1), BuildingBlock: UVAHIK_clean_linker_0, # of connection points: 2
#     Edge 78, Type (0, 1), BuildingBlock: UVAHIK_clean_linker_0, # of connection points: 2
#     Edge 79, Type (0, 1), BuildingBlock: UVAHIK_clean_linker_0, # of connection points: 2
#     Edge 80, Type (0, 1), BuildingBlock: UVAHIK_clean_linker_0, # of connection points: 2
#     Edge 81, Type (0, 1), BuildingBlock: UVAHIK_clean_linker_0, # of connection points: 2
#     Edge 82, Type (0, 1), BuildingBlock: UVAHIK_clean_linker_0, # of connection points: 2
#     Edge 83, Type (0, 1), BuildingBlock: UVAHIK_clean_linker_0, # of connection points: 2
#     Edge 84, Type (0, 1), BuildingBlock: UVAHIK_clean_linker_0, # of connection points: 2
#     Edge 85, Type (0, 1), BuildingBlock: UVAHIK_clean_linker_0, # of connection points: 2
#     Edge 86, Type (0, 1), BuildingBlock: UVAHIK_clean_linker_0, # of connection points: 2
#     Edge 87, Type (0, 1), BuildingBlock: UVAHIK_clean_linker_0, # of connection points: 2
#     Edge 88, Type (0, 1), BuildingBlock: UVAHIK_clean_linker_0, # of connection points: 2
#     Edge 89, Type (0, 1), BuildingBlock: UVAHIK_clean_linker_0, # of connection points: 2
#     Edge 90, Type (0, 1), BuildingBlock: UVAHIK_clean_linker_0, # of connection points: 2
#     Edge 91, Type (0, 1), BuildingBlock: UVAHIK_clean_linker_0, # of connection points: 2
#     Edge 92, Type (0, 1), BuildingBlock: UVAHIK_clean_linker_0, # of connection points: 2
#     Edge 93, Type (0, 1), BuildingBlock: UVAHIK_clean_linker_0, # of connection points: 2
#     Edge 94, Type (0, 1), BuildingBlock: UVAHIK_clean_linker_0, # of connection points: 2
#     Edge 95, Type (0, 1), BuildingBlock: UVAHIK_clean_linker_0, # of connection points: 2
#     Edge 96, Type (0, 1), BuildingBlock: UVAHIK_clean_linker_0, # of connection points: 2
#     Edge 97, Type (0, 1), BuildingBlock: UVAHIK_clean_linker_0, # of connection points: 2
#     Edge 98, Type (0, 1), BuildingBlock: UVAHIK_clean_linker_0, # of connection points: 2
#     Edge 99, Type (0, 1), BuildingBlock: UVAHIK_clean_linker_0, # of connection points: 2
#     Edge 100, Type (0, 1), BuildingBlock: UVAHIK_clean_linker_0, # of connection points: 2
#     Edge 101, Type (0, 1), BuildingBlock: UVAHIK_clean_linker_0, # of connection points: 2
#     Edge 102, Type (0, 1), BuildingBlock: UVAHIK_clean_linker_0, # of connection points: 2
#     Edge 103, Type (0, 1), BuildingBlock: UVAHIK_clean_linker_0, # of connection points: 2
#     Edge 104, Type (0, 1), BuildingBlock: UVAHIK_clean_linker_0, # of connection points: 2
#     Edge 105, Type (0, 1), BuildingBlock: UVAHIK_clean_linker_0, # of connection points: 2
#     Edge 106, Type (0, 1), BuildingBlock: UVAHIK_clean_linker_0, # of connection points: 2
#     Edge 107, Type (0, 1), BuildingBlock: UVAHIK_clean_linker_0, # of connection points: 2
#     Edge 108, Type (0, 1), BuildingBlock: UVAHIK_clean_linker_0, # of connection points: 2
#     Edge 109, Type (0, 1), BuildingBlock: UVAHIK_clean_linker_0, # of connection points: 2
#     Edge 110, Type (0, 1), BuildingBlock: UVAHIK_clean_linker_0, # of connection points: 2
#     Edge 111, Type (0, 1), BuildingBlock: UVAHIK_clean_linker_0, # of connection points: 2
#     Edge 112, Type (0, 1), BuildingBlock: UVAHIK_clean_linker_0, # of connection points: 2
#     Edge 113, Type (0, 1), BuildingBlock: UVAHIK_clean_linker_0, # of connection points: 2
#     Edge 114, Type (0, 1), BuildingBlock: UVAHIK_clean_linker_0, # of connection points: 2
#     Edge 115, Type (0, 1), BuildingBlock: UVAHIK_clean_linker_0, # of connection points: 2
#     Edge 116, Type (0, 1), BuildingBlock: UVAHIK_clean_linker_0, # of connection points: 2
#     Edge 117, Type (0, 1), BuildingBlock: UVAHIK_clean_linker_0, # of connection points: 2
#     Edge 118, Type (0, 1), BuildingBlock: UVAHIK_clean_linker_0, # of connection points: 2
#     Edge 119, Type (0, 1), BuildingBlock: UVAHIK_clean_linker_0, # of connection points: 2
#     Edge 120, Type (0, 1), BuildingBlock: UVAHIK_clean_linker_0, # of connection points: 2
#     Edge 121, Type (0, 1), BuildingBlock: UVAHIK_clean_linker_0, # of connection points: 2
#     Edge 122, Type (0, 1), BuildingBlock: UVAHIK_clean_linker_0, # of connection points: 2
#     Edge 123, Type (0, 1), BuildingBlock: UVAHIK_clean_linker_0, # of connection points: 2
#     Edge 124, Type (0, 1), BuildingBlock: UVAHIK_clean_linker_0, # of connection points: 2
#     Edge 125, Type (0, 1), BuildingBlock: UVAHIK_clean_linker_0, # of connection points: 2
#     Edge 126, Type (0, 1), BuildingBlock: UVAHIK_clean_linker_0, # of connection points: 2
#     Edge 127, Type (0, 1), BuildingBlock: UVAHIK_clean_linker_0, # of connection points: 2
#     Edge 128, Type (0, 1), BuildingBlock: UVAHIK_clean_linker_0, # of connection points: 2
#     Edge 129, Type (0, 1), BuildingBlock: UVAHIK_clean_linker_0, # of connection points: 2
#     Edge 130, Type (0, 1), BuildingBlock: UVAHIK_clean_linker_0, # of connection points: 2
#     Edge 131, Type (0, 1), BuildingBlock: UVAHIK_clean_linker_0, # of connection points: 2
#     Edge 132, Type (0, 1), BuildingBlock: UVAHIK_clean_linker_0, # of connection points: 2
#     Edge 133, Type (0, 1), BuildingBlock: UVAHIK_clean_linker_0, # of connection points: 2
#     Edge 134, Type (0, 1), BuildingBlock: UVAHIK_clean_linker_0, # of connection points: 2
#     Edge 135, Type (0, 1), BuildingBlock: UVAHIK_clean_linker_0, # of connection points: 2
# Relax obj value: 0.069
# Max RMSD: 0.187
# Mean RMSD: 0.132
data_MOF--net-gar--node1-NAHDIM_clean_sbu_0--node2-KUMJIN_clean_sbu_1--edge1-UVAHIK_clean_linker_0
_symmetry_space_group_name_H-M    P1
_symmetry_Int_Tables_number       1
_symmetry_cell_setting            triclinic
loop_
_symmetry_equiv_pos_as_xyz
'x, y, z'
_cell_length_a     77.501342
_cell_length_b     76.282928
_cell_length_c     70.149675
_cell_angle_alpha  95.823853
_cell_angle_beta   96.062144
_cell_angle_gamma 101.07352
loop_
_atom_site_label
_atom_site_type_symbol
_atom_site_fract_x
_atom_site_fract_y
_atom_site_fract_z
_atom_type_partial_charge
C0 C 0.07351 0.29888 0.34542 0.0
O1 O 0.07501 0.30448 0.36397 0.0
O2 O 0.03319 0.27252 0.36591 0.0
Zn3 Zn 0.03549 0.2949 0.35162 0.0
O4 O 0.04013 0.3177 0.37217 0.0
C5 C 0.99653 0.28404 0.34035 0.0
O6 O 0.9987 0.27506 0.35514 0.0
O7 O 0.05782 0.29447 0.3361 0.0
C8 C 0.02946 0.32856 0.37235 0.0
O9 O 0.01543 0.32525 0.35929 0.0
C10 C 0.04111 0.27204 0.38266 0.0
O11 O 0.05162 0.28675 0.3918 0.0
O12 O 0.01041 0.29334 0.33499 0.0
C13 C 0.97405 0.74542 0.69735 0.0
O14 O 0.97179 0.74151 0.67846 0.0
O15 O 0.00773 0.7212 0.67228 0.0
Zn16 Zn 0.01129 0.74663 0.68937 0.0
O17 O 0.0105 0.76801 0.67298 0.0
C18 C 0.05018 0.74853 0.69815 0.0
O19 O 0.0478 0.7426 0.67967 0.0
O20 O 0.98987 0.74761 0.70612 0.0
C21 C 0.02158 0.77525 0.66236 0.0
O22 O 0.0359 0.76883 0.6603 0.0
C23 C 0.01332 0.71874 0.65585 0.0
O24 O 0.02049 0.7329 0.64812 0.0
O25 O 0.03665 0.75117 0.70626 0.0
C26 C 0.57089 0.78962 0.84136 0.0
O27 O 0.56832 0.77928 0.85508 0.0
O28 O 0.53534 0.77446 0.86635 0.0
Zn29 Zn 0.53647 0.79703 0.85214 0.0
O30 O 0.54004 0.81984 0.87247 0.0
C31 C 0.4977 0.78424 0.84027 0.0
O32 O 0.50022 0.77462 0.85441 0.0
O33 O 0.55911 0.79879 0.83684 0.0
C34 C 0.52842 0.82966 0.87283 0.0
O35 O 0.51421 0.8252 0.86 0.0
C36 C 0.53411 0.77448 0.88433 0.0
O37 O 0.53332 0.78962 0.89462 0.0
O38 O 0.51129 0.79449 0.83545 0.0
C39 C 0.47448 0.24746 0.19727 0.0
O40 O 0.47254 0.24423 0.17833 0.0
O41 O 0.50753 0.22192 0.17285 0.0
Zn42 Zn 0.5115 0.24729 0.18953 0.0
O43 O 0.51082 0.26721 0.17144 0.0
C44 C 0.54909 0.24369 0.19987 0.0
O45 O 0.54443 0.23194 0.18431 0.0
O46 O 0.49012 0.24891 0.20626 0.0
C47 C 0.52433 0.27942 0.17029 0.0
O48 O 0.5395 0.27889 0.18028 0.0
C49 C 0.51194 0.22013 0.15578 0.0
O50 O 0.51809 0.23478 0.14821 0.0
O51 O 0.53739 0.25209 0.20574 0.0
C52 C 0.01147 0.78206 0.12388 0.0
O53 O 0.00785 0.77898 0.10497 0.0
O54 O 0.04295 0.75912 0.09893 0.0
Zn55 Zn 0.04709 0.7855 0.11325 0.0
O56 O 0.04357 0.80645 0.09645 0.0
C57 C 0.08416 0.78276 0.12511 0.0
O58 O 0.08153 0.77332 0.10796 0.0
O59 O 0.02768 0.78508 0.13134 0.0
C60 C 0.05529 0.81847 0.09094 0.0
O61 O 0.07205 0.81754 0.09454 0.0
C62 C 0.04622 0.75292 0.08236 0.0
O63 O 0.0526 0.76429 0.07073 0.0
O64 O 0.07174 0.79025 0.13044 0.0
C65 C 0.53651 0.76657 0.41994 0.0
O66 O 0.54001 0.77279 0.4384 0.0
O67 O 0.50269 0.735 0.44406 0.0
Zn68 Zn 0.5007 0.75823 0.43041 0.0
O69 O 0.50543 0.7835 0.44807 0.0
C70 C 0.46167 0.75373 0.41704 0.0
O71 O 0.45999 0.75397 0.4355 0.0
O72 O 0.52048 0.75989 0.41293 0.0
C73 C 0.49493 0.79453 0.44646 0.0
O74 O 0.48026 0.78945 0.43441 0.0
C75 C 0.49449 0.72764 0.45707 0.0
O76 O 0.48271 0.73547 0.4647 0.0
O77 O 0.47708 0.75471 0.41182 0.0
C78 C 0.51195 0.28752 0.62326 0.0
O79 O 0.50872 0.2902 0.60514 0.0
O80 O 0.54119 0.25887 0.59635 0.0
Zn81 Zn 0.54671 0.28517 0.61112 0.0
O82 O 0.54445 0.30608 0.59381 0.0
C83 C 0.58213 0.27848 0.62557 0.0
O84 O 0.57755 0.26543 0.61117 0.0
O85 O 0.52737 0.28521 0.62942 0.0
C86 C 0.55488 0.32158 0.59694 0.0
O87 O 0.5685 0.32405 0.61047 0.0
C88 C 0.54676 0.25262 0.58106 0.0
O89 O 0.5567 0.26385 0.57169 0.0
O90 O 0.57158 0.28925 0.62824 0.0
C91 C 0.03626 0.26775 0.9212 0.0
O92 O 0.03984 0.27396 0.93965 0.0
O93 O 0.99897 0.23624 0.94339 0.0
Zn94 Zn 0.9999 0.26072 0.93098 0.0
O95 O 0.00494 0.28588 0.94906 0.0
C96 C 0.96149 0.25113 0.91346 0.0
O97 O 0.95914 0.24183 0.92809 0.0
O98 O 0.02015 0.26159 0.91412 0.0
C99 C 0.99451 0.29685 0.94643 0.0
O100 O 0.98006 0.29118 0.9341 0.0
C101 C 0.00251 0.23295 0.96078 0.0
O102 O 0.00674 0.24653 0.97465 0.0
O103 O 0.97713 0.25938 0.91183 0.0
C104 C 0.36527 0.04906 0.29884 0.0
O105 O 0.38101 0.05013 0.30846 0.0
O106 O 0.38343 0.01202 0.27232 0.0
Zn107 Zn 0.3667 0.01334 0.29108 0.0
O108 O 0.37848 0.01415 0.31694 0.0
C109 C 0.34539 0.9819 0.27068 0.0
O110 O 0.35328 0.98728 0.256 0.0
O111 O 0.35689 0.03428 0.28958 0.0
C112 C 0.38677 0.00182 0.32021 0.0
O113 O 0.38692 0.98896 0.3063 0.0
C114 C 0.39987 0.01877 0.27486 0.0
O115 O 0.40736 0.02802 0.29148 0.0
O116 O 0.34802 0.99211 0.28651 0.0
C117 C 0.2966 0.14858 0.50304 0.0
O118 O 0.29955 0.16477 0.49764 0.0
O119 O 0.26669 0.17149 0.53578 0.0
Zn120 Zn 0.26287 0.15712 0.50957 0.0
O121 O 0.26447 0.17354 0.48865 0.0
C122 C 0.22536 0.1473 0.50885 0.0
O123 O 0.22746 0.16487 0.51259 0.0
O124 O 0.28173 0.14242 0.50849 0.0
C125 C 0.25477 0.16891 0.47248 0.0
O126 O 0.24331 0.1535 0.4697 0.0
C127 C 0.26528 0.18784 0.53843 0.0
O128 O 0.26155 0.19609 0.52343 0.0
O129 O 0.23887 0.14053 0.50661 0.0
C130 C 0.14542 0.00033 0.78631 0.0
O131 O 0.12916 0.99676 0.79075 0.0
O132 O 0.12213 0.0327 0.75861 0.0
Zn133 Zn 0.13702 0.03456 0.78423 0.0
O134 O 0.12289 0.03027 0.80611 0.0
C135 C 0.14768 0.07171 0.78139 0.0
O136 O 0.13229 0.06836 0.77048 0.0
O137 O 0.15188 0.01603 0.78262 0.0
C138 C 0.11063 0.03821 0.81042 0.0
O139 O 0.10614 0.05022 0.79975 0.0
C140 C 0.10652 0.02367 0.75325 0.0
O141 O 0.09833 0.01379 0.76516 0.0
O142 O 0.15274 0.05914 0.78958 0.0
C143 C 0.24839 0.93209 0.98455 0.0
O144 O 0.24785 0.91485 0.98527 0.0
O145 O 0.2769 0.91759 0.01804 0.0
Zn146 Zn 0.28209 0.93113 0.99596 0.0
O147 O 0.28355 0.91405 0.97342 0.0
C148 C 0.31435 0.94969 0.01786 0.0
O149 O 0.30868 0.94075 0.03179 0.0
O150 O 0.263 0.94317 0.98887 0.0
C151 C 0.29794 0.91308 0.96675 0.0
O152 O 0.31284 0.92396 0.9744 0.0
C153 C 0.28362 0.90377 0.01902 0.0
O154 O 0.29337 0.89938 0.00581 0.0
O155 O 0.30438 0.94854 0.00211 0.0
C156 C 0.24942 0.39274 0.03346 0.0
O157 O 0.24595 0.37509 0.02999 0.0
O158 O 0.28335 0.37466 0.0601 0.0
Zn159 Zn 0.28399 0.38643 0.036 0.0
O160 O 0.27851 0.3683 0.01172 0.0
C161 C 0.32166 0.40019 0.04508 0.0
O162 O 0.32097 0.38582 0.05405 0.0
O163 O 0.26543 0.40117 0.03627 0.0
C164 C 0.29083 0.36686 0.00144 0.0
O165 O 0.30686 0.37632 0.00727 0.0
C166 C 0.28435 0.3584 0.06128 0.0
O167 O 0.28634 0.3481 0.04582 0.0
O168 O 0.30746 0.40325 0.03654 0.0
C169 C 0.79798 0.11622 0.06043 0.0
O170 O 0.80063 0.13386 0.06199 0.0
O171 O 0.76155 0.13821 0.0687 0.0
Zn172 Zn 0.76353 0.11963 0.04814 0.0
O173 O 0.76804 0.13156 0.02487 0.0
C174 C 0.73229 0.09715 0.0561 0.0
O175 O 0.73807 0.10346 0.07425 0.0
O176 O 0.78248 0.10703 0.0553 0.0
C177 C 0.75593 0.13001 0.01083 0.0
O178 O 0.74038 0.1196 0.01107 0.0
C179 C 0.76923 0.15444 0.06871 0.0
O180 O 0.77925 0.15903 0.05533 0.0
O181 O 0.74146 0.10205 0.04297 0.0
C182 C 0.17372 0.4939 0.23133 0.0
O183 O 0.15725 0.49231 0.23499 0.0
O184 O 0.1546 0.53363 0.22321 0.0
Zn185 Zn 0.17342 0.52971 0.24247 0.0
O186 O 0.16352 0.52563 0.26693 0.0
C187 C 0.19603 0.56134 0.23486 0.0
O188 O 0.18869 0.55635 0.21689 0.0
O189 O 0.18352 0.50941 0.23291 0.0
C190 C 0.15637 0.53827 0.27329 0.0
O191 O 0.15664 0.55231 0.26382 0.0
C192 C 0.13836 0.52658 0.2229 0.0
O193 O 0.13331 0.51585 0.23566 0.0
O194 O 0.19189 0.5514 0.24774 0.0
C195 C 0.74902 0.8945 0.53577 0.0
O196 O 0.7448 0.87759 0.53885 0.0
O197 O 0.78124 0.87422 0.5595 0.0
Zn198 Zn 0.78314 0.88577 0.53512 0.0
O199 O 0.77823 0.86723 0.51125 0.0
C200 C 0.82081 0.90147 0.54715 0.0
O201 O 0.81964 0.88968 0.55959 0.0
O202 O 0.76489 0.90106 0.53346 0.0
C203 C 0.79079 0.86596 0.50127 0.0
O204 O 0.80666 0.87574 0.50729 0.0
C205 C 0.78631 0.85973 0.56233 0.0
O206 O 0.79346 0.85155 0.54877 0.0
O207 O 0.80708 0.90228 0.53592 0.0
C208 C 0.9062 0.0481 0.25757 0.0
O209 O 0.92333 0.05217 0.26333 0.0
O210 O 0.92716 0.01153 0.23428 0.0
Zn211 Zn 0.9132 0.01301 0.2568 0.0
O212 O 0.92849 0.01898 0.28254 0.0
C213 C 0.89957 0.97497 0.24843 0.0
O214 O 0.91346 0.97547 0.23913 0.0
O215 O 0.89854 0.03166 0.25372 0.0
C216 C 0.94014 0.01002 0.28726 0.0
O217 O 0.94291 0.99726 0.2746 0.0
C218 C 0.94172 0.02208 0.23311 0.0
O219 O 0.94883 0.03454 0.2476 0.0
O220 O 0.89678 0.98946 0.25696 0.0
C221 C 0.29959 0.6105 0.55557 0.0
O222 O 0.30301 0.62751 0.56298 0.0
O223 O 0.26967 0.63554 0.56738 0.0
Zn224 Zn 0.2665 0.61797 0.54405 0.0
O225 O 0.26806 0.6297 0.52028 0.0
C226 C 0.23378 0.59979 0.55486 0.0
O227 O 0.23998 0.6073 0.57257 0.0
O228 O 0.28443 0.60344 0.54657 0.0
C229 C 0.25476 0.63507 0.51265 0.0
O230 O 0.24012 0.63339 0.52079 0.0
C231 C 0.26657 0.65123 0.56734 0.0
O232 O 0.26118 0.65682 0.55111 0.0
O233 O 0.24323 0.60226 0.54134 0.0
C234 C 0.4057 0.5485 0.75876 0.0
O235 O 0.42305 0.55239 0.76289 0.0
O236 O 0.42465 0.51272 0.73476 0.0
Zn237 Zn 0.41245 0.51359 0.75855 0.0
O238 O 0.42873 0.51952 0.78379 0.0
C239 C 0.39877 0.47562 0.74966 0.0
O240 O 0.4124 0.47628 0.7399 0.0
O241 O 0.39769 0.53216 0.75636 0.0
C242 C 0.43906 0.50931 0.78897 0.0
O243 O 0.43999 0.49517 0.77705 0.0
C244 C 0.44108 0.51699 0.73338 0.0
O245 O 0.45246 0.52262 0.74906 0.0
O246 O 0.39625 0.48997 0.75875 0.0
C247 C 0.67817 0.99393 0.73443 0.0
O248 O 0.66084 0.99166 0.73336 0.0
O249 O 0.6558 0.02623 0.72709 0.0
Zn250 Zn 0.67507 0.0278 0.748 0.0
O251 O 0.66521 0.0249 0.77275 0.0
C252 C 0.69269 0.06084 0.7367 0.0
O253 O 0.6843 0.05491 0.71928 0.0
O254 O 0.68778 0.00911 0.74106 0.0
C255 C 0.66203 0.03894 0.78181 0.0
O256 O 0.66625 0.0545 0.77518 0.0
C257 C 0.64201 0.03266 0.7282 0.0
O258 O 0.63963 0.04152 0.74442 0.0
O259 O 0.69101 0.05103 0.75016 0.0
C260 C 0.79589 0.64955 0.00385 0.0
O261 O 0.79931 0.66655 0.00096 0.0
O262 O 0.76554 0.67079 0.03546 0.0
Zn263 Zn 0.76186 0.6573 0.00885 0.0
O264 O 0.76421 0.67437 0.98872 0.0
C265 C 0.72553 0.64579 0.01364 0.0
O266 O 0.72917 0.6612 0.02492 0.0
O267 O 0.7805 0.64249 0.00734 0.0
C268 C 0.75268 0.67196 0.97393 0.0
O269 O 0.73877 0.65876 0.97235 0.0
C270 C 0.77024 0.68779 0.03916 0.0
O271 O 0.7736 0.69747 0.02502 0.0
O272 O 0.7376 0.64093 0.00471 0.0
C273 C 0.86533 0.55042 0.79576 0.0
O274 O 0.88248 0.55236 0.80074 0.0
O275 O 0.88417 0.5154 0.77034 0.0
Zn276 Zn 0.86834 0.51551 0.79026 0.0
O277 O 0.88208 0.51794 0.8156 0.0
C278 C 0.84964 0.48196 0.7719 0.0
O279 O 0.85733 0.48688 0.75693 0.0
O280 O 0.85606 0.53502 0.78947 0.0
C281 C 0.88971 0.50534 0.8198 0.0
O282 O 0.88781 0.49084 0.80729 0.0
C283 C 0.90091 0.52011 0.77304 0.0
O284 O 0.90919 0.52685 0.7903 0.0
O285 O 0.85152 0.49292 0.7871 0.0
C286 C 0.75084 0.43754 0.48419 0.0
O287 O 0.7499 0.42108 0.47592 0.0
O288 O 0.77811 0.41692 0.51815 0.0
Zn289 Zn 0.78378 0.43307 0.49812 0.0
O290 O 0.78417 0.41943 0.47286 0.0
C291 C 0.81828 0.4438 0.51481 0.0
O292 O 0.81501 0.42699 0.51833 0.0
O293 O 0.76491 0.44592 0.49463 0.0
C294 C 0.79648 0.41232 0.46717 0.0
O295 O 0.81136 0.41381 0.4786 0.0
C296 C 0.77928 0.40051 0.51586 0.0
O297 O 0.78413 0.39372 0.49982 0.0
O298 O 0.80623 0.45018 0.50614 0.0
C299 C 0.64513 0.50002 0.28605 0.0
O300 O 0.62818 0.49624 0.28799 0.0
O301 O 0.62273 0.53215 0.25945 0.0
Zn302 Zn 0.63748 0.53457 0.28535 0.0
O303 O 0.62351 0.5308 0.30747 0.0
C304 C 0.64763 0.57165 0.28228 0.0
O305 O 0.63204 0.56813 0.27175 0.0
O306 O 0.65241 0.51609 0.28439 0.0
C307 C 0.61004 0.53723 0.31075 0.0
O308 O 0.60372 0.54713 0.29857 0.0
C309 C 0.60687 0.52371 0.25429 0.0
O310 O 0.59818 0.51487 0.26664 0.0
O311 O 0.65307 0.55917 0.29028 0.0
Eu312 Eu 0.04287 0.02914 0.03201 0.0
C313 C 0.98158 0.96957 0.98342 0.0
N314 N 0.99173 0.98481 0.97888 0.0
C315 C 0.99373 0.96983 0.9477 0.0
C316 C 0.97728 0.9537 0.97018 0.0
C317 C 0.99761 0.98525 0.96124 0.0
C318 C 0.98356 0.95397 0.9522 0.0
C319 C 0.96472 0.95422 0.00635 0.0
C320 C 0.97541 0.96983 0.00139 0.0
C321 C 0.96051 0.9384 0.99321 0.0
C322 C 0.96676 0.93814 0.9752 0.0
Eu323 Eu 0.99606 0.0104 0.00206 0.0
N324 N 0.97969 0.98533 0.0139 0.0
C325 C 0.9583 0.95505 0.02426 0.0
C326 C 0.97255 0.98648 0.03081 0.0
C327 C 0.9621 0.9713 0.03645 0.0
H328 H 0.00475 0.99762 0.9573 0.0
H329 H 0.95664 0.97227 0.05001 0.0
H330 H 0.03472 0.04168 0.07696 0.0
H331 H 0.0781 0.06861 0.98174 0.0
H332 H 0.97424 0.99916 0.03966 0.0
H333 H 0.95002 0.94337 0.02858 0.0
H334 H 0.06206 0.04134 0.99271 0.0
H335 H 0.99836 0.97027 0.93369 0.0
H336 H 0.95229 0.92631 0.99679 0.0
H337 H 0.96329 0.92585 0.96518 0.0
H338 H 0.04176 0.06894 0.10082 0.0
H339 H 0.98047 0.94207 0.94161 0.0
H340 H 0.0852 0.09731 0.0035 0.0
N341 N 0.04731 0.05467 0.05519 0.0
C342 C 0.05702 0.07004 0.05037 0.0
C343 C 0.046 0.06947 0.08664 0.0
C344 C 0.0615 0.08587 0.06366 0.0
C345 C 0.04182 0.05411 0.073 0.0
C346 C 0.05589 0.08541 0.08196 0.0
N347 N 0.05787 0.05456 0.01941 0.0
C348 C 0.06393 0.05384 0.00185 0.0
C349 C 0.07225 0.08589 0.02662 0.0
C350 C 0.06234 0.07003 0.03199 0.0
C351 C 0.07759 0.08541 0.00817 0.0
C352 C 0.07351 0.06928 0.99579 0.0
H353 H 0.05917 0.09727 0.0926 0.0
H354 H 0.07504 0.11387 0.06837 0.0
H355 H 0.08439 0.1139 0.03597 0.0
O356 O 0.06788 0.02119 0.02876 0.0
O357 O 0.0262 0.05042 0.02584 0.0
O358 O 0.01012 0.03831 0.99666 0.0
O359 O 0.06138 0.02887 0.0578 0.0
O360 O 0.04235 0.01439 0.00181 0.0
O361 O 0.01795 0.02138 0.98558 0.0
O362 O 0.97145 0.01963 0.005 0.0
O363 O 0.01183 0.98843 0.00904 0.0
O364 O 0.02946 0.00113 0.03731 0.0
O365 O 0.97775 0.0107 0.97625 0.0
O366 O 0.99689 0.02458 0.0326 0.0
O367 O 0.0214 0.01756 0.04887 0.0
C368 C 0.01711 0.05237 0.00949 0.0
C369 C 0.08944 0.01968 0.05573 0.0
C370 C 0.11465 0.00614 0.05121 0.0
C371 C 0.12011 0.00927 0.0712 0.0
C372 C 0.09496 0.02304 0.07572 0.0
C373 C 0.11033 0.01785 0.08339 0.0
C374 C 0.09943 0.01141 0.04359 0.0
C375 C 0.03308 0.01625 0.98562 0.0
C376 C 0.07258 0.0232 0.04741 0.0
C377 C 0.07141 0.10162 0.05832 0.0
C378 C 0.07673 0.10164 0.03985 0.0
C379 C 0.02214 0.98694 0.02479 0.0
C380 C 0.9501 0.02085 0.97749 0.0
C381 C 0.92323 0.03178 0.98116 0.0
C382 C 0.91883 0.02963 0.96106 0.0
C383 C 0.94573 0.01868 0.9573 0.0
C384 C 0.93877 0.02741 0.98932 0.0
C385 C 0.93011 0.02307 0.94915 0.0
C386 C 0.00594 0.022 0.04862 0.0
C387 C 0.96671 0.01707 0.98635 0.0
H388 H 0.132 0.00528 0.07728 0.0
H389 H 0.0873 0.02936 0.08538 0.0
H390 H 0.11456 0.02035 0.0988 0.0
H391 H 0.09511 0.00851 0.02816 0.0
H392 H 0.90685 0.03323 0.95466 0.0
H393 H 0.95443 0.01378 0.94786 0.0
H394 H 0.94208 0.02938 0.00492 0.0
H395 H 0.92682 0.02153 0.93361 0.0
Eu396 Eu 0.26137 0.76993 0.2938 0.0
C397 C 0.29999 0.72976 0.22072 0.0
N398 N 0.30658 0.7436 0.235 0.0
C399 C 0.33331 0.73239 0.24063 0.0
C400 C 0.30964 0.71629 0.21631 0.0
C401 C 0.32329 0.74545 0.24443 0.0
C402 C 0.32637 0.71761 0.22671 0.0
C403 C 0.27692 0.71569 0.19452 0.0
C404 C 0.28383 0.72945 0.20994 0.0
C405 C 0.28617 0.70189 0.19057 0.0
C406 C 0.3025 0.70219 0.20144 0.0
Eu407 Eu 0.28805 0.76436 0.2411 0.0
N408 N 0.27514 0.74294 0.21416 0.0
C409 C 0.26113 0.71646 0.18325 0.0
C410 C 0.26052 0.74448 0.20234 0.0
C411 C 0.25307 0.7311 0.18697 0.0
H412 H 0.32911 0.75714 0.2547 0.0
H413 H 0.24126 0.73222 0.17785 0.0
H414 H 0.22213 0.78074 0.28255 0.0
H415 H 0.30766 0.7942 0.36026 0.0
H416 H 0.25479 0.75621 0.20441 0.0
H417 H 0.25539 0.70615 0.17127 0.0
H418 H 0.29242 0.77205 0.33282 0.0
H419 H 0.34646 0.73383 0.24834 0.0
H420 H 0.281 0.69112 0.17889 0.0
H421 H 0.30966 0.69166 0.19796 0.0
H422 H 0.20685 0.80556 0.29054 0.0
H423 H 0.33421 0.70756 0.22373 0.0
H424 H 0.29748 0.82271 0.36734 0.0
N425 N 0.24509 0.79199 0.30255 0.0
C426 C 0.25278 0.80515 0.31704 0.0
C427 C 0.21985 0.80573 0.29799 0.0
C428 C 0.24453 0.81957 0.32223 0.0
C429 C 0.22861 0.79175 0.29339 0.0
C430 C 0.22797 0.81986 0.31229 0.0
N431 N 0.27512 0.78872 0.32277 0.0
C432 C 0.28832 0.78477 0.33507 0.0
C433 C 0.27623 0.81628 0.34351 0.0
C434 C 0.26837 0.80351 0.32747 0.0
C435 C 0.291 0.81321 0.35493 0.0
C436 C 0.2968 0.79715 0.35096 0.0
H437 H 0.22114 0.83065 0.31589 0.0
H438 H 0.24679 0.84418 0.34155 0.0
H439 H 0.27465 0.84133 0.36021 0.0
O440 O 0.26056 0.74661 0.3093 0.0
O441 O 0.26801 0.79478 0.27946 0.0
O442 O 0.29091 0.78565 0.2668 0.0
O443 O 0.23605 0.75401 0.29895 0.0
O444 O 0.29068 0.76741 0.29878 0.0
O445 O 0.30492 0.76458 0.27052 0.0
O446 O 0.28658 0.7836 0.22032 0.0
O447 O 0.27432 0.73717 0.24672 0.0
O448 O 0.26979 0.75669 0.26888 0.0
O449 O 0.31218 0.77708 0.23023 0.0
O450 O 0.25932 0.76966 0.23758 0.0
O451 O 0.24357 0.76777 0.26497 0.0
C452 C 0.28119 0.79775 0.26913 0.0
C453 C 0.23789 0.74276 0.32924 0.0
C454 C 0.24365 0.7352 0.36188 0.0
C455 C 0.2281 0.7407 0.3664 0.0
C456 C 0.2223 0.74805 0.33391 0.0
C457 C 0.21749 0.74705 0.35245 0.0
C458 C 0.24841 0.73625 0.34328 0.0
C459 C 0.3045 0.76527 0.28959 0.0
C460 C 0.24355 0.74416 0.30999 0.0
C461 C 0.25281 0.83288 0.33749 0.0
C462 C 0.26867 0.83127 0.34809 0.0
C463 C 0.26732 0.73991 0.2622 0.0
C464 C 0.31227 0.79835 0.20681 0.0
C465 C 0.3101 0.81554 0.17986 0.0
C466 C 0.32864 0.81991 0.18119 0.0
C467 C 0.33086 0.80284 0.20822 0.0
C468 C 0.30194 0.80493 0.19272 0.0
C469 C 0.33899 0.81366 0.19546 0.0
C470 C 0.24481 0.76947 0.24641 0.0
C471 C 0.30355 0.78607 0.21921 0.0
H472 H 0.22389 0.73966 0.38056 0.0
H473 H 0.21387 0.75302 0.32331 0.0
H474 H 0.20545 0.75109 0.35598 0.0
H475 H 0.26044 0.7321 0.33977 0.0
H476 H 0.33505 0.82802 0.1711 0.0
H477 H 0.33907 0.79784 0.219 0.0
H478 H 0.28758 0.80136 0.19128 0.0
H479 H 0.3533 0.81701 0.19646 0.0
Eu480 Eu 0.50205 0.01922 0.52597 0.0
C481 C 0.56629 0.06554 0.48961 0.0
N482 N 0.55399 0.0502 0.48279 0.0
C483 C 0.5495 0.06098 0.45203 0.0
C484 C 0.57025 0.07935 0.47782 0.0
C485 C 0.54606 0.04756 0.46407 0.0
C486 C 0.56155 0.07697 0.45895 0.0
C487 C 0.58798 0.08329 0.51559 0.0
C488 C 0.57523 0.06751 0.50842 0.0
C489 C 0.59174 0.09698 0.50382 0.0
C490 C 0.58293 0.09502 0.48503 0.0
Eu491 Eu 0.5517 0.02822 0.50438 0.0
N492 N 0.57128 0.05422 0.51983 0.0
C493 C 0.59669 0.08482 0.53441 0.0
C494 C 0.58033 0.05524 0.53775 0.0
C495 C 0.59293 0.07067 0.54548 0.0
H496 H 0.53753 0.03497 0.45789 0.0
H497 H 0.6 0.07149 0.5598 0.0
H498 H 0.5137 0.01702 0.5743 0.0
H499 H 0.45298 0.97342 0.47371 0.0
H500 H 0.57837 0.04389 0.54572 0.0
H501 H 0.60657 0.09671 0.54039 0.0
H502 H 0.47553 0.00114 0.48552 0.0
H503 H 0.5431 0.05882 0.43726 0.0
H504 H 0.60153 0.10915 0.50909 0.0
H505 H 0.58612 0.10569 0.47611 0.0
H506 H 0.50851 0.99484 0.59699 0.0
H507 H 0.5643 0.08725 0.44946 0.0
H508 H 0.4468 0.94958 0.49495 0.0
N509 N 0.49907 0.99938 0.54983 0.0
C510 C 0.48756 0.98334 0.54379 0.0
C511 C 0.50278 0.99134 0.58201 0.0
C512 C 0.48362 0.97055 0.55675 0.0
C513 C 0.50603 0.00378 0.56885 0.0
C514 C 0.49169 0.97459 0.57591 0.0
N515 N 0.48259 0.99243 0.51249 0.0
C516 C 0.47319 0.99055 0.49458 0.0
C517 C 0.46602 0.96402 0.51878 0.0
C518 C 0.47885 0.97997 0.52486 0.0
C519 C 0.45681 0.9616 0.50008 0.0
C520 C 0.4603 0.975 0.48801 0.0
H521 H 0.48897 0.96512 0.58626 0.0
H522 H 0.46818 0.94447 0.56024 0.0
H523 H 0.45276 0.93882 0.52711 0.0
O524 O 0.48035 0.03138 0.51418 0.0
O525 O 0.50943 0.99424 0.50997 0.0
O526 O 0.53883 0.99845 0.50296 0.0
O527 O 0.48113 0.02349 0.54299 0.0
O528 O 0.51206 0.03166 0.50082 0.0
O529 O 0.52819 0.01794 0.482 0.0
O530 O 0.577 0.02017 0.51219 0.0
O531 O 0.54221 0.05332 0.51788 0.0
O532 O 0.51794 0.04784 0.53558 0.0
O533 O 0.56833 0.02284 0.48243 0.0
O534 O 0.54509 0.01584 0.53123 0.0
O535 O 0.52586 0.02834 0.54798 0.0
C536 C 0.52326 0.98816 0.5043 0.0
C537 C 0.46696 0.04743 0.5374 0.0
C538 C 0.44444 0.06568 0.53633 0.0
C539 C 0.45336 0.07635 0.55327 0.0
C540 C 0.4758 0.0583 0.55434 0.0
C541 C 0.46899 0.07268 0.5622 0.0
C542 C 0.45126 0.05121 0.52839 0.0
C543 C 0.51307 0.02221 0.48471 0.0
C544 C 0.47301 0.0312 0.53008 0.0
C545 C 0.47131 0.9544 0.55045 0.0
C546 C 0.46249 0.95118 0.53157 0.0
C547 C 0.53095 0.05879 0.52914 0.0
C548 C 0.58728 0.00235 0.48752 0.0
C549 C 0.60871 0.98312 0.49206 0.0
C550 C 0.60236 0.97371 0.47365 0.0
C551 C 0.58111 0.99277 0.46905 0.0
C552 C 0.60127 0.99754 0.49892 0.0
C553 C 0.58868 0.97859 0.46219 0.0
C554 C 0.54161 0.02489 0.54667 0.0
C555 C 0.58029 0.01824 0.49431 0.0
H556 H 0.4481 0.08744 0.55965 0.0
H557 H 0.48775 0.05543 0.56172 0.0
H558 H 0.47574 0.08086 0.57536 0.0
H559 H 0.4442 0.04275 0.51549 0.0
H560 H 0.60818 0.96273 0.46805 0.0
H561 H 0.57061 0.99636 0.45974 0.0
H562 H 0.60637 0.00499 0.51303 0.0
H563 H 0.58401 0.97143 0.44789 0.0
Eu564 Eu 0.2958 0.26622 0.7725 0.0
C565 C 0.23111 0.29154 0.7269 0.0
N566 N 0.24226 0.30048 0.74263 0.0
C567 C 0.24458 0.3281 0.72867 0.0
C568 C 0.2264 0.30064 0.71124 0.0
C569 C 0.24887 0.31852 0.74384 0.0
C570 C 0.23333 0.31912 0.71228 0.0
C571 C 0.21329 0.26346 0.71005 0.0
C572 C 0.22472 0.2731 0.72627 0.0
C573 C 0.20851 0.27251 0.69447 0.0
C574 C 0.21507 0.29103 0.69506 0.0
Eu575 Eu 0.24844 0.28323 0.76754 0.0
N576 N 0.22996 0.26456 0.74135 0.0
C577 C 0.20696 0.24499 0.70998 0.0
C578 C 0.22325 0.24675 0.7417 0.0
C579 C 0.21184 0.23664 0.72595 0.0
H580 H 0.25715 0.32561 0.7567 0.0
H581 H 0.20665 0.22246 0.72623 0.0
H582 H 0.28725 0.22383 0.78301 0.0
H583 H 0.33704 0.32713 0.81438 0.0
H584 H 0.22627 0.24037 0.75423 0.0
H585 H 0.1981 0.23711 0.69782 0.0
H586 H 0.31769 0.30933 0.78623 0.0
H587 H 0.24987 0.34242 0.72968 0.0
H588 H 0.19975 0.26531 0.68189 0.0
H589 H 0.2113 0.2978 0.6829 0.0
H590 H 0.29511 0.2068 0.80968 0.0
H591 H 0.23003 0.32659 0.70054 0.0
H592 H 0.34602 0.31225 0.84245 0.0
N593 N 0.30253 0.24883 0.79702 0.0
C594 C 0.31371 0.25773 0.81274 0.0
C595 C 0.30039 0.22111 0.81073 0.0
C596 C 0.31861 0.24853 0.82824 0.0
C597 C 0.29587 0.2308 0.79574 0.0
C598 C 0.31182 0.23001 0.82705 0.0
N599 N 0.31455 0.28482 0.79859 0.0
C600 C 0.32091 0.30276 0.79855 0.0
C601 C 0.33128 0.28583 0.82985 0.0
C602 C 0.31992 0.27621 0.81355 0.0
C603 C 0.33727 0.30439 0.83019 0.0
C604 C 0.33216 0.31285 0.81442 0.0
H605 H 0.31528 0.22246 0.83866 0.0
H606 H 0.33391 0.25124 0.85646 0.0
H607 H 0.34501 0.28385 0.85786 0.0
O608 O 0.31843 0.27355 0.75556 0.0
O609 O 0.28396 0.27236 0.80035 0.0
O610 O 0.26928 0.29473 0.793 0.0
O611 O 0.31077 0.24639 0.76334 0.0
O612 O 0.2945 0.2919 0.75909 0.0
O613 O 0.27361 0.30466 0.77368 0.0
O614 O 0.22486 0.27591 0.78294 0.0
O615 O 0.2604 0.27716 0.73978 0.0
O616 O 0.2742 0.25471 0.74795 0.0
O617 O 0.23315 0.30316 0.77566 0.0
O618 O 0.24953 0.2576 0.78149 0.0
O619 O 0.27041 0.24513 0.76663 0.0
C620 C 0.27602 0.28551 0.80557 0.0
C621 C 0.33511 0.25052 0.74411 0.0
C622 C 0.3623 0.25467 0.72842 0.0
C623 C 0.36014 0.23589 0.72478 0.0
C624 C 0.33343 0.23178 0.74005 0.0
C625 C 0.3458 0.22459 0.73047 0.0
C626 C 0.34961 0.26208 0.73801 0.0
C627 C 0.2873 0.30576 0.76388 0.0
C628 C 0.32137 0.25722 0.75451 0.0
C629 C 0.32998 0.25809 0.84444 0.0
C630 C 0.33628 0.27667 0.84524 0.0
C631 C 0.26841 0.26401 0.73493 0.0
C632 C 0.20668 0.29826 0.79163 0.0
C633 C 0.18077 0.2939 0.80926 0.0
C634 C 0.17832 0.31115 0.80603 0.0
C635 C 0.20378 0.3155 0.7887 0.0
C636 C 0.19501 0.28736 0.802 0.0
C637 C 0.18973 0.32184 0.79583 0.0
C638 C 0.25719 0.24398 0.77708 0.0
C639 C 0.22167 0.29211 0.78325 0.0
H640 H 0.36963 0.22994 0.71742 0.0
H641 H 0.32244 0.22254 0.74425 0.0
H642 H 0.34429 0.21013 0.72748 0.0
H643 H 0.35116 0.27656 0.74093 0.0
H644 H 0.16753 0.31641 0.81153 0.0
H645 H 0.21235 0.32417 0.78074 0.0
H646 H 0.19699 0.27405 0.80447 0.0
H647 H 0.18769 0.33513 0.79343 0.0
Eu648 Eu 0.02967 0.99914 0.52026 0.0
C649 C 0.00474 0.06581 0.56449 0.0
N650 N 0.99622 0.0544 0.5487 0.0
C651 C 0.96852 0.05277 0.5614 0.0
C652 C 0.99534 0.07106 0.57951 0.0
C653 C 0.97836 0.04798 0.54685 0.0
C654 C 0.97704 0.06434 0.57782 0.0
C655 C 0.03214 0.08387 0.582 0.0
C656 C 0.02297 0.0721 0.56574 0.0
C657 C 0.02279 0.08919 0.59694 0.0
C658 C 0.00446 0.0828 0.5957 0.0
Eu659 Eu 0.01384 0.04779 0.52462 0.0
N660 N 0.03177 0.06646 0.55121 0.0
C661 C 0.05044 0.09002 0.58275 0.0
C662 C 0.04948 0.07287 0.5516 0.0
C663 C 0.05912 0.08458 0.56742 0.0
H664 H 0.97162 0.03952 0.53392 0.0
H665 H 0.07321 0.08952 0.56772 0.0
H666 H 0.07122 0.00351 0.50963 0.0
H667 H 0.96769 0.95979 0.47948 0.0
H668 H 0.05621 0.06925 0.53966 0.0
H669 H 0.05795 0.09911 0.59498 0.0
H670 H 0.9865 0.97824 0.50749 0.0
H671 H 0.95435 0.04767 0.55987 0.0
H672 H 0.02962 0.09825 0.60952 0.0
H673 H 0.99745 0.08701 0.60736 0.0
H674 H 0.08704 0.99379 0.48296 0.0
H675 H 0.96936 0.06808 0.58905 0.0
H676 H 0.98116 0.94987 0.45092 0.0
N677 N 0.04582 0.99023 0.49564 0.0
C678 C 0.03633 0.9793 0.48001 0.0
C679 C 0.07277 0.98972 0.48188 0.0
C680 C 0.04479 0.97337 0.46445 0.0
C681 C 0.06379 0.99538 0.49686 0.0
C682 C 0.06322 0.97872 0.46556 0.0
N683 N 0.01022 0.98049 0.49453 0.0
C684 C 0.99248 0.97486 0.49493 0.0
C685 C 0.00782 0.96325 0.46319 0.0
C686 C 0.01803 0.97431 0.47941 0.0
C687 C 0.98947 0.95832 0.46311 0.0
C688 C 0.98181 0.96399 0.47914 0.0
H689 H 0.07021 0.97439 0.45394 0.0
H690 H 0.04089 0.95777 0.43618 0.0
H691 H 0.00854 0.94894 0.43506 0.0
O692 O 0.02176 0.9761 0.53708 0.0
O693 O 0.02415 0.01118 0.4922 0.0
O694 O 0.00256 0.02646 0.49944 0.0
O695 O 0.04867 0.98347 0.52992 0.0
O696 O 0.00473 0.00155 0.53417 0.0
O697 O 0.99251 0.02242 0.51859 0.0
O698 O 0.02174 0.07163 0.50891 0.0
O699 O 0.02015 0.03593 0.55247 0.0
O700 O 0.0419 0.02091 0.54483 0.0
O701 O 0.99478 0.06359 0.51582 0.0
O702 O 0.03926 0.04641 0.51143 0.0
O703 O 0.05187 0.02411 0.52432 0.0
C704 C 0.01175 0.01994 0.48687 0.0
C705 C 0.04372 0.95816 0.54846 0.0
C706 C 0.039 0.9313 0.56557 0.0
C707 C 0.05722 0.93148 0.56671 0.0
C708 C 0.0619 0.95776 0.55 0.0
C709 C 0.06852 0.94459 0.55904 0.0
C710 C 0.03216 0.94481 0.55646 0.0
C711 C 0.99116 0.00888 0.52897 0.0
C712 C 0.03768 0.97268 0.53834 0.0
C713 C 0.03462 0.96242 0.44828 0.0
C714 C 0.01619 0.9574 0.44764 0.0
C715 C 0.03299 0.02769 0.55748 0.0
C716 C 0.99991 0.09058 0.50019 0.0
C717 C 0.00335 0.11611 0.48122 0.0
C718 C 0.9871 0.11952 0.48608 0.0
C719 C 0.98372 0.09453 0.50479 0.0
C720 C 0.00991 0.10162 0.48843 0.0
C721 C 0.97743 0.10886 0.49781 0.0
C722 C 0.05295 0.03893 0.51579 0.0
C723 C 0.00587 0.07512 0.50833 0.0
H724 H 0.06272 0.9213 0.57357 0.0
H725 H 0.07117 0.96769 0.54417 0.0
H726 H 0.08254 0.9445 0.56003 0.0
H727 H 0.01811 0.94476 0.55542 0.0
H728 H 0.9819 0.13059 0.48081 0.0
H729 H 0.97583 0.08658 0.51394 0.0
H730 H 0.02245 0.09888 0.48477 0.0
H731 H 0.96496 0.11172 0.50152 0.0
Eu732 Eu 0.27809 0.7972 0.76389 0.0
C733 C 0.23282 0.72758 0.80399 0.0
N734 N 0.24849 0.73874 0.8116 0.0
C735 C 0.23965 0.73837 0.84341 0.0
C736 C 0.2196 0.7222 0.81584 0.0
C737 C 0.25237 0.74331 0.83119 0.0
C738 C 0.22308 0.72806 0.83567 0.0
C739 C 0.21447 0.70831 0.77657 0.0
C740 C 0.23032 0.72048 0.78452 0.0
C741 C 0.20102 0.70373 0.78818 0.0
C742 C 0.2036 0.7106 0.80775 0.0
Eu743 Eu 0.2689 0.7456 0.7891 0.0
N744 N 0.24359 0.72491 0.77352 0.0
C745 C 0.21278 0.70067 0.75729 0.0
C746 C 0.24251 0.71645 0.75527 0.0
C747 C 0.22699 0.70454 0.74669 0.0
H748 H 0.26541 0.7505 0.83766 0.0
H749 H 0.22615 0.69806 0.73206 0.0
H750 H 0.27722 0.78377 0.71491 0.0
H751 H 0.32419 0.85063 0.8106 0.0
H752 H 0.25382 0.71833 0.74763 0.0
H753 H 0.20082 0.69127 0.75069 0.0
H754 H 0.29656 0.82768 0.80101 0.0
H755 H 0.24274 0.74229 0.85885 0.0
H756 H 0.18875 0.69448 0.78227 0.0
H757 H 0.1933 0.70647 0.81665 0.0
H758 H 0.2979 0.78729 0.69092 0.0
H759 H 0.21331 0.7241 0.84524 0.0
H760 H 0.34676 0.85494 0.78811 0.0
N761 N 0.29571 0.79938 0.73818 0.0
C762 C 0.31169 0.81106 0.74294 0.0
C763 C 0.30203 0.79383 0.70557 0.0
C764 C 0.32359 0.81413 0.72911 0.0
C765 C 0.29044 0.79154 0.7195 0.0
C766 C 0.31875 0.80497 0.71044 0.0
N767 N 0.30436 0.81808 0.77455 0.0
C768 C 0.30676 0.82896 0.79166 0.0
C769 C 0.33168 0.83415 0.76596 0.0
C770 C 0.31589 0.82093 0.76134 0.0
C771 C 0.33484 0.84462 0.78408 0.0
C772 C 0.32219 0.84217 0.79688 0.0
H773 H 0.32755 0.80693 0.69948 0.0
H774 H 0.34893 0.82911 0.7236 0.0
H775 H 0.3559 0.8467 0.75574 0.0
O776 O 0.26457 0.8168 0.77796 0.0
O777 O 0.30277 0.79097 0.78134 0.0
O778 O 0.29773 0.76172 0.79104 0.0
O779 O 0.27221 0.81926 0.74925 0.0
O780 O 0.27227 0.7806 0.78665 0.0
O781 O 0.2716 0.76843 0.81276 0.0
O782 O 0.27723 0.71999 0.78052 0.0
O783 O 0.24423 0.75486 0.7747 0.0
O784 O 0.24913 0.78133 0.75895 0.0
O785 O 0.28121 0.73237 0.81083 0.0
O786 O 0.28065 0.75511 0.76257 0.0
O787 O 0.26879 0.77266 0.74267 0.0
C788 C 0.30825 0.7772 0.78869 0.0
C789 C 0.24724 0.83036 0.75597 0.0
C790 C 0.22829 0.85217 0.75678 0.0
C791 C 0.21751 0.8424 0.74034 0.0
C792 C 0.23643 0.82066 0.73943 0.0
C793 C 0.22159 0.82667 0.7317 0.0
C794 C 0.24313 0.84614 0.7646 0.0
C795 C 0.27217 0.78304 0.80509 0.0
C796 C 0.26397 0.82549 0.76284 0.0
C797 C 0.33967 0.82669 0.73405 0.0
C798 C 0.34365 0.83673 0.75236 0.0
C799 C 0.23872 0.76713 0.76451 0.0
C800 C 0.29028 0.70417 0.80547 0.0
C801 C 0.30739 0.6809 0.80103 0.0
C802 C 0.30679 0.67803 0.82043 0.0
C803 C 0.28968 0.70105 0.82484 0.0
C804 C 0.29892 0.69382 0.79344 0.0
C805 C 0.29784 0.68799 0.83222 0.0
C806 C 0.2713 0.75677 0.74636 0.0
C807 C 0.28286 0.719 0.79855 0.0
H808 H 0.20613 0.84712 0.73404 0.0
H809 H 0.23976 0.80878 0.73218 0.0
H810 H 0.21343 0.8193 0.71883 0.0
H811 H 0.25166 0.85392 0.77708 0.0
H812 H 0.31333 0.66812 0.82645 0.0
H813 H 0.28304 0.70885 0.83435 0.0
H814 H 0.29968 0.69627 0.77857 0.0
H815 H 0.29744 0.68574 0.84717 0.0
Eu816 Eu 0.52819 0.03622 -0.00145 0.0
C817 C 0.55991 0.99375 0.07349 0.0
N818 N 0.54706 0.98737 0.05829 0.0
C819 C 0.55704 0.95948 0.05452 0.0
C820 C 0.57217 0.98327 0.07947 0.0
C821 C 0.54527 0.97037 0.04901 0.0
C822 C 0.57063 0.966 0.06972 0.0
C823 C 0.57446 0.01803 0.09848 0.0
C824 C 0.561 0.01092 0.08295 0.0
C825 C 0.58676 0.00769 0.10434 0.0
C826 C 0.58561 0.99036 0.09487 0.0
Eu827 Eu 0.5283 0.00708 0.04942 0.0
N828 N 0.54926 0.0209 0.07654 0.0
C829 C 0.57528 0.0354 0.10759 0.0
C830 C 0.54971 0.03763 0.08581 0.0
C831 C 0.56276 0.04517 0.10132 0.0
H832 H 0.53462 0.96504 0.03746 0.0
H833 H 0.56313 0.05854 0.10844 0.0
H834 H 0.51733 0.07536 0.01261 0.0
H835 H 0.50389 0.99121 0.93097 0.0
H836 H 0.54007 0.04531 0.08148 0.0
H837 H 0.58544 0.04135 0.11954 0.0
H838 H 0.52572 0.00548 0.95895 0.0
H839 H 0.55561 0.94606 0.04704 0.0
H840 H 0.59724 0.01298 0.11616 0.0
H841 H 0.5952 0.98255 0.09956 0.0
H842 H 0.49328 0.0916 0.00516 0.0
H843 H 0.57979 0.95755 0.07388 0.0
H844 H 0.47639 0.00265 0.92395 0.0
N845 N 0.50692 0.05354 0.99064 0.0
C846 C 0.49425 0.04661 0.97552 0.0
C847 C 0.4933 0.07887 0.99679 0.0
C848 C 0.48015 0.05528 0.97079 0.0
C849 C 0.50688 0.06963 0.00104 0.0
C850 C 0.47974 0.07156 0.98175 0.0
N851 N 0.50992 0.02356 0.96909 0.0
C852 C 0.51347 0.01015 0.95662 0.0
C853 C 0.48309 0.02366 0.94827 0.0
C854 C 0.4957 0.03101 0.9645 0.0
C855 C 0.48579 0.00875 0.93651 0.0
C856 C 0.50127 0.00223 0.94046 0.0
H857 H 0.46918 0.0787 0.97853 0.0
H858 H 0.45605 0.05391 0.95147 0.0
H859 H 0.45861 0.02617 0.93172 0.0
O860 O 0.5513 0.03687 0.98342 0.0
O861 O 0.502 0.02907 0.00928 0.0
O862 O 0.50929 0.00498 0.02194 0.0
O863 O 0.5444 0.06188 0.99406 0.0
O864 O 0.53102 0.00655 0.99301 0.0
O865 O 0.53009 0.99053 0.02041 0.0
O866 O 0.50864 0.00812 0.06918 0.0
O867 O 0.55637 0.01909 0.04589 0.0
O868 O 0.53888 0.0264 0.02388 0.0
O869 O 0.51329 0.98228 0.05738 0.0
O870 O 0.52098 0.03545 0.05192 0.0
O871 O 0.53209 0.05321 0.02834 0.0
C872 C 0.49779 0.0152 0.01867 0.0
C873 C 0.55671 0.06082 0.96458 0.0
C874 C 0.5621 0.05536 0.93116 0.0
C875 C 0.56108 0.07323 0.9288 0.0
C876 C 0.55597 0.07871 0.96208 0.0
C877 C 0.5581 0.08484 0.94423 0.0
C878 C 0.56 0.04927 0.94908 0.0
C879 C 0.5316 0.99189 0.00179 0.0
C880 C 0.55427 0.05426 0.98331 0.0
C881 C 0.46711 0.04757 0.95519 0.0
C882 C 0.46855 0.03176 0.94397 0.0
C883 C 0.55505 0.02733 0.03102 0.0
C884 C 0.50274 0.9841 0.08793 0.0
C885 C 0.48919 0.9862 0.11731 0.0
C886 C 0.49431 0.97038 0.12207 0.0
C887 C 0.50796 0.96823 0.09266 0.0
C888 C 0.49338 0.99299 0.10036 0.0
C889 C 0.50375 0.96144 0.10975 0.0
C890 C 0.52555 0.0512 0.04503 0.0
C891 C 0.50505 0.99072 0.06933 0.0
H892 H 0.56305 0.07835 0.91517 0.0
H893 H 0.55374 0.08796 0.9739 0.0
H894 H 0.55757 0.09865 0.94239 0.0
H895 H 0.56088 0.03549 0.95084 0.0
H896 H 0.49085 0.9649 0.13515 0.0
H897 H 0.51495 0.96094 0.08308 0.0
H898 H 0.48891 0.005 0.09664 0.0
H899 H 0.50758 0.94913 0.11331 0.0
Eu900 Eu 0.26375 0.25016 0.25887 0.0
C901 C 0.32233 0.31804 0.31093 0.0
N902 N 0.30679 0.30874 0.31532 0.0
C903 C 0.31884 0.31256 0.34879 0.0
C904 C 0.33701 0.32443 0.32528 0.0
C905 C 0.30468 0.30651 0.33405 0.0
C906 C 0.33518 0.32133 0.34435 0.0
C907 C 0.33894 0.33227 0.28725 0.0
C908 C 0.32325 0.32202 0.29223 0.0
C909 C 0.35383 0.33798 0.30127 0.0
C910 C 0.35286 0.33411 0.32027 0.0
Eu911 Eu 0.28359 0.29834 0.28942 0.0
N912 N 0.30856 0.31639 0.27905 0.0
C913 C 0.33903 0.33686 0.26845 0.0
C914 C 0.30828 0.32187 0.26113 0.0
C915 C 0.32353 0.33186 0.25542 0.0
H916 H 0.29191 0.30029 0.33769 0.0
H917 H 0.32324 0.33588 0.24105 0.0
H918 H 0.25064 0.26064 0.21508 0.0
H919 H 0.22375 0.22236 0.31326 0.0
H920 H 0.29631 0.31887 0.25128 0.0
H921 H 0.3508 0.34471 0.26404 0.0
H922 H 0.25054 0.23832 0.30217 0.0
H923 H 0.31711 0.31057 0.36358 0.0
H924 H 0.36603 0.34577 0.29768 0.0
H925 H 0.36432 0.33899 0.33106 0.0
H926 H 0.22348 0.25371 0.19159 0.0
H927 H 0.34611 0.32609 0.3558 0.0
H928 H 0.19605 0.21263 0.29067 0.0
N929 N 0.23815 0.24808 0.2371 0.0
C930 C 0.22315 0.2382 0.24218 0.0
C931 C 0.22316 0.24945 0.20583 0.0
C932 C 0.20739 0.23373 0.2291 0.0
C933 C 0.23845 0.25364 0.21926 0.0
C934 C 0.20758 0.2394 0.21073 0.0
N935 N 0.23866 0.23774 0.27331 0.0
C936 C 0.23882 0.23421 0.292 0.0
C937 C 0.20761 0.22374 0.2666 0.0
C938 C 0.22335 0.23305 0.26076 0.0
C939 C 0.20788 0.21971 0.28563 0.0
C940 C 0.22349 0.22518 0.29843 0.0
H941 H 0.19577 0.2361 0.20024 0.0
H942 H 0.17978 0.22014 0.22479 0.0
H943 H 0.17992 0.21158 0.25763 0.0
O944 O 0.26067 0.22112 0.25562 0.0
O945 O 0.2451 0.26955 0.2643 0.0
O946 O 0.25797 0.28021 0.2945 0.0
O947 O 0.2663 0.2355 0.23129 0.0
O948 O 0.27746 0.24774 0.28842 0.0
O949 O 0.28359 0.27558 0.30783 0.0
O950 O 0.2723 0.3217 0.28341 0.0
O951 O 0.30578 0.28664 0.27698 0.0
O952 O 0.29418 0.25719 0.26242 0.0
O953 O 0.27474 0.31427 0.31241 0.0
O954 O 0.27019 0.29642 0.25841 0.0
O955 O 0.27743 0.27149 0.24307 0.0
C956 C 0.24388 0.27714 0.28159 0.0
C957 C 0.27969 0.21072 0.23513 0.0
C958 C 0.29845 0.19116 0.24688 0.0
C959 C 0.30914 0.19472 0.23222 0.0
C960 C 0.2902 0.21404 0.2202 0.0
C961 C 0.30487 0.20602 0.21878 0.0
C962 C 0.28372 0.19894 0.2481 0.0
C963 C 0.28283 0.25804 0.30512 0.0
C964 C 0.26527 0.22023 0.23824 0.0
C965 C 0.19195 0.22384 0.23472 0.0
C966 C 0.19204 0.21894 0.25342 0.0
C967 C 0.30759 0.27101 0.26824 0.0
C968 C 0.27593 0.34502 0.30955 0.0
C969 C 0.27175 0.37547 0.3078 0.0
C970 C 0.28127 0.38092 0.32625 0.0
C971 C 0.28578 0.35057 0.32795 0.0
C972 C 0.26921 0.35762 0.29947 0.0
C973 C 0.28845 0.3685 0.33619 0.0
C974 C 0.27392 0.28748 0.24287 0.0
C975 C 0.27066 0.326 0.30151 0.0
H976 H 0.32052 0.18856 0.23102 0.0
H977 H 0.28729 0.22304 0.20986 0.0
H978 H 0.313 0.20868 0.20735 0.0
H979 H 0.27567 0.19611 0.25961 0.0
H980 H 0.283 0.39469 0.33293 0.0
H981 H 0.29101 0.34105 0.33616 0.0
H982 H 0.26125 0.35337 0.28549 0.0
H983 H 0.29578 0.37268 0.35045 0.0
Eu984 Eu 0.53009 0.50012 0.02291 0.0
C985 C 0.5063 0.56998 0.06327 0.0
N986 N 0.49749 0.55736 0.04862 0.0
C987 C 0.47055 0.55585 0.06287 0.0
C988 C 0.49749 0.57587 0.07854 0.0
C989 C 0.47982 0.55047 0.04802 0.0
C990 C 0.47943 0.56856 0.07824 0.0
C991 C 0.53382 0.5897 0.07834 0.0
C992 C 0.52432 0.5767 0.06323 0.0
C993 C 0.52504 0.59568 0.0935 0.0
C994 C 0.50696 0.58874 0.09363 0.0
Eu995 Eu 0.51429 0.54921 0.02432 0.0
N996 N 0.53266 0.57009 0.0488 0.0
C997 C 0.55192 0.59612 0.07789 0.0
C998 C 0.55011 0.57681 0.04791 0.0
C999 C 0.56006 0.58974 0.06253 0.0
H1000 H 0.47276 0.54109 0.03592 0.0
H1001 H 0.57397 0.59492 0.06184 0.0
H1002 H 0.57253 0.50625 0.01506 0.0
H1003 H 0.47055 0.45897 0.97957 0.0
H1004 H 0.55632 0.57257 0.03575 0.0
H1005 H 0.55968 0.60611 0.08922 0.0
H1006 H 0.48765 0.47913 0.00768 0.0
H1007 H 0.45655 0.55029 0.06238 0.0
H1008 H 0.53216 0.60558 0.10527 0.0
H1009 H 0.50042 0.5934 0.10549 0.0
H1010 H 0.5901 0.4967 0.98992 0.0
H1011 H 0.47221 0.5727 0.08973 0.0
H1012 H 0.48598 0.44814 0.95301 0.0
N1013 N 0.54803 0.49116 0.00027 0.0
C1014 C 0.53954 0.47961 0.98458 0.0
C1015 C 0.5759 0.49182 0.98825 0.0
C1016 C 0.54902 0.47382 0.9699 0.0
C1017 C 0.56593 0.49725 0.0024 0.0
C1018 C 0.56741 0.48007 0.97192 0.0
N1019 N 0.51234 0.48048 0.99689 0.0
C1020 C 0.49447 0.47488 0.99608 0.0
C1021 C 0.51199 0.46237 0.96656 0.0
C1022 C 0.52121 0.47401 0.9829 0.0
C1023 C 0.49355 0.45707 0.96532 0.0
C1024 C 0.48478 0.46324 0.98023 0.0
H1025 H 0.57517 0.47597 0.96093 0.0
H1026 H 0.54693 0.45768 0.94217 0.0
H1027 H 0.51454 0.44762 0.93927 0.0
O1028 O 0.52094 0.47802 0.03972 0.0
O1029 O 0.52426 0.51044 0.9938 0.0
O1030 O 0.50315 0.52633 0.00068 0.0
O1031 O 0.54868 0.48554 0.03643 0.0
O1032 O 0.50498 0.50317 0.03587 0.0
O1033 O 0.49268 0.52385 0.01986 0.0
O1034 O 0.52127 0.5713 0.00625 0.0
O1035 O 0.52074 0.53944 0.05356 0.0
O1036 O 0.54143 0.52315 0.04625 0.0
O1037 O 0.49458 0.56399 0.01422 0.0
O1038 O 0.53973 0.54669 0.01132 0.0
O1039 O 0.55145 0.52557 0.02731 0.0
C1040 C 0.5123 0.51963 0.98823 0.0
C1041 C 0.53833 0.45535 0.04245 0.0
C1042 C 0.53532 0.427 0.05681 0.0
C1043 C 0.54462 0.42026 0.0426 0.0
C1044 C 0.54741 0.44809 0.02829 0.0
C1045 C 0.55056 0.4307 0.02845 0.0
C1046 C 0.53221 0.44467 0.05674 0.0
C1047 C 0.49135 0.51012 0.03005 0.0
C1048 C 0.53667 0.47448 0.04344 0.0
C1049 C 0.53987 0.46223 0.95362 0.0
C1050 C 0.52142 0.45651 0.95196 0.0
C1051 C 0.53242 0.52987 0.05883 0.0
C1052 C 0.49897 0.58842 0.99448 0.0
C1053 C 0.50371 0.61505 0.97723 0.0
C1054 C 0.4854 0.61445 0.97521 0.0
C1055 C 0.48068 0.58828 0.99212 0.0
C1056 C 0.51058 0.60195 0.98689 0.0
C1057 C 0.474 0.60116 0.98258 0.0
C1058 C 0.55291 0.53873 0.01639 0.0
C1059 C 0.50528 0.57451 0.0052 0.0
H1060 H 0.54743 0.40687 0.04257 0.0
H1061 H 0.55239 0.45598 0.0173 0.0
H1062 H 0.55783 0.42535 0.01767 0.0
H1063 H 0.52544 0.45018 0.06794 0.0
H1064 H 0.47992 0.62442 0.96796 0.0
H1065 H 0.4714 0.57817 0.99772 0.0
H1066 H 0.52473 0.60241 0.98864 0.0
H1067 H 0.45991 0.6009 0.98096 0.0
Eu1068 Eu 0.77483 0.2957 0.26397 0.0
C1069 C 0.73118 0.22884 0.3033 0.0
N1070 N 0.7468 0.24006 0.31111 0.0
C1071 C 0.7361 0.24236 0.34205 0.0
C1072 C 0.71709 0.22489 0.31447 0.0
C1073 C 0.74972 0.24579 0.33056 0.0
C1074 C 0.7196 0.2322 0.3339 0.0
C1075 C 0.71385 0.20783 0.2765 0.0
C1076 C 0.72959 0.22015 0.28451 0.0
C1077 C 0.69958 0.20471 0.2873 0.0
C1078 C 0.70121 0.21317 0.30623 0.0
Eu1079 Eu 0.76862 0.24449 0.28954 0.0
N1080 N 0.74357 0.22331 0.27423 0.0
C1081 C 0.71307 0.19867 0.25799 0.0
C1082 C 0.74329 0.21355 0.25677 0.0
C1083 C 0.72795 0.20135 0.2482 0.0
H1084 H 0.76264 0.25261 0.33768 0.0
H1085 H 0.72769 0.19387 0.23418 0.0
H1086 H 0.77793 0.28119 0.21639 0.0
H1087 H 0.81724 0.35079 0.31322 0.0
H1088 H 0.755 0.21493 0.24965 0.0
H1089 H 0.70122 0.18912 0.25136 0.0
H1090 H 0.79078 0.32684 0.30247 0.0
H1091 H 0.73846 0.24725 0.35733 0.0
H1092 H 0.68737 0.19539 0.28132 0.0
H1093 H 0.69026 0.21015 0.31459 0.0
H1094 H 0.79944 0.28683 0.19357 0.0
H1095 H 0.70914 0.22939 0.34294 0.0
H1096 H 0.84026 0.35725 0.2916 0.0
N1097 N 0.79402 0.29907 0.23988 0.0
C1098 C 0.80883 0.31237 0.24506 0.0
C1099 C 0.80237 0.29387 0.2081 0.0
C1100 C 0.8213 0.31631 0.23198 0.0
C1101 C 0.79032 0.29043 0.22139 0.0
C1102 C 0.81802 0.30667 0.21347 0.0
N1103 N 0.79928 0.31893 0.2758 0.0
C1104 C 0.801 0.32908 0.29328 0.0
C1105 C 0.82659 0.3365 0.26868 0.0
C1106 C 0.81142 0.3226 0.26328 0.0
C1107 C 0.82877 0.34651 0.28695 0.0
C1108 C 0.81585 0.34286 0.29924 0.0
H1109 H 0.82725 0.30938 0.20304 0.0
H1110 H 0.84616 0.33307 0.22764 0.0
H1111 H 0.85085 0.35058 0.25975 0.0
O1112 O 0.76409 0.31994 0.27176 0.0
O1113 O 0.80118 0.29036 0.27899 0.0
O1114 O 0.79704 0.26178 0.29056 0.0
O1115 O 0.75991 0.30612 0.2418 0.0
O1116 O 0.77012 0.27947 0.28746 0.0
O1117 O 0.77395 0.26739 0.31337 0.0
O1118 O 0.77921 0.22036 0.2808 0.0
O1119 O 0.74441 0.25122 0.27087 0.0
O1120 O 0.74835 0.28257 0.27397 0.0
O1121 O 0.7789 0.22981 0.31136 0.0
O1122 O 0.78019 0.25501 0.26365 0.0
O1123 O 0.76661 0.27062 0.24315 0.0
C1124 C 0.80719 0.27717 0.28712 0.0
C1125 C 0.74738 0.33253 0.24645 0.0
C1126 C 0.7335 0.35825 0.25171 0.0
C1127 C 0.72892 0.35743 0.23171 0.0
C1128 C 0.74265 0.33187 0.2264 0.0
C1129 C 0.73347 0.34426 0.21912 0.0
C1130 C 0.74272 0.3458 0.25914 0.0
C1131 C 0.77324 0.28202 0.30609 0.0
C1132 C 0.75734 0.31946 0.25369 0.0
C1133 C 0.83646 0.32998 0.23751 0.0
C1134 C 0.83911 0.34001 0.25578 0.0
C1135 C 0.73829 0.2662 0.26869 0.0
C1136 C 0.79075 0.20314 0.30517 0.0
C1137 C 0.80696 0.17935 0.29909 0.0
C1138 C 0.80716 0.17621 0.31846 0.0
C1139 C 0.791 0.19981 0.32456 0.0
C1140 C 0.7987 0.19276 0.29238 0.0
C1141 C 0.79915 0.18639 0.33112 0.0
C1142 C 0.77064 0.25545 0.24728 0.0
C1143 C 0.78289 0.21796 0.29882 0.0
H1144 H 0.72182 0.36702 0.22586 0.0
H1145 H 0.74613 0.32183 0.21627 0.0
H1146 H 0.72993 0.34368 0.2037 0.0
H1147 H 0.74628 0.34654 0.27461 0.0
H1148 H 0.81366 0.16597 0.32378 0.0
H1149 H 0.785 0.20767 0.33472 0.0
H1150 H 0.79883 0.19532 0.27747 0.0
H1151 H 0.7994 0.18398 0.34607 0.0
Eu1152 Eu 0.0277 0.5351 0.49806 0.0
C1153 C 0.05812 0.49333 0.57493 0.0
N1154 N 0.04548 0.48627 0.55975 0.0
C1155 C 0.05515 0.45819 0.55846 0.0
C1156 C 0.07023 0.48317 0.58207 0.0
C1157 C 0.04355 0.46883 0.5518 0.0
C1158 C 0.06869 0.46545 0.57352 0.0
C1159 C 0.07205 0.51853 0.59907 0.0
C1160 C 0.05895 0.51078 0.58337 0.0
C1161 C 0.08435 0.50858 0.60595 0.0
C1162 C 0.08343 0.49094 0.59749 0.0
Eu1163 Eu 0.02745 0.50555 0.54806 0.0
N1164 N 0.04716 0.52028 0.576 0.0
C1165 C 0.07245 0.53607 0.60738 0.0
C1166 C 0.04711 0.53715 0.58465 0.0
C1167 C 0.05979 0.54532 0.60028 0.0
H1168 H 0.03277 0.46302 0.5406 0.0
H1169 H 0.05977 0.55878 0.60686 0.0
H1170 H 0.02331 0.57725 0.51034 0.0
H1171 H 0.98583 0.482 0.44478 0.0
H1172 H 0.03736 0.54451 0.57986 0.0
H1173 H 0.08231 0.5425 0.61943 0.0
H1174 H 0.00986 0.49457 0.47076 0.0
H1175 H 0.0536 0.44439 0.55201 0.0
H1176 H 0.09458 0.51438 0.61788 0.0
H1177 H 0.09294 0.4834 0.60304 0.0
H1178 H 0.00356 0.59763 0.50097 0.0
H1179 H 0.07772 0.45721 0.5786 0.0
H1180 H 0.96587 0.50106 0.43236 0.0
N1181 N 0.00977 0.55544 0.48951 0.0
C1182 C 0.99633 0.5494 0.4749 0.0
C1183 C 0.00137 0.5841 0.49353 0.0
C1184 C 0.98468 0.56056 0.46914 0.0
C1185 C 0.01249 0.57251 0.49884 0.0
C1186 C 0.98739 0.5781 0.47863 0.0
N1187 N 0.00481 0.52114 0.47268 0.0
C1188 C 0.00189 0.5034 0.46527 0.0
C1189 C 0.97944 0.52488 0.45153 0.0
C1190 C 0.9938 0.53178 0.46618 0.0
C1191 C 0.97675 0.50686 0.4436 0.0
C1192 C 0.98799 0.49607 0.45056 0.0
H1193 H 0.97871 0.58707 0.47464 0.0
H1194 H 0.96147 0.56217 0.44978 0.0
H1195 H 0.95686 0.53093 0.43438 0.0
O1196 O 0.04804 0.53379 0.47927 0.0
O1197 O 0.00059 0.52603 0.50618 0.0
O1198 O 0.01172 0.50454 0.51921 0.0
O1199 O 0.04536 0.55968 0.49301 0.0
O1200 O 0.03504 0.5071 0.49295 0.0
O1201 O 0.03163 0.48974 0.5192 0.0
O1202 O 0.00569 0.50609 0.56512 0.0
O1203 O 0.05587 0.51772 0.54545 0.0
O1204 O 0.03912 0.52712 0.5244 0.0
O1205 O 0.01103 0.48051 0.55377 0.0
O1206 O 0.01902 0.53358 0.55067 0.0
O1207 O 0.03093 0.55183 0.52792 0.0
C1208 C 0.99883 0.51302 0.5169 0.0
C1209 C 0.05505 0.55861 0.462 0.0
C1210 C 0.06178 0.55472 0.42894 0.0
C1211 C 0.05975 0.5724 0.42696 0.0
C1212 C 0.05322 0.57632 0.4599 0.0
C1213 C 0.05554 0.58312 0.44241 0.0
C1214 C 0.05948 0.54797 0.44649 0.0
C1215 C 0.03533 0.49206 0.50121 0.0
C1216 C 0.05302 0.55123 0.48037 0.0
C1217 C 0.97057 0.55381 0.45436 0.0
C1218 C 0.96796 0.53602 0.44558 0.0
C1219 C 0.05513 0.52709 0.53133 0.0
C1220 C 0.00101 0.48273 0.5844 0.0
C1221 C 0.99085 0.48705 0.61563 0.0
C1222 C 1.00025 0.47442 0.6223 0.0
C1223 C 0.01033 0.46995 0.59103 0.0
C1224 C 0.991 0.49091 0.59666 0.0
C1225 C 0.00981 0.46575 0.60991 0.0
C1226 C 0.02336 0.54947 0.54395 0.0
C1227 C 0.00225 0.4887 0.56532 0.0
H1228 H 0.06187 0.57807 0.41365 0.0
H1229 H 0.0501 0.58493 0.47175 0.0
H1230 H 0.05425 0.59681 0.44088 0.0
H1231 H 0.06119 0.53438 0.44805 0.0
H1232 H 1.00007 0.4712 0.63698 0.0
H1233 H 0.01816 0.46339 0.5818 0.0
H1234 H 0.9838 0.5008 0.59164 0.0
H1235 H 0.01699 0.45593 0.61503 0.0
Eu1236 Eu 0.79554 0.7659 0.27215 0.0
C1237 C 0.73194 0.79133 0.22588 0.0
N1238 N 0.74291 0.80033 0.24172 0.0
C1239 C 0.74559 0.82785 0.22755 0.0
C1240 C 0.72752 0.80036 0.21006 0.0
C1241 C 0.74962 0.81834 0.24288 0.0
C1242 C 0.73453 0.81882 0.21105 0.0
C1243 C 0.71413 0.76325 0.20903 0.0
C1244 C 0.7254 0.77294 0.22535 0.0
C1245 C 0.70966 0.77223 0.19327 0.0
C1246 C 0.71635 0.79071 0.19378 0.0
Eu1247 Eu 0.74872 0.78321 0.26688 0.0
N1248 N 0.73025 0.76449 0.24067 0.0
C1249 C 0.70759 0.74484 0.20907 0.0
C1250 C 0.72323 0.74676 0.24114 0.0
C1251 C 0.71203 0.73661 0.22527 0.0
H1252 H 0.75779 0.82547 0.25579 0.0
H1253 H 0.70664 0.72248 0.22565 0.0
H1254 H 0.78638 0.72355 0.28283 0.0
H1255 H 0.83678 0.82669 0.31426 0.0
H1256 H 0.72581 0.74048 0.25386 0.0
H1257 H 0.69886 0.73693 0.19683 0.0
H1258 H 0.81773 0.80891 0.28591 0.0
H1259 H 0.75094 0.84215 0.22851 0.0
H1260 H 0.70102 0.76499 0.18062 0.0
H1261 H 0.71279 0.79743 0.1815 0.0
H1262 H 0.79367 0.70657 0.30972 0.0
H1263 H 0.73143 0.82623 0.19919 0.0
H1264 H 0.84509 0.81185 0.34261 0.0
N1265 N 0.80157 0.74855 0.29696 0.0
C1266 C 0.81261 0.75744 0.31279 0.0
C1267 C 0.79903 0.72087 0.31079 0.0
C1268 C 0.81721 0.74826 0.32841 0.0
C1269 C 0.79481 0.73054 0.29567 0.0
C1270 C 0.81028 0.72976 0.32723 0.0
N1271 N 0.81394 0.78451 0.29847 0.0
C1272 C 0.82058 0.80239 0.29837 0.0
C1273 C 0.83021 0.78549 0.32997 0.0
C1274 C 0.81899 0.7759 0.31357 0.0
C1275 C 0.83643 0.80401 0.33028 0.0
C1276 C 0.8317 0.81245 0.31435 0.0
H1277 H 0.81352 0.72223 0.33893 0.0
H1278 H 0.83214 0.75095 0.35684 0.0
H1279 H 0.84354 0.7835 0.35819 0.0
O1280 O 0.81887 0.77325 0.2564 0.0
O1281 O 0.78315 0.77173 0.29971 0.0
O1282 O 0.76922 0.79465 0.29261 0.0
O1283 O 0.81086 0.74602 0.26386 0.0
O1284 O 0.79452 0.79157 0.25861 0.0
O1285 O 0.77389 0.80458 0.27332 0.0
O1286 O 0.72517 0.77609 0.2823 0.0
O1287 O 0.76119 0.77736 0.23948 0.0
O1288 O 0.77494 0.75429 0.2465 0.0
O1289 O 0.73337 0.80322 0.27461 0.0
O1290 O 0.74955 0.75739 0.28049 0.0
O1291 O 0.77028 0.74479 0.26551 0.0
C1292 C 0.77581 0.78527 0.30509 0.0
C1293 C 0.83663 0.75081 0.24662 0.0
C1294 C 0.86293 0.75559 0.22955 0.0
C1295 C 0.8635 0.73733 0.22957 0.0
C1296 C 0.8377 0.73257 0.24635 0.0
C1297 C 0.851 0.72595 0.2379 0.0
C1298 C 0.84941 0.76242 0.23812 0.0
C1299 C 0.78757 0.80557 0.26353 0.0
C1300 C 0.82197 0.75699 0.25572 0.0
C1301 C 0.82843 0.75779 0.34472 0.0
C1302 C 0.83491 0.77634 0.3455 0.0
C1303 C 0.76804 0.76351 0.23403 0.0
C1304 C 0.70696 0.79843 0.2907 0.0
C1305 C 0.6812 0.79412 0.3085 0.0
C1306 C 0.67871 0.81136 0.30526 0.0
C1307 C 0.70405 0.81566 0.28774 0.0
C1308 C 0.69537 0.78756 0.30116 0.0
C1309 C 0.69004 0.82202 0.29495 0.0
C1310 C 0.75686 0.74363 0.27564 0.0
C1311 C 0.72195 0.79227 0.28239 0.0
H1312 H 0.87374 0.73186 0.22309 0.0
H1313 H 0.82818 0.72329 0.25265 0.0
H1314 H 0.85161 0.71188 0.23781 0.0
H1315 H 0.84886 0.7765 0.23813 0.0
H1316 H 0.66795 0.81662 0.31083 0.0
H1317 H 0.71258 0.8243 0.27973 0.0
H1318 H 0.69738 0.77427 0.30366 0.0
H1319 H 0.68798 0.8353 0.29255 0.0
Eu1320 Eu 0.7604 0.26809 0.79304 0.0
C1321 C 0.79943 0.23236 0.71993 0.0
N1322 N 0.80563 0.24538 0.73518 0.0
C1323 C 0.83199 0.2336 0.74104 0.0
C1324 C 0.80919 0.21912 0.71499 0.0
C1325 C 0.82182 0.24638 0.74548 0.0
C1326 C 0.82561 0.21984 0.72581 0.0
C1327 C 0.77612 0.21848 0.69386 0.0
C1328 C 0.78307 0.23206 0.70945 0.0
C1329 C 0.78578 0.20524 0.68899 0.0
C1330 C 0.80227 0.20557 0.6995 0.0
Eu1331 Eu 0.78754 0.26649 0.74135 0.0
N1332 N 0.77376 0.24478 0.71484 0.0
C1333 C 0.75965 0.21861 0.68362 0.0
C1334 C 0.75812 0.24545 0.70429 0.0
C1335 C 0.75071 0.23225 0.68875 0.0
H1336 H 0.82716 0.25721 0.75689 0.0
H1337 H 0.73817 0.23272 0.68062 0.0
H1338 H 0.72112 0.27832 0.7819 0.0
H1339 H 0.81317 0.29921 0.85245 0.0
H1340 H 0.75143 0.2563 0.70749 0.0
H1341 H 0.75386 0.2084 0.67157 0.0
H1342 H 0.79757 0.2757 0.82694 0.0
H1343 H 0.84479 0.23443 0.74929 0.0
H1344 H 0.78062 0.19468 0.67709 0.0
H1345 H 0.80956 0.19526 0.69555 0.0
H1346 H 0.70467 0.3018 0.7915 0.0
H1347 H 0.83352 0.20994 0.72243 0.0
H1348 H 0.79988 0.32521 0.86196 0.0
N1349 N 0.74377 0.28953 0.80236 0.0
C1350 C 0.75138 0.30267 0.81693 0.0
C1351 C 0.71782 0.30225 0.79873 0.0
C1352 C 0.74256 0.31647 0.82275 0.0
C1353 C 0.72718 0.289 0.79331 0.0
C1354 C 0.72558 0.31612 0.81345 0.0
N1355 N 0.77608 0.28873 0.82003 0.0
C1356 C 0.79177 0.28719 0.82997 0.0
C1357 C 0.77642 0.31596 0.84107 0.0
C1358 C 0.76809 0.30237 0.82592 0.0
C1359 C 0.79303 0.31502 0.85032 0.0
C1360 C 0.8006 0.30042 0.84493 0.0
H1361 H 0.71835 0.32644 0.81755 0.0
H1362 H 0.74443 0.34094 0.84216 0.0
H1363 H 0.77412 0.34053 0.85818 0.0
O1364 O 0.75992 0.24583 0.81 0.0
O1365 O 0.76634 0.29406 0.7808 0.0
O1366 O 0.78987 0.28666 0.76802 0.0
O1367 O 0.7352 0.2525 0.79909 0.0
O1368 O 0.78809 0.26075 0.79621 0.0
O1369 O 0.80467 0.27013 0.77121 0.0
O1370 O 0.78666 0.28505 0.71958 0.0
O1371 O 0.77629 0.23825 0.74652 0.0
O1372 O 0.76882 0.25659 0.76744 0.0
O1373 O 0.812 0.27899 0.73115 0.0
O1374 O 0.75938 0.27334 0.73868 0.0
O1375 O 0.7426 0.26439 0.76391 0.0
C1376 C 0.77965 0.29821 0.77095 0.0
C1377 C 0.73775 0.24306 0.83035 0.0
C1378 C 0.74392 0.23579 0.86302 0.0
C1379 C 0.72994 0.24367 0.86849 0.0
C1380 C 0.7237 0.25079 0.83592 0.0
C1381 C 0.71985 0.25105 0.85495 0.0
C1382 C 0.74765 0.23547 0.84394 0.0
C1383 C 0.80317 0.26417 0.78836 0.0
C1384 C 0.74294 0.24337 0.81082 0.0
C1385 C 0.75094 0.33016 0.83758 0.0
C1386 C 0.76786 0.32994 0.84668 0.0
C1387 C 0.76811 0.24003 0.76118 0.0
C1388 C 0.81313 0.29935 0.70685 0.0
C1389 C 0.8126 0.31481 0.67836 0.0
C1390 C 0.8312 0.31959 0.6813 0.0
C1391 C 0.83173 0.30427 0.70976 0.0
C1392 C 0.8036 0.30489 0.69129 0.0
C1393 C 0.8407 0.31445 0.69705 0.0
C1394 C 0.74431 0.26994 0.74664 0.0
C1395 C 0.80374 0.28749 0.71922 0.0
H1396 H 0.72654 0.24374 0.88308 0.0
H1397 H 0.71582 0.25674 0.82571 0.0
H1398 H 0.70899 0.25696 0.8592 0.0
H1399 H 0.7585 0.22948 0.8397 0.0
H1400 H 0.83835 0.32738 0.67145 0.0
H1401 H 0.83934 0.30012 0.72172 0.0
H1402 H 0.78926 0.30095 0.68878 0.0
H1403 H 0.85502 0.31819 0.69929 0.0
Eu1404 Eu 0.76469 0.74973 0.75895 0.0
C1405 C 0.82386 0.81576 0.80809 0.0
N1406 N 0.80928 0.80503 0.81299 0.0
C1407 C 0.82448 0.80525 0.84469 0.0
C1408 C 0.83957 0.82118 0.8212 0.0
C1409 C 0.8093 0.80006 0.83114 0.0
C1410 C 0.83976 0.81572 0.83965 0.0
C1411 C 0.83778 0.83308 0.78461 0.0
C1412 C 0.8229 0.82188 0.79013 0.0
C1413 C 0.85361 0.83798 0.79737 0.0
C1414 C 0.85447 0.83215 0.81567 0.0
Eu1415 Eu 0.78374 0.79819 0.78961 0.0
N1416 N 0.80732 0.81715 0.77818 0.0
C1417 C 0.83619 0.83935 0.76657 0.0
C1418 C 0.80539 0.8243 0.76124 0.0
C1419 C 0.81984 0.83511 0.75493 0.0
H1420 H 0.79742 0.79272 0.83548 0.0
H1421 H 0.81827 0.84043 0.74127 0.0
H1422 H 0.75131 0.76226 0.71625 0.0
H1423 H 0.72676 0.71165 0.80854 0.0
H1424 H 0.79265 0.82215 0.75277 0.0
H1425 H 0.84732 0.84789 0.76175 0.0
H1426 H 0.75317 0.72991 0.79882 0.0
H1427 H 0.82432 0.80137 0.8591 0.0
H1428 H 0.86516 0.84656 0.79336 0.0
H1429 H 0.86665 0.83637 0.82553 0.0
H1430 H 0.72413 0.75623 0.69292 0.0
H1431 H 0.85148 0.81979 0.85021 0.0
H1432 H 0.69873 0.70396 0.7863 0.0
N1433 N 0.73903 0.74809 0.73742 0.0
C1434 C 0.72426 0.73717 0.74174 0.0
C1435 C 0.72392 0.75102 0.7067 0.0
C1436 C 0.70853 0.73303 0.72861 0.0
C1437 C 0.73922 0.75472 0.7201 0.0
C1438 C 0.7085 0.74015 0.71097 0.0
N1439 N 0.74018 0.73412 0.77191 0.0
C1440 C 0.741 0.72749 0.78926 0.0
C1441 C 0.7095 0.71894 0.76414 0.0
C1442 C 0.72483 0.73005 0.75937 0.0
C1443 C 0.71025 0.7124 0.78208 0.0
C1444 C 0.72603 0.71678 0.79471 0.0
H1445 H 0.69672 0.73715 0.70045 0.0
H1446 H 0.68127 0.71839 0.72332 0.0
H1447 H 0.68205 0.70626 0.75445 0.0
O1448 O 0.76147 0.72074 0.75373 0.0
O1449 O 0.74496 0.76803 0.76501 0.0
O1450 O 0.75766 0.78119 0.79488 0.0
O1451 O 0.76933 0.73679 0.73123 0.0
O1452 O 0.77886 0.74823 0.78867 0.0
O1453 O 0.77785 0.77501 0.80701 0.0
O1454 O 0.77096 0.82108 0.78668 0.0
O1455 O 0.80565 0.78634 0.77646 0.0
O1456 O 0.79497 0.75597 0.76488 0.0
O1457 O 0.78062 0.81532 0.81506 0.0
O1458 O 0.76982 0.79644 0.75894 0.0
O1459 O 0.77781 0.77189 0.74355 0.0
C1460 C 0.74375 0.77684 0.78176 0.0
C1461 C 0.78179 0.71124 0.73436 0.0
C1462 C 0.80096 0.6921 0.74657 0.0
C1463 C 0.80952 0.69298 0.72992 0.0
C1464 C 0.79019 0.71184 0.71759 0.0
C1465 C 0.80411 0.70284 0.71549 0.0
C1466 C 0.78735 0.70142 0.74878 0.0
C1467 C 0.78038 0.75841 0.80536 0.0
C1468 C 0.76742 0.72094 0.73704 0.0
C1469 C 0.69342 0.72179 0.7333 0.0
C1470 C 0.69389 0.71483 0.75102 0.0
C1471 C 0.80795 0.77038 0.76917 0.0
C1472 C 0.77854 0.8454 0.81222 0.0
C1473 C 0.77423 0.87549 0.80871 0.0
C1474 C 0.78339 0.88177 0.82717 0.0
C1475 C 0.78786 0.85168 0.83077 0.0
C1476 C 0.7719 0.85746 0.80126 0.0
C1477 C 0.79033 0.86985 0.83812 0.0
C1478 C 0.77396 0.78779 0.74345 0.0
C1479 C 0.77331 0.82614 0.8053 0.0
H1480 H 0.81998 0.68566 0.72784 0.0
H1481 H 0.78607 0.71932 0.70621 0.0
H1482 H 0.81057 0.70334 0.70255 0.0
H1483 H 0.78105 0.70089 0.76186 0.0
H1484 H 0.78479 0.89569 0.8332 0.0
H1485 H 0.79278 0.84254 0.83979 0.0
H1486 H 0.76411 0.85269 0.78726 0.0
H1487 H 0.79719 0.87457 0.85251 0.0
Eu1488 Eu 0.54191 0.52826 0.53074 0.0
C1489 C 0.48207 0.46667 0.48451 0.0
N1490 N 0.49192 0.48197 0.47973 0.0
C1491 C 0.49361 0.46696 0.44847 0.0
C1492 C 0.47809 0.45065 0.47146 0.0
C1493 C 0.49731 0.48245 0.46186 0.0
C1494 C 0.48402 0.45096 0.4533 0.0
C1495 C 0.46646 0.45094 0.50806 0.0
C1496 C 0.47601 0.46694 0.50256 0.0
C1497 C 0.46256 0.43501 0.49509 0.0
C1498 C 0.46823 0.4349 0.47681 0.0
Eu1499 Eu 0.49427 0.50806 0.50155 0.0
N1500 N 0.47969 0.48265 0.51481 0.0
C1501 C 0.46112 0.45134 0.52649 0.0
C1502 C 0.47409 0.4831 0.53264 0.0
C1503 C 0.46502 0.46747 0.53883 0.0
H1504 H 0.50383 0.49493 0.45758 0.0
H1505 H 0.46078 0.46795 0.55306 0.0
H1506 H 0.53772 0.54252 0.57694 0.0
H1507 H 0.58131 0.56369 0.48101 0.0
H1508 H 0.47617 0.49536 0.54217 0.0
H1509 H 0.45391 0.4393 0.53129 0.0
H1510 H 0.56423 0.53753 0.49334 0.0
H1511 H 0.49787 0.46745 0.43429 0.0
H1512 H 0.4551 0.42268 0.49906 0.0
H1513 H 0.465 0.42253 0.46693 0.0
H1514 H 0.54534 0.57033 0.59967 0.0
H1515 H 0.48107 0.43898 0.44283 0.0
H1516 H 0.58753 0.59362 0.50051 0.0
N1517 N 0.54765 0.55473 0.55336 0.0
C1518 C 0.55718 0.56981 0.54775 0.0
C1519 C 0.54842 0.57049 0.58498 0.0
C1520 C 0.56218 0.58604 0.56045 0.0
C1521 C 0.5437 0.55477 0.57188 0.0
C1522 C 0.55751 0.58627 0.57918 0.0
N1523 N 0.559 0.55265 0.51834 0.0
C1524 C 0.56606 0.55059 0.50145 0.0
C1525 C 0.57337 0.584 0.52367 0.0
C1526 C 0.56296 0.56876 0.52971 0.0
C1527 C 0.57957 0.58222 0.50569 0.0
C1528 C 0.57606 0.56537 0.49463 0.0
H1529 H 0.56133 0.59838 0.58944 0.0
H1530 H 0.57611 0.6139 0.56389 0.0
H1531 H 0.58565 0.61219 0.53155 0.0
O1532 O 0.56339 0.51397 0.52707 0.0
O1533 O 0.53026 0.5469 0.51188 0.0
O1534 O 0.50024 0.53838 0.5126 0.0
O1535 O 0.56204 0.52906 0.55515 0.0
O1536 O 0.54054 0.5123 0.5012 0.0
O1537 O 0.51621 0.51963 0.48518 0.0
O1538 O 0.46577 0.50416 0.49416 0.0
O1539 O 0.51239 0.48832 0.50852 0.0
O1540 O 0.52561 0.5023 0.53794 0.0
O1541 O 0.4832 0.51535 0.4743 0.0
O1542 O 0.49211 0.52156 0.53145 0.0
O1543 O 0.5197 0.52342 0.54922 0.0
C1544 C 0.51429 0.55057 0.51041 0.0
C1545 C 0.58592 0.51329 0.55343 0.0
C1546 C 0.61371 0.50489 0.54872 0.0
C1547 C 0.61635 0.5022 0.56825 0.0
C1548 C 0.58842 0.51061 0.57294 0.0
C1549 C 0.60365 0.50503 0.58031 0.0
C1550 C 0.59854 0.51047 0.54146 0.0
C1551 C 0.53157 0.51497 0.48518 0.0
C1552 C 0.57011 0.51868 0.54513 0.0
C1553 C 0.57221 0.60134 0.55434 0.0
C1554 C 0.57769 0.60035 0.53595 0.0
C1555 C 0.52089 0.48762 0.52559 0.0
C1556 C 0.45595 0.52448 0.47429 0.0
C1557 C 0.43422 0.54136 0.48382 0.0
C1558 C 0.43354 0.54822 0.46604 0.0
C1559 C 0.45526 0.53132 0.45643 0.0
C1560 C 0.44547 0.52969 0.48801 0.0
C1561 C 0.44415 0.54326 0.4524 0.0
C1562 C 0.50269 0.52381 0.54795 0.0
C1563 C 0.46694 0.5113 0.47809 0.0
H1564 H 0.62798 0.4976 0.57401 0.0
H1565 H 0.57855 0.5126 0.58234 0.0
H1566 H 0.60556 0.50278 0.59531 0.0
H1567 H 0.59661 0.51274 0.52642 0.0
H1568 H 0.42457 0.55706 0.46262 0.0
H1569 H 0.46316 0.52729 0.44556 0.0
H1570 H 0.4456 0.52435 0.50177 0.0
H1571 H 0.44353 0.5484 0.43857 0.0
Eu1572 Eu 1.0002 0.52084 0.0318 0.0
C1573 C 0.06752 0.55909 0.98689 0.0
N1574 N 0.05505 0.54355 0.98198 0.0
C1575 C 0.04985 0.55093 0.94967 0.0
C1576 C 0.07096 0.5715 0.97343 0.0
C1577 C 0.04698 0.53893 0.96335 0.0
C1578 C 0.06164 0.56741 0.95482 0.0
C1579 C 0.09089 0.57811 0.01022 0.0
C1580 C 0.07752 0.5624 0.00517 0.0
C1581 C 0.0938 0.59067 0.99702 0.0
C1582 C 0.08386 0.58739 0.97872 0.0
Eu1583 Eu 0.05095 0.52557 0.00746 0.0
N1584 N 0.0743 0.5503 0.018 0.0
C1585 C 0.10099 0.58075 0.02844 0.0
C1586 C 0.08452 0.55244 0.03545 0.0
C1587 C 0.09791 0.56776 0.04102 0.0
H1588 H 0.03848 0.52592 0.95865 0.0
H1589 H 0.10588 0.5695 0.05497 0.0
H1590 H 0.00667 0.5153 0.08016 0.0
H1591 H 0.95186 0.47922 0.97503 0.0
H1592 H 0.08251 0.54225 0.04498 0.0
H1593 H 0.11135 0.59264 0.03282 0.0
H1594 H 0.97283 0.50683 0.99064 0.0
H1595 H 0.04311 0.54735 0.93507 0.0
H1596 H 0.10388 0.60288 0.00076 0.0
H1597 H 0.0865 0.59711 0.9686 0.0
H1598 H 1.0002 0.49108 0.10021 0.0
H1599 H 0.06389 0.57662 0.94412 0.0
H1600 H 0.94571 0.45276 0.99281 0.0
N1601 N 0.99457 0.49907 0.05363 0.0
C1602 C 0.98339 0.48333 0.04579 0.0
C1603 C 0.99574 0.48857 0.08485 0.0
C1604 C 0.97888 0.46922 0.0571 0.0
C1605 C 0.99977 0.5022 0.07318 0.0
C1606 C 0.98557 0.47188 0.07671 0.0
N1607 N 0.97918 0.49566 0.01627 0.0
C1608 C 0.97049 0.4952 -0.00177 0.0
C1609 C 0.96331 0.46571 0.01853 0.0
C1610 C 0.9754 0.48163 0.02673 0.0
C1611 C 0.95505 0.46477 -0.0004 0.0
C1612 C 0.9585 0.47967 0.9895 0.0
H1613 H 0.98232 0.46142 0.08587 0.0
H1614 H 0.96385 0.44217 0.05721 0.0
H1615 H 0.95041 0.43902 0.02341 0.0
O1616 O 0.97663 0.5321 0.02269 0.0
O1617 O 0.00633 0.49604 0.01331 0.0
O1618 O 0.03693 0.4996 0.01831 0.0
O1619 O 0.98662 0.53275 0.05324 0.0
O1620 O 0.01047 0.5326 0.00568 0.0
O1621 O 0.02644 0.51819 0.98634 0.0
O1622 O 0.07396 0.51466 0.01742 0.0
O1623 O 0.04673 0.55265 0.02295 0.0
O1624 O 0.0179 0.54907 0.03251 0.0
O1625 O 0.06004 0.50646 0.9881 0.0
O1626 O 0.03432 0.52199 0.0303 0.0
O1627 O 0.02264 0.5257 0.05617 0.0
C1628 C 0.02099 0.48959 0.0119 0.0
C1629 C 0.96168 0.54674 0.04731 0.0
C1630 C 0.93635 0.56071 0.04103 0.0
C1631 C 0.93753 0.56652 0.06083 0.0
C1632 C 0.96267 0.55273 0.06714 0.0
C1633 C 0.95066 0.56256 0.0738 0.0
C1634 C 0.94846 0.55084 0.03419 0.0
C1635 C 0.01156 0.52301 0.98943 0.0
C1636 C 0.97515 0.53716 0.04068 0.0
C1637 C 0.96729 0.45315 0.04875 0.0
C1638 C 0.95958 0.45139 0.02952 0.0
C1639 C 0.03346 0.55908 0.03003 0.0
C1640 C 0.09034 0.50535 0.99287 0.0
C1641 C 0.11722 0.49355 0.99335 0.0
C1642 C 0.12069 0.50075 0.9762 0.0
C1643 C 0.094 0.51283 0.97585 0.0
C1644 C 0.10212 0.49593 0.00169 0.0
C1645 C 0.10916 0.5105 0.96758 0.0
C1646 C 0.037 0.52499 0.0489 0.0
C1647 C 0.07351 0.5054 0.00054 0.0
H1648 H 0.92826 0.57419 0.06622 0.0
H1649 H 0.97285 0.54999 0.07756 0.0
H1650 H 0.95156 0.56717 0.08906 0.0
H1651 H 0.94759 0.54646 0.01887 0.0
H1652 H 0.1322 0.49867 0.96945 0.0
H1653 H 0.08497 0.52007 0.96874 0.0
H1654 H 0.0992 0.48985 0.01462 0.0
H1655 H 0.1118 0.51597 0.95429 0.0
C1656 C 0.00692 0.21084 0.98469 0.0
C1657 C 0.00293 0.21408 0.96545 0.0
C1658 C 0.00828 0.19355 0.98929 0.0
C1659 C 0.01011 0.14624 0.96608 0.0
H1660 H 0.00695 0.13527 0.01847 0.0
C1661 C 0.00681 0.07321 0.98669 0.0
C1662 C 0.01566 0.07093 0.00463 0.0
C1663 C 0.00535 0.09042 0.98193 0.0
C1664 C 0.00804 0.13805 0.00376 0.0
H1665 H 0.99689 0.20102 0.93599 0.0
H1666 H 0.9984 0.17098 0.94384 0.0
H1667 H 0.00337 0.16453 0.0103 0.0
H1668 H 0.02974 0.08555 0.03165 0.0
H1669 H 0.0275 0.11543 0.02329 0.0
H1670 H 0.01412 0.11928 0.95961 0.0
C1671 C 0.00111 0.18181 0.95561 0.0
C1672 C 0.00606 0.15514 -0.00104 0.0
C1673 C 0.99999 0.19922 0.95099 0.0
C1674 C 0.02295 0.08657 0.01765 0.0
C1675 C 0.02149 0.10382 0.01289 0.0
C1676 C 0.01176 0.12904 0.97084 0.0
C1677 C 0.00545 0.17852 0.9749 0.0
C1678 C 0.00716 0.15979 0.98 0.0
C1679 C 0.01264 0.1061 0.99492 0.0
C1680 C 0.01085 0.12461 0.9898 0.0
H1681 H 0.0093 0.2218 0.99635 0.0
H1682 H 0.01196 0.19229 0.0043 0.0
H1683 H 0.0115 0.14884 0.95141 0.0
H1684 H 0.00089 0.06162 0.97622 0.0
H1685 H 0.99819 0.09138 0.96809 0.0
C1686 C 0.10476 0.79316 0.15678 0.0
C1687 C 0.10095 0.78332 0.1382 0.0
C1688 C 0.12041 0.79282 0.16891 0.0
C1689 C 0.1648 0.77906 0.16769 0.0
H1690 H 0.16544 0.78218 0.22324 0.0
C1691 C 0.22109 0.75968 0.21769 0.0
C1692 C 0.22834 0.77155 0.2345 0.0
C1693 C 0.20572 0.76186 0.2064 0.0
C1694 C 0.16552 0.7814 0.20775 0.0
H1695 H 0.11083 0.76531 0.11807 0.0
H1696 H 0.13732 0.76426 0.13903 0.0
H1697 H 0.13863 0.78483 0.20294 0.0
H1698 H 0.22483 0.79486 0.25279 0.0
H1699 H 0.19764 0.7983 0.23356 0.0
H1700 H 0.1915 0.77505 0.17253 0.0
C1701 C 0.12869 0.77273 0.14427 0.0
C1702 C 0.15012 0.78302 0.19603 0.0
C1703 C 0.11324 0.77321 0.13217 0.0
C1704 C 0.2195 0.78536 0.24005 0.0
C1705 C 0.20394 0.78738 0.22896 0.0
C1706 C 0.18004 0.77715 0.17936 0.0
C1707 C 0.13267 0.78254 0.16287 0.0
C1708 C 0.1494 0.78172 0.17572 0.0
C1709 C 0.19691 0.77577 0.21184 0.0
C1710 C 0.18063 0.77818 0.19955 0.0
H1711 H 0.09564 0.80109 0.16198 0.0
H1712 H 0.12292 0.80077 0.18297 0.0
H1713 H 0.16522 0.77851 0.15228 0.0
H1714 H 0.22703 0.74841 0.21346 0.0
H1715 H 0.20053 0.75243 0.19355 0.0
C1716 C 0.51665 0.82311 0.46246 0.0
C1717 C 0.49916 0.81348 0.45653 0.0
C1718 C 0.52011 0.84176 0.46906 0.0
C1719 C 0.4987 0.88166 0.46556 0.0
H1720 H 0.53626 0.90623 0.50564 0.0
C1721 C 0.50437 0.9569 0.49408 0.0
C1722 C 0.52121 0.96815 0.49914 0.0
C1723 C 0.50232 0.93817 0.48974 0.0
C1724 C 0.52581 0.89966 0.49426 0.0
H1725 H 0.47162 0.8159 0.45424 0.0
H1726 H 0.47753 0.84776 0.46602 0.0
H1727 H 0.53179 0.87357 0.49722 0.0
H1728 H 0.54932 0.96807 0.50331 0.0
H1729 H 0.54585 0.93548 0.49542 0.0
H1730 H 0.49273 0.90754 0.46238 0.0
C1731 C 0.4887 0.84126 0.46502 0.0
C1732 C 0.52324 0.88083 0.48942 0.0
C1733 C 0.48529 0.82282 0.45838 0.0
C1734 C 0.53607 0.95996 0.4995 0.0
C1735 C 0.53406 0.94115 0.49514 0.0
C1736 C 0.50127 0.90038 0.47036 0.0
C1737 C 0.50617 0.85125 0.46994 0.0
C1738 C 0.50951 0.87146 0.47508 0.0
C1739 C 0.51712 0.9299 0.49011 0.0
C1740 C 0.51478 0.90977 0.48488 0.0
H1741 H 0.52769 0.81644 0.46117 0.0
H1742 H 0.53375 0.84887 0.4727 0.0
H1743 H 0.48828 0.8752 0.45409 0.0
H1744 H 0.49267 0.96256 0.49314 0.0
H1745 H 0.48901 0.93016 0.48619 0.0
C1746 C 0.48119 0.29091 0.62914 0.0
C1747 C 0.49755 0.28686 0.63596 0.0
C1748 C 0.46734 0.2899 0.64061 0.0
C1749 C 0.45106 0.26909 0.68286 0.0
H1750 H 0.41941 0.30273 0.68084 0.0
C1751 C 0.39511 0.26487 0.73109 0.0
C1752 C 0.37824 0.26567 0.72212 0.0
C1753 C 0.41029 0.27017 0.72217 0.0
C1754 C 0.42804 0.29315 0.68151 0.0
H1755 H 0.51207 0.27868 0.66048 0.0
H1756 H 0.48798 0.277 0.68056 0.0
H1757 H 0.44461 0.30629 0.66234 0.0
H1758 H 0.36413 0.27331 0.69706 0.0
H1759 H 0.39067 0.28283 0.68145 0.0
H1760 H 0.43447 0.25584 0.70183 0.0
C1761 C 0.48578 0.28082 0.66619 0.0
C1762 C 0.44253 0.29516 0.67084 0.0
C1763 C 0.49969 0.28189 0.65471 0.0
C1764 C 0.377 0.27294 0.70453 0.0
C1765 C 0.39224 0.27827 0.69554 0.0
C1766 C 0.43664 0.26711 0.69353 0.0
C1767 C 0.46935 0.28475 0.6593 0.0
C1768 C 0.45423 0.28309 0.67126 0.0
C1769 C 0.40903 0.27627 0.70388 0.0
C1770 C 0.42485 0.27907 0.69301 0.0
H1771 H 0.47897 0.29477 0.61479 0.0
H1772 H 0.45489 0.29279 0.6346 0.0
H1773 H 0.45947 0.25929 0.68333 0.0
H1774 H 0.39642 0.25906 0.74451 0.0
H1775 H 0.42297 0.26879 0.72928 0.0
C1776 C 0.01114 0.80462 0.66119 0.0
C1777 C 0.01867 0.791 0.65239 0.0
C1778 C 0.00979 0.82008 0.65219 0.0
C1779 C 0.00694 0.837 0.60494 0.0
H1780 H 0.02952 0.88395 0.63201 0.0
C1781 C 0.02534 0.89876 0.5641 0.0
C1782 C 0.02797 0.91632 0.5737 0.0
C1783 C 0.02051 0.88373 0.57383 0.0
C1784 C 0.02273 0.87107 0.62425 0.0
H1785 H 0.03019 0.78271 0.62702 0.0
H1786 H 0.0271 0.80917 0.61099 0.0
H1787 H 0.02805 0.85734 0.64886 0.0
H1788 H 0.02692 0.93187 0.60091 0.0
H1789 H 0.01756 0.90574 0.61775 0.0
H1790 H 0.00125 0.85047 0.58045 0.0
C1791 C 0.02252 0.8081 0.62497 0.0
C1792 C 0.02201 0.85575 0.63398 0.0
C1793 C 0.02434 0.79295 0.63419 0.0
C1794 C 0.02458 0.91851 0.59299 0.0
C1795 C 0.0196 0.90344 0.60275 0.0
C1796 C 0.00733 0.85232 0.59532 0.0
C1797 C 0.01544 0.82198 0.63393 0.0
C1798 C 0.01448 0.83848 0.62431 0.0
C1799 C 0.01814 0.88575 0.59355 0.0
C1800 C 0.01565 0.86963 0.60461 0.0
H1801 H 0.00679 0.80359 0.67529 0.0
H1802 H 0.00428 0.83054 0.65947 0.0
H1803 H 0.00082 0.82391 0.59715 0.0
H1804 H 0.02833 0.89665 0.5494 0.0
H1805 H 0.01985 0.87056 0.56609 0.0
C1806 C 0.46545 0.76926 0.83449 0.0
C1807 C 0.47893 0.78363 0.83159 0.0
C1808 C 0.44751 0.76907 0.82881 0.0
C1809 C 0.41576 0.79039 0.79921 0.0
H1810 H 0.38343 0.76995 0.83352 0.0
C1811 C 0.34035 0.79399 0.79079 0.0
C1812 C 0.32795 0.77885 0.79414 0.0
C1813 C 0.35874 0.79504 0.79476 0.0
C1814 C 0.39215 0.77552 0.82358 0.0
H1815 H 0.48375 0.80894 0.81964 0.0
H1816 H 0.45226 0.80875 0.8098 0.0
H1817 H 0.41498 0.77117 0.84092 0.0
H1818 H 0.32584 0.75286 0.80474 0.0
H1819 H 0.35764 0.75472 0.81183 0.0
H1820 H 0.39271 0.79492 0.78203 0.0
C1821 C 0.45568 0.79746 0.81643 0.0
C1822 C 0.41042 0.77621 0.82783 0.0
C1823 C 0.47382 0.79759 0.82207 0.0
C1824 C 0.33473 0.76485 0.80195 0.0
C1825 C 0.35313 0.76594 0.8061 0.0
C1826 C 0.3974 0.78977 0.795 0.0
C1827 C 0.44217 0.78334 0.82013 0.0
C1828 C 0.42261 0.78345 0.81564 0.0
C1829 C 0.3655 0.78102 0.8025 0.0
C1830 C 0.38524 0.78215 0.80704 0.0
H1831 H 0.46873 0.75811 0.84152 0.0
H1832 H 0.43778 0.75763 0.83141 0.0
H1833 H 0.42453 0.79596 0.78933 0.0
H1834 H 0.33592 0.8051 0.785 0.0
H1835 H 0.36767 0.80701 0.79198 0.0
C1836 C 0.50616 0.18578 0.15255 0.0
C1837 C 0.51196 0.20204 0.14503 0.0
C1838 C 0.50714 0.16907 0.14247 0.0
C1839 C 0.53103 0.14932 0.10477 0.0
H1840 H 0.49325 0.10719 0.10059 0.0
C1841 C 0.53147 0.0852 0.0527 0.0
C1842 C 0.52385 0.06807 0.05725 0.0
C1843 C 0.52978 0.10102 0.06384 0.0
C1844 C 0.50411 0.11869 0.10179 0.0
H1845 H 0.52314 0.21312 0.12067 0.0
H1846 H 0.52484 0.18438 0.10338 0.0
H1847 H 0.4907 0.1352 0.11928 0.0
H1848 H 0.50867 0.05451 0.0777 0.0
H1849 H 0.5063 0.08196 0.09749 0.0
H1850 H 0.54464 0.13298 0.08768 0.0
C1851 C 0.51968 0.18443 0.11714 0.0
C1852 C 0.50259 0.13486 0.11254 0.0
C1853 C 0.51857 0.20101 0.12708 0.0
C1854 C 0.51469 0.06737 0.07358 0.0
C1855 C 0.51318 0.08323 0.0849 0.0
C1856 C 0.53262 0.13317 0.0942 0.0
C1857 C 0.51414 0.16816 0.12468 0.0
C1858 C 0.51594 0.15052 0.11402 0.0
C1859 C 0.52067 0.1004 0.08023 0.0
C1860 C 0.51912 0.11756 0.09227 0.0
H1861 H 0.50102 0.18596 0.16633 0.0
H1862 H 0.50281 0.15689 0.14885 0.0
H1863 H 0.5418 0.1609 0.10583 0.0
H1864 H 0.53885 0.08649 0.04048 0.0
H1865 H 0.53553 0.11379 0.05936 0.0
C1866 C 0.09012 0.28816 0.3179 0.0
C1867 C 0.0902 0.2973 0.33646 0.0
C1868 C 0.10619 0.28596 0.31085 0.0
C1869 C 0.15427 0.28734 0.32881 0.0
H1870 H 0.16175 0.28859 0.27524 0.0
C1871 C 0.2245 0.28781 0.30557 0.0
C1872 C 0.22611 0.27969 0.28707 0.0
C1873 C 0.20786 0.28993 0.3108 0.0
C1874 C 0.15995 0.28795 0.29026 0.0
H1875 H 0.10774 0.31181 0.36162 0.0
H1876 H 0.13511 0.3083 0.34945 0.0
H1877 H 0.13314 0.29195 0.28518 0.0
H1878 H 0.211 0.26787 0.25947 0.0
H1879 H 0.18217 0.27072 0.26873 0.0
H1880 H 0.1808 0.28312 0.334 0.0
C1881 C 0.12277 0.30234 0.34039 0.0
C1882 C 0.14337 0.28992 0.29599 0.0
C1883 C 0.10687 0.3045 0.34738 0.0
C1884 C 0.21045 0.27396 0.27393 0.0
C1885 C 0.19377 0.27584 0.27924 0.0
C1886 C 0.17073 0.2853 0.32309 0.0
C1887 C 0.12284 0.29278 0.32214 0.0
C1888 C 0.14026 0.28986 0.31546 0.0
C1889 C 0.19206 0.28384 0.29783 0.0
C1890 C 0.17406 0.28572 0.30373 0.0
H1891 H 0.07765 0.28236 0.30899 0.0
H1892 H 0.1055 0.27847 0.29673 0.0
H1893 H 0.1525 0.28671 0.34384 0.0
H1894 H 0.23616 0.29264 0.31608 0.0
H1895 H 0.20749 0.29658 0.32508 0.0
C1896 C 0.94442 0.00601 0.20101 0.0
C1897 C 0.94964 0.02128 0.21487 0.0
C1898 C 0.95091 0.00574 0.18316 0.0
C1899 C 0.9855 0.03054 0.15672 0.0
H1900 H 0.95377 0.00518 0.1117 0.0
C1901 C 0.99269 0.03716 0.07498 0.0
C1902 C 0.9979 0.02183 0.06663 0.0
C1903 C 0.98671 0.03729 0.09314 0.0
C1904 C 0.96268 0.01234 0.1242 0.0
H1905 H 0.96593 0.04815 0.22104 0.0
H1906 H 0.9767 0.04804 0.18973 0.0
H1907 H 0.94387 0.00489 0.14359 0.0
H1908 H 0.00082 0.99464 0.07017 0.0
H1909 H 0.98943 0.99455 0.1015 0.0
H1910 H 0.00401 0.03843 0.13689 0.0
C1911 C 0.968 0.03601 0.19271 0.0
C1912 C 0.95716 0.01203 0.14251 0.0
C1913 C 0.96175 0.03614 0.21068 0.0
C1914 C 0.99674 0.00655 0.07639 0.0
C1915 C 0.99029 0.00649 0.09421 0.0
C1916 C 0.99086 0.03112 0.13834 0.0
C1917 C 0.96253 0.02087 0.1786 0.0
C1918 C 0.96851 0.02107 0.15907 0.0
C1919 C 0.98546 0.02193 0.10279 0.0
C1920 C 0.97949 0.02199 0.12202 0.0
H1921 H 0.93522 0.99427 0.2039 0.0
H1922 H 0.94672 0.99364 0.17295 0.0
H1923 H 0.99478 0.03736 0.16907 0.0
H1924 H 0.99384 0.04917 0.06779 0.0
H1925 H 0.98311 0.04934 0.09968 0.0
C1926 C 0.25493 0.66287 0.49736 0.0
C1927 C 0.25666 0.64487 0.49603 0.0
C1928 C 0.25879 0.67285 0.48221 0.0
C1929 C 0.25917 0.66813 0.43066 0.0
H1930 H 0.28796 0.71651 0.44023 0.0
C1931 C 0.26019 0.71148 0.37061 0.0
C1932 C 0.25428 0.72732 0.37617 0.0
C1933 C 0.26739 0.70223 0.38454 0.0
C1934 C 0.28004 0.70296 0.43734 0.0
H1935 H 0.26322 0.62283 0.47826 0.0
H1936 H 0.26922 0.64009 0.45122 0.0
H1937 H 0.28529 0.69791 0.46669 0.0
H1938 H 0.2533 0.74711 0.40026 0.0
H1939 H 0.26523 0.73062 0.42469 0.0
H1940 H 0.25296 0.67333 0.40176 0.0
C1941 C 0.26528 0.64658 0.46405 0.0
C1942 C 0.27845 0.69241 0.45244 0.0
C1943 C 0.26181 0.63674 0.47936 0.0
C1944 C 0.2573 0.73466 0.39568 0.0
C1945 C 0.26442 0.72537 0.40962 0.0
C1946 C 0.26066 0.67867 0.41564 0.0
C1947 C 0.26407 0.66477 0.4655 0.0
C1948 C 0.26759 0.67513 0.44927 0.0
C1949 C 0.26862 0.70859 0.40423 0.0
C1950 C 0.27065 0.69638 0.41897 0.0
H1951 H 0.25115 0.66933 0.51031 0.0
H1952 H 0.25754 0.68681 0.48348 0.0
H1953 H 0.25061 0.65488 0.42795 0.0
H1954 H 0.25814 0.70553 0.35565 0.0
H1955 H 0.27082 0.68947 0.38 0.0
C1956 C 0.62001 0.04512 0.70824 0.0
C1957 C 0.63011 0.03191 0.71048 0.0
C1958 C 0.61103 0.04597 0.69021 0.0
C1959 C 0.61239 0.0329 0.63893 0.0
H1960 H 0.56374 0.03919 0.63296 0.0
C1961 C 0.56567 0.01651 0.56771 0.0
C1962 C 0.55396 0.02807 0.56428 0.0
C1963 C 0.57687 0.01936 0.58504 0.0
C1964 C 0.57744 0.03778 0.63448 0.0
H1965 H 0.6379 0.0085 0.69635 0.0
H1966 H 0.62184 0.00975 0.66499 0.0
H1967 H 0.57878 0.03896 0.66513 0.0
H1968 H 0.54536 0.05218 0.57511 0.0
H1969 H 0.5651 0.05724 0.60546 0.0
H1970 H 0.61083 0.03126 0.60815 0.0
C1971 C 0.62133 0.01976 0.67692 0.0
C1972 C 0.58599 0.0376 0.65283 0.0
C1973 C 0.63035 0.01897 0.69485 0.0
C1974 C 0.55407 0.04291 0.57781 0.0
C1975 C 0.56536 0.04584 0.59501 0.0
C1976 C 0.60382 0.03306 0.62054 0.0
C1977 C 0.612 0.03353 0.67438 0.0
C1978 C 0.60341 0.03489 0.65514 0.0
C1979 C 0.57647 0.03382 0.59894 0.0
C1980 C 0.58623 0.0353 0.61823 0.0
H1981 H 0.61975 0.05529 0.72012 0.0
H1982 H 0.60387 0.05671 0.68849 0.0
H1983 H 0.62597 0.03107 0.64048 0.0
H1984 H 0.56578 0.00504 0.55729 0.0
H1985 H 0.58525 0.00983 0.5879 0.0
C1986 C 0.29357 0.36605 0.96668 0.0
C1987 C 0.28684 0.3573 0.98172 0.0
C1988 C 0.29098 0.35717 0.94796 0.0
C1989 C 0.26626 0.31627 0.91561 0.0
H1990 H 0.30582 0.32907 0.88661 0.0
C1991 C 0.27533 0.28022 0.84016 0.0
C1992 C 0.27738 0.29218 0.82622 0.0
C1993 C 0.27562 0.2868 0.85962 0.0
C1994 C 0.2947 0.32535 0.89456 0.0
H1995 H 0.27164 0.33262 0.98917 0.0
H1996 H 0.26787 0.31649 0.95634 0.0
H1997 H 0.30762 0.34284 0.91969 0.0
H1998 H 0.28183 0.32026 0.82154 0.0
H1999 H 0.28309 0.33174 0.85556 0.0
H2000 H 0.25369 0.2983 0.89019 0.0
C2001 C 0.27478 0.33043 0.95891 0.0
C2002 C 0.2956 0.33336 0.91348 0.0
C2003 C 0.27699 0.33958 0.9777 0.0
C2004 C 0.2801 0.31076 0.83202 0.0
C2005 C 0.28084 0.31732 0.85143 0.0
C2006 C 0.26551 0.30797 0.89667 0.0
C2007 C 0.2821 0.33905 0.94388 0.0
C2008 C 0.28125 0.3293 0.92415 0.0
C2009 C 0.27848 0.30542 0.86538 0.0
C2010 C 0.27962 0.31273 0.88592 0.0
H2011 H 0.30087 0.37987 0.9694 0.0
H2012 H 0.29618 0.36455 0.9367 0.0
H2013 H 0.25493 0.31285 0.92331 0.0
H2014 H 0.27313 0.26582 0.83595 0.0
H2015 H 0.27389 0.27741 0.8702 0.0
C2016 C 0.96315 0.00399 0.3122 0.0
C2017 C 0.94936 0.01289 0.30725 0.0
C2018 C 0.97109 0.00576 0.33133 0.0
C2019 C 0.97621 0.03367 0.379 0.0
H2020 H 0.98691 0.99069 0.39858 0.0
C2021 C 0.99235 0.02894 0.46036 0.0
C2022 C 0.006 0.02004 0.46605 0.0
C2023 C 0.98643 0.02879 0.44083 0.0
C2024 C 0.98421 0.00286 0.39327 0.0
H2025 H 0.93328 0.03091 0.31848 0.0
H2026 H 0.94688 0.03373 0.35187 0.0
H2027 H 0.97472 0.98923 0.36486 0.0
H2028 H 0.02453 0.00455 0.45553 0.0
H2029 H 0.014 0.00407 0.4214 0.0
H2030 H 0.9854 0.04719 0.40759 0.0
C2031 C 0.95179 0.0256 0.34094 0.0
C2032 C 0.97724 0.00205 0.37392 0.0
C2033 C 0.94393 0.02392 0.32179 0.0
C2034 C 0.01381 0.01127 0.4517 0.0
C2035 C 0.00776 0.01099 0.43213 0.0
C2036 C 0.9831 0.03446 0.39839 0.0
C2037 C 0.96535 0.01639 0.346 0.0
C2038 C 0.97313 0.01744 0.36653 0.0
C2039 C 0.99396 0.0197 0.42649 0.0
C2040 C 0.98715 0.01905 0.40575 0.0
H2041 H 0.96773 0.99549 0.30133 0.0
H2042 H 0.98172 0.99875 0.33462 0.0
H2043 H 0.97343 0.04584 0.37376 0.0
H2044 H 0.98609 0.03596 0.47099 0.0
H2045 H 0.97567 0.0355 0.43699 0.0
C2046 C 0.27836 0.65962 0.60191 0.0
C2047 C 0.26718 0.66213 0.58579 0.0
C2048 C 0.27786 0.66879 0.61993 0.0
C2049 C 0.26357 0.708 0.64282 0.0
H2050 H 0.26719 0.68373 0.68869 0.0
C2051 C 0.25435 0.74181 0.7155 0.0
C2052 C 0.26868 0.74298 0.72984 0.0
C2053 C 0.25239 0.72977 0.69884 0.0
C2054 C 0.26617 0.69057 0.67594 0.0
H2055 H 0.24669 0.6759 0.57556 0.0
H2056 H 0.24541 0.69162 0.60722 0.0
H2057 H 0.26756 0.66726 0.65698 0.0
H2058 H 0.29178 0.73223 0.73879 0.0
H2059 H 0.28851 0.71121 0.70922 0.0
H2060 H 0.26212 0.73125 0.66169 0.0
C2061 C 0.25489 0.68297 0.60589 0.0
C2062 C 0.26647 0.68125 0.65788 0.0
C2063 C 0.25562 0.67402 0.5878 0.0
C2064 C 0.28065 0.73148 0.72779 0.0
C2065 C 0.27871 0.71943 0.71105 0.0
C2066 C 0.26309 0.71721 0.66077 0.0
C2067 C 0.26597 0.68038 0.62211 0.0
C2068 C 0.26527 0.68995 0.6412 0.0
C2069 C 0.26484 0.7189 0.69628 0.0
C2070 C 0.26444 0.70859 0.67742 0.0
H2071 H 0.28743 0.65051 0.60058 0.0
H2072 H 0.2868 0.66685 0.63212 0.0
H2073 H 0.26299 0.71514 0.63026 0.0
H2074 H 0.24484 0.75042 0.71705 0.0
H2075 H 0.24148 0.72935 0.68767 0.0
C2076 C 0.63702 0.04691 0.79735 0.0
C2077 C 0.65056 0.03715 0.79702 0.0
C2078 C 0.62515 0.04442 0.81082 0.0
C2079 C 0.6091 0.01454 0.84684 0.0
H2080 H 0.59367 0.05745 0.86678 0.0
C2081 C 0.58089 0.03493 0.91825 0.0
C2082 C 0.56653 0.04357 0.91522 0.0
C2083 C 0.58794 0.02767 0.90249 0.0
C2084 C 0.5977 0.04531 0.86113 0.0
H2085 H 0.66256 0.01721 0.81021 0.0
H2086 H 0.64249 0.01374 0.83491 0.0
H2087 H 0.6139 0.05946 0.84278 0.0
H2088 H 0.54663 0.04905 0.89384 0.0
H2089 H 0.55916 0.03658 0.86626 0.0
H2090 H 0.5935 0.00085 0.86661 0.0
C2091 C 0.64059 0.0228 0.82431 0.0
C2092 C 0.60924 0.04641 0.8473 0.0
C2093 C 0.65219 0.02492 0.81039 0.0
C2094 C 0.55796 0.04281 0.89644 0.0
C2095 C 0.56495 0.0355 0.88074 0.0
C2096 C 0.59774 0.01354 0.86113 0.0
C2097 C 0.62694 0.03256 0.82468 0.0
C2098 C 0.61493 0.03103 0.83977 0.0
C2099 C 0.58064 0.02899 0.88367 0.0
C2100 C 0.59183 0.02893 0.86809 0.0
H2101 H 0.63527 0.05608 0.78681 0.0
H2102 H 0.61448 0.05174 0.81026 0.0
H2103 H 0.61318 0.00242 0.84126 0.0
H2104 H 0.58766 0.03528 0.93266 0.0
H2105 H 0.60015 0.02282 0.90498 0.0
C2106 C 0.27928 0.36204 0.0959 0.0
C2107 C 0.28306 0.35129 0.08 0.0
C2108 C 0.27795 0.35545 0.11363 0.0
C2109 C 0.29256 0.32274 0.14255 0.0
H2110 H 0.25273 0.32775 0.17036 0.0
C2111 C 0.2803 0.28645 0.20873 0.0
C2112 C 0.27407 0.29526 0.22438 0.0
C2113 C 0.28099 0.29365 0.19133 0.0
C2114 C 0.26407 0.32649 0.16293 0.0
H2115 H 0.28839 0.32519 0.07021 0.0
H2116 H 0.2862 0.31371 0.10135 0.0
H2117 H 0.25481 0.33957 0.13942 0.0
H2118 H 0.26351 0.31852 0.23393 0.0
H2119 H 0.26532 0.33154 0.20357 0.0
H2120 H 0.30212 0.31005 0.16609 0.0
C2121 C 0.28431 0.32726 0.10002 0.0
C2122 C 0.26521 0.33318 0.14519 0.0
C2123 C 0.2855 0.3338 0.0822 0.0
C2124 C 0.26839 0.31143 0.22214 0.0
C2125 C 0.26933 0.31881 0.20471 0.0
C2126 C 0.29155 0.31625 0.16036 0.0
C2127 C 0.2805 0.33803 0.11587 0.0
C2128 C 0.27937 0.33119 0.13477 0.0
C2129 C 0.27576 0.31004 0.18915 0.0
C2130 C 0.27718 0.31783 0.17067 0.0
H2131 H 0.27733 0.37559 0.0947 0.0
H2132 H 0.27518 0.36408 0.12568 0.0
H2133 H 0.30379 0.32134 0.13496 0.0
H2134 H 0.28471 0.27391 0.20987 0.0
H2135 H 0.28558 0.28627 0.17954 0.0
C2136 C 0.2317 0.95528 0.97576 0.0
C2137 C 0.23217 0.93898 0.98327 0.0
C2138 C 0.21748 0.96366 0.97805 0.0
C2139 C 0.19134 0.97122 0.01375 0.0
H2140 H 0.15117 0.97483 0.97732 0.0
C2141 C 0.1292 0.98105 0.04152 0.0
C2142 C 0.12475 0.99746 0.03804 0.0
C2143 C 0.14024 0.97375 0.03009 0.0
C2144 C 0.16244 0.97402 0.98748 0.0
H2145 H 0.21839 0.91829 -0.00154 0.0
H2146 H 0.19369 0.93319 0.00281 0.0
H2147 H 0.17639 0.96358 0.96547 0.0
H2148 H 0.12655 0.01829 0.01901 0.0
H2149 H 0.14652 0.00565 -0.00075 0.0
H2150 H 0.17748 0.98102 0.03581 0.0
C2151 C 0.20404 0.93917 0.99478 0.0
C2152 C 0.17675 0.96777 0.98076 0.0
C2153 C 0.21804 0.93067 0.99223 0.0
C2154 C 0.13016 0.00572 0.02203 0.0
C2155 C 0.14134 0.99847 0.01066 0.0
C2156 C 0.17716 0.97737 0.02041 0.0
C2157 C 0.20395 0.95584 0.98809 0.0
C2158 C 0.19086 0.96581 0.99402 0.0
C2159 C 0.14704 0.98293 0.01528 0.0
C2160 C 0.16239 0.97812 0.00741 0.0
H2161 H 0.24265 0.96185 0.96891 0.0
H2162 H 0.21753 0.97665 0.97302 0.0
H2163 H 0.20231 0.96987 0.02406 0.0
H2164 H 0.12462 0.97424 0.05343 0.0
H2165 H 0.14438 0.96153 0.03355 0.0
C2166 C 0.70141 0.62089 0.99598 0.0
C2167 C 0.70772 0.63416 0.01188 0.0
C2168 C 0.68436 0.61018 0.99445 0.0
C2169 C 0.64162 0.60814 0.01519 0.0
H2170 H 0.63241 0.55781 0.99382 0.0
C2171 C 0.58382 0.55326 0.02986 0.0
C2172 C 0.57082 0.54782 0.01375 0.0
C2173 C 0.60043 0.56328 0.02785 0.0
C2174 C 0.63486 0.57189 -0.00032 0.0
H2175 H 0.70141 0.64632 0.03886 0.0
H2176 H 0.67225 0.62725 0.03674 0.0
H2177 H 0.66182 0.57665 0.99393 0.0
H2178 H 0.56497 0.54767 0.98288 0.0
H2179 H 0.59464 0.56461 0.97918 0.0
H2180 H 0.61487 0.60297 0.02184 0.0
C2181 C 0.67999 0.62547 0.02498 0.0
C2182 C 0.65163 0.58273 -0.00034 0.0
C2183 C 0.69682 0.63635 0.02631 0.0
C2184 C 0.57485 0.55187 0.99546 0.0
C2185 C 0.59171 0.56144 0.99335 0.0
C2186 C 0.62503 0.59723 0.01552 0.0
C2187 C 0.67342 0.61235 0.00895 0.0
C2188 C 0.6553 0.60096 0.00767 0.0
C2189 C 0.60445 0.56747 0.00961 0.0
C2190 C 0.62161 0.57904 0.00793 0.0
H2191 H 0.70952 0.61899 0.98458 0.0
H2192 H 0.67972 0.60039 0.98178 0.0
H2193 H 0.64371 0.62219 0.02099 0.0
H2194 H 0.58086 0.55041 0.04412 0.0
H2195 H 0.6101 0.56795 0.04055 0.0
C2196 C 0.6736 0.48985 0.2833 0.0
C2197 C 0.65564 0.48584 0.28603 0.0
C2198 C 0.68358 0.47648 0.28322 0.0
C2199 C 0.68487 0.43158 0.29784 0.0
H2200 H 0.71515 0.4292 0.25746 0.0
C2201 C 0.712 0.3693 0.27114 0.0
C2202 C 0.72857 0.37242 0.2644 0.0
C2203 C 0.70502 0.38379 0.27843 0.0
C2204 C 0.70706 0.42989 0.26909 0.0
H2205 H 0.63407 0.46472 0.29096 0.0
H2206 H 0.6515 0.44127 0.29054 0.0
H2207 H 0.69858 0.45309 0.26006 0.0
H2208 H 0.75151 0.39251 0.26113 0.0
H2209 H 0.73952 0.41793 0.27427 0.0
H2210 H 0.69304 0.40792 0.30642 0.0
C2211 C 0.65789 0.45482 0.28874 0.0
C2212 C 0.69752 0.44356 0.27053 0.0
C2213 C 0.64788 0.46822 0.28881 0.0
C2214 C 0.73874 0.38993 0.26643 0.0
C2215 C 0.73181 0.4044 0.27375 0.0
C2216 C 0.69443 0.41782 0.29636 0.0
C2217 C 0.67581 0.45882 0.28584 0.0
C2218 C 0.68627 0.44452 0.28485 0.0
C2219 C 0.71454 0.40153 0.27891 0.0
C2220 C 0.70557 0.41684 0.28192 0.0
H2221 H 0.67998 0.50331 0.28117 0.0
H2222 H 0.69742 0.47999 0.28116 0.0
H2223 H 0.67641 0.43211 0.30914 0.0
H2224 H 0.70395 0.35582 0.26942 0.0
H2225 H 0.69165 0.38119 0.2822 0.0
C2226 C 0.84755 0.44576 0.5043 0.0
C2227 C 0.83641 0.45323 0.51569 0.0
C2228 C 0.86495 0.45463 0.50468 0.0
C2229 C 0.90005 0.4818 0.53746 0.0
H2230 H 0.92388 0.48679 0.49176 0.0
C2231 C 0.9728 0.51575 0.53317 0.0
C2232 C 0.98164 0.50532 0.52165 0.0
C2233 C 0.95511 0.50932 0.53497 0.0
C2234 C 0.91729 0.48532 0.50457 0.0
H2235 H 0.83378 0.47578 0.53574 0.0
H2236 H 0.86497 0.49115 0.53723 0.0
H2237 H 0.89155 0.47833 0.48824 0.0
H2238 H 0.9801 0.48008 0.50373 0.0
H2239 H 0.9487 0.46904 0.50623 0.0
H2240 H 0.92592 0.4886 0.55372 0.0
C2241 C 0.8601 0.47858 0.52787 0.0
C2242 C 0.89895 0.4807 0.50258 0.0
C2243 C 0.84249 0.46985 0.52712 0.0
C2244 C 0.97325 0.48812 0.51277 0.0
C2245 C 0.95547 0.48189 0.51416 0.0
C2246 C 0.91843 0.48652 0.53945 0.0
C2247 C 0.87139 0.47087 0.51677 0.0
C2248 C 0.89029 0.47861 0.51899 0.0
C2249 C 0.94626 0.49274 0.52476 0.0
C2250 C 0.92705 0.48795 0.52298 0.0
H2251 H 0.84283 0.43306 0.49514 0.0
H2252 H 0.87355 0.44845 0.49612 0.0
H2253 H 0.89351 0.47991 0.55023 0.0
H2254 H 0.97937 0.52905 0.54009 0.0
H2255 H 0.94805 0.51778 0.54317 0.0
C2256 C 0.33933 0.06198 0.28983 0.0
C2257 C 0.3566 0.06438 0.29941 0.0
C2258 C 0.33075 0.07623 0.28989 0.0
C2259 C 0.33059 0.12158 0.31181 0.0
H2260 H 0.31121 0.12597 0.2596 0.0
C2261 C 0.31883 0.18182 0.27183 0.0
C2262 C 0.30214 0.17899 0.26085 0.0
C2263 C 0.32261 0.16927 0.28386 0.0
C2264 C 0.31624 0.12466 0.2743 0.0
H2265 H 0.37833 0.08324 0.31708 0.0
H2266 H 0.36332 0.10873 0.31651 0.0
H2267 H 0.32476 0.10065 0.26539 0.0
H2268 H 0.27578 0.16212 0.2549 0.0
H2269 H 0.28272 0.13968 0.2753 0.0
H2270 H 0.3229 0.14658 0.32021 0.0
C2271 C 0.35644 0.09561 0.30936 0.0
C2272 C 0.32401 0.11026 0.27761 0.0
C2273 C 0.36505 0.08118 0.30948 0.0
C2274 C 0.2888 0.16438 0.26317 0.0
C2275 C 0.29261 0.15179 0.27505 0.0
C2276 C 0.32298 0.1363 0.30839 0.0
C2277 C 0.33938 0.09321 0.29922 0.0
C2278 C 0.33116 0.10856 0.29636 0.0
C2279 C 0.30977 0.15379 0.28467 0.0
C2280 C 0.31578 0.13775 0.2896 0.0
H2281 H 0.33239 0.04914 0.28206 0.0
H2282 H 0.31751 0.07408 0.28215 0.0
H2283 H 0.33608 0.12038 0.32636 0.0
H2284 H 0.32909 0.19331 0.27049 0.0
H2285 H 0.33599 0.17076 0.29102 0.0
C2286 C 0.30837 0.12173 0.51181 0.0
C2287 C 0.31065 0.13791 0.50352 0.0
C2288 C 0.32187 0.11198 0.51298 0.0
C2289 C 0.36263 0.1055 0.49284 0.0
H2290 H 0.37389 0.08818 0.5418 0.0
C2291 C 0.4283 0.08351 0.51576 0.0
C2292 C 0.42781 0.06963 0.52744 0.0
C2293 C 0.41284 0.0895 0.51007 0.0
C2294 C 0.37071 0.09259 0.5279 0.0
H2295 H 0.32877 0.15636 0.48965 0.0
H2296 H 0.35238 0.13929 0.49176 0.0
H2297 H 0.34937 0.10366 0.53757 0.0
H2298 H 0.41101 0.05042 0.54167 0.0
H2299 H 0.38379 0.06072 0.53158 0.0
H2300 H 0.38425 0.09466 0.48332 0.0
C2301 C 0.34009 0.13412 0.49722 0.0
C2302 C 0.35668 0.10153 0.5255 0.0
C2303 C 0.32661 0.14395 0.49613 0.0
C2304 C 0.41157 0.06113 0.53258 0.0
C2305 C 0.3961 0.06713 0.52694 0.0
C2306 C 0.37669 0.09652 0.49523 0.0
C2307 C 0.33792 0.11812 0.50583 0.0
C2308 C 0.35254 0.10817 0.508 0.0
C2309 C 0.39667 0.08177 0.51614 0.0
C2310 C 0.38094 0.09005 0.51284 0.0
H2311 H 0.29624 0.11669 0.51763 0.0
H2312 H 0.31973 0.09959 0.51951 0.0
H2313 H 0.35962 0.11031 0.47912 0.0
H2314 H 0.44079 0.09024 0.51179 0.0
H2315 H 0.41376 0.10085 0.50187 0.0
C2316 C 0.65748 0.59993 0.26831 0.0
C2317 C 0.65917 0.58952 0.28348 0.0
C2318 C 0.66869 0.61665 0.2689 0.0
C2319 C 0.71123 0.64472 0.29373 0.0
H2320 H 0.69304 0.68219 0.26957 0.0
C2321 C 0.74156 0.72257 0.29627 0.0
C2322 C 0.74758 0.72569 0.27851 0.0
C2323 C 0.73184 0.70566 0.29852 0.0
C2324 C 0.69818 0.67181 0.27641 0.0
H2325 H 0.67361 0.58837 0.31135 0.0
H2326 H 0.69269 0.61811 0.31295 0.0
H2327 H 0.67319 0.65353 0.27096 0.0
H2328 H 0.74843 0.71398 0.24925 0.0
H2329 H 0.73071 0.68453 0.253 0.0
H2330 H 0.73618 0.66356 0.29954 0.0
C2331 C 0.68312 0.61313 0.30025 0.0
C2332 C 0.68693 0.65535 0.27707 0.0
C2333 C 0.67213 0.59617 0.29942 0.0
C2334 C 0.74403 0.71172 0.26312 0.0
C2335 C 0.73395 0.69499 0.26523 0.0
C2336 C 0.72242 0.66135 0.29334 0.0
C2337 C 0.68157 0.62355 0.28494 0.0
C2338 C 0.69336 0.64146 0.28544 0.0
C2339 C 0.72776 0.69194 0.28289 0.0
C2340 C 0.71595 0.67484 0.28446 0.0
H2341 H 0.64775 0.59497 0.25571 0.0
H2342 H 0.66739 0.624 0.25659 0.0
H2343 H 0.71672 0.6343 0.30007 0.0
H2344 H 0.74433 0.73322 0.30831 0.0
H2345 H 0.72706 0.70343 0.31222 0.0
C2346 C 0.83562 0.45827 0.79005 0.0
C2347 C 0.84281 0.46302 0.77328 0.0
C2348 C 0.83162 0.44042 0.79314 0.0
C2349 C 0.83947 0.39578 0.77868 0.0
H2350 H 0.7909 0.38031 0.78848 0.0
C2351 C 0.80085 0.32324 0.76121 0.0
C2352 C 0.78806 0.31717 0.77303 0.0
C2353 C 0.81015 0.34097 0.76452 0.0
C2354 C 0.80464 0.38441 0.78628 0.0
H2355 H 0.85117 0.45295 0.74643 0.0
H2356 H 0.84329 0.42133 0.75152 0.0
H2357 H 0.80272 0.41193 0.78845 0.0
H2358 H 0.77522 0.32462 0.79784 0.0
H2359 H 0.7921 0.35496 0.80434 0.0
H2360 H 0.84119 0.36802 0.7762 0.0
C2361 C 0.84137 0.43163 0.76246 0.0
C2362 C 0.81136 0.4025 0.78617 0.0
C2363 C 0.8455 0.44959 0.75938 0.0
C2364 C 0.78487 0.32891 0.78836 0.0
C2365 C 0.79456 0.34633 0.7921 0.0
C2366 C 0.83278 0.37756 0.779 0.0
C2367 C 0.83449 0.42704 0.77939 0.0
C2368 C 0.8286 0.40822 0.78188 0.0
C2369 C 0.807 0.35262 0.77999 0.0
C2370 C 0.81516 0.37177 0.7823 0.0
H2371 H 0.83348 0.46837 0.80108 0.0
H2372 H 0.82627 0.43704 0.80628 0.0
H2373 H 0.85291 0.40012 0.77556 0.0
H2374 H 0.8036 0.31432 0.74944 0.0
H2375 H 0.81946 0.34562 0.75474 0.0
C2376 C 0.06291 0.84516 0.07247 0.0
C2377 C 0.05046 0.83421 0.08174 0.0
C2378 C 0.05919 0.86065 0.06496 0.0
C2379 C 0.02227 0.88563 0.05282 0.0
H2380 H 0.0619 0.92539 0.05344 0.0
C2381 C 0.01452 0.9524 0.02007 0.0
C2382 C 0.02483 0.96876 0.02979 0.0
C2383 C 0.01708 0.93565 0.02555 0.0
C2384 C 0.05056 0.91456 0.05326 0.0
H2385 H 0.02404 0.83123 0.09006 0.0
H2386 H 0.01768 0.85843 0.07754 0.0
H2387 H 0.06702 0.89767 0.06486 0.0
H2388 H 0.04632 0.97986 0.05278 0.0
H2389 H 0.05078 0.95114 0.06213 0.0
H2390 H 0.00579 0.90299 0.04181 0.0
C2391 C 0.0303 0.85487 0.07563 0.0
C2392 C 0.05355 0.89834 0.05959 0.0
C2393 C 0.03396 0.83918 0.08294 0.0
C2394 C 0.03796 0.96771 0.04492 0.0
C2395 C 0.04065 0.95106 0.05023 0.0
C2396 C 0.01927 0.90195 0.04653 0.0
C2397 C 0.04293 0.86608 0.06666 0.0
C2398 C 0.0395 0.88348 0.05957 0.0
C2399 C 0.03026 0.93465 0.04073 0.0
C2400 C 0.03336 0.9168 0.04674 0.0
H2401 H 0.07571 0.84181 0.07104 0.0
H2402 H 0.0692 0.86835 0.05776 0.0
H2403 H 0.011 0.87465 0.05224 0.0
H2404 H 0.0044 0.95247 0.00825 0.0
H2405 H 0.00887 0.92345 0.01765 0.0
C2406 C 0.94761 0.26407 0.88511 0.0
C2407 C 0.9459 0.25253 0.89957 0.0
C2408 C 0.93273 0.26558 0.87248 0.0
C2409 C 0.88612 0.24168 0.85395 0.0
H2410 H 0.88084 0.28783 0.83824 0.0
C2411 C 0.81949 0.25212 0.81558 0.0
C2412 C 0.8199 0.26296 0.80049 0.0
C2413 C 0.83513 0.2511 0.82709 0.0
C2414 C 0.88216 0.27478 0.8423 0.0
H2415 H 0.92699 0.23357 0.91192 0.0
H2416 H 0.90128 0.23625 0.89022 0.0
H2417 H 0.9075 0.2856 0.85904 0.0
H2418 H 0.83736 0.28142 0.78595 0.0
H2419 H 0.86461 0.27945 0.80582 0.0
H2420 H 0.86079 0.23087 0.83737 0.0
C2421 C 0.91411 0.244 0.88835 0.0
C2422 C 0.89752 0.27349 0.85426 0.0
C2423 C 0.92892 0.24254 0.90096 0.0
C2424 C 0.83647 0.27279 0.79731 0.0
C2425 C 0.85214 0.27181 0.80887 0.0
C2426 C 0.87079 0.24298 0.84209 0.0
C2427 C 0.91572 0.25552 0.87387 0.0
C2428 C 0.89968 0.25693 0.86043 0.0
C2429 C 0.85173 0.26089 0.82391 0.0
C2430 C 0.86846 0.25956 0.83618 0.0
H2431 H 0.96044 0.27205 0.8836 0.0
H2432 H 0.93463 0.27448 0.86147 0.0
H2433 H 0.88738 0.2286 0.85793 0.0
H2434 H 0.80702 0.24436 0.81851 0.0
H2435 H 0.83417 0.24274 0.83868 0.0
C2436 C 0.55242 0.22582 0.56009 0.0
C2437 C 0.54386 0.23267 0.57507 0.0
C2438 C 0.55065 0.20718 0.55508 0.0
C2439 C 0.53675 0.16268 0.57376 0.0
H2440 H 0.53837 0.14336 0.52088 0.0
C2441 C 0.52342 0.08523 0.5493 0.0
C2442 C 0.53288 0.07871 0.53498 0.0
C2443 C 0.52453 0.10382 0.55413 0.0
C2444 C 0.5381 0.14846 0.5358 0.0
H2445 H 0.52635 0.22487 0.59622 0.0
H2446 H 0.52284 0.19249 0.5872 0.0
H2447 H 0.54024 0.17549 0.529 0.0
H2448 H 0.55054 0.08726 0.51424 0.0
H2449 H 0.55333 0.11933 0.5233 0.0
H2450 H 0.53455 0.1356 0.58051 0.0
C2451 C 0.53133 0.20152 0.57955 0.0
C2452 C 0.53919 0.16705 0.54051 0.0
C2453 C 0.53321 0.2202 0.58466 0.0
C2454 C 0.54349 0.09151 0.52572 0.0
C2455 C 0.54477 0.11009 0.53068 0.0
C2456 C 0.53562 0.14407 0.56903 0.0
C2457 C 0.54013 0.19462 0.56475 0.0
C2458 C 0.53859 0.17456 0.5596 0.0
C2459 C 0.53523 0.11663 0.54492 0.0
C2460 C 0.53633 0.1366 0.54997 0.0
H2461 H 0.56085 0.23489 0.5524 0.0
H2462 H 0.55793 0.20266 0.54385 0.0
H2463 H 0.53656 0.16775 0.5887 0.0
H2464 H 0.515 0.07597 0.55676 0.0
H2465 H 0.51668 0.1081 0.56492 0.0
C2466 C 0.54847 0.75847 0.38869 0.0
C2467 C 0.55123 0.76717 0.40778 0.0
C2468 C 0.56261 0.75901 0.3776 0.0
C2469 C 0.60759 0.78584 0.37509 0.0
H2470 H 0.6135 0.74444 0.3414 0.0
C2471 C 0.67118 0.78856 0.34024 0.0
C2472 C 0.66889 0.78386 0.32015 0.0
C2473 C 0.65717 0.78371 0.35099 0.0
C2474 C 0.61198 0.75612 0.3507 0.0
H2475 H 0.57117 0.78317 0.4301 0.0
H2476 H 0.59559 0.78405 0.41099 0.0
H2477 H 0.58792 0.74209 0.35957 0.0
H2478 H 0.65052 0.76967 0.29561 0.0
H2479 H 0.626 0.76083 0.31444 0.0
H2480 H 0.6315 0.7999 0.36637 0.0
C2481 C 0.58252 0.77696 0.40441 0.0
C2482 C 0.59728 0.75481 0.36105 0.0
C2483 C 0.56847 0.77636 0.41546 0.0
C2484 C 0.65271 0.77312 0.31116 0.0
C2485 C 0.63866 0.76817 0.32194 0.0
C2486 C 0.62223 0.78711 0.3649 0.0
C2487 C 0.57983 0.76839 0.38529 0.0
C2488 C 0.59499 0.76965 0.37354 0.0
C2489 C 0.64049 0.77413 0.34186 0.0
C2490 C 0.62476 0.77225 0.35271 0.0
H2491 H 0.53538 0.75121 0.38233 0.0
H2492 H 0.56 0.75235 0.3629 0.0
H2493 H 0.60608 0.7977 0.38412 0.0
H2494 H 0.68342 0.79711 0.34745 0.0
H2495 H 0.65914 0.78825 0.36634 0.0
C2496 C 0.04855 0.25416 0.40953 0.0
C2497 C 0.03859 0.25508 0.39182 0.0
C2498 C 0.04625 0.23824 0.4182 0.0
C2499 C 0.01413 0.19528 0.41839 0.0
H2500 H 0.05441 0.18044 0.44492 0.0
C2501 C 0.00483 0.12775 0.44942 0.0
C2502 C 0.01268 0.12809 0.46847 0.0
C2503 C 0.00985 0.14212 0.43889 0.0
C2504 C 0.04301 0.18443 0.43767 0.0
H2505 H 0.01832 0.23983 0.36939 0.0
H2506 H 0.01437 0.21209 0.38441 0.0
H2507 H 0.05901 0.20781 0.42912 0.0
H2508 H 0.03246 0.14342 0.49119 0.0
H2509 H 0.04148 0.16856 0.47275 0.0
H2510 H 0.9981 0.17207 0.42702 0.0
C2511 C 0.0239 0.22373 0.39172 0.0
C2512 C 0.04563 0.20018 0.42863 0.0
C2513 C 0.02624 0.23964 0.38302 0.0
C2514 C 0.02648 0.14262 0.47637 0.0
C2515 C 0.03153 0.15708 0.46582 0.0
C2516 C 0.01152 0.17956 0.42737 0.0
C2517 C 0.03388 0.22278 0.40945 0.0
C2518 C 0.03121 0.20585 0.41888 0.0
C2519 C 0.02277 0.15734 0.4472 0.0
C2520 C 0.0259 0.17387 0.43714 0.0
H2521 H 0.05817 0.26577 0.41677 0.0
H2522 H 0.05401 0.23817 0.43196 0.0
H2523 H 0.00265 0.19934 0.41141 0.0
H2524 H 0.99398 0.11684 0.4431 0.0
H2525 H 0.00307 0.14164 0.42448 0.0
C2526 C 0.57615 0.26221 0.22257 0.0
C2527 C 0.56799 0.24685 0.20949 0.0
C2528 C 0.59441 0.26515 0.22983 0.0
C2529 C 0.63638 0.24934 0.21917 0.0
H2530 H 0.65585 0.27366 0.27026 0.0
C2531 C 0.70826 0.24844 0.25266 0.0
C2532 C 0.71874 0.26454 0.26269 0.0
C2533 C 0.69003 0.24695 0.24677 0.0
C2534 C 0.65068 0.26693 0.25588 0.0
H2535 H 0.57286 0.22224 0.19466 0.0
H2536 H 0.60376 0.22696 0.20749 0.0
H2537 H 0.62413 0.27006 0.25934 0.0
H2538 H 0.71784 0.29172 0.27442 0.0
H2539 H 0.6861 0.28904 0.26439 0.0
H2540 H 0.66278 0.24593 0.21581 0.0
C2541 C 0.59653 0.2372 0.21176 0.0
C2542 C 0.63238 0.2649 0.24954 0.0
C2543 C 0.57852 0.23438 0.20446 0.0
C2544 C 0.7103 0.27907 0.26675 0.0
C2545 C 0.692 0.2775 0.26108 0.0
C2546 C 0.65453 0.25118 0.22557 0.0
C2547 C 0.60503 0.25279 0.22429 0.0
C2548 C 0.6248 0.25588 0.2311 0.0
C2549 C 0.68154 0.26145 0.25085 0.0
C2550 C 0.66203 0.25988 0.24408 0.0
H2551 H 0.56859 0.27218 0.22678 0.0
H2552 H 0.60027 0.27738 0.23938 0.0
H2553 H 0.63148 0.24283 0.20465 0.0
H2554 H 0.71421 0.23703 0.24903 0.0
H2555 H 0.68252 0.2343 0.23909 0.0
C2556 C 0.54403 0.85042 0.90299 0.0
C2557 C 0.53055 0.84611 0.88713 0.0
C2558 C 0.54546 0.86599 0.91624 0.0
C2559 C 0.53219 0.91053 0.92005 0.0
H2560 H 0.54053 0.91029 0.97546 0.0
C2561 C 0.52061 0.96913 0.97252 0.0
C2562 C 0.53246 0.97507 0.98951 0.0
C2563 C 0.52135 0.95335 0.9608 0.0
C2564 C 0.53841 0.91069 0.96002 0.0
H2565 H 0.50798 0.85494 0.87303 0.0
H2566 H 0.51051 0.8817 0.89577 0.0
H2567 H 0.5406 0.88306 0.95369 0.0
H2568 H 0.55399 0.9687 0.00797 0.0
H2569 H 0.55546 0.94111 0.98745 0.0
H2570 H 0.52998 0.93799 0.92615 0.0
C2571 C 0.52011 0.87325 0.898 0.0
C2572 C 0.53846 0.89503 0.94752 0.0
C2573 C 0.5186 0.85774 0.88495 0.0
C2574 C 0.54475 0.96451 0.99487 0.0
C2575 C 0.54554 0.94867 0.98311 0.0
C2576 C 0.53218 0.9261 0.93246 0.0
C2577 C 0.53359 0.87772 0.91379 0.0
C2578 C 0.53504 0.89465 0.92734 0.0
C2579 C 0.53396 0.94295 0.96575 0.0
C2580 C 0.53498 0.9264 0.95266 0.0
H2581 H 0.55341 0.84174 0.9052 0.0
H2582 H 0.55604 0.869 0.9282 0.0
H2583 H 0.52993 0.91094 0.90461 0.0
H2584 H 0.51042 0.97645 0.96851 0.0
H2585 H 0.51182 0.94918 0.94793 0.0
C2586 C 0.95944 0.75658 0.72638 0.0
C2587 C 0.95813 0.7478 0.70742 0.0
C2588 C 0.94412 0.75983 0.73446 0.0
C2589 C 0.89571 0.76083 0.71908 0.0
H2590 H 0.89128 0.76221 0.77367 0.0
C2591 C 0.82739 0.75651 0.74774 0.0
C2592 C 0.82599 0.7686 0.76383 0.0
C2593 C 0.84397 0.75508 0.74194 0.0
C2594 C 0.89232 0.76201 0.75838 0.0
H2595 H 0.93918 0.73495 0.68265 0.0
H2596 H 0.91306 0.73993 0.69658 0.0
H2597 H 0.91897 0.75736 0.76197 0.0
H2598 H 0.84146 0.7885 0.78656 0.0
H2599 H 0.8705 0.78549 0.77687 0.0
H2600 H 0.86898 0.76497 0.71542 0.0
C2601 C 0.92581 0.74503 0.7052 0.0
C2602 C 0.90832 0.75926 0.7516 0.0
C2603 C 0.94098 0.74195 0.69717 0.0
C2604 C 0.8419 0.77905 0.77411 0.0
C2605 C 0.85861 0.77726 0.76858 0.0
C2606 C 0.87974 0.7633 0.7258 0.0
C2607 C 0.92695 0.75436 0.72386 0.0
C2608 C 0.91027 0.75833 0.73172 0.0
C2609 C 0.85993 0.76536 0.75223 0.0
C2610 C 0.87761 0.76373 0.74552 0.0
H2611 H 0.97233 0.76137 0.73481 0.0
H2612 H 0.94583 0.76707 0.74884 0.0
H2613 H 0.89656 0.76094 0.7038 0.0
H2614 H 0.81554 0.74834 0.73927 0.0
H2615 H 0.84429 0.7457 0.72937 0.0
C2616 C 0.08824 0.04255 0.83279 0.0
C2617 C 0.10216 0.03436 0.82786 0.0
C2618 C 0.08078 0.03934 0.84971 0.0
C2619 C 0.077 0.00826 0.88718 0.0
H2620 H 0.06581 0.04908 0.91739 0.0
C2621 C 0.05587 0.00822 0.96497 0.0
C2622 C 0.04106 0.01597 0.96736 0.0
C2623 C 0.06368 0.00916 0.94785 0.0
C2624 C 0.06881 0.03754 0.90906 0.0
H2625 H 0.11903 0.01615 0.83665 0.0
H2626 H 0.10624 0.01084 0.86625 0.0
H2627 H 0.07836 0.05328 0.88743 0.0
H2628 H 0.02266 0.03046 0.95351 0.0
H2629 H 0.03618 0.03202 0.92403 0.0
H2630 H 0.06748 0.99261 0.90912 0.0
C2631 C 0.10089 0.01952 0.85695 0.0
C2632 C 0.0759 0.03992 0.89184 0.0
C2633 C 0.10828 0.02267 0.84002 0.0
C2634 C 0.03404 0.02432 0.95222 0.0
C2635 C 0.04185 0.02535 0.93533 0.0
C2636 C 0.06997 0.00591 0.90454 0.0
C2637 C 0.08716 0.02793 0.86209 0.0
C2638 C 0.07988 0.02528 0.88056 0.0
C2639 C 0.05689 0.01806 0.93306 0.0
C2640 C 0.0656 0.0205 0.91547 0.0
H2641 H 0.08316 0.05153 0.82367 0.0
H2642 H 0.07 0.04579 0.85309 0.0
H2643 H 0.07981 0.99668 0.87874 0.0
H2644 H 0.06152 0.00166 0.97638 0.0
H2645 H 0.0753 0.00343 0.9464 0.0
C2646 C 0.7677 0.39448 0.54685 0.0
C2647 C 0.77776 0.39008 0.53221 0.0
C2648 C 0.76772 0.38567 0.56333 0.0
C2649 C 0.79702 0.3659 0.59308 0.0
H2650 H 0.75624 0.33752 0.61128 0.0
C2651 C 0.80729 0.31582 0.6431 0.0
C2652 C 0.8027 0.31997 0.66155 0.0
C2653 C 0.80005 0.32305 0.62751 0.0
C2654 C 0.76763 0.34561 0.6064 0.0
H2655 H 0.79553 0.37305 0.52303 0.0
H2656 H 0.79586 0.35795 0.55204 0.0
H2657 H 0.75193 0.35413 0.58332 0.0
H2658 H 0.7858 0.33333 0.67813 0.0
H2659 H 0.77333 0.3465 0.65058 0.0
H2660 H 0.81278 0.35728 0.61566 0.0
C2661 C 0.78779 0.36799 0.5506 0.0
C2662 C 0.76519 0.35505 0.59057 0.0
C2663 C 0.78751 0.37653 0.53402 0.0
C2664 C 0.78959 0.33015 0.66396 0.0
C2665 C 0.78241 0.33755 0.64829 0.0
C2666 C 0.79943 0.35658 0.60877 0.0
C2667 C 0.77809 0.37269 0.56544 0.0
C2668 C 0.77997 0.36475 0.58352 0.0
C2669 C 0.78827 0.33465 0.63023 0.0
C2670 C 0.78484 0.34592 0.61512 0.0
H2671 H 0.76007 0.40492 0.54568 0.0
H2672 H 0.76024 0.38948 0.57472 0.0
H2673 H 0.80853 0.37363 0.58805 0.0
H2674 H 0.81707 0.30764 0.64093 0.0
H2675 H 0.80451 0.32052 0.61355 0.0
C2676 C 0.39561 0.01564 0.35407 0.0
C2677 C 0.39834 0.00394 0.3384 0.0
C2678 C 0.40803 0.02 0.37045 0.0
C2679 C 0.45476 0.02206 0.38566 0.0
H2680 H 0.4407 0.01902 0.4369 0.0
C2681 C 0.49979 0.01107 0.45097 0.0
C2682 C 0.50032 0.02249 0.46804 0.0
C2683 C 0.48769 0.01164 0.43509 0.0
C2684 C 0.44471 0.0202 0.42267 0.0
H2685 H 0.41563 0.98708 0.32761 0.0
H2686 H 0.43732 0.99449 0.35654 0.0
H2687 H 0.41796 0.01413 0.40894 0.0
H2688 H 0.48918 0.04382 0.48193 0.0
H2689 H 0.46767 0.04432 0.45427 0.0
H2690 H 0.48153 0.02742 0.39941 0.0
C2691 C 0.42571 0.00049 0.35595 0.0
C2692 C 0.43179 0.01742 0.40677 0.0
C2693 C 0.41323 0.99605 0.33958 0.0
C2694 C 0.48877 0.03458 0.46904 0.0
C2695 C 0.47659 0.03502 0.45326 0.0
C2696 C 0.46767 0.02473 0.40154 0.0
C2697 C 0.42332 0.01274 0.37128 0.0
C2698 C 0.43678 0.0178 0.38816 0.0
C2699 C 0.47602 0.02356 0.43626 0.0
C2700 C 0.46265 0.02331 0.42 0.0
H2701 H 0.38413 0.02183 0.35345 0.0
H2702 H 0.40596 0.02944 0.38219 0.0
H2703 H 0.45881 0.02284 0.3714 0.0
H2704 H 0.50859 0.00165 0.44998 0.0
H2705 H 0.48715 0.00253 0.42204 0.0
C2706 C 0.77443 0.71536 0.06323 0.0
C2707 C 0.77058 0.69652 0.05902 0.0
C2708 C 0.77363 0.72351 0.0818 0.0
C2709 C 0.75365 0.71405 0.1262 0.0
H2710 H 0.78864 0.75599 0.15029 0.0
C2711 C 0.76458 0.73826 0.20768 0.0
C2712 C 0.7661 0.75673 0.21338 0.0
C2713 C 0.76378 0.73176 0.18825 0.0
C2714 C 0.77865 0.74443 0.1436 0.0
H2715 H 0.76338 0.67142 0.07111 0.0
H2716 H 0.7623 0.68559 0.10346 0.0
H2717 H 0.79074 0.74278 0.11757 0.0
H2718 H 0.76756 0.78287 0.20339 0.0
H2719 H 0.76668 0.77146 0.16919 0.0
H2720 H 0.74194 0.71539 0.15249 0.0
C2721 C 0.76556 0.69411 0.09236 0.0
C2722 C 0.77984 0.73687 0.1249 0.0
C2723 C 0.76633 0.68599 0.07384 0.0
C2724 C 0.76642 0.76857 0.19929 0.0
C2725 C 0.766 0.76208 0.17983 0.0
C2726 C 0.75258 0.72151 0.14492 0.0
C2727 C 0.76898 0.71296 0.09651 0.0
C2728 C 0.76745 0.72148 0.11607 0.0
C2729 C 0.76477 0.74363 0.17419 0.0
C2730 C 0.76514 0.73666 0.15384 0.0
H2731 H 0.77775 0.72384 0.05212 0.0
H2732 H 0.77624 0.73806 0.08451 0.0
H2733 H 0.74367 0.70244 0.11967 0.0
H2734 H 0.76411 0.72883 0.21826 0.0
H2735 H 0.76289 0.71748 0.18427 0.0
C2736 C 0.08111 0.01374 0.72658 0.0
C2737 C 0.09783 0.02451 0.73362 0.0
C2738 C 0.07321 0.01448 0.70787 0.0
C2739 C 0.07463 0.04325 0.6684 0.0
H2740 H 0.05229 0.99879 0.63591 0.0
C2741 C 0.05596 0.03889 0.58579 0.0
C2742 C 0.0393 0.0285 0.57803 0.0
C2743 C 0.06232 0.039 0.6052 0.0
C2744 C 0.05829 0.01133 0.64489 0.0
H2745 H 0.11929 0.04469 0.72661 0.0
H2746 H 0.1056 0.04586 0.6941 0.0
H2747 H 0.06473 0.9978 0.66915 0.0
H2748 H 0.01618 0.01002 0.58392 0.0
H2749 H 0.02748 0.00979 0.61791 0.0
H2750 H 0.06843 0.05674 0.64401 0.0
C2751 C 0.09849 0.03695 0.70303 0.0
C2752 C 0.06539 0.01077 0.66393 0.0
C2753 C 0.1064 0.03617 0.72165 0.0
C2754 C 0.02903 0.01822 0.5898 0.0
C2755 C 0.03554 0.01801 0.60912 0.0
C2756 C 0.06759 0.04381 0.64935 0.0
C2757 C 0.08184 0.02609 0.69589 0.0
C2758 C 0.07371 0.02672 0.67588 0.0
C2759 C 0.05227 0.02839 0.61701 0.0
C2760 C 0.05939 0.02785 0.63738 0.0
H2761 H 0.07415 0.00466 0.73546 0.0
H2762 H 0.06027 0.00608 0.70284 0.0
H2763 H 0.08073 0.0558 0.67732 0.0
H2764 H 0.06407 0.04683 0.57681 0.0
H2765 H 0.0753 0.04702 0.61085 0.0
C2766 C 0.80229 0.3867 0.44571 0.0
C2767 C 0.79254 0.40012 0.44911 0.0
C2768 C 0.79722 0.374 0.42941 0.0
C2769 C 0.77491 0.36761 0.38065 0.0
H2770 H 0.77573 0.31743 0.38465 0.0
C2771 C 0.76259 0.30923 0.31703 0.0
C2772 C 0.7758 0.299 0.31817 0.0
C2773 C 0.7625 0.32269 0.33199 0.0
C2774 C 0.7754 0.33142 0.38341 0.0
H2775 H 0.77008 0.4111 0.43819 0.0
H2776 H 0.76143 0.38898 0.40953 0.0
H2777 H 0.77872 0.33845 0.41401 0.0
H2778 H 0.79952 0.29484 0.33474 0.0
H2779 H 0.79956 0.31858 0.36081 0.0
H2780 H 0.77213 0.36057 0.34996 0.0
C2781 C 0.77288 0.38827 0.4195 0.0
C2782 C 0.77711 0.34336 0.4001 0.0
C2783 C 0.77786 0.40088 0.43584 0.0
C2784 C 0.78938 0.30283 0.33367 0.0
C2785 C 0.78928 0.31619 0.34855 0.0
C2786 C 0.77318 0.35562 0.36389 0.0
C2787 C 0.78244 0.37469 0.41627 0.0
C2788 C 0.77758 0.36164 0.39881 0.0
C2789 C 0.77546 0.32565 0.34814 0.0
C2790 C 0.77416 0.33766 0.36528 0.0
H2791 H 0.81353 0.38573 0.45584 0.0
H2792 H 0.80493 0.36373 0.42699 0.0
H2793 H 0.77522 0.3817 0.3794 0.0
H2794 H 0.75176 0.30605 0.30534 0.0
H2795 H 0.75177 0.32994 0.33152 0.0
C2796 C 0.40153 0.00535 0.24178 0.0
C2797 C 0.40984 0.01692 0.25842 0.0
C2798 C 0.40975 0.00462 0.22525 0.0
C2799 C 0.44374 0.02992 0.20053 0.0
H2800 H 0.43927 0.98313 0.17091 0.0
C2801 C 0.48724 0.00837 0.14482 0.0
C2802 C 0.47875 0.99534 0.12952 0.0
C2803 C 0.47726 0.01557 0.15779 0.0
C2804 C 0.44027 0.99634 0.1788 0.0
H2805 H 0.43362 0.03619 0.27119 0.0
H2806 H 0.44844 0.03448 0.24202 0.0
H2807 H 0.42688 0.98517 0.20107 0.0
H2808 H 0.45359 0.98103 0.11392 0.0
H2809 H 0.43598 0.99337 0.13695 0.0
H2810 H 0.45813 0.0408 0.1784 0.0
C2811 C 0.43528 0.0264 0.24181 0.0
C2812 C 0.4333 0.9975 0.19613 0.0
C2813 C 0.42693 0.02723 0.25849 0.0
C2814 C 0.46023 0.99079 0.12605 0.0
C2815 C 0.45025 0.99796 0.13899 0.0
C2816 C 0.45102 0.02871 0.18318 0.0
C2817 C 0.42661 0.0152 0.22502 0.0
C2818 C 0.43489 0.01427 0.20713 0.0
C2819 C 0.45879 0.00963 0.1555 0.0
C2820 C 0.44927 0.01187 0.17224 0.0
H2821 H 0.38842 0.99708 0.24131 0.0
H2822 H 0.40266 0.99601 0.21248 0.0
H2823 H 0.44494 0.04303 0.20869 0.0
H2824 H 0.50157 0.01224 0.14727 0.0
H2825 H 0.48407 0.02452 0.17046 0.0
C2826 C 0.74977 0.67355 0.93865 0.0
C2827 C 0.75627 0.68194 0.95741 0.0
C2828 C 0.75432 0.68203 0.9227 0.0
C2829 C 0.78626 0.72 0.90799 0.0
H2830 H 0.7527 0.70945 0.86118 0.0
C2831 C 0.77847 0.75892 0.84079 0.0
C2832 C 0.782 0.75001 0.82347 0.0
C2833 C 0.77876 0.75085 0.85771 0.0
C2834 C 0.76226 0.71226 0.8741 0.0
H2835 H 0.77215 0.70606 0.97438 0.0
H2836 H 0.77921 0.72155 0.94645 0.0
H2837 H 0.74476 0.69623 0.88991 0.0
H2838 H 0.78849 0.72542 0.81051 0.0
H2839 H 0.78776 0.71076 0.84013 0.0
H2840 H 0.8031 0.73727 0.89207 0.0
C2841 C 0.77121 0.70804 0.94397 0.0
C2842 C 0.7578 0.70467 0.8906 0.0
C2843 C 0.76703 0.69928 0.95999 0.0
C2844 C 0.78588 0.73273 0.82359 0.0
C2845 C 0.78561 0.7244 0.8405 0.0
C2846 C 0.79054 0.72796 0.89151 0.0
C2847 C 0.76506 0.69942 0.92506 0.0
C2848 C 0.76977 0.70825 0.90776 0.0
C2849 C 0.78194 0.73343 0.85758 0.0
C2850 C 0.7786 0.72395 0.87445 0.0
H2851 H 0.74168 0.66006 0.93623 0.0
H2852 H 0.7497 0.67465 0.9085 0.0
H2853 H 0.79594 0.72297 0.92079 0.0
H2854 H 0.77463 0.77183 0.84122 0.0
H2855 H 0.77546 0.75781 0.87065 0.0
C2856 C 0.80993 0.0882 0.0584 0.0
C2857 C 0.81294 0.1071 0.06016 0.0
C2858 C 0.82335 0.07931 0.05391 0.0
C2859 C 0.86023 0.08641 0.02673 0.0
H2860 H 0.87376 0.0453 0.04808 0.0
C2861 C 0.91679 0.05779 0.00084 0.0
C2862 C 0.91217 0.03947 0.99382 0.0
C2863 C 0.90599 0.06539 0.01239 0.0
C2864 C 0.87002 0.05676 0.04205 0.0
H2865 H 0.83257 0.13157 0.06014 0.0
H2866 H 0.85602 0.11601 0.05239 0.0
H2867 H 0.85194 0.06011 0.06264 0.0
H2868 H 0.89392 0.01424 0.99421 0.0
H2869 H 0.87462 0.02768 0.01442 0.0
H2870 H 0.87789 0.08301 0.00597 0.0
C2871 C 0.84325 0.10813 0.05431 0.0
C2872 C 0.85763 0.06516 0.05031 0.0
C2873 C 0.82989 0.11701 0.05886 0.0
C2874 C 0.89731 0.02852 -0.00072 0.0
C2875 C 0.8865 0.03612 0.01095 0.0
C2876 C 0.87254 0.07808 0.01854 0.0
C2877 C 0.83986 0.08926 0.05113 0.0
C2878 C 0.85287 0.08018 0.0428 0.0
C2879 C 0.89052 0.0547 0.01705 0.0
C2880 C 0.87766 0.06334 0.02624 0.0
H2881 H 0.79695 0.08025 0.05943 0.0
H2882 H 0.82047 0.06473 0.05143 0.0
H2883 H 0.85629 0.09761 0.02032 0.0
H2884 H 0.9285 0.06625 0.99701 0.0
H2885 H 0.9094 0.07973 0.01722 0.0
C2886 C 0.35467 0.40853 0.05285 0.0
C2887 C 0.33885 0.41213 0.04394 0.0
C2888 C 0.37094 0.41965 0.0515 0.0
C2889 C 0.39292 0.4524 0.0222 0.0
H2890 H 0.42751 0.46671 0.06798 0.0
C2891 C 0.45819 0.50386 0.02261 0.0
C2892 C 0.47353 0.50029 0.0327 0.0
C2893 C 0.44149 0.49374 0.02428 0.0
C2894 C 0.41809 0.46268 0.05501 0.0
H2895 H 0.32769 0.43021 0.02655 0.0
H2896 H 0.35611 0.44967 0.02433 0.0
H2897 H 0.39897 0.44751 0.07009 0.0
H2898 H 0.48333 0.48318 0.05241 0.0
H2899 H 0.45436 0.46527 0.05487 0.0
H2900 H 0.41212 0.46732 0.00703 0.0
C2901 C 0.35592 0.43816 0.03222 0.0
C2902 C 0.40173 0.45169 0.05624 0.0
C2903 C 0.33964 0.42707 0.0336 0.0
C2904 C 0.47179 0.4864 0.04453 0.0
C2905 C 0.45514 0.47619 0.04605 0.0
C2906 C 0.40933 0.46331 0.02094 0.0
C2907 C 0.37173 0.43457 0.04118 0.0
C2908 C 0.389 0.4464 0.03985 0.0
C2909 C 0.43979 0.4797 0.03593 0.0
C2910 C 0.42213 0.46853 0.03732 0.0
H2911 H 0.35453 0.39707 0.06082 0.0
H2912 H 0.38294 0.41642 0.05834 0.0
H2913 H 0.38343 0.44835 0.00928 0.0
H2914 H 0.45906 0.51428 0.01314 0.0
H2915 H 0.42992 0.49692 0.01644 0.0
C2916 C 0.40331 0.58032 0.76724 0.0
C2917 C 0.39557 0.56295 0.75815 0.0
C2918 C 0.39336 0.59369 0.76816 0.0
C2919 C 0.35444 0.60878 0.7476 0.0
H2920 H 0.35602 0.63154 0.79995 0.0
C2921 C 0.30913 0.65671 0.77503 0.0
C2922 C 0.31769 0.67078 0.78935 0.0
C2923 C 0.31862 0.64439 0.76737 0.0
C2924 C 0.35563 0.6255 0.78521 0.0
H2925 H 0.37171 0.54611 0.74192 0.0
H2926 H 0.35429 0.56976 0.7434 0.0
H2927 H 0.37239 0.60784 0.79397 0.0
H2928 H 0.3428 0.6843 0.80564 0.0
H2929 H 0.35948 0.66311 0.792 0.0
H2930 H 0.33754 0.62665 0.73897 0.0
C2931 C 0.36801 0.57289 0.74989 0.0
C2932 C 0.36494 0.61191 0.78182 0.0
C2933 C 0.37792 0.55938 0.7492 0.0
C2934 C 0.33601 0.67342 0.79467 0.0
C2935 C 0.34547 0.66127 0.78696 0.0
C2936 C 0.34507 0.62255 0.75101 0.0
C2937 C 0.37556 0.59 0.75981 0.0
C2938 C 0.36471 0.60366 0.76299 0.0
C2939 C 0.33669 0.64614 0.77403 0.0
C2940 C 0.34593 0.63124 0.76984 0.0
H2941 H 0.41686 0.58345 0.77424 0.0
H2942 H 0.39947 0.60686 0.77577 0.0
H2943 H 0.35403 0.60249 0.73296 0.0
H2944 H 0.29495 0.65452 0.77084 0.0
H2945 H 0.31158 0.63284 0.75739 0.0
C2946 C 0.20835 0.58641 0.53006 0.0
C2947 C 0.21516 0.5908 0.54969 0.0
C2948 C 0.19041 0.57985 0.52457 0.0
C2949 C 0.14772 0.5789 0.5425 0.0
H2950 H 0.13074 0.54326 0.49757 0.0
C2951 C 0.07478 0.554 0.52372 0.0
C2952 C 0.07059 0.5353 0.52328 0.0
C2953 C 0.0916 0.5623 0.52041 0.0
C2954 C 0.13533 0.55333 0.51003 0.0
H2955 H 0.20877 0.59092 0.57906 0.0
H2956 H 0.17716 0.57856 0.56939 0.0
H2957 H 0.1624 0.55249 0.50804 0.0
H2958 H 0.07929 0.51024 0.51756 0.0
H2959 H 0.10895 0.52462 0.51242 0.0
H2960 H 0.12065 0.57866 0.54546 0.0
C2961 C 0.18575 0.58082 0.55829 0.0
C2962 C 0.15342 0.55865 0.51602 0.0
C2963 C 0.2038 0.58772 0.56382 0.0
C2964 C 0.08255 0.52475 0.51796 0.0
C2965 C 0.09939 0.533 0.51479 0.0
C2966 C 0.12963 0.57334 0.53672 0.0
C2967 C 0.1789 0.57719 0.53858 0.0
C2968 C 0.15975 0.57135 0.53242 0.0
C2969 C 0.10436 0.55189 0.51719 0.0
C2970 C 0.12328 0.5603 0.52061 0.0
H2971 H 0.21675 0.5887 0.51877 0.0
H2972 H 0.18552 0.57748 0.5093 0.0
H2973 H 0.15224 0.58898 0.55495 0.0
H2974 H 0.06563 0.56227 0.52807 0.0
H2975 H 0.09507 0.57687 0.52202 0.0
C2976 C 0.67839 0.96218 0.73782 0.0
C2977 C 0.68662 0.97852 0.73228 0.0
C2978 C 0.68826 0.94921 0.74132 0.0
C2979 C 0.72697 0.93124 0.73706 0.0
H2980 H 0.72918 0.93097 0.7926 0.0
C2981 C 0.77356 0.89686 0.78446 0.0
C2982 C 0.76513 0.88703 0.79788 0.0
C2983 C 0.76434 0.90716 0.77349 0.0
C2984 C 0.72855 0.93082 0.77708 0.0
H2985 H 0.71071 0.99361 0.72385 0.0
H2986 H 0.72799 0.97055 0.72973 0.0
H2987 H 0.71172 0.94988 0.77666 0.0
H2988 H 0.7406 0.87888 0.80976 0.0
H2989 H 0.72442 0.89705 0.79071 0.0
H2990 H 0.74372 0.9119 0.73757 0.0
C2991 C 0.71403 0.9679 0.73144 0.0
C2992 C 0.71864 0.94159 0.76803 0.0
C2993 C 0.70421 0.98102 0.7282 0.0
C2994 C 0.74734 0.88691 0.79982 0.0
C2995 C 0.73816 0.89715 0.78891 0.0
C2996 C 0.73689 0.9203 0.74616 0.0
C2997 C 0.70628 0.95241 0.73894 0.0
C2998 C 0.71751 0.94153 0.74798 0.0
C2999 C 0.7467 0.90761 0.77597 0.0
C3000 C 0.7374 0.9198 0.76618 0.0
H3001 H 0.66488 0.9601 0.74123 0.0
H3002 H 0.68223 0.9373 0.74729 0.0
H3003 H 0.7263 0.93134 0.72157 0.0
H3004 H 0.78719 0.89656 0.78255 0.0
H3005 H 0.77109 0.91513 0.76352 0.0
C3006 C 0.74026 0.92409 0.53264 0.0
C3007 C 0.73552 0.9058 0.53505 0.0
C3008 C 0.72748 0.93473 0.53173 0.0
C3009 C 0.68194 0.9364 0.54253 0.0
H3010 H 0.68285 0.96824 0.50276 0.0
C3011 C 0.6211 0.96043 0.5091 0.0
C3012 C 0.62337 0.97784 0.50371 0.0
C3013 C 0.6356 0.95415 0.51722 0.0
C3014 C 0.68261 0.95972 0.51422 0.0
H3015 H 0.71369 0.88436 0.5386 0.0
H3016 H 0.69134 0.90283 0.53662 0.0
H3017 H 0.70667 0.95196 0.50799 0.0
H3018 H 0.64213 0.00274 0.5033 0.0
H3019 H 0.66775 0.99166 0.51738 0.0
H3020 H 0.65741 0.94365 0.54813 0.0
C3021 C 0.70499 0.90904 0.53577 0.0
C3022 C 0.69625 0.95035 0.5172 0.0
C3023 C 0.71778 0.89841 0.53674 0.0
C3024 C 0.64015 0.98927 0.50746 0.0
C3025 C 0.65475 0.9829 0.51537 0.0
C3026 C 0.66823 0.94571 0.53947 0.0
C3027 C 0.70968 0.92731 0.53317 0.0
C3028 C 0.69592 0.93835 0.53116 0.0
C3029 C 0.65266 0.96511 0.51983 0.0
C3030 C 0.66828 0.95722 0.52505 0.0
H3031 H 0.75384 0.93023 0.5314 0.0
H3032 H 0.73157 0.9488 0.52995 0.0
H3033 H 0.68146 0.9275 0.55364 0.0
H3034 H 0.60821 0.95145 0.50628 0.0
H3035 H 0.6336 0.94034 0.52036 0.0
C3036 C 0.37248 0.45767 0.76147 0.0
C3037 C 0.38652 0.45838 0.75023 0.0
C3038 C 0.36096 0.44139 0.76222 0.0
C3039 C 0.34429 0.39622 0.73601 0.0
H3040 H 0.33212 0.38386 0.78589 0.0
C3041 C 0.30951 0.32513 0.74769 0.0
C3042 C 0.29676 0.32365 0.76056 0.0
C3043 C 0.31952 0.3419 0.74562 0.0
C3044 C 0.33517 0.38724 0.77182 0.0
H3045 H 0.39944 0.44261 0.73088 0.0
H3046 H 0.37928 0.41408 0.73229 0.0
H3047 H 0.35171 0.41252 0.78392 0.0
H3048 H 0.28427 0.3386 0.78116 0.0
H3049 H 0.30149 0.36798 0.77719 0.0
H3050 H 0.32776 0.37092 0.7239 0.0
C3051 C 0.37716 0.42619 0.74037 0.0
C3052 C 0.34642 0.40361 0.77071 0.0
C3053 C 0.38874 0.44249 0.73966 0.0
C3054 C 0.29391 0.33932 0.77101 0.0
C3055 C 0.30389 0.35612 0.76889 0.0
C3056 C 0.33298 0.37986 0.7371 0.0
C3057 C 0.36321 0.4255 0.75172 0.0
C3058 C 0.35113 0.40822 0.75281 0.0
C3059 C 0.31696 0.35754 0.75636 0.0
C3060 C 0.32836 0.37518 0.75504 0.0
H3061 H 0.37039 0.4697 0.76974 0.0
H3062 H 0.35019 0.44125 0.77091 0.0
H3063 H 0.34754 0.39956 0.72199 0.0
H3064 H 0.31201 0.31328 0.73943 0.0
H3065 H 0.32964 0.34255 0.73603 0.0
C3066 C 0.20929 0.59213 0.22782 0.0
C3067 C 0.20601 0.57973 0.24111 0.0
C3068 C 0.21599 0.61028 0.23444 0.0
C3069 C 0.23544 0.64186 0.27877 0.0
H3070 H 0.21554 0.67518 0.24938 0.0
C3071 C 0.26823 0.71366 0.27893 0.0
C3072 C 0.25833 0.72534 0.27126 0.0
C3073 C 0.25965 0.69693 0.28271 0.0
C3074 C 0.22077 0.66608 0.2582 0.0
H3075 H 0.20821 0.57628 0.27162 0.0
H3076 H 0.21897 0.6077 0.283 0.0
H3077 H 0.20675 0.64334 0.23879 0.0
H3078 H 0.23214 0.73029 0.26331 0.0
H3079 H 0.21685 0.70119 0.27082 0.0
H3080 H 0.24902 0.66465 0.29855 0.0
C3081 C 0.21683 0.6036 0.26756 0.0
C3082 C 0.21615 0.6478 0.25173 0.0
C3083 C 0.21051 0.58553 0.26098 0.0
C3084 C 0.23984 0.72124 0.2693 0.0
C3085 C 0.23119 0.70463 0.2735 0.0
C3086 C 0.23972 0.66013 0.28554 0.0
C3087 C 0.21919 0.61623 0.2544 0.0
C3088 C 0.22384 0.63557 0.26162 0.0
C3089 C 0.24109 0.6918 0.27866 0.0
C3090 C 0.23295 0.67248 0.27492 0.0
H3091 H 0.20607 0.58797 0.21242 0.0
H3092 H 0.21816 0.61969 0.22394 0.0
H3093 H 0.24165 0.63277 0.28671 0.0
H3094 H 0.2826 0.71687 0.28045 0.0
H3095 H 0.26774 0.68744 0.28664 0.0
C3096 C 0.51034 0.70118 0.45572 0.0
C3097 C 0.49754 0.7099 0.4631 0.0
C3098 C 0.51268 0.68437 0.46116 0.0
C3099 C 0.49989 0.65168 0.4975 0.0
H3100 H 0.51668 0.61847 0.46195 0.0
C3101 C 0.49698 0.57571 0.50809 0.0
C3102 C 0.51225 0.56882 0.50518 0.0
C3103 C 0.49546 0.59296 0.50335 0.0
C3104 C 0.51205 0.62759 0.47214 0.0
H3105 H 0.4772 0.70736 0.48219 0.0
H3106 H 0.48076 0.67824 0.49107 0.0
H3107 H 0.51366 0.64789 0.45304 0.0
H3108 H 0.53771 0.57488 0.49446 0.0
H3109 H 0.53491 0.60453 0.48596 0.0
H3110 H 0.49776 0.63094 0.51627 0.0
C3111 C 0.48945 0.6844 0.48144 0.0
C3112 C 0.51041 0.64468 0.46707 0.0
C3113 C 0.48725 0.70124 0.47616 0.0
C3114 C 0.5258 0.57966 0.49713 0.0
C3115 C 0.52414 0.59671 0.49208 0.0
C3116 C 0.50123 0.63446 0.50239 0.0
C3117 C 0.50219 0.67551 0.47407 0.0
C3118 C 0.50427 0.65715 0.47963 0.0
C3119 C 0.50899 0.60372 0.49516 0.0
C3120 C 0.50736 0.62211 0.48982 0.0
H3121 H 0.51861 0.70735 0.4457 0.0
H3122 H 0.5229 0.67844 0.45529 0.0
H3123 H 0.49556 0.66074 0.50799 0.0
H3124 H 0.48624 0.56785 0.51422 0.0
H3125 H 0.48353 0.59778 0.50583 0.0
C3126 C 0.60596 0.29391 0.65341 0.0
C3127 C 0.599 0.27952 0.63871 0.0
C3128 C 0.62187 0.2942 0.66544 0.0
C3129 C 0.66156 0.27207 0.66814 0.0
H3130 H 0.66863 0.29132 0.72229 0.0
C3131 C 0.71826 0.25765 0.72122 0.0
C3132 C 0.72778 0.27183 0.73491 0.0
C3133 C 0.70278 0.25951 0.70992 0.0
C3134 C 0.66696 0.28601 0.70715 0.0
H3135 H 0.6034 0.25399 0.62562 0.0
H3136 H 0.63027 0.25423 0.6465 0.0
H3137 H 0.64156 0.29324 0.70193 0.0
H3138 H 0.72824 0.29882 0.74809 0.0
H3139 H 0.70112 0.30212 0.72844 0.0
H3140 H 0.68674 0.26455 0.67337 0.0
C3141 C 0.62398 0.26565 0.64857 0.0
C3142 C 0.65139 0.28716 0.69539 0.0
C3143 C 0.60831 0.26545 0.63656 0.0
C3144 C 0.72122 0.28774 0.73749 0.0
C3145 C 0.70562 0.28956 0.72629 0.0
C3146 C 0.67698 0.27078 0.67988 0.0
C3147 C 0.63121 0.28006 0.66315 0.0
C3148 C 0.6483 0.27999 0.6757 0.0
C3149 C 0.69624 0.27553 0.71216 0.0
C3150 C 0.67988 0.27754 0.69962 0.0
H3151 H 0.5992 0.305 0.65554 0.0
H3152 H 0.62696 0.30564 0.67636 0.0
H3153 H 0.66013 0.26684 0.653 0.0
H3154 H 0.72277 0.24508 0.71927 0.0
H3155 H 0.69581 0.24825 0.69952 0.0
C3156 C 0.01424 0.32425 0.96798 0.0
C3157 C 0.99865 0.31628 0.95541 0.0
C3158 C 0.01788 0.34288 0.97495 0.0
C3159 C 0.00481 0.38608 0.96312 0.0
H3160 H 0.02589 0.40555 0.01536 0.0
C3161 C 0.00391 0.45943 0.99472 0.0
C3162 C 0.01929 0.46975 0.00601 0.0
C3163 C 0.00238 0.4409 0.989 0.0
C3164 C 0.02013 0.40039 0.00064 0.0
H3165 H 0.97455 0.32205 0.94092 0.0
H3166 H 0.98074 0.35371 0.95291 0.0
H3167 H 0.02188 0.37317 0.00491 0.0
H3168 H 0.04512 0.46828 0.02023 0.0
H3169 H 0.04235 0.436 0.01053 0.0
H3170 H 0.00284 0.41311 0.95886 0.0
C3171 C 0.99042 0.34588 0.95723 0.0
C3172 C 0.01785 0.38174 0.99461 0.0
C3173 C 0.98678 0.32746 0.95043 0.0
C3174 C 0.03305 0.46087 0.01152 0.0
C3175 C 0.03142 0.44226 0.00604 0.0
C3176 C 0.00698 0.4046 0.96916 0.0
C3177 C 0.00612 0.35408 0.96939 0.0
C3178 C 0.00989 0.37419 0.9758 0.0
C3179 C 0.0161 0.43195 0.99455 0.0
C3180 C 0.01446 0.4121 0.98809 0.0
H3181 H 0.02374 0.31619 0.97221 0.0
H3182 H 0.03012 0.34858 0.9843 0.0
H3183 H 0.99911 0.38107 0.94836 0.0
H3184 H 0.99309 0.46573 0.99002 0.0
H3185 H 0.9903 0.43351 0.98031 0.0
C3186 C 1.0 0.78624 0.15624 0.0
C3187 C 0.99674 0.78226 0.13599 0.0
C3188 C 0.98591 0.78652 0.16731 0.0
C3189 C 0.93782 0.78903 0.16319 0.0
H3190 H 0.93905 0.76869 0.21158 0.0
C3191 C 0.87511 0.76609 0.20018 0.0
C3192 C 0.87683 0.76676 0.22039 0.0
C3193 C 0.88996 0.77156 0.19074 0.0
C3194 C 0.93856 0.77475 0.19829 0.0
H3195 H 0.97591 0.77536 0.11164 0.0
H3196 H 0.95159 0.77559 0.13078 0.0
H3197 H 0.96449 0.7707 0.19373 0.0
H3198 H 0.89526 0.77428 0.24661 0.0
H3199 H 0.92115 0.78436 0.23028 0.0
H3200 H 0.91171 0.79273 0.16758 0.0
C3201 C 0.965 0.77884 0.13819 0.0
C3202 C 0.95321 0.77587 0.18798 0.0
C3203 C 0.97903 0.77856 0.12717 0.0
C3204 C 0.89351 0.77398 0.23104 0.0
C3205 C 0.90838 0.77944 0.22162 0.0
C3206 C 0.92314 0.78789 0.17349 0.0
C3207 C 0.96818 0.78285 0.15844 0.0
C3208 C 0.95299 0.78279 0.17012 0.0
C3209 C 0.90696 0.77766 0.20128 0.0
C3210 C 0.92318 0.78051 0.19109 0.0
H3211 H 0.01344 0.78921 0.16355 0.0
H3212 H 0.98896 0.78984 0.18283 0.0
H3213 H 0.93722 0.7948 0.14971 0.0
H3214 H 0.86249 0.76014 0.19161 0.0
H3215 H 0.88826 0.76982 0.1751 0.0
C3216 C 0.50711 0.29626 0.1481 0.0
C3217 C 0.52315 0.29456 0.15853 0.0
C3218 C 0.50642 0.3109 0.13746 0.0
C3219 C 0.53645 0.34671 0.11662 0.0
H3220 H 0.49618 0.37003 0.11284 0.0
C3221 C 0.54231 0.41493 0.08788 0.0
C3222 C 0.52995 0.41545 0.07192 0.0
C3223 C 0.53943 0.401 0.0995 0.0
C3224 C 0.50749 0.36361 0.11375 0.0
H3225 H 0.55094 0.30721 0.16602 0.0
H3226 H 0.54968 0.3325 0.14814 0.0
H3227 H 0.4952 0.34358 0.13032 0.0
H3228 H 0.50454 0.40228 0.05607 0.0
H3229 H 0.49924 0.37805 0.07671 0.0
H3230 H 0.5489 0.36686 0.10052 0.0
C3231 C 0.53765 0.32244 0.14763 0.0
C3232 C 0.50692 0.34836 0.12367 0.0
C3233 C 0.53835 0.30789 0.1581 0.0
C3234 C 0.51412 0.40236 0.06851 0.0
C3235 C 0.51114 0.38847 0.08028 0.0
C3236 C 0.53711 0.362 0.10704 0.0
C3237 C 0.52174 0.3242 0.13698 0.0
C3238 C 0.52153 0.33981 0.12548 0.0
C3239 C 0.5241 0.38724 0.09545 0.0
C3240 C 0.52278 0.3708 0.10564 0.0
H3241 H 0.4951 0.2863 0.14814 0.0
H3242 H 0.49392 0.31164 0.12941 0.0
H3243 H 0.54776 0.34028 0.11701 0.0
H3244 H 0.55472 0.42471 0.09068 0.0
H3245 H 0.54958 0.40056 0.1112 0.0
C3246 C 0.96408 0.2698 0.33484 0.0
C3247 C 0.97786 0.28361 0.33137 0.0
C3248 C 0.94624 0.26983 0.32883 0.0
C3249 C 0.91506 0.29021 0.29735 0.0
H3250 H 0.88263 0.27292 0.33297 0.0
C3251 C 0.83925 0.29345 0.28672 0.0
C3252 C 0.82701 0.27916 0.29209 0.0
C3253 C 0.85772 0.29473 0.29081 0.0
C3254 C 0.89134 0.27758 0.32263 0.0
H3255 H 0.98331 0.30813 0.31802 0.0
H3256 H 0.95196 0.30832 0.30759 0.0
H3257 H 0.91405 0.27387 0.34067 0.0
H3258 H 0.82523 0.25483 0.30599 0.0
H3259 H 0.85698 0.25695 0.31291 0.0
H3260 H 0.89211 0.29398 0.27935 0.0
C3261 C 0.95509 0.2973 0.31495 0.0
C3262 C 0.90956 0.27813 0.32708 0.0
C3263 C 0.97314 0.29721 0.32093 0.0
C3264 C 0.83399 0.26618 0.30168 0.0
C3265 C 0.85239 0.26746 0.30579 0.0
C3266 C 0.89672 0.28967 0.29287 0.0
C3267 C 0.94128 0.28379 0.31923 0.0
C3268 C 0.92181 0.2842 0.31445 0.0
C3269 C 0.86467 0.28178 0.30051 0.0
C3270 C 0.88447 0.28312 0.30535 0.0
H3271 H 0.96704 0.25892 0.34256 0.0
H3272 H 0.93627 0.25883 0.33193 0.0
H3273 H 0.92389 0.29491 0.28713 0.0
H3274 H 0.83464 0.30362 0.27916 0.0
H3275 H 0.86655 0.30606 0.28656 0.0
C3276 C 0.02629 0.69836 0.63352 0.0
C3277 C 0.01348 0.70034 0.64598 0.0
C3278 C 0.02681 0.68151 0.62376 0.0
C3279 C 0.99964 0.63569 0.60624 0.0
H3280 H 0.04545 0.62411 0.60002 0.0
C3281 C 0.00837 0.56571 0.56886 0.0
C3282 C 0.0214 0.56613 0.55625 0.0
C3283 C 0.00673 0.58149 0.58031 0.0
C3284 C 0.03251 0.62713 0.60141 0.0
H3285 H 0.99105 0.68579 0.65774 0.0
H3286 H 0.99171 0.65625 0.64032 0.0
H3287 H 0.04382 0.65207 0.61922 0.0
H3288 H 0.04308 0.58369 0.54615 0.0
H3289 H 0.04046 0.61088 0.56617 0.0
H3290 H 0.98839 0.61063 0.58831 0.0
C3291 C 0.00146 0.66787 0.63823 0.0
C3292 C 0.03157 0.64327 0.61249 0.0
C3293 C 0.00114 0.68481 0.64834 0.0
C3294 C 0.0328 0.58277 0.55555 0.0
C3295 C 0.03138 0.59842 0.56721 0.0
C3296 C 0.00059 0.61947 0.59515 0.0
C3297 C 0.0144 0.66594 0.62582 0.0
C3298 C 0.01514 0.64799 0.61493 0.0
C3299 C 0.01833 0.5981 0.5798 0.0
C3300 C 0.01707 0.61501 0.59235 0.0
H3301 H 0.03611 0.70991 0.63136 0.0
H3302 H 0.03686 0.6808 0.61425 0.0
H3303 H 0.98674 0.63883 0.60754 0.0
H3304 H 0.99932 0.55319 0.56978 0.0
H3305 H 0.99657 0.5806 0.58984 0.0
C3306 C 0.59734 0.80534 0.82591 0.0
C3307 C 0.58735 0.78974 0.83166 0.0
C3308 C 0.61418 0.80527 0.81967 0.0
C3309 C 0.64988 0.77735 0.82155 0.0
H3310 H 0.67057 0.80789 0.78552 0.0
C3311 C 0.71259 0.76497 0.78864 0.0
C3312 C 0.72603 0.77968 0.78681 0.0
C3313 C 0.69602 0.76736 0.7936 0.0
C3314 C 0.66505 0.79934 0.79572 0.0
H3315 H 0.58696 0.76162 0.83409 0.0
H3316 H 0.61517 0.76115 0.82246 0.0
H3317 H 0.64108 0.80976 0.79426 0.0
H3318 H 0.73256 0.80876 0.78931 0.0
H3319 H 0.70352 0.8131 0.798 0.0
H3320 H 0.67357 0.76671 0.82278 0.0
C3321 C 0.61076 0.7738 0.82355 0.0
C3322 C 0.64804 0.80043 0.80081 0.0
C3323 C 0.59428 0.77398 0.83004 0.0
C3324 C 0.72245 0.79706 0.79037 0.0
C3325 C 0.70573 0.79953 0.79524 0.0
C3326 C 0.66665 0.77612 0.8163 0.0
C3327 C 0.62141 0.78953 0.81881 0.0
C3328 C 0.63998 0.78924 0.81365 0.0
C3329 C 0.69224 0.78467 0.79707 0.0
C3330 C 0.67452 0.78691 0.80314 0.0
H3331 H 0.59256 0.8178 0.82707 0.0
H3332 H 0.62175 0.81773 0.81621 0.0
H3333 H 0.64478 0.76892 0.83203 0.0
H3334 H 0.71501 0.75155 0.78683 0.0
H3335 H 0.68612 0.75552 0.79473 0.0
C3336 C 0.46499 0.52169 0.71181 0.0
C3337 C 0.44697 0.5167 0.71399 0.0
C3338 C 0.47024 0.52253 0.6934 0.0
C3339 C 0.45449 0.50838 0.64105 0.0
H3340 H 0.49272 0.54761 0.63493 0.0
C3341 C 0.47754 0.52732 0.56729 0.0
C3342 C 0.49497 0.52478 0.56643 0.0
C3343 C 0.47037 0.52721 0.58485 0.0
C3344 C 0.48191 0.53671 0.63647 0.0
H3345 H 0.42039 0.50806 0.69851 0.0
H3346 H 0.42949 0.50993 0.66662 0.0
H3347 H 0.48317 0.54475 0.66675 0.0
H3348 H 0.51803 0.51913 0.58336 0.0
H3349 H 0.50613 0.5206 0.61382 0.0
H3350 H 0.45329 0.50055 0.61057 0.0
C3351 C 0.43962 0.51299 0.67902 0.0
C3352 C 0.4766 0.53489 0.65469 0.0
C3353 C 0.43439 0.51204 0.69737 0.0
C3354 C 0.50497 0.52215 0.58348 0.0
C3355 C 0.49807 0.52267 0.60098 0.0
C3356 C 0.45965 0.51038 0.62275 0.0
C3357 C 0.45758 0.5185 0.67679 0.0
C3358 C 0.46299 0.52055 0.65728 0.0
C3359 C 0.48072 0.52506 0.60181 0.0
C3360 C 0.47353 0.52443 0.62041 0.0
H3361 H 0.47502 0.52517 0.72431 0.0
H3362 H 0.48424 0.52642 0.6922 0.0
H3363 H 0.44414 0.49703 0.64253 0.0
H3364 H 0.46938 0.52909 0.5544 0.0
H3365 H 0.45684 0.52889 0.58523 0.0
C3366 C 0.77021 0.15771 -0.00176 0.0
C3367 C 0.75913 0.14056 0.99484 0.0
C3368 C 0.77271 0.16809 0.98314 0.0
C3369 C 0.75133 0.17138 0.93443 0.0
H3370 H 0.79455 0.20626 0.93237 0.0
C3371 C 0.75695 0.20961 0.87106 0.0
C3372 C 0.75393 0.22685 0.87679 0.0
C3373 C 0.76363 0.19978 0.88467 0.0
C3374 C 0.78254 0.19641 0.9328 0.0
H3375 H 0.74249 0.12038 0.97324 0.0
H3376 H 0.74765 0.13794 0.94657 0.0
H3377 H 0.79334 0.18641 0.95788 0.0
H3378 H 0.75751 0.24818 0.90063 0.0
H3379 H 0.76889 0.23064 0.92467 0.0
H3380 H 0.74067 0.18115 0.90929 0.0
C3381 C 0.75385 0.14381 0.96095 0.0
C3382 C 0.78173 0.1852 0.94741 0.0
C3383 C 0.75096 0.13368 0.97614 0.0
C3384 C 0.75935 0.23476 0.89599 0.0
C3385 C 0.76614 0.22491 0.90962 0.0
C3386 C 0.7523 0.18221 0.91971 0.0
C3387 C 0.76447 0.16128 0.96432 0.0
C3388 C 0.76602 0.17265 0.94844 0.0
C3389 C 0.76743 0.20707 0.90415 0.0
C3390 C 0.76781 0.19483 0.91887 0.0
H3391 H 0.77649 0.16332 0.01268 0.0
H3392 H 0.78067 0.1816 0.98635 0.0
H3393 H 0.73883 0.16238 0.93507 0.0
H3394 H 0.75291 0.20317 0.85635 0.0
H3395 H 0.76441 0.18594 0.8803 0.0
C3396 C 0.12877 0.54377 0.19728 0.0
C3397 C 0.12618 0.52795 0.20609 0.0
C3398 C 0.12023 0.54392 0.17889 0.0
C3399 C 0.08541 0.51766 0.14108 0.0
H3400 H 0.11417 0.54445 0.10731 0.0
C3401 C 0.06277 0.51338 0.06137 0.0
C3402 C 0.05401 0.52778 0.06058 0.0
C3403 C 0.07604 0.51389 0.07653 0.0
C3404 C 0.10623 0.53674 0.11661 0.0
H3405 H 0.11201 0.50028 0.20353 0.0
H3406 H 0.09746 0.50025 0.17102 0.0
H3407 H 0.12632 0.54413 0.1409 0.0
H3408 H 0.05282 0.55449 0.07332 0.0
H3409 H 0.07657 0.55563 0.09966 0.0
H3410 H 0.06547 0.51014 0.11659 0.0
C3411 C 0.10577 0.51266 0.17834 0.0
C3412 C 0.11296 0.53677 0.13583 0.0
C3413 C 0.11404 0.51265 0.19696 0.0
C3414 C 0.05965 0.54337 0.07379 0.0
C3415 C 0.07322 0.54407 0.08864 0.0
C3416 C 0.07888 0.51735 0.12182 0.0
C3417 C 0.10931 0.52812 0.16888 0.0
C3418 C 0.10244 0.52753 0.14835 0.0
C3419 C 0.08071 0.52893 0.09064 0.0
C3420 C 0.08916 0.52709 0.10965 0.0
H3421 H 0.13801 0.55577 0.20429 0.0
H3422 H 0.1227 0.55622 0.17224 0.0
H3423 H 0.0769 0.51061 0.15036 0.0
H3424 H 0.05825 0.50113 0.05142 0.0
H3425 H 0.08153 0.50202 0.07818 0.0
C3426 C 0.79423 0.86501 0.46663 0.0
C3427 C 0.78719 0.85632 0.48157 0.0
C3428 C 0.79174 0.85616 0.44791 0.0
C3429 C 0.76656 0.81557 0.41537 0.0
H3430 H 0.80607 0.82813 0.38624 0.0
C3431 C 0.77542 0.77978 0.33966 0.0
C3432 C 0.77721 0.79182 0.32578 0.0
C3433 C 0.77581 0.78624 0.35917 0.0
C3434 C 0.79497 0.82447 0.39424 0.0
H3435 H 0.77162 0.83175 0.48882 0.0
H3436 H 0.76804 0.81565 0.45601 0.0
H3437 H 0.80811 0.84174 0.41943 0.0
H3438 H 0.7813 0.81994 0.32127 0.0
H3439 H 0.78272 0.83121 0.35536 0.0
H3440 H 0.75377 0.79781 0.38989 0.0
C3441 C 0.7751 0.82953 0.45866 0.0
C3442 C 0.79601 0.8324 0.41321 0.0
C3443 C 0.77721 0.83866 0.47744 0.0
C3444 C 0.77976 0.81037 0.33169 0.0
C3445 C 0.78059 0.81682 0.35114 0.0
C3446 C 0.76567 0.80734 0.39638 0.0
C3447 C 0.78263 0.83811 0.44371 0.0
C3448 C 0.78167 0.82843 0.42393 0.0
C3449 C 0.7785 0.80483 0.36502 0.0
C3450 C 0.77977 0.81202 0.3856 0.0
H3451 H 0.80163 0.87879 0.46943 0.0
H3452 H 0.79711 0.86352 0.43673 0.0
H3453 H 0.75522 0.81223 0.42309 0.0
H3454 H 0.77337 0.7654 0.33538 0.0
H3455 H 0.77428 0.77679 0.3697 0.0
C3456 C 0.44408 0.52404 0.82329 0.0
C3457 C 0.44878 0.51242 0.80876 0.0
C3458 C 0.4523 0.52584 0.84233 0.0
C3459 C 0.47757 0.50182 0.87517 0.0
H3460 H 0.48677 0.54715 0.90863 0.0
C3461 C 0.51407 0.51036 0.95305 0.0
C3462 C 0.50668 0.51971 0.96735 0.0
C3463 C 0.50815 0.51019 0.93344 0.0
C3464 C 0.48419 0.53436 0.89949 0.0
H3465 H 0.4663 0.49417 0.80265 0.0
H3466 H 0.481 0.49768 0.83568 0.0
H3467 H 0.47451 0.5458 0.8749 0.0
H3468 H 0.48761 0.53667 0.97214 0.0
H3469 H 0.47731 0.53625 0.93814 0.0
H3470 H 0.48721 0.49039 0.89978 0.0
C3471 C 0.47061 0.50502 0.83254 0.0
C3472 C 0.47712 0.53357 0.88015 0.0
C3473 C 0.46226 0.50309 0.81355 0.0
C3474 C 0.49355 0.52921 0.96156 0.0
C3475 C 0.48771 0.5291 0.94201 0.0
C3476 C 0.48472 0.50263 0.89447 0.0
C3477 C 0.46554 0.51618 0.84726 0.0
C3478 C 0.47362 0.51726 0.86774 0.0
C3479 C 0.49483 0.5195 0.92769 0.0
C3480 C 0.48802 0.51888 0.90691 0.0
H3481 H 0.43365 0.53135 0.8201 0.0
H3482 H 0.44787 0.53438 0.85328 0.0
H3483 H 0.47474 0.48894 0.86619 0.0
H3484 H 0.52436 0.50311 0.95697 0.0
H3485 H 0.51407 0.50284 0.92276 0.0
C3486 C 0.75304 0.16782 0.09265 0.0
C3487 C 0.7691 0.16708 0.08552 0.0
C3488 C 0.75305 0.17691 0.11083 0.0
C3489 C 0.78168 0.20805 0.15049 0.0
H3490 H 0.74675 0.18544 0.18108 0.0
C3491 C 0.78255 0.23144 0.23017 0.0
C3492 C 0.76897 0.24109 0.23159 0.0
C3493 C 0.78199 0.21928 0.21387 0.0
C3494 C 0.75663 0.19165 0.17265 0.0
H3495 H 0.79766 0.17532 0.09093 0.0
H3496 H 0.79786 0.19064 0.12319 0.0
H3497 H 0.74746 0.17184 0.14816 0.0
H3498 H 0.74359 0.24491 0.21845 0.0
H3499 H 0.74251 0.22326 0.18982 0.0
H3500 H 0.79102 0.22761 0.17528 0.0
C3501 C 0.78522 0.1848 0.11464 0.0
C3502 C 0.75692 0.18413 0.15381 0.0
C3503 C 0.78515 0.17611 0.09622 0.0
C3504 C 0.75425 0.23765 0.21734 0.0
C3505 C 0.75352 0.22522 0.20124 0.0
C3506 C 0.78163 0.21531 0.16943 0.0
C3507 C 0.76917 0.18487 0.12229 0.0
C3508 C 0.76924 0.19247 0.14244 0.0
C3509 C 0.76769 0.21652 0.19919 0.0
C3510 C 0.76896 0.20727 0.18042 0.0
H3511 H 0.74055 0.16084 0.08443 0.0
H3512 H 0.74046 0.17723 0.1161 0.0
H3513 H 0.79116 0.21492 0.14205 0.0
H3514 H 0.794 0.23396 0.24112 0.0
H3515 H 0.79305 0.21269 0.21227 0.0
C3516 C 0.13334 0.54657 0.2923 0.0
C3517 C 0.14643 0.53648 0.2899 0.0
C3518 C 0.1234 0.54461 0.30759 0.0
C3519 C 0.10982 0.51496 0.34404 0.0
H3520 H 0.09898 0.55893 0.36814 0.0
C3521 C 0.08186 0.53537 0.41669 0.0
C3522 C 0.06742 0.54381 0.41308 0.0
C3523 C 0.08967 0.52849 0.40132 0.0
C3524 C 0.10187 0.54655 0.36144 0.0
H3525 H 0.15956 0.51646 0.30149 0.0
H3526 H 0.14252 0.51352 0.32889 0.0
H3527 H 0.11804 0.56047 0.34282 0.0
H3528 H 0.0483 0.54945 0.39093 0.0
H3529 H 0.06222 0.53775 0.36408 0.0
H3530 H 0.0938 0.50128 0.3635 0.0
C3531 C 0.13968 0.5226 0.31863 0.0
C3532 C 0.1127 0.5474 0.34693 0.0
C3533 C 0.14949 0.52438 0.30308 0.0
C3534 C 0.05967 0.54339 0.39402 0.0
C3535 C 0.06744 0.53649 0.37872 0.0
C3536 C 0.09906 0.51416 0.3589 0.0
C3537 C 0.1266 0.53278 0.32106 0.0
C3538 C 0.11643 0.53161 0.33771 0.0
C3539 C 0.08305 0.52998 0.38233 0.0
C3540 C 0.09475 0.52996 0.36727 0.0
H3541 H 0.13051 0.55577 0.28216 0.0
H3542 H 0.11311 0.55231 0.30879 0.0
H3543 H 0.11253 0.50258 0.33718 0.0
H3544 H 0.08803 0.53546 0.4313 0.0
H3545 H 0.10184 0.52369 0.40432 0.0
C3546 C 0.77522 0.86029 0.59459 0.0
C3547 C 0.78451 0.8525 0.58097 0.0
C3548 C 0.7737 0.85371 0.61233 0.0
C3549 C 0.79518 0.82841 0.64628 0.0
H3550 H 0.7503 0.82136 0.66718 0.0
C3551 C 0.78381 0.78921 0.71086 0.0
C3552 C 0.77458 0.79594 0.7252 0.0
C3553 C 0.78475 0.7967 0.69361 0.0
C3554 C 0.76297 0.82349 0.66165 0.0
H3555 H 0.7994 0.83163 0.57527 0.0
H3556 H 0.79675 0.82013 0.60629 0.0
H3557 H 0.7524 0.83307 0.63615 0.0
H3558 H 0.75882 0.81563 0.73256 0.0
H3559 H 0.76059 0.82893 0.70226 0.0
H3560 H 0.80578 0.81886 0.6717 0.0
C3561 C 0.79075 0.83142 0.60326 0.0
C3562 C 0.76417 0.83015 0.64388 0.0
C3563 C 0.79218 0.83793 0.58545 0.0
C3564 C 0.76611 0.81024 0.7218 0.0
C3565 C 0.76703 0.81776 0.70443 0.0
C3566 C 0.79399 0.8218 0.66404 0.0
C3567 C 0.78153 0.83927 0.61691 0.0
C3568 C 0.78026 0.83253 0.63593 0.0
C3569 C 0.77649 0.81113 0.69022 0.0
C3570 C 0.77784 0.81909 0.67184 0.0
H3571 H 0.76913 0.87153 0.59158 0.0
H3572 H 0.76665 0.86014 0.62261 0.0
H3573 H 0.80784 0.83043 0.64073 0.0
H3574 H 0.79047 0.77816 0.71298 0.0
H3575 H 0.79186 0.79106 0.68284 0.0
C3576 C 0.71971 0.43756 0.47116 0.0
C3577 C 0.7351 0.44528 0.48398 0.0
C3578 C 0.70423 0.44405 0.47271 0.0
C3579 C 0.68233 0.46095 0.50918 0.0
H3580 H 0.66121 0.49122 0.47621 0.0
C3581 C 0.64445 0.50817 0.54071 0.0
C3582 C 0.62631 0.50129 0.53548 0.0
C3583 C 0.65644 0.50315 0.52896 0.0
C3584 C 0.66698 0.48264 0.48532 0.0
H3585 H 0.7467 0.466 0.508 0.0
H3586 H 0.71969 0.47699 0.51074 0.0
H3587 H 0.68433 0.47593 0.46504 0.0
H3588 H 0.60613 0.48521 0.51335 0.0
H3589 H 0.62736 0.47607 0.49298 0.0
H3590 H 0.6659 0.46825 0.52987 0.0
C3591 C 0.71968 0.46617 0.49945 0.0
C3592 C 0.67988 0.47383 0.47892 0.0
C3593 C 0.73506 0.45988 0.49783 0.0
C3594 C 0.62015 0.49057 0.51765 0.0
C3595 C 0.63216 0.48554 0.50591 0.0
C3596 C 0.66965 0.46977 0.51557 0.0
C3597 C 0.70419 0.45806 0.48718 0.0
C3598 C 0.6879 0.46348 0.49116 0.0
C3599 C 0.6503 0.49118 0.51202 0.0
C3600 C 0.66242 0.48108 0.50395 0.0
H3601 H 0.71954 0.42631 0.46036 0.0
H3602 H 0.6922 0.43771 0.46326 0.0
H3603 H 0.68854 0.453 0.51874 0.0
H3604 H 0.64934 0.5168 0.55419 0.0
H3605 H 0.67052 0.50747 0.53378 0.0
C3606 C 0.20539 0.1168 0.5059 0.0
C3607 C 0.20756 0.13564 0.5077 0.0
C3608 C 0.1886 0.10591 0.50558 0.0
C3609 C 0.14373 0.10814 0.51879 0.0
H3610 H 0.13027 0.06116 0.48829 0.0
C3611 C 0.07234 0.06521 0.50462 0.0
C3612 C 0.07069 0.04892 0.51277 0.0
C3613 C 0.08903 0.07537 0.503 0.0
C3614 C 0.13395 0.07425 0.49687 0.0
H3615 H 0.19375 0.15779 0.51004 0.0
H3616 H 0.16453 0.13889 0.50888 0.0
H3617 H 0.15935 0.08004 0.48693 0.0
H3618 H 0.08557 0.03076 0.52568 0.0
H3619 H 0.11465 0.048 0.52162 0.0
H3620 H 0.11801 0.10245 0.52818 0.0
C3621 C 0.17579 0.13245 0.50826 0.0
C3622 C 0.15061 0.08503 0.49623 0.0
C3623 C 0.19256 0.14333 0.50877 0.0
C3624 C 0.0862 0.04289 0.51882 0.0
C3625 C 0.10289 0.05282 0.51668 0.0
C3626 C 0.12699 0.09751 0.51914 0.0
C3627 C 0.17358 0.1136 0.50689 0.0
C3628 C 0.15576 0.10212 0.50725 0.0
C3629 C 0.1044 0.06925 0.50902 0.0
C3630 C 0.12202 0.08048 0.50826 0.0
H3631 H 0.21669 0.11045 0.50507 0.0
H3632 H 0.18751 0.09148 0.50474 0.0
H3633 H 0.14732 0.12099 0.52783 0.0
H3634 H 0.06076 0.0704 0.49989 0.0
H3635 H 0.08996 0.08806 0.49712 0.0
C3636 C 0.15009 0.96981 0.79255 0.0
C3637 C 0.15613 0.98634 0.7858 0.0
C3638 C 0.16028 0.95659 0.79205 0.0
C3639 C 0.19444 0.94153 0.76637 0.0
H3640 H 0.19973 0.9133 0.80882 0.0
C3641 C 0.23379 0.88555 0.76143 0.0
C3642 C 0.22425 0.86902 0.76526 0.0
C3643 C 0.22825 0.90143 0.7671 0.0
C3644 C 0.19837 0.92112 0.79689 0.0
H3645 H 0.17754 0.00204 0.77332 0.0
H3646 H 0.19529 0.97892 0.77243 0.0
H3647 H 0.18387 0.93804 0.81203 0.0
H3648 H 0.20241 0.85578 0.77882 0.0
H3649 H 0.19264 0.88354 0.78884 0.0
H3650 H 0.20846 0.9244 0.75101 0.0
C3651 C 0.18267 0.97619 0.77804 0.0
C3652 C 0.18926 0.93519 0.79869 0.0
C3653 C 0.17254 0.98943 0.77862 0.0
C3654 C 0.20983 0.86851 0.77576 0.0
C3655 C 0.20437 0.88437 0.78157 0.0
C3656 C 0.20353 0.9275 0.76458 0.0
C3657 C 0.17662 0.95964 0.78471 0.0
C3658 C 0.18705 0.94538 0.78335 0.0
C3659 C 0.21317 0.90089 0.77672 0.0
C3660 C 0.20539 0.91702 0.77972 0.0
H3661 H 0.1375 0.96707 0.7982 0.0
H3662 H 0.15521 0.94386 0.79706 0.0
H3663 H 0.19269 0.94898 0.75421 0.0
H3664 H 0.24499 0.88608 0.75332 0.0
H3665 H 0.23537 0.91403 0.76338 0.0
C3666 C 0.34566 0.95441 0.03297 0.0
C3667 C 0.33319 0.95726 0.01821 0.0
C3668 C 0.36368 0.95912 0.03147 0.0
C3669 C 0.3947 0.98933 0.00893 0.0
H3670 H 0.4264 0.95664 0.01862 0.0
C3671 C 0.46737 0.00979 0.00125 0.0
C3672 C 0.47904 0.00683 0.01672 0.0
C3673 C 0.44968 0.00128 -0.00105 0.0
C3674 C 0.41764 0.96586 0.01593 0.0
H3675 H 0.32965 0.9676 0.99057 0.0
H3676 H 0.36101 0.97574 0.98806 0.0
H3677 H 0.39469 0.94687 0.02042 0.0
H3678 H 0.4816 0.99228 0.0413 0.0
H3679 H 0.45038 0.97836 0.03833 0.0
H3680 H 0.41742 0.00853 0.00507 0.0
C3681 C 0.35687 0.96995 0.00074 0.0
C3682 C 0.39964 0.96031 0.017 0.0
C3683 C 0.33896 0.96535 0.00226 0.0
C3684 C 0.47282 0.99497 0.02958 0.0
C3685 C 0.45502 0.98678 0.02761 0.0
C3686 C 0.41261 0.99489 0.00798 0.0
C3687 C 0.36931 0.96677 0.01525 0.0
C3688 C 0.38815 0.97212 0.01367 0.0
C3689 C 0.4433 0.99006 0.0124 0.0
C3690 C 0.42424 0.98328 0.01165 0.0
H3691 H 0.34153 0.94807 0.04533 0.0
H3692 H 0.3732 0.95682 0.04293 0.0
H3693 H 0.38602 0.99868 0.00651 0.0
H3694 H 0.47187 0.01848 0.99076 0.0
H3695 H 0.44093 0.00372 0.98686 0.0
C3696 C 0.83794 0.56227 0.79703 0.0
C3697 C 0.85651 0.56554 0.79861 0.0
C3698 C 0.82929 0.57648 0.79922 0.0
C3699 C 0.83613 0.62565 0.81331 0.0
H3700 H 0.79952 0.62177 0.77002 0.0
C3701 C 0.82278 0.68056 0.76816 0.0
C3702 C 0.80515 0.68051 0.76117 0.0
C3703 C 0.82651 0.66827 0.78059 0.0
C3704 C 0.80932 0.62291 0.78255 0.0
H3705 H 0.88072 0.58597 0.80434 0.0
H3706 H 0.8655 0.61107 0.80725 0.0
H3707 H 0.81114 0.59553 0.77662 0.0
H3708 H 0.77756 0.66855 0.76248 0.0
H3709 H 0.78419 0.64692 0.78396 0.0
H3710 H 0.83531 0.65368 0.81785 0.0
C3711 C 0.85767 0.59748 0.80491 0.0
C3712 C 0.81599 0.60787 0.78636 0.0
C3713 C 0.86637 0.58318 0.80299 0.0
C3714 C 0.79129 0.66886 0.76772 0.0
C3715 C 0.79502 0.65658 0.78007 0.0
C3716 C 0.8296 0.64084 0.80929 0.0
C3717 C 0.83904 0.59422 0.80269 0.0
C3718 C 0.82985 0.60925 0.80136 0.0
C3719 C 0.81264 0.65576 0.78595 0.0
C3720 C 0.81656 0.6396 0.79351 0.0
H3721 H 0.83002 0.54872 0.79391 0.0
H3722 H 0.81493 0.57361 0.79763 0.0
H3723 H 0.84667 0.62691 0.82513 0.0
H3724 H 0.83362 0.68965 0.76352 0.0
H3725 H 0.84021 0.66763 0.78481 0.0
C3726 C 0.80692 0.62155 0.00942 0.0
C3727 C 0.80994 0.63892 0.00378 0.0
C3728 C 0.82034 0.61172 0.01006 0.0
C3729 C 0.86301 0.60819 0.99262 0.0
H3730 H 0.8692 0.58357 0.03779 0.0
C3731 C 0.92525 0.58081 0.0191 0.0
C3732 C 0.92212 0.56506 0.02801 0.0
C3733 C 0.91099 0.58804 0.01184 0.0
C3734 C 0.86745 0.59009 0.02491 0.0
H3735 H 0.82932 0.65946 0.99403 0.0
H3736 H 0.85285 0.64225 0.99528 0.0
H3737 H 0.84567 0.60038 0.03445 0.0
H3738 H 0.90213 0.54365 0.03509 0.0
H3739 H 0.87716 0.55602 0.02208 0.0
H3740 H 0.88526 0.59816 0.98344 0.0
C3741 C 0.84003 0.63623 -0.00095 0.0
C3742 C 0.85399 0.59976 0.02302 0.0
C3743 C 0.82659 0.64612 -0.00153 0.0
C3744 C 0.90471 0.55576 0.02811 0.0
C3745 C 0.89051 0.56293 0.02086 0.0
C3746 C 0.8766 0.59852 0.99456 0.0
C3747 C 0.83708 0.619 0.00505 0.0
C3748 C 0.85154 0.60884 0.00683 0.0
C3749 C 0.89353 0.57961 0.0136 0.0
C3750 C 0.87884 0.58928 0.01068 0.0
H3751 H 0.79424 0.61561 0.01358 0.0
H3752 H 0.8176 0.59838 0.01451 0.0
H3753 H 0.86137 0.615 0.97994 0.0
H3754 H 0.93866 0.58825 0.01916 0.0
H3755 H 0.91369 0.60093 0.00636 0.0
C3756 C 0.17258 0.09574 0.79876 0.0
C3757 C 0.15939 0.08955 0.78293 0.0
C3758 C 0.18365 0.1127 0.79992 0.0
C3759 C 0.18714 0.15579 0.77851 0.0
H3760 H 0.23677 0.16324 0.79934 0.0
C3761 C 0.24412 0.21218 0.76436 0.0
C3762 C 0.24794 0.22601 0.77991 0.0
C3763 C 0.23403 0.19544 0.76639 0.0
C3764 C 0.2229 0.16125 0.79363 0.0
H3765 H 0.14768 0.09584 0.75567 0.0
H3766 H 0.1674 0.12491 0.75718 0.0
H3767 H 0.21729 0.13389 0.7994 0.0
H3768 H 0.24514 0.23326 0.8099 0.0
H3769 H 0.22787 0.20341 0.81367 0.0
H3770 H 0.19312 0.18296 0.77196 0.0
C3771 C 0.16883 0.11716 0.76914 0.0
C3772 C 0.21171 0.14456 0.79374 0.0
C3773 C 0.15758 0.10043 0.76819 0.0
C3774 C 0.24218 0.22272 0.79774 0.0
C3775 C 0.23244 0.20578 0.79991 0.0
C3776 C 0.19838 0.17233 0.77816 0.0
C3777 C 0.18192 0.12361 0.78508 0.0
C3778 C 0.19372 0.14157 0.786 0.0
C3779 C 0.22809 0.19221 0.78413 0.0
C3780 C 0.21628 0.17508 0.78562 0.0
H3781 H 0.17418 0.08759 0.81035 0.0
H3782 H 0.19342 0.11732 0.81253 0.0
H3783 H 0.17331 0.15416 0.77283 0.0
H3784 H 0.24831 0.21457 0.75042 0.0
H3785 H 0.23058 0.18511 0.75404 0.0
C3786 C 0.33965 0.94994 0.25603 0.0
C3787 C 0.33829 0.96282 0.27123 0.0
C3788 C 0.33628 0.93177 0.25843 0.0
C3789 C 0.31304 0.9004 0.28744 0.0
H3790 H 0.34129 0.86837 0.2658 0.0
C3791 C 0.29411 0.82591 0.29017 0.0
C3792 C 0.29084 0.81623 0.27164 0.0
C3793 C 0.30408 0.84326 0.29318 0.0
C3794 C 0.33348 0.87728 0.27204 0.0
H3795 H 0.33165 0.96688 0.30054 0.0
H3796 H 0.32623 0.93539 0.30476 0.0
H3797 H 0.35018 0.90086 0.26503 0.0
H3798 H 0.29613 0.81621 0.24199 0.0
H3799 H 0.31326 0.84717 0.24702 0.0
H3800 H 0.29615 0.87699 0.29407 0.0
C3801 C 0.32972 0.93922 0.29099 0.0
C3802 C 0.33843 0.89572 0.27149 0.0
C3803 C 0.33278 0.95725 0.28851 0.0
C3804 C 0.29833 0.82368 0.25627 0.0
C3805 C 0.30829 0.84117 0.25924 0.0
C3806 C 0.30823 0.88209 0.28816 0.0
C3807 C 0.33162 0.92637 0.27606 0.0
C3808 C 0.32789 0.90729 0.27864 0.0
C3809 C 0.31086 0.85113 0.27764 0.0
C3810 C 0.3181 0.87041 0.27994 0.0
H3811 H 0.34394 0.9539 0.24261 0.0
H3812 H 0.3374 0.92198 0.24655 0.0
H3813 H 0.30459 0.90901 0.29288 0.0
H3814 H 0.28906 0.82004 0.30238 0.0
H3815 H 0.3061 0.85073 0.3075 0.0
C3816 C 0.56378 0.3538 0.5903 0.0
C3817 C 0.55134 0.33734 0.58684 0.0
C3818 C 0.56028 0.36924 0.58257 0.0
C3819 C 0.53269 0.38628 0.54479 0.0
H3820 H 0.5443 0.43037 0.58029 0.0
C3821 C 0.51547 0.45334 0.52145 0.0
C3822 C 0.52452 0.47007 0.53144 0.0
C3823 C 0.51834 0.437 0.52764 0.0
C3824 C 0.54126 0.41844 0.56983 0.0
H3825 H 0.52547 0.32441 0.57173 0.0
H3826 H 0.51942 0.3514 0.55802 0.0
H3827 H 0.55009 0.40269 0.59111 0.0
H3828 H 0.5447 0.48241 0.55526 0.0
H3829 H 0.55073 0.45441 0.56511 0.0
H3830 H 0.52447 0.40199 0.52324 0.0
C3831 C 0.53196 0.35227 0.56685 0.0
C3832 C 0.5445 0.40234 0.57622 0.0
C3833 C 0.53543 0.33674 0.57474 0.0
C3834 C 0.53714 0.46987 0.54735 0.0
C3835 C 0.54046 0.45356 0.55318 0.0
C3836 C 0.52977 0.40251 0.53822 0.0
C3837 C 0.54422 0.36888 0.57096 0.0
C3838 C 0.54031 0.38596 0.56386 0.0
C3839 C 0.53091 0.43667 0.54371 0.0
C3840 C 0.53401 0.41903 0.5506 0.0
H3841 H 0.57627 0.35492 0.59932 0.0
H3842 H 0.57024 0.38157 0.58579 0.0
H3843 H 0.52938 0.37403 0.53473 0.0
H3844 H 0.50594 0.45277 0.50892 0.0
H3845 H 0.51039 0.42465 0.51983 0.0
C3846 C 0.43349 0.76451 0.40921 0.0
C3847 C 0.44624 0.75514 0.40306 0.0
C3848 C 0.419 0.76632 0.39636 0.0
C3849 C 0.40035 0.75882 0.34326 0.0
H3850 H 0.35743 0.7649 0.3646 0.0
C3851 C 0.33131 0.75176 0.29694 0.0
C3852 C 0.32137 0.7648 0.30171 0.0
C3853 C 0.34711 0.75119 0.30851 0.0
C3854 C 0.36934 0.76334 0.35838 0.0
H3855 H 0.45372 0.74027 0.37842 0.0
H3856 H 0.42786 0.74228 0.3562 0.0
H3857 H 0.38315 0.76202 0.38594 0.0
H3858 H 0.32084 0.78813 0.32175 0.0
H3859 H 0.34789 0.7867 0.34244 0.0
H3860 H 0.38583 0.75927 0.31548 0.0
C3861 C 0.42927 0.74892 0.37081 0.0
C3862 C 0.38431 0.76182 0.3707 0.0
C3863 C 0.44411 0.74758 0.38362 0.0
C3864 C 0.32776 0.77747 0.31813 0.0
C3865 C 0.3434 0.77676 0.32985 0.0
C3866 C 0.38518 0.75995 0.33088 0.0
C3867 C 0.41637 0.75831 0.37695 0.0
C3868 C 0.40021 0.75966 0.36346 0.0
C3869 C 0.35325 0.76355 0.32528 0.0
C3870 C 0.3695 0.76234 0.3383 0.0
H3871 H 0.4349 0.77084 0.42399 0.0
H3872 H 0.40999 0.77424 0.40178 0.0
H3873 H 0.41222 0.75752 0.33688 0.0
H3874 H 0.32664 0.74168 0.28454 0.0
H3875 H 0.35425 0.74075 0.30463 0.0
C3876 C 0.04048 0.72065 0.09008 0.0
C3877 C 0.0441 0.73298 0.07668 0.0
C3878 C 0.03946 0.7021 0.08498 0.0
C3879 C 0.05013 0.6687 0.04608 0.0
H3880 H 0.02247 0.63427 0.07362 0.0
C3881 C 0.05088 0.59159 0.0333 0.0
C3882 C 0.03552 0.57909 0.03555 0.0
C3883 C 0.05217 0.61027 0.03814 0.0
C3884 C 0.03011 0.64354 0.06546 0.0
H3885 H 0.04908 0.73507 0.04709 0.0
H3886 H 0.04656 0.70299 0.03796 0.0
H3887 H 0.02307 0.66598 0.08131 0.0
H3888 H 0.00936 0.57705 0.04474 0.0
H3889 H 0.01138 0.60895 0.05254 0.0
H3890 H 0.05634 0.64604 0.02949 0.0
C3891 C 0.04507 0.70752 0.0527 0.0
C3892 C 0.03075 0.66203 0.07022 0.0
C3893 C 0.04634 0.72609 0.0579 0.0
C3894 C 0.02153 0.58599 0.0428 0.0
C3895 C 0.02276 0.60454 0.04751 0.0
C3896 C 0.04926 0.65015 0.0411 0.0
C3897 C 0.04177 0.69509 0.06617 0.0
C3898 C 0.04085 0.67508 0.06073 0.0
C3899 C 0.0381 0.61713 0.04538 0.0
C3900 C 0.03925 0.63715 0.05072 0.0
H3901 H 0.03877 0.72535 0.10472 0.0
H3902 H 0.03723 0.69336 0.09607 0.0
H3903 H 0.05834 0.67801 0.03846 0.0
H3904 H 0.06194 0.58699 0.02781 0.0
H3905 H 0.06435 0.61928 0.0364 0.0
C3906 C 0.04799 0.2593 0.88989 0.0
C3907 C 0.05094 0.26796 0.90901 0.0
C3908 C 0.06205 0.25964 0.87869 0.0
C3909 C 0.10711 0.2861 0.8759 0.0
H3910 H 0.1126 0.24466 0.84197 0.0
C3911 C 0.17063 0.28833 0.84095 0.0
C3912 C 0.16837 0.28366 0.82085 0.0
C3913 C 0.15656 0.2836 0.85165 0.0
C3914 C 0.11119 0.25636 0.85133 0.0
H3915 H 0.07114 0.28362 0.93128 0.0
H3916 H 0.09541 0.28418 0.91197 0.0
H3917 H 0.08712 0.24245 0.8603 0.0
H3918 H 0.14993 0.26969 0.79626 0.0
H3919 H 0.12531 0.26104 0.81503 0.0
H3920 H 0.13103 0.30003 0.86708 0.0
C3921 C 0.08225 0.27727 0.90546 0.0
C3922 C 0.09655 0.25513 0.86178 0.0
C3923 C 0.06829 0.27685 0.91662 0.0
C3924 C 0.15212 0.27309 0.81182 0.0
C3925 C 0.138 0.26826 0.82256 0.0
C3926 C 0.12169 0.28728 0.8656 0.0
C3927 C 0.07937 0.26879 0.88628 0.0
C3928 C 0.09443 0.26996 0.87438 0.0
C3929 C 0.13982 0.27418 0.84249 0.0
C3930 C 0.12408 0.27241 0.85334 0.0
H3931 H 0.03482 0.25225 0.88357 0.0
H3932 H 0.05929 0.25304 0.86396 0.0
H3933 H 0.10572 0.29796 0.885 0.0
H3934 H 0.18291 0.29676 0.8482 0.0
H3935 H 0.15852 0.28812 0.86702 0.0
C3936 C 0.53362 0.74109 0.88299 0.0
C3937 C 0.53343 0.75769 0.89368 0.0
C3938 C 0.53275 0.72537 0.89203 0.0
C3939 C 0.51953 0.70675 0.93681 0.0
H3940 H 0.54519 0.66976 0.92173 0.0
C3941 C 0.51946 0.64708 0.9803 0.0
C3942 C 0.51494 0.62999 0.96943 0.0
C3943 C 0.52464 0.66252 0.97135 0.0
C3944 C 0.53791 0.67995 0.92608 0.0
H3945 H 0.53249 0.77069 0.92241 0.0
H3946 H 0.53132 0.74364 0.9381 0.0
H3947 H 0.54776 0.69677 0.9052 0.0
H3948 H 0.51302 0.61555 0.94088 0.0
H3949 H 0.52244 0.64249 0.92522 0.0
H3950 H 0.50969 0.69007 0.95763 0.0
C3951 C 0.53175 0.74254 0.92265 0.0
C3952 C 0.5393 0.69542 0.91653 0.0
C3953 C 0.53255 0.75817 0.91364 0.0
C3954 C 0.51686 0.62853 0.94966 0.0
C3955 C 0.52213 0.644 0.94069 0.0
C3956 C 0.51826 0.69143 0.9464 0.0
C3957 C 0.53168 0.72584 0.91202 0.0
C3958 C 0.53016 0.7091 0.92182 0.0
C3959 C 0.52533 0.66126 0.95128 0.0
C3960 C 0.52746 0.67782 0.94126 0.0
H3961 H 0.53429 0.74019 0.86758 0.0
H3962 H 0.53257 0.71278 0.88327 0.0
H3963 H 0.51188 0.71665 0.94102 0.0
H3964 H 0.51774 0.6486 0.99546 0.0
H3965 H 0.52728 0.67556 0.98002 0.0
C3966 C 0.07351 0.74758 0.72651 0.0
C3967 C 0.06881 0.75285 0.70833 0.0
C3968 C 0.09156 0.74927 0.73396 0.0
C3969 C 0.1369 0.75572 0.71678 0.0
H3970 H 0.15466 0.76256 0.77129 0.0
C3971 C 0.21243 0.77309 0.7433 0.0
C3972 C 0.21904 0.76483 0.75876 0.0
C3973 C 0.1941 0.77148 0.73816 0.0
C3974 C 0.14992 0.76052 0.75599 0.0
H3975 H 0.07948 0.76506 0.68442 0.0
H3976 H 0.11034 0.769 0.69761 0.0
H3977 H 0.12306 0.7607 0.7611 0.0
H3978 H 0.21104 0.74854 0.78114 0.0
H3979 H 0.17913 0.74539 0.77196 0.0
H3980 H 0.16369 0.75582 0.71164 0.0
C3981 C 0.10041 0.7627 0.7059 0.0
C3982 C 0.13168 0.75941 0.75009 0.0
C3983 C 0.08255 0.76068 0.69837 0.0
C3984 C 0.2066 0.75487 0.76895 0.0
C3985 C 0.18821 0.75328 0.76384 0.0
C3986 C 0.15505 0.75704 0.72265 0.0
C3987 C 0.10539 0.7565 0.72353 0.0
C3988 C 0.12482 0.75718 0.73032 0.0
C3989 C 0.18163 0.76152 0.7483 0.0
C3990 C 0.16196 0.75961 0.74233 0.0
H3991 H 0.06328 0.74132 0.7345 0.0
H3992 H 0.0946 0.74427 0.74755 0.0
H3993 H 0.13238 0.75334 0.70144 0.0
H3994 H 0.22143 0.78073 0.73495 0.0
H3995 H 0.1897 0.77823 0.72627 0.0
C3996 C 0.03933 0.34603 0.40578 0.0
C3997 C 0.0329 0.34541 0.38616 0.0
C3998 C 0.04073 0.3618 0.41874 0.0
C3999 C 0.02523 0.4061 0.422 0.0
H4000 H 0.05949 0.41827 0.4681 0.0
C4001 C 0.03804 0.47597 0.46843 0.0
C4002 C 0.03789 0.47584 0.48851 0.0
C4003 C 0.03844 0.46022 0.45631 0.0
C4004 C 0.04982 0.41504 0.45529 0.0
H4005 H 0.02374 0.36107 0.36464 0.0
H4006 H 0.02727 0.38856 0.38649 0.0
H4007 H 0.05842 0.39069 0.44659 0.0
H4008 H 0.03957 0.45891 0.5113 0.0
H4009 H 0.04048 0.43177 0.49045 0.0
H4010 H 0.01699 0.43071 0.4305 0.0
C4011 C 0.03038 0.37683 0.39242 0.0
C4012 C 0.0491 0.39909 0.44293 0.0
C4013 C 0.02855 0.36103 0.3797 0.0
C4014 C 0.03923 0.45967 0.49607 0.0
C4015 C 0.03991 0.44401 0.48403 0.0
C4016 C 0.02619 0.42214 0.43412 0.0
C4017 C 0.03608 0.37747 0.4123 0.0
C4018 C 0.03682 0.39435 0.42596 0.0
C4019 C 0.03915 0.44395 0.46393 0.0
C4020 C 0.0385 0.42689 0.45092 0.0
H4021 H 0.04262 0.33413 0.41124 0.0
H4022 H 0.045 0.36147 0.43386 0.0
H4023 H 0.01512 0.40289 0.4096 0.0
H4024 H 0.03741 0.48812 0.46188 0.0
H4025 H 0.03814 0.46078 0.44092 0.0
C4026 C 0.45931 0.2563 0.22687 0.0
C4027 C 0.45841 0.24981 0.20713 0.0
C4028 C 0.4439 0.25928 0.23497 0.0
C4029 C 0.39666 0.26438 0.21953 0.0
H4030 H 0.38952 0.25853 0.27253 0.0
C4031 C 0.32711 0.25861 0.24575 0.0
C4032 C 0.32562 0.26917 0.26297 0.0
C4033 C 0.34378 0.25722 0.24015 0.0
C4034 C 0.39133 0.26036 0.25771 0.0
H4035 H 0.44001 0.24082 0.18089 0.0
H4036 H 0.41379 0.24541 0.19476 0.0
H4037 H 0.41736 0.25408 0.26087 0.0
H4038 H 0.34098 0.2864 0.28789 0.0
H4039 H 0.37012 0.28331 0.27852 0.0
H4040 H 0.3705 0.27012 0.2162 0.0
C4041 C 0.4263 0.24887 0.20408 0.0
C4042 C 0.40742 0.25784 0.25097 0.0
C4043 C 0.44155 0.24602 0.19605 0.0
C4044 C 0.3415 0.27812 0.27455 0.0
C4045 C 0.35826 0.27629 0.2692 0.0
C4046 C 0.38058 0.2666 0.22616 0.0
C4047 C 0.42707 0.25587 0.22362 0.0
C4048 C 0.41033 0.25954 0.2316 0.0
C4049 C 0.35969 0.26595 0.25176 0.0
C4050 C 0.37749 0.26445 0.24528 0.0
H4051 H 0.47195 0.2594 0.23598 0.0
H4052 H 0.44531 0.26467 0.25006 0.0
H4053 H 0.39829 0.26654 0.20476 0.0
H4054 H 0.31529 0.25166 0.2363 0.0
H4055 H 0.3442 0.2491 0.22668 0.0
C4056 C 0.58531 0.5377 0.33098 0.0
C4057 C 0.60192 0.5337 0.32846 0.0
C4058 C 0.57774 0.53419 0.34779 0.0
C4059 C 0.58926 0.52755 0.39848 0.0
H4060 H 0.53914 0.5067 0.39521 0.0
C4061 C 0.55508 0.50797 0.46517 0.0
C4062 C 0.53959 0.51469 0.46694 0.0
C4063 C 0.56286 0.50864 0.44806 0.0
C4064 C 0.55315 0.51256 0.39632 0.0
H4065 H 0.62372 0.52303 0.34161 0.0
H4066 H 0.61054 0.51698 0.37085 0.0
H4067 H 0.55242 0.5116 0.36565 0.0
H4068 H 0.52001 0.52718 0.45202 0.0
H4069 H 0.53337 0.52802 0.42232 0.0
H4070 H 0.58991 0.52864 0.42919 0.0
C4071 C 0.60337 0.52286 0.35991 0.0
C4072 C 0.56072 0.51544 0.37943 0.0
C4073 C 0.61086 0.52623 0.34309 0.0
C4074 C 0.53187 0.52175 0.45116 0.0
C4075 C 0.53948 0.5222 0.43407 0.0
C4076 C 0.58168 0.52462 0.41538 0.0
C4077 C 0.58673 0.52676 0.36244 0.0
C4078 C 0.57881 0.52316 0.38034 0.0
C4079 C 0.55511 0.51579 0.43238 0.0
C4080 C 0.56351 0.51731 0.41446 0.0
H4081 H 0.57811 0.54344 0.31996 0.0
H4082 H 0.56497 0.53752 0.34943 0.0
H4083 H 0.6032 0.5337 0.39964 0.0
H4084 H 0.56131 0.50242 0.47707 0.0
H4085 H 0.5749 0.50355 0.44707 0.0
C4086 C 0.2867 0.87679 0.03486 0.0
C4087 C 0.28156 0.89345 0.03542 0.0
C4088 C 0.28586 0.86739 0.05078 0.0
C4089 C 0.26695 0.86277 0.09617 0.0
H4090 H 0.30898 0.84363 0.10923 0.0
C4091 C 0.29225 0.83664 0.1674 0.0
C4092 C 0.29929 0.82115 0.16422 0.0
C4093 C 0.28488 0.84381 0.1517 0.0
C4094 C 0.29707 0.84871 0.10558 0.0
H4095 H 0.27112 0.91324 0.05274 0.0
H4096 H 0.27 0.8968 0.08091 0.0
H4097 H 0.30744 0.86069 0.08199 0.0
H4098 H 0.30256 0.79971 0.14313 0.0
H4099 H 0.2897 0.81226 0.11557 0.0
H4100 H 0.25696 0.85103 0.12047 0.0
C4101 C 0.27439 0.89096 0.06801 0.0
C4102 C 0.29619 0.85846 0.09004 0.0
C4103 C 0.27511 0.90036 0.05197 0.0
C4104 C 0.29738 0.81185 0.14565 0.0
C4105 C 0.28995 0.81892 0.13003 0.0
C4106 C 0.26791 0.85305 0.11199 0.0
C4107 C 0.28005 0.87455 0.06761 0.0
C4108 C 0.28101 0.86525 0.08493 0.0
C4109 C 0.28461 0.83546 0.13289 0.0
C4110 C 0.28286 0.84568 0.11645 0.0
H4111 H 0.29155 0.87108 0.02222 0.0
H4112 H 0.29001 0.85458 0.05001 0.0
H4113 H 0.25514 0.86798 0.09249 0.0
H4114 H 0.29353 0.84378 0.1818 0.0
H4115 H 0.28087 0.85662 0.15412 0.0
C4116 C 0.90351 0.52363 0.85076 0.0
C4117 C 0.90211 0.50813 0.83756 0.0
C4118 C 0.91606 0.52714 0.86703 0.0
C4119 C 0.95789 0.51697 0.88639 0.0
H4120 H 0.94259 0.52831 0.9363 0.0
C4121 C 0.9973 0.50926 0.95693 0.0
C4122 C 0.99888 0.52271 0.97252 0.0
C4123 C 0.98607 0.50939 0.94022 0.0
C4124 C 0.9471 0.52548 0.92243 0.0
H4125 H 0.91249 0.48405 0.83102 0.0
H4126 H 0.93441 0.49013 0.85981 0.0
H4127 H 0.92166 0.52483 0.90704 0.0
H4128 H 0.9901 0.54677 0.98328 0.0
H4129 H 0.97041 0.54708 0.95379 0.0
H4130 H 0.98327 0.51739 0.90181 0.0
C4131 C 0.92591 0.49962 0.85731 0.0
C4132 C 0.93516 0.52345 0.90576 0.0
C4133 C 0.9133 0.49606 0.841 0.0
C4134 C 0.98895 0.5362 0.97139 0.0
C4135 C 0.97776 0.53639 0.95459 0.0
C4136 C 0.96986 0.51908 0.90307 0.0
C4137 C 0.92738 0.51522 0.87035 0.0
C4138 C 0.94039 0.5188 0.8877 0.0
C4139 C 0.97636 0.52305 0.93887 0.0
C4140 C 0.9644 0.52292 0.92121 0.0
H4141 H 0.89506 0.5332 0.84844 0.0
H4142 H 0.91707 0.53929 0.87689 0.0
H4143 H 0.96223 0.51372 0.87252 0.0
H4144 H 0.00475 0.49863 0.95767 0.0
H4145 H 0.98485 0.49871 0.92843 0.0
C4146 C 0.26429 0.21486 0.56148 0.0
C4147 C 0.26694 0.19714 0.55828 0.0
C4148 C 0.26515 0.22333 0.58029 0.0
C4149 C 0.28316 0.22214 0.63047 0.0
H4150 H 0.24493 0.24535 0.64379 0.0
C4151 C 0.27436 0.24165 0.70931 0.0
C4152 C 0.26846 0.25761 0.71435 0.0
C4153 C 0.27459 0.23537 0.69003 0.0
C4154 C 0.25587 0.23921 0.64026 0.0
H4155 H 0.27277 0.17447 0.57231 0.0
H4156 H 0.27434 0.1893 0.60507 0.0
H4157 H 0.24495 0.23254 0.61045 0.0
H4158 H 0.25833 0.27958 0.70303 0.0
H4159 H 0.25903 0.26873 0.66918 0.0
H4160 H 0.29424 0.22888 0.6601 0.0
C4161 C 0.27169 0.19666 0.59304 0.0
C4162 C 0.25584 0.23184 0.62118 0.0
C4163 C 0.27072 0.18815 0.57427 0.0
C4164 C 0.26283 0.26718 0.69961 0.0
C4165 C 0.26318 0.26092 0.68022 0.0
C4166 C 0.2833 0.22967 0.64948 0.0
C4167 C 0.26881 0.21428 0.59623 0.0
C4168 C 0.26936 0.22303 0.61618 0.0
C4169 C 0.26912 0.24494 0.67521 0.0
C4170 C 0.26952 0.23806 0.65469 0.0
H4171 H 0.26139 0.22216 0.54948 0.0
H4172 H 0.26304 0.23699 0.58237 0.0
H4173 H 0.29388 0.21565 0.62694 0.0
H4174 H 0.27873 0.23387 0.72028 0.0
H4175 H 0.27888 0.22282 0.68675 0.0
C4176 C 0.5803 0.51662 0.2289 0.0
C4177 C 0.59833 0.52427 0.23452 0.0
C4178 C 0.57232 0.51746 0.21026 0.0
C4179 C 0.57823 0.54226 0.16775 0.0
H4180 H 0.54476 0.50063 0.14044 0.0
C4181 C 0.53801 0.5436 0.09362 0.0
C4182 C 0.53795 0.52917 0.0795 0.0
C4183 C 0.54474 0.54324 0.11286 0.0
C4184 C 0.55412 0.51234 0.14788 0.0
H4185 H 0.62217 0.53873 0.2249 0.0
H4186 H 0.60838 0.53988 0.19241 0.0
H4187 H 0.5581 0.49953 0.17327 0.0
H4188 H 0.54417 0.50273 0.07456 0.0
H4189 H 0.55531 0.50176 0.10817 0.0
H4190 H 0.57452 0.55489 0.14212 0.0
C4191 C 0.60028 0.53352 0.20247 0.0
C4192 C 0.56163 0.51179 0.16676 0.0
C4193 C 0.60822 0.53274 0.22109 0.0
C4194 C 0.54414 0.51409 0.08511 0.0
C4195 C 0.55046 0.51351 0.10437 0.0
C4196 C 0.57067 0.54282 0.14888 0.0
C4197 C 0.58222 0.52593 0.19681 0.0
C4198 C 0.57385 0.5267 0.1769 0.0
C4199 C 0.55107 0.52818 0.11843 0.0
C4200 C 0.55859 0.52784 0.13871 0.0
H4201 H 0.57229 0.51009 0.23894 0.0
H4202 H 0.55833 0.51167 0.20646 0.0
H4203 H 0.58747 0.55405 0.17519 0.0
H4204 H 0.53331 0.55534 0.08979 0.0
H4205 H 0.54493 0.5547 0.1234 0.0
C4206 C 0.29823 0.90864 0.93169 0.0
C4207 C 0.2971 0.90125 0.94905 0.0
C4208 C 0.29415 0.89743 0.91423 0.0
C4209 C 0.27042 0.85203 0.89284 0.0
H4210 H 0.30038 0.8608 0.85241 0.0
C4211 C 0.2596 0.80788 0.81891 0.0
C4212 C 0.2744 0.80019 0.81676 0.0
C4213 C 0.26079 0.82233 0.83315 0.0
C4214 C 0.2918 0.85842 0.86352 0.0
H4215 H 0.29121 0.87683 0.96244 0.0
H4216 H 0.28505 0.85692 0.9318 0.0
H4217 H 0.30621 0.88151 0.88224 0.0
H4218 H 0.3017 0.80064 0.82748 0.0
H4219 H 0.30414 0.82657 0.85188 0.0
H4220 H 0.25659 0.82836 0.87427 0.0
C4221 C 0.28855 0.87133 0.93156 0.0
C4222 C 0.29507 0.87022 0.88053 0.0
C4223 C 0.29233 0.8826 0.94902 0.0
C4224 C 0.29039 0.80693 0.82868 0.0
C4225 C 0.29173 0.82163 0.84253 0.0
C4226 C 0.26712 0.84022 0.87576 0.0
C4227 C 0.28912 0.8787 0.91401 0.0
C4228 C 0.28468 0.86691 0.8955 0.0
C4229 C 0.27687 0.82918 0.84506 0.0
C4230 C 0.27809 0.84318 0.86126 0.0
H4231 H 0.30143 0.9231 0.93162 0.0
H4232 H 0.29443 0.90346 0.90091 0.0
H4233 H 0.26204 0.84934 0.90407 0.0
H4234 H 0.24697 0.80218 0.81021 0.0
H4235 H 0.24916 0.82789 0.83518 0.0
C4236 C 0.92833 0.52675 0.75703 0.0
C4237 C 0.91061 0.51798 0.75645 0.0
C4238 C 0.93672 0.52563 0.74042 0.0
C4239 C 0.93292 0.49851 0.69318 0.0
H4240 H 0.96241 0.5413 0.67933 0.0
C4241 C 0.96257 0.49461 0.62376 0.0
C4242 C 0.98091 0.49639 0.62844 0.0
C4243 C 0.9528 0.50164 0.63706 0.0
C4244 C 0.95398 0.52939 0.68301 0.0
H4245 H 0.88804 0.50034 0.7386 0.0
H4246 H 0.90245 0.49873 0.70983 0.0
H4247 H 0.94835 0.5432 0.70901 0.0
H4248 H 0.00387 0.50847 0.64918 0.0
H4249 H 0.98671 0.52084 0.67261 0.0
H4250 H 0.9385 0.4847 0.66732 0.0
C4251 C 0.90995 0.50644 0.72292 0.0
C4252 C 0.9462 0.53037 0.70002 0.0
C4253 C 0.90165 0.5075 0.73939 0.0
C4254 C 0.98965 0.50668 0.64563 0.0
C4255 C 0.97992 0.51396 0.65879 0.0
C4256 C 0.94041 0.49762 0.67611 0.0
C4257 C 0.92746 0.51567 0.72318 0.0
C4258 C 0.93579 0.51486 0.70532 0.0
C4259 C 0.96138 0.5107 0.65496 0.0
C4260 C 0.95115 0.51296 0.67106 0.0
H4261 H 0.93554 0.53477 0.77009 0.0
H4262 H 0.95038 0.53259 0.74104 0.0
H4263 H 0.92522 0.48628 0.69707 0.0
H4264 H 0.95572 0.48689 0.61036 0.0
H4265 H 0.93848 0.49901 0.63394 0.0
C4266 C 0.25005 0.17251 0.43749 0.0
C4267 C 0.25751 0.17984 0.45639 0.0
C4268 C 0.25374 0.18202 0.42194 0.0
C4269 C 0.28637 0.21923 0.40772 0.0
H4270 H 0.25136 0.21244 0.36241 0.0
C4271 C 0.29165 0.25877 0.34087 0.0
C4272 C 0.28543 0.2488 0.32263 0.0
C4273 C 0.2904 0.25062 0.35778 0.0
C4274 C 0.26133 0.2143 0.37489 0.0
H4275 H 0.27406 0.20331 0.47394 0.0
H4276 H 0.28004 0.22026 0.44678 0.0
H4277 H 0.24333 0.19939 0.39123 0.0
H4278 H 0.27525 0.22171 0.30794 0.0
H4279 H 0.27286 0.20758 0.33744 0.0
H4280 H 0.30415 0.23476 0.39128 0.0
C4281 C 0.27177 0.20689 0.4439 0.0
C4282 C 0.25675 0.20681 0.39144 0.0
C4283 C 0.26825 0.19723 0.45949 0.0
C4284 C 0.27972 0.23002 0.32168 0.0
C4285 C 0.27827 0.22189 0.33859 0.0
C4286 C 0.29087 0.227 0.39118 0.0
C4287 C 0.26477 0.19928 0.42487 0.0
C4288 C 0.26929 0.20882 0.40796 0.0
C4289 C 0.28293 0.23226 0.35679 0.0
C4290 C 0.27847 0.22428 0.3745 0.0
H4291 H 0.24178 0.15913 0.43457 0.0
H4292 H 0.24835 0.17551 0.40753 0.0
H4293 H 0.29645 0.22097 0.42007 0.0
H4294 H 0.29686 0.27298 0.34227 0.0
H4295 H 0.29431 0.25891 0.37162 0.0
C4296 C 0.30959 0.58221 0.54675 0.0
C4297 C 0.31361 0.60012 0.55555 0.0
C4298 C 0.32307 0.57301 0.54397 0.0
C4299 C 0.37014 0.57273 0.55577 0.0
H4300 H 0.36569 0.5544 0.50143 0.0
C4301 C 0.42618 0.55993 0.51127 0.0
C4302 C 0.42189 0.54477 0.49733 0.0
C4303 C 0.41363 0.56373 0.52306 0.0
C4304 C 0.36693 0.55909 0.51673 0.0
H4305 H 0.33462 0.62204 0.56971 0.0
H4306 H 0.3584 0.60586 0.56452 0.0
H4307 H 0.34205 0.56705 0.51364 0.0
H4308 H 0.40244 0.52075 0.48561 0.0
H4309 H 0.38027 0.52749 0.50606 0.0
H4310 H 0.39558 0.56534 0.55844 0.0
C4311 C 0.34478 0.59901 0.55994 0.0
C4312 C 0.35344 0.56634 0.5237 0.0
C4313 C 0.33122 0.60827 0.56276 0.0
C4314 C 0.40566 0.53271 0.49612 0.0
C4315 C 0.39315 0.53647 0.50784 0.0
C4316 C 0.38379 0.56548 0.54872 0.0
C4317 C 0.34077 0.58157 0.5499 0.0
C4318 C 0.35492 0.57319 0.54324 0.0
C4319 C 0.39681 0.55237 0.52081 0.0
C4320 C 0.38219 0.55863 0.52914 0.0
H4321 H 0.2961 0.5755 0.54122 0.0
H4322 H 0.31972 0.55947 0.53636 0.0
H4323 H 0.37149 0.57804 0.57089 0.0
H4324 H 0.4389 0.5691 0.5125 0.0
H4325 H 0.41664 0.57609 0.53295 0.0
C4326 C 0.85327 0.91247 0.55812 0.0
C4327 C 0.83809 0.91316 0.5456 0.0
C4328 C 0.86964 0.92329 0.55648 0.0
C4329 C 0.89398 0.9493 0.52241 0.0
H4330 H 0.92509 0.97202 0.56892 0.0
C4331 C 0.95816 0.00163 0.52046 0.0
C4332 C 0.97333 0.99952 0.53214 0.0
C4333 C 0.94147 0.99163 0.52236 0.0
C4334 C 0.91661 0.96564 0.55581 0.0
H4335 H 0.82822 0.92571 0.52143 0.0
H4336 H 0.85675 0.94473 0.51874 0.0
H4337 H 0.89632 0.95341 0.57154 0.0
H4338 H 0.98287 0.98553 0.55519 0.0
H4339 H 0.95371 0.96809 0.55853 0.0
H4340 H 0.9143 0.96161 0.5067 0.0
C4341 C 0.85604 0.9357 0.52971 0.0
C4342 C 0.90014 0.95495 0.5573 0.0
C4343 C 0.83965 0.92488 0.53136 0.0
C4344 C 0.97142 0.98747 0.54601 0.0
C4345 C 0.95471 0.97755 0.54798 0.0
C4346 C 0.91044 0.96005 0.52092 0.0
C4347 C 0.87122 0.93504 0.54227 0.0
C4348 C 0.88865 0.9466 0.54063 0.0
C4349 C 0.93958 0.97938 0.53604 0.0
C4350 C 0.92195 0.96829 0.53761 0.0
H4351 H 0.85255 0.90352 0.56918 0.0
H4352 H 0.88112 0.92225 0.5662 0.0
H4353 H 0.88558 0.94285 0.50928 0.0
H4354 H 0.95921 0.01068 0.5095 0.0
H4355 H 0.93003 0.99347 0.51309 0.0
C4356 C 0.87744 0.05821 0.25116 0.0
C4357 C 0.89588 0.06242 0.25672 0.0
C4358 C 0.86762 0.07178 0.25175 0.0
C4359 C 0.86982 0.11637 0.27747 0.0
H4360 H 0.83112 0.11944 0.2389 0.0
C4361 C 0.83456 0.17435 0.28684 0.0
C4362 C 0.81621 0.16895 0.28642 0.0
C4363 C 0.84424 0.16249 0.27887 0.0
C4364 C 0.84192 0.1187 0.24973 0.0
H4365 H 0.91858 0.08418 0.26641 0.0
H4366 H 0.90149 0.10777 0.26733 0.0
H4367 H 0.84819 0.09578 0.23367 0.0
H4368 H 0.79321 0.1478 0.27643 0.0
H4369 H 0.81017 0.12684 0.26244 0.0
H4370 H 0.86348 0.1389 0.29374 0.0
C4371 C 0.89459 0.09399 0.26279 0.0
C4372 C 0.85161 0.10517 0.24679 0.0
C4373 C 0.90438 0.08047 0.26219 0.0
C4374 C 0.8074 0.15214 0.2767 0.0
C4375 C 0.81709 0.14023 0.26871 0.0
C4376 C 0.86022 0.12982 0.28036 0.0
C4377 C 0.87609 0.08975 0.25795 0.0
C4378 C 0.8657 0.10397 0.26064 0.0
C4379 C 0.83568 0.14503 0.27056 0.0
C4380 C 0.84624 0.1312 0.26652 0.0
H4381 H 0.87053 0.0444 0.24679 0.0
H4382 H 0.85335 0.06813 0.24805 0.0
H4383 H 0.88028 0.11547 0.28864 0.0
H4384 H 0.84152 0.18728 0.29441 0.0
H4385 H 0.85854 0.16659 0.28022 0.0
C4386 C 0.70801 0.08268 0.03042 0.0
C4387 C 0.71408 0.08721 0.05022 0.0
C4388 C 0.69014 0.07642 0.02418 0.0
C4389 C 0.64727 0.07787 0.04078 0.0
H4390 H 0.62943 0.04375 0.99482 0.0
C4391 C 0.57469 0.05472 0.02444 0.0
C4392 C 0.57024 0.03596 0.02287 0.0
C4393 C 0.5911 0.06304 0.02008 0.0
C4394 C 0.63425 0.05341 0.00758 0.0
H4395 H 0.70658 0.08725 0.07915 0.0
H4396 H 0.67517 0.07528 0.0682 0.0
H4397 H 0.66102 0.0511 0.0059 0.0
H4398 H 0.57808 0.01088 0.01451 0.0
H4399 H 0.60731 0.02524 0.00821 0.0
H4400 H 0.62052 0.07891 0.04365 0.0
C4401 C 0.68423 0.07737 0.05751 0.0
C4402 C 0.65233 0.05766 0.01391 0.0
C4403 C 0.70218 0.084 0.06379 0.0
C4404 C 0.58157 0.02545 0.01576 0.0
C4405 C 0.59814 0.03373 0.01186 0.0
C4406 C 0.6292 0.07329 0.03474 0.0
C4407 C 0.67802 0.07418 0.03762 0.0
C4408 C 0.65894 0.06967 0.03078 0.0
C4409 C 0.60344 0.05259 0.01518 0.0
C4410 C 0.62247 0.06066 0.01836 0.0
H4411 H 0.71689 0.08488 0.01958 0.0
H4412 H 0.68579 0.07426 0.00879 0.0
H4413 H 0.65203 0.08759 0.0535 0.0
H4414 H 0.56601 0.06294 0.03009 0.0
H4415 H 0.59473 0.0776 0.0223 0.0
C4416 C 0.17567 0.46411 0.24115 0.0
C4417 C 0.18223 0.47839 0.23108 0.0
C4418 C 0.18621 0.45199 0.24589 0.0
C4419 C 0.22192 0.43077 0.23798 0.0
H4420 H 0.23359 0.43871 0.2938 0.0
C4421 C 0.26882 0.39356 0.28061 0.0
C4422 C 0.26309 0.38788 0.29768 0.0
C4423 C 0.25997 0.40476 0.27056 0.0
C4424 C 0.23035 0.43625 0.27823 0.0
H4425 H 0.20398 0.49032 0.21633 0.0
H4426 H 0.22233 0.46859 0.22434 0.0
H4427 H 0.21542 0.45705 0.27787 0.0
H4428 H 0.24333 0.38817 0.31723 0.0
H4429 H 0.22751 0.40744 0.29949 0.0
H4430 H 0.2363 0.40946 0.2384 0.0
C4431 C 0.20916 0.46702 0.22866 0.0
C4432 C 0.22008 0.44677 0.26917 0.0
C4433 C 0.19871 0.47936 0.22414 0.0
C4434 C 0.24819 0.39296 0.30437 0.0
C4435 C 0.23921 0.40393 0.29423 0.0
C4436 C 0.23209 0.42004 0.24709 0.0
C4437 C 0.20322 0.45383 0.24028 0.0
C4438 C 0.21549 0.44378 0.2491 0.0
C4439 C 0.24519 0.41016 0.27741 0.0
C4440 C 0.23599 0.42244 0.26735 0.0
H4441 H 0.16309 0.46319 0.24682 0.0
H4442 H 0.18155 0.44185 0.25496 0.0
H4443 H 0.21849 0.42847 0.22242 0.0
H4444 H 0.28017 0.38939 0.27516 0.0
H4445 H 0.26482 0.40939 0.25763 0.0
C4446 C 0.21806 0.39445 0.02374 0.0
C4447 C 0.23493 0.40268 0.03328 0.0
C4448 C 0.20459 0.40415 0.02234 0.0
C4449 C 0.18837 0.4428 0.04242 0.0
H4450 H 0.1675 0.44224 0.98955 0.0
C4451 C 0.14225 0.48999 0.0169 0.0
C4452 C 0.12873 0.48247 0.00178 0.0
C4453 C 0.15425 0.47977 0.02354 0.0
C4454 C 0.17295 0.44229 0.00443 0.0
H4455 H 0.25077 0.42717 0.04974 0.0
H4456 H 0.22694 0.44413 0.04745 0.0
H4457 H 0.19062 0.42546 0.99617 0.0
H4458 H 0.11595 0.45839 0.98268 0.0
H4459 H 0.1367 0.44031 0.99445 0.0
H4460 H 0.17051 0.45969 0.05063 0.0
C4461 C 0.22429 0.43022 0.04098 0.0
C4462 C 0.18623 0.43276 0.00819 0.0
C4463 C 0.2379 0.42057 0.04213 0.0
C4464 C 0.12655 0.46441 0.99415 0.0
C4465 C 0.13842 0.45416 0.00086 0.0
C4466 C 0.17488 0.45231 0.03867 0.0
C4467 C 0.20767 0.42216 0.03069 0.0
C4468 C 0.19393 0.43278 0.02718 0.0
C4469 C 0.15276 0.46193 0.01511 0.0
C4470 C 0.16694 0.45195 0.01962 0.0
H4471 H 0.21541 0.38069 0.0168 0.0
H4472 H 0.19181 0.39767 0.01442 0.0
H4473 H 0.1942 0.44298 0.05719 0.0
H4474 H 0.14388 0.50392 0.02302 0.0
H4475 H 0.16517 0.48609 0.03453 0.0
C4476 C 0.87374 0.95696 0.26102 0.0
C4477 C 0.88738 0.95774 0.24923 0.0
C4478 C 0.86231 0.94064 0.26197 0.0
C4479 C 0.85909 0.89171 0.25317 0.0
H4480 H 0.80875 0.88965 0.25391 0.0
C4481 C 0.80945 0.82464 0.24676 0.0
C4482 C 0.79713 0.82337 0.26012 0.0
C4483 C 0.8197 0.84128 0.24467 0.0
C4484 C 0.82279 0.89008 0.25385 0.0
H4485 H 0.89964 0.94212 0.22905 0.0
H4486 H 0.8795 0.91365 0.23048 0.0
H4487 H 0.82838 0.91835 0.2518 0.0
H4488 H 0.78557 0.8385 0.28148 0.0
H4489 H 0.80354 0.86765 0.27777 0.0
H4490 H 0.85351 0.86346 0.25521 0.0
C4491 C 0.87784 0.92561 0.23923 0.0
C4492 C 0.83403 0.90648 0.25268 0.0
C4493 C 0.88931 0.94192 0.23834 0.0
C4494 C 0.79486 0.83911 0.27094 0.0
C4495 C 0.80513 0.85578 0.26882 0.0
C4496 C 0.84786 0.87533 0.25428 0.0
C4497 C 0.86426 0.9248 0.25111 0.0
C4498 C 0.85229 0.90744 0.2523 0.0
C4499 C 0.81784 0.85696 0.25589 0.0
C4500 C 0.82961 0.87436 0.25459 0.0
H4501 H 0.87196 0.96892 0.26967 0.0
H4502 H 0.85214 0.94039 0.27147 0.0
H4503 H 0.87314 0.89209 0.25329 0.0
H4504 H 0.81137 0.81275 0.2381 0.0
H4505 H 0.82921 0.84187 0.23436 0.0
C4506 C 0.70616 0.08632 0.76157 0.0
C4507 C 0.70167 0.07967 0.7419 0.0
C4508 C 0.71305 0.10439 0.76722 0.0
C4509 C 0.71533 0.14824 0.75027 0.0
H4510 H 0.75068 0.16344 0.79541 0.0
C4511 C 0.7414 0.2212 0.76964 0.0
C4512 C 0.7598 0.22496 0.77004 0.0
C4513 C 0.73291 0.20448 0.77357 0.0
C4514 C 0.74071 0.15937 0.7829 0.0
H4515 H 0.7014 0.0865 0.71262 0.0
H4516 H 0.71438 0.11844 0.7226 0.0
H4517 H 0.74095 0.13161 0.7838 0.0
H4518 H 0.78418 0.21565 0.7762 0.0
H4519 H 0.76941 0.18593 0.78193 0.0
H4520 H 0.71621 0.17598 0.74828 0.0
C4521 C 0.71202 0.10957 0.73359 0.0
C4522 C 0.73511 0.14118 0.77625 0.0
C4523 C 0.70477 0.09135 0.72788 0.0
C4524 C 0.76988 0.2127 0.77588 0.0
C4525 C 0.76141 0.19585 0.7794 0.0
C4526 C 0.72121 0.16643 0.75666 0.0
C4527 C 0.71598 0.11621 0.75336 0.0
C4528 C 0.72243 0.13548 0.75984 0.0
C4529 C 0.74279 0.19123 0.77691 0.0
C4530 C 0.73411 0.17216 0.7729 0.0
H4531 H 0.70378 0.07771 0.77279 0.0
H4532 H 0.71554 0.10916 0.78253 0.0
H4533 H 0.70531 0.1442 0.7378 0.0
H4534 H 0.73347 0.23053 0.76486 0.0
H4535 H 0.71855 0.20131 0.77199 0.0
loop_
_geom_bond_atom_site_label_1
_geom_bond_atom_site_label_2
_geom_bond_distance
_geom_bond_site_symmetry_2
_ccdc_geom_bond_type
C0 O1 1.160 . S
C0 O7 1.185 . S
O1 C0 1.160 . S
O2 Zn3 1.899 . S
O2 C10 1.284 . S
Zn3 O2 1.899 . S
Zn3 O4 2.032 . S
Zn3 O7 2.086 . S
Zn3 O12 1.977 . S
O4 Zn3 2.032 . S
O4 C8 1.278 . S
C5 O6 1.203 . S
C5 O12 1.267 1_655 S
O6 C5 1.203 . S
O7 C0 1.185 . S
O7 Zn3 2.086 . S
C8 O4 1.278 . S
C8 O9 1.211 . S
O9 C8 1.211 . S
C10 O2 1.284 . S
C10 O11 1.273 . S
O11 C10 1.273 . S
O12 Zn3 1.977 . S
O12 C5 1.267 1_455 S
C13 O14 1.160 . S
C13 O20 1.185 . S
O14 C13 1.160 . S
O15 Zn16 1.899 . S
O15 C23 1.284 . S
Zn16 O15 1.899 . S
Zn16 O17 2.032 . S
Zn16 O20 2.086 1_455 S
Zn16 O25 1.977 . S
O17 Zn16 2.032 . S
O17 C21 1.278 . S
C18 O19 1.203 . S
C18 O25 1.267 . S
O19 C18 1.203 . S
O20 C13 1.185 . S
O20 Zn16 2.086 1_655 S
C21 O17 1.278 . S
C21 O22 1.211 . S
O22 C21 1.211 . S
C23 O15 1.284 . S
C23 O24 1.273 . S
O24 C23 1.273 . S
O25 Zn16 1.977 . S
O25 C18 1.267 . S
C26 O27 1.160 . S
C26 O33 1.185 . S
O27 C26 1.160 . S
O28 Zn29 1.899 . S
O28 C36 1.284 . S
Zn29 O28 1.899 . S
Zn29 O30 2.032 . S
Zn29 O33 2.086 . S
Zn29 O38 1.977 . S
O30 Zn29 2.032 . S
O30 C34 1.278 . S
C31 O32 1.203 . S
C31 O38 1.267 . S
O32 C31 1.203 . S
O33 C26 1.185 . S
O33 Zn29 2.086 . S
C34 O30 1.278 . S
C34 O35 1.211 . S
O35 C34 1.211 . S
C36 O28 1.284 . S
C36 O37 1.273 . S
O37 C36 1.273 . S
O38 Zn29 1.977 . S
O38 C31 1.267 . S
C39 O40 1.160 . S
C39 O46 1.185 . S
O40 C39 1.160 . S
O41 Zn42 1.899 . S
O41 C49 1.284 . S
Zn42 O41 1.899 . S
Zn42 O43 2.032 . S
Zn42 O46 2.086 . S
Zn42 O51 1.977 . S
O43 Zn42 2.032 . S
O43 C47 1.278 . S
C44 O45 1.203 . S
C44 O51 1.267 . S
O45 C44 1.203 . S
O46 C39 1.185 . S
O46 Zn42 2.086 . S
C47 O43 1.278 . S
C47 O48 1.211 . S
O48 C47 1.211 . S
C49 O41 1.284 . S
C49 O50 1.273 . S
O50 C49 1.273 . S
O51 Zn42 1.977 . S
O51 C44 1.267 . S
C52 O53 1.160 . S
C52 O59 1.185 . S
O53 C52 1.160 . S
O54 Zn55 1.899 . S
O54 C62 1.284 . S
Zn55 O54 1.899 . S
Zn55 O56 2.032 . S
Zn55 O59 2.086 . S
Zn55 O64 1.977 . S
O56 Zn55 2.032 . S
O56 C60 1.278 . S
C57 O58 1.203 . S
C57 O64 1.267 . S
O58 C57 1.203 . S
O59 C52 1.185 . S
O59 Zn55 2.086 . S
C60 O56 1.278 . S
C60 O61 1.211 . S
O61 C60 1.211 . S
C62 O54 1.284 . S
C62 O63 1.273 . S
O63 C62 1.273 . S
O64 Zn55 1.977 . S
O64 C57 1.267 . S
C65 O66 1.160 . S
C65 O72 1.185 . S
O66 C65 1.160 . S
O67 Zn68 1.899 . S
O67 C75 1.284 . S
Zn68 O67 1.899 . S
Zn68 O69 2.032 . S
Zn68 O72 2.086 . S
Zn68 O77 1.977 . S
O69 Zn68 2.032 . S
O69 C73 1.278 . S
C70 O71 1.203 . S
C70 O77 1.267 . S
O71 C70 1.203 . S
O72 C65 1.185 . S
O72 Zn68 2.086 . S
C73 O69 1.278 . S
C73 O74 1.211 . S
O74 C73 1.211 . S
C75 O67 1.284 . S
C75 O76 1.273 . S
O76 C75 1.273 . S
O77 Zn68 1.977 . S
O77 C70 1.267 . S
C78 O79 1.160 . S
C78 O85 1.185 . S
O79 C78 1.160 . S
O80 Zn81 1.899 . S
O80 C88 1.284 . S
Zn81 O80 1.899 . S
Zn81 O82 2.032 . S
Zn81 O85 2.086 . S
Zn81 O90 1.977 . S
O82 Zn81 2.032 . S
O82 C86 1.278 . S
C83 O84 1.203 . S
C83 O90 1.267 . S
O84 C83 1.203 . S
O85 C78 1.185 . S
O85 Zn81 2.086 . S
C86 O82 1.278 . S
C86 O87 1.211 . S
O87 C86 1.211 . S
C88 O80 1.284 . S
C88 O89 1.273 . S
O89 C88 1.273 . S
O90 Zn81 1.977 . S
O90 C83 1.267 . S
C91 O92 1.160 . S
C91 O98 1.185 . S
O92 C91 1.160 . S
O93 Zn94 1.900 . S
O93 C101 1.285 1_455 S
Zn94 O93 1.900 . S
Zn94 O95 2.032 . S
Zn94 O98 2.086 . S
Zn94 O103 1.977 1_455 S
O95 Zn94 2.032 . S
O95 C99 1.278 . S
C96 O97 1.203 . S
C96 O103 1.267 . S
O97 C96 1.203 . S
O98 C91 1.185 . S
O98 Zn94 2.086 . S
C99 O95 1.278 . S
C99 O100 1.211 1_455 S
O100 C99 1.211 1_655 S
C101 O93 1.285 1_655 S
C101 O102 1.273 . S
O102 C101 1.273 . S
O103 Zn94 1.977 1_655 S
O103 C96 1.267 . S
C104 O105 1.160 . S
C104 O111 1.185 . S
O105 C104 1.160 . S
O106 Zn107 1.899 . S
O106 C114 1.284 . S
Zn107 O106 1.899 . S
Zn107 O108 2.032 . S
Zn107 O111 2.086 . S
Zn107 O116 1.977 1_545 S
O108 Zn107 2.032 . S
O108 C112 1.278 . S
C109 O110 1.203 . S
C109 O116 1.267 . S
O110 C109 1.203 . S
O111 C104 1.185 . S
O111 Zn107 2.086 . S
C112 O108 1.278 . S
C112 O113 1.211 1_545 S
O113 C112 1.211 1_565 S
C114 O106 1.284 . S
C114 O115 1.273 . S
O115 C114 1.273 . S
O116 Zn107 1.977 1_565 S
O116 C109 1.267 . S
C117 O118 1.160 . S
C117 O124 1.185 . S
O118 C117 1.160 . S
O119 Zn120 1.899 . S
O119 C127 1.284 . S
Zn120 O119 1.899 . S
Zn120 O121 2.032 . S
Zn120 O124 2.086 . S
Zn120 O129 1.977 . S
O121 Zn120 2.032 . S
O121 C125 1.278 . S
C122 O123 1.203 . S
C122 O129 1.267 . S
O123 C122 1.203 . S
O124 C117 1.185 . S
O124 Zn120 2.086 . S
C125 O121 1.278 . S
C125 O126 1.211 . S
O126 C125 1.211 . S
C127 O119 1.284 . S
C127 O128 1.273 . S
O128 C127 1.273 . S
O129 Zn120 1.977 . S
O129 C122 1.267 . S
C130 O131 1.164 . S
C130 O137 1.165 1_565 S
O131 C130 1.164 . S
O132 Zn133 1.899 . S
O132 C140 1.284 . S
Zn133 O132 1.899 . S
Zn133 O134 2.032 . S
Zn133 O137 2.086 . S
Zn133 O142 1.977 . S
O134 Zn133 2.032 . S
O134 C138 1.278 . S
C135 O136 1.203 . S
C135 O142 1.267 . S
O136 C135 1.203 . S
O137 C130 1.165 1_545 S
O137 Zn133 2.086 . S
C138 O134 1.278 . S
C138 O139 1.211 . S
O139 C138 1.211 . S
C140 O132 1.284 . S
C140 O141 1.273 . S
O141 C140 1.273 . S
O142 Zn133 1.977 . S
O142 C135 1.267 . S
C143 O144 1.160 . S
C143 O150 1.185 1_554 S
O144 C143 1.160 . S
O145 Zn146 1.899 . S
O145 C153 1.284 . S
Zn146 O145 1.899 . S
Zn146 O147 2.032 1_554 S
Zn146 O150 2.086 1_554 S
Zn146 O155 1.981 . S
O147 Zn146 2.032 1_556 S
O147 C151 1.278 . S
C148 O149 1.203 . S
C148 O155 1.270 . S
O149 C148 1.203 . S
O150 C143 1.185 1_556 S
O150 Zn146 2.086 1_556 S
C151 O147 1.278 . S
C151 O152 1.211 . S
O152 C151 1.211 . S
C153 O145 1.284 . S
C153 O154 1.273 . S
O154 C153 1.273 . S
O155 Zn146 1.981 . S
O155 C148 1.270 . S
C156 O157 1.160 . S
C156 O163 1.185 . S
O157 C156 1.160 . S
O158 Zn159 1.899 . S
O158 C166 1.284 . S
Zn159 O158 1.899 . S
Zn159 O160 2.032 . S
Zn159 O163 2.086 . S
Zn159 O168 1.977 . S
O160 Zn159 2.032 . S
O160 C164 1.278 . S
C161 O162 1.203 . S
C161 O168 1.267 . S
O162 C161 1.203 . S
O163 C156 1.185 . S
O163 Zn159 2.086 . S
C164 O160 1.278 . S
C164 O165 1.211 . S
O165 C164 1.211 . S
C166 O158 1.284 . S
C166 O167 1.273 . S
O167 C166 1.273 . S
O168 Zn159 1.977 . S
O168 C161 1.267 . S
C169 O170 1.160 . S
C169 O176 1.185 . S
O170 C169 1.160 . S
O171 Zn172 1.899 . S
O171 C179 1.284 . S
Zn172 O171 1.899 . S
Zn172 O173 2.032 . S
Zn172 O176 2.086 . S
Zn172 O181 1.977 . S
O173 Zn172 2.032 . S
O173 C177 1.278 . S
C174 O175 1.203 . S
C174 O181 1.267 . S
O175 C174 1.203 . S
O176 C169 1.185 . S
O176 Zn172 2.086 . S
C177 O173 1.278 . S
C177 O178 1.211 . S
O178 C177 1.211 . S
C179 O171 1.284 . S
C179 O180 1.273 . S
O180 C179 1.273 . S
O181 Zn172 1.977 . S
O181 C174 1.267 . S
C182 O183 1.160 . S
C182 O189 1.185 . S
O183 C182 1.160 . S
O184 Zn185 1.899 . S
O184 C192 1.284 . S
Zn185 O184 1.899 . S
Zn185 O186 2.032 . S
Zn185 O189 2.086 . S
Zn185 O194 1.977 . S
O186 Zn185 2.032 . S
O186 C190 1.278 . S
C187 O188 1.203 . S
C187 O194 1.267 . S
O188 C187 1.203 . S
O189 C182 1.185 . S
O189 Zn185 2.086 . S
C190 O186 1.278 . S
C190 O191 1.211 . S
O191 C190 1.211 . S
C192 O184 1.284 . S
C192 O193 1.273 . S
O193 C192 1.273 . S
O194 Zn185 1.977 . S
O194 C187 1.267 . S
C195 O196 1.160 . S
C195 O202 1.185 . S
O196 C195 1.160 . S
O197 Zn198 1.899 . S
O197 C205 1.284 . S
Zn198 O197 1.899 . S
Zn198 O199 2.032 . S
Zn198 O202 2.086 . S
Zn198 O207 1.977 . S
O199 Zn198 2.032 . S
O199 C203 1.278 . S
C200 O201 1.203 . S
C200 O207 1.267 . S
O201 C200 1.203 . S
O202 C195 1.185 . S
O202 Zn198 2.086 . S
C203 O199 1.278 . S
C203 O204 1.211 . S
O204 C203 1.211 . S
C205 O197 1.284 . S
C205 O206 1.273 . S
O206 C205 1.273 . S
O207 Zn198 1.977 . S
O207 C200 1.267 . S
C208 O209 1.160 . S
C208 O215 1.185 . S
O209 C208 1.160 . S
O210 Zn211 1.899 . S
O210 C218 1.284 . S
Zn211 O210 1.899 . S
Zn211 O212 2.032 . S
Zn211 O215 2.086 . S
Zn211 O220 1.977 1_545 S
O212 Zn211 2.032 . S
O212 C216 1.278 . S
C213 O214 1.203 . S
C213 O220 1.267 . S
O214 C213 1.203 . S
O215 C208 1.185 . S
O215 Zn211 2.086 . S
C216 O212 1.278 . S
C216 O217 1.211 1_545 S
O217 C216 1.211 1_565 S
C218 O210 1.284 . S
C218 O219 1.273 . S
O219 C218 1.273 . S
O220 Zn211 1.977 1_565 S
O220 C213 1.267 . S
C221 O222 1.160 . S
C221 O228 1.185 . S
O222 C221 1.160 . S
O223 Zn224 1.899 . S
O223 C231 1.284 . S
Zn224 O223 1.899 . S
Zn224 O225 2.032 . S
Zn224 O228 2.086 . S
Zn224 O233 1.977 . S
O225 Zn224 2.032 . S
O225 C229 1.278 . S
C226 O227 1.203 . S
C226 O233 1.267 . S
O227 C226 1.203 . S
O228 C221 1.185 . S
O228 Zn224 2.086 . S
C229 O225 1.278 . S
C229 O230 1.211 . S
O230 C229 1.211 . S
C231 O223 1.284 . S
C231 O232 1.273 . S
O232 C231 1.273 . S
O233 Zn224 1.977 . S
O233 C226 1.267 . S
C234 O235 1.160 . S
C234 O241 1.185 . S
O235 C234 1.160 . S
O236 Zn237 1.899 . S
O236 C244 1.284 . S
Zn237 O236 1.899 . S
Zn237 O238 2.032 . S
Zn237 O241 2.086 . S
Zn237 O246 1.977 . S
O238 Zn237 2.032 . S
O238 C242 1.278 . S
C239 O240 1.203 . S
C239 O246 1.267 . S
O240 C239 1.203 . S
O241 C234 1.185 . S
O241 Zn237 2.086 . S
C242 O238 1.278 . S
C242 O243 1.211 . S
O243 C242 1.211 . S
C244 O236 1.284 . S
C244 O245 1.273 . S
O245 C244 1.273 . S
O246 Zn237 1.977 . S
O246 C239 1.267 . S
C247 O248 1.155 1_545 S
C247 O254 1.185 . S
O248 C247 1.155 1_565 S
O249 Zn250 1.899 . S
O249 C257 1.284 . S
Zn250 O249 1.899 . S
Zn250 O251 2.032 . S
Zn250 O254 2.086 . S
Zn250 O259 1.977 . S
O251 Zn250 2.032 . S
O251 C255 1.278 . S
C252 O253 1.203 . S
C252 O259 1.267 . S
O253 C252 1.203 . S
O254 C247 1.185 . S
O254 Zn250 2.086 . S
C255 O251 1.278 . S
C255 O256 1.211 . S
O256 C255 1.211 . S
C257 O249 1.284 . S
C257 O258 1.273 . S
O258 C257 1.273 . S
O259 Zn250 1.977 . S
O259 C252 1.267 . S
C260 O261 1.160 . S
C260 O267 1.185 . S
O261 C260 1.160 . S
O262 Zn263 1.899 . S
O262 C270 1.284 . S
Zn263 O262 1.899 . S
Zn263 O264 2.032 1_554 S
Zn263 O267 2.086 . S
Zn263 O272 1.977 . S
O264 Zn263 2.032 1_556 S
O264 C268 1.278 . S
C265 O266 1.203 . S
C265 O272 1.267 . S
O266 C265 1.203 . S
O267 C260 1.185 . S
O267 Zn263 2.086 . S
C268 O264 1.278 . S
C268 O269 1.211 . S
O269 C268 1.211 . S
C270 O262 1.284 . S
C270 O271 1.273 . S
O271 C270 1.273 . S
O272 Zn263 1.977 . S
O272 C265 1.267 . S
C273 O274 1.160 . S
C273 O280 1.185 . S
O274 C273 1.160 . S
O275 Zn276 1.899 . S
O275 C283 1.284 . S
Zn276 O275 1.899 . S
Zn276 O277 2.032 . S
Zn276 O280 2.086 . S
Zn276 O285 1.977 . S
O277 Zn276 2.032 . S
O277 C281 1.278 . S
C278 O279 1.203 . S
C278 O285 1.267 . S
O279 C278 1.203 . S
O280 C273 1.185 . S
O280 Zn276 2.086 . S
C281 O277 1.278 . S
C281 O282 1.211 . S
O282 C281 1.211 . S
C283 O275 1.284 . S
C283 O284 1.273 . S
O284 C283 1.273 . S
O285 Zn276 1.977 . S
O285 C278 1.267 . S
C286 O287 1.160 . S
C286 O293 1.185 . S
O287 C286 1.160 . S
O288 Zn289 1.899 . S
O288 C296 1.284 . S
Zn289 O288 1.899 . S
Zn289 O290 2.032 . S
Zn289 O293 2.086 . S
Zn289 O298 1.977 . S
O290 Zn289 2.032 . S
O290 C294 1.278 . S
C291 O292 1.203 . S
C291 O298 1.267 . S
O292 C291 1.203 . S
O293 C286 1.185 . S
O293 Zn289 2.086 . S
C294 O290 1.278 . S
C294 O295 1.211 . S
O295 C294 1.211 . S
C296 O288 1.284 . S
C296 O297 1.273 . S
O297 C296 1.273 . S
O298 Zn289 1.977 . S
O298 C291 1.267 . S
C299 O300 1.160 . S
C299 O306 1.185 . S
O300 C299 1.160 . S
O301 Zn302 1.899 . S
O301 C309 1.284 . S
Zn302 O301 1.899 . S
Zn302 O303 2.032 . S
Zn302 O306 2.086 . S
Zn302 O311 1.977 . S
O303 Zn302 2.032 . S
O303 C307 1.278 . S
C304 O305 1.203 . S
C304 O311 1.267 . S
O305 C304 1.203 . S
O306 C299 1.185 . S
O306 Zn302 2.086 . S
C307 O303 1.278 . S
C307 O308 1.211 . S
O308 C307 1.211 . S
C309 O301 1.284 . S
C309 O310 1.273 . S
O310 C309 1.273 . S
O311 Zn302 1.977 . S
O311 C304 1.267 . S
Eu312 N341 2.600 . S
Eu312 N347 2.562 . S
Eu312 O356 2.462 . S
Eu312 O357 2.373 . S
Eu312 O359 2.432 . S
Eu312 O360 2.286 . S
Eu312 O364 2.335 1_545 S
Eu312 O367 2.372 . S
Eu312 C376 2.787 . S
C313 N314 1.365 . S
C313 C316 1.405 . S
C313 C320 1.430 1_556 S
N314 C313 1.365 . S
N314 C317 1.319 . S
N314 Eu323 2.600 1_566 S
C315 C317 1.397 . S
C315 C318 1.367 . S
C315 H335 0.931 . S
C316 C313 1.405 . S
C316 C318 1.403 . S
C316 C322 1.439 . S
C317 N314 1.319 . S
C317 C315 1.397 . S
C317 H328 0.930 . S
C318 C315 1.367 . S
C318 C316 1.403 . S
C318 H339 0.929 . S
C319 C320 1.437 . S
C319 C321 1.387 1_554 S
C319 C325 1.404 . S
C320 C313 1.430 1_554 S
C320 C319 1.437 . S
C320 N324 1.361 . S
C321 C319 1.387 1_556 S
C321 C322 1.374 . S
C321 H336 0.931 . S
C322 C316 1.439 . S
C322 C321 1.374 . S
C322 H337 0.931 . S
Eu323 N314 2.600 1_544 S
Eu323 N324 2.562 1_545 S
Eu323 O358 2.335 1_655 S
Eu323 O361 2.372 1_654 S
Eu323 O362 2.462 . S
Eu323 O363 2.373 1_645 S
Eu323 O365 2.432 1_554 S
Eu323 O366 2.291 1_655 S
Eu323 C387 2.787 1_554 S
N324 C320 1.361 . S
N324 Eu323 2.562 1_565 S
N324 C326 1.325 . S
C325 C319 1.404 . S
C325 C327 1.366 . S
C325 H333 0.930 . S
C326 N324 1.325 . S
C326 C327 1.416 . S
C326 H332 0.929 . S
C327 C325 1.366 . S
C327 C326 1.416 . S
C327 H329 0.930 . S
H328 C317 0.930 . S
H329 C327 0.930 . S
H330 C345 0.930 . S
H331 C352 0.930 . S
H332 C326 0.929 . S
H333 C325 0.930 . S
H334 C348 0.929 1_556 S
H335 C315 0.931 . S
H336 C321 0.931 . S
H337 C322 0.931 . S
H338 C343 0.931 . S
H339 C318 0.929 . S
H340 C351 0.930 . S
N341 Eu312 2.600 . S
N341 C342 1.365 . S
N341 C345 1.319 . S
C342 N341 1.365 . S
C342 C344 1.405 . S
C342 C350 1.448 . S
C343 H338 0.931 . S
C343 C345 1.397 . S
C343 C346 1.367 . S
C344 C342 1.405 . S
C344 C346 1.403 . S
C344 C377 1.439 . S
C345 H330 0.930 . S
C345 N341 1.319 . S
C345 C343 1.397 . S
C346 C343 1.367 . S
C346 C344 1.403 . S
C346 H353 0.929 . S
N347 Eu312 2.562 . S
N347 C348 1.325 . S
N347 C350 1.351 . S
C348 H334 0.929 1_554 S
C348 N347 1.325 . S
C348 C352 1.416 1_554 S
C349 C350 1.430 . S
C349 C351 1.404 . S
C349 C378 1.387 . S
C350 C342 1.448 . S
C350 N347 1.351 . S
C350 C349 1.430 . S
C351 H340 0.930 . S
C351 C349 1.404 . S
C351 C352 1.366 1_554 S
C352 H331 0.930 . S
C352 C348 1.416 1_556 S
C352 C351 1.366 1_556 S
H353 C346 0.929 . S
H354 C377 0.931 . S
H355 C378 0.931 . S
O356 Eu312 2.462 . S
O356 C376 1.252 . S
O357 Eu312 2.373 . S
O357 C368 1.249 . S
O358 Eu323 2.335 1_455 S
O358 C368 1.264 . S
O359 Eu312 2.432 . S
O359 C376 1.268 . S
O360 Eu312 2.286 . S
O360 C375 1.260 1_554 S
O361 Eu323 2.372 1_456 S
O361 C375 1.257 . S
O362 Eu323 2.462 . S
O362 C387 1.252 1_554 S
O363 Eu323 2.373 1_465 S
O363 C379 1.249 . S
O364 Eu312 2.335 1_565 S
O364 C379 1.264 . S
O365 Eu323 2.432 1_556 S
O365 C387 1.268 . S
O366 Eu323 2.291 1_455 S
O366 C386 1.255 . S
O367 Eu312 2.372 . S
O367 C386 1.257 . S
C368 O357 1.249 . S
C368 O358 1.264 . S
C369 C372 1.382 . S
C369 C374 1.390 . S
C369 C376 1.506 . S
C370 C371 1.398 . S
C370 C374 1.392 1_565 S
C371 C370 1.398 . S
C371 C373 1.372 1_565 S
C371 H388 0.931 . S
C372 C369 1.382 . S
C372 C373 1.390 . S
C372 H389 0.931 . S
C373 C371 1.372 1_545 S
C373 C372 1.390 . S
C373 H390 0.929 . S
C374 C369 1.390 . S
C374 C370 1.392 1_545 S
C374 H391 0.930 . S
C375 O360 1.260 1_556 S
C375 O361 1.257 . S
C376 Eu312 2.787 . S
C376 O356 1.252 . S
C376 O359 1.268 . S
C376 C369 1.506 . S
C377 C344 1.439 . S
C377 H354 0.931 . S
C377 C378 1.374 . S
C378 C349 1.387 . S
C378 H355 0.931 . S
C378 C377 1.374 . S
C379 O363 1.249 . S
C379 O364 1.264 . S
C380 C383 1.382 . S
C380 C384 1.390 1_556 S
C380 C387 1.506 . S
C381 C382 1.398 1_554 S
C381 C384 1.392 . S
C382 C381 1.398 1_556 S
C382 C385 1.372 . S
C382 H392 0.931 . S
C383 C380 1.382 . S
C383 C385 1.390 . S
C383 H393 0.931 . S
C384 C380 1.390 1_554 S
C384 C381 1.392 . S
C384 H394 0.930 . S
C385 C382 1.372 . S
C385 C383 1.390 . S
C385 H395 0.929 . S
C386 O366 1.255 . S
C386 O367 1.257 . S
C387 Eu323 2.787 1_556 S
C387 O362 1.252 1_556 S
C387 O365 1.268 . S
C387 C380 1.506 . S
H388 C371 0.931 . S
H389 C372 0.931 . S
H390 C373 0.929 . S
H391 C374 0.930 . S
H392 C382 0.931 . S
H393 C383 0.931 . S
H394 C384 0.930 . S
H395 C385 0.929 . S
Eu396 N425 2.600 . S
Eu396 N431 2.562 . S
Eu396 O440 2.462 . S
Eu396 O441 2.373 . S
Eu396 O443 2.432 . S
Eu396 O444 2.291 . S
Eu396 O448 2.335 . S
Eu396 O451 2.372 . S
Eu396 C460 2.787 . S
C397 N398 1.365 . S
C397 C400 1.405 . S
C397 C404 1.448 . S
N398 C397 1.365 . S
N398 C401 1.319 . S
N398 Eu407 2.600 . S
C399 C401 1.397 . S
C399 C402 1.367 . S
C399 H419 0.931 . S
C400 C397 1.405 . S
C400 C402 1.403 . S
C400 C406 1.439 . S
C401 N398 1.319 . S
C401 C399 1.397 . S
C401 H412 0.930 . S
C402 C399 1.367 . S
C402 C400 1.403 . S
C402 H423 0.929 . S
C403 C404 1.430 . S
C403 C405 1.387 . S
C403 C409 1.404 . S
C404 C397 1.448 . S
C404 C403 1.430 . S
C404 N408 1.351 . S
C405 C403 1.387 . S
C405 C406 1.374 . S
C405 H420 0.931 . S
C406 C400 1.439 . S
C406 C405 1.374 . S
C406 H421 0.931 . S
Eu407 N398 2.600 . S
Eu407 N408 2.562 . S
Eu407 O442 2.335 . S
Eu407 O445 2.372 . S
Eu407 O446 2.462 . S
Eu407 O447 2.373 . S
Eu407 O449 2.432 . S
Eu407 O450 2.291 . S
Eu407 C471 2.787 . S
N408 C404 1.351 . S
N408 Eu407 2.562 . S
N408 C410 1.325 . S
C409 C403 1.404 . S
C409 C411 1.366 . S
C409 H417 0.930 . S
C410 N408 1.325 . S
C410 C411 1.416 . S
C410 H416 0.929 . S
C411 C409 1.366 . S
C411 C410 1.416 . S
C411 H413 0.930 . S
H412 C401 0.930 . S
H413 C411 0.930 . S
H414 C429 0.930 . S
H415 C436 0.930 . S
H416 C410 0.929 . S
H417 C409 0.930 . S
H418 C432 0.929 . S
H419 C399 0.931 . S
H420 C405 0.931 . S
H421 C406 0.931 . S
H422 C427 0.931 . S
H423 C402 0.929 . S
H424 C435 0.930 . S
N425 Eu396 2.600 . S
N425 C426 1.365 . S
N425 C429 1.319 . S
C426 N425 1.365 . S
C426 C428 1.405 . S
C426 C434 1.448 . S
C427 H422 0.931 . S
C427 C429 1.397 . S
C427 C430 1.367 . S
C428 C426 1.405 . S
C428 C430 1.403 . S
C428 C461 1.439 . S
C429 H414 0.930 . S
C429 N425 1.319 . S
C429 C427 1.397 . S
C430 C427 1.367 . S
C430 C428 1.403 . S
C430 H437 0.929 . S
N431 Eu396 2.562 . S
N431 C432 1.325 . S
N431 C434 1.351 . S
C432 H418 0.929 . S
C432 N431 1.325 . S
C432 C436 1.416 . S
C433 C434 1.430 . S
C433 C435 1.404 . S
C433 C462 1.387 . S
C434 C426 1.448 . S
C434 N431 1.351 . S
C434 C433 1.430 . S
C435 H424 0.930 . S
C435 C433 1.404 . S
C435 C436 1.366 . S
C436 H415 0.930 . S
C436 C432 1.416 . S
C436 C435 1.366 . S
H437 C430 0.929 . S
H438 C461 0.931 . S
H439 C462 0.931 . S
O440 Eu396 2.462 . S
O440 C460 1.252 . S
O441 Eu396 2.373 . S
O441 C452 1.249 . S
O442 Eu407 2.335 . S
O442 C452 1.264 . S
O443 Eu396 2.432 . S
O443 C460 1.268 . S
O444 Eu396 2.291 . S
O444 C459 1.255 . S
O445 Eu407 2.372 . S
O445 C459 1.257 . S
O446 Eu407 2.462 . S
O446 C471 1.252 . S
O447 Eu407 2.373 . S
O447 C463 1.249 . S
O448 Eu396 2.335 . S
O448 C463 1.264 . S
O449 Eu407 2.432 . S
O449 C471 1.268 . S
O450 Eu407 2.291 . S
O450 C470 1.255 . S
O451 Eu396 2.372 . S
O451 C470 1.257 . S
C452 O441 1.249 . S
C452 O442 1.264 . S
C453 C456 1.382 . S
C453 C458 1.390 . S
C453 C460 1.506 . S
C454 C455 1.398 . S
C454 C458 1.392 . S
C455 C454 1.398 . S
C455 C457 1.372 . S
C455 H472 0.931 . S
C456 C453 1.382 . S
C456 C457 1.390 . S
C456 H473 0.931 . S
C457 C455 1.372 . S
C457 C456 1.390 . S
C457 H474 0.929 . S
C458 C453 1.390 . S
C458 C454 1.392 . S
C458 H475 0.930 . S
C459 O444 1.255 . S
C459 O445 1.257 . S
C460 Eu396 2.787 . S
C460 O440 1.252 . S
C460 O443 1.268 . S
C460 C453 1.506 . S
C461 C428 1.439 . S
C461 H438 0.931 . S
C461 C462 1.374 . S
C462 C433 1.387 . S
C462 H439 0.931 . S
C462 C461 1.374 . S
C463 O447 1.249 . S
C463 O448 1.264 . S
C464 C467 1.382 . S
C464 C468 1.390 . S
C464 C471 1.506 . S
C465 C466 1.398 . S
C465 C468 1.392 . S
C466 C465 1.398 . S
C466 C469 1.372 . S
C466 H476 0.931 . S
C467 C464 1.382 . S
C467 C469 1.390 . S
C467 H477 0.931 . S
C468 C464 1.390 . S
C468 C465 1.392 . S
C468 H478 0.930 . S
C469 C466 1.372 . S
C469 C467 1.390 . S
C469 H479 0.929 . S
C470 O450 1.255 . S
C470 O451 1.257 . S
C471 Eu407 2.787 . S
C471 O446 1.252 . S
C471 O449 1.268 . S
C471 C464 1.506 . S
H472 C455 0.931 . S
H473 C456 0.931 . S
H474 C457 0.929 . S
H475 C458 0.930 . S
H476 C466 0.931 . S
H477 C467 0.931 . S
H478 C468 0.930 . S
H479 C469 0.929 . S
Eu480 N509 2.627 . S
Eu480 N515 2.562 1_545 S
Eu480 O524 2.462 . S
Eu480 O525 2.373 1_545 S
Eu480 O527 2.432 . S
Eu480 O528 2.291 . S
Eu480 O532 2.335 . S
Eu480 O535 2.372 . S
Eu480 C544 2.787 . S
C481 N482 1.365 . S
C481 C484 1.405 . S
C481 C488 1.448 . S
N482 C481 1.365 . S
N482 C485 1.319 . S
N482 Eu491 2.600 . S
C483 C485 1.397 . S
C483 C486 1.367 . S
C483 H503 0.931 . S
C484 C481 1.405 . S
C484 C486 1.403 . S
C484 C490 1.439 . S
C485 N482 1.319 . S
C485 C483 1.397 . S
C485 H496 0.930 . S
C486 C483 1.367 . S
C486 C484 1.403 . S
C486 H507 0.929 . S
C487 C488 1.430 . S
C487 C489 1.387 . S
C487 C493 1.404 . S
C488 C481 1.448 . S
C488 C487 1.430 . S
C488 N492 1.351 . S
C489 C487 1.387 . S
C489 C490 1.374 . S
C489 H504 0.931 . S
C490 C484 1.439 . S
C490 C489 1.374 . S
C490 H505 0.931 . S
Eu491 N482 2.600 . S
Eu491 N492 2.562 . S
Eu491 O526 2.276 1_545 S
Eu491 O529 2.372 . S
Eu491 O530 2.462 . S
Eu491 O531 2.373 . S
Eu491 O533 2.432 . S
Eu491 O534 2.291 . S
Eu491 C555 2.787 . S
N492 C488 1.351 . S
N492 Eu491 2.562 . S
N492 C494 1.325 . S
C493 C487 1.404 . S
C493 C495 1.366 . S
C493 H501 0.930 . S
C494 N492 1.325 . S
C494 C495 1.416 . S
C494 H500 0.929 . S
C495 C493 1.366 . S
C495 C494 1.416 . S
C495 H497 0.930 . S
H496 C485 0.930 . S
H497 C495 0.930 . S
H498 C513 0.930 . S
H499 C520 0.930 . S
H500 C494 0.929 . S
H501 C493 0.930 . S
H502 C516 0.929 1_545 S
H503 C483 0.931 . S
H504 C489 0.931 . S
H505 C490 0.931 . S
H506 C511 0.931 . S
H507 C486 0.929 . S
H508 C519 0.930 . S
N509 Eu480 2.627 . S
N509 C510 1.336 1_545 S
N509 C513 1.318 . S
C510 N509 1.336 1_565 S
C510 C512 1.405 . S
C510 C518 1.448 . S
C511 H506 0.931 . S
C511 C513 1.397 1_565 S
C511 C514 1.367 . S
C512 C510 1.405 . S
C512 C514 1.403 . S
C512 C545 1.439 . S
C513 H498 0.930 . S
C513 N509 1.318 . S
C513 C511 1.397 1_545 S
C514 C511 1.367 . S
C514 C512 1.403 . S
C514 H521 0.929 . S
N515 Eu480 2.562 1_565 S
N515 C516 1.325 . S
N515 C518 1.351 . S
C516 H502 0.929 1_565 S
C516 N515 1.325 . S
C516 C520 1.416 . S
C517 C518 1.430 . S
C517 C519 1.404 . S
C517 C546 1.387 . S
C518 C510 1.448 . S
C518 N515 1.351 . S
C518 C517 1.430 . S
C519 H508 0.930 . S
C519 C517 1.404 . S
C519 C520 1.366 . S
C520 H499 0.930 . S
C520 C516 1.416 . S
C520 C519 1.366 . S
H521 C514 0.929 . S
H522 C545 0.931 . S
H523 C546 0.931 . S
O524 Eu480 2.462 . S
O524 C544 1.252 . S
O525 Eu480 2.373 1_565 S
O525 C536 1.249 . S
O526 Eu491 2.276 1_565 S
O526 C536 1.296 . S
O527 Eu480 2.432 . S
O527 C544 1.268 . S
O528 Eu480 2.291 . S
O528 C543 1.255 . S
O529 Eu491 2.372 . S
O529 C543 1.257 . S
O530 Eu491 2.462 . S
O530 C555 1.252 . S
O531 Eu491 2.373 . S
O531 C547 1.249 . S
O532 Eu480 2.335 . S
O532 C547 1.264 . S
O533 Eu491 2.432 . S
O533 C555 1.268 . S
O534 Eu491 2.291 . S
O534 C554 1.255 . S
O535 Eu480 2.372 . S
O535 C554 1.257 . S
C536 O525 1.249 . S
C536 O526 1.296 . S
C537 C540 1.382 . S
C537 C542 1.390 . S
C537 C544 1.506 . S
C538 C539 1.398 . S
C538 C542 1.392 . S
C539 C538 1.398 . S
C539 C541 1.372 . S
C539 H556 0.931 . S
C540 C537 1.382 . S
C540 C541 1.390 . S
C540 H557 0.931 . S
C541 C539 1.372 . S
C541 C540 1.390 . S
C541 H558 0.929 . S
C542 C537 1.390 . S
C542 C538 1.392 . S
C542 H559 0.930 . S
C543 O528 1.255 . S
C543 O529 1.257 . S
C544 Eu480 2.787 . S
C544 O524 1.252 . S
C544 O527 1.268 . S
C544 C537 1.506 . S
C545 C512 1.439 . S
C545 H522 0.931 . S
C545 C546 1.374 . S
C546 C517 1.387 . S
C546 H523 0.931 . S
C546 C545 1.374 . S
C547 O531 1.249 . S
C547 O532 1.264 . S
C548 C551 1.380 1_545 S
C548 C552 1.385 1_545 S
C548 C555 1.513 . S
C549 C550 1.398 . S
C549 C552 1.392 . S
C550 C549 1.398 . S
C550 C553 1.372 . S
C550 H560 0.931 . S
C551 C548 1.380 1_565 S
C551 C553 1.390 . S
C551 H561 0.943 . S
C552 C548 1.385 1_565 S
C552 C549 1.392 . S
C552 H562 0.930 . S
C553 C550 1.372 . S
C553 C551 1.390 . S
C553 H563 0.929 . S
C554 O534 1.255 . S
C554 O535 1.257 . S
C555 Eu491 2.787 . S
C555 O530 1.252 . S
C555 O533 1.268 . S
C555 C548 1.513 . S
H556 C539 0.931 . S
H557 C540 0.931 . S
H558 C541 0.929 . S
H559 C542 0.930 . S
H560 C550 0.931 . S
H561 C551 0.943 . S
H562 C552 0.930 . S
H563 C553 0.929 . S
Eu564 N593 2.600 . S
Eu564 N599 2.562 . S
Eu564 O608 2.462 . S
Eu564 O609 2.373 . S
Eu564 O611 2.432 . S
Eu564 O612 2.291 . S
Eu564 O616 2.335 . S
Eu564 O619 2.372 . S
Eu564 C628 2.787 . S
C565 N566 1.365 . S
C565 C568 1.405 . S
C565 C572 1.448 . S
N566 C565 1.365 . S
N566 C569 1.319 . S
N566 Eu575 2.600 . S
C567 C569 1.397 . S
C567 C570 1.367 . S
C567 H587 0.931 . S
C568 C565 1.405 . S
C568 C570 1.403 . S
C568 C574 1.439 . S
C569 N566 1.319 . S
C569 C567 1.397 . S
C569 H580 0.930 . S
C570 C567 1.367 . S
C570 C568 1.403 . S
C570 H591 0.929 . S
C571 C572 1.430 . S
C571 C573 1.387 . S
C571 C577 1.404 . S
C572 C565 1.448 . S
C572 C571 1.430 . S
C572 N576 1.351 . S
C573 C571 1.387 . S
C573 C574 1.374 . S
C573 H588 0.931 . S
C574 C568 1.439 . S
C574 C573 1.374 . S
C574 H589 0.931 . S
Eu575 N566 2.600 . S
Eu575 N576 2.562 . S
Eu575 O610 2.335 . S
Eu575 O613 2.372 . S
Eu575 O614 2.462 . S
Eu575 O615 2.373 . S
Eu575 O617 2.432 . S
Eu575 O618 2.291 . S
Eu575 C639 2.787 . S
N576 C572 1.351 . S
N576 Eu575 2.562 . S
N576 C578 1.325 . S
C577 C571 1.404 . S
C577 C579 1.366 . S
C577 H585 0.930 . S
C578 N576 1.325 . S
C578 C579 1.416 . S
C578 H584 0.929 . S
C579 C577 1.366 . S
C579 C578 1.416 . S
C579 H581 0.930 . S
H580 C569 0.930 . S
H581 C579 0.930 . S
H582 C597 0.930 . S
H583 C604 0.930 . S
H584 C578 0.929 . S
H585 C577 0.930 . S
H586 C600 0.929 . S
H587 C567 0.931 . S
H588 C573 0.931 . S
H589 C574 0.931 . S
H590 C595 0.931 . S
H591 C570 0.929 . S
H592 C603 0.930 . S
N593 Eu564 2.600 . S
N593 C594 1.365 . S
N593 C597 1.319 . S
C594 N593 1.365 . S
C594 C596 1.405 . S
C594 C602 1.448 . S
C595 H590 0.931 . S
C595 C597 1.397 . S
C595 C598 1.367 . S
C596 C594 1.405 . S
C596 C598 1.403 . S
C596 C629 1.439 . S
C597 H582 0.930 . S
C597 N593 1.319 . S
C597 C595 1.397 . S
C598 C595 1.367 . S
C598 C596 1.403 . S
C598 H605 0.929 . S
N599 Eu564 2.562 . S
N599 C600 1.325 . S
N599 C602 1.351 . S
C600 H586 0.929 . S
C600 N599 1.325 . S
C600 C604 1.416 . S
C601 C602 1.430 . S
C601 C603 1.404 . S
C601 C630 1.387 . S
C602 C594 1.448 . S
C602 N599 1.351 . S
C602 C601 1.430 . S
C603 H592 0.930 . S
C603 C601 1.404 . S
C603 C604 1.366 . S
C604 H583 0.930 . S
C604 C600 1.416 . S
C604 C603 1.366 . S
H605 C598 0.929 . S
H606 C629 0.931 . S
H607 C630 0.931 . S
O608 Eu564 2.462 . S
O608 C628 1.252 . S
O609 Eu564 2.373 . S
O609 C620 1.249 . S
O610 Eu575 2.335 . S
O610 C620 1.264 . S
O611 Eu564 2.432 . S
O611 C628 1.268 . S
O612 Eu564 2.291 . S
O612 C627 1.255 . S
O613 Eu575 2.372 . S
O613 C627 1.257 . S
O614 Eu575 2.462 . S
O614 C639 1.252 . S
O615 Eu575 2.373 . S
O615 C631 1.249 . S
O616 Eu564 2.335 . S
O616 C631 1.264 . S
O617 Eu575 2.432 . S
O617 C639 1.268 . S
O618 Eu575 2.291 . S
O618 C638 1.255 . S
O619 Eu564 2.372 . S
O619 C638 1.257 . S
C620 O609 1.249 . S
C620 O610 1.264 . S
C621 C624 1.382 . S
C621 C626 1.390 . S
C621 C628 1.506 . S
C622 C623 1.398 . S
C622 C626 1.392 . S
C623 C622 1.398 . S
C623 C625 1.372 . S
C623 H640 0.931 . S
C624 C621 1.382 . S
C624 C625 1.390 . S
C624 H641 0.931 . S
C625 C623 1.372 . S
C625 C624 1.390 . S
C625 H642 0.929 . S
C626 C621 1.390 . S
C626 C622 1.392 . S
C626 H643 0.930 . S
C627 O612 1.255 . S
C627 O613 1.257 . S
C628 Eu564 2.787 . S
C628 O608 1.252 . S
C628 O611 1.268 . S
C628 C621 1.506 . S
C629 C596 1.439 . S
C629 H606 0.931 . S
C629 C630 1.374 . S
C630 C601 1.387 . S
C630 H607 0.931 . S
C630 C629 1.374 . S
C631 O615 1.249 . S
C631 O616 1.264 . S
C632 C635 1.382 . S
C632 C636 1.390 . S
C632 C639 1.506 . S
C633 C634 1.398 . S
C633 C636 1.392 . S
C634 C633 1.398 . S
C634 C637 1.372 . S
C634 H644 0.931 . S
C635 C632 1.382 . S
C635 C637 1.390 . S
C635 H645 0.931 . S
C636 C632 1.390 . S
C636 C633 1.392 . S
C636 H646 0.930 . S
C637 C634 1.372 . S
C637 C635 1.390 . S
C637 H647 0.929 . S
C638 O618 1.255 . S
C638 O619 1.257 . S
C639 Eu575 2.787 . S
C639 O614 1.252 . S
C639 O617 1.268 . S
C639 C632 1.506 . S
H640 C623 0.931 . S
H641 C624 0.931 . S
H642 C625 0.929 . S
H643 C626 0.930 . S
H644 C634 0.931 . S
H645 C635 0.931 . S
H646 C636 0.930 . S
H647 C637 0.929 . S
Eu648 N677 2.601 . S
Eu648 N683 2.564 . S
Eu648 O692 2.464 . S
Eu648 O693 2.371 1_565 S
Eu648 O695 2.434 . S
Eu648 O696 2.290 1_565 S
Eu648 O700 2.334 1_565 S
Eu648 O703 2.370 1_565 S
Eu648 C712 2.789 . S
C649 N650 1.365 1_455 S
C649 C652 1.405 1_455 S
C649 C656 1.448 . S
N650 C649 1.365 1_655 S
N650 C653 1.319 . S
N650 Eu659 2.600 1_655 S
C651 C653 1.397 . S
C651 C654 1.367 . S
C651 H671 0.931 . S
C652 C649 1.405 1_655 S
C652 C654 1.403 . S
C652 C658 1.439 1_655 S
C653 N650 1.319 . S
C653 C651 1.397 . S
C653 H664 0.930 . S
C654 C651 1.367 . S
C654 C652 1.403 . S
C654 H675 0.929 . S
C655 C656 1.430 . S
C655 C657 1.387 . S
C655 C661 1.404 . S
C656 C649 1.448 . S
C656 C655 1.430 . S
C656 N660 1.351 . S
C657 C655 1.387 . S
C657 C658 1.374 . S
C657 H672 0.931 . S
C658 C652 1.439 1_455 S
C658 C657 1.374 . S
C658 H673 0.931 1_455 S
Eu659 N650 2.600 1_455 S
Eu659 N660 2.562 . S
Eu659 O694 2.335 . S
Eu659 O697 2.372 1_455 S
Eu659 O698 2.462 . S
Eu659 O699 2.373 . S
Eu659 O701 2.432 1_455 S
Eu659 O702 2.291 . S
Eu659 C723 2.787 . S
N660 C656 1.351 . S
N660 Eu659 2.562 . S
N660 C662 1.325 . S
C661 C655 1.404 . S
C661 C663 1.366 . S
C661 H669 0.930 . S
C662 N660 1.325 . S
C662 C663 1.416 . S
C662 H668 0.929 . S
C663 C661 1.366 . S
C663 C662 1.416 . S
C663 H665 0.930 . S
H664 C653 0.930 . S
H665 C663 0.930 . S
H666 C681 0.930 1_545 S
H667 C688 0.930 . S
H668 C662 0.929 . S
H669 C661 0.930 . S
H670 C684 0.929 . S
H671 C651 0.931 . S
H672 C657 0.931 . S
H673 C658 0.931 1_655 S
H674 C679 0.931 . S
H675 C654 0.929 . S
H676 C687 0.930 . S
N677 Eu648 2.601 . S
N677 C678 1.365 . S
N677 C681 1.319 . S
C678 N677 1.365 . S
C678 C680 1.405 . S
C678 C686 1.448 . S
C679 H674 0.931 . S
C679 C681 1.397 . S
C679 C682 1.367 . S
C680 C678 1.405 . S
C680 C682 1.403 . S
C680 C713 1.439 . S
C681 H666 0.930 1_565 S
C681 N677 1.319 . S
C681 C679 1.397 . S
C682 C679 1.367 . S
C682 C680 1.403 . S
C682 H689 0.929 . S
N683 Eu648 2.564 . S
N683 C684 1.325 1_455 S
N683 C686 1.351 . S
C684 H670 0.929 . S
C684 N683 1.325 1_655 S
C684 C688 1.416 . S
C685 C686 1.430 . S
C685 C687 1.404 1_455 S
C685 C714 1.387 . S
C686 C678 1.448 . S
C686 N683 1.351 . S
C686 C685 1.430 . S
C687 H676 0.930 . S
C687 C685 1.404 1_655 S
C687 C688 1.366 . S
C688 H667 0.930 . S
C688 C684 1.416 . S
C688 C687 1.366 . S
H689 C682 0.929 . S
H690 C713 0.931 . S
H691 C714 0.931 . S
O692 Eu648 2.464 . S
O692 C712 1.252 . S
O693 Eu648 2.371 1_545 S
O693 C704 1.249 . S
O694 Eu659 2.335 . S
O694 C704 1.264 . S
O695 Eu648 2.434 . S
O695 C712 1.268 . S
O696 Eu648 2.290 1_545 S
O696 C711 1.255 1_455 S
O697 Eu659 2.372 1_655 S
O697 C711 1.257 . S
O698 Eu659 2.462 . S
O698 C723 1.252 . S
O699 Eu659 2.373 . S
O699 C715 1.249 . S
O700 Eu648 2.334 1_545 S
O700 C715 1.264 . S
O701 Eu659 2.432 1_655 S
O701 C723 1.268 1_655 S
O702 Eu659 2.291 . S
O702 C722 1.255 . S
O703 Eu648 2.370 1_545 S
O703 C722 1.257 . S
C704 O693 1.249 . S
C704 O694 1.264 . S
C705 C708 1.382 . S
C705 C710 1.390 . S
C705 C712 1.506 . S
C706 C707 1.398 . S
C706 C710 1.392 . S
C707 C706 1.398 . S
C707 C709 1.372 . S
C707 H724 0.931 . S
C708 C705 1.382 . S
C708 C709 1.390 . S
C708 H725 0.931 . S
C709 C707 1.372 . S
C709 C708 1.390 . S
C709 H726 0.929 . S
C710 C705 1.390 . S
C710 C706 1.392 . S
C710 H727 0.930 . S
C711 O696 1.255 1_655 S
C711 O697 1.257 . S
C712 Eu648 2.789 . S
C712 O692 1.252 . S
C712 O695 1.268 . S
C712 C705 1.506 . S
C713 C680 1.439 . S
C713 H690 0.931 . S
C713 C714 1.374 . S
C714 C685 1.387 . S
C714 H691 0.931 . S
C714 C713 1.374 . S
C715 O699 1.249 . S
C715 O700 1.264 . S
C716 C719 1.382 1_455 S
C716 C720 1.390 . S
C716 C723 1.506 . S
C717 C718 1.398 1_455 S
C717 C720 1.392 . S
C718 C717 1.398 1_655 S
C718 C721 1.372 . S
C718 H728 0.931 . S
C719 C716 1.382 1_655 S
C719 C721 1.390 . S
C719 H729 0.931 . S
C720 C716 1.390 . S
C720 C717 1.392 . S
C720 H730 0.930 . S
C721 C718 1.372 . S
C721 C719 1.390 . S
C721 H731 0.929 . S
C722 O702 1.255 . S
C722 O703 1.257 . S
C723 Eu659 2.787 . S
C723 O698 1.252 . S
C723 O701 1.268 1_455 S
C723 C716 1.506 . S
H724 C707 0.931 . S
H725 C708 0.931 . S
H726 C709 0.929 . S
H727 C710 0.930 . S
H728 C718 0.931 . S
H729 C719 0.931 . S
H730 C720 0.930 . S
H731 C721 0.929 . S
Eu732 N761 2.600 . S
Eu732 N767 2.562 . S
Eu732 O776 2.462 . S
Eu732 O777 2.373 . S
Eu732 O779 2.432 . S
Eu732 O780 2.291 . S
Eu732 O784 2.335 . S
Eu732 O787 2.372 . S
Eu732 C796 2.787 . S
C733 N734 1.365 . S
C733 C736 1.405 . S
C733 C740 1.448 . S
N734 C733 1.365 . S
N734 C737 1.319 . S
N734 Eu743 2.600 . S
C735 C737 1.397 . S
C735 C738 1.367 . S
C735 H755 0.931 . S
C736 C733 1.405 . S
C736 C738 1.403 . S
C736 C742 1.439 . S
C737 N734 1.319 . S
C737 C735 1.397 . S
C737 H748 0.930 . S
C738 C735 1.367 . S
C738 C736 1.403 . S
C738 H759 0.929 . S
C739 C740 1.430 . S
C739 C741 1.387 . S
C739 C745 1.404 . S
C740 C733 1.448 . S
C740 C739 1.430 . S
C740 N744 1.351 . S
C741 C739 1.387 . S
C741 C742 1.374 . S
C741 H756 0.931 . S
C742 C736 1.439 . S
C742 C741 1.374 . S
C742 H757 0.931 . S
Eu743 N734 2.600 . S
Eu743 N744 2.562 . S
Eu743 O778 2.335 . S
Eu743 O781 2.372 . S
Eu743 O782 2.462 . S
Eu743 O783 2.373 . S
Eu743 O785 2.432 . S
Eu743 O786 2.291 . S
Eu743 C807 2.787 . S
N744 C740 1.351 . S
N744 Eu743 2.562 . S
N744 C746 1.325 . S
C745 C739 1.404 . S
C745 C747 1.366 . S
C745 H753 0.930 . S
C746 N744 1.325 . S
C746 C747 1.416 . S
C746 H752 0.929 . S
C747 C745 1.366 . S
C747 C746 1.416 . S
C747 H749 0.930 . S
H748 C737 0.930 . S
H749 C747 0.930 . S
H750 C765 0.930 . S
H751 C772 0.930 . S
H752 C746 0.929 . S
H753 C745 0.930 . S
H754 C768 0.929 . S
H755 C735 0.931 . S
H756 C741 0.931 . S
H757 C742 0.931 . S
H758 C763 0.931 . S
H759 C738 0.929 . S
H760 C771 0.930 . S
N761 Eu732 2.600 . S
N761 C762 1.365 . S
N761 C765 1.319 . S
C762 N761 1.365 . S
C762 C764 1.405 . S
C762 C770 1.448 . S
C763 H758 0.931 . S
C763 C765 1.397 . S
C763 C766 1.367 . S
C764 C762 1.405 . S
C764 C766 1.403 . S
C764 C797 1.439 . S
C765 H750 0.930 . S
C765 N761 1.319 . S
C765 C763 1.397 . S
C766 C763 1.367 . S
C766 C764 1.403 . S
C766 H773 0.929 . S
N767 Eu732 2.562 . S
N767 C768 1.325 . S
N767 C770 1.351 . S
C768 H754 0.929 . S
C768 N767 1.325 . S
C768 C772 1.416 . S
C769 C770 1.430 . S
C769 C771 1.404 . S
C769 C798 1.387 . S
C770 C762 1.448 . S
C770 N767 1.351 . S
C770 C769 1.430 . S
C771 H760 0.930 . S
C771 C769 1.404 . S
C771 C772 1.366 . S
C772 H751 0.930 . S
C772 C768 1.416 . S
C772 C771 1.366 . S
H773 C766 0.929 . S
H774 C797 0.931 . S
H775 C798 0.931 . S
O776 Eu732 2.462 . S
O776 C796 1.252 . S
O777 Eu732 2.373 . S
O777 C788 1.249 . S
O778 Eu743 2.335 . S
O778 C788 1.264 . S
O779 Eu732 2.432 . S
O779 C796 1.268 . S
O780 Eu732 2.291 . S
O780 C795 1.255 . S
O781 Eu743 2.372 . S
O781 C795 1.257 . S
O782 Eu743 2.462 . S
O782 C807 1.252 . S
O783 Eu743 2.373 . S
O783 C799 1.249 . S
O784 Eu732 2.335 . S
O784 C799 1.264 . S
O785 Eu743 2.432 . S
O785 C807 1.268 . S
O786 Eu743 2.291 . S
O786 C806 1.255 . S
O787 Eu732 2.372 . S
O787 C806 1.257 . S
C788 O777 1.249 . S
C788 O778 1.264 . S
C789 C792 1.382 . S
C789 C794 1.390 . S
C789 C796 1.506 . S
C790 C791 1.398 . S
C790 C794 1.392 . S
C791 C790 1.398 . S
C791 C793 1.372 . S
C791 H808 0.931 . S
C792 C789 1.382 . S
C792 C793 1.390 . S
C792 H809 0.931 . S
C793 C791 1.372 . S
C793 C792 1.390 . S
C793 H810 0.929 . S
C794 C789 1.390 . S
C794 C790 1.392 . S
C794 H811 0.930 . S
C795 O780 1.255 . S
C795 O781 1.257 . S
C796 Eu732 2.787 . S
C796 O776 1.252 . S
C796 O779 1.268 . S
C796 C789 1.506 . S
C797 C764 1.439 . S
C797 H774 0.931 . S
C797 C798 1.374 . S
C798 C769 1.387 . S
C798 H775 0.931 . S
C798 C797 1.374 . S
C799 O783 1.249 . S
C799 O784 1.264 . S
C800 C803 1.382 . S
C800 C804 1.390 . S
C800 C807 1.506 . S
C801 C802 1.398 . S
C801 C804 1.392 . S
C802 C801 1.398 . S
C802 C805 1.372 . S
C802 H812 0.931 . S
C803 C800 1.382 . S
C803 C805 1.390 . S
C803 H813 0.931 . S
C804 C800 1.390 . S
C804 C801 1.392 . S
C804 H814 0.930 . S
C805 C802 1.372 . S
C805 C803 1.390 . S
C805 H815 0.929 . S
C806 O786 1.255 . S
C806 O787 1.257 . S
C807 Eu743 2.787 . S
C807 O782 1.252 . S
C807 O785 1.268 . S
C807 C800 1.506 . S
H808 C791 0.931 . S
H809 C792 0.931 . S
H810 C793 0.929 . S
H811 C794 0.930 . S
H812 C802 0.931 . S
H813 C803 0.931 . S
H814 C804 0.930 . S
H815 C805 0.929 . S
Eu816 N845 2.600 . S
Eu816 N851 2.562 . S
Eu816 O860 2.462 . S
Eu816 O861 2.373 1_556 S
Eu816 O863 2.432 . S
Eu816 O864 2.291 1_556 S
Eu816 O868 2.335 1_556 S
Eu816 O871 2.372 1_556 S
Eu816 C880 2.787 . S
C817 N818 1.365 . S
C817 C820 1.405 . S
C817 C824 1.448 1_565 S
N818 C817 1.365 . S
N818 C821 1.319 . S
N818 Eu827 2.600 1_565 S
C819 C821 1.397 . S
C819 C822 1.367 . S
C819 H839 0.931 . S
C820 C817 1.405 . S
C820 C822 1.403 . S
C820 C826 1.439 . S
C821 N818 1.319 . S
C821 C819 1.397 . S
C821 H832 0.930 . S
C822 C819 1.367 . S
C822 C820 1.403 . S
C822 H843 0.929 . S
C823 C824 1.430 . S
C823 C825 1.387 . S
C823 C829 1.404 . S
C824 C817 1.448 1_545 S
C824 C823 1.430 . S
C824 N828 1.351 . S
C825 C823 1.387 . S
C825 C826 1.374 1_545 S
C825 H840 0.931 . S
C826 C820 1.439 . S
C826 C825 1.374 1_565 S
C826 H841 0.931 . S
Eu827 N818 2.600 1_545 S
Eu827 N828 2.562 . S
Eu827 O862 2.335 . S
Eu827 O865 2.372 1_545 S
Eu827 O866 2.462 . S
Eu827 O867 2.373 . S
Eu827 O869 2.432 1_545 S
Eu827 O870 2.291 . S
Eu827 C891 2.787 1_545 S
N828 C824 1.351 . S
N828 Eu827 2.562 . S
N828 C830 1.325 . S
C829 C823 1.404 . S
C829 C831 1.366 . S
C829 H837 0.930 . S
C830 N828 1.325 . S
C830 C831 1.416 . S
C830 H836 0.929 . S
C831 C829 1.366 . S
C831 C830 1.416 . S
C831 H833 0.930 . S
H832 C821 0.930 . S
H833 C831 0.930 . S
H834 C849 0.930 1_554 S
H835 C856 0.930 . S
H836 C830 0.929 . S
H837 C829 0.930 . S
H838 C852 0.929 1_565 S
H839 C819 0.931 . S
H840 C825 0.931 . S
H841 C826 0.931 . S
H842 C847 0.931 . S
H843 C822 0.929 . S
H844 C855 0.930 1_565 S
N845 Eu816 2.600 . S
N845 C846 1.365 . S
N845 C849 1.319 . S
C846 N845 1.365 . S
C846 C848 1.405 . S
C846 C854 1.448 . S
C847 H842 0.931 . S
C847 C849 1.397 . S
C847 C850 1.367 . S
C848 C846 1.405 . S
C848 C850 1.403 . S
C848 C881 1.439 . S
C849 H834 0.930 1_556 S
C849 N845 1.319 . S
C849 C847 1.397 . S
C850 C847 1.367 . S
C850 C848 1.403 . S
C850 H857 0.929 . S
N851 Eu816 2.562 . S
N851 C852 1.325 . S
N851 C854 1.351 . S
C852 H838 0.929 1_545 S
C852 N851 1.325 . S
C852 C856 1.416 1_545 S
C853 C854 1.430 . S
C853 C855 1.404 . S
C853 C882 1.387 . S
C854 C846 1.448 . S
C854 N851 1.351 . S
C854 C853 1.430 . S
C855 H844 0.930 1_545 S
C855 C853 1.404 . S
C855 C856 1.366 1_545 S
C856 H835 0.930 . S
C856 C852 1.416 1_565 S
C856 C855 1.366 1_565 S
H857 C850 0.929 . S
H858 C881 0.931 . S
H859 C882 0.931 . S
O860 Eu816 2.462 . S
O860 C880 1.252 . S
O861 Eu816 2.373 1_554 S
O861 C872 1.249 . S
O862 Eu827 2.335 . S
O862 C872 1.264 . S
O863 Eu816 2.432 . S
O863 C880 1.268 . S
O864 Eu816 2.291 1_554 S
O864 C879 1.255 1_545 S
O865 Eu827 2.372 1_565 S
O865 C879 1.257 . S
O866 Eu827 2.462 . S
O866 C891 1.252 1_545 S
O867 Eu827 2.373 . S
O867 C883 1.249 . S
O868 Eu816 2.335 1_554 S
O868 C883 1.264 . S
O869 Eu827 2.432 1_565 S
O869 C891 1.268 . S
O870 Eu827 2.291 . S
O870 C890 1.255 . S
O871 Eu816 2.372 1_554 S
O871 C890 1.257 . S
C872 O861 1.249 . S
C872 O862 1.264 . S
C873 C876 1.382 . S
C873 C878 1.390 . S
C873 C880 1.506 . S
C874 C875 1.398 . S
C874 C878 1.392 . S
C875 C874 1.398 . S
C875 C877 1.372 . S
C875 H892 0.931 . S
C876 C873 1.382 . S
C876 C877 1.390 . S
C876 H893 0.931 . S
C877 C875 1.372 . S
C877 C876 1.390 . S
C877 H894 0.929 . S
C878 C873 1.390 . S
C878 C874 1.392 . S
C878 H895 0.930 . S
C879 O864 1.255 1_565 S
C879 O865 1.257 . S
C880 Eu816 2.787 . S
C880 O860 1.252 . S
C880 O863 1.268 . S
C880 C873 1.506 . S
C881 C848 1.439 . S
C881 H858 0.931 . S
C881 C882 1.374 . S
C882 C853 1.387 . S
C882 H859 0.931 . S
C882 C881 1.374 . S
C883 O867 1.249 . S
C883 O868 1.264 . S
C884 C887 1.382 . S
C884 C888 1.390 1_565 S
C884 C891 1.506 . S
C885 C886 1.398 1_545 S
C885 C888 1.392 . S
C886 C885 1.398 1_565 S
C886 C889 1.372 . S
C886 H896 0.931 . S
C887 C884 1.382 . S
C887 C889 1.390 . S
C887 H897 0.931 . S
C888 C884 1.390 1_545 S
C888 C885 1.392 . S
C888 H898 0.930 . S
C889 C886 1.372 . S
C889 C887 1.390 . S
C889 H899 0.929 . S
C890 O870 1.255 . S
C890 O871 1.257 . S
C891 Eu827 2.787 1_565 S
C891 O866 1.252 1_565 S
C891 O869 1.268 . S
C891 C884 1.506 . S
H892 C875 0.931 . S
H893 C876 0.931 . S
H894 C877 0.929 . S
H895 C878 0.930 . S
H896 C886 0.931 . S
H897 C887 0.931 . S
H898 C888 0.930 . S
H899 C889 0.929 . S
Eu900 N929 2.600 . S
Eu900 N935 2.562 . S
Eu900 O944 2.462 . S
Eu900 O945 2.373 . S
Eu900 O947 2.432 . S
Eu900 O948 2.291 . S
Eu900 O952 2.335 . S
Eu900 O955 2.372 . S
Eu900 C964 2.787 . S
C901 N902 1.365 . S
C901 C904 1.405 . S
C901 C908 1.448 . S
N902 C901 1.365 . S
N902 C905 1.319 . S
N902 Eu911 2.600 . S
C903 C905 1.397 . S
C903 C906 1.367 . S
C903 H923 0.931 . S
C904 C901 1.405 . S
C904 C906 1.403 . S
C904 C910 1.439 . S
C905 N902 1.319 . S
C905 C903 1.397 . S
C905 H916 0.930 . S
C906 C903 1.367 . S
C906 C904 1.403 . S
C906 H927 0.929 . S
C907 C908 1.430 . S
C907 C909 1.387 . S
C907 C913 1.404 . S
C908 C901 1.448 . S
C908 C907 1.430 . S
C908 N912 1.351 . S
C909 C907 1.387 . S
C909 C910 1.374 . S
C909 H924 0.931 . S
C910 C904 1.439 . S
C910 C909 1.374 . S
C910 H925 0.931 . S
Eu911 N902 2.600 . S
Eu911 N912 2.562 . S
Eu911 O946 2.335 . S
Eu911 O949 2.372 . S
Eu911 O950 2.462 . S
Eu911 O951 2.373 . S
Eu911 O953 2.432 . S
Eu911 O954 2.291 . S
Eu911 C975 2.787 . S
N912 C908 1.351 . S
N912 Eu911 2.562 . S
N912 C914 1.325 . S
C913 C907 1.404 . S
C913 C915 1.366 . S
C913 H921 0.930 . S
C914 N912 1.325 . S
C914 C915 1.416 . S
C914 H920 0.929 . S
C915 C913 1.366 . S
C915 C914 1.416 . S
C915 H917 0.930 . S
H916 C905 0.930 . S
H917 C915 0.930 . S
H918 C933 0.930 . S
H919 C940 0.930 . S
H920 C914 0.929 . S
H921 C913 0.930 . S
H922 C936 0.929 . S
H923 C903 0.931 . S
H924 C909 0.931 . S
H925 C910 0.931 . S
H926 C931 0.931 . S
H927 C906 0.929 . S
H928 C939 0.930 . S
N929 Eu900 2.600 . S
N929 C930 1.365 . S
N929 C933 1.319 . S
C930 N929 1.365 . S
C930 C932 1.405 . S
C930 C938 1.448 . S
C931 H926 0.931 . S
C931 C933 1.397 . S
C931 C934 1.367 . S
C932 C930 1.405 . S
C932 C934 1.403 . S
C932 C965 1.439 . S
C933 H918 0.930 . S
C933 N929 1.319 . S
C933 C931 1.397 . S
C934 C931 1.367 . S
C934 C932 1.403 . S
C934 H941 0.929 . S
N935 Eu900 2.562 . S
N935 C936 1.325 . S
N935 C938 1.351 . S
C936 H922 0.929 . S
C936 N935 1.325 . S
C936 C940 1.416 . S
C937 C938 1.430 . S
C937 C939 1.404 . S
C937 C966 1.387 . S
C938 C930 1.448 . S
C938 N935 1.351 . S
C938 C937 1.430 . S
C939 H928 0.930 . S
C939 C937 1.404 . S
C939 C940 1.366 . S
C940 H919 0.930 . S
C940 C936 1.416 . S
C940 C939 1.366 . S
H941 C934 0.929 . S
H942 C965 0.931 . S
H943 C966 0.931 . S
O944 Eu900 2.462 . S
O944 C964 1.252 . S
O945 Eu900 2.373 . S
O945 C956 1.249 . S
O946 Eu911 2.335 . S
O946 C956 1.264 . S
O947 Eu900 2.432 . S
O947 C964 1.268 . S
O948 Eu900 2.291 . S
O948 C963 1.255 . S
O949 Eu911 2.372 . S
O949 C963 1.257 . S
O950 Eu911 2.462 . S
O950 C975 1.252 . S
O951 Eu911 2.373 . S
O951 C967 1.249 . S
O952 Eu900 2.335 . S
O952 C967 1.264 . S
O953 Eu911 2.432 . S
O953 C975 1.268 . S
O954 Eu911 2.291 . S
O954 C974 1.255 . S
O955 Eu900 2.372 . S
O955 C974 1.257 . S
C956 O945 1.249 . S
C956 O946 1.264 . S
C957 C960 1.382 . S
C957 C962 1.390 . S
C957 C964 1.506 . S
C958 C959 1.398 . S
C958 C962 1.392 . S
C959 C958 1.398 . S
C959 C961 1.372 . S
C959 H976 0.931 . S
C960 C957 1.382 . S
C960 C961 1.390 . S
C960 H977 0.931 . S
C961 C959 1.372 . S
C961 C960 1.390 . S
C961 H978 0.929 . S
C962 C957 1.390 . S
C962 C958 1.392 . S
C962 H979 0.930 . S
C963 O948 1.255 . S
C963 O949 1.257 . S
C964 Eu900 2.787 . S
C964 O944 1.252 . S
C964 O947 1.268 . S
C964 C957 1.506 . S
C965 C932 1.439 . S
C965 H942 0.931 . S
C965 C966 1.374 . S
C966 C937 1.387 . S
C966 H943 0.931 . S
C966 C965 1.374 . S
C967 O951 1.249 . S
C967 O952 1.264 . S
C968 C971 1.382 . S
C968 C972 1.390 . S
C968 C975 1.506 . S
C969 C970 1.398 . S
C969 C972 1.392 . S
C970 C969 1.398 . S
C970 C973 1.372 . S
C970 H980 0.931 . S
C971 C968 1.382 . S
C971 C973 1.390 . S
C971 H981 0.931 . S
C972 C968 1.390 . S
C972 C969 1.392 . S
C972 H982 0.930 . S
C973 C970 1.372 . S
C973 C971 1.390 . S
C973 H983 0.929 . S
C974 O954 1.255 . S
C974 O955 1.257 . S
C975 Eu911 2.787 . S
C975 O950 1.252 . S
C975 O953 1.268 . S
C975 C968 1.506 . S
H976 C959 0.931 . S
H977 C960 0.931 . S
H978 C961 0.929 . S
H979 C962 0.930 . S
H980 C970 0.931 . S
H981 C971 0.931 . S
H982 C972 0.930 . S
H983 C973 0.929 . S
Eu984 N1013 2.600 1_554 S
Eu984 N1019 2.562 1_554 S
Eu984 O1028 2.462 . S
Eu984 O1029 2.373 1_554 S
Eu984 O1031 2.432 . S
Eu984 O1032 2.291 . S
Eu984 O1036 2.335 . S
Eu984 O1039 2.372 . S
Eu984 C1048 2.787 . S
C985 N986 1.365 . S
C985 C988 1.405 . S
C985 C992 1.448 . S
N986 C985 1.365 . S
N986 C989 1.319 . S
N986 Eu995 2.600 . S
C987 C989 1.397 . S
C987 C990 1.367 . S
C987 H1007 0.931 . S
C988 C985 1.405 . S
C988 C990 1.403 . S
C988 C994 1.439 . S
C989 N986 1.319 . S
C989 C987 1.397 . S
C989 H1000 0.930 . S
C990 C987 1.367 . S
C990 C988 1.403 . S
C990 H1011 0.929 . S
C991 C992 1.430 . S
C991 C993 1.387 . S
C991 C997 1.404 . S
C992 C985 1.448 . S
C992 C991 1.430 . S
C992 N996 1.351 . S
C993 C991 1.387 . S
C993 C994 1.374 . S
C993 H1008 0.931 . S
C994 C988 1.439 . S
C994 C993 1.374 . S
C994 H1009 0.931 . S
Eu995 N986 2.600 . S
Eu995 N996 2.562 . S
Eu995 O1030 2.335 1_554 S
Eu995 O1033 2.372 . S
Eu995 O1034 2.462 . S
Eu995 O1035 2.373 . S
Eu995 O1037 2.432 . S
Eu995 O1038 2.291 . S
Eu995 C1059 2.787 . S
N996 C992 1.351 . S
N996 Eu995 2.562 . S
N996 C998 1.325 . S
C997 C991 1.404 . S
C997 C999 1.366 . S
C997 H1005 0.930 . S
C998 N996 1.325 . S
C998 C999 1.416 . S
C998 H1004 0.929 . S
C999 C997 1.366 . S
C999 C998 1.416 . S
C999 H1001 0.930 . S
H1000 C989 0.930 . S
H1001 C999 0.930 . S
H1002 C1017 0.930 1_554 S
H1003 C1024 0.930 . S
H1004 C998 0.929 . S
H1005 C997 0.930 . S
H1006 C1020 0.929 1_554 S
H1007 C987 0.931 . S
H1008 C993 0.931 . S
H1009 C994 0.931 . S
H1010 C1015 0.931 . S
H1011 C990 0.929 . S
H1012 C1023 0.930 . S
N1013 Eu984 2.600 1_556 S
N1013 C1014 1.365 . S
N1013 C1017 1.319 . S
C1014 N1013 1.365 . S
C1014 C1016 1.405 . S
C1014 C1022 1.448 . S
C1015 H1010 0.931 . S
C1015 C1017 1.397 . S
C1015 C1018 1.367 . S
C1016 C1014 1.405 . S
C1016 C1018 1.403 . S
C1016 C1049 1.439 . S
C1017 H1002 0.930 1_556 S
C1017 N1013 1.319 . S
C1017 C1015 1.397 . S
C1018 C1015 1.367 . S
C1018 C1016 1.403 . S
C1018 H1025 0.929 . S
N1019 Eu984 2.562 1_556 S
N1019 C1020 1.325 . S
N1019 C1022 1.351 . S
C1020 H1006 0.929 1_556 S
C1020 N1019 1.325 . S
C1020 C1024 1.416 . S
C1021 C1022 1.430 . S
C1021 C1023 1.404 . S
C1021 C1050 1.387 . S
C1022 C1014 1.448 . S
C1022 N1019 1.351 . S
C1022 C1021 1.430 . S
C1023 H1012 0.930 . S
C1023 C1021 1.404 . S
C1023 C1024 1.366 . S
C1024 H1003 0.930 . S
C1024 C1020 1.416 . S
C1024 C1023 1.366 . S
H1025 C1018 0.929 . S
H1026 C1049 0.931 . S
H1027 C1050 0.931 . S
O1028 Eu984 2.462 . S
O1028 C1048 1.252 . S
O1029 Eu984 2.373 1_556 S
O1029 C1040 1.249 . S
O1030 Eu995 2.335 1_556 S
O1030 C1040 1.264 . S
O1031 Eu984 2.432 . S
O1031 C1048 1.268 . S
O1032 Eu984 2.291 . S
O1032 C1047 1.255 . S
O1033 Eu995 2.372 . S
O1033 C1047 1.257 . S
O1034 Eu995 2.462 . S
O1034 C1059 1.252 . S
O1035 Eu995 2.373 . S
O1035 C1051 1.249 . S
O1036 Eu984 2.335 . S
O1036 C1051 1.264 . S
O1037 Eu995 2.432 . S
O1037 C1059 1.268 . S
O1038 Eu995 2.291 . S
O1038 C1058 1.255 . S
O1039 Eu984 2.372 . S
O1039 C1058 1.257 . S
C1040 O1029 1.249 . S
C1040 O1030 1.264 . S
C1041 C1044 1.382 . S
C1041 C1046 1.390 . S
C1041 C1048 1.506 . S
C1042 C1043 1.398 . S
C1042 C1046 1.392 . S
C1043 C1042 1.398 . S
C1043 C1045 1.372 . S
C1043 H1060 0.931 . S
C1044 C1041 1.382 . S
C1044 C1045 1.390 . S
C1044 H1061 0.931 . S
C1045 C1043 1.372 . S
C1045 C1044 1.390 . S
C1045 H1062 0.929 . S
C1046 C1041 1.390 . S
C1046 C1042 1.392 . S
C1046 H1063 0.930 . S
C1047 O1032 1.255 . S
C1047 O1033 1.257 . S
C1048 Eu984 2.787 . S
C1048 O1028 1.252 . S
C1048 O1031 1.268 . S
C1048 C1041 1.506 . S
C1049 C1016 1.439 . S
C1049 H1026 0.931 . S
C1049 C1050 1.374 . S
C1050 C1021 1.387 . S
C1050 H1027 0.931 . S
C1050 C1049 1.374 . S
C1051 O1035 1.249 . S
C1051 O1036 1.264 . S
C1052 C1055 1.382 . S
C1052 C1056 1.390 . S
C1052 C1059 1.506 1_556 S
C1053 C1054 1.398 . S
C1053 C1056 1.392 . S
C1054 C1053 1.398 . S
C1054 C1057 1.372 . S
C1054 H1064 0.931 . S
C1055 C1052 1.382 . S
C1055 C1057 1.390 . S
C1055 H1065 0.931 1_556 S
C1056 C1052 1.390 . S
C1056 C1053 1.392 . S
C1056 H1066 0.930 . S
C1057 C1054 1.372 . S
C1057 C1055 1.390 . S
C1057 H1067 0.929 . S
C1058 O1038 1.255 . S
C1058 O1039 1.257 . S
C1059 Eu995 2.787 . S
C1059 O1034 1.252 . S
C1059 O1037 1.268 . S
C1059 C1052 1.506 1_554 S
H1060 C1043 0.931 . S
H1061 C1044 0.931 . S
H1062 C1045 0.929 . S
H1063 C1046 0.930 . S
H1064 C1054 0.931 . S
H1065 C1055 0.931 1_554 S
H1066 C1056 0.930 . S
H1067 C1057 0.929 . S
Eu1068 N1097 2.600 . S
Eu1068 N1103 2.562 . S
Eu1068 O1112 2.462 . S
Eu1068 O1113 2.373 . S
Eu1068 O1115 2.432 . S
Eu1068 O1116 2.291 . S
Eu1068 O1120 2.335 . S
Eu1068 O1123 2.372 . S
Eu1068 C1132 2.787 . S
C1069 N1070 1.365 . S
C1069 C1072 1.405 . S
C1069 C1076 1.448 . S
N1070 C1069 1.365 . S
N1070 C1073 1.319 . S
N1070 Eu1079 2.600 . S
C1071 C1073 1.397 . S
C1071 C1074 1.367 . S
C1071 H1091 0.931 . S
C1072 C1069 1.405 . S
C1072 C1074 1.403 . S
C1072 C1078 1.439 . S
C1073 N1070 1.319 . S
C1073 C1071 1.397 . S
C1073 H1084 0.930 . S
C1074 C1071 1.367 . S
C1074 C1072 1.403 . S
C1074 H1095 0.929 . S
C1075 C1076 1.430 . S
C1075 C1077 1.387 . S
C1075 C1081 1.404 . S
C1076 C1069 1.448 . S
C1076 C1075 1.430 . S
C1076 N1080 1.351 . S
C1077 C1075 1.387 . S
C1077 C1078 1.374 . S
C1077 H1092 0.931 . S
C1078 C1072 1.439 . S
C1078 C1077 1.374 . S
C1078 H1093 0.931 . S
Eu1079 N1070 2.600 . S
Eu1079 N1080 2.562 . S
Eu1079 O1114 2.335 . S
Eu1079 O1117 2.372 . S
Eu1079 O1118 2.462 . S
Eu1079 O1119 2.373 . S
Eu1079 O1121 2.432 . S
Eu1079 O1122 2.291 . S
Eu1079 C1143 2.787 . S
N1080 C1076 1.351 . S
N1080 Eu1079 2.562 . S
N1080 C1082 1.325 . S
C1081 C1075 1.404 . S
C1081 C1083 1.366 . S
C1081 H1089 0.930 . S
C1082 N1080 1.325 . S
C1082 C1083 1.416 . S
C1082 H1088 0.929 . S
C1083 C1081 1.366 . S
C1083 C1082 1.416 . S
C1083 H1085 0.930 . S
H1084 C1073 0.930 . S
H1085 C1083 0.930 . S
H1086 C1101 0.930 . S
H1087 C1108 0.930 . S
H1088 C1082 0.929 . S
H1089 C1081 0.930 . S
H1090 C1104 0.929 . S
H1091 C1071 0.931 . S
H1092 C1077 0.931 . S
H1093 C1078 0.931 . S
H1094 C1099 0.931 . S
H1095 C1074 0.929 . S
H1096 C1107 0.930 . S
N1097 Eu1068 2.600 . S
N1097 C1098 1.365 . S
N1097 C1101 1.319 . S
C1098 N1097 1.365 . S
C1098 C1100 1.405 . S
C1098 C1106 1.448 . S
C1099 H1094 0.931 . S
C1099 C1101 1.397 . S
C1099 C1102 1.367 . S
C1100 C1098 1.405 . S
C1100 C1102 1.403 . S
C1100 C1133 1.439 . S
C1101 H1086 0.930 . S
C1101 N1097 1.319 . S
C1101 C1099 1.397 . S
C1102 C1099 1.367 . S
C1102 C1100 1.403 . S
C1102 H1109 0.929 . S
N1103 Eu1068 2.562 . S
N1103 C1104 1.325 . S
N1103 C1106 1.351 . S
C1104 H1090 0.929 . S
C1104 N1103 1.325 . S
C1104 C1108 1.416 . S
C1105 C1106 1.430 . S
C1105 C1107 1.404 . S
C1105 C1134 1.387 . S
C1106 C1098 1.448 . S
C1106 N1103 1.351 . S
C1106 C1105 1.430 . S
C1107 H1096 0.930 . S
C1107 C1105 1.404 . S
C1107 C1108 1.366 . S
C1108 H1087 0.930 . S
C1108 C1104 1.416 . S
C1108 C1107 1.366 . S
H1109 C1102 0.929 . S
H1110 C1133 0.931 . S
H1111 C1134 0.931 . S
O1112 Eu1068 2.462 . S
O1112 C1132 1.252 . S
O1113 Eu1068 2.373 . S
O1113 C1124 1.249 . S
O1114 Eu1079 2.335 . S
O1114 C1124 1.264 . S
O1115 Eu1068 2.432 . S
O1115 C1132 1.268 . S
O1116 Eu1068 2.291 . S
O1116 C1131 1.255 . S
O1117 Eu1079 2.372 . S
O1117 C1131 1.257 . S
O1118 Eu1079 2.462 . S
O1118 C1143 1.252 . S
O1119 Eu1079 2.373 . S
O1119 C1135 1.249 . S
O1120 Eu1068 2.335 . S
O1120 C1135 1.264 . S
O1121 Eu1079 2.432 . S
O1121 C1143 1.268 . S
O1122 Eu1079 2.291 . S
O1122 C1142 1.255 . S
O1123 Eu1068 2.372 . S
O1123 C1142 1.257 . S
C1124 O1113 1.249 . S
C1124 O1114 1.264 . S
C1125 C1128 1.382 . S
C1125 C1130 1.390 . S
C1125 C1132 1.506 . S
C1126 C1127 1.398 . S
C1126 C1130 1.392 . S
C1127 C1126 1.398 . S
C1127 C1129 1.372 . S
C1127 H1144 0.931 . S
C1128 C1125 1.382 . S
C1128 C1129 1.390 . S
C1128 H1145 0.931 . S
C1129 C1127 1.372 . S
C1129 C1128 1.390 . S
C1129 H1146 0.929 . S
C1130 C1125 1.390 . S
C1130 C1126 1.392 . S
C1130 H1147 0.930 . S
C1131 O1116 1.255 . S
C1131 O1117 1.257 . S
C1132 Eu1068 2.787 . S
C1132 O1112 1.252 . S
C1132 O1115 1.268 . S
C1132 C1125 1.506 . S
C1133 C1100 1.439 . S
C1133 H1110 0.931 . S
C1133 C1134 1.374 . S
C1134 C1105 1.387 . S
C1134 H1111 0.931 . S
C1134 C1133 1.374 . S
C1135 O1119 1.249 . S
C1135 O1120 1.264 . S
C1136 C1139 1.382 . S
C1136 C1140 1.390 . S
C1136 C1143 1.506 . S
C1137 C1138 1.398 . S
C1137 C1140 1.392 . S
C1138 C1137 1.398 . S
C1138 C1141 1.372 . S
C1138 H1148 0.931 . S
C1139 C1136 1.382 . S
C1139 C1141 1.390 . S
C1139 H1149 0.931 . S
C1140 C1136 1.390 . S
C1140 C1137 1.392 . S
C1140 H1150 0.930 . S
C1141 C1138 1.372 . S
C1141 C1139 1.390 . S
C1141 H1151 0.929 . S
C1142 O1122 1.255 . S
C1142 O1123 1.257 . S
C1143 Eu1079 2.787 . S
C1143 O1118 1.252 . S
C1143 O1121 1.268 . S
C1143 C1136 1.506 . S
H1144 C1127 0.931 . S
H1145 C1128 0.931 . S
H1146 C1129 0.929 . S
H1147 C1130 0.930 . S
H1148 C1138 0.931 . S
H1149 C1139 0.931 . S
H1150 C1140 0.930 . S
H1151 C1141 0.929 . S
Eu1152 N1181 2.600 . S
Eu1152 N1187 2.542 1_455 S
Eu1152 O1196 2.462 . S
Eu1152 O1197 2.373 1_455 S
Eu1152 O1199 2.432 . S
Eu1152 O1200 2.291 . S
Eu1152 O1204 2.335 . S
Eu1152 O1207 2.372 . S
Eu1152 C1216 2.787 . S
C1153 N1154 1.365 . S
C1153 C1156 1.405 . S
C1153 C1160 1.448 . S
N1154 C1153 1.365 . S
N1154 C1157 1.319 . S
N1154 Eu1163 2.600 . S
C1155 C1157 1.397 . S
C1155 C1158 1.367 . S
C1155 H1175 0.931 . S
C1156 C1153 1.405 . S
C1156 C1158 1.403 . S
C1156 C1162 1.439 . S
C1157 N1154 1.319 . S
C1157 C1155 1.397 . S
C1157 H1168 0.930 . S
C1158 C1155 1.367 . S
C1158 C1156 1.403 . S
C1158 H1179 0.929 . S
C1159 C1160 1.430 . S
C1159 C1161 1.387 . S
C1159 C1165 1.404 . S
C1160 C1153 1.448 . S
C1160 C1159 1.430 . S
C1160 N1164 1.351 . S
C1161 C1159 1.387 . S
C1161 C1162 1.374 . S
C1161 H1176 0.931 . S
C1162 C1156 1.439 . S
C1162 C1161 1.374 . S
C1162 H1177 0.931 . S
Eu1163 N1154 2.600 . S
Eu1163 N1164 2.562 . S
Eu1163 O1198 2.291 1_455 S
Eu1163 O1201 2.372 . S
Eu1163 O1202 2.462 . S
Eu1163 O1203 2.373 . S
Eu1163 O1205 2.432 . S
Eu1163 O1206 2.291 . S
Eu1163 C1227 2.787 . S
N1164 C1160 1.351 . S
N1164 Eu1163 2.562 . S
N1164 C1166 1.325 . S
C1165 C1159 1.404 . S
C1165 C1167 1.366 . S
C1165 H1173 0.930 . S
C1166 N1164 1.325 . S
C1166 C1167 1.416 . S
C1166 H1172 0.929 . S
C1167 C1165 1.366 . S
C1167 C1166 1.416 . S
C1167 H1169 0.930 . S
H1168 C1157 0.930 . S
H1169 C1167 0.930 . S
H1170 C1185 0.930 . S
H1171 C1192 0.930 . S
H1172 C1166 0.929 . S
H1173 C1165 0.930 . S
H1174 C1188 0.929 1_455 S
H1175 C1155 0.931 . S
H1176 C1161 0.931 . S
H1177 C1162 0.931 . S
H1178 C1183 0.931 . S
H1179 C1158 0.929 . S
H1180 C1191 0.930 . S
N1181 Eu1152 2.600 . S
N1181 C1182 1.365 1_455 S
N1181 C1185 1.319 . S
C1182 N1181 1.365 1_655 S
C1182 C1184 1.405 . S
C1182 C1190 1.448 . S
C1183 H1178 0.931 . S
C1183 C1185 1.397 1_655 S
C1183 C1186 1.367 . S
C1184 C1182 1.405 . S
C1184 C1186 1.403 . S
C1184 C1217 1.439 . S
C1185 H1170 0.930 . S
C1185 N1181 1.319 . S
C1185 C1183 1.397 1_455 S
C1186 C1183 1.367 . S
C1186 C1184 1.403 . S
C1186 H1193 0.929 . S
N1187 Eu1152 2.542 1_655 S
N1187 C1188 1.320 . S
N1187 C1190 1.380 . S
C1188 H1174 0.929 1_655 S
C1188 N1187 1.320 . S
C1188 C1192 1.416 . S
C1189 C1190 1.430 . S
C1189 C1191 1.404 . S
C1189 C1218 1.387 . S
C1190 C1182 1.448 . S
C1190 N1187 1.380 . S
C1190 C1189 1.430 . S
C1191 H1180 0.930 . S
C1191 C1189 1.404 . S
C1191 C1192 1.366 . S
C1192 H1171 0.930 . S
C1192 C1188 1.416 . S
C1192 C1191 1.366 . S
H1193 C1186 0.929 . S
H1194 C1217 0.931 . S
H1195 C1218 0.931 . S
O1196 Eu1152 2.462 . S
O1196 C1216 1.252 . S
O1197 Eu1152 2.373 1_655 S
O1197 C1208 1.249 . S
O1198 Eu1163 2.291 1_655 S
O1198 C1208 1.290 . S
O1199 Eu1152 2.432 . S
O1199 C1216 1.268 . S
O1200 Eu1152 2.291 . S
O1200 C1215 1.255 . S
O1201 Eu1163 2.372 . S
O1201 C1215 1.257 . S
O1202 Eu1163 2.462 . S
O1202 C1227 1.252 . S
O1203 Eu1163 2.373 . S
O1203 C1219 1.249 . S
O1204 Eu1152 2.335 . S
O1204 C1219 1.264 . S
O1205 Eu1163 2.432 . S
O1205 C1227 1.268 . S
O1206 Eu1163 2.291 . S
O1206 C1226 1.255 . S
O1207 Eu1152 2.372 . S
O1207 C1226 1.257 . S
C1208 O1197 1.249 . S
C1208 O1198 1.290 . S
C1209 C1212 1.382 . S
C1209 C1214 1.390 . S
C1209 C1216 1.506 . S
C1210 C1211 1.398 . S
C1210 C1214 1.392 . S
C1211 C1210 1.398 . S
C1211 C1213 1.372 . S
C1211 H1228 0.931 . S
C1212 C1209 1.382 . S
C1212 C1213 1.390 . S
C1212 H1229 0.931 . S
C1213 C1211 1.372 . S
C1213 C1212 1.390 . S
C1213 H1230 0.929 . S
C1214 C1209 1.390 . S
C1214 C1210 1.392 . S
C1214 H1231 0.930 . S
C1215 O1200 1.255 . S
C1215 O1201 1.257 . S
C1216 Eu1152 2.787 . S
C1216 O1196 1.252 . S
C1216 O1199 1.268 . S
C1216 C1209 1.506 . S
C1217 C1184 1.439 . S
C1217 H1194 0.931 . S
C1217 C1218 1.374 . S
C1218 C1189 1.387 . S
C1218 H1195 0.931 . S
C1218 C1217 1.374 . S
C1219 O1203 1.249 . S
C1219 O1204 1.264 . S
C1220 C1223 1.382 . S
C1220 C1224 1.390 . S
C1220 C1227 1.506 1_655 S
C1221 C1222 1.398 . S
C1221 C1224 1.392 . S
C1222 C1221 1.398 . S
C1222 C1225 1.372 . S
C1222 H1232 0.931 . S
C1223 C1220 1.382 . S
C1223 C1225 1.390 . S
C1223 H1233 0.931 . S
C1224 C1220 1.390 . S
C1224 C1221 1.392 . S
C1224 H1234 0.930 . S
C1225 C1222 1.372 . S
C1225 C1223 1.390 . S
C1225 H1235 0.929 . S
C1226 O1206 1.255 . S
C1226 O1207 1.257 . S
C1227 Eu1163 2.787 . S
C1227 O1202 1.252 . S
C1227 O1205 1.268 . S
C1227 C1220 1.506 1_455 S
H1228 C1211 0.931 . S
H1229 C1212 0.931 . S
H1230 C1213 0.929 . S
H1231 C1214 0.930 . S
H1232 C1222 0.931 . S
H1233 C1223 0.931 . S
H1234 C1224 0.930 . S
H1235 C1225 0.929 . S
Eu1236 N1265 2.600 . S
Eu1236 N1271 2.562 . S
Eu1236 O1280 2.462 . S
Eu1236 O1281 2.373 . S
Eu1236 O1283 2.432 . S
Eu1236 O1284 2.291 . S
Eu1236 O1288 2.335 . S
Eu1236 O1291 2.372 . S
Eu1236 C1300 2.787 . S
C1237 N1238 1.365 . S
C1237 C1240 1.405 . S
C1237 C1244 1.448 . S
N1238 C1237 1.365 . S
N1238 C1241 1.319 . S
N1238 Eu1247 2.600 . S
C1239 C1241 1.397 . S
C1239 C1242 1.367 . S
C1239 H1259 0.931 . S
C1240 C1237 1.405 . S
C1240 C1242 1.403 . S
C1240 C1246 1.439 . S
C1241 N1238 1.319 . S
C1241 C1239 1.397 . S
C1241 H1252 0.930 . S
C1242 C1239 1.367 . S
C1242 C1240 1.403 . S
C1242 H1263 0.929 . S
C1243 C1244 1.430 . S
C1243 C1245 1.387 . S
C1243 C1249 1.404 . S
C1244 C1237 1.448 . S
C1244 C1243 1.430 . S
C1244 N1248 1.351 . S
C1245 C1243 1.387 . S
C1245 C1246 1.374 . S
C1245 H1260 0.931 . S
C1246 C1240 1.439 . S
C1246 C1245 1.374 . S
C1246 H1261 0.931 . S
Eu1247 N1238 2.600 . S
Eu1247 N1248 2.562 . S
Eu1247 O1282 2.335 . S
Eu1247 O1285 2.372 . S
Eu1247 O1286 2.462 . S
Eu1247 O1287 2.373 . S
Eu1247 O1289 2.432 . S
Eu1247 O1290 2.291 . S
Eu1247 C1311 2.787 . S
N1248 C1244 1.351 . S
N1248 Eu1247 2.562 . S
N1248 C1250 1.325 . S
C1249 C1243 1.404 . S
C1249 C1251 1.366 . S
C1249 H1257 0.930 . S
C1250 N1248 1.325 . S
C1250 C1251 1.416 . S
C1250 H1256 0.929 . S
C1251 C1249 1.366 . S
C1251 C1250 1.416 . S
C1251 H1253 0.930 . S
H1252 C1241 0.930 . S
H1253 C1251 0.930 . S
H1254 C1269 0.930 . S
H1255 C1276 0.930 . S
H1256 C1250 0.929 . S
H1257 C1249 0.930 . S
H1258 C1272 0.929 . S
H1259 C1239 0.931 . S
H1260 C1245 0.931 . S
H1261 C1246 0.931 . S
H1262 C1267 0.931 . S
H1263 C1242 0.929 . S
H1264 C1275 0.930 . S
N1265 Eu1236 2.600 . S
N1265 C1266 1.365 . S
N1265 C1269 1.319 . S
C1266 N1265 1.365 . S
C1266 C1268 1.405 . S
C1266 C1274 1.448 . S
C1267 H1262 0.931 . S
C1267 C1269 1.397 . S
C1267 C1270 1.367 . S
C1268 C1266 1.405 . S
C1268 C1270 1.403 . S
C1268 C1301 1.439 . S
C1269 H1254 0.930 . S
C1269 N1265 1.319 . S
C1269 C1267 1.397 . S
C1270 C1267 1.367 . S
C1270 C1268 1.403 . S
C1270 H1277 0.929 . S
N1271 Eu1236 2.562 . S
N1271 C1272 1.325 . S
N1271 C1274 1.351 . S
C1272 H1258 0.929 . S
C1272 N1271 1.325 . S
C1272 C1276 1.416 . S
C1273 C1274 1.430 . S
C1273 C1275 1.404 . S
C1273 C1302 1.387 . S
C1274 C1266 1.448 . S
C1274 N1271 1.351 . S
C1274 C1273 1.430 . S
C1275 H1264 0.930 . S
C1275 C1273 1.404 . S
C1275 C1276 1.366 . S
C1276 H1255 0.930 . S
C1276 C1272 1.416 . S
C1276 C1275 1.366 . S
H1277 C1270 0.929 . S
H1278 C1301 0.931 . S
H1279 C1302 0.931 . S
O1280 Eu1236 2.462 . S
O1280 C1300 1.252 . S
O1281 Eu1236 2.373 . S
O1281 C1292 1.249 . S
O1282 Eu1247 2.335 . S
O1282 C1292 1.264 . S
O1283 Eu1236 2.432 . S
O1283 C1300 1.268 . S
O1284 Eu1236 2.291 . S
O1284 C1299 1.255 . S
O1285 Eu1247 2.372 . S
O1285 C1299 1.257 . S
O1286 Eu1247 2.462 . S
O1286 C1311 1.252 . S
O1287 Eu1247 2.373 . S
O1287 C1303 1.249 . S
O1288 Eu1236 2.335 . S
O1288 C1303 1.264 . S
O1289 Eu1247 2.432 . S
O1289 C1311 1.268 . S
O1290 Eu1247 2.291 . S
O1290 C1310 1.255 . S
O1291 Eu1236 2.372 . S
O1291 C1310 1.257 . S
C1292 O1281 1.249 . S
C1292 O1282 1.264 . S
C1293 C1296 1.382 . S
C1293 C1298 1.390 . S
C1293 C1300 1.506 . S
C1294 C1295 1.398 . S
C1294 C1298 1.392 . S
C1295 C1294 1.398 . S
C1295 C1297 1.372 . S
C1295 H1312 0.931 . S
C1296 C1293 1.382 . S
C1296 C1297 1.390 . S
C1296 H1313 0.931 . S
C1297 C1295 1.372 . S
C1297 C1296 1.390 . S
C1297 H1314 0.929 . S
C1298 C1293 1.390 . S
C1298 C1294 1.392 . S
C1298 H1315 0.930 . S
C1299 O1284 1.255 . S
C1299 O1285 1.257 . S
C1300 Eu1236 2.787 . S
C1300 O1280 1.252 . S
C1300 O1283 1.268 . S
C1300 C1293 1.506 . S
C1301 C1268 1.439 . S
C1301 H1278 0.931 . S
C1301 C1302 1.374 . S
C1302 C1273 1.387 . S
C1302 H1279 0.931 . S
C1302 C1301 1.374 . S
C1303 O1287 1.249 . S
C1303 O1288 1.264 . S
C1304 C1307 1.382 . S
C1304 C1308 1.390 . S
C1304 C1311 1.506 . S
C1305 C1306 1.398 . S
C1305 C1308 1.392 . S
C1306 C1305 1.398 . S
C1306 C1309 1.372 . S
C1306 H1316 0.931 . S
C1307 C1304 1.382 . S
C1307 C1309 1.390 . S
C1307 H1317 0.931 . S
C1308 C1304 1.390 . S
C1308 C1305 1.392 . S
C1308 H1318 0.930 . S
C1309 C1306 1.372 . S
C1309 C1307 1.390 . S
C1309 H1319 0.929 . S
C1310 O1290 1.255 . S
C1310 O1291 1.257 . S
C1311 Eu1247 2.787 . S
C1311 O1286 1.252 . S
C1311 O1289 1.268 . S
C1311 C1304 1.506 . S
H1312 C1295 0.931 . S
H1313 C1296 0.931 . S
H1314 C1297 0.929 . S
H1315 C1298 0.930 . S
H1316 C1306 0.931 . S
H1317 C1307 0.931 . S
H1318 C1308 0.930 . S
H1319 C1309 0.929 . S
Eu1320 N1349 2.600 . S
Eu1320 N1355 2.562 . S
Eu1320 O1364 2.462 . S
Eu1320 O1365 2.373 . S
Eu1320 O1367 2.432 . S
Eu1320 O1368 2.291 . S
Eu1320 O1372 2.335 . S
Eu1320 O1375 2.372 . S
Eu1320 C1384 2.787 . S
C1321 N1322 1.365 . S
C1321 C1324 1.405 . S
C1321 C1328 1.448 . S
N1322 C1321 1.365 . S
N1322 C1325 1.319 . S
N1322 Eu1331 2.600 . S
C1323 C1325 1.397 . S
C1323 C1326 1.367 . S
C1323 H1343 0.931 . S
C1324 C1321 1.405 . S
C1324 C1326 1.403 . S
C1324 C1330 1.439 . S
C1325 N1322 1.319 . S
C1325 C1323 1.397 . S
C1325 H1336 0.930 . S
C1326 C1323 1.367 . S
C1326 C1324 1.403 . S
C1326 H1347 0.929 . S
C1327 C1328 1.430 . S
C1327 C1329 1.387 . S
C1327 C1333 1.404 . S
C1328 C1321 1.448 . S
C1328 C1327 1.430 . S
C1328 N1332 1.351 . S
C1329 C1327 1.387 . S
C1329 C1330 1.374 . S
C1329 H1344 0.931 . S
C1330 C1324 1.439 . S
C1330 C1329 1.374 . S
C1330 H1345 0.931 . S
Eu1331 N1322 2.600 . S
Eu1331 N1332 2.562 . S
Eu1331 O1366 2.335 . S
Eu1331 O1369 2.372 . S
Eu1331 O1370 2.462 . S
Eu1331 O1371 2.373 . S
Eu1331 O1373 2.432 . S
Eu1331 O1374 2.291 . S
Eu1331 C1395 2.787 . S
N1332 C1328 1.351 . S
N1332 Eu1331 2.562 . S
N1332 C1334 1.325 . S
C1333 C1327 1.404 . S
C1333 C1335 1.366 . S
C1333 H1341 0.930 . S
C1334 N1332 1.325 . S
C1334 C1335 1.416 . S
C1334 H1340 0.929 . S
C1335 C1333 1.366 . S
C1335 C1334 1.416 . S
C1335 H1337 0.930 . S
H1336 C1325 0.930 . S
H1337 C1335 0.930 . S
H1338 C1353 0.930 . S
H1339 C1360 0.930 . S
H1340 C1334 0.929 . S
H1341 C1333 0.930 . S
H1342 C1356 0.929 . S
H1343 C1323 0.931 . S
H1344 C1329 0.931 . S
H1345 C1330 0.931 . S
H1346 C1351 0.931 . S
H1347 C1326 0.929 . S
H1348 C1359 0.930 . S
N1349 Eu1320 2.600 . S
N1349 C1350 1.365 . S
N1349 C1353 1.319 . S
C1350 N1349 1.365 . S
C1350 C1352 1.405 . S
C1350 C1358 1.448 . S
C1351 H1346 0.931 . S
C1351 C1353 1.397 . S
C1351 C1354 1.367 . S
C1352 C1350 1.405 . S
C1352 C1354 1.403 . S
C1352 C1385 1.439 . S
C1353 H1338 0.930 . S
C1353 N1349 1.319 . S
C1353 C1351 1.397 . S
C1354 C1351 1.367 . S
C1354 C1352 1.403 . S
C1354 H1361 0.929 . S
N1355 Eu1320 2.562 . S
N1355 C1356 1.325 . S
N1355 C1358 1.351 . S
C1356 H1342 0.929 . S
C1356 N1355 1.325 . S
C1356 C1360 1.416 . S
C1357 C1358 1.430 . S
C1357 C1359 1.404 . S
C1357 C1386 1.387 . S
C1358 C1350 1.448 . S
C1358 N1355 1.351 . S
C1358 C1357 1.430 . S
C1359 H1348 0.930 . S
C1359 C1357 1.404 . S
C1359 C1360 1.366 . S
C1360 H1339 0.930 . S
C1360 C1356 1.416 . S
C1360 C1359 1.366 . S
H1361 C1354 0.929 . S
H1362 C1385 0.931 . S
H1363 C1386 0.931 . S
O1364 Eu1320 2.462 . S
O1364 C1384 1.252 . S
O1365 Eu1320 2.373 . S
O1365 C1376 1.249 . S
O1366 Eu1331 2.335 . S
O1366 C1376 1.264 . S
O1367 Eu1320 2.432 . S
O1367 C1384 1.268 . S
O1368 Eu1320 2.291 . S
O1368 C1383 1.255 . S
O1369 Eu1331 2.372 . S
O1369 C1383 1.257 . S
O1370 Eu1331 2.462 . S
O1370 C1395 1.252 . S
O1371 Eu1331 2.373 . S
O1371 C1387 1.249 . S
O1372 Eu1320 2.335 . S
O1372 C1387 1.264 . S
O1373 Eu1331 2.432 . S
O1373 C1395 1.268 . S
O1374 Eu1331 2.291 . S
O1374 C1394 1.255 . S
O1375 Eu1320 2.372 . S
O1375 C1394 1.257 . S
C1376 O1365 1.249 . S
C1376 O1366 1.264 . S
C1377 C1380 1.382 . S
C1377 C1382 1.390 . S
C1377 C1384 1.506 . S
C1378 C1379 1.398 . S
C1378 C1382 1.392 . S
C1379 C1378 1.398 . S
C1379 C1381 1.372 . S
C1379 H1396 0.931 . S
C1380 C1377 1.382 . S
C1380 C1381 1.390 . S
C1380 H1397 0.931 . S
C1381 C1379 1.372 . S
C1381 C1380 1.390 . S
C1381 H1398 0.929 . S
C1382 C1377 1.390 . S
C1382 C1378 1.392 . S
C1382 H1399 0.930 . S
C1383 O1368 1.255 . S
C1383 O1369 1.257 . S
C1384 Eu1320 2.787 . S
C1384 O1364 1.252 . S
C1384 O1367 1.268 . S
C1384 C1377 1.506 . S
C1385 C1352 1.439 . S
C1385 H1362 0.931 . S
C1385 C1386 1.374 . S
C1386 C1357 1.387 . S
C1386 H1363 0.931 . S
C1386 C1385 1.374 . S
C1387 O1371 1.249 . S
C1387 O1372 1.264 . S
C1388 C1391 1.382 . S
C1388 C1392 1.390 . S
C1388 C1395 1.506 . S
C1389 C1390 1.398 . S
C1389 C1392 1.392 . S
C1390 C1389 1.398 . S
C1390 C1393 1.372 . S
C1390 H1400 0.931 . S
C1391 C1388 1.382 . S
C1391 C1393 1.390 . S
C1391 H1401 0.931 . S
C1392 C1388 1.390 . S
C1392 C1389 1.392 . S
C1392 H1402 0.930 . S
C1393 C1390 1.372 . S
C1393 C1391 1.390 . S
C1393 H1403 0.929 . S
C1394 O1374 1.255 . S
C1394 O1375 1.257 . S
C1395 Eu1331 2.787 . S
C1395 O1370 1.252 . S
C1395 O1373 1.268 . S
C1395 C1388 1.506 . S
H1396 C1379 0.931 . S
H1397 C1380 0.931 . S
H1398 C1381 0.929 . S
H1399 C1382 0.930 . S
H1400 C1390 0.931 . S
H1401 C1391 0.931 . S
H1402 C1392 0.930 . S
H1403 C1393 0.929 . S
Eu1404 N1433 2.600 . S
Eu1404 N1439 2.562 . S
Eu1404 O1448 2.462 . S
Eu1404 O1449 2.373 . S
Eu1404 O1451 2.432 . S
Eu1404 O1452 2.291 . S
Eu1404 O1456 2.335 . S
Eu1404 O1459 2.372 . S
Eu1404 C1468 2.787 . S
C1405 N1406 1.365 . S
C1405 C1408 1.405 . S
C1405 C1412 1.448 . S
N1406 C1405 1.365 . S
N1406 C1409 1.319 . S
N1406 Eu1415 2.600 . S
C1407 C1409 1.397 . S
C1407 C1410 1.367 . S
C1407 H1427 0.931 . S
C1408 C1405 1.405 . S
C1408 C1410 1.403 . S
C1408 C1414 1.439 . S
C1409 N1406 1.319 . S
C1409 C1407 1.397 . S
C1409 H1420 0.930 . S
C1410 C1407 1.367 . S
C1410 C1408 1.403 . S
C1410 H1431 0.929 . S
C1411 C1412 1.430 . S
C1411 C1413 1.387 . S
C1411 C1417 1.404 . S
C1412 C1405 1.448 . S
C1412 C1411 1.430 . S
C1412 N1416 1.351 . S
C1413 C1411 1.387 . S
C1413 C1414 1.374 . S
C1413 H1428 0.931 . S
C1414 C1408 1.439 . S
C1414 C1413 1.374 . S
C1414 H1429 0.931 . S
Eu1415 N1406 2.600 . S
Eu1415 N1416 2.562 . S
Eu1415 O1450 2.335 . S
Eu1415 O1453 2.372 . S
Eu1415 O1454 2.462 . S
Eu1415 O1455 2.373 . S
Eu1415 O1457 2.432 . S
Eu1415 O1458 2.291 . S
Eu1415 C1479 2.787 . S
N1416 C1412 1.351 . S
N1416 Eu1415 2.562 . S
N1416 C1418 1.325 . S
C1417 C1411 1.404 . S
C1417 C1419 1.366 . S
C1417 H1425 0.930 . S
C1418 N1416 1.325 . S
C1418 C1419 1.416 . S
C1418 H1424 0.929 . S
C1419 C1417 1.366 . S
C1419 C1418 1.416 . S
C1419 H1421 0.930 . S
H1420 C1409 0.930 . S
H1421 C1419 0.930 . S
H1422 C1437 0.930 . S
H1423 C1444 0.930 . S
H1424 C1418 0.929 . S
H1425 C1417 0.930 . S
H1426 C1440 0.929 . S
H1427 C1407 0.931 . S
H1428 C1413 0.931 . S
H1429 C1414 0.931 . S
H1430 C1435 0.931 . S
H1431 C1410 0.929 . S
H1432 C1443 0.930 . S
N1433 Eu1404 2.600 . S
N1433 C1434 1.365 . S
N1433 C1437 1.319 . S
C1434 N1433 1.365 . S
C1434 C1436 1.405 . S
C1434 C1442 1.448 . S
C1435 H1430 0.931 . S
C1435 C1437 1.397 . S
C1435 C1438 1.367 . S
C1436 C1434 1.405 . S
C1436 C1438 1.403 . S
C1436 C1469 1.439 . S
C1437 H1422 0.930 . S
C1437 N1433 1.319 . S
C1437 C1435 1.397 . S
C1438 C1435 1.367 . S
C1438 C1436 1.403 . S
C1438 H1445 0.929 . S
N1439 Eu1404 2.562 . S
N1439 C1440 1.325 . S
N1439 C1442 1.351 . S
C1440 H1426 0.929 . S
C1440 N1439 1.325 . S
C1440 C1444 1.416 . S
C1441 C1442 1.430 . S
C1441 C1443 1.404 . S
C1441 C1470 1.387 . S
C1442 C1434 1.448 . S
C1442 N1439 1.351 . S
C1442 C1441 1.430 . S
C1443 H1432 0.930 . S
C1443 C1441 1.404 . S
C1443 C1444 1.366 . S
C1444 H1423 0.930 . S
C1444 C1440 1.416 . S
C1444 C1443 1.366 . S
H1445 C1438 0.929 . S
H1446 C1469 0.931 . S
H1447 C1470 0.931 . S
O1448 Eu1404 2.462 . S
O1448 C1468 1.252 . S
O1449 Eu1404 2.373 . S
O1449 C1460 1.249 . S
O1450 Eu1415 2.335 . S
O1450 C1460 1.264 . S
O1451 Eu1404 2.432 . S
O1451 C1468 1.268 . S
O1452 Eu1404 2.291 . S
O1452 C1467 1.255 . S
O1453 Eu1415 2.372 . S
O1453 C1467 1.257 . S
O1454 Eu1415 2.462 . S
O1454 C1479 1.252 . S
O1455 Eu1415 2.373 . S
O1455 C1471 1.249 . S
O1456 Eu1404 2.335 . S
O1456 C1471 1.264 . S
O1457 Eu1415 2.432 . S
O1457 C1479 1.268 . S
O1458 Eu1415 2.291 . S
O1458 C1478 1.255 . S
O1459 Eu1404 2.372 . S
O1459 C1478 1.257 . S
C1460 O1449 1.249 . S
C1460 O1450 1.264 . S
C1461 C1464 1.382 . S
C1461 C1466 1.390 . S
C1461 C1468 1.506 . S
C1462 C1463 1.398 . S
C1462 C1466 1.392 . S
C1463 C1462 1.398 . S
C1463 C1465 1.372 . S
C1463 H1480 0.931 . S
C1464 C1461 1.382 . S
C1464 C1465 1.390 . S
C1464 H1481 0.931 . S
C1465 C1463 1.372 . S
C1465 C1464 1.390 . S
C1465 H1482 0.929 . S
C1466 C1461 1.390 . S
C1466 C1462 1.392 . S
C1466 H1483 0.930 . S
C1467 O1452 1.255 . S
C1467 O1453 1.257 . S
C1468 Eu1404 2.787 . S
C1468 O1448 1.252 . S
C1468 O1451 1.268 . S
C1468 C1461 1.506 . S
C1469 C1436 1.439 . S
C1469 H1446 0.931 . S
C1469 C1470 1.374 . S
C1470 C1441 1.387 . S
C1470 H1447 0.931 . S
C1470 C1469 1.374 . S
C1471 O1455 1.249 . S
C1471 O1456 1.264 . S
C1472 C1475 1.382 . S
C1472 C1476 1.390 . S
C1472 C1479 1.506 . S
C1473 C1474 1.398 . S
C1473 C1476 1.392 . S
C1474 C1473 1.398 . S
C1474 C1477 1.372 . S
C1474 H1484 0.931 . S
C1475 C1472 1.382 . S
C1475 C1477 1.390 . S
C1475 H1485 0.931 . S
C1476 C1472 1.390 . S
C1476 C1473 1.392 . S
C1476 H1486 0.930 . S
C1477 C1474 1.372 . S
C1477 C1475 1.390 . S
C1477 H1487 0.929 . S
C1478 O1458 1.255 . S
C1478 O1459 1.257 . S
C1479 Eu1415 2.787 . S
C1479 O1454 1.252 . S
C1479 O1457 1.268 . S
C1479 C1472 1.506 . S
H1480 C1463 0.931 . S
H1481 C1464 0.931 . S
H1482 C1465 0.929 . S
H1483 C1466 0.930 . S
H1484 C1474 0.931 . S
H1485 C1475 0.931 . S
H1486 C1476 0.930 . S
H1487 C1477 0.929 . S
Eu1488 N1517 2.600 . S
Eu1488 N1523 2.562 . S
Eu1488 O1532 2.462 . S
Eu1488 O1533 2.373 . S
Eu1488 O1535 2.432 . S
Eu1488 O1536 2.291 . S
Eu1488 O1540 2.335 . S
Eu1488 O1543 2.372 . S
Eu1488 C1552 2.787 . S
C1489 N1490 1.365 . S
C1489 C1492 1.405 . S
C1489 C1496 1.448 . S
N1490 C1489 1.365 . S
N1490 C1493 1.319 . S
N1490 Eu1499 2.600 . S
C1491 C1493 1.397 . S
C1491 C1494 1.367 . S
C1491 H1511 0.931 . S
C1492 C1489 1.405 . S
C1492 C1494 1.403 . S
C1492 C1498 1.439 . S
C1493 N1490 1.319 . S
C1493 C1491 1.397 . S
C1493 H1504 0.930 . S
C1494 C1491 1.367 . S
C1494 C1492 1.403 . S
C1494 H1515 0.929 . S
C1495 C1496 1.430 . S
C1495 C1497 1.387 . S
C1495 C1501 1.404 . S
C1496 C1489 1.448 . S
C1496 C1495 1.430 . S
C1496 N1500 1.351 . S
C1497 C1495 1.387 . S
C1497 C1498 1.374 . S
C1497 H1512 0.931 . S
C1498 C1492 1.439 . S
C1498 C1497 1.374 . S
C1498 H1513 0.931 . S
Eu1499 N1490 2.600 . S
Eu1499 N1500 2.562 . S
Eu1499 O1534 2.335 . S
Eu1499 O1537 2.372 . S
Eu1499 O1538 2.462 . S
Eu1499 O1539 2.373 . S
Eu1499 O1541 2.432 . S
Eu1499 O1542 2.291 . S
Eu1499 C1563 2.787 . S
N1500 C1496 1.351 . S
N1500 Eu1499 2.562 . S
N1500 C1502 1.325 . S
C1501 C1495 1.404 . S
C1501 C1503 1.366 . S
C1501 H1509 0.930 . S
C1502 N1500 1.325 . S
C1502 C1503 1.416 . S
C1502 H1508 0.929 . S
C1503 C1501 1.366 . S
C1503 C1502 1.416 . S
C1503 H1505 0.930 . S
H1504 C1493 0.930 . S
H1505 C1503 0.930 . S
H1506 C1521 0.930 . S
H1507 C1528 0.930 . S
H1508 C1502 0.929 . S
H1509 C1501 0.930 . S
H1510 C1524 0.929 . S
H1511 C1491 0.931 . S
H1512 C1497 0.931 . S
H1513 C1498 0.931 . S
H1514 C1519 0.931 . S
H1515 C1494 0.929 . S
H1516 C1527 0.930 . S
N1517 Eu1488 2.600 . S
N1517 C1518 1.365 . S
N1517 C1521 1.319 . S
C1518 N1517 1.365 . S
C1518 C1520 1.405 . S
C1518 C1526 1.448 . S
C1519 H1514 0.931 . S
C1519 C1521 1.397 . S
C1519 C1522 1.367 . S
C1520 C1518 1.405 . S
C1520 C1522 1.403 . S
C1520 C1553 1.439 . S
C1521 H1506 0.930 . S
C1521 N1517 1.319 . S
C1521 C1519 1.397 . S
C1522 C1519 1.367 . S
C1522 C1520 1.403 . S
C1522 H1529 0.929 . S
N1523 Eu1488 2.562 . S
N1523 C1524 1.325 . S
N1523 C1526 1.351 . S
C1524 H1510 0.929 . S
C1524 N1523 1.325 . S
C1524 C1528 1.416 . S
C1525 C1526 1.430 . S
C1525 C1527 1.404 . S
C1525 C1554 1.387 . S
C1526 C1518 1.448 . S
C1526 N1523 1.351 . S
C1526 C1525 1.430 . S
C1527 H1516 0.930 . S
C1527 C1525 1.404 . S
C1527 C1528 1.366 . S
C1528 H1507 0.930 . S
C1528 C1524 1.416 . S
C1528 C1527 1.366 . S
H1529 C1522 0.929 . S
H1530 C1553 0.931 . S
H1531 C1554 0.931 . S
O1532 Eu1488 2.462 . S
O1532 C1552 1.252 . S
O1533 Eu1488 2.373 . S
O1533 C1544 1.249 . S
O1534 Eu1499 2.335 . S
O1534 C1544 1.264 . S
O1535 Eu1488 2.432 . S
O1535 C1552 1.268 . S
O1536 Eu1488 2.291 . S
O1536 C1551 1.255 . S
O1537 Eu1499 2.372 . S
O1537 C1551 1.257 . S
O1538 Eu1499 2.462 . S
O1538 C1563 1.252 . S
O1539 Eu1499 2.373 . S
O1539 C1555 1.249 . S
O1540 Eu1488 2.335 . S
O1540 C1555 1.264 . S
O1541 Eu1499 2.432 . S
O1541 C1563 1.268 . S
O1542 Eu1499 2.291 . S
O1542 C1562 1.255 . S
O1543 Eu1488 2.372 . S
O1543 C1562 1.257 . S
C1544 O1533 1.249 . S
C1544 O1534 1.264 . S
C1545 C1548 1.382 . S
C1545 C1550 1.390 . S
C1545 C1552 1.506 . S
C1546 C1547 1.398 . S
C1546 C1550 1.392 . S
C1547 C1546 1.398 . S
C1547 C1549 1.372 . S
C1547 H1564 0.931 . S
C1548 C1545 1.382 . S
C1548 C1549 1.390 . S
C1548 H1565 0.931 . S
C1549 C1547 1.372 . S
C1549 C1548 1.390 . S
C1549 H1566 0.929 . S
C1550 C1545 1.390 . S
C1550 C1546 1.392 . S
C1550 H1567 0.930 . S
C1551 O1536 1.255 . S
C1551 O1537 1.257 . S
C1552 Eu1488 2.787 . S
C1552 O1532 1.252 . S
C1552 O1535 1.268 . S
C1552 C1545 1.506 . S
C1553 C1520 1.439 . S
C1553 H1530 0.931 . S
C1553 C1554 1.374 . S
C1554 C1525 1.387 . S
C1554 H1531 0.931 . S
C1554 C1553 1.374 . S
C1555 O1539 1.249 . S
C1555 O1540 1.264 . S
C1556 C1559 1.382 . S
C1556 C1560 1.390 . S
C1556 C1563 1.506 . S
C1557 C1558 1.398 . S
C1557 C1560 1.392 . S
C1558 C1557 1.398 . S
C1558 C1561 1.372 . S
C1558 H1568 0.931 . S
C1559 C1556 1.382 . S
C1559 C1561 1.390 . S
C1559 H1569 0.931 . S
C1560 C1556 1.390 . S
C1560 C1557 1.392 . S
C1560 H1570 0.930 . S
C1561 C1558 1.372 . S
C1561 C1559 1.390 . S
C1561 H1571 0.929 . S
C1562 O1542 1.255 . S
C1562 O1543 1.257 . S
C1563 Eu1499 2.787 . S
C1563 O1538 1.252 . S
C1563 O1541 1.268 . S
C1563 C1556 1.506 . S
H1564 C1547 0.931 . S
H1565 C1548 0.931 . S
H1566 C1549 0.929 . S
H1567 C1550 0.930 . S
H1568 C1558 0.931 . S
H1569 C1559 0.931 . S
H1570 C1560 0.930 . S
H1571 C1561 0.929 . S
Eu1572 N1601 2.600 1_455 S
Eu1572 N1607 2.562 1_455 S
Eu1572 O1616 2.462 1_455 S
Eu1572 O1617 2.373 . S
Eu1572 O1619 2.432 1_455 S
Eu1572 O1620 2.277 1_554 S
Eu1572 O1624 2.335 . S
Eu1572 O1627 2.372 . S
Eu1572 C1636 2.787 1_455 S
C1573 N1574 1.365 . S
C1573 C1576 1.405 . S
C1573 C1580 1.448 1_556 S
N1574 C1573 1.365 . S
N1574 C1577 1.319 . S
N1574 Eu1583 2.600 1_556 S
C1575 C1577 1.397 . S
C1575 C1578 1.367 . S
C1575 H1595 0.931 . S
C1576 C1573 1.405 . S
C1576 C1578 1.403 . S
C1576 C1582 1.439 . S
C1577 N1574 1.319 . S
C1577 C1575 1.397 . S
C1577 H1588 0.930 . S
C1578 C1575 1.367 . S
C1578 C1576 1.403 . S
C1578 H1599 0.929 . S
C1579 C1580 1.430 . S
C1579 C1581 1.387 1_554 S
C1579 C1585 1.404 . S
C1580 C1573 1.448 1_554 S
C1580 C1579 1.430 . S
C1580 N1584 1.351 . S
C1581 C1579 1.387 1_556 S
C1581 C1582 1.374 . S
C1581 H1596 0.931 1_556 S
C1582 C1576 1.439 . S
C1582 C1581 1.374 . S
C1582 H1597 0.931 . S
Eu1583 N1574 2.600 1_554 S
Eu1583 N1584 2.562 . S
Eu1583 O1618 2.335 . S
Eu1583 O1621 2.372 1_554 S
Eu1583 O1622 2.462 . S
Eu1583 O1623 2.373 . S
Eu1583 O1625 2.432 1_554 S
Eu1583 O1626 2.291 . S
Eu1583 C1647 2.787 1_554 S
N1584 C1580 1.351 . S
N1584 Eu1583 2.562 . S
N1584 C1586 1.325 . S
C1585 C1579 1.404 . S
C1585 C1587 1.366 . S
C1585 H1593 0.930 . S
C1586 N1584 1.325 . S
C1586 C1587 1.416 . S
C1586 H1592 0.929 . S
C1587 C1585 1.366 . S
C1587 C1586 1.416 . S
C1587 H1589 0.930 . S
H1588 C1577 0.930 . S
H1589 C1587 0.930 . S
H1590 C1605 0.913 1_455 S
H1591 C1612 0.930 . S
H1592 C1586 0.929 . S
H1593 C1585 0.930 . S
H1594 C1608 0.929 1_556 S
H1595 C1575 0.931 . S
H1596 C1581 0.931 1_554 S
H1597 C1582 0.931 . S
H1598 C1603 0.931 1_455 S
H1599 C1578 0.929 . S
H1600 C1611 0.930 . S
N1601 Eu1572 2.600 1_655 S
N1601 C1602 1.365 . S
N1601 C1605 1.330 . S
C1602 N1601 1.365 . S
C1602 C1604 1.405 . S
C1602 C1610 1.448 . S
C1603 H1598 0.931 1_655 S
C1603 C1605 1.403 . S
C1603 C1606 1.367 . S
C1604 C1602 1.405 . S
C1604 C1606 1.403 . S
C1604 C1637 1.439 . S
C1605 H1590 0.913 1_655 S
C1605 N1601 1.330 . S
C1605 C1603 1.403 . S
C1606 C1603 1.367 . S
C1606 C1604 1.403 . S
C1606 H1613 0.929 . S
N1607 Eu1572 2.562 1_655 S
N1607 C1608 1.325 . S
N1607 C1610 1.351 . S
C1608 H1594 0.929 1_554 S
C1608 N1607 1.325 . S
C1608 C1612 1.416 1_554 S
C1609 C1610 1.430 . S
C1609 C1611 1.404 . S
C1609 C1638 1.387 . S
C1610 C1602 1.448 . S
C1610 N1607 1.351 . S
C1610 C1609 1.430 . S
C1611 H1600 0.930 . S
C1611 C1609 1.404 . S
C1611 C1612 1.366 1_554 S
C1612 H1591 0.930 . S
C1612 C1608 1.416 1_556 S
C1612 C1611 1.366 1_556 S
H1613 C1606 0.929 . S
H1614 C1637 0.931 . S
H1615 C1638 0.931 . S
O1616 Eu1572 2.462 1_655 S
O1616 C1636 1.252 . S
O1617 Eu1572 2.373 . S
O1617 C1628 1.249 . S
O1618 Eu1583 2.335 . S
O1618 C1628 1.264 . S
O1619 Eu1572 2.432 1_655 S
O1619 C1636 1.268 . S
O1620 Eu1572 2.277 1_556 S
O1620 C1635 1.269 . S
O1621 Eu1583 2.372 1_556 S
O1621 C1635 1.257 . S
O1622 Eu1583 2.462 . S
O1622 C1647 1.252 1_554 S
O1623 Eu1583 2.373 . S
O1623 C1639 1.249 . S
O1624 Eu1572 2.335 . S
O1624 C1639 1.264 . S
O1625 Eu1583 2.432 1_556 S
O1625 C1647 1.268 . S
O1626 Eu1583 2.291 . S
O1626 C1646 1.255 . S
O1627 Eu1572 2.372 . S
O1627 C1646 1.257 . S
C1628 O1617 1.249 . S
C1628 O1618 1.264 . S
C1629 C1632 1.382 . S
C1629 C1634 1.390 . S
C1629 C1636 1.506 . S
C1630 C1631 1.398 . S
C1630 C1634 1.392 . S
C1631 C1630 1.398 . S
C1631 C1633 1.372 . S
C1631 H1648 0.931 . S
C1632 C1629 1.382 . S
C1632 C1633 1.390 . S
C1632 H1649 0.931 . S
C1633 C1631 1.372 . S
C1633 C1632 1.390 . S
C1633 H1650 0.929 . S
C1634 C1629 1.390 . S
C1634 C1630 1.392 . S
C1634 H1651 0.930 . S
C1635 O1620 1.269 . S
C1635 O1621 1.257 . S
C1636 Eu1572 2.787 1_655 S
C1636 O1616 1.252 . S
C1636 O1619 1.268 . S
C1636 C1629 1.506 . S
C1637 C1604 1.439 . S
C1637 H1614 0.931 . S
C1637 C1638 1.374 . S
C1638 C1609 1.387 . S
C1638 H1615 0.931 . S
C1638 C1637 1.374 . S
C1639 O1623 1.249 . S
C1639 O1624 1.264 . S
C1640 C1643 1.382 . S
C1640 C1644 1.390 1_556 S
C1640 C1647 1.506 . S
C1641 C1642 1.398 1_554 S
C1641 C1644 1.392 . S
C1642 C1641 1.398 1_556 S
C1642 C1645 1.372 . S
C1642 H1652 0.931 . S
C1643 C1640 1.382 . S
C1643 C1645 1.390 . S
C1643 H1653 0.931 . S
C1644 C1640 1.390 1_554 S
C1644 C1641 1.392 . S
C1644 H1654 0.930 . S
C1645 C1642 1.372 . S
C1645 C1643 1.390 . S
C1645 H1655 0.929 . S
C1646 O1626 1.255 . S
C1646 O1627 1.257 . S
C1647 Eu1583 2.787 1_556 S
C1647 O1622 1.252 1_556 S
C1647 O1625 1.268 . S
C1647 C1640 1.506 . S
H1648 C1631 0.931 . S
H1649 C1632 0.931 . S
H1650 C1633 0.929 . S
H1651 C1634 0.930 . S
H1652 C1642 0.931 . S
H1653 C1643 0.931 . S
H1654 C1644 0.930 . S
H1655 C1645 0.929 . S
C1656 C1657 1.349 1_455 S
C1656 C1658 1.327 . S
C1656 H1681 0.950 . S
C1657 C1656 1.349 1_655 S
C1657 C1673 1.349 . S
C1658 C1656 1.327 . S
C1658 C1677 1.429 . S
C1658 H1682 0.950 1_556 S
C1659 C1676 1.574 . S
C1659 C1678 1.368 . S
C1659 H1683 0.955 . S
H1660 C1664 0.949 . S
C1661 C1662 1.349 1_556 S
C1661 C1663 1.327 . S
C1661 H1684 0.950 . S
C1662 C1661 1.349 1_554 S
C1662 C1674 1.349 . S
C1663 C1661 1.327 . S
C1663 C1679 1.429 . S
C1663 H1685 0.950 . S
C1664 H1660 0.949 . S
C1664 C1672 1.587 . S
C1664 C1680 1.368 1_554 S
H1665 C1673 0.950 . S
H1666 C1671 0.950 . S
H1667 C1672 0.972 . S
H1668 C1674 0.950 . S
H1669 C1675 0.950 . S
H1670 C1676 0.949 . S
C1671 H1666 0.950 . S
C1671 C1673 1.327 . S
C1671 C1677 1.429 1_655 S
C1672 C1664 1.587 . S
C1672 H1667 0.972 . S
C1672 C1678 1.330 1_554 S
C1673 C1657 1.349 . S
C1673 H1665 0.950 . S
C1673 C1671 1.327 . S
C1674 C1662 1.349 . S
C1674 H1668 0.950 . S
C1674 C1675 1.327 . S
C1675 H1669 0.950 . S
C1675 C1674 1.327 . S
C1675 C1679 1.429 1_554 S
C1676 C1659 1.574 . S
C1676 H1670 0.949 . S
C1676 C1680 1.368 . S
C1677 C1658 1.429 . S
C1677 C1671 1.429 1_455 S
C1677 C1678 1.523 . S
C1678 C1659 1.368 . S
C1678 C1672 1.330 1_556 S
C1678 C1677 1.523 . S
C1679 C1663 1.429 . S
C1679 C1675 1.429 1_556 S
C1679 C1680 1.523 . S
C1680 C1664 1.368 1_556 S
C1680 C1676 1.368 . S
C1680 C1679 1.523 . S
H1681 C1656 0.950 . S
H1682 C1658 0.950 1_554 S
H1683 C1659 0.955 . S
H1684 C1661 0.950 . S
H1685 C1663 0.950 . S
C1686 C1687 1.349 . S
C1686 C1688 1.327 . S
C1686 H1711 0.950 . S
C1687 C1686 1.349 . S
C1687 C1703 1.349 . S
C1688 C1686 1.327 . S
C1688 C1707 1.429 . S
C1688 H1712 0.950 . S
C1689 C1706 1.574 . S
C1689 C1708 1.368 . S
C1689 H1713 0.949 . S
H1690 C1694 0.949 . S
C1691 C1692 1.349 . S
C1691 C1693 1.327 . S
C1691 H1714 0.950 . S
C1692 C1691 1.349 . S
C1692 C1704 1.349 . S
C1693 C1691 1.327 . S
C1693 C1709 1.429 . S
C1693 H1715 0.950 . S
C1694 H1690 0.949 . S
C1694 C1702 1.574 . S
C1694 C1710 1.368 . S
H1695 C1703 0.950 . S
H1696 C1701 0.950 . S
H1697 C1702 0.949 . S
H1698 C1704 0.950 . S
H1699 C1705 0.950 . S
H1700 C1706 0.949 . S
C1701 H1696 0.950 . S
C1701 C1703 1.327 . S
C1701 C1707 1.429 . S
C1702 C1694 1.574 . S
C1702 H1697 0.949 . S
C1702 C1708 1.368 . S
C1703 C1687 1.349 . S
C1703 H1695 0.950 . S
C1703 C1701 1.327 . S
C1704 C1692 1.349 . S
C1704 H1698 0.950 . S
C1704 C1705 1.327 . S
C1705 H1699 0.950 . S
C1705 C1704 1.327 . S
C1705 C1709 1.429 . S
C1706 C1689 1.574 . S
C1706 H1700 0.949 . S
C1706 C1710 1.368 . S
C1707 C1688 1.429 . S
C1707 C1701 1.429 . S
C1707 C1708 1.523 . S
C1708 C1689 1.368 . S
C1708 C1702 1.368 . S
C1708 C1707 1.523 . S
C1709 C1693 1.429 . S
C1709 C1705 1.429 . S
C1709 C1710 1.523 . S
C1710 C1694 1.368 . S
C1710 C1706 1.368 . S
C1710 C1709 1.523 . S
H1711 C1686 0.950 . S
H1712 C1688 0.950 . S
H1713 C1689 0.949 . S
H1714 C1691 0.950 . S
H1715 C1693 0.950 . S
C1716 C1717 1.349 . S
C1716 C1718 1.327 . S
C1716 H1741 0.950 . S
C1717 C1716 1.349 . S
C1717 C1733 1.349 . S
C1718 C1716 1.327 . S
C1718 C1737 1.429 . S
C1718 H1742 0.950 . S
C1719 C1736 1.574 . S
C1719 C1738 1.368 . S
C1719 H1743 0.949 . S
H1720 C1724 0.949 . S
C1721 C1722 1.349 . S
C1721 C1723 1.327 . S
C1721 H1744 0.950 . S
C1722 C1721 1.349 . S
C1722 C1734 1.349 . S
C1723 C1721 1.327 . S
C1723 C1739 1.429 . S
C1723 H1745 0.950 . S
C1724 H1720 0.949 . S
C1724 C1732 1.574 . S
C1724 C1740 1.368 . S
H1725 C1733 0.950 . S
H1726 C1731 0.950 . S
H1727 C1732 0.949 . S
H1728 C1734 0.950 . S
H1729 C1735 0.950 . S
H1730 C1736 0.949 . S
C1731 H1726 0.950 . S
C1731 C1733 1.327 . S
C1731 C1737 1.429 . S
C1732 C1724 1.574 . S
C1732 H1727 0.949 . S
C1732 C1738 1.368 . S
C1733 C1717 1.349 . S
C1733 H1725 0.950 . S
C1733 C1731 1.327 . S
C1734 C1722 1.349 . S
C1734 H1728 0.950 . S
C1734 C1735 1.327 . S
C1735 H1729 0.950 . S
C1735 C1734 1.327 . S
C1735 C1739 1.429 . S
C1736 C1719 1.574 . S
C1736 H1730 0.949 . S
C1736 C1740 1.368 . S
C1737 C1718 1.429 . S
C1737 C1731 1.429 . S
C1737 C1738 1.523 . S
C1738 C1719 1.368 . S
C1738 C1732 1.368 . S
C1738 C1737 1.523 . S
C1739 C1723 1.429 . S
C1739 C1735 1.429 . S
C1739 C1740 1.523 . S
C1740 C1724 1.368 . S
C1740 C1736 1.368 . S
C1740 C1739 1.523 . S
H1741 C1716 0.950 . S
H1742 C1718 0.950 . S
H1743 C1719 0.949 . S
H1744 C1721 0.950 . S
H1745 C1723 0.950 . S
C1746 C1747 1.349 . S
C1746 C1748 1.327 . S
C1746 H1771 0.950 . S
C1747 C1746 1.349 . S
C1747 C1763 1.349 . S
C1748 C1746 1.327 . S
C1748 C1767 1.429 . S
C1748 H1772 0.950 . S
C1749 C1766 1.574 . S
C1749 C1768 1.368 . S
C1749 H1773 0.949 . S
H1750 C1754 0.949 . S
C1751 C1752 1.349 . S
C1751 C1753 1.327 . S
C1751 H1774 0.950 . S
C1752 C1751 1.349 . S
C1752 C1764 1.349 . S
C1753 C1751 1.327 . S
C1753 C1769 1.429 . S
C1753 H1775 0.950 . S
C1754 H1750 0.949 . S
C1754 C1762 1.574 . S
C1754 C1770 1.368 . S
H1755 C1763 0.950 . S
H1756 C1761 0.950 . S
H1757 C1762 0.949 . S
H1758 C1764 0.950 . S
H1759 C1765 0.950 . S
H1760 C1766 0.949 . S
C1761 H1756 0.950 . S
C1761 C1763 1.327 . S
C1761 C1767 1.429 . S
C1762 C1754 1.574 . S
C1762 H1757 0.949 . S
C1762 C1768 1.368 . S
C1763 C1747 1.349 . S
C1763 H1755 0.950 . S
C1763 C1761 1.327 . S
C1764 C1752 1.349 . S
C1764 H1758 0.950 . S
C1764 C1765 1.327 . S
C1765 H1759 0.950 . S
C1765 C1764 1.327 . S
C1765 C1769 1.429 . S
C1766 C1749 1.574 . S
C1766 H1760 0.949 . S
C1766 C1770 1.368 . S
C1767 C1748 1.429 . S
C1767 C1761 1.429 . S
C1767 C1768 1.523 . S
C1768 C1749 1.368 . S
C1768 C1762 1.368 . S
C1768 C1767 1.523 . S
C1769 C1753 1.429 . S
C1769 C1765 1.429 . S
C1769 C1770 1.523 . S
C1770 C1754 1.368 . S
C1770 C1766 1.368 . S
C1770 C1769 1.523 . S
H1771 C1746 0.950 . S
H1772 C1748 0.950 . S
H1773 C1749 0.949 . S
H1774 C1751 0.950 . S
H1775 C1753 0.950 . S
C1776 C1777 1.349 . S
C1776 C1778 1.327 . S
C1776 H1801 0.950 . S
C1777 C1776 1.349 . S
C1777 C1793 1.349 . S
C1778 C1776 1.327 . S
C1778 C1797 1.429 . S
C1778 H1802 0.950 . S
C1779 C1796 1.574 . S
C1779 C1798 1.368 . S
C1779 H1803 0.949 . S
H1780 C1784 0.949 . S
C1781 C1782 1.349 . S
C1781 C1783 1.327 . S
C1781 H1804 0.950 . S
C1782 C1781 1.349 . S
C1782 C1794 1.349 . S
C1783 C1781 1.327 . S
C1783 C1799 1.429 . S
C1783 H1805 0.950 . S
C1784 H1780 0.949 . S
C1784 C1792 1.574 . S
C1784 C1800 1.368 . S
H1785 C1793 0.950 . S
H1786 C1791 0.950 . S
H1787 C1792 0.949 . S
H1788 C1794 0.950 . S
H1789 C1795 0.950 . S
H1790 C1796 0.949 . S
C1791 H1786 0.950 . S
C1791 C1793 1.327 . S
C1791 C1797 1.429 . S
C1792 C1784 1.574 . S
C1792 H1787 0.949 . S
C1792 C1798 1.368 . S
C1793 C1777 1.349 . S
C1793 H1785 0.950 . S
C1793 C1791 1.327 . S
C1794 C1782 1.349 . S
C1794 H1788 0.950 . S
C1794 C1795 1.327 . S
C1795 H1789 0.950 . S
C1795 C1794 1.327 . S
C1795 C1799 1.429 . S
C1796 C1779 1.574 . S
C1796 H1790 0.949 . S
C1796 C1800 1.368 . S
C1797 C1778 1.429 . S
C1797 C1791 1.429 . S
C1797 C1798 1.523 . S
C1798 C1779 1.368 . S
C1798 C1792 1.368 . S
C1798 C1797 1.523 . S
C1799 C1783 1.429 . S
C1799 C1795 1.429 . S
C1799 C1800 1.523 . S
C1800 C1784 1.368 . S
C1800 C1796 1.368 . S
C1800 C1799 1.523 . S
H1801 C1776 0.950 . S
H1802 C1778 0.950 . S
H1803 C1779 0.949 . S
H1804 C1781 0.950 . S
H1805 C1783 0.950 . S
C1806 C1807 1.349 . S
C1806 C1808 1.327 . S
C1806 H1831 0.950 . S
C1807 C1806 1.349 . S
C1807 C1823 1.349 . S
C1808 C1806 1.327 . S
C1808 C1827 1.429 . S
C1808 H1832 0.950 . S
C1809 C1826 1.574 . S
C1809 C1828 1.368 . S
C1809 H1833 0.949 . S
H1810 C1814 0.949 . S
C1811 C1812 1.349 . S
C1811 C1813 1.327 . S
C1811 H1834 0.950 . S
C1812 C1811 1.349 . S
C1812 C1824 1.349 . S
C1813 C1811 1.327 . S
C1813 C1829 1.429 . S
C1813 H1835 0.950 . S
C1814 H1810 0.949 . S
C1814 C1822 1.574 . S
C1814 C1830 1.368 . S
H1815 C1823 0.950 . S
H1816 C1821 0.950 . S
H1817 C1822 0.949 . S
H1818 C1824 0.950 . S
H1819 C1825 0.950 . S
H1820 C1826 0.949 . S
C1821 H1816 0.950 . S
C1821 C1823 1.327 . S
C1821 C1827 1.429 . S
C1822 C1814 1.574 . S
C1822 H1817 0.949 . S
C1822 C1828 1.368 . S
C1823 C1807 1.349 . S
C1823 H1815 0.950 . S
C1823 C1821 1.327 . S
C1824 C1812 1.349 . S
C1824 H1818 0.950 . S
C1824 C1825 1.327 . S
C1825 H1819 0.950 . S
C1825 C1824 1.327 . S
C1825 C1829 1.429 . S
C1826 C1809 1.574 . S
C1826 H1820 0.949 . S
C1826 C1830 1.368 . S
C1827 C1808 1.429 . S
C1827 C1821 1.429 . S
C1827 C1828 1.523 . S
C1828 C1809 1.368 . S
C1828 C1822 1.368 . S
C1828 C1827 1.523 . S
C1829 C1813 1.429 . S
C1829 C1825 1.429 . S
C1829 C1830 1.523 . S
C1830 C1814 1.368 . S
C1830 C1826 1.368 . S
C1830 C1829 1.523 . S
H1831 C1806 0.950 . S
H1832 C1808 0.950 . S
H1833 C1809 0.949 . S
H1834 C1811 0.950 . S
H1835 C1813 0.950 . S
C1836 C1837 1.349 . S
C1836 C1838 1.327 . S
C1836 H1861 0.950 . S
C1837 C1836 1.349 . S
C1837 C1853 1.349 . S
C1838 C1836 1.327 . S
C1838 C1857 1.429 . S
C1838 H1862 0.950 . S
C1839 C1856 1.574 . S
C1839 C1858 1.368 . S
C1839 H1863 0.949 . S
H1840 C1844 0.949 . S
C1841 C1842 1.349 . S
C1841 C1843 1.327 . S
C1841 H1864 0.950 . S
C1842 C1841 1.349 . S
C1842 C1854 1.349 . S
C1843 C1841 1.327 . S
C1843 C1859 1.429 . S
C1843 H1865 0.950 . S
C1844 H1840 0.949 . S
C1844 C1852 1.574 . S
C1844 C1860 1.368 . S
H1845 C1853 0.950 . S
H1846 C1851 0.950 . S
H1847 C1852 0.949 . S
H1848 C1854 0.950 . S
H1849 C1855 0.950 . S
H1850 C1856 0.949 . S
C1851 H1846 0.950 . S
C1851 C1853 1.327 . S
C1851 C1857 1.429 . S
C1852 C1844 1.574 . S
C1852 H1847 0.949 . S
C1852 C1858 1.368 . S
C1853 C1837 1.349 . S
C1853 H1845 0.950 . S
C1853 C1851 1.327 . S
C1854 C1842 1.349 . S
C1854 H1848 0.950 . S
C1854 C1855 1.327 . S
C1855 H1849 0.950 . S
C1855 C1854 1.327 . S
C1855 C1859 1.429 . S
C1856 C1839 1.574 . S
C1856 H1850 0.949 . S
C1856 C1860 1.368 . S
C1857 C1838 1.429 . S
C1857 C1851 1.429 . S
C1857 C1858 1.523 . S
C1858 C1839 1.368 . S
C1858 C1852 1.368 . S
C1858 C1857 1.523 . S
C1859 C1843 1.429 . S
C1859 C1855 1.429 . S
C1859 C1860 1.523 . S
C1860 C1844 1.368 . S
C1860 C1856 1.368 . S
C1860 C1859 1.523 . S
H1861 C1836 0.950 . S
H1862 C1838 0.950 . S
H1863 C1839 0.949 . S
H1864 C1841 0.950 . S
H1865 C1843 0.950 . S
C1866 C1867 1.349 . S
C1866 C1868 1.327 . S
C1866 H1891 0.950 . S
C1867 C1866 1.349 . S
C1867 C1883 1.349 . S
C1868 C1866 1.327 . S
C1868 C1887 1.429 . S
C1868 H1892 0.950 . S
C1869 C1886 1.574 . S
C1869 C1888 1.368 . S
C1869 H1893 0.949 . S
H1870 C1874 0.949 . S
C1871 C1872 1.349 . S
C1871 C1873 1.327 . S
C1871 H1894 0.950 . S
C1872 C1871 1.349 . S
C1872 C1884 1.349 . S
C1873 C1871 1.327 . S
C1873 C1889 1.429 . S
C1873 H1895 0.950 . S
C1874 H1870 0.949 . S
C1874 C1882 1.574 . S
C1874 C1890 1.368 . S
H1875 C1883 0.950 . S
H1876 C1881 0.950 . S
H1877 C1882 0.949 . S
H1878 C1884 0.950 . S
H1879 C1885 0.950 . S
H1880 C1886 0.949 . S
C1881 H1876 0.950 . S
C1881 C1883 1.327 . S
C1881 C1887 1.429 . S
C1882 C1874 1.574 . S
C1882 H1877 0.949 . S
C1882 C1888 1.368 . S
C1883 C1867 1.349 . S
C1883 H1875 0.950 . S
C1883 C1881 1.327 . S
C1884 C1872 1.349 . S
C1884 H1878 0.950 . S
C1884 C1885 1.327 . S
C1885 H1879 0.950 . S
C1885 C1884 1.327 . S
C1885 C1889 1.429 . S
C1886 C1869 1.574 . S
C1886 H1880 0.949 . S
C1886 C1890 1.368 . S
C1887 C1868 1.429 . S
C1887 C1881 1.429 . S
C1887 C1888 1.523 . S
C1888 C1869 1.368 . S
C1888 C1882 1.368 . S
C1888 C1887 1.523 . S
C1889 C1873 1.429 . S
C1889 C1885 1.429 . S
C1889 C1890 1.523 . S
C1890 C1874 1.368 . S
C1890 C1886 1.368 . S
C1890 C1889 1.523 . S
H1891 C1866 0.950 . S
H1892 C1868 0.950 . S
H1893 C1869 0.949 . S
H1894 C1871 0.950 . S
H1895 C1873 0.950 . S
C1896 C1897 1.349 . S
C1896 C1898 1.327 . S
C1896 H1921 0.950 1_545 S
C1897 C1896 1.349 . S
C1897 C1913 1.349 . S
C1898 C1896 1.327 . S
C1898 C1917 1.429 . S
C1898 H1922 0.950 1_545 S
C1899 C1916 1.574 . S
C1899 C1918 1.368 . S
C1899 H1923 0.949 . S
H1900 C1904 0.949 1_565 S
C1901 C1902 1.349 . S
C1901 C1903 1.350 . S
C1901 H1924 0.950 . S
C1902 C1901 1.349 . S
C1902 C1914 1.349 1_455 S
C1903 C1901 1.350 . S
C1903 C1919 1.400 1_455 S
C1903 H1925 0.958 . S
C1904 H1900 0.949 1_545 S
C1904 C1912 1.574 . S
C1904 C1920 1.368 . S
H1905 C1913 0.950 . S
H1906 C1911 0.950 . S
H1907 C1912 0.949 1_565 S
H1908 C1914 0.950 . S
H1909 C1915 0.911 1_565 S
H1910 C1916 0.949 . S
C1911 H1906 0.950 . S
C1911 C1913 1.327 . S
C1911 C1917 1.429 . S
C1912 C1904 1.574 . S
C1912 H1907 0.949 1_545 S
C1912 C1918 1.368 . S
C1913 C1897 1.349 . S
C1913 H1905 0.950 . S
C1913 C1911 1.327 . S
C1914 C1902 1.349 1_655 S
C1914 H1908 0.950 . S
C1914 C1915 1.327 . S
C1915 H1909 0.911 1_545 S
C1915 C1914 1.327 . S
C1915 C1919 1.429 . S
C1916 C1899 1.574 . S
C1916 H1910 0.949 . S
C1916 C1920 1.368 . S
C1917 C1898 1.429 . S
C1917 C1911 1.429 . S
C1917 C1918 1.523 . S
C1918 C1899 1.368 . S
C1918 C1912 1.368 . S
C1918 C1917 1.523 . S
C1919 C1903 1.400 1_655 S
C1919 C1915 1.429 . S
C1919 C1920 1.523 . S
C1920 C1904 1.368 . S
C1920 C1916 1.368 . S
C1920 C1919 1.523 . S
H1921 C1896 0.950 1_565 S
H1922 C1898 0.950 1_565 S
H1923 C1899 0.949 . S
H1924 C1901 0.950 . S
H1925 C1903 0.958 . S
C1926 C1927 1.349 . S
C1926 C1928 1.327 . S
C1926 H1951 0.950 . S
C1927 C1926 1.349 . S
C1927 C1943 1.349 . S
C1928 C1926 1.327 . S
C1928 C1947 1.429 . S
C1928 H1952 0.950 . S
C1929 C1946 1.574 . S
C1929 C1948 1.368 . S
C1929 H1953 0.949 . S
H1930 C1934 0.949 . S
C1931 C1932 1.349 . S
C1931 C1933 1.327 . S
C1931 H1954 0.950 . S
C1932 C1931 1.349 . S
C1932 C1944 1.349 . S
C1933 C1931 1.327 . S
C1933 C1949 1.429 . S
C1933 H1955 0.950 . S
C1934 H1930 0.949 . S
C1934 C1942 1.574 . S
C1934 C1950 1.368 . S
H1935 C1943 0.950 . S
H1936 C1941 0.950 . S
H1937 C1942 0.949 . S
H1938 C1944 0.950 . S
H1939 C1945 0.950 . S
H1940 C1946 0.949 . S
C1941 H1936 0.950 . S
C1941 C1943 1.327 . S
C1941 C1947 1.429 . S
C1942 C1934 1.574 . S
C1942 H1937 0.949 . S
C1942 C1948 1.368 . S
C1943 C1927 1.349 . S
C1943 H1935 0.950 . S
C1943 C1941 1.327 . S
C1944 C1932 1.349 . S
C1944 H1938 0.950 . S
C1944 C1945 1.327 . S
C1945 H1939 0.950 . S
C1945 C1944 1.327 . S
C1945 C1949 1.429 . S
C1946 C1929 1.574 . S
C1946 H1940 0.949 . S
C1946 C1950 1.368 . S
C1947 C1928 1.429 . S
C1947 C1941 1.429 . S
C1947 C1948 1.523 . S
C1948 C1929 1.368 . S
C1948 C1942 1.368 . S
C1948 C1947 1.523 . S
C1949 C1933 1.429 . S
C1949 C1945 1.429 . S
C1949 C1950 1.523 . S
C1950 C1934 1.368 . S
C1950 C1946 1.368 . S
C1950 C1949 1.523 . S
H1951 C1926 0.950 . S
H1952 C1928 0.950 . S
H1953 C1929 0.949 . S
H1954 C1931 0.950 . S
H1955 C1933 0.950 . S
C1956 C1957 1.349 . S
C1956 C1958 1.327 . S
C1956 H1981 0.950 . S
C1957 C1956 1.349 . S
C1957 C1973 1.349 . S
C1958 C1956 1.327 . S
C1958 C1977 1.429 . S
C1958 H1982 0.950 . S
C1959 C1976 1.574 . S
C1959 C1978 1.368 . S
C1959 H1983 0.949 . S
H1960 C1964 0.949 . S
C1961 C1962 1.349 . S
C1961 C1963 1.327 . S
C1961 H1984 0.950 . S
C1962 C1961 1.349 . S
C1962 C1974 1.349 . S
C1963 C1961 1.327 . S
C1963 C1979 1.429 . S
C1963 H1985 0.950 . S
C1964 H1960 0.949 . S
C1964 C1972 1.574 . S
C1964 C1980 1.368 . S
H1965 C1973 0.950 . S
H1966 C1971 0.950 . S
H1967 C1972 0.949 . S
H1968 C1974 0.950 . S
H1969 C1975 0.950 . S
H1970 C1976 0.949 . S
C1971 H1966 0.950 . S
C1971 C1973 1.327 . S
C1971 C1977 1.429 . S
C1972 C1964 1.574 . S
C1972 H1967 0.949 . S
C1972 C1978 1.368 . S
C1973 C1957 1.349 . S
C1973 H1965 0.950 . S
C1973 C1971 1.327 . S
C1974 C1962 1.349 . S
C1974 H1968 0.950 . S
C1974 C1975 1.327 . S
C1975 H1969 0.950 . S
C1975 C1974 1.327 . S
C1975 C1979 1.429 . S
C1976 C1959 1.574 . S
C1976 H1970 0.949 . S
C1976 C1980 1.368 . S
C1977 C1958 1.429 . S
C1977 C1971 1.429 . S
C1977 C1978 1.523 . S
C1978 C1959 1.368 . S
C1978 C1972 1.368 . S
C1978 C1977 1.523 . S
C1979 C1963 1.429 . S
C1979 C1975 1.429 . S
C1979 C1980 1.523 . S
C1980 C1964 1.368 . S
C1980 C1976 1.368 . S
C1980 C1979 1.523 . S
H1981 C1956 0.950 . S
H1982 C1958 0.950 . S
H1983 C1959 0.949 . S
H1984 C1961 0.950 . S
H1985 C1963 0.950 . S
C1986 C1987 1.349 . S
C1986 C1988 1.327 . S
C1986 H2011 0.950 . S
C1987 C1986 1.349 . S
C1987 C2003 1.349 . S
C1988 C1986 1.327 . S
C1988 C2007 1.429 . S
C1988 H2012 0.950 . S
C1989 C2006 1.574 . S
C1989 C2008 1.368 . S
C1989 H2013 0.949 . S
H1990 C1994 0.949 . S
C1991 C1992 1.349 . S
C1991 C1993 1.327 . S
C1991 H2014 0.950 . S
C1992 C1991 1.349 . S
C1992 C2004 1.349 . S
C1993 C1991 1.327 . S
C1993 C2009 1.429 . S
C1993 H2015 0.950 . S
C1994 H1990 0.949 . S
C1994 C2002 1.574 . S
C1994 C2010 1.368 . S
H1995 C2003 0.950 . S
H1996 C2001 0.950 . S
H1997 C2002 0.949 . S
H1998 C2004 0.950 . S
H1999 C2005 0.950 . S
H2000 C2006 0.949 . S
C2001 H1996 0.950 . S
C2001 C2003 1.327 . S
C2001 C2007 1.429 . S
C2002 C1994 1.574 . S
C2002 H1997 0.949 . S
C2002 C2008 1.368 . S
C2003 C1987 1.349 . S
C2003 H1995 0.950 . S
C2003 C2001 1.327 . S
C2004 C1992 1.349 . S
C2004 H1998 0.950 . S
C2004 C2005 1.327 . S
C2005 H1999 0.950 . S
C2005 C2004 1.327 . S
C2005 C2009 1.429 . S
C2006 C1989 1.574 . S
C2006 H2000 0.949 . S
C2006 C2010 1.368 . S
C2007 C1988 1.429 . S
C2007 C2001 1.429 . S
C2007 C2008 1.523 . S
C2008 C1989 1.368 . S
C2008 C2002 1.368 . S
C2008 C2007 1.523 . S
C2009 C1993 1.429 . S
C2009 C2005 1.429 . S
C2009 C2010 1.523 . S
C2010 C1994 1.368 . S
C2010 C2006 1.368 . S
C2010 C2009 1.523 . S
H2011 C1986 0.950 . S
H2012 C1988 0.950 . S
H2013 C1989 0.949 . S
H2014 C1991 0.950 . S
H2015 C1993 0.950 . S
C2016 C2017 1.349 . S
C2016 C2018 1.327 . S
C2016 H2041 0.960 . S
C2017 C2016 1.349 . S
C2017 C2033 1.349 . S
C2018 C2016 1.327 . S
C2018 C2037 1.429 . S
C2018 H2042 0.953 . S
C2019 C2036 1.574 . S
C2019 C2038 1.368 . S
C2019 H2043 0.949 . S
H2020 C2024 0.989 . S
C2021 C2022 1.349 1_655 S
C2021 C2023 1.327 . S
C2021 H2044 0.950 . S
C2022 C2021 1.349 1_455 S
C2022 C2034 1.349 . S
C2023 C2021 1.327 . S
C2023 C2039 1.429 . S
C2023 H2045 0.950 . S
C2024 H2020 0.989 . S
C2024 C2032 1.574 . S
C2024 C2040 1.368 . S
H2025 C2033 0.950 . S
H2026 C2031 0.950 . S
H2027 C2032 0.960 . S
H2028 C2034 0.950 . S
H2029 C2035 0.955 . S
H2030 C2036 0.949 . S
C2031 H2026 0.950 . S
C2031 C2033 1.327 . S
C2031 C2037 1.429 . S
C2032 C2024 1.574 . S
C2032 H2027 0.960 . S
C2032 C2038 1.368 . S
C2033 C2017 1.349 . S
C2033 H2025 0.950 . S
C2033 C2031 1.327 . S
C2034 C2022 1.349 . S
C2034 H2028 0.950 . S
C2034 C2035 1.330 . S
C2035 H2029 0.955 . S
C2035 C2034 1.330 . S
C2035 C2039 1.421 1_455 S
C2036 C2019 1.574 . S
C2036 H2030 0.949 . S
C2036 C2040 1.368 . S
C2037 C2018 1.429 . S
C2037 C2031 1.429 . S
C2037 C2038 1.523 . S
C2038 C2019 1.368 . S
C2038 C2032 1.368 . S
C2038 C2037 1.523 . S
C2039 C2023 1.429 . S
C2039 C2035 1.421 1_655 S
C2039 C2040 1.523 . S
C2040 C2024 1.368 . S
C2040 C2036 1.368 . S
C2040 C2039 1.523 . S
H2041 C2016 0.960 . S
H2042 C2018 0.953 . S
H2043 C2019 0.949 . S
H2044 C2021 0.950 . S
H2045 C2023 0.950 . S
C2046 C2047 1.349 . S
C2046 C2048 1.327 . S
C2046 H2071 0.950 . S
C2047 C2046 1.349 . S
C2047 C2063 1.349 . S
C2048 C2046 1.327 . S
C2048 C2067 1.429 . S
C2048 H2072 0.950 . S
C2049 C2066 1.574 . S
C2049 C2068 1.368 . S
C2049 H2073 0.949 . S
H2050 C2054 0.949 . S
C2051 C2052 1.349 . S
C2051 C2053 1.327 . S
C2051 H2074 0.950 . S
C2052 C2051 1.349 . S
C2052 C2064 1.349 . S
C2053 C2051 1.327 . S
C2053 C2069 1.429 . S
C2053 H2075 0.950 . S
C2054 H2050 0.949 . S
C2054 C2062 1.574 . S
C2054 C2070 1.368 . S
H2055 C2063 0.950 . S
H2056 C2061 0.950 . S
H2057 C2062 0.949 . S
H2058 C2064 0.950 . S
H2059 C2065 0.950 . S
H2060 C2066 0.949 . S
C2061 H2056 0.950 . S
C2061 C2063 1.327 . S
C2061 C2067 1.429 . S
C2062 C2054 1.574 . S
C2062 H2057 0.949 . S
C2062 C2068 1.368 . S
C2063 C2047 1.349 . S
C2063 H2055 0.950 . S
C2063 C2061 1.327 . S
C2064 C2052 1.349 . S
C2064 H2058 0.950 . S
C2064 C2065 1.327 . S
C2065 H2059 0.950 . S
C2065 C2064 1.327 . S
C2065 C2069 1.429 . S
C2066 C2049 1.574 . S
C2066 H2060 0.949 . S
C2066 C2070 1.368 . S
C2067 C2048 1.429 . S
C2067 C2061 1.429 . S
C2067 C2068 1.523 . S
C2068 C2049 1.368 . S
C2068 C2062 1.368 . S
C2068 C2067 1.523 . S
C2069 C2053 1.429 . S
C2069 C2065 1.429 . S
C2069 C2070 1.523 . S
C2070 C2054 1.368 . S
C2070 C2066 1.368 . S
C2070 C2069 1.523 . S
H2071 C2046 0.950 . S
H2072 C2048 0.950 . S
H2073 C2049 0.949 . S
H2074 C2051 0.950 . S
H2075 C2053 0.950 . S
C2076 C2077 1.349 . S
C2076 C2078 1.327 . S
C2076 H2101 0.950 . S
C2077 C2076 1.349 . S
C2077 C2093 1.349 . S
C2078 C2076 1.327 . S
C2078 C2097 1.429 . S
C2078 H2102 0.950 . S
C2079 C2096 1.574 . S
C2079 C2098 1.368 . S
C2079 H2103 0.949 . S
H2080 C2084 0.949 . S
C2081 C2082 1.349 . S
C2081 C2083 1.327 . S
C2081 H2104 0.950 . S
C2082 C2081 1.349 . S
C2082 C2094 1.349 . S
C2083 C2081 1.327 . S
C2083 C2099 1.429 . S
C2083 H2105 0.950 . S
C2084 H2080 0.949 . S
C2084 C2092 1.574 . S
C2084 C2100 1.368 . S
H2085 C2093 0.950 . S
H2086 C2091 0.950 . S
H2087 C2092 0.949 . S
H2088 C2094 0.950 . S
H2089 C2095 0.950 . S
H2090 C2096 0.949 . S
C2091 H2086 0.950 . S
C2091 C2093 1.327 . S
C2091 C2097 1.429 . S
C2092 C2084 1.574 . S
C2092 H2087 0.949 . S
C2092 C2098 1.368 . S
C2093 C2077 1.349 . S
C2093 H2085 0.950 . S
C2093 C2091 1.327 . S
C2094 C2082 1.349 . S
C2094 H2088 0.950 . S
C2094 C2095 1.327 . S
C2095 H2089 0.950 . S
C2095 C2094 1.327 . S
C2095 C2099 1.429 . S
C2096 C2079 1.574 . S
C2096 H2090 0.949 . S
C2096 C2100 1.368 . S
C2097 C2078 1.429 . S
C2097 C2091 1.429 . S
C2097 C2098 1.523 . S
C2098 C2079 1.368 . S
C2098 C2092 1.368 . S
C2098 C2097 1.523 . S
C2099 C2083 1.429 . S
C2099 C2095 1.429 . S
C2099 C2100 1.523 . S
C2100 C2084 1.368 . S
C2100 C2096 1.368 . S
C2100 C2099 1.523 . S
H2101 C2076 0.950 . S
H2102 C2078 0.950 . S
H2103 C2079 0.949 . S
H2104 C2081 0.950 . S
H2105 C2083 0.950 . S
C2106 C2107 1.349 . S
C2106 C2108 1.327 . S
C2106 H2131 0.950 . S
C2107 C2106 1.349 . S
C2107 C2123 1.349 . S
C2108 C2106 1.327 . S
C2108 C2127 1.429 . S
C2108 H2132 0.950 . S
C2109 C2126 1.574 . S
C2109 C2128 1.368 . S
C2109 H2133 0.949 . S
H2110 C2114 0.949 . S
C2111 C2112 1.349 . S
C2111 C2113 1.327 . S
C2111 H2134 0.950 . S
C2112 C2111 1.349 . S
C2112 C2124 1.349 . S
C2113 C2111 1.327 . S
C2113 C2129 1.429 . S
C2113 H2135 0.950 . S
C2114 H2110 0.949 . S
C2114 C2122 1.574 . S
C2114 C2130 1.368 . S
H2115 C2123 0.950 . S
H2116 C2121 0.950 . S
H2117 C2122 0.949 . S
H2118 C2124 0.950 . S
H2119 C2125 0.950 . S
H2120 C2126 0.949 . S
C2121 H2116 0.950 . S
C2121 C2123 1.327 . S
C2121 C2127 1.429 . S
C2122 C2114 1.574 . S
C2122 H2117 0.949 . S
C2122 C2128 1.368 . S
C2123 C2107 1.349 . S
C2123 H2115 0.950 . S
C2123 C2121 1.327 . S
C2124 C2112 1.349 . S
C2124 H2118 0.950 . S
C2124 C2125 1.327 . S
C2125 H2119 0.950 . S
C2125 C2124 1.327 . S
C2125 C2129 1.429 . S
C2126 C2109 1.574 . S
C2126 H2120 0.949 . S
C2126 C2130 1.368 . S
C2127 C2108 1.429 . S
C2127 C2121 1.429 . S
C2127 C2128 1.523 . S
C2128 C2109 1.368 . S
C2128 C2122 1.368 . S
C2128 C2127 1.523 . S
C2129 C2113 1.429 . S
C2129 C2125 1.429 . S
C2129 C2130 1.523 . S
C2130 C2114 1.368 . S
C2130 C2126 1.368 . S
C2130 C2129 1.523 . S
H2131 C2106 0.950 . S
H2132 C2108 0.950 . S
H2133 C2109 0.949 . S
H2134 C2111 0.950 . S
H2135 C2113 0.950 . S
C2136 C2137 1.349 . S
C2136 C2138 1.327 . S
C2136 H2161 0.950 . S
C2137 C2136 1.349 . S
C2137 C2153 1.349 1_556 S
C2138 C2136 1.327 . S
C2138 C2157 1.429 1_556 S
C2138 H2162 0.950 . S
C2139 C2156 1.574 . S
C2139 C2158 1.368 . S
C2139 H2163 0.949 . S
H2140 C2144 0.949 . S
C2141 C2142 1.349 . S
C2141 C2143 1.327 . S
C2141 H2164 0.950 . S
C2142 C2141 1.349 . S
C2142 C2154 1.349 . S
C2143 C2141 1.327 . S
C2143 C2159 1.429 . S
C2143 H2165 0.950 . S
C2144 H2140 0.949 . S
C2144 C2152 1.574 . S
C2144 C2160 1.368 1_556 S
H2145 C2153 0.950 . S
H2146 C2151 0.950 . S
H2147 C2152 0.949 . S
H2148 C2154 0.950 1_546 S
H2149 C2155 0.950 1_556 S
H2150 C2156 0.949 . S
C2151 H2146 0.950 . S
C2151 C2153 1.327 . S
C2151 C2157 1.429 . S
C2152 C2144 1.574 . S
C2152 H2147 0.949 . S
C2152 C2158 1.368 1_556 S
C2153 C2137 1.349 1_554 S
C2153 H2145 0.950 . S
C2153 C2151 1.327 . S
C2154 C2142 1.349 . S
C2154 H2148 0.950 1_564 S
C2154 C2155 1.327 . S
C2155 H2149 0.950 1_554 S
C2155 C2154 1.327 . S
C2155 C2159 1.429 . S
C2156 C2139 1.574 . S
C2156 H2150 0.949 . S
C2156 C2160 1.368 . S
C2157 C2138 1.429 1_554 S
C2157 C2151 1.429 . S
C2157 C2158 1.523 . S
C2158 C2139 1.368 . S
C2158 C2152 1.368 1_554 S
C2158 C2157 1.523 . S
C2159 C2143 1.429 . S
C2159 C2155 1.429 . S
C2159 C2160 1.523 . S
C2160 C2144 1.368 1_554 S
C2160 C2156 1.368 . S
C2160 C2159 1.523 . S
H2161 C2136 0.950 . S
H2162 C2138 0.950 . S
H2163 C2139 0.949 . S
H2164 C2141 0.950 . S
H2165 C2143 0.950 . S
C2166 C2167 1.349 1_556 S
C2166 C2168 1.327 . S
C2166 H2191 0.950 . S
C2167 C2166 1.349 1_554 S
C2167 C2183 1.349 . S
C2168 C2166 1.327 . S
C2168 C2187 1.429 1_556 S
C2168 H2192 0.950 . S
C2169 C2186 1.574 . S
C2169 C2188 1.368 . S
C2169 H2193 0.949 . S
H2170 C2174 0.949 . S
C2171 C2172 1.349 . S
C2171 C2173 1.327 . S
C2171 H2194 0.950 . S
C2172 C2171 1.349 . S
C2172 C2184 1.349 . S
C2173 C2171 1.327 . S
C2173 C2189 1.429 . S
C2173 H2195 0.950 . S
C2174 H2170 0.949 . S
C2174 C2182 1.574 . S
C2174 C2190 1.368 1_556 S
H2175 C2183 0.950 . S
H2176 C2181 0.950 . S
H2177 C2182 0.949 . S
H2178 C2184 0.950 1_556 S
H2179 C2185 0.950 1_556 S
H2180 C2186 0.949 . S
C2181 H2176 0.950 . S
C2181 C2183 1.327 . S
C2181 C2187 1.429 . S
C2182 C2174 1.574 . S
C2182 H2177 0.949 . S
C2182 C2188 1.368 1_556 S
C2183 C2167 1.349 . S
C2183 H2175 0.950 . S
C2183 C2181 1.327 . S
C2184 C2172 1.349 . S
C2184 H2178 0.950 1_554 S
C2184 C2185 1.327 . S
C2185 H2179 0.950 1_554 S
C2185 C2184 1.327 . S
C2185 C2189 1.428 . S
C2186 C2169 1.574 . S
C2186 H2180 0.949 . S
C2186 C2190 1.368 . S
C2187 C2168 1.429 1_554 S
C2187 C2181 1.429 . S
C2187 C2188 1.523 . S
C2188 C2169 1.368 . S
C2188 C2182 1.368 1_554 S
C2188 C2187 1.523 . S
C2189 C2173 1.429 . S
C2189 C2185 1.428 . S
C2189 C2190 1.523 . S
C2190 C2174 1.368 1_554 S
C2190 C2186 1.368 . S
C2190 C2189 1.523 . S
H2191 C2166 0.950 . S
H2192 C2168 0.950 . S
H2193 C2169 0.949 . S
H2194 C2171 0.950 . S
H2195 C2173 0.950 . S
C2196 C2197 1.349 . S
C2196 C2198 1.327 . S
C2196 H2221 0.950 . S
C2197 C2196 1.349 . S
C2197 C2213 1.349 . S
C2198 C2196 1.327 . S
C2198 C2217 1.429 . S
C2198 H2222 0.950 . S
C2199 C2216 1.574 . S
C2199 C2218 1.368 . S
C2199 H2223 0.949 . S
H2200 C2204 0.949 . S
C2201 C2202 1.349 . S
C2201 C2203 1.327 . S
C2201 H2224 0.950 . S
C2202 C2201 1.349 . S
C2202 C2214 1.349 . S
C2203 C2201 1.327 . S
C2203 C2219 1.429 . S
C2203 H2225 0.950 . S
C2204 H2200 0.949 . S
C2204 C2212 1.574 . S
C2204 C2220 1.368 . S
H2205 C2213 0.950 . S
H2206 C2211 0.950 . S
H2207 C2212 0.949 . S
H2208 C2214 0.950 . S
H2209 C2215 0.950 . S
H2210 C2216 0.949 . S
C2211 H2206 0.950 . S
C2211 C2213 1.327 . S
C2211 C2217 1.429 . S
C2212 C2204 1.574 . S
C2212 H2207 0.949 . S
C2212 C2218 1.368 . S
C2213 C2197 1.349 . S
C2213 H2205 0.950 . S
C2213 C2211 1.327 . S
C2214 C2202 1.349 . S
C2214 H2208 0.950 . S
C2214 C2215 1.327 . S
C2215 H2209 0.950 . S
C2215 C2214 1.327 . S
C2215 C2219 1.429 . S
C2216 C2199 1.574 . S
C2216 H2210 0.949 . S
C2216 C2220 1.368 . S
C2217 C2198 1.429 . S
C2217 C2211 1.429 . S
C2217 C2218 1.523 . S
C2218 C2199 1.368 . S
C2218 C2212 1.368 . S
C2218 C2217 1.523 . S
C2219 C2203 1.429 . S
C2219 C2215 1.429 . S
C2219 C2220 1.523 . S
C2220 C2204 1.368 . S
C2220 C2216 1.368 . S
C2220 C2219 1.523 . S
H2221 C2196 0.950 . S
H2222 C2198 0.950 . S
H2223 C2199 0.949 . S
H2224 C2201 0.950 . S
H2225 C2203 0.950 . S
C2226 C2227 1.349 . S
C2226 C2228 1.327 . S
C2226 H2251 0.950 . S
C2227 C2226 1.349 . S
C2227 C2243 1.349 . S
C2228 C2226 1.327 . S
C2228 C2247 1.429 . S
C2228 H2252 0.950 . S
C2229 C2246 1.574 . S
C2229 C2248 1.368 . S
C2229 H2253 0.949 . S
H2230 C2234 0.949 . S
C2231 C2232 1.349 . S
C2231 C2233 1.327 . S
C2231 H2254 0.950 . S
C2232 C2231 1.349 . S
C2232 C2244 1.349 . S
C2233 C2231 1.327 . S
C2233 C2249 1.429 . S
C2233 H2255 0.950 . S
C2234 H2230 0.949 . S
C2234 C2242 1.574 . S
C2234 C2250 1.368 . S
H2235 C2243 0.950 . S
H2236 C2241 0.950 . S
H2237 C2242 0.949 . S
H2238 C2244 0.950 . S
H2239 C2245 0.950 . S
H2240 C2246 0.949 . S
C2241 H2236 0.950 . S
C2241 C2243 1.327 . S
C2241 C2247 1.429 . S
C2242 C2234 1.574 . S
C2242 H2237 0.949 . S
C2242 C2248 1.368 . S
C2243 C2227 1.349 . S
C2243 H2235 0.950 . S
C2243 C2241 1.327 . S
C2244 C2232 1.349 . S
C2244 H2238 0.950 . S
C2244 C2245 1.327 . S
C2245 H2239 0.950 . S
C2245 C2244 1.327 . S
C2245 C2249 1.429 . S
C2246 C2229 1.574 . S
C2246 H2240 0.949 . S
C2246 C2250 1.368 . S
C2247 C2228 1.429 . S
C2247 C2241 1.429 . S
C2247 C2248 1.523 . S
C2248 C2229 1.368 . S
C2248 C2242 1.368 . S
C2248 C2247 1.523 . S
C2249 C2233 1.429 . S
C2249 C2245 1.429 . S
C2249 C2250 1.523 . S
C2250 C2234 1.368 . S
C2250 C2246 1.368 . S
C2250 C2249 1.523 . S
H2251 C2226 0.950 . S
H2252 C2228 0.950 . S
H2253 C2229 0.949 . S
H2254 C2231 0.950 . S
H2255 C2233 0.950 . S
C2256 C2257 1.349 . S
C2256 C2258 1.327 . S
C2256 H2281 0.950 . S
C2257 C2256 1.349 . S
C2257 C2273 1.349 . S
C2258 C2256 1.327 . S
C2258 C2277 1.429 . S
C2258 H2282 0.950 . S
C2259 C2276 1.574 . S
C2259 C2278 1.368 . S
C2259 H2283 0.949 . S
H2260 C2264 0.949 . S
C2261 C2262 1.349 . S
C2261 C2263 1.327 . S
C2261 H2284 0.950 . S
C2262 C2261 1.349 . S
C2262 C2274 1.349 . S
C2263 C2261 1.327 . S
C2263 C2279 1.429 . S
C2263 H2285 0.950 . S
C2264 H2260 0.949 . S
C2264 C2272 1.574 . S
C2264 C2280 1.368 . S
H2265 C2273 0.950 . S
H2266 C2271 0.950 . S
H2267 C2272 0.949 . S
H2268 C2274 0.950 . S
H2269 C2275 0.950 . S
H2270 C2276 0.949 . S
C2271 H2266 0.950 . S
C2271 C2273 1.327 . S
C2271 C2277 1.429 . S
C2272 C2264 1.574 . S
C2272 H2267 0.949 . S
C2272 C2278 1.368 . S
C2273 C2257 1.349 . S
C2273 H2265 0.950 . S
C2273 C2271 1.327 . S
C2274 C2262 1.349 . S
C2274 H2268 0.950 . S
C2274 C2275 1.327 . S
C2275 H2269 0.950 . S
C2275 C2274 1.327 . S
C2275 C2279 1.429 . S
C2276 C2259 1.574 . S
C2276 H2270 0.949 . S
C2276 C2280 1.368 . S
C2277 C2258 1.429 . S
C2277 C2271 1.429 . S
C2277 C2278 1.523 . S
C2278 C2259 1.368 . S
C2278 C2272 1.368 . S
C2278 C2277 1.523 . S
C2279 C2263 1.429 . S
C2279 C2275 1.429 . S
C2279 C2280 1.523 . S
C2280 C2264 1.368 . S
C2280 C2276 1.368 . S
C2280 C2279 1.523 . S
H2281 C2256 0.950 . S
H2282 C2258 0.950 . S
H2283 C2259 0.949 . S
H2284 C2261 0.950 . S
H2285 C2263 0.950 . S
C2286 C2287 1.349 . S
C2286 C2288 1.327 . S
C2286 H2311 0.950 . S
C2287 C2286 1.349 . S
C2287 C2303 1.349 . S
C2288 C2286 1.327 . S
C2288 C2307 1.429 . S
C2288 H2312 0.950 . S
C2289 C2306 1.574 . S
C2289 C2308 1.368 . S
C2289 H2313 0.949 . S
H2290 C2294 0.949 . S
C2291 C2292 1.349 . S
C2291 C2293 1.327 . S
C2291 H2314 0.950 . S
C2292 C2291 1.349 . S
C2292 C2304 1.349 . S
C2293 C2291 1.327 . S
C2293 C2309 1.429 . S
C2293 H2315 0.950 . S
C2294 H2290 0.949 . S
C2294 C2302 1.574 . S
C2294 C2310 1.368 . S
H2295 C2303 0.950 . S
H2296 C2301 0.950 . S
H2297 C2302 0.949 . S
H2298 C2304 0.950 . S
H2299 C2305 0.950 . S
H2300 C2306 0.949 . S
C2301 H2296 0.950 . S
C2301 C2303 1.327 . S
C2301 C2307 1.429 . S
C2302 C2294 1.574 . S
C2302 H2297 0.949 . S
C2302 C2308 1.368 . S
C2303 C2287 1.349 . S
C2303 H2295 0.950 . S
C2303 C2301 1.327 . S
C2304 C2292 1.349 . S
C2304 H2298 0.950 . S
C2304 C2305 1.327 . S
C2305 H2299 0.950 . S
C2305 C2304 1.327 . S
C2305 C2309 1.429 . S
C2306 C2289 1.574 . S
C2306 H2300 0.949 . S
C2306 C2310 1.368 . S
C2307 C2288 1.429 . S
C2307 C2301 1.429 . S
C2307 C2308 1.523 . S
C2308 C2289 1.368 . S
C2308 C2302 1.368 . S
C2308 C2307 1.523 . S
C2309 C2293 1.429 . S
C2309 C2305 1.429 . S
C2309 C2310 1.523 . S
C2310 C2294 1.368 . S
C2310 C2306 1.368 . S
C2310 C2309 1.523 . S
H2311 C2286 0.950 . S
H2312 C2288 0.950 . S
H2313 C2289 0.949 . S
H2314 C2291 0.950 . S
H2315 C2293 0.950 . S
C2316 C2317 1.349 . S
C2316 C2318 1.327 . S
C2316 H2341 0.950 . S
C2317 C2316 1.349 . S
C2317 C2333 1.349 . S
C2318 C2316 1.327 . S
C2318 C2337 1.429 . S
C2318 H2342 0.950 . S
C2319 C2336 1.574 . S
C2319 C2338 1.368 . S
C2319 H2343 0.949 . S
H2320 C2324 0.949 . S
C2321 C2322 1.349 . S
C2321 C2323 1.327 . S
C2321 H2344 0.950 . S
C2322 C2321 1.349 . S
C2322 C2334 1.349 . S
C2323 C2321 1.327 . S
C2323 C2339 1.429 . S
C2323 H2345 0.950 . S
C2324 H2320 0.949 . S
C2324 C2332 1.574 . S
C2324 C2340 1.368 . S
H2325 C2333 0.950 . S
H2326 C2331 0.950 . S
H2327 C2332 0.949 . S
H2328 C2334 0.950 . S
H2329 C2335 0.950 . S
H2330 C2336 0.949 . S
C2331 H2326 0.950 . S
C2331 C2333 1.327 . S
C2331 C2337 1.429 . S
C2332 C2324 1.574 . S
C2332 H2327 0.949 . S
C2332 C2338 1.368 . S
C2333 C2317 1.349 . S
C2333 H2325 0.950 . S
C2333 C2331 1.327 . S
C2334 C2322 1.349 . S
C2334 H2328 0.950 . S
C2334 C2335 1.327 . S
C2335 H2329 0.950 . S
C2335 C2334 1.327 . S
C2335 C2339 1.429 . S
C2336 C2319 1.574 . S
C2336 H2330 0.949 . S
C2336 C2340 1.368 . S
C2337 C2318 1.429 . S
C2337 C2331 1.429 . S
C2337 C2338 1.523 . S
C2338 C2319 1.368 . S
C2338 C2332 1.368 . S
C2338 C2337 1.523 . S
C2339 C2323 1.429 . S
C2339 C2335 1.429 . S
C2339 C2340 1.523 . S
C2340 C2324 1.368 . S
C2340 C2336 1.368 . S
C2340 C2339 1.523 . S
H2341 C2316 0.950 . S
H2342 C2318 0.950 . S
H2343 C2319 0.949 . S
H2344 C2321 0.950 . S
H2345 C2323 0.950 . S
C2346 C2347 1.349 . S
C2346 C2348 1.327 . S
C2346 H2371 0.950 . S
C2347 C2346 1.349 . S
C2347 C2363 1.349 . S
C2348 C2346 1.327 . S
C2348 C2367 1.429 . S
C2348 H2372 0.950 . S
C2349 C2366 1.574 . S
C2349 C2368 1.368 . S
C2349 H2373 0.949 . S
H2350 C2354 0.949 . S
C2351 C2352 1.349 . S
C2351 C2353 1.327 . S
C2351 H2374 0.950 . S
C2352 C2351 1.349 . S
C2352 C2364 1.349 . S
C2353 C2351 1.327 . S
C2353 C2369 1.429 . S
C2353 H2375 0.950 . S
C2354 H2350 0.949 . S
C2354 C2362 1.574 . S
C2354 C2370 1.368 . S
H2355 C2363 0.950 . S
H2356 C2361 0.950 . S
H2357 C2362 0.949 . S
H2358 C2364 0.950 . S
H2359 C2365 0.950 . S
H2360 C2366 0.949 . S
C2361 H2356 0.950 . S
C2361 C2363 1.327 . S
C2361 C2367 1.429 . S
C2362 C2354 1.574 . S
C2362 H2357 0.949 . S
C2362 C2368 1.368 . S
C2363 C2347 1.349 . S
C2363 H2355 0.950 . S
C2363 C2361 1.327 . S
C2364 C2352 1.349 . S
C2364 H2358 0.950 . S
C2364 C2365 1.327 . S
C2365 H2359 0.950 . S
C2365 C2364 1.327 . S
C2365 C2369 1.429 . S
C2366 C2349 1.574 . S
C2366 H2360 0.949 . S
C2366 C2370 1.368 . S
C2367 C2348 1.429 . S
C2367 C2361 1.429 . S
C2367 C2368 1.523 . S
C2368 C2349 1.368 . S
C2368 C2362 1.368 . S
C2368 C2367 1.523 . S
C2369 C2353 1.429 . S
C2369 C2365 1.429 . S
C2369 C2370 1.523 . S
C2370 C2354 1.368 . S
C2370 C2366 1.368 . S
C2370 C2369 1.523 . S
H2371 C2346 0.950 . S
H2372 C2348 0.950 . S
H2373 C2349 0.949 . S
H2374 C2351 0.950 . S
H2375 C2353 0.950 . S
C2376 C2377 1.349 . S
C2376 C2378 1.327 . S
C2376 H2401 0.950 . S
C2377 C2376 1.349 . S
C2377 C2393 1.349 . S
C2378 C2376 1.327 . S
C2378 C2397 1.429 . S
C2378 H2402 0.950 . S
C2379 C2396 1.574 . S
C2379 C2398 1.368 . S
C2379 H2403 0.949 . S
H2380 C2384 0.949 . S
C2381 C2382 1.349 . S
C2381 C2383 1.327 . S
C2381 H2404 0.886 1_455 S
C2382 C2381 1.349 . S
C2382 C2394 1.349 . S
C2383 C2381 1.327 . S
C2383 C2399 1.429 . S
C2383 H2405 0.950 . S
C2384 H2380 0.949 . S
C2384 C2392 1.574 . S
C2384 C2400 1.368 . S
H2385 C2393 0.950 . S
H2386 C2391 0.950 . S
H2387 C2392 0.949 . S
H2388 C2394 0.950 . S
H2389 C2395 0.950 . S
H2390 C2396 0.949 . S
C2391 H2386 0.950 . S
C2391 C2393 1.327 . S
C2391 C2397 1.429 . S
C2392 C2384 1.574 . S
C2392 H2387 0.949 . S
C2392 C2398 1.368 . S
C2393 C2377 1.349 . S
C2393 H2385 0.950 . S
C2393 C2391 1.327 . S
C2394 C2382 1.349 . S
C2394 H2388 0.950 . S
C2394 C2395 1.327 . S
C2395 H2389 0.950 . S
C2395 C2394 1.327 . S
C2395 C2399 1.429 . S
C2396 C2379 1.574 . S
C2396 H2390 0.949 . S
C2396 C2400 1.368 . S
C2397 C2378 1.429 . S
C2397 C2391 1.429 . S
C2397 C2398 1.523 . S
C2398 C2379 1.368 . S
C2398 C2392 1.368 . S
C2398 C2397 1.523 . S
C2399 C2383 1.429 . S
C2399 C2395 1.429 . S
C2399 C2400 1.523 . S
C2400 C2384 1.368 . S
C2400 C2396 1.368 . S
C2400 C2399 1.523 . S
H2401 C2376 0.950 . S
H2402 C2378 0.950 . S
H2403 C2379 0.949 . S
H2404 C2381 0.886 1_655 S
H2405 C2383 0.950 . S
C2406 C2407 1.349 . S
C2406 C2408 1.327 . S
C2406 H2431 0.950 . S
C2407 C2406 1.349 . S
C2407 C2423 1.349 . S
C2408 C2406 1.327 . S
C2408 C2427 1.429 . S
C2408 H2432 0.950 . S
C2409 C2426 1.574 . S
C2409 C2428 1.368 . S
C2409 H2433 0.949 . S
H2410 C2414 0.949 . S
C2411 C2412 1.349 . S
C2411 C2413 1.327 . S
C2411 H2434 0.950 . S
C2412 C2411 1.349 . S
C2412 C2424 1.349 . S
C2413 C2411 1.327 . S
C2413 C2429 1.429 . S
C2413 H2435 0.950 . S
C2414 H2410 0.949 . S
C2414 C2422 1.574 . S
C2414 C2430 1.368 . S
H2415 C2423 0.950 . S
H2416 C2421 0.950 . S
H2417 C2422 0.949 . S
H2418 C2424 0.950 . S
H2419 C2425 0.950 . S
H2420 C2426 0.949 . S
C2421 H2416 0.950 . S
C2421 C2423 1.327 . S
C2421 C2427 1.429 . S
C2422 C2414 1.574 . S
C2422 H2417 0.949 . S
C2422 C2428 1.368 . S
C2423 C2407 1.349 . S
C2423 H2415 0.950 . S
C2423 C2421 1.327 . S
C2424 C2412 1.349 . S
C2424 H2418 0.950 . S
C2424 C2425 1.327 . S
C2425 H2419 0.950 . S
C2425 C2424 1.327 . S
C2425 C2429 1.429 . S
C2426 C2409 1.574 . S
C2426 H2420 0.949 . S
C2426 C2430 1.368 . S
C2427 C2408 1.429 . S
C2427 C2421 1.429 . S
C2427 C2428 1.523 . S
C2428 C2409 1.368 . S
C2428 C2422 1.368 . S
C2428 C2427 1.523 . S
C2429 C2413 1.429 . S
C2429 C2425 1.429 . S
C2429 C2430 1.523 . S
C2430 C2414 1.368 . S
C2430 C2426 1.368 . S
C2430 C2429 1.523 . S
H2431 C2406 0.950 . S
H2432 C2408 0.950 . S
H2433 C2409 0.949 . S
H2434 C2411 0.950 . S
H2435 C2413 0.950 . S
C2436 C2437 1.349 . S
C2436 C2438 1.327 . S
C2436 H2461 0.950 . S
C2437 C2436 1.349 . S
C2437 C2453 1.349 . S
C2438 C2436 1.327 . S
C2438 C2457 1.429 . S
C2438 H2462 0.950 . S
C2439 C2456 1.574 . S
C2439 C2458 1.368 . S
C2439 H2463 0.949 . S
H2440 C2444 0.949 . S
C2441 C2442 1.349 . S
C2441 C2443 1.327 . S
C2441 H2464 0.950 . S
C2442 C2441 1.349 . S
C2442 C2454 1.349 . S
C2443 C2441 1.327 . S
C2443 C2459 1.429 . S
C2443 H2465 0.950 . S
C2444 H2440 0.949 . S
C2444 C2452 1.574 . S
C2444 C2460 1.368 . S
H2445 C2453 0.950 . S
H2446 C2451 0.950 . S
H2447 C2452 0.949 . S
H2448 C2454 0.950 . S
H2449 C2455 0.950 . S
H2450 C2456 0.949 . S
C2451 H2446 0.950 . S
C2451 C2453 1.327 . S
C2451 C2457 1.429 . S
C2452 C2444 1.574 . S
C2452 H2447 0.949 . S
C2452 C2458 1.368 . S
C2453 C2437 1.349 . S
C2453 H2445 0.950 . S
C2453 C2451 1.327 . S
C2454 C2442 1.349 . S
C2454 H2448 0.950 . S
C2454 C2455 1.327 . S
C2455 H2449 0.950 . S
C2455 C2454 1.327 . S
C2455 C2459 1.429 . S
C2456 C2439 1.574 . S
C2456 H2450 0.949 . S
C2456 C2460 1.368 . S
C2457 C2438 1.429 . S
C2457 C2451 1.429 . S
C2457 C2458 1.523 . S
C2458 C2439 1.368 . S
C2458 C2452 1.368 . S
C2458 C2457 1.523 . S
C2459 C2443 1.429 . S
C2459 C2455 1.429 . S
C2459 C2460 1.523 . S
C2460 C2444 1.368 . S
C2460 C2456 1.368 . S
C2460 C2459 1.523 . S
H2461 C2436 0.950 . S
H2462 C2438 0.950 . S
H2463 C2439 0.949 . S
H2464 C2441 0.950 . S
H2465 C2443 0.950 . S
C2466 C2467 1.349 . S
C2466 C2468 1.327 . S
C2466 H2491 0.950 . S
C2467 C2466 1.349 . S
C2467 C2483 1.349 . S
C2468 C2466 1.327 . S
C2468 C2487 1.429 . S
C2468 H2492 0.950 . S
C2469 C2486 1.574 . S
C2469 C2488 1.368 . S
C2469 H2493 0.949 . S
H2470 C2474 0.949 . S
C2471 C2472 1.349 . S
C2471 C2473 1.327 . S
C2471 H2494 0.950 . S
C2472 C2471 1.349 . S
C2472 C2484 1.349 . S
C2473 C2471 1.327 . S
C2473 C2489 1.429 . S
C2473 H2495 0.950 . S
C2474 H2470 0.949 . S
C2474 C2482 1.574 . S
C2474 C2490 1.368 . S
H2475 C2483 0.950 . S
H2476 C2481 0.950 . S
H2477 C2482 0.949 . S
H2478 C2484 0.950 . S
H2479 C2485 0.950 . S
H2480 C2486 0.949 . S
C2481 H2476 0.950 . S
C2481 C2483 1.327 . S
C2481 C2487 1.429 . S
C2482 C2474 1.574 . S
C2482 H2477 0.949 . S
C2482 C2488 1.368 . S
C2483 C2467 1.349 . S
C2483 H2475 0.950 . S
C2483 C2481 1.327 . S
C2484 C2472 1.349 . S
C2484 H2478 0.950 . S
C2484 C2485 1.327 . S
C2485 H2479 0.950 . S
C2485 C2484 1.327 . S
C2485 C2489 1.429 . S
C2486 C2469 1.574 . S
C2486 H2480 0.949 . S
C2486 C2490 1.368 . S
C2487 C2468 1.429 . S
C2487 C2481 1.429 . S
C2487 C2488 1.523 . S
C2488 C2469 1.368 . S
C2488 C2482 1.368 . S
C2488 C2487 1.523 . S
C2489 C2473 1.429 . S
C2489 C2485 1.429 . S
C2489 C2490 1.523 . S
C2490 C2474 1.368 . S
C2490 C2486 1.368 . S
C2490 C2489 1.523 . S
H2491 C2466 0.950 . S
H2492 C2468 0.950 . S
H2493 C2469 0.949 . S
H2494 C2471 0.950 . S
H2495 C2473 0.950 . S
C2496 C2497 1.349 . S
C2496 C2498 1.327 . S
C2496 H2521 0.950 . S
C2497 C2496 1.349 . S
C2497 C2513 1.349 . S
C2498 C2496 1.327 . S
C2498 C2517 1.429 . S
C2498 H2522 0.950 . S
C2499 C2516 1.574 . S
C2499 C2518 1.368 . S
C2499 H2523 0.967 . S
H2500 C2504 0.949 . S
C2501 C2502 1.349 . S
C2501 C2503 1.327 . S
C2501 H2524 0.950 1_455 S
C2502 C2501 1.349 . S
C2502 C2514 1.349 . S
C2503 C2501 1.327 . S
C2503 C2519 1.429 . S
C2503 H2525 0.950 1_455 S
C2504 H2500 0.949 . S
C2504 C2512 1.574 . S
C2504 C2520 1.368 . S
H2505 C2513 0.950 . S
H2506 C2511 0.950 . S
H2507 C2512 0.949 . S
H2508 C2514 0.950 . S
H2509 C2515 0.950 . S
H2510 C2516 0.949 1_655 S
C2511 H2506 0.950 . S
C2511 C2513 1.327 . S
C2511 C2517 1.429 . S
C2512 C2504 1.574 . S
C2512 H2507 0.949 . S
C2512 C2518 1.368 . S
C2513 C2497 1.349 . S
C2513 H2505 0.950 . S
C2513 C2511 1.327 . S
C2514 C2502 1.349 . S
C2514 H2508 0.950 . S
C2514 C2515 1.327 . S
C2515 H2509 0.950 . S
C2515 C2514 1.327 . S
C2515 C2519 1.429 . S
C2516 C2499 1.574 . S
C2516 H2510 0.949 1_455 S
C2516 C2520 1.368 . S
C2517 C2498 1.429 . S
C2517 C2511 1.429 . S
C2517 C2518 1.523 . S
C2518 C2499 1.368 . S
C2518 C2512 1.368 . S
C2518 C2517 1.523 . S
C2519 C2503 1.429 . S
C2519 C2515 1.429 . S
C2519 C2520 1.523 . S
C2520 C2504 1.368 . S
C2520 C2516 1.368 . S
C2520 C2519 1.523 . S
H2521 C2496 0.950 . S
H2522 C2498 0.950 . S
H2523 C2499 0.967 . S
H2524 C2501 0.950 1_655 S
H2525 C2503 0.950 1_655 S
C2526 C2527 1.349 . S
C2526 C2528 1.327 . S
C2526 H2551 0.950 . S
C2527 C2526 1.349 . S
C2527 C2543 1.349 . S
C2528 C2526 1.327 . S
C2528 C2547 1.429 . S
C2528 H2552 0.950 . S
C2529 C2546 1.574 . S
C2529 C2548 1.368 . S
C2529 H2553 0.949 . S
H2530 C2534 0.949 . S
C2531 C2532 1.349 . S
C2531 C2533 1.327 . S
C2531 H2554 0.950 . S
C2532 C2531 1.349 . S
C2532 C2544 1.349 . S
C2533 C2531 1.327 . S
C2533 C2549 1.429 . S
C2533 H2555 0.950 . S
C2534 H2530 0.949 . S
C2534 C2542 1.574 . S
C2534 C2550 1.368 . S
H2535 C2543 0.950 . S
H2536 C2541 0.950 . S
H2537 C2542 0.949 . S
H2538 C2544 0.950 . S
H2539 C2545 0.950 . S
H2540 C2546 0.949 . S
C2541 H2536 0.950 . S
C2541 C2543 1.327 . S
C2541 C2547 1.429 . S
C2542 C2534 1.574 . S
C2542 H2537 0.949 . S
C2542 C2548 1.368 . S
C2543 C2527 1.349 . S
C2543 H2535 0.950 . S
C2543 C2541 1.327 . S
C2544 C2532 1.349 . S
C2544 H2538 0.950 . S
C2544 C2545 1.327 . S
C2545 H2539 0.950 . S
C2545 C2544 1.327 . S
C2545 C2549 1.429 . S
C2546 C2529 1.574 . S
C2546 H2540 0.949 . S
C2546 C2550 1.368 . S
C2547 C2528 1.429 . S
C2547 C2541 1.429 . S
C2547 C2548 1.523 . S
C2548 C2529 1.368 . S
C2548 C2542 1.368 . S
C2548 C2547 1.523 . S
C2549 C2533 1.429 . S
C2549 C2545 1.429 . S
C2549 C2550 1.523 . S
C2550 C2534 1.368 . S
C2550 C2546 1.368 . S
C2550 C2549 1.523 . S
H2551 C2526 0.950 . S
H2552 C2528 0.950 . S
H2553 C2529 0.949 . S
H2554 C2531 0.950 . S
H2555 C2533 0.950 . S
C2556 C2557 1.349 . S
C2556 C2558 1.327 . S
C2556 H2581 0.950 . S
C2557 C2556 1.349 . S
C2557 C2573 1.349 . S
C2558 C2556 1.327 . S
C2558 C2577 1.429 . S
C2558 H2582 0.950 . S
C2559 C2576 1.574 . S
C2559 C2578 1.368 . S
C2559 H2583 0.949 . S
H2560 C2564 0.949 . S
C2561 C2562 1.349 . S
C2561 C2563 1.327 . S
C2561 H2584 0.950 . S
C2562 C2561 1.349 . S
C2562 C2574 1.371 . S
C2563 C2561 1.327 . S
C2563 C2579 1.429 . S
C2563 H2585 0.950 . S
C2564 H2560 0.949 . S
C2564 C2572 1.574 . S
C2564 C2580 1.368 . S
H2565 C2573 0.950 . S
H2566 C2571 0.950 . S
H2567 C2572 0.949 . S
H2568 C2574 0.901 1_554 S
H2569 C2575 0.950 . S
H2570 C2576 0.949 . S
C2571 H2566 0.950 . S
C2571 C2573 1.327 . S
C2571 C2577 1.429 . S
C2572 C2564 1.574 . S
C2572 H2567 0.949 . S
C2572 C2578 1.368 . S
C2573 C2557 1.349 . S
C2573 H2565 0.950 . S
C2573 C2571 1.327 . S
C2574 C2562 1.371 . S
C2574 H2568 0.901 1_556 S
C2574 C2575 1.355 . S
C2575 H2569 0.950 . S
C2575 C2574 1.355 . S
C2575 C2579 1.429 . S
C2576 C2559 1.574 . S
C2576 H2570 0.949 . S
C2576 C2580 1.368 . S
C2577 C2558 1.429 . S
C2577 C2571 1.429 . S
C2577 C2578 1.523 . S
C2578 C2559 1.368 . S
C2578 C2572 1.368 . S
C2578 C2577 1.523 . S
C2579 C2563 1.429 . S
C2579 C2575 1.429 . S
C2579 C2580 1.523 . S
C2580 C2564 1.368 . S
C2580 C2576 1.368 . S
C2580 C2579 1.523 . S
H2581 C2556 0.950 . S
H2582 C2558 0.950 . S
H2583 C2559 0.949 . S
H2584 C2561 0.950 . S
H2585 C2563 0.950 . S
C2586 C2587 1.349 . S
C2586 C2588 1.327 . S
C2586 H2611 0.950 . S
C2587 C2586 1.349 . S
C2587 C2603 1.349 . S
C2588 C2586 1.327 . S
C2588 C2607 1.429 . S
C2588 H2612 0.950 . S
C2589 C2606 1.574 . S
C2589 C2608 1.368 . S
C2589 H2613 0.949 . S
H2590 C2594 0.949 . S
C2591 C2592 1.349 . S
C2591 C2593 1.327 . S
C2591 H2614 0.950 . S
C2592 C2591 1.349 . S
C2592 C2604 1.349 . S
C2593 C2591 1.327 . S
C2593 C2609 1.429 . S
C2593 H2615 0.950 . S
C2594 H2590 0.949 . S
C2594 C2602 1.574 . S
C2594 C2610 1.368 . S
H2595 C2603 0.950 . S
H2596 C2601 0.950 . S
H2597 C2602 0.949 . S
H2598 C2604 0.950 . S
H2599 C2605 0.950 . S
H2600 C2606 0.949 . S
C2601 H2596 0.950 . S
C2601 C2603 1.327 . S
C2601 C2607 1.429 . S
C2602 C2594 1.574 . S
C2602 H2597 0.949 . S
C2602 C2608 1.368 . S
C2603 C2587 1.349 . S
C2603 H2595 0.950 . S
C2603 C2601 1.327 . S
C2604 C2592 1.349 . S
C2604 H2598 0.950 . S
C2604 C2605 1.327 . S
C2605 H2599 0.950 . S
C2605 C2604 1.327 . S
C2605 C2609 1.429 . S
C2606 C2589 1.574 . S
C2606 H2600 0.949 . S
C2606 C2610 1.368 . S
C2607 C2588 1.429 . S
C2607 C2601 1.429 . S
C2607 C2608 1.523 . S
C2608 C2589 1.368 . S
C2608 C2602 1.368 . S
C2608 C2607 1.523 . S
C2609 C2593 1.429 . S
C2609 C2605 1.429 . S
C2609 C2610 1.523 . S
C2610 C2594 1.368 . S
C2610 C2606 1.368 . S
C2610 C2609 1.523 . S
H2611 C2586 0.950 . S
H2612 C2588 0.950 . S
H2613 C2589 0.949 . S
H2614 C2591 0.950 . S
H2615 C2593 0.950 . S
C2616 C2617 1.349 . S
C2616 C2618 1.327 . S
C2616 H2641 0.950 . S
C2617 C2616 1.349 . S
C2617 C2633 1.349 . S
C2618 C2616 1.327 . S
C2618 C2637 1.429 . S
C2618 H2642 0.950 . S
C2619 C2636 1.574 . S
C2619 C2638 1.368 . S
C2619 H2643 0.949 . S
H2620 C2624 0.949 . S
C2621 C2622 1.349 . S
C2621 C2623 1.327 . S
C2621 H2644 0.950 1_545 S
C2622 C2621 1.349 . S
C2622 C2634 1.349 . S
C2623 C2621 1.327 . S
C2623 C2639 1.429 . S
C2623 H2645 0.950 1_545 S
C2624 H2620 0.949 . S
C2624 C2632 1.574 . S
C2624 C2640 1.368 . S
H2625 C2633 0.950 . S
H2626 C2631 0.950 . S
H2627 C2632 0.949 . S
H2628 C2634 0.950 . S
H2629 C2635 0.950 . S
H2630 C2636 0.922 1_565 S
C2631 H2626 0.950 . S
C2631 C2633 1.327 . S
C2631 C2637 1.429 . S
C2632 C2624 1.574 . S
C2632 H2627 0.949 . S
C2632 C2638 1.368 . S
C2633 C2617 1.349 . S
C2633 H2625 0.950 . S
C2633 C2631 1.327 . S
C2634 C2622 1.349 . S
C2634 H2628 0.950 . S
C2634 C2635 1.327 . S
C2635 H2629 0.950 . S
C2635 C2634 1.327 . S
C2635 C2639 1.429 . S
C2636 C2619 1.574 . S
C2636 H2630 0.922 1_545 S
C2636 C2640 1.368 . S
C2637 C2618 1.429 . S
C2637 C2631 1.429 . S
C2637 C2638 1.523 . S
C2638 C2619 1.368 . S
C2638 C2632 1.368 . S
C2638 C2637 1.523 . S
C2639 C2623 1.429 . S
C2639 C2635 1.429 . S
C2639 C2640 1.523 . S
C2640 C2624 1.368 . S
C2640 C2636 1.368 . S
C2640 C2639 1.523 . S
H2641 C2616 0.950 . S
H2642 C2618 0.950 . S
H2643 C2619 0.949 . S
H2644 C2621 0.950 1_565 S
H2645 C2623 0.950 1_565 S
C2646 C2647 1.349 . S
C2646 C2648 1.327 . S
C2646 H2671 0.950 . S
C2647 C2646 1.349 . S
C2647 C2663 1.349 . S
C2648 C2646 1.327 . S
C2648 C2667 1.429 . S
C2648 H2672 0.950 . S
C2649 C2666 1.574 . S
C2649 C2668 1.368 . S
C2649 H2673 0.949 . S
H2650 C2654 0.949 . S
C2651 C2652 1.349 . S
C2651 C2653 1.327 . S
C2651 H2674 0.950 . S
C2652 C2651 1.349 . S
C2652 C2664 1.349 . S
C2653 C2651 1.327 . S
C2653 C2669 1.429 . S
C2653 H2675 0.950 . S
C2654 H2650 0.949 . S
C2654 C2662 1.574 . S
C2654 C2670 1.368 . S
H2655 C2663 0.950 . S
H2656 C2661 0.950 . S
H2657 C2662 0.949 . S
H2658 C2664 0.950 . S
H2659 C2665 0.950 . S
H2660 C2666 0.949 . S
C2661 H2656 0.950 . S
C2661 C2663 1.327 . S
C2661 C2667 1.429 . S
C2662 C2654 1.574 . S
C2662 H2657 0.949 . S
C2662 C2668 1.368 . S
C2663 C2647 1.349 . S
C2663 H2655 0.950 . S
C2663 C2661 1.327 . S
C2664 C2652 1.349 . S
C2664 H2658 0.950 . S
C2664 C2665 1.327 . S
C2665 H2659 0.950 . S
C2665 C2664 1.327 . S
C2665 C2669 1.429 . S
C2666 C2649 1.574 . S
C2666 H2660 0.949 . S
C2666 C2670 1.368 . S
C2667 C2648 1.429 . S
C2667 C2661 1.429 . S
C2667 C2668 1.523 . S
C2668 C2649 1.368 . S
C2668 C2662 1.368 . S
C2668 C2667 1.523 . S
C2669 C2653 1.429 . S
C2669 C2665 1.429 . S
C2669 C2670 1.523 . S
C2670 C2654 1.368 . S
C2670 C2666 1.368 . S
C2670 C2669 1.523 . S
H2671 C2646 0.950 . S
H2672 C2648 0.950 . S
H2673 C2649 0.949 . S
H2674 C2651 0.950 . S
H2675 C2653 0.950 . S
C2676 C2677 1.349 . S
C2676 C2678 1.327 . S
C2676 H2701 0.950 . S
C2677 C2676 1.349 . S
C2677 C2693 1.349 . S
C2678 C2676 1.327 . S
C2678 C2697 1.429 . S
C2678 H2702 0.950 . S
C2679 C2696 1.574 . S
C2679 C2698 1.368 . S
C2679 H2703 0.949 . S
H2680 C2684 0.949 . S
C2681 C2682 1.349 . S
C2681 C2683 1.327 . S
C2681 H2704 0.950 . S
C2682 C2681 1.349 . S
C2682 C2694 1.349 . S
C2683 C2681 1.327 . S
C2683 C2699 1.429 . S
C2683 H2705 0.950 . S
C2684 H2680 0.949 . S
C2684 C2692 1.574 . S
C2684 C2700 1.368 . S
H2685 C2693 0.950 . S
H2686 C2691 0.950 . S
H2687 C2692 0.949 . S
H2688 C2694 0.950 . S
H2689 C2695 0.950 . S
H2690 C2696 0.949 . S
C2691 H2686 0.950 . S
C2691 C2693 1.327 . S
C2691 C2697 1.429 . S
C2692 C2684 1.574 . S
C2692 H2687 0.949 . S
C2692 C2698 1.368 . S
C2693 C2677 1.349 . S
C2693 H2685 0.950 . S
C2693 C2691 1.327 . S
C2694 C2682 1.349 . S
C2694 H2688 0.950 . S
C2694 C2695 1.327 . S
C2695 H2689 0.950 . S
C2695 C2694 1.327 . S
C2695 C2699 1.429 . S
C2696 C2679 1.574 . S
C2696 H2690 0.949 . S
C2696 C2700 1.368 . S
C2697 C2678 1.429 . S
C2697 C2691 1.429 . S
C2697 C2698 1.523 . S
C2698 C2679 1.368 . S
C2698 C2692 1.368 . S
C2698 C2697 1.523 . S
C2699 C2683 1.429 . S
C2699 C2695 1.429 . S
C2699 C2700 1.523 . S
C2700 C2684 1.368 . S
C2700 C2696 1.368 . S
C2700 C2699 1.523 . S
H2701 C2676 0.950 . S
H2702 C2678 0.950 . S
H2703 C2679 0.949 . S
H2704 C2681 0.950 . S
H2705 C2683 0.950 . S
C2706 C2707 1.349 . S
C2706 C2708 1.327 . S
C2706 H2731 0.950 . S
C2707 C2706 1.349 . S
C2707 C2723 1.349 . S
C2708 C2706 1.327 . S
C2708 C2727 1.429 . S
C2708 H2732 0.950 . S
C2709 C2726 1.574 . S
C2709 C2728 1.368 . S
C2709 H2733 0.949 . S
H2710 C2714 0.949 . S
C2711 C2712 1.349 . S
C2711 C2713 1.327 . S
C2711 H2734 0.950 . S
C2712 C2711 1.349 . S
C2712 C2724 1.349 . S
C2713 C2711 1.327 . S
C2713 C2729 1.429 . S
C2713 H2735 0.950 . S
C2714 H2710 0.949 . S
C2714 C2722 1.574 . S
C2714 C2730 1.368 . S
H2715 C2723 0.950 . S
H2716 C2721 0.950 . S
H2717 C2722 0.949 . S
H2718 C2724 0.950 . S
H2719 C2725 0.950 . S
H2720 C2726 0.949 . S
C2721 H2716 0.950 . S
C2721 C2723 1.327 . S
C2721 C2727 1.429 . S
C2722 C2714 1.574 . S
C2722 H2717 0.949 . S
C2722 C2728 1.368 . S
C2723 C2707 1.349 . S
C2723 H2715 0.950 . S
C2723 C2721 1.327 . S
C2724 C2712 1.349 . S
C2724 H2718 0.950 . S
C2724 C2725 1.327 . S
C2725 H2719 0.950 . S
C2725 C2724 1.327 . S
C2725 C2729 1.429 . S
C2726 C2709 1.574 . S
C2726 H2720 0.949 . S
C2726 C2730 1.368 . S
C2727 C2708 1.429 . S
C2727 C2721 1.429 . S
C2727 C2728 1.523 . S
C2728 C2709 1.368 . S
C2728 C2722 1.368 . S
C2728 C2727 1.523 . S
C2729 C2713 1.429 . S
C2729 C2725 1.429 . S
C2729 C2730 1.523 . S
C2730 C2714 1.368 . S
C2730 C2726 1.368 . S
C2730 C2729 1.523 . S
H2731 C2706 0.950 . S
H2732 C2708 0.950 . S
H2733 C2709 0.949 . S
H2734 C2711 0.950 . S
H2735 C2713 0.950 . S
C2736 C2737 1.349 . S
C2736 C2738 1.327 . S
C2736 H2761 0.950 . S
C2737 C2736 1.349 . S
C2737 C2753 1.349 . S
C2738 C2736 1.327 . S
C2738 C2757 1.429 . S
C2738 H2762 0.950 . S
C2739 C2756 1.574 . S
C2739 C2758 1.368 . S
C2739 H2763 0.949 . S
H2740 C2744 0.949 . S
C2741 C2742 1.349 . S
C2741 C2743 1.327 . S
C2741 H2764 0.950 . S
C2742 C2741 1.349 . S
C2742 C2754 1.349 . S
C2743 C2741 1.327 . S
C2743 C2759 1.429 . S
C2743 H2765 0.950 . S
C2744 H2740 0.949 . S
C2744 C2752 1.574 . S
C2744 C2760 1.368 . S
H2745 C2753 0.950 . S
H2746 C2751 0.950 . S
H2747 C2752 0.949 . S
H2748 C2754 0.950 . S
H2749 C2755 0.950 . S
H2750 C2756 0.949 . S
C2751 H2746 0.950 . S
C2751 C2753 1.327 . S
C2751 C2757 1.429 . S
C2752 C2744 1.574 . S
C2752 H2747 0.949 . S
C2752 C2758 1.368 . S
C2753 C2737 1.349 . S
C2753 H2745 0.950 . S
C2753 C2751 1.327 . S
C2754 C2742 1.349 . S
C2754 H2748 0.950 . S
C2754 C2755 1.327 . S
C2755 H2749 0.950 . S
C2755 C2754 1.327 . S
C2755 C2759 1.429 . S
C2756 C2739 1.574 . S
C2756 H2750 0.949 . S
C2756 C2760 1.368 . S
C2757 C2738 1.429 . S
C2757 C2751 1.429 . S
C2757 C2758 1.523 . S
C2758 C2739 1.368 . S
C2758 C2752 1.368 . S
C2758 C2757 1.523 . S
C2759 C2743 1.429 . S
C2759 C2755 1.429 . S
C2759 C2760 1.523 . S
C2760 C2744 1.368 . S
C2760 C2756 1.368 . S
C2760 C2759 1.523 . S
H2761 C2736 0.950 . S
H2762 C2738 0.950 . S
H2763 C2739 0.949 . S
H2764 C2741 0.950 . S
H2765 C2743 0.950 . S
C2766 C2767 1.349 . S
C2766 C2768 1.327 . S
C2766 H2791 0.950 . S
C2767 C2766 1.349 . S
C2767 C2783 1.349 . S
C2768 C2766 1.327 . S
C2768 C2787 1.429 . S
C2768 H2792 0.950 . S
C2769 C2786 1.574 . S
C2769 C2788 1.368 . S
C2769 H2793 0.949 . S
H2770 C2774 0.949 . S
C2771 C2772 1.349 . S
C2771 C2773 1.327 . S
C2771 H2794 0.950 . S
C2772 C2771 1.349 . S
C2772 C2784 1.349 . S
C2773 C2771 1.327 . S
C2773 C2789 1.429 . S
C2773 H2795 0.950 . S
C2774 H2770 0.949 . S
C2774 C2782 1.574 . S
C2774 C2790 1.368 . S
H2775 C2783 0.950 . S
H2776 C2781 0.950 . S
H2777 C2782 0.949 . S
H2778 C2784 0.950 . S
H2779 C2785 0.950 . S
H2780 C2786 0.949 . S
C2781 H2776 0.950 . S
C2781 C2783 1.327 . S
C2781 C2787 1.429 . S
C2782 C2774 1.574 . S
C2782 H2777 0.949 . S
C2782 C2788 1.368 . S
C2783 C2767 1.349 . S
C2783 H2775 0.950 . S
C2783 C2781 1.327 . S
C2784 C2772 1.349 . S
C2784 H2778 0.950 . S
C2784 C2785 1.327 . S
C2785 H2779 0.950 . S
C2785 C2784 1.327 . S
C2785 C2789 1.429 . S
C2786 C2769 1.574 . S
C2786 H2780 0.949 . S
C2786 C2790 1.368 . S
C2787 C2768 1.429 . S
C2787 C2781 1.429 . S
C2787 C2788 1.523 . S
C2788 C2769 1.368 . S
C2788 C2782 1.368 . S
C2788 C2787 1.523 . S
C2789 C2773 1.429 . S
C2789 C2785 1.429 . S
C2789 C2790 1.523 . S
C2790 C2774 1.368 . S
C2790 C2786 1.368 . S
C2790 C2789 1.523 . S
H2791 C2766 0.950 . S
H2792 C2768 0.950 . S
H2793 C2769 0.949 . S
H2794 C2771 0.950 . S
H2795 C2773 0.950 . S
C2796 C2797 1.349 1_565 S
C2796 C2798 1.327 . S
C2796 H2821 0.950 . S
C2797 C2796 1.349 1_545 S
C2797 C2813 1.349 . S
C2798 C2796 1.327 . S
C2798 C2817 1.429 1_565 S
C2798 H2822 0.950 . S
C2799 C2816 1.574 . S
C2799 C2818 1.368 . S
C2799 H2823 0.949 . S
H2800 C2804 0.949 . S
C2801 C2802 1.349 . S
C2801 C2803 1.327 . S
C2801 H2824 0.950 . S
C2802 C2801 1.349 . S
C2802 C2814 1.349 1_545 S
C2803 C2801 1.327 . S
C2803 C2819 1.429 . S
C2803 H2825 0.950 . S
C2804 H2800 0.949 . S
C2804 C2812 1.574 . S
C2804 C2820 1.368 1_565 S
H2805 C2813 0.950 . S
H2806 C2811 0.950 . S
H2807 C2812 0.949 . S
H2808 C2814 0.950 . S
H2809 C2815 0.950 . S
H2810 C2816 0.949 . S
C2811 H2806 0.950 . S
C2811 C2813 1.327 . S
C2811 C2817 1.429 . S
C2812 C2804 1.574 . S
C2812 H2807 0.949 . S
C2812 C2818 1.368 1_565 S
C2813 C2797 1.349 . S
C2813 H2805 0.950 . S
C2813 C2811 1.327 . S
C2814 C2802 1.349 1_565 S
C2814 H2808 0.950 . S
C2814 C2815 1.327 . S
C2815 H2809 0.950 . S
C2815 C2814 1.327 . S
C2815 C2819 1.429 1_565 S
C2816 C2799 1.574 . S
C2816 H2810 0.949 . S
C2816 C2820 1.368 . S
C2817 C2798 1.429 1_545 S
C2817 C2811 1.429 . S
C2817 C2818 1.523 . S
C2818 C2799 1.368 . S
C2818 C2812 1.368 1_545 S
C2818 C2817 1.523 . S
C2819 C2803 1.429 . S
C2819 C2815 1.429 1_545 S
C2819 C2820 1.523 . S
C2820 C2804 1.368 1_545 S
C2820 C2816 1.368 . S
C2820 C2819 1.523 . S
H2821 C2796 0.950 . S
H2822 C2798 0.950 . S
H2823 C2799 0.949 . S
H2824 C2801 0.950 . S
H2825 C2803 0.950 . S
C2826 C2827 1.349 . S
C2826 C2828 1.327 . S
C2826 H2851 0.950 . S
C2827 C2826 1.349 . S
C2827 C2843 1.349 . S
C2828 C2826 1.327 . S
C2828 C2847 1.429 . S
C2828 H2852 0.950 . S
C2829 C2846 1.574 . S
C2829 C2848 1.368 . S
C2829 H2853 0.949 . S
H2830 C2834 0.949 . S
C2831 C2832 1.349 . S
C2831 C2833 1.327 . S
C2831 H2854 0.950 . S
C2832 C2831 1.349 . S
C2832 C2844 1.349 . S
C2833 C2831 1.327 . S
C2833 C2849 1.429 . S
C2833 H2855 0.950 . S
C2834 H2830 0.949 . S
C2834 C2842 1.574 . S
C2834 C2850 1.368 . S
H2835 C2843 0.950 . S
H2836 C2841 0.950 . S
H2837 C2842 0.949 . S
H2838 C2844 0.950 . S
H2839 C2845 0.950 . S
H2840 C2846 0.949 . S
C2841 H2836 0.950 . S
C2841 C2843 1.327 . S
C2841 C2847 1.429 . S
C2842 C2834 1.574 . S
C2842 H2837 0.949 . S
C2842 C2848 1.368 . S
C2843 C2827 1.349 . S
C2843 H2835 0.950 . S
C2843 C2841 1.327 . S
C2844 C2832 1.349 . S
C2844 H2838 0.950 . S
C2844 C2845 1.327 . S
C2845 H2839 0.950 . S
C2845 C2844 1.327 . S
C2845 C2849 1.429 . S
C2846 C2829 1.574 . S
C2846 H2840 0.949 . S
C2846 C2850 1.368 . S
C2847 C2828 1.429 . S
C2847 C2841 1.429 . S
C2847 C2848 1.523 . S
C2848 C2829 1.368 . S
C2848 C2842 1.368 . S
C2848 C2847 1.523 . S
C2849 C2833 1.429 . S
C2849 C2845 1.429 . S
C2849 C2850 1.523 . S
C2850 C2834 1.368 . S
C2850 C2846 1.368 . S
C2850 C2849 1.523 . S
H2851 C2826 0.950 . S
H2852 C2828 0.950 . S
H2853 C2829 0.949 . S
H2854 C2831 0.950 . S
H2855 C2833 0.950 . S
C2856 C2857 1.349 . S
C2856 C2858 1.327 . S
C2856 H2881 0.950 . S
C2857 C2856 1.349 . S
C2857 C2873 1.349 . S
C2858 C2856 1.327 . S
C2858 C2877 1.429 . S
C2858 H2882 0.950 . S
C2859 C2876 1.574 . S
C2859 C2878 1.368 . S
C2859 H2883 0.949 . S
H2860 C2864 0.949 . S
C2861 C2862 1.349 . S
C2861 C2863 1.327 . S
C2861 H2884 0.950 . S
C2862 C2861 1.349 . S
C2862 C2874 1.349 . S
C2863 C2861 1.327 . S
C2863 C2879 1.429 . S
C2863 H2885 0.950 . S
C2864 H2860 0.949 . S
C2864 C2872 1.574 . S
C2864 C2880 1.368 . S
H2865 C2873 0.950 . S
H2866 C2871 0.950 . S
H2867 C2872 0.949 . S
H2868 C2874 0.950 . S
H2869 C2875 0.950 . S
H2870 C2876 0.949 . S
C2871 H2866 0.950 . S
C2871 C2873 1.327 . S
C2871 C2877 1.429 . S
C2872 C2864 1.574 . S
C2872 H2867 0.949 . S
C2872 C2878 1.368 . S
C2873 C2857 1.349 . S
C2873 H2865 0.950 . S
C2873 C2871 1.327 . S
C2874 C2862 1.349 . S
C2874 H2868 0.950 . S
C2874 C2875 1.327 . S
C2875 H2869 0.950 . S
C2875 C2874 1.327 . S
C2875 C2879 1.429 . S
C2876 C2859 1.574 . S
C2876 H2870 0.949 . S
C2876 C2880 1.368 . S
C2877 C2858 1.429 . S
C2877 C2871 1.429 . S
C2877 C2878 1.523 . S
C2878 C2859 1.368 . S
C2878 C2872 1.368 . S
C2878 C2877 1.523 . S
C2879 C2863 1.429 . S
C2879 C2875 1.429 . S
C2879 C2880 1.523 . S
C2880 C2864 1.368 . S
C2880 C2876 1.368 . S
C2880 C2879 1.523 . S
H2881 C2856 0.950 . S
H2882 C2858 0.950 . S
H2883 C2859 0.949 . S
H2884 C2861 0.950 . S
H2885 C2863 0.950 . S
C2886 C2887 1.349 . S
C2886 C2888 1.327 . S
C2886 H2911 0.950 . S
C2887 C2886 1.349 . S
C2887 C2903 1.349 . S
C2888 C2886 1.327 . S
C2888 C2907 1.429 . S
C2888 H2912 0.950 . S
C2889 C2906 1.574 . S
C2889 C2908 1.368 . S
C2889 H2913 0.949 . S
H2890 C2894 0.949 . S
C2891 C2892 1.349 . S
C2891 C2893 1.327 . S
C2891 H2914 0.950 . S
C2892 C2891 1.349 . S
C2892 C2904 1.349 . S
C2893 C2891 1.327 . S
C2893 C2909 1.429 . S
C2893 H2915 0.950 . S
C2894 H2890 0.949 . S
C2894 C2902 1.574 . S
C2894 C2910 1.368 . S
H2895 C2903 0.950 . S
H2896 C2901 0.950 . S
H2897 C2902 0.949 . S
H2898 C2904 0.950 . S
H2899 C2905 0.950 . S
H2900 C2906 0.949 . S
C2901 H2896 0.950 . S
C2901 C2903 1.327 . S
C2901 C2907 1.429 . S
C2902 C2894 1.574 . S
C2902 H2897 0.949 . S
C2902 C2908 1.368 . S
C2903 C2887 1.349 . S
C2903 H2895 0.950 . S
C2903 C2901 1.327 . S
C2904 C2892 1.349 . S
C2904 H2898 0.950 . S
C2904 C2905 1.327 . S
C2905 H2899 0.950 . S
C2905 C2904 1.327 . S
C2905 C2909 1.429 . S
C2906 C2889 1.574 . S
C2906 H2900 0.949 . S
C2906 C2910 1.368 . S
C2907 C2888 1.429 . S
C2907 C2901 1.429 . S
C2907 C2908 1.523 . S
C2908 C2889 1.368 . S
C2908 C2902 1.368 . S
C2908 C2907 1.523 . S
C2909 C2893 1.429 . S
C2909 C2905 1.429 . S
C2909 C2910 1.523 . S
C2910 C2894 1.368 . S
C2910 C2906 1.368 . S
C2910 C2909 1.523 . S
H2911 C2886 0.950 . S
H2912 C2888 0.950 . S
H2913 C2889 0.949 . S
H2914 C2891 0.950 . S
H2915 C2893 0.950 . S
C2916 C2917 1.349 . S
C2916 C2918 1.327 . S
C2916 H2941 0.950 . S
C2917 C2916 1.349 . S
C2917 C2933 1.349 . S
C2918 C2916 1.327 . S
C2918 C2937 1.429 . S
C2918 H2942 0.950 . S
C2919 C2936 1.574 . S
C2919 C2938 1.368 . S
C2919 H2943 0.949 . S
H2920 C2924 0.949 . S
C2921 C2922 1.349 . S
C2921 C2923 1.327 . S
C2921 H2944 0.950 . S
C2922 C2921 1.349 . S
C2922 C2934 1.349 . S
C2923 C2921 1.327 . S
C2923 C2939 1.429 . S
C2923 H2945 0.950 . S
C2924 H2920 0.949 . S
C2924 C2932 1.574 . S
C2924 C2940 1.368 . S
H2925 C2933 0.950 . S
H2926 C2931 0.950 . S
H2927 C2932 0.949 . S
H2928 C2934 0.950 . S
H2929 C2935 0.950 . S
H2930 C2936 0.949 . S
C2931 H2926 0.950 . S
C2931 C2933 1.327 . S
C2931 C2937 1.429 . S
C2932 C2924 1.574 . S
C2932 H2927 0.949 . S
C2932 C2938 1.368 . S
C2933 C2917 1.349 . S
C2933 H2925 0.950 . S
C2933 C2931 1.327 . S
C2934 C2922 1.349 . S
C2934 H2928 0.950 . S
C2934 C2935 1.327 . S
C2935 H2929 0.950 . S
C2935 C2934 1.327 . S
C2935 C2939 1.429 . S
C2936 C2919 1.574 . S
C2936 H2930 0.949 . S
C2936 C2940 1.368 . S
C2937 C2918 1.429 . S
C2937 C2931 1.429 . S
C2937 C2938 1.523 . S
C2938 C2919 1.368 . S
C2938 C2932 1.368 . S
C2938 C2937 1.523 . S
C2939 C2923 1.429 . S
C2939 C2935 1.429 . S
C2939 C2940 1.523 . S
C2940 C2924 1.368 . S
C2940 C2936 1.368 . S
C2940 C2939 1.523 . S
H2941 C2916 0.950 . S
H2942 C2918 0.950 . S
H2943 C2919 0.949 . S
H2944 C2921 0.950 . S
H2945 C2923 0.950 . S
C2946 C2947 1.349 . S
C2946 C2948 1.327 . S
C2946 H2971 0.950 . S
C2947 C2946 1.349 . S
C2947 C2963 1.349 . S
C2948 C2946 1.327 . S
C2948 C2967 1.429 . S
C2948 H2972 0.950 . S
C2949 C2966 1.574 . S
C2949 C2968 1.368 . S
C2949 H2973 0.949 . S
H2950 C2954 0.949 . S
C2951 C2952 1.349 . S
C2951 C2953 1.327 . S
C2951 H2974 0.950 . S
C2952 C2951 1.349 . S
C2952 C2964 1.349 . S
C2953 C2951 1.327 . S
C2953 C2969 1.429 . S
C2953 H2975 0.950 . S
C2954 H2950 0.949 . S
C2954 C2962 1.574 . S
C2954 C2970 1.368 . S
H2955 C2963 0.950 . S
H2956 C2961 0.950 . S
H2957 C2962 0.949 . S
H2958 C2964 0.950 . S
H2959 C2965 0.950 . S
H2960 C2966 0.949 . S
C2961 H2956 0.950 . S
C2961 C2963 1.327 . S
C2961 C2967 1.429 . S
C2962 C2954 1.574 . S
C2962 H2957 0.949 . S
C2962 C2968 1.368 . S
C2963 C2947 1.349 . S
C2963 H2955 0.950 . S
C2963 C2961 1.327 . S
C2964 C2952 1.349 . S
C2964 H2958 0.950 . S
C2964 C2965 1.327 . S
C2965 H2959 0.950 . S
C2965 C2964 1.327 . S
C2965 C2969 1.429 . S
C2966 C2949 1.574 . S
C2966 H2960 0.949 . S
C2966 C2970 1.368 . S
C2967 C2948 1.429 . S
C2967 C2961 1.429 . S
C2967 C2968 1.523 . S
C2968 C2949 1.368 . S
C2968 C2962 1.368 . S
C2968 C2967 1.523 . S
C2969 C2953 1.429 . S
C2969 C2965 1.429 . S
C2969 C2970 1.523 . S
C2970 C2954 1.368 . S
C2970 C2966 1.368 . S
C2970 C2969 1.523 . S
H2971 C2946 0.950 . S
H2972 C2948 0.950 . S
H2973 C2949 0.949 . S
H2974 C2951 0.950 . S
H2975 C2953 0.950 . S
C2976 C2977 1.346 1_565 S
C2976 C2978 1.327 . S
C2976 H3001 0.950 . S
C2977 C2976 1.346 1_545 S
C2977 C2993 1.347 1_545 S
C2978 C2976 1.327 . S
C2978 C2997 1.429 . S
C2978 H3002 0.950 . S
C2979 C2996 1.574 . S
C2979 C2998 1.368 . S
C2979 H3003 0.949 . S
H2980 C2984 0.949 . S
C2981 C2982 1.349 . S
C2981 C2983 1.327 . S
C2981 H3004 0.950 . S
C2982 C2981 1.349 . S
C2982 C2994 1.349 . S
C2983 C2981 1.327 . S
C2983 C2999 1.429 . S
C2983 H3005 0.950 . S
C2984 H2980 0.949 . S
C2984 C2992 1.574 . S
C2984 C3000 1.368 . S
H2985 C2993 0.950 1_545 S
H2986 C2991 0.950 . S
H2987 C2992 0.949 . S
H2988 C2994 0.950 . S
H2989 C2995 0.950 . S
H2990 C2996 0.949 . S
C2991 H2986 0.950 . S
C2991 C2993 1.327 . S
C2991 C2997 1.429 . S
C2992 C2984 1.574 . S
C2992 H2987 0.949 . S
C2992 C2998 1.368 . S
C2993 C2977 1.347 1_565 S
C2993 H2985 0.950 1_565 S
C2993 C2991 1.327 . S
C2994 C2982 1.349 . S
C2994 H2988 0.950 . S
C2994 C2995 1.327 . S
C2995 H2989 0.950 . S
C2995 C2994 1.327 . S
C2995 C2999 1.429 . S
C2996 C2979 1.574 . S
C2996 H2990 0.949 . S
C2996 C3000 1.368 . S
C2997 C2978 1.429 . S
C2997 C2991 1.429 . S
C2997 C2998 1.523 . S
C2998 C2979 1.368 . S
C2998 C2992 1.368 . S
C2998 C2997 1.523 . S
C2999 C2983 1.429 . S
C2999 C2995 1.429 . S
C2999 C3000 1.523 . S
C3000 C2984 1.368 . S
C3000 C2996 1.368 . S
C3000 C2999 1.523 . S
H3001 C2976 0.950 . S
H3002 C2978 0.950 . S
H3003 C2979 0.949 . S
H3004 C2981 0.950 . S
H3005 C2983 0.950 . S
C3006 C3007 1.349 . S
C3006 C3008 1.327 . S
C3006 H3031 0.950 . S
C3007 C3006 1.349 . S
C3007 C3023 1.349 . S
C3008 C3006 1.327 . S
C3008 C3027 1.429 . S
C3008 H3032 0.950 . S
C3009 C3026 1.574 . S
C3009 C3028 1.368 . S
C3009 H3033 0.949 . S
H3010 C3014 0.949 . S
C3011 C3012 1.349 . S
C3011 C3013 1.327 . S
C3011 H3034 0.950 . S
C3012 C3011 1.349 . S
C3012 C3024 1.349 . S
C3013 C3011 1.327 . S
C3013 C3029 1.429 . S
C3013 H3035 0.950 . S
C3014 H3010 0.949 . S
C3014 C3022 1.574 . S
C3014 C3030 1.368 . S
H3015 C3023 0.950 . S
H3016 C3021 0.950 . S
H3017 C3022 0.949 . S
H3018 C3024 0.950 . S
H3019 C3025 0.950 . S
H3020 C3026 0.949 . S
C3021 H3016 0.950 . S
C3021 C3023 1.327 . S
C3021 C3027 1.429 . S
C3022 C3014 1.574 . S
C3022 H3017 0.949 . S
C3022 C3028 1.368 . S
C3023 C3007 1.349 . S
C3023 H3015 0.950 . S
C3023 C3021 1.327 . S
C3024 C3012 1.349 . S
C3024 H3018 0.950 . S
C3024 C3025 1.327 . S
C3025 H3019 0.950 . S
C3025 C3024 1.327 . S
C3025 C3029 1.429 . S
C3026 C3009 1.574 . S
C3026 H3020 0.949 . S
C3026 C3030 1.368 . S
C3027 C3008 1.429 . S
C3027 C3021 1.429 . S
C3027 C3028 1.523 . S
C3028 C3009 1.368 . S
C3028 C3022 1.368 . S
C3028 C3027 1.523 . S
C3029 C3013 1.429 . S
C3029 C3025 1.429 . S
C3029 C3030 1.523 . S
C3030 C3014 1.368 . S
C3030 C3026 1.368 . S
C3030 C3029 1.523 . S
H3031 C3006 0.950 . S
H3032 C3008 0.950 . S
H3033 C3009 0.949 . S
H3034 C3011 0.950 . S
H3035 C3013 0.950 . S
C3036 C3037 1.349 . S
C3036 C3038 1.327 . S
C3036 H3061 0.950 . S
C3037 C3036 1.349 . S
C3037 C3053 1.349 . S
C3038 C3036 1.327 . S
C3038 C3057 1.429 . S
C3038 H3062 0.950 . S
C3039 C3056 1.574 . S
C3039 C3058 1.368 . S
C3039 H3063 0.949 . S
H3040 C3044 0.949 . S
C3041 C3042 1.349 . S
C3041 C3043 1.327 . S
C3041 H3064 0.950 . S
C3042 C3041 1.349 . S
C3042 C3054 1.349 . S
C3043 C3041 1.327 . S
C3043 C3059 1.429 . S
C3043 H3065 0.950 . S
C3044 H3040 0.949 . S
C3044 C3052 1.574 . S
C3044 C3060 1.368 . S
H3045 C3053 0.950 . S
H3046 C3051 0.950 . S
H3047 C3052 0.949 . S
H3048 C3054 0.950 . S
H3049 C3055 0.950 . S
H3050 C3056 0.949 . S
C3051 H3046 0.950 . S
C3051 C3053 1.327 . S
C3051 C3057 1.429 . S
C3052 C3044 1.574 . S
C3052 H3047 0.949 . S
C3052 C3058 1.368 . S
C3053 C3037 1.349 . S
C3053 H3045 0.950 . S
C3053 C3051 1.327 . S
C3054 C3042 1.349 . S
C3054 H3048 0.950 . S
C3054 C3055 1.327 . S
C3055 H3049 0.950 . S
C3055 C3054 1.327 . S
C3055 C3059 1.429 . S
C3056 C3039 1.574 . S
C3056 H3050 0.949 . S
C3056 C3060 1.368 . S
C3057 C3038 1.429 . S
C3057 C3051 1.429 . S
C3057 C3058 1.523 . S
C3058 C3039 1.368 . S
C3058 C3052 1.368 . S
C3058 C3057 1.523 . S
C3059 C3043 1.429 . S
C3059 C3055 1.429 . S
C3059 C3060 1.523 . S
C3060 C3044 1.368 . S
C3060 C3056 1.368 . S
C3060 C3059 1.523 . S
H3061 C3036 0.950 . S
H3062 C3038 0.950 . S
H3063 C3039 0.949 . S
H3064 C3041 0.950 . S
H3065 C3043 0.950 . S
C3066 C3067 1.349 . S
C3066 C3068 1.327 . S
C3066 H3091 0.950 . S
C3067 C3066 1.349 . S
C3067 C3083 1.349 . S
C3068 C3066 1.327 . S
C3068 C3087 1.429 . S
C3068 H3092 0.950 . S
C3069 C3086 1.574 . S
C3069 C3088 1.368 . S
C3069 H3093 0.949 . S
H3070 C3074 0.949 . S
C3071 C3072 1.349 . S
C3071 C3073 1.327 . S
C3071 H3094 0.950 . S
C3072 C3071 1.349 . S
C3072 C3084 1.349 . S
C3073 C3071 1.327 . S
C3073 C3089 1.429 . S
C3073 H3095 0.950 . S
C3074 H3070 0.949 . S
C3074 C3082 1.574 . S
C3074 C3090 1.368 . S
H3075 C3083 0.950 . S
H3076 C3081 0.950 . S
H3077 C3082 0.949 . S
H3078 C3084 0.950 . S
H3079 C3085 0.950 . S
H3080 C3086 0.949 . S
C3081 H3076 0.950 . S
C3081 C3083 1.327 . S
C3081 C3087 1.429 . S
C3082 C3074 1.574 . S
C3082 H3077 0.949 . S
C3082 C3088 1.368 . S
C3083 C3067 1.349 . S
C3083 H3075 0.950 . S
C3083 C3081 1.327 . S
C3084 C3072 1.349 . S
C3084 H3078 0.950 . S
C3084 C3085 1.327 . S
C3085 H3079 0.950 . S
C3085 C3084 1.327 . S
C3085 C3089 1.429 . S
C3086 C3069 1.574 . S
C3086 H3080 0.949 . S
C3086 C3090 1.368 . S
C3087 C3068 1.429 . S
C3087 C3081 1.429 . S
C3087 C3088 1.523 . S
C3088 C3069 1.368 . S
C3088 C3082 1.368 . S
C3088 C3087 1.523 . S
C3089 C3073 1.429 . S
C3089 C3085 1.429 . S
C3089 C3090 1.523 . S
C3090 C3074 1.368 . S
C3090 C3086 1.368 . S
C3090 C3089 1.523 . S
H3091 C3066 0.950 . S
H3092 C3068 0.950 . S
H3093 C3069 0.949 . S
H3094 C3071 0.950 . S
H3095 C3073 0.950 . S
C3096 C3097 1.349 . S
C3096 C3098 1.327 . S
C3096 H3121 0.950 . S
C3097 C3096 1.349 . S
C3097 C3113 1.349 . S
C3098 C3096 1.327 . S
C3098 C3117 1.429 . S
C3098 H3122 0.950 . S
C3099 C3116 1.574 . S
C3099 C3118 1.368 . S
C3099 H3123 0.949 . S
H3100 C3104 0.949 . S
C3101 C3102 1.349 . S
C3101 C3103 1.327 . S
C3101 H3124 0.950 . S
C3102 C3101 1.349 . S
C3102 C3114 1.349 . S
C3103 C3101 1.327 . S
C3103 C3119 1.429 . S
C3103 H3125 0.950 . S
C3104 H3100 0.949 . S
C3104 C3112 1.574 . S
C3104 C3120 1.368 . S
H3105 C3113 0.950 . S
H3106 C3111 0.950 . S
H3107 C3112 0.949 . S
H3108 C3114 0.950 . S
H3109 C3115 0.950 . S
H3110 C3116 0.949 . S
C3111 H3106 0.950 . S
C3111 C3113 1.327 . S
C3111 C3117 1.429 . S
C3112 C3104 1.574 . S
C3112 H3107 0.949 . S
C3112 C3118 1.368 . S
C3113 C3097 1.349 . S
C3113 H3105 0.950 . S
C3113 C3111 1.327 . S
C3114 C3102 1.349 . S
C3114 H3108 0.950 . S
C3114 C3115 1.327 . S
C3115 H3109 0.950 . S
C3115 C3114 1.327 . S
C3115 C3119 1.429 . S
C3116 C3099 1.574 . S
C3116 H3110 0.949 . S
C3116 C3120 1.368 . S
C3117 C3098 1.429 . S
C3117 C3111 1.429 . S
C3117 C3118 1.523 . S
C3118 C3099 1.368 . S
C3118 C3112 1.368 . S
C3118 C3117 1.523 . S
C3119 C3103 1.429 . S
C3119 C3115 1.429 . S
C3119 C3120 1.523 . S
C3120 C3104 1.368 . S
C3120 C3116 1.368 . S
C3120 C3119 1.523 . S
H3121 C3096 0.950 . S
H3122 C3098 0.950 . S
H3123 C3099 0.949 . S
H3124 C3101 0.950 . S
H3125 C3103 0.950 . S
C3126 C3127 1.349 . S
C3126 C3128 1.327 . S
C3126 H3151 0.950 . S
C3127 C3126 1.349 . S
C3127 C3143 1.349 . S
C3128 C3126 1.327 . S
C3128 C3147 1.429 . S
C3128 H3152 0.950 . S
C3129 C3146 1.574 . S
C3129 C3148 1.368 . S
C3129 H3153 0.949 . S
H3130 C3134 0.949 . S
C3131 C3132 1.349 . S
C3131 C3133 1.327 . S
C3131 H3154 0.950 . S
C3132 C3131 1.349 . S
C3132 C3144 1.349 . S
C3133 C3131 1.327 . S
C3133 C3149 1.429 . S
C3133 H3155 0.950 . S
C3134 H3130 0.949 . S
C3134 C3142 1.574 . S
C3134 C3150 1.368 . S
H3135 C3143 0.950 . S
H3136 C3141 0.950 . S
H3137 C3142 0.949 . S
H3138 C3144 0.950 . S
H3139 C3145 0.950 . S
H3140 C3146 0.949 . S
C3141 H3136 0.950 . S
C3141 C3143 1.327 . S
C3141 C3147 1.429 . S
C3142 C3134 1.574 . S
C3142 H3137 0.949 . S
C3142 C3148 1.368 . S
C3143 C3127 1.349 . S
C3143 H3135 0.950 . S
C3143 C3141 1.327 . S
C3144 C3132 1.349 . S
C3144 H3138 0.950 . S
C3144 C3145 1.327 . S
C3145 H3139 0.950 . S
C3145 C3144 1.327 . S
C3145 C3149 1.429 . S
C3146 C3129 1.574 . S
C3146 H3140 0.949 . S
C3146 C3150 1.368 . S
C3147 C3128 1.429 . S
C3147 C3141 1.429 . S
C3147 C3148 1.523 . S
C3148 C3129 1.368 . S
C3148 C3142 1.368 . S
C3148 C3147 1.523 . S
C3149 C3133 1.429 . S
C3149 C3145 1.429 . S
C3149 C3150 1.523 . S
C3150 C3134 1.368 . S
C3150 C3146 1.368 . S
C3150 C3149 1.523 . S
H3151 C3126 0.950 . S
H3152 C3128 0.950 . S
H3153 C3129 0.949 . S
H3154 C3131 0.950 . S
H3155 C3133 0.950 . S
C3156 C3157 1.349 . S
C3156 C3158 1.327 . S
C3156 H3181 0.950 . S
C3157 C3156 1.349 . S
C3157 C3173 1.331 1_455 S
C3158 C3156 1.327 . S
C3158 C3177 1.429 . S
C3158 H3182 0.928 1_556 S
C3159 C3176 1.574 . S
C3159 C3178 1.368 . S
C3159 H3183 0.949 1_455 S
H3160 C3164 0.949 . S
C3161 C3162 1.349 1_556 S
C3161 C3163 1.327 . S
C3161 H3184 0.950 . S
C3162 C3161 1.349 1_554 S
C3162 C3174 1.349 . S
C3163 C3161 1.327 . S
C3163 C3179 1.429 . S
C3163 H3185 0.950 . S
C3164 H3160 0.949 . S
C3164 C3172 1.574 1_554 S
C3164 C3180 1.368 1_554 S
H3165 C3173 0.963 . S
H3166 C3171 0.931 1_655 S
H3167 C3172 0.949 1_554 S
H3168 C3174 0.950 . S
H3169 C3175 0.950 . S
H3170 C3176 0.937 1_655 S
C3171 H3166 0.931 1_455 S
C3171 C3173 1.341 1_455 S
C3171 C3177 1.442 . S
C3172 C3164 1.574 1_556 S
C3172 H3167 0.949 1_556 S
C3172 C3178 1.368 . S
C3173 C3157 1.331 1_655 S
C3173 H3165 0.963 . S
C3173 C3171 1.341 1_655 S
C3174 C3162 1.349 . S
C3174 H3168 0.950 . S
C3174 C3175 1.327 . S
C3175 H3169 0.950 . S
C3175 C3174 1.327 . S
C3175 C3179 1.429 1_554 S
C3176 C3159 1.574 . S
C3176 H3170 0.937 1_455 S
C3176 C3180 1.368 . S
C3177 C3158 1.429 . S
C3177 C3171 1.442 . S
C3177 C3178 1.523 . S
C3178 C3159 1.368 . S
C3178 C3172 1.368 . S
C3178 C3177 1.523 . S
C3179 C3163 1.429 . S
C3179 C3175 1.429 1_556 S
C3179 C3180 1.523 . S
C3180 C3164 1.368 1_556 S
C3180 C3176 1.368 . S
C3180 C3179 1.523 . S
H3181 C3156 0.950 . S
H3182 C3158 0.928 1_554 S
H3183 C3159 0.949 1_655 S
H3184 C3161 0.950 . S
H3185 C3163 0.950 . S
C3186 C3187 1.349 . S
C3186 C3188 1.333 . S
C3186 H3211 0.944 1_655 S
C3187 C3186 1.349 . S
C3187 C3203 1.349 . S
C3188 C3186 1.333 . S
C3188 C3207 1.429 . S
C3188 H3212 0.950 . S
C3189 C3206 1.574 . S
C3189 C3208 1.368 . S
C3189 H3213 0.949 . S
H3190 C3194 0.949 . S
C3191 C3192 1.349 . S
C3191 C3193 1.327 . S
C3191 H3214 0.950 . S
C3192 C3191 1.349 . S
C3192 C3204 1.349 . S
C3193 C3191 1.327 . S
C3193 C3209 1.429 . S
C3193 H3215 0.950 . S
C3194 H3190 0.949 . S
C3194 C3202 1.574 . S
C3194 C3210 1.368 . S
H3195 C3203 0.950 . S
H3196 C3201 0.950 . S
H3197 C3202 0.949 . S
H3198 C3204 0.950 . S
H3199 C3205 0.950 . S
H3200 C3206 0.949 . S
C3201 H3196 0.950 . S
C3201 C3203 1.327 . S
C3201 C3207 1.429 . S
C3202 C3194 1.574 . S
C3202 H3197 0.949 . S
C3202 C3208 1.368 . S
C3203 C3187 1.349 . S
C3203 H3195 0.950 . S
C3203 C3201 1.327 . S
C3204 C3192 1.349 . S
C3204 H3198 0.950 . S
C3204 C3205 1.327 . S
C3205 H3199 0.950 . S
C3205 C3204 1.327 . S
C3205 C3209 1.429 . S
C3206 C3189 1.574 . S
C3206 H3200 0.949 . S
C3206 C3210 1.368 . S
C3207 C3188 1.429 . S
C3207 C3201 1.429 . S
C3207 C3208 1.523 . S
C3208 C3189 1.368 . S
C3208 C3202 1.368 . S
C3208 C3207 1.523 . S
C3209 C3193 1.429 . S
C3209 C3205 1.429 . S
C3209 C3210 1.523 . S
C3210 C3194 1.368 . S
C3210 C3206 1.368 . S
C3210 C3209 1.523 . S
H3211 C3186 0.944 1_455 S
H3212 C3188 0.950 . S
H3213 C3189 0.949 . S
H3214 C3191 0.950 . S
H3215 C3193 0.950 . S
C3216 C3217 1.349 . S
C3216 C3218 1.327 . S
C3216 H3241 0.950 . S
C3217 C3216 1.349 . S
C3217 C3233 1.349 . S
C3218 C3216 1.327 . S
C3218 C3237 1.429 . S
C3218 H3242 0.950 . S
C3219 C3236 1.574 . S
C3219 C3238 1.368 . S
C3219 H3243 0.949 . S
H3220 C3224 0.949 . S
C3221 C3222 1.349 . S
C3221 C3223 1.327 . S
C3221 H3244 0.950 . S
C3222 C3221 1.349 . S
C3222 C3234 1.349 . S
C3223 C3221 1.327 . S
C3223 C3239 1.429 . S
C3223 H3245 0.950 . S
C3224 H3220 0.949 . S
C3224 C3232 1.574 . S
C3224 C3240 1.368 . S
H3225 C3233 0.950 . S
H3226 C3231 0.950 . S
H3227 C3232 0.949 . S
H3228 C3234 0.950 . S
H3229 C3235 0.950 . S
H3230 C3236 0.949 . S
C3231 H3226 0.950 . S
C3231 C3233 1.327 . S
C3231 C3237 1.429 . S
C3232 C3224 1.574 . S
C3232 H3227 0.949 . S
C3232 C3238 1.368 . S
C3233 C3217 1.349 . S
C3233 H3225 0.950 . S
C3233 C3231 1.327 . S
C3234 C3222 1.349 . S
C3234 H3228 0.950 . S
C3234 C3235 1.327 . S
C3235 H3229 0.950 . S
C3235 C3234 1.327 . S
C3235 C3239 1.429 . S
C3236 C3219 1.574 . S
C3236 H3230 0.949 . S
C3236 C3240 1.368 . S
C3237 C3218 1.429 . S
C3237 C3231 1.429 . S
C3237 C3238 1.523 . S
C3238 C3219 1.368 . S
C3238 C3232 1.368 . S
C3238 C3237 1.523 . S
C3239 C3223 1.429 . S
C3239 C3235 1.429 . S
C3239 C3240 1.523 . S
C3240 C3224 1.368 . S
C3240 C3236 1.368 . S
C3240 C3239 1.523 . S
H3241 C3216 0.950 . S
H3242 C3218 0.950 . S
H3243 C3219 0.949 . S
H3244 C3221 0.950 . S
H3245 C3223 0.950 . S
C3246 C3247 1.349 . S
C3246 C3248 1.327 . S
C3246 H3271 0.950 . S
C3247 C3246 1.349 . S
C3247 C3263 1.349 . S
C3248 C3246 1.327 . S
C3248 C3267 1.429 . S
C3248 H3272 0.950 . S
C3249 C3266 1.574 . S
C3249 C3268 1.368 . S
C3249 H3273 0.949 . S
H3250 C3254 0.949 . S
C3251 C3252 1.349 . S
C3251 C3253 1.327 . S
C3251 H3274 0.950 . S
C3252 C3251 1.349 . S
C3252 C3264 1.349 . S
C3253 C3251 1.327 . S
C3253 C3269 1.429 . S
C3253 H3275 0.950 . S
C3254 H3250 0.949 . S
C3254 C3262 1.574 . S
C3254 C3270 1.368 . S
H3255 C3263 0.950 . S
H3256 C3261 0.950 . S
H3257 C3262 0.949 . S
H3258 C3264 0.950 . S
H3259 C3265 0.950 . S
H3260 C3266 0.949 . S
C3261 H3256 0.950 . S
C3261 C3263 1.327 . S
C3261 C3267 1.429 . S
C3262 C3254 1.574 . S
C3262 H3257 0.949 . S
C3262 C3268 1.368 . S
C3263 C3247 1.349 . S
C3263 H3255 0.950 . S
C3263 C3261 1.327 . S
C3264 C3252 1.349 . S
C3264 H3258 0.950 . S
C3264 C3265 1.327 . S
C3265 H3259 0.950 . S
C3265 C3264 1.327 . S
C3265 C3269 1.429 . S
C3266 C3249 1.574 . S
C3266 H3260 0.949 . S
C3266 C3270 1.368 . S
C3267 C3248 1.429 . S
C3267 C3261 1.429 . S
C3267 C3268 1.523 . S
C3268 C3249 1.368 . S
C3268 C3262 1.368 . S
C3268 C3267 1.523 . S
C3269 C3253 1.429 . S
C3269 C3265 1.429 . S
C3269 C3270 1.523 . S
C3270 C3254 1.368 . S
C3270 C3266 1.368 . S
C3270 C3269 1.523 . S
H3271 C3246 0.950 . S
H3272 C3248 0.950 . S
H3273 C3249 0.949 . S
H3274 C3251 0.950 . S
H3275 C3253 0.950 . S
C3276 C3277 1.349 . S
C3276 C3278 1.327 . S
C3276 H3301 0.950 . S
C3277 C3276 1.349 . S
C3277 C3293 1.349 1_455 S
C3278 C3276 1.327 . S
C3278 C3297 1.429 . S
C3278 H3302 0.950 . S
C3279 C3296 1.593 . S
C3279 C3298 1.368 1_655 S
C3279 H3303 0.949 . S
H3280 C3284 0.949 . S
C3281 C3282 1.349 . S
C3281 C3283 1.327 . S
C3281 H3304 0.950 1_455 S
C3282 C3281 1.349 . S
C3282 C3294 1.349 . S
C3283 C3281 1.327 . S
C3283 C3299 1.429 . S
C3283 H3305 0.950 1_455 S
C3284 H3280 0.949 . S
C3284 C3292 1.574 . S
C3284 C3300 1.368 . S
H3285 C3293 0.950 . S
H3286 C3291 0.950 . S
H3287 C3292 0.949 . S
H3288 C3294 0.950 . S
H3289 C3295 0.950 . S
H3290 C3296 0.991 . S
C3291 H3286 0.950 . S
C3291 C3293 1.327 . S
C3291 C3297 1.429 1_655 S
C3292 C3284 1.574 . S
C3292 H3287 0.949 . S
C3292 C3298 1.368 . S
C3293 C3277 1.349 1_655 S
C3293 H3285 0.950 . S
C3293 C3291 1.327 . S
C3294 C3282 1.349 . S
C3294 H3288 0.950 . S
C3294 C3295 1.327 . S
C3295 H3289 0.950 . S
C3295 C3294 1.327 . S
C3295 C3299 1.429 . S
C3296 C3279 1.593 . S
C3296 H3290 0.991 . S
C3296 C3300 1.306 1_655 S
C3297 C3278 1.429 . S
C3297 C3291 1.429 1_455 S
C3297 C3298 1.523 . S
C3298 C3279 1.368 1_455 S
C3298 C3292 1.368 . S
C3298 C3297 1.523 . S
C3299 C3283 1.429 . S
C3299 C3295 1.429 . S
C3299 C3300 1.523 . S
C3300 C3284 1.368 . S
C3300 C3296 1.306 1_455 S
C3300 C3299 1.523 . S
H3301 C3276 0.950 . S
H3302 C3278 0.950 . S
H3303 C3279 0.949 . S
H3304 C3281 0.950 1_655 S
H3305 C3283 0.950 1_655 S
C3306 C3307 1.349 . S
C3306 C3308 1.327 . S
C3306 H3331 0.950 . S
C3307 C3306 1.349 . S
C3307 C3323 1.349 . S
C3308 C3306 1.327 . S
C3308 C3327 1.429 . S
C3308 H3332 0.950 . S
C3309 C3326 1.574 . S
C3309 C3328 1.368 . S
C3309 H3333 0.949 . S
H3310 C3314 0.949 . S
C3311 C3312 1.349 . S
C3311 C3313 1.327 . S
C3311 H3334 0.950 . S
C3312 C3311 1.349 . S
C3312 C3324 1.349 . S
C3313 C3311 1.327 . S
C3313 C3329 1.429 . S
C3313 H3335 0.950 . S
C3314 H3310 0.949 . S
C3314 C3322 1.574 . S
C3314 C3330 1.368 . S
H3315 C3323 0.950 . S
H3316 C3321 0.950 . S
H3317 C3322 0.949 . S
H3318 C3324 0.950 . S
H3319 C3325 0.950 . S
H3320 C3326 0.949 . S
C3321 H3316 0.950 . S
C3321 C3323 1.327 . S
C3321 C3327 1.429 . S
C3322 C3314 1.574 . S
C3322 H3317 0.949 . S
C3322 C3328 1.368 . S
C3323 C3307 1.349 . S
C3323 H3315 0.950 . S
C3323 C3321 1.327 . S
C3324 C3312 1.349 . S
C3324 H3318 0.950 . S
C3324 C3325 1.327 . S
C3325 H3319 0.950 . S
C3325 C3324 1.327 . S
C3325 C3329 1.429 . S
C3326 C3309 1.574 . S
C3326 H3320 0.949 . S
C3326 C3330 1.368 . S
C3327 C3308 1.429 . S
C3327 C3321 1.429 . S
C3327 C3328 1.523 . S
C3328 C3309 1.368 . S
C3328 C3322 1.368 . S
C3328 C3327 1.523 . S
C3329 C3313 1.429 . S
C3329 C3325 1.429 . S
C3329 C3330 1.523 . S
C3330 C3314 1.368 . S
C3330 C3326 1.368 . S
C3330 C3329 1.523 . S
H3331 C3306 0.950 . S
H3332 C3308 0.950 . S
H3333 C3309 0.949 . S
H3334 C3311 0.950 . S
H3335 C3313 0.950 . S
C3336 C3337 1.349 . S
C3336 C3338 1.327 . S
C3336 H3361 0.950 . S
C3337 C3336 1.349 . S
C3337 C3353 1.349 . S
C3338 C3336 1.327 . S
C3338 C3357 1.429 . S
C3338 H3362 0.950 . S
C3339 C3356 1.574 . S
C3339 C3358 1.368 . S
C3339 H3363 0.949 . S
H3340 C3344 0.949 . S
C3341 C3342 1.349 . S
C3341 C3343 1.327 . S
C3341 H3364 0.950 . S
C3342 C3341 1.349 . S
C3342 C3354 1.349 . S
C3343 C3341 1.327 . S
C3343 C3359 1.429 . S
C3343 H3365 0.950 . S
C3344 H3340 0.949 . S
C3344 C3352 1.574 . S
C3344 C3360 1.368 . S
H3345 C3353 0.950 . S
H3346 C3351 0.950 . S
H3347 C3352 0.949 . S
H3348 C3354 0.950 . S
H3349 C3355 0.950 . S
H3350 C3356 0.949 . S
C3351 H3346 0.950 . S
C3351 C3353 1.327 . S
C3351 C3357 1.429 . S
C3352 C3344 1.574 . S
C3352 H3347 0.949 . S
C3352 C3358 1.368 . S
C3353 C3337 1.349 . S
C3353 H3345 0.950 . S
C3353 C3351 1.327 . S
C3354 C3342 1.349 . S
C3354 H3348 0.950 . S
C3354 C3355 1.327 . S
C3355 H3349 0.950 . S
C3355 C3354 1.327 . S
C3355 C3359 1.429 . S
C3356 C3339 1.574 . S
C3356 H3350 0.949 . S
C3356 C3360 1.368 . S
C3357 C3338 1.429 . S
C3357 C3351 1.429 . S
C3357 C3358 1.523 . S
C3358 C3339 1.368 . S
C3358 C3352 1.368 . S
C3358 C3357 1.523 . S
C3359 C3343 1.429 . S
C3359 C3355 1.429 . S
C3359 C3360 1.523 . S
C3360 C3344 1.368 . S
C3360 C3356 1.368 . S
C3360 C3359 1.523 . S
H3361 C3336 0.950 . S
H3362 C3338 0.950 . S
H3363 C3339 0.949 . S
H3364 C3341 0.950 . S
H3365 C3343 0.950 . S
C3366 C3367 1.349 . S
C3366 C3368 1.327 1_554 S
C3366 H3391 0.950 . S
C3367 C3366 1.349 . S
C3367 C3383 1.349 1_554 S
C3368 C3366 1.327 1_556 S
C3368 C3387 1.429 . S
C3368 H3392 0.950 . S
C3369 C3386 1.574 . S
C3369 C3388 1.368 . S
C3369 H3393 0.949 . S
H3370 C3374 0.949 . S
C3371 C3372 1.349 . S
C3371 C3373 1.327 . S
C3371 H3394 0.950 . S
C3372 C3371 1.349 . S
C3372 C3384 1.349 . S
C3373 C3371 1.327 . S
C3373 C3389 1.429 . S
C3373 H3395 0.950 . S
C3374 H3370 0.949 . S
C3374 C3382 1.574 . S
C3374 C3390 1.368 . S
H3375 C3383 0.950 . S
H3376 C3381 0.950 . S
H3377 C3382 0.949 . S
H3378 C3384 0.950 . S
H3379 C3385 0.950 . S
H3380 C3386 0.949 . S
C3381 H3376 0.950 . S
C3381 C3383 1.327 . S
C3381 C3387 1.429 . S
C3382 C3374 1.574 . S
C3382 H3377 0.949 . S
C3382 C3388 1.368 . S
C3383 C3367 1.349 1_556 S
C3383 H3375 0.950 . S
C3383 C3381 1.327 . S
C3384 C3372 1.349 . S
C3384 H3378 0.950 . S
C3384 C3385 1.327 . S
C3385 H3379 0.950 . S
C3385 C3384 1.327 . S
C3385 C3389 1.429 . S
C3386 C3369 1.574 . S
C3386 H3380 0.949 . S
C3386 C3390 1.368 . S
C3387 C3368 1.429 . S
C3387 C3381 1.429 . S
C3387 C3388 1.523 . S
C3388 C3369 1.368 . S
C3388 C3382 1.368 . S
C3388 C3387 1.523 . S
C3389 C3373 1.429 . S
C3389 C3385 1.429 . S
C3389 C3390 1.523 . S
C3390 C3374 1.368 . S
C3390 C3386 1.368 . S
C3390 C3389 1.523 . S
H3391 C3366 0.950 . S
H3392 C3368 0.950 . S
H3393 C3369 0.949 . S
H3394 C3371 0.950 . S
H3395 C3373 0.950 . S
C3396 C3397 1.349 . S
C3396 C3398 1.327 . S
C3396 H3421 0.950 . S
C3397 C3396 1.349 . S
C3397 C3413 1.349 . S
C3398 C3396 1.327 . S
C3398 C3417 1.429 . S
C3398 H3422 0.950 . S
C3399 C3416 1.574 . S
C3399 C3418 1.368 . S
C3399 H3423 0.949 . S
H3400 C3404 0.949 . S
C3401 C3402 1.349 . S
C3401 C3403 1.327 . S
C3401 H3424 0.950 . S
C3402 C3401 1.349 . S
C3402 C3414 1.349 . S
C3403 C3401 1.327 . S
C3403 C3419 1.429 . S
C3403 H3425 0.950 . S
C3404 H3400 0.949 . S
C3404 C3412 1.574 . S
C3404 C3420 1.368 . S
H3405 C3413 0.950 . S
H3406 C3411 0.950 . S
H3407 C3412 0.949 . S
H3408 C3414 0.950 . S
H3409 C3415 0.950 . S
H3410 C3416 0.949 . S
C3411 H3406 0.950 . S
C3411 C3413 1.327 . S
C3411 C3417 1.429 . S
C3412 C3404 1.574 . S
C3412 H3407 0.949 . S
C3412 C3418 1.368 . S
C3413 C3397 1.349 . S
C3413 H3405 0.950 . S
C3413 C3411 1.327 . S
C3414 C3402 1.349 . S
C3414 H3408 0.950 . S
C3414 C3415 1.327 . S
C3415 H3409 0.950 . S
C3415 C3414 1.327 . S
C3415 C3419 1.429 . S
C3416 C3399 1.574 . S
C3416 H3410 0.949 . S
C3416 C3420 1.368 . S
C3417 C3398 1.429 . S
C3417 C3411 1.429 . S
C3417 C3418 1.523 . S
C3418 C3399 1.368 . S
C3418 C3412 1.368 . S
C3418 C3417 1.523 . S
C3419 C3403 1.429 . S
C3419 C3415 1.429 . S
C3419 C3420 1.523 . S
C3420 C3404 1.368 . S
C3420 C3416 1.368 . S
C3420 C3419 1.523 . S
H3421 C3396 0.950 . S
H3422 C3398 0.950 . S
H3423 C3399 0.949 . S
H3424 C3401 0.950 . S
H3425 C3403 0.950 . S
C3426 C3427 1.349 . S
C3426 C3428 1.327 . S
C3426 H3451 0.950 . S
C3427 C3426 1.349 . S
C3427 C3443 1.349 . S
C3428 C3426 1.327 . S
C3428 C3447 1.429 . S
C3428 H3452 0.950 . S
C3429 C3446 1.574 . S
C3429 C3448 1.368 . S
C3429 H3453 0.949 . S
H3430 C3434 0.949 . S
C3431 C3432 1.349 . S
C3431 C3433 1.327 . S
C3431 H3454 0.950 . S
C3432 C3431 1.349 . S
C3432 C3444 1.349 . S
C3433 C3431 1.327 . S
C3433 C3449 1.429 . S
C3433 H3455 0.950 . S
C3434 H3430 0.949 . S
C3434 C3442 1.574 . S
C3434 C3450 1.368 . S
H3435 C3443 0.950 . S
H3436 C3441 0.950 . S
H3437 C3442 0.949 . S
H3438 C3444 0.950 . S
H3439 C3445 0.950 . S
H3440 C3446 0.949 . S
C3441 H3436 0.950 . S
C3441 C3443 1.327 . S
C3441 C3447 1.429 . S
C3442 C3434 1.574 . S
C3442 H3437 0.949 . S
C3442 C3448 1.368 . S
C3443 C3427 1.349 . S
C3443 H3435 0.950 . S
C3443 C3441 1.327 . S
C3444 C3432 1.349 . S
C3444 H3438 0.950 . S
C3444 C3445 1.327 . S
C3445 H3439 0.950 . S
C3445 C3444 1.327 . S
C3445 C3449 1.429 . S
C3446 C3429 1.574 . S
C3446 H3440 0.949 . S
C3446 C3450 1.368 . S
C3447 C3428 1.429 . S
C3447 C3441 1.429 . S
C3447 C3448 1.523 . S
C3448 C3429 1.368 . S
C3448 C3442 1.368 . S
C3448 C3447 1.523 . S
C3449 C3433 1.429 . S
C3449 C3445 1.429 . S
C3449 C3450 1.523 . S
C3450 C3434 1.368 . S
C3450 C3446 1.368 . S
C3450 C3449 1.523 . S
H3451 C3426 0.950 . S
H3452 C3428 0.950 . S
H3453 C3429 0.949 . S
H3454 C3431 0.950 . S
H3455 C3433 0.950 . S
C3456 C3457 1.349 . S
C3456 C3458 1.327 . S
C3456 H3481 0.950 . S
C3457 C3456 1.349 . S
C3457 C3473 1.349 . S
C3458 C3456 1.327 . S
C3458 C3477 1.429 . S
C3458 H3482 0.950 . S
C3459 C3476 1.574 . S
C3459 C3478 1.368 . S
C3459 H3483 0.949 . S
H3460 C3464 0.949 . S
C3461 C3462 1.349 . S
C3461 C3463 1.327 . S
C3461 H3484 0.950 . S
C3462 C3461 1.349 . S
C3462 C3474 1.349 . S
C3463 C3461 1.327 . S
C3463 C3479 1.429 . S
C3463 H3485 0.950 . S
C3464 H3460 0.949 . S
C3464 C3472 1.574 . S
C3464 C3480 1.368 . S
H3465 C3473 0.950 . S
H3466 C3471 0.950 . S
H3467 C3472 0.949 . S
H3468 C3474 0.950 . S
H3469 C3475 0.950 . S
H3470 C3476 0.949 . S
C3471 H3466 0.950 . S
C3471 C3473 1.327 . S
C3471 C3477 1.429 . S
C3472 C3464 1.574 . S
C3472 H3467 0.949 . S
C3472 C3478 1.368 . S
C3473 C3457 1.349 . S
C3473 H3465 0.950 . S
C3473 C3471 1.327 . S
C3474 C3462 1.349 . S
C3474 H3468 0.950 . S
C3474 C3475 1.327 . S
C3475 H3469 0.950 . S
C3475 C3474 1.327 . S
C3475 C3479 1.429 . S
C3476 C3459 1.574 . S
C3476 H3470 0.949 . S
C3476 C3480 1.368 . S
C3477 C3458 1.429 . S
C3477 C3471 1.429 . S
C3477 C3478 1.523 . S
C3478 C3459 1.368 . S
C3478 C3472 1.368 . S
C3478 C3477 1.523 . S
C3479 C3463 1.429 . S
C3479 C3475 1.429 . S
C3479 C3480 1.523 . S
C3480 C3464 1.368 . S
C3480 C3476 1.368 . S
C3480 C3479 1.523 . S
H3481 C3456 0.950 . S
H3482 C3458 0.950 . S
H3483 C3459 0.949 . S
H3484 C3461 0.950 . S
H3485 C3463 0.950 . S
C3486 C3487 1.349 . S
C3486 C3488 1.327 . S
C3486 H3511 0.950 . S
C3487 C3486 1.349 . S
C3487 C3503 1.349 . S
C3488 C3486 1.327 . S
C3488 C3507 1.429 . S
C3488 H3512 0.950 . S
C3489 C3506 1.574 . S
C3489 C3508 1.368 . S
C3489 H3513 0.949 . S
H3490 C3494 0.949 . S
C3491 C3492 1.349 . S
C3491 C3493 1.327 . S
C3491 H3514 0.950 . S
C3492 C3491 1.349 . S
C3492 C3504 1.349 . S
C3493 C3491 1.327 . S
C3493 C3509 1.429 . S
C3493 H3515 0.950 . S
C3494 H3490 0.949 . S
C3494 C3502 1.574 . S
C3494 C3510 1.368 . S
H3495 C3503 0.950 . S
H3496 C3501 0.950 . S
H3497 C3502 0.949 . S
H3498 C3504 0.950 . S
H3499 C3505 0.950 . S
H3500 C3506 0.949 . S
C3501 H3496 0.950 . S
C3501 C3503 1.327 . S
C3501 C3507 1.429 . S
C3502 C3494 1.574 . S
C3502 H3497 0.949 . S
C3502 C3508 1.368 . S
C3503 C3487 1.349 . S
C3503 H3495 0.950 . S
C3503 C3501 1.327 . S
C3504 C3492 1.349 . S
C3504 H3498 0.950 . S
C3504 C3505 1.327 . S
C3505 H3499 0.950 . S
C3505 C3504 1.327 . S
C3505 C3509 1.429 . S
C3506 C3489 1.574 . S
C3506 H3500 0.949 . S
C3506 C3510 1.368 . S
C3507 C3488 1.429 . S
C3507 C3501 1.429 . S
C3507 C3508 1.523 . S
C3508 C3489 1.368 . S
C3508 C3502 1.368 . S
C3508 C3507 1.523 . S
C3509 C3493 1.429 . S
C3509 C3505 1.429 . S
C3509 C3510 1.523 . S
C3510 C3494 1.368 . S
C3510 C3506 1.368 . S
C3510 C3509 1.523 . S
H3511 C3486 0.950 . S
H3512 C3488 0.950 . S
H3513 C3489 0.949 . S
H3514 C3491 0.950 . S
H3515 C3493 0.950 . S
C3516 C3517 1.349 . S
C3516 C3518 1.327 . S
C3516 H3541 0.950 . S
C3517 C3516 1.349 . S
C3517 C3533 1.349 . S
C3518 C3516 1.327 . S
C3518 C3537 1.429 . S
C3518 H3542 0.950 . S
C3519 C3536 1.574 . S
C3519 C3538 1.368 . S
C3519 H3543 0.949 . S
H3520 C3524 0.949 . S
C3521 C3522 1.349 . S
C3521 C3523 1.327 . S
C3521 H3544 0.950 . S
C3522 C3521 1.349 . S
C3522 C3534 1.349 . S
C3523 C3521 1.327 . S
C3523 C3539 1.429 . S
C3523 H3545 0.950 . S
C3524 H3520 0.949 . S
C3524 C3532 1.574 . S
C3524 C3540 1.368 . S
H3525 C3533 0.950 . S
H3526 C3531 0.950 . S
H3527 C3532 0.949 . S
H3528 C3534 0.950 . S
H3529 C3535 0.950 . S
H3530 C3536 0.949 . S
C3531 H3526 0.950 . S
C3531 C3533 1.327 . S
C3531 C3537 1.429 . S
C3532 C3524 1.574 . S
C3532 H3527 0.949 . S
C3532 C3538 1.368 . S
C3533 C3517 1.349 . S
C3533 H3525 0.950 . S
C3533 C3531 1.327 . S
C3534 C3522 1.349 . S
C3534 H3528 0.950 . S
C3534 C3535 1.327 . S
C3535 H3529 0.950 . S
C3535 C3534 1.327 . S
C3535 C3539 1.429 . S
C3536 C3519 1.574 . S
C3536 H3530 0.949 . S
C3536 C3540 1.368 . S
C3537 C3518 1.429 . S
C3537 C3531 1.429 . S
C3537 C3538 1.523 . S
C3538 C3519 1.368 . S
C3538 C3532 1.368 . S
C3538 C3537 1.523 . S
C3539 C3523 1.429 . S
C3539 C3535 1.429 . S
C3539 C3540 1.523 . S
C3540 C3524 1.368 . S
C3540 C3536 1.368 . S
C3540 C3539 1.523 . S
H3541 C3516 0.950 . S
H3542 C3518 0.950 . S
H3543 C3519 0.949 . S
H3544 C3521 0.950 . S
H3545 C3523 0.950 . S
C3546 C3547 1.349 . S
C3546 C3548 1.327 . S
C3546 H3571 0.950 . S
C3547 C3546 1.349 . S
C3547 C3563 1.349 . S
C3548 C3546 1.327 . S
C3548 C3567 1.429 . S
C3548 H3572 0.950 . S
C3549 C3566 1.574 . S
C3549 C3568 1.368 . S
C3549 H3573 0.949 . S
H3550 C3554 0.949 . S
C3551 C3552 1.349 . S
C3551 C3553 1.327 . S
C3551 H3574 0.950 . S
C3552 C3551 1.349 . S
C3552 C3564 1.349 . S
C3553 C3551 1.327 . S
C3553 C3569 1.429 . S
C3553 H3575 0.950 . S
C3554 H3550 0.949 . S
C3554 C3562 1.574 . S
C3554 C3570 1.368 . S
H3555 C3563 0.950 . S
H3556 C3561 0.950 . S
H3557 C3562 0.949 . S
H3558 C3564 0.950 . S
H3559 C3565 0.950 . S
H3560 C3566 0.949 . S
C3561 H3556 0.950 . S
C3561 C3563 1.327 . S
C3561 C3567 1.429 . S
C3562 C3554 1.574 . S
C3562 H3557 0.949 . S
C3562 C3568 1.368 . S
C3563 C3547 1.349 . S
C3563 H3555 0.950 . S
C3563 C3561 1.327 . S
C3564 C3552 1.349 . S
C3564 H3558 0.950 . S
C3564 C3565 1.327 . S
C3565 H3559 0.950 . S
C3565 C3564 1.327 . S
C3565 C3569 1.429 . S
C3566 C3549 1.574 . S
C3566 H3560 0.949 . S
C3566 C3570 1.368 . S
C3567 C3548 1.429 . S
C3567 C3561 1.429 . S
C3567 C3568 1.523 . S
C3568 C3549 1.368 . S
C3568 C3562 1.368 . S
C3568 C3567 1.523 . S
C3569 C3553 1.429 . S
C3569 C3565 1.429 . S
C3569 C3570 1.523 . S
C3570 C3554 1.368 . S
C3570 C3566 1.368 . S
C3570 C3569 1.523 . S
H3571 C3546 0.950 . S
H3572 C3548 0.950 . S
H3573 C3549 0.949 . S
H3574 C3551 0.950 . S
H3575 C3553 0.950 . S
C3576 C3577 1.349 . S
C3576 C3578 1.327 . S
C3576 H3601 0.950 . S
C3577 C3576 1.349 . S
C3577 C3593 1.349 . S
C3578 C3576 1.327 . S
C3578 C3597 1.429 . S
C3578 H3602 0.950 . S
C3579 C3596 1.574 . S
C3579 C3598 1.368 . S
C3579 H3603 0.949 . S
H3580 C3584 0.949 . S
C3581 C3582 1.349 . S
C3581 C3583 1.327 . S
C3581 H3604 0.950 . S
C3582 C3581 1.349 . S
C3582 C3594 1.349 . S
C3583 C3581 1.327 . S
C3583 C3599 1.429 . S
C3583 H3605 0.950 . S
C3584 H3580 0.949 . S
C3584 C3592 1.574 . S
C3584 C3600 1.368 . S
H3585 C3593 0.950 . S
H3586 C3591 0.950 . S
H3587 C3592 0.949 . S
H3588 C3594 0.950 . S
H3589 C3595 0.950 . S
H3590 C3596 0.949 . S
C3591 H3586 0.950 . S
C3591 C3593 1.327 . S
C3591 C3597 1.429 . S
C3592 C3584 1.574 . S
C3592 H3587 0.949 . S
C3592 C3598 1.368 . S
C3593 C3577 1.349 . S
C3593 H3585 0.950 . S
C3593 C3591 1.327 . S
C3594 C3582 1.349 . S
C3594 H3588 0.950 . S
C3594 C3595 1.327 . S
C3595 H3589 0.950 . S
C3595 C3594 1.327 . S
C3595 C3599 1.429 . S
C3596 C3579 1.574 . S
C3596 H3590 0.949 . S
C3596 C3600 1.368 . S
C3597 C3578 1.429 . S
C3597 C3591 1.429 . S
C3597 C3598 1.523 . S
C3598 C3579 1.368 . S
C3598 C3592 1.368 . S
C3598 C3597 1.523 . S
C3599 C3583 1.429 . S
C3599 C3595 1.429 . S
C3599 C3600 1.523 . S
C3600 C3584 1.368 . S
C3600 C3596 1.368 . S
C3600 C3599 1.523 . S
H3601 C3576 0.950 . S
H3602 C3578 0.950 . S
H3603 C3579 0.949 . S
H3604 C3581 0.950 . S
H3605 C3583 0.950 . S
C3606 C3607 1.349 . S
C3606 C3608 1.327 . S
C3606 H3631 0.950 . S
C3607 C3606 1.349 . S
C3607 C3623 1.349 . S
C3608 C3606 1.327 . S
C3608 C3627 1.429 . S
C3608 H3632 0.950 . S
C3609 C3626 1.574 . S
C3609 C3628 1.368 . S
C3609 H3633 0.949 . S
H3610 C3614 0.949 . S
C3611 C3612 1.349 . S
C3611 C3613 1.327 . S
C3611 H3634 0.950 . S
C3612 C3611 1.349 . S
C3612 C3624 1.349 . S
C3613 C3611 1.327 . S
C3613 C3629 1.429 . S
C3613 H3635 0.950 . S
C3614 H3610 0.949 . S
C3614 C3622 1.574 . S
C3614 C3630 1.368 . S
H3615 C3623 0.950 . S
H3616 C3621 0.950 . S
H3617 C3622 0.949 . S
H3618 C3624 0.950 . S
H3619 C3625 0.950 . S
H3620 C3626 0.949 . S
C3621 H3616 0.950 . S
C3621 C3623 1.327 . S
C3621 C3627 1.429 . S
C3622 C3614 1.574 . S
C3622 H3617 0.949 . S
C3622 C3628 1.368 . S
C3623 C3607 1.349 . S
C3623 H3615 0.950 . S
C3623 C3621 1.327 . S
C3624 C3612 1.349 . S
C3624 H3618 0.950 . S
C3624 C3625 1.327 . S
C3625 H3619 0.950 . S
C3625 C3624 1.327 . S
C3625 C3629 1.429 . S
C3626 C3609 1.574 . S
C3626 H3620 0.949 . S
C3626 C3630 1.368 . S
C3627 C3608 1.429 . S
C3627 C3621 1.429 . S
C3627 C3628 1.523 . S
C3628 C3609 1.368 . S
C3628 C3622 1.368 . S
C3628 C3627 1.523 . S
C3629 C3613 1.429 . S
C3629 C3625 1.429 . S
C3629 C3630 1.523 . S
C3630 C3614 1.368 . S
C3630 C3626 1.368 . S
C3630 C3629 1.523 . S
H3631 C3606 0.950 . S
H3632 C3608 0.950 . S
H3633 C3609 0.949 . S
H3634 C3611 0.950 . S
H3635 C3613 0.950 . S
C3636 C3637 1.349 . S
C3636 C3638 1.327 . S
C3636 H3661 0.950 . S
C3637 C3636 1.349 . S
C3637 C3653 1.349 . S
C3638 C3636 1.327 . S
C3638 C3657 1.429 . S
C3638 H3662 0.950 . S
C3639 C3656 1.574 . S
C3639 C3658 1.368 . S
C3639 H3663 0.949 . S
H3640 C3644 0.949 . S
C3641 C3642 1.349 . S
C3641 C3643 1.327 . S
C3641 H3664 0.950 . S
C3642 C3641 1.349 . S
C3642 C3654 1.349 . S
C3643 C3641 1.327 . S
C3643 C3659 1.429 . S
C3643 H3665 0.950 . S
C3644 H3640 0.949 . S
C3644 C3652 1.574 . S
C3644 C3660 1.368 . S
H3645 C3653 0.950 . S
H3646 C3651 0.950 . S
H3647 C3652 0.949 . S
H3648 C3654 0.950 . S
H3649 C3655 0.950 . S
H3650 C3656 0.949 . S
C3651 H3646 0.950 . S
C3651 C3653 1.327 . S
C3651 C3657 1.429 . S
C3652 C3644 1.574 . S
C3652 H3647 0.949 . S
C3652 C3658 1.368 . S
C3653 C3637 1.349 . S
C3653 H3645 0.950 . S
C3653 C3651 1.327 . S
C3654 C3642 1.349 . S
C3654 H3648 0.950 . S
C3654 C3655 1.327 . S
C3655 H3649 0.950 . S
C3655 C3654 1.327 . S
C3655 C3659 1.429 . S
C3656 C3639 1.574 . S
C3656 H3650 0.949 . S
C3656 C3660 1.368 . S
C3657 C3638 1.429 . S
C3657 C3651 1.429 . S
C3657 C3658 1.523 . S
C3658 C3639 1.368 . S
C3658 C3652 1.368 . S
C3658 C3657 1.523 . S
C3659 C3643 1.429 . S
C3659 C3655 1.429 . S
C3659 C3660 1.523 . S
C3660 C3644 1.368 . S
C3660 C3656 1.368 . S
C3660 C3659 1.523 . S
H3661 C3636 0.950 . S
H3662 C3638 0.950 . S
H3663 C3639 0.949 . S
H3664 C3641 0.950 . S
H3665 C3643 0.950 . S
C3666 C3667 1.349 . S
C3666 C3668 1.327 . S
C3666 H3691 0.950 . S
C3667 C3666 1.349 . S
C3667 C3683 1.349 1_554 S
C3668 C3666 1.327 . S
C3668 C3687 1.429 . S
C3668 H3692 0.950 . S
C3669 C3686 1.572 . S
C3669 C3688 1.368 1_556 S
C3669 H3693 0.949 . S
H3670 C3674 0.949 . S
C3671 C3672 1.349 . S
C3671 C3673 1.327 . S
C3671 H3694 0.950 1_554 S
C3672 C3671 1.349 . S
C3672 C3684 1.349 1_545 S
C3673 C3671 1.327 . S
C3673 C3689 1.429 1_545 S
C3673 H3695 0.950 1_554 S
C3674 H3670 0.949 . S
C3674 C3682 1.574 . S
C3674 C3690 1.368 . S
H3675 C3683 0.950 . S
H3676 C3681 0.950 . S
H3677 C3682 0.949 . S
H3678 C3684 0.950 . S
H3679 C3685 0.950 . S
H3680 C3686 0.975 . S
C3681 H3676 0.950 . S
C3681 C3683 1.327 . S
C3681 C3687 1.429 1_556 S
C3682 C3674 1.574 . S
C3682 H3677 0.949 . S
C3682 C3688 1.368 . S
C3683 C3667 1.349 1_556 S
C3683 H3675 0.950 . S
C3683 C3681 1.327 . S
C3684 C3672 1.349 1_565 S
C3684 H3678 0.950 . S
C3684 C3685 1.327 . S
C3685 H3679 0.950 . S
C3685 C3684 1.327 . S
C3685 C3689 1.429 . S
C3686 C3669 1.572 . S
C3686 H3680 0.975 . S
C3686 C3690 1.343 1_556 S
C3687 C3668 1.429 . S
C3687 C3681 1.429 1_554 S
C3687 C3688 1.523 . S
C3688 C3669 1.368 1_554 S
C3688 C3682 1.368 . S
C3688 C3687 1.523 . S
C3689 C3673 1.429 1_565 S
C3689 C3685 1.429 . S
C3689 C3690 1.523 . S
C3690 C3674 1.368 . S
C3690 C3686 1.343 1_554 S
C3690 C3689 1.523 . S
H3691 C3666 0.950 . S
H3692 C3668 0.950 . S
H3693 C3669 0.949 . S
H3694 C3671 0.950 1_556 S
H3695 C3673 0.950 1_556 S
C3696 C3697 1.349 . S
C3696 C3698 1.327 . S
C3696 H3721 0.950 . S
C3697 C3696 1.349 . S
C3697 C3713 1.349 . S
C3698 C3696 1.327 . S
C3698 C3717 1.429 . S
C3698 H3722 0.950 . S
C3699 C3716 1.574 . S
C3699 C3718 1.368 . S
C3699 H3723 0.949 . S
H3700 C3704 0.949 . S
C3701 C3702 1.349 . S
C3701 C3703 1.327 . S
C3701 H3724 0.950 . S
C3702 C3701 1.349 . S
C3702 C3714 1.349 . S
C3703 C3701 1.327 . S
C3703 C3719 1.429 . S
C3703 H3725 0.950 . S
C3704 H3700 0.949 . S
C3704 C3712 1.574 . S
C3704 C3720 1.368 . S
H3705 C3713 0.950 . S
H3706 C3711 0.950 . S
H3707 C3712 0.949 . S
H3708 C3714 0.950 . S
H3709 C3715 0.950 . S
H3710 C3716 0.949 . S
C3711 H3706 0.950 . S
C3711 C3713 1.327 . S
C3711 C3717 1.429 . S
C3712 C3704 1.574 . S
C3712 H3707 0.949 . S
C3712 C3718 1.368 . S
C3713 C3697 1.349 . S
C3713 H3705 0.950 . S
C3713 C3711 1.327 . S
C3714 C3702 1.349 . S
C3714 H3708 0.950 . S
C3714 C3715 1.327 . S
C3715 H3709 0.950 . S
C3715 C3714 1.327 . S
C3715 C3719 1.429 . S
C3716 C3699 1.574 . S
C3716 H3710 0.949 . S
C3716 C3720 1.368 . S
C3717 C3698 1.429 . S
C3717 C3711 1.429 . S
C3717 C3718 1.523 . S
C3718 C3699 1.368 . S
C3718 C3712 1.368 . S
C3718 C3717 1.523 . S
C3719 C3703 1.429 . S
C3719 C3715 1.429 . S
C3719 C3720 1.523 . S
C3720 C3704 1.368 . S
C3720 C3716 1.368 . S
C3720 C3719 1.523 . S
H3721 C3696 0.950 . S
H3722 C3698 0.950 . S
H3723 C3699 0.949 . S
H3724 C3701 0.950 . S
H3725 C3703 0.950 . S
C3726 C3727 1.349 . S
C3726 C3728 1.327 . S
C3726 H3751 0.950 . S
C3727 C3726 1.349 . S
C3727 C3743 1.349 1_554 S
C3728 C3726 1.327 . S
C3728 C3747 1.429 . S
C3728 H3752 0.950 . S
C3729 C3746 1.578 . S
C3729 C3748 1.410 . S
C3729 H3753 0.910 1_554 S
H3730 C3734 0.949 . S
C3731 C3732 1.349 . S
C3731 C3733 1.327 . S
C3731 H3754 0.950 . S
C3732 C3731 1.349 . S
C3732 C3744 1.349 . S
C3733 C3731 1.327 . S
C3733 C3749 1.429 . S
C3733 H3755 0.950 1_554 S
C3734 H3730 0.949 . S
C3734 C3742 1.574 . S
C3734 C3750 1.368 . S
H3735 C3743 0.950 . S
H3736 C3741 0.950 . S
H3737 C3742 0.949 . S
H3738 C3744 0.950 . S
H3739 C3745 0.950 . S
H3740 C3746 0.949 1_556 S
C3741 H3736 0.950 . S
C3741 C3743 1.327 . S
C3741 C3747 1.429 1_556 S
C3742 C3734 1.574 . S
C3742 H3737 0.949 . S
C3742 C3748 1.368 . S
C3743 C3727 1.349 1_556 S
C3743 H3735 0.950 . S
C3743 C3741 1.327 . S
C3744 C3732 1.349 . S
C3744 H3738 0.950 . S
C3744 C3745 1.327 . S
C3745 H3739 0.950 . S
C3745 C3744 1.327 . S
C3745 C3749 1.429 . S
C3746 C3729 1.578 . S
C3746 H3740 0.949 1_554 S
C3746 C3750 1.368 . S
C3747 C3728 1.429 . S
C3747 C3741 1.429 1_554 S
C3747 C3748 1.523 . S
C3748 C3729 1.410 . S
C3748 C3742 1.368 . S
C3748 C3747 1.523 . S
C3749 C3733 1.429 . S
C3749 C3745 1.429 . S
C3749 C3750 1.523 . S
C3750 C3734 1.368 . S
C3750 C3746 1.368 . S
C3750 C3749 1.523 . S
H3751 C3726 0.950 . S
H3752 C3728 0.950 . S
H3753 C3729 0.910 1_556 S
H3754 C3731 0.950 . S
H3755 C3733 0.950 1_556 S
C3756 C3757 1.349 . S
C3756 C3758 1.327 . S
C3756 H3781 0.950 . S
C3757 C3756 1.349 . S
C3757 C3773 1.349 . S
C3758 C3756 1.327 . S
C3758 C3777 1.429 . S
C3758 H3782 0.950 . S
C3759 C3776 1.574 . S
C3759 C3778 1.368 . S
C3759 H3783 0.949 . S
H3760 C3764 0.949 . S
C3761 C3762 1.349 . S
C3761 C3763 1.327 . S
C3761 H3784 0.950 . S
C3762 C3761 1.349 . S
C3762 C3774 1.349 . S
C3763 C3761 1.327 . S
C3763 C3779 1.429 . S
C3763 H3785 0.950 . S
C3764 H3760 0.949 . S
C3764 C3772 1.574 . S
C3764 C3780 1.368 . S
H3765 C3773 0.950 . S
H3766 C3771 0.950 . S
H3767 C3772 0.949 . S
H3768 C3774 0.950 . S
H3769 C3775 0.950 . S
H3770 C3776 0.949 . S
C3771 H3766 0.950 . S
C3771 C3773 1.327 . S
C3771 C3777 1.429 . S
C3772 C3764 1.574 . S
C3772 H3767 0.949 . S
C3772 C3778 1.368 . S
C3773 C3757 1.349 . S
C3773 H3765 0.950 . S
C3773 C3771 1.327 . S
C3774 C3762 1.349 . S
C3774 H3768 0.950 . S
C3774 C3775 1.327 . S
C3775 H3769 0.950 . S
C3775 C3774 1.327 . S
C3775 C3779 1.429 . S
C3776 C3759 1.574 . S
C3776 H3770 0.949 . S
C3776 C3780 1.368 . S
C3777 C3758 1.429 . S
C3777 C3771 1.429 . S
C3777 C3778 1.523 . S
C3778 C3759 1.368 . S
C3778 C3772 1.368 . S
C3778 C3777 1.523 . S
C3779 C3763 1.429 . S
C3779 C3775 1.429 . S
C3779 C3780 1.523 . S
C3780 C3764 1.368 . S
C3780 C3776 1.368 . S
C3780 C3779 1.523 . S
H3781 C3756 0.950 . S
H3782 C3758 0.950 . S
H3783 C3759 0.949 . S
H3784 C3761 0.950 . S
H3785 C3763 0.950 . S
C3786 C3787 1.349 . S
C3786 C3788 1.327 . S
C3786 H3811 0.950 . S
C3787 C3786 1.349 . S
C3787 C3803 1.349 . S
C3788 C3786 1.327 . S
C3788 C3807 1.429 . S
C3788 H3812 0.950 . S
C3789 C3806 1.574 . S
C3789 C3808 1.368 . S
C3789 H3813 0.949 . S
H3790 C3794 0.949 . S
C3791 C3792 1.349 . S
C3791 C3793 1.327 . S
C3791 H3814 0.950 . S
C3792 C3791 1.349 . S
C3792 C3804 1.349 . S
C3793 C3791 1.327 . S
C3793 C3809 1.429 . S
C3793 H3815 0.950 . S
C3794 H3790 0.949 . S
C3794 C3802 1.574 . S
C3794 C3810 1.368 . S
H3795 C3803 0.950 . S
H3796 C3801 0.950 . S
H3797 C3802 0.949 . S
H3798 C3804 0.950 . S
H3799 C3805 0.950 . S
H3800 C3806 0.949 . S
C3801 H3796 0.950 . S
C3801 C3803 1.327 . S
C3801 C3807 1.429 . S
C3802 C3794 1.574 . S
C3802 H3797 0.949 . S
C3802 C3808 1.368 . S
C3803 C3787 1.349 . S
C3803 H3795 0.950 . S
C3803 C3801 1.327 . S
C3804 C3792 1.349 . S
C3804 H3798 0.950 . S
C3804 C3805 1.327 . S
C3805 H3799 0.950 . S
C3805 C3804 1.327 . S
C3805 C3809 1.429 . S
C3806 C3789 1.574 . S
C3806 H3800 0.949 . S
C3806 C3810 1.368 . S
C3807 C3788 1.429 . S
C3807 C3801 1.429 . S
C3807 C3808 1.523 . S
C3808 C3789 1.368 . S
C3808 C3802 1.368 . S
C3808 C3807 1.523 . S
C3809 C3793 1.429 . S
C3809 C3805 1.429 . S
C3809 C3810 1.523 . S
C3810 C3794 1.368 . S
C3810 C3806 1.368 . S
C3810 C3809 1.523 . S
H3811 C3786 0.950 . S
H3812 C3788 0.950 . S
H3813 C3789 0.949 . S
H3814 C3791 0.950 . S
H3815 C3793 0.950 . S
C3816 C3817 1.349 . S
C3816 C3818 1.327 . S
C3816 H3841 0.950 . S
C3817 C3816 1.349 . S
C3817 C3833 1.349 . S
C3818 C3816 1.327 . S
C3818 C3837 1.429 . S
C3818 H3842 0.950 . S
C3819 C3836 1.574 . S
C3819 C3838 1.368 . S
C3819 H3843 0.949 . S
H3820 C3824 0.949 . S
C3821 C3822 1.349 . S
C3821 C3823 1.327 . S
C3821 H3844 0.950 . S
C3822 C3821 1.349 . S
C3822 C3834 1.349 . S
C3823 C3821 1.327 . S
C3823 C3839 1.429 . S
C3823 H3845 0.950 . S
C3824 H3820 0.949 . S
C3824 C3832 1.574 . S
C3824 C3840 1.368 . S
H3825 C3833 0.950 . S
H3826 C3831 0.950 . S
H3827 C3832 0.949 . S
H3828 C3834 0.950 . S
H3829 C3835 0.950 . S
H3830 C3836 0.949 . S
C3831 H3826 0.950 . S
C3831 C3833 1.327 . S
C3831 C3837 1.429 . S
C3832 C3824 1.574 . S
C3832 H3827 0.949 . S
C3832 C3838 1.368 . S
C3833 C3817 1.349 . S
C3833 H3825 0.950 . S
C3833 C3831 1.327 . S
C3834 C3822 1.349 . S
C3834 H3828 0.950 . S
C3834 C3835 1.327 . S
C3835 H3829 0.950 . S
C3835 C3834 1.327 . S
C3835 C3839 1.429 . S
C3836 C3819 1.574 . S
C3836 H3830 0.949 . S
C3836 C3840 1.368 . S
C3837 C3818 1.429 . S
C3837 C3831 1.429 . S
C3837 C3838 1.523 . S
C3838 C3819 1.368 . S
C3838 C3832 1.368 . S
C3838 C3837 1.523 . S
C3839 C3823 1.429 . S
C3839 C3835 1.429 . S
C3839 C3840 1.523 . S
C3840 C3824 1.368 . S
C3840 C3836 1.368 . S
C3840 C3839 1.523 . S
H3841 C3816 0.950 . S
H3842 C3818 0.950 . S
H3843 C3819 0.949 . S
H3844 C3821 0.950 . S
H3845 C3823 0.950 . S
C3846 C3847 1.349 . S
C3846 C3848 1.327 . S
C3846 H3871 0.950 . S
C3847 C3846 1.349 . S
C3847 C3863 1.349 . S
C3848 C3846 1.327 . S
C3848 C3867 1.429 . S
C3848 H3872 0.950 . S
C3849 C3866 1.574 . S
C3849 C3868 1.368 . S
C3849 H3873 0.949 . S
H3850 C3854 0.949 . S
C3851 C3852 1.349 . S
C3851 C3853 1.327 . S
C3851 H3874 0.950 . S
C3852 C3851 1.349 . S
C3852 C3864 1.349 . S
C3853 C3851 1.327 . S
C3853 C3869 1.429 . S
C3853 H3875 0.950 . S
C3854 H3850 0.949 . S
C3854 C3862 1.574 . S
C3854 C3870 1.368 . S
H3855 C3863 0.950 . S
H3856 C3861 0.950 . S
H3857 C3862 0.949 . S
H3858 C3864 0.950 . S
H3859 C3865 0.950 . S
H3860 C3866 0.949 . S
C3861 H3856 0.950 . S
C3861 C3863 1.327 . S
C3861 C3867 1.429 . S
C3862 C3854 1.574 . S
C3862 H3857 0.949 . S
C3862 C3868 1.368 . S
C3863 C3847 1.349 . S
C3863 H3855 0.950 . S
C3863 C3861 1.327 . S
C3864 C3852 1.349 . S
C3864 H3858 0.950 . S
C3864 C3865 1.327 . S
C3865 H3859 0.950 . S
C3865 C3864 1.327 . S
C3865 C3869 1.429 . S
C3866 C3849 1.574 . S
C3866 H3860 0.949 . S
C3866 C3870 1.368 . S
C3867 C3848 1.429 . S
C3867 C3861 1.429 . S
C3867 C3868 1.523 . S
C3868 C3849 1.368 . S
C3868 C3862 1.368 . S
C3868 C3867 1.523 . S
C3869 C3853 1.429 . S
C3869 C3865 1.429 . S
C3869 C3870 1.523 . S
C3870 C3854 1.368 . S
C3870 C3866 1.368 . S
C3870 C3869 1.523 . S
H3871 C3846 0.950 . S
H3872 C3848 0.950 . S
H3873 C3849 0.949 . S
H3874 C3851 0.950 . S
H3875 C3853 0.950 . S
C3876 C3877 1.349 . S
C3876 C3878 1.327 . S
C3876 H3901 0.950 . S
C3877 C3876 1.349 . S
C3877 C3893 1.349 . S
C3878 C3876 1.327 . S
C3878 C3897 1.429 . S
C3878 H3902 0.950 . S
C3879 C3896 1.574 . S
C3879 C3898 1.368 . S
C3879 H3903 0.949 . S
H3880 C3884 0.949 . S
C3881 C3882 1.349 . S
C3881 C3883 1.327 . S
C3881 H3904 0.950 . S
C3882 C3881 1.349 . S
C3882 C3894 1.349 . S
C3883 C3881 1.327 . S
C3883 C3899 1.429 . S
C3883 H3905 0.950 . S
C3884 H3880 0.949 . S
C3884 C3892 1.574 . S
C3884 C3900 1.368 . S
H3885 C3893 0.950 . S
H3886 C3891 0.950 . S
H3887 C3892 0.949 . S
H3888 C3894 0.950 . S
H3889 C3895 0.950 . S
H3890 C3896 0.949 . S
C3891 H3886 0.950 . S
C3891 C3893 1.327 . S
C3891 C3897 1.429 . S
C3892 C3884 1.574 . S
C3892 H3887 0.949 . S
C3892 C3898 1.368 . S
C3893 C3877 1.349 . S
C3893 H3885 0.950 . S
C3893 C3891 1.327 . S
C3894 C3882 1.349 . S
C3894 H3888 0.950 . S
C3894 C3895 1.327 . S
C3895 H3889 0.950 . S
C3895 C3894 1.327 . S
C3895 C3899 1.429 . S
C3896 C3879 1.574 . S
C3896 H3890 0.949 . S
C3896 C3900 1.368 . S
C3897 C3878 1.429 . S
C3897 C3891 1.429 . S
C3897 C3898 1.523 . S
C3898 C3879 1.368 . S
C3898 C3892 1.368 . S
C3898 C3897 1.523 . S
C3899 C3883 1.429 . S
C3899 C3895 1.429 . S
C3899 C3900 1.523 . S
C3900 C3884 1.368 . S
C3900 C3896 1.368 . S
C3900 C3899 1.523 . S
H3901 C3876 0.950 . S
H3902 C3878 0.950 . S
H3903 C3879 0.949 . S
H3904 C3881 0.950 . S
H3905 C3883 0.950 . S
C3906 C3907 1.349 . S
C3906 C3908 1.327 . S
C3906 H3931 0.950 . S
C3907 C3906 1.349 . S
C3907 C3923 1.349 . S
C3908 C3906 1.327 . S
C3908 C3927 1.429 . S
C3908 H3932 0.950 . S
C3909 C3926 1.574 . S
C3909 C3928 1.368 . S
C3909 H3933 0.949 . S
H3910 C3914 0.949 . S
C3911 C3912 1.349 . S
C3911 C3913 1.327 . S
C3911 H3934 0.950 . S
C3912 C3911 1.349 . S
C3912 C3924 1.349 . S
C3913 C3911 1.327 . S
C3913 C3929 1.429 . S
C3913 H3935 0.950 . S
C3914 H3910 0.949 . S
C3914 C3922 1.574 . S
C3914 C3930 1.368 . S
H3915 C3923 0.950 . S
H3916 C3921 0.950 . S
H3917 C3922 0.949 . S
H3918 C3924 0.950 . S
H3919 C3925 0.950 . S
H3920 C3926 0.949 . S
C3921 H3916 0.950 . S
C3921 C3923 1.327 . S
C3921 C3927 1.429 . S
C3922 C3914 1.574 . S
C3922 H3917 0.949 . S
C3922 C3928 1.368 . S
C3923 C3907 1.349 . S
C3923 H3915 0.950 . S
C3923 C3921 1.327 . S
C3924 C3912 1.349 . S
C3924 H3918 0.950 . S
C3924 C3925 1.327 . S
C3925 H3919 0.950 . S
C3925 C3924 1.327 . S
C3925 C3929 1.429 . S
C3926 C3909 1.574 . S
C3926 H3920 0.949 . S
C3926 C3930 1.368 . S
C3927 C3908 1.429 . S
C3927 C3921 1.429 . S
C3927 C3928 1.523 . S
C3928 C3909 1.368 . S
C3928 C3922 1.368 . S
C3928 C3927 1.523 . S
C3929 C3913 1.429 . S
C3929 C3925 1.429 . S
C3929 C3930 1.523 . S
C3930 C3914 1.368 . S
C3930 C3926 1.368 . S
C3930 C3929 1.523 . S
H3931 C3906 0.950 . S
H3932 C3908 0.950 . S
H3933 C3909 0.949 . S
H3934 C3911 0.950 . S
H3935 C3913 0.950 . S
C3936 C3937 1.349 . S
C3936 C3938 1.327 . S
C3936 H3961 0.950 . S
C3937 C3936 1.349 . S
C3937 C3953 1.349 . S
C3938 C3936 1.327 . S
C3938 C3957 1.429 . S
C3938 H3962 0.950 . S
C3939 C3956 1.574 . S
C3939 C3958 1.368 . S
C3939 H3963 0.949 . S
H3940 C3944 0.949 . S
C3941 C3942 1.349 . S
C3941 C3943 1.327 . S
C3941 H3964 0.950 . S
C3942 C3941 1.349 . S
C3942 C3954 1.349 . S
C3943 C3941 1.327 . S
C3943 C3959 1.429 . S
C3943 H3965 0.950 . S
C3944 H3940 0.949 . S
C3944 C3952 1.574 . S
C3944 C3960 1.368 . S
H3945 C3953 0.950 . S
H3946 C3951 0.950 . S
H3947 C3952 0.949 . S
H3948 C3954 0.950 . S
H3949 C3955 0.950 . S
H3950 C3956 0.949 . S
C3951 H3946 0.950 . S
C3951 C3953 1.327 . S
C3951 C3957 1.429 . S
C3952 C3944 1.574 . S
C3952 H3947 0.949 . S
C3952 C3958 1.368 . S
C3953 C3937 1.349 . S
C3953 H3945 0.950 . S
C3953 C3951 1.327 . S
C3954 C3942 1.349 . S
C3954 H3948 0.950 . S
C3954 C3955 1.327 . S
C3955 H3949 0.950 . S
C3955 C3954 1.327 . S
C3955 C3959 1.429 . S
C3956 C3939 1.574 . S
C3956 H3950 0.949 . S
C3956 C3960 1.368 . S
C3957 C3938 1.429 . S
C3957 C3951 1.429 . S
C3957 C3958 1.523 . S
C3958 C3939 1.368 . S
C3958 C3952 1.368 . S
C3958 C3957 1.523 . S
C3959 C3943 1.429 . S
C3959 C3955 1.429 . S
C3959 C3960 1.523 . S
C3960 C3944 1.368 . S
C3960 C3956 1.368 . S
C3960 C3959 1.523 . S
H3961 C3936 0.950 . S
H3962 C3938 0.950 . S
H3963 C3939 0.949 . S
H3964 C3941 0.950 . S
H3965 C3943 0.950 . S
C3966 C3967 1.349 . S
C3966 C3968 1.327 . S
C3966 H3991 0.950 . S
C3967 C3966 1.349 . S
C3967 C3983 1.349 . S
C3968 C3966 1.327 . S
C3968 C3987 1.429 . S
C3968 H3992 0.950 . S
C3969 C3986 1.574 . S
C3969 C3988 1.368 . S
C3969 H3993 0.949 . S
H3970 C3974 0.949 . S
C3971 C3972 1.349 . S
C3971 C3973 1.327 . S
C3971 H3994 0.950 . S
C3972 C3971 1.349 . S
C3972 C3984 1.349 . S
C3973 C3971 1.327 . S
C3973 C3989 1.429 . S
C3973 H3995 0.950 . S
C3974 H3970 0.949 . S
C3974 C3982 1.574 . S
C3974 C3990 1.368 . S
H3975 C3983 0.950 . S
H3976 C3981 0.950 . S
H3977 C3982 0.949 . S
H3978 C3984 0.950 . S
H3979 C3985 0.950 . S
H3980 C3986 0.949 . S
C3981 H3976 0.950 . S
C3981 C3983 1.327 . S
C3981 C3987 1.429 . S
C3982 C3974 1.574 . S
C3982 H3977 0.949 . S
C3982 C3988 1.368 . S
C3983 C3967 1.349 . S
C3983 H3975 0.950 . S
C3983 C3981 1.327 . S
C3984 C3972 1.349 . S
C3984 H3978 0.950 . S
C3984 C3985 1.327 . S
C3985 H3979 0.950 . S
C3985 C3984 1.327 . S
C3985 C3989 1.429 . S
C3986 C3969 1.574 . S
C3986 H3980 0.949 . S
C3986 C3990 1.368 . S
C3987 C3968 1.429 . S
C3987 C3981 1.429 . S
C3987 C3988 1.523 . S
C3988 C3969 1.368 . S
C3988 C3982 1.368 . S
C3988 C3987 1.523 . S
C3989 C3973 1.429 . S
C3989 C3985 1.429 . S
C3989 C3990 1.523 . S
C3990 C3974 1.368 . S
C3990 C3986 1.368 . S
C3990 C3989 1.523 . S
H3991 C3966 0.950 . S
H3992 C3968 0.950 . S
H3993 C3969 0.949 . S
H3994 C3971 0.950 . S
H3995 C3973 0.950 . S
C3996 C3997 1.349 . S
C3996 C3998 1.327 . S
C3996 H4021 0.950 . S
C3997 C3996 1.349 . S
C3997 C4013 1.349 . S
C3998 C3996 1.327 . S
C3998 C4017 1.429 . S
C3998 H4022 0.950 . S
C3999 C4016 1.574 . S
C3999 C4018 1.368 . S
C3999 H4023 0.949 . S
H4000 C4004 0.949 . S
C4001 C4002 1.349 . S
C4001 C4003 1.327 . S
C4001 H4024 0.950 . S
C4002 C4001 1.349 . S
C4002 C4014 1.349 . S
C4003 C4001 1.327 . S
C4003 C4019 1.429 . S
C4003 H4025 0.950 . S
C4004 H4000 0.949 . S
C4004 C4012 1.574 . S
C4004 C4020 1.368 . S
H4005 C4013 0.950 . S
H4006 C4011 0.950 . S
H4007 C4012 0.949 . S
H4008 C4014 0.950 . S
H4009 C4015 0.950 . S
H4010 C4016 0.949 . S
C4011 H4006 0.950 . S
C4011 C4013 1.327 . S
C4011 C4017 1.429 . S
C4012 C4004 1.574 . S
C4012 H4007 0.949 . S
C4012 C4018 1.368 . S
C4013 C3997 1.349 . S
C4013 H4005 0.950 . S
C4013 C4011 1.327 . S
C4014 C4002 1.349 . S
C4014 H4008 0.950 . S
C4014 C4015 1.327 . S
C4015 H4009 0.950 . S
C4015 C4014 1.327 . S
C4015 C4019 1.429 . S
C4016 C3999 1.574 . S
C4016 H4010 0.949 . S
C4016 C4020 1.368 . S
C4017 C3998 1.429 . S
C4017 C4011 1.429 . S
C4017 C4018 1.523 . S
C4018 C3999 1.368 . S
C4018 C4012 1.368 . S
C4018 C4017 1.523 . S
C4019 C4003 1.429 . S
C4019 C4015 1.429 . S
C4019 C4020 1.523 . S
C4020 C4004 1.368 . S
C4020 C4016 1.368 . S
C4020 C4019 1.523 . S
H4021 C3996 0.950 . S
H4022 C3998 0.950 . S
H4023 C3999 0.949 . S
H4024 C4001 0.950 . S
H4025 C4003 0.950 . S
C4026 C4027 1.349 . S
C4026 C4028 1.327 . S
C4026 H4051 0.950 . S
C4027 C4026 1.349 . S
C4027 C4043 1.349 . S
C4028 C4026 1.327 . S
C4028 C4047 1.429 . S
C4028 H4052 0.950 . S
C4029 C4046 1.574 . S
C4029 C4048 1.368 . S
C4029 H4053 0.949 . S
H4030 C4034 0.949 . S
C4031 C4032 1.349 . S
C4031 C4033 1.327 . S
C4031 H4054 0.950 . S
C4032 C4031 1.349 . S
C4032 C4044 1.349 . S
C4033 C4031 1.327 . S
C4033 C4049 1.429 . S
C4033 H4055 0.950 . S
C4034 H4030 0.949 . S
C4034 C4042 1.574 . S
C4034 C4050 1.368 . S
H4035 C4043 0.950 . S
H4036 C4041 0.950 . S
H4037 C4042 0.949 . S
H4038 C4044 0.950 . S
H4039 C4045 0.950 . S
H4040 C4046 0.949 . S
C4041 H4036 0.950 . S
C4041 C4043 1.327 . S
C4041 C4047 1.429 . S
C4042 C4034 1.574 . S
C4042 H4037 0.949 . S
C4042 C4048 1.368 . S
C4043 C4027 1.349 . S
C4043 H4035 0.950 . S
C4043 C4041 1.327 . S
C4044 C4032 1.349 . S
C4044 H4038 0.950 . S
C4044 C4045 1.327 . S
C4045 H4039 0.950 . S
C4045 C4044 1.327 . S
C4045 C4049 1.429 . S
C4046 C4029 1.574 . S
C4046 H4040 0.949 . S
C4046 C4050 1.368 . S
C4047 C4028 1.429 . S
C4047 C4041 1.429 . S
C4047 C4048 1.523 . S
C4048 C4029 1.368 . S
C4048 C4042 1.368 . S
C4048 C4047 1.523 . S
C4049 C4033 1.429 . S
C4049 C4045 1.429 . S
C4049 C4050 1.523 . S
C4050 C4034 1.368 . S
C4050 C4046 1.368 . S
C4050 C4049 1.523 . S
H4051 C4026 0.950 . S
H4052 C4028 0.950 . S
H4053 C4029 0.949 . S
H4054 C4031 0.950 . S
H4055 C4033 0.950 . S
C4056 C4057 1.349 . S
C4056 C4058 1.327 . S
C4056 H4081 0.950 . S
C4057 C4056 1.349 . S
C4057 C4073 1.349 . S
C4058 C4056 1.327 . S
C4058 C4077 1.429 . S
C4058 H4082 0.950 . S
C4059 C4076 1.574 . S
C4059 C4078 1.368 . S
C4059 H4083 0.949 . S
H4060 C4064 0.949 . S
C4061 C4062 1.349 . S
C4061 C4063 1.327 . S
C4061 H4084 0.950 . S
C4062 C4061 1.349 . S
C4062 C4074 1.349 . S
C4063 C4061 1.327 . S
C4063 C4079 1.429 . S
C4063 H4085 0.950 . S
C4064 H4060 0.949 . S
C4064 C4072 1.574 . S
C4064 C4080 1.368 . S
H4065 C4073 0.950 . S
H4066 C4071 0.950 . S
H4067 C4072 0.949 . S
H4068 C4074 0.950 . S
H4069 C4075 0.950 . S
H4070 C4076 0.949 . S
C4071 H4066 0.950 . S
C4071 C4073 1.327 . S
C4071 C4077 1.429 . S
C4072 C4064 1.574 . S
C4072 H4067 0.949 . S
C4072 C4078 1.368 . S
C4073 C4057 1.349 . S
C4073 H4065 0.950 . S
C4073 C4071 1.327 . S
C4074 C4062 1.349 . S
C4074 H4068 0.950 . S
C4074 C4075 1.327 . S
C4075 H4069 0.950 . S
C4075 C4074 1.327 . S
C4075 C4079 1.429 . S
C4076 C4059 1.574 . S
C4076 H4070 0.949 . S
C4076 C4080 1.368 . S
C4077 C4058 1.429 . S
C4077 C4071 1.429 . S
C4077 C4078 1.523 . S
C4078 C4059 1.368 . S
C4078 C4072 1.368 . S
C4078 C4077 1.523 . S
C4079 C4063 1.429 . S
C4079 C4075 1.429 . S
C4079 C4080 1.523 . S
C4080 C4064 1.368 . S
C4080 C4076 1.368 . S
C4080 C4079 1.523 . S
H4081 C4056 0.950 . S
H4082 C4058 0.950 . S
H4083 C4059 0.949 . S
H4084 C4061 0.950 . S
H4085 C4063 0.950 . S
C4086 C4087 1.349 . S
C4086 C4088 1.327 . S
C4086 H4111 0.950 . S
C4087 C4086 1.349 . S
C4087 C4103 1.349 . S
C4088 C4086 1.327 . S
C4088 C4107 1.429 . S
C4088 H4112 0.950 . S
C4089 C4106 1.574 . S
C4089 C4108 1.368 . S
C4089 H4113 0.949 . S
H4090 C4094 0.949 . S
C4091 C4092 1.349 . S
C4091 C4093 1.327 . S
C4091 H4114 0.950 . S
C4092 C4091 1.349 . S
C4092 C4104 1.349 . S
C4093 C4091 1.327 . S
C4093 C4109 1.429 . S
C4093 H4115 0.950 . S
C4094 H4090 0.949 . S
C4094 C4102 1.574 . S
C4094 C4110 1.368 . S
H4095 C4103 0.950 . S
H4096 C4101 0.950 . S
H4097 C4102 0.949 . S
H4098 C4104 0.950 . S
H4099 C4105 0.950 . S
H4100 C4106 0.949 . S
C4101 H4096 0.950 . S
C4101 C4103 1.327 . S
C4101 C4107 1.429 . S
C4102 C4094 1.574 . S
C4102 H4097 0.949 . S
C4102 C4108 1.368 . S
C4103 C4087 1.349 . S
C4103 H4095 0.950 . S
C4103 C4101 1.327 . S
C4104 C4092 1.349 . S
C4104 H4098 0.950 . S
C4104 C4105 1.327 . S
C4105 H4099 0.950 . S
C4105 C4104 1.327 . S
C4105 C4109 1.429 . S
C4106 C4089 1.574 . S
C4106 H4100 0.949 . S
C4106 C4110 1.368 . S
C4107 C4088 1.429 . S
C4107 C4101 1.429 . S
C4107 C4108 1.523 . S
C4108 C4089 1.368 . S
C4108 C4102 1.368 . S
C4108 C4107 1.523 . S
C4109 C4093 1.429 . S
C4109 C4105 1.429 . S
C4109 C4110 1.523 . S
C4110 C4094 1.368 . S
C4110 C4106 1.368 . S
C4110 C4109 1.523 . S
H4111 C4086 0.950 . S
H4112 C4088 0.950 . S
H4113 C4089 0.949 . S
H4114 C4091 0.950 . S
H4115 C4093 0.950 . S
C4116 C4117 1.349 . S
C4116 C4118 1.327 . S
C4116 H4141 0.950 . S
C4117 C4116 1.349 . S
C4117 C4133 1.349 . S
C4118 C4116 1.327 . S
C4118 C4137 1.429 . S
C4118 H4142 0.950 . S
C4119 C4136 1.574 . S
C4119 C4138 1.368 . S
C4119 H4143 0.949 . S
H4120 C4124 0.949 . S
C4121 C4122 1.366 . S
C4121 C4123 1.327 1_455 S
C4121 H4144 0.950 . S
C4122 C4121 1.366 . S
C4122 C4134 1.302 1_455 S
C4123 C4121 1.327 1_655 S
C4123 C4139 1.429 . S
C4123 H4145 0.950 . S
C4124 H4120 0.949 . S
C4124 C4132 1.574 . S
C4124 C4140 1.368 . S
H4125 C4133 0.950 . S
H4126 C4131 0.950 . S
H4127 C4132 0.949 . S
H4128 C4134 0.950 . S
H4129 C4135 0.950 . S
H4130 C4136 0.949 . S
C4131 H4126 0.950 . S
C4131 C4133 1.327 . S
C4131 C4137 1.429 . S
C4132 C4124 1.574 . S
C4132 H4127 0.949 . S
C4132 C4138 1.368 . S
C4133 C4117 1.349 . S
C4133 H4125 0.950 . S
C4133 C4131 1.327 . S
C4134 C4122 1.302 1_655 S
C4134 H4128 0.950 . S
C4134 C4135 1.327 . S
C4135 H4129 0.950 . S
C4135 C4134 1.327 . S
C4135 C4139 1.429 . S
C4136 C4119 1.574 . S
C4136 H4130 0.949 . S
C4136 C4140 1.368 . S
C4137 C4118 1.429 . S
C4137 C4131 1.429 . S
C4137 C4138 1.523 . S
C4138 C4119 1.368 . S
C4138 C4132 1.368 . S
C4138 C4137 1.523 . S
C4139 C4123 1.429 . S
C4139 C4135 1.429 . S
C4139 C4140 1.523 . S
C4140 C4124 1.368 . S
C4140 C4136 1.368 . S
C4140 C4139 1.523 . S
H4141 C4116 0.950 . S
H4142 C4118 0.950 . S
H4143 C4119 0.949 . S
H4144 C4121 0.950 . S
H4145 C4123 0.950 . S
C4146 C4147 1.349 . S
C4146 C4148 1.327 . S
C4146 H4171 0.950 . S
C4147 C4146 1.349 . S
C4147 C4163 1.349 . S
C4148 C4146 1.327 . S
C4148 C4167 1.429 . S
C4148 H4172 0.950 . S
C4149 C4166 1.574 . S
C4149 C4168 1.368 . S
C4149 H4173 0.949 . S
H4150 C4154 0.949 . S
C4151 C4152 1.349 . S
C4151 C4153 1.327 . S
C4151 H4174 0.950 . S
C4152 C4151 1.349 . S
C4152 C4164 1.349 . S
C4153 C4151 1.327 . S
C4153 C4169 1.429 . S
C4153 H4175 0.950 . S
C4154 H4150 0.949 . S
C4154 C4162 1.574 . S
C4154 C4170 1.368 . S
H4155 C4163 0.950 . S
H4156 C4161 0.950 . S
H4157 C4162 0.949 . S
H4158 C4164 0.950 . S
H4159 C4165 0.950 . S
H4160 C4166 0.949 . S
C4161 H4156 0.950 . S
C4161 C4163 1.327 . S
C4161 C4167 1.429 . S
C4162 C4154 1.574 . S
C4162 H4157 0.949 . S
C4162 C4168 1.368 . S
C4163 C4147 1.349 . S
C4163 H4155 0.950 . S
C4163 C4161 1.327 . S
C4164 C4152 1.349 . S
C4164 H4158 0.950 . S
C4164 C4165 1.327 . S
C4165 H4159 0.950 . S
C4165 C4164 1.327 . S
C4165 C4169 1.429 . S
C4166 C4149 1.574 . S
C4166 H4160 0.949 . S
C4166 C4170 1.368 . S
C4167 C4148 1.429 . S
C4167 C4161 1.429 . S
C4167 C4168 1.523 . S
C4168 C4149 1.368 . S
C4168 C4162 1.368 . S
C4168 C4167 1.523 . S
C4169 C4153 1.429 . S
C4169 C4165 1.429 . S
C4169 C4170 1.523 . S
C4170 C4154 1.368 . S
C4170 C4166 1.368 . S
C4170 C4169 1.523 . S
H4171 C4146 0.950 . S
H4172 C4148 0.950 . S
H4173 C4149 0.949 . S
H4174 C4151 0.950 . S
H4175 C4153 0.950 . S
C4176 C4177 1.349 . S
C4176 C4178 1.327 . S
C4176 H4201 0.950 . S
C4177 C4176 1.349 . S
C4177 C4193 1.349 . S
C4178 C4176 1.327 . S
C4178 C4197 1.429 . S
C4178 H4202 0.950 . S
C4179 C4196 1.574 . S
C4179 C4198 1.368 . S
C4179 H4203 0.949 . S
H4180 C4184 0.949 . S
C4181 C4182 1.349 . S
C4181 C4183 1.327 . S
C4181 H4204 0.950 . S
C4182 C4181 1.349 . S
C4182 C4194 1.349 . S
C4183 C4181 1.327 . S
C4183 C4199 1.429 . S
C4183 H4205 0.950 . S
C4184 H4180 0.949 . S
C4184 C4192 1.574 . S
C4184 C4200 1.368 . S
H4185 C4193 0.950 . S
H4186 C4191 0.950 . S
H4187 C4192 0.949 . S
H4188 C4194 0.950 . S
H4189 C4195 0.950 . S
H4190 C4196 0.949 . S
C4191 H4186 0.950 . S
C4191 C4193 1.327 . S
C4191 C4197 1.429 . S
C4192 C4184 1.574 . S
C4192 H4187 0.949 . S
C4192 C4198 1.368 . S
C4193 C4177 1.349 . S
C4193 H4185 0.950 . S
C4193 C4191 1.327 . S
C4194 C4182 1.349 . S
C4194 H4188 0.950 . S
C4194 C4195 1.327 . S
C4195 H4189 0.950 . S
C4195 C4194 1.327 . S
C4195 C4199 1.429 . S
C4196 C4179 1.574 . S
C4196 H4190 0.949 . S
C4196 C4200 1.368 . S
C4197 C4178 1.429 . S
C4197 C4191 1.429 . S
C4197 C4198 1.523 . S
C4198 C4179 1.368 . S
C4198 C4192 1.368 . S
C4198 C4197 1.523 . S
C4199 C4183 1.429 . S
C4199 C4195 1.429 . S
C4199 C4200 1.523 . S
C4200 C4184 1.368 . S
C4200 C4196 1.368 . S
C4200 C4199 1.523 . S
H4201 C4176 0.950 . S
H4202 C4178 0.950 . S
H4203 C4179 0.949 . S
H4204 C4181 0.950 . S
H4205 C4183 0.950 . S
C4206 C4207 1.349 . S
C4206 C4208 1.327 . S
C4206 H4231 0.950 . S
C4207 C4206 1.349 . S
C4207 C4223 1.349 . S
C4208 C4206 1.327 . S
C4208 C4227 1.429 . S
C4208 H4232 0.950 . S
C4209 C4226 1.574 . S
C4209 C4228 1.368 . S
C4209 H4233 0.949 . S
H4210 C4214 0.949 . S
C4211 C4212 1.349 . S
C4211 C4213 1.327 . S
C4211 H4234 0.950 . S
C4212 C4211 1.349 . S
C4212 C4224 1.349 . S
C4213 C4211 1.327 . S
C4213 C4229 1.429 . S
C4213 H4235 0.950 . S
C4214 H4210 0.949 . S
C4214 C4222 1.574 . S
C4214 C4230 1.368 . S
H4215 C4223 0.950 . S
H4216 C4221 0.950 . S
H4217 C4222 0.949 . S
H4218 C4224 0.950 . S
H4219 C4225 0.950 . S
H4220 C4226 0.949 . S
C4221 H4216 0.950 . S
C4221 C4223 1.327 . S
C4221 C4227 1.429 . S
C4222 C4214 1.574 . S
C4222 H4217 0.949 . S
C4222 C4228 1.368 . S
C4223 C4207 1.349 . S
C4223 H4215 0.950 . S
C4223 C4221 1.327 . S
C4224 C4212 1.349 . S
C4224 H4218 0.950 . S
C4224 C4225 1.327 . S
C4225 H4219 0.950 . S
C4225 C4224 1.327 . S
C4225 C4229 1.429 . S
C4226 C4209 1.574 . S
C4226 H4220 0.949 . S
C4226 C4230 1.368 . S
C4227 C4208 1.429 . S
C4227 C4221 1.429 . S
C4227 C4228 1.523 . S
C4228 C4209 1.368 . S
C4228 C4222 1.368 . S
C4228 C4227 1.523 . S
C4229 C4213 1.429 . S
C4229 C4225 1.429 . S
C4229 C4230 1.523 . S
C4230 C4214 1.368 . S
C4230 C4226 1.368 . S
C4230 C4229 1.523 . S
H4231 C4206 0.950 . S
H4232 C4208 0.950 . S
H4233 C4209 0.949 . S
H4234 C4211 0.950 . S
H4235 C4213 0.950 . S
C4236 C4237 1.349 . S
C4236 C4238 1.327 . S
C4236 H4261 0.950 . S
C4237 C4236 1.349 . S
C4237 C4253 1.349 . S
C4238 C4236 1.327 . S
C4238 C4257 1.429 . S
C4238 H4262 0.950 . S
C4239 C4256 1.574 . S
C4239 C4258 1.368 . S
C4239 H4263 0.949 . S
H4240 C4244 0.949 . S
C4241 C4242 1.349 . S
C4241 C4243 1.327 . S
C4241 H4264 0.950 . S
C4242 C4241 1.349 . S
C4242 C4254 1.349 . S
C4243 C4241 1.327 . S
C4243 C4259 1.429 . S
C4243 H4265 0.950 . S
C4244 H4240 0.949 . S
C4244 C4252 1.574 . S
C4244 C4260 1.368 . S
H4245 C4253 0.950 . S
H4246 C4251 0.950 . S
H4247 C4252 0.949 . S
H4248 C4254 0.950 . S
H4249 C4255 0.950 . S
H4250 C4256 0.949 . S
C4251 H4246 0.950 . S
C4251 C4253 1.327 . S
C4251 C4257 1.429 . S
C4252 C4244 1.574 . S
C4252 H4247 0.949 . S
C4252 C4258 1.368 . S
C4253 C4237 1.349 . S
C4253 H4245 0.950 . S
C4253 C4251 1.327 . S
C4254 C4242 1.349 . S
C4254 H4248 0.950 . S
C4254 C4255 1.327 . S
C4255 H4249 0.950 . S
C4255 C4254 1.327 . S
C4255 C4259 1.429 . S
C4256 C4239 1.574 . S
C4256 H4250 0.949 . S
C4256 C4260 1.368 . S
C4257 C4238 1.429 . S
C4257 C4251 1.429 . S
C4257 C4258 1.523 . S
C4258 C4239 1.368 . S
C4258 C4252 1.368 . S
C4258 C4257 1.523 . S
C4259 C4243 1.429 . S
C4259 C4255 1.429 . S
C4259 C4260 1.523 . S
C4260 C4244 1.368 . S
C4260 C4256 1.368 . S
C4260 C4259 1.523 . S
H4261 C4236 0.950 . S
H4262 C4238 0.950 . S
H4263 C4239 0.949 . S
H4264 C4241 0.950 . S
H4265 C4243 0.950 . S
C4266 C4267 1.349 . S
C4266 C4268 1.327 . S
C4266 H4291 0.950 . S
C4267 C4266 1.349 . S
C4267 C4283 1.349 . S
C4268 C4266 1.327 . S
C4268 C4287 1.429 . S
C4268 H4292 0.950 . S
C4269 C4286 1.574 . S
C4269 C4288 1.368 . S
C4269 H4293 0.949 . S
H4270 C4274 0.949 . S
C4271 C4272 1.349 . S
C4271 C4273 1.327 . S
C4271 H4294 0.950 . S
C4272 C4271 1.349 . S
C4272 C4284 1.349 . S
C4273 C4271 1.327 . S
C4273 C4289 1.429 . S
C4273 H4295 0.950 . S
C4274 H4270 0.949 . S
C4274 C4282 1.574 . S
C4274 C4290 1.368 . S
H4275 C4283 0.950 . S
H4276 C4281 0.950 . S
H4277 C4282 0.949 . S
H4278 C4284 0.950 . S
H4279 C4285 0.950 . S
H4280 C4286 0.949 . S
C4281 H4276 0.950 . S
C4281 C4283 1.327 . S
C4281 C4287 1.429 . S
C4282 C4274 1.574 . S
C4282 H4277 0.949 . S
C4282 C4288 1.368 . S
C4283 C4267 1.349 . S
C4283 H4275 0.950 . S
C4283 C4281 1.327 . S
C4284 C4272 1.349 . S
C4284 H4278 0.950 . S
C4284 C4285 1.327 . S
C4285 H4279 0.950 . S
C4285 C4284 1.327 . S
C4285 C4289 1.429 . S
C4286 C4269 1.574 . S
C4286 H4280 0.949 . S
C4286 C4290 1.368 . S
C4287 C4268 1.429 . S
C4287 C4281 1.429 . S
C4287 C4288 1.523 . S
C4288 C4269 1.368 . S
C4288 C4282 1.368 . S
C4288 C4287 1.523 . S
C4289 C4273 1.429 . S
C4289 C4285 1.429 . S
C4289 C4290 1.523 . S
C4290 C4274 1.368 . S
C4290 C4286 1.368 . S
C4290 C4289 1.523 . S
H4291 C4266 0.950 . S
H4292 C4268 0.950 . S
H4293 C4269 0.949 . S
H4294 C4271 0.950 . S
H4295 C4273 0.950 . S
C4296 C4297 1.349 . S
C4296 C4298 1.327 . S
C4296 H4321 0.950 . S
C4297 C4296 1.349 . S
C4297 C4313 1.349 . S
C4298 C4296 1.327 . S
C4298 C4317 1.429 . S
C4298 H4322 0.950 . S
C4299 C4316 1.574 . S
C4299 C4318 1.368 . S
C4299 H4323 0.949 . S
H4300 C4304 0.949 . S
C4301 C4302 1.349 . S
C4301 C4303 1.327 . S
C4301 H4324 0.950 . S
C4302 C4301 1.349 . S
C4302 C4314 1.349 . S
C4303 C4301 1.327 . S
C4303 C4319 1.429 . S
C4303 H4325 0.950 . S
C4304 H4300 0.949 . S
C4304 C4312 1.574 . S
C4304 C4320 1.368 . S
H4305 C4313 0.950 . S
H4306 C4311 0.950 . S
H4307 C4312 0.949 . S
H4308 C4314 0.950 . S
H4309 C4315 0.950 . S
H4310 C4316 0.949 . S
C4311 H4306 0.950 . S
C4311 C4313 1.327 . S
C4311 C4317 1.429 . S
C4312 C4304 1.574 . S
C4312 H4307 0.949 . S
C4312 C4318 1.368 . S
C4313 C4297 1.349 . S
C4313 H4305 0.950 . S
C4313 C4311 1.327 . S
C4314 C4302 1.349 . S
C4314 H4308 0.950 . S
C4314 C4315 1.327 . S
C4315 H4309 0.950 . S
C4315 C4314 1.327 . S
C4315 C4319 1.429 . S
C4316 C4299 1.574 . S
C4316 H4310 0.949 . S
C4316 C4320 1.368 . S
C4317 C4298 1.429 . S
C4317 C4311 1.429 . S
C4317 C4318 1.523 . S
C4318 C4299 1.368 . S
C4318 C4312 1.368 . S
C4318 C4317 1.523 . S
C4319 C4303 1.429 . S
C4319 C4315 1.429 . S
C4319 C4320 1.523 . S
C4320 C4304 1.368 . S
C4320 C4316 1.368 . S
C4320 C4319 1.523 . S
H4321 C4296 0.950 . S
H4322 C4298 0.950 . S
H4323 C4299 0.949 . S
H4324 C4301 0.950 . S
H4325 C4303 0.950 . S
C4326 C4327 1.349 . S
C4326 C4328 1.327 . S
C4326 H4351 0.950 . S
C4327 C4326 1.349 . S
C4327 C4343 1.349 . S
C4328 C4326 1.327 . S
C4328 C4347 1.429 . S
C4328 H4352 0.950 . S
C4329 C4346 1.574 . S
C4329 C4348 1.368 . S
C4329 H4353 0.949 . S
H4330 C4334 0.949 . S
C4331 C4332 1.349 . S
C4331 C4333 1.327 . S
C4331 H4354 0.938 1_565 S
C4332 C4331 1.349 . S
C4332 C4344 1.349 . S
C4333 C4331 1.327 . S
C4333 C4349 1.429 . S
C4333 H4355 0.950 . S
C4334 H4330 0.949 . S
C4334 C4342 1.574 . S
C4334 C4350 1.368 . S
H4335 C4343 0.950 . S
H4336 C4341 0.950 . S
H4337 C4342 0.949 . S
H4338 C4344 0.950 . S
H4339 C4345 0.950 . S
H4340 C4346 0.949 . S
C4341 H4336 0.950 . S
C4341 C4343 1.327 . S
C4341 C4347 1.429 . S
C4342 C4334 1.574 . S
C4342 H4337 0.949 . S
C4342 C4348 1.368 . S
C4343 C4327 1.349 . S
C4343 H4335 0.950 . S
C4343 C4341 1.327 . S
C4344 C4332 1.349 . S
C4344 H4338 0.950 . S
C4344 C4345 1.327 . S
C4345 H4339 0.950 . S
C4345 C4344 1.327 . S
C4345 C4349 1.429 . S
C4346 C4329 1.574 . S
C4346 H4340 0.949 . S
C4346 C4350 1.368 . S
C4347 C4328 1.429 . S
C4347 C4341 1.429 . S
C4347 C4348 1.523 . S
C4348 C4329 1.368 . S
C4348 C4342 1.368 . S
C4348 C4347 1.523 . S
C4349 C4333 1.429 . S
C4349 C4345 1.429 . S
C4349 C4350 1.523 . S
C4350 C4334 1.368 . S
C4350 C4346 1.368 . S
C4350 C4349 1.523 . S
H4351 C4326 0.950 . S
H4352 C4328 0.950 . S
H4353 C4329 0.949 . S
H4354 C4331 0.938 1_545 S
H4355 C4333 0.950 . S
C4356 C4357 1.349 . S
C4356 C4358 1.327 . S
C4356 H4381 0.950 . S
C4357 C4356 1.349 . S
C4357 C4373 1.349 . S
C4358 C4356 1.327 . S
C4358 C4377 1.429 . S
C4358 H4382 0.950 . S
C4359 C4376 1.574 . S
C4359 C4378 1.368 . S
C4359 H4383 0.949 . S
H4360 C4364 0.949 . S
C4361 C4362 1.349 . S
C4361 C4363 1.327 . S
C4361 H4384 0.950 . S
C4362 C4361 1.349 . S
C4362 C4374 1.349 . S
C4363 C4361 1.327 . S
C4363 C4379 1.429 . S
C4363 H4385 0.950 . S
C4364 H4360 0.949 . S
C4364 C4372 1.574 . S
C4364 C4380 1.368 . S
H4365 C4373 0.950 . S
H4366 C4371 0.950 . S
H4367 C4372 0.949 . S
H4368 C4374 0.950 . S
H4369 C4375 0.950 . S
H4370 C4376 0.949 . S
C4371 H4366 0.950 . S
C4371 C4373 1.327 . S
C4371 C4377 1.429 . S
C4372 C4364 1.574 . S
C4372 H4367 0.949 . S
C4372 C4378 1.368 . S
C4373 C4357 1.349 . S
C4373 H4365 0.950 . S
C4373 C4371 1.327 . S
C4374 C4362 1.349 . S
C4374 H4368 0.950 . S
C4374 C4375 1.327 . S
C4375 H4369 0.950 . S
C4375 C4374 1.327 . S
C4375 C4379 1.429 . S
C4376 C4359 1.574 . S
C4376 H4370 0.949 . S
C4376 C4380 1.368 . S
C4377 C4358 1.429 . S
C4377 C4371 1.429 . S
C4377 C4378 1.523 . S
C4378 C4359 1.368 . S
C4378 C4372 1.368 . S
C4378 C4377 1.523 . S
C4379 C4363 1.429 . S
C4379 C4375 1.429 . S
C4379 C4380 1.523 . S
C4380 C4364 1.368 . S
C4380 C4376 1.368 . S
C4380 C4379 1.523 . S
H4381 C4356 0.950 . S
H4382 C4358 0.950 . S
H4383 C4359 0.949 . S
H4384 C4361 0.950 . S
H4385 C4363 0.950 . S
C4386 C4387 1.349 . S
C4386 C4388 1.327 . S
C4386 H4411 0.950 . S
C4387 C4386 1.349 . S
C4387 C4403 1.349 . S
C4388 C4386 1.327 . S
C4388 C4407 1.429 . S
C4388 H4412 0.950 . S
C4389 C4406 1.574 . S
C4389 C4408 1.368 . S
C4389 H4413 0.949 . S
H4390 C4394 0.949 . S
C4391 C4392 1.349 . S
C4391 C4393 1.327 . S
C4391 H4414 0.950 . S
C4392 C4391 1.349 . S
C4392 C4404 1.349 . S
C4393 C4391 1.327 . S
C4393 C4409 1.429 . S
C4393 H4415 0.950 . S
C4394 H4390 0.949 . S
C4394 C4402 1.574 . S
C4394 C4410 1.368 . S
H4395 C4403 0.950 . S
H4396 C4401 0.950 . S
H4397 C4402 0.949 . S
H4398 C4404 0.950 . S
H4399 C4405 0.950 . S
H4400 C4406 0.949 . S
C4401 H4396 0.950 . S
C4401 C4403 1.327 . S
C4401 C4407 1.429 . S
C4402 C4394 1.574 . S
C4402 H4397 0.949 . S
C4402 C4408 1.368 . S
C4403 C4387 1.349 . S
C4403 H4395 0.950 . S
C4403 C4401 1.327 . S
C4404 C4392 1.349 . S
C4404 H4398 0.950 . S
C4404 C4405 1.327 . S
C4405 H4399 0.950 . S
C4405 C4404 1.327 . S
C4405 C4409 1.429 . S
C4406 C4389 1.574 . S
C4406 H4400 0.949 . S
C4406 C4410 1.368 . S
C4407 C4388 1.429 . S
C4407 C4401 1.429 . S
C4407 C4408 1.523 . S
C4408 C4389 1.368 . S
C4408 C4402 1.368 . S
C4408 C4407 1.523 . S
C4409 C4393 1.429 . S
C4409 C4405 1.429 . S
C4409 C4410 1.523 . S
C4410 C4394 1.368 . S
C4410 C4406 1.368 . S
C4410 C4409 1.523 . S
H4411 C4386 0.950 . S
H4412 C4388 0.950 . S
H4413 C4389 0.949 . S
H4414 C4391 0.950 . S
H4415 C4393 0.950 . S
C4416 C4417 1.349 . S
C4416 C4418 1.327 . S
C4416 H4441 0.950 . S
C4417 C4416 1.349 . S
C4417 C4433 1.349 . S
C4418 C4416 1.327 . S
C4418 C4437 1.429 . S
C4418 H4442 0.950 . S
C4419 C4436 1.574 . S
C4419 C4438 1.368 . S
C4419 H4443 0.949 . S
H4420 C4424 0.949 . S
C4421 C4422 1.349 . S
C4421 C4423 1.327 . S
C4421 H4444 0.950 . S
C4422 C4421 1.349 . S
C4422 C4434 1.349 . S
C4423 C4421 1.327 . S
C4423 C4439 1.429 . S
C4423 H4445 0.950 . S
C4424 H4420 0.949 . S
C4424 C4432 1.574 . S
C4424 C4440 1.368 . S
H4425 C4433 0.950 . S
H4426 C4431 0.950 . S
H4427 C4432 0.949 . S
H4428 C4434 0.950 . S
H4429 C4435 0.950 . S
H4430 C4436 0.949 . S
C4431 H4426 0.950 . S
C4431 C4433 1.327 . S
C4431 C4437 1.429 . S
C4432 C4424 1.574 . S
C4432 H4427 0.949 . S
C4432 C4438 1.368 . S
C4433 C4417 1.349 . S
C4433 H4425 0.950 . S
C4433 C4431 1.327 . S
C4434 C4422 1.349 . S
C4434 H4428 0.950 . S
C4434 C4435 1.327 . S
C4435 H4429 0.950 . S
C4435 C4434 1.327 . S
C4435 C4439 1.429 . S
C4436 C4419 1.574 . S
C4436 H4430 0.949 . S
C4436 C4440 1.368 . S
C4437 C4418 1.429 . S
C4437 C4431 1.429 . S
C4437 C4438 1.523 . S
C4438 C4419 1.368 . S
C4438 C4432 1.368 . S
C4438 C4437 1.523 . S
C4439 C4423 1.429 . S
C4439 C4435 1.429 . S
C4439 C4440 1.523 . S
C4440 C4424 1.368 . S
C4440 C4436 1.368 . S
C4440 C4439 1.523 . S
H4441 C4416 0.950 . S
H4442 C4418 0.950 . S
H4443 C4419 0.949 . S
H4444 C4421 0.950 . S
H4445 C4423 0.950 . S
C4446 C4447 1.349 . S
C4446 C4448 1.327 . S
C4446 H4471 0.950 . S
C4447 C4446 1.349 . S
C4447 C4463 1.349 . S
C4448 C4446 1.327 . S
C4448 C4467 1.429 . S
C4448 H4472 0.950 . S
C4449 C4466 1.574 . S
C4449 C4468 1.368 . S
C4449 H4473 0.949 . S
H4450 C4454 0.949 1_556 S
C4451 C4452 1.349 . S
C4451 C4453 1.327 . S
C4451 H4474 0.950 . S
C4452 C4451 1.349 . S
C4452 C4464 1.313 1_554 S
C4453 C4451 1.327 . S
C4453 C4469 1.429 . S
C4453 H4475 0.950 . S
C4454 H4450 0.949 1_554 S
C4454 C4462 1.574 . S
C4454 C4470 1.368 . S
H4455 C4463 0.950 . S
H4456 C4461 0.950 . S
H4457 C4462 0.915 1_556 S
H4458 C4464 0.992 . S
H4459 C4465 0.950 1_556 S
H4460 C4466 0.949 . S
C4461 H4456 0.950 . S
C4461 C4463 1.327 . S
C4461 C4467 1.429 . S
C4462 C4454 1.574 . S
C4462 H4457 0.915 1_554 S
C4462 C4468 1.368 . S
C4463 C4447 1.349 . S
C4463 H4455 0.950 . S
C4463 C4461 1.327 . S
C4464 C4452 1.313 1_556 S
C4464 H4458 0.992 . S
C4464 C4465 1.324 1_556 S
C4465 H4459 0.950 1_554 S
C4465 C4464 1.324 1_554 S
C4465 C4469 1.429 . S
C4466 C4449 1.574 . S
C4466 H4460 0.949 . S
C4466 C4470 1.368 . S
C4467 C4448 1.429 . S
C4467 C4461 1.429 . S
C4467 C4468 1.523 . S
C4468 C4449 1.368 . S
C4468 C4462 1.368 . S
C4468 C4467 1.523 . S
C4469 C4453 1.429 . S
C4469 C4465 1.429 . S
C4469 C4470 1.523 . S
C4470 C4454 1.368 . S
C4470 C4466 1.368 . S
C4470 C4469 1.523 . S
H4471 C4446 0.950 . S
H4472 C4448 0.950 . S
H4473 C4449 0.949 . S
H4474 C4451 0.950 . S
H4475 C4453 0.950 . S
C4476 C4477 1.349 . S
C4476 C4478 1.327 . S
C4476 H4501 0.950 . S
C4477 C4476 1.349 . S
C4477 C4493 1.349 . S
C4478 C4476 1.327 . S
C4478 C4497 1.429 . S
C4478 H4502 0.950 . S
C4479 C4496 1.574 . S
C4479 C4498 1.368 . S
C4479 H4503 0.949 . S
H4480 C4484 0.949 . S
C4481 C4482 1.349 . S
C4481 C4483 1.327 . S
C4481 H4504 0.950 . S
C4482 C4481 1.349 . S
C4482 C4494 1.349 . S
C4483 C4481 1.327 . S
C4483 C4499 1.429 . S
C4483 H4505 0.950 . S
C4484 H4480 0.949 . S
C4484 C4492 1.574 . S
C4484 C4500 1.368 . S
H4485 C4493 0.950 . S
H4486 C4491 0.950 . S
H4487 C4492 0.949 . S
H4488 C4494 0.950 . S
H4489 C4495 0.950 . S
H4490 C4496 0.949 . S
C4491 H4486 0.950 . S
C4491 C4493 1.327 . S
C4491 C4497 1.429 . S
C4492 C4484 1.574 . S
C4492 H4487 0.949 . S
C4492 C4498 1.368 . S
C4493 C4477 1.349 . S
C4493 H4485 0.950 . S
C4493 C4491 1.327 . S
C4494 C4482 1.349 . S
C4494 H4488 0.950 . S
C4494 C4495 1.327 . S
C4495 H4489 0.950 . S
C4495 C4494 1.327 . S
C4495 C4499 1.429 . S
C4496 C4479 1.574 . S
C4496 H4490 0.949 . S
C4496 C4500 1.368 . S
C4497 C4478 1.429 . S
C4497 C4491 1.429 . S
C4497 C4498 1.523 . S
C4498 C4479 1.368 . S
C4498 C4492 1.368 . S
C4498 C4497 1.523 . S
C4499 C4483 1.429 . S
C4499 C4495 1.429 . S
C4499 C4500 1.523 . S
C4500 C4484 1.368 . S
C4500 C4496 1.368 . S
C4500 C4499 1.523 . S
H4501 C4476 0.950 . S
H4502 C4478 0.950 . S
H4503 C4479 0.949 . S
H4504 C4481 0.950 . S
H4505 C4483 0.950 . S
C4506 C4507 1.349 . S
C4506 C4508 1.327 . S
C4506 H4531 0.950 . S
C4507 C4506 1.349 . S
C4507 C4523 1.349 . S
C4508 C4506 1.327 . S
C4508 C4527 1.429 . S
C4508 H4532 0.950 . S
C4509 C4526 1.574 . S
C4509 C4528 1.368 . S
C4509 H4533 0.949 . S
H4510 C4514 0.949 . S
C4511 C4512 1.349 . S
C4511 C4513 1.327 . S
C4511 H4534 0.950 . S
C4512 C4511 1.349 . S
C4512 C4524 1.349 . S
C4513 C4511 1.327 . S
C4513 C4529 1.429 . S
C4513 H4535 0.950 . S
C4514 H4510 0.949 . S
C4514 C4522 1.574 . S
C4514 C4530 1.368 . S
H4515 C4523 0.950 . S
H4516 C4521 0.950 . S
H4517 C4522 0.949 . S
H4518 C4524 0.950 . S
H4519 C4525 0.950 . S
H4520 C4526 0.949 . S
C4521 H4516 0.950 . S
C4521 C4523 1.327 . S
C4521 C4527 1.429 . S
C4522 C4514 1.574 . S
C4522 H4517 0.949 . S
C4522 C4528 1.368 . S
C4523 C4507 1.349 . S
C4523 H4515 0.950 . S
C4523 C4521 1.327 . S
C4524 C4512 1.349 . S
C4524 H4518 0.950 . S
C4524 C4525 1.327 . S
C4525 H4519 0.950 . S
C4525 C4524 1.327 . S
C4525 C4529 1.429 . S
C4526 C4509 1.574 . S
C4526 H4520 0.949 . S
C4526 C4530 1.368 . S
C4527 C4508 1.429 . S
C4527 C4521 1.429 . S
C4527 C4528 1.523 . S
C4528 C4509 1.368 . S
C4528 C4522 1.368 . S
C4528 C4527 1.523 . S
C4529 C4513 1.429 . S
C4529 C4525 1.429 . S
C4529 C4530 1.523 . S
C4530 C4514 1.368 . S
C4530 C4526 1.368 . S
C4530 C4529 1.523 . S
H4531 C4506 0.950 . S
H4532 C4508 0.950 . S
H4533 C4509 0.949 . S
H4534 C4511 0.950 . S
H4535 C4513 0.950 . S
C1657 C101 2.041 . S
C1662 C368 2.049 . S
C1687 C57 1.821 . S
C1692 C470 1.842 . S
C1717 C73 1.808 . S
C1722 C536 1.897 . S
C1752 C622 1.430 . S
C1747 C78 1.518 . S
C1777 C21 1.634 . S
C1782 C706 1.529 . S
C1812 C788 1.850 . S
C1807 C31 1.758 . S
C1842 C890 1.872 . S
C1837 C49 1.877 . S
C1867 C0 1.853 . S
C1872 C956 1.964 . S
C1902 C386 1.524 . S
C1897 C218 1.559 . S
C1927 C229 0.889 . S
C1932 C454 0.861 . S
C1962 C554 1.059 . S
C1957 C257 1.065 . S
C1992 C620 1.601 . S
C1987 C164 1.538 1_556 S
C2017 C216 1.524 . S
C2022 C704 1.586 . S
C2052 C806 1.070 . S
C2047 C231 1.075 . S
C2082 C874 0.859 . S
C2077 C255 0.886 . S
C2112 C974 1.505 . S
C2107 C166 1.540 . S
C2142 C370 0.856 . S
C2137 C143 0.860 1_556 S
C2167 C265 1.665 . S
C2172 C1058 1.683 . S
C2202 C1126 1.225 . S
C2197 C299 1.267 . S
C2232 C1208 0.824 . S
C2227 C291 0.814 . S
C2257 C104 0.795 . S
C2262 C958 0.793 . S
C2287 C117 1.308 . S
C2292 C538 1.263 . S
C2317 C304 1.596 . S
C2322 C1310 1.610 . S
C2352 C1376 0.708 . S
C2347 C278 0.714 . S
C2382 C379 1.974 . S
C2377 C60 1.946 . S
C2412 C1383 1.727 . S
C2407 C96 1.736 . S
C2437 C88 1.779 . S
C2442 C547 1.777 . S
C2467 C65 1.442 . S
C2472 C1305 1.360 . S
C2502 C717 1.446 . S
C2497 C10 1.561 . S
C2527 C44 1.661 . S
C2532 C1135 1.745 . S
C2562 C879 1.768 1_556 S
C2557 C34 1.721 . S
C2592 C1471 1.874 . S
C2587 C13 1.843 . S
C2622 C375 1.418 . S
C2617 C138 1.433 . S
C2652 C1389 0.787 . S
C2647 C296 0.798 . S
C2677 C112 0.961 . S
C2682 C543 0.965 . S
C2707 C270 1.500 . S
C2712 C1303 1.499 . S
C2737 C140 1.477 . S
C2742 C715 1.475 . S
C2772 C1131 0.974 . S
C2767 C294 0.969 . S
C2797 C114 0.802 . S
C2802 C885 0.790 . S
C2827 C268 1.419 . S
C2832 C1467 1.404 . S
C2857 C169 0.830 . S
C2862 C381 0.819 . S
C2887 C161 1.597 . S
C2892 C1047 1.593 . S
C2917 C234 1.251 . S
C2922 C801 1.191 . S
C2947 C226 0.722 . S
C2952 C1219 0.717 . S
C2982 C1473 0.752 . S
C2977 C247 0.756 . S
C3007 C195 1.281 . S
C3012 C549 1.220 . S
C3042 C627 1.514 . S
C3037 C239 1.520 . S
C3072 C463 0.606 . S
C3067 C187 0.626 . S
C3097 C75 2.041 . S
C3102 C1544 2.049 . S
C3132 C1394 1.842 . S
C3127 C83 1.821 . S
C3157 C99 1.808 . S
C3162 C1628 1.897 . S
C3187 C52 1.518 1_655 S
C3192 C1294 1.430 . S
C3217 C47 1.634 . S
C3222 C1042 1.529 . S
C3252 C1124 1.850 . S
C3247 C5 1.758 . S
C3282 C1226 1.873 . S
C3277 C23 1.878 . S
C3312 C1460 1.964 . S
C3307 C26 1.853 . S
C3342 C1562 1.524 . S
C3337 C244 1.559 . S
C3367 C177 0.889 . S
C3372 C1378 0.861 . S
C3402 C1646 1.059 . S
C3397 C192 1.065 . S
C3432 C1292 1.601 . S
C3427 C203 1.538 . S
C3462 C1040 1.586 . S
C3457 C242 1.524 . S
C3487 C179 1.074 . S
C3492 C1142 1.069 . S
C3522 C1210 0.859 . S
C3517 C190 0.886 . S
C3547 C205 1.540 . S
C3552 C1478 1.505 . S
C3582 C1546 0.856 . S
C3577 C286 0.858 . S
C3607 C122 1.665 . S
C3612 C722 1.683 . S
C3642 C790 1.224 . S
C3637 C130 1.286 . S
C3672 C872 0.824 . S
C3667 C148 0.815 . S
C3702 C1462 0.793 . S
C3697 C273 0.795 . S
C3727 C260 1.307 . S
C3732 C1630 1.263 . S
C3762 C638 1.610 . S
C3757 C135 1.595 . S
C3792 C452 0.708 . S
C3787 C109 0.714 . S
C3817 C86 1.946 . S
C3822 C1555 1.975 . S
C3852 C459 1.727 . S
C3847 C70 1.736 . S
C3877 C62 1.779 . S
C3882 C1639 1.777 . S
C3907 C91 1.442 . S
C3912 C633 1.360 . S
C3937 C36 1.560 . S
C3942 C1053 1.445 . S
C3972 C799 1.745 . S
C3967 C18 1.661 . S
C3997 C8 1.721 . S
C4002 C1215 1.767 . S
C4027 C39 1.843 . S
C4032 C967 1.874 . S
C4062 C1551 1.419 . S
C4057 C307 1.434 . S
C4087 C153 0.798 . S
C4092 C465 0.782 . S
C4122 C1635 1.000 . S
C4117 C281 0.961 . S
C4147 C127 1.500 . S
C4152 C631 1.498 . S
C4177 C309 1.476 . S
C4182 C1051 1.475 . S
C4212 C795 0.975 . S
C4207 C151 0.974 . S
C4237 C283 0.802 . S
C4242 C1221 0.790 . S
C4272 C963 1.404 . S
C4267 C125 1.419 . S
C4302 C1557 0.819 . S
C4297 C221 0.830 . S
C4332 C711 1.593 1_565 S
C4327 C200 1.597 . S
C4357 C208 1.251 . S
C4362 C1137 1.191 . S
C4392 C883 0.718 . S
C4387 C174 0.722 . S
C4417 C182 0.752 . S
C4422 C969 0.752 . S
C4447 C156 1.281 . S
C4452 C1641 1.221 . S
C4482 C1299 1.515 . S
C4477 C213 1.520 . S
C4512 C1387 0.606 . S
C4507 C252 0.626 . S
