# Generated by pormake.
# Topology pyr, (3,6)-cn, num edge types: 1
# Building blocks:
#     Node 0, Type 0, BuildingBlock: OLANEW_clean_sbu_2, # of connection points: 3
#     Node 1, Type 0, BuildingBlock: OLANEW_clean_sbu_2, # of connection points: 3
#     Node 2, Type 0, BuildingBlock: OLANEW_clean_sbu_2, # of connection points: 3
#     Node 3, Type 0, BuildingBlock: OLANEW_clean_sbu_2, # of connection points: 3
#     Node 4, Type 0, BuildingBlock: OLANEW_clean_sbu_2, # of connection points: 3
#     Node 5, Type 0, BuildingBlock: OLANEW_clean_sbu_2, # of connection points: 3
#     Node 6, Type 0, BuildingBlock: OLANEW_clean_sbu_2, # of connection points: 3
#     Node 7, Type 0, BuildingBlock: OLANEW_clean_sbu_2, # of connection points: 3
#     Node 8, Type 1, BuildingBlock: INOVEN_clean_sbu_0, # of connection points: 6
#     Node 9, Type 1, BuildingBlock: INOVEN_clean_sbu_0, # of connection points: 6
#     Node 10, Type 1, BuildingBlock: INOVEN_clean_sbu_0, # of connection points: 6
#     Node 11, Type 1, BuildingBlock: INOVEN_clean_sbu_0, # of connection points: 6
#     Edge 12, Type (0, 1), BuildingBlock: EYOCIG_clean_linker_4, # of connection points: 2
#     Edge 13, Type (0, 1), BuildingBlock: EYOCIG_clean_linker_4, # of connection points: 2
#     Edge 14, Type (0, 1), BuildingBlock: EYOCIG_clean_linker_4, # of connection points: 2
#     Edge 15, Type (0, 1), BuildingBlock: EYOCIG_clean_linker_4, # of connection points: 2
#     Edge 16, Type (0, 1), BuildingBlock: EYOCIG_clean_linker_4, # of connection points: 2
#     Edge 17, Type (0, 1), BuildingBlock: EYOCIG_clean_linker_4, # of connection points: 2
#     Edge 18, Type (0, 1), BuildingBlock: EYOCIG_clean_linker_4, # of connection points: 2
#     Edge 19, Type (0, 1), BuildingBlock: EYOCIG_clean_linker_4, # of connection points: 2
#     Edge 20, Type (0, 1), BuildingBlock: EYOCIG_clean_linker_4, # of connection points: 2
#     Edge 21, Type (0, 1), BuildingBlock: EYOCIG_clean_linker_4, # of connection points: 2
#     Edge 22, Type (0, 1), BuildingBlock: EYOCIG_clean_linker_4, # of connection points: 2
#     Edge 23, Type (0, 1), BuildingBlock: EYOCIG_clean_linker_4, # of connection points: 2
#     Edge 24, Type (0, 1), BuildingBlock: EYOCIG_clean_linker_4, # of connection points: 2
#     Edge 25, Type (0, 1), BuildingBlock: EYOCIG_clean_linker_4, # of connection points: 2
#     Edge 26, Type (0, 1), BuildingBlock: EYOCIG_clean_linker_4, # of connection points: 2
#     Edge 27, Type (0, 1), BuildingBlock: EYOCIG_clean_linker_4, # of connection points: 2
#     Edge 28, Type (0, 1), BuildingBlock: EYOCIG_clean_linker_4, # of connection points: 2
#     Edge 29, Type (0, 1), BuildingBlock: EYOCIG_clean_linker_4, # of connection points: 2
#     Edge 30, Type (0, 1), BuildingBlock: EYOCIG_clean_linker_4, # of connection points: 2
#     Edge 31, Type (0, 1), BuildingBlock: EYOCIG_clean_linker_4, # of connection points: 2
#     Edge 32, Type (0, 1), BuildingBlock: EYOCIG_clean_linker_4, # of connection points: 2
#     Edge 33, Type (0, 1), BuildingBlock: EYOCIG_clean_linker_4, # of connection points: 2
#     Edge 34, Type (0, 1), BuildingBlock: EYOCIG_clean_linker_4, # of connection points: 2
#     Edge 35, Type (0, 1), BuildingBlock: EYOCIG_clean_linker_4, # of connection points: 2
# Relax obj value: 0.163
# Max RMSD: 0.174
# Mean RMSD: 0.123
data_MOF--net-pyr--node1-OLANEW_clean_sbu_2--node2-INOVEN_clean_sbu_0--edge1-EYOCIG_clean_linker_4
_symmetry_space_group_name_H-M    P1
_symmetry_Int_Tables_number       1
_symmetry_cell_setting            triclinic
loop_
_symmetry_equiv_pos_as_xyz
'x, y, z'
_cell_length_a     32.996597
_cell_length_b     36.570179
_cell_length_c     31.879519
_cell_angle_alpha  95.927089
_cell_angle_beta   87.387365
_cell_angle_gamma 104.24218
loop_
_atom_site_label
_atom_site_type_symbol
_atom_site_fract_x
_atom_site_fract_y
_atom_site_fract_z
_atom_type_partial_charge
O0 O 0.42746 0.30321 0.22294 0.0
Cd1 Cd 0.38723 0.3468 0.26265 0.0
O2 O 0.37409 0.26727 0.2519 0.0
Cd3 Cd 0.32853 0.21869 0.26909 0.0
O4 O 0.30523 0.23891 0.3286 0.0
C5 C 0.32942 0.24584 0.35968 0.0
O6 O 0.36693 0.23956 0.35505 0.0
C7 C 0.40751 0.27008 0.23026 0.0
C8 C 0.33203 0.3833 0.22766 0.0
O9 O 0.37098 0.39939 0.23169 0.0
O10 O 0.31902 0.34938 0.23805 0.0
O11 O 0.25169 0.88921 0.70192 0.0
Cd12 Cd 0.21399 0.83688 0.65733 0.0
O13 O 0.20746 0.88039 0.75608 0.0
Cd14 Cd 0.15769 0.84274 0.72011 0.0
O15 O 0.15152 0.86817 0.66482 0.0
C16 C 0.1516 0.90191 0.67769 0.0
O17 O 0.14895 0.9122 0.71819 0.0
C18 C 0.24216 0.89689 0.74001 0.0
C19 C 0.27526 0.79947 0.62915 0.0
O20 O 0.2838 0.83449 0.64167 0.0
O21 O 0.23724 0.78054 0.63023 0.0
O22 O 0.75426 0.43145 0.87774 0.0
Cd23 Cd 0.68677 0.41683 0.83256 0.0
O24 O 0.7523 0.38208 0.91512 0.0
Cd25 Cd 0.69671 0.33218 0.90572 0.0
O26 O 0.6484 0.2805 0.92366 0.0
C27 C 0.65572 0.26358 0.95454 0.0
O28 O 0.69151 0.27602 0.9737 0.0
C29 C 0.77024 0.4153 0.90481 0.0
C30 C 0.65669 0.45446 0.76863 0.0
O31 O 0.66527 0.47054 0.80588 0.0
O32 O 0.66398 0.42165 0.75989 0.0
O33 O 0.93195 0.7772 0.41267 0.0
Cd34 Cd 0.91545 0.71186 0.36383 0.0
O35 O 0.90791 0.76546 0.47765 0.0
Cd36 Cd 0.88214 0.70586 0.46236 0.0
O37 O 0.82195 0.66647 0.45646 0.0
C38 C 0.79467 0.67488 0.48236 0.0
O39 O 0.80503 0.704 0.51082 0.0
C40 C 0.92558 0.7887 0.45159 0.0
C41 C 0.94203 0.67333 0.285 0.0
O42 O 0.93513 0.70648 0.28634 0.0
O43 O 0.93848 0.65856 0.32017 0.0
O44 O 0.67469 0.76892 0.80099 0.0
Cd45 Cd 0.64816 0.74003 0.86404 0.0
O46 O 0.66163 0.81174 0.84762 0.0
Cd47 Cd 0.6625 0.86291 0.88533 0.0
O48 O 0.61467 0.87485 0.92737 0.0
C49 C 0.584 0.88199 0.9104 0.0
O50 O 0.58151 0.87847 0.86916 0.0
C51 C 0.67813 0.80341 0.81258 0.0
C52 C 0.71242 0.70943 0.88224 0.0
O53 O 0.68477 0.69246 0.85539 0.0
O54 O 0.70908 0.7407 0.90256 0.0
O55 O 0.79002 0.18783 0.43526 0.0
Cd56 Cd 0.83392 0.22606 0.48707 0.0
O57 O 0.80111 0.24302 0.40852 0.0
Cd58 Cd 0.85339 0.28394 0.43869 0.0
O59 O 0.81623 0.3029 0.49054 0.0
C60 C 0.78243 0.30876 0.47852 0.0
O61 O 0.77572 0.30769 0.43811 0.0
C62 C 0.78096 0.20881 0.40999 0.0
C63 C 0.88645 0.18804 0.51382 0.0
O64 O 0.84708 0.17363 0.51469 0.0
O65 O 0.90116 0.22037 0.50018 0.0
O66 O 0.43011 0.81608 0.24556 0.0
Cd67 Cd 0.4231 0.75271 0.28925 0.0
O68 O 0.37009 0.81556 0.21499 0.0
Cd69 Cd 0.3281 0.76117 0.22919 0.0
O70 O 0.28088 0.7094 0.20692 0.0
C71 C 0.25947 0.71402 0.1766 0.0
O72 O 0.2655 0.74781 0.16352 0.0
C73 C 0.40828 0.83158 0.22269 0.0
C74 C 0.44664 0.70217 0.34825 0.0
O75 O 0.4727 0.71909 0.32107 0.0
O76 O 0.41032 0.7092 0.34952 0.0
O77 O 0.18372 0.45973 0.78446 0.0
Cd78 Cd 0.21506 0.4294 0.72053 0.0
O79 O 0.14471 0.40598 0.80517 0.0
Cd80 Cd 0.16342 0.36544 0.75621 0.0
O81 O 0.15507 0.31076 0.71697 0.0
C82 C 0.11994 0.28774 0.72251 0.0
O83 O 0.09275 0.29786 0.74968 0.0
C84 C 0.15667 0.44201 0.80998 0.0
C85 C 0.29068 0.46522 0.68038 0.0
O86 O 0.257 0.4759 0.67654 0.0
O87 O 0.28963 0.43877 0.70406 0.0
Gd88 Gd 0.04276 0.05141 0.55942 0.0
Gd89 Gd 0.9856 0.02489 0.63604 0.0
C90 C 0.04153 0.11013 0.6433 0.0
C91 C 0.08801 0.08874 0.50269 0.0
C92 C 0.12307 0.12285 0.50078 0.0
C93 C 0.16443 0.119 0.49478 0.0
C94 C 0.11526 0.15894 0.50023 0.0
C95 C 0.18815 0.18539 0.48335 0.0
C96 C 0.14764 0.19002 0.49139 0.0
C97 C 0.19668 0.15006 0.48588 0.0
C98 C 0.07539 1.01918 0.61439 0.0
C99 C 0.98483 0.96652 0.54938 0.0
C100 C 0.94596 0.9928 0.69875 0.0
C101 C 0.91038 0.96076 0.70564 0.0
C102 C 0.8703 0.96731 0.7126 0.0
C103 C 0.91609 0.92408 0.70755 0.0
C104 C 0.8425 0.90169 0.72353 0.0
C105 C 0.88209 0.89447 0.71654 0.0
C106 C 0.83668 0.93793 0.72153 0.0
C107 C 0.95277 0.05836 0.58176 0.0
O108 O 0.04971 0.10523 0.60257 0.0
O109 O 0.02165 0.08197 0.66522 0.0
O110 O 0.09653 0.05927 0.51707 0.0
O111 O 0.05104 0.09368 0.51501 0.0
O112 O 0.08321 1.01509 0.57444 0.0
O113 O 0.05291 0.04163 0.62458 0.0
O114 O 0.97584 0.97085 0.59048 0.0
O115 O 0.00638 0.99506 0.52861 0.0
O116 O 0.93674 0.02145 0.6832 0.0
O117 O 0.98072 0.98515 0.68289 0.0
O118 O 0.9429 0.06015 0.62144 0.0
O119 O 0.97582 0.03624 0.57225 0.0
H120 H 0.17159 0.09166 0.495 0.0
H121 H 0.08384 0.16289 0.50475 0.0
H122 H 0.14068 0.21719 0.48907 0.0
H123 H 0.22797 0.14614 0.47939 0.0
H124 H 0.86493 0.99529 0.7119 0.0
H125 H 0.94678 0.91844 0.70279 0.0
H126 H 0.8868 0.86646 0.71883 0.0
H127 H 0.80611 0.94369 0.72755 0.0
Gd128 Gd 0.53278 0.06878 0.12274 0.0
Gd129 Gd 0.46218 0.05504 0.05741 0.0
C130 C 0.45756 0.11236 0.13924 0.0
C131 C 0.59562 0.10446 0.16689 0.0
C132 C 0.60118 0.1279 0.20747 0.0
C133 C 0.60262 0.11083 0.24465 0.0
C134 C 0.61023 0.16771 0.20881 0.0
C135 C 0.63076 0.17231 0.28103 0.0
C136 C 0.62509 0.18996 0.24572 0.0
C137 C 0.61763 0.13301 0.28121 0.0
C138 C 0.47777 1.00245 0.1398 0.0
C139 C 0.53922 1.01619 0.03839 0.0
C140 C 0.40124 0.0233 1.00906 0.0
C141 C 0.39727 1.0004 0.96822 0.0
C142 C 0.39645 1.01813 0.93137 0.0
C143 C 0.38941 0.96061 0.966 0.0
C144 C 0.37095 0.95718 0.8934 0.0
C145 C 0.37598 0.93888 0.92842 0.0
C146 C 0.38329 0.99649 0.89409 0.0
C147 C 0.52576 0.11355 0.03529 0.0
O148 O 0.49178 0.10535 0.15277 0.0
O149 O 0.43799 0.09443 0.10507 0.0
O150 O 0.57883 0.06822 0.16814 0.0
O151 O 0.58262 0.11886 0.13568 0.0
O152 O 0.51069 1.01913 0.16102 0.0
O153 O 0.47394 0.02324 0.11062 0.0
O154 O 0.50211 1.01872 0.02789 0.0
O155 O 0.56015 0.03555 0.07111 0.0
O156 O 0.42102 0.05891 1.00855 0.0
O157 O 0.40992 1.0077 0.04159 0.0
O158 O 0.4921 0.10052 1.01404 0.0
O159 O 0.52361 0.09403 0.06619 0.0
H160 H 0.59531 0.0803 0.24481 0.0
H161 H 0.60885 0.18159 0.18068 0.0
H162 H 0.63566 0.22045 0.2454 0.0
H163 H 0.62224 0.11923 0.30854 0.0
H164 H 0.4029 0.04869 0.93194 0.0
H165 H 0.39061 0.9463 0.99384 0.0
H166 H 0.36632 0.90827 0.92777 0.0
H167 H 0.37937 1.01062 0.86678 0.0
Gd168 Gd 0.54217 0.52807 0.52753 0.0
Gd169 Gd 0.53373 0.5986 0.5849 0.0
C170 C 0.57336 0.54048 0.62705 0.0
C171 C 0.57937 0.47727 0.49331 0.0
C172 C 0.59935 0.44769 0.50595 0.0
C173 C 0.57678 0.40955 0.50574 0.0
C174 C 0.64245 0.45679 0.51439 0.0
C175 C 0.63992 0.39071 0.52048 0.0
C176 C 0.6625 0.42853 0.5214 0.0
C177 C 0.59696 0.38124 0.51293 0.0
C178 C 0.4688 0.52088 0.56955 0.0
C179 C 0.50573 0.59052 0.48479 0.0
C180 C 0.50109 0.65008 0.6229 0.0
C181 C 0.48069 0.67862 0.60996 0.0
C182 C 0.50236 0.71702 0.61036 0.0
C183 C 0.43803 0.66794 0.60026 0.0
C184 C 0.43797 0.73333 0.5962 0.0
C185 C 0.41693 0.69513 0.59361 0.0
C186 C 0.48095 0.74446 0.60352 0.0
C187 C 0.60629 0.60481 0.54318 0.0
O188 O 0.57268 0.52251 0.58875 0.0
O189 O 0.55708 0.57019 0.63539 0.0
O190 O 0.53851 0.47139 0.49643 0.0
O191 O 0.59869 0.51266 0.50373 0.0
O192 O 0.47262 0.50337 0.53245 0.0
O193 O 0.50405 0.53801 0.58393 0.0
O194 O 0.50459 0.60699 0.52379 0.0
O195 O 0.52179 0.56019 0.47668 0.0
O196 O 0.54149 0.65556 0.61586 0.0
O197 O 0.48054 0.61456 0.61533 0.0
O198 O 0.60332 0.62207 0.5805 0.0
O199 O 0.57108 0.58833 0.5289 0.0
H200 H 0.54377 0.40141 0.49887 0.0
H201 H 0.66108 0.48566 0.51437 0.0
H202 H 0.69589 0.43616 0.52668 0.0
H203 H 0.57926 0.35196 0.51152 0.0
H204 H 0.53528 0.72596 0.61763 0.0
H205 H 0.42031 0.63873 0.59953 0.0
H206 H 0.38357 0.68637 0.58818 0.0
H207 H 0.49736 0.77413 0.60587 0.0
Gd208 Gd 0.03745 0.51882 0.06315 0.0
Gd209 Gd 0.02061 0.58472 1.00909 0.0
C210 C 0.10341 0.60294 0.06479 0.0
C211 C 0.08002 0.47318 0.08517 0.0
C212 C 0.11749 0.47263 0.10994 0.0
C213 C 0.1138 0.4655 0.15277 0.0
C214 C 0.1565 0.47414 0.08919 0.0
C215 C 0.18523 0.45741 0.1516 0.0
C216 C 0.18987 0.46659 0.10976 0.0
C217 C 0.14734 0.45796 0.17336 0.0
C218 C 1.00312 0.56988 0.11382 0.0
C219 C 0.95238 0.50151 1.00664 0.0
C220 C 0.98525 0.6346 0.98622 0.0
C221 C 0.94737 0.63572 0.96366 0.0
C222 C 0.9497 0.64304 0.92099 0.0
C223 C 0.90922 0.63336 0.98608 0.0
C224 C 0.87789 0.64872 0.92524 0.0
C225 C 0.87487 0.63991 0.96702 0.0
C226 C 0.91505 0.64955 0.90185 0.0
C227 C 0.06027 0.53665 0.96107 0.0
O228 O 0.09445 0.56723 0.07342 0.0
O229 O 0.07946 0.61742 0.04215 0.0
O230 O 0.04574 0.47798 0.10527 0.0
O231 O 0.08703 0.4898 0.05013 0.0
O232 O 0.01136 0.53989 0.12643 0.0
O233 O 0.01247 0.56962 0.07464 0.0
O234 O 0.96211 0.53747 0.99836 0.0
O235 O 0.97683 0.48673 0.02916 0.0
O236 O 0.01587 0.6243 0.96425 0.0
O237 O 0.97904 0.62136 0.02327 0.0
O238 O 0.05177 0.56611 0.94747 0.0
O239 O 0.04741 0.53564 0.99903 0.0
H240 H 0.08442 0.46405 0.16987 0.0
H241 H 0.16073 0.4794 0.05628 0.0
H242 H 0.21881 0.46641 0.09232 0.0
H243 H 0.14305 0.45103 0.20576 0.0
H244 H 0.97866 0.64516 0.90293 0.0
H245 H 0.90621 0.62791 0.01897 0.0
H246 H 0.84632 0.63934 0.98544 0.0
H247 H 0.91773 0.6565 0.86944 0.0
C248 C 0.28653 0.24932 0.42949 0.0
C249 C 0.31102 0.24912 0.40062 0.0
C250 C 0.25111 0.23594 0.45457 0.0
C251 C 0.2203 0.21538 0.46821 0.0
C252 C 0.29943 0.92546 0.79475 0.0
C253 C 0.27518 0.91329 0.76742 0.0
C254 C 0.32546 0.93062 0.82874 0.0
C255 C 0.34578 0.93776 0.85965 0.0
C256 C 0.62305 0.48894 0.71363 0.0
C257 C 0.63832 0.47257 0.73796 0.0
C258 C 0.60523 0.50882 0.6856 0.0
C259 C 0.59029 0.52477 0.66063 0.0
C260 C 0.96286 0.63656 0.2117 0.0
C261 C 0.9534 0.6532 0.24501 0.0
C262 C 0.97531 0.61663 0.1731 0.0
C263 C 0.98759 0.59802 0.1428 0.0
C264 C 0.42902 0.20729 0.19817 0.0
C265 C 0.42023 0.23653 0.21225 0.0
C266 C 0.43695 0.17287 0.17876 0.0
C267 C 0.44514 0.14505 0.15979 0.0
C268 C 0.1384 0.9555 0.64295 0.0
C269 C 0.1468 0.92722 0.64968 0.0
C270 C 0.11772 0.9839 0.64762 0.0
C271 C 0.09539 1.00352 0.64243 0.0
C272 C 0.84181 0.4486 0.94614 0.0
C273 C 0.80951 0.43507 0.92628 0.0
C274 C 0.88006 0.46372 0.96967 0.0
C275 C 0.91316 0.47806 0.9879 0.0
C276 C 0.71674 0.63663 0.48538 0.0
C277 C 0.75287 0.65238 0.48154 0.0
C278 C 0.67575 0.62165 0.49898 0.0
C279 C 0.64289 0.6127 0.51725 0.0
C280 C 0.27777 0.41838 0.20027 0.0
C281 C 0.30324 0.40314 0.21265 0.0
C282 C 0.24614 0.43392 0.18509 0.0
C283 C 0.218 0.44451 0.17057 0.0
C284 C 0.60343 0.20514 0.98726 0.0
C285 C 0.62517 0.23175 0.97025 0.0
C286 C 0.57979 0.17377 1.00851 0.0
C287 C 0.55799 0.14642 0.02428 0.0
C288 C 0.94637 0.86087 0.48514 0.0
C289 C 0.93785 0.8287 0.46756 0.0
C290 C 0.95806 0.89803 0.50731 0.0
C291 C 0.97027 0.92924 0.52644 0.0
C292 C 0.3415 0.7768 0.60292 0.0
C293 C 0.30845 0.78307 0.6137 0.0
C294 C 0.38184 0.7713 0.59632 0.0
C295 C 0.41283 0.75985 0.5961 0.0
C296 C 0.7349 0.84502 0.76789 0.0
C297 C 0.70751 0.83055 0.79103 0.0
C298 C 0.77308 0.85788 0.74717 0.0
C299 C 0.80727 0.87359 0.73567 0.0
C300 C 0.71286 0.19723 0.369 0.0
C301 C 0.74261 0.19783 0.38906 0.0
C302 C 0.68157 0.19847 0.34188 0.0
C303 C 0.65849 0.19216 0.31296 0.0
C304 C 0.46786 0.65405 0.39907 0.0
C305 C 0.45783 0.67579 0.37623 0.0
C306 C 0.48072 0.62903 0.42624 0.0
C307 C 0.49259 0.6097 0.45063 0.0
C308 C 0.12118 0.47756 0.87398 0.0
C309 C 0.13812 0.46252 0.84448 0.0
C310 C 0.10036 0.49499 0.9083 0.0
C311 C 0.08217 0.5116 0.93539 0.0
C312 C 0.5556 0.92957 0.9613 0.0
C313 C 0.56447 0.90763 0.93437 0.0
C314 C 0.55544 0.95975 0.99154 0.0
C315 C 0.55338 0.98646 1.01558 0.0
C316 C 0.9326 0.14609 0.53583 0.0
C317 C 0.91366 0.16707 0.52535 0.0
C318 C 0.94692 0.116 0.54592 0.0
C319 C 0.95199 0.08822 0.5584 0.0
C320 C 0.20303 0.66266 0.1327 0.0
C321 C 0.22942 0.68316 0.15523 0.0
C322 C 0.17004 0.64338 0.10561 0.0
C323 C 0.13942 0.62732 0.0856 0.0
C324 C 0.36073 0.4942 0.63848 0.0
C325 C 0.32844 0.48143 0.65726 0.0
C326 C 0.39869 0.5061 0.61539 0.0
C327 C 0.43105 0.51326 0.59508 0.0
C328 C 0.77679 0.6811 0.89234 0.0
C329 C 0.74744 0.69419 0.88787 0.0
C330 C 0.8125 0.66812 0.89879 0.0
C331 C 0.84356 0.65959 0.90826 0.0
C332 C 0.43466 0.89725 0.18471 0.0
C333 C 0.42584 0.8679 0.20323 0.0
C334 C 0.44399 0.93225 0.16324 0.0
C335 C 0.45489 0.96322 0.14803 0.0
C336 C 0.09546 0.21766 0.68784 0.0
C337 C 0.10992 0.25002 0.70158 0.0
C338 C 0.07544 0.1795 0.67554 0.0
C339 C 0.05876 0.14708 0.66391 0.0
C340 C 0.72071 0.32629 0.52275 0.0
C341 C 0.75155 0.31764 0.50795 0.0
C342 C 0.68631 0.34272 0.52787 0.0
C343 C 0.66206 0.36196 0.52443 0.0
loop_
_geom_bond_atom_site_label_1
_geom_bond_atom_site_label_2
_geom_bond_distance
_geom_bond_site_symmetry_2
_ccdc_geom_bond_type
O0 Cd1 2.300 . S
O0 C7 1.275 . S
Cd1 O0 2.300 . S
Cd1 O9 2.381 . S
Cd1 O10 2.378 . S
O2 Cd3 2.385 . S
O2 C7 1.255 . S
Cd3 O2 2.385 . S
Cd3 O4 2.317 . S
O4 Cd3 2.317 . S
O4 C5 1.232 . S
C5 O4 1.232 . S
C5 O6 1.218 . S
O6 C5 1.218 . S
C7 O0 1.275 . S
C7 O2 1.255 . S
C8 O9 1.258 . S
C8 O10 1.256 . S
O9 Cd1 2.381 . S
O9 C8 1.258 . S
O10 Cd1 2.378 . S
O10 C8 1.256 . S
O11 Cd12 2.300 . S
O11 C18 1.275 . S
Cd12 O11 2.300 . S
Cd12 O20 2.381 . S
Cd12 O21 2.378 . S
O13 Cd14 2.385 . S
O13 C18 1.255 . S
Cd14 O13 2.385 . S
Cd14 O15 2.317 . S
O15 Cd14 2.317 . S
O15 C16 1.232 . S
C16 O15 1.232 . S
C16 O17 1.218 . S
O17 C16 1.218 . S
C18 O11 1.275 . S
C18 O13 1.255 . S
C19 O20 1.258 . S
C19 O21 1.256 . S
O20 Cd12 2.381 . S
O20 C19 1.258 . S
O21 Cd12 2.378 . S
O21 C19 1.256 . S
O22 Cd23 2.300 . S
O22 C29 1.275 . S
Cd23 O22 2.300 . S
Cd23 O31 2.381 . S
Cd23 O32 2.378 . S
O24 Cd25 2.385 . S
O24 C29 1.255 . S
Cd25 O24 2.385 . S
Cd25 O26 2.317 . S
O26 Cd25 2.317 . S
O26 C27 1.232 . S
C27 O26 1.232 . S
C27 O28 1.218 . S
O28 C27 1.218 . S
C29 O22 1.275 . S
C29 O24 1.255 . S
C30 O31 1.258 . S
C30 O32 1.256 . S
O31 Cd23 2.381 . S
O31 C30 1.258 . S
O32 Cd23 2.378 . S
O32 C30 1.256 . S
O33 Cd34 2.300 . S
O33 C40 1.275 . S
Cd34 O33 2.300 . S
Cd34 O42 2.381 . S
Cd34 O43 2.378 . S
O35 Cd36 2.385 . S
O35 C40 1.255 . S
Cd36 O35 2.385 . S
Cd36 O37 2.317 . S
O37 Cd36 2.317 . S
O37 C38 1.232 . S
C38 O37 1.232 . S
C38 O39 1.218 . S
O39 C38 1.218 . S
C40 O33 1.275 . S
C40 O35 1.255 . S
C41 O42 1.258 . S
C41 O43 1.256 . S
O42 Cd34 2.381 . S
O42 C41 1.258 . S
O43 Cd34 2.378 . S
O43 C41 1.256 . S
O44 Cd45 2.300 . S
O44 C51 1.275 . S
Cd45 O44 2.300 . S
Cd45 O53 2.381 . S
Cd45 O54 2.378 . S
O46 Cd47 2.385 . S
O46 C51 1.255 . S
Cd47 O46 2.385 . S
Cd47 O48 2.317 . S
O48 Cd47 2.317 . S
O48 C49 1.232 . S
C49 O48 1.232 . S
C49 O50 1.218 . S
O50 C49 1.218 . S
C51 O44 1.275 . S
C51 O46 1.255 . S
C52 O53 1.258 . S
C52 O54 1.256 . S
O53 Cd45 2.381 . S
O53 C52 1.258 . S
O54 Cd45 2.378 . S
O54 C52 1.256 . S
O55 Cd56 2.300 . S
O55 C62 1.275 . S
Cd56 O55 2.300 . S
Cd56 O64 2.381 . S
Cd56 O65 2.378 . S
O57 Cd58 2.385 . S
O57 C62 1.255 . S
Cd58 O57 2.385 . S
Cd58 O59 2.317 . S
O59 Cd58 2.317 . S
O59 C60 1.232 . S
C60 O59 1.232 . S
C60 O61 1.218 . S
O61 C60 1.218 . S
C62 O55 1.275 . S
C62 O57 1.255 . S
C63 O64 1.258 . S
C63 O65 1.256 . S
O64 Cd56 2.381 . S
O64 C63 1.258 . S
O65 Cd56 2.378 . S
O65 C63 1.256 . S
O66 Cd67 2.300 . S
O66 C73 1.275 . S
Cd67 O66 2.300 . S
Cd67 O75 2.381 . S
Cd67 O76 2.378 . S
O68 Cd69 2.385 . S
O68 C73 1.255 . S
Cd69 O68 2.385 . S
Cd69 O70 2.317 . S
O70 Cd69 2.317 . S
O70 C71 1.232 . S
C71 O70 1.232 . S
C71 O72 1.218 . S
O72 C71 1.218 . S
C73 O66 1.275 . S
C73 O68 1.255 . S
C74 O75 1.258 . S
C74 O76 1.256 . S
O75 Cd67 2.381 . S
O75 C74 1.258 . S
O76 Cd67 2.378 . S
O76 C74 1.256 . S
O77 Cd78 2.300 . S
O77 C84 1.275 . S
Cd78 O77 2.300 . S
Cd78 O86 2.381 . S
Cd78 O87 2.378 . S
O79 Cd80 2.385 . S
O79 C84 1.255 . S
Cd80 O79 2.385 . S
Cd80 O81 2.317 . S
O81 Cd80 2.317 . S
O81 C82 1.232 . S
C82 O81 1.232 . S
C82 O83 1.218 . S
O83 C82 1.218 . S
C84 O77 1.275 . S
C84 O79 1.255 . S
C85 O86 1.258 . S
C85 O87 1.256 . S
O86 Cd78 2.381 . S
O86 C85 1.258 . S
O87 Cd78 2.378 . S
O87 C85 1.256 . S
Gd88 C91 2.818 . S
Gd88 O108 2.377 . S
Gd88 O110 2.448 . S
Gd88 O111 2.506 . S
Gd88 O112 2.435 . S
Gd88 O113 2.717 1_545 S
Gd88 O115 2.389 1_445 S
Gd88 O119 2.327 1_455 S
Gd89 C100 2.818 1_545 S
Gd89 O109 2.395 1_655 S
Gd89 O113 2.327 1_645 S
Gd89 O114 2.377 1_545 S
Gd89 O116 2.448 1_545 S
Gd89 O117 2.506 1_545 S
Gd89 O118 2.435 . S
Gd89 O119 2.717 . S
C90 O108 1.240 . S
C90 O109 1.240 . S
C91 Gd88 2.818 . S
C91 C92 1.510 . S
C91 O110 1.249 . S
C91 O111 1.252 . S
C92 C91 1.510 . S
C92 C93 1.404 . S
C92 C94 1.352 . S
C93 C92 1.404 . S
C93 C97 1.389 . S
C93 H120 0.930 . S
C94 C92 1.352 . S
C94 C96 1.374 . S
C94 H121 0.931 . S
C95 C96 1.359 . S
C95 C97 1.364 . S
C96 C94 1.374 . S
C96 C95 1.359 . S
C96 H122 0.931 . S
C97 C93 1.389 . S
C97 C95 1.364 . S
C97 H123 0.931 . S
C98 O112 1.256 1_565 S
C98 O113 1.258 . S
C99 O114 1.240 . S
C99 O115 1.250 . S
C100 Gd89 2.818 1_565 S
C100 C101 1.510 . S
C100 O116 1.249 . S
C100 O117 1.252 . S
C101 C100 1.510 . S
C101 C102 1.404 . S
C101 C103 1.352 . S
C102 C101 1.404 . S
C102 C106 1.389 . S
C102 H124 0.930 . S
C103 C101 1.352 . S
C103 C105 1.374 . S
C103 H125 0.931 . S
C104 C105 1.359 . S
C104 C106 1.364 . S
C105 C103 1.374 . S
C105 C104 1.359 . S
C105 H126 0.931 . S
C106 C102 1.389 . S
C106 C104 1.364 . S
C106 H127 0.931 . S
C107 O118 1.256 . S
C107 O119 1.257 . S
O108 Gd88 2.377 . S
O108 C90 1.240 . S
O109 Gd89 2.395 1_455 S
O109 C90 1.240 . S
O110 Gd88 2.448 . S
O110 C91 1.249 . S
O111 Gd88 2.506 . S
O111 C91 1.252 . S
O112 Gd88 2.435 . S
O112 C98 1.256 1_545 S
O113 Gd88 2.717 1_565 S
O113 Gd89 2.327 1_465 S
O113 C98 1.258 . S
O114 Gd89 2.377 1_565 S
O114 C99 1.240 . S
O115 Gd88 2.389 1_665 S
O115 C99 1.250 . S
O116 Gd89 2.448 1_565 S
O116 C100 1.249 . S
O117 Gd89 2.506 1_565 S
O117 C100 1.252 . S
O118 Gd89 2.435 . S
O118 C107 1.256 . S
O119 Gd88 2.327 1_655 S
O119 Gd89 2.717 . S
O119 C107 1.257 . S
H120 C93 0.930 . S
H121 C94 0.931 . S
H122 C96 0.931 . S
H123 C97 0.931 . S
H124 C102 0.930 . S
H125 C103 0.931 . S
H126 C105 0.931 . S
H127 C106 0.931 . S
Gd128 C131 2.818 . S
Gd128 O148 2.377 . S
Gd128 O150 2.448 . S
Gd128 O151 2.506 . S
Gd128 O152 2.435 1_545 S
Gd128 O153 2.717 . S
Gd128 O155 2.395 . S
Gd128 O159 2.327 . S
Gd129 C140 2.818 1_544 S
Gd129 O149 2.395 . S
Gd129 O153 2.327 . S
Gd129 O154 2.377 1_554 S
Gd129 O156 2.448 1_554 S
Gd129 O157 2.506 1_544 S
Gd129 O158 2.435 . S
Gd129 O159 2.717 . S
C130 O148 1.240 . S
C130 O149 1.240 . S
C131 Gd128 2.818 . S
C131 C132 1.510 . S
C131 O150 1.249 . S
C131 O151 1.252 . S
C132 C131 1.510 . S
C132 C133 1.404 . S
C132 C134 1.352 . S
C133 C132 1.404 . S
C133 C137 1.389 . S
C133 H160 0.930 . S
C134 C132 1.352 . S
C134 C136 1.374 . S
C134 H161 0.931 . S
C135 C136 1.359 . S
C135 C137 1.364 . S
C136 C134 1.374 . S
C136 C135 1.359 . S
C136 H162 0.931 . S
C137 C133 1.389 . S
C137 C135 1.364 . S
C137 H163 0.931 . S
C138 O152 1.256 . S
C138 O153 1.257 1_565 S
C139 O154 1.240 1_564 S
C139 O155 1.240 1_565 S
C140 Gd129 2.818 1_566 S
C140 C141 1.510 . S
C140 O156 1.249 1_565 S
C140 O157 1.252 . S
C141 C140 1.510 . S
C141 C142 1.404 . S
C141 C143 1.352 . S
C142 C141 1.404 . S
C142 C146 1.389 . S
C142 H164 0.930 1_565 S
C143 C141 1.352 . S
C143 C145 1.374 . S
C143 H165 0.931 . S
C144 C145 1.359 . S
C144 C146 1.364 . S
C145 C143 1.374 . S
C145 C144 1.359 . S
C145 H166 0.931 . S
C146 C142 1.389 . S
C146 C144 1.364 . S
C146 H167 0.931 . S
C147 O158 1.256 . S
C147 O159 1.257 . S
O148 Gd128 2.377 . S
O148 C130 1.240 . S
O149 Gd129 2.395 . S
O149 C130 1.240 . S
O150 Gd128 2.448 . S
O150 C131 1.249 . S
O151 Gd128 2.506 . S
O151 C131 1.252 . S
O152 Gd128 2.435 1_565 S
O152 C138 1.256 . S
O153 Gd128 2.717 . S
O153 Gd129 2.327 . S
O153 C138 1.257 1_545 S
O154 Gd129 2.377 1_556 S
O154 C139 1.240 1_546 S
O155 Gd128 2.395 . S
O155 C139 1.240 1_545 S
O156 Gd129 2.448 1_556 S
O156 C140 1.249 1_545 S
O157 Gd129 2.506 1_566 S
O157 C140 1.252 . S
O158 Gd129 2.435 . S
O158 C147 1.256 . S
O159 Gd128 2.327 . S
O159 Gd129 2.717 . S
O159 C147 1.257 . S
H160 C133 0.930 . S
H161 C134 0.931 . S
H162 C136 0.931 . S
H163 C137 0.931 . S
H164 C142 0.930 1_545 S
H165 C143 0.931 . S
H166 C145 0.931 . S
H167 C146 0.931 . S
Gd168 C171 2.818 . S
Gd168 O188 2.377 . S
Gd168 O190 2.448 . S
Gd168 O191 2.506 . S
Gd168 O192 2.435 . S
Gd168 O193 2.717 . S
Gd168 O195 2.395 . S
Gd168 O199 2.327 . S
Gd169 C180 2.818 . S
Gd169 O189 2.395 . S
Gd169 O193 2.327 . S
Gd169 O194 2.377 . S
Gd169 O196 2.448 . S
Gd169 O197 2.506 . S
Gd169 O198 2.435 . S
Gd169 O199 2.717 . S
C170 O188 1.240 . S
C170 O189 1.240 . S
C171 Gd168 2.818 . S
C171 C172 1.510 . S
C171 O190 1.249 . S
C171 O191 1.252 . S
C172 C171 1.510 . S
C172 C173 1.404 . S
C172 C174 1.352 . S
C173 C172 1.404 . S
C173 C177 1.389 . S
C173 H200 0.930 . S
C174 C172 1.352 . S
C174 C176 1.374 . S
C174 H201 0.931 . S
C175 C176 1.359 . S
C175 C177 1.364 . S
C176 C174 1.374 . S
C176 C175 1.359 . S
C176 H202 0.931 . S
C177 C173 1.389 . S
C177 C175 1.364 . S
C177 H203 0.931 . S
C178 O192 1.256 . S
C178 O193 1.257 . S
C179 O194 1.240 . S
C179 O195 1.240 . S
C180 Gd169 2.818 . S
C180 C181 1.510 . S
C180 O196 1.249 . S
C180 O197 1.252 . S
C181 C180 1.510 . S
C181 C182 1.404 . S
C181 C183 1.352 . S
C182 C181 1.404 . S
C182 C186 1.389 . S
C182 H204 0.930 . S
C183 C181 1.352 . S
C183 C185 1.374 . S
C183 H205 0.931 . S
C184 C185 1.359 . S
C184 C186 1.364 . S
C185 C183 1.374 . S
C185 C184 1.359 . S
C185 H206 0.931 . S
C186 C182 1.389 . S
C186 C184 1.364 . S
C186 H207 0.931 . S
C187 O198 1.256 . S
C187 O199 1.257 . S
O188 Gd168 2.377 . S
O188 C170 1.240 . S
O189 Gd169 2.395 . S
O189 C170 1.240 . S
O190 Gd168 2.448 . S
O190 C171 1.249 . S
O191 Gd168 2.506 . S
O191 C171 1.252 . S
O192 Gd168 2.435 . S
O192 C178 1.256 . S
O193 Gd168 2.717 . S
O193 Gd169 2.327 . S
O193 C178 1.257 . S
O194 Gd169 2.377 . S
O194 C179 1.240 . S
O195 Gd168 2.395 . S
O195 C179 1.240 . S
O196 Gd169 2.448 . S
O196 C180 1.249 . S
O197 Gd169 2.506 . S
O197 C180 1.252 . S
O198 Gd169 2.435 . S
O198 C187 1.256 . S
O199 Gd168 2.327 . S
O199 Gd169 2.717 . S
O199 C187 1.257 . S
H200 C173 0.930 . S
H201 C174 0.931 . S
H202 C176 0.931 . S
H203 C177 0.931 . S
H204 C182 0.930 . S
H205 C183 0.931 . S
H206 C185 0.931 . S
H207 C186 0.931 . S
Gd208 C211 2.818 . S
Gd208 O228 2.377 . S
Gd208 O230 2.448 . S
Gd208 O231 2.506 . S
Gd208 O232 2.427 1_455 S
Gd208 O233 2.717 . S
Gd208 O235 2.395 1_455 S
Gd208 O239 2.327 1_554 S
Gd209 C220 2.818 1_455 S
Gd209 O229 2.395 1_556 S
Gd209 O233 2.327 1_556 S
Gd209 O234 2.377 1_455 S
Gd209 O236 2.448 1_455 S
Gd209 O237 2.506 1_455 S
Gd209 O238 2.435 . S
Gd209 O239 2.717 . S
C210 O228 1.240 . S
C210 O229 1.240 . S
C211 Gd208 2.818 . S
C211 C212 1.510 . S
C211 O230 1.249 . S
C211 O231 1.252 . S
C212 C211 1.510 . S
C212 C213 1.404 . S
C212 C214 1.352 . S
C213 C212 1.404 . S
C213 C217 1.389 . S
C213 H240 0.930 . S
C214 C212 1.352 . S
C214 C216 1.374 . S
C214 H241 0.931 . S
C215 C216 1.359 . S
C215 C217 1.364 . S
C216 C214 1.374 . S
C216 C215 1.359 . S
C216 H242 0.931 . S
C217 C213 1.389 . S
C217 C215 1.364 . S
C217 H243 0.931 . S
C218 O232 1.263 . S
C218 O233 1.257 1_655 S
C219 O234 1.240 . S
C219 O235 1.240 1_556 S
C220 Gd209 2.818 1_655 S
C220 C221 1.510 . S
C220 O236 1.249 . S
C220 O237 1.252 . S
C221 C220 1.510 . S
C221 C222 1.404 . S
C221 C223 1.352 . S
C222 C221 1.404 . S
C222 C226 1.389 . S
C222 H244 0.930 . S
C223 C221 1.352 . S
C223 C225 1.374 . S
C223 H245 0.931 . S
C224 C225 1.359 . S
C224 C226 1.364 . S
C225 C223 1.374 . S
C225 C224 1.359 . S
C225 H246 0.931 . S
C226 C222 1.389 . S
C226 C224 1.364 . S
C226 H247 0.931 . S
C227 O238 1.256 . S
C227 O239 1.257 . S
O228 Gd208 2.377 . S
O228 C210 1.240 . S
O229 Gd209 2.395 1_554 S
O229 C210 1.240 . S
O230 Gd208 2.448 . S
O230 C211 1.249 . S
O231 Gd208 2.506 . S
O231 C211 1.252 . S
O232 Gd208 2.427 1_655 S
O232 C218 1.263 . S
O233 Gd208 2.717 . S
O233 Gd209 2.327 1_554 S
O233 C218 1.257 1_455 S
O234 Gd209 2.377 1_655 S
O234 C219 1.240 . S
O235 Gd208 2.395 1_655 S
O235 C219 1.240 1_554 S
O236 Gd209 2.448 1_655 S
O236 C220 1.249 . S
O237 Gd209 2.506 1_655 S
O237 C220 1.252 . S
O238 Gd209 2.435 . S
O238 C227 1.256 . S
O239 Gd208 2.327 1_556 S
O239 Gd209 2.717 . S
O239 C227 1.257 . S
H240 C213 0.930 . S
H241 C214 0.931 . S
H242 C216 0.931 . S
H243 C217 0.931 . S
H244 C222 0.930 . S
H245 C223 0.931 . S
H246 C225 0.931 . S
H247 C226 0.931 . S
C248 C249 1.170 . S
C248 C250 1.380 . S
C249 C248 1.170 . S
C250 C248 1.380 . S
C250 C251 1.170 . S
C251 C250 1.170 . S
C252 C253 1.170 . S
C252 C254 1.380 . S
C253 C252 1.170 . S
C254 C252 1.380 . S
C254 C255 1.170 . S
C255 C254 1.170 . S
C256 C257 1.170 . S
C256 C258 1.380 . S
C257 C256 1.170 . S
C258 C256 1.380 . S
C258 C259 1.170 . S
C259 C258 1.170 . S
C260 C261 1.170 . S
C260 C262 1.380 . S
C261 C260 1.170 . S
C262 C260 1.380 . S
C262 C263 1.170 . S
C263 C262 1.170 . S
C264 C265 1.170 . S
C264 C266 1.380 . S
C265 C264 1.170 . S
C266 C264 1.380 . S
C266 C267 1.170 . S
C267 C266 1.170 . S
C268 C269 1.170 . S
C268 C270 1.380 . S
C269 C268 1.170 . S
C270 C268 1.380 . S
C270 C271 1.170 . S
C271 C270 1.170 . S
C272 C273 1.170 . S
C272 C274 1.380 . S
C273 C272 1.170 . S
C274 C272 1.380 . S
C274 C275 1.170 . S
C275 C274 1.170 . S
C276 C277 1.170 . S
C276 C278 1.380 . S
C277 C276 1.170 . S
C278 C276 1.380 . S
C278 C279 1.170 . S
C279 C278 1.170 . S
C280 C281 1.170 . S
C280 C282 1.380 . S
C281 C280 1.170 . S
C282 C280 1.380 . S
C282 C283 1.170 . S
C283 C282 1.170 . S
C284 C285 1.170 . S
C284 C286 1.380 . S
C285 C284 1.170 . S
C286 C284 1.380 . S
C286 C287 1.170 . S
C287 C286 1.170 . S
C288 C289 1.170 . S
C288 C290 1.380 . S
C289 C288 1.170 . S
C290 C288 1.380 . S
C290 C291 1.170 . S
C291 C290 1.170 . S
C292 C293 1.170 . S
C292 C294 1.380 . S
C293 C292 1.170 . S
C294 C292 1.380 . S
C294 C295 1.170 . S
C295 C294 1.170 . S
C296 C297 1.170 . S
C296 C298 1.380 . S
C297 C296 1.170 . S
C298 C296 1.380 . S
C298 C299 1.170 . S
C299 C298 1.170 . S
C300 C301 1.170 . S
C300 C302 1.380 . S
C301 C300 1.170 . S
C302 C300 1.380 . S
C302 C303 1.170 . S
C303 C302 1.170 . S
C304 C305 1.170 . S
C304 C306 1.380 . S
C305 C304 1.170 . S
C306 C304 1.380 . S
C306 C307 1.170 . S
C307 C306 1.170 . S
C308 C309 1.170 . S
C308 C310 1.380 . S
C309 C308 1.170 . S
C310 C308 1.380 . S
C310 C311 1.170 . S
C311 C310 1.170 . S
C312 C313 1.170 . S
C312 C314 1.380 . S
C313 C312 1.170 . S
C314 C312 1.380 . S
C314 C315 1.170 . S
C315 C314 1.170 . S
C316 C317 1.170 . S
C316 C318 1.380 . S
C317 C316 1.170 . S
C318 C316 1.380 . S
C318 C319 1.170 . S
C319 C318 1.170 . S
C320 C321 1.170 . S
C320 C322 1.380 . S
C321 C320 1.170 . S
C322 C320 1.380 . S
C322 C323 1.170 . S
C323 C322 1.170 . S
C324 C325 1.170 . S
C324 C326 1.380 . S
C325 C324 1.170 . S
C326 C324 1.380 . S
C326 C327 1.170 . S
C327 C326 1.170 . S
C328 C329 1.170 . S
C328 C330 1.380 . S
C329 C328 1.170 . S
C330 C328 1.380 . S
C330 C331 1.170 . S
C331 C330 1.170 . S
C332 C333 1.170 . S
C332 C334 1.380 . S
C333 C332 1.170 . S
C334 C332 1.380 . S
C334 C335 1.170 . S
C335 C334 1.170 . S
C336 C337 1.170 . S
C336 C338 1.380 . S
C337 C336 1.170 . S
C338 C336 1.380 . S
C338 C339 1.170 . S
C339 C338 1.170 . S
C340 C341 1.170 . S
C340 C342 1.380 . S
C341 C340 1.170 . S
C342 C340 1.380 . S
C342 C343 1.170 . S
C343 C342 1.170 . S
C249 C5 0.961 . S
C251 C95 1.243 . S
C253 C18 1.009 . S
C255 C144 1.171 . S
C259 C170 2.359 . S
C257 C30 2.372 . S
C261 C41 2.167 . S
C263 C218 2.130 . S
C267 C130 2.298 . S
C265 C7 2.073 . S
C271 C98 0.905 . S
C269 C16 0.914 . S
C275 C219 1.991 . S
C273 C29 1.959 . S
C279 C187 1.331 . S
C277 C38 1.241 . S
C281 C8 1.471 . S
C283 C215 1.614 . S
C287 C147 2.530 1_556 S
C285 C27 2.358 . S
C289 C40 2.446 . S
C291 C99 2.458 . S
C293 C19 1.055 . S
C295 C184 0.984 . S
C299 C104 1.237 . S
C297 C51 1.022 . S
C301 C62 1.480 . S
C303 C135 1.423 . S
C305 C74 2.473 . S
C307 C179 2.440 . S
C309 C84 2.242 . S
C311 C227 2.315 . S
C313 C49 1.842 . S
C315 C139 2.497 1_556 S
C319 C107 1.018 . S
C317 C63 1.011 . S
C323 C210 1.843 . S
C321 C71 1.721 . S
C327 C178 1.486 . S
C325 C85 1.479 . S
C329 C52 1.551 . S
C331 C224 1.659 . S
C335 C138 2.612 . S
C333 C73 2.691 . S
C339 C90 2.040 . S
C337 C82 1.771 . S
C341 C60 0.961 . S
C343 C175 1.025 . S
