# Generated by pormake.
# Topology zzz, (3,6)-cn, num edge types: 1
# Building blocks:
#     Node 0, Type 0, BuildingBlock: OLANEW_clean_sbu_2, # of connection points: 3
#     Node 1, Type 0, BuildingBlock: OLANEW_clean_sbu_2, # of connection points: 3
#     Node 2, Type 0, BuildingBlock: OLANEW_clean_sbu_2, # of connection points: 3
#     Node 3, Type 0, BuildingBlock: OLANEW_clean_sbu_2, # of connection points: 3
#     Node 4, Type 0, BuildingBlock: OLANEW_clean_sbu_2, # of connection points: 3
#     Node 5, Type 0, BuildingBlock: OLANEW_clean_sbu_2, # of connection points: 3
#     Node 6, Type 0, BuildingBlock: OLANEW_clean_sbu_2, # of connection points: 3
#     Node 7, Type 0, BuildingBlock: OLANEW_clean_sbu_2, # of connection points: 3
#     Node 8, Type 1, BuildingBlock: KUMJIN_clean_sbu_1, # of connection points: 6
#     Node 9, Type 1, BuildingBlock: KUMJIN_clean_sbu_1, # of connection points: 6
#     Node 10, Type 1, BuildingBlock: KUMJIN_clean_sbu_1, # of connection points: 6
#     Node 11, Type 1, BuildingBlock: KUMJIN_clean_sbu_1, # of connection points: 6
#     Edge 12, Type (0, 1), BuildingBlock: MIFKUJ_clean_linker_0, # of connection points: 2
#     Edge 13, Type (0, 1), BuildingBlock: MIFKUJ_clean_linker_0, # of connection points: 2
#     Edge 14, Type (0, 1), BuildingBlock: MIFKUJ_clean_linker_0, # of connection points: 2
#     Edge 15, Type (0, 1), BuildingBlock: MIFKUJ_clean_linker_0, # of connection points: 2
#     Edge 16, Type (0, 1), BuildingBlock: MIFKUJ_clean_linker_0, # of connection points: 2
#     Edge 17, Type (0, 1), BuildingBlock: MIFKUJ_clean_linker_0, # of connection points: 2
#     Edge 18, Type (0, 1), BuildingBlock: MIFKUJ_clean_linker_0, # of connection points: 2
#     Edge 19, Type (0, 1), BuildingBlock: MIFKUJ_clean_linker_0, # of connection points: 2
#     Edge 20, Type (0, 1), BuildingBlock: MIFKUJ_clean_linker_0, # of connection points: 2
#     Edge 21, Type (0, 1), BuildingBlock: MIFKUJ_clean_linker_0, # of connection points: 2
#     Edge 22, Type (0, 1), BuildingBlock: MIFKUJ_clean_linker_0, # of connection points: 2
#     Edge 23, Type (0, 1), BuildingBlock: MIFKUJ_clean_linker_0, # of connection points: 2
#     Edge 24, Type (0, 1), BuildingBlock: MIFKUJ_clean_linker_0, # of connection points: 2
#     Edge 25, Type (0, 1), BuildingBlock: MIFKUJ_clean_linker_0, # of connection points: 2
#     Edge 26, Type (0, 1), BuildingBlock: MIFKUJ_clean_linker_0, # of connection points: 2
#     Edge 27, Type (0, 1), BuildingBlock: MIFKUJ_clean_linker_0, # of connection points: 2
#     Edge 28, Type (0, 1), BuildingBlock: MIFKUJ_clean_linker_0, # of connection points: 2
#     Edge 29, Type (0, 1), BuildingBlock: MIFKUJ_clean_linker_0, # of connection points: 2
#     Edge 30, Type (0, 1), BuildingBlock: MIFKUJ_clean_linker_0, # of connection points: 2
#     Edge 31, Type (0, 1), BuildingBlock: MIFKUJ_clean_linker_0, # of connection points: 2
#     Edge 32, Type (0, 1), BuildingBlock: MIFKUJ_clean_linker_0, # of connection points: 2
#     Edge 33, Type (0, 1), BuildingBlock: MIFKUJ_clean_linker_0, # of connection points: 2
#     Edge 34, Type (0, 1), BuildingBlock: MIFKUJ_clean_linker_0, # of connection points: 2
#     Edge 35, Type (0, 1), BuildingBlock: MIFKUJ_clean_linker_0, # of connection points: 2
# Relax obj value: 0.129
# Max RMSD: 0.092
# Mean RMSD: 0.082
data_MOF--net-zzz--node1-OLANEW_clean_sbu_2--node2-KUMJIN_clean_sbu_1--edge1-MIFKUJ_clean_linker_0
_symmetry_space_group_name_H-M    P1
_symmetry_Int_Tables_number       1
_symmetry_cell_setting            triclinic
loop_
_symmetry_equiv_pos_as_xyz
'x, y, z'
_cell_length_a     68.607018
_cell_length_b     68.73447
_cell_length_c     22.752331
_cell_angle_alpha  90.287318
_cell_angle_beta   89.733274
_cell_angle_gamma 90.324086
loop_
_atom_site_label
_atom_site_type_symbol
_atom_site_fract_x
_atom_site_fract_y
_atom_site_fract_z
_atom_type_partial_charge
O0 O 0.73962 0.56061 0.12028 0.0
Cd1 Cd 0.71152 0.55896 0.18505 0.0
O2 O 0.74402 0.53475 0.17269 0.0
Cd3 Cd 0.7574 0.51026 0.21582 0.0
O4 O 0.78094 0.51953 0.27193 0.0
C5 C 0.78105 0.52514 0.32514 0.0
O6 O 0.76538 0.52307 0.35803 0.0
C7 C 0.75004 0.546 0.13211 0.0
C8 C 0.6812 0.54692 0.11474 0.0
O9 O 0.68278 0.56474 0.13084 0.0
O10 O 0.69354 0.53456 0.1337 0.0
O11 O 0.95322 0.74565 0.12021 0.0
Cd12 Cd 0.95515 0.71701 0.18207 0.0
O13 O 0.98012 0.74935 0.16835 0.0
Cd14 Cd 0.00465 0.76214 0.21378 0.0
O15 O 0.99172 0.78547 0.26374 0.0
C16 C 0.9904 0.78587 0.31934 0.0
O17 O 0.99884 0.77222 0.35025 0.0
C18 C 0.96819 0.75597 0.13074 0.0
C19 C 0.96687 0.68661 0.111 0.0
O20 O 0.94911 0.68799 0.12811 0.0
O21 O 0.97927 0.69928 0.12891 0.0
O22 O 0.76857 0.96169 0.12719 0.0
Cd23 Cd 0.79669 0.96397 0.19055 0.0
O24 O 0.756 0.98253 0.1892 0.0
Cd25 Cd 0.7321 0.99983 0.22336 0.0
O26 O 0.74334 0.98886 0.31142 0.0
C27 C 0.73509 0.98055 0.35547 0.0
O28 O 0.74386 0.98894 0.31153 0.0
C29 C 0.75452 0.97237 0.14292 0.0
C30 C 0.82745 0.97187 0.11551 0.0
O31 O 0.82296 0.95437 0.12963 0.0
O32 O 0.81781 0.98582 0.13912 0.0
O33 O 0.55686 0.77394 0.121 0.0
Cd34 Cd 0.55763 0.80337 0.18061 0.0
O35 O 0.53101 0.76961 0.17488 0.0
Cd36 Cd 0.50631 0.7549 0.21323 0.0
O37 O 0.51596 0.73125 0.26672 0.0
C38 C 0.5221 0.7319 0.31929 0.0
O39 O 0.52043 0.74799 0.35035 0.0
C40 C 0.54239 0.76342 0.13481 0.0
C41 C 0.54648 0.83314 0.10726 0.0
O42 O 0.56403 0.82695 0.10865 0.0
O43 O 0.53391 0.82575 0.14269 0.0
O44 O 0.27082 0.48188 0.08329 0.0
Cd45 Cd 0.29843 0.47619 0.01979 0.0
O46 O 0.26194 0.45503 0.03998 0.0
Cd47 Cd 0.2411 0.4348 0.00409 0.0
O48 O 0.22225 0.45255 0.95118 0.0
C49 C 0.22287 0.45535 0.89604 0.0
O50 O 0.23512 0.4454 0.86322 0.0
C51 C 0.25822 0.46864 0.07623 0.0
C52 C 0.32896 0.47649 0.09589 0.0
O53 O 0.32349 0.49214 0.07071 0.0
O54 O 0.32059 0.46033 0.08295 0.0
O55 O 0.04334 0.27341 0.07738 0.0
Cd56 Cd 0.04864 0.30206 0.01791 0.0
O57 O 0.06158 0.25221 0.02907 0.0
Cd58 Cd 0.0688 0.2682 0.95033 0.0
O59 O 0.06414 0.24329 0.89155 0.0
C60 C 0.04731 0.23541 0.89285 0.0
O61 O 0.03354 0.24338 0.92507 0.0
C62 C 0.05057 0.25657 0.07203 0.0
C63 C 0.04231 0.33251 0.09599 0.0
O64 O 0.02806 0.32415 0.06966 0.0
O65 O 0.05968 0.3271 0.08331 0.0
O66 O 0.23955 0.04472 0.09387 0.0
Cd67 Cd 0.21284 0.05329 0.02959 0.0
O68 O 0.25443 0.06727 0.0453 0.0
Cd69 Cd 0.27548 0.08527 0.00106 0.0
O70 O 0.28902 0.07662 0.91975 0.0
C71 C 0.28932 0.05841 0.90972 0.0
O72 O 0.28137 0.04654 0.9482 0.0
C73 C 0.25514 0.05407 0.08412 0.0
C74 C 0.18062 0.04781 0.09922 0.0
O75 O 0.18835 0.03359 0.07116 0.0
O76 O 0.18742 0.06501 0.09128 0.0
O77 O 0.47532 0.24279 0.08964 0.0
Cd78 Cd 0.46761 0.21599 0.02451 0.0
O79 O 0.44964 0.25189 0.04245 0.0
Cd80 Cd 0.4307 0.27201 0.00036 0.0
O81 O 0.43825 0.28972 0.926 0.0
C82 C 0.45576 0.2903 0.90735 0.0
O83 O 0.46886 0.279 0.9314 0.0
C84 C 0.46281 0.25571 0.07976 0.0
C85 C 0.46999 0.18446 0.09623 0.0
O86 O 0.48501 0.19125 0.06949 0.0
O87 O 0.45327 0.19193 0.08603 0.0
Eu88 Eu 0.98867 0.02254 0.5509 0.0
C89 C 0.05433 0.01558 0.74929 0.0
N90 N 0.053 0.00827 0.69372 0.0
C91 C 0.08768 0.01 0.68211 0.0
C92 C 0.07269 0.0203 0.77341 0.0
C93 C 0.06925 0.00534 0.66013 0.0
C94 C 0.08943 0.01746 0.73902 0.0
C95 C 0.03866 0.02474 0.8415 0.0
C96 C 0.03737 0.01779 0.78316 0.0
C97 C 0.05695 0.02942 0.8653 0.0
C98 C 0.07388 0.0272 0.83144 0.0
Eu99 Eu 0.02214 0.9958 0.67004 0.0
N100 N 0.01978 0.01255 0.76003 0.0
C101 C 0.02157 0.02625 0.87499 0.0
C102 C 0.00316 0.01367 0.79289 0.0
C103 C 0.00376 0.02072 0.85054 0.0
H104 H 0.06819 0.99848 0.61759 0.0
H105 H 0.99054 0.02143 0.87658 0.0
H106 H 0.94207 0.02121 0.60093 0.0
H107 H 0.01824 0.00161 0.33692 0.0
H108 H 0.98955 0.00841 0.77608 0.0
H109 H 0.022 0.03138 0.92007 0.0
H110 H 0.01927 0.0141 0.43805 0.0
H111 H 0.10057 0.0074 0.65566 0.0
H112 H 0.05818 0.03459 0.9102 0.0
H113 H 0.08788 0.03071 0.85076 0.0
H114 H 0.90955 0.01242 0.56367 0.0
H115 H 0.10378 0.02074 0.75625 0.0
H116 H 0.98692 0.99053 0.2947 0.0
N117 N 0.95702 0.01198 0.52356 0.0
C118 C 0.95527 0.00504 0.46759 0.0
C119 C 0.92231 0.01007 0.53646 0.0
C120 C 0.93683 0.0002 0.44416 0.0
C121 C 0.94086 0.01471 0.55786 0.0
C122 C 0.92029 0.00275 0.47946 0.0
N123 N 0.98943 0.00863 0.45568 0.0
C124 C 0.0058 0.0085 0.42149 0.0
C125 C 0.97046 0.99661 0.37413 0.0
C126 C 0.97189 0.00337 0.4327 0.0
C127 C 0.98742 0.99559 0.33985 0.0
C128 C 0.00514 0.00171 0.36358 0.0
H129 H 0.90587 0.99936 0.46289 0.0
H130 H 0.92136 0.98963 0.36738 0.0
H131 H 0.9508 0.98637 0.30628 0.0
O132 O 0.99923 0.04818 0.50414 0.0
O133 O 0.99177 0.99005 0.53167 0.0
O134 O 0.00878 0.97465 0.60644 0.0
O135 O 0.96825 0.04543 0.52815 0.0
O136 O 0.02152 0.02611 0.54771 0.0
O137 O 0.03485 0.99725 0.57766 0.0
O138 O 0.02015 0.97595 0.74409 0.0
O139 O 0.02436 0.029 0.66464 0.0
O140 O 0.9931 0.03674 0.64053 0.0
O141 O 0.04356 0.97279 0.68052 0.0
O142 O 0.98933 0.99066 0.67704 0.0
O143 O 0.97495 0.0183 0.64034 0.0
C144 C 0.99869 0.97445 0.5576 0.0
C145 C 0.97782 0.07452 0.47617 0.0
C146 C 0.98887 0.10221 0.42023 0.0
C147 C 0.97061 0.11098 0.42755 0.0
C148 C 0.95946 0.08324 0.48306 0.0
C149 C 0.95591 0.10145 0.45873 0.0
C150 C 0.99249 0.084 0.44419 0.0
C151 C 0.03505 0.01272 0.54381 0.0
C152 C 0.98184 0.05575 0.50304 0.0
C153 C 0.9354 0.99337 0.38602 0.0
C154 C 0.95217 0.99152 0.35119 0.0
C155 C 0.01019 0.04179 0.6618 0.0
C156 C 0.03368 0.94441 0.73196 0.0
C157 C 0.01901 0.91544 0.77485 0.0
C158 C 0.03435 0.90424 0.75218 0.0
C159 C 0.04909 0.93298 0.71041 0.0
C160 C 0.01851 0.93549 0.7642 0.0
C161 C 0.0493 0.91299 0.72012 0.0
C162 C 0.97437 0.00245 0.67224 0.0
C163 C 0.03513 0.96573 0.7273 0.0
H164 H 0.96775 0.12516 0.40891 0.0
H165 H 0.94792 0.0761 0.50759 0.0
H166 H 0.94181 0.10822 0.46423 0.0
H167 H 0.0067 0.07741 0.43829 0.0
H168 H 0.03518 0.88882 0.76167 0.0
H169 H 0.06126 0.93957 0.68727 0.0
H170 H 0.00702 0.94415 0.78387 0.0
H171 H 0.06137 0.90434 0.7042 0.0
Eu172 Eu 0.51796 0.02516 0.66634 0.0
C173 C 0.49549 0.94615 0.52276 0.0
N174 N 0.5055 0.96256 0.50756 0.0
C175 C 0.52584 0.94414 0.44223 0.0
C176 C 0.50035 0.92799 0.49755 0.0
C177 C 0.52042 0.96186 0.46774 0.0
C178 C 0.51576 0.92715 0.45708 0.0
C179 C 0.46868 0.93081 0.57595 0.0
C180 C 0.4798 0.94754 0.56194 0.0
C181 C 0.47368 0.91275 0.55126 0.0
C182 C 0.48944 0.91134 0.51223 0.0
Eu183 Eu 0.49167 0.99169 0.54208 0.0
N184 N 0.47485 0.96528 0.5842 0.0
C185 C 0.45242 0.93283 0.61281 0.0
C186 C 0.45858 0.96741 0.61809 0.0
C187 C 0.44728 0.95124 0.63361 0.0
H188 H 0.52764 0.97502 0.45363 0.0
H189 H 0.43432 0.95305 0.66038 0.0
H190 H 0.48354 0.04308 0.75959 0.0
H191 H 0.57656 0.06309 0.55048 0.0
H192 H 0.45373 0.98162 0.63054 0.0
H193 H 0.44345 0.92036 0.62422 0.0
H194 H 0.55702 0.03482 0.5817 0.0
H195 H 0.53755 0.94366 0.41021 0.0
H196 H 0.46525 0.8998 0.56141 0.0
H197 H 0.49293 0.89732 0.49302 0.0
H198 H 0.47429 0.0746 0.80254 0.0
H199 H 0.51983 0.9135 0.43651 0.0
H200 H 0.56813 0.09601 0.58615 0.0
N201 N 0.50576 0.05497 0.70442 0.0
C202 C 0.51607 0.07123 0.68949 0.0
C203 C 0.48589 0.07389 0.77021 0.0
C204 C 0.51141 0.08956 0.71405 0.0
C205 C 0.49098 0.05605 0.74481 0.0
C206 C 0.49607 0.09073 0.75458 0.0
N207 N 0.53642 0.05161 0.62947 0.0
C208 C 0.55263 0.04912 0.59537 0.0
C209 C 0.54308 0.08604 0.63616 0.0
C210 C 0.53184 0.06951 0.65122 0.0
C211 C 0.55916 0.08367 0.59878 0.0
C212 C 0.56398 0.06512 0.57853 0.0
H213 H 0.49218 0.10449 0.77476 0.0
H214 H 0.51905 0.1202 0.71704 0.0
H215 H 0.54669 0.11713 0.64861 0.0
O216 O 0.54584 0.01668 0.70368 0.0
O217 O 0.5113 0.04229 0.5838 0.0
O218 O 0.49273 0.02329 0.51985 0.0
O219 O 0.52388 0.03138 0.75845 0.0
O220 O 0.53601 0.00399 0.61148 0.0
O221 O 0.52212 0.00314 0.51948 0.0
O222 O 0.46278 0.98844 0.50532 0.0
O223 O 0.50766 0.97593 0.61589 0.0
O224 O 0.50207 0.99731 0.69085 0.0
O225 O 0.48798 0.98802 0.44664 0.0
O226 O 0.47169 0.01118 0.59626 0.0
O227 O 0.48639 0.01793 0.68588 0.0
C228 C 0.50067 0.0398 0.53643 0.0
C229 C 0.55428 0.02365 0.80491 0.0
C230 C 0.5858 0.01649 0.84477 0.0
C231 C 0.57981 0.02357 0.89987 0.0
C232 C 0.54816 0.03063 0.86018 0.0
C233 C 0.56099 0.03061 0.90751 0.0
C234 C 0.57319 0.01663 0.79732 0.0
C235 C 0.53752 0.00247 0.55395 0.0
C236 C 0.54127 0.02415 0.75472 0.0
C237 C 0.52245 0.10605 0.69859 0.0
C238 C 0.5382 0.1043 0.65966 0.0
C239 C 0.50725 0.97998 0.67244 0.0
C240 C 0.45618 0.99187 0.403 0.0
C241 C 0.42505 0.00338 0.36606 0.0
C242 C 0.43005 0.99648 0.30984 0.0
C243 C 0.46097 0.9853 0.34627 0.0
C244 C 0.43804 0.00097 0.41292 0.0
C245 C 0.44794 0.98755 0.30006 0.0
C246 C 0.47125 0.01763 0.65077 0.0
C247 C 0.46906 0.98633 0.4516 0.0
H248 H 0.58959 0.0232 0.93714 0.0
H249 H 0.53355 0.03613 0.86678 0.0
H250 H 0.55631 0.03589 0.95014 0.0
H251 H 0.57802 0.01097 0.75514 0.0
H252 H 0.42011 0.99819 0.27334 0.0
H253 H 0.47462 0.97789 0.33801 0.0
H254 H 0.43398 0.00601 0.45648 0.0
H255 H 0.45168 0.98225 0.2566 0.0
Eu256 Eu 0.52272 0.49644 0.54598 0.0
C257 C 0.45367 0.50566 0.74974 0.0
N258 N 0.45548 0.51406 0.69605 0.0
C259 C 0.42066 0.51508 0.68686 0.0
C260 C 0.43511 0.50172 0.77426 0.0
C261 C 0.43933 0.51941 0.66557 0.0
C262 C 0.41853 0.5061 0.74139 0.0
C263 C 0.46894 0.49427 0.83903 0.0
C264 C 0.4704 0.50164 0.78127 0.0
C265 C 0.45051 0.4906 0.86383 0.0
C266 C 0.43364 0.49409 0.83126 0.0
Eu267 Eu 0.48752 0.52231 0.66517 0.0
N268 N 0.48807 0.50526 0.75599 0.0
C269 C 0.48607 0.49102 0.8705 0.0
C270 C 0.50476 0.50146 0.786 0.0
C271 C 0.50405 0.49452 0.84368 0.0
H272 H 0.44089 0.52806 0.62646 0.0
H273 H 0.51741 0.49187 0.86742 0.0
H274 H 0.56935 0.49083 0.58561 0.0
H275 H 0.49268 0.52644 0.3443 0.0
H276 H 0.51867 0.50381 0.76595 0.0
H277 H 0.48556 0.48566 0.91521 0.0
H278 H 0.49154 0.51606 0.44751 0.0
H279 H 0.40793 0.51927 0.66214 0.0
H280 H 0.44914 0.48501 0.90814 0.0
H281 H 0.41951 0.49116 0.85094 0.0
H282 H 0.6023 0.49972 0.55017 0.0
H283 H 0.40404 0.50318 0.75849 0.0
H284 H 0.52454 0.53225 0.29605 0.0
N285 N 0.55474 0.50512 0.51674 0.0
C286 C 0.55649 0.51338 0.46279 0.0
C287 C 0.58955 0.504 0.52564 0.0
C288 C 0.57504 0.51718 0.43804 0.0
C289 C 0.5709 0.49975 0.54715 0.0
C290 C 0.59164 0.51286 0.47093 0.0
N291 N 0.52204 0.51398 0.45657 0.0
C292 C 0.50536 0.51754 0.42638 0.0
C293 C 0.54117 0.52429 0.37289 0.0
C294 C 0.53973 0.5173 0.43105 0.0
C295 C 0.52404 0.5272 0.34109 0.0
C296 C 0.50604 0.52386 0.36805 0.0
H297 H 0.60612 0.51566 0.45359 0.0
H298 H 0.59059 0.52738 0.36088 0.0
H299 H 0.56096 0.53318 0.30338 0.0
O300 O 0.5134 0.47369 0.48423 0.0
O301 O 0.52383 0.52959 0.54527 0.0
O302 O 0.49358 0.5387 0.58013 0.0
O303 O 0.54235 0.47304 0.52161 0.0
O304 O 0.48987 0.49145 0.53861 0.0
O305 O 0.47327 0.51801 0.57644 0.0
O306 O 0.49648 0.54533 0.72578 0.0
O307 O 0.48609 0.48923 0.662 0.0
O308 O 0.51712 0.48082 0.63271 0.0
O309 O 0.46838 0.54715 0.68023 0.0
O310 O 0.52041 0.52669 0.67447 0.0
O311 O 0.53746 0.50067 0.6346 0.0
C312 C 0.51052 0.54287 0.55575 0.0
C313 C 0.53086 0.44356 0.47842 0.0
C314 C 0.51907 0.41443 0.42883 0.0
C315 C 0.53572 0.4044 0.44698 0.0
C316 C 0.54755 0.43332 0.49601 0.0
C317 C 0.54987 0.41382 0.48052 0.0
C318 C 0.51658 0.43396 0.44472 0.0
C319 C 0.4745 0.50285 0.541 0.0
C320 C 0.53015 0.46482 0.48566 0.0
C321 C 0.57648 0.52455 0.38072 0.0
C322 C 0.5596 0.52785 0.34797 0.0
C323 C 0.50008 0.47632 0.65612 0.0
C324 C 0.47667 0.57373 0.74598 0.0
C325 C 0.48862 0.60279 0.79483 0.0
C326 C 0.47013 0.61123 0.78941 0.0
C327 C 0.45816 0.58221 0.74149 0.0
C328 C 0.49184 0.58394 0.77385 0.0
C329 C 0.45493 0.60089 0.76332 0.0
C330 C 0.53602 0.51561 0.67112 0.0
C331 C 0.48057 0.55515 0.71677 0.0
H332 H 0.53799 0.38941 0.43372 0.0
H333 H 0.55913 0.4405 0.52012 0.0
H334 H 0.56288 0.40612 0.49335 0.0
H335 H 0.50407 0.44183 0.42842 0.0
H336 H 0.46745 0.62581 0.80583 0.0
H337 H 0.44628 0.57455 0.72012 0.0
H338 H 0.50624 0.57762 0.77734 0.0
H339 H 0.44069 0.60744 0.75938 0.0
Eu340 Eu 0.01851 0.52662 0.54396 0.0
C341 C 0.00837 0.45863 0.7457 0.0
N342 N 0.0015 0.46055 0.68997 0.0
C343 C 0.00231 0.4259 0.67685 0.0
C344 C 0.01235 0.4401 0.76924 0.0
C345 C 0.99833 0.44452 0.65562 0.0
C346 C 0.00932 0.42366 0.7339 0.0
C347 C 0.01786 0.47363 0.83827 0.0
C348 C 0.01126 0.47525 0.77973 0.0
C349 C 0.02165 0.4552 0.86182 0.0
C350 C 0.01899 0.43849 0.82733 0.0
Eu351 Eu 0.99167 0.49231 0.66357 0.0
N352 N 0.00773 0.49297 0.75559 0.0
C353 C 0.0204 0.4906 0.87158 0.0
C354 C 0.01038 0.50951 0.7879 0.0
C355 C 0.0167 0.50862 0.84618 0.0
H356 H 0.99194 0.44595 0.61279 0.0
H357 H 0.01864 0.52185 0.87152 0.0
H358 H 0.02144 0.57336 0.58406 0.0
H359 H 0.99486 0.49485 0.33593 0.0
H360 H 0.00757 0.52341 0.76928 0.0
H361 H 0.02529 0.48996 0.91675 0.0
H362 H 0.00729 0.49448 0.43641 0.0
H363 H -0.00038 0.41324 0.64954 0.0
H364 H 0.02671 0.45371 0.90664 0.0
H365 H 0.02204 0.42437 0.84609 0.0
H366 H 0.0118 0.60558 0.54742 0.0
H367 H 0.01217 0.40919 0.7504 0.0
H368 H 0.9838 0.52569 0.29228 0.0
N369 N 0.00786 0.55772 0.51532 0.0
C370 C -0.00044 0.55875 0.46125 0.0
C371 C 0.00787 0.59253 0.5233 0.0
C372 C 0.99497 0.57695 0.43635 0.0
C373 C 0.01264 0.57425 0.54538 0.0
C374 C 0.99885 0.59389 0.46871 0.0
N375 N 0.00207 0.52434 0.45292 0.0
C376 C 0.00157 0.50776 0.41983 0.0
C377 C 0.98986 0.54264 0.37063 0.0
C378 C 0.99682 0.54168 0.42893 0.0
C379 C 0.98876 0.5255 0.33743 0.0
C380 C 0.99483 0.50804 0.36201 0.0
H381 H 0.9956 0.60811 0.45099 0.0
H382 H 0.98403 0.59164 0.35929 0.0
H383 H 0.97976 0.56166 0.30156 0.0
O384 O 0.03978 0.52074 0.47459 0.0
O385 O 0.98528 0.52846 0.54701 0.0
O386 O 0.97567 0.49792 0.57786 0.0
O387 O 0.04219 0.54709 0.52672 0.0
O388 O 0.02311 0.49372 0.54122 0.0
O389 O 0.99453 0.47933 0.57247 0.0
O390 O 0.96821 0.50112 0.72247 0.0
O391 O 0.0249 0.49178 0.6686 0.0
O392 O 0.03728 0.51955 0.62275 0.0
O393 O 0.96842 0.47173 0.68611 0.0
O394 O 0.98774 0.52511 0.67117 0.0
O395 O 0.01474 0.54126 0.63343 0.0
C396 C 0.97186 0.51491 0.55422 0.0
C397 C 0.07075 0.53681 0.47594 0.0
C398 C 0.09962 0.52367 0.42836 0.0
C399 C 0.11027 0.54016 0.44587 0.0
C400 C 0.0816 0.55335 0.4926 0.0
C401 C 0.10128 0.55492 0.47785 0.0
C402 C 0.0799 0.52191 0.44355 0.0
C403 C 0.01038 0.47931 0.53979 0.0
C404 C 0.04946 0.53684 0.4838 0.0
C405 C 0.98749 0.57779 0.37913 0.0
C406 C 0.98505 0.5607 0.34627 0.0
C407 C 0.03919 0.50402 0.65596 0.0
C408 C 0.93937 0.48169 0.73756 0.0
C409 C 0.91096 0.49346 0.79042 0.0
C410 C 0.90169 0.47545 0.78184 0.0
C411 C 0.93002 0.46358 0.72993 0.0
C412 C 0.92975 0.49661 0.76838 0.0
C413 C 0.91122 0.46056 0.75178 0.0
C414 C -0.00023 0.54012 0.66998 0.0
C415 C 0.96006 0.48393 0.72204 0.0
H416 H 0.12542 0.54187 0.43302 0.0
H417 H 0.07474 0.56536 0.51554 0.0
H418 H 0.10947 0.56782 0.49003 0.0
H419 H 0.07161 0.50946 0.42787 0.0
H420 H 0.88719 0.47284 0.79935 0.0
H421 H 0.93739 0.45162 0.70826 0.0
H422 H 0.93698 0.51041 0.77683 0.0
H423 H 0.90413 0.44657 0.74615 0.0
H424 H 0.1512 0.07188 0.13401 0.0
H425 H 0.12729 0.06588 0.21237 0.0
H426 H 0.15361 0.01012 0.24595 0.0
H427 H 0.17675 0.01564 0.16594 0.0
H428 H 0.11623 0.00649 0.24596 0.0
H429 H 0.16113 0.05051 0.33819 0.0
H430 H 0.18077 0.08063 0.34341 0.0
H431 H 0.12859 0.11482 0.34029 0.0
H432 H 0.10863 0.08488 0.33444 0.0
H433 H 0.0652 0.9881 0.51339 0.0
H434 H 0.09109 0.99391 0.44087 0.0
H435 H 0.0671 0.05041 0.40408 0.0
H436 H 0.04196 0.04518 0.47795 0.0
H437 H 0.10465 0.05366 0.40777 0.0
H438 H 0.0602 0.00923 0.31066 0.0
H439 H 0.0415 0.97938 0.28779 0.0
H440 H 0.09397 0.94576 0.29322 0.0
H441 H 0.113 0.97536 0.31633 0.0
C442 C 0.1517 0.05831 0.15797 0.0
C443 C 0.1656 0.04413 0.14386 0.0
C444 C 0.13821 0.05497 0.203 0.0
C445 C 0.13887 0.03767 0.23567 0.0
C446 C 0.1528 0.02354 0.22131 0.0
C447 C 0.16594 0.02667 0.17549 0.0
C448 C 0.12475 0.03395 0.2838 0.0
C449 C 0.11395 0.01661 0.28209 0.0
C450 C 0.1215 0.04741 0.32992 0.0
C451 C 0.13338 0.06545 0.3357 0.0
C452 C 0.15384 0.06445 0.33855 0.0
C453 C 0.16503 0.08149 0.34156 0.0
C454 C 0.15593 0.09962 0.34209 0.0
C455 C 0.13561 0.10075 0.33988 0.0
C456 C 0.12435 0.08375 0.33687 0.0
C457 C 0.06561 0.00187 0.4905 0.0
C458 C 0.05148 0.01616 0.50195 0.0
C459 C 0.0803 0.00509 0.44848 0.0
C460 C 0.08094 0.02253 0.41631 0.0
C461 C 0.067 0.03687 0.42826 0.0
C462 C 0.05256 0.03379 0.47066 0.0
C463 C 0.09605 0.026 0.37024 0.0
C464 C 0.10705 0.04337 0.37221 0.0
C465 C 0.09963 0.01247 0.32433 0.0
C466 C 0.08796 0.99446 0.31608 0.0
C467 C 0.06769 0.99542 0.30807 0.0
C468 C 0.05706 0.97858 0.29472 0.0
C469 C 0.06653 0.96072 0.28919 0.0
C470 C 0.08665 0.9596 0.29759 0.0
C471 C 0.09736 0.9764 0.31084 0.0
H472 H 0.05827 0.9478 0.27791 0.0
H473 H 0.16462 0.1128 0.34431 0.0
H474 H 0.50172 0.1788 0.16295 0.0
H475 H 0.50604 0.15492 0.24024 0.0
H476 H 0.44818 0.13231 0.20801 0.0
H477 H 0.44339 0.15714 0.13219 0.0
H478 H 0.45471 0.13475 0.32067 0.0
H479 H 0.48996 0.10876 0.15772 0.0
H480 H 0.51318 0.11096 0.07498 0.0
H481 H 0.55986 0.12262 0.19538 0.0
H482 H 0.53685 0.12081 0.27888 0.0
H483 H 0.46856 0.0459 0.47081 0.0
H484 H 0.46297 0.07149 0.39942 0.0
H485 H 0.51888 0.09702 0.44076 0.0
H486 H 0.52463 0.07116 0.51292 0.0
H487 H 0.5134 0.09291 0.32207 0.0
H488 H 0.47669 0.1192 0.48466 0.0
H489 H 0.45198 0.12177 0.56334 0.0
H490 H 0.40653 0.11035 0.43849 0.0
H491 H 0.43097 0.10748 0.35919 0.0
C492 C 0.48997 0.16863 0.17202 0.0
C493 C 0.47237 0.16948 0.1411 0.0
C494 C 0.49247 0.15497 0.21608 0.0
C495 C 0.47766 0.14148 0.2287 0.0
C496 C 0.45987 0.14249 0.19847 0.0
C497 C 0.45717 0.15656 0.15517 0.0
C498 C 0.48078 0.12658 0.27429 0.0
C499 C 0.46731 0.12529 0.32045 0.0
C500 C 0.49755 0.11467 0.27445 0.0
C501 C 0.51165 0.1147 0.22463 0.0
C502 C 0.50518 0.1118 0.16659 0.0
C503 C 0.51829 0.11303 0.11953 0.0
C504 C 0.53798 0.11696 0.12992 0.0
C505 C 0.5446 0.11957 0.18742 0.0
C506 C 0.53153 0.11841 0.23467 0.0
C507 C 0.47964 0.05704 0.46516 0.0
C508 C 0.49706 0.05652 0.49746 0.0
C509 C 0.47634 0.07175 0.42455 0.0
C510 C 0.49041 0.08627 0.41509 0.0
C511 C 0.50779 0.08598 0.44768 0.0
C512 C 0.51102 0.0713 0.48908 0.0
C513 C 0.48723 0.10103 0.36883 0.0
C514 C 0.5007 0.10224 0.32222 0.0
C515 C 0.47026 0.11268 0.36771 0.0
C516 C 0.45571 0.11288 0.41613 0.0
C517 C 0.46146 0.11691 0.47415 0.0
C518 C 0.44748 0.11854 0.5188 0.0
C519 C 0.4277 0.11621 0.50593 0.0
C520 C 0.42185 0.11214 0.44843 0.0
C521 C 0.43576 0.11049 0.40364 0.0
H522 H 0.4169 0.11757 0.54052 0.0
H523 H 0.54811 0.11794 0.09342 0.0
H524 H 0.32182 0.48318 0.21026 0.0
H525 H 0.34596 0.48797 0.28832 0.0
H526 H 0.39226 0.4779 0.16267 0.0
H527 H 0.36801 0.47269 0.08504 0.0
H528 H 0.3985 0.45903 0.26112 0.0
H529 H 0.38054 0.52417 0.20968 0.0
H530 H 0.35683 0.55027 0.19145 0.0
H531 H 0.33735 0.54723 0.37078 0.0
H532 H 0.36081 0.52093 0.38993 0.0
H533 H 0.47763 0.48596 0.43249 0.0
H534 H 0.45338 0.48458 0.35608 0.0
H535 H 0.40982 0.50554 0.47806 0.0
H536 H 0.43501 0.51029 0.55117 0.0
H537 H 0.40076 0.5193 0.38192 0.0
H538 H 0.41628 0.45097 0.42775 0.0
H539 H 0.43957 0.42412 0.44219 0.0
H540 H 0.46345 0.43377 0.26995 0.0
H541 H 0.43994 0.46027 0.2539 0.0
C542 C 0.33719 0.48182 0.1999 0.0
C543 C 0.34332 0.47754 0.1425 0.0
C544 C 0.35091 0.48474 0.24408 0.0
C545 C 0.37088 0.48366 0.23092 0.0
C546 C 0.37691 0.47891 0.17352 0.0
C547 C 0.36317 0.47588 0.12943 0.0
C548 C 0.38556 0.487 0.27719 0.0
C549 C 0.39911 0.4723 0.28718 0.0
C550 C 0.38601 0.50414 0.31189 0.0
C551 C 0.37238 0.52049 0.30118 0.0
C552 C 0.37117 0.52903 0.24522 0.0
C553 C 0.35777 0.54385 0.2347 0.0
C554 C 0.34557 0.55038 0.2799 0.0
C555 C 0.34681 0.54215 0.3358 0.0
C556 C 0.36019 0.52731 0.34656 0.0
C557 C 0.46301 0.49073 0.44299 0.0
C558 C 0.45862 0.49909 0.4979 0.0
C559 C 0.44889 0.48941 0.39931 0.0
C560 C 0.42938 0.49425 0.41127 0.0
C561 C 0.42472 0.50178 0.46702 0.0
C562 C 0.43923 0.50446 0.50934 0.0
C563 C 0.41394 0.49124 0.36604 0.0
C564 C 0.40012 0.50598 0.35628 0.0
C565 C 0.41311 0.47409 0.3312 0.0
C566 C 0.42646 0.45755 0.3398 0.0
C567 C 0.42643 0.44724 0.39291 0.0
C568 C 0.43962 0.4321 0.4013 0.0
C569 C 0.45298 0.42732 0.35705 0.0
C570 C 0.4531 0.43754 0.30416 0.0
C571 C 0.43969 0.45242 0.29509 0.0
H572 H 0.46316 0.41562 0.36354 0.0
H573 H 0.33518 0.56183 0.27165 0.0
H574 H 0.06656 0.36193 0.13057 0.0
H575 H 0.0607 0.38608 0.20796 0.0
H576 H 0.00465 0.35979 0.24426 0.0
H577 H 0.0101 0.33622 0.16508 0.0
H578 H 0.00125 0.39729 0.24451 0.0
H579 H 0.04398 0.35306 0.33935 0.0
H580 H 0.0732 0.33242 0.344 0.0
H581 H 0.10989 0.38281 0.32842 0.0
H582 H 0.08081 0.40398 0.32442 0.0
H583 H 0.98549 0.4492 0.5115 0.0
H584 H 0.99058 0.4233 0.43942 0.0
H585 H 0.04696 0.44753 0.39608 0.0
H586 H 0.04246 0.47282 0.47041 0.0
H587 H 0.04971 0.40974 0.40153 0.0
H588 H 0.0039 0.45379 0.30874 0.0
H589 H 0.97332 0.47177 0.29245 0.0
H590 H 0.9406 0.41851 0.30143 0.0
H591 H 0.97088 0.40018 0.31773 0.0
C592 C 0.05298 0.36139 0.15501 0.0
C593 C 0.03874 0.34732 0.14175 0.0
C594 C 0.0497 0.37508 0.19949 0.0
C595 C 0.03236 0.37458 0.23262 0.0
C596 C 0.01812 0.3605 0.21927 0.0
C597 C 0.02123 0.34707 0.17401 0.0
C598 C 0.02888 0.38895 0.28043 0.0
C599 C 0.01167 0.39981 0.27951 0.0
C600 C 0.04264 0.39239 0.32547 0.0
C601 C 0.06022 0.38008 0.33149 0.0
C602 C 0.05828 0.35979 0.33728 0.0
C603 C 0.0748 0.34803 0.3399 0.0
C604 C 0.09337 0.35638 0.33685 0.0
C605 C 0.09545 0.37652 0.3315 0.0
C606 C 0.07897 0.3884 0.3293 0.0
C607 C 0.99917 0.44881 0.48767 0.0
C608 C 0.01368 0.46298 0.49769 0.0
C609 C 0.00192 0.43413 0.4456 0.0
C610 C 0.01905 0.43356 0.41154 0.0
C611 C 0.03362 0.4476 0.42176 0.0
C612 C 0.03101 0.46209 0.46439 0.0
C613 C 0.02197 0.41831 0.36565 0.0
C614 C 0.03917 0.40721 0.3669 0.0
C615 C 0.00796 0.4144 0.32138 0.0
C616 C 0.98966 0.42565 0.31535 0.0
C617 C 0.99017 0.44595 0.30813 0.0
C618 C 0.9729 0.45619 0.29865 0.0
C619 C 0.95506 0.44632 0.29635 0.0
C620 C 0.95442 0.42616 0.30343 0.0
C621 C 0.97162 0.41583 0.31274 0.0
H622 H 0.94174 0.45429 0.28889 0.0
H623 H 0.10616 0.34725 0.33847 0.0
H624 H 0.84887 0.94517 0.05506 0.0
H625 H 0.87323 0.95119 0.97893 0.0
H626 H 0.86511 0.01307 0.99918 0.0
H627 H 0.84031 0.00715 0.07489 0.0
H628 H 0.86609 0.0025 0.88551 0.0
H629 H 0.90492 0.9906 0.05573 0.0
H630 H 0.91512 0.9722 0.14298 0.0
H631 H 0.93073 0.92366 0.03335 0.0
H632 H 0.92031 0.94166 0.94543 0.0
H633 H 0.94981 0.02999 0.71742 0.0
H634 H 0.92423 0.02548 0.7912 0.0
H635 H 0.93521 0.96369 0.7913 0.0
H636 H 0.9614 0.96831 0.71937 0.0
H637 H 0.93262 0.97503 0.89722 0.0
H638 H 0.89309 0.98691 0.72661 0.0
H639 H 0.87941 0.00402 0.64131 0.0
H640 H 0.86327 0.05205 0.75227 0.0
H641 H 0.87715 0.03541 0.83805 0.0
C642 C 0.85233 0.96008 0.04367 0.0
C643 C 0.8428 0.97569 0.07136 0.0
C644 C 0.8663 0.96349 0.00021 0.0
C645 C 0.87119 0.98258 0.98404 0.0
C646 C 0.8616 0.99822 0.01127 0.0
C647 C 0.84753 0.99482 0.05468 0.0
C648 C 0.88608 0.98612 0.93793 0.0
C649 C 0.88078 0.99681 0.8883 0.0
C650 C 0.90501 0.97818 0.94123 0.0
C651 C 0.91171 0.96745 0.99395 0.0
C652 C 0.91042 0.97596 0.05021 0.0
C653 C 0.91624 0.96561 0.09981 0.0
C654 C 0.92353 0.94676 0.09373 0.0
C655 C 0.92506 0.93826 0.03799 0.0
C656 C 0.91922 0.94854 0.98824 0.0
C657 C 0.94657 0.0154 0.73252 0.0
C658 C 0.95755 0.99946 0.71236 0.0
C659 C 0.93186 0.01282 0.77465 0.0
C660 C 0.92752 0.99419 0.7965 0.0
C661 C 0.93824 0.97823 0.77533 0.0
C662 C 0.95318 0.98085 0.73404 0.0
C663 C 0.91267 0.9914 0.84379 0.0
C664 C 0.91799 0.98084 0.89404 0.0
C665 C 0.89371 0.99949 0.84099 0.0
C666 C 0.88641 0.00999 0.78868 0.0
C667 C 0.8869 0.00124 0.73269 0.0
C668 C 0.87903 0.01083 0.68427 0.0
C669 C 0.87051 0.02912 0.69134 0.0
C670 C 0.8699 0.0379 0.74681 0.0
C671 C 0.8778 0.02841 0.79531 0.0
H672 H 0.86434 0.03647 0.65385 0.0
H673 H 0.92803 0.93876 0.13218 0.0
H674 H 0.55669 0.83307 0.99319 0.0
H675 H 0.54947 0.85753 0.91923 0.0
H676 H 0.51749 0.89078 0.04879 0.0
H677 H 0.52375 0.86544 0.12225 0.0
H678 H 0.49932 0.89159 0.94994 0.0
H679 H 0.56578 0.90326 0.0026 0.0
H680 H 0.59952 0.89298 0.02183 0.0
H681 H 0.60566 0.87443 0.84227 0.0
H682 H 0.57185 0.88444 0.82207 0.0
H683 H 0.49827 0.98 0.78988 0.0
H684 H 0.50447 0.95462 0.86216 0.0
H685 H 0.53132 0.9192 0.72785 0.0
H686 H 0.52495 0.94456 0.65481 0.0
H687 H 0.55295 0.91938 0.82917 0.0
H688 H 0.48576 0.90737 0.77948 0.0
H689 H 0.45047 0.91254 0.76694 0.0
H690 H 0.44541 0.92996 0.94788 0.0
H691 H 0.48069 0.92512 0.96128 0.0
C692 C 0.54806 0.8456 0.00569 0.0
C693 C 0.54097 0.84761 0.06324 0.0
C694 C 0.54407 0.85965 0.96358 0.0
C695 C 0.53351 0.87638 0.97876 0.0
C696 C 0.52587 0.87811 0.03613 0.0
C697 C 0.52941 0.86369 0.07801 0.0
C698 C 0.53021 0.89184 0.93432 0.0
C699 C 0.51111 0.89799 0.92444 0.0
C700 C 0.54555 0.89973 0.89972 0.0
C701 C 0.56624 0.89461 0.9108 0.0
C702 C 0.57432 0.89702 0.96717 0.0
C703 C 0.59345 0.8912 0.97829 0.0
C704 C 0.60472 0.88304 0.93331 0.0
C705 C 0.59691 0.88077 0.87705 0.0
C706 C 0.57778 0.88658 0.86568 0.0
C707 C 0.50545 0.96681 0.77548 0.0
C708 C 0.51101 0.96434 0.71627 0.0
C709 C 0.50892 0.95223 0.81697 0.0
C710 C 0.5182 0.93484 0.8006 0.0
C711 C 0.52407 0.93243 0.74169 0.0
C712 C 0.52035 0.94693 0.69987 0.0
C713 C 0.52192 0.9194 0.84528 0.0
C714 C 0.54117 0.91318 0.85509 0.0
C715 C 0.50673 0.91154 0.88057 0.0
C716 C 0.48591 0.91616 0.87109 0.0
C717 C 0.47718 0.91265 0.81627 0.0
C718 C 0.45715 0.91539 0.80914 0.0
C719 C 0.44571 0.9216 0.85656 0.0
C720 C 0.45429 0.92519 0.91115 0.0
C721 C 0.47429 0.92248 0.9185 0.0
H722 H 0.43019 0.9236 0.85102 0.0
H723 H 0.61952 0.87851 0.94201 0.0
H724 H 0.64207 0.55112 0.12374 0.0
H725 H 0.61785 0.54454 0.04697 0.0
H726 H 0.66357 0.52454 0.93086 0.0
H727 H 0.6877 0.53081 0.00814 0.0
H728 H 0.63955 0.5503 0.87751 0.0
H729 H 0.63318 0.49264 0.99169 0.0
H730 H 0.62916 0.47443 0.08403 0.0
H731 H 0.57268 0.49973 0.11001 0.0
H732 H 0.57651 0.51841 0.0183 0.0
H733 H 0.57496 0.5048 0.66685 0.0
H734 H 0.6001 0.51038 0.73985 0.0
H735 H 0.55865 0.54042 0.84964 0.0
H736 H 0.53364 0.53605 0.77474 0.0
H737 H 0.5811 0.50846 0.90536 0.0
H738 H 0.58852 0.56667 0.79094 0.0
H739 H 0.59445 0.58698 0.70368 0.0
H740 H 0.65067 0.56088 0.67998 0.0
H741 H 0.64489 0.54006 0.76637 0.0
C742 C 0.64679 0.54505 0.08204 0.0
C743 C 0.66653 0.54123 0.07152 0.0
C744 C 0.63303 0.5413 0.03835 0.0
C745 C 0.63893 0.53396 0.98334 0.0
C746 C 0.65873 0.53013 0.97304 0.0
C747 C 0.67243 0.53354 0.01715 0.0
C748 C 0.62447 0.53081 0.93606 0.0
C749 C 0.62694 0.54088 0.88308 0.0
C750 C 0.60787 0.51882 0.94414 0.0
C751 C 0.60518 0.50705 0.99823 0.0
C752 C 0.61993 0.4944 0.0172 0.0
C753 C 0.6177 0.484 0.06947 0.0
C754 C 0.60069 0.48595 0.10294 0.0
C755 C 0.58585 0.49825 0.08405 0.0
C756 C 0.58804 0.50874 0.03187 0.0
C757 C 0.57106 0.51276 0.70563 0.0
C758 C 0.55199 0.51969 0.71423 0.0
C759 C 0.58556 0.51594 0.74774 0.0
C760 C 0.58119 0.52567 0.80036 0.0
C761 C 0.5623 0.53278 0.80934 0.0
C762 C 0.54802 0.53024 0.76623 0.0
C763 C 0.59618 0.528 0.84665 0.0
C764 C 0.5938 0.51774 0.89951 0.0
C765 C 0.613 0.53969 0.83825 0.0
C766 C 0.61609 0.55151 0.78456 0.0
C767 C 0.60198 0.56496 0.76648 0.0
C768 C 0.60536 0.57665 0.71732 0.0
C769 C 0.62289 0.57516 0.68615 0.0
C770 C 0.63706 0.56196 0.70403 0.0
C771 C 0.63372 0.55019 0.75302 0.0
H772 H 0.62551 0.58429 0.64827 0.0
H773 H 0.59899 0.47791 0.14343 0.0
H774 H 0.9583 0.64811 0.11556 0.0
H775 H 0.96527 0.62349 0.03998 0.0
H776 H 0.99409 0.66711 0.93433 0.0
H777 H 0.98748 0.69163 0.01056 0.0
H778 H 0.96746 0.6456 0.87185 0.0
H779 H 0.02051 0.63426 0.00162 0.0
H780 H 0.03536 0.62862 0.09843 0.0
H781 H 0.00398 0.57465 0.11384 0.0
H782 H 0.98864 0.58014 0.01747 0.0
H783 H 0.01564 0.57747 0.67464 0.0
H784 H 0.00887 0.60318 0.74549 0.0
H785 H 0.97056 0.56457 0.84035 0.0
H786 H 0.97536 0.53948 0.7657 0.0
H787 H 0.0027 0.584 0.90787 0.0
H788 H 0.94928 0.59631 0.77771 0.0
H789 H 0.93206 0.60418 0.68615 0.0
H790 H 0.96372 0.65807 0.67378 0.0
H791 H 0.98148 0.65032 0.76464 0.0
C792 C 0.96633 0.65228 0.07646 0.0
C793 C 0.9725 0.67156 0.06859 0.0
C794 C 0.97033 0.63828 0.03349 0.0
C795 C 0.98025 0.6435 0.98172 0.0
C796 C 0.98647 0.66281 0.97406 0.0
C797 C 0.98284 0.67672 0.01761 0.0
C798 C 0.98355 0.62891 0.93474 0.0
C799 C 0.97548 0.63228 0.87925 0.0
C800 C 0.99361 0.61139 0.94527 0.0
C801 C 0.0033 0.60768 0.0024 0.0
C802 C 0.01668 0.62123 0.02575 0.0
C803 C 0.02519 0.61807 0.08058 0.0
C804 C 0.02058 0.60131 0.11233 0.0
C805 C 0.00752 0.58764 0.08919 0.0
C806 C 0.99893 0.59075 0.03441 0.0
C807 C 0.00515 0.57454 0.70859 0.0
C808 C 0.99582 0.5563 0.71276 0.0
C809 C 0.00151 0.58927 0.74993 0.0
C810 C 0.98922 0.58576 0.79814 0.0
C811 C 0.98004 0.5676 0.80326 0.0
C812 C 0.98287 0.55325 0.7603 0.0
C813 C 0.98665 0.60072 0.84463 0.0
C814 C 0.99486 0.5974 0.90018 0.0
C815 C 0.97683 0.6184 0.83402 0.0
C816 C 0.96702 0.62252 0.77745 0.0
C817 C 0.9529 0.60964 0.75486 0.0
C818 C 0.94294 0.61414 0.70323 0.0
C819 C 0.94685 0.63157 0.67402 0.0
C820 C 0.96076 0.64453 0.69632 0.0
C821 C 0.9708 0.64007 0.74781 0.0
H822 H 0.93906 0.63507 0.63423 0.0
H823 H 0.02716 0.59889 0.15481 0.0
H824 H 0.03729 0.22155 0.03856 0.0
H825 H 0.02757 0.19446 0.10112 0.0
H826 H 0.03937 0.22936 0.25541 0.0
H827 H 0.04896 0.25682 0.19214 0.0
H828 H 0.05765 0.19448 0.25747 0.0
H829 H 0.99306 0.21705 0.21855 0.0
H830 H 0.96523 0.22764 0.15873 0.0
H831 H 0.96349 0.17194 0.07271 0.0
H832 H 0.99153 0.1611 0.13119 0.0
H833 H 0.01169 0.13119 0.46016 0.0
H834 H 0.02704 0.15587 0.39843 0.0
H835 H 0.01439 0.12123 0.2441 0.0
H836 H 0.99863 0.09667 0.30638 0.0
H837 H 0.99654 0.15592 0.24266 0.0
H838 H 0.06115 0.13333 0.27988 0.0
H839 H 0.08716 0.12162 0.34497 0.0
H840 H 0.08768 0.17651 0.43594 0.0
H841 H 0.06145 0.18846 0.37198 0.0
C842 C 0.03767 0.22344 0.08586 0.0
C843 C 0.04406 0.24099 0.11096 0.0
C844 C 0.03192 0.20808 0.12146 0.0
C845 C 0.03264 0.21001 0.18272 0.0
C846 C 0.03865 0.22772 0.20807 0.0
C847 C 0.04412 0.24329 0.17222 0.0
C848 C 0.02892 0.19282 0.21947 0.0
C849 C 0.04418 0.18618 0.25495 0.0
C850 C 0.01154 0.18177 0.21438 0.0
C851 C 0.99462 0.18833 0.17894 0.0
C852 C 0.9869 0.20711 0.18648 0.0
C853 C 0.97104 0.21315 0.15285 0.0
C854 C 0.96264 0.2005 0.1118 0.0
C855 C 0.97003 0.18174 0.10444 0.0
C856 C 0.98591 0.17565 0.13786 0.0
C857 C 0.01305 0.12854 0.41333 0.0
C858 C 0.00394 0.11245 0.38728 0.0
C859 C 0.0218 0.14256 0.37811 0.0
C860 C 0.02158 0.14041 0.31676 0.0
C861 C 0.01452 0.12312 0.29141 0.0
C862 C 0.00569 0.10911 0.32676 0.0
C863 C 0.02538 0.15748 0.27976 0.0
C864 C 0.01008 0.16416 0.2446 0.0
C865 C 0.04268 0.16851 0.28493 0.0
C866 C 0.05926 0.16178 0.32121 0.0
C867 C 0.06679 0.14291 0.3138 0.0
C868 C 0.08155 0.13621 0.35057 0.0
C869 C 0.08904 0.1483 0.39465 0.0
C870 C 0.08187 0.16716 0.40177 0.0
C871 C 0.06708 0.17392 0.36516 0.0
H872 H 0.10042 0.14307 0.4232 0.0
H873 H 0.95037 0.2052 0.08581 0.0
H874 H 0.29353 0.06646 0.06633 0.0
H875 H 0.32221 0.05747 0.12395 0.0
H876 H 0.2863 0.02027 0.23182 0.0
H877 H 0.25783 0.02889 0.1748 0.0
H878 H 0.30681 0.04811 0.29508 0.0
H879 H 0.3139 0.00024 0.15619 0.0
H880 H 0.32144 0.9736 0.08814 0.0
H881 H 0.38076 0.99325 0.0756 0.0
H882 H 0.37315 0.02146 0.13775 0.0
H883 H 0.39044 0.98925 0.40801 0.0
H884 H 0.35833 0.00249 0.38332 0.0
H885 H 0.38609 0.05326 0.30965 0.0
H886 H 0.418 0.04026 0.33494 0.0
H887 H 0.36897 0.01723 0.23739 0.0
H888 H 0.35235 0.0695 0.38267 0.0
H889 H 0.34787 0.0778 0.48753 0.0
H890 H 0.30772 0.0301 0.50724 0.0
H891 H 0.31148 0.02197 0.40188 0.0
C892 C 0.29171 0.0563 0.10191 0.0
C893 C 0.2732 0.04863 0.11609 0.0
C894 C 0.3082 0.05097 0.13445 0.0
C895 C 0.3064 0.03808 0.18194 0.0
C896 C 0.28806 0.03014 0.19517 0.0
C897 C 0.27174 0.03522 0.16252 0.0
C898 C 0.32278 0.03487 0.22309 0.0
C899 C 0.32043 0.04147 0.28157 0.0
C900 C 0.34039 0.02545 0.20667 0.0
C901 C 0.34288 0.01314 0.15296 0.0
C902 C 0.32828 0.99971 0.13671 0.0
C903 C 0.33265 0.9841 0.09933 0.0
C904 C 0.35169 0.98137 0.07921 0.0
C905 C 0.3661 0.99508 0.09252 0.0
C906 C 0.36161 0.01119 0.1275 0.0
C907 C 0.38953 0.00374 0.38971 0.0
C908 C 0.40652 0.01382 0.37306 0.0
C909 C 0.37122 0.01134 0.37604 0.0
C910 C 0.36992 0.02884 0.34478 0.0
C911 C 0.38681 0.03991 0.33464 0.0
C912 C 0.40502 0.03242 0.34867 0.0
C913 C 0.35329 0.03172 0.30511 0.0
C914 C 0.3555 0.0247 0.24795 0.0
C915 C 0.33541 0.03958 0.32296 0.0
C916 C 0.33211 0.04524 0.38474 0.0
C917 C 0.34245 0.06092 0.40939 0.0
C918 C 0.34007 0.06556 0.46883 0.0
C919 C 0.32769 0.05436 0.5042 0.0
C920 C 0.31733 0.03874 0.47984 0.0
C921 C 0.31941 0.03424 0.42015 0.0
H922 H 0.32607 0.05784 0.5504 0.0
H923 H 0.35517 0.9689 0.05196 0.0
H924 H 0.48754 0.28482 0.04913 0.0
H925 H 0.49439 0.31468 0.10517 0.0
H926 H 0.45068 0.29816 0.233 0.0
H927 H 0.44343 0.26872 0.17564 0.0
H928 H 0.44761 0.33465 0.21247 0.0
H929 H 0.50126 0.29287 0.25521 0.0
H930 H 0.53011 0.27222 0.23935 0.0
H931 H 0.56048 0.32011 0.1594 0.0
H932 H 0.53172 0.34096 0.17383 0.0
H933 H 0.48901 0.39006 0.45458 0.0
H934 H 0.47408 0.3667 0.38599 0.0
H935 H 0.5061 0.39268 0.24255 0.0
H936 H 0.52063 0.41628 0.31086 0.0
H937 H 0.51495 0.35249 0.27064 0.0
H938 H 0.45873 0.39192 0.21499 0.0
H939 H 0.42969 0.41216 0.23345 0.0
H940 H 0.40631 0.36843 0.3484 0.0
H941 H 0.43483 0.34758 0.32848 0.0
C942 C 0.47918 0.28789 0.08857 0.0
C943 C 0.46477 0.27484 0.10787 0.0
C944 C 0.48328 0.30473 0.12102 0.0
C945 C 0.47331 0.30849 0.17393 0.0
C946 C 0.45858 0.29557 0.19239 0.0
C947 C 0.45433 0.27886 0.15954 0.0
C948 C 0.47784 0.32611 0.20939 0.0
C949 C 0.46236 0.33835 0.2256 0.0
C950 C 0.49713 0.33124 0.22588 0.0
C951 C 0.51416 0.31841 0.21477 0.0
C952 C 0.51396 0.29893 0.23342 0.0
C953 C 0.53035 0.2872 0.22491 0.0
C954 C 0.54709 0.29482 0.19819 0.0
C955 C 0.54749 0.31419 0.17992 0.0
C956 C 0.53114 0.32597 0.18822 0.0
C957 C 0.49212 0.39123 0.408 0.0
C958 C 0.50583 0.40479 0.38744 0.0
C959 C 0.48364 0.37795 0.36897 0.0
C960 C 0.48913 0.37797 0.30946 0.0
C961 C 0.50166 0.39255 0.28832 0.0
C962 C 0.50987 0.40601 0.32713 0.0
C963 C 0.48479 0.36088 0.27236 0.0
C964 C 0.5003 0.34869 0.25666 0.0
C965 C 0.46564 0.35565 0.2569 0.0
C966 C 0.44891 0.36833 0.27072 0.0
C967 C 0.44742 0.3867 0.24441 0.0
C968 C 0.43101 0.3982 0.25481 0.0
C969 C 0.41629 0.3917 0.29266 0.0
C970 C 0.41777 0.3735 0.31934 0.0
C971 C 0.43395 0.36175 0.30806 0.0
H972 H 0.4037 0.40073 0.30105 0.0
H973 H 0.55976 0.28574 0.19178 0.0
H974 H 0.2263 0.48792 0.03858 0.0
H975 H 0.19669 0.4951 0.09576 0.0
H976 H 0.2191 0.46169 0.24047 0.0
H977 H 0.24857 0.45444 0.18301 0.0
H978 H 0.18183 0.45312 0.22177 0.0
H979 H 0.22002 0.51137 0.24207 0.0
H980 H 0.23824 0.54109 0.21535 0.0
H981 H 0.18749 0.5638 0.13058 0.0
H982 H 0.16905 0.53409 0.15591 0.0
H983 H 0.12466 0.49474 0.45526 0.0
H984 H 0.14878 0.48096 0.38721 0.0
H985 H 0.12073 0.50978 0.24251 0.0
H986 H 0.09654 0.52338 0.31062 0.0
H987 H 0.15978 0.52065 0.25941 0.0
H988 H 0.12165 0.46199 0.24166 0.0
H989 H 0.10227 0.43606 0.28895 0.0
H990 H 0.15315 0.41639 0.37988 0.0
H991 H 0.17278 0.44241 0.33379 0.0
C992 C 0.22463 0.48186 0.08219 0.0
C993 C 0.23934 0.47033 0.10626 0.0
C994 C 0.20791 0.48617 0.11508 0.0
C995 C 0.2058 0.47912 0.17264 0.0
C996 C 0.22043 0.46727 0.19617 0.0
C997 C 0.23713 0.463 0.1633 0.0
C998 C 0.18812 0.48357 0.2078 0.0
C999 C 0.17711 0.46792 0.23011 0.0
C1000 C 0.18177 0.50289 0.21823 0.0
C1001 C 0.19324 0.52029 0.20001 0.0
C1002 C 0.21283 0.52252 0.21683 0.0
C1003 C 0.22317 0.53943 0.20219 0.0
C1004 C 0.21405 0.55428 0.17108 0.0
C1005 C 0.19457 0.55226 0.1545 0.0
C1006 C 0.18417 0.53538 0.16893 0.0
C1007 C 0.12319 0.4973 0.40854 0.0
C1008 C 0.10893 0.50999 0.38764 0.0
C1009 C 0.13698 0.48959 0.36982 0.0
C1010 C 0.13663 0.49464 0.31009 0.0
C1011 C 0.12126 0.50587 0.28855 0.0
C1012 C 0.10737 0.51341 0.32717 0.0
C1013 C 0.15352 0.49025 0.27192 0.0
C1014 C 0.16443 0.5059 0.24974 0.0
C1015 C 0.15985 0.47105 0.26186 0.0
C1016 C 0.14863 0.45421 0.28467 0.0
C1017 C 0.12871 0.45207 0.27154 0.0
C1018 C 0.11768 0.4374 0.29823 0.0
C1019 C 0.12646 0.42472 0.33775 0.0
C1020 C 0.14638 0.4263 0.34942 0.0
C1021 C 0.15748 0.44097 0.32292 0.0
H1022 H 0.1178 0.4138 0.35987 0.0
H1023 H 0.22207 0.56738 0.15997 0.0
H1024 H 0.99841 0.78302 0.14114 0.0
H1025 H 0.00242 0.81344 0.08857 0.0
H1026 H 0.94861 0.80264 0.9967 0.0
H1027 H 0.94418 0.77232 0.05023 0.0
H1028 H 0.97831 0.81146 0.92226 0.0
H1029 H 0.95134 0.84127 0.1041 0.0
H1030 H 0.94933 0.8533 0.20643 0.0
H1031 H 0.00851 0.87373 0.19609 0.0
H1032 H 0.01082 0.86188 0.09384 0.0
H1033 H 0.98362 0.89754 0.75866 0.0
H1034 H 0.96908 0.87366 0.8263 0.0
H1035 H 0.01363 0.88748 0.95395 0.0
H1036 H 0.02677 0.9122 0.88891 0.0
H1037 H 0.98584 0.87713 0.0103 0.0
H1038 H 0.01624 0.84932 0.83843 0.0
H1039 H 0.02089 0.84291 0.73252 0.0
H1040 H 0.96317 0.81869 0.72218 0.0
H1041 H 0.95809 0.82519 0.82792 0.0
C1042 C 0.98713 0.78715 0.11117 0.0
C1043 C 0.9708 0.7751 0.10106 0.0
C1044 C 0.98949 0.80469 0.08084 0.0
C1045 C 0.97569 0.81045 0.03917 0.0
C1046 C 0.95939 0.79855 0.02897 0.0
C1047 C 0.95691 0.78117 0.05973 0.0
C1048 C 0.97888 0.82806 0.00285 0.0
C1049 C 0.97977 0.82588 0.94143 0.0
C1050 C 0.98163 0.84673 0.02773 0.0
C1051 C 0.98128 0.85055 0.09169 0.0
C1052 C 0.96404 0.84791 0.1242 0.0
C1053 C 0.9628 0.85488 0.18195 0.0
C1054 C 0.97875 0.86442 0.20748 0.0
C1055 C 0.99616 0.86643 0.17614 0.0
C1056 C 0.99744 0.85958 0.1184 0.0
C1057 C 0.98957 0.896 0.8024 0.0
C1058 C 0.00628 0.90644 0.81904 0.0
C1059 C 0.98156 0.88213 0.84054 0.0
C1060 C 0.99078 0.87809 0.89427 0.0
C1061 C 0.00629 0.89006 0.9127 0.0
C1062 C 0.0138 0.90426 0.87563 0.0
C1063 C 0.98569 0.86063 0.92964 0.0
C1064 C 0.98444 0.86274 0.99082 0.0
C1065 C 0.98367 0.84179 0.90458 0.0
C1066 C 0.98671 0.83794 0.84095 0.0
C1067 C 0.0045 0.84274 0.81349 0.0
C1068 C 0.00722 0.83907 0.7535 0.0
C1069 C 0.99232 0.83043 0.72062 0.0
C1070 C 0.97468 0.82541 0.74768 0.0
C1071 C 0.97188 0.82908 0.80763 0.0
H1072 H 0.99445 0.82759 0.6742 0.0
H1073 H 0.97765 0.87044 0.25136 0.0
H1074 H 0.7199 0.95324 0.15305 0.0
H1075 H 0.69101 0.95761 0.09053 0.0
H1076 H 0.72248 0.00042 0.98856 0.0
H1077 H 0.75114 0.996 0.05064 0.0
H1078 H 0.68657 0.01289 0.02417 0.0
H1079 H 0.71477 0.95447 0.93215 0.0
H1080 H 0.72472 0.92016 0.92211 0.0
H1081 H 0.66813 0.90142 0.98122 0.0
H1082 H 0.65793 0.93562 0.99186 0.0
H1083 H 0.62013 0.0321 0.80755 0.0
H1084 H 0.65182 0.02098 0.84337 0.0
H1085 H 0.6239 0.96958 0.91453 0.0
H1086 H 0.59302 0.97989 0.87431 0.0
H1087 H 0.65761 0.96133 0.89829 0.0
H1088 H 0.62749 0.01742 0.99074 0.0
H1089 H 0.61501 0.05094 0.99937 0.0
H1090 H 0.67102 0.07363 0.94871 0.0
H1091 H 0.68377 0.04027 0.93933 0.0
C1092 C 0.72051 0.96342 0.11687 0.0
C1093 C 0.73748 0.97424 0.1057 0.0
C1094 C 0.70416 0.96586 0.08134 0.0
C1095 C 0.70479 0.97923 0.0349 0.0
C1096 C 0.72182 0.99002 0.02417 0.0
C1097 C 0.73811 0.98749 0.0593 0.0
C1098 C 0.68761 0.98272 0.99829 0.0
C1099 C 0.68022 0.00168 0.99634 0.0
C1100 C 0.67894 0.9679 0.96404 0.0
C1101 C 0.68576 0.94754 0.96377 0.0
C1102 C 0.70462 0.94302 0.94411 0.0
C1103 C 0.71023 0.9236 0.93787 0.0
C1104 C 0.69709 0.90862 0.95117 0.0
C1105 C 0.67833 0.91302 0.97111 0.0
C1106 C 0.67263 0.93241 0.97732 0.0
C1107 C 0.62122 0.01791 0.8278 0.0
C1108 C 0.60449 0.00691 0.84008 0.0
C1109 C 0.63911 0.01177 0.84924 0.0
C1110 C 0.63988 0.99511 0.88465 0.0
C1111 C 0.62359 0.98272 0.88848 0.0
C1112 C 0.60596 0.98852 0.86534 0.0
C1113 C 0.65655 0.99157 0.9234 0.0
C1114 C 0.66375 0.9726 0.92637 0.0
C1115 C 0.6645 0.00628 0.9602 0.0
C1116 C 0.65654 0.02633 0.96385 0.0
C1117 C 0.63709 0.02955 0.98098 0.0
C1118 C 0.62998 0.04853 0.98615 0.0
C1119 C 0.64221 0.0644 0.97458 0.0
C1120 C 0.66156 0.06134 0.95765 0.0
C1121 C 0.66873 0.0424 0.95241 0.0
H1122 H 0.63671 0.07908 0.97877 0.0
H1123 H 0.70144 0.8936 0.94591 0.0
H1124 H 0.53797 0.75873 0.01815 0.0
H1125 H 0.53344 0.72836 0.96324 0.0
H1126 H 0.5356 0.69594 0.12498 0.0
H1127 H 0.5403 0.72657 0.18011 0.0
H1128 H 0.55721 0.67838 0.03243 0.0
H1129 H 0.49304 0.70337 0.06557 0.0
H1130 H 0.46677 0.72769 0.06635 0.0
H1131 H 0.47115 0.73298 0.8788 0.0
H1132 H 0.49771 0.70896 0.87696 0.0
H1133 H 0.50479 0.59635 0.9014 0.0
H1134 H 0.52069 0.62143 0.96189 0.0
H1135 H 0.52234 0.6599 0.81257 0.0
H1136 H 0.50634 0.63493 0.75251 0.0
H1137 H 0.49871 0.67234 0.90611 0.0
H1138 H 0.563 0.64817 0.87157 0.0
H1139 H 0.58691 0.62158 0.86734 0.0
H1140 H 0.5809 0.61312 0.0534 0.0
H1141 H 0.5566 0.63943 0.05857 0.0
C1142 C 0.53735 0.74512 0.04193 0.0
C1143 C 0.53892 0.74494 0.10334 0.0
C1144 C 0.53481 0.7278 0.01062 0.0
C1145 C 0.53398 0.7099 0.04007 0.0
C1146 C 0.53607 0.7096 0.10147 0.0
C1147 C 0.53842 0.72706 0.13298 0.0
C1148 C 0.53024 0.69178 0.00612 0.0
C1149 C 0.54431 0.67692 0.00538 0.0
C1150 C 0.51351 0.68998 0.97026 0.0
C1151 C 0.49756 0.70452 0.97126 0.0
C1152 C 0.48855 0.70986 0.02455 0.0
C1153 C 0.47358 0.72357 0.02517 0.0
C1154 C 0.46734 0.73192 0.97269 0.0
C1155 C 0.47603 0.72653 0.91944 0.0
C1156 C 0.49105 0.71287 0.91859 0.0
C1157 C 0.50942 0.60985 0.88112 0.0
C1158 C 0.50417 0.61406 0.82309 0.0
C1159 C 0.51841 0.62415 0.91557 0.0
C1160 C 0.52227 0.64258 0.89175 0.0
C1161 C 0.51924 0.6458 0.83167 0.0
C1162 C 0.51022 0.63158 0.79743 0.0
C1163 C 0.52593 0.65938 0.93084 0.0
C1164 C 0.51166 0.67385 0.93303 0.0
C1165 C 0.5424 0.66074 0.96758 0.0
C1166 C 0.55786 0.64571 0.96543 0.0
C1167 C 0.56671 0.64061 0.91161 0.0
C1168 C 0.58032 0.62556 0.90899 0.0
C1169 C 0.58538 0.61563 0.96005 0.0
C1170 C 0.57694 0.62082 0.01388 0.0
C1171 C 0.56326 0.63582 0.0167 0.0
H1172 H 0.59588 0.60395 0.95794 0.0
H1173 H 0.45574 0.74253 0.97327 0.0
H1174 H 0.75796 0.55579 0.01929 0.0
H1175 H 0.78831 0.55111 0.96444 0.0
H1176 H 0.81437 0.52479 0.11652 0.0
H1177 H 0.78396 0.52951 0.17126 0.0
H1178 H 0.83935 0.55187 0.05859 0.0
H1179 H 0.79958 0.4965 0.01493 0.0
H1180 H 0.77007 0.47865 0.98416 0.0
H1181 H 0.77361 0.50484 0.8135 0.0
H1182 H 0.8029 0.52322 0.84367 0.0
H1183 H 0.91425 0.49938 0.90716 0.0
H1184 H 0.88948 0.51463 0.96934 0.0
H1185 H 0.86006 0.53537 0.81454 0.0
H1186 H 0.88458 0.51947 0.75246 0.0
H1187 H 0.83757 0.51173 0.87685 0.0
H1188 H 0.8782 0.56696 0.92107 0.0
H1189 H 0.90976 0.58146 0.94941 0.0
H1190 H 0.90639 0.55298 0.11671 0.0
H1191 H 0.87491 0.53806 0.08903 0.0
C1192 C 0.77015 0.54902 0.0411 0.0
C1193 C 0.7685 0.54277 0.09962 0.0
C1194 C 0.78747 0.54636 0.00973 0.0
C1195 C 0.80354 0.53757 0.03644 0.0
C1196 C 0.80211 0.53162 0.09515 0.0
C1197 C 0.78465 0.53406 0.12625 0.0
C1198 C 0.82149 0.53398 0.00192 0.0
C1199 C 0.83904 0.54301 0.01902 0.0
C1200 C 0.82099 0.52251 0.95016 0.0
C1201 C 0.8033 0.51149 0.93193 0.0
C1202 C 0.79394 0.49866 0.97109 0.0
C1203 C 0.77726 0.48841 0.95371 0.0
C1204 C 0.76991 0.49068 0.897 0.0
C1205 C 0.77927 0.50315 0.85748 0.0
C1206 C 0.79591 0.51351 0.87473 0.0
C1207 C 0.90295 0.50797 0.88683 0.0
C1208 C 0.90102 0.50828 0.82558 0.0
C1209 C 0.88882 0.51668 0.92223 0.0
C1210 C 0.87283 0.52596 0.89646 0.0
C1211 C 0.87223 0.52815 0.83515 0.0
C1212 C 0.88624 0.51924 0.79979 0.0
C1213 C 0.85528 0.53018 0.93209 0.0
C1214 C 0.83783 0.52094 0.91574 0.0
C1215 C 0.85598 0.54133 0.9844 0.0
C1216 C 0.87419 0.55136 0.00293 0.0
C1217 C 0.88417 0.56381 0.96396 0.0
C1218 C 0.90207 0.57206 0.97983 0.0
C1219 C 0.91009 0.56812 0.0348 0.0
C1220 C 0.90015 0.55602 0.07416 0.0
C1221 C 0.88224 0.54771 0.05847 0.0
H1222 H 0.92399 0.57445 0.04692 0.0
H1223 H 0.75701 0.48271 0.88361 0.0
H1224 H 0.07236 0.20505 0.88072 0.0
H1225 H 0.0653 0.17275 0.84047 0.0
H1226 H 0.00701 0.19104 0.7973 0.0
H1227 H 0.0137 0.22298 0.84149 0.0
H1228 H 0.00505 0.15666 0.83932 0.0
H1229 H 0.04439 0.18471 0.68795 0.0
H1230 H 0.07309 0.20386 0.65669 0.0
H1231 H 0.11099 0.15972 0.72339 0.0
H1232 H 0.08247 0.14037 0.75548 0.0
H1233 H 0.98519 0.07303 0.65931 0.0
H1234 H 0.99088 0.10618 0.69563 0.0
H1235 H 0.04827 0.08983 0.75308 0.0
H1236 H 0.04277 0.05676 0.71638 0.0
H1237 H 0.05018 0.12427 0.69935 0.0
H1238 H 0.00943 0.09707 0.85269 0.0
H1239 H 0.9807 0.08232 0.90093 0.0
H1240 H 0.94449 0.1279 0.83449 0.0
H1241 H 0.97298 0.14282 0.78542 0.0
C1242 C 0.05812 0.20221 0.86199 0.0
C1243 C 0.04364 0.21654 0.86349 0.0
C1244 C 0.05409 0.18375 0.83876 0.0
C1245 C 0.03572 0.17944 0.81437 0.0
C1246 C 0.0213 0.1939 0.81557 0.0
C1247 C 0.02516 0.21219 0.84046 0.0
C1248 C 0.03145 0.15975 0.78894 0.0
C1249 C 0.0147 0.14975 0.8077 0.0
C1250 C 0.04418 0.15052 0.7485 0.0
C1251 C 0.0613 0.16106 0.72397 0.0
C1252 C 0.05885 0.17901 0.69548 0.0
C1253 C 0.07508 0.18995 0.67788 0.0
C1254 C 0.09386 0.18302 0.68812 0.0
C1255 C 0.09643 0.16505 0.71542 0.0
C1256 C 0.08024 0.15404 0.73308 0.0
C1257 C 0.999 0.07641 0.67998 0.0
C1258 C 0.01345 0.06202 0.68503 0.0
C1259 C 0.00223 0.09544 0.70098 0.0
C1260 C 0.01998 0.10065 0.72779 0.0
C1261 C 0.03445 0.08633 0.73265 0.0
C1262 C 0.03123 0.06731 0.71172 0.0
C1263 C 0.02363 0.12101 0.74982 0.0
C1264 C 0.04033 0.13122 0.73028 0.0
C1265 C 0.01062 0.13061 0.78896 0.0
C1266 C 0.99328 0.12086 0.81461 0.0
C1267 C 0.99529 0.10376 0.84756 0.0
C1268 C 0.97906 0.09544 0.87535 0.0
C1269 C 0.96078 0.10414 0.87065 0.0
C1270 C 0.95865 0.12115 0.83798 0.0
C1271 C 0.97482 0.12952 0.81014 0.0
H1272 H 0.94826 0.09772 0.89241 0.0
H1273 H 0.10641 0.19156 0.67483 0.0
H1274 H 0.30349 0.02149 0.89729 0.0
H1275 H 0.33141 0.01212 0.83669 0.0
H1276 H 0.33218 0.06905 0.75766 0.0
H1277 H 0.30367 0.07815 0.81562 0.0
H1278 H 0.3476 0.04277 0.68426 0.0
H1279 H 0.3585 0.06324 0.88798 0.0
H1280 H 0.34433 0.0594 0.98735 0.0
H1281 H 0.35557 0.99802 0.97817 0.0
H1282 H 0.37093 0.0018 0.88242 0.0
H1283 H 0.45028 0.05045 0.63646 0.0
H1284 H 0.41714 0.0569 0.67251 0.0
H1285 H 0.41568 0.00047 0.75497 0.0
H1286 H 0.44939 0.99483 0.72336 0.0
H1287 H 0.40032 0.02736 0.82533 0.0
H1288 H 0.38929 0.00999 0.61323 0.0
H1289 H 0.39463 0.01524 0.50721 0.0
H1290 H 0.38097 0.07579 0.52819 0.0
H1291 H 0.37512 0.07074 0.63412 0.0
C1292 C 0.30914 0.03175 0.86538 0.0
C1293 C 0.30196 0.05082 0.86263 0.0
C1294 C 0.32518 0.02643 0.8311 0.0
C1295 C 0.3344 0.04026 0.79497 0.0
C1296 C 0.32555 0.05832 0.78628 0.0
C1297 C 0.30935 0.06355 0.8198 0.0
C1298 C 0.3547 0.03735 0.77456 0.0
C1299 C 0.35914 0.03942 0.71498 0.0
C1300 C 0.36989 0.03374 0.81483 0.0
C1301 C 0.36591 0.03277 0.87843 0.0
C1302 C 0.35871 0.04911 0.90884 0.0
C1303 C 0.35048 0.04696 0.96474 0.0
C1304 C 0.34926 0.02853 0.99005 0.0
C1305 C 0.35705 0.01243 0.96056 0.0
C1306 C 0.36579 0.01459 0.90569 0.0
C1307 C 0.44284 0.03956 0.66265 0.0
C1308 C 0.45203 0.022 0.67606 0.0
C1309 C 0.42388 0.04312 0.68263 0.0
C1310 C 0.41367 0.0289 0.71476 0.0
C1311 C 0.42317 0.01155 0.72961 0.0
C1312 C 0.44234 0.00828 0.71124 0.0
C1313 C 0.39328 0.03218 0.73418 0.0
C1314 C 0.38885 0.03059 0.79422 0.0
C1315 C 0.37827 0.0371 0.69442 0.0
C1316 C 0.38191 0.04002 0.63121 0.0
C1317 C 0.38741 0.02439 0.59502 0.0
C1318 C 0.39036 0.02731 0.5349 0.0
C1319 C 0.38793 0.0458 0.51074 0.0
C1320 C 0.38261 0.06143 0.54674 0.0
C1321 C 0.37938 0.05854 0.6067 0.0
H1322 H 0.39027 0.04807 0.46425 0.0
H1323 H 0.34188 0.02673 0.03173 0.0
H1324 H 0.4328 0.31884 0.86577 0.0
H1325 H 0.44287 0.34851 0.81848 0.0
H1326 H 0.50209 0.32781 0.80829 0.0
H1327 H 0.49224 0.29824 0.86135 0.0
H1328 H 0.50184 0.36389 0.84382 0.0
H1329 H 0.47219 0.33251 0.67883 0.0
H1330 H 0.44606 0.31152 0.63918 0.0
H1331 H 0.40353 0.35474 0.68433 0.0
H1332 H 0.42944 0.376 0.72436 0.0
H1333 H 0.5264 0.44643 0.66574 0.0
H1334 H 0.52066 0.4136 0.70345 0.0
H1335 H 0.46063 0.42792 0.73874 0.0
H1336 H 0.46624 0.46081 0.70153 0.0
H1337 H 0.46339 0.39307 0.6828 0.0
H1338 H 0.4931 0.42317 0.85225 0.0
H1339 H 0.51747 0.43973 0.91452 0.0
H1340 H 0.55975 0.39615 0.87019 0.0
H1341 H 0.53569 0.37945 0.80718 0.0
C1342 C 0.44795 0.32034 0.85293 0.0
C1343 C 0.46172 0.30622 0.86779 0.0
C1344 C 0.45368 0.33735 0.82508 0.0
C1345 C 0.47316 0.34032 0.80826 0.0
C1346 C 0.48694 0.32582 0.82056 0.0
C1347 C 0.48127 0.30888 0.85038 0.0
C1348 C 0.47892 0.35917 0.78123 0.0
C1349 C 0.49387 0.37007 0.80735 0.0
C1350 C 0.46808 0.36744 0.7349 0.0
C1351 C 0.45279 0.35592 0.70413 0.0
C1352 C 0.4573 0.33765 0.67953 0.0
C1353 C 0.44251 0.32566 0.65733 0.0
C1354 C 0.42315 0.3318 0.65924 0.0
C1355 C 0.41855 0.35005 0.68269 0.0
C1356 C 0.4333 0.36215 0.70476 0.0
C1357 C 0.51199 0.44269 0.68184 0.0
C1358 C 0.49682 0.4564 0.68049 0.0
C1359 C 0.50875 0.42387 0.70367 0.0
C1360 C 0.49023 0.41823 0.72436 0.0
C1361 C 0.47505 0.43186 0.72308 0.0
C1362 C 0.47832 0.45073 0.70181 0.0
C1363 C 0.48654 0.39795 0.7453 0.0
C1364 C 0.4718 0.38678 0.71811 0.0
C1365 C 0.49777 0.38933 0.79037 0.0
C1366 C 0.51269 0.40027 0.82414 0.0
C1367 C 0.5077 0.41733 0.8549 0.0
C1368 C 0.52142 0.42666 0.89068 0.0
C1369 C 0.54017 0.41903 0.89618 0.0
C1370 C 0.54525 0.40209 0.86577 0.0
C1371 C 0.53159 0.3927 0.82998 0.0
H1372 H 0.55074 0.42623 0.92411 0.0
H1373 H 0.4117 0.32242 0.64252 0.0
H1374 H 0.21809 0.465 0.77933 0.0
H1375 H 0.18886 0.47967 0.7364 0.0
H1376 H 0.16522 0.4889 0.91015 0.0
H1377 H 0.19416 0.47484 0.95318 0.0
H1378 H 0.14485 0.46177 0.8364 0.0
H1379 H 0.17083 0.52616 0.83739 0.0
H1380 H 0.19628 0.55051 0.81522 0.0
H1381 H 0.18824 0.54078 0.63034 0.0
H1382 H 0.16293 0.51608 0.65144 0.0
H1383 H 0.04915 0.49321 0.76796 0.0
H1384 H 0.08175 0.48834 0.80762 0.0
H1385 H 0.10656 0.49971 0.63635 0.0
H1386 H 0.07391 0.50584 0.59787 0.0
H1387 H 0.12787 0.51715 0.70827 0.0
H1388 H 0.10223 0.45125 0.71052 0.0
H1389 H 0.08213 0.42258 0.73583 0.0
H1390 H 0.09257 0.43275 0.91937 0.0
H1391 H 0.11242 0.46164 0.89529 0.0
C1392 C 0.20686 0.47062 0.8083 0.0
C1393 C 0.20801 0.46799 0.86948 0.0
C1394 C 0.19028 0.47911 0.78377 0.0
C1395 C 0.17479 0.48495 0.82027 0.0
C1396 C 0.17696 0.48429 0.88135 0.0
C1397 C 0.1935 0.47608 0.90578 0.0
C1398 C 0.15512 0.48802 0.7959 0.0
C1399 C 0.14091 0.47405 0.80913 0.0
C1400 C 0.15047 0.5037 0.75906 0.0
C1401 C 0.16507 0.51914 0.74599 0.0
C1402 C 0.17455 0.52912 0.79197 0.0
C1403 C 0.18896 0.54299 0.77963 0.0
C1404 C 0.19392 0.54715 0.7214 0.0
C1405 C 0.18439 0.53752 0.67543 0.0
C1406 C 0.16999 0.5236 0.68755 0.0
C1407 C 0.06152 0.49458 0.73878 0.0
C1408 C 0.05891 0.50003 0.67991 0.0
C1409 C 0.08027 0.49163 0.76137 0.0
C1410 C 0.09687 0.49336 0.72504 0.0
C1411 C 0.09416 0.49838 0.66573 0.0
C1412 C 0.07546 0.50186 0.64363 0.0
C1413 C 0.11701 0.4908 0.74907 0.0
C1414 C 0.13151 0.50486 0.73569 0.0
C1415 C 0.122 0.47511 0.78648 0.0
C1416 C 0.10854 0.45883 0.80101 0.0
C1417 C 0.09992 0.4476 0.75629 0.0
C1418 C 0.08867 0.43123 0.77045 0.0
C1419 C 0.08603 0.42588 0.82916 0.0
C1420 C 0.09456 0.43694 0.87392 0.0
C1421 C 0.10576 0.45333 0.86003 0.0
H1422 H 0.0774 0.41315 0.83995 0.0
H1423 H 0.2051 0.55787 0.71191 0.0
H1424 H 0.98861 0.7944 0.43721 0.0
H1425 H 0.98184 0.82647 0.48007 0.0
H1426 H 0.96408 0.84734 0.31085 0.0
H1427 H 0.97155 0.81584 0.26662 0.0
H1428 H 0.00072 0.86361 0.3626 0.0
H1429 H 0.93318 0.85344 0.39828 0.0
H1430 H 0.90557 0.83372 0.43447 0.0
H1431 H 0.92732 0.83841 0.61068 0.0
H1432 H 0.95527 0.85797 0.57532 0.0
H1433 H 0.9926 0.96455 0.44132 0.0
H1434 H 0.98662 0.93188 0.40063 0.0
H1435 H 0.98998 0.90764 0.57475 0.0
H1436 H 0.99603 0.94 0.61538 0.0
H1437 H 0.95882 0.893 0.51691 0.0
H1438 H 0.02712 0.90247 0.47893 0.0
H1439 H 0.05819 0.91509 0.43932 0.0
H1440 H 0.03694 0.90786 0.26333 0.0
H1441 H 0.00561 0.89552 0.30184 0.0
C1442 C 0.98298 0.80574 0.40923 0.0
C1443 C 0.9816 0.80297 0.34814 0.0
C1444 C 0.97897 0.82397 0.43386 0.0
C1445 C 0.97336 0.83938 0.3976 0.0
C1446 C 0.96932 0.83578 0.33839 0.0
C1447 C 0.97349 0.81774 0.31355 0.0
C1448 C 0.97561 0.85966 0.418 0.0
C1449 C 0.99133 0.87033 0.39535 0.0
C1450 C 0.96366 0.86786 0.46185 0.0
C1451 C 0.94635 0.85712 0.48415 0.0
C1452 C 0.93209 0.85025 0.44477 0.0
C1453 C 0.9164 0.83908 0.46508 0.0
C1454 C 0.9147 0.83479 0.52484 0.0
C1455 C 0.92865 0.84176 0.5644 0.0
C1456 C 0.94441 0.85294 0.54427 0.0
C1457 C 0.99195 0.95228 0.47086 0.0
C1458 C 0.99472 0.95494 0.5316 0.0
C1459 C 0.98868 0.93358 0.44755 0.0
C1460 C 0.98786 0.91727 0.48466 0.0
C1461 C 0.99048 0.91996 0.54524 0.0
C1462 C 0.99402 0.93852 0.56835 0.0
C1463 C 0.98402 0.89739 0.46091 0.0
C1464 C 0.96808 0.88661 0.48334 0.0
C1465 C 0.99584 0.88901 0.41632 0.0
C1466 C 0.01385 0.89841 0.39342 0.0
C1467 C 0.02888 0.904 0.43185 0.0
C1468 C 0.04661 0.91097 0.40956 0.0
C1469 C 0.04953 0.91228 0.3489 0.0
C1470 C 0.03465 0.90687 0.31033 0.0
C1471 C 0.01689 0.89994 0.33237 0.0
H1472 H 0.06339 0.91736 0.33183 0.0
H1473 H 0.90257 0.82608 0.54049 0.0
H1474 H 0.71675 0.96327 0.44327 0.0
H1475 H 0.68219 0.9641 0.46826 0.0
H1476 H 0.67042 0.99466 0.30712 0.0
H1477 H 0.70516 0.99453 0.28324 0.0
H1478 H 0.65475 0.01291 0.39648 0.0
H1479 H 0.65362 0.94686 0.33209 0.0
H1480 H 0.66651 0.9135 0.32668 0.0
H1481 H 0.65718 0.90663 0.51216 0.0
H1482 H 0.6444 0.94008 0.51884 0.0
H1483 H 0.55138 0.01226 0.44436 0.0
H1484 H 0.58428 0.00715 0.40422 0.0
H1485 H 0.60126 0.9793 0.56527 0.0
H1486 H 0.56859 0.98468 0.60586 0.0
H1487 H 0.61384 0.95851 0.47034 0.0
H1488 H 0.61786 0.02498 0.53521 0.0
H1489 H 0.61203 0.06021 0.5447 0.0
H1490 H 0.61911 0.06696 0.3583 0.0
H1491 H 0.62518 0.03178 0.34777 0.0
C1492 C 0.70672 0.96987 0.41265 0.0
C1493 C 0.71372 0.97893 0.3617 0.0
C1494 C 0.68692 0.97021 0.42677 0.0
C1495 C 0.67357 0.97933 0.38948 0.0
C1496 C 0.68042 0.98755 0.33669 0.0
C1497 C 0.70035 0.98739 0.32285 0.0
C1498 C 0.65294 0.98199 0.40872 0.0
C1499 C 0.64557 0.00093 0.41101 0.0
C1500 C 0.64129 0.96646 0.43006 0.0
C1501 C 0.64806 0.946 0.42597 0.0
C1502 C 0.65431 0.93824 0.37175 0.0
C1503 C 0.66162 0.91933 0.36846 0.0
C1504 C 0.66268 0.90796 0.41906 0.0
C1505 C 0.65633 0.91546 0.473 0.0
C1506 C 0.64899 0.93438 0.47654 0.0
C1507 C 0.5621 0.00497 0.47108 0.0
C1508 C 0.55726 0.99879 0.52818 0.0
C1509 C 0.58098 0.00219 0.44828 0.0
C1510 C 0.59539 0.99289 0.48168 0.0
C1511 C 0.59049 0.9865 0.53847 0.0
C1512 C 0.57176 0.98962 0.56168 0.0
C1513 C 0.61542 0.98956 0.45716 0.0
C1514 C 0.62279 0.97045 0.45449 0.0
C1515 C 0.62714 0.00497 0.43514 0.0
C1516 C 0.62154 0.02568 0.44059 0.0
C1517 C 0.61776 0.0339 0.49611 0.0
C1518 C 0.61457 0.05389 0.50172 0.0
C1519 C 0.61496 0.06578 0.45207 0.0
C1520 C 0.61866 0.05772 0.39669 0.0
C1521 C 0.62201 0.03777 0.39089 0.0
H1522 H 0.61252 0.08126 0.45658 0.0
H1523 H 0.66839 0.89333 0.41645 0.0
H1524 H 0.53222 0.72472 0.43452 0.0
H1525 H 0.53809 0.69246 0.47709 0.0
H1526 H 0.53587 0.66676 0.30398 0.0
H1527 H 0.53039 0.69849 0.26133 0.0
H1528 H 0.5049 0.65689 0.38589 0.0
H1529 H 0.57378 0.66008 0.36503 0.0
H1530 H 0.60541 0.67665 0.37806 0.0
H1531 H 0.59965 0.67179 0.56539 0.0
H1532 H 0.56771 0.65552 0.55352 0.0
H1533 H 0.50799 0.55566 0.442 0.0
H1534 H 0.51502 0.58809 0.40396 0.0
H1535 H 0.5281 0.60803 0.57946 0.0
H1536 H 0.52117 0.57522 0.61752 0.0
H1537 H 0.55514 0.62192 0.49948 0.0
H1538 H 0.48484 0.619 0.515 0.0
H1539 H 0.45058 0.60956 0.49815 0.0
H1540 H 0.45828 0.61747 0.3124 0.0
H1541 H 0.49266 0.62662 0.32798 0.0
C1542 C 0.53349 0.71224 0.40556 0.0
C1543 C 0.52994 0.71394 0.34498 0.0
C1544 C 0.537 0.69389 0.42982 0.0
C1545 C 0.53701 0.6773 0.39354 0.0
C1546 C 0.53572 0.67941 0.33258 0.0
C1547 C 0.53237 0.69758 0.30845 0.0
C1548 C 0.53415 0.65774 0.41862 0.0
C1549 C 0.51597 0.649 0.40988 0.0
C1550 C 0.54853 0.648 0.45099 0.0
C1551 C 0.56825 0.65669 0.45844 0.0
C1552 C 0.57919 0.66262 0.40907 0.0
C1553 C 0.59717 0.67198 0.41621 0.0
C1554 C 0.60451 0.67533 0.47254 0.0
C1555 C 0.59392 0.6692 0.52179 0.0
C1556 C 0.57588 0.65988 0.51488 0.0
C1557 C 0.51246 0.56682 0.47245 0.0
C1558 C 0.51403 0.56281 0.53273 0.0
C1559 C 0.51637 0.58548 0.4507 0.0
C1560 C 0.522 0.60063 0.48881 0.0
C1561 C 0.5238 0.59662 0.5491 0.0
C1562 C 0.51973 0.57792 0.57087 0.0
C1563 C 0.52573 0.62062 0.46571 0.0
C1564 C 0.54407 0.62959 0.47504 0.0
C1565 C 0.51152 0.63063 0.43253 0.0
C1566 C 0.49147 0.62312 0.42268 0.0
C1567 C 0.47937 0.6183 0.47047 0.0
C1568 C 0.45987 0.61314 0.46115 0.0
C1569 C 0.45228 0.61285 0.40424 0.0
C1570 C 0.46419 0.61762 0.35644 0.0
C1571 C 0.48369 0.62273 0.3655 0.0
H1572 H 0.43715 0.60898 0.39721 0.0
H1573 H 0.61841 0.68262 0.47802 0.0
H1574 H 0.78962 0.53548 0.43962 0.0
H1575 H 0.82244 0.54134 0.47926 0.0
H1576 H 0.84647 0.53844 0.30402 0.0
H1577 H 0.81415 0.53303 0.26419 0.0
H1578 H 0.85738 0.50804 0.38505 0.0
H1579 H 0.85451 0.57662 0.36426 0.0
H1580 H 0.83785 0.60802 0.37729 0.0
H1581 H 0.84258 0.60282 0.56464 0.0
H1582 H 0.85898 0.57114 0.55275 0.0
H1583 H 0.95951 0.51241 0.44039 0.0
H1584 H 0.92672 0.51868 0.40225 0.0
H1585 H 0.90669 0.53198 0.5778 0.0
H1586 H 0.93954 0.52551 0.6159 0.0
H1587 H 0.89286 0.55878 0.49808 0.0
H1588 H 0.89519 0.48867 0.51365 0.0
H1589 H 0.90448 0.45447 0.49677 0.0
H1590 H 0.89688 0.46165 0.31093 0.0
H1591 H 0.88783 0.49594 0.32659 0.0
C1592 C 0.80187 0.53657 0.40957 0.0
C1593 C 0.79948 0.53286 0.34921 0.0
C1594 C 0.82054 0.54006 0.43216 0.0
C1595 C 0.83682 0.53987 0.39448 0.0
C1596 C 0.83408 0.53839 0.33374 0.0
C1597 C 0.81557 0.5351 0.31123 0.0
C1598 C 0.85666 0.5373 0.41805 0.0
C1599 C 0.86538 0.51923 0.40884 0.0
C1600 C 0.86659 0.55182 0.45016 0.0
C1601 C 0.85792 0.57144 0.45768 0.0
C1602 C 0.85197 0.58214 0.4083 0.0
C1603 C 0.84254 0.59997 0.41544 0.0
C1604 C 0.83912 0.60739 0.47178 0.0
C1605 C 0.84524 0.59704 0.52103 0.0
C1606 C 0.85465 0.57914 0.51412 0.0
C1607 C 0.94811 0.51668 0.4707 0.0
C1608 C 0.95203 0.51848 0.53103 0.0
C1609 C 0.92933 0.5202 0.44898 0.0
C1610 C 0.91411 0.52577 0.4871 0.0
C1611 C 0.91813 0.52777 0.54741 0.0
C1612 C 0.93686 0.524 0.5692 0.0
C1613 C 0.89404 0.52933 0.46412 0.0
C1614 C 0.8851 0.54759 0.47372 0.0
C1615 C 0.88385 0.515 0.43111 0.0
C1616 C 0.89124 0.49501 0.42129 0.0
C1617 C 0.89592 0.48309 0.46911 0.0
C1618 C 0.90099 0.46363 0.45976 0.0
C1619 C 0.90134 0.45591 0.4028 0.0
C1620 C 0.89668 0.46765 0.355 0.0
C1621 C 0.89163 0.4871 0.36409 0.0
H1622 H 0.90518 0.44083 0.39572 0.0
H1623 H 0.83178 0.62118 0.47727 0.0
loop_
_geom_bond_atom_site_label_1
_geom_bond_atom_site_label_2
_geom_bond_distance
_geom_bond_site_symmetry_2
_ccdc_geom_bond_type
O0 Cd1 2.300 . S
O0 C7 1.275 . S
Cd1 O0 2.300 . S
Cd1 O9 2.381 . S
Cd1 O10 2.378 . S
O2 Cd3 2.385 . S
O2 C7 1.255 . S
Cd3 O2 2.385 . S
Cd3 O4 2.317 . S
O4 Cd3 2.317 . S
O4 C5 1.232 . S
C5 O4 1.232 . S
C5 O6 1.218 . S
O6 C5 1.218 . S
C7 O0 1.275 . S
C7 O2 1.255 . S
C8 O9 1.258 . S
C8 O10 1.256 . S
O9 Cd1 2.381 . S
O9 C8 1.258 . S
O10 Cd1 2.378 . S
O10 C8 1.256 . S
O11 Cd12 2.300 . S
O11 C18 1.275 . S
Cd12 O11 2.300 . S
Cd12 O20 2.381 . S
Cd12 O21 2.378 . S
O13 Cd14 2.385 1_655 S
O13 C18 1.255 . S
Cd14 O13 2.385 1_455 S
Cd14 O15 2.317 1_455 S
O15 Cd14 2.317 1_655 S
O15 C16 1.232 . S
C16 O15 1.232 . S
C16 O17 1.218 . S
O17 C16 1.218 . S
C18 O11 1.275 . S
C18 O13 1.255 . S
C19 O20 1.258 . S
C19 O21 1.256 . S
O20 Cd12 2.381 . S
O20 C19 1.258 . S
O21 Cd12 2.378 . S
O21 C19 1.256 . S
O22 Cd23 2.300 . S
O22 C29 1.275 . S
Cd23 O22 2.300 . S
Cd23 O31 2.381 . S
Cd23 O32 2.378 . S
O24 Cd25 2.385 1_565 S
O24 C29 1.255 . S
Cd25 O24 2.385 1_545 S
Cd25 O26 2.317 1_545 S
O26 Cd25 2.317 1_565 S
O26 C27 1.232 . S
C27 O26 1.232 . S
C27 O28 1.218 . S
O28 C27 1.218 . S
C29 O22 1.275 . S
C29 O24 1.255 . S
C30 O31 1.258 . S
C30 O32 1.256 . S
O31 Cd23 2.381 . S
O31 C30 1.258 . S
O32 Cd23 2.378 . S
O32 C30 1.256 . S
O33 Cd34 2.300 . S
O33 C40 1.275 . S
Cd34 O33 2.300 . S
Cd34 O42 2.381 . S
Cd34 O43 2.378 . S
O35 Cd36 2.385 . S
O35 C40 1.255 . S
Cd36 O35 2.385 . S
Cd36 O37 2.317 . S
O37 Cd36 2.317 . S
O37 C38 1.232 . S
C38 O37 1.232 . S
C38 O39 1.218 . S
O39 C38 1.218 . S
C40 O33 1.275 . S
C40 O35 1.255 . S
C41 O42 1.258 . S
C41 O43 1.256 . S
O42 Cd34 2.381 . S
O42 C41 1.258 . S
O43 Cd34 2.378 . S
O43 C41 1.256 . S
O44 Cd45 2.300 . S
O44 C51 1.275 . S
Cd45 O44 2.300 . S
Cd45 O53 2.381 . S
Cd45 O54 2.378 . S
O46 Cd47 2.385 1_554 S
O46 C51 1.255 . S
Cd47 O46 2.385 1_556 S
Cd47 O48 2.317 . S
O48 Cd47 2.317 . S
O48 C49 1.232 . S
C49 O48 1.232 . S
C49 O50 1.218 . S
O50 C49 1.218 . S
C51 O44 1.275 . S
C51 O46 1.255 . S
C52 O53 1.258 . S
C52 O54 1.256 . S
O53 Cd45 2.381 . S
O53 C52 1.258 . S
O54 Cd45 2.378 . S
O54 C52 1.256 . S
O55 Cd56 2.300 . S
O55 C62 1.275 . S
Cd56 O55 2.300 . S
Cd56 O64 2.381 . S
Cd56 O65 2.378 . S
O57 Cd58 2.385 1_554 S
O57 C62 1.255 . S
Cd58 O57 2.385 1_556 S
Cd58 O59 2.317 . S
O59 Cd58 2.317 . S
O59 C60 1.232 . S
C60 O59 1.232 . S
C60 O61 1.218 . S
O61 C60 1.218 . S
C62 O55 1.275 . S
C62 O57 1.255 . S
C63 O64 1.258 . S
C63 O65 1.256 . S
O64 Cd56 2.381 . S
O64 C63 1.258 . S
O65 Cd56 2.378 . S
O65 C63 1.256 . S
O66 Cd67 2.300 . S
O66 C73 1.275 . S
Cd67 O66 2.300 . S
Cd67 O75 2.381 . S
Cd67 O76 2.378 . S
O68 Cd69 2.385 1_554 S
O68 C73 1.255 . S
Cd69 O68 2.385 1_556 S
Cd69 O70 2.317 . S
O70 Cd69 2.317 . S
O70 C71 1.232 . S
C71 O70 1.232 . S
C71 O72 1.218 . S
O72 C71 1.218 . S
C73 O66 1.275 . S
C73 O68 1.255 . S
C74 O75 1.258 . S
C74 O76 1.256 . S
O75 Cd67 2.381 . S
O75 C74 1.258 . S
O76 Cd67 2.378 . S
O76 C74 1.256 . S
O77 Cd78 2.300 . S
O77 C84 1.275 . S
Cd78 O77 2.300 . S
Cd78 O86 2.381 . S
Cd78 O87 2.378 . S
O79 Cd80 2.385 1_554 S
O79 C84 1.255 . S
Cd80 O79 2.385 1_556 S
Cd80 O81 2.317 . S
O81 Cd80 2.317 . S
O81 C82 1.232 . S
C82 O81 1.232 . S
C82 O83 1.218 . S
O83 C82 1.218 . S
C84 O77 1.275 . S
C84 O79 1.255 . S
C85 O86 1.258 . S
C85 O87 1.256 . S
O86 Cd78 2.381 . S
O86 C85 1.258 . S
O87 Cd78 2.378 . S
O87 C85 1.256 . S
Eu88 N117 2.600 . S
Eu88 N123 2.562 . S
Eu88 O132 2.462 1_655 S
Eu88 O133 2.373 1_545 S
Eu88 O135 2.432 . S
Eu88 O136 2.291 1_655 S
Eu88 O140 2.335 1_655 S
Eu88 O143 2.372 . S
Eu88 C152 2.787 . S
C89 N90 1.365 . S
C89 C92 1.405 . S
C89 C96 1.448 . S
N90 C89 1.365 . S
N90 C93 1.320 . S
N90 Eu99 2.600 1_545 S
C91 C93 1.400 . S
C91 C94 1.367 . S
C91 H111 0.931 . S
C92 C89 1.405 . S
C92 C94 1.403 . S
C92 C98 1.439 . S
C93 N90 1.320 . S
C93 C91 1.400 . S
C93 H104 0.926 1_545 S
C94 C91 1.367 . S
C94 C92 1.403 . S
C94 H115 0.929 . S
C95 C96 1.430 . S
C95 C97 1.387 . S
C95 C101 1.404 . S
C96 C89 1.448 . S
C96 C95 1.430 . S
C96 N100 1.351 . S
C97 C95 1.387 . S
C97 C98 1.374 . S
C97 H112 0.931 . S
C98 C92 1.439 . S
C98 C97 1.374 . S
C98 H113 0.931 . S
Eu99 N90 2.600 1_565 S
Eu99 N100 2.562 1_565 S
Eu99 O134 2.335 . S
Eu99 O137 2.376 . S
Eu99 O138 2.462 . S
Eu99 O139 2.373 1_565 S
Eu99 O141 2.432 . S
Eu99 O142 2.291 1_465 S
Eu99 C163 2.787 . S
N100 C96 1.351 . S
N100 Eu99 2.562 1_545 S
N100 C102 1.325 . S
C101 C95 1.404 . S
C101 C103 1.366 . S
C101 H109 0.930 . S
C102 N100 1.325 . S
C102 C103 1.416 . S
C102 H108 0.929 1_455 S
C103 C101 1.366 . S
C103 C102 1.416 . S
C103 H105 0.930 1_455 S
H104 C93 0.926 1_565 S
H105 C103 0.930 1_655 S
H106 C121 0.930 . S
H107 C128 0.935 . S
H108 C102 0.929 1_655 S
H109 C101 0.930 . S
H110 C124 0.929 . S
H111 C91 0.931 . S
H112 C97 0.931 . S
H113 C98 0.931 . S
H114 C119 0.931 . S
H115 C94 0.929 . S
H116 C127 0.930 . S
N117 Eu88 2.600 . S
N117 C118 1.365 . S
N117 C121 1.319 . S
C118 N117 1.365 . S
C118 C120 1.405 . S
C118 C126 1.448 . S
C119 H114 0.931 . S
C119 C121 1.397 . S
C119 C122 1.367 . S
C120 C118 1.405 . S
C120 C122 1.403 . S
C120 C153 1.439 1_545 S
C121 H106 0.930 . S
C121 N117 1.319 . S
C121 C119 1.397 . S
C122 C119 1.367 . S
C122 C120 1.403 . S
C122 H129 0.920 1_545 S
N123 Eu88 2.562 . S
N123 C124 1.325 1_655 S
N123 C126 1.351 . S
C124 H110 0.929 . S
C124 N123 1.325 1_455 S
C124 C128 1.416 . S
C125 C126 1.430 1_565 S
C125 C127 1.404 . S
C125 C154 1.387 . S
C126 C118 1.448 . S
C126 N123 1.351 . S
C126 C125 1.430 1_545 S
C127 H116 0.930 . S
C127 C125 1.404 . S
C127 C128 1.366 1_665 S
C128 H107 0.935 . S
C128 C124 1.416 . S
C128 C127 1.366 1_445 S
H129 C122 0.920 1_565 S
H130 C153 0.931 . S
H131 C154 0.931 . S
O132 Eu88 2.462 1_455 S
O132 C152 1.252 1_455 S
O133 Eu88 2.373 1_565 S
O133 C144 1.249 . S
O134 Eu99 2.335 . S
O134 C144 1.264 1_455 S
O135 Eu88 2.432 . S
O135 C152 1.268 . S
O136 Eu88 2.291 1_455 S
O136 C151 1.255 . S
O137 Eu99 2.376 . S
O137 C151 1.240 1_565 S
O138 Eu99 2.462 . S
O138 C163 1.252 . S
O139 Eu99 2.373 1_545 S
O139 C155 1.249 . S
O140 Eu88 2.335 1_455 S
O140 C155 1.264 . S
O141 Eu99 2.432 . S
O141 C163 1.268 . S
O142 Eu99 2.291 1_645 S
O142 C162 1.255 . S
O143 Eu88 2.372 . S
O143 C162 1.257 . S
C144 O133 1.249 . S
C144 O134 1.264 1_655 S
C145 C148 1.382 . S
C145 C150 1.390 1_655 S
C145 C152 1.506 . S
C146 C147 1.426 . S
C146 C150 1.389 1_655 S
C147 C146 1.426 . S
C147 C149 1.372 . S
C147 H164 0.931 . S
C148 C145 1.382 . S
C148 C149 1.390 . S
C148 H165 0.931 . S
C149 C147 1.372 . S
C149 C148 1.390 . S
C149 H166 0.929 . S
C150 C145 1.390 1_455 S
C150 C146 1.389 1_455 S
C150 H167 0.930 . S
C151 O136 1.255 . S
C151 O137 1.240 1_545 S
C152 Eu88 2.787 . S
C152 O132 1.252 1_655 S
C152 O135 1.268 . S
C152 C145 1.506 . S
C153 C120 1.439 1_565 S
C153 H130 0.931 . S
C153 C154 1.374 . S
C154 C125 1.387 . S
C154 H131 0.931 . S
C154 C153 1.374 . S
C155 O139 1.249 . S
C155 O140 1.264 . S
C156 C159 1.382 . S
C156 C160 1.390 . S
C156 C163 1.506 . S
C157 C158 1.398 . S
C157 C160 1.392 . S
C158 C157 1.398 . S
C158 C161 1.372 . S
C158 H168 0.931 . S
C159 C156 1.382 . S
C159 C161 1.390 . S
C159 H169 0.931 . S
C160 C156 1.390 . S
C160 C157 1.392 . S
C160 H170 0.930 1_455 S
C161 C158 1.372 . S
C161 C159 1.390 . S
C161 H171 0.929 . S
C162 O142 1.255 . S
C162 O143 1.257 . S
C163 Eu99 2.787 . S
C163 O138 1.252 . S
C163 O141 1.268 . S
C163 C156 1.506 . S
H164 C147 0.931 . S
H165 C148 0.931 . S
H166 C149 0.929 . S
H167 C150 0.930 . S
H168 C158 0.931 . S
H169 C159 0.931 . S
H170 C160 0.930 1_655 S
H171 C161 0.929 . S
Eu172 N201 2.600 . S
Eu172 N207 2.562 . S
Eu172 O216 2.462 . S
Eu172 O217 2.373 . S
Eu172 O219 2.432 . S
Eu172 O220 2.291 . S
Eu172 O224 2.335 1_545 S
Eu172 O227 2.372 . S
Eu172 C236 2.787 . S
C173 N174 1.365 . S
C173 C176 1.405 . S
C173 C180 1.448 . S
N174 C173 1.365 . S
N174 C177 1.319 . S
N174 Eu183 2.600 . S
C175 C177 1.397 . S
C175 C178 1.367 . S
C175 H195 0.931 . S
C176 C173 1.405 . S
C176 C178 1.403 . S
C176 C182 1.439 . S
C177 N174 1.319 . S
C177 C175 1.397 . S
C177 H188 0.930 . S
C178 C175 1.367 . S
C178 C176 1.403 . S
C178 H199 0.929 . S
C179 C180 1.430 . S
C179 C181 1.387 . S
C179 C185 1.404 . S
C180 C173 1.448 . S
C180 C179 1.430 . S
C180 N184 1.351 . S
C181 C179 1.387 . S
C181 C182 1.374 . S
C181 H196 0.931 . S
C182 C176 1.439 . S
C182 C181 1.374 . S
C182 H197 0.931 . S
Eu183 N174 2.600 . S
Eu183 N184 2.562 . S
Eu183 O218 2.335 1_565 S
Eu183 O221 2.372 . S
Eu183 O222 2.450 1_565 S
Eu183 O223 2.373 . S
Eu183 O225 2.432 . S
Eu183 O226 2.291 1_565 S
Eu183 C247 2.787 . S
N184 C180 1.351 . S
N184 Eu183 2.562 . S
N184 C186 1.325 . S
C185 C179 1.404 . S
C185 C187 1.366 . S
C185 H193 0.930 . S
C186 N184 1.325 . S
C186 C187 1.416 . S
C186 H192 0.929 . S
C187 C185 1.366 . S
C187 C186 1.416 . S
C187 H189 0.930 . S
H188 C177 0.930 . S
H189 C187 0.930 . S
H190 C205 0.930 . S
H191 C212 0.930 . S
H192 C186 0.929 . S
H193 C185 0.930 . S
H194 C208 0.929 . S
H195 C175 0.931 . S
H196 C181 0.931 . S
H197 C182 0.931 . S
H198 C203 0.931 . S
H199 C178 0.929 . S
H200 C211 0.930 . S
N201 Eu172 2.600 . S
N201 C202 1.365 . S
N201 C205 1.319 . S
C202 N201 1.365 . S
C202 C204 1.405 . S
C202 C210 1.448 . S
C203 H198 0.931 . S
C203 C205 1.397 . S
C203 C206 1.367 . S
C204 C202 1.405 . S
C204 C206 1.403 . S
C204 C237 1.439 . S
C205 H190 0.930 . S
C205 N201 1.319 . S
C205 C203 1.397 . S
C206 C203 1.367 . S
C206 C204 1.403 . S
C206 H213 0.929 . S
N207 Eu172 2.562 . S
N207 C208 1.325 . S
N207 C210 1.351 . S
C208 H194 0.929 . S
C208 N207 1.325 . S
C208 C212 1.416 . S
C209 C210 1.430 . S
C209 C211 1.404 . S
C209 C238 1.387 . S
C210 C202 1.448 . S
C210 N207 1.351 . S
C210 C209 1.430 . S
C211 H200 0.930 . S
C211 C209 1.404 . S
C211 C212 1.366 . S
C212 H191 0.930 . S
C212 C208 1.416 . S
C212 C211 1.366 . S
H213 C206 0.929 . S
H214 C237 0.931 . S
H215 C238 0.931 . S
O216 Eu172 2.462 . S
O216 C236 1.252 . S
O217 Eu172 2.373 . S
O217 C228 1.249 . S
O218 Eu183 2.335 1_545 S
O218 C228 1.264 . S
O219 Eu172 2.432 . S
O219 C236 1.268 . S
O220 Eu172 2.291 . S
O220 C235 1.255 . S
O221 Eu183 2.372 . S
O221 C235 1.257 1_565 S
O222 Eu183 2.450 1_545 S
O222 C247 1.246 1_545 S
O223 Eu183 2.373 . S
O223 C239 1.249 . S
O224 Eu172 2.335 1_565 S
O224 C239 1.264 . S
O225 Eu183 2.432 . S
O225 C247 1.268 . S
O226 Eu183 2.291 1_545 S
O226 C246 1.255 . S
O227 Eu172 2.372 . S
O227 C246 1.257 . S
C228 O217 1.249 . S
C228 O218 1.264 . S
C229 C232 1.382 . S
C229 C234 1.390 . S
C229 C236 1.506 . S
C230 C231 1.398 . S
C230 C234 1.392 . S
C231 C230 1.398 . S
C231 C233 1.372 . S
C231 H248 0.931 . S
C232 C229 1.382 . S
C232 C233 1.390 . S
C232 H249 0.931 . S
C233 C231 1.372 . S
C233 C232 1.390 . S
C233 H250 0.929 . S
C234 C229 1.390 . S
C234 C230 1.392 . S
C234 H251 0.930 . S
C235 O220 1.255 . S
C235 O221 1.257 1_545 S
C236 Eu172 2.787 . S
C236 O216 1.252 . S
C236 O219 1.268 . S
C236 C229 1.506 . S
C237 C204 1.439 . S
C237 H214 0.931 . S
C237 C238 1.374 . S
C238 C209 1.387 . S
C238 H215 0.931 . S
C238 C237 1.374 . S
C239 O223 1.249 . S
C239 O224 1.264 . S
C240 C243 1.372 1_545 S
C240 C244 1.407 . S
C240 C247 1.501 1_545 S
C241 C242 1.398 . S
C241 C244 1.392 . S
C242 C241 1.398 . S
C242 C245 1.372 1_545 S
C242 H252 0.931 . S
C243 C240 1.372 1_565 S
C243 C245 1.390 . S
C243 H253 0.931 . S
C244 C240 1.407 . S
C244 C241 1.392 . S
C244 H254 0.930 . S
C245 C242 1.372 1_565 S
C245 C243 1.390 . S
C245 H255 0.929 . S
C246 O226 1.255 . S
C246 O227 1.257 . S
C247 Eu183 2.787 . S
C247 O222 1.246 1_565 S
C247 O225 1.268 . S
C247 C240 1.501 1_565 S
H248 C231 0.931 . S
H249 C232 0.931 . S
H250 C233 0.929 . S
H251 C234 0.930 . S
H252 C242 0.931 . S
H253 C243 0.931 . S
H254 C244 0.930 . S
H255 C245 0.929 . S
Eu256 N285 2.600 . S
Eu256 N291 2.562 . S
Eu256 O300 2.462 . S
Eu256 O301 2.373 . S
Eu256 O303 2.432 . S
Eu256 O304 2.291 . S
Eu256 O308 2.335 . S
Eu256 O311 2.372 . S
Eu256 C320 2.787 . S
C257 N258 1.365 . S
C257 C260 1.405 . S
C257 C264 1.448 . S
N258 C257 1.365 . S
N258 C261 1.319 . S
N258 Eu267 2.600 . S
C259 C261 1.397 . S
C259 C262 1.367 . S
C259 H279 0.931 . S
C260 C257 1.405 . S
C260 C262 1.403 . S
C260 C266 1.439 . S
C261 N258 1.319 . S
C261 C259 1.397 . S
C261 H272 0.930 . S
C262 C259 1.367 . S
C262 C260 1.403 . S
C262 H283 0.929 . S
C263 C264 1.430 . S
C263 C265 1.387 . S
C263 C269 1.404 . S
C264 C257 1.448 . S
C264 C263 1.430 . S
C264 N268 1.351 . S
C265 C263 1.387 . S
C265 C266 1.374 . S
C265 H280 0.931 . S
C266 C260 1.439 . S
C266 C265 1.374 . S
C266 H281 0.931 . S
Eu267 N258 2.600 . S
Eu267 N268 2.562 . S
Eu267 O302 2.335 . S
Eu267 O305 2.372 . S
Eu267 O306 2.462 . S
Eu267 O307 2.373 . S
Eu267 O309 2.432 . S
Eu267 O310 2.291 . S
Eu267 C331 2.787 . S
N268 C264 1.351 . S
N268 Eu267 2.562 . S
N268 C270 1.325 . S
C269 C263 1.404 . S
C269 C271 1.366 . S
C269 H277 0.930 . S
C270 N268 1.325 . S
C270 C271 1.416 . S
C270 H276 0.929 . S
C271 C269 1.366 . S
C271 C270 1.416 . S
C271 H273 0.930 . S
H272 C261 0.930 . S
H273 C271 0.930 . S
H274 C289 0.930 . S
H275 C296 0.930 . S
H276 C270 0.929 . S
H277 C269 0.930 . S
H278 C292 0.929 . S
H279 C259 0.931 . S
H280 C265 0.931 . S
H281 C266 0.931 . S
H282 C287 0.931 . S
H283 C262 0.929 . S
H284 C295 0.930 . S
N285 Eu256 2.600 . S
N285 C286 1.365 . S
N285 C289 1.319 . S
C286 N285 1.365 . S
C286 C288 1.405 . S
C286 C294 1.448 . S
C287 H282 0.931 . S
C287 C289 1.397 . S
C287 C290 1.367 . S
C288 C286 1.405 . S
C288 C290 1.403 . S
C288 C321 1.439 . S
C289 H274 0.930 . S
C289 N285 1.319 . S
C289 C287 1.397 . S
C290 C287 1.367 . S
C290 C288 1.403 . S
C290 H297 0.929 . S
N291 Eu256 2.562 . S
N291 C292 1.325 . S
N291 C294 1.351 . S
C292 H278 0.929 . S
C292 N291 1.325 . S
C292 C296 1.416 . S
C293 C294 1.430 . S
C293 C295 1.404 . S
C293 C322 1.387 . S
C294 C286 1.448 . S
C294 N291 1.351 . S
C294 C293 1.430 . S
C295 H284 0.930 . S
C295 C293 1.404 . S
C295 C296 1.366 . S
C296 H275 0.930 . S
C296 C292 1.416 . S
C296 C295 1.366 . S
H297 C290 0.929 . S
H298 C321 0.931 . S
H299 C322 0.931 . S
O300 Eu256 2.462 . S
O300 C320 1.252 . S
O301 Eu256 2.373 . S
O301 C312 1.249 . S
O302 Eu267 2.335 . S
O302 C312 1.264 . S
O303 Eu256 2.432 . S
O303 C320 1.268 . S
O304 Eu256 2.291 . S
O304 C319 1.255 . S
O305 Eu267 2.372 . S
O305 C319 1.257 . S
O306 Eu267 2.462 . S
O306 C331 1.252 . S
O307 Eu267 2.373 . S
O307 C323 1.249 . S
O308 Eu256 2.335 . S
O308 C323 1.264 . S
O309 Eu267 2.432 . S
O309 C331 1.268 . S
O310 Eu267 2.291 . S
O310 C330 1.255 . S
O311 Eu256 2.372 . S
O311 C330 1.257 . S
C312 O301 1.249 . S
C312 O302 1.264 . S
C313 C316 1.382 . S
C313 C318 1.390 . S
C313 C320 1.506 . S
C314 C315 1.398 . S
C314 C318 1.392 . S
C315 C314 1.398 . S
C315 C317 1.372 . S
C315 H332 0.931 . S
C316 C313 1.382 . S
C316 C317 1.390 . S
C316 H333 0.931 . S
C317 C315 1.372 . S
C317 C316 1.390 . S
C317 H334 0.929 . S
C318 C313 1.390 . S
C318 C314 1.392 . S
C318 H335 0.930 . S
C319 O304 1.255 . S
C319 O305 1.257 . S
C320 Eu256 2.787 . S
C320 O300 1.252 . S
C320 O303 1.268 . S
C320 C313 1.506 . S
C321 C288 1.439 . S
C321 H298 0.931 . S
C321 C322 1.374 . S
C322 C293 1.387 . S
C322 H299 0.931 . S
C322 C321 1.374 . S
C323 O307 1.249 . S
C323 O308 1.264 . S
C324 C327 1.382 . S
C324 C328 1.390 . S
C324 C331 1.506 . S
C325 C326 1.398 . S
C325 C328 1.392 . S
C326 C325 1.398 . S
C326 C329 1.372 . S
C326 H336 0.931 . S
C327 C324 1.382 . S
C327 C329 1.390 . S
C327 H337 0.931 . S
C328 C324 1.390 . S
C328 C325 1.392 . S
C328 H338 0.930 . S
C329 C326 1.372 . S
C329 C327 1.390 . S
C329 H339 0.929 . S
C330 O310 1.255 . S
C330 O311 1.257 . S
C331 Eu267 2.787 . S
C331 O306 1.252 . S
C331 O309 1.268 . S
C331 C324 1.506 . S
H332 C315 0.931 . S
H333 C316 0.931 . S
H334 C317 0.929 . S
H335 C318 0.930 . S
H336 C326 0.931 . S
H337 C327 0.931 . S
H338 C328 0.930 . S
H339 C329 0.929 . S
Eu340 N369 2.600 . S
Eu340 N375 2.562 . S
Eu340 O384 2.462 . S
Eu340 O385 2.373 1_455 S
Eu340 O387 2.432 . S
Eu340 O388 2.291 . S
Eu340 O392 2.335 . S
Eu340 O395 2.372 . S
Eu340 C404 2.787 . S
C341 N342 1.365 1_455 S
C341 C344 1.405 . S
C341 C348 1.448 . S
N342 C341 1.365 1_655 S
N342 C345 1.319 . S
N342 Eu351 2.600 . S
C343 C345 1.397 1_455 S
C343 C346 1.367 . S
C343 H363 0.934 . S
C344 C341 1.405 . S
C344 C346 1.403 . S
C344 C350 1.439 . S
C345 N342 1.319 . S
C345 C343 1.397 1_655 S
C345 H356 0.930 . S
C346 C343 1.367 . S
C346 C344 1.403 . S
C346 H367 0.929 . S
C347 C348 1.430 . S
C347 C349 1.387 . S
C347 C353 1.404 . S
C348 C341 1.448 . S
C348 C347 1.430 . S
C348 N352 1.351 . S
C349 C347 1.387 . S
C349 C350 1.374 . S
C349 H364 0.931 . S
C350 C344 1.439 . S
C350 C349 1.374 . S
C350 H365 0.931 . S
Eu351 N342 2.600 . S
Eu351 N352 2.562 1_655 S
Eu351 O386 2.335 . S
Eu351 O389 2.372 . S
Eu351 O390 2.462 . S
Eu351 O391 2.373 1_655 S
Eu351 O393 2.432 . S
Eu351 O394 2.290 1_655 S
Eu351 C415 2.787 . S
N352 C348 1.351 . S
N352 Eu351 2.562 1_455 S
N352 C354 1.325 . S
C353 C347 1.404 . S
C353 C355 1.366 . S
C353 H361 0.930 . S
C354 N352 1.325 . S
C354 C355 1.416 . S
C354 H360 0.912 1_455 S
C355 C353 1.366 . S
C355 C354 1.416 . S
C355 H357 0.930 . S
H356 C345 0.930 . S
H357 C355 0.930 . S
H358 C373 0.930 . S
H359 C380 0.930 . S
H360 C354 0.912 1_655 S
H361 C353 0.930 . S
H362 C376 0.929 . S
H363 C343 0.934 . S
H364 C349 0.931 . S
H365 C350 0.931 . S
H366 C371 0.931 . S
H367 C346 0.929 . S
H368 C379 0.930 . S
N369 Eu340 2.600 . S
N369 C370 1.365 . S
N369 C373 1.319 . S
C370 N369 1.365 . S
C370 C372 1.405 1_455 S
C370 C378 1.448 . S
C371 H366 0.931 . S
C371 C373 1.397 . S
C371 C374 1.384 . S
C372 C370 1.405 1_655 S
C372 C374 1.399 1_655 S
C372 C405 1.439 . S
C373 H358 0.930 . S
C373 N369 1.319 . S
C373 C371 1.397 . S
C374 C371 1.384 . S
C374 C372 1.399 1_455 S
C374 H381 0.919 1_455 S
N375 Eu340 2.562 . S
N375 C376 1.325 . S
N375 C378 1.351 . S
C376 H362 0.929 . S
C376 N375 1.325 . S
C376 C380 1.416 1_455 S
C377 C378 1.430 1_655 S
C377 C379 1.404 . S
C377 C406 1.387 . S
C378 C370 1.448 . S
C378 N375 1.351 . S
C378 C377 1.430 1_455 S
C379 H368 0.930 . S
C379 C377 1.404 . S
C379 C380 1.366 . S
C380 H359 0.930 . S
C380 C376 1.416 1_655 S
C380 C379 1.366 . S
H381 C374 0.919 1_655 S
H382 C405 0.931 . S
H383 C406 0.931 . S
O384 Eu340 2.462 . S
O384 C404 1.252 . S
O385 Eu340 2.373 1_655 S
O385 C396 1.249 . S
O386 Eu351 2.335 . S
O386 C396 1.264 . S
O387 Eu340 2.432 . S
O387 C404 1.268 . S
O388 Eu340 2.291 . S
O388 C403 1.255 . S
O389 Eu351 2.372 . S
O389 C403 1.257 1_655 S
O390 Eu351 2.462 . S
O390 C415 1.252 . S
O391 Eu351 2.373 1_455 S
O391 C407 1.249 . S
O392 Eu340 2.335 . S
O392 C407 1.264 . S
O393 Eu351 2.432 . S
O393 C415 1.268 . S
O394 Eu351 2.290 1_455 S
O394 C414 1.256 . S
O395 Eu340 2.372 . S
O395 C414 1.257 . S
C396 O385 1.249 . S
C396 O386 1.264 . S
C397 C400 1.382 . S
C397 C402 1.390 . S
C397 C404 1.506 . S
C398 C399 1.398 . S
C398 C402 1.392 . S
C399 C398 1.398 . S
C399 C401 1.372 . S
C399 H416 0.931 . S
C400 C397 1.382 . S
C400 C401 1.390 . S
C400 H417 0.931 . S
C401 C399 1.372 . S
C401 C400 1.390 . S
C401 H418 0.929 . S
C402 C397 1.390 . S
C402 C398 1.392 . S
C402 H419 0.930 . S
C403 O388 1.255 . S
C403 O389 1.257 1_455 S
C404 Eu340 2.787 . S
C404 O384 1.252 . S
C404 O387 1.268 . S
C404 C397 1.506 . S
C405 C372 1.439 . S
C405 H382 0.931 . S
C405 C406 1.374 . S
C406 C377 1.387 . S
C406 H383 0.931 . S
C406 C405 1.374 . S
C407 O391 1.249 . S
C407 O392 1.264 . S
C408 C411 1.382 . S
C408 C412 1.390 . S
C408 C415 1.506 . S
C409 C410 1.398 . S
C409 C412 1.392 . S
C410 C409 1.398 . S
C410 C413 1.372 . S
C410 H420 0.931 . S
C411 C408 1.382 . S
C411 C413 1.390 . S
C411 H421 0.931 . S
C412 C408 1.390 . S
C412 C409 1.392 . S
C412 H422 0.930 . S
C413 C410 1.372 . S
C413 C411 1.390 . S
C413 H423 0.929 . S
C414 O394 1.256 . S
C414 O395 1.257 . S
C415 Eu351 2.787 . S
C415 O390 1.252 . S
C415 O393 1.268 . S
C415 C408 1.506 . S
H416 C399 0.931 . S
H417 C400 0.931 . S
H418 C401 0.929 . S
H419 C402 0.930 . S
H420 C410 0.931 . S
H421 C411 0.931 . S
H422 C412 0.930 . S
H423 C413 0.929 . S
H424 C442 0.951 . S
H425 C444 0.951 . S
H426 C446 0.950 . S
H427 C447 0.950 . S
H428 C449 0.950 . S
H429 C452 0.950 . S
H430 C453 0.950 . S
H431 C455 0.950 . S
H432 C456 0.950 . S
H433 C457 0.951 1_565 S
H434 C459 0.951 1_565 S
H435 C461 0.950 . S
H436 C462 0.950 . S
H437 C464 0.950 . S
H438 C467 0.950 1_545 S
H439 C468 0.950 . S
H440 C470 0.950 . S
H441 C471 0.950 . S
C442 H424 0.951 . S
C442 C443 1.366 . S
C442 C444 1.388 . S
C443 C442 1.366 . S
C443 C447 1.385 . S
C444 H425 0.951 . S
C444 C442 1.388 . S
C444 C445 1.366 . S
C445 C444 1.366 . S
C445 C446 1.414 . S
C445 C448 1.499 . S
C446 H426 0.950 . S
C446 C445 1.414 . S
C446 C447 1.374 . S
C447 H427 0.950 . S
C447 C443 1.385 . S
C447 C446 1.374 . S
C448 C445 1.499 . S
C448 C449 1.373 . S
C448 C450 1.389 . S
C449 H428 0.950 . S
C449 C448 1.373 . S
C449 C465 1.377 . S
C450 C448 1.389 . S
C450 C451 1.524 . S
C450 C464 1.377 . S
C451 C450 1.524 . S
C451 C452 1.397 . S
C451 C456 1.363 . S
C452 H429 0.950 . S
C452 C451 1.397 . S
C452 C453 1.334 . S
C453 H430 0.950 . S
C453 C452 1.334 . S
C453 C454 1.287 . S
C454 C453 1.287 . S
C454 C455 1.524 . S
C454 H473 0.913 . S
C455 H431 0.950 . S
C455 C454 1.524 . S
C455 C456 1.415 . S
C456 H432 0.950 . S
C456 C451 1.363 . S
C456 C455 1.415 . S
C457 H433 0.951 1_545 S
C457 C458 1.366 . S
C457 C459 1.388 . S
C458 C457 1.366 . S
C458 C462 1.385 . S
C459 H434 0.951 1_545 S
C459 C457 1.388 . S
C459 C460 1.366 . S
C460 C459 1.366 . S
C460 C461 1.414 . S
C460 C463 1.499 . S
C461 H435 0.950 . S
C461 C460 1.414 . S
C461 C462 1.374 . S
C462 H436 0.950 . S
C462 C458 1.385 . S
C462 C461 1.374 . S
C463 C460 1.499 . S
C463 C464 1.373 . S
C463 C465 1.389 . S
C464 H437 0.950 . S
C464 C450 1.377 . S
C464 C463 1.373 . S
C465 C449 1.377 . S
C465 C463 1.389 . S
C465 C466 1.524 1_545 S
C466 C465 1.524 1_565 S
C466 C467 1.397 . S
C466 C471 1.363 . S
C467 H438 0.950 1_565 S
C467 C466 1.397 . S
C467 C468 1.334 . S
C468 H439 0.950 . S
C468 C467 1.334 . S
C468 C469 1.287 . S
C469 C468 1.287 . S
C469 C470 1.524 . S
C469 H472 0.999 . S
C470 H440 0.950 . S
C470 C469 1.524 . S
C470 C471 1.415 . S
C471 H441 0.950 . S
C471 C466 1.363 . S
C471 C470 1.415 . S
H472 C469 0.999 . S
H473 C454 0.913 . S
H474 C492 0.951 . S
H475 C494 0.951 . S
H476 C496 0.950 . S
H477 C497 0.950 . S
H478 C499 0.950 . S
H479 C502 0.950 . S
H480 C503 0.950 . S
H481 C505 0.950 . S
H482 C506 0.950 . S
H483 C507 0.951 . S
H484 C509 0.951 . S
H485 C511 0.950 . S
H486 C512 0.950 . S
H487 C514 0.950 . S
H488 C517 0.950 . S
H489 C518 0.950 . S
H490 C520 0.950 . S
H491 C521 0.950 . S
C492 H474 0.951 . S
C492 C493 1.366 . S
C492 C494 1.388 . S
C493 C492 1.366 . S
C493 C497 1.385 . S
C494 H475 0.951 . S
C494 C492 1.388 . S
C494 C495 1.366 . S
C495 C494 1.366 . S
C495 C496 1.414 . S
C495 C498 1.499 . S
C496 H476 0.950 . S
C496 C495 1.414 . S
C496 C497 1.374 . S
C497 H477 0.950 . S
C497 C493 1.385 . S
C497 C496 1.374 . S
C498 C495 1.499 . S
C498 C499 1.373 . S
C498 C500 1.389 . S
C499 H478 0.950 . S
C499 C498 1.373 . S
C499 C515 1.377 . S
C500 C498 1.389 . S
C500 C501 1.524 . S
C500 C514 1.377 . S
C501 C500 1.524 . S
C501 C502 1.397 . S
C501 C506 1.363 . S
C502 H479 0.950 . S
C502 C501 1.397 . S
C502 C503 1.334 . S
C503 H480 0.950 . S
C503 C502 1.334 . S
C503 C504 1.287 . S
C504 C503 1.287 . S
C504 C505 1.524 . S
C504 H523 0.913 . S
C505 H481 0.950 . S
C505 C504 1.524 . S
C505 C506 1.415 . S
C506 H482 0.950 . S
C506 C501 1.363 . S
C506 C505 1.415 . S
C507 H483 0.951 . S
C507 C508 1.366 . S
C507 C509 1.388 . S
C508 C507 1.366 . S
C508 C512 1.385 . S
C509 H484 0.951 . S
C509 C507 1.388 . S
C509 C510 1.366 . S
C510 C509 1.366 . S
C510 C511 1.414 . S
C510 C513 1.499 . S
C511 H485 0.950 . S
C511 C510 1.414 . S
C511 C512 1.374 . S
C512 H486 0.950 . S
C512 C508 1.385 . S
C512 C511 1.374 . S
C513 C510 1.499 . S
C513 C514 1.373 . S
C513 C515 1.389 . S
C514 H487 0.950 . S
C514 C500 1.377 . S
C514 C513 1.373 . S
C515 C499 1.377 . S
C515 C513 1.389 . S
C515 C516 1.524 . S
C516 C515 1.524 . S
C516 C517 1.397 . S
C516 C521 1.363 . S
C517 H488 0.950 . S
C517 C516 1.397 . S
C517 C518 1.334 . S
C518 H489 0.950 . S
C518 C517 1.334 . S
C518 C519 1.287 . S
C519 C518 1.287 . S
C519 C520 1.524 . S
C519 H522 0.999 . S
C520 H490 0.950 . S
C520 C519 1.524 . S
C520 C521 1.415 . S
C521 H491 0.950 . S
C521 C516 1.363 . S
C521 C520 1.415 . S
H522 C519 0.999 . S
H523 C504 0.913 . S
H524 C542 0.951 . S
H525 C544 0.951 . S
H526 C546 0.950 . S
H527 C547 0.950 . S
H528 C549 0.950 . S
H529 C552 0.950 . S
H530 C553 0.950 . S
H531 C555 0.950 . S
H532 C556 0.950 . S
H533 C557 0.951 . S
H534 C559 0.951 . S
H535 C561 0.950 . S
H536 C562 0.950 . S
H537 C564 0.950 . S
H538 C567 0.950 . S
H539 C568 0.950 . S
H540 C570 0.950 . S
H541 C571 0.950 . S
C542 H524 0.951 . S
C542 C543 1.366 . S
C542 C544 1.388 . S
C543 C542 1.366 . S
C543 C547 1.385 . S
C544 H525 0.951 . S
C544 C542 1.388 . S
C544 C545 1.366 . S
C545 C544 1.366 . S
C545 C546 1.414 . S
C545 C548 1.499 . S
C546 H526 0.950 . S
C546 C545 1.414 . S
C546 C547 1.374 . S
C547 H527 0.950 . S
C547 C543 1.385 . S
C547 C546 1.374 . S
C548 C545 1.499 . S
C548 C549 1.373 . S
C548 C550 1.389 . S
C549 H528 0.950 . S
C549 C548 1.373 . S
C549 C565 1.377 . S
C550 C548 1.389 . S
C550 C551 1.524 . S
C550 C564 1.377 . S
C551 C550 1.524 . S
C551 C552 1.397 . S
C551 C556 1.363 . S
C552 H529 0.950 . S
C552 C551 1.397 . S
C552 C553 1.334 . S
C553 H530 0.950 . S
C553 C552 1.334 . S
C553 C554 1.287 . S
C554 C553 1.287 . S
C554 C555 1.524 . S
C554 H573 0.913 . S
C555 H531 0.950 . S
C555 C554 1.524 . S
C555 C556 1.415 . S
C556 H532 0.950 . S
C556 C551 1.363 . S
C556 C555 1.415 . S
C557 H533 0.951 . S
C557 C558 1.366 . S
C557 C559 1.388 . S
C558 C557 1.366 . S
C558 C562 1.385 . S
C559 H534 0.951 . S
C559 C557 1.388 . S
C559 C560 1.366 . S
C560 C559 1.366 . S
C560 C561 1.414 . S
C560 C563 1.499 . S
C561 H535 0.950 . S
C561 C560 1.414 . S
C561 C562 1.374 . S
C562 H536 0.950 . S
C562 C558 1.385 . S
C562 C561 1.374 . S
C563 C560 1.499 . S
C563 C564 1.373 . S
C563 C565 1.389 . S
C564 H537 0.950 . S
C564 C550 1.377 . S
C564 C563 1.373 . S
C565 C549 1.377 . S
C565 C563 1.389 . S
C565 C566 1.524 . S
C566 C565 1.524 . S
C566 C567 1.397 . S
C566 C571 1.363 . S
C567 H538 0.950 . S
C567 C566 1.397 . S
C567 C568 1.334 . S
C568 H539 0.950 . S
C568 C567 1.334 . S
C568 C569 1.287 . S
C569 C568 1.287 . S
C569 C570 1.524 . S
C569 H572 0.999 . S
C570 H540 0.950 . S
C570 C569 1.524 . S
C570 C571 1.415 . S
C571 H541 0.950 . S
C571 C566 1.363 . S
C571 C570 1.415 . S
H572 C569 0.999 . S
H573 C554 0.913 . S
H574 C592 0.951 . S
H575 C594 0.951 . S
H576 C596 0.950 . S
H577 C597 0.950 . S
H578 C599 0.950 . S
H579 C602 0.950 . S
H580 C603 0.950 . S
H581 C605 0.950 . S
H582 C606 0.950 . S
H583 C607 0.951 . S
H584 C609 0.951 1_655 S
H585 C611 0.950 . S
H586 C612 0.950 . S
H587 C614 0.950 . S
H588 C617 0.950 1_455 S
H589 C618 0.950 . S
H590 C620 0.950 . S
H591 C621 0.950 . S
C592 H574 0.951 . S
C592 C593 1.366 . S
C592 C594 1.388 . S
C593 C592 1.366 . S
C593 C597 1.385 . S
C594 H575 0.951 . S
C594 C592 1.388 . S
C594 C595 1.366 . S
C595 C594 1.366 . S
C595 C596 1.414 . S
C595 C598 1.499 . S
C596 H576 0.950 . S
C596 C595 1.414 . S
C596 C597 1.374 . S
C597 H577 0.950 . S
C597 C593 1.385 . S
C597 C596 1.374 . S
C598 C595 1.499 . S
C598 C599 1.373 . S
C598 C600 1.389 . S
C599 H578 0.950 . S
C599 C598 1.373 . S
C599 C615 1.377 . S
C600 C598 1.389 . S
C600 C601 1.524 . S
C600 C614 1.377 . S
C601 C600 1.524 . S
C601 C602 1.397 . S
C601 C606 1.363 . S
C602 H579 0.950 . S
C602 C601 1.397 . S
C602 C603 1.334 . S
C603 H580 0.950 . S
C603 C602 1.334 . S
C603 C604 1.287 . S
C604 C603 1.287 . S
C604 C605 1.524 . S
C604 H623 0.913 . S
C605 H581 0.950 . S
C605 C604 1.524 . S
C605 C606 1.415 . S
C606 H582 0.950 . S
C606 C601 1.363 . S
C606 C605 1.415 . S
C607 H583 0.951 . S
C607 C608 1.365 1_655 S
C607 C609 1.388 1_655 S
C608 C607 1.365 1_455 S
C608 C612 1.385 . S
C609 H584 0.951 1_455 S
C609 C607 1.388 1_455 S
C609 C610 1.366 . S
C610 C609 1.366 . S
C610 C611 1.414 . S
C610 C613 1.499 . S
C611 H585 0.950 . S
C611 C610 1.414 . S
C611 C612 1.374 . S
C612 H586 0.950 . S
C612 C608 1.385 . S
C612 C611 1.374 . S
C613 C610 1.499 . S
C613 C614 1.373 . S
C613 C615 1.389 . S
C614 H587 0.950 . S
C614 C600 1.377 . S
C614 C613 1.373 . S
C615 C599 1.377 . S
C615 C613 1.389 . S
C615 C616 1.524 1_455 S
C616 C615 1.524 1_655 S
C616 C617 1.397 . S
C616 C621 1.363 . S
C617 H588 0.950 1_655 S
C617 C616 1.397 . S
C617 C618 1.334 . S
C618 H589 0.950 . S
C618 C617 1.334 . S
C618 C619 1.287 . S
C619 C618 1.287 . S
C619 C620 1.524 . S
C619 H622 0.999 . S
C620 H590 0.950 . S
C620 C619 1.524 . S
C620 C621 1.415 . S
C621 H591 0.950 . S
C621 C616 1.363 . S
C621 C620 1.415 . S
H622 C619 0.999 . S
H623 C604 0.913 . S
H624 C642 0.951 . S
H625 C644 0.951 1_556 S
H626 C646 0.950 1_545 S
H627 C647 0.950 1_545 S
H628 C649 0.950 1_545 S
H629 C652 0.950 . S
H630 C653 0.950 . S
H631 C655 0.950 . S
H632 C656 0.950 . S
H633 C657 0.951 . S
H634 C659 0.951 . S
H635 C661 0.950 . S
H636 C662 0.950 . S
H637 C664 0.950 . S
H638 C667 0.898 1_565 S
H639 C668 0.950 . S
H640 C670 0.950 . S
H641 C671 0.950 . S
C642 H624 0.951 . S
C642 C643 1.366 . S
C642 C644 1.388 . S
C643 C642 1.366 . S
C643 C647 1.385 . S
C644 H625 0.951 1_554 S
C644 C642 1.388 . S
C644 C645 1.366 1_554 S
C645 C644 1.366 1_556 S
C645 C646 1.414 1_556 S
C645 C648 1.499 . S
C646 H626 0.950 1_565 S
C646 C645 1.414 1_554 S
C646 C647 1.374 . S
C647 H627 0.950 1_565 S
C647 C643 1.385 . S
C647 C646 1.374 . S
C648 C645 1.499 . S
C648 C649 1.373 . S
C648 C650 1.389 . S
C649 H628 0.950 1_565 S
C649 C648 1.373 . S
C649 C665 1.377 . S
C650 C648 1.389 . S
C650 C651 1.524 . S
C650 C664 1.377 . S
C651 C650 1.524 . S
C651 C652 1.397 1_556 S
C651 C656 1.363 . S
C652 H629 0.950 . S
C652 C651 1.397 1_554 S
C652 C653 1.334 . S
C653 H630 0.950 . S
C653 C652 1.334 . S
C653 C654 1.287 . S
C654 C653 1.287 . S
C654 C655 1.524 . S
C654 H673 0.913 . S
C655 H631 0.950 . S
C655 C654 1.524 . S
C655 C656 1.415 1_554 S
C656 H632 0.950 . S
C656 C651 1.363 . S
C656 C655 1.415 1_556 S
C657 H633 0.951 . S
C657 C658 1.402 . S
C657 C659 1.388 . S
C658 C657 1.402 . S
C658 C662 1.341 1_545 S
C659 H634 0.951 . S
C659 C657 1.388 . S
C659 C660 1.366 1_545 S
C660 C659 1.366 1_565 S
C660 C661 1.414 . S
C660 C663 1.499 . S
C661 H635 0.950 . S
C661 C660 1.414 . S
C661 C662 1.374 . S
C662 H636 0.950 . S
C662 C658 1.341 1_565 S
C662 C661 1.374 . S
C663 C660 1.499 . S
C663 C664 1.373 . S
C663 C665 1.389 . S
C664 H637 0.950 . S
C664 C650 1.377 . S
C664 C663 1.373 . S
C665 C649 1.377 . S
C665 C663 1.389 . S
C665 C666 1.524 1_565 S
C666 C665 1.524 1_545 S
C666 C667 1.423 . S
C666 C671 1.363 . S
C667 H638 0.898 1_545 S
C667 C666 1.423 . S
C667 C668 1.360 . S
C668 H639 0.950 . S
C668 C667 1.360 . S
C668 C669 1.287 . S
C669 C668 1.287 . S
C669 C670 1.524 . S
C669 H672 0.999 . S
C670 H640 0.950 . S
C670 C669 1.524 . S
C670 C671 1.415 . S
C671 H641 0.950 . S
C671 C666 1.363 . S
C671 C670 1.415 . S
H672 C669 0.999 . S
H673 C654 0.913 . S
H674 C692 0.951 . S
H675 C694 0.951 . S
H676 C696 0.950 . S
H677 C697 0.950 . S
H678 C699 0.950 . S
H679 C702 0.950 1_554 S
H680 C703 0.950 1_554 S
H681 C705 0.950 . S
H682 C706 0.950 . S
H683 C707 0.951 . S
H684 C709 0.951 . S
H685 C711 0.950 . S
H686 C712 0.950 . S
H687 C714 0.950 . S
H688 C717 0.950 . S
H689 C718 0.950 . S
H690 C720 0.950 . S
H691 C721 0.950 . S
C692 H674 0.951 . S
C692 C693 1.366 . S
C692 C694 1.388 1_554 S
C693 C692 1.366 . S
C693 C697 1.385 . S
C694 H675 0.951 . S
C694 C692 1.388 1_556 S
C694 C695 1.366 . S
C695 C694 1.366 . S
C695 C696 1.414 1_556 S
C695 C698 1.499 . S
C696 H676 0.950 . S
C696 C695 1.414 1_554 S
C696 C697 1.374 . S
C697 H677 0.950 . S
C697 C693 1.385 . S
C697 C696 1.374 . S
C698 C695 1.499 . S
C698 C699 1.373 . S
C698 C700 1.389 . S
C699 H678 0.950 . S
C699 C698 1.373 . S
C699 C715 1.377 . S
C700 C698 1.389 . S
C700 C701 1.524 . S
C700 C714 1.377 . S
C701 C700 1.524 . S
C701 C702 1.397 . S
C701 C706 1.363 . S
C702 H679 0.950 1_556 S
C702 C701 1.397 . S
C702 C703 1.334 . S
C703 H680 0.950 1_556 S
C703 C702 1.334 . S
C703 C704 1.287 . S
C704 C703 1.287 . S
C704 C705 1.524 . S
C704 H723 0.913 . S
C705 H681 0.950 . S
C705 C704 1.524 . S
C705 C706 1.415 . S
C706 H682 0.950 . S
C706 C701 1.363 . S
C706 C705 1.415 . S
C707 H683 0.951 . S
C707 C708 1.366 . S
C707 C709 1.388 . S
C708 C707 1.366 . S
C708 C712 1.385 . S
C709 H684 0.951 . S
C709 C707 1.388 . S
C709 C710 1.366 . S
C710 C709 1.366 . S
C710 C711 1.414 . S
C710 C713 1.499 . S
C711 H685 0.950 . S
C711 C710 1.414 . S
C711 C712 1.374 . S
C712 H686 0.950 . S
C712 C708 1.385 . S
C712 C711 1.374 . S
C713 C710 1.499 . S
C713 C714 1.373 . S
C713 C715 1.389 . S
C714 H687 0.950 . S
C714 C700 1.377 . S
C714 C713 1.373 . S
C715 C699 1.377 . S
C715 C713 1.389 . S
C715 C716 1.524 . S
C716 C715 1.524 . S
C716 C717 1.397 . S
C716 C721 1.363 . S
C717 H688 0.950 . S
C717 C716 1.397 . S
C717 C718 1.334 . S
C718 H689 0.950 . S
C718 C717 1.334 . S
C718 C719 1.287 . S
C719 C718 1.287 . S
C719 C720 1.524 . S
C719 H722 0.999 . S
C720 H690 0.950 . S
C720 C719 1.524 . S
C720 C721 1.415 . S
C721 H691 0.950 . S
C721 C716 1.363 . S
C721 C720 1.415 . S
H722 C719 0.999 . S
H723 C704 0.913 . S
H724 C742 0.951 . S
H725 C744 0.951 . S
H726 C746 0.950 . S
H727 C747 0.950 . S
H728 C749 0.950 . S
H729 C752 0.950 . S
H730 C753 0.950 . S
H731 C755 0.950 . S
H732 C756 0.950 . S
H733 C757 0.951 . S
H734 C759 0.951 . S
H735 C761 0.950 . S
H736 C762 0.950 . S
H737 C764 0.950 . S
H738 C767 0.950 . S
H739 C768 0.950 . S
H740 C770 0.950 . S
H741 C771 0.950 . S
C742 H724 0.951 . S
C742 C743 1.366 . S
C742 C744 1.388 . S
C743 C742 1.366 . S
C743 C747 1.385 . S
C744 H725 0.951 . S
C744 C742 1.388 . S
C744 C745 1.366 1_554 S
C745 C744 1.366 1_556 S
C745 C746 1.414 . S
C745 C748 1.499 . S
C746 H726 0.950 . S
C746 C745 1.414 . S
C746 C747 1.374 1_556 S
C747 H727 0.950 . S
C747 C743 1.385 . S
C747 C746 1.374 1_554 S
C748 C745 1.499 . S
C748 C749 1.373 . S
C748 C750 1.389 . S
C749 H728 0.950 . S
C749 C748 1.373 . S
C749 C765 1.377 . S
C750 C748 1.389 . S
C750 C751 1.524 1_556 S
C750 C764 1.377 . S
C751 C750 1.524 1_554 S
C751 C752 1.397 . S
C751 C756 1.363 . S
C752 H729 0.950 . S
C752 C751 1.397 . S
C752 C753 1.334 . S
C753 H730 0.950 . S
C753 C752 1.334 . S
C753 C754 1.287 . S
C754 C753 1.287 . S
C754 C755 1.524 . S
C754 H773 0.913 . S
C755 H731 0.950 . S
C755 C754 1.524 . S
C755 C756 1.415 . S
C756 H732 0.950 . S
C756 C751 1.363 . S
C756 C755 1.415 . S
C757 H733 0.951 . S
C757 C758 1.366 . S
C757 C759 1.388 . S
C758 C757 1.366 . S
C758 C762 1.385 . S
C759 H734 0.951 . S
C759 C757 1.388 . S
C759 C760 1.366 . S
C760 C759 1.366 . S
C760 C761 1.414 . S
C760 C763 1.499 . S
C761 H735 0.950 . S
C761 C760 1.414 . S
C761 C762 1.374 . S
C762 H736 0.950 . S
C762 C758 1.385 . S
C762 C761 1.374 . S
C763 C760 1.499 . S
C763 C764 1.373 . S
C763 C765 1.389 . S
C764 H737 0.950 . S
C764 C750 1.377 . S
C764 C763 1.373 . S
C765 C749 1.377 . S
C765 C763 1.389 . S
C765 C766 1.524 . S
C766 C765 1.524 . S
C766 C767 1.397 . S
C766 C771 1.363 . S
C767 H738 0.950 . S
C767 C766 1.397 . S
C767 C768 1.334 . S
C768 H739 0.950 . S
C768 C767 1.334 . S
C768 C769 1.287 . S
C769 C768 1.287 . S
C769 C770 1.524 . S
C769 H772 0.999 . S
C770 H740 0.950 . S
C770 C769 1.524 . S
C770 C771 1.415 . S
C771 H741 0.950 . S
C771 C766 1.363 . S
C771 C770 1.415 . S
H772 C769 0.999 . S
H773 C754 0.913 . S
H774 C792 0.951 . S
H775 C794 0.951 . S
H776 C796 0.950 . S
H777 C797 0.950 . S
H778 C799 0.950 . S
H779 C802 0.950 . S
H780 C803 0.950 . S
H781 C805 0.950 . S
H782 C806 0.950 . S
H783 C807 0.951 . S
H784 C809 0.951 1_455 S
H785 C811 0.950 . S
H786 C812 0.950 . S
H787 C814 0.965 . S
H788 C817 0.950 . S
H789 C818 0.950 . S
H790 C820 0.950 . S
H791 C821 0.950 . S
C792 H774 0.951 . S
C792 C793 1.366 . S
C792 C794 1.388 . S
C793 C792 1.366 . S
C793 C797 1.385 . S
C794 H775 0.951 . S
C794 C792 1.388 . S
C794 C795 1.366 1_554 S
C795 C794 1.366 1_556 S
C795 C796 1.414 . S
C795 C798 1.499 . S
C796 H776 0.950 . S
C796 C795 1.414 . S
C796 C797 1.374 1_556 S
C797 H777 0.950 . S
C797 C793 1.385 . S
C797 C796 1.374 1_554 S
C798 C795 1.499 . S
C798 C799 1.373 . S
C798 C800 1.389 . S
C799 H778 0.950 . S
C799 C798 1.373 . S
C799 C815 1.377 . S
C800 C798 1.389 . S
C800 C801 1.524 1_656 S
C800 C814 1.377 . S
C801 C800 1.524 1_454 S
C801 C802 1.397 . S
C801 C806 1.363 1_455 S
C802 H779 0.950 . S
C802 C801 1.397 . S
C802 C803 1.334 . S
C803 H780 0.950 . S
C803 C802 1.334 . S
C803 C804 1.287 . S
C804 C803 1.287 . S
C804 C805 1.524 . S
C804 H823 0.913 . S
C805 H781 0.950 . S
C805 C804 1.524 . S
C805 C806 1.415 1_455 S
C806 H782 0.950 . S
C806 C801 1.363 1_655 S
C806 C805 1.415 1_655 S
C807 H783 0.951 . S
C807 C808 1.366 1_455 S
C807 C809 1.388 1_455 S
C808 C807 1.366 1_655 S
C808 C812 1.385 . S
C809 H784 0.951 1_655 S
C809 C807 1.388 1_655 S
C809 C810 1.366 . S
C810 C809 1.366 . S
C810 C811 1.414 . S
C810 C813 1.499 . S
C811 H785 0.950 . S
C811 C810 1.414 . S
C811 C812 1.374 . S
C812 H786 0.950 . S
C812 C808 1.385 . S
C812 C811 1.374 . S
C813 C810 1.499 . S
C813 C814 1.373 . S
C813 C815 1.389 . S
C814 H787 0.965 . S
C814 C800 1.377 . S
C814 C813 1.373 . S
C815 C799 1.377 . S
C815 C813 1.389 . S
C815 C816 1.524 . S
C816 C815 1.524 . S
C816 C817 1.397 . S
C816 C821 1.363 . S
C817 H788 0.950 . S
C817 C816 1.397 . S
C817 C818 1.334 . S
C818 H789 0.950 . S
C818 C817 1.334 . S
C818 C819 1.287 . S
C819 C818 1.287 . S
C819 C820 1.524 . S
C819 H822 0.999 . S
C820 H790 0.950 . S
C820 C819 1.524 . S
C820 C821 1.415 . S
C821 H791 0.950 . S
C821 C816 1.363 . S
C821 C820 1.415 . S
H822 C819 0.999 . S
H823 C804 0.913 . S
H824 C842 0.951 . S
H825 C844 0.951 . S
H826 C846 0.950 . S
H827 C847 0.950 . S
H828 C849 0.950 . S
H829 C852 0.950 . S
H830 C853 0.950 . S
H831 C855 0.950 . S
H832 C856 0.950 . S
H833 C857 0.951 . S
H834 C859 0.951 . S
H835 C861 0.950 . S
H836 C862 0.958 . S
H837 C864 0.950 1_655 S
H838 C867 0.950 . S
H839 C868 0.950 . S
H840 C870 0.950 . S
H841 C871 0.950 . S
C842 H824 0.951 . S
C842 C843 1.366 . S
C842 C844 1.388 . S
C843 C842 1.366 . S
C843 C847 1.385 . S
C844 H825 0.951 . S
C844 C842 1.388 . S
C844 C845 1.366 . S
C845 C844 1.366 . S
C845 C846 1.414 . S
C845 C848 1.499 . S
C846 H826 0.950 . S
C846 C845 1.414 . S
C846 C847 1.374 . S
C847 H827 0.950 . S
C847 C843 1.385 . S
C847 C846 1.374 . S
C848 C845 1.499 . S
C848 C849 1.373 . S
C848 C850 1.389 . S
C849 H828 0.950 . S
C849 C848 1.373 . S
C849 C865 1.377 . S
C850 C848 1.389 . S
C850 C851 1.524 1_455 S
C850 C864 1.377 . S
C851 C850 1.524 1_655 S
C851 C852 1.397 . S
C851 C856 1.363 . S
C852 H829 0.950 . S
C852 C851 1.397 . S
C852 C853 1.334 . S
C853 H830 0.950 . S
C853 C852 1.334 . S
C853 C854 1.287 . S
C854 C853 1.287 . S
C854 C855 1.524 . S
C854 H873 0.913 . S
C855 H831 0.950 . S
C855 C854 1.524 . S
C855 C856 1.415 . S
C856 H832 0.950 . S
C856 C851 1.363 . S
C856 C855 1.415 . S
C857 H833 0.951 . S
C857 C858 1.366 . S
C857 C859 1.388 . S
C858 C857 1.366 . S
C858 C862 1.385 . S
C859 H834 0.951 . S
C859 C857 1.388 . S
C859 C860 1.366 . S
C860 C859 1.366 . S
C860 C861 1.414 . S
C860 C863 1.499 . S
C861 H835 0.950 . S
C861 C860 1.414 . S
C861 C862 1.374 . S
C862 H836 0.958 . S
C862 C858 1.385 . S
C862 C861 1.374 . S
C863 C860 1.499 . S
C863 C864 1.373 . S
C863 C865 1.389 . S
C864 H837 0.950 1_455 S
C864 C850 1.377 . S
C864 C863 1.373 . S
C865 C849 1.377 . S
C865 C863 1.389 . S
C865 C866 1.524 . S
C866 C865 1.524 . S
C866 C867 1.397 . S
C866 C871 1.363 . S
C867 H838 0.950 . S
C867 C866 1.397 . S
C867 C868 1.334 . S
C868 H839 0.950 . S
C868 C867 1.334 . S
C868 C869 1.287 . S
C869 C868 1.287 . S
C869 C870 1.524 . S
C869 H872 0.999 . S
C870 H840 0.950 . S
C870 C869 1.524 . S
C870 C871 1.415 . S
C871 H841 0.950 . S
C871 C866 1.363 . S
C871 C870 1.415 . S
H872 C869 0.999 . S
H873 C854 0.913 . S
H874 C892 0.951 . S
H875 C894 0.951 . S
H876 C896 0.950 . S
H877 C897 0.950 . S
H878 C899 0.950 . S
H879 C902 0.950 . S
H880 C903 0.950 1_565 S
H881 C905 0.950 . S
H882 C906 0.950 . S
H883 C907 0.951 1_565 S
H884 C909 0.951 . S
H885 C911 0.950 . S
H886 C912 0.950 . S
H887 C914 0.950 . S
H888 C917 0.950 . S
H889 C918 0.950 . S
H890 C920 0.950 . S
H891 C921 0.950 . S
C892 H874 0.951 . S
C892 C893 1.366 . S
C892 C894 1.388 . S
C893 C892 1.366 . S
C893 C897 1.385 . S
C894 H875 0.951 . S
C894 C892 1.388 . S
C894 C895 1.366 . S
C895 C894 1.366 . S
C895 C896 1.414 . S
C895 C898 1.499 . S
C896 H876 0.950 . S
C896 C895 1.414 . S
C896 C897 1.374 . S
C897 H877 0.950 . S
C897 C893 1.385 . S
C897 C896 1.374 . S
C898 C895 1.499 . S
C898 C899 1.373 . S
C898 C900 1.389 . S
C899 H878 0.950 . S
C899 C898 1.373 . S
C899 C915 1.377 . S
C900 C898 1.389 . S
C900 C901 1.524 . S
C900 C914 1.377 . S
C901 C900 1.524 . S
C901 C902 1.397 . S
C901 C906 1.363 . S
C902 H879 0.950 . S
C902 C901 1.397 . S
C902 C903 1.334 . S
C903 H880 0.950 1_545 S
C903 C902 1.334 . S
C903 C904 1.287 . S
C904 C903 1.287 . S
C904 C905 1.524 . S
C904 H923 0.913 1_554 S
C905 H881 0.950 . S
C905 C904 1.524 . S
C905 C906 1.415 . S
C906 H882 0.950 . S
C906 C901 1.363 . S
C906 C905 1.415 . S
C907 H883 0.951 1_545 S
C907 C908 1.366 . S
C907 C909 1.388 . S
C908 C907 1.366 . S
C908 C912 1.385 . S
C909 H884 0.951 . S
C909 C907 1.388 . S
C909 C910 1.366 . S
C910 C909 1.366 . S
C910 C911 1.414 . S
C910 C913 1.499 . S
C911 H885 0.950 . S
C911 C910 1.414 . S
C911 C912 1.374 . S
C912 H886 0.950 . S
C912 C908 1.385 . S
C912 C911 1.374 . S
C913 C910 1.499 . S
C913 C914 1.373 . S
C913 C915 1.389 . S
C914 H887 0.950 . S
C914 C900 1.377 . S
C914 C913 1.373 . S
C915 C899 1.377 . S
C915 C913 1.389 . S
C915 C916 1.524 . S
C916 C915 1.524 . S
C916 C917 1.397 . S
C916 C921 1.363 . S
C917 H888 0.950 . S
C917 C916 1.397 . S
C917 C918 1.334 . S
C918 H889 0.950 . S
C918 C917 1.334 . S
C918 C919 1.287 . S
C919 C918 1.287 . S
C919 C920 1.524 . S
C919 H922 0.999 . S
C920 H890 0.950 . S
C920 C919 1.524 . S
C920 C921 1.415 . S
C921 H891 0.950 . S
C921 C916 1.363 . S
C921 C920 1.415 . S
H922 C919 0.999 . S
H923 C904 0.913 1_556 S
H924 C942 0.951 . S
H925 C944 0.951 . S
H926 C946 0.950 . S
H927 C947 0.950 . S
H928 C949 0.950 . S
H929 C952 0.950 . S
H930 C953 0.950 . S
H931 C955 0.950 . S
H932 C956 0.950 . S
H933 C957 0.951 . S
H934 C959 0.951 . S
H935 C961 0.950 . S
H936 C962 0.950 . S
H937 C964 0.950 . S
H938 C967 0.950 . S
H939 C968 0.950 . S
H940 C970 0.950 . S
H941 C971 0.950 . S
C942 H924 0.951 . S
C942 C943 1.366 . S
C942 C944 1.388 . S
C943 C942 1.366 . S
C943 C947 1.385 . S
C944 H925 0.951 . S
C944 C942 1.388 . S
C944 C945 1.366 . S
C945 C944 1.366 . S
C945 C946 1.414 . S
C945 C948 1.499 . S
C946 H926 0.950 . S
C946 C945 1.414 . S
C946 C947 1.374 . S
C947 H927 0.950 . S
C947 C943 1.385 . S
C947 C946 1.374 . S
C948 C945 1.499 . S
C948 C949 1.373 . S
C948 C950 1.389 . S
C949 H928 0.950 . S
C949 C948 1.373 . S
C949 C965 1.377 . S
C950 C948 1.389 . S
C950 C951 1.524 . S
C950 C964 1.377 . S
C951 C950 1.524 . S
C951 C952 1.397 . S
C951 C956 1.363 . S
C952 H929 0.950 . S
C952 C951 1.397 . S
C952 C953 1.334 . S
C953 H930 0.950 . S
C953 C952 1.334 . S
C953 C954 1.287 . S
C954 C953 1.287 . S
C954 C955 1.524 . S
C954 H973 0.913 . S
C955 H931 0.950 . S
C955 C954 1.524 . S
C955 C956 1.415 . S
C956 H932 0.950 . S
C956 C951 1.363 . S
C956 C955 1.415 . S
C957 H933 0.951 . S
C957 C958 1.366 . S
C957 C959 1.388 . S
C958 C957 1.366 . S
C958 C962 1.385 . S
C959 H934 0.951 . S
C959 C957 1.388 . S
C959 C960 1.366 . S
C960 C959 1.366 . S
C960 C961 1.414 . S
C960 C963 1.499 . S
C961 H935 0.950 . S
C961 C960 1.414 . S
C961 C962 1.374 . S
C962 H936 0.950 . S
C962 C958 1.385 . S
C962 C961 1.374 . S
C963 C960 1.499 . S
C963 C964 1.373 . S
C963 C965 1.389 . S
C964 H937 0.950 . S
C964 C950 1.377 . S
C964 C963 1.373 . S
C965 C949 1.377 . S
C965 C963 1.389 . S
C965 C966 1.524 . S
C966 C965 1.524 . S
C966 C967 1.397 . S
C966 C971 1.363 . S
C967 H938 0.950 . S
C967 C966 1.397 . S
C967 C968 1.334 . S
C968 H939 0.950 . S
C968 C967 1.334 . S
C968 C969 1.287 . S
C969 C968 1.287 . S
C969 C970 1.524 . S
C969 H972 0.999 . S
C970 H940 0.950 . S
C970 C969 1.524 . S
C970 C971 1.415 . S
C971 H941 0.950 . S
C971 C966 1.363 . S
C971 C970 1.415 . S
H972 C969 0.999 . S
H973 C954 0.913 . S
H974 C992 0.951 . S
H975 C994 0.951 . S
H976 C996 0.950 . S
H977 C997 0.950 . S
H978 C999 0.950 . S
H979 C1002 0.950 . S
H980 C1003 0.950 . S
H981 C1005 0.950 . S
H982 C1006 0.950 . S
H983 C1007 0.951 . S
H984 C1009 0.951 . S
H985 C1011 0.950 . S
H986 C1012 0.950 . S
H987 C1014 0.950 . S
H988 C1017 0.950 . S
H989 C1018 0.950 . S
H990 C1020 0.950 . S
H991 C1021 0.950 . S
C992 H974 0.951 . S
C992 C993 1.366 . S
C992 C994 1.388 . S
C993 C992 1.366 . S
C993 C997 1.385 . S
C994 H975 0.951 . S
C994 C992 1.388 . S
C994 C995 1.366 . S
C995 C994 1.366 . S
C995 C996 1.414 . S
C995 C998 1.499 . S
C996 H976 0.950 . S
C996 C995 1.414 . S
C996 C997 1.374 . S
C997 H977 0.950 . S
C997 C993 1.385 . S
C997 C996 1.374 . S
C998 C995 1.499 . S
C998 C999 1.373 . S
C998 C1000 1.389 . S
C999 H978 0.950 . S
C999 C998 1.373 . S
C999 C1015 1.377 . S
C1000 C998 1.389 . S
C1000 C1001 1.524 . S
C1000 C1014 1.377 . S
C1001 C1000 1.524 . S
C1001 C1002 1.397 . S
C1001 C1006 1.363 . S
C1002 H979 0.950 . S
C1002 C1001 1.397 . S
C1002 C1003 1.334 . S
C1003 H980 0.950 . S
C1003 C1002 1.334 . S
C1003 C1004 1.287 . S
C1004 C1003 1.287 . S
C1004 C1005 1.524 . S
C1004 H1023 0.913 . S
C1005 H981 0.950 . S
C1005 C1004 1.524 . S
C1005 C1006 1.415 . S
C1006 H982 0.950 . S
C1006 C1001 1.363 . S
C1006 C1005 1.415 . S
C1007 H983 0.951 . S
C1007 C1008 1.366 . S
C1007 C1009 1.388 . S
C1008 C1007 1.366 . S
C1008 C1012 1.385 . S
C1009 H984 0.951 . S
C1009 C1007 1.388 . S
C1009 C1010 1.366 . S
C1010 C1009 1.366 . S
C1010 C1011 1.414 . S
C1010 C1013 1.499 . S
C1011 H985 0.950 . S
C1011 C1010 1.414 . S
C1011 C1012 1.374 . S
C1012 H986 0.950 . S
C1012 C1008 1.385 . S
C1012 C1011 1.374 . S
C1013 C1010 1.499 . S
C1013 C1014 1.373 . S
C1013 C1015 1.389 . S
C1014 H987 0.950 . S
C1014 C1000 1.377 . S
C1014 C1013 1.373 . S
C1015 C999 1.377 . S
C1015 C1013 1.389 . S
C1015 C1016 1.524 . S
C1016 C1015 1.524 . S
C1016 C1017 1.397 . S
C1016 C1021 1.363 . S
C1017 H988 0.950 . S
C1017 C1016 1.397 . S
C1017 C1018 1.334 . S
C1018 H989 0.950 . S
C1018 C1017 1.334 . S
C1018 C1019 1.287 . S
C1019 C1018 1.287 . S
C1019 C1020 1.524 . S
C1019 H1022 0.999 . S
C1020 H990 0.950 . S
C1020 C1019 1.524 . S
C1020 C1021 1.415 . S
C1021 H991 0.950 . S
C1021 C1016 1.363 . S
C1021 C1020 1.415 . S
H1022 C1019 0.999 . S
H1023 C1004 0.913 . S
H1024 C1042 0.951 . S
H1025 C1044 0.951 1_455 S
H1026 C1046 0.950 1_556 S
H1027 C1047 0.950 . S
H1028 C1049 0.950 . S
H1029 C1052 0.950 . S
H1030 C1053 0.950 . S
H1031 C1055 0.950 1_455 S
H1032 C1056 0.942 1_455 S
H1033 C1057 0.951 . S
H1034 C1059 0.951 . S
H1035 C1061 0.950 . S
H1036 C1062 0.950 . S
H1037 C1064 0.950 1_554 S
H1038 C1067 0.950 . S
H1039 C1068 0.950 . S
H1040 C1070 0.950 . S
H1041 C1071 0.950 . S
C1042 H1024 0.951 . S
C1042 C1043 1.366 . S
C1042 C1044 1.388 . S
C1043 C1042 1.366 . S
C1043 C1047 1.385 . S
C1044 H1025 0.951 1_655 S
C1044 C1042 1.388 . S
C1044 C1045 1.366 . S
C1045 C1044 1.366 . S
C1045 C1046 1.414 . S
C1045 C1048 1.499 1_554 S
C1046 H1026 0.950 1_554 S
C1046 C1045 1.414 . S
C1046 C1047 1.374 . S
C1047 H1027 0.950 . S
C1047 C1043 1.385 . S
C1047 C1046 1.374 . S
C1048 C1045 1.499 1_556 S
C1048 C1049 1.373 . S
C1048 C1050 1.389 1_556 S
C1049 H1028 0.950 . S
C1049 C1048 1.373 . S
C1049 C1065 1.377 . S
C1050 C1048 1.389 1_554 S
C1050 C1051 1.524 . S
C1050 C1064 1.377 1_554 S
C1051 C1050 1.524 . S
C1051 C1052 1.397 . S
C1051 C1056 1.371 . S
C1052 H1029 0.950 . S
C1052 C1051 1.397 . S
C1052 C1053 1.334 . S
C1053 H1030 0.950 . S
C1053 C1052 1.334 . S
C1053 C1054 1.287 . S
C1054 C1053 1.287 . S
C1054 C1055 1.524 . S
C1054 H1073 0.913 . S
C1055 H1031 0.950 1_655 S
C1055 C1054 1.524 . S
C1055 C1056 1.416 . S
C1056 H1032 0.942 1_655 S
C1056 C1051 1.371 . S
C1056 C1055 1.416 . S
C1057 H1033 0.951 . S
C1057 C1058 1.366 1_655 S
C1057 C1059 1.388 . S
C1058 C1057 1.366 1_455 S
C1058 C1062 1.385 . S
C1059 H1034 0.951 . S
C1059 C1057 1.388 . S
C1059 C1060 1.366 . S
C1060 C1059 1.366 . S
C1060 C1061 1.414 1_655 S
C1060 C1063 1.499 . S
C1061 H1035 0.950 . S
C1061 C1060 1.414 1_455 S
C1061 C1062 1.374 . S
C1062 H1036 0.950 . S
C1062 C1058 1.385 . S
C1062 C1061 1.374 . S
C1063 C1060 1.499 . S
C1063 C1064 1.373 . S
C1063 C1065 1.389 . S
C1064 H1037 0.950 1_556 S
C1064 C1050 1.377 1_556 S
C1064 C1063 1.373 . S
C1065 C1049 1.377 . S
C1065 C1063 1.389 . S
C1065 C1066 1.524 . S
C1066 C1065 1.524 . S
C1066 C1067 1.397 1_655 S
C1066 C1071 1.363 . S
C1067 H1038 0.950 . S
C1067 C1066 1.397 1_455 S
C1067 C1068 1.334 . S
C1068 H1039 0.950 . S
C1068 C1067 1.334 . S
C1068 C1069 1.287 1_455 S
C1069 C1068 1.287 1_655 S
C1069 C1070 1.524 . S
C1069 H1072 0.999 . S
C1070 H1040 0.950 . S
C1070 C1069 1.524 . S
C1070 C1071 1.415 . S
C1071 H1041 0.950 . S
C1071 C1066 1.363 . S
C1071 C1070 1.415 . S
H1072 C1069 0.999 . S
H1073 C1054 0.913 . S
H1074 C1092 0.951 . S
H1075 C1094 0.951 . S
H1076 C1096 0.928 1_546 S
H1077 C1097 0.950 . S
H1078 C1099 0.950 1_554 S
H1079 C1102 0.950 . S
H1080 C1103 0.950 . S
H1081 C1105 0.950 . S
H1082 C1106 0.950 . S
H1083 C1107 0.951 . S
H1084 C1109 0.951 . S
H1085 C1111 0.950 . S
H1086 C1112 0.950 . S
H1087 C1114 0.950 . S
H1088 C1117 0.950 . S
H1089 C1118 0.950 1_554 S
H1090 C1120 0.950 . S
H1091 C1121 0.950 . S
C1092 H1074 0.951 . S
C1092 C1093 1.366 . S
C1092 C1094 1.388 . S
C1093 C1092 1.366 . S
C1093 C1097 1.385 . S
C1094 H1075 0.951 . S
C1094 C1092 1.388 . S
C1094 C1095 1.366 . S
C1095 C1094 1.366 . S
C1095 C1096 1.414 . S
C1095 C1098 1.499 1_554 S
C1096 H1076 0.928 1_564 S
C1096 C1095 1.414 . S
C1096 C1097 1.374 . S
C1097 H1077 0.950 . S
C1097 C1093 1.385 . S
C1097 C1096 1.374 . S
C1098 C1095 1.499 1_556 S
C1098 C1099 1.373 1_565 S
C1098 C1100 1.389 . S
C1099 H1078 0.950 1_556 S
C1099 C1098 1.373 1_545 S
C1099 C1115 1.377 . S
C1100 C1098 1.389 . S
C1100 C1101 1.524 . S
C1100 C1114 1.377 . S
C1101 C1100 1.524 . S
C1101 C1102 1.397 . S
C1101 C1106 1.363 . S
C1102 H1079 0.950 . S
C1102 C1101 1.397 . S
C1102 C1103 1.334 . S
C1103 H1080 0.950 . S
C1103 C1102 1.334 . S
C1103 C1104 1.287 . S
C1104 C1103 1.287 . S
C1104 C1105 1.524 . S
C1104 H1123 0.913 . S
C1105 H1081 0.950 . S
C1105 C1104 1.524 . S
C1105 C1106 1.415 . S
C1106 H1082 0.950 . S
C1106 C1101 1.363 . S
C1106 C1105 1.415 . S
C1107 H1083 0.951 . S
C1107 C1108 1.366 . S
C1107 C1109 1.388 . S
C1108 C1107 1.366 . S
C1108 C1112 1.385 1_545 S
C1109 H1084 0.951 . S
C1109 C1107 1.388 . S
C1109 C1110 1.366 1_545 S
C1110 C1109 1.366 1_565 S
C1110 C1111 1.414 . S
C1110 C1113 1.499 . S
C1111 H1085 0.950 . S
C1111 C1110 1.414 . S
C1111 C1112 1.374 . S
C1112 H1086 0.950 . S
C1112 C1108 1.385 1_565 S
C1112 C1111 1.374 . S
C1113 C1110 1.499 . S
C1113 C1114 1.373 . S
C1113 C1115 1.389 1_565 S
C1114 H1087 0.950 . S
C1114 C1100 1.377 . S
C1114 C1113 1.373 . S
C1115 C1099 1.377 . S
C1115 C1113 1.389 1_545 S
C1115 C1116 1.524 . S
C1116 C1115 1.524 . S
C1116 C1117 1.397 . S
C1116 C1121 1.363 . S
C1117 H1088 0.950 . S
C1117 C1116 1.397 . S
C1117 C1118 1.334 . S
C1118 H1089 0.950 1_556 S
C1118 C1117 1.334 . S
C1118 C1119 1.287 . S
C1119 C1118 1.287 . S
C1119 C1120 1.524 . S
C1119 H1122 0.999 . S
C1120 H1090 0.950 . S
C1120 C1119 1.524 . S
C1120 C1121 1.415 . S
C1121 H1091 0.950 . S
C1121 C1116 1.363 . S
C1121 C1120 1.415 . S
H1122 C1119 0.999 . S
H1123 C1104 0.913 . S
H1124 C1142 0.951 . S
H1125 C1144 0.951 1_556 S
H1126 C1146 0.950 . S
H1127 C1147 0.950 . S
H1128 C1149 0.953 . S
H1129 C1152 0.950 . S
H1130 C1153 0.950 . S
H1131 C1155 0.950 . S
H1132 C1156 0.950 . S
H1133 C1157 0.951 . S
H1134 C1159 0.951 . S
H1135 C1161 0.950 . S
H1136 C1162 0.950 . S
H1137 C1164 0.950 . S
H1138 C1167 0.950 . S
H1139 C1168 0.950 . S
H1140 C1170 0.950 . S
H1141 C1171 0.950 . S
C1142 H1124 0.951 . S
C1142 C1143 1.366 . S
C1142 C1144 1.388 . S
C1143 C1142 1.366 . S
C1143 C1147 1.385 . S
C1144 H1125 0.951 1_554 S
C1144 C1142 1.388 . S
C1144 C1145 1.366 . S
C1145 C1144 1.366 . S
C1145 C1146 1.414 . S
C1145 C1148 1.505 . S
C1146 H1126 0.950 . S
C1146 C1145 1.414 . S
C1146 C1147 1.374 . S
C1147 H1127 0.950 . S
C1147 C1143 1.385 . S
C1147 C1146 1.374 . S
C1148 C1145 1.505 . S
C1148 C1149 1.373 . S
C1148 C1150 1.382 1_554 S
C1149 H1128 0.953 . S
C1149 C1148 1.373 . S
C1149 C1165 1.374 1_554 S
C1150 C1148 1.382 1_556 S
C1150 C1151 1.524 . S
C1150 C1164 1.377 . S
C1151 C1150 1.524 . S
C1151 C1152 1.397 1_556 S
C1151 C1156 1.363 . S
C1152 H1129 0.950 . S
C1152 C1151 1.397 1_554 S
C1152 C1153 1.334 . S
C1153 H1130 0.950 . S
C1153 C1152 1.334 . S
C1153 C1154 1.287 1_554 S
C1154 C1153 1.287 1_556 S
C1154 C1155 1.524 . S
C1154 H1173 0.913 . S
C1155 H1131 0.950 . S
C1155 C1154 1.524 . S
C1155 C1156 1.415 . S
C1156 H1132 0.950 . S
C1156 C1151 1.363 . S
C1156 C1155 1.415 . S
C1157 H1133 0.951 . S
C1157 C1158 1.366 . S
C1157 C1159 1.388 . S
C1158 C1157 1.366 . S
C1158 C1162 1.385 . S
C1159 H1134 0.951 . S
C1159 C1157 1.388 . S
C1159 C1160 1.366 . S
C1160 C1159 1.366 . S
C1160 C1161 1.414 . S
C1160 C1163 1.499 . S
C1161 H1135 0.950 . S
C1161 C1160 1.414 . S
C1161 C1162 1.374 . S
C1162 H1136 0.950 . S
C1162 C1158 1.385 . S
C1162 C1161 1.374 . S
C1163 C1160 1.499 . S
C1163 C1164 1.373 . S
C1163 C1165 1.389 . S
C1164 H1137 0.950 . S
C1164 C1150 1.377 . S
C1164 C1163 1.373 . S
C1165 C1149 1.374 1_556 S
C1165 C1163 1.389 . S
C1165 C1166 1.524 . S
C1166 C1165 1.524 . S
C1166 C1167 1.397 . S
C1166 C1171 1.363 1_556 S
C1167 H1138 0.950 . S
C1167 C1166 1.397 . S
C1167 C1168 1.334 . S
C1168 H1139 0.950 . S
C1168 C1167 1.334 . S
C1168 C1169 1.287 . S
C1169 C1168 1.287 . S
C1169 C1170 1.524 1_556 S
C1169 H1172 0.999 . S
C1170 H1140 0.950 . S
C1170 C1169 1.524 1_554 S
C1170 C1171 1.415 . S
C1171 H1141 0.950 . S
C1171 C1166 1.363 1_554 S
C1171 C1170 1.415 . S
H1172 C1169 0.999 . S
H1173 C1154 0.913 . S
H1174 C1192 0.951 . S
H1175 C1194 0.951 1_556 S
H1176 C1196 0.950 . S
H1177 C1197 0.950 . S
H1178 C1199 0.950 . S
H1179 C1202 0.950 1_554 S
H1180 C1203 0.950 . S
H1181 C1205 0.950 . S
H1182 C1206 0.950 . S
H1183 C1207 0.951 . S
H1184 C1209 0.951 . S
H1185 C1211 0.950 . S
H1186 C1212 0.950 . S
H1187 C1214 0.950 . S
H1188 C1217 0.950 . S
H1189 C1218 0.950 . S
H1190 C1220 0.950 . S
H1191 C1221 0.950 . S
C1192 H1174 0.951 . S
C1192 C1193 1.366 . S
C1192 C1194 1.388 . S
C1193 C1192 1.366 . S
C1193 C1197 1.385 . S
C1194 H1175 0.951 1_554 S
C1194 C1192 1.388 . S
C1194 C1195 1.366 . S
C1195 C1194 1.366 . S
C1195 C1196 1.414 . S
C1195 C1198 1.499 1_554 S
C1196 H1176 0.950 . S
C1196 C1195 1.414 . S
C1196 C1197 1.374 . S
C1197 H1177 0.950 . S
C1197 C1193 1.385 . S
C1197 C1196 1.374 . S
C1198 C1195 1.499 1_556 S
C1198 C1199 1.373 1_556 S
C1198 C1200 1.389 . S
C1199 H1178 0.950 . S
C1199 C1198 1.373 1_554 S
C1199 C1215 1.377 1_554 S
C1200 C1198 1.389 . S
C1200 C1201 1.524 . S
C1200 C1214 1.377 . S
C1201 C1200 1.524 . S
C1201 C1202 1.397 . S
C1201 C1206 1.363 . S
C1202 H1179 0.950 1_556 S
C1202 C1201 1.397 . S
C1202 C1203 1.334 . S
C1203 H1180 0.950 . S
C1203 C1202 1.334 . S
C1203 C1204 1.287 . S
C1204 C1203 1.287 . S
C1204 C1205 1.524 . S
C1204 H1223 0.913 . S
C1205 H1181 0.950 . S
C1205 C1204 1.524 . S
C1205 C1206 1.415 . S
C1206 H1182 0.950 . S
C1206 C1201 1.363 . S
C1206 C1205 1.415 . S
C1207 H1183 0.951 . S
C1207 C1208 1.366 . S
C1207 C1209 1.388 . S
C1208 C1207 1.366 . S
C1208 C1212 1.385 . S
C1209 H1184 0.951 . S
C1209 C1207 1.388 . S
C1209 C1210 1.366 . S
C1210 C1209 1.366 . S
C1210 C1211 1.414 . S
C1210 C1213 1.499 . S
C1211 H1185 0.950 . S
C1211 C1210 1.414 . S
C1211 C1212 1.374 . S
C1212 H1186 0.950 . S
C1212 C1208 1.385 . S
C1212 C1211 1.374 . S
C1213 C1210 1.499 . S
C1213 C1214 1.373 . S
C1213 C1215 1.389 . S
C1214 H1187 0.950 . S
C1214 C1200 1.377 . S
C1214 C1213 1.373 . S
C1215 C1199 1.377 1_556 S
C1215 C1213 1.389 . S
C1215 C1216 1.524 . S
C1216 C1215 1.524 . S
C1216 C1217 1.397 . S
C1216 C1221 1.363 1_556 S
C1217 H1188 0.950 . S
C1217 C1216 1.397 . S
C1217 C1218 1.334 . S
C1218 H1189 0.950 . S
C1218 C1217 1.334 . S
C1218 C1219 1.287 1_556 S
C1219 C1218 1.287 1_554 S
C1219 C1220 1.524 . S
C1219 H1222 0.999 . S
C1220 H1190 0.950 . S
C1220 C1219 1.524 . S
C1220 C1221 1.415 . S
C1221 H1191 0.950 . S
C1221 C1216 1.363 1_554 S
C1221 C1220 1.415 . S
H1222 C1219 0.999 . S
H1223 C1204 0.913 . S
H1224 C1242 0.951 . S
H1225 C1244 0.951 . S
H1226 C1246 0.950 . S
H1227 C1247 0.950 . S
H1228 C1249 0.950 . S
H1229 C1252 0.950 . S
H1230 C1253 0.950 . S
H1231 C1255 0.950 . S
H1232 C1256 0.950 . S
H1233 C1257 0.951 1_655 S
H1234 C1259 0.951 1_655 S
H1235 C1261 0.950 . S
H1236 C1262 0.950 . S
H1237 C1264 0.950 . S
H1238 C1267 0.950 1_455 S
H1239 C1268 0.950 . S
H1240 C1270 0.950 . S
H1241 C1271 0.950 . S
C1242 H1224 0.951 . S
C1242 C1243 1.366 . S
C1242 C1244 1.388 . S
C1243 C1242 1.366 . S
C1243 C1247 1.385 . S
C1244 H1225 0.951 . S
C1244 C1242 1.388 . S
C1244 C1245 1.366 . S
C1245 C1244 1.366 . S
C1245 C1246 1.414 . S
C1245 C1248 1.499 . S
C1246 H1226 0.950 . S
C1246 C1245 1.414 . S
C1246 C1247 1.374 . S
C1247 H1227 0.950 . S
C1247 C1243 1.385 . S
C1247 C1246 1.374 . S
C1248 C1245 1.499 . S
C1248 C1249 1.373 . S
C1248 C1250 1.389 . S
C1249 H1228 0.950 . S
C1249 C1248 1.373 . S
C1249 C1265 1.377 . S
C1250 C1248 1.389 . S
C1250 C1251 1.524 . S
C1250 C1264 1.377 . S
C1251 C1250 1.524 . S
C1251 C1252 1.397 . S
C1251 C1256 1.363 . S
C1252 H1229 0.950 . S
C1252 C1251 1.397 . S
C1252 C1253 1.334 . S
C1253 H1230 0.950 . S
C1253 C1252 1.334 . S
C1253 C1254 1.287 . S
C1254 C1253 1.287 . S
C1254 C1255 1.524 . S
C1254 H1273 0.913 . S
C1255 H1231 0.950 . S
C1255 C1254 1.524 . S
C1255 C1256 1.415 . S
C1256 H1232 0.950 . S
C1256 C1251 1.363 . S
C1256 C1255 1.415 . S
C1257 H1233 0.951 1_455 S
C1257 C1258 1.366 . S
C1257 C1259 1.388 . S
C1258 C1257 1.366 . S
C1258 C1262 1.385 . S
C1259 H1234 0.951 1_455 S
C1259 C1257 1.388 . S
C1259 C1260 1.366 . S
C1260 C1259 1.366 . S
C1260 C1261 1.414 . S
C1260 C1263 1.499 . S
C1261 H1235 0.950 . S
C1261 C1260 1.414 . S
C1261 C1262 1.374 . S
C1262 H1236 0.950 . S
C1262 C1258 1.385 . S
C1262 C1261 1.374 . S
C1263 C1260 1.499 . S
C1263 C1264 1.373 . S
C1263 C1265 1.389 . S
C1264 H1237 0.950 . S
C1264 C1250 1.377 . S
C1264 C1263 1.373 . S
C1265 C1249 1.377 . S
C1265 C1263 1.389 . S
C1265 C1266 1.524 1_455 S
C1266 C1265 1.524 1_655 S
C1266 C1267 1.397 . S
C1266 C1271 1.363 . S
C1267 H1238 0.950 1_655 S
C1267 C1266 1.397 . S
C1267 C1268 1.334 . S
C1268 H1239 0.950 . S
C1268 C1267 1.334 . S
C1268 C1269 1.287 . S
C1269 C1268 1.287 . S
C1269 C1270 1.524 . S
C1269 H1272 0.999 . S
C1270 H1240 0.950 . S
C1270 C1269 1.524 . S
C1270 C1271 1.415 . S
C1271 H1241 0.950 . S
C1271 C1266 1.363 . S
C1271 C1270 1.415 . S
H1272 C1269 0.999 . S
H1273 C1254 0.913 . S
H1274 C1292 0.951 . S
H1275 C1294 0.951 . S
H1276 C1296 0.950 . S
H1277 C1297 0.950 . S
H1278 C1299 0.950 . S
H1279 C1302 0.950 . S
H1280 C1303 0.950 1_554 S
H1281 C1305 0.950 1_564 S
H1282 C1306 0.950 1_565 S
H1283 C1307 0.951 . S
H1284 C1309 0.951 . S
H1285 C1311 0.950 1_565 S
H1286 C1312 0.950 1_565 S
H1287 C1314 0.950 . S
H1288 C1317 0.950 . S
H1289 C1318 0.950 . S
H1290 C1320 0.950 . S
H1291 C1321 0.950 . S
C1292 H1274 0.951 . S
C1292 C1293 1.366 . S
C1292 C1294 1.388 . S
C1293 C1292 1.366 . S
C1293 C1297 1.385 . S
C1294 H1275 0.951 . S
C1294 C1292 1.388 . S
C1294 C1295 1.366 . S
C1295 C1294 1.366 . S
C1295 C1296 1.414 . S
C1295 C1298 1.499 . S
C1296 H1276 0.950 . S
C1296 C1295 1.414 . S
C1296 C1297 1.374 . S
C1297 H1277 0.950 . S
C1297 C1293 1.385 . S
C1297 C1296 1.374 . S
C1298 C1295 1.499 . S
C1298 C1299 1.373 . S
C1298 C1300 1.389 . S
C1299 H1278 0.950 . S
C1299 C1298 1.373 . S
C1299 C1315 1.377 . S
C1300 C1298 1.389 . S
C1300 C1301 1.524 . S
C1300 C1314 1.377 . S
C1301 C1300 1.524 . S
C1301 C1302 1.397 . S
C1301 C1306 1.363 . S
C1302 H1279 0.950 . S
C1302 C1301 1.397 . S
C1302 C1303 1.334 . S
C1303 H1280 0.950 1_556 S
C1303 C1302 1.334 . S
C1303 C1304 1.287 1_556 S
C1304 C1303 1.287 1_554 S
C1304 C1305 1.524 1_554 S
C1304 H1323 0.913 . S
C1305 H1281 0.950 1_546 S
C1305 C1304 1.524 1_556 S
C1305 C1306 1.415 . S
C1306 H1282 0.950 1_545 S
C1306 C1301 1.363 . S
C1306 C1305 1.415 . S
C1307 H1283 0.951 . S
C1307 C1308 1.366 . S
C1307 C1309 1.388 . S
C1308 C1307 1.366 . S
C1308 C1312 1.385 . S
C1309 H1284 0.951 . S
C1309 C1307 1.388 . S
C1309 C1310 1.366 . S
C1310 C1309 1.366 . S
C1310 C1311 1.414 . S
C1310 C1313 1.499 . S
C1311 H1285 0.950 1_545 S
C1311 C1310 1.414 . S
C1311 C1312 1.374 . S
C1312 H1286 0.950 1_545 S
C1312 C1308 1.385 . S
C1312 C1311 1.374 . S
C1313 C1310 1.499 . S
C1313 C1314 1.373 . S
C1313 C1315 1.389 . S
C1314 H1287 0.950 . S
C1314 C1300 1.377 . S
C1314 C1313 1.373 . S
C1315 C1299 1.377 . S
C1315 C1313 1.389 . S
C1315 C1316 1.524 . S
C1316 C1315 1.524 . S
C1316 C1317 1.397 . S
C1316 C1321 1.363 . S
C1317 H1288 0.950 . S
C1317 C1316 1.397 . S
C1317 C1318 1.334 . S
C1318 H1289 0.950 . S
C1318 C1317 1.334 . S
C1318 C1319 1.287 . S
C1319 C1318 1.287 . S
C1319 C1320 1.524 . S
C1319 H1322 0.999 . S
C1320 H1290 0.950 . S
C1320 C1319 1.524 . S
C1320 C1321 1.415 . S
C1321 H1291 0.950 . S
C1321 C1316 1.363 . S
C1321 C1320 1.415 . S
H1322 C1319 0.999 . S
H1323 C1304 0.913 . S
H1324 C1342 0.951 . S
H1325 C1344 0.951 . S
H1326 C1346 0.950 . S
H1327 C1347 0.950 . S
H1328 C1349 0.950 . S
H1329 C1352 0.950 . S
H1330 C1353 0.950 . S
H1331 C1355 0.950 . S
H1332 C1356 0.950 . S
H1333 C1357 0.951 . S
H1334 C1359 0.951 . S
H1335 C1361 0.950 . S
H1336 C1362 0.950 . S
H1337 C1364 0.950 . S
H1338 C1367 0.950 . S
H1339 C1368 0.950 . S
H1340 C1370 0.950 . S
H1341 C1371 0.950 . S
C1342 H1324 0.951 . S
C1342 C1343 1.366 . S
C1342 C1344 1.388 . S
C1343 C1342 1.366 . S
C1343 C1347 1.385 . S
C1344 H1325 0.951 . S
C1344 C1342 1.388 . S
C1344 C1345 1.366 . S
C1345 C1344 1.366 . S
C1345 C1346 1.414 . S
C1345 C1348 1.499 . S
C1346 H1326 0.950 . S
C1346 C1345 1.414 . S
C1346 C1347 1.374 . S
C1347 H1327 0.950 . S
C1347 C1343 1.385 . S
C1347 C1346 1.374 . S
C1348 C1345 1.499 . S
C1348 C1349 1.373 . S
C1348 C1350 1.389 . S
C1349 H1328 0.950 . S
C1349 C1348 1.373 . S
C1349 C1365 1.377 . S
C1350 C1348 1.389 . S
C1350 C1351 1.524 . S
C1350 C1364 1.377 . S
C1351 C1350 1.524 . S
C1351 C1352 1.397 . S
C1351 C1356 1.363 . S
C1352 H1329 0.950 . S
C1352 C1351 1.397 . S
C1352 C1353 1.334 . S
C1353 H1330 0.950 . S
C1353 C1352 1.334 . S
C1353 C1354 1.287 . S
C1354 C1353 1.287 . S
C1354 C1355 1.524 . S
C1354 H1373 0.913 . S
C1355 H1331 0.950 . S
C1355 C1354 1.524 . S
C1355 C1356 1.415 . S
C1356 H1332 0.950 . S
C1356 C1351 1.363 . S
C1356 C1355 1.415 . S
C1357 H1333 0.951 . S
C1357 C1358 1.366 . S
C1357 C1359 1.388 . S
C1358 C1357 1.366 . S
C1358 C1362 1.385 . S
C1359 H1334 0.951 . S
C1359 C1357 1.388 . S
C1359 C1360 1.366 . S
C1360 C1359 1.366 . S
C1360 C1361 1.414 . S
C1360 C1363 1.499 . S
C1361 H1335 0.950 . S
C1361 C1360 1.414 . S
C1361 C1362 1.374 . S
C1362 H1336 0.950 . S
C1362 C1358 1.385 . S
C1362 C1361 1.374 . S
C1363 C1360 1.499 . S
C1363 C1364 1.373 . S
C1363 C1365 1.389 . S
C1364 H1337 0.950 . S
C1364 C1350 1.377 . S
C1364 C1363 1.373 . S
C1365 C1349 1.377 . S
C1365 C1363 1.389 . S
C1365 C1366 1.524 . S
C1366 C1365 1.524 . S
C1366 C1367 1.397 . S
C1366 C1371 1.363 . S
C1367 H1338 0.950 . S
C1367 C1366 1.397 . S
C1367 C1368 1.334 . S
C1368 H1339 0.950 . S
C1368 C1367 1.334 . S
C1368 C1369 1.287 . S
C1369 C1368 1.287 . S
C1369 C1370 1.524 . S
C1369 H1372 0.999 . S
C1370 H1340 0.950 . S
C1370 C1369 1.524 . S
C1370 C1371 1.415 . S
C1371 H1341 0.950 . S
C1371 C1366 1.363 . S
C1371 C1370 1.415 . S
H1372 C1369 0.999 . S
H1373 C1354 0.913 . S
H1374 C1392 0.951 . S
H1375 C1394 0.951 . S
H1376 C1396 0.950 . S
H1377 C1397 0.950 . S
H1378 C1399 0.950 . S
H1379 C1402 0.950 . S
H1380 C1403 0.950 . S
H1381 C1405 0.950 . S
H1382 C1406 0.950 . S
H1383 C1407 0.951 . S
H1384 C1409 0.951 . S
H1385 C1411 0.950 . S
H1386 C1412 0.950 . S
H1387 C1414 0.950 . S
H1388 C1417 0.950 . S
H1389 C1418 0.950 . S
H1390 C1420 0.950 . S
H1391 C1421 0.950 . S
C1392 H1374 0.951 . S
C1392 C1393 1.366 . S
C1392 C1394 1.388 . S
C1393 C1392 1.366 . S
C1393 C1397 1.385 . S
C1394 H1375 0.951 . S
C1394 C1392 1.388 . S
C1394 C1395 1.366 . S
C1395 C1394 1.366 . S
C1395 C1396 1.414 . S
C1395 C1398 1.499 . S
C1396 H1376 0.950 . S
C1396 C1395 1.414 . S
C1396 C1397 1.374 . S
C1397 H1377 0.950 . S
C1397 C1393 1.385 . S
C1397 C1396 1.374 . S
C1398 C1395 1.499 . S
C1398 C1399 1.373 . S
C1398 C1400 1.389 . S
C1399 H1378 0.950 . S
C1399 C1398 1.373 . S
C1399 C1415 1.377 . S
C1400 C1398 1.389 . S
C1400 C1401 1.524 . S
C1400 C1414 1.377 . S
C1401 C1400 1.524 . S
C1401 C1402 1.397 . S
C1401 C1406 1.363 . S
C1402 H1379 0.950 . S
C1402 C1401 1.397 . S
C1402 C1403 1.334 . S
C1403 H1380 0.950 . S
C1403 C1402 1.334 . S
C1403 C1404 1.287 . S
C1404 C1403 1.287 . S
C1404 C1405 1.524 . S
C1404 H1423 0.913 . S
C1405 H1381 0.950 . S
C1405 C1404 1.524 . S
C1405 C1406 1.415 . S
C1406 H1382 0.950 . S
C1406 C1401 1.363 . S
C1406 C1405 1.415 . S
C1407 H1383 0.951 . S
C1407 C1408 1.366 . S
C1407 C1409 1.388 . S
C1408 C1407 1.366 . S
C1408 C1412 1.385 . S
C1409 H1384 0.951 . S
C1409 C1407 1.388 . S
C1409 C1410 1.366 . S
C1410 C1409 1.366 . S
C1410 C1411 1.414 . S
C1410 C1413 1.499 . S
C1411 H1385 0.950 . S
C1411 C1410 1.414 . S
C1411 C1412 1.374 . S
C1412 H1386 0.950 . S
C1412 C1408 1.385 . S
C1412 C1411 1.374 . S
C1413 C1410 1.499 . S
C1413 C1414 1.373 . S
C1413 C1415 1.389 . S
C1414 H1387 0.950 . S
C1414 C1400 1.377 . S
C1414 C1413 1.373 . S
C1415 C1399 1.377 . S
C1415 C1413 1.389 . S
C1415 C1416 1.524 . S
C1416 C1415 1.524 . S
C1416 C1417 1.397 . S
C1416 C1421 1.363 . S
C1417 H1388 0.950 . S
C1417 C1416 1.397 . S
C1417 C1418 1.334 . S
C1418 H1389 0.950 . S
C1418 C1417 1.334 . S
C1418 C1419 1.287 . S
C1419 C1418 1.287 . S
C1419 C1420 1.524 . S
C1419 H1422 0.999 . S
C1420 H1390 0.950 . S
C1420 C1419 1.524 . S
C1420 C1421 1.415 . S
C1421 H1391 0.950 . S
C1421 C1416 1.363 . S
C1421 C1420 1.415 . S
H1422 C1419 0.999 . S
H1423 C1404 0.913 . S
H1424 C1442 0.951 . S
H1425 C1444 0.951 . S
H1426 C1446 0.950 . S
H1427 C1447 0.950 . S
H1428 C1449 0.950 1_455 S
H1429 C1452 0.950 . S
H1430 C1453 0.950 . S
H1431 C1455 0.950 . S
H1432 C1456 0.950 . S
H1433 C1457 0.951 . S
H1434 C1459 0.951 . S
H1435 C1461 0.950 . S
H1436 C1462 0.950 . S
H1437 C1464 0.950 . S
H1438 C1467 0.950 . S
H1439 C1468 0.950 . S
H1440 C1470 0.950 . S
H1441 C1471 0.950 . S
C1442 H1424 0.951 . S
C1442 C1443 1.366 . S
C1442 C1444 1.388 . S
C1443 C1442 1.366 . S
C1443 C1447 1.385 . S
C1444 H1425 0.951 . S
C1444 C1442 1.388 . S
C1444 C1445 1.366 . S
C1445 C1444 1.366 . S
C1445 C1446 1.414 . S
C1445 C1448 1.499 . S
C1446 H1426 0.950 . S
C1446 C1445 1.414 . S
C1446 C1447 1.374 . S
C1447 H1427 0.950 . S
C1447 C1443 1.385 . S
C1447 C1446 1.374 . S
C1448 C1445 1.499 . S
C1448 C1449 1.373 . S
C1448 C1450 1.389 . S
C1449 H1428 0.950 1_655 S
C1449 C1448 1.373 . S
C1449 C1465 1.377 . S
C1450 C1448 1.389 . S
C1450 C1451 1.524 . S
C1450 C1464 1.377 . S
C1451 C1450 1.524 . S
C1451 C1452 1.397 . S
C1451 C1456 1.363 . S
C1452 H1429 0.950 . S
C1452 C1451 1.397 . S
C1452 C1453 1.334 . S
C1453 H1430 0.950 . S
C1453 C1452 1.334 . S
C1453 C1454 1.287 . S
C1454 C1453 1.287 . S
C1454 C1455 1.524 . S
C1454 H1473 0.913 . S
C1455 H1431 0.950 . S
C1455 C1454 1.524 . S
C1455 C1456 1.415 . S
C1456 H1432 0.950 . S
C1456 C1451 1.363 . S
C1456 C1455 1.415 . S
C1457 H1433 0.951 . S
C1457 C1458 1.366 . S
C1457 C1459 1.388 . S
C1458 C1457 1.366 . S
C1458 C1462 1.385 . S
C1459 H1434 0.951 . S
C1459 C1457 1.388 . S
C1459 C1460 1.366 . S
C1460 C1459 1.366 . S
C1460 C1461 1.414 . S
C1460 C1463 1.499 . S
C1461 H1435 0.950 . S
C1461 C1460 1.414 . S
C1461 C1462 1.374 . S
C1462 H1436 0.950 . S
C1462 C1458 1.385 . S
C1462 C1461 1.374 . S
C1463 C1460 1.499 . S
C1463 C1464 1.373 . S
C1463 C1465 1.389 . S
C1464 H1437 0.950 . S
C1464 C1450 1.377 . S
C1464 C1463 1.373 . S
C1465 C1449 1.377 . S
C1465 C1463 1.389 . S
C1465 C1466 1.524 1_655 S
C1466 C1465 1.524 1_455 S
C1466 C1467 1.397 . S
C1466 C1471 1.363 . S
C1467 H1438 0.950 . S
C1467 C1466 1.397 . S
C1467 C1468 1.334 . S
C1468 H1439 0.950 . S
C1468 C1467 1.334 . S
C1468 C1469 1.287 . S
C1469 C1468 1.287 . S
C1469 C1470 1.524 . S
C1469 H1472 0.999 . S
C1470 H1440 0.950 . S
C1470 C1469 1.524 . S
C1470 C1471 1.415 . S
C1471 H1441 0.950 . S
C1471 C1466 1.363 . S
C1471 C1470 1.415 . S
H1472 C1469 0.999 . S
H1473 C1454 0.913 . S
H1474 C1492 0.951 . S
H1475 C1494 0.951 . S
H1476 C1496 0.950 . S
H1477 C1497 0.950 . S
H1478 C1499 0.983 . S
H1479 C1502 0.950 . S
H1480 C1503 0.950 . S
H1481 C1505 0.950 . S
H1482 C1506 0.950 . S
H1483 C1507 0.951 . S
H1484 C1509 0.951 . S
H1485 C1511 0.950 . S
H1486 C1512 0.950 . S
H1487 C1514 0.950 . S
H1488 C1517 0.950 . S
H1489 C1518 0.950 . S
H1490 C1520 0.950 . S
H1491 C1521 0.950 . S
C1492 H1474 0.951 . S
C1492 C1493 1.366 . S
C1492 C1494 1.388 . S
C1493 C1492 1.366 . S
C1493 C1497 1.385 . S
C1494 H1475 0.951 . S
C1494 C1492 1.388 . S
C1494 C1495 1.366 . S
C1495 C1494 1.366 . S
C1495 C1496 1.414 . S
C1495 C1498 1.499 . S
C1496 H1476 0.950 . S
C1496 C1495 1.414 . S
C1496 C1497 1.374 . S
C1497 H1477 0.950 . S
C1497 C1493 1.385 . S
C1497 C1496 1.374 . S
C1498 C1495 1.499 . S
C1498 C1499 1.334 1_565 S
C1498 C1500 1.389 . S
C1499 H1478 0.983 . S
C1499 C1498 1.334 1_545 S
C1499 C1515 1.384 . S
C1500 C1498 1.389 . S
C1500 C1501 1.524 . S
C1500 C1514 1.377 . S
C1501 C1500 1.524 . S
C1501 C1502 1.397 . S
C1501 C1506 1.363 . S
C1502 H1479 0.950 . S
C1502 C1501 1.397 . S
C1502 C1503 1.334 . S
C1503 H1480 0.950 . S
C1503 C1502 1.334 . S
C1503 C1504 1.287 . S
C1504 C1503 1.287 . S
C1504 C1505 1.524 . S
C1504 H1523 0.913 . S
C1505 H1481 0.950 . S
C1505 C1504 1.524 . S
C1505 C1506 1.415 . S
C1506 H1482 0.950 . S
C1506 C1501 1.363 . S
C1506 C1505 1.415 . S
C1507 H1483 0.951 . S
C1507 C1508 1.366 1_545 S
C1507 C1509 1.388 . S
C1508 C1507 1.366 1_565 S
C1508 C1512 1.385 . S
C1509 H1484 0.951 . S
C1509 C1507 1.388 . S
C1509 C1510 1.366 1_545 S
C1510 C1509 1.366 1_565 S
C1510 C1511 1.414 . S
C1510 C1513 1.499 . S
C1511 H1485 0.950 . S
C1511 C1510 1.414 . S
C1511 C1512 1.374 . S
C1512 H1486 0.950 . S
C1512 C1508 1.385 . S
C1512 C1511 1.374 . S
C1513 C1510 1.499 . S
C1513 C1514 1.373 . S
C1513 C1515 1.389 1_565 S
C1514 H1487 0.950 . S
C1514 C1500 1.377 . S
C1514 C1513 1.373 . S
C1515 C1499 1.384 . S
C1515 C1513 1.389 1_545 S
C1515 C1516 1.524 . S
C1516 C1515 1.524 . S
C1516 C1517 1.397 . S
C1516 C1521 1.363 . S
C1517 H1488 0.950 . S
C1517 C1516 1.397 . S
C1517 C1518 1.334 . S
C1518 H1489 0.950 . S
C1518 C1517 1.334 . S
C1518 C1519 1.287 . S
C1519 C1518 1.287 . S
C1519 C1520 1.524 . S
C1519 H1522 0.999 . S
C1520 H1490 0.950 . S
C1520 C1519 1.524 . S
C1520 C1521 1.415 . S
C1521 H1491 0.950 . S
C1521 C1516 1.363 . S
C1521 C1520 1.415 . S
H1522 C1519 0.999 . S
H1523 C1504 0.913 . S
H1524 C1542 0.951 . S
H1525 C1544 0.951 . S
H1526 C1546 0.950 . S
H1527 C1547 0.950 . S
H1528 C1549 0.950 . S
H1529 C1552 0.950 . S
H1530 C1553 0.950 . S
H1531 C1555 0.950 . S
H1532 C1556 0.950 . S
H1533 C1557 0.951 . S
H1534 C1559 0.951 . S
H1535 C1561 0.950 . S
H1536 C1562 0.950 . S
H1537 C1564 0.950 . S
H1538 C1567 0.950 . S
H1539 C1568 0.950 . S
H1540 C1570 0.950 . S
H1541 C1571 0.950 . S
C1542 H1524 0.951 . S
C1542 C1543 1.366 . S
C1542 C1544 1.388 . S
C1543 C1542 1.366 . S
C1543 C1547 1.385 . S
C1544 H1525 0.951 . S
C1544 C1542 1.388 . S
C1544 C1545 1.366 . S
C1545 C1544 1.366 . S
C1545 C1546 1.414 . S
C1545 C1548 1.499 . S
C1546 H1526 0.950 . S
C1546 C1545 1.414 . S
C1546 C1547 1.374 . S
C1547 H1527 0.950 . S
C1547 C1543 1.385 . S
C1547 C1546 1.374 . S
C1548 C1545 1.499 . S
C1548 C1549 1.373 . S
C1548 C1550 1.389 . S
C1549 H1528 0.950 . S
C1549 C1548 1.373 . S
C1549 C1565 1.377 . S
C1550 C1548 1.389 . S
C1550 C1551 1.524 . S
C1550 C1564 1.377 . S
C1551 C1550 1.524 . S
C1551 C1552 1.397 . S
C1551 C1556 1.363 . S
C1552 H1529 0.950 . S
C1552 C1551 1.397 . S
C1552 C1553 1.334 . S
C1553 H1530 0.950 . S
C1553 C1552 1.334 . S
C1553 C1554 1.287 . S
C1554 C1553 1.287 . S
C1554 C1555 1.524 . S
C1554 H1573 0.913 . S
C1555 H1531 0.950 . S
C1555 C1554 1.524 . S
C1555 C1556 1.415 . S
C1556 H1532 0.950 . S
C1556 C1551 1.363 . S
C1556 C1555 1.415 . S
C1557 H1533 0.951 . S
C1557 C1558 1.366 . S
C1557 C1559 1.388 . S
C1558 C1557 1.366 . S
C1558 C1562 1.385 . S
C1559 H1534 0.951 . S
C1559 C1557 1.388 . S
C1559 C1560 1.366 . S
C1560 C1559 1.366 . S
C1560 C1561 1.414 . S
C1560 C1563 1.499 . S
C1561 H1535 0.950 . S
C1561 C1560 1.414 . S
C1561 C1562 1.374 . S
C1562 H1536 0.950 . S
C1562 C1558 1.385 . S
C1562 C1561 1.374 . S
C1563 C1560 1.499 . S
C1563 C1564 1.373 . S
C1563 C1565 1.389 . S
C1564 H1537 0.950 . S
C1564 C1550 1.377 . S
C1564 C1563 1.373 . S
C1565 C1549 1.377 . S
C1565 C1563 1.389 . S
C1565 C1566 1.524 . S
C1566 C1565 1.524 . S
C1566 C1567 1.397 . S
C1566 C1571 1.363 . S
C1567 H1538 0.950 . S
C1567 C1566 1.397 . S
C1567 C1568 1.334 . S
C1568 H1539 0.950 . S
C1568 C1567 1.334 . S
C1568 C1569 1.287 . S
C1569 C1568 1.287 . S
C1569 C1570 1.524 . S
C1569 H1572 0.999 . S
C1570 H1540 0.950 . S
C1570 C1569 1.524 . S
C1570 C1571 1.415 . S
C1571 H1541 0.950 . S
C1571 C1566 1.363 . S
C1571 C1570 1.415 . S
H1572 C1569 0.999 . S
H1573 C1554 0.913 . S
H1574 C1592 0.951 . S
H1575 C1594 0.951 . S
H1576 C1596 0.950 . S
H1577 C1597 0.950 . S
H1578 C1599 0.950 . S
H1579 C1602 0.950 . S
H1580 C1603 0.950 . S
H1581 C1605 0.950 . S
H1582 C1606 0.950 . S
H1583 C1607 0.951 . S
H1584 C1609 0.951 . S
H1585 C1611 0.950 . S
H1586 C1612 0.950 . S
H1587 C1614 0.950 . S
H1588 C1617 0.950 . S
H1589 C1618 0.950 . S
H1590 C1620 0.950 . S
H1591 C1621 0.950 . S
C1592 H1574 0.951 . S
C1592 C1593 1.366 . S
C1592 C1594 1.388 . S
C1593 C1592 1.366 . S
C1593 C1597 1.385 . S
C1594 H1575 0.951 . S
C1594 C1592 1.388 . S
C1594 C1595 1.366 . S
C1595 C1594 1.366 . S
C1595 C1596 1.414 . S
C1595 C1598 1.499 . S
C1596 H1576 0.950 . S
C1596 C1595 1.414 . S
C1596 C1597 1.374 . S
C1597 H1577 0.950 . S
C1597 C1593 1.385 . S
C1597 C1596 1.374 . S
C1598 C1595 1.499 . S
C1598 C1599 1.373 . S
C1598 C1600 1.389 . S
C1599 H1578 0.950 . S
C1599 C1598 1.373 . S
C1599 C1615 1.377 . S
C1600 C1598 1.389 . S
C1600 C1601 1.524 . S
C1600 C1614 1.377 . S
C1601 C1600 1.524 . S
C1601 C1602 1.397 . S
C1601 C1606 1.363 . S
C1602 H1579 0.950 . S
C1602 C1601 1.397 . S
C1602 C1603 1.334 . S
C1603 H1580 0.950 . S
C1603 C1602 1.334 . S
C1603 C1604 1.287 . S
C1604 C1603 1.287 . S
C1604 C1605 1.524 . S
C1604 H1623 0.913 . S
C1605 H1581 0.950 . S
C1605 C1604 1.524 . S
C1605 C1606 1.415 . S
C1606 H1582 0.950 . S
C1606 C1601 1.363 . S
C1606 C1605 1.415 . S
C1607 H1583 0.951 . S
C1607 C1608 1.366 . S
C1607 C1609 1.388 . S
C1608 C1607 1.366 . S
C1608 C1612 1.385 . S
C1609 H1584 0.951 . S
C1609 C1607 1.388 . S
C1609 C1610 1.366 . S
C1610 C1609 1.366 . S
C1610 C1611 1.414 . S
C1610 C1613 1.499 . S
C1611 H1585 0.950 . S
C1611 C1610 1.414 . S
C1611 C1612 1.374 . S
C1612 H1586 0.950 . S
C1612 C1608 1.385 . S
C1612 C1611 1.374 . S
C1613 C1610 1.499 . S
C1613 C1614 1.373 . S
C1613 C1615 1.389 . S
C1614 H1587 0.950 . S
C1614 C1600 1.377 . S
C1614 C1613 1.373 . S
C1615 C1599 1.377 . S
C1615 C1613 1.389 . S
C1615 C1616 1.524 . S
C1616 C1615 1.524 . S
C1616 C1617 1.397 . S
C1616 C1621 1.363 . S
C1617 H1588 0.950 . S
C1617 C1616 1.397 . S
C1617 C1618 1.334 . S
C1618 H1589 0.950 . S
C1618 C1617 1.334 . S
C1618 C1619 1.287 . S
C1619 C1618 1.287 . S
C1619 C1620 1.524 . S
C1619 H1622 0.999 . S
C1620 H1590 0.950 . S
C1620 C1619 1.524 . S
C1620 C1621 1.415 . S
C1621 H1591 0.950 . S
C1621 C1616 1.363 . S
C1621 C1620 1.415 . S
H1622 C1619 0.999 . S
H1623 C1604 0.913 . S
C443 C74 1.815 . S
C458 C151 1.861 . S
C508 C228 1.873 . S
C493 C85 1.817 . S
C558 C319 1.849 . S
C543 C52 1.803 . S
C608 C403 1.841 . S
C593 C63 1.796 . S
C658 C162 1.873 . S
C643 C30 1.782 . S
C693 C41 1.785 . S
C708 C239 1.873 . S
C743 C8 1.772 . S
C758 C330 1.849 . S
C793 C19 1.765 . S
C808 C414 1.841 1_655 S
C858 C146 0.580 1_455 S
C843 C62 0.560 . S
C908 C241 0.608 . S
C893 C73 0.528 . S
C958 C314 0.607 . S
C943 C84 0.562 . S
C993 C51 0.543 . S
C1008 C398 0.595 . S
C1043 C18 0.595 . S
C1058 C157 0.610 . S
C1108 C230 0.611 . S
C1093 C29 0.573 . S
C1158 C325 0.607 . S
C1143 C40 0.601 . S
C1193 C7 0.585 . S
C1208 C409 0.595 . S
C1243 C60 1.642 . S
C1258 C155 1.983 . S
C1293 C71 1.647 . S
C1308 C246 1.983 . S
C1358 C323 2.000 . S
C1343 C82 1.659 . S
C1408 C407 2.006 . S
C1393 C49 1.661 . S
C1443 C16 1.516 . S
C1458 C144 1.983 . S
C1508 C235 1.984 1_565 S
C1493 C27 1.513 . S
C1558 C312 2.000 . S
C1543 C38 1.527 . S
C1593 C5 1.536 . S
C1608 C396 2.006 . S
