# Generated by pormake.
# Topology gar, (4,6)-cn, num edge types: 1
# Building blocks:
#     Node 0, Type 0, BuildingBlock: KUFVIS_clean_sbu_0, # of connection points: 4
#     Node 1, Type 0, BuildingBlock: KUFVIS_clean_sbu_0, # of connection points: 4
#     Node 2, Type 0, BuildingBlock: KUFVIS_clean_sbu_0, # of connection points: 4
#     Node 3, Type 0, BuildingBlock: KUFVIS_clean_sbu_0, # of connection points: 4
#     Node 4, Type 0, BuildingBlock: KUFVIS_clean_sbu_0, # of connection points: 4
#     Node 5, Type 0, BuildingBlock: KUFVIS_clean_sbu_0, # of connection points: 4
#     Node 6, Type 0, BuildingBlock: KUFVIS_clean_sbu_0, # of connection points: 4
#     Node 7, Type 0, BuildingBlock: KUFVIS_clean_sbu_0, # of connection points: 4
#     Node 8, Type 0, BuildingBlock: KUFVIS_clean_sbu_0, # of connection points: 4
#     Node 9, Type 0, BuildingBlock: KUFVIS_clean_sbu_0, # of connection points: 4
#     Node 10, Type 0, BuildingBlock: KUFVIS_clean_sbu_0, # of connection points: 4
#     Node 11, Type 0, BuildingBlock: KUFVIS_clean_sbu_0, # of connection points: 4
#     Node 12, Type 0, BuildingBlock: KUFVIS_clean_sbu_0, # of connection points: 4
#     Node 13, Type 0, BuildingBlock: KUFVIS_clean_sbu_0, # of connection points: 4
#     Node 14, Type 0, BuildingBlock: KUFVIS_clean_sbu_0, # of connection points: 4
#     Node 15, Type 0, BuildingBlock: KUFVIS_clean_sbu_0, # of connection points: 4
#     Node 16, Type 0, BuildingBlock: KUFVIS_clean_sbu_0, # of connection points: 4
#     Node 17, Type 0, BuildingBlock: KUFVIS_clean_sbu_0, # of connection points: 4
#     Node 18, Type 0, BuildingBlock: KUFVIS_clean_sbu_0, # of connection points: 4
#     Node 19, Type 0, BuildingBlock: KUFVIS_clean_sbu_0, # of connection points: 4
#     Node 20, Type 0, BuildingBlock: KUFVIS_clean_sbu_0, # of connection points: 4
#     Node 21, Type 0, BuildingBlock: KUFVIS_clean_sbu_0, # of connection points: 4
#     Node 22, Type 0, BuildingBlock: KUFVIS_clean_sbu_0, # of connection points: 4
#     Node 23, Type 0, BuildingBlock: KUFVIS_clean_sbu_0, # of connection points: 4
#     Node 24, Type 1, BuildingBlock: KUMBOL_clean_sbu_0, # of connection points: 6
#     Node 25, Type 1, BuildingBlock: KUMBOL_clean_sbu_0, # of connection points: 6
#     Node 26, Type 1, BuildingBlock: KUMBOL_clean_sbu_0, # of connection points: 6
#     Node 27, Type 1, BuildingBlock: KUMBOL_clean_sbu_0, # of connection points: 6
#     Node 28, Type 1, BuildingBlock: KUMBOL_clean_sbu_0, # of connection points: 6
#     Node 29, Type 1, BuildingBlock: KUMBOL_clean_sbu_0, # of connection points: 6
#     Node 30, Type 1, BuildingBlock: KUMBOL_clean_sbu_0, # of connection points: 6
#     Node 31, Type 1, BuildingBlock: KUMBOL_clean_sbu_0, # of connection points: 6
#     Node 32, Type 1, BuildingBlock: KUMBOL_clean_sbu_0, # of connection points: 6
#     Node 33, Type 1, BuildingBlock: KUMBOL_clean_sbu_0, # of connection points: 6
#     Node 34, Type 1, BuildingBlock: KUMBOL_clean_sbu_0, # of connection points: 6
#     Node 35, Type 1, BuildingBlock: KUMBOL_clean_sbu_0, # of connection points: 6
#     Node 36, Type 1, BuildingBlock: KUMBOL_clean_sbu_0, # of connection points: 6
#     Node 37, Type 1, BuildingBlock: KUMBOL_clean_sbu_0, # of connection points: 6
#     Node 38, Type 1, BuildingBlock: KUMBOL_clean_sbu_0, # of connection points: 6
#     Node 39, Type 1, BuildingBlock: KUMBOL_clean_sbu_0, # of connection points: 6
#     Edge 40, Type (0, 1), BuildingBlock: UVAHIK_clean_linker_0, # of connection points: 2
#     Edge 41, Type (0, 1), BuildingBlock: UVAHIK_clean_linker_0, # of connection points: 2
#     Edge 42, Type (0, 1), BuildingBlock: UVAHIK_clean_linker_0, # of connection points: 2
#     Edge 43, Type (0, 1), BuildingBlock: UVAHIK_clean_linker_0, # of connection points: 2
#     Edge 44, Type (0, 1), BuildingBlock: UVAHIK_clean_linker_0, # of connection points: 2
#     Edge 45, Type (0, 1), BuildingBlock: UVAHIK_clean_linker_0, # of connection points: 2
#     Edge 46, Type (0, 1), BuildingBlock: UVAHIK_clean_linker_0, # of connection points: 2
#     Edge 47, Type (0, 1), BuildingBlock: UVAHIK_clean_linker_0, # of connection points: 2
#     Edge 48, Type (0, 1), BuildingBlock: UVAHIK_clean_linker_0, # of connection points: 2
#     Edge 49, Type (0, 1), BuildingBlock: UVAHIK_clean_linker_0, # of connection points: 2
#     Edge 50, Type (0, 1), BuildingBlock: UVAHIK_clean_linker_0, # of connection points: 2
#     Edge 51, Type (0, 1), BuildingBlock: UVAHIK_clean_linker_0, # of connection points: 2
#     Edge 52, Type (0, 1), BuildingBlock: UVAHIK_clean_linker_0, # of connection points: 2
#     Edge 53, Type (0, 1), BuildingBlock: UVAHIK_clean_linker_0, # of connection points: 2
#     Edge 54, Type (0, 1), BuildingBlock: UVAHIK_clean_linker_0, # of connection points: 2
#     Edge 55, Type (0, 1), BuildingBlock: UVAHIK_clean_linker_0, # of connection points: 2
#     Edge 56, Type (0, 1), BuildingBlock: UVAHIK_clean_linker_0, # of connection points: 2
#     Edge 57, Type (0, 1), BuildingBlock: UVAHIK_clean_linker_0, # of connection points: 2
#     Edge 58, Type (0, 1), BuildingBlock: UVAHIK_clean_linker_0, # of connection points: 2
#     Edge 59, Type (0, 1), BuildingBlock: UVAHIK_clean_linker_0, # of connection points: 2
#     Edge 60, Type (0, 1), BuildingBlock: UVAHIK_clean_linker_0, # of connection points: 2
#     Edge 61, Type (0, 1), BuildingBlock: UVAHIK_clean_linker_0, # of connection points: 2
#     Edge 62, Type (0, 1), BuildingBlock: UVAHIK_clean_linker_0, # of connection points: 2
#     Edge 63, Type (0, 1), BuildingBlock: UVAHIK_clean_linker_0, # of connection points: 2
#     Edge 64, Type (0, 1), BuildingBlock: UVAHIK_clean_linker_0, # of connection points: 2
#     Edge 65, Type (0, 1), BuildingBlock: UVAHIK_clean_linker_0, # of connection points: 2
#     Edge 66, Type (0, 1), BuildingBlock: UVAHIK_clean_linker_0, # of connection points: 2
#     Edge 67, Type (0, 1), BuildingBlock: UVAHIK_clean_linker_0, # of connection points: 2
#     Edge 68, Type (0, 1), BuildingBlock: UVAHIK_clean_linker_0, # of connection points: 2
#     Edge 69, Type (0, 1), BuildingBlock: UVAHIK_clean_linker_0, # of connection points: 2
#     Edge 70, Type (0, 1), BuildingBlock: UVAHIK_clean_linker_0, # of connection points: 2
#     Edge 71, Type (0, 1), BuildingBlock: UVAHIK_clean_linker_0, # of connection points: 2
#     Edge 72, Type (0, 1), BuildingBlock: UVAHIK_clean_linker_0, # of connection points: 2
#     Edge 73, Type (0, 1), BuildingBlock: UVAHIK_clean_linker_0, # of connection points: 2
#     Edge 74, Type (0, 1), BuildingBlock: UVAHIK_clean_linker_0, # of connection points: 2
#     Edge 75, Type (0, 1), BuildingBlock: UVAHIK_clean_linker_0, # of connection points: 2
#     Edge 76, Type (0, 1), BuildingBlock: UVAHIK_clean_linker_0, # of connection points: 2
#     Edge 77, Type (0, 1), BuildingBlock: UVAHIK_clean_linker_0, # of connection points: 2
#     Edge 78, Type (0, 1), BuildingBlock: UVAHIK_clean_linker_0, # of connection points: 2
#     Edge 79, Type (0, 1), BuildingBlock: UVAHIK_clean_linker_0, # of connection points: 2
#     Edge 80, Type (0, 1), BuildingBlock: UVAHIK_clean_linker_0, # of connection points: 2
#     Edge 81, Type (0, 1), BuildingBlock: UVAHIK_clean_linker_0, # of connection points: 2
#     Edge 82, Type (0, 1), BuildingBlock: UVAHIK_clean_linker_0, # of connection points: 2
#     Edge 83, Type (0, 1), BuildingBlock: UVAHIK_clean_linker_0, # of connection points: 2
#     Edge 84, Type (0, 1), BuildingBlock: UVAHIK_clean_linker_0, # of connection points: 2
#     Edge 85, Type (0, 1), BuildingBlock: UVAHIK_clean_linker_0, # of connection points: 2
#     Edge 86, Type (0, 1), BuildingBlock: UVAHIK_clean_linker_0, # of connection points: 2
#     Edge 87, Type (0, 1), BuildingBlock: UVAHIK_clean_linker_0, # of connection points: 2
#     Edge 88, Type (0, 1), BuildingBlock: UVAHIK_clean_linker_0, # of connection points: 2
#     Edge 89, Type (0, 1), BuildingBlock: UVAHIK_clean_linker_0, # of connection points: 2
#     Edge 90, Type (0, 1), BuildingBlock: UVAHIK_clean_linker_0, # of connection points: 2
#     Edge 91, Type (0, 1), BuildingBlock: UVAHIK_clean_linker_0, # of connection points: 2
#     Edge 92, Type (0, 1), BuildingBlock: UVAHIK_clean_linker_0, # of connection points: 2
#     Edge 93, Type (0, 1), BuildingBlock: UVAHIK_clean_linker_0, # of connection points: 2
#     Edge 94, Type (0, 1), BuildingBlock: UVAHIK_clean_linker_0, # of connection points: 2
#     Edge 95, Type (0, 1), BuildingBlock: UVAHIK_clean_linker_0, # of connection points: 2
#     Edge 96, Type (0, 1), BuildingBlock: UVAHIK_clean_linker_0, # of connection points: 2
#     Edge 97, Type (0, 1), BuildingBlock: UVAHIK_clean_linker_0, # of connection points: 2
#     Edge 98, Type (0, 1), BuildingBlock: UVAHIK_clean_linker_0, # of connection points: 2
#     Edge 99, Type (0, 1), BuildingBlock: UVAHIK_clean_linker_0, # of connection points: 2
#     Edge 100, Type (0, 1), BuildingBlock: UVAHIK_clean_linker_0, # of connection points: 2
#     Edge 101, Type (0, 1), BuildingBlock: UVAHIK_clean_linker_0, # of connection points: 2
#     Edge 102, Type (0, 1), BuildingBlock: UVAHIK_clean_linker_0, # of connection points: 2
#     Edge 103, Type (0, 1), BuildingBlock: UVAHIK_clean_linker_0, # of connection points: 2
#     Edge 104, Type (0, 1), BuildingBlock: UVAHIK_clean_linker_0, # of connection points: 2
#     Edge 105, Type (0, 1), BuildingBlock: UVAHIK_clean_linker_0, # of connection points: 2
#     Edge 106, Type (0, 1), BuildingBlock: UVAHIK_clean_linker_0, # of connection points: 2
#     Edge 107, Type (0, 1), BuildingBlock: UVAHIK_clean_linker_0, # of connection points: 2
#     Edge 108, Type (0, 1), BuildingBlock: UVAHIK_clean_linker_0, # of connection points: 2
#     Edge 109, Type (0, 1), BuildingBlock: UVAHIK_clean_linker_0, # of connection points: 2
#     Edge 110, Type (0, 1), BuildingBlock: UVAHIK_clean_linker_0, # of connection points: 2
#     Edge 111, Type (0, 1), BuildingBlock: UVAHIK_clean_linker_0, # of connection points: 2
#     Edge 112, Type (0, 1), BuildingBlock: UVAHIK_clean_linker_0, # of connection points: 2
#     Edge 113, Type (0, 1), BuildingBlock: UVAHIK_clean_linker_0, # of connection points: 2
#     Edge 114, Type (0, 1), BuildingBlock: UVAHIK_clean_linker_0, # of connection points: 2
#     Edge 115, Type (0, 1), BuildingBlock: UVAHIK_clean_linker_0, # of connection points: 2
#     Edge 116, Type (0, 1), BuildingBlock: UVAHIK_clean_linker_0, # of connection points: 2
#     Edge 117, Type (0, 1), BuildingBlock: UVAHIK_clean_linker_0, # of connection points: 2
#     Edge 118, Type (0, 1), BuildingBlock: UVAHIK_clean_linker_0, # of connection points: 2
#     Edge 119, Type (0, 1), BuildingBlock: UVAHIK_clean_linker_0, # of connection points: 2
#     Edge 120, Type (0, 1), BuildingBlock: UVAHIK_clean_linker_0, # of connection points: 2
#     Edge 121, Type (0, 1), BuildingBlock: UVAHIK_clean_linker_0, # of connection points: 2
#     Edge 122, Type (0, 1), BuildingBlock: UVAHIK_clean_linker_0, # of connection points: 2
#     Edge 123, Type (0, 1), BuildingBlock: UVAHIK_clean_linker_0, # of connection points: 2
#     Edge 124, Type (0, 1), BuildingBlock: UVAHIK_clean_linker_0, # of connection points: 2
#     Edge 125, Type (0, 1), BuildingBlock: UVAHIK_clean_linker_0, # of connection points: 2
#     Edge 126, Type (0, 1), BuildingBlock: UVAHIK_clean_linker_0, # of connection points: 2
#     Edge 127, Type (0, 1), BuildingBlock: UVAHIK_clean_linker_0, # of connection points: 2
#     Edge 128, Type (0, 1), BuildingBlock: UVAHIK_clean_linker_0, # of connection points: 2
#     Edge 129, Type (0, 1), BuildingBlock: UVAHIK_clean_linker_0, # of connection points: 2
#     Edge 130, Type (0, 1), BuildingBlock: UVAHIK_clean_linker_0, # of connection points: 2
#     Edge 131, Type (0, 1), BuildingBlock: UVAHIK_clean_linker_0, # of connection points: 2
#     Edge 132, Type (0, 1), BuildingBlock: UVAHIK_clean_linker_0, # of connection points: 2
#     Edge 133, Type (0, 1), BuildingBlock: UVAHIK_clean_linker_0, # of connection points: 2
#     Edge 134, Type (0, 1), BuildingBlock: UVAHIK_clean_linker_0, # of connection points: 2
#     Edge 135, Type (0, 1), BuildingBlock: UVAHIK_clean_linker_0, # of connection points: 2
# Relax obj value: 0.113
# Max RMSD: 0.313
# Mean RMSD: 0.146
data_MOF--net-gar--node1-KUFVIS_clean_sbu_0--node2-KUMBOL_clean_sbu_0--edge1-UVAHIK_clean_linker_0
_symmetry_space_group_name_H-M    P1
_symmetry_Int_Tables_number       1
_symmetry_cell_setting            triclinic
loop_
_symmetry_equiv_pos_as_xyz
'x, y, z'
_cell_length_a     75.823472
_cell_length_b     71.326861
_cell_length_c     72.8953
_cell_angle_alpha  99.251828
_cell_angle_beta   93.236022
_cell_angle_gamma 102.15326
loop_
_atom_site_label
_atom_site_type_symbol
_atom_site_fract_x
_atom_site_fract_y
_atom_site_fract_z
_atom_type_partial_charge
Mn0 Mn 0.10017 0.32417 0.39142 0.0
Mn1 Mn 0.09899 0.3511 0.3574 0.0
C2 C 0.07328 0.32961 0.3803 0.0
C3 C 0.09965 0.29563 0.40259 0.0
C4 C 0.11333 0.36803 0.39726 0.0
O5 O 0.12425 0.32455 0.38103 0.0
O6 O 0.12093 0.34051 0.35696 0.0
C7 C 0.09462 0.32142 0.3231 0.0
N8 N 0.08836 0.33545 0.33407 0.0
C9 C 0.06446 0.33427 0.31043 0.0
C10 C 0.07061 0.31975 0.2989 0.0
C11 C 0.08572 0.31325 0.30528 0.0
C12 C 0.07381 0.34178 0.32807 0.0
H13 H 0.10646 0.31671 0.32786 0.0
C14 C 0.12989 0.33196 0.36709 0.0
O15 O 0.10726 0.3125 0.4124 0.0
O16 O 0.09295 0.29514 0.38564 0.0
N17 N 0.07834 0.36246 0.35683 0.0
C18 C 0.0742 0.37658 0.36971 0.0
C19 C 0.05927 0.38446 0.36566 0.0
C20 C 0.04897 0.378 0.3483 0.0
C21 C 0.05362 0.36358 0.33521 0.0
C22 C 0.06853 0.35611 0.34013 0.0
H23 H 0.08224 0.3818 0.38296 0.0
O24 O 0.07501 0.32511 0.39677 0.0
O25 O 0.08724 0.33066 0.37069 0.0
O26 O 0.10919 0.35233 0.40364 0.0
O27 O 0.11013 0.3691 0.38021 0.0
C28 C 0.04415 0.3564 0.31744 0.0
C29 C 0.04953 0.34174 0.30507 0.0
H30 H 0.06389 0.31354 0.28508 0.0
H31 H 0.09062 0.30214 0.2964 0.0
H32 H 0.05582 0.39563 0.37583 0.0
H33 H 0.03754 0.38423 0.34517 0.0
H34 H 0.03269 0.36205 0.31313 0.0
H35 H 0.04212 0.33633 0.29145 0.0
Mn36 Mn 0.00387 0.75774 0.65452 0.0
Mn37 Mn 0.01737 0.79554 0.68987 0.0
C38 C 0.03349 0.76615 0.66634 0.0
C39 C 0.99142 0.72508 0.64587 0.0
C40 C 0.00947 0.79943 0.6495 0.0
O41 O 0.98066 0.76269 0.66337 0.0
O42 O 0.9912 0.78396 0.69007 0.0
C43 C 0.01168 0.77747 0.72348 0.0
N44 N 0.02306 0.78757 0.71288 0.0
C45 C 0.0482 0.79245 0.7361 0.0
C46 C 0.03677 0.78189 0.74715 0.0
C47 C 0.01841 0.77441 0.74082 0.0
C48 C 0.04066 0.79521 0.71902 0.0
H49 H 0.99751 0.77203 0.7189 0.0
C50 C 0.97849 0.77232 0.67888 0.0
O51 O 0.99044 0.73699 0.63424 0.0
O52 O 0.99904 0.73237 0.66256 0.0
N53 N 0.04272 0.80707 0.69109 0.0
C54 C 0.05215 0.81605 0.67835 0.0
C55 C 0.07087 0.82368 0.68224 0.0
C56 C 0.07968 0.82214 0.69922 0.0
C57 C 0.0697 0.81286 0.71213 0.0
C58 C 0.0511 0.80542 0.70744 0.0
H59 H 0.0455 0.81718 0.66523 0.0
O60 O 0.02884 0.75539 0.64997 0.0
O61 O 0.02055 0.77114 0.67556 0.0
O62 O 0.00697 0.78154 0.64213 0.0
O63 O 0.01229 0.80568 0.66707 0.0
C64 C 0.07755 0.81038 0.7293 0.0
C65 C 0.0668 0.80025 0.74131 0.0
H66 H 0.04194 0.77946 0.76052 0.0
H67 H 0.00945 0.7664 0.74933 0.0
H68 H 0.0785 0.83069 0.67214 0.0
H69 H 0.09414 0.82797 0.70214 0.0
H70 H 0.09189 0.81607 0.73334 0.0
H71 H 0.07301 0.79836 0.75444 0.0
Mn72 Mn 0.59849 0.81925 0.88735 0.0
Mn73 Mn 0.59563 0.85172 0.85876 0.0
C74 C 0.57113 0.82588 0.87935 0.0
C75 C 0.59781 0.7887 0.89425 0.0
C76 C 0.61022 0.86329 0.89886 0.0
O77 O 0.62174 0.82087 0.87529 0.0
O78 O 0.61864 0.84336 0.85753 0.0
C79 C 0.59532 0.82758 0.82171 0.0
N80 N 0.58717 0.83891 0.83381 0.0
C81 C 0.56533 0.84084 0.80933 0.0
C82 C 0.57343 0.82912 0.79661 0.0
C83 C 0.58846 0.82241 0.80285 0.0
C84 C 0.57273 0.84545 0.82795 0.0
H85 H 0.60718 0.82285 0.82635 0.0
C86 C 0.62755 0.83217 0.86402 0.0
O87 O 0.60647 0.80429 0.90547 0.0
O88 O 0.59029 0.79069 0.87842 0.0
N89 N 0.57386 0.8611 0.85869 0.0
C90 C 0.56768 0.87222 0.8728 0.0
C91 C 0.5523 0.87952 0.86908 0.0
C92 C 0.54377 0.87574 0.85082 0.0
C93 C 0.55055 0.86444 0.8365 0.0
C94 C 0.56563 0.85715 0.84115 0.0
H95 H 0.57447 0.87547 0.88674 0.0
O96 O 0.57389 0.81966 0.89482 0.0
O97 O 0.58456 0.82847 0.869 0.0
O98 O 0.6086 0.8462 0.90233 0.0
O99 O 0.60467 0.86701 0.88337 0.0
C100 C 0.54299 0.86015 0.81779 0.0
C101 C 0.55038 0.84839 0.80422 0.0
H102 H 0.56831 0.82529 0.78201 0.0
H103 H 0.5949 0.81353 0.79309 0.0
H104 H 0.54717 0.88825 0.8802 0.0
H105 H 0.53203 0.88159 0.84796 0.0
H106 H 0.53147 0.86581 0.8137 0.0
H107 H 0.54447 0.84523 0.78988 0.0
Mn108 Mn 0.50311 0.2593 0.15663 0.0
Mn109 Mn 0.4685 0.24669 0.12275 0.0
C110 C 0.49019 0.22753 0.1455 0.0
C111 C 0.53361 0.26588 0.16584 0.0
C112 C 0.46426 0.26059 0.16305 0.0
O113 O 0.50474 0.28383 0.14605 0.0
O114 O 0.48128 0.27426 0.12358 0.0
C115 C 0.48993 0.24869 0.09009 0.0
N116 N 0.4777 0.23821 0.09968 0.0
C117 C 0.47548 0.20901 0.07708 0.0
C118 C 0.48794 0.21954 0.06692 0.0
C119 C 0.49518 0.23947 0.07345 0.0
C120 C 0.47051 0.21906 0.09342 0.0
H121 H 0.49571 0.26396 0.09515 0.0
C122 C 0.49481 0.28694 0.13267 0.0
O123 O 0.52245 0.2722 0.17692 0.0
O124 O 0.52718 0.25682 0.14919 0.0
N125 N 0.45572 0.22008 0.12057 0.0
C126 C 0.44504 0.21166 0.13278 0.0
C127 C 0.43737 0.19157 0.12872 0.0
C128 C 0.44079 0.18034 0.11219 0.0
C129 C 0.45181 0.18931 0.09983 0.0
C130 C 0.45891 0.20944 0.1045 0.0
H131 H 0.44259 0.22016 0.14565 0.0
O132 O 0.49877 0.23249 0.16207 0.0
O133 O 0.4892 0.24146 0.13634 0.0
O134 O 0.48086 0.26346 0.16896 0.0
O135 O 0.4579 0.25462 0.14603 0.0
C136 C 0.45643 0.17898 0.08332 0.0
C137 C 0.46822 0.18883 0.07194 0.0
H138 H 0.49222 0.21243 0.0542 0.0
H139 H 0.50491 0.24766 0.06575 0.0
H140 H 0.42899 0.18471 0.13839 0.0
H141 H 0.43505 0.1648 0.10923 0.0
H142 H 0.4512 0.1634 0.07939 0.0
H143 H 0.47188 0.18067 0.05942 0.0
Mn144 Mn 0.08947 0.81184 0.11928 0.0
Mn145 Mn 0.05685 0.79981 0.08262 0.0
C146 C 0.0789 0.77953 0.10415 0.0
C147 C 0.11994 0.81917 0.13353 0.0
C148 C 0.04881 0.81063 0.12285 0.0
O149 O 0.09032 0.83837 0.11031 0.0
O150 O 0.0697 0.82733 0.08507 0.0
C151 C 0.07981 0.80319 0.05121 0.0
N152 N 0.06662 0.79253 0.05961 0.0
C153 C 0.06116 0.76593 0.03357 0.0
C154 C 0.07436 0.77685 0.02443 0.0
C155 C 0.08382 0.7955 0.03335 0.0
C156 C 0.05766 0.77443 0.05128 0.0
H157 H 0.08727 0.81738 0.05814 0.0
C158 C 0.08147 0.84091 0.09558 0.0
O159 O 0.10659 0.82349 0.14242 0.0
O160 O 0.11598 0.81225 0.11582 0.0
N161 N 0.04345 0.77333 0.07867 0.0
C162 C 0.03189 0.7643 0.08983 0.0
C163 C 0.02213 0.74508 0.08345 0.0
C164 C 0.02418 0.73544 0.06558 0.0
C165 C 0.03601 0.7451 0.05427 0.0
C166 C 0.0454 0.76424 0.06139 0.0
H167 H 0.03016 0.77166 0.10353 0.0
O168 O 0.08614 0.78349 0.12127 0.0
O169 O 0.07768 0.79439 0.09645 0.0
O170 O 0.06497 0.81276 0.1302 0.0
O171 O 0.04463 0.80653 0.10526 0.0
C172 C 0.03902 0.73642 0.0363 0.0
C173 C 0.05157 0.74684 0.02594 0.0
H174 H 0.07752 0.77095 0.01067 0.0
H175 H 0.09419 0.80391 0.02649 0.0
H176 H 0.01303 0.73772 0.09227 0.0
H177 H 0.01667 0.72059 0.06073 0.0
H178 H 0.03191 0.72166 0.03039 0.0
H179 H 0.05392 0.73992 0.01222 0.0
Mn180 Mn 0.51666 0.76981 0.43246 0.0
Mn181 Mn 0.51791 0.79775 0.39912 0.0
C182 C 0.48932 0.77028 0.41493 0.0
C183 C 0.51996 0.74088 0.44333 0.0
C184 C 0.52342 0.81419 0.44067 0.0
O185 O 0.54359 0.77553 0.42657 0.0
O186 O 0.54101 0.78898 0.40077 0.0
C187 C 0.52033 0.77216 0.36364 0.0
N188 N 0.51174 0.78445 0.37405 0.0
C189 C 0.49422 0.78815 0.34683 0.0
C190 C 0.50279 0.77542 0.33579 0.0
C191 C 0.51579 0.76727 0.34425 0.0
C192 C 0.49913 0.79226 0.36606 0.0
H193 H 0.53077 0.76646 0.37006 0.0
C194 C 0.54999 0.78177 0.41217 0.0
O195 O 0.5226 0.75761 0.45426 0.0
O196 O 0.51517 0.74074 0.42587 0.0
N197 N 0.49626 0.80697 0.39617 0.0
C198 C 0.4873 0.81618 0.4092 0.0
C199 C 0.4729 0.82402 0.40334 0.0
C200 C 0.468 0.82239 0.38417 0.0
C201 C 0.47704 0.81217 0.37109 0.0
C202 C 0.49088 0.80418 0.37783 0.0
H203 H 0.49094 0.81723 0.4239 0.0
O204 O 0.48913 0.76493 0.43117 0.0
O205 O 0.50541 0.77503 0.40935 0.0
O206 O 0.5192 0.79815 0.44666 0.0
O207 O 0.5247 0.81478 0.42349 0.0
C208 C 0.47269 0.80924 0.35166 0.0
C209 C 0.48113 0.79708 0.33954 0.0
H210 H 0.4995 0.77182 0.32081 0.0
H211 H 0.52255 0.75756 0.3358 0.0
H212 H 0.46568 0.83138 0.41356 0.0
H213 H 0.45699 0.8286 0.37967 0.0
H214 H 0.46253 0.81586 0.34591 0.0
H215 H 0.47731 0.79452 0.32466 0.0
Mn216 Mn 0.58922 0.31247 0.62033 0.0
Mn217 Mn 0.55635 0.29929 0.58379 0.0
C218 C 0.57906 0.27996 0.60561 0.0
C219 C 0.61964 0.31995 0.63483 0.0
C220 C 0.54829 0.31003 0.62397 0.0
O221 O 0.5898 0.33882 0.61099 0.0
O222 O 0.56838 0.32703 0.58659 0.0
C223 C 0.57871 0.30434 0.55212 0.0
N224 N 0.56613 0.29293 0.56058 0.0
C225 C 0.56058 0.26714 0.53381 0.0
C226 C 0.57319 0.27879 0.52466 0.0
C227 C 0.58239 0.29742 0.53391 0.0
C228 C 0.55738 0.27489 0.55189 0.0
H229 H 0.58586 0.3186 0.55922 0.0
C230 C 0.58028 0.34094 0.59651 0.0
O231 O 0.60616 0.32405 0.64359 0.0
O232 O 0.61593 0.31329 0.61706 0.0
N233 N 0.54372 0.27253 0.57946 0.0
C234 C 0.53266 0.2628 0.5906 0.0
C235 C 0.52329 0.2435 0.58388 0.0
C236 C 0.52513 0.23453 0.56568 0.0
C237 C 0.53643 0.24491 0.55441 0.0
C238 C 0.54554 0.26405 0.56192 0.0
H239 H 0.53106 0.2697 0.60453 0.0
O240 O 0.58621 0.28436 0.62276 0.0
O241 O 0.57763 0.29453 0.59751 0.0
O242 O 0.56461 0.31323 0.63125 0.0
O243 O 0.54399 0.3051 0.60645 0.0
C244 C 0.53917 0.23696 0.53609 0.0
C245 C 0.55119 0.24809 0.52578 0.0
H246 H 0.57607 0.27351 0.51061 0.0
H247 H 0.59226 0.30643 0.527 0.0
H248 H 0.51458 0.23559 0.59266 0.0
H249 H 0.51785 0.21965 0.56054 0.0
H250 H 0.53221 0.22223 0.52986 0.0
H251 H 0.55329 0.24176 0.51176 0.0
Mn252 Mn 0.0164 0.2696 0.93277 0.0
Mn253 Mn 0.01941 0.29755 0.8997 0.0
C254 C 0.98953 0.27223 0.91596 0.0
C255 C 0.01873 0.24029 0.9433 0.0
C256 C 0.02735 0.3134 0.94113 0.0
O257 O 0.04338 0.27437 0.92655 0.0
O258 O 0.04041 0.28513 0.89925 0.0
C259 C 0.0152 0.26923 0.86452 0.0
N260 N 0.00959 0.28379 0.87545 0.0
C261 C 0.98722 0.28501 0.85121 0.0
C262 C 0.9928 0.27008 0.83963 0.0
C263 C 0.00678 0.26208 0.84636 0.0
C264 C 0.996 0.29141 0.86922 0.0
H265 H 0.02606 0.2632 0.86963 0.0
C266 C 0.0494 0.2786 0.91121 0.0
O267 O 0.02177 0.25695 0.95439 0.0
O268 O 0.01405 0.24042 0.92586 0.0
N269 N 0.99961 0.31031 0.89889 0.0
C270 C 0.99527 0.32405 0.91207 0.0
C271 C 0.98126 0.33314 0.90774 0.0
C272 C 0.972 0.32827 0.88982 0.0
C273 C 0.97676 0.3142 0.87643 0.0
C274 C 0.99078 0.30553 0.88159 0.0
H275 H 1.00244 0.32822 0.92577 0.0
O276 O 0.98888 0.26603 0.93179 0.0
O277 O 0.00565 0.27605 0.91041 0.0
O278 O 0.01984 0.29783 0.9466 0.0
O279 O 0.02996 0.31395 0.92407 0.0
C280 C 0.96809 0.30838 0.85819 0.0
C281 C 0.97323 0.29371 0.84562 0.0
H282 H 0.9864 0.26459 0.82558 0.0
H283 H 0.01113 0.25052 0.83752 0.0
H284 H 0.97771 0.34401 0.91817 0.0
H285 H 0.96122 0.33536 0.88651 0.0
H286 H 0.95735 0.31498 0.85372 0.0
H287 H 0.96627 0.28917 0.83172 0.0
Mn288 Mn 0.41701 0.04083 0.29633 0.0
Mn289 Mn 0.38619 0.03128 0.32709 0.0
C290 C 0.40344 0.0096 0.2974 0.0
C291 C 0.42455 0.04851 0.26804 0.0
C292 C 0.4264 0.0448 0.33719 0.0
O293 O 0.41062 0.0665 0.3049 0.0
O294 O 0.38629 0.05716 0.32067 0.0
C295 C 0.35109 0.02926 0.30592 0.0
N296 N 0.36218 0.02053 0.31528 0.0
C297 C 0.33849 0.99165 0.31311 0.0
C298 C 0.32693 1.00024 0.30318 0.0
C299 C 0.33327 0.01914 0.29957 0.0
C300 C 0.35613 1.00244 0.31904 0.0
H301 H 0.3557 0.04392 0.30358 0.0
C302 C 0.39708 0.06971 0.31342 0.0
O303 O 0.43645 0.05303 0.28246 0.0
O304 O 0.40804 0.04011 0.27018 0.0
N305 N 0.38509 1.0061 0.33353 0.0
C306 C 0.39824 0.99943 0.34231 0.0
C307 C 0.39427 0.98049 0.34637 0.0
C308 C 0.37678 0.96869 0.34155 0.0
C309 C 0.36348 0.97587 0.33252 0.0
C310 C 0.36829 0.99477 0.32862 0.0
H311 H 0.41168 0.00844 0.34614 0.0
O312 O 0.41867 0.01325 0.28992 0.0
O313 O 0.39659 0.02427 0.30368 0.0
O314 O 0.43107 0.04338 0.32075 0.0
O315 O 0.41004 0.04193 0.3412 0.0
C316 C 0.34567 0.96495 0.32711 0.0
C317 C 0.3332 0.9728 0.31734 0.0
H318 H 0.31316 0.99251 0.29832 0.0
H319 H 0.32438 0.02596 0.29209 0.0
H320 H 0.40465 0.97502 0.35325 0.0
H321 H 0.37376 0.9541 0.34475 0.0
H322 H 0.34148 0.95041 0.33022 0.0
H323 H 0.31962 0.96416 0.31304 0.0
Mn324 Mn 0.29269 0.19887 0.5117 0.0
Mn325 Mn 0.28762 0.1607 0.47644 0.0
C326 C 0.26372 0.17986 0.50057 0.0
C327 C 0.29746 0.21233 0.54376 0.0
C328 C 0.29831 0.20285 0.4714 0.0
O329 O 0.31802 0.19272 0.51123 0.0
O330 O 0.31178 0.16439 0.49033 0.0
C331 C 0.28694 0.12699 0.49541 0.0
N332 N 0.27856 0.13631 0.48386 0.0
C333 C 0.25323 0.10883 0.47588 0.0
C334 C 0.26158 0.09893 0.48771 0.0
C335 C 0.27849 0.10807 0.49754 0.0
C336 C 0.26229 0.12765 0.47433 0.0
H337 H 0.30007 0.13389 0.50274 0.0
C338 C 0.32248 0.1776 0.50237 0.0
O339 O 0.30131 0.22296 0.53105 0.0
O340 O 0.29127 0.19379 0.53791 0.0
N341 N 0.26468 0.15616 0.46215 0.0
C342 C 0.25845 0.16774 0.45133 0.0
C343 C 0.24161 0.16088 0.44074 0.0
C344 C 0.23141 0.14214 0.44127 0.0
C345 C 0.23811 0.13049 0.4525 0.0
C346 C 0.25494 0.13817 0.46283 0.0
H347 H 0.26622 0.1821 0.45073 0.0
O348 O 0.26573 0.1976 0.50947 0.0
O349 O 0.27867 0.17403 0.49837 0.0
O350 O 0.29594 0.2108 0.48776 0.0
O351 O 0.29661 0.18456 0.46668 0.0
C352 C 0.22877 0.11155 0.45382 0.0
C353 C 0.23634 0.10071 0.46546 0.0
H354 H 0.25517 0.08428 0.48929 0.0
H355 H 0.28505 0.10047 0.50661 0.0
H356 H 0.23655 0.16998 0.43213 0.0
H357 H 0.21846 0.13685 0.43302 0.0
H358 H 0.21576 0.10518 0.44592 0.0
H359 H 0.22906 0.08613 0.4663 0.0
Mn360 Mn 0.16628 0.01487 0.76393 0.0
Mn361 Mn 0.19927 0.02507 0.79995 0.0
C362 C 0.18256 0.0483 0.7753 0.0
C363 C 0.1531 0.01065 0.731 0.0
C364 C 0.15895 0.01372 0.80639 0.0
O365 O 0.17573 0.98772 0.76281 0.0
O366 O 0.19742 0.99722 0.78714 0.0
C367 C 0.23226 0.02299 0.78053 0.0
N368 N 0.22287 0.03329 0.79219 0.0
C369 C 0.24825 0.06082 0.79901 0.0
C370 C 0.25822 0.05047 0.78716 0.0
C371 C 0.25017 0.0315 0.77785 0.0
C372 C 0.23052 0.05153 0.80128 0.0
H373 H 0.22616 0.00837 0.77342 0.0
C374 C 0.18885 0.9842 0.77339 0.0
O375 O 0.14403 1.00453 0.74422 0.0
O376 O 0.17027 0.01714 0.73626 0.0
N377 N 0.20268 0.05117 0.81321 0.0
C378 C 0.19075 0.0597 0.82296 0.0
C379 C 0.19635 0.07905 0.83231 0.0
C380 C 0.21415 0.08942 0.83159 0.0
C381 C 0.22614 0.08038 0.82138 0.0
C382 C 0.21979 0.06105 0.81232 0.0
H383 H 0.17703 0.05187 0.82354 0.0
O384 O 0.16601 0.04391 0.76769 0.0
O385 O 0.18878 0.03287 0.7773 0.0
O386 O 0.15308 0.01209 0.7891 0.0
O387 O 0.17594 0.0174 0.81118 0.0
C388 C 0.24404 0.08989 0.81953 0.0
C389 C 0.25511 0.08011 0.80841 0.0
H390 H 0.27201 0.05701 0.78499 0.0
H391 H 0.25777 0.02344 0.76866 0.0
H392 H 0.18696 0.08596 0.84005 0.0
H393 H 0.21841 0.10438 0.83879 0.0
H394 H 0.24936 0.10482 0.82644 0.0
H395 H 0.26879 0.08765 0.80696 0.0
Mn396 Mn 0.32164 0.93184 0.01483 0.0
Mn397 Mn 0.33533 0.96561 0.98801 0.0
C398 C 0.35142 0.94214 0.01158 0.0
C399 C 0.31487 0.92328 0.04292 0.0
C400 C 0.31953 0.92303 0.97283 0.0
O401 O 0.29967 0.94272 0.01133 0.0
O402 O 0.3105 0.96645 0.995 0.0
C403 C 0.33748 1.00196 0.01511 0.0
N404 N 0.34553 0.99061 1.00296 0.0
C405 C 0.3726 0.01604 0.00603 0.0
C406 C 0.36449 0.02808 0.0184 0.0
C407 C 0.3469 0.02095 0.02307 0.0
C408 C 0.36257 0.99723 0.99861 0.0
H409 H 0.32396 0.99659 0.01858 0.0
C410 C 0.29805 0.95683 1.0032 0.0
O411 O 0.30853 0.91153 0.02732 0.0
O412 O 0.32395 0.94066 0.04209 0.0
N413 N 0.35928 0.96651 0.98052 0.0
C414 C 0.36559 0.95266 0.96929 0.0
C415 C 0.38326 0.95717 0.9639 0.0
C416 C 0.39419 0.97592 0.96991 0.0
C417 C 0.3875 0.98987 0.98163 0.0
C418 C 0.36984 0.98447 0.9867 0.0
H419 H 0.35724 0.93825 0.96459 0.0
O420 O 0.34577 0.92556 0.01684 0.0
O421 O 0.33959 0.9524 0.00879 0.0
O422 O 0.31711 0.91751 0.98835 0.0
O423 O 0.32577 0.94066 0.97113 0.0
C424 C 0.39767 0.0089 0.98854 0.0
C425 C 0.39024 0.02196 1.00076 0.0
H426 H 0.37166 0.04277 0.02445 0.0
H427 H 0.34056 0.03013 0.03265 0.0
H428 H 0.38841 0.94625 0.95504 0.0
H429 H 0.40774 0.9794 0.96555 0.0
H430 H 0.41127 0.01359 0.98468 0.0
H431 H 0.39824 0.0365 0.00611 0.0
Mn432 Mn 0.30922 0.38633 0.03558 0.0
Mn433 Mn 0.3143 0.42235 0.01039 0.0
C434 C 0.33842 0.4047 0.03345 0.0
C435 C 0.30307 0.37494 0.06352 0.0
C436 C 0.30419 0.37921 0.99328 0.0
O437 O 0.28371 0.39181 0.03235 0.0
O438 O 0.29062 0.41995 0.02104 0.0
C439 C 0.31515 0.45823 0.03746 0.0
N440 N 0.32327 0.44791 0.02443 0.0
C441 C 0.34704 0.47602 0.02382 0.0
C442 C 0.33895 0.48696 0.03723 0.0
C443 C 0.32297 0.478 0.04414 0.0
C444 C 0.33861 0.45641 0.01766 0.0
H445 H 0.30269 0.45148 0.04251 0.0
C446 C 0.27973 0.40721 0.02796 0.0
O447 O 0.30004 0.36336 0.04749 0.0
O448 O 0.30955 0.39329 0.0634 0.0
N449 N 0.33693 0.42596 0.99967 0.0
C450 C 0.34366 0.41299 0.98778 0.0
C451 C 0.36015 0.4193 0.98043 0.0
C452 C 0.36941 0.4389 0.98518 0.0
C453 C 0.36226 0.45194 0.99753 0.0
C454 C 0.34593 0.44473 0.00465 0.0
H455 H 0.33659 0.39795 0.98398 0.0
O456 O 0.33611 0.38755 0.03807 0.0
O457 O 0.32361 0.41063 0.03044 0.0
O458 O 0.30699 0.37251 0.0081 0.0
O459 O 0.3051 0.39726 0.99347 0.0
C460 C 0.37077 0.47176 1.00321 0.0
C461 C 0.36316 0.4838 0.01632 0.0
H462 H 0.34488 0.50224 0.04235 0.0
H463 H 0.3166 0.48637 0.05442 0.0
H464 H 0.36564 0.40909 0.97104 0.0
H465 H 0.38208 0.44374 0.9794 0.0
H466 H 0.38324 0.47787 0.99768 0.0
H467 H 0.3699 0.49898 0.02067 0.0
Mn468 Mn 0.78429 0.15517 0.02784 0.0
Mn469 Mn 0.76836 0.11737 0.99267 0.0
C470 C 0.75414 0.14374 0.02069 0.0
C471 C 0.79279 0.1682 0.05851 0.0
C472 C 0.78379 0.15845 0.98732 0.0
O473 O 0.80587 0.14363 0.02362 0.0
O474 O 0.79368 0.1171 1.00148 0.0
C475 C 0.76723 0.08336 0.01147 0.0
N476 N 0.75852 0.09395 1.00163 0.0
C477 C 0.73071 0.06949 0.99814 0.0
C478 C 0.73947 0.05825 0.00806 0.0
C479 C 0.75779 0.06526 0.01483 0.0
C480 C 0.74085 0.08737 0.99515 0.0
H481 H 0.78128 0.08867 0.01662 0.0
C482 C 0.80679 0.12802 0.01282 0.0
O483 O 0.79833 0.17777 0.04541 0.0
O484 O 0.78387 0.15023 0.05364 0.0
N485 N 0.74386 0.11625 0.98349 0.0
C486 C 0.73713 0.12936 0.9751 0.0
C487 C 0.71871 0.12507 0.96849 0.0
C488 C 0.70746 0.10725 0.97032 0.0
C489 C 0.71468 0.09401 0.97903 0.0
C490 C 0.73306 0.09924 0.98566 0.0
H491 H 0.7457 0.14305 0.97358 0.0
O492 O 0.76026 0.16151 0.02937 0.0
O493 O 0.76585 0.13327 0.01637 0.0
O494 O 0.78705 0.16611 0.00438 0.0
O495 O 0.77739 0.14035 0.98145 0.0
C496 C 0.70434 0.07587 0.9815 0.0
C497 C 0.71234 0.06363 0.99107 0.0
H498 H 0.73225 0.04424 0.01062 0.0
H499 H 0.76464 0.05668 0.02253 0.0
H500 H 0.71321 0.13544 0.96191 0.0
H501 H 0.69328 0.10394 0.96512 0.0
H502 H 0.69016 0.07127 0.97625 0.0
H503 H 0.7042 0.0498 0.99303 0.0
Mn504 Mn 0.18515 0.55175 0.24405 0.0
Mn505 Mn 0.22135 0.56101 0.27457 0.0
C506 C 0.2026 0.58256 0.25063 0.0
C507 C 0.17283 0.53874 0.21449 0.0
C508 C 0.18261 0.55128 0.2838 0.0
O509 O 0.18969 0.52552 0.2472 0.0
O510 O 0.21883 0.53467 0.25974 0.0
C511 C 0.25296 0.56137 0.25254 0.0
N512 N 0.24388 0.57079 0.26528 0.0
C513 C 0.26938 0.5981 0.27324 0.0
C514 C 0.27892 0.58881 0.26004 0.0
C515 C 0.27064 0.57041 0.24958 0.0
C516 C 0.25167 0.58857 0.27531 0.0
H517 H 0.2468 0.547 0.24487 0.0
C518 C 0.20507 0.522 0.25116 0.0
O519 O 0.16281 0.53891 0.22838 0.0
O520 O 0.19 0.5467 0.2177 0.0
N521 N 0.22456 0.58663 0.28905 0.0
C522 C 0.21314 0.59421 0.3004 0.0
C523 C 0.21907 0.61291 0.31118 0.0
C524 C 0.23681 0.62345 0.31057 0.0
C525 C 0.24831 0.61536 0.29881 0.0
C526 C 0.24142 0.59698 0.28784 0.0
H527 H 0.19965 0.58609 0.30136 0.0
O528 O 0.1862 0.57974 0.24279 0.0
O529 O 0.20798 0.56731 0.25382 0.0
O530 O 0.17535 0.55486 0.26908 0.0
O531 O 0.19934 0.5512 0.28631 0.0
C532 C 0.26638 0.62476 0.29762 0.0
C533 C 0.27684 0.61627 0.28467 0.0
H534 H 0.29266 0.5956 0.25792 0.0
H535 H 0.27799 0.56307 0.2395 0.0
H536 H 0.21007 0.61906 0.32018 0.0
H537 H 0.24145 0.63775 0.31915 0.0
H538 H 0.27223 0.63879 0.30626 0.0
H539 H 0.29059 0.62389 0.28357 0.0
Mn540 Mn 0.80959 0.88751 0.53659 0.0
Mn541 Mn 0.81825 0.92408 0.51203 0.0
C542 C 0.83964 0.90364 0.5345 0.0
C543 C 0.80287 0.8764 0.56453 0.0
C544 C 0.80503 0.88142 0.49409 0.0
O545 O 0.78508 0.89564 0.53389 0.0
O546 O 0.79458 0.92304 0.5221 0.0
C547 C 0.82141 0.95873 0.54144 0.0
N548 N 0.82862 0.94865 0.52743 0.0
C549 C 0.85487 0.97488 0.52969 0.0
C550 C 0.84762 0.98566 0.544 0.0
C551 C 0.83086 0.9775 0.54997 0.0
C552 C 0.84482 0.95626 0.52172 0.0
H553 H 0.80853 0.95249 0.54604 0.0
C554 C 0.78263 0.91157 0.52924 0.0
O555 O 0.79884 0.86487 0.54849 0.0
O556 O 0.81056 0.89443 0.56445 0.0
N557 N 0.84107 0.92654 0.5017 0.0
C558 C 0.84659 0.91377 0.48848 0.0
C559 C 0.86341 0.91936 0.48148 0.0
C560 C 0.87425 0.93807 0.48798 0.0
C561 C 0.86827 0.95096 0.50158 0.0
C562 C 0.85141 0.94455 0.50806 0.0
H563 H 0.83826 0.89945 0.48326 0.0
O564 O 0.83613 0.88635 0.53881 0.0
O565 O 0.8256 0.91078 0.53159 0.0
O566 O 0.80646 0.87414 0.50886 0.0
O567 O 0.8079 0.89973 0.49437 0.0
C568 C 0.87843 0.96983 0.50909 0.0
C569 C 0.87177 0.98176 0.52317 0.0
H570 H 0.85487 1.00015 0.55061 0.0
H571 H 0.82522 0.98569 0.56107 0.0
H572 H 0.86796 0.90931 0.47103 0.0
H573 H 0.88719 0.94235 0.48249 0.0
H574 H 0.8915 0.97522 0.50431 0.0
H575 H 0.87983 0.99614 0.52902 0.0
Mn576 Mn 0.9391 0.06789 0.26856 0.0
Mn577 Mn 0.90798 0.0651 0.30077 0.0
C578 C 0.92187 0.03628 0.27302 0.0
C579 C 0.95132 0.06953 0.2374 0.0
C580 C 0.94869 0.07391 0.31255 0.0
O581 O 0.93107 0.09574 0.27162 0.0
O582 O 0.91008 0.09107 0.29221 0.0
C583 C 0.8739 0.06515 0.27885 0.0
N584 N 0.88352 0.05644 0.28993 0.0
C585 C 0.85695 0.03198 0.29239 0.0
C586 C 0.84676 0.04073 0.28107 0.0
C587 C 0.85528 0.05734 0.27422 0.0
C588 C 0.87542 0.0405 0.29667 0.0
H589 H 0.88035 0.07804 0.27373 0.0
C590 C 0.91839 0.10147 0.28108 0.0
O591 O 0.96089 0.07591 0.25327 0.0
O592 O 0.93425 0.06321 0.23937 0.0
N593 N 0.90413 0.04108 0.31006 0.0
C594 C 0.91622 0.0333 0.31925 0.0
C595 C 0.91011 0.01593 0.32596 0.0
C596 C 0.89163 0.00681 0.32332 0.0
C597 C 0.87946 0.01502 0.31376 0.0
C598 C 0.88636 0.03231 0.30727 0.0
H599 H 0.93044 0.04012 0.32133 0.0
O600 O 0.93765 0.03854 0.2665 0.0
O601 O 0.91666 0.0527 0.27725 0.0
O602 O 0.95357 0.07237 0.29579 0.0
O603 O 0.93222 0.07369 0.31537 0.0
C604 C 0.86083 1.00647 0.30999 0.0
C605 C 0.84958 0.01497 0.29936 0.0
H606 H 0.8324 0.03473 0.27743 0.0
H607 H 0.84749 0.06417 0.26548 0.0
H608 H 0.91963 0.0096 0.33316 0.0
H609 H 0.88697 0.99336 0.32846 0.0
H610 H 0.85508 0.99318 0.31495 0.0
H611 H 0.83531 0.0081 0.29635 0.0
Mn612 Mn 0.28438 0.6558 0.52734 0.0
Mn613 Mn 0.26738 0.61754 0.49279 0.0
C614 C 0.25406 0.64419 0.52095 0.0
C615 C 0.29327 0.67023 0.55754 0.0
C616 C 0.28216 0.65824 0.48647 0.0
O617 O 0.30584 0.64394 0.52329 0.0
O618 O 0.29311 0.61822 0.50057 0.0
C619 C 0.26833 0.58446 0.5125 0.0
N620 N 0.25888 0.59414 0.50233 0.0
C621 C 0.2321 0.56831 0.49906 0.0
C622 C 0.24167 0.5579 0.50917 0.0
C623 C 0.25981 0.56608 0.51605 0.0
C624 C 0.24132 0.5865 0.49589 0.0
H625 H 0.28224 0.59071 0.51782 0.0
C626 C 0.30645 0.62854 0.512 0.0
O627 O 0.29871 0.67888 0.54385 0.0
O628 O 0.28444 0.65215 0.55366 0.0
N629 N 0.24245 0.61531 0.48456 0.0
C630 C 0.2346 0.62817 0.47699 0.0
C631 C 0.21616 0.62283 0.47044 0.0
C632 C 0.20595 0.60433 0.47179 0.0
C633 C 0.21418 0.59155 0.48015 0.0
C634 C 0.23259 0.59776 0.48652 0.0
H635 H 0.24224 0.64258 0.47649 0.0
O636 O 0.26024 0.66216 0.52902 0.0
O637 O 0.26571 0.6337 0.51661 0.0
O638 O 0.28689 0.66594 0.50335 0.0
O639 O 0.27485 0.64032 0.48091 0.0
C640 C 0.20477 0.57305 0.4827 0.0
C641 C 0.21373 0.56142 0.49213 0.0
H642 H 0.23517 0.5437 0.5119 0.0
H643 H 0.26724 0.5582 0.524 0.0
H644 H 0.20981 0.633 0.46447 0.0
H645 H 0.19172 0.60025 0.46672 0.0
H646 H 0.19058 0.56773 0.47771 0.0
H647 H 0.2063 0.54731 0.49421 0.0
Mn648 Mn 0.43875 0.56815 0.7682 0.0
Mn649 Mn 0.40671 0.56445 0.79939 0.0
C650 C 0.42172 0.53638 0.77226 0.0
C651 C 0.45134 0.57006 0.73728 0.0
C652 C 0.44726 0.57365 0.81233 0.0
O653 O 0.4304 0.59585 0.77121 0.0
O654 O 0.40889 0.5906 0.79118 0.0
C655 C 0.37355 0.56395 0.77564 0.0
N656 N 0.38278 0.5553 0.78713 0.0
C657 C 0.35688 0.52887 0.78609 0.0
C658 C 0.34709 0.53754 0.7743 0.0
C659 C 0.35547 0.55514 0.76903 0.0
C660 C 0.37482 0.53838 0.79233 0.0
H661 H 0.3799 0.57751 0.77158 0.0
C662 C 0.41744 0.60129 0.78041 0.0
O663 O 0.46074 0.57648 0.75326 0.0
O664 O 0.43425 0.5636 0.73902 0.0
N665 N 0.40272 0.54019 0.80832 0.0
C666 C 0.41429 0.53312 0.81898 0.0
C667 C 0.40817 0.51531 0.82491 0.0
C668 C 0.39019 0.50496 0.81994 0.0
C669 C 0.37851 0.51254 0.80907 0.0
C670 C 0.38536 0.53041 0.80359 0.0
H671 H 0.42813 0.54086 0.8229 0.0
O672 O 0.43762 0.53881 0.76604 0.0
O673 O 0.41633 0.55267 0.77634 0.0
O674 O 0.45256 0.57256 0.79573 0.0
O675 O 0.43063 0.57321 0.81478 0.0
C676 C 0.36043 0.50286 0.80315 0.0
C677 C 0.34961 0.51103 0.79169 0.0
H678 H 0.33316 0.53076 0.76913 0.0
H679 H 0.348 0.56191 0.75992 0.0
H680 H 0.41731 0.50955 0.83325 0.0
H681 H 0.38556 0.49113 0.82442 0.0
H682 H 0.35477 0.489 0.80714 0.0
H683 H 0.33578 0.50334 0.78708 0.0
Mn684 Mn 0.68544 0.05029 0.74395 0.0
Mn685 Mn 0.7211 0.06163 0.77573 0.0
C686 C 0.70145 0.08183 0.75133 0.0
C687 C 0.67365 0.03784 0.71393 0.0
C688 C 0.68212 0.04943 0.78402 0.0
O689 O 0.6917 0.02466 0.74647 0.0
O690 O 0.71993 0.03542 0.7613 0.0
C691 C 0.75322 0.06327 0.75424 0.0
N692 N 0.74359 0.07223 0.76671 0.0
C693 C 0.76827 0.10037 0.77484 0.0
C694 C 0.77842 0.09147 0.76203 0.0
C695 C 0.77081 0.07288 0.7516 0.0
C696 C 0.75071 0.09022 0.77665 0.0
H697 H 0.74757 0.04884 0.74651 0.0
C698 C 0.7073 0.02222 0.75145 0.0
O699 O 0.66359 0.03665 0.72772 0.0
O700 O 0.69063 0.04659 0.71755 0.0
N701 N 0.72322 0.08727 0.78978 0.0
C702 C 0.71121 0.09442 0.80059 0.0
C703 C 0.71635 0.11334 0.81111 0.0
C704 C 0.73391 0.12451 0.81078 0.0
C705 C 0.74601 0.11684 0.79954 0.0
C706 C 0.73989 0.09822 0.78879 0.0
H707 H 0.69785 0.0858 0.80127 0.0
O708 O 0.685 0.07815 0.74338 0.0
O709 O 0.70761 0.06702 0.75449 0.0
O710 O 0.67496 0.05172 0.76866 0.0
O711 O 0.6991 0.05104 0.7874 0.0
C712 C 0.76394 0.1269 0.79862 0.0
C713 C 0.775 0.11878 0.78613 0.0
H714 H 0.79208 0.09872 0.76014 0.0
H715 H 0.77859 0.06584 0.74176 0.0
H716 H 0.70689 0.11917 0.81968 0.0
H717 H 0.73794 0.13897 0.81916 0.0
H718 H 0.7692 0.14115 0.8071 0.0
H719 H 0.78863 0.12688 0.78523 0.0
Mn720 Mn 0.79279 0.69798 0.01198 0.0
Mn721 Mn 0.78714 0.66043 0.97594 0.0
C722 C 0.76364 0.67917 1.00154 0.0
C723 C 0.79819 0.71107 0.04406 0.0
C724 C 0.79783 0.70297 0.97197 0.0
O725 O 0.81807 0.69192 0.01063 0.0
O726 O 0.81139 0.66377 0.98948 0.0
C727 C 0.78746 0.62546 0.99269 0.0
N728 N 0.77866 0.63531 0.98208 0.0
C729 C 0.75411 0.60727 0.97245 0.0
C730 C 0.76288 0.59683 0.98334 0.0
C731 C 0.77962 0.60598 0.99351 0.0
C732 C 0.76267 0.62656 0.97201 0.0
H733 H 0.80047 0.63236 1.00028 0.0
C734 C 0.82228 0.6768 1.0015 0.0
O735 O 0.80181 0.72184 0.03143 0.0
O736 O 0.79195 0.69255 0.0381 0.0
N737 N 0.76398 0.65621 0.9622 0.0
C738 C 0.75691 0.66868 0.9532 0.0
C739 C 0.73978 0.66216 0.94313 0.0
C740 C 0.73018 0.64287 0.9423 0.0
C741 C 0.73773 0.63035 0.95174 0.0
C742 C 0.75478 0.63773 0.96168 0.0
H743 H 0.76423 0.6835 0.95372 0.0
O744 O 0.76601 0.69692 0.01054 0.0
O745 O 0.77843 0.6731 0.99859 0.0
O746 O 0.79554 0.71057 0.98844 0.0
O747 O 0.79581 0.68473 0.96684 0.0
C748 C 0.72893 0.61091 0.95185 0.0
C749 C 0.73716 0.59934 0.9621 0.0
H750 H 0.75688 0.58181 0.98402 0.0
H751 H 0.78652 0.59798 1.00186 0.0
H752 H 0.73402 0.67196 0.93597 0.0
H753 H 0.71699 0.63787 0.93447 0.0
H754 H 0.71578 0.60474 0.94418 0.0
H755 H 0.73023 0.58442 0.96212 0.0
Mn756 Mn 0.91768 0.5409 0.79672 0.0
Mn757 Mn 0.88605 0.53138 0.82661 0.0
C758 C 0.903 0.50971 0.79649 0.0
C759 C 0.9263 0.55002 0.76913 0.0
C760 C 0.92621 0.54345 0.83732 0.0
O761 O 0.9122 0.56686 0.80647 0.0
O762 O 0.88643 0.55727 0.82006 0.0
C763 C 0.85093 0.52957 0.80554 0.0
N764 N 0.86202 0.52072 0.81475 0.0
C765 C 0.83804 0.49215 0.813 0.0
C766 C 0.82652 0.50086 0.80316 0.0
C767 C 0.83301 0.51966 0.79942 0.0
C768 C 0.85581 0.50272 0.81867 0.0
H769 H 0.85562 0.54419 0.80318 0.0
C770 C 0.89802 0.56999 0.8138 0.0
O771 O 0.93785 0.55314 0.78372 0.0
O772 O 0.90949 0.54217 0.77077 0.0
N773 N 0.88476 0.50615 0.83307 0.0
C774 C 0.89779 0.49937 0.84194 0.0
C775 C 0.89362 0.48052 0.8462 0.0
C776 C 0.87605 0.46891 0.84152 0.0
C777 C 0.86286 0.47618 0.83242 0.0
C778 C 0.86788 0.49497 0.82827 0.0
H779 H 0.91128 0.50822 0.84576 0.0
O780 O 0.91825 0.51313 0.78901 0.0
O781 O 0.89659 0.52455 0.80321 0.0
O782 O 0.93114 0.54142 0.821 0.0
O783 O 0.90982 0.54193 0.84102 0.0
C784 C 0.84495 0.46548 0.82722 0.0
C785 C 0.83256 0.47342 0.81746 0.0
H786 H 0.81265 0.49329 0.79853 0.0
H787 H 0.82413 0.5266 0.79205 0.0
H788 H 0.9039 0.47499 0.85317 0.0
H789 H 0.87285 0.45441 0.84491 0.0
H790 H 0.8406 0.45105 0.83054 0.0
H791 H 0.81888 0.46496 0.81337 0.0
Mn792 Mn 0.82136 0.43268 0.51546 0.0
Mn793 Mn 0.83684 0.4667 0.4896 0.0
C794 C 0.85148 0.4437 0.51504 0.0
C795 C 0.81363 0.42344 0.54297 0.0
C796 C 0.82167 0.42416 0.4737 0.0
O797 O 0.7996 0.44339 0.51072 0.0
O798 O 0.81152 0.46737 0.49508 0.0
C799 C 0.83768 0.50327 0.51588 0.0
N800 N 0.84626 0.49194 0.50434 0.0
C801 C 0.87227 0.51842 0.50604 0.0
C802 C 0.86365 0.53041 0.51789 0.0
C803 C 0.84636 0.52274 0.52299 0.0
C804 C 0.86312 0.49903 0.49979 0.0
H805 H 0.82429 0.49751 0.51946 0.0
C806 C 0.79853 0.45759 0.50252 0.0
O807 O 0.80776 0.41193 0.52712 0.0
O808 O 0.82227 0.44111 0.54264 0.0
N809 N 0.86126 0.46776 0.48358 0.0
C810 C 0.86837 0.45377 0.47357 0.0
C811 C 0.88595 0.45876 0.46804 0.0
C812 C 0.89585 0.47817 0.47246 0.0
C813 C 0.88829 0.49226 0.48293 0.0
C814 C 0.87101 0.48624 0.48866 0.0
H815 H 0.86064 0.43894 0.4698 0.0
O816 O 0.84519 0.42658 0.51892 0.0
O817 O 0.8399 0.45385 0.511 0.0
O818 O 0.81824 0.41846 0.48894 0.0
O819 O 0.82824 0.44181 0.47247 0.0
C820 C 0.89732 0.51201 0.48814 0.0
C821 C 0.88944 0.525 0.49995 0.0
H822 H 0.87018 0.54552 0.52313 0.0
H823 H 0.83962 0.5319 0.53212 0.0
H824 H 0.89174 0.44775 0.4601 0.0
H825 H 0.9093 0.48204 0.46795 0.0
H826 H 0.91062 0.51716 0.48374 0.0
H827 H 0.89674 0.54001 0.50431 0.0
Mn828 Mn 0.66678 0.5143 0.26413 0.0
Mn829 Mn 0.69994 0.52469 0.30003 0.0
C830 C 0.68312 0.54766 0.27537 0.0
C831 C 0.65348 0.50995 0.23121 0.0
C832 C 0.65969 0.51329 0.30669 0.0
O833 O 0.67632 0.48724 0.26305 0.0
O834 O 0.6981 0.49683 0.28733 0.0
C835 C 0.73273 0.5227 0.28025 0.0
N836 N 0.72341 0.53298 0.29199 0.0
C837 C 0.74845 0.5609 0.29791 0.0
C838 C 0.75834 0.55057 0.28595 0.0
C839 C 0.75043 0.5314 0.27707 0.0
C840 C 0.73093 0.55141 0.30069 0.0
H841 H 0.72673 0.50795 0.27342 0.0
C842 C 0.68949 0.48378 0.27363 0.0
O843 O 0.64448 0.50381 0.24447 0.0
O844 O 0.67065 0.51657 0.23643 0.0
N845 N 0.7033 0.55086 0.31314 0.0
C846 C 0.69142 0.55934 0.32304 0.0
C847 C 0.69689 0.57883 0.33203 0.0
C848 C 0.71449 0.58941 0.3308 0.0
C849 C 0.72644 0.5804 0.32047 0.0
C850 C 0.72025 0.56091 0.31182 0.0
H851 H 0.67783 0.55137 0.32399 0.0
O852 O 0.66654 0.54338 0.26783 0.0
O853 O 0.68926 0.53222 0.27738 0.0
O854 O 0.65374 0.51161 0.28941 0.0
O855 O 0.67669 0.51698 0.31143 0.0
C856 C 0.74413 0.59013 0.3181 0.0
C857 C 0.75514 0.58037 0.30687 0.0
H858 H 0.77196 0.55726 0.28338 0.0
H859 H 0.75798 0.52335 0.26779 0.0
H860 H 0.68753 0.5857 0.33986 0.0
H861 H 0.71863 0.60449 0.33767 0.0
H862 H 0.74931 0.6052 0.32465 0.0
H863 H 0.76865 0.58808 0.30499 0.0
Gd864 Gd 0.0731 0.04935 0.02788 0.0
Gd865 Gd 0.02805 0.02895 0.00895 0.0
C866 C 0.00753 0.96507 0.01507 0.0
C867 C 1.00134 0.94872 0.98284 0.0
C868 C 0.01455 0.98366 0.99028 0.0
C869 C 0.01408 0.98304 0.00917 0.0
C870 C 0.00772 0.96649 0.97694 0.0
C871 C 1.00133 0.948 1.00185 0.0
C872 C 0.00708 0.96471 0.03412 0.0
C873 C 0.0129 0.98194 0.04686 0.0
N874 N 0.01957 0.9999 0.02176 0.0
C875 C 0.01899 0.99938 0.04048 0.0
H876 H 0.02386 0.012 0.05097 0.0
C877 C 0.01823 1.0024 0.96629 0.0
N878 N 0.02054 1.0011 0.98484 0.0
C879 C 0.0118 0.98582 0.95268 0.0
C880 C 0.00673 0.96773 0.958 0.0
H881 H 0.02109 0.01635 0.96178 0.0
H882 H 0.99619 0.93418 0.00618 0.0
H883 H 0.08026 0.06691 0.98653 0.0
H884 H 1.00224 0.95122 0.03914 0.0
H885 H 0.0128 0.98182 0.06169 0.0
H886 H 0.99605 0.93549 0.97278 0.0
H887 H 0.08014 0.06041 0.07485 0.0
H888 H 0.10232 0.12757 0.99978 0.0
H889 H 0.09231 0.09731 0.97666 0.0
H890 H 0.10683 0.14187 0.0662 0.0
H891 H 0.01037 0.98709 0.9381 0.0
H892 H 1.00144 0.95492 0.94743 0.0
H893 H 0.10747 0.14398 0.03298 0.0
H894 H 0.09121 0.08909 0.09933 0.0
N895 N 0.08316 0.07857 0.01584 0.0
C896 C 0.09697 0.11399 0.00443 0.0
C897 C 0.09145 0.09695 0.99138 0.0
C898 C 0.09578 0.11327 0.02335 0.0
C899 C 0.08866 0.09518 0.02876 0.0
C900 C 0.08467 0.07938 0.99729 0.0
N901 N 0.08162 0.07651 0.05246 0.0
C902 C 0.0879 0.09411 0.04752 0.0
C903 C 0.09007 0.09081 0.08486 0.0
C904 C 0.0955 0.10911 0.08006 0.0
C905 C 0.08355 0.07459 0.07085 0.0
C906 C 0.0948 0.11092 0.06125 0.0
H907 H 0.10082 0.12164 0.09094 0.0
O908 O 0.08858 0.03794 0.04754 0.0
O909 O 0.05024 0.02356 0.02681 0.0
O910 O 0.02405 0.04032 0.03925 0.0
O911 O 0.0538 0.05225 0.05227 0.0
O912 O 0.0739 0.01825 0.017 0.0
O913 O 0.10201 0.05223 0.02598 0.0
O914 O 0.01107 0.0374 0.98823 0.0
O915 O 0.05087 0.05488 0.00997 0.0
O916 O 0.07673 0.03808 0.99736 0.0
O917 O 0.04692 0.02758 0.98431 0.0
O918 O 0.02662 0.06017 0.01843 0.0
O919 O 0.99904 0.02375 0.01116 0.0
C920 C 0.05823 0.01012 0.02107 0.0
C921 C 0.10153 0.12888 0.05584 0.0
C922 C 0.10195 0.13006 0.03694 0.0
C923 C 0.10351 0.04278 0.03969 0.0
C924 C 0.12086 0.04629 0.0508 0.0
C925 C 0.12379 0.05577 0.06946 0.0
C926 C 0.13428 0.03802 0.04265 0.0
C927 C 0.15047 0.03855 0.05311 0.0
C928 C 0.14016 0.05694 0.07983 0.0
C929 C 0.15342 0.04827 0.07178 0.0
C930 C 0.03588 0.04847 0.05401 0.0
C931 C 0.04271 0.0683 0.01536 0.0
C932 C 0.99653 0.03069 0.99597 0.0
C933 C 0.97869 0.03148 0.98838 0.0
C934 C 0.97146 0.02085 0.97073 0.0
C935 C 0.96852 0.04236 0.99919 0.0
C936 C 0.95097 0.04252 0.99248 0.0
C937 C 0.95384 0.02087 0.96406 0.0
C938 C 0.94354 0.03161 0.97494 0.0
C939 C 0.06476 0.03071 0.98257 0.0
H940 H 0.11346 0.06188 0.07615 0.0
H941 H 0.13187 0.03068 0.02819 0.0
H942 H 0.14239 0.06416 0.09427 0.0
H943 H 0.16571 0.0487 0.08031 0.0
H944 H 0.97931 0.01233 0.96231 0.0
H945 H 0.97423 0.05067 0.01282 0.0
H946 H 0.94816 0.01258 0.95049 0.0
H947 H 0.92996 0.03172 0.96955 0.0
Gd948 Gd 0.29626 0.80196 0.2914 0.0
Gd949 Gd 0.31654 0.78155 0.25023 0.0
C950 C 0.29799 0.72021 0.21583 0.0
C951 C 0.32543 0.70788 0.21741 0.0
C952 C 0.32464 0.73966 0.23506 0.0
C953 C 0.30684 0.73732 0.22827 0.0
C954 C 0.33421 0.72501 0.22961 0.0
C955 C 0.30739 0.70554 0.21043 0.0
C956 C 0.27996 0.71836 0.20912 0.0
C957 C 0.2711 0.73314 0.21514 0.0
N958 N 0.29825 0.75187 0.23367 0.0
C959 C 0.28044 0.74982 0.22745 0.0
H960 H 0.27298 0.76061 0.23224 0.0
C961 C 0.35112 0.7605 0.25123 0.0
N962 N 0.33285 0.75663 0.24634 0.0
C963 C 0.36108 0.74628 0.24671 0.0
C964 C 0.35254 0.72833 0.23598 0.0
H965 H 0.35819 0.77486 0.25814 0.0
H966 H 0.30083 0.69235 0.20083 0.0
H967 H 0.34355 0.82017 0.30322 0.0
H968 H 0.2727 0.70548 0.19952 0.0
H969 H 0.25702 0.73169 0.21036 0.0
H970 H 0.33258 0.69652 0.213 0.0
H971 H 0.25734 0.81579 0.28546 0.0
H972 H 0.35073 0.87536 0.33793 0.0
H973 H 0.36309 0.84794 0.3231 0.0
H974 H 0.29225 0.88999 0.33406 0.0
H975 H 0.37546 0.74942 0.25097 0.0
H976 H 0.36035 0.71747 0.23209 0.0
H977 H 0.32434 0.8908 0.34196 0.0
H978 H 0.24389 0.84336 0.29636 0.0
N979 N 0.31883 0.82991 0.30723 0.0
C980 C 0.34174 0.86285 0.32924 0.0
C981 C 0.34873 0.84737 0.32102 0.0
C982 C 0.32339 0.86236 0.32556 0.0
C983 C 0.31224 0.84574 0.31403 0.0
C984 C 0.33718 0.83115 0.30993 0.0
N985 N 0.2841 0.82992 0.29742 0.0
C986 C 0.29437 0.8457 0.30902 0.0
C987 C 0.25818 0.84442 0.29977 0.0
C988 C 0.26866 0.86089 0.31133 0.0
C989 C 0.26607 0.82895 0.29317 0.0
C990 C 0.28693 0.86167 0.31619 0.0
H991 H 0.26245 0.87276 0.3167 0.0
O992 O 0.26839 0.78767 0.2937 0.0
O993 O 0.29559 0.77667 0.2694 0.0
O994 O 0.29176 0.79139 0.23905 0.0
O995 O 0.27953 0.80535 0.26524 0.0
O996 O 0.2956 0.77159 0.29693 0.0
O997 O 0.2855 0.80504 0.31815 0.0
O998 O 0.34024 0.79375 0.23791 0.0
O999 O 0.31081 0.80766 0.26715 0.0
O1000 O 0.3209 0.79256 0.30346 0.0
O1001 O 0.33235 0.77747 0.27681 0.0
O1002 O 0.33765 0.80786 0.263 0.0
O1003 O 0.31388 0.78636 0.22119 0.0
C1004 C 0.29466 0.76395 0.27954 0.0
C1005 C 0.29779 0.87774 0.32827 0.0
C1006 C 0.31601 0.87814 0.33286 0.0
C1007 C 0.26987 0.79346 0.31174 0.0
C1008 C 0.26296 0.77873 0.32277 0.0
C1009 C 0.24423 0.77278 0.32369 0.0
C1010 C 0.27501 0.77127 0.33318 0.0
C1011 C 0.26839 0.75822 0.34468 0.0
C1012 C 0.23762 0.75945 0.33512 0.0
C1013 C 0.24969 0.75222 0.3457 0.0
C1014 C 0.27927 0.79986 0.24684 0.0
C1015 C 0.3264 0.8182 0.26884 0.0
C1016 C 0.33129 0.7934 0.22216 0.0
C1017 C 0.34125 0.79773 0.2064 0.0
C1018 C 0.35745 0.79158 0.20341 0.0
C1019 C 0.33545 0.80987 0.19537 0.0
C1020 C 0.3459 0.8161 0.1815 0.0
C1021 C 0.36774 0.79762 0.18925 0.0
C1022 C 0.362 0.80994 0.1783 0.0
C1023 C 0.33284 0.78336 0.29525 0.0
H1024 H 0.23481 0.77866 0.31582 0.0
H1025 H 0.28954 0.7761 0.33292 0.0
H1026 H 0.22319 0.75504 0.33606 0.0
H1027 H 0.24453 0.74236 0.355 0.0
H1028 H 0.36221 0.78237 0.21213 0.0
H1029 H 0.32313 0.81497 0.19793 0.0
H1030 H 0.38026 0.79299 0.18695 0.0
H1031 H 0.37013 0.81481 0.1675 0.0
Gd1032 Gd 0.53263 0.04543 0.5276 0.0
Gd1033 Gd 0.58031 0.05084 0.51694 0.0
C1034 C 0.61473 0.11256 0.51977 0.0
C1035 C 0.61988 0.11307 0.48732 0.0
C1036 C 0.6017 0.08403 0.49626 0.0
C1037 C 0.6044 0.09318 0.51484 0.0
C1038 C 0.60971 0.09386 0.48239 0.0
C1039 C 0.62236 0.1224 0.50594 0.0
C1040 C 0.61704 0.12167 0.53845 0.0
C1041 C 0.60887 0.11172 0.55172 0.0
N1042 N 0.59687 0.08337 0.52806 0.0
C1043 C 0.59868 0.09269 0.54626 0.0
H1044 H 0.59127 0.08646 0.55665 0.0
C1045 C 0.59083 0.05533 0.47387 0.0
N1046 N 0.59174 0.06542 0.49174 0.0
C1047 C 0.59831 0.06457 0.4597 0.0
C1048 C 0.60763 0.08398 0.46394 0.0
H1049 H 0.58401 0.04011 0.47054 0.0
H1050 H 0.63028 0.13724 0.50954 0.0
H1051 H 0.50485 0.02211 0.48798 0.0
H1052 H 0.62478 0.13652 0.54272 0.0
H1053 H 0.60997 0.11887 0.56614 0.0
H1054 H 0.62604 0.12081 0.47684 0.0
H1055 H 0.52749 0.05152 0.5742 0.0
H1056 H 0.48209 0.96426 0.4956 0.0
H1057 H 0.48705 0.98927 0.47547 0.0
H1058 H 0.49289 0.96775 0.56126 0.0
H1059 H 0.59706 0.05662 0.44557 0.0
H1060 H 0.61356 0.09107 0.45296 0.0
H1061 H 0.48477 0.9562 0.52763 0.0
H1062 H 0.51704 0.03115 0.59746 0.0
N1063 N 0.51218 0.01551 0.51466 0.0
C1064 C 0.49043 0.9786 0.50111 0.0
C1065 C 0.4932 0.99266 0.48971 0.0
C1066 C 0.49734 0.98366 0.51986 0.0
C1067 C 0.50815 1.00255 0.52638 0.0
C1068 C 0.5037 0.01126 0.49688 0.0
N1069 N 0.5218 0.02778 0.55123 0.0
C1070 C 0.51304 0.00892 0.5453 0.0
C1071 C 0.51611 0.02461 0.58288 0.0
C1072 C 0.509 1.0047 0.57718 0.0
C1073 C 0.52202 0.03607 0.56962 0.0
C1074 C 0.50681 0.99673 0.55815 0.0
H1075 H 0.50429 0.99585 0.58746 0.0
O1076 O 0.52261 0.06838 0.54408 0.0
O1077 O 0.56004 0.06583 0.52999 0.0
O1078 O 0.58131 0.05386 0.54753 0.0
O1079 O 0.55089 0.04448 0.55327 0.0
O1080 O 0.53849 0.07417 0.51771 0.0
O1081 O 0.50691 0.05186 0.5186 0.0
O1082 O 0.59069 0.02777 0.50124 0.0
O1083 O 0.5528 0.03031 0.51481 0.0
O1084 O 0.5349 0.03756 0.497 0.0
O1085 O 0.56311 0.0551 0.49258 0.0
O1086 O 0.5745 0.02152 0.52603 0.0
O1087 O 0.60763 0.04788 0.52462 0.0
C1088 C 0.55541 0.07954 0.52329 0.0
C1089 C 0.49745 0.97741 0.55159 0.0
C1090 C 0.4928 0.97084 0.53245 0.0
C1091 C 0.50799 0.0659 0.53278 0.0
C1092 C 0.49117 0.06817 0.54131 0.0
C1093 C 0.48761 0.06222 0.55839 0.0
C1094 C 0.47922 0.0778 0.53299 0.0
C1095 C 0.46386 0.08151 0.5418 0.0
C1096 C 0.47261 0.06598 0.56724 0.0
C1097 C 0.46092 0.07564 0.55913 0.0
C1098 C 0.56851 0.04917 0.55852 0.0
C1099 C 0.55742 0.01651 0.52128 0.0
C1100 C 0.60608 0.03239 0.51173 0.0
C1101 C 0.62228 0.02866 0.50298 0.0
C1102 C 0.62729 0.03542 0.48659 0.0
C1103 C 0.63229 0.0169 0.51074 0.0
C1104 C 0.64721 0.01192 0.50218 0.0
C1105 C 0.64186 0.03022 0.47782 0.0
C1106 C 0.65176 0.01852 0.48552 0.0
C1107 C 0.54608 0.04723 0.4869 0.0
H1108 H 0.49656 0.05504 0.56516 0.0
H1109 H 0.48194 0.08243 0.51978 0.0
H1110 H 0.47017 0.06162 0.58059 0.0
H1111 H 0.44969 0.07879 0.56668 0.0
H1112 H 0.62004 0.04462 0.48046 0.0
H1113 H 0.6285 0.0117 0.52347 0.0
H1114 H 0.64548 0.03524 0.46501 0.0
H1115 H 0.66294 0.01453 0.47838 0.0
Gd1116 Gd 0.32234 0.288 0.7712 0.0
Gd1117 Gd 0.27725 0.29821 0.76962 0.0
C1118 C 0.24989 0.288 0.71018 0.0
C1119 C 0.24602 0.32036 0.70722 0.0
C1120 C 0.26013 0.3148 0.73607 0.0
C1121 C 0.25814 0.29538 0.7285 0.0
C1122 C 0.25361 0.32741 0.72571 0.0
C1123 C 0.24421 0.30069 0.69945 0.0
C1124 C 0.24714 0.26802 0.70339 0.0
C1125 C 0.25204 0.25585 0.71499 0.0
N1126 N 0.26346 0.2835 0.73939 0.0
C1127 C 0.26003 0.26384 0.73309 0.0
H1128 H 0.2638 0.25416 0.74168 0.0
C1129 C 0.26673 0.33923 0.76307 0.0
N1130 N 0.26729 0.32105 0.75403 0.0
C1131 C 0.2606 0.35237 0.75336 0.0
C1132 C 0.25426 0.34653 0.7345 0.0
H1133 H 0.27145 0.34367 0.77773 0.0
H1134 H 0.23795 0.29532 0.68532 0.0
H1135 H 0.33968 0.33374 0.79966 0.0
H1136 H 0.24091 0.2618 0.68938 0.0
H1137 H 0.24974 0.24033 0.71 0.0
H1138 H 0.24106 0.32987 0.69899 0.0
H1139 H 0.32546 0.24101 0.76451 0.0
H1140 H 0.36278 0.32456 0.85057 0.0
H1141 H 0.35519 0.34656 0.83009 0.0
H1142 H 0.35793 0.25607 0.84221 0.0
H1143 H 0.26067 0.36693 0.76044 0.0
H1144 H 0.24936 0.35667 0.72704 0.0
H1145 H 0.36349 0.29096 0.85501 0.0
H1146 H 0.33508 0.21793 0.78234 0.0
N1147 N 0.338 0.30351 0.80108 0.0
C1148 C 0.35595 0.31852 0.83676 0.0
C1149 C 0.35181 0.33096 0.82521 0.0
C1150 C 0.35163 0.29848 0.83022 0.0
C1151 C 0.34258 0.29124 0.81211 0.0
C1152 C 0.34301 0.32329 0.80742 0.0
N1153 N 0.33111 0.2648 0.78741 0.0
C1154 C 0.33909 0.27143 0.80508 0.0
C1155 C 0.33605 0.23284 0.78904 0.0
C1156 C 0.34309 0.23908 0.80757 0.0
C1157 C 0.33044 0.24601 0.77905 0.0
C1158 C 0.34504 0.25861 0.81572 0.0
H1159 H 0.3476 0.22888 0.81525 0.0
O1160 O 0.33371 0.27133 0.749 0.0
O1161 O 0.2964 0.28423 0.75319 0.0
O1162 O 0.27366 0.2666 0.77432 0.0
O1163 O 0.3014 0.25826 0.77006 0.0
O1164 O 0.31983 0.29867 0.7441 0.0
O1165 O 0.35079 0.29726 0.76597 0.0
O1166 O 0.26255 0.30704 0.7933 0.0
O1167 O 0.3001 0.29437 0.78836 0.0
O1168 O 0.32597 0.32077 0.77127 0.0
O1169 O 0.2973 0.32664 0.76457 0.0
O1170 O 0.29056 0.31987 0.79459 0.0
O1171 O 0.24934 0.28328 0.77196 0.0
C1172 C 0.30293 0.2914 0.73955 0.0
C1173 C 0.35342 0.26574 0.83386 0.0
C1174 C 0.35663 0.28561 0.84112 0.0
C1175 C 0.34961 0.28336 0.75161 0.0
C1176 C 0.3659 0.27549 0.74719 0.0
C1177 C 0.36714 0.2572 0.75114 0.0
C1178 C 0.37986 0.28569 0.73784 0.0
C1179 C 0.39493 0.27763 0.73297 0.0
C1180 C 0.38179 0.24918 0.74623 0.0
C1181 C 0.39552 0.25924 0.73728 0.0
C1182 C 0.28378 0.25339 0.7728 0.0
C1183 C 0.30124 0.30971 0.80038 0.0
C1184 C 0.24777 0.29398 0.7877 0.0
C1185 C 0.23045 0.30024 0.79007 0.0
C1186 C 0.22494 0.31237 0.77862 0.0
C1187 C 0.21939 0.29431 0.80409 0.0
C1188 C 0.20296 0.30045 0.80643 0.0
C1189 C 0.20887 0.31867 0.7811 0.0
C1190 C 0.19794 0.31274 0.79484 0.0
C1191 C 0.31544 0.33275 0.76759 0.0
H1192 H 0.35668 0.24884 0.75777 0.0
H1193 H 0.37903 0.29976 0.73448 0.0
H1194 H 0.38246 0.23498 0.74928 0.0
H1195 H 0.40663 0.25246 0.7335 0.0
H1196 H 0.23302 0.31693 0.76772 0.0
H1197 H 0.22345 0.28486 0.81298 0.0
H1198 H 0.2048 0.32813 0.77225 0.0
H1199 H 0.18547 0.31772 0.79641 0.0
Gd1200 Gd 0.05695 0.02167 0.51242 0.0
Gd1201 Gd 0.04638 0.06586 0.53137 0.0
C1202 C 0.06047 0.09628 0.59239 0.0
C1203 C 0.03105 0.10021 0.60173 0.0
C1204 C 0.03381 0.08384 0.57039 0.0
C1205 C 0.05226 0.08648 0.57456 0.0
C1206 C 0.02302 0.09091 0.58386 0.0
C1207 C 0.04974 0.10289 0.60598 0.0
C1208 C 0.07928 0.09967 0.5959 0.0
C1209 C 0.08949 0.09379 0.5817 0.0
N1210 N 0.06231 0.08035 0.56094 0.0
C1211 C 0.08082 0.08436 0.56423 0.0
H1212 H 0.08925 0.08003 0.55372 0.0
C1213 C 0.00865 0.07404 0.54764 0.0
N1214 N 0.02652 0.07523 0.55288 0.0
C1215 C 0.99737 0.08054 0.56057 0.0
C1216 C 0.00456 0.08891 0.5788 0.0
H1217 H 1.00307 0.0678 0.53346 0.0
H1218 H 0.05582 0.11043 0.61972 0.0
H1219 H 0.01402 0.00895 0.48981 0.0
H1220 H 0.08607 0.10714 0.60938 0.0
H1221 H 0.1041 0.09654 0.58416 0.0
H1222 H 0.02298 0.10573 0.61225 0.0
H1223 H 0.09988 0.01859 0.51042 0.0
H1224 H 0.01703 0.98231 0.43396 0.0
H1225 H 0.99917 0.99342 0.45914 0.0
H1226 H 0.07969 0.98126 0.43149 0.0
H1227 H 0.98317 0.07924 0.55641 0.0
H1228 H 0.99583 0.09415 0.58875 0.0
H1229 H 0.04704 0.97782 0.42382 0.0
H1230 H 0.1195 1.00637 0.48755 0.0
N1231 N 0.04088 0.0077 0.48276 0.0
C1232 C 0.02383 0.98936 0.44756 0.0
C1233 C 0.01372 0.99555 0.46172 0.0
C1234 C 0.04256 0.99195 0.45122 0.0
C1235 C 0.05081 1.00131 0.46916 0.0
C1236 C 0.0224 1.00442 0.47933 0.0
N1237 N 0.07654 0.01182 0.49091 0.0
C1238 C 0.06919 1.0034 0.47338 0.0
C1239 C 0.1054 1.00555 0.48334 0.0
C1240 C 0.09817 0.99737 0.46508 0.0
C1241 C 0.09428 0.01249 0.49622 0.0
C1242 C 0.07982 0.996 0.45994 0.0
H1243 H 0.10676 0.99181 0.45516 0.0
O1244 O 0.06954 1.00249 0.52616 0.0
O1245 O 0.056 0.0406 0.54019 0.0
O1246 O 0.07552 0.07097 0.52376 0.0
O1247 O 0.07889 0.044 0.5031 0.0
O1248 O 0.07994 0.03227 0.53554 0.0
O1249 O 0.04145 0.99289 0.51466 0.0
O1250 O 0.0333 0.08459 0.51756 0.0
O1251 O 0.04745 0.04705 0.50342 0.0
O1252 O 0.02792 0.01667 0.51978 0.0
O1253 O 0.02464 0.04326 0.54091 0.0
O1254 O 0.02346 0.05498 0.5085 0.0
O1255 O 0.06137 0.09488 0.52903 0.0
C1256 C 0.0716 0.04072 0.54819 0.0
C1257 C 0.07174 0.98702 0.442 0.0
C1258 C 0.05316 0.98504 0.43763 0.0
C1259 C 0.05499 0.98864 0.52366 0.0
C1260 C 0.05757 0.9688 0.51947 0.0
C1261 C 0.06781 0.96286 0.50512 0.0
C1262 C 0.05063 0.95599 0.53124 0.0
C1263 C 0.05387 0.93719 0.52886 0.0
C1264 C 0.07105 0.94409 0.50264 0.0
C1265 C 0.06411 0.93126 0.51443 0.0
C1266 C 0.08491 0.06223 0.51169 0.0
C1267 C 0.03185 0.04714 0.49549 0.0
C1268 C 0.04765 0.09866 0.51989 0.0
C1269 C 0.04467 0.11839 0.52345 0.0
C1270 C 0.03308 0.124 0.53655 0.0
C1271 C 0.05228 0.1312 0.51192 0.0
C1272 C 0.04824 0.14961 0.5132 0.0
C1273 C 0.02909 0.14239 0.53799 0.0
C1274 C 0.03658 0.15515 0.52636 0.0
C1275 C 0.01861 0.0251 0.5321 0.0
H1276 H 0.07344 0.97272 0.49606 0.0
H1277 H 0.04278 0.96073 0.54239 0.0
H1278 H 0.0791 0.93953 0.49168 0.0
H1279 H 0.06699 0.91687 0.5125 0.0
H1280 H 0.02689 0.1141 0.54535 0.0
H1281 H 0.06116 0.12669 0.50176 0.0
H1282 H 0.01996 0.14666 0.54793 0.0
H1283 H 0.03299 0.16917 0.52742 0.0
Gd1284 Gd 0.2819 0.77592 0.77582 0.0
Gd1285 Gd 0.3219 0.80491 0.76599 0.0
C1286 C 0.32644 0.86899 0.76218 0.0
C1287 C 0.3352 0.86992 0.73075 0.0
C1288 C 0.32982 0.83937 0.74252 0.0
C1289 C 0.32579 0.84879 0.7594 0.0
C1290 C 0.33485 0.84991 0.72813 0.0
C1291 C 0.33094 0.87942 0.74771 0.0
C1292 C 0.32288 0.87823 0.77955 0.0
C1293 C 0.31924 0.86748 0.79379 0.0
N1294 N 0.32183 0.8384 0.77327 0.0
C1295 C 0.319 0.84759 0.7905 0.0
H1296 H 0.31609 0.83976 0.80181 0.0
C1297 C 0.3349 0.81054 0.72462 0.0
N1298 N 0.32947 0.82004 0.74038 0.0
C1299 C 0.3399 0.82035 0.70995 0.0
C1300 C 0.33977 0.8401 0.71166 0.0
H1301 H 0.3351 0.79527 0.72334 0.0
H1302 H 0.33148 0.89492 0.74961 0.0
H1303 H 0.28759 0.73742 0.74416 0.0
H1304 H 0.32318 0.89369 0.7822 0.0
H1305 H 0.31665 0.87452 0.80735 0.0
H1306 H 0.33897 0.87824 0.71983 0.0
H1307 H 0.26485 0.78954 0.81576 0.0
H1308 H 0.28065 0.6875 0.77025 0.0
H1309 H 0.28752 0.70306 0.74278 0.0
H1310 H 0.26215 0.70981 0.83002 0.0
H1311 H 0.34395 0.81271 0.69739 0.0
H1312 H 0.34376 0.84771 0.70031 0.0
H1313 H 0.27127 0.69018 0.80278 0.0
H1314 H 0.2544 0.77553 0.8431 0.0
N1315 N 0.28188 0.74239 0.77268 0.0
C1316 C 0.28093 0.70287 0.77109 0.0
C1317 C 0.28477 0.71157 0.75556 0.0
C1318 C 0.2769 0.71394 0.78729 0.0
C1319 C 0.27749 0.73392 0.78768 0.0
C1320 C 0.28489 0.7313 0.7565 0.0
N1321 N 0.27241 0.76391 0.80262 0.0
C1322 C 0.27251 0.74499 0.80308 0.0
C1323 C 0.25956 0.76682 0.832 0.0
C1324 C 0.26031 0.74763 0.83307 0.0
C1325 C 0.26551 0.77472 0.81649 0.0
C1326 C 0.2666 0.73636 0.8184 0.0
H1327 H 0.25561 0.74151 0.84506 0.0
O1328 O 0.25529 0.7822 0.77678 0.0
O1329 O 0.29218 0.80554 0.76743 0.0
O1330 O 0.31986 0.80796 0.79693 0.0
O1331 O 0.29951 0.78092 0.8025 0.0
O1332 O 0.2777 0.80535 0.79014 0.0
O1333 O 0.25972 0.75875 0.75587 0.0
O1334 O 0.3481 0.7996 0.75998 0.0
O1335 O 0.31161 0.77554 0.77419 0.0
O1336 O 0.28703 0.77004 0.74574 0.0
O1337 O 0.30344 0.79895 0.73977 0.0
O1338 O 0.32663 0.77548 0.75186 0.0
O1339 O 0.34552 0.81968 0.78514 0.0
C1340 C 0.28461 0.8165 0.77888 0.0
C1341 C 0.26656 0.71666 0.81833 0.0
C1342 C 0.27174 0.70548 0.80282 0.0
C1343 C 0.2481 0.76825 0.763 0.0
C1344 C 0.23018 0.75706 0.76517 0.0
C1345 C 0.22688 0.74632 0.77962 0.0
C1346 C 0.21581 0.7586 0.75317 0.0
C1347 C 0.19809 0.74951 0.75547 0.0
C1348 C 0.20915 0.73709 0.78189 0.0
C1349 C 0.19475 0.73862 0.76981 0.0
C1350 C 0.31294 0.79612 0.80812 0.0
C1351 C 0.3193 0.76445 0.76306 0.0
C1352 C 0.3563 0.81128 0.77502 0.0
C1353 C 0.37442 0.82249 0.77373 0.0
C1354 C 0.37927 0.83082 0.75804 0.0
C1355 C 0.38757 0.82304 0.78807 0.0
C1356 C 0.40564 0.83172 0.78687 0.0
C1357 C 0.39736 0.8397 0.75688 0.0
C1358 C 0.41055 0.84017 0.77125 0.0
C1359 C 0.29266 0.78181 0.73415 0.0
H1360 H 0.23783 0.74527 0.78923 0.0
H1361 H 0.21837 0.76719 0.74219 0.0
H1362 H 0.20656 0.72898 0.79316 0.0
H1363 H 0.18102 0.73175 0.77191 0.0
H1364 H 0.36924 0.83016 0.74667 0.0
H1365 H 0.38379 0.81631 0.80004 0.0
H1366 H 0.40122 0.84592 0.74471 0.0
H1367 H 0.42459 0.84669 0.76999 0.0
Gd1368 Gd 0.54255 0.05106 0.99531 0.0
Gd1369 Gd 0.5594 0.04192 0.0416 0.0
C1370 C 0.61646 0.06512 0.07263 0.0
C1371 C 0.62854 0.036 0.0696 0.0
C1372 C 0.59806 0.03453 0.05609 0.0
C1373 C 0.60022 0.0542 0.06221 0.0
C1374 C 0.61189 0.02502 0.06047 0.0
C1375 C 0.63083 0.05607 0.07567 0.0
C1376 C 0.61752 0.08461 0.08035 0.0
C1377 C 0.60236 0.09247 0.07839 0.0
N1378 N 0.58584 0.06227 0.05949 0.0
C1379 C 0.5865 0.08099 0.06825 0.0
H1380 H 0.5748 0.08732 0.06798 0.0
C1381 C 0.57728 1.00452 0.04643 0.0
N1382 N 0.58162 0.02435 0.04787 0.0
C1383 C 0.59057 0.99434 0.05013 0.0
C1384 C 0.60813 1.00465 0.05672 0.0
H1385 H 0.56349 0.99659 0.04223 0.0
H1386 H 0.64347 0.06428 0.08339 0.0
H1387 H 0.52408 1.00039 0.98611 0.0
H1388 H 0.62972 0.09347 0.08843 0.0
H1389 H 0.60275 0.10731 0.08494 0.0
H1390 H 0.6394 0.02899 0.07285 0.0
H1391 H 0.52968 0.09393 1.00212 0.0
H1392 H 0.4779 0.99104 0.94707 0.0
H1393 H 0.49999 0.97827 0.96484 0.0
H1394 H 0.46672 0.05462 0.94839 0.0
H1395 H 0.58716 0.9786 0.04825 0.0
H1396 H 0.61834 0.99679 0.05995 0.0
H1397 H 0.46561 0.01954 0.94106 0.0
H1398 H 0.50597 0.1081 0.98942 0.0
N1399 N 0.51747 0.02651 0.97944 0.0
C1400 C 0.48878 1.00108 0.95622 0.0
C1401 C 0.50126 0.99384 0.96619 0.0
C1402 C 0.48991 0.02113 0.95897 0.0
C1403 C 0.50439 0.03363 0.971 0.0
C1404 C 0.51532 0.00673 0.97806 0.0
N1405 N 0.51807 0.0649 0.9879 0.0
C1406 C 0.50473 0.05338 0.97536 0.0
C1407 C 0.50534 0.09267 0.98545 0.0
C1408 C 0.49151 0.08101 0.97263 0.0
C1409 C 0.51864 0.08442 0.99284 0.0
C1410 C 0.49102 0.06114 0.96746 0.0
H1411 H 0.48126 0.08749 0.96681 0.0
O1412 O 0.55588 0.08021 0.99166 0.0
O1413 O 0.56441 0.05686 0.01781 0.0
O1414 O 0.55861 0.07316 0.03971 0.0
O1415 O 0.53308 0.06818 0.01988 0.0
O1416 O 0.57194 0.05084 0.99075 0.0
O1417 O 0.54451 0.05733 0.96754 0.0
O1418 O 0.54327 0.02411 0.0582 0.0
O1419 O 0.53599 0.042 0.02194 0.0
O1420 O 0.55115 0.02267 0.98956 0.0
O1421 O 0.56563 0.01974 0.01846 0.0
O1422 O 0.53545 0.01689 0.0321 0.0
O1423 O 0.55094 0.05503 0.06811 0.0
C1424 C 0.57739 0.0558 0.00831 0.0
C1425 C 0.47722 0.04887 0.95475 0.0
C1426 C 0.47664 0.02891 0.95053 0.0
C1427 C 0.55279 0.07553 0.97352 0.0
C1428 C 0.56599 0.08471 0.96207 0.0
C1429 C 0.56767 0.10462 0.9618 0.0
C1430 C 0.57467 0.0736 0.94943 0.0
C1431 C 0.58422 0.08228 0.936 0.0
C1432 C 0.57753 0.11332 0.94864 0.0
C1433 C 0.5856 0.10214 0.93559 0.0
C1434 C 0.54417 0.07884 0.03394 0.0
C1435 C 0.5259 0.02611 0.02315 0.0
C1436 C 0.54277 0.03823 0.07154 0.0
C1437 C 0.54535 0.03372 0.0902 0.0
C1438 C 0.55804 0.02288 0.09446 0.0
C1439 C 0.53243 0.03688 0.10252 0.0
C1440 C 0.53156 0.02859 0.11867 0.0
C1441 C 0.5573 0.01474 0.11069 0.0
C1442 C 0.54392 0.01734 0.12267 0.0
C1443 C 0.55999 0.0137 1.00043 0.0
H1444 H 0.56075 0.11325 0.97131 0.0
H1445 H 0.57315 0.05811 0.94931 0.0
H1446 H 0.57848 0.12859 0.94822 0.0
H1447 H 0.59277 0.10892 0.92506 0.0
H1448 H 0.56796 0.02002 0.08489 0.0
H1449 H 0.52239 0.0449 0.09906 0.0
H1450 H 0.56683 1.00606 0.11377 0.0
H1451 H 0.54331 0.01077 0.13509 0.0
Gd1452 Gd 0.28579 0.26303 0.25803 0.0
Gd1453 Gd 0.30789 0.31311 0.27897 0.0
C1454 C 0.36671 0.33572 0.26672 0.0
C1455 C 0.38273 0.34313 0.29767 0.0
C1456 C 0.35018 0.32954 0.29336 0.0
C1457 C 0.35033 0.32895 0.27439 0.0
C1458 C 0.36628 0.33738 0.3053 0.0
C1459 C 0.38295 0.34223 0.27838 0.0
C1460 C 0.3662 0.33655 0.2477 0.0
C1461 C 0.34961 0.3313 0.23693 0.0
N1462 N 0.33428 0.32308 0.26362 0.0
C1463 C 0.33376 0.32479 0.24515 0.0
H1464 H 0.32135 0.32108 0.23637 0.0
C1465 C 0.33275 0.32878 0.31907 0.0
N1466 N 0.33402 0.32428 0.30032 0.0
C1467 C 0.34829 0.33635 0.3315 0.0
C1468 C 0.36521 0.34029 0.3246 0.0
H1469 H 0.31963 0.32616 0.32448 0.0
H1470 H 0.39564 0.3473 0.27269 0.0
H1471 H 0.27523 0.2637 0.30531 0.0
H1472 H 0.37845 0.34167 0.2413 0.0
H1473 H 0.34897 0.33224 0.22224 0.0
H1474 H 0.39524 0.349 0.3066 0.0
H1475 H 0.26534 0.26209 0.21509 0.0
H1476 H 0.22405 0.22543 0.30319 0.0
H1477 H 0.25225 0.2453 0.32095 0.0
H1478 H 0.19991 0.21704 0.2399 0.0
H1479 H 0.34717 0.33933 0.34637 0.0
H1480 H 0.37722 0.3464 0.33423 0.0
H1481 H 0.20468 0.21516 0.27305 0.0
H1482 H 0.2365 0.2476 0.19724 0.0
N1483 N 0.2624 0.25253 0.27752 0.0
C1484 C 0.23462 0.23301 0.29589 0.0
C1485 C 0.25055 0.24404 0.30592 0.0
C1486 C 0.23202 0.23292 0.27678 0.0
C1487 C 0.24615 0.24325 0.26791 0.0
C1488 C 0.26414 0.25398 0.29662 0.0
N1489 N 0.25669 0.25557 0.24134 0.0
C1490 C 0.24315 0.24504 0.24941 0.0
C1491 C 0.23799 0.24717 0.21202 0.0
C1492 C 0.2239 0.23686 0.22028 0.0
C1493 C 0.25437 0.25611 0.22263 0.0
C1494 C 0.22638 0.23554 0.2391 0.0
H1495 H 0.21134 0.22958 0.2119 0.0
O1496 O 0.29165 0.24825 0.23121 0.0
O1497 O 0.3105 0.28641 0.26037 0.0
O1498 O 0.29421 0.31431 0.25099 0.0
O1499 O 0.28765 0.28208 0.23578 0.0
O1500 O 0.31399 0.2587 0.26365 0.0
O1501 O 0.27844 0.23183 0.25126 0.0
O1502 O 0.29794 0.33353 0.29854 0.0
O1503 O 0.28154 0.29198 0.26909 0.0
O1504 O 0.29837 0.2619 0.28689 0.0
O1505 O 0.31425 0.29402 0.29945 0.0
O1506 O 0.28493 0.30534 0.29652 0.0
O1507 O 0.30747 0.34189 0.27273 0.0
C1508 C 0.32198 0.27653 0.26328 0.0
C1509 C 0.21273 0.22456 0.24768 0.0
C1510 C 0.2155 0.22334 0.2665 0.0
C1511 C 0.28408 0.23118 0.23466 0.0
C1512 C 0.29166 0.21459 0.22775 0.0
C1513 C 0.2879 0.2059 0.20889 0.0
C1514 C 0.30052 0.2059 0.24016 0.0
C1515 C 0.30547 0.18835 0.23387 0.0
C1516 C 0.29287 0.18841 0.20252 0.0
C1517 C 0.30157 0.17958 0.21496 0.0
C1518 C 0.28911 0.30088 0.23582 0.0
C1519 C 0.2733 0.29469 0.28332 0.0
C1520 C 0.30077 0.347 0.28835 0.0
C1521 C 0.30591 0.36718 0.29789 0.0
C1522 C 0.31539 0.37305 0.31573 0.0
C1523 C 0.29815 0.38025 0.28989 0.0
C1524 C 0.29894 0.39885 0.29975 0.0
C1525 C 0.31664 0.39197 0.32547 0.0
C1526 C 0.30813 0.40482 0.31763 0.0
C1527 C 0.30854 0.27529 0.30049 0.0
H1528 H 0.28072 0.21239 0.19923 0.0
H1529 H 0.30306 0.21248 0.25483 0.0
H1530 H 0.28985 0.18162 0.18799 0.0
H1531 H 0.30548 0.16609 0.20974 0.0
H1532 H 0.32122 0.36299 0.32235 0.0
H1533 H 0.29037 0.37551 0.27633 0.0
H1534 H 0.32373 0.39647 0.3393 0.0
H1535 H 0.30859 0.41921 0.32544 0.0
Gd1536 Gd 0.55616 0.51986 0.01254 0.0
Gd1537 Gd 0.5462 0.56479 0.02947 0.0
C1538 C 0.56537 0.59991 0.08817 0.0
C1539 C 0.53703 0.6045 0.10006 0.0
C1540 C 0.53707 0.58571 0.06907 0.0
C1541 C 0.55571 0.5886 0.0715 0.0
C1542 C 0.52754 0.59383 0.08325 0.0
C1543 C 0.55592 0.60761 0.10248 0.0
C1544 C 0.58427 0.60332 0.08996 0.0
C1545 C 0.59312 0.59543 0.07542 0.0
N1546 N 0.56444 0.58077 0.05746 0.0
C1547 C 0.58302 0.58416 0.05928 0.0
H1548 H 0.59045 0.578 0.04867 0.0
C1549 C 0.5102 0.57474 0.04872 0.0
N1550 N 0.52833 0.57585 0.05249 0.0
C1551 C 0.50011 0.58211 0.06246 0.0
C1552 C 0.50879 0.59154 0.07989 0.0
H1553 H 0.50349 0.56797 0.03506 0.0
H1554 H 0.56312 0.61619 0.11539 0.0
H1555 H 0.51226 0.50646 0.99293 0.0
H1556 H 0.59215 0.61198 0.10248 0.0
H1557 H 0.60775 0.59789 0.07667 0.0
H1558 H 0.52994 0.61078 0.11111 0.0
H1559 H 0.59838 0.51426 0.00799 0.0
H1560 H 0.51214 0.48198 0.93574 0.0
H1561 H 0.49573 0.49173 0.9627 0.0
H1562 H 0.57425 0.48095 0.92883 0.0
H1563 H 0.4857 0.58075 0.05951 0.0
H1564 H 0.501 0.5975 0.09045 0.0
H1565 H 0.54145 0.47813 0.92324 0.0
H1566 H 0.61648 0.50229 0.98341 0.0
N1567 N 0.53854 0.5061 0.9837 0.0
C1568 C 0.51966 0.48866 0.9491 0.0
C1569 C 0.51036 0.49407 0.96428 0.0
C1570 C 0.5385 0.49136 0.95148 0.0
C1571 C 0.54769 0.5002 0.96917 0.0
C1572 C 0.51997 0.50244 0.98158 0.0
N1573 N 0.57442 0.50953 0.98963 0.0
C1574 C 0.56617 0.50193 0.97225 0.0
C1575 C 0.60239 0.50225 0.98003 0.0
C1576 C 0.59431 0.49522 0.96186 0.0
C1577 C 0.59212 0.50905 0.99388 0.0
C1578 C 0.57593 0.49468 0.95784 0.0
H1579 H 0.60225 0.48975 0.95119 0.0
O1580 O 0.56983 0.50072 0.02489 0.0
O1581 O 0.55517 0.53963 0.04009 0.0
O1582 O 0.57443 0.56989 0.01992 0.0
O1583 O 0.5795 0.54111 1.00385 0.0
O1584 O 0.57883 0.53096 0.0358 0.0
O1585 O 0.54135 0.49075 0.01499 0.0
O1586 O 0.53169 0.58342 0.01701 0.0
O1587 O 0.54691 0.54486 1.00211 0.0
O1588 O 0.52795 0.51412 0.02234 0.0
O1589 O 0.52331 0.5432 0.03842 0.0
O1590 O 0.52298 0.55317 0.00718 0.0
O1591 O 0.5607 0.59276 0.02395 0.0
C1592 C 0.57054 0.53935 0.04857 0.0
C1593 C 0.56695 0.48651 0.94008 0.0
C1594 C 0.54828 0.48489 0.9369 0.0
C1595 C 0.55549 0.4867 0.02306 0.0
C1596 C 0.55829 0.46692 0.01882 0.0
C1597 C 0.56914 0.46133 0.0049 0.0
C1598 C 0.55173 0.45417 0.03078 0.0
C1599 C 0.55649 0.43615 0.02942 0.0
C1600 C 0.57377 0.44322 1.00338 0.0
C1601 C 0.56766 0.43073 0.01576 0.0
C1602 C 0.58461 0.56006 0.00997 0.0
C1603 C 0.53123 0.54494 0.99431 0.0
C1604 C 0.54613 0.59696 0.01698 0.0
C1605 C 0.54423 0.61712 0.02143 0.0
C1606 C 0.53551 0.62363 0.03686 0.0
C1607 C 0.55021 0.62966 0.00902 0.0
C1608 C 0.54727 0.64864 0.01173 0.0
C1609 C 0.53264 0.64254 0.03971 0.0
C1610 C 0.53839 0.65498 0.02719 0.0
C1611 C 0.51809 0.52423 0.03245 0.0
H1612 H 0.57434 0.47104 0.99555 0.0
H1613 H 0.54358 0.45864 0.04175 0.0
H1614 H 0.58234 0.43899 0.99281 0.0
H1615 H 0.57155 0.41684 0.01463 0.0
H1616 H 0.53071 0.6141 0.0465 0.0
H1617 H 0.55664 0.62441 0.9969 0.0
H1618 H 0.5258 0.64753 0.05157 0.0
H1619 H 0.53601 0.66959 0.02967 0.0
Gd1620 Gd 0.78256 0.2764 0.27428 0.0
Gd1621 Gd 0.824 0.30502 0.26698 0.0
C1622 C 0.82379 0.36875 0.2664 0.0
C1623 C 0.83205 0.37234 0.23521 0.0
C1624 C 0.82925 0.34104 0.24532 0.0
C1625 C 0.82463 0.34895 0.26252 0.0
C1626 C 0.83341 0.35278 0.23162 0.0
C1627 C 0.82723 0.3803 0.25255 0.0
C1628 C 0.8199 0.37646 0.28422 0.0
C1629 C 0.81741 0.36463 0.2978 0.0
N1630 N 0.8217 0.33752 0.27573 0.0
C1631 C 0.81857 0.34514 0.29335 0.0
H1632 H 0.81668 0.33614 0.30394 0.0
C1633 C 0.83784 0.31467 0.22674 0.0
N1634 N 0.8307 0.32218 0.24235 0.0
C1635 C 0.84187 0.32562 0.21264 0.0
C1636 C 0.83942 0.34469 0.21498 0.0
H1637 H 0.84025 0.30014 0.22517 0.0
H1638 H 0.82657 0.39551 0.25525 0.0
H1639 H 0.7878 0.23919 0.23939 0.0
H1640 H 0.8191 0.39159 0.28774 0.0
H1641 H 0.81464 0.37052 0.3117 0.0
H1642 H 0.8351 0.38155 0.22482 0.0
H1643 H 0.76464 0.2854 0.31552 0.0
H1644 H 0.78751 0.18906 0.26379 0.0
H1645 H 0.7903 0.20563 0.23657 0.0
H1646 H 0.77135 0.20668 0.32533 0.0
H1647 H 0.84708 0.31942 0.20009 0.0
H1648 H 0.84275 0.35323 0.20412 0.0
H1649 H 0.78064 0.18967 0.29679 0.0
H1650 H 0.7565 0.26869 0.34187 0.0
N1651 N 0.78448 0.24318 0.26877 0.0
C1652 C 0.78658 0.20418 0.26534 0.0
C1653 C 0.78808 0.21344 0.24994 0.0
C1654 C 0.78308 0.21422 0.28234 0.0
C1655 C 0.78206 0.23398 0.28373 0.0
C1656 C 0.78665 0.23283 0.25177 0.0
N1657 N 0.77518 0.26237 0.30087 0.0
C1658 C 0.77712 0.24375 0.30008 0.0
C1659 C 0.76243 0.26157 0.33031 0.0
C1660 C 0.76562 0.24306 0.33037 0.0
C1661 C 0.76704 0.27094 0.31528 0.0
C1662 C 0.77268 0.23375 0.31504 0.0
H1663 H 0.76199 0.2358 0.34203 0.0
O1664 O 0.75697 0.28285 0.28148 0.0
O1665 O 0.79636 0.3085 0.27589 0.0
O1666 O 0.82553 0.30258 0.29696 0.0
O1667 O 0.7961 0.29036 0.30304 0.0
O1668 O 0.77193 0.29901 0.26068 0.0
O1669 O 0.75776 0.25856 0.25896 0.0
O1670 O 0.85046 0.30042 0.26103 0.0
O1671 O 0.81241 0.27523 0.27391 0.0
O1672 O 0.78706 0.2711 0.24422 0.0
O1673 O 0.80697 0.29887 0.23981 0.0
O1674 O 0.82807 0.27581 0.25191 0.0
O1675 O 0.84765 0.32133 0.28539 0.0
C1676 C 0.78419 0.31448 0.2666 0.0
C1677 C 0.77454 0.21446 0.31391 0.0
C1678 C 0.77981 0.20476 0.29765 0.0
C1679 C 0.74789 0.26903 0.26829 0.0
C1680 C 0.72923 0.26016 0.27053 0.0
C1681 C 0.72397 0.25239 0.28638 0.0
C1682 C 0.71618 0.26084 0.25654 0.0
C1683 C 0.69786 0.25388 0.25823 0.0
C1684 C 0.70557 0.24535 0.28809 0.0
C1685 C 0.69251 0.24604 0.27403 0.0
C1686 C 0.81339 0.29783 0.30849 0.0
C1687 C 0.82039 0.26449 0.26271 0.0
C1688 C 0.85851 0.31275 0.27568 0.0
C1689 C 0.8767 0.32365 0.27447 0.0
C1690 C 0.88211 0.33138 0.25862 0.0
C1691 C 0.88944 0.32415 0.28914 0.0
C1692 C 0.90764 0.33199 0.28803 0.0
C1693 C 0.90042 0.33959 0.25764 0.0
C1694 C 0.91322 0.33987 0.27233 0.0
C1695 C 0.79461 0.28298 0.23353 0.0
H1696 H 0.73391 0.2519 0.29739 0.0
H1697 H 0.72025 0.26719 0.24443 0.0
H1698 H 0.70142 0.23956 0.3004 0.0
H1699 H 0.67828 0.24094 0.27565 0.0
H1700 H 0.87236 0.33072 0.24699 0.0
H1701 H 0.88528 0.31772 0.30118 0.0
H1702 H 0.90474 0.34533 0.24536 0.0
H1703 H 0.92745 0.34571 0.27125 0.0
Gd1704 Gd 0.0445 0.54593 0.4997 0.0
Gd1705 Gd 0.05983 0.54134 0.54915 0.0
C1706 C 0.11477 0.57111 0.58185 0.0
C1707 C 0.13151 0.54549 0.57725 0.0
C1708 C 0.10003 0.53929 0.5645 0.0
C1709 C 0.09946 0.55829 0.57137 0.0
C1710 C 0.11577 0.5324 0.56827 0.0
C1711 C 0.13101 0.56486 0.58403 0.0
C1712 C 0.11306 0.5895 0.59053 0.0
C1713 C 0.09606 0.59408 0.58989 0.0
N1714 N 0.08344 0.56369 0.56931 0.0
C1715 C 0.08121 0.58066 0.57972 0.0
H1716 H 0.06797 0.58399 0.58007 0.0
C1717 C 0.08295 0.5073 0.55485 0.0
N1718 N 0.08446 0.52699 0.55632 0.0
C1719 C 0.09816 0.4997 0.55803 0.0
C1720 C 0.11484 0.51236 0.56419 0.0
H1721 H 0.06998 0.49729 0.55084 0.0
H1722 H 0.14299 0.5746 0.59173 0.0
H1723 H 0.0324 0.50068 0.47143 0.0
H1724 H 0.1245 0.59981 0.5986 0.0
H1725 H 0.09431 0.60783 0.59743 0.0
H1726 H 0.14382 0.54054 0.57992 0.0
H1727 H 0.03513 0.59046 0.49907 0.0
H1728 H 0.97547 0.48768 0.45686 0.0
H1729 H 0.0047 0.47764 0.45709 0.0
H1730 H 0.96013 0.54934 0.47253 0.0
H1731 H 0.09693 0.48409 0.556 0.0
H1732 H 0.12658 0.50647 0.56695 0.0
H1733 H 0.95895 0.51449 0.4628 0.0
H1734 H 0.00898 0.60447 0.49344 0.0
N1735 N 0.01908 0.52318 0.48225 0.0
C1736 C 0.98759 0.49776 0.4639 0.0
C1737 C 0.00404 0.49205 0.46401 0.0
C1738 C 0.98722 0.51686 0.47168 0.0
C1739 C 1.00338 0.52943 0.48085 0.0
C1740 C 0.01977 0.50519 0.47265 0.0
N1741 N 0.01988 0.56091 0.49428 0.0
C1742 C 0.00385 0.54894 0.48686 0.0
C1743 C 0.0072 0.58882 0.4919 0.0
C1744 C 0.9902 0.57667 0.48635 0.0
C1745 C 0.02201 0.58068 0.49521 0.0
C1746 C 0.98845 0.55649 0.48316 0.0
H1747 H 0.97877 0.58301 0.48351 0.0
O1748 O 0.05858 0.57184 0.49082 0.0
O1749 O 0.06584 0.55216 0.52295 0.0
O1750 O 0.0615 0.57289 0.54682 0.0
O1751 O 0.04033 0.57029 0.52158 0.0
O1752 O 0.07331 0.54308 0.49636 0.0
O1753 O 0.05106 0.54369 0.47091 0.0
O1754 O 0.04485 0.51573 0.55823 0.0
O1755 O 0.0392 0.53477 0.52534 0.0
O1756 O 0.0449 0.51488 0.50155 0.0
O1757 O 0.06509 0.51685 0.52756 0.0
O1758 O 0.03075 0.54415 0.55112 0.0
O1759 O 0.04866 0.5445 0.57586 0.0
C1760 C 0.0787 0.54915 0.51381 0.0
C1761 C 0.97212 0.54381 0.47522 0.0
C1762 C 0.97146 0.52399 0.46962 0.0
C1763 C 0.05818 0.56246 0.47385 0.0
C1764 C 0.06564 0.57262 0.45944 0.0
C1765 C 0.06383 0.59169 0.45884 0.0
C1766 C 0.07555 0.56352 0.4468 0.0
C1767 C 0.08418 0.57359 0.43379 0.0
C1768 C 0.07214 0.60164 0.44551 0.0
C1769 C 0.08246 0.59268 0.43307 0.0
C1770 C 0.04974 0.57986 0.53731 0.0
C1771 C 0.02599 0.53771 0.53364 0.0
C1772 C 0.04173 0.5258 0.57385 0.0
C1773 C 0.04144 0.51693 0.59057 0.0
C1774 C 0.05028 0.50184 0.59256 0.0
C1775 C 0.03043 0.52269 0.60412 0.0
C1776 C 0.02789 0.51328 0.61943 0.0
C1777 C 0.04788 0.49253 0.60802 0.0
C1778 C 0.03659 0.49813 0.6214 0.0
C1779 C 0.05691 0.50813 0.51091 0.0
H1780 H 0.05609 0.59883 0.46867 0.0
H1781 H 0.07718 0.54889 0.44757 0.0
H1782 H 0.07075 0.61633 0.44496 0.0
H1783 H 0.08903 0.60056 0.42288 0.0
H1784 H 0.05869 0.49701 0.58211 0.0
H1785 H 0.02333 0.53413 0.60247 0.0
H1786 H 0.05455 0.48078 0.60948 0.0
H1787 H 0.03457 0.49063 0.63317 0.0
Gd1788 Gd 0.82288 0.78794 0.26948 0.0
Gd1789 Gd 0.77784 0.79658 0.27161 0.0
C1790 C 0.75022 0.78577 0.21196 0.0
C1791 C 0.74913 0.8185 0.20756 0.0
C1792 C 0.76211 0.81305 0.23709 0.0
C1793 C 0.75859 0.79322 0.23029 0.0
C1794 C 0.75676 0.82577 0.22598 0.0
C1795 C 0.74594 0.79855 0.20055 0.0
C1796 C 0.746 0.76566 0.20571 0.0
C1797 C 0.7495 0.75339 0.2178 0.0
N1798 N 0.76265 0.78113 0.24175 0.0
C1799 C 0.75763 0.76133 0.23583 0.0
H1800 H 0.75984 0.75117 0.24453 0.0
C1801 C 0.76942 0.83842 0.26326 0.0
N1802 N 0.76941 0.81974 0.25499 0.0
C1803 C 0.76446 0.85157 0.25279 0.0
C1804 C 0.75846 0.84533 0.23395 0.0
H1805 H 0.7735 0.84334 0.278 0.0
H1806 H 0.73967 0.79307 0.18643 0.0
H1807 H 0.84252 0.83404 0.29493 0.0
H1808 H 0.73968 0.75943 0.19174 0.0
H1809 H 0.74597 0.73775 0.21323 0.0
H1810 H 0.74514 0.8281 0.19881 0.0
H1811 H 0.82683 0.74112 0.26477 0.0
H1812 H 0.86126 0.82741 0.3488 0.0
H1813 H 0.85591 0.84832 0.32617 0.0
H1814 H 0.8546 0.75881 0.34422 0.0
H1815 H 0.76508 0.86646 0.25934 0.0
H1816 H 0.75444 0.8555 0.2259 0.0
H1817 H 0.86052 0.7941 0.35543 0.0
H1818 H 0.83486 0.71867 0.28446 0.0
N1819 N 0.83849 0.80431 0.29896 0.0
C1820 C 0.85501 0.8208 0.33487 0.0
C1821 C 0.85201 0.83262 0.32217 0.0
C1822 C 0.85051 0.80059 0.32928 0.0
C1823 C 0.84224 0.79263 0.31099 0.0
C1824 C 0.844 0.82418 0.30419 0.0
N1825 N 0.83115 0.76544 0.28705 0.0
C1826 C 0.83842 0.77267 0.30488 0.0
C1827 C 0.83563 0.73373 0.29051 0.0
C1828 C 0.84152 0.74056 0.3093 0.0
C1829 C 0.83093 0.74652 0.27946 0.0
C1830 C 0.84343 0.76032 0.31661 0.0
H1831 H 0.8453 0.73066 0.31783 0.0
O1832 O 0.83469 0.77175 0.2473 0.0
O1833 O 0.79588 0.78316 0.25291 0.0
O1834 O 0.77395 0.76457 0.27364 0.0
O1835 O 0.80215 0.75775 0.26867 0.0
O1836 O 0.81835 0.79846 0.24273 0.0
O1837 O 0.85133 0.79761 0.26451 0.0
O1838 O 0.76494 0.81255 0.29316 0.0
O1839 O 0.80481 0.80125 0.28819 0.0
O1840 O 0.82646 0.81983 0.26707 0.0
O1841 O 0.79853 0.82689 0.27313 0.0
O1842 O 0.78227 0.78642 0.29856 0.0
O1843 O 0.74985 0.78544 0.27655 0.0
C1844 C 0.80143 0.79062 0.23902 0.0
C1845 C 0.85092 0.76813 0.33498 0.0
C1846 C 0.85436 0.78822 0.34133 0.0
C1847 C 0.8505 0.78387 0.25015 0.0
C1848 C 0.8669 0.77599 0.24649 0.0
C1849 C 0.86828 0.75819 0.25156 0.0
C1850 C 0.8809 0.78571 0.23689 0.0
C1851 C 0.89613 0.77765 0.23274 0.0
C1852 C 0.88305 0.7501 0.24732 0.0
C1853 C 0.89679 0.75965 0.23801 0.0
C1854 C 0.78464 0.75202 0.27166 0.0
C1855 C 0.79927 0.79381 0.30208 0.0
C1856 C 0.74972 0.79945 0.29038 0.0
C1857 C 0.73248 0.80583 0.29272 0.0
C1858 C 0.72679 0.81772 0.28113 0.0
C1859 C 0.72124 0.79939 0.30641 0.0
C1860 C 0.70447 0.80484 0.30836 0.0
C1861 C 0.71034 0.82334 0.28323 0.0
C1862 C 0.69925 0.81693 0.29667 0.0
C1863 C 0.81593 0.83251 0.2697 0.0
H1864 H 0.85784 0.75028 0.25857 0.0
H1865 H 0.87998 0.79944 0.23278 0.0
H1866 H 0.88381 0.73623 0.25116 0.0
H1867 H 0.90793 0.75276 0.23473 0.0
H1868 H 0.73492 0.82251 0.27036 0.0
H1869 H 0.7254 0.79 0.31532 0.0
H1870 H 0.70609 0.83261 0.27427 0.0
H1871 H 0.6865 0.8214 0.29795 0.0
Gd1872 Gd 0.79581 0.30194 0.79266 0.0
Gd1873 Gd 0.81652 0.2832 0.7511 0.0
C1874 C 0.79749 0.22208 0.71617 0.0
C1875 C 0.82457 0.20917 0.71807 0.0
C1876 C 0.82427 0.24122 0.73547 0.0
C1877 C 0.80653 0.23917 0.72856 0.0
C1878 C 0.83356 0.22629 0.73018 0.0
C1879 C 0.8066 0.20711 0.71101 0.0
C1880 C 0.77959 0.22056 0.70925 0.0
C1881 C 0.77105 0.23571 0.71489 0.0
N1882 N 0.79818 0.25397 0.73376 0.0
C1883 C 0.78055 0.25234 0.72717 0.0
H1884 H 0.77334 0.26344 0.73155 0.0
C1885 C 0.85089 0.26162 0.75192 0.0
N1886 N 0.83268 0.25814 0.74675 0.0
C1887 C 0.86057 0.24713 0.74745 0.0
C1888 C 0.85182 0.22929 0.73666 0.0
H1889 H 0.85811 0.27578 0.75934 0.0
H1890 H 0.79989 0.19392 0.70149 0.0
H1891 H 0.84286 0.32065 0.80519 0.0
H1892 H 0.7722 0.2077 0.6997 0.0
H1893 H 0.75709 0.23458 0.70985 0.0
H1894 H 0.83151 0.19759 0.71381 0.0
H1895 H 0.75673 0.31591 0.78438 0.0
H1896 H 0.84903 0.37588 0.83951 0.0
H1897 H 0.8619 0.34861 0.82527 0.0
H1898 H 0.79038 0.38985 0.83404 0.0
H1899 H 0.87488 0.24992 0.75193 0.0
H1900 H 0.85943 0.21819 0.73288 0.0
H1901 H 0.82236 0.39097 0.84281 0.0
H1902 H 0.74311 0.34328 0.7949 0.0
N1903 N 0.81797 0.3302 0.80836 0.0
C1904 C 0.84027 0.36329 0.8307 0.0
C1905 C 0.84755 0.34791 0.8228 0.0
C1906 C 0.82195 0.3626 0.82654 0.0
C1907 C 0.8111 0.34591 0.81483 0.0
C1908 C 0.83629 0.33158 0.8116 0.0
N1909 N 0.7833 0.32984 0.79749 0.0
C1910 C 0.79326 0.34566 0.80933 0.0
C1911 C 0.75731 0.34432 0.79883 0.0
C1912 C 0.76745 0.36071 0.81075 0.0
C1913 C 0.76537 0.32891 0.7925 0.0
C1914 C 0.7856 0.36156 0.81617 0.0
H1915 H 0.76106 0.37252 0.81588 0.0
O1916 O 0.76802 0.28887 0.79633 0.0
O1917 O 0.79546 0.27734 0.77002 0.0
O1918 O 0.79236 0.29437 0.74024 0.0
O1919 O 0.77768 0.30284 0.76664 0.0
O1920 O 0.79503 0.27123 0.79719 0.0
O1921 O 0.78666 0.30501 0.82021 0.0
O1922 O 0.8403 0.29672 0.73945 0.0
O1923 O 0.81039 0.30869 0.76869 0.0
O1924 O 0.82066 0.29252 0.80426 0.0
O1925 O 0.83236 0.27851 0.7773 0.0
O1926 O 0.83739 0.30923 0.76495 0.0
O1927 O 0.8142 0.28866 0.72244 0.0
C1928 C 0.79451 0.26422 0.77969 0.0
C1929 C 0.79613 0.37767 0.82849 0.0
C1930 C 0.81429 0.37826 0.83356 0.0
C1931 C 0.77044 0.29446 0.81439 0.0
C1932 C 0.76315 0.27982 0.82534 0.0
C1933 C 0.74447 0.27525 0.82704 0.0
C1934 C 0.77471 0.27066 0.83443 0.0
C1935 C 0.76762 0.25693 0.84515 0.0
C1936 C 0.73737 0.26147 0.8378 0.0
C1937 C 0.7489 0.25228 0.84685 0.0
C1938 C 0.77861 0.30014 0.74829 0.0
C1939 C 0.82593 0.3194 0.77061 0.0
C1940 C 0.83137 0.29701 0.72384 0.0
C1941 C 0.84127 0.29944 0.70762 0.0
C1942 C 0.85743 0.29306 0.70508 0.0
C1943 C 0.83549 0.31084 0.69577 0.0
C1944 C 0.84568 0.31595 0.68136 0.0
C1945 C 0.86758 0.29806 0.69045 0.0
C1946 C 0.86171 0.30947 0.67855 0.0
C1947 C 0.83274 0.2838 0.79577 0.0
H1948 H 0.73546 0.28245 0.82017 0.0
H1949 H 0.78922 0.27437 0.83346 0.0
H1950 H 0.72299 0.25808 0.83932 0.0
H1951 H 0.74332 0.24198 0.85559 0.0
H1952 H 0.86232 0.28463 0.71454 0.0
H1953 H 0.82327 0.31623 0.69806 0.0
H1954 H 0.88013 0.29337 0.68851 0.0
H1955 H 0.86978 0.31359 0.66743 0.0
Gd1956 Gd 0.79314 0.77326 0.76425 0.0
Gd1957 Gd 0.81754 0.82378 0.7833 0.0
C1958 C 0.87528 0.84013 0.7655 0.0
C1959 C 0.89375 0.84206 0.79423 0.0
C1960 C 0.86079 0.83199 0.79288 0.0
C1961 C 0.85935 0.8343 0.77435 0.0
C1962 C 0.87806 0.83659 0.80313 0.0
C1963 C 0.89237 0.84363 0.77542 0.0
C1964 C 0.87367 0.84297 0.74705 0.0
C1965 C 0.85659 0.84096 0.73808 0.0
N1966 N 0.84257 0.83183 0.76524 0.0
C1967 C 0.84125 0.83592 0.74749 0.0
H1968 H 0.82869 0.83587 0.7401 0.0
C1969 C 0.84658 0.829 0.8205 0.0
N1970 N 0.84541 0.827 0.80137 0.0
C1971 C 0.86326 0.83327 0.8311 0.0
C1972 C 0.87911 0.83673 0.82234 0.0
H1973 H 0.83468 0.82818 0.82799 0.0
H1974 H 0.90462 0.84823 0.76882 0.0
H1975 H 0.78123 0.76327 0.80814 0.0
H1976 H 0.88555 0.84731 0.73982 0.0
H1977 H 0.8552 0.84375 0.72396 0.0
H1978 H 0.90702 0.84563 0.80192 0.0
H1979 H 0.77719 0.77009 0.71922 0.0
H1980 H 0.72445 0.74418 0.8049 0.0
H1981 H 0.75445 0.75193 0.8226 0.0
H1982 H 0.70443 0.7439 0.74191 0.0
H1983 H 0.86385 0.83454 0.84614 0.0
H1984 H 0.89207 0.8405 0.83066 0.0
H1985 H 0.70611 0.74115 0.77498 0.0
H1986 H 0.74851 0.76111 0.70004 0.0
N1987 N 0.76774 0.7641 0.78158 0.0
C1988 C 0.73641 0.74975 0.79825 0.0
C1989 C 0.75329 0.75407 0.80825 0.0
C1990 C 0.73517 0.75228 0.7797 0.0
C1991 C 0.75116 0.75978 0.77162 0.0
C1992 C 0.76878 0.76086 0.79967 0.0
N1993 N 0.76554 0.76893 0.74534 0.0
C1994 C 0.75007 0.76211 0.75306 0.0
C1995 C 0.74864 0.76189 0.715 0.0
C1996 C 0.7326 0.7563 0.72297 0.0
C1997 C 0.76499 0.76766 0.72627 0.0
C1998 C 0.73316 0.75597 0.74208 0.0
H1999 H 0.71996 0.7514 0.7141 0.0
O2000 O 0.7991 0.75646 0.73861 0.0
O2001 O 0.8185 0.79599 0.76556 0.0
O2002 O 0.80446 0.82616 0.75553 0.0
O2003 O 0.79512 0.79304 0.74248 0.0
O2004 O 0.82099 0.76851 0.77026 0.0
O2005 O 0.78489 0.74198 0.75953 0.0
O2006 O 0.81261 0.84087 0.80914 0.0
O2007 O 0.79245 0.80096 0.78197 0.0
O2008 O 0.80554 0.77119 0.79232 0.0
O2009 O 0.81576 0.80427 0.80536 0.0
O2010 O 0.78929 0.82854 0.77856 0.0
O2011 O 0.82637 0.85508 0.7879 0.0
C2012 C 0.82955 0.78597 0.76922 0.0
C2013 C 0.71741 0.74869 0.75018 0.0
C2014 C 0.71839 0.74702 0.76897 0.0
C2015 C 0.79058 0.7401 0.7429 0.0
C2016 C 0.79646 0.72236 0.73603 0.0
C2017 C 0.79196 0.71368 0.71722 0.0
C2018 C 0.80491 0.7131 0.74822 0.0
C2019 C 0.80881 0.69504 0.74168 0.0
C2020 C 0.79579 0.69564 0.71066 0.0
C2021 C 0.80415 0.68628 0.72283 0.0
C2022 C 0.79774 0.81177 0.74141 0.0
C2023 C 0.78111 0.8108 0.77899 0.0
C2024 C 0.82086 0.85721 0.80462 0.0
C2025 C 0.8137 0.87433 0.81062 0.0
C2026 C 0.81905 0.88504 0.82869 0.0
C2027 C 0.80257 0.88077 0.79829 0.0
C2028 C 0.79715 0.89814 0.8039 0.0
C2029 C 0.81346 0.90235 0.8343 0.0
C2030 C 0.80257 0.90899 0.82188 0.0
C2031 C 0.81258 0.78549 0.80646 0.0
H2032 H 0.78517 0.72069 0.70772 0.0
H2033 H 0.80819 0.71977 0.76281 0.0
H2034 H 0.79225 0.68891 0.69615 0.0
H2035 H 0.80731 0.67243 0.71744 0.0
H2036 H 0.82775 0.88014 0.83832 0.0
H2037 H 0.79835 0.87249 0.78432 0.0
H2038 H 0.81766 0.91066 0.8482 0.0
H2039 H 0.79828 0.92245 0.82626 0.0
Gd2040 Gd 0.57413 0.55022 0.5283 0.0
Gd2041 Gd 0.52917 0.52945 0.50943 0.0
C2042 C 0.50726 0.4659 0.51597 0.0
C2043 C 0.50013 0.44954 0.48379 0.0
C2044 C 0.51443 0.48423 0.49103 0.0
C2045 C 0.51415 0.48372 0.50995 0.0
C2046 C 0.50704 0.46713 0.47778 0.0
C2047 C 0.50034 0.44891 0.50283 0.0
C2048 C 0.50739 0.46558 0.53506 0.0
C2049 C 0.51427 0.48267 0.54772 0.0
N2050 N 0.52042 0.50052 0.52245 0.0
C2051 C 0.52068 0.49998 0.54121 0.0
H2052 H 0.52654 0.51243 0.55161 0.0
C2053 C 0.51899 0.50272 0.46691 0.0
N2054 N 0.52101 0.50148 0.4855 0.0
C2055 C 0.51199 0.48619 0.45339 0.0
C2056 C 0.50615 0.46827 0.45882 0.0
H2057 H 0.52249 0.51658 0.46229 0.0
H2058 H 0.49491 0.43522 0.50726 0.0
H2059 H 0.57686 0.56804 0.48668 0.0
H2060 H 0.50234 0.45219 0.54018 0.0
H2061 H 0.51479 0.48254 0.56257 0.0
H2062 H 0.4944 0.43637 0.4738 0.0
H2063 H 0.58115 0.56164 0.57523 0.0
H2064 H 0.6021 0.62807 0.49914 0.0
H2065 H 0.58894 0.59825 0.47628 0.0
H2066 H 0.61097 0.64224 0.56561 0.0
H2067 H 0.51074 0.4874 0.43878 0.0
H2068 H 0.50046 0.45552 0.44831 0.0
H2069 H 0.61017 0.64425 0.5323 0.0
H2070 H 0.5936 0.59024 0.59941 0.0
N2071 N 0.58344 0.57936 0.51591 0.0
C2072 C 0.5969 0.61456 0.50399 0.0
C2073 C 0.5896 0.59776 0.49107 0.0
C2074 C 0.59727 0.61379 0.52302 0.0
C2075 C 0.59018 0.59583 0.52868 0.0
C2076 C 0.58299 0.5803 0.49722 0.0
N2077 N 0.58328 0.57749 0.55265 0.0
C2078 C 0.59013 0.59485 0.54751 0.0
C2079 C 0.59244 0.59185 0.58491 0.0
C2080 C 0.59872 0.60993 0.5799 0.0
C2081 C 0.58509 0.5757 0.57107 0.0
C2082 C 0.59785 0.61158 0.56105 0.0
H2083 H 0.60467 0.62239 0.59064 0.0
O2084 O 0.58962 0.53898 0.54804 0.0
O2085 O 0.55145 0.5243 0.52719 0.0
O2086 O 0.5251 0.54045 0.5398 0.0
O2087 O 0.55484 0.55325 0.55272 0.0
O2088 O 0.57512 0.51912 0.51748 0.0
O2089 O 0.60303 0.55303 0.5263 0.0
O2090 O 0.51335 0.53867 0.48828 0.0
O2091 O 0.55173 0.55552 0.51062 0.0
O2092 O 0.57805 0.53948 0.49776 0.0
O2093 O 0.54824 0.5274 0.48499 0.0
O2094 O 0.52761 0.56058 0.51936 0.0
O2095 O 0.50016 0.52518 0.51079 0.0
C2096 C 0.55943 0.51089 0.52144 0.0
C2097 C 0.60497 0.62932 0.55541 0.0
C2098 C 0.6046 0.63044 0.53645 0.0
C2099 C 0.60451 0.54368 0.5401 0.0
C2100 C 0.62188 0.54695 0.55107 0.0
C2101 C 0.62489 0.55606 0.56985 0.0
C2102 C 0.6352 0.53869 0.54269 0.0
C2103 C 0.65138 0.53892 0.55301 0.0
C2104 C 0.64126 0.55695 0.58008 0.0
C2105 C 0.65444 0.54833 0.57178 0.0
C2106 C 0.53691 0.549 0.5545 0.0
C2107 C 0.54359 0.56891 0.51616 0.0
C2108 C 0.49844 0.53253 0.49568 0.0
C2109 C 0.48101 0.53427 0.48786 0.0
C2110 C 0.47536 0.52734 0.46889 0.0
C2111 C 0.46998 0.54308 0.49947 0.0
C2112 C 0.4532 0.54489 0.49216 0.0
C2113 C 0.45843 0.52898 0.46162 0.0
C2114 C 0.4473 0.53771 0.47324 0.0
C2115 C 0.56608 0.53126 0.48313 0.0
H2116 H 0.61461 0.56209 0.57672 0.0
H2117 H 0.63271 0.53156 0.52817 0.0
H2118 H 0.64356 0.56389 0.59461 0.0
H2119 H 0.66674 0.54851 0.58018 0.0
H2120 H 0.48394 0.52053 0.45982 0.0
H2121 H 0.47447 0.54864 0.51412 0.0
H2122 H 0.45396 0.52353 0.44701 0.0
H2123 H 0.43423 0.53907 0.46748 0.0
Gd2124 Gd 0.03316 0.54629 0.03024 0.0
Gd2125 Gd 0.07934 0.54999 0.01616 0.0
C2126 C 0.11444 0.61173 0.0205 0.0
C2127 C 0.1185 0.61369 0.98807 0.0
C2128 C 0.10041 0.58421 0.99633 0.0
C2129 C 0.10365 0.59262 0.01507 0.0
C2130 C 0.10825 0.59456 0.9827 0.0
C2131 C 0.12155 0.62227 0.00692 0.0
C2132 C 0.11818 0.61965 0.03947 0.0
C2133 C 0.1116 0.60847 0.05258 0.0
N2134 N 0.09691 0.58196 0.02802 0.0
C2135 C 0.1012 0.58961 0.04664 0.0
H2136 H 0.09599 0.58193 0.0573 0.0
C2137 C 0.09006 0.55587 0.97349 0.0
N2138 N 0.0907 0.56555 0.99147 0.0
C2139 C 0.09729 0.56561 0.95953 0.0
C2140 C 0.1062 0.58514 0.96411 0.0
H2141 H 0.08382 0.54051 0.96982 0.0
H2142 H 0.1298 0.63693 0.01088 0.0
H2143 H 0.01741 0.52196 0.98749 0.0
H2144 H 0.12632 0.63426 0.04414 0.0
H2145 H 0.11444 0.61442 0.06734 0.0
H2146 H 0.12452 0.62182 0.97778 0.0
H2147 H 0.02754 0.55068 0.07589 0.0
H2148 H 0.98613 0.46582 0.99237 0.0
H2149 H 0.9986 0.4898 0.97273 0.0
H2150 H 0.986 0.46893 0.05853 0.0
H2151 H 0.09624 0.55793 0.94531 0.0
H2152 H 0.11204 0.59259 0.9533 0.0
H2153 H 0.98186 0.45799 0.02447 0.0
H2154 H 0.01342 0.53011 0.09781 0.0
N2155 N 0.01572 0.51609 0.01508 0.0
C2156 C 0.99433 0.47992 0.9989 0.0
C2157 C 1.0013 0.49343 0.98777 0.0
C2158 C 0.9976 0.48497 0.01835 0.0
C2159 C 0.00834 0.50352 0.02614 0.0
C2160 C 0.01198 0.51162 0.99616 0.0
N2161 N 0.02036 0.52797 0.05222 0.0
C2162 C 0.01078 0.50963 0.04531 0.0
C2163 C 0.01273 0.5241 0.08311 0.0
C2164 C 0.00377 0.50479 0.07638 0.0
C2165 C 0.02072 0.53567 0.07072 0.0
C2166 C 1.0024 0.49743 0.05722 0.0
H2167 H 0.99749 0.49589 0.08598 0.0
O2168 O 0.02079 0.56963 0.04219 0.0
O2169 O 0.05868 0.56676 0.02615 0.0
O2170 O 0.07935 0.55109 0.04672 0.0
O2171 O 0.04987 0.53725 0.05251 0.0
O2172 O 0.04761 0.57163 0.05159 0.0
O2173 O 0.00673 0.5489 0.01844 0.0
O2174 O 0.09099 0.52818 1.0001 0.0
O2175 O 0.05133 0.53046 0.01399 0.0
O2176 O 0.03555 0.5565 1.00292 0.0
O2177 O 0.0608 0.54763 0.99063 0.0
O2178 O 0.07308 0.51993 0.02313 0.0
O2179 O 0.10605 0.54639 0.02543 0.0
C2180 C 0.05978 0.57875 0.0413 0.0
C2181 C 0.99239 0.47859 0.04959 0.0
C2182 C 0.99001 0.47236 0.03019 0.0
C2183 C 0.00636 0.56433 0.03051 0.0
C2184 C 0.98918 0.56576 0.03851 0.0
C2185 C 0.98496 0.55832 0.05477 0.0
C2186 C 0.97772 0.57631 0.03087 0.0
C2187 C 0.9622 0.57954 0.03958 0.0
C2188 C 0.96982 0.56166 0.06359 0.0
C2189 C 0.95861 0.57229 0.05619 0.0
C2190 C 0.0675 0.54311 0.05734 0.0
C2191 C 0.05593 0.51572 0.01881 0.0
C2192 C 0.10559 0.532 0.01167 0.0
C2193 C 0.12256 0.52965 1.00383 0.0
C2194 C 0.12894 0.53895 0.98917 0.0
C2195 C 0.13176 0.51645 0.01026 0.0
C2196 C 0.14691 0.51214 1.00175 0.0
C2197 C 0.14404 0.53467 0.98068 0.0
C2198 C 0.15291 0.5212 0.98682 0.0
C2199 C 0.0461 0.55448 0.98936 0.0
H2200 H 0.99357 0.55033 0.06092 0.0
H2201 H 0.98097 0.58205 0.01827 0.0
H2202 H 0.9669 0.55622 0.07637 0.0
H2203 H 0.94723 0.57505 0.06368 0.0
H2204 H 0.12222 0.54931 0.98416 0.0
H2205 H 0.12684 0.50911 0.02152 0.0
H2206 H 0.14878 0.54168 0.96921 0.0
H2207 H 0.1645 0.51789 0.97999 0.0
C2208 C 0.0218 0.2221 0.96978 0.0
C2209 C 0.02112 0.22236 0.95047 0.0
C2210 C 0.02494 0.20582 0.97692 0.0
C2211 C 0.04432 0.16189 0.96541 0.0
H2212 H 0.01856 0.14514 0.00646 0.0
C2213 C 0.04626 0.08832 0.98989 0.0
C2214 C 0.04534 0.08736 0.00893 0.0
C2215 C 0.04489 0.10541 0.98317 0.0
C2216 C 0.02614 0.14975 0.99519 0.0
H2217 H 0.02323 0.20545 0.92355 0.0
H2218 H 0.02882 0.17704 0.93598 0.0
H2219 H 0.01246 0.17299 0.99383 0.0
H2220 H 0.04195 0.10342 0.03578 0.0
H2221 H 0.03988 0.13335 0.02425 0.0
H2222 H 0.058 0.13863 0.9668 0.0
C2223 C 0.02695 0.18951 0.94565 0.0
C2224 C 0.02257 0.16577 0.98787 0.0
C2225 C 0.02357 0.20576 0.93847 0.0
C2226 C 0.04315 0.10391 0.02111 0.0
C2227 C 0.04171 0.12098 0.01441 0.0
C2228 C 0.04792 0.14588 0.97278 0.0
C2229 C 0.02773 0.1893 0.96501 0.0
C2230 C 0.03155 0.17209 0.97281 0.0
C2231 C 0.04217 0.1219 0.99525 0.0
C2232 C 0.03886 0.13949 0.98776 0.0
H2233 H 0.01998 0.23459 0.97948 0.0
H2234 H 0.02558 0.2064 0.99188 0.0
H2235 H 0.05177 0.16646 0.95406 0.0
H2236 H 0.04724 0.07556 0.98005 0.0
H2237 H 0.04507 0.10532 0.96832 0.0
C2238 C 0.15099 0.81072 0.13513 0.0
C2239 C 0.13794 0.81966 0.14378 0.0
C2240 C 0.16685 0.80926 0.14545 0.0
C2241 C 0.1956 0.82923 0.19134 0.0
H2242 H 0.21414 0.78248 0.18003 0.0
C2243 C 0.25154 0.81383 0.24141 0.0
C2244 C 0.26404 0.80313 0.23428 0.0
C2245 C 0.23678 0.81606 0.23 0.0
C2246 C 0.20941 0.79581 0.18333 0.0
H2247 H 0.13182 0.83429 0.17027 0.0
H2248 H 0.15915 0.83185 0.18808 0.0
H2249 H 0.18804 0.78622 0.16102 0.0
H2250 H 0.27061 0.7867 0.20888 0.0
H2251 H 0.24536 0.79103 0.18892 0.0
H2252 H 0.21694 0.83893 0.21354 0.0
C2253 C 0.15736 0.82608 0.17327 0.0
C2254 C 0.19428 0.79797 0.17231 0.0
C2255 C 0.14152 0.82745 0.16298 0.0
C2256 C 0.26138 0.79503 0.21509 0.0
C2257 C 0.24664 0.79737 0.20359 0.0
C2258 C 0.21074 0.82712 0.20228 0.0
C2259 C 0.17029 0.81677 0.16479 0.0
C2260 C 0.18697 0.81468 0.17617 0.0
C2261 C 0.23396 0.80787 0.21083 0.0
C2262 C 0.21793 0.8103 0.19863 0.0
H2263 H 0.14875 0.80439 0.12043 0.0
H2264 H 0.17642 0.8022 0.1382 0.0
H2265 H 0.1908 0.84252 0.19471 0.0
H2266 H 0.25304 0.82061 0.25588 0.0
H2267 H 0.2274 0.82402 0.23644 0.0
C2268 C 0.5322 0.83801 0.47181 0.0
C2269 C 0.52492 0.83347 0.453 0.0
C2270 C 0.53483 0.85727 0.48187 0.0
C2271 C 0.53924 0.90774 0.47179 0.0
H2272 H 0.53043 0.92288 0.52329 0.0
C2273 C 0.53883 0.98735 0.49949 0.0
C2274 C 0.54825 0.99562 0.51701 0.0
C2275 C 0.5343 0.96706 0.49374 0.0
C2276 C 0.53299 0.91887 0.50888 0.0
H2277 H 0.51397 0.84565 0.43057 0.0
H2278 H 0.51709 0.87771 0.44803 0.0
H2279 H 0.52698 0.88821 0.51008 0.0
H2280 H 0.55994 0.98922 0.54241 0.0
H2281 H 0.55231 0.95388 0.53234 0.0
H2282 H 0.54519 0.93802 0.47032 0.0
C2283 C 0.52169 0.86703 0.45497 0.0
C2284 C 0.53111 0.89898 0.50136 0.0
C2285 C 0.51959 0.84831 0.44495 0.0
C2286 C 0.55236 0.98318 0.52895 0.0
C2287 C 0.54798 0.9629 0.52317 0.0
C2288 C 0.54097 0.9274 0.47919 0.0
C2289 C 0.52994 0.87213 0.47331 0.0
C2290 C 0.5338 0.89314 0.48253 0.0
C2291 C 0.53946 0.95457 0.5052 0.0
C2292 C 0.53755 0.93332 0.49772 0.0
H2293 H 0.53652 0.82699 0.47845 0.0
H2294 H 0.54119 0.86065 0.49604 0.0
H2295 H 0.54208 0.90397 0.45743 0.0
H2296 H 0.53597 0.99655 0.48977 0.0
H2297 H 0.52741 0.9612 0.47995 0.0
C2298 C 0.51649 0.31388 0.62907 0.0
C2299 C 0.53318 0.31095 0.63622 0.0
C2300 C 0.50164 0.31294 0.63985 0.0
C2301 C 0.48346 0.29128 0.67985 0.0
H2302 H 0.44961 0.3251 0.67896 0.0
C2303 C 0.42826 0.28844 0.73055 0.0
C2304 C 0.41039 0.2876 0.72349 0.0
C2305 C 0.44291 0.29355 0.72013 0.0
C2306 C 0.45884 0.31543 0.67925 0.0
H2307 H 0.54725 0.305 0.66056 0.0
H2308 H 0.52141 0.30324 0.67933 0.0
H2309 H 0.47594 0.32972 0.66072 0.0
H2310 H 0.39419 0.29283 0.70022 0.0
H2311 H 0.42 0.30206 0.68192 0.0
H2312 H 0.46648 0.27689 0.69818 0.0
C2313 C 0.51976 0.30626 0.66532 0.0
C2314 C 0.47398 0.31807 0.66878 0.0
C2315 C 0.53469 0.30746 0.65462 0.0
C2316 C 0.40776 0.29341 0.70614 0.0
C2317 C 0.42257 0.29861 0.69562 0.0
C2318 C 0.46842 0.28866 0.69026 0.0
C2319 C 0.50291 0.30874 0.65803 0.0
C2320 C 0.48663 0.30612 0.66906 0.0
C2321 C 0.4403 0.29802 0.70221 0.0
C2322 C 0.45595 0.3008 0.69034 0.0
H2323 H 0.5148 0.31664 0.61496 0.0
H2324 H 0.48896 0.31484 0.63365 0.0
H2325 H 0.49251 0.28141 0.68007 0.0
H2326 H 0.43084 0.28428 0.74393 0.0
H2327 H 0.45634 0.29345 0.72597 0.0
C2328 C 0.00661 0.80841 0.61786 0.0
C2329 C 0.01066 0.81405 0.63726 0.0
C2330 C 0.0094 0.82235 0.6063 0.0
C2331 C 0.03733 0.87034 0.60525 0.0
H2332 H 1.00295 0.87098 0.56401 0.0
C2333 C 0.04922 0.93056 0.56105 0.0
C2334 C 0.04684 0.92398 0.54165 0.0
C2335 C 0.04313 0.91784 0.57315 0.0
C2336 C 0.01268 0.87088 0.57544 0.0
H2337 H 0.02034 0.83876 0.65982 0.0
H2338 H 0.02511 0.86289 0.63966 0.0
H2339 H 0.9954 0.84677 0.58423 0.0
H2340 H 0.0356 0.8994 0.51962 0.0
H2341 H 0.0251 0.87702 0.54079 0.0
H2342 H 0.05473 0.89419 0.5964 0.0
C2343 C 0.01992 0.84774 0.6334 0.0
C2344 C 0.00838 0.85706 0.58693 0.0
C2345 C 0.01705 0.83389 0.64492 0.0
C2346 C 0.0378 0.90468 0.53454 0.0
C2347 C 0.03162 0.89199 0.54662 0.0
C2348 C 0.04162 0.88413 0.59378 0.0
C2349 C 0.01638 0.84206 0.61401 0.0
C2350 C 0.0207 0.85669 0.60189 0.0
C2351 C 0.03448 0.89838 0.56602 0.0
C2352 C 0.02937 0.88447 0.57873 0.0
H2353 H 1.00165 0.79323 0.61156 0.0
H2354 H 0.00667 0.81766 0.59133 0.0
H2355 H 0.04717 0.87011 0.61653 0.0
H2356 H 0.05617 0.9454 0.56687 0.0
H2357 H 0.04533 0.92315 0.58807 0.0
C2358 C 0.54709 0.81806 0.85319 0.0
C2359 C 0.55263 0.82518 0.87214 0.0
C2360 C 0.52949 0.81732 0.8462 0.0
C2361 C 0.48328 0.81445 0.85667 0.0
H2362 H 0.48143 0.84638 0.81856 0.0
C2363 C 0.42092 0.81301 0.80626 0.0
C2364 C 0.41944 0.83098 0.8015 0.0
C2365 C 0.43533 0.81204 0.81854 0.0
C2366 C 0.48171 0.83761 0.82936 0.0
H2367 H 0.54399 0.83508 0.89912 0.0
H2368 H 0.51276 0.83342 0.88685 0.0
H2369 H 0.51054 0.8436 0.83202 0.0
H2370 H 0.43035 0.8621 0.80702 0.0
H2371 H 0.4555 0.8605 0.82876 0.0
H2372 H 0.45419 0.80814 0.85362 0.0
C2373 C 0.52225 0.82898 0.87741 0.0
C2374 C 0.49835 0.83586 0.83685 0.0
C2375 C 0.54002 0.83008 0.88434 0.0
C2376 C 0.43159 0.8481 0.81023 0.0
C2377 C 0.44583 0.84716 0.82266 0.0
C2378 C 0.46646 0.816 0.84895 0.0
C2379 C 0.51706 0.82299 0.85825 0.0
C2380 C 0.49925 0.82431 0.85051 0.0
C2381 C 0.44827 0.82905 0.82622 0.0
C2382 C 0.46563 0.82774 0.83533 0.0
H2383 H 0.5564 0.81319 0.84376 0.0
H2384 H 0.52562 0.81252 0.83137 0.0
H2385 H 0.48383 0.8054 0.86719 0.0
H2386 H 0.41152 0.79964 0.7997 0.0
H2387 H 0.437 0.79791 0.82103 0.0
C2388 C 0.48439 0.19162 0.14253 0.0
C2389 C 0.49042 0.20857 0.13519 0.0
C2390 C 0.48815 0.17416 0.13398 0.0
C2391 C 0.52334 0.15872 0.11051 0.0
H2392 H 0.48939 0.11483 0.08025 0.0
C2393 C 0.54363 0.1118 0.04892 0.0
C2394 C 0.53718 0.09176 0.04711 0.0
C2395 C 0.53715 0.12413 0.06224 0.0
C2396 C 0.49894 0.1268 0.08901 0.0
H2397 H 0.50532 0.22117 0.11386 0.0
H2398 H 0.51122 0.19072 0.09865 0.0
H2399 H 0.47791 0.13961 0.1004 0.0
H2400 H 0.51943 0.0682 0.05693 0.0
H2401 H 0.50829 0.08988 0.08078 0.0
H2402 H 0.54437 0.14672 0.09842 0.0
C2403 C 0.50351 0.19079 0.11075 0.0
C2404 C 0.4924 0.14076 0.1005 0.0
C2405 C 0.4999 0.20804 0.11925 0.0
C2406 C 0.52432 0.08383 0.05837 0.0
C2407 C 0.51801 0.0961 0.07184 0.0
C2408 C 0.52987 0.14483 0.09907 0.0
C2409 C 0.49818 0.174 0.11844 0.0
C2410 C 0.50461 0.15701 0.1107 0.0
C2411 C 0.52444 0.11627 0.07385 0.0
C2412 C 0.51767 0.12921 0.0878 0.0
H2413 H 0.47745 0.19208 0.15512 0.0
H2414 H 0.48408 0.16112 0.13994 0.0
H2415 H 0.53283 0.17141 0.11832 0.0
H2416 H 0.55356 0.11782 0.04006 0.0
H2417 H 0.54195 0.13973 0.0634 0.0
C2418 C 0.15887 0.34858 0.35816 0.0
C2419 C 0.14809 0.33157 0.36238 0.0
C2420 C 0.17411 0.34757 0.34879 0.0
C2421 C 0.18266 0.31447 0.31167 0.0
H2422 H 0.23253 0.34351 0.31726 0.0
C2423 C 0.24026 0.28743 0.2863 0.0
C2424 C 0.2556 0.2996 0.28158 0.0
C2425 C 0.22458 0.29402 0.28891 0.0
C2426 C 0.2184 0.33594 0.31522 0.0
H2427 H 0.1455 0.30082 0.36262 0.0
H2428 H 0.17226 0.29888 0.34561 0.0
H2429 H 0.21314 0.34895 0.3424 0.0
H2430 H 0.26629 0.32784 0.27432 0.0
H2431 H 0.2394 0.34054 0.28157 0.0
H2432 H 0.18797 0.30092 0.28488 0.0
C2433 C 0.16888 0.31291 0.3496 0.0
C2434 C 0.20755 0.33869 0.32974 0.0
C2435 C 0.15371 0.31398 0.35925 0.0
C2436 C 0.25464 0.31824 0.27824 0.0
C2437 C 0.23923 0.32539 0.28202 0.0
C2438 C 0.19338 0.31191 0.2971 0.0
C2439 C 0.1784 0.32949 0.3434 0.0
C2440 C 0.18993 0.3273 0.32828 0.0
C2441 C 0.22445 0.31349 0.28824 0.0
C2442 C 0.21157 0.3219 0.29917 0.0
H2443 H 0.15471 0.36233 0.36083 0.0
H2444 H 0.18139 0.36046 0.34411 0.0
H2445 H 0.1688 0.30608 0.31015 0.0
H2446 H 0.24052 0.27358 0.28984 0.0
H2447 H 0.21347 0.28462 0.29402 0.0
C2448 C 0.95043 0.05767 0.20144 0.0
C2449 C 0.95989 0.06854 0.21845 0.0
C2450 C 0.95881 0.05598 0.18429 0.0
C2451 C 1.00146 0.07715 0.16048 0.0
H2452 H 0.98334 0.03168 0.12228 0.0
C2453 C 0.03833 0.06281 0.08997 0.0
C2454 C 0.02814 0.05179 0.07335 0.0
C2455 C 0.0306 0.06528 0.1075 0.0
C2456 C 0.98866 0.04475 0.13247 0.0
H2457 H 0.98628 0.08626 0.22965 0.0
H2458 H 1.00059 0.08357 0.20036 0.0
H2459 H 0.96929 0.03511 0.15142 0.0
H2460 H 1.00111 0.03478 0.06341 0.0
H2461 H 0.98803 0.03889 0.09305 0.0
H2462 H 0.02094 0.08668 0.14144 0.0
C2463 C 0.98652 0.07625 0.20003 0.0
C2464 C 0.98039 0.04676 0.14962 0.0
C2465 C 0.97819 0.07777 0.21718 0.0
C2466 C 0.0098 0.04342 0.07543 0.0
C2467 C 1.00217 0.04568 0.09287 0.0
C2468 C 0.00976 0.07512 0.14329 0.0
C2469 C 0.97718 0.06516 0.18297 0.0
C2470 C 0.98641 0.06306 0.16423 0.0
C2471 C 0.01224 0.05665 0.10957 0.0
C2472 C 0.00358 0.05888 0.12862 0.0
H2473 H 0.93644 0.05014 0.20137 0.0
H2474 H 0.95061 0.04745 0.17194 0.0
H2475 H 0.00681 0.09015 0.17076 0.0
H2476 H 0.05237 0.06973 0.08953 0.0
H2477 H 0.03928 0.07381 0.11957 0.0
C2478 C 0.27062 0.66781 0.45797 0.0
C2479 C 0.28394 0.67115 0.4729 0.0
C2480 C 0.2718 0.68053 0.44544 0.0
C2481 C 0.29975 0.72626 0.43433 0.0
H2482 H 0.28058 0.69915 0.38455 0.0
C2483 C 0.28575 0.76416 0.37515 0.0
C2484 C 0.28099 0.75276 0.35742 0.0
C2485 C 0.29314 0.75651 0.38931 0.0
C2486 C 0.28672 0.70689 0.39817 0.0
H2487 H 0.30859 0.69045 0.48707 0.0
H2488 H 0.31202 0.7114 0.46374 0.0
H2489 H 0.27717 0.68187 0.40993 0.0
H2490 H 0.28289 0.72641 0.33908 0.0
H2491 H 0.2971 0.71334 0.36356 0.0
H2492 H 0.31066 0.75087 0.42208 0.0
C2493 C 0.30007 0.69969 0.46221 0.0
C2494 C 0.28408 0.69709 0.41299 0.0
C2495 C 0.29834 0.68751 0.47537 0.0
C2496 C 0.28618 0.73506 0.35297 0.0
C2497 C 0.29415 0.72763 0.36701 0.0
C2498 C 0.30313 0.73588 0.4193 0.0
C2499 C 0.28703 0.69599 0.44682 0.0
C2500 C 0.29012 0.70676 0.43129 0.0
C2501 C 0.29597 0.73745 0.38564 0.0
C2502 C 0.29622 0.72644 0.40109 0.0
H2503 H 0.25925 0.65545 0.45591 0.0
H2504 H 0.26101 0.67779 0.43431 0.0
H2505 H 0.30448 0.73424 0.44827 0.0
H2506 H 0.28212 0.77815 0.37848 0.0
H2507 H 0.29456 0.76472 0.40334 0.0
C2508 C 0.67204 0.04127 0.68076 0.0
C2509 C 0.66543 0.03122 0.69484 0.0
C2510 C 0.66111 0.03928 0.66429 0.0
C2511 C 0.6189 0.01493 0.63617 0.0
H2512 H 0.61117 0.06747 0.6399 0.0
C2513 C 0.56633 0.03358 0.5867 0.0
C2514 C 0.57485 0.04839 0.57755 0.0
C2515 C 0.57485 0.03052 0.60309 0.0
C2516 C 0.61313 0.05272 0.6388 0.0
H2517 H 0.64391 0.00914 0.70205 0.0
H2518 H 0.62485 1.00557 0.6731 0.0
H2519 H 0.63477 0.06117 0.66047 0.0
H2520 H 0.59856 0.07191 0.57862 0.0
H2521 H 0.61306 0.06675 0.60662 0.0
H2522 H 0.59771 0.0067 0.61384 0.0
C2523 C 0.63825 0.01504 0.67481 0.0
C2524 C 0.62675 0.04919 0.6503 0.0
C2525 C 0.64905 0.01722 0.69137 0.0
C2526 C 0.59136 0.06069 0.58544 0.0
C2527 C 0.59973 0.05775 0.60164 0.0
C2528 C 0.60541 0.01854 0.62433 0.0
C2529 C 0.64373 0.02706 0.66185 0.0
C2530 C 0.62995 0.03039 0.64877 0.0
C2531 C 0.59183 0.04235 0.61034 0.0
C2532 C 0.60276 0.03757 0.62533 0.0
H2533 H 0.68471 0.05209 0.6832 0.0
H2534 H 0.66548 0.04861 0.65428 0.0
H2535 H 0.62103 1.00026 0.6352 0.0
H2536 H 0.5539 0.02351 0.58051 0.0
H2537 H 0.56862 0.01846 0.60959 0.0
C2538 C 0.30061 0.34621 0.972 0.0
C2539 C 0.3017 0.36647 0.97448 0.0
C2540 C 0.30035 0.3353 0.95398 0.0
C2541 C 0.31912 0.34185 0.91062 0.0
H2542 H 0.28007 0.30199 0.88209 0.0
C2543 C 0.30884 0.33049 0.83153 0.0
C2544 C 0.30505 0.31167 0.82084 0.0
C2545 C 0.30955 0.33332 0.85093 0.0
C2546 C 0.29126 0.31277 0.89003 0.0
H2547 H 0.30251 0.39071 0.95958 0.0
H2548 H 0.30248 0.37198 0.9289 0.0
H2549 H 0.27807 0.31356 0.91552 0.0
H2550 H 0.29857 0.28088 0.82212 0.0
H2551 H 0.29959 0.28585 0.85655 0.0
H2552 H 0.33199 0.3419 0.88526 0.0
C2553 C 0.30176 0.3645 0.94076 0.0
C2554 C 0.2901 0.31938 0.90911 0.0
C2555 C 0.30175 0.37524 0.95847 0.0
C2556 C 0.30199 0.29556 0.83007 0.0
C2557 C 0.30236 0.2984 0.84969 0.0
C2558 C 0.32029 0.33529 0.89173 0.0
C2559 C 0.30146 0.34456 0.93829 0.0
C2560 C 0.30381 0.33443 0.9194 0.0
C2561 C 0.30611 0.31737 0.8603 0.0
C2562 C 0.30614 0.32116 0.88103 0.0
H2563 H 0.30044 0.33893 0.98395 0.0
H2564 H 0.30006 0.31987 0.9524 0.0
H2565 H 0.32989 0.35342 0.91824 0.0
H2566 H 0.3109 0.34315 0.82476 0.0
H2567 H 0.31221 0.3481 0.85862 0.0
C2568 C 0.97658 0.06503 0.32952 0.0
C2569 C 0.96152 0.07397 0.32999 0.0
C2570 C 0.9861 0.0625 0.34625 0.0
C2571 C 0.99035 0.07784 0.40033 0.0
H2572 H 0.01473 0.03536 0.40097 0.0
C2573 C 0.01034 0.05566 0.47154 0.0
C2574 C 0.02637 0.04904 0.4751 0.0
C2575 C 0.00444 0.05876 0.45371 0.0
C2576 C 0.00814 0.04746 0.40123 0.0
H2577 H 0.9454 0.08728 0.3496 0.0
H2578 H 0.96144 0.08314 0.3778 0.0
H2579 H 1.00128 0.04074 0.3713 0.0
H2580 H 0.04853 0.04036 0.46101 0.0
H2581 H 0.03786 0.045 0.42959 0.0
H2582 H 0.99699 0.08451 0.43009 0.0
C2583 C 0.96637 0.07815 0.36468 0.0
C2584 C 1.00029 0.05063 0.38391 0.0
C2585 C 0.95689 0.08055 0.34811 0.0
C2586 C 0.0361 0.04533 0.45933 0.0
C2587 C 0.02988 0.04807 0.4411 0.0
C2588 C 0.99802 0.07459 0.4175 0.0
C2589 C 0.98119 0.06886 0.36443 0.0
C2590 C 0.99085 0.06578 0.38293 0.0
C2591 C 0.01394 0.05517 0.43786 0.0
C2592 C 0.00692 0.05914 0.41862 0.0
H2593 H 0.98067 0.05929 0.31615 0.0
H2594 H 0.99735 0.05538 0.34482 0.0
H2595 H 0.98405 0.09015 0.40088 0.0
H2596 H 1.0021 0.05877 0.48282 0.0
H2597 H 0.99203 0.06384 0.45239 0.0
C2598 C 0.2921 0.67476 0.59206 0.0
C2599 C 0.29193 0.68211 0.57538 0.0
C2600 C 0.28871 0.68594 0.60849 0.0
C2601 C 0.28915 0.73702 0.62805 0.0
H2602 H 0.26697 0.71398 0.66815 0.0
C2603 C 0.28276 0.78054 0.70082 0.0
C2604 C 0.29113 0.77298 0.71465 0.0
C2605 C 0.27929 0.76999 0.68262 0.0
C2606 C 0.27289 0.72054 0.65686 0.0
H2607 H 0.28669 0.70585 0.56218 0.0
H2608 H 0.27998 0.72475 0.59038 0.0
H2609 H 0.26739 0.6933 0.63809 0.0
H2610 H 0.30374 0.74979 0.72067 0.0
H2611 H 0.29766 0.7314 0.68909 0.0
H2612 H 0.29492 0.76417 0.64701 0.0
C2613 C 0.28375 0.71106 0.59123 0.0
C2614 C 0.27335 0.70874 0.63982 0.0
C2615 C 0.2877 0.70027 0.57509 0.0
C2616 C 0.29677 0.75548 0.71019 0.0
C2617 C 0.29323 0.74497 0.69224 0.0
C2618 C 0.28845 0.74882 0.64497 0.0
C2619 C 0.28455 0.70424 0.60816 0.0
C2620 C 0.28202 0.7168 0.62547 0.0
C2621 C 0.28414 0.75192 0.67847 0.0
C2622 C 0.2809 0.74052 0.65963 0.0
H2623 H 0.2949 0.66053 0.59237 0.0
H2624 H 0.28959 0.68038 0.6214 0.0
H2625 H 0.29616 0.74366 0.61737 0.0
H2626 H 0.27838 0.7941 0.70421 0.0
H2627 H 0.27253 0.77564 0.67195 0.0
C2628 C 0.65373 0.0517 0.79862 0.0
C2629 C 0.67043 0.04619 0.79905 0.0
C2630 C 0.64351 0.05075 0.81378 0.0
C2631 C 0.6347 0.03073 0.85575 0.0
H2632 H 0.62449 0.08129 0.8735 0.0
C2633 C 0.60673 0.06299 0.92551 0.0
C2634 C 0.59155 0.07044 0.92136 0.0
C2635 C 0.6156 0.0549 0.91101 0.0
C2636 C 0.62728 0.06711 0.86864 0.0
H2637 H 0.68896 0.03402 0.81487 0.0
H2638 H 0.67083 0.03235 0.84158 0.0
H2639 H 0.64176 0.0771 0.84657 0.0
H2640 H 0.57251 0.07376 0.89951 0.0
H2641 H 0.58802 0.05958 0.87412 0.0
H2642 H 0.61992 0.02088 0.87804 0.0
C2643 C 0.66584 0.03746 0.82951 0.0
C2644 C 0.63704 0.06471 0.85329 0.0
C2645 C 0.67622 0.03859 0.81437 0.0
C2646 C 0.58435 0.06823 0.90284 0.0
C2647 C 0.59308 0.06006 0.88844 0.0
C2648 C 0.62484 0.03316 0.87126 0.0
C2649 C 0.64975 0.04414 0.82949 0.0
C2650 C 0.64045 0.04643 0.84649 0.0
C2651 C 0.60916 0.05416 0.89244 0.0
C2652 C 0.62079 0.05129 0.87743 0.0
H2653 H 0.64892 0.05758 0.78697 0.0
H2654 H 0.63102 0.05586 0.81353 0.0
H2655 H 0.63736 0.01655 0.85066 0.0
H2656 H 0.61236 0.06462 0.93982 0.0
H2657 H 0.62814 0.0506 0.91423 0.0
C2658 C 0.29851 0.34744 0.08141 0.0
C2659 C 0.29977 0.36732 0.08109 0.0
C2660 C 0.29603 0.34013 0.09799 0.0
C2661 C 0.27986 0.3497 0.14458 0.0
H2662 H 0.31018 0.31516 0.15695 0.0
C2663 C 0.28493 0.32653 0.21716 0.0
C2664 C 0.28694 0.30747 0.21772 0.0
C2665 C 0.28496 0.33348 0.20027 0.0
C2666 C 0.30138 0.32452 0.1536 0.0
H2667 H 0.29893 0.39506 0.09784 0.0
H2668 H 0.29427 0.3822 0.12686 0.0
H2669 H 0.31325 0.3281 0.12809 0.0
H2670 H 0.29025 0.28067 0.20087 0.0
H2671 H 0.28988 0.2926 0.17145 0.0
H2672 H 0.26794 0.34604 0.17013 0.0
C2673 C 0.29533 0.37231 0.11425 0.0
C2674 C 0.30319 0.332 0.13706 0.0
C2675 C 0.29811 0.37969 0.09767 0.0
C2676 C 0.28843 0.29534 0.20094 0.0
C2677 C 0.28849 0.30229 0.18408 0.0
C2678 C 0.27797 0.34212 0.16113 0.0
C2679 C 0.29448 0.35247 0.11463 0.0
C2680 C 0.29246 0.34467 0.13233 0.0
C2681 C 0.28709 0.32156 0.18356 0.0
C2682 C 0.28871 0.32942 0.16583 0.0
H2683 H 0.29976 0.33752 0.06888 0.0
H2684 H 0.29526 0.32476 0.09777 0.0
H2685 H 0.27126 0.35927 0.14124 0.0
H2686 H 0.28377 0.33625 0.22986 0.0
H2687 H 0.28398 0.34843 0.20044 0.0
C2688 C 0.26485 0.95074 0.99655 0.0
C2689 C 0.28122 0.96324 0.0046 0.0
C2690 C 0.24851 0.95614 0.99974 0.0
C2691 C 0.2295 0.98531 0.03512 0.0
H2692 H 0.19416 0.98978 0.99634 0.0
C2693 C 0.18239 0.03628 0.04875 0.0
C2694 C 0.16379 0.02812 0.0448 0.0
C2695 C 0.19495 0.02586 0.04209 0.0
C2696 C 0.20382 0.98826 0.00723 0.0
H2697 H 0.29379 0.99075 0.02229 0.0
H2698 H 0.26532 1.00022 0.02798 0.0
H2699 H 0.21988 0.97524 0.98777 0.0
H2700 H 0.14372 1.00289 0.03016 0.0
H2701 H 0.16594 0.98489 0.01814 0.0
H2702 H 0.21401 0.99893 0.05453 0.0
C2703 C 0.26504 0.98643 0.01906 0.0
C2704 C 0.21839 0.97998 1.00237 0.0
C2705 C 0.28129 0.98117 0.01564 0.0
C2706 C 0.15799 0.00966 0.03332 0.0
C2707 C 0.17061 0.99931 0.02648 0.0
C2708 C 0.21506 0.99358 0.03994 0.0
C2709 C 0.24857 0.97383 0.01138 0.0
C2710 C 0.23162 0.97917 0.01629 0.0
C2711 C 0.18912 0.00719 0.03125 0.0
C2712 C 0.20253 0.99575 0.026 0.0
H2713 H 0.26474 0.93673 0.98811 0.0
H2714 H 0.23588 0.94628 0.99374 0.0
H2715 H 0.23943 0.98442 0.04605 0.0
H2716 H 0.18724 0.05063 0.05716 0.0
H2717 H 0.20926 0.03227 0.04562 0.0
C2718 C 0.74355 0.64682 1.00361 0.0
C2719 C 0.74543 0.66575 0.99961 0.0
C2720 C 0.72637 0.63453 1.00308 0.0
C2721 C 0.68084 0.63508 0.01357 0.0
H2722 H 0.66466 0.5854 0.98025 0.0
C2723 C 0.60694 0.59173 0.01041 0.0
C2724 C 0.60289 0.57121 0.00661 0.0
C2725 C 0.62429 0.60259 0.00882 0.0
C2726 C 0.66898 0.59905 0.98991 0.0
H2727 H 0.73064 0.68721 0.99357 0.0
H2728 H 0.70051 0.66611 0.99373 0.0
H2729 H 0.69495 0.60534 0.9789 0.0
H2730 H 0.61435 0.54621 0.99795 0.0
H2731 H 0.64473 0.56503 0.99561 0.0
H2732 H 0.65555 0.62874 0.02531 0.0
C2733 C 0.71243 0.66044 0.99622 0.0
C2734 C 0.68634 0.61054 0.989 0.0
C2735 C 0.72965 0.67249 0.99611 0.0
C2736 C 0.6168 0.56192 1.00087 0.0
C2737 C 0.63432 0.57283 0.99948 0.0
C2738 C 0.66369 0.62347 0.01477 0.0
C2739 C 0.7106 0.64128 0.99962 0.0
C2740 C 0.69234 0.6288 1.00065 0.0
C2741 C 0.63844 0.5934 1.00363 0.0
C2742 C 0.65727 0.60535 1.00277 0.0
H2743 H 0.75536 0.64167 0.00767 0.0
H2744 H 0.7254 0.62 0.00614 0.0
H2745 H 0.68524 0.64892 0.02297 0.0
H2746 H 0.59668 0.59957 0.01475 0.0
H2747 H 0.62651 0.61832 0.01164 0.0
C2748 C 0.69812 0.45444 0.28618 0.0
C2749 C 0.69619 0.46421 0.27089 0.0
C2750 C 0.70724 0.43866 0.28554 0.0
C2751 C 0.74018 0.41223 0.25729 0.0
H2752 H 0.73022 0.37614 0.29165 0.0
C2753 C 0.7784 0.34556 0.25499 0.0
C2754 C 0.77821 0.3344 0.26948 0.0
C2755 C 0.76914 0.36126 0.25532 0.0
C2756 C 0.73368 0.38599 0.28194 0.0
H2757 H 0.70401 0.46422 0.24282 0.0
H2758 H 0.71964 0.43713 0.24155 0.0
H2759 H 0.7134 0.40157 0.29144 0.0
H2760 H 0.76629 0.33147 0.29539 0.0
H2761 H 0.75083 0.35843 0.29635 0.0
H2762 H 0.7605 0.39674 0.24781 0.0
C2763 C 0.71373 0.44145 0.25427 0.0
C2764 C 0.7237 0.40105 0.28181 0.0
C2765 C 0.70429 0.45711 0.25484 0.0
C2766 C 0.7678 0.33986 0.28422 0.0
C2767 C 0.75841 0.35548 0.28452 0.0
C2768 C 0.75023 0.39721 0.25747 0.0
C2769 C 0.71569 0.43166 0.26968 0.0
C2770 C 0.72653 0.41485 0.26951 0.0
C2771 C 0.75848 0.36673 0.26995 0.0
C2772 C 0.74746 0.38342 0.26982 0.0
H2773 H 0.69278 0.45936 0.29912 0.0
H2774 H 0.70815 0.43243 0.29803 0.0
H2775 H 0.7435 0.42212 0.24757 0.0
H2776 H 0.78537 0.34175 0.24286 0.0
H2777 H 0.76996 0.36863 0.24345 0.0
C2778 C 0.87391 0.47223 0.53163 0.0
C2779 C 0.86994 0.45303 0.5219 0.0
C2780 C 0.89157 0.48108 0.53855 0.0
C2781 C 0.93863 0.47687 0.53977 0.0
H2782 H 0.94037 0.51051 0.50246 0.0
C2783 C 0.00459 0.50867 0.51813 0.0
C2784 C 0.00801 0.52848 0.52601 0.0
C2785 C 0.98699 0.49839 0.51335 0.0
C2786 C 0.93996 0.50102 0.51272 0.0
H2787 H 0.87999 0.42681 0.51441 0.0
H2788 H 0.91133 0.44272 0.52551 0.0
H2789 H 0.91158 0.49679 0.51348 0.0
H2790 H 0.99693 0.55388 0.53358 0.0
H2791 H 0.96561 0.53572 0.52538 0.0
H2792 H 0.96737 0.48191 0.53988 0.0
C2793 C 0.90085 0.45083 0.528 0.0
C2794 C 0.92372 0.49357 0.5192 0.0
C2795 C 0.88317 0.44198 0.52111 0.0
C2796 C 0.99416 0.53851 0.52767 0.0
C2797 C 0.9765 0.52824 0.52266 0.0
C2798 C 0.95508 0.48473 0.53364 0.0
C2799 C 0.90523 0.47075 0.53544 0.0
C2800 C 0.92295 0.48145 0.53259 0.0
C2801 C 0.97295 0.50797 0.51682 0.0
C2802 C 0.95567 0.49678 0.52009 0.0
H2803 H 0.86351 0.48051 0.53351 0.0
H2804 H 0.89488 0.49652 0.54434 0.0
H2805 H 0.93809 0.46721 0.54988 0.0
H2806 H 0.01539 0.50084 0.51695 0.0
H2807 H 0.98428 0.48273 0.50887 0.0
C2808 C 0.37616 0.08245 0.29552 0.0
C2809 C 0.3905 0.0862 0.30941 0.0
C2810 C 0.37071 0.09769 0.28921 0.0
C2811 C 0.3666 0.14591 0.30198 0.0
H2812 H 0.35537 0.13961 0.2484 0.0
C2813 C 0.32946 0.19146 0.25956 0.0
C2814 C 0.31521 0.17962 0.24695 0.0
C2815 C 0.34033 0.18303 0.27019 0.0
C2816 C 0.35861 0.1416 0.26336 0.0
H2817 H 0.41116 0.10817 0.32727 0.0
H2818 H 0.4011 0.13562 0.31633 0.0
H2819 H 0.37516 0.12078 0.26062 0.0
H2820 H 0.29984 0.15007 0.23698 0.0
H2821 H 0.31935 0.13525 0.25525 0.0
H2822 H 0.34936 0.16629 0.30456 0.0
C2823 C 0.39409 0.12078 0.31059 0.0
C2824 C 0.37001 0.13109 0.27029 0.0
C2825 C 0.39967 0.10531 0.31689 0.0
C2826 C 0.31109 0.1594 0.24619 0.0
C2827 C 0.32206 0.15098 0.25669 0.0
C2828 C 0.35531 0.15668 0.29498 0.0
C2829 C 0.37974 0.11689 0.29654 0.0
C2830 C 0.37324 0.13244 0.28963 0.0
C2831 C 0.33709 0.16277 0.26813 0.0
C2832 C 0.35066 0.15377 0.27571 0.0
H2833 H 0.36964 0.06771 0.28894 0.0
H2834 H 0.35946 0.09444 0.27848 0.0
H2835 H 0.36892 0.14692 0.31694 0.0
H2836 H 0.3329 0.20712 0.2604 0.0
H2837 H 0.35195 0.1922 0.27899 0.0
C2838 C 0.34436 0.16855 0.52411 0.0
C2839 C 0.34049 0.17397 0.507 0.0
C2840 C 0.35966 0.161 0.52717 0.0
C2841 C 0.39603 0.14156 0.50075 0.0
H2842 H 0.41022 0.13352 0.55025 0.0
C2843 C 0.45715 0.10821 0.52514 0.0
C2844 C 0.45101 0.09191 0.53364 0.0
C2845 C 0.44511 0.11946 0.52012 0.0
C2846 C 0.40647 0.13581 0.53635 0.0
H2847 H 0.34984 0.17677 0.47992 0.0
H2848 H 0.37745 0.16568 0.48571 0.0
H2849 H 0.38834 0.15306 0.54647 0.0
H2850 H 0.42703 0.07372 0.54178 0.0
H2851 H 0.40643 0.09372 0.53375 0.0
H2852 H 0.41541 0.12494 0.49119 0.0
C2853 C 0.3684 0.16595 0.49662 0.0
C2854 C 0.39356 0.14682 0.53401 0.0
C2855 C 0.35268 0.17278 0.49333 0.0
C2856 C 0.4324 0.0865 0.53586 0.0
C2857 C 0.42053 0.09786 0.53116 0.0
C2858 C 0.40946 0.13111 0.50325 0.0
C2859 C 0.37194 0.15922 0.51338 0.0
C2860 C 0.38753 0.14942 0.51608 0.0
C2861 C 0.42683 0.11468 0.52369 0.0
C2862 C 0.41439 0.12769 0.52101 0.0
H2863 H 0.33492 0.16899 0.53471 0.0
H2864 H 0.36113 0.15578 0.54015 0.0
H2865 H 0.39202 0.14271 0.4866 0.0
H2866 H 0.47137 0.11283 0.52322 0.0
H2867 H 0.45023 0.13238 0.5143 0.0
C2868 C 0.68753 0.58502 0.28199 0.0
C2869 C 0.69482 0.56843 0.277 0.0
C2870 C 0.69765 0.60427 0.28196 0.0
C2871 C 0.74174 0.63312 0.26582 0.0
H2872 H 0.72733 0.67722 0.29407 0.0
C2873 C 0.78436 0.71482 0.26927 0.0
C2874 C 0.77559 0.73058 0.27242 0.0
C2875 C 0.77525 0.69527 0.2701 0.0
C2876 C 0.73165 0.6653 0.28578 0.0
H2877 H 0.71867 0.55995 0.26671 0.0
H2878 H 0.73656 0.5929 0.26773 0.0
H2879 H 0.71093 0.64447 0.2952 0.0
H2880 H 0.74955 0.7368 0.27876 0.0
H2881 H 0.73408 0.70372 0.27983 0.0
H2882 H 0.76263 0.65415 0.25659 0.0
C2883 C 0.72288 0.59136 0.2717 0.0
C2884 C 0.72199 0.64602 0.28643 0.0
C2885 C 0.71264 0.5721 0.27153 0.0
C2886 C 0.75723 0.72559 0.27632 0.0
C2887 C 0.74818 0.7062 0.27711 0.0
C2888 C 0.75147 0.65245 0.26523 0.0
C2889 C 0.71569 0.60815 0.2768 0.0
C2890 C 0.72659 0.62923 0.27638 0.0
C2891 C 0.75684 0.69035 0.27411 0.0
C2892 C 0.74666 0.66919 0.27508 0.0
H2893 H 0.67375 0.58312 0.28581 0.0
H2894 H 0.6909 0.61609 0.28561 0.0
H2895 H 0.74607 0.62123 0.25752 0.0
H2896 H 0.79831 0.71749 0.26607 0.0
H2897 H 0.78287 0.68401 0.26778 0.0
C2898 C 0.89775 0.47417 0.79496 0.0
C2899 C 0.89134 0.49058 0.79212 0.0
C2900 C 0.88652 0.45579 0.78931 0.0
C2901 C 0.84589 0.42643 0.78571 0.0
H2902 H 0.85013 0.3992 0.73612 0.0
C2903 C 0.81369 0.34828 0.76727 0.0
C2904 C 0.82839 0.33919 0.76714 0.0
C2905 C 0.81597 0.36702 0.76353 0.0
C2906 C 0.84842 0.40698 0.74971 0.0
H2907 H 0.86923 0.50129 0.78046 0.0
H2908 H 0.84935 0.46903 0.77114 0.0
H2909 H 0.86753 0.43276 0.74659 0.0
H2910 H 0.85618 0.34113 0.76038 0.0
H2911 H 0.86022 0.3739 0.75385 0.0
H2912 H 0.82783 0.40051 0.78955 0.0
C2913 C 0.86279 0.47043 0.77787 0.0
C2914 C 0.8585 0.42581 0.75574 0.0
C2915 C 0.87401 0.48867 0.78333 0.0
C2916 C 0.84486 0.3482 0.76136 0.0
C2917 C 0.847 0.36669 0.75711 0.0
C2918 C 0.83575 0.4077 0.7797 0.0
C2919 C 0.86912 0.45407 0.78072 0.0
C2920 C 0.85763 0.43515 0.77395 0.0
C2921 C 0.83286 0.37652 0.75913 0.0
C2922 C 0.83761 0.39761 0.76199 0.0
H2923 H 0.91132 0.47562 0.8014 0.0
H2924 H 0.89141 0.44298 0.79137 0.0
H2925 H 0.84524 0.43369 0.79978 0.0
H2926 H 0.80053 0.34106 0.77049 0.0
H2927 H 0.80496 0.37451 0.76516 0.0
C2928 C 0.08146 0.86056 0.0703 0.0
C2929 C 0.08396 0.86025 0.08954 0.0
C2930 C 0.07938 0.87737 0.06381 0.0
C2931 C 0.08414 0.93085 0.07632 0.0
H2932 H 0.04638 0.92119 0.03551 0.0
C2933 C 0.05972 0.99392 0.04885 0.0
C2934 C 0.05713 0.99235 0.02938 0.0
C2935 C 0.06231 0.97797 0.05681 0.0
C2936 C 0.05707 0.92419 0.04678 0.0
H2937 H 0.08725 0.87803 0.11703 0.0
H2938 H 0.08365 0.90785 0.10563 0.0
H2939 H 0.05345 0.894 0.0485 0.0
H2940 H 0.05522 0.973 1.00295 0.0
H2941 H 0.05935 0.9449 0.01676 0.0
H2942 H 0.08771 0.96112 0.07451 0.0
C2943 C 0.08334 0.89481 0.09557 0.0
C2944 C 0.06118 0.90855 0.05426 0.0
C2945 C 0.08552 0.87778 0.10214 0.0
C2946 C 0.05682 0.97443 0.01801 0.0
C2947 C 0.05922 0.95838 0.02596 0.0
C2948 C 0.07999 0.94654 0.06884 0.0
C2949 C 0.07956 0.89457 0.07631 0.0
C2950 C 0.0749 0.9116 0.06902 0.0
C2951 C 0.06242 0.96005 0.04547 0.0
C2952 C 0.06646 0.94341 0.05388 0.0
H2953 H 0.08022 0.84745 0.06009 0.0
H2954 H 0.07709 0.87668 0.04889 0.0
H2955 H 0.09488 0.93377 0.08753 0.0
H2956 H 0.06042 0.00774 0.0579 0.0
H2957 H 0.0645 0.97976 0.07185 0.0
C2958 C 0.96075 0.28405 0.91031 0.0
C2959 C 0.97271 0.27226 0.90412 0.0
C2960 C 0.94544 0.28468 0.89867 0.0
C2961 C 0.91311 0.25705 0.85838 0.0
H2962 H 0.90501 0.30744 0.85145 0.0
C2963 C 0.84615 0.26895 0.82112 0.0
C2964 C 0.8485 0.28104 0.80758 0.0
C2965 C 0.86115 0.26696 0.83246 0.0
C2966 C 0.90703 0.29323 0.85321 0.0
H2967 H 0.97718 0.25083 0.88133 0.0
H2968 H 0.95019 0.25136 0.86131 0.0
H2969 H 0.93068 0.30557 0.87253 0.0
H2970 H 0.86846 0.30066 0.79549 0.0
H2971 H 0.89444 0.29794 0.81579 0.0
H2972 H 0.88902 0.24473 0.83955 0.0
C2973 C 0.95284 0.26053 0.87497 0.0
C2974 C 0.92176 0.29215 0.86538 0.0
C2975 C 0.96839 0.26028 0.88642 0.0
C2976 C 0.86619 0.29116 0.80573 0.0
C2977 C 0.88108 0.28967 0.81744 0.0
C2978 C 0.89803 0.25813 0.84663 0.0
C2979 C 0.94126 0.27298 0.88076 0.0
C2980 C 0.92517 0.27405 0.86807 0.0
C2981 C 0.87884 0.27753 0.831 0.0
C2982 C 0.89481 0.27625 0.84374 0.0
H2983 H 0.96357 0.29328 0.92394 0.0
H2984 H 0.93682 0.29433 0.90373 0.0
H2985 H 0.91517 0.24284 0.86011 0.0
H2986 H 0.83272 0.26094 0.82286 0.0
H2987 H 0.85885 0.25751 0.84272 0.0
C2988 C 0.58213 0.25625 0.57743 0.0
C2989 C 0.57615 0.25986 0.59528 0.0
C2990 C 0.57986 0.23716 0.5678 0.0
C2991 C 0.55573 0.18601 0.56896 0.0
H2992 H 0.59357 0.17247 0.53922 0.0
C2993 C 0.5621 0.10719 0.54966 0.0
C2994 C 0.56269 0.10027 0.53064 0.0
C2995 C 0.56487 0.12713 0.55631 0.0
C2996 C 0.58286 0.1761 0.54738 0.0
H2997 H 0.5643 0.24655 0.61762 0.0
H2998 H 0.56101 0.2132 0.60132 0.0
H2999 H 0.59536 0.20652 0.55289 0.0
H3000 H 0.56674 0.10843 0.50361 0.0
H3001 H 0.57211 0.14367 0.51539 0.0
H3002 H 0.54364 0.15549 0.564 0.0
C3003 C 0.56657 0.225 0.59421 0.0
C3004 C 0.58379 0.19562 0.55514 0.0
C3005 C 0.56861 0.24409 0.60369 0.0
C3006 C 0.56665 0.11359 0.51842 0.0
C3007 C 0.56965 0.13364 0.52513 0.0
C3008 C 0.55497 0.16655 0.56146 0.0
C3009 C 0.57211 0.22124 0.57609 0.0
C3010 C 0.5704 0.20078 0.56636 0.0
C3011 C 0.56817 0.14052 0.54404 0.0
C3012 C 0.56868 0.16137 0.5509 0.0
H3013 H 0.58864 0.26821 0.57096 0.0
H3014 H 0.58417 0.23494 0.55385 0.0
H3015 H 0.54486 0.18941 0.57697 0.0
H3016 H 0.55866 0.0971 0.55922 0.0
H3017 H 0.56384 0.13208 0.57098 0.0
C3018 C 0.56941 0.76627 0.39088 0.0
C3019 C 0.56818 0.77953 0.40698 0.0
C3020 C 0.58585 0.76688 0.38285 0.0
C3021 C 0.62963 0.80162 0.38049 0.0
H3022 H 0.64161 0.75617 0.3516 0.0
C3023 C 0.69427 0.80837 0.34072 0.0
C3024 C 0.69202 0.79815 0.32229 0.0
C3025 C 0.68072 0.80453 0.35288 0.0
C3026 C 0.63845 0.76905 0.35953 0.0
H3027 H 0.58332 0.80367 0.42752 0.0
H3028 H 0.61229 0.80449 0.41391 0.0
H3029 H 0.61559 0.75222 0.37 0.0
H3030 H 0.67405 0.77562 0.30225 0.0
H3031 H 0.65052 0.76863 0.32343 0.0
H3032 H 0.6524 0.81844 0.3699 0.0
C3033 C 0.60049 0.79365 0.40729 0.0
C3034 C 0.62344 0.76679 0.37011 0.0
C3035 C 0.58396 0.793 0.41533 0.0
C3036 C 0.67625 0.7835 0.31648 0.0
C3037 C 0.66277 0.77953 0.32866 0.0
C3038 C 0.64469 0.80385 0.37001 0.0
C3039 C 0.6016 0.78093 0.3906 0.0
C3040 C 0.6186 0.78307 0.38059 0.0
C3041 C 0.66457 0.79033 0.34691 0.0
C3042 C 0.64923 0.78764 0.35917 0.0
H3043 H 0.55738 0.75596 0.38396 0.0
H3044 H 0.5859 0.75697 0.36995 0.0
H3045 H 0.62629 0.8146 0.38797 0.0
H3046 H 0.70618 0.81992 0.34548 0.0
H3047 H 0.68275 0.81299 0.36686 0.0
C3048 C 0.10085 0.2808 0.43089 0.0
C3049 C 0.09707 0.27826 0.41146 0.0
C3050 C 0.09646 0.26514 0.44013 0.0
C3051 C 0.08748 0.21302 0.43685 0.0
H3052 H 0.05826 0.22321 0.47776 0.0
C3053 C 0.056 0.15581 0.48136 0.0
C3054 C 0.05586 0.16283 0.50053 0.0
C3055 C 0.06208 0.16864 0.46929 0.0
C3056 C 0.06659 0.22021 0.46654 0.0
H3057 H 0.08649 0.25721 0.3863 0.0
H3058 H 0.07905 0.22937 0.40271 0.0
H3059 H 0.06678 0.2476 0.45824 0.0
H3060 H 0.06314 0.1884 0.52227 0.0
H3061 H 0.07385 0.21076 0.5013 0.0
H3062 H 0.08758 0.18569 0.44553 0.0
C3063 C 0.08533 0.24366 0.41062 0.0
C3064 C 0.07134 0.2341 0.4553 0.0
C3065 C 0.08954 0.25952 0.4013 0.0
C3066 C 0.06267 0.18269 0.50751 0.0
C3067 C 0.0688 0.19546 0.4955 0.0
C3068 C 0.0828 0.19906 0.44825 0.0
C3069 C 0.08835 0.24655 0.43016 0.0
C3070 C 0.08207 0.23078 0.4406 0.0
C3071 C 0.0681 0.18866 0.47621 0.0
C3072 C 0.07258 0.20273 0.46342 0.0
H3073 H 0.10658 0.29505 0.43917 0.0
H3074 H 0.09904 0.26764 0.4552 0.0
H3075 H 0.09582 0.21027 0.42557 0.0
H3076 H 0.0508 0.14053 0.4756 0.0
H3077 H 0.06135 0.16301 0.45449 0.0
C3078 C 0.56068 0.2517 0.16537 0.0
C3079 C 0.55238 0.26679 0.17249 0.0
C3080 C 0.57799 0.2514 0.17257 0.0
C3081 C 0.61089 0.27289 0.21394 0.0
H3082 H 0.64356 0.24959 0.18324 0.0
C3083 C 0.6826 0.27506 0.2423 0.0
C3084 C 0.68438 0.25627 0.24414 0.0
C3085 C 0.66859 0.27749 0.23038 0.0
C3086 C 0.63455 0.25625 0.19183 0.0
H3087 H 0.55549 0.29357 0.19232 0.0
H3088 H 0.5863 0.2939 0.20413 0.0
H3089 H 0.6144 0.25227 0.16902 0.0
H3090 H 0.67443 0.22539 0.23405 0.0
H3091 H 0.64981 0.22965 0.21278 0.0
H3092 H 0.63128 0.27721 0.23661 0.0
C3093 C 0.57927 0.28184 0.1935 0.0
C3094 C 0.61781 0.25763 0.18382 0.0
C3095 C 0.56172 0.28182 0.18664 0.0
C3096 C 0.67295 0.23996 0.23294 0.0
C3097 C 0.65912 0.2424 0.22072 0.0
C3098 C 0.62773 0.27193 0.22179 0.0
C3099 C 0.58752 0.26648 0.18672 0.0
C3100 C 0.6057 0.26581 0.19485 0.0
C3101 C 0.65649 0.26115 0.21994 0.0
C3102 C 0.63956 0.26349 0.21084 0.0
H3103 H 0.55353 0.23971 0.15469 0.0
H3104 H 0.58364 0.23906 0.16735 0.0
H3105 H 0.60179 0.27873 0.22303 0.0
H3106 H 0.69149 0.28779 0.25076 0.0
H3107 H 0.66669 0.29205 0.2299 0.0
C3108 C 0.62209 0.89862 0.91011 0.0
C3109 C 0.61716 0.8797 0.91406 0.0
C3110 C 0.62333 0.91455 0.92422 0.0
C3111 C 0.5944 0.92032 0.95898 0.0
H3112 H 0.6185 0.97498 0.96705 0.0
C3113 C 0.56605 0.98104 0.99984 0.0
C3114 C 0.56645 0.99727 0.99122 0.0
C3115 C 0.57479 0.9667 0.99253 0.0
C3116 C 0.61173 0.95972 0.96486 0.0
H3117 H 0.61304 0.86247 0.9361 0.0
H3118 H 0.61492 0.89041 0.9607 0.0
H3119 H 0.63434 0.95039 0.95302 0.0
H3120 H 0.57511 0.01112 0.96788 0.0
H3121 H 0.5902 0.98563 0.95472 0.0
H3122 H 0.57146 0.92957 0.96978 0.0
C3123 C 0.61765 0.89288 0.94674 0.0
C3124 C 0.62082 0.94577 0.95712 0.0
C3125 C 0.61643 0.87694 0.93265 0.0
C3126 C 0.57473 0.99861 0.97466 0.0
C3127 C 0.58352 0.98428 0.96734 0.0
C3128 C 0.58535 0.93421 0.96665 0.0
C3129 C 0.61954 0.91154 0.94225 0.0
C3130 C 0.61209 0.92602 0.95395 0.0
C3131 C 0.58392 0.96852 0.97651 0.0
C3132 C 0.59388 0.95395 0.96936 0.0
H3133 H 0.62333 0.90108 0.8959 0.0
H3134 H 0.62493 0.92888 0.92049 0.0
H3135 H 0.58713 0.9052 0.95598 0.0
H3136 H 0.55919 0.97957 0.01231 0.0
H3137 H 0.57484 0.95448 0.99964 0.0
C3138 C 0.96031 0.75448 0.69965 0.0
C3139 C 0.96129 0.76622 0.68594 0.0
C3140 C 0.94431 0.74961 0.70777 0.0
C3141 C 0.89721 0.75334 0.70812 0.0
H3142 H 0.91325 0.78549 0.75697 0.0
C3143 C 0.84974 0.7922 0.7452 0.0
C3144 C 0.84755 0.78903 0.76344 0.0
C3145 C 0.86493 0.78868 0.73692 0.0
C3146 C 0.90861 0.77621 0.74355 0.0
H3147 H 0.94639 0.77959 0.66754 0.0
H3148 H 0.91815 0.77166 0.68231 0.0
H3149 H 0.93527 0.7734 0.73805 0.0
H3150 H 0.85933 0.78116 0.78801 0.0
H3151 H 0.88605 0.77439 0.77325 0.0
H3152 H 0.87058 0.7566 0.71344 0.0
C3153 C 0.9297 0.76624 0.68679 0.0
C3154 C 0.92107 0.76912 0.73284 0.0
C3155 C 0.94579 0.77113 0.67868 0.0
C3156 C 0.86115 0.78382 0.77394 0.0
C3157 C 0.87629 0.77999 0.76554 0.0
C3158 C 0.88469 0.76021 0.71894 0.0
C3159 C 0.92928 0.75643 0.70207 0.0
C3160 C 0.9155 0.75834 0.71482 0.0
C3161 C 0.87757 0.78123 0.74664 0.0
C3162 C 0.89051 0.7724 0.73632 0.0
H3163 H 0.97205 0.74961 0.70449 0.0
H3164 H 0.94405 0.74191 0.71945 0.0
H3165 H 0.89281 0.74508 0.6942 0.0
H3166 H 0.83901 0.79566 0.73681 0.0
H3167 H 0.866 0.79018 0.72244 0.0
C3168 C 0.15236 0.00776 0.83952 0.0
C3169 C 0.1463 0.01244 0.82241 0.0
C3170 C 0.14232 0.00854 0.85544 0.0
C3171 C 0.10306 0.02844 0.87721 0.0
H3172 H 0.11117 0.99751 0.91459 0.0
C3173 C 0.063 0.02866 0.94634 0.0
C3174 C 0.07219 0.0269 0.96326 0.0
C3175 C 0.07085 0.02646 0.92889 0.0
C3176 C 0.10873 1.00657 0.90457 0.0
H3177 H 0.12396 0.02185 0.80967 0.0
H3178 H 0.10648 0.02319 0.83717 0.0
H3179 H 0.12591 0.99425 0.88585 0.0
H3180 H 0.09722 0.02092 0.97403 0.0
H3181 H 0.11039 0.01654 0.94424 0.0
H3182 H 0.08558 0.04049 0.89607 0.0
C3183 C 0.11926 0.01881 0.83832 0.0
C3184 C 0.11741 1.0047 0.88771 0.0
C3185 C 0.12931 0.0178 0.82218 0.0
C3186 C 0.08944 0.02244 0.96165 0.0
C3187 C 0.09708 0.0198 0.94423 0.0
C3188 C 0.09426 0.03021 0.8941 0.0
C3189 C 0.12551 0.01429 0.85556 0.0
C3190 C 0.11511 0.01575 0.87352 0.0
C3191 C 0.08816 0.02191 0.92729 0.0
C3192 C 0.097 0.0195 0.90844 0.0
H3193 H 0.16528 1.00366 0.84079 0.0
H3194 H 0.14825 1.00511 0.86798 0.0
H3195 H 0.10066 0.03751 0.8672 0.0
H3196 H 0.04983 0.03227 0.94661 0.0
H3197 H 0.06316 0.02818 0.91656 0.0
C3198 C 0.81173 0.39515 0.55879 0.0
C3199 C 0.81455 0.41541 0.56013 0.0
C3200 C 0.81633 0.38728 0.57408 0.0
C3201 C 0.82039 0.39368 0.62339 0.0
H3202 H 0.84987 0.35531 0.61495 0.0
C3203 C 0.83994 0.34802 0.67732 0.0
C3204 C 0.83985 0.32865 0.66967 0.0
C3205 C 0.83652 0.36075 0.66566 0.0
C3206 C 0.84155 0.36593 0.61745 0.0
H3207 H 0.82401 0.44338 0.5785 0.0
H3208 H 0.83135 0.42928 0.60576 0.0
H3209 H 0.84624 0.3751 0.59135 0.0
H3210 H 0.83424 0.30649 0.64482 0.0
H3211 H 0.82772 0.3286 0.62433 0.0
H3212 H 0.81506 0.38383 0.6492 0.0
C3213 C 0.82575 0.41972 0.59271 0.0
C3214 C 0.83966 0.37733 0.60409 0.0
C3215 C 0.82141 0.42767 0.57725 0.0
C3216 C 0.83483 0.32159 0.6507 0.0
C3217 C 0.83117 0.33419 0.63911 0.0
C3218 C 0.8222 0.38215 0.63679 0.0
C3219 C 0.82356 0.39951 0.59101 0.0
C3220 C 0.82855 0.39074 0.60671 0.0
C3221 C 0.83284 0.35402 0.64637 0.0
C3222 C 0.83225 0.36772 0.63352 0.0
H3223 H 0.80685 0.38535 0.5457 0.0
H3224 H 0.81441 0.3716 0.57263 0.0
H3225 H 0.81175 0.40402 0.62552 0.0
H3226 H 0.84353 0.35348 0.69211 0.0
H3227 H 0.83772 0.37596 0.67152 0.0
C3228 C 0.43818 0.05726 0.37031 0.0
C3229 C 0.44084 0.04908 0.35215 0.0
C3230 C 0.45222 0.06098 0.3844 0.0
C3231 C 0.49062 0.04247 0.3968 0.0
H3232 H 0.50713 0.09148 0.43122 0.0
C3233 C 0.54579 0.05008 0.45367 0.0
C3234 C 0.5383 0.05269 0.4707 0.0
C3235 C 0.53741 0.05463 0.4381 0.0
C3236 C 0.50276 0.07791 0.42142 0.0
H3237 H 0.45989 0.03827 0.33426 0.0
H3238 H 0.48424 0.04473 0.35889 0.0
H3239 H 0.48338 0.08865 0.40595 0.0
H3240 H 0.51744 0.06327 0.48574 0.0
H3241 H 0.50266 0.0711 0.45847 0.0
H3242 H 0.50933 0.03141 0.41251 0.0
C3243 C 0.47146 0.04837 0.36217 0.0
C3244 C 0.48917 0.07623 0.40729 0.0
C3245 C 0.45758 0.04477 0.34815 0.0
C3246 C 0.52318 0.06095 0.47252 0.0
C3247 C 0.51498 0.06576 0.4571 0.0
C3248 C 0.50417 0.04416 0.4108 0.0
C3249 C 0.46879 0.05631 0.38032 0.0
C3250 C 0.48305 0.05845 0.39507 0.0
C3251 C 0.52172 0.062 0.43975 0.0
C3252 C 0.51017 0.06182 0.42321 0.0
H3253 H 0.42535 0.06075 0.37357 0.0
H3254 H 0.45003 0.06697 0.3985 0.0
H3255 H 0.48571 0.02854 0.38762 0.0
H3256 H 0.55741 0.04359 0.45217 0.0
H3257 H 0.54251 0.05144 0.42463 0.0
C3258 C 0.79862 0.70777 0.07791 0.0
C3259 C 0.79992 0.7197 0.06424 0.0
C3260 C 0.79888 0.71576 0.09682 0.0
C3261 C 0.78895 0.75814 0.12749 0.0
H3262 H 0.81399 0.73975 0.16643 0.0
C3263 C 0.79607 0.79392 0.20588 0.0
C3264 C 0.79565 0.78177 0.21927 0.0
C3265 C 0.7954 0.7863 0.18684 0.0
C3266 C 0.80667 0.74485 0.15576 0.0
H3267 H 0.80292 0.74952 0.05984 0.0
H3268 H 0.80324 0.76343 0.09279 0.0
H3269 H 0.81649 0.72717 0.13376 0.0
H3270 H 0.79437 0.75215 0.22335 0.0
H3271 H 0.79283 0.73866 0.19008 0.0
H3272 H 0.77909 0.77579 0.14949 0.0
C3273 C 0.80193 0.74786 0.08889 0.0
C3274 C 0.80817 0.73767 0.13699 0.0
C3275 C 0.80189 0.7399 0.06999 0.0
C3276 C 0.79414 0.76174 0.21326 0.0
C3277 C 0.7936 0.75411 0.19422 0.0
C3278 C 0.78741 0.76529 0.14627 0.0
C3279 C 0.80023 0.73587 0.10255 0.0
C3280 C 0.79925 0.74413 0.12258 0.0
C3281 C 0.79471 0.76637 0.18077 0.0
C3282 C 0.79615 0.75865 0.16069 0.0
H3283 H 0.79715 0.69218 0.07397 0.0
H3284 H 0.79744 0.70605 0.10691 0.0
H3285 H 0.78171 0.76329 0.11679 0.0
H3286 H 0.79773 0.8095 0.21024 0.0
H3287 H 0.79645 0.79625 0.17699 0.0
C3288 C 0.12561 1.00335 0.70575 0.0
C3289 C 0.14398 0.0124 0.71193 0.0
C3290 C 0.11689 1.00618 0.68879 0.0
C3291 C 0.12213 0.03978 0.65177 0.0
H3292 H 0.08214 1.00106 0.62356 0.0
C3293 C 0.09549 0.04692 0.57587 0.0
C3294 C 0.07709 0.04009 0.56878 0.0
C3295 C 0.10224 0.04398 0.59353 0.0
C3296 C 0.09316 0.01227 0.63121 0.0
H3297 H 0.16706 0.03193 0.70408 0.0
H3298 H 0.15227 0.03683 0.67512 0.0
H3299 H 0.09632 0.99494 0.65245 0.0
H3300 H 0.05165 0.02352 0.57544 0.0
H3301 H 0.06337 0.01804 0.60603 0.0
H3302 H 0.11907 0.05707 0.63062 0.0
C3303 C 0.14432 0.02743 0.68332 0.0
C3304 C 0.10147 0.00871 0.6481 0.0
C3305 C 0.15307 0.02441 0.70013 0.0
C3306 C 0.06574 0.02974 0.58035 0.0
C3307 C 0.07265 0.02632 0.59799 0.0
C3308 C 0.11391 0.04328 0.63494 0.0
C3309 C 0.1259 0.01852 0.67709 0.0
C3310 C 0.11638 0.0223 0.65886 0.0
C3311 C 0.09118 0.03335 0.6051 0.0
C3312 C 0.09928 0.02961 0.62398 0.0
H3313 H 0.1178 0.99408 0.71418 0.0
H3314 H 0.1028 0.99894 0.68513 0.0
H3315 H 0.13303 0.05116 0.65936 0.0
H3316 H 0.10497 0.05441 0.56745 0.0
H3317 H 0.11655 0.04953 0.59776 0.0
C3318 C 0.83059 0.41351 0.4423 0.0
C3319 C 0.82025 0.40926 0.45705 0.0
C3320 C 0.8317 0.39878 0.4278 0.0
C3321 C 0.82431 0.34547 0.41488 0.0
H3322 H 0.82614 0.35823 0.36519 0.0
C3323 C 0.80858 0.29663 0.34195 0.0
C3324 C 0.81957 0.30327 0.32846 0.0
C3325 C 0.81245 0.30565 0.36057 0.0
C3326 C 0.82598 0.3546 0.37908 0.0
H3327 H 0.80224 0.38654 0.46788 0.0
H3328 H 0.80329 0.36085 0.44173 0.0
H3329 H 0.82263 0.38267 0.39097 0.0
H3330 H 0.84513 0.32207 0.32428 0.0
H3331 H 0.85167 0.33785 0.35665 0.0
H3332 H 0.82652 0.31677 0.40227 0.0
C3333 C 0.81113 0.37545 0.44186 0.0
C3334 C 0.82393 0.36855 0.39381 0.0
C3335 C 0.81034 0.39017 0.45665 0.0
C3336 C 0.83601 0.31694 0.33423 0.0
C3337 C 0.83992 0.32588 0.35279 0.0
C3338 C 0.82602 0.33127 0.39992 0.0
C3339 C 0.82202 0.37962 0.42745 0.0
C3340 C 0.82331 0.36424 0.41189 0.0
C3341 C 0.82744 0.32128 0.3657 0.0
C3342 C 0.82712 0.33595 0.38204 0.0
H3343 H 0.83851 0.42804 0.44229 0.0
H3344 H 0.84049 0.40238 0.41708 0.0
H3345 H 0.82395 0.34183 0.42874 0.0
H3346 H 0.79646 0.28541 0.33806 0.0
H3347 H 0.80275 0.30182 0.37045 0.0
C3348 C 0.4241 0.03488 0.23464 0.0
C3349 C 0.43036 0.05034 0.24957 0.0
C3350 C 0.43263 0.03434 0.21819 0.0
C3351 C 0.47723 0.05447 0.20314 0.0
H3352 H 0.45499 0.02677 0.15436 0.0
C3353 C 0.51718 0.05083 0.13934 0.0
C3354 C 0.51763 0.03177 0.13121 0.0
C3355 C 0.50446 0.05406 0.15179 0.0
C3356 C 0.46126 0.03457 0.16793 0.0
H3357 H 0.44914 0.07808 0.25887 0.0
H3358 H 0.46318 0.07801 0.22963 0.0
H3359 H 0.4359 0.03224 0.17979 0.0
H3360 H 0.50476 1.00121 0.12856 0.0
H3361 H 0.48213 0.00693 0.15043 0.0
H3362 H 0.5025 0.05704 0.19118 0.0
C3363 C 0.45236 0.06579 0.23081 0.0
C3364 C 0.45042 0.03764 0.18249 0.0
C3365 C 0.4442 0.06601 0.24744 0.0
C3366 C 0.50472 0.01599 0.13499 0.0
C3367 C 0.49174 0.01926 0.14724 0.0
C3368 C 0.48795 0.05175 0.18855 0.0
C3369 C 0.44726 0.04952 0.21632 0.0
C3370 C 0.45832 0.04751 0.20032 0.0
C3371 C 0.49184 0.0383 0.15601 0.0
C3372 C 0.48008 0.04168 0.17092 0.0
H3373 H 0.41358 0.0225 0.23619 0.0
H3374 H 0.42848 0.02146 0.20749 0.0
H3375 H 0.48391 0.06154 0.21676 0.0
H3376 H 0.52699 0.06315 0.13642 0.0
H3377 H 0.50467 0.06885 0.15842 0.0
C3378 C 0.80541 0.70589 0.93965 0.0
C3379 C 0.80226 0.71509 0.95735 0.0
C3380 C 0.80816 0.71613 0.92503 0.0
C3381 C 0.82092 0.76374 0.91131 0.0
H3382 H 0.79324 0.73548 0.86506 0.0
C3383 C 0.8147 0.79339 0.8414 0.0
C3384 C 0.81548 0.78023 0.82502 0.0
C3385 C 0.81517 0.78755 0.8588 0.0
C3386 C 0.80118 0.74348 0.87781 0.0
H3387 H 0.80051 0.74278 0.97369 0.0
H3388 H 0.80536 0.76092 0.94765 0.0
H3389 H 0.78924 0.7222 0.89356 0.0
H3390 H 0.81819 0.75097 0.81411 0.0
H3391 H 0.81878 0.74071 0.84444 0.0
H3392 H 0.83278 0.78513 0.89521 0.0
C3393 C 0.80557 0.74559 0.94536 0.0
C3394 C 0.79884 0.73593 0.89416 0.0
C3395 C 0.80275 0.73521 0.96021 0.0
C3396 C 0.81745 0.76139 0.82645 0.0
C3397 C 0.81778 0.75552 0.8438 0.0
C3398 C 0.82319 0.77143 0.89482 0.0
C3399 C 0.80782 0.73593 0.92752 0.0
C3400 C 0.80899 0.74568 0.91099 0.0
C3401 C 0.81615 0.76838 0.86007 0.0
C3402 C 0.81362 0.76108 0.87786 0.0
H3403 H 0.80544 0.69052 0.93681 0.0
H3404 H 0.8103 0.70838 0.91158 0.0
H3405 H 0.82892 0.77153 0.92409 0.0
H3406 H 0.81268 0.80784 0.84074 0.0
H3407 H 0.81371 0.79768 0.87109 0.0
C3408 C 0.84016 0.1361 0.01479 0.0
C3409 C 0.82397 0.12213 0.01408 0.0
C3410 C 0.85671 0.13104 0.01761 0.0
C3411 C 0.87767 0.09522 0.03581 0.0
H3412 H 0.91181 0.10522 0.999 0.0
C3413 C 0.92394 0.04637 0.00897 0.0
C3414 C 0.94071 0.05476 1.00341 0.0
C3415 C 0.91302 0.05823 0.01698 0.0
C3416 C 0.90272 0.10285 0.00976 0.0
H3417 H 0.81204 0.09218 0.0159 0.0
H3418 H 0.84104 0.08329 0.02099 0.0
H3419 H 0.88519 0.11913 0.99901 0.0
H3420 H 0.96013 0.08167 1.00293 0.0
H3421 H 0.9407 0.10261 0.01653 0.0
H3422 H 0.89473 0.0779 0.04579 0.0
C3423 C 0.84094 0.0981 0.01938 0.0
C3424 C 0.88746 0.11072 0.00969 0.0
C3425 C 0.8244 0.10308 0.0162 0.0
C3426 C 0.94711 0.07504 0.0071 0.0
C3427 C 0.93609 0.08694 0.01488 0.0
C3428 C 0.89296 0.08731 0.03588 0.0
C3429 C 0.85718 0.11207 0.02012 0.0
C3430 C 0.87456 0.10641 0.0223 0.0
C3431 C 0.9187 0.07859 0.0192 0.0
C3432 C 0.90525 0.09055 0.02243 0.0
H3433 H 0.83999 0.15091 0.01319 0.0
H3434 H 0.86911 0.14197 0.01802 0.0
H3435 H 0.86792 0.09197 0.04581 0.0
H3436 H 0.91899 0.03069 0.00639 0.0
H3437 H 0.89959 0.05147 0.02005 0.0
C3438 C 0.36067 0.43685 0.04377 0.0
C3439 C 0.35691 0.41736 0.03452 0.0
C3440 C 0.37812 0.44879 0.04481 0.0
C3441 C 0.42361 0.45685 0.0529 0.0
H3442 H 0.43592 0.48272 0.01093 0.0
C3443 C 0.49744 0.49567 0.04207 0.0
C3444 C 0.49977 0.51366 0.03592 0.0
C3445 C 0.48001 0.48462 0.04343 0.0
C3446 C 0.43269 0.47577 0.02286 0.0
H3447 H 0.36891 0.39462 0.02063 0.0
H3448 H 0.39952 0.41548 0.02259 0.0
H3449 H 0.40582 0.46159 0.01045 0.0
H3450 H 0.48559 0.53393 0.02595 0.0
H3451 H 0.45517 0.5145 0.02788 0.0
H3452 H 0.45066 0.47054 0.06514 0.0
C3453 C 0.38877 0.42163 0.02849 0.0
C3454 C 0.41544 0.46365 0.02253 0.0
C3455 C 0.37128 0.40973 0.02737 0.0
C3456 C 0.48426 0.52036 0.03116 0.0
C3457 C 0.46682 0.50908 0.03205 0.0
C3458 C 0.44101 0.46876 0.05312 0.0
C3459 C 0.39231 0.44133 0.03706 0.0
C3460 C 0.41068 0.45414 0.03756 0.0
C3461 C 0.46442 0.49098 0.03809 0.0
C3462 C 0.44579 0.47846 0.03811 0.0
H3463 H 0.35008 0.44288 0.05019 0.0
H3464 H 0.38051 0.46389 0.05158 0.0
H3465 H 0.42028 0.44966 0.06466 0.0
H3466 H 0.50914 0.49003 0.04564 0.0
H3467 H 0.47875 0.47073 0.04802 0.0
C3468 C 0.4043 0.62432 0.76111 0.0
C3469 C 0.41044 0.62015 0.77847 0.0
C3470 C 0.39474 0.6396 0.75981 0.0
C3471 C 0.38114 0.68492 0.78885 0.0
H3472 H 0.34802 0.68068 0.74535 0.0
C3473 C 0.33379 0.74338 0.78407 0.0
C3474 C 0.32748 0.74669 0.76639 0.0
C3475 C 0.34365 0.7284 0.78597 0.0
C3476 C 0.35729 0.68264 0.75768 0.0
H3477 H 0.41038 0.62993 0.80813 0.0
H3478 H 0.39486 0.65642 0.806 0.0
H3479 H 0.36521 0.65574 0.74737 0.0
H3480 H 0.32741 0.73577 0.73696 0.0
H3481 H 0.34352 0.71014 0.74008 0.0
H3482 H 0.37316 0.71187 0.79915 0.0
C3483 C 0.39735 0.64797 0.79309 0.0
C3484 C 0.36744 0.66789 0.75885 0.0
C3485 C 0.40653 0.63248 0.79437 0.0
C3486 C 0.33149 0.73394 0.75092 0.0
C3487 C 0.34098 0.71887 0.75278 0.0
C3488 C 0.37099 0.69972 0.78766 0.0
C3489 C 0.39079 0.65198 0.77577 0.0
C3490 C 0.37979 0.66841 0.77447 0.0
C3491 C 0.34765 0.71556 0.77034 0.0
C3492 C 0.35866 0.6992 0.77199 0.0
H3493 H 0.40621 0.61518 0.74835 0.0
H3494 H 0.39037 0.64158 0.74601 0.0
H3495 H 0.39037 0.68675 0.8012 0.0
H3496 H 0.33165 0.75281 0.79655 0.0
H3497 H 0.34814 0.72698 0.79992 0.0
C3498 C 0.23341 0.61749 0.53062 0.0
C3499 C 0.23581 0.63461 0.52311 0.0
C3500 C 0.21624 0.60757 0.53273 0.0
C3501 C 0.17829 0.60008 0.54628 0.0
H3502 H 0.15002 0.57107 0.50067 0.0
C3503 C 0.10377 0.57102 0.53352 0.0
C3504 C 0.09712 0.5532 0.52166 0.0
C3505 C 0.12208 0.57718 0.53875 0.0
C3506 C 0.1581 0.57873 0.51347 0.0
H3507 H 0.2229 0.65583 0.51302 0.0
H3508 H 0.19199 0.6378 0.51646 0.0
H3509 H 0.17796 0.59472 0.49882 0.0
H3510 H 0.10344 0.52722 0.5063 0.0
H3511 H 0.13625 0.53857 0.51491 0.0
H3512 H 0.15796 0.58476 0.56095 0.0
C3513 C 0.20361 0.63225 0.52051 0.0
C3514 C 0.17365 0.59253 0.51238 0.0
C3515 C 0.22101 0.64239 0.51854 0.0
C3516 C 0.10862 0.54098 0.51566 0.0
C3517 C 0.12713 0.54727 0.52074 0.0
C3518 C 0.16256 0.58649 0.5474 0.0
C3519 C 0.20138 0.61485 0.52759 0.0
C3520 C 0.18368 0.60317 0.52877 0.0
C3521 C 0.13388 0.56577 0.53164 0.0
C3522 C 0.15242 0.57584 0.53098 0.0
H3523 H 0.24483 0.61166 0.53472 0.0
H3524 H 0.2145 0.59399 0.53801 0.0
H3525 H 0.18629 0.60814 0.55899 0.0
H3526 H 0.09499 0.58078 0.5378 0.0
H3527 H 0.12714 0.5917 0.54679 0.0
C3528 C 0.72828 1.00222 0.7394 0.0
C3529 C 0.71122 1.00329 0.74532 0.0
C3530 C 0.73347 0.98455 0.73691 0.0
C3531 C 0.72673 0.94682 0.76294 0.0
H3532 H 0.76261 0.92818 0.73345 0.0
C3533 C 0.76669 0.89715 0.78986 0.0
C3534 C 0.78537 0.90459 0.79106 0.0
C3535 C 0.7552 0.9041 0.7785 0.0
C3536 C 0.75245 0.93314 0.74164 0.0
H3537 H 0.68523 0.98693 0.75093 0.0
H3538 H 0.6945 0.9558 0.74704 0.0
H3539 H 0.74451 0.94892 0.72112 0.0
H3540 H 0.80721 0.92386 0.78093 0.0
H3541 H 0.78693 0.93655 0.76113 0.0
H3542 H 0.73541 0.93245 0.784 0.0
C3543 C 0.70381 0.96858 0.74428 0.0
C3544 C 0.74208 0.9448 0.73458 0.0
C3545 C 0.69857 0.98629 0.74663 0.0
C3546 C 0.7927 0.91825 0.78017 0.0
C3547 C 0.78118 0.92524 0.76876 0.0
C3548 C 0.73702 0.93526 0.76995 0.0
C3549 C 0.72166 0.96789 0.74056 0.0
C3550 C 0.72941 0.952 0.74538 0.0
C3551 C 0.76234 0.91856 0.7683 0.0
C3552 C 0.75014 0.92861 0.7595 0.0
H3553 H 0.73796 0.01519 0.73772 0.0
H3554 H 0.74731 0.9844 0.73404 0.0
H3555 H 0.71759 0.95284 0.77188 0.0
H3556 H 0.76101 0.8864 0.79813 0.0
H3557 H 0.74069 0.89874 0.77823 0.0
C3558 C 0.76548 0.93777 0.5322 0.0
C3559 C 0.76542 0.91799 0.53205 0.0
C3560 C 0.74947 0.94421 0.53209 0.0
C3561 C 0.70468 0.94153 0.54194 0.0
H3562 H 0.70035 0.9613 0.49568 0.0
C3563 C 0.64986 0.98243 0.51616 0.0
C3564 C 0.65812 0.99982 0.51034 0.0
C3565 C 0.66041 0.96986 0.52138 0.0
C3566 C 0.70124 0.95566 0.50857 0.0
H3567 H 0.74838 0.88974 0.53316 0.0
H3568 H 0.71981 0.9013 0.5328 0.0
H3569 H 0.72287 0.94226 0.50024 0.0
H3570 H 0.68382 0.01859 0.50715 0.0
H3571 H 0.7021 0.99663 0.516 0.0
H3572 H 0.68345 0.95596 0.55051 0.0
C3573 C 0.73259 0.91159 0.53299 0.0
C3574 C 0.714 0.94467 0.51111 0.0
C3575 C 0.74886 0.90502 0.53314 0.0
C3576 C 0.67708 1.00506 0.5111 0.0
C3577 C 0.68753 0.99256 0.51624 0.0
C3578 C 0.6917 0.95253 0.53933 0.0
C3579 C 0.73286 0.93115 0.53187 0.0
C3580 C 0.71627 0.93809 0.52802 0.0
C3581 C 0.67927 0.97457 0.52078 0.0
C3582 C 0.69044 0.96028 0.52286 0.0
H3583 H 0.7779 0.94833 0.53166 0.0
H3584 H 0.74999 0.95937 0.53133 0.0
H3585 H 0.70642 0.93677 0.55518 0.0
H3586 H 0.63524 0.97809 0.51574 0.0
H3587 H 0.65379 0.95605 0.52488 0.0
C3588 C 0.4171 0.50145 0.77909 0.0
C3589 C 0.41002 0.51592 0.772 0.0
C3590 C 0.40648 0.48232 0.77854 0.0
C3591 C 0.36234 0.44646 0.75585 0.0
H3592 H 0.37282 0.41717 0.79384 0.0
C3593 C 0.31649 0.36812 0.76131 0.0
C3594 C 0.32515 0.35408 0.76729 0.0
C3595 C 0.3261 0.38773 0.76146 0.0
C3596 C 0.36965 0.42486 0.78288 0.0
H3597 H 0.38608 0.52037 0.75733 0.0
H3598 H 0.36761 0.48754 0.75647 0.0
H3599 H 0.39031 0.4502 0.79492 0.0
H3600 H 0.35163 0.35081 0.7775 0.0
H3601 H 0.36762 0.38418 0.77851 0.0
H3602 H 0.34146 0.42102 0.744 0.0
C3603 C 0.38141 0.49086 0.7628 0.0
C3604 C 0.37991 0.44415 0.78348 0.0
C3605 C 0.39203 0.51005 0.76351 0.0
C3606 C 0.34391 0.36075 0.77321 0.0
C3607 C 0.35332 0.38029 0.77377 0.0
C3608 C 0.35198 0.42715 0.75532 0.0
C3609 C 0.38825 0.47642 0.77044 0.0
C3610 C 0.37671 0.45553 0.76991 0.0
C3611 C 0.34477 0.39444 0.76797 0.0
C3612 C 0.35543 0.41571 0.76875 0.0
H3613 H 0.43095 0.50501 0.78537 0.0
H3614 H 0.41283 0.47204 0.78428 0.0
H3615 H 0.35922 0.4541 0.74486 0.0
H3616 H 0.30226 0.36396 0.75637 0.0
H3617 H 0.31871 0.39777 0.75675 0.0
C3618 C 0.21427 0.61824 0.2577 0.0
C3619 C 0.21588 0.59982 0.24908 0.0
C3620 C 0.22794 0.63435 0.25671 0.0
C3621 C 0.26768 0.65655 0.26514 0.0
H3622 H 0.27609 0.68195 0.22245 0.0
C3623 C 0.30656 0.73394 0.27484 0.0
C3624 C 0.29242 0.74347 0.27265 0.0
C3625 C 0.30418 0.71439 0.26678 0.0
C3626 C 0.27469 0.67438 0.23416 0.0
H3627 H 0.23145 0.58338 0.23137 0.0
H3628 H 0.2555 0.61172 0.22975 0.0
H3629 H 0.25499 0.65018 0.21852 0.0
H3630 H 0.26466 0.74071 0.26193 0.0
H3631 H 0.26034 0.7065 0.248 0.0
H3632 H 0.28651 0.68081 0.28106 0.0
C3633 C 0.24394 0.61366 0.23734 0.0
C3634 C 0.26238 0.65653 0.23201 0.0
C3635 C 0.23041 0.59761 0.23847 0.0
C3636 C 0.27578 0.73347 0.26321 0.0
C3637 C 0.27348 0.71417 0.25499 0.0
C3638 C 0.28057 0.67375 0.26713 0.0
C3639 C 0.2429 0.63194 0.24679 0.0
C3640 C 0.25818 0.64825 0.24779 0.0
C3641 C 0.28768 0.70457 0.25662 0.0
C3642 C 0.28304 0.68349 0.25199 0.0
H3643 H 0.20291 0.62002 0.26566 0.0
H3644 H 0.2271 0.64858 0.26399 0.0
H3645 H 0.26402 0.65066 0.27742 0.0
H3646 H 0.31935 0.74152 0.28258 0.0
H3647 H 0.31492 0.70682 0.26882 0.0
C3648 C 0.52994 0.7248 0.46924 0.0
C3649 C 0.52273 0.72314 0.45066 0.0
C3650 C 0.53288 0.70843 0.47635 0.0
C3651 C 0.52021 0.65379 0.46723 0.0
H3652 H 0.56196 0.65909 0.50252 0.0
C3653 C 0.54082 0.58635 0.48941 0.0
C3654 C 0.54542 0.58724 0.50852 0.0
C3655 C 0.53898 0.60312 0.48244 0.0
C3656 C 0.55015 0.65736 0.49279 0.0
H3657 H 0.51285 0.70264 0.42506 0.0
H3658 H 0.51805 0.67408 0.43732 0.0
H3659 H 0.55662 0.6875 0.49022 0.0
H3660 H 0.55184 0.6064 0.5353 0.0
H3661 H 0.5493 0.63597 0.52308 0.0
H3662 H 0.51386 0.6236 0.46972 0.0
C3663 C 0.52132 0.68808 0.44654 0.0
C3664 C 0.54702 0.67372 0.48573 0.0
C3665 C 0.51843 0.70452 0.43941 0.0
C3666 C 0.54862 0.60538 0.52046 0.0
C3667 C 0.5471 0.62229 0.51342 0.0
C3668 C 0.5234 0.63743 0.4742 0.0
C3669 C 0.52867 0.68976 0.46513 0.0
C3670 C 0.53201 0.67223 0.47278 0.0
C3671 C 0.54179 0.62132 0.49437 0.0
C3672 C 0.53846 0.63892 0.48703 0.0
H3673 H 0.53342 0.73885 0.47839 0.0
H3674 H 0.53826 0.71044 0.49078 0.0
H3675 H 0.50828 0.65198 0.45767 0.0
H3676 H 0.53795 0.57248 0.47996 0.0
H3677 H 0.53508 0.60178 0.46768 0.0
C3678 C 0.65428 0.32647 0.64031 0.0
C3679 C 0.63692 0.31889 0.64545 0.0
C3680 C 0.67012 0.32491 0.65073 0.0
C3681 C 0.68598 0.29602 0.68502 0.0
H3682 H 0.72869 0.33824 0.69526 0.0
C3683 C 0.74507 0.29706 0.74049 0.0
C3684 C 0.76303 0.30301 0.73613 0.0
C3685 C 0.73028 0.299 0.72889 0.0
C3686 C 0.71696 0.32619 0.69241 0.0
H3687 H 0.62281 0.30312 0.66523 0.0
H3688 H 0.64996 0.29998 0.68289 0.0
H3689 H 0.70229 0.34149 0.67601 0.0
H3690 H 0.77936 0.31612 0.71617 0.0
H3691 H 0.75364 0.32021 0.69628 0.0
H3692 H 0.70051 0.28082 0.70156 0.0
C3693 C 0.6516 0.30742 0.67106 0.0
C3694 C 0.70174 0.32804 0.68127 0.0
C3695 C 0.63591 0.3094 0.66099 0.0
C3696 C 0.76574 0.3113 0.71995 0.0
C3697 C 0.75094 0.31373 0.70857 0.0
C3698 C 0.70112 0.29423 0.6962 0.0
C3699 C 0.66907 0.31519 0.66625 0.0
C3700 C 0.68586 0.31304 0.67747 0.0
C3701 C 0.7329 0.30741 0.71271 0.0
C3702 C 0.71687 0.30931 0.70024 0.0
H3703 H 0.65562 0.33381 0.6284 0.0
H3704 H 0.6832 0.33104 0.64639 0.0
H3705 H 0.67434 0.28388 0.6822 0.0
H3706 H 0.7424 0.29048 0.75274 0.0
H3707 H 0.71672 0.29407 0.73275 0.0
C3708 C 0.01926 0.33705 0.96711 0.0
C3709 C 0.03145 0.33235 0.95421 0.0
C3710 C 0.02105 0.35639 0.97623 0.0
C3711 C 0.04234 0.40675 0.96947 0.0
H3712 H 0.02549 0.42248 0.0175 0.0
C3713 C 0.04198 0.48723 0.99399 0.0
C3714 C 0.04665 0.49504 0.01297 0.0
C3715 C 0.03762 0.46702 0.98783 0.0
C3716 C 0.03041 0.41842 1.00411 0.0
H3717 H 0.05598 0.34378 0.94211 0.0
H3718 H 0.05981 0.37698 0.95873 0.0
H3719 H 0.02491 0.38817 0.00647 0.0
H3720 H 0.05093 0.48795 0.04036 0.0
H3721 H 0.04405 0.45277 0.02971 0.0
H3722 H 0.04878 0.43681 0.96736 0.0
C3723 C 0.04827 0.36615 0.96118 0.0
C3724 C 0.02988 0.39861 0.99766 0.0
C3725 C 0.04625 0.347 0.9518 0.0
C3726 C 0.04676 0.48224 0.0257 0.0
C3727 C 0.04279 0.46202 0.01954 0.0
C3728 C 0.04312 0.42646 0.97598 0.0
C3729 C 0.03525 0.37138 0.97286 0.0
C3730 C 0.03592 0.39247 0.98024 0.0
C3731 C 0.03868 0.45407 1.00039 0.0
C3732 C 0.03712 0.43271 0.99338 0.0
H3733 H 0.00762 0.32609 0.96914 0.0
H3734 H 0.01073 0.3597 0.98509 0.0
H3735 H 0.04671 0.40277 0.95578 0.0
H3736 H 0.04253 0.49677 0.98377 0.0
H3737 H 0.03408 0.46164 0.97305 0.0
C3738 C 0.01731 0.81531 0.12835 0.0
C3739 C 0.03374 0.8115 0.13512 0.0
C3740 C 1.00246 0.81425 0.13915 0.0
C3741 C 0.98357 0.79058 0.17773 0.0
H3742 H 0.9512 0.82621 0.17974 0.0
C3743 C 0.92947 0.78743 0.22956 0.0
C3744 C 0.9116 0.78722 0.22298 0.0
C3745 C 0.94399 0.79255 0.21898 0.0
C3746 C 0.96001 0.81603 0.17918 0.0
H3747 H 0.04737 0.80381 0.1588 0.0
H3748 H 0.02156 0.80183 0.17756 0.0
H3749 H 0.97743 0.83104 0.16133 0.0
H3750 H 0.89533 0.79377 0.20048 0.0
H3751 H 0.92093 0.80308 0.18194 0.0
H3752 H 0.96631 0.77552 0.19543 0.0
C3753 C 0.0201 0.80565 0.16385 0.0
C3754 C 0.97508 0.8188 0.16863 0.0
C3755 C 0.03502 0.80699 0.15316 0.0
C3756 C 0.90889 0.79376 0.20601 0.0
C3757 C 0.92357 0.79901 0.19535 0.0
C3758 C 0.96861 0.78785 0.18823 0.0
C3759 C 0.00349 0.80901 0.15693 0.0
C3760 C 0.98721 0.80621 0.16791 0.0
C3761 C 0.94124 0.79776 0.20142 0.0
C3762 C 0.9567 0.80063 0.18935 0.0
H3763 H 0.01581 0.81886 0.11453 0.0
H3764 H 0.98995 0.81687 0.13327 0.0
H3765 H 0.99221 0.78023 0.17715 0.0
H3766 H 0.93218 0.78288 0.24272 0.0
H3767 H 0.95741 0.79194 0.22442 0.0
C3768 C 0.4883 0.31156 0.11406 0.0
C3769 C 0.50019 0.30564 0.12626 0.0
C3770 C 0.49423 0.32814 0.10631 0.0
C3771 C 0.5353 0.35515 0.09204 0.0
H3772 H 0.50815 0.39483 0.08748 0.0
C3773 C 0.56276 0.41805 0.05453 0.0
C3774 C 0.5502 0.42339 0.04273 0.0
C3775 C 0.55679 0.40584 0.0671 0.0
C3776 C 0.51581 0.38377 0.08851 0.0
H3777 H 0.52738 0.31277 0.14044 0.0
H3778 H 0.53768 0.34162 0.12675 0.0
H3779 H 0.49694 0.36923 0.10527 0.0
H3780 H 0.52175 0.42098 0.03492 0.0
H3781 H 0.51117 0.39872 0.05617 0.0
H3782 H 0.55372 0.36888 0.07468 0.0
C3783 C 0.52382 0.33342 0.12324 0.0
C3784 C 0.50942 0.36922 0.09874 0.0
C3785 C 0.51787 0.31699 0.13113 0.0
C3786 C 0.53161 0.41682 0.04389 0.0
C3787 C 0.5256 0.40429 0.05619 0.0
C3788 C 0.54156 0.36949 0.08164 0.0
C3789 C 0.51215 0.33889 0.11051 0.0
C3790 C 0.51913 0.35482 0.10052 0.0
C3791 C 0.53815 0.39848 0.06777 0.0
C3792 C 0.53186 0.38393 0.07969 0.0
H3793 H 0.47459 0.30311 0.11012 0.0
H3794 H 0.48505 0.33206 0.0964 0.0
H3795 H 0.54283 0.34395 0.09296 0.0
H3796 H 0.57718 0.4234 0.05409 0.0
H3797 H 0.56679 0.40205 0.07618 0.0
C3798 C 0.04891 0.31747 0.35456 0.0
C3799 C 0.05536 0.32931 0.37193 0.0
C3800 C 0.03131 0.31616 0.34707 0.0
C3801 C 0.99964 0.34048 0.33903 0.0
H3802 H 0.95828 0.30164 0.348 0.0
C3803 C 0.93059 0.34706 0.31459 0.0
C3804 C 0.92084 0.33035 0.30264 0.0
C3805 C 0.94467 0.34567 0.32698 0.0
C3806 C 0.96975 0.31252 0.34544 0.0
H3807 H 0.04887 0.34843 0.3955 0.0
H3808 H 0.01792 0.34639 0.38214 0.0
H3809 H 0.989 0.30077 0.36018 0.0
H3810 H 0.91629 0.29895 0.29523 0.0
H3811 H 0.94172 0.29659 0.31627 0.0
H3812 H 0.98093 0.35212 0.324 0.0
C3813 C 0.02651 0.3382 0.37447 0.0
C3814 C 0.98715 0.31196 0.35229 0.0
C3815 C 0.04405 0.33944 0.38198 0.0
C3816 C 0.92409 0.31202 0.30421 0.0
C3817 C 0.9384 0.31065 0.31637 0.0
C3818 C 0.98239 0.34103 0.33216 0.0
C3819 C 0.02011 0.32647 0.3571 0.0
C3820 C 1.00204 0.32601 0.34909 0.0
C3821 C 0.94937 0.32765 0.32708 0.0
C3822 C 0.96729 0.32722 0.33547 0.0
H3823 H 0.05741 0.30915 0.34691 0.0
H3824 H 0.02646 0.30723 0.33352 0.0
H3825 H 0.01109 0.35141 0.3366 0.0
H3826 H 0.92777 0.3612 0.31383 0.0
H3827 H 0.95268 0.35888 0.33556 0.0
C3828 C 0.97896 0.69597 0.62167 0.0
C3829 C 0.98813 0.70411 0.63931 0.0
C3830 C 0.98205 0.67857 0.61222 0.0
C3831 C 0.01935 0.66622 0.60117 0.0
H3832 H 0.9996 0.61069 0.58709 0.0
C3833 C 0.05508 0.61078 0.56027 0.0
C3834 C 0.04368 0.5967 0.54661 0.0
C3835 C 0.04783 0.62419 0.5718 0.0
C3836 C 0.00514 0.62623 0.5909 0.0
H3837 H 0.00531 0.69927 0.66221 0.0
H3838 H 0.01116 0.66931 0.64529 0.0
H3839 H 0.98435 0.6304 0.60891 0.0
H3840 H 0.01621 0.58645 0.53317 0.0
H3841 H 0.00383 0.61015 0.55278 0.0
H3842 H 0.03993 0.66227 0.58294 0.0
C3843 C 1.00148 0.67616 0.63896 0.0
C3844 C 0.99651 0.63731 0.60334 0.0
C3845 C 0.99814 0.69332 0.64854 0.0
C3846 C 0.02537 0.59721 0.54351 0.0
C3847 C 0.01819 0.61056 0.55491 0.0
C3848 C 0.02796 0.65517 0.58871 0.0
C3849 C 0.99435 0.66951 0.62041 0.0
C3850 C 0.00356 0.65731 0.60833 0.0
C3851 C 0.02918 0.62351 0.56961 0.0
C3852 C 0.02075 0.63517 0.58334 0.0
H3853 H 0.97101 0.70398 0.61445 0.0
H3854 H 0.97654 0.67346 0.5978 0.0
H3855 H 0.02479 0.68179 0.60498 0.0
H3856 H 0.06933 0.61086 0.56254 0.0
H3857 H 0.05653 0.6343 0.58302 0.0
C3858 C 0.64975 0.84036 0.84152 0.0
C3859 C 0.64516 0.83186 0.85717 0.0
C3860 C 0.66506 0.83764 0.83306 0.0
C3861 C 0.69109 0.80066 0.82663 0.0
H3862 H 0.72023 0.8368 0.79988 0.0
C3863 C 0.76019 0.80226 0.80179 0.0
C3864 C 0.76285 0.80602 0.78381 0.0
C3865 C 0.74307 0.79995 0.80779 0.0
C3866 C 0.71174 0.8265 0.80691 0.0
H3867 H 0.65402 0.81612 0.87779 0.0
H3868 H 0.68129 0.81168 0.86303 0.0
H3869 H 0.69943 0.8483 0.82083 0.0
H3870 H 0.75056 0.81021 0.75771 0.0
H3871 H 0.72015 0.80721 0.76876 0.0
H3872 H 0.70461 0.77926 0.81357 0.0
C3873 C 0.67257 0.81978 0.85699 0.0
C3874 C 0.70014 0.83311 0.81907 0.0
C3875 C 0.65704 0.82229 0.86538 0.0
C3876 C 0.7484 0.80711 0.77159 0.0
C3877 C 0.73119 0.80508 0.77772 0.0
C3878 C 0.70303 0.79415 0.81473 0.0
C3879 C 0.67612 0.82662 0.84028 0.0
C3880 C 0.68973 0.82023 0.82898 0.0
C3881 C 0.72871 0.80216 0.79605 0.0
C3882 C 0.71332 0.80709 0.80487 0.0
H3883 H 0.64098 0.84811 0.83504 0.0
H3884 H 0.66747 0.84302 0.82014 0.0
H3885 H 0.68287 0.79037 0.83385 0.0
H3886 H 0.7715 0.80194 0.81144 0.0
H3887 H 0.74139 0.79826 0.82215 0.0
C3888 C 0.47845 0.57821 0.71733 0.0
C3889 C 0.46008 0.5691 0.71843 0.0
C3890 C 0.48689 0.57668 0.70025 0.0
C3891 C 0.4809 0.54738 0.64977 0.0
H3892 H 0.5218 0.58708 0.64195 0.0
C3893 C 0.51082 0.54384 0.57586 0.0
C3894 C 0.52913 0.55231 0.57382 0.0
C3895 C 0.5031 0.54612 0.59325 0.0
C3896 C 0.51053 0.57558 0.64369 0.0
H3897 H 0.43664 0.55095 0.70116 0.0
H3898 H 0.451 0.54827 0.67185 0.0
H3899 H 0.50751 0.59056 0.67117 0.0
H3900 H 0.55329 0.57039 0.59002 0.0
H3901 H 0.54007 0.57445 0.62002 0.0
H3902 H 0.48393 0.53232 0.62246 0.0
C3903 C 0.45917 0.55668 0.68428 0.0
C3904 C 0.50213 0.57761 0.66083 0.0
C3905 C 0.45068 0.55837 0.70135 0.0
C3906 C 0.53926 0.56342 0.59044 0.0
C3907 C 0.53145 0.56587 0.60794 0.0
C3908 C 0.48928 0.54535 0.63269 0.0
C3909 C 0.47761 0.56573 0.68311 0.0
C3910 C 0.48695 0.56361 0.66445 0.0
C3911 C 0.51309 0.55717 0.60996 0.0
C3912 C 0.50432 0.55941 0.62896 0.0
H3913 H 0.4865 0.58658 0.72987 0.0
H3914 H 0.50101 0.58389 0.70069 0.0
H3915 H 0.4697 0.53579 0.65148 0.0
H3916 H 0.50218 0.53512 0.56384 0.0
H3917 H 0.48897 0.53926 0.59337 0.0
C3918 C 0.77789 0.16481 0.95549 0.0
C3919 C 0.78585 0.17157 0.97382 0.0
C3920 C 0.7784 0.17763 0.94308 0.0
C3921 C 0.80523 0.22034 0.93145 0.0
H3922 H 0.76211 0.21706 0.89878 0.0
C3923 C 0.79142 0.26138 0.87094 0.0
C3924 C 0.77977 0.24892 0.85627 0.0
C3925 C 0.7978 0.25371 0.8857 0.0
C3926 C 0.77425 0.21801 0.90781 0.0
H3927 H 0.80057 0.19696 0.99367 0.0
H3928 H 0.80172 0.21936 0.97151 0.0
H3929 H 0.75939 0.20227 0.92659 0.0
H3930 H 0.76826 0.21902 0.84336 0.0
H3931 H 0.7797 0.20549 0.86909 0.0
H3932 H 0.82007 0.23584 0.91221 0.0
C3933 C 0.79507 0.20416 0.967 0.0
C3934 C 0.77264 0.2098 0.92371 0.0
C3935 C 0.79444 0.19134 0.97952 0.0
C3936 C 0.77702 0.22873 0.8548 0.0
C3937 C 0.7836 0.22107 0.86938 0.0
C3938 C 0.80683 0.2287 0.91546 0.0
C3939 C 0.78697 0.19731 0.94879 0.0
C3940 C 0.78821 0.21016 0.9351 0.0
C3941 C 0.79256 0.23367 0.88554 0.0
C3942 C 0.79142 0.22668 0.9032 0.0
H3943 H 0.77099 0.14972 0.95078 0.0
H3944 H 0.7723 0.17209 0.92891 0.0
H3945 H 0.81735 0.22072 0.94025 0.0
H3946 H 0.79375 0.27706 0.87207 0.0
H3947 H 0.80478 0.26354 0.8981 0.0
C3948 C 0.17105 0.54006 0.18089 0.0
C3949 C 0.16452 0.53106 0.19564 0.0
C3950 C 0.16004 0.53701 0.16432 0.0
C3951 C 0.1173 0.51129 0.13774 0.0
H3952 H 0.11029 0.56367 0.13769 0.0
C3953 C 0.06504 0.52928 0.08676 0.0
C3954 C 0.07491 0.54137 0.07572 0.0
C3955 C 0.07326 0.52691 0.10359 0.0
C3956 C 0.11193 0.54896 0.13788 0.0
H3957 H 0.14324 0.50964 0.2041 0.0
H3958 H 0.124 0.50421 0.175 0.0
H3959 H 0.13404 0.5586 0.15897 0.0
H3960 H 0.10115 0.56021 0.07362 0.0
H3961 H 0.11483 0.55658 0.10257 0.0
H3962 H 0.09565 0.50187 0.11589 0.0
C3963 C 0.13738 0.51368 0.17624 0.0
C3964 C 0.1257 0.54612 0.14963 0.0
C3965 C 0.14825 0.51694 0.19288 0.0
C3966 C 0.09281 0.5513 0.08188 0.0
C3967 C 0.10077 0.54924 0.09859 0.0
C3968 C 0.1036 0.51418 0.12572 0.0
C3969 C 0.14269 0.52478 0.16253 0.0
C3970 C 0.12873 0.52735 0.14926 0.0
C3971 C 0.09118 0.53691 0.10943 0.0
C3972 C 0.10125 0.5331 0.12544 0.0
H3973 H 0.18368 0.55092 0.18282 0.0
H3974 H 0.16428 0.54559 0.1537 0.0
H3975 H 0.11931 0.49669 0.1377 0.0
H3976 H 0.05138 0.52111 0.08208 0.0
H3977 H 0.06588 0.51705 0.11179 0.0
C3978 C 0.79669 0.87667 0.45974 0.0
C3979 C 0.80148 0.86874 0.47528 0.0
C3980 C 0.79655 0.86674 0.44159 0.0
C3981 C 0.7947 0.8203 0.41117 0.0
H3982 H 0.82407 0.85259 0.38117 0.0
C3983 C 0.80499 0.78962 0.33488 0.0
C3984 C 0.80544 0.80216 0.32184 0.0
C3985 C 0.80614 0.79685 0.35406 0.0
C3986 C 0.8156 0.84337 0.38915 0.0
H3987 H 0.80845 0.84322 0.48376 0.0
H3988 H 0.80789 0.82558 0.4517 0.0
H3989 H 0.82101 0.86577 0.41342 0.0
H3990 H 0.80697 0.83201 0.31851 0.0
H3991 H 0.80864 0.84472 0.3518 0.0
H3992 H 0.78861 0.79813 0.3867 0.0
C3993 C 0.80449 0.83972 0.45379 0.0
C3994 C 0.81394 0.85093 0.40774 0.0
C3995 C 0.80476 0.84981 0.47214 0.0
C3996 C 0.80731 0.82215 0.32832 0.0
C3997 C 0.80818 0.82937 0.34748 0.0
C3998 C 0.79611 0.81278 0.39239 0.0
C3999 C 0.80104 0.84847 0.43836 0.0
C4000 C 0.80335 0.83959 0.41893 0.0
C4001 C 0.80723 0.81678 0.36067 0.0
C4002 C 0.80648 0.82428 0.38102 0.0
H4003 H 0.79373 0.89103 0.46152 0.0
H4004 H 0.79344 0.87366 0.43 0.0
H4005 H 0.78637 0.81126 0.41942 0.0
H4006 H 0.8031 0.77407 0.33016 0.0
H4007 H 0.80571 0.78667 0.36364 0.0
C4008 C 0.45446 0.5785 0.848 0.0
C4009 C 0.45983 0.5734 0.82988 0.0
C4010 C 0.46393 0.57581 0.86445 0.0
C4011 C 0.49999 0.55023 0.88294 0.0
H4012 H 0.49327 0.58031 0.93009 0.0
C4013 C 0.53583 0.54428 0.95831 0.0
C4014 C 0.52542 0.54621 0.97383 0.0
C4015 C 0.52949 0.54718 0.94017 0.0
C4016 C 0.49529 0.57144 0.9172 0.0
H4017 H 0.48034 0.56107 0.81595 0.0
H4018 H 0.49699 0.55672 0.84442 0.0
H4019 H 0.48019 0.58656 0.90124 0.0
H4020 H 0.49964 0.55245 0.9811 0.0
H4021 H 0.48926 0.5577 0.95081 0.0
H4022 H 0.5156 0.53546 0.8994 0.0
C4023 C 0.48515 0.56285 0.84595 0.0
C4024 C 0.48753 0.57504 0.90022 0.0
C4025 C 0.47562 0.56564 0.82933 0.0
C4026 C 0.50845 0.55089 0.97004 0.0
C4027 C 0.50238 0.55409 0.95231 0.0
C4028 C 0.50795 0.54673 0.90007 0.0
C4029 C 0.47952 0.56773 0.86411 0.0
C4030 C 0.48924 0.56434 0.88247 0.0
C4031 C 0.51266 0.55258 0.93678 0.0
C4032 C 0.50552 0.557 0.91778 0.0
H4033 H 0.44241 0.58427 0.84955 0.0
H4034 H 0.4584 0.57961 0.87753 0.0
H4035 H 0.50197 0.54139 0.87004 0.0
H4036 H 0.54895 0.54078 0.96018 0.0
H4037 H 0.53807 0.54569 0.9289 0.0
C4038 C 0.79654 0.19908 0.08072 0.0
C4039 C 0.79272 0.17865 0.07746 0.0
C4040 C 0.79282 0.20926 0.09738 0.0
C4041 C 0.78918 0.20619 0.14567 0.0
H4042 H 0.7694 0.25221 0.14566 0.0
C4043 C 0.80676 0.26867 0.20577 0.0
C4044 C 0.79239 0.27534 0.21375 0.0
C4045 C 0.80376 0.25653 0.18853 0.0
C4046 C 0.77465 0.23924 0.14582 0.0
H4047 H 0.78254 0.15277 0.08917 0.0
H4048 H 0.77662 0.17079 0.11881 0.0
H4049 H 0.76862 0.22965 0.11636 0.0
H4050 H 0.76384 0.27524 0.21039 0.0
H4051 H 0.75856 0.25415 0.17951 0.0
H4052 H 0.7957 0.21603 0.17497 0.0
C4053 C 0.78223 0.1788 0.10826 0.0
C4054 C 0.77431 0.22645 0.12917 0.0
C4055 C 0.78579 0.16855 0.09145 0.0
C4056 C 0.77512 0.27052 0.20405 0.0
C4057 C 0.77211 0.25844 0.18661 0.0
C4058 C 0.78955 0.21896 0.16226 0.0
C4059 C 0.78541 0.1992 0.11115 0.0
C4060 C 0.78224 0.21029 0.12892 0.0
C4061 C 0.7863 0.25081 0.17916 0.0
C4062 C 0.78298 0.23594 0.16227 0.0
H4063 H 0.80166 0.20726 0.0701 0.0
H4064 H 0.79579 0.22504 0.0995 0.0
H4065 H 0.79538 0.19384 0.14579 0.0
H4066 H 0.81993 0.27147 0.21348 0.0
H4067 H 0.8149 0.25089 0.18288 0.0
C4068 C 0.17628 0.53606 0.31146 0.0
C4069 C 0.17149 0.54757 0.29897 0.0
C4070 C 0.16636 0.53323 0.32655 0.0
C4071 C 0.12323 0.53757 0.34501 0.0
H4072 H 0.15106 0.54617 0.39316 0.0
C4073 C 0.08789 0.54577 0.4104 0.0
C4074 C 0.09528 0.56411 0.42132 0.0
C4075 C 0.09803 0.53748 0.39744 0.0
C4076 C 0.14315 0.54341 0.37976 0.0
H4077 H 0.15272 0.56505 0.29204 0.0
H4078 H 0.13559 0.56061 0.31892 0.0
H4079 H 0.16664 0.54508 0.36482 0.0
H4080 H 0.11928 0.58728 0.42912 0.0
H4081 H 0.13698 0.57311 0.40604 0.0
H4082 H 0.09995 0.53755 0.35998 0.0
C4083 C 0.14669 0.55334 0.31675 0.0
C4084 C 0.152 0.54272 0.36359 0.0
C4085 C 0.15649 0.55596 0.30148 0.0
C4086 C 0.1133 0.57337 0.42034 0.0
C4087 C 0.12346 0.56507 0.40745 0.0
C4088 C 0.11441 0.53838 0.36116 0.0
C4089 C 0.15166 0.54205 0.32943 0.0
C4090 C 0.14213 0.54033 0.34617 0.0
C4091 C 0.11561 0.54749 0.39538 0.0
C4092 C 0.12439 0.5419 0.37865 0.0
H4093 H 0.18772 0.52928 0.30958 0.0
H4094 H 0.17026 0.52428 0.33606 0.0
H4095 H 0.11536 0.53551 0.33167 0.0
H4096 H 0.07403 0.53832 0.41128 0.0
H4097 H 0.09182 0.52383 0.38832 0.0
C4098 C 0.78651 0.87239 0.59312 0.0
C4099 C 0.80047 0.86886 0.58213 0.0
C4100 C 0.78466 0.86533 0.60998 0.0
C4101 C 0.81145 0.84801 0.64569 0.0
H4102 H 0.76461 0.82956 0.66315 0.0
C4103 C 0.80273 0.80718 0.70774 0.0
C4104 C 0.79513 0.81663 0.72268 0.0
C4105 C 0.80189 0.81278 0.69026 0.0
C4106 C 0.77775 0.83476 0.65842 0.0
H4107 H 0.82331 0.85521 0.57981 0.0
H4108 H 0.8202 0.84283 0.60905 0.0
H4109 H 0.7662 0.84067 0.63301 0.0
H4110 H 0.77991 0.83854 0.73101 0.0
H4111 H 0.77773 0.84785 0.69998 0.0
H4112 H 0.82294 0.84156 0.67084 0.0
C4113 C 0.81072 0.85116 0.60496 0.0
C4114 C 0.7787 0.84122 0.64122 0.0
C4115 C 0.81245 0.8581 0.58811 0.0
C4116 C 0.78595 0.83117 0.71967 0.0
C4117 C 0.78464 0.8364 0.70198 0.0
C4118 C 0.81048 0.84129 0.66265 0.0
C4119 C 0.79689 0.85478 0.61624 0.0
C4120 C 0.7956 0.84793 0.63459 0.0
C4121 C 0.79299 0.82756 0.68726 0.0
C4122 C 0.79365 0.83461 0.66919 0.0
H4123 H 0.77706 0.88061 0.58867 0.0
H4124 H 0.77392 0.86853 0.61828 0.0
H4125 H 0.82472 0.85349 0.64139 0.0
H4126 H 0.80997 0.79598 0.70978 0.0
H4127 H 0.80842 0.80575 0.67913 0.0
C4128 C 0.78166 0.48193 0.51452 0.0
C4129 C 0.78173 0.4641 0.50336 0.0
C4130 C 0.76534 0.48695 0.51807 0.0
C4131 C 0.71865 0.48007 0.50157 0.0
H4132 H 0.71447 0.499 0.55378 0.0
C4133 C 0.65856 0.51001 0.53302 0.0
C4134 C 0.66453 0.52847 0.54445 0.0
C4135 C 0.67106 0.49957 0.52603 0.0
C4136 C 0.71545 0.49363 0.53918 0.0
H4137 H 0.76541 0.43749 0.48688 0.0
H4138 H 0.73643 0.44667 0.49264 0.0
H4139 H 0.73986 0.48451 0.54517 0.0
H4140 H 0.6881 0.55094 0.55652 0.0
H4141 H 0.70993 0.53245 0.54467 0.0
H4142 H 0.6944 0.48987 0.49566 0.0
C4143 C 0.74901 0.45664 0.49862 0.0
C4144 C 0.72988 0.48537 0.53429 0.0
C4145 C 0.76542 0.45148 0.49531 0.0
C4146 C 0.68315 0.53659 0.54815 0.0
C4147 C 0.69559 0.52609 0.54132 0.0
C4148 C 0.70409 0.48833 0.50651 0.0
C4149 C 0.74894 0.4742 0.51041 0.0
C4150 C 0.73194 0.47929 0.51543 0.0
C4151 C 0.6896 0.50739 0.53059 0.0
C4152 C 0.7029 0.49583 0.52529 0.0
H4153 H 0.79408 0.49155 0.52128 0.0
H4154 H 0.76551 0.50064 0.52711 0.0
H4155 H 0.7201 0.47538 0.48695 0.0
H4156 H 0.64426 0.50331 0.53004 0.0
H4157 H 0.66628 0.48512 0.51777 0.0
C4158 C 0.24382 0.15078 0.50951 0.0
C4159 C 0.24593 0.16589 0.49904 0.0
C4160 C 0.22675 0.13861 0.5099 0.0
C4161 C 0.18189 0.11848 0.48466 0.0
H4162 H 0.16458 0.11552 0.5334 0.0
C4163 C 0.11442 0.06552 0.49619 0.0
C4164 C 0.10339 0.07337 0.50888 0.0
C4165 C 0.13197 0.07606 0.4943 0.0
C4166 C 0.16915 0.11615 0.51966 0.0
H4167 H 0.23193 0.17997 0.48056 0.0
H4168 H 0.20213 0.15791 0.48035 0.0
H4169 H 0.19479 0.1349 0.53095 0.0
H4170 H 0.10247 0.09886 0.52932 0.0
H4171 H 0.13275 0.11688 0.52611 0.0
H4172 H 0.15628 0.0996 0.47336 0.0
C4173 C 0.21367 0.1557 0.4885 0.0
C4174 C 0.18655 0.12718 0.51828 0.0
C4175 C 0.23068 0.16833 0.48862 0.0
C4176 C 0.11044 0.09212 0.51947 0.0
C4177 C 0.12795 0.10251 0.51771 0.0
C4178 C 0.16458 0.10712 0.48605 0.0
C4179 C 0.21143 0.14095 0.49946 0.0
C4180 C 0.19308 0.12865 0.50076 0.0
C4181 C 0.13905 0.09467 0.50516 0.0
C4182 C 0.15786 0.10596 0.50357 0.0
H4183 H 0.25531 0.14876 0.51789 0.0
H4184 H 0.22551 0.1274 0.51846 0.0
H4185 H 0.18658 0.11922 0.47097 0.0
H4186 H 0.10954 0.05122 0.48774 0.0
H4187 H 0.14013 0.06948 0.48455 0.0
C4188 C 0.19671 0.95446 0.78587 0.0
C4189 C 0.19545 0.96453 0.77069 0.0
C4190 C 0.20569 0.93858 0.7854 0.0
C4191 C 0.23928 0.91182 0.75834 0.0
H4192 H 0.22699 0.87564 0.79219 0.0
C4193 C 0.27667 0.84382 0.76038 0.0
C4194 C 0.27602 0.8343 0.77615 0.0
C4195 C 0.26727 0.85932 0.7588 0.0
C4196 C 0.23119 0.88554 0.7827 0.0
H4197 H 0.20436 0.96498 0.74306 0.0
H4198 H 0.21974 0.93767 0.7421 0.0
H4199 H 0.21076 0.90128 0.79113 0.0
H4200 H 0.26431 0.83513 0.80259 0.0
H4201 H 0.24878 0.86105 0.80009 0.0
H4202 H 0.25974 0.89582 0.74988 0.0
C4203 C 0.21339 0.94183 0.75458 0.0
C4204 C 0.22151 0.90075 0.78206 0.0
C4205 C 0.2041 0.95763 0.75496 0.0
C4206 C 0.26552 0.8415 0.79007 0.0
C4207 C 0.25618 0.85671 0.78849 0.0
C4208 C 0.24907 0.89656 0.75902 0.0
C4209 C 0.21464 0.93171 0.76986 0.0
C4210 C 0.22518 0.91465 0.76997 0.0
C4211 C 0.25643 0.86624 0.77277 0.0
C4212 C 0.24554 0.88285 0.77138 0.0
H4213 H 0.19097 0.95921 0.7986 0.0
H4214 H 0.20607 0.93214 0.79782 0.0
H4215 H 0.24316 0.9217 0.74872 0.0
H4216 H 0.28429 0.83918 0.74905 0.0
H4217 H 0.26834 0.86562 0.74626 0.0
C4218 C 0.38366 0.9417 0.00826 0.0
C4219 C 0.37035 0.95133 0.01487 0.0
C4220 C 0.40184 0.95133 0.01181 0.0
C4221 C 0.43164 0.99106 0.01155 0.0
H4222 H 0.45177 0.0083 0.06307 0.0
C4223 C 0.4969 0.03667 0.01973 0.0
C4224 C 0.50774 0.02651 0.02854 0.0
C4225 C 0.47943 0.03644 0.02458 0.0
C4226 C 0.44649 1.00367 0.04857 0.0
H4227 H 0.36486 0.97715 0.03155 0.0
H4228 H 0.3964 0.99398 0.03751 0.0
H4229 H 0.4263 0.98062 0.05517 0.0
H4230 H 0.5104 0.01238 0.05258 0.0
H4231 H 0.48091 0.01244 0.0613 0.0
H4232 H 0.45176 0.01326 0.00437 0.0
C4233 C 0.39295 0.97931 0.02948 0.0
C4234 C 0.43218 0.98762 0.0441 0.0
C4235 C 0.37505 0.96987 0.02587 0.0
C4236 C 0.5021 0.01925 0.04451 0.0
C4237 C 0.48499 0.01964 0.04977 0.0
C4238 C 0.44629 0.00677 0.01586 0.0
C4239 C 0.4063 0.97015 0.02243 0.0
C4240 C 0.42459 0.98154 0.02566 0.0
C4241 C 0.47265 0.02535 0.03793 0.0
C4242 C 0.45416 0.01311 0.03444 0.0
H4243 H 0.37998 0.92713 1.00007 0.0
H4244 H 0.41225 0.94431 0.00631 0.0
H4245 H 0.42543 0.98677 0.99734 0.0
H4246 H 0.50152 0.04395 0.00863 0.0
H4247 H 0.47064 0.04261 0.01621 0.0
C4248 C 0.90316 0.60575 0.81579 0.0
C4249 C 0.89227 0.58704 0.80985 0.0
C4250 C 0.89824 0.62158 0.80955 0.0
C4251 C 0.87129 0.63255 0.77149 0.0
H4252 H 0.8575 0.6716 0.80794 0.0
C4253 C 0.81362 0.6657 0.75371 0.0
C4254 C 0.81863 0.68585 0.75423 0.0
C4255 C 0.82485 0.65655 0.76302 0.0
C4256 C 0.86155 0.66091 0.79771 0.0
H4257 H 0.869 0.56959 0.79175 0.0
H4258 H 0.85994 0.59695 0.78156 0.0
H4259 H 0.87662 0.65075 0.81827 0.0
H4260 H 0.8382 0.71259 0.76617 0.0
H4261 H 0.85781 0.69639 0.78264 0.0
H4262 H 0.85518 0.64158 0.75114 0.0
C4263 C 0.87206 0.59963 0.7911 0.0
C4264 C 0.8726 0.64927 0.80352 0.0
C4265 C 0.87687 0.58405 0.79738 0.0
C4266 C 0.8341 0.69699 0.76556 0.0
C4267 C 0.84529 0.68783 0.77496 0.0
C4268 C 0.86014 0.64395 0.76576 0.0
C4269 C 0.88276 0.61843 0.79701 0.0
C4270 C 0.87672 0.63446 0.79052 0.0
C4271 C 0.8411 0.66754 0.77295 0.0
C4272 C 0.85462 0.65755 0.77897 0.0
H4273 H 0.91544 0.60802 0.82499 0.0
H4274 H 0.90656 0.6361 0.81419 0.0
H4275 H 0.8745 0.6212 0.7613 0.0
H4276 H 0.80148 0.65695 0.74544 0.0
H4277 H 0.82137 0.64082 0.76168 0.0
C4278 C 0.84012 0.65953 0.01939 0.0
C4279 C 0.8397 0.67228 0.00674 0.0
C4280 C 0.85554 0.65231 0.02249 0.0
C4281 C 0.89689 0.64348 1.00082 0.0
H4282 H 0.90739 0.62996 0.04908 0.0
C4283 C 0.95643 0.60771 0.02466 0.0
C4284 C 0.94979 0.59072 0.03199 0.0
C4285 C 0.94467 0.61938 0.01995 0.0
C4286 C 0.90467 0.63376 0.03556 0.0
H4287 H 0.85485 0.6876 0.98729 0.0
H4288 H 0.88234 0.67552 0.99319 0.0
H4289 H 0.8846 0.6488 0.04537 0.0
H4290 H 0.92534 0.57187 0.03841 0.0
H4291 H 0.9052 0.59251 0.0309 0.0
H4292 H 0.91736 0.62838 0.99128 0.0
C4293 C 0.87067 0.67091 1.00061 0.0
C4294 C 0.8915 0.64443 0.03335 0.0
C4295 C 0.85508 0.67805 0.99741 0.0
C4296 C 0.93105 0.58513 0.03339 0.0
C4297 C 0.91946 0.59687 0.02898 0.0
C4298 C 0.91037 0.63302 1.00315 0.0
C4299 C 0.87102 0.65774 0.01307 0.0
C4300 C 0.88695 0.64889 0.01582 0.0
C4301 C 0.9262 0.61432 0.02268 0.0
C4302 C 0.91395 0.6276 0.02042 0.0
H4303 H 0.82822 0.65456 0.02637 0.0
H4304 H 0.85498 0.64183 0.03178 0.0
H4305 H 0.89373 0.64652 0.98709 0.0
H4306 H 0.97077 0.61248 0.02339 0.0
H4307 H 0.95014 0.63279 0.01504 0.0
C4308 C 0.21226 0.0734 0.77278 0.0
C4309 C 0.19404 0.06927 0.77714 0.0
C4310 C 0.22223 0.09283 0.77308 0.0
C4311 C 0.21607 0.14444 0.77069 0.0
H4312 H 0.26756 0.16019 0.78557 0.0
C4313 C 0.25515 0.22678 0.77443 0.0
C4314 C 0.27415 0.23206 0.77347 0.0
C4315 C 0.24584 0.20735 0.77501 0.0
C4316 C 0.25324 0.1563 0.78105 0.0
H4317 H 0.17209 0.08337 0.78406 0.0
H4318 H 0.18898 0.1167 0.78423 0.0
H4319 H 0.25125 0.12698 0.78632 0.0
H4320 H 0.29769 0.21942 0.77221 0.0
H4321 H 0.28187 0.18611 0.77317 0.0
H4322 H 0.21792 0.1734 0.76501 0.0
C4323 C 0.19594 0.10496 0.78101 0.0
C4324 C 0.2437 0.13686 0.78154 0.0
C4325 C 0.18613 0.08559 0.78107 0.0
C4326 C 0.28325 0.21659 0.77308 0.0
C4327 C 0.27393 0.19709 0.77373 0.0
C4328 C 0.22561 0.16379 0.77002 0.0
C4329 C 0.21431 0.10922 0.777 0.0
C4330 C 0.2248 0.13034 0.77645 0.0
C4331 C 0.25486 0.19177 0.77467 0.0
C4332 C 0.24452 0.17047 0.77525 0.0
H4333 H 0.21876 0.06148 0.76855 0.0
H4334 H 0.2361 0.09488 0.76955 0.0
H4335 H 0.20171 0.14046 0.76626 0.0
H4336 H 0.24723 0.23779 0.77472 0.0
H4337 H 0.23139 0.20478 0.77601 0.0
C4338 C 0.3986 0.97399 0.29523 0.0
C4339 C 0.39197 0.99036 0.29275 0.0
C4340 C 0.3876 0.95555 0.28915 0.0
C4341 C 0.34676 0.92618 0.28519 0.0
H4342 H 0.35227 0.89843 0.23622 0.0
C4343 C 0.31472 0.84766 0.26665 0.0
C4344 C 0.32919 0.83823 0.26605 0.0
C4345 C 0.3173 0.86658 0.26335 0.0
C4346 C 0.35026 0.90632 0.24965 0.0
H4347 H 0.36972 1.00095 0.28117 0.0
H4348 H 0.35022 0.9686 0.27121 0.0
H4349 H 0.36945 0.93209 0.24663 0.0
H4350 H 0.35694 0.83991 0.25928 0.0
H4351 H 0.36155 0.87305 0.25366 0.0
H4352 H 0.32866 0.90028 0.289 0.0
C4353 C 0.36367 0.97006 0.27797 0.0
C4354 C 0.36018 0.92524 0.25564 0.0
C4355 C 0.37466 0.98836 0.28384 0.0
C4356 C 0.34579 0.84721 0.26052 0.0
C4357 C 0.34825 0.86593 0.2568 0.0
C4358 C 0.33683 0.90735 0.27926 0.0
C4359 C 0.3702 0.95375 0.28049 0.0
C4360 C 0.35884 0.93478 0.27364 0.0
C4361 C 0.33428 0.87598 0.25903 0.0
C4362 C 0.33916 0.89707 0.2618 0.0
H4363 H 0.41216 0.97551 0.30171 0.0
H4364 H 0.39264 0.94278 0.29098 0.0
H4365 H 0.34573 0.93361 0.29909 0.0
H4366 H 0.30153 0.84059 0.26988 0.0
H4367 H 0.30642 0.87423 0.26515 0.0
C4368 C 0.58714 0.37819 0.60172 0.0
C4369 C 0.58222 0.35997 0.58982 0.0
C4370 C 0.58535 0.39531 0.59503 0.0
C4371 C 0.55912 0.40971 0.55669 0.0
H4372 H 0.59185 0.46032 0.57074 0.0
C4373 C 0.5562 0.47487 0.51865 0.0
C4374 C 0.55839 0.49324 0.52992 0.0
C4375 C 0.55841 0.45872 0.52656 0.0
C4376 C 0.58248 0.44629 0.56683 0.0
H4377 H 0.57291 0.34594 0.56111 0.0
H4378 H 0.5704 0.37511 0.54973 0.0
H4379 H 0.59828 0.43255 0.58368 0.0
H4380 H 0.56472 0.5093 0.55818 0.0
H4381 H 0.56892 0.48126 0.57197 0.0
H4382 H 0.5435 0.4233 0.53962 0.0
C4383 C 0.575 0.37639 0.56431 0.0
C4384 C 0.58616 0.43039 0.57429 0.0
C4385 C 0.57669 0.35954 0.57091 0.0
C4386 C 0.56269 0.4952 0.54923 0.0
C4387 C 0.56527 0.47919 0.55709 0.0
C4388 C 0.55554 0.42552 0.54916 0.0
C4389 C 0.57864 0.39444 0.57634 0.0
C4390 C 0.57459 0.41182 0.56921 0.0
C4391 C 0.56342 0.46081 0.54583 0.0
C4392 C 0.56717 0.44402 0.55408 0.0
H4393 H 0.59143 0.37911 0.61632 0.0
H4394 H 0.58844 0.40903 0.60468 0.0
H4395 H 0.54963 0.39577 0.55273 0.0
H4396 H 0.55319 0.4731 0.50368 0.0
H4397 H 0.55693 0.44478 0.51748 0.0
C4398 C 0.47067 0.76253 0.38358 0.0
C4399 C 0.47207 0.76898 0.40301 0.0
C4400 C 0.45508 0.76267 0.37217 0.0
C4401 C 0.40636 0.75853 0.36861 0.0
H4402 H 0.41357 0.79454 0.33376 0.0
C4403 C 0.34543 0.77518 0.32529 0.0
C4404 C 0.34805 0.7799 0.30747 0.0
C4405 C 0.35996 0.77256 0.33688 0.0
C4406 C 0.41115 0.78406 0.34306 0.0
H4407 H 0.45708 0.77831 0.42585 0.0
H4408 H 0.42948 0.77766 0.406 0.0
H4409 H 0.4391 0.79115 0.35361 0.0
H4410 H 0.3684 0.7864 0.28841 0.0
H4411 H 0.39335 0.78129 0.30795 0.0
H4412 H 0.37834 0.75083 0.35772 0.0
C4413 C 0.44086 0.77337 0.39953 0.0
C4414 C 0.42597 0.78228 0.35461 0.0
C4415 C 0.45669 0.77375 0.4109 0.0
C4416 C 0.36564 0.7821 0.30168 0.0
C4417 C 0.38015 0.77956 0.31322 0.0
C4418 C 0.39146 0.76 0.35678 0.0
C4419 C 0.44 0.76827 0.37995 0.0
C4420 C 0.42387 0.76962 0.3676 0.0
C4421 C 0.37768 0.77485 0.33113 0.0
C4422 C 0.39356 0.77288 0.34378 0.0
H4423 H 0.48176 0.75759 0.37713 0.0
H4424 H 0.45483 0.75839 0.35719 0.0
H4425 H 0.40423 0.74847 0.37835 0.0
H4426 H 0.3321 0.77346 0.33028 0.0
H4427 H 0.35731 0.76918 0.35055 0.0
C4428 C 0.06625 0.74372 0.10029 0.0
C4429 C 0.07577 0.75965 0.09325 0.0
C4430 C 0.06347 0.72489 0.08994 0.0
C4431 C 0.083 0.69513 0.05401 0.0
H4432 H 0.03872 0.65722 0.05653 0.0
C4433 C 0.06714 0.60939 0.02725 0.0
C4434 C 0.06449 0.6002 0.0429 0.0
C4435 C 0.06842 0.62957 0.02904 0.0
C4436 C 0.05105 0.66772 0.05544 0.0
H4437 H 0.09087 0.76848 0.07056 0.0
H4438 H 0.0859 0.73554 0.05232 0.0
H4439 H 0.04033 0.69177 0.06773 0.0
H4440 H 0.06139 0.60486 0.07256 0.0
H4441 H 0.06292 0.6396 0.07543 0.0
H4442 H 0.0938 0.67077 0.04222 0.0
C4443 C 0.08034 0.73756 0.06568 0.0
C4444 C 0.05205 0.68745 0.06201 0.0
C4445 C 0.08305 0.75641 0.07603 0.0
C4446 C 0.06353 0.61153 0.06028 0.0
C4447 C 0.06429 0.63138 0.06193 0.0
C4448 C 0.08193 0.67534 0.04727 0.0
C4449 C 0.07047 0.72155 0.0725 0.0
C4450 C 0.06831 0.70129 0.06219 0.0
C4451 C 0.06644 0.64053 0.04633 0.0
C4452 C 0.06619 0.66145 0.04867 0.0
H4453 H 0.06079 0.74588 0.11369 0.0
H4454 H 0.05617 0.71287 0.09585 0.0
H4455 H 0.09574 0.70539 0.05393 0.0
H4456 H 0.06754 0.60094 0.0136 0.0
H4457 H 0.07018 0.63643 0.01684 0.0
C4458 C 0.06826 0.26361 0.88892 0.0
C4459 C 0.06737 0.27559 0.90598 0.0
C4460 C 0.08471 0.26413 0.88097 0.0
C4461 C 0.12949 0.29755 0.88072 0.0
H4462 H 0.13958 0.25272 0.84894 0.0
C4463 C 0.19329 0.30396 0.83908 0.0
C4464 C 0.19051 0.29411 0.82049 0.0
C4465 C 0.17985 0.30036 0.85144 0.0
C4466 C 0.13697 0.26545 0.85766 0.0
H4467 H 0.08317 0.29735 0.92829 0.0
H4468 H 0.11216 0.29811 0.91461 0.0
H4469 H 0.11374 0.24856 0.86749 0.0
H4470 H 0.17163 0.27268 0.8003 0.0
H4471 H 0.14834 0.26614 0.82173 0.0
H4472 H 0.15258 0.31447 0.87065 0.0
C4473 C 0.10006 0.28826 0.90729 0.0
C4474 C 0.12207 0.26306 0.86835 0.0
C4475 C 0.08351 0.28761 0.91534 0.0
C4476 C 0.17427 0.28021 0.81466 0.0
C4477 C 0.16091 0.27649 0.82699 0.0
C4478 C 0.14443 0.29993 0.87005 0.0
C4479 C 0.10083 0.27687 0.88972 0.0
C4480 C 0.11788 0.27911 0.87984 0.0
C4481 C 0.16331 0.28677 0.8455 0.0
C4482 C 0.14825 0.28397 0.8581 0.0
H4483 H 0.05598 0.25449 0.88122 0.0
H4484 H 0.08452 0.2553 0.86738 0.0
H4485 H 0.12665 0.31035 0.8891 0.0
H4486 H 0.20556 0.315 0.84386 0.0
H4487 H 0.18234 0.30844 0.86558 0.0
C4488 C 0.57525 0.76323 0.90433 0.0
C4489 C 0.59331 0.77044 0.90133 0.0
C4490 C 0.571 0.7489 0.91529 0.0
C4491 C 0.58595 0.71003 0.934 0.0
H4492 H 0.55774 0.72359 0.97487 0.0
C4493 C 0.57035 0.66329 0.99171 0.0
C4494 C 0.5531 0.66164 0.99824 0.0
C4495 C 0.57597 0.67603 0.97941 0.0
C4496 C 0.5654 0.71943 0.96339 0.0
H4497 H 0.62108 0.76825 0.90672 0.0
H4498 H 0.61352 0.74214 0.92516 0.0
H4499 H 0.56606 0.74617 0.95345 0.0
H4500 H 0.52787 0.6712 0.99632 0.0
H4501 H 0.53749 0.69316 0.97467 0.0
H4502 H 0.58494 0.68306 0.94367 0.0
C4503 C 0.60272 0.74775 0.91919 0.0
C4504 C 0.57021 0.7324 0.95119 0.0
C4505 C 0.60703 0.76252 0.90862 0.0
C4506 C 0.54139 0.67253 0.99185 0.0
C4507 C 0.54694 0.68513 0.97948 0.0
C4508 C 0.58094 0.6969 0.94611 0.0
C4509 C 0.58473 0.74131 0.9231 0.0
C4510 C 0.58033 0.72771 0.93628 0.0
C4511 C 0.56438 0.68726 0.97332 0.0
C4512 C 0.57042 0.70137 0.96081 0.0
H4513 H 0.56457 0.76962 0.89926 0.0
H4514 H 0.55704 0.74414 0.91812 0.0
H4515 H 0.59378 0.70616 0.92258 0.0
H4516 H 0.57967 0.65508 0.99645 0.0
H4517 H 0.58954 0.67743 0.97505 0.0
C4518 C 0.06656 0.77231 0.66505 0.0
C4519 C 0.05152 0.7678 0.67512 0.0
C4520 C 0.08362 0.77151 0.67248 0.0
C4521 C 0.10999 0.77422 0.71598 0.0
H4522 H 0.13831 0.74316 0.68667 0.0
C4523 C 0.1812 0.77142 0.74265 0.0
C4524 C 0.18313 0.75244 0.74348 0.0
C4525 C 0.16649 0.77434 0.73209 0.0
C4526 C 0.13054 0.75196 0.69488 0.0
H4527 H 0.04183 0.75743 0.69986 0.0
H4528 H 0.07192 0.75695 0.71341 0.0
H4529 H 0.10903 0.7464 0.67303 0.0
H4530 H 0.17224 0.72171 0.73331 0.0
H4531 H 0.14631 0.7268 0.71461 0.0
H4532 H 0.13123 0.77954 0.73793 0.0
C4533 C 0.07059 0.76148 0.70001 0.0
C4534 C 0.11394 0.75388 0.68711 0.0
C4535 C 0.05351 0.76199 0.69242 0.0
C4536 C 0.17072 0.73642 0.73298 0.0
C4537 C 0.15612 0.73935 0.72219 0.0
C4538 C 0.12663 0.77251 0.72365 0.0
C4539 C 0.0857 0.76612 0.69 0.0
C4540 C 0.10354 0.76486 0.69772 0.0
C4541 C 0.1537 0.7583 0.72209 0.0
C4542 C 0.13692 0.76124 0.71321 0.0
H4543 H 0.06504 0.77623 0.65138 0.0
H4544 H 0.09517 0.77504 0.66458 0.0
H4545 H 0.1021 0.78272 0.72434 0.0
H4546 H 0.19075 0.78395 0.75064 0.0
H4547 H 0.16486 0.78907 0.73207 0.0
C4548 C 0.12111 0.38611 0.42984 0.0
C4549 C 0.12015 0.38624 0.41055 0.0
C4550 C 0.12215 0.40329 0.44235 0.0
C4551 C 0.09854 0.43922 0.43902 0.0
H4552 H 0.11696 0.46119 0.49041 0.0
C4553 C 0.06848 0.49601 0.48166 0.0
C4554 C 0.06521 0.49391 0.50004 0.0
C4555 C 0.07847 0.48459 0.47159 0.0
C4556 C 0.11169 0.455 0.4761 0.0
H4557 H 0.12307 0.40474 0.38944 0.0
H4558 H 0.12457 0.43465 0.41137 0.0
H4559 H 0.13336 0.44022 0.47123 0.0
H4560 H 0.0695 0.47813 0.52229 0.0
H4561 H 0.08703 0.45767 0.50441 0.0
H4562 H 0.07637 0.45272 0.44391 0.0
C4563 C 0.12431 0.42128 0.41672 0.0
C4564 C 0.12116 0.44335 0.46516 0.0
C4565 C 0.12323 0.40413 0.4042 0.0
C4566 C 0.07198 0.48005 0.50819 0.0
C4567 C 0.08202 0.46847 0.49803 0.0
C4568 C 0.08903 0.45056 0.44993 0.0
C4569 C 0.12227 0.42062 0.43561 0.0
C4570 C 0.1146 0.43545 0.44656 0.0
C4571 C 0.08533 0.47076 0.47967 0.0
C4572 C 0.09551 0.45853 0.46853 0.0
H4573 H 0.11926 0.37257 0.43518 0.0
H4574 H 0.12059 0.40253 0.45692 0.0
H4575 H 0.09285 0.43262 0.4249 0.0
H4576 H 0.06404 0.50711 0.47525 0.0
H4577 H 0.08114 0.48688 0.45758 0.0
C4578 C 0.43825 0.27359 0.17427 0.0
C4579 C 0.45181 0.26351 0.1771 0.0
C4580 C 0.42771 0.27797 0.1887 0.0
C4581 C 0.41107 0.26245 0.23062 0.0
H4582 H 0.4009 0.31408 0.23969 0.0
C4583 C 0.35431 0.28056 0.27408 0.0
C4584 C 0.34098 0.28191 0.26055 0.0
C4585 C 0.37229 0.2828 0.26989 0.0
C4586 C 0.40414 0.29984 0.23772 0.0
H4587 H 0.46454 0.24891 0.19625 0.0
H4588 H 0.44581 0.25623 0.22141 0.0
H4589 H 0.42364 0.30739 0.21856 0.0
H4590 H 0.33518 0.28569 0.23217 0.0
H4591 H 0.36659 0.29037 0.22502 0.0
H4592 H 0.39066 0.25458 0.24877 0.0
C4593 C 0.44357 0.26112 0.20832 0.0
C4594 C 0.41682 0.29592 0.22547 0.0
C4595 C 0.45424 0.257 0.19403 0.0
C4596 C 0.34555 0.28556 0.24299 0.0
C4597 C 0.36341 0.2882 0.23895 0.0
C4598 C 0.39845 0.26641 0.24295 0.0
C4599 C 0.43054 0.27202 0.2059 0.0
C4600 C 0.41969 0.27697 0.22119 0.0
C4601 C 0.3768 0.28649 0.25222 0.0
C4602 C 0.39434 0.28485 0.24581 0.0
H4603 H 0.43624 0.27863 0.16122 0.0
H4604 H 0.4174 0.28603 0.18645 0.0
H4605 H 0.41306 0.24771 0.22743 0.0
H4606 H 0.35071 0.27715 0.28753 0.0
H4607 H 0.38248 0.28091 0.28003 0.0
C4608 C 0.65299 0.50701 0.33972 0.0
C4609 C 0.64709 0.5121 0.32276 0.0
C4610 C 0.64301 0.50788 0.3557 0.0
C4611 C 0.60463 0.52899 0.37798 0.0
H4612 H 0.61145 0.4969 0.41469 0.0
C4613 C 0.56443 0.5295 0.44698 0.0
C4614 C 0.57344 0.5273 0.46382 0.0
C4615 C 0.57227 0.52725 0.42953 0.0
C4616 C 0.60938 0.50627 0.40486 0.0
H4617 H 0.62516 0.5224 0.31034 0.0
H4618 H 0.60782 0.52395 0.33792 0.0
H4619 H 0.62611 0.4935 0.38588 0.0
H4620 H 0.59809 0.52046 0.47449 0.0
H4621 H 0.6112 0.51589 0.44464 0.0
H4622 H 0.58761 0.54152 0.39707 0.0
C4623 C 0.62039 0.51913 0.33891 0.0
C4624 C 0.61801 0.50433 0.38797 0.0
C4625 C 0.63035 0.518 0.32273 0.0
C4626 C 0.59048 0.52232 0.46214 0.0
C4627 C 0.59807 0.51959 0.44471 0.0
C4628 C 0.59587 0.53085 0.39489 0.0
C4629 C 0.62647 0.51419 0.35601 0.0
C4630 C 0.61616 0.51578 0.37402 0.0
C4631 C 0.58935 0.52217 0.42784 0.0
C4632 C 0.59815 0.5197 0.40899 0.0
H4633 H 0.66572 0.5025 0.34082 0.0
H4634 H 0.64879 0.50409 0.36812 0.0
H4635 H 0.6026 0.5384 0.36817 0.0
H4636 H 0.55145 0.53353 0.44732 0.0
H4637 H 0.56474 0.52936 0.41726 0.0
C4638 C 0.32417 0.92773 0.07694 0.0
C4639 C 0.31499 0.91581 0.06046 0.0
C4640 C 0.32777 0.91948 0.09244 0.0
C4641 C 0.33533 0.87384 0.10266 0.0
H4642 H 0.32121 0.88885 0.15232 0.0
C4643 C 0.33026 0.82198 0.15327 0.0
C4644 C 0.34015 0.82941 0.17058 0.0
C4645 C 0.32662 0.83469 0.14178 0.0
C4646 C 0.32536 0.88473 0.13855 0.0
H4647 H 0.30163 0.88624 0.04749 0.0
H4648 H 0.30786 0.872 0.0745 0.0
H4649 H 0.3171 0.90832 0.12815 0.0
H4650 H 0.35274 0.85529 0.19061 0.0
H4651 H 0.34661 0.87785 0.17017 0.0
H4652 H 0.34328 0.85014 0.11272 0.0
C4653 C 0.31237 0.88761 0.07537 0.0
C4654 C 0.3231 0.89582 0.12486 0.0
C4655 C 0.30863 0.8958 0.06002 0.0
C4656 C 0.3453 0.84954 0.17704 0.0
C4657 C 0.3417 0.86231 0.16551 0.0
C4658 C 0.33757 0.86283 0.11625 0.0
C4659 C 0.32235 0.8993 0.09144 0.0
C4660 C 0.32749 0.88997 0.10672 0.0
C4661 C 0.33297 0.85488 0.14755 0.0
C4662 C 0.33202 0.8678 0.13405 0.0
H4663 H 0.32935 0.9432 0.07755 0.0
H4664 H 0.33549 0.92867 0.10482 0.0
H4665 H 0.33915 0.86939 0.0888 0.0
H4666 H 0.32597 0.8064 0.1484 0.0
H4667 H 0.31948 0.82875 0.12809 0.0
C4668 C 0.95599 0.5398 0.84913 0.0
C4669 C 0.94027 0.54671 0.85252 0.0
C4670 C 0.96981 0.54312 0.86319 0.0
C4671 C 0.99091 0.57564 0.9043 0.0
H4672 H 0.00754 0.53098 0.91678 0.0
C4673 C 0.0292 0.57292 0.9721 0.0
C4674 C 0.04058 0.55976 0.97191 0.0
C4675 C 0.02106 0.57542 0.9555 0.0
C4676 C 1.00341 0.54362 0.91304 0.0
H4677 H 0.9263 0.56222 0.87295 0.0
H4678 H 0.95098 0.56821 0.89792 0.0
H4679 H 0.98277 0.52601 0.89266 0.0
H4680 H 0.05405 0.5405 0.9546 0.0
H4681 H 0.04007 0.5453 0.92533 0.0
H4682 H 0.01142 0.59324 0.92495 0.0
C4683 C 0.95241 0.56033 0.88428 0.0
C4684 C 0.98912 0.54073 0.89952 0.0
C4685 C 0.93838 0.55681 0.87018 0.0
C4686 C 0.04531 0.55072 0.95499 0.0
C4687 C 0.0373 0.5534 0.93833 0.0
C4688 C 0.00536 0.57858 0.91778 0.0
C4689 C 0.9681 0.55346 0.88072 0.0
C4690 C 0.98278 0.5567 0.89525 0.0
C4691 C 0.02435 0.56488 0.93861 0.0
C4692 C 0.01156 0.56255 0.92231 0.0
H4693 H 0.9576 0.53174 0.83563 0.0
H4694 H 0.98192 0.53777 0.86035 0.0
H4695 H 0.98614 0.58806 0.90088 0.0
H4696 H 0.02572 0.58038 0.98509 0.0
H4697 H 0.011 0.58423 0.95606 0.0
C4698 C 0.29993 0.24108 0.56956 0.0
C4699 C 0.29909 0.22107 0.56392 0.0
C4700 C 0.30014 0.24907 0.58849 0.0
C4701 C 0.30954 0.24004 0.6365 0.0
H4702 H 0.27835 0.27567 0.65034 0.0
C4703 C 0.2972 0.26291 0.71351 0.0
C4704 C 0.29763 0.2827 0.71968 0.0
C4705 C 0.29649 0.25547 0.69442 0.0
C4706 C 0.28727 0.26589 0.64673 0.0
H4707 H 0.29844 0.19393 0.57384 0.0
H4708 H 0.29912 0.20786 0.60684 0.0
H4709 H 0.28003 0.26316 0.6174 0.0
H4710 H 0.29775 0.31024 0.71089 0.0
H4711 H 0.2961 0.29725 0.67746 0.0
H4712 H 0.31687 0.24281 0.66578 0.0
C4713 C 0.2995 0.2174 0.59664 0.0
C4714 C 0.28826 0.25873 0.62781 0.0
C4715 C 0.29901 0.20937 0.5777 0.0
C4716 C 0.29694 0.29482 0.70641 0.0
C4717 C 0.29606 0.28736 0.68728 0.0
C4718 C 0.30858 0.24721 0.6554 0.0
C4719 C 0.2998 0.23731 0.60229 0.0
C4720 C 0.29931 0.24558 0.62243 0.0
C4721 C 0.29632 0.26767 0.68104 0.0
C4722 C 0.29731 0.26012 0.66081 0.0
H4723 H 0.29998 0.25052 0.5593 0.0
H4724 H 0.30059 0.26449 0.59231 0.0
H4725 H 0.31844 0.23024 0.6329 0.0
H4726 H 0.29824 0.25339 0.72351 0.0
H4727 H 0.29647 0.2402 0.69016 0.0
C4728 C 0.65223 0.52549 0.20142 0.0
C4729 C 0.64426 0.51161 0.21215 0.0
C4730 C 0.64315 0.52829 0.18467 0.0
C4731 C 0.60433 0.50466 0.14637 0.0
H4732 H 0.61118 0.55633 0.13389 0.0
C4733 C 0.58025 0.51811 0.07115 0.0
C4734 C 0.57429 0.53525 0.06869 0.0
C4735 C 0.58703 0.51498 0.08877 0.0
C4736 C 0.60891 0.54172 0.13699 0.0
H4737 H 0.61979 0.4897 0.21255 0.0
H4738 H 0.60446 0.4939 0.18335 0.0
H4739 H 0.62615 0.55146 0.16289 0.0
H4740 H 0.57024 0.56179 0.08506 0.0
H4741 H 0.58309 0.55725 0.11512 0.0
H4742 H 0.5873 0.49488 0.12034 0.0
C4743 C 0.61783 0.50291 0.18795 0.0
C4744 C 0.61778 0.53883 0.15382 0.0
C4745 C 0.62674 0.50045 0.20496 0.0
C4746 C 0.57502 0.54876 0.08543 0.0
C4747 C 0.58247 0.54599 0.10307 0.0
C4748 C 0.59574 0.50749 0.12937 0.0
C4749 C 0.62566 0.51708 0.17735 0.0
C4750 C 0.61582 0.52021 0.15906 0.0
C4751 C 0.58891 0.52906 0.10524 0.0
C4752 C 0.59776 0.52611 0.1241 0.0
H4753 H 0.66548 0.53469 0.20623 0.0
H4754 H 0.65006 0.53928 0.17731 0.0
H4755 H 0.6022 0.49001 0.14935 0.0
H4756 H 0.58012 0.50694 0.0592 0.0
H4757 H 0.59154 0.50163 0.08924 0.0
C4758 C 0.309 0.88848 0.95705 0.0
C4759 C 0.31735 0.90787 0.95626 0.0
C4760 C 0.30941 0.87363 0.94228 0.0
C4761 C 0.31685 0.86577 0.89275 0.0
H4762 H 0.32807 0.81717 0.90187 0.0
C4763 C 0.33424 0.8175 0.83366 0.0
C4764 C 0.31936 0.80173 0.82797 0.0
C4765 C 0.33722 0.8268 0.85212 0.0
C4766 C 0.32499 0.83074 0.89932 0.0
H4767 H 0.33236 0.92697 0.93933 0.0
H4768 H 0.33352 0.90109 0.91393 0.0
H4769 H 0.32497 0.84198 0.92838 0.0
H4770 H 0.29838 0.78084 0.83757 0.0
H4771 H 0.30297 0.79795 0.86988 0.0
H4772 H 0.31723 0.85487 0.86387 0.0
C4773 C 0.32631 0.89739 0.92572 0.0
C4774 C 0.32305 0.84477 0.91431 0.0
C4775 C 0.32566 0.91222 0.9403 0.0
C4776 C 0.30936 0.79352 0.84148 0.0
C4777 C 0.3122 0.80304 0.86 0.0
C4778 C 0.31904 0.85198 0.87793 0.0
C4779 C 0.31826 0.87798 0.92662 0.0
C4780 C 0.31919 0.86248 0.91108 0.0
C4781 C 0.32532 0.82047 0.86499 0.0
C4782 C 0.32338 0.83457 0.88115 0.0
H4783 H 0.3025 0.88472 0.96924 0.0
H4784 H 0.3029 0.85879 0.94314 0.0
H4785 H 0.31339 0.87905 0.88986 0.0
H4786 H 0.34263 0.82375 0.82366 0.0
H4787 H 0.34754 0.84018 0.85591 0.0
C4788 C 0.95027 0.56348 0.74995 0.0
C4789 C 0.93266 0.55275 0.75092 0.0
C4790 C 0.95795 0.56247 0.73301 0.0
C4791 C 0.95631 0.52644 0.6922 0.0
H4792 H 0.98887 0.56759 0.67402 0.0
C4793 C 0.99731 0.5091 0.63059 0.0
C4794 C 0.01552 0.51899 0.63282 0.0
C4795 C 0.98529 0.51508 0.64282 0.0
C4796 C 0.97986 0.55596 0.67899 0.0
H4797 H 0.90873 0.53381 0.73489 0.0
H4798 H 0.92227 0.53194 0.70524 0.0
H4799 H 0.97051 0.57593 0.69934 0.0
H4800 H 0.0356 0.54311 0.64866 0.0
H4801 H 0.01477 0.55325 0.67068 0.0
H4802 H 0.96622 0.50639 0.67274 0.0
C4803 C 0.93008 0.54108 0.71758 0.0
C4804 C 0.96932 0.56075 0.69336 0.0
C4805 C 0.92233 0.54225 0.73449 0.0
C4806 C 0.02159 0.53517 0.64705 0.0
C4807 C 0.00962 0.54108 0.6594 0.0
C4808 C 0.96693 0.52165 0.678 0.0
C4809 C 0.94817 0.55059 0.71687 0.0
C4810 C 0.95762 0.546 0.70019 0.0
C4811 C 0.99137 0.53099 0.6575 0.0
C4812 C 0.97901 0.53633 0.67142 0.0
H4813 H 0.95847 0.57175 0.76245 0.0
H4814 H 0.97196 0.56984 0.73284 0.0
H4815 H 0.9477 0.51478 0.69754 0.0
H4816 H 0.99241 0.49686 0.61931 0.0
H4817 H 0.97124 0.50726 0.64079 0.0
C4818 C 0.30571 0.23503 0.45953 0.0
C4819 C 0.3019 0.2145 0.45628 0.0
C4820 C 0.30808 0.24519 0.44448 0.0
C4821 C 0.29237 0.23911 0.39591 0.0
H4822 H 0.33765 0.27091 0.38576 0.0
C4823 C 0.30415 0.25042 0.32159 0.0
C4824 C 0.31206 0.26928 0.31877 0.0
C4825 C 0.3042 0.2459 0.33954 0.0
C4826 C 0.32483 0.26229 0.3885 0.0
H4827 H 0.29803 0.18875 0.43455 0.0
H4828 H 0.30175 0.2063 0.40894 0.0
H4829 H 0.33482 0.26092 0.41638 0.0
H4830 H 0.32802 0.29733 0.33273 0.0
H4831 H 0.32772 0.28972 0.36389 0.0
H4832 H 0.28232 0.23999 0.36821 0.0
C4833 C 0.30298 0.21454 0.42299 0.0
C4834 C 0.32322 0.25671 0.40604 0.0
C4835 C 0.30089 0.20452 0.4378 0.0
C4836 C 0.32129 0.28293 0.33425 0.0
C4837 C 0.32128 0.27847 0.35223 0.0
C4838 C 0.29393 0.24472 0.37853 0.0
C4839 C 0.30634 0.23488 0.42609 0.0
C4840 C 0.30712 0.24459 0.40962 0.0
C4841 C 0.3122 0.26009 0.35516 0.0
C4842 C 0.31035 0.25581 0.37436 0.0
H4843 H 0.30668 0.24317 0.47358 0.0
H4844 H 0.31072 0.26096 0.44713 0.0
H4845 H 0.27981 0.22979 0.39842 0.0
H4846 H 0.29714 0.23933 0.31007 0.0
H4847 H 0.29756 0.23135 0.34121 0.0
C4848 C 0.32191 0.60116 0.50875 0.0
C4849 C 0.32298 0.62121 0.51332 0.0
C4850 C 0.33715 0.59378 0.51142 0.0
C4851 C 0.38417 0.60571 0.53363 0.0
H4852 H 0.38762 0.56279 0.49494 0.0
C4853 C 0.4457 0.57494 0.50858 0.0
C4854 C 0.44188 0.55455 0.50418 0.0
C4855 C 0.43283 0.58424 0.51654 0.0
C4856 C 0.38668 0.57458 0.506 0.0
H4857 H 0.34076 0.64944 0.52397 0.0
H4858 H 0.36796 0.63657 0.52729 0.0
H4859 H 0.36178 0.57739 0.49326 0.0
H4860 H 0.42334 0.52769 0.5065 0.0
H4861 H 0.40072 0.54396 0.52047 0.0
H4862 H 0.41007 0.60335 0.54551 0.0
C4863 C 0.35512 0.62651 0.52246 0.0
C4864 C 0.37187 0.58292 0.50508 0.0
C4865 C 0.33965 0.63388 0.52033 0.0
C4866 C 0.42624 0.54346 0.50965 0.0
C4867 C 0.41351 0.55273 0.51778 0.0
C4868 C 0.39933 0.59751 0.53433 0.0
C4869 C 0.35397 0.60638 0.51795 0.0
C4870 C 0.37026 0.59833 0.51901 0.0
C4871 C 0.41625 0.57308 0.5201 0.0
C4872 C 0.4004 0.58168 0.52065 0.0
H4873 H 0.30922 0.59103 0.50349 0.0
H4874 H 0.33572 0.57814 0.5083 0.0
H4875 H 0.38324 0.61761 0.54455 0.0
H4876 H 0.4579 0.58358 0.5045 0.0
H4877 H 0.43504 0.59995 0.51807 0.0
C4878 C 0.86285 0.9338 0.54849 0.0
C4879 C 0.8584 0.91564 0.53648 0.0
C4880 C 0.88022 0.94588 0.54966 0.0
C4881 C 0.91928 0.95531 0.52174 0.0
H4882 H 0.94532 0.98591 0.56785 0.0
C4883 C 0.99371 0.99496 0.52362 0.0
C4884 C 1.00022 0.01355 0.53466 0.0
C4885 C 0.97639 0.98397 0.52489 0.0
C4886 C 0.93813 0.97772 0.5548 0.0
H4887 H 0.86893 0.89517 0.51741 0.0
H4888 H 0.89926 0.91631 0.51917 0.0
H4889 H 0.91561 0.96439 0.56848 0.0
H4890 H 0.99333 0.03476 0.55624 0.0
H4891 H 0.96282 0.01544 0.55846 0.0
H4892 H 0.9414 0.96873 0.50793 0.0
C4893 C 0.88926 0.92143 0.52747 0.0
C4894 C 0.9211 0.96528 0.55517 0.0
C4895 C 0.87194 0.90925 0.52651 0.0
C4896 C 0.98882 0.02062 0.54739 0.0
C4897 C 0.97132 0.00946 0.54873 0.0
C4898 C 0.93612 0.96783 0.52133 0.0
C4899 C 0.89356 0.94008 0.53881 0.0
C4900 C 0.91156 0.95368 0.53865 0.0
C4901 C 0.96477 0.99103 0.53727 0.0
C4902 C 0.94603 0.97898 0.53787 0.0
H4903 H 0.85273 0.93888 0.55665 0.0
H4904 H 0.88295 0.9601 0.55849 0.0
H4905 H 0.91222 0.94701 0.50868 0.0
H4906 H 1.00195 0.98873 0.51373 0.0
H4907 H 0.97218 0.96972 0.51615 0.0
C4908 C 0.9051 0.12428 0.26168 0.0
C4909 C 0.91144 0.12032 0.27905 0.0
C4910 C 0.89559 0.13959 0.26033 0.0
C4911 C 0.88224 0.1852 0.28925 0.0
H4912 H 0.84936 0.18101 0.24556 0.0
C4913 C 0.83436 0.24315 0.28387 0.0
C4914 C 0.82875 0.24686 0.26611 0.0
C4915 C 0.84425 0.22824 0.28594 0.0
C4916 C 0.85857 0.18292 0.25794 0.0
H4917 H 0.91184 0.13053 0.30869 0.0
H4918 H 0.89639 0.15705 0.30648 0.0
H4919 H 0.86642 0.15598 0.24775 0.0
H4920 H 0.83001 0.23676 0.23674 0.0
H4921 H 0.84617 0.21119 0.24013 0.0
H4922 H 0.87422 0.21218 0.29944 0.0
C4923 C 0.89866 0.14841 0.29359 0.0
C4924 C 0.86865 0.16815 0.25922 0.0
C4925 C 0.90781 0.1329 0.29491 0.0
C4926 C 0.83354 0.23461 0.25073 0.0
C4927 C 0.84303 0.21958 0.25275 0.0
C4928 C 0.87212 0.20001 0.28798 0.0
C4929 C 0.89189 0.15221 0.27626 0.0
C4930 C 0.88093 0.16866 0.27489 0.0
C4931 C 0.84896 0.21585 0.2704 0.0
C4932 C 0.8599 0.19949 0.27222 0.0
H4933 H 0.9068 0.11495 0.24895 0.0
H4934 H 0.89107 0.14138 0.24652 0.0
H4935 H 0.89142 0.18705 0.30164 0.0
H4936 H 0.8316 0.25219 0.29631 0.0
H4937 H 0.84819 0.22647 0.29995 0.0
C4938 C 0.72144 0.14315 0.01944 0.0
C4939 C 0.73584 0.13434 0.02285 0.0
C4940 C 0.70412 0.13433 0.02302 0.0
C4941 C 0.67501 0.09374 0.01489 0.0
H4942 H 0.65308 0.0932 0.06168 0.0
C4943 C 0.60692 0.04732 0.01368 0.0
C4944 C 0.59579 0.06064 0.01629 0.0
C4945 C 0.62488 0.05305 0.02119 0.0
C4946 C 0.65946 0.09287 0.04875 0.0
H4947 H 0.74436 0.11088 0.03403 0.0
H4948 H 0.71396 0.09521 0.03976 0.0
H4949 H 0.68306 0.11457 0.061 0.0
H4950 H 0.59344 0.08951 0.02894 0.0
H4951 H 0.62502 0.09989 0.04133 0.0
H4952 H 0.6518 0.07228 1.00242 0.0
C4953 C 0.71604 0.10875 0.03438 0.0
C4954 C 0.67615 0.10529 0.04828 0.0
C4955 C 0.73317 0.11739 0.03067 0.0
C4956 C 0.60213 0.07922 0.0269 0.0
C4957 C 0.61997 0.08496 0.03427 0.0
C4958 C 0.65872 0.08099 0.01541 0.0
C4959 C 0.70156 0.11714 0.03047 0.0
C4960 C 0.68363 0.10589 0.03124 0.0
C4961 C 0.63154 0.07215 0.03089 0.0
C4962 C 0.6507 0.0808 0.03223 0.0
H4963 H 0.72358 0.15654 0.01382 0.0
H4964 H 0.69276 0.14058 0.01967 0.0
H4965 H 0.68085 0.09424 1.00173 0.0
H4966 H 0.60187 0.03282 0.00563 0.0
H4967 H 0.63388 0.04321 0.01828 0.0
C4968 C 0.21968 0.49987 0.23135 0.0
C4969 C 0.20748 0.50259 0.24466 0.0
C4970 C 0.22516 0.48236 0.228 0.0
C4971 C 0.22345 0.43622 0.2467 0.0
H4972 H 0.27515 0.45829 0.25566 0.0
C4973 C 0.27189 0.41271 0.29731 0.0
C4974 C 0.28874 0.41087 0.29122 0.0
C4975 C 0.26009 0.41996 0.28645 0.0
C4976 C 0.26081 0.4517 0.2528 0.0
H4977 H 0.18949 0.4892 0.26317 0.0
H4978 H 0.20016 0.45904 0.25866 0.0
H4979 H 0.25586 0.47606 0.24198 0.0
H4980 H 0.30656 0.41445 0.26927 0.0
H4981 H 0.28616 0.42771 0.25048 0.0
H4982 H 0.22874 0.41248 0.25918 0.0
C4983 C 0.20512 0.46987 0.25023 0.0
C4984 C 0.24968 0.46178 0.24473 0.0
C4985 C 0.19919 0.48719 0.25308 0.0
C4986 C 0.29382 0.41646 0.27439 0.0
C4987 C 0.28209 0.4237 0.26359 0.0
C4988 C 0.23468 0.42616 0.255 0.0
C4989 C 0.21919 0.46795 0.23874 0.0
C4990 C 0.23081 0.4545 0.24217 0.0
C4991 C 0.26511 0.42536 0.26947 0.0
C4992 C 0.25335 0.4342 0.25857 0.0
H4993 H 0.22581 0.51169 0.22447 0.0
H4994 H 0.23558 0.48098 0.21862 0.0
H4995 H 0.20897 0.43024 0.24479 0.0
H4996 H 0.26758 0.40775 0.30997 0.0
H4997 H 0.24711 0.42139 0.29132 0.0
C4998 C 0.26106 0.42849 0.04352 0.0
C4999 C 0.26188 0.41143 0.03129 0.0
C5000 C 0.24536 0.43582 0.04331 0.0
C5001 C 0.20866 0.4369 0.00938 0.0
H5002 H 0.19092 0.46574 0.05141 0.0
C5003 C 0.154 0.47929 0.99705 0.0
C5004 C 0.15627 0.49782 0.00798 0.0
C5005 C 0.16418 0.4663 1.00186 0.0
C5006 C 0.19579 0.45786 0.03951 0.0
H5007 H 0.24682 0.388 0.00998 0.0
H5008 H 0.21916 0.4007 0.00962 0.0
H5009 H 0.21326 0.44657 0.05694 0.0
H5010 H 0.17036 0.51733 0.03267 0.0
H5011 H 0.18876 0.49498 0.04083 0.0
H5012 H 0.19206 0.44878 0.99189 0.0
C5013 C 0.23067 0.40846 0.01936 0.0
C5014 C 0.20852 0.44678 0.0427 0.0
C5015 C 0.24638 0.40105 0.01969 0.0
C5016 C 0.16843 0.50302 0.02411 0.0
C5017 C 0.17884 0.49014 0.0288 0.0
C5018 C 0.1961 0.44806 0.0062 0.0
C5019 C 0.23025 0.42633 0.03066 0.0
C5020 C 0.21522 0.43631 0.02764 0.0
C5021 C 0.17712 0.47174 0.0175 0.0
C5022 C 0.18959 0.45884 0.02119 0.0
H5023 H 0.27293 0.43678 0.05249 0.0
H5024 H 0.24557 0.44965 0.05211 0.0
H5025 H 0.21385 0.42943 0.99745 0.0
H5026 H 0.14456 0.475 0.98461 0.0
H5027 H 0.16212 0.45211 0.99308 0.0
C5028 C 0.91814 1.00021 0.27622 0.0
C5029 C 0.91019 0.01579 0.27299 0.0
C5030 C 0.9076 0.981 0.2755 0.0
C5031 C 0.86111 0.9517 0.28019 0.0
H5032 H 0.87637 0.90814 0.25205 0.0
C5033 C 0.81746 0.87014 0.27523 0.0
C5034 C 0.82516 0.85398 0.26942 0.0
C5035 C 0.82707 0.88976 0.27533 0.0
C5036 C 0.87175 0.91975 0.26043 0.0
H5037 H 0.88456 0.02186 0.26429 0.0
H5038 H 0.86609 0.98913 0.26466 0.0
H5039 H 0.89411 0.94099 0.25362 0.0
H5040 H 0.84968 0.84699 0.25903 0.0
H5041 H 0.86603 0.87985 0.25965 0.0
H5042 H 0.83917 0.93068 0.28769 0.0
C5043 C 0.88059 0.99185 0.26809 0.0
C5044 C 0.88215 0.93902 0.26117 0.0
C5045 C 0.89123 0.01091 0.26819 0.0
C5046 C 0.84287 0.85857 0.26366 0.0
C5047 C 0.85244 0.87798 0.26386 0.0
C5048 C 0.85091 0.93235 0.27985 0.0
C5049 C 0.8885 0.97636 0.2717 0.0
C5050 C 0.87712 0.95552 0.27103 0.0
C5051 C 0.84497 0.89435 0.26969 0.0
C5052 C 0.85587 0.91564 0.26996 0.0
H5053 H 0.93267 1.00288 0.27937 0.0
H5054 H 0.91449 0.96973 0.27817 0.0
H5055 H 0.85661 0.96375 0.28806 0.0
H5056 H 0.80402 0.86772 0.27993 0.0
H5057 H 0.8202 0.90128 0.27983 0.0
C5058 C 0.72888 0.09762 0.73898 0.0
C5059 C 0.71415 0.09944 0.74941 0.0
C5060 C 0.74189 0.11399 0.73749 0.0
C5061 C 0.75967 0.15694 0.73158 0.0
H5062 H 0.78352 0.18146 0.78069 0.0
C5063 C 0.77521 0.23448 0.76232 0.0
C5064 C 0.79185 0.24382 0.77215 0.0
C5065 C 0.77238 0.21517 0.75397 0.0
C5066 C 0.77761 0.17435 0.76676 0.0
H5067 H 0.70033 0.11927 0.7653 0.0
H5068 H 0.72365 0.14841 0.76305 0.0
H5069 H 0.76069 0.15154 0.77713 0.0
H5070 H 0.81835 0.24084 0.78232 0.0
H5071 H 0.81291 0.20604 0.76836 0.0
H5072 H 0.77399 0.18205 0.72183 0.0
C5073 C 0.725 0.13422 0.75612 0.0
C5074 C 0.76451 0.15731 0.76482 0.0
C5075 C 0.71183 0.11778 0.75747 0.0
C5076 C 0.80553 0.23369 0.77437 0.0
C5077 C 0.8026 0.21412 0.76618 0.0
C5078 C 0.7722 0.17465 0.73366 0.0
C5079 C 0.74017 0.13223 0.74639 0.0
C5080 C 0.75519 0.14886 0.74743 0.0
C5081 C 0.78602 0.20488 0.75586 0.0
C5082 C 0.78055 0.1838 0.75148 0.0
H5083 H 0.73051 0.08346 0.73229 0.0
H5084 H 0.75365 0.11234 0.73011 0.0
H5085 H 0.75245 0.15044 0.71804 0.0
H5086 H 0.76445 0.24221 0.76099 0.0
H5087 H 0.75918 0.20799 0.74681 0.0
loop_
_geom_bond_atom_site_label_1
_geom_bond_atom_site_label_2
_geom_bond_distance
_geom_bond_site_symmetry_2
_ccdc_geom_bond_type
Mn0 O5 2.095 . S
Mn0 O15 2.162 . S
Mn0 O16 2.297 . S
Mn0 O24 2.385 . S
Mn0 O25 2.209 . S
Mn0 O26 2.094 . S
Mn1 O6 2.121 . S
Mn1 N8 2.257 . S
Mn1 N17 2.282 . S
Mn1 O25 2.215 . S
Mn1 O27 2.117 . S
C2 O24 1.234 . S
C2 O25 1.283 . S
C3 O15 1.281 . S
C3 O16 1.236 . S
C4 O26 1.240 . S
C4 O27 1.264 . S
O5 Mn0 2.095 . S
O5 C14 1.250 . S
O6 Mn1 2.121 . S
O6 C14 1.258 . S
C7 N8 1.326 . S
C7 C11 1.460 . S
C7 H13 0.929 . S
N8 Mn1 2.257 . S
N8 C7 1.326 . S
N8 C12 1.362 . S
C9 C10 1.258 . S
C9 C12 1.431 . S
C9 C29 1.449 . S
C10 C9 1.258 . S
C10 C11 1.477 . S
C10 H30 0.931 . S
C11 C7 1.460 . S
C11 C10 1.477 . S
C11 H31 0.930 . S
C12 N8 1.362 . S
C12 C9 1.431 . S
C12 C22 1.476 . S
H13 C7 0.929 . S
C14 O5 1.250 . S
C14 O6 1.258 . S
O15 Mn0 2.162 . S
O15 C3 1.281 . S
O16 Mn0 2.297 . S
O16 C3 1.236 . S
N17 Mn1 2.282 . S
N17 C18 1.328 . S
N17 C22 1.318 . S
C18 N17 1.328 . S
C18 C19 1.457 . S
C18 H23 0.929 . S
C19 C18 1.457 . S
C19 C20 1.291 . S
C19 H32 0.931 . S
C20 C19 1.291 . S
C20 C21 1.373 . S
C20 H33 0.929 . S
C21 C20 1.373 . S
C21 C22 1.396 . S
C21 C28 1.403 . S
C22 C12 1.476 . S
C22 N17 1.318 . S
C22 C21 1.396 . S
H23 C18 0.929 . S
O24 Mn0 2.385 . S
O24 C2 1.234 . S
O25 Mn0 2.209 . S
O25 Mn1 2.215 . S
O25 C2 1.283 . S
O26 Mn0 2.094 . S
O26 C4 1.240 . S
O27 Mn1 2.117 . S
O27 C4 1.264 . S
C28 C21 1.403 . S
C28 C29 1.399 . S
C28 H34 0.929 . S
C29 C9 1.449 . S
C29 C28 1.399 . S
C29 H35 0.930 . S
H30 C10 0.931 . S
H31 C11 0.930 . S
H32 C19 0.931 . S
H33 C20 0.929 . S
H34 C28 0.929 . S
H35 C29 0.930 . S
Mn36 O41 2.059 1_455 S
Mn36 O51 2.163 1_455 S
Mn36 O52 2.302 1_455 S
Mn36 O60 2.423 . S
Mn36 O61 2.224 . S
Mn36 O62 2.091 . S
Mn37 O42 2.121 1_455 S
Mn37 N44 2.257 . S
Mn37 N53 2.282 . S
Mn37 O61 2.215 . S
Mn37 O63 2.117 . S
C38 O60 1.234 . S
C38 O61 1.283 . S
C39 O51 1.281 . S
C39 O52 1.236 . S
C40 O62 1.240 . S
C40 O63 1.264 . S
O41 Mn36 2.059 1_655 S
O41 C50 1.250 . S
O42 Mn37 2.121 1_655 S
O42 C50 1.258 . S
C43 N44 1.326 . S
C43 C47 1.460 . S
C43 H49 0.929 1_455 S
N44 Mn37 2.257 . S
N44 C43 1.326 . S
N44 C48 1.362 . S
C45 C46 1.258 . S
C45 C48 1.431 . S
C45 C65 1.449 . S
C46 C45 1.258 . S
C46 C47 1.477 . S
C46 H66 0.931 . S
C47 C43 1.460 . S
C47 C46 1.477 . S
C47 H67 0.930 . S
C48 N44 1.362 . S
C48 C45 1.431 . S
C48 C58 1.476 . S
H49 C43 0.929 1_655 S
C50 O41 1.250 . S
C50 O42 1.258 . S
O51 Mn36 2.163 1_655 S
O51 C39 1.281 . S
O52 Mn36 2.302 1_655 S
O52 C39 1.236 . S
N53 Mn37 2.282 . S
N53 C54 1.328 . S
N53 C58 1.318 . S
C54 N53 1.328 . S
C54 C55 1.457 . S
C54 H59 0.929 . S
C55 C54 1.457 . S
C55 C56 1.291 . S
C55 H68 0.931 . S
C56 C55 1.291 . S
C56 C57 1.373 . S
C56 H69 0.929 . S
C57 C56 1.373 . S
C57 C58 1.396 . S
C57 C64 1.403 . S
C58 C48 1.476 . S
C58 N53 1.318 . S
C58 C57 1.396 . S
H59 C54 0.929 . S
O60 Mn36 2.423 . S
O60 C38 1.234 . S
O61 Mn36 2.224 . S
O61 Mn37 2.215 . S
O61 C38 1.283 . S
O62 Mn36 2.091 . S
O62 C40 1.240 . S
O63 Mn37 2.117 . S
O63 C40 1.264 . S
C64 C57 1.403 . S
C64 C65 1.399 . S
C64 H70 0.929 . S
C65 C45 1.449 . S
C65 C64 1.399 . S
C65 H71 0.930 . S
H66 C46 0.931 . S
H67 C47 0.930 . S
H68 C55 0.931 . S
H69 C56 0.929 . S
H70 C64 0.929 . S
H71 C65 0.930 . S
Mn72 O77 2.095 . S
Mn72 O87 2.162 . S
Mn72 O88 2.297 . S
Mn72 O96 2.385 . S
Mn72 O97 2.209 . S
Mn72 O98 2.094 . S
Mn73 O78 2.121 . S
Mn73 N80 2.257 . S
Mn73 N89 2.282 . S
Mn73 O97 2.215 . S
Mn73 O99 2.117 . S
C74 O96 1.234 . S
C74 O97 1.283 . S
C75 O87 1.281 . S
C75 O88 1.236 . S
C76 O98 1.240 . S
C76 O99 1.264 . S
O77 Mn72 2.095 . S
O77 C86 1.250 . S
O78 Mn73 2.121 . S
O78 C86 1.258 . S
C79 N80 1.326 . S
C79 C83 1.460 . S
C79 H85 0.929 . S
N80 Mn73 2.257 . S
N80 C79 1.326 . S
N80 C84 1.362 . S
C81 C82 1.258 . S
C81 C84 1.431 . S
C81 C101 1.449 . S
C82 C81 1.258 . S
C82 C83 1.477 . S
C82 H102 0.931 . S
C83 C79 1.460 . S
C83 C82 1.477 . S
C83 H103 0.930 . S
C84 N80 1.362 . S
C84 C81 1.431 . S
C84 C94 1.476 . S
H85 C79 0.929 . S
C86 O77 1.250 . S
C86 O78 1.258 . S
O87 Mn72 2.162 . S
O87 C75 1.281 . S
O88 Mn72 2.297 . S
O88 C75 1.236 . S
N89 Mn73 2.282 . S
N89 C90 1.328 . S
N89 C94 1.318 . S
C90 N89 1.328 . S
C90 C91 1.457 . S
C90 H95 0.929 . S
C91 C90 1.457 . S
C91 C92 1.291 . S
C91 H104 0.931 . S
C92 C91 1.291 . S
C92 C93 1.373 . S
C92 H105 0.929 . S
C93 C92 1.373 . S
C93 C94 1.396 . S
C93 C100 1.403 . S
C94 C84 1.476 . S
C94 N89 1.318 . S
C94 C93 1.396 . S
H95 C90 0.929 . S
O96 Mn72 2.385 . S
O96 C74 1.234 . S
O97 Mn72 2.209 . S
O97 Mn73 2.215 . S
O97 C74 1.283 . S
O98 Mn72 2.094 . S
O98 C76 1.240 . S
O99 Mn73 2.117 . S
O99 C76 1.264 . S
C100 C93 1.403 . S
C100 C101 1.399 . S
C100 H106 0.929 . S
C101 C81 1.449 . S
C101 C100 1.399 . S
C101 H107 0.930 . S
H102 C82 0.931 . S
H103 C83 0.930 . S
H104 C91 0.931 . S
H105 C92 0.929 . S
H106 C100 0.929 . S
H107 C101 0.930 . S
Mn108 O113 2.095 . S
Mn108 O123 2.162 . S
Mn108 O124 2.297 . S
Mn108 O132 2.385 . S
Mn108 O133 2.209 . S
Mn108 O134 2.094 . S
Mn109 O114 2.121 . S
Mn109 N116 2.257 . S
Mn109 N125 2.282 . S
Mn109 O133 2.215 . S
Mn109 O135 2.117 . S
C110 O132 1.234 . S
C110 O133 1.283 . S
C111 O123 1.281 . S
C111 O124 1.236 . S
C112 O134 1.240 . S
C112 O135 1.264 . S
O113 Mn108 2.095 . S
O113 C122 1.250 . S
O114 Mn109 2.121 . S
O114 C122 1.258 . S
C115 N116 1.326 . S
C115 C119 1.460 . S
C115 H121 0.929 . S
N116 Mn109 2.257 . S
N116 C115 1.326 . S
N116 C120 1.362 . S
C117 C118 1.258 . S
C117 C120 1.431 . S
C117 C137 1.449 . S
C118 C117 1.258 . S
C118 C119 1.477 . S
C118 H138 0.931 . S
C119 C115 1.460 . S
C119 C118 1.477 . S
C119 H139 0.930 . S
C120 N116 1.362 . S
C120 C117 1.431 . S
C120 C130 1.476 . S
H121 C115 0.929 . S
C122 O113 1.250 . S
C122 O114 1.258 . S
O123 Mn108 2.162 . S
O123 C111 1.281 . S
O124 Mn108 2.297 . S
O124 C111 1.236 . S
N125 Mn109 2.282 . S
N125 C126 1.328 . S
N125 C130 1.318 . S
C126 N125 1.328 . S
C126 C127 1.457 . S
C126 H131 0.929 . S
C127 C126 1.457 . S
C127 C128 1.291 . S
C127 H140 0.931 . S
C128 C127 1.291 . S
C128 C129 1.373 . S
C128 H141 0.929 . S
C129 C128 1.373 . S
C129 C130 1.396 . S
C129 C136 1.403 . S
C130 C120 1.476 . S
C130 N125 1.318 . S
C130 C129 1.396 . S
H131 C126 0.929 . S
O132 Mn108 2.385 . S
O132 C110 1.234 . S
O133 Mn108 2.209 . S
O133 Mn109 2.215 . S
O133 C110 1.283 . S
O134 Mn108 2.094 . S
O134 C112 1.240 . S
O135 Mn109 2.117 . S
O135 C112 1.264 . S
C136 C129 1.403 . S
C136 C137 1.399 . S
C136 H142 0.929 . S
C137 C117 1.449 . S
C137 C136 1.399 . S
C137 H143 0.930 . S
H138 C118 0.931 . S
H139 C119 0.930 . S
H140 C127 0.931 . S
H141 C128 0.929 . S
H142 C136 0.929 . S
H143 C137 0.930 . S
Mn144 O149 2.095 . S
Mn144 O159 2.162 . S
Mn144 O160 2.297 . S
Mn144 O168 2.385 . S
Mn144 O169 2.209 . S
Mn144 O170 2.094 . S
Mn145 O150 2.121 . S
Mn145 N152 2.257 . S
Mn145 N161 2.282 . S
Mn145 O169 2.215 . S
Mn145 O171 2.117 . S
C146 O168 1.234 . S
C146 O169 1.283 . S
C147 O159 1.281 . S
C147 O160 1.236 . S
C148 O170 1.240 . S
C148 O171 1.264 . S
O149 Mn144 2.095 . S
O149 C158 1.250 . S
O150 Mn145 2.121 . S
O150 C158 1.258 . S
C151 N152 1.326 . S
C151 C155 1.460 . S
C151 H157 0.929 . S
N152 Mn145 2.257 . S
N152 C151 1.326 . S
N152 C156 1.362 . S
C153 C154 1.258 . S
C153 C156 1.431 . S
C153 C173 1.449 . S
C154 C153 1.258 . S
C154 C155 1.477 . S
C154 H174 0.931 1_554 S
C155 C151 1.460 . S
C155 C154 1.477 . S
C155 H175 0.930 . S
C156 N152 1.362 . S
C156 C153 1.431 . S
C156 C166 1.476 . S
H157 C151 0.929 . S
C158 O149 1.250 . S
C158 O150 1.258 . S
O159 Mn144 2.162 . S
O159 C147 1.281 . S
O160 Mn144 2.297 . S
O160 C147 1.236 . S
N161 Mn145 2.282 . S
N161 C162 1.328 . S
N161 C166 1.318 . S
C162 N161 1.328 . S
C162 C163 1.457 . S
C162 H167 0.929 . S
C163 C162 1.457 . S
C163 C164 1.291 . S
C163 H176 0.931 . S
C164 C163 1.291 . S
C164 C165 1.373 . S
C164 H177 0.929 . S
C165 C164 1.373 . S
C165 C166 1.396 . S
C165 C172 1.403 . S
C166 C156 1.476 . S
C166 N161 1.318 . S
C166 C165 1.396 . S
H167 C162 0.929 . S
O168 Mn144 2.385 . S
O168 C146 1.234 . S
O169 Mn144 2.209 . S
O169 Mn145 2.215 . S
O169 C146 1.283 . S
O170 Mn144 2.094 . S
O170 C148 1.240 . S
O171 Mn145 2.117 . S
O171 C148 1.264 . S
C172 C165 1.403 . S
C172 C173 1.399 . S
C172 H178 0.929 . S
C173 C153 1.449 . S
C173 C172 1.399 . S
C173 H179 0.930 1_554 S
H174 C154 0.931 1_556 S
H175 C155 0.930 . S
H176 C163 0.931 . S
H177 C164 0.929 . S
H178 C172 0.929 . S
H179 C173 0.930 1_556 S
Mn180 O185 2.095 . S
Mn180 O195 2.162 . S
Mn180 O196 2.297 . S
Mn180 O204 2.385 . S
Mn180 O205 2.209 . S
Mn180 O206 2.094 . S
Mn181 O186 2.121 . S
Mn181 N188 2.257 . S
Mn181 N197 2.282 . S
Mn181 O205 2.215 . S
Mn181 O207 2.117 . S
C182 O204 1.234 . S
C182 O205 1.283 . S
C183 O195 1.281 . S
C183 O196 1.236 . S
C184 O206 1.240 . S
C184 O207 1.264 . S
O185 Mn180 2.095 . S
O185 C194 1.250 . S
O186 Mn181 2.121 . S
O186 C194 1.258 . S
C187 N188 1.326 . S
C187 C191 1.460 . S
C187 H193 0.929 . S
N188 Mn181 2.257 . S
N188 C187 1.326 . S
N188 C192 1.362 . S
C189 C190 1.258 . S
C189 C192 1.431 . S
C189 C209 1.449 . S
C190 C189 1.258 . S
C190 C191 1.477 . S
C190 H210 0.931 . S
C191 C187 1.460 . S
C191 C190 1.477 . S
C191 H211 0.930 . S
C192 N188 1.362 . S
C192 C189 1.431 . S
C192 C202 1.476 . S
H193 C187 0.929 . S
C194 O185 1.250 . S
C194 O186 1.258 . S
O195 Mn180 2.162 . S
O195 C183 1.281 . S
O196 Mn180 2.297 . S
O196 C183 1.236 . S
N197 Mn181 2.282 . S
N197 C198 1.328 . S
N197 C202 1.318 . S
C198 N197 1.328 . S
C198 C199 1.457 . S
C198 H203 0.929 . S
C199 C198 1.457 . S
C199 C200 1.291 . S
C199 H212 0.931 . S
C200 C199 1.291 . S
C200 C201 1.373 . S
C200 H213 0.929 . S
C201 C200 1.373 . S
C201 C202 1.396 . S
C201 C208 1.403 . S
C202 C192 1.476 . S
C202 N197 1.318 . S
C202 C201 1.396 . S
H203 C198 0.929 . S
O204 Mn180 2.385 . S
O204 C182 1.234 . S
O205 Mn180 2.209 . S
O205 Mn181 2.215 . S
O205 C182 1.283 . S
O206 Mn180 2.094 . S
O206 C184 1.240 . S
O207 Mn181 2.117 . S
O207 C184 1.264 . S
C208 C201 1.403 . S
C208 C209 1.399 . S
C208 H214 0.929 . S
C209 C189 1.449 . S
C209 C208 1.399 . S
C209 H215 0.930 . S
H210 C190 0.931 . S
H211 C191 0.930 . S
H212 C199 0.931 . S
H213 C200 0.929 . S
H214 C208 0.929 . S
H215 C209 0.930 . S
Mn216 O221 2.095 . S
Mn216 O231 2.162 . S
Mn216 O232 2.297 . S
Mn216 O240 2.385 . S
Mn216 O241 2.209 . S
Mn216 O242 2.094 . S
Mn217 O222 2.121 . S
Mn217 N224 2.257 . S
Mn217 N233 2.282 . S
Mn217 O241 2.215 . S
Mn217 O243 2.117 . S
C218 O240 1.234 . S
C218 O241 1.283 . S
C219 O231 1.281 . S
C219 O232 1.236 . S
C220 O242 1.240 . S
C220 O243 1.264 . S
O221 Mn216 2.095 . S
O221 C230 1.250 . S
O222 Mn217 2.121 . S
O222 C230 1.258 . S
C223 N224 1.326 . S
C223 C227 1.460 . S
C223 H229 0.929 . S
N224 Mn217 2.257 . S
N224 C223 1.326 . S
N224 C228 1.362 . S
C225 C226 1.258 . S
C225 C228 1.431 . S
C225 C245 1.449 . S
C226 C225 1.258 . S
C226 C227 1.477 . S
C226 H246 0.931 . S
C227 C223 1.460 . S
C227 C226 1.477 . S
C227 H247 0.930 . S
C228 N224 1.362 . S
C228 C225 1.431 . S
C228 C238 1.476 . S
H229 C223 0.929 . S
C230 O221 1.250 . S
C230 O222 1.258 . S
O231 Mn216 2.162 . S
O231 C219 1.281 . S
O232 Mn216 2.297 . S
O232 C219 1.236 . S
N233 Mn217 2.282 . S
N233 C234 1.328 . S
N233 C238 1.318 . S
C234 N233 1.328 . S
C234 C235 1.457 . S
C234 H239 0.929 . S
C235 C234 1.457 . S
C235 C236 1.291 . S
C235 H248 0.931 . S
C236 C235 1.291 . S
C236 C237 1.373 . S
C236 H249 0.929 . S
C237 C236 1.373 . S
C237 C238 1.396 . S
C237 C244 1.403 . S
C238 C228 1.476 . S
C238 N233 1.318 . S
C238 C237 1.396 . S
H239 C234 0.929 . S
O240 Mn216 2.385 . S
O240 C218 1.234 . S
O241 Mn216 2.209 . S
O241 Mn217 2.215 . S
O241 C218 1.283 . S
O242 Mn216 2.094 . S
O242 C220 1.240 . S
O243 Mn217 2.117 . S
O243 C220 1.264 . S
C244 C237 1.403 . S
C244 C245 1.399 . S
C244 H250 0.929 . S
C245 C225 1.449 . S
C245 C244 1.399 . S
C245 H251 0.930 . S
H246 C226 0.931 . S
H247 C227 0.930 . S
H248 C235 0.931 . S
H249 C236 0.929 . S
H250 C244 0.929 . S
H251 C245 0.930 . S
Mn252 O257 2.095 . S
Mn252 O267 2.162 . S
Mn252 O268 2.297 . S
Mn252 O276 2.385 1_455 S
Mn252 O277 2.209 . S
Mn252 O278 2.094 . S
Mn253 O258 2.121 . S
Mn253 N260 2.257 . S
Mn253 N269 2.282 1_455 S
Mn253 O277 2.215 . S
Mn253 O279 2.117 . S
C254 O276 1.234 . S
C254 O277 1.283 1_655 S
C255 O267 1.281 . S
C255 O268 1.236 . S
C256 O278 1.240 . S
C256 O279 1.264 . S
O257 Mn252 2.095 . S
O257 C266 1.250 . S
O258 Mn253 2.121 . S
O258 C266 1.258 . S
C259 N260 1.326 . S
C259 C263 1.460 . S
C259 H265 0.929 . S
N260 Mn253 2.257 . S
N260 C259 1.326 . S
N260 C264 1.362 1_455 S
C261 C262 1.258 . S
C261 C264 1.431 . S
C261 C281 1.449 . S
C262 C261 1.258 . S
C262 C263 1.477 1_655 S
C262 H282 0.931 . S
C263 C259 1.460 . S
C263 C262 1.477 1_455 S
C263 H283 0.930 . S
C264 N260 1.362 1_655 S
C264 C261 1.431 . S
C264 C274 1.476 . S
H265 C259 0.929 . S
C266 O257 1.250 . S
C266 O258 1.258 . S
O267 Mn252 2.162 . S
O267 C255 1.281 . S
O268 Mn252 2.297 . S
O268 C255 1.236 . S
N269 Mn253 2.282 1_655 S
N269 C270 1.328 . S
N269 C274 1.318 . S
C270 N269 1.328 . S
C270 C271 1.457 . S
C270 H275 0.929 . S
C271 C270 1.457 . S
C271 C272 1.291 . S
C271 H284 0.931 . S
C272 C271 1.291 . S
C272 C273 1.373 . S
C272 H285 0.929 . S
C273 C272 1.373 . S
C273 C274 1.396 . S
C273 C280 1.403 . S
C274 C264 1.476 . S
C274 N269 1.318 . S
C274 C273 1.396 . S
H275 C270 0.929 . S
O276 Mn252 2.385 1_655 S
O276 C254 1.234 . S
O277 Mn252 2.209 . S
O277 Mn253 2.215 . S
O277 C254 1.283 1_455 S
O278 Mn252 2.094 . S
O278 C256 1.240 . S
O279 Mn253 2.117 . S
O279 C256 1.264 . S
C280 C273 1.403 . S
C280 C281 1.399 . S
C280 H286 0.929 . S
C281 C261 1.449 . S
C281 C280 1.399 . S
C281 H287 0.930 . S
H282 C262 0.931 . S
H283 C263 0.930 . S
H284 C271 0.931 . S
H285 C272 0.929 . S
H286 C280 0.929 . S
H287 C281 0.930 . S
Mn288 O293 2.095 . S
Mn288 O303 2.162 . S
Mn288 O304 2.297 . S
Mn288 O312 2.385 1_545 S
Mn288 O313 2.209 . S
Mn288 O314 2.094 . S
Mn289 O294 2.121 . S
Mn289 N296 2.257 . S
Mn289 N305 2.282 1_545 S
Mn289 O313 2.215 . S
Mn289 O315 2.117 . S
C290 O312 1.234 . S
C290 O313 1.283 1_565 S
C291 O303 1.281 . S
C291 O304 1.236 . S
C292 O314 1.240 . S
C292 O315 1.264 . S
O293 Mn288 2.095 . S
O293 C302 1.250 . S
O294 Mn289 2.121 . S
O294 C302 1.258 . S
C295 N296 1.326 . S
C295 C299 1.460 . S
C295 H301 0.929 . S
N296 Mn289 2.257 . S
N296 C295 1.326 . S
N296 C300 1.362 1_545 S
C297 C298 1.258 . S
C297 C300 1.431 . S
C297 C317 1.449 . S
C298 C297 1.258 . S
C298 C299 1.477 1_565 S
C298 H318 0.931 . S
C299 C295 1.460 . S
C299 C298 1.477 1_545 S
C299 H319 0.930 . S
C300 N296 1.362 1_565 S
C300 C297 1.431 . S
C300 C310 1.476 . S
H301 C295 0.929 . S
C302 O293 1.250 . S
C302 O294 1.258 . S
O303 Mn288 2.162 . S
O303 C291 1.281 . S
O304 Mn288 2.297 . S
O304 C291 1.236 . S
N305 Mn289 2.282 1_565 S
N305 C306 1.328 . S
N305 C310 1.318 . S
C306 N305 1.328 . S
C306 C307 1.457 . S
C306 H311 0.929 . S
C307 C306 1.457 . S
C307 C308 1.291 . S
C307 H320 0.931 . S
C308 C307 1.291 . S
C308 C309 1.373 . S
C308 H321 0.929 . S
C309 C308 1.373 . S
C309 C310 1.396 . S
C309 C316 1.403 . S
C310 C300 1.476 . S
C310 N305 1.318 . S
C310 C309 1.396 . S
H311 C306 0.929 . S
O312 Mn288 2.385 1_565 S
O312 C290 1.234 . S
O313 Mn288 2.209 . S
O313 Mn289 2.215 . S
O313 C290 1.283 1_545 S
O314 Mn288 2.094 . S
O314 C292 1.240 . S
O315 Mn289 2.117 . S
O315 C292 1.264 . S
C316 C309 1.403 . S
C316 C317 1.399 . S
C316 H322 0.929 . S
C317 C297 1.449 . S
C317 C316 1.399 . S
C317 H323 0.930 . S
H318 C298 0.931 . S
H319 C299 0.930 . S
H320 C307 0.931 . S
H321 C308 0.929 . S
H322 C316 0.929 . S
H323 C317 0.930 . S
Mn324 O329 2.095 . S
Mn324 O339 2.162 . S
Mn324 O340 2.297 . S
Mn324 O348 2.385 . S
Mn324 O349 2.209 . S
Mn324 O350 2.094 . S
Mn325 O330 2.121 . S
Mn325 N332 2.257 . S
Mn325 N341 2.282 . S
Mn325 O349 2.215 . S
Mn325 O351 2.117 . S
C326 O348 1.234 . S
C326 O349 1.283 . S
C327 O339 1.281 . S
C327 O340 1.236 . S
C328 O350 1.240 . S
C328 O351 1.264 . S
O329 Mn324 2.095 . S
O329 C338 1.250 . S
O330 Mn325 2.121 . S
O330 C338 1.258 . S
C331 N332 1.326 . S
C331 C335 1.460 . S
C331 H337 0.929 . S
N332 Mn325 2.257 . S
N332 C331 1.326 . S
N332 C336 1.362 . S
C333 C334 1.258 . S
C333 C336 1.431 . S
C333 C353 1.449 . S
C334 C333 1.258 . S
C334 C335 1.477 . S
C334 H354 0.931 . S
C335 C331 1.460 . S
C335 C334 1.477 . S
C335 H355 0.930 . S
C336 N332 1.362 . S
C336 C333 1.431 . S
C336 C346 1.476 . S
H337 C331 0.929 . S
C338 O329 1.250 . S
C338 O330 1.258 . S
O339 Mn324 2.162 . S
O339 C327 1.281 . S
O340 Mn324 2.297 . S
O340 C327 1.236 . S
N341 Mn325 2.282 . S
N341 C342 1.328 . S
N341 C346 1.318 . S
C342 N341 1.328 . S
C342 C343 1.457 . S
C342 H347 0.929 . S
C343 C342 1.457 . S
C343 C344 1.291 . S
C343 H356 0.931 . S
C344 C343 1.291 . S
C344 C345 1.373 . S
C344 H357 0.929 . S
C345 C344 1.373 . S
C345 C346 1.396 . S
C345 C352 1.403 . S
C346 C336 1.476 . S
C346 N341 1.318 . S
C346 C345 1.396 . S
H347 C342 0.929 . S
O348 Mn324 2.385 . S
O348 C326 1.234 . S
O349 Mn324 2.209 . S
O349 Mn325 2.215 . S
O349 C326 1.283 . S
O350 Mn324 2.094 . S
O350 C328 1.240 . S
O351 Mn325 2.117 . S
O351 C328 1.264 . S
C352 C345 1.403 . S
C352 C353 1.399 . S
C352 H358 0.929 . S
C353 C333 1.449 . S
C353 C352 1.399 . S
C353 H359 0.930 . S
H354 C334 0.931 . S
H355 C335 0.930 . S
H356 C343 0.931 . S
H357 C344 0.929 . S
H358 C352 0.929 . S
H359 C353 0.930 . S
Mn360 O365 2.103 . S
Mn360 O375 2.161 . S
Mn360 O376 2.296 . S
Mn360 O384 2.377 1_565 S
Mn360 O385 2.206 1_565 S
Mn360 O386 2.093 . S
Mn361 O366 2.121 1_545 S
Mn361 N368 2.257 . S
Mn361 N377 2.282 . S
Mn361 O385 2.215 . S
Mn361 O387 2.117 . S
C362 O384 1.234 . S
C362 O385 1.283 . S
C363 O375 1.281 . S
C363 O376 1.236 . S
C364 O386 1.245 1_545 S
C364 O387 1.264 . S
O365 Mn360 2.103 . S
O365 C374 1.250 . S
O366 Mn361 2.121 1_565 S
O366 C374 1.258 . S
C367 N368 1.326 . S
C367 C371 1.460 . S
C367 H373 0.920 1_545 S
N368 Mn361 2.257 . S
N368 C367 1.326 . S
N368 C372 1.362 . S
C369 C370 1.258 . S
C369 C372 1.431 . S
C369 C389 1.449 . S
C370 C369 1.258 . S
C370 C371 1.477 . S
C370 H390 0.931 . S
C371 C367 1.460 . S
C371 C370 1.477 . S
C371 H391 0.930 . S
C372 N368 1.362 . S
C372 C369 1.431 . S
C372 C382 1.476 . S
H373 C367 0.920 1_565 S
C374 O365 1.250 . S
C374 O366 1.258 . S
O375 Mn360 2.161 . S
O375 C363 1.281 . S
O376 Mn360 2.296 . S
O376 C363 1.236 . S
N377 Mn361 2.282 . S
N377 C378 1.328 . S
N377 C382 1.318 . S
C378 N377 1.328 . S
C378 C379 1.457 . S
C378 H383 0.929 . S
C379 C378 1.457 . S
C379 C380 1.291 . S
C379 H392 0.931 . S
C380 C379 1.291 . S
C380 C381 1.373 . S
C380 H393 0.929 . S
C381 C380 1.373 . S
C381 C382 1.396 . S
C381 C388 1.403 . S
C382 C372 1.476 . S
C382 N377 1.318 . S
C382 C381 1.396 . S
H383 C378 0.929 . S
O384 Mn360 2.377 1_545 S
O384 C362 1.234 . S
O385 Mn360 2.206 1_545 S
O385 Mn361 2.215 . S
O385 C362 1.283 . S
O386 Mn360 2.093 . S
O386 C364 1.245 1_565 S
O387 Mn361 2.117 . S
O387 C364 1.264 . S
C388 C381 1.403 . S
C388 C389 1.399 . S
C388 H394 0.929 . S
C389 C369 1.449 . S
C389 C388 1.399 . S
C389 H395 0.930 . S
H390 C370 0.931 . S
H391 C371 0.930 . S
H392 C379 0.931 . S
H393 C380 0.929 . S
H394 C388 0.929 . S
H395 C389 0.930 . S
Mn396 O401 2.095 . S
Mn396 O411 2.162 . S
Mn396 O412 2.297 . S
Mn396 O420 2.385 . S
Mn396 O421 2.209 . S
Mn396 O422 2.094 1_554 S
Mn397 O402 2.121 1_556 S
Mn397 N404 2.257 . S
Mn397 N413 2.282 . S
Mn397 O421 2.215 1_556 S
Mn397 O423 2.117 . S
C398 O420 1.234 . S
C398 O421 1.283 . S
C399 O411 1.281 . S
C399 O412 1.236 . S
C400 O422 1.240 . S
C400 O423 1.264 . S
O401 Mn396 2.095 . S
O401 C410 1.250 . S
O402 Mn397 2.121 1_554 S
O402 C410 1.258 . S
C403 N404 1.326 1_554 S
C403 C407 1.460 1_565 S
C403 H409 0.929 . S
N404 Mn397 2.257 . S
N404 C403 1.326 1_556 S
N404 C408 1.362 . S
C405 C406 1.243 1_556 S
C405 C408 1.431 1_545 S
C405 C425 1.449 . S
C406 C405 1.243 1_554 S
C406 C407 1.497 . S
C406 H426 0.928 . S
C407 C403 1.460 1_545 S
C407 C406 1.497 . S
C407 H427 0.930 . S
C408 N404 1.362 . S
C408 C405 1.431 1_565 S
C408 C418 1.476 . S
H409 C403 0.929 . S
C410 O401 1.250 . S
C410 O402 1.258 . S
O411 Mn396 2.162 . S
O411 C399 1.281 . S
O412 Mn396 2.297 . S
O412 C399 1.236 . S
N413 Mn397 2.282 . S
N413 C414 1.328 . S
N413 C418 1.318 . S
C414 N413 1.328 . S
C414 C415 1.457 . S
C414 H419 0.929 . S
C415 C414 1.457 . S
C415 C416 1.291 . S
C415 H428 0.931 . S
C416 C415 1.291 . S
C416 C417 1.373 . S
C416 H429 0.929 . S
C417 C416 1.373 . S
C417 C418 1.396 . S
C417 C424 1.403 1_565 S
C418 C408 1.476 . S
C418 N413 1.318 . S
C418 C417 1.396 . S
H419 C414 0.929 . S
O420 Mn396 2.385 . S
O420 C398 1.234 . S
O421 Mn396 2.209 . S
O421 Mn397 2.215 1_554 S
O421 C398 1.283 . S
O422 Mn396 2.094 1_556 S
O422 C400 1.240 . S
O423 Mn397 2.117 . S
O423 C400 1.264 . S
C424 C417 1.403 1_545 S
C424 C425 1.399 . S
C424 H430 0.929 . S
C425 C405 1.449 . S
C425 C424 1.399 . S
C425 H431 0.930 . S
H426 C406 0.928 . S
H427 C407 0.930 . S
H428 C415 0.931 . S
H429 C416 0.929 . S
H430 C424 0.929 . S
H431 C425 0.930 . S
Mn432 O437 2.095 . S
Mn432 O447 2.162 . S
Mn432 O448 2.297 . S
Mn432 O456 2.385 . S
Mn432 O457 2.209 . S
Mn432 O458 2.094 . S
Mn433 O438 2.121 . S
Mn433 N440 2.257 . S
Mn433 N449 2.282 1_554 S
Mn433 O457 2.215 . S
Mn433 O459 2.117 1_554 S
C434 O456 1.234 . S
C434 O457 1.283 . S
C435 O447 1.281 . S
C435 O448 1.236 . S
C436 O458 1.240 1_556 S
C436 O459 1.264 . S
O437 Mn432 2.095 . S
O437 C446 1.250 . S
O438 Mn433 2.121 . S
O438 C446 1.258 . S
C439 N440 1.326 . S
C439 C443 1.460 . S
C439 H445 0.929 . S
N440 Mn433 2.257 . S
N440 C439 1.326 . S
N440 C444 1.362 . S
C441 C442 1.258 . S
C441 C444 1.431 . S
C441 C461 1.449 . S
C442 C441 1.258 . S
C442 C443 1.477 . S
C442 H462 0.931 . S
C443 C439 1.460 . S
C443 C442 1.477 . S
C443 H463 0.930 . S
C444 N440 1.362 . S
C444 C441 1.431 . S
C444 C454 1.503 . S
H445 C439 0.929 . S
C446 O437 1.250 . S
C446 O438 1.258 . S
O447 Mn432 2.162 . S
O447 C435 1.281 . S
O448 Mn432 2.297 . S
O448 C435 1.236 . S
N449 Mn433 2.282 1_556 S
N449 C450 1.328 . S
N449 C454 1.321 1_556 S
C450 N449 1.328 . S
C450 C451 1.457 . S
C450 H455 0.929 . S
C451 C450 1.457 . S
C451 C452 1.291 . S
C451 H464 0.931 . S
C452 C451 1.291 . S
C452 C453 1.373 . S
C452 H465 0.929 . S
C453 C452 1.373 . S
C453 C454 1.371 1_556 S
C453 C460 1.403 . S
C454 C444 1.503 . S
C454 N449 1.321 1_554 S
C454 C453 1.371 1_554 S
H455 C450 0.929 . S
O456 Mn432 2.385 . S
O456 C434 1.234 . S
O457 Mn432 2.209 . S
O457 Mn433 2.215 . S
O457 C434 1.283 . S
O458 Mn432 2.094 . S
O458 C436 1.240 1_554 S
O459 Mn433 2.117 1_556 S
O459 C436 1.264 . S
C460 C453 1.403 . S
C460 C461 1.399 1_556 S
C460 H466 0.929 . S
C461 C441 1.449 . S
C461 C460 1.399 1_554 S
C461 H467 0.930 . S
H462 C442 0.931 . S
H463 C443 0.930 . S
H464 C451 0.931 . S
H465 C452 0.929 . S
H466 C460 0.929 . S
H467 C461 0.930 . S
Mn468 O473 2.095 . S
Mn468 O483 2.162 . S
Mn468 O484 2.297 . S
Mn468 O492 2.385 . S
Mn468 O493 2.209 . S
Mn468 O494 2.094 . S
Mn469 O474 2.121 1_556 S
Mn469 N476 2.257 . S
Mn469 N485 2.282 . S
Mn469 O493 2.215 1_556 S
Mn469 O495 2.117 . S
C470 O492 1.234 . S
C470 O493 1.283 . S
C471 O483 1.281 . S
C471 O484 1.236 . S
C472 O494 1.240 1_556 S
C472 O495 1.264 . S
O473 Mn468 2.095 . S
O473 C482 1.250 . S
O474 Mn469 2.121 1_554 S
O474 C482 1.258 . S
C475 N476 1.326 . S
C475 C479 1.460 . S
C475 H481 0.929 1_556 S
N476 Mn469 2.257 . S
N476 C475 1.326 . S
N476 C480 1.362 . S
C477 C478 1.258 . S
C477 C480 1.431 . S
C477 C497 1.449 . S
C478 C477 1.258 . S
C478 C479 1.477 . S
C478 H498 0.931 . S
C479 C475 1.460 . S
C479 C478 1.477 . S
C479 H499 0.943 . S
C480 N476 1.362 . S
C480 C477 1.431 . S
C480 C490 1.476 . S
H481 C475 0.929 1_554 S
C482 O473 1.250 . S
C482 O474 1.258 . S
O483 Mn468 2.162 . S
O483 C471 1.281 . S
O484 Mn468 2.297 . S
O484 C471 1.236 . S
N485 Mn469 2.282 . S
N485 C486 1.328 . S
N485 C490 1.318 . S
C486 N485 1.328 . S
C486 C487 1.457 . S
C486 H491 0.929 . S
C487 C486 1.457 . S
C487 C488 1.291 . S
C487 H500 0.931 . S
C488 C487 1.291 . S
C488 C489 1.373 . S
C488 H501 0.929 . S
C489 C488 1.373 . S
C489 C490 1.396 . S
C489 C496 1.403 . S
C490 C480 1.476 . S
C490 N485 1.318 . S
C490 C489 1.396 . S
H491 C486 0.929 . S
O492 Mn468 2.385 . S
O492 C470 1.234 . S
O493 Mn468 2.209 . S
O493 Mn469 2.215 1_554 S
O493 C470 1.283 . S
O494 Mn468 2.094 . S
O494 C472 1.240 1_554 S
O495 Mn469 2.117 . S
O495 C472 1.264 . S
C496 C489 1.403 . S
C496 C497 1.399 . S
C496 H502 0.929 . S
C497 C477 1.449 . S
C497 C496 1.399 . S
C497 H503 0.930 . S
H498 C478 0.931 . S
H499 C479 0.943 . S
H500 C487 0.931 . S
H501 C488 0.929 . S
H502 C496 0.929 . S
H503 C497 0.930 . S
Mn504 O509 2.095 . S
Mn504 O519 2.162 . S
Mn504 O520 2.297 . S
Mn504 O528 2.385 . S
Mn504 O529 2.209 . S
Mn504 O530 2.094 . S
Mn505 O510 2.121 . S
Mn505 N512 2.257 . S
Mn505 N521 2.282 . S
Mn505 O529 2.215 . S
Mn505 O531 2.117 . S
C506 O528 1.234 . S
C506 O529 1.283 . S
C507 O519 1.281 . S
C507 O520 1.236 . S
C508 O530 1.240 . S
C508 O531 1.264 . S
O509 Mn504 2.095 . S
O509 C518 1.250 . S
O510 Mn505 2.121 . S
O510 C518 1.258 . S
C511 N512 1.326 . S
C511 C515 1.460 . S
C511 H517 0.929 . S
N512 Mn505 2.257 . S
N512 C511 1.326 . S
N512 C516 1.362 . S
C513 C514 1.258 . S
C513 C516 1.431 . S
C513 C533 1.449 . S
C514 C513 1.258 . S
C514 C515 1.477 . S
C514 H534 0.931 . S
C515 C511 1.460 . S
C515 C514 1.477 . S
C515 H535 0.930 . S
C516 N512 1.362 . S
C516 C513 1.431 . S
C516 C526 1.476 . S
H517 C511 0.929 . S
C518 O509 1.250 . S
C518 O510 1.258 . S
O519 Mn504 2.162 . S
O519 C507 1.281 . S
O520 Mn504 2.297 . S
O520 C507 1.236 . S
N521 Mn505 2.282 . S
N521 C522 1.328 . S
N521 C526 1.318 . S
C522 N521 1.328 . S
C522 C523 1.457 . S
C522 H527 0.929 . S
C523 C522 1.457 . S
C523 C524 1.291 . S
C523 H536 0.931 . S
C524 C523 1.291 . S
C524 C525 1.373 . S
C524 H537 0.929 . S
C525 C524 1.373 . S
C525 C526 1.396 . S
C525 C532 1.403 . S
C526 C516 1.476 . S
C526 N521 1.318 . S
C526 C525 1.396 . S
H527 C522 0.929 . S
O528 Mn504 2.385 . S
O528 C506 1.234 . S
O529 Mn504 2.209 . S
O529 Mn505 2.215 . S
O529 C506 1.283 . S
O530 Mn504 2.094 . S
O530 C508 1.240 . S
O531 Mn505 2.117 . S
O531 C508 1.264 . S
C532 C525 1.403 . S
C532 C533 1.399 . S
C532 H538 0.929 . S
C533 C513 1.449 . S
C533 C532 1.399 . S
C533 H539 0.930 . S
H534 C514 0.931 . S
H535 C515 0.930 . S
H536 C523 0.931 . S
H537 C524 0.929 . S
H538 C532 0.929 . S
H539 C533 0.930 . S
Mn540 O545 2.095 . S
Mn540 O555 2.162 . S
Mn540 O556 2.297 . S
Mn540 O564 2.385 . S
Mn540 O565 2.209 . S
Mn540 O566 2.094 . S
Mn541 O546 2.121 . S
Mn541 N548 2.257 . S
Mn541 N557 2.282 . S
Mn541 O565 2.215 . S
Mn541 O567 2.117 . S
C542 O564 1.234 . S
C542 O565 1.283 . S
C543 O555 1.281 . S
C543 O556 1.236 . S
C544 O566 1.240 . S
C544 O567 1.264 . S
O545 Mn540 2.095 . S
O545 C554 1.250 . S
O546 Mn541 2.121 . S
O546 C554 1.258 . S
C547 N548 1.326 . S
C547 C551 1.460 . S
C547 H553 0.929 . S
N548 Mn541 2.257 . S
N548 C547 1.326 . S
N548 C552 1.362 . S
C549 C550 1.258 . S
C549 C552 1.431 . S
C549 C569 1.449 . S
C550 C549 1.258 . S
C550 C551 1.477 . S
C550 H570 0.931 . S
C551 C547 1.460 . S
C551 C550 1.477 . S
C551 H571 0.930 . S
C552 N548 1.362 . S
C552 C549 1.431 . S
C552 C562 1.476 . S
H553 C547 0.929 . S
C554 O545 1.250 . S
C554 O546 1.258 . S
O555 Mn540 2.162 . S
O555 C543 1.281 . S
O556 Mn540 2.297 . S
O556 C543 1.236 . S
N557 Mn541 2.282 . S
N557 C558 1.328 . S
N557 C562 1.318 . S
C558 N557 1.328 . S
C558 C559 1.457 . S
C558 H563 0.929 . S
C559 C558 1.457 . S
C559 C560 1.291 . S
C559 H572 0.931 . S
C560 C559 1.291 . S
C560 C561 1.373 . S
C560 H573 0.929 . S
C561 C560 1.373 . S
C561 C562 1.396 . S
C561 C568 1.403 . S
C562 C552 1.476 . S
C562 N557 1.318 . S
C562 C561 1.396 . S
H563 C558 0.929 . S
O564 Mn540 2.385 . S
O564 C542 1.234 . S
O565 Mn540 2.209 . S
O565 Mn541 2.215 . S
O565 C542 1.283 . S
O566 Mn540 2.094 . S
O566 C544 1.240 . S
O567 Mn541 2.117 . S
O567 C544 1.264 . S
C568 C561 1.403 . S
C568 C569 1.399 . S
C568 H574 0.929 . S
C569 C549 1.449 . S
C569 C568 1.399 . S
C569 H575 0.930 . S
H570 C550 0.931 . S
H571 C551 0.930 . S
H572 C559 0.931 . S
H573 C560 0.929 . S
H574 C568 0.929 . S
H575 C569 0.930 . S
Mn576 O581 2.095 . S
Mn576 O591 2.162 . S
Mn576 O592 2.297 . S
Mn576 O600 2.385 . S
Mn576 O601 2.209 . S
Mn576 O602 2.094 . S
Mn577 O582 2.121 . S
Mn577 N584 2.257 . S
Mn577 N593 2.282 . S
Mn577 O601 2.215 . S
Mn577 O603 2.117 . S
C578 O600 1.234 . S
C578 O601 1.283 . S
C579 O591 1.281 . S
C579 O592 1.236 . S
C580 O602 1.240 . S
C580 O603 1.264 . S
O581 Mn576 2.095 . S
O581 C590 1.250 . S
O582 Mn577 2.121 . S
O582 C590 1.258 . S
C583 N584 1.326 . S
C583 C587 1.460 . S
C583 H589 0.929 . S
N584 Mn577 2.257 . S
N584 C583 1.326 . S
N584 C588 1.362 . S
C585 C586 1.258 . S
C585 C588 1.431 . S
C585 C605 1.449 . S
C586 C585 1.258 . S
C586 C587 1.477 . S
C586 H606 0.931 . S
C587 C583 1.460 . S
C587 C586 1.477 . S
C587 H607 0.930 . S
C588 N584 1.362 . S
C588 C585 1.431 . S
C588 C598 1.476 . S
H589 C583 0.929 . S
C590 O581 1.250 . S
C590 O582 1.258 . S
O591 Mn576 2.162 . S
O591 C579 1.281 . S
O592 Mn576 2.297 . S
O592 C579 1.236 . S
N593 Mn577 2.282 . S
N593 C594 1.328 . S
N593 C598 1.318 . S
C594 N593 1.328 . S
C594 C595 1.457 . S
C594 H599 0.929 . S
C595 C594 1.457 . S
C595 C596 1.291 . S
C595 H608 0.931 . S
C596 C595 1.291 . S
C596 C597 1.373 . S
C596 H609 0.929 1_545 S
C597 C596 1.373 . S
C597 C598 1.396 . S
C597 C604 1.403 . S
C598 C588 1.476 . S
C598 N593 1.318 . S
C598 C597 1.396 . S
H599 C594 0.929 . S
O600 Mn576 2.385 . S
O600 C578 1.234 . S
O601 Mn576 2.209 . S
O601 Mn577 2.215 . S
O601 C578 1.283 . S
O602 Mn576 2.094 . S
O602 C580 1.240 . S
O603 Mn577 2.117 . S
O603 C580 1.264 . S
C604 C597 1.403 . S
C604 C605 1.399 . S
C604 H610 0.929 1_545 S
C605 C585 1.449 . S
C605 C604 1.399 . S
C605 H611 0.930 . S
H606 C586 0.931 . S
H607 C587 0.930 . S
H608 C595 0.931 . S
H609 C596 0.929 1_565 S
H610 C604 0.929 1_565 S
H611 C605 0.930 . S
Mn612 O617 2.095 . S
Mn612 O627 2.162 . S
Mn612 O628 2.297 . S
Mn612 O636 2.385 . S
Mn612 O637 2.209 . S
Mn612 O638 2.094 . S
Mn613 O618 2.121 . S
Mn613 N620 2.257 . S
Mn613 N629 2.282 . S
Mn613 O637 2.215 . S
Mn613 O639 2.117 . S
C614 O636 1.234 . S
C614 O637 1.283 . S
C615 O627 1.281 . S
C615 O628 1.236 . S
C616 O638 1.240 . S
C616 O639 1.264 . S
O617 Mn612 2.095 . S
O617 C626 1.250 . S
O618 Mn613 2.121 . S
O618 C626 1.258 . S
C619 N620 1.326 . S
C619 C623 1.460 . S
C619 H625 0.929 . S
N620 Mn613 2.257 . S
N620 C619 1.326 . S
N620 C624 1.362 . S
C621 C622 1.258 . S
C621 C624 1.431 . S
C621 C641 1.449 . S
C622 C621 1.258 . S
C622 C623 1.477 . S
C622 H642 0.931 . S
C623 C619 1.460 . S
C623 C622 1.477 . S
C623 H643 0.930 . S
C624 N620 1.362 . S
C624 C621 1.431 . S
C624 C634 1.476 . S
H625 C619 0.929 . S
C626 O617 1.250 . S
C626 O618 1.258 . S
O627 Mn612 2.162 . S
O627 C615 1.281 . S
O628 Mn612 2.297 . S
O628 C615 1.236 . S
N629 Mn613 2.282 . S
N629 C630 1.328 . S
N629 C634 1.318 . S
C630 N629 1.328 . S
C630 C631 1.457 . S
C630 H635 0.929 . S
C631 C630 1.457 . S
C631 C632 1.291 . S
C631 H644 0.931 . S
C632 C631 1.291 . S
C632 C633 1.373 . S
C632 H645 0.929 . S
C633 C632 1.373 . S
C633 C634 1.396 . S
C633 C640 1.403 . S
C634 C624 1.476 . S
C634 N629 1.318 . S
C634 C633 1.396 . S
H635 C630 0.929 . S
O636 Mn612 2.385 . S
O636 C614 1.234 . S
O637 Mn612 2.209 . S
O637 Mn613 2.215 . S
O637 C614 1.283 . S
O638 Mn612 2.094 . S
O638 C616 1.240 . S
O639 Mn613 2.117 . S
O639 C616 1.264 . S
C640 C633 1.403 . S
C640 C641 1.399 . S
C640 H646 0.929 . S
C641 C621 1.449 . S
C641 C640 1.399 . S
C641 H647 0.930 . S
H642 C622 0.931 . S
H643 C623 0.930 . S
H644 C631 0.931 . S
H645 C632 0.929 . S
H646 C640 0.929 . S
H647 C641 0.930 . S
Mn648 O653 2.095 . S
Mn648 O663 2.162 . S
Mn648 O664 2.297 . S
Mn648 O672 2.385 . S
Mn648 O673 2.209 . S
Mn648 O674 2.094 . S
Mn649 O654 2.121 . S
Mn649 N656 2.257 . S
Mn649 N665 2.282 . S
Mn649 O673 2.215 . S
Mn649 O675 2.117 . S
C650 O672 1.234 . S
C650 O673 1.283 . S
C651 O663 1.281 . S
C651 O664 1.236 . S
C652 O674 1.240 . S
C652 O675 1.264 . S
O653 Mn648 2.095 . S
O653 C662 1.250 . S
O654 Mn649 2.121 . S
O654 C662 1.258 . S
C655 N656 1.326 . S
C655 C659 1.460 . S
C655 H661 0.929 . S
N656 Mn649 2.257 . S
N656 C655 1.326 . S
N656 C660 1.362 . S
C657 C658 1.258 . S
C657 C660 1.431 . S
C657 C677 1.449 . S
C658 C657 1.258 . S
C658 C659 1.477 . S
C658 H678 0.931 . S
C659 C655 1.460 . S
C659 C658 1.477 . S
C659 H679 0.930 . S
C660 N656 1.362 . S
C660 C657 1.431 . S
C660 C670 1.476 . S
H661 C655 0.929 . S
C662 O653 1.250 . S
C662 O654 1.258 . S
O663 Mn648 2.162 . S
O663 C651 1.281 . S
O664 Mn648 2.297 . S
O664 C651 1.236 . S
N665 Mn649 2.282 . S
N665 C666 1.328 . S
N665 C670 1.318 . S
C666 N665 1.328 . S
C666 C667 1.457 . S
C666 H671 0.929 . S
C667 C666 1.457 . S
C667 C668 1.291 . S
C667 H680 0.931 . S
C668 C667 1.291 . S
C668 C669 1.373 . S
C668 H681 0.929 . S
C669 C668 1.373 . S
C669 C670 1.396 . S
C669 C676 1.403 . S
C670 C660 1.476 . S
C670 N665 1.318 . S
C670 C669 1.396 . S
H671 C666 0.929 . S
O672 Mn648 2.385 . S
O672 C650 1.234 . S
O673 Mn648 2.209 . S
O673 Mn649 2.215 . S
O673 C650 1.283 . S
O674 Mn648 2.094 . S
O674 C652 1.240 . S
O675 Mn649 2.117 . S
O675 C652 1.264 . S
C676 C669 1.403 . S
C676 C677 1.399 . S
C676 H682 0.929 . S
C677 C657 1.449 . S
C677 C676 1.399 . S
C677 H683 0.930 . S
H678 C658 0.931 . S
H679 C659 0.930 . S
H680 C667 0.931 . S
H681 C668 0.929 . S
H682 C676 0.929 . S
H683 C677 0.930 . S
Mn684 O689 2.095 . S
Mn684 O699 2.162 . S
Mn684 O700 2.297 . S
Mn684 O708 2.385 . S
Mn684 O709 2.209 . S
Mn684 O710 2.094 . S
Mn685 O690 2.121 . S
Mn685 N692 2.257 . S
Mn685 N701 2.282 . S
Mn685 O709 2.215 . S
Mn685 O711 2.117 . S
C686 O708 1.234 . S
C686 O709 1.283 . S
C687 O699 1.281 . S
C687 O700 1.236 . S
C688 O710 1.240 . S
C688 O711 1.264 . S
O689 Mn684 2.095 . S
O689 C698 1.250 . S
O690 Mn685 2.121 . S
O690 C698 1.258 . S
C691 N692 1.326 . S
C691 C695 1.460 . S
C691 H697 0.929 . S
N692 Mn685 2.257 . S
N692 C691 1.326 . S
N692 C696 1.362 . S
C693 C694 1.258 . S
C693 C696 1.431 . S
C693 C713 1.449 . S
C694 C693 1.258 . S
C694 C695 1.477 . S
C694 H714 0.931 . S
C695 C691 1.460 . S
C695 C694 1.477 . S
C695 H715 0.930 . S
C696 N692 1.362 . S
C696 C693 1.431 . S
C696 C706 1.476 . S
H697 C691 0.929 . S
C698 O689 1.250 . S
C698 O690 1.258 . S
O699 Mn684 2.162 . S
O699 C687 1.281 . S
O700 Mn684 2.297 . S
O700 C687 1.236 . S
N701 Mn685 2.282 . S
N701 C702 1.328 . S
N701 C706 1.318 . S
C702 N701 1.328 . S
C702 C703 1.457 . S
C702 H707 0.929 . S
C703 C702 1.457 . S
C703 C704 1.291 . S
C703 H716 0.931 . S
C704 C703 1.291 . S
C704 C705 1.373 . S
C704 H717 0.929 . S
C705 C704 1.373 . S
C705 C706 1.396 . S
C705 C712 1.403 . S
C706 C696 1.476 . S
C706 N701 1.318 . S
C706 C705 1.396 . S
H707 C702 0.929 . S
O708 Mn684 2.385 . S
O708 C686 1.234 . S
O709 Mn684 2.209 . S
O709 Mn685 2.215 . S
O709 C686 1.283 . S
O710 Mn684 2.094 . S
O710 C688 1.240 . S
O711 Mn685 2.117 . S
O711 C688 1.264 . S
C712 C705 1.403 . S
C712 C713 1.399 . S
C712 H718 0.929 . S
C713 C693 1.449 . S
C713 C712 1.399 . S
C713 H719 0.930 . S
H714 C694 0.931 . S
H715 C695 0.930 . S
H716 C703 0.931 . S
H717 C704 0.929 . S
H718 C712 0.929 . S
H719 C713 0.930 . S
Mn720 O725 2.095 1_554 S
Mn720 O735 2.162 . S
Mn720 O736 2.297 . S
Mn720 O744 2.385 . S
Mn720 O745 2.209 1_554 S
Mn720 O746 2.094 1_554 S
Mn721 O726 2.121 . S
Mn721 N728 2.257 . S
Mn721 N737 2.282 . S
Mn721 O745 2.215 . S
Mn721 O747 2.117 . S
C722 O744 1.234 1_556 S
C722 O745 1.283 . S
C723 O735 1.281 . S
C723 O736 1.236 . S
C724 O746 1.240 . S
C724 O747 1.264 . S
O725 Mn720 2.095 1_556 S
O725 C734 1.250 . S
O726 Mn721 2.121 . S
O726 C734 1.258 . S
C727 N728 1.326 . S
C727 C731 1.460 . S
C727 H733 0.929 . S
N728 Mn721 2.257 . S
N728 C727 1.326 . S
N728 C732 1.362 . S
C729 C730 1.258 . S
C729 C732 1.431 . S
C729 C749 1.449 . S
C730 C729 1.258 . S
C730 C731 1.477 . S
C730 H750 0.931 . S
C731 C727 1.460 . S
C731 C730 1.477 . S
C731 H751 0.930 . S
C732 N728 1.362 . S
C732 C729 1.431 . S
C732 C742 1.476 . S
H733 C727 0.929 . S
C734 O725 1.250 . S
C734 O726 1.258 . S
O735 Mn720 2.162 . S
O735 C723 1.281 . S
O736 Mn720 2.297 . S
O736 C723 1.236 . S
N737 Mn721 2.282 . S
N737 C738 1.328 . S
N737 C742 1.318 . S
C738 N737 1.328 . S
C738 C739 1.457 . S
C738 H743 0.929 . S
C739 C738 1.457 . S
C739 C740 1.291 . S
C739 H752 0.931 . S
C740 C739 1.291 . S
C740 C741 1.373 . S
C740 H753 0.929 . S
C741 C740 1.373 . S
C741 C742 1.396 . S
C741 C748 1.403 . S
C742 C732 1.476 . S
C742 N737 1.318 . S
C742 C741 1.396 . S
H743 C738 0.929 . S
O744 Mn720 2.385 . S
O744 C722 1.234 1_554 S
O745 Mn720 2.209 1_556 S
O745 Mn721 2.215 . S
O745 C722 1.283 . S
O746 Mn720 2.094 1_556 S
O746 C724 1.240 . S
O747 Mn721 2.117 . S
O747 C724 1.264 . S
C748 C741 1.403 . S
C748 C749 1.399 . S
C748 H754 0.929 . S
C749 C729 1.449 . S
C749 C748 1.399 . S
C749 H755 0.930 . S
H750 C730 0.931 . S
H751 C731 0.930 . S
H752 C739 0.931 . S
H753 C740 0.929 . S
H754 C748 0.929 . S
H755 C749 0.930 . S
Mn756 O761 2.095 . S
Mn756 O771 2.162 . S
Mn756 O772 2.297 . S
Mn756 O780 2.385 . S
Mn756 O781 2.209 . S
Mn756 O782 2.094 . S
Mn757 O762 2.121 . S
Mn757 N764 2.257 . S
Mn757 N773 2.282 . S
Mn757 O781 2.215 . S
Mn757 O783 2.117 . S
C758 O780 1.234 . S
C758 O781 1.283 . S
C759 O771 1.281 . S
C759 O772 1.236 . S
C760 O782 1.240 . S
C760 O783 1.264 . S
O761 Mn756 2.095 . S
O761 C770 1.250 . S
O762 Mn757 2.121 . S
O762 C770 1.258 . S
C763 N764 1.326 . S
C763 C767 1.460 . S
C763 H769 0.929 . S
N764 Mn757 2.257 . S
N764 C763 1.326 . S
N764 C768 1.362 . S
C765 C766 1.258 . S
C765 C768 1.431 . S
C765 C785 1.449 . S
C766 C765 1.258 . S
C766 C767 1.477 . S
C766 H786 0.931 . S
C767 C763 1.460 . S
C767 C766 1.477 . S
C767 H787 0.930 . S
C768 N764 1.362 . S
C768 C765 1.431 . S
C768 C778 1.476 . S
H769 C763 0.929 . S
C770 O761 1.250 . S
C770 O762 1.258 . S
O771 Mn756 2.162 . S
O771 C759 1.281 . S
O772 Mn756 2.297 . S
O772 C759 1.236 . S
N773 Mn757 2.282 . S
N773 C774 1.328 . S
N773 C778 1.318 . S
C774 N773 1.328 . S
C774 C775 1.457 . S
C774 H779 0.929 . S
C775 C774 1.457 . S
C775 C776 1.291 . S
C775 H788 0.931 . S
C776 C775 1.291 . S
C776 C777 1.373 . S
C776 H789 0.929 . S
C777 C776 1.373 . S
C777 C778 1.396 . S
C777 C784 1.403 . S
C778 C768 1.476 . S
C778 N773 1.318 . S
C778 C777 1.396 . S
H779 C774 0.929 . S
O780 Mn756 2.385 . S
O780 C758 1.234 . S
O781 Mn756 2.209 . S
O781 Mn757 2.215 . S
O781 C758 1.283 . S
O782 Mn756 2.094 . S
O782 C760 1.240 . S
O783 Mn757 2.117 . S
O783 C760 1.264 . S
C784 C777 1.403 . S
C784 C785 1.399 . S
C784 H790 0.929 . S
C785 C765 1.449 . S
C785 C784 1.399 . S
C785 H791 0.930 . S
H786 C766 0.931 . S
H787 C767 0.930 . S
H788 C775 0.931 . S
H789 C776 0.929 . S
H790 C784 0.929 . S
H791 C785 0.930 . S
Mn792 O797 2.095 . S
Mn792 O807 2.162 . S
Mn792 O808 2.297 . S
Mn792 O816 2.385 . S
Mn792 O817 2.209 . S
Mn792 O818 2.094 . S
Mn793 O798 2.121 . S
Mn793 N800 2.257 . S
Mn793 N809 2.282 . S
Mn793 O817 2.215 . S
Mn793 O819 2.117 . S
C794 O816 1.234 . S
C794 O817 1.283 . S
C795 O807 1.281 . S
C795 O808 1.236 . S
C796 O818 1.240 . S
C796 O819 1.264 . S
O797 Mn792 2.095 . S
O797 C806 1.250 . S
O798 Mn793 2.121 . S
O798 C806 1.258 . S
C799 N800 1.326 . S
C799 C803 1.460 . S
C799 H805 0.929 . S
N800 Mn793 2.257 . S
N800 C799 1.326 . S
N800 C804 1.362 . S
C801 C802 1.258 . S
C801 C804 1.431 . S
C801 C821 1.449 . S
C802 C801 1.258 . S
C802 C803 1.477 . S
C802 H822 0.931 . S
C803 C799 1.460 . S
C803 C802 1.477 . S
C803 H823 0.930 . S
C804 N800 1.362 . S
C804 C801 1.431 . S
C804 C814 1.476 . S
H805 C799 0.929 . S
C806 O797 1.250 . S
C806 O798 1.258 . S
O807 Mn792 2.162 . S
O807 C795 1.281 . S
O808 Mn792 2.297 . S
O808 C795 1.236 . S
N809 Mn793 2.282 . S
N809 C810 1.328 . S
N809 C814 1.318 . S
C810 N809 1.328 . S
C810 C811 1.457 . S
C810 H815 0.929 . S
C811 C810 1.457 . S
C811 C812 1.291 . S
C811 H824 0.931 . S
C812 C811 1.291 . S
C812 C813 1.373 . S
C812 H825 0.929 . S
C813 C812 1.373 . S
C813 C814 1.396 . S
C813 C820 1.403 . S
C814 C804 1.476 . S
C814 N809 1.318 . S
C814 C813 1.396 . S
H815 C810 0.929 . S
O816 Mn792 2.385 . S
O816 C794 1.234 . S
O817 Mn792 2.209 . S
O817 Mn793 2.215 . S
O817 C794 1.283 . S
O818 Mn792 2.094 . S
O818 C796 1.240 . S
O819 Mn793 2.117 . S
O819 C796 1.264 . S
C820 C813 1.403 . S
C820 C821 1.399 . S
C820 H826 0.929 . S
C821 C801 1.449 . S
C821 C820 1.399 . S
C821 H827 0.930 . S
H822 C802 0.931 . S
H823 C803 0.930 . S
H824 C811 0.931 . S
H825 C812 0.929 . S
H826 C820 0.929 . S
H827 C821 0.930 . S
Mn828 O833 2.095 . S
Mn828 O843 2.162 . S
Mn828 O844 2.297 . S
Mn828 O852 2.385 . S
Mn828 O853 2.209 . S
Mn828 O854 2.094 . S
Mn829 O834 2.121 . S
Mn829 N836 2.257 . S
Mn829 N845 2.282 . S
Mn829 O853 2.215 . S
Mn829 O855 2.117 . S
C830 O852 1.234 . S
C830 O853 1.283 . S
C831 O843 1.281 . S
C831 O844 1.236 . S
C832 O854 1.240 . S
C832 O855 1.264 . S
O833 Mn828 2.095 . S
O833 C842 1.250 . S
O834 Mn829 2.121 . S
O834 C842 1.258 . S
C835 N836 1.326 . S
C835 C839 1.460 . S
C835 H841 0.929 . S
N836 Mn829 2.257 . S
N836 C835 1.326 . S
N836 C840 1.362 . S
C837 C838 1.258 . S
C837 C840 1.431 . S
C837 C857 1.449 . S
C838 C837 1.258 . S
C838 C839 1.477 . S
C838 H858 0.931 . S
C839 C835 1.460 . S
C839 C838 1.477 . S
C839 H859 0.930 . S
C840 N836 1.362 . S
C840 C837 1.431 . S
C840 C850 1.476 . S
H841 C835 0.929 . S
C842 O833 1.250 . S
C842 O834 1.258 . S
O843 Mn828 2.162 . S
O843 C831 1.281 . S
O844 Mn828 2.297 . S
O844 C831 1.236 . S
N845 Mn829 2.282 . S
N845 C846 1.328 . S
N845 C850 1.318 . S
C846 N845 1.328 . S
C846 C847 1.457 . S
C846 H851 0.929 . S
C847 C846 1.457 . S
C847 C848 1.291 . S
C847 H860 0.931 . S
C848 C847 1.291 . S
C848 C849 1.373 . S
C848 H861 0.929 . S
C849 C848 1.373 . S
C849 C850 1.396 . S
C849 C856 1.403 . S
C850 C840 1.476 . S
C850 N845 1.318 . S
C850 C849 1.396 . S
H851 C846 0.929 . S
O852 Mn828 2.385 . S
O852 C830 1.234 . S
O853 Mn828 2.209 . S
O853 Mn829 2.215 . S
O853 C830 1.283 . S
O854 Mn828 2.094 . S
O854 C832 1.240 . S
O855 Mn829 2.117 . S
O855 C832 1.264 . S
C856 C849 1.403 . S
C856 C857 1.399 . S
C856 H862 0.929 . S
C857 C837 1.449 . S
C857 C856 1.399 . S
C857 H863 0.930 . S
H858 C838 0.931 . S
H859 C839 0.930 . S
H860 C847 0.931 . S
H861 C848 0.929 . S
H862 C856 0.929 . S
H863 C857 0.930 . S
Gd864 N895 2.661 . S
Gd864 N901 2.601 . S
Gd864 O908 2.545 . S
Gd864 O909 2.606 . S
Gd864 O911 2.429 . S
Gd864 O912 2.545 . S
Gd864 O913 2.412 . S
Gd864 O915 2.362 . S
Gd864 O916 2.324 1_554 S
Gd864 C923 2.828 . S
Gd865 N874 2.661 1_545 S
Gd865 N878 2.601 1_544 S
Gd865 O909 2.362 . S
Gd865 O910 2.324 . S
Gd865 O914 2.545 1_454 S
Gd865 O915 2.606 . S
Gd865 O917 2.429 1_554 S
Gd865 O918 2.559 . S
Gd865 O919 2.412 1_455 S
Gd865 C932 2.828 1_454 S
C866 C869 1.423 . S
C866 C871 1.432 . S
C866 C872 1.412 . S
C867 C870 1.437 . S
C867 C871 1.316 1_556 S
C867 H886 0.929 . S
C868 C869 1.428 1_556 S
C868 C870 1.429 . S
C868 N878 1.341 1_655 S
C869 C866 1.423 . S
C869 C868 1.428 1_554 S
C869 N874 1.346 1_655 S
C870 C867 1.437 . S
C870 C868 1.429 . S
C870 C880 1.391 . S
C871 C866 1.432 . S
C871 C867 1.316 1_554 S
C871 H882 0.931 . S
C872 C866 1.412 . S
C872 C873 1.344 1_655 S
C872 H884 0.930 . S
C873 C872 1.344 1_455 S
C873 C875 1.417 . S
C873 H885 0.931 . S
N874 Gd865 2.661 1_565 S
N874 C869 1.346 1_455 S
N874 C875 1.307 . S
C875 C873 1.417 . S
C875 N874 1.307 . S
C875 H876 0.930 1_565 S
H876 C875 0.930 1_545 S
C877 N878 1.334 . S
C877 C879 1.394 1_455 S
C877 H881 0.971 . S
N878 Gd865 2.601 1_566 S
N878 C868 1.341 1_455 S
N878 C877 1.334 . S
C879 C877 1.394 1_655 S
C879 C880 1.359 . S
C879 H891 0.930 . S
C880 C870 1.391 . S
C880 C879 1.359 . S
C880 H892 0.929 . S
H881 C877 0.971 . S
H882 C871 0.931 . S
H883 C900 0.930 . S
H884 C872 0.930 . S
H885 C873 0.931 . S
H886 C867 0.929 . S
H887 C905 0.930 . S
H888 C896 0.930 . S
H889 C897 0.930 . S
H890 C921 0.929 . S
H891 C879 0.930 . S
H892 C880 0.929 . S
H893 C922 0.930 . S
H894 C903 0.930 . S
N895 Gd864 2.661 . S
N895 C899 1.350 . S
N895 C900 1.307 1_554 S
C896 H888 0.930 . S
C896 C897 1.355 . S
C896 C898 1.412 1_556 S
C897 H889 0.930 . S
C897 C896 1.355 . S
C897 C900 1.402 . S
C898 C896 1.412 1_554 S
C898 C899 1.417 . S
C898 C922 1.431 . S
C899 N895 1.350 . S
C899 C898 1.417 . S
C899 C902 1.426 . S
C900 H883 0.930 . S
C900 N895 1.307 1_556 S
C900 C897 1.402 . S
N901 Gd864 2.601 . S
N901 C902 1.359 . S
N901 C905 1.334 . S
C902 C899 1.426 . S
C902 N901 1.359 . S
C902 C906 1.413 . S
C903 H894 0.930 . S
C903 C904 1.359 . S
C903 C905 1.394 . S
C904 C903 1.359 . S
C904 C906 1.391 . S
C904 H907 0.929 . S
C905 H887 0.930 . S
C905 N901 1.334 . S
C905 C903 1.394 . S
C906 C902 1.413 . S
C906 C904 1.391 . S
C906 C921 1.437 . S
H907 C904 0.929 . S
O908 Gd864 2.545 . S
O908 C923 1.258 . S
O909 Gd864 2.606 . S
O909 Gd865 2.362 . S
O909 C920 1.262 1_545 S
O910 Gd865 2.324 . S
O910 C930 1.254 . S
O911 Gd864 2.429 . S
O911 C930 1.268 . S
O912 Gd864 2.545 . S
O912 C920 1.248 1_545 S
O913 Gd864 2.412 . S
O913 C923 1.252 . S
O914 Gd865 2.545 1_656 S
O914 C932 1.258 . S
O915 Gd864 2.362 . S
O915 Gd865 2.606 . S
O915 C931 1.284 . S
O916 Gd864 2.324 1_556 S
O916 C939 1.254 . S
O917 Gd865 2.429 1_556 S
O917 C939 1.268 . S
O918 Gd865 2.559 . S
O918 C931 1.273 . S
O919 Gd865 2.412 1_655 S
O919 C932 1.252 1_554 S
C920 O909 1.262 1_565 S
C920 O912 1.248 1_565 S
C921 H890 0.929 . S
C921 C906 1.437 . S
C921 C922 1.317 . S
C922 H893 0.930 . S
C922 C898 1.431 . S
C922 C921 1.317 . S
C923 Gd864 2.828 . S
C923 O908 1.258 . S
C923 O913 1.252 . S
C923 C924 1.497 . S
C924 C923 1.497 . S
C924 C925 1.395 . S
C924 C926 1.380 . S
C925 C924 1.395 . S
C925 C928 1.398 . S
C925 H940 0.930 . S
C926 C924 1.380 . S
C926 C927 1.391 . S
C926 H941 0.930 . S
C927 C926 1.391 . S
C927 C929 1.387 . S
C928 C925 1.398 . S
C928 C929 1.380 . S
C928 H942 0.930 . S
C929 C927 1.387 . S
C929 C928 1.380 . S
C929 H943 0.930 . S
C930 O910 1.254 . S
C930 O911 1.268 . S
C931 O915 1.284 . S
C931 O918 1.273 . S
C932 Gd865 2.828 1_656 S
C932 O914 1.258 . S
C932 O919 1.252 1_556 S
C932 C933 1.497 . S
C933 C932 1.497 . S
C933 C934 1.395 . S
C933 C935 1.380 1_556 S
C934 C933 1.395 . S
C934 C937 1.398 . S
C934 H944 0.930 . S
C935 C933 1.380 1_554 S
C935 C936 1.390 1_554 S
C935 H945 0.930 . S
C936 C935 1.390 1_556 S
C936 C938 1.392 . S
C937 C934 1.398 . S
C937 C938 1.380 . S
C937 H946 0.930 . S
C938 C936 1.392 . S
C938 C937 1.380 . S
C938 H947 0.930 . S
C939 O916 1.254 . S
C939 O917 1.268 . S
H940 C925 0.930 . S
H941 C926 0.930 . S
H942 C928 0.930 . S
H943 C929 0.930 . S
H944 C934 0.930 . S
H945 C935 0.930 . S
H946 C937 0.930 . S
H947 C938 0.930 . S
Gd948 N979 2.661 . S
Gd948 N985 2.601 . S
Gd948 O992 2.545 . S
Gd948 O993 2.606 . S
Gd948 O995 2.429 . S
Gd948 O996 2.545 . S
Gd948 O997 2.412 . S
Gd948 O999 2.362 . S
Gd948 O1000 2.324 . S
Gd948 C1007 2.828 . S
Gd949 N958 2.661 . S
Gd949 N962 2.601 . S
Gd949 O993 2.362 . S
Gd949 O994 2.324 . S
Gd949 O998 2.545 . S
Gd949 O999 2.606 . S
Gd949 O1001 2.429 . S
Gd949 O1002 2.545 . S
Gd949 O1003 2.412 . S
Gd949 C1016 2.828 . S
C950 C953 1.417 . S
C950 C955 1.431 . S
C950 C956 1.412 . S
C951 C954 1.437 . S
C951 C955 1.317 . S
C951 H970 0.929 . S
C952 C953 1.426 . S
C952 C954 1.413 . S
C952 N962 1.359 . S
C953 C950 1.417 . S
C953 C952 1.426 . S
C953 N958 1.350 . S
C954 C951 1.437 . S
C954 C952 1.413 . S
C954 C964 1.391 . S
C955 C950 1.431 . S
C955 C951 1.317 . S
C955 H966 0.930 . S
C956 C950 1.412 . S
C956 C957 1.355 . S
C956 H968 0.930 . S
C957 C956 1.355 . S
C957 C959 1.402 . S
C957 H969 0.930 . S
N958 Gd949 2.661 . S
N958 C953 1.350 . S
N958 C959 1.307 . S
C959 C957 1.402 . S
C959 N958 1.307 . S
C959 H960 0.930 . S
H960 C959 0.930 . S
C961 N962 1.334 . S
C961 C963 1.394 . S
C961 H965 0.930 . S
N962 Gd949 2.601 . S
N962 C952 1.359 . S
N962 C961 1.334 . S
C963 C961 1.394 . S
C963 C964 1.359 . S
C963 H975 0.930 . S
C964 C954 1.391 . S
C964 C963 1.359 . S
C964 H976 0.929 . S
H965 C961 0.930 . S
H966 C955 0.930 . S
H967 C984 0.930 . S
H968 C956 0.930 . S
H969 C957 0.930 . S
H970 C951 0.929 . S
H971 C989 0.930 . S
H972 C980 0.930 . S
H973 C981 0.930 . S
H974 C1005 0.929 . S
H975 C963 0.930 . S
H976 C964 0.929 . S
H977 C1006 0.930 . S
H978 C987 0.930 . S
N979 Gd948 2.661 . S
N979 C983 1.350 . S
N979 C984 1.307 . S
C980 H972 0.930 . S
C980 C981 1.355 . S
C980 C982 1.412 . S
C981 H973 0.930 . S
C981 C980 1.355 . S
C981 C984 1.402 . S
C982 C980 1.412 . S
C982 C983 1.417 . S
C982 C1006 1.431 . S
C983 N979 1.350 . S
C983 C982 1.417 . S
C983 C986 1.426 . S
C984 H967 0.930 . S
C984 N979 1.307 . S
C984 C981 1.402 . S
N985 Gd948 2.601 . S
N985 C986 1.359 . S
N985 C989 1.334 . S
C986 C983 1.426 . S
C986 N985 1.359 . S
C986 C990 1.413 . S
C987 H978 0.930 . S
C987 C988 1.359 . S
C987 C989 1.394 . S
C988 C987 1.359 . S
C988 C990 1.391 . S
C988 H991 0.929 . S
C989 H971 0.930 . S
C989 N985 1.334 . S
C989 C987 1.394 . S
C990 C986 1.413 . S
C990 C988 1.391 . S
C990 C1005 1.437 . S
H991 C988 0.929 . S
O992 Gd948 2.545 . S
O992 C1007 1.258 . S
O993 Gd948 2.606 . S
O993 Gd949 2.362 . S
O993 C1004 1.284 . S
O994 Gd949 2.324 . S
O994 C1014 1.254 . S
O995 Gd948 2.429 . S
O995 C1014 1.268 . S
O996 Gd948 2.545 . S
O996 C1004 1.250 . S
O997 Gd948 2.412 . S
O997 C1007 1.252 . S
O998 Gd949 2.545 . S
O998 C1016 1.258 . S
O999 Gd948 2.362 . S
O999 Gd949 2.606 . S
O999 C1015 1.284 . S
O1000 Gd948 2.324 . S
O1000 C1023 1.254 . S
O1001 Gd949 2.429 . S
O1001 C1023 1.268 . S
O1002 Gd949 2.545 . S
O1002 C1015 1.250 . S
O1003 Gd949 2.412 . S
O1003 C1016 1.252 . S
C1004 O993 1.284 . S
C1004 O996 1.250 . S
C1005 H974 0.929 . S
C1005 C990 1.437 . S
C1005 C1006 1.317 . S
C1006 H977 0.930 . S
C1006 C982 1.431 . S
C1006 C1005 1.317 . S
C1007 Gd948 2.828 . S
C1007 O992 1.258 . S
C1007 O997 1.252 . S
C1007 C1008 1.497 . S
C1008 C1007 1.497 . S
C1008 C1009 1.395 . S
C1008 C1010 1.380 . S
C1009 C1008 1.395 . S
C1009 C1012 1.398 . S
C1009 H1024 0.930 . S
C1010 C1008 1.380 . S
C1010 C1011 1.391 . S
C1010 H1025 0.930 . S
C1011 C1010 1.391 . S
C1011 C1013 1.387 . S
C1012 C1009 1.398 . S
C1012 C1013 1.380 . S
C1012 H1026 0.930 . S
C1013 C1011 1.387 . S
C1013 C1012 1.380 . S
C1013 H1027 0.930 . S
C1014 O994 1.254 . S
C1014 O995 1.268 . S
C1015 O999 1.284 . S
C1015 O1002 1.250 . S
C1016 Gd949 2.828 . S
C1016 O998 1.258 . S
C1016 O1003 1.252 . S
C1016 C1017 1.497 . S
C1017 C1016 1.497 . S
C1017 C1018 1.395 . S
C1017 C1019 1.380 . S
C1018 C1017 1.395 . S
C1018 C1021 1.398 . S
C1018 H1028 0.930 . S
C1019 C1017 1.380 . S
C1019 C1020 1.391 . S
C1019 H1029 0.930 . S
C1020 C1019 1.391 . S
C1020 C1022 1.387 . S
C1021 C1018 1.398 . S
C1021 C1022 1.380 . S
C1021 H1030 0.930 . S
C1022 C1020 1.387 . S
C1022 C1021 1.380 . S
C1022 H1031 0.930 . S
C1023 O1000 1.254 . S
C1023 O1001 1.268 . S
H1024 C1009 0.930 . S
H1025 C1010 0.930 . S
H1026 C1012 0.930 . S
H1027 C1013 0.930 . S
H1028 C1018 0.930 . S
H1029 C1019 0.930 . S
H1030 C1021 0.930 . S
H1031 C1022 0.930 . S
Gd1032 N1063 2.661 . S
Gd1032 N1069 2.601 . S
Gd1032 O1076 2.545 . S
Gd1032 O1077 2.606 . S
Gd1032 O1079 2.429 . S
Gd1032 O1080 2.545 . S
Gd1032 O1081 2.412 . S
Gd1032 O1083 2.362 . S
Gd1032 O1084 2.324 . S
Gd1032 C1091 2.828 . S
Gd1033 N1042 2.661 . S
Gd1033 N1046 2.601 . S
Gd1033 O1077 2.362 . S
Gd1033 O1078 2.324 . S
Gd1033 O1082 2.545 . S
Gd1033 O1083 2.606 . S
Gd1033 O1085 2.429 . S
Gd1033 O1086 2.545 . S
Gd1033 O1087 2.412 . S
Gd1033 C1100 2.828 . S
C1034 C1037 1.417 . S
C1034 C1039 1.431 . S
C1034 C1040 1.412 . S
C1035 C1038 1.437 . S
C1035 C1039 1.317 . S
C1035 H1054 0.929 . S
C1036 C1037 1.426 . S
C1036 C1038 1.413 . S
C1036 N1046 1.359 . S
C1037 C1034 1.417 . S
C1037 C1036 1.426 . S
C1037 N1042 1.350 . S
C1038 C1035 1.437 . S
C1038 C1036 1.413 . S
C1038 C1048 1.391 . S
C1039 C1034 1.431 . S
C1039 C1035 1.317 . S
C1039 H1050 0.930 . S
C1040 C1034 1.412 . S
C1040 C1041 1.355 . S
C1040 H1052 0.930 . S
C1041 C1040 1.355 . S
C1041 C1043 1.402 . S
C1041 H1053 0.930 . S
N1042 Gd1033 2.661 . S
N1042 C1037 1.350 . S
N1042 C1043 1.307 . S
C1043 C1041 1.402 . S
C1043 N1042 1.307 . S
C1043 H1044 0.930 . S
H1044 C1043 0.930 . S
C1045 N1046 1.334 . S
C1045 C1047 1.394 . S
C1045 H1049 0.930 . S
N1046 Gd1033 2.601 . S
N1046 C1036 1.359 . S
N1046 C1045 1.334 . S
C1047 C1045 1.394 . S
C1047 C1048 1.359 . S
C1047 H1059 0.930 . S
C1048 C1038 1.391 . S
C1048 C1047 1.359 . S
C1048 H1060 0.929 . S
H1049 C1045 0.930 . S
H1050 C1039 0.930 . S
H1051 C1068 0.957 . S
H1052 C1040 0.930 . S
H1053 C1041 0.930 . S
H1054 C1035 0.929 . S
H1055 C1073 0.930 . S
H1056 C1064 0.930 . S
H1057 C1065 0.930 . S
H1058 C1089 0.929 . S
H1059 C1047 0.930 . S
H1060 C1048 0.929 . S
H1061 C1090 0.930 . S
H1062 C1071 0.930 . S
N1063 Gd1032 2.661 . S
N1063 C1067 1.350 1_545 S
N1063 C1068 1.313 . S
C1064 H1056 0.930 . S
C1064 C1065 1.355 . S
C1064 C1066 1.412 . S
C1065 H1057 0.930 . S
C1065 C1064 1.355 . S
C1065 C1068 1.373 1_565 S
C1066 C1064 1.412 . S
C1066 C1067 1.417 . S
C1066 C1090 1.431 . S
C1067 N1063 1.350 1_565 S
C1067 C1066 1.417 . S
C1067 C1070 1.426 1_565 S
C1068 H1051 0.957 . S
C1068 N1063 1.313 . S
C1068 C1065 1.373 1_545 S
N1069 Gd1032 2.601 . S
N1069 C1070 1.362 . S
N1069 C1073 1.334 . S
C1070 C1067 1.426 1_545 S
C1070 N1069 1.362 . S
C1070 C1074 1.411 1_545 S
C1071 H1062 0.930 . S
C1071 C1072 1.359 1_545 S
C1071 C1073 1.394 . S
C1072 C1071 1.359 1_565 S
C1072 C1074 1.391 . S
C1072 H1075 0.929 . S
C1073 H1055 0.930 . S
C1073 N1069 1.334 . S
C1073 C1071 1.394 . S
C1074 C1070 1.411 1_565 S
C1074 C1072 1.391 . S
C1074 C1089 1.437 . S
H1075 C1072 0.929 . S
O1076 Gd1032 2.545 . S
O1076 C1091 1.258 . S
O1077 Gd1032 2.606 . S
O1077 Gd1033 2.362 . S
O1077 C1088 1.284 . S
O1078 Gd1033 2.324 . S
O1078 C1098 1.254 . S
O1079 Gd1032 2.429 . S
O1079 C1098 1.268 . S
O1080 Gd1032 2.545 . S
O1080 C1088 1.250 . S
O1081 Gd1032 2.412 . S
O1081 C1091 1.252 . S
O1082 Gd1033 2.545 . S
O1082 C1100 1.258 . S
O1083 Gd1032 2.362 . S
O1083 Gd1033 2.606 . S
O1083 C1099 1.284 . S
O1084 Gd1032 2.324 . S
O1084 C1107 1.254 . S
O1085 Gd1033 2.429 . S
O1085 C1107 1.268 . S
O1086 Gd1033 2.545 . S
O1086 C1099 1.250 . S
O1087 Gd1033 2.412 . S
O1087 C1100 1.252 . S
C1088 O1077 1.284 . S
C1088 O1080 1.250 . S
C1089 H1058 0.929 . S
C1089 C1074 1.437 . S
C1089 C1090 1.317 . S
C1090 H1061 0.930 . S
C1090 C1066 1.431 . S
C1090 C1089 1.317 . S
C1091 Gd1032 2.828 . S
C1091 O1076 1.258 . S
C1091 O1081 1.252 . S
C1091 C1092 1.497 . S
C1092 C1091 1.497 . S
C1092 C1093 1.395 . S
C1092 C1094 1.380 . S
C1093 C1092 1.395 . S
C1093 C1096 1.398 . S
C1093 H1108 0.930 . S
C1094 C1092 1.380 . S
C1094 C1095 1.391 . S
C1094 H1109 0.930 . S
C1095 C1094 1.391 . S
C1095 C1097 1.387 . S
C1096 C1093 1.398 . S
C1096 C1097 1.380 . S
C1096 H1110 0.930 . S
C1097 C1095 1.387 . S
C1097 C1096 1.380 . S
C1097 H1111 0.930 . S
C1098 O1078 1.254 . S
C1098 O1079 1.268 . S
C1099 O1083 1.284 . S
C1099 O1086 1.250 . S
C1100 Gd1033 2.828 . S
C1100 O1082 1.258 . S
C1100 O1087 1.252 . S
C1100 C1101 1.497 . S
C1101 C1100 1.497 . S
C1101 C1102 1.395 . S
C1101 C1103 1.380 . S
C1102 C1101 1.395 . S
C1102 C1105 1.398 . S
C1102 H1112 0.930 . S
C1103 C1101 1.380 . S
C1103 C1104 1.403 . S
C1103 H1113 0.930 . S
C1104 C1103 1.403 . S
C1104 C1106 1.384 . S
C1105 C1102 1.398 . S
C1105 C1106 1.424 . S
C1105 H1114 0.930 . S
C1106 C1104 1.384 . S
C1106 C1105 1.424 . S
C1106 H1115 0.895 1_545 S
C1107 O1084 1.254 . S
C1107 O1085 1.268 . S
H1108 C1093 0.930 . S
H1109 C1094 0.930 . S
H1110 C1096 0.930 . S
H1111 C1097 0.930 . S
H1112 C1102 0.930 . S
H1113 C1103 0.930 . S
H1114 C1105 0.930 . S
H1115 C1106 0.895 1_565 S
Gd1116 N1147 2.661 . S
Gd1116 N1153 2.601 . S
Gd1116 O1160 2.545 . S
Gd1116 O1161 2.606 . S
Gd1116 O1163 2.429 . S
Gd1116 O1164 2.545 . S
Gd1116 O1165 2.412 . S
Gd1116 O1167 2.362 . S
Gd1116 O1168 2.324 . S
Gd1116 C1175 2.828 . S
Gd1117 N1126 2.661 . S
Gd1117 N1130 2.601 . S
Gd1117 O1161 2.362 . S
Gd1117 O1162 2.324 . S
Gd1117 O1166 2.545 . S
Gd1117 O1167 2.606 . S
Gd1117 O1169 2.429 . S
Gd1117 O1170 2.545 . S
Gd1117 O1171 2.412 . S
Gd1117 C1184 2.828 . S
C1118 C1121 1.417 . S
C1118 C1123 1.431 . S
C1118 C1124 1.412 . S
C1119 C1122 1.437 . S
C1119 C1123 1.317 . S
C1119 H1138 0.929 . S
C1120 C1121 1.426 . S
C1120 C1122 1.413 . S
C1120 N1130 1.359 . S
C1121 C1118 1.417 . S
C1121 C1120 1.426 . S
C1121 N1126 1.350 . S
C1122 C1119 1.437 . S
C1122 C1120 1.413 . S
C1122 C1132 1.391 . S
C1123 C1118 1.431 . S
C1123 C1119 1.317 . S
C1123 H1134 0.930 . S
C1124 C1118 1.412 . S
C1124 C1125 1.355 . S
C1124 H1136 0.930 . S
C1125 C1124 1.355 . S
C1125 C1127 1.402 . S
C1125 H1137 0.930 . S
N1126 Gd1117 2.661 . S
N1126 C1121 1.350 . S
N1126 C1127 1.307 . S
C1127 C1125 1.402 . S
C1127 N1126 1.307 . S
C1127 H1128 0.930 . S
H1128 C1127 0.930 . S
C1129 N1130 1.334 . S
C1129 C1131 1.394 . S
C1129 H1133 0.930 . S
N1130 Gd1117 2.601 . S
N1130 C1120 1.359 . S
N1130 C1129 1.334 . S
C1131 C1129 1.394 . S
C1131 C1132 1.359 . S
C1131 H1143 0.930 . S
C1132 C1122 1.391 . S
C1132 C1131 1.359 . S
C1132 H1144 0.929 . S
H1133 C1129 0.930 . S
H1134 C1123 0.930 . S
H1135 C1152 0.930 . S
H1136 C1124 0.930 . S
H1137 C1125 0.930 . S
H1138 C1119 0.929 . S
H1139 C1157 0.930 . S
H1140 C1148 0.930 . S
H1141 C1149 0.930 . S
H1142 C1173 0.929 . S
H1143 C1131 0.930 . S
H1144 C1132 0.929 . S
H1145 C1174 0.930 . S
H1146 C1155 0.930 . S
N1147 Gd1116 2.661 . S
N1147 C1151 1.350 . S
N1147 C1152 1.307 . S
C1148 H1140 0.930 . S
C1148 C1149 1.355 . S
C1148 C1150 1.412 . S
C1149 H1141 0.930 . S
C1149 C1148 1.355 . S
C1149 C1152 1.402 . S
C1150 C1148 1.412 . S
C1150 C1151 1.417 . S
C1150 C1174 1.431 . S
C1151 N1147 1.350 . S
C1151 C1150 1.417 . S
C1151 C1154 1.426 . S
C1152 H1135 0.930 . S
C1152 N1147 1.307 . S
C1152 C1149 1.402 . S
N1153 Gd1116 2.601 . S
N1153 C1154 1.359 . S
N1153 C1157 1.334 . S
C1154 C1151 1.426 . S
C1154 N1153 1.359 . S
C1154 C1158 1.413 . S
C1155 H1146 0.930 . S
C1155 C1156 1.359 . S
C1155 C1157 1.394 . S
C1156 C1155 1.359 . S
C1156 C1158 1.391 . S
C1156 H1159 0.929 . S
C1157 H1139 0.930 . S
C1157 N1153 1.334 . S
C1157 C1155 1.394 . S
C1158 C1154 1.413 . S
C1158 C1156 1.391 . S
C1158 C1173 1.437 . S
H1159 C1156 0.929 . S
O1160 Gd1116 2.545 . S
O1160 C1175 1.258 . S
O1161 Gd1116 2.606 . S
O1161 Gd1117 2.362 . S
O1161 C1172 1.284 . S
O1162 Gd1117 2.324 . S
O1162 C1182 1.254 . S
O1163 Gd1116 2.429 . S
O1163 C1182 1.268 . S
O1164 Gd1116 2.545 . S
O1164 C1172 1.250 . S
O1165 Gd1116 2.412 . S
O1165 C1175 1.252 . S
O1166 Gd1117 2.545 . S
O1166 C1184 1.258 . S
O1167 Gd1116 2.362 . S
O1167 Gd1117 2.606 . S
O1167 C1183 1.284 . S
O1168 Gd1116 2.324 . S
O1168 C1191 1.254 . S
O1169 Gd1117 2.429 . S
O1169 C1191 1.268 . S
O1170 Gd1117 2.545 . S
O1170 C1183 1.250 . S
O1171 Gd1117 2.412 . S
O1171 C1184 1.252 . S
C1172 O1161 1.284 . S
C1172 O1164 1.250 . S
C1173 H1142 0.929 . S
C1173 C1158 1.437 . S
C1173 C1174 1.317 . S
C1174 H1145 0.930 . S
C1174 C1150 1.431 . S
C1174 C1173 1.317 . S
C1175 Gd1116 2.828 . S
C1175 O1160 1.258 . S
C1175 O1165 1.252 . S
C1175 C1176 1.497 . S
C1176 C1175 1.497 . S
C1176 C1177 1.395 . S
C1176 C1178 1.380 . S
C1177 C1176 1.395 . S
C1177 C1180 1.398 . S
C1177 H1192 0.930 . S
C1178 C1176 1.380 . S
C1178 C1179 1.391 . S
C1178 H1193 0.930 . S
C1179 C1178 1.391 . S
C1179 C1181 1.387 . S
C1180 C1177 1.398 . S
C1180 C1181 1.380 . S
C1180 H1194 0.930 . S
C1181 C1179 1.387 . S
C1181 C1180 1.380 . S
C1181 H1195 0.930 . S
C1182 O1162 1.254 . S
C1182 O1163 1.268 . S
C1183 O1167 1.284 . S
C1183 O1170 1.250 . S
C1184 Gd1117 2.828 . S
C1184 O1166 1.258 . S
C1184 O1171 1.252 . S
C1184 C1185 1.497 . S
C1185 C1184 1.497 . S
C1185 C1186 1.395 . S
C1185 C1187 1.380 . S
C1186 C1185 1.395 . S
C1186 C1189 1.398 . S
C1186 H1196 0.930 . S
C1187 C1185 1.380 . S
C1187 C1188 1.391 . S
C1187 H1197 0.930 . S
C1188 C1187 1.391 . S
C1188 C1190 1.387 . S
C1189 C1186 1.398 . S
C1189 C1190 1.380 . S
C1189 H1198 0.930 . S
C1190 C1188 1.387 . S
C1190 C1189 1.380 . S
C1190 H1199 0.930 . S
C1191 O1168 1.254 . S
C1191 O1169 1.268 . S
H1192 C1177 0.930 . S
H1193 C1178 0.930 . S
H1194 C1180 0.930 . S
H1195 C1181 0.930 . S
H1196 C1186 0.930 . S
H1197 C1187 0.930 . S
H1198 C1189 0.930 . S
H1199 C1190 0.930 . S
Gd1200 N1231 2.661 1_545 S
Gd1200 N1237 2.584 1_545 S
Gd1200 O1244 2.545 1_545 S
Gd1200 O1245 2.606 . S
Gd1200 O1247 2.429 . S
Gd1200 O1248 2.545 . S
Gd1200 O1249 2.412 1_545 S
Gd1200 O1251 2.362 . S
Gd1200 O1252 2.324 . S
Gd1200 C1259 2.828 1_545 S
Gd1201 N1210 2.661 . S
Gd1201 N1214 2.601 . S
Gd1201 O1245 2.362 . S
Gd1201 O1246 2.324 . S
Gd1201 O1250 2.545 . S
Gd1201 O1251 2.606 . S
Gd1201 O1253 2.429 . S
Gd1201 O1254 2.545 . S
Gd1201 O1255 2.412 . S
Gd1201 C1268 2.828 . S
C1202 C1205 1.417 . S
C1202 C1207 1.431 . S
C1202 C1208 1.412 . S
C1203 C1206 1.437 . S
C1203 C1207 1.317 . S
C1203 H1222 0.929 . S
C1204 C1205 1.426 . S
C1204 C1206 1.413 . S
C1204 N1214 1.359 . S
C1205 C1202 1.417 . S
C1205 C1204 1.426 . S
C1205 N1210 1.350 . S
C1206 C1203 1.437 . S
C1206 C1204 1.413 . S
C1206 C1216 1.391 . S
C1207 C1202 1.431 . S
C1207 C1203 1.317 . S
C1207 H1218 0.930 . S
C1208 C1202 1.412 . S
C1208 C1209 1.355 . S
C1208 H1220 0.930 . S
C1209 C1208 1.355 . S
C1209 C1211 1.402 . S
C1209 H1221 0.930 . S
N1210 Gd1201 2.661 . S
N1210 C1205 1.350 . S
N1210 C1211 1.307 . S
C1211 C1209 1.402 . S
C1211 N1210 1.307 . S
C1211 H1212 0.930 . S
H1212 C1211 0.930 . S
C1213 N1214 1.334 . S
C1213 C1215 1.393 . S
C1213 H1217 0.930 . S
N1214 Gd1201 2.601 . S
N1214 C1204 1.359 . S
N1214 C1213 1.334 . S
C1215 C1213 1.393 . S
C1215 C1216 1.358 . S
C1215 H1227 0.932 1_455 S
C1216 C1206 1.391 . S
C1216 C1215 1.358 . S
C1216 H1228 0.929 . S
H1217 C1213 0.930 . S
H1218 C1207 0.930 . S
H1219 C1236 0.930 . S
H1220 C1208 0.930 . S
H1221 C1209 0.930 . S
H1222 C1203 0.929 . S
H1223 C1241 0.930 . S
H1224 C1232 0.930 . S
H1225 C1233 0.930 1_655 S
H1226 C1257 0.929 . S
H1227 C1215 0.932 1_655 S
H1228 C1216 0.929 . S
H1229 C1258 0.930 . S
H1230 C1239 0.930 . S
N1231 Gd1200 2.661 1_565 S
N1231 C1235 1.350 . S
N1231 C1236 1.307 . S
C1232 H1224 0.930 . S
C1232 C1233 1.355 . S
C1232 C1234 1.412 . S
C1233 H1225 0.930 1_455 S
C1233 C1232 1.355 . S
C1233 C1236 1.402 . S
C1234 C1232 1.412 . S
C1234 C1235 1.417 . S
C1234 C1258 1.431 . S
C1235 N1231 1.350 . S
C1235 C1234 1.417 . S
C1235 C1238 1.426 . S
C1236 H1219 0.930 . S
C1236 N1231 1.307 . S
C1236 C1233 1.402 . S
N1237 Gd1200 2.584 1_565 S
N1237 C1238 1.378 . S
N1237 C1241 1.344 1_565 S
C1238 C1235 1.426 . S
C1238 N1237 1.378 . S
C1238 C1242 1.413 . S
C1239 H1230 0.930 . S
C1239 C1240 1.359 . S
C1239 C1241 1.394 1_565 S
C1240 C1239 1.359 . S
C1240 C1242 1.391 . S
C1240 H1243 0.929 . S
C1241 H1223 0.930 . S
C1241 N1237 1.344 1_545 S
C1241 C1239 1.394 1_545 S
C1242 C1238 1.413 . S
C1242 C1240 1.391 . S
C1242 C1257 1.437 . S
H1243 C1240 0.929 . S
O1244 Gd1200 2.545 1_565 S
O1244 C1259 1.258 . S
O1245 Gd1200 2.606 . S
O1245 Gd1201 2.362 . S
O1245 C1256 1.284 . S
O1246 Gd1201 2.324 . S
O1246 C1266 1.254 . S
O1247 Gd1200 2.429 . S
O1247 C1266 1.268 . S
O1248 Gd1200 2.545 . S
O1248 C1256 1.250 . S
O1249 Gd1200 2.412 1_565 S
O1249 C1259 1.252 . S
O1250 Gd1201 2.545 . S
O1250 C1268 1.258 . S
O1251 Gd1200 2.362 . S
O1251 Gd1201 2.606 . S
O1251 C1267 1.284 . S
O1252 Gd1200 2.324 . S
O1252 C1275 1.254 . S
O1253 Gd1201 2.429 . S
O1253 C1275 1.268 . S
O1254 Gd1201 2.545 . S
O1254 C1267 1.250 . S
O1255 Gd1201 2.412 . S
O1255 C1268 1.252 . S
C1256 O1245 1.284 . S
C1256 O1248 1.250 . S
C1257 H1226 0.929 . S
C1257 C1242 1.437 . S
C1257 C1258 1.317 . S
C1258 H1229 0.930 . S
C1258 C1234 1.431 . S
C1258 C1257 1.317 . S
C1259 Gd1200 2.828 1_565 S
C1259 O1244 1.258 . S
C1259 O1249 1.252 . S
C1259 C1260 1.497 . S
C1260 C1259 1.497 . S
C1260 C1261 1.395 . S
C1260 C1262 1.380 . S
C1261 C1260 1.395 . S
C1261 C1264 1.398 . S
C1261 H1276 0.930 . S
C1262 C1260 1.380 . S
C1262 C1263 1.391 . S
C1262 H1277 0.930 . S
C1263 C1262 1.391 . S
C1263 C1265 1.387 . S
C1264 C1261 1.398 . S
C1264 C1265 1.380 . S
C1264 H1278 0.930 . S
C1265 C1263 1.387 . S
C1265 C1264 1.380 . S
C1265 H1279 0.930 . S
C1266 O1246 1.254 . S
C1266 O1247 1.268 . S
C1267 O1251 1.284 . S
C1267 O1254 1.250 . S
C1268 Gd1201 2.828 . S
C1268 O1250 1.258 . S
C1268 O1255 1.252 . S
C1268 C1269 1.497 . S
C1269 C1268 1.497 . S
C1269 C1270 1.395 . S
C1269 C1271 1.380 . S
C1270 C1269 1.395 . S
C1270 C1273 1.398 . S
C1270 H1280 0.930 . S
C1271 C1269 1.380 . S
C1271 C1272 1.391 . S
C1271 H1281 0.930 . S
C1272 C1271 1.391 . S
C1272 C1274 1.387 . S
C1273 C1270 1.398 . S
C1273 C1274 1.380 . S
C1273 H1282 0.930 . S
C1274 C1272 1.387 . S
C1274 C1273 1.380 . S
C1274 H1283 0.930 . S
C1275 O1252 1.254 . S
C1275 O1253 1.268 . S
H1276 C1261 0.930 . S
H1277 C1262 0.930 . S
H1278 C1264 0.930 . S
H1279 C1265 0.930 . S
H1280 C1270 0.930 . S
H1281 C1271 0.930 . S
H1282 C1273 0.930 . S
H1283 C1274 0.930 . S
Gd1284 N1315 2.661 . S
Gd1284 N1321 2.601 . S
Gd1284 O1328 2.545 . S
Gd1284 O1329 2.606 . S
Gd1284 O1331 2.429 . S
Gd1284 O1332 2.545 . S
Gd1284 O1333 2.412 . S
Gd1284 O1335 2.362 . S
Gd1284 O1336 2.324 . S
Gd1284 C1343 2.828 . S
Gd1285 N1294 2.661 . S
Gd1285 N1298 2.601 . S
Gd1285 O1329 2.362 . S
Gd1285 O1330 2.324 . S
Gd1285 O1334 2.545 . S
Gd1285 O1335 2.606 . S
Gd1285 O1337 2.429 . S
Gd1285 O1338 2.545 . S
Gd1285 O1339 2.412 . S
Gd1285 C1352 2.828 . S
C1286 C1289 1.417 . S
C1286 C1291 1.431 . S
C1286 C1292 1.412 . S
C1287 C1290 1.437 . S
C1287 C1291 1.317 . S
C1287 H1306 0.929 . S
C1288 C1289 1.426 . S
C1288 C1290 1.413 . S
C1288 N1298 1.359 . S
C1289 C1286 1.417 . S
C1289 C1288 1.426 . S
C1289 N1294 1.350 . S
C1290 C1287 1.437 . S
C1290 C1288 1.413 . S
C1290 C1300 1.391 . S
C1291 C1286 1.431 . S
C1291 C1287 1.317 . S
C1291 H1302 0.930 . S
C1292 C1286 1.412 . S
C1292 C1293 1.355 . S
C1292 H1304 0.930 . S
C1293 C1292 1.355 . S
C1293 C1295 1.402 . S
C1293 H1305 0.930 . S
N1294 Gd1285 2.661 . S
N1294 C1289 1.350 . S
N1294 C1295 1.307 . S
C1295 C1293 1.402 . S
C1295 N1294 1.307 . S
C1295 H1296 0.930 . S
H1296 C1295 0.930 . S
C1297 N1298 1.334 . S
C1297 C1299 1.394 . S
C1297 H1301 0.930 . S
N1298 Gd1285 2.601 . S
N1298 C1288 1.359 . S
N1298 C1297 1.334 . S
C1299 C1297 1.394 . S
C1299 C1300 1.359 . S
C1299 H1311 0.930 . S
C1300 C1290 1.391 . S
C1300 C1299 1.359 . S
C1300 H1312 0.929 . S
H1301 C1297 0.930 . S
H1302 C1291 0.930 . S
H1303 C1320 0.930 . S
H1304 C1292 0.930 . S
H1305 C1293 0.930 . S
H1306 C1287 0.929 . S
H1307 C1325 0.930 . S
H1308 C1316 0.930 . S
H1309 C1317 0.930 . S
H1310 C1341 0.929 . S
H1311 C1299 0.930 . S
H1312 C1300 0.929 . S
H1313 C1342 0.930 . S
H1314 C1323 0.930 . S
N1315 Gd1284 2.661 . S
N1315 C1319 1.350 . S
N1315 C1320 1.307 . S
C1316 H1308 0.930 . S
C1316 C1317 1.355 . S
C1316 C1318 1.412 . S
C1317 H1309 0.930 . S
C1317 C1316 1.355 . S
C1317 C1320 1.402 . S
C1318 C1316 1.412 . S
C1318 C1319 1.417 . S
C1318 C1342 1.431 . S
C1319 N1315 1.350 . S
C1319 C1318 1.417 . S
C1319 C1322 1.426 . S
C1320 H1303 0.930 . S
C1320 N1315 1.307 . S
C1320 C1317 1.402 . S
N1321 Gd1284 2.601 . S
N1321 C1322 1.359 . S
N1321 C1325 1.334 . S
C1322 C1319 1.426 . S
C1322 N1321 1.359 . S
C1322 C1326 1.413 . S
C1323 H1314 0.930 . S
C1323 C1324 1.359 . S
C1323 C1325 1.394 . S
C1324 C1323 1.359 . S
C1324 C1326 1.391 . S
C1324 H1327 0.929 . S
C1325 H1307 0.930 . S
C1325 N1321 1.334 . S
C1325 C1323 1.394 . S
C1326 C1322 1.413 . S
C1326 C1324 1.391 . S
C1326 C1341 1.437 . S
H1327 C1324 0.929 . S
O1328 Gd1284 2.545 . S
O1328 C1343 1.258 . S
O1329 Gd1284 2.606 . S
O1329 Gd1285 2.362 . S
O1329 C1340 1.284 . S
O1330 Gd1285 2.324 . S
O1330 C1350 1.254 . S
O1331 Gd1284 2.429 . S
O1331 C1350 1.268 . S
O1332 Gd1284 2.545 . S
O1332 C1340 1.250 . S
O1333 Gd1284 2.412 . S
O1333 C1343 1.252 . S
O1334 Gd1285 2.545 . S
O1334 C1352 1.258 . S
O1335 Gd1284 2.362 . S
O1335 Gd1285 2.606 . S
O1335 C1351 1.284 . S
O1336 Gd1284 2.324 . S
O1336 C1359 1.254 . S
O1337 Gd1285 2.429 . S
O1337 C1359 1.268 . S
O1338 Gd1285 2.545 . S
O1338 C1351 1.250 . S
O1339 Gd1285 2.412 . S
O1339 C1352 1.252 . S
C1340 O1329 1.284 . S
C1340 O1332 1.250 . S
C1341 H1310 0.929 . S
C1341 C1326 1.437 . S
C1341 C1342 1.317 . S
C1342 H1313 0.930 . S
C1342 C1318 1.431 . S
C1342 C1341 1.317 . S
C1343 Gd1284 2.828 . S
C1343 O1328 1.258 . S
C1343 O1333 1.252 . S
C1343 C1344 1.497 . S
C1344 C1343 1.497 . S
C1344 C1345 1.395 . S
C1344 C1346 1.380 . S
C1345 C1344 1.395 . S
C1345 C1348 1.398 . S
C1345 H1360 0.930 . S
C1346 C1344 1.380 . S
C1346 C1347 1.391 . S
C1346 H1361 0.930 . S
C1347 C1346 1.391 . S
C1347 C1349 1.387 . S
C1348 C1345 1.398 . S
C1348 C1349 1.380 . S
C1348 H1362 0.930 . S
C1349 C1347 1.387 . S
C1349 C1348 1.380 . S
C1349 H1363 0.930 . S
C1350 O1330 1.254 . S
C1350 O1331 1.268 . S
C1351 O1335 1.284 . S
C1351 O1338 1.250 . S
C1352 Gd1285 2.828 . S
C1352 O1334 1.258 . S
C1352 O1339 1.252 . S
C1352 C1353 1.497 . S
C1353 C1352 1.497 . S
C1353 C1354 1.395 . S
C1353 C1355 1.380 . S
C1354 C1353 1.395 . S
C1354 C1357 1.398 . S
C1354 H1364 0.930 . S
C1355 C1353 1.380 . S
C1355 C1356 1.391 . S
C1355 H1365 0.930 . S
C1356 C1355 1.391 . S
C1356 C1358 1.387 . S
C1357 C1354 1.398 . S
C1357 C1358 1.380 . S
C1357 H1366 0.930 . S
C1358 C1356 1.387 . S
C1358 C1357 1.380 . S
C1358 H1367 0.930 . S
C1359 O1336 1.254 . S
C1359 O1337 1.268 . S
H1360 C1345 0.930 . S
H1361 C1346 0.930 . S
H1362 C1348 0.930 . S
H1363 C1349 0.930 . S
H1364 C1354 0.930 . S
H1365 C1355 0.930 . S
H1366 C1357 0.930 . S
H1367 C1358 0.930 . S
Gd1368 N1399 2.661 . S
Gd1368 N1405 2.601 . S
Gd1368 O1412 2.545 . S
Gd1368 O1413 2.606 1_556 S
Gd1368 O1415 2.429 1_556 S
Gd1368 O1416 2.547 . S
Gd1368 O1417 2.412 . S
Gd1368 O1419 2.362 1_556 S
Gd1368 O1420 2.324 . S
Gd1368 C1427 2.828 . S
Gd1369 N1378 2.661 . S
Gd1369 N1382 2.601 . S
Gd1369 O1413 2.362 . S
Gd1369 O1414 2.324 . S
Gd1369 O1418 2.545 . S
Gd1369 O1419 2.606 . S
Gd1369 O1421 2.429 . S
Gd1369 O1422 2.545 . S
Gd1369 O1423 2.412 . S
Gd1369 C1436 2.828 . S
C1370 C1373 1.417 . S
C1370 C1375 1.431 . S
C1370 C1376 1.412 . S
C1371 C1374 1.437 . S
C1371 C1375 1.317 . S
C1371 H1390 0.929 . S
C1372 C1373 1.426 . S
C1372 C1374 1.413 . S
C1372 N1382 1.359 . S
C1373 C1370 1.417 . S
C1373 C1372 1.426 . S
C1373 N1378 1.350 . S
C1374 C1371 1.437 . S
C1374 C1372 1.413 . S
C1374 C1384 1.391 . S
C1375 C1370 1.431 . S
C1375 C1371 1.317 . S
C1375 H1386 0.930 . S
C1376 C1370 1.412 . S
C1376 C1377 1.355 . S
C1376 H1388 0.930 . S
C1377 C1376 1.355 . S
C1377 C1379 1.402 . S
C1377 H1389 0.930 . S
N1378 Gd1369 2.661 . S
N1378 C1373 1.350 . S
N1378 C1379 1.307 . S
C1379 C1377 1.402 . S
C1379 N1378 1.307 . S
C1379 H1380 0.930 . S
H1380 C1379 0.930 . S
C1381 N1382 1.280 1_565 S
C1381 C1383 1.432 . S
C1381 H1385 0.949 . S
N1382 Gd1369 2.601 . S
N1382 C1372 1.359 . S
N1382 C1381 1.280 1_545 S
C1383 C1381 1.432 . S
C1383 C1384 1.359 1_565 S
C1383 H1395 0.930 . S
C1384 C1374 1.391 . S
C1384 C1383 1.359 1_545 S
C1384 H1396 0.929 1_545 S
H1385 C1381 0.949 . S
H1386 C1375 0.930 . S
H1387 C1404 0.930 . S
H1388 C1376 0.930 . S
H1389 C1377 0.930 . S
H1390 C1371 0.929 . S
H1391 C1409 0.930 . S
H1392 C1400 0.947 . S
H1393 C1401 0.930 . S
H1394 C1425 0.929 . S
H1395 C1383 0.930 . S
H1396 C1384 0.929 1_565 S
H1397 C1426 0.930 . S
H1398 C1407 0.930 . S
N1399 Gd1368 2.661 . S
N1399 C1403 1.350 . S
N1399 C1404 1.307 . S
C1400 H1392 0.947 . S
C1400 C1401 1.380 . S
C1400 C1402 1.370 1_565 S
C1401 H1393 0.930 . S
C1401 C1400 1.380 . S
C1401 C1404 1.402 1_565 S
C1402 C1400 1.370 1_545 S
C1402 C1403 1.417 . S
C1402 C1426 1.431 . S
C1403 N1399 1.350 . S
C1403 C1402 1.417 . S
C1403 C1406 1.426 . S
C1404 H1387 0.930 . S
C1404 N1399 1.307 . S
C1404 C1401 1.402 1_545 S
N1405 Gd1368 2.601 . S
N1405 C1406 1.359 . S
N1405 C1409 1.334 . S
C1406 C1403 1.426 . S
C1406 N1405 1.359 . S
C1406 C1410 1.413 . S
C1407 H1398 0.930 . S
C1407 C1408 1.359 . S
C1407 C1409 1.394 . S
C1408 C1407 1.359 . S
C1408 C1410 1.391 . S
C1408 H1411 0.929 . S
C1409 H1391 0.930 . S
C1409 N1405 1.334 . S
C1409 C1407 1.394 . S
C1410 C1406 1.413 . S
C1410 C1408 1.391 . S
C1410 C1425 1.437 . S
H1411 C1408 0.929 . S
O1412 Gd1368 2.545 . S
O1412 C1427 1.258 . S
O1413 Gd1368 2.606 1_554 S
O1413 Gd1369 2.362 . S
O1413 C1424 1.284 . S
O1414 Gd1369 2.324 . S
O1414 C1434 1.254 . S
O1415 Gd1368 2.429 1_554 S
O1415 C1434 1.268 . S
O1416 Gd1368 2.547 . S
O1416 C1424 1.202 1_556 S
O1417 Gd1368 2.412 . S
O1417 C1427 1.252 . S
O1418 Gd1369 2.545 . S
O1418 C1436 1.258 . S
O1419 Gd1368 2.362 1_554 S
O1419 Gd1369 2.606 . S
O1419 C1435 1.284 . S
O1420 Gd1368 2.324 . S
O1420 C1443 1.213 1_556 S
O1421 Gd1369 2.429 . S
O1421 C1443 1.332 . S
O1422 Gd1369 2.545 . S
O1422 C1435 1.250 . S
O1423 Gd1369 2.412 . S
O1423 C1436 1.252 . S
C1424 O1413 1.284 . S
C1424 O1416 1.202 1_554 S
C1425 H1394 0.929 . S
C1425 C1410 1.437 . S
C1425 C1426 1.317 . S
C1426 H1397 0.930 . S
C1426 C1402 1.431 . S
C1426 C1425 1.317 . S
C1427 Gd1368 2.828 . S
C1427 O1412 1.258 . S
C1427 O1417 1.252 . S
C1427 C1428 1.497 . S
C1428 C1427 1.497 . S
C1428 C1429 1.395 . S
C1428 C1430 1.380 . S
C1429 C1428 1.395 . S
C1429 C1432 1.398 . S
C1429 H1444 0.930 . S
C1430 C1428 1.380 . S
C1430 C1431 1.391 . S
C1430 H1445 0.930 . S
C1431 C1430 1.391 . S
C1431 C1433 1.387 . S
C1432 C1429 1.398 . S
C1432 C1433 1.380 . S
C1432 H1446 0.930 . S
C1433 C1431 1.387 . S
C1433 C1432 1.380 . S
C1433 H1447 0.930 . S
C1434 O1414 1.254 . S
C1434 O1415 1.268 . S
C1435 O1419 1.284 . S
C1435 O1422 1.250 . S
C1436 Gd1369 2.828 . S
C1436 O1418 1.258 . S
C1436 O1423 1.252 . S
C1436 C1437 1.497 . S
C1437 C1436 1.497 . S
C1437 C1438 1.395 . S
C1437 C1439 1.380 . S
C1438 C1437 1.395 . S
C1438 C1441 1.398 1_545 S
C1438 H1448 0.930 1_545 S
C1439 C1437 1.380 . S
C1439 C1440 1.391 . S
C1439 H1449 0.930 . S
C1440 C1439 1.391 . S
C1440 C1442 1.387 . S
C1441 C1438 1.398 1_565 S
C1441 C1442 1.380 1_565 S
C1441 H1450 0.930 . S
C1442 C1440 1.387 . S
C1442 C1441 1.380 1_545 S
C1442 H1451 0.930 . S
C1443 O1420 1.213 1_554 S
C1443 O1421 1.332 . S
H1444 C1429 0.930 . S
H1445 C1430 0.930 . S
H1446 C1432 0.930 . S
H1447 C1433 0.930 . S
H1448 C1438 0.930 1_565 S
H1449 C1439 0.930 . S
H1450 C1441 0.930 . S
H1451 C1442 0.930 . S
Gd1452 N1483 2.661 . S
Gd1452 N1489 2.601 . S
Gd1452 O1496 2.545 . S
Gd1452 O1497 2.606 . S
Gd1452 O1499 2.429 . S
Gd1452 O1500 2.545 . S
Gd1452 O1501 2.412 . S
Gd1452 O1503 2.362 . S
Gd1452 O1504 2.324 . S
Gd1452 C1511 2.828 . S
Gd1453 N1462 2.661 . S
Gd1453 N1466 2.601 . S
Gd1453 O1497 2.362 . S
Gd1453 O1498 2.324 . S
Gd1453 O1502 2.545 . S
Gd1453 O1503 2.606 . S
Gd1453 O1505 2.429 . S
Gd1453 O1506 2.545 . S
Gd1453 O1507 2.412 . S
Gd1453 C1520 2.828 . S
C1454 C1457 1.417 . S
C1454 C1459 1.431 . S
C1454 C1460 1.412 . S
C1455 C1458 1.437 . S
C1455 C1459 1.317 . S
C1455 H1474 0.929 . S
C1456 C1457 1.426 . S
C1456 C1458 1.413 . S
C1456 N1466 1.359 . S
C1457 C1454 1.417 . S
C1457 C1456 1.426 . S
C1457 N1462 1.350 . S
C1458 C1455 1.437 . S
C1458 C1456 1.413 . S
C1458 C1468 1.391 . S
C1459 C1454 1.431 . S
C1459 C1455 1.317 . S
C1459 H1470 0.930 . S
C1460 C1454 1.412 . S
C1460 C1461 1.355 . S
C1460 H1472 0.930 . S
C1461 C1460 1.355 . S
C1461 C1463 1.402 . S
C1461 H1473 0.930 . S
N1462 Gd1453 2.661 . S
N1462 C1457 1.350 . S
N1462 C1463 1.307 . S
C1463 C1461 1.402 . S
C1463 N1462 1.307 . S
C1463 H1464 0.930 . S
H1464 C1463 0.930 . S
C1465 N1466 1.334 . S
C1465 C1467 1.394 . S
C1465 H1469 0.930 . S
N1466 Gd1453 2.601 . S
N1466 C1456 1.359 . S
N1466 C1465 1.334 . S
C1467 C1465 1.394 . S
C1467 C1468 1.359 . S
C1467 H1479 0.930 . S
C1468 C1458 1.391 . S
C1468 C1467 1.359 . S
C1468 H1480 0.929 . S
H1469 C1465 0.930 . S
H1470 C1459 0.930 . S
H1471 C1488 0.930 . S
H1472 C1460 0.930 . S
H1473 C1461 0.930 . S
H1474 C1455 0.929 . S
H1475 C1493 0.930 . S
H1476 C1484 0.930 . S
H1477 C1485 0.930 . S
H1478 C1509 0.929 . S
H1479 C1467 0.930 . S
H1480 C1468 0.929 . S
H1481 C1510 0.930 . S
H1482 C1491 0.930 . S
N1483 Gd1452 2.661 . S
N1483 C1487 1.350 . S
N1483 C1488 1.307 . S
C1484 H1476 0.930 . S
C1484 C1485 1.355 . S
C1484 C1486 1.412 . S
C1485 H1477 0.930 . S
C1485 C1484 1.355 . S
C1485 C1488 1.402 . S
C1486 C1484 1.412 . S
C1486 C1487 1.417 . S
C1486 C1510 1.431 . S
C1487 N1483 1.350 . S
C1487 C1486 1.417 . S
C1487 C1490 1.426 . S
C1488 H1471 0.930 . S
C1488 N1483 1.307 . S
C1488 C1485 1.402 . S
N1489 Gd1452 2.601 . S
N1489 C1490 1.359 . S
N1489 C1493 1.334 . S
C1490 C1487 1.426 . S
C1490 N1489 1.359 . S
C1490 C1494 1.413 . S
C1491 H1482 0.930 . S
C1491 C1492 1.359 . S
C1491 C1493 1.394 . S
C1492 C1491 1.359 . S
C1492 C1494 1.391 . S
C1492 H1495 0.929 . S
C1493 H1475 0.930 . S
C1493 N1489 1.334 . S
C1493 C1491 1.394 . S
C1494 C1490 1.413 . S
C1494 C1492 1.391 . S
C1494 C1509 1.437 . S
H1495 C1492 0.929 . S
O1496 Gd1452 2.545 . S
O1496 C1511 1.258 . S
O1497 Gd1452 2.606 . S
O1497 Gd1453 2.362 . S
O1497 C1508 1.284 . S
O1498 Gd1453 2.324 . S
O1498 C1518 1.254 . S
O1499 Gd1452 2.429 . S
O1499 C1518 1.268 . S
O1500 Gd1452 2.545 . S
O1500 C1508 1.250 . S
O1501 Gd1452 2.412 . S
O1501 C1511 1.252 . S
O1502 Gd1453 2.545 . S
O1502 C1520 1.258 . S
O1503 Gd1452 2.362 . S
O1503 Gd1453 2.606 . S
O1503 C1519 1.284 . S
O1504 Gd1452 2.324 . S
O1504 C1527 1.254 . S
O1505 Gd1453 2.429 . S
O1505 C1527 1.268 . S
O1506 Gd1453 2.545 . S
O1506 C1519 1.250 . S
O1507 Gd1453 2.412 . S
O1507 C1520 1.252 . S
C1508 O1497 1.284 . S
C1508 O1500 1.250 . S
C1509 H1478 0.929 . S
C1509 C1494 1.437 . S
C1509 C1510 1.317 . S
C1510 H1481 0.930 . S
C1510 C1486 1.431 . S
C1510 C1509 1.317 . S
C1511 Gd1452 2.828 . S
C1511 O1496 1.258 . S
C1511 O1501 1.252 . S
C1511 C1512 1.497 . S
C1512 C1511 1.497 . S
C1512 C1513 1.395 . S
C1512 C1514 1.380 . S
C1513 C1512 1.395 . S
C1513 C1516 1.398 . S
C1513 H1528 0.930 . S
C1514 C1512 1.380 . S
C1514 C1515 1.391 . S
C1514 H1529 0.930 . S
C1515 C1514 1.391 . S
C1515 C1517 1.387 . S
C1516 C1513 1.398 . S
C1516 C1517 1.380 . S
C1516 H1530 0.930 . S
C1517 C1515 1.387 . S
C1517 C1516 1.380 . S
C1517 H1531 0.930 . S
C1518 O1498 1.254 . S
C1518 O1499 1.268 . S
C1519 O1503 1.284 . S
C1519 O1506 1.250 . S
C1520 Gd1453 2.828 . S
C1520 O1502 1.258 . S
C1520 O1507 1.252 . S
C1520 C1521 1.497 . S
C1521 C1520 1.497 . S
C1521 C1522 1.395 . S
C1521 C1523 1.380 . S
C1522 C1521 1.395 . S
C1522 C1525 1.398 . S
C1522 H1532 0.930 . S
C1523 C1521 1.380 . S
C1523 C1524 1.391 . S
C1523 H1533 0.930 . S
C1524 C1523 1.391 . S
C1524 C1526 1.387 . S
C1525 C1522 1.398 . S
C1525 C1526 1.380 . S
C1525 H1534 0.930 . S
C1526 C1524 1.387 . S
C1526 C1525 1.380 . S
C1526 H1535 0.930 . S
C1527 O1504 1.254 . S
C1527 O1505 1.268 . S
H1528 C1513 0.930 . S
H1529 C1514 0.930 . S
H1530 C1516 0.930 . S
H1531 C1517 0.930 . S
H1532 C1522 0.930 . S
H1533 C1523 0.930 . S
H1534 C1525 0.930 . S
H1535 C1526 0.930 . S
Gd1536 N1567 2.661 1_554 S
Gd1536 N1573 2.601 1_554 S
Gd1536 O1580 2.545 . S
Gd1536 O1581 2.606 . S
Gd1536 O1583 2.429 . S
Gd1536 O1584 2.545 . S
Gd1536 O1585 2.412 . S
Gd1536 O1587 2.362 1_554 S
Gd1536 O1588 2.324 . S
Gd1536 C1595 2.828 . S
Gd1537 N1546 2.661 . S
Gd1537 N1550 2.601 . S
Gd1537 O1581 2.362 . S
Gd1537 O1582 2.324 . S
Gd1537 O1586 2.545 . S
Gd1537 O1587 2.606 1_554 S
Gd1537 O1589 2.429 . S
Gd1537 O1590 2.545 1_554 S
Gd1537 O1591 2.412 . S
Gd1537 C1604 2.828 . S
C1538 C1541 1.417 . S
C1538 C1543 1.431 . S
C1538 C1544 1.412 . S
C1539 C1542 1.437 . S
C1539 C1543 1.317 . S
C1539 H1558 0.929 . S
C1540 C1541 1.426 . S
C1540 C1542 1.413 . S
C1540 N1550 1.359 . S
C1541 C1538 1.417 . S
C1541 C1540 1.426 . S
C1541 N1546 1.350 . S
C1542 C1539 1.437 . S
C1542 C1540 1.413 . S
C1542 C1552 1.391 . S
C1543 C1538 1.431 . S
C1543 C1539 1.317 . S
C1543 H1554 0.930 . S
C1544 C1538 1.412 . S
C1544 C1545 1.355 . S
C1544 H1556 0.930 . S
C1545 C1544 1.355 . S
C1545 C1547 1.402 . S
C1545 H1557 0.930 . S
N1546 Gd1537 2.661 . S
N1546 C1541 1.350 . S
N1546 C1547 1.307 . S
C1547 C1545 1.402 . S
C1547 N1546 1.307 . S
C1547 H1548 0.930 . S
H1548 C1547 0.930 . S
C1549 N1550 1.334 . S
C1549 C1551 1.394 . S
C1549 H1553 0.930 . S
N1550 Gd1537 2.601 . S
N1550 C1540 1.359 . S
N1550 C1549 1.334 . S
C1551 C1549 1.394 . S
C1551 C1552 1.359 . S
C1551 H1563 0.930 . S
C1552 C1542 1.391 . S
C1552 C1551 1.359 . S
C1552 H1564 0.929 . S
H1553 C1549 0.930 . S
H1554 C1543 0.930 . S
H1555 C1572 0.930 . S
H1556 C1544 0.930 . S
H1557 C1545 0.930 . S
H1558 C1539 0.929 . S
H1559 C1577 0.930 . S
H1560 C1568 0.930 . S
H1561 C1569 0.930 . S
H1562 C1593 0.929 . S
H1563 C1551 0.930 . S
H1564 C1552 0.929 . S
H1565 C1594 0.930 . S
H1566 C1575 0.930 . S
N1567 Gd1536 2.661 1_556 S
N1567 C1571 1.350 . S
N1567 C1572 1.307 . S
C1568 H1560 0.930 . S
C1568 C1569 1.355 . S
C1568 C1570 1.412 . S
C1569 H1561 0.930 . S
C1569 C1568 1.355 . S
C1569 C1572 1.402 . S
C1570 C1568 1.412 . S
C1570 C1571 1.417 . S
C1570 C1594 1.431 . S
C1571 N1567 1.350 . S
C1571 C1570 1.417 . S
C1571 C1574 1.426 . S
C1572 H1555 0.930 . S
C1572 N1567 1.307 . S
C1572 C1569 1.402 . S
N1573 Gd1536 2.601 1_556 S
N1573 C1574 1.359 . S
N1573 C1577 1.334 . S
C1574 C1571 1.426 . S
C1574 N1573 1.359 . S
C1574 C1578 1.413 . S
C1575 H1566 0.930 . S
C1575 C1576 1.359 . S
C1575 C1577 1.394 . S
C1576 C1575 1.359 . S
C1576 C1578 1.391 . S
C1576 H1579 0.929 . S
C1577 H1559 0.930 . S
C1577 N1573 1.334 . S
C1577 C1575 1.394 . S
C1578 C1574 1.413 . S
C1578 C1576 1.391 . S
C1578 C1593 1.437 . S
H1579 C1576 0.929 . S
O1580 Gd1536 2.545 . S
O1580 C1595 1.258 . S
O1581 Gd1536 2.606 . S
O1581 Gd1537 2.362 . S
O1581 C1592 1.284 . S
O1582 Gd1537 2.324 . S
O1582 C1602 1.254 . S
O1583 Gd1536 2.429 . S
O1583 C1602 1.268 . S
O1584 Gd1536 2.545 . S
O1584 C1592 1.250 . S
O1585 Gd1536 2.412 . S
O1585 C1595 1.252 . S
O1586 Gd1537 2.545 . S
O1586 C1604 1.258 . S
O1587 Gd1536 2.362 1_556 S
O1587 Gd1537 2.606 1_556 S
O1587 C1603 1.284 . S
O1588 Gd1536 2.324 . S
O1588 C1611 1.254 . S
O1589 Gd1537 2.429 . S
O1589 C1611 1.268 . S
O1590 Gd1537 2.545 1_556 S
O1590 C1603 1.250 . S
O1591 Gd1537 2.412 . S
O1591 C1604 1.252 . S
C1592 O1581 1.284 . S
C1592 O1584 1.250 . S
C1593 H1562 0.929 . S
C1593 C1578 1.437 . S
C1593 C1594 1.317 . S
C1594 H1565 0.930 . S
C1594 C1570 1.431 . S
C1594 C1593 1.317 . S
C1595 Gd1536 2.828 . S
C1595 O1580 1.258 . S
C1595 O1585 1.252 . S
C1595 C1596 1.497 . S
C1596 C1595 1.497 . S
C1596 C1597 1.395 . S
C1596 C1598 1.380 . S
C1597 C1596 1.395 . S
C1597 C1600 1.398 . S
C1597 H1612 0.930 . S
C1598 C1596 1.380 . S
C1598 C1599 1.391 . S
C1598 H1613 0.930 . S
C1599 C1598 1.391 . S
C1599 C1601 1.387 . S
C1600 C1597 1.398 . S
C1600 C1601 1.380 . S
C1600 H1614 0.930 . S
C1601 C1599 1.387 . S
C1601 C1600 1.380 . S
C1601 H1615 0.930 . S
C1602 O1582 1.254 . S
C1602 O1583 1.268 . S
C1603 O1587 1.284 . S
C1603 O1590 1.250 . S
C1604 Gd1537 2.828 . S
C1604 O1586 1.258 . S
C1604 O1591 1.252 . S
C1604 C1605 1.497 . S
C1605 C1604 1.497 . S
C1605 C1606 1.395 . S
C1605 C1607 1.380 . S
C1606 C1605 1.395 . S
C1606 C1609 1.398 . S
C1606 H1616 0.930 . S
C1607 C1605 1.380 . S
C1607 C1608 1.391 1_554 S
C1607 H1617 0.919 1_554 S
C1608 C1607 1.391 1_556 S
C1608 C1610 1.387 1_556 S
C1609 C1606 1.398 . S
C1609 C1610 1.380 . S
C1609 H1618 0.930 . S
C1610 C1608 1.387 1_554 S
C1610 C1609 1.380 . S
C1610 H1619 0.915 1_554 S
C1611 O1588 1.254 . S
C1611 O1589 1.268 . S
H1612 C1597 0.930 . S
H1613 C1598 0.930 . S
H1614 C1600 0.930 . S
H1615 C1601 0.930 . S
H1616 C1606 0.930 . S
H1617 C1607 0.919 1_556 S
H1618 C1609 0.930 . S
H1619 C1610 0.915 1_556 S
Gd1620 N1651 2.661 . S
Gd1620 N1657 2.601 . S
Gd1620 O1664 2.545 . S
Gd1620 O1665 2.606 . S
Gd1620 O1667 2.429 . S
Gd1620 O1668 2.545 . S
Gd1620 O1669 2.412 . S
Gd1620 O1671 2.362 . S
Gd1620 O1672 2.324 . S
Gd1620 C1679 2.828 . S
Gd1621 N1630 2.661 . S
Gd1621 N1634 2.601 . S
Gd1621 O1665 2.362 . S
Gd1621 O1666 2.324 . S
Gd1621 O1670 2.545 . S
Gd1621 O1671 2.606 . S
Gd1621 O1673 2.429 . S
Gd1621 O1674 2.545 . S
Gd1621 O1675 2.412 . S
Gd1621 C1688 2.828 . S
C1622 C1625 1.417 . S
C1622 C1627 1.431 . S
C1622 C1628 1.412 . S
C1623 C1626 1.437 . S
C1623 C1627 1.317 . S
C1623 H1642 0.929 . S
C1624 C1625 1.426 . S
C1624 C1626 1.413 . S
C1624 N1634 1.359 . S
C1625 C1622 1.417 . S
C1625 C1624 1.426 . S
C1625 N1630 1.350 . S
C1626 C1623 1.437 . S
C1626 C1624 1.413 . S
C1626 C1636 1.391 . S
C1627 C1622 1.431 . S
C1627 C1623 1.317 . S
C1627 H1638 0.930 . S
C1628 C1622 1.412 . S
C1628 C1629 1.355 . S
C1628 H1640 0.930 . S
C1629 C1628 1.355 . S
C1629 C1631 1.402 . S
C1629 H1641 0.930 . S
N1630 Gd1621 2.661 . S
N1630 C1625 1.350 . S
N1630 C1631 1.307 . S
C1631 C1629 1.402 . S
C1631 N1630 1.307 . S
C1631 H1632 0.930 . S
H1632 C1631 0.930 . S
C1633 N1634 1.334 . S
C1633 C1635 1.394 . S
C1633 H1637 0.930 . S
N1634 Gd1621 2.601 . S
N1634 C1624 1.359 . S
N1634 C1633 1.334 . S
C1635 C1633 1.394 . S
C1635 C1636 1.359 . S
C1635 H1647 0.930 . S
C1636 C1626 1.391 . S
C1636 C1635 1.359 . S
C1636 H1648 0.929 . S
H1637 C1633 0.930 . S
H1638 C1627 0.930 . S
H1639 C1656 0.930 . S
H1640 C1628 0.930 . S
H1641 C1629 0.930 . S
H1642 C1623 0.929 . S
H1643 C1661 0.930 . S
H1644 C1652 0.930 . S
H1645 C1653 0.930 . S
H1646 C1677 0.929 . S
H1647 C1635 0.930 . S
H1648 C1636 0.929 . S
H1649 C1678 0.930 . S
H1650 C1659 0.930 . S
N1651 Gd1620 2.661 . S
N1651 C1655 1.350 . S
N1651 C1656 1.307 . S
C1652 H1644 0.930 . S
C1652 C1653 1.355 . S
C1652 C1654 1.412 . S
C1653 H1645 0.930 . S
C1653 C1652 1.355 . S
C1653 C1656 1.402 . S
C1654 C1652 1.412 . S
C1654 C1655 1.417 . S
C1654 C1678 1.431 . S
C1655 N1651 1.350 . S
C1655 C1654 1.417 . S
C1655 C1658 1.426 . S
C1656 H1639 0.930 . S
C1656 N1651 1.307 . S
C1656 C1653 1.402 . S
N1657 Gd1620 2.601 . S
N1657 C1658 1.359 . S
N1657 C1661 1.334 . S
C1658 C1655 1.426 . S
C1658 N1657 1.359 . S
C1658 C1662 1.413 . S
C1659 H1650 0.930 . S
C1659 C1660 1.359 . S
C1659 C1661 1.394 . S
C1660 C1659 1.359 . S
C1660 C1662 1.391 . S
C1660 H1663 0.929 . S
C1661 H1643 0.930 . S
C1661 N1657 1.334 . S
C1661 C1659 1.394 . S
C1662 C1658 1.413 . S
C1662 C1660 1.391 . S
C1662 C1677 1.437 . S
H1663 C1660 0.929 . S
O1664 Gd1620 2.545 . S
O1664 C1679 1.258 . S
O1665 Gd1620 2.606 . S
O1665 Gd1621 2.362 . S
O1665 C1676 1.284 . S
O1666 Gd1621 2.324 . S
O1666 C1686 1.254 . S
O1667 Gd1620 2.429 . S
O1667 C1686 1.268 . S
O1668 Gd1620 2.545 . S
O1668 C1676 1.250 . S
O1669 Gd1620 2.412 . S
O1669 C1679 1.252 . S
O1670 Gd1621 2.545 . S
O1670 C1688 1.258 . S
O1671 Gd1620 2.362 . S
O1671 Gd1621 2.606 . S
O1671 C1687 1.284 . S
O1672 Gd1620 2.324 . S
O1672 C1695 1.254 . S
O1673 Gd1621 2.429 . S
O1673 C1695 1.268 . S
O1674 Gd1621 2.545 . S
O1674 C1687 1.250 . S
O1675 Gd1621 2.412 . S
O1675 C1688 1.252 . S
C1676 O1665 1.284 . S
C1676 O1668 1.250 . S
C1677 H1646 0.929 . S
C1677 C1662 1.437 . S
C1677 C1678 1.317 . S
C1678 H1649 0.930 . S
C1678 C1654 1.431 . S
C1678 C1677 1.317 . S
C1679 Gd1620 2.828 . S
C1679 O1664 1.258 . S
C1679 O1669 1.252 . S
C1679 C1680 1.497 . S
C1680 C1679 1.497 . S
C1680 C1681 1.395 . S
C1680 C1682 1.380 . S
C1681 C1680 1.395 . S
C1681 C1684 1.398 . S
C1681 H1696 0.930 . S
C1682 C1680 1.380 . S
C1682 C1683 1.391 . S
C1682 H1697 0.930 . S
C1683 C1682 1.391 . S
C1683 C1685 1.387 . S
C1684 C1681 1.398 . S
C1684 C1685 1.380 . S
C1684 H1698 0.930 . S
C1685 C1683 1.387 . S
C1685 C1684 1.380 . S
C1685 H1699 0.930 . S
C1686 O1666 1.254 . S
C1686 O1667 1.268 . S
C1687 O1671 1.284 . S
C1687 O1674 1.250 . S
C1688 Gd1621 2.828 . S
C1688 O1670 1.258 . S
C1688 O1675 1.252 . S
C1688 C1689 1.497 . S
C1689 C1688 1.497 . S
C1689 C1690 1.395 . S
C1689 C1691 1.380 . S
C1690 C1689 1.395 . S
C1690 C1693 1.398 . S
C1690 H1700 0.930 . S
C1691 C1689 1.380 . S
C1691 C1692 1.391 . S
C1691 H1701 0.930 . S
C1692 C1691 1.391 . S
C1692 C1694 1.387 . S
C1693 C1690 1.398 . S
C1693 C1694 1.380 . S
C1693 H1702 0.930 . S
C1694 C1692 1.387 . S
C1694 C1693 1.380 . S
C1694 H1703 0.930 . S
C1695 O1672 1.254 . S
C1695 O1673 1.268 . S
H1696 C1681 0.930 . S
H1697 C1682 0.930 . S
H1698 C1684 0.930 . S
H1699 C1685 0.930 . S
H1700 C1690 0.930 . S
H1701 C1691 0.930 . S
H1702 C1693 0.930 . S
H1703 C1694 0.930 . S
Gd1704 N1735 2.661 . S
Gd1704 N1741 2.601 . S
Gd1704 O1748 2.545 . S
Gd1704 O1749 2.606 . S
Gd1704 O1751 2.429 . S
Gd1704 O1752 2.545 . S
Gd1704 O1753 2.412 . S
Gd1704 O1755 2.362 . S
Gd1704 O1756 2.324 . S
Gd1704 C1763 2.828 . S
Gd1705 N1714 2.661 . S
Gd1705 N1718 2.601 . S
Gd1705 O1749 2.362 . S
Gd1705 O1750 2.324 . S
Gd1705 O1754 2.545 . S
Gd1705 O1755 2.606 . S
Gd1705 O1757 2.429 . S
Gd1705 O1758 2.545 . S
Gd1705 O1759 2.412 . S
Gd1705 C1772 2.828 . S
C1706 C1709 1.417 . S
C1706 C1711 1.431 . S
C1706 C1712 1.412 . S
C1707 C1710 1.437 . S
C1707 C1711 1.317 . S
C1707 H1726 0.929 . S
C1708 C1709 1.426 . S
C1708 C1710 1.413 . S
C1708 N1718 1.359 . S
C1709 C1706 1.417 . S
C1709 C1708 1.426 . S
C1709 N1714 1.350 . S
C1710 C1707 1.437 . S
C1710 C1708 1.413 . S
C1710 C1720 1.391 . S
C1711 C1706 1.431 . S
C1711 C1707 1.317 . S
C1711 H1722 0.930 . S
C1712 C1706 1.412 . S
C1712 C1713 1.355 . S
C1712 H1724 0.930 . S
C1713 C1712 1.355 . S
C1713 C1715 1.402 . S
C1713 H1725 0.930 . S
N1714 Gd1705 2.661 . S
N1714 C1709 1.350 . S
N1714 C1715 1.307 . S
C1715 C1713 1.402 . S
C1715 N1714 1.307 . S
C1715 H1716 0.930 . S
H1716 C1715 0.930 . S
C1717 N1718 1.334 . S
C1717 C1719 1.394 . S
C1717 H1721 0.930 . S
N1718 Gd1705 2.601 . S
N1718 C1708 1.359 . S
N1718 C1717 1.334 . S
C1719 C1717 1.394 . S
C1719 C1720 1.359 . S
C1719 H1731 0.930 . S
C1720 C1710 1.391 . S
C1720 C1719 1.359 . S
C1720 H1732 0.929 . S
H1721 C1717 0.930 . S
H1722 C1711 0.930 . S
H1723 C1740 0.930 . S
H1724 C1712 0.930 . S
H1725 C1713 0.930 . S
H1726 C1707 0.929 . S
H1727 C1745 0.930 . S
H1728 C1736 0.930 . S
H1729 C1737 0.930 . S
H1730 C1761 0.929 . S
H1731 C1719 0.930 . S
H1732 C1720 0.929 . S
H1733 C1762 0.930 . S
H1734 C1743 0.930 . S
N1735 Gd1704 2.661 . S
N1735 C1739 1.350 . S
N1735 C1740 1.307 . S
C1736 H1728 0.930 . S
C1736 C1737 1.355 1_655 S
C1736 C1738 1.412 . S
C1737 H1729 0.930 . S
C1737 C1736 1.355 1_455 S
C1737 C1740 1.402 . S
C1738 C1736 1.412 . S
C1738 C1739 1.417 1_655 S
C1738 C1762 1.431 . S
C1739 N1735 1.350 . S
C1739 C1738 1.417 1_455 S
C1739 C1742 1.426 . S
C1740 H1723 0.930 . S
C1740 N1735 1.307 . S
C1740 C1737 1.402 . S
N1741 Gd1704 2.601 . S
N1741 C1742 1.359 . S
N1741 C1745 1.334 . S
C1742 C1739 1.426 . S
C1742 N1741 1.359 . S
C1742 C1746 1.413 1_455 S
C1743 H1734 0.930 . S
C1743 C1744 1.359 1_455 S
C1743 C1745 1.394 . S
C1744 C1743 1.359 1_655 S
C1744 C1746 1.391 . S
C1744 H1747 0.929 . S
C1745 H1727 0.930 . S
C1745 N1741 1.334 . S
C1745 C1743 1.394 . S
C1746 C1742 1.413 1_655 S
C1746 C1744 1.391 . S
C1746 C1761 1.437 . S
H1747 C1744 0.929 . S
O1748 Gd1704 2.545 . S
O1748 C1763 1.258 . S
O1749 Gd1704 2.606 . S
O1749 Gd1705 2.362 . S
O1749 C1760 1.284 . S
O1750 Gd1705 2.324 . S
O1750 C1770 1.254 . S
O1751 Gd1704 2.429 . S
O1751 C1770 1.268 . S
O1752 Gd1704 2.545 . S
O1752 C1760 1.250 . S
O1753 Gd1704 2.412 . S
O1753 C1763 1.252 . S
O1754 Gd1705 2.545 . S
O1754 C1772 1.258 . S
O1755 Gd1704 2.362 . S
O1755 Gd1705 2.606 . S
O1755 C1771 1.284 . S
O1756 Gd1704 2.324 . S
O1756 C1779 1.254 . S
O1757 Gd1705 2.429 . S
O1757 C1779 1.268 . S
O1758 Gd1705 2.545 . S
O1758 C1771 1.250 . S
O1759 Gd1705 2.412 . S
O1759 C1772 1.252 . S
C1760 O1749 1.284 . S
C1760 O1752 1.250 . S
C1761 H1730 0.929 . S
C1761 C1746 1.437 . S
C1761 C1762 1.317 . S
C1762 H1733 0.930 . S
C1762 C1738 1.431 . S
C1762 C1761 1.317 . S
C1763 Gd1704 2.828 . S
C1763 O1748 1.258 . S
C1763 O1753 1.252 . S
C1763 C1764 1.497 . S
C1764 C1763 1.497 . S
C1764 C1765 1.395 . S
C1764 C1766 1.380 . S
C1765 C1764 1.395 . S
C1765 C1768 1.398 . S
C1765 H1780 0.930 . S
C1766 C1764 1.380 . S
C1766 C1767 1.391 . S
C1766 H1781 0.930 . S
C1767 C1766 1.391 . S
C1767 C1769 1.387 . S
C1768 C1765 1.398 . S
C1768 C1769 1.380 . S
C1768 H1782 0.930 . S
C1769 C1767 1.387 . S
C1769 C1768 1.380 . S
C1769 H1783 0.930 . S
C1770 O1750 1.254 . S
C1770 O1751 1.268 . S
C1771 O1755 1.284 . S
C1771 O1758 1.250 . S
C1772 Gd1705 2.828 . S
C1772 O1754 1.258 . S
C1772 O1759 1.252 . S
C1772 C1773 1.497 . S
C1773 C1772 1.497 . S
C1773 C1774 1.395 . S
C1773 C1775 1.380 . S
C1774 C1773 1.395 . S
C1774 C1777 1.398 . S
C1774 H1784 0.930 . S
C1775 C1773 1.380 . S
C1775 C1776 1.391 . S
C1775 H1785 0.930 . S
C1776 C1775 1.391 . S
C1776 C1778 1.387 . S
C1777 C1774 1.398 . S
C1777 C1778 1.380 . S
C1777 H1786 0.930 . S
C1778 C1776 1.387 . S
C1778 C1777 1.380 . S
C1778 H1787 0.930 . S
C1779 O1756 1.254 . S
C1779 O1757 1.268 . S
H1780 C1765 0.930 . S
H1781 C1766 0.930 . S
H1782 C1768 0.930 . S
H1783 C1769 0.930 . S
H1784 C1774 0.930 . S
H1785 C1775 0.930 . S
H1786 C1777 0.930 . S
H1787 C1778 0.930 . S
Gd1788 N1819 2.661 . S
Gd1788 N1825 2.601 . S
Gd1788 O1832 2.545 . S
Gd1788 O1833 2.606 . S
Gd1788 O1835 2.429 . S
Gd1788 O1836 2.545 . S
Gd1788 O1837 2.412 . S
Gd1788 O1839 2.362 . S
Gd1788 O1840 2.324 . S
Gd1788 C1847 2.828 . S
Gd1789 N1798 2.661 . S
Gd1789 N1802 2.601 . S
Gd1789 O1833 2.362 . S
Gd1789 O1834 2.324 . S
Gd1789 O1838 2.545 . S
Gd1789 O1839 2.606 . S
Gd1789 O1841 2.429 . S
Gd1789 O1842 2.545 . S
Gd1789 O1843 2.412 . S
Gd1789 C1856 2.828 . S
C1790 C1793 1.417 . S
C1790 C1795 1.431 . S
C1790 C1796 1.412 . S
C1791 C1794 1.437 . S
C1791 C1795 1.317 . S
C1791 H1810 0.929 . S
C1792 C1793 1.426 . S
C1792 C1794 1.413 . S
C1792 N1802 1.359 . S
C1793 C1790 1.417 . S
C1793 C1792 1.426 . S
C1793 N1798 1.350 . S
C1794 C1791 1.437 . S
C1794 C1792 1.413 . S
C1794 C1804 1.391 . S
C1795 C1790 1.431 . S
C1795 C1791 1.317 . S
C1795 H1806 0.930 . S
C1796 C1790 1.412 . S
C1796 C1797 1.355 . S
C1796 H1808 0.930 . S
C1797 C1796 1.355 . S
C1797 C1799 1.402 . S
C1797 H1809 0.930 . S
N1798 Gd1789 2.661 . S
N1798 C1793 1.350 . S
N1798 C1799 1.307 . S
C1799 C1797 1.402 . S
C1799 N1798 1.307 . S
C1799 H1800 0.930 . S
H1800 C1799 0.930 . S
C1801 N1802 1.334 . S
C1801 C1803 1.394 . S
C1801 H1805 0.930 . S
N1802 Gd1789 2.601 . S
N1802 C1792 1.359 . S
N1802 C1801 1.334 . S
C1803 C1801 1.394 . S
C1803 C1804 1.359 . S
C1803 H1815 0.930 . S
C1804 C1794 1.391 . S
C1804 C1803 1.359 . S
C1804 H1816 0.929 . S
H1805 C1801 0.930 . S
H1806 C1795 0.930 . S
H1807 C1824 0.930 . S
H1808 C1796 0.930 . S
H1809 C1797 0.930 . S
H1810 C1791 0.929 . S
H1811 C1829 0.930 . S
H1812 C1820 0.930 . S
H1813 C1821 0.930 . S
H1814 C1845 0.929 . S
H1815 C1803 0.930 . S
H1816 C1804 0.929 . S
H1817 C1846 0.930 . S
H1818 C1827 0.930 . S
N1819 Gd1788 2.661 . S
N1819 C1823 1.350 . S
N1819 C1824 1.307 . S
C1820 H1812 0.930 . S
C1820 C1821 1.355 . S
C1820 C1822 1.412 . S
C1821 H1813 0.930 . S
C1821 C1820 1.355 . S
C1821 C1824 1.402 . S
C1822 C1820 1.412 . S
C1822 C1823 1.417 . S
C1822 C1846 1.431 . S
C1823 N1819 1.350 . S
C1823 C1822 1.417 . S
C1823 C1826 1.426 . S
C1824 H1807 0.930 . S
C1824 N1819 1.307 . S
C1824 C1821 1.402 . S
N1825 Gd1788 2.601 . S
N1825 C1826 1.359 . S
N1825 C1829 1.334 . S
C1826 C1823 1.426 . S
C1826 N1825 1.359 . S
C1826 C1830 1.413 . S
C1827 H1818 0.930 . S
C1827 C1828 1.359 . S
C1827 C1829 1.394 . S
C1828 C1827 1.359 . S
C1828 C1830 1.391 . S
C1828 H1831 0.929 . S
C1829 H1811 0.930 . S
C1829 N1825 1.334 . S
C1829 C1827 1.394 . S
C1830 C1826 1.413 . S
C1830 C1828 1.391 . S
C1830 C1845 1.437 . S
H1831 C1828 0.929 . S
O1832 Gd1788 2.545 . S
O1832 C1847 1.258 . S
O1833 Gd1788 2.606 . S
O1833 Gd1789 2.362 . S
O1833 C1844 1.284 . S
O1834 Gd1789 2.324 . S
O1834 C1854 1.254 . S
O1835 Gd1788 2.429 . S
O1835 C1854 1.268 . S
O1836 Gd1788 2.545 . S
O1836 C1844 1.250 . S
O1837 Gd1788 2.412 . S
O1837 C1847 1.252 . S
O1838 Gd1789 2.545 . S
O1838 C1856 1.258 . S
O1839 Gd1788 2.362 . S
O1839 Gd1789 2.606 . S
O1839 C1855 1.284 . S
O1840 Gd1788 2.324 . S
O1840 C1863 1.254 . S
O1841 Gd1789 2.429 . S
O1841 C1863 1.268 . S
O1842 Gd1789 2.545 . S
O1842 C1855 1.250 . S
O1843 Gd1789 2.412 . S
O1843 C1856 1.252 . S
C1844 O1833 1.284 . S
C1844 O1836 1.250 . S
C1845 H1814 0.929 . S
C1845 C1830 1.437 . S
C1845 C1846 1.317 . S
C1846 H1817 0.930 . S
C1846 C1822 1.431 . S
C1846 C1845 1.317 . S
C1847 Gd1788 2.828 . S
C1847 O1832 1.258 . S
C1847 O1837 1.252 . S
C1847 C1848 1.497 . S
C1848 C1847 1.497 . S
C1848 C1849 1.395 . S
C1848 C1850 1.380 . S
C1849 C1848 1.395 . S
C1849 C1852 1.398 . S
C1849 H1864 0.930 . S
C1850 C1848 1.380 . S
C1850 C1851 1.391 . S
C1850 H1865 0.930 . S
C1851 C1850 1.391 . S
C1851 C1853 1.387 . S
C1852 C1849 1.398 . S
C1852 C1853 1.380 . S
C1852 H1866 0.930 . S
C1853 C1851 1.387 . S
C1853 C1852 1.380 . S
C1853 H1867 0.930 . S
C1854 O1834 1.254 . S
C1854 O1835 1.268 . S
C1855 O1839 1.284 . S
C1855 O1842 1.250 . S
C1856 Gd1789 2.828 . S
C1856 O1838 1.258 . S
C1856 O1843 1.252 . S
C1856 C1857 1.497 . S
C1857 C1856 1.497 . S
C1857 C1858 1.395 . S
C1857 C1859 1.380 . S
C1858 C1857 1.395 . S
C1858 C1861 1.398 . S
C1858 H1868 0.930 . S
C1859 C1857 1.380 . S
C1859 C1860 1.391 . S
C1859 H1869 0.930 . S
C1860 C1859 1.391 . S
C1860 C1862 1.387 . S
C1861 C1858 1.398 . S
C1861 C1862 1.380 . S
C1861 H1870 0.930 . S
C1862 C1860 1.387 . S
C1862 C1861 1.380 . S
C1862 H1871 0.930 . S
C1863 O1840 1.254 . S
C1863 O1841 1.268 . S
H1864 C1849 0.930 . S
H1865 C1850 0.930 . S
H1866 C1852 0.930 . S
H1867 C1853 0.930 . S
H1868 C1858 0.930 . S
H1869 C1859 0.930 . S
H1870 C1861 0.930 . S
H1871 C1862 0.930 . S
Gd1872 N1903 2.661 . S
Gd1872 N1909 2.601 . S
Gd1872 O1916 2.545 . S
Gd1872 O1917 2.606 . S
Gd1872 O1919 2.429 . S
Gd1872 O1920 2.545 . S
Gd1872 O1921 2.412 . S
Gd1872 O1923 2.362 . S
Gd1872 O1924 2.324 . S
Gd1872 C1931 2.828 . S
Gd1873 N1882 2.661 . S
Gd1873 N1886 2.601 . S
Gd1873 O1917 2.362 . S
Gd1873 O1918 2.324 . S
Gd1873 O1922 2.545 . S
Gd1873 O1923 2.606 . S
Gd1873 O1925 2.429 . S
Gd1873 O1926 2.545 . S
Gd1873 O1927 2.412 . S
Gd1873 C1940 2.828 . S
C1874 C1877 1.417 . S
C1874 C1879 1.431 . S
C1874 C1880 1.412 . S
C1875 C1878 1.437 . S
C1875 C1879 1.317 . S
C1875 H1894 0.929 . S
C1876 C1877 1.426 . S
C1876 C1878 1.413 . S
C1876 N1886 1.359 . S
C1877 C1874 1.417 . S
C1877 C1876 1.426 . S
C1877 N1882 1.350 . S
C1878 C1875 1.437 . S
C1878 C1876 1.413 . S
C1878 C1888 1.391 . S
C1879 C1874 1.431 . S
C1879 C1875 1.317 . S
C1879 H1890 0.930 . S
C1880 C1874 1.412 . S
C1880 C1881 1.355 . S
C1880 H1892 0.930 . S
C1881 C1880 1.355 . S
C1881 C1883 1.402 . S
C1881 H1893 0.930 . S
N1882 Gd1873 2.661 . S
N1882 C1877 1.350 . S
N1882 C1883 1.307 . S
C1883 C1881 1.402 . S
C1883 N1882 1.307 . S
C1883 H1884 0.930 . S
H1884 C1883 0.930 . S
C1885 N1886 1.334 . S
C1885 C1887 1.394 . S
C1885 H1889 0.930 . S
N1886 Gd1873 2.601 . S
N1886 C1876 1.359 . S
N1886 C1885 1.334 . S
C1887 C1885 1.394 . S
C1887 C1888 1.359 . S
C1887 H1899 0.930 . S
C1888 C1878 1.391 . S
C1888 C1887 1.359 . S
C1888 H1900 0.929 . S
H1889 C1885 0.930 . S
H1890 C1879 0.930 . S
H1891 C1908 0.930 . S
H1892 C1880 0.930 . S
H1893 C1881 0.930 . S
H1894 C1875 0.929 . S
H1895 C1913 0.930 . S
H1896 C1904 0.930 . S
H1897 C1905 0.930 . S
H1898 C1929 0.929 . S
H1899 C1887 0.930 . S
H1900 C1888 0.929 . S
H1901 C1930 0.930 . S
H1902 C1911 0.930 . S
N1903 Gd1872 2.661 . S
N1903 C1907 1.350 . S
N1903 C1908 1.307 . S
C1904 H1896 0.930 . S
C1904 C1905 1.355 . S
C1904 C1906 1.412 . S
C1905 H1897 0.930 . S
C1905 C1904 1.355 . S
C1905 C1908 1.402 . S
C1906 C1904 1.412 . S
C1906 C1907 1.417 . S
C1906 C1930 1.431 . S
C1907 N1903 1.350 . S
C1907 C1906 1.417 . S
C1907 C1910 1.426 . S
C1908 H1891 0.930 . S
C1908 N1903 1.307 . S
C1908 C1905 1.402 . S
N1909 Gd1872 2.601 . S
N1909 C1910 1.359 . S
N1909 C1913 1.334 . S
C1910 C1907 1.426 . S
C1910 N1909 1.359 . S
C1910 C1914 1.413 . S
C1911 H1902 0.930 . S
C1911 C1912 1.359 . S
C1911 C1913 1.394 . S
C1912 C1911 1.359 . S
C1912 C1914 1.391 . S
C1912 H1915 0.929 . S
C1913 H1895 0.930 . S
C1913 N1909 1.334 . S
C1913 C1911 1.394 . S
C1914 C1910 1.413 . S
C1914 C1912 1.391 . S
C1914 C1929 1.437 . S
H1915 C1912 0.929 . S
O1916 Gd1872 2.545 . S
O1916 C1931 1.258 . S
O1917 Gd1872 2.606 . S
O1917 Gd1873 2.362 . S
O1917 C1928 1.284 . S
O1918 Gd1873 2.324 . S
O1918 C1938 1.254 . S
O1919 Gd1872 2.429 . S
O1919 C1938 1.268 . S
O1920 Gd1872 2.545 . S
O1920 C1928 1.250 . S
O1921 Gd1872 2.412 . S
O1921 C1931 1.252 . S
O1922 Gd1873 2.545 . S
O1922 C1940 1.258 . S
O1923 Gd1872 2.362 . S
O1923 Gd1873 2.606 . S
O1923 C1939 1.284 . S
O1924 Gd1872 2.324 . S
O1924 C1947 1.254 . S
O1925 Gd1873 2.429 . S
O1925 C1947 1.268 . S
O1926 Gd1873 2.545 . S
O1926 C1939 1.250 . S
O1927 Gd1873 2.412 . S
O1927 C1940 1.252 . S
C1928 O1917 1.284 . S
C1928 O1920 1.250 . S
C1929 H1898 0.929 . S
C1929 C1914 1.437 . S
C1929 C1930 1.317 . S
C1930 H1901 0.930 . S
C1930 C1906 1.431 . S
C1930 C1929 1.317 . S
C1931 Gd1872 2.828 . S
C1931 O1916 1.258 . S
C1931 O1921 1.252 . S
C1931 C1932 1.497 . S
C1932 C1931 1.497 . S
C1932 C1933 1.395 . S
C1932 C1934 1.380 . S
C1933 C1932 1.395 . S
C1933 C1936 1.398 . S
C1933 H1948 0.930 . S
C1934 C1932 1.380 . S
C1934 C1935 1.391 . S
C1934 H1949 0.930 . S
C1935 C1934 1.391 . S
C1935 C1937 1.387 . S
C1936 C1933 1.398 . S
C1936 C1937 1.380 . S
C1936 H1950 0.930 . S
C1937 C1935 1.387 . S
C1937 C1936 1.380 . S
C1937 H1951 0.930 . S
C1938 O1918 1.254 . S
C1938 O1919 1.268 . S
C1939 O1923 1.284 . S
C1939 O1926 1.250 . S
C1940 Gd1873 2.828 . S
C1940 O1922 1.258 . S
C1940 O1927 1.252 . S
C1940 C1941 1.497 . S
C1941 C1940 1.497 . S
C1941 C1942 1.395 . S
C1941 C1943 1.380 . S
C1942 C1941 1.395 . S
C1942 C1945 1.398 . S
C1942 H1952 0.930 . S
C1943 C1941 1.380 . S
C1943 C1944 1.391 . S
C1943 H1953 0.930 . S
C1944 C1943 1.391 . S
C1944 C1946 1.387 . S
C1945 C1942 1.398 . S
C1945 C1946 1.380 . S
C1945 H1954 0.930 . S
C1946 C1944 1.387 . S
C1946 C1945 1.380 . S
C1946 H1955 0.930 . S
C1947 O1924 1.254 . S
C1947 O1925 1.268 . S
H1948 C1933 0.930 . S
H1949 C1934 0.930 . S
H1950 C1936 0.930 . S
H1951 C1937 0.930 . S
H1952 C1942 0.930 . S
H1953 C1943 0.930 . S
H1954 C1945 0.930 . S
H1955 C1946 0.930 . S
Gd1956 N1987 2.661 . S
Gd1956 N1993 2.601 . S
Gd1956 O2000 2.545 . S
Gd1956 O2001 2.606 . S
Gd1956 O2003 2.429 . S
Gd1956 O2004 2.545 . S
Gd1956 O2005 2.412 . S
Gd1956 O2007 2.362 . S
Gd1956 O2008 2.324 . S
Gd1956 C2015 2.828 . S
Gd1957 N1966 2.661 . S
Gd1957 N1970 2.601 . S
Gd1957 O2001 2.362 . S
Gd1957 O2002 2.324 . S
Gd1957 O2006 2.545 . S
Gd1957 O2007 2.606 . S
Gd1957 O2009 2.429 . S
Gd1957 O2010 2.545 . S
Gd1957 O2011 2.412 . S
Gd1957 C2024 2.828 . S
C1958 C1961 1.417 . S
C1958 C1963 1.431 . S
C1958 C1964 1.412 . S
C1959 C1962 1.437 . S
C1959 C1963 1.317 . S
C1959 H1978 0.929 . S
C1960 C1961 1.426 . S
C1960 C1962 1.413 . S
C1960 N1970 1.359 . S
C1961 C1958 1.417 . S
C1961 C1960 1.426 . S
C1961 N1966 1.350 . S
C1962 C1959 1.437 . S
C1962 C1960 1.413 . S
C1962 C1972 1.391 . S
C1963 C1958 1.431 . S
C1963 C1959 1.317 . S
C1963 H1974 0.930 . S
C1964 C1958 1.412 . S
C1964 C1965 1.355 . S
C1964 H1976 0.930 . S
C1965 C1964 1.355 . S
C1965 C1967 1.402 . S
C1965 H1977 0.930 . S
N1966 Gd1957 2.661 . S
N1966 C1961 1.350 . S
N1966 C1967 1.307 . S
C1967 C1965 1.402 . S
C1967 N1966 1.307 . S
C1967 H1968 0.930 . S
H1968 C1967 0.930 . S
C1969 N1970 1.334 . S
C1969 C1971 1.394 . S
C1969 H1973 0.930 . S
N1970 Gd1957 2.601 . S
N1970 C1960 1.359 . S
N1970 C1969 1.334 . S
C1971 C1969 1.394 . S
C1971 C1972 1.359 . S
C1971 H1983 0.930 . S
C1972 C1962 1.391 . S
C1972 C1971 1.359 . S
C1972 H1984 0.929 . S
H1973 C1969 0.930 . S
H1974 C1963 0.930 . S
H1975 C1992 0.930 . S
H1976 C1964 0.930 . S
H1977 C1965 0.930 . S
H1978 C1959 0.929 . S
H1979 C1997 0.930 . S
H1980 C1988 0.930 . S
H1981 C1989 0.930 . S
H1982 C2013 0.929 . S
H1983 C1971 0.930 . S
H1984 C1972 0.929 . S
H1985 C2014 0.930 . S
H1986 C1995 0.930 . S
N1987 Gd1956 2.661 . S
N1987 C1991 1.350 . S
N1987 C1992 1.307 . S
C1988 H1980 0.930 . S
C1988 C1989 1.355 . S
C1988 C1990 1.412 . S
C1989 H1981 0.930 . S
C1989 C1988 1.355 . S
C1989 C1992 1.402 . S
C1990 C1988 1.412 . S
C1990 C1991 1.417 . S
C1990 C2014 1.431 . S
C1991 N1987 1.350 . S
C1991 C1990 1.417 . S
C1991 C1994 1.426 . S
C1992 H1975 0.930 . S
C1992 N1987 1.307 . S
C1992 C1989 1.402 . S
N1993 Gd1956 2.601 . S
N1993 C1994 1.359 . S
N1993 C1997 1.334 . S
C1994 C1991 1.426 . S
C1994 N1993 1.359 . S
C1994 C1998 1.413 . S
C1995 H1986 0.930 . S
C1995 C1996 1.359 . S
C1995 C1997 1.394 . S
C1996 C1995 1.359 . S
C1996 C1998 1.391 . S
C1996 H1999 0.929 . S
C1997 H1979 0.930 . S
C1997 N1993 1.334 . S
C1997 C1995 1.394 . S
C1998 C1994 1.413 . S
C1998 C1996 1.391 . S
C1998 C2013 1.437 . S
H1999 C1996 0.929 . S
O2000 Gd1956 2.545 . S
O2000 C2015 1.258 . S
O2001 Gd1956 2.606 . S
O2001 Gd1957 2.362 . S
O2001 C2012 1.284 . S
O2002 Gd1957 2.324 . S
O2002 C2022 1.254 . S
O2003 Gd1956 2.429 . S
O2003 C2022 1.268 . S
O2004 Gd1956 2.545 . S
O2004 C2012 1.250 . S
O2005 Gd1956 2.412 . S
O2005 C2015 1.252 . S
O2006 Gd1957 2.545 . S
O2006 C2024 1.258 . S
O2007 Gd1956 2.362 . S
O2007 Gd1957 2.606 . S
O2007 C2023 1.284 . S
O2008 Gd1956 2.324 . S
O2008 C2031 1.254 . S
O2009 Gd1957 2.429 . S
O2009 C2031 1.268 . S
O2010 Gd1957 2.545 . S
O2010 C2023 1.250 . S
O2011 Gd1957 2.412 . S
O2011 C2024 1.252 . S
C2012 O2001 1.284 . S
C2012 O2004 1.250 . S
C2013 H1982 0.929 . S
C2013 C1998 1.437 . S
C2013 C2014 1.317 . S
C2014 H1985 0.930 . S
C2014 C1990 1.431 . S
C2014 C2013 1.317 . S
C2015 Gd1956 2.828 . S
C2015 O2000 1.258 . S
C2015 O2005 1.252 . S
C2015 C2016 1.497 . S
C2016 C2015 1.497 . S
C2016 C2017 1.395 . S
C2016 C2018 1.380 . S
C2017 C2016 1.395 . S
C2017 C2020 1.398 . S
C2017 H2032 0.930 . S
C2018 C2016 1.380 . S
C2018 C2019 1.391 . S
C2018 H2033 0.930 . S
C2019 C2018 1.391 . S
C2019 C2021 1.387 . S
C2020 C2017 1.398 . S
C2020 C2021 1.380 . S
C2020 H2034 0.930 . S
C2021 C2019 1.387 . S
C2021 C2020 1.380 . S
C2021 H2035 0.930 . S
C2022 O2002 1.254 . S
C2022 O2003 1.268 . S
C2023 O2007 1.284 . S
C2023 O2010 1.250 . S
C2024 Gd1957 2.828 . S
C2024 O2006 1.258 . S
C2024 O2011 1.252 . S
C2024 C2025 1.497 . S
C2025 C2024 1.497 . S
C2025 C2026 1.395 . S
C2025 C2027 1.380 . S
C2026 C2025 1.395 . S
C2026 C2029 1.398 . S
C2026 H2036 0.930 . S
C2027 C2025 1.380 . S
C2027 C2028 1.391 . S
C2027 H2037 0.930 . S
C2028 C2027 1.391 . S
C2028 C2030 1.387 . S
C2029 C2026 1.398 . S
C2029 C2030 1.380 . S
C2029 H2038 0.930 . S
C2030 C2028 1.387 . S
C2030 C2029 1.380 . S
C2030 H2039 0.930 . S
C2031 O2008 1.254 . S
C2031 O2009 1.268 . S
H2032 C2017 0.930 . S
H2033 C2018 0.930 . S
H2034 C2020 0.930 . S
H2035 C2021 0.930 . S
H2036 C2026 0.930 . S
H2037 C2027 0.930 . S
H2038 C2029 0.930 . S
H2039 C2030 0.930 . S
Gd2040 N2071 2.661 . S
Gd2040 N2077 2.601 . S
Gd2040 O2084 2.545 . S
Gd2040 O2085 2.606 . S
Gd2040 O2087 2.429 . S
Gd2040 O2088 2.545 . S
Gd2040 O2089 2.412 . S
Gd2040 O2091 2.362 . S
Gd2040 O2092 2.324 . S
Gd2040 C2099 2.828 . S
Gd2041 N2050 2.661 . S
Gd2041 N2054 2.601 . S
Gd2041 O2085 2.362 . S
Gd2041 O2086 2.324 . S
Gd2041 O2090 2.545 . S
Gd2041 O2091 2.606 . S
Gd2041 O2093 2.429 . S
Gd2041 O2094 2.545 . S
Gd2041 O2095 2.412 . S
Gd2041 C2108 2.828 . S
C2042 C2045 1.417 . S
C2042 C2047 1.431 . S
C2042 C2048 1.412 . S
C2043 C2046 1.437 . S
C2043 C2047 1.317 . S
C2043 H2062 0.929 . S
C2044 C2045 1.426 . S
C2044 C2046 1.413 . S
C2044 N2054 1.359 . S
C2045 C2042 1.417 . S
C2045 C2044 1.426 . S
C2045 N2050 1.350 . S
C2046 C2043 1.437 . S
C2046 C2044 1.413 . S
C2046 C2056 1.391 . S
C2047 C2042 1.431 . S
C2047 C2043 1.317 . S
C2047 H2058 0.930 . S
C2048 C2042 1.412 . S
C2048 C2049 1.355 . S
C2048 H2060 0.930 . S
C2049 C2048 1.355 . S
C2049 C2051 1.402 . S
C2049 H2061 0.930 . S
N2050 Gd2041 2.661 . S
N2050 C2045 1.350 . S
N2050 C2051 1.307 . S
C2051 C2049 1.402 . S
C2051 N2050 1.307 . S
C2051 H2052 0.930 . S
H2052 C2051 0.930 . S
C2053 N2054 1.334 . S
C2053 C2055 1.394 . S
C2053 H2057 0.930 . S
N2054 Gd2041 2.601 . S
N2054 C2044 1.359 . S
N2054 C2053 1.334 . S
C2055 C2053 1.394 . S
C2055 C2056 1.359 . S
C2055 H2067 0.930 . S
C2056 C2046 1.391 . S
C2056 C2055 1.359 . S
C2056 H2068 0.929 . S
H2057 C2053 0.930 . S
H2058 C2047 0.930 . S
H2059 C2076 0.930 . S
H2060 C2048 0.930 . S
H2061 C2049 0.930 . S
H2062 C2043 0.929 . S
H2063 C2081 0.930 . S
H2064 C2072 0.930 . S
H2065 C2073 0.930 . S
H2066 C2097 0.929 . S
H2067 C2055 0.930 . S
H2068 C2056 0.929 . S
H2069 C2098 0.930 . S
H2070 C2079 0.930 . S
N2071 Gd2040 2.661 . S
N2071 C2075 1.350 . S
N2071 C2076 1.307 . S
C2072 H2064 0.930 . S
C2072 C2073 1.355 . S
C2072 C2074 1.412 . S
C2073 H2065 0.930 . S
C2073 C2072 1.355 . S
C2073 C2076 1.402 . S
C2074 C2072 1.412 . S
C2074 C2075 1.417 . S
C2074 C2098 1.431 . S
C2075 N2071 1.350 . S
C2075 C2074 1.417 . S
C2075 C2078 1.426 . S
C2076 H2059 0.930 . S
C2076 N2071 1.307 . S
C2076 C2073 1.402 . S
N2077 Gd2040 2.601 . S
N2077 C2078 1.359 . S
N2077 C2081 1.334 . S
C2078 C2075 1.426 . S
C2078 N2077 1.359 . S
C2078 C2082 1.413 . S
C2079 H2070 0.930 . S
C2079 C2080 1.359 . S
C2079 C2081 1.394 . S
C2080 C2079 1.359 . S
C2080 C2082 1.391 . S
C2080 H2083 0.929 . S
C2081 H2063 0.930 . S
C2081 N2077 1.334 . S
C2081 C2079 1.394 . S
C2082 C2078 1.413 . S
C2082 C2080 1.391 . S
C2082 C2097 1.437 . S
H2083 C2080 0.929 . S
O2084 Gd2040 2.545 . S
O2084 C2099 1.258 . S
O2085 Gd2040 2.606 . S
O2085 Gd2041 2.362 . S
O2085 C2096 1.284 . S
O2086 Gd2041 2.324 . S
O2086 C2106 1.254 . S
O2087 Gd2040 2.429 . S
O2087 C2106 1.268 . S
O2088 Gd2040 2.545 . S
O2088 C2096 1.250 . S
O2089 Gd2040 2.412 . S
O2089 C2099 1.252 . S
O2090 Gd2041 2.545 . S
O2090 C2108 1.258 . S
O2091 Gd2040 2.362 . S
O2091 Gd2041 2.606 . S
O2091 C2107 1.284 . S
O2092 Gd2040 2.324 . S
O2092 C2115 1.254 . S
O2093 Gd2041 2.429 . S
O2093 C2115 1.268 . S
O2094 Gd2041 2.545 . S
O2094 C2107 1.250 . S
O2095 Gd2041 2.412 . S
O2095 C2108 1.252 . S
C2096 O2085 1.284 . S
C2096 O2088 1.250 . S
C2097 H2066 0.929 . S
C2097 C2082 1.437 . S
C2097 C2098 1.317 . S
C2098 H2069 0.930 . S
C2098 C2074 1.431 . S
C2098 C2097 1.317 . S
C2099 Gd2040 2.828 . S
C2099 O2084 1.258 . S
C2099 O2089 1.252 . S
C2099 C2100 1.497 . S
C2100 C2099 1.497 . S
C2100 C2101 1.395 . S
C2100 C2102 1.380 . S
C2101 C2100 1.395 . S
C2101 C2104 1.398 . S
C2101 H2116 0.930 . S
C2102 C2100 1.380 . S
C2102 C2103 1.391 . S
C2102 H2117 0.930 . S
C2103 C2102 1.391 . S
C2103 C2105 1.387 . S
C2104 C2101 1.398 . S
C2104 C2105 1.380 . S
C2104 H2118 0.930 . S
C2105 C2103 1.387 . S
C2105 C2104 1.380 . S
C2105 H2119 0.930 . S
C2106 O2086 1.254 . S
C2106 O2087 1.268 . S
C2107 O2091 1.284 . S
C2107 O2094 1.250 . S
C2108 Gd2041 2.828 . S
C2108 O2090 1.258 . S
C2108 O2095 1.252 . S
C2108 C2109 1.497 . S
C2109 C2108 1.497 . S
C2109 C2110 1.395 . S
C2109 C2111 1.380 . S
C2110 C2109 1.395 . S
C2110 C2113 1.398 . S
C2110 H2120 0.930 . S
C2111 C2109 1.380 . S
C2111 C2112 1.391 . S
C2111 H2121 0.930 . S
C2112 C2111 1.391 . S
C2112 C2114 1.387 . S
C2113 C2110 1.398 . S
C2113 C2114 1.380 . S
C2113 H2122 0.930 . S
C2114 C2112 1.387 . S
C2114 C2113 1.380 . S
C2114 H2123 0.930 . S
C2115 O2092 1.254 . S
C2115 O2093 1.268 . S
H2116 C2101 0.930 . S
H2117 C2102 0.930 . S
H2118 C2104 0.930 . S
H2119 C2105 0.930 . S
H2120 C2110 0.930 . S
H2121 C2111 0.930 . S
H2122 C2113 0.930 . S
H2123 C2114 0.930 . S
Gd2124 N2155 2.661 . S
Gd2124 N2161 2.601 . S
Gd2124 O2168 2.545 . S
Gd2124 O2169 2.606 . S
Gd2124 O2171 2.429 . S
Gd2124 O2172 2.545 . S
Gd2124 O2173 2.412 1_455 S
Gd2124 O2175 2.362 . S
Gd2124 O2176 2.324 1_554 S
Gd2124 C2183 2.828 1_455 S
Gd2125 N2134 2.661 . S
Gd2125 N2138 2.601 1_554 S
Gd2125 O2169 2.362 . S
Gd2125 O2170 2.324 . S
Gd2125 O2174 2.545 1_554 S
Gd2125 O2175 2.606 . S
Gd2125 O2177 2.429 1_554 S
Gd2125 O2178 2.545 . S
Gd2125 O2179 2.412 . S
Gd2125 C2192 2.828 1_554 S
C2126 C2129 1.417 . S
C2126 C2131 1.431 . S
C2126 C2132 1.412 . S
C2127 C2130 1.437 . S
C2127 C2131 1.317 1_556 S
C2127 H2146 0.929 . S
C2128 C2129 1.426 1_556 S
C2128 C2130 1.413 . S
C2128 N2138 1.359 . S
C2129 C2126 1.417 . S
C2129 C2128 1.426 1_554 S
C2129 N2134 1.350 . S
C2130 C2127 1.437 . S
C2130 C2128 1.413 . S
C2130 C2140 1.391 . S
C2131 C2126 1.431 . S
C2131 C2127 1.317 1_554 S
C2131 H2142 0.930 . S
C2132 C2126 1.412 . S
C2132 C2133 1.355 . S
C2132 H2144 0.930 . S
C2133 C2132 1.355 . S
C2133 C2135 1.402 . S
C2133 H2145 0.930 . S
N2134 Gd2125 2.661 . S
N2134 C2129 1.350 . S
N2134 C2135 1.307 . S
C2135 C2133 1.402 . S
C2135 N2134 1.307 . S
C2135 H2136 0.930 . S
H2136 C2135 0.930 . S
C2137 N2138 1.334 . S
C2137 C2139 1.394 . S
C2137 H2141 0.930 . S
N2138 Gd2125 2.601 1_556 S
N2138 C2128 1.359 . S
N2138 C2137 1.334 . S
C2139 C2137 1.394 . S
C2139 C2140 1.359 . S
C2139 H2151 0.930 . S
C2140 C2130 1.391 . S
C2140 C2139 1.359 . S
C2140 H2152 0.929 . S
H2141 C2137 0.930 . S
H2142 C2131 0.930 . S
H2143 C2160 0.930 . S
H2144 C2132 0.930 . S
H2145 C2133 0.930 . S
H2146 C2127 0.929 . S
H2147 C2165 0.930 . S
H2148 C2156 0.930 . S
H2149 C2157 0.930 . S
H2150 C2181 0.929 . S
H2151 C2139 0.930 . S
H2152 C2140 0.929 . S
H2153 C2182 0.930 . S
H2154 C2163 0.930 . S
N2155 Gd2124 2.661 . S
N2155 C2159 1.350 1_455 S
N2155 C2160 1.307 1_554 S
C2156 H2148 0.930 . S
C2156 C2157 1.355 . S
C2156 C2158 1.412 1_556 S
C2157 H2149 0.930 . S
C2157 C2156 1.355 . S
C2157 C2160 1.402 1_655 S
C2158 C2156 1.412 1_554 S
C2158 C2159 1.417 . S
C2158 C2182 1.431 . S
C2159 N2155 1.350 1_655 S
C2159 C2158 1.417 . S
C2159 C2162 1.426 1_655 S
C2160 H2143 0.930 . S
C2160 N2155 1.307 1_556 S
C2160 C2157 1.402 1_455 S
N2161 Gd2124 2.601 . S
N2161 C2162 1.361 . S
N2161 C2165 1.334 . S
C2162 C2159 1.426 1_455 S
C2162 N2161 1.361 . S
C2162 C2166 1.412 1_455 S
C2163 H2154 0.930 . S
C2163 C2164 1.359 1_455 S
C2163 C2165 1.394 . S
C2164 C2163 1.359 1_655 S
C2164 C2166 1.391 . S
C2164 H2167 0.929 . S
C2165 H2147 0.930 . S
C2165 N2161 1.334 . S
C2165 C2163 1.394 . S
C2166 C2162 1.412 1_655 S
C2166 C2164 1.391 . S
C2166 C2181 1.437 . S
H2167 C2164 0.929 . S
O2168 Gd2124 2.545 . S
O2168 C2183 1.258 1_455 S
O2169 Gd2124 2.606 . S
O2169 Gd2125 2.362 . S
O2169 C2180 1.284 . S
O2170 Gd2125 2.324 . S
O2170 C2190 1.254 . S
O2171 Gd2124 2.429 . S
O2171 C2190 1.268 . S
O2172 Gd2124 2.545 . S
O2172 C2180 1.250 . S
O2173 Gd2124 2.412 1_655 S
O2173 C2183 1.252 . S
O2174 Gd2125 2.545 1_556 S
O2174 C2192 1.258 . S
O2175 Gd2124 2.362 . S
O2175 Gd2125 2.606 . S
O2175 C2191 1.284 . S
O2176 Gd2124 2.324 1_556 S
O2176 C2199 1.254 . S
O2177 Gd2125 2.429 1_556 S
O2177 C2199 1.268 . S
O2178 Gd2125 2.545 . S
O2178 C2191 1.250 . S
O2179 Gd2125 2.412 . S
O2179 C2192 1.252 1_554 S
C2180 O2169 1.284 . S
C2180 O2172 1.250 . S
C2181 H2150 0.929 . S
C2181 C2166 1.437 . S
C2181 C2182 1.317 . S
C2182 H2153 0.930 . S
C2182 C2158 1.431 . S
C2182 C2181 1.317 . S
C2183 Gd2124 2.828 1_655 S
C2183 O2168 1.258 1_655 S
C2183 O2173 1.252 . S
C2183 C2184 1.497 . S
C2184 C2183 1.497 . S
C2184 C2185 1.395 . S
C2184 C2186 1.380 . S
C2185 C2184 1.395 . S
C2185 C2188 1.398 . S
C2185 H2200 0.930 . S
C2186 C2184 1.380 . S
C2186 C2187 1.391 . S
C2186 H2201 0.930 . S
C2187 C2186 1.391 . S
C2187 C2189 1.387 . S
C2188 C2185 1.398 . S
C2188 C2189 1.380 . S
C2188 H2202 0.930 . S
C2189 C2187 1.387 . S
C2189 C2188 1.380 . S
C2189 H2203 0.930 . S
C2190 O2170 1.254 . S
C2190 O2171 1.268 . S
C2191 O2175 1.284 . S
C2191 O2178 1.250 . S
C2192 Gd2125 2.828 1_556 S
C2192 O2174 1.258 . S
C2192 O2179 1.252 1_556 S
C2192 C2193 1.497 . S
C2193 C2192 1.497 . S
C2193 C2194 1.395 . S
C2193 C2195 1.380 1_556 S
C2194 C2193 1.395 . S
C2194 C2197 1.398 . S
C2194 H2204 0.930 . S
C2195 C2193 1.380 1_554 S
C2195 C2196 1.391 . S
C2195 H2205 0.930 . S
C2196 C2195 1.391 . S
C2196 C2198 1.387 1_554 S
C2197 C2194 1.398 . S
C2197 C2198 1.380 . S
C2197 H2206 0.930 . S
C2198 C2196 1.387 1_556 S
C2198 C2197 1.380 . S
C2198 H2207 0.930 . S
C2199 O2176 1.254 . S
C2199 O2177 1.268 . S
H2200 C2185 0.930 . S
H2201 C2186 0.930 . S
H2202 C2188 0.930 . S
H2203 C2189 0.930 . S
H2204 C2194 0.930 . S
H2205 C2195 0.930 . S
H2206 C2197 0.930 . S
H2207 C2198 0.930 . S
C2208 C2209 1.349 . S
C2208 C2210 1.327 . S
C2208 H2233 0.950 . S
C2209 C2208 1.349 . S
C2209 C2225 1.349 . S
C2210 C2208 1.327 . S
C2210 C2229 1.429 . S
C2210 H2234 0.950 . S
C2211 C2228 1.574 . S
C2211 C2230 1.368 . S
C2211 H2235 0.949 . S
H2212 C2216 0.903 1_554 S
C2213 C2214 1.349 1_556 S
C2213 C2215 1.327 . S
C2213 H2236 0.950 . S
C2214 C2213 1.349 1_554 S
C2214 C2226 1.349 . S
C2215 C2213 1.327 . S
C2215 C2231 1.429 . S
C2215 H2237 0.950 . S
C2216 H2212 0.903 1_556 S
C2216 C2224 1.599 . S
C2216 C2232 1.395 . S
H2217 C2225 0.950 . S
H2218 C2223 0.950 . S
H2219 C2224 0.949 . S
H2220 C2226 0.950 . S
H2221 C2227 0.950 . S
H2222 C2228 0.949 . S
C2223 H2218 0.950 . S
C2223 C2225 1.327 . S
C2223 C2229 1.429 . S
C2224 C2216 1.599 . S
C2224 H2219 0.949 . S
C2224 C2230 1.368 . S
C2225 C2209 1.349 . S
C2225 H2217 0.950 . S
C2225 C2223 1.327 . S
C2226 C2214 1.349 . S
C2226 H2220 0.950 . S
C2226 C2227 1.327 . S
C2227 H2221 0.950 . S
C2227 C2226 1.327 . S
C2227 C2231 1.429 1_554 S
C2228 C2211 1.574 . S
C2228 H2222 0.949 . S
C2228 C2232 1.368 . S
C2229 C2210 1.429 . S
C2229 C2223 1.429 . S
C2229 C2230 1.523 . S
C2230 C2211 1.368 . S
C2230 C2224 1.368 . S
C2230 C2229 1.523 . S
C2231 C2215 1.429 . S
C2231 C2227 1.429 1_556 S
C2231 C2232 1.523 . S
C2232 C2216 1.395 . S
C2232 C2228 1.368 . S
C2232 C2231 1.523 . S
H2233 C2208 0.950 . S
H2234 C2210 0.950 . S
H2235 C2211 0.949 . S
H2236 C2213 0.950 . S
H2237 C2215 0.950 . S
C2238 C2239 1.349 . S
C2238 C2240 1.327 . S
C2238 H2263 0.950 . S
C2239 C2238 1.349 . S
C2239 C2255 1.349 . S
C2240 C2238 1.327 . S
C2240 C2259 1.429 . S
C2240 H2264 0.950 . S
C2241 C2258 1.574 . S
C2241 C2260 1.368 . S
C2241 H2265 0.949 . S
H2242 C2246 0.949 . S
C2243 C2244 1.349 . S
C2243 C2245 1.327 . S
C2243 H2266 0.950 . S
C2244 C2243 1.349 . S
C2244 C2256 1.349 . S
C2245 C2243 1.327 . S
C2245 C2261 1.429 . S
C2245 H2267 0.950 . S
C2246 H2242 0.949 . S
C2246 C2254 1.574 . S
C2246 C2262 1.368 . S
H2247 C2255 0.950 . S
H2248 C2253 0.950 . S
H2249 C2254 0.949 . S
H2250 C2256 0.950 . S
H2251 C2257 0.950 . S
H2252 C2258 0.949 . S
C2253 H2248 0.950 . S
C2253 C2255 1.327 . S
C2253 C2259 1.429 . S
C2254 C2246 1.574 . S
C2254 H2249 0.949 . S
C2254 C2260 1.368 . S
C2255 C2239 1.349 . S
C2255 H2247 0.950 . S
C2255 C2253 1.327 . S
C2256 C2244 1.349 . S
C2256 H2250 0.950 . S
C2256 C2257 1.327 . S
C2257 H2251 0.950 . S
C2257 C2256 1.327 . S
C2257 C2261 1.429 . S
C2258 C2241 1.574 . S
C2258 H2252 0.949 . S
C2258 C2262 1.368 . S
C2259 C2240 1.429 . S
C2259 C2253 1.429 . S
C2259 C2260 1.523 . S
C2260 C2241 1.368 . S
C2260 C2254 1.368 . S
C2260 C2259 1.523 . S
C2261 C2245 1.429 . S
C2261 C2257 1.429 . S
C2261 C2262 1.523 . S
C2262 C2246 1.368 . S
C2262 C2258 1.368 . S
C2262 C2261 1.523 . S
H2263 C2238 0.950 . S
H2264 C2240 0.950 . S
H2265 C2241 0.949 . S
H2266 C2243 0.950 . S
H2267 C2245 0.950 . S
C2268 C2269 1.349 . S
C2268 C2270 1.327 . S
C2268 H2293 0.950 . S
C2269 C2268 1.349 . S
C2269 C2285 1.349 . S
C2270 C2268 1.327 . S
C2270 C2289 1.429 . S
C2270 H2294 0.950 . S
C2271 C2288 1.574 . S
C2271 C2290 1.368 . S
C2271 H2295 0.949 . S
H2272 C2276 0.949 . S
C2273 C2274 1.349 . S
C2273 C2275 1.327 . S
C2273 H2296 0.950 . S
C2274 C2273 1.349 . S
C2274 C2286 1.349 . S
C2275 C2273 1.327 . S
C2275 C2291 1.429 . S
C2275 H2297 0.950 . S
C2276 H2272 0.949 . S
C2276 C2284 1.574 . S
C2276 C2292 1.368 . S
H2277 C2285 0.950 . S
H2278 C2283 0.950 . S
H2279 C2284 0.949 . S
H2280 C2286 0.950 . S
H2281 C2287 0.950 . S
H2282 C2288 0.949 . S
C2283 H2278 0.950 . S
C2283 C2285 1.327 . S
C2283 C2289 1.429 . S
C2284 C2276 1.574 . S
C2284 H2279 0.949 . S
C2284 C2290 1.368 . S
C2285 C2269 1.349 . S
C2285 H2277 0.950 . S
C2285 C2283 1.327 . S
C2286 C2274 1.349 . S
C2286 H2280 0.950 . S
C2286 C2287 1.327 . S
C2287 H2281 0.950 . S
C2287 C2286 1.327 . S
C2287 C2291 1.429 . S
C2288 C2271 1.574 . S
C2288 H2282 0.949 . S
C2288 C2292 1.368 . S
C2289 C2270 1.429 . S
C2289 C2283 1.429 . S
C2289 C2290 1.523 . S
C2290 C2271 1.368 . S
C2290 C2284 1.368 . S
C2290 C2289 1.523 . S
C2291 C2275 1.429 . S
C2291 C2287 1.429 . S
C2291 C2292 1.523 . S
C2292 C2276 1.368 . S
C2292 C2288 1.368 . S
C2292 C2291 1.523 . S
H2293 C2268 0.950 . S
H2294 C2270 0.950 . S
H2295 C2271 0.949 . S
H2296 C2273 0.950 . S
H2297 C2275 0.950 . S
C2298 C2299 1.349 . S
C2298 C2300 1.327 . S
C2298 H2323 0.950 . S
C2299 C2298 1.349 . S
C2299 C2315 1.349 . S
C2300 C2298 1.327 . S
C2300 C2319 1.429 . S
C2300 H2324 0.950 . S
C2301 C2318 1.574 . S
C2301 C2320 1.368 . S
C2301 H2325 0.949 . S
H2302 C2306 0.949 . S
C2303 C2304 1.349 . S
C2303 C2305 1.327 . S
C2303 H2326 0.950 . S
C2304 C2303 1.349 . S
C2304 C2316 1.349 . S
C2305 C2303 1.327 . S
C2305 C2321 1.429 . S
C2305 H2327 0.950 . S
C2306 H2302 0.949 . S
C2306 C2314 1.574 . S
C2306 C2322 1.368 . S
H2307 C2315 0.950 . S
H2308 C2313 0.950 . S
H2309 C2314 0.949 . S
H2310 C2316 0.950 . S
H2311 C2317 0.950 . S
H2312 C2318 0.949 . S
C2313 H2308 0.950 . S
C2313 C2315 1.327 . S
C2313 C2319 1.429 . S
C2314 C2306 1.574 . S
C2314 H2309 0.949 . S
C2314 C2320 1.368 . S
C2315 C2299 1.349 . S
C2315 H2307 0.950 . S
C2315 C2313 1.327 . S
C2316 C2304 1.349 . S
C2316 H2310 0.950 . S
C2316 C2317 1.327 . S
C2317 H2311 0.950 . S
C2317 C2316 1.327 . S
C2317 C2321 1.429 . S
C2318 C2301 1.574 . S
C2318 H2312 0.949 . S
C2318 C2322 1.368 . S
C2319 C2300 1.429 . S
C2319 C2313 1.429 . S
C2319 C2320 1.523 . S
C2320 C2301 1.368 . S
C2320 C2314 1.368 . S
C2320 C2319 1.523 . S
C2321 C2305 1.429 . S
C2321 C2317 1.429 . S
C2321 C2322 1.523 . S
C2322 C2306 1.368 . S
C2322 C2318 1.368 . S
C2322 C2321 1.523 . S
H2323 C2298 0.950 . S
H2324 C2300 0.950 . S
H2325 C2301 0.949 . S
H2326 C2303 0.950 . S
H2327 C2305 0.950 . S
C2328 C2329 1.349 1_655 S
C2328 C2330 1.327 1_655 S
C2328 H2353 0.950 . S
C2329 C2328 1.349 1_455 S
C2329 C2345 1.349 . S
C2330 C2328 1.327 1_455 S
C2330 C2349 1.429 . S
C2330 H2354 0.950 1_455 S
C2331 C2348 1.574 . S
C2331 C2350 1.368 . S
C2331 H2355 0.949 . S
H2332 C2336 0.949 . S
C2333 C2334 1.349 . S
C2333 C2335 1.327 . S
C2333 H2356 0.950 . S
C2334 C2333 1.349 . S
C2334 C2346 1.349 . S
C2335 C2333 1.327 . S
C2335 C2351 1.429 . S
C2335 H2357 0.950 . S
C2336 H2332 0.949 . S
C2336 C2344 1.574 . S
C2336 C2352 1.368 . S
H2337 C2345 0.950 . S
H2338 C2343 0.950 . S
H2339 C2344 0.945 1_655 S
H2340 C2346 0.950 . S
H2341 C2347 0.950 . S
H2342 C2348 0.949 . S
C2343 H2338 0.950 . S
C2343 C2345 1.327 . S
C2343 C2349 1.429 . S
C2344 C2336 1.574 . S
C2344 H2339 0.945 1_455 S
C2344 C2350 1.368 . S
C2345 C2329 1.349 . S
C2345 H2337 0.950 . S
C2345 C2343 1.327 . S
C2346 C2334 1.349 . S
C2346 H2340 0.950 . S
C2346 C2347 1.327 . S
C2347 H2341 0.950 . S
C2347 C2346 1.327 . S
C2347 C2351 1.429 . S
C2348 C2331 1.574 . S
C2348 H2342 0.949 . S
C2348 C2352 1.368 . S
C2349 C2330 1.429 . S
C2349 C2343 1.429 . S
C2349 C2350 1.523 . S
C2350 C2331 1.368 . S
C2350 C2344 1.368 . S
C2350 C2349 1.523 . S
C2351 C2335 1.429 . S
C2351 C2347 1.429 . S
C2351 C2352 1.523 . S
C2352 C2336 1.368 . S
C2352 C2348 1.368 . S
C2352 C2351 1.523 . S
H2353 C2328 0.950 . S
H2354 C2330 0.950 1_655 S
H2355 C2331 0.949 . S
H2356 C2333 0.950 . S
H2357 C2335 0.950 . S
C2358 C2359 1.349 . S
C2358 C2360 1.327 . S
C2358 H2383 0.950 . S
C2359 C2358 1.349 . S
C2359 C2375 1.349 . S
C2360 C2358 1.327 . S
C2360 C2379 1.429 . S
C2360 H2384 0.950 . S
C2361 C2378 1.574 . S
C2361 C2380 1.368 . S
C2361 H2385 0.949 . S
H2362 C2366 0.949 . S
C2363 C2364 1.349 . S
C2363 C2365 1.327 . S
C2363 H2386 0.950 . S
C2364 C2363 1.349 . S
C2364 C2376 1.349 . S
C2365 C2363 1.327 . S
C2365 C2381 1.429 . S
C2365 H2387 0.950 . S
C2366 H2362 0.949 . S
C2366 C2374 1.574 . S
C2366 C2382 1.368 . S
H2367 C2375 0.950 . S
H2368 C2373 0.950 . S
H2369 C2374 0.949 . S
H2370 C2376 0.950 . S
H2371 C2377 0.950 . S
H2372 C2378 0.949 . S
C2373 H2368 0.950 . S
C2373 C2375 1.327 . S
C2373 C2379 1.429 . S
C2374 C2366 1.574 . S
C2374 H2369 0.949 . S
C2374 C2380 1.368 . S
C2375 C2359 1.349 . S
C2375 H2367 0.950 . S
C2375 C2373 1.327 . S
C2376 C2364 1.349 . S
C2376 H2370 0.950 . S
C2376 C2377 1.327 . S
C2377 H2371 0.950 . S
C2377 C2376 1.327 . S
C2377 C2381 1.429 . S
C2378 C2361 1.574 . S
C2378 H2372 0.949 . S
C2378 C2382 1.368 . S
C2379 C2360 1.429 . S
C2379 C2373 1.429 . S
C2379 C2380 1.523 . S
C2380 C2361 1.368 . S
C2380 C2374 1.368 . S
C2380 C2379 1.523 . S
C2381 C2365 1.429 . S
C2381 C2377 1.429 . S
C2381 C2382 1.523 . S
C2382 C2366 1.368 . S
C2382 C2378 1.368 . S
C2382 C2381 1.523 . S
H2383 C2358 0.950 . S
H2384 C2360 0.950 . S
H2385 C2361 0.949 . S
H2386 C2363 0.950 . S
H2387 C2365 0.950 . S
C2388 C2389 1.349 . S
C2388 C2390 1.327 . S
C2388 H2413 0.950 . S
C2389 C2388 1.349 . S
C2389 C2405 1.349 . S
C2390 C2388 1.327 . S
C2390 C2409 1.429 . S
C2390 H2414 0.950 . S
C2391 C2408 1.574 . S
C2391 C2410 1.368 . S
C2391 H2415 0.949 . S
H2392 C2396 0.949 . S
C2393 C2394 1.349 . S
C2393 C2395 1.327 . S
C2393 H2416 0.950 . S
C2394 C2393 1.349 . S
C2394 C2406 1.349 . S
C2395 C2393 1.327 . S
C2395 C2411 1.429 . S
C2395 H2417 0.950 . S
C2396 H2392 0.949 . S
C2396 C2404 1.574 . S
C2396 C2412 1.368 . S
H2397 C2405 0.950 . S
H2398 C2403 0.950 . S
H2399 C2404 0.949 . S
H2400 C2406 0.950 . S
H2401 C2407 0.950 . S
H2402 C2408 0.949 . S
C2403 H2398 0.950 . S
C2403 C2405 1.327 . S
C2403 C2409 1.429 . S
C2404 C2396 1.574 . S
C2404 H2399 0.949 . S
C2404 C2410 1.368 . S
C2405 C2389 1.349 . S
C2405 H2397 0.950 . S
C2405 C2403 1.327 . S
C2406 C2394 1.349 . S
C2406 H2400 0.950 . S
C2406 C2407 1.327 . S
C2407 H2401 0.950 . S
C2407 C2406 1.327 . S
C2407 C2411 1.429 . S
C2408 C2391 1.574 . S
C2408 H2402 0.949 . S
C2408 C2412 1.368 . S
C2409 C2390 1.429 . S
C2409 C2403 1.429 . S
C2409 C2410 1.523 . S
C2410 C2391 1.368 . S
C2410 C2404 1.368 . S
C2410 C2409 1.523 . S
C2411 C2395 1.429 . S
C2411 C2407 1.429 . S
C2411 C2412 1.523 . S
C2412 C2396 1.368 . S
C2412 C2408 1.368 . S
C2412 C2411 1.523 . S
H2413 C2388 0.950 . S
H2414 C2390 0.950 . S
H2415 C2391 0.949 . S
H2416 C2393 0.950 . S
H2417 C2395 0.950 . S
C2418 C2419 1.349 . S
C2418 C2420 1.327 . S
C2418 H2443 0.950 . S
C2419 C2418 1.349 . S
C2419 C2435 1.349 . S
C2420 C2418 1.327 . S
C2420 C2439 1.429 . S
C2420 H2444 0.950 . S
C2421 C2438 1.574 . S
C2421 C2440 1.368 . S
C2421 H2445 0.949 . S
H2422 C2426 0.949 . S
C2423 C2424 1.349 . S
C2423 C2425 1.327 . S
C2423 H2446 0.950 . S
C2424 C2423 1.349 . S
C2424 C2436 1.349 . S
C2425 C2423 1.327 . S
C2425 C2441 1.429 . S
C2425 H2447 0.950 . S
C2426 H2422 0.949 . S
C2426 C2434 1.574 . S
C2426 C2442 1.368 . S
H2427 C2435 0.950 . S
H2428 C2433 0.950 . S
H2429 C2434 0.949 . S
H2430 C2436 0.950 . S
H2431 C2437 0.950 . S
H2432 C2438 0.949 . S
C2433 H2428 0.950 . S
C2433 C2435 1.327 . S
C2433 C2439 1.429 . S
C2434 C2426 1.574 . S
C2434 H2429 0.949 . S
C2434 C2440 1.368 . S
C2435 C2419 1.349 . S
C2435 H2427 0.950 . S
C2435 C2433 1.327 . S
C2436 C2424 1.349 . S
C2436 H2430 0.950 . S
C2436 C2437 1.327 . S
C2437 H2431 0.950 . S
C2437 C2436 1.327 . S
C2437 C2441 1.429 . S
C2438 C2421 1.574 . S
C2438 H2432 0.949 . S
C2438 C2442 1.368 . S
C2439 C2420 1.429 . S
C2439 C2433 1.429 . S
C2439 C2440 1.523 . S
C2440 C2421 1.368 . S
C2440 C2434 1.368 . S
C2440 C2439 1.523 . S
C2441 C2425 1.429 . S
C2441 C2437 1.429 . S
C2441 C2442 1.523 . S
C2442 C2426 1.368 . S
C2442 C2438 1.368 . S
C2442 C2441 1.523 . S
H2443 C2418 0.950 . S
H2444 C2420 0.950 . S
H2445 C2421 0.949 . S
H2446 C2423 0.950 . S
H2447 C2425 0.950 . S
C2448 C2449 1.349 . S
C2448 C2450 1.327 . S
C2448 H2473 0.950 . S
C2449 C2448 1.349 . S
C2449 C2465 1.349 . S
C2450 C2448 1.327 . S
C2450 C2469 1.429 . S
C2450 H2474 0.950 . S
C2451 C2468 1.574 . S
C2451 C2470 1.368 1_455 S
C2451 H2475 0.949 . S
H2452 C2456 0.949 . S
C2453 C2454 1.349 . S
C2453 C2455 1.327 . S
C2453 H2476 0.950 . S
C2454 C2453 1.349 . S
C2454 C2466 1.349 . S
C2455 C2453 1.327 . S
C2455 C2471 1.429 . S
C2455 H2477 0.950 . S
C2456 H2452 0.949 . S
C2456 C2464 1.574 . S
C2456 C2472 1.368 1_655 S
H2457 C2465 0.950 . S
H2458 C2463 0.950 . S
H2459 C2464 0.949 . S
H2460 C2466 0.950 . S
H2461 C2467 0.950 1_655 S
H2462 C2468 0.949 . S
C2463 H2458 0.950 . S
C2463 C2465 1.327 . S
C2463 C2469 1.429 . S
C2464 C2456 1.574 . S
C2464 H2459 0.949 . S
C2464 C2470 1.368 . S
C2465 C2449 1.349 . S
C2465 H2457 0.950 . S
C2465 C2463 1.327 . S
C2466 C2454 1.349 . S
C2466 H2460 0.950 . S
C2466 C2467 1.327 . S
C2467 H2461 0.950 1_455 S
C2467 C2466 1.327 . S
C2467 C2471 1.429 . S
C2468 C2451 1.574 . S
C2468 H2462 0.949 . S
C2468 C2472 1.368 . S
C2469 C2450 1.429 . S
C2469 C2463 1.429 . S
C2469 C2470 1.523 . S
C2470 C2451 1.368 1_655 S
C2470 C2464 1.368 . S
C2470 C2469 1.523 . S
C2471 C2455 1.429 . S
C2471 C2467 1.429 . S
C2471 C2472 1.523 . S
C2472 C2456 1.368 1_455 S
C2472 C2468 1.368 . S
C2472 C2471 1.523 . S
H2473 C2448 0.950 . S
H2474 C2450 0.950 . S
H2475 C2451 0.949 . S
H2476 C2453 0.950 . S
H2477 C2455 0.950 . S
C2478 C2479 1.349 . S
C2478 C2480 1.327 . S
C2478 H2503 0.950 . S
C2479 C2478 1.349 . S
C2479 C2495 1.349 . S
C2480 C2478 1.327 . S
C2480 C2499 1.429 . S
C2480 H2504 0.950 . S
C2481 C2498 1.574 . S
C2481 C2500 1.368 . S
C2481 H2505 0.949 . S
H2482 C2486 0.949 . S
C2483 C2484 1.349 . S
C2483 C2485 1.327 . S
C2483 H2506 0.950 . S
C2484 C2483 1.349 . S
C2484 C2496 1.349 . S
C2485 C2483 1.327 . S
C2485 C2501 1.429 . S
C2485 H2507 0.950 . S
C2486 H2482 0.949 . S
C2486 C2494 1.574 . S
C2486 C2502 1.368 . S
H2487 C2495 0.950 . S
H2488 C2493 0.950 . S
H2489 C2494 0.949 . S
H2490 C2496 0.950 . S
H2491 C2497 0.950 . S
H2492 C2498 0.949 . S
C2493 H2488 0.950 . S
C2493 C2495 1.327 . S
C2493 C2499 1.429 . S
C2494 C2486 1.574 . S
C2494 H2489 0.949 . S
C2494 C2500 1.368 . S
C2495 C2479 1.349 . S
C2495 H2487 0.950 . S
C2495 C2493 1.327 . S
C2496 C2484 1.349 . S
C2496 H2490 0.950 . S
C2496 C2497 1.327 . S
C2497 H2491 0.950 . S
C2497 C2496 1.327 . S
C2497 C2501 1.429 . S
C2498 C2481 1.574 . S
C2498 H2492 0.949 . S
C2498 C2502 1.368 . S
C2499 C2480 1.429 . S
C2499 C2493 1.429 . S
C2499 C2500 1.523 . S
C2500 C2481 1.368 . S
C2500 C2494 1.368 . S
C2500 C2499 1.523 . S
C2501 C2485 1.429 . S
C2501 C2497 1.429 . S
C2501 C2502 1.523 . S
C2502 C2486 1.368 . S
C2502 C2498 1.368 . S
C2502 C2501 1.523 . S
H2503 C2478 0.950 . S
H2504 C2480 0.950 . S
H2505 C2481 0.949 . S
H2506 C2483 0.950 . S
H2507 C2485 0.950 . S
C2508 C2509 1.349 . S
C2508 C2510 1.327 . S
C2508 H2533 0.950 . S
C2509 C2508 1.349 . S
C2509 C2525 1.349 . S
C2510 C2508 1.327 . S
C2510 C2529 1.429 . S
C2510 H2534 0.950 . S
C2511 C2528 1.574 . S
C2511 C2530 1.368 . S
C2511 H2535 0.949 . S
H2512 C2516 0.949 . S
C2513 C2514 1.349 . S
C2513 C2515 1.327 . S
C2513 H2536 0.950 . S
C2514 C2513 1.349 . S
C2514 C2526 1.349 . S
C2515 C2513 1.327 . S
C2515 C2531 1.429 . S
C2515 H2537 0.950 . S
C2516 H2512 0.949 . S
C2516 C2524 1.574 . S
C2516 C2532 1.368 . S
H2517 C2525 0.950 . S
H2518 C2523 0.950 . S
H2519 C2524 0.949 . S
H2520 C2526 0.950 . S
H2521 C2527 0.950 . S
H2522 C2528 0.949 . S
C2523 H2518 0.950 . S
C2523 C2525 1.327 . S
C2523 C2529 1.429 . S
C2524 C2516 1.574 . S
C2524 H2519 0.949 . S
C2524 C2530 1.368 . S
C2525 C2509 1.349 . S
C2525 H2517 0.950 . S
C2525 C2523 1.327 . S
C2526 C2514 1.349 . S
C2526 H2520 0.950 . S
C2526 C2527 1.327 . S
C2527 H2521 0.950 . S
C2527 C2526 1.327 . S
C2527 C2531 1.429 . S
C2528 C2511 1.574 . S
C2528 H2522 0.949 . S
C2528 C2532 1.368 . S
C2529 C2510 1.429 . S
C2529 C2523 1.429 . S
C2529 C2530 1.523 . S
C2530 C2511 1.368 . S
C2530 C2524 1.368 . S
C2530 C2529 1.523 . S
C2531 C2515 1.429 . S
C2531 C2527 1.429 . S
C2531 C2532 1.523 . S
C2532 C2516 1.368 . S
C2532 C2528 1.368 . S
C2532 C2531 1.523 . S
H2533 C2508 0.950 . S
H2534 C2510 0.950 . S
H2535 C2511 0.949 . S
H2536 C2513 0.950 . S
H2537 C2515 0.950 . S
C2538 C2539 1.349 . S
C2538 C2540 1.327 . S
C2538 H2563 0.950 . S
C2539 C2538 1.349 . S
C2539 C2555 1.349 . S
C2540 C2538 1.327 . S
C2540 C2559 1.429 . S
C2540 H2564 0.950 . S
C2541 C2558 1.574 . S
C2541 C2560 1.368 . S
C2541 H2565 0.949 . S
H2542 C2546 0.949 . S
C2543 C2544 1.349 . S
C2543 C2545 1.327 . S
C2543 H2566 0.950 . S
C2544 C2543 1.349 . S
C2544 C2556 1.349 . S
C2545 C2543 1.327 . S
C2545 C2561 1.429 . S
C2545 H2567 0.950 . S
C2546 H2542 0.949 . S
C2546 C2554 1.574 . S
C2546 C2562 1.368 . S
H2547 C2555 0.950 . S
H2548 C2553 0.950 . S
H2549 C2554 0.949 . S
H2550 C2556 0.950 . S
H2551 C2557 0.950 . S
H2552 C2558 0.949 . S
C2553 H2548 0.950 . S
C2553 C2555 1.327 . S
C2553 C2559 1.429 . S
C2554 C2546 1.574 . S
C2554 H2549 0.949 . S
C2554 C2560 1.368 . S
C2555 C2539 1.349 . S
C2555 H2547 0.950 . S
C2555 C2553 1.327 . S
C2556 C2544 1.349 . S
C2556 H2550 0.950 . S
C2556 C2557 1.327 . S
C2557 H2551 0.950 . S
C2557 C2556 1.327 . S
C2557 C2561 1.429 . S
C2558 C2541 1.574 . S
C2558 H2552 0.949 . S
C2558 C2562 1.368 . S
C2559 C2540 1.429 . S
C2559 C2553 1.429 . S
C2559 C2560 1.523 . S
C2560 C2541 1.368 . S
C2560 C2554 1.368 . S
C2560 C2559 1.523 . S
C2561 C2545 1.429 . S
C2561 C2557 1.429 . S
C2561 C2562 1.523 . S
C2562 C2546 1.368 . S
C2562 C2558 1.368 . S
C2562 C2561 1.523 . S
H2563 C2538 0.950 . S
H2564 C2540 0.950 . S
H2565 C2541 0.949 . S
H2566 C2543 0.950 . S
H2567 C2545 0.950 . S
C2568 C2569 1.349 . S
C2568 C2570 1.327 . S
C2568 H2593 0.950 . S
C2569 C2568 1.349 . S
C2569 C2585 1.349 . S
C2570 C2568 1.327 . S
C2570 C2589 1.429 . S
C2570 H2594 0.950 . S
C2571 C2588 1.574 . S
C2571 C2590 1.368 . S
C2571 H2595 0.949 . S
H2572 C2576 0.949 . S
C2573 C2574 1.349 . S
C2573 C2575 1.327 . S
C2573 H2596 0.950 . S
C2574 C2573 1.349 . S
C2574 C2586 1.349 . S
C2575 C2573 1.327 . S
C2575 C2591 1.429 . S
C2575 H2597 0.950 . S
C2576 H2572 0.949 . S
C2576 C2584 1.574 . S
C2576 C2592 1.368 . S
H2577 C2585 0.950 . S
H2578 C2583 0.950 . S
H2579 C2584 0.949 . S
H2580 C2586 0.950 . S
H2581 C2587 0.950 . S
H2582 C2588 0.949 . S
C2583 H2578 0.950 . S
C2583 C2585 1.327 . S
C2583 C2589 1.429 . S
C2584 C2576 1.574 . S
C2584 H2579 0.949 . S
C2584 C2590 1.368 1_455 S
C2585 C2569 1.349 . S
C2585 H2577 0.950 . S
C2585 C2583 1.327 . S
C2586 C2574 1.349 . S
C2586 H2580 0.950 . S
C2586 C2587 1.327 . S
C2587 H2581 0.950 . S
C2587 C2586 1.327 . S
C2587 C2591 1.429 . S
C2588 C2571 1.574 . S
C2588 H2582 0.949 . S
C2588 C2592 1.368 1_655 S
C2589 C2570 1.429 . S
C2589 C2583 1.429 . S
C2589 C2590 1.523 . S
C2590 C2571 1.368 . S
C2590 C2584 1.368 1_655 S
C2590 C2589 1.523 . S
C2591 C2575 1.429 . S
C2591 C2587 1.429 . S
C2591 C2592 1.523 . S
C2592 C2576 1.368 . S
C2592 C2588 1.368 1_455 S
C2592 C2591 1.523 . S
H2593 C2568 0.950 . S
H2594 C2570 0.950 . S
H2595 C2571 0.949 . S
H2596 C2573 0.950 . S
H2597 C2575 0.950 . S
C2598 C2599 1.349 . S
C2598 C2600 1.327 . S
C2598 H2623 0.950 . S
C2599 C2598 1.349 . S
C2599 C2615 1.349 . S
C2600 C2598 1.327 . S
C2600 C2619 1.429 . S
C2600 H2624 0.950 . S
C2601 C2618 1.574 . S
C2601 C2620 1.368 . S
C2601 H2625 0.949 . S
H2602 C2606 0.949 . S
C2603 C2604 1.349 . S
C2603 C2605 1.327 . S
C2603 H2626 0.950 . S
C2604 C2603 1.349 . S
C2604 C2616 1.349 . S
C2605 C2603 1.327 . S
C2605 C2621 1.429 . S
C2605 H2627 0.950 . S
C2606 H2602 0.949 . S
C2606 C2614 1.574 . S
C2606 C2622 1.368 . S
H2607 C2615 0.950 . S
H2608 C2613 0.950 . S
H2609 C2614 0.949 . S
H2610 C2616 0.950 . S
H2611 C2617 0.950 . S
H2612 C2618 0.949 . S
C2613 H2608 0.950 . S
C2613 C2615 1.327 . S
C2613 C2619 1.429 . S
C2614 C2606 1.574 . S
C2614 H2609 0.949 . S
C2614 C2620 1.368 . S
C2615 C2599 1.349 . S
C2615 H2607 0.950 . S
C2615 C2613 1.327 . S
C2616 C2604 1.349 . S
C2616 H2610 0.950 . S
C2616 C2617 1.327 . S
C2617 H2611 0.950 . S
C2617 C2616 1.327 . S
C2617 C2621 1.429 . S
C2618 C2601 1.574 . S
C2618 H2612 0.949 . S
C2618 C2622 1.368 . S
C2619 C2600 1.429 . S
C2619 C2613 1.429 . S
C2619 C2620 1.523 . S
C2620 C2601 1.368 . S
C2620 C2614 1.368 . S
C2620 C2619 1.523 . S
C2621 C2605 1.429 . S
C2621 C2617 1.429 . S
C2621 C2622 1.523 . S
C2622 C2606 1.368 . S
C2622 C2618 1.368 . S
C2622 C2621 1.523 . S
H2623 C2598 0.950 . S
H2624 C2600 0.950 . S
H2625 C2601 0.949 . S
H2626 C2603 0.950 . S
H2627 C2605 0.950 . S
C2628 C2629 1.349 . S
C2628 C2630 1.327 . S
C2628 H2653 0.950 . S
C2629 C2628 1.349 . S
C2629 C2645 1.349 . S
C2630 C2628 1.327 . S
C2630 C2649 1.429 . S
C2630 H2654 0.950 . S
C2631 C2648 1.574 . S
C2631 C2650 1.368 . S
C2631 H2655 0.949 . S
H2632 C2636 0.949 . S
C2633 C2634 1.349 . S
C2633 C2635 1.327 . S
C2633 H2656 0.950 . S
C2634 C2633 1.349 . S
C2634 C2646 1.349 . S
C2635 C2633 1.327 . S
C2635 C2651 1.429 . S
C2635 H2657 0.950 . S
C2636 H2632 0.949 . S
C2636 C2644 1.574 . S
C2636 C2652 1.368 . S
H2637 C2645 0.950 . S
H2638 C2643 0.950 . S
H2639 C2644 0.949 . S
H2640 C2646 0.950 . S
H2641 C2647 0.950 . S
H2642 C2648 0.949 . S
C2643 H2638 0.950 . S
C2643 C2645 1.327 . S
C2643 C2649 1.429 . S
C2644 C2636 1.574 . S
C2644 H2639 0.949 . S
C2644 C2650 1.368 . S
C2645 C2629 1.349 . S
C2645 H2637 0.950 . S
C2645 C2643 1.327 . S
C2646 C2634 1.349 . S
C2646 H2640 0.950 . S
C2646 C2647 1.327 . S
C2647 H2641 0.950 . S
C2647 C2646 1.327 . S
C2647 C2651 1.429 . S
C2648 C2631 1.574 . S
C2648 H2642 0.949 . S
C2648 C2652 1.368 . S
C2649 C2630 1.429 . S
C2649 C2643 1.429 . S
C2649 C2650 1.523 . S
C2650 C2631 1.368 . S
C2650 C2644 1.368 . S
C2650 C2649 1.523 . S
C2651 C2635 1.429 . S
C2651 C2647 1.429 . S
C2651 C2652 1.523 . S
C2652 C2636 1.368 . S
C2652 C2648 1.368 . S
C2652 C2651 1.523 . S
H2653 C2628 0.950 . S
H2654 C2630 0.950 . S
H2655 C2631 0.949 . S
H2656 C2633 0.950 . S
H2657 C2635 0.950 . S
C2658 C2659 1.349 . S
C2658 C2660 1.327 . S
C2658 H2683 0.950 . S
C2659 C2658 1.349 . S
C2659 C2675 1.349 . S
C2660 C2658 1.327 . S
C2660 C2679 1.429 . S
C2660 H2684 0.950 . S
C2661 C2678 1.574 . S
C2661 C2680 1.368 . S
C2661 H2685 0.949 . S
H2662 C2666 0.949 . S
C2663 C2664 1.349 . S
C2663 C2665 1.327 . S
C2663 H2686 0.950 . S
C2664 C2663 1.349 . S
C2664 C2676 1.349 . S
C2665 C2663 1.327 . S
C2665 C2681 1.429 . S
C2665 H2687 0.950 . S
C2666 H2662 0.949 . S
C2666 C2674 1.574 . S
C2666 C2682 1.368 . S
H2667 C2675 0.950 . S
H2668 C2673 0.950 . S
H2669 C2674 0.949 . S
H2670 C2676 0.950 . S
H2671 C2677 0.950 . S
H2672 C2678 0.949 . S
C2673 H2668 0.950 . S
C2673 C2675 1.327 . S
C2673 C2679 1.429 . S
C2674 C2666 1.574 . S
C2674 H2669 0.949 . S
C2674 C2680 1.368 . S
C2675 C2659 1.349 . S
C2675 H2667 0.950 . S
C2675 C2673 1.327 . S
C2676 C2664 1.349 . S
C2676 H2670 0.950 . S
C2676 C2677 1.327 . S
C2677 H2671 0.950 . S
C2677 C2676 1.327 . S
C2677 C2681 1.429 . S
C2678 C2661 1.574 . S
C2678 H2672 0.949 . S
C2678 C2682 1.368 . S
C2679 C2660 1.429 . S
C2679 C2673 1.429 . S
C2679 C2680 1.523 . S
C2680 C2661 1.368 . S
C2680 C2674 1.368 . S
C2680 C2679 1.523 . S
C2681 C2665 1.429 . S
C2681 C2677 1.429 . S
C2681 C2682 1.523 . S
C2682 C2666 1.368 . S
C2682 C2678 1.368 . S
C2682 C2681 1.523 . S
H2683 C2658 0.950 . S
H2684 C2660 0.950 . S
H2685 C2661 0.949 . S
H2686 C2663 0.950 . S
H2687 C2665 0.950 . S
C2688 C2689 1.314 1_556 S
C2688 C2690 1.327 . S
C2688 H2713 0.987 . S
C2689 C2688 1.314 1_554 S
C2689 C2705 1.349 . S
C2690 C2688 1.327 . S
C2690 C2709 1.427 1_556 S
C2690 H2714 0.951 . S
C2691 C2708 1.574 . S
C2691 C2710 1.368 . S
C2691 H2715 0.949 . S
H2692 C2696 0.949 1_556 S
C2693 C2694 1.349 . S
C2693 C2695 1.327 . S
C2693 H2716 0.950 . S
C2694 C2693 1.349 . S
C2694 C2706 1.349 1_545 S
C2695 C2693 1.327 . S
C2695 C2711 1.429 1_545 S
C2695 H2717 0.950 . S
C2696 H2692 0.949 1_554 S
C2696 C2704 1.574 . S
C2696 C2712 1.368 . S
H2697 C2705 0.950 . S
H2698 C2703 0.950 . S
H2699 C2704 0.949 1_556 S
H2700 C2706 0.950 1_556 S
H2701 C2707 0.950 1_556 S
H2702 C2708 0.966 . S
C2703 H2698 0.950 . S
C2703 C2705 1.327 . S
C2703 C2709 1.429 . S
C2704 C2696 1.574 . S
C2704 H2699 0.949 1_554 S
C2704 C2710 1.368 . S
C2705 C2689 1.349 . S
C2705 H2697 0.950 . S
C2705 C2703 1.327 . S
C2706 C2694 1.349 1_565 S
C2706 H2700 0.950 1_554 S
C2706 C2707 1.327 . S
C2707 H2701 0.950 1_554 S
C2707 C2706 1.327 . S
C2707 C2711 1.429 . S
C2708 C2691 1.574 . S
C2708 H2702 0.966 . S
C2708 C2712 1.368 . S
C2709 C2690 1.427 1_554 S
C2709 C2703 1.429 . S
C2709 C2710 1.523 . S
C2710 C2691 1.368 . S
C2710 C2704 1.368 . S
C2710 C2709 1.523 . S
C2711 C2695 1.429 1_565 S
C2711 C2707 1.429 . S
C2711 C2712 1.523 . S
C2712 C2696 1.368 . S
C2712 C2708 1.368 . S
C2712 C2711 1.523 . S
H2713 C2688 0.987 . S
H2714 C2690 0.951 . S
H2715 C2691 0.949 . S
H2716 C2693 0.950 . S
H2717 C2695 0.950 . S
C2718 C2719 1.349 . S
C2718 C2720 1.327 . S
C2718 H2743 0.950 . S
C2719 C2718 1.349 . S
C2719 C2735 1.349 1_556 S
C2720 C2718 1.327 . S
C2720 C2739 1.429 . S
C2720 H2744 0.950 . S
C2721 C2738 1.574 . S
C2721 C2740 1.332 1_554 S
C2721 H2745 0.949 . S
H2722 C2726 0.949 . S
C2723 C2724 1.349 . S
C2723 C2725 1.327 . S
C2723 H2746 0.950 . S
C2724 C2723 1.349 . S
C2724 C2736 1.349 1_554 S
C2725 C2723 1.327 . S
C2725 C2741 1.429 . S
C2725 H2747 0.950 . S
C2726 H2722 0.949 . S
C2726 C2734 1.574 . S
C2726 C2742 1.351 1_556 S
H2727 C2735 0.950 . S
H2728 C2733 0.950 . S
H2729 C2734 0.949 . S
H2730 C2736 0.950 . S
H2731 C2737 0.950 . S
H2732 C2738 0.949 . S
C2733 H2728 0.950 . S
C2733 C2735 1.327 . S
C2733 C2739 1.429 1_554 S
C2734 C2726 1.574 . S
C2734 H2729 0.949 . S
C2734 C2740 1.398 . S
C2735 C2719 1.349 1_554 S
C2735 H2727 0.950 . S
C2735 C2733 1.327 . S
C2736 C2724 1.349 1_556 S
C2736 H2730 0.950 . S
C2736 C2737 1.327 . S
C2737 H2731 0.950 . S
C2737 C2736 1.327 . S
C2737 C2741 1.429 1_556 S
C2738 C2721 1.574 . S
C2738 H2732 0.949 . S
C2738 C2742 1.382 . S
C2739 C2720 1.429 . S
C2739 C2733 1.429 1_556 S
C2739 C2740 1.535 . S
C2740 C2721 1.332 1_556 S
C2740 C2734 1.398 . S
C2740 C2739 1.535 . S
C2741 C2725 1.429 . S
C2741 C2737 1.429 1_554 S
C2741 C2742 1.528 . S
C2742 C2726 1.351 1_554 S
C2742 C2738 1.382 . S
C2742 C2741 1.528 . S
H2743 C2718 0.950 . S
H2744 C2720 0.950 . S
H2745 C2721 0.949 . S
H2746 C2723 0.950 . S
H2747 C2725 0.950 . S
C2748 C2749 1.349 . S
C2748 C2750 1.327 . S
C2748 H2773 0.950 . S
C2749 C2748 1.349 . S
C2749 C2765 1.349 . S
C2750 C2748 1.327 . S
C2750 C2769 1.429 . S
C2750 H2774 0.950 . S
C2751 C2768 1.574 . S
C2751 C2770 1.368 . S
C2751 H2775 0.949 . S
H2752 C2756 0.949 . S
C2753 C2754 1.349 . S
C2753 C2755 1.327 . S
C2753 H2776 0.950 . S
C2754 C2753 1.349 . S
C2754 C2766 1.349 . S
C2755 C2753 1.327 . S
C2755 C2771 1.429 . S
C2755 H2777 0.950 . S
C2756 H2752 0.949 . S
C2756 C2764 1.574 . S
C2756 C2772 1.368 . S
H2757 C2765 0.950 . S
H2758 C2763 0.950 . S
H2759 C2764 0.949 . S
H2760 C2766 0.950 . S
H2761 C2767 0.950 . S
H2762 C2768 0.949 . S
C2763 H2758 0.950 . S
C2763 C2765 1.327 . S
C2763 C2769 1.429 . S
C2764 C2756 1.574 . S
C2764 H2759 0.949 . S
C2764 C2770 1.368 . S
C2765 C2749 1.349 . S
C2765 H2757 0.950 . S
C2765 C2763 1.327 . S
C2766 C2754 1.349 . S
C2766 H2760 0.950 . S
C2766 C2767 1.327 . S
C2767 H2761 0.950 . S
C2767 C2766 1.327 . S
C2767 C2771 1.429 . S
C2768 C2751 1.574 . S
C2768 H2762 0.949 . S
C2768 C2772 1.368 . S
C2769 C2750 1.429 . S
C2769 C2763 1.429 . S
C2769 C2770 1.523 . S
C2770 C2751 1.368 . S
C2770 C2764 1.368 . S
C2770 C2769 1.523 . S
C2771 C2755 1.429 . S
C2771 C2767 1.429 . S
C2771 C2772 1.523 . S
C2772 C2756 1.368 . S
C2772 C2768 1.368 . S
C2772 C2771 1.523 . S
H2773 C2748 0.950 . S
H2774 C2750 0.950 . S
H2775 C2751 0.949 . S
H2776 C2753 0.950 . S
H2777 C2755 0.950 . S
C2778 C2779 1.349 . S
C2778 C2780 1.327 . S
C2778 H2803 0.950 . S
C2779 C2778 1.349 . S
C2779 C2795 1.349 . S
C2780 C2778 1.327 . S
C2780 C2799 1.429 . S
C2780 H2804 0.950 . S
C2781 C2798 1.574 . S
C2781 C2800 1.368 . S
C2781 H2805 0.949 . S
H2782 C2786 0.949 . S
C2783 C2784 1.349 . S
C2783 C2785 1.327 1_455 S
C2783 H2806 0.950 . S
C2784 C2783 1.349 . S
C2784 C2796 1.349 . S
C2785 C2783 1.327 1_655 S
C2785 C2801 1.429 . S
C2785 H2807 0.950 . S
C2786 H2782 0.949 . S
C2786 C2794 1.574 . S
C2786 C2802 1.368 . S
H2787 C2795 0.950 . S
H2788 C2793 0.950 . S
H2789 C2794 0.949 . S
H2790 C2796 0.950 . S
H2791 C2797 0.950 . S
H2792 C2798 0.949 . S
C2793 H2788 0.950 . S
C2793 C2795 1.327 . S
C2793 C2799 1.429 . S
C2794 C2786 1.574 . S
C2794 H2789 0.949 . S
C2794 C2800 1.368 . S
C2795 C2779 1.349 . S
C2795 H2787 0.950 . S
C2795 C2793 1.327 . S
C2796 C2784 1.349 . S
C2796 H2790 0.950 . S
C2796 C2797 1.327 1_455 S
C2797 H2791 0.950 . S
C2797 C2796 1.327 1_655 S
C2797 C2801 1.429 . S
C2798 C2781 1.574 . S
C2798 H2792 0.949 . S
C2798 C2802 1.368 . S
C2799 C2780 1.429 . S
C2799 C2793 1.429 . S
C2799 C2800 1.523 . S
C2800 C2781 1.368 . S
C2800 C2794 1.368 . S
C2800 C2799 1.523 . S
C2801 C2785 1.429 . S
C2801 C2797 1.429 . S
C2801 C2802 1.523 . S
C2802 C2786 1.368 . S
C2802 C2798 1.368 . S
C2802 C2801 1.523 . S
H2803 C2778 0.950 . S
H2804 C2780 0.950 . S
H2805 C2781 0.949 . S
H2806 C2783 0.950 . S
H2807 C2785 0.950 . S
C2808 C2809 1.349 . S
C2808 C2810 1.327 . S
C2808 H2833 0.950 . S
C2809 C2808 1.349 . S
C2809 C2825 1.349 . S
C2810 C2808 1.327 . S
C2810 C2829 1.429 . S
C2810 H2834 0.950 . S
C2811 C2828 1.574 . S
C2811 C2830 1.368 . S
C2811 H2835 0.949 . S
H2812 C2816 0.949 . S
C2813 C2814 1.349 . S
C2813 C2815 1.327 . S
C2813 H2836 0.950 . S
C2814 C2813 1.349 . S
C2814 C2826 1.349 . S
C2815 C2813 1.327 . S
C2815 C2831 1.429 . S
C2815 H2837 0.950 . S
C2816 H2812 0.949 . S
C2816 C2824 1.574 . S
C2816 C2832 1.368 . S
H2817 C2825 0.950 . S
H2818 C2823 0.950 . S
H2819 C2824 0.949 . S
H2820 C2826 0.950 . S
H2821 C2827 0.950 . S
H2822 C2828 0.949 . S
C2823 H2818 0.950 . S
C2823 C2825 1.327 . S
C2823 C2829 1.429 . S
C2824 C2816 1.574 . S
C2824 H2819 0.949 . S
C2824 C2830 1.368 . S
C2825 C2809 1.349 . S
C2825 H2817 0.950 . S
C2825 C2823 1.327 . S
C2826 C2814 1.349 . S
C2826 H2820 0.950 . S
C2826 C2827 1.327 . S
C2827 H2821 0.950 . S
C2827 C2826 1.327 . S
C2827 C2831 1.429 . S
C2828 C2811 1.574 . S
C2828 H2822 0.949 . S
C2828 C2832 1.368 . S
C2829 C2810 1.429 . S
C2829 C2823 1.429 . S
C2829 C2830 1.523 . S
C2830 C2811 1.368 . S
C2830 C2824 1.368 . S
C2830 C2829 1.523 . S
C2831 C2815 1.429 . S
C2831 C2827 1.429 . S
C2831 C2832 1.523 . S
C2832 C2816 1.368 . S
C2832 C2828 1.368 . S
C2832 C2831 1.523 . S
H2833 C2808 0.950 . S
H2834 C2810 0.950 . S
H2835 C2811 0.949 . S
H2836 C2813 0.950 . S
H2837 C2815 0.950 . S
C2838 C2839 1.349 . S
C2838 C2840 1.327 . S
C2838 H2863 0.950 . S
C2839 C2838 1.349 . S
C2839 C2855 1.349 . S
C2840 C2838 1.327 . S
C2840 C2859 1.429 . S
C2840 H2864 0.950 . S
C2841 C2858 1.574 . S
C2841 C2860 1.368 . S
C2841 H2865 0.949 . S
H2842 C2846 0.949 . S
C2843 C2844 1.349 . S
C2843 C2845 1.327 . S
C2843 H2866 0.950 . S
C2844 C2843 1.349 . S
C2844 C2856 1.349 . S
C2845 C2843 1.327 . S
C2845 C2861 1.429 . S
C2845 H2867 0.950 . S
C2846 H2842 0.949 . S
C2846 C2854 1.574 . S
C2846 C2862 1.368 . S
H2847 C2855 0.950 . S
H2848 C2853 0.950 . S
H2849 C2854 0.949 . S
H2850 C2856 0.950 . S
H2851 C2857 0.950 . S
H2852 C2858 0.949 . S
C2853 H2848 0.950 . S
C2853 C2855 1.327 . S
C2853 C2859 1.429 . S
C2854 C2846 1.574 . S
C2854 H2849 0.949 . S
C2854 C2860 1.368 . S
C2855 C2839 1.349 . S
C2855 H2847 0.950 . S
C2855 C2853 1.327 . S
C2856 C2844 1.349 . S
C2856 H2850 0.950 . S
C2856 C2857 1.327 . S
C2857 H2851 0.950 . S
C2857 C2856 1.327 . S
C2857 C2861 1.429 . S
C2858 C2841 1.574 . S
C2858 H2852 0.949 . S
C2858 C2862 1.368 . S
C2859 C2840 1.429 . S
C2859 C2853 1.429 . S
C2859 C2860 1.523 . S
C2860 C2841 1.368 . S
C2860 C2854 1.368 . S
C2860 C2859 1.523 . S
C2861 C2845 1.429 . S
C2861 C2857 1.429 . S
C2861 C2862 1.523 . S
C2862 C2846 1.368 . S
C2862 C2858 1.368 . S
C2862 C2861 1.523 . S
H2863 C2838 0.950 . S
H2864 C2840 0.950 . S
H2865 C2841 0.949 . S
H2866 C2843 0.950 . S
H2867 C2845 0.950 . S
C2868 C2869 1.349 . S
C2868 C2870 1.327 . S
C2868 H2893 0.950 . S
C2869 C2868 1.349 . S
C2869 C2885 1.349 . S
C2870 C2868 1.327 . S
C2870 C2889 1.429 . S
C2870 H2894 0.950 . S
C2871 C2888 1.574 . S
C2871 C2890 1.368 . S
C2871 H2895 0.949 . S
H2872 C2876 0.949 . S
C2873 C2874 1.349 . S
C2873 C2875 1.327 . S
C2873 H2896 0.950 . S
C2874 C2873 1.349 . S
C2874 C2886 1.349 . S
C2875 C2873 1.327 . S
C2875 C2891 1.429 . S
C2875 H2897 0.950 . S
C2876 H2872 0.949 . S
C2876 C2884 1.574 . S
C2876 C2892 1.368 . S
H2877 C2885 0.950 . S
H2878 C2883 0.950 . S
H2879 C2884 0.949 . S
H2880 C2886 0.950 . S
H2881 C2887 0.950 . S
H2882 C2888 0.949 . S
C2883 H2878 0.950 . S
C2883 C2885 1.327 . S
C2883 C2889 1.429 . S
C2884 C2876 1.574 . S
C2884 H2879 0.949 . S
C2884 C2890 1.368 . S
C2885 C2869 1.349 . S
C2885 H2877 0.950 . S
C2885 C2883 1.327 . S
C2886 C2874 1.349 . S
C2886 H2880 0.950 . S
C2886 C2887 1.327 . S
C2887 H2881 0.950 . S
C2887 C2886 1.327 . S
C2887 C2891 1.429 . S
C2888 C2871 1.574 . S
C2888 H2882 0.949 . S
C2888 C2892 1.368 . S
C2889 C2870 1.429 . S
C2889 C2883 1.429 . S
C2889 C2890 1.523 . S
C2890 C2871 1.368 . S
C2890 C2884 1.368 . S
C2890 C2889 1.523 . S
C2891 C2875 1.429 . S
C2891 C2887 1.429 . S
C2891 C2892 1.523 . S
C2892 C2876 1.368 . S
C2892 C2888 1.368 . S
C2892 C2891 1.523 . S
H2893 C2868 0.950 . S
H2894 C2870 0.950 . S
H2895 C2871 0.949 . S
H2896 C2873 0.950 . S
H2897 C2875 0.950 . S
C2898 C2899 1.349 . S
C2898 C2900 1.327 . S
C2898 H2923 0.950 . S
C2899 C2898 1.349 . S
C2899 C2915 1.349 . S
C2900 C2898 1.327 . S
C2900 C2919 1.429 . S
C2900 H2924 0.950 . S
C2901 C2918 1.574 . S
C2901 C2920 1.368 . S
C2901 H2925 0.949 . S
H2902 C2906 0.949 . S
C2903 C2904 1.349 . S
C2903 C2905 1.327 . S
C2903 H2926 0.950 . S
C2904 C2903 1.349 . S
C2904 C2916 1.349 . S
C2905 C2903 1.327 . S
C2905 C2921 1.429 . S
C2905 H2927 0.950 . S
C2906 H2902 0.949 . S
C2906 C2914 1.574 . S
C2906 C2922 1.368 . S
H2907 C2915 0.950 . S
H2908 C2913 0.950 . S
H2909 C2914 0.949 . S
H2910 C2916 0.950 . S
H2911 C2917 0.950 . S
H2912 C2918 0.949 . S
C2913 H2908 0.950 . S
C2913 C2915 1.327 . S
C2913 C2919 1.429 . S
C2914 C2906 1.574 . S
C2914 H2909 0.949 . S
C2914 C2920 1.368 . S
C2915 C2899 1.349 . S
C2915 H2907 0.950 . S
C2915 C2913 1.327 . S
C2916 C2904 1.349 . S
C2916 H2910 0.950 . S
C2916 C2917 1.327 . S
C2917 H2911 0.950 . S
C2917 C2916 1.327 . S
C2917 C2921 1.429 . S
C2918 C2901 1.574 . S
C2918 H2912 0.949 . S
C2918 C2922 1.368 . S
C2919 C2900 1.429 . S
C2919 C2913 1.429 . S
C2919 C2920 1.523 . S
C2920 C2901 1.368 . S
C2920 C2914 1.368 . S
C2920 C2919 1.523 . S
C2921 C2905 1.429 . S
C2921 C2917 1.429 . S
C2921 C2922 1.523 . S
C2922 C2906 1.368 . S
C2922 C2918 1.368 . S
C2922 C2921 1.523 . S
H2923 C2898 0.950 . S
H2924 C2900 0.950 . S
H2925 C2901 0.949 . S
H2926 C2903 0.950 . S
H2927 C2905 0.950 . S
C2928 C2929 1.349 . S
C2928 C2930 1.327 . S
C2928 H2953 0.950 . S
C2929 C2928 1.349 . S
C2929 C2945 1.349 . S
C2930 C2928 1.327 . S
C2930 C2949 1.429 . S
C2930 H2954 0.950 . S
C2931 C2948 1.574 . S
C2931 C2950 1.368 . S
C2931 H2955 0.949 . S
H2932 C2936 0.949 . S
C2933 C2934 1.349 . S
C2933 C2935 1.327 . S
C2933 H2956 0.950 . S
C2934 C2933 1.349 . S
C2934 C2946 1.349 . S
C2935 C2933 1.327 . S
C2935 C2951 1.429 . S
C2935 H2957 0.950 . S
C2936 H2932 0.949 . S
C2936 C2944 1.574 . S
C2936 C2952 1.368 . S
H2937 C2945 0.950 . S
H2938 C2943 0.950 . S
H2939 C2944 0.949 . S
H2940 C2946 0.936 1_556 S
H2941 C2947 0.950 . S
H2942 C2948 0.949 . S
C2943 H2938 0.950 . S
C2943 C2945 1.327 . S
C2943 C2949 1.429 . S
C2944 C2936 1.574 . S
C2944 H2939 0.949 . S
C2944 C2950 1.368 . S
C2945 C2929 1.349 . S
C2945 H2937 0.950 . S
C2945 C2943 1.327 . S
C2946 C2934 1.349 . S
C2946 H2940 0.936 1_554 S
C2946 C2947 1.327 . S
C2947 H2941 0.950 . S
C2947 C2946 1.327 . S
C2947 C2951 1.429 . S
C2948 C2931 1.574 . S
C2948 H2942 0.949 . S
C2948 C2952 1.368 . S
C2949 C2930 1.429 . S
C2949 C2943 1.429 . S
C2949 C2950 1.523 . S
C2950 C2931 1.368 . S
C2950 C2944 1.368 . S
C2950 C2949 1.523 . S
C2951 C2935 1.429 . S
C2951 C2947 1.429 . S
C2951 C2952 1.523 . S
C2952 C2936 1.368 . S
C2952 C2948 1.368 . S
C2952 C2951 1.523 . S
H2953 C2928 0.950 . S
H2954 C2930 0.950 . S
H2955 C2931 0.949 . S
H2956 C2933 0.950 . S
H2957 C2935 0.950 . S
C2958 C2959 1.349 . S
C2958 C2960 1.327 . S
C2958 H2983 0.950 . S
C2959 C2958 1.349 . S
C2959 C2975 1.349 . S
C2960 C2958 1.327 . S
C2960 C2979 1.429 . S
C2960 H2984 0.950 . S
C2961 C2978 1.574 . S
C2961 C2980 1.368 . S
C2961 H2985 0.949 . S
H2962 C2966 0.949 . S
C2963 C2964 1.349 . S
C2963 C2965 1.327 . S
C2963 H2986 0.950 . S
C2964 C2963 1.349 . S
C2964 C2976 1.349 . S
C2965 C2963 1.327 . S
C2965 C2981 1.429 . S
C2965 H2987 0.950 . S
C2966 H2962 0.949 . S
C2966 C2974 1.574 . S
C2966 C2982 1.368 . S
H2967 C2975 0.950 . S
H2968 C2973 0.950 . S
H2969 C2974 0.949 . S
H2970 C2976 0.950 . S
H2971 C2977 0.950 . S
H2972 C2978 0.949 . S
C2973 H2968 0.950 . S
C2973 C2975 1.327 . S
C2973 C2979 1.429 . S
C2974 C2966 1.574 . S
C2974 H2969 0.949 . S
C2974 C2980 1.368 . S
C2975 C2959 1.349 . S
C2975 H2967 0.950 . S
C2975 C2973 1.327 . S
C2976 C2964 1.349 . S
C2976 H2970 0.950 . S
C2976 C2977 1.327 . S
C2977 H2971 0.950 . S
C2977 C2976 1.327 . S
C2977 C2981 1.429 . S
C2978 C2961 1.574 . S
C2978 H2972 0.949 . S
C2978 C2982 1.368 . S
C2979 C2960 1.429 . S
C2979 C2973 1.429 . S
C2979 C2980 1.523 . S
C2980 C2961 1.368 . S
C2980 C2974 1.368 . S
C2980 C2979 1.523 . S
C2981 C2965 1.429 . S
C2981 C2977 1.429 . S
C2981 C2982 1.523 . S
C2982 C2966 1.368 . S
C2982 C2978 1.368 . S
C2982 C2981 1.523 . S
H2983 C2958 0.950 . S
H2984 C2960 0.950 . S
H2985 C2961 0.949 . S
H2986 C2963 0.950 . S
H2987 C2965 0.950 . S
C2988 C2989 1.349 . S
C2988 C2990 1.327 . S
C2988 H3013 0.950 . S
C2989 C2988 1.349 . S
C2989 C3005 1.349 . S
C2990 C2988 1.327 . S
C2990 C3009 1.429 . S
C2990 H3014 0.950 . S
C2991 C3008 1.574 . S
C2991 C3010 1.368 . S
C2991 H3015 0.949 . S
H2992 C2996 0.949 . S
C2993 C2994 1.349 . S
C2993 C2995 1.327 . S
C2993 H3016 0.950 . S
C2994 C2993 1.349 . S
C2994 C3006 1.349 . S
C2995 C2993 1.327 . S
C2995 C3011 1.429 . S
C2995 H3017 0.950 . S
C2996 H2992 0.949 . S
C2996 C3004 1.574 . S
C2996 C3012 1.368 . S
H2997 C3005 0.950 . S
H2998 C3003 0.950 . S
H2999 C3004 0.949 . S
H3000 C3006 0.950 . S
H3001 C3007 0.950 . S
H3002 C3008 0.949 . S
C3003 H2998 0.950 . S
C3003 C3005 1.327 . S
C3003 C3009 1.429 . S
C3004 C2996 1.574 . S
C3004 H2999 0.949 . S
C3004 C3010 1.368 . S
C3005 C2989 1.349 . S
C3005 H2997 0.950 . S
C3005 C3003 1.327 . S
C3006 C2994 1.349 . S
C3006 H3000 0.950 . S
C3006 C3007 1.327 . S
C3007 H3001 0.950 . S
C3007 C3006 1.327 . S
C3007 C3011 1.429 . S
C3008 C2991 1.574 . S
C3008 H3002 0.949 . S
C3008 C3012 1.368 . S
C3009 C2990 1.429 . S
C3009 C3003 1.429 . S
C3009 C3010 1.523 . S
C3010 C2991 1.368 . S
C3010 C3004 1.368 . S
C3010 C3009 1.523 . S
C3011 C2995 1.429 . S
C3011 C3007 1.429 . S
C3011 C3012 1.523 . S
C3012 C2996 1.368 . S
C3012 C3008 1.368 . S
C3012 C3011 1.523 . S
H3013 C2988 0.950 . S
H3014 C2990 0.950 . S
H3015 C2991 0.949 . S
H3016 C2993 0.950 . S
H3017 C2995 0.950 . S
C3018 C3019 1.349 . S
C3018 C3020 1.327 . S
C3018 H3043 0.950 . S
C3019 C3018 1.349 . S
C3019 C3035 1.349 . S
C3020 C3018 1.327 . S
C3020 C3039 1.429 . S
C3020 H3044 0.950 . S
C3021 C3038 1.574 . S
C3021 C3040 1.368 . S
C3021 H3045 0.949 . S
H3022 C3026 0.949 . S
C3023 C3024 1.349 . S
C3023 C3025 1.327 . S
C3023 H3046 0.950 . S
C3024 C3023 1.349 . S
C3024 C3036 1.349 . S
C3025 C3023 1.327 . S
C3025 C3041 1.429 . S
C3025 H3047 0.950 . S
C3026 H3022 0.949 . S
C3026 C3034 1.574 . S
C3026 C3042 1.368 . S
H3027 C3035 0.950 . S
H3028 C3033 0.950 . S
H3029 C3034 0.949 . S
H3030 C3036 0.950 . S
H3031 C3037 0.950 . S
H3032 C3038 0.949 . S
C3033 H3028 0.950 . S
C3033 C3035 1.327 . S
C3033 C3039 1.429 . S
C3034 C3026 1.574 . S
C3034 H3029 0.949 . S
C3034 C3040 1.368 . S
C3035 C3019 1.349 . S
C3035 H3027 0.950 . S
C3035 C3033 1.327 . S
C3036 C3024 1.349 . S
C3036 H3030 0.950 . S
C3036 C3037 1.327 . S
C3037 H3031 0.950 . S
C3037 C3036 1.327 . S
C3037 C3041 1.429 . S
C3038 C3021 1.574 . S
C3038 H3032 0.949 . S
C3038 C3042 1.368 . S
C3039 C3020 1.429 . S
C3039 C3033 1.429 . S
C3039 C3040 1.523 . S
C3040 C3021 1.368 . S
C3040 C3034 1.368 . S
C3040 C3039 1.523 . S
C3041 C3025 1.429 . S
C3041 C3037 1.429 . S
C3041 C3042 1.523 . S
C3042 C3026 1.368 . S
C3042 C3038 1.368 . S
C3042 C3041 1.523 . S
H3043 C3018 0.950 . S
H3044 C3020 0.950 . S
H3045 C3021 0.949 . S
H3046 C3023 0.950 . S
H3047 C3025 0.950 . S
C3048 C3049 1.349 . S
C3048 C3050 1.327 . S
C3048 H3073 0.950 . S
C3049 C3048 1.349 . S
C3049 C3065 1.349 . S
C3050 C3048 1.327 . S
C3050 C3069 1.429 . S
C3050 H3074 0.950 . S
C3051 C3068 1.574 . S
C3051 C3070 1.368 . S
C3051 H3075 0.949 . S
H3052 C3056 0.949 . S
C3053 C3054 1.349 . S
C3053 C3055 1.327 . S
C3053 H3076 0.950 . S
C3054 C3053 1.349 . S
C3054 C3066 1.349 . S
C3055 C3053 1.327 . S
C3055 C3071 1.429 . S
C3055 H3077 0.950 . S
C3056 H3052 0.949 . S
C3056 C3064 1.574 . S
C3056 C3072 1.368 . S
H3057 C3065 0.950 . S
H3058 C3063 0.950 . S
H3059 C3064 0.949 . S
H3060 C3066 0.950 . S
H3061 C3067 0.950 . S
H3062 C3068 0.949 . S
C3063 H3058 0.950 . S
C3063 C3065 1.327 . S
C3063 C3069 1.429 . S
C3064 C3056 1.574 . S
C3064 H3059 0.949 . S
C3064 C3070 1.368 . S
C3065 C3049 1.349 . S
C3065 H3057 0.950 . S
C3065 C3063 1.327 . S
C3066 C3054 1.349 . S
C3066 H3060 0.950 . S
C3066 C3067 1.327 . S
C3067 H3061 0.950 . S
C3067 C3066 1.327 . S
C3067 C3071 1.429 . S
C3068 C3051 1.574 . S
C3068 H3062 0.949 . S
C3068 C3072 1.368 . S
C3069 C3050 1.429 . S
C3069 C3063 1.429 . S
C3069 C3070 1.523 . S
C3070 C3051 1.368 . S
C3070 C3064 1.368 . S
C3070 C3069 1.523 . S
C3071 C3055 1.429 . S
C3071 C3067 1.429 . S
C3071 C3072 1.523 . S
C3072 C3056 1.368 . S
C3072 C3068 1.368 . S
C3072 C3071 1.523 . S
H3073 C3048 0.950 . S
H3074 C3050 0.950 . S
H3075 C3051 0.949 . S
H3076 C3053 0.950 . S
H3077 C3055 0.950 . S
C3078 C3079 1.349 . S
C3078 C3080 1.327 . S
C3078 H3103 0.950 . S
C3079 C3078 1.349 . S
C3079 C3095 1.349 . S
C3080 C3078 1.327 . S
C3080 C3099 1.429 . S
C3080 H3104 0.950 . S
C3081 C3098 1.574 . S
C3081 C3100 1.368 . S
C3081 H3105 0.949 . S
H3082 C3086 0.949 . S
C3083 C3084 1.349 . S
C3083 C3085 1.327 . S
C3083 H3106 0.950 . S
C3084 C3083 1.349 . S
C3084 C3096 1.349 . S
C3085 C3083 1.327 . S
C3085 C3101 1.429 . S
C3085 H3107 0.950 . S
C3086 H3082 0.949 . S
C3086 C3094 1.574 . S
C3086 C3102 1.368 . S
H3087 C3095 0.950 . S
H3088 C3093 0.950 . S
H3089 C3094 0.949 . S
H3090 C3096 0.950 . S
H3091 C3097 0.950 . S
H3092 C3098 0.949 . S
C3093 H3088 0.950 . S
C3093 C3095 1.327 . S
C3093 C3099 1.429 . S
C3094 C3086 1.574 . S
C3094 H3089 0.949 . S
C3094 C3100 1.368 . S
C3095 C3079 1.349 . S
C3095 H3087 0.950 . S
C3095 C3093 1.327 . S
C3096 C3084 1.349 . S
C3096 H3090 0.950 . S
C3096 C3097 1.327 . S
C3097 H3091 0.950 . S
C3097 C3096 1.327 . S
C3097 C3101 1.429 . S
C3098 C3081 1.574 . S
C3098 H3092 0.949 . S
C3098 C3102 1.368 . S
C3099 C3080 1.429 . S
C3099 C3093 1.429 . S
C3099 C3100 1.523 . S
C3100 C3081 1.368 . S
C3100 C3094 1.368 . S
C3100 C3099 1.523 . S
C3101 C3085 1.429 . S
C3101 C3097 1.429 . S
C3101 C3102 1.523 . S
C3102 C3086 1.368 . S
C3102 C3098 1.368 . S
C3102 C3101 1.523 . S
H3103 C3078 0.950 . S
H3104 C3080 0.950 . S
H3105 C3081 0.949 . S
H3106 C3083 0.950 . S
H3107 C3085 0.950 . S
C3108 C3109 1.349 . S
C3108 C3110 1.327 . S
C3108 H3133 0.950 . S
C3109 C3108 1.349 . S
C3109 C3125 1.349 . S
C3110 C3108 1.327 . S
C3110 C3129 1.429 . S
C3110 H3134 0.950 . S
C3111 C3128 1.574 . S
C3111 C3130 1.368 . S
C3111 H3135 0.949 . S
H3112 C3116 0.949 . S
C3113 C3114 1.349 1_565 S
C3113 C3115 1.327 . S
C3113 H3136 0.950 1_556 S
C3114 C3113 1.349 1_545 S
C3114 C3126 1.349 . S
C3115 C3113 1.327 . S
C3115 C3131 1.429 . S
C3115 H3137 0.950 . S
C3116 H3112 0.949 . S
C3116 C3124 1.574 . S
C3116 C3132 1.368 . S
H3117 C3125 0.950 . S
H3118 C3123 0.950 . S
H3119 C3124 0.949 . S
H3120 C3126 0.950 . S
H3121 C3127 0.950 . S
H3122 C3128 0.949 . S
C3123 H3118 0.950 . S
C3123 C3125 1.327 . S
C3123 C3129 1.429 . S
C3124 C3116 1.574 . S
C3124 H3119 0.949 . S
C3124 C3130 1.368 . S
C3125 C3109 1.349 . S
C3125 H3117 0.950 . S
C3125 C3123 1.327 . S
C3126 C3114 1.349 . S
C3126 H3120 0.950 . S
C3126 C3127 1.327 1_545 S
C3127 H3121 0.950 . S
C3127 C3126 1.327 1_565 S
C3127 C3131 1.429 . S
C3128 C3111 1.574 . S
C3128 H3122 0.949 . S
C3128 C3132 1.368 . S
C3129 C3110 1.429 . S
C3129 C3123 1.429 . S
C3129 C3130 1.523 . S
C3130 C3111 1.368 . S
C3130 C3124 1.368 . S
C3130 C3129 1.523 . S
C3131 C3115 1.429 . S
C3131 C3127 1.429 . S
C3131 C3132 1.523 . S
C3132 C3116 1.368 . S
C3132 C3128 1.368 . S
C3132 C3131 1.523 . S
H3133 C3108 0.950 . S
H3134 C3110 0.950 . S
H3135 C3111 0.949 . S
H3136 C3113 0.950 1_554 S
H3137 C3115 0.950 . S
C3138 C3139 1.349 . S
C3138 C3140 1.327 . S
C3138 H3163 0.950 . S
C3139 C3138 1.349 . S
C3139 C3155 1.349 . S
C3140 C3138 1.327 . S
C3140 C3159 1.429 . S
C3140 H3164 0.950 . S
C3141 C3158 1.574 . S
C3141 C3160 1.368 . S
C3141 H3165 0.949 . S
H3142 C3146 0.949 . S
C3143 C3144 1.349 . S
C3143 C3145 1.327 . S
C3143 H3166 0.950 . S
C3144 C3143 1.349 . S
C3144 C3156 1.349 . S
C3145 C3143 1.327 . S
C3145 C3161 1.429 . S
C3145 H3167 0.950 . S
C3146 H3142 0.949 . S
C3146 C3154 1.574 . S
C3146 C3162 1.368 . S
H3147 C3155 0.950 . S
H3148 C3153 0.950 . S
H3149 C3154 0.949 . S
H3150 C3156 0.950 . S
H3151 C3157 0.950 . S
H3152 C3158 0.949 . S
C3153 H3148 0.950 . S
C3153 C3155 1.327 . S
C3153 C3159 1.429 . S
C3154 C3146 1.574 . S
C3154 H3149 0.949 . S
C3154 C3160 1.368 . S
C3155 C3139 1.349 . S
C3155 H3147 0.950 . S
C3155 C3153 1.327 . S
C3156 C3144 1.349 . S
C3156 H3150 0.950 . S
C3156 C3157 1.327 . S
C3157 H3151 0.950 . S
C3157 C3156 1.327 . S
C3157 C3161 1.429 . S
C3158 C3141 1.574 . S
C3158 H3152 0.949 . S
C3158 C3162 1.368 . S
C3159 C3140 1.429 . S
C3159 C3153 1.429 . S
C3159 C3160 1.523 . S
C3160 C3141 1.368 . S
C3160 C3154 1.368 . S
C3160 C3159 1.523 . S
C3161 C3145 1.429 . S
C3161 C3157 1.429 . S
C3161 C3162 1.523 . S
C3162 C3146 1.368 . S
C3162 C3158 1.368 . S
C3162 C3161 1.523 . S
H3163 C3138 0.950 . S
H3164 C3140 0.950 . S
H3165 C3141 0.949 . S
H3166 C3143 0.950 . S
H3167 C3145 0.950 . S
C3168 C3169 1.349 1_565 S
C3168 C3170 1.327 . S
C3168 H3193 0.950 . S
C3169 C3168 1.349 1_545 S
C3169 C3185 1.349 . S
C3170 C3168 1.327 . S
C3170 C3189 1.429 1_565 S
C3170 H3194 0.950 . S
C3171 C3188 1.574 . S
C3171 C3190 1.368 . S
C3171 H3195 0.949 . S
H3172 C3176 0.949 . S
C3173 C3174 1.349 . S
C3173 C3175 1.327 . S
C3173 H3196 0.950 . S
C3174 C3173 1.349 . S
C3174 C3186 1.349 . S
C3175 C3173 1.327 . S
C3175 C3191 1.429 . S
C3175 H3197 0.950 . S
C3176 H3172 0.949 . S
C3176 C3184 1.574 . S
C3176 C3192 1.368 1_565 S
H3177 C3185 0.950 . S
H3178 C3183 0.950 . S
H3179 C3184 0.949 . S
H3180 C3186 0.949 1_565 S
H3181 C3187 0.950 . S
H3182 C3188 0.949 . S
C3183 H3178 0.950 . S
C3183 C3185 1.327 . S
C3183 C3189 1.429 . S
C3184 C3176 1.574 . S
C3184 H3179 0.949 . S
C3184 C3190 1.368 1_565 S
C3185 C3169 1.349 . S
C3185 H3177 0.950 . S
C3185 C3183 1.327 . S
C3186 C3174 1.349 . S
C3186 H3180 0.949 1_545 S
C3186 C3187 1.327 1_545 S
C3187 H3181 0.950 . S
C3187 C3186 1.327 1_565 S
C3187 C3191 1.429 1_565 S
C3188 C3171 1.574 . S
C3188 H3182 0.949 . S
C3188 C3192 1.368 . S
C3189 C3170 1.429 1_545 S
C3189 C3183 1.429 . S
C3189 C3190 1.523 . S
C3190 C3171 1.368 . S
C3190 C3184 1.368 1_545 S
C3190 C3189 1.523 . S
C3191 C3175 1.429 . S
C3191 C3187 1.429 1_545 S
C3191 C3192 1.523 . S
C3192 C3176 1.368 1_545 S
C3192 C3188 1.368 . S
C3192 C3191 1.523 . S
H3193 C3168 0.950 . S
H3194 C3170 0.950 . S
H3195 C3171 0.949 . S
H3196 C3173 0.950 . S
H3197 C3175 0.950 . S
C3198 C3199 1.349 . S
C3198 C3200 1.327 . S
C3198 H3223 0.950 . S
C3199 C3198 1.349 . S
C3199 C3215 1.349 . S
C3200 C3198 1.327 . S
C3200 C3219 1.429 . S
C3200 H3224 0.950 . S
C3201 C3218 1.574 . S
C3201 C3220 1.368 . S
C3201 H3225 0.949 . S
H3202 C3206 0.949 . S
C3203 C3204 1.349 . S
C3203 C3205 1.327 . S
C3203 H3226 0.950 . S
C3204 C3203 1.349 . S
C3204 C3216 1.349 . S
C3205 C3203 1.327 . S
C3205 C3221 1.429 . S
C3205 H3227 0.950 . S
C3206 H3202 0.949 . S
C3206 C3214 1.574 . S
C3206 C3222 1.368 . S
H3207 C3215 0.950 . S
H3208 C3213 0.950 . S
H3209 C3214 0.949 . S
H3210 C3216 0.950 . S
H3211 C3217 0.950 . S
H3212 C3218 0.949 . S
C3213 H3208 0.950 . S
C3213 C3215 1.327 . S
C3213 C3219 1.429 . S
C3214 C3206 1.574 . S
C3214 H3209 0.949 . S
C3214 C3220 1.368 . S
C3215 C3199 1.349 . S
C3215 H3207 0.950 . S
C3215 C3213 1.327 . S
C3216 C3204 1.349 . S
C3216 H3210 0.950 . S
C3216 C3217 1.327 . S
C3217 H3211 0.950 . S
C3217 C3216 1.327 . S
C3217 C3221 1.429 . S
C3218 C3201 1.574 . S
C3218 H3212 0.949 . S
C3218 C3222 1.368 . S
C3219 C3200 1.429 . S
C3219 C3213 1.429 . S
C3219 C3220 1.523 . S
C3220 C3201 1.368 . S
C3220 C3214 1.368 . S
C3220 C3219 1.523 . S
C3221 C3205 1.429 . S
C3221 C3217 1.429 . S
C3221 C3222 1.523 . S
C3222 C3206 1.368 . S
C3222 C3218 1.368 . S
C3222 C3221 1.523 . S
H3223 C3198 0.950 . S
H3224 C3200 0.950 . S
H3225 C3201 0.949 . S
H3226 C3203 0.950 . S
H3227 C3205 0.950 . S
C3228 C3229 1.349 . S
C3228 C3230 1.327 . S
C3228 H3253 0.950 . S
C3229 C3228 1.349 . S
C3229 C3245 1.349 . S
C3230 C3228 1.327 . S
C3230 C3249 1.429 . S
C3230 H3254 0.950 . S
C3231 C3248 1.574 . S
C3231 C3250 1.368 . S
C3231 H3255 0.949 . S
H3232 C3236 0.949 . S
C3233 C3234 1.349 . S
C3233 C3235 1.327 . S
C3233 H3256 0.950 . S
C3234 C3233 1.349 . S
C3234 C3246 1.349 . S
C3235 C3233 1.327 . S
C3235 C3251 1.429 . S
C3235 H3257 0.950 . S
C3236 H3232 0.949 . S
C3236 C3244 1.574 . S
C3236 C3252 1.368 . S
H3237 C3245 0.950 . S
H3238 C3243 0.950 . S
H3239 C3244 0.949 . S
H3240 C3246 0.950 . S
H3241 C3247 0.950 . S
H3242 C3248 0.949 . S
C3243 H3238 0.950 . S
C3243 C3245 1.327 . S
C3243 C3249 1.429 . S
C3244 C3236 1.574 . S
C3244 H3239 0.949 . S
C3244 C3250 1.368 . S
C3245 C3229 1.349 . S
C3245 H3237 0.950 . S
C3245 C3243 1.327 . S
C3246 C3234 1.349 . S
C3246 H3240 0.950 . S
C3246 C3247 1.327 . S
C3247 H3241 0.950 . S
C3247 C3246 1.327 . S
C3247 C3251 1.429 . S
C3248 C3231 1.574 . S
C3248 H3242 0.949 . S
C3248 C3252 1.368 . S
C3249 C3230 1.429 . S
C3249 C3243 1.429 . S
C3249 C3250 1.523 . S
C3250 C3231 1.368 . S
C3250 C3244 1.368 . S
C3250 C3249 1.523 . S
C3251 C3235 1.429 . S
C3251 C3247 1.429 . S
C3251 C3252 1.523 . S
C3252 C3236 1.368 . S
C3252 C3248 1.368 . S
C3252 C3251 1.523 . S
H3253 C3228 0.950 . S
H3254 C3230 0.950 . S
H3255 C3231 0.949 . S
H3256 C3233 0.950 . S
H3257 C3235 0.950 . S
C3258 C3259 1.349 . S
C3258 C3260 1.327 . S
C3258 H3283 0.950 . S
C3259 C3258 1.349 . S
C3259 C3275 1.349 . S
C3260 C3258 1.327 . S
C3260 C3279 1.429 . S
C3260 H3284 0.950 . S
C3261 C3278 1.574 . S
C3261 C3280 1.368 . S
C3261 H3285 0.949 . S
H3262 C3266 0.949 . S
C3263 C3264 1.349 . S
C3263 C3265 1.327 . S
C3263 H3286 0.950 . S
C3264 C3263 1.349 . S
C3264 C3276 1.349 . S
C3265 C3263 1.327 . S
C3265 C3281 1.429 . S
C3265 H3287 0.950 . S
C3266 H3262 0.949 . S
C3266 C3274 1.574 . S
C3266 C3282 1.368 . S
H3267 C3275 0.950 . S
H3268 C3273 0.950 . S
H3269 C3274 0.949 . S
H3270 C3276 0.950 . S
H3271 C3277 0.950 . S
H3272 C3278 0.949 . S
C3273 H3268 0.950 . S
C3273 C3275 1.327 . S
C3273 C3279 1.429 . S
C3274 C3266 1.574 . S
C3274 H3269 0.949 . S
C3274 C3280 1.368 . S
C3275 C3259 1.349 . S
C3275 H3267 0.950 . S
C3275 C3273 1.327 . S
C3276 C3264 1.349 . S
C3276 H3270 0.950 . S
C3276 C3277 1.327 . S
C3277 H3271 0.950 . S
C3277 C3276 1.327 . S
C3277 C3281 1.429 . S
C3278 C3261 1.574 . S
C3278 H3272 0.949 . S
C3278 C3282 1.368 . S
C3279 C3260 1.429 . S
C3279 C3273 1.429 . S
C3279 C3280 1.523 . S
C3280 C3261 1.368 . S
C3280 C3274 1.368 . S
C3280 C3279 1.523 . S
C3281 C3265 1.429 . S
C3281 C3277 1.429 . S
C3281 C3282 1.523 . S
C3282 C3266 1.368 . S
C3282 C3278 1.368 . S
C3282 C3281 1.523 . S
H3283 C3258 0.950 . S
H3284 C3260 0.950 . S
H3285 C3261 0.949 . S
H3286 C3263 0.950 . S
H3287 C3265 0.950 . S
C3288 C3289 1.349 . S
C3288 C3290 1.327 . S
C3288 H3313 0.950 . S
C3289 C3288 1.349 . S
C3289 C3305 1.349 1_565 S
C3290 C3288 1.327 . S
C3290 C3309 1.429 1_565 S
C3290 H3314 0.950 . S
C3291 C3308 1.574 . S
C3291 C3310 1.368 . S
C3291 H3315 0.949 . S
H3292 C3296 0.949 . S
C3293 C3294 1.349 . S
C3293 C3295 1.327 . S
C3293 H3316 0.950 . S
C3294 C3293 1.349 . S
C3294 C3306 1.349 . S
C3295 C3293 1.327 . S
C3295 C3311 1.429 . S
C3295 H3317 0.950 . S
C3296 H3292 0.949 . S
C3296 C3304 1.574 . S
C3296 C3312 1.368 1_565 S
H3297 C3305 0.950 . S
H3298 C3303 0.950 . S
H3299 C3304 0.949 . S
H3300 C3306 0.950 . S
H3301 C3307 0.950 1_565 S
H3302 C3308 0.949 . S
C3303 H3298 0.950 . S
C3303 C3305 1.327 . S
C3303 C3309 1.429 . S
C3304 C3296 1.574 . S
C3304 H3299 0.949 . S
C3304 C3310 1.368 1_565 S
C3305 C3289 1.349 1_545 S
C3305 H3297 0.950 . S
C3305 C3303 1.327 . S
C3306 C3294 1.349 . S
C3306 H3300 0.950 . S
C3306 C3307 1.327 . S
C3307 H3301 0.950 1_545 S
C3307 C3306 1.327 . S
C3307 C3311 1.429 . S
C3308 C3291 1.574 . S
C3308 H3302 0.949 . S
C3308 C3312 1.368 . S
C3309 C3290 1.429 1_545 S
C3309 C3303 1.429 . S
C3309 C3310 1.523 . S
C3310 C3291 1.368 . S
C3310 C3304 1.368 1_545 S
C3310 C3309 1.523 . S
C3311 C3295 1.429 . S
C3311 C3307 1.429 . S
C3311 C3312 1.523 . S
C3312 C3296 1.368 1_545 S
C3312 C3308 1.368 . S
C3312 C3311 1.523 . S
H3313 C3288 0.950 . S
H3314 C3290 0.950 . S
H3315 C3291 0.949 . S
H3316 C3293 0.950 . S
H3317 C3295 0.950 . S
C3318 C3319 1.349 . S
C3318 C3320 1.327 . S
C3318 H3343 0.950 . S
C3319 C3318 1.349 . S
C3319 C3335 1.349 . S
C3320 C3318 1.327 . S
C3320 C3339 1.429 . S
C3320 H3344 0.950 . S
C3321 C3338 1.574 . S
C3321 C3340 1.368 . S
C3321 H3345 0.949 . S
H3322 C3326 0.949 . S
C3323 C3324 1.349 . S
C3323 C3325 1.327 . S
C3323 H3346 0.950 . S
C3324 C3323 1.349 . S
C3324 C3336 1.349 . S
C3325 C3323 1.327 . S
C3325 C3341 1.429 . S
C3325 H3347 0.950 . S
C3326 H3322 0.949 . S
C3326 C3334 1.574 . S
C3326 C3342 1.368 . S
H3327 C3335 0.950 . S
H3328 C3333 0.950 . S
H3329 C3334 0.949 . S
H3330 C3336 0.950 . S
H3331 C3337 0.950 . S
H3332 C3338 0.949 . S
C3333 H3328 0.950 . S
C3333 C3335 1.327 . S
C3333 C3339 1.429 . S
C3334 C3326 1.574 . S
C3334 H3329 0.949 . S
C3334 C3340 1.368 . S
C3335 C3319 1.349 . S
C3335 H3327 0.950 . S
C3335 C3333 1.327 . S
C3336 C3324 1.349 . S
C3336 H3330 0.950 . S
C3336 C3337 1.327 . S
C3337 H3331 0.950 . S
C3337 C3336 1.327 . S
C3337 C3341 1.429 . S
C3338 C3321 1.574 . S
C3338 H3332 0.949 . S
C3338 C3342 1.368 . S
C3339 C3320 1.429 . S
C3339 C3333 1.429 . S
C3339 C3340 1.523 . S
C3340 C3321 1.368 . S
C3340 C3334 1.368 . S
C3340 C3339 1.523 . S
C3341 C3325 1.429 . S
C3341 C3337 1.429 . S
C3341 C3342 1.523 . S
C3342 C3326 1.368 . S
C3342 C3338 1.368 . S
C3342 C3341 1.523 . S
H3343 C3318 0.950 . S
H3344 C3320 0.950 . S
H3345 C3321 0.949 . S
H3346 C3323 0.950 . S
H3347 C3325 0.950 . S
C3348 C3349 1.349 . S
C3348 C3350 1.327 . S
C3348 H3373 0.950 . S
C3349 C3348 1.349 . S
C3349 C3365 1.349 . S
C3350 C3348 1.327 . S
C3350 C3369 1.429 . S
C3350 H3374 0.950 . S
C3351 C3368 1.574 . S
C3351 C3370 1.368 . S
C3351 H3375 0.949 . S
H3352 C3356 0.949 . S
C3353 C3354 1.349 . S
C3353 C3355 1.327 . S
C3353 H3376 0.950 . S
C3354 C3353 1.349 . S
C3354 C3366 1.349 . S
C3355 C3353 1.327 . S
C3355 C3371 1.429 . S
C3355 H3377 0.950 . S
C3356 H3352 0.949 . S
C3356 C3364 1.574 . S
C3356 C3372 1.368 . S
H3357 C3365 0.950 . S
H3358 C3363 0.950 . S
H3359 C3364 0.949 . S
H3360 C3366 0.950 . S
H3361 C3367 0.950 . S
H3362 C3368 0.949 . S
C3363 H3358 0.950 . S
C3363 C3365 1.327 . S
C3363 C3369 1.429 . S
C3364 C3356 1.574 . S
C3364 H3359 0.949 . S
C3364 C3370 1.368 . S
C3365 C3349 1.349 . S
C3365 H3357 0.950 . S
C3365 C3363 1.327 . S
C3366 C3354 1.349 . S
C3366 H3360 0.950 . S
C3366 C3367 1.327 . S
C3367 H3361 0.950 . S
C3367 C3366 1.327 . S
C3367 C3371 1.429 . S
C3368 C3351 1.574 . S
C3368 H3362 0.949 . S
C3368 C3372 1.368 . S
C3369 C3350 1.429 . S
C3369 C3363 1.429 . S
C3369 C3370 1.523 . S
C3370 C3351 1.368 . S
C3370 C3364 1.368 . S
C3370 C3369 1.523 . S
C3371 C3355 1.429 . S
C3371 C3367 1.429 . S
C3371 C3372 1.523 . S
C3372 C3356 1.368 . S
C3372 C3368 1.368 . S
C3372 C3371 1.523 . S
H3373 C3348 0.950 . S
H3374 C3350 0.950 . S
H3375 C3351 0.949 . S
H3376 C3353 0.950 . S
H3377 C3355 0.950 . S
C3378 C3379 1.349 . S
C3378 C3380 1.327 . S
C3378 H3403 0.950 . S
C3379 C3378 1.349 . S
C3379 C3395 1.349 . S
C3380 C3378 1.327 . S
C3380 C3399 1.429 . S
C3380 H3404 0.950 . S
C3381 C3398 1.574 . S
C3381 C3400 1.368 . S
C3381 H3405 0.949 . S
H3382 C3386 0.949 . S
C3383 C3384 1.349 . S
C3383 C3385 1.327 . S
C3383 H3406 0.950 . S
C3384 C3383 1.349 . S
C3384 C3396 1.349 . S
C3385 C3383 1.327 . S
C3385 C3401 1.429 . S
C3385 H3407 0.950 . S
C3386 H3382 0.949 . S
C3386 C3394 1.574 . S
C3386 C3402 1.368 . S
H3387 C3395 0.950 . S
H3388 C3393 0.950 . S
H3389 C3394 0.949 . S
H3390 C3396 0.950 . S
H3391 C3397 0.950 . S
H3392 C3398 0.949 . S
C3393 H3388 0.950 . S
C3393 C3395 1.327 . S
C3393 C3399 1.429 . S
C3394 C3386 1.574 . S
C3394 H3389 0.949 . S
C3394 C3400 1.368 . S
C3395 C3379 1.349 . S
C3395 H3387 0.950 . S
C3395 C3393 1.327 . S
C3396 C3384 1.349 . S
C3396 H3390 0.950 . S
C3396 C3397 1.327 . S
C3397 H3391 0.950 . S
C3397 C3396 1.327 . S
C3397 C3401 1.429 . S
C3398 C3381 1.574 . S
C3398 H3392 0.949 . S
C3398 C3402 1.368 . S
C3399 C3380 1.429 . S
C3399 C3393 1.429 . S
C3399 C3400 1.523 . S
C3400 C3381 1.368 . S
C3400 C3394 1.368 . S
C3400 C3399 1.523 . S
C3401 C3385 1.429 . S
C3401 C3397 1.429 . S
C3401 C3402 1.523 . S
C3402 C3386 1.368 . S
C3402 C3398 1.368 . S
C3402 C3401 1.523 . S
H3403 C3378 0.950 . S
H3404 C3380 0.950 . S
H3405 C3381 0.949 . S
H3406 C3383 0.950 . S
H3407 C3385 0.950 . S
C3408 C3409 1.349 . S
C3408 C3410 1.327 . S
C3408 H3433 0.950 . S
C3409 C3408 1.349 . S
C3409 C3425 1.349 . S
C3410 C3408 1.327 . S
C3410 C3429 1.429 . S
C3410 H3434 0.950 . S
C3411 C3428 1.574 . S
C3411 C3430 1.368 . S
C3411 H3435 0.949 . S
H3412 C3416 0.949 1_556 S
C3413 C3414 1.349 . S
C3413 C3415 1.327 . S
C3413 H3436 0.950 . S
C3414 C3413 1.349 . S
C3414 C3426 1.318 1_554 S
C3415 C3413 1.327 . S
C3415 C3431 1.429 . S
C3415 H3437 0.950 . S
C3416 H3412 0.949 1_554 S
C3416 C3424 1.574 . S
C3416 C3432 1.368 . S
H3417 C3425 0.950 . S
H3418 C3423 0.950 . S
H3419 C3424 0.949 1_556 S
H3420 C3426 0.984 . S
H3421 C3427 0.937 1_556 S
H3422 C3428 0.949 . S
C3423 H3418 0.950 . S
C3423 C3425 1.327 . S
C3423 C3429 1.429 . S
C3424 C3416 1.574 . S
C3424 H3419 0.949 1_554 S
C3424 C3430 1.368 . S
C3425 C3409 1.349 . S
C3425 H3417 0.950 . S
C3425 C3423 1.327 . S
C3426 C3414 1.318 1_556 S
C3426 H3420 0.984 . S
C3426 C3427 1.327 1_556 S
C3427 H3421 0.937 1_554 S
C3427 C3426 1.327 1_554 S
C3427 C3431 1.442 . S
C3428 C3411 1.574 . S
C3428 H3422 0.949 . S
C3428 C3432 1.368 . S
C3429 C3410 1.429 . S
C3429 C3423 1.429 . S
C3429 C3430 1.523 . S
C3430 C3411 1.368 . S
C3430 C3424 1.368 . S
C3430 C3429 1.523 . S
C3431 C3415 1.429 . S
C3431 C3427 1.442 . S
C3431 C3432 1.523 . S
C3432 C3416 1.368 . S
C3432 C3428 1.368 . S
C3432 C3431 1.523 . S
H3433 C3408 0.950 . S
H3434 C3410 0.950 . S
H3435 C3411 0.949 . S
H3436 C3413 0.950 . S
H3437 C3415 0.950 . S
C3438 C3439 1.349 . S
C3438 C3440 1.327 . S
C3438 H3463 0.950 . S
C3439 C3438 1.349 . S
C3439 C3455 1.349 . S
C3440 C3438 1.327 . S
C3440 C3459 1.429 . S
C3440 H3464 0.950 . S
C3441 C3458 1.574 . S
C3441 C3460 1.368 . S
C3441 H3465 0.949 . S
H3442 C3446 0.949 . S
C3443 C3444 1.349 . S
C3443 C3445 1.327 . S
C3443 H3466 0.950 . S
C3444 C3443 1.349 . S
C3444 C3456 1.349 . S
C3445 C3443 1.327 . S
C3445 C3461 1.429 . S
C3445 H3467 0.950 . S
C3446 H3442 0.949 . S
C3446 C3454 1.574 . S
C3446 C3462 1.368 . S
H3447 C3455 0.950 . S
H3448 C3453 0.950 . S
H3449 C3454 0.949 . S
H3450 C3456 0.950 . S
H3451 C3457 0.950 . S
H3452 C3458 0.949 . S
C3453 H3448 0.950 . S
C3453 C3455 1.327 . S
C3453 C3459 1.429 . S
C3454 C3446 1.574 . S
C3454 H3449 0.949 . S
C3454 C3460 1.368 . S
C3455 C3439 1.349 . S
C3455 H3447 0.950 . S
C3455 C3453 1.327 . S
C3456 C3444 1.349 . S
C3456 H3450 0.950 . S
C3456 C3457 1.327 . S
C3457 H3451 0.950 . S
C3457 C3456 1.327 . S
C3457 C3461 1.429 . S
C3458 C3441 1.574 . S
C3458 H3452 0.949 . S
C3458 C3462 1.368 . S
C3459 C3440 1.429 . S
C3459 C3453 1.429 . S
C3459 C3460 1.523 . S
C3460 C3441 1.368 . S
C3460 C3454 1.368 . S
C3460 C3459 1.523 . S
C3461 C3445 1.429 . S
C3461 C3457 1.429 . S
C3461 C3462 1.523 . S
C3462 C3446 1.368 . S
C3462 C3458 1.368 . S
C3462 C3461 1.523 . S
H3463 C3438 0.950 . S
H3464 C3440 0.950 . S
H3465 C3441 0.949 . S
H3466 C3443 0.950 . S
H3467 C3445 0.950 . S
C3468 C3469 1.349 . S
C3468 C3470 1.327 . S
C3468 H3493 0.950 . S
C3469 C3468 1.349 . S
C3469 C3485 1.349 . S
C3470 C3468 1.327 . S
C3470 C3489 1.429 . S
C3470 H3494 0.950 . S
C3471 C3488 1.574 . S
C3471 C3490 1.368 . S
C3471 H3495 0.949 . S
H3472 C3476 0.949 . S
C3473 C3474 1.349 . S
C3473 C3475 1.327 . S
C3473 H3496 0.950 . S
C3474 C3473 1.349 . S
C3474 C3486 1.349 . S
C3475 C3473 1.327 . S
C3475 C3491 1.429 . S
C3475 H3497 0.950 . S
C3476 H3472 0.949 . S
C3476 C3484 1.574 . S
C3476 C3492 1.368 . S
H3477 C3485 0.950 . S
H3478 C3483 0.950 . S
H3479 C3484 0.949 . S
H3480 C3486 0.950 . S
H3481 C3487 0.950 . S
H3482 C3488 0.949 . S
C3483 H3478 0.950 . S
C3483 C3485 1.327 . S
C3483 C3489 1.429 . S
C3484 C3476 1.574 . S
C3484 H3479 0.949 . S
C3484 C3490 1.368 . S
C3485 C3469 1.349 . S
C3485 H3477 0.950 . S
C3485 C3483 1.327 . S
C3486 C3474 1.349 . S
C3486 H3480 0.950 . S
C3486 C3487 1.327 . S
C3487 H3481 0.950 . S
C3487 C3486 1.327 . S
C3487 C3491 1.429 . S
C3488 C3471 1.574 . S
C3488 H3482 0.949 . S
C3488 C3492 1.368 . S
C3489 C3470 1.429 . S
C3489 C3483 1.429 . S
C3489 C3490 1.523 . S
C3490 C3471 1.368 . S
C3490 C3484 1.368 . S
C3490 C3489 1.523 . S
C3491 C3475 1.429 . S
C3491 C3487 1.429 . S
C3491 C3492 1.523 . S
C3492 C3476 1.368 . S
C3492 C3488 1.368 . S
C3492 C3491 1.523 . S
H3493 C3468 0.950 . S
H3494 C3470 0.950 . S
H3495 C3471 0.949 . S
H3496 C3473 0.950 . S
H3497 C3475 0.950 . S
C3498 C3499 1.349 . S
C3498 C3500 1.327 . S
C3498 H3523 0.950 . S
C3499 C3498 1.349 . S
C3499 C3515 1.349 . S
C3500 C3498 1.327 . S
C3500 C3519 1.429 . S
C3500 H3524 0.950 . S
C3501 C3518 1.574 . S
C3501 C3520 1.368 . S
C3501 H3525 0.949 . S
H3502 C3506 0.949 . S
C3503 C3504 1.349 . S
C3503 C3505 1.327 . S
C3503 H3526 0.950 . S
C3504 C3503 1.349 . S
C3504 C3516 1.349 . S
C3505 C3503 1.327 . S
C3505 C3521 1.429 . S
C3505 H3527 0.950 . S
C3506 H3502 0.949 . S
C3506 C3514 1.574 . S
C3506 C3522 1.368 . S
H3507 C3515 0.950 . S
H3508 C3513 0.950 . S
H3509 C3514 0.949 . S
H3510 C3516 0.950 . S
H3511 C3517 0.950 . S
H3512 C3518 0.949 . S
C3513 H3508 0.950 . S
C3513 C3515 1.327 . S
C3513 C3519 1.429 . S
C3514 C3506 1.574 . S
C3514 H3509 0.949 . S
C3514 C3520 1.368 . S
C3515 C3499 1.349 . S
C3515 H3507 0.950 . S
C3515 C3513 1.327 . S
C3516 C3504 1.349 . S
C3516 H3510 0.950 . S
C3516 C3517 1.327 . S
C3517 H3511 0.950 . S
C3517 C3516 1.327 . S
C3517 C3521 1.429 . S
C3518 C3501 1.574 . S
C3518 H3512 0.949 . S
C3518 C3522 1.368 . S
C3519 C3500 1.429 . S
C3519 C3513 1.429 . S
C3519 C3520 1.523 . S
C3520 C3501 1.368 . S
C3520 C3514 1.368 . S
C3520 C3519 1.523 . S
C3521 C3505 1.429 . S
C3521 C3517 1.429 . S
C3521 C3522 1.523 . S
C3522 C3506 1.368 . S
C3522 C3518 1.368 . S
C3522 C3521 1.523 . S
H3523 C3498 0.950 . S
H3524 C3500 0.950 . S
H3525 C3501 0.949 . S
H3526 C3503 0.950 . S
H3527 C3505 0.950 . S
C3528 C3529 1.349 . S
C3528 C3530 1.327 1_545 S
C3528 H3553 0.950 . S
C3529 C3528 1.349 . S
C3529 C3545 1.349 1_545 S
C3530 C3528 1.327 1_565 S
C3530 C3549 1.429 . S
C3530 H3554 0.950 . S
C3531 C3548 1.574 . S
C3531 C3550 1.368 . S
C3531 H3555 0.949 . S
H3532 C3536 0.949 . S
C3533 C3534 1.349 . S
C3533 C3535 1.327 . S
C3533 H3556 0.950 . S
C3534 C3533 1.349 . S
C3534 C3546 1.349 . S
C3535 C3533 1.327 . S
C3535 C3551 1.429 . S
C3535 H3557 0.950 . S
C3536 H3532 0.949 . S
C3536 C3544 1.574 . S
C3536 C3552 1.368 . S
H3537 C3545 0.950 . S
H3538 C3543 0.950 . S
H3539 C3544 0.949 . S
H3540 C3546 0.950 . S
H3541 C3547 0.950 . S
H3542 C3548 0.949 . S
C3543 H3538 0.950 . S
C3543 C3545 1.327 . S
C3543 C3549 1.429 . S
C3544 C3536 1.574 . S
C3544 H3539 0.949 . S
C3544 C3550 1.368 . S
C3545 C3529 1.349 1_565 S
C3545 H3537 0.950 . S
C3545 C3543 1.327 . S
C3546 C3534 1.349 . S
C3546 H3540 0.950 . S
C3546 C3547 1.327 . S
C3547 H3541 0.950 . S
C3547 C3546 1.327 . S
C3547 C3551 1.429 . S
C3548 C3531 1.574 . S
C3548 H3542 0.949 . S
C3548 C3552 1.368 . S
C3549 C3530 1.429 . S
C3549 C3543 1.429 . S
C3549 C3550 1.523 . S
C3550 C3531 1.368 . S
C3550 C3544 1.368 . S
C3550 C3549 1.523 . S
C3551 C3535 1.429 . S
C3551 C3547 1.429 . S
C3551 C3552 1.523 . S
C3552 C3536 1.368 . S
C3552 C3548 1.368 . S
C3552 C3551 1.523 . S
H3553 C3528 0.950 . S
H3554 C3530 0.950 . S
H3555 C3531 0.949 . S
H3556 C3533 0.950 . S
H3557 C3535 0.950 . S
C3558 C3559 1.349 . S
C3558 C3560 1.327 . S
C3558 H3583 0.950 . S
C3559 C3558 1.349 . S
C3559 C3575 1.349 . S
C3560 C3558 1.327 . S
C3560 C3579 1.429 . S
C3560 H3584 0.950 . S
C3561 C3578 1.574 . S
C3561 C3580 1.368 . S
C3561 H3585 0.949 . S
H3562 C3566 0.949 . S
C3563 C3564 1.349 . S
C3563 C3565 1.327 . S
C3563 H3586 0.950 . S
C3564 C3563 1.349 . S
C3564 C3576 1.349 . S
C3565 C3563 1.327 . S
C3565 C3581 1.429 . S
C3565 H3587 0.950 . S
C3566 H3562 0.949 . S
C3566 C3574 1.574 . S
C3566 C3582 1.368 . S
H3567 C3575 0.950 . S
H3568 C3573 0.950 . S
H3569 C3574 0.949 . S
H3570 C3576 0.950 1_545 S
H3571 C3577 0.950 . S
H3572 C3578 0.949 . S
C3573 H3568 0.950 . S
C3573 C3575 1.327 . S
C3573 C3579 1.429 . S
C3574 C3566 1.574 . S
C3574 H3569 0.949 . S
C3574 C3580 1.368 . S
C3575 C3559 1.349 . S
C3575 H3567 0.950 . S
C3575 C3573 1.327 . S
C3576 C3564 1.349 . S
C3576 H3570 0.950 1_565 S
C3576 C3577 1.327 . S
C3577 H3571 0.950 . S
C3577 C3576 1.327 . S
C3577 C3581 1.429 . S
C3578 C3561 1.574 . S
C3578 H3572 0.949 . S
C3578 C3582 1.368 . S
C3579 C3560 1.429 . S
C3579 C3573 1.429 . S
C3579 C3580 1.523 . S
C3580 C3561 1.368 . S
C3580 C3574 1.368 . S
C3580 C3579 1.523 . S
C3581 C3565 1.429 . S
C3581 C3577 1.429 . S
C3581 C3582 1.523 . S
C3582 C3566 1.368 . S
C3582 C3578 1.368 . S
C3582 C3581 1.523 . S
H3583 C3558 0.950 . S
H3584 C3560 0.950 . S
H3585 C3561 0.949 . S
H3586 C3563 0.950 . S
H3587 C3565 0.950 . S
C3588 C3589 1.349 . S
C3588 C3590 1.327 . S
C3588 H3613 0.950 . S
C3589 C3588 1.349 . S
C3589 C3605 1.349 . S
C3590 C3588 1.327 . S
C3590 C3609 1.429 . S
C3590 H3614 0.950 . S
C3591 C3608 1.574 . S
C3591 C3610 1.368 . S
C3591 H3615 0.949 . S
H3592 C3596 0.949 . S
C3593 C3594 1.349 . S
C3593 C3595 1.327 . S
C3593 H3616 0.950 . S
C3594 C3593 1.349 . S
C3594 C3606 1.349 . S
C3595 C3593 1.327 . S
C3595 C3611 1.429 . S
C3595 H3617 0.950 . S
C3596 H3592 0.949 . S
C3596 C3604 1.574 . S
C3596 C3612 1.368 . S
H3597 C3605 0.950 . S
H3598 C3603 0.950 . S
H3599 C3604 0.949 . S
H3600 C3606 0.950 . S
H3601 C3607 0.950 . S
H3602 C3608 0.949 . S
C3603 H3598 0.950 . S
C3603 C3605 1.327 . S
C3603 C3609 1.429 . S
C3604 C3596 1.574 . S
C3604 H3599 0.949 . S
C3604 C3610 1.368 . S
C3605 C3589 1.349 . S
C3605 H3597 0.950 . S
C3605 C3603 1.327 . S
C3606 C3594 1.349 . S
C3606 H3600 0.950 . S
C3606 C3607 1.327 . S
C3607 H3601 0.950 . S
C3607 C3606 1.327 . S
C3607 C3611 1.429 . S
C3608 C3591 1.574 . S
C3608 H3602 0.949 . S
C3608 C3612 1.368 . S
C3609 C3590 1.429 . S
C3609 C3603 1.429 . S
C3609 C3610 1.523 . S
C3610 C3591 1.368 . S
C3610 C3604 1.368 . S
C3610 C3609 1.523 . S
C3611 C3595 1.429 . S
C3611 C3607 1.429 . S
C3611 C3612 1.523 . S
C3612 C3596 1.368 . S
C3612 C3608 1.368 . S
C3612 C3611 1.523 . S
H3613 C3588 0.950 . S
H3614 C3590 0.950 . S
H3615 C3591 0.949 . S
H3616 C3593 0.950 . S
H3617 C3595 0.950 . S
C3618 C3619 1.349 . S
C3618 C3620 1.327 . S
C3618 H3643 0.950 . S
C3619 C3618 1.349 . S
C3619 C3635 1.349 . S
C3620 C3618 1.327 . S
C3620 C3639 1.429 . S
C3620 H3644 0.950 . S
C3621 C3638 1.574 . S
C3621 C3640 1.368 . S
C3621 H3645 0.949 . S
H3622 C3626 0.949 . S
C3623 C3624 1.349 . S
C3623 C3625 1.327 . S
C3623 H3646 0.950 . S
C3624 C3623 1.349 . S
C3624 C3636 1.349 . S
C3625 C3623 1.327 . S
C3625 C3641 1.429 . S
C3625 H3647 0.950 . S
C3626 H3622 0.949 . S
C3626 C3634 1.574 . S
C3626 C3642 1.368 . S
H3627 C3635 0.950 . S
H3628 C3633 0.950 . S
H3629 C3634 0.949 . S
H3630 C3636 0.950 . S
H3631 C3637 0.950 . S
H3632 C3638 0.949 . S
C3633 H3628 0.950 . S
C3633 C3635 1.327 . S
C3633 C3639 1.429 . S
C3634 C3626 1.574 . S
C3634 H3629 0.949 . S
C3634 C3640 1.368 . S
C3635 C3619 1.349 . S
C3635 H3627 0.950 . S
C3635 C3633 1.327 . S
C3636 C3624 1.349 . S
C3636 H3630 0.950 . S
C3636 C3637 1.327 . S
C3637 H3631 0.950 . S
C3637 C3636 1.327 . S
C3637 C3641 1.429 . S
C3638 C3621 1.574 . S
C3638 H3632 0.949 . S
C3638 C3642 1.368 . S
C3639 C3620 1.429 . S
C3639 C3633 1.429 . S
C3639 C3640 1.523 . S
C3640 C3621 1.368 . S
C3640 C3634 1.368 . S
C3640 C3639 1.523 . S
C3641 C3625 1.429 . S
C3641 C3637 1.429 . S
C3641 C3642 1.523 . S
C3642 C3626 1.368 . S
C3642 C3638 1.368 . S
C3642 C3641 1.523 . S
H3643 C3618 0.950 . S
H3644 C3620 0.950 . S
H3645 C3621 0.949 . S
H3646 C3623 0.950 . S
H3647 C3625 0.950 . S
C3648 C3649 1.349 . S
C3648 C3650 1.327 . S
C3648 H3673 0.950 . S
C3649 C3648 1.349 . S
C3649 C3665 1.349 . S
C3650 C3648 1.327 . S
C3650 C3669 1.429 . S
C3650 H3674 0.950 . S
C3651 C3668 1.574 . S
C3651 C3670 1.368 . S
C3651 H3675 0.949 . S
H3652 C3656 0.949 . S
C3653 C3654 1.349 . S
C3653 C3655 1.327 . S
C3653 H3676 0.950 . S
C3654 C3653 1.349 . S
C3654 C3666 1.349 . S
C3655 C3653 1.327 . S
C3655 C3671 1.429 . S
C3655 H3677 0.950 . S
C3656 H3652 0.949 . S
C3656 C3664 1.574 . S
C3656 C3672 1.368 . S
H3657 C3665 0.950 . S
H3658 C3663 0.950 . S
H3659 C3664 0.949 . S
H3660 C3666 0.950 . S
H3661 C3667 0.950 . S
H3662 C3668 0.949 . S
C3663 H3658 0.950 . S
C3663 C3665 1.327 . S
C3663 C3669 1.429 . S
C3664 C3656 1.574 . S
C3664 H3659 0.949 . S
C3664 C3670 1.368 . S
C3665 C3649 1.349 . S
C3665 H3657 0.950 . S
C3665 C3663 1.327 . S
C3666 C3654 1.349 . S
C3666 H3660 0.950 . S
C3666 C3667 1.327 . S
C3667 H3661 0.950 . S
C3667 C3666 1.327 . S
C3667 C3671 1.429 . S
C3668 C3651 1.574 . S
C3668 H3662 0.949 . S
C3668 C3672 1.368 . S
C3669 C3650 1.429 . S
C3669 C3663 1.429 . S
C3669 C3670 1.523 . S
C3670 C3651 1.368 . S
C3670 C3664 1.368 . S
C3670 C3669 1.523 . S
C3671 C3655 1.429 . S
C3671 C3667 1.429 . S
C3671 C3672 1.523 . S
C3672 C3656 1.368 . S
C3672 C3668 1.368 . S
C3672 C3671 1.523 . S
H3673 C3648 0.950 . S
H3674 C3650 0.950 . S
H3675 C3651 0.949 . S
H3676 C3653 0.950 . S
H3677 C3655 0.950 . S
C3678 C3679 1.349 . S
C3678 C3680 1.327 . S
C3678 H3703 0.950 . S
C3679 C3678 1.349 . S
C3679 C3695 1.349 . S
C3680 C3678 1.327 . S
C3680 C3699 1.429 . S
C3680 H3704 0.950 . S
C3681 C3698 1.574 . S
C3681 C3700 1.368 . S
C3681 H3705 0.949 . S
H3682 C3686 0.949 . S
C3683 C3684 1.349 . S
C3683 C3685 1.327 . S
C3683 H3706 0.950 . S
C3684 C3683 1.349 . S
C3684 C3696 1.349 . S
C3685 C3683 1.327 . S
C3685 C3701 1.429 . S
C3685 H3707 0.950 . S
C3686 H3682 0.949 . S
C3686 C3694 1.574 . S
C3686 C3702 1.368 . S
H3687 C3695 0.950 . S
H3688 C3693 0.950 . S
H3689 C3694 0.949 . S
H3690 C3696 0.950 . S
H3691 C3697 0.950 . S
H3692 C3698 0.949 . S
C3693 H3688 0.950 . S
C3693 C3695 1.327 . S
C3693 C3699 1.429 . S
C3694 C3686 1.574 . S
C3694 H3689 0.949 . S
C3694 C3700 1.368 . S
C3695 C3679 1.349 . S
C3695 H3687 0.950 . S
C3695 C3693 1.327 . S
C3696 C3684 1.349 . S
C3696 H3690 0.950 . S
C3696 C3697 1.327 . S
C3697 H3691 0.950 . S
C3697 C3696 1.327 . S
C3697 C3701 1.429 . S
C3698 C3681 1.574 . S
C3698 H3692 0.949 . S
C3698 C3702 1.368 . S
C3699 C3680 1.429 . S
C3699 C3693 1.429 . S
C3699 C3700 1.523 . S
C3700 C3681 1.368 . S
C3700 C3694 1.368 . S
C3700 C3699 1.523 . S
C3701 C3685 1.429 . S
C3701 C3697 1.429 . S
C3701 C3702 1.523 . S
C3702 C3686 1.368 . S
C3702 C3698 1.368 . S
C3702 C3701 1.523 . S
H3703 C3678 0.950 . S
H3704 C3680 0.950 . S
H3705 C3681 0.949 . S
H3706 C3683 0.950 . S
H3707 C3685 0.950 . S
C3708 C3709 1.349 . S
C3708 C3710 1.327 . S
C3708 H3733 0.950 . S
C3709 C3708 1.349 . S
C3709 C3725 1.349 . S
C3710 C3708 1.327 . S
C3710 C3729 1.429 . S
C3710 H3734 0.950 . S
C3711 C3728 1.574 . S
C3711 C3730 1.368 . S
C3711 H3735 0.949 . S
H3712 C3716 0.949 . S
C3713 C3714 1.349 1_556 S
C3713 C3715 1.327 . S
C3713 H3736 0.950 . S
C3714 C3713 1.349 1_554 S
C3714 C3726 1.349 . S
C3715 C3713 1.327 . S
C3715 C3731 1.429 . S
C3715 H3737 0.950 . S
C3716 H3712 0.949 . S
C3716 C3724 1.574 1_554 S
C3716 C3732 1.368 1_554 S
H3717 C3725 0.950 . S
H3718 C3723 0.950 . S
H3719 C3724 0.949 1_554 S
H3720 C3726 0.950 . S
H3721 C3727 0.950 . S
H3722 C3728 0.949 . S
C3723 H3718 0.950 . S
C3723 C3725 1.327 . S
C3723 C3729 1.429 . S
C3724 C3716 1.574 1_556 S
C3724 H3719 0.949 1_556 S
C3724 C3730 1.368 . S
C3725 C3709 1.349 . S
C3725 H3717 0.950 . S
C3725 C3723 1.327 . S
C3726 C3714 1.349 . S
C3726 H3720 0.950 . S
C3726 C3727 1.327 . S
C3727 H3721 0.950 . S
C3727 C3726 1.327 . S
C3727 C3731 1.429 1_554 S
C3728 C3711 1.574 . S
C3728 H3722 0.949 . S
C3728 C3732 1.368 . S
C3729 C3710 1.429 . S
C3729 C3723 1.429 . S
C3729 C3730 1.523 . S
C3730 C3711 1.368 . S
C3730 C3724 1.368 . S
C3730 C3729 1.523 . S
C3731 C3715 1.429 . S
C3731 C3727 1.429 1_556 S
C3731 C3732 1.523 . S
C3732 C3716 1.368 1_556 S
C3732 C3728 1.368 . S
C3732 C3731 1.523 . S
H3733 C3708 0.950 . S
H3734 C3710 0.950 . S
H3735 C3711 0.949 . S
H3736 C3713 0.950 . S
H3737 C3715 0.950 . S
C3738 C3739 1.349 . S
C3738 C3740 1.327 . S
C3738 H3763 0.950 . S
C3739 C3738 1.349 . S
C3739 C3755 1.349 . S
C3740 C3738 1.327 . S
C3740 C3759 1.429 1_455 S
C3740 H3764 0.950 1_455 S
C3741 C3758 1.574 . S
C3741 C3760 1.368 . S
C3741 H3765 0.949 . S
H3742 C3746 0.949 . S
C3743 C3744 1.349 . S
C3743 C3745 1.327 . S
C3743 H3766 0.950 . S
C3744 C3743 1.349 . S
C3744 C3756 1.349 . S
C3745 C3743 1.327 . S
C3745 C3761 1.429 . S
C3745 H3767 0.950 . S
C3746 H3742 0.949 . S
C3746 C3754 1.574 . S
C3746 C3762 1.368 . S
H3747 C3755 0.950 . S
H3748 C3753 0.950 . S
H3749 C3754 0.949 . S
H3750 C3756 0.950 . S
H3751 C3757 0.950 . S
H3752 C3758 0.949 . S
C3753 H3748 0.950 . S
C3753 C3755 1.327 . S
C3753 C3759 1.429 1_455 S
C3754 C3746 1.574 . S
C3754 H3749 0.949 . S
C3754 C3760 1.368 . S
C3755 C3739 1.349 . S
C3755 H3747 0.950 . S
C3755 C3753 1.327 . S
C3756 C3744 1.349 . S
C3756 H3750 0.950 . S
C3756 C3757 1.327 . S
C3757 H3751 0.950 . S
C3757 C3756 1.327 . S
C3757 C3761 1.429 . S
C3758 C3741 1.574 . S
C3758 H3752 0.949 . S
C3758 C3762 1.368 . S
C3759 C3740 1.429 1_655 S
C3759 C3753 1.429 1_655 S
C3759 C3760 1.523 . S
C3760 C3741 1.368 . S
C3760 C3754 1.368 . S
C3760 C3759 1.523 . S
C3761 C3745 1.429 . S
C3761 C3757 1.429 . S
C3761 C3762 1.523 . S
C3762 C3746 1.368 . S
C3762 C3758 1.368 . S
C3762 C3761 1.523 . S
H3763 C3738 0.950 . S
H3764 C3740 0.950 1_655 S
H3765 C3741 0.949 . S
H3766 C3743 0.950 . S
H3767 C3745 0.950 . S
C3768 C3769 1.349 . S
C3768 C3770 1.327 . S
C3768 H3793 0.950 . S
C3769 C3768 1.349 . S
C3769 C3785 1.349 . S
C3770 C3768 1.327 . S
C3770 C3789 1.429 . S
C3770 H3794 0.950 . S
C3771 C3788 1.574 . S
C3771 C3790 1.368 . S
C3771 H3795 0.949 . S
H3772 C3776 0.949 . S
C3773 C3774 1.349 . S
C3773 C3775 1.327 . S
C3773 H3796 0.950 . S
C3774 C3773 1.349 . S
C3774 C3786 1.349 . S
C3775 C3773 1.327 . S
C3775 C3791 1.429 . S
C3775 H3797 0.950 . S
C3776 H3772 0.949 . S
C3776 C3784 1.574 . S
C3776 C3792 1.368 . S
H3777 C3785 0.950 . S
H3778 C3783 0.950 . S
H3779 C3784 0.949 . S
H3780 C3786 0.950 . S
H3781 C3787 0.950 . S
H3782 C3788 0.949 . S
C3783 H3778 0.950 . S
C3783 C3785 1.327 . S
C3783 C3789 1.429 . S
C3784 C3776 1.574 . S
C3784 H3779 0.949 . S
C3784 C3790 1.368 . S
C3785 C3769 1.349 . S
C3785 H3777 0.950 . S
C3785 C3783 1.327 . S
C3786 C3774 1.349 . S
C3786 H3780 0.950 . S
C3786 C3787 1.327 . S
C3787 H3781 0.950 . S
C3787 C3786 1.327 . S
C3787 C3791 1.429 . S
C3788 C3771 1.574 . S
C3788 H3782 0.949 . S
C3788 C3792 1.368 . S
C3789 C3770 1.429 . S
C3789 C3783 1.429 . S
C3789 C3790 1.523 . S
C3790 C3771 1.368 . S
C3790 C3784 1.368 . S
C3790 C3789 1.523 . S
C3791 C3775 1.429 . S
C3791 C3787 1.429 . S
C3791 C3792 1.523 . S
C3792 C3776 1.368 . S
C3792 C3788 1.368 . S
C3792 C3791 1.523 . S
H3793 C3768 0.950 . S
H3794 C3770 0.950 . S
H3795 C3771 0.949 . S
H3796 C3773 0.950 . S
H3797 C3775 0.950 . S
C3798 C3799 1.349 . S
C3798 C3800 1.327 . S
C3798 H3823 0.950 . S
C3799 C3798 1.349 . S
C3799 C3815 1.349 . S
C3800 C3798 1.327 . S
C3800 C3819 1.429 . S
C3800 H3824 0.950 . S
C3801 C3818 1.574 1_455 S
C3801 C3820 1.368 . S
C3801 H3825 0.949 . S
H3802 C3806 0.949 . S
C3803 C3804 1.349 . S
C3803 C3805 1.327 . S
C3803 H3826 0.950 . S
C3804 C3803 1.349 . S
C3804 C3816 1.349 . S
C3805 C3803 1.327 . S
C3805 C3821 1.429 . S
C3805 H3827 0.950 . S
C3806 H3802 0.949 . S
C3806 C3814 1.574 . S
C3806 C3822 1.368 . S
H3807 C3815 0.950 . S
H3808 C3813 0.950 . S
H3809 C3814 0.949 . S
H3810 C3816 0.950 . S
H3811 C3817 0.950 . S
H3812 C3818 0.949 . S
C3813 H3808 0.950 . S
C3813 C3815 1.327 . S
C3813 C3819 1.429 . S
C3814 C3806 1.574 . S
C3814 H3809 0.949 . S
C3814 C3820 1.368 1_655 S
C3815 C3799 1.349 . S
C3815 H3807 0.950 . S
C3815 C3813 1.327 . S
C3816 C3804 1.349 . S
C3816 H3810 0.950 . S
C3816 C3817 1.327 . S
C3817 H3811 0.950 . S
C3817 C3816 1.327 . S
C3817 C3821 1.429 . S
C3818 C3801 1.574 1_655 S
C3818 H3812 0.949 . S
C3818 C3822 1.368 . S
C3819 C3800 1.429 . S
C3819 C3813 1.429 . S
C3819 C3820 1.523 . S
C3820 C3801 1.368 . S
C3820 C3814 1.368 1_455 S
C3820 C3819 1.523 . S
C3821 C3805 1.429 . S
C3821 C3817 1.429 . S
C3821 C3822 1.523 . S
C3822 C3806 1.368 . S
C3822 C3818 1.368 . S
C3822 C3821 1.523 . S
H3823 C3798 0.950 . S
H3824 C3800 0.950 . S
H3825 C3801 0.949 . S
H3826 C3803 0.950 . S
H3827 C3805 0.950 . S
C3828 C3829 1.349 . S
C3828 C3830 1.327 . S
C3828 H3853 0.950 . S
C3829 C3828 1.349 . S
C3829 C3845 1.349 1_655 S
C3830 C3828 1.327 . S
C3830 C3849 1.429 1_655 S
C3830 H3854 0.950 . S
C3831 C3848 1.574 . S
C3831 C3850 1.368 . S
C3831 H3855 0.949 . S
H3832 C3836 0.949 1_655 S
C3833 C3834 1.349 . S
C3833 C3835 1.327 . S
C3833 H3856 0.950 . S
C3834 C3833 1.349 . S
C3834 C3846 1.349 . S
C3835 C3833 1.327 . S
C3835 C3851 1.429 . S
C3835 H3857 0.950 . S
C3836 H3832 0.949 1_455 S
C3836 C3844 1.574 1_455 S
C3836 C3852 1.368 . S
H3837 C3845 0.950 . S
H3838 C3843 0.950 . S
H3839 C3844 0.949 . S
H3840 C3846 0.950 . S
H3841 C3847 0.950 . S
H3842 C3848 0.949 . S
C3843 H3838 0.950 . S
C3843 C3845 1.327 . S
C3843 C3849 1.429 . S
C3844 C3836 1.574 1_655 S
C3844 H3839 0.949 . S
C3844 C3850 1.368 1_655 S
C3845 C3829 1.349 1_455 S
C3845 H3837 0.950 . S
C3845 C3843 1.327 . S
C3846 C3834 1.349 . S
C3846 H3840 0.950 . S
C3846 C3847 1.327 . S
C3847 H3841 0.950 . S
C3847 C3846 1.327 . S
C3847 C3851 1.429 . S
C3848 C3831 1.574 . S
C3848 H3842 0.949 . S
C3848 C3852 1.368 . S
C3849 C3830 1.429 1_455 S
C3849 C3843 1.429 . S
C3849 C3850 1.523 . S
C3850 C3831 1.368 . S
C3850 C3844 1.368 1_455 S
C3850 C3849 1.523 . S
C3851 C3835 1.429 . S
C3851 C3847 1.429 . S
C3851 C3852 1.523 . S
C3852 C3836 1.368 . S
C3852 C3848 1.368 . S
C3852 C3851 1.523 . S
H3853 C3828 0.950 . S
H3854 C3830 0.950 . S
H3855 C3831 0.949 . S
H3856 C3833 0.950 . S
H3857 C3835 0.950 . S
C3858 C3859 1.349 . S
C3858 C3860 1.327 . S
C3858 H3883 0.950 . S
C3859 C3858 1.349 . S
C3859 C3875 1.349 . S
C3860 C3858 1.327 . S
C3860 C3879 1.429 . S
C3860 H3884 0.950 . S
C3861 C3878 1.574 . S
C3861 C3880 1.368 . S
C3861 H3885 0.949 . S
H3862 C3866 0.949 . S
C3863 C3864 1.349 . S
C3863 C3865 1.327 . S
C3863 H3886 0.950 . S
C3864 C3863 1.349 . S
C3864 C3876 1.349 . S
C3865 C3863 1.327 . S
C3865 C3881 1.429 . S
C3865 H3887 0.950 . S
C3866 H3862 0.949 . S
C3866 C3874 1.574 . S
C3866 C3882 1.368 . S
H3867 C3875 0.950 . S
H3868 C3873 0.950 . S
H3869 C3874 0.949 . S
H3870 C3876 0.950 . S
H3871 C3877 0.950 . S
H3872 C3878 0.949 . S
C3873 H3868 0.950 . S
C3873 C3875 1.327 . S
C3873 C3879 1.429 . S
C3874 C3866 1.574 . S
C3874 H3869 0.949 . S
C3874 C3880 1.368 . S
C3875 C3859 1.349 . S
C3875 H3867 0.950 . S
C3875 C3873 1.327 . S
C3876 C3864 1.349 . S
C3876 H3870 0.950 . S
C3876 C3877 1.327 . S
C3877 H3871 0.950 . S
C3877 C3876 1.327 . S
C3877 C3881 1.429 . S
C3878 C3861 1.574 . S
C3878 H3872 0.949 . S
C3878 C3882 1.368 . S
C3879 C3860 1.429 . S
C3879 C3873 1.429 . S
C3879 C3880 1.523 . S
C3880 C3861 1.368 . S
C3880 C3874 1.368 . S
C3880 C3879 1.523 . S
C3881 C3865 1.429 . S
C3881 C3877 1.429 . S
C3881 C3882 1.523 . S
C3882 C3866 1.368 . S
C3882 C3878 1.368 . S
C3882 C3881 1.523 . S
H3883 C3858 0.950 . S
H3884 C3860 0.950 . S
H3885 C3861 0.949 . S
H3886 C3863 0.950 . S
H3887 C3865 0.950 . S
C3888 C3889 1.349 . S
C3888 C3890 1.327 . S
C3888 H3913 0.950 . S
C3889 C3888 1.349 . S
C3889 C3905 1.349 . S
C3890 C3888 1.327 . S
C3890 C3909 1.429 . S
C3890 H3914 0.950 . S
C3891 C3908 1.574 . S
C3891 C3910 1.368 . S
C3891 H3915 0.949 . S
H3892 C3896 0.949 . S
C3893 C3894 1.349 . S
C3893 C3895 1.327 . S
C3893 H3916 0.950 . S
C3894 C3893 1.349 . S
C3894 C3906 1.349 . S
C3895 C3893 1.327 . S
C3895 C3911 1.429 . S
C3895 H3917 0.950 . S
C3896 H3892 0.949 . S
C3896 C3904 1.574 . S
C3896 C3912 1.368 . S
H3897 C3905 0.950 . S
H3898 C3903 0.950 . S
H3899 C3904 0.949 . S
H3900 C3906 0.950 . S
H3901 C3907 0.950 . S
H3902 C3908 0.949 . S
C3903 H3898 0.950 . S
C3903 C3905 1.327 . S
C3903 C3909 1.429 . S
C3904 C3896 1.574 . S
C3904 H3899 0.949 . S
C3904 C3910 1.368 . S
C3905 C3889 1.349 . S
C3905 H3897 0.950 . S
C3905 C3903 1.327 . S
C3906 C3894 1.349 . S
C3906 H3900 0.950 . S
C3906 C3907 1.327 . S
C3907 H3901 0.950 . S
C3907 C3906 1.327 . S
C3907 C3911 1.429 . S
C3908 C3891 1.574 . S
C3908 H3902 0.949 . S
C3908 C3912 1.368 . S
C3909 C3890 1.429 . S
C3909 C3903 1.429 . S
C3909 C3910 1.523 . S
C3910 C3891 1.368 . S
C3910 C3904 1.368 . S
C3910 C3909 1.523 . S
C3911 C3895 1.429 . S
C3911 C3907 1.429 . S
C3911 C3912 1.523 . S
C3912 C3896 1.368 . S
C3912 C3908 1.368 . S
C3912 C3911 1.523 . S
H3913 C3888 0.950 . S
H3914 C3890 0.950 . S
H3915 C3891 0.949 . S
H3916 C3893 0.950 . S
H3917 C3895 0.950 . S
C3918 C3919 1.349 . S
C3918 C3920 1.327 . S
C3918 H3943 0.950 . S
C3919 C3918 1.349 . S
C3919 C3935 1.349 . S
C3920 C3918 1.327 . S
C3920 C3939 1.429 . S
C3920 H3944 0.950 . S
C3921 C3938 1.574 . S
C3921 C3940 1.368 . S
C3921 H3945 0.949 . S
H3922 C3926 0.949 . S
C3923 C3924 1.349 . S
C3923 C3925 1.327 . S
C3923 H3946 0.950 . S
C3924 C3923 1.349 . S
C3924 C3936 1.349 . S
C3925 C3923 1.327 . S
C3925 C3941 1.429 . S
C3925 H3947 0.950 . S
C3926 H3922 0.949 . S
C3926 C3934 1.574 . S
C3926 C3942 1.368 . S
H3927 C3935 0.950 . S
H3928 C3933 0.950 . S
H3929 C3934 0.949 . S
H3930 C3936 0.950 . S
H3931 C3937 0.950 . S
H3932 C3938 0.949 . S
C3933 H3928 0.950 . S
C3933 C3935 1.327 . S
C3933 C3939 1.429 . S
C3934 C3926 1.574 . S
C3934 H3929 0.949 . S
C3934 C3940 1.368 . S
C3935 C3919 1.349 . S
C3935 H3927 0.950 . S
C3935 C3933 1.327 . S
C3936 C3924 1.349 . S
C3936 H3930 0.950 . S
C3936 C3937 1.327 . S
C3937 H3931 0.950 . S
C3937 C3936 1.327 . S
C3937 C3941 1.429 . S
C3938 C3921 1.574 . S
C3938 H3932 0.949 . S
C3938 C3942 1.368 . S
C3939 C3920 1.429 . S
C3939 C3933 1.429 . S
C3939 C3940 1.523 . S
C3940 C3921 1.368 . S
C3940 C3934 1.368 . S
C3940 C3939 1.523 . S
C3941 C3925 1.429 . S
C3941 C3937 1.429 . S
C3941 C3942 1.523 . S
C3942 C3926 1.368 . S
C3942 C3938 1.368 . S
C3942 C3941 1.523 . S
H3943 C3918 0.950 . S
H3944 C3920 0.950 . S
H3945 C3921 0.949 . S
H3946 C3923 0.950 . S
H3947 C3925 0.950 . S
C3948 C3949 1.349 . S
C3948 C3950 1.327 . S
C3948 H3973 0.950 . S
C3949 C3948 1.349 . S
C3949 C3965 1.349 . S
C3950 C3948 1.327 . S
C3950 C3969 1.429 . S
C3950 H3974 0.950 . S
C3951 C3968 1.574 . S
C3951 C3970 1.368 . S
C3951 H3975 0.949 . S
H3952 C3956 0.949 . S
C3953 C3954 1.349 . S
C3953 C3955 1.327 . S
C3953 H3976 0.950 . S
C3954 C3953 1.349 . S
C3954 C3966 1.349 . S
C3955 C3953 1.327 . S
C3955 C3971 1.429 . S
C3955 H3977 0.950 . S
C3956 H3952 0.949 . S
C3956 C3964 1.574 . S
C3956 C3972 1.368 . S
H3957 C3965 0.950 . S
H3958 C3963 0.950 . S
H3959 C3964 0.949 . S
H3960 C3966 0.950 . S
H3961 C3967 0.950 . S
H3962 C3968 0.949 . S
C3963 H3958 0.950 . S
C3963 C3965 1.327 . S
C3963 C3969 1.429 . S
C3964 C3956 1.574 . S
C3964 H3959 0.949 . S
C3964 C3970 1.368 . S
C3965 C3949 1.349 . S
C3965 H3957 0.950 . S
C3965 C3963 1.327 . S
C3966 C3954 1.349 . S
C3966 H3960 0.950 . S
C3966 C3967 1.327 . S
C3967 H3961 0.950 . S
C3967 C3966 1.327 . S
C3967 C3971 1.429 . S
C3968 C3951 1.574 . S
C3968 H3962 0.949 . S
C3968 C3972 1.368 . S
C3969 C3950 1.429 . S
C3969 C3963 1.429 . S
C3969 C3970 1.523 . S
C3970 C3951 1.368 . S
C3970 C3964 1.368 . S
C3970 C3969 1.523 . S
C3971 C3955 1.429 . S
C3971 C3967 1.429 . S
C3971 C3972 1.523 . S
C3972 C3956 1.368 . S
C3972 C3968 1.368 . S
C3972 C3971 1.523 . S
H3973 C3948 0.950 . S
H3974 C3950 0.950 . S
H3975 C3951 0.949 . S
H3976 C3953 0.950 . S
H3977 C3955 0.950 . S
C3978 C3979 1.349 . S
C3978 C3980 1.327 . S
C3978 H4003 0.950 . S
C3979 C3978 1.349 . S
C3979 C3995 1.349 . S
C3980 C3978 1.327 . S
C3980 C3999 1.429 . S
C3980 H4004 0.950 . S
C3981 C3998 1.574 . S
C3981 C4000 1.368 . S
C3981 H4005 0.949 . S
H3982 C3986 0.949 . S
C3983 C3984 1.349 . S
C3983 C3985 1.327 . S
C3983 H4006 0.950 . S
C3984 C3983 1.349 . S
C3984 C3996 1.349 . S
C3985 C3983 1.327 . S
C3985 C4001 1.429 . S
C3985 H4007 0.950 . S
C3986 H3982 0.949 . S
C3986 C3994 1.574 . S
C3986 C4002 1.368 . S
H3987 C3995 0.950 . S
H3988 C3993 0.950 . S
H3989 C3994 0.949 . S
H3990 C3996 0.950 . S
H3991 C3997 0.950 . S
H3992 C3998 0.949 . S
C3993 H3988 0.950 . S
C3993 C3995 1.327 . S
C3993 C3999 1.429 . S
C3994 C3986 1.574 . S
C3994 H3989 0.949 . S
C3994 C4000 1.368 . S
C3995 C3979 1.349 . S
C3995 H3987 0.950 . S
C3995 C3993 1.327 . S
C3996 C3984 1.349 . S
C3996 H3990 0.950 . S
C3996 C3997 1.327 . S
C3997 H3991 0.950 . S
C3997 C3996 1.327 . S
C3997 C4001 1.429 . S
C3998 C3981 1.574 . S
C3998 H3992 0.949 . S
C3998 C4002 1.368 . S
C3999 C3980 1.429 . S
C3999 C3993 1.429 . S
C3999 C4000 1.523 . S
C4000 C3981 1.368 . S
C4000 C3994 1.368 . S
C4000 C3999 1.523 . S
C4001 C3985 1.429 . S
C4001 C3997 1.429 . S
C4001 C4002 1.523 . S
C4002 C3986 1.368 . S
C4002 C3998 1.368 . S
C4002 C4001 1.523 . S
H4003 C3978 0.950 . S
H4004 C3980 0.950 . S
H4005 C3981 0.949 . S
H4006 C3983 0.950 . S
H4007 C3985 0.950 . S
C4008 C4009 1.349 . S
C4008 C4010 1.327 . S
C4008 H4033 0.950 . S
C4009 C4008 1.349 . S
C4009 C4025 1.349 . S
C4010 C4008 1.327 . S
C4010 C4029 1.429 . S
C4010 H4034 0.950 . S
C4011 C4028 1.574 . S
C4011 C4030 1.368 . S
C4011 H4035 0.949 . S
H4012 C4016 0.949 . S
C4013 C4014 1.349 . S
C4013 C4015 1.327 . S
C4013 H4036 0.950 . S
C4014 C4013 1.349 . S
C4014 C4026 1.349 . S
C4015 C4013 1.327 . S
C4015 C4031 1.429 . S
C4015 H4037 0.950 . S
C4016 H4012 0.949 . S
C4016 C4024 1.574 . S
C4016 C4032 1.368 . S
H4017 C4025 0.950 . S
H4018 C4023 0.950 . S
H4019 C4024 0.949 . S
H4020 C4026 0.950 . S
H4021 C4027 0.950 . S
H4022 C4028 0.949 . S
C4023 H4018 0.950 . S
C4023 C4025 1.327 . S
C4023 C4029 1.429 . S
C4024 C4016 1.574 . S
C4024 H4019 0.949 . S
C4024 C4030 1.368 . S
C4025 C4009 1.349 . S
C4025 H4017 0.950 . S
C4025 C4023 1.327 . S
C4026 C4014 1.349 . S
C4026 H4020 0.950 . S
C4026 C4027 1.327 . S
C4027 H4021 0.950 . S
C4027 C4026 1.327 . S
C4027 C4031 1.429 . S
C4028 C4011 1.574 . S
C4028 H4022 0.949 . S
C4028 C4032 1.368 . S
C4029 C4010 1.429 . S
C4029 C4023 1.429 . S
C4029 C4030 1.523 . S
C4030 C4011 1.368 . S
C4030 C4024 1.368 . S
C4030 C4029 1.523 . S
C4031 C4015 1.429 . S
C4031 C4027 1.429 . S
C4031 C4032 1.523 . S
C4032 C4016 1.368 . S
C4032 C4028 1.368 . S
C4032 C4031 1.523 . S
H4033 C4008 0.950 . S
H4034 C4010 0.950 . S
H4035 C4011 0.949 . S
H4036 C4013 0.950 . S
H4037 C4015 0.950 . S
C4038 C4039 1.349 . S
C4038 C4040 1.327 . S
C4038 H4063 0.950 . S
C4039 C4038 1.349 . S
C4039 C4055 1.349 . S
C4040 C4038 1.327 . S
C4040 C4059 1.429 . S
C4040 H4064 0.950 . S
C4041 C4058 1.574 . S
C4041 C4060 1.368 . S
C4041 H4065 0.949 . S
H4042 C4046 0.949 . S
C4043 C4044 1.349 . S
C4043 C4045 1.327 . S
C4043 H4066 0.950 . S
C4044 C4043 1.349 . S
C4044 C4056 1.349 . S
C4045 C4043 1.327 . S
C4045 C4061 1.429 . S
C4045 H4067 0.950 . S
C4046 H4042 0.949 . S
C4046 C4054 1.574 . S
C4046 C4062 1.368 . S
H4047 C4055 0.950 . S
H4048 C4053 0.950 . S
H4049 C4054 0.949 . S
H4050 C4056 0.950 . S
H4051 C4057 0.950 . S
H4052 C4058 0.949 . S
C4053 H4048 0.950 . S
C4053 C4055 1.327 . S
C4053 C4059 1.429 . S
C4054 C4046 1.574 . S
C4054 H4049 0.949 . S
C4054 C4060 1.368 . S
C4055 C4039 1.349 . S
C4055 H4047 0.950 . S
C4055 C4053 1.327 . S
C4056 C4044 1.349 . S
C4056 H4050 0.950 . S
C4056 C4057 1.327 . S
C4057 H4051 0.950 . S
C4057 C4056 1.327 . S
C4057 C4061 1.429 . S
C4058 C4041 1.574 . S
C4058 H4052 0.949 . S
C4058 C4062 1.368 . S
C4059 C4040 1.429 . S
C4059 C4053 1.429 . S
C4059 C4060 1.523 . S
C4060 C4041 1.368 . S
C4060 C4054 1.368 . S
C4060 C4059 1.523 . S
C4061 C4045 1.429 . S
C4061 C4057 1.429 . S
C4061 C4062 1.523 . S
C4062 C4046 1.368 . S
C4062 C4058 1.368 . S
C4062 C4061 1.523 . S
H4063 C4038 0.950 . S
H4064 C4040 0.950 . S
H4065 C4041 0.949 . S
H4066 C4043 0.950 . S
H4067 C4045 0.950 . S
C4068 C4069 1.349 . S
C4068 C4070 1.327 . S
C4068 H4093 0.950 . S
C4069 C4068 1.349 . S
C4069 C4085 1.349 . S
C4070 C4068 1.327 . S
C4070 C4089 1.429 . S
C4070 H4094 0.950 . S
C4071 C4088 1.574 . S
C4071 C4090 1.368 . S
C4071 H4095 0.949 . S
H4072 C4076 0.949 . S
C4073 C4074 1.349 . S
C4073 C4075 1.327 . S
C4073 H4096 0.950 . S
C4074 C4073 1.349 . S
C4074 C4086 1.349 . S
C4075 C4073 1.327 . S
C4075 C4091 1.429 . S
C4075 H4097 0.950 . S
C4076 H4072 0.949 . S
C4076 C4084 1.574 . S
C4076 C4092 1.368 . S
H4077 C4085 0.950 . S
H4078 C4083 0.950 . S
H4079 C4084 0.949 . S
H4080 C4086 0.950 . S
H4081 C4087 0.950 . S
H4082 C4088 0.949 . S
C4083 H4078 0.950 . S
C4083 C4085 1.327 . S
C4083 C4089 1.429 . S
C4084 C4076 1.574 . S
C4084 H4079 0.949 . S
C4084 C4090 1.368 . S
C4085 C4069 1.349 . S
C4085 H4077 0.950 . S
C4085 C4083 1.327 . S
C4086 C4074 1.349 . S
C4086 H4080 0.950 . S
C4086 C4087 1.327 . S
C4087 H4081 0.950 . S
C4087 C4086 1.327 . S
C4087 C4091 1.429 . S
C4088 C4071 1.574 . S
C4088 H4082 0.949 . S
C4088 C4092 1.368 . S
C4089 C4070 1.429 . S
C4089 C4083 1.429 . S
C4089 C4090 1.523 . S
C4090 C4071 1.368 . S
C4090 C4084 1.368 . S
C4090 C4089 1.523 . S
C4091 C4075 1.429 . S
C4091 C4087 1.429 . S
C4091 C4092 1.523 . S
C4092 C4076 1.368 . S
C4092 C4088 1.368 . S
C4092 C4091 1.523 . S
H4093 C4068 0.950 . S
H4094 C4070 0.950 . S
H4095 C4071 0.949 . S
H4096 C4073 0.950 . S
H4097 C4075 0.950 . S
C4098 C4099 1.349 . S
C4098 C4100 1.327 . S
C4098 H4123 0.950 . S
C4099 C4098 1.349 . S
C4099 C4115 1.349 . S
C4100 C4098 1.327 . S
C4100 C4119 1.429 . S
C4100 H4124 0.950 . S
C4101 C4118 1.574 . S
C4101 C4120 1.368 . S
C4101 H4125 0.949 . S
H4102 C4106 0.949 . S
C4103 C4104 1.349 . S
C4103 C4105 1.327 . S
C4103 H4126 0.950 . S
C4104 C4103 1.349 . S
C4104 C4116 1.349 . S
C4105 C4103 1.327 . S
C4105 C4121 1.429 . S
C4105 H4127 0.950 . S
C4106 H4102 0.949 . S
C4106 C4114 1.574 . S
C4106 C4122 1.368 . S
H4107 C4115 0.950 . S
H4108 C4113 0.950 . S
H4109 C4114 0.949 . S
H4110 C4116 0.950 . S
H4111 C4117 0.950 . S
H4112 C4118 0.949 . S
C4113 H4108 0.950 . S
C4113 C4115 1.327 . S
C4113 C4119 1.429 . S
C4114 C4106 1.574 . S
C4114 H4109 0.949 . S
C4114 C4120 1.368 . S
C4115 C4099 1.349 . S
C4115 H4107 0.950 . S
C4115 C4113 1.327 . S
C4116 C4104 1.349 . S
C4116 H4110 0.950 . S
C4116 C4117 1.327 . S
C4117 H4111 0.950 . S
C4117 C4116 1.327 . S
C4117 C4121 1.429 . S
C4118 C4101 1.574 . S
C4118 H4112 0.949 . S
C4118 C4122 1.368 . S
C4119 C4100 1.429 . S
C4119 C4113 1.429 . S
C4119 C4120 1.523 . S
C4120 C4101 1.368 . S
C4120 C4114 1.368 . S
C4120 C4119 1.523 . S
C4121 C4105 1.429 . S
C4121 C4117 1.429 . S
C4121 C4122 1.523 . S
C4122 C4106 1.368 . S
C4122 C4118 1.368 . S
C4122 C4121 1.523 . S
H4123 C4098 0.950 . S
H4124 C4100 0.950 . S
H4125 C4101 0.949 . S
H4126 C4103 0.950 . S
H4127 C4105 0.950 . S
C4128 C4129 1.349 . S
C4128 C4130 1.327 . S
C4128 H4153 0.950 . S
C4129 C4128 1.349 . S
C4129 C4145 1.349 . S
C4130 C4128 1.327 . S
C4130 C4149 1.429 . S
C4130 H4154 0.950 . S
C4131 C4148 1.574 . S
C4131 C4150 1.368 . S
C4131 H4155 0.949 . S
H4132 C4136 0.949 . S
C4133 C4134 1.349 . S
C4133 C4135 1.327 . S
C4133 H4156 0.950 . S
C4134 C4133 1.349 . S
C4134 C4146 1.349 . S
C4135 C4133 1.327 . S
C4135 C4151 1.429 . S
C4135 H4157 0.950 . S
C4136 H4132 0.949 . S
C4136 C4144 1.574 . S
C4136 C4152 1.368 . S
H4137 C4145 0.950 . S
H4138 C4143 0.950 . S
H4139 C4144 0.949 . S
H4140 C4146 0.950 . S
H4141 C4147 0.950 . S
H4142 C4148 0.949 . S
C4143 H4138 0.950 . S
C4143 C4145 1.327 . S
C4143 C4149 1.429 . S
C4144 C4136 1.574 . S
C4144 H4139 0.949 . S
C4144 C4150 1.368 . S
C4145 C4129 1.349 . S
C4145 H4137 0.950 . S
C4145 C4143 1.327 . S
C4146 C4134 1.349 . S
C4146 H4140 0.950 . S
C4146 C4147 1.327 . S
C4147 H4141 0.950 . S
C4147 C4146 1.327 . S
C4147 C4151 1.429 . S
C4148 C4131 1.574 . S
C4148 H4142 0.949 . S
C4148 C4152 1.368 . S
C4149 C4130 1.429 . S
C4149 C4143 1.429 . S
C4149 C4150 1.523 . S
C4150 C4131 1.368 . S
C4150 C4144 1.368 . S
C4150 C4149 1.523 . S
C4151 C4135 1.429 . S
C4151 C4147 1.429 . S
C4151 C4152 1.523 . S
C4152 C4136 1.368 . S
C4152 C4148 1.368 . S
C4152 C4151 1.523 . S
H4153 C4128 0.950 . S
H4154 C4130 0.950 . S
H4155 C4131 0.949 . S
H4156 C4133 0.950 . S
H4157 C4135 0.950 . S
C4158 C4159 1.349 . S
C4158 C4160 1.327 . S
C4158 H4183 0.950 . S
C4159 C4158 1.349 . S
C4159 C4175 1.349 . S
C4160 C4158 1.327 . S
C4160 C4179 1.429 . S
C4160 H4184 0.950 . S
C4161 C4178 1.574 . S
C4161 C4180 1.368 . S
C4161 H4185 0.949 . S
H4162 C4166 0.949 . S
C4163 C4164 1.349 . S
C4163 C4165 1.327 . S
C4163 H4186 0.950 . S
C4164 C4163 1.349 . S
C4164 C4176 1.349 . S
C4165 C4163 1.327 . S
C4165 C4181 1.429 . S
C4165 H4187 0.950 . S
C4166 H4162 0.949 . S
C4166 C4174 1.574 . S
C4166 C4182 1.368 . S
H4167 C4175 0.950 . S
H4168 C4173 0.950 . S
H4169 C4174 0.949 . S
H4170 C4176 0.950 . S
H4171 C4177 0.950 . S
H4172 C4178 0.949 . S
C4173 H4168 0.950 . S
C4173 C4175 1.327 . S
C4173 C4179 1.429 . S
C4174 C4166 1.574 . S
C4174 H4169 0.949 . S
C4174 C4180 1.368 . S
C4175 C4159 1.349 . S
C4175 H4167 0.950 . S
C4175 C4173 1.327 . S
C4176 C4164 1.349 . S
C4176 H4170 0.950 . S
C4176 C4177 1.327 . S
C4177 H4171 0.950 . S
C4177 C4176 1.327 . S
C4177 C4181 1.429 . S
C4178 C4161 1.574 . S
C4178 H4172 0.949 . S
C4178 C4182 1.368 . S
C4179 C4160 1.429 . S
C4179 C4173 1.429 . S
C4179 C4180 1.523 . S
C4180 C4161 1.368 . S
C4180 C4174 1.368 . S
C4180 C4179 1.523 . S
C4181 C4165 1.429 . S
C4181 C4177 1.429 . S
C4181 C4182 1.523 . S
C4182 C4166 1.368 . S
C4182 C4178 1.368 . S
C4182 C4181 1.523 . S
H4183 C4158 0.950 . S
H4184 C4160 0.950 . S
H4185 C4161 0.949 . S
H4186 C4163 0.950 . S
H4187 C4165 0.950 . S
C4188 C4189 1.349 . S
C4188 C4190 1.327 . S
C4188 H4213 0.950 . S
C4189 C4188 1.349 . S
C4189 C4205 1.349 . S
C4190 C4188 1.327 . S
C4190 C4209 1.429 . S
C4190 H4214 0.950 . S
C4191 C4208 1.574 . S
C4191 C4210 1.368 . S
C4191 H4215 0.949 . S
H4192 C4196 0.949 . S
C4193 C4194 1.349 . S
C4193 C4195 1.327 . S
C4193 H4216 0.950 . S
C4194 C4193 1.349 . S
C4194 C4206 1.349 . S
C4195 C4193 1.327 . S
C4195 C4211 1.429 . S
C4195 H4217 0.950 . S
C4196 H4192 0.949 . S
C4196 C4204 1.574 . S
C4196 C4212 1.368 . S
H4197 C4205 0.950 . S
H4198 C4203 0.950 . S
H4199 C4204 0.949 . S
H4200 C4206 0.950 . S
H4201 C4207 0.950 . S
H4202 C4208 0.949 . S
C4203 H4198 0.950 . S
C4203 C4205 1.327 . S
C4203 C4209 1.429 . S
C4204 C4196 1.574 . S
C4204 H4199 0.949 . S
C4204 C4210 1.368 . S
C4205 C4189 1.349 . S
C4205 H4197 0.950 . S
C4205 C4203 1.327 . S
C4206 C4194 1.349 . S
C4206 H4200 0.950 . S
C4206 C4207 1.327 . S
C4207 H4201 0.950 . S
C4207 C4206 1.327 . S
C4207 C4211 1.429 . S
C4208 C4191 1.574 . S
C4208 H4202 0.949 . S
C4208 C4212 1.368 . S
C4209 C4190 1.429 . S
C4209 C4203 1.429 . S
C4209 C4210 1.523 . S
C4210 C4191 1.368 . S
C4210 C4204 1.368 . S
C4210 C4209 1.523 . S
C4211 C4195 1.429 . S
C4211 C4207 1.429 . S
C4211 C4212 1.523 . S
C4212 C4196 1.368 . S
C4212 C4208 1.368 . S
C4212 C4211 1.523 . S
H4213 C4188 0.950 . S
H4214 C4190 0.950 . S
H4215 C4191 0.949 . S
H4216 C4193 0.950 . S
H4217 C4195 0.950 . S
C4218 C4219 1.349 . S
C4218 C4220 1.327 . S
C4218 H4243 0.950 . S
C4219 C4218 1.349 . S
C4219 C4235 1.349 . S
C4220 C4218 1.327 . S
C4220 C4239 1.429 . S
C4220 H4244 0.950 . S
C4221 C4238 1.574 . S
C4221 C4240 1.368 . S
C4221 H4245 0.949 1_554 S
H4222 C4226 0.949 . S
C4223 C4224 1.349 . S
C4223 C4225 1.327 . S
C4223 H4246 0.950 1_554 S
C4224 C4223 1.349 . S
C4224 C4236 1.349 . S
C4225 C4223 1.327 . S
C4225 C4241 1.429 . S
C4225 H4247 0.950 1_554 S
C4226 H4222 0.949 . S
C4226 C4234 1.574 . S
C4226 C4242 1.368 . S
H4227 C4235 0.950 1_556 S
H4228 C4233 0.950 1_556 S
H4229 C4234 0.949 . S
H4230 C4236 0.950 . S
H4231 C4237 0.950 . S
H4232 C4238 0.949 1_546 S
C4233 H4228 0.950 1_554 S
C4233 C4235 1.327 . S
C4233 C4239 1.429 . S
C4234 C4226 1.574 . S
C4234 H4229 0.949 . S
C4234 C4240 1.368 . S
C4235 C4219 1.349 . S
C4235 H4227 0.950 1_554 S
C4235 C4233 1.327 . S
C4236 C4224 1.349 . S
C4236 H4230 0.950 . S
C4236 C4237 1.327 . S
C4237 H4231 0.950 . S
C4237 C4236 1.327 . S
C4237 C4241 1.429 . S
C4238 C4221 1.574 . S
C4238 H4232 0.949 1_564 S
C4238 C4242 1.368 . S
C4239 C4220 1.429 . S
C4239 C4233 1.429 . S
C4239 C4240 1.523 . S
C4240 C4221 1.368 . S
C4240 C4234 1.368 . S
C4240 C4239 1.523 . S
C4241 C4225 1.429 . S
C4241 C4237 1.429 . S
C4241 C4242 1.523 1_545 S
C4242 C4226 1.368 . S
C4242 C4238 1.368 . S
C4242 C4241 1.523 1_565 S
H4243 C4218 0.950 . S
H4244 C4220 0.950 . S
H4245 C4221 0.949 1_556 S
H4246 C4223 0.950 1_556 S
H4247 C4225 0.950 1_556 S
C4248 C4249 1.349 . S
C4248 C4250 1.327 . S
C4248 H4273 0.950 . S
C4249 C4248 1.349 . S
C4249 C4265 1.349 . S
C4250 C4248 1.327 . S
C4250 C4269 1.429 . S
C4250 H4274 0.950 . S
C4251 C4268 1.574 . S
C4251 C4270 1.368 . S
C4251 H4275 0.949 . S
H4252 C4256 0.949 . S
C4253 C4254 1.349 . S
C4253 C4255 1.327 . S
C4253 H4276 0.950 . S
C4254 C4253 1.349 . S
C4254 C4266 1.349 . S
C4255 C4253 1.327 . S
C4255 C4271 1.429 . S
C4255 H4277 0.950 . S
C4256 H4252 0.949 . S
C4256 C4264 1.574 . S
C4256 C4272 1.368 . S
H4257 C4265 0.950 . S
H4258 C4263 0.950 . S
H4259 C4264 0.949 . S
H4260 C4266 0.950 . S
H4261 C4267 0.950 . S
H4262 C4268 0.949 . S
C4263 H4258 0.950 . S
C4263 C4265 1.327 . S
C4263 C4269 1.429 . S
C4264 C4256 1.574 . S
C4264 H4259 0.949 . S
C4264 C4270 1.368 . S
C4265 C4249 1.349 . S
C4265 H4257 0.950 . S
C4265 C4263 1.327 . S
C4266 C4254 1.349 . S
C4266 H4260 0.950 . S
C4266 C4267 1.327 . S
C4267 H4261 0.950 . S
C4267 C4266 1.327 . S
C4267 C4271 1.429 . S
C4268 C4251 1.574 . S
C4268 H4262 0.949 . S
C4268 C4272 1.368 . S
C4269 C4250 1.429 . S
C4269 C4263 1.429 . S
C4269 C4270 1.523 . S
C4270 C4251 1.368 . S
C4270 C4264 1.368 . S
C4270 C4269 1.523 . S
C4271 C4255 1.429 . S
C4271 C4267 1.429 . S
C4271 C4272 1.523 . S
C4272 C4256 1.368 . S
C4272 C4268 1.368 . S
C4272 C4271 1.523 . S
H4273 C4248 0.950 . S
H4274 C4250 0.950 . S
H4275 C4251 0.949 . S
H4276 C4253 0.950 . S
H4277 C4255 0.950 . S
C4278 C4279 1.342 1_554 S
C4278 C4280 1.327 . S
C4278 H4303 0.950 . S
C4279 C4278 1.342 1_556 S
C4279 C4295 1.354 . S
C4280 C4278 1.327 . S
C4280 C4299 1.429 . S
C4280 H4304 0.950 . S
C4281 C4298 1.574 1_556 S
C4281 C4300 1.368 1_556 S
C4281 H4305 0.949 . S
H4282 C4286 0.949 . S
C4283 C4284 1.349 . S
C4283 C4285 1.327 . S
C4283 H4306 0.950 . S
C4284 C4283 1.349 . S
C4284 C4296 1.349 . S
C4285 C4283 1.327 . S
C4285 C4301 1.429 . S
C4285 H4307 0.950 1_554 S
C4286 H4282 0.949 . S
C4286 C4294 1.574 . S
C4286 C4302 1.368 . S
H4287 C4295 0.950 . S
H4288 C4293 0.950 . S
H4289 C4294 0.949 . S
H4290 C4296 0.950 . S
H4291 C4297 0.950 . S
H4292 C4298 0.949 1_556 S
C4293 H4288 0.950 . S
C4293 C4295 1.327 . S
C4293 C4299 1.429 1_556 S
C4294 C4286 1.574 . S
C4294 H4289 0.949 . S
C4294 C4300 1.368 . S
C4295 C4279 1.354 . S
C4295 H4287 0.950 . S
C4295 C4293 1.327 . S
C4296 C4284 1.349 . S
C4296 H4290 0.950 . S
C4296 C4297 1.327 . S
C4297 H4291 0.950 . S
C4297 C4296 1.327 . S
C4297 C4301 1.429 . S
C4298 C4281 1.574 1_554 S
C4298 H4292 0.949 1_554 S
C4298 C4302 1.368 . S
C4299 C4280 1.429 . S
C4299 C4293 1.429 1_554 S
C4299 C4300 1.523 . S
C4300 C4281 1.368 1_554 S
C4300 C4294 1.368 . S
C4300 C4299 1.523 . S
C4301 C4285 1.429 . S
C4301 C4297 1.429 . S
C4301 C4302 1.523 . S
C4302 C4286 1.368 . S
C4302 C4298 1.368 . S
C4302 C4301 1.523 . S
H4303 C4278 0.950 . S
H4304 C4280 0.950 . S
H4305 C4281 0.949 . S
H4306 C4283 0.950 . S
H4307 C4285 0.950 1_556 S
C4308 C4309 1.349 . S
C4308 C4310 1.327 . S
C4308 H4333 0.950 . S
C4309 C4308 1.349 . S
C4309 C4325 1.349 . S
C4310 C4308 1.327 . S
C4310 C4329 1.429 . S
C4310 H4334 0.950 . S
C4311 C4328 1.574 . S
C4311 C4330 1.368 . S
C4311 H4335 0.949 . S
H4312 C4316 0.949 . S
C4313 C4314 1.349 . S
C4313 C4315 1.327 . S
C4313 H4336 0.950 . S
C4314 C4313 1.349 . S
C4314 C4326 1.349 . S
C4315 C4313 1.327 . S
C4315 C4331 1.429 . S
C4315 H4337 0.950 . S
C4316 H4312 0.949 . S
C4316 C4324 1.574 . S
C4316 C4332 1.368 . S
H4317 C4325 0.950 . S
H4318 C4323 0.950 . S
H4319 C4324 0.949 . S
H4320 C4326 0.950 . S
H4321 C4327 0.950 . S
H4322 C4328 0.949 . S
C4323 H4318 0.950 . S
C4323 C4325 1.327 . S
C4323 C4329 1.429 . S
C4324 C4316 1.574 . S
C4324 H4319 0.949 . S
C4324 C4330 1.368 . S
C4325 C4309 1.349 . S
C4325 H4317 0.950 . S
C4325 C4323 1.327 . S
C4326 C4314 1.349 . S
C4326 H4320 0.950 . S
C4326 C4327 1.327 . S
C4327 H4321 0.950 . S
C4327 C4326 1.327 . S
C4327 C4331 1.429 . S
C4328 C4311 1.574 . S
C4328 H4322 0.949 . S
C4328 C4332 1.368 . S
C4329 C4310 1.429 . S
C4329 C4323 1.429 . S
C4329 C4330 1.523 . S
C4330 C4311 1.368 . S
C4330 C4324 1.368 . S
C4330 C4329 1.523 . S
C4331 C4315 1.429 . S
C4331 C4327 1.429 . S
C4331 C4332 1.523 . S
C4332 C4316 1.368 . S
C4332 C4328 1.368 . S
C4332 C4331 1.523 . S
H4333 C4308 0.950 . S
H4334 C4310 0.950 . S
H4335 C4311 0.949 . S
H4336 C4313 0.950 . S
H4337 C4315 0.950 . S
C4338 C4339 1.349 . S
C4338 C4340 1.327 . S
C4338 H4363 0.950 . S
C4339 C4338 1.349 . S
C4339 C4355 1.349 . S
C4340 C4338 1.327 . S
C4340 C4359 1.429 . S
C4340 H4364 0.950 . S
C4341 C4358 1.574 . S
C4341 C4360 1.368 . S
C4341 H4365 0.949 . S
H4342 C4346 0.949 . S
C4343 C4344 1.349 . S
C4343 C4345 1.327 . S
C4343 H4366 0.950 . S
C4344 C4343 1.349 . S
C4344 C4356 1.349 . S
C4345 C4343 1.327 . S
C4345 C4361 1.429 . S
C4345 H4367 0.950 . S
C4346 H4342 0.949 . S
C4346 C4354 1.574 . S
C4346 C4362 1.368 . S
H4347 C4355 0.950 . S
H4348 C4353 0.950 . S
H4349 C4354 0.949 . S
H4350 C4356 0.950 . S
H4351 C4357 0.950 . S
H4352 C4358 0.949 . S
C4353 H4348 0.950 . S
C4353 C4355 1.327 . S
C4353 C4359 1.429 . S
C4354 C4346 1.574 . S
C4354 H4349 0.949 . S
C4354 C4360 1.368 . S
C4355 C4339 1.349 . S
C4355 H4347 0.950 . S
C4355 C4353 1.327 . S
C4356 C4344 1.349 . S
C4356 H4350 0.950 . S
C4356 C4357 1.327 . S
C4357 H4351 0.950 . S
C4357 C4356 1.327 . S
C4357 C4361 1.429 . S
C4358 C4341 1.574 . S
C4358 H4352 0.949 . S
C4358 C4362 1.368 . S
C4359 C4340 1.429 . S
C4359 C4353 1.429 . S
C4359 C4360 1.523 . S
C4360 C4341 1.368 . S
C4360 C4354 1.368 . S
C4360 C4359 1.523 . S
C4361 C4345 1.429 . S
C4361 C4357 1.429 . S
C4361 C4362 1.523 . S
C4362 C4346 1.368 . S
C4362 C4358 1.368 . S
C4362 C4361 1.523 . S
H4363 C4338 0.950 . S
H4364 C4340 0.950 . S
H4365 C4341 0.949 . S
H4366 C4343 0.950 . S
H4367 C4345 0.950 . S
C4368 C4369 1.349 . S
C4368 C4370 1.327 . S
C4368 H4393 0.950 . S
C4369 C4368 1.349 . S
C4369 C4385 1.349 . S
C4370 C4368 1.327 . S
C4370 C4389 1.429 . S
C4370 H4394 0.950 . S
C4371 C4388 1.574 . S
C4371 C4390 1.368 . S
C4371 H4395 0.949 . S
H4372 C4376 0.949 . S
C4373 C4374 1.349 . S
C4373 C4375 1.327 . S
C4373 H4396 0.950 . S
C4374 C4373 1.349 . S
C4374 C4386 1.349 . S
C4375 C4373 1.327 . S
C4375 C4391 1.429 . S
C4375 H4397 0.950 . S
C4376 H4372 0.949 . S
C4376 C4384 1.574 . S
C4376 C4392 1.368 . S
H4377 C4385 0.950 . S
H4378 C4383 0.950 . S
H4379 C4384 0.949 . S
H4380 C4386 0.950 . S
H4381 C4387 0.950 . S
H4382 C4388 0.949 . S
C4383 H4378 0.950 . S
C4383 C4385 1.327 . S
C4383 C4389 1.429 . S
C4384 C4376 1.574 . S
C4384 H4379 0.949 . S
C4384 C4390 1.368 . S
C4385 C4369 1.349 . S
C4385 H4377 0.950 . S
C4385 C4383 1.327 . S
C4386 C4374 1.349 . S
C4386 H4380 0.950 . S
C4386 C4387 1.327 . S
C4387 H4381 0.950 . S
C4387 C4386 1.327 . S
C4387 C4391 1.429 . S
C4388 C4371 1.574 . S
C4388 H4382 0.949 . S
C4388 C4392 1.368 . S
C4389 C4370 1.429 . S
C4389 C4383 1.429 . S
C4389 C4390 1.523 . S
C4390 C4371 1.368 . S
C4390 C4384 1.368 . S
C4390 C4389 1.523 . S
C4391 C4375 1.429 . S
C4391 C4387 1.429 . S
C4391 C4392 1.523 . S
C4392 C4376 1.368 . S
C4392 C4388 1.368 . S
C4392 C4391 1.523 . S
H4393 C4368 0.950 . S
H4394 C4370 0.950 . S
H4395 C4371 0.949 . S
H4396 C4373 0.950 . S
H4397 C4375 0.950 . S
C4398 C4399 1.349 . S
C4398 C4400 1.327 . S
C4398 H4423 0.950 . S
C4399 C4398 1.349 . S
C4399 C4415 1.349 . S
C4400 C4398 1.327 . S
C4400 C4419 1.429 . S
C4400 H4424 0.950 . S
C4401 C4418 1.574 . S
C4401 C4420 1.368 . S
C4401 H4425 0.949 . S
H4402 C4406 0.949 . S
C4403 C4404 1.349 . S
C4403 C4405 1.327 . S
C4403 H4426 0.950 . S
C4404 C4403 1.349 . S
C4404 C4416 1.349 . S
C4405 C4403 1.327 . S
C4405 C4421 1.429 . S
C4405 H4427 0.950 . S
C4406 H4402 0.949 . S
C4406 C4414 1.574 . S
C4406 C4422 1.368 . S
H4407 C4415 0.950 . S
H4408 C4413 0.950 . S
H4409 C4414 0.949 . S
H4410 C4416 0.950 . S
H4411 C4417 0.950 . S
H4412 C4418 0.949 . S
C4413 H4408 0.950 . S
C4413 C4415 1.327 . S
C4413 C4419 1.429 . S
C4414 C4406 1.574 . S
C4414 H4409 0.949 . S
C4414 C4420 1.368 . S
C4415 C4399 1.349 . S
C4415 H4407 0.950 . S
C4415 C4413 1.327 . S
C4416 C4404 1.349 . S
C4416 H4410 0.950 . S
C4416 C4417 1.327 . S
C4417 H4411 0.950 . S
C4417 C4416 1.327 . S
C4417 C4421 1.429 . S
C4418 C4401 1.574 . S
C4418 H4412 0.949 . S
C4418 C4422 1.368 . S
C4419 C4400 1.429 . S
C4419 C4413 1.429 . S
C4419 C4420 1.523 . S
C4420 C4401 1.368 . S
C4420 C4414 1.368 . S
C4420 C4419 1.523 . S
C4421 C4405 1.429 . S
C4421 C4417 1.429 . S
C4421 C4422 1.523 . S
C4422 C4406 1.368 . S
C4422 C4418 1.368 . S
C4422 C4421 1.523 . S
H4423 C4398 0.950 . S
H4424 C4400 0.950 . S
H4425 C4401 0.949 . S
H4426 C4403 0.950 . S
H4427 C4405 0.950 . S
C4428 C4429 1.349 . S
C4428 C4430 1.327 . S
C4428 H4453 0.950 . S
C4429 C4428 1.349 . S
C4429 C4445 1.349 . S
C4430 C4428 1.327 . S
C4430 C4449 1.429 . S
C4430 H4454 0.950 . S
C4431 C4448 1.574 . S
C4431 C4450 1.368 . S
C4431 H4455 0.949 . S
H4432 C4436 0.949 . S
C4433 C4434 1.349 . S
C4433 C4435 1.327 . S
C4433 H4456 0.950 . S
C4434 C4433 1.349 . S
C4434 C4446 1.349 . S
C4435 C4433 1.327 . S
C4435 C4451 1.429 . S
C4435 H4457 0.950 . S
C4436 H4432 0.949 . S
C4436 C4444 1.574 . S
C4436 C4452 1.368 . S
H4437 C4445 0.950 . S
H4438 C4443 0.950 . S
H4439 C4444 0.949 . S
H4440 C4446 0.950 . S
H4441 C4447 0.950 . S
H4442 C4448 0.949 . S
C4443 H4438 0.950 . S
C4443 C4445 1.327 . S
C4443 C4449 1.429 . S
C4444 C4436 1.574 . S
C4444 H4439 0.949 . S
C4444 C4450 1.368 . S
C4445 C4429 1.349 . S
C4445 H4437 0.950 . S
C4445 C4443 1.327 . S
C4446 C4434 1.349 . S
C4446 H4440 0.950 . S
C4446 C4447 1.327 . S
C4447 H4441 0.950 . S
C4447 C4446 1.327 . S
C4447 C4451 1.429 . S
C4448 C4431 1.574 . S
C4448 H4442 0.949 . S
C4448 C4452 1.368 . S
C4449 C4430 1.429 . S
C4449 C4443 1.429 . S
C4449 C4450 1.523 . S
C4450 C4431 1.368 . S
C4450 C4444 1.368 . S
C4450 C4449 1.523 . S
C4451 C4435 1.429 . S
C4451 C4447 1.429 . S
C4451 C4452 1.523 . S
C4452 C4436 1.368 . S
C4452 C4448 1.368 . S
C4452 C4451 1.523 . S
H4453 C4428 0.950 . S
H4454 C4430 0.950 . S
H4455 C4431 0.949 . S
H4456 C4433 0.950 . S
H4457 C4435 0.950 . S
C4458 C4459 1.349 . S
C4458 C4460 1.327 . S
C4458 H4483 0.950 . S
C4459 C4458 1.349 . S
C4459 C4475 1.349 . S
C4460 C4458 1.327 . S
C4460 C4479 1.429 . S
C4460 H4484 0.950 . S
C4461 C4478 1.574 . S
C4461 C4480 1.368 . S
C4461 H4485 0.949 . S
H4462 C4466 0.949 . S
C4463 C4464 1.349 . S
C4463 C4465 1.327 . S
C4463 H4486 0.950 . S
C4464 C4463 1.349 . S
C4464 C4476 1.349 . S
C4465 C4463 1.327 . S
C4465 C4481 1.429 . S
C4465 H4487 0.950 . S
C4466 H4462 0.949 . S
C4466 C4474 1.574 . S
C4466 C4482 1.368 . S
H4467 C4475 0.950 . S
H4468 C4473 0.950 . S
H4469 C4474 0.949 . S
H4470 C4476 0.950 . S
H4471 C4477 0.950 . S
H4472 C4478 0.949 . S
C4473 H4468 0.950 . S
C4473 C4475 1.327 . S
C4473 C4479 1.429 . S
C4474 C4466 1.574 . S
C4474 H4469 0.949 . S
C4474 C4480 1.368 . S
C4475 C4459 1.349 . S
C4475 H4467 0.950 . S
C4475 C4473 1.327 . S
C4476 C4464 1.349 . S
C4476 H4470 0.950 . S
C4476 C4477 1.327 . S
C4477 H4471 0.950 . S
C4477 C4476 1.327 . S
C4477 C4481 1.429 . S
C4478 C4461 1.574 . S
C4478 H4472 0.949 . S
C4478 C4482 1.368 . S
C4479 C4460 1.429 . S
C4479 C4473 1.429 . S
C4479 C4480 1.523 . S
C4480 C4461 1.368 . S
C4480 C4474 1.368 . S
C4480 C4479 1.523 . S
C4481 C4465 1.429 . S
C4481 C4477 1.429 . S
C4481 C4482 1.523 . S
C4482 C4466 1.368 . S
C4482 C4478 1.368 . S
C4482 C4481 1.523 . S
H4483 C4458 0.950 . S
H4484 C4460 0.950 . S
H4485 C4461 0.949 . S
H4486 C4463 0.950 . S
H4487 C4465 0.950 . S
C4488 C4489 1.349 . S
C4488 C4490 1.327 . S
C4488 H4513 0.950 . S
C4489 C4488 1.349 . S
C4489 C4505 1.349 . S
C4490 C4488 1.327 . S
C4490 C4509 1.429 . S
C4490 H4514 0.950 . S
C4491 C4508 1.574 . S
C4491 C4510 1.368 . S
C4491 H4515 0.949 . S
H4492 C4496 0.949 . S
C4493 C4494 1.349 . S
C4493 C4495 1.327 . S
C4493 H4516 0.950 . S
C4494 C4493 1.349 . S
C4494 C4506 1.349 . S
C4495 C4493 1.327 . S
C4495 C4511 1.429 . S
C4495 H4517 0.950 . S
C4496 H4492 0.949 . S
C4496 C4504 1.574 . S
C4496 C4512 1.368 . S
H4497 C4505 0.950 . S
H4498 C4503 0.950 . S
H4499 C4504 0.949 . S
H4500 C4506 0.950 . S
H4501 C4507 0.950 . S
H4502 C4508 0.949 . S
C4503 H4498 0.950 . S
C4503 C4505 1.327 . S
C4503 C4509 1.429 . S
C4504 C4496 1.574 . S
C4504 H4499 0.949 . S
C4504 C4510 1.368 . S
C4505 C4489 1.349 . S
C4505 H4497 0.950 . S
C4505 C4503 1.327 . S
C4506 C4494 1.349 . S
C4506 H4500 0.950 . S
C4506 C4507 1.327 . S
C4507 H4501 0.950 . S
C4507 C4506 1.327 . S
C4507 C4511 1.429 . S
C4508 C4491 1.574 . S
C4508 H4502 0.949 . S
C4508 C4512 1.368 . S
C4509 C4490 1.429 . S
C4509 C4503 1.429 . S
C4509 C4510 1.523 . S
C4510 C4491 1.368 . S
C4510 C4504 1.368 . S
C4510 C4509 1.523 . S
C4511 C4495 1.429 . S
C4511 C4507 1.429 . S
C4511 C4512 1.523 . S
C4512 C4496 1.368 . S
C4512 C4508 1.368 . S
C4512 C4511 1.523 . S
H4513 C4488 0.950 . S
H4514 C4490 0.950 . S
H4515 C4491 0.949 . S
H4516 C4493 0.950 . S
H4517 C4495 0.950 . S
C4518 C4519 1.349 . S
C4518 C4520 1.327 . S
C4518 H4543 0.950 . S
C4519 C4518 1.349 . S
C4519 C4535 1.349 . S
C4520 C4518 1.327 . S
C4520 C4539 1.429 . S
C4520 H4544 0.950 . S
C4521 C4538 1.574 . S
C4521 C4540 1.368 . S
C4521 H4545 0.949 . S
H4522 C4526 0.949 . S
C4523 C4524 1.349 . S
C4523 C4525 1.327 . S
C4523 H4546 0.950 . S
C4524 C4523 1.349 . S
C4524 C4536 1.349 . S
C4525 C4523 1.327 . S
C4525 C4541 1.429 . S
C4525 H4547 0.950 . S
C4526 H4522 0.949 . S
C4526 C4534 1.574 . S
C4526 C4542 1.368 . S
H4527 C4535 0.950 . S
H4528 C4533 0.950 . S
H4529 C4534 0.949 . S
H4530 C4536 0.950 . S
H4531 C4537 0.950 . S
H4532 C4538 0.949 . S
C4533 H4528 0.950 . S
C4533 C4535 1.327 . S
C4533 C4539 1.429 . S
C4534 C4526 1.574 . S
C4534 H4529 0.949 . S
C4534 C4540 1.368 . S
C4535 C4519 1.349 . S
C4535 H4527 0.950 . S
C4535 C4533 1.327 . S
C4536 C4524 1.349 . S
C4536 H4530 0.950 . S
C4536 C4537 1.327 . S
C4537 H4531 0.950 . S
C4537 C4536 1.327 . S
C4537 C4541 1.429 . S
C4538 C4521 1.574 . S
C4538 H4532 0.949 . S
C4538 C4542 1.368 . S
C4539 C4520 1.429 . S
C4539 C4533 1.429 . S
C4539 C4540 1.523 . S
C4540 C4521 1.368 . S
C4540 C4534 1.368 . S
C4540 C4539 1.523 . S
C4541 C4525 1.429 . S
C4541 C4537 1.429 . S
C4541 C4542 1.523 . S
C4542 C4526 1.368 . S
C4542 C4538 1.368 . S
C4542 C4541 1.523 . S
H4543 C4518 0.950 . S
H4544 C4520 0.950 . S
H4545 C4521 0.949 . S
H4546 C4523 0.950 . S
H4547 C4525 0.950 . S
C4548 C4549 1.349 . S
C4548 C4550 1.327 . S
C4548 H4573 0.950 . S
C4549 C4548 1.349 . S
C4549 C4565 1.349 . S
C4550 C4548 1.327 . S
C4550 C4569 1.429 . S
C4550 H4574 0.950 . S
C4551 C4568 1.574 . S
C4551 C4570 1.368 . S
C4551 H4575 0.949 . S
H4552 C4556 0.949 . S
C4553 C4554 1.349 . S
C4553 C4555 1.327 . S
C4553 H4576 0.950 . S
C4554 C4553 1.349 . S
C4554 C4566 1.349 . S
C4555 C4553 1.327 . S
C4555 C4571 1.429 . S
C4555 H4577 0.950 . S
C4556 H4552 0.949 . S
C4556 C4564 1.574 . S
C4556 C4572 1.368 . S
H4557 C4565 0.950 . S
H4558 C4563 0.950 . S
H4559 C4564 0.949 . S
H4560 C4566 0.950 . S
H4561 C4567 0.950 . S
H4562 C4568 0.949 . S
C4563 H4558 0.950 . S
C4563 C4565 1.327 . S
C4563 C4569 1.429 . S
C4564 C4556 1.574 . S
C4564 H4559 0.949 . S
C4564 C4570 1.368 . S
C4565 C4549 1.349 . S
C4565 H4557 0.950 . S
C4565 C4563 1.327 . S
C4566 C4554 1.349 . S
C4566 H4560 0.950 . S
C4566 C4567 1.327 . S
C4567 H4561 0.950 . S
C4567 C4566 1.327 . S
C4567 C4571 1.429 . S
C4568 C4551 1.574 . S
C4568 H4562 0.949 . S
C4568 C4572 1.368 . S
C4569 C4550 1.429 . S
C4569 C4563 1.429 . S
C4569 C4570 1.523 . S
C4570 C4551 1.368 . S
C4570 C4564 1.368 . S
C4570 C4569 1.523 . S
C4571 C4555 1.429 . S
C4571 C4567 1.429 . S
C4571 C4572 1.523 . S
C4572 C4556 1.368 . S
C4572 C4568 1.368 . S
C4572 C4571 1.523 . S
H4573 C4548 0.950 . S
H4574 C4550 0.950 . S
H4575 C4551 0.949 . S
H4576 C4553 0.950 . S
H4577 C4555 0.950 . S
C4578 C4579 1.349 . S
C4578 C4580 1.327 . S
C4578 H4603 0.950 . S
C4579 C4578 1.349 . S
C4579 C4595 1.349 . S
C4580 C4578 1.327 . S
C4580 C4599 1.429 . S
C4580 H4604 0.950 . S
C4581 C4598 1.574 . S
C4581 C4600 1.368 . S
C4581 H4605 0.949 . S
H4582 C4586 0.949 . S
C4583 C4584 1.349 . S
C4583 C4585 1.327 . S
C4583 H4606 0.950 . S
C4584 C4583 1.349 . S
C4584 C4596 1.349 . S
C4585 C4583 1.327 . S
C4585 C4601 1.429 . S
C4585 H4607 0.950 . S
C4586 H4582 0.949 . S
C4586 C4594 1.574 . S
C4586 C4602 1.368 . S
H4587 C4595 0.950 . S
H4588 C4593 0.950 . S
H4589 C4594 0.949 . S
H4590 C4596 0.950 . S
H4591 C4597 0.950 . S
H4592 C4598 0.949 . S
C4593 H4588 0.950 . S
C4593 C4595 1.327 . S
C4593 C4599 1.429 . S
C4594 C4586 1.574 . S
C4594 H4589 0.949 . S
C4594 C4600 1.368 . S
C4595 C4579 1.349 . S
C4595 H4587 0.950 . S
C4595 C4593 1.327 . S
C4596 C4584 1.349 . S
C4596 H4590 0.950 . S
C4596 C4597 1.327 . S
C4597 H4591 0.950 . S
C4597 C4596 1.327 . S
C4597 C4601 1.429 . S
C4598 C4581 1.574 . S
C4598 H4592 0.949 . S
C4598 C4602 1.368 . S
C4599 C4580 1.429 . S
C4599 C4593 1.429 . S
C4599 C4600 1.523 . S
C4600 C4581 1.368 . S
C4600 C4594 1.368 . S
C4600 C4599 1.523 . S
C4601 C4585 1.429 . S
C4601 C4597 1.429 . S
C4601 C4602 1.523 . S
C4602 C4586 1.368 . S
C4602 C4598 1.368 . S
C4602 C4601 1.523 . S
H4603 C4578 0.950 . S
H4604 C4580 0.950 . S
H4605 C4581 0.949 . S
H4606 C4583 0.950 . S
H4607 C4585 0.950 . S
C4608 C4609 1.349 . S
C4608 C4610 1.327 . S
C4608 H4633 0.950 . S
C4609 C4608 1.349 . S
C4609 C4625 1.349 . S
C4610 C4608 1.327 . S
C4610 C4629 1.429 . S
C4610 H4634 0.950 . S
C4611 C4628 1.574 . S
C4611 C4630 1.368 . S
C4611 H4635 0.949 . S
H4612 C4616 0.949 . S
C4613 C4614 1.349 . S
C4613 C4615 1.327 . S
C4613 H4636 0.950 . S
C4614 C4613 1.349 . S
C4614 C4626 1.349 . S
C4615 C4613 1.327 . S
C4615 C4631 1.429 . S
C4615 H4637 0.950 . S
C4616 H4612 0.949 . S
C4616 C4624 1.574 . S
C4616 C4632 1.368 . S
H4617 C4625 0.950 . S
H4618 C4623 0.950 . S
H4619 C4624 0.949 . S
H4620 C4626 0.950 . S
H4621 C4627 0.950 . S
H4622 C4628 0.949 . S
C4623 H4618 0.950 . S
C4623 C4625 1.327 . S
C4623 C4629 1.429 . S
C4624 C4616 1.574 . S
C4624 H4619 0.949 . S
C4624 C4630 1.368 . S
C4625 C4609 1.349 . S
C4625 H4617 0.950 . S
C4625 C4623 1.327 . S
C4626 C4614 1.349 . S
C4626 H4620 0.950 . S
C4626 C4627 1.327 . S
C4627 H4621 0.950 . S
C4627 C4626 1.327 . S
C4627 C4631 1.429 . S
C4628 C4611 1.574 . S
C4628 H4622 0.949 . S
C4628 C4632 1.368 . S
C4629 C4610 1.429 . S
C4629 C4623 1.429 . S
C4629 C4630 1.523 . S
C4630 C4611 1.368 . S
C4630 C4624 1.368 . S
C4630 C4629 1.523 . S
C4631 C4615 1.429 . S
C4631 C4627 1.429 . S
C4631 C4632 1.523 . S
C4632 C4616 1.368 . S
C4632 C4628 1.368 . S
C4632 C4631 1.523 . S
H4633 C4608 0.950 . S
H4634 C4610 0.950 . S
H4635 C4611 0.949 . S
H4636 C4613 0.950 . S
H4637 C4615 0.950 . S
C4638 C4639 1.349 . S
C4638 C4640 1.327 . S
C4638 H4663 0.950 . S
C4639 C4638 1.349 . S
C4639 C4655 1.349 . S
C4640 C4638 1.327 . S
C4640 C4659 1.429 . S
C4640 H4664 0.950 . S
C4641 C4658 1.574 . S
C4641 C4660 1.368 . S
C4641 H4665 0.949 . S
H4642 C4646 0.949 . S
C4643 C4644 1.349 . S
C4643 C4645 1.327 . S
C4643 H4666 0.950 . S
C4644 C4643 1.349 . S
C4644 C4656 1.349 . S
C4645 C4643 1.327 . S
C4645 C4661 1.429 . S
C4645 H4667 0.950 . S
C4646 H4642 0.949 . S
C4646 C4654 1.574 . S
C4646 C4662 1.368 . S
H4647 C4655 0.950 . S
H4648 C4653 0.950 . S
H4649 C4654 0.949 . S
H4650 C4656 0.950 . S
H4651 C4657 0.950 . S
H4652 C4658 0.949 . S
C4653 H4648 0.950 . S
C4653 C4655 1.327 . S
C4653 C4659 1.429 . S
C4654 C4646 1.574 . S
C4654 H4649 0.949 . S
C4654 C4660 1.368 . S
C4655 C4639 1.349 . S
C4655 H4647 0.950 . S
C4655 C4653 1.327 . S
C4656 C4644 1.349 . S
C4656 H4650 0.950 . S
C4656 C4657 1.327 . S
C4657 H4651 0.950 . S
C4657 C4656 1.327 . S
C4657 C4661 1.429 . S
C4658 C4641 1.574 . S
C4658 H4652 0.949 . S
C4658 C4662 1.368 . S
C4659 C4640 1.429 . S
C4659 C4653 1.429 . S
C4659 C4660 1.523 . S
C4660 C4641 1.368 . S
C4660 C4654 1.368 . S
C4660 C4659 1.523 . S
C4661 C4645 1.429 . S
C4661 C4657 1.429 . S
C4661 C4662 1.523 . S
C4662 C4646 1.368 . S
C4662 C4658 1.368 . S
C4662 C4661 1.523 . S
H4663 C4638 0.950 . S
H4664 C4640 0.950 . S
H4665 C4641 0.949 . S
H4666 C4643 0.950 . S
H4667 C4645 0.950 . S
C4668 C4669 1.349 . S
C4668 C4670 1.327 . S
C4668 H4693 0.950 . S
C4669 C4668 1.349 . S
C4669 C4685 1.349 . S
C4670 C4668 1.327 . S
C4670 C4689 1.429 . S
C4670 H4694 0.950 . S
C4671 C4688 1.574 . S
C4671 C4690 1.368 . S
C4671 H4695 0.949 . S
H4672 C4676 0.949 1_455 S
C4673 C4674 1.349 . S
C4673 C4675 1.327 . S
C4673 H4696 0.950 . S
C4674 C4673 1.349 . S
C4674 C4686 1.349 . S
C4675 C4673 1.327 . S
C4675 C4691 1.429 . S
C4675 H4697 0.952 1_455 S
C4676 H4672 0.949 1_655 S
C4676 C4684 1.574 . S
C4676 C4692 1.368 . S
H4677 C4685 0.950 . S
H4678 C4683 0.950 . S
H4679 C4684 0.949 . S
H4680 C4686 0.950 . S
H4681 C4687 0.950 . S
H4682 C4688 0.949 . S
C4683 H4678 0.950 . S
C4683 C4685 1.327 . S
C4683 C4689 1.429 . S
C4684 C4676 1.574 . S
C4684 H4679 0.949 . S
C4684 C4690 1.368 . S
C4685 C4669 1.349 . S
C4685 H4677 0.950 . S
C4685 C4683 1.327 . S
C4686 C4674 1.349 . S
C4686 H4680 0.950 . S
C4686 C4687 1.327 . S
C4687 H4681 0.950 . S
C4687 C4686 1.327 . S
C4687 C4691 1.429 . S
C4688 C4671 1.574 . S
C4688 H4682 0.949 . S
C4688 C4692 1.368 . S
C4689 C4670 1.429 . S
C4689 C4683 1.429 . S
C4689 C4690 1.523 . S
C4690 C4671 1.368 . S
C4690 C4684 1.368 . S
C4690 C4689 1.523 . S
C4691 C4675 1.429 . S
C4691 C4687 1.429 . S
C4691 C4692 1.523 1_455 S
C4692 C4676 1.368 . S
C4692 C4688 1.368 . S
C4692 C4691 1.523 1_655 S
H4693 C4668 0.950 . S
H4694 C4670 0.950 . S
H4695 C4671 0.949 . S
H4696 C4673 0.950 . S
H4697 C4675 0.952 1_655 S
C4698 C4699 1.349 . S
C4698 C4700 1.327 . S
C4698 H4723 0.950 . S
C4699 C4698 1.349 . S
C4699 C4715 1.349 . S
C4700 C4698 1.327 . S
C4700 C4719 1.429 . S
C4700 H4724 0.950 . S
C4701 C4718 1.574 . S
C4701 C4720 1.368 . S
C4701 H4725 0.949 . S
H4702 C4706 0.949 . S
C4703 C4704 1.349 . S
C4703 C4705 1.327 . S
C4703 H4726 0.950 . S
C4704 C4703 1.349 . S
C4704 C4716 1.349 . S
C4705 C4703 1.327 . S
C4705 C4721 1.429 . S
C4705 H4727 0.950 . S
C4706 H4702 0.949 . S
C4706 C4714 1.574 . S
C4706 C4722 1.368 . S
H4707 C4715 0.950 . S
H4708 C4713 0.950 . S
H4709 C4714 0.949 . S
H4710 C4716 0.950 . S
H4711 C4717 0.950 . S
H4712 C4718 0.949 . S
C4713 H4708 0.950 . S
C4713 C4715 1.327 . S
C4713 C4719 1.429 . S
C4714 C4706 1.574 . S
C4714 H4709 0.949 . S
C4714 C4720 1.368 . S
C4715 C4699 1.349 . S
C4715 H4707 0.950 . S
C4715 C4713 1.327 . S
C4716 C4704 1.349 . S
C4716 H4710 0.950 . S
C4716 C4717 1.327 . S
C4717 H4711 0.950 . S
C4717 C4716 1.327 . S
C4717 C4721 1.429 . S
C4718 C4701 1.574 . S
C4718 H4712 0.949 . S
C4718 C4722 1.368 . S
C4719 C4700 1.429 . S
C4719 C4713 1.429 . S
C4719 C4720 1.523 . S
C4720 C4701 1.368 . S
C4720 C4714 1.368 . S
C4720 C4719 1.523 . S
C4721 C4705 1.429 . S
C4721 C4717 1.429 . S
C4721 C4722 1.523 . S
C4722 C4706 1.368 . S
C4722 C4718 1.368 . S
C4722 C4721 1.523 . S
H4723 C4698 0.950 . S
H4724 C4700 0.950 . S
H4725 C4701 0.949 . S
H4726 C4703 0.950 . S
H4727 C4705 0.950 . S
C4728 C4729 1.349 . S
C4728 C4730 1.327 . S
C4728 H4753 0.950 . S
C4729 C4728 1.349 . S
C4729 C4745 1.349 . S
C4730 C4728 1.327 . S
C4730 C4749 1.429 . S
C4730 H4754 0.950 . S
C4731 C4748 1.574 . S
C4731 C4750 1.368 . S
C4731 H4755 0.949 . S
H4732 C4736 0.949 . S
C4733 C4734 1.349 . S
C4733 C4735 1.327 . S
C4733 H4756 0.950 . S
C4734 C4733 1.349 . S
C4734 C4746 1.349 . S
C4735 C4733 1.327 . S
C4735 C4751 1.429 . S
C4735 H4757 0.950 . S
C4736 H4732 0.949 . S
C4736 C4744 1.574 . S
C4736 C4752 1.368 . S
H4737 C4745 0.950 . S
H4738 C4743 0.950 . S
H4739 C4744 0.949 . S
H4740 C4746 0.950 . S
H4741 C4747 0.950 . S
H4742 C4748 0.949 . S
C4743 H4738 0.950 . S
C4743 C4745 1.327 . S
C4743 C4749 1.429 . S
C4744 C4736 1.574 . S
C4744 H4739 0.949 . S
C4744 C4750 1.368 . S
C4745 C4729 1.349 . S
C4745 H4737 0.950 . S
C4745 C4743 1.327 . S
C4746 C4734 1.349 . S
C4746 H4740 0.950 . S
C4746 C4747 1.327 . S
C4747 H4741 0.950 . S
C4747 C4746 1.327 . S
C4747 C4751 1.429 . S
C4748 C4731 1.574 . S
C4748 H4742 0.949 . S
C4748 C4752 1.368 . S
C4749 C4730 1.429 . S
C4749 C4743 1.429 . S
C4749 C4750 1.523 . S
C4750 C4731 1.368 . S
C4750 C4744 1.368 . S
C4750 C4749 1.523 . S
C4751 C4735 1.429 . S
C4751 C4747 1.429 . S
C4751 C4752 1.523 . S
C4752 C4736 1.368 . S
C4752 C4748 1.368 . S
C4752 C4751 1.523 . S
H4753 C4728 0.950 . S
H4754 C4730 0.950 . S
H4755 C4731 0.949 . S
H4756 C4733 0.950 . S
H4757 C4735 0.950 . S
C4758 C4759 1.349 . S
C4758 C4760 1.327 . S
C4758 H4783 0.950 . S
C4759 C4758 1.349 . S
C4759 C4775 1.349 . S
C4760 C4758 1.327 . S
C4760 C4779 1.429 . S
C4760 H4784 0.950 . S
C4761 C4778 1.574 . S
C4761 C4780 1.368 . S
C4761 H4785 0.949 . S
H4762 C4766 0.949 . S
C4763 C4764 1.349 . S
C4763 C4765 1.327 . S
C4763 H4786 0.950 . S
C4764 C4763 1.349 . S
C4764 C4776 1.349 . S
C4765 C4763 1.327 . S
C4765 C4781 1.429 . S
C4765 H4787 0.950 . S
C4766 H4762 0.949 . S
C4766 C4774 1.574 . S
C4766 C4782 1.368 . S
H4767 C4775 0.950 . S
H4768 C4773 0.950 . S
H4769 C4774 0.949 . S
H4770 C4776 0.950 . S
H4771 C4777 0.950 . S
H4772 C4778 0.949 . S
C4773 H4768 0.950 . S
C4773 C4775 1.327 . S
C4773 C4779 1.429 . S
C4774 C4766 1.574 . S
C4774 H4769 0.949 . S
C4774 C4780 1.368 . S
C4775 C4759 1.349 . S
C4775 H4767 0.950 . S
C4775 C4773 1.327 . S
C4776 C4764 1.349 . S
C4776 H4770 0.950 . S
C4776 C4777 1.327 . S
C4777 H4771 0.950 . S
C4777 C4776 1.327 . S
C4777 C4781 1.429 . S
C4778 C4761 1.574 . S
C4778 H4772 0.949 . S
C4778 C4782 1.368 . S
C4779 C4760 1.429 . S
C4779 C4773 1.429 . S
C4779 C4780 1.523 . S
C4780 C4761 1.368 . S
C4780 C4774 1.368 . S
C4780 C4779 1.523 . S
C4781 C4765 1.429 . S
C4781 C4777 1.429 . S
C4781 C4782 1.523 . S
C4782 C4766 1.368 . S
C4782 C4778 1.368 . S
C4782 C4781 1.523 . S
H4783 C4758 0.950 . S
H4784 C4760 0.950 . S
H4785 C4761 0.949 . S
H4786 C4763 0.950 . S
H4787 C4765 0.950 . S
C4788 C4789 1.349 . S
C4788 C4790 1.327 . S
C4788 H4813 0.950 . S
C4789 C4788 1.349 . S
C4789 C4805 1.349 . S
C4790 C4788 1.327 . S
C4790 C4809 1.429 . S
C4790 H4814 0.950 . S
C4791 C4808 1.574 . S
C4791 C4810 1.368 . S
C4791 H4815 0.949 . S
H4792 C4796 0.949 . S
C4793 C4794 1.349 1_655 S
C4793 C4795 1.327 . S
C4793 H4816 0.950 . S
C4794 C4793 1.349 1_455 S
C4794 C4806 1.349 . S
C4795 C4793 1.327 . S
C4795 C4811 1.429 . S
C4795 H4817 0.950 . S
C4796 H4792 0.949 . S
C4796 C4804 1.574 . S
C4796 C4812 1.368 . S
H4797 C4805 0.950 . S
H4798 C4803 0.950 . S
H4799 C4804 0.949 . S
H4800 C4806 0.950 . S
H4801 C4807 0.950 . S
H4802 C4808 0.949 . S
C4803 H4798 0.950 . S
C4803 C4805 1.327 . S
C4803 C4809 1.429 . S
C4804 C4796 1.574 . S
C4804 H4799 0.949 . S
C4804 C4810 1.368 . S
C4805 C4789 1.349 . S
C4805 H4797 0.950 . S
C4805 C4803 1.327 . S
C4806 C4794 1.349 . S
C4806 H4800 0.950 . S
C4806 C4807 1.327 . S
C4807 H4801 0.950 . S
C4807 C4806 1.327 . S
C4807 C4811 1.429 1_455 S
C4808 C4791 1.574 . S
C4808 H4802 0.949 . S
C4808 C4812 1.368 . S
C4809 C4790 1.429 . S
C4809 C4803 1.429 . S
C4809 C4810 1.523 . S
C4810 C4791 1.368 . S
C4810 C4804 1.368 . S
C4810 C4809 1.523 . S
C4811 C4795 1.429 . S
C4811 C4807 1.429 1_655 S
C4811 C4812 1.523 . S
C4812 C4796 1.368 . S
C4812 C4808 1.368 . S
C4812 C4811 1.523 . S
H4813 C4788 0.950 . S
H4814 C4790 0.950 . S
H4815 C4791 0.949 . S
H4816 C4793 0.950 . S
H4817 C4795 0.950 . S
C4818 C4819 1.349 . S
C4818 C4820 1.327 . S
C4818 H4843 0.950 . S
C4819 C4818 1.349 . S
C4819 C4835 1.349 . S
C4820 C4818 1.327 . S
C4820 C4839 1.429 . S
C4820 H4844 0.950 . S
C4821 C4838 1.574 . S
C4821 C4840 1.368 . S
C4821 H4845 0.949 . S
H4822 C4826 0.949 . S
C4823 C4824 1.349 . S
C4823 C4825 1.327 . S
C4823 H4846 0.950 . S
C4824 C4823 1.349 . S
C4824 C4836 1.349 . S
C4825 C4823 1.327 . S
C4825 C4841 1.429 . S
C4825 H4847 0.950 . S
C4826 H4822 0.949 . S
C4826 C4834 1.574 . S
C4826 C4842 1.368 . S
H4827 C4835 0.950 . S
H4828 C4833 0.950 . S
H4829 C4834 0.949 . S
H4830 C4836 0.950 . S
H4831 C4837 0.950 . S
H4832 C4838 0.949 . S
C4833 H4828 0.950 . S
C4833 C4835 1.327 . S
C4833 C4839 1.429 . S
C4834 C4826 1.574 . S
C4834 H4829 0.949 . S
C4834 C4840 1.368 . S
C4835 C4819 1.349 . S
C4835 H4827 0.950 . S
C4835 C4833 1.327 . S
C4836 C4824 1.349 . S
C4836 H4830 0.950 . S
C4836 C4837 1.327 . S
C4837 H4831 0.950 . S
C4837 C4836 1.327 . S
C4837 C4841 1.429 . S
C4838 C4821 1.574 . S
C4838 H4832 0.949 . S
C4838 C4842 1.368 . S
C4839 C4820 1.429 . S
C4839 C4833 1.429 . S
C4839 C4840 1.523 . S
C4840 C4821 1.368 . S
C4840 C4834 1.368 . S
C4840 C4839 1.523 . S
C4841 C4825 1.429 . S
C4841 C4837 1.429 . S
C4841 C4842 1.523 . S
C4842 C4826 1.368 . S
C4842 C4838 1.368 . S
C4842 C4841 1.523 . S
H4843 C4818 0.950 . S
H4844 C4820 0.950 . S
H4845 C4821 0.949 . S
H4846 C4823 0.950 . S
H4847 C4825 0.950 . S
C4848 C4849 1.349 . S
C4848 C4850 1.327 . S
C4848 H4873 0.950 . S
C4849 C4848 1.349 . S
C4849 C4865 1.349 . S
C4850 C4848 1.327 . S
C4850 C4869 1.429 . S
C4850 H4874 0.950 . S
C4851 C4868 1.574 . S
C4851 C4870 1.368 . S
C4851 H4875 0.949 . S
H4852 C4856 0.949 . S
C4853 C4854 1.349 . S
C4853 C4855 1.327 . S
C4853 H4876 0.950 . S
C4854 C4853 1.349 . S
C4854 C4866 1.349 . S
C4855 C4853 1.327 . S
C4855 C4871 1.429 . S
C4855 H4877 0.950 . S
C4856 H4852 0.949 . S
C4856 C4864 1.574 . S
C4856 C4872 1.368 . S
H4857 C4865 0.950 . S
H4858 C4863 0.950 . S
H4859 C4864 0.949 . S
H4860 C4866 0.950 . S
H4861 C4867 0.950 . S
H4862 C4868 0.949 . S
C4863 H4858 0.950 . S
C4863 C4865 1.327 . S
C4863 C4869 1.429 . S
C4864 C4856 1.574 . S
C4864 H4859 0.949 . S
C4864 C4870 1.368 . S
C4865 C4849 1.349 . S
C4865 H4857 0.950 . S
C4865 C4863 1.327 . S
C4866 C4854 1.349 . S
C4866 H4860 0.950 . S
C4866 C4867 1.327 . S
C4867 H4861 0.950 . S
C4867 C4866 1.327 . S
C4867 C4871 1.429 . S
C4868 C4851 1.574 . S
C4868 H4862 0.949 . S
C4868 C4872 1.368 . S
C4869 C4850 1.429 . S
C4869 C4863 1.429 . S
C4869 C4870 1.523 . S
C4870 C4851 1.368 . S
C4870 C4864 1.368 . S
C4870 C4869 1.523 . S
C4871 C4855 1.429 . S
C4871 C4867 1.429 . S
C4871 C4872 1.523 . S
C4872 C4856 1.368 . S
C4872 C4868 1.368 . S
C4872 C4871 1.523 . S
H4873 C4848 0.950 . S
H4874 C4850 0.950 . S
H4875 C4851 0.949 . S
H4876 C4853 0.950 . S
H4877 C4855 0.950 . S
C4878 C4879 1.349 . S
C4878 C4880 1.327 . S
C4878 H4903 0.950 . S
C4879 C4878 1.349 . S
C4879 C4895 1.349 . S
C4880 C4878 1.327 . S
C4880 C4899 1.429 . S
C4880 H4904 0.950 . S
C4881 C4898 1.574 . S
C4881 C4900 1.368 . S
C4881 H4905 0.949 . S
H4882 C4886 0.949 . S
C4883 C4884 1.349 1_565 S
C4883 C4885 1.327 . S
C4883 H4906 0.950 . S
C4884 C4883 1.349 1_545 S
C4884 C4896 1.349 . S
C4885 C4883 1.327 . S
C4885 C4901 1.429 . S
C4885 H4907 0.950 . S
C4886 H4882 0.949 . S
C4886 C4894 1.574 . S
C4886 C4902 1.368 . S
H4887 C4895 0.950 . S
H4888 C4893 0.950 . S
H4889 C4894 0.949 . S
H4890 C4896 0.950 . S
H4891 C4897 0.950 . S
H4892 C4898 0.949 . S
C4893 H4888 0.950 . S
C4893 C4895 1.327 . S
C4893 C4899 1.429 . S
C4894 C4886 1.574 . S
C4894 H4889 0.949 . S
C4894 C4900 1.368 . S
C4895 C4879 1.349 . S
C4895 H4887 0.950 . S
C4895 C4893 1.327 . S
C4896 C4884 1.349 . S
C4896 H4890 0.950 . S
C4896 C4897 1.327 1_545 S
C4897 H4891 0.950 . S
C4897 C4896 1.327 1_565 S
C4897 C4901 1.429 . S
C4898 C4881 1.574 . S
C4898 H4892 0.949 . S
C4898 C4902 1.368 . S
C4899 C4880 1.429 . S
C4899 C4893 1.429 . S
C4899 C4900 1.523 . S
C4900 C4881 1.368 . S
C4900 C4894 1.368 . S
C4900 C4899 1.523 . S
C4901 C4885 1.429 . S
C4901 C4897 1.429 . S
C4901 C4902 1.523 . S
C4902 C4886 1.368 . S
C4902 C4898 1.368 . S
C4902 C4901 1.523 . S
H4903 C4878 0.950 . S
H4904 C4880 0.950 . S
H4905 C4881 0.949 . S
H4906 C4883 0.950 . S
H4907 C4885 0.950 . S
C4908 C4909 1.349 . S
C4908 C4910 1.327 . S
C4908 H4933 0.950 . S
C4909 C4908 1.349 . S
C4909 C4925 1.349 . S
C4910 C4908 1.327 . S
C4910 C4929 1.429 . S
C4910 H4934 0.950 . S
C4911 C4928 1.574 . S
C4911 C4930 1.368 . S
C4911 H4935 0.949 . S
H4912 C4916 0.949 . S
C4913 C4914 1.349 . S
C4913 C4915 1.327 . S
C4913 H4936 0.950 . S
C4914 C4913 1.349 . S
C4914 C4926 1.349 . S
C4915 C4913 1.327 . S
C4915 C4931 1.429 . S
C4915 H4937 0.950 . S
C4916 H4912 0.949 . S
C4916 C4924 1.574 . S
C4916 C4932 1.368 . S
H4917 C4925 0.950 . S
H4918 C4923 0.950 . S
H4919 C4924 0.949 . S
H4920 C4926 0.950 . S
H4921 C4927 0.950 . S
H4922 C4928 0.949 . S
C4923 H4918 0.950 . S
C4923 C4925 1.327 . S
C4923 C4929 1.429 . S
C4924 C4916 1.574 . S
C4924 H4919 0.949 . S
C4924 C4930 1.368 . S
C4925 C4909 1.349 . S
C4925 H4917 0.950 . S
C4925 C4923 1.327 . S
C4926 C4914 1.349 . S
C4926 H4920 0.950 . S
C4926 C4927 1.327 . S
C4927 H4921 0.950 . S
C4927 C4926 1.327 . S
C4927 C4931 1.429 . S
C4928 C4911 1.574 . S
C4928 H4922 0.949 . S
C4928 C4932 1.368 . S
C4929 C4910 1.429 . S
C4929 C4923 1.429 . S
C4929 C4930 1.523 . S
C4930 C4911 1.368 . S
C4930 C4924 1.368 . S
C4930 C4929 1.523 . S
C4931 C4915 1.429 . S
C4931 C4927 1.429 . S
C4931 C4932 1.523 . S
C4932 C4916 1.368 . S
C4932 C4928 1.368 . S
C4932 C4931 1.523 . S
H4933 C4908 0.950 . S
H4934 C4910 0.950 . S
H4935 C4911 0.949 . S
H4936 C4913 0.950 . S
H4937 C4915 0.950 . S
C4938 C4939 1.349 . S
C4938 C4940 1.327 . S
C4938 H4963 0.950 . S
C4939 C4938 1.349 . S
C4939 C4955 1.349 . S
C4940 C4938 1.327 . S
C4940 C4959 1.429 . S
C4940 H4964 0.950 . S
C4941 C4958 1.574 . S
C4941 C4960 1.368 . S
C4941 H4965 0.949 1_554 S
H4942 C4946 0.949 . S
C4943 C4944 1.349 . S
C4943 C4945 1.327 . S
C4943 H4966 0.950 1_554 S
C4944 C4943 1.349 . S
C4944 C4956 1.349 . S
C4945 C4943 1.327 . S
C4945 C4961 1.429 . S
C4945 H4967 0.950 1_554 S
C4946 H4942 0.949 . S
C4946 C4954 1.574 . S
C4946 C4962 1.368 . S
H4947 C4955 0.950 1_556 S
H4948 C4953 0.950 1_556 S
H4949 C4954 0.949 . S
H4950 C4956 0.950 . S
H4951 C4957 0.950 . S
H4952 C4958 0.949 1_556 S
C4953 H4948 0.950 1_554 S
C4953 C4955 1.327 . S
C4953 C4959 1.429 . S
C4954 C4946 1.574 . S
C4954 H4949 0.949 . S
C4954 C4960 1.368 . S
C4955 C4939 1.349 . S
C4955 H4947 0.950 1_554 S
C4955 C4953 1.327 . S
C4956 C4944 1.349 . S
C4956 H4950 0.950 . S
C4956 C4957 1.327 . S
C4957 H4951 0.950 . S
C4957 C4956 1.327 . S
C4957 C4961 1.429 . S
C4958 C4941 1.574 . S
C4958 H4952 0.949 1_554 S
C4958 C4962 1.368 . S
C4959 C4940 1.429 . S
C4959 C4953 1.429 . S
C4959 C4960 1.523 . S
C4960 C4941 1.368 . S
C4960 C4954 1.368 . S
C4960 C4959 1.523 . S
C4961 C4945 1.429 . S
C4961 C4957 1.429 . S
C4961 C4962 1.523 . S
C4962 C4946 1.368 . S
C4962 C4958 1.368 . S
C4962 C4961 1.523 . S
H4963 C4938 0.950 . S
H4964 C4940 0.950 . S
H4965 C4941 0.949 1_556 S
H4966 C4943 0.950 1_556 S
H4967 C4945 0.950 1_556 S
C4968 C4969 1.349 . S
C4968 C4970 1.327 . S
C4968 H4993 0.950 . S
C4969 C4968 1.349 . S
C4969 C4985 1.349 . S
C4970 C4968 1.327 . S
C4970 C4989 1.429 . S
C4970 H4994 0.950 . S
C4971 C4988 1.574 . S
C4971 C4990 1.368 . S
C4971 H4995 0.949 . S
H4972 C4976 0.949 . S
C4973 C4974 1.349 . S
C4973 C4975 1.327 . S
C4973 H4996 0.950 . S
C4974 C4973 1.349 . S
C4974 C4986 1.349 . S
C4975 C4973 1.327 . S
C4975 C4991 1.429 . S
C4975 H4997 0.950 . S
C4976 H4972 0.949 . S
C4976 C4984 1.574 . S
C4976 C4992 1.368 . S
H4977 C4985 0.950 . S
H4978 C4983 0.950 . S
H4979 C4984 0.949 . S
H4980 C4986 0.950 . S
H4981 C4987 0.950 . S
H4982 C4988 0.949 . S
C4983 H4978 0.950 . S
C4983 C4985 1.327 . S
C4983 C4989 1.429 . S
C4984 C4976 1.574 . S
C4984 H4979 0.949 . S
C4984 C4990 1.368 . S
C4985 C4969 1.349 . S
C4985 H4977 0.950 . S
C4985 C4983 1.327 . S
C4986 C4974 1.349 . S
C4986 H4980 0.950 . S
C4986 C4987 1.327 . S
C4987 H4981 0.950 . S
C4987 C4986 1.327 . S
C4987 C4991 1.429 . S
C4988 C4971 1.574 . S
C4988 H4982 0.949 . S
C4988 C4992 1.368 . S
C4989 C4970 1.429 . S
C4989 C4983 1.429 . S
C4989 C4990 1.523 . S
C4990 C4971 1.368 . S
C4990 C4984 1.368 . S
C4990 C4989 1.523 . S
C4991 C4975 1.429 . S
C4991 C4987 1.429 . S
C4991 C4992 1.523 . S
C4992 C4976 1.368 . S
C4992 C4988 1.368 . S
C4992 C4991 1.523 . S
H4993 C4968 0.950 . S
H4994 C4970 0.950 . S
H4995 C4971 0.949 . S
H4996 C4973 0.950 . S
H4997 C4975 0.950 . S
C4998 C4999 1.349 . S
C4998 C5000 1.327 . S
C4998 H5023 0.950 . S
C4999 C4998 1.349 . S
C4999 C5015 1.349 . S
C5000 C4998 1.327 . S
C5000 C5019 1.429 . S
C5000 H5024 0.950 . S
C5001 C5018 1.574 . S
C5001 C5020 1.368 . S
C5001 H5025 0.949 1_554 S
H5002 C5006 0.949 . S
C5003 C5004 1.349 1_556 S
C5003 C5005 1.327 . S
C5003 H5026 0.950 . S
C5004 C5003 1.349 1_554 S
C5004 C5016 1.349 . S
C5005 C5003 1.327 . S
C5005 C5021 1.429 1_556 S
C5005 H5027 0.950 . S
C5006 H5002 0.949 . S
C5006 C5014 1.574 . S
C5006 C5022 1.368 . S
H5007 C5015 0.950 . S
H5008 C5013 0.950 . S
H5009 C5014 0.949 . S
H5010 C5016 0.950 . S
H5011 C5017 0.950 . S
H5012 C5018 0.949 1_556 S
C5013 H5008 0.950 . S
C5013 C5015 1.327 . S
C5013 C5019 1.429 . S
C5014 C5006 1.574 . S
C5014 H5009 0.949 . S
C5014 C5020 1.368 . S
C5015 C4999 1.349 . S
C5015 H5007 0.950 . S
C5015 C5013 1.327 . S
C5016 C5004 1.349 . S
C5016 H5010 0.950 . S
C5016 C5017 1.327 . S
C5017 H5011 0.950 . S
C5017 C5016 1.327 . S
C5017 C5021 1.429 . S
C5018 C5001 1.574 . S
C5018 H5012 0.949 1_554 S
C5018 C5022 1.368 . S
C5019 C5000 1.429 . S
C5019 C5013 1.429 . S
C5019 C5020 1.523 . S
C5020 C5001 1.368 . S
C5020 C5014 1.368 . S
C5020 C5019 1.523 . S
C5021 C5005 1.429 1_554 S
C5021 C5017 1.429 . S
C5021 C5022 1.523 . S
C5022 C5006 1.368 . S
C5022 C5018 1.368 . S
C5022 C5021 1.523 . S
H5023 C4998 0.950 . S
H5024 C5000 0.950 . S
H5025 C5001 0.949 1_556 S
H5026 C5003 0.950 . S
H5027 C5005 0.950 . S
C5028 C5029 1.349 1_565 S
C5028 C5030 1.327 . S
C5028 H5053 0.950 . S
C5029 C5028 1.349 1_545 S
C5029 C5045 1.349 . S
C5030 C5028 1.327 . S
C5030 C5049 1.429 . S
C5030 H5054 0.950 . S
C5031 C5048 1.574 . S
C5031 C5050 1.368 . S
C5031 H5055 0.949 . S
H5032 C5036 0.949 . S
C5033 C5034 1.349 . S
C5033 C5035 1.327 . S
C5033 H5056 0.950 . S
C5034 C5033 1.349 . S
C5034 C5046 1.349 . S
C5035 C5033 1.327 . S
C5035 C5051 1.429 . S
C5035 H5057 0.950 . S
C5036 H5032 0.949 . S
C5036 C5044 1.574 . S
C5036 C5052 1.368 . S
H5037 C5045 0.950 . S
H5038 C5043 0.950 . S
H5039 C5044 0.949 . S
H5040 C5046 0.950 . S
H5041 C5047 0.950 . S
H5042 C5048 0.949 . S
C5043 H5038 0.950 . S
C5043 C5045 1.327 1_565 S
C5043 C5049 1.429 . S
C5044 C5036 1.574 . S
C5044 H5039 0.949 . S
C5044 C5050 1.368 . S
C5045 C5029 1.349 . S
C5045 H5037 0.950 . S
C5045 C5043 1.327 1_545 S
C5046 C5034 1.349 . S
C5046 H5040 0.950 . S
C5046 C5047 1.327 . S
C5047 H5041 0.950 . S
C5047 C5046 1.327 . S
C5047 C5051 1.429 . S
C5048 C5031 1.574 . S
C5048 H5042 0.949 . S
C5048 C5052 1.368 . S
C5049 C5030 1.429 . S
C5049 C5043 1.429 . S
C5049 C5050 1.523 . S
C5050 C5031 1.368 . S
C5050 C5044 1.368 . S
C5050 C5049 1.523 . S
C5051 C5035 1.429 . S
C5051 C5047 1.429 . S
C5051 C5052 1.523 . S
C5052 C5036 1.368 . S
C5052 C5048 1.368 . S
C5052 C5051 1.523 . S
H5053 C5028 0.950 . S
H5054 C5030 0.950 . S
H5055 C5031 0.949 . S
H5056 C5033 0.950 . S
H5057 C5035 0.950 . S
C5058 C5059 1.349 . S
C5058 C5060 1.327 . S
C5058 H5083 0.950 . S
C5059 C5058 1.349 . S
C5059 C5075 1.349 . S
C5060 C5058 1.327 . S
C5060 C5079 1.429 . S
C5060 H5084 0.950 . S
C5061 C5078 1.574 . S
C5061 C5080 1.368 . S
C5061 H5085 0.949 . S
H5062 C5066 0.949 . S
C5063 C5064 1.349 . S
C5063 C5065 1.327 . S
C5063 H5086 0.950 . S
C5064 C5063 1.349 . S
C5064 C5076 1.349 . S
C5065 C5063 1.327 . S
C5065 C5081 1.429 . S
C5065 H5087 0.950 . S
C5066 H5062 0.949 . S
C5066 C5074 1.574 . S
C5066 C5082 1.368 . S
H5067 C5075 0.950 . S
H5068 C5073 0.950 . S
H5069 C5074 0.949 . S
H5070 C5076 0.950 . S
H5071 C5077 0.950 . S
H5072 C5078 0.949 . S
C5073 H5068 0.950 . S
C5073 C5075 1.327 . S
C5073 C5079 1.429 . S
C5074 C5066 1.574 . S
C5074 H5069 0.949 . S
C5074 C5080 1.368 . S
C5075 C5059 1.349 . S
C5075 H5067 0.950 . S
C5075 C5073 1.327 . S
C5076 C5064 1.349 . S
C5076 H5070 0.950 . S
C5076 C5077 1.327 . S
C5077 H5071 0.950 . S
C5077 C5076 1.327 . S
C5077 C5081 1.429 . S
C5078 C5061 1.574 . S
C5078 H5072 0.949 . S
C5078 C5082 1.368 . S
C5079 C5060 1.429 . S
C5079 C5073 1.429 . S
C5079 C5080 1.523 . S
C5080 C5061 1.368 . S
C5080 C5074 1.368 . S
C5080 C5079 1.523 . S
C5081 C5065 1.429 . S
C5081 C5077 1.429 . S
C5081 C5082 1.523 . S
C5082 C5066 1.368 . S
C5082 C5078 1.368 . S
C5082 C5081 1.523 . S
H5083 C5058 0.950 . S
H5084 C5060 0.950 . S
H5085 C5061 0.949 . S
H5086 C5063 0.950 . S
H5087 C5065 0.950 . S
C2209 C255 1.575 . S
C2214 C931 1.467 . S
C2239 C147 2.181 . S
C2244 C1014 2.136 . S
C2269 C184 1.383 . S
C2274 C1099 1.321 1_565 S
C2304 C1179 1.576 . S
C2299 C220 1.725 . S
C2329 C40 1.547 . S
C2334 C1263 1.475 . S
C2364 C1356 0.932 . S
C2359 C74 0.987 . S
C2394 C1434 0.676 . S
C2389 C110 0.675 . S
C2419 C14 1.200 . S
C2424 C1519 1.089 . S
C2454 C930 1.988 . S
C2449 C579 2.089 . S
C2479 C616 0.595 . S
C2484 C1011 0.649 . S
C2514 C1098 1.218 . S
C2509 C687 1.260 . S
C2544 C1183 1.544 . S
C2539 C436 1.626 . S
C2569 C580 2.039 . S
C2574 C1267 1.906 . S
C2604 C1359 1.064 . S
C2599 C615 1.133 . S
C2634 C1431 0.748 . S
C2629 C688 0.748 . S
C2664 C1518 1.376 . S
C2659 C435 1.486 . S
C2694 C927 1.435 . S
C2689 C410 1.519 . S
C2719 C722 2.061 . S
C2724 C1602 1.985 . S
C2754 C1676 2.224 . S
C2749 C842 2.322 . S
C2784 C1771 0.507 . S
C2779 C794 0.390 . S
C2809 C302 0.711 . S
C2814 C1515 0.715 . S
C2839 C338 1.433 . S
C2844 C1095 1.375 . S
C2869 C830 2.420 . S
C2874 C1854 2.344 . S
C2904 C1939 0.785 . S
C2899 C758 0.793 . S
C2934 C920 1.429 . S
C2929 C158 1.438 . S
C2964 C1947 2.113 . S
C2959 C254 2.175 . S
C2989 C218 1.378 . S
C2994 C1088 1.318 . S
C3019 C194 1.616 . S
C3024 C1860 1.547 . S
C3054 C1272 1.476 . S
C3049 C3 1.543 . S
C3079 C111 0.849 . S
C3084 C1683 0.819 . S
C3114 C1443 0.649 1_556 S
C3109 C76 0.670 . S
C3144 C2012 1.163 . S
C3139 C50 1.207 . S
C3174 C939 1.927 . S
C3169 C364 2.024 . S
C3204 C1944 0.608 . S
C3199 C795 0.548 . S
C3229 C292 1.200 . S
C3234 C1107 1.156 . S
C3259 C723 1.574 . S
C3264 C1844 1.464 . S
C3289 C363 2.039 . S
C3294 C1256 1.871 . S
C3324 C1686 1.041 . S
C3319 C796 1.112 . S
C3349 C291 0.713 . S
C3354 C1440 0.725 . S
C3379 C724 1.468 . S
C3384 C2031 1.365 . S
C3409 C482 1.482 . S
C3414 C936 1.425 1_554 S
C3439 C434 2.023 . S
C3444 C1611 1.952 . S
C3469 C662 2.275 . S
C3474 C1351 2.175 . S
C3499 C614 0.342 . S
C3504 C1760 0.500 . S
C3534 C2028 0.694 . S
C3529 C698 0.705 . S
C3559 C554 1.367 . S
C3564 C1104 1.373 1_565 S
C3594 C1191 2.268 . S
C3589 C650 2.344 . S
C3624 C1004 0.724 . S
C3619 C506 0.714 . S
C3649 C183 1.573 . S
C3654 C2107 1.464 . S
C3684 C1938 2.135 . S
C3679 C219 2.181 . S
C3709 C256 1.378 . S
C3714 C2191 1.316 . S
C3739 C148 1.721 . S
C3744 C1851 1.573 . S
C3769 C122 1.579 . S
C3774 C1599 1.531 . S
C3804 C1692 0.892 . S
C3799 C2 0.938 . S
C3834 C1770 0.617 . S
C3829 C39 0.616 . S
C3864 C2023 1.178 . S
C3859 C86 1.291 . S
C3894 C2106 1.999 . S
C3889 C651 2.100 . S
C3919 C472 0.596 . S
C3924 C1935 0.649 . S
C3954 C2190 1.204 . S
C3949 C507 1.245 . S
C3984 C1855 1.550 . S
C3979 C544 1.631 . S
C4014 C1603 1.909 . S
C4009 C652 2.045 . S
C4039 C471 1.121 . S
C4044 C1695 1.054 . S
C4074 C1767 0.747 . S
C4069 C508 0.746 . S
C4099 C543 1.512 . S
C4104 C2022 1.406 . S
C4134 C2103 1.455 . S
C4129 C806 1.540 . S
C4159 C326 2.032 . S
C4164 C1266 1.960 . S
C4194 C1340 2.197 . S
C4189 C374 2.299 . S
C4224 C1435 0.529 . S
C4219 C398 0.417 . S
C4254 C2019 0.697 . S
C4249 C770 0.689 . S
C4279 C734 1.424 . S
C4284 C2187 1.363 . S
C4314 C1182 2.334 . S
C4309 C362 2.401 . S
C4344 C1015 0.803 . S
C4339 C290 0.815 . S
C4369 C230 1.433 . S
C4374 C2096 1.397 . S
C4404 C1023 2.119 . S
C4399 C182 2.182 . S
C4429 C146 1.377 . S
C4434 C2180 1.318 . S
C4459 C266 1.619 . S
C4464 C1188 1.551 . S
C4489 C75 1.585 . S
C4494 C1608 1.512 . S
C4524 C1347 0.919 . S
C4519 C38 0.971 . S
C4549 C4 0.584 . S
C4554 C1779 0.582 . S
C4579 C112 1.237 . S
C4584 C1508 1.116 . S
C4614 C2115 1.927 . S
C4609 C832 2.023 . S
C4639 C399 0.568 . S
C4644 C1020 0.619 . S
C4674 C2199 1.147 . S
C4669 C760 1.191 . S
C4699 C327 1.571 . S
C4704 C1172 1.463 . S
C4729 C831 2.077 . S
C4734 C1592 1.912 . S
C4764 C1350 1.041 . S
C4759 C400 1.112 . S
C4789 C759 0.726 . S
C4794 C1776 0.732 . S
C4824 C1527 1.380 . S
C4819 C328 1.478 . S
C4854 C2112 1.432 . S
C4849 C626 1.487 . S
C4884 C1275 1.954 1_655 S
C4879 C542 2.027 . S
C4909 C590 2.237 . S
C4914 C1687 2.139 . S
C4944 C1424 0.489 . S
C4939 C470 0.346 . S
C4969 C518 0.676 . S
C4974 C1524 0.660 . S
C4999 C446 1.355 . S
C5004 C2196 1.374 . S
C5034 C1863 2.281 . S
C5029 C578 2.356 . S
C5064 C1928 0.708 . S
C5059 C686 0.691 . S
