# Generated by pormake.
# Topology gar, (4,6)-cn, num edge types: 1
# Building blocks:
#     Node 0, Type 0, BuildingBlock: TATPOV_clean_sbu_0, # of connection points: 4
#     Node 1, Type 0, BuildingBlock: TATPOV_clean_sbu_0, # of connection points: 4
#     Node 2, Type 0, BuildingBlock: TATPOV_clean_sbu_0, # of connection points: 4
#     Node 3, Type 0, BuildingBlock: TATPOV_clean_sbu_0, # of connection points: 4
#     Node 4, Type 0, BuildingBlock: TATPOV_clean_sbu_0, # of connection points: 4
#     Node 5, Type 0, BuildingBlock: TATPOV_clean_sbu_0, # of connection points: 4
#     Node 6, Type 0, BuildingBlock: TATPOV_clean_sbu_0, # of connection points: 4
#     Node 7, Type 0, BuildingBlock: TATPOV_clean_sbu_0, # of connection points: 4
#     Node 8, Type 0, BuildingBlock: TATPOV_clean_sbu_0, # of connection points: 4
#     Node 9, Type 0, BuildingBlock: TATPOV_clean_sbu_0, # of connection points: 4
#     Node 10, Type 0, BuildingBlock: TATPOV_clean_sbu_0, # of connection points: 4
#     Node 11, Type 0, BuildingBlock: TATPOV_clean_sbu_0, # of connection points: 4
#     Node 12, Type 0, BuildingBlock: TATPOV_clean_sbu_0, # of connection points: 4
#     Node 13, Type 0, BuildingBlock: TATPOV_clean_sbu_0, # of connection points: 4
#     Node 14, Type 0, BuildingBlock: TATPOV_clean_sbu_0, # of connection points: 4
#     Node 15, Type 0, BuildingBlock: TATPOV_clean_sbu_0, # of connection points: 4
#     Node 16, Type 0, BuildingBlock: TATPOV_clean_sbu_0, # of connection points: 4
#     Node 17, Type 0, BuildingBlock: TATPOV_clean_sbu_0, # of connection points: 4
#     Node 18, Type 0, BuildingBlock: TATPOV_clean_sbu_0, # of connection points: 4
#     Node 19, Type 0, BuildingBlock: TATPOV_clean_sbu_0, # of connection points: 4
#     Node 20, Type 0, BuildingBlock: TATPOV_clean_sbu_0, # of connection points: 4
#     Node 21, Type 0, BuildingBlock: TATPOV_clean_sbu_0, # of connection points: 4
#     Node 22, Type 0, BuildingBlock: TATPOV_clean_sbu_0, # of connection points: 4
#     Node 23, Type 0, BuildingBlock: TATPOV_clean_sbu_0, # of connection points: 4
#     Node 24, Type 1, BuildingBlock: KUMBUR_clean_sbu_1, # of connection points: 6
#     Node 25, Type 1, BuildingBlock: KUMBUR_clean_sbu_1, # of connection points: 6
#     Node 26, Type 1, BuildingBlock: KUMBUR_clean_sbu_1, # of connection points: 6
#     Node 27, Type 1, BuildingBlock: KUMBUR_clean_sbu_1, # of connection points: 6
#     Node 28, Type 1, BuildingBlock: KUMBUR_clean_sbu_1, # of connection points: 6
#     Node 29, Type 1, BuildingBlock: KUMBUR_clean_sbu_1, # of connection points: 6
#     Node 30, Type 1, BuildingBlock: KUMBUR_clean_sbu_1, # of connection points: 6
#     Node 31, Type 1, BuildingBlock: KUMBUR_clean_sbu_1, # of connection points: 6
#     Node 32, Type 1, BuildingBlock: KUMBUR_clean_sbu_1, # of connection points: 6
#     Node 33, Type 1, BuildingBlock: KUMBUR_clean_sbu_1, # of connection points: 6
#     Node 34, Type 1, BuildingBlock: KUMBUR_clean_sbu_1, # of connection points: 6
#     Node 35, Type 1, BuildingBlock: KUMBUR_clean_sbu_1, # of connection points: 6
#     Node 36, Type 1, BuildingBlock: KUMBUR_clean_sbu_1, # of connection points: 6
#     Node 37, Type 1, BuildingBlock: KUMBUR_clean_sbu_1, # of connection points: 6
#     Node 38, Type 1, BuildingBlock: KUMBUR_clean_sbu_1, # of connection points: 6
#     Node 39, Type 1, BuildingBlock: KUMBUR_clean_sbu_1, # of connection points: 6
#     Edge 40, Type (0, 1), BuildingBlock: OJICUG_clean_linker_0, # of connection points: 2
#     Edge 41, Type (0, 1), BuildingBlock: OJICUG_clean_linker_0, # of connection points: 2
#     Edge 42, Type (0, 1), BuildingBlock: OJICUG_clean_linker_0, # of connection points: 2
#     Edge 43, Type (0, 1), BuildingBlock: OJICUG_clean_linker_0, # of connection points: 2
#     Edge 44, Type (0, 1), BuildingBlock: OJICUG_clean_linker_0, # of connection points: 2
#     Edge 45, Type (0, 1), BuildingBlock: OJICUG_clean_linker_0, # of connection points: 2
#     Edge 46, Type (0, 1), BuildingBlock: OJICUG_clean_linker_0, # of connection points: 2
#     Edge 47, Type (0, 1), BuildingBlock: OJICUG_clean_linker_0, # of connection points: 2
#     Edge 48, Type (0, 1), BuildingBlock: OJICUG_clean_linker_0, # of connection points: 2
#     Edge 49, Type (0, 1), BuildingBlock: OJICUG_clean_linker_0, # of connection points: 2
#     Edge 50, Type (0, 1), BuildingBlock: OJICUG_clean_linker_0, # of connection points: 2
#     Edge 51, Type (0, 1), BuildingBlock: OJICUG_clean_linker_0, # of connection points: 2
#     Edge 52, Type (0, 1), BuildingBlock: OJICUG_clean_linker_0, # of connection points: 2
#     Edge 53, Type (0, 1), BuildingBlock: OJICUG_clean_linker_0, # of connection points: 2
#     Edge 54, Type (0, 1), BuildingBlock: OJICUG_clean_linker_0, # of connection points: 2
#     Edge 55, Type (0, 1), BuildingBlock: OJICUG_clean_linker_0, # of connection points: 2
#     Edge 56, Type (0, 1), BuildingBlock: OJICUG_clean_linker_0, # of connection points: 2
#     Edge 57, Type (0, 1), BuildingBlock: OJICUG_clean_linker_0, # of connection points: 2
#     Edge 58, Type (0, 1), BuildingBlock: OJICUG_clean_linker_0, # of connection points: 2
#     Edge 59, Type (0, 1), BuildingBlock: OJICUG_clean_linker_0, # of connection points: 2
#     Edge 60, Type (0, 1), BuildingBlock: OJICUG_clean_linker_0, # of connection points: 2
#     Edge 61, Type (0, 1), BuildingBlock: OJICUG_clean_linker_0, # of connection points: 2
#     Edge 62, Type (0, 1), BuildingBlock: OJICUG_clean_linker_0, # of connection points: 2
#     Edge 63, Type (0, 1), BuildingBlock: OJICUG_clean_linker_0, # of connection points: 2
#     Edge 64, Type (0, 1), BuildingBlock: OJICUG_clean_linker_0, # of connection points: 2
#     Edge 65, Type (0, 1), BuildingBlock: OJICUG_clean_linker_0, # of connection points: 2
#     Edge 66, Type (0, 1), BuildingBlock: OJICUG_clean_linker_0, # of connection points: 2
#     Edge 67, Type (0, 1), BuildingBlock: OJICUG_clean_linker_0, # of connection points: 2
#     Edge 68, Type (0, 1), BuildingBlock: OJICUG_clean_linker_0, # of connection points: 2
#     Edge 69, Type (0, 1), BuildingBlock: OJICUG_clean_linker_0, # of connection points: 2
#     Edge 70, Type (0, 1), BuildingBlock: OJICUG_clean_linker_0, # of connection points: 2
#     Edge 71, Type (0, 1), BuildingBlock: OJICUG_clean_linker_0, # of connection points: 2
#     Edge 72, Type (0, 1), BuildingBlock: OJICUG_clean_linker_0, # of connection points: 2
#     Edge 73, Type (0, 1), BuildingBlock: OJICUG_clean_linker_0, # of connection points: 2
#     Edge 74, Type (0, 1), BuildingBlock: OJICUG_clean_linker_0, # of connection points: 2
#     Edge 75, Type (0, 1), BuildingBlock: OJICUG_clean_linker_0, # of connection points: 2
#     Edge 76, Type (0, 1), BuildingBlock: OJICUG_clean_linker_0, # of connection points: 2
#     Edge 77, Type (0, 1), BuildingBlock: OJICUG_clean_linker_0, # of connection points: 2
#     Edge 78, Type (0, 1), BuildingBlock: OJICUG_clean_linker_0, # of connection points: 2
#     Edge 79, Type (0, 1), BuildingBlock: OJICUG_clean_linker_0, # of connection points: 2
#     Edge 80, Type (0, 1), BuildingBlock: OJICUG_clean_linker_0, # of connection points: 2
#     Edge 81, Type (0, 1), BuildingBlock: OJICUG_clean_linker_0, # of connection points: 2
#     Edge 82, Type (0, 1), BuildingBlock: OJICUG_clean_linker_0, # of connection points: 2
#     Edge 83, Type (0, 1), BuildingBlock: OJICUG_clean_linker_0, # of connection points: 2
#     Edge 84, Type (0, 1), BuildingBlock: OJICUG_clean_linker_0, # of connection points: 2
#     Edge 85, Type (0, 1), BuildingBlock: OJICUG_clean_linker_0, # of connection points: 2
#     Edge 86, Type (0, 1), BuildingBlock: OJICUG_clean_linker_0, # of connection points: 2
#     Edge 87, Type (0, 1), BuildingBlock: OJICUG_clean_linker_0, # of connection points: 2
#     Edge 88, Type (0, 1), BuildingBlock: OJICUG_clean_linker_0, # of connection points: 2
#     Edge 89, Type (0, 1), BuildingBlock: OJICUG_clean_linker_0, # of connection points: 2
#     Edge 90, Type (0, 1), BuildingBlock: OJICUG_clean_linker_0, # of connection points: 2
#     Edge 91, Type (0, 1), BuildingBlock: OJICUG_clean_linker_0, # of connection points: 2
#     Edge 92, Type (0, 1), BuildingBlock: OJICUG_clean_linker_0, # of connection points: 2
#     Edge 93, Type (0, 1), BuildingBlock: OJICUG_clean_linker_0, # of connection points: 2
#     Edge 94, Type (0, 1), BuildingBlock: OJICUG_clean_linker_0, # of connection points: 2
#     Edge 95, Type (0, 1), BuildingBlock: OJICUG_clean_linker_0, # of connection points: 2
#     Edge 96, Type (0, 1), BuildingBlock: OJICUG_clean_linker_0, # of connection points: 2
#     Edge 97, Type (0, 1), BuildingBlock: OJICUG_clean_linker_0, # of connection points: 2
#     Edge 98, Type (0, 1), BuildingBlock: OJICUG_clean_linker_0, # of connection points: 2
#     Edge 99, Type (0, 1), BuildingBlock: OJICUG_clean_linker_0, # of connection points: 2
#     Edge 100, Type (0, 1), BuildingBlock: OJICUG_clean_linker_0, # of connection points: 2
#     Edge 101, Type (0, 1), BuildingBlock: OJICUG_clean_linker_0, # of connection points: 2
#     Edge 102, Type (0, 1), BuildingBlock: OJICUG_clean_linker_0, # of connection points: 2
#     Edge 103, Type (0, 1), BuildingBlock: OJICUG_clean_linker_0, # of connection points: 2
#     Edge 104, Type (0, 1), BuildingBlock: OJICUG_clean_linker_0, # of connection points: 2
#     Edge 105, Type (0, 1), BuildingBlock: OJICUG_clean_linker_0, # of connection points: 2
#     Edge 106, Type (0, 1), BuildingBlock: OJICUG_clean_linker_0, # of connection points: 2
#     Edge 107, Type (0, 1), BuildingBlock: OJICUG_clean_linker_0, # of connection points: 2
#     Edge 108, Type (0, 1), BuildingBlock: OJICUG_clean_linker_0, # of connection points: 2
#     Edge 109, Type (0, 1), BuildingBlock: OJICUG_clean_linker_0, # of connection points: 2
#     Edge 110, Type (0, 1), BuildingBlock: OJICUG_clean_linker_0, # of connection points: 2
#     Edge 111, Type (0, 1), BuildingBlock: OJICUG_clean_linker_0, # of connection points: 2
#     Edge 112, Type (0, 1), BuildingBlock: OJICUG_clean_linker_0, # of connection points: 2
#     Edge 113, Type (0, 1), BuildingBlock: OJICUG_clean_linker_0, # of connection points: 2
#     Edge 114, Type (0, 1), BuildingBlock: OJICUG_clean_linker_0, # of connection points: 2
#     Edge 115, Type (0, 1), BuildingBlock: OJICUG_clean_linker_0, # of connection points: 2
#     Edge 116, Type (0, 1), BuildingBlock: OJICUG_clean_linker_0, # of connection points: 2
#     Edge 117, Type (0, 1), BuildingBlock: OJICUG_clean_linker_0, # of connection points: 2
#     Edge 118, Type (0, 1), BuildingBlock: OJICUG_clean_linker_0, # of connection points: 2
#     Edge 119, Type (0, 1), BuildingBlock: OJICUG_clean_linker_0, # of connection points: 2
#     Edge 120, Type (0, 1), BuildingBlock: OJICUG_clean_linker_0, # of connection points: 2
#     Edge 121, Type (0, 1), BuildingBlock: OJICUG_clean_linker_0, # of connection points: 2
#     Edge 122, Type (0, 1), BuildingBlock: OJICUG_clean_linker_0, # of connection points: 2
#     Edge 123, Type (0, 1), BuildingBlock: OJICUG_clean_linker_0, # of connection points: 2
#     Edge 124, Type (0, 1), BuildingBlock: OJICUG_clean_linker_0, # of connection points: 2
#     Edge 125, Type (0, 1), BuildingBlock: OJICUG_clean_linker_0, # of connection points: 2
#     Edge 126, Type (0, 1), BuildingBlock: OJICUG_clean_linker_0, # of connection points: 2
#     Edge 127, Type (0, 1), BuildingBlock: OJICUG_clean_linker_0, # of connection points: 2
#     Edge 128, Type (0, 1), BuildingBlock: OJICUG_clean_linker_0, # of connection points: 2
#     Edge 129, Type (0, 1), BuildingBlock: OJICUG_clean_linker_0, # of connection points: 2
#     Edge 130, Type (0, 1), BuildingBlock: OJICUG_clean_linker_0, # of connection points: 2
#     Edge 131, Type (0, 1), BuildingBlock: OJICUG_clean_linker_0, # of connection points: 2
#     Edge 132, Type (0, 1), BuildingBlock: OJICUG_clean_linker_0, # of connection points: 2
#     Edge 133, Type (0, 1), BuildingBlock: OJICUG_clean_linker_0, # of connection points: 2
#     Edge 134, Type (0, 1), BuildingBlock: OJICUG_clean_linker_0, # of connection points: 2
#     Edge 135, Type (0, 1), BuildingBlock: OJICUG_clean_linker_0, # of connection points: 2
# Relax obj value: 0.122
# Max RMSD: 0.205
# Mean RMSD: 0.136
data_MOF--net-gar--node1-TATPOV_clean_sbu_0--node2-KUMBUR_clean_sbu_1--edge1-OJICUG_clean_linker_0
_symmetry_space_group_name_H-M    P1
_symmetry_Int_Tables_number       1
_symmetry_cell_setting            triclinic
loop_
_symmetry_equiv_pos_as_xyz
'x, y, z'
_cell_length_a     44.422568
_cell_length_b     44.210655
_cell_length_c     41.904617
_cell_angle_alpha  97.363275
_cell_angle_beta   98.134446
_cell_angle_gamma 103.85014
loop_
_atom_site_label
_atom_site_type_symbol
_atom_site_fract_x
_atom_site_fract_y
_atom_site_fract_z
_atom_type_partial_charge
Zn0 Zn 0.0523 0.34813 0.39481 0.0
Zn1 Zn 0.08723 0.35792 0.35961 0.0
O2 O 0.09577 0.40386 0.39379 0.0
O3 O 0.05114 0.38982 0.41106 0.0
O4 O 0.12934 0.35634 0.3345 0.0
O5 O 0.07251 0.32775 0.42763 0.0
O6 O 0.08743 0.31683 0.38098 0.0
C7 C 0.07529 0.4112 0.41037 0.0
C8 C 1.01124 0.33451 0.33855 0.0
O9 O 0.0375 0.34962 0.33075 0.0
O10 O 1.01264 0.32449 0.36546 0.0
C11 C 0.15463 0.35039 0.34941 0.0
O12 O 0.15518 0.34669 0.38008 0.0
C13 C 0.08348 0.3101 0.40913 0.0
Zn14 Zn 0.0422 0.73464 0.74805 0.0
Zn15 Zn 0.04738 0.77659 0.71085 0.0
O16 O 1.00527 0.78048 0.73023 0.0
O17 O 1.00149 0.74609 0.76357 0.0
O18 O 0.05637 0.81362 0.68788 0.0
O19 O 0.09086 0.75118 0.76972 0.0
O20 O 0.09372 0.78579 0.73674 0.0
C21 C 0.99016 0.76643 0.7505 0.0
C22 C 0.03987 0.70906 0.67882 0.0
O23 O 0.0429 0.73783 0.67533 0.0
O24 O 0.03683 0.70125 0.70659 0.0
C25 C 0.04519 0.81781 0.65972 0.0
O26 O 1.02198 0.7957 0.641 0.0
C27 C 0.10774 0.77283 0.75763 0.0
Zn28 Zn 0.5467 0.85627 0.89745 0.0
Zn29 Zn 0.58349 0.8558 0.85655 0.0
O30 O 0.59564 0.90324 0.88791 0.0
O31 O 0.55947 0.89955 0.91943 0.0
O32 O 0.62524 0.85181 0.83179 0.0
O33 O 0.55752 0.82493 0.92239 0.0
O34 O 0.58135 0.81667 0.88085 0.0
C35 C 0.58301 0.9159 0.91039 0.0
C36 C 0.50744 0.84199 0.83591 0.0
O37 O 0.53463 0.84656 0.82624 0.0
O38 O 0.50668 0.84377 0.86604 0.0
C39 C 0.65059 0.84645 0.84721 0.0
O40 O 0.65114 0.84373 0.87813 0.0
C41 C 0.57171 0.80841 0.90655 0.0
Zn42 Zn 0.54567 0.23486 0.25044 0.0
Zn43 Zn 0.551 0.27559 0.21151 0.0
O44 O 0.50913 0.28084 0.23152 0.0
O45 O 0.50515 0.24727 0.26571 0.0
O46 O 0.56071 0.31256 0.18777 0.0
O47 O 0.59466 0.25146 0.272 0.0
O48 O 0.59794 0.28351 0.23639 0.0
C49 C 0.49396 0.26746 0.25218 0.0
C50 C 0.54135 0.20677 0.18131 0.0
O51 O 0.54467 0.23541 0.17698 0.0
O52 O 0.5392 0.19998 0.20964 0.0
C53 C 0.55166 0.31602 0.15864 0.0
O54 O 0.53042 0.29298 0.13868 0.0
C55 C 0.61185 0.27149 0.25832 0.0
Zn56 Zn 0.14648 0.83129 0.08231 0.0
Zn57 Zn 0.10901 0.82875 0.12245 0.0
O58 O 0.1022 0.87056 0.10162 0.0
O59 O 0.13554 0.87426 0.0679 0.0
O60 O 0.07311 0.82015 0.1465 0.0
O61 O 0.12719 0.78215 0.05984 0.0
O62 O 0.09936 0.78051 0.0987 0.0
C63 C 0.11547 0.88581 0.08092 0.0
C64 C 0.17696 0.83503 0.15233 0.0
O65 O 0.14956 0.83585 0.15792 0.0
O66 O 0.18183 0.83401 0.123 0.0
C67 C 0.06663 0.83407 0.17202 0.0
O68 O 0.08606 0.86061 0.18814 0.0
C69 C 0.10858 0.76555 0.07537 0.0
Zn70 Zn 0.49754 0.78891 0.50593 0.0
Zn71 Zn 0.53223 0.79356 0.46196 0.0
O72 O 0.54611 0.84141 0.48769 0.0
O73 O 0.51602 0.83872 0.52477 0.0
O74 O 0.5607 0.79749 0.42864 0.0
O75 O 0.51411 0.74944 0.52126 0.0
O76 O 0.53883 0.75039 0.47979 0.0
C77 C 0.53573 0.85569 0.51061 0.0
C78 C 0.46128 0.78477 0.43991 0.0
O79 O 0.48897 0.78944 0.43317 0.0
O80 O 0.45741 0.78095 0.46879 0.0
C81 C 0.58961 0.8124 0.437 0.0
O82 O 0.60102 0.82407 0.46799 0.0
C83 C 0.53039 0.73663 0.5036 0.0
Zn84 Zn 0.64289 0.32892 0.57757 0.0
Zn85 Zn 0.60723 0.32744 0.61972 0.0
O86 O 0.60039 0.36907 0.59872 0.0
O87 O 0.63237 0.37186 0.56356 0.0
O88 O 0.57178 0.31881 0.64471 0.0
O89 O 0.62304 0.27994 0.55537 0.0
O90 O 0.59829 0.27901 0.59669 0.0
C91 C 0.61314 0.38394 0.57749 0.0
C92 C 0.67536 0.33421 0.64718 0.0
O93 O 0.64851 0.3356 0.65398 0.0
O94 O 0.67894 0.33195 0.6174 0.0
C95 C 0.56524 0.33307 0.67002 0.0
O96 O 0.58422 0.36019 0.68531 0.0
C97 C 0.60609 0.26369 0.57254 0.0
Zn98 Zn 0.99153 0.28863 1.00235 0.0
Zn99 Zn 0.02931 0.29408 0.96108 0.0
O100 O 0.04264 0.34174 0.98659 0.0
O101 O 1.01107 0.33859 0.02228 0.0
O102 O 0.05857 0.2979 0.92855 0.0
O103 O 1.00524 0.24733 0.01616 0.0
O104 O 0.03698 0.25209 0.98073 0.0
C105 C 0.03161 0.35578 0.00909 0.0
C106 C 0.95797 0.28457 0.93592 0.0
O107 O 0.9862 0.2892 0.9306 0.0
O108 O 0.95276 0.2813 0.9645 0.0
C109 C 0.08754 0.31247 0.93724 0.0
O110 O 0.0987 0.3241 0.96828 0.0
C111 C 1.02488 0.23643 1.00178 0.0
Zn112 Zn 0.43541 0.99672 0.30146 0.0
Zn113 Zn 0.41671 0.0426 0.31596 0.0
O114 O 0.45047 0.04599 0.35455 0.0
O115 O 0.45278 0.99654 0.34764 0.0
O116 O 0.40486 0.08246 0.32372 0.0
O117 O 0.46431 1.01796 0.27445 0.0
O118 O 0.42917 0.04515 0.27098 0.0
C119 C 0.45984 0.02355 0.36516 0.0
C120 C 0.37075 0.98108 0.29721 0.0
O121 O 0.37849 1.00744 0.31623 0.0
O122 O 0.39069 0.97274 0.28172 0.0
C123 C 0.37646 0.08372 0.32044 0.0
O124 O 0.3541 0.05781 0.31912 0.0
C125 C 0.45182 0.03669 0.26048 0.0
Zn126 Zn 0.26033 0.25933 0.52472 0.0
Zn127 Zn 0.29854 0.22437 0.52901 0.0
O128 O 0.3064 0.24294 0.48614 0.0
O129 O 0.27638 0.27572 0.48513 0.0
O130 O 0.33266 0.20374 0.53763 0.0
O131 O 0.27459 0.28232 0.57227 0.0
O132 O 0.30526 0.25036 0.57546 0.0
C133 C 0.29556 0.26315 0.4722 0.0
C134 C 0.23077 0.19138 0.51851 0.0
O135 O 0.25885 0.18875 0.52292 0.0
O136 O 0.22552 0.2182 0.51715 0.0
C137 C 0.34515 0.18908 0.51754 0.0
O138 O 0.33475 0.18546 0.48598 0.0
C139 C 0.29406 0.27143 0.58939 0.0
Zn140 Zn 0.12315 0.12331 0.80492 0.0
Zn141 Zn 0.15882 0.085 0.8014 0.0
O142 O 0.13968 0.07543 0.84345 0.0
O143 O 0.10664 0.10527 0.84357 0.0
O144 O 0.18579 0.05592 0.79515 0.0
O145 O 0.10182 0.10853 0.75685 0.0
O146 O 0.13258 0.07653 0.75441 0.0
C147 C 0.119 0.08573 0.85662 0.0
C148 C 0.18939 0.15473 0.81203 0.0
O149 O 0.19189 0.12659 0.8075 0.0
O150 O 0.16277 0.15999 0.8136 0.0
C151 C 0.18191 0.02798 0.80101 0.0
O152 O 0.1581 1.01556 0.81472 0.0
C153 C 0.112 0.08843 0.74013 0.0
Zn154 Zn 0.37981 0.92982 0.01097 0.0
Zn155 Zn 0.33885 0.95057 0.01715 0.0
O156 O 0.32835 0.92574 0.97059 0.0
O157 O 0.35303 0.89065 0.98369 0.0
O158 O 0.30253 0.96656 0.02313 0.0
O159 O 0.3912 0.92997 0.0581 0.0
O160 O 0.34056 0.92508 0.05436 0.0
C161 C 0.33491 0.8996 0.96316 0.0
C162 C 0.39831 0.99054 0.00705 0.0
O163 O 0.37725 0.98897 0.02482 0.0
O164 O 0.40016 0.96559 0.99005 0.0
C165 C 0.30192 0.99495 0.02278 0.0
O166 O 0.32549 1.01474 0.01447 0.0
C167 C 0.36645 0.92326 0.07008 0.0
Zn168 Zn 0.38052 0.37189 0.05911 0.0
Zn169 Zn 0.3414 0.40638 0.05468 0.0
O170 O 0.3345 0.37986 0.00858 0.0
O171 O 0.36592 0.34858 0.01192 0.0
O172 O 0.30662 0.42639 0.04612 0.0
O173 O 0.36409 0.35505 0.09811 0.0
O174 O 0.3342 0.38805 0.09764 0.0
C175 C 0.34589 0.35884 0.99487 0.0
C176 C 0.4093 0.43987 0.06442 0.0
O177 O 0.38106 0.44206 0.05975 0.0
O178 O 0.41503 0.41335 0.06654 0.0
C179 C 0.30413 0.45276 0.05967 0.0
O180 O 0.32598 0.46974 0.08409 0.0
C181 C 0.34491 0.36753 0.11112 0.0
Zn182 Zn 0.79283 0.21701 0.10411 0.0
Zn183 Zn 0.81716 0.18071 0.07706 0.0
O184 O 0.80788 0.20976 0.04446 0.0
O185 O 0.77537 0.23299 0.06631 0.0
O186 O 0.84188 0.1574 0.05362 0.0
O187 O 0.83444 0.24247 0.12916 0.0
O188 O 0.84439 0.19649 0.1225 0.0
C189 C 0.78876 0.22711 0.04256 0.0
C190 C 0.75913 0.15337 0.09989 0.0
O191 O 0.77696 0.1495 0.07942 0.0
O192 O 0.76456 0.17987 0.11832 0.0
C193 C 0.83977 0.12815 0.05159 0.0
O194 O 0.82002 0.11069 0.06672 0.0
C195 C 0.8507 0.22434 0.13827 0.0
Zn196 Zn 0.20697 0.62323 0.24834 0.0
Zn197 Zn 0.23401 0.5876 0.26211 0.0
O198 O 0.21589 0.60215 0.30208 0.0
O199 O 0.2227 0.65045 0.29234 0.0
O200 O 0.25615 0.55766 0.27651 0.0
O201 O 0.16895 0.58619 0.24449 0.0
O202 O 0.2015 0.56511 0.22187 0.0
C203 C 0.21743 0.63104 0.31184 0.0
C204 C 0.26059 0.6365 0.22681 0.0
O205 O 0.26654 0.62347 0.25144 0.0
O206 O 0.23237 0.62957 0.212 0.0
C207 C 0.27395 0.5663 0.30425 0.0
O208 O 0.2779 0.59491 0.32033 0.0
C209 C 0.17355 0.56727 0.22169 0.0
Zn210 Zn 0.881 0.87038 0.55915 0.0
Zn211 Zn 0.84271 0.90598 0.55475 0.0
O212 O 0.83549 0.88002 0.50833 0.0
O213 O 0.8664 0.84823 0.51146 0.0
O214 O 0.80932 0.92781 0.54626 0.0
O215 O 0.86327 0.85348 0.59753 0.0
O216 O 0.83414 0.88719 0.59705 0.0
C217 C 0.84674 0.85897 0.49446 0.0
C218 C 0.91147 0.93777 0.56601 0.0
O219 O 0.8834 0.94043 0.56095 0.0
O220 O 0.91666 0.911 0.56781 0.0
C221 C 0.80596 0.95296 0.5618 0.0
O222 O 0.82596 0.96752 0.58863 0.0
C223 C 0.84418 0.86624 0.61037 0.0
Zn224 Zn 1.01708 1.00256 0.27128 0.0
Zn225 Zn 0.98013 0.04083 0.2724 0.0
O226 O 1.00509 0.05062 0.32002 0.0
O227 O 0.03772 1.02036 0.31889 0.0
O228 O 0.95356 0.07144 0.27446 0.0
O229 O 0.03373 1.01906 0.23232 0.0
O230 O 1.00093 0.04917 0.23153 0.0
C231 C 1.02653 0.04011 0.33482 0.0
C232 C 0.95133 0.97015 0.2634 0.0
O233 O 0.94832 0.99813 0.26609 0.0
O234 O 0.97825 0.96514 0.26353 0.0
C235 C 0.92872 0.06407 0.2866 0.0
O236 O 0.9213 0.03681 0.29675 0.0
C237 C 1.02164 0.03853 0.21889 0.0
Zn238 Zn 0.25296 0.67961 0.61175 0.0
Zn239 Zn 0.31089 0.67444 0.5741 0.0
O240 O 0.29895 0.70713 0.55148 0.0
O241 O 0.25437 0.70301 0.57107 0.0
O242 O 0.34259 0.65881 0.55441 0.0
O243 O 0.28728 0.65951 0.63203 0.0
O244 O 0.32764 0.69222 0.62196 0.0
C245 C 0.27226 0.71298 0.55122 0.0
C246 C 0.25609 0.62276 0.57789 0.0
O247 O 0.2722 0.6376 0.55955 0.0
O248 O 0.26135 0.63486 0.60791 0.0
C249 C 0.34537 0.63365 0.56452 0.0
O250 O 0.33181 0.62516 0.58907 0.0
C251 C 0.31215 0.68132 0.64293 0.0
Zn252 Zn 0.51823 0.49924 0.77333 0.0
Zn253 Zn 0.48297 0.53773 0.77416 0.0
O254 O 0.50719 0.54726 0.82173 0.0
O255 O 0.53928 0.5165 0.82129 0.0
O256 O 0.46176 0.57173 0.77482 0.0
O257 O 0.53609 0.51426 0.73397 0.0
O258 O 0.50284 0.54371 0.73261 0.0
C259 C 0.52816 0.53651 0.83693 0.0
C260 C 0.45049 0.4697 0.76571 0.0
O261 O 0.44814 0.49791 0.76889 0.0
O262 O 0.47714 0.464 0.76544 0.0
C263 C 0.43531 0.57059 0.78324 0.0
O264 O 0.41954 0.5448 0.79205 0.0
C265 C 0.52345 0.53307 0.71996 0.0
Zn266 Zn 0.70688 0.12494 0.7562 0.0
Zn267 Zn 0.73056 0.08622 0.76333 0.0
O268 O 0.71234 0.09607 0.80445 0.0
O269 O 0.72251 0.14653 0.80285 0.0
O270 O 0.75161 0.05441 0.77437 0.0
O271 O 0.6659 0.09147 0.74536 0.0
O272 O 0.6969 0.06717 0.72315 0.0
C273 C 0.71545 0.12408 0.81859 0.0
C274 C 0.75986 0.13808 0.73249 0.0
O275 O 0.76516 0.12237 0.75504 0.0
O276 O 0.73153 0.13607 0.72069 0.0
C277 C 0.77048 0.0631 0.80149 0.0
O278 O 0.77564 0.09205 0.81725 0.0
C279 C 0.66961 0.07144 0.72296 0.0
Zn280 Zn 0.76134 0.75635 0.02446 0.0
Zn281 Zn 0.80026 0.7225 0.02861 0.0
O282 O 0.80654 0.74038 0.98498 0.0
O283 O 0.7759 0.77255 0.98427 0.0
O284 O 0.83558 0.70317 0.03655 0.0
O285 O 0.77547 0.78023 0.07151 0.0
O286 O 0.80686 0.74898 0.07505 0.0
C287 C 0.79499 0.76014 0.97099 0.0
C288 C 0.73294 0.68834 0.01991 0.0
O289 O 0.76115 0.68606 0.02387 0.0
O290 O 0.72728 0.71493 0.01809 0.0
C291 C 0.83988 0.67864 0.0207 0.0
O292 O 0.81947 0.66312 0.99449 0.0
C293 C 0.7953 0.76989 0.08878 0.0
Zn294 Zn 0.92231 0.49597 0.81619 0.0
Zn295 Zn 0.90532 0.54131 0.82486 0.0
O296 O 0.93975 0.54759 0.86352 0.0
O297 O 0.93326 0.49682 0.86378 0.0
O298 O 0.89319 0.58111 0.827 0.0
O299 O 0.95648 0.51571 0.79357 0.0
O300 O 0.91753 0.5362 0.77949 0.0
C301 C 0.94481 0.52515 0.87778 0.0
C302 C 0.85881 0.48223 0.80743 0.0
O303 O 0.86742 0.50724 0.82852 0.0
O304 O 0.87845 0.47507 0.7908 0.0
C305 C 0.86467 0.58194 0.82423 0.0
O306 O 0.84301 0.55652 0.82618 0.0
C307 C 0.94207 0.52838 0.77327 0.0
Zn308 Zn 0.88971 0.4369 0.5198 0.0
Zn309 Zn 0.84476 0.45462 0.51752 0.0
O310 O 0.83765 0.42752 0.47295 0.0
O311 O 0.88771 0.43202 0.47184 0.0
O312 O 0.80533 0.46658 0.52043 0.0
O313 O 0.87411 0.39886 0.53936 0.0
O314 O 0.84892 0.43236 0.55737 0.0
C315 C 0.85939 0.42382 0.45729 0.0
C316 C 0.90605 0.50031 0.53937 0.0
O317 O 0.87922 0.49543 0.52147 0.0
O318 O 0.91451 0.47723 0.54903 0.0
C319 C 0.80076 0.49297 0.51574 0.0
O320 O 0.82234 0.51339 0.50541 0.0
C321 C 0.85909 0.40813 0.56034 0.0
Zn322 Zn 0.62544 0.62635 0.30766 0.0
Zn323 Zn 0.65878 0.58658 0.30296 0.0
O324 O 0.64074 0.578 0.34528 0.0
O325 O 0.60736 0.60738 0.34512 0.0
O326 O 0.68685 0.55856 0.30044 0.0
O327 O 0.6072 0.6127 0.25871 0.0
O328 O 0.63111 0.57454 0.25661 0.0
C329 C 0.61999 0.5881 0.35832 0.0
C330 C 0.69033 0.65682 0.31387 0.0
O331 O 0.69142 0.62838 0.30672 0.0
O332 O 0.6647 0.66288 0.31857 0.0
C333 C 0.67721 0.5288 0.29304 0.0
O334 O 0.64684 0.5151 0.28769 0.0
C335 C 0.61354 0.58956 0.24237 0.0
Tb336 Tb 0.11275 0.08521 0.05639 0.0
C337 C 1.01853 0.96363 1.0014 0.0
N338 N 0.03371 0.99048 0.99134 0.0
C339 C 0.04597 0.95881 0.94642 0.0
C340 C 1.01827 0.93348 0.98539 0.0
C341 C 0.04564 0.98818 0.96303 0.0
C342 C 0.03267 0.93136 0.95791 0.0
C343 C 0.98865 0.93927 0.04007 0.0
C344 C 1.00341 0.9664 0.0282 0.0
C345 C 0.9887 0.90929 0.02433 0.0
C346 C 1.00336 0.9064 0.99703 0.0
Tb347 Tb 1.0284 0.03635 0.01963 0.0
N348 N 1.00448 0.99584 0.0435 0.0
C349 C 0.97466 0.94312 0.06771 0.0
C350 C 0.99004 0.99967 0.06985 0.0
C351 C 0.97528 0.97345 0.08258 0.0
H352 H 0.05326 1.00833 0.9517 0.0
H353 H 0.96405 0.97663 0.10361 0.0
H354 H 0.08818 0.11427 0.12397 0.0
H355 H 0.17847 0.14341 0.97233 0.0
H356 H 0.98896 0.02281 0.08045 0.0
H357 H 0.96318 0.92285 0.07764 0.0
H358 H 0.15296 0.09772 0.9958 0.0
H359 H 0.05575 0.95734 0.92421 0.0
H360 H 0.97749 0.88815 0.03311 0.0
H361 H 1.00301 0.88306 0.98505 0.0
H362 H 0.08675 0.16572 0.15135 0.0
H363 H 0.03279 0.90862 0.94481 0.0
H364 H 0.17998 0.19753 0.99786 0.0
N365 N 0.10828 0.1316 0.08439 0.0
C366 C 0.12394 0.15817 0.07423 0.0
C367 C 0.09655 0.16391 0.12917 0.0
C368 C 0.12471 0.18854 0.0901 0.0
C369 C 0.09632 0.13431 0.11264 0.0
C370 C 0.11037 0.19113 0.11759 0.0
N371 N 0.13753 0.12526 0.03237 0.0
C372 C 0.15204 0.121 0.00613 0.0
C373 C 0.15414 0.18176 0.03542 0.0
C374 C 0.13894 0.15489 0.04741 0.0
C375 C 0.16816 0.17746 0.00788 0.0
C376 C 0.16719 0.14695 0.99326 0.0
H377 H 0.11065 0.21405 0.13059 0.0
H378 H 0.14077 0.23884 0.09018 0.0
H379 H 0.16617 0.2329 0.04214 0.0
O380 O 0.16159 0.09274 0.06162 0.0
O381 O 0.08288 0.1116 0.02924 0.0
O382 O 0.03102 0.08831 0.03064 0.0
O383 O 0.13905 0.09274 0.10369 0.0
O384 O 0.10793 0.0583 0.00741 0.0
O385 O 0.05766 0.05906 0.98674 0.0
O386 O 0.97965 0.03027 0.01568 0.0
O387 O 0.05818 1.01042 0.04796 0.0
O388 O 0.10995 0.03306 0.04568 0.0
O389 O 1.00082 0.0269 0.97284 0.0
O390 O 0.03292 0.0636 0.06825 0.0
O391 O 0.08322 0.06319 0.0892 0.0
C392 C 0.05336 0.1133 0.0275 0.0
C393 C 0.18352 0.0728 0.10614 0.0
C394 C 0.22014 0.04095 0.09874 0.0
C395 C 0.21773 0.03214 0.12948 0.0
C396 C 0.18154 0.06441 0.13717 0.0
C397 C 0.19856 0.04404 0.14869 0.0
C398 C 0.20307 0.06119 0.08729 0.0
C399 C 0.08676 0.06006 0.98294 0.0
C400 C 0.16521 0.09335 0.09304 0.0
C401 C 0.14003 0.21535 0.07832 0.0
C402 C 0.1546 0.21197 0.05101 0.0
C403 C 0.08766 1.0084 0.04976 0.0
C404 C 0.95622 0.04685 0.96922 0.0
C405 C 0.91701 0.07646 0.97281 0.0
C406 C 0.9196 0.08355 0.94143 0.0
C407 C 0.9584 0.05375 0.93765 0.0
C408 C 0.93529 0.05808 0.98649 0.0
C409 C 0.94018 0.0721 0.92392 0.0
C410 C 0.0542 0.0625 0.09288 0.0
C411 C 0.97513 0.0275 0.984 0.0
H412 H 0.23093 1.01648 0.13875 0.0
H413 H 0.16674 0.07338 0.15237 0.0
H414 H 0.1969 0.03747 0.17251 0.0
H415 H 0.20471 0.06743 0.06327 0.0
H416 H 0.90556 0.09769 0.93039 0.0
H417 H 0.97416 0.04502 0.9236 0.0
H418 H 0.93358 0.05303 0.01092 0.0
H419 H 0.94201 0.07746 0.89967 0.0
Tb420 Tb 0.28195 0.79888 0.33076 0.0
C421 C 0.36926 0.77711 0.23188 0.0
N422 N 0.37595 0.79014 0.26406 0.0
C423 C 0.40999 0.75655 0.275 0.0
C424 C 0.38175 0.75225 0.2202 0.0
C425 C 0.39729 0.78136 0.28532 0.0
C426 C 0.40176 0.74154 0.2424 0.0
C427 C 0.34626 0.77906 0.17651 0.0
C428 C 0.35115 0.78992 0.21047 0.0
C429 C 0.35717 0.75315 0.16486 0.0
C430 C 0.37474 0.73965 0.1867 0.0
Tb431 Tb 0.35155 0.82849 0.27862 0.0
N432 N 0.34099 0.81494 0.22264 0.0
C433 C 0.33225 0.7957 0.15521 0.0
C434 C 0.33015 0.833 0.20178 0.0
C435 C 0.32507 0.82335 0.16788 0.0
H436 H 0.40403 0.79316 0.31028 0.0
H437 H 0.31564 0.83728 0.15158 0.0
H438 H 0.21357 0.81287 0.3065 0.0
H439 H 0.35879 0.83681 0.45014 0.0
H440 H 0.32492 0.85473 0.21123 0.0
H441 H 0.32837 0.78832 0.12895 0.0
H442 H 0.33212 0.79948 0.4002 0.0
H443 H 0.42622 0.74913 0.29216 0.0
H444 H 0.35317 0.74414 0.13889 0.0
H445 H 0.38383 0.72031 0.17729 0.0
H446 H 0.18438 0.85175 0.32242 0.0
H447 H 0.4118 0.72244 0.23441 0.0
H448 H 0.34095 0.88483 0.4647 0.0
N449 N 0.25196 0.83191 0.34604 0.0
C450 C 0.26395 0.85363 0.37367 0.0
C451 C 0.20681 0.85263 0.33701 0.0
C452 C 0.24829 0.87641 0.38361 0.0
C453 C 0.22339 0.83066 0.32805 0.0
C454 C 0.21944 0.87581 0.36475 0.0
N455 N 0.3054 0.82941 0.38151 0.0
C456 C 0.32682 0.82192 0.40388 0.0
C457 C 0.30475 0.87389 0.42141 0.0
C458 C 0.29211 0.85281 0.39164 0.0
C459 C 0.33055 0.86929 0.44159 0.0
C460 C 0.34088 0.84242 0.43331 0.0
H461 H 0.20661 0.89289 0.37156 0.0
H462 H 0.25028 0.91668 0.42005 0.0
H463 H 0.29958 0.91414 0.45356 0.0
O464 O 0.27418 0.76373 0.36016 0.0
O465 O 0.28655 0.84596 0.31906 0.0
O466 O 0.33771 0.85188 0.32036 0.0
O467 O 0.23592 0.77023 0.32729 0.0
O468 O 0.32895 0.78808 0.34312 0.0
O469 O 0.36617 0.82929 0.33103 0.0
O470 O 0.3675 0.87368 0.26682 0.0
O471 O 0.33571 0.77944 0.28307 0.0
O472 O 0.28328 0.76766 0.28628 0.0
O473 O 0.40022 0.84903 0.28608 0.0
O474 O 0.30308 0.82829 0.2544 0.0
O475 O 0.26234 0.80197 0.27966 0.0
C476 C 0.31362 0.86362 0.31711 0.0
C477 C 0.22664 0.76046 0.37956 0.0
C478 C 0.2231 0.75637 0.43644 0.0
C479 C 0.19534 0.76653 0.43271 0.0
C480 C 0.19878 0.77047 0.37621 0.0
C481 C 0.18329 0.77347 0.40272 0.0
C482 C 0.23846 0.75324 0.40965 0.0
C483 C 0.3586 0.80555 0.34704 0.0
C484 C 0.2438 0.75758 0.35222 0.0
C485 C 0.26181 0.89879 0.41207 0.0
C486 C 0.29 0.89751 0.43099 0.0
C487 C 0.30693 0.76254 0.27272 0.0
C488 C 0.41204 0.87421 0.24187 0.0
C489 C 0.40818 0.88078 0.18491 0.0
C490 C 0.43338 0.8671 0.18223 0.0
C491 C 0.43755 0.86093 0.23898 0.0
C492 C 0.39833 0.88518 0.21499 0.0
C493 C 0.44821 0.8576 0.20931 0.0
C494 C 0.27272 0.8164 0.25566 0.0
C495 C 0.39664 0.87196 0.27069 0.0
H496 H 0.18304 0.76929 0.45299 0.0
H497 H 0.18887 0.77586 0.35318 0.0
H498 H 0.16186 0.78119 0.4 0.0
H499 H 0.25933 0.74448 0.41195 0.0
H500 H 0.44167 0.86389 0.15925 0.0
H501 H 0.44853 0.85211 0.25929 0.0
H502 H 0.37855 0.8953 0.21679 0.0
H503 H 0.46753 0.84695 0.2071 0.0
Tb504 Tb 0.53225 0.05762 0.56287 0.0
C505 C 0.63621 0.1245 0.49556 0.0
N506 N 0.61309 0.09706 0.48552 0.0
C507 C 0.60329 0.11009 0.43192 0.0
C508 C 0.64333 0.14615 0.47406 0.0
C509 C 0.59684 0.0894 0.45413 0.0
C510 C 0.62661 0.13857 0.4419 0.0
C511 C 0.67426 0.16076 0.53973 0.0
C512 C 0.65155 0.1317 0.52817 0.0
C513 C 0.68168 0.18218 0.5182 0.0
C514 C 0.66634 0.17488 0.48548 0.0
Tb515 Tb 0.60862 0.06442 0.52318 0.0
N516 N 0.64331 0.11075 0.54871 0.0
C517 C 0.6887 0.16754 0.57268 0.0
C518 C 0.65821 0.11675 0.58053 0.0
C519 C 0.68073 0.14539 0.59309 0.0
H520 H 0.57969 0.06696 0.44574 0.0
H521 H 0.69232 0.15016 0.61842 0.0
H522 H 0.55214 0.08002 0.64321 0.0
H523 H 0.44349 0.95899 0.48889 0.0
H524 H 0.65372 0.09937 0.59616 0.0
H525 H 0.70624 0.18965 0.58252 0.0
H526 H 0.48255 1.011 0.49948 0.0
H527 H 0.59048 0.10391 0.40702 0.0
H528 H 0.69912 0.20461 0.52667 0.0
H529 H 0.67214 0.19182 0.4693 0.0
H530 H 0.54622 0.05515 0.6924 0.0
H531 H 0.63145 0.15458 0.42462 0.0
H532 H 0.43418 0.92933 0.53441 0.0
N533 N 0.52681 0.03841 0.61012 0.0
C534 C 0.50677 1.00917 0.60649 0.0
C535 C 0.53545 0.04173 0.66835 0.0
C536 C 0.50112 0.99454 0.63378 0.0
C537 C 0.53968 0.05547 0.64051 0.0
C538 C 0.51648 1.0109 0.66494 0.0
N539 N 0.49682 1.00946 0.54965 0.0
C540 C 0.4793 0.99779 0.51914 0.0
C541 C 0.46814 0.96519 0.57073 0.0
C542 C 0.49047 0.99465 0.57541 0.0
C543 C 0.45156 0.95197 0.53907 0.0
C544 C 0.45687 0.96856 0.51325 0.0
H545 H 0.51287 1.00044 0.68657 0.0
H546 H 0.47514 0.95286 0.64982 0.0
H547 H 0.44629 0.92718 0.59464 0.0
O548 O 0.4979 0.0767 0.53923 0.0
O549 O 0.54212 1.01041 0.549 0.0
O550 O 0.58519 1.01382 0.52243 0.0
O551 O 0.50015 0.07112 0.58985 0.0
O552 O 0.5341 0.06598 0.51346 0.0
O553 O 0.56532 0.03875 0.49092 0.0
O554 O 0.65391 0.05668 0.53331 0.0
O555 O 0.58806 0.10659 0.52863 0.0
O556 O 0.56604 0.10575 0.57506 0.0
O557 O 0.62714 0.04758 0.48336 0.0
O558 O 0.61058 0.05037 0.57124 0.0
O559 O 0.57814 0.0771 0.59269 0.0
C560 C 0.56147 0.99712 0.53414 0.0
C561 C 0.48561 0.11521 0.57517 0.0
C562 C 0.45635 0.15439 0.56963 0.0
C563 C 0.47979 0.17628 0.59324 0.0
C564 C 0.50875 0.13698 0.59901 0.0
C565 C 0.50594 0.16755 0.60777 0.0
C566 C 0.45962 0.12396 0.56046 0.0
C567 C 0.53869 0.04638 0.48991 0.0
C568 C 0.48752 0.0829 0.56625 0.0
C569 C 0.47966 0.96461 0.62916 0.0
C570 C 0.46313 0.95002 0.59774 0.0
C571 C 0.57994 0.12192 0.55407 0.0
C572 C 0.67866 0.03843 0.48909 0.0
C573 C 0.72166 1.01354 0.49455 0.0
C574 C 0.72526 1.01682 0.46226 0.0
C575 C 0.68238 0.04162 0.4569 0.0
C576 C 0.69858 0.0248 0.50804 0.0
C577 C 0.70579 0.031 0.44364 0.0
C578 C 0.59891 0.06079 0.59607 0.0
C579 C 0.65302 0.04782 0.50224 0.0
H580 H 0.47777 0.20001 0.60055 0.0
H581 H 0.52866 0.13018 0.61116 0.0
H582 H 0.52382 0.18434 0.62611 0.0
H583 H 0.44142 0.10671 0.54271 0.0
H584 H 0.74314 1.0084 0.45147 0.0
H585 H 0.66713 0.0522 0.442 0.0
H586 H 0.69525 0.02173 0.5327 0.0
H587 H 0.70862 0.03345 0.41879 0.0
Tb588 Tb 0.35593 0.29255 0.79468 0.0
C589 C 0.25667 0.35945 0.73261 0.0
N590 N 0.27929 0.37098 0.75974 0.0
C591 C 0.29071 0.42211 0.74386 0.0
C592 C 0.2504 0.37884 0.70971 0.0
C593 C 0.29594 0.40196 0.76594 0.0
C594 C 0.26795 0.41048 0.71552 0.0
C595 C 0.21606 0.31511 0.70002 0.0
C596 C 0.23985 0.32796 0.72777 0.0
C597 C 0.2098 0.3343 0.67703 0.0
C598 C 0.22696 0.36607 0.68183 0.0
Tb599 Tb 0.28693 0.33571 0.79307 0.0
N600 N 0.24734 0.30985 0.75004 0.0
C601 C 0.19925 0.28341 0.69627 0.0
C602 C 0.2297 0.27946 0.74738 0.0
C603 C 0.20586 0.26564 0.72029 0.0
H604 H 0.31263 0.41131 0.78835 0.0
H605 H 0.19231 0.24138 0.71818 0.0
H606 H 0.32894 0.22046 0.81038 0.0
H607 H 0.44859 0.39369 0.86165 0.0
H608 H 0.23304 0.26581 0.76625 0.0
H609 H 0.18075 0.27263 0.67532 0.0
H610 H 0.40919 0.36388 0.81443 0.0
H611 H 0.30407 0.44665 0.74885 0.0
H612 H 0.19169 0.32482 0.65548 0.0
H613 H 0.22185 0.38058 0.66389 0.0
H614 H 0.33877 0.19074 0.85493 0.0
H615 H 0.26392 0.42616 0.69847 0.0
H616 H 0.46008 0.36843 0.90965 0.0
N617 N 0.36323 0.2626 0.83392 0.0
C618 C 0.38641 0.2768 0.86004 0.0
C619 C 0.35222 0.21498 0.85676 0.0
C620 C 0.39303 0.26065 0.88597 0.0
C621 C 0.34638 0.23201 0.83174 0.0
C622 C 0.3756 0.22937 0.88404 0.0
N623 N 0.39446 0.32335 0.83646 0.0
C624 C 0.41189 0.35316 0.83573 0.0
C625 C 0.42577 0.32407 0.88879 0.0
C626 C 0.40233 0.30825 0.86152 0.0
C627 C 0.44189 0.35546 0.88917 0.0
C628 C 0.43525 0.36989 0.86227 0.0
H629 H 0.37993 0.21616 0.90349 0.0
H630 H 0.42158 0.26444 0.93345 0.0
H631 H 0.4504 0.31986 0.93582 0.0
O632 O 0.39631 0.30094 0.77241 0.0
O633 O 0.3388 0.30353 0.84063 0.0
O634 O 0.32582 0.34956 0.83481 0.0
O635 O 0.37173 0.25335 0.778 0.0
O636 O 0.36096 0.33601 0.77376 0.0
O637 O 0.33477 0.36624 0.8023 0.0
O638 O 0.25387 0.32369 0.82352 0.0
O639 O 0.2991 0.32142 0.74501 0.0
O640 O 0.32075 0.2792 0.74933 0.0
O641 O 0.26718 0.37098 0.8128 0.0
O642 O 0.28024 0.28985 0.8091 0.0
O643 O 0.30872 0.26042 0.78266 0.0
C644 C 0.33256 0.32954 0.85343 0.0
C645 C 0.41771 0.25771 0.75232 0.0
C646 C 0.4624 0.26387 0.72382 0.0
C647 C 0.46031 0.23146 0.72261 0.0
C648 C 0.41595 0.22542 0.75067 0.0
C649 C 0.43721 0.21244 0.73594 0.0
C650 C 0.44105 0.27696 0.73895 0.0
C651 C 0.35537 0.36334 0.78326 0.0
C652 C 0.39507 0.27095 0.76788 0.0
C653 C 0.41622 0.27642 0.91323 0.0
C654 C 0.43255 0.30803 0.91463 0.0
C655 C 0.30876 0.29758 0.73175 0.0
C656 C 0.21487 0.35106 0.82042 0.0
C657 C 0.16442 0.34091 0.83904 0.0
C658 C 0.15069 0.34885 0.80996 0.0
C659 C 0.2008 0.35891 0.7916 0.0
C660 C 0.19662 0.34191 0.84392 0.0
C661 C 0.16882 0.35768 0.7864 0.0
C662 C 0.28557 0.2627 0.79841 0.0
C663 C 0.24824 0.35138 0.82631 0.0
H664 H 0.47675 0.22082 0.71159 0.0
H665 H 0.3982 0.21017 0.76086 0.0
H666 H 0.43581 0.18755 0.73488 0.0
H667 H 0.44225 0.30184 0.73977 0.0
H668 H 0.12606 0.34878 0.80564 0.0
H669 H 0.21444 0.36614 0.77321 0.0
H670 H 0.20751 0.3353 0.86587 0.0
H671 H 0.15809 0.36384 0.76416 0.0
Tb672 Tb 0.08984 0.02679 0.5353 0.0
C673 C 1.02395 0.12921 0.59345 0.0
N674 N 1.01269 0.10626 0.56672 0.0
C675 C 0.96126 0.09563 0.58102 0.0
C676 C 1.0043 0.136 0.61544 0.0
C677 C 0.98172 0.08979 0.55995 0.0
C678 C 0.97263 0.11873 0.609 0.0
C679 C 0.06824 0.16934 0.62671 0.0
C680 C 0.05551 0.14553 0.59906 0.0
C681 C 0.04878 0.17622 0.64874 0.0
C682 C 1.0169 0.15955 0.64315 0.0
Tb683 Tb 0.04847 0.09717 0.53537 0.0
N684 N 0.07387 0.13732 0.57786 0.0
C685 C 0.10015 0.18543 0.63142 0.0
C686 C 0.10462 0.1541 0.58153 0.0
C687 C 0.11831 0.178 0.6085 0.0
H688 H 0.97263 0.07276 0.53783 0.0
H689 H 0.14282 0.19088 0.61142 0.0
H690 H 0.1607 0.05192 0.51726 0.0
H691 H 0.98605 0.93533 0.47157 0.0
H692 H 0.11878 0.14991 0.56366 0.0
H693 H 0.11085 0.20391 0.65233 0.0
H694 H 1.01813 0.97394 0.5182 0.0
H695 H 0.93673 0.08245 0.57556 0.0
H696 H 0.05816 0.19434 0.67021 0.0
H697 H 1.00219 0.16506 0.6604 0.0
H698 H 0.18819 0.04098 0.47166 0.0
H699 H 0.95674 0.12319 0.62533 0.0
H700 H 1.00859 0.92351 0.42225 0.0
N701 N 0.11771 1.01824 0.49502 0.0
C702 C 0.10226 0.99524 0.46922 0.0
C703 C 0.16398 0.02804 0.4706 0.0
C704 C 0.11705 0.98814 0.44265 0.0
C705 C 0.14825 0.03444 0.49625 0.0
C706 C 0.14831 1.00483 0.44365 0.0
N707 N 0.05717 0.98846 0.49442 0.0
C708 C 1.02764 0.97136 0.49626 0.0
C709 C 0.05377 0.95699 0.44175 0.0
C710 C 0.07088 0.98018 0.46868 0.0
C711 C 1.02255 0.94149 0.44242 0.0
C712 C 1.00964 0.94833 0.47007 0.0
H713 H 0.16049 1.00011 0.42368 0.0
H714 H 0.11087 0.95958 0.39497 0.0
H715 H 0.05557 0.93211 0.39429 0.0
O716 O 0.08196 0.98628 0.55767 0.0
O717 O 0.08052 0.04517 0.48941 0.0
O718 O 0.03471 0.05759 0.49468 0.0
O719 O 0.12933 1.01111 0.55234 0.0
O720 O 0.04687 0.02246 0.55641 0.0
O721 O 1.0178 0.04933 0.52688 0.0
O722 O 0.06204 0.13101 0.50483 0.0
O723 O 0.06219 0.08535 0.58409 0.0
O724 O 0.10325 0.06201 0.58045 0.0
O725 O 1.01341 0.11526 0.51272 0.0
O726 O 0.09468 0.1036 0.52091 0.0
O727 O 0.12293 0.07355 0.54738 0.0
C728 C 0.05476 0.05169 0.47626 0.0
C729 C 0.12486 0.96486 0.57858 0.0
C730 C 0.11777 0.92006 0.60748 0.0
C731 C 0.15025 0.92247 0.61065 0.0
C732 C 0.15719 0.96694 0.58193 0.0
C733 C 0.16977 0.94576 0.59788 0.0
C734 C 0.10517 0.94131 0.59126 0.0
C735 C 1.02006 0.02911 0.54687 0.0
C736 C 0.11188 0.9877 0.56262 0.0
C737 C 0.09996 0.96529 0.41569 0.0
C738 C 0.06842 0.94975 0.41524 0.0
C739 C 0.08544 0.0748 0.59768 0.0
C740 C 1.02178 0.15105 0.47443 0.0
C741 C 0.03318 0.1917 0.44069 0.0
C742 C 1.00139 0.18252 0.4252 0.0
C743 C 0.99012 0.14222 0.45882 0.0
C744 C 0.04326 0.1759 0.46543 0.0
C745 C 0.98001 0.15796 0.43434 0.0
C746 C 0.12136 0.0972 0.5317 0.0
C747 C 0.03286 0.1321 0.49738 0.0
H748 H 0.16051 0.90616 0.6228 0.0
H749 H 0.17279 0.98497 0.57233 0.0
H750 H 0.19473 0.94744 0.6004 0.0
H751 H 0.08023 0.93989 0.58917 0.0
H752 H 0.99293 0.19481 0.40652 0.0
H753 H 0.97331 0.12269 0.46502 0.0
H754 H 0.0678 0.18266 0.47725 0.0
H755 H 0.95557 0.15106 0.42235 0.0
Tb756 Tb 0.31247 0.84735 0.76015 0.0
C757 C 0.26903 0.75207 0.86179 0.0
N758 N 0.29819 0.76878 0.85872 0.0
C759 C 0.31239 0.78352 0.9171 0.0
C760 C 0.25996 0.75181 0.89269 0.0
C761 C 0.32062 0.78212 0.88606 0.0
C762 C 0.2817 0.7689 0.92038 0.0
C763 C 0.22068 0.71178 0.83722 0.0
C764 C 0.24939 0.73241 0.83434 0.0
C765 C 0.21074 0.71301 0.86758 0.0
C766 C 0.23025 0.73309 0.89522 0.0
Tb767 Tb 0.30678 0.76544 0.80597 0.0
N768 N 0.25946 0.73182 0.80522 0.0
C769 C 0.20334 0.68991 0.80967 0.0
C770 C 0.24417 0.70885 0.77914 0.0
C771 C 0.21544 0.68808 0.78065 0.0
H772 H 0.34491 0.79188 0.88408 0.0
H773 H 0.20285 0.67047 0.75962 0.0
H774 H 0.32271 0.8309 0.68135 0.0
H775 H 0.37801 0.94192 0.85819 0.0
H776 H 0.25421 0.70679 0.7573 0.0
H777 H 0.18115 0.67368 0.81087 0.0
H778 H 0.3315 0.89991 0.82904 0.0
H779 H 0.32991 0.79528 0.93854 0.0
H780 H 0.18848 0.69775 0.87017 0.0
H781 H 0.22275 0.7329 0.91872 0.0
H782 H 0.36461 0.84596 0.65022 0.0
H783 H 0.27558 0.76944 0.94453 0.0
H784 H 0.424 0.95784 0.83117 0.0
N785 N 0.3488 0.85962 0.72663 0.0
C786 C 0.37484 0.88347 0.74044 0.0
C787 C 0.36808 0.85626 0.67577 0.0
C788 C 0.39926 0.89337 0.72286 0.0
C789 C 0.3445 0.84722 0.69407 0.0
C790 C 0.39582 0.87902 0.69035 0.0
N791 N 0.35263 0.88876 0.78832 0.0
C792 C 0.35229 0.90496 0.81819 0.0
C793 C 0.40323 0.92358 0.78709 0.0
C794 C 0.37676 0.89854 0.77217 0.0
C795 C 0.404 0.93866 0.81878 0.0
C796 C 0.37822 0.92957 0.83422 0.0
H797 H 0.41398 0.88606 0.67601 0.0
H798 H 0.44509 0.92538 0.72492 0.0
H799 H 0.44868 0.95166 0.78123 0.0
O800 O 0.29912 0.88984 0.76761 0.0
O801 O 0.35803 0.83488 0.77629 0.0
O802 O 0.35623 0.79229 0.80586 0.0
O803 O 0.28777 0.8596 0.71936 0.0
O804 O 0.30036 0.83921 0.80813 0.0
O805 O 0.32973 0.8107 0.83479 0.0
O806 O 0.32364 0.73369 0.77583 0.0
O807 O 0.25963 0.7728 0.78617 0.0
O808 O 0.26375 0.82124 0.76608 0.0
O809 O 0.3182 0.72754 0.82503 0.0
O810 O 0.3035 0.78817 0.7659 0.0
O811 O 0.30321 0.80661 0.72199 0.0
C812 C 0.37157 0.81587 0.79232 0.0
C813 C 0.2712 0.90797 0.72326 0.0
C814 C 0.24465 0.94951 0.7309 0.0
C815 C 0.24234 0.95123 0.69739 0.0
C816 C 0.26859 0.90959 0.68983 0.0
C817 C 0.25424 0.93127 0.67699 0.0
C818 C 0.25921 0.92787 0.74372 0.0
C819 C 0.32041 0.83648 0.83318 0.0
C820 C 0.28643 0.88561 0.73689 0.0
C821 C 0.42601 0.91769 0.73798 0.0
C822 C 0.42802 0.93271 0.77002 0.0
C823 C 0.24705 0.79481 0.77447 0.0
C824 C 0.36234 0.71714 0.80827 0.0
C825 C 0.40037 0.68644 0.80649 0.0
C826 C 0.42307 0.71108 0.82791 0.0
C827 C 0.38461 0.74105 0.83109 0.0
C828 C 0.37025 0.6899 0.79613 0.0
C829 C 0.41511 0.73832 0.84017 0.0
C830 C 0.30274 0.78204 0.73495 0.0
C831 C 0.32996 0.71895 0.79985 0.0
H832 H 0.23092 0.96767 0.68692 0.0
H833 H 0.27784 0.8943 0.67375 0.0
H834 H 0.25227 0.93257 0.65119 0.0
H835 H 0.26123 0.9266 0.7696 0.0
H836 H 0.44648 0.70869 0.83623 0.0
H837 H 0.37841 0.76152 0.84244 0.0
H838 H 0.35269 0.67098 0.7795 0.0
H839 H 0.4323 0.75694 0.85737 0.0
Tb840 Tb 0.58269 0.10345 0.01181 0.0
C841 C 0.63893 0.02857 0.11065 0.0
N842 N 0.61447 1.0137 0.08613 0.0
C843 C 0.63674 0.96981 0.07698 0.0
C844 C 0.66426 1.01522 0.11826 0.0
C845 C 0.61232 0.98418 0.07014 0.0
C846 C 0.66308 0.98561 0.10081 0.0
C847 C 0.66293 0.07279 0.15447 0.0
C848 C 0.63817 0.05706 0.1283 0.0
C849 C 0.68899 0.06035 0.16125 0.0
C850 C 0.68961 0.03159 0.14324 0.0
Tb851 Tb 0.57728 0.03979 0.07457 0.0
N852 N 0.61245 0.06833 0.12093 0.0
C853 C 0.66023 0.09984 0.17383 0.0
C854 C 0.60828 0.09241 0.14244 0.0
C855 C 0.63239 0.10915 0.16833 0.0
H856 H 0.59192 0.97182 0.05181 0.0
H857 H 0.62908 0.12871 0.18459 0.0
H858 H 0.54576 0.15448 0.04195 0.0
H859 H 0.58124 0.05693 0.88498 0.0
H860 H 0.58622 0.0982 0.14133 0.0
H861 H 0.6787 0.11262 0.19415 0.0
H862 H 0.60476 0.07396 0.94332 0.0
H863 H 0.63527 0.94663 0.06383 0.0
H864 H 0.70835 0.07233 0.18101 0.0
H865 H 0.7095 0.0219 0.14925 0.0
H866 H 0.49821 0.17196 0.02433 0.0
H867 H 0.68205 0.97448 0.10598 0.0
H868 H 0.52871 0.0638 0.86439 0.0
N869 N 0.5411 0.12375 0.99722 0.0
C870 C 0.52533 0.11348 0.96601 0.0
C871 C 0.50546 0.15536 0.00774 0.0
C872 C 0.49825 0.12305 0.95471 0.0
C873 C 0.53236 0.14543 0.01773 0.0
C874 C 0.48806 0.14379 0.97623 0.0
N875 N 0.56445 0.08726 0.95662 0.0
C876 C 0.58133 0.07618 0.93496 0.0
C877 C 0.52327 0.08575 0.91172 0.0
C878 C 0.53732 0.09448 0.94506 0.0
C879 C 0.53866 0.07079 0.89019 0.0
C880 C 0.56829 0.06686 0.90171 0.0
H881 H 0.46732 0.15166 0.96849 0.0
H882 H 0.46178 0.11924 0.91304 0.0
H883 H 0.48397 0.08695 0.87522 0.0
O884 O 0.62656 0.11953 0.99801 0.0
O885 O 0.53547 0.08531 0.02013 0.0
O886 O 0.54099 0.03846 0.03295 0.0
O887 O 0.59815 0.15145 0.00881 0.0
O888 O 0.58643 0.05561 0.99111 0.0
O889 O 0.58423 1.01869 0.02687 0.0
O890 O 0.56323 1.01908 0.11411 0.0
O891 O 0.62164 0.05442 0.05787 0.0
O892 O 0.61286 0.10125 0.05601 0.0
O893 O 0.54361 0.99579 0.06496 0.0
O894 O 0.55826 0.08133 0.08833 0.0
O895 O 0.5834 0.12231 0.06339 0.0
C896 C 0.52403 0.05855 0.02914 0.0
C897 C 0.62333 0.15681 0.9634 0.0
C898 C 0.64446 0.15417 0.9133 0.0
C899 C 0.62381 0.17076 0.90013 0.0
C900 C 0.60234 0.17311 0.94991 0.0
C901 C 0.6027 0.18006 0.9184 0.0
C902 C 0.64439 0.14744 0.94486 0.0
C903 C 0.58699 0.02726 0.9981 0.0
C904 C 0.62182 0.14719 0.99551 0.0
C905 C 0.4828 0.11238 0.92213 0.0
C906 C 0.49536 0.09386 0.90064 0.0
C907 C 0.63256 0.08386 0.05606 0.0
C908 C 0.51019 0.99009 0.10315 0.0
C909 C 0.47353 1.00539 0.1357 0.0
C910 C 0.4516 0.97622 0.12266 0.0
C911 C 0.48826 0.9611 0.09042 0.0
C912 C 0.50225 1.01262 0.12468 0.0
C913 C 0.45899 0.95428 0.10008 0.0
C914 C 0.56583 0.11163 0.08474 0.0
C915 C 0.54189 0.99583 0.09549 0.0
H916 H 0.62397 0.17632 0.87569 0.0
H917 H 0.5854 0.18017 0.96344 0.0
H918 H 0.58651 0.19254 0.90809 0.0
H919 H 0.66059 0.13471 0.9548 0.0
H920 H 0.42971 0.96953 0.13151 0.0
H921 H 0.49413 0.94344 0.07376 0.0
H922 H 0.51912 0.03523 0.13432 0.0
H923 H 0.44278 0.93126 0.09142 0.0
Tb924 Tb 0.29751 0.27192 0.27055 0.0
C925 C 0.41801 0.3535 0.34134 0.0
N926 N 0.3888 0.34605 0.34955 0.0
C927 C 0.41157 0.33639 0.40163 0.0
C928 C 0.44476 0.3509 0.36226 0.0
C929 C 0.38593 0.34006 0.38042 0.0
C930 C 0.441 0.34116 0.39224 0.0
C931 C 0.45155 0.37607 0.30459 0.0
C932 C 0.42158 0.36626 0.31303 0.0
C933 C 0.47798 0.37212 0.32463 0.0
C934 C 0.47459 0.35957 0.35338 0.0
Tb935 Tb 0.34946 0.35422 0.31224 0.0
N936 N 0.39545 0.36917 0.29375 0.0
C937 C 0.45405 0.38989 0.27647 0.0
C938 C 0.39784 0.38403 0.26725 0.0
C939 C 0.42711 0.39418 0.25792 0.0
H940 H 0.36454 0.33966 0.3898 0.0
H941 H 0.4289 0.40544 0.23654 0.0
H942 H 0.26248 0.29072 0.20432 0.0
H943 H 0.25145 0.20003 0.35722 0.0
H944 H 0.37717 0.38799 0.25335 0.0
H945 H 0.47669 0.39775 0.26916 0.0
H946 H 0.29239 0.22525 0.32816 0.0
H947 H 0.40884 0.33095 0.42569 0.0
H948 H 0.50122 0.37928 0.31845 0.0
H949 H 0.49534 0.35752 0.36908 0.0
H950 H 0.20795 0.28566 0.17724 0.0
H951 H 0.46097 0.33897 0.40905 0.0
H952 H 0.19609 0.2008 0.33986 0.0
N953 N 0.24857 0.27168 0.24572 0.0
C954 C 0.22429 0.25669 0.25916 0.0
C955 C 0.21224 0.27785 0.2005 0.0
C956 C 0.19283 0.25324 0.2446 0.0
C957 C 0.24308 0.28094 0.21601 0.0
C958 C 0.18699 0.26429 0.21505 0.0
N959 N 0.26182 0.24517 0.29837 0.0
C960 C 0.26889 0.22799 0.32197 0.0
C961 C 0.20664 0.22796 0.30147 0.0
C962 C 0.23122 0.24398 0.28703 0.0
C963 C 0.21428 0.21321 0.32796 0.0
C964 C 0.24549 0.21278 0.33789 0.0
H965 H 0.16311 0.26187 0.20294 0.0
H966 H 0.14396 0.23578 0.24902 0.0
H967 H 0.15604 0.2139 0.29901 0.0
O968 O 0.28177 0.22292 0.25502 0.0
O969 O 0.27198 0.3101 0.27807 0.0
O970 O 0.30053 0.34484 0.3236 0.0
O971 O 0.30363 0.25328 0.22402 0.0
O972 O 0.32287 0.27498 0.3207 0.0
O973 O 0.32417 0.32513 0.34342 0.0
O974 O 0.3432 0.39895 0.30643 0.0
O975 O 0.36995 0.32366 0.27943 0.0
O976 O 0.34847 0.27353 0.2869 0.0
O977 O 0.37284 0.3926 0.34897 0.0
O978 O 0.32416 0.35366 0.26266 0.0
O979 O 0.31853 0.30248 0.23837 0.0
C980 C 0.27294 0.33054 0.30448 0.0
C981 C 0.31371 0.20386 0.22151 0.0
C982 C 0.3443 0.16881 0.23968 0.0
C983 C 0.35535 0.16693 0.2099 0.0
C984 C 0.32443 0.20166 0.19158 0.0
C985 C 0.34533 0.18332 0.18589 0.0
C986 C 0.32383 0.18747 0.24547 0.0
C987 C 0.32147 0.29536 0.34584 0.0
C988 C 0.29315 0.2243 0.22817 0.0
C989 C 0.16833 0.23836 0.25961 0.0
C990 C 0.17523 0.22596 0.28812 0.0
C991 C 0.37274 0.29481 0.28088 0.0
C992 C 0.34426 0.42998 0.35659 0.0
C993 C 0.31924 0.47257 0.36351 0.0
C994 C 0.31416 0.46605 0.3945 0.0
C995 C 0.33875 0.42293 0.38742 0.0
C996 C 0.33485 0.4549 0.3451 0.0
C997 C 0.32399 0.44123 0.40641 0.0
C998 C 0.32097 0.33232 0.23647 0.0
C999 C 0.35935 0.41177 0.33546 0.0
H1000 H 0.37116 0.15236 0.20502 0.0
H1001 H 0.31689 0.21437 0.17283 0.0
H1002 H 0.35367 0.18171 0.16285 0.0
H1003 H 0.31606 0.18928 0.26888 0.0
H1004 H 0.30214 0.47967 0.40908 0.0
H1005 H 0.34575 0.40346 0.3968 0.0
H1006 H 0.33938 0.46032 0.32139 0.0
H1007 H 0.31989 0.43598 0.43019 0.0
Tb1008 Tb 0.58841 0.52447 0.03731 0.0
C1009 C 0.53206 0.62604 0.10413 0.0
N1010 N 0.51996 0.60425 0.0765 0.0
C1011 C 0.46938 0.59287 0.09297 0.0
C1012 C 0.51354 0.63124 0.12791 0.0
C1013 C 0.48852 0.58927 0.06975 0.0
C1014 C 0.48209 0.61356 0.12246 0.0
C1015 C 0.57535 0.66926 0.13449 0.0
C1016 C 0.56253 0.64469 0.10755 0.0
C1017 C 0.5574 0.6738 0.15883 0.0
C1018 C 0.52662 0.65472 0.15563 0.0
Tb1019 Tb 0.55404 0.60018 0.04098 0.0
N1020 N 0.57954 0.63893 0.0841 0.0
C1021 C 0.60576 0.68849 0.13602 0.0
C1022 C 0.60857 0.65856 0.08454 0.0
C1023 C 0.62232 0.68328 0.11075 0.0
H1024 H 0.47773 0.57529 0.04611 0.0
H1025 H 0.64557 0.6984 0.11135 0.0
H1026 H 0.6591 0.54785 0.01889 0.0
H1027 H 0.48409 0.4323 0.97633 0.0
H1028 H 0.62112 0.6551 0.06473 0.0
H1029 H 0.61648 0.70762 0.15632 0.0
H1030 H 0.51684 0.47145 0.02238 0.0
H1031 H 0.44466 0.58031 0.08773 0.0
H1032 H 0.56694 0.69227 0.17997 0.0
H1033 H 0.51281 0.6589 0.17427 0.0
H1034 H 0.68574 0.53652 0.97271 0.0
H1035 H 0.46707 0.61675 0.14016 0.0
H1036 H 0.50544 0.4204 0.92618 0.0
N1037 N 0.61521 0.51577 0.99633 0.0
C1038 C 0.5993 0.49278 0.97073 0.0
C1039 C 0.66134 0.52423 0.97172 0.0
C1040 C 0.6136 0.48535 0.9439 0.0
C1041 C 0.64607 0.53089 0.99769 0.0
C1042 C 0.64499 0.50151 0.94459 0.0
N1043 N 0.55532 0.4854 0.99759 0.0
C1044 C 0.52595 0.46843 1.00015 0.0
C1045 C 0.55064 0.45418 0.94451 0.0
C1046 C 0.56818 0.47754 0.97108 0.0
C1047 C 0.51972 0.43846 0.9461 0.0
C1048 C 0.50751 0.4453 0.97427 0.0
H1049 H 0.65684 0.49652 0.92443 0.0
H1050 H 0.60655 0.45652 0.89622 0.0
H1051 H 0.55146 0.42916 0.89677 0.0
O1052 O 0.58756 0.47959 0.04804 0.0
O1053 O 0.57999 0.54446 0.99237 0.0
O1054 O 0.53673 0.56327 0.99715 0.0
O1055 O 0.62967 0.51902 0.06601 0.0
O1056 O 0.54447 0.52138 0.05595 0.0
O1057 O 0.51891 0.55408 0.0307 0.0
O1058 O 0.56969 0.63553 0.01384 0.0
O1059 O 0.5857 0.59501 0.08489 0.0
O1060 O 0.57588 0.54161 0.08362 0.0
O1061 O 0.52323 0.62723 0.02589 0.0
O1062 O 0.59689 0.60117 0.02159 0.0
O1063 O 0.62351 0.57081 0.04926 0.0
C1064 C 0.55483 0.55209 0.979 0.0
C1065 C 0.62984 0.46758 0.08202 0.0
C1066 C 0.62379 0.42242 0.11064 0.0
C1067 C 0.65679 0.42801 0.11712 0.0
C1068 C 0.66263 0.47294 0.08891 0.0
C1069 C 0.676 0.45307 0.10625 0.0
C1070 C 0.61044 0.44223 0.09275 0.0
C1071 C 0.5189 0.53045 0.04684 0.0
C1072 C 0.61586 0.48929 0.06516 0.0
C1073 C 0.59605 0.46244 0.91719 0.0
C1074 C 0.56464 0.44694 0.91747 0.0
C1075 C 0.58456 0.5705 0.09998 0.0
C1076 C 0.53178 0.64904 0.97799 0.0
C1077 C 0.53707 0.68465 0.93814 0.0
C1078 C 0.51059 0.66381 0.91725 0.0
C1079 C 0.50528 0.62858 0.95716 0.0
C1080 C 0.54784 0.67653 0.96814 0.0
C1081 C 0.49501 0.63582 0.92667 0.0
C1082 C 0.62314 0.59526 0.03428 0.0
C1083 C 0.54326 0.64339 0.01058 0.0
H1084 H 0.66778 0.41291 0.13049 0.0
H1085 H 0.67787 0.49248 0.08095 0.0
H1086 H 0.70136 0.45721 0.11144 0.0
H1087 H 0.58508 0.43858 0.08817 0.0
H1088 H 0.50126 0.66959 0.89418 0.0
H1089 H 0.49245 0.60735 0.96459 0.0
H1090 H 0.56853 0.69199 0.98437 0.0
H1091 H 0.47446 0.62009 0.91062 0.0
Tb1092 Tb 0.81314 0.34161 0.27072 0.0
C1093 C 0.7531 0.23494 0.34523 0.0
N1094 N 0.77941 0.25968 0.35219 0.0
C1095 C 0.76914 0.27255 0.40634 0.0
C1096 C 0.73332 0.22871 0.36844 0.0
C1097 C 0.78797 0.27802 0.38257 0.0
C1098 C 0.74162 0.24792 0.39922 0.0
C1099 C 0.71752 0.19148 0.30582 0.0
C1100 C 0.74537 0.21636 0.31425 0.0
C1101 C 0.6979 0.1852 0.32897 0.0
C1102 C 0.7058 0.2037 0.36018 0.0
Tb1103 Tb 0.80883 0.26365 0.31168 0.0
N1104 N 0.76447 0.22345 0.29206 0.0
C1105 C 0.70998 0.17385 0.27423 0.0
C1106 C 0.75739 0.20593 0.26133 0.0
C1107 C 0.73002 0.1811 0.25193 0.0
H1108 H 0.80974 0.29632 0.3893 0.0
H1109 H 0.72448 0.16746 0.2275 0.0
H1110 H 0.7837 0.31155 0.19282 0.0
H1111 H 0.90727 0.44407 0.32935 0.0
H1112 H 0.77263 0.21053 0.24378 0.0
H1113 H 0.68876 0.15461 0.26681 0.0
H1114 H 0.85958 0.40071 0.32712 0.0
H1115 H 0.77605 0.28716 0.43031 0.0
H1116 H 0.67644 0.16618 0.32291 0.0
H1117 H 0.69033 0.1986 0.37771 0.0
H1118 H 0.79998 0.31837 0.13932 0.0
H1119 H 0.72708 0.24381 0.41774 0.0
H1120 H 0.92997 0.45126 0.27933 0.0
N1121 N 0.82409 0.34603 0.22007 0.0
C1122 C 0.85114 0.36807 0.21951 0.0
C1123 C 0.81456 0.33244 0.1617 0.0
C1124 C 0.86112 0.373 0.18972 0.0
C1125 C 0.80535 0.32868 0.19182 0.0
C1126 C 0.84266 0.35454 0.16065 0.0
N1127 N 0.85626 0.38314 0.27672 0.0
C1128 C 0.86943 0.40376 0.30526 0.0
C1129 C 0.89457 0.41186 0.24877 0.0
C1130 C 0.86773 0.38725 0.24874 0.0
C1131 C 0.90921 0.43212 0.27828 0.0
C1132 C 0.8964 0.42823 0.30657 0.0
H1133 H 0.84956 0.3576 0.13725 0.0
H1134 H 0.89674 0.40083 0.16718 0.0
H1135 H 0.92595 0.4348 0.21879 0.0
O1136 O 0.80113 0.38083 0.2939 0.0
O1137 O 0.86161 0.34085 0.29476 0.0
O1138 O 0.85757 0.28996 0.30738 0.0
O1139 O 0.77985 0.3591 0.24364 0.0
O1140 O 0.80145 0.33307 0.31734 0.0
O1141 O 0.83268 0.30779 0.34328 0.0
O1142 O 0.8259 0.22317 0.30002 0.0
O1143 O 0.76449 0.27909 0.30327 0.0
O1144 O 0.76873 0.30241 0.25735 0.0
O1145 O 0.8274 0.24513 0.3504 0.0
O1146 O 0.80528 0.26208 0.25924 0.0
O1147 O 0.83151 0.30722 0.24431 0.0
C1148 C 0.87453 0.31786 0.30269 0.0
C1149 C 0.78547 0.41347 0.25854 0.0
C1150 C 0.76642 0.46039 0.26091 0.0
C1151 C 0.78799 0.4729 0.24138 0.0
C1152 C 0.80645 0.42571 0.23848 0.0
C1153 C 0.80801 0.45557 0.23033 0.0
C1154 C 0.76575 0.4309 0.26987 0.0
C1155 C 0.82308 0.33311 0.34141 0.0
C1156 C 0.78253 0.38227 0.2674 0.0
C1157 C 0.88859 0.39674 0.18983 0.0
C1158 C 0.90526 0.41611 0.21925 0.0
C1159 C 0.75129 0.28935 0.27786 0.0
C1160 C 0.84845 0.20026 0.34513 0.0
C1161 C 0.87293 0.15709 0.33922 0.0
C1162 C 0.87755 0.15817 0.37323 0.0
C1163 C 0.85316 0.20114 0.3792 0.0
C1164 C 0.85864 0.17831 0.32512 0.0
C1165 C 0.86774 0.18022 0.39312 0.0
C1166 C 0.82717 0.27714 0.24497 0.0
C1167 C 0.83387 0.22304 0.33122 0.0
H1168 H 0.78878 0.49562 0.23396 0.0
H1169 H 0.82112 0.41221 0.2286 0.0
H1170 H 0.82427 0.46498 0.21489 0.0
H1171 H 0.74959 0.42128 0.28542 0.0
H1172 H 0.88886 0.14197 0.38436 0.0
H1173 H 0.84566 0.21806 0.39519 0.0
H1174 H 0.85528 0.17751 0.29884 0.0
H1175 H 0.8714 0.18108 0.41934 0.0
Tb1176 Tb 0.08035 0.6034 0.50507 0.0
C1177 C 0.1151 0.50791 0.60463 0.0
N1178 N 0.09228 0.5018 0.5777 0.0
C1179 C 0.10234 0.45184 0.56127 0.0
C1180 C 0.13314 0.48637 0.61053 0.0
C1181 C 0.08532 0.47414 0.55627 0.0
C1182 C 0.12642 0.45799 0.58848 0.0
C1183 C 0.14634 0.54478 0.65231 0.0
C1184 C 0.12147 0.53673 0.62524 0.0
C1185 C 0.1642 0.52325 0.65857 0.0
C1186 C 0.15759 0.4941 0.63778 0.0
Tb1187 Tb 0.06543 0.53883 0.57202 0.0
N1188 N 0.10422 0.55735 0.61778 0.0
C1189 C 0.15288 0.5744 0.672 0.0
C1190 C 0.11039 0.58618 0.63743 0.0
C1191 C 0.13477 0.59512 0.66453 0.0
H1192 H 0.06647 0.46914 0.53549 0.0
H1193 H 0.13951 0.61806 0.67972 0.0
H1194 H 0.06321 0.66936 0.53204 0.0
H1195 H 0.04146 0.52471 0.38698 0.0
H1196 H 0.09693 0.60279 0.6332 0.0
H1197 H 0.17185 0.58153 0.69297 0.0
H1198 H 0.07821 0.54907 0.43765 0.0
H1199 H 0.09688 0.42993 0.54415 0.0
H1200 H 0.1834 0.52905 0.67927 0.0
H1201 H 0.17178 0.47787 0.64275 0.0
H1202 H 1.0245 0.69865 0.51558 0.0
H1203 H 0.13975 0.44078 0.59216 0.0
H1204 H 0.99652 0.54635 0.3696 0.0
N1205 N 0.04781 0.63391 0.48968 0.0
C1206 C 1.02826 0.62374 0.46019 0.0
C1207 C 1.02513 0.67746 0.49988 0.0
C1208 C 1.00509 0.63909 0.45023 0.0
C1209 C 0.04697 0.66075 0.50924 0.0
C1210 C 1.00382 0.66639 0.47042 0.0
N1211 N 0.05211 0.5816 0.45292 0.0
C1212 C 0.05769 0.55765 0.43231 0.0
C1213 C 1.00883 0.58361 0.41177 0.0
C1214 C 0.02992 0.59614 0.44159 0.0
C1215 C 1.01225 0.55675 0.39266 0.0
C1216 C 0.03736 0.54429 0.40255 0.0
H1217 H 0.98644 0.679 0.46359 0.0
H1218 H 0.96526 0.63748 0.41306 0.0
H1219 H 0.96865 0.589 0.37923 0.0
O1220 O 0.11803 0.61018 0.47948 0.0
O1221 O 0.02967 0.59009 0.5059 0.0
O1222 O 0.04888 0.56309 0.5366 0.0
O1223 O 0.10845 0.64957 0.50802 0.0
O1224 O 0.08918 0.55549 0.49345 0.0
O1225 O 0.05612 0.52045 0.51904 0.0
O1226 O 0.03912 0.53186 0.60868 0.0
O1227 O 0.11222 0.54887 0.56129 0.0
O1228 O 0.10678 0.59572 0.55037 0.0
O1229 O 1.02756 0.49725 0.5634 0.0
O1230 O 0.05812 0.58611 0.58759 0.0
O1231 O 0.07816 0.62499 0.55607 0.0
C1232 C 1.0233 0.56994 0.52468 0.0
C1233 C 0.12703 0.65756 0.45907 0.0
C1234 C 0.15012 0.66518 0.41078 0.0
C1235 C 0.13053 0.68485 0.40273 0.0
C1236 C 0.10743 0.67711 0.45088 0.0
C1237 C 0.10944 0.69089 0.42287 0.0
C1238 C 0.14863 0.65222 0.43937 0.0
C1239 C 0.07494 0.52634 0.49727 0.0
C1240 C 0.12443 0.64076 0.48672 0.0
C1241 C 0.98351 0.62624 0.421 0.0
C1242 C 0.98533 0.59853 0.40184 0.0
C1243 C 0.12408 0.57557 0.55227 0.0
C1244 C 0.99528 0.48708 0.60529 0.0
C1245 C 0.96384 0.48455 0.64791 0.0
C1246 C 0.94634 0.45413 0.63261 0.0
C1247 C 0.97782 0.45662 0.58991 0.0
C1248 C 0.98804 0.50088 0.63403 0.0
C1249 C 0.95327 0.44019 0.60364 0.0
C1250 C 0.06523 0.61575 0.5815 0.0
C1251 C 1.02103 0.50525 0.59205 0.0
H1252 H 0.13094 0.69494 0.38052 0.0
H1253 H 0.09045 0.68151 0.46578 0.0
H1254 H 0.09422 0.70579 0.41643 0.0
H1255 H 0.16392 0.63737 0.44607 0.0
H1256 H 0.928 0.4411 0.64354 0.0
H1257 H 0.98316 0.44561 0.56755 0.0
H1258 H 1.00115 0.52464 0.64576 0.0
H1259 H 0.93983 0.41661 0.59202 0.0
Tb1260 Tb 0.85651 0.79276 0.29408 0.0
C1261 C 0.75769 0.85961 0.23135 0.0
N1262 N 0.78033 0.87137 0.25844 0.0
C1263 C 0.7917 0.92227 0.24204 0.0
C1264 C 0.7514 0.87877 0.20821 0.0
C1265 C 0.79697 0.90234 0.26436 0.0
C1266 C 0.76892 0.9104 0.21374 0.0
C1267 C 0.71709 0.81506 0.19909 0.0
C1268 C 0.74089 0.82812 0.22679 0.0
C1269 C 0.71081 0.83402 0.17586 0.0
C1270 C 0.72795 0.86577 0.18038 0.0
Tb1271 Tb 0.78802 0.83645 0.29216 0.0
N1272 N 0.7484 0.81023 0.24929 0.0
C1273 C 0.70027 0.7834 0.19563 0.0
C1274 C 0.73071 0.7799 0.24694 0.0
C1275 C 0.70686 0.76588 0.2199 0.0
H1276 H 0.81368 0.91186 0.28672 0.0
H1277 H 0.69327 0.74167 0.21803 0.0
H1278 H 0.82868 0.72042 0.30886 0.0
H1279 H 0.94948 0.89293 0.3623 0.0
H1280 H 0.73396 0.76647 0.26603 0.0
H1281 H 0.68176 0.77247 0.17473 0.0
H1282 H 0.90976 0.864 0.31496 0.0
H1283 H 0.80504 0.94681 0.2468 0.0
H1284 H 0.69269 0.82438 0.15435 0.0
H1285 H 0.72282 0.88011 0.16226 0.0
H1286 H 0.83807 0.69002 0.3529 0.0
H1287 H 0.76486 0.92591 0.1965 0.0
H1288 H 0.96098 0.86676 0.40957 0.0
N1289 N 0.8633 0.76219 0.33284 0.0
C1290 C 0.88655 0.77594 0.35901 0.0
C1291 C 0.85175 0.71422 0.35503 0.0
C1292 C 0.89296 0.75936 0.38463 0.0
C1293 C 0.84614 0.73165 0.33031 0.0
C1294 C 0.87521 0.72814 0.38235 0.0
N1295 N 0.89511 0.82289 0.33613 0.0
C1296 C 0.91259 0.8528 0.3359 0.0
C1297 C 0.92636 0.8227 0.3882 0.0
C1298 C 0.90282 0.80734 0.36085 0.0
C1299 C 0.9427 0.85412 0.38902 0.0
C1300 C 0.93607 0.86906 0.36253 0.0
H1301 H 0.87938 0.71461 0.40155 0.0
H1302 H 0.92152 0.76232 0.43191 0.0
H1303 H 0.9509 0.81768 0.43494 0.0
O1304 O 0.89674 0.80099 0.27166 0.0
O1305 O 0.83982 0.80441 0.34012 0.0
O1306 O 0.82674 0.85044 0.33417 0.0
O1307 O 0.87205 0.75342 0.2773 0.0
O1308 O 0.86208 0.83624 0.27317 0.0
O1309 O 0.83593 0.86691 0.30125 0.0
O1310 O 0.75504 0.82479 0.32274 0.0
O1311 O 0.80032 0.82194 0.24414 0.0
O1312 O 0.82114 0.77931 0.24892 0.0
O1313 O 0.76813 0.87185 0.31136 0.0
O1314 O 0.78119 0.79086 0.30873 0.0
O1315 O 0.80915 0.76114 0.28201 0.0
C1316 C 0.83365 0.8305 0.35285 0.0
C1317 C 0.91779 0.75763 0.25133 0.0
C1318 C 0.96266 0.76399 0.22325 0.0
C1319 C 0.95996 0.73138 0.22092 0.0
C1320 C 0.91538 0.72514 0.24866 0.0
C1321 C 0.93643 0.71215 0.23355 0.0
C1322 C 0.94152 0.77705 0.23868 0.0
C1323 C 0.85672 0.86371 0.28251 0.0
C1324 C 0.89533 0.77095 0.26705 0.0
C1325 C 0.9163 0.77465 0.41193 0.0
C1326 C 0.93296 0.80621 0.41371 0.0
C1327 C 0.8097 0.79781 0.23108 0.0
C1328 C 0.71587 0.85192 0.3193 0.0
C1329 C 0.66549 0.84153 0.33808 0.0
C1330 C 0.65158 0.84924 0.30896 0.0
C1331 C 0.70163 0.85952 0.29042 0.0
C1332 C 0.69774 0.84277 0.34289 0.0
C1333 C 0.66958 0.85806 0.28529 0.0
C1334 C 0.78642 0.76363 0.29825 0.0
C1335 C 0.7493 0.85243 0.32515 0.0
H1336 H 0.97623 0.72075 0.20955 0.0
H1337 H 0.89725 0.70974 0.25826 0.0
H1338 H 0.93453 0.68709 0.23164 0.0
H1339 H 0.9432 0.8021 0.24028 0.0
H1340 H 0.6269 0.84899 0.30467 0.0
H1341 H 0.71516 0.86671 0.27193 0.0
H1342 H 0.70879 0.8363 0.36486 0.0
H1343 H 0.65871 0.86404 0.26301 0.0
Tb1344 Tb 0.77958 0.29131 0.81833 0.0
C1345 C 0.8751 0.28643 0.7271 0.0
N1346 N 0.88016 0.29847 0.75948 0.0
C1347 C 0.91815 0.26892 0.77049 0.0
C1348 C 0.89056 0.2641 0.71531 0.0
C1349 C 0.90241 0.29115 0.78097 0.0
C1350 C 0.91186 0.25496 0.73759 0.0
C1351 C 0.85081 0.28693 0.6718 0.0
C1352 C 0.85485 0.29717 0.70582 0.0
C1353 C 0.86511 0.26372 0.65995 0.0
C1354 C 0.88481 0.25218 0.68169 0.0
Tb1355 Tb 0.85072 0.33202 0.77461 0.0
N1356 N 0.8412 0.31944 0.71824 0.0
C1357 C 0.83388 0.30145 0.65063 0.0
C1358 C 0.82723 0.33564 0.6974 0.0
C1359 C 0.82287 0.32654 0.66348 0.0
H1360 H 0.90764 0.30216 0.80621 0.0
H1361 H 0.81117 0.33907 0.64729 0.0
H1362 H 0.71273 0.30857 0.79305 0.0
H1363 H 0.84624 0.31347 0.94253 0.0
H1364 H 0.81939 0.35584 0.7067 0.0
H1365 H 0.83055 0.29453 0.62434 0.0
H1366 H 0.82301 0.28219 0.88812 0.0
H1367 H 0.93519 0.26265 0.78778 0.0
H1368 H 0.86186 0.25523 0.63394 0.0
H1369 H 0.89624 0.23479 0.67217 0.0
H1370 H 0.68318 0.34628 0.81145 0.0
H1371 H 0.92416 0.2378 0.72951 0.0
H1372 H 0.82899 0.36096 0.96108 0.0
N1373 N 0.74873 0.32298 0.83534 0.0
C1374 C 0.75905 0.3416 0.86518 0.0
C1375 C 0.70457 0.34529 0.82677 0.0
C1376 C 0.74322 0.36373 0.87653 0.0
C1377 C 0.72128 0.3239 0.81647 0.0
C1378 C 0.71578 0.36558 0.85677 0.0
N1379 N 0.79899 0.31539 0.87238 0.0
C1380 C 0.81797 0.30455 0.89431 0.0
C1381 C 0.79637 0.35581 0.91593 0.0
C1382 C 0.78565 0.3382 0.88405 0.0
C1383 C 0.82009 0.34813 0.9364 0.0
C1384 C 0.83007 0.32154 0.92593 0.0
H1385 H 0.70287 0.38225 0.86461 0.0
H1386 H 0.7435 0.40036 0.91635 0.0
H1387 H 0.78988 0.39307 0.95118 0.0
O1388 O 0.77038 0.24932 0.83792 0.0
O1389 O 0.78399 0.33972 0.81149 0.0
O1390 O 0.8364 0.3512 0.81857 0.0
O1391 O 0.73272 0.26386 0.81259 0.0
O1392 O 0.82765 0.28341 0.83293 0.0
O1393 O 0.86338 0.32863 0.82635 0.0
O1394 O 0.8633 0.37866 0.76552 0.0
O1395 O 0.83865 0.28146 0.77393 0.0
O1396 O 0.78542 0.2659 0.77239 0.0
O1397 O 0.89858 0.35662 0.78405 0.0
O1398 O 0.80248 0.33307 0.75138 0.0
O1399 O 0.76247 0.2957 0.76722 0.0
C1400 C 0.81078 0.36053 0.81719 0.0
C1401 C 0.72531 0.24683 0.86208 0.0
C1402 C 0.73031 0.25045 0.92108 0.0
C1403 C 0.69954 0.25412 0.91905 0.0
C1404 C 0.69438 0.24987 0.86023 0.0
C1405 C 0.68168 0.2537 0.88867 0.0
C1406 C 0.7431 0.24741 0.89262 0.0
C1407 C 0.85654 0.303 0.83979 0.0
C1408 C 0.74021 0.2462 0.83292 0.0
C1409 C 0.75512 0.38297 0.90726 0.0
C1410 C 0.78167 0.37898 0.92698 0.0
C1411 C 0.81105 0.26242 0.76194 0.0
C1412 C 0.91013 0.38658 0.74337 0.0
C1413 C 0.90665 0.38821 0.68533 0.0
C1414 C 0.93767 0.38537 0.68725 0.0
C1415 C 0.9412 0.38395 0.74511 0.0
C1416 C 0.89371 0.39039 0.71373 0.0
C1417 C 0.95501 0.38379 0.71718 0.0
C1418 C 0.77274 0.316 0.7478 0.0
C1419 C 0.89327 0.38005 0.77054 0.0
H1420 H 0.68882 0.25588 0.94063 0.0
H1421 H 0.68028 0.24984 0.83692 0.0
H1422 H 0.65784 0.25601 0.88713 0.0
H1423 H 0.76709 0.24542 0.8944 0.0
H1424 H 0.94851 0.38452 0.66567 0.0
H1425 H 0.95435 0.38091 0.76776 0.0
H1426 H 0.87003 0.39314 0.71221 0.0
H1427 H 0.97885 0.38148 0.71855 0.0
Tb1428 Tb 0.79381 0.76977 0.76836 0.0
C1429 C 0.91426 0.85087 0.84024 0.0
N1430 N 0.885 0.84363 0.84834 0.0
C1431 C 0.90744 0.83391 0.90052 0.0
C1432 C 0.94086 0.84808 0.86126 0.0
C1433 C 0.88197 0.83778 0.87921 0.0
C1434 C 0.93689 0.83838 0.89121 0.0
C1435 C 0.94809 0.87342 0.80376 0.0
C1436 C 0.91803 0.86366 0.81201 0.0
C1437 C 0.97437 0.86923 0.82383 0.0
C1438 C 0.97076 0.85657 0.85249 0.0
Tb1439 Tb 0.84582 0.85177 0.81081 0.0
N1440 N 0.89204 0.8668 0.79272 0.0
C1441 C 0.95081 0.88747 0.7758 0.0
C1442 C 0.89466 0.88192 0.76641 0.0
C1443 C 0.92402 0.89206 0.75726 0.0
H1444 H 0.86053 0.83756 0.88846 0.0
H1445 H 0.92599 0.90352 0.73604 0.0
H1446 H 0.75922 0.78877 0.7021 0.0
H1447 H 0.74705 0.69792 0.85478 0.0
H1448 H 0.87411 0.88611 0.75252 0.0
H1449 H 0.97353 0.89532 0.76863 0.0
H1450 H 0.78817 0.72281 0.82581 0.0
H1451 H 0.90456 0.82853 0.92456 0.0
H1452 H 0.99767 0.87632 0.81777 0.0
H1453 H 0.9914 0.85436 0.86823 0.0
H1454 H 0.7048 0.78395 0.67486 0.0
H1455 H 0.95674 0.83604 0.90809 0.0
H1456 H 0.69189 0.69936 0.83752 0.0
N1457 N 0.74509 0.77015 0.74363 0.0
C1458 C 0.72073 0.75537 0.75708 0.0
C1459 C 0.70897 0.77627 0.69822 0.0
C1460 C 0.68932 0.75202 0.74241 0.0
C1461 C 0.73975 0.77926 0.71382 0.0
C1462 C 0.68363 0.76296 0.71276 0.0
N1463 N 0.758 0.74339 0.79629 0.0
C1464 C 0.76481 0.72594 0.81972 0.0
C1465 C 0.70277 0.72665 0.79931 0.0
C1466 C 0.72749 0.74257 0.78498 0.0
C1467 C 0.71018 0.7117 0.82571 0.0
C1468 C 0.74129 0.71089 0.83558 0.0
H1469 H 0.65979 0.76058 0.70055 0.0
H1470 H 0.64038 0.73479 0.74668 0.0
H1471 H 0.65215 0.71287 0.7967 0.0
O1472 O 0.77613 0.72113 0.75182 0.0
O1473 O 0.76897 0.80847 0.77574 0.0
O1474 O 0.79692 0.84189 0.82221 0.0
O1475 O 0.8012 0.75097 0.72236 0.0
O1476 O 0.81915 0.7721 0.81841 0.0
O1477 O 0.82054 0.82216 0.8416 0.0
O1478 O 0.83923 0.89633 0.80498 0.0
O1479 O 0.86618 0.82138 0.77789 0.0
O1480 O 0.84461 0.77109 0.78489 0.0
O1481 O 0.86901 0.89018 0.84757 0.0
O1482 O 0.82101 0.8516 0.76109 0.0
O1483 O 0.81493 0.80042 0.73636 0.0
C1484 C 0.7695 0.82801 0.80267 0.0
C1485 C 0.80682 0.69963 0.71877 0.0
C1486 C 0.83359 0.66176 0.73681 0.0
C1487 C 0.8428 0.65692 0.70633 0.0
C1488 C 0.81566 0.69466 0.68806 0.0
C1489 C 0.83374 0.67339 0.68194 0.0
C1490 C 0.816 0.68319 0.74308 0.0
C1491 C 0.81819 0.7924 0.84385 0.0
C1492 C 0.78836 0.72214 0.72548 0.0
C1493 C 0.66471 0.73729 0.75736 0.0
C1494 C 0.67143 0.72486 0.78589 0.0
C1495 C 0.86894 0.79253 0.77924 0.0
C1496 C 0.83997 0.92716 0.85504 0.0
C1497 C 0.81444 0.96933 0.86167 0.0
C1498 C 0.80944 0.96291 0.89271 0.0
C1499 C 0.83444 0.92008 0.88585 0.0
C1500 C 0.83026 0.95184 0.84339 0.0
C1501 C 0.81946 0.93823 0.90473 0.0
C1502 C 0.81791 0.83041 0.73479 0.0
C1503 C 0.85531 0.9092 0.83402 0.0
H1504 H 0.85644 0.64013 0.70133 0.0
H1505 H 0.80867 0.70728 0.66898 0.0
H1506 H 0.84056 0.66954 0.65827 0.0
H1507 H 0.80952 0.68689 0.76702 0.0
H1508 H 0.79725 0.97643 0.90718 0.0
H1509 H 0.8416 0.90071 0.8953 0.0
H1510 H 0.83474 0.95725 0.81965 0.0
H1511 H 0.8153 0.93294 0.92849 0.0
Tb1512 Tb 0.61313 0.58428 0.55964 0.0
C1513 C 0.52039 0.46559 0.488 0.0
N1514 N 0.53198 0.49475 0.48041 0.0
C1515 C 0.53909 0.47029 0.42833 0.0
C1516 C 0.51924 0.43776 0.46668 0.0
C1517 C 0.53925 0.49716 0.45 0.0
C1518 C 0.52958 0.44048 0.43692 0.0
C1519 C 0.49482 0.43394 0.5248 0.0
C1520 C 0.50793 0.46354 0.51648 0.0
C1521 C 0.49461 0.40625 0.50414 0.0
C1522 C 0.50674 0.40815 0.47514 0.0
Tb1523 Tb 0.52936 0.53629 0.51811 0.0
N1524 N 0.50904 0.4908 0.53627 0.0
C1525 C 0.48214 0.43314 0.55354 0.0
C1526 C 0.49543 0.49022 0.56349 0.0
C1527 C 0.48223 0.46142 0.57283 0.0
H1528 H 0.54349 0.51932 0.44124 0.0
H1529 H 0.47188 0.46104 0.5947 0.0
H1530 H 0.59585 0.61375 0.62929 0.0
H1531 H 0.67355 0.64065 0.47035 0.0
H1532 H 0.49442 0.51189 0.57783 0.0
H1533 H 0.47184 0.41085 0.56081 0.0
H1534 H 0.65388 0.59645 0.49839 0.0
H1535 H 0.54537 0.47255 0.40454 0.0
H1536 H 0.48472 0.38324 0.51014 0.0
H1537 H 0.50579 0.38655 0.45908 0.0
H1538 H 0.5985 0.6664 0.6592 0.0
H1539 H 0.52895 0.41967 0.4198 0.0
H1540 H 0.67109 0.6945 0.49228 0.0
N1541 N 0.61232 0.63144 0.58823 0.0
C1542 C 0.62504 0.65751 0.57571 0.0
C1543 C 0.60563 0.6642 0.63554 0.0
C1544 C 0.62689 0.68802 0.59188 0.0
C1545 C 0.60388 0.63437 0.6184 0.0
C1546 C 0.61684 0.69113 0.62207 0.0
N1547 N 0.63491 0.62343 0.53235 0.0
C1548 C 0.65011 0.61912 0.50661 0.0
C1549 C 0.64859 0.6797 0.53233 0.0
C1550 C 0.63571 0.65326 0.54631 0.0
C1551 C 0.6611 0.67483 0.50387 0.0
C1552 C 0.66237 0.64446 0.4913 0.0
H1553 H 0.61809 0.71421 0.63539 0.0
H1554 H 0.64026 0.73798 0.58944 0.0
H1555 H 0.65918 0.73073 0.53726 0.0
O1556 O 0.66262 0.59697 0.56861 0.0
O1557 O 0.57457 0.60976 0.55464 0.0
O1558 O 0.54145 0.58578 0.50713 0.0
O1559 O 0.63671 0.58315 0.60619 0.0
O1560 O 0.60922 0.55992 0.50921 0.0
O1561 O 0.55932 0.56055 0.4873 0.0
O1562 O 0.48665 0.54594 0.52604 0.0
O1563 O 0.55797 0.50969 0.54648 0.0
O1564 O 0.60978 0.53234 0.54491 0.0
O1565 O 0.49089 0.5201 0.47939 0.0
O1566 O 0.53407 0.55998 0.56913 0.0
O1567 O 0.58432 0.5595 0.59079 0.0
C1568 C 0.55611 0.61208 0.52787 0.0
C1569 C 0.68368 0.56863 0.60625 0.0
C1570 C 0.71706 0.53508 0.5912 0.0
C1571 C 0.71857 0.52604 0.62223 0.0
C1572 C 0.68566 0.55979 0.63733 0.0
C1573 C 0.70292 0.53842 0.64517 0.0
C1574 C 0.69945 0.55621 0.58328 0.0
C1575 C 0.58838 0.56126 0.48419 0.0
C1576 C 0.66424 0.5899 0.59786 0.0
C1577 C 0.63885 0.71431 0.57754 0.0
C1578 C 0.64953 0.71016 0.54776 0.0
C1579 C 0.58726 0.50738 0.54794 0.0
C1580 C 0.43983 0.52818 0.4837 0.0
C1581 C 0.39279 0.54536 0.48839 0.0
C1582 C 0.37824 0.52791 0.4574 0.0
C1583 C 0.42521 0.51019 0.45288 0.0
C1584 C 0.42335 0.5452 0.50146 0.0
C1585 C 0.39441 0.51004 0.43984 0.0
C1586 C 0.55529 0.55879 0.59407 0.0
C1587 C 0.47284 0.53136 0.49665 0.0
H1588 H 0.73236 0.50993 0.62894 0.0
H1589 H 0.6736 0.56918 0.65541 0.0
H1590 H 0.70428 0.53157 0.66911 0.0
H1591 H 0.69789 0.56266 0.55911 0.0
H1592 H 0.35462 0.52821 0.44692 0.0
H1593 H 0.4377 0.49678 0.43868 0.0
H1594 H 0.43479 0.55964 0.52498 0.0
H1595 H 0.38336 0.49658 0.4159 0.0
Tb1596 Tb 0.03524 0.55944 0.06836 0.0
C1597 C 0.13439 0.62097 0.9898 0.0
N1598 N 0.11013 0.59427 0.98195 0.0
C1599 C 0.09767 0.60544 0.92791 0.0
C1600 C 0.14092 0.64123 0.96688 0.0
C1601 C 0.09193 0.5861 0.95145 0.0
C1602 C 0.12226 0.6331 0.93562 0.0
C1603 C 0.17588 0.65717 0.03096 0.0
C1604 C 0.15171 0.62886 0.02163 0.0
C1605 C 0.18279 0.67711 0.00794 0.0
C1606 C 0.1654 0.66916 0.97603 0.0
Tb1607 Tb 0.10679 0.56367 0.02149 0.0
N1608 N 0.14379 0.60953 0.04373 0.0
C1609 C 0.19217 0.66478 0.06327 0.0
C1610 C 0.16033 0.61632 0.07492 0.0
C1611 C 0.18442 0.64422 0.08528 0.0
H1612 H 0.07378 0.56415 0.94474 0.0
H1613 H 0.19733 0.64963 0.11013 0.0
H1614 H 0.06359 0.57177 0.14799 0.0
H1615 H 0.93944 0.46884 0.99183 0.0
H1616 H 0.15588 0.60009 0.09171 0.0
H1617 H 0.21089 0.68635 0.07141 0.0
H1618 H 0.98062 0.51921 0.00485 0.0
H1619 H 0.08335 0.59883 0.9037 0.0
H1620 H 0.20134 0.69893 0.01468 0.0
H1621 H 0.17082 0.685 0.95871 0.0
H1622 H 0.0589 0.54193 0.19374 0.0
H1623 H 0.12658 0.64805 0.9173 0.0
H1624 H 0.93049 0.43534 0.03439 0.0
N1625 N 0.03248 0.53474 0.11283 0.0
C1626 C 1.00999 0.50683 0.10797 0.0
C1627 C 0.04546 0.53146 0.16959 0.0
C1628 C 1.00521 0.4895 0.13362 0.0
C1629 C 0.04903 0.54789 0.14344 0.0
C1630 C 1.02376 0.5019 0.16457 0.0
N1631 N 0.99714 0.51291 0.05288 0.0
C1632 C 0.9781 0.50415 0.02294 0.0
C1633 C 0.9674 0.4673 0.0713 0.0
C1634 C 0.99121 0.4959 0.07725 0.0
C1635 C 0.94902 0.45721 0.03999 0.0
C1636 C 0.95418 0.47591 0.01581 0.0
H1637 H 1.0208 0.48933 0.18495 0.0
H1638 H 0.97783 0.44702 0.1471 0.0
H1639 H 0.94482 0.42755 0.09254 0.0
O1640 O 0.99453 0.57546 0.05351 0.0
O1641 O 0.04481 0.5119 0.05463 0.0
O1642 O 0.07971 0.51365 0.01796 0.0
O1643 O 1.01536 0.57881 0.10492 0.0
O1644 O 0.03249 0.5703 0.01928 0.0
O1645 O 0.06067 0.54095 0.9935 0.0
O1646 O 0.15053 0.55252 0.0299 0.0
O1647 O 0.09031 0.60828 0.03002 0.0
O1648 O 0.06809 0.60779 0.07659 0.0
O1649 O 0.12308 0.54561 0.98052 0.0
O1650 O 0.11214 0.54966 0.06943 0.0
O1651 O 0.083 0.57841 0.09357 0.0
C1652 C 0.05976 0.49766 0.03447 0.0
C1653 C 0.96821 0.59549 0.09635 0.0
C1654 C 0.92697 0.62237 0.08871 0.0
C1655 C 0.92254 0.62054 0.12105 0.0
C1656 C 0.96342 0.59353 0.12855 0.0
C1657 C 0.94063 0.60602 0.14078 0.0
C1658 C 0.94966 0.60952 0.07628 0.0
C1659 C 0.03618 0.55223 0.99385 0.0
C1660 C 0.99277 0.58301 0.08424 0.0
C1661 C 0.98177 0.46074 0.12772 0.0
C1662 C 0.96289 0.4497 0.09666 0.0
C1663 C 0.08162 0.62355 0.05515 0.0
C1664 C 0.17283 0.53237 0.98455 0.0
C1665 C 0.21553 0.50706 0.98998 0.0
C1666 C 0.2169 0.50716 0.95668 0.0
C1667 C 0.17439 0.53247 0.95136 0.0
C1668 C 0.19367 0.52003 0.00391 0.0
C1669 C 0.1965 0.52001 0.93755 0.0
C1670 C 0.10301 0.56124 0.09545 0.0
C1671 C 0.14863 0.54381 0.9986 0.0
H1672 H 0.90492 0.6302 0.13096 0.0
H1673 H 0.97731 0.58237 0.14431 0.0
H1674 H 0.93706 0.60454 0.16561 0.0
H1675 H 0.95338 0.61119 0.05146 0.0
H1676 H 0.2338 0.49736 0.94551 0.0
H1677 H 0.15846 0.54205 0.93609 0.0
H1678 H 0.19212 0.51941 0.02944 0.0
H1679 H 0.19765 0.52006 0.91193 0.0
C1680 C 1.01199 0.18241 0.02242 0.0
C1681 C 0.03241 0.20496 0.00851 0.0
H1682 H 1.00151 0.1369 0.03849 0.0
C1683 C 0.05954 0.19629 1.00059 0.0
H1684 H 0.99065 0.18731 0.02879 0.0
C1685 C 0.06604 0.16717 0.0067 0.0
C1686 C 0.04557 0.14458 0.02053 0.0
H1687 H 0.07611 0.21224 0.98977 0.0
H1688 H 0.08722 0.16218 1.00001 0.0
C1689 C 1.01819 0.15299 0.02794 0.0
C1690 C 0.22792 0.82062 0.17137 0.0
C1691 C 0.20218 0.83188 0.17912 0.0
H1692 H 0.26839 0.80476 0.18864 0.0
C1693 C 0.19989 0.83765 0.21246 0.0
H1694 H 0.23036 0.8151 0.14608 0.0
C1695 C 0.22268 0.83274 0.23702 0.0
C1696 C 0.24825 0.82128 0.22922 0.0
H1697 H 0.18049 0.84611 0.21966 0.0
H1698 H 0.22049 0.83845 0.26225 0.0
C1699 C 0.25022 0.81505 0.19591 0.0
C1700 C 0.5305 0.90823 0.54137 0.0
C1701 C 0.544 0.89205 0.51821 0.0
H1702 H 0.52592 0.9526 0.56528 0.0
C1703 C 0.56366 0.91125 0.5007 0.0
H1704 H 0.51508 0.89494 0.55544 0.0
C1705 C 0.56936 0.94476 0.50597 0.0
C1706 C 0.55559 0.96091 0.52892 0.0
H1707 H 0.57445 0.90032 0.48238 0.0
H1708 H 0.58439 0.95804 0.49156 0.0
C1709 C 0.53631 0.94173 0.5467 0.0
C1710 C 0.51784 0.28815 0.66581 0.0
C1711 C 0.53725 0.31737 0.68289 0.0
H1712 H 0.47874 0.2489 0.66502 0.0
C1713 C 0.53028 0.33021 0.71257 0.0
H1714 H 0.52222 0.27763 0.6427 0.0
C1715 C 0.50517 0.31344 0.7255 0.0
C1716 C 0.48681 0.28355 0.709 0.0
H1717 H 0.54468 0.35273 0.7262 0.0
H1718 H 0.50092 0.3233 0.74895 0.0
C1719 C 0.49294 0.27153 0.67867 0.0
C1720 C 0.05067 0.85184 0.61604 0.0
C1721 C 0.06155 0.84582 0.64713 0.0
H1722 H 0.06 0.8804 0.57902 0.0
C1723 C 0.08977 0.86586 0.66577 0.0
H1724 H 0.02895 0.83692 0.60119 0.0
C1725 C 0.10745 0.89041 0.65311 0.0
C1726 C 0.09733 0.89564 0.62157 0.0
H1727 H 0.09884 0.86209 0.68991 0.0
H1728 H 0.12934 0.90508 0.66788 0.0
C1729 C 0.06836 0.87672 0.60341 0.0
C1730 C 0.45649 0.80548 0.80244 0.0
C1731 C 0.47552 0.8365 0.8145 0.0
H1732 H 0.4096 0.77484 0.78491 0.0
C1733 C 0.45973 0.86068 0.81706 0.0
H1734 H 0.46716 0.78584 0.80157 0.0
C1735 C 0.42651 0.85414 0.80891 0.0
C1736 C 0.40742 0.82309 0.79783 0.0
H1737 H 0.47297 0.8846 0.82791 0.0
H1738 H 0.41563 0.87322 0.81357 0.0
C1739 C 0.42317 0.799 0.79387 0.0
C1740 C 0.56238 0.19114 0.13068 0.0
C1741 C 0.54451 0.18222 0.15472 0.0
H1742 H 0.5841 0.1765 0.09113 0.0
C1743 C 0.53285 0.14969 0.15502 0.0
H1744 H 0.57233 0.2159 0.13002 0.0
C1745 C 0.53878 0.12679 0.13183 0.0
C1746 C 0.55755 0.13573 0.10839 0.0
H1747 H 0.51932 0.1419 0.1734 0.0
H1748 H 0.52931 0.10203 0.13287 0.0
C1749 C 0.56919 0.16835 0.10828 0.0
C1750 C 0.21403 0.3557 0.35649 0.0
C1751 C 0.18452 0.34797 0.33503 0.0
H1752 H 0.26343 0.35738 0.36432 0.0
C1753 C 0.18479 0.33511 0.30228 0.0
H1754 H 0.21564 0.36548 0.38192 0.0
C1755 C 0.21298 0.32982 0.29211 0.0
C1756 C 0.24231 0.33718 0.31404 0.0
H1757 H 0.16304 0.32822 0.28464 0.0
H1758 H 0.21176 0.32002 0.26685 0.0
C1759 C 0.24196 0.35085 0.34631 0.0
C1760 C 1.01212 0.06095 0.16664 0.0
C1761 C 0.03054 0.04704 0.18751 0.0
H1762 H 1.0049 0.0767 0.12023 0.0
C1763 C 0.05688 0.03924 0.17716 0.0
H1764 H 0.99154 0.0671 0.17371 0.0
C1765 C 0.06442 0.04467 0.14677 0.0
C1766 C 0.0457 0.05781 0.12546 0.0
H1767 H 0.07167 0.02855 0.19246 0.0
H1768 H 0.08474 0.0379 0.13973 0.0
C1769 C 1.0196 0.06623 0.13589 0.0
C1770 C 0.28044 0.74497 0.50683 0.0
C1771 C 0.25991 0.72764 0.52448 0.0
H1772 H 0.28488 0.76867 0.46574 0.0
C1773 C 0.22721 0.72135 0.51409 0.0
H1774 H 0.30575 0.75001 0.51426 0.0
C1775 C 0.21523 0.73125 0.48585 0.0
C1776 C 0.23573 0.74804 0.46776 0.0
H1777 H 0.21082 0.70743 0.52684 0.0
H1778 H 0.18996 0.72468 0.47755 0.0
C1779 C 0.26846 0.75535 0.4789 0.0
C1780 C 0.62997 0.08604 0.68554 0.0
C1781 C 0.6474 0.06424 0.6921 0.0
H1782 H 0.60405 0.10392 0.64948 0.0
C1783 C 0.64798 0.04025 0.66696 0.0
H1784 H 0.62989 0.10551 0.70406 0.0
C1785 C 0.63143 0.0384 0.63553 0.0
C1786 C 0.61501 0.06104 0.62903 0.0
H1787 H 0.66192 0.02369 0.67138 0.0
H1788 H 0.6321 1.01988 0.61624 0.0
C1789 C 0.61491 0.08507 0.65416 0.0
C1790 C 0.32877 0.36976 0.93847 0.0
C1791 C 0.33905 0.34965 0.95859 0.0
H1792 H 0.3192 0.37964 0.88971 0.0
C1793 C 0.34558 0.32224 0.94365 0.0
H1794 H 0.32366 0.39121 0.94914 0.0
C1795 C 0.34244 0.31536 0.90961 0.0
C1796 C 0.33381 0.33622 0.8895 0.0
H1797 H 0.35339 0.30616 0.95832 0.0
H1798 H 0.34709 0.29371 0.89917 0.0
C1799 C 0.32643 0.36327 0.90436 0.0
C1800 C 0.06328 0.04172 0.3867 0.0
C1801 C 0.03549 0.04738 0.37117 0.0
H1802 H 0.09173 0.04012 0.43161 0.0
C1803 C 1.01484 0.05656 0.39077 0.0
H1804 H 0.07981 0.03478 0.37247 0.0
C1805 C 1.02114 0.05842 0.42493 0.0
C1806 C 0.04845 0.05159 0.44028 0.0
H1807 H 0.99311 0.06097 0.37963 0.0
H1808 H 1.00434 0.06467 0.4392 0.0
C1809 C 0.06989 0.0443 0.42074 0.0
C1810 C 0.33836 0.72939 0.68447 0.0
C1811 C 0.31203 0.70376 0.6719 0.0
H1812 H 0.35579 0.77464 0.71545 0.0
C1813 C 0.28362 0.70258 0.68364 0.0
H1814 H 0.36036 0.73096 0.67564 0.0
C1815 C 0.28086 0.72784 0.70535 0.0
C1816 C 0.30682 0.75364 0.71693 0.0
H1817 H 0.26272 0.68337 0.67415 0.0
H1818 H 0.25804 0.72813 0.71145 0.0
C1819 C 0.33574 0.75425 0.707 0.0
C1820 C 0.68101 0.10565 0.85799 0.0
C1821 C 0.70343 0.12984 0.84893 0.0
H1822 H 0.64402 0.09475 0.88598 0.0
C1823 C 0.70954 0.16094 0.86528 0.0
H1824 H 0.67589 0.08141 0.84571 0.0
C1825 C 0.69111 0.1683 0.88767 0.0
C1826 C 0.66683 0.14484 0.8943 0.0
H1827 H 0.72701 0.17987 0.85908 0.0
H1828 H 0.69456 0.19244 0.89866 0.0
C1829 C 0.66267 0.11319 0.88069 0.0
C1830 C 0.32728 0.3793 0.16556 0.0
C1831 C 0.33622 0.35858 0.14243 0.0
H1832 H 0.31594 0.38774 0.2138 0.0
C1833 C 0.33906 0.32938 0.15035 0.0
H1834 H 0.32513 0.40213 0.16034 0.0
C1835 C 0.33353 0.3211 0.18046 0.0
C1836 C 0.32538 0.34192 0.20411 0.0
H1837 H 0.34586 0.31281 0.13325 0.0
H1838 H 0.33641 0.2984 0.18536 0.0
C1839 C 0.3222 0.37117 0.19625 0.0
C1840 C 0.25707 0.98544 0.05264 0.0
C1841 C 0.27847 1.00639 0.03863 0.0
H1842 H 0.222 0.98022 0.08305 0.0
C1843 C 0.27947 0.03859 0.04324 0.0
H1844 H 0.25562 0.96039 0.04938 0.0
C1845 C 0.26035 0.04984 0.06279 0.0
C1846 C 0.24009 0.02903 0.07797 0.0
H1847 H 0.29569 0.0552 0.0327 0.0
H1848 H 0.26196 0.07492 0.06671 0.0
C1849 C 0.23812 0.99671 0.07227 0.0
C1850 C 0.67676 0.65982 0.00269 0.0
C1851 C 0.70645 0.661 0.01995 0.0
H1852 H 0.62775 0.63783 0.9929 0.0
C1853 C 0.70942 0.63833 0.0401 0.0
H1854 H 0.67384 0.67691 0.98691 0.0
C1855 C 0.68254 0.616 0.04436 0.0
C1856 C 0.65257 0.61589 0.02811 0.0
H1857 H 0.73217 0.63901 0.05392 0.0
H1858 H 0.68508 0.59972 0.06116 0.0
C1859 C 0.65027 0.63742 0.00642 0.0
C1860 C 0.69034 0.47777 0.27715 0.0
C1861 C 0.70017 0.5106 0.28739 0.0
H1862 H 0.70377 0.43608 0.26027 0.0
C1863 C 0.73218 0.52649 0.2905 0.0
H1864 H 0.66585 0.46494 0.27463 0.0
C1865 C 0.75381 0.51005 0.28242 0.0
C1866 C 0.74384 0.47746 0.27113 0.0
H1867 H 0.74054 0.55181 0.29852 0.0
H1868 H 0.7783 0.52287 0.28481 0.0
C1869 C 0.71205 0.4613 0.26906 0.0
C1870 C 0.93576 0.53779 0.50956 0.0
C1871 C 0.93098 0.52855 0.53961 0.0
H1872 H 0.96979 0.55757 0.48146 0.0
C1873 C 0.9554 0.53889 0.56674 0.0
H1874 H 0.91716 0.53005 0.48824 0.0
C1875 C 0.98548 0.55432 0.56273 0.0
C1876 C 0.99142 0.55882 0.53149 0.0
H1877 H 0.95182 0.53255 0.59032 0.0
H1878 H 1.00381 0.56153 0.58388 0.0
C1879 C 0.96596 0.55286 0.50553 0.0
C1880 C 0.39254 0.13216 0.29621 0.0
C1881 C 0.36878 0.11035 0.30661 0.0
H1882 H 0.40312 0.16749 0.26605 0.0
C1883 C 0.33724 0.11081 0.29808 0.0
H1884 H 0.41716 0.13256 0.30254 0.0
C1885 C 0.3294 0.13089 0.2772 0.0
C1886 C 0.35299 0.15048 0.26451 0.0
H1887 H 0.31852 0.0944 0.30588 0.0
H1888 H 0.30477 0.12986 0.26958 0.0
C1889 C 0.38464 0.15187 0.27501 0.0
C1890 C 0.38469 0.18566 0.56418 0.0
C1891 C 0.37277 0.17858 0.53037 0.0
H1892 H 0.4204 0.18338 0.60292 0.0
C1893 C 0.38808 0.16261 0.50948 0.0
H1894 H 0.37331 0.19773 0.58105 0.0
C1895 C 0.41532 0.15454 0.52219 0.0
C1896 C 0.42761 0.16256 0.55588 0.0
H1897 H 0.37929 0.1567 0.48339 0.0
H1898 H 0.42708 0.14256 0.50566 0.0
C1899 C 0.41184 0.17775 0.57677 0.0
C1900 C 0.72064 0.71291 0.33067 0.0
C1901 C 0.71785 0.68286 0.31334 0.0
H1902 H 0.74502 0.76165 0.34022 0.0
C1903 C 0.73964 0.67876 0.29293 0.0
H1904 H 0.70424 0.71666 0.34666 0.0
C1905 C 0.76273 0.70482 0.28847 0.0
C1906 C 0.76472 0.73514 0.30495 0.0
H1907 H 0.73778 0.65575 0.27906 0.0
H1908 H 0.77814 0.70137 0.27126 0.0
C1909 C 0.74399 0.73869 0.3268 0.0
C1910 C 0.8346 0.44731 0.84222 0.0
C1911 C 0.83329 0.45637 0.81128 0.0
H1912 H 0.82927 0.40808 0.86797 0.0
C1913 C 0.81661 0.43467 0.78343 0.0
H1914 H 0.84762 0.46379 0.86397 0.0
C1915 C 0.80539 0.40309 0.78595 0.0
C1916 C 0.81196 0.39331 0.81608 0.0
H1917 H 0.81564 0.44136 0.75938 0.0
H1918 H 0.79476 0.38624 0.76387 0.0
C1919 C 0.82462 0.41553 0.84451 0.0
C1920 C 0.12897 0.9392 0.0584 0.0
C1921 C 0.10833 0.91725 0.07281 0.0
H1922 H 0.13976 0.98398 0.04072 0.0
C1923 C 0.08115 0.92645 0.07984 0.0
H1924 H 0.15037 0.93397 0.05262 0.0
C1925 C 0.0748 0.95534 0.07247 0.0
C1926 C 0.09541 0.9773 0.05807 0.0
H1927 H 0.06436 0.91108 0.09097 0.0
H1928 H 0.05358 0.96067 0.07864 0.0
C1929 C 0.12288 0.96842 0.05157 0.0
C1930 C 0.90224 0.26589 0.90278 0.0
C1931 C 0.9322 0.2876 0.91017 0.0
H1932 H 0.85578 0.25211 0.87341 0.0
C1933 C 0.93706 0.31379 0.89391 0.0
H1934 H 0.89767 0.24545 0.91486 0.0
C1935 C 0.91251 0.31876 0.87178 0.0
C1936 C 0.88244 0.29699 0.8639 0.0
H1937 H 0.95971 0.33115 0.89915 0.0
H1938 H 0.91731 0.3398 0.86066 0.0
C1939 C 0.87804 0.27 0.87925 0.0
C1940 C 0.6018 0.20921 0.53807 0.0
C1941 C 0.59803 0.22725 0.56694 0.0
H1942 H 0.59787 0.16326 0.51076 0.0
C1943 C 0.58824 0.20989 0.59154 0.0
H1944 H 0.6095 0.22104 0.51843 0.0
C1945 C 0.58292 0.17643 0.58765 0.0
C1946 C 0.58609 0.15827 0.55856 0.0
H1947 H 0.58542 0.22231 0.61448 0.0
H1948 H 0.57675 0.16486 0.60791 0.0
C1949 C 0.5955 0.17563 0.53382 0.0
C1950 C 0.5971 0.80672 0.37863 0.0
C1951 C 0.60958 0.81833 0.41189 0.0
H1952 H 0.60512 0.8044 0.32935 0.0
C1953 C 0.64097 0.83665 0.42081 0.0
H1954 H 0.57303 0.79242 0.37094 0.0
C1955 C 0.65925 0.84381 0.39691 0.0
C1956 C 0.64656 0.83274 0.36357 0.0
H1957 H 0.6513 0.84599 0.44622 0.0
H1958 H 0.68308 0.85872 0.40456 0.0
C1959 C 0.61541 0.81379 0.35475 0.0
C1960 C 0.06907 0.25201 0.3918 0.0
C1961 C 0.08207 0.2783 0.41669 0.0
H1962 H 0.04298 0.20332 0.38014 0.0
C1963 C 0.08489 0.27394 0.44951 0.0
H1964 H 0.06632 0.25478 0.36632 0.0
C1965 C 0.07152 0.24457 0.45738 0.0
C1966 C 0.05489 0.21932 0.4325 0.0
H1967 H 0.09473 0.29394 0.46912 0.0
H1968 H 0.07157 0.2425 0.48288 0.0
C1969 C 0.05533 0.2227 0.39969 0.0
C1970 C 0.66384 0.26542 0.28904 0.0
C1971 C 0.64783 0.278 0.26464 0.0
H1972 H 0.70762 0.25959 0.31272 0.0
C1973 C 0.66658 0.29472 0.24453 0.0
H1974 H 0.65079 0.25221 0.305 0.0
C1975 C 0.69967 0.2983 0.24844 0.0
C1976 C 0.71562 0.28555 0.27282 0.0
H1977 H 0.65557 0.30465 0.22517 0.0
H1978 H 0.71275 0.31114 0.23226 0.0
C1979 C 0.69686 0.26941 0.29323 0.0
C1980 C 0.57565 0.97033 0.91784 0.0
C1981 C 0.59369 0.94951 0.92688 0.0
H1982 H 0.55877 1.01062 0.93311 0.0
C1983 C 0.61205 0.95678 0.95845 0.0
H1984 H 0.55991 0.96457 0.89441 0.0
C1985 C 0.61119 0.98309 0.98076 0.0
C1986 C 0.59177 1.00285 0.97234 0.0
H1987 H 0.62502 0.94058 0.96687 0.0
H1988 H 0.62472 0.98715 0.00522 0.0
C1989 C 0.57477 0.99669 0.94019 0.0
C1990 C 0.94761 0.7975 0.74643 0.0
C1991 C 0.95896 0.77287 0.75791 0.0
H1992 H 0.91124 0.82218 0.74311 0.0
C1993 C 0.9394 0.7539 0.77582 0.0
H1994 H 0.96123 0.81272 0.73238 0.0
C1995 C 0.91021 0.75944 0.78211 0.0
C1996 C 0.89924 0.78447 0.77112 0.0
H1997 H 0.94658 0.73444 0.785 0.0
H1998 H 0.89647 0.74432 0.79613 0.0
C1999 C 0.91862 0.80308 0.75284 0.0
C2000 C 0.08416 0.08467 0.89899 0.0
C2001 C 0.11029 0.07679 0.88811 0.0
H2002 H 0.05655 0.08573 0.93674 0.0
C2003 C 0.12858 0.0624 0.90859 0.0
H2004 H 0.06943 0.09574 0.88408 0.0
C2005 C 0.12117 0.05672 0.93935 0.0
C2006 C 0.09528 0.06523 0.95029 0.0
H2007 H 0.14898 0.05612 0.90118 0.0
H2008 H 0.13577 0.04583 0.95461 0.0
C2009 C 0.07672 0.07887 0.92938 0.0
C2010 C 0.87525 0.37147 0.59508 0.0
C2011 C 0.86159 0.39669 0.59169 0.0
H2012 H 0.90053 0.34913 0.62783 0.0
C2013 C 0.85726 0.41507 0.61974 0.0
H2014 H 0.8783 0.35653 0.57383 0.0
C2015 C 0.87004 0.41081 0.65065 0.0
C2016 C 0.88749 0.38836 0.65369 0.0
H2017 H 0.84672 0.43462 0.61787 0.0
H2018 H 0.86883 0.42706 0.6718 0.0
C2019 C 0.88832 0.36747 0.62589 0.0
C2020 C 0.49725 1.00801 0.40528 0.0
C2021 C 0.47937 0.02908 0.39739 0.0
H2022 H 0.53047 0.99729 0.44125 0.0
C2023 C 0.48055 0.05554 0.42034 0.0
H2024 H 0.49668 0.98744 0.38788 0.0
C2025 C 0.49957 0.06094 0.45084 0.0
C2026 C 0.5179 0.04017 0.45843 0.0
H2027 H 0.46676 0.072 0.41479 0.0
H2028 H 0.50035 0.08166 0.46817 0.0
C2029 C 0.5166 1.01365 0.43561 0.0
C2030 C 0.81581 0.7609 0.14527 0.0
C2031 C 0.80166 0.77883 0.12523 0.0
H2032 H 0.82902 0.75235 0.19393 0.0
C2033 C 0.79095 0.80347 0.14046 0.0
H2034 H 0.82419 0.74156 0.13451 0.0
C2035 C 0.79394 0.80979 0.1746 0.0
C2036 C 0.80703 0.79122 0.19465 0.0
H2037 H 0.77993 0.8178 0.12596 0.0
H2038 H 0.78581 0.82928 0.18513 0.0
C2039 C 0.81833 0.76691 0.17946 0.0
C2040 C 0.07984 0.09448 0.68781 0.0
C2041 C 0.10328 0.08227 0.70362 0.0
H2042 H 0.0555 0.1013 0.64265 0.0
C2043 C 0.12043 0.06698 0.68411 0.0
H2044 H 0.06618 0.10649 0.70188 0.0
C2045 C 0.11481 0.0647 0.6499 0.0
C2046 C 0.09173 0.07745 0.63415 0.0
H2047 H 0.13885 0.05747 0.69531 0.0
H2048 H 0.12872 0.05302 0.63585 0.0
C2049 C 0.07397 0.09185 0.65365 0.0
C2050 C 0.82139 0.39914 0.40584 0.0
C2051 C 0.85157 0.40495 0.4246 0.0
H2052 H 0.78874 0.37153 0.36377 0.0
C2053 C 0.87323 0.38926 0.41384 0.0
H2054 H 0.80438 0.41106 0.4137 0.0
C2055 C 0.86406 0.36629 0.38605 0.0
C2056 C 0.83348 0.35942 0.3683 0.0
H2057 H 0.89666 0.39329 0.42791 0.0
H2058 H 0.88061 0.35339 0.37886 0.0
C2059 C 0.81249 0.37664 0.37747 0.0
C2060 C 0.43426 0.03607 0.20176 0.0
C2061 C 0.45899 0.04199 0.22848 0.0
H2062 H 0.41964 1.01994 0.15019 0.0
C2063 C 0.48969 0.0439 0.22316 0.0
H2064 H 0.41033 0.03447 0.20552 0.0
C2065 C 0.49498 0.03536 0.19185 0.0
C2066 C 0.46952 0.02476 0.16545 0.0
H2067 H 0.50903 0.04854 0.2436 0.0
H2068 H 0.51844 0.03363 0.18926 0.0
C2069 C 0.43951 0.02736 0.17024 0.0
C2070 C 0.81765 0.75045 0.91892 0.0
C2071 C 0.80229 0.76797 0.93865 0.0
H2072 H 0.83466 0.74402 0.87333 0.0
C2073 C 0.79227 0.79279 0.92647 0.0
H2074 H 0.82558 0.73104 0.92735 0.0
C2075 C 0.79732 0.79998 0.89583 0.0
C2076 C 0.81234 0.78254 0.87586 0.0
H2077 H 0.78038 0.80688 0.94068 0.0
H2078 H 0.78924 0.81942 0.88774 0.0
C2079 C 0.82256 0.75764 0.8878 0.0
C2080 C 0.85862 0.08232 0.0291 0.0
C2081 C 0.85911 0.11435 0.03138 0.0
H2082 H 0.87646 0.04497 0.00814 0.0
C2083 C 0.87833 0.13358 0.01387 0.0
H2084 H 0.84406 0.06702 0.04236 0.0
C2085 C 0.89673 0.12106 0.99445 0.0
C2086 C 0.89625 0.0891 0.99212 0.0
H2087 H 0.87931 0.15844 0.01519 0.0
H2088 H 0.9118 0.13654 0.98176 0.0
C2089 C 0.87713 0.06977 0.00961 0.0
C2090 C 0.43293 0.48729 0.04079 0.0
C2091 C 0.43558 0.46719 0.06389 0.0
H2092 H 0.45761 0.52264 0.01625 0.0
C2093 C 0.46485 0.47061 0.08342 0.0
H2094 H 0.41056 0.48469 0.0251 0.0
C2095 C 0.49135 0.4928 0.0791 0.0
C2096 C 0.48937 0.51147 0.05447 0.0
H2097 H 0.46744 0.45536 0.10135 0.0
H2098 H 0.51375 0.49426 0.09417 0.0
C2099 C 0.45978 0.50903 0.03578 0.0
C2100 C 0.39543 0.59958 0.7955 0.0
C2101 C 0.42438 0.5994 0.78592 0.0
H2102 H 0.36502 0.62785 0.80949 0.0
C2103 C 0.44404 0.62764 0.78053 0.0
H2104 H 0.3798 0.57812 0.79964 0.0
C2105 C 0.43565 0.65585 0.78614 0.0
C2106 C 0.40742 0.65624 0.79701 0.0
H2107 H 0.46646 0.62824 0.77293 0.0
H2108 H 0.4515 0.67747 0.78263 0.0
C2109 C 0.38693 0.6279 0.80093 0.0
C2110 C 0.20465 0.62533 0.55052 0.0
C2111 C 0.22347 0.60716 0.56396 0.0
H2112 H 0.15826 0.63051 0.53886 0.0
C2113 C 0.20964 0.57732 0.57053 0.0
H2114 H 0.21504 0.64882 0.54608 0.0
C2115 C 0.177 0.56603 0.56445 0.0
C2116 C 0.15804 0.58524 0.55326 0.0
H2117 H 0.22396 0.56347 0.5817 0.0
H2118 H 0.16674 0.54314 0.57049 0.0
C2119 C 0.17212 0.61477 0.54605 0.0
C2120 C 0.77656 1.00889 0.79967 0.0
C2121 C 0.783 0.03977 0.81678 0.0
H2122 H 0.78076 0.96209 0.80113 0.0
C2123 C 0.79956 0.04742 0.84913 0.0
H2124 H 0.76379 1.00233 0.77473 0.0
C2125 C 0.8093 0.02426 0.86426 0.0
C2126 C 0.80258 0.99343 0.8471 0.0
H2127 H 0.80471 0.0711 0.86283 0.0
H2128 H 0.82245 0.0305 0.88904 0.0
C2129 C 0.78616 0.98587 0.81476 0.0
C2130 C 0.76434 0.95307 0.51557 0.0
C2131 C 0.78194 0.96725 0.54677 0.0
H2132 H 0.73143 0.95674 0.47482 0.0
C2133 C 0.77767 0.99577 0.56192 0.0
H2134 H 0.76677 0.93092 0.50327 0.0
C2135 C 0.75716 1.01051 0.54541 0.0
C2136 C 0.7411 0.99706 0.51349 0.0
H2137 H 0.79073 1.00706 0.58603 0.0
H2138 H 0.75475 0.03294 0.55705 0.0
C2139 C 0.74422 0.96789 0.4991 0.0
C2140 C 0.41971 0.41375 0.74859 0.0
C2141 C 0.42301 0.44377 0.76628 0.0
H2142 H 0.39481 0.36502 0.73912 0.0
C2143 C 0.40204 0.44796 0.78757 0.0
H2144 H 0.43571 0.41004 0.73213 0.0
C2145 C 0.37928 0.422 0.7926 0.0
C2146 C 0.37645 0.39169 0.77549 0.0
H2147 H 0.40456 0.47093 0.80191 0.0
H2148 H 0.36513 0.4255 0.81105 0.0
C2149 C 0.39634 0.38804 0.75275 0.0
C2150 C 0.26652 0.68983 0.2126 0.0
C2151 C 0.28071 0.66804 0.22628 0.0
H2152 H 0.26321 0.7377 0.21839 0.0
C2153 C 0.30922 0.67937 0.24869 0.0
H2154 H 0.24495 0.68194 0.19466 0.0
C2155 C 0.31983 0.71141 0.2618 0.0
C2156 C 0.30196 0.73198 0.25246 0.0
H2157 H 0.32097 0.66319 0.25924 0.0
H2158 H 0.33986 0.71937 0.28168 0.0
C2159 C 0.27663 0.72167 0.22635 0.0
C2160 C 0.54003 0.68179 0.48424 0.0
C2161 C 0.53827 0.70521 0.50994 0.0
H2162 H 0.54578 0.63507 0.46913 0.0
C2163 C 0.5429 0.69734 0.54176 0.0
H2164 H 0.53654 0.68612 0.4593 0.0
C2165 C 0.54922 0.66803 0.54755 0.0
C2166 C 0.55015 0.6443 0.52178 0.0
H2167 H 0.54188 0.71411 0.56254 0.0
H2168 H 0.55269 0.66368 0.57247 0.0
C2169 C 0.54525 0.65204 0.48994 0.0
C2170 C 0.70157 0.34052 0.70673 0.0
C2171 C 0.70142 0.33167 0.67317 0.0
H2172 H 0.72489 0.34399 0.75618 0.0
C2173 C 0.72543 0.31799 0.66457 0.0
H2174 H 0.68355 0.351 0.71448 0.0
C2175 C 0.74828 0.31269 0.68863 0.0
C2176 C 0.74857 0.32179 0.72207 0.0
H2177 H 0.72595 0.31026 0.63911 0.0
H2178 H 0.76515 0.30056 0.68102 0.0
C2179 C 0.72505 0.33605 0.73075 0.0
C2180 C 1.02823 0.40853 0.04157 0.0
C2181 C 0.04031 0.39218 0.01719 0.0
H2182 H 1.02549 0.45307 0.06697 0.0
C2183 C 0.05917 0.41132 0.99897 0.0
H2184 H 1.01351 0.3953 0.05627 0.0
C2185 C 0.06533 0.44487 0.00458 0.0
C2186 C 0.0531 0.46126 0.02883 0.0
H2187 H 0.06891 0.40031 0.97974 0.0
H2188 H 0.07967 0.45799 0.9895 0.0
C2189 C 0.03474 0.44213 0.04744 0.0
C2190 C 1.01846 0.78979 0.16618 0.0
C2191 C 0.0383 0.81836 0.18426 0.0
H2192 H 0.9788 0.75073 0.16409 0.0
C2193 C 0.03152 0.83037 0.21435 0.0
H2194 H 1.02268 0.77996 0.1427 0.0
C2195 C 1.00618 0.81331 0.22671 0.0
C2196 C 0.98742 0.78398 0.20919 0.0
H2197 H 0.04627 0.85239 0.22874 0.0
H2198 H 1.00203 0.82246 0.25047 0.0
C2199 C 0.99334 0.77287 0.17847 0.0
C2200 C 0.55868 0.3502 0.11509 0.0
C2201 C 0.56809 0.3446 0.14679 0.0
H2202 H 0.56886 0.37938 0.07873 0.0
C2203 C 0.59477 0.36587 0.16692 0.0
H2204 H 0.53817 0.33436 0.09904 0.0
C2205 C 0.61229 0.39137 0.1553 0.0
C2206 C 0.6036 0.39641 0.1233 0.0
H2207 H 0.6027 0.36244 0.19152 0.0
H2208 H 0.63288 0.40707 0.17138 0.0
C2209 C 0.57618 0.37601 0.10351 0.0
C2210 C 0.96531 0.35602 0.31492 0.0
C2211 C 0.97801 0.33021 0.32016 0.0
H2212 H 0.92351 0.3729 0.30541 0.0
C2213 C 0.95609 0.30063 0.31749 0.0
H2214 H 0.98098 0.37949 0.31801 0.0
C2215 C 0.92326 0.29696 0.31112 0.0
C2216 C 0.91029 0.32277 0.30727 0.0
H2217 H 0.96446 0.28026 0.32225 0.0
H2218 H 0.90797 0.27365 0.31021 0.0
C2219 C 0.93206 0.35231 0.30833 0.0
C2220 C 0.03396 0.65288 0.65287 0.0
C2221 C 0.04396 0.68538 0.65204 0.0
H2222 H 0.0324 0.60585 0.63163 0.0
C2223 C 0.06102 0.69495 0.62752 0.0
H2224 H 1.02113 0.64459 0.67157 0.0
C2225 C 0.06828 0.67262 0.60483 0.0
C2226 C 0.05812 0.64006 0.60559 0.0
H2227 H 0.06985 0.71983 0.62661 0.0
H2228 H 0.08247 0.68104 0.58725 0.0
C2229 C 0.04069 0.6306 0.62993 0.0
C2230 C 0.70983 0.85077 0.85493 0.0
C2231 C 0.68059 0.84389 0.83313 0.0
H2232 H 0.75915 0.85222 0.86306 0.0
C2233 C 0.68132 0.83244 0.8001 0.0
H2234 H 0.71115 0.85961 0.88055 0.0
C2235 C 0.70968 0.82762 0.78996 0.0
C2236 C 0.7387 0.8341 0.81222 0.0
H2237 H 0.65983 0.82641 0.78215 0.0
H2238 H 0.70885 0.81896 0.76446 0.0
C2239 C 0.7379 0.84638 0.8448 0.0
C2240 C 0.55853 0.53469 0.67802 0.0
C2241 C 0.53168 0.54126 0.68823 0.0
H2242 H 0.58681 0.53501 0.64094 0.0
C2243 C 0.51233 0.55416 0.66713 0.0
H2244 H 0.57396 0.52475 0.69347 0.0
C2245 C 0.51956 0.55982 0.63638 0.0
C2246 C 0.54649 0.55309 0.62631 0.0
H2247 H 0.4913 0.55932 0.67411 0.0
H2248 H 0.50418 0.56949 0.62057 0.0
C2249 C 0.56591 0.54067 0.64773 0.0
C2250 C 0.76264 0.26042 0.01103 0.0
C2251 C 0.77859 0.23659 0.01149 0.0
H2252 H 0.73519 0.28388 0.98182 0.0
C2253 C 0.78058 0.21892 0.98198 0.0
H2254 H 0.76085 0.27435 0.03357 0.0
C2255 C 0.76528 0.22385 0.95255 0.0
C2256 C 0.74827 0.24693 0.95213 0.0
H2257 H 0.79231 0.20006 0.98173 0.0
H2258 H 0.76569 0.20862 0.93028 0.0
C2259 C 0.74769 0.26564 0.98154 0.0
C2260 C 0.15143 0.53796 0.1649 0.0
C2261 C 0.15308 0.56279 0.19009 0.0
H2262 H 0.13328 0.51763 0.11441 0.0
C2263 C 0.13911 0.58716 0.18352 0.0
H2264 H 0.16297 0.51953 0.16934 0.0
C2265 C 0.12408 0.58702 0.15239 0.0
C2266 C 0.12106 0.56166 0.12747 0.0
H2267 H 0.14108 0.60736 0.20207 0.0
H2268 H 0.11451 0.60678 0.14793 0.0
C2269 C 0.13503 0.53718 0.13364 0.0
C2270 C 0.84669 0.82287 0.443 0.0
C2271 C 0.8401 0.85016 0.45812 0.0
H2272 H 0.84836 0.79463 0.39843 0.0
C2273 C 0.8299 0.87044 0.43813 0.0
H2274 H 0.85446 0.80667 0.45752 0.0
C2275 C 0.82763 0.86415 0.40399 0.0
C2276 C 0.83501 0.83717 0.38897 0.0
H2277 H 0.82475 0.89181 0.44894 0.0
H2278 H 0.8204 0.8806 0.38945 0.0
C2279 C 0.84365 0.81622 0.40895 0.0
C2280 C 0.56443 0.53951 0.88969 0.0
C2281 C 0.53642 0.544 0.8733 0.0
H2282 H 0.59291 0.54039 0.93545 0.0
C2283 C 0.51493 0.55261 0.89211 0.0
H2284 H 0.58153 0.53295 0.87605 0.0
C2285 C 0.52073 0.55523 0.92634 0.0
C2286 C 0.54856 0.55023 0.9427 0.0
H2287 H 0.49293 0.55596 0.8803 0.0
H2288 H 0.50306 0.56042 0.93988 0.0
C2289 C 0.57067 0.54321 0.92387 0.0
C2290 C 0.87928 0.26316 0.1853 0.0
C2291 C 0.86479 0.23125 0.17282 0.0
H2292 H 0.87688 0.30346 0.21757 0.0
C2293 C 0.8479 0.2126 0.19249 0.0
H2294 H 0.89334 0.27778 0.17106 0.0
C2295 C 0.83733 0.22731 0.21855 0.0
C2296 C 0.84503 0.26038 0.2255 0.0
H2297 H 0.83748 0.18754 0.18399 0.0
H2298 H 0.82084 0.21301 0.23076 0.0
C2299 C 0.86881 0.27794 0.21123 0.0
C2300 C 0.19124 0.61769 0.35886 0.0
C2301 C 0.20603 0.64057 0.34175 0.0
H2302 H 0.16118 0.6074 0.39376 0.0
C2303 C 0.20511 0.67207 0.35008 0.0
H2304 H 0.19144 0.59317 0.35283 0.0
C2305 C 0.18753 0.68005 0.37315 0.0
C2306 C 0.17114 0.657 0.38881 0.0
H2307 H 0.21634 0.69022 0.33734 0.0
H2308 H 0.18564 0.70399 0.37788 0.0
C2309 C 0.17386 0.62584 0.38223 0.0
C2310 C 0.82583 0.8779 0.66441 0.0
C2311 C 0.83491 0.85716 0.64141 0.0
H2312 H 0.81382 0.88619 0.71236 0.0
C2313 C 0.83737 0.82784 0.64926 0.0
H2314 H 0.824 0.90084 0.65926 0.0
C2315 C 0.83129 0.81943 0.67916 0.0
C2316 C 0.82295 0.84022 0.70267 0.0
H2317 H 0.84429 0.81127 0.63227 0.0
H2318 H 0.83391 0.79663 0.68402 0.0
C2319 C 0.8202 0.86962 0.6949 0.0
C2320 C 0.75416 0.48105 0.54299 0.0
C2321 C 0.77508 0.50267 0.52919 0.0
H2322 H 0.71918 0.47455 0.57349 0.0
C2323 C 0.77388 0.53432 0.53257 0.0
H2324 H 0.75425 0.45639 0.54049 0.0
C2325 C 0.75383 0.54464 0.55163 0.0
C2326 C 0.73482 0.52343 0.56752 0.0
H2327 H 0.78964 0.55144 0.52212 0.0
H2328 H 0.75449 0.56951 0.55539 0.0
C2329 C 0.73426 0.4914 0.56209 0.0
C2330 C 0.20725 0.14077 0.53724 0.0
C2331 C 0.2041 0.16408 0.51804 0.0
H2332 H 0.1833 0.10153 0.55749 0.0
C2333 C 0.17427 0.16337 0.50137 0.0
H2334 H 0.23008 0.14106 0.5506 0.0
C2335 C 0.14782 0.14064 0.5048 0.0
C2336 C 0.15043 0.11841 0.52556 0.0
H2337 H 0.17125 0.18098 0.48632 0.0
H2338 H 0.12514 0.14131 0.4919 0.0
C2339 C 0.18051 0.11823 0.54125 0.0
C2340 C 0.22307 1.02147 0.76818 0.0
C2341 C 0.20122 1.00856 0.78729 0.0
H2342 H 0.25398 1.01271 0.73546 0.0
C2343 C 0.19623 0.97658 0.79041 0.0
H2344 H 0.22777 0.04613 0.76551 0.0
C2345 C 0.21146 0.95747 0.77312 0.0
C2346 C 0.23156 0.9701 0.7523 0.0
H2347 H 0.17974 0.96607 0.80516 0.0
H2348 H 0.2064 0.93257 0.77482 0.0
C2349 C 0.23798 1.00239 0.75078 0.0
C2350 C 0.44044 0.02604 0.98722 0.0
C2351 C 0.42609 1.01717 0.01352 0.0
H2352 H 0.48369 0.04656 0.9719 0.0
C2353 C 0.44319 0.02628 0.04558 0.0
H2354 H 0.42761 1.01873 0.96233 0.0
C2355 C 0.47527 0.04113 0.05083 0.0
C2356 C 0.49005 0.04732 0.02419 0.0
H2357 H 0.43262 1.01904 0.06611 0.0
H2358 H 0.48882 0.04654 0.07539 0.0
C2359 C 0.47238 0.0414 0.99259 0.0
C2360 C 0.87953 0.63121 0.80118 0.0
C2361 C 0.85578 0.60676 0.80802 0.0
H2362 H 0.8909 0.66744 0.77211 0.0
C2363 C 0.82426 0.6029 0.79377 0.0
H2364 H 0.90402 0.63498 0.81213 0.0
C2365 C 0.81699 0.62148 0.77097 0.0
C2366 C 0.84116 0.6438 0.76215 0.0
H2367 H 0.80549 0.58434 0.79864 0.0
H2368 H 0.79271 0.61755 0.75918 0.0
C2369 C 0.87225 0.64947 0.77809 0.0
C2370 C 0.86932 0.63678 0.02092 0.0
C2371 C 0.86546 0.66591 0.03494 0.0
H2372 H 0.89252 0.60001 0.02719 0.0
C2373 C 0.88475 0.68201 0.06476 0.0
H2374 H 0.85497 0.62402 0.99785 0.0
C2375 C 0.9058 0.66831 0.08138 0.0
C2376 C 0.90815 0.63836 0.0685 0.0
H2377 H 0.88272 0.7047 0.07609 0.0
H2378 H 0.91956 0.6807 0.1049 0.0
C2379 C 0.89075 0.62312 0.03759 0.0
C2380 C 0.21823 0.21132 0.82836 0.0
C2381 C 0.21671 0.18122 0.81204 0.0
H2382 H 0.24167 0.26029 0.83772 0.0
C2383 C 0.23967 0.17736 0.79304 0.0
H2384 H 0.20089 0.21488 0.84321 0.0
C2385 C 0.26275 0.20365 0.78899 0.0
C2386 C 0.26362 0.234 0.80457 0.0
H2387 H 0.23877 0.1543 0.77991 0.0
H2388 H 0.27909 0.20031 0.77283 0.0
C2389 C 0.24162 0.23734 0.82502 0.0
C2390 C 0.32861 0.93275 0.27465 0.0
C2391 C 0.34423 0.95632 0.3014 0.0
H2392 H 0.30463 0.88422 0.25891 0.0
C2393 C 0.34199 0.95077 0.33334 0.0
H2394 H 0.33024 0.93671 0.24988 0.0
C2395 C 0.32897 0.92032 0.33853 0.0
C2396 C 0.31714 0.8959 0.31177 0.0
H2397 H 0.35415 0.9687 0.35432 0.0
H2398 H 0.33077 0.91533 0.36329 0.0
C2399 C 0.31451 0.90262 0.27988 0.0
C2400 C 0.57985 0.42535 0.57756 0.0
C2401 C 0.60654 0.41563 0.56986 0.0
H2402 H 0.55312 0.46027 0.57719 0.0
C2403 C 0.62729 0.4373 0.55529 0.0
H2404 H 0.56308 0.4102 0.58889 0.0
C2405 C 0.62172 0.46678 0.54885 0.0
C2406 C 0.59466 0.47613 0.55591 0.0
H2407 H 0.64838 0.43163 0.54909 0.0
H2408 H 0.63861 0.48215 0.53784 0.0
C2409 C 0.57399 0.45449 0.57056 0.0
C2410 C 0.44048 0.81239 0.39621 0.0
C2411 C 0.43478 0.78839 0.41536 0.0
H2412 H 0.42146 0.8373 0.36124 0.0
C2413 C 0.40366 0.76956 0.41168 0.0
H2414 H 0.46403 0.82761 0.39854 0.0
C2415 C 0.37913 0.77422 0.38895 0.0
C2416 C 0.38463 0.79901 0.37054 0.0
H2417 H 0.39836 0.75091 0.42607 0.0
H2418 H 0.35573 0.75862 0.38621 0.0
C2419 C 0.41583 0.81801 0.37477 0.0
C2420 C 0.1086 0.71167 0.04248 0.0
C2421 C 0.10006 0.72906 0.06892 0.0
H2422 H 0.10858 0.66639 0.01661 0.0
C2423 C 0.08488 0.71091 0.09048 0.0
H2424 H 0.12038 0.72406 0.02517 0.0
C2425 C 0.07901 0.67734 0.08611 0.0
C2426 C 0.08767 0.65993 0.05971 0.0
H2427 H 0.07791 0.72274 0.11137 0.0
H2428 H 0.06765 0.66501 0.1037 0.0
C2429 C 0.10216 0.67808 0.03778 0.0
C2430 C 0.09559 0.30646 0.87908 0.0
C2431 C 0.10785 0.31811 0.91238 0.0
H2432 H 0.10399 0.30397 0.82993 0.0
C2433 C 0.13931 0.33621 0.92152 0.0
H2434 H 0.07149 0.2923 0.87122 0.0
C2435 C 0.15785 0.34318 0.89778 0.0
C2436 C 0.14532 0.33215 0.8644 0.0
H2437 H 0.14948 0.34556 0.94696 0.0
H2438 H 0.18172 0.35796 0.90557 0.0
C2439 C 0.11414 0.31334 0.85538 0.0
C2440 C 0.57054 0.77296 0.94764 0.0
C2441 C 0.5713 0.77714 0.91513 0.0
H2442 H 0.55854 0.74075 0.98026 0.0
C2443 C 0.56453 0.75052 0.89054 0.0
H2444 H 0.57545 0.79317 0.96701 0.0
C2445 C 0.5547 0.72016 0.89809 0.0
C2446 C 0.55172 0.71609 0.93035 0.0
H2447 H 0.56448 0.7532 0.8652 0.0
H2448 H 0.5483 0.70002 0.87852 0.0
C2449 C 0.56083 0.74281 0.95519 0.0
C2450 C 0.15963 0.76218 0.78224 0.0
C2451 C 0.14362 0.78014 0.76403 0.0
H2452 H 0.20352 0.75274 0.79987 0.0
C2453 C 0.16229 0.80317 0.74934 0.0
H2454 H 0.14657 0.74394 0.79372 0.0
C2455 C 0.1954 0.80795 0.7527 0.0
C2456 C 0.21137 0.7897 0.77065 0.0
H2457 H 0.15124 0.81738 0.7347 0.0
H2458 H 0.20844 0.82582 0.74079 0.0
C2459 C 0.19266 0.76692 0.78545 0.0
C2460 C 0.10297 0.46995 0.43615 0.0
C2461 C 0.07737 0.44276 0.43062 0.0
H2462 H 0.12254 0.51822 0.46148 0.0
C2463 C 0.05151 0.44474 0.44629 0.0
H2464 H 0.12326 0.46967 0.42463 0.0
C2465 C 0.05121 0.47173 0.46707 0.0
C2466 C 0.0766 0.49861 0.4734 0.0
H2467 H 0.03087 0.425 0.44302 0.0
H2468 H 0.03066 0.47132 0.47835 0.0
C2469 C 0.1025 0.49774 0.45727 0.0
C2470 C 0.44294 0.2555 0.27736 0.0
C2471 C 0.46277 0.27432 0.25952 0.0
H2472 H 0.39991 0.24623 0.29757 0.0
C2473 C 0.45164 0.29913 0.2481 0.0
H2474 H 0.44984 0.23588 0.28648 0.0
C2475 C 0.42271 0.30503 0.25456 0.0
C2476 C 0.40309 0.28656 0.27277 0.0
H2477 H 0.4654 0.31426 0.23409 0.0
H2478 H 0.41557 0.32426 0.24488 0.0
C2479 C 0.41382 0.26133 0.28365 0.0
C2480 C 0.58652 0.58823 0.40164 0.0
C2481 C 0.61173 0.57928 0.38989 0.0
H2482 H 0.55978 0.58971 0.43991 0.0
C2483 C 0.62955 0.56374 0.40951 0.0
H2484 H 0.5722 0.6002 0.38742 0.0
C2485 C 0.62243 0.5578 0.44028 0.0
C2486 C 0.59736 0.56726 0.452 0.0
H2487 H 0.64926 0.55662 0.40135 0.0
H2488 H 0.63645 0.54584 0.45483 0.0
C2489 C 0.57941 0.58224 0.432 0.0
C2490 C 0.37249 0.92903 0.12999 0.0
C2491 C 0.36785 0.90963 0.09967 0.0
H2492 H 0.39003 0.93523 0.18128 0.0
C2493 C 0.3724 0.87929 0.09783 0.0
H2494 H 0.36954 0.95278 0.1315 0.0
C2495 C 0.38397 0.86921 0.12598 0.0
C2496 C 0.39156 0.88965 0.15613 0.0
H2497 H 0.36901 0.86425 0.07436 0.0
H2498 H 0.38832 0.84601 0.12398 0.0
C2499 C 0.38444 0.91909 0.15824 0.0
C2500 C 0.97304 0.56083 0.92921 0.0
C2501 C 0.96715 0.53193 0.9082 0.0
H2502 H 1.00002 0.58995 0.9736 0.0
C2503 C 0.98424 0.51003 0.91532 0.0
H2504 H 0.96008 0.57801 0.92393 0.0
C2505 C 1.00738 0.51712 0.94298 0.0
C2506 C 1.01312 0.54586 0.96409 0.0
H2507 H 0.98024 0.48772 0.89916 0.0
H2508 H 1.02037 0.49992 0.94816 0.0
C2509 C 0.99577 0.56764 0.95735 0.0
C2510 C 0.3145 0.26158 0.6455 0.0
C2511 C 0.30045 0.27989 0.62586 0.0
H2512 H 0.32771 0.25231 0.69386 0.0
C2513 C 0.28994 0.30446 0.6415 0.0
H2514 H 0.32276 0.2423 0.63441 0.0
C2515 C 0.293 0.31033 0.67565 0.0
C2516 C 0.30598 0.29138 0.6953 0.0
H2517 H 0.27902 0.31908 0.62732 0.0
H2518 H 0.28505 0.32981 0.68652 0.0
C2519 C 0.3171 0.26715 0.6797 0.0
C2520 C 0.60893 0.60986 0.1895 0.0
C2521 C 0.60508 0.58388 0.20609 0.0
H2522 H 0.60872 0.6259 0.14363 0.0
C2523 C 0.59555 0.55331 0.18757 0.0
H2524 H 0.61738 0.63376 0.20303 0.0
C2525 C 0.58865 0.54893 0.15319 0.0
C2526 C 0.59227 0.57506 0.13653 0.0
H2527 H 0.59304 0.53284 0.19966 0.0
H2528 H 0.58066 0.52503 0.1397 0.0
C2529 C 0.60346 0.60545 0.15529 0.0
C2530 C 0.35495 0.87384 0.91886 0.0
C2531 C 0.33029 0.88495 0.92917 0.0
H2532 H 0.37132 0.85107 0.87961 0.0
C2533 C 0.30319 0.8833 0.90666 0.0
H2534 H 0.37663 0.87596 0.93554 0.0
C2535 C 0.29998 0.86848 0.8744 0.0
C2536 C 0.32428 0.85614 0.86479 0.0
H2537 H 0.28433 0.89252 0.91423 0.0
H2538 H 0.27837 0.86577 0.8574 0.0
C2539 C 0.3521 0.85992 0.88687 0.0
C2540 C 0.92277 0.51302 0.71377 0.0
C2541 C 0.9482 0.52459 0.73999 0.0
H2542 H 0.90786 0.49025 0.66372 0.0
C2543 C 0.97884 0.52526 0.7351 0.0
H2544 H 0.89884 0.51178 0.7173 0.0
C2545 C 0.98388 0.51275 0.70484 0.0
C2546 C 0.95827 0.49925 0.67915 0.0
H2547 H 0.99864 0.53379 0.7552 0.0
H2548 H 1.00764 0.51236 0.70195 0.0
C2549 C 0.92778 0.50014 0.68348 0.0
C2550 C 0.31939 0.2536 0.42096 0.0
C2551 C 0.30364 0.27112 0.44017 0.0
H2552 H 0.3374 0.24716 0.37598 0.0
C2553 C 0.29396 0.29597 0.42769 0.0
H2554 H 0.32709 0.23417 0.42963 0.0
C2555 C 0.29967 0.30316 0.39722 0.0
C2556 C 0.31505 0.28567 0.37775 0.0
H2557 H 0.28177 0.31005 0.44149 0.0
H2558 H 0.29177 0.32257 0.38881 0.0
C2559 C 0.32501 0.26079 0.39004 0.0
C2560 C 0.36588 0.58621 0.55861 0.0
C2561 C 0.35807 0.61139 0.54522 0.0
H2562 H 0.38277 0.54496 0.55046 0.0
C2563 C 0.36011 0.61369 0.51242 0.0
H2564 H 0.36439 0.58394 0.58382 0.0
C2565 C 0.36982 0.59104 0.49324 0.0
C2566 C 0.37786 0.56611 0.50677 0.0
H2567 H 0.35386 0.63275 0.50145 0.0
H2568 H 0.37201 0.59352 0.46821 0.0
C2569 C 0.37597 0.56382 0.53954 0.0
C2570 C 0.93482 0.98504 0.54254 0.0
C2571 C 0.938 0.96474 0.56524 0.0
H2572 H 0.95853 1.0201 0.51747 0.0
C2573 C 0.9677 0.96769 0.58375 0.0
H2574 H 0.91219 0.9827 0.52746 0.0
C2575 C 0.99403 0.99001 0.57903 0.0
C2576 C 0.99129 1.00915 0.55498 0.0
H2577 H 0.9707 0.95212 0.60124 0.0
H2578 H 1.01677 0.99129 0.59329 0.0
C2579 C 0.96135 1.00666 0.53701 0.0
C2580 C 0.92242 0.11907 0.29029 0.0
C2581 C 0.91083 0.08733 0.29365 0.0
H2582 H 0.91878 0.16663 0.30215 0.0
C2583 C 0.88352 0.07848 0.30718 0.0
H2584 H 0.94332 0.12648 0.27973 0.0
C2585 C 0.86972 0.1013 0.31986 0.0
C2586 C 0.88289 0.13318 0.31899 0.0
H2587 H 0.87376 0.05416 0.30965 0.0
H2588 H 0.84979 0.09429 0.332 0.0
C2589 C 0.90842 0.14197 0.30292 0.0
C2590 C 0.72071 0.10224 0.0738 0.0
C2591 C 0.72808 0.13089 0.09583 0.0
H2592 H 0.68385 0.06461 0.04375 0.0
C2593 C 0.70379 0.14122 0.10809 0.0
H2594 H 0.73904 0.09363 0.06414 0.0
C2595 C 0.67259 0.12541 0.09549 0.0
C2596 C 0.66527 0.09844 0.07134 0.0
H2597 H 0.70866 0.16301 0.12533 0.0
H2598 H 0.6542 0.13485 0.10398 0.0
C2599 C 0.68932 0.08589 0.06184 0.0
C2600 C 0.2813 0.5125 0.30185 0.0
C2601 C 0.28691 0.54311 0.31941 0.0
H2602 H 0.28637 0.46593 0.30265 0.0
C2603 C 0.30318 0.55053 0.35185 0.0
H2604 H 0.26878 0.50608 0.27681 0.0
C2605 C 0.3134 0.52741 0.36664 0.0
C2606 C 0.30742 0.49681 0.34907 0.0
H2607 H 0.30774 0.57401 0.36587 0.0
H2608 H 0.32627 0.53348 0.39153 0.0
C2609 C 0.29132 0.48952 0.31661 0.0
C2610 C 0.27554 0.49516 0.05738 0.0
C2611 C 0.27905 0.46558 0.04437 0.0
H2612 H 0.25218 0.53162 0.05014 0.0
C2613 C 0.25969 0.44887 0.01481 0.0
H2614 H 0.28996 0.50842 0.08022 0.0
C2615 C 0.23855 0.46217 0.99766 0.0
C2616 C 0.23614 0.49232 0.00978 0.0
H2617 H 0.26154 0.42586 0.00419 0.0
H2618 H 0.2244 0.44907 0.9746 0.0
C2619 C 0.254 0.50839 0.04024 0.0
C2620 C 0.90302 0.94828 0.2855 0.0
C2621 C 0.92426 0.94391 0.26456 0.0
H2622 H 0.86604 0.92614 0.30908 0.0
C2623 C 0.92154 0.91364 0.24782 0.0
H2624 H 0.90512 0.9714 0.29924 0.0
C2625 C 0.89835 0.88794 0.2524 0.0
C2626 C 0.87803 0.89187 0.27462 0.0
H2627 H 0.93778 0.90975 0.2317 0.0
H2628 H 0.8972 0.86476 0.2394 0.0
C2629 C 0.88045 0.92237 0.29095 0.0
C2630 C 0.77488 0.18611 0.70806 0.0
C2631 C 0.78384 0.16624 0.72916 0.0
H2632 H 0.77658 0.23402 0.70307 0.0
C2633 C 0.81029 0.17852 0.75421 0.0
H2634 H 0.7551 0.1771 0.688 0.0
C2635 C 0.82302 0.21112 0.76227 0.0
C2636 C 0.80926 0.23109 0.74522 0.0
H2637 H 0.81807 0.1637 0.77054 0.0
H2638 H 0.84039 0.22065 0.78441 0.0
C2639 C 0.78706 0.21865 0.7166 0.0
loop_
_geom_bond_atom_site_label_1
_geom_bond_atom_site_label_2
_geom_bond_distance
_geom_bond_site_symmetry_2
_ccdc_geom_bond_type
Zn0 O3 2.031 . S
Zn0 O5 2.049 . S
Zn0 O10 2.067 1_455 S
Zn1 O2 1.962 . S
Zn1 O4 1.986 . S
Zn1 O6 1.996 . S
Zn1 O9 1.943 . S
O2 Zn1 1.962 . S
O2 C7 1.254 . S
O3 Zn0 2.031 . S
O3 C7 1.269 . S
O4 Zn1 1.986 . S
O4 C11 1.262 . S
O5 Zn0 2.049 . S
O5 C13 1.260 . S
O6 Zn1 1.996 . S
O6 C13 1.257 . S
C7 O2 1.254 . S
C7 O3 1.269 . S
C8 O9 1.249 . S
C8 O10 1.270 1_455 S
O9 Zn1 1.943 . S
O9 C8 1.249 . S
O10 Zn0 2.067 1_655 S
O10 C8 1.270 1_655 S
C11 O4 1.262 . S
C11 O12 1.232 . S
O12 C11 1.232 . S
C13 O5 1.260 . S
C13 O6 1.257 . S
Zn14 O17 2.031 1_455 S
Zn14 O19 2.049 . S
Zn14 O24 2.067 . S
Zn15 O16 1.962 1_455 S
Zn15 O18 1.986 . S
Zn15 O20 1.996 . S
Zn15 O23 1.943 . S
O16 Zn15 1.962 1_655 S
O16 C21 1.254 . S
O17 Zn14 2.031 1_655 S
O17 C21 1.269 . S
O18 Zn15 1.986 . S
O18 C25 1.262 . S
O19 Zn14 2.049 . S
O19 C27 1.260 . S
O20 Zn15 1.996 . S
O20 C27 1.257 . S
C21 O16 1.254 . S
C21 O17 1.269 . S
C22 O23 1.249 . S
C22 O24 1.270 . S
O23 Zn15 1.943 . S
O23 C22 1.249 . S
O24 Zn14 2.067 . S
O24 C22 1.270 . S
C25 O18 1.262 . S
C25 O26 1.232 . S
O26 C25 1.232 . S
C27 O19 1.260 . S
C27 O20 1.257 . S
Zn28 O31 2.031 . S
Zn28 O33 2.049 . S
Zn28 O38 2.067 . S
Zn29 O30 1.962 . S
Zn29 O32 1.986 . S
Zn29 O34 1.996 . S
Zn29 O37 1.943 . S
O30 Zn29 1.962 . S
O30 C35 1.254 . S
O31 Zn28 2.031 . S
O31 C35 1.269 . S
O32 Zn29 1.986 . S
O32 C39 1.262 . S
O33 Zn28 2.049 . S
O33 C41 1.260 . S
O34 Zn29 1.996 . S
O34 C41 1.257 . S
C35 O30 1.254 . S
C35 O31 1.269 . S
C36 O37 1.249 . S
C36 O38 1.270 . S
O37 Zn29 1.943 . S
O37 C36 1.249 . S
O38 Zn28 2.067 . S
O38 C36 1.270 . S
C39 O32 1.262 . S
C39 O40 1.232 . S
O40 C39 1.232 . S
C41 O33 1.260 . S
C41 O34 1.257 . S
Zn42 O45 2.031 . S
Zn42 O47 2.049 . S
Zn42 O52 2.067 . S
Zn43 O44 1.962 . S
Zn43 O46 1.986 . S
Zn43 O48 1.996 . S
Zn43 O51 1.943 . S
O44 Zn43 1.962 . S
O44 C49 1.254 . S
O45 Zn42 2.031 . S
O45 C49 1.269 . S
O46 Zn43 1.986 . S
O46 C53 1.262 . S
O47 Zn42 2.049 . S
O47 C55 1.260 . S
O48 Zn43 1.996 . S
O48 C55 1.257 . S
C49 O44 1.254 . S
C49 O45 1.269 . S
C50 O51 1.249 . S
C50 O52 1.270 . S
O51 Zn43 1.943 . S
O51 C50 1.249 . S
O52 Zn42 2.067 . S
O52 C50 1.270 . S
C53 O46 1.262 . S
C53 O54 1.232 . S
O54 C53 1.232 . S
C55 O47 1.260 . S
C55 O48 1.257 . S
Zn56 O59 2.031 . S
Zn56 O61 2.049 . S
Zn56 O66 2.067 . S
Zn57 O58 1.962 . S
Zn57 O60 1.986 . S
Zn57 O62 1.996 . S
Zn57 O65 1.943 . S
O58 Zn57 1.962 . S
O58 C63 1.254 . S
O59 Zn56 2.031 . S
O59 C63 1.269 . S
O60 Zn57 1.986 . S
O60 C67 1.262 . S
O61 Zn56 2.049 . S
O61 C69 1.260 . S
O62 Zn57 1.996 . S
O62 C69 1.257 . S
C63 O58 1.254 . S
C63 O59 1.269 . S
C64 O65 1.249 . S
C64 O66 1.270 . S
O65 Zn57 1.943 . S
O65 C64 1.249 . S
O66 Zn56 2.067 . S
O66 C64 1.270 . S
C67 O60 1.262 . S
C67 O68 1.232 . S
O68 C67 1.232 . S
C69 O61 1.260 . S
C69 O62 1.257 . S
Zn70 O73 2.031 . S
Zn70 O75 2.049 . S
Zn70 O80 2.067 . S
Zn71 O72 1.962 . S
Zn71 O74 1.986 . S
Zn71 O76 1.996 . S
Zn71 O79 1.943 . S
O72 Zn71 1.962 . S
O72 C77 1.254 . S
O73 Zn70 2.031 . S
O73 C77 1.269 . S
O74 Zn71 1.986 . S
O74 C81 1.262 . S
O75 Zn70 2.049 . S
O75 C83 1.260 . S
O76 Zn71 1.996 . S
O76 C83 1.257 . S
C77 O72 1.254 . S
C77 O73 1.269 . S
C78 O79 1.249 . S
C78 O80 1.270 . S
O79 Zn71 1.943 . S
O79 C78 1.249 . S
O80 Zn70 2.067 . S
O80 C78 1.270 . S
C81 O74 1.262 . S
C81 O82 1.232 . S
O82 C81 1.232 . S
C83 O75 1.260 . S
C83 O76 1.257 . S
Zn84 O87 2.031 . S
Zn84 O89 2.049 . S
Zn84 O94 2.067 . S
Zn85 O86 1.962 . S
Zn85 O88 1.986 . S
Zn85 O90 1.996 . S
Zn85 O93 1.943 . S
O86 Zn85 1.962 . S
O86 C91 1.254 . S
O87 Zn84 2.031 . S
O87 C91 1.269 . S
O88 Zn85 1.986 . S
O88 C95 1.262 . S
O89 Zn84 2.049 . S
O89 C97 1.260 . S
O90 Zn85 1.996 . S
O90 C97 1.257 . S
C91 O86 1.254 . S
C91 O87 1.269 . S
C92 O93 1.249 . S
C92 O94 1.270 . S
O93 Zn85 1.943 . S
O93 C92 1.249 . S
O94 Zn84 2.067 . S
O94 C92 1.270 . S
C95 O88 1.262 . S
C95 O96 1.232 . S
O96 C95 1.232 . S
C97 O89 1.260 . S
C97 O90 1.257 . S
Zn98 O101 2.031 1_554 S
Zn98 O103 2.049 . S
Zn98 O108 2.067 1_554 S
Zn99 O100 1.962 . S
Zn99 O102 1.986 . S
Zn99 O104 1.996 . S
Zn99 O107 1.943 1_455 S
O100 Zn99 1.962 . S
O100 C105 1.242 1_556 S
O101 Zn98 2.031 1_556 S
O101 C105 1.272 1_656 S
O102 Zn99 1.986 . S
O102 C109 1.262 . S
O103 Zn98 2.049 . S
O103 C111 1.260 . S
O104 Zn99 1.996 . S
O104 C111 1.257 1_456 S
C105 O100 1.242 1_554 S
C105 O101 1.272 1_454 S
C106 O107 1.249 . S
C106 O108 1.270 . S
O107 Zn99 1.943 1_655 S
O107 C106 1.249 . S
O108 Zn98 2.067 1_556 S
O108 C106 1.270 . S
C109 O102 1.262 . S
C109 O110 1.232 . S
O110 C109 1.232 . S
C111 O103 1.260 . S
C111 O104 1.257 1_654 S
Zn112 O115 2.031 . S
Zn112 O117 2.049 . S
Zn112 O122 2.067 . S
Zn113 O114 1.962 . S
Zn113 O116 1.986 . S
Zn113 O118 1.996 . S
Zn113 O121 1.943 1_545 S
O114 Zn113 1.962 . S
O114 C119 1.254 . S
O115 Zn112 2.031 . S
O115 C119 1.269 1_565 S
O116 Zn113 1.986 . S
O116 C123 1.262 . S
O117 Zn112 2.049 . S
O117 C125 1.260 . S
O118 Zn113 1.996 . S
O118 C125 1.257 1_545 S
C119 O114 1.254 . S
C119 O115 1.269 1_545 S
C120 O121 1.249 . S
C120 O122 1.270 . S
O121 Zn113 1.943 1_565 S
O121 C120 1.249 . S
O122 Zn112 2.067 . S
O122 C120 1.270 . S
C123 O116 1.262 . S
C123 O124 1.232 . S
O124 C123 1.232 . S
C125 O117 1.260 . S
C125 O118 1.257 1_565 S
Zn126 O129 2.031 . S
Zn126 O131 2.049 . S
Zn126 O136 2.067 . S
Zn127 O128 1.962 . S
Zn127 O130 1.986 . S
Zn127 O132 1.996 . S
Zn127 O135 1.943 . S
O128 Zn127 1.962 . S
O128 C133 1.254 . S
O129 Zn126 2.031 . S
O129 C133 1.269 . S
O130 Zn127 1.986 . S
O130 C137 1.262 . S
O131 Zn126 2.049 . S
O131 C139 1.260 . S
O132 Zn127 1.996 . S
O132 C139 1.257 . S
C133 O128 1.254 . S
C133 O129 1.269 . S
C134 O135 1.249 . S
C134 O136 1.270 . S
O135 Zn127 1.943 . S
O135 C134 1.249 . S
O136 Zn126 2.067 . S
O136 C134 1.270 . S
C137 O130 1.262 . S
C137 O138 1.232 . S
O138 C137 1.232 . S
C139 O131 1.260 . S
C139 O132 1.257 . S
Zn140 O143 2.031 . S
Zn140 O145 2.049 . S
Zn140 O150 2.067 . S
Zn141 O142 1.962 . S
Zn141 O144 1.986 . S
Zn141 O146 1.996 . S
Zn141 O149 1.943 . S
O142 Zn141 1.962 . S
O142 C147 1.254 . S
O143 Zn140 2.031 . S
O143 C147 1.269 . S
O144 Zn141 1.986 . S
O144 C151 1.262 . S
O145 Zn140 2.049 . S
O145 C153 1.260 . S
O146 Zn141 1.996 . S
O146 C153 1.257 . S
C147 O142 1.254 . S
C147 O143 1.269 . S
C148 O149 1.249 . S
C148 O150 1.270 . S
O149 Zn141 1.943 . S
O149 C148 1.249 . S
O150 Zn140 2.067 . S
O150 C148 1.270 . S
C151 O144 1.262 . S
C151 O152 1.232 . S
O152 C151 1.232 . S
C153 O145 1.260 . S
C153 O146 1.257 . S
Zn154 O157 2.031 1_554 S
Zn154 O159 2.049 . S
Zn154 O164 2.067 . S
Zn155 O156 1.962 . S
Zn155 O158 1.986 1_556 S
Zn155 O160 1.996 1_556 S
Zn155 O163 1.943 1_556 S
O156 Zn155 1.962 . S
O156 C161 1.254 . S
O157 Zn154 2.031 1_556 S
O157 C161 1.269 . S
O158 Zn155 1.986 1_554 S
O158 C165 1.262 1_554 S
O159 Zn154 2.049 . S
O159 C167 1.260 . S
O160 Zn155 1.996 1_554 S
O160 C167 1.257 . S
C161 O156 1.254 . S
C161 O157 1.269 . S
C162 O163 1.249 . S
C162 O164 1.270 . S
O163 Zn155 1.943 1_554 S
O163 C162 1.249 . S
O164 Zn154 2.067 . S
O164 C162 1.270 . S
C165 O158 1.262 1_556 S
C165 O166 1.232 . S
O166 C165 1.232 . S
C167 O159 1.260 . S
C167 O160 1.257 . S
Zn168 O171 2.031 . S
Zn168 O173 2.049 . S
Zn168 O178 2.067 . S
Zn169 O170 1.962 . S
Zn169 O172 1.986 . S
Zn169 O174 1.996 . S
Zn169 O177 1.943 . S
O170 Zn169 1.962 . S
O170 C175 1.254 1_554 S
O171 Zn168 2.031 . S
O171 C175 1.269 1_554 S
O172 Zn169 1.986 . S
O172 C179 1.262 . S
O173 Zn168 2.049 . S
O173 C181 1.260 . S
O174 Zn169 1.996 . S
O174 C181 1.257 . S
C175 O170 1.254 1_556 S
C175 O171 1.269 1_556 S
C176 O177 1.249 . S
C176 O178 1.270 . S
O177 Zn169 1.943 . S
O177 C176 1.249 . S
O178 Zn168 2.067 . S
O178 C176 1.270 . S
C179 O172 1.262 . S
C179 O180 1.232 . S
O180 C179 1.232 . S
C181 O173 1.260 . S
C181 O174 1.257 . S
Zn182 O185 2.031 . S
Zn182 O187 2.049 . S
Zn182 O192 2.067 . S
Zn183 O184 1.962 . S
Zn183 O186 1.986 . S
Zn183 O188 1.996 . S
Zn183 O191 1.943 . S
O184 Zn183 1.962 . S
O184 C189 1.254 . S
O185 Zn182 2.031 . S
O185 C189 1.269 . S
O186 Zn183 1.986 . S
O186 C193 1.262 . S
O187 Zn182 2.049 . S
O187 C195 1.260 . S
O188 Zn183 1.996 . S
O188 C195 1.257 . S
C189 O184 1.254 . S
C189 O185 1.269 . S
C190 O191 1.249 . S
C190 O192 1.270 . S
O191 Zn183 1.943 . S
O191 C190 1.249 . S
O192 Zn182 2.067 . S
O192 C190 1.270 . S
C193 O186 1.262 . S
C193 O194 1.232 . S
O194 C193 1.232 . S
C195 O187 1.260 . S
C195 O188 1.257 . S
Zn196 O199 2.031 . S
Zn196 O201 2.049 . S
Zn196 O206 2.067 . S
Zn197 O198 1.962 . S
Zn197 O200 1.986 . S
Zn197 O202 1.996 . S
Zn197 O205 1.943 . S
O198 Zn197 1.962 . S
O198 C203 1.254 . S
O199 Zn196 2.031 . S
O199 C203 1.269 . S
O200 Zn197 1.986 . S
O200 C207 1.262 . S
O201 Zn196 2.049 . S
O201 C209 1.260 . S
O202 Zn197 1.996 . S
O202 C209 1.257 . S
C203 O198 1.254 . S
C203 O199 1.269 . S
C204 O205 1.249 . S
C204 O206 1.270 . S
O205 Zn197 1.943 . S
O205 C204 1.249 . S
O206 Zn196 2.067 . S
O206 C204 1.270 . S
C207 O200 1.262 . S
C207 O208 1.232 . S
O208 C207 1.232 . S
C209 O201 1.260 . S
C209 O202 1.257 . S
Zn210 O213 2.031 . S
Zn210 O215 2.049 . S
Zn210 O220 2.067 . S
Zn211 O212 1.962 . S
Zn211 O214 1.986 . S
Zn211 O216 1.996 . S
Zn211 O219 1.943 . S
O212 Zn211 1.962 . S
O212 C217 1.254 . S
O213 Zn210 2.031 . S
O213 C217 1.269 . S
O214 Zn211 1.986 . S
O214 C221 1.262 . S
O215 Zn210 2.049 . S
O215 C223 1.260 . S
O216 Zn211 1.996 . S
O216 C223 1.257 . S
C217 O212 1.254 . S
C217 O213 1.269 . S
C218 O219 1.249 . S
C218 O220 1.270 . S
O219 Zn211 1.943 . S
O219 C218 1.249 . S
O220 Zn210 2.067 . S
O220 C218 1.270 . S
C221 O214 1.262 . S
C221 O222 1.232 . S
O222 C221 1.232 . S
C223 O215 1.260 . S
C223 O216 1.257 . S
Zn224 O227 2.031 . S
Zn224 O229 2.049 . S
Zn224 O234 2.067 . S
Zn225 O226 1.962 . S
Zn225 O228 1.986 . S
Zn225 O230 1.996 . S
Zn225 O233 1.943 1_545 S
O226 Zn225 1.962 . S
O226 C231 1.254 . S
O227 Zn224 2.031 . S
O227 C231 1.269 1_565 S
O228 Zn225 1.986 . S
O228 C235 1.262 . S
O229 Zn224 2.049 . S
O229 C237 1.260 1_565 S
O230 Zn225 1.996 . S
O230 C237 1.257 . S
C231 O226 1.254 . S
C231 O227 1.269 1_545 S
C232 O233 1.249 . S
C232 O234 1.270 . S
O233 Zn225 1.943 1_565 S
O233 C232 1.249 . S
O234 Zn224 2.067 . S
O234 C232 1.270 . S
C235 O228 1.262 . S
C235 O236 1.232 . S
O236 C235 1.232 . S
C237 O229 1.260 1_545 S
C237 O230 1.257 . S
Zn238 O241 2.031 . S
Zn238 O243 2.049 . S
Zn238 O248 2.067 . S
Zn239 O240 1.962 . S
Zn239 O242 1.986 . S
Zn239 O244 1.996 . S
Zn239 O247 1.943 . S
O240 Zn239 1.962 . S
O240 C245 1.254 . S
O241 Zn238 2.031 . S
O241 C245 1.269 . S
O242 Zn239 1.986 . S
O242 C249 1.262 . S
O243 Zn238 2.049 . S
O243 C251 1.260 . S
O244 Zn239 1.996 . S
O244 C251 1.257 . S
C245 O240 1.254 . S
C245 O241 1.269 . S
C246 O247 1.249 . S
C246 O248 1.270 . S
O247 Zn239 1.943 . S
O247 C246 1.249 . S
O248 Zn238 2.067 . S
O248 C246 1.270 . S
C249 O242 1.262 . S
C249 O250 1.232 . S
O250 C249 1.232 . S
C251 O243 1.260 . S
C251 O244 1.257 . S
Zn252 O255 2.031 . S
Zn252 O257 2.049 . S
Zn252 O262 2.067 . S
Zn253 O254 1.962 . S
Zn253 O256 1.986 . S
Zn253 O258 1.996 . S
Zn253 O261 1.943 . S
O254 Zn253 1.962 . S
O254 C259 1.254 . S
O255 Zn252 2.031 . S
O255 C259 1.269 . S
O256 Zn253 1.986 . S
O256 C263 1.262 . S
O257 Zn252 2.049 . S
O257 C265 1.260 . S
O258 Zn253 1.996 . S
O258 C265 1.257 . S
C259 O254 1.254 . S
C259 O255 1.269 . S
C260 O261 1.249 . S
C260 O262 1.270 . S
O261 Zn253 1.943 . S
O261 C260 1.249 . S
O262 Zn252 2.067 . S
O262 C260 1.270 . S
C263 O256 1.262 . S
C263 O264 1.232 . S
O264 C263 1.232 . S
C265 O257 1.260 . S
C265 O258 1.257 . S
Zn266 O269 2.031 . S
Zn266 O271 2.049 . S
Zn266 O276 2.067 . S
Zn267 O268 1.962 . S
Zn267 O270 1.986 . S
Zn267 O272 1.996 . S
Zn267 O275 1.943 . S
O268 Zn267 1.962 . S
O268 C273 1.254 . S
O269 Zn266 2.031 . S
O269 C273 1.269 . S
O270 Zn267 1.986 . S
O270 C277 1.262 . S
O271 Zn266 2.049 . S
O271 C279 1.260 . S
O272 Zn267 1.996 . S
O272 C279 1.257 . S
C273 O268 1.254 . S
C273 O269 1.269 . S
C274 O275 1.249 . S
C274 O276 1.270 . S
O275 Zn267 1.943 . S
O275 C274 1.249 . S
O276 Zn266 2.067 . S
O276 C274 1.270 . S
C277 O270 1.262 . S
C277 O278 1.232 . S
O278 C277 1.232 . S
C279 O271 1.260 . S
C279 O272 1.257 . S
Zn280 O283 2.031 1_554 S
Zn280 O285 2.049 . S
Zn280 O290 2.067 . S
Zn281 O282 1.962 1_554 S
Zn281 O284 1.986 . S
Zn281 O286 1.996 . S
Zn281 O289 1.943 . S
O282 Zn281 1.962 1_556 S
O282 C287 1.254 . S
O283 Zn280 2.031 1_556 S
O283 C287 1.269 . S
O284 Zn281 1.986 . S
O284 C291 1.262 . S
O285 Zn280 2.049 . S
O285 C293 1.260 . S
O286 Zn281 1.996 . S
O286 C293 1.257 . S
C287 O282 1.254 . S
C287 O283 1.269 . S
C288 O289 1.249 . S
C288 O290 1.270 . S
O289 Zn281 1.943 . S
O289 C288 1.249 . S
O290 Zn280 2.067 . S
O290 C288 1.270 . S
C291 O284 1.262 . S
C291 O292 1.232 1_554 S
O292 C291 1.232 1_556 S
C293 O285 1.260 . S
C293 O286 1.257 . S
Zn294 O297 2.031 . S
Zn294 O299 2.049 . S
Zn294 O304 2.067 . S
Zn295 O296 1.962 . S
Zn295 O298 1.986 . S
Zn295 O300 1.996 . S
Zn295 O303 1.943 . S
O296 Zn295 1.962 . S
O296 C301 1.254 . S
O297 Zn294 2.031 . S
O297 C301 1.269 . S
O298 Zn295 1.986 . S
O298 C305 1.262 . S
O299 Zn294 2.049 . S
O299 C307 1.260 . S
O300 Zn295 1.996 . S
O300 C307 1.257 . S
C301 O296 1.254 . S
C301 O297 1.269 . S
C302 O303 1.249 . S
C302 O304 1.270 . S
O303 Zn295 1.943 . S
O303 C302 1.249 . S
O304 Zn294 2.067 . S
O304 C302 1.270 . S
C305 O298 1.262 . S
C305 O306 1.232 . S
O306 C305 1.232 . S
C307 O299 1.260 . S
C307 O300 1.257 . S
Zn308 O311 2.031 . S
Zn308 O313 2.049 . S
Zn308 O318 2.067 . S
Zn309 O310 1.962 . S
Zn309 O312 1.986 . S
Zn309 O314 1.996 . S
Zn309 O317 1.943 . S
O310 Zn309 1.962 . S
O310 C315 1.254 . S
O311 Zn308 2.031 . S
O311 C315 1.269 . S
O312 Zn309 1.986 . S
O312 C319 1.262 . S
O313 Zn308 2.049 . S
O313 C321 1.260 . S
O314 Zn309 1.996 . S
O314 C321 1.257 . S
C315 O310 1.254 . S
C315 O311 1.269 . S
C316 O317 1.249 . S
C316 O318 1.270 . S
O317 Zn309 1.943 . S
O317 C316 1.249 . S
O318 Zn308 2.067 . S
O318 C316 1.270 . S
C319 O312 1.262 . S
C319 O320 1.232 . S
O320 C319 1.232 . S
C321 O313 1.260 . S
C321 O314 1.257 . S
Zn322 O325 2.031 . S
Zn322 O327 2.049 . S
Zn322 O332 2.067 . S
Zn323 O324 1.962 . S
Zn323 O326 1.986 . S
Zn323 O328 1.996 . S
Zn323 O331 1.943 . S
O324 Zn323 1.962 . S
O324 C329 1.254 . S
O325 Zn322 2.031 . S
O325 C329 1.269 . S
O326 Zn323 1.986 . S
O326 C333 1.262 . S
O327 Zn322 2.049 . S
O327 C335 1.260 . S
O328 Zn323 1.996 . S
O328 C335 1.257 . S
C329 O324 1.254 . S
C329 O325 1.269 . S
C330 O331 1.249 . S
C330 O332 1.270 . S
O331 Zn323 1.943 . S
O331 C330 1.249 . S
O332 Zn322 2.067 . S
O332 C330 1.270 . S
C333 O326 1.262 . S
C333 O334 1.232 . S
O334 C333 1.232 . S
C335 O327 1.260 . S
C335 O328 1.257 . S
Tb336 N365 2.617 . S
Tb336 N371 2.572 . S
Tb336 O380 2.465 . S
Tb336 O381 2.387 . S
Tb336 O383 2.428 . S
Tb336 O384 2.308 . S
Tb336 O388 2.349 . S
Tb336 O391 2.393 . S
Tb336 C400 2.802 . S
C337 N338 1.379 . S
C337 C340 1.416 . S
C337 C344 1.424 1_556 S
N338 C337 1.379 . S
N338 C341 1.334 . S
N338 Tb347 2.617 1_566 S
C339 C341 1.390 . S
C339 C342 1.339 . S
C339 H359 0.930 . S
C340 C337 1.416 . S
C340 C342 1.416 . S
C340 C346 1.448 . S
C341 N338 1.334 . S
C341 C339 1.390 . S
C341 H352 0.930 . S
C342 C339 1.339 . S
C342 C340 1.416 . S
C342 H363 0.930 . S
C343 C344 1.413 . S
C343 C345 1.427 1_554 S
C343 C349 1.416 . S
C344 C337 1.424 1_554 S
C344 C343 1.413 . S
C344 N348 1.361 . S
C345 C343 1.427 1_556 S
C345 C346 1.328 . S
C345 H360 0.929 . S
C346 C340 1.448 . S
C346 C345 1.328 . S
C346 H361 0.930 . S
Tb347 N338 2.617 1_544 S
Tb347 N348 2.572 1_545 S
Tb347 O382 2.349 1_655 S
Tb347 O385 2.393 1_654 S
Tb347 O386 2.465 . S
Tb347 O387 2.387 1_645 S
Tb347 O389 2.428 1_554 S
Tb347 O390 2.308 1_655 S
Tb347 C411 2.802 . S
N348 C344 1.361 . S
N348 Tb347 2.572 1_565 S
N348 C350 1.340 . S
C349 C343 1.416 . S
C349 C351 1.332 . S
C349 H357 0.931 . S
C350 N348 1.340 . S
C350 C351 1.407 . S
C350 H356 0.930 . S
C351 C349 1.332 . S
C351 C350 1.407 . S
C351 H353 0.929 . S
H352 C341 0.930 . S
H353 C351 0.929 . S
H354 C369 0.930 . S
H355 C376 0.929 1_556 S
H356 C350 0.930 . S
H357 C349 0.931 . S
H358 C372 0.930 . S
H359 C339 0.930 . S
H360 C345 0.929 . S
H361 C346 0.930 . S
H362 C367 0.930 . S
H363 C342 0.930 . S
H364 C375 0.931 . S
N365 Tb336 2.617 . S
N365 C366 1.379 . S
N365 C369 1.334 . S
C366 N365 1.379 . S
C366 C368 1.416 . S
C366 C374 1.424 . S
C367 H362 0.930 . S
C367 C369 1.390 . S
C367 C370 1.339 . S
C368 C366 1.416 . S
C368 C370 1.416 . S
C368 C401 1.448 . S
C369 H354 0.930 . S
C369 N365 1.334 . S
C369 C367 1.390 . S
C370 C367 1.339 . S
C370 C368 1.416 . S
C370 H377 0.930 . S
N371 Tb336 2.572 . S
N371 C372 1.340 . S
N371 C374 1.361 . S
C372 H358 0.930 . S
C372 N371 1.340 . S
C372 C376 1.407 . S
C373 C374 1.413 . S
C373 C375 1.416 . S
C373 C402 1.427 . S
C374 C366 1.424 . S
C374 N371 1.361 . S
C374 C373 1.413 . S
C375 H364 0.931 . S
C375 C373 1.416 . S
C375 C376 1.332 . S
C376 H355 0.929 1_554 S
C376 C372 1.407 . S
C376 C375 1.332 . S
H377 C370 0.930 . S
H378 C401 0.930 . S
H379 C402 0.929 . S
O380 Tb336 2.465 . S
O380 C400 1.264 . S
O381 Tb336 2.387 . S
O381 C392 1.264 . S
O382 Tb347 2.349 1_455 S
O382 C392 1.243 . S
O383 Tb336 2.428 . S
O383 C400 1.256 . S
O384 Tb336 2.308 . S
O384 C399 1.266 1_554 S
O385 Tb347 2.393 1_456 S
O385 C399 1.248 . S
O386 Tb347 2.465 . S
O386 C411 1.264 . S
O387 Tb347 2.387 1_465 S
O387 C403 1.264 . S
O388 Tb336 2.349 . S
O388 C403 1.243 1_545 S
O389 Tb347 2.428 1_556 S
O389 C411 1.256 1_556 S
O390 Tb347 2.308 1_455 S
O390 C410 1.266 . S
O391 Tb336 2.393 . S
O391 C410 1.248 . S
C392 O381 1.264 . S
C392 O382 1.243 . S
C393 C396 1.399 . S
C393 C398 1.383 . S
C393 C400 1.496 . S
C394 C395 1.399 . S
C394 C398 1.389 . S
C395 C394 1.399 . S
C395 C397 1.380 . S
C395 H412 0.929 . S
C396 C393 1.399 . S
C396 C397 1.392 . S
C396 H413 0.929 . S
C397 C395 1.380 . S
C397 C396 1.392 . S
C397 H414 0.929 . S
C398 C393 1.383 . S
C398 C394 1.389 . S
C398 H415 0.931 . S
C399 O384 1.266 1_556 S
C399 O385 1.248 . S
C400 Tb336 2.802 . S
C400 O380 1.264 . S
C400 O383 1.256 . S
C400 C393 1.496 . S
C401 C368 1.448 . S
C401 H378 0.930 . S
C401 C402 1.328 . S
C402 C373 1.427 . S
C402 H379 0.929 . S
C402 C401 1.328 . S
C403 O387 1.264 . S
C403 O388 1.243 1_565 S
C404 C407 1.399 1_554 S
C404 C408 1.383 . S
C404 C411 1.496 . S
C405 C406 1.399 1_554 S
C405 C408 1.389 . S
C406 C405 1.399 1_556 S
C406 C409 1.380 . S
C406 H416 0.929 . S
C407 C404 1.399 1_556 S
C407 C409 1.392 . S
C407 H417 0.929 . S
C408 C404 1.383 . S
C408 C405 1.389 . S
C408 H418 0.931 . S
C409 C406 1.380 . S
C409 C407 1.392 . S
C409 H419 0.929 . S
C410 O390 1.266 . S
C410 O391 1.248 . S
C411 Tb347 2.802 . S
C411 O386 1.264 . S
C411 O389 1.256 1_554 S
C411 C404 1.496 . S
H412 C395 0.929 . S
H413 C396 0.929 . S
H414 C397 0.929 . S
H415 C398 0.931 . S
H416 C406 0.929 . S
H417 C407 0.929 . S
H418 C408 0.931 . S
H419 C409 0.929 . S
Tb420 N449 2.617 . S
Tb420 N455 2.572 . S
Tb420 O464 2.465 . S
Tb420 O465 2.387 . S
Tb420 O467 2.428 . S
Tb420 O468 2.308 . S
Tb420 O472 2.349 . S
Tb420 O475 2.393 . S
Tb420 C484 2.802 . S
C421 N422 1.379 . S
C421 C424 1.416 . S
C421 C428 1.424 . S
N422 C421 1.379 . S
N422 C425 1.334 . S
N422 Tb431 2.617 . S
C423 C425 1.390 . S
C423 C426 1.339 . S
C423 H443 0.930 . S
C424 C421 1.416 . S
C424 C426 1.416 . S
C424 C430 1.448 . S
C425 N422 1.334 . S
C425 C423 1.390 . S
C425 H436 0.930 . S
C426 C423 1.339 . S
C426 C424 1.416 . S
C426 H447 0.930 . S
C427 C428 1.413 . S
C427 C429 1.427 . S
C427 C433 1.416 . S
C428 C421 1.424 . S
C428 C427 1.413 . S
C428 N432 1.361 . S
C429 C427 1.427 . S
C429 C430 1.328 . S
C429 H444 0.929 . S
C430 C424 1.448 . S
C430 C429 1.328 . S
C430 H445 0.930 . S
Tb431 N422 2.617 . S
Tb431 N432 2.572 . S
Tb431 O466 2.349 . S
Tb431 O469 2.393 . S
Tb431 O470 2.465 . S
Tb431 O471 2.387 . S
Tb431 O473 2.428 . S
Tb431 O474 2.308 . S
Tb431 C495 2.802 . S
N432 C428 1.361 . S
N432 Tb431 2.572 . S
N432 C434 1.340 . S
C433 C427 1.416 . S
C433 C435 1.332 . S
C433 H441 0.931 . S
C434 N432 1.340 . S
C434 C435 1.407 . S
C434 H440 0.930 . S
C435 C433 1.332 . S
C435 C434 1.407 . S
C435 H437 0.929 . S
H436 C425 0.930 . S
H437 C435 0.929 . S
H438 C453 0.930 . S
H439 C460 0.929 . S
H440 C434 0.930 . S
H441 C433 0.931 . S
H442 C456 0.930 . S
H443 C423 0.930 . S
H444 C429 0.929 . S
H445 C430 0.930 . S
H446 C451 0.930 . S
H447 C426 0.930 . S
H448 C459 0.931 . S
N449 Tb420 2.617 . S
N449 C450 1.379 . S
N449 C453 1.334 . S
C450 N449 1.379 . S
C450 C452 1.416 . S
C450 C458 1.424 . S
C451 H446 0.930 . S
C451 C453 1.390 . S
C451 C454 1.339 . S
C452 C450 1.416 . S
C452 C454 1.416 . S
C452 C485 1.448 . S
C453 H438 0.930 . S
C453 N449 1.334 . S
C453 C451 1.390 . S
C454 C451 1.339 . S
C454 C452 1.416 . S
C454 H461 0.930 . S
N455 Tb420 2.572 . S
N455 C456 1.340 . S
N455 C458 1.361 . S
C456 H442 0.930 . S
C456 N455 1.340 . S
C456 C460 1.407 . S
C457 C458 1.413 . S
C457 C459 1.416 . S
C457 C486 1.427 . S
C458 C450 1.424 . S
C458 N455 1.361 . S
C458 C457 1.413 . S
C459 H448 0.931 . S
C459 C457 1.416 . S
C459 C460 1.332 . S
C460 H439 0.929 . S
C460 C456 1.407 . S
C460 C459 1.332 . S
H461 C454 0.930 . S
H462 C485 0.930 . S
H463 C486 0.929 . S
O464 Tb420 2.465 . S
O464 C484 1.264 . S
O465 Tb420 2.387 . S
O465 C476 1.264 . S
O466 Tb431 2.349 . S
O466 C476 1.243 . S
O467 Tb420 2.428 . S
O467 C484 1.256 . S
O468 Tb420 2.308 . S
O468 C483 1.266 . S
O469 Tb431 2.393 . S
O469 C483 1.248 . S
O470 Tb431 2.465 . S
O470 C495 1.264 . S
O471 Tb431 2.387 . S
O471 C487 1.264 . S
O472 Tb420 2.349 . S
O472 C487 1.243 . S
O473 Tb431 2.428 . S
O473 C495 1.256 . S
O474 Tb431 2.308 . S
O474 C494 1.266 . S
O475 Tb420 2.393 . S
O475 C494 1.248 . S
C476 O465 1.264 . S
C476 O466 1.243 . S
C477 C480 1.399 . S
C477 C482 1.383 . S
C477 C484 1.496 . S
C478 C479 1.399 . S
C478 C482 1.389 . S
C479 C478 1.399 . S
C479 C481 1.380 . S
C479 H496 0.929 . S
C480 C477 1.399 . S
C480 C481 1.392 . S
C480 H497 0.929 . S
C481 C479 1.380 . S
C481 C480 1.392 . S
C481 H498 0.929 . S
C482 C477 1.383 . S
C482 C478 1.389 . S
C482 H499 0.931 . S
C483 O468 1.266 . S
C483 O469 1.248 . S
C484 Tb420 2.802 . S
C484 O464 1.264 . S
C484 O467 1.256 . S
C484 C477 1.496 . S
C485 C452 1.448 . S
C485 H462 0.930 . S
C485 C486 1.328 . S
C486 C457 1.427 . S
C486 H463 0.929 . S
C486 C485 1.328 . S
C487 O471 1.264 . S
C487 O472 1.243 . S
C488 C491 1.399 . S
C488 C492 1.383 . S
C488 C495 1.496 . S
C489 C490 1.399 . S
C489 C492 1.389 . S
C490 C489 1.399 . S
C490 C493 1.380 . S
C490 H500 0.929 . S
C491 C488 1.399 . S
C491 C493 1.392 . S
C491 H501 0.929 . S
C492 C488 1.383 . S
C492 C489 1.389 . S
C492 H502 0.931 . S
C493 C490 1.380 . S
C493 C491 1.392 . S
C493 H503 0.929 . S
C494 O474 1.266 . S
C494 O475 1.248 . S
C495 Tb431 2.802 . S
C495 O470 1.264 . S
C495 O473 1.256 . S
C495 C488 1.496 . S
H496 C479 0.929 . S
H497 C480 0.929 . S
H498 C481 0.929 . S
H499 C482 0.931 . S
H500 C490 0.929 . S
H501 C491 0.929 . S
H502 C492 0.931 . S
H503 C493 0.929 . S
Tb504 N533 2.617 . S
Tb504 N539 2.572 1_545 S
Tb504 O548 2.465 . S
Tb504 O549 2.387 1_545 S
Tb504 O551 2.428 . S
Tb504 O552 2.308 . S
Tb504 O556 2.349 . S
Tb504 O559 2.393 . S
Tb504 C568 2.802 . S
C505 N506 1.379 . S
C505 C508 1.416 . S
C505 C512 1.424 . S
N506 C505 1.379 . S
N506 C509 1.334 . S
N506 Tb515 2.617 . S
C507 C509 1.390 . S
C507 C510 1.339 . S
C507 H527 0.930 . S
C508 C505 1.416 . S
C508 C510 1.416 . S
C508 C514 1.448 . S
C509 N506 1.334 . S
C509 C507 1.390 . S
C509 H520 0.930 . S
C510 C507 1.339 . S
C510 C508 1.416 . S
C510 H531 0.930 . S
C511 C512 1.413 . S
C511 C513 1.427 . S
C511 C517 1.416 . S
C512 C505 1.424 . S
C512 C511 1.413 . S
C512 N516 1.361 . S
C513 C511 1.427 . S
C513 C514 1.328 . S
C513 H528 0.929 . S
C514 C508 1.448 . S
C514 C513 1.328 . S
C514 H529 0.930 . S
Tb515 N506 2.617 . S
Tb515 N516 2.572 . S
Tb515 O550 2.349 1_545 S
Tb515 O553 2.393 . S
Tb515 O554 2.465 . S
Tb515 O555 2.387 . S
Tb515 O557 2.428 . S
Tb515 O558 2.308 . S
Tb515 C579 2.802 . S
N516 C512 1.361 . S
N516 Tb515 2.572 . S
N516 C518 1.340 . S
C517 C511 1.416 . S
C517 C519 1.332 . S
C517 H525 0.931 . S
C518 N516 1.340 . S
C518 C519 1.407 . S
C518 H524 0.930 . S
C519 C517 1.332 . S
C519 C518 1.407 . S
C519 H521 0.929 . S
H520 C509 0.930 . S
H521 C519 0.929 . S
H522 C537 0.930 . S
H523 C544 0.929 . S
H524 C518 0.930 . S
H525 C517 0.931 . S
H526 C540 0.930 . S
H527 C507 0.930 . S
H528 C513 0.929 . S
H529 C514 0.930 . S
H530 C535 0.930 . S
H531 C510 0.930 . S
H532 C543 0.931 . S
N533 Tb504 2.617 . S
N533 C534 1.379 1_545 S
N533 C537 1.334 . S
C534 N533 1.379 1_565 S
C534 C536 1.416 . S
C534 C542 1.424 . S
C535 H530 0.930 . S
C535 C537 1.390 1_565 S
C535 C538 1.339 . S
C536 C534 1.416 . S
C536 C538 1.416 . S
C536 C569 1.448 . S
C537 H522 0.930 . S
C537 N533 1.334 . S
C537 C535 1.390 1_545 S
C538 C535 1.339 . S
C538 C536 1.416 . S
C538 H545 0.930 . S
N539 Tb504 2.572 1_565 S
N539 C540 1.340 . S
N539 C542 1.361 . S
C540 H526 0.930 . S
C540 N539 1.340 . S
C540 C544 1.407 . S
C541 C542 1.413 . S
C541 C543 1.416 . S
C541 C570 1.427 . S
C542 C534 1.424 . S
C542 N539 1.361 . S
C542 C541 1.413 . S
C543 H532 0.931 . S
C543 C541 1.416 . S
C543 C544 1.332 . S
C544 H523 0.929 . S
C544 C540 1.407 . S
C544 C543 1.332 . S
H545 C538 0.930 . S
H546 C569 0.930 . S
H547 C570 0.929 . S
O548 Tb504 2.465 . S
O548 C568 1.264 . S
O549 Tb504 2.387 1_565 S
O549 C560 1.264 . S
O550 Tb515 2.349 1_565 S
O550 C560 1.243 . S
O551 Tb504 2.428 . S
O551 C568 1.256 . S
O552 Tb504 2.308 . S
O552 C567 1.266 . S
O553 Tb515 2.393 . S
O553 C567 1.248 . S
O554 Tb515 2.465 . S
O554 C579 1.264 . S
O555 Tb515 2.387 . S
O555 C571 1.264 . S
O556 Tb504 2.349 . S
O556 C571 1.243 . S
O557 Tb515 2.428 . S
O557 C579 1.256 . S
O558 Tb515 2.308 . S
O558 C578 1.266 . S
O559 Tb504 2.393 . S
O559 C578 1.248 . S
C560 O549 1.264 . S
C560 O550 1.243 . S
C561 C564 1.399 . S
C561 C566 1.383 . S
C561 C568 1.496 . S
C562 C563 1.399 . S
C562 C566 1.389 . S
C563 C562 1.399 . S
C563 C565 1.380 . S
C563 H580 0.929 . S
C564 C561 1.399 . S
C564 C565 1.392 . S
C564 H581 0.929 . S
C565 C563 1.380 . S
C565 C564 1.392 . S
C565 H582 0.929 . S
C566 C561 1.383 . S
C566 C562 1.389 . S
C566 H583 0.931 . S
C567 O552 1.266 . S
C567 O553 1.248 . S
C568 Tb504 2.802 . S
C568 O548 1.264 . S
C568 O551 1.256 . S
C568 C561 1.496 . S
C569 C536 1.448 . S
C569 H546 0.930 . S
C569 C570 1.328 . S
C570 C541 1.427 . S
C570 H547 0.929 . S
C570 C569 1.328 . S
C571 O555 1.264 . S
C571 O556 1.243 . S
C572 C575 1.399 . S
C572 C576 1.383 . S
C572 C579 1.496 1_565 S
C573 C574 1.399 . S
C573 C576 1.389 . S
C574 C573 1.399 . S
C574 C577 1.380 . S
C574 H584 0.929 . S
C575 C572 1.399 . S
C575 C577 1.392 . S
C575 H585 0.929 . S
C576 C572 1.383 . S
C576 C573 1.389 . S
C576 H586 0.931 . S
C577 C574 1.380 . S
C577 C575 1.392 . S
C577 H587 0.929 . S
C578 O558 1.266 . S
C578 O559 1.248 . S
C579 Tb515 2.802 . S
C579 O554 1.264 . S
C579 O557 1.256 . S
C579 C572 1.496 1_545 S
H580 C563 0.929 . S
H581 C564 0.929 . S
H582 C565 0.929 . S
H583 C566 0.931 . S
H584 C574 0.929 . S
H585 C575 0.929 . S
H586 C576 0.931 . S
H587 C577 0.929 . S
Tb588 N617 2.617 . S
Tb588 N623 2.572 . S
Tb588 O632 2.465 . S
Tb588 O633 2.387 . S
Tb588 O635 2.428 . S
Tb588 O636 2.308 . S
Tb588 O640 2.349 . S
Tb588 O643 2.393 . S
Tb588 C652 2.802 . S
C589 N590 1.379 . S
C589 C592 1.416 . S
C589 C596 1.424 . S
N590 C589 1.379 . S
N590 C593 1.334 . S
N590 Tb599 2.617 . S
C591 C593 1.390 . S
C591 C594 1.339 . S
C591 H611 0.930 . S
C592 C589 1.416 . S
C592 C594 1.416 . S
C592 C598 1.448 . S
C593 N590 1.334 . S
C593 C591 1.390 . S
C593 H604 0.930 . S
C594 C591 1.339 . S
C594 C592 1.416 . S
C594 H615 0.930 . S
C595 C596 1.413 . S
C595 C597 1.427 . S
C595 C601 1.416 . S
C596 C589 1.424 . S
C596 C595 1.413 . S
C596 N600 1.361 . S
C597 C595 1.427 . S
C597 C598 1.328 . S
C597 H612 0.929 . S
C598 C592 1.448 . S
C598 C597 1.328 . S
C598 H613 0.930 . S
Tb599 N590 2.617 . S
Tb599 N600 2.572 . S
Tb599 O634 2.349 . S
Tb599 O637 2.393 . S
Tb599 O638 2.465 . S
Tb599 O639 2.387 . S
Tb599 O641 2.428 . S
Tb599 O642 2.308 . S
Tb599 C663 2.802 . S
N600 C596 1.361 . S
N600 Tb599 2.572 . S
N600 C602 1.340 . S
C601 C595 1.416 . S
C601 C603 1.332 . S
C601 H609 0.931 . S
C602 N600 1.340 . S
C602 C603 1.407 . S
C602 H608 0.930 . S
C603 C601 1.332 . S
C603 C602 1.407 . S
C603 H605 0.929 . S
H604 C593 0.930 . S
H605 C603 0.929 . S
H606 C621 0.930 . S
H607 C628 0.929 . S
H608 C602 0.930 . S
H609 C601 0.931 . S
H610 C624 0.930 . S
H611 C591 0.930 . S
H612 C597 0.929 . S
H613 C598 0.930 . S
H614 C619 0.930 . S
H615 C594 0.930 . S
H616 C627 0.931 . S
N617 Tb588 2.617 . S
N617 C618 1.379 . S
N617 C621 1.334 . S
C618 N617 1.379 . S
C618 C620 1.416 . S
C618 C626 1.424 . S
C619 H614 0.930 . S
C619 C621 1.390 . S
C619 C622 1.339 . S
C620 C618 1.416 . S
C620 C622 1.416 . S
C620 C653 1.448 . S
C621 H606 0.930 . S
C621 N617 1.334 . S
C621 C619 1.390 . S
C622 C619 1.339 . S
C622 C620 1.416 . S
C622 H629 0.930 . S
N623 Tb588 2.572 . S
N623 C624 1.340 . S
N623 C626 1.361 . S
C624 H610 0.930 . S
C624 N623 1.340 . S
C624 C628 1.407 . S
C625 C626 1.413 . S
C625 C627 1.416 . S
C625 C654 1.427 . S
C626 C618 1.424 . S
C626 N623 1.361 . S
C626 C625 1.413 . S
C627 H616 0.931 . S
C627 C625 1.416 . S
C627 C628 1.332 . S
C628 H607 0.929 . S
C628 C624 1.407 . S
C628 C627 1.332 . S
H629 C622 0.930 . S
H630 C653 0.930 . S
H631 C654 0.929 . S
O632 Tb588 2.465 . S
O632 C652 1.264 . S
O633 Tb588 2.387 . S
O633 C644 1.264 . S
O634 Tb599 2.349 . S
O634 C644 1.243 . S
O635 Tb588 2.428 . S
O635 C652 1.256 . S
O636 Tb588 2.308 . S
O636 C651 1.266 . S
O637 Tb599 2.393 . S
O637 C651 1.248 . S
O638 Tb599 2.465 . S
O638 C663 1.264 . S
O639 Tb599 2.387 . S
O639 C655 1.264 . S
O640 Tb588 2.349 . S
O640 C655 1.243 . S
O641 Tb599 2.428 . S
O641 C663 1.256 . S
O642 Tb599 2.308 . S
O642 C662 1.266 . S
O643 Tb588 2.393 . S
O643 C662 1.248 . S
C644 O633 1.264 . S
C644 O634 1.243 . S
C645 C648 1.399 . S
C645 C650 1.383 . S
C645 C652 1.496 . S
C646 C647 1.399 . S
C646 C650 1.389 . S
C647 C646 1.399 . S
C647 C649 1.380 . S
C647 H664 0.929 . S
C648 C645 1.399 . S
C648 C649 1.392 . S
C648 H665 0.929 . S
C649 C647 1.380 . S
C649 C648 1.392 . S
C649 H666 0.929 . S
C650 C645 1.383 . S
C650 C646 1.389 . S
C650 H667 0.931 . S
C651 O636 1.266 . S
C651 O637 1.248 . S
C652 Tb588 2.802 . S
C652 O632 1.264 . S
C652 O635 1.256 . S
C652 C645 1.496 . S
C653 C620 1.448 . S
C653 H630 0.930 . S
C653 C654 1.328 . S
C654 C625 1.427 . S
C654 H631 0.929 . S
C654 C653 1.328 . S
C655 O639 1.264 . S
C655 O640 1.243 . S
C656 C659 1.399 . S
C656 C660 1.383 . S
C656 C663 1.496 . S
C657 C658 1.399 . S
C657 C660 1.389 . S
C658 C657 1.399 . S
C658 C661 1.380 . S
C658 H668 0.929 . S
C659 C656 1.399 . S
C659 C661 1.392 . S
C659 H669 0.929 . S
C660 C656 1.383 . S
C660 C657 1.389 . S
C660 H670 0.931 . S
C661 C658 1.380 . S
C661 C659 1.392 . S
C661 H671 0.929 . S
C662 O642 1.266 . S
C662 O643 1.248 . S
C663 Tb599 2.802 . S
C663 O638 1.264 . S
C663 O641 1.256 . S
C663 C656 1.496 . S
H664 C647 0.929 . S
H665 C648 0.929 . S
H666 C649 0.929 . S
H667 C650 0.931 . S
H668 C658 0.929 . S
H669 C659 0.929 . S
H670 C660 0.931 . S
H671 C661 0.929 . S
Tb672 N701 2.617 1_545 S
Tb672 N707 2.572 1_545 S
Tb672 O716 2.465 1_545 S
Tb672 O717 2.387 . S
Tb672 O719 2.428 1_545 S
Tb672 O720 2.308 . S
Tb672 O724 2.349 . S
Tb672 O727 2.393 . S
Tb672 C736 2.802 1_545 S
C673 N674 1.379 1_455 S
C673 C676 1.416 1_455 S
C673 C680 1.424 . S
N674 C673 1.379 1_655 S
N674 C677 1.334 . S
N674 Tb683 2.617 1_655 S
C675 C677 1.390 . S
C675 C678 1.339 . S
C675 H695 0.930 . S
C676 C673 1.416 1_655 S
C676 C678 1.416 . S
C676 C682 1.448 1_655 S
C677 N674 1.334 . S
C677 C675 1.390 . S
C677 H688 0.930 . S
C678 C675 1.339 . S
C678 C676 1.416 . S
C678 H699 0.930 . S
C679 C680 1.413 . S
C679 C681 1.427 . S
C679 C685 1.416 . S
C680 C673 1.424 . S
C680 C679 1.413 . S
C680 N684 1.361 . S
C681 C679 1.427 . S
C681 C682 1.328 . S
C681 H696 0.929 . S
C682 C676 1.448 1_455 S
C682 C681 1.328 . S
C682 H697 0.930 . S
Tb683 N674 2.617 1_455 S
Tb683 N684 2.572 . S
Tb683 O718 2.349 . S
Tb683 O721 2.393 1_455 S
Tb683 O722 2.465 . S
Tb683 O723 2.387 . S
Tb683 O725 2.428 1_455 S
Tb683 O726 2.308 . S
Tb683 C747 2.802 . S
N684 C680 1.361 . S
N684 Tb683 2.572 . S
N684 C686 1.340 . S
C685 C679 1.416 . S
C685 C687 1.332 . S
C685 H693 0.931 . S
C686 N684 1.340 . S
C686 C687 1.407 . S
C686 H692 0.930 . S
C687 C685 1.332 . S
C687 C686 1.407 . S
C687 H689 0.929 . S
H688 C677 0.930 . S
H689 C687 0.929 . S
H690 C705 0.914 1_545 S
H691 C712 0.929 . S
H692 C686 0.930 . S
H693 C685 0.931 . S
H694 C708 0.930 . S
H695 C675 0.930 . S
H696 C681 0.929 . S
H697 C682 0.930 . S
H698 C703 0.930 1_545 S
H699 C678 0.930 . S
H700 C711 0.931 . S
N701 Tb672 2.617 1_565 S
N701 C702 1.379 . S
N701 C705 1.342 . S
C702 N701 1.379 . S
C702 C704 1.416 . S
C702 C710 1.424 . S
C703 H698 0.930 1_565 S
C703 C705 1.399 . S
C703 C706 1.339 . S
C704 C702 1.416 . S
C704 C706 1.416 . S
C704 C737 1.448 . S
C705 H690 0.914 1_565 S
C705 N701 1.342 . S
C705 C703 1.399 . S
C706 C703 1.339 . S
C706 C704 1.416 . S
C706 H713 0.930 . S
N707 Tb672 2.572 1_565 S
N707 C708 1.340 1_455 S
N707 C710 1.361 . S
C708 H694 0.930 . S
C708 N707 1.340 1_655 S
C708 C712 1.407 . S
C709 C710 1.413 . S
C709 C711 1.416 1_455 S
C709 C738 1.427 . S
C710 C702 1.424 . S
C710 N707 1.361 . S
C710 C709 1.413 . S
C711 H700 0.931 . S
C711 C709 1.416 1_655 S
C711 C712 1.332 . S
C712 H691 0.929 . S
C712 C708 1.407 . S
C712 C711 1.332 . S
H713 C706 0.930 . S
H714 C737 0.930 . S
H715 C738 0.929 . S
O716 Tb672 2.465 1_565 S
O716 C736 1.264 . S
O717 Tb672 2.387 . S
O717 C728 1.264 . S
O718 Tb683 2.349 . S
O718 C728 1.243 . S
O719 Tb672 2.428 1_565 S
O719 C736 1.256 . S
O720 Tb672 2.308 . S
O720 C735 1.266 1_455 S
O721 Tb683 2.393 1_655 S
O721 C735 1.248 . S
O722 Tb683 2.465 . S
O722 C747 1.264 . S
O723 Tb683 2.387 . S
O723 C739 1.264 . S
O724 Tb672 2.349 . S
O724 C739 1.243 . S
O725 Tb683 2.428 1_655 S
O725 C747 1.256 1_655 S
O726 Tb683 2.308 . S
O726 C746 1.266 . S
O727 Tb672 2.393 . S
O727 C746 1.248 . S
C728 O717 1.264 . S
C728 O718 1.243 . S
C729 C732 1.399 . S
C729 C734 1.383 . S
C729 C736 1.496 . S
C730 C731 1.399 . S
C730 C734 1.389 . S
C731 C730 1.399 . S
C731 C733 1.380 . S
C731 H748 0.929 . S
C732 C729 1.399 . S
C732 C733 1.392 . S
C732 H749 0.929 . S
C733 C731 1.380 . S
C733 C732 1.392 . S
C733 H750 0.929 . S
C734 C729 1.383 . S
C734 C730 1.389 . S
C734 H751 0.931 . S
C735 O720 1.266 1_655 S
C735 O721 1.248 . S
C736 Tb672 2.802 1_565 S
C736 O716 1.264 . S
C736 O719 1.256 . S
C736 C729 1.496 . S
C737 C704 1.448 . S
C737 H714 0.930 . S
C737 C738 1.328 . S
C738 C709 1.427 . S
C738 H715 0.929 . S
C738 C737 1.328 . S
C739 O723 1.264 . S
C739 O724 1.243 . S
C740 C743 1.399 1_455 S
C740 C744 1.383 . S
C740 C747 1.496 . S
C741 C742 1.388 1_455 S
C741 C744 1.389 . S
C742 C741 1.388 1_655 S
C742 C745 1.387 . S
C742 H752 0.933 . S
C743 C740 1.399 1_655 S
C743 C745 1.392 . S
C743 H753 0.929 . S
C744 C740 1.383 . S
C744 C741 1.389 . S
C744 H754 0.931 . S
C745 C742 1.387 . S
C745 C743 1.392 . S
C745 H755 0.929 . S
C746 O726 1.266 . S
C746 O727 1.248 . S
C747 Tb683 2.802 . S
C747 O722 1.264 . S
C747 O725 1.256 1_455 S
C747 C740 1.496 . S
H748 C731 0.929 . S
H749 C732 0.929 . S
H750 C733 0.929 . S
H751 C734 0.931 . S
H752 C742 0.933 . S
H753 C743 0.929 . S
H754 C744 0.931 . S
H755 C745 0.929 . S
Tb756 N785 2.617 . S
Tb756 N791 2.572 . S
Tb756 O800 2.465 . S
Tb756 O801 2.387 . S
Tb756 O803 2.428 . S
Tb756 O804 2.308 . S
Tb756 O808 2.349 . S
Tb756 O811 2.393 . S
Tb756 C820 2.802 . S
C757 N758 1.379 . S
C757 C760 1.416 . S
C757 C764 1.424 . S
N758 C757 1.379 . S
N758 C761 1.334 . S
N758 Tb767 2.617 . S
C759 C761 1.390 . S
C759 C762 1.339 . S
C759 H779 0.930 . S
C760 C757 1.416 . S
C760 C762 1.416 . S
C760 C766 1.448 . S
C761 N758 1.334 . S
C761 C759 1.390 . S
C761 H772 0.930 . S
C762 C759 1.339 . S
C762 C760 1.416 . S
C762 H783 0.930 . S
C763 C764 1.413 . S
C763 C765 1.427 . S
C763 C769 1.416 . S
C764 C757 1.424 . S
C764 C763 1.413 . S
C764 N768 1.361 . S
C765 C763 1.427 . S
C765 C766 1.328 . S
C765 H780 0.929 . S
C766 C760 1.448 . S
C766 C765 1.328 . S
C766 H781 0.930 . S
Tb767 N758 2.617 . S
Tb767 N768 2.572 . S
Tb767 O802 2.349 . S
Tb767 O805 2.393 . S
Tb767 O806 2.465 . S
Tb767 O807 2.387 . S
Tb767 O809 2.428 . S
Tb767 O810 2.308 . S
Tb767 C831 2.802 . S
N768 C764 1.361 . S
N768 Tb767 2.572 . S
N768 C770 1.340 . S
C769 C763 1.416 . S
C769 C771 1.332 . S
C769 H777 0.931 . S
C770 N768 1.340 . S
C770 C771 1.407 . S
C770 H776 0.930 . S
C771 C769 1.332 . S
C771 C770 1.407 . S
C771 H773 0.929 . S
H772 C761 0.930 . S
H773 C771 0.929 . S
H774 C789 0.930 . S
H775 C796 0.929 . S
H776 C770 0.930 . S
H777 C769 0.931 . S
H778 C792 0.930 . S
H779 C759 0.930 . S
H780 C765 0.929 . S
H781 C766 0.930 . S
H782 C787 0.930 . S
H783 C762 0.930 . S
H784 C795 0.931 . S
N785 Tb756 2.617 . S
N785 C786 1.379 . S
N785 C789 1.334 . S
C786 N785 1.379 . S
C786 C788 1.416 . S
C786 C794 1.424 . S
C787 H782 0.930 . S
C787 C789 1.390 . S
C787 C790 1.339 . S
C788 C786 1.416 . S
C788 C790 1.416 . S
C788 C821 1.448 . S
C789 H774 0.930 . S
C789 N785 1.334 . S
C789 C787 1.390 . S
C790 C787 1.339 . S
C790 C788 1.416 . S
C790 H797 0.930 . S
N791 Tb756 2.572 . S
N791 C792 1.340 . S
N791 C794 1.361 . S
C792 H778 0.930 . S
C792 N791 1.340 . S
C792 C796 1.407 . S
C793 C794 1.413 . S
C793 C795 1.416 . S
C793 C822 1.427 . S
C794 C786 1.424 . S
C794 N791 1.361 . S
C794 C793 1.413 . S
C795 H784 0.931 . S
C795 C793 1.416 . S
C795 C796 1.332 . S
C796 H775 0.929 . S
C796 C792 1.407 . S
C796 C795 1.332 . S
H797 C790 0.930 . S
H798 C821 0.930 . S
H799 C822 0.929 . S
O800 Tb756 2.465 . S
O800 C820 1.264 . S
O801 Tb756 2.387 . S
O801 C812 1.264 . S
O802 Tb767 2.349 . S
O802 C812 1.243 . S
O803 Tb756 2.428 . S
O803 C820 1.256 . S
O804 Tb756 2.308 . S
O804 C819 1.266 . S
O805 Tb767 2.393 . S
O805 C819 1.248 . S
O806 Tb767 2.465 . S
O806 C831 1.264 . S
O807 Tb767 2.387 . S
O807 C823 1.264 . S
O808 Tb756 2.349 . S
O808 C823 1.243 . S
O809 Tb767 2.428 . S
O809 C831 1.256 . S
O810 Tb767 2.308 . S
O810 C830 1.266 . S
O811 Tb756 2.393 . S
O811 C830 1.248 . S
C812 O801 1.264 . S
C812 O802 1.243 . S
C813 C816 1.399 . S
C813 C818 1.383 . S
C813 C820 1.496 . S
C814 C815 1.399 . S
C814 C818 1.389 . S
C815 C814 1.399 . S
C815 C817 1.380 . S
C815 H832 0.929 . S
C816 C813 1.399 . S
C816 C817 1.392 . S
C816 H833 0.929 . S
C817 C815 1.380 . S
C817 C816 1.392 . S
C817 H834 0.929 . S
C818 C813 1.383 . S
C818 C814 1.389 . S
C818 H835 0.931 . S
C819 O804 1.266 . S
C819 O805 1.248 . S
C820 Tb756 2.802 . S
C820 O800 1.264 . S
C820 O803 1.256 . S
C820 C813 1.496 . S
C821 C788 1.448 . S
C821 H798 0.930 . S
C821 C822 1.328 . S
C822 C793 1.427 . S
C822 H799 0.929 . S
C822 C821 1.328 . S
C823 O807 1.264 . S
C823 O808 1.243 . S
C824 C827 1.399 . S
C824 C828 1.383 . S
C824 C831 1.496 . S
C825 C826 1.399 . S
C825 C828 1.389 . S
C826 C825 1.399 . S
C826 C829 1.380 . S
C826 H836 0.929 . S
C827 C824 1.399 . S
C827 C829 1.392 . S
C827 H837 0.929 . S
C828 C824 1.383 . S
C828 C825 1.389 . S
C828 H838 0.931 . S
C829 C826 1.380 . S
C829 C827 1.392 . S
C829 H839 0.929 . S
C830 O810 1.266 . S
C830 O811 1.248 . S
C831 Tb767 2.802 . S
C831 O806 1.264 . S
C831 O809 1.256 . S
C831 C824 1.496 . S
H832 C815 0.929 . S
H833 C816 0.929 . S
H834 C817 0.929 . S
H835 C818 0.931 . S
H836 C826 0.929 . S
H837 C827 0.929 . S
H838 C828 0.931 . S
H839 C829 0.929 . S
Tb840 N869 2.617 . S
Tb840 N875 2.572 . S
Tb840 O884 2.465 . S
Tb840 O885 2.387 1_556 S
Tb840 O887 2.428 . S
Tb840 O888 2.308 . S
Tb840 O892 2.349 1_556 S
Tb840 O895 2.393 1_556 S
Tb840 C904 2.802 . S
C841 N842 1.379 1_545 S
C841 C844 1.416 1_545 S
C841 C848 1.424 . S
N842 C841 1.379 1_565 S
N842 C845 1.334 . S
N842 Tb851 2.617 1_565 S
C843 C845 1.390 . S
C843 C846 1.339 . S
C843 H863 0.930 . S
C844 C841 1.416 1_565 S
C844 C846 1.416 . S
C844 C850 1.448 1_565 S
C845 N842 1.334 . S
C845 C843 1.390 . S
C845 H856 0.930 . S
C846 C843 1.339 . S
C846 C844 1.416 . S
C846 H867 0.930 . S
C847 C848 1.413 . S
C847 C849 1.427 . S
C847 C853 1.416 . S
C848 C841 1.424 . S
C848 C847 1.413 . S
C848 N852 1.361 . S
C849 C847 1.427 . S
C849 C850 1.328 . S
C849 H864 0.929 . S
C850 C844 1.448 1_545 S
C850 C849 1.328 . S
C850 H865 0.930 1_545 S
Tb851 N842 2.617 1_545 S
Tb851 N852 2.572 . S
Tb851 O886 2.349 . S
Tb851 O889 2.393 1_545 S
Tb851 O890 2.465 . S
Tb851 O891 2.387 . S
Tb851 O893 2.428 1_545 S
Tb851 O894 2.308 . S
Tb851 C915 2.802 . S
N852 C848 1.361 . S
N852 Tb851 2.572 . S
N852 C854 1.340 . S
C853 C847 1.416 . S
C853 C855 1.332 . S
C853 H861 0.931 . S
C854 N852 1.340 . S
C854 C855 1.407 . S
C854 H860 0.930 . S
C855 C853 1.332 . S
C855 C854 1.407 . S
C855 H857 0.929 . S
H856 C845 0.930 . S
H857 C855 0.929 . S
H858 C873 0.930 1_554 S
H859 C880 0.895 1_565 S
H860 C854 0.930 . S
H861 C853 0.931 . S
H862 C876 0.930 . S
H863 C843 0.930 . S
H864 C849 0.929 . S
H865 C850 0.930 1_565 S
H866 C871 0.930 . S
H867 C846 0.930 . S
H868 C879 0.931 . S
N869 Tb840 2.617 . S
N869 C870 1.379 . S
N869 C873 1.334 . S
C870 N869 1.379 . S
C870 C872 1.416 . S
C870 C878 1.424 . S
C871 H866 0.930 . S
C871 C873 1.390 . S
C871 C874 1.339 . S
C872 C870 1.416 . S
C872 C874 1.416 . S
C872 C905 1.448 . S
C873 H858 0.930 1_556 S
C873 N869 1.334 . S
C873 C871 1.390 . S
C874 C871 1.339 . S
C874 C872 1.416 . S
C874 H881 0.930 . S
N875 Tb840 2.572 . S
N875 C876 1.340 . S
N875 C878 1.361 . S
C876 H862 0.930 . S
C876 N875 1.340 . S
C876 C880 1.415 . S
C877 C878 1.413 . S
C877 C879 1.416 . S
C877 C906 1.427 . S
C878 C870 1.424 . S
C878 N875 1.361 . S
C878 C877 1.413 . S
C879 H868 0.931 . S
C879 C877 1.416 . S
C879 C880 1.360 . S
C880 H859 0.895 1_545 S
C880 C876 1.415 . S
C880 C879 1.360 . S
H881 C874 0.930 . S
H882 C905 0.930 . S
H883 C906 0.929 . S
O884 Tb840 2.465 . S
O884 C904 1.264 . S
O885 Tb840 2.387 1_554 S
O885 C896 1.264 . S
O886 Tb851 2.349 . S
O886 C896 1.243 . S
O887 Tb840 2.428 . S
O887 C904 1.256 . S
O888 Tb840 2.308 . S
O888 C903 1.266 1_546 S
O889 Tb851 2.393 1_565 S
O889 C903 1.248 . S
O890 Tb851 2.465 . S
O890 C915 1.264 . S
O891 Tb851 2.387 . S
O891 C907 1.264 . S
O892 Tb840 2.349 1_554 S
O892 C907 1.243 . S
O893 Tb851 2.428 1_565 S
O893 C915 1.256 1_565 S
O894 Tb851 2.308 . S
O894 C914 1.266 . S
O895 Tb840 2.393 1_554 S
O895 C914 1.248 . S
C896 O885 1.264 . S
C896 O886 1.243 . S
C897 C900 1.399 . S
C897 C902 1.383 . S
C897 C904 1.496 . S
C898 C899 1.399 . S
C898 C902 1.389 . S
C899 C898 1.399 . S
C899 C901 1.380 . S
C899 H916 0.929 . S
C900 C897 1.399 . S
C900 C901 1.392 . S
C900 H917 0.929 . S
C901 C899 1.380 . S
C901 C900 1.392 . S
C901 H918 0.929 . S
C902 C897 1.383 . S
C902 C898 1.389 . S
C902 H919 0.931 . S
C903 O888 1.266 1_564 S
C903 O889 1.248 . S
C904 Tb840 2.802 . S
C904 O884 1.264 . S
C904 O887 1.256 . S
C904 C897 1.496 . S
C905 C872 1.448 . S
C905 H882 0.930 . S
C905 C906 1.328 . S
C906 C877 1.427 . S
C906 H883 0.929 . S
C906 C905 1.328 . S
C907 O891 1.264 . S
C907 O892 1.243 . S
C908 C911 1.399 . S
C908 C912 1.383 1_565 S
C908 C915 1.496 1_565 S
C909 C910 1.399 1_545 S
C909 C912 1.389 . S
C910 C909 1.399 1_565 S
C910 C913 1.380 . S
C910 H920 0.929 . S
C911 C908 1.399 . S
C911 C913 1.392 . S
C911 H921 0.929 . S
C912 C908 1.383 1_545 S
C912 C909 1.389 . S
C912 H922 0.931 . S
C913 C910 1.380 . S
C913 C911 1.392 . S
C913 H923 0.929 . S
C914 O894 1.266 . S
C914 O895 1.248 . S
C915 Tb851 2.802 . S
C915 O890 1.264 . S
C915 O893 1.256 1_545 S
C915 C908 1.496 1_545 S
H916 C899 0.929 . S
H917 C900 0.929 . S
H918 C901 0.929 . S
H919 C902 0.931 . S
H920 C910 0.929 . S
H921 C911 0.929 . S
H922 C912 0.931 . S
H923 C913 0.929 . S
Tb924 N953 2.617 . S
Tb924 N959 2.572 . S
Tb924 O968 2.465 . S
Tb924 O969 2.387 . S
Tb924 O971 2.428 . S
Tb924 O972 2.308 . S
Tb924 O976 2.349 . S
Tb924 O979 2.393 . S
Tb924 C988 2.802 . S
C925 N926 1.379 . S
C925 C928 1.416 . S
C925 C932 1.424 . S
N926 C925 1.379 . S
N926 C929 1.334 . S
N926 Tb935 2.617 . S
C927 C929 1.390 . S
C927 C930 1.339 . S
C927 H947 0.930 . S
C928 C925 1.416 . S
C928 C930 1.416 . S
C928 C934 1.448 . S
C929 N926 1.334 . S
C929 C927 1.390 . S
C929 H940 0.930 . S
C930 C927 1.339 . S
C930 C928 1.416 . S
C930 H951 0.930 . S
C931 C932 1.413 . S
C931 C933 1.427 . S
C931 C937 1.416 . S
C932 C925 1.424 . S
C932 C931 1.413 . S
C932 N936 1.361 . S
C933 C931 1.427 . S
C933 C934 1.328 . S
C933 H948 0.929 . S
C934 C928 1.448 . S
C934 C933 1.328 . S
C934 H949 0.930 . S
Tb935 N926 2.617 . S
Tb935 N936 2.572 . S
Tb935 O970 2.349 . S
Tb935 O973 2.393 . S
Tb935 O974 2.465 . S
Tb935 O975 2.387 . S
Tb935 O977 2.428 . S
Tb935 O978 2.308 . S
Tb935 C999 2.802 . S
N936 C932 1.361 . S
N936 Tb935 2.572 . S
N936 C938 1.340 . S
C937 C931 1.416 . S
C937 C939 1.332 . S
C937 H945 0.931 . S
C938 N936 1.340 . S
C938 C939 1.407 . S
C938 H944 0.930 . S
C939 C937 1.332 . S
C939 C938 1.407 . S
C939 H941 0.929 . S
H940 C929 0.930 . S
H941 C939 0.929 . S
H942 C957 0.930 . S
H943 C964 0.929 . S
H944 C938 0.930 . S
H945 C937 0.931 . S
H946 C960 0.930 . S
H947 C927 0.930 . S
H948 C933 0.929 . S
H949 C934 0.930 . S
H950 C955 0.930 . S
H951 C930 0.930 . S
H952 C963 0.931 . S
N953 Tb924 2.617 . S
N953 C954 1.379 . S
N953 C957 1.334 . S
C954 N953 1.379 . S
C954 C956 1.416 . S
C954 C962 1.424 . S
C955 H950 0.930 . S
C955 C957 1.390 . S
C955 C958 1.339 . S
C956 C954 1.416 . S
C956 C958 1.416 . S
C956 C989 1.448 . S
C957 H942 0.930 . S
C957 N953 1.334 . S
C957 C955 1.390 . S
C958 C955 1.339 . S
C958 C956 1.416 . S
C958 H965 0.930 . S
N959 Tb924 2.572 . S
N959 C960 1.340 . S
N959 C962 1.361 . S
C960 H946 0.930 . S
C960 N959 1.340 . S
C960 C964 1.407 . S
C961 C962 1.413 . S
C961 C963 1.416 . S
C961 C990 1.427 . S
C962 C954 1.424 . S
C962 N959 1.361 . S
C962 C961 1.413 . S
C963 H952 0.931 . S
C963 C961 1.416 . S
C963 C964 1.332 . S
C964 H943 0.929 . S
C964 C960 1.407 . S
C964 C963 1.332 . S
H965 C958 0.930 . S
H966 C989 0.930 . S
H967 C990 0.929 . S
O968 Tb924 2.465 . S
O968 C988 1.264 . S
O969 Tb924 2.387 . S
O969 C980 1.264 . S
O970 Tb935 2.349 . S
O970 C980 1.243 . S
O971 Tb924 2.428 . S
O971 C988 1.256 . S
O972 Tb924 2.308 . S
O972 C987 1.266 . S
O973 Tb935 2.393 . S
O973 C987 1.248 . S
O974 Tb935 2.465 . S
O974 C999 1.264 . S
O975 Tb935 2.387 . S
O975 C991 1.264 . S
O976 Tb924 2.349 . S
O976 C991 1.243 . S
O977 Tb935 2.428 . S
O977 C999 1.256 . S
O978 Tb935 2.308 . S
O978 C998 1.266 . S
O979 Tb924 2.393 . S
O979 C998 1.248 . S
C980 O969 1.264 . S
C980 O970 1.243 . S
C981 C984 1.399 . S
C981 C986 1.383 . S
C981 C988 1.496 . S
C982 C983 1.399 . S
C982 C986 1.389 . S
C983 C982 1.399 . S
C983 C985 1.380 . S
C983 H1000 0.929 . S
C984 C981 1.399 . S
C984 C985 1.392 . S
C984 H1001 0.929 . S
C985 C983 1.380 . S
C985 C984 1.392 . S
C985 H1002 0.929 . S
C986 C981 1.383 . S
C986 C982 1.389 . S
C986 H1003 0.931 . S
C987 O972 1.266 . S
C987 O973 1.248 . S
C988 Tb924 2.802 . S
C988 O968 1.264 . S
C988 O971 1.256 . S
C988 C981 1.496 . S
C989 C956 1.448 . S
C989 H966 0.930 . S
C989 C990 1.328 . S
C990 C961 1.427 . S
C990 H967 0.929 . S
C990 C989 1.328 . S
C991 O975 1.264 . S
C991 O976 1.243 . S
C992 C995 1.399 . S
C992 C996 1.383 . S
C992 C999 1.496 . S
C993 C994 1.399 . S
C993 C996 1.389 . S
C994 C993 1.399 . S
C994 C997 1.380 . S
C994 H1004 0.929 . S
C995 C992 1.399 . S
C995 C997 1.392 . S
C995 H1005 0.929 . S
C996 C992 1.383 . S
C996 C993 1.389 . S
C996 H1006 0.931 . S
C997 C994 1.380 . S
C997 C995 1.392 . S
C997 H1007 0.929 . S
C998 O978 1.266 . S
C998 O979 1.248 . S
C999 Tb935 2.802 . S
C999 O974 1.264 . S
C999 O977 1.256 . S
C999 C992 1.496 . S
H1000 C983 0.929 . S
H1001 C984 0.929 . S
H1002 C985 0.929 . S
H1003 C986 0.931 . S
H1004 C994 0.929 . S
H1005 C995 0.929 . S
H1006 C996 0.931 . S
H1007 C997 0.929 . S
Tb1008 N1037 2.617 1_554 S
Tb1008 N1043 2.572 1_554 S
Tb1008 O1052 2.465 . S
Tb1008 O1053 2.387 1_554 S
Tb1008 O1055 2.428 . S
Tb1008 O1056 2.308 . S
Tb1008 O1060 2.349 . S
Tb1008 O1063 2.393 . S
Tb1008 C1072 2.802 . S
C1009 N1010 1.379 . S
C1009 C1012 1.416 . S
C1009 C1016 1.424 . S
N1010 C1009 1.379 . S
N1010 C1013 1.334 . S
N1010 Tb1019 2.617 . S
C1011 C1013 1.390 . S
C1011 C1014 1.339 . S
C1011 H1031 0.930 . S
C1012 C1009 1.416 . S
C1012 C1014 1.416 . S
C1012 C1018 1.448 . S
C1013 N1010 1.334 . S
C1013 C1011 1.390 . S
C1013 H1024 0.930 . S
C1014 C1011 1.339 . S
C1014 C1012 1.416 . S
C1014 H1035 0.930 . S
C1015 C1016 1.413 . S
C1015 C1017 1.427 . S
C1015 C1021 1.416 . S
C1016 C1009 1.424 . S
C1016 C1015 1.413 . S
C1016 N1020 1.361 . S
C1017 C1015 1.427 . S
C1017 C1018 1.328 . S
C1017 H1032 0.929 . S
C1018 C1012 1.448 . S
C1018 C1017 1.328 . S
C1018 H1033 0.930 . S
Tb1019 N1010 2.617 . S
Tb1019 N1020 2.572 . S
Tb1019 O1054 2.349 1_554 S
Tb1019 O1057 2.393 . S
Tb1019 O1058 2.465 . S
Tb1019 O1059 2.387 . S
Tb1019 O1061 2.428 . S
Tb1019 O1062 2.308 . S
Tb1019 C1083 2.802 . S
N1020 C1016 1.361 . S
N1020 Tb1019 2.572 . S
N1020 C1022 1.340 . S
C1021 C1015 1.416 . S
C1021 C1023 1.332 . S
C1021 H1029 0.931 . S
C1022 N1020 1.340 . S
C1022 C1023 1.407 . S
C1022 H1028 0.930 . S
C1023 C1021 1.332 . S
C1023 C1022 1.407 . S
C1023 H1025 0.929 . S
H1024 C1013 0.930 . S
H1025 C1023 0.929 . S
H1026 C1041 0.930 1_554 S
H1027 C1048 0.929 . S
H1028 C1022 0.930 . S
H1029 C1021 0.931 . S
H1030 C1044 0.930 . S
H1031 C1011 0.930 . S
H1032 C1017 0.929 . S
H1033 C1018 0.930 . S
H1034 C1039 0.930 . S
H1035 C1014 0.930 . S
H1036 C1047 0.931 . S
N1037 Tb1008 2.617 1_556 S
N1037 C1038 1.379 . S
N1037 C1041 1.334 . S
C1038 N1037 1.379 . S
C1038 C1040 1.416 . S
C1038 C1046 1.424 . S
C1039 H1034 0.930 . S
C1039 C1041 1.390 . S
C1039 C1042 1.339 . S
C1040 C1038 1.416 . S
C1040 C1042 1.416 . S
C1040 C1073 1.448 . S
C1041 H1026 0.930 1_556 S
C1041 N1037 1.334 . S
C1041 C1039 1.390 . S
C1042 C1039 1.339 . S
C1042 C1040 1.416 . S
C1042 H1049 0.930 . S
N1043 Tb1008 2.572 1_556 S
N1043 C1044 1.340 . S
N1043 C1046 1.361 . S
C1044 H1030 0.930 . S
C1044 N1043 1.340 . S
C1044 C1048 1.407 . S
C1045 C1046 1.413 . S
C1045 C1047 1.416 . S
C1045 C1074 1.427 . S
C1046 C1038 1.424 . S
C1046 N1043 1.361 . S
C1046 C1045 1.413 . S
C1047 H1036 0.931 . S
C1047 C1045 1.416 . S
C1047 C1048 1.332 . S
C1048 H1027 0.929 . S
C1048 C1044 1.407 . S
C1048 C1047 1.332 . S
H1049 C1042 0.930 . S
H1050 C1073 0.930 . S
H1051 C1074 0.929 . S
O1052 Tb1008 2.465 . S
O1052 C1072 1.264 . S
O1053 Tb1008 2.387 1_556 S
O1053 C1064 1.264 . S
O1054 Tb1019 2.349 1_556 S
O1054 C1064 1.243 . S
O1055 Tb1008 2.428 . S
O1055 C1072 1.256 . S
O1056 Tb1008 2.308 . S
O1056 C1071 1.266 . S
O1057 Tb1019 2.393 . S
O1057 C1071 1.248 . S
O1058 Tb1019 2.465 . S
O1058 C1083 1.264 . S
O1059 Tb1019 2.387 . S
O1059 C1075 1.264 . S
O1060 Tb1008 2.349 . S
O1060 C1075 1.243 . S
O1061 Tb1019 2.428 . S
O1061 C1083 1.256 . S
O1062 Tb1019 2.308 . S
O1062 C1082 1.266 . S
O1063 Tb1008 2.393 . S
O1063 C1082 1.248 . S
C1064 O1053 1.264 . S
C1064 O1054 1.243 . S
C1065 C1068 1.399 . S
C1065 C1070 1.383 . S
C1065 C1072 1.496 . S
C1066 C1067 1.399 . S
C1066 C1070 1.389 . S
C1067 C1066 1.399 . S
C1067 C1069 1.380 . S
C1067 H1084 0.929 . S
C1068 C1065 1.399 . S
C1068 C1069 1.392 . S
C1068 H1085 0.929 . S
C1069 C1067 1.380 . S
C1069 C1068 1.392 . S
C1069 H1086 0.929 . S
C1070 C1065 1.383 . S
C1070 C1066 1.389 . S
C1070 H1087 0.931 . S
C1071 O1056 1.266 . S
C1071 O1057 1.248 . S
C1072 Tb1008 2.802 . S
C1072 O1052 1.264 . S
C1072 O1055 1.256 . S
C1072 C1065 1.496 . S
C1073 C1040 1.448 . S
C1073 H1050 0.930 . S
C1073 C1074 1.328 . S
C1074 C1045 1.427 . S
C1074 H1051 0.929 . S
C1074 C1073 1.328 . S
C1075 O1059 1.264 . S
C1075 O1060 1.243 . S
C1076 C1079 1.399 . S
C1076 C1080 1.383 . S
C1076 C1083 1.496 1_556 S
C1077 C1078 1.399 . S
C1077 C1080 1.389 . S
C1078 C1077 1.399 . S
C1078 C1081 1.380 . S
C1078 H1088 0.929 . S
C1079 C1076 1.399 . S
C1079 C1081 1.392 . S
C1079 H1089 0.929 . S
C1080 C1076 1.383 . S
C1080 C1077 1.389 . S
C1080 H1090 0.931 . S
C1081 C1078 1.380 . S
C1081 C1079 1.392 . S
C1081 H1091 0.929 . S
C1082 O1062 1.266 . S
C1082 O1063 1.248 . S
C1083 Tb1019 2.802 . S
C1083 O1058 1.264 . S
C1083 O1061 1.256 . S
C1083 C1076 1.496 1_554 S
H1084 C1067 0.929 . S
H1085 C1068 0.929 . S
H1086 C1069 0.929 . S
H1087 C1070 0.931 . S
H1088 C1078 0.929 . S
H1089 C1079 0.929 . S
H1090 C1080 0.931 . S
H1091 C1081 0.929 . S
Tb1092 N1121 2.617 . S
Tb1092 N1127 2.572 . S
Tb1092 O1136 2.465 . S
Tb1092 O1137 2.387 . S
Tb1092 O1139 2.428 . S
Tb1092 O1140 2.308 . S
Tb1092 O1144 2.349 . S
Tb1092 O1147 2.393 . S
Tb1092 C1156 2.802 . S
C1093 N1094 1.379 . S
C1093 C1096 1.416 . S
C1093 C1100 1.424 . S
N1094 C1093 1.379 . S
N1094 C1097 1.334 . S
N1094 Tb1103 2.617 . S
C1095 C1097 1.390 . S
C1095 C1098 1.339 . S
C1095 H1115 0.930 . S
C1096 C1093 1.416 . S
C1096 C1098 1.416 . S
C1096 C1102 1.448 . S
C1097 N1094 1.334 . S
C1097 C1095 1.390 . S
C1097 H1108 0.930 . S
C1098 C1095 1.339 . S
C1098 C1096 1.416 . S
C1098 H1119 0.930 . S
C1099 C1100 1.413 . S
C1099 C1101 1.427 . S
C1099 C1105 1.416 . S
C1100 C1093 1.424 . S
C1100 C1099 1.413 . S
C1100 N1104 1.361 . S
C1101 C1099 1.427 . S
C1101 C1102 1.328 . S
C1101 H1116 0.929 . S
C1102 C1096 1.448 . S
C1102 C1101 1.328 . S
C1102 H1117 0.930 . S
Tb1103 N1094 2.617 . S
Tb1103 N1104 2.572 . S
Tb1103 O1138 2.349 . S
Tb1103 O1141 2.393 . S
Tb1103 O1142 2.465 . S
Tb1103 O1143 2.387 . S
Tb1103 O1145 2.428 . S
Tb1103 O1146 2.308 . S
Tb1103 C1167 2.802 . S
N1104 C1100 1.361 . S
N1104 Tb1103 2.572 . S
N1104 C1106 1.340 . S
C1105 C1099 1.416 . S
C1105 C1107 1.332 . S
C1105 H1113 0.931 . S
C1106 N1104 1.340 . S
C1106 C1107 1.407 . S
C1106 H1112 0.930 . S
C1107 C1105 1.332 . S
C1107 C1106 1.407 . S
C1107 H1109 0.929 . S
H1108 C1097 0.930 . S
H1109 C1107 0.929 . S
H1110 C1125 0.930 . S
H1111 C1132 0.929 . S
H1112 C1106 0.930 . S
H1113 C1105 0.931 . S
H1114 C1128 0.930 . S
H1115 C1095 0.930 . S
H1116 C1101 0.929 . S
H1117 C1102 0.930 . S
H1118 C1123 0.930 . S
H1119 C1098 0.930 . S
H1120 C1131 0.931 . S
N1121 Tb1092 2.617 . S
N1121 C1122 1.379 . S
N1121 C1125 1.334 . S
C1122 N1121 1.379 . S
C1122 C1124 1.416 . S
C1122 C1130 1.424 . S
C1123 H1118 0.930 . S
C1123 C1125 1.390 . S
C1123 C1126 1.339 . S
C1124 C1122 1.416 . S
C1124 C1126 1.416 . S
C1124 C1157 1.448 . S
C1125 H1110 0.930 . S
C1125 N1121 1.334 . S
C1125 C1123 1.390 . S
C1126 C1123 1.339 . S
C1126 C1124 1.416 . S
C1126 H1133 0.930 . S
N1127 Tb1092 2.572 . S
N1127 C1128 1.340 . S
N1127 C1130 1.361 . S
C1128 H1114 0.930 . S
C1128 N1127 1.340 . S
C1128 C1132 1.407 . S
C1129 C1130 1.413 . S
C1129 C1131 1.416 . S
C1129 C1158 1.427 . S
C1130 C1122 1.424 . S
C1130 N1127 1.361 . S
C1130 C1129 1.413 . S
C1131 H1120 0.931 . S
C1131 C1129 1.416 . S
C1131 C1132 1.332 . S
C1132 H1111 0.929 . S
C1132 C1128 1.407 . S
C1132 C1131 1.332 . S
H1133 C1126 0.930 . S
H1134 C1157 0.930 . S
H1135 C1158 0.929 . S
O1136 Tb1092 2.465 . S
O1136 C1156 1.264 . S
O1137 Tb1092 2.387 . S
O1137 C1148 1.264 . S
O1138 Tb1103 2.349 . S
O1138 C1148 1.243 . S
O1139 Tb1092 2.428 . S
O1139 C1156 1.256 . S
O1140 Tb1092 2.308 . S
O1140 C1155 1.266 . S
O1141 Tb1103 2.393 . S
O1141 C1155 1.248 . S
O1142 Tb1103 2.465 . S
O1142 C1167 1.264 . S
O1143 Tb1103 2.387 . S
O1143 C1159 1.264 . S
O1144 Tb1092 2.349 . S
O1144 C1159 1.243 . S
O1145 Tb1103 2.428 . S
O1145 C1167 1.256 . S
O1146 Tb1103 2.308 . S
O1146 C1166 1.266 . S
O1147 Tb1092 2.393 . S
O1147 C1166 1.248 . S
C1148 O1137 1.264 . S
C1148 O1138 1.243 . S
C1149 C1152 1.399 . S
C1149 C1154 1.383 . S
C1149 C1156 1.496 . S
C1150 C1151 1.399 . S
C1150 C1154 1.389 . S
C1151 C1150 1.399 . S
C1151 C1153 1.380 . S
C1151 H1168 0.929 . S
C1152 C1149 1.399 . S
C1152 C1153 1.392 . S
C1152 H1169 0.929 . S
C1153 C1151 1.380 . S
C1153 C1152 1.392 . S
C1153 H1170 0.929 . S
C1154 C1149 1.383 . S
C1154 C1150 1.389 . S
C1154 H1171 0.931 . S
C1155 O1140 1.266 . S
C1155 O1141 1.248 . S
C1156 Tb1092 2.802 . S
C1156 O1136 1.264 . S
C1156 O1139 1.256 . S
C1156 C1149 1.496 . S
C1157 C1124 1.448 . S
C1157 H1134 0.930 . S
C1157 C1158 1.328 . S
C1158 C1129 1.427 . S
C1158 H1135 0.929 . S
C1158 C1157 1.328 . S
C1159 O1143 1.264 . S
C1159 O1144 1.243 . S
C1160 C1163 1.399 . S
C1160 C1164 1.383 . S
C1160 C1167 1.496 . S
C1161 C1162 1.399 . S
C1161 C1164 1.389 . S
C1162 C1161 1.399 . S
C1162 C1165 1.380 . S
C1162 H1172 0.929 . S
C1163 C1160 1.399 . S
C1163 C1165 1.392 . S
C1163 H1173 0.929 . S
C1164 C1160 1.383 . S
C1164 C1161 1.389 . S
C1164 H1174 0.931 . S
C1165 C1162 1.380 . S
C1165 C1163 1.392 . S
C1165 H1175 0.929 . S
C1166 O1146 1.266 . S
C1166 O1147 1.248 . S
C1167 Tb1103 2.802 . S
C1167 O1142 1.264 . S
C1167 O1145 1.256 . S
C1167 C1160 1.496 . S
H1168 C1151 0.929 . S
H1169 C1152 0.929 . S
H1170 C1153 0.929 . S
H1171 C1154 0.931 . S
H1172 C1162 0.929 . S
H1173 C1163 0.929 . S
H1174 C1164 0.931 . S
H1175 C1165 0.929 . S
Tb1176 N1205 2.596 1_455 S
Tb1176 N1211 2.572 1_455 S
Tb1176 O1220 2.465 . S
Tb1176 O1221 2.387 1_455 S
Tb1176 O1223 2.428 . S
Tb1176 O1224 2.308 . S
Tb1176 O1228 2.349 . S
Tb1176 O1231 2.393 . S
Tb1176 C1240 2.802 . S
C1177 N1178 1.379 . S
C1177 C1180 1.416 . S
C1177 C1184 1.424 . S
N1178 C1177 1.379 . S
N1178 C1181 1.334 . S
N1178 Tb1187 2.617 . S
C1179 C1181 1.390 . S
C1179 C1182 1.339 . S
C1179 H1199 0.930 . S
C1180 C1177 1.416 . S
C1180 C1182 1.416 . S
C1180 C1186 1.448 . S
C1181 N1178 1.334 . S
C1181 C1179 1.390 . S
C1181 H1192 0.930 . S
C1182 C1179 1.339 . S
C1182 C1180 1.416 . S
C1182 H1203 0.930 . S
C1183 C1184 1.413 . S
C1183 C1185 1.427 . S
C1183 C1189 1.416 . S
C1184 C1177 1.424 . S
C1184 C1183 1.413 . S
C1184 N1188 1.361 . S
C1185 C1183 1.427 . S
C1185 C1186 1.328 . S
C1185 H1200 0.929 . S
C1186 C1180 1.448 . S
C1186 C1185 1.328 . S
C1186 H1201 0.930 . S
Tb1187 N1178 2.617 . S
Tb1187 N1188 2.572 . S
Tb1187 O1222 2.349 1_455 S
Tb1187 O1225 2.393 . S
Tb1187 O1226 2.465 . S
Tb1187 O1227 2.387 . S
Tb1187 O1229 2.428 . S
Tb1187 O1230 2.308 . S
Tb1187 C1251 2.802 . S
N1188 C1184 1.361 . S
N1188 Tb1187 2.572 . S
N1188 C1190 1.340 . S
C1189 C1183 1.416 . S
C1189 C1191 1.332 . S
C1189 H1197 0.931 . S
C1190 N1188 1.340 . S
C1190 C1191 1.407 . S
C1190 H1196 0.930 . S
C1191 C1189 1.332 . S
C1191 C1190 1.407 . S
C1191 H1193 0.929 . S
H1192 C1181 0.930 . S
H1193 C1191 0.929 . S
H1194 C1209 0.930 . S
H1195 C1216 0.929 . S
H1196 C1190 0.930 . S
H1197 C1189 0.931 . S
H1198 C1212 0.930 1_455 S
H1199 C1179 0.930 . S
H1200 C1185 0.929 . S
H1201 C1186 0.930 . S
H1202 C1207 0.930 . S
H1203 C1182 0.930 . S
H1204 C1215 0.931 . S
N1205 Tb1176 2.596 1_655 S
N1205 C1206 1.396 . S
N1205 C1209 1.342 1_655 S
C1206 N1205 1.396 . S
C1206 C1208 1.416 . S
C1206 C1214 1.424 . S
C1207 H1202 0.930 . S
C1207 C1209 1.390 1_655 S
C1207 C1210 1.339 . S
C1208 C1206 1.416 . S
C1208 C1210 1.416 . S
C1208 C1241 1.448 . S
C1209 H1194 0.930 . S
C1209 N1205 1.342 1_455 S
C1209 C1207 1.390 1_455 S
C1210 C1207 1.339 . S
C1210 C1208 1.416 . S
C1210 H1217 0.930 . S
N1211 Tb1176 2.572 1_655 S
N1211 C1212 1.340 . S
N1211 C1214 1.361 . S
C1212 H1198 0.930 1_655 S
C1212 N1211 1.340 . S
C1212 C1216 1.407 . S
C1213 C1214 1.413 . S
C1213 C1215 1.416 . S
C1213 C1242 1.427 . S
C1214 C1206 1.424 . S
C1214 N1211 1.361 . S
C1214 C1213 1.413 . S
C1215 H1204 0.931 . S
C1215 C1213 1.416 . S
C1215 C1216 1.332 . S
C1216 H1195 0.929 . S
C1216 C1212 1.407 . S
C1216 C1215 1.332 . S
H1217 C1210 0.930 . S
H1218 C1241 0.930 . S
H1219 C1242 0.929 . S
O1220 Tb1176 2.465 . S
O1220 C1240 1.264 . S
O1221 Tb1176 2.387 1_655 S
O1221 C1232 1.264 . S
O1222 Tb1187 2.349 1_655 S
O1222 C1232 1.243 . S
O1223 Tb1176 2.428 . S
O1223 C1240 1.256 . S
O1224 Tb1176 2.308 . S
O1224 C1239 1.266 . S
O1225 Tb1187 2.393 . S
O1225 C1239 1.248 . S
O1226 Tb1187 2.465 . S
O1226 C1251 1.264 . S
O1227 Tb1187 2.387 . S
O1227 C1243 1.264 . S
O1228 Tb1176 2.349 . S
O1228 C1243 1.243 . S
O1229 Tb1187 2.428 . S
O1229 C1251 1.256 . S
O1230 Tb1187 2.308 . S
O1230 C1250 1.266 . S
O1231 Tb1176 2.393 . S
O1231 C1250 1.248 . S
C1232 O1221 1.264 . S
C1232 O1222 1.243 . S
C1233 C1236 1.399 . S
C1233 C1238 1.383 . S
C1233 C1240 1.496 . S
C1234 C1235 1.399 . S
C1234 C1238 1.389 . S
C1235 C1234 1.399 . S
C1235 C1237 1.380 . S
C1235 H1252 0.929 . S
C1236 C1233 1.399 . S
C1236 C1237 1.392 . S
C1236 H1253 0.929 . S
C1237 C1235 1.380 . S
C1237 C1236 1.392 . S
C1237 H1254 0.929 . S
C1238 C1233 1.383 . S
C1238 C1234 1.389 . S
C1238 H1255 0.931 . S
C1239 O1224 1.266 . S
C1239 O1225 1.248 . S
C1240 Tb1176 2.802 . S
C1240 O1220 1.264 . S
C1240 O1223 1.256 . S
C1240 C1233 1.496 . S
C1241 C1208 1.448 . S
C1241 H1218 0.930 . S
C1241 C1242 1.328 . S
C1242 C1213 1.427 . S
C1242 H1219 0.929 . S
C1242 C1241 1.328 . S
C1243 O1227 1.264 . S
C1243 O1228 1.243 . S
C1244 C1247 1.399 . S
C1244 C1248 1.383 . S
C1244 C1251 1.496 1_655 S
C1245 C1246 1.399 . S
C1245 C1248 1.389 . S
C1246 C1245 1.399 . S
C1246 C1249 1.380 . S
C1246 H1256 0.929 . S
C1247 C1244 1.399 . S
C1247 C1249 1.392 . S
C1247 H1257 0.929 . S
C1248 C1244 1.383 . S
C1248 C1245 1.389 . S
C1248 H1258 0.931 . S
C1249 C1246 1.380 . S
C1249 C1247 1.392 . S
C1249 H1259 0.929 . S
C1250 O1230 1.266 . S
C1250 O1231 1.248 . S
C1251 Tb1187 2.802 . S
C1251 O1226 1.264 . S
C1251 O1229 1.256 . S
C1251 C1244 1.496 1_455 S
H1252 C1235 0.929 . S
H1253 C1236 0.929 . S
H1254 C1237 0.929 . S
H1255 C1238 0.931 . S
H1256 C1246 0.929 . S
H1257 C1247 0.929 . S
H1258 C1248 0.931 . S
H1259 C1249 0.929 . S
Tb1260 N1289 2.617 . S
Tb1260 N1295 2.572 . S
Tb1260 O1304 2.465 . S
Tb1260 O1305 2.387 . S
Tb1260 O1307 2.428 . S
Tb1260 O1308 2.308 . S
Tb1260 O1312 2.349 . S
Tb1260 O1315 2.393 . S
Tb1260 C1324 2.802 . S
C1261 N1262 1.379 . S
C1261 C1264 1.416 . S
C1261 C1268 1.424 . S
N1262 C1261 1.379 . S
N1262 C1265 1.334 . S
N1262 Tb1271 2.617 . S
C1263 C1265 1.390 . S
C1263 C1266 1.339 . S
C1263 H1283 0.930 . S
C1264 C1261 1.416 . S
C1264 C1266 1.416 . S
C1264 C1270 1.448 . S
C1265 N1262 1.334 . S
C1265 C1263 1.390 . S
C1265 H1276 0.930 . S
C1266 C1263 1.339 . S
C1266 C1264 1.416 . S
C1266 H1287 0.930 . S
C1267 C1268 1.413 . S
C1267 C1269 1.427 . S
C1267 C1273 1.416 . S
C1268 C1261 1.424 . S
C1268 C1267 1.413 . S
C1268 N1272 1.361 . S
C1269 C1267 1.427 . S
C1269 C1270 1.328 . S
C1269 H1284 0.929 . S
C1270 C1264 1.448 . S
C1270 C1269 1.328 . S
C1270 H1285 0.930 . S
Tb1271 N1262 2.617 . S
Tb1271 N1272 2.572 . S
Tb1271 O1306 2.349 . S
Tb1271 O1309 2.393 . S
Tb1271 O1310 2.465 . S
Tb1271 O1311 2.387 . S
Tb1271 O1313 2.428 . S
Tb1271 O1314 2.308 . S
Tb1271 C1335 2.802 . S
N1272 C1268 1.361 . S
N1272 Tb1271 2.572 . S
N1272 C1274 1.340 . S
C1273 C1267 1.416 . S
C1273 C1275 1.332 . S
C1273 H1281 0.931 . S
C1274 N1272 1.340 . S
C1274 C1275 1.407 . S
C1274 H1280 0.930 . S
C1275 C1273 1.332 . S
C1275 C1274 1.407 . S
C1275 H1277 0.929 . S
H1276 C1265 0.930 . S
H1277 C1275 0.929 . S
H1278 C1293 0.930 . S
H1279 C1300 0.929 . S
H1280 C1274 0.930 . S
H1281 C1273 0.931 . S
H1282 C1296 0.930 . S
H1283 C1263 0.930 . S
H1284 C1269 0.929 . S
H1285 C1270 0.930 . S
H1286 C1291 0.930 . S
H1287 C1266 0.930 . S
H1288 C1299 0.931 . S
N1289 Tb1260 2.617 . S
N1289 C1290 1.379 . S
N1289 C1293 1.334 . S
C1290 N1289 1.379 . S
C1290 C1292 1.416 . S
C1290 C1298 1.424 . S
C1291 H1286 0.930 . S
C1291 C1293 1.390 . S
C1291 C1294 1.339 . S
C1292 C1290 1.416 . S
C1292 C1294 1.416 . S
C1292 C1325 1.448 . S
C1293 H1278 0.930 . S
C1293 N1289 1.334 . S
C1293 C1291 1.390 . S
C1294 C1291 1.339 . S
C1294 C1292 1.416 . S
C1294 H1301 0.930 . S
N1295 Tb1260 2.572 . S
N1295 C1296 1.340 . S
N1295 C1298 1.361 . S
C1296 H1282 0.930 . S
C1296 N1295 1.340 . S
C1296 C1300 1.407 . S
C1297 C1298 1.413 . S
C1297 C1299 1.416 . S
C1297 C1326 1.427 . S
C1298 C1290 1.424 . S
C1298 N1295 1.361 . S
C1298 C1297 1.413 . S
C1299 H1288 0.931 . S
C1299 C1297 1.416 . S
C1299 C1300 1.332 . S
C1300 H1279 0.929 . S
C1300 C1296 1.407 . S
C1300 C1299 1.332 . S
H1301 C1294 0.930 . S
H1302 C1325 0.930 . S
H1303 C1326 0.929 . S
O1304 Tb1260 2.465 . S
O1304 C1324 1.264 . S
O1305 Tb1260 2.387 . S
O1305 C1316 1.264 . S
O1306 Tb1271 2.349 . S
O1306 C1316 1.243 . S
O1307 Tb1260 2.428 . S
O1307 C1324 1.256 . S
O1308 Tb1260 2.308 . S
O1308 C1323 1.266 . S
O1309 Tb1271 2.393 . S
O1309 C1323 1.248 . S
O1310 Tb1271 2.465 . S
O1310 C1335 1.264 . S
O1311 Tb1271 2.387 . S
O1311 C1327 1.264 . S
O1312 Tb1260 2.349 . S
O1312 C1327 1.243 . S
O1313 Tb1271 2.428 . S
O1313 C1335 1.256 . S
O1314 Tb1271 2.308 . S
O1314 C1334 1.266 . S
O1315 Tb1260 2.393 . S
O1315 C1334 1.248 . S
C1316 O1305 1.264 . S
C1316 O1306 1.243 . S
C1317 C1320 1.399 . S
C1317 C1322 1.383 . S
C1317 C1324 1.496 . S
C1318 C1319 1.399 . S
C1318 C1322 1.389 . S
C1319 C1318 1.399 . S
C1319 C1321 1.380 . S
C1319 H1336 0.929 . S
C1320 C1317 1.399 . S
C1320 C1321 1.392 . S
C1320 H1337 0.929 . S
C1321 C1319 1.380 . S
C1321 C1320 1.392 . S
C1321 H1338 0.929 . S
C1322 C1317 1.383 . S
C1322 C1318 1.389 . S
C1322 H1339 0.931 . S
C1323 O1308 1.266 . S
C1323 O1309 1.248 . S
C1324 Tb1260 2.802 . S
C1324 O1304 1.264 . S
C1324 O1307 1.256 . S
C1324 C1317 1.496 . S
C1325 C1292 1.448 . S
C1325 H1302 0.930 . S
C1325 C1326 1.328 . S
C1326 C1297 1.427 . S
C1326 H1303 0.929 . S
C1326 C1325 1.328 . S
C1327 O1311 1.264 . S
C1327 O1312 1.243 . S
C1328 C1331 1.399 . S
C1328 C1332 1.383 . S
C1328 C1335 1.496 . S
C1329 C1330 1.399 . S
C1329 C1332 1.389 . S
C1330 C1329 1.399 . S
C1330 C1333 1.380 . S
C1330 H1340 0.929 . S
C1331 C1328 1.399 . S
C1331 C1333 1.392 . S
C1331 H1341 0.929 . S
C1332 C1328 1.383 . S
C1332 C1329 1.389 . S
C1332 H1342 0.931 . S
C1333 C1330 1.380 . S
C1333 C1331 1.392 . S
C1333 H1343 0.929 . S
C1334 O1314 1.266 . S
C1334 O1315 1.248 . S
C1335 Tb1271 2.802 . S
C1335 O1310 1.264 . S
C1335 O1313 1.256 . S
C1335 C1328 1.496 . S
H1336 C1319 0.929 . S
H1337 C1320 0.929 . S
H1338 C1321 0.929 . S
H1339 C1322 0.931 . S
H1340 C1330 0.929 . S
H1341 C1331 0.929 . S
H1342 C1332 0.931 . S
H1343 C1333 0.929 . S
Tb1344 N1373 2.617 . S
Tb1344 N1379 2.572 . S
Tb1344 O1388 2.465 . S
Tb1344 O1389 2.387 . S
Tb1344 O1391 2.428 . S
Tb1344 O1392 2.308 . S
Tb1344 O1396 2.349 . S
Tb1344 O1399 2.393 . S
Tb1344 C1408 2.802 . S
C1345 N1346 1.379 . S
C1345 C1348 1.416 . S
C1345 C1352 1.424 . S
N1346 C1345 1.379 . S
N1346 C1349 1.334 . S
N1346 Tb1355 2.617 . S
C1347 C1349 1.390 . S
C1347 C1350 1.339 . S
C1347 H1367 0.930 . S
C1348 C1345 1.416 . S
C1348 C1350 1.416 . S
C1348 C1354 1.448 . S
C1349 N1346 1.334 . S
C1349 C1347 1.390 . S
C1349 H1360 0.930 . S
C1350 C1347 1.339 . S
C1350 C1348 1.416 . S
C1350 H1371 0.930 . S
C1351 C1352 1.413 . S
C1351 C1353 1.427 . S
C1351 C1357 1.416 . S
C1352 C1345 1.424 . S
C1352 C1351 1.413 . S
C1352 N1356 1.361 . S
C1353 C1351 1.427 . S
C1353 C1354 1.328 . S
C1353 H1368 0.929 . S
C1354 C1348 1.448 . S
C1354 C1353 1.328 . S
C1354 H1369 0.930 . S
Tb1355 N1346 2.617 . S
Tb1355 N1356 2.572 . S
Tb1355 O1390 2.349 . S
Tb1355 O1393 2.393 . S
Tb1355 O1394 2.465 . S
Tb1355 O1395 2.387 . S
Tb1355 O1397 2.428 . S
Tb1355 O1398 2.308 . S
Tb1355 C1419 2.802 . S
N1356 C1352 1.361 . S
N1356 Tb1355 2.572 . S
N1356 C1358 1.340 . S
C1357 C1351 1.416 . S
C1357 C1359 1.332 . S
C1357 H1365 0.931 . S
C1358 N1356 1.340 . S
C1358 C1359 1.407 . S
C1358 H1364 0.930 . S
C1359 C1357 1.332 . S
C1359 C1358 1.407 . S
C1359 H1361 0.929 . S
H1360 C1349 0.930 . S
H1361 C1359 0.929 . S
H1362 C1377 0.930 . S
H1363 C1384 0.929 . S
H1364 C1358 0.930 . S
H1365 C1357 0.931 . S
H1366 C1380 0.930 . S
H1367 C1347 0.930 . S
H1368 C1353 0.929 . S
H1369 C1354 0.930 . S
H1370 C1375 0.930 . S
H1371 C1350 0.930 . S
H1372 C1383 0.931 . S
N1373 Tb1344 2.617 . S
N1373 C1374 1.379 . S
N1373 C1377 1.334 . S
C1374 N1373 1.379 . S
C1374 C1376 1.416 . S
C1374 C1382 1.424 . S
C1375 H1370 0.930 . S
C1375 C1377 1.390 . S
C1375 C1378 1.339 . S
C1376 C1374 1.416 . S
C1376 C1378 1.416 . S
C1376 C1409 1.448 . S
C1377 H1362 0.930 . S
C1377 N1373 1.334 . S
C1377 C1375 1.390 . S
C1378 C1375 1.339 . S
C1378 C1376 1.416 . S
C1378 H1385 0.930 . S
N1379 Tb1344 2.572 . S
N1379 C1380 1.340 . S
N1379 C1382 1.361 . S
C1380 H1366 0.930 . S
C1380 N1379 1.340 . S
C1380 C1384 1.407 . S
C1381 C1382 1.413 . S
C1381 C1383 1.416 . S
C1381 C1410 1.427 . S
C1382 C1374 1.424 . S
C1382 N1379 1.361 . S
C1382 C1381 1.413 . S
C1383 H1372 0.931 . S
C1383 C1381 1.416 . S
C1383 C1384 1.332 . S
C1384 H1363 0.929 . S
C1384 C1380 1.407 . S
C1384 C1383 1.332 . S
H1385 C1378 0.930 . S
H1386 C1409 0.930 . S
H1387 C1410 0.929 . S
O1388 Tb1344 2.465 . S
O1388 C1408 1.264 . S
O1389 Tb1344 2.387 . S
O1389 C1400 1.264 . S
O1390 Tb1355 2.349 . S
O1390 C1400 1.243 . S
O1391 Tb1344 2.428 . S
O1391 C1408 1.256 . S
O1392 Tb1344 2.308 . S
O1392 C1407 1.266 . S
O1393 Tb1355 2.393 . S
O1393 C1407 1.248 . S
O1394 Tb1355 2.465 . S
O1394 C1419 1.264 . S
O1395 Tb1355 2.387 . S
O1395 C1411 1.264 . S
O1396 Tb1344 2.349 . S
O1396 C1411 1.243 . S
O1397 Tb1355 2.428 . S
O1397 C1419 1.256 . S
O1398 Tb1355 2.308 . S
O1398 C1418 1.266 . S
O1399 Tb1344 2.393 . S
O1399 C1418 1.248 . S
C1400 O1389 1.264 . S
C1400 O1390 1.243 . S
C1401 C1404 1.399 . S
C1401 C1406 1.383 . S
C1401 C1408 1.496 . S
C1402 C1403 1.399 . S
C1402 C1406 1.389 . S
C1403 C1402 1.399 . S
C1403 C1405 1.380 . S
C1403 H1420 0.929 . S
C1404 C1401 1.399 . S
C1404 C1405 1.392 . S
C1404 H1421 0.929 . S
C1405 C1403 1.380 . S
C1405 C1404 1.392 . S
C1405 H1422 0.929 . S
C1406 C1401 1.383 . S
C1406 C1402 1.389 . S
C1406 H1423 0.931 . S
C1407 O1392 1.266 . S
C1407 O1393 1.248 . S
C1408 Tb1344 2.802 . S
C1408 O1388 1.264 . S
C1408 O1391 1.256 . S
C1408 C1401 1.496 . S
C1409 C1376 1.448 . S
C1409 H1386 0.930 . S
C1409 C1410 1.328 . S
C1410 C1381 1.427 . S
C1410 H1387 0.929 . S
C1410 C1409 1.328 . S
C1411 O1395 1.264 . S
C1411 O1396 1.243 . S
C1412 C1415 1.399 . S
C1412 C1416 1.383 . S
C1412 C1419 1.496 . S
C1413 C1414 1.399 . S
C1413 C1416 1.389 . S
C1414 C1413 1.399 . S
C1414 C1417 1.380 . S
C1414 H1424 0.929 . S
C1415 C1412 1.399 . S
C1415 C1417 1.392 . S
C1415 H1425 0.929 . S
C1416 C1412 1.383 . S
C1416 C1413 1.389 . S
C1416 H1426 0.931 . S
C1417 C1414 1.380 . S
C1417 C1415 1.392 . S
C1417 H1427 0.929 . S
C1418 O1398 1.266 . S
C1418 O1399 1.248 . S
C1419 Tb1355 2.802 . S
C1419 O1394 1.264 . S
C1419 O1397 1.256 . S
C1419 C1412 1.496 . S
H1420 C1403 0.929 . S
H1421 C1404 0.929 . S
H1422 C1405 0.929 . S
H1423 C1406 0.931 . S
H1424 C1414 0.929 . S
H1425 C1415 0.929 . S
H1426 C1416 0.931 . S
H1427 C1417 0.929 . S
Tb1428 N1457 2.617 . S
Tb1428 N1463 2.572 . S
Tb1428 O1472 2.465 . S
Tb1428 O1473 2.387 . S
Tb1428 O1475 2.428 . S
Tb1428 O1476 2.308 . S
Tb1428 O1480 2.349 . S
Tb1428 O1483 2.393 . S
Tb1428 C1492 2.802 . S
C1429 N1430 1.379 . S
C1429 C1432 1.416 . S
C1429 C1436 1.424 . S
N1430 C1429 1.379 . S
N1430 C1433 1.334 . S
N1430 Tb1439 2.617 . S
C1431 C1433 1.390 . S
C1431 C1434 1.339 . S
C1431 H1451 0.930 . S
C1432 C1429 1.416 . S
C1432 C1434 1.416 . S
C1432 C1438 1.448 . S
C1433 N1430 1.334 . S
C1433 C1431 1.390 . S
C1433 H1444 0.930 . S
C1434 C1431 1.339 . S
C1434 C1432 1.416 . S
C1434 H1455 0.930 . S
C1435 C1436 1.413 . S
C1435 C1437 1.427 . S
C1435 C1441 1.416 . S
C1436 C1429 1.424 . S
C1436 C1435 1.413 . S
C1436 N1440 1.361 . S
C1437 C1435 1.427 . S
C1437 C1438 1.328 . S
C1437 H1452 0.929 . S
C1438 C1432 1.448 . S
C1438 C1437 1.328 . S
C1438 H1453 0.930 . S
Tb1439 N1430 2.617 . S
Tb1439 N1440 2.572 . S
Tb1439 O1474 2.349 . S
Tb1439 O1477 2.393 . S
Tb1439 O1478 2.465 . S
Tb1439 O1479 2.387 . S
Tb1439 O1481 2.428 . S
Tb1439 O1482 2.308 . S
Tb1439 C1503 2.802 . S
N1440 C1436 1.361 . S
N1440 Tb1439 2.572 . S
N1440 C1442 1.340 . S
C1441 C1435 1.416 . S
C1441 C1443 1.332 . S
C1441 H1449 0.931 . S
C1442 N1440 1.340 . S
C1442 C1443 1.407 . S
C1442 H1448 0.930 . S
C1443 C1441 1.332 . S
C1443 C1442 1.407 . S
C1443 H1445 0.929 . S
H1444 C1433 0.930 . S
H1445 C1443 0.929 . S
H1446 C1461 0.930 . S
H1447 C1468 0.929 . S
H1448 C1442 0.930 . S
H1449 C1441 0.931 . S
H1450 C1464 0.930 . S
H1451 C1431 0.930 . S
H1452 C1437 0.929 . S
H1453 C1438 0.930 . S
H1454 C1459 0.930 . S
H1455 C1434 0.930 . S
H1456 C1467 0.931 . S
N1457 Tb1428 2.617 . S
N1457 C1458 1.379 . S
N1457 C1461 1.334 . S
C1458 N1457 1.379 . S
C1458 C1460 1.416 . S
C1458 C1466 1.424 . S
C1459 H1454 0.930 . S
C1459 C1461 1.390 . S
C1459 C1462 1.339 . S
C1460 C1458 1.416 . S
C1460 C1462 1.416 . S
C1460 C1493 1.448 . S
C1461 H1446 0.930 . S
C1461 N1457 1.334 . S
C1461 C1459 1.390 . S
C1462 C1459 1.339 . S
C1462 C1460 1.416 . S
C1462 H1469 0.930 . S
N1463 Tb1428 2.572 . S
N1463 C1464 1.340 . S
N1463 C1466 1.361 . S
C1464 H1450 0.930 . S
C1464 N1463 1.340 . S
C1464 C1468 1.407 . S
C1465 C1466 1.413 . S
C1465 C1467 1.416 . S
C1465 C1494 1.427 . S
C1466 C1458 1.424 . S
C1466 N1463 1.361 . S
C1466 C1465 1.413 . S
C1467 H1456 0.931 . S
C1467 C1465 1.416 . S
C1467 C1468 1.332 . S
C1468 H1447 0.929 . S
C1468 C1464 1.407 . S
C1468 C1467 1.332 . S
H1469 C1462 0.930 . S
H1470 C1493 0.930 . S
H1471 C1494 0.929 . S
O1472 Tb1428 2.465 . S
O1472 C1492 1.264 . S
O1473 Tb1428 2.387 . S
O1473 C1484 1.264 . S
O1474 Tb1439 2.349 . S
O1474 C1484 1.243 . S
O1475 Tb1428 2.428 . S
O1475 C1492 1.256 . S
O1476 Tb1428 2.308 . S
O1476 C1491 1.266 . S
O1477 Tb1439 2.393 . S
O1477 C1491 1.248 . S
O1478 Tb1439 2.465 . S
O1478 C1503 1.264 . S
O1479 Tb1439 2.387 . S
O1479 C1495 1.264 . S
O1480 Tb1428 2.349 . S
O1480 C1495 1.243 . S
O1481 Tb1439 2.428 . S
O1481 C1503 1.256 . S
O1482 Tb1439 2.308 . S
O1482 C1502 1.266 . S
O1483 Tb1428 2.393 . S
O1483 C1502 1.248 . S
C1484 O1473 1.264 . S
C1484 O1474 1.243 . S
C1485 C1488 1.399 . S
C1485 C1490 1.383 . S
C1485 C1492 1.496 . S
C1486 C1487 1.399 . S
C1486 C1490 1.389 . S
C1487 C1486 1.399 . S
C1487 C1489 1.380 . S
C1487 H1504 0.929 . S
C1488 C1485 1.399 . S
C1488 C1489 1.392 . S
C1488 H1505 0.929 . S
C1489 C1487 1.380 . S
C1489 C1488 1.392 . S
C1489 H1506 0.929 . S
C1490 C1485 1.383 . S
C1490 C1486 1.389 . S
C1490 H1507 0.931 . S
C1491 O1476 1.266 . S
C1491 O1477 1.248 . S
C1492 Tb1428 2.802 . S
C1492 O1472 1.264 . S
C1492 O1475 1.256 . S
C1492 C1485 1.496 . S
C1493 C1460 1.448 . S
C1493 H1470 0.930 . S
C1493 C1494 1.328 . S
C1494 C1465 1.427 . S
C1494 H1471 0.929 . S
C1494 C1493 1.328 . S
C1495 O1479 1.264 . S
C1495 O1480 1.243 . S
C1496 C1499 1.399 . S
C1496 C1500 1.383 . S
C1496 C1503 1.496 . S
C1497 C1498 1.399 . S
C1497 C1500 1.389 . S
C1498 C1497 1.399 . S
C1498 C1501 1.380 . S
C1498 H1508 0.929 . S
C1499 C1496 1.399 . S
C1499 C1501 1.392 . S
C1499 H1509 0.929 . S
C1500 C1496 1.383 . S
C1500 C1497 1.389 . S
C1500 H1510 0.931 . S
C1501 C1498 1.380 . S
C1501 C1499 1.392 . S
C1501 H1511 0.929 . S
C1502 O1482 1.266 . S
C1502 O1483 1.248 . S
C1503 Tb1439 2.802 . S
C1503 O1478 1.264 . S
C1503 O1481 1.256 . S
C1503 C1496 1.496 . S
H1504 C1487 0.929 . S
H1505 C1488 0.929 . S
H1506 C1489 0.929 . S
H1507 C1490 0.931 . S
H1508 C1498 0.929 . S
H1509 C1499 0.929 . S
H1510 C1500 0.931 . S
H1511 C1501 0.929 . S
Tb1512 N1541 2.617 . S
Tb1512 N1547 2.572 . S
Tb1512 O1556 2.465 . S
Tb1512 O1557 2.387 . S
Tb1512 O1559 2.428 . S
Tb1512 O1560 2.308 . S
Tb1512 O1564 2.349 . S
Tb1512 O1567 2.393 . S
Tb1512 C1576 2.802 . S
C1513 N1514 1.379 . S
C1513 C1516 1.416 . S
C1513 C1520 1.424 . S
N1514 C1513 1.379 . S
N1514 C1517 1.334 . S
N1514 Tb1523 2.617 . S
C1515 C1517 1.390 . S
C1515 C1518 1.339 . S
C1515 H1535 0.930 . S
C1516 C1513 1.416 . S
C1516 C1518 1.416 . S
C1516 C1522 1.448 . S
C1517 N1514 1.334 . S
C1517 C1515 1.390 . S
C1517 H1528 0.930 . S
C1518 C1515 1.339 . S
C1518 C1516 1.416 . S
C1518 H1539 0.930 . S
C1519 C1520 1.413 . S
C1519 C1521 1.427 . S
C1519 C1525 1.416 . S
C1520 C1513 1.424 . S
C1520 C1519 1.413 . S
C1520 N1524 1.361 . S
C1521 C1519 1.427 . S
C1521 C1522 1.328 . S
C1521 H1536 0.929 . S
C1522 C1516 1.448 . S
C1522 C1521 1.328 . S
C1522 H1537 0.930 . S
Tb1523 N1514 2.617 . S
Tb1523 N1524 2.572 . S
Tb1523 O1558 2.349 . S
Tb1523 O1561 2.393 . S
Tb1523 O1562 2.465 . S
Tb1523 O1563 2.387 . S
Tb1523 O1565 2.428 . S
Tb1523 O1566 2.308 . S
Tb1523 C1587 2.802 . S
N1524 C1520 1.361 . S
N1524 Tb1523 2.572 . S
N1524 C1526 1.340 . S
C1525 C1519 1.416 . S
C1525 C1527 1.332 . S
C1525 H1533 0.931 . S
C1526 N1524 1.340 . S
C1526 C1527 1.407 . S
C1526 H1532 0.930 . S
C1527 C1525 1.332 . S
C1527 C1526 1.407 . S
C1527 H1529 0.929 . S
H1528 C1517 0.930 . S
H1529 C1527 0.929 . S
H1530 C1545 0.930 . S
H1531 C1552 0.929 . S
H1532 C1526 0.930 . S
H1533 C1525 0.931 . S
H1534 C1548 0.930 . S
H1535 C1515 0.930 . S
H1536 C1521 0.929 . S
H1537 C1522 0.930 . S
H1538 C1543 0.930 . S
H1539 C1518 0.930 . S
H1540 C1551 0.931 . S
N1541 Tb1512 2.617 . S
N1541 C1542 1.379 . S
N1541 C1545 1.334 . S
C1542 N1541 1.379 . S
C1542 C1544 1.416 . S
C1542 C1550 1.424 . S
C1543 H1538 0.930 . S
C1543 C1545 1.390 . S
C1543 C1546 1.339 . S
C1544 C1542 1.416 . S
C1544 C1546 1.416 . S
C1544 C1577 1.448 . S
C1545 H1530 0.930 . S
C1545 N1541 1.334 . S
C1545 C1543 1.390 . S
C1546 C1543 1.339 . S
C1546 C1544 1.416 . S
C1546 H1553 0.930 . S
N1547 Tb1512 2.572 . S
N1547 C1548 1.340 . S
N1547 C1550 1.361 . S
C1548 H1534 0.930 . S
C1548 N1547 1.340 . S
C1548 C1552 1.407 . S
C1549 C1550 1.413 . S
C1549 C1551 1.416 . S
C1549 C1578 1.427 . S
C1550 C1542 1.424 . S
C1550 N1547 1.361 . S
C1550 C1549 1.413 . S
C1551 H1540 0.931 . S
C1551 C1549 1.416 . S
C1551 C1552 1.332 . S
C1552 H1531 0.929 . S
C1552 C1548 1.407 . S
C1552 C1551 1.332 . S
H1553 C1546 0.930 . S
H1554 C1577 0.930 . S
H1555 C1578 0.929 . S
O1556 Tb1512 2.465 . S
O1556 C1576 1.264 . S
O1557 Tb1512 2.387 . S
O1557 C1568 1.264 . S
O1558 Tb1523 2.349 . S
O1558 C1568 1.243 . S
O1559 Tb1512 2.428 . S
O1559 C1576 1.256 . S
O1560 Tb1512 2.308 . S
O1560 C1575 1.266 . S
O1561 Tb1523 2.393 . S
O1561 C1575 1.248 . S
O1562 Tb1523 2.465 . S
O1562 C1587 1.264 . S
O1563 Tb1523 2.387 . S
O1563 C1579 1.264 . S
O1564 Tb1512 2.349 . S
O1564 C1579 1.243 . S
O1565 Tb1523 2.428 . S
O1565 C1587 1.256 . S
O1566 Tb1523 2.308 . S
O1566 C1586 1.266 . S
O1567 Tb1512 2.393 . S
O1567 C1586 1.248 . S
C1568 O1557 1.264 . S
C1568 O1558 1.243 . S
C1569 C1572 1.399 . S
C1569 C1574 1.383 . S
C1569 C1576 1.496 . S
C1570 C1571 1.399 . S
C1570 C1574 1.389 . S
C1571 C1570 1.399 . S
C1571 C1573 1.380 . S
C1571 H1588 0.929 . S
C1572 C1569 1.399 . S
C1572 C1573 1.392 . S
C1572 H1589 0.929 . S
C1573 C1571 1.380 . S
C1573 C1572 1.392 . S
C1573 H1590 0.929 . S
C1574 C1569 1.383 . S
C1574 C1570 1.389 . S
C1574 H1591 0.931 . S
C1575 O1560 1.266 . S
C1575 O1561 1.248 . S
C1576 Tb1512 2.802 . S
C1576 O1556 1.264 . S
C1576 O1559 1.256 . S
C1576 C1569 1.496 . S
C1577 C1544 1.448 . S
C1577 H1554 0.930 . S
C1577 C1578 1.328 . S
C1578 C1549 1.427 . S
C1578 H1555 0.929 . S
C1578 C1577 1.328 . S
C1579 O1563 1.264 . S
C1579 O1564 1.243 . S
C1580 C1583 1.399 . S
C1580 C1584 1.383 . S
C1580 C1587 1.496 . S
C1581 C1582 1.399 . S
C1581 C1584 1.389 . S
C1582 C1581 1.399 . S
C1582 C1585 1.380 . S
C1582 H1592 0.929 . S
C1583 C1580 1.399 . S
C1583 C1585 1.392 . S
C1583 H1593 0.929 . S
C1584 C1580 1.383 . S
C1584 C1581 1.389 . S
C1584 H1594 0.931 . S
C1585 C1582 1.380 . S
C1585 C1583 1.392 . S
C1585 H1595 0.929 . S
C1586 O1566 1.266 . S
C1586 O1567 1.248 . S
C1587 Tb1523 2.802 . S
C1587 O1562 1.264 . S
C1587 O1565 1.256 . S
C1587 C1580 1.496 . S
H1588 C1571 0.929 . S
H1589 C1572 0.929 . S
H1590 C1573 0.929 . S
H1591 C1574 0.931 . S
H1592 C1582 0.929 . S
H1593 C1583 0.929 . S
H1594 C1584 0.931 . S
H1595 C1585 0.929 . S
Tb1596 N1625 2.612 1_455 S
Tb1596 N1631 2.555 1_455 S
Tb1596 O1640 2.442 1_455 S
Tb1596 O1641 2.402 . S
Tb1596 O1643 2.409 1_455 S
Tb1596 O1644 2.313 . S
Tb1596 O1648 2.356 . S
Tb1596 O1651 2.412 . S
Tb1596 C1660 2.779 1_455 S
C1597 N1598 1.379 . S
C1597 C1600 1.416 . S
C1597 C1604 1.424 1_556 S
N1598 C1597 1.379 . S
N1598 C1601 1.334 . S
N1598 Tb1607 2.617 1_556 S
C1599 C1601 1.390 . S
C1599 C1602 1.339 . S
C1599 H1619 0.930 . S
C1600 C1597 1.416 . S
C1600 C1602 1.416 . S
C1600 C1606 1.448 . S
C1601 N1598 1.334 . S
C1601 C1599 1.390 . S
C1601 H1612 0.930 . S
C1602 C1599 1.339 . S
C1602 C1600 1.416 . S
C1602 H1623 0.930 . S
C1603 C1604 1.413 . S
C1603 C1605 1.427 1_554 S
C1603 C1609 1.416 . S
C1604 C1597 1.424 1_554 S
C1604 C1603 1.413 . S
C1604 N1608 1.361 . S
C1605 C1603 1.427 1_556 S
C1605 C1606 1.328 . S
C1605 H1620 0.929 1_556 S
C1606 C1600 1.448 . S
C1606 C1605 1.328 . S
C1606 H1621 0.930 . S
Tb1607 N1598 2.617 1_554 S
Tb1607 N1608 2.572 . S
Tb1607 O1642 2.349 . S
Tb1607 O1645 2.393 1_554 S
Tb1607 O1646 2.465 . S
Tb1607 O1647 2.387 . S
Tb1607 O1649 2.428 1_554 S
Tb1607 O1650 2.308 . S
Tb1607 C1671 2.802 . S
N1608 C1604 1.361 . S
N1608 Tb1607 2.572 . S
N1608 C1610 1.340 . S
C1609 C1603 1.416 . S
C1609 C1611 1.332 . S
C1609 H1617 0.931 . S
C1610 N1608 1.340 . S
C1610 C1611 1.407 . S
C1610 H1616 0.930 . S
C1611 C1609 1.332 . S
C1611 C1610 1.407 . S
C1611 H1613 0.929 . S
H1612 C1601 0.930 . S
H1613 C1611 0.929 . S
H1614 C1629 0.930 . S
H1615 C1636 0.929 1_556 S
H1616 C1610 0.930 . S
H1617 C1609 0.931 . S
H1618 C1632 0.930 . S
H1619 C1599 0.930 . S
H1620 C1605 0.929 1_554 S
H1621 C1606 0.930 . S
H1622 C1627 0.930 1_455 S
H1623 C1602 0.930 . S
H1624 C1635 0.931 . S
N1625 Tb1596 2.612 1_655 S
N1625 C1626 1.379 . S
N1625 C1629 1.334 1_655 S
C1626 N1625 1.379 . S
C1626 C1628 1.416 . S
C1626 C1634 1.424 . S
C1627 H1622 0.930 1_655 S
C1627 C1629 1.390 1_655 S
C1627 C1630 1.339 . S
C1628 C1626 1.416 . S
C1628 C1630 1.416 . S
C1628 C1661 1.448 . S
C1629 H1614 0.930 . S
C1629 N1625 1.334 1_455 S
C1629 C1627 1.390 1_455 S
C1630 C1627 1.339 . S
C1630 C1628 1.416 . S
C1630 H1637 0.930 . S
N1631 Tb1596 2.555 1_655 S
N1631 C1632 1.340 . S
N1631 C1634 1.361 . S
C1632 H1618 0.930 . S
C1632 N1631 1.340 . S
C1632 C1636 1.407 . S
C1633 C1634 1.413 . S
C1633 C1635 1.416 . S
C1633 C1662 1.427 . S
C1634 C1626 1.424 . S
C1634 N1631 1.361 . S
C1634 C1633 1.413 . S
C1635 H1624 0.931 . S
C1635 C1633 1.416 . S
C1635 C1636 1.332 . S
C1636 H1615 0.929 1_554 S
C1636 C1632 1.407 . S
C1636 C1635 1.332 . S
H1637 C1630 0.930 . S
H1638 C1661 0.930 . S
H1639 C1662 0.929 . S
O1640 Tb1596 2.442 1_655 S
O1640 C1660 1.264 . S
O1641 Tb1596 2.402 . S
O1641 C1652 1.264 . S
O1642 Tb1607 2.349 . S
O1642 C1652 1.243 . S
O1643 Tb1596 2.409 1_655 S
O1643 C1660 1.256 . S
O1644 Tb1596 2.313 . S
O1644 C1659 1.265 1_554 S
O1645 Tb1607 2.393 1_556 S
O1645 C1659 1.248 . S
O1646 Tb1607 2.465 . S
O1646 C1671 1.264 . S
O1647 Tb1607 2.387 . S
O1647 C1663 1.264 . S
O1648 Tb1596 2.356 . S
O1648 C1663 1.243 . S
O1649 Tb1607 2.428 1_556 S
O1649 C1671 1.256 1_556 S
O1650 Tb1607 2.308 . S
O1650 C1670 1.266 . S
O1651 Tb1596 2.412 . S
O1651 C1670 1.248 . S
C1652 O1641 1.264 . S
C1652 O1642 1.243 . S
C1653 C1656 1.399 . S
C1653 C1658 1.383 . S
C1653 C1660 1.496 . S
C1654 C1655 1.399 . S
C1654 C1658 1.389 . S
C1655 C1654 1.399 . S
C1655 C1657 1.380 . S
C1655 H1672 0.929 . S
C1656 C1653 1.399 . S
C1656 C1657 1.392 . S
C1656 H1673 0.929 . S
C1657 C1655 1.380 . S
C1657 C1656 1.392 . S
C1657 H1674 0.929 . S
C1658 C1653 1.383 . S
C1658 C1654 1.389 . S
C1658 H1675 0.931 . S
C1659 O1644 1.265 1_556 S
C1659 O1645 1.248 . S
C1660 Tb1596 2.779 1_655 S
C1660 O1640 1.264 . S
C1660 O1643 1.256 . S
C1660 C1653 1.496 . S
C1661 C1628 1.448 . S
C1661 H1638 0.930 . S
C1661 C1662 1.328 . S
C1662 C1633 1.427 . S
C1662 H1639 0.929 . S
C1662 C1661 1.328 . S
C1663 O1647 1.264 . S
C1663 O1648 1.243 . S
C1664 C1667 1.399 . S
C1664 C1668 1.383 1_556 S
C1664 C1671 1.496 1_556 S
C1665 C1666 1.399 1_554 S
C1665 C1668 1.389 . S
C1666 C1665 1.399 1_556 S
C1666 C1669 1.380 . S
C1666 H1676 0.929 . S
C1667 C1664 1.399 . S
C1667 C1669 1.392 . S
C1667 H1677 0.929 . S
C1668 C1664 1.383 1_554 S
C1668 C1665 1.389 . S
C1668 H1678 0.931 . S
C1669 C1666 1.380 . S
C1669 C1667 1.392 . S
C1669 H1679 0.929 . S
C1670 O1650 1.266 . S
C1670 O1651 1.248 . S
C1671 Tb1607 2.802 . S
C1671 O1646 1.264 . S
C1671 O1649 1.256 1_554 S
C1671 C1664 1.496 1_554 S
H1672 C1655 0.929 . S
H1673 C1656 0.929 . S
H1674 C1657 0.929 . S
H1675 C1658 0.931 . S
H1676 C1666 0.929 . S
H1677 C1667 0.929 . S
H1678 C1668 0.931 . S
H1679 C1669 0.929 . S
C1680 C1681 1.387 1_656 S
C1680 H1684 0.950 . S
C1680 C1689 1.392 1_556 S
C1681 C1680 1.387 1_454 S
C1681 C1683 1.387 . S
H1682 C1689 0.951 1_556 S
C1683 C1681 1.387 . S
C1683 C1685 1.390 . S
C1683 H1687 0.950 . S
H1684 C1680 0.950 . S
C1685 C1683 1.390 . S
C1685 C1686 1.387 . S
C1685 H1688 0.950 . S
C1686 C1685 1.387 . S
C1686 C1689 1.384 1_455 S
H1687 C1683 0.950 . S
H1688 C1685 0.950 . S
C1689 C1680 1.392 1_554 S
C1689 H1682 0.951 1_554 S
C1689 C1686 1.384 1_655 S
C1690 C1691 1.387 . S
C1690 H1694 0.950 . S
C1690 C1699 1.390 . S
C1691 C1690 1.387 . S
C1691 C1693 1.387 . S
H1692 C1699 0.950 . S
C1693 C1691 1.387 . S
C1693 C1695 1.390 . S
C1693 H1697 0.950 . S
H1694 C1690 0.950 . S
C1695 C1693 1.390 . S
C1695 C1696 1.387 . S
C1695 H1698 0.950 . S
C1696 C1695 1.387 . S
C1696 C1699 1.387 . S
H1697 C1693 0.950 . S
H1698 C1695 0.950 . S
C1699 C1690 1.390 . S
C1699 H1692 0.950 . S
C1699 C1696 1.387 . S
C1700 C1701 1.387 . S
C1700 H1704 0.950 . S
C1700 C1709 1.390 . S
C1701 C1700 1.387 . S
C1701 C1703 1.387 . S
H1702 C1709 0.950 . S
C1703 C1701 1.387 . S
C1703 C1705 1.390 . S
C1703 H1707 0.950 . S
H1704 C1700 0.950 . S
C1705 C1703 1.390 . S
C1705 C1706 1.387 . S
C1705 H1708 0.950 . S
C1706 C1705 1.387 . S
C1706 C1709 1.387 . S
H1707 C1703 0.950 . S
H1708 C1705 0.950 . S
C1709 C1700 1.390 . S
C1709 H1702 0.950 . S
C1709 C1706 1.387 . S
C1710 C1711 1.387 . S
C1710 H1714 0.950 . S
C1710 C1719 1.390 . S
C1711 C1710 1.387 . S
C1711 C1713 1.387 . S
H1712 C1719 0.950 . S
C1713 C1711 1.387 . S
C1713 C1715 1.390 . S
C1713 H1717 0.950 . S
H1714 C1710 0.950 . S
C1715 C1713 1.390 . S
C1715 C1716 1.387 . S
C1715 H1718 0.950 . S
C1716 C1715 1.387 . S
C1716 C1719 1.387 . S
H1717 C1713 0.950 . S
H1718 C1715 0.950 . S
C1719 C1710 1.390 . S
C1719 H1712 0.950 . S
C1719 C1716 1.387 . S
C1720 C1721 1.387 . S
C1720 H1724 0.950 1_455 S
C1720 C1729 1.390 . S
C1721 C1720 1.387 . S
C1721 C1723 1.387 . S
H1722 C1729 0.950 1_655 S
C1723 C1721 1.387 . S
C1723 C1725 1.390 . S
C1723 H1727 0.950 . S
H1724 C1720 0.950 1_655 S
C1725 C1723 1.390 . S
C1725 C1726 1.387 . S
C1725 H1728 0.950 . S
C1726 C1725 1.387 . S
C1726 C1729 1.387 . S
H1727 C1723 0.950 . S
H1728 C1725 0.950 . S
C1729 C1720 1.390 . S
C1729 H1722 0.950 1_455 S
C1729 C1726 1.387 . S
C1730 C1731 1.387 . S
C1730 H1734 0.950 . S
C1730 C1739 1.390 . S
C1731 C1730 1.387 . S
C1731 C1733 1.387 . S
H1732 C1739 0.950 . S
C1733 C1731 1.387 . S
C1733 C1735 1.390 . S
C1733 H1737 0.950 . S
H1734 C1730 0.950 . S
C1735 C1733 1.390 . S
C1735 C1736 1.387 . S
C1735 H1738 0.950 . S
C1736 C1735 1.387 . S
C1736 C1739 1.387 . S
H1737 C1733 0.950 . S
H1738 C1735 0.950 . S
C1739 C1730 1.390 . S
C1739 H1732 0.950 . S
C1739 C1736 1.387 . S
C1740 C1741 1.387 . S
C1740 H1744 0.950 . S
C1740 C1749 1.390 . S
C1741 C1740 1.387 . S
C1741 C1743 1.387 . S
H1742 C1749 0.950 . S
C1743 C1741 1.387 . S
C1743 C1745 1.390 . S
C1743 H1747 0.950 . S
H1744 C1740 0.950 . S
C1745 C1743 1.390 . S
C1745 C1746 1.387 . S
C1745 H1748 0.950 . S
C1746 C1745 1.387 . S
C1746 C1749 1.387 . S
H1747 C1743 0.950 . S
H1748 C1745 0.950 . S
C1749 C1740 1.390 . S
C1749 H1742 0.950 . S
C1749 C1746 1.387 . S
C1750 C1751 1.387 . S
C1750 H1754 0.950 . S
C1750 C1759 1.390 . S
C1751 C1750 1.387 . S
C1751 C1753 1.387 . S
H1752 C1759 0.950 . S
C1753 C1751 1.387 . S
C1753 C1755 1.390 . S
C1753 H1757 0.950 . S
H1754 C1750 0.950 . S
C1755 C1753 1.390 . S
C1755 C1756 1.387 . S
C1755 H1758 0.950 . S
C1756 C1755 1.387 . S
C1756 C1759 1.387 . S
H1757 C1753 0.950 . S
H1758 C1755 0.950 . S
C1759 C1750 1.390 . S
C1759 H1752 0.950 . S
C1759 C1756 1.387 . S
C1760 C1761 1.387 . S
C1760 H1764 0.950 . S
C1760 C1769 1.390 1_655 S
C1761 C1760 1.387 . S
C1761 C1763 1.387 . S
H1762 C1769 0.950 . S
C1763 C1761 1.387 . S
C1763 C1765 1.390 1_655 S
C1763 H1767 0.950 1_545 S
H1764 C1760 0.950 . S
C1765 C1763 1.390 1_455 S
C1765 C1766 1.387 . S
C1765 H1768 0.950 1_545 S
C1766 C1765 1.387 . S
C1766 C1769 1.387 . S
H1767 C1763 0.950 1_565 S
H1768 C1765 0.950 1_565 S
C1769 C1760 1.390 1_455 S
C1769 H1762 0.950 . S
C1769 C1766 1.387 . S
C1770 C1771 1.387 . S
C1770 H1774 0.950 . S
C1770 C1779 1.390 . S
C1771 C1770 1.387 . S
C1771 C1773 1.387 . S
H1772 C1779 0.950 . S
C1773 C1771 1.387 . S
C1773 C1775 1.390 . S
C1773 H1777 0.950 . S
H1774 C1770 0.950 . S
C1775 C1773 1.390 . S
C1775 C1776 1.387 . S
C1775 H1778 0.950 . S
C1776 C1775 1.387 . S
C1776 C1779 1.387 . S
H1777 C1773 0.950 . S
H1778 C1775 0.950 . S
C1779 C1770 1.390 . S
C1779 H1772 0.950 . S
C1779 C1776 1.387 . S
C1780 C1781 1.387 . S
C1780 H1784 0.950 . S
C1780 C1789 1.390 . S
C1781 C1780 1.387 . S
C1781 C1783 1.387 . S
H1782 C1789 0.950 . S
C1783 C1781 1.387 . S
C1783 C1785 1.390 . S
C1783 H1787 0.950 . S
H1784 C1780 0.950 . S
C1785 C1783 1.390 . S
C1785 C1786 1.387 . S
C1785 H1788 0.950 . S
C1786 C1785 1.387 . S
C1786 C1789 1.387 . S
H1787 C1783 0.950 . S
H1788 C1785 0.950 . S
C1789 C1780 1.390 . S
C1789 H1782 0.950 . S
C1789 C1786 1.387 . S
C1790 C1791 1.387 . S
C1790 H1794 0.950 . S
C1790 C1799 1.390 . S
C1791 C1790 1.387 . S
C1791 C1793 1.387 . S
H1792 C1799 0.950 . S
C1793 C1791 1.387 . S
C1793 C1795 1.390 . S
C1793 H1797 0.950 . S
H1794 C1790 0.950 . S
C1795 C1793 1.390 . S
C1795 C1796 1.387 . S
C1795 H1798 0.950 . S
C1796 C1795 1.387 . S
C1796 C1799 1.387 . S
H1797 C1793 0.950 . S
H1798 C1795 0.950 . S
C1799 C1790 1.390 . S
C1799 H1792 0.950 . S
C1799 C1796 1.387 . S
C1800 C1801 1.387 1_565 S
C1800 H1804 0.950 . S
C1800 C1809 1.390 1_565 S
C1801 C1800 1.387 1_545 S
C1801 C1803 1.387 1_655 S
H1802 C1809 0.951 1_565 S
C1803 C1801 1.387 1_455 S
C1803 C1805 1.390 . S
C1803 H1807 0.950 . S
H1804 C1800 0.950 . S
C1805 C1803 1.390 . S
C1805 C1806 1.387 . S
C1805 H1808 0.950 . S
C1806 C1805 1.387 . S
C1806 C1809 1.387 1_455 S
H1807 C1803 0.950 . S
H1808 C1805 0.950 . S
C1809 C1800 1.390 1_545 S
C1809 H1802 0.951 1_545 S
C1809 C1806 1.387 1_655 S
C1810 C1811 1.387 . S
C1810 H1814 0.950 . S
C1810 C1819 1.390 . S
C1811 C1810 1.387 . S
C1811 C1813 1.387 . S
H1812 C1819 0.950 . S
C1813 C1811 1.387 . S
C1813 C1815 1.390 . S
C1813 H1817 0.950 . S
H1814 C1810 0.950 . S
C1815 C1813 1.390 . S
C1815 C1816 1.387 . S
C1815 H1818 0.950 . S
C1816 C1815 1.387 . S
C1816 C1819 1.387 . S
H1817 C1813 0.950 . S
H1818 C1815 0.950 . S
C1819 C1810 1.390 . S
C1819 H1812 0.950 . S
C1819 C1816 1.387 . S
C1820 C1821 1.387 . S
C1820 H1824 0.950 . S
C1820 C1829 1.390 . S
C1821 C1820 1.387 . S
C1821 C1823 1.387 . S
H1822 C1829 0.950 . S
C1823 C1821 1.387 . S
C1823 C1825 1.390 . S
C1823 H1827 0.950 . S
H1824 C1820 0.950 . S
C1825 C1823 1.390 . S
C1825 C1826 1.387 . S
C1825 H1828 0.950 . S
C1826 C1825 1.387 . S
C1826 C1829 1.387 . S
H1827 C1823 0.950 . S
H1828 C1825 0.950 . S
C1829 C1820 1.390 . S
C1829 H1822 0.950 . S
C1829 C1826 1.387 . S
C1830 C1831 1.387 . S
C1830 H1834 0.950 . S
C1830 C1839 1.390 . S
C1831 C1830 1.387 . S
C1831 C1833 1.387 . S
H1832 C1839 0.950 . S
C1833 C1831 1.387 . S
C1833 C1835 1.390 . S
C1833 H1837 0.950 . S
H1834 C1830 0.950 . S
C1835 C1833 1.390 . S
C1835 C1836 1.387 . S
C1835 H1838 0.950 . S
C1836 C1835 1.387 . S
C1836 C1839 1.387 . S
H1837 C1833 0.950 . S
H1838 C1835 0.950 . S
C1839 C1830 1.390 . S
C1839 H1832 0.950 . S
C1839 C1836 1.387 . S
C1840 C1841 1.387 . S
C1840 H1844 0.950 . S
C1840 C1849 1.390 . S
C1841 C1840 1.387 . S
C1841 C1843 1.387 1_564 S
H1842 C1849 0.950 . S
C1843 C1841 1.387 1_546 S
C1843 C1845 1.390 1_556 S
C1843 H1847 0.950 . S
H1844 C1840 0.950 . S
C1845 C1843 1.390 1_554 S
C1845 C1846 1.387 . S
C1845 H1848 0.950 . S
C1846 C1845 1.387 . S
C1846 C1849 1.387 1_545 S
H1847 C1843 0.950 . S
H1848 C1845 0.950 . S
C1849 C1840 1.390 . S
C1849 H1842 0.950 . S
C1849 C1846 1.387 1_565 S
C1850 C1851 1.387 1_556 S
C1850 H1854 0.950 . S
C1850 C1859 1.390 . S
C1851 C1850 1.387 1_554 S
C1851 C1853 1.387 . S
H1852 C1859 0.950 . S
C1853 C1851 1.387 . S
C1853 C1855 1.390 . S
C1853 H1857 0.950 . S
H1854 C1850 0.950 . S
C1855 C1853 1.390 . S
C1855 C1856 1.387 . S
C1855 H1858 0.950 . S
C1856 C1855 1.387 . S
C1856 C1859 1.387 1_554 S
H1857 C1853 0.950 . S
H1858 C1855 0.950 . S
C1859 C1850 1.390 . S
C1859 H1852 0.950 . S
C1859 C1856 1.387 1_556 S
C1860 C1861 1.387 . S
C1860 H1864 0.950 . S
C1860 C1869 1.390 . S
C1861 C1860 1.387 . S
C1861 C1863 1.387 . S
H1862 C1869 0.950 . S
C1863 C1861 1.387 . S
C1863 C1865 1.390 . S
C1863 H1867 0.950 . S
H1864 C1860 0.950 . S
C1865 C1863 1.390 . S
C1865 C1866 1.387 . S
C1865 H1868 0.950 . S
C1866 C1865 1.387 . S
C1866 C1869 1.387 . S
H1867 C1863 0.950 . S
H1868 C1865 0.950 . S
C1869 C1860 1.390 . S
C1869 H1862 0.950 . S
C1869 C1866 1.387 . S
C1870 C1871 1.387 . S
C1870 H1874 0.950 . S
C1870 C1879 1.390 . S
C1871 C1870 1.387 . S
C1871 C1873 1.387 . S
H1872 C1879 0.950 . S
C1873 C1871 1.387 . S
C1873 C1875 1.390 . S
C1873 H1877 0.950 . S
H1874 C1870 0.950 . S
C1875 C1873 1.390 . S
C1875 C1876 1.387 . S
C1875 H1878 0.950 . S
C1876 C1875 1.387 . S
C1876 C1879 1.387 . S
H1877 C1873 0.950 . S
H1878 C1875 0.950 . S
C1879 C1870 1.390 . S
C1879 H1872 0.950 . S
C1879 C1876 1.387 . S
C1880 C1881 1.387 . S
C1880 H1884 0.950 . S
C1880 C1889 1.390 . S
C1881 C1880 1.387 . S
C1881 C1883 1.387 . S
H1882 C1889 0.950 . S
C1883 C1881 1.387 . S
C1883 C1885 1.390 . S
C1883 H1887 0.950 . S
H1884 C1880 0.950 . S
C1885 C1883 1.390 . S
C1885 C1886 1.387 . S
C1885 H1888 0.950 . S
C1886 C1885 1.387 . S
C1886 C1889 1.387 . S
H1887 C1883 0.950 . S
H1888 C1885 0.950 . S
C1889 C1880 1.390 . S
C1889 H1882 0.950 . S
C1889 C1886 1.387 . S
C1890 C1891 1.387 . S
C1890 H1894 0.950 . S
C1890 C1899 1.390 . S
C1891 C1890 1.387 . S
C1891 C1893 1.387 . S
H1892 C1899 0.950 . S
C1893 C1891 1.387 . S
C1893 C1895 1.390 . S
C1893 H1897 0.950 . S
H1894 C1890 0.950 . S
C1895 C1893 1.390 . S
C1895 C1896 1.387 . S
C1895 H1898 0.950 . S
C1896 C1895 1.387 . S
C1896 C1899 1.387 . S
H1897 C1893 0.950 . S
H1898 C1895 0.950 . S
C1899 C1890 1.390 . S
C1899 H1892 0.950 . S
C1899 C1896 1.387 . S
C1900 C1901 1.387 . S
C1900 H1904 0.950 . S
C1900 C1909 1.390 . S
C1901 C1900 1.387 . S
C1901 C1903 1.387 . S
H1902 C1909 0.950 . S
C1903 C1901 1.387 . S
C1903 C1905 1.390 . S
C1903 H1907 0.950 . S
H1904 C1900 0.950 . S
C1905 C1903 1.390 . S
C1905 C1906 1.387 . S
C1905 H1908 0.950 . S
C1906 C1905 1.387 . S
C1906 C1909 1.387 . S
H1907 C1903 0.950 . S
H1908 C1905 0.950 . S
C1909 C1900 1.390 . S
C1909 H1902 0.950 . S
C1909 C1906 1.387 . S
C1910 C1911 1.387 . S
C1910 H1914 0.950 . S
C1910 C1919 1.390 . S
C1911 C1910 1.387 . S
C1911 C1913 1.387 . S
H1912 C1919 0.950 . S
C1913 C1911 1.387 . S
C1913 C1915 1.390 . S
C1913 H1917 0.950 . S
H1914 C1910 0.950 . S
C1915 C1913 1.390 . S
C1915 C1916 1.387 . S
C1915 H1918 0.950 . S
C1916 C1915 1.387 . S
C1916 C1919 1.387 . S
H1917 C1913 0.950 . S
H1918 C1915 0.950 . S
C1919 C1910 1.390 . S
C1919 H1912 0.950 . S
C1919 C1916 1.387 . S
C1920 C1921 1.387 . S
C1920 H1924 0.950 . S
C1920 C1929 1.390 . S
C1921 C1920 1.387 . S
C1921 C1923 1.387 . S
H1922 C1929 0.950 . S
C1923 C1921 1.387 . S
C1923 C1925 1.390 . S
C1923 H1927 0.950 . S
H1924 C1920 0.950 . S
C1925 C1923 1.390 . S
C1925 C1926 1.387 . S
C1925 H1928 0.950 . S
C1926 C1925 1.387 . S
C1926 C1929 1.387 . S
H1927 C1923 0.950 . S
H1928 C1925 0.950 . S
C1929 C1920 1.390 . S
C1929 H1922 0.950 . S
C1929 C1926 1.387 . S
C1930 C1931 1.387 . S
C1930 H1934 0.950 . S
C1930 C1939 1.390 . S
C1931 C1930 1.387 . S
C1931 C1933 1.387 . S
H1932 C1939 0.950 . S
C1933 C1931 1.387 . S
C1933 C1935 1.390 . S
C1933 H1937 0.950 . S
H1934 C1930 0.950 . S
C1935 C1933 1.390 . S
C1935 C1936 1.387 . S
C1935 H1938 0.950 . S
C1936 C1935 1.387 . S
C1936 C1939 1.387 . S
H1937 C1933 0.950 . S
H1938 C1935 0.950 . S
C1939 C1930 1.390 . S
C1939 H1932 0.950 . S
C1939 C1936 1.387 . S
C1940 C1941 1.387 . S
C1940 H1944 0.950 . S
C1940 C1949 1.390 . S
C1941 C1940 1.387 . S
C1941 C1943 1.387 . S
H1942 C1949 0.950 . S
C1943 C1941 1.387 . S
C1943 C1945 1.390 . S
C1943 H1947 0.950 . S
H1944 C1940 0.950 . S
C1945 C1943 1.390 . S
C1945 C1946 1.387 . S
C1945 H1948 0.950 . S
C1946 C1945 1.387 . S
C1946 C1949 1.387 . S
H1947 C1943 0.950 . S
H1948 C1945 0.950 . S
C1949 C1940 1.390 . S
C1949 H1942 0.950 . S
C1949 C1946 1.387 . S
C1950 C1951 1.387 . S
C1950 H1954 0.950 . S
C1950 C1959 1.390 . S
C1951 C1950 1.387 . S
C1951 C1953 1.387 . S
H1952 C1959 0.950 . S
C1953 C1951 1.387 . S
C1953 C1955 1.390 . S
C1953 H1957 0.950 . S
H1954 C1950 0.950 . S
C1955 C1953 1.390 . S
C1955 C1956 1.387 . S
C1955 H1958 0.950 . S
C1956 C1955 1.387 . S
C1956 C1959 1.387 . S
H1957 C1953 0.950 . S
H1958 C1955 0.950 . S
C1959 C1950 1.390 . S
C1959 H1952 0.950 . S
C1959 C1956 1.387 . S
C1960 C1961 1.387 . S
C1960 H1964 0.950 . S
C1960 C1969 1.390 . S
C1961 C1960 1.387 . S
C1961 C1963 1.387 . S
H1962 C1969 0.950 . S
C1963 C1961 1.387 . S
C1963 C1965 1.390 . S
C1963 H1967 0.950 . S
H1964 C1960 0.950 . S
C1965 C1963 1.390 . S
C1965 C1966 1.387 . S
C1965 H1968 0.950 . S
C1966 C1965 1.387 . S
C1966 C1969 1.387 . S
H1967 C1963 0.950 . S
H1968 C1965 0.950 . S
C1969 C1960 1.390 . S
C1969 H1962 0.950 . S
C1969 C1966 1.387 . S
C1970 C1971 1.387 . S
C1970 H1974 0.950 . S
C1970 C1979 1.390 . S
C1971 C1970 1.387 . S
C1971 C1973 1.387 . S
H1972 C1979 0.950 . S
C1973 C1971 1.387 . S
C1973 C1975 1.390 . S
C1973 H1977 0.950 . S
H1974 C1970 0.950 . S
C1975 C1973 1.390 . S
C1975 C1976 1.387 . S
C1975 H1978 0.950 . S
C1976 C1975 1.387 . S
C1976 C1979 1.387 . S
H1977 C1973 0.950 . S
H1978 C1975 0.950 . S
C1979 C1970 1.390 . S
C1979 H1972 0.950 . S
C1979 C1976 1.387 . S
C1980 C1981 1.387 . S
C1980 H1984 0.950 . S
C1980 C1989 1.390 . S
C1981 C1980 1.387 . S
C1981 C1983 1.387 . S
H1982 C1989 0.950 . S
C1983 C1981 1.387 . S
C1983 C1985 1.390 . S
C1983 H1987 0.950 . S
H1984 C1980 0.950 . S
C1985 C1983 1.390 . S
C1985 C1986 1.387 . S
C1985 H1988 0.950 1_556 S
C1986 C1985 1.387 . S
C1986 C1989 1.387 . S
H1987 C1983 0.950 . S
H1988 C1985 0.950 1_554 S
C1989 C1980 1.390 . S
C1989 H1982 0.950 . S
C1989 C1986 1.387 . S
C1990 C1991 1.387 . S
C1990 H1994 0.950 . S
C1990 C1999 1.390 . S
C1991 C1990 1.387 . S
C1991 C1993 1.387 . S
H1992 C1999 0.950 . S
C1993 C1991 1.387 . S
C1993 C1995 1.390 . S
C1993 H1997 0.950 . S
H1994 C1990 0.950 . S
C1995 C1993 1.390 . S
C1995 C1996 1.387 . S
C1995 H1998 0.950 . S
C1996 C1995 1.387 . S
C1996 C1999 1.387 . S
H1997 C1993 0.950 . S
H1998 C1995 0.950 . S
C1999 C1990 1.390 . S
C1999 H1992 0.950 . S
C1999 C1996 1.387 . S
C2000 C2001 1.387 . S
C2000 H2004 0.950 . S
C2000 C2009 1.390 . S
C2001 C2000 1.387 . S
C2001 C2003 1.387 . S
H2002 C2009 0.950 . S
C2003 C2001 1.387 . S
C2003 C2005 1.390 . S
C2003 H2007 0.950 . S
H2004 C2000 0.950 . S
C2005 C2003 1.390 . S
C2005 C2006 1.387 . S
C2005 H2008 0.950 . S
C2006 C2005 1.387 . S
C2006 C2009 1.387 . S
H2007 C2003 0.950 . S
H2008 C2005 0.950 . S
C2009 C2000 1.390 . S
C2009 H2002 0.950 . S
C2009 C2006 1.387 . S
C2010 C2011 1.387 . S
C2010 H2014 0.950 . S
C2010 C2019 1.390 . S
C2011 C2010 1.387 . S
C2011 C2013 1.387 . S
H2012 C2019 0.950 . S
C2013 C2011 1.387 . S
C2013 C2015 1.390 . S
C2013 H2017 0.950 . S
H2014 C2010 0.950 . S
C2015 C2013 1.390 . S
C2015 C2016 1.387 . S
C2015 H2018 0.950 . S
C2016 C2015 1.387 . S
C2016 C2019 1.387 . S
H2017 C2013 0.950 . S
H2018 C2015 0.950 . S
C2019 C2010 1.390 . S
C2019 H2012 0.950 . S
C2019 C2016 1.387 . S
C2020 C2021 1.387 1_565 S
C2020 H2024 0.950 . S
C2020 C2029 1.390 . S
C2021 C2020 1.387 1_545 S
C2021 C2023 1.387 . S
H2022 C2029 0.950 . S
C2023 C2021 1.387 . S
C2023 C2025 1.390 . S
C2023 H2027 0.950 . S
H2024 C2020 0.950 . S
C2025 C2023 1.390 . S
C2025 C2026 1.387 . S
C2025 H2028 0.950 . S
C2026 C2025 1.387 . S
C2026 C2029 1.387 1_545 S
H2027 C2023 0.950 . S
H2028 C2025 0.950 . S
C2029 C2020 1.390 . S
C2029 H2022 0.950 . S
C2029 C2026 1.387 1_565 S
C2030 C2031 1.387 . S
C2030 H2034 0.950 . S
C2030 C2039 1.390 . S
C2031 C2030 1.387 . S
C2031 C2033 1.387 . S
H2032 C2039 0.950 . S
C2033 C2031 1.387 . S
C2033 C2035 1.390 . S
C2033 H2037 0.950 . S
H2034 C2030 0.950 . S
C2035 C2033 1.390 . S
C2035 C2036 1.387 . S
C2035 H2038 0.950 . S
C2036 C2035 1.387 . S
C2036 C2039 1.387 . S
H2037 C2033 0.950 . S
H2038 C2035 0.950 . S
C2039 C2030 1.390 . S
C2039 H2032 0.950 . S
C2039 C2036 1.387 . S
C2040 C2041 1.387 . S
C2040 H2044 0.950 . S
C2040 C2049 1.390 . S
C2041 C2040 1.387 . S
C2041 C2043 1.387 . S
H2042 C2049 0.950 . S
C2043 C2041 1.387 . S
C2043 C2045 1.390 . S
C2043 H2047 0.950 . S
H2044 C2040 0.950 . S
C2045 C2043 1.390 . S
C2045 C2046 1.387 . S
C2045 H2048 0.950 . S
C2046 C2045 1.387 . S
C2046 C2049 1.387 . S
H2047 C2043 0.950 . S
H2048 C2045 0.950 . S
C2049 C2040 1.390 . S
C2049 H2042 0.950 . S
C2049 C2046 1.387 . S
C2050 C2051 1.387 . S
C2050 H2054 0.950 . S
C2050 C2059 1.390 . S
C2051 C2050 1.387 . S
C2051 C2053 1.387 . S
H2052 C2059 0.950 . S
C2053 C2051 1.387 . S
C2053 C2055 1.390 . S
C2053 H2057 0.950 . S
H2054 C2050 0.950 . S
C2055 C2053 1.390 . S
C2055 C2056 1.387 . S
C2055 H2058 0.950 . S
C2056 C2055 1.387 . S
C2056 C2059 1.387 . S
H2057 C2053 0.950 . S
H2058 C2055 0.950 . S
C2059 C2050 1.390 . S
C2059 H2052 0.950 . S
C2059 C2056 1.387 . S
C2060 C2061 1.387 . S
C2060 H2064 0.950 . S
C2060 C2069 1.390 . S
C2061 C2060 1.387 . S
C2061 C2063 1.387 1_545 S
H2062 C2069 0.950 . S
C2063 C2061 1.387 1_565 S
C2063 C2065 1.390 . S
C2063 H2067 0.950 . S
H2064 C2060 0.950 . S
C2065 C2063 1.390 . S
C2065 C2066 1.387 1_565 S
C2065 H2068 0.950 . S
C2066 C2065 1.387 1_545 S
C2066 C2069 1.387 . S
H2067 C2063 0.950 . S
H2068 C2065 0.950 . S
C2069 C2060 1.390 . S
C2069 H2062 0.950 . S
C2069 C2066 1.387 . S
C2070 C2071 1.387 . S
C2070 H2074 0.950 . S
C2070 C2079 1.390 . S
C2071 C2070 1.387 . S
C2071 C2073 1.387 . S
H2072 C2079 0.950 . S
C2073 C2071 1.387 . S
C2073 C2075 1.390 . S
C2073 H2077 0.950 . S
H2074 C2070 0.950 . S
C2075 C2073 1.390 . S
C2075 C2076 1.387 . S
C2075 H2078 0.950 . S
C2076 C2075 1.387 . S
C2076 C2079 1.387 . S
H2077 C2073 0.950 . S
H2078 C2075 0.950 . S
C2079 C2070 1.390 . S
C2079 H2072 0.950 . S
C2079 C2076 1.387 . S
C2080 C2081 1.387 . S
C2080 H2084 0.950 . S
C2080 C2089 1.390 . S
C2081 C2080 1.387 . S
C2081 C2083 1.387 . S
H2082 C2089 0.950 . S
C2083 C2081 1.387 . S
C2083 C2085 1.390 . S
C2083 H2087 0.950 . S
H2084 C2080 0.950 . S
C2085 C2083 1.390 . S
C2085 C2086 1.387 . S
C2085 H2088 0.950 . S
C2086 C2085 1.387 . S
C2086 C2089 1.387 . S
H2087 C2083 0.950 . S
H2088 C2085 0.950 . S
C2089 C2080 1.390 . S
C2089 H2082 0.950 . S
C2089 C2086 1.387 . S
C2090 C2091 1.387 . S
C2090 H2094 0.950 . S
C2090 C2099 1.390 . S
C2091 C2090 1.387 . S
C2091 C2093 1.387 . S
H2092 C2099 0.950 . S
C2093 C2091 1.387 . S
C2093 C2095 1.390 . S
C2093 H2097 0.950 . S
H2094 C2090 0.950 . S
C2095 C2093 1.390 . S
C2095 C2096 1.387 . S
C2095 H2098 0.950 . S
C2096 C2095 1.387 . S
C2096 C2099 1.387 . S
H2097 C2093 0.950 . S
H2098 C2095 0.950 . S
C2099 C2090 1.390 . S
C2099 H2092 0.950 . S
C2099 C2096 1.387 . S
C2100 C2101 1.387 . S
C2100 H2104 0.950 . S
C2100 C2109 1.390 . S
C2101 C2100 1.387 . S
C2101 C2103 1.387 . S
H2102 C2109 0.950 . S
C2103 C2101 1.387 . S
C2103 C2105 1.390 . S
C2103 H2107 0.950 . S
H2104 C2100 0.950 . S
C2105 C2103 1.390 . S
C2105 C2106 1.387 . S
C2105 H2108 0.950 . S
C2106 C2105 1.387 . S
C2106 C2109 1.387 . S
H2107 C2103 0.950 . S
H2108 C2105 0.950 . S
C2109 C2100 1.390 . S
C2109 H2102 0.950 . S
C2109 C2106 1.387 . S
C2110 C2111 1.387 . S
C2110 H2114 0.950 . S
C2110 C2119 1.390 . S
C2111 C2110 1.387 . S
C2111 C2113 1.387 . S
H2112 C2119 0.950 . S
C2113 C2111 1.387 . S
C2113 C2115 1.390 . S
C2113 H2117 0.950 . S
H2114 C2110 0.950 . S
C2115 C2113 1.390 . S
C2115 C2116 1.387 . S
C2115 H2118 0.950 . S
C2116 C2115 1.387 . S
C2116 C2119 1.387 . S
H2117 C2113 0.950 . S
H2118 C2115 0.950 . S
C2119 C2110 1.390 . S
C2119 H2112 0.950 . S
C2119 C2116 1.387 . S
C2120 C2121 1.387 1_565 S
C2120 H2124 0.950 . S
C2120 C2129 1.390 . S
C2121 C2120 1.387 1_545 S
C2121 C2123 1.387 . S
H2122 C2129 0.950 . S
C2123 C2121 1.387 . S
C2123 C2125 1.390 . S
C2123 H2127 0.950 . S
H2124 C2120 0.950 . S
C2125 C2123 1.390 . S
C2125 C2126 1.387 1_545 S
C2125 H2128 0.950 . S
C2126 C2125 1.387 1_565 S
C2126 C2129 1.387 . S
H2127 C2123 0.950 . S
H2128 C2125 0.950 . S
C2129 C2120 1.390 . S
C2129 H2122 0.950 . S
C2129 C2126 1.387 . S
C2130 C2131 1.387 . S
C2130 H2134 0.950 . S
C2130 C2139 1.390 . S
C2131 C2130 1.387 . S
C2131 C2133 1.387 . S
H2132 C2139 0.950 . S
C2133 C2131 1.387 . S
C2133 C2135 1.390 . S
C2133 H2137 0.950 . S
H2134 C2130 0.950 . S
C2135 C2133 1.390 . S
C2135 C2136 1.387 . S
C2135 H2138 0.950 . S
C2136 C2135 1.387 . S
C2136 C2139 1.387 . S
H2137 C2133 0.950 . S
H2138 C2135 0.950 . S
C2139 C2130 1.390 . S
C2139 H2132 0.950 . S
C2139 C2136 1.387 . S
C2140 C2141 1.387 . S
C2140 H2144 0.950 . S
C2140 C2149 1.390 . S
C2141 C2140 1.387 . S
C2141 C2143 1.387 . S
H2142 C2149 0.950 . S
C2143 C2141 1.387 . S
C2143 C2145 1.390 . S
C2143 H2147 0.950 . S
H2144 C2140 0.950 . S
C2145 C2143 1.390 . S
C2145 C2146 1.387 . S
C2145 H2148 0.950 . S
C2146 C2145 1.387 . S
C2146 C2149 1.387 . S
H2147 C2143 0.950 . S
H2148 C2145 0.950 . S
C2149 C2140 1.390 . S
C2149 H2142 0.950 . S
C2149 C2146 1.387 . S
C2150 C2151 1.387 . S
C2150 H2154 0.950 . S
C2150 C2159 1.390 . S
C2151 C2150 1.387 . S
C2151 C2153 1.387 . S
H2152 C2159 0.950 . S
C2153 C2151 1.387 . S
C2153 C2155 1.390 . S
C2153 H2157 0.950 . S
H2154 C2150 0.950 . S
C2155 C2153 1.390 . S
C2155 C2156 1.387 . S
C2155 H2158 0.950 . S
C2156 C2155 1.387 . S
C2156 C2159 1.387 . S
H2157 C2153 0.950 . S
H2158 C2155 0.950 . S
C2159 C2150 1.390 . S
C2159 H2152 0.950 . S
C2159 C2156 1.387 . S
C2160 C2161 1.387 . S
C2160 H2164 0.950 . S
C2160 C2169 1.390 . S
C2161 C2160 1.387 . S
C2161 C2163 1.387 . S
H2162 C2169 0.950 . S
C2163 C2161 1.387 . S
C2163 C2165 1.390 . S
C2163 H2167 0.950 . S
H2164 C2160 0.950 . S
C2165 C2163 1.390 . S
C2165 C2166 1.387 . S
C2165 H2168 0.950 . S
C2166 C2165 1.387 . S
C2166 C2169 1.387 . S
H2167 C2163 0.950 . S
H2168 C2165 0.950 . S
C2169 C2160 1.390 . S
C2169 H2162 0.950 . S
C2169 C2166 1.387 . S
C2170 C2171 1.387 . S
C2170 H2174 0.950 . S
C2170 C2179 1.390 . S
C2171 C2170 1.387 . S
C2171 C2173 1.387 . S
H2172 C2179 0.950 . S
C2173 C2171 1.387 . S
C2173 C2175 1.390 . S
C2173 H2177 0.950 . S
H2174 C2170 0.950 . S
C2175 C2173 1.390 . S
C2175 C2176 1.387 . S
C2175 H2178 0.950 . S
C2176 C2175 1.387 . S
C2176 C2179 1.387 . S
H2177 C2173 0.950 . S
H2178 C2175 0.950 . S
C2179 C2170 1.390 . S
C2179 H2172 0.950 . S
C2179 C2176 1.387 . S
C2180 C2181 1.387 . S
C2180 H2184 0.950 . S
C2180 C2189 1.390 . S
C2181 C2180 1.387 . S
C2181 C2183 1.387 1_554 S
H2182 C2189 0.950 . S
C2183 C2181 1.387 1_556 S
C2183 C2185 1.390 . S
C2183 H2187 0.950 . S
H2184 C2180 0.950 . S
C2185 C2183 1.390 . S
C2185 C2186 1.387 1_556 S
C2185 H2188 0.950 . S
C2186 C2185 1.387 1_554 S
C2186 C2189 1.387 . S
H2187 C2183 0.950 . S
H2188 C2185 0.950 . S
C2189 C2180 1.390 . S
C2189 H2182 0.950 . S
C2189 C2186 1.387 . S
C2190 C2191 1.387 1_655 S
C2190 H2194 0.950 . S
C2190 C2199 1.390 . S
C2191 C2190 1.387 1_455 S
C2191 C2193 1.389 1_455 S
H2192 C2199 0.950 . S
C2193 C2191 1.389 1_655 S
C2193 C2195 1.387 . S
C2193 H2197 0.951 1_655 S
H2194 C2190 0.950 . S
C2195 C2193 1.387 . S
C2195 C2196 1.387 . S
C2195 H2198 0.950 . S
C2196 C2195 1.387 . S
C2196 C2199 1.387 . S
H2197 C2193 0.951 1_455 S
H2198 C2195 0.950 . S
C2199 C2190 1.390 . S
C2199 H2192 0.950 . S
C2199 C2196 1.387 . S
C2200 C2201 1.387 . S
C2200 H2204 0.950 . S
C2200 C2209 1.390 . S
C2201 C2200 1.387 . S
C2201 C2203 1.387 . S
H2202 C2209 0.950 . S
C2203 C2201 1.387 . S
C2203 C2205 1.390 . S
C2203 H2207 0.950 . S
H2204 C2200 0.950 . S
C2205 C2203 1.390 . S
C2205 C2206 1.387 . S
C2205 H2208 0.950 . S
C2206 C2205 1.387 . S
C2206 C2209 1.387 . S
H2207 C2203 0.950 . S
H2208 C2205 0.950 . S
C2209 C2200 1.390 . S
C2209 H2202 0.950 . S
C2209 C2206 1.387 . S
C2210 C2211 1.387 . S
C2210 H2214 0.950 . S
C2210 C2219 1.390 . S
C2211 C2210 1.387 . S
C2211 C2213 1.387 . S
H2212 C2219 0.950 . S
C2213 C2211 1.387 . S
C2213 C2215 1.390 . S
C2213 H2217 0.950 . S
H2214 C2210 0.950 . S
C2215 C2213 1.390 . S
C2215 C2216 1.387 . S
C2215 H2218 0.950 . S
C2216 C2215 1.387 . S
C2216 C2219 1.387 . S
H2217 C2213 0.950 . S
H2218 C2215 0.950 . S
C2219 C2210 1.390 . S
C2219 H2212 0.950 . S
C2219 C2216 1.387 . S
C2220 C2221 1.387 . S
C2220 H2224 0.950 1_455 S
C2220 C2229 1.390 . S
C2221 C2220 1.387 . S
C2221 C2223 1.387 . S
H2222 C2229 0.950 1_655 S
C2223 C2221 1.387 . S
C2223 C2225 1.390 . S
C2223 H2227 0.950 . S
H2224 C2220 0.950 1_655 S
C2225 C2223 1.390 . S
C2225 C2226 1.387 . S
C2225 H2228 0.950 . S
C2226 C2225 1.387 . S
C2226 C2229 1.387 . S
H2227 C2223 0.950 . S
H2228 C2225 0.950 . S
C2229 C2220 1.390 . S
C2229 H2222 0.950 1_455 S
C2229 C2226 1.387 . S
C2230 C2231 1.387 . S
C2230 H2234 0.950 . S
C2230 C2239 1.390 . S
C2231 C2230 1.387 . S
C2231 C2233 1.387 . S
H2232 C2239 0.950 . S
C2233 C2231 1.387 . S
C2233 C2235 1.390 . S
C2233 H2237 0.950 . S
H2234 C2230 0.950 . S
C2235 C2233 1.390 . S
C2235 C2236 1.387 . S
C2235 H2238 0.950 . S
C2236 C2235 1.387 . S
C2236 C2239 1.387 . S
H2237 C2233 0.950 . S
H2238 C2235 0.950 . S
C2239 C2230 1.390 . S
C2239 H2232 0.950 . S
C2239 C2236 1.387 . S
C2240 C2241 1.387 . S
C2240 H2244 0.950 . S
C2240 C2249 1.390 . S
C2241 C2240 1.387 . S
C2241 C2243 1.387 . S
H2242 C2249 0.950 . S
C2243 C2241 1.387 . S
C2243 C2245 1.390 . S
C2243 H2247 0.950 . S
H2244 C2240 0.950 . S
C2245 C2243 1.390 . S
C2245 C2246 1.387 . S
C2245 H2248 0.950 . S
C2246 C2245 1.387 . S
C2246 C2249 1.387 . S
H2247 C2243 0.950 . S
H2248 C2245 0.950 . S
C2249 C2240 1.390 . S
C2249 H2242 0.950 . S
C2249 C2246 1.387 . S
C2250 C2251 1.387 . S
C2250 H2254 0.950 . S
C2250 C2259 1.390 1_554 S
C2251 C2250 1.387 . S
C2251 C2253 1.387 1_554 S
H2252 C2259 0.950 . S
C2253 C2251 1.387 1_556 S
C2253 C2255 1.390 . S
C2253 H2257 0.950 . S
H2254 C2250 0.950 . S
C2255 C2253 1.390 . S
C2255 C2256 1.387 . S
C2255 H2258 0.950 . S
C2256 C2255 1.387 . S
C2256 C2259 1.387 . S
H2257 C2253 0.950 . S
H2258 C2255 0.950 . S
C2259 C2250 1.390 1_556 S
C2259 H2252 0.950 . S
C2259 C2256 1.387 . S
C2260 C2261 1.387 . S
C2260 H2264 0.950 . S
C2260 C2269 1.390 . S
C2261 C2260 1.387 . S
C2261 C2263 1.387 . S
H2262 C2269 0.950 . S
C2263 C2261 1.387 . S
C2263 C2265 1.390 . S
C2263 H2267 0.950 . S
H2264 C2260 0.950 . S
C2265 C2263 1.390 . S
C2265 C2266 1.387 . S
C2265 H2268 0.950 . S
C2266 C2265 1.387 . S
C2266 C2269 1.387 . S
H2267 C2263 0.950 . S
H2268 C2265 0.950 . S
C2269 C2260 1.390 . S
C2269 H2262 0.950 . S
C2269 C2266 1.387 . S
C2270 C2271 1.387 . S
C2270 H2274 0.950 . S
C2270 C2279 1.390 . S
C2271 C2270 1.387 . S
C2271 C2273 1.387 . S
H2272 C2279 0.950 . S
C2273 C2271 1.387 . S
C2273 C2275 1.390 . S
C2273 H2277 0.950 . S
H2274 C2270 0.950 . S
C2275 C2273 1.390 . S
C2275 C2276 1.387 . S
C2275 H2278 0.950 . S
C2276 C2275 1.387 . S
C2276 C2279 1.387 . S
H2277 C2273 0.950 . S
H2278 C2275 0.950 . S
C2279 C2270 1.390 . S
C2279 H2272 0.950 . S
C2279 C2276 1.387 . S
C2280 C2281 1.387 . S
C2280 H2284 0.950 . S
C2280 C2289 1.390 . S
C2281 C2280 1.387 . S
C2281 C2283 1.387 . S
H2282 C2289 0.950 . S
C2283 C2281 1.387 . S
C2283 C2285 1.390 . S
C2283 H2287 0.950 . S
H2284 C2280 0.950 . S
C2285 C2283 1.390 . S
C2285 C2286 1.387 . S
C2285 H2288 0.950 . S
C2286 C2285 1.387 . S
C2286 C2289 1.387 . S
H2287 C2283 0.950 . S
H2288 C2285 0.950 . S
C2289 C2280 1.390 . S
C2289 H2282 0.950 . S
C2289 C2286 1.387 . S
C2290 C2291 1.387 . S
C2290 H2294 0.950 . S
C2290 C2299 1.390 . S
C2291 C2290 1.387 . S
C2291 C2293 1.387 . S
H2292 C2299 0.950 . S
C2293 C2291 1.387 . S
C2293 C2295 1.390 . S
C2293 H2297 0.950 . S
H2294 C2290 0.950 . S
C2295 C2293 1.390 . S
C2295 C2296 1.387 . S
C2295 H2298 0.950 . S
C2296 C2295 1.387 . S
C2296 C2299 1.387 . S
H2297 C2293 0.950 . S
H2298 C2295 0.950 . S
C2299 C2290 1.390 . S
C2299 H2292 0.950 . S
C2299 C2296 1.387 . S
C2300 C2301 1.387 . S
C2300 H2304 0.950 . S
C2300 C2309 1.390 . S
C2301 C2300 1.387 . S
C2301 C2303 1.387 . S
H2302 C2309 0.950 . S
C2303 C2301 1.387 . S
C2303 C2305 1.390 . S
C2303 H2307 0.950 . S
H2304 C2300 0.950 . S
C2305 C2303 1.390 . S
C2305 C2306 1.387 . S
C2305 H2308 0.950 . S
C2306 C2305 1.387 . S
C2306 C2309 1.387 . S
H2307 C2303 0.950 . S
H2308 C2305 0.950 . S
C2309 C2300 1.390 . S
C2309 H2302 0.950 . S
C2309 C2306 1.387 . S
C2310 C2311 1.387 . S
C2310 H2314 0.950 . S
C2310 C2319 1.390 . S
C2311 C2310 1.387 . S
C2311 C2313 1.387 . S
H2312 C2319 0.950 . S
C2313 C2311 1.387 . S
C2313 C2315 1.390 . S
C2313 H2317 0.950 . S
H2314 C2310 0.950 . S
C2315 C2313 1.390 . S
C2315 C2316 1.387 . S
C2315 H2318 0.950 . S
C2316 C2315 1.387 . S
C2316 C2319 1.387 . S
H2317 C2313 0.950 . S
H2318 C2315 0.950 . S
C2319 C2310 1.390 . S
C2319 H2312 0.950 . S
C2319 C2316 1.387 . S
C2320 C2321 1.387 . S
C2320 H2324 0.950 . S
C2320 C2329 1.390 . S
C2321 C2320 1.387 . S
C2321 C2323 1.387 . S
H2322 C2329 0.950 . S
C2323 C2321 1.387 . S
C2323 C2325 1.390 . S
C2323 H2327 0.950 . S
H2324 C2320 0.950 . S
C2325 C2323 1.390 . S
C2325 C2326 1.387 . S
C2325 H2328 0.950 . S
C2326 C2325 1.387 . S
C2326 C2329 1.387 . S
H2327 C2323 0.950 . S
H2328 C2325 0.950 . S
C2329 C2320 1.390 . S
C2329 H2322 0.950 . S
C2329 C2326 1.387 . S
C2330 C2331 1.387 . S
C2330 H2334 0.950 . S
C2330 C2339 1.390 . S
C2331 C2330 1.387 . S
C2331 C2333 1.387 . S
H2332 C2339 0.950 . S
C2333 C2331 1.387 . S
C2333 C2335 1.390 . S
C2333 H2337 0.950 . S
H2334 C2330 0.950 . S
C2335 C2333 1.390 . S
C2335 C2336 1.387 . S
C2335 H2338 0.950 . S
C2336 C2335 1.387 . S
C2336 C2339 1.387 . S
H2337 C2333 0.950 . S
H2338 C2335 0.950 . S
C2339 C2330 1.390 . S
C2339 H2332 0.950 . S
C2339 C2336 1.387 . S
C2340 C2341 1.387 . S
C2340 H2344 0.950 1_565 S
C2340 C2349 1.390 . S
C2341 C2340 1.387 . S
C2341 C2343 1.387 . S
H2342 C2349 0.950 . S
C2343 C2341 1.387 . S
C2343 C2345 1.390 . S
C2343 H2347 0.950 . S
H2344 C2340 0.950 1_545 S
C2345 C2343 1.390 . S
C2345 C2346 1.387 . S
C2345 H2348 0.950 . S
C2346 C2345 1.387 . S
C2346 C2349 1.387 . S
H2347 C2343 0.950 . S
H2348 C2345 0.950 . S
C2349 C2340 1.390 . S
C2349 H2342 0.950 . S
C2349 C2346 1.387 . S
C2350 C2351 1.378 1_546 S
C2350 H2354 0.965 1_545 S
C2350 C2359 1.394 . S
C2351 C2350 1.378 1_564 S
C2351 C2353 1.387 . S
H2352 C2359 0.950 . S
C2353 C2351 1.387 . S
C2353 C2355 1.390 1_565 S
C2353 H2357 0.950 . S
H2354 C2350 0.965 1_565 S
C2355 C2353 1.390 1_545 S
C2355 C2356 1.387 . S
C2355 H2358 0.950 . S
C2356 C2355 1.387 . S
C2356 C2359 1.387 1_554 S
H2357 C2353 0.950 . S
H2358 C2355 0.950 . S
C2359 C2350 1.394 . S
C2359 H2352 0.950 . S
C2359 C2356 1.387 1_556 S
C2360 C2361 1.387 . S
C2360 H2364 0.950 . S
C2360 C2369 1.390 . S
C2361 C2360 1.387 . S
C2361 C2363 1.387 . S
H2362 C2369 0.950 . S
C2363 C2361 1.387 . S
C2363 C2365 1.390 . S
C2363 H2367 0.950 . S
H2364 C2360 0.950 . S
C2365 C2363 1.390 . S
C2365 C2366 1.387 . S
C2365 H2368 0.950 . S
C2366 C2365 1.387 . S
C2366 C2369 1.387 . S
H2367 C2363 0.950 . S
H2368 C2365 0.950 . S
C2369 C2360 1.390 . S
C2369 H2362 0.950 . S
C2369 C2366 1.387 . S
C2370 C2371 1.387 . S
C2370 H2374 0.950 1_554 S
C2370 C2379 1.390 . S
C2371 C2370 1.387 . S
C2371 C2373 1.387 . S
H2372 C2379 0.931 1_556 S
C2373 C2371 1.387 . S
C2373 C2375 1.390 . S
C2373 H2377 0.950 . S
H2374 C2370 0.950 1_556 S
C2375 C2373 1.390 . S
C2375 C2376 1.387 . S
C2375 H2378 0.950 . S
C2376 C2375 1.387 . S
C2376 C2379 1.387 . S
H2377 C2373 0.950 . S
H2378 C2375 0.950 . S
C2379 C2370 1.390 . S
C2379 H2372 0.931 1_554 S
C2379 C2376 1.387 . S
C2380 C2381 1.387 . S
C2380 H2384 0.950 . S
C2380 C2389 1.390 . S
C2381 C2380 1.387 . S
C2381 C2383 1.387 . S
H2382 C2389 0.950 . S
C2383 C2381 1.387 . S
C2383 C2385 1.390 . S
C2383 H2387 0.950 . S
H2384 C2380 0.950 . S
C2385 C2383 1.390 . S
C2385 C2386 1.387 . S
C2385 H2388 0.950 . S
C2386 C2385 1.387 . S
C2386 C2389 1.387 . S
H2387 C2383 0.950 . S
H2388 C2385 0.950 . S
C2389 C2380 1.390 . S
C2389 H2382 0.950 . S
C2389 C2386 1.387 . S
C2390 C2391 1.387 . S
C2390 H2394 0.950 . S
C2390 C2399 1.390 . S
C2391 C2390 1.387 . S
C2391 C2393 1.387 . S
H2392 C2399 0.950 . S
C2393 C2391 1.387 . S
C2393 C2395 1.390 . S
C2393 H2397 0.950 . S
H2394 C2390 0.950 . S
C2395 C2393 1.390 . S
C2395 C2396 1.387 . S
C2395 H2398 0.950 . S
C2396 C2395 1.387 . S
C2396 C2399 1.387 . S
H2397 C2393 0.950 . S
H2398 C2395 0.950 . S
C2399 C2390 1.390 . S
C2399 H2392 0.950 . S
C2399 C2396 1.387 . S
C2400 C2401 1.387 . S
C2400 H2404 0.950 . S
C2400 C2409 1.390 . S
C2401 C2400 1.387 . S
C2401 C2403 1.387 . S
H2402 C2409 0.950 . S
C2403 C2401 1.387 . S
C2403 C2405 1.390 . S
C2403 H2407 0.950 . S
H2404 C2400 0.950 . S
C2405 C2403 1.390 . S
C2405 C2406 1.387 . S
C2405 H2408 0.950 . S
C2406 C2405 1.387 . S
C2406 C2409 1.387 . S
H2407 C2403 0.950 . S
H2408 C2405 0.950 . S
C2409 C2400 1.390 . S
C2409 H2402 0.950 . S
C2409 C2406 1.387 . S
C2410 C2411 1.387 . S
C2410 H2414 0.950 . S
C2410 C2419 1.390 . S
C2411 C2410 1.387 . S
C2411 C2413 1.387 . S
H2412 C2419 0.950 . S
C2413 C2411 1.387 . S
C2413 C2415 1.390 . S
C2413 H2417 0.950 . S
H2414 C2410 0.950 . S
C2415 C2413 1.390 . S
C2415 C2416 1.387 . S
C2415 H2418 0.950 . S
C2416 C2415 1.387 . S
C2416 C2419 1.387 . S
H2417 C2413 0.950 . S
H2418 C2415 0.950 . S
C2419 C2410 1.390 . S
C2419 H2412 0.950 . S
C2419 C2416 1.387 . S
C2420 C2421 1.387 . S
C2420 H2424 0.950 . S
C2420 C2429 1.390 . S
C2421 C2420 1.387 . S
C2421 C2423 1.387 . S
H2422 C2429 0.950 . S
C2423 C2421 1.387 . S
C2423 C2425 1.390 . S
C2423 H2427 0.950 . S
H2424 C2420 0.950 . S
C2425 C2423 1.390 . S
C2425 C2426 1.387 . S
C2425 H2428 0.950 . S
C2426 C2425 1.387 . S
C2426 C2429 1.387 . S
H2427 C2423 0.950 . S
H2428 C2425 0.950 . S
C2429 C2420 1.390 . S
C2429 H2422 0.950 . S
C2429 C2426 1.387 . S
C2430 C2431 1.387 . S
C2430 H2434 0.950 . S
C2430 C2439 1.390 . S
C2431 C2430 1.387 . S
C2431 C2433 1.387 . S
H2432 C2439 0.950 . S
C2433 C2431 1.387 . S
C2433 C2435 1.390 . S
C2433 H2437 0.950 . S
H2434 C2430 0.950 . S
C2435 C2433 1.390 . S
C2435 C2436 1.387 . S
C2435 H2438 0.950 . S
C2436 C2435 1.387 . S
C2436 C2439 1.387 . S
H2437 C2433 0.950 . S
H2438 C2435 0.950 . S
C2439 C2430 1.390 . S
C2439 H2432 0.950 . S
C2439 C2436 1.387 . S
C2440 C2441 1.387 . S
C2440 H2444 0.950 . S
C2440 C2449 1.390 . S
C2441 C2440 1.387 . S
C2441 C2443 1.387 . S
H2442 C2449 0.950 . S
C2443 C2441 1.387 . S
C2443 C2445 1.390 . S
C2443 H2447 0.950 . S
H2444 C2440 0.950 . S
C2445 C2443 1.390 . S
C2445 C2446 1.387 . S
C2445 H2448 0.950 . S
C2446 C2445 1.387 . S
C2446 C2449 1.387 . S
H2447 C2443 0.950 . S
H2448 C2445 0.950 . S
C2449 C2440 1.390 . S
C2449 H2442 0.950 . S
C2449 C2446 1.387 . S
C2450 C2451 1.387 . S
C2450 H2454 0.950 . S
C2450 C2459 1.390 . S
C2451 C2450 1.387 . S
C2451 C2453 1.387 . S
H2452 C2459 0.950 . S
C2453 C2451 1.387 . S
C2453 C2455 1.390 . S
C2453 H2457 0.950 . S
H2454 C2450 0.950 . S
C2455 C2453 1.390 . S
C2455 C2456 1.387 . S
C2455 H2458 0.950 . S
C2456 C2455 1.387 . S
C2456 C2459 1.387 . S
H2457 C2453 0.950 . S
H2458 C2455 0.950 . S
C2459 C2450 1.390 . S
C2459 H2452 0.950 . S
C2459 C2456 1.387 . S
C2460 C2461 1.387 . S
C2460 H2464 0.950 . S
C2460 C2469 1.390 . S
C2461 C2460 1.387 . S
C2461 C2463 1.387 . S
H2462 C2469 0.950 . S
C2463 C2461 1.387 . S
C2463 C2465 1.390 . S
C2463 H2467 0.950 . S
H2464 C2460 0.950 . S
C2465 C2463 1.390 . S
C2465 C2466 1.387 . S
C2465 H2468 0.950 . S
C2466 C2465 1.387 . S
C2466 C2469 1.387 . S
H2467 C2463 0.950 . S
H2468 C2465 0.950 . S
C2469 C2460 1.390 . S
C2469 H2462 0.950 . S
C2469 C2466 1.387 . S
C2470 C2471 1.387 . S
C2470 H2474 0.950 . S
C2470 C2479 1.390 . S
C2471 C2470 1.387 . S
C2471 C2473 1.387 . S
H2472 C2479 0.950 . S
C2473 C2471 1.387 . S
C2473 C2475 1.390 . S
C2473 H2477 0.950 . S
H2474 C2470 0.950 . S
C2475 C2473 1.390 . S
C2475 C2476 1.387 . S
C2475 H2478 0.950 . S
C2476 C2475 1.387 . S
C2476 C2479 1.387 . S
H2477 C2473 0.950 . S
H2478 C2475 0.950 . S
C2479 C2470 1.390 . S
C2479 H2472 0.950 . S
C2479 C2476 1.387 . S
C2480 C2481 1.387 . S
C2480 H2484 0.950 . S
C2480 C2489 1.390 . S
C2481 C2480 1.387 . S
C2481 C2483 1.387 . S
H2482 C2489 0.950 . S
C2483 C2481 1.387 . S
C2483 C2485 1.390 . S
C2483 H2487 0.950 . S
H2484 C2480 0.950 . S
C2485 C2483 1.390 . S
C2485 C2486 1.387 . S
C2485 H2488 0.950 . S
C2486 C2485 1.387 . S
C2486 C2489 1.387 . S
H2487 C2483 0.950 . S
H2488 C2485 0.950 . S
C2489 C2480 1.390 . S
C2489 H2482 0.950 . S
C2489 C2486 1.387 . S
C2490 C2491 1.387 . S
C2490 H2494 0.950 . S
C2490 C2499 1.390 . S
C2491 C2490 1.387 . S
C2491 C2493 1.387 . S
H2492 C2499 0.950 . S
C2493 C2491 1.387 . S
C2493 C2495 1.390 . S
C2493 H2497 0.950 . S
H2494 C2490 0.950 . S
C2495 C2493 1.390 . S
C2495 C2496 1.387 . S
C2495 H2498 0.950 . S
C2496 C2495 1.387 . S
C2496 C2499 1.387 . S
H2497 C2493 0.950 . S
H2498 C2495 0.950 . S
C2499 C2490 1.390 . S
C2499 H2492 0.950 . S
C2499 C2496 1.387 . S
C2500 C2501 1.387 . S
C2500 H2504 0.950 . S
C2500 C2509 1.390 . S
C2501 C2500 1.387 . S
C2501 C2503 1.387 . S
H2502 C2509 0.950 . S
C2503 C2501 1.387 . S
C2503 C2505 1.390 . S
C2503 H2507 0.950 . S
H2504 C2500 0.950 . S
C2505 C2503 1.390 . S
C2505 C2506 1.387 . S
C2505 H2508 0.950 . S
C2506 C2505 1.387 . S
C2506 C2509 1.387 . S
H2507 C2503 0.950 . S
H2508 C2505 0.950 . S
C2509 C2500 1.390 . S
C2509 H2502 0.950 . S
C2509 C2506 1.387 . S
C2510 C2511 1.387 . S
C2510 H2514 0.950 . S
C2510 C2519 1.390 . S
C2511 C2510 1.387 . S
C2511 C2513 1.387 . S
H2512 C2519 0.950 . S
C2513 C2511 1.387 . S
C2513 C2515 1.390 . S
C2513 H2517 0.950 . S
H2514 C2510 0.950 . S
C2515 C2513 1.390 . S
C2515 C2516 1.387 . S
C2515 H2518 0.950 . S
C2516 C2515 1.387 . S
C2516 C2519 1.387 . S
H2517 C2513 0.950 . S
H2518 C2515 0.950 . S
C2519 C2510 1.390 . S
C2519 H2512 0.950 . S
C2519 C2516 1.387 . S
C2520 C2521 1.387 . S
C2520 H2524 0.950 . S
C2520 C2529 1.390 . S
C2521 C2520 1.387 . S
C2521 C2523 1.387 . S
H2522 C2529 0.950 . S
C2523 C2521 1.387 . S
C2523 C2525 1.390 . S
C2523 H2527 0.950 . S
H2524 C2520 0.950 . S
C2525 C2523 1.390 . S
C2525 C2526 1.387 . S
C2525 H2528 0.950 . S
C2526 C2525 1.387 . S
C2526 C2529 1.387 . S
H2527 C2523 0.950 . S
H2528 C2525 0.950 . S
C2529 C2520 1.390 . S
C2529 H2522 0.950 . S
C2529 C2526 1.387 . S
C2530 C2531 1.387 . S
C2530 H2534 0.950 . S
C2530 C2539 1.390 . S
C2531 C2530 1.387 . S
C2531 C2533 1.387 . S
H2532 C2539 0.950 . S
C2533 C2531 1.387 . S
C2533 C2535 1.390 . S
C2533 H2537 0.950 . S
H2534 C2530 0.950 . S
C2535 C2533 1.390 . S
C2535 C2536 1.387 . S
C2535 H2538 0.950 . S
C2536 C2535 1.387 . S
C2536 C2539 1.387 . S
H2537 C2533 0.950 . S
H2538 C2535 0.950 . S
C2539 C2530 1.390 . S
C2539 H2532 0.950 . S
C2539 C2536 1.387 . S
C2540 C2541 1.387 . S
C2540 H2544 0.950 . S
C2540 C2549 1.390 . S
C2541 C2540 1.387 . S
C2541 C2543 1.387 . S
H2542 C2549 0.950 . S
C2543 C2541 1.387 . S
C2543 C2545 1.390 . S
C2543 H2547 0.950 . S
H2544 C2540 0.950 . S
C2545 C2543 1.390 . S
C2545 C2546 1.387 . S
C2545 H2548 0.950 . S
C2546 C2545 1.387 . S
C2546 C2549 1.387 . S
H2547 C2543 0.950 . S
H2548 C2545 0.950 . S
C2549 C2540 1.390 . S
C2549 H2542 0.950 . S
C2549 C2546 1.387 . S
C2550 C2551 1.387 . S
C2550 H2554 0.950 . S
C2550 C2559 1.390 . S
C2551 C2550 1.387 . S
C2551 C2553 1.387 . S
H2552 C2559 0.950 . S
C2553 C2551 1.387 . S
C2553 C2555 1.390 . S
C2553 H2557 0.950 . S
H2554 C2550 0.950 . S
C2555 C2553 1.390 . S
C2555 C2556 1.387 . S
C2555 H2558 0.950 . S
C2556 C2555 1.387 . S
C2556 C2559 1.387 . S
H2557 C2553 0.950 . S
H2558 C2555 0.950 . S
C2559 C2550 1.390 . S
C2559 H2552 0.950 . S
C2559 C2556 1.387 . S
C2560 C2561 1.387 . S
C2560 H2564 0.950 . S
C2560 C2569 1.390 . S
C2561 C2560 1.387 . S
C2561 C2563 1.387 . S
H2562 C2569 0.950 . S
C2563 C2561 1.387 . S
C2563 C2565 1.390 . S
C2563 H2567 0.950 . S
H2564 C2560 0.950 . S
C2565 C2563 1.390 . S
C2565 C2566 1.387 . S
C2565 H2568 0.950 . S
C2566 C2565 1.387 . S
C2566 C2569 1.387 . S
H2567 C2563 0.950 . S
H2568 C2565 0.950 . S
C2569 C2560 1.390 . S
C2569 H2562 0.950 . S
C2569 C2566 1.387 . S
C2570 C2571 1.387 . S
C2570 H2574 0.950 . S
C2570 C2579 1.390 . S
C2571 C2570 1.387 . S
C2571 C2573 1.387 . S
H2572 C2579 0.950 . S
C2573 C2571 1.387 . S
C2573 C2575 1.390 . S
C2573 H2577 0.950 . S
H2574 C2570 0.950 . S
C2575 C2573 1.390 . S
C2575 C2576 1.387 . S
C2575 H2578 0.950 1_565 S
C2576 C2575 1.387 . S
C2576 C2579 1.387 . S
H2577 C2573 0.950 . S
H2578 C2575 0.950 1_545 S
C2579 C2570 1.390 . S
C2579 H2572 0.950 . S
C2579 C2576 1.387 . S
C2580 C2581 1.387 . S
C2580 H2584 0.950 . S
C2580 C2589 1.390 . S
C2581 C2580 1.387 . S
C2581 C2583 1.387 . S
H2582 C2589 0.950 . S
C2583 C2581 1.387 . S
C2583 C2585 1.390 . S
C2583 H2587 0.950 . S
H2584 C2580 0.950 . S
C2585 C2583 1.390 . S
C2585 C2586 1.387 . S
C2585 H2588 0.950 . S
C2586 C2585 1.387 . S
C2586 C2589 1.387 . S
H2587 C2583 0.950 . S
H2588 C2585 0.950 . S
C2589 C2580 1.390 . S
C2589 H2582 0.950 . S
C2589 C2586 1.387 . S
C2590 C2591 1.387 . S
C2590 H2594 0.950 . S
C2590 C2599 1.390 . S
C2591 C2590 1.387 . S
C2591 C2593 1.387 . S
H2592 C2599 0.950 . S
C2593 C2591 1.387 . S
C2593 C2595 1.390 . S
C2593 H2597 0.950 . S
H2594 C2590 0.950 . S
C2595 C2593 1.390 . S
C2595 C2596 1.387 . S
C2595 H2598 0.950 . S
C2596 C2595 1.387 . S
C2596 C2599 1.387 . S
H2597 C2593 0.950 . S
H2598 C2595 0.950 . S
C2599 C2590 1.390 . S
C2599 H2592 0.950 . S
C2599 C2596 1.387 . S
C2600 C2601 1.387 . S
C2600 H2604 0.950 . S
C2600 C2609 1.390 . S
C2601 C2600 1.387 . S
C2601 C2603 1.387 . S
H2602 C2609 0.950 . S
C2603 C2601 1.387 . S
C2603 C2605 1.390 . S
C2603 H2607 0.950 . S
H2604 C2600 0.950 . S
C2605 C2603 1.390 . S
C2605 C2606 1.387 . S
C2605 H2608 0.950 . S
C2606 C2605 1.387 . S
C2606 C2609 1.387 . S
H2607 C2603 0.950 . S
H2608 C2605 0.950 . S
C2609 C2600 1.390 . S
C2609 H2602 0.950 . S
C2609 C2606 1.387 . S
C2610 C2611 1.387 . S
C2610 H2614 0.950 . S
C2610 C2619 1.390 . S
C2611 C2610 1.387 . S
C2611 C2613 1.387 . S
H2612 C2619 0.950 . S
C2613 C2611 1.387 . S
C2613 C2615 1.390 . S
C2613 H2617 0.950 . S
H2614 C2610 0.950 . S
C2615 C2613 1.390 . S
C2615 C2616 1.387 . S
C2615 H2618 0.950 1_554 S
C2616 C2615 1.387 . S
C2616 C2619 1.387 . S
H2617 C2613 0.950 . S
H2618 C2615 0.950 1_556 S
C2619 C2610 1.390 . S
C2619 H2612 0.950 . S
C2619 C2616 1.387 . S
C2620 C2621 1.387 . S
C2620 H2624 0.950 . S
C2620 C2629 1.390 . S
C2621 C2620 1.387 . S
C2621 C2623 1.387 . S
H2622 C2629 0.950 . S
C2623 C2621 1.387 . S
C2623 C2625 1.390 . S
C2623 H2627 0.950 . S
H2624 C2620 0.950 . S
C2625 C2623 1.390 . S
C2625 C2626 1.387 . S
C2625 H2628 0.950 . S
C2626 C2625 1.387 . S
C2626 C2629 1.387 . S
H2627 C2623 0.950 . S
H2628 C2625 0.950 . S
C2629 C2620 1.390 . S
C2629 H2622 0.950 . S
C2629 C2626 1.387 . S
C2630 C2631 1.387 . S
C2630 H2634 0.950 . S
C2630 C2639 1.390 . S
C2631 C2630 1.387 . S
C2631 C2633 1.387 . S
H2632 C2639 0.950 . S
C2633 C2631 1.387 . S
C2633 C2635 1.390 . S
C2633 H2637 0.950 . S
H2634 C2630 0.950 . S
C2635 C2633 1.390 . S
C2635 C2636 1.387 . S
C2635 H2638 0.950 . S
C2636 C2635 1.387 . S
C2636 C2639 1.387 . S
H2637 C2633 0.950 . S
H2638 C2635 0.950 . S
C2639 C2630 1.390 . S
C2639 H2632 0.950 . S
C2639 C2636 1.387 . S
C1681 C111 2.315 1_455 S
C1686 C392 2.302 . S
C1691 C64 1.924 . S
C1696 C494 2.023 . S
C1701 C77 1.909 . S
C1706 C560 1.920 . S
C1716 C646 1.195 . S
C1711 C95 1.276 . S
C1721 C25 1.283 . S
C1726 C730 1.198 . S
C1736 C812 1.989 . S
C1731 C36 1.845 . S
C1746 C914 2.004 . S
C1741 C50 1.911 . S
C1751 C11 2.212 . S
C1756 C980 2.236 . S
C1766 C410 1.781 . S
C1761 C237 1.817 . S
C1771 C245 0.945 . S
C1776 C478 0.909 . S
C1786 C578 1.147 . S
C1781 C279 1.056 . S
C1796 C644 1.608 . S
C1791 C175 1.611 . S
C1801 C231 1.582 . S
C1806 C728 1.579 . S
C1816 C830 1.151 . S
C1811 C251 1.057 . S
C1826 C898 0.937 . S
C1821 C273 0.971 . S
C1836 C998 1.788 . S
C1831 C181 1.822 . S
C1846 C394 1.168 . S
C1841 C165 1.161 1_554 S
C1851 C288 1.630 . S
C1856 C1082 1.703 . S
C1866 C1150 1.346 . S
C1861 C333 1.402 . S
C1876 C1232 0.824 . S
C1871 C316 0.807 . S
C1881 C123 1.147 . S
C1886 C982 1.157 . S
C1891 C137 1.382 . S
C1896 C562 1.333 . S
C1901 C330 1.629 . S
C1906 C1334 1.702 . S
C1916 C1400 0.837 . S
C1911 C302 0.816 . S
C1926 C403 2.407 . S
C1921 C63 2.390 . S
C1936 C1407 2.032 . S
C1931 C106 2.034 . S
C1941 C97 1.936 . S
C1946 C571 1.985 . S
C1951 C81 1.308 . S
C1956 C1329 1.227 . S
C1966 C741 1.271 . S
C1961 C13 1.281 . S
C1971 C55 1.930 . S
C1976 C1159 1.985 . S
C1986 C903 1.942 1_556 S
C1981 C35 1.897 . S
C1996 C1495 2.401 . S
C1991 C21 2.384 . S
C2006 C399 1.890 . S
C2001 C147 1.957 . S
C2016 C1413 0.903 . S
C2011 C321 0.931 . S
C2021 C119 1.173 . S
C2026 C567 1.174 . S
C2031 C293 1.630 . S
C2036 C1327 1.692 . S
C2041 C153 1.630 . S
C2046 C739 1.696 . S
C2056 C1155 1.192 . S
C2051 C315 1.183 . S
C2061 C125 0.940 1_545 S
C2066 C909 0.909 . S
C2071 C287 1.948 . S
C2076 C1491 1.877 . S
C2081 C193 1.136 . S
C2086 C405 1.202 . S
C2091 C176 1.699 . S
C2096 C1071 1.703 . S
C2101 C263 1.347 . S
C2106 C825 1.343 . S
C2111 C246 0.941 . S
C2116 C1243 0.986 . S
C2126 C1497 1.168 . S
C2121 C277 1.116 . S
C2131 C221 1.342 . S
C2136 C573 1.321 . S
C2146 C651 1.719 . S
C2141 C260 1.717 . S
C2156 C487 0.972 . S
C2151 C204 0.934 . S
C2161 C83 2.316 . S
C2166 C1568 2.302 . S
C2176 C1418 2.022 . S
C2171 C92 1.925 . S
C2181 C105 1.913 . S
C2186 C1652 1.920 . S
C2191 C67 1.276 . S
C2196 C1318 1.195 . S
C2201 C53 1.283 . S
C2206 C1066 1.198 . S
C2216 C1148 1.989 . S
C2211 C8 1.841 1_655 S
C2226 C1250 2.004 . S
C2221 C22 1.908 . S
C2236 C1484 2.236 . S
C2231 C39 2.212 . S
C2246 C1586 1.782 . S
C2241 C265 1.815 . S
C2251 C189 0.947 . S
C2256 C1402 0.910 . S
C2266 C1670 1.148 . S
C2261 C209 1.062 . S
C2276 C1316 1.608 . S
C2271 C217 1.611 . S
C2286 C1064 1.579 . S
C2281 C259 1.582 . S
C2291 C195 1.061 . S
C2296 C1166 1.148 . S
C2306 C1234 0.937 . S
C2301 C203 0.971 . S
C2311 C223 1.823 . S
C2316 C1502 1.788 . S
C2326 C1570 1.168 . S
C2321 C319 1.162 . S
C2331 C134 1.630 . S
C2336 C746 1.704 . S
C2346 C814 1.349 . S
C2341 C151 1.402 1_565 S
C2356 C896 0.824 . S
C2351 C162 0.808 . S
C2366 C1486 1.156 . S
C2361 C305 1.149 . S
C2371 C291 1.382 . S
C2376 C1654 1.332 . S
C2386 C662 1.702 . S
C2381 C148 1.628 . S
C2396 C476 0.839 . S
C2391 C120 0.821 . S
C2401 C91 2.388 . S
C2406 C1579 2.406 . S
C2416 C483 2.032 . S
C2411 C78 2.033 . S
C2421 C69 1.934 . S
C2426 C1663 1.985 . S
C2431 C109 1.308 . S
C2436 C657 1.227 . S
C2441 C41 1.282 . S
C2446 C1077 1.270 . S
C2456 C823 1.985 . S
C2451 C27 1.931 . S
C2461 C7 1.896 . S
C2466 C1239 1.942 . S
C2471 C49 2.384 . S
C2476 C991 2.401 . S
C2486 C1575 1.890 . S
C2481 C329 1.957 . S
C2491 C167 0.928 . S
C2496 C489 0.905 . S
C2506 C1659 1.174 1_655 S
C2501 C301 1.169 . S
C2511 C139 1.632 . S
C2516 C655 1.692 . S
C2521 C335 1.630 . S
C2526 C1075 1.696 . S
C2536 C819 1.192 . S
C2531 C161 1.187 . S
C2541 C307 0.940 . S
C2546 C1245 0.909 . S
C2556 C987 1.877 . S
C2551 C133 1.948 . S
C2566 C1581 1.202 . S
C2561 C249 1.135 . S
C2576 C735 1.703 1_565 S
C2571 C218 1.699 . S
C2581 C235 1.345 . S
C2586 C1161 1.345 . S
C2596 C907 0.987 . S
C2591 C190 0.946 . S
C2601 C207 1.116 . S
C2606 C993 1.167 . S
C2611 C179 1.343 . S
C2616 C1665 1.321 . S
C2626 C1323 1.718 . S
C2621 C232 1.715 . S
C2636 C1411 0.972 . S
C2631 C274 0.934 . S
