# Generated by pormake.
# Topology ssa, (4,4)-cn, num edge types: 1
# Building blocks:
#     Node 0, Type 0, BuildingBlock: NAWXER_clean_sbu_0, # of connection points: 4
#     Node 1, Type 0, BuildingBlock: NAWXER_clean_sbu_0, # of connection points: 4
#     Node 2, Type 0, BuildingBlock: NAWXER_clean_sbu_0, # of connection points: 4
#     Node 3, Type 0, BuildingBlock: NAWXER_clean_sbu_0, # of connection points: 4
#     Node 4, Type 0, BuildingBlock: NAWXER_clean_sbu_0, # of connection points: 4
#     Node 5, Type 0, BuildingBlock: NAWXER_clean_sbu_0, # of connection points: 4
#     Node 6, Type 1, BuildingBlock: MUDLON_clean_sbu_0, # of connection points: 4
#     Node 7, Type 1, BuildingBlock: MUDLON_clean_sbu_0, # of connection points: 4
#     Node 8, Type 1, BuildingBlock: MUDLON_clean_sbu_0, # of connection points: 4
#     Node 9, Type 1, BuildingBlock: MUDLON_clean_sbu_0, # of connection points: 4
#     Node 10, Type 1, BuildingBlock: MUDLON_clean_sbu_0, # of connection points: 4
#     Node 11, Type 1, BuildingBlock: MUDLON_clean_sbu_0, # of connection points: 4
#     Edge 12, Type (0, 1), BuildingBlock: ZUJKAS_clean_linker_0, # of connection points: 2
#     Edge 13, Type (0, 1), BuildingBlock: ZUJKAS_clean_linker_0, # of connection points: 2
#     Edge 14, Type (0, 1), BuildingBlock: ZUJKAS_clean_linker_0, # of connection points: 2
#     Edge 15, Type (0, 1), BuildingBlock: ZUJKAS_clean_linker_0, # of connection points: 2
#     Edge 16, Type (0, 1), BuildingBlock: ZUJKAS_clean_linker_0, # of connection points: 2
#     Edge 17, Type (0, 1), BuildingBlock: ZUJKAS_clean_linker_0, # of connection points: 2
#     Edge 18, Type (0, 1), BuildingBlock: ZUJKAS_clean_linker_0, # of connection points: 2
#     Edge 19, Type (0, 1), BuildingBlock: ZUJKAS_clean_linker_0, # of connection points: 2
#     Edge 20, Type (0, 1), BuildingBlock: ZUJKAS_clean_linker_0, # of connection points: 2
#     Edge 21, Type (0, 1), BuildingBlock: ZUJKAS_clean_linker_0, # of connection points: 2
#     Edge 22, Type (0, 1), BuildingBlock: ZUJKAS_clean_linker_0, # of connection points: 2
#     Edge 23, Type (0, 1), BuildingBlock: ZUJKAS_clean_linker_0, # of connection points: 2
#     Edge 24, Type (0, 1), BuildingBlock: ZUJKAS_clean_linker_0, # of connection points: 2
#     Edge 25, Type (0, 1), BuildingBlock: ZUJKAS_clean_linker_0, # of connection points: 2
#     Edge 26, Type (0, 1), BuildingBlock: ZUJKAS_clean_linker_0, # of connection points: 2
#     Edge 27, Type (0, 1), BuildingBlock: ZUJKAS_clean_linker_0, # of connection points: 2
#     Edge 28, Type (0, 1), BuildingBlock: ZUJKAS_clean_linker_0, # of connection points: 2
#     Edge 29, Type (0, 1), BuildingBlock: ZUJKAS_clean_linker_0, # of connection points: 2
#     Edge 30, Type (0, 1), BuildingBlock: ZUJKAS_clean_linker_0, # of connection points: 2
#     Edge 31, Type (0, 1), BuildingBlock: ZUJKAS_clean_linker_0, # of connection points: 2
#     Edge 32, Type (0, 1), BuildingBlock: ZUJKAS_clean_linker_0, # of connection points: 2
#     Edge 33, Type (0, 1), BuildingBlock: ZUJKAS_clean_linker_0, # of connection points: 2
#     Edge 34, Type (0, 1), BuildingBlock: ZUJKAS_clean_linker_0, # of connection points: 2
#     Edge 35, Type (0, 1), BuildingBlock: ZUJKAS_clean_linker_0, # of connection points: 2
# Relax obj value: 0.034
# Max RMSD: 0.048
# Mean RMSD: 0.037
data_MOF--net-ssa--node1-NAWXER_clean_sbu_0--node2-MUDLON_clean_sbu_0--edge1-ZUJKAS_clean_linker_0
_symmetry_space_group_name_H-M    P1
_symmetry_Int_Tables_number       1
_symmetry_cell_setting            triclinic
loop_
_symmetry_equiv_pos_as_xyz
'x, y, z'
_cell_length_a     55.208445
_cell_length_b     55.087998
_cell_length_c     51.057944
_cell_angle_alpha  90.04579
_cell_angle_beta   89.763447
_cell_angle_gamma 120.05753
loop_
_atom_site_label
_atom_site_type_symbol
_atom_site_fract_x
_atom_site_fract_y
_atom_site_fract_z
_atom_type_partial_charge
C0 C 0.05679 0.53575 0.0312 0.0
C1 C 0.01685 0.45445 0.97337 0.0
O2 O 0.03247 0.51668 0.0391 0.0
Zn3 Zn 1.00033 0.47552 0.02582 0.0
O4 O 0.06663 0.53212 0.00998 0.0
Zn5 Zn 0.03632 0.4952 1.00217 0.0
O6 O 1.0028 0.50234 0.99044 0.0
O7 O 0.9684 0.47979 0.01877 0.0
O8 O 0.04051 0.47673 0.97186 0.0
O9 O 1.00029 0.45144 0.99239 0.0
O10 O 0.99748 0.45196 0.05489 0.0
O11 O 0.03834 0.47107 0.0347 0.0
C12 C 0.97794 0.49492 0.99839 0.0
C13 C 0.0221 0.45575 0.05325 0.0
C14 C 0.46436 0.99778 0.563 0.0
C15 C 0.50087 0.94446 0.51764 0.0
O16 O 0.46012 0.97345 0.56844 0.0
Zn17 Zn 0.48359 0.97132 0.54136 0.0
O18 O 0.48041 0.01134 0.54368 0.0
Zn19 Zn 0.50525 0.00499 0.51481 0.0
O20 O 0.48865 0.0065 0.48207 0.0
O21 O 0.4616 0.96886 0.50567 0.0
O22 O 0.50965 0.9689 0.5078 0.0
O23 O 0.48571 0.93731 0.53817 0.0
O24 O 0.52505 1.00248 0.55359 0.0
O25 O 0.54288 0.03436 0.52236 0.0
C26 C 0.466 0.98323 0.48462 0.0
C27 C 0.54537 0.02546 0.54455 0.0
C28 C 0.46976 0.45486 0.99294 0.0
C29 C 0.50747 0.52966 0.05837 0.0
O30 O 0.46752 0.47598 0.98576 0.0
Zn31 Zn 0.4785 0.5166 1.00124 0.0
O32 O 0.48065 0.45553 0.01497 0.0
Zn33 Zn 0.48954 0.49271 0.02568 0.0
O34 O 0.44986 0.48952 0.03448 0.0
O35 O 0.44314 0.51564 0.00603 0.0
O36 O 0.50754 0.50661 0.05916 0.0
O37 O 0.4981 0.5358 0.03796 0.0
O38 O 0.50478 0.54206 0.97553 0.0
O39 O 0.52155 0.51986 0.99839 0.0
C40 C 0.43507 0.4999 0.02617 0.0
C41 C 0.52469 0.53747 0.9804 0.0
C42 C 0.01846 0.60847 0.48423 0.0
C43 C 0.9732 0.52529 0.53998 0.0
O44 O 0.03363 0.61018 0.50392 0.0
Zn45 Zn 0.03097 0.58435 0.53695 0.0
O46 O 0.99453 0.58674 0.48145 0.0
Zn47 Zn 0.9961 0.56684 0.51184 0.0
O48 O 0.99398 0.59127 0.54392 0.0
O49 O 0.03281 0.6069 0.56671 0.0
O50 O 0.96431 0.53029 0.51893 0.0
O51 O 0.99757 0.54331 0.54845 0.0
O52 O 0.06244 0.57892 0.53041 0.0
O53 O 0.02923 0.55873 0.50082 0.0
C54 C 0.00919 0.60516 0.56345 0.0
C55 C 0.05348 0.56488 0.50939 0.0
C56 C 0.55366 0.99053 0.04476 0.0
C57 C 0.51771 0.02998 0.97999 0.0
O58 O 0.55523 0.01341 0.05265 0.0
Zn59 Zn 0.54441 0.04337 0.03809 0.0
O60 O 0.54378 0.98115 0.02221 0.0
Zn61 Zn 0.53503 0.00973 0.01204 0.0
O62 O 0.57488 0.04685 0.00582 0.0
O63 O 0.57984 0.07834 0.03523 0.0
O64 O 0.51844 0.00732 0.97804 0.0
O65 O 0.52609 0.04438 1.00116 0.0
O66 O 0.5166 0.0404 0.06323 0.0
O67 O 0.50167 1.00294 0.03825 0.0
C68 C 0.58915 0.07163 0.01534 0.0
C69 C 0.49725 0.01607 0.05673 0.0
C70 C 0.56377 0.51757 0.54857 0.0
C71 C 0.48334 0.48618 0.49058 0.0
O72 O 0.54326 0.52177 0.55137 0.0
Zn73 Zn 0.52429 0.50366 0.51916 0.0
O74 O 0.56604 0.5061 0.52753 0.0
Zn75 Zn 0.5429 0.48878 0.49189 0.0
O76 O 0.56686 0.51351 0.46435 0.0
O77 O 0.54954 0.53354 0.4897 0.0
O78 O 0.50221 0.48159 0.48102 0.0
O79 O 0.48737 0.49819 0.51269 0.0
O80 O 0.51618 0.46147 0.52569 0.0
O81 O 0.53719 0.45119 0.49431 0.0
C82 C 0.56451 0.53471 0.46994 0.0
C83 C 0.52257 0.44422 0.5152 0.0
Mg84 Mg 0.23567 0.47772 0.29098 0.0
C85 C 0.18741 0.46692 0.26119 0.0
O86 O 0.20263 0.49419 0.26446 0.0
C87 C 0.27322 0.45613 0.3114 0.0
O88 O 0.2846 0.46427 0.2881 0.0
C89 C 0.2078 0.48841 0.33332 0.0
O90 O 0.19788 0.46119 0.33237 0.0
O91 O 0.2268 0.50387 0.31695 0.0
O92 O 0.19568 0.45144 0.27176 0.0
O93 O 0.26474 0.49721 0.25809 0.0
C94 C 0.26042 0.47949 0.24005 0.0
O95 O 0.24046 0.45339 0.24359 0.0
O96 O 0.25135 0.45731 0.31698 0.0
Mg97 Mg 0.79551 0.25363 0.75651 0.0
C98 C 0.74743 0.20668 0.73031 0.0
O99 O 0.736 0.21764 0.74531 0.0
C100 C 0.85843 0.2809 0.76726 0.0
O101 O 0.86057 0.29489 0.74575 0.0
C102 C 0.7696 0.22856 0.80633 0.0
O103 O 0.78554 0.21802 0.79996 0.0
O104 O 0.76865 0.2461 0.79073 0.0
O105 O 0.77381 0.2169 0.73133 0.0
O106 O 0.80544 0.28987 0.73181 0.0
C107 C 0.81472 0.28858 0.70927 0.0
O108 O 0.81586 0.26597 0.70325 0.0
O109 O 0.83451 0.26104 0.77427 0.0
Mg110 Mg 0.56686 0.77236 0.27837 0.0
C111 C 0.5599 0.80373 0.23574 0.0
O112 O 0.53438 0.7844 0.2424 0.0
C113 C 0.60156 0.76361 0.31838 0.0
O114 O 0.59178 0.7766 0.33276 0.0
C115 C 0.52673 0.77601 0.31977 0.0
O116 O 0.50617 0.75427 0.30802 0.0
O117 O 0.55157 0.78626 0.31111 0.0
O118 O 0.58035 0.80445 0.24791 0.0
O119 O 0.5365 0.73325 0.26005 0.0
C120 C 0.53358 0.71023 0.26856 0.0
O121 O 0.54528 0.71019 0.2909 0.0
O122 O 0.5976 0.76221 0.29375 0.0
Mg123 Mg 0.79903 0.59762 0.79463 0.0
C124 C 0.74389 0.55811 0.76739 0.0
O125 O 0.73327 0.55664 0.7908 0.0
C126 C 0.81257 0.55423 0.82015 0.0
O127 O 0.80159 0.53893 0.79909 0.0
C128 C 0.77364 0.61151 0.84039 0.0
O129 O 0.7871 0.60096 0.85275 0.0
O130 O 0.77671 0.61494 0.81572 0.0
O131 O 0.77032 0.57123 0.7644 0.0
O132 O 0.83678 0.62691 0.77338 0.0
C133 C 0.83503 0.63138 0.74921 0.0
O134 O 0.81013 0.62215 0.739 0.0
O135 O 0.81286 0.57734 0.8226 0.0
Mg136 Mg 0.23037 0.8061 0.24759 0.0
C137 C 0.22699 0.76431 0.20488 0.0
O138 O 0.25294 0.78349 0.19944 0.0
C139 C 0.28899 0.83201 0.26907 0.0
O140 O 0.29479 0.84379 0.2458 0.0
C141 C 0.17169 0.78047 0.26988 0.0
O142 O 0.16574 0.7665 0.24775 0.0
O143 O 0.19665 0.80013 0.27378 0.0
O144 O 0.21432 0.76833 0.22377 0.0
O145 O 0.24818 0.84364 0.22327 0.0
C146 C 0.2457 0.84288 0.1985 0.0
O147 O 0.22786 0.81913 0.18724 0.0
O148 O 0.26393 0.81317 0.27423 0.0
Mg149 Mg 0.45721 0.22224 0.76388 0.0
C150 C 0.42025 0.18241 0.72125 0.0
O151 O 0.42705 0.20603 0.70917 0.0
C152 C 0.44739 0.26578 0.78973 0.0
O153 O 0.46075 0.27915 0.76839 0.0
C154 C 0.4858 0.18962 0.77714 0.0
O155 O 0.47572 0.17901 0.75399 0.0
O156 O 0.4833 0.21004 0.78545 0.0
O157 O 0.42671 0.18319 0.74524 0.0
O158 O 0.47908 0.25299 0.73303 0.0
C159 C 0.48967 0.2487 0.71261 0.0
O160 O 0.48993 0.22507 0.71037 0.0
O161 O 0.4412 0.24034 0.79264 0.0
H162 H 0.07618 0.46896 0.06087 0.0
H163 H 0.0952 0.45621 0.09779 0.0
H164 H 0.01199 0.40475 0.12923 0.0
H165 H 0.99279 0.41836 0.09259 0.0
H166 H 0.04434 0.4372 0.16551 0.0
H167 H 0.10084 0.38999 0.11893 0.0
H168 H 0.11192 0.42336 0.10404 0.0
H169 H 0.07593 0.39572 0.10116 0.0
C170 C 0.0618 0.45447 0.07532 0.0
C171 C 0.03295 0.44473 0.07378 0.0
C172 C 0.07272 0.44694 0.09638 0.0
C173 C 0.05504 0.42902 0.11613 0.0
C174 C 0.02607 0.41843 0.11416 0.0
H175 H 0.15512 0.4129 0.24265 0.0
H176 H 0.11707 0.39642 0.21044 0.0
C177 C 0.01512 0.42623 0.0932 0.0
C178 C 0.06733 0.42442 0.1402 0.0
H179 H 0.1203 0.41412 0.16067 0.0
C180 C 0.06043 0.43142 0.16449 0.0
C181 C 0.08783 0.41616 0.13925 0.0
C182 C 0.09426 0.40557 0.11443 0.0
C183 C 0.0752 0.43286 0.18727 0.0
C184 C 0.09802 0.428 0.1856 0.0
C185 C 0.10321 0.41845 0.16189 0.0
C186 C 0.11892 0.43649 0.20694 0.0
C187 C 0.06677 0.44053 0.21273 0.0
C188 C 0.1326 0.46438 0.21558 0.0
C189 C 0.15405 0.47372 0.23387 0.0
C190 C 0.16272 0.45551 0.24378 0.0
C191 C 0.14879 0.42738 0.23549 0.0
C192 C 0.12712 0.41798 0.21707 0.0
H193 H 0.04389 0.4326 0.21325 0.0
H194 H 0.07237 0.43195 0.22987 0.0
H195 H 0.07757 0.46371 0.21449 0.0
H196 H 0.1273 0.47931 0.20753 0.0
H197 H 0.16434 0.49555 0.2397 0.0
H198 H 0.59279 0.07468 0.53149 0.0
H199 H 0.6328 0.10395 0.55958 0.0
H200 H 0.59497 0.04394 0.62233 0.0
H201 H 0.55528 0.01435 0.59431 0.0
H202 H 0.63101 0.12862 0.60415 0.0
H203 H 0.67464 0.05976 0.62555 0.0
H204 H 0.65004 0.05257 0.59938 0.0
H205 H 0.63788 0.04284 0.63258 0.0
C206 C 0.59319 0.06748 0.55113 0.0
C207 C 0.57078 0.04215 0.56063 0.0
C208 C 0.6161 0.08424 0.56716 0.0
C209 C 0.61714 0.07598 0.59296 0.0
C210 C 0.59505 0.05045 0.6023 0.0
H211 H 0.69063 0.17792 0.7274 0.0
H212 H 0.66151 0.14625 0.69291 0.0
C213 C 0.57221 0.03364 0.58628 0.0
C214 C 0.63982 0.09521 0.61093 0.0
H215 H 0.6876 0.0984 0.65526 0.0
C216 C 0.64364 0.12211 0.61503 0.0
C217 C 0.6566 0.08693 0.62492 0.0
C218 C 0.65481 0.05905 0.62019 0.0
C219 C 0.66279 0.14041 0.63354 0.0
C220 C 0.6782 0.13142 0.64877 0.0
C221 C 0.67545 0.10509 0.64384 0.0
C222 C 0.69609 0.14865 0.67072 0.0
C223 C 0.66614 0.16917 0.63685 0.0
C224 C 0.72518 0.15954 0.67031 0.0
C225 C 0.74202 0.17765 0.69021 0.0
C226 C 0.72994 0.18503 0.71081 0.0
C227 C 0.70068 0.17296 0.7117 0.0
C228 C 0.68396 0.15491 0.69193 0.0
H229 H 0.65926 0.17572 0.61912 0.0
H230 H 0.65304 0.16877 0.65357 0.0
H231 H 0.68824 0.18511 0.641 0.0
H232 H 0.73491 0.15476 0.65418 0.0
H233 H 0.76448 0.18657 0.68898 0.0
H234 H 0.51129 0.5808 0.06164 0.0
H235 H 0.51364 0.60665 0.10122 0.0
H236 H 0.5196 0.54491 0.14825 0.0
H237 H 0.51726 0.51869 0.10855 0.0
H238 H 0.47284 0.58162 0.1436 0.0
H239 H 0.58292 0.62265 0.17573 0.0
H240 H 0.57192 0.61168 0.14244 0.0
H241 H 0.56261 0.58595 0.16778 0.0
C242 C 0.51363 0.5729 0.08032 0.0
C243 C 0.51405 0.54761 0.08191 0.0
C244 C 0.51483 0.58767 0.10293 0.0
C245 C 0.51671 0.57765 0.12761 0.0
C246 C 0.51837 0.55309 0.12932 0.0
H247 H 0.53142 0.66026 0.27779 0.0
H248 H 0.5229 0.62385 0.24575 0.0
C249 C 0.51711 0.53819 0.10662 0.0
C250 C 0.51536 0.59231 0.1514 0.0
H251 H 0.55482 0.63424 0.20155 0.0
C252 C 0.49068 0.59299 0.15642 0.0
C253 C 0.53856 0.60681 0.16817 0.0
C254 C 0.56563 0.60701 0.16334 0.0
C255 C 0.48879 0.60837 0.17748 0.0
C256 C 0.5124 0.62388 0.19362 0.0
C257 C 0.53674 0.62234 0.18915 0.0
C258 C 0.51319 0.64349 0.21399 0.0
C259 C 0.46157 0.6079 0.18217 0.0
C260 C 0.5099 0.6663 0.20695 0.0
C261 C 0.51466 0.68713 0.22523 0.0
C262 C 0.52309 0.68568 0.25087 0.0
C263 C 0.52495 0.66205 0.25823 0.0
C264 C 0.52018 0.64124 0.23992 0.0
H265 H 0.44355 0.58857 0.1741 0.0
H266 H 0.45789 0.60924 0.20338 0.0
H267 H 0.46232 0.62613 0.17215 0.0
H268 H 0.50504 0.66879 0.18695 0.0
H269 H 0.51312 0.70506 0.21885 0.0
H270 H 0.96298 0.61072 0.55889 0.0
H271 H 0.94177 0.62586 0.59239 0.0
H272 H 0.00857 0.64176 0.64558 0.0
H273 H 0.03005 0.62654 0.61206 0.0
H274 H 0.95408 0.60647 0.66561 0.0
H275 H 0.96339 0.70327 0.62307 0.0
H276 H 0.94951 0.67424 0.60071 0.0
H277 H 0.98481 0.68884 0.61233 0.0
C278 C 0.97347 0.61786 0.57755 0.0
C279 C 0.99821 0.61737 0.5828 0.0
C280 C 0.96139 0.62672 0.59663 0.0
C281 C 0.97378 0.63529 0.62136 0.0
C282 C 0.99883 0.63547 0.62652 0.0
H283 H 0.88922 0.64806 0.76292 0.0
H284 H 0.92716 0.65436 0.73358 0.0
C285 C 0.01107 0.62679 0.60734 0.0
C286 C 0.95893 0.64124 0.64245 0.0
H287 H 0.92923 0.68108 0.65723 0.0
C288 C 0.94907 0.62311 0.66409 0.0
C289 C 0.95233 0.66287 0.64029 0.0
C290 C 0.96327 0.6836 0.61797 0.0
C291 C 0.93148 0.62501 0.68292 0.0
C292 C 0.92413 0.64613 0.68036 0.0
C293 C 0.9349 0.66495 0.65922 0.0
C294 C 0.90327 0.64723 0.69805 0.0
C295 C 0.91962 0.60332 0.70448 0.0
C296 C 0.87792 0.64298 0.68775 0.0
C297 C 0.85636 0.63978 0.70441 0.0
C298 C 0.85969 0.64066 0.73176 0.0
C299 C 0.88585 0.64698 0.74197 0.0
C300 C 0.9075 0.65037 0.72524 0.0
H301 H 0.92245 0.58509 0.70032 0.0
H302 H 0.93052 0.61295 0.72309 0.0
H303 H 0.89695 0.59554 0.70735 0.0
H304 H 0.87425 0.6407 0.66682 0.0
H305 H 0.83658 0.63512 0.69582 0.0
H306 H 0.48318 0.03128 0.1032 0.0
H307 H 0.43869 0.00563 0.1272 0.0
H308 H 0.40495 0.94467 0.06502 0.0
H309 H 0.44925 0.96959 0.04135 0.0
H310 H 0.38341 0.98978 0.1151 0.0
H311 H 0.39494 0.89628 0.12856 0.0
H312 H 0.42334 0.92949 0.11737 0.0
H313 H 0.39689 0.90616 0.09482 0.0
C314 C 0.46622 0.01248 0.09462 0.0
C315 C 0.4699 1.00226 0.07054 0.0
C316 C 0.44082 0.99787 0.10833 0.0
C317 C 0.41872 0.9729 0.09816 0.0
C318 C 0.42195 0.96347 0.07357 0.0
H319 H 0.25371 0.8443 0.14549 0.0
H320 H 0.29459 0.87876 0.1208 0.0
C321 C 0.4473 0.97784 0.06002 0.0
C322 C 0.39252 0.95608 0.1134 0.0
H323 H 0.35025 0.89058 0.13855 0.0
C324 C 0.37622 0.96815 0.1204 0.0
C325 C 0.38328 0.92792 0.12051 0.0
C326 C 0.40066 0.91427 0.11518 0.0
C327 C 0.35049 0.95247 0.1336 0.0
C328 C 0.34097 0.92412 0.13992 0.0
C329 C 0.35746 0.91224 0.13331 0.0
C330 C 0.31419 0.90622 0.15383 0.0
C331 C 0.33334 0.96601 0.14024 0.0
C332 C 0.31137 0.91065 0.18045 0.0
C333 C 0.28806 0.89092 0.19469 0.0
C334 C 0.26719 0.86637 0.18254 0.0
C335 C 0.26932 0.86293 0.15548 0.0
C336 C 0.2927 0.88258 0.14132 0.0
H337 H 0.34127 0.98651 0.1302 0.0
H338 H 0.31111 0.95199 0.13478 0.0
H339 H 0.33407 0.96954 0.1617 0.0
H340 H 0.32789 0.92858 0.19053 0.0
H341 H 0.28712 0.89423 0.2155 0.0
H342 H 0.54188 0.40772 0.50557 0.0
H343 H 0.53592 0.36894 0.53364 0.0
H344 H 0.48326 0.38407 0.58578 0.0
H345 H 0.48866 0.42225 0.55786 0.0
H346 H 0.55256 0.3743 0.5851 0.0
H347 H 0.43891 0.29966 0.57876 0.0
H348 H 0.45717 0.3278 0.55546 0.0
H349 H 0.44603 0.33436 0.58657 0.0
C350 C 0.52845 0.4023 0.52266 0.0
C351 C 0.51571 0.41808 0.52943 0.0
C352 C 0.5252 0.38023 0.53874 0.0
C353 C 0.50889 0.37338 0.56166 0.0
C354 C 0.49543 0.38851 0.56792 0.0
H355 H 0.48725 0.29696 0.70972 0.0
H356 H 0.49411 0.32581 0.67104 0.0
C357 C 0.49868 0.4105 0.55196 0.0
C358 C 0.50776 0.35224 0.58041 0.0
H359 H 0.46223 0.29567 0.61712 0.0
C360 C 0.53286 0.35674 0.5917 0.0
C361 C 0.48205 0.3293 0.58901 0.0
C362 C 0.45456 0.32231 0.57661 0.0
C363 C 0.53275 0.33983 0.61236 0.0
C364 C 0.50695 0.31798 0.62187 0.0
C365 C 0.48197 0.31266 0.60985 0.0
C366 C 0.50524 0.30163 0.64545 0.0
C367 C 0.55999 0.34608 0.62479 0.0
C368 C 0.50967 0.27873 0.64385 0.0
C369 C 0.50571 0.26207 0.66597 0.0
C370 C 0.49724 0.26809 0.68999 0.0
C371 C 0.49377 0.29168 0.69159 0.0
C372 C 0.49762 0.30819 0.6695 0.0
H373 H 0.57834 0.36402 0.61526 0.0
H374 H 0.55975 0.35091 0.64588 0.0
H375 H 0.56243 0.32729 0.62352 0.0
H376 H 0.5155 0.27337 0.62537 0.0
H377 H 0.50851 0.24405 0.66403 0.0
H378 H 0.47589 0.88743 0.52512 0.0
H379 H 0.47774 0.85336 0.49536 0.0
H380 H 0.53725 0.92099 0.44651 0.0
H381 H 0.53557 0.95501 0.47588 0.0
H382 H 0.48714 0.87837 0.42062 0.0
H383 H 0.54126 0.83438 0.47903 0.0
H384 H 0.51297 0.8365 0.49444 0.0
H385 H 0.54473 0.86809 0.4863 0.0
C386 C 0.48988 0.89505 0.50839 0.0
C387 C 0.50549 0.92395 0.50284 0.0
C388 C 0.49087 0.87555 0.49139 0.0
C389 C 0.50759 0.8847 0.46872 0.0
C390 C 0.52415 0.91352 0.46386 0.0
H391 H 0.56555 0.81737 0.35086 0.0
H392 H 0.55749 0.84016 0.38813 0.0
C393 C 0.5232 0.93294 0.48075 0.0
C394 C 0.50649 0.86454 0.44886 0.0
H395 H 0.5275 0.81699 0.43622 0.0
C396 C 0.49567 0.86469 0.42407 0.0
C397 C 0.51772 0.84686 0.45349 0.0
C398 C 0.53001 0.84638 0.47967 0.0
C399 C 0.49646 0.84818 0.4035 0.0
C400 C 0.50814 0.83083 0.40796 0.0
C401 C 0.51837 0.83017 0.43295 0.0
C402 C 0.51236 0.81539 0.38627 0.0
C403 C 0.48593 0.85035 0.37686 0.0
C404 C 0.48959 0.79359 0.37302 0.0
C405 C 0.49411 0.78044 0.35156 0.0
C406 C 0.52148 0.78895 0.343 0.0
C407 C 0.54417 0.81039 0.35675 0.0
C408 C 0.53964 0.82339 0.37818 0.0
H409 H 0.48192 0.86817 0.37564 0.0
H410 H 0.50127 0.85298 0.36139 0.0
H411 H 0.46605 0.83073 0.37271 0.0
H412 H 0.46836 0.78691 0.37916 0.0
H413 H 0.47619 0.76391 0.34149 0.0
H414 H 0.53647 0.57003 0.9362 0.0
H415 H 0.57988 0.59144 0.9103 0.0
H416 H 0.61613 0.55858 0.96434 0.0
H417 H 0.57305 0.53714 0.99024 0.0
H418 H 0.65165 0.61864 0.94821 0.0
H419 H 0.60502 0.54309 0.86556 0.0
H420 H 0.58676 0.56045 0.87718 0.0
H421 H 0.58936 0.53554 0.89781 0.0
C422 C 0.55374 0.56749 0.94265 0.0
C423 C 0.55121 0.55172 0.96522 0.0
C424 C 0.57847 0.57968 0.92779 0.0
C425 C 0.60109 0.5764 0.93535 0.0
C426 C 0.59888 0.56132 0.95819 0.0
H427 H 0.76097 0.60394 0.8925 0.0
H428 H 0.72019 0.60083 0.91427 0.0
C429 C 0.57419 0.549 0.97292 0.0
C430 C 0.62687 0.58781 0.91921 0.0
H431 H 0.65314 0.57525 0.86349 0.0
C432 C 0.65199 0.60943 0.92952 0.0
C433 C 0.62715 0.57589 0.89478 0.0
C434 C 0.60074 0.55235 0.88307 0.0
C435 C 0.67757 0.61896 0.91632 0.0
C436 C 0.6781 0.60598 0.89255 0.0
C437 C 0.65276 0.5852 0.88171 0.0
C438 C 0.70471 0.61158 0.87986 0.0
C439 C 0.70377 0.64268 0.92811 0.0
C440 C 0.70968 0.61859 0.85317 0.0
C441 C 0.73299 0.62013 0.84052 0.0
C442 C 0.75161 0.61446 0.85432 0.0
C443 C 0.74714 0.60855 0.88127 0.0
C444 C 0.72388 0.60696 0.89384 0.0
H445 H 0.69894 0.65657 0.94012 0.0
H446 H 0.71348 0.6339 0.9412 0.0
H447 H 0.71923 0.65552 0.91276 0.0
H448 H 0.69508 0.62207 0.84194 0.0
H449 H 0.73573 0.62463 0.81972 0.0
H450 H 0.999 0.60623 0.43447 0.0
H451 H 0.02221 0.64042 0.3992 0.0
H452 H 0.08686 0.69515 0.45276 0.0
H453 H 0.06427 0.66085 0.48788 0.0
H454 H 0.03879 0.69656 0.39136 0.0
H455 H 0.13084 0.68153 0.39653 0.0
H456 H 0.09848 0.65889 0.41346 0.0
H457 H 0.12304 0.69256 0.42693 0.0
C458 C 0.01797 0.6257 0.43882 0.0
C459 C 0.03001 0.63065 0.46389 0.0
C460 C 0.03121 0.64522 0.41864 0.0
C461 C 0.05661 0.67003 0.42321 0.0
C462 C 0.06766 0.67581 0.44863 0.0
H463 H 0.18038 0.79824 0.32088 0.0
H464 H 0.15035 0.77419 0.35852 0.0
C465 C 0.05464 0.65623 0.46872 0.0
C466 C 0.07238 0.68903 0.40114 0.0
H467 H 0.13457 0.71706 0.36811 0.0
C468 C 0.05974 0.70108 0.38626 0.0
C469 C 0.09964 0.69471 0.39438 0.0
C470 C 0.11373 0.68105 0.40847 0.0
C471 C 0.07382 0.71898 0.36501 0.0
C472 C 0.10111 0.72479 0.35848 0.0
C473 C 0.11375 0.71282 0.3734 0.0
C474 C 0.11673 0.7421 0.33552 0.0
C475 C 0.05956 0.73173 0.34984 0.0
C476 C 0.10747 0.73241 0.31005 0.0
C477 C 0.12463 0.74605 0.28845 0.0
C478 C 0.15143 0.76956 0.29197 0.0
C479 C 0.15989 0.7802 0.31742 0.0
C480 C 0.14277 0.76647 0.33899 0.0
H481 H 0.04166 0.73062 0.3609 0.0
H482 H 0.07457 0.75399 0.34495 0.0
H483 H 0.05147 0.72011 0.3312 0.0
H484 H 0.08763 0.7134 0.30695 0.0
H485 H 0.11745 0.73729 0.26914 0.0
H486 H 0.51062 0.07543 0.97976 0.0
H487 H 0.50634 0.09985 0.94186 0.0
H488 H 0.50537 0.0371 0.89068 0.0
H489 H 0.50964 0.01226 0.92872 0.0
H490 H 0.54721 0.12074 0.89982 0.0
H491 H 0.43894 0.04722 0.86549 0.0
H492 H 0.45015 0.04608 0.89843 0.0
H493 H 0.46129 0.0328 0.87171 0.0
C494 C 0.50903 0.06646 0.96052 0.0
C495 C 0.51055 0.04189 0.95728 0.0
C496 C 0.50667 0.08054 0.93887 0.0
C497 C 0.50558 0.07031 0.91352 0.0
C498 C 0.50593 0.04519 0.91015 0.0
H499 H 0.4895 0.14285 0.76679 0.0
H500 H 0.49785 0.1143 0.7981 0.0
C501 C 0.50833 0.03101 0.93189 0.0
C502 C 0.5058 0.08709 0.89077 0.0
H503 H 0.46525 0.08889 0.84142 0.0
C504 C 0.52937 0.11374 0.88692 0.0
C505 C 0.48261 0.07776 0.8739 0.0
C506 C 0.45667 0.04949 0.87753 0.0
C507 C 0.53018 0.13156 0.86689 0.0
C508 C 0.50655 0.1227 0.85063 0.0
C509 C 0.48333 0.09567 0.85395 0.0
C510 C 0.50474 0.14165 0.83108 0.0
C511 C 0.55634 0.15969 0.86334 0.0
C512 C 0.50629 0.16676 0.83914 0.0
C513 C 0.50164 0.18322 0.82128 0.0
C514 C 0.49507 0.17472 0.79505 0.0
C515 C 0.49454 0.15006 0.78684 0.0
C516 C 0.49921 0.13363 0.80471 0.0
H517 H 0.57501 0.15961 0.8713 0.0
H518 H 0.56017 0.1658 0.84236 0.0
H519 H 0.55392 0.17586 0.87411 0.0
H520 H 0.50998 0.1731 0.85949 0.0
H521 H 0.50206 0.20198 0.82832 0.0
H522 H 0.4723 0.46737 0.44017 0.0
H523 H 0.43149 0.45713 0.41389 0.0
H524 H 0.39495 0.47624 0.47991 0.0
H525 H 0.43624 0.48736 0.50624 0.0
H526 H 0.37632 0.41911 0.4189 0.0
H527 H 0.39261 0.52706 0.42437 0.0
H528 H 0.41861 0.51869 0.43526 0.0
H529 H 0.38881 0.51056 0.4556 0.0
C530 C 0.4556 0.46938 0.44919 0.0
C531 C 0.45769 0.47845 0.47528 0.0
C532 C 0.43222 0.46345 0.43411 0.0
C533 C 0.41033 0.46636 0.44474 0.0
C534 C 0.41187 0.4745 0.47106 0.0
H535 H 0.26403 0.45295 0.36443 0.0
H536 H 0.29414 0.45147 0.39876 0.0
C537 C 0.43543 0.48069 0.48614 0.0
C538 C 0.38633 0.46135 0.42793 0.0
H539 H 0.35288 0.49353 0.40148 0.0
C540 C 0.37112 0.43535 0.41521 0.0
C541 C 0.37952 0.48254 0.42307 0.0
C542 C 0.39586 0.51137 0.43508 0.0
C543 C 0.34959 0.43013 0.39753 0.0
C544 C 0.34319 0.45148 0.39236 0.0
C545 C 0.35778 0.47715 0.40562 0.0
C546 C 0.32293 0.44853 0.37187 0.0
C547 C 0.33396 0.4019 0.38436 0.0
C548 C 0.32894 0.44695 0.34541 0.0
C549 C 0.31191 0.44797 0.32575 0.0
C550 C 0.28851 0.45055 0.33218 0.0
C551 C 0.28181 0.45082 0.35878 0.0
C552 C 0.29903 0.45007 0.37843 0.0
H553 H 0.33634 0.38569 0.39512 0.0
H554 H 0.31134 0.39489 0.38277 0.0
H555 H 0.34239 0.40356 0.36426 0.0
H556 H 0.34751 0.44617 0.33991 0.0
H557 H 0.31768 0.44774 0.30548 0.0
H558 H 0.04296 0.4573 0.92672 0.0
H559 H 0.02398 0.42457 0.88988 0.0
H560 H 0.95018 0.37094 0.93528 0.0
H561 H 0.96889 0.40338 0.9722 0.0
H562 H 0.97397 0.34255 0.90277 0.0
H563 H 0.95563 0.41995 0.8492 0.0
H564 H 0.9903 0.43209 0.86155 0.0
H565 H 0.9618 0.42223 0.88404 0.0
C566 C 0.02289 0.43833 0.92904 0.0
C567 C 0.00731 0.4331 0.95233 0.0
C568 C 0.01208 0.4197 0.90795 0.0
C569 C 0.98559 0.39553 0.90983 0.0
C570 C 0.97067 0.38951 0.93348 0.0
H571 H 0.85707 0.2665 0.81875 0.0
H572 H 0.89228 0.29271 0.85185 0.0
C573 C 0.98137 0.40814 0.95451 0.0
C574 C 0.97225 0.37772 0.88661 0.0
H575 H 0.9404 0.37651 0.82916 0.0
C576 C 0.96686 0.34998 0.88649 0.0
C577 C 0.9631 0.38756 0.86544 0.0
C578 C 0.96776 0.41701 0.86494 0.0
C579 C 0.95218 0.33164 0.86581 0.0
C580 C 0.94206 0.34116 0.84509 0.0
C581 C 0.94825 0.3692 0.84493 0.0
C582 C 0.92304 0.32215 0.8245 0.0
C583 C 0.94768 0.30229 0.8664 0.0
C584 C 0.92859 0.32967 0.79795 0.0
C585 C 0.90823 0.31495 0.77895 0.0
C586 C 0.88192 0.29239 0.78614 0.0
C587 C 0.87714 0.28368 0.81248 0.0
C588 C 0.8974 0.29858 0.83149 0.0
H589 H 0.96461 0.30152 0.87741 0.0
H590 H 0.92762 0.28824 0.87655 0.0
H591 H 0.94678 0.29409 0.84634 0.0
H592 H 0.94819 0.3478 0.79207 0.0
H593 H 0.91263 0.32214 0.75883 0.0
H594 H 0.99405 0.53435 0.9597 0.0
H595 H 0.96404 0.54389 0.93158 0.0
H596 H 0.89107 0.48031 0.97222 0.0
H597 H 0.92102 0.47142 1.00105 0.0
H598 H 0.92599 0.51037 0.89777 0.0
H599 H 0.87393 0.54268 0.97162 0.0
H600 H 0.90383 0.5391 0.97937 0.0
H601 H 0.86934 0.50866 0.97821 0.0
C602 C 0.97163 0.5227 0.96292 0.0
C603 C 0.95995 0.50225 0.98273 0.0
C604 C 0.95448 0.52811 0.94677 0.0
C605 C 0.92526 0.51308 0.94993 0.0
C606 C 0.91355 0.49273 0.9698 0.0
H607 H 0.81335 0.50486 0.82401 0.0
H608 H 0.83891 0.49303 0.85588 0.0
C609 C 0.93073 0.48757 0.98621 0.0
C610 C 0.90714 0.5178 0.93156 0.0
H611 H 0.85498 0.53395 0.92861 0.0
C612 C 0.91053 0.51562 0.90453 0.0
C613 C 0.88709 0.52488 0.94032 0.0
C614 C 0.88349 0.52926 0.96894 0.0
C615 C 0.89458 0.52039 0.88605 0.0
C616 C 0.87396 0.52665 0.89484 0.0
C617 C 0.87053 0.52879 0.92187 0.0
C618 C 0.85692 0.53275 0.87632 0.0
C619 C 0.90068 0.51957 0.85732 0.0
C620 C 0.85749 0.55846 0.87787 0.0
C621 C 0.84254 0.56505 0.86002 0.0
C622 C 0.82672 0.5461 0.84008 0.0
C623 C 0.82554 0.52002 0.83895 0.0
C624 C 0.84032 0.51332 0.85705 0.0
H625 H 0.92177 0.52216 0.85412 0.0
H626 H 0.88504 0.49897 0.8491 0.0
H627 H 0.89943 0.53627 0.84629 0.0
H628 H 0.87002 0.57376 0.89261 0.0
H629 H 0.84392 0.58531 0.86155 0.0
H630 H 0.47362 1.00104 0.43351 0.0
H631 H 0.44369 0.97613 0.39611 0.0
H632 H 0.38458 0.91187 0.44806 0.0
H633 H 0.41411 0.93656 0.48545 0.0
H634 H 0.42842 0.9201 0.38171 0.0
H635 H 0.33505 0.93034 0.40175 0.0
H636 H 0.3686 0.95284 0.41673 0.0
H637 H 0.34627 0.91798 0.42908 0.0
C638 C 0.45395 0.98193 0.43704 0.0
C639 C 0.44625 0.97082 0.46249 0.0
C640 C 0.43697 0.96765 0.41563 0.0
C641 C 0.41186 0.94226 0.41934 0.0
C642 C 0.40367 0.93164 0.44479 0.0
H643 H 0.28234 0.81669 0.32083 0.0
H644 H 0.31386 0.84234 0.35694 0.0
C645 C 0.42065 0.94578 0.46615 0.0
C646 C 0.39505 0.9258 0.39659 0.0
H647 H 0.33017 0.89728 0.36927 0.0
C648 C 0.407 0.91528 0.37882 0.0
C649 C 0.36708 0.91938 0.39303 0.0
C650 C 0.3535 0.9309 0.41101 0.0
C651 C 0.39149 0.89796 0.35787 0.0
C652 C 0.36345 0.89142 0.35438 0.0
C653 C 0.3516 0.90214 0.37207 0.0
C654 C 0.34609 0.87405 0.33223 0.0
C655 C 0.40502 0.88622 0.3401 0.0
C656 C 0.354 0.88303 0.30629 0.0
C657 C 0.3361 0.86834 0.28558 0.0
C658 C 0.30979 0.84452 0.29043 0.0
C659 C 0.30244 0.83492 0.31637 0.0
C660 C 0.32038 0.84962 0.33706 0.0
H661 H 0.4233 0.8866 0.34955 0.0
H662 H 0.38986 0.86432 0.33433 0.0
H663 H 0.41255 0.89916 0.32205 0.0
H664 H 0.3735 0.90208 0.30211 0.0
H665 H 0.3424 0.87641 0.26588 0.0
H666 H 0.4783 0.41022 0.99878 0.0
H667 H 0.46951 0.37376 0.96657 0.0
H668 H 0.43451 0.40892 0.9137 0.0
H669 H 0.44321 0.44549 0.9457 0.0
H670 H 0.40406 0.3463 0.91846 0.0
H671 H 0.51812 0.39551 0.89742 0.0
H672 H 0.50763 0.3885 0.93125 0.0
H673 H 0.50324 0.4142 0.91363 0.0
C674 C 0.4684 0.41003 0.98045 0.0
C675 C 0.46166 0.43095 0.97477 0.0
C676 C 0.46346 0.3892 0.96205 0.0
C677 C 0.4516 0.38882 0.93768 0.0
C678 C 0.44371 0.40887 0.93239 0.0
H679 H 0.46016 0.32042 0.78937 0.0
H680 H 0.45858 0.34808 0.82597 0.0
C681 C 0.44877 0.4298 0.9507 0.0
C682 C 0.44908 0.36871 0.91703 0.0
H683 H 0.48804 0.35416 0.87453 0.0
C684 C 0.42238 0.34784 0.90894 0.0
C685 C 0.47304 0.37101 0.90451 0.0
C686 C 0.50218 0.39359 0.91191 0.0
C687 C 0.41905 0.32917 0.88857 0.0
C688 C 0.44303 0.33153 0.87606 0.0
C689 C 0.46969 0.35234 0.88426 0.0
C690 C 0.44115 0.31362 0.85352 0.0
C691 C 0.38998 0.30757 0.88005 0.0
C692 C 0.43149 0.28487 0.85677 0.0
C693 C 0.43242 0.26888 0.8358 0.0
C694 C 0.4431 0.28143 0.81126 0.0
C695 C 0.45185 0.31002 0.80796 0.0
C696 C 0.451 0.32593 0.82888 0.0
H697 H 0.3737 0.3113 0.88887 0.0
H698 H 0.38826 0.30757 0.85838 0.0
H699 H 0.3857 0.28643 0.88611 0.0
H700 H 0.42409 0.27503 0.87573 0.0
H701 H 0.42561 0.24695 0.83905 0.0
H702 H 0.03916 0.53183 0.46576 0.0
H703 H 0.0696 0.52247 0.43789 0.0
H704 H 0.13943 0.57283 0.48852 0.0
H705 H 0.10894 0.58183 0.5169 0.0
H706 H 0.11588 0.55986 0.41039 0.0
H707 H 0.14404 0.50194 0.4816 0.0
H708 H 0.11587 0.50896 0.48745 0.0
H709 H 0.15157 0.53605 0.49238 0.0
C710 C 0.06091 0.54066 0.4712 0.0
C711 C 0.07155 0.55747 0.49368 0.0
C712 C 0.07833 0.53538 0.45515 0.0
C713 C 0.10677 0.54674 0.46118 0.0
C714 C 0.11745 0.56338 0.48371 0.0
H715 H 0.22268 0.54364 0.34227 0.0
H716 H 0.20133 0.56113 0.37393 0.0
C717 C 0.09998 0.56856 0.4999 0.0
C718 C 0.12517 0.54164 0.44339 0.0
H719 H 0.16637 0.51171 0.4403 0.0
C720 C 0.12704 0.54944 0.41694 0.0
C721 C 0.13964 0.52796 0.45194 0.0
C722 C 0.13756 0.51799 0.47982 0.0
C723 C 0.14243 0.54341 0.3987 0.0
C724 C 0.15687 0.52969 0.40724 0.0
C725 C 0.15551 0.52246 0.43382 0.0
C726 C 0.171 0.51998 0.38859 0.0
C727 C 0.1421 0.55068 0.37026 0.0
C728 C 0.16162 0.49123 0.38679 0.0
C729 C 0.17387 0.4813 0.36904 0.0
C730 C 0.1959 0.49987 0.35255 0.0
C731 C 0.20566 0.52879 0.35458 0.0
C732 C 0.19337 0.53878 0.37255 0.0
H733 H 0.12537 0.55575 0.36614 0.0
H734 H 0.1625 0.56929 0.36508 0.0
H735 H 0.13895 0.53308 0.35739 0.0
H736 H 0.14442 0.47631 0.39892 0.0
H737 H 0.16577 0.45889 0.36811 0.0
H738 H 0.61711 0.06242 0.97614 0.0
H739 H 0.64998 0.09661 0.9449 0.0
H740 H 0.64861 0.16337 0.98772 0.0
H741 H 0.6155 0.12912 0.01934 0.0
H742 H 0.63465 0.13215 0.91522 0.0
H743 H 0.73373 0.19232 0.97124 0.0
H744 H 0.70699 0.15743 0.9808 0.0
H745 H 0.70164 0.18656 0.98617 0.0
C746 C 0.62423 0.08443 0.97934 0.0
C747 C 0.61357 0.093 1.00023 0.0
C748 C 0.64296 0.10393 0.96137 0.0
C749 C 0.65161 0.13247 0.96391 0.0
C750 C 0.64232 0.14144 0.98552 0.0
H751 H 0.72853 0.23946 0.82371 0.0
H752 H 0.69955 0.22076 0.86342 0.0
C753 C 0.62349 0.12184 1.00362 0.0
C754 C 0.66852 0.15211 0.94266 0.0
H755 H 0.73456 0.20396 0.92678 0.0
C756 C 0.6564 0.14815 0.91776 0.0
C757 C 0.69682 0.17291 0.94614 0.0
C758 C 0.7108 0.17766 0.97245 0.0
C759 C 0.67215 0.16364 0.89597 0.0
C760 C 0.70074 0.18388 0.89924 0.0
C761 C 0.71259 0.18858 0.92437 0.0
C762 C 0.71945 0.19758 0.87639 0.0
C763 C 0.65846 0.15712 0.86938 0.0
C764 C 0.74067 0.1914 0.87092 0.0
C765 C 0.75713 0.20199 0.84845 0.0
C766 C 0.75289 0.21917 0.83088 0.0
C767 C 0.73223 0.22618 0.83677 0.0
C768 C 0.71561 0.21544 0.85939 0.0
H769 H 0.63751 0.13785 0.86963 0.0
H770 H 0.65581 0.17488 0.86292 0.0
H771 H 0.67179 0.15439 0.8547 0.0
H772 H 0.74401 0.17768 0.88372 0.0
H773 H 0.77297 0.1963 0.8447 0.0
H774 H 0.58614 0.54062 0.42029 0.0
H775 H 0.60283 0.58147 0.39124 0.0
H776 H 0.58813 0.62668 0.45233 0.0
H777 H 0.57138 0.58615 0.48133 0.0
H778 H 0.56882 0.60574 0.37707 0.0
H779 H 0.66777 0.68337 0.42463 0.0
H780 H 0.65176 0.64604 0.43017 0.0
H781 H 0.63862 0.6659 0.44677 0.0
C782 C 0.58692 0.55944 0.42767 0.0
C783 C 0.5774 0.56011 0.45312 0.0
C784 C 0.59642 0.58272 0.41104 0.0
C785 C 0.59704 0.60721 0.41974 0.0
C786 C 0.5883 0.60818 0.44536 0.0
H787 H 0.60717 0.75805 0.37075 0.0
H788 H 0.61062 0.72056 0.3925 0.0
C789 C 0.57856 0.5849 0.46186 0.0
C790 C 0.60432 0.63093 0.40156 0.0
H791 H 0.64756 0.70159 0.39463 0.0
C792 C 0.58635 0.62663 0.38052 0.0
C793 C 0.62711 0.65811 0.40625 0.0
C794 C 0.64761 0.66369 0.42804 0.0
C795 C 0.58953 0.6491 0.36499 0.0
C796 C 0.61183 0.67655 0.37021 0.0
C797 C 0.63053 0.68059 0.39057 0.0
C798 C 0.6142 0.70156 0.35666 0.0
C799 C 0.56792 0.64343 0.34423 0.0
C800 C 0.61645 0.70425 0.32926 0.0
C801 C 0.61426 0.72566 0.31667 0.0
C802 C 0.61007 0.74493 0.33131 0.0
C803 C 0.61017 0.74349 0.35882 0.0
C804 C 0.61216 0.72202 0.37133 0.0
H805 H 0.54895 0.62244 0.34661 0.0
H806 H 0.56144 0.65953 0.34474 0.0
H807 H 0.57701 0.64416 0.32463 0.0
H808 H 0.61881 0.68915 0.31756 0.0
H809 H 0.61446 0.72624 0.29546 0.0
H810 H 0.46457 0.04663 0.55327 0.0
H811 H 0.44775 0.0708 0.58174 0.0
H812 H 0.41973 0.00398 0.63835 0.0
H813 H 0.43649 0.97948 0.60994 0.0
H814 H 0.39109 0.0503 0.60556 0.0
H815 H 0.47688 0.07846 0.67737 0.0
H816 H 0.47872 0.06798 0.64425 0.0
H817 H 0.45643 0.04225 0.66783 0.0
C818 C 0.45464 0.0369 0.57167 0.0
C819 C 0.45206 0.01118 0.5794 0.0
C820 C 0.44496 0.05073 0.58787 0.0
C821 C 0.43272 0.03928 0.6122 0.0
C822 C 0.42932 0.01324 0.6197 0.0
H823 H 0.4071 0.13035 0.73937 0.0
H824 H 0.40408 0.09147 0.71365 0.0
C825 C 0.43885 0.99926 0.60341 0.0
C826 C 0.42493 0.05546 0.63014 0.0
H827 H 0.44628 0.0955 0.68544 0.0
C828 C 0.40294 0.05999 0.62319 0.0
C829 C 0.44035 0.06793 0.65314 0.0
C830 C 0.46455 0.06416 0.66117 0.0
C831 C 0.39618 0.07703 0.6385 0.0
C832 C 0.41236 0.09046 0.66097 0.0
C833 C 0.43381 0.08518 0.66829 0.0
C834 C 0.40905 0.11172 0.67612 0.0
C835 C 0.37177 0.08039 0.63045 0.0
C836 C 0.41206 0.13578 0.66361 0.0
C837 C 0.41348 0.15793 0.67824 0.0
C838 C 0.41242 0.15671 0.70577 0.0
C839 C 0.40796 0.132 0.71821 0.0
C840 C 0.40633 0.10976 0.70352 0.0
H841 H 0.35604 0.06178 0.6194 0.0
H842 H 0.36134 0.08357 0.64768 0.0
H843 H 0.37939 0.09889 0.61737 0.0
H844 H 0.4149 0.13818 0.64258 0.0
H845 H 0.41714 0.17669 0.66799 0.0
H846 H 0.40816 0.53047 0.02352 0.0
H847 H 0.37806 0.53347 0.05736 0.0
H848 H 0.38079 0.46811 0.10128 0.0
H849 H 0.41077 0.46499 0.06784 0.0
H850 H 0.32592 0.4937 0.08035 0.0
H851 H 0.41193 0.53514 0.15262 0.0
H852 H 0.41775 0.53404 0.11792 0.0
H853 H 0.40599 0.5031 0.1377 0.0
C854 C 0.40183 0.51629 0.04008 0.0
C855 C 0.41208 0.49764 0.04305 0.0
C856 C 0.38481 0.5182 0.0595 0.0
C857 C 0.37789 0.50158 0.08217 0.0
C858 C 0.3865 0.48165 0.08427 0.0
H859 H 0.25365 0.44538 0.19896 0.0
H860 H 0.28246 0.45581 0.15995 0.0
C861 C 0.40344 0.47972 0.06497 0.0
C862 C 0.36222 0.50522 0.10407 0.0
H863 H 0.36551 0.51701 0.17 0.0
C864 C 0.33467 0.49918 0.09988 0.0
C865 C 0.37393 0.51319 0.12941 0.0
C866 C 0.40413 0.52205 0.13469 0.0
C867 C 0.31789 0.49901 0.12074 0.0
C868 C 0.32879 0.50448 0.14651 0.0
C869 C 0.35697 0.51243 0.15035 0.0
C870 C 0.31065 0.49925 0.16989 0.0
C871 C 0.28846 0.49254 0.11498 0.0
C872 C 0.31726 0.52002 0.18903 0.0
C873 C 0.30081 0.51401 0.21178 0.0
C874 C 0.27767 0.48703 0.21582 0.0
C875 C 0.2712 0.46644 0.19653 0.0
C876 C 0.28754 0.47243 0.17398 0.0
H877 H 0.28682 0.49898 0.09475 0.0
H878 H 0.27404 0.46958 0.11654 0.0
H879 H 0.28146 0.50324 0.12898 0.0
H880 H 0.33522 0.5408 0.18643 0.0
H881 H 0.30642 0.5303 0.22629 0.0
H882 H 0.91639 0.49133 0.53668 0.0
H883 H 0.8859 0.45221 0.56545 0.0
H884 H 0.95818 0.46224 0.60712 0.0
H885 H 0.98863 0.50209 0.57917 0.0
H886 H 0.88004 0.40316 0.57452 0.0
H887 H 0.91225 0.46242 0.66732 0.0
H888 H 0.92258 0.47947 0.63582 0.0
H889 H 0.94178 0.46448 0.65051 0.0
C890 C 0.92579 0.48516 0.55195 0.0
C891 C 0.95493 0.49997 0.55577 0.0
C892 C 0.90832 0.46282 0.56844 0.0
C893 C 0.91961 0.45467 0.58898 0.0
C894 C 0.94881 0.4687 0.59208 0.0
H895 H 0.84528 0.29487 0.66533 0.0
H896 H 0.86793 0.33519 0.63633 0.0
C897 C 0.96625 0.49132 0.57588 0.0
C898 C 0.90095 0.43114 0.60674 0.0
H899 H 0.88768 0.41221 0.67121 0.0
C900 C 0.88154 0.40527 0.59566 0.0
C901 C 0.90222 0.43393 0.63438 0.0
C902 C 0.92061 0.46168 0.64768 0.0
C903 C 0.8643 0.38191 0.61138 0.0
C904 C 0.86719 0.38412 0.63898 0.0
C905 C 0.8857 0.41029 0.65008 0.0
C906 C 0.85245 0.35929 0.65654 0.0
C907 C 0.84305 0.35517 0.59813 0.0
C908 C 0.83687 0.3596 0.67831 0.0
C909 C 0.82423 0.33657 0.69543 0.0
C910 C 0.82689 0.31281 0.69101 0.0
C911 C 0.84243 0.31262 0.66918 0.0
C912 C 0.85528 0.33566 0.65237 0.0
H913 H 0.83633 0.35963 0.57912 0.0
H914 H 0.85265 0.34204 0.59398 0.0
H915 H 0.82423 0.34296 0.61061 0.0
H916 H 0.83459 0.3777 0.68211 0.0
H917 H 0.81251 0.33742 0.71212 0.0
H918 H 0.5793 0.00678 0.09242 0.0
H919 H 0.58777 0.97852 0.12393 0.0
H920 H 0.55295 0.90898 0.07001 0.0
H921 H 0.54499 0.93733 0.03813 0.0
H922 H 0.54862 0.9319 0.14705 0.0
H923 H 0.62161 0.90747 0.09439 0.0
H924 H 0.61457 0.93452 0.08356 0.0
H925 H 0.59072 0.89832 0.07578 0.0
C926 C 0.57388 0.98563 0.08704 0.0
C927 C 0.56145 0.97434 0.0627 0.0
C928 C 0.57874 0.96948 0.10511 0.0
C929 C 0.57132 0.94169 0.0993 0.0
C930 C 0.5595 0.93056 0.07477 0.0
H931 H 0.51975 0.80486 0.20591 0.0
H932 H 0.52523 0.8396 0.17344 0.0
C933 C 0.55479 0.94677 0.05658 0.0
C934 C 0.5735 0.92363 0.11977 0.0
H935 H 0.59794 0.87863 0.1318 0.0
C936 C 0.55971 0.92054 0.14377 0.0
C937 C 0.58823 0.90901 0.11573 0.0
C938 C 0.60487 0.9127 0.09107 0.0
C939 C 0.55936 0.90252 0.16338 0.0
C940 C 0.5727 0.88668 0.15875 0.0
C941 C 0.58745 0.89055 0.13521 0.0
C942 C 0.57013 0.86497 0.17761 0.0
C943 C 0.54452 0.90049 0.18888 0.0
C944 C 0.59373 0.86713 0.19019 0.0
C945 C 0.59069 0.84709 0.20888 0.0
C946 C 0.564 0.8245 0.21513 0.0
C947 C 0.54061 0.82208 0.20184 0.0
C948 C 0.54366 0.84201 0.18328 0.0
H949 H 0.54262 0.91939 0.19231 0.0
H950 H 0.52308 0.88202 0.18821 0.0
H951 H 0.55568 0.89784 0.2057 0.0
H952 H 0.61439 0.88462 0.18596 0.0
H953 H 0.60914 0.8495 0.21867 0.0
H954 H 0.58708 0.48613 0.56089 0.0
H955 H 0.61604 0.49076 0.59852 0.0
H956 H 0.61411 0.56489 0.62282 0.0
H957 H 0.58317 0.55893 0.58598 0.0
H958 H 0.66438 0.52593 0.61209 0.0
H959 H 0.59499 0.52584 0.6905 0.0
H960 H 0.58389 0.51849 0.65688 0.0
H961 H 0.60442 0.55422 0.66809 0.0
C962 C 0.59283 0.50343 0.57428 0.0
C963 C 0.58291 0.5222 0.57055 0.0
C964 C 0.60939 0.50606 0.59585 0.0
C965 C 0.61697 0.52788 0.61397 0.0
C966 C 0.60781 0.54726 0.60976 0.0
H967 H 0.75821 0.57944 0.71808 0.0
H968 H 0.72725 0.57099 0.68119 0.0
C969 C 0.59042 0.5441 0.58853 0.0
C970 C 0.63503 0.53044 0.63669 0.0
H971 H 0.64174 0.53957 0.703 0.0
C972 C 0.65919 0.52864 0.63199 0.0
C973 C 0.62817 0.53338 0.66285 0.0
C974 C 0.60129 0.53277 0.66992 0.0
C975 C 0.67669 0.52991 0.65246 0.0
C976 C 0.67085 0.53473 0.67838 0.0
C977 C 0.64651 0.53619 0.68316 0.0
C978 C 0.68991 0.53896 0.70069 0.0
C979 C 0.70074 0.52521 0.64598 0.0
C980 C 0.6793 0.5245 0.72448 0.0
C981 C 0.69694 0.53004 0.74603 0.0
C982 C 0.72562 0.54977 0.74407 0.0
C983 C 0.73632 0.56369 0.7201 0.0
C984 C 0.71859 0.55872 0.69885 0.0
H985 H 0.69605 0.51163 0.62844 0.0
H986 H 0.7196 0.54565 0.64136 0.0
H987 H 0.7056 0.5153 0.66251 0.0
H988 H 0.65726 0.50922 0.72652 0.0
H989 H 0.68809 0.51914 0.76431 0.0
H990 H 0.11019 0.57859 0.02178 0.0
H991 H 0.14011 0.61726 0.05102 0.0
H992 H 0.07273 0.58828 0.10721 0.0
H993 H 0.04277 0.54932 0.07831 0.0
H994 H 0.13389 0.66043 0.07229 0.0
H995 H 0.13661 0.59203 0.15055 0.0
H996 H 0.12397 0.57931 0.11799 0.0
H997 H 0.10191 0.58361 0.14132 0.0
C998 C 0.10165 0.58049 0.04029 0.0
C999 C 0.0741 0.56069 0.04776 0.0
C1000 C 0.11881 0.60262 0.05699 0.0
C1001 C 0.10886 0.60532 0.08152 0.0
C1002 C 0.08108 0.58621 0.08864 0.0
H1003 H 0.17345 0.72084 0.21115 0.0
H1004 H 0.14621 0.68247 0.18075 0.0
C1005 C 0.06389 0.56406 0.07198 0.0
C1006 C 0.12755 0.62808 0.09969 0.0
H1007 H 0.15609 0.64031 0.16091 0.0
C1008 C 0.13891 0.65606 0.0916 0.0
C1009 C 0.13416 0.62231 0.12485 0.0
C1010 C 0.12377 0.5927 0.13416 0.0
C1011 C 0.15604 0.67844 0.10827 0.0
C1012 C 0.16234 0.67266 0.13355 0.0
C1013 C 0.15122 0.64469 0.14154 0.0
C1014 C 0.17962 0.69536 0.15235 0.0
C1015 C 0.16659 0.70809 0.09899 0.0
C1016 C 0.20771 0.71498 0.14677 0.0
C1017 C 0.22344 0.73698 0.16417 0.0
C1018 C 0.21134 0.73971 0.18749 0.0
C1019 C 0.18344 0.71947 0.19334 0.0
C1020 C 0.1678 0.69749 0.17599 0.0
H1021 H 0.15487 0.70882 0.08165 0.0
H1022 H 0.16491 0.72102 0.11482 0.0
H1023 H 0.18897 0.71769 0.09339 0.0
H1024 H 0.21742 0.7134 0.12886 0.0
H1025 H 0.24487 0.75213 0.15908 0.0
loop_
_geom_bond_atom_site_label_1
_geom_bond_atom_site_label_2
_geom_bond_distance
_geom_bond_site_symmetry_2
_ccdc_geom_bond_type
C0 O2 1.247 . S
C0 O4 1.258 . S
C1 O8 1.247 1_655 S
C1 O9 1.258 1_556 S
O2 C0 1.247 . S
O2 Zn3 2.028 1_455 S
Zn3 O2 2.028 1_655 S
Zn3 O7 2.035 . S
Zn3 O9 2.035 . S
Zn3 O10 2.028 1_655 S
O4 C0 1.258 . S
O4 Zn5 2.035 1_554 S
Zn5 O4 2.035 1_556 S
Zn5 O6 2.028 . S
Zn5 O8 2.028 . S
Zn5 O11 2.035 1_556 S
O6 Zn5 2.028 . S
O6 C12 1.247 1_455 S
O7 Zn3 2.035 . S
O7 C12 1.258 1_554 S
O8 C1 1.247 1_455 S
O8 Zn5 2.028 . S
O9 C1 1.258 1_554 S
O9 Zn3 2.035 . S
O10 Zn3 2.028 1_455 S
O10 C13 1.247 . S
O11 Zn5 2.035 1_554 S
O11 C13 1.258 . S
C12 O6 1.247 1_655 S
C12 O7 1.258 1_556 S
C13 O10 1.247 . S
C13 O11 1.258 . S
C14 O16 1.247 . S
C14 O18 1.258 . S
C15 O22 1.247 1_565 S
C15 O23 1.258 . S
O16 C14 1.247 . S
O16 Zn17 2.028 1_545 S
Zn17 O16 2.028 1_565 S
Zn17 O21 2.035 . S
Zn17 O23 2.035 . S
Zn17 O24 2.028 1_565 S
O18 C14 1.258 . S
O18 Zn19 2.035 . S
Zn19 O18 2.035 . S
Zn19 O20 2.028 . S
Zn19 O22 2.028 . S
Zn19 O25 2.035 . S
O20 Zn19 2.028 . S
O20 C26 1.247 1_545 S
O21 Zn17 2.035 . S
O21 C26 1.258 . S
O22 C15 1.247 1_545 S
O22 Zn19 2.028 . S
O23 C15 1.258 . S
O23 Zn17 2.035 . S
O24 Zn17 2.028 1_545 S
O24 C27 1.247 . S
O25 Zn19 2.035 . S
O25 C27 1.258 . S
C26 O20 1.247 1_565 S
C26 O21 1.258 . S
C27 O24 1.247 . S
C27 O25 1.258 . S
C28 O30 1.247 . S
C28 O32 1.258 1_556 S
C29 O36 1.247 . S
C29 O37 1.258 . S
O30 C28 1.247 . S
O30 Zn31 2.028 . S
Zn31 O30 2.028 . S
Zn31 O35 2.035 1_556 S
Zn31 O37 2.035 1_556 S
Zn31 O38 2.028 . S
O32 C28 1.258 1_554 S
O32 Zn33 2.035 . S
Zn33 O32 2.035 . S
Zn33 O34 2.028 . S
Zn33 O36 2.028 . S
Zn33 O39 2.035 . S
O34 Zn33 2.028 . S
O34 C40 1.247 . S
O35 Zn31 2.035 1_554 S
O35 C40 1.258 . S
O36 C29 1.247 . S
O36 Zn33 2.028 . S
O37 C29 1.258 . S
O37 Zn31 2.035 1_554 S
O38 Zn31 2.028 . S
O38 C41 1.247 . S
O39 Zn33 2.035 . S
O39 C41 1.258 1_554 S
C40 O34 1.247 . S
C40 O35 1.258 . S
C41 O38 1.247 . S
C41 O39 1.258 1_556 S
C42 O44 1.247 . S
C42 O46 1.256 . S
C43 O50 1.247 . S
C43 O51 1.258 1_655 S
O44 C42 1.247 . S
O44 Zn45 2.028 . S
Zn45 O44 2.028 . S
Zn45 O49 2.035 . S
Zn45 O51 2.035 . S
Zn45 O52 2.028 . S
O46 C42 1.256 . S
O46 Zn47 2.036 1_455 S
Zn47 O46 2.036 1_655 S
Zn47 O48 2.028 . S
Zn47 O50 2.028 . S
Zn47 O53 2.038 1_655 S
O48 Zn47 2.028 . S
O48 C54 1.247 . S
O49 Zn45 2.035 . S
O49 C54 1.258 1_455 S
O50 C43 1.247 . S
O50 Zn47 2.028 . S
O51 C43 1.258 1_455 S
O51 Zn45 2.035 . S
O52 Zn45 2.028 . S
O52 C55 1.247 . S
O53 Zn47 2.038 1_455 S
O53 C55 1.255 . S
C54 O48 1.247 . S
C54 O49 1.258 1_655 S
C55 O52 1.247 . S
C55 O53 1.255 . S
C56 O58 1.247 1_565 S
C56 O60 1.258 . S
C57 O64 1.247 . S
C57 O65 1.222 1_556 S
O58 C56 1.247 1_545 S
O58 Zn59 2.028 . S
Zn59 O58 2.028 . S
Zn59 O63 2.067 . S
Zn59 O65 2.067 . S
Zn59 O66 2.028 . S
O60 C56 1.258 . S
O60 Zn61 2.035 1_554 S
Zn61 O60 2.035 1_556 S
Zn61 O62 2.028 1_565 S
Zn61 O64 2.028 1_565 S
Zn61 O67 2.035 1_556 S
O62 Zn61 2.028 1_545 S
O62 C68 1.247 . S
O63 Zn59 2.067 . S
O63 C68 1.222 1_554 S
O64 C57 1.247 . S
O64 Zn61 2.028 1_545 S
O65 C57 1.222 1_554 S
O65 Zn59 2.067 . S
O66 Zn59 2.028 . S
O66 C69 1.247 1_545 S
O67 Zn61 2.035 1_554 S
O67 C69 1.258 . S
C68 O62 1.247 . S
C68 O63 1.222 1_556 S
C69 O66 1.247 1_565 S
C69 O67 1.258 . S
C70 O72 1.247 . S
C70 O74 1.258 . S
C71 O78 1.247 . S
C71 O79 1.258 . S
O72 C70 1.247 . S
O72 Zn73 2.028 . S
Zn73 O72 2.028 . S
Zn73 O77 2.035 . S
Zn73 O79 2.035 . S
Zn73 O80 2.028 . S
O74 C70 1.258 . S
O74 Zn75 2.035 . S
Zn75 O74 2.035 . S
Zn75 O76 2.028 . S
Zn75 O78 2.028 . S
Zn75 O81 2.035 . S
O76 Zn75 2.028 . S
O76 C82 1.247 . S
O77 Zn73 2.035 . S
O77 C82 1.258 . S
O78 C71 1.247 . S
O78 Zn75 2.028 . S
O79 C71 1.258 . S
O79 Zn73 2.035 . S
O80 Zn73 2.028 . S
O80 C83 1.247 . S
O81 Zn75 2.035 . S
O81 C83 1.258 . S
C82 O76 1.247 . S
C82 O77 1.258 . S
C83 O80 1.247 . S
C83 O81 1.258 . S
Mg84 O91 2.141 . S
Mg84 O92 2.048 . S
Mg84 O93 2.048 . S
Mg84 O96 2.141 . S
C85 O86 1.313 . S
C85 O92 1.195 . S
O86 C85 1.313 . S
C87 O88 1.245 . S
C87 O96 1.289 . S
O88 C87 1.245 . S
C89 O90 1.245 . S
C89 O91 1.289 . S
O90 C89 1.245 . S
O91 Mg84 2.141 . S
O91 C89 1.289 . S
O92 Mg84 2.048 . S
O92 C85 1.195 . S
O93 Mg84 2.048 . S
O93 C94 1.195 . S
C94 O93 1.195 . S
C94 O95 1.313 . S
O95 C94 1.313 . S
O96 Mg84 2.141 . S
O96 C87 1.289 . S
Mg97 O104 2.141 . S
Mg97 O105 2.048 . S
Mg97 O106 2.048 . S
Mg97 O109 2.141 . S
C98 O99 1.313 . S
C98 O105 1.195 . S
O99 C98 1.313 . S
C100 O101 1.245 . S
C100 O109 1.289 . S
O101 C100 1.245 . S
C102 O103 1.245 . S
C102 O104 1.289 . S
O103 C102 1.245 . S
O104 Mg97 2.141 . S
O104 C102 1.289 . S
O105 Mg97 2.048 . S
O105 C98 1.195 . S
O106 Mg97 2.048 . S
O106 C107 1.195 . S
C107 O106 1.195 . S
C107 O108 1.313 . S
O108 C107 1.313 . S
O109 Mg97 2.141 . S
O109 C100 1.289 . S
Mg110 O117 2.141 . S
Mg110 O118 2.048 . S
Mg110 O119 2.048 . S
Mg110 O122 2.141 . S
C111 O112 1.313 . S
C111 O118 1.195 . S
O112 C111 1.313 . S
C113 O114 1.245 . S
C113 O122 1.289 . S
O114 C113 1.245 . S
C115 O116 1.245 . S
C115 O117 1.289 . S
O116 C115 1.245 . S
O117 Mg110 2.141 . S
O117 C115 1.289 . S
O118 Mg110 2.048 . S
O118 C111 1.195 . S
O119 Mg110 2.048 . S
O119 C120 1.195 . S
C120 O119 1.195 . S
C120 O121 1.313 . S
O121 C120 1.313 . S
O122 Mg110 2.141 . S
O122 C113 1.289 . S
Mg123 O130 2.141 . S
Mg123 O131 2.048 . S
Mg123 O132 2.048 . S
Mg123 O135 2.141 . S
C124 O125 1.313 . S
C124 O131 1.195 . S
O125 C124 1.313 . S
C126 O127 1.245 . S
C126 O135 1.289 . S
O127 C126 1.245 . S
C128 O129 1.245 . S
C128 O130 1.289 . S
O129 C128 1.245 . S
O130 Mg123 2.141 . S
O130 C128 1.289 . S
O131 Mg123 2.048 . S
O131 C124 1.195 . S
O132 Mg123 2.048 . S
O132 C133 1.195 . S
C133 O132 1.195 . S
C133 O134 1.313 . S
O134 C133 1.313 . S
O135 Mg123 2.141 . S
O135 C126 1.289 . S
Mg136 O143 2.141 . S
Mg136 O144 2.048 . S
Mg136 O145 2.048 . S
Mg136 O148 2.141 . S
C137 O138 1.313 . S
C137 O144 1.195 . S
O138 C137 1.313 . S
C139 O140 1.245 . S
C139 O148 1.289 . S
O140 C139 1.245 . S
C141 O142 1.245 . S
C141 O143 1.289 . S
O142 C141 1.245 . S
O143 Mg136 2.141 . S
O143 C141 1.289 . S
O144 Mg136 2.048 . S
O144 C137 1.195 . S
O145 Mg136 2.048 . S
O145 C146 1.195 . S
C146 O145 1.195 . S
C146 O147 1.313 . S
O147 C146 1.313 . S
O148 Mg136 2.141 . S
O148 C139 1.289 . S
Mg149 O156 2.141 . S
Mg149 O157 2.048 . S
Mg149 O158 2.048 . S
Mg149 O161 2.141 . S
C150 O151 1.313 . S
C150 O157 1.195 . S
O151 C150 1.313 . S
C152 O153 1.245 . S
C152 O161 1.289 . S
O153 C152 1.245 . S
C154 O155 1.245 . S
C154 O156 1.289 . S
O155 C154 1.245 . S
O156 Mg149 2.141 . S
O156 C154 1.289 . S
O157 Mg149 2.048 . S
O157 C150 1.195 . S
O158 Mg149 2.048 . S
O158 C159 1.195 . S
C159 O158 1.195 . S
C159 O160 1.313 . S
O160 C159 1.313 . S
O161 Mg149 2.141 . S
O161 C152 1.289 . S
H162 C170 0.929 . S
H163 C172 0.930 . S
H164 C174 0.930 . S
H165 C177 0.929 . S
H166 C180 0.930 . S
H167 C182 0.960 . S
H168 C182 0.960 . S
H169 C182 0.960 . S
C170 H162 0.929 . S
C170 C171 1.377 . S
C170 C172 1.384 . S
C171 C170 1.377 . S
C171 C177 1.390 . S
C172 H163 0.930 . S
C172 C170 1.384 . S
C172 C173 1.372 . S
C173 C172 1.372 . S
C173 C174 1.400 . S
C173 C178 1.490 . S
C174 H164 0.930 . S
C174 C173 1.400 . S
C174 C177 1.386 . S
H175 C191 0.930 . S
H176 C192 0.931 . S
C177 H165 0.929 . S
C177 C171 1.390 . S
C177 C174 1.386 . S
C178 C173 1.490 . S
C178 C180 1.395 . S
C178 C181 1.403 . S
H179 C185 0.930 . S
C180 H166 0.930 . S
C180 C178 1.395 . S
C180 C183 1.403 . S
C181 C178 1.403 . S
C181 C182 1.524 . S
C181 C185 1.400 . S
C182 H167 0.960 . S
C182 H168 0.960 . S
C182 H169 0.960 . S
C182 C181 1.524 . S
C183 C180 1.403 . S
C183 C184 1.392 . S
C183 C187 1.495 . S
C184 C183 1.392 . S
C184 C185 1.385 . S
C184 C186 1.478 . S
C185 H179 0.930 . S
C185 C181 1.400 . S
C185 C184 1.385 . S
C186 C184 1.478 . S
C186 C188 1.381 . S
C186 C192 1.383 . S
C187 C183 1.495 . S
C187 H193 0.959 . S
C187 H194 0.961 . S
C187 H195 0.960 . S
C188 C186 1.381 . S
C188 C189 1.394 . S
C188 H196 0.930 . S
C189 C188 1.394 . S
C189 C190 1.383 . S
C189 H197 0.929 . S
C190 C189 1.383 . S
C190 C191 1.377 . S
C191 H175 0.930 . S
C191 C190 1.377 . S
C191 C192 1.379 . S
C192 H176 0.931 . S
C192 C186 1.383 . S
C192 C191 1.379 . S
H193 C187 0.959 . S
H194 C187 0.961 . S
H195 C187 0.960 . S
H196 C188 0.930 . S
H197 C189 0.929 . S
H198 C206 0.929 . S
H199 C208 0.930 . S
H200 C210 0.930 . S
H201 C213 0.929 . S
H202 C216 0.930 . S
H203 C218 0.960 . S
H204 C218 0.960 . S
H205 C218 0.960 . S
C206 H198 0.929 . S
C206 C207 1.377 . S
C206 C208 1.384 . S
C207 C206 1.377 . S
C207 C213 1.390 . S
C208 H199 0.930 . S
C208 C206 1.384 . S
C208 C209 1.372 . S
C209 C208 1.372 . S
C209 C210 1.400 . S
C209 C214 1.490 . S
C210 H200 0.930 . S
C210 C209 1.400 . S
C210 C213 1.386 . S
H211 C227 0.930 . S
H212 C228 0.931 . S
C213 H201 0.929 . S
C213 C207 1.390 . S
C213 C210 1.386 . S
C214 C209 1.490 . S
C214 C216 1.395 . S
C214 C217 1.403 . S
H215 C221 0.930 . S
C216 H202 0.930 . S
C216 C214 1.395 . S
C216 C219 1.403 . S
C217 C214 1.403 . S
C217 C218 1.524 . S
C217 C221 1.400 . S
C218 H203 0.960 . S
C218 H204 0.960 . S
C218 H205 0.960 . S
C218 C217 1.524 . S
C219 C216 1.403 . S
C219 C220 1.392 . S
C219 C223 1.495 . S
C220 C219 1.392 . S
C220 C221 1.385 . S
C220 C222 1.478 . S
C221 H215 0.930 . S
C221 C217 1.400 . S
C221 C220 1.385 . S
C222 C220 1.478 . S
C222 C224 1.381 . S
C222 C228 1.383 . S
C223 C219 1.495 . S
C223 H229 0.959 . S
C223 H230 0.961 . S
C223 H231 0.960 . S
C224 C222 1.381 . S
C224 C225 1.394 . S
C224 H232 0.930 . S
C225 C224 1.394 . S
C225 C226 1.383 . S
C225 H233 0.929 . S
C226 C225 1.383 . S
C226 C227 1.377 . S
C227 H211 0.930 . S
C227 C226 1.377 . S
C227 C228 1.379 . S
C228 H212 0.931 . S
C228 C222 1.383 . S
C228 C227 1.379 . S
H229 C223 0.959 . S
H230 C223 0.961 . S
H231 C223 0.960 . S
H232 C224 0.930 . S
H233 C225 0.929 . S
H234 C242 0.929 . S
H235 C244 0.930 . S
H236 C246 0.930 . S
H237 C249 0.929 . S
H238 C252 0.930 . S
H239 C254 0.960 . S
H240 C254 0.960 . S
H241 C254 0.960 . S
C242 H234 0.929 . S
C242 C243 1.377 . S
C242 C244 1.384 . S
C243 C242 1.377 . S
C243 C249 1.390 . S
C244 H235 0.930 . S
C244 C242 1.384 . S
C244 C245 1.372 . S
C245 C244 1.372 . S
C245 C246 1.400 . S
C245 C250 1.490 . S
C246 H236 0.930 . S
C246 C245 1.400 . S
C246 C249 1.386 . S
H247 C263 0.930 . S
H248 C264 0.931 . S
C249 H237 0.929 . S
C249 C243 1.390 . S
C249 C246 1.386 . S
C250 C245 1.490 . S
C250 C252 1.395 . S
C250 C253 1.403 . S
H251 C257 0.930 . S
C252 H238 0.930 . S
C252 C250 1.395 . S
C252 C255 1.403 . S
C253 C250 1.403 . S
C253 C254 1.524 . S
C253 C257 1.400 . S
C254 H239 0.960 . S
C254 H240 0.960 . S
C254 H241 0.960 . S
C254 C253 1.524 . S
C255 C252 1.403 . S
C255 C256 1.392 . S
C255 C259 1.495 . S
C256 C255 1.392 . S
C256 C257 1.385 . S
C256 C258 1.478 . S
C257 H251 0.930 . S
C257 C253 1.400 . S
C257 C256 1.385 . S
C258 C256 1.478 . S
C258 C260 1.381 . S
C258 C264 1.383 . S
C259 C255 1.495 . S
C259 H265 0.959 . S
C259 H266 0.961 . S
C259 H267 0.960 . S
C260 C258 1.381 . S
C260 C261 1.394 . S
C260 H268 0.930 . S
C261 C260 1.394 . S
C261 C262 1.383 . S
C261 H269 0.929 . S
C262 C261 1.383 . S
C262 C263 1.377 . S
C263 H247 0.930 . S
C263 C262 1.377 . S
C263 C264 1.379 . S
C264 H248 0.931 . S
C264 C258 1.383 . S
C264 C263 1.379 . S
H265 C259 0.959 . S
H266 C259 0.961 . S
H267 C259 0.960 . S
H268 C260 0.930 . S
H269 C261 0.929 . S
H270 C278 0.929 . S
H271 C280 0.930 . S
H272 C282 0.930 . S
H273 C285 0.929 1_455 S
H274 C288 0.930 . S
H275 C290 0.960 . S
H276 C290 0.960 . S
H277 C290 0.960 . S
C278 H270 0.929 . S
C278 C279 1.377 . S
C278 C280 1.384 . S
C279 C278 1.377 . S
C279 C285 1.390 . S
C280 H271 0.930 . S
C280 C278 1.384 . S
C280 C281 1.372 . S
C281 C280 1.372 . S
C281 C282 1.400 . S
C281 C286 1.490 . S
C282 H272 0.930 . S
C282 C281 1.400 . S
C282 C285 1.386 . S
H283 C299 0.930 . S
H284 C300 0.931 . S
C285 H273 0.929 1_655 S
C285 C279 1.390 . S
C285 C282 1.386 . S
C286 C281 1.490 . S
C286 C288 1.395 . S
C286 C289 1.403 . S
H287 C293 0.930 . S
C288 H274 0.930 . S
C288 C286 1.395 . S
C288 C291 1.403 . S
C289 C286 1.403 . S
C289 C290 1.524 . S
C289 C293 1.400 . S
C290 H275 0.960 . S
C290 H276 0.960 . S
C290 H277 0.960 . S
C290 C289 1.524 . S
C291 C288 1.403 . S
C291 C292 1.392 . S
C291 C295 1.495 . S
C292 C291 1.392 . S
C292 C293 1.385 . S
C292 C294 1.478 . S
C293 H287 0.930 . S
C293 C289 1.400 . S
C293 C292 1.385 . S
C294 C292 1.478 . S
C294 C296 1.381 . S
C294 C300 1.383 . S
C295 C291 1.495 . S
C295 H301 0.959 . S
C295 H302 0.961 . S
C295 H303 0.960 . S
C296 C294 1.381 . S
C296 C297 1.394 . S
C296 H304 0.930 . S
C297 C296 1.394 . S
C297 C298 1.383 . S
C297 H305 0.929 . S
C298 C297 1.383 . S
C298 C299 1.377 . S
C299 H283 0.930 . S
C299 C298 1.377 . S
C299 C300 1.379 . S
C300 H284 0.931 . S
C300 C294 1.383 . S
C300 C299 1.379 . S
H301 C295 0.959 . S
H302 C295 0.961 . S
H303 C295 0.960 . S
H304 C296 0.930 . S
H305 C297 0.929 . S
H306 C314 0.929 . S
H307 C316 0.930 . S
H308 C318 0.930 . S
H309 C321 0.929 . S
H310 C324 0.930 . S
H311 C326 0.960 . S
H312 C326 0.960 . S
H313 C326 0.960 . S
C314 H306 0.929 . S
C314 C315 1.377 . S
C314 C316 1.384 . S
C315 C314 1.377 . S
C315 C321 1.390 . S
C316 H307 0.930 . S
C316 C314 1.384 . S
C316 C317 1.372 . S
C317 C316 1.372 . S
C317 C318 1.400 . S
C317 C322 1.490 . S
C318 H308 0.930 . S
C318 C317 1.400 . S
C318 C321 1.386 . S
H319 C335 0.930 . S
H320 C336 0.931 . S
C321 H309 0.929 . S
C321 C315 1.390 . S
C321 C318 1.386 . S
C322 C317 1.490 . S
C322 C324 1.395 . S
C322 C325 1.403 . S
H323 C329 0.930 . S
C324 H310 0.930 . S
C324 C322 1.395 . S
C324 C327 1.403 . S
C325 C322 1.403 . S
C325 C326 1.524 . S
C325 C329 1.400 . S
C326 H311 0.960 . S
C326 H312 0.960 . S
C326 H313 0.960 . S
C326 C325 1.524 . S
C327 C324 1.403 . S
C327 C328 1.392 . S
C327 C331 1.495 . S
C328 C327 1.392 . S
C328 C329 1.385 . S
C328 C330 1.478 . S
C329 H323 0.930 . S
C329 C325 1.400 . S
C329 C328 1.385 . S
C330 C328 1.478 . S
C330 C332 1.381 . S
C330 C336 1.383 . S
C331 C327 1.495 . S
C331 H337 0.959 . S
C331 H338 0.961 . S
C331 H339 0.960 . S
C332 C330 1.381 . S
C332 C333 1.394 . S
C332 H340 0.930 . S
C333 C332 1.394 . S
C333 C334 1.383 . S
C333 H341 0.929 . S
C334 C333 1.383 . S
C334 C335 1.377 . S
C335 H319 0.930 . S
C335 C334 1.377 . S
C335 C336 1.379 . S
C336 H320 0.931 . S
C336 C330 1.383 . S
C336 C335 1.379 . S
H337 C331 0.959 . S
H338 C331 0.961 . S
H339 C331 0.960 . S
H340 C332 0.930 . S
H341 C333 0.929 . S
H342 C350 0.929 . S
H343 C352 0.930 . S
H344 C354 0.930 . S
H345 C357 0.929 . S
H346 C360 0.930 . S
H347 C362 0.960 . S
H348 C362 0.960 . S
H349 C362 0.960 . S
C350 H342 0.929 . S
C350 C351 1.377 . S
C350 C352 1.384 . S
C351 C350 1.377 . S
C351 C357 1.390 . S
C352 H343 0.930 . S
C352 C350 1.384 . S
C352 C353 1.372 . S
C353 C352 1.372 . S
C353 C354 1.400 . S
C353 C358 1.490 . S
C354 H344 0.930 . S
C354 C353 1.400 . S
C354 C357 1.386 . S
H355 C371 0.930 . S
H356 C372 0.931 . S
C357 H345 0.929 . S
C357 C351 1.390 . S
C357 C354 1.386 . S
C358 C353 1.490 . S
C358 C360 1.395 . S
C358 C361 1.403 . S
H359 C365 0.930 . S
C360 H346 0.930 . S
C360 C358 1.395 . S
C360 C363 1.403 . S
C361 C358 1.403 . S
C361 C362 1.524 . S
C361 C365 1.400 . S
C362 H347 0.960 . S
C362 H348 0.960 . S
C362 H349 0.960 . S
C362 C361 1.524 . S
C363 C360 1.403 . S
C363 C364 1.392 . S
C363 C367 1.495 . S
C364 C363 1.392 . S
C364 C365 1.385 . S
C364 C366 1.478 . S
C365 H359 0.930 . S
C365 C361 1.400 . S
C365 C364 1.385 . S
C366 C364 1.478 . S
C366 C368 1.381 . S
C366 C372 1.383 . S
C367 C363 1.495 . S
C367 H373 0.959 . S
C367 H374 0.961 . S
C367 H375 0.960 . S
C368 C366 1.381 . S
C368 C369 1.394 . S
C368 H376 0.930 . S
C369 C368 1.394 . S
C369 C370 1.383 . S
C369 H377 0.929 . S
C370 C369 1.383 . S
C370 C371 1.377 . S
C371 H355 0.930 . S
C371 C370 1.377 . S
C371 C372 1.379 . S
C372 H356 0.931 . S
C372 C366 1.383 . S
C372 C371 1.379 . S
H373 C367 0.959 . S
H374 C367 0.961 . S
H375 C367 0.960 . S
H376 C368 0.930 . S
H377 C369 0.929 . S
H378 C386 0.929 . S
H379 C388 0.930 . S
H380 C390 0.930 . S
H381 C393 0.929 1_545 S
H382 C396 0.930 . S
H383 C398 0.960 . S
H384 C398 0.960 . S
H385 C398 0.960 . S
C386 H378 0.929 . S
C386 C387 1.377 . S
C386 C388 1.384 . S
C387 C386 1.377 . S
C387 C393 1.390 . S
C388 H379 0.930 . S
C388 C386 1.384 . S
C388 C389 1.372 . S
C389 C388 1.372 . S
C389 C390 1.400 . S
C389 C394 1.490 . S
C390 H380 0.930 . S
C390 C389 1.400 . S
C390 C393 1.386 . S
H391 C407 0.930 . S
H392 C408 0.931 . S
C393 H381 0.929 1_565 S
C393 C387 1.390 . S
C393 C390 1.386 . S
C394 C389 1.490 . S
C394 C396 1.395 . S
C394 C397 1.403 . S
H395 C401 0.930 . S
C396 H382 0.930 . S
C396 C394 1.395 . S
C396 C399 1.403 . S
C397 C394 1.403 . S
C397 C398 1.524 . S
C397 C401 1.400 . S
C398 H383 0.960 . S
C398 H384 0.960 . S
C398 H385 0.960 . S
C398 C397 1.524 . S
C399 C396 1.403 . S
C399 C400 1.392 . S
C399 C403 1.495 . S
C400 C399 1.392 . S
C400 C401 1.385 . S
C400 C402 1.478 . S
C401 H395 0.930 . S
C401 C397 1.400 . S
C401 C400 1.385 . S
C402 C400 1.478 . S
C402 C404 1.381 . S
C402 C408 1.383 . S
C403 C399 1.495 . S
C403 H409 0.959 . S
C403 H410 0.961 . S
C403 H411 0.960 . S
C404 C402 1.381 . S
C404 C405 1.394 . S
C404 H412 0.930 . S
C405 C404 1.394 . S
C405 C406 1.383 . S
C405 H413 0.929 . S
C406 C405 1.383 . S
C406 C407 1.377 . S
C407 H391 0.930 . S
C407 C406 1.377 . S
C407 C408 1.379 . S
C408 H392 0.931 . S
C408 C402 1.383 . S
C408 C407 1.379 . S
H409 C403 0.959 . S
H410 C403 0.961 . S
H411 C403 0.960 . S
H412 C404 0.930 . S
H413 C405 0.929 . S
H414 C422 0.929 . S
H415 C424 0.930 . S
H416 C426 0.930 . S
H417 C429 0.929 . S
H418 C432 0.930 . S
H419 C434 0.960 . S
H420 C434 0.960 . S
H421 C434 0.960 . S
C422 H414 0.929 . S
C422 C423 1.377 . S
C422 C424 1.384 . S
C423 C422 1.377 . S
C423 C429 1.390 . S
C424 H415 0.930 . S
C424 C422 1.384 . S
C424 C425 1.372 . S
C425 C424 1.372 . S
C425 C426 1.400 . S
C425 C430 1.490 . S
C426 H416 0.930 . S
C426 C425 1.400 . S
C426 C429 1.386 . S
H427 C443 0.930 . S
H428 C444 0.931 . S
C429 H417 0.929 . S
C429 C423 1.390 . S
C429 C426 1.386 . S
C430 C425 1.490 . S
C430 C432 1.395 . S
C430 C433 1.403 . S
H431 C437 0.930 . S
C432 H418 0.930 . S
C432 C430 1.395 . S
C432 C435 1.403 . S
C433 C430 1.403 . S
C433 C434 1.524 . S
C433 C437 1.400 . S
C434 H419 0.960 . S
C434 H420 0.960 . S
C434 H421 0.960 . S
C434 C433 1.524 . S
C435 C432 1.403 . S
C435 C436 1.392 . S
C435 C439 1.495 . S
C436 C435 1.392 . S
C436 C437 1.385 . S
C436 C438 1.478 . S
C437 H431 0.930 . S
C437 C433 1.400 . S
C437 C436 1.385 . S
C438 C436 1.478 . S
C438 C440 1.381 . S
C438 C444 1.383 . S
C439 C435 1.495 . S
C439 H445 0.959 . S
C439 H446 0.961 . S
C439 H447 0.960 . S
C440 C438 1.381 . S
C440 C441 1.394 . S
C440 H448 0.930 . S
C441 C440 1.394 . S
C441 C442 1.383 . S
C441 H449 0.929 . S
C442 C441 1.383 . S
C442 C443 1.377 . S
C443 H427 0.930 . S
C443 C442 1.377 . S
C443 C444 1.379 . S
C444 H428 0.931 . S
C444 C438 1.383 . S
C444 C443 1.379 . S
H445 C439 0.959 . S
H446 C439 0.961 . S
H447 C439 0.960 . S
H448 C440 0.930 . S
H449 C441 0.929 . S
H450 C458 0.929 . S
H451 C460 0.930 . S
H452 C462 0.930 . S
H453 C465 0.929 . S
H454 C468 0.930 . S
H455 C470 0.960 . S
H456 C470 0.960 . S
H457 C470 0.960 . S
C458 H450 0.929 . S
C458 C459 1.377 . S
C458 C460 1.384 . S
C459 C458 1.377 . S
C459 C465 1.390 . S
C460 H451 0.930 . S
C460 C458 1.384 . S
C460 C461 1.372 . S
C461 C460 1.372 . S
C461 C462 1.400 . S
C461 C466 1.490 . S
C462 H452 0.930 . S
C462 C461 1.400 . S
C462 C465 1.386 . S
H463 C479 0.930 . S
H464 C480 0.931 . S
C465 H453 0.929 . S
C465 C459 1.390 . S
C465 C462 1.386 . S
C466 C461 1.490 . S
C466 C468 1.395 . S
C466 C469 1.403 . S
H467 C473 0.930 . S
C468 H454 0.930 . S
C468 C466 1.395 . S
C468 C471 1.403 . S
C469 C466 1.403 . S
C469 C470 1.524 . S
C469 C473 1.400 . S
C470 H455 0.960 . S
C470 H456 0.960 . S
C470 H457 0.960 . S
C470 C469 1.524 . S
C471 C468 1.403 . S
C471 C472 1.392 . S
C471 C475 1.495 . S
C472 C471 1.392 . S
C472 C473 1.385 . S
C472 C474 1.478 . S
C473 H467 0.930 . S
C473 C469 1.400 . S
C473 C472 1.385 . S
C474 C472 1.478 . S
C474 C476 1.381 . S
C474 C480 1.383 . S
C475 C471 1.495 . S
C475 H481 0.959 . S
C475 H482 0.961 . S
C475 H483 0.960 . S
C476 C474 1.381 . S
C476 C477 1.394 . S
C476 H484 0.930 . S
C477 C476 1.394 . S
C477 C478 1.383 . S
C477 H485 0.929 . S
C478 C477 1.383 . S
C478 C479 1.377 . S
C479 H463 0.930 . S
C479 C478 1.377 . S
C479 C480 1.379 . S
C480 H464 0.931 . S
C480 C474 1.383 . S
C480 C479 1.379 . S
H481 C475 0.959 . S
H482 C475 0.961 . S
H483 C475 0.960 . S
H484 C476 0.930 . S
H485 C477 0.929 . S
H486 C494 0.929 . S
H487 C496 0.930 . S
H488 C498 0.930 . S
H489 C501 0.929 . S
H490 C504 0.930 . S
H491 C506 0.960 . S
H492 C506 0.960 . S
H493 C506 0.960 . S
C494 H486 0.929 . S
C494 C495 1.377 . S
C494 C496 1.384 . S
C495 C494 1.377 . S
C495 C501 1.390 . S
C496 H487 0.930 . S
C496 C494 1.384 . S
C496 C497 1.372 . S
C497 C496 1.372 . S
C497 C498 1.400 . S
C497 C502 1.490 . S
C498 H488 0.930 . S
C498 C497 1.400 . S
C498 C501 1.386 . S
H499 C515 0.930 . S
H500 C516 0.931 . S
C501 H489 0.929 . S
C501 C495 1.390 . S
C501 C498 1.386 . S
C502 C497 1.490 . S
C502 C504 1.395 . S
C502 C505 1.403 . S
H503 C509 0.930 . S
C504 H490 0.930 . S
C504 C502 1.395 . S
C504 C507 1.403 . S
C505 C502 1.403 . S
C505 C506 1.524 . S
C505 C509 1.400 . S
C506 H491 0.960 . S
C506 H492 0.960 . S
C506 H493 0.960 . S
C506 C505 1.524 . S
C507 C504 1.403 . S
C507 C508 1.392 . S
C507 C511 1.495 . S
C508 C507 1.392 . S
C508 C509 1.385 . S
C508 C510 1.478 . S
C509 H503 0.930 . S
C509 C505 1.400 . S
C509 C508 1.385 . S
C510 C508 1.478 . S
C510 C512 1.381 . S
C510 C516 1.383 . S
C511 C507 1.495 . S
C511 H517 0.959 . S
C511 H518 0.961 . S
C511 H519 0.960 . S
C512 C510 1.381 . S
C512 C513 1.394 . S
C512 H520 0.930 . S
C513 C512 1.394 . S
C513 C514 1.383 . S
C513 H521 0.929 . S
C514 C513 1.383 . S
C514 C515 1.377 . S
C515 H499 0.930 . S
C515 C514 1.377 . S
C515 C516 1.379 . S
C516 H500 0.931 . S
C516 C510 1.383 . S
C516 C515 1.379 . S
H517 C511 0.959 . S
H518 C511 0.961 . S
H519 C511 0.960 . S
H520 C512 0.930 . S
H521 C513 0.929 . S
H522 C530 0.929 . S
H523 C532 0.930 . S
H524 C534 0.930 . S
H525 C537 0.929 . S
H526 C540 0.930 . S
H527 C542 0.960 . S
H528 C542 0.960 . S
H529 C542 0.960 . S
C530 H522 0.929 . S
C530 C531 1.377 . S
C530 C532 1.384 . S
C531 C530 1.377 . S
C531 C537 1.390 . S
C532 H523 0.930 . S
C532 C530 1.384 . S
C532 C533 1.372 . S
C533 C532 1.372 . S
C533 C534 1.400 . S
C533 C538 1.490 . S
C534 H524 0.930 . S
C534 C533 1.400 . S
C534 C537 1.386 . S
H535 C551 0.930 . S
H536 C552 0.931 . S
C537 H525 0.929 . S
C537 C531 1.390 . S
C537 C534 1.386 . S
C538 C533 1.490 . S
C538 C540 1.395 . S
C538 C541 1.403 . S
H539 C545 0.930 . S
C540 H526 0.930 . S
C540 C538 1.395 . S
C540 C543 1.403 . S
C541 C538 1.403 . S
C541 C542 1.524 . S
C541 C545 1.400 . S
C542 H527 0.960 . S
C542 H528 0.960 . S
C542 H529 0.960 . S
C542 C541 1.524 . S
C543 C540 1.403 . S
C543 C544 1.392 . S
C543 C547 1.495 . S
C544 C543 1.392 . S
C544 C545 1.385 . S
C544 C546 1.478 . S
C545 H539 0.930 . S
C545 C541 1.400 . S
C545 C544 1.385 . S
C546 C544 1.478 . S
C546 C548 1.381 . S
C546 C552 1.383 . S
C547 C543 1.495 . S
C547 H553 0.959 . S
C547 H554 0.961 . S
C547 H555 0.960 . S
C548 C546 1.381 . S
C548 C549 1.394 . S
C548 H556 0.930 . S
C549 C548 1.394 . S
C549 C550 1.383 . S
C549 H557 0.929 . S
C550 C549 1.383 . S
C550 C551 1.377 . S
C551 H535 0.930 . S
C551 C550 1.377 . S
C551 C552 1.379 . S
C552 H536 0.931 . S
C552 C546 1.383 . S
C552 C551 1.379 . S
H553 C547 0.959 . S
H554 C547 0.961 . S
H555 C547 0.960 . S
H556 C548 0.930 . S
H557 C549 0.929 . S
H558 C566 0.929 1_455 S
H559 C568 0.930 . S
H560 C570 0.930 . S
H561 C573 0.929 . S
H562 C576 0.930 . S
H563 C578 0.960 . S
H564 C578 0.960 . S
H565 C578 0.960 . S
C566 H558 0.929 1_655 S
C566 C567 1.377 . S
C566 C568 1.384 . S
C567 C566 1.377 . S
C567 C573 1.390 . S
C568 H559 0.930 . S
C568 C566 1.384 . S
C568 C569 1.372 . S
C569 C568 1.372 . S
C569 C570 1.400 . S
C569 C574 1.490 . S
C570 H560 0.930 . S
C570 C569 1.400 . S
C570 C573 1.386 . S
H571 C587 0.930 . S
H572 C588 0.931 . S
C573 H561 0.929 . S
C573 C567 1.390 . S
C573 C570 1.386 . S
C574 C569 1.490 . S
C574 C576 1.395 . S
C574 C577 1.403 . S
H575 C581 0.930 . S
C576 H562 0.930 . S
C576 C574 1.395 . S
C576 C579 1.403 . S
C577 C574 1.403 . S
C577 C578 1.524 . S
C577 C581 1.400 . S
C578 H563 0.960 . S
C578 H564 0.960 . S
C578 H565 0.960 . S
C578 C577 1.524 . S
C579 C576 1.403 . S
C579 C580 1.392 . S
C579 C583 1.495 . S
C580 C579 1.392 . S
C580 C581 1.385 . S
C580 C582 1.478 . S
C581 H575 0.930 . S
C581 C577 1.400 . S
C581 C580 1.385 . S
C582 C580 1.478 . S
C582 C584 1.381 . S
C582 C588 1.383 . S
C583 C579 1.495 . S
C583 H589 0.959 . S
C583 H590 0.961 . S
C583 H591 0.960 . S
C584 C582 1.381 . S
C584 C585 1.394 . S
C584 H592 0.930 . S
C585 C584 1.394 . S
C585 C586 1.383 . S
C585 H593 0.929 . S
C586 C585 1.383 . S
C586 C587 1.377 . S
C587 H571 0.930 . S
C587 C586 1.377 . S
C587 C588 1.379 . S
C588 H572 0.931 . S
C588 C582 1.383 . S
C588 C587 1.379 . S
H589 C583 0.959 . S
H590 C583 0.961 . S
H591 C583 0.960 . S
H592 C584 0.930 . S
H593 C585 0.929 . S
H594 C602 0.929 1_455 S
H595 C604 0.930 . S
H596 C606 0.930 . S
H597 C609 0.929 . S
H598 C612 0.930 . S
H599 C614 0.960 . S
H600 C614 0.960 . S
H601 C614 0.960 . S
C602 H594 0.929 1_655 S
C602 C603 1.377 . S
C602 C604 1.384 . S
C603 C602 1.377 . S
C603 C609 1.390 . S
C604 H595 0.930 . S
C604 C602 1.384 . S
C604 C605 1.372 . S
C605 C604 1.372 . S
C605 C606 1.400 . S
C605 C610 1.490 . S
C606 H596 0.930 . S
C606 C605 1.400 . S
C606 C609 1.386 . S
H607 C623 0.930 . S
H608 C624 0.931 . S
C609 H597 0.929 . S
C609 C603 1.390 . S
C609 C606 1.386 . S
C610 C605 1.490 . S
C610 C612 1.395 . S
C610 C613 1.403 . S
H611 C617 0.930 . S
C612 H598 0.930 . S
C612 C610 1.395 . S
C612 C615 1.403 . S
C613 C610 1.403 . S
C613 C614 1.524 . S
C613 C617 1.400 . S
C614 H599 0.960 . S
C614 H600 0.960 . S
C614 H601 0.960 . S
C614 C613 1.524 . S
C615 C612 1.403 . S
C615 C616 1.392 . S
C615 C619 1.495 . S
C616 C615 1.392 . S
C616 C617 1.385 . S
C616 C618 1.478 . S
C617 H611 0.930 . S
C617 C613 1.400 . S
C617 C616 1.385 . S
C618 C616 1.478 . S
C618 C620 1.381 . S
C618 C624 1.383 . S
C619 C615 1.495 . S
C619 H625 0.959 . S
C619 H626 0.961 . S
C619 H627 0.960 . S
C620 C618 1.381 . S
C620 C621 1.394 . S
C620 H628 0.930 . S
C621 C620 1.394 . S
C621 C622 1.383 . S
C621 H629 0.929 . S
C622 C621 1.383 . S
C622 C623 1.377 . S
C623 H607 0.930 . S
C623 C622 1.377 . S
C623 C624 1.379 . S
C624 H608 0.931 . S
C624 C618 1.383 . S
C624 C623 1.379 . S
H625 C619 0.959 . S
H626 C619 0.961 . S
H627 C619 0.960 . S
H628 C620 0.930 . S
H629 C621 0.929 . S
H630 C638 0.929 . S
H631 C640 0.930 . S
H632 C642 0.930 . S
H633 C645 0.929 . S
H634 C648 0.930 . S
H635 C650 0.960 . S
H636 C650 0.960 . S
H637 C650 0.960 . S
C638 H630 0.929 . S
C638 C639 1.377 . S
C638 C640 1.384 . S
C639 C638 1.377 . S
C639 C645 1.390 . S
C640 H631 0.930 . S
C640 C638 1.384 . S
C640 C641 1.372 . S
C641 C640 1.372 . S
C641 C642 1.400 . S
C641 C646 1.490 . S
C642 H632 0.930 . S
C642 C641 1.400 . S
C642 C645 1.386 . S
H643 C659 0.930 . S
H644 C660 0.931 . S
C645 H633 0.929 . S
C645 C639 1.390 . S
C645 C642 1.386 . S
C646 C641 1.490 . S
C646 C648 1.395 . S
C646 C649 1.403 . S
H647 C653 0.930 . S
C648 H634 0.930 . S
C648 C646 1.395 . S
C648 C651 1.403 . S
C649 C646 1.403 . S
C649 C650 1.524 . S
C649 C653 1.400 . S
C650 H635 0.960 . S
C650 H636 0.960 . S
C650 H637 0.960 . S
C650 C649 1.524 . S
C651 C648 1.403 . S
C651 C652 1.392 . S
C651 C655 1.495 . S
C652 C651 1.392 . S
C652 C653 1.385 . S
C652 C654 1.478 . S
C653 H647 0.930 . S
C653 C649 1.400 . S
C653 C652 1.385 . S
C654 C652 1.478 . S
C654 C656 1.381 . S
C654 C660 1.383 . S
C655 C651 1.495 . S
C655 H661 0.959 . S
C655 H662 0.961 . S
C655 H663 0.960 . S
C656 C654 1.381 . S
C656 C657 1.394 . S
C656 H664 0.930 . S
C657 C656 1.394 . S
C657 C658 1.383 . S
C657 H665 0.929 . S
C658 C657 1.383 . S
C658 C659 1.377 . S
C659 H643 0.930 . S
C659 C658 1.377 . S
C659 C660 1.379 . S
C660 H644 0.931 . S
C660 C654 1.383 . S
C660 C659 1.379 . S
H661 C655 0.959 . S
H662 C655 0.961 . S
H663 C655 0.960 . S
H664 C656 0.930 . S
H665 C657 0.929 . S
H666 C674 0.929 . S
H667 C676 0.930 . S
H668 C678 0.930 . S
H669 C681 0.929 . S
H670 C684 0.930 . S
H671 C686 0.960 . S
H672 C686 0.960 . S
H673 C686 0.960 . S
C674 H666 0.929 . S
C674 C675 1.377 . S
C674 C676 1.384 . S
C675 C674 1.377 . S
C675 C681 1.390 . S
C676 H667 0.930 . S
C676 C674 1.384 . S
C676 C677 1.372 . S
C677 C676 1.372 . S
C677 C678 1.400 . S
C677 C682 1.490 . S
C678 H668 0.930 . S
C678 C677 1.400 . S
C678 C681 1.386 . S
H679 C695 0.930 . S
H680 C696 0.931 . S
C681 H669 0.929 . S
C681 C675 1.390 . S
C681 C678 1.386 . S
C682 C677 1.490 . S
C682 C684 1.395 . S
C682 C685 1.403 . S
H683 C689 0.930 . S
C684 H670 0.930 . S
C684 C682 1.395 . S
C684 C687 1.403 . S
C685 C682 1.403 . S
C685 C686 1.524 . S
C685 C689 1.400 . S
C686 H671 0.960 . S
C686 H672 0.960 . S
C686 H673 0.960 . S
C686 C685 1.524 . S
C687 C684 1.403 . S
C687 C688 1.392 . S
C687 C691 1.495 . S
C688 C687 1.392 . S
C688 C689 1.385 . S
C688 C690 1.478 . S
C689 H683 0.930 . S
C689 C685 1.400 . S
C689 C688 1.385 . S
C690 C688 1.478 . S
C690 C692 1.381 . S
C690 C696 1.383 . S
C691 C687 1.495 . S
C691 H697 0.959 . S
C691 H698 0.961 . S
C691 H699 0.960 . S
C692 C690 1.381 . S
C692 C693 1.394 . S
C692 H700 0.930 . S
C693 C692 1.394 . S
C693 C694 1.383 . S
C693 H701 0.929 . S
C694 C693 1.383 . S
C694 C695 1.377 . S
C695 H679 0.930 . S
C695 C694 1.377 . S
C695 C696 1.379 . S
C696 H680 0.931 . S
C696 C690 1.383 . S
C696 C695 1.379 . S
H697 C691 0.959 . S
H698 C691 0.961 . S
H699 C691 0.960 . S
H700 C692 0.930 . S
H701 C693 0.929 . S
H702 C710 0.929 . S
H703 C712 0.930 . S
H704 C714 0.930 . S
H705 C717 0.929 . S
H706 C720 0.930 . S
H707 C722 0.960 . S
H708 C722 0.960 . S
H709 C722 0.960 . S
C710 H702 0.929 . S
C710 C711 1.377 . S
C710 C712 1.384 . S
C711 C710 1.377 . S
C711 C717 1.390 . S
C712 H703 0.930 . S
C712 C710 1.384 . S
C712 C713 1.372 . S
C713 C712 1.372 . S
C713 C714 1.400 . S
C713 C718 1.490 . S
C714 H704 0.930 . S
C714 C713 1.400 . S
C714 C717 1.386 . S
H715 C731 0.930 . S
H716 C732 0.931 . S
C717 H705 0.929 . S
C717 C711 1.390 . S
C717 C714 1.386 . S
C718 C713 1.490 . S
C718 C720 1.395 . S
C718 C721 1.403 . S
H719 C725 0.930 . S
C720 H706 0.930 . S
C720 C718 1.395 . S
C720 C723 1.403 . S
C721 C718 1.403 . S
C721 C722 1.524 . S
C721 C725 1.400 . S
C722 H707 0.960 . S
C722 H708 0.960 . S
C722 H709 0.960 . S
C722 C721 1.524 . S
C723 C720 1.403 . S
C723 C724 1.392 . S
C723 C727 1.495 . S
C724 C723 1.392 . S
C724 C725 1.385 . S
C724 C726 1.478 . S
C725 H719 0.930 . S
C725 C721 1.400 . S
C725 C724 1.385 . S
C726 C724 1.478 . S
C726 C728 1.381 . S
C726 C732 1.383 . S
C727 C723 1.495 . S
C727 H733 0.959 . S
C727 H734 0.961 . S
C727 H735 0.960 . S
C728 C726 1.381 . S
C728 C729 1.394 . S
C728 H736 0.930 . S
C729 C728 1.394 . S
C729 C730 1.383 . S
C729 H737 0.929 . S
C730 C729 1.383 . S
C730 C731 1.377 . S
C731 H715 0.930 . S
C731 C730 1.377 . S
C731 C732 1.379 . S
C732 H716 0.931 . S
C732 C726 1.383 . S
C732 C731 1.379 . S
H733 C727 0.959 . S
H734 C727 0.961 . S
H735 C727 0.960 . S
H736 C728 0.930 . S
H737 C729 0.929 . S
H738 C746 0.929 . S
H739 C748 0.930 . S
H740 C750 0.930 . S
H741 C753 0.929 . S
H742 C756 0.930 . S
H743 C758 0.960 . S
H744 C758 0.960 . S
H745 C758 0.960 . S
C746 H738 0.929 . S
C746 C747 1.377 . S
C746 C748 1.384 . S
C747 C746 1.377 . S
C747 C753 1.390 . S
C748 H739 0.930 . S
C748 C746 1.384 . S
C748 C749 1.372 . S
C749 C748 1.372 . S
C749 C750 1.400 . S
C749 C754 1.490 . S
C750 H740 0.930 . S
C750 C749 1.400 . S
C750 C753 1.386 . S
H751 C767 0.930 . S
H752 C768 0.931 . S
C753 H741 0.929 . S
C753 C747 1.390 . S
C753 C750 1.386 . S
C754 C749 1.490 . S
C754 C756 1.395 . S
C754 C757 1.403 . S
H755 C761 0.930 . S
C756 H742 0.930 . S
C756 C754 1.395 . S
C756 C759 1.403 . S
C757 C754 1.403 . S
C757 C758 1.524 . S
C757 C761 1.400 . S
C758 H743 0.960 . S
C758 H744 0.960 . S
C758 H745 0.960 . S
C758 C757 1.524 . S
C759 C756 1.403 . S
C759 C760 1.392 . S
C759 C763 1.495 . S
C760 C759 1.392 . S
C760 C761 1.385 . S
C760 C762 1.478 . S
C761 H755 0.930 . S
C761 C757 1.400 . S
C761 C760 1.385 . S
C762 C760 1.478 . S
C762 C764 1.381 . S
C762 C768 1.383 . S
C763 C759 1.495 . S
C763 H769 0.959 . S
C763 H770 0.961 . S
C763 H771 0.960 . S
C764 C762 1.381 . S
C764 C765 1.394 . S
C764 H772 0.930 . S
C765 C764 1.394 . S
C765 C766 1.383 . S
C765 H773 0.929 . S
C766 C765 1.383 . S
C766 C767 1.377 . S
C767 H751 0.930 . S
C767 C766 1.377 . S
C767 C768 1.379 . S
C768 H752 0.931 . S
C768 C762 1.383 . S
C768 C767 1.379 . S
H769 C763 0.959 . S
H770 C763 0.961 . S
H771 C763 0.960 . S
H772 C764 0.930 . S
H773 C765 0.929 . S
H774 C782 0.929 . S
H775 C784 0.930 . S
H776 C786 0.930 . S
H777 C789 0.929 . S
H778 C792 0.930 . S
H779 C794 0.960 . S
H780 C794 0.960 . S
H781 C794 0.960 . S
C782 H774 0.929 . S
C782 C783 1.377 . S
C782 C784 1.384 . S
C783 C782 1.377 . S
C783 C789 1.390 . S
C784 H775 0.930 . S
C784 C782 1.384 . S
C784 C785 1.372 . S
C785 C784 1.372 . S
C785 C786 1.400 . S
C785 C790 1.490 . S
C786 H776 0.930 . S
C786 C785 1.400 . S
C786 C789 1.386 . S
H787 C803 0.930 . S
H788 C804 0.931 . S
C789 H777 0.929 . S
C789 C783 1.390 . S
C789 C786 1.386 . S
C790 C785 1.490 . S
C790 C792 1.395 . S
C790 C793 1.403 . S
H791 C797 0.930 . S
C792 H778 0.930 . S
C792 C790 1.395 . S
C792 C795 1.403 . S
C793 C790 1.403 . S
C793 C794 1.524 . S
C793 C797 1.400 . S
C794 H779 0.960 . S
C794 H780 0.960 . S
C794 H781 0.960 . S
C794 C793 1.524 . S
C795 C792 1.403 . S
C795 C796 1.392 . S
C795 C799 1.495 . S
C796 C795 1.392 . S
C796 C797 1.385 . S
C796 C798 1.478 . S
C797 H791 0.930 . S
C797 C793 1.400 . S
C797 C796 1.385 . S
C798 C796 1.478 . S
C798 C800 1.381 . S
C798 C804 1.383 . S
C799 C795 1.495 . S
C799 H805 0.959 . S
C799 H806 0.961 . S
C799 H807 0.960 . S
C800 C798 1.381 . S
C800 C801 1.394 . S
C800 H808 0.930 . S
C801 C800 1.394 . S
C801 C802 1.383 . S
C801 H809 0.929 . S
C802 C801 1.383 . S
C802 C803 1.377 . S
C803 H787 0.930 . S
C803 C802 1.377 . S
C803 C804 1.379 . S
C804 H788 0.931 . S
C804 C798 1.383 . S
C804 C803 1.379 . S
H805 C799 0.959 . S
H806 C799 0.961 . S
H807 C799 0.960 . S
H808 C800 0.930 . S
H809 C801 0.929 . S
H810 C818 0.929 . S
H811 C820 0.930 . S
H812 C822 0.930 . S
H813 C825 0.929 . S
H814 C828 0.930 . S
H815 C830 0.960 . S
H816 C830 0.960 . S
H817 C830 0.960 . S
C818 H810 0.929 . S
C818 C819 1.377 . S
C818 C820 1.384 . S
C819 C818 1.377 . S
C819 C825 1.390 . S
C820 H811 0.930 . S
C820 C818 1.384 . S
C820 C821 1.372 . S
C821 C820 1.372 . S
C821 C822 1.400 . S
C821 C826 1.490 . S
C822 H812 0.930 . S
C822 C821 1.400 . S
C822 C825 1.386 . S
H823 C839 0.930 . S
H824 C840 0.931 . S
C825 H813 0.929 . S
C825 C819 1.390 . S
C825 C822 1.386 . S
C826 C821 1.490 . S
C826 C828 1.395 . S
C826 C829 1.403 . S
H827 C833 0.930 . S
C828 H814 0.930 . S
C828 C826 1.395 . S
C828 C831 1.403 . S
C829 C826 1.403 . S
C829 C830 1.524 . S
C829 C833 1.400 . S
C830 H815 0.960 . S
C830 H816 0.960 . S
C830 H817 0.960 . S
C830 C829 1.524 . S
C831 C828 1.403 . S
C831 C832 1.392 . S
C831 C835 1.495 . S
C832 C831 1.392 . S
C832 C833 1.385 . S
C832 C834 1.478 . S
C833 H827 0.930 . S
C833 C829 1.400 . S
C833 C832 1.385 . S
C834 C832 1.478 . S
C834 C836 1.381 . S
C834 C840 1.383 . S
C835 C831 1.495 . S
C835 H841 0.959 . S
C835 H842 0.961 . S
C835 H843 0.960 . S
C836 C834 1.381 . S
C836 C837 1.394 . S
C836 H844 0.930 . S
C837 C836 1.394 . S
C837 C838 1.383 . S
C837 H845 0.929 . S
C838 C837 1.383 . S
C838 C839 1.377 . S
C839 H823 0.930 . S
C839 C838 1.377 . S
C839 C840 1.379 . S
C840 H824 0.931 . S
C840 C834 1.383 . S
C840 C839 1.379 . S
H841 C835 0.959 . S
H842 C835 0.961 . S
H843 C835 0.960 . S
H844 C836 0.930 . S
H845 C837 0.929 . S
H846 C854 0.929 . S
H847 C856 0.930 . S
H848 C858 0.930 . S
H849 C861 0.929 . S
H850 C864 0.930 . S
H851 C866 0.960 . S
H852 C866 0.960 . S
H853 C866 0.960 . S
C854 H846 0.929 . S
C854 C855 1.377 . S
C854 C856 1.384 . S
C855 C854 1.377 . S
C855 C861 1.390 . S
C856 H847 0.930 . S
C856 C854 1.384 . S
C856 C857 1.372 . S
C857 C856 1.372 . S
C857 C858 1.400 . S
C857 C862 1.490 . S
C858 H848 0.930 . S
C858 C857 1.400 . S
C858 C861 1.386 . S
H859 C875 0.930 . S
H860 C876 0.931 . S
C861 H849 0.929 . S
C861 C855 1.390 . S
C861 C858 1.386 . S
C862 C857 1.490 . S
C862 C864 1.395 . S
C862 C865 1.403 . S
H863 C869 0.930 . S
C864 H850 0.930 . S
C864 C862 1.395 . S
C864 C867 1.403 . S
C865 C862 1.403 . S
C865 C866 1.524 . S
C865 C869 1.400 . S
C866 H851 0.960 . S
C866 H852 0.960 . S
C866 H853 0.960 . S
C866 C865 1.524 . S
C867 C864 1.403 . S
C867 C868 1.392 . S
C867 C871 1.495 . S
C868 C867 1.392 . S
C868 C869 1.385 . S
C868 C870 1.478 . S
C869 H863 0.930 . S
C869 C865 1.400 . S
C869 C868 1.385 . S
C870 C868 1.478 . S
C870 C872 1.381 . S
C870 C876 1.383 . S
C871 C867 1.495 . S
C871 H877 0.959 . S
C871 H878 0.961 . S
C871 H879 0.960 . S
C872 C870 1.381 . S
C872 C873 1.394 . S
C872 H880 0.930 . S
C873 C872 1.394 . S
C873 C874 1.383 . S
C873 H881 0.929 . S
C874 C873 1.383 . S
C874 C875 1.377 . S
C875 H859 0.930 . S
C875 C874 1.377 . S
C875 C876 1.379 . S
C876 H860 0.931 . S
C876 C870 1.383 . S
C876 C875 1.379 . S
H877 C871 0.959 . S
H878 C871 0.961 . S
H879 C871 0.960 . S
H880 C872 0.930 . S
H881 C873 0.929 . S
H882 C890 0.929 . S
H883 C892 0.930 . S
H884 C894 0.930 . S
H885 C897 0.905 1_455 S
H886 C900 0.930 . S
H887 C902 0.960 . S
H888 C902 0.960 . S
H889 C902 0.960 . S
C890 H882 0.929 . S
C890 C891 1.377 . S
C890 C892 1.384 . S
C891 C890 1.377 . S
C891 C897 1.390 . S
C892 H883 0.930 . S
C892 C890 1.384 . S
C892 C893 1.372 . S
C893 C892 1.372 . S
C893 C894 1.400 . S
C893 C898 1.490 . S
C894 H884 0.930 . S
C894 C893 1.400 . S
C894 C897 1.386 . S
H895 C911 0.930 . S
H896 C912 0.931 . S
C897 H885 0.905 1_655 S
C897 C891 1.390 . S
C897 C894 1.386 . S
C898 C893 1.490 . S
C898 C900 1.395 . S
C898 C901 1.403 . S
H899 C905 0.930 . S
C900 H886 0.930 . S
C900 C898 1.395 . S
C900 C903 1.403 . S
C901 C898 1.403 . S
C901 C902 1.524 . S
C901 C905 1.400 . S
C902 H887 0.960 . S
C902 H888 0.960 . S
C902 H889 0.960 . S
C902 C901 1.524 . S
C903 C900 1.403 . S
C903 C904 1.392 . S
C903 C907 1.495 . S
C904 C903 1.392 . S
C904 C905 1.385 . S
C904 C906 1.478 . S
C905 H899 0.930 . S
C905 C901 1.400 . S
C905 C904 1.385 . S
C906 C904 1.478 . S
C906 C908 1.381 . S
C906 C912 1.383 . S
C907 C903 1.495 . S
C907 H913 0.959 . S
C907 H914 0.961 . S
C907 H915 0.960 . S
C908 C906 1.381 . S
C908 C909 1.394 . S
C908 H916 0.930 . S
C909 C908 1.394 . S
C909 C910 1.383 . S
C909 H917 0.929 . S
C910 C909 1.383 . S
C910 C911 1.377 . S
C911 H895 0.930 . S
C911 C910 1.377 . S
C911 C912 1.379 . S
C912 H896 0.931 . S
C912 C906 1.383 . S
C912 C911 1.379 . S
H913 C907 0.959 . S
H914 C907 0.961 . S
H915 C907 0.960 . S
H916 C908 0.930 . S
H917 C909 0.929 . S
H918 C926 0.929 . S
H919 C928 0.930 . S
H920 C930 0.930 . S
H921 C933 0.929 . S
H922 C936 0.930 . S
H923 C938 0.960 . S
H924 C938 0.960 . S
H925 C938 0.960 . S
C926 H918 0.929 . S
C926 C927 1.377 . S
C926 C928 1.384 . S
C927 C926 1.377 . S
C927 C933 1.390 . S
C928 H919 0.930 . S
C928 C926 1.384 . S
C928 C929 1.372 . S
C929 C928 1.372 . S
C929 C930 1.400 . S
C929 C934 1.490 . S
C930 H920 0.930 . S
C930 C929 1.400 . S
C930 C933 1.386 . S
H931 C947 0.930 . S
H932 C948 0.931 . S
C933 H921 0.929 . S
C933 C927 1.390 . S
C933 C930 1.386 . S
C934 C929 1.490 . S
C934 C936 1.395 . S
C934 C937 1.403 . S
H935 C941 0.930 . S
C936 H922 0.930 . S
C936 C934 1.395 . S
C936 C939 1.403 . S
C937 C934 1.403 . S
C937 C938 1.524 . S
C937 C941 1.400 . S
C938 H923 0.960 . S
C938 H924 0.960 . S
C938 H925 0.960 . S
C938 C937 1.524 . S
C939 C936 1.403 . S
C939 C940 1.392 . S
C939 C943 1.495 . S
C940 C939 1.392 . S
C940 C941 1.385 . S
C940 C942 1.478 . S
C941 H935 0.930 . S
C941 C937 1.400 . S
C941 C940 1.385 . S
C942 C940 1.478 . S
C942 C944 1.381 . S
C942 C948 1.383 . S
C943 C939 1.495 . S
C943 H949 0.959 . S
C943 H950 0.961 . S
C943 H951 0.960 . S
C944 C942 1.381 . S
C944 C945 1.394 . S
C944 H952 0.930 . S
C945 C944 1.394 . S
C945 C946 1.383 . S
C945 H953 0.929 . S
C946 C945 1.383 . S
C946 C947 1.377 . S
C947 H931 0.930 . S
C947 C946 1.377 . S
C947 C948 1.379 . S
C948 H932 0.931 . S
C948 C942 1.383 . S
C948 C947 1.379 . S
H949 C943 0.959 . S
H950 C943 0.961 . S
H951 C943 0.960 . S
H952 C944 0.930 . S
H953 C945 0.929 . S
H954 C962 0.929 . S
H955 C964 0.930 . S
H956 C966 0.930 . S
H957 C969 0.929 . S
H958 C972 0.930 . S
H959 C974 0.960 . S
H960 C974 0.960 . S
H961 C974 0.960 . S
C962 H954 0.929 . S
C962 C963 1.377 . S
C962 C964 1.384 . S
C963 C962 1.377 . S
C963 C969 1.390 . S
C964 H955 0.930 . S
C964 C962 1.384 . S
C964 C965 1.372 . S
C965 C964 1.372 . S
C965 C966 1.400 . S
C965 C970 1.490 . S
C966 H956 0.930 . S
C966 C965 1.400 . S
C966 C969 1.386 . S
H967 C983 0.930 . S
H968 C984 0.931 . S
C969 H957 0.929 . S
C969 C963 1.390 . S
C969 C966 1.386 . S
C970 C965 1.490 . S
C970 C972 1.395 . S
C970 C973 1.403 . S
H971 C977 0.930 . S
C972 H958 0.930 . S
C972 C970 1.395 . S
C972 C975 1.403 . S
C973 C970 1.403 . S
C973 C974 1.524 . S
C973 C977 1.400 . S
C974 H959 0.960 . S
C974 H960 0.960 . S
C974 H961 0.960 . S
C974 C973 1.524 . S
C975 C972 1.403 . S
C975 C976 1.392 . S
C975 C979 1.495 . S
C976 C975 1.392 . S
C976 C977 1.385 . S
C976 C978 1.478 . S
C977 H971 0.930 . S
C977 C973 1.400 . S
C977 C976 1.385 . S
C978 C976 1.478 . S
C978 C980 1.381 . S
C978 C984 1.383 . S
C979 C975 1.495 . S
C979 H985 0.959 . S
C979 H986 0.961 . S
C979 H987 0.960 . S
C980 C978 1.381 . S
C980 C981 1.394 . S
C980 H988 0.930 . S
C981 C980 1.394 . S
C981 C982 1.383 . S
C981 H989 0.929 . S
C982 C981 1.383 . S
C982 C983 1.377 . S
C983 H967 0.930 . S
C983 C982 1.377 . S
C983 C984 1.379 . S
C984 H968 0.931 . S
C984 C978 1.383 . S
C984 C983 1.379 . S
H985 C979 0.959 . S
H986 C979 0.961 . S
H987 C979 0.960 . S
H988 C980 0.930 . S
H989 C981 0.929 . S
H990 C998 0.929 . S
H991 C1000 0.930 . S
H992 C1002 0.930 . S
H993 C1005 0.929 . S
H994 C1008 0.930 . S
H995 C1010 0.960 . S
H996 C1010 0.960 . S
H997 C1010 0.960 . S
C998 H990 0.929 . S
C998 C999 1.377 . S
C998 C1000 1.384 . S
C999 C998 1.377 . S
C999 C1005 1.390 . S
C1000 H991 0.930 . S
C1000 C998 1.384 . S
C1000 C1001 1.372 . S
C1001 C1000 1.372 . S
C1001 C1002 1.400 . S
C1001 C1006 1.490 . S
C1002 H992 0.930 . S
C1002 C1001 1.400 . S
C1002 C1005 1.386 . S
H1003 C1019 0.930 . S
H1004 C1020 0.931 . S
C1005 H993 0.929 . S
C1005 C999 1.390 . S
C1005 C1002 1.386 . S
C1006 C1001 1.490 . S
C1006 C1008 1.395 . S
C1006 C1009 1.403 . S
H1007 C1013 0.930 . S
C1008 H994 0.930 . S
C1008 C1006 1.395 . S
C1008 C1011 1.403 . S
C1009 C1006 1.403 . S
C1009 C1010 1.524 . S
C1009 C1013 1.400 . S
C1010 H995 0.960 . S
C1010 H996 0.960 . S
C1010 H997 0.960 . S
C1010 C1009 1.524 . S
C1011 C1008 1.403 . S
C1011 C1012 1.392 . S
C1011 C1015 1.495 . S
C1012 C1011 1.392 . S
C1012 C1013 1.385 . S
C1012 C1014 1.478 . S
C1013 H1007 0.930 . S
C1013 C1009 1.400 . S
C1013 C1012 1.385 . S
C1014 C1012 1.478 . S
C1014 C1016 1.381 . S
C1014 C1020 1.383 . S
C1015 C1011 1.495 . S
C1015 H1021 0.959 . S
C1015 H1022 0.961 . S
C1015 H1023 0.960 . S
C1016 C1014 1.381 . S
C1016 C1017 1.394 . S
C1016 H1024 0.930 . S
C1017 C1016 1.394 . S
C1017 C1018 1.383 . S
C1017 H1025 0.929 . S
C1018 C1017 1.383 . S
C1018 C1019 1.377 . S
C1019 H1003 0.930 . S
C1019 C1018 1.377 . S
C1019 C1020 1.379 . S
C1020 H1004 0.931 . S
C1020 C1014 1.383 . S
C1020 C1019 1.379 . S
H1021 C1015 0.959 . S
H1022 C1015 0.961 . S
H1023 C1015 0.960 . S
H1024 C1016 0.930 . S
H1025 C1017 0.929 . S
C171 C13 1.693 . S
C190 C85 1.672 . S
C207 C27 1.693 . S
C226 C98 1.674 . S
C262 C120 1.601 . S
C243 C29 1.692 . S
C298 C133 1.601 . S
C279 C54 1.693 . S
C334 C146 1.648 . S
C315 C69 1.694 . S
C370 C159 1.604 . S
C351 C83 1.694 . S
C387 C15 1.691 . S
C406 C115 1.590 . S
C423 C41 1.691 . S
C442 C128 1.631 . S
C478 C141 1.626 . S
C459 C42 1.692 . S
C514 C154 1.608 . S
C495 C57 1.690 . S
C531 C71 1.691 . S
C550 C87 1.690 . S
C586 C100 1.691 . S
C567 C1 1.691 . S
C622 C126 1.619 . S
C603 C12 1.690 . S
C639 C26 1.690 . S
C658 C139 1.579 . S
C694 C152 1.634 . S
C675 C28 1.691 . S
C711 C55 1.690 . S
C730 C89 1.685 . S
C747 C68 1.690 . S
C766 C102 1.679 . S
C783 C82 1.690 . S
C802 C113 1.607 . S
C819 C14 1.694 . S
C838 C150 1.631 . S
C874 C94 1.677 . S
C855 C40 1.694 . S
C891 C43 1.695 . S
C910 C107 1.685 . S
C927 C56 1.693 . S
C946 C111 1.644 . S
C963 C70 1.694 . S
C982 C124 1.617 . S
C999 C0 1.695 . S
C1018 C137 1.633 . S
