# Generated by pormake.
# Topology pts, (4,4)-cn, num edge types: 1
# Building blocks:
#     Node 0, Type 0, BuildingBlock: KOZSID_clean_sbu_0, # of connection points: 4
#     Node 1, Type 0, BuildingBlock: KOZSID_clean_sbu_0, # of connection points: 4
#     Node 2, Type 1, BuildingBlock: QUQFOY_clean_sbu_1, # of connection points: 4
#     Node 3, Type 1, BuildingBlock: QUQFOY_clean_sbu_1, # of connection points: 4
#     Edge 4, Type (0, 1), BuildingBlock: FUNLAD_clean_linker_0, # of connection points: 2
#     Edge 5, Type (0, 1), BuildingBlock: FUNLAD_clean_linker_0, # of connection points: 2
#     Edge 6, Type (0, 1), BuildingBlock: FUNLAD_clean_linker_0, # of connection points: 2
#     Edge 7, Type (0, 1), BuildingBlock: FUNLAD_clean_linker_0, # of connection points: 2
#     Edge 8, Type (0, 1), BuildingBlock: FUNLAD_clean_linker_0, # of connection points: 2
#     Edge 9, Type (0, 1), BuildingBlock: FUNLAD_clean_linker_0, # of connection points: 2
#     Edge 10, Type (0, 1), BuildingBlock: FUNLAD_clean_linker_0, # of connection points: 2
#     Edge 11, Type (0, 1), BuildingBlock: FUNLAD_clean_linker_0, # of connection points: 2
# Relax obj value: 0.095
# Max RMSD: 0.254
# Mean RMSD: 0.145
data_MOF--net-pts--node1-KOZSID_clean_sbu_0--node2-QUQFOY_clean_sbu_1--edge1-FUNLAD_clean_linker_0
_symmetry_space_group_name_H-M    P1
_symmetry_Int_Tables_number       1
_symmetry_cell_setting            triclinic
loop_
_symmetry_equiv_pos_as_xyz
'x, y, z'
_cell_length_a     29.155258
_cell_length_b     32.432772
_cell_length_c     48.119641
_cell_angle_alpha  86.570182
_cell_angle_beta   93.724658
_cell_angle_gamma 90.082775
loop_
_atom_site_label
_atom_site_type_symbol
_atom_site_fract_x
_atom_site_fract_y
_atom_site_fract_z
_atom_type_partial_charge
C0 C 0.61659 0.10337 0.04933 0.0
C1 C 0.63374 0.14069 0.05819 0.0
C2 C 0.6093 0.17112 0.0431 0.0
C3 C 0.57895 0.15079 0.02585 0.0
N4 N 0.58238 0.10913 0.029 0.0
Co5 Co 0.54575 0.06769 0.00748 0.0
N6 N 0.51053 0.11264 0.98485 0.0
C7 C 0.51484 0.15387 0.9872 0.0
C8 C 0.48556 0.17704 0.96914 0.0
C9 C 0.46105 0.14901 0.95428 0.0
C10 C 0.47709 0.11017 0.96408 0.0
N11 N 0.50936 0.02624 0.98587 0.0
C12 C 0.47661 0.03198 0.96469 0.0
C13 C 0.46127 0.99466 0.9548 0.0
C14 C 0.4847 0.96425 0.97049 0.0
C15 C 0.51312 0.98459 0.98884 0.0
N16 N 0.58079 0.02273 0.03016 0.0
C17 C 0.57532 0.98148 0.02852 0.0
C18 C 0.60352 0.95827 0.04718 0.0
C19 C 0.62875 0.98629 0.0616 0.0
C20 C 0.61459 0.02518 0.05069 0.0
N21 N 0.49871 0.06664 0.0356 0.0
C22 C 0.43346 0.06536 0.07642 0.0
C23 C 0.44826 0.02879 0.0659 0.0
C24 C 0.4806 0.03013 0.04568 0.0
C25 C 0.45154 0.10257 0.06594 0.0
C26 C 0.48372 0.1025 0.04573 0.0
N27 N 0.59277 0.06879 0.97943 0.0
C28 C 0.64232 0.03323 0.95025 0.0
C29 C 0.65945 0.07072 0.93955 0.0
C30 C 0.6426 0.10719 0.94911 0.0
C31 C 0.60952 0.10553 0.96881 0.0
C32 C 0.60939 0.03297 0.9701 0.0
H33 H 0.59798 0.13442 0.97507 0.0
H34 H 0.59803 0.00342 0.97764 0.0
H35 H 0.49051 0.00119 0.03864 0.0
H36 H 0.4959 0.13191 0.03866 0.0
C37 C 0.5471 0.16997 0.00634 0.0
C38 C 0.63452 0.06338 0.06049 0.0
C39 C 0.45916 0.07195 0.95313 0.0
C40 C 0.54387 0.96541 0.00895 0.0
H41 H 0.66129 0.14551 0.07382 0.0
H42 H 0.61339 0.20414 0.04441 0.0
H43 H 0.48244 0.21035 0.96702 0.0
H44 H 0.43433 0.1564 0.93809 0.0
H45 H 0.4359 0.98983 0.93789 0.0
H46 H 0.4816 0.93125 0.96864 0.0
H47 H 0.60558 0.92494 0.04992 0.0
H48 H 0.6547 0.97888 0.07825 0.0
H49 H 0.43549 0.99911 0.07351 0.0
H50 H 0.44053 0.13182 0.07304 0.0
H51 H 0.65475 0.00412 0.94368 0.0
H52 H 0.65444 0.13703 0.94117 0.0
C53 C 0.09844 0.48636 0.55338 0.0
C54 C 0.14101 0.47141 0.56404 0.0
C55 C 0.17324 0.49275 0.54976 0.0
C56 C 0.14865 0.51934 0.53126 0.0
N57 N 0.10259 0.51664 0.53304 0.0
Co58 Co 0.05391 0.54847 0.50935 0.0
N59 N 0.10134 0.57837 0.4874 0.0
C60 C 0.14748 0.57321 0.4904 0.0
C61 C 0.17118 0.59949 0.4732 0.0
C62 C 0.13831 0.62339 0.45863 0.0
C63 C 0.09629 0.61015 0.46782 0.0
N64 N 0.00526 0.58034 0.4857 0.0
C65 C 0.00953 0.61194 0.46633 0.0
C66 C 0.96704 0.62661 0.45535 0.0
C67 C 0.93467 0.60403 0.46871 0.0
C68 C 0.95916 0.57694 0.48693 0.0
N69 N 0.00644 0.51868 0.5313 0.0
C70 C 0.96026 0.5235 0.528 0.0
C71 C 0.93656 0.49815 0.5458 0.0
C72 C 0.96948 0.47539 0.56119 0.0
C73 C 0.01152 0.48819 0.55178 0.0
N74 N 0.05667 0.593 0.53597 0.0
C75 C 0.06061 0.6597 0.57102 0.0
C76 C 0.01847 0.64371 0.56127 0.0
C77 C 0.0173 0.61055 0.54402 0.0
C78 C 0.10075 0.6412 0.56333 0.0
C79 C 0.09802 0.60819 0.54596 0.0
N80 N 0.05115 0.50385 0.48266 0.0
C81 C 0.00719 0.45541 0.45537 0.0
C82 C 0.04734 0.4374 0.44732 0.0
C83 C 0.08942 0.45369 0.45687 0.0
C84 C 0.09051 0.48668 0.47427 0.0
C85 C 0.00986 0.48829 0.47287 0.0
H86 H 0.12367 0.49752 0.48076 0.0
H87 H 0.978 0.50023 0.4784 0.0
H88 H 0.98413 0.59987 0.53728 0.0
H89 H 0.12983 0.59581 0.54063 0.0
C90 C 0.16769 0.54577 0.51112 0.0
C91 C 0.0551 0.46953 0.5624 0.0
C92 C 0.05285 0.63031 0.45865 0.0
C93 C 0.94004 0.55054 0.50705 0.0
H94 H 0.148 0.44701 0.58009 0.0
H95 H 0.21016 0.48869 0.55213 0.0
H96 H 0.20806 0.60202 0.47213 0.0
H97 H 0.14467 0.64853 0.44357 0.0
H98 H 0.96023 0.65178 0.43983 0.0
H99 H 0.89774 0.60791 0.46617 0.0
H100 H 0.89969 0.49585 0.547 0.0
H101 H 0.96324 0.45155 0.57721 0.0
H102 H 0.98639 0.65648 0.56709 0.0
H103 H 0.13426 0.65264 0.57022 0.0
H104 H 0.97371 0.44373 0.44865 0.0
H105 H 0.12151 0.4413 0.45078 0.0
O106 O 0.97714 0.01662 0.24397 0.0
Cd107 Cd 0.0388 0.00088 0.26531 0.0
Cd108 Cd 0.04519 0.0883 0.26569 0.0
O109 O 0.9817 0.08449 0.24455 0.0
O110 O 0.0346 0.93966 0.26973 0.0
O111 O 0.0413 0.979 0.30564 0.0
C112 C 0.03759 0.94253 0.29634 0.0
C113 C 0.05162 0.13726 0.29946 0.0
C114 C 0.96015 0.05224 0.23759 0.0
C115 C 0.11835 0.04291 0.23791 0.0
O116 O 0.10281 0.07738 0.24443 0.0
O117 O 0.0981 0.00943 0.24466 0.0
O118 O 0.05012 0.14783 0.27319 0.0
O119 O 0.0499 0.09834 0.30679 0.0
O120 O 0.98528 0.08509 0.76876 0.0
Cd121 Cd 0.04672 0.09452 0.75029 0.0
Cd122 Cd 0.04592 0.00829 0.75233 0.0
O123 O 0.98457 0.01698 0.77011 0.0
O124 O 0.04864 0.15533 0.74228 0.0
O125 O 0.04789 0.11095 0.70917 0.0
C126 C 0.04923 0.14879 0.71618 0.0
C127 C 0.04689 0.95951 0.71859 0.0
C128 C 0.96609 0.05093 0.77519 0.0
C129 C 0.12475 0.04901 0.78327 0.0
O130 O 0.10571 0.01534 0.77683 0.0
O131 O 0.10693 0.08344 0.77446 0.0
O132 O 0.04558 0.94874 0.74473 0.0
O133 O 0.04761 0.99852 0.7114 0.0
C134 C 0.36109 0.03842 0.09645 0.0
C135 C 0.39928 0.06486 0.09801 0.0
C136 C 0.32835 0.03867 0.11639 0.0
C137 C 0.33331 0.06517 0.13854 0.0
C138 C 0.3714 0.09163 0.14001 0.0
C139 C 0.40412 0.0914 0.12006 0.0
C140 C 0.29844 0.06759 0.1596 0.0
C141 C 0.26933 0.03659 0.16581 0.0
C142 C 0.23283 0.0394 0.18582 0.0
C143 C 0.21338 0.00271 0.19663 0.0
C144 C 0.17704 0.00382 0.2141 0.0
C145 C 0.15906 0.04177 0.22108 0.0
H146 H 0.22813 0.10651 0.18463 0.0
C147 C 0.1789 0.07856 0.21062 0.0
C148 C 0.2152 0.07745 0.19308 0.0
H149 H 0.16565 0.10833 0.21538 0.0
H150 H 0.35587 0.01823 0.0794 0.0
H151 H 0.2987 0.01884 0.11386 0.0
H152 H 0.37595 0.11256 0.1567 0.0
H153 H 0.43338 0.11187 0.12202 0.0
H154 H 0.29799 0.09556 0.17088 0.0
H155 H 0.27281 0.00727 0.15637 0.0
H156 H 0.22602 0.97298 0.19129 0.0
H157 H 0.16257 0.97486 0.22175 0.0
C158 C 0.04553 0.3936 0.57221 0.0
C159 C 0.05517 0.43266 0.5821 0.0
C160 C 0.04448 0.35887 0.59085 0.0
C161 C 0.05312 0.36282 0.61972 0.0
C162 C 0.06244 0.4022 0.62941 0.0
C163 C 0.06365 0.43682 0.61075 0.0
C164 C 0.05093 0.32723 0.64055 0.0
C165 C 0.05723 0.28748 0.63478 0.0
C166 C 0.05558 0.25225 0.65606 0.0
C167 C 0.04828 0.21211 0.64716 0.0
C168 C 0.04634 0.17826 0.66655 0.0
C169 C 0.05174 0.18395 0.69528 0.0
H170 H 0.06979 0.28746 0.69283 0.0
C171 C 0.05986 0.22393 0.70418 0.0
C172 C 0.06213 0.25759 0.68487 0.0
H173 H 0.06493 0.22931 0.72616 0.0
H174 H 0.03843 0.3901 0.5501 0.0
H175 H 0.0358 0.32939 0.58255 0.0
H176 H 0.06887 0.40622 0.65151 0.0
H177 H 0.07086 0.46689 0.61867 0.0
H178 H 0.04437 0.33471 0.66159 0.0
H179 H 0.06356 0.28006 0.61367 0.0
H180 H 0.04366 0.20693 0.62512 0.0
H181 H 0.04028 0.14778 0.65904 0.0
C182 C 0.66855 0.07214 0.10888 0.0
C183 C 0.67402 0.06127 0.08153 0.0
C184 C 0.70544 0.06854 0.12894 0.0
C185 C 0.74833 0.05385 0.12187 0.0
C186 C 0.75344 0.04285 0.09445 0.0
C187 C 0.7167 0.0468 0.07439 0.0
C188 C 0.78788 0.0479 0.1427 0.0
C189 C 0.79429 0.07026 0.16531 0.0
C190 C 0.83529 0.06463 0.18507 0.0
C191 C 0.85404 0.09892 0.19812 0.0
C192 C 0.89422 0.09487 0.21558 0.0
C193 C 0.91594 0.05622 0.2207 0.0
H194 H 0.84159 0.99837 0.18196 0.0
C195 C 0.89591 0.02156 0.2086 0.0
C196 C 0.85605 0.0257 0.19096 0.0
H197 H 0.9115 0.99126 0.21229 0.0
H198 H 0.63557 0.08288 0.11475 0.0
H199 H 0.69985 0.07623 0.15003 0.0
H200 H 0.786 0.03118 0.08853 0.0
H201 H 0.72135 0.03808 0.05336 0.0
H202 H 0.81405 0.0258 0.1383 0.0
H203 H 0.77088 0.09536 0.16838 0.0
H204 H 0.83832 0.12913 0.19417 0.0
H205 H 0.90852 0.12214 0.22477 0.0
C206 C 0.03237 0.7289 0.58361 0.0
C207 C 0.06267 0.69528 0.58912 0.0
C208 C 0.03381 0.76207 0.60093 0.0
C209 C 0.06578 0.76236 0.62414 0.0
C210 C 0.09599 0.72874 0.6296 0.0
C211 C 0.09464 0.69568 0.61224 0.0
C212 C 0.06694 0.79568 0.64409 0.0
C213 C 0.04998 0.83404 0.63791 0.0
C214 C 0.04969 0.86596 0.65885 0.0
C215 C 0.04964 0.908 0.64987 0.0
C216 C 0.04887 0.93862 0.66917 0.0
C217 C 0.04763 0.9277 0.69782 0.0
H218 H 0.04591 0.82321 0.69521 0.0
C219 C 0.04689 0.88564 0.70671 0.0
C220 C 0.04771 0.85516 0.68749 0.0
H221 H 0.04542 0.87611 0.72859 0.0
H222 H 0.00753 0.72963 0.56585 0.0
H223 H 0.0091 0.78677 0.59637 0.0
H224 H 0.12061 0.72789 0.64749 0.0
H225 H 0.11803 0.67001 0.61729 0.0
H226 H 0.08369 0.78833 0.66461 0.0
H227 H 0.03725 0.84303 0.61672 0.0
H228 H 0.05057 0.91718 0.62789 0.0
H229 H 0.04922 0.97076 0.66165 0.0
C230 C 0.3778 0.05951 0.93623 0.0
C231 C 0.42191 0.07353 0.9306 0.0
C232 C 0.34298 0.0596 0.9149 0.0
C233 C 0.35178 0.07384 0.88755 0.0
C234 C 0.39573 0.08885 0.88217 0.0
C235 C 0.43069 0.08835 0.90349 0.0
C236 C 0.31536 0.07462 0.86454 0.0
C237 C 0.28136 0.04652 0.86347 0.0
C238 C 0.24351 0.04761 0.84129 0.0
C239 C 0.22035 0.01083 0.83552 0.0
C240 C 0.18262 0.01104 0.81607 0.0
C241 C 0.16681 0.04824 0.80226 0.0
H242 H 0.24438 0.11393 0.83153 0.0
C243 C 0.1903 0.08504 0.80781 0.0
C244 C 0.22823 0.08477 0.82712 0.0
H245 H 0.17891 0.11427 0.79762 0.0
H246 H 0.37041 0.04835 0.95714 0.0
H247 H 0.30911 0.04909 0.92 0.0
H248 H 0.40319 0.1004 0.86136 0.0
H249 H 0.46462 0.09935 0.89885 0.0
H250 H 0.3179 0.09792 0.84754 0.0
H251 H 0.28179 0.02084 0.87907 0.0
H252 H 0.23122 0.98184 0.84629 0.0
H253 H 0.16522 0.98216 0.81238 0.0
C254 C 0.07613 0.36866 0.43416 0.0
C255 C 0.04536 0.40201 0.42903 0.0
C256 C 0.07464 0.33562 0.41672 0.0
C257 C 0.04215 0.33519 0.39378 0.0
C258 C 0.01155 0.36858 0.38868 0.0
C259 C 0.01294 0.40151 0.40614 0.0
C260 C 0.04062 0.30186 0.37383 0.0
C261 C 0.05774 0.26352 0.37988 0.0
C262 C 0.05668 0.23137 0.35905 0.0
C263 C 0.05613 0.18941 0.3682 0.0
C264 C 0.05474 0.1586 0.34896 0.0
C265 C 0.05439 0.16924 0.3202 0.0
H266 H 0.05969 0.27371 0.32243 0.0
C267 C 0.05614 0.21119 0.31115 0.0
C268 C 0.05745 0.24186 0.3303 0.0
H269 H 0.05646 0.22049 0.28916 0.0
H270 H 0.10135 0.36801 0.45173 0.0
H271 H 0.09965 0.31109 0.42101 0.0
H272 H 0.9865 0.36932 0.371 0.0
H273 H 0.98919 0.42698 0.40137 0.0
H274 H 0.02315 0.30908 0.35349 0.0
H275 H 0.07121 0.25463 0.40094 0.0
H276 H 0.05613 0.18046 0.39025 0.0
H277 H 0.05367 0.12654 0.3566 0.0
C278 C 0.6913 0.0461 0.89622 0.0
C279 C 0.69478 0.07192 0.91868 0.0
C280 C 0.72441 0.0476 0.87642 0.0
C281 C 0.76208 0.07468 0.8789 0.0
C282 C 0.7652 0.10068 0.90125 0.0
C283 C 0.73203 0.0993 0.92094 0.0
C284 C 0.79851 0.0774 0.8586 0.0
C285 C 0.80713 0.04754 0.84131 0.0
C286 C 0.846 0.04956 0.82276 0.0
C287 C 0.86471 0.01254 0.81482 0.0
C288 C 0.90299 0.01298 0.79879 0.0
C289 C 0.92324 0.05057 0.79014 0.0
H290 H 0.85048 0.11654 0.81778 0.0
C291 C 0.90327 0.08773 0.79703 0.0
C292 C 0.86497 0.08728 0.81307 0.0
H293 H 0.9176 0.11726 0.79041 0.0
H294 H 0.66247 0.02526 0.89364 0.0
H295 H 0.71971 0.02796 0.85909 0.0
H296 H 0.79367 0.12196 0.90367 0.0
H297 H 0.73587 0.11935 0.93815 0.0
H298 H 0.82095 0.1041 0.85934 0.0
H299 H 0.78754 0.01908 0.84219 0.0
H300 H 0.85043 0.98307 0.82167 0.0
H301 H 0.91725 0.98376 0.79368 0.0
C302 C 0.05882 0.67172 0.41355 0.0
C303 C 0.05262 0.67039 0.4422 0.0
C304 C 0.05805 0.70952 0.398 0.0
C305 C 0.05063 0.74665 0.41087 0.0
C306 C 0.04514 0.74507 0.4397 0.0
C307 C 0.04579 0.7072 0.45522 0.0
C308 C 0.04981 0.78747 0.395 0.0
C309 C 0.0364 0.79204 0.36766 0.0
C310 C 0.03659 0.83177 0.35046 0.0
C311 C 0.03158 0.83004 0.32135 0.0
C312 C 0.03186 0.86598 0.30397 0.0
C313 C 0.03691 0.90482 0.31523 0.0
H314 H 0.0441 0.87386 0.38413 0.0
C315 C 0.04137 0.90691 0.34436 0.0
C316 C 0.04116 0.87076 0.36185 0.0
H317 H 0.04503 0.93643 0.35366 0.0
H318 H 0.06442 0.64349 0.40328 0.0
H319 H 0.06408 0.70947 0.37605 0.0
H320 H 0.03984 0.77316 0.45019 0.0
H321 H 0.04104 0.70657 0.47739 0.0
H322 H 0.05997 0.8141 0.4065 0.0
H323 H 0.02511 0.76496 0.35689 0.0
H324 H 0.02778 0.80061 0.31191 0.0
H325 H 0.02817 0.86319 0.28161 0.0
loop_
_geom_bond_atom_site_label_1
_geom_bond_atom_site_label_2
_geom_bond_distance
_geom_bond_site_symmetry_2
_ccdc_geom_bond_type
C0 C1 1.443 . S
C0 N4 1.376 . S
C0 C38 1.389 . S
C1 C0 1.443 . S
C1 C2 1.340 . S
C1 H41 0.951 . S
C2 C1 1.340 . S
C2 C3 1.439 . S
C2 H42 0.950 . S
C3 C2 1.439 . S
C3 N4 1.374 . S
C3 C37 1.399 . S
N4 C0 1.376 . S
N4 C3 1.374 . S
N4 Co5 2.008 . S
Co5 N4 2.008 . S
Co5 N6 1.995 1_554 S
Co5 N11 2.008 1_554 S
Co5 N16 1.995 . S
Co5 N21 2.282 . S
Co5 N27 2.282 1_554 S
N6 Co5 1.995 1_556 S
N6 C7 1.376 . S
N6 C10 1.383 . S
C7 N6 1.376 . S
C7 C8 1.446 . S
C7 C37 1.388 1_556 S
C8 C7 1.446 . S
C8 C9 1.339 . S
C8 H43 0.949 . S
C9 C8 1.339 . S
C9 C10 1.439 . S
C9 H44 0.950 . S
C10 N6 1.383 . S
C10 C9 1.439 . S
C10 C39 1.392 . S
N11 Co5 2.008 1_556 S
N11 C12 1.376 . S
N11 C15 1.374 1_545 S
C12 N11 1.376 . S
C12 C13 1.443 1_545 S
C12 C39 1.389 . S
C13 C12 1.443 1_565 S
C13 C14 1.340 . S
C13 H45 0.951 . S
C14 C13 1.340 . S
C14 C15 1.439 . S
C14 H46 0.950 . S
C15 N11 1.374 1_565 S
C15 C14 1.439 . S
C15 C40 1.395 1_556 S
N16 Co5 1.995 . S
N16 C17 1.376 1_545 S
N16 C20 1.383 . S
C17 N16 1.376 1_565 S
C17 C18 1.446 . S
C17 C40 1.391 . S
C18 C17 1.446 . S
C18 C19 1.339 . S
C18 H47 0.949 . S
C19 C18 1.339 . S
C19 C20 1.439 1_565 S
C19 H48 0.950 . S
C20 N16 1.383 . S
C20 C19 1.439 1_545 S
C20 C38 1.392 . S
N21 Co5 2.282 . S
N21 C24 1.332 . S
N21 C26 1.332 . S
C22 C23 1.386 . S
C22 C25 1.388 . S
C23 C22 1.386 . S
C23 C24 1.382 . S
C23 H49 0.973 . S
C24 N21 1.332 . S
C24 C23 1.382 . S
C24 H35 0.952 . S
C25 C22 1.388 . S
C25 C26 1.382 . S
C25 H50 0.950 . S
C26 N21 1.332 . S
C26 C25 1.382 . S
C26 H36 0.948 . S
N27 Co5 2.282 1_556 S
N27 C31 1.332 . S
N27 C32 1.332 . S
C28 C29 1.388 . S
C28 C32 1.382 . S
C28 H51 0.950 . S
C29 C28 1.388 . S
C29 C30 1.386 . S
C30 C29 1.386 . S
C30 C31 1.382 . S
C30 H52 0.950 . S
C31 N27 1.332 . S
C31 C30 1.382 . S
C31 H33 0.952 . S
C32 N27 1.332 . S
C32 C28 1.382 . S
C32 H34 0.948 . S
H33 C31 0.952 . S
H34 C32 0.948 . S
H35 C24 0.952 . S
H36 C26 0.948 . S
C37 C3 1.399 . S
C37 C7 1.388 1_554 S
C38 C0 1.389 . S
C38 C20 1.392 . S
C39 C10 1.392 . S
C39 C12 1.389 . S
C40 C15 1.395 1_554 S
C40 C17 1.391 . S
H41 C1 0.951 . S
H42 C2 0.950 . S
H43 C8 0.949 . S
H44 C9 0.950 . S
H45 C13 0.951 . S
H46 C14 0.950 . S
H47 C18 0.949 . S
H48 C19 0.950 . S
H49 C23 0.973 . S
H50 C25 0.950 . S
H51 C28 0.950 . S
H52 C30 0.950 . S
C53 C54 1.443 . S
C53 N57 1.376 . S
C53 C91 1.389 . S
C54 C53 1.443 . S
C54 C55 1.340 . S
C54 H94 0.951 . S
C55 C54 1.340 . S
C55 C56 1.439 . S
C55 H95 0.950 . S
C56 C55 1.439 . S
C56 N57 1.374 . S
C56 C90 1.395 . S
N57 C53 1.376 . S
N57 C56 1.374 . S
N57 Co58 2.008 . S
Co58 N57 2.008 . S
Co58 N59 1.995 . S
Co58 N64 2.008 . S
Co58 N69 1.995 . S
Co58 N74 2.282 . S
Co58 N80 2.282 . S
N59 Co58 1.995 . S
N59 C60 1.376 . S
N59 C63 1.383 . S
C60 N59 1.376 . S
C60 C61 1.446 . S
C60 C90 1.391 . S
C61 C60 1.446 . S
C61 C62 1.339 . S
C61 H96 0.949 . S
C62 C61 1.339 . S
C62 C63 1.439 . S
C62 H97 0.950 . S
C63 N59 1.383 . S
C63 C62 1.439 . S
C63 C92 1.392 . S
N64 Co58 2.008 . S
N64 C65 1.376 . S
N64 C68 1.374 1_455 S
C65 N64 1.376 . S
C65 C66 1.443 1_455 S
C65 C92 1.389 . S
C66 C65 1.443 1_655 S
C66 C67 1.340 . S
C66 H98 0.951 . S
C67 C66 1.340 . S
C67 C68 1.439 . S
C67 H99 0.950 . S
C68 N64 1.374 1_655 S
C68 C67 1.439 . S
C68 C93 1.395 . S
N69 Co58 1.995 . S
N69 C70 1.376 1_455 S
N69 C73 1.383 . S
C70 N69 1.376 1_655 S
C70 C71 1.446 . S
C70 C93 1.391 . S
C71 C70 1.446 . S
C71 C72 1.339 . S
C71 H100 0.949 . S
C72 C71 1.339 . S
C72 C73 1.439 1_655 S
C72 H101 0.950 . S
C73 N69 1.383 . S
C73 C72 1.439 1_455 S
C73 C91 1.392 . S
N74 Co58 2.282 . S
N74 C77 1.332 . S
N74 C79 1.332 . S
C75 C76 1.386 . S
C75 C78 1.388 . S
C76 C75 1.386 . S
C76 C77 1.382 . S
C76 H102 0.950 1_455 S
C77 N74 1.332 . S
C77 C76 1.382 . S
C77 H88 0.952 1_455 S
C78 C75 1.388 . S
C78 C79 1.382 . S
C78 H103 0.950 . S
C79 N74 1.332 . S
C79 C78 1.382 . S
C79 H89 0.948 . S
N80 Co58 2.282 . S
N80 C84 1.332 . S
N80 C85 1.332 . S
C81 C82 1.388 . S
C81 C85 1.382 . S
C81 H104 0.950 1_455 S
C82 C81 1.388 . S
C82 C83 1.386 . S
C83 C82 1.386 . S
C83 C84 1.382 . S
C83 H105 0.950 . S
C84 N80 1.332 . S
C84 C83 1.382 . S
C84 H86 0.952 . S
C85 N80 1.332 . S
C85 C81 1.382 . S
C85 H87 0.948 1_455 S
H86 C84 0.952 . S
H87 C85 0.948 1_655 S
H88 C77 0.952 1_655 S
H89 C79 0.948 . S
C90 C56 1.395 . S
C90 C60 1.391 . S
C91 C53 1.389 . S
C91 C73 1.392 . S
C92 C63 1.392 . S
C92 C65 1.389 . S
C93 C68 1.395 . S
C93 C70 1.391 . S
H94 C54 0.951 . S
H95 C55 0.950 . S
H96 C61 0.949 . S
H97 C62 0.950 . S
H98 C66 0.951 . S
H99 C67 0.950 . S
H100 C71 0.949 . S
H101 C72 0.950 . S
H102 C76 0.950 1_655 S
H103 C78 0.950 . S
H104 C81 0.950 1_655 S
H105 C83 0.950 . S
O106 Cd107 2.223 . S
O106 C114 1.315 1_465 S
Cd107 O106 2.223 . S
Cd107 O110 2.297 . S
Cd107 O111 2.439 . S
Cd107 O117 2.240 1_565 S
Cd108 O109 2.240 1_455 S
Cd108 O116 2.223 . S
Cd108 O118 2.297 . S
Cd108 O119 2.439 . S
O109 Cd108 2.240 1_655 S
O109 C114 1.279 . S
O110 Cd107 2.297 . S
O110 C112 1.247 . S
O111 Cd107 2.439 . S
O111 C112 1.208 . S
C112 O110 1.247 . S
C112 O111 1.208 . S
C113 O118 1.247 . S
C113 O119 1.208 . S
C114 O106 1.315 1_645 S
C114 O109 1.279 . S
C115 O116 1.315 . S
C115 O117 1.279 . S
O116 Cd108 2.223 . S
O116 C115 1.315 . S
O117 Cd107 2.240 1_545 S
O117 C115 1.279 . S
O118 Cd108 2.297 . S
O118 C113 1.247 . S
O119 Cd108 2.439 . S
O119 C113 1.208 . S
O120 Cd121 2.223 . S
O120 C128 1.315 . S
Cd121 O120 2.223 . S
Cd121 O124 2.297 . S
Cd121 O125 2.439 . S
Cd121 O131 2.240 . S
Cd122 O123 2.240 . S
Cd122 O130 2.223 . S
Cd122 O132 2.297 1_545 S
Cd122 O133 2.439 . S
O123 Cd122 2.240 . S
O123 C128 1.279 . S
O124 Cd121 2.297 . S
O124 C126 1.247 . S
O125 Cd121 2.439 . S
O125 C126 1.208 . S
C126 O124 1.247 . S
C126 O125 1.208 . S
C127 O132 1.247 . S
C127 O133 1.208 1_565 S
C128 O120 1.315 . S
C128 O123 1.279 . S
C129 O130 1.315 . S
C129 O131 1.279 . S
O130 Cd122 2.223 . S
O130 C129 1.315 . S
O131 Cd121 2.240 . S
O131 C129 1.279 . S
O132 Cd122 2.297 1_565 S
O132 C127 1.247 . S
O133 Cd122 2.439 . S
O133 C127 1.208 1_545 S
C134 C135 1.386 . S
C134 C136 1.383 . S
C134 H150 0.951 . S
C135 C134 1.386 . S
C135 C139 1.383 . S
C136 C134 1.383 . S
C136 C137 1.402 . S
C136 H151 0.951 . S
C137 C136 1.402 . S
C137 C138 1.375 . S
C137 C140 1.481 . S
C138 C137 1.375 . S
C138 C139 1.367 . S
C138 H152 0.951 . S
C139 C135 1.383 . S
C139 C138 1.367 . S
C139 H153 0.950 . S
C140 C137 1.481 . S
C140 C141 1.297 . S
C140 H154 0.950 . S
C141 C140 1.297 . S
C141 C142 1.479 . S
C141 H155 0.950 . S
C142 C141 1.479 . S
C142 C143 1.375 . S
C142 C148 1.404 . S
C143 C142 1.375 . S
C143 C144 1.369 . S
C143 H156 0.950 . S
C144 C143 1.369 . S
C144 C145 1.392 . S
C144 H157 0.951 . S
C145 C144 1.392 . S
C145 C147 1.384 . S
H146 C148 0.949 . S
C147 C145 1.384 . S
C147 C148 1.385 . S
C147 H149 0.950 . S
C148 C142 1.404 . S
C148 H146 0.949 . S
C148 C147 1.385 . S
H149 C147 0.950 . S
H150 C134 0.951 . S
H151 C136 0.951 . S
H152 C138 0.951 . S
H153 C139 0.950 . S
H154 C140 0.950 . S
H155 C141 0.950 . S
H156 C143 0.950 . S
H157 C144 0.951 . S
C158 C159 1.386 . S
C158 C160 1.383 . S
C158 H174 0.951 1_455 S
C159 C158 1.386 . S
C159 C163 1.383 . S
C160 C158 1.383 . S
C160 C161 1.402 . S
C160 H175 0.956 . S
C161 C160 1.402 . S
C161 C162 1.375 . S
C161 C164 1.481 . S
C162 C161 1.375 . S
C162 C163 1.367 . S
C162 H176 0.951 . S
C163 C159 1.383 . S
C163 C162 1.367 . S
C163 H177 0.950 . S
C164 C161 1.481 . S
C164 C165 1.297 . S
C164 H178 0.950 . S
C165 C164 1.297 . S
C165 C166 1.479 . S
C165 H179 0.950 . S
C166 C165 1.479 . S
C166 C167 1.375 1_455 S
C166 C172 1.404 . S
C167 C166 1.375 1_655 S
C167 C168 1.369 . S
C167 H180 0.950 . S
C168 C167 1.369 . S
C168 C169 1.392 1_655 S
C168 H181 0.951 . S
C169 C168 1.392 1_455 S
C169 C171 1.384 . S
H170 C172 0.949 . S
C171 C169 1.384 . S
C171 C172 1.385 . S
C171 H173 0.950 . S
C172 C166 1.404 . S
C172 H170 0.949 . S
C172 C171 1.385 . S
H173 C171 0.950 . S
H174 C158 0.951 1_655 S
H175 C160 0.956 . S
H176 C162 0.951 . S
H177 C163 0.950 . S
H178 C164 0.950 . S
H179 C165 0.950 . S
H180 C167 0.950 . S
H181 C168 0.951 . S
C182 C183 1.386 . S
C182 C184 1.383 . S
C182 H198 0.951 . S
C183 C182 1.386 . S
C183 C187 1.383 . S
C184 C182 1.383 . S
C184 C185 1.402 . S
C184 H199 0.951 . S
C185 C184 1.402 . S
C185 C186 1.375 . S
C185 C188 1.481 . S
C186 C185 1.375 . S
C186 C187 1.367 . S
C186 H200 0.951 1_545 S
C187 C183 1.383 . S
C187 C186 1.367 . S
C187 H201 0.950 1_545 S
C188 C185 1.481 . S
C188 C189 1.297 . S
C188 H202 0.950 1_545 S
C189 C188 1.297 . S
C189 C190 1.479 . S
C189 H203 0.950 . S
C190 C189 1.479 . S
C190 C191 1.375 . S
C190 C196 1.378 1_545 S
C191 C190 1.375 . S
C191 C192 1.369 . S
C191 H204 0.950 . S
C192 C191 1.369 . S
C192 C193 1.392 . S
C192 H205 0.951 . S
C193 C192 1.392 . S
C193 C195 1.384 1_545 S
H194 C196 0.971 . S
C195 C193 1.384 1_565 S
C195 C196 1.389 . S
C195 H197 0.950 . S
C196 C190 1.378 1_565 S
C196 H194 0.971 . S
C196 C195 1.389 . S
H197 C195 0.950 . S
H198 C182 0.951 . S
H199 C184 0.951 . S
H200 C186 0.951 1_565 S
H201 C187 0.950 1_565 S
H202 C188 0.950 1_565 S
H203 C189 0.950 . S
H204 C191 0.950 . S
H205 C192 0.951 . S
C206 C207 1.386 . S
C206 C208 1.383 . S
C206 H222 0.951 . S
C207 C206 1.386 . S
C207 C211 1.383 . S
C208 C206 1.383 . S
C208 C209 1.402 . S
C208 H223 0.951 . S
C209 C208 1.402 . S
C209 C210 1.375 . S
C209 C212 1.481 . S
C210 C209 1.375 . S
C210 C211 1.367 . S
C210 H224 0.951 . S
C211 C207 1.383 . S
C211 C210 1.367 . S
C211 H225 0.950 . S
C212 C209 1.481 . S
C212 C213 1.297 . S
C212 H226 0.950 . S
C213 C212 1.297 . S
C213 C214 1.479 . S
C213 H227 0.950 . S
C214 C213 1.479 . S
C214 C215 1.375 . S
C214 C220 1.404 . S
C215 C214 1.375 . S
C215 C216 1.369 . S
C215 H228 0.950 . S
C216 C215 1.369 . S
C216 C217 1.392 . S
C216 H229 0.951 . S
C217 C216 1.392 . S
C217 C219 1.384 . S
H218 C220 0.949 . S
C219 C217 1.384 . S
C219 C220 1.385 . S
C219 H221 0.950 . S
C220 C214 1.404 . S
C220 H218 0.949 . S
C220 C219 1.385 . S
H221 C219 0.950 . S
H222 C206 0.951 . S
H223 C208 0.951 . S
H224 C210 0.951 . S
H225 C211 0.950 . S
H226 C212 0.950 . S
H227 C213 0.950 . S
H228 C215 0.950 . S
H229 C216 0.951 . S
C230 C231 1.386 . S
C230 C232 1.383 . S
C230 H246 0.951 . S
C231 C230 1.386 . S
C231 C235 1.383 . S
C232 C230 1.383 . S
C232 C233 1.402 . S
C232 H247 0.951 . S
C233 C232 1.402 . S
C233 C234 1.375 . S
C233 C236 1.481 . S
C234 C233 1.375 . S
C234 C235 1.367 . S
C234 H248 0.951 . S
C235 C231 1.383 . S
C235 C234 1.367 . S
C235 H249 0.950 . S
C236 C233 1.481 . S
C236 C237 1.297 . S
C236 H250 0.950 . S
C237 C236 1.297 . S
C237 C238 1.479 . S
C237 H251 0.950 . S
C238 C237 1.479 . S
C238 C239 1.375 . S
C238 C244 1.404 . S
C239 C238 1.375 . S
C239 C240 1.369 . S
C239 H252 0.950 . S
C240 C239 1.369 . S
C240 C241 1.392 . S
C240 H253 0.951 . S
C241 C240 1.392 . S
C241 C243 1.384 . S
H242 C244 0.949 . S
C243 C241 1.384 . S
C243 C244 1.385 . S
C243 H245 0.950 . S
C244 C238 1.404 . S
C244 H242 0.949 . S
C244 C243 1.385 . S
H245 C243 0.950 . S
H246 C230 0.951 . S
H247 C232 0.951 . S
H248 C234 0.951 . S
H249 C235 0.950 . S
H250 C236 0.950 . S
H251 C237 0.950 . S
H252 C239 0.950 . S
H253 C240 0.951 . S
C254 C255 1.386 . S
C254 C256 1.383 . S
C254 H270 0.951 . S
C255 C254 1.386 . S
C255 C259 1.383 . S
C256 C254 1.383 . S
C256 C257 1.402 . S
C256 H271 0.951 . S
C257 C256 1.402 . S
C257 C258 1.375 . S
C257 C260 1.481 . S
C258 C257 1.375 . S
C258 C259 1.367 . S
C258 H272 0.951 1_455 S
C259 C255 1.383 . S
C259 C258 1.367 . S
C259 H273 0.950 1_455 S
C260 C257 1.481 . S
C260 C261 1.297 . S
C260 H274 0.950 . S
C261 C260 1.297 . S
C261 C262 1.479 . S
C261 H275 0.950 . S
C262 C261 1.479 . S
C262 C263 1.375 . S
C262 C268 1.404 . S
C263 C262 1.375 . S
C263 C264 1.369 . S
C263 H276 0.950 . S
C264 C263 1.369 . S
C264 C265 1.392 . S
C264 H277 0.951 . S
C265 C264 1.392 . S
C265 C267 1.384 . S
H266 C268 0.949 1_655 S
C267 C265 1.384 . S
C267 C268 1.385 . S
C267 H269 0.960 . S
C268 C262 1.404 . S
C268 H266 0.949 1_455 S
C268 C267 1.385 . S
H269 C267 0.960 . S
H270 C254 0.951 . S
H271 C256 0.951 . S
H272 C258 0.951 1_655 S
H273 C259 0.950 1_655 S
H274 C260 0.950 . S
H275 C261 0.950 . S
H276 C263 0.950 . S
H277 C264 0.951 . S
C278 C279 1.386 . S
C278 C280 1.383 . S
C278 H294 0.951 . S
C279 C278 1.386 . S
C279 C283 1.383 . S
C280 C278 1.383 . S
C280 C281 1.402 . S
C280 H295 0.951 . S
C281 C280 1.402 . S
C281 C282 1.375 . S
C281 C284 1.481 . S
C282 C281 1.375 . S
C282 C283 1.367 . S
C282 H296 0.951 . S
C283 C279 1.383 . S
C283 C282 1.367 . S
C283 H297 0.950 . S
C284 C281 1.481 . S
C284 C285 1.297 . S
C284 H298 0.950 . S
C285 C284 1.297 . S
C285 C286 1.479 . S
C285 H299 0.950 . S
C286 C285 1.479 . S
C286 C287 1.375 . S
C286 C292 1.404 . S
C287 C286 1.375 . S
C287 C288 1.369 . S
C287 H300 0.950 . S
C288 C287 1.369 . S
C288 C289 1.392 . S
C288 H301 0.951 . S
C289 C288 1.392 . S
C289 C291 1.384 . S
H290 C292 0.949 . S
C291 C289 1.384 . S
C291 C292 1.385 . S
C291 H293 0.950 1_655 S
C292 C286 1.404 . S
C292 H290 0.949 . S
C292 C291 1.385 . S
H293 C291 0.950 1_455 S
H294 C278 0.951 . S
H295 C280 0.951 . S
H296 C282 0.951 . S
H297 C283 0.950 . S
H298 C284 0.950 . S
H299 C285 0.950 . S
H300 C287 0.950 . S
H301 C288 0.951 . S
C302 C303 1.386 . S
C302 C304 1.383 . S
C302 H318 0.951 . S
C303 C302 1.386 . S
C303 C307 1.383 . S
C304 C302 1.383 . S
C304 C305 1.402 . S
C304 H319 0.951 . S
C305 C304 1.402 . S
C305 C306 1.375 . S
C305 C308 1.481 . S
C306 C305 1.375 . S
C306 C307 1.367 . S
C306 H320 0.951 . S
C307 C303 1.383 . S
C307 C306 1.367 . S
C307 H321 0.950 . S
C308 C305 1.481 . S
C308 C309 1.297 . S
C308 H322 0.950 . S
C309 C308 1.297 . S
C309 C310 1.479 . S
C309 H323 0.950 . S
C310 C309 1.479 . S
C310 C311 1.375 . S
C310 C316 1.404 1_455 S
C311 C310 1.375 . S
C311 C312 1.369 . S
C311 H324 0.950 . S
C312 C311 1.369 . S
C312 C313 1.392 . S
C312 H325 0.951 . S
C313 C312 1.392 . S
C313 C315 1.384 1_455 S
H314 C316 0.949 . S
C315 C313 1.384 1_655 S
C315 C316 1.385 . S
C315 H317 0.950 . S
C316 C310 1.404 1_655 S
C316 H314 0.949 . S
C316 C315 1.385 . S
H317 C315 0.950 . S
H318 C302 0.951 . S
H319 C304 0.951 . S
H320 C306 0.951 . S
H321 C307 0.950 . S
H322 C308 0.950 . S
H323 C309 0.950 . S
H324 C311 0.950 . S
H325 C312 0.951 . S
C145 C115 1.582 . S
C135 C22 1.580 . S
C169 C126 1.541 . S
C159 C91 1.611 . S
C193 C114 1.596 . S
C183 C38 1.602 . S
C217 C127 1.468 . S
C207 C75 1.574 . S
C241 C129 1.603 . S
C231 C39 1.604 . S
C265 C113 1.534 . S
C255 C82 1.582 . S
C289 C128 1.565 1_655 S
C279 C29 1.586 . S
C303 C92 1.601 . S
C313 C112 1.565 . S
