# Generated by pormake.
# Topology gar, (4,6)-cn, num edge types: 1
# Building blocks:
#     Node 0, Type 0, BuildingBlock: QUQFOY_clean_sbu_3, # of connection points: 4
#     Node 1, Type 0, BuildingBlock: QUQFOY_clean_sbu_3, # of connection points: 4
#     Node 2, Type 0, BuildingBlock: QUQFOY_clean_sbu_3, # of connection points: 4
#     Node 3, Type 0, BuildingBlock: QUQFOY_clean_sbu_3, # of connection points: 4
#     Node 4, Type 0, BuildingBlock: QUQFOY_clean_sbu_3, # of connection points: 4
#     Node 5, Type 0, BuildingBlock: QUQFOY_clean_sbu_3, # of connection points: 4
#     Node 6, Type 0, BuildingBlock: QUQFOY_clean_sbu_3, # of connection points: 4
#     Node 7, Type 0, BuildingBlock: QUQFOY_clean_sbu_3, # of connection points: 4
#     Node 8, Type 0, BuildingBlock: QUQFOY_clean_sbu_3, # of connection points: 4
#     Node 9, Type 0, BuildingBlock: QUQFOY_clean_sbu_3, # of connection points: 4
#     Node 10, Type 0, BuildingBlock: QUQFOY_clean_sbu_3, # of connection points: 4
#     Node 11, Type 0, BuildingBlock: QUQFOY_clean_sbu_3, # of connection points: 4
#     Node 12, Type 0, BuildingBlock: QUQFOY_clean_sbu_3, # of connection points: 4
#     Node 13, Type 0, BuildingBlock: QUQFOY_clean_sbu_3, # of connection points: 4
#     Node 14, Type 0, BuildingBlock: QUQFOY_clean_sbu_3, # of connection points: 4
#     Node 15, Type 0, BuildingBlock: QUQFOY_clean_sbu_3, # of connection points: 4
#     Node 16, Type 0, BuildingBlock: QUQFOY_clean_sbu_3, # of connection points: 4
#     Node 17, Type 0, BuildingBlock: QUQFOY_clean_sbu_3, # of connection points: 4
#     Node 18, Type 0, BuildingBlock: QUQFOY_clean_sbu_3, # of connection points: 4
#     Node 19, Type 0, BuildingBlock: QUQFOY_clean_sbu_3, # of connection points: 4
#     Node 20, Type 0, BuildingBlock: QUQFOY_clean_sbu_3, # of connection points: 4
#     Node 21, Type 0, BuildingBlock: QUQFOY_clean_sbu_3, # of connection points: 4
#     Node 22, Type 0, BuildingBlock: QUQFOY_clean_sbu_3, # of connection points: 4
#     Node 23, Type 0, BuildingBlock: QUQFOY_clean_sbu_3, # of connection points: 4
#     Node 24, Type 1, BuildingBlock: PAMTOO_clean_sbu_0, # of connection points: 6
#     Node 25, Type 1, BuildingBlock: PAMTOO_clean_sbu_0, # of connection points: 6
#     Node 26, Type 1, BuildingBlock: PAMTOO_clean_sbu_0, # of connection points: 6
#     Node 27, Type 1, BuildingBlock: PAMTOO_clean_sbu_0, # of connection points: 6
#     Node 28, Type 1, BuildingBlock: PAMTOO_clean_sbu_0, # of connection points: 6
#     Node 29, Type 1, BuildingBlock: PAMTOO_clean_sbu_0, # of connection points: 6
#     Node 30, Type 1, BuildingBlock: PAMTOO_clean_sbu_0, # of connection points: 6
#     Node 31, Type 1, BuildingBlock: PAMTOO_clean_sbu_0, # of connection points: 6
#     Node 32, Type 1, BuildingBlock: PAMTOO_clean_sbu_0, # of connection points: 6
#     Node 33, Type 1, BuildingBlock: PAMTOO_clean_sbu_0, # of connection points: 6
#     Node 34, Type 1, BuildingBlock: PAMTOO_clean_sbu_0, # of connection points: 6
#     Node 35, Type 1, BuildingBlock: PAMTOO_clean_sbu_0, # of connection points: 6
#     Node 36, Type 1, BuildingBlock: PAMTOO_clean_sbu_0, # of connection points: 6
#     Node 37, Type 1, BuildingBlock: PAMTOO_clean_sbu_0, # of connection points: 6
#     Node 38, Type 1, BuildingBlock: PAMTOO_clean_sbu_0, # of connection points: 6
#     Node 39, Type 1, BuildingBlock: PAMTOO_clean_sbu_0, # of connection points: 6
#     Edge 40, Type (0, 1), BuildingBlock: XUDNAN_clean_linker_2, # of connection points: 2
#     Edge 41, Type (0, 1), BuildingBlock: XUDNAN_clean_linker_2, # of connection points: 2
#     Edge 42, Type (0, 1), BuildingBlock: XUDNAN_clean_linker_2, # of connection points: 2
#     Edge 43, Type (0, 1), BuildingBlock: XUDNAN_clean_linker_2, # of connection points: 2
#     Edge 44, Type (0, 1), BuildingBlock: XUDNAN_clean_linker_2, # of connection points: 2
#     Edge 45, Type (0, 1), BuildingBlock: XUDNAN_clean_linker_2, # of connection points: 2
#     Edge 46, Type (0, 1), BuildingBlock: XUDNAN_clean_linker_2, # of connection points: 2
#     Edge 47, Type (0, 1), BuildingBlock: XUDNAN_clean_linker_2, # of connection points: 2
#     Edge 48, Type (0, 1), BuildingBlock: XUDNAN_clean_linker_2, # of connection points: 2
#     Edge 49, Type (0, 1), BuildingBlock: XUDNAN_clean_linker_2, # of connection points: 2
#     Edge 50, Type (0, 1), BuildingBlock: XUDNAN_clean_linker_2, # of connection points: 2
#     Edge 51, Type (0, 1), BuildingBlock: XUDNAN_clean_linker_2, # of connection points: 2
#     Edge 52, Type (0, 1), BuildingBlock: XUDNAN_clean_linker_2, # of connection points: 2
#     Edge 53, Type (0, 1), BuildingBlock: XUDNAN_clean_linker_2, # of connection points: 2
#     Edge 54, Type (0, 1), BuildingBlock: XUDNAN_clean_linker_2, # of connection points: 2
#     Edge 55, Type (0, 1), BuildingBlock: XUDNAN_clean_linker_2, # of connection points: 2
#     Edge 56, Type (0, 1), BuildingBlock: XUDNAN_clean_linker_2, # of connection points: 2
#     Edge 57, Type (0, 1), BuildingBlock: XUDNAN_clean_linker_2, # of connection points: 2
#     Edge 58, Type (0, 1), BuildingBlock: XUDNAN_clean_linker_2, # of connection points: 2
#     Edge 59, Type (0, 1), BuildingBlock: XUDNAN_clean_linker_2, # of connection points: 2
#     Edge 60, Type (0, 1), BuildingBlock: XUDNAN_clean_linker_2, # of connection points: 2
#     Edge 61, Type (0, 1), BuildingBlock: XUDNAN_clean_linker_2, # of connection points: 2
#     Edge 62, Type (0, 1), BuildingBlock: XUDNAN_clean_linker_2, # of connection points: 2
#     Edge 63, Type (0, 1), BuildingBlock: XUDNAN_clean_linker_2, # of connection points: 2
#     Edge 64, Type (0, 1), BuildingBlock: XUDNAN_clean_linker_2, # of connection points: 2
#     Edge 65, Type (0, 1), BuildingBlock: XUDNAN_clean_linker_2, # of connection points: 2
#     Edge 66, Type (0, 1), BuildingBlock: XUDNAN_clean_linker_2, # of connection points: 2
#     Edge 67, Type (0, 1), BuildingBlock: XUDNAN_clean_linker_2, # of connection points: 2
#     Edge 68, Type (0, 1), BuildingBlock: XUDNAN_clean_linker_2, # of connection points: 2
#     Edge 69, Type (0, 1), BuildingBlock: XUDNAN_clean_linker_2, # of connection points: 2
#     Edge 70, Type (0, 1), BuildingBlock: XUDNAN_clean_linker_2, # of connection points: 2
#     Edge 71, Type (0, 1), BuildingBlock: XUDNAN_clean_linker_2, # of connection points: 2
#     Edge 72, Type (0, 1), BuildingBlock: XUDNAN_clean_linker_2, # of connection points: 2
#     Edge 73, Type (0, 1), BuildingBlock: XUDNAN_clean_linker_2, # of connection points: 2
#     Edge 74, Type (0, 1), BuildingBlock: XUDNAN_clean_linker_2, # of connection points: 2
#     Edge 75, Type (0, 1), BuildingBlock: XUDNAN_clean_linker_2, # of connection points: 2
#     Edge 76, Type (0, 1), BuildingBlock: XUDNAN_clean_linker_2, # of connection points: 2
#     Edge 77, Type (0, 1), BuildingBlock: XUDNAN_clean_linker_2, # of connection points: 2
#     Edge 78, Type (0, 1), BuildingBlock: XUDNAN_clean_linker_2, # of connection points: 2
#     Edge 79, Type (0, 1), BuildingBlock: XUDNAN_clean_linker_2, # of connection points: 2
#     Edge 80, Type (0, 1), BuildingBlock: XUDNAN_clean_linker_2, # of connection points: 2
#     Edge 81, Type (0, 1), BuildingBlock: XUDNAN_clean_linker_2, # of connection points: 2
#     Edge 82, Type (0, 1), BuildingBlock: XUDNAN_clean_linker_2, # of connection points: 2
#     Edge 83, Type (0, 1), BuildingBlock: XUDNAN_clean_linker_2, # of connection points: 2
#     Edge 84, Type (0, 1), BuildingBlock: XUDNAN_clean_linker_2, # of connection points: 2
#     Edge 85, Type (0, 1), BuildingBlock: XUDNAN_clean_linker_2, # of connection points: 2
#     Edge 86, Type (0, 1), BuildingBlock: XUDNAN_clean_linker_2, # of connection points: 2
#     Edge 87, Type (0, 1), BuildingBlock: XUDNAN_clean_linker_2, # of connection points: 2
#     Edge 88, Type (0, 1), BuildingBlock: XUDNAN_clean_linker_2, # of connection points: 2
#     Edge 89, Type (0, 1), BuildingBlock: XUDNAN_clean_linker_2, # of connection points: 2
#     Edge 90, Type (0, 1), BuildingBlock: XUDNAN_clean_linker_2, # of connection points: 2
#     Edge 91, Type (0, 1), BuildingBlock: XUDNAN_clean_linker_2, # of connection points: 2
#     Edge 92, Type (0, 1), BuildingBlock: XUDNAN_clean_linker_2, # of connection points: 2
#     Edge 93, Type (0, 1), BuildingBlock: XUDNAN_clean_linker_2, # of connection points: 2
#     Edge 94, Type (0, 1), BuildingBlock: XUDNAN_clean_linker_2, # of connection points: 2
#     Edge 95, Type (0, 1), BuildingBlock: XUDNAN_clean_linker_2, # of connection points: 2
#     Edge 96, Type (0, 1), BuildingBlock: XUDNAN_clean_linker_2, # of connection points: 2
#     Edge 97, Type (0, 1), BuildingBlock: XUDNAN_clean_linker_2, # of connection points: 2
#     Edge 98, Type (0, 1), BuildingBlock: XUDNAN_clean_linker_2, # of connection points: 2
#     Edge 99, Type (0, 1), BuildingBlock: XUDNAN_clean_linker_2, # of connection points: 2
#     Edge 100, Type (0, 1), BuildingBlock: XUDNAN_clean_linker_2, # of connection points: 2
#     Edge 101, Type (0, 1), BuildingBlock: XUDNAN_clean_linker_2, # of connection points: 2
#     Edge 102, Type (0, 1), BuildingBlock: XUDNAN_clean_linker_2, # of connection points: 2
#     Edge 103, Type (0, 1), BuildingBlock: XUDNAN_clean_linker_2, # of connection points: 2
#     Edge 104, Type (0, 1), BuildingBlock: XUDNAN_clean_linker_2, # of connection points: 2
#     Edge 105, Type (0, 1), BuildingBlock: XUDNAN_clean_linker_2, # of connection points: 2
#     Edge 106, Type (0, 1), BuildingBlock: XUDNAN_clean_linker_2, # of connection points: 2
#     Edge 107, Type (0, 1), BuildingBlock: XUDNAN_clean_linker_2, # of connection points: 2
#     Edge 108, Type (0, 1), BuildingBlock: XUDNAN_clean_linker_2, # of connection points: 2
#     Edge 109, Type (0, 1), BuildingBlock: XUDNAN_clean_linker_2, # of connection points: 2
#     Edge 110, Type (0, 1), BuildingBlock: XUDNAN_clean_linker_2, # of connection points: 2
#     Edge 111, Type (0, 1), BuildingBlock: XUDNAN_clean_linker_2, # of connection points: 2
#     Edge 112, Type (0, 1), BuildingBlock: XUDNAN_clean_linker_2, # of connection points: 2
#     Edge 113, Type (0, 1), BuildingBlock: XUDNAN_clean_linker_2, # of connection points: 2
#     Edge 114, Type (0, 1), BuildingBlock: XUDNAN_clean_linker_2, # of connection points: 2
#     Edge 115, Type (0, 1), BuildingBlock: XUDNAN_clean_linker_2, # of connection points: 2
#     Edge 116, Type (0, 1), BuildingBlock: XUDNAN_clean_linker_2, # of connection points: 2
#     Edge 117, Type (0, 1), BuildingBlock: XUDNAN_clean_linker_2, # of connection points: 2
#     Edge 118, Type (0, 1), BuildingBlock: XUDNAN_clean_linker_2, # of connection points: 2
#     Edge 119, Type (0, 1), BuildingBlock: XUDNAN_clean_linker_2, # of connection points: 2
#     Edge 120, Type (0, 1), BuildingBlock: XUDNAN_clean_linker_2, # of connection points: 2
#     Edge 121, Type (0, 1), BuildingBlock: XUDNAN_clean_linker_2, # of connection points: 2
#     Edge 122, Type (0, 1), BuildingBlock: XUDNAN_clean_linker_2, # of connection points: 2
#     Edge 123, Type (0, 1), BuildingBlock: XUDNAN_clean_linker_2, # of connection points: 2
#     Edge 124, Type (0, 1), BuildingBlock: XUDNAN_clean_linker_2, # of connection points: 2
#     Edge 125, Type (0, 1), BuildingBlock: XUDNAN_clean_linker_2, # of connection points: 2
#     Edge 126, Type (0, 1), BuildingBlock: XUDNAN_clean_linker_2, # of connection points: 2
#     Edge 127, Type (0, 1), BuildingBlock: XUDNAN_clean_linker_2, # of connection points: 2
#     Edge 128, Type (0, 1), BuildingBlock: XUDNAN_clean_linker_2, # of connection points: 2
#     Edge 129, Type (0, 1), BuildingBlock: XUDNAN_clean_linker_2, # of connection points: 2
#     Edge 130, Type (0, 1), BuildingBlock: XUDNAN_clean_linker_2, # of connection points: 2
#     Edge 131, Type (0, 1), BuildingBlock: XUDNAN_clean_linker_2, # of connection points: 2
#     Edge 132, Type (0, 1), BuildingBlock: XUDNAN_clean_linker_2, # of connection points: 2
#     Edge 133, Type (0, 1), BuildingBlock: XUDNAN_clean_linker_2, # of connection points: 2
#     Edge 134, Type (0, 1), BuildingBlock: XUDNAN_clean_linker_2, # of connection points: 2
#     Edge 135, Type (0, 1), BuildingBlock: XUDNAN_clean_linker_2, # of connection points: 2
# Relax obj value: 0.143
# Max RMSD: 0.270
# Mean RMSD: 0.155
data_MOF--net-gar--node1-QUQFOY_clean_sbu_3--node2-PAMTOO_clean_sbu_0--edge1-XUDNAN_clean_linker_2
_symmetry_space_group_name_H-M    P1
_symmetry_Int_Tables_number       1
_symmetry_cell_setting            triclinic
loop_
_symmetry_equiv_pos_as_xyz
'x, y, z'
_cell_length_a     59.887352
_cell_length_b     61.121013
_cell_length_c     58.561491
_cell_angle_alpha  96.976925
_cell_angle_beta   95.674809
_cell_angle_gamma 104.5003
loop_
_atom_site_label
_atom_site_type_symbol
_atom_site_fract_x
_atom_site_fract_y
_atom_site_fract_z
_atom_type_partial_charge
C0 C 1.0035 0.32213 0.33474 0.0
O1 O 0.01512 0.32877 0.31877 0.0
Cd2 Cd 0.05647 0.34283 0.33222 0.0
O3 O 0.01419 0.31948 0.35376 0.0
Cd4 Cd 0.0555 0.31869 0.3696 0.0
C5 C 0.0606 0.37456 0.38607 0.0
O6 O 0.07715 0.3135 0.33498 0.0
O7 O 0.09863 0.32732 0.36776 0.0
O8 O 0.03699 0.27833 0.37068 0.0
C9 C 0.09743 0.31929 0.34651 0.0
O10 O 0.06222 0.37468 0.36455 0.0
C11 C 0.04441 0.27809 0.39169 0.0
O12 O 0.05743 0.35573 0.39413 0.0
O13 O 0.05745 0.29684 0.40284 0.0
C14 C 0.97392 0.75338 0.7196 0.0
O15 O 0.9796 0.73737 0.72859 0.0
Cd16 Cd 0.01701 0.73105 0.71936 0.0
O17 O 0.98705 0.76359 0.70605 0.0
Cd18 Cd 0.02472 0.76087 0.68942 0.0
C19 C 0.01324 0.70428 0.66567 0.0
O20 O 0.05222 0.76363 0.72593 0.0
O21 O 0.06447 0.75566 0.69332 0.0
O22 O 0.03031 0.80214 0.69008 0.0
C23 C 0.06914 0.76135 0.71511 0.0
O24 O 0.01583 0.70121 0.68675 0.0
C25 C 0.03284 0.80274 0.66891 0.0
O26 O 0.01293 0.72414 0.6611 0.0
O27 O 0.03184 0.78376 0.65674 0.0
C28 C 0.50247 0.81969 0.83228 0.0
O29 O 0.51437 0.83569 0.82311 0.0
Cd30 Cd 0.55661 0.84661 0.83163 0.0
O31 O 0.51275 0.81007 0.84668 0.0
Cd32 Cd 0.55453 0.81771 0.86675 0.0
C33 C 0.56175 0.87613 0.8845 0.0
O34 O 0.57478 0.81474 0.83079 0.0
O35 O 0.597 0.82098 0.86334 0.0
O36 O 0.54209 0.77754 0.8751 0.0
C37 C 0.59489 0.81634 0.84139 0.0
O38 O 0.56604 0.87777 0.86386 0.0
C39 C 0.54796 0.78306 0.8969 0.0
O40 O 0.55578 0.85631 0.8905 0.0
O41 O 0.55708 0.80416 0.90425 0.0
C42 C 0.47672 0.25367 0.22237 0.0
O43 O 0.48405 0.23777 0.22998 0.0
Cd44 Cd 0.52227 0.23132 0.2239 0.0
O45 O 0.48869 0.26581 0.20926 0.0
Cd46 Cd 0.52728 0.26506 0.19272 0.0
C47 C 0.51945 0.20768 0.16891 0.0
O48 O 0.55448 0.26544 0.22912 0.0
O49 O 0.56901 0.2665 0.19685 0.0
O50 O 0.53203 0.30611 0.19258 0.0
C51 C 0.57232 0.26701 0.2186 0.0
O52 O 0.52331 0.20436 0.18977 0.0
C53 C 0.53359 0.30605 0.17112 0.0
O54 O 0.51714 0.22717 0.16477 0.0
O55 O 0.53195 0.28675 0.15922 0.0
C56 C 0.03841 0.79123 0.15004 0.0
O57 O 0.05366 0.78304 0.15997 0.0
Cd58 Cd 0.09 0.77972 0.15181 0.0
O59 O 0.04165 0.8004 0.13151 0.0
Cd60 Cd 0.07436 0.8105 0.10445 0.0
C61 C 0.06906 0.75526 0.09247 0.0
O62 O 0.10189 0.81532 0.14072 0.0
O63 O 0.11911 0.81968 0.11089 0.0
O64 O 0.05871 0.84512 0.10573 0.0
C65 C 0.12088 0.81862 0.1325 0.0
O66 O 0.07641 0.7639 0.1133 0.0
C67 C 0.06517 0.85271 0.08753 0.0
O68 O 0.06446 0.76893 0.0789 0.0
O69 O 0.07595 0.84069 0.07591 0.0
C70 C 0.45625 0.77699 0.40724 0.0
O71 O 0.47175 0.79158 0.39976 0.0
Cd72 Cd 0.51212 0.80514 0.41302 0.0
O73 O 0.4618 0.76689 0.42424 0.0
Cd74 Cd 0.50151 0.7696 0.45125 0.0
C75 C 0.50971 0.82877 0.46925 0.0
O76 O 0.52476 0.77234 0.41843 0.0
O77 O 0.5448 0.77945 0.45224 0.0
O78 O 0.49087 0.72687 0.44885 0.0
C79 C 0.54449 0.77656 0.43043 0.0
O80 O 0.51442 0.8301 0.44869 0.0
C81 C 0.49951 0.72503 0.46903 0.0
O82 O 0.50309 0.80903 0.47578 0.0
O83 O 0.50749 0.74393 0.48262 0.0
C84 C 0.53271 0.29463 0.6439 0.0
O85 O 0.54383 0.28325 0.6551 0.0
Cd86 Cd 0.58221 0.27948 0.65153 0.0
O87 O 0.54143 0.3055 0.62809 0.0
Cd88 Cd 0.57733 0.31266 0.60707 0.0
C89 C 0.57047 0.25222 0.59398 0.0
O90 O 0.60281 0.31539 0.64377 0.0
O91 O 0.62108 0.31966 0.61441 0.0
O92 O 0.56846 0.35147 0.60575 0.0
C93 C 0.62201 0.31774 0.6358 0.0
O94 O 0.57565 0.25328 0.61577 0.0
C95 C 0.57257 0.35385 0.58519 0.0
O96 O 0.56862 0.27028 0.58537 0.0
O97 O 0.5788 0.33738 0.57445 0.0
C98 C 0.95457 0.2721 0.91047 0.0
O99 O 0.96875 0.28173 0.89773 0.0
Cd100 Cd 0.00984 0.29421 0.90596 0.0
O101 O 0.962 0.26648 0.92977 0.0
Cd102 Cd 1.00322 0.27039 0.95354 0.0
C103 C 0.01255 0.32966 0.95906 0.0
O104 O 0.02625 0.26693 0.92103 0.0
O105 O 0.04529 0.28656 0.95307 0.0
O106 O 0.99887 0.22816 0.95663 0.0
C107 C 0.04582 0.27771 0.93247 0.0
O108 O 0.01435 0.3246 0.93771 0.0
C109 C 0.00495 0.23026 0.97836 0.0
O110 O 0.00696 0.31346 0.97133 0.0
O111 O 0.00853 0.25051 0.98919 0.0
C112 C 0.43876 0.04696 0.35298 0.0
O113 O 0.45462 0.04335 0.34141 0.0
Cd114 Cd 0.44651 0.02353 0.30265 0.0
O115 O 0.41783 0.04254 0.34377 0.0
Cd116 Cd 0.39786 0.03078 0.30513 0.0
C117 C 0.4026 0.98011 0.31339 0.0
O118 O 0.42472 0.04125 0.27786 0.0
O119 O 0.39521 0.01144 0.26674 0.0
O120 O 0.38545 0.06497 0.30872 0.0
C121 C 0.41184 0.02654 0.26154 0.0
O122 O 0.42271 0.98592 0.30706 0.0
C123 C 0.36459 0.05488 0.30015 0.0
O124 O 0.38989 0.99383 0.31554 0.0
O125 O 0.35877 0.03318 0.29585 0.0
C126 C 0.3129 0.17379 0.5332 0.0
O127 O 0.29854 0.16167 0.54422 0.0
Cd128 Cd 0.25963 0.16288 0.54507 0.0
O129 O 0.30714 0.18849 0.52168 0.0
Cd130 Cd 0.2727 0.20426 0.51178 0.0
C131 C 0.27109 0.22038 0.56942 0.0
O132 O 0.2488 0.16609 0.50611 0.0
O133 O 0.22873 0.19038 0.50368 0.0
O134 O 0.29042 0.20492 0.47631 0.0
C135 C 0.229 0.16958 0.50244 0.0
O136 O 0.26468 0.19892 0.56968 0.0
C137 C 0.28539 0.22244 0.47009 0.0
O138 O 0.2761 0.22823 0.55074 0.0
O139 O 0.27451 0.23254 0.48366 0.0
C140 C 0.09276 0.05064 0.83023 0.0
O141 O 0.07969 0.06034 0.81922 0.0
Cd142 Cd 0.08767 0.07163 0.78238 0.0
O143 O 0.10938 0.04505 0.82106 0.0
Cd144 Cd 0.12444 0.04492 0.78223 0.0
C145 C 0.14532 0.10226 0.79243 0.0
O146 O 0.08899 0.04011 0.75416 0.0
O147 O 0.12235 0.05244 0.7423 0.0
O148 O 0.1243 0.00459 0.7737 0.0
C149 C 0.10041 0.04534 0.73755 0.0
O150 O 0.12396 0.10228 0.78991 0.0
C151 C 0.1462 0.00791 0.77757 0.0
O152 O 0.15118 0.08356 0.79089 0.0
O153 O 0.15818 0.0284 0.78425 0.0
C154 C 0.32157 0.95986 0.99643 0.0
O155 O 0.31309 0.96972 0.98123 0.0
Cd156 Cd 0.2744 0.95265 0.96265 0.0
O157 O 0.30959 0.94204 0.0028 0.0
Cd158 Cd 0.27168 0.91548 -0.00288 0.0
C159 C 0.28798 0.90262 0.94649 0.0
O160 O 0.25194 0.94386 0.99371 0.0
O161 O 0.22998 0.90901 0.98811 0.0
O162 O 0.2839 0.91905 0.03718 0.0
C163 C 0.23169 0.93032 0.99075 0.0
O164 O 0.28402 0.92094 0.94103 0.0
C165 C 0.2783 0.89769 0.03764 0.0
O166 O 0.28418 0.89642 0.96587 0.0
O167 O 0.26734 0.88444 0.01936 0.0
C168 C 0.33957 0.42014 0.04175 0.0
O169 O 0.32821 0.43463 0.03824 0.0
Cd170 Cd 0.28843 0.42216 0.02175 0.0
O171 O 0.32911 0.39917 0.0418 0.0
Cd172 Cd 0.28797 0.37526 0.04214 0.0
C173 C 0.28955 0.37217 0.98498 0.0
O174 O 0.26731 0.40447 0.04901 0.0
O175 O 0.24601 0.37139 0.03218 0.0
O176 O 0.29646 0.37152 0.08315 0.0
C177 C 0.24727 0.39176 0.04086 0.0
O178 O 0.2886 0.39283 0.98961 0.0
C179 C 0.28758 0.35007 0.08067 0.0
O180 O 0.28993 0.35991 0.00114 0.0
O181 O 0.28026 0.33993 0.05997 0.0
C182 C 0.82724 0.12698 0.07204 0.0
O183 O 0.81196 0.11419 0.08158 0.0
Cd184 Cd 0.7724 0.11312 0.08166 0.0
O185 O 0.82281 0.1427 0.06146 0.0
Cd186 Cd 0.79052 0.15925 0.05471 0.0
C187 C 0.77982 0.16702 0.11001 0.0
O188 O 0.76124 0.12405 0.0462 0.0
O189 O 0.74888 0.15445 0.04843 0.0
O190 O 0.79446 0.16494 0.01555 0.0
C191 C 0.74423 0.13287 0.04533 0.0
O192 O 0.77202 0.14547 0.10853 0.0
C193 C 0.79635 0.18626 0.01943 0.0
O194 O 0.78952 0.17623 0.09384 0.0
O195 O 0.79867 0.19552 0.04046 0.0
C196 C 0.1255 0.5446 0.27068 0.0
O197 O 0.1154 0.55272 0.25498 0.0
Cd198 Cd 0.13052 0.5601 0.21955 0.0
O199 O 0.14455 0.53956 0.2685 0.0
Cd200 Cd 0.17327 0.54242 0.24216 0.0
C201 C 0.17766 0.598 0.25152 0.0
O202 O 0.14944 0.53163 0.20609 0.0
O203 O 0.18536 0.5492 0.20443 0.0
O204 O 0.18362 0.50833 0.24885 0.0
C205 C 0.16537 0.53852 0.19385 0.0
O206 O 0.15999 0.5949 0.23628 0.0
C207 C 0.20384 0.51906 0.25905 0.0
O208 O 0.18485 0.58143 0.25734 0.0
O209 O 0.20992 0.54068 0.26074 0.0
C210 C 0.841 0.91849 0.53394 0.0
O211 O 0.82883 0.93014 0.52472 0.0
Cd212 Cd 0.78882 0.91415 0.51154 0.0
O213 O 0.83153 0.89913 0.53962 0.0
Cd214 Cd 0.79099 0.87575 0.5427 0.0
C215 C 0.79124 0.85971 0.48631 0.0
O216 O 0.77054 0.90538 0.54433 0.0
O217 O 0.74908 0.87173 0.53023 0.0
O218 O 0.80292 0.88141 0.58397 0.0
C219 C 0.75037 0.89257 0.53705 0.0
O220 O 0.78876 0.87971 0.48534 0.0
C221 C 0.79446 0.86109 0.58745 0.0
O222 O 0.79336 0.8526 0.50582 0.0
O223 O 0.78462 0.8465 0.56961 0.0
C224 C 0.98733 0.02337 0.31211 0.0
O225 O 0.99358 0.00913 0.29816 0.0
Cd226 Cd 0.97707 0.99683 0.25773 0.0
O227 O 0.97216 0.03332 0.30518 0.0
Cd228 Cd 0.94819 0.03326 0.26769 0.0
C229 C 0.9205 0.97636 0.26538 0.0
O230 O 0.97736 0.0311 0.24161 0.0
O231 O 0.94327 0.02994 0.22471 0.0
O232 O 0.95366 0.07444 0.27543 0.0
C233 C 0.96438 0.03071 0.223 0.0
O234 O 0.93834 0.97151 0.2583 0.0
C235 C 0.93228 0.07326 0.27612 0.0
O236 O 0.92017 0.99704 0.2711 0.0
O237 O 0.91828 0.05345 0.27345 0.0
C238 C 0.31264 0.62116 0.56136 0.0
O239 O 0.29532 0.60876 0.56873 0.0
Cd240 Cd 0.25856 0.61568 0.57135 0.0
O241 O 0.31197 0.63973 0.55395 0.0
Cd242 Cd 0.28521 0.66343 0.5502 0.0
C243 C 0.28304 0.6654 0.60773 0.0
O244 O 0.25195 0.6331 0.53808 0.0
O245 O 0.24509 0.66555 0.54846 0.0
O246 O 0.29993 0.67386 0.51523 0.0
C247 C 0.23721 0.64445 0.54081 0.0
O248 O 0.26962 0.64527 0.60509 0.0
C249 C 0.30095 0.69492 0.52037 0.0
O250 O 0.29127 0.67459 0.59093 0.0
O251 O 0.29566 0.70152 0.54005 0.0
C252 C 0.48372 0.52598 0.81139 0.0
O253 O 0.48523 0.50851 0.79814 0.0
Cd254 Cd 0.47116 0.50102 0.75652 0.0
O255 O 0.47244 0.53929 0.80373 0.0
Cd256 Cd 0.44474 0.53363 0.7674 0.0
C257 C 0.41903 0.47558 0.76318 0.0
O258 O 0.47238 0.53471 0.73759 0.0
O259 O 0.43607 0.52955 0.72509 0.0
O260 O 0.43966 0.57305 0.77539 0.0
C261 C 0.45687 0.53346 0.72065 0.0
O262 O 0.43446 0.47177 0.75108 0.0
C263 C 0.4183 0.56603 0.77785 0.0
O264 O 0.42047 0.49584 0.77268 0.0
O265 O 0.40972 0.54456 0.77525 0.0
C266 C 0.63489 0.06131 0.78033 0.0
O267 O 0.62317 0.06624 0.76336 0.0
Cd268 Cd 0.62667 0.05919 0.7226 0.0
O269 O 0.65155 0.05232 0.77747 0.0
Cd270 Cd 0.67234 0.04368 0.74538 0.0
C271 C 0.67967 0.09658 0.73058 0.0
O272 O 0.6422 0.02737 0.71435 0.0
O273 O 0.67703 0.03596 0.70489 0.0
O274 O 0.68232 0.01046 0.75577 0.0
C275 C 0.65534 0.02822 0.69853 0.0
O276 O 0.65901 0.09138 0.72 0.0
C277 C 0.70345 0.02098 0.76297 0.0
O278 O 0.68728 0.08318 0.74237 0.0
O279 O 0.71006 0.04227 0.76217 0.0
C280 C 0.81214 0.67053 0.03098 0.0
O281 O 0.7961 0.65675 0.03866 0.0
Cd282 Cd 0.75824 0.66104 0.04113 0.0
O283 O 0.80845 0.68773 0.02238 0.0
Cd284 Cd 0.77316 0.7023 0.01331 0.0
C285 C 0.77056 0.71631 0.0705 0.0
O286 O 0.74494 0.6654 0.00288 0.0
O287 O 0.73008 0.6931 0.01279 0.0
O288 O 0.78351 0.7062 0.97402 0.0
C289 C 0.72688 0.6723 0.00427 0.0
O290 O 0.76192 0.69491 0.0698 0.0
C291 C 0.78083 0.72613 0.97386 0.0
O292 O 0.77798 0.72421 0.05265 0.0
O293 O 0.77537 0.73543 0.99235 0.0
C294 C 0.93622 0.52811 0.84965 0.0
O295 O 0.94713 0.51837 0.83586 0.0
Cd296 Cd 0.94291 0.51381 0.79397 0.0
O297 O 0.92041 0.53683 0.84214 0.0
Cd298 Cd 0.90057 0.53528 0.80455 0.0
C299 C 0.89079 0.47864 0.7924 0.0
O300 O 0.93041 0.54429 0.7799 0.0
O301 O 0.89495 0.52843 0.76341 0.0
O302 O 0.89071 0.5708 0.81139 0.0
C303 C 0.91592 0.53776 0.76146 0.0
O304 O 0.90983 0.48084 0.78393 0.0
C305 C 0.869 0.56136 0.80923 0.0
O306 O 0.88522 0.4954 0.80308 0.0
O307 O 0.8621 0.5397 0.80576 0.0
C308 C 0.82725 0.46048 0.50156 0.0
O309 O 0.81796 0.47316 0.49035 0.0
Cd310 Cd 0.77742 0.46298 0.47557 0.0
O311 O 0.81553 0.44159 0.50598 0.0
Cd312 Cd 0.77657 0.41755 0.50024 0.0
C313 C 0.77839 0.41375 0.44291 0.0
O314 O 0.75816 0.44709 0.50598 0.0
O315 O 0.73508 0.41269 0.49806 0.0
O316 O 0.7927 0.41614 0.5379 0.0
C317 C 0.73763 0.43407 0.50258 0.0
O318 O 0.77542 0.43366 0.44321 0.0
C319 C 0.7871 0.39452 0.53595 0.0
O320 O 0.78021 0.40496 0.46135 0.0
O321 O 0.77476 0.38301 0.51735 0.0
C322 C 0.59394 0.55517 0.33107 0.0
O323 O 0.58525 0.56881 0.32065 0.0
Cd324 Cd 0.58852 0.57736 0.28179 0.0
O325 O 0.60692 0.54433 0.32117 0.0
Cd326 Cd 0.62189 0.54458 0.28201 0.0
C327 C 0.64659 0.60252 0.28958 0.0
O328 O 0.58524 0.54246 0.25662 0.0
O329 O 0.61606 0.54455 0.24001 0.0
O330 O 0.6261 0.50555 0.28382 0.0
C331 C 0.59445 0.54271 0.23801 0.0
O332 O 0.62627 0.60499 0.28491 0.0
C333 C 0.64584 0.50986 0.27659 0.0
O334 O 0.64979 0.58293 0.29131 0.0
O335 O 0.6545 0.5301 0.27305 0.0
Dy336 Dy 0.06411 0.05491 0.04596 0.0
Dy337 Dy 0.01522 0.0305 0.0148 0.0
C338 C 0.06044 0.0418 0.99112 0.0
O339 O 0.04592 0.08328 0.04533 0.0
O340 O 0.02129 0.06812 0.01171 0.0
O341 O 0.09725 0.08037 0.05121 0.0
O342 O 0.08798 0.05882 0.07724 0.0
O343 O 0.00527 0.04046 0.05029 0.0
O344 O 0.04054 0.04373 0.07132 0.0
O345 O 0.02488 0.00194 0.03077 0.0
O346 O 0.06427 0.01716 0.03897 0.0
O347 O 0.9802 0.00855 0.00892 0.0
O348 O 0.99529 0.02392 0.98073 0.0
C349 C 0.03215 0.08591 0.02739 0.0
O350 O 0.06938 0.05749 0.00918 0.0
O351 O 0.04222 0.02514 0.99241 0.0
C352 C 0.1249 0.06314 0.06684 0.0
C353 C 0.15433 0.03446 0.06173 0.0
C354 C 0.14267 0.03982 0.04211 0.0
C355 C 0.12805 0.05396 0.04462 0.0
C356 C 0.13742 0.05871 0.08654 0.0
C357 C 0.15204 0.04423 0.08399 0.0
C358 C 0.1048 0.0723 0.06918 0.0
C359 C 0.01818 0.04133 0.07015 0.0
C360 C 0.04572 0.9995 0.03703 0.0
C361 C 0.95671 0.02364 0.98491 0.0
C362 C 0.92385 0.04613 -0.00204 0.0
C363 C 0.94472 0.05862 0.99171 0.0
C364 C 0.96118 0.04741 0.98528 0.0
C365 C 0.93452 0.01091 0.98782 0.0
C366 C 0.91809 0.02216 0.99439 0.0
C367 C 0.97624 0.01353 0.98814 0.0
H368 H 0.14382 0.03199 0.02478 0.0
H369 H 0.11806 0.05641 0.02913 0.0
H370 H 0.13473 0.06524 0.10381 0.0
H371 H 0.1609 0.04008 0.09926 0.0
H372 H 0.94946 0.07715 0.99443 0.0
H373 H 0.97821 0.05766 0.98312 0.0
H374 H 0.93082 0.9926 0.98761 0.0
H375 H 0.90189 0.01234 -0.001 0.0
Dy376 Dy 0.30064 0.79773 0.26158 0.0
Dy377 Dy 0.26113 0.78534 0.2955 0.0
C378 C 0.28987 0.83463 0.2957 0.0
O379 O 0.32133 0.80113 0.29625 0.0
O380 O 0.29358 0.77726 0.31268 0.0
O381 O 0.32938 0.82144 0.25079 0.0
O382 O 0.31706 0.78627 0.23322 0.0
O383 O 0.25664 0.75829 0.26554 0.0
O384 O 0.29491 0.76153 0.26612 0.0
O385 O 0.24216 0.79674 0.26543 0.0
O386 O 0.26696 0.79273 0.23839 0.0
O387 O 0.23969 0.7584 0.31036 0.0
O388 O 0.23712 0.7933 0.31838 0.0
C389 C 0.31564 0.78793 0.31202 0.0
O390 O 0.28788 0.82758 0.27346 0.0
O391 O 0.2839 0.81973 0.30961 0.0
C392 C 0.32846 0.81423 0.21037 0.0
C393 C 0.32257 0.82525 0.16574 0.0
C394 C 0.30779 0.82991 0.1817 0.0
C395 C 0.3108 0.82452 0.204 0.0
C396 C 0.34288 0.80909 0.19428 0.0
C397 C 0.34009 0.81478 0.17205 0.0
C398 C 0.33026 0.80672 0.23293 0.0
C399 C 0.27359 0.74903 0.26208 0.0
C400 C 0.24701 0.79596 0.2438 0.0
C401 C 0.23734 0.77114 0.34885 0.0
C402 C 0.25706 0.76289 0.39123 0.0
C403 C 0.23899 0.74587 0.37746 0.0
C404 C 0.22906 0.75003 0.3564 0.0
C405 C 0.25429 0.78869 0.36356 0.0
C406 C 0.26407 0.78457 0.38469 0.0
C407 C 0.23237 0.77276 0.32415 0.0
H408 H 0.29446 0.8384 0.17717 0.0
H409 H 0.29944 0.82838 0.21629 0.0
H410 H 0.35624 0.80069 0.19892 0.0
H411 H 0.3517 0.81127 0.15987 0.0
H412 H 0.23365 0.72895 0.38227 0.0
H413 H 0.21629 0.73618 0.34517 0.0
H414 H 0.26127 0.80503 0.35803 0.0
H415 H 0.27821 0.79773 0.39511 0.0
Dy416 Dy 0.50843 0.03765 0.54471 0.0
Dy417 Dy 0.56428 0.04133 0.52161 0.0
C418 C 0.52033 0.04113 0.49386 0.0
O419 O 0.51406 0.00175 0.54135 0.0
O420 O 0.54519 0.00374 0.51894 0.0
O421 O 0.47301 0.02962 0.52812 0.0
O422 O 0.48103 0.04145 0.56512 0.0
O423 O 0.54698 0.04211 0.55137 0.0
O424 O 0.5285 0.03875 0.5799 0.0
O425 O 0.56308 0.07807 0.52965 0.0
O426 O 0.52661 0.07509 0.54309 0.0
O427 O 0.59893 0.04661 0.5393 0.0
O428 O 0.59191 0.03957 0.50124 0.0
C429 C 0.52782 0.99216 0.52907 0.0
O430 O 0.51332 0.02684 0.50817 0.0
O431 O 0.54254 0.04797 0.49231 0.0
C432 C 0.45304 0.05487 0.54405 0.0
C433 C 0.42888 0.08829 0.53815 0.0
C434 C 0.45053 0.09014 0.5301 0.0
C435 C 0.46252 0.0736 0.53306 0.0
C436 C 0.43159 0.05302 0.55228 0.0
C437 C 0.41959 0.06958 0.54937 0.0
C438 C 0.46548 0.03729 0.54679 0.0
C439 C 0.54866 0.04098 0.57312 0.0
C440 C 0.54668 0.08706 0.53748 0.0
C441 C 0.62079 0.02456 0.51915 0.0
C442 C 0.64634 0.9915 0.51691 0.0
C443 C 0.6377 0.99771 0.53749 0.0
C444 C 0.6251 0.0141 0.5386 0.0
C445 C 0.62976 0.01861 0.49871 0.0
C446 C 0.64234 0.00218 0.49756 0.0
C447 C 0.60697 0.04153 0.51978 0.0
H448 H 0.4583 0.10446 0.52166 0.0
H449 H 0.47916 0.07537 0.52667 0.0
H450 H 0.42406 0.03867 0.5608 0.0
H451 H 0.40281 0.06749 0.55549 0.0
H452 H 0.64039 0.98966 0.55265 0.0
H453 H 0.61871 0.0185 0.55465 0.0
H454 H 0.62696 0.02661 0.48354 0.0
H455 H 0.64911 0.99799 0.48159 0.0
Dy456 Dy 0.30789 0.27917 0.77921 0.0
Dy457 Dy 0.25973 0.29645 0.78141 0.0
C458 C 0.30853 0.33043 0.77689 0.0
O459 O 0.30913 0.29741 0.81534 0.0
O460 O 0.27002 0.28896 0.8167 0.0
O461 O 0.34509 0.28549 0.78805 0.0
O462 O 0.32546 0.25436 0.76585 0.0
O463 O 0.24931 0.25836 0.77632 0.0
O464 O 0.28289 0.25143 0.79273 0.0
O465 O 0.26685 0.29658 0.74441 0.0
O466 O 0.28658 0.26895 0.74434 0.0
O467 O 0.22278 0.29188 0.77196 0.0
O468 O 0.24322 0.3216 0.79584 0.0
C469 C 0.29143 0.29591 0.82727 0.0
O470 O 0.3147 0.31303 0.76657 0.0
O471 O 0.29021 0.32733 0.78791 0.0
C472 C 0.36297 0.27169 0.75725 0.0
C473 C 0.39645 0.28083 0.72623 0.0
C474 C 0.37876 0.29229 0.72686 0.0
C475 C 0.36222 0.28777 0.74218 0.0
C476 C 0.38014 0.2598 0.75634 0.0
C477 C 0.39671 0.26429 0.74099 0.0
C478 C 0.34611 0.26754 0.77409 0.0
C479 C 0.26026 0.2451 0.78614 0.0
C480 C 0.27541 0.28124 0.73319 0.0
C481 C 0.20426 0.30715 0.80184 0.0
C482 C 0.17121 0.30456 0.83349 0.0
C483 C 0.18265 0.28717 0.82975 0.0
C484 C 0.19916 0.28853 0.81416 0.0
C485 C 0.19254 0.3242 0.8052 0.0
C486 C 0.17623 0.32295 0.82084 0.0
C487 C 0.22242 0.30985 0.78629 0.0
H488 H 0.37769 0.30483 0.71551 0.0
H489 H 0.34895 0.29699 0.74242 0.0
H490 H 0.38096 0.24726 0.76777 0.0
H491 H 0.41013 0.25526 0.74121 0.0
H492 H 0.17932 0.27289 0.83937 0.0
H493 H 0.20817 0.27526 0.81198 0.0
H494 H 0.19624 0.33872 0.79592 0.0
H495 H 0.16755 0.33648 0.82307 0.0
Dy496 Dy 0.04641 0.01526 0.52523 0.0
Dy497 Dy 0.02996 0.06368 0.53023 0.0
C498 C 0.9961 0.01569 0.53367 0.0
O499 O 0.02962 0.01665 0.48953 0.0
O500 O 0.03436 0.05561 0.49301 0.0
O501 O 0.03787 0.97854 0.51577 0.0
O502 O 0.07178 0.99687 0.53425 0.0
O503 O 0.06839 0.07347 0.52883 0.0
O504 O 0.07411 0.03965 0.51138 0.0
O505 O 0.03387 0.05458 0.56641 0.0
O506 O 0.06235 0.03726 0.55874 0.0
O507 O 0.03582 0.0998 0.54266 0.0
O508 O 1.00344 0.08078 0.52156 0.0
C509 C 0.02994 0.03536 0.48036 0.0
O510 O 0.01436 0.00994 0.54226 0.0
O511 O 0.9984 0.03367 0.52311 0.0
C512 C 0.05459 0.96067 0.54415 0.0
C513 C 0.05059 0.9301 0.57722 0.0
C514 C 0.03491 0.9437 0.57473 0.0
C515 C 0.03695 0.95886 0.55848 0.0
C516 C 0.07025 0.94718 0.54649 0.0
C517 C 0.06828 0.93203 0.56282 0.0
C518 C 0.0571 0.97691 0.52719 0.0
C519 C 0.08111 0.06195 0.51796 0.0
C520 C 0.05044 0.04539 0.57361 0.0
C521 C 0.01829 0.119 0.51555 0.0
C522 C 0.01987 0.15174 0.48491 0.0
C523 C 0.04054 0.14798 0.49528 0.0
C524 C 0.03976 0.13167 0.51034 0.0
C525 C 0.99773 0.12312 0.50556 0.0
C526 C 0.99849 0.13921 0.49037 0.0
C527 C 0.01669 0.10095 0.53063 0.0
H528 H 0.02086 0.9425 0.58521 0.0
H529 H 0.02471 0.96918 0.55713 0.0
H530 H 0.08413 0.94847 0.53576 0.0
H531 H 0.08087 0.92212 0.56441 0.0
H532 H 0.05727 0.1572 0.49126 0.0
H533 H 0.05595 0.12881 0.51761 0.0
H534 H 0.98096 0.11366 0.5093 0.0
H535 H 0.98227 0.14186 0.4829 0.0
Dy536 Dy 0.29098 0.81738 0.772 0.0
Dy537 Dy 0.2795 0.76042 0.77277 0.0
C538 C 0.28155 0.79538 0.81535 0.0
O539 O 0.32509 0.81347 0.78945 0.0
O540 O 0.31825 0.77444 0.7784 0.0
O541 O 0.29777 0.85196 0.79004 0.0
O542 O 0.29159 0.84499 0.75228 0.0
O543 O 0.27713 0.77169 0.73825 0.0
O544 O 0.30783 0.80265 0.7444 0.0
O545 O 0.24374 0.76645 0.76915 0.0
O546 O 0.25363 0.80136 0.75568 0.0
O547 O 0.2818 0.72967 0.75213 0.0
O548 O 0.26939 0.72807 0.78569 0.0
C549 C 0.33241 0.79465 0.78719 0.0
O550 O 0.27108 0.80352 0.79916 0.0
O551 O 0.28919 0.77763 0.80939 0.0
C552 C 0.27659 0.87415 0.7701 0.0
C553 C 0.24381 0.90034 0.76759 0.0
C554 C 0.25042 0.89332 0.78862 0.0
C555 C 0.26651 0.88021 0.7898 0.0
C556 C 0.27026 0.88161 0.74922 0.0
C557 C 0.25393 0.89438 0.74793 0.0
C558 C 0.29345 0.85999 0.7708 0.0
C559 C 0.29574 0.78387 0.73145 0.0
C560 C 0.2379 0.78324 0.75982 0.0
C561 C 0.29318 0.7034 0.77418 0.0
C562 C 0.32321 0.67553 0.78383 0.0
C563 C 0.31932 0.68092 0.7614 0.0
C564 C 0.30439 0.69459 0.7566 0.0
C565 C 0.29756 0.69849 0.79677 0.0
C566 C 0.31239 0.6847 0.80152 0.0
C567 C 0.27684 0.71729 0.76853 0.0
H568 H 0.24275 0.89754 0.80401 0.0
H569 H 0.27087 0.87465 0.80605 0.0
H570 H 0.27783 0.87739 0.73377 0.0
H571 H 0.24931 0.89975 0.73155 0.0
H572 H 0.32714 0.67389 0.74733 0.0
H573 H 0.30134 0.69796 0.73898 0.0
H574 H 0.28933 0.70505 0.81075 0.0
H575 H 0.3152 0.68098 0.81904 0.0
Dy576 Dy 0.53213 0.05376 0.00636 0.0
Dy577 Dy 0.53617 0.02318 0.04737 0.0
C578 C 0.54212 0.00536 0.99492 0.0
O579 O 0.49696 0.02937 0.00466 0.0
O580 O 0.5007 0.02682 0.04325 0.0
O581 O 0.5227 0.05705 0.97067 0.0
O582 O 0.53955 0.08717 0.99588 0.0
O583 O 0.53815 0.05926 0.06554 0.0
O584 O 0.51891 0.07112 0.03561 0.0
O585 O 0.57194 0.03407 0.03996 0.0
O586 O 0.56787 0.06636 0.02582 0.0
O587 O 0.54704 0.01795 0.08218 0.0
O588 O 0.52593 0.98957 0.05689 0.0
C589 C 0.48782 0.0243 0.02344 0.0
O590 O 0.5483 0.02689 0.99214 0.0
O591 O 0.53228 0.99957 0.01322 0.0
C592 C 0.55279 0.08461 0.95987 0.0
C593 C 0.58733 0.09247 0.93065 0.0
C594 C 0.58834 0.07814 0.94746 0.0
C595 C 0.57126 0.07435 0.96208 0.0
C596 C 0.5524 0.09991 0.94402 0.0
C597 C 0.56968 0.10391 0.9295 0.0
C598 C 0.53395 0.07869 0.97394 0.0
C599 C 0.52702 0.07366 0.05771 0.0
C600 C 0.58079 0.05416 0.03451 0.0
C601 C 0.51528 0.99321 0.09413 0.0
C602 C 0.48263 0.99532 0.12472 0.0
C603 C 0.47631 0.99445 0.10093 0.0
C604 C 0.49247 0.99328 0.08572 0.0
C605 C 0.5212 0.99266 0.11774 0.0
C606 C 0.50485 0.99356 0.13301 0.0
C607 C 0.5333 0.9972 0.07882 0.0
H608 H 0.60187 0.06925 0.94871 0.0
H609 H 0.57205 0.06284 0.97462 0.0
H610 H 0.5384 0.10816 0.94238 0.0
H611 H 0.56849 0.1149 0.91649 0.0
H612 H 0.45921 0.99572 0.09427 0.0
H613 H 0.48739 0.99362 0.06754 0.0
H614 H 0.53874 0.99278 0.1245 0.0
H615 H 0.51001 0.99439 0.15143 0.0
Dy616 Dy 0.27076 0.26096 0.2645 0.0
Dy617 Dy 0.29663 0.3124 0.28678 0.0
C618 C 0.29329 0.27255 0.31685 0.0
O619 O 0.24484 0.2718 0.28482 0.0
O620 O 0.25788 0.31044 0.28646 0.0
O621 O 0.24992 0.22751 0.26777 0.0
O622 O 0.2617 0.23429 0.23487 0.0
O623 O 0.29136 0.31176 0.24818 0.0
O624 O 0.25907 0.28177 0.23949 0.0
O625 O 0.32678 0.2965 0.28112 0.0
O626 O 0.30598 0.26748 0.25289 0.0
O627 O 0.31552 0.34642 0.28282 0.0
O628 O 0.3087 0.33863 0.31682 0.0
C629 C 0.24154 0.29223 0.28916 0.0
O630 O 0.29246 0.25923 0.29733 0.0
O631 O 0.29055 0.29305 0.31657 0.0
C632 C 0.26556 0.20106 0.24798 0.0
C633 C 0.28993 0.16792 0.25055 0.0
C634 C 0.29992 0.19019 0.26212 0.0
C635 C 0.28784 0.20667 0.26075 0.0
C636 C 0.25566 0.17901 0.23598 0.0
C637 C 0.26787 0.16243 0.23722 0.0
C638 C 0.25333 0.21873 0.24741 0.0
C639 C 0.2734 0.29943 0.23349 0.0
C640 C 0.32611 0.27988 0.26414 0.0
C641 C 0.30468 0.37346 0.30738 0.0
C642 C 0.28393 0.40965 0.30858 0.0
C643 C 0.2706 0.38726 0.30015 0.0
C644 C 0.28097 0.36936 0.29938 0.0
C645 C 0.31787 0.39555 0.3169 0.0
C646 C 0.30751 0.41366 0.31749 0.0
C647 C 0.31549 0.35466 0.30436 0.0
H648 H 0.31702 0.19481 0.27227 0.0
H649 H 0.29585 0.22381 0.26979 0.0
H650 H 0.23855 0.17461 0.22592 0.0
H651 H 0.25985 0.14523 0.2283 0.0
H652 H 0.25229 0.38364 0.29351 0.0
H653 H 0.2706 0.35244 0.29184 0.0
H654 H 0.33622 0.39889 0.32312 0.0
H655 H 0.31818 0.43084 0.32391 0.0
Dy656 Dy 0.54637 0.51497 0.02455 0.0
Dy657 Dy 0.52774 0.562 0.0274 0.0
C658 C 0.4944 0.51287 0.0299 0.0
O659 O 0.53153 0.51659 0.98769 0.0
O660 O 0.53683 0.55542 0.99198 0.0
O661 O 0.53961 0.47845 0.01451 0.0
O662 O 0.57291 0.49796 0.03356 0.0
O663 O 0.56679 0.57363 0.03159 0.0
O664 O 0.57453 0.54124 0.01352 0.0
O665 O 0.52912 0.5541 0.06368 0.0
O666 O 0.55581 0.53291 0.06134 0.0
O667 O 0.53018 0.59747 0.03992 0.0
O668 O 0.50176 0.57769 0.0139 0.0
C669 C 0.53299 0.53564 0.97872 0.0
O670 O 0.51253 0.50671 0.03811 0.0
O671 O 0.49655 0.53148 0.02033 0.0
C672 C 0.55679 0.46153 0.04327 0.0
C673 C 0.55323 0.43141 0.07672 0.0
C674 C 0.54026 0.44774 0.07683 0.0
C675 C 0.5421 0.46267 0.06037 0.0
C676 C 0.56968 0.44527 0.04293 0.0
C677 C 0.56792 0.43033 0.05947 0.0
C678 C 0.55904 0.47762 0.02621 0.0
C679 C 0.58069 0.56331 0.02116 0.0
C680 C 0.54411 0.54452 0.0736 0.0
C681 C 0.51512 0.617 0.01194 0.0
C682 C 0.51996 0.65453 0.98723 0.0
C683 C 0.53352 0.63898 0.98352 0.0
C684 C 0.53116 0.62035 0.99585 0.0
C685 C 0.50106 0.632 0.01498 0.0
C686 C 0.50345 0.65055 0.0028 0.0
C687 C 0.51231 0.59784 0.02543 0.0
H688 H 0.52849 0.4489 0.08954 0.0
H689 H 0.53204 0.47515 0.06102 0.0
H690 H 0.58126 0.44425 0.02999 0.0
H691 H 0.5784 0.41823 0.05899 0.0
H692 H 0.54646 0.64167 0.97174 0.0
H693 H 0.54202 0.60877 0.99308 0.0
H694 H 0.48836 0.62951 0.02703 0.0
H695 H 0.49254 0.66204 0.00582 0.0
Dy696 Dy 0.78917 0.32006 0.27452 0.0
Dy697 Dy 0.78416 0.26043 0.28758 0.0
C698 C 0.77708 0.29416 0.31896 0.0
O699 O 0.82576 0.3177 0.28537 0.0
O700 O 0.82192 0.28142 0.29755 0.0
O701 O 0.78695 0.35049 0.29576 0.0
O702 O 0.79556 0.35168 0.26034 0.0
O703 O 0.79828 0.27601 0.25761 0.0
O704 O 0.78394 0.30097 0.23939 0.0
O705 O 0.74793 0.26388 0.27554 0.0
O706 O 0.75081 0.30172 0.26821 0.0
O707 O 0.77884 0.22656 0.26847 0.0
O708 O 0.78826 0.23298 0.30592 0.0
C709 C 0.83433 0.30207 0.29459 0.0
O710 O 0.78496 0.29739 0.29965 0.0
O711 O 0.77516 0.27341 0.32222 0.0
C712 C 0.77221 0.37516 0.27379 0.0
C713 C 0.73999 0.40065 0.26505 0.0
C714 C 0.73408 0.38162 0.27663 0.0
C715 C 0.74998 0.36883 0.28075 0.0
C716 C 0.77797 0.39394 0.26192 0.0
C717 C 0.76196 0.40653 0.25748 0.0
C718 C 0.78955 0.3624 0.27858 0.0
C719 C 0.7857 0.28018 0.23979 0.0
C720 C 0.7387 0.28043 0.26931 0.0
C721 C 0.80372 0.20606 0.28512 0.0
C722 C 0.83903 0.18314 0.28295 0.0
C723 C 0.82942 0.18978 0.26288 0.0
C724 C 0.81191 0.20113 0.26393 0.0
C725 C 0.81313 0.19915 0.3051 0.0
C726 C 0.83065 0.18787 0.30405 0.0
C727 C 0.78566 0.21854 0.28686 0.0
H728 H 0.71713 0.37657 0.28236 0.0
H729 H 0.74485 0.35408 0.28942 0.0
H730 H 0.79494 0.39897 0.25622 0.0
H731 H 0.76697 0.42121 0.24861 0.0
H732 H 0.83526 0.18598 0.24629 0.0
H733 H 0.80489 0.20605 0.24817 0.0
H734 H 0.80706 0.20264 0.32164 0.0
H735 H 0.83783 0.18311 0.31984 0.0
Dy736 Dy 0.03966 0.5564 0.50928 0.0
Dy737 Dy 0.03476 0.52065 0.54721 0.0
C738 C 0.0423 0.50442 0.49488 0.0
O739 O 1.00303 0.54922 0.51636 0.0
O740 O 1.00166 0.51323 0.524 0.0
O741 O 0.02972 0.5667 0.47658 0.0
O742 O 0.05721 0.58953 0.5018 0.0
O743 O 0.02271 0.55096 0.5628 0.0
O744 O 0.04565 0.57702 0.54444 0.0
O745 O 0.07152 0.54075 0.55306 0.0
O746 O 0.07335 0.54799 0.51589 0.0
O747 O 0.04077 0.51347 0.58213 0.0
O748 O 0.0215 0.48644 0.55462 0.0
C749 C 0.99138 0.5287 0.51871 0.0
O750 O 0.03559 0.52196 0.48837 0.0
O751 O 0.04688 0.50259 0.51695 0.0
C752 C 0.06298 0.58678 0.46286 0.0
C753 C 0.08856 0.58141 0.42607 0.0
C754 C 0.09423 0.57404 0.44709 0.0
C755 C 0.08139 0.57653 0.46524 0.0
C756 C 0.05847 0.59589 0.44263 0.0
C757 C 0.0713 0.59329 0.42425 0.0
C758 C 0.04707 0.58515 0.48036 0.0
C759 C 0.03246 0.57238 0.5607 0.0
C760 C 0.08351 0.54685 0.53638 0.0
C761 C 0.00794 0.48796 0.59081 0.0
C762 C 0.9748 0.49042 0.62084 0.0
C763 C 0.9695 0.49133 0.59715 0.0
C764 C 0.98603 0.49026 0.58225 0.0
C765 C 0.01249 0.48498 0.61395 0.0
C766 C 0.99598 0.48616 0.62893 0.0
C767 C 0.0271 0.49279 0.57695 0.0
H768 H 0.10754 0.56495 0.44891 0.0
H769 H 0.08497 0.56927 0.48066 0.0
H770 H 0.04423 0.60377 0.44053 0.0
H771 H 0.06653 0.59893 0.40807 0.0
H772 H 0.9532 0.4944 0.5905 0.0
H773 H 0.98221 0.49276 0.56442 0.0
H774 H 0.02941 0.48341 0.62082 0.0
H775 H 1.00059 0.48564 0.64718 0.0
Dy776 Dy 0.80528 0.77924 0.27513 0.0
Dy777 Dy 0.75896 0.799 0.27909 0.0
C778 C 0.80824 0.83269 0.27662 0.0
O779 O 0.80152 0.7816 0.31316 0.0
O780 O 0.78075 0.80866 0.31371 0.0
O781 O 0.84136 0.77926 0.28311 0.0
O782 O 0.81851 0.7537 0.25625 0.0
O783 O 0.75301 0.76712 0.29482 0.0
O784 O 0.77389 0.74924 0.27216 0.0
O785 O 0.75727 0.78286 0.24204 0.0
O786 O 0.79651 0.79116 0.24187 0.0
O787 O 0.72152 0.79221 0.27195 0.0
O788 O 0.74188 0.82452 0.29158 0.0
C789 C 0.79343 0.79732 0.3245 0.0
O790 O 0.81829 0.81731 0.28341 0.0
O791 O 0.78577 0.82792 0.26936 0.0
C792 C 0.85805 0.76543 0.25097 0.0
C793 C 0.89515 0.77112 0.22408 0.0
C794 C 0.88258 0.78765 0.22648 0.0
C795 C 0.86408 0.78482 0.23983 0.0
C796 C 0.86987 0.74846 0.24757 0.0
C797 C 0.88829 0.7513 0.23435 0.0
C798 C 0.8398 0.76251 0.2664 0.0
C799 C 0.75757 0.74842 0.28566 0.0
C800 C 0.77544 0.78588 0.23075 0.0
C801 C 0.70536 0.80791 0.30306 0.0
C802 C 0.67398 0.79952 0.33627 0.0
C803 C 0.69612 0.79537 0.33975 0.0
C804 C 0.71158 0.79944 0.32331 0.0
C805 C 0.68363 0.81262 0.29971 0.0
C806 C 0.6681 0.8085 0.31613 0.0
C807 C 0.72105 0.81092 0.28501 0.0
H808 H 0.88786 0.80328 0.21912 0.0
H809 H 0.855 0.79803 0.24207 0.0
H810 H 0.86533 0.73329 0.25581 0.0
H811 H 0.89794 0.73849 0.23303 0.0
H812 H 0.70152 0.78887 0.35517 0.0
H813 H 0.7283 0.79571 0.32629 0.0
H814 H 0.67847 0.81909 0.28417 0.0
H815 H 0.6512 0.81168 0.31263 0.0
Dy816 Dy 0.80423 0.30069 0.76545 0.0
Dy817 Dy 0.76375 0.28656 0.79731 0.0
C818 C 0.78861 0.33566 0.79726 0.0
O819 O 0.82102 0.28489 0.79242 0.0
O820 O 0.79805 0.29071 0.82049 0.0
O821 O 0.82697 0.32912 0.75383 0.0
O822 O 0.82913 0.2945 0.74286 0.0
O823 O 0.77379 0.25542 0.78415 0.0
O824 O 0.78364 0.26584 0.74972 0.0
O825 O 0.74288 0.28468 0.76232 0.0
O826 O 0.77241 0.30605 0.74557 0.0
O827 O 0.7349 0.26342 0.80867 0.0
O828 O 0.74829 0.29853 0.82617 0.0
C829 C 0.8171 0.28589 0.81413 0.0
O830 O 0.80626 0.32695 0.79589 0.0
O831 O 0.76792 0.32214 0.7917 0.0
C832 C 0.83176 0.31914 0.71499 0.0
C833 C 0.82615 0.32565 0.66847 0.0
C834 C 0.81073 0.3311 0.68334 0.0
C835 C 0.81356 0.32793 0.70647 0.0
C836 C 0.84658 0.31284 0.6999 0.0
C837 C 0.84387 0.31618 0.67676 0.0
C838 C 0.83473 0.31575 0.73931 0.0
C839 C 0.77673 0.25005 0.76254 0.0
C840 C 0.75012 0.29612 0.7455 0.0
C841 C 0.73813 0.2707 0.84932 0.0
C842 C 0.74704 0.26032 0.89395 0.0
C843 C 0.76146 0.25661 0.87722 0.0
C844 C 0.75702 0.26177 0.85501 0.0
C845 C 0.72402 0.2749 0.86608 0.0
C846 C 0.72839 0.26964 0.8883 0.0
C847 C 0.73504 0.27821 0.82687 0.0
H848 H 0.7972 0.33879 0.67736 0.0
H849 H 0.8018 0.33279 0.71779 0.0
H850 H 0.86044 0.30568 0.70612 0.0
H851 H 0.85593 0.31193 0.66546 0.0
H852 H 0.77572 0.2491 0.88109 0.0
H853 H 0.76836 0.25887 0.8423 0.0
H854 H 0.70978 0.28237 0.86202 0.0
H855 H 0.71712 0.27265 0.90103 0.0
Dy856 Dy 0.77254 0.76201 0.76374 0.0
Dy857 Dy 0.79528 0.81238 0.79178 0.0
C858 C 0.79056 0.77105 0.81841 0.0
O859 O 0.74224 0.77775 0.76597 0.0
O860 O 0.75798 0.80279 0.79921 0.0
O861 O 0.74751 0.72913 0.7603 0.0
O862 O 0.77111 0.73596 0.73483 0.0
O863 O 0.7784 0.81775 0.75802 0.0
O864 O 0.77899 0.78433 0.73624 0.0
O865 O 0.82369 0.80359 0.77327 0.0
O866 O 0.81125 0.76474 0.76931 0.0
O867 O 0.81755 0.84638 0.79361 0.0
O868 O 0.80013 0.83666 0.823 0.0
C869 C 0.73968 0.79109 0.78445 0.0
O870 O 0.77369 0.75969 0.80198 0.0
O871 O 0.80561 0.78934 0.81473 0.0
C872 C 0.76593 0.70132 0.74859 0.0
C873 C 0.78267 0.66547 0.76178 0.0
C874 C 0.79259 0.68773 0.77332 0.0
C875 C 0.78428 0.70555 0.76676 0.0
C876 C 0.75653 0.67921 0.73635 0.0
C877 C 0.765 0.66122 0.74291 0.0
C878 C 0.75677 0.72035 0.74343 0.0
C879 C 0.7784 0.80573 0.73787 0.0
C880 C 0.82772 0.78345 0.76865 0.0
C881 C 0.80197 0.87291 0.81341 0.0
C882 C 0.78393 0.91044 0.8091 0.0
C883 C 0.7698 0.88813 0.80156 0.0
C884 C 0.77881 0.86949 0.80359 0.0
C885 C 0.81602 0.89501 0.82135 0.0
C886 C 0.80706 0.91373 0.8192 0.0
C887 C 0.81174 0.85341 0.8135 0.0
H888 H 0.80638 0.69121 0.7878 0.0
H889 H 0.79175 0.72258 0.77631 0.0
H890 H 0.74245 0.67582 0.72221 0.0
H891 H 0.75728 0.644 0.7339 0.0
H892 H 0.75183 0.88506 0.79399 0.0
H893 H 0.76784 0.85242 0.79714 0.0
H894 H 0.83402 0.89781 0.82867 0.0
H895 H 0.81843 0.93076 0.82482 0.0
Dy896 Dy 0.56149 0.55557 0.546 0.0
Dy897 Dy 0.51378 0.52605 0.5159 0.0
C898 C 0.55824 0.53966 0.49063 0.0
O899 O 0.54294 0.58316 0.53937 0.0
O900 O 0.51978 0.56166 0.50714 0.0
O901 O 0.59337 0.58281 0.55134 0.0
O902 O 0.58553 0.561 0.57744 0.0
O903 O 0.50447 0.54334 0.54846 0.0
O904 O 0.53755 0.54512 0.57177 0.0
O905 O 0.52677 0.49969 0.53326 0.0
O906 O 0.56522 0.51916 0.5386 0.0
O907 O 0.47932 0.50351 0.51423 0.0
O908 O 0.49057 0.5168 0.4835 0.0
C909 C 0.52906 0.58175 0.51992 0.0
O910 O 0.56745 0.55512 0.50896 0.0
O911 O 0.53984 0.52284 0.49142 0.0
C912 C 0.62283 0.56747 0.56703 0.0
C913 C 0.65172 0.53847 0.55919 0.0
C914 C 0.64361 0.54863 0.541 0.0
C915 C 0.62931 0.56301 0.54487 0.0
C916 C 0.63274 0.55904 0.58569 0.0
C917 C 0.64703 0.54448 0.58176 0.0
C918 C 0.60173 0.5752 0.56926 0.0
C919 C 0.51554 0.54456 0.56926 0.0
C920 C 0.54875 0.50007 0.53833 0.0
C921 C 0.45403 0.5192 0.49302 0.0
C922 C 0.42228 0.5431 0.5068 0.0
C923 C 0.44398 0.5551 0.502 0.0
C924 C 0.45977 0.54321 0.49517 0.0
C925 C 0.43151 0.50717 0.49574 0.0
C926 C 0.41566 0.51911 0.50265 0.0
C927 C 0.47285 0.50779 0.4937 0.0
H928 H 0.64677 0.54406 0.52337 0.0
H929 H 0.62178 0.56896 0.53001 0.0
H930 H 0.62782 0.56211 0.60286 0.0
H931 H 0.65335 0.53697 0.59607 0.0
H932 H 0.44943 0.57363 0.50538 0.0
H933 H 0.47704 0.55293 0.49333 0.0
H934 H 0.42683 0.48871 0.49436 0.0
H935 H 0.39882 0.50969 0.50626 0.0
Dy936 Dy 0.01147 0.53692 0.04559 0.0
Dy937 Dy 0.0685 0.54603 0.02302 0.0
C938 C 0.02417 0.54414 0.99572 0.0
O939 O 0.01421 0.50164 0.02904 0.0
O940 O 0.05142 0.50817 0.01659 0.0
O941 O 0.97581 0.52956 0.02955 0.0
O942 O 0.98502 0.54165 0.06664 0.0
O943 O 0.04884 0.5372 0.05029 0.0
O944 O 0.0302 0.53008 0.07835 0.0
O945 O 0.06507 0.58178 0.03421 0.0
O946 O 0.03283 0.57442 0.0553 0.0
O947 O 0.10165 0.5496 0.04298 0.0
O948 O 0.0983 0.54615 0.00504 0.0
C949 C 0.03099 0.49455 0.01931 0.0
O950 O 0.02337 0.55459 0.01628 0.0
O951 O 0.04436 0.54166 0.99083 0.0
C952 C 0.95631 0.55565 0.04669 0.0
C953 C 0.93243 0.58986 0.04349 0.0
C954 C 0.93472 0.57593 0.02339 0.0
C955 C 0.94653 0.559 0.02496 0.0
C956 C 0.95387 0.56953 0.06677 0.0
C957 C 0.94216 0.5865 0.06518 0.0
C958 C 0.96912 0.53794 0.04857 0.0
C959 C 0.05021 0.53272 0.07111 0.0
C960 C 0.05091 0.58848 0.04814 0.0
C961 C 0.12376 0.5275 0.02421 0.0
C962 C 0.14442 0.49091 0.0254 0.0
C963 C 0.14415 0.5052 0.04593 0.0
C964 C 0.13429 0.52355 0.04528 0.0
C965 C 0.12459 0.51348 0.00353 0.0
C966 C 0.13504 0.49543 0.00412 0.0
C967 C 0.11136 0.54568 0.0243 0.0
H968 H 0.92748 0.57819 0.00641 0.0
H969 H 0.94797 0.54856 0.00914 0.0
H970 H 0.96098 0.56727 0.08379 0.0
H971 H 0.94031 0.5967 0.081 0.0
H972 H 0.15164 0.50219 0.0625 0.0
H973 H 0.13457 0.53445 0.06138 0.0
H974 H 0.11691 0.51622 0.98694 0.0
H975 H 0.13525 0.48464 0.98808 0.0
H976 H 1.00025 0.18474 0.95902 0.0
H977 H 0.01963 0.23057 0.02457 0.0
H978 H 0.02852 0.19936 0.04389 0.0
H979 H 0.97286 0.1334 0.98233 0.0
H980 H 0.98362 0.11454 0.96281 0.0
H981 H 0.97861 0.14035 0.95405 0.0
H982 H 0.0212 0.1529 0.94565 0.0
H983 H 0.02632 0.12714 0.95445 0.0
H984 H 0.04462 0.15463 0.96822 0.0
H985 H 0.03692 0.16278 0.05622 0.0
H986 H 0.04182 0.1244 0.0605 0.0
H987 H 0.01573 0.10122 0.98755 0.0
C988 C 0.00616 0.18822 0.9775 0.0
C989 C 0.00902 0.21046 0.99016 0.0
C990 C 0.01707 0.21394 0.01431 0.0
C991 C 0.02227 0.19621 0.02549 0.0
C992 C 0.01939 0.17466 0.01252 0.0
C993 C 0.01136 0.17056 0.98903 0.0
C994 C 0.00989 0.14582 0.97909 0.0
C995 C 0.98475 0.13276 0.96897 0.0
C996 C 0.02649 0.14508 0.96076 0.0
C997 C 0.01799 0.13657 0.00063 0.0
C998 C 0.02368 0.1536 0.0197 0.0
C999 C 0.0323 0.14937 0.04136 0.0
C1000 C 0.03508 0.12738 0.04364 0.0
C1001 C 0.02901 0.10938 0.02453 0.0
C1002 C 0.0203 0.1143 0.00271 0.0
H1003 H 0.12552 0.80201 0.17435 0.0
H1004 H 0.16556 0.83028 0.12193 0.0
H1005 H 0.20144 0.82689 0.14444 0.0
H1006 H 0.16515 0.82619 0.22453 0.0
H1007 H 0.16001 0.8009 0.23833 0.0
H1008 H 0.13739 0.80508 0.21805 0.0
H1009 H 0.13432 0.76606 0.19356 0.0
H1010 H 0.15684 0.76161 0.21387 0.0
H1011 H 0.16001 0.7602 0.18349 0.0
H1012 H 0.23302 0.82104 0.17279 0.0
H1013 H 0.25835 0.81326 0.20467 0.0
H1014 H 0.1983 0.78771 0.23911 0.0
C1015 C 0.14174 0.80729 0.16738 0.0
C1016 C 0.14256 0.81645 0.14616 0.0
C1017 C 0.16435 0.82323 0.138 0.0
C1018 C 0.18485 0.82131 0.15069 0.0
C1019 C 0.18334 0.81211 0.17138 0.0
C1020 C 0.16231 0.80492 0.17955 0.0
C1021 C 0.1655 0.79498 0.20196 0.0
C1022 C 0.15648 0.80756 0.2219 0.0
C1023 C 0.15345 0.76919 0.19799 0.0
C1024 C 0.19187 0.79931 0.20606 0.0
C1025 C 0.20164 0.80866 0.18782 0.0
C1026 C 0.22552 0.81373 0.18713 0.0
C1027 C 0.23983 0.80922 0.20545 0.0
C1028 C 0.23056 0.80005 0.2247 0.0
C1029 C 0.20609 0.79501 0.2249 0.0
H1030 H 0.52725 0.87166 0.45922 0.0
H1031 H 0.49576 0.83723 0.51327 0.0
H1032 H 0.49692 0.87516 0.53533 0.0
H1033 H 0.56589 0.92041 0.49536 0.0
H1034 H 0.56187 0.93955 0.47515 0.0
H1035 H 0.55885 0.90988 0.46469 0.0
H1036 H 0.5174 0.90618 0.44413 0.0
H1037 H 0.52025 0.93583 0.45458 0.0
H1038 H 0.49611 0.91408 0.46078 0.0
H1039 H 0.50031 0.91893 0.5503 0.0
H1040 H 0.50737 0.96122 0.55689 0.0
H1041 H 0.53724 0.96488 0.49259 0.0
C1042 C 0.52064 0.87179 0.47577 0.0
C1043 C 0.51137 0.85111 0.48437 0.0
C1044 C 0.50302 0.85263 0.5062 0.0
C1045 C 0.50355 0.87419 0.51881 0.0
C1046 C 0.51253 0.89416 0.50944 0.0
C1047 C 0.52103 0.89291 0.48839 0.0
C1048 C 0.52949 0.91635 0.48142 0.0
C1049 C 0.55557 0.92186 0.47902 0.0
C1050 C 0.51495 0.91821 0.4589 0.0
C1051 C 0.52491 0.93136 0.50195 0.0
C1052 C 0.51484 0.91844 0.51793 0.0
C1053 C 0.50835 0.929 0.53786 0.0
C1054 C 0.51237 0.95309 0.54146 0.0
C1055 C 0.5231 0.96658 0.52541 0.0
C1056 C 0.52936 0.9553 0.50546 0.0
H1057 H 0.49752 0.26024 0.65344 0.0
H1058 H 0.51749 0.33307 0.65114 0.0
H1059 H 0.48299 0.33715 0.66963 0.0
H1060 H 0.43272 0.25454 0.64166 0.0
H1061 H 0.42619 0.23266 0.65988 0.0
H1062 H 0.4509 0.23526 0.64414 0.0
H1063 H 0.47765 0.23865 0.68267 0.0
H1064 H 0.45317 0.23642 0.69856 0.0
H1065 H 0.47826 0.2607 0.70637 0.0
H1066 H 0.4497 0.33391 0.69329 0.0
H1067 H 0.41797 0.32342 0.71695 0.0
H1068 H 0.41773 0.25205 0.70153 0.0
C1069 C 0.49424 0.27693 0.65631 0.0
C1070 C 0.51006 0.29638 0.65085 0.0
C1071 C 0.50538 0.31797 0.65492 0.0
C1072 C 0.4859 0.32043 0.66551 0.0
C1073 C 0.47093 0.30101 0.67127 0.0
C1074 C 0.47451 0.27956 0.66624 0.0
C1075 C 0.45603 0.26154 0.67458 0.0
C1076 C 0.44054 0.24502 0.65383 0.0
C1077 C 0.46695 0.24858 0.69156 0.0
C1078 C 0.44257 0.2764 0.68666 0.0
C1079 C 0.45122 0.29906 0.68421 0.0
C1080 C 0.44243 0.31616 0.69484 0.0
C1081 C 0.42429 0.30998 0.70822 0.0
C1082 C 0.41504 0.28685 0.71102 0.0
C1083 C 0.42435 0.26989 0.69987 0.0
H1084 H 0.04683 0.81219 0.62659 0.0
H1085 H 0.0259 0.84262 0.68909 0.0
H1086 H 0.02959 0.87863 0.67308 0.0
H1087 H 0.08965 0.86498 0.6187 0.0
H1088 H 0.08346 0.85917 0.58749 0.0
H1089 H 0.08008 0.83586 0.6041 0.0
H1090 H 0.03732 0.8196 0.58465 0.0
H1091 H 0.0406 0.84284 0.56801 0.0
H1092 H 0.01766 0.83763 0.58603 0.0
H1093 H 0.03387 0.91084 0.64989 0.0
H1094 H 0.03912 0.93743 0.62124 0.0
H1095 H 0.05746 0.88667 0.57345 0.0
C1096 C 0.04312 0.82647 0.63692 0.0
C1097 C 0.03599 0.8245 0.65911 0.0
C1098 C 0.03144 0.84366 0.67211 0.0
C1099 C 0.03348 0.86423 0.66316 0.0
C1100 C 0.04041 0.86559 0.64125 0.0
C1101 C 0.04537 0.84734 0.62834 0.0
C1102 C 0.05246 0.85348 0.60523 0.0
C1103 C 0.07793 0.85336 0.6038 0.0
C1104 C 0.03602 0.83743 0.58478 0.0
C1105 C 0.04972 0.87763 0.60681 0.0
C1106 C 0.04303 0.88434 0.62786 0.0
C1107 C 0.03912 0.90577 0.63333 0.0
C1108 C 0.04196 0.92071 0.61681 0.0
C1109 C 0.04852 0.91421 0.59489 0.0
C1110 C 0.05265 0.89236 0.59005 0.0
H1111 H 0.47088 0.84585 0.8318 0.0
H1112 H 0.47591 0.77607 0.8181 0.0
H1113 H 0.43346 0.76283 0.80525 0.0
H1114 H 0.41468 0.82979 0.85499 0.0
H1115 H 0.40408 0.85197 0.84365 0.0
H1116 H 0.43489 0.85613 0.85156 0.0
H1117 H 0.44206 0.8646 0.81029 0.0
H1118 H 0.4113 0.86039 0.80221 0.0
H1119 H 0.42687 0.84398 0.78543 0.0
H1120 H 0.39137 0.75723 0.79239 0.0
H1121 H 0.35119 0.75842 0.78265 0.0
H1122 H 0.37103 0.83173 0.80656 0.0
C1123 C 0.46295 0.82778 0.82611 0.0
C1124 C 0.47672 0.81193 0.82576 0.0
C1125 C 0.46572 0.78843 0.81856 0.0
C1126 C 0.44163 0.7808 0.81117 0.0
C1127 C 0.42856 0.79679 0.81164 0.0
C1128 C 0.43867 0.81974 0.81931 0.0
C1129 C 0.42022 0.83304 0.81895 0.0
C1130 C 0.41836 0.84335 0.84376 0.0
C1131 C 0.42543 0.8516 0.80327 0.0
C1132 C 0.39833 0.81412 0.80881 0.0
C1133 C 0.40375 0.79339 0.80494 0.0
C1134 C 0.38691 0.77334 0.79553 0.0
C1135 C 0.36394 0.77429 0.79002 0.0
C1136 C 0.35749 0.79519 0.79379 0.0
C1137 C 0.37514 0.81545 0.80342 0.0
H1138 H 0.54563 0.17631 0.16573 0.0
H1139 H 0.48923 0.19582 0.12841 0.0
H1140 H 0.48455 0.16296 0.09743 0.0
H1141 H 0.56987 0.15968 0.11301 0.0
H1142 H 0.57912 0.13677 0.12434 0.0
H1143 H 0.5777 0.16145 0.14383 0.0
H1144 H 0.55061 0.13516 0.16684 0.0
H1145 H 0.55176 0.11039 0.14736 0.0
H1146 H 0.52404 0.11554 0.15186 0.0
H1147 H 0.4849 0.1275 0.07132 0.0
H1148 H 0.49243 0.09401 0.04921 0.0
H1149 H 0.5505 0.09741 0.10143 0.0
C1150 C 0.53228 0.17362 0.15101 0.0
C1151 C 0.51759 0.18859 0.14961 0.0
C1152 C 0.50066 0.1847 0.12988 0.0
C1153 C 0.49783 0.16599 0.11225 0.0
C1154 C 0.51242 0.1515 0.11424 0.0
C1155 C 0.52963 0.15532 0.13287 0.0
C1156 C 0.54375 0.13777 0.12998 0.0
C1157 C 0.56912 0.14962 0.12766 0.0
C1158 C 0.54245 0.12389 0.15022 0.0
C1159 C 0.53121 0.12292 0.10723 0.0
C1160 C 0.51322 0.13134 0.09857 0.0
C1161 C 0.49905 0.12092 0.07787 0.0
C1162 C 0.50355 0.10178 0.06538 0.0
C1163 C 0.52216 0.09286 0.07334 0.0
C1164 C 0.53603 0.10354 0.09485 0.0
H1165 H 0.1361 0.34486 0.32927 0.0
H1166 H 0.10395 0.27701 0.34363 0.0
H1167 H 0.13693 0.2636 0.33063 0.0
H1168 H 0.15927 0.32475 0.27661 0.0
H1169 H 0.18576 0.34758 0.28201 0.0
H1170 H 0.15958 0.35218 0.29214 0.0
H1171 H 0.1814 0.36484 0.33394 0.0
H1172 H 0.20757 0.36017 0.32391 0.0
H1173 H 0.19586 0.34598 0.34706 0.0
H1174 H 0.1731 0.25741 0.3172 0.0
H1175 H 0.21013 0.25774 0.30299 0.0
H1176 H 0.22108 0.32948 0.29574 0.0
C1177 C 0.13605 0.32717 0.32953 0.0
C1178 C 0.11734 0.31188 0.33748 0.0
C1179 C 0.11793 0.28892 0.33756 0.0
C1180 C 0.13665 0.28119 0.33022 0.0
C1181 C 0.1548 0.29654 0.32257 0.0
C1182 C 0.1547 0.31902 0.32194 0.0
C1183 C 0.17654 0.33163 0.31251 0.0
C1184 C 0.16989 0.33951 0.28945 0.0
C1185 C 0.19121 0.35186 0.33043 0.0
C1186 C 0.18917 0.31289 0.30863 0.0
C1187 C 0.17601 0.29283 0.31446 0.0
C1188 C 0.18347 0.27299 0.31248 0.0
C1189 C 0.20476 0.27344 0.30427 0.0
C1190 C 0.21894 0.2936 0.29797 0.0
C1191 C 0.2109 0.31374 0.30033 0.0
H1192 H 0.95923 0.05549 0.1873 0.0
H1193 H 0.98956 0.00228 0.20784 0.0
H1194 H 1.00402 0.9981 0.16992 0.0
H1195 H 0.94192 0.03408 0.1267 0.0
H1196 H 0.95133 0.06136 0.11691 0.0
H1197 H 0.94256 0.06003 0.14539 0.0
H1198 H 0.98228 0.08758 0.16395 0.0
H1199 H 0.9911 0.08918 0.13552 0.0
H1200 H 0.00876 0.08061 0.15767 0.0
H1201 H 0.01552 0.99969 0.13098 0.0
H1202 H 0.02639 0.00867 0.09326 0.0
H1203 H 0.98953 0.06138 0.0961 0.0
C1204 C 0.96875 0.04286 0.1836 0.0
C1205 C 0.97302 0.02888 0.20025 0.0
C1206 C 0.98607 0.013 0.19523 0.0
C1207 C 0.99427 0.01049 0.17374 0.0
C1208 C 0.98972 0.02435 0.15763 0.0
C1209 C 0.97768 0.04055 0.16234 0.0
C1210 C 0.97685 0.05429 0.14237 0.0
C1211 C 0.95165 0.05231 0.13224 0.0
C1212 C 0.99055 0.07941 0.15035 0.0
C1213 C 0.98917 0.04242 0.12522 0.0
C1214 C 0.9966 0.02539 0.13472 0.0
C1215 C 0.00947 0.01271 0.1232 0.0
C1216 C 0.01528 0.01772 0.10158 0.0
C1217 C 0.00794 0.03495 0.0912 0.0
C1218 C 0.99455 0.04747 0.10315 0.0
H1219 H 0.2814 0.72974 0.51518 0.0
H1220 H 0.32687 0.69252 0.48505 0.0
H1221 H 0.32568 0.71212 0.45068 0.0
H1222 H 0.24431 0.72183 0.4665 0.0
H1223 H 0.23764 0.74911 0.4703 0.0
H1224 H 0.24703 0.73759 0.4952 0.0
H1225 H 0.28092 0.77417 0.50818 0.0
H1226 H 0.27147 0.7861 0.48344 0.0
H1227 H 0.30097 0.78389 0.48823 0.0
H1228 H 0.31389 0.72928 0.41734 0.0
H1229 H 0.29214 0.74329 0.38674 0.0
H1230 H 0.25272 0.76811 0.43738 0.0
C1231 C 0.29203 0.72665 0.50184 0.0
C1232 C 0.30466 0.7101 0.50281 0.0
C1233 C 0.31744 0.70549 0.48464 0.0
C1234 C 0.3169 0.71656 0.46514 0.0
C1235 C 0.30337 0.73202 0.46413 0.0
C1236 C 0.29123 0.73718 0.48204 0.0
C1237 C 0.27499 0.75136 0.47508 0.0
C1238 C 0.2495 0.73923 0.47687 0.0
C1239 C 0.28255 0.77531 0.48959 0.0
C1240 C 0.27902 0.75234 0.4501 0.0
C1241 C 0.29588 0.74154 0.44434 0.0
C1242 C 0.30109 0.73827 0.42174 0.0
C1243 C 0.28863 0.7461 0.40452 0.0
C1244 C 0.27111 0.7568 0.41006 0.0
C1245 C 0.26642 0.76029 0.43307 0.0
H1246 H 0.63812 0.06173 0.68491 0.0
H1247 H 0.65209 0.99765 0.65964 0.0
H1248 H 0.63132 0.9979 0.62089 0.0
H1249 H 0.5832 0.04906 0.66252 0.0
H1250 H 0.58237 0.07644 0.65447 0.0
H1251 H 0.60367 0.0749 0.67759 0.0
H1252 H 0.63695 0.09603 0.65679 0.0
H1253 H 0.61567 0.09812 0.63368 0.0
H1254 H 0.6388 0.08534 0.62716 0.0
H1255 H 0.6027 1.00079 0.58899 0.0
H1256 H 0.56954 0.00719 0.56452 0.0
H1257 H 0.57273 0.06841 0.61187 0.0
C1258 C 0.63719 0.04806 0.67107 0.0
C1259 C 0.64613 0.02948 0.67498 0.0
C1260 C 0.64506 0.0119 0.65665 0.0
C1261 C 0.63353 0.01205 0.63469 0.0
C1262 C 0.62372 0.03011 0.63165 0.0
C1263 C 0.62581 0.04804 0.64925 0.0
C1264 C 0.61112 0.06371 0.64273 0.0
C1265 C 0.59408 0.06613 0.66037 0.0
C1266 C 0.62656 0.08719 0.63992 0.0
C1267 C 0.59867 0.05052 0.61962 0.0
C1268 C 0.60683 0.03169 0.61314 0.0
C1269 C 0.59662 0.01581 0.59347 0.0
C1270 C 0.57777 0.01941 0.57985 0.0
C1271 C 0.569 0.03821 0.58665 0.0
C1272 C 0.57952 0.05402 0.60654 0.0
H1273 H 0.28927 0.32805 0.96463 0.0
H1274 H 0.29368 0.39685 0.94946 0.0
H1275 H 0.29699 0.38454 0.90904 0.0
H1276 H 0.33004 0.31566 0.9252 0.0
H1277 H 0.31386 0.2863 0.91571 0.0
H1278 H 0.31261 0.30012 0.94439 0.0
H1279 H 0.26766 0.29019 0.9358 0.0
H1280 H 0.26878 0.27622 0.90718 0.0
H1281 H 0.25437 0.29878 0.9106 0.0
H1282 H 0.29877 0.36606 0.87056 0.0
H1283 H 0.29698 0.34066 0.83415 0.0
H1284 H 0.29138 0.28293 0.87133 0.0
C1285 C 0.291 0.34048 0.95279 0.0
C1286 C 0.29124 0.3635 0.96049 0.0
C1287 C 0.29343 0.37915 0.94429 0.0
C1288 C 0.29542 0.37238 0.92115 0.0
C1289 C 0.29521 0.34981 0.91415 0.0
C1290 C 0.29291 0.33394 0.92925 0.0
C1291 C 0.29247 0.31056 0.91642 0.0
C1292 C 0.3135 0.30269 0.92601 0.0
C1293 C 0.26944 0.29289 0.91757 0.0
C1294 C 0.29441 0.31589 0.89182 0.0
C1295 C 0.29629 0.3388 0.89124 0.0
C1296 C 0.29771 0.34816 0.87079 0.0
C1297 C 0.29699 0.33371 0.85022 0.0
C1298 C 0.29496 0.31022 0.8501 0.0
C1299 C 0.29356 0.30104 0.87115 0.0
H1300 H 0.96616 0.01028 0.34935 0.0
H1301 H 0.03173 0.04643 0.32986 0.0
H1302 H 0.04977 0.05329 0.37096 0.0
H1303 H 0.97057 0.04487 0.40557 0.0
H1304 H 0.95796 0.02082 0.41946 0.0
H1305 H 0.94997 0.02002 0.38883 0.0
H1306 H 0.96212 0.98239 0.38031 0.0
H1307 H 0.97033 0.98318 0.4109 0.0
H1308 H 0.99114 0.98154 0.39094 0.0
H1309 H 0.06029 0.05698 0.41405 0.0
H1310 H 0.06335 0.05558 0.45629 0.0
H1311 H 0.99202 0.01411 0.44773 0.0
C1312 C 0.98425 0.01982 0.3539 0.0
C1313 C 0.99763 0.02812 0.33669 0.0
C1314 C 0.0213 0.04013 0.34296 0.0
C1315 C 0.03163 0.04407 0.3662 0.0
C1316 C 0.01809 0.0355 0.38282 0.0
C1317 C 0.99496 0.02348 0.37698 0.0
C1318 C 0.98462 0.0153 0.39808 0.0
C1319 C 0.96459 0.02589 0.40329 0.0
C1320 C 0.97659 0.98904 0.39486 0.0
C1321 C 0.00554 0.02463 0.41669 0.0
C1322 C 0.02457 0.03646 0.40751 0.0
C1323 C 0.04561 0.04754 0.42138 0.0
C1324 C 0.04722 0.04663 0.44528 0.0
C1325 C 0.02809 0.03439 0.45498 0.0
C1326 C 0.00703 0.02312 0.44052 0.0
H1327 H 0.26855 0.70283 0.61566 0.0
H1328 H 0.30676 0.66092 0.6485 0.0
H1329 H 0.31976 0.69116 0.68318 0.0
H1330 H 0.30865 0.75595 0.63426 0.0
H1331 H 0.28714 0.77137 0.6393 0.0
H1332 H 0.28005 0.74619 0.61768 0.0
H1333 H 0.24483 0.7269 0.63757 0.0
H1334 H 0.25099 0.75257 0.65832 0.0
H1335 H 0.24921 0.72545 0.66819 0.0
H1336 H 0.32991 0.72701 0.71268 0.0
H1337 H 0.32847 0.76119 0.739 0.0
H1338 H 0.28306 0.77838 0.68592 0.0
C1339 C 0.27937 0.69996 0.63038 0.0
C1340 C 0.28689 0.68 0.62984 0.0
C1341 C 0.30089 0.67634 0.64907 0.0
C1342 C 0.30854 0.69344 0.66851 0.0
C1343 C 0.30183 0.71366 0.66796 0.0
C1344 C 0.28696 0.71661 0.64969 0.0
C1345 C 0.28129 0.73925 0.65356 0.0
C1346 C 0.2898 0.75406 0.63509 0.0
C1347 C 0.25504 0.73583 0.65448 0.0
C1348 C 0.2954 0.74883 0.6769 0.0
C1349 C 0.3075 0.73405 0.6848 0.0
C1350 C 0.32067 0.73878 0.70661 0.0
C1351 C 0.32002 0.75835 0.7213 0.0
C1352 C 0.30589 0.77227 0.71404 0.0
C1353 C 0.29453 0.76824 0.69132 0.0
H1354 H 0.61939 0.03676 0.81422 0.0
H1355 H 0.64504 0.10557 0.79917 0.0
H1356 H 0.64197 0.12133 0.83936 0.0
H1357 H 0.57635 0.04921 0.84586 0.0
H1358 H 0.57875 0.02993 0.86639 0.0
H1359 H 0.5864 0.02427 0.83776 0.0
H1360 H 0.62728 0.02295 0.85584 0.0
H1361 H 0.61978 0.02895 0.88458 0.0
H1362 H 0.64526 0.04706 0.87596 0.0
H1363 H 0.63215 0.12961 0.87915 0.0
H1364 H 0.61332 0.12983 0.91494 0.0
H1365 H 0.5936 0.05573 0.90399 0.0
C1366 C 0.62455 0.0551 0.81962 0.0
C1367 C 0.63231 0.0701 0.80394 0.0
C1368 C 0.6388 0.09398 0.81116 0.0
C1369 C 0.63739 0.10302 0.83393 0.0
C1370 C 0.62937 0.08786 0.84908 0.0
C1371 C 0.62286 0.06441 0.8422 0.0
C1372 C 0.6122 0.05202 0.86092 0.0
C1373 C 0.58693 0.03805 0.85222 0.0
C1374 C 0.62703 0.03685 0.86985 0.0
C1375 C 0.61321 0.07216 0.87913 0.0
C1376 C 0.62354 0.09268 0.87215 0.0
C1377 C 0.62438 0.11368 0.88505 0.0
C1378 C 0.61365 0.11368 0.90525 0.0
C1379 C 0.60236 0.09282 0.9122 0.0
C1380 C 0.60276 0.07189 0.89935 0.0
H1381 H 0.30332 0.36721 0.12677 0.0
H1382 H 0.26342 0.30567 0.08094 0.0
H1383 H 0.25435 0.28658 0.11503 0.0
H1384 H 0.32804 0.33863 0.16963 0.0
H1385 H 0.32637 0.35914 0.19384 0.0
H1386 H 0.32982 0.36782 0.16581 0.0
H1387 H 0.29302 0.3827 0.16691 0.0
H1388 H 0.28932 0.37379 0.19482 0.0
H1389 H 0.26595 0.36358 0.17107 0.0
H1390 H 0.24802 0.2748 0.15426 0.0
H1391 H 0.24845 0.26967 0.19546 0.0
H1392 H 0.29372 0.33835 0.2159 0.0
C1393 C 0.29287 0.34964 0.12387 0.0
C1394 C 0.28412 0.33793 0.1011 0.0
C1395 C 0.27043 0.31497 0.09815 0.0
C1396 C 0.26507 0.30402 0.11743 0.0
C1397 C 0.27363 0.31618 0.13962 0.0
C1398 C 0.2875 0.33838 0.14294 0.0
C1399 C 0.29471 0.34752 0.16862 0.0
C1400 C 0.32132 0.35363 0.17484 0.0
C1401 C 0.28518 0.36812 0.17576 0.0
C1402 C 0.28285 0.32696 0.17922 0.0
C1403 C 0.2705 0.30918 0.16219 0.0
C1404 C 0.25773 0.28857 0.16772 0.0
C1405 C 0.25795 0.28589 0.19122 0.0
C1406 C 0.27111 0.3036 0.20898 0.0
C1407 C 0.28353 0.32446 0.20277 0.0
H1408 H 0.22582 0.97149 0.98551 0.0
H1409 H 0.19696 0.91014 0.01442 0.0
H1410 H 0.17486 0.9311 0.03829 0.0
H1411 H 0.23682 0.0087 0.0358 0.0
H1412 H 0.22914 0.03201 0.02373 0.0
H1413 H 0.23939 0.01154 0.00582 0.0
H1414 H 0.20204 0.00196 0.97593 0.0
H1415 H 0.19216 0.02329 0.99305 0.0
H1416 H 0.17393 0.99441 0.98581 0.0
H1417 H 0.15954 0.96028 0.06196 0.0
H1418 H 0.14662 0.99375 0.07823 0.0
H1419 H 0.18859 0.03557 0.03529 0.0
C1420 C 0.21409 0.96226 0.99617 0.0
C1421 C 0.21284 0.93934 -0.00184 0.0
C1422 C 0.1977 0.92768 0.01245 0.0
C1423 C 0.18542 0.93952 0.0263 0.0
C1424 C 0.18853 0.96272 0.02529 0.0
C1425 C 0.20202 0.97377 0.01012 0.0
C1426 C 0.20348 0.99889 0.0129 0.0
C1427 C 0.22871 0.01363 0.01999 0.0
C1428 C 0.19222 0.005 0.99061 0.0
C1429 C 0.18917 1.00046 0.03243 0.0
C1430 C 0.18059 0.97949 0.03939 0.0
C1431 C 0.16617 0.9768 0.05669 0.0
C1432 C 0.15925 0.99588 0.0661 0.0
C1433 C 0.16698 0.01705 0.05808 0.0
C1434 C 0.18285 0.01955 0.04187 0.0
H1435 H 0.69342 0.66971 0.03338 0.0
H1436 H 0.70982 0.63652 0.96988 0.0
H1437 H 0.67369 0.60546 0.96712 0.0
H1438 H 0.67226 0.61762 0.05582 0.0
H1439 H 0.64987 0.62678 0.06966 0.0
H1440 H 0.67593 0.64755 0.0658 0.0
H1441 H 0.65121 0.66956 0.04386 0.0
H1442 H 0.62505 0.64902 0.04788 0.0
H1443 H 0.63029 0.65464 0.01909 0.0
H1444 H 0.63762 0.57719 0.97227 0.0
H1445 H 0.60212 0.55363 0.98402 0.0
H1446 H 0.60864 0.60446 0.04465 0.0
C1447 C 0.689 0.65618 0.01861 0.0
C1448 C 0.70401 0.65559 0.00153 0.0
C1449 C 0.69828 0.63727 0.98292 0.0
C1450 C 0.67789 0.61958 0.98127 0.0
C1451 C 0.66366 0.62033 -0.0014 0.0
C1452 C 0.66887 0.6381 0.01694 0.0
C1453 C 0.65129 0.63388 0.03397 0.0
C1454 C 0.66304 0.6313 0.05771 0.0
C1455 C 0.63871 0.65291 0.03632 0.0
C1456 C 0.63503 0.61132 0.02193 0.0
C1457 C 0.64275 0.60373 0.00173 0.0
C1458 C 0.6313 0.58297 0.98797 0.0
C1459 C 0.61124 0.56965 0.99488 0.0
C1460 C 0.60267 0.57722 0.01523 0.0
C1461 C 0.61474 0.59835 0.02892 0.0
H1462 H 0.65995 0.4812 0.30408 0.0
H1463 H 0.6582 0.49902 0.23465 0.0
H1464 H 0.67939 0.47043 0.22313 0.0
H1465 H 0.7182 0.47649 0.30749 0.0
H1466 H 0.71356 0.45333 0.32432 0.0
H1467 H 0.69603 0.47331 0.32646 0.0
H1468 H 0.6586 0.43983 0.31544 0.0
H1469 H 0.67605 0.41974 0.31324 0.0
H1470 H 0.65521 0.42015 0.28898 0.0
H1471 H 0.70244 0.44188 0.21969 0.0
H1472 H 0.7276 0.41592 0.22503 0.0
H1473 H 0.71597 0.41761 0.29711 0.0
C1474 C 0.66369 0.47866 0.28638 0.0
C1475 C 0.65728 0.49189 0.27006 0.0
C1476 C 0.66295 0.4888 0.24724 0.0
C1477 C 0.67487 0.47261 0.24055 0.0
C1478 C 0.68127 0.45996 0.25705 0.0
C1479 C 0.67609 0.46289 0.27955 0.0
C1480 C 0.68686 0.44856 0.29437 0.0
C1481 C 0.70472 0.46384 0.31433 0.0
C1482 C 0.66805 0.43102 0.30354 0.0
C1483 C 0.69868 0.43703 0.27664 0.0
C1484 C 0.69516 0.4438 0.25521 0.0
C1485 C 0.70523 0.43632 0.23634 0.0
C1486 C 0.71954 0.4217 0.23954 0.0
C1487 C 0.7236 0.41477 0.26142 0.0
C1488 C 0.7128 0.42235 0.28009 0.0
H1489 H 0.86154 0.4611 0.47512 0.0
H1490 H 0.84778 0.47532 0.54584 0.0
H1491 H 0.88978 0.49359 0.55845 0.0
H1492 H 0.92223 0.45182 0.49251 0.0
H1493 H 0.93245 0.46406 0.46774 0.0
H1494 H 0.90257 0.44782 0.46605 0.0
H1495 H 0.89 0.48246 0.45309 0.0
H1496 H 0.91966 0.4994 0.45627 0.0
H1497 H 0.89891 0.50963 0.47192 0.0
H1498 H 0.9306 0.51683 0.56136 0.0
H1499 H 0.97083 0.53666 0.55629 0.0
H1500 H 0.95793 0.50617 0.48389 0.0
C1501 C 0.86766 0.46757 0.49332 0.0
C1502 C 0.85197 0.46757 0.50958 0.0
C1503 C 0.85997 0.4757 0.53331 0.0
C1504 C 0.88363 0.48592 0.54056 0.0
C1505 C 0.89867 0.4871 0.52382 0.0
C1506 C 0.89121 0.4773 0.50086 0.0
C1507 C 0.91064 0.48217 0.4861 0.0
C1508 C 0.91737 0.46016 0.47761 0.0
C1509 C 0.90442 0.49414 0.46565 0.0
C1510 C 0.9295 0.49798 0.50385 0.0
C1511 C 0.92238 0.50034 0.52557 0.0
C1512 C 0.93652 0.51486 0.54454 0.0
C1513 C 0.95901 0.52641 0.54142 0.0
C1514 C 0.96672 0.52326 0.51956 0.0
C1515 C 0.95186 0.50921 0.50052 0.0
H1516 H 0.35232 0.09169 0.32109 0.0
H1517 H 0.34673 0.04806 0.25545 0.0
H1518 H 0.32947 0.07417 0.23507 0.0
H1519 H 0.2963 0.10427 0.30737 0.0
H1520 H 0.30637 0.13307 0.32275 0.0
H1521 H 0.3187 0.11108 0.33203 0.0
H1522 H 0.35986 0.13583 0.32852 0.0
H1523 H 0.34759 0.15769 0.31881 0.0
H1524 H 0.36581 0.14544 0.30128 0.0
H1525 H 0.31454 0.105 0.22174 0.0
H1526 H 0.29695 0.13687 0.2165 0.0
H1527 H 0.30986 0.1592 0.291 0.0
C1528 C 0.34692 0.08752 0.30252 0.0
C1529 C 0.35026 0.06788 0.28971 0.0
C1530 C 0.34353 0.06283 0.26544 0.0
C1531 C 0.3341 0.07766 0.25373 0.0
C1532 C 0.33122 0.09709 0.26674 0.0
C1533 C 0.33685 0.10181 0.29063 0.0
C1534 C 0.33064 0.12319 0.30047 0.0
C1535 C 0.31188 0.11756 0.3166 0.0
C1536 C 0.35228 0.14162 0.31299 0.0
C1537 C 0.32107 0.12985 0.27826 0.0
C1538 C 0.32181 0.11468 0.25903 0.0
C1539 C 0.31361 0.11696 0.23661 0.0
C1540 C 0.30364 0.13495 0.23381 0.0
C1541 C 0.30203 0.15019 0.25335 0.0
C1542 C 0.31116 0.14783 0.27578 0.0
H1543 H 0.33721 0.15796 0.56608 0.0
H1544 H 0.33872 0.17661 0.49704 0.0
H1545 H 0.37183 0.15981 0.49207 0.0
H1546 H 0.40213 0.16714 0.57996 0.0
H1547 H 0.39795 0.14337 0.59597 0.0
H1548 H 0.37722 0.16026 0.59528 0.0
H1549 H 0.34409 0.12346 0.5801 0.0
H1550 H 0.36465 0.10651 0.58028 0.0
H1551 H 0.34596 0.10558 0.55388 0.0
H1552 H 0.40018 0.1355 0.49247 0.0
H1553 H 0.42356 0.10831 0.49922 0.0
H1554 H 0.40419 0.10683 0.56862 0.0
C1555 C 0.34501 0.15916 0.5502 0.0
C1556 C 0.33555 0.16863 0.53197 0.0
C1557 C 0.34598 0.16972 0.51134 0.0
C1558 C 0.3647 0.16013 0.50834 0.0
C1559 C 0.37299 0.15004 0.52635 0.0
C1560 C 0.3638 0.14998 0.54709 0.0
C1561 C 0.3747 0.1368 0.56316 0.0
C1562 C 0.38884 0.15285 0.58488 0.0
C1563 C 0.35625 0.11691 0.56972 0.0
C1564 C 0.39046 0.12826 0.54772 0.0
C1565 C 0.38953 0.13634 0.52669 0.0
C1566 C 0.40148 0.12953 0.50908 0.0
C1567 C 0.41474 0.1141 0.51309 0.0
C1568 C 0.41582 0.10554 0.5345 0.0
C1569 C 0.40367 0.11298 0.55204 0.0
H1570 H 0.67635 0.62041 0.2599 0.0
H1571 H 0.66007 0.63125 0.33012 0.0
H1572 H 0.68993 0.66845 0.33784 0.0
H1573 H 0.74013 0.64903 0.27332 0.0
H1574 H 0.74069 0.66136 0.24688 0.0
H1575 H 0.72022 0.63436 0.24777 0.0
H1576 H 0.68634 0.65076 0.2336 0.0
H1577 H 0.70665 0.6778 0.23279 0.0
H1578 H 0.68287 0.67654 0.24964 0.0
H1579 H 0.71747 0.70587 0.33651 0.0
H1580 H 0.74242 0.74123 0.32679 0.0
H1581 H 0.74231 0.70655 0.25759 0.0
C1582 C 0.67965 0.63043 0.27705 0.0
C1583 C 0.66636 0.62303 0.29463 0.0
C1584 C 0.67043 0.63667 0.31665 0.0
C1585 C 0.68731 0.65774 0.32115 0.0
C1586 C 0.69993 0.66485 0.30339 0.0
C1587 C 0.69649 0.65159 0.28181 0.0
C1588 C 0.71122 0.66408 0.26531 0.0
C1589 C 0.72914 0.65145 0.25789 0.0
C1590 C 0.69585 0.6675 0.24409 0.0
C1591 C 0.72299 0.68663 0.2808 0.0
C1592 C 0.71625 0.6866 0.30272 0.0
C1593 C 0.72323 0.70597 0.31958 0.0
C1594 C 0.73731 0.72599 0.31387 0.0
C1595 C 0.74445 0.72647 0.29156 0.0
C1596 C 0.73751 0.70644 0.27494 0.0
H1597 H 0.8758 0.45424 0.82556 0.0
H1598 H 0.86732 0.45517 0.75138 0.0
H1599 H 0.8326 0.42197 0.74636 0.0
H1600 H 0.86263 0.39381 0.82098 0.0
H1601 H 0.84873 0.39314 0.84692 0.0
H1602 H 0.87109 0.41798 0.84392 0.0
H1603 H 0.84214 0.4425 0.8517 0.0
H1604 H 0.81933 0.41734 0.85335 0.0
H1605 H 0.81483 0.43619 0.83298 0.0
H1606 H 0.79989 0.38929 0.7494 0.0
H1607 H 0.77835 0.35201 0.75824 0.0
H1608 H 0.80982 0.37122 0.83002 0.0
C1609 C 0.86662 0.44722 0.80829 0.0
C1610 C 0.87377 0.45679 0.78878 0.0
C1611 C 0.86184 0.44754 0.76636 0.0
C1612 C 0.84198 0.42915 0.76347 0.0
C1613 C 0.8347 0.42053 0.78323 0.0
C1614 C 0.84711 0.42872 0.80509 0.0
C1615 C 0.83755 0.41455 0.82299 0.0
C1616 C 0.85609 0.40425 0.83434 0.0
C1617 C 0.82789 0.42849 0.84133 0.0
C1618 C 0.81826 0.3966 0.8076 0.0
C1619 C 0.81624 0.40096 0.78492 0.0
C1620 C 0.80099 0.3858 0.7671 0.0
C1621 C 0.78871 0.36483 0.77228 0.0
C1622 C 0.79253 0.35939 0.79482 0.0
C1623 C 0.80638 0.37567 0.81291 0.0
H1624 H 0.08439 0.88204 0.05585 0.0
H1625 H 0.03341 0.87294 0.10413 0.0
H1626 H 0.02358 0.90802 0.0957 0.0
H1627 H 0.10523 0.9438 0.06993 0.0
H1628 H 0.10805 0.94908 0.04059 0.0
H1629 H 0.11081 0.92235 0.04892 0.0
H1630 H 0.07822 0.90028 0.01577 0.0
H1631 H 0.07543 0.92699 0.00734 0.0
H1632 H 0.05037 0.90669 0.01403 0.0
H1633 H 0.01708 0.94265 0.08117 0.0
H1634 H 0.01724 0.97761 0.06454 0.0
H1635 H 0.07539 0.96999 0.02857 0.0
C1636 C 0.07107 0.88738 0.06453 0.0
C1637 C 0.05963 0.87423 0.08074 0.0
C1638 C 0.0425 0.88227 0.09172 0.0
C1639 C 0.0367 0.90232 0.08698 0.0
C1640 C 0.04822 0.91484 0.07125 0.0
C1641 C 0.06521 0.90794 0.06023 0.0
C1642 C 0.07504 0.9254 0.04447 0.0
C1643 C 0.10135 0.93576 0.0514 0.0
C1644 C 0.06944 0.91417 0.01889 0.0
C1645 C 0.06154 0.94344 0.04916 0.0
C1646 C 0.04569 0.93634 0.06414 0.0
C1647 C 0.02983 0.94863 0.06989 0.0
C1648 C 0.0302 0.96875 0.06044 0.0
C1649 C 0.04691 0.97749 0.04599 0.0
C1650 C 0.06285 0.96441 0.04018 0.0
H1651 H 0.92908 0.30353 0.90923 0.0
H1652 H 0.92454 0.23189 0.88911 0.0
H1653 H 0.88701 0.22716 0.86453 0.0
H1654 H 0.86399 0.29546 0.9093 0.0
H1655 H 0.86516 0.32207 0.89853 0.0
H1656 H 0.88985 0.31893 0.91685 0.0
H1657 H 0.916 0.33071 0.88544 0.0
H1658 H 0.89142 0.33351 0.86685 0.0
H1659 H 0.90848 0.31486 0.85647 0.0
H1660 H 0.85343 0.23165 0.83743 0.0
H1661 H 0.82407 0.2439 0.81302 0.0
H1662 H 0.84827 0.31232 0.8518 0.0
C1663 C 0.91958 0.28662 0.9005 0.0
C1664 C 0.92937 0.26783 0.90177 0.0
C1665 C 0.91699 0.24625 0.88916 0.0
C1666 C 0.89576 0.24351 0.87493 0.0
C1667 C 0.88686 0.26246 0.87362 0.0
C1668 C 0.89809 0.28352 0.88651 0.0
C1669 C 0.8853 0.30135 0.88114 0.0
C1670 C 0.87549 0.30996 0.90274 0.0
C1671 C 0.90126 0.32127 0.87192 0.0
C1672 C 0.86576 0.28733 0.8624 0.0
C1673 C 0.86698 0.26489 0.85845 0.0
C1674 C 0.85198 0.24901 0.84085 0.0
C1675 C 0.83532 0.25611 0.82704 0.0
C1676 C 0.83342 0.27883 0.83088 0.0
C1677 C 0.84882 0.29464 0.84893 0.0
H1678 H 0.57019 0.2119 0.60992 0.0
H1679 H 0.56139 0.23909 0.54552 0.0
H1680 H 0.55546 0.20004 0.52359 0.0
H1681 H 0.60123 0.17165 0.58933 0.0
H1682 H 0.58779 0.1507 0.60645 0.0
H1683 H 0.5919 0.18069 0.6164 0.0
H1684 H 0.54781 0.17342 0.61925 0.0
H1685 H 0.54358 0.14343 0.60938 0.0
H1686 H 0.527 0.15935 0.59412 0.0
H1687 H 0.55218 0.15665 0.50896 0.0
H1688 H 0.54813 0.11489 0.50375 0.0
H1689 H 0.55581 0.11688 0.57826 0.0
C1690 C 0.56705 0.20994 0.59117 0.0
C1691 C 0.56639 0.22897 0.57958 0.0
C1692 C 0.56208 0.22505 0.55496 0.0
C1693 C 0.55875 0.20285 0.54236 0.0
C1694 C 0.55967 0.18462 0.55455 0.0
C1695 C 0.56357 0.1881 0.57848 0.0
C1696 C 0.56343 0.16599 0.58789 0.0
C1697 C 0.58752 0.16734 0.60078 0.0
C1698 C 0.54431 0.16021 0.60358 0.0
C1699 C 0.5581 0.14911 0.56561 0.0
C1700 C 0.55656 0.16015 0.54644 0.0
C1701 C 0.55299 0.148 0.52396 0.0
C1702 C 0.5506 0.12418 0.52113 0.0
C1703 C 0.55102 0.11248 0.54057 0.0
C1704 C 0.55499 0.12527 0.56306 0.0
H1705 H 0.56541 0.80831 0.40437 0.0
H1706 H 0.5714 0.74704 0.43184 0.0
H1707 H 0.60582 0.74677 0.41164 0.0
H1708 H 0.58166 0.79584 0.34909 0.0
H1709 H 0.599 0.82434 0.348 0.0
H1710 H 0.57534 0.82018 0.36514 0.0
H1711 H 0.60359 0.84268 0.40161 0.0
H1712 H 0.62735 0.84701 0.38453 0.0
H1713 H 0.6293 0.83385 0.41031 0.0
H1714 H 0.63771 0.7517 0.38628 0.0
H1715 H 0.66645 0.7625 0.35956 0.0
H1716 H 0.64196 0.82246 0.35057 0.0
C1717 C 0.57416 0.79499 0.4062 0.0
C1718 C 0.56586 0.7776 0.41953 0.0
C1719 C 0.57767 0.7605 0.42175 0.0
C1720 C 0.59716 0.76022 0.41032 0.0
C1721 C 0.60493 0.77749 0.39717 0.0
C1722 C 0.59407 0.7948 0.39538 0.0
C1723 C 0.60628 0.81153 0.3805 0.0
C1724 C 0.58957 0.81305 0.35943 0.0
C1725 C 0.61728 0.83517 0.39511 0.0
C1726 C 0.6249 0.80028 0.3732 0.0
C1727 C 0.62392 0.78079 0.38322 0.0
C1728 C 0.63889 0.76713 0.37864 0.0
C1729 C 0.6553 0.77353 0.36349 0.0
C1730 C 0.65681 0.7935 0.35298 0.0
C1731 C 0.64132 0.80704 0.3581 0.0
H1732 H 0.06227 0.26957 0.43418 0.0
H1733 H 0.01133 0.23862 0.37349 0.0
H1734 H 0.99957 0.20337 0.39077 0.0
H1735 H 0.07975 0.21839 0.44265 0.0
H1736 H 0.0833 0.22442 0.4739 0.0
H1737 H 0.08751 0.24757 0.45708 0.0
H1738 H 0.05683 0.26312 0.47725 0.0
H1739 H 0.05255 0.24003 0.49415 0.0
H1740 H 0.02809 0.24457 0.47666 0.0
H1741 H 0.99277 0.17159 0.41469 0.0
H1742 H 0.99248 0.14486 0.44311 0.0
H1743 H 0.04845 0.19551 0.48808 0.0
C1744 C 0.04862 0.25539 0.42456 0.0
C1745 C 0.03771 0.25695 0.40245 0.0
C1746 C 0.02 0.23791 0.3904 0.0
C1747 C 0.01315 0.21777 0.4001 0.0
C1748 C 0.02424 0.21678 0.42185 0.0
C1749 C 0.04167 0.235 0.43392 0.0
C1750 C 0.05101 0.2292 0.45685 0.0
C1751 C 0.07693 0.22994 0.45766 0.0
C1752 C 0.04686 0.24518 0.47744 0.0
C1753 C 0.03608 0.20493 0.45576 0.0
C1754 C 0.02066 0.19819 0.43547 0.0
C1755 C 0.0048 0.17668 0.43063 0.0
C1756 C 0.00469 0.16164 0.44695 0.0
C1757 C 0.02041 0.16805 0.46785 0.0
C1758 C 0.03637 0.19001 0.47218 0.0
H1759 H 0.61446 0.29956 0.22295 0.0
H1760 H 0.58226 0.23267 0.23951 0.0
H1761 H 0.62109 0.22874 0.25427 0.0
H1762 H 0.66543 0.28878 0.20457 0.0
H1763 H 0.68495 0.31571 0.2183 0.0
H1764 H 0.65471 0.31377 0.20977 0.0
H1765 H 0.65091 0.32966 0.25188 0.0
H1766 H 0.68124 0.33184 0.26043 0.0
H1767 H 0.65939 0.31576 0.27546 0.0
H1768 H 0.66382 0.2309 0.26429 0.0
H1769 H 0.70656 0.24039 0.2729 0.0
H1770 H 0.71144 0.30728 0.25256 0.0
C1771 C 0.61564 0.28429 0.23009 0.0
C1772 C 0.59534 0.26643 0.23028 0.0
C1773 C 0.59753 0.24664 0.23955 0.0
C1774 C 0.61954 0.24423 0.24783 0.0
C1775 C 0.63926 0.26201 0.24722 0.0
C1776 C 0.6375 0.28191 0.2391 0.0
C1777 C 0.66145 0.2986 0.2409 0.0
C1778 C 0.66695 0.30456 0.21695 0.0
C1779 C 0.66335 0.32025 0.25819 0.0
C1780 C 0.67699 0.28463 0.25032 0.0
C1781 C 0.66382 0.26359 0.25387 0.0
C1782 C 0.67425 0.24747 0.26187 0.0
C1783 C 0.69868 0.25304 0.26666 0.0
C1784 C 0.7127 0.27468 0.2636 0.0
C1785 C 0.70146 0.29062 0.25526 0.0
H1786 H 0.54565 0.88156 0.92799 0.0
H1787 H 0.57884 0.91976 0.87692 0.0
H1788 H 0.57723 0.95553 0.89966 0.0
H1789 H 0.50666 0.91613 0.94031 0.0
H1790 H 0.50921 0.91548 0.97114 0.0
H1791 H 0.51359 0.89216 0.9517 0.0
H1792 H 0.55429 0.8974 0.97454 0.0
H1793 H 0.54994 0.92064 0.99415 0.0
H1794 H 0.57513 0.92504 0.97905 0.0
H1795 H 0.57088 0.98713 0.92593 0.0
H1796 H 0.56198 0.01385 0.95602 0.0
H1797 H 0.53308 0.95749 0.99235 0.0
C1798 C 0.55287 0.89749 0.9218 0.0
C1799 C 0.5624 0.89757 0.90044 0.0
C1800 C 0.57142 0.91892 0.89302 0.0
C1801 C 0.57058 0.93949 0.90587 0.0
C1802 C 0.56078 0.93883 0.92642 0.0
C1803 C 0.55226 0.91853 0.93462 0.0
C1804 C 0.54252 0.92319 0.95737 0.0
C1805 C 0.51644 0.91101 0.95498 0.0
C1806 C 0.55629 0.91614 0.97747 0.0
C1807 C 0.54664 0.94915 0.96029 0.0
C1808 C 0.55725 0.95759 0.94211 0.0
C1809 C 0.56274 0.98076 0.94037 0.0
C1810 C 0.55754 0.99587 0.95771 0.0
C1811 C 0.54687 0.98803 0.97688 0.0
C1812 C 0.54129 0.96417 0.97807 0.0
H1813 H 0.93321 0.72897 0.7346 0.0
H1814 H 0.96741 0.79594 0.7192 0.0
H1815 H 0.93468 0.81043 0.7309 0.0
H1816 H 0.87445 0.73078 0.71223 0.0
H1817 H 0.86064 0.71577 0.73391 0.0
H1818 H 0.88702 0.71047 0.72503 0.0
H1819 H 0.9065 0.72052 0.76782 0.0
H1820 H 0.88018 0.72591 0.77676 0.0
H1821 H 0.90735 0.74774 0.78422 0.0
H1822 H 0.89908 0.81837 0.74546 0.0
H1823 H 0.86141 0.81868 0.75845 0.0
H1824 H 0.84735 0.7461 0.76246 0.0
C1825 C 0.93378 0.74668 0.73368 0.0
C1826 C 0.95315 0.76132 0.72596 0.0
C1827 C 0.95293 0.78431 0.72487 0.0
C1828 C 0.93438 0.79275 0.73162 0.0
C1829 C 0.91569 0.77799 0.73912 0.0
C1830 C 0.91499 0.75534 0.73989 0.0
C1831 C 0.89217 0.74304 0.74777 0.0
C1832 C 0.87771 0.72387 0.7286 0.0
C1833 C 0.89684 0.73375 0.77049 0.0
C1834 C 0.88036 0.76238 0.75159 0.0
C1835 C 0.89447 0.78239 0.74665 0.0
C1836 C 0.88786 0.80274 0.7492 0.0
C1837 C 0.86628 0.80271 0.75672 0.0
C1838 C 0.85103 0.78244 0.76154 0.0
C1839 C 0.85837 0.76193 0.75891 0.0
H1840 H 0.06692 0.01821 0.85343 0.0
H1841 H 0.1165 0.08489 0.86334 0.0
H1842 H 0.1145 0.08879 0.90549 0.0
H1843 H 0.03094 0.03151 0.89518 0.0
H1844 H 0.02573 0.00448 0.90586 0.0
H1845 H 0.03179 0.00608 0.87651 0.0
H1846 H 0.06607 0.98812 0.88413 0.0
H1847 H 0.0601 0.98641 0.91353 0.0
H1848 H 0.08868 0.00114 0.90809 0.0
H1849 H 0.10688 0.08633 0.94567 0.0
H1850 H 0.09339 0.07831 0.98268 0.0
H1851 H 0.04777 0.01309 0.94838 0.0
C1852 C 0.07754 0.03341 0.86465 0.0
C1853 C 0.09216 0.05119 0.85538 0.0
C1854 C 0.10553 0.07103 0.87031 0.0
C1855 C 0.10445 0.07339 0.89422 0.0
C1856 C 0.08996 0.05568 0.90296 0.0
C1857 C 0.07675 0.03603 0.88878 0.0
C1858 C 0.0623 0.01994 0.90295 0.0
C1859 C 0.03614 0.01524 0.89463 0.0
C1860 C 0.06973 0.99757 0.90212 0.0
C1861 C 0.06902 0.03398 0.92712 0.0
C1862 C 0.08525 0.05437 0.92657 0.0
C1863 C 0.09427 0.07037 0.9464 0.0
C1864 C 0.08647 0.06557 0.96742 0.0
C1865 C 0.06954 0.04499 0.96865 0.0
C1866 C 0.06079 0.02891 0.94812 0.0
H1867 H 0.76588 0.35723 0.55493 0.0
H1868 H 0.83124 0.40834 0.55656 0.0
H1869 H 0.84967 0.39151 0.58688 0.0
H1870 H 0.76962 0.35997 0.61513 0.0
H1871 H 0.75647 0.32997 0.61488 0.0
H1872 H 0.74938 0.34345 0.59054 0.0
H1873 H 0.76184 0.31352 0.56303 0.0
H1874 H 0.76915 0.29997 0.58736 0.0
H1875 H 0.79061 0.30959 0.56867 0.0
H1876 H 0.86052 0.37145 0.61764 0.0
H1877 H 0.86208 0.35272 0.65244 0.0
H1878 H 0.7891 0.31635 0.63399 0.0
C1879 C 0.78417 0.36442 0.56144 0.0
C1880 C 0.79738 0.3837 0.55343 0.0
C1881 C 0.82103 0.39339 0.56259 0.0
C1882 C 0.83167 0.38386 0.57958 0.0
C1883 C 0.81827 0.36487 0.5873 0.0
C1884 C 0.79495 0.35546 0.57893 0.0
C1885 C 0.78392 0.33705 0.59254 0.0
C1886 C 0.76366 0.34299 0.60396 0.0
C1887 C 0.77591 0.31364 0.57697 0.0
C1888 C 0.80452 0.3383 0.61036 0.0
C1889 C 0.82429 0.35391 0.60639 0.0
C1890 C 0.84531 0.35894 0.62088 0.0
C1891 C 0.84607 0.34818 0.64049 0.0
C1892 C 0.8258 0.33303 0.64556 0.0
C1893 C 0.80486 0.32769 0.63016 0.0
H1894 H 0.43375 0.01584 0.38147 0.0
H1895 H 0.45594 0.0885 0.37954 0.0
H1896 H 0.47079 0.0954 0.4214 0.0
H1897 H 0.42287 0.01972 0.44644 0.0
H1898 H 0.43475 0.99571 0.44941 0.0
H1899 H 0.41838 0.99705 0.4223 0.0
H1900 H 0.45298 0.99216 0.4009 0.0
H1901 H 0.46952 0.99114 0.42776 0.0
H1902 H 0.48122 0.01206 0.40985 0.0
H1903 H 0.49305 0.0936 0.45714 0.0
H1904 H 0.51994 0.08329 0.48597 0.0
H1905 H 0.48335 0.01184 0.4666 0.0
C1906 C 0.44078 0.03321 0.39037 0.0
C1907 C 0.44371 0.05178 0.37797 0.0
C1908 C 0.45355 0.07429 0.38926 0.0
C1909 C 0.46175 0.07828 0.41295 0.0
C1910 C 0.45981 0.05951 0.42472 0.0
C1911 C 0.44923 0.03735 0.41391 0.0
C1912 C 0.45361 0.01994 0.42885 0.0
C1913 C 0.43106 0.00738 0.43726 0.0
C1914 C 0.46502 0.00286 0.41608 0.0
C1915 C 0.4702 0.03571 0.44862 0.0
C1916 C 0.47294 0.05848 0.44624 0.0
C1917 C 0.49045 0.07598 0.45978 0.0
C1918 C 0.50584 0.07005 0.47579 0.0
C1919 C 0.50336 0.04699 0.47815 0.0
C1920 C 0.48498 0.02966 0.46514 0.0
H1921 H 0.74996 0.70595 0.109 0.0
H1922 H 0.7944 0.7618 0.08193 0.0
H1923 H 0.79758 0.78696 0.11921 0.0
H1924 H 0.71887 0.73999 0.14209 0.0
H1925 H 0.71778 0.72342 0.16562 0.0
H1926 H 0.71828 0.71017 0.13652 0.0
H1927 H 0.75467 0.69729 0.15066 0.0
H1928 H 0.75415 0.71032 0.17979 0.0
H1929 H 0.78007 0.71831 0.16612 0.0
H1930 H 0.79883 0.80482 0.16077 0.0
H1931 H 0.79719 0.81414 0.20282 0.0
H1932 H 0.74988 0.74751 0.20182 0.0
C1933 C 0.76024 0.72352 0.11077 0.0
C1934 C 0.77195 0.73188 0.09246 0.0
C1935 C 0.78521 0.755 0.09562 0.0
C1936 C 0.78709 0.76943 0.11674 0.0
C1937 C 0.77537 0.76057 0.13443 0.0
C1938 C 0.7621 0.73818 0.13158 0.0
C1939 C 0.75183 0.73257 0.15348 0.0
C1940 C 0.7251 0.72616 0.14916 0.0
C1941 C 0.76071 0.7135 0.16307 0.0
C1942 C 0.76154 0.75526 0.16925 0.0
C1943 C 0.7752 0.77118 0.15796 0.0
C1944 C 0.78776 0.79268 0.16959 0.0
C1945 C 0.78668 0.79786 0.19341 0.0
C1946 C 0.77283 0.78179 0.20522 0.0
C1947 C 0.75981 0.7604 0.1929 0.0
H1948 H 0.07754 0.07067 0.71291 0.0
H1949 H 0.10006 0.00839 0.70745 0.0
H1950 H 0.08564 1.00017 0.66547 0.0
H1951 H 0.02476 0.04846 0.668 0.0
H1952 H 0.02883 0.07526 0.65696 0.0
H1953 H 0.0381 0.07494 0.68715 0.0
H1954 H 0.0797 0.09798 0.68286 0.0
H1955 H 0.07063 0.09832 0.6527 0.0
H1956 H 0.0949 0.08713 0.66089 0.0
H1957 H 0.07241 1.00007 0.62464 0.0
H1958 H 0.06194 0.00832 0.58575 0.0
H1959 H 0.04778 0.07125 0.61565 0.0
C1960 C 0.07881 0.05505 0.70284 0.0
C1961 C 0.08944 0.03984 0.71325 0.0
C1962 C 0.09158 0.01994 0.69968 0.0
C1963 C 0.08344 0.01516 0.67591 0.0
C1964 C 0.07324 0.03052 0.66599 0.0
C1965 C 0.07081 0.05006 0.67891 0.0
C1966 C 0.06077 0.06445 0.66334 0.0
C1967 C 0.03668 0.06586 0.66922 0.0
C1968 C 0.07751 0.08839 0.66505 0.0
C1969 C 0.05886 0.05037 0.6396 0.0
C1970 C 0.06581 0.03069 0.64182 0.0
C1971 C 0.06676 0.01531 0.62268 0.0
C1972 C 0.06089 0.02027 0.60062 0.0
C1973 C 0.05418 0.04051 0.59763 0.0
C1974 C 0.05264 0.05557 0.61743 0.0
H1975 H 0.79454 0.37616 0.43681 0.0
H1976 H 0.76188 0.41973 0.39946 0.0
H1977 H 0.75597 0.39209 0.36345 0.0
H1978 H 0.82401 0.35706 0.38977 0.0
H1979 H 0.81938 0.32881 0.39765 0.0
H1980 H 0.82228 0.35303 0.41961 0.0
H1981 H 0.78262 0.33262 0.43149 0.0
H1982 H 0.77911 0.30876 0.40891 0.0
H1983 H 0.75702 0.32404 0.41012 0.0
H1984 H 0.74936 0.35779 0.33335 0.0
H1985 H 0.75105 0.32287 0.30807 0.0
H1986 H 0.78945 0.30326 0.36509 0.0
C1987 C 0.78636 0.38004 0.42101 0.0
C1988 C 0.77822 0.39974 0.42084 0.0
C1989 C 0.76803 0.40454 0.39985 0.0
C1990 C 0.76446 0.38893 0.37944 0.0
C1991 C 0.77145 0.36899 0.38057 0.0
C1992 C 0.78277 0.36482 0.40062 0.0
C1993 C 0.78866 0.34218 0.39729 0.0
C1994 C 0.81516 0.34548 0.4013 0.0
C1995 C 0.7761 0.32595 0.41288 0.0
C1996 C 0.77886 0.33423 0.37213 0.0
C1997 C 0.76862 0.34972 0.36293 0.0
C1998 C 0.75785 0.3458 0.34013 0.0
C1999 C 0.75894 0.32611 0.32595 0.0
C2000 C 0.77118 0.31132 0.33466 0.0
C2001 C 0.78025 0.3147 0.35818 0.0
H2002 H 0.42387 0.99069 0.23981 0.0
H2003 H 0.41484 0.05766 0.23211 0.0
H2004 H 0.42693 0.05406 0.19284 0.0
H2005 H 0.47566 0.99896 0.21668 0.0
H2006 H 0.47068 0.96995 0.20249 0.0
H2007 H 0.45711 0.97572 0.22778 0.0
H2008 H 0.41649 0.95496 0.20486 0.0
H2009 H 0.42992 0.94897 0.17944 0.0
H2010 H 0.40741 0.96376 0.17796 0.0
H2011 H 0.4425 0.04456 0.15654 0.0
H2012 H 0.4648 0.03185 0.12671 0.0
H2013 H 0.46681 0.97239 0.15961 0.0
C2014 C 0.42404 0.00431 0.22952 0.0
C2015 C 0.41838 0.02434 0.2384 0.0
C2016 C 0.41921 0.04223 0.22517 0.0
C2017 C 0.42578 0.04021 0.20293 0.0
C2018 C 0.43165 0.02032 0.19463 0.0
C2019 C 0.43109 0.00277 0.20758 0.0
C2020 C 0.44124 0.9847 0.19607 0.0
C2021 C 0.46243 0.98221 0.21168 0.0
C2022 C 0.42265 0.96174 0.18917 0.0
C2023 C 0.44828 0.99519 0.17495 0.0
C2024 C 0.44194 0.01537 0.17413 0.0
C2025 C 0.44733 0.02867 0.15678 0.0
C2026 C 0.45992 0.02133 0.13997 0.0
C2027 C 0.46724 0.00115 0.14101 0.0
C2028 C 0.46118 0.9878 0.15852 0.0
H2029 H 0.79423 0.71084 0.93248 0.0
H2030 H 0.77135 0.76661 0.96723 0.0
H2031 H 0.77199 0.78415 0.9314 0.0
H2032 H 0.83303 0.74614 0.89836 0.0
H2033 H 0.8264 0.72413 0.87337 0.0
H2034 H 0.8252 0.71645 0.90207 0.0
H2035 H 0.78258 0.69217 0.88949 0.0
H2036 H 0.78363 0.6999 0.86082 0.0
H2037 H 0.76129 0.70538 0.87743 0.0
H2038 H 0.7742 0.79522 0.89166 0.0
H2039 H 0.778 0.7992 0.8506 0.0
H2040 H 0.79854 0.73594 0.84088 0.0
C2041 C 0.78954 0.72685 0.93262 0.0
C2042 C 0.78277 0.73738 0.95275 0.0
C2043 C 0.77671 0.75828 0.95214 0.0
C2044 C 0.77698 0.76836 0.93183 0.0
C2045 C 0.78348 0.75742 0.91225 0.0
C2046 C 0.78978 0.73719 0.91248 0.0
C2047 C 0.79587 0.72889 0.88896 0.0
C2048 C 0.82166 0.7289 0.8908 0.0
C2049 C 0.77988 0.70518 0.87857 0.0
C2050 C 0.79125 0.74717 0.87525 0.0
C2051 C 0.78445 0.76364 0.88917 0.0
C2052 C 0.77954 0.78246 0.88064 0.0
C2053 C 0.78174 0.78457 0.85735 0.0
C2054 C 0.78848 0.76785 0.84274 0.0
C2055 C 0.79321 0.74885 0.85174 0.0
H2056 H 0.85272 0.13348 0.03667 0.0
H2057 H 0.84849 0.1041 0.10045 0.0
H2058 H 0.87703 0.0832 0.0897 0.0
H2059 H 0.85005 0.08506 0.00264 0.0
H2060 H 0.86967 0.09661 0.98302 0.0
H2061 H 0.85425 0.11436 -0.00203 0.0
H2062 H 0.893 0.14417 0.01542 0.0
H2063 H 0.90869 0.1269 -6e-05 0.0
H2064 H 0.9158 0.13513 0.03095 0.0
H2065 H 0.898 0.05963 0.06884 0.0
H2066 H 0.9153 0.0377 0.04079 0.0
H2067 H 0.90562 0.08174 0.98998 0.0
C2068 C 0.8588 0.12366 0.04895 0.0
C2069 C 0.84875 0.12047 0.06946 0.0
C2070 C 0.85629 0.1068 0.08475 0.0
C2071 C 0.87243 0.09489 0.07878 0.0
C2072 C 0.88077 0.09707 0.0576 0.0
C2073 C 0.8746 0.11141 0.04306 0.0
C2074 C 0.88332 0.10814 0.01986 0.0
C2075 C 0.86311 0.10059 -0.00029 0.0
C2076 C 0.90128 0.12988 0.01634 0.0
C2077 C 0.89451 0.08905 0.02331 0.0
C2078 C 0.89292 0.08306 0.04524 0.0
C2079 C 0.89988 0.06445 0.05181 0.0
C2080 C 0.90924 0.05189 0.03567 0.0
C2081 C 0.91142 0.05803 0.01331 0.0
C2082 C 0.90408 0.07686 0.00705 0.0
H2083 H 0.37212 0.45565 0.06899 0.0
H2084 H 0.3629 0.40154 0.01099 0.0
H2085 H 0.40238 0.4191 0.00214 0.0
H2086 H 0.4008 0.50065 0.04557 0.0
H2087 H 0.42194 0.5149 0.0704 0.0
H2088 H 0.39446 0.49663 0.0745 0.0
H2089 H 0.41546 0.4723 0.09752 0.0
H2090 H 0.44308 0.49091 0.09407 0.0
H2091 H 0.43696 0.46054 0.08485 0.0
H2092 H 0.43996 0.44556 0.99614 0.0
H2093 H 0.47626 0.47612 -0.00299 0.0
H2094 H 0.46231 0.51213 0.06012 0.0
C2095 C 0.37888 0.44709 0.05503 0.0
C2096 C 0.36477 0.42713 0.04082 0.0
C2097 C 0.37377 0.41655 0.02235 0.0
C2098 C 0.39606 0.42651 0.0171 0.0
C2099 C 0.40928 0.44668 0.03092 0.0
C2100 C 0.4014 0.45644 0.05001 0.0
C2101 C 0.419 0.47833 0.06178 0.0
C2102 C 0.4084 0.49883 0.06312 0.0
C2103 C 0.42923 0.47534 0.08599 0.0
C2104 C 0.4371 0.4803 0.04528 0.0
C2105 C 0.43128 0.46171 0.02775 0.0
C2106 C 0.44487 0.46001 0.00997 0.0
C2107 C 0.46525 0.47749 0.01044 0.0
C2108 C 0.47163 0.49642 0.0284 0.0
C2109 C 0.45745 0.49789 0.04603 0.0
H2110 H 0.42201 0.60946 0.76692 0.0
H2111 H 0.38136 0.5575 0.80166 0.0
H2112 H 0.355 0.58173 0.80992 0.0
H2113 H 0.41417 0.65986 0.80452 0.0
H2114 H 0.41146 0.67537 0.78056 0.0
H2115 H 0.42907 0.65536 0.7798 0.0
H2116 H 0.40527 0.63384 0.74061 0.0
H2117 H 0.38757 0.6537 0.74127 0.0
H2118 H 0.37407 0.62346 0.73858 0.0
H2119 H 0.33189 0.60995 0.81276 0.0
H2120 H 0.31149 0.63972 0.80769 0.0
H2121 H 0.36535 0.67324 0.76946 0.0
C2122 C 0.40782 0.60347 0.77667 0.0
C2123 C 0.40381 0.58169 0.78385 0.0
C2124 C 0.38475 0.57413 0.79605 0.0
C2125 C 0.36975 0.58781 0.80093 0.0
C2126 C 0.37387 0.60898 0.79333 0.0
C2127 C 0.39233 0.61681 0.78136 0.0
C2128 C 0.39151 0.63943 0.77352 0.0
C2129 C 0.41282 0.65864 0.7853 0.0
C2130 C 0.38947 0.63748 0.74691 0.0
C2131 C 0.36936 0.64263 0.78238 0.0
C2132 C 0.35984 0.62509 0.7942 0.0
C2133 C 0.33924 0.62391 0.8037 0.0
C2134 C 0.32783 0.64096 0.80083 0.0
C2135 C 0.33685 0.65887 0.7883 0.0
C2136 C 0.35802 0.65975 0.7791 0.0
H2137 H 0.20018 0.62399 0.50874 0.0
H2138 H 0.22433 0.63704 0.58254 0.0
H2139 H 0.1886 0.60933 0.58946 0.0
H2140 H 0.13877 0.61893 0.51607 0.0
H2141 H 0.12867 0.5978 0.49046 0.0
H2142 H 0.1558 0.61924 0.49232 0.0
H2143 H 0.1762 0.58684 0.48379 0.0
H2144 H 0.14917 0.56543 0.48289 0.0
H2145 H 0.17427 0.56533 0.50259 0.0
H2146 H 0.15093 0.57967 0.58781 0.0
H2147 H 0.11075 0.55484 0.57859 0.0
H2148 H 0.11294 0.56054 0.50557 0.0
C2149 C 0.19755 0.62129 0.52633 0.0
C2150 C 0.21443 0.63244 0.54518 0.0
C2151 C 0.21104 0.62863 0.56806 0.0
C2152 C 0.19107 0.61283 0.57208 0.0
C2153 C 0.17493 0.60139 0.55296 0.0
C2154 C 0.17767 0.60586 0.53064 0.0
C2155 C 0.15731 0.59211 0.51328 0.0
C2156 C 0.14438 0.60796 0.50241 0.0
C2157 C 0.1647 0.5765 0.49455 0.0
C2158 C 0.14312 0.57858 0.52918 0.0
C2159 C 0.15344 0.5842 0.55201 0.0
C2160 C 0.14262 0.57507 0.57 0.0
C2161 C 0.11993 0.56088 0.56458 0.0
C2162 C 0.1087 0.55617 0.54142 0.0
C2163 C 0.12096 0.56408 0.52346 0.0
H2164 H 0.7081 0.97987 0.74466 0.0
H2165 H 0.73435 0.03523 0.8022 0.0
H2166 H 0.75878 0.013 0.82015 0.0
H2167 H 0.70419 0.93392 0.7748 0.0
H2168 H 0.71478 0.91649 0.75359 0.0
H2169 H 0.70038 0.93716 0.74458 0.0
H2170 H 0.73605 0.95621 0.72557 0.0
H2171 H 0.75046 0.93533 0.73413 0.0
H2172 H 0.76447 0.96539 0.74253 0.0
H2173 H 0.77665 0.9835 0.83343 0.0
H2174 H 0.79117 0.95 0.83945 0.0
H2175 H 0.75586 0.91539 0.77136 0.0
C2176 C 0.71922 0.98729 0.76092 0.0
C2177 C 0.71944 0.00895 0.77235 0.0
C2178 C 0.73421 0.01855 0.79338 0.0
C2179 C 0.748 0.00609 0.80364 0.0
C2180 C 0.74711 0.9845 0.79218 0.0
C2181 C 0.73356 0.97539 0.77102 0.0
C2182 C 0.73602 0.95198 0.7622 0.0
C2183 C 0.71244 0.93382 0.75861 0.0
C2184 C 0.74744 0.95226 0.73978 0.0
C2185 C 0.75218 0.9489 0.78232 0.0
C2186 C 0.7584 0.96787 0.79936 0.0
C2187 C 0.77238 0.9687 0.82004 0.0
C2188 C 0.78057 0.94966 0.82326 0.0
C2189 C 0.7748 0.93023 0.80581 0.0
C2190 C 0.76042 0.92992 0.7851 0.0
H2191 H 0.741 0.92936 0.56117 0.0
H2192 H 0.71709 0.87907 0.499 0.0
H2193 H 0.68778 0.89909 0.48672 0.0
H2194 H 0.68295 0.93491 0.57072 0.0
H2195 H 0.69352 0.965 0.58176 0.0
H2196 H 0.71217 0.94636 0.58563 0.0
H2197 H 0.74325 0.97212 0.56569 0.0
H2198 H 0.72463 0.99071 0.56157 0.0
H2199 H 0.73537 0.978 0.53699 0.0
H2200 H 0.66302 0.92623 0.48017 0.0
H2201 H 0.64164 0.95604 0.48177 0.0
H2202 H 0.68074 0.98735 0.54921 0.0
C2203 C 0.72936 0.92243 0.54513 0.0
C2204 C 0.73113 0.90269 0.53104 0.0
C2205 C 0.71572 0.89404 0.51015 0.0
C2206 C 0.69918 0.90537 0.50298 0.0
C2207 C 0.69807 0.92501 0.51715 0.0
C2208 C 0.71245 0.93321 0.53801 0.0
C2209 C 0.70744 0.95435 0.55029 0.0
C2210 C 0.69848 0.94988 0.57347 0.0
C2211 C 0.72895 0.97501 0.55382 0.0
C2212 C 0.6884 0.95713 0.53281 0.0
C2213 C 0.68329 0.94012 0.51377 0.0
C2214 C 0.6667 0.93951 0.4951 0.0
C2215 C 0.65477 0.95657 0.49609 0.0
C2216 C 0.65944 0.97389 0.51568 0.0
C2217 C 0.67655 0.97413 0.53418 0.0
H2218 H 0.39734 0.43469 0.73502 0.0
H2219 H 0.39987 0.47294 0.80313 0.0
H2220 H 0.37148 0.44011 0.81353 0.0
H2221 H 0.33385 0.40672 0.72948 0.0
H2222 H 0.33649 0.38046 0.71373 0.0
H2223 H 0.35639 0.4073 0.71114 0.0
H2224 H 0.39117 0.39139 0.72365 0.0
H2225 H 0.37139 0.36461 0.72642 0.0
H2226 H 0.39259 0.3802 0.75072 0.0
H2227 H 0.34399 0.40335 0.8171 0.0
H2228 H 0.31819 0.36456 0.81356 0.0
H2229 H 0.33299 0.34913 0.7433 0.0
C2230 C 0.39174 0.43613 0.75203 0.0
C2231 C 0.40073 0.45632 0.7683 0.0
C2232 C 0.39297 0.45771 0.79035 0.0
C2233 C 0.37693 0.43914 0.79644 0.0
C2234 C 0.36846 0.41945 0.78011 0.0
C2235 C 0.37529 0.41785 0.75825 0.0
C2236 C 0.36307 0.39473 0.74395 0.0
C2237 C 0.34647 0.39747 0.72335 0.0
C2238 C 0.38062 0.38198 0.73572 0.0
C2239 C 0.34952 0.38314 0.7617 0.0
C2240 C 0.35251 0.39798 0.78223 0.0
C2241 C 0.34141 0.3916 0.80109 0.0
C2242 C 0.32674 0.3695 0.7989 0.0
C2243 C 0.32361 0.35383 0.77822 0.0
C2244 C 0.33524 0.36073 0.75939 0.0
H2245 H 0.17695 0.63624 0.23301 0.0
H2246 H 0.21175 0.61127 0.28894 0.0
H2247 H 0.24285 0.64745 0.29642 0.0
H2248 H 0.2247 0.65909 0.20952 0.0
H2249 H 0.21663 0.68412 0.20212 0.0
H2250 H 0.19442 0.65862 0.20384 0.0
H2251 H 0.17606 0.68035 0.23459 0.0
H2252 H 0.19711 0.70628 0.23162 0.0
H2253 H 0.19448 0.69781 0.25987 0.0
H2254 H 0.27194 0.6847 0.29488 0.0
H2255 H 0.29291 0.72361 0.28892 0.0
H2256 H 0.24018 0.72081 0.23163 0.0
C2257 C 0.19066 0.63864 0.24734 0.0
C2258 C 0.19225 0.62103 0.26015 0.0
C2259 C 0.21049 0.62466 0.27874 0.0
C2260 C 0.22823 0.64503 0.28307 0.0
C2261 C 0.2272 0.66129 0.26866 0.0
C2262 C 0.20856 0.65857 0.25163 0.0
C2263 C 0.21208 0.67786 0.23762 0.0
C2264 C 0.21195 0.6694 0.21175 0.0
C2265 C 0.19386 0.69138 0.24115 0.0
C2266 C 0.23595 0.69145 0.24886 0.0
C2267 C 0.24441 0.68185 0.26689 0.0
C2268 C 0.26562 0.69235 0.28072 0.0
C2269 C 0.27764 0.7141 0.27694 0.0
C2270 C 0.26808 0.72451 0.25955 0.0
C2271 C 0.24789 0.71264 0.24458 0.0
H2272 H 0.5207 0.71319 0.51002 0.0
H2273 H 0.48293 0.6839 0.44144 0.0
H2274 H 0.48719 0.6462 0.44778 0.0
H2275 H 0.56171 0.67824 0.50971 0.0
H2276 H 0.5617 0.67402 0.53965 0.0
H2277 H 0.55568 0.6994 0.53072 0.0
H2278 H 0.51667 0.69034 0.54751 0.0
H2279 H 0.52266 0.665 0.5566 0.0
H2280 H 0.496 0.66287 0.53819 0.0
H2281 H 0.49599 0.61191 0.45966 0.0
H2282 H 0.50702 0.58146 0.47719 0.0
H2283 H 0.53907 0.62925 0.54001 0.0
C2284 C 0.51311 0.69879 0.49645 0.0
C2285 C 0.50128 0.70195 0.47508 0.0
C2286 C 0.49193 0.6824 0.45791 0.0
C2287 C 0.49432 0.66071 0.46134 0.0
C2288 C 0.50611 0.65823 0.4822 0.0
C2289 C 0.51525 0.67654 0.49967 0.0
C2290 C 0.527 0.66838 0.52041 0.0
C2291 C 0.55308 0.68075 0.52541 0.0
C2292 C 0.51486 0.67186 0.54196 0.0
C2293 C 0.52313 0.64278 0.5116 0.0
C2294 C 0.51102 0.63767 0.48944 0.0
C2295 C 0.50528 0.61569 0.47709 0.0
C2296 C 0.51169 0.5983 0.48747 0.0
C2297 C 0.52379 0.60231 0.51039 0.0
C2298 C 0.52977 0.62522 0.52258 0.0
H2299 H 0.62664 0.29964 0.67698 0.0
H2300 H 0.66648 0.33071 0.62575 0.0
H2301 H 0.70254 0.32723 0.64752 0.0
H2302 H 0.66837 0.32486 0.72756 0.0
H2303 H 0.66327 0.29952 0.74126 0.0
H2304 H 0.64034 0.30416 0.72168 0.0
H2305 H 0.63617 0.26494 0.69695 0.0
H2306 H 0.65914 0.26018 0.71645 0.0
H2307 H 0.6613 0.25877 0.68586 0.0
H2308 H 0.73445 0.32144 0.67491 0.0
H2309 H 0.76052 0.31377 0.70609 0.0
H2310 H 0.70118 0.28537 0.74046 0.0
C2311 C 0.64298 0.3058 0.67042 0.0
C2312 C 0.64364 0.31567 0.64961 0.0
C2313 C 0.6654 0.32317 0.64154 0.0
C2314 C 0.68603 0.32123 0.65382 0.0
C2315 C 0.6848 0.31144 0.67413 0.0
C2316 C 0.66387 0.3037 0.68237 0.0
C2317 C 0.66763 0.29354 0.70456 0.0
C2318 C 0.65941 0.30629 0.72498 0.0
C2319 C 0.65532 0.26783 0.70073 0.0
C2320 C 0.69404 0.29763 0.70796 0.0
C2321 C 0.70341 0.30777 0.68996 0.0
C2322 C 0.72727 0.3135 0.68906 0.0
C2323 C 0.74203 0.30909 0.70706 0.0
C2324 C 0.73319 0.29906 0.72608 0.0
C2325 C 0.70867 0.29302 0.72628 0.0
H2326 H 0.00433 0.35446 0.00151 0.0
H2327 H 0.03185 0.36366 0.93614 0.0
H2328 H 0.03669 0.40435 0.94452 0.0
H2329 H 0.97381 0.39881 0.00241 0.0
H2330 H 0.98211 0.41024 0.0328 0.0
H2331 H 0.98022 0.38066 0.02282 0.0
H2332 H 0.02275 0.38646 0.04116 0.0
H2333 H 0.02466 0.41601 0.05136 0.0
H2334 H 0.04546 0.40883 0.03357 0.0
H2335 H 0.0375 0.44334 0.95693 0.0
H2336 H 0.03906 0.48154 0.97648 0.0
H2337 H 0.01362 0.45248 0.03609 0.0
C2338 C 0.01152 0.36507 0.9891 0.0
C2339 C 0.01711 0.35505 0.96774 0.0
C2340 C 0.02676 0.37007 0.95233 0.0
C2341 C 0.02971 0.39358 0.9569 0.0
C2342 C 0.02349 0.40274 0.97734 0.0
C2343 C 0.0151 0.38935 0.99361 0.0
C2344 C 0.01092 0.40486 0.01458 0.0
C2345 C 0.98523 0.39824 0.01838 0.0
C2346 C 0.02689 0.40398 0.03647 0.0
C2347 C 0.01775 0.42859 0.00696 0.0
C2348 C 0.02486 0.42651 0.98529 0.0
C2349 C 0.03218 0.44529 0.97402 0.0
C2350 C 0.03298 0.46702 0.9853 0.0
C2351 C 0.02654 0.47026 0.00782 0.0
C2352 C 0.01842 0.45062 0.01875 0.0
H2353 H 0.99082 0.78651 0.13414 0.0
H2354 H 0.04116 0.79815 0.19617 0.0
H2355 H 0.01008 0.79499 0.22036 0.0
H2356 H 0.95272 0.81898 0.1622 0.0
H2357 H 0.92598 0.79966 0.14726 0.0
H2358 H 0.95216 0.8038 0.13366 0.0
H2359 H 0.94775 0.76028 0.12833 0.0
H2360 H 0.92164 0.756 0.14199 0.0
H2361 H 0.94548 0.74558 0.15325 0.0
H2362 H 0.97534 0.78757 0.23832 0.0
H2363 H 0.93626 0.77944 0.25027 0.0
H2364 H 0.90567 0.77426 0.17883 0.0
C2365 C 0.99521 0.78887 0.15282 0.0
C2366 C 0.01858 0.79241 0.16316 0.0
C2367 C 0.02351 0.79516 0.18769 0.0
C2368 C 0.00594 0.79344 0.20173 0.0
C2369 C 0.98323 0.78928 0.19122 0.0
C2370 C 0.97756 0.78734 0.16746 0.0
C2371 C 0.95122 0.7827 0.16138 0.0
C2372 C 0.94516 0.80247 0.15047 0.0
C2373 C 0.94092 0.75977 0.14528 0.0
C2374 C 0.94336 0.7818 0.18539 0.0
C2375 C 0.96238 0.78566 0.20215 0.0
C2376 C 0.96024 0.78486 0.22549 0.0
C2377 C 0.93801 0.78017 0.23211 0.0
C2378 C 0.91811 0.77643 0.21557 0.0
C2379 C 0.92072 0.77735 0.19183 0.0
H2380 H 0.54157 0.31254 0.12632 0.0
H2381 H 0.53373 0.34829 0.19255 0.0
H2382 H 0.53924 0.38415 0.17599 0.0
H2383 H 0.5863 0.35982 0.11173 0.0
H2384 H 0.57536 0.35394 0.08121 0.0
H2385 H 0.57152 0.331 0.09832 0.0
H2386 H 0.52699 0.32019 0.08548 0.0
H2387 H 0.53073 0.34305 0.06831 0.0
H2388 H 0.51135 0.34166 0.09008 0.0
H2389 H 0.54474 0.41602 0.15231 0.0
H2390 H 0.54948 0.44179 0.1229 0.0
H2391 H 0.55324 0.38572 0.07149 0.0
C2392 C 0.54105 0.32793 0.13734 0.0
C2393 C 0.53714 0.32753 0.16077 0.0
C2394 C 0.53669 0.34809 0.17459 0.0
C2395 C 0.53984 0.3686 0.16534 0.0
C2396 C 0.54359 0.36841 0.14224 0.0
C2397 C 0.54429 0.34867 0.12839 0.0
C2398 C 0.54841 0.35325 0.10402 0.0
C2399 C 0.57179 0.34926 0.0985 0.0
C2400 C 0.52816 0.33867 0.08591 0.0
C2401 C 0.54923 0.37846 0.1062 0.0
C2402 C 0.54666 0.38688 0.12848 0.0
C2403 C 0.5467 0.4096 0.13478 0.0
C2404 C 0.54923 0.42409 0.11784 0.0
C2405 C 0.55152 0.41586 0.0947 0.0
C2406 C 0.55173 0.3927 0.08899 0.0
H2407 H 0.96649 0.29165 0.30559 0.0
H2408 H 0.98387 0.35106 0.35905 0.0
H2409 H 0.94284 0.35278 0.35418 0.0
H2410 H 0.92392 0.30772 0.26862 0.0
H2411 H 0.90422 0.2795 0.26155 0.0
H2412 H 0.93495 0.28285 0.26888 0.0
H2413 H 0.9266 0.25807 0.30151 0.0
H2414 H 0.89584 0.25453 0.29411 0.0
H2415 H 0.90964 0.26584 0.3234 0.0
H2416 H 0.90053 0.34995 0.34118 0.0
H2417 H 0.85875 0.3395 0.32516 0.0
H2418 H 0.8671 0.27931 0.28326 0.0
C2419 C 0.96152 0.30485 0.31637 0.0
C2420 C 0.97833 0.32129 0.33272 0.0
C2421 C 0.97123 0.33828 0.34655 0.0
C2422 C 0.94798 0.33944 0.34381 0.0
C2423 C 0.93181 0.32315 0.32746 0.0
C2424 C 0.93811 0.30584 0.31431 0.0
C2425 C 0.91699 0.29002 0.29861 0.0
C2426 C 0.92022 0.29003 0.27289 0.0
C2427 C 0.91198 0.26567 0.30478 0.0
C2428 C 0.89799 0.30131 0.30473 0.0
C2429 C 0.90704 0.32063 0.32114 0.0
C2430 C 0.89322 0.33466 0.32861 0.0
C2431 C 0.86953 0.32867 0.31935 0.0
C2432 C 0.85967 0.30853 0.30318 0.0
C2433 C 0.87414 0.29467 0.29584 0.0
H2434 H 0.02023 0.66156 0.66925 0.0
H2435 H 0.00493 0.70396 0.61866 0.0
H2436 H 0.00619 0.67389 0.587 0.0
H2437 H 0.06074 0.63983 0.63882 0.0
H2438 H 0.0521 0.61158 0.64663 0.0
H2439 H 0.04863 0.63575 0.66546 0.0
H2440 H 0.00477 0.6159 0.66373 0.0
H2441 H 0.00807 0.59162 0.6449 0.0
H2442 H 0.98688 0.60634 0.63593 0.0
H2443 H 0.01151 0.64066 0.56084 0.0
H2444 H 0.01976 0.60598 0.54159 0.0
H2445 H 0.03082 0.58357 0.60828 0.0
C2446 C 0.01677 0.66441 0.65151 0.0
C2447 C 0.01228 0.68524 0.64657 0.0
C2448 C 0.00827 0.68826 0.62304 0.0
C2449 C 0.00896 0.67122 0.60488 0.0
C2450 C 0.01366 0.6511 0.61037 0.0
C2451 C 0.01742 0.64752 0.63308 0.0
C2452 C 0.023 0.62463 0.63411 0.0
C2453 C 0.04758 0.62816 0.64702 0.0
C2454 C 0.00458 0.60868 0.64534 0.0
C2455 C 0.02177 0.61587 0.60841 0.0
C2456 C 0.01643 0.63157 0.59512 0.0
C2457 C 0.01544 0.62816 0.57107 0.0
C2458 C 0.0202 0.60838 0.56028 0.0
C2459 C 0.02571 0.59191 0.57334 0.0
C2460 C 0.02622 0.5956 0.59779 0.0
H2461 H 0.63678 0.80846 0.85902 0.0
H2462 H 0.59784 0.81467 0.79475 0.0
H2463 H 0.62974 0.80813 0.77337 0.0
H2464 H 0.6938 0.83609 0.84807 0.0
H2465 H 0.70777 0.81647 0.86038 0.0
H2466 H 0.68169 0.82109 0.87058 0.0
H2467 H 0.66199 0.77763 0.86122 0.0
H2468 H 0.68805 0.7729 0.85093 0.0
H2469 H 0.66059 0.76288 0.83232 0.0
H2470 H 0.66626 0.80032 0.7585 0.0
H2471 H 0.7046 0.79397 0.75212 0.0
H2472 H 0.72097 0.7941 0.82589 0.0
C2473 C 0.63496 0.80851 0.84046 0.0
C2474 C 0.61458 0.81222 0.82869 0.0
C2475 C 0.61304 0.81185 0.80429 0.0
C2476 C 0.63117 0.80812 0.79194 0.0
C2477 C 0.65092 0.80449 0.80401 0.0
C2478 C 0.65291 0.80459 0.82775 0.0
C2479 C 0.67589 0.79994 0.83646 0.0
C2480 C 0.69066 0.81958 0.85497 0.0
C2481 C 0.67136 0.77698 0.84579 0.0
C2482 C 0.68708 0.79851 0.81422 0.0
C2483 C 0.67208 0.80054 0.79556 0.0
C2484 C 0.67811 0.79882 0.77307 0.0
C2485 C 0.69996 0.79514 0.76956 0.0
C2486 C 0.716 0.79372 0.78844 0.0
C2487 C 0.70929 0.79541 0.81108 0.0
H2488 H 0.49654 0.53017 0.70121 0.0
H2489 H 0.42971 0.54459 0.68623 0.0
H2490 H 0.43782 0.54999 0.64652 0.0
H2491 H 0.52927 0.57001 0.66789 0.0
H2492 H 0.54588 0.551 0.65729 0.0
H2493 H 0.53524 0.54891 0.68488 0.0
H2494 H 0.51446 0.5061 0.67104 0.0
H2495 H 0.52505 0.50806 0.64341 0.0
H2496 H 0.49428 0.4979 0.64459 0.0
H2497 H 0.45253 0.55288 0.60788 0.0
H2498 H 0.473 0.55296 0.57319 0.0
H2499 H 0.53026 0.53657 0.61276 0.0
C2500 C 0.48372 0.53464 0.68961 0.0
C2501 C 0.46248 0.53703 0.69692 0.0
C2502 C 0.44605 0.54259 0.68107 0.0
C2503 C 0.45052 0.54575 0.65845 0.0
C2504 C 0.47146 0.54311 0.6517 0.0
C2505 C 0.48779 0.5376 0.66676 0.0
C2506 C 0.50851 0.53494 0.65474 0.0
C2507 C 0.53106 0.55226 0.66693 0.0
C2508 C 0.5107 0.51029 0.65337 0.0
C2509 C 0.50145 0.54025 0.6308 0.0
C2510 C 0.47994 0.54477 0.62937 0.0
C2511 C 0.46944 0.54944 0.60881 0.0
C2512 C 0.48117 0.54942 0.58916 0.0
C2513 C 0.50329 0.54492 0.59018 0.0
C2514 C 0.51349 0.54035 0.6114 0.0
H2515 H 0.81734 0.22224 -0.00229 0.0
H2516 H 0.75191 0.17327 0.00149 0.0
H2517 H 0.73154 0.19115 0.97364 0.0
H2518 H 0.79372 0.27119 0.98969 0.0
H2519 H 0.81255 0.2809 0.9687 0.0
H2520 H 0.82211 0.26599 0.9909 0.0
H2521 H 0.82981 0.23605 0.95946 0.0
H2522 H 0.8207 0.25116 0.9373 0.0
H2523 H 0.8068 0.22122 0.93642 0.0
H2524 H 0.71821 0.21296 0.94593 0.0
H2525 H 0.7132 0.23344 0.91299 0.0
H2526 H 0.78723 0.26716 0.92404 0.0
C2527 C 0.79876 0.21549 0.99258 0.0
C2528 C 0.78599 0.19658 0.00153 0.0
C2529 C 0.76179 0.18778 0.99453 0.0
C2530 C 0.75007 0.19794 0.97901 0.0
C2531 C 0.76292 0.21671 0.97055 0.0
C2532 C 0.78676 0.22515 0.97654 0.0
C2533 C 0.79646 0.24401 0.96283 0.0
C2534 C 0.80682 0.26688 0.979 0.0
C2535 C 0.8145 0.23772 0.94813 0.0
C2536 C 0.77439 0.24421 0.94782 0.0
C2537 C 0.75523 0.22883 0.95324 0.0
C2538 C 0.73298 0.2252 0.9415 0.0
C2539 C 0.73028 0.23699 0.92294 0.0
C2540 C 0.7498 0.25183 0.91617 0.0
C2541 C 0.77205 0.25593 0.92907 0.0
H2542 H 0.14669 0.57023 0.17862 0.0
H2543 H 0.16725 0.509 0.15616 0.0
H2544 H 0.14414 0.50482 0.11771 0.0
H2545 H 0.09231 0.55045 0.16018 0.0
H2546 H 0.08577 0.5751 0.14996 0.0
H2547 H 0.11007 0.57884 0.1719 0.0
H2548 H 0.13824 0.60112 0.14678 0.0
H2549 H 0.11385 0.59832 0.12492 0.0
H2550 H 0.13869 0.58882 0.1173 0.0
H2551 H 0.11166 0.50143 0.08718 0.0
H2552 H 0.07473 0.50163 0.06413 0.0
H2553 H 0.07351 0.56368 0.10776 0.0
C2554 C 0.14734 0.55681 0.16499 0.0
C2555 C 0.15887 0.54017 0.16973 0.0
C2556 C 0.15883 0.52213 0.15229 0.0
C2557 C 0.14576 0.51966 0.13053 0.0
C2558 C 0.13308 0.53546 0.12679 0.0
C2559 C 0.1342 0.55407 0.14335 0.0
C2560 C 0.11595 0.56622 0.13682 0.0
C2561 C 0.1001 0.5677 0.15584 0.0
C2562 C 0.12737 0.59003 0.13111 0.0
C2563 C 0.10302 0.55029 0.11526 0.0
C2564 C 0.11358 0.53308 0.10932 0.0
C2565 C 0.10361 0.51516 0.09124 0.0
C2566 C 0.08262 0.51521 0.07849 0.0
C2567 C 0.07166 0.53254 0.08466 0.0
C2568 C 0.08186 0.55029 0.10305 0.0
H2569 H 0.78781 0.8712 0.4429 0.0
H2570 H 0.79849 0.81636 0.47967 0.0
H2571 H 0.8025 0.79437 0.44241 0.0
H2572 H 0.75387 0.8362 0.39211 0.0
H2573 H 0.76637 0.85566 0.37315 0.0
H2574 H 0.76458 0.86639 0.40272 0.0
H2575 H 0.80915 0.88525 0.40911 0.0
H2576 H 0.8111 0.87431 0.37961 0.0
H2577 H 0.82879 0.86784 0.40326 0.0
H2578 H 0.80494 0.77843 0.39947 0.0
H2579 H 0.80344 0.77006 0.35657 0.0
H2580 H 0.79197 0.83652 0.35046 0.0
C2581 C 0.79097 0.85455 0.44332 0.0
C2582 C 0.79283 0.84555 0.46431 0.0
C2583 C 0.79696 0.82364 0.46382 0.0
C2584 C 0.79934 0.81108 0.44274 0.0
C2585 C 0.79763 0.8207 0.42238 0.0
C2586 C 0.79344 0.84196 0.42268 0.0
C2587 C 0.79197 0.84874 0.39877 0.0
C2588 C 0.76776 0.85193 0.39125 0.0
C2589 C 0.81141 0.87031 0.39763 0.0
C2590 C 0.79578 0.82795 0.38474 0.0
C2591 C 0.79914 0.81186 0.39844 0.0
C2592 C 0.80241 0.79102 0.38869 0.0
C2593 C 0.80169 0.78645 0.36435 0.0
C2594 C 0.79757 0.80261 0.35018 0.0
C2595 C 0.79507 0.82371 0.36074 0.0
H2596 H 0.48107 0.49618 0.84331 0.0
H2597 H 0.51038 0.56669 0.8349 0.0
H2598 H 0.52866 0.57525 0.87588 0.0
H2599 H 0.46648 0.51037 0.90068 0.0
H2600 H 0.47233 0.48561 0.91129 0.0
H2601 H 0.46311 0.48443 0.88083 0.0
H2602 H 0.4997 0.47199 0.87094 0.0
H2603 H 0.50914 0.4733 0.90139 0.0
H2604 H 0.52814 0.4895 0.88381 0.0
H2605 H 0.54377 0.57636 0.91696 0.0
H2606 H 0.55109 0.57182 0.95776 0.0
H2607 H 0.50975 0.50111 0.94197 0.0
C2608 C 0.49163 0.51332 0.8501 0.0
C2609 C 0.49477 0.53074 0.83588 0.0
C2610 C 0.50801 0.55312 0.84547 0.0
C2611 C 0.5185 0.55809 0.86867 0.0
C2612 C 0.51516 0.54059 0.88223 0.0
C2613 C 0.50171 0.51875 0.87352 0.0
C2614 C 0.49938 0.50372 0.89256 0.0
C2615 C 0.47381 0.49556 0.89658 0.0
C2616 C 0.50971 0.48342 0.88683 0.0
C2617 C 0.51389 0.52048 0.91325 0.0
C2618 C 0.52297 0.54154 0.90664 0.0
C2619 C 0.53667 0.56 0.92236 0.0
C2620 C 0.5407 0.55719 0.94559 0.0
C2621 C 0.53091 0.53612 0.95325 0.0
C2622 C 0.51768 0.51733 0.93668 0.0
H2623 H 0.79349 0.21369 0.11964 0.0
H2624 H 0.75622 0.15293 0.14536 0.0
H2625 H 0.74727 0.1771 0.17792 0.0
H2626 H 0.82103 0.24363 0.17234 0.0
H2627 H 0.81891 0.27132 0.16625 0.0
H2628 H 0.81904 0.24947 0.14285 0.0
H2629 H 0.77994 0.25369 0.12302 0.0
H2630 H 0.77958 0.27541 0.14666 0.0
H2631 H 0.75523 0.25044 0.13878 0.0
H2632 H 0.74501 0.20654 0.2088 0.0
H2633 H 0.75468 0.2398 0.23967 0.0
H2634 H 0.795 0.28138 0.19556 0.0
C2635 C 0.78321 0.20549 0.13197 0.0
C2636 C 0.77546 0.1815 0.12994 0.0
C2637 C 0.7623 0.17133 0.14655 0.0
C2638 C 0.75683 0.18488 0.16493 0.0
C2639 C 0.76453 0.20846 0.16629 0.0
C2640 C 0.77764 0.21874 0.15047 0.0
C2641 C 0.78612 0.24433 0.15755 0.0
C2642 C 0.81285 0.25265 0.15991 0.0
C2643 C 0.77452 0.2567 0.14048 0.0
C2644 C 0.77729 0.24654 0.18075 0.0
C2645 C 0.76402 0.22574 0.18491 0.0
C2646 C 0.75529 0.22294 0.20577 0.0
C2647 C 0.76122 0.24171 0.22332 0.0
C2648 C 0.77617 0.26253 0.21996 0.0
C2649 C 0.78347 0.26543 0.19823 0.0
H2650 H 0.12533 0.5826 0.29929 0.0
H2651 H 0.11184 0.50899 0.29396 0.0
H2652 H 0.10451 0.5113 0.33498 0.0
H2653 H 0.1556 0.59381 0.35956 0.0
H2654 H 0.14488 0.61831 0.36754 0.0
H2655 H 0.14983 0.6111 0.33803 0.0
H2656 H 0.10721 0.60975 0.32335 0.0
H2657 H 0.10222 0.61711 0.35274 0.0
H2658 H 0.08376 0.5916 0.33494 0.0
H2659 H 0.09722 0.52114 0.37491 0.0
H2660 H 0.08801 0.53758 0.41207 0.0
H2661 H 0.10734 0.60539 0.39251 0.0
C2662 C 0.12036 0.567 0.30678 0.0
C2663 C 0.11821 0.54548 0.29363 0.0
C2664 C 0.11283 0.52544 0.30389 0.0
C2665 C 0.10898 0.52667 0.3271 0.0
C2666 C 0.11135 0.54815 0.33975 0.0
C2667 C 0.11704 0.568 0.33009 0.0
C2668 C 0.11849 0.58885 0.34765 0.0
C2669 C 0.1437 0.6039 0.35354 0.0
C2670 C 0.10191 0.60262 0.33916 0.0
C2671 C 0.11075 0.57735 0.36807 0.0
C2672 C 0.10757 0.55396 0.3633 0.0
C2673 C 0.09993 0.53943 0.37904 0.0
C2674 C 0.09486 0.54895 0.40011 0.0
C2675 C 0.09723 0.57274 0.40512 0.0
C2676 C 0.10556 0.58718 0.38904 0.0
H2677 H 0.77481 0.81998 0.60267 0.0
H2678 H 0.81577 0.88992 0.62682 0.0
H2679 H 0.81513 0.88303 0.66718 0.0
H2680 H 0.73852 0.81614 0.64814 0.0
H2681 H 0.73791 0.787 0.65111 0.0
H2682 H 0.74167 0.79682 0.62359 0.0
H2683 H 0.77973 0.78417 0.62294 0.0
H2684 H 0.77597 0.77411 0.65034 0.0
H2685 H 0.80257 0.79456 0.64718 0.0
H2686 H 0.80815 0.87029 0.70465 0.0
H2687 H 0.79923 0.85048 0.73809 0.0
H2688 H 0.76476 0.78766 0.6913 0.0
C2689 C 0.78382 0.83373 0.61646 0.0
C2690 C 0.79527 0.85555 0.61148 0.0
C2691 C 0.80681 0.8731 0.63007 0.0
C2692 C 0.80652 0.8694 0.65314 0.0
C2693 C 0.79474 0.84798 0.6575 0.0
C2694 C 0.78387 0.83028 0.63981 0.0
C2695 C 0.77265 0.8089 0.64969 0.0
C2696 C 0.74611 0.8018 0.64271 0.0
C2697 C 0.78338 0.78928 0.64209 0.0
C2698 C 0.77904 0.81749 0.67561 0.0
C2699 C 0.79146 0.84022 0.67956 0.0
C2700 C 0.79859 0.85243 0.70185 0.0
C2701 C 0.79326 0.84106 0.72074 0.0
C2702 C 0.78125 0.81758 0.71733 0.0
C2703 C 0.774 0.80563 0.69442 0.0
H2704 H 0.73232 0.47486 0.49425 0.0
H2705 H 0.70077 0.41463 0.52365 0.0
H2706 H 0.67397 0.43477 0.54095 0.0
H2707 H 0.73414 0.51463 0.53983 0.0
H2708 H 0.72645 0.53575 0.52393 0.0
H2709 H 0.74033 0.51567 0.5104 0.0
H2710 H 0.70647 0.50192 0.47648 0.0
H2711 H 0.69272 0.52256 0.48934 0.0
H2712 H 0.67697 0.49279 0.48268 0.0
H2713 H 0.65543 0.4634 0.55978 0.0
H2714 H 0.64133 0.49672 0.57366 0.0
H2715 H 0.68557 0.53778 0.53162 0.0
C2716 C 0.71922 0.46574 0.5037 0.0
C2717 C 0.71837 0.44341 0.5078 0.0
C2718 C 0.70129 0.43176 0.52025 0.0
C2719 C 0.68618 0.44308 0.53021 0.0
C2720 C 0.68829 0.46567 0.52694 0.0
C2721 C 0.7039 0.47662 0.5134 0.0
C2722 C 0.70349 0.50116 0.51337 0.0
C2723 C 0.72753 0.51776 0.52244 0.0
C2724 C 0.69436 0.50482 0.48902 0.0
C2725 C 0.68623 0.50271 0.53012 0.0
C2726 C 0.6775 0.48206 0.53763 0.0
C2727 C 0.66185 0.4796 0.5538 0.0
C2728 C 0.65427 0.49865 0.56185 0.0
C2729 C 0.6625 0.51972 0.55371 0.0
C2730 C 0.67895 0.5218 0.53799 0.0
H2731 H 0.18399 0.17158 0.50767 0.0
H2732 H 0.22652 0.12442 0.49517 0.0
H2733 H 0.19294 0.09202 0.49637 0.0
H2734 H 0.15248 0.14263 0.5481 0.0
H2735 H 0.12502 0.14768 0.53812 0.0
H2736 H 0.15185 0.16744 0.53451 0.0
H2737 H 0.13845 0.16229 0.49025 0.0
H2738 H 0.11152 0.14258 0.4938 0.0
H2739 H 0.12976 0.13397 0.47368 0.0
H2740 H 0.15587 0.06481 0.50029 0.0
H2741 H 0.11683 0.04406 0.50723 0.0
H2742 H 0.09778 0.10825 0.51812 0.0
C2743 C 0.18607 0.1544 0.50479 0.0
C2744 C 0.20786 0.15053 0.5012 0.0
C2745 C 0.21 0.12782 0.49789 0.0
C2746 C 0.19102 0.10926 0.49851 0.0
C2747 C 0.16993 0.11361 0.50243 0.0
C2748 C 0.16722 0.13554 0.50546 0.0
C2749 C 0.14273 0.13528 0.51031 0.0
C2750 C 0.14305 0.14907 0.53418 0.0
C2751 C 0.12985 0.14405 0.49085 0.0
C2752 C 0.13243 0.10988 0.51004 0.0
C2753 C 0.14839 0.09773 0.50516 0.0
C2754 C 0.14313 0.07408 0.50401 0.0
C2755 C 0.12089 0.06244 0.50795 0.0
C2756 C 0.10427 0.0745 0.51323 0.0
C2757 C 0.11016 0.09856 0.51424 0.0
H2758 H 0.18621 0.00283 0.80095 0.0
H2759 H 0.13088 0.97032 0.74447 0.0
H2760 H 0.14983 0.93924 0.73574 0.0
H2761 H 0.23346 0.98945 0.77505 0.0
H2762 H 0.24753 0.98336 0.8013 0.0
H2763 H 0.22978 0.00317 0.80294 0.0
H2764 H 0.20474 0.97938 0.82953 0.0
H2765 H 0.22245 0.95951 0.82803 0.0
H2766 H 0.19138 0.94936 0.8199 0.0
H2767 H 0.17589 0.91298 0.73181 0.0
H2768 H 0.20544 0.89122 0.73517 0.0
H2769 H 0.24234 0.93905 0.79605 0.0
C2770 C 0.17812 0.98913 0.78678 0.0
C2771 C 0.15718 0.98896 0.77327 0.0
C2772 C 0.14689 0.97065 0.75505 0.0
C2773 C 0.15756 0.95301 0.74992 0.0
C2774 C 0.17824 0.95367 0.76351 0.0
C2775 C 0.18822 0.97103 0.78182 0.0
C2776 C 0.21003 0.96718 0.79424 0.0
C2777 C 0.23146 0.98697 0.79331 0.0
C2778 C 0.20696 0.96364 0.81942 0.0
C2779 C 0.21109 0.94528 0.77968 0.0
C2780 C 0.19264 0.93786 0.76197 0.0
C2781 C 0.19028 0.91849 0.74574 0.0
C2782 C 0.20718 0.90631 0.74772 0.0
C2783 C 0.22605 0.9134 0.76592 0.0
C2784 C 0.22792 0.93309 0.78215 0.0
H2785 H 0.35748 0.95992 0.97213 0.0
H2786 H 0.33997 0.97581 0.04114 0.0
H2787 H 0.38186 0.99076 0.05633 0.0
H2788 H 0.41369 0.94441 0.99479 0.0
H2789 H 0.42777 0.95521 0.9711 0.0
H2790 H 0.39689 0.94186 0.96685 0.0
H2791 H 0.38987 0.97813 0.95214 0.0
H2792 H 0.42053 0.99193 0.95709 0.0
H2793 H 0.40062 0.00544 0.97063 0.0
H2794 H 0.42334 0.01017 0.06202 0.0
H2795 H 0.4642 0.02893 0.05977 0.0
H2796 H 0.4557 0.99891 0.98725 0.0
C2797 C 0.36269 0.96638 0.99046 0.0
C2798 C 0.34605 0.96767 0.00553 0.0
C2799 C 0.35288 0.97539 0.02948 0.0
C2800 C 0.37646 0.98359 0.03821 0.0
C2801 C 0.39261 0.98302 0.02274 0.0
C2802 C 0.38615 0.97395 -0.00047 0.0
C2803 C 0.40702 0.97649 0.9865 0.0
C2804 C 0.41161 0.9531 0.9794 0.0
C2805 C 0.40434 0.98875 0.96536 0.0
C2806 C 0.4257 0.99098 0.00535 0.0
C2807 C 0.41709 0.99381 0.02628 0.0
C2808 C 0.43049 0.00759 0.04595 0.0
C2809 C 0.45355 0.01834 0.04439 0.0
C2810 C 0.46288 0.01525 0.02328 0.0
C2811 C 0.4488 0.0016 0.00346 0.0
H2812 H 0.85927 0.57824 0.7707 0.0
H2813 H 0.84203 0.57401 0.84043 0.0
H2814 H 0.81464 0.59794 0.83422 0.0
H2815 H 0.85968 0.63517 0.76961 0.0
H2816 H 0.84679 0.63105 0.73973 0.0
H2817 H 0.86338 0.61223 0.74916 0.0
H2818 H 0.82825 0.5772 0.73386 0.0
H2819 H 0.81152 0.59593 0.72427 0.0
H2820 H 0.80046 0.57627 0.74363 0.0
H2821 H 0.79269 0.62471 0.82172 0.0
H2822 H 0.7762 0.65262 0.80347 0.0
H2823 H 0.80658 0.63794 0.74113 0.0
C2824 C 0.8495 0.58228 0.7845 0.0
C2825 C 0.85249 0.57474 0.80603 0.0
C2826 C 0.83969 0.57995 0.82389 0.0
C2827 C 0.82416 0.59333 0.82045 0.0
C2828 C 0.82163 0.60074 0.79897 0.0
C2829 C 0.83379 0.59526 0.78122 0.0
C2830 C 0.82865 0.60609 0.76015 0.0
C2831 C 0.85095 0.62209 0.75434 0.0
C2832 C 0.81649 0.58778 0.73925 0.0
C2833 C 0.81226 0.61921 0.7691 0.0
C2834 C 0.80832 0.61571 0.79146 0.0
C2835 C 0.79516 0.62723 0.80408 0.0
C2836 C 0.78591 0.64295 0.79364 0.0
C2837 C 0.78988 0.64679 0.77091 0.0
C2838 C 0.80289 0.63464 0.75832 0.0
H2839 H 0.82042 0.63226 0.00998 0.0
H2840 H 0.85414 0.69669 0.05393 0.0
H2841 H 0.8904 0.68415 0.06012 0.0
H2842 H 0.84287 0.59726 0.04159 0.0
H2843 H 0.84679 0.57823 0.01719 0.0
H2844 H 0.82482 0.59341 0.01411 0.0
H2845 H 0.8427 0.61072 0.97967 0.0
H2846 H 0.86464 0.59534 0.98241 0.0
H2847 H 0.8731 0.62592 0.98338 0.0
H2848 H 0.92083 0.66206 0.06535 0.0
H2849 H 0.94418 0.63393 0.06645 0.0
H2850 H 0.89039 0.58475 0.01768 0.0
C2851 C 0.83572 0.64394 0.02033 0.0
C2852 C 0.83483 0.66546 0.0313 0.0
C2853 C 0.85483 0.68029 0.04509 0.0
C2854 C 0.87536 0.67325 0.04875 0.0
C2855 C 0.87552 0.65158 0.03809 0.0
C2856 C 0.85633 0.63737 0.02375 0.0
C2857 C 0.86047 0.6146 0.01504 0.0
C2858 C 0.84269 0.59472 0.02244 0.0
C2859 C 0.86022 0.61147 0.98855 0.0
C2860 C 0.88465 0.61775 0.02747 0.0
C2861 C 0.89314 0.6392 0.04061 0.0
C2862 C 0.91453 0.64539 0.05478 0.0
C2863 C 0.92758 0.62927 0.05542 0.0
C2864 C 0.91918 0.60726 0.04196 0.0
C2865 C 0.89751 0.60161 0.02773 0.0
H2866 H 0.18607 0.11499 0.77356 0.0
H2867 H 0.1442 0.13958 0.82184 0.0
H2868 H 0.17221 0.17773 0.82867 0.0
H2869 H 0.24399 0.15 0.80258 0.0
H2870 H 0.25468 0.15558 0.77557 0.0
H2871 H 0.23317 0.1293 0.77667 0.0
H2872 H 0.20604 0.13811 0.74381 0.0
H2873 H 0.22745 0.16436 0.7426 0.0
H2874 H 0.19827 0.16487 0.74727 0.0
H2875 H 0.2023 0.21348 0.82816 0.0
H2876 H 0.23198 0.24587 0.81866 0.0
H2877 H 0.25441 0.19951 0.76962 0.0
C2878 C 0.18321 0.12832 0.78598 0.0
C2879 C 0.16322 0.12437 0.79749 0.0
C2880 C 0.15951 0.14232 0.81301 0.0
C2881 C 0.17536 0.16398 0.81707 0.0
C2882 C 0.19471 0.1675 0.80524 0.0
C2883 C 0.19868 0.15029 0.78986 0.0
C2884 C 0.21956 0.15941 0.77767 0.0
C2885 C 0.23901 0.14788 0.78348 0.0
C2886 C 0.21239 0.15652 0.75128 0.0
C2887 C 0.22655 0.18443 0.78847 0.0
C2888 C 0.21206 0.18855 0.80454 0.0
C2889 C 0.21398 0.21044 0.8159 0.0
C2890 C 0.23086 0.22869 0.81044 0.0
C2891 C 0.24561 0.22499 0.79382 0.0
C2892 C 0.2437 0.20258 0.78288 0.0
H2893 H 0.37334 0.95123 0.27952 0.0
H2894 H 0.40644 0.95712 0.34995 0.0
H2895 H 0.38043 0.91939 0.35367 0.0
H2896 H 0.31766 0.93031 0.29002 0.0
H2897 H 0.30752 0.91091 0.26315 0.0
H2898 H 0.33115 0.93605 0.26439 0.0
H2899 H 0.35773 0.91132 0.24952 0.0
H2900 H 0.33386 0.88615 0.24742 0.0
H2901 H 0.36131 0.88788 0.26418 0.0
H2902 H 0.34788 0.88331 0.35054 0.0
H2903 H 0.31434 0.84919 0.33933 0.0
H2904 H 0.30207 0.86964 0.27175 0.0
C2905 C 0.37561 0.94404 0.29535 0.0
C2906 C 0.39187 0.95634 0.31432 0.0
C2907 C 0.39421 0.94728 0.33518 0.0
C2908 C 0.37948 0.9261 0.33743 0.0
C2909 C 0.36276 0.91471 0.31864 0.0
C2910 C 0.36107 0.92319 0.29785 0.0
C2911 C 0.34069 0.90871 0.28087 0.0
C2912 C 0.32324 0.92233 0.27424 0.0
C2913 C 0.34889 0.89787 0.25923 0.0
C2914 C 0.33076 0.8911 0.29555 0.0
C2915 C 0.3437 0.89463 0.31719 0.0
C2916 C 0.33766 0.88029 0.33361 0.0
C2917 C 0.31843 0.86122 0.32723 0.0
C2918 C 0.30572 0.85699 0.30471 0.0
C2919 C 0.3115 0.87256 0.2891 0.0
H2920 H 0.55116 0.38806 0.59993 0.0
H2921 H 0.5897 0.3678 0.5459 0.0
H2922 H 0.58824 0.40249 0.52867 0.0
H2923 H 0.51266 0.41042 0.56245 0.0
H2924 H 0.51195 0.43364 0.58428 0.0
H2925 H 0.51652 0.40756 0.59277 0.0
H2926 H 0.55465 0.43061 0.61875 0.0
H2927 H 0.55022 0.45675 0.61028 0.0
H2928 H 0.57693 0.4492 0.60619 0.0
H2929 H 0.58471 0.44148 0.5184 0.0
H2930 H 0.57554 0.47821 0.51369 0.0
H2931 H 0.53601 0.47208 0.57173 0.0
C2932 C 0.55931 0.39088 0.58446 0.0
C2933 C 0.57076 0.37492 0.57449 0.0
C2934 C 0.58089 0.37948 0.55406 0.0
C2935 C 0.58019 0.39931 0.54412 0.0
C2936 C 0.56898 0.41468 0.55443 0.0
C2937 C 0.55839 0.41052 0.57398 0.0
C2938 C 0.54684 0.42947 0.5812 0.0
C2939 C 0.52042 0.41969 0.5801 0.0
C2940 C 0.55781 0.44226 0.60555 0.0
C2941 C 0.55256 0.44494 0.56274 0.0
C2942 C 0.56573 0.43628 0.54769 0.0
C2943 C 0.57418 0.44816 0.52998 0.0
C2944 C 0.56897 0.46915 0.52746 0.0
C2945 C 0.55493 0.47815 0.54215 0.0
C2946 C 0.54659 0.46565 0.56 0.0
H2947 H 0.4129 0.78338 0.41722 0.0
H2948 H 0.44788 0.75716 0.36302 0.0
H2949 H 0.41457 0.75505 0.33398 0.0
H2950 H 0.35147 0.74754 0.38931 0.0
H2951 H 0.33854 0.77018 0.39857 0.0
H2952 H 0.36367 0.76677 0.41596 0.0
H2953 H 0.385 0.80885 0.41424 0.0
H2954 H 0.36004 0.81206 0.39649 0.0
H2955 H 0.38811 0.81819 0.38639 0.0
H2956 H 0.38143 0.76112 0.30992 0.0
H2957 H 0.34685 0.77055 0.29196 0.0
H2958 H 0.32941 0.79061 0.36015 0.0
C2959 C 0.41297 0.77614 0.39942 0.0
C2960 C 0.43293 0.76978 0.39256 0.0
C2961 C 0.43269 0.76149 0.36885 0.0
C2962 C 0.41386 0.76041 0.35213 0.0
C2963 C 0.39486 0.76737 0.35918 0.0
C2964 C 0.3938 0.77452 0.38227 0.0
C2965 C 0.37125 0.78168 0.3845 0.0
C2966 C 0.3553 0.76558 0.39789 0.0
C2967 C 0.37642 0.80669 0.39609 0.0
C2968 C 0.36065 0.77857 0.35903 0.0
C2969 C 0.37473 0.77016 0.34491 0.0
C2970 C 0.36995 0.76713 0.32081 0.0
C2971 C 0.35023 0.7726 0.31073 0.0
C2972 C 0.33511 0.7809 0.32451 0.0
C2973 C 0.3403 0.78377 0.34912 0.0
H2974 H 0.06215 0.7247 0.049 0.0
H2975 H 0.06589 0.7268 0.12397 0.0
H2976 H 0.06343 0.68648 0.11976 0.0
H2977 H 0.01984 0.66659 0.03612 0.0
H2978 H 0.03231 0.6571 0.01121 0.0
H2979 H 0.03405 0.68702 0.01886 0.0
H2980 H 0.07878 0.69674 0.02035 0.0
H2981 H 0.07715 0.66683 0.0129 0.0
H2982 H 0.09528 0.68319 0.03886 0.0
H2983 H 0.06139 0.64682 0.10987 0.0
H2984 H 0.05711 0.6069 0.09297 0.0
H2985 H 0.05406 0.62583 0.0239 0.0
C2986 C 0.06218 0.71658 0.06442 0.0
C2987 C 0.06463 0.72963 0.08692 0.0
C2988 C 0.06449 0.71791 0.10651 0.0
C2989 C 0.06303 0.69469 0.10441 0.0
C2990 C 0.06129 0.68255 0.08251 0.0
C2991 C 0.06045 0.69267 0.06267 0.0
C2992 C 0.05793 0.67446 0.04139 0.0
C2993 C 0.03465 0.6711 0.02598 0.0
C2994 C 0.07852 0.68068 0.02756 0.0
C2995 C 0.05815 0.65316 0.05275 0.0
C2996 C 0.05996 0.65855 0.07653 0.0
C2997 C 0.05994 0.64227 0.09125 0.0
C2998 C 0.05755 0.61961 0.08152 0.0
C2999 C 0.0555 0.61325 0.05726 0.0
C3000 C 0.05604 0.63032 0.04259 0.0
H3001 H 0.06143 0.25303 0.89783 0.0
H3002 H 0.07707 0.31949 0.94059 0.0
H3003 H 0.11093 0.33325 0.9203 0.0
H3004 H 0.12282 0.25284 0.89781 0.0
H3005 H 0.11814 0.23792 0.86852 0.0
H3006 H 0.095 0.2332 0.88632 0.0
H3007 H 0.06803 0.24417 0.85488 0.0
H3008 H 0.09107 0.24895 0.83701 0.0
H3009 H 0.07736 0.27137 0.84491 0.0
H3010 H 0.14178 0.34047 0.89424 0.0
H3011 H 0.16944 0.34006 0.86577 0.0
H3012 H 0.13574 0.26835 0.84097 0.0
C3013 C 0.07208 0.27044 0.9029 0.0
C3014 C 0.06664 0.28523 0.92075 0.0
C3015 C 0.08103 0.30784 0.9271 0.0
C3016 C 0.10025 0.31583 0.91561 0.0
C3017 C 0.10518 0.30087 0.89811 0.0
C3018 C 0.09176 0.27855 0.89198 0.0
C3019 C 0.10143 0.26589 0.87303 0.0
C3020 C 0.10985 0.2463 0.88195 0.0
C3021 C 0.08339 0.25709 0.85116 0.0
C3022 C 0.1218 0.28482 0.86886 0.0
C3023 C 0.12363 0.30483 0.88359 0.0
C3024 C 0.14063 0.32486 0.88272 0.0
C3025 C 0.15618 0.32449 0.86638 0.0
C3026 C 0.15478 0.30421 0.85108 0.0
C3027 C 0.13742 0.28406 0.85256 0.0
H3028 H 0.53904 0.73568 0.88784 0.0
H3029 H 0.54723 0.79236 0.94322 0.0
H3030 H 0.54021 0.76546 0.97135 0.0
H3031 H 0.49366 0.69481 0.90965 0.0
H3032 H 0.50505 0.67073 0.90168 0.0
H3033 H 0.50977 0.69418 0.88525 0.0
H3034 H 0.55419 0.69914 0.89245 0.0
H3035 H 0.5496 0.67571 0.90892 0.0
H3036 H 0.56856 0.70322 0.92179 0.0
H3037 H 0.53233 0.73345 0.99361 0.0
H3038 H 0.52565 0.69736 0.00968 0.0
H3039 H 0.52392 0.66021 0.94117 0.0
C3040 C 0.53926 0.74236 0.90588 0.0
C3041 C 0.54369 0.76621 0.91332 0.0
C3042 C 0.54401 0.77426 0.93709 0.0
C3043 C 0.53994 0.75909 0.95323 0.0
C3044 C 0.53578 0.73582 0.94546 0.0
C3045 C 0.53552 0.72736 0.92243 0.0
C3046 C 0.53137 0.70148 0.91915 0.0
C3047 C 0.50861 0.68961 0.90297 0.0
C3048 C 0.55218 0.69448 0.91004 0.0
C3049 C 0.52944 0.69689 0.94396 0.0
C3050 C 0.53182 0.71704 0.95868 0.0
C3051 C 0.53044 0.71754 0.9823 0.0
C3052 C 0.52654 0.69692 0.99125 0.0
C3053 C 0.52416 0.67596 0.97673 0.0
C3054 C 0.52579 0.67599 0.95272 0.0
H3055 H 0.09982 0.73446 0.71676 0.0
H3056 H 0.09413 0.80304 0.73798 0.0
H3057 H 0.13643 0.81572 0.75198 0.0
H3058 H 0.14304 0.73583 0.76764 0.0
H3059 H 0.15806 0.71869 0.75103 0.0
H3060 H 0.12731 0.71498 0.74319 0.0
H3061 H 0.13445 0.72224 0.70157 0.0
H3062 H 0.16521 0.7262 0.7093 0.0
H3063 H 0.15479 0.74826 0.69748 0.0
H3064 H 0.17983 0.82183 0.75963 0.0
H3065 H 0.22063 0.82015 0.76589 0.0
H3066 H 0.19863 0.74674 0.74396 0.0
C3067 C 0.10748 0.75203 0.72476 0.0
C3068 C 0.0937 0.7678 0.72644 0.0
C3069 C 0.1043 0.79067 0.73684 0.0
C3070 C 0.12834 0.79802 0.74469 0.0
C3071 C 0.14152 0.78218 0.74256 0.0
C3072 C 0.1314 0.75951 0.73341 0.0
C3073 C 0.14954 0.74592 0.73372 0.0
C3074 C 0.14416 0.72778 0.74986 0.0
C3075 C 0.15108 0.73502 0.70905 0.0
C3076 C 0.17158 0.76465 0.74365 0.0
C3077 C 0.16648 0.78545 0.74843 0.0
C3078 C 0.18394 0.80557 0.75635 0.0
C3079 C 0.20714 0.80445 0.75973 0.0
C3080 C 0.21291 0.78333 0.7556 0.0
C3081 C 0.19477 0.7631 0.74758 0.0
H3082 H 0.04328 0.38106 0.42815 0.0
H3083 H 0.07922 0.41779 0.3777 0.0
H3084 H 0.07839 0.45431 0.40009 0.0
H3085 H 0.00554 0.41829 0.43739 0.0
H3086 H 0.00578 0.4168 0.46796 0.0
H3087 H 0.00969 0.39319 0.44859 0.0
H3088 H 0.04856 0.39542 0.47361 0.0
H3089 H 0.04466 0.41892 0.49313 0.0
H3090 H 0.07091 0.42212 0.47975 0.0
H3091 H 0.07201 0.48687 0.42634 0.0
H3092 H 0.06286 0.51378 0.45669 0.0
H3093 H 0.03223 0.4572 0.49169 0.0
C3094 C 0.05128 0.39681 0.42203 0.0
C3095 C 0.06144 0.39644 0.40111 0.0
C3096 C 0.07131 0.41749 0.39356 0.0
C3097 C 0.07092 0.4384 0.40617 0.0
C3098 C 0.06047 0.43818 0.42639 0.0
C3099 C 0.05091 0.418 0.43442 0.0
C3100 C 0.04022 0.4228 0.45643 0.0
C3101 C 0.01374 0.41213 0.45235 0.0
C3102 C 0.05179 0.41431 0.47695 0.0
C3103 C 0.04593 0.4488 0.45983 0.0
C3104 C 0.05723 0.45721 0.44199 0.0
C3105 C 0.06337 0.4805 0.44052 0.0
C3106 C 0.05802 0.49566 0.4578 0.0
C3107 C 0.04704 0.48764 0.47664 0.0
C3108 C 0.04096 0.46385 0.47766 0.0
H3109 H 0.46246 0.28958 0.2466 0.0
H3110 H 0.43653 0.22134 0.20743 0.0
H3111 H 0.39654 0.22146 0.21409 0.0
H3112 H 0.42271 0.27974 0.29026 0.0
H3113 H 0.41844 0.30805 0.29342 0.0
H3114 H 0.4453 0.30357 0.28502 0.0
H3115 H 0.43949 0.3223 0.24844 0.0
H3116 H 0.41264 0.3269 0.25677 0.0
H3117 H 0.41285 0.3114 0.22859 0.0
H3118 H 0.35968 0.22802 0.22461 0.0
H3119 H 0.32703 0.2402 0.23862 0.0
H3120 H 0.37425 0.30446 0.27329 0.0
C3121 C 0.44827 0.27482 0.23924 0.0
C3122 C 0.4527 0.25545 0.22612 0.0
C3123 C 0.43366 0.23634 0.2173 0.0
C3124 C 0.41083 0.23626 0.22105 0.0
C3125 C 0.407 0.25533 0.23408 0.0
C3126 C 0.42507 0.27427 0.24324 0.0
C3127 C 0.41566 0.29202 0.25736 0.0
C3128 C 0.42616 0.29609 0.28304 0.0
C3129 C 0.42045 0.31449 0.24717 0.0
C3130 C 0.38952 0.28018 0.25427 0.0
C3131 C 0.38522 0.25901 0.24076 0.0
C3132 C 0.36284 0.24458 0.23517 0.0
C3133 C 0.34425 0.25181 0.2433 0.0
C3134 C 0.3476 0.27347 0.25712 0.0
C3135 C 0.37083 0.28781 0.26285 0.0
H3136 H 0.57669 0.51885 0.35485 0.0
H3137 H 0.60594 0.59231 0.36356 0.0
H3138 H 0.60147 0.59519 0.40506 0.0
H3139 H 0.53299 0.52093 0.39246 0.0
H3140 H 0.53472 0.49562 0.40469 0.0
H3141 H 0.54189 0.49851 0.37585 0.0
H3142 H 0.5823 0.4922 0.38768 0.0
H3143 H 0.57524 0.48925 0.41657 0.0
H3144 H 0.60107 0.51021 0.41245 0.0
H3145 H 0.59424 0.59099 0.44467 0.0
H3146 H 0.58168 0.58064 0.48122 0.0
H3147 H 0.55363 0.50979 0.44875 0.0
C3148 C 0.58244 0.53541 0.36569 0.0
C3149 C 0.59199 0.5554 0.35612 0.0
C3150 C 0.59877 0.57685 0.37061 0.0
C3151 C 0.59633 0.57864 0.3942 0.0
C3152 C 0.58673 0.55883 0.40314 0.0
C3153 C 0.57963 0.53761 0.38948 0.0
C3154 C 0.56854 0.51945 0.40369 0.0
C3155 C 0.54301 0.50795 0.39357 0.0
C3156 C 0.58263 0.50172 0.40519 0.0
C3157 C 0.5704 0.53393 0.42731 0.0
C3158 C 0.58137 0.55651 0.42641 0.0
C3159 C 0.58566 0.57337 0.44566 0.0
C3160 C 0.5785 0.5672 0.46648 0.0
C3161 C 0.56675 0.54432 0.46813 0.0
C3162 C 0.56259 0.5274 0.44814 0.0
H3163 H 0.25883 0.85933 0.05591 0.0
H3164 H 0.32081 0.91577 0.06173 0.0
H3165 H 0.34065 0.89909 0.09113 0.0
H3166 H 0.2618 0.85762 0.11635 0.0
H3167 H 0.25111 0.82696 0.11343 0.0
H3168 H 0.24275 0.84178 0.09069 0.0
H3169 H 0.25825 0.81612 0.06111 0.0
H3170 H 0.26701 0.80141 0.08387 0.0
H3171 H 0.28799 0.81468 0.06626 0.0
H3172 H 0.35372 0.87745 0.11931 0.0
H3173 H 0.35702 0.85604 0.15196 0.0
H3174 H 0.28568 0.81542 0.13128 0.0
C3175 C 0.27656 0.86804 0.06347 0.0
C3176 C 0.28842 0.88869 0.05678 0.0
C3177 C 0.31147 0.89998 0.06697 0.0
C3178 C 0.32299 0.89049 0.08334 0.0
C3179 C 0.31101 0.86995 0.08944 0.0
C3180 C 0.28814 0.85912 0.08038 0.0
C3181 C 0.27856 0.83872 0.09212 0.0
C3182 C 0.25732 0.84145 0.10385 0.0
C3183 C 0.27261 0.81641 0.07481 0.0
C3184 C 0.29945 0.84039 0.10972 0.0
C3185 C 0.3182 0.85799 0.10712 0.0
C3186 C 0.33929 0.86351 0.12157 0.0
C3187 C 0.34105 0.85126 0.13992 0.0
C3188 C 0.32165 0.8342 0.14378 0.0
C3189 C 0.30075 0.82831 0.12831 0.0
H3190 H 0.95771 0.50071 0.87155 0.0
H3191 H 0.92539 0.55636 0.88398 0.0
H3192 H 0.93705 0.55966 0.92595 0.0
H3193 H 0.94672 0.47956 0.9318 0.0
H3194 H 0.97394 0.47194 0.93336 0.0
H3195 H 0.95625 0.46841 0.90568 0.0
H3196 H 0.9915 0.49304 0.8899 0.0
H3197 H 0.00906 0.49701 0.91743 0.0
H3198 H 0.00551 0.5216 0.90474 0.0
H3199 H 0.95977 0.56379 0.96343 0.0
H3200 H 0.99234 0.56856 0.9942 0.0
H3201 H 0.01135 0.51108 0.958 0.0
C3202 C 0.95259 0.51314 0.88324 0.0
C3203 C 0.94107 0.52851 0.8747 0.0
C3204 C 0.93438 0.54449 0.89028 0.0
C3205 C 0.94062 0.54628 0.91415 0.0
C3206 C 0.95298 0.53158 0.92205 0.0
C3207 C 0.9585 0.51495 0.90713 0.0
C3208 C 0.97501 0.50386 0.9196 0.0
C3209 C 0.96222 0.4795 0.9228 0.0
C3210 C 0.99655 0.50394 0.90718 0.0
C3211 C 0.98098 0.51954 0.94256 0.0
C3212 C 0.96689 0.53435 0.94415 0.0
C3213 C 0.97047 0.55192 0.96269 0.0
C3214 C 0.98917 0.55467 0.97989 0.0
C3215 C 0.0043 0.54032 0.97798 0.0
C3216 C 0.99995 0.52228 0.95947 0.0
H3217 H 0.27739 0.20902 0.6123 0.0
H3218 H 0.26953 0.26583 0.57743 0.0
H3219 H 0.26949 0.28858 0.61575 0.0
H3220 H 0.24008 0.21458 0.65373 0.0
H3221 H 0.2576 0.20665 0.6765 0.0
H3222 H 0.25823 0.19593 0.64663 0.0
H3223 H 0.30311 0.21261 0.65183 0.0
H3224 H 0.30265 0.22311 0.68182 0.0
H3225 H 0.31554 0.24251 0.66297 0.0
H3226 H 0.26783 0.3038 0.65939 0.0
H3227 H 0.26829 0.31054 0.70225 0.0
H3228 H 0.27759 0.24292 0.70598 0.0
C3229 C 0.27574 0.2263 0.61256 0.0
C3230 C 0.27322 0.23557 0.59181 0.0
C3231 C 0.27148 0.25837 0.59312 0.0
C3232 C 0.27134 0.27134 0.6148 0.0
C3233 C 0.27322 0.26128 0.6349 0.0
C3234 C 0.27572 0.23933 0.63378 0.0
C3235 C 0.27734 0.23194 0.65741 0.0
C3236 C 0.25711 0.21105 0.65863 0.0
C3237 C 0.30107 0.22728 0.66388 0.0
C3238 C 0.2751 0.25301 0.67224 0.0
C3239 C 0.27266 0.26987 0.6592 0.0
C3240 C 0.26987 0.29067 0.66965 0.0
C3241 C 0.26997 0.29431 0.69396 0.0
C3242 C 0.273 0.27727 0.70746 0.0
C3243 C 0.27539 0.25639 0.69625 0.0
H3244 H 0.59646 0.5195 0.19574 0.0
H3245 H 0.56436 0.56854 0.22943 0.0
H3246 H 0.54701 0.57392 0.19095 0.0
H3247 H 0.61117 0.54546 0.14784 0.0
H3248 H 0.60343 0.51964 0.12698 0.0
H3249 H 0.61201 0.51853 0.15705 0.0
H3250 H 0.5733 0.48811 0.15795 0.0
H3251 H 0.56468 0.489 0.12777 0.0
H3252 H 0.54605 0.49412 0.14902 0.0
H3253 H 0.53594 0.57608 0.14842 0.0
H3254 H 0.52945 0.57278 0.10563 0.0
H3255 H 0.5674 0.52086 0.09998 0.0
C3256 C 0.58542 0.53106 0.19495 0.0
C3257 C 0.58161 0.54359 0.21543 0.0
C3258 C 0.56717 0.5586 0.21388 0.0
C3259 C 0.55737 0.56181 0.19212 0.0
C3260 C 0.56171 0.54943 0.17216 0.0
C3261 C 0.57497 0.53395 0.17343 0.0
C3262 C 0.57686 0.52266 0.14943 0.0
C3263 C 0.60239 0.52684 0.14508 0.0
C3264 C 0.56449 0.49695 0.14584 0.0
C3265 C 0.5638 0.53514 0.13443 0.0
C3266 C 0.55493 0.55031 0.14783 0.0
C3267 C 0.54257 0.56404 0.13778 0.0
C3268 C 0.539 0.56207 0.11343 0.0
C3269 C 0.54792 0.54659 0.09935 0.0
C3270 C 0.56043 0.53297 0.11016 0.0
H3271 H 0.28765 0.90397 0.90074 0.0
H3272 H 0.30903 0.86924 0.9559 0.0
H3273 H 0.31897 0.84154 0.92708 0.0
H3274 H 0.25614 0.85853 0.86979 0.0
H3275 H 0.26056 0.86489 0.84119 0.0
H3276 H 0.26443 0.88778 0.86456 0.0
H3277 H 0.30638 0.90592 0.85828 0.0
H3278 H 0.30427 0.88407 0.83394 0.0
H3279 H 0.32729 0.88922 0.85767 0.0
H3280 H 0.31745 0.81288 0.89239 0.0
H3281 H 0.30383 0.78611 0.85529 0.0
H3282 H 0.27939 0.83867 0.82509 0.0
C3283 C 0.29535 0.89111 0.90681 0.0
C3284 C 0.29738 0.88845 0.93025 0.0
C3285 C 0.30709 0.87126 0.93774 0.0
C3286 C 0.31311 0.85568 0.92158 0.0
C3287 C 0.30932 0.85773 0.8982 0.0
C3288 C 0.30081 0.87523 0.89091 0.0
C3289 C 0.29297 0.87098 0.86525 0.0
C3290 C 0.26704 0.87052 0.8599 0.0
C3291 C 0.30865 0.88859 0.85307 0.0
C3292 C 0.29678 0.84769 0.85953 0.0
C3293 C 0.30709 0.84057 0.87835 0.0
C3294 C 0.30989 0.81847 0.87734 0.0
C3295 C 0.30186 0.80333 0.85643 0.0
C3296 C 0.29057 0.81039 0.83744 0.0
C3297 C 0.28828 0.83283 0.83913 0.0
H3298 H 0.92999 0.50155 0.74354 0.0
H3299 H 0.91771 0.5657 0.72902 0.0
H3300 H 0.9274 0.55805 0.68913 0.0
H3301 H 0.97854 0.50366 0.71359 0.0
H3302 H 0.97064 0.47351 0.70256 0.0
H3303 H 0.96135 0.48347 0.72926 0.0
H3304 H 0.91847 0.46302 0.71249 0.0
H3305 H 0.9276 0.45314 0.68559 0.0
H3306 H 0.90627 0.46935 0.68546 0.0
H3307 H 0.93975 0.54443 0.65232 0.0
H3308 H 0.95746 0.52738 0.62105 0.0
H3309 H 0.96132 0.47144 0.65911 0.0
C3310 C 0.92958 0.51397 0.73188 0.0
C3311 C 0.92367 0.53438 0.73898 0.0
C3312 C 0.92269 0.5502 0.72359 0.0
C3313 C 0.92787 0.54586 0.701 0.0
C3314 C 0.93356 0.52548 0.6943 0.0
C3315 C 0.93453 0.50981 0.70926 0.0
C3316 C 0.94207 0.48973 0.698 0.0
C3317 C 0.96449 0.48748 0.71166 0.0
C3318 C 0.92243 0.4675 0.69522 0.0
C3319 C 0.94623 0.49711 0.67471 0.0
C3320 C 0.94063 0.51749 0.6728 0.0
C3321 C 0.94389 0.52831 0.65339 0.0
C3322 C 0.95378 0.51838 0.63565 0.0
C3323 C 0.96046 0.49796 0.6376 0.0
C3324 C 0.95617 0.48696 0.65716 0.0
H3325 H 0.27183 0.2554 0.4474 0.0
H3326 H 0.31216 0.20549 0.44154 0.0
H3327 H 0.32002 0.21439 0.40283 0.0
H3328 H 0.24534 0.24329 0.38866 0.0
H3329 H 0.24644 0.27251 0.38559 0.0
H3330 H 0.24503 0.26349 0.41369 0.0
H3331 H 0.28259 0.2953 0.43041 0.0
H3332 H 0.28407 0.3045 0.40236 0.0
H3333 H 0.30852 0.29696 0.41672 0.0
H3334 H 0.32074 0.22566 0.36352 0.0
H3335 H 0.31623 0.24083 0.32659 0.0
H3336 H 0.27714 0.28488 0.35756 0.0
C3337 C 0.2826 0.24663 0.43811 0.0
C3338 C 0.29136 0.22971 0.44761 0.0
C3339 C 0.30519 0.21846 0.43472 0.0
C3340 C 0.3098 0.2234 0.41266 0.0
C3341 C 0.30061 0.23977 0.4036 0.0
C3342 C 0.28748 0.25141 0.41592 0.0
C3343 C 0.27915 0.2677 0.40164 0.0
C3344 C 0.2524 0.26136 0.39713 0.0
C3345 C 0.28919 0.2926 0.41349 0.0
C3346 C 0.28944 0.26313 0.37938 0.0
C3347 C 0.30166 0.24686 0.38092 0.0
C3348 C 0.31151 0.23867 0.36218 0.0
C3349 C 0.3088 0.24731 0.34126 0.0
C3350 C 0.29661 0.26417 0.3393 0.0
C3351 C 0.28696 0.2723 0.35871 0.0
H3352 H 0.33964 0.62419 0.52695 0.0
H3353 H 0.3312 0.59917 0.5926 0.0
H3354 H 0.36277 0.58038 0.58765 0.0
H3355 H 0.34417 0.57431 0.49804 0.0
H3356 H 0.36511 0.58643 0.47983 0.0
H3357 H 0.34598 0.60245 0.49069 0.0
H3358 H 0.38124 0.63611 0.50933 0.0
H3359 H 0.40064 0.62044 0.49815 0.0
H3360 H 0.40401 0.63093 0.52876 0.0
H3361 H 0.3895 0.55949 0.57297 0.0
H3362 H 0.4118 0.53828 0.54987 0.0
H3363 H 0.40252 0.57593 0.49308 0.0
C3364 C 0.34515 0.61548 0.54063 0.0
C3365 C 0.33343 0.61314 0.56022 0.0
C3366 C 0.34025 0.60104 0.57752 0.0
C3367 C 0.35816 0.59049 0.57491 0.0
C3368 C 0.36877 0.59221 0.55486 0.0
C3369 C 0.36266 0.60449 0.53805 0.0
C3370 C 0.37439 0.60096 0.51671 0.0
C3371 C 0.35633 0.59041 0.49506 0.0
C3372 C 0.39107 0.62345 0.51303 0.0
C3373 C 0.38744 0.58419 0.52388 0.0
C3374 C 0.38412 0.57961 0.54605 0.0
C3375 C 0.39261 0.56317 0.55577 0.0
C3376 C 0.40492 0.55105 0.54248 0.0
C3377 C 0.40848 0.5555 0.51982 0.0
C3378 C 0.39996 0.57243 0.51047 0.0
H3379 H 0.87344 0.9497 0.566 0.0
H3380 H 0.86424 0.90538 0.50028 0.0
H3381 H 0.90425 0.92443 0.49406 0.0
H3382 H 0.90317 0.9991 0.54996 0.0
H3383 H 0.9239 0.00986 0.57587 0.0
H3384 H 0.89612 0.9906 0.57739 0.0
H3385 H 0.91632 0.96271 0.59536 0.0
H3386 H 0.94424 0.98219 0.59447 0.0
H3387 H 0.93795 0.95287 0.58081 0.0
H3388 H 0.94189 0.95207 0.49186 0.0
H3389 H 0.97808 0.98348 0.49646 0.0
H3390 H 0.96446 0.00899 0.56455 0.0
C3391 C 0.88035 0.94347 0.55085 0.0
C3392 C 0.86619 0.92587 0.53378 0.0
C3393 C 0.87521 0.91851 0.51372 0.0
C3394 C 0.8978 0.9293 0.51 0.0
C3395 C 0.91117 0.94716 0.52674 0.0
C3396 C 0.90311 0.9538 0.54711 0.0
C3397 C 0.92075 0.9742 0.56171 0.0
C3398 C 0.91035 0.99464 0.56649 0.0
C3399 C 0.93039 0.96759 0.58443 0.0
C3400 C 0.93921 0.97886 0.54568 0.0
C3401 C 0.93337 0.96292 0.52569 0.0
C3402 C 0.9469 0.96437 0.50762 0.0
C3403 C 0.96721 0.98233 0.51024 0.0
C3404 C 0.97368 0.9985 0.53072 0.0
C3405 C 0.95963 0.99676 0.54871 0.0
H3406 H 0.89684 0.08122 0.29909 0.0
H3407 H 0.94844 0.11137 0.25694 0.0
H3408 H 0.93169 0.1444 0.25619 0.0
H3409 H 0.84949 0.09592 0.27356 0.0
H3410 H 0.83816 0.10341 0.29996 0.0
H3411 H 0.85539 0.08317 0.29893 0.0
H3412 H 0.88388 0.10795 0.33424 0.0
H3413 H 0.86661 0.12826 0.33542 0.0
H3414 H 0.89721 0.13764 0.33311 0.0
H3415 H 0.90671 0.17152 0.25621 0.0
H3416 H 0.8769 0.19284 0.25966 0.0
H3417 H 0.84273 0.14599 0.30343 0.0
C3418 C 0.90478 0.095 0.29005 0.0
C3419 C 0.92384 0.0939 0.27803 0.0
C3420 C 0.93394 0.11213 0.26641 0.0
C3421 C 0.92454 0.13089 0.26586 0.0
C3422 C 0.9055 0.13136 0.27759 0.0
C3423 C 0.89605 0.11418 0.28992 0.0
C3424 C 0.8755 0.11881 0.30086 0.0
C3425 C 0.85333 0.09916 0.29282 0.0
C3426 C 0.88114 0.12344 0.32749 0.0
C3427 C 0.87386 0.14035 0.29133 0.0
C3428 C 0.89154 0.1475 0.27825 0.0
C3429 C 0.89298 0.16632 0.2667 0.0
C3430 C 0.87587 0.17817 0.26858 0.0
C3431 C 0.85754 0.17107 0.28182 0.0
C3432 C 0.85674 0.15204 0.2935 0.0
H3433 H 0.7037 0.13471 0.02156 0.0
H3434 H 0.73265 0.10155 0.07415 0.0
H3435 H 0.69354 0.07915 0.07814 0.0
H3436 H 0.65037 0.13677 0.046 0.0
H3437 H 0.63269 0.13009 0.01802 0.0
H3438 H 0.66305 0.14513 0.02065 0.0
H3439 H 0.66897 0.11395 0.98933 0.0
H3440 H 0.63874 0.09865 0.98698 0.0
H3441 H 0.66101 0.08444 0.99368 0.0
H3442 H 0.6526 0.05894 0.0751 0.0
H3443 H 0.6103 0.04221 0.06582 0.0
H3444 H 0.60733 0.0875 0.01449 0.0
C3445 C 0.70163 0.12275 0.03391 0.0
C3446 C 0.721 0.11948 0.04733 0.0
C3447 C 0.71801 0.10386 0.06339 0.0
C3448 C 0.69586 0.09121 0.06593 0.0
C3449 C 0.6771 0.09432 0.05206 0.0
C3450 C 0.67961 0.10962 0.03634 0.0
C3451 C 0.65651 0.10858 0.02271 0.0
C3452 C 0.6503 0.13152 0.02713 0.0
C3453 C 0.65631 0.10095 -0.00337 0.0
C3454 C 0.6408 0.09036 0.03336 0.0
C3455 C 0.65309 0.08241 0.05023 0.0
C3456 C 0.64263 0.06507 0.06206 0.0
C3457 C 0.61872 0.05563 0.05659 0.0
C3458 C 0.6058 0.06378 0.03959 0.0
C3459 C 0.61691 0.08127 0.02779 0.0
H3460 H 0.20912 0.47792 0.24189 0.0
H3461 H 0.23236 0.5331 0.29996 0.0
H3462 H 0.25527 0.51064 0.31979 0.0
H3463 H 0.20286 0.43164 0.2728 0.0
H3464 H 0.21442 0.41437 0.25234 0.0
H3465 H 0.20032 0.43497 0.24256 0.0
H3466 H 0.23701 0.45432 0.22507 0.0
H3467 H 0.2511 0.4335 0.23436 0.0
H3468 H 0.26483 0.46357 0.24315 0.0
H3469 H 0.27326 0.48122 0.334 0.0
H3470 H 0.28911 0.44833 0.33993 0.0
H3471 H 0.25593 0.41419 0.27103 0.0
C3472 C 0.21919 0.48524 0.25871 0.0
C3473 C 0.21907 0.50694 0.26965 0.0
C3474 C 0.23252 0.51639 0.29145 0.0
C3475 C 0.24539 0.50378 0.30283 0.0
C3476 C 0.24485 0.48215 0.29176 0.0
C3477 C 0.23251 0.47318 0.26998 0.0
C3478 C 0.23538 0.44991 0.26152 0.0
C3479 C 0.21185 0.43165 0.25706 0.0
C3480 C 0.24783 0.45036 0.23975 0.0
C3481 C 0.2507 0.4469 0.28229 0.0
C3482 C 0.25592 0.46561 0.29957 0.0
C3483 C 0.26958 0.46655 0.32052 0.0
C3484 C 0.27851 0.4479 0.32371 0.0
C3485 C 0.27369 0.42882 0.30597 0.0
C3486 C 0.25958 0.42839 0.28508 0.0
H3487 H 0.24328 0.42605 0.01663 0.0
H3488 H 0.20652 0.37888 0.05844 0.0
H3489 H 0.17393 0.39718 0.05609 0.0
H3490 H 0.22907 0.47477 0.03905 0.0
H3491 H 0.2246 0.48512 0.01187 0.0
H3492 H 0.24387 0.46707 0.0152 0.0
H3493 H 0.22031 0.4386 0.97939 0.0
H3494 H 0.20093 0.45663 0.97587 0.0
H3495 H 0.1894 0.42701 0.97862 0.0
H3496 H 0.1485 0.42389 0.05369 0.0
H3497 H 0.13001 0.45527 0.04867 0.0
H3498 H 0.18155 0.48298 0.00545 0.0
C3499 C 0.22817 0.41947 0.025 0.0
C3500 C 0.22722 0.40131 0.03789 0.0
C3501 C 0.20732 0.39284 0.04852 0.0
C3502 C 0.18882 0.40308 0.04722 0.0
C3503 C 0.19036 0.42124 0.03463 0.0
C3504 C 0.20929 0.42904 0.02327 0.0
C3505 C 0.2068 0.44901 0.0112 0.0
C3506 C 0.2273 0.47025 0.01987 0.0
C3507 C 0.2042 0.44241 0.9847 0.0
C3508 C 0.18428 0.45225 0.01887 0.0
C3509 C 0.17496 0.43588 0.03217 0.0
C3510 C 0.15529 0.43646 0.04285 0.0
C3511 C 0.14499 0.45432 0.04001 0.0
C3512 C 0.15428 0.47119 0.02648 0.0
C3513 C 0.17391 0.46993 0.01547 0.0
H3514 H 0.88864 0.94197 0.23536 0.0
H3515 H 0.91138 0.96884 0.3082 0.0
H3516 H 0.88337 0.93581 0.31904 0.0
H3517 H 0.82617 0.91994 0.24252 0.0
H3518 H 0.82177 0.89529 0.22062 0.0
H3519 H 0.84284 0.92156 0.21848 0.0
H3520 H 0.8748 0.89993 0.21629 0.0
H3521 H 0.85386 0.87367 0.21848 0.0
H3522 H 0.88012 0.88361 0.23895 0.0
H3523 H 0.85644 0.8982 0.32192 0.0
H3524 H 0.8292 0.85958 0.31678 0.0
H3525 H 0.82078 0.85817 0.24224 0.0
C3526 C 0.88732 0.94098 0.25353 0.0
C3527 C 0.90192 0.95785 0.27104 0.0
C3528 C 0.90004 0.95611 0.29465 0.0
C3529 C 0.88427 0.93742 0.30093 0.0
C3530 C 0.87015 0.92092 0.28333 0.0
C3531 C 0.87115 0.92268 0.26011 0.0
C3532 C 0.85396 0.90246 0.24474 0.0
C3533 C 0.83506 0.91029 0.23076 0.0
C3534 C 0.86644 0.88913 0.22868 0.0
C3535 C 0.8439 0.88865 0.26293 0.0
C3536 C 0.85353 0.89967 0.28508 0.0
C3537 C 0.84835 0.88964 0.30472 0.0
C3538 C 0.83293 0.86777 0.30166 0.0
C3539 C 0.82264 0.85636 0.27921 0.0
C3540 C 0.828 0.86695 0.2596 0.0
H3541 H 0.70468 0.12602 0.76723 0.0
H3542 H 0.68909 0.11663 0.69229 0.0
H3543 H 0.71791 0.15362 0.69157 0.0
H3544 H 0.70795 0.18565 0.77425 0.0
H3545 H 0.72987 0.19234 0.7993 0.0
H3546 H 0.70946 0.16457 0.79296 0.0
H3547 H 0.7441 0.14613 0.79331 0.0
H3548 H 0.76455 0.17397 0.79887 0.0
H3549 H 0.76559 0.1538 0.77409 0.0
H3550 H 0.74692 0.19234 0.69974 0.0
H3551 H 0.76932 0.23186 0.71629 0.0
H3552 H 0.76555 0.21426 0.78571 0.0
C3553 C 0.70759 0.13173 0.75069 0.0
C3554 C 0.69523 0.11876 0.72979 0.0
C3555 C 0.69868 0.12668 0.70841 0.0
C3556 C 0.71508 0.1474 0.70786 0.0
C3557 C 0.72739 0.15975 0.72887 0.0
C3558 C 0.72342 0.15239 0.74991 0.0
C3559 C 0.73676 0.16979 0.7702 0.0
C3560 C 0.72002 0.1786 0.78503 0.0
C3561 C 0.75377 0.16034 0.78497 0.0
C3562 C 0.74936 0.1879 0.75735 0.0
C3563 C 0.74384 0.18193 0.73354 0.0
C3564 C 0.75161 0.19714 0.71833 0.0
C3565 C 0.76438 0.21945 0.72785 0.0
C3566 C 0.76892 0.22599 0.75223 0.0
C3567 C 0.76236 0.2097 0.76699 0.0
loop_
_geom_bond_atom_site_label_1
_geom_bond_atom_site_label_2
_geom_bond_distance
_geom_bond_site_symmetry_2
_ccdc_geom_bond_type
C0 O1 1.306 1_655 S
C0 O3 1.160 1_655 S
O1 C0 1.306 1_455 S
O1 Cd2 2.228 . S
Cd2 O1 2.228 . S
Cd2 O6 2.273 . S
Cd2 O10 2.277 . S
O3 C0 1.160 1_455 S
O3 Cd4 2.203 . S
Cd4 O3 2.203 . S
Cd4 O6 2.411 . S
Cd4 O7 2.333 . S
Cd4 O8 2.352 . S
Cd4 O12 2.277 . S
Cd4 O13 2.356 . S
C5 O10 1.209 . S
C5 O12 1.226 . S
O6 Cd2 2.273 . S
O6 Cd4 2.411 . S
O6 C9 1.320 . S
O7 Cd4 2.333 . S
O7 C9 1.214 . S
O8 Cd4 2.352 . S
O8 C11 1.258 . S
C9 O6 1.320 . S
C9 O7 1.214 . S
O10 Cd2 2.277 . S
O10 C5 1.209 . S
C11 O8 1.258 . S
C11 O13 1.282 . S
O12 Cd4 2.277 . S
O12 C5 1.226 . S
O13 Cd4 2.356 . S
O13 C11 1.282 . S
C14 O15 1.322 . S
C14 O17 1.160 . S
O15 C14 1.322 . S
O15 Cd16 2.205 1_655 S
Cd16 O15 2.205 1_455 S
Cd16 O20 2.273 . S
Cd16 O24 2.277 . S
O17 C14 1.160 . S
O17 Cd18 2.203 1_655 S
Cd18 O17 2.203 1_455 S
Cd18 O20 2.411 . S
Cd18 O21 2.333 . S
Cd18 O22 2.352 . S
Cd18 O26 2.277 . S
Cd18 O27 2.356 . S
C19 O24 1.209 . S
C19 O26 1.226 . S
O20 Cd16 2.273 . S
O20 Cd18 2.411 . S
O20 C23 1.320 . S
O21 Cd18 2.333 . S
O21 C23 1.214 . S
O22 Cd18 2.352 . S
O22 C25 1.258 . S
C23 O20 1.320 . S
C23 O21 1.214 . S
O24 Cd16 2.277 . S
O24 C19 1.209 . S
C25 O22 1.258 . S
C25 O27 1.282 . S
O26 Cd18 2.277 . S
O26 C19 1.226 . S
O27 Cd18 2.356 . S
O27 C25 1.282 . S
C28 O29 1.306 . S
C28 O31 1.160 . S
O29 C28 1.306 . S
O29 Cd30 2.228 . S
Cd30 O29 2.228 . S
Cd30 O34 2.273 . S
Cd30 O38 2.277 . S
O31 C28 1.160 . S
O31 Cd32 2.203 . S
Cd32 O31 2.203 . S
Cd32 O34 2.411 . S
Cd32 O35 2.333 . S
Cd32 O36 2.352 . S
Cd32 O40 2.277 . S
Cd32 O41 2.356 . S
C33 O38 1.209 . S
C33 O40 1.226 . S
O34 Cd30 2.273 . S
O34 Cd32 2.411 . S
O34 C37 1.320 . S
O35 Cd32 2.333 . S
O35 C37 1.214 . S
O36 Cd32 2.352 . S
O36 C39 1.258 . S
C37 O34 1.320 . S
C37 O35 1.214 . S
O38 Cd30 2.277 . S
O38 C33 1.209 . S
C39 O36 1.258 . S
C39 O41 1.282 . S
O40 Cd32 2.277 . S
O40 C33 1.226 . S
O41 Cd32 2.356 . S
O41 C39 1.282 . S
C42 O43 1.306 . S
C42 O45 1.160 . S
O43 C42 1.306 . S
O43 Cd44 2.228 . S
Cd44 O43 2.228 . S
Cd44 O48 2.273 . S
Cd44 O52 2.277 . S
O45 C42 1.160 . S
O45 Cd46 2.203 . S
Cd46 O45 2.203 . S
Cd46 O48 2.411 . S
Cd46 O49 2.333 . S
Cd46 O50 2.352 . S
Cd46 O54 2.277 . S
Cd46 O55 2.356 . S
C47 O52 1.209 . S
C47 O54 1.226 . S
O48 Cd44 2.273 . S
O48 Cd46 2.411 . S
O48 C51 1.320 . S
O49 Cd46 2.333 . S
O49 C51 1.214 . S
O50 Cd46 2.352 . S
O50 C53 1.258 . S
C51 O48 1.320 . S
C51 O49 1.214 . S
O52 Cd44 2.277 . S
O52 C47 1.209 . S
C53 O50 1.258 . S
C53 O55 1.282 . S
O54 Cd46 2.277 . S
O54 C47 1.226 . S
O55 Cd46 2.356 . S
O55 C53 1.282 . S
C56 O57 1.306 . S
C56 O59 1.160 . S
O57 C56 1.306 . S
O57 Cd58 2.228 . S
Cd58 O57 2.228 . S
Cd58 O62 2.273 . S
Cd58 O66 2.277 . S
O59 C56 1.160 . S
O59 Cd60 2.203 . S
Cd60 O59 2.203 . S
Cd60 O62 2.411 . S
Cd60 O63 2.333 . S
Cd60 O64 2.352 . S
Cd60 O68 2.277 . S
Cd60 O69 2.356 . S
C61 O66 1.209 . S
C61 O68 1.226 . S
O62 Cd58 2.273 . S
O62 Cd60 2.411 . S
O62 C65 1.320 . S
O63 Cd60 2.333 . S
O63 C65 1.214 . S
O64 Cd60 2.352 . S
O64 C67 1.258 . S
C65 O62 1.320 . S
C65 O63 1.214 . S
O66 Cd58 2.277 . S
O66 C61 1.209 . S
C67 O64 1.258 . S
C67 O69 1.282 . S
O68 Cd60 2.277 . S
O68 C61 1.226 . S
O69 Cd60 2.356 . S
O69 C67 1.282 . S
C70 O71 1.306 . S
C70 O73 1.160 . S
O71 C70 1.306 . S
O71 Cd72 2.228 . S
Cd72 O71 2.228 . S
Cd72 O76 2.273 . S
Cd72 O80 2.277 . S
O73 C70 1.160 . S
O73 Cd74 2.203 . S
Cd74 O73 2.203 . S
Cd74 O76 2.411 . S
Cd74 O77 2.333 . S
Cd74 O78 2.352 . S
Cd74 O82 2.277 . S
Cd74 O83 2.356 . S
C75 O80 1.209 . S
C75 O82 1.226 . S
O76 Cd72 2.273 . S
O76 Cd74 2.411 . S
O76 C79 1.320 . S
O77 Cd74 2.333 . S
O77 C79 1.214 . S
O78 Cd74 2.352 . S
O78 C81 1.258 . S
C79 O76 1.320 . S
C79 O77 1.214 . S
O80 Cd72 2.277 . S
O80 C75 1.209 . S
C81 O78 1.258 . S
C81 O83 1.282 . S
O82 Cd74 2.277 . S
O82 C75 1.226 . S
O83 Cd74 2.356 . S
O83 C81 1.282 . S
C84 O85 1.306 . S
C84 O87 1.160 . S
O85 C84 1.306 . S
O85 Cd86 2.228 . S
Cd86 O85 2.228 . S
Cd86 O90 2.273 . S
Cd86 O94 2.277 . S
O87 C84 1.160 . S
O87 Cd88 2.203 . S
Cd88 O87 2.203 . S
Cd88 O90 2.411 . S
Cd88 O91 2.333 . S
Cd88 O92 2.352 . S
Cd88 O96 2.277 . S
Cd88 O97 2.356 . S
C89 O94 1.209 . S
C89 O96 1.226 . S
O90 Cd86 2.273 . S
O90 Cd88 2.411 . S
O90 C93 1.320 . S
O91 Cd88 2.333 . S
O91 C93 1.214 . S
O92 Cd88 2.352 . S
O92 C95 1.258 . S
C93 O90 1.320 . S
C93 O91 1.214 . S
O94 Cd86 2.277 . S
O94 C89 1.209 . S
C95 O92 1.258 . S
C95 O97 1.282 . S
O96 Cd88 2.277 . S
O96 C89 1.226 . S
O97 Cd88 2.356 . S
O97 C95 1.282 . S
C98 O99 1.306 . S
C98 O101 1.160 . S
O99 C98 1.306 . S
O99 Cd100 2.228 1_655 S
Cd100 O99 2.228 1_455 S
Cd100 O104 2.273 . S
Cd100 O108 2.277 . S
O101 C98 1.160 . S
O101 Cd102 2.203 1_655 S
Cd102 O101 2.203 1_455 S
Cd102 O104 2.411 . S
Cd102 O105 2.333 . S
Cd102 O106 2.352 1_455 S
Cd102 O110 2.277 . S
Cd102 O111 2.356 . S
C103 O108 1.209 . S
C103 O110 1.226 . S
O104 Cd100 2.273 . S
O104 Cd102 2.411 . S
O104 C107 1.320 . S
O105 Cd102 2.333 . S
O105 C107 1.214 . S
O106 Cd102 2.352 1_655 S
O106 C109 1.258 . S
C107 O104 1.320 . S
C107 O105 1.214 . S
O108 Cd100 2.277 . S
O108 C103 1.209 . S
C109 O106 1.258 . S
C109 O111 1.282 1_655 S
O110 Cd102 2.277 . S
O110 C103 1.226 . S
O111 Cd102 2.356 . S
O111 C109 1.282 1_455 S
C112 O113 1.306 1_545 S
C112 O115 1.160 . S
O113 C112 1.306 1_565 S
O113 Cd114 2.228 . S
Cd114 O113 2.228 . S
Cd114 O118 2.273 1_565 S
Cd114 O122 2.277 . S
O115 C112 1.160 . S
O115 Cd116 2.203 . S
Cd116 O115 2.203 . S
Cd116 O118 2.411 . S
Cd116 O119 2.331 . S
Cd116 O120 2.352 . S
Cd116 O124 2.277 1_545 S
Cd116 O125 2.356 . S
C117 O122 1.209 . S
C117 O124 1.226 . S
O118 Cd114 2.273 1_545 S
O118 Cd116 2.411 . S
O118 C121 1.320 . S
O119 Cd116 2.331 . S
O119 C121 1.205 . S
O120 Cd116 2.352 . S
O120 C123 1.258 . S
C121 O118 1.320 . S
C121 O119 1.205 . S
O122 Cd114 2.277 . S
O122 C117 1.209 . S
C123 O120 1.258 . S
C123 O125 1.282 . S
O124 Cd116 2.277 1_565 S
O124 C117 1.226 . S
O125 Cd116 2.356 . S
O125 C123 1.282 . S
C126 O127 1.306 . S
C126 O129 1.160 . S
O127 C126 1.306 . S
O127 Cd128 2.228 . S
Cd128 O127 2.228 . S
Cd128 O132 2.273 . S
Cd128 O136 2.277 . S
O129 C126 1.160 . S
O129 Cd130 2.203 . S
Cd130 O129 2.203 . S
Cd130 O132 2.411 . S
Cd130 O133 2.333 . S
Cd130 O134 2.352 . S
Cd130 O138 2.277 . S
Cd130 O139 2.356 . S
C131 O136 1.209 . S
C131 O138 1.226 . S
O132 Cd128 2.273 . S
O132 Cd130 2.411 . S
O132 C135 1.320 . S
O133 Cd130 2.333 . S
O133 C135 1.214 . S
O134 Cd130 2.352 . S
O134 C137 1.258 . S
C135 O132 1.320 . S
C135 O133 1.214 . S
O136 Cd128 2.277 . S
O136 C131 1.209 . S
C137 O134 1.258 . S
C137 O139 1.282 . S
O138 Cd130 2.277 . S
O138 C131 1.226 . S
O139 Cd130 2.356 . S
O139 C137 1.282 . S
C140 O141 1.306 . S
C140 O143 1.160 . S
O141 C140 1.306 . S
O141 Cd142 2.228 . S
Cd142 O141 2.228 . S
Cd142 O146 2.273 . S
Cd142 O150 2.277 . S
O143 C140 1.160 . S
O143 Cd144 2.203 . S
Cd144 O143 2.203 . S
Cd144 O146 2.411 . S
Cd144 O147 2.333 . S
Cd144 O148 2.352 . S
Cd144 O152 2.277 . S
Cd144 O153 2.356 . S
C145 O150 1.209 . S
C145 O152 1.226 . S
O146 Cd142 2.273 . S
O146 Cd144 2.411 . S
O146 C149 1.320 . S
O147 Cd144 2.333 . S
O147 C149 1.214 . S
O148 Cd144 2.352 . S
O148 C151 1.258 . S
C149 O146 1.320 . S
C149 O147 1.214 . S
O150 Cd142 2.277 . S
O150 C145 1.209 . S
C151 O148 1.258 . S
C151 O153 1.282 . S
O152 Cd144 2.277 . S
O152 C145 1.226 . S
O153 Cd144 2.356 . S
O153 C151 1.282 . S
C154 O155 1.306 1_554 S
C154 O157 1.160 . S
O155 C154 1.306 1_556 S
O155 Cd156 2.228 . S
Cd156 O155 2.228 . S
Cd156 O160 2.271 1_556 S
Cd156 O164 2.277 . S
O157 C154 1.160 . S
O157 Cd158 2.203 . S
Cd158 O157 2.203 . S
Cd158 O160 2.411 . S
Cd158 O161 2.332 . S
Cd158 O162 2.352 . S
Cd158 O166 2.277 1_554 S
Cd158 O167 2.356 . S
C159 O164 1.209 . S
C159 O166 1.226 . S
O160 Cd156 2.271 1_554 S
O160 Cd158 2.411 . S
O160 C163 1.323 1_554 S
O161 Cd158 2.332 . S
O161 C163 1.205 1_554 S
O162 Cd158 2.352 . S
O162 C165 1.258 . S
C163 O160 1.323 1_556 S
C163 O161 1.205 1_556 S
O164 Cd156 2.277 . S
O164 C159 1.209 . S
C165 O162 1.258 . S
C165 O167 1.282 . S
O166 Cd158 2.277 1_556 S
O166 C159 1.226 . S
O167 Cd158 2.356 . S
O167 C165 1.282 . S
C168 O169 1.306 . S
C168 O171 1.160 . S
O169 C168 1.306 . S
O169 Cd170 2.228 . S
Cd170 O169 2.228 . S
Cd170 O174 2.273 . S
Cd170 O178 2.277 1_554 S
O171 C168 1.160 . S
O171 Cd172 2.203 . S
Cd172 O171 2.203 . S
Cd172 O174 2.411 . S
Cd172 O175 2.333 . S
Cd172 O176 2.352 . S
Cd172 O180 2.277 . S
Cd172 O181 2.356 . S
C173 O178 1.209 . S
C173 O180 1.226 1_556 S
O174 Cd170 2.273 . S
O174 Cd172 2.411 . S
O174 C177 1.320 . S
O175 Cd172 2.333 . S
O175 C177 1.214 . S
O176 Cd172 2.352 . S
O176 C179 1.258 . S
C177 O174 1.320 . S
C177 O175 1.214 . S
O178 Cd170 2.277 1_556 S
O178 C173 1.209 . S
C179 O176 1.258 . S
C179 O181 1.282 . S
O180 Cd172 2.277 . S
O180 C173 1.226 1_554 S
O181 Cd172 2.356 . S
O181 C179 1.282 . S
C182 O183 1.306 . S
C182 O185 1.160 . S
O183 C182 1.306 . S
O183 Cd184 2.228 . S
Cd184 O183 2.228 . S
Cd184 O188 2.273 . S
Cd184 O192 2.277 . S
O185 C182 1.160 . S
O185 Cd186 2.203 . S
Cd186 O185 2.203 . S
Cd186 O188 2.411 . S
Cd186 O189 2.333 . S
Cd186 O190 2.352 . S
Cd186 O194 2.277 . S
Cd186 O195 2.356 . S
C187 O192 1.209 . S
C187 O194 1.226 . S
O188 Cd184 2.273 . S
O188 Cd186 2.411 . S
O188 C191 1.320 . S
O189 Cd186 2.333 . S
O189 C191 1.214 . S
O190 Cd186 2.352 . S
O190 C193 1.258 . S
C191 O188 1.320 . S
C191 O189 1.214 . S
O192 Cd184 2.277 . S
O192 C187 1.209 . S
C193 O190 1.258 . S
C193 O195 1.282 . S
O194 Cd186 2.277 . S
O194 C187 1.226 . S
O195 Cd186 2.356 . S
O195 C193 1.282 . S
C196 O197 1.306 . S
C196 O199 1.160 . S
O197 C196 1.306 . S
O197 Cd198 2.228 . S
Cd198 O197 2.228 . S
Cd198 O202 2.273 . S
Cd198 O206 2.277 . S
O199 C196 1.160 . S
O199 Cd200 2.203 . S
Cd200 O199 2.203 . S
Cd200 O202 2.411 . S
Cd200 O203 2.333 . S
Cd200 O204 2.352 . S
Cd200 O208 2.277 . S
Cd200 O209 2.356 . S
C201 O206 1.209 . S
C201 O208 1.226 . S
O202 Cd198 2.273 . S
O202 Cd200 2.411 . S
O202 C205 1.320 . S
O203 Cd200 2.333 . S
O203 C205 1.214 . S
O204 Cd200 2.352 . S
O204 C207 1.258 . S
C205 O202 1.320 . S
C205 O203 1.214 . S
O206 Cd198 2.277 . S
O206 C201 1.209 . S
C207 O204 1.258 . S
C207 O209 1.282 . S
O208 Cd200 2.277 . S
O208 C201 1.226 . S
O209 Cd200 2.356 . S
O209 C207 1.282 . S
C210 O211 1.306 . S
C210 O213 1.160 . S
O211 C210 1.306 . S
O211 Cd212 2.228 . S
Cd212 O211 2.228 . S
Cd212 O216 2.273 . S
Cd212 O220 2.277 . S
O213 C210 1.160 . S
O213 Cd214 2.203 . S
Cd214 O213 2.203 . S
Cd214 O216 2.411 . S
Cd214 O217 2.333 . S
Cd214 O218 2.352 . S
Cd214 O222 2.277 . S
Cd214 O223 2.356 . S
C215 O220 1.209 . S
C215 O222 1.226 . S
O216 Cd212 2.273 . S
O216 Cd214 2.411 . S
O216 C219 1.320 . S
O217 Cd214 2.333 . S
O217 C219 1.214 . S
O218 Cd214 2.352 . S
O218 C221 1.258 . S
C219 O216 1.320 . S
C219 O217 1.214 . S
O220 Cd212 2.277 . S
O220 C215 1.209 . S
C221 O218 1.258 . S
C221 O223 1.282 . S
O222 Cd214 2.277 . S
O222 C215 1.226 . S
O223 Cd214 2.356 . S
O223 C221 1.282 . S
C224 O225 1.306 . S
C224 O227 1.160 . S
O225 C224 1.306 . S
O225 Cd226 2.228 . S
Cd226 O225 2.228 . S
Cd226 O230 2.273 . S
Cd226 O234 2.277 1_545 S
O227 C224 1.160 . S
O227 Cd228 2.203 . S
Cd228 O227 2.203 . S
Cd228 O230 2.411 . S
Cd228 O231 2.333 . S
Cd228 O232 2.352 . S
Cd228 O236 2.277 1_545 S
Cd228 O237 2.356 . S
C229 O234 1.209 . S
C229 O236 1.226 . S
O230 Cd226 2.273 . S
O230 Cd228 2.411 . S
O230 C233 1.320 . S
O231 Cd228 2.333 . S
O231 C233 1.214 . S
O232 Cd228 2.352 . S
O232 C235 1.258 . S
C233 O230 1.320 . S
C233 O231 1.214 . S
O234 Cd226 2.277 1_565 S
O234 C229 1.209 . S
C235 O232 1.258 . S
C235 O237 1.282 . S
O236 Cd228 2.277 1_565 S
O236 C229 1.226 . S
O237 Cd228 2.356 . S
O237 C235 1.282 . S
C238 O239 1.306 . S
C238 O241 1.160 . S
O239 C238 1.306 . S
O239 Cd240 2.228 . S
Cd240 O239 2.228 . S
Cd240 O244 2.273 . S
Cd240 O248 2.277 . S
O241 C238 1.160 . S
O241 Cd242 2.203 . S
Cd242 O241 2.203 . S
Cd242 O244 2.411 . S
Cd242 O245 2.333 . S
Cd242 O246 2.352 . S
Cd242 O250 2.277 . S
Cd242 O251 2.356 . S
C243 O248 1.209 . S
C243 O250 1.226 . S
O244 Cd240 2.273 . S
O244 Cd242 2.411 . S
O244 C247 1.320 . S
O245 Cd242 2.333 . S
O245 C247 1.214 . S
O246 Cd242 2.352 . S
O246 C249 1.258 . S
C247 O244 1.320 . S
C247 O245 1.214 . S
O248 Cd240 2.277 . S
O248 C243 1.209 . S
C249 O246 1.258 . S
C249 O251 1.282 . S
O250 Cd242 2.277 . S
O250 C243 1.226 . S
O251 Cd242 2.356 . S
O251 C249 1.282 . S
C252 O253 1.306 . S
C252 O255 1.160 . S
O253 C252 1.306 . S
O253 Cd254 2.228 . S
Cd254 O253 2.228 . S
Cd254 O258 2.273 . S
Cd254 O262 2.277 . S
O255 C252 1.160 . S
O255 Cd256 2.203 . S
Cd256 O255 2.203 . S
Cd256 O258 2.411 . S
Cd256 O259 2.333 . S
Cd256 O260 2.352 . S
Cd256 O264 2.277 . S
Cd256 O265 2.356 . S
C257 O262 1.209 . S
C257 O264 1.226 . S
O258 Cd254 2.273 . S
O258 Cd256 2.411 . S
O258 C261 1.320 . S
O259 Cd256 2.333 . S
O259 C261 1.214 . S
O260 Cd256 2.352 . S
O260 C263 1.258 . S
C261 O258 1.320 . S
C261 O259 1.214 . S
O262 Cd254 2.277 . S
O262 C257 1.209 . S
C263 O260 1.258 . S
C263 O265 1.282 . S
O264 Cd256 2.277 . S
O264 C257 1.226 . S
O265 Cd256 2.356 . S
O265 C263 1.282 . S
C266 O267 1.306 . S
C266 O269 1.160 . S
O267 C266 1.306 . S
O267 Cd268 2.228 . S
Cd268 O267 2.228 . S
Cd268 O272 2.273 . S
Cd268 O276 2.277 . S
O269 C266 1.160 . S
O269 Cd270 2.203 . S
Cd270 O269 2.203 . S
Cd270 O272 2.411 . S
Cd270 O273 2.333 . S
Cd270 O274 2.352 . S
Cd270 O278 2.277 . S
Cd270 O279 2.356 . S
C271 O276 1.209 . S
C271 O278 1.226 . S
O272 Cd268 2.273 . S
O272 Cd270 2.411 . S
O272 C275 1.320 . S
O273 Cd270 2.333 . S
O273 C275 1.214 . S
O274 Cd270 2.352 . S
O274 C277 1.258 . S
C275 O272 1.320 . S
C275 O273 1.214 . S
O276 Cd268 2.277 . S
O276 C271 1.209 . S
C277 O274 1.258 . S
C277 O279 1.282 . S
O278 Cd270 2.277 . S
O278 C271 1.226 . S
O279 Cd270 2.356 . S
O279 C277 1.282 . S
C280 O281 1.306 . S
C280 O283 1.160 . S
O281 C280 1.306 . S
O281 Cd282 2.228 . S
Cd282 O281 2.228 . S
Cd282 O286 2.273 . S
Cd282 O290 2.277 . S
O283 C280 1.160 . S
O283 Cd284 2.203 . S
Cd284 O283 2.203 . S
Cd284 O286 2.411 . S
Cd284 O287 2.333 . S
Cd284 O288 2.352 1_554 S
Cd284 O292 2.277 . S
Cd284 O293 2.372 . S
C285 O290 1.209 . S
C285 O292 1.226 . S
O286 Cd282 2.273 . S
O286 Cd284 2.411 . S
O286 C289 1.320 . S
O287 Cd284 2.333 . S
O287 C289 1.214 . S
O288 Cd284 2.352 1_556 S
O288 C291 1.258 . S
C289 O286 1.320 . S
C289 O287 1.214 . S
O290 Cd282 2.277 . S
O290 C285 1.209 . S
C291 O288 1.258 . S
C291 O293 1.267 1_556 S
O292 Cd284 2.277 . S
O292 C285 1.226 . S
O293 Cd284 2.372 . S
O293 C291 1.267 1_554 S
C294 O295 1.306 . S
C294 O297 1.160 . S
O295 C294 1.306 . S
O295 Cd296 2.228 . S
Cd296 O295 2.228 . S
Cd296 O300 2.273 . S
Cd296 O304 2.277 . S
O297 C294 1.160 . S
O297 Cd298 2.203 . S
Cd298 O297 2.203 . S
Cd298 O300 2.411 . S
Cd298 O301 2.333 . S
Cd298 O302 2.352 . S
Cd298 O306 2.277 . S
Cd298 O307 2.356 . S
C299 O304 1.209 . S
C299 O306 1.226 . S
O300 Cd296 2.273 . S
O300 Cd298 2.411 . S
O300 C303 1.320 . S
O301 Cd298 2.333 . S
O301 C303 1.214 . S
O302 Cd298 2.352 . S
O302 C305 1.258 . S
C303 O300 1.320 . S
C303 O301 1.214 . S
O304 Cd296 2.277 . S
O304 C299 1.209 . S
C305 O302 1.258 . S
C305 O307 1.282 . S
O306 Cd298 2.277 . S
O306 C299 1.226 . S
O307 Cd298 2.356 . S
O307 C305 1.282 . S
C308 O309 1.306 . S
C308 O311 1.160 . S
O309 C308 1.306 . S
O309 Cd310 2.228 . S
Cd310 O309 2.228 . S
Cd310 O314 2.273 . S
Cd310 O318 2.277 . S
O311 C308 1.160 . S
O311 Cd312 2.203 . S
Cd312 O311 2.203 . S
Cd312 O314 2.411 . S
Cd312 O315 2.333 . S
Cd312 O316 2.352 . S
Cd312 O320 2.277 . S
Cd312 O321 2.356 . S
C313 O318 1.209 . S
C313 O320 1.226 . S
O314 Cd310 2.273 . S
O314 Cd312 2.411 . S
O314 C317 1.320 . S
O315 Cd312 2.333 . S
O315 C317 1.214 . S
O316 Cd312 2.352 . S
O316 C319 1.258 . S
C317 O314 1.320 . S
C317 O315 1.214 . S
O318 Cd310 2.277 . S
O318 C313 1.209 . S
C319 O316 1.258 . S
C319 O321 1.282 . S
O320 Cd312 2.277 . S
O320 C313 1.226 . S
O321 Cd312 2.356 . S
O321 C319 1.282 . S
C322 O323 1.306 . S
C322 O325 1.160 . S
O323 C322 1.306 . S
O323 Cd324 2.228 . S
Cd324 O323 2.228 . S
Cd324 O328 2.273 . S
Cd324 O332 2.277 . S
O325 C322 1.160 . S
O325 Cd326 2.203 . S
Cd326 O325 2.203 . S
Cd326 O328 2.411 . S
Cd326 O329 2.333 . S
Cd326 O330 2.352 . S
Cd326 O334 2.277 . S
Cd326 O335 2.356 . S
C327 O332 1.209 . S
C327 O334 1.226 . S
O328 Cd324 2.273 . S
O328 Cd326 2.411 . S
O328 C331 1.320 . S
O329 Cd326 2.333 . S
O329 C331 1.214 . S
O330 Cd326 2.352 . S
O330 C333 1.258 . S
C331 O328 1.320 . S
C331 O329 1.214 . S
O332 Cd324 2.277 . S
O332 C327 1.209 . S
C333 O330 1.258 . S
C333 O335 1.282 . S
O334 Cd326 2.277 . S
O334 C327 1.226 . S
O335 Cd326 2.356 . S
O335 C333 1.282 . S
Dy336 O339 2.307 . S
Dy336 O341 2.395 . S
Dy336 O342 2.379 . S
Dy336 O344 2.339 . S
Dy336 O346 2.298 . S
Dy336 O350 2.275 . S
Dy336 C358 2.738 . S
Dy337 O340 2.291 1_655 S
Dy337 O343 2.258 1_655 S
Dy337 O345 2.281 1_655 S
Dy337 O347 2.432 . S
Dy337 O348 2.408 1_554 S
Dy337 O351 2.319 1_654 S
Dy337 C367 2.778 . S
C338 O350 1.254 1_556 S
C338 O351 1.257 . S
O339 Dy336 2.307 . S
O339 C349 1.266 . S
O340 Dy337 2.291 1_455 S
O340 C349 1.236 . S
O341 Dy336 2.395 . S
O341 C358 1.255 . S
O342 Dy336 2.379 . S
O342 C358 1.249 . S
O343 Dy337 2.258 1_455 S
O343 C359 1.254 . S
O344 Dy336 2.339 . S
O344 C359 1.257 . S
O345 Dy337 2.281 1_455 S
O345 C360 1.266 1_545 S
O346 Dy336 2.298 . S
O346 C360 1.236 1_545 S
O347 Dy337 2.432 . S
O347 C367 1.255 . S
O348 Dy337 2.408 1_556 S
O348 C367 1.240 1_556 S
C349 O339 1.266 . S
C349 O340 1.236 . S
O350 Dy336 2.275 . S
O350 C338 1.254 1_554 S
O351 Dy337 2.319 1_456 S
O351 C338 1.257 . S
C352 C355 1.344 . S
C352 C356 1.328 . S
C352 C358 1.516 . S
C353 C354 1.304 . S
C353 C357 1.323 . S
C354 C353 1.304 . S
C354 C355 1.371 . S
C354 H368 0.930 1_545 S
C355 C352 1.344 . S
C355 C354 1.371 . S
C355 H369 0.931 . S
C356 C352 1.328 . S
C356 C357 1.433 . S
C356 H370 0.931 . S
C357 C353 1.323 . S
C357 C356 1.433 . S
C357 H371 0.933 . S
C358 Dy336 2.738 . S
C358 O341 1.255 . S
C358 O342 1.249 . S
C358 C352 1.516 . S
C359 O343 1.254 . S
C359 O344 1.257 . S
C360 O345 1.266 1_565 S
C360 O346 1.236 1_565 S
C361 C364 1.344 . S
C361 C365 1.328 1_554 S
C361 C367 1.516 . S
C362 C363 1.304 . S
C362 C366 1.323 1_554 S
C363 C362 1.304 . S
C363 C364 1.371 . S
C363 H372 0.930 . S
C364 C361 1.344 . S
C364 C363 1.371 . S
C364 H373 0.931 . S
C365 C361 1.328 1_556 S
C365 C366 1.433 . S
C365 H374 0.931 . S
C366 C362 1.323 1_556 S
C366 C365 1.433 . S
C366 H375 0.933 . S
C367 Dy337 2.778 . S
C367 O347 1.255 . S
C367 O348 1.240 1_554 S
C367 C361 1.516 . S
H368 C354 0.930 1_565 S
H369 C355 0.931 . S
H370 C356 0.931 . S
H371 C357 0.933 . S
H372 C363 0.930 . S
H373 C364 0.931 . S
H374 C365 0.931 . S
H375 C366 0.933 . S
Dy376 O379 2.307 . S
Dy376 O381 2.395 . S
Dy376 O382 2.379 . S
Dy376 O384 2.339 . S
Dy376 O386 2.298 . S
Dy376 O390 2.275 . S
Dy376 C398 2.738 . S
Dy377 O380 2.298 . S
Dy377 O383 2.275 . S
Dy377 O385 2.307 . S
Dy377 O387 2.395 . S
Dy377 O388 2.379 . S
Dy377 O391 2.339 . S
Dy377 C407 2.738 . S
C378 O390 1.254 . S
C378 O391 1.257 . S
O379 Dy376 2.307 . S
O379 C389 1.266 . S
O380 Dy377 2.298 . S
O380 C389 1.236 . S
O381 Dy376 2.395 . S
O381 C398 1.255 . S
O382 Dy376 2.379 . S
O382 C398 1.249 . S
O383 Dy377 2.275 . S
O383 C399 1.254 . S
O384 Dy376 2.339 . S
O384 C399 1.257 . S
O385 Dy377 2.307 . S
O385 C400 1.266 . S
O386 Dy376 2.298 . S
O386 C400 1.236 . S
O387 Dy377 2.395 . S
O387 C407 1.255 . S
O388 Dy377 2.379 . S
O388 C407 1.249 . S
C389 O379 1.266 . S
C389 O380 1.236 . S
O390 Dy376 2.275 . S
O390 C378 1.254 . S
O391 Dy377 2.339 . S
O391 C378 1.257 . S
C392 C395 1.344 . S
C392 C396 1.328 . S
C392 C398 1.516 . S
C393 C394 1.304 . S
C393 C397 1.323 . S
C394 C393 1.304 . S
C394 C395 1.371 . S
C394 H408 0.930 . S
C395 C392 1.344 . S
C395 C394 1.371 . S
C395 H409 0.931 . S
C396 C392 1.328 . S
C396 C397 1.433 . S
C396 H410 0.931 . S
C397 C393 1.323 . S
C397 C396 1.433 . S
C397 H411 0.933 . S
C398 Dy376 2.738 . S
C398 O381 1.255 . S
C398 O382 1.249 . S
C398 C392 1.516 . S
C399 O383 1.254 . S
C399 O384 1.257 . S
C400 O385 1.266 . S
C400 O386 1.236 . S
C401 C404 1.344 . S
C401 C405 1.328 . S
C401 C407 1.516 . S
C402 C403 1.304 . S
C402 C406 1.323 . S
C403 C402 1.304 . S
C403 C404 1.371 . S
C403 H412 0.930 . S
C404 C401 1.344 . S
C404 C403 1.371 . S
C404 H413 0.931 . S
C405 C401 1.328 . S
C405 C406 1.433 . S
C405 H414 0.931 . S
C406 C402 1.323 . S
C406 C405 1.433 . S
C406 H415 0.933 . S
C407 Dy377 2.738 . S
C407 O387 1.255 . S
C407 O388 1.249 . S
C407 C401 1.516 . S
H408 C394 0.930 . S
H409 C395 0.931 . S
H410 C396 0.931 . S
H411 C397 0.933 . S
H412 C403 0.930 . S
H413 C404 0.931 . S
H414 C405 0.931 . S
H415 C406 0.933 . S
Dy416 O419 2.307 . S
Dy416 O421 2.395 . S
Dy416 O422 2.379 . S
Dy416 O424 2.339 . S
Dy416 O426 2.298 . S
Dy416 O430 2.275 . S
Dy416 C438 2.738 . S
Dy417 O420 2.298 . S
Dy417 O423 2.275 . S
Dy417 O425 2.307 . S
Dy417 O427 2.395 . S
Dy417 O428 2.379 . S
Dy417 O431 2.339 . S
Dy417 C447 2.738 . S
C418 O430 1.254 . S
C418 O431 1.257 . S
O419 Dy416 2.307 . S
O419 C429 1.266 1_545 S
O420 Dy417 2.298 . S
O420 C429 1.236 1_545 S
O421 Dy416 2.395 . S
O421 C438 1.255 . S
O422 Dy416 2.379 . S
O422 C438 1.249 . S
O423 Dy417 2.275 . S
O423 C439 1.254 . S
O424 Dy416 2.339 . S
O424 C439 1.257 . S
O425 Dy417 2.307 . S
O425 C440 1.266 . S
O426 Dy416 2.298 . S
O426 C440 1.236 . S
O427 Dy417 2.395 . S
O427 C447 1.255 . S
O428 Dy417 2.379 . S
O428 C447 1.249 . S
C429 O419 1.266 1_565 S
C429 O420 1.236 1_565 S
O430 Dy416 2.275 . S
O430 C418 1.254 . S
O431 Dy417 2.339 . S
O431 C418 1.257 . S
C432 C435 1.344 . S
C432 C436 1.328 . S
C432 C438 1.516 . S
C433 C434 1.304 . S
C433 C437 1.323 . S
C434 C433 1.304 . S
C434 C435 1.371 . S
C434 H448 0.930 . S
C435 C432 1.344 . S
C435 C434 1.371 . S
C435 H449 0.931 . S
C436 C432 1.328 . S
C436 C437 1.433 . S
C436 H450 0.931 . S
C437 C433 1.323 . S
C437 C436 1.433 . S
C437 H451 0.933 . S
C438 Dy416 2.738 . S
C438 O421 1.255 . S
C438 O422 1.249 . S
C438 C432 1.516 . S
C439 O423 1.254 . S
C439 O424 1.257 . S
C440 O425 1.266 . S
C440 O426 1.236 . S
C441 C444 1.344 1_545 S
C441 C445 1.330 . S
C441 C447 1.516 . S
C442 C443 1.304 . S
C442 C446 1.323 . S
C443 C442 1.304 . S
C443 C444 1.371 . S
C443 H452 0.930 . S
C444 C441 1.344 1_565 S
C444 C443 1.371 . S
C444 H453 0.931 . S
C445 C441 1.330 . S
C445 C446 1.420 1_545 S
C445 H454 0.942 . S
C446 C442 1.323 . S
C446 C445 1.420 1_565 S
C446 H455 0.933 . S
C447 Dy417 2.738 . S
C447 O427 1.255 . S
C447 O428 1.249 . S
C447 C441 1.516 . S
H448 C434 0.930 . S
H449 C435 0.931 . S
H450 C436 0.931 . S
H451 C437 0.933 . S
H452 C443 0.930 . S
H453 C444 0.931 . S
H454 C445 0.942 . S
H455 C446 0.933 . S
Dy456 O459 2.307 . S
Dy456 O461 2.395 . S
Dy456 O462 2.379 . S
Dy456 O464 2.339 . S
Dy456 O466 2.298 . S
Dy456 O470 2.275 . S
Dy456 C478 2.738 . S
Dy457 O460 2.298 . S
Dy457 O463 2.275 . S
Dy457 O465 2.307 . S
Dy457 O467 2.395 . S
Dy457 O468 2.379 . S
Dy457 O471 2.339 . S
Dy457 C487 2.738 . S
C458 O470 1.254 . S
C458 O471 1.257 . S
O459 Dy456 2.307 . S
O459 C469 1.266 . S
O460 Dy457 2.298 . S
O460 C469 1.236 . S
O461 Dy456 2.395 . S
O461 C478 1.255 . S
O462 Dy456 2.379 . S
O462 C478 1.249 . S
O463 Dy457 2.275 . S
O463 C479 1.254 . S
O464 Dy456 2.339 . S
O464 C479 1.257 . S
O465 Dy457 2.307 . S
O465 C480 1.266 . S
O466 Dy456 2.298 . S
O466 C480 1.236 . S
O467 Dy457 2.395 . S
O467 C487 1.255 . S
O468 Dy457 2.379 . S
O468 C487 1.249 . S
C469 O459 1.266 . S
C469 O460 1.236 . S
O470 Dy456 2.275 . S
O470 C458 1.254 . S
O471 Dy457 2.339 . S
O471 C458 1.257 . S
C472 C475 1.344 . S
C472 C476 1.328 . S
C472 C478 1.516 . S
C473 C474 1.304 . S
C473 C477 1.323 . S
C474 C473 1.304 . S
C474 C475 1.371 . S
C474 H488 0.930 . S
C475 C472 1.344 . S
C475 C474 1.371 . S
C475 H489 0.931 . S
C476 C472 1.328 . S
C476 C477 1.433 . S
C476 H490 0.931 . S
C477 C473 1.323 . S
C477 C476 1.433 . S
C477 H491 0.933 . S
C478 Dy456 2.738 . S
C478 O461 1.255 . S
C478 O462 1.249 . S
C478 C472 1.516 . S
C479 O463 1.254 . S
C479 O464 1.257 . S
C480 O465 1.266 . S
C480 O466 1.236 . S
C481 C484 1.344 . S
C481 C485 1.328 . S
C481 C487 1.516 . S
C482 C483 1.304 . S
C482 C486 1.323 . S
C483 C482 1.304 . S
C483 C484 1.371 . S
C483 H492 0.930 . S
C484 C481 1.344 . S
C484 C483 1.371 . S
C484 H493 0.931 . S
C485 C481 1.328 . S
C485 C486 1.433 . S
C485 H494 0.931 . S
C486 C482 1.323 . S
C486 C485 1.433 . S
C486 H495 0.933 . S
C487 Dy457 2.738 . S
C487 O467 1.255 . S
C487 O468 1.249 . S
C487 C481 1.516 . S
H488 C474 0.930 . S
H489 C475 0.931 . S
H490 C476 0.931 . S
H491 C477 0.933 . S
H492 C483 0.930 . S
H493 C484 0.931 . S
H494 C485 0.931 . S
H495 C486 0.933 . S
Dy496 O499 2.307 . S
Dy496 O501 2.395 1_545 S
Dy496 O502 2.379 1_545 S
Dy496 O504 2.339 . S
Dy496 O506 2.298 . S
Dy496 O510 2.275 . S
Dy496 C518 2.738 1_545 S
Dy497 O500 2.298 . S
Dy497 O503 2.275 . S
Dy497 O505 2.307 . S
Dy497 O507 2.395 . S
Dy497 O508 2.379 . S
Dy497 O511 2.339 1_455 S
Dy497 C527 2.738 . S
C498 O510 1.254 1_655 S
C498 O511 1.257 . S
O499 Dy496 2.307 . S
O499 C509 1.266 . S
O500 Dy497 2.298 . S
O500 C509 1.236 . S
O501 Dy496 2.395 1_565 S
O501 C518 1.255 . S
O502 Dy496 2.379 1_565 S
O502 C518 1.249 . S
O503 Dy497 2.275 . S
O503 C519 1.254 . S
O504 Dy496 2.339 . S
O504 C519 1.257 . S
O505 Dy497 2.307 . S
O505 C520 1.266 . S
O506 Dy496 2.298 . S
O506 C520 1.236 . S
O507 Dy497 2.395 . S
O507 C527 1.255 . S
O508 Dy497 2.379 . S
O508 C527 1.249 . S
C509 O499 1.266 . S
C509 O500 1.236 . S
O510 Dy496 2.275 . S
O510 C498 1.254 1_455 S
O511 Dy497 2.339 1_655 S
O511 C498 1.257 . S
C512 C515 1.344 . S
C512 C516 1.328 . S
C512 C518 1.516 . S
C513 C514 1.304 . S
C513 C517 1.323 . S
C514 C513 1.304 . S
C514 C515 1.371 . S
C514 H528 0.930 . S
C515 C512 1.344 . S
C515 C514 1.371 . S
C515 H529 0.931 . S
C516 C512 1.328 . S
C516 C517 1.433 . S
C516 H530 0.931 . S
C517 C513 1.323 . S
C517 C516 1.433 . S
C517 H531 0.933 . S
C518 Dy496 2.738 1_565 S
C518 O501 1.255 . S
C518 O502 1.249 . S
C518 C512 1.516 . S
C519 O503 1.254 . S
C519 O504 1.257 . S
C520 O505 1.266 . S
C520 O506 1.236 . S
C521 C524 1.344 . S
C521 C525 1.328 1_455 S
C521 C527 1.516 . S
C522 C523 1.304 . S
C522 C526 1.323 1_455 S
C523 C522 1.304 . S
C523 C524 1.371 . S
C523 H532 0.930 . S
C524 C521 1.344 . S
C524 C523 1.371 . S
C524 H533 0.931 . S
C525 C521 1.328 1_655 S
C525 C526 1.433 . S
C525 H534 0.931 . S
C526 C522 1.323 1_655 S
C526 C525 1.433 . S
C526 H535 0.933 . S
C527 Dy497 2.738 . S
C527 O507 1.255 . S
C527 O508 1.249 . S
C527 C521 1.516 . S
H528 C514 0.930 . S
H529 C515 0.931 . S
H530 C516 0.931 . S
H531 C517 0.933 . S
H532 C523 0.930 . S
H533 C524 0.931 . S
H534 C525 0.931 . S
H535 C526 0.933 . S
Dy536 O539 2.307 . S
Dy536 O541 2.395 . S
Dy536 O542 2.379 . S
Dy536 O544 2.339 . S
Dy536 O546 2.298 . S
Dy536 O550 2.275 . S
Dy536 C558 2.738 . S
Dy537 O540 2.298 . S
Dy537 O543 2.275 . S
Dy537 O545 2.307 . S
Dy537 O547 2.395 . S
Dy537 O548 2.379 . S
Dy537 O551 2.339 . S
Dy537 C567 2.738 . S
C538 O550 1.254 . S
C538 O551 1.257 . S
O539 Dy536 2.307 . S
O539 C549 1.266 . S
O540 Dy537 2.298 . S
O540 C549 1.236 . S
O541 Dy536 2.395 . S
O541 C558 1.255 . S
O542 Dy536 2.379 . S
O542 C558 1.249 . S
O543 Dy537 2.275 . S
O543 C559 1.254 . S
O544 Dy536 2.339 . S
O544 C559 1.257 . S
O545 Dy537 2.307 . S
O545 C560 1.266 . S
O546 Dy536 2.298 . S
O546 C560 1.236 . S
O547 Dy537 2.395 . S
O547 C567 1.255 . S
O548 Dy537 2.379 . S
O548 C567 1.249 . S
C549 O539 1.266 . S
C549 O540 1.236 . S
O550 Dy536 2.275 . S
O550 C538 1.254 . S
O551 Dy537 2.339 . S
O551 C538 1.257 . S
C552 C555 1.344 . S
C552 C556 1.328 . S
C552 C558 1.516 . S
C553 C554 1.304 . S
C553 C557 1.323 . S
C554 C553 1.304 . S
C554 C555 1.371 . S
C554 H568 0.930 . S
C555 C552 1.344 . S
C555 C554 1.371 . S
C555 H569 0.931 . S
C556 C552 1.328 . S
C556 C557 1.433 . S
C556 H570 0.931 . S
C557 C553 1.323 . S
C557 C556 1.433 . S
C557 H571 0.933 . S
C558 Dy536 2.738 . S
C558 O541 1.255 . S
C558 O542 1.249 . S
C558 C552 1.516 . S
C559 O543 1.254 . S
C559 O544 1.257 . S
C560 O545 1.266 . S
C560 O546 1.236 . S
C561 C564 1.344 . S
C561 C565 1.328 . S
C561 C567 1.516 . S
C562 C563 1.304 . S
C562 C566 1.323 . S
C563 C562 1.304 . S
C563 C564 1.371 . S
C563 H572 0.930 . S
C564 C561 1.344 . S
C564 C563 1.371 . S
C564 H573 0.931 . S
C565 C561 1.328 . S
C565 C566 1.433 . S
C565 H574 0.931 . S
C566 C562 1.323 . S
C566 C565 1.433 . S
C566 H575 0.933 . S
C567 Dy537 2.738 . S
C567 O547 1.255 . S
C567 O548 1.249 . S
C567 C561 1.516 . S
H568 C554 0.930 . S
H569 C555 0.931 . S
H570 C556 0.931 . S
H571 C557 0.933 . S
H572 C563 0.930 . S
H573 C564 0.931 . S
H574 C565 0.931 . S
H575 C566 0.933 . S
Dy576 O579 2.307 . S
Dy576 O581 2.395 1_554 S
Dy576 O582 2.379 1_554 S
Dy576 O584 2.339 . S
Dy576 O586 2.298 . S
Dy576 O590 2.275 . S
Dy576 C598 2.738 1_554 S
Dy577 O580 2.298 . S
Dy577 O583 2.275 . S
Dy577 O585 2.307 . S
Dy577 O587 2.395 . S
Dy577 O588 2.379 . S
Dy577 O591 2.339 1_545 S
Dy577 C607 2.738 . S
C578 O590 1.254 . S
C578 O591 1.257 1_545 S
O579 Dy576 2.307 . S
O579 C589 1.266 . S
O580 Dy577 2.298 . S
O580 C589 1.236 . S
O581 Dy576 2.395 1_556 S
O581 C598 1.255 . S
O582 Dy576 2.379 1_556 S
O582 C598 1.249 . S
O583 Dy577 2.275 . S
O583 C599 1.254 . S
O584 Dy576 2.339 . S
O584 C599 1.257 . S
O585 Dy577 2.307 . S
O585 C600 1.266 . S
O586 Dy576 2.298 . S
O586 C600 1.236 . S
O587 Dy577 2.395 . S
O587 C607 1.255 . S
O588 Dy577 2.379 . S
O588 C607 1.249 . S
C589 O579 1.266 . S
C589 O580 1.236 . S
O590 Dy576 2.275 . S
O590 C578 1.254 . S
O591 Dy577 2.339 1_565 S
O591 C578 1.257 1_565 S
C592 C595 1.344 . S
C592 C596 1.328 . S
C592 C598 1.516 . S
C593 C594 1.304 . S
C593 C597 1.323 . S
C594 C593 1.304 . S
C594 C595 1.371 . S
C594 H608 0.930 . S
C595 C592 1.344 . S
C595 C594 1.371 . S
C595 H609 0.931 . S
C596 C592 1.328 . S
C596 C597 1.433 . S
C596 H610 0.931 . S
C597 C593 1.323 . S
C597 C596 1.433 . S
C597 H611 0.933 . S
C598 Dy576 2.738 1_556 S
C598 O581 1.255 . S
C598 O582 1.249 . S
C598 C592 1.516 . S
C599 O583 1.254 . S
C599 O584 1.257 . S
C600 O585 1.266 . S
C600 O586 1.236 . S
C601 C604 1.344 . S
C601 C605 1.328 1_545 S
C601 C607 1.516 . S
C602 C603 1.304 1_565 S
C602 C606 1.323 . S
C603 C602 1.304 1_545 S
C603 C604 1.371 . S
C603 H612 0.930 . S
C604 C601 1.344 . S
C604 C603 1.371 . S
C604 H613 0.931 . S
C605 C601 1.328 1_565 S
C605 C606 1.433 . S
C605 H614 0.931 . S
C606 C602 1.323 . S
C606 C605 1.433 . S
C606 H615 0.933 . S
C607 Dy577 2.738 . S
C607 O587 1.255 . S
C607 O588 1.249 . S
C607 C601 1.516 . S
H608 C594 0.930 . S
H609 C595 0.931 . S
H610 C596 0.931 . S
H611 C597 0.933 . S
H612 C603 0.930 . S
H613 C604 0.931 . S
H614 C605 0.931 . S
H615 C606 0.933 . S
Dy616 O619 2.307 . S
Dy616 O621 2.395 . S
Dy616 O622 2.379 . S
Dy616 O624 2.339 . S
Dy616 O626 2.298 . S
Dy616 O630 2.275 . S
Dy616 C638 2.738 . S
Dy617 O620 2.298 . S
Dy617 O623 2.275 . S
Dy617 O625 2.307 . S
Dy617 O627 2.395 . S
Dy617 O628 2.379 . S
Dy617 O631 2.339 . S
Dy617 C647 2.738 . S
C618 O630 1.254 . S
C618 O631 1.257 . S
O619 Dy616 2.307 . S
O619 C629 1.266 . S
O620 Dy617 2.298 . S
O620 C629 1.236 . S
O621 Dy616 2.395 . S
O621 C638 1.255 . S
O622 Dy616 2.379 . S
O622 C638 1.249 . S
O623 Dy617 2.275 . S
O623 C639 1.254 . S
O624 Dy616 2.339 . S
O624 C639 1.257 . S
O625 Dy617 2.307 . S
O625 C640 1.266 . S
O626 Dy616 2.298 . S
O626 C640 1.236 . S
O627 Dy617 2.395 . S
O627 C647 1.255 . S
O628 Dy617 2.379 . S
O628 C647 1.249 . S
C629 O619 1.266 . S
C629 O620 1.236 . S
O630 Dy616 2.275 . S
O630 C618 1.254 . S
O631 Dy617 2.339 . S
O631 C618 1.257 . S
C632 C635 1.344 . S
C632 C636 1.328 . S
C632 C638 1.516 . S
C633 C634 1.304 . S
C633 C637 1.323 . S
C634 C633 1.304 . S
C634 C635 1.371 . S
C634 H648 0.930 . S
C635 C632 1.344 . S
C635 C634 1.371 . S
C635 H649 0.931 . S
C636 C632 1.328 . S
C636 C637 1.433 . S
C636 H650 0.931 . S
C637 C633 1.323 . S
C637 C636 1.433 . S
C637 H651 0.933 . S
C638 Dy616 2.738 . S
C638 O621 1.255 . S
C638 O622 1.249 . S
C638 C632 1.516 . S
C639 O623 1.254 . S
C639 O624 1.257 . S
C640 O625 1.266 . S
C640 O626 1.236 . S
C641 C644 1.344 . S
C641 C645 1.328 . S
C641 C647 1.516 . S
C642 C643 1.304 . S
C642 C646 1.323 . S
C643 C642 1.304 . S
C643 C644 1.371 . S
C643 H652 0.930 . S
C644 C641 1.344 . S
C644 C643 1.371 . S
C644 H653 0.931 . S
C645 C641 1.328 . S
C645 C646 1.433 . S
C645 H654 0.931 . S
C646 C642 1.323 . S
C646 C645 1.433 . S
C646 H655 0.933 . S
C647 Dy617 2.738 . S
C647 O627 1.255 . S
C647 O628 1.249 . S
C647 C641 1.516 . S
H648 C634 0.930 . S
H649 C635 0.931 . S
H650 C636 0.931 . S
H651 C637 0.933 . S
H652 C643 0.930 . S
H653 C644 0.931 . S
H654 C645 0.931 . S
H655 C646 0.933 . S
Dy656 O659 2.307 1_554 S
Dy656 O661 2.395 . S
Dy656 O662 2.379 . S
Dy656 O664 2.339 . S
Dy656 O666 2.298 . S
Dy656 O670 2.275 . S
Dy656 C678 2.738 . S
Dy657 O660 2.298 1_554 S
Dy657 O663 2.275 . S
Dy657 O665 2.307 . S
Dy657 O667 2.395 . S
Dy657 O668 2.379 . S
Dy657 O671 2.339 . S
Dy657 C687 2.738 . S
C658 O670 1.254 . S
C658 O671 1.257 . S
O659 Dy656 2.307 1_556 S
O659 C669 1.266 . S
O660 Dy657 2.298 1_556 S
O660 C669 1.236 . S
O661 Dy656 2.395 . S
O661 C678 1.255 . S
O662 Dy656 2.379 . S
O662 C678 1.249 . S
O663 Dy657 2.275 . S
O663 C679 1.254 . S
O664 Dy656 2.339 . S
O664 C679 1.257 . S
O665 Dy657 2.307 . S
O665 C680 1.266 . S
O666 Dy656 2.298 . S
O666 C680 1.236 . S
O667 Dy657 2.395 . S
O667 C687 1.255 . S
O668 Dy657 2.379 . S
O668 C687 1.249 . S
C669 O659 1.266 . S
C669 O660 1.236 . S
O670 Dy656 2.275 . S
O670 C658 1.254 . S
O671 Dy657 2.339 . S
O671 C658 1.257 . S
C672 C675 1.344 . S
C672 C676 1.328 . S
C672 C678 1.516 . S
C673 C674 1.304 . S
C673 C677 1.323 . S
C674 C673 1.304 . S
C674 C675 1.371 . S
C674 H688 0.930 . S
C675 C672 1.344 . S
C675 C674 1.371 . S
C675 H689 0.931 . S
C676 C672 1.328 . S
C676 C677 1.433 . S
C676 H690 0.931 . S
C677 C673 1.323 . S
C677 C676 1.433 . S
C677 H691 0.933 . S
C678 Dy656 2.738 . S
C678 O661 1.255 . S
C678 O662 1.249 . S
C678 C672 1.516 . S
C679 O663 1.254 . S
C679 O664 1.257 . S
C680 O665 1.266 . S
C680 O666 1.236 . S
C681 C684 1.344 . S
C681 C685 1.328 . S
C681 C687 1.516 1_556 S
C682 C683 1.304 . S
C682 C686 1.323 . S
C683 C682 1.304 . S
C683 C684 1.371 . S
C683 H692 0.930 . S
C684 C681 1.344 . S
C684 C683 1.371 . S
C684 H693 0.931 . S
C685 C681 1.328 . S
C685 C686 1.433 . S
C685 H694 0.931 1_556 S
C686 C682 1.323 . S
C686 C685 1.433 . S
C686 H695 0.933 . S
C687 Dy657 2.738 . S
C687 O667 1.255 . S
C687 O668 1.249 . S
C687 C681 1.516 1_554 S
H688 C674 0.930 . S
H689 C675 0.931 . S
H690 C676 0.931 . S
H691 C677 0.933 . S
H692 C683 0.930 . S
H693 C684 0.931 . S
H694 C685 0.931 1_554 S
H695 C686 0.933 . S
Dy696 O699 2.307 . S
Dy696 O701 2.395 . S
Dy696 O702 2.379 . S
Dy696 O704 2.339 . S
Dy696 O706 2.298 . S
Dy696 O710 2.275 . S
Dy696 C718 2.738 . S
Dy697 O700 2.298 . S
Dy697 O703 2.275 . S
Dy697 O705 2.307 . S
Dy697 O707 2.395 . S
Dy697 O708 2.379 . S
Dy697 O711 2.339 . S
Dy697 C727 2.738 . S
C698 O710 1.254 . S
C698 O711 1.257 . S
O699 Dy696 2.307 . S
O699 C709 1.266 . S
O700 Dy697 2.298 . S
O700 C709 1.236 . S
O701 Dy696 2.395 . S
O701 C718 1.255 . S
O702 Dy696 2.379 . S
O702 C718 1.249 . S
O703 Dy697 2.275 . S
O703 C719 1.254 . S
O704 Dy696 2.339 . S
O704 C719 1.257 . S
O705 Dy697 2.307 . S
O705 C720 1.266 . S
O706 Dy696 2.298 . S
O706 C720 1.236 . S
O707 Dy697 2.395 . S
O707 C727 1.255 . S
O708 Dy697 2.379 . S
O708 C727 1.249 . S
C709 O699 1.266 . S
C709 O700 1.236 . S
O710 Dy696 2.275 . S
O710 C698 1.254 . S
O711 Dy697 2.339 . S
O711 C698 1.257 . S
C712 C715 1.344 . S
C712 C716 1.328 . S
C712 C718 1.516 . S
C713 C714 1.304 . S
C713 C717 1.323 . S
C714 C713 1.304 . S
C714 C715 1.371 . S
C714 H728 0.930 . S
C715 C712 1.344 . S
C715 C714 1.371 . S
C715 H729 0.931 . S
C716 C712 1.328 . S
C716 C717 1.433 . S
C716 H730 0.931 . S
C717 C713 1.323 . S
C717 C716 1.433 . S
C717 H731 0.933 . S
C718 Dy696 2.738 . S
C718 O701 1.255 . S
C718 O702 1.249 . S
C718 C712 1.516 . S
C719 O703 1.254 . S
C719 O704 1.257 . S
C720 O705 1.266 . S
C720 O706 1.236 . S
C721 C724 1.344 . S
C721 C725 1.328 . S
C721 C727 1.516 . S
C722 C723 1.304 . S
C722 C726 1.323 . S
C723 C722 1.304 . S
C723 C724 1.371 . S
C723 H732 0.930 . S
C724 C721 1.344 . S
C724 C723 1.371 . S
C724 H733 0.931 . S
C725 C721 1.328 . S
C725 C726 1.433 . S
C725 H734 0.931 . S
C726 C722 1.323 . S
C726 C725 1.433 . S
C726 H735 0.933 . S
C727 Dy697 2.738 . S
C727 O707 1.255 . S
C727 O708 1.249 . S
C727 C721 1.516 . S
H728 C714 0.930 . S
H729 C715 0.931 . S
H730 C716 0.931 . S
H731 C717 0.933 . S
H732 C723 0.930 . S
H733 C724 0.931 . S
H734 C725 0.931 . S
H735 C726 0.933 . S
Dy736 O739 2.307 1_455 S
Dy736 O741 2.395 . S
Dy736 O742 2.379 . S
Dy736 O744 2.339 . S
Dy736 O746 2.298 . S
Dy736 O750 2.275 . S
Dy736 C758 2.738 . S
Dy737 O740 2.298 1_455 S
Dy737 O743 2.275 . S
Dy737 O745 2.307 . S
Dy737 O747 2.395 . S
Dy737 O748 2.379 . S
Dy737 O751 2.339 . S
Dy737 C767 2.738 . S
C738 O750 1.254 . S
C738 O751 1.257 . S
O739 Dy736 2.307 1_655 S
O739 C749 1.266 . S
O740 Dy737 2.298 1_655 S
O740 C749 1.236 . S
O741 Dy736 2.395 . S
O741 C758 1.255 . S
O742 Dy736 2.379 . S
O742 C758 1.249 . S
O743 Dy737 2.275 . S
O743 C759 1.254 . S
O744 Dy736 2.339 . S
O744 C759 1.257 . S
O745 Dy737 2.307 . S
O745 C760 1.266 . S
O746 Dy736 2.298 . S
O746 C760 1.236 . S
O747 Dy737 2.395 . S
O747 C767 1.255 . S
O748 Dy737 2.379 . S
O748 C767 1.249 . S
C749 O739 1.266 . S
C749 O740 1.236 . S
O750 Dy736 2.275 . S
O750 C738 1.254 . S
O751 Dy737 2.339 . S
O751 C738 1.257 . S
C752 C755 1.344 . S
C752 C756 1.328 . S
C752 C758 1.516 . S
C753 C754 1.304 . S
C753 C757 1.323 . S
C754 C753 1.304 . S
C754 C755 1.371 . S
C754 H768 0.930 . S
C755 C752 1.344 . S
C755 C754 1.371 . S
C755 H769 0.931 . S
C756 C752 1.328 . S
C756 C757 1.433 . S
C756 H770 0.931 . S
C757 C753 1.323 . S
C757 C756 1.433 . S
C757 H771 0.933 . S
C758 Dy736 2.738 . S
C758 O741 1.255 . S
C758 O742 1.249 . S
C758 C752 1.516 . S
C759 O743 1.254 . S
C759 O744 1.257 . S
C760 O745 1.266 . S
C760 O746 1.236 . S
C761 C764 1.344 . S
C761 C765 1.328 . S
C761 C767 1.516 1_655 S
C762 C763 1.304 . S
C762 C766 1.323 . S
C763 C762 1.304 . S
C763 C764 1.371 . S
C763 H772 0.930 . S
C764 C761 1.344 . S
C764 C763 1.371 . S
C764 H773 0.931 . S
C765 C761 1.328 . S
C765 C766 1.433 . S
C765 H774 0.905 1_655 S
C766 C762 1.323 . S
C766 C765 1.433 . S
C766 H775 0.933 . S
C767 Dy737 2.738 . S
C767 O747 1.255 . S
C767 O748 1.249 . S
C767 C761 1.516 1_455 S
H768 C754 0.930 . S
H769 C755 0.931 . S
H770 C756 0.931 . S
H771 C757 0.933 . S
H772 C763 0.930 . S
H773 C764 0.931 . S
H774 C765 0.905 1_455 S
H775 C766 0.933 . S
Dy776 O779 2.307 . S
Dy776 O781 2.395 . S
Dy776 O782 2.379 . S
Dy776 O784 2.339 . S
Dy776 O786 2.298 . S
Dy776 O790 2.275 . S
Dy776 C798 2.738 . S
Dy777 O780 2.298 . S
Dy777 O783 2.275 . S
Dy777 O785 2.307 . S
Dy777 O787 2.395 . S
Dy777 O788 2.379 . S
Dy777 O791 2.339 . S
Dy777 C807 2.738 . S
C778 O790 1.254 . S
C778 O791 1.257 . S
O779 Dy776 2.307 . S
O779 C789 1.266 . S
O780 Dy777 2.298 . S
O780 C789 1.236 . S
O781 Dy776 2.395 . S
O781 C798 1.255 . S
O782 Dy776 2.379 . S
O782 C798 1.249 . S
O783 Dy777 2.275 . S
O783 C799 1.254 . S
O784 Dy776 2.339 . S
O784 C799 1.257 . S
O785 Dy777 2.307 . S
O785 C800 1.266 . S
O786 Dy776 2.298 . S
O786 C800 1.236 . S
O787 Dy777 2.395 . S
O787 C807 1.255 . S
O788 Dy777 2.379 . S
O788 C807 1.249 . S
C789 O779 1.266 . S
C789 O780 1.236 . S
O790 Dy776 2.275 . S
O790 C778 1.254 . S
O791 Dy777 2.339 . S
O791 C778 1.257 . S
C792 C795 1.344 . S
C792 C796 1.328 . S
C792 C798 1.516 . S
C793 C794 1.304 . S
C793 C797 1.323 . S
C794 C793 1.304 . S
C794 C795 1.371 . S
C794 H808 0.930 . S
C795 C792 1.344 . S
C795 C794 1.371 . S
C795 H809 0.931 . S
C796 C792 1.328 . S
C796 C797 1.433 . S
C796 H810 0.931 . S
C797 C793 1.323 . S
C797 C796 1.433 . S
C797 H811 0.933 . S
C798 Dy776 2.738 . S
C798 O781 1.255 . S
C798 O782 1.249 . S
C798 C792 1.516 . S
C799 O783 1.254 . S
C799 O784 1.257 . S
C800 O785 1.266 . S
C800 O786 1.236 . S
C801 C804 1.344 . S
C801 C805 1.328 . S
C801 C807 1.516 . S
C802 C803 1.304 . S
C802 C806 1.323 . S
C803 C802 1.304 . S
C803 C804 1.371 . S
C803 H812 0.930 . S
C804 C801 1.344 . S
C804 C803 1.371 . S
C804 H813 0.931 . S
C805 C801 1.328 . S
C805 C806 1.433 . S
C805 H814 0.931 . S
C806 C802 1.323 . S
C806 C805 1.433 . S
C806 H815 0.933 . S
C807 Dy777 2.738 . S
C807 O787 1.255 . S
C807 O788 1.249 . S
C807 C801 1.516 . S
H808 C794 0.930 . S
H809 C795 0.931 . S
H810 C796 0.931 . S
H811 C797 0.933 . S
H812 C803 0.930 . S
H813 C804 0.931 . S
H814 C805 0.931 . S
H815 C806 0.933 . S
Dy816 O819 2.307 . S
Dy816 O821 2.395 . S
Dy816 O822 2.379 . S
Dy816 O824 2.339 . S
Dy816 O826 2.298 . S
Dy816 O830 2.275 . S
Dy816 C838 2.738 . S
Dy817 O820 2.298 . S
Dy817 O823 2.275 . S
Dy817 O825 2.307 . S
Dy817 O827 2.395 . S
Dy817 O828 2.379 . S
Dy817 O831 2.339 . S
Dy817 C847 2.738 . S
C818 O830 1.254 . S
C818 O831 1.257 . S
O819 Dy816 2.307 . S
O819 C829 1.266 . S
O820 Dy817 2.298 . S
O820 C829 1.236 . S
O821 Dy816 2.395 . S
O821 C838 1.255 . S
O822 Dy816 2.379 . S
O822 C838 1.249 . S
O823 Dy817 2.275 . S
O823 C839 1.254 . S
O824 Dy816 2.339 . S
O824 C839 1.257 . S
O825 Dy817 2.307 . S
O825 C840 1.266 . S
O826 Dy816 2.298 . S
O826 C840 1.236 . S
O827 Dy817 2.395 . S
O827 C847 1.255 . S
O828 Dy817 2.379 . S
O828 C847 1.249 . S
C829 O819 1.266 . S
C829 O820 1.236 . S
O830 Dy816 2.275 . S
O830 C818 1.254 . S
O831 Dy817 2.339 . S
O831 C818 1.257 . S
C832 C835 1.344 . S
C832 C836 1.328 . S
C832 C838 1.516 . S
C833 C834 1.304 . S
C833 C837 1.323 . S
C834 C833 1.304 . S
C834 C835 1.371 . S
C834 H848 0.930 . S
C835 C832 1.344 . S
C835 C834 1.371 . S
C835 H849 0.931 . S
C836 C832 1.328 . S
C836 C837 1.433 . S
C836 H850 0.931 . S
C837 C833 1.323 . S
C837 C836 1.433 . S
C837 H851 0.933 . S
C838 Dy816 2.738 . S
C838 O821 1.255 . S
C838 O822 1.249 . S
C838 C832 1.516 . S
C839 O823 1.254 . S
C839 O824 1.257 . S
C840 O825 1.266 . S
C840 O826 1.236 . S
C841 C844 1.344 . S
C841 C845 1.328 . S
C841 C847 1.516 . S
C842 C843 1.304 . S
C842 C846 1.323 . S
C843 C842 1.304 . S
C843 C844 1.371 . S
C843 H852 0.930 . S
C844 C841 1.344 . S
C844 C843 1.371 . S
C844 H853 0.931 . S
C845 C841 1.328 . S
C845 C846 1.433 . S
C845 H854 0.931 . S
C846 C842 1.323 . S
C846 C845 1.433 . S
C846 H855 0.933 . S
C847 Dy817 2.738 . S
C847 O827 1.255 . S
C847 O828 1.249 . S
C847 C841 1.516 . S
H848 C834 0.930 . S
H849 C835 0.931 . S
H850 C836 0.931 . S
H851 C837 0.933 . S
H852 C843 0.930 . S
H853 C844 0.931 . S
H854 C845 0.931 . S
H855 C846 0.933 . S
Dy856 O859 2.307 . S
Dy856 O861 2.395 . S
Dy856 O862 2.379 . S
Dy856 O864 2.339 . S
Dy856 O866 2.298 . S
Dy856 O870 2.275 . S
Dy856 C878 2.738 . S
Dy857 O860 2.298 . S
Dy857 O863 2.275 . S
Dy857 O865 2.307 . S
Dy857 O867 2.395 . S
Dy857 O868 2.379 . S
Dy857 O871 2.339 . S
Dy857 C887 2.738 . S
C858 O870 1.254 . S
C858 O871 1.257 . S
O859 Dy856 2.307 . S
O859 C869 1.266 . S
O860 Dy857 2.298 . S
O860 C869 1.236 . S
O861 Dy856 2.395 . S
O861 C878 1.255 . S
O862 Dy856 2.379 . S
O862 C878 1.249 . S
O863 Dy857 2.275 . S
O863 C879 1.254 . S
O864 Dy856 2.339 . S
O864 C879 1.257 . S
O865 Dy857 2.307 . S
O865 C880 1.266 . S
O866 Dy856 2.298 . S
O866 C880 1.236 . S
O867 Dy857 2.395 . S
O867 C887 1.255 . S
O868 Dy857 2.379 . S
O868 C887 1.249 . S
C869 O859 1.266 . S
C869 O860 1.236 . S
O870 Dy856 2.275 . S
O870 C858 1.254 . S
O871 Dy857 2.339 . S
O871 C858 1.257 . S
C872 C875 1.344 . S
C872 C876 1.328 . S
C872 C878 1.516 . S
C873 C874 1.304 . S
C873 C877 1.323 . S
C874 C873 1.304 . S
C874 C875 1.371 . S
C874 H888 0.930 . S
C875 C872 1.344 . S
C875 C874 1.371 . S
C875 H889 0.931 . S
C876 C872 1.328 . S
C876 C877 1.433 . S
C876 H890 0.931 . S
C877 C873 1.323 . S
C877 C876 1.433 . S
C877 H891 0.933 . S
C878 Dy856 2.738 . S
C878 O861 1.255 . S
C878 O862 1.249 . S
C878 C872 1.516 . S
C879 O863 1.254 . S
C879 O864 1.257 . S
C880 O865 1.266 . S
C880 O866 1.236 . S
C881 C884 1.344 . S
C881 C885 1.328 . S
C881 C887 1.516 . S
C882 C883 1.304 . S
C882 C886 1.323 . S
C883 C882 1.304 . S
C883 C884 1.371 . S
C883 H892 0.930 . S
C884 C881 1.344 . S
C884 C883 1.371 . S
C884 H893 0.931 . S
C885 C881 1.328 . S
C885 C886 1.433 . S
C885 H894 0.931 . S
C886 C882 1.323 . S
C886 C885 1.433 . S
C886 H895 0.933 . S
C887 Dy857 2.738 . S
C887 O867 1.255 . S
C887 O868 1.249 . S
C887 C881 1.516 . S
H888 C874 0.930 . S
H889 C875 0.931 . S
H890 C876 0.931 . S
H891 C877 0.933 . S
H892 C883 0.930 . S
H893 C884 0.931 . S
H894 C885 0.931 . S
H895 C886 0.933 . S
Dy896 O899 2.307 . S
Dy896 O901 2.395 . S
Dy896 O902 2.379 . S
Dy896 O904 2.339 . S
Dy896 O906 2.298 . S
Dy896 O910 2.275 . S
Dy896 C918 2.738 . S
Dy897 O900 2.298 . S
Dy897 O903 2.275 . S
Dy897 O905 2.307 . S
Dy897 O907 2.395 . S
Dy897 O908 2.379 . S
Dy897 O911 2.339 . S
Dy897 C927 2.738 . S
C898 O910 1.254 . S
C898 O911 1.257 . S
O899 Dy896 2.307 . S
O899 C909 1.266 . S
O900 Dy897 2.298 . S
O900 C909 1.236 . S
O901 Dy896 2.395 . S
O901 C918 1.255 . S
O902 Dy896 2.379 . S
O902 C918 1.249 . S
O903 Dy897 2.275 . S
O903 C919 1.254 . S
O904 Dy896 2.339 . S
O904 C919 1.257 . S
O905 Dy897 2.307 . S
O905 C920 1.266 . S
O906 Dy896 2.298 . S
O906 C920 1.236 . S
O907 Dy897 2.395 . S
O907 C927 1.255 . S
O908 Dy897 2.379 . S
O908 C927 1.249 . S
C909 O899 1.266 . S
C909 O900 1.236 . S
O910 Dy896 2.275 . S
O910 C898 1.254 . S
O911 Dy897 2.339 . S
O911 C898 1.257 . S
C912 C915 1.344 . S
C912 C916 1.328 . S
C912 C918 1.516 . S
C913 C914 1.304 . S
C913 C917 1.323 . S
C914 C913 1.304 . S
C914 C915 1.371 . S
C914 H928 0.930 . S
C915 C912 1.344 . S
C915 C914 1.371 . S
C915 H929 0.931 . S
C916 C912 1.328 . S
C916 C917 1.433 . S
C916 H930 0.931 . S
C917 C913 1.323 . S
C917 C916 1.433 . S
C917 H931 0.933 . S
C918 Dy896 2.738 . S
C918 O901 1.255 . S
C918 O902 1.249 . S
C918 C912 1.516 . S
C919 O903 1.254 . S
C919 O904 1.257 . S
C920 O905 1.266 . S
C920 O906 1.236 . S
C921 C924 1.344 . S
C921 C925 1.328 . S
C921 C927 1.516 . S
C922 C923 1.304 . S
C922 C926 1.323 . S
C923 C922 1.304 . S
C923 C924 1.371 . S
C923 H932 0.930 . S
C924 C921 1.344 . S
C924 C923 1.371 . S
C924 H933 0.931 . S
C925 C921 1.328 . S
C925 C926 1.433 . S
C925 H934 0.931 . S
C926 C922 1.323 . S
C926 C925 1.433 . S
C926 H935 0.933 . S
C927 Dy897 2.738 . S
C927 O907 1.255 . S
C927 O908 1.249 . S
C927 C921 1.516 . S
H928 C914 0.930 . S
H929 C915 0.931 . S
H930 C916 0.931 . S
H931 C917 0.933 . S
H932 C923 0.930 . S
H933 C924 0.931 . S
H934 C925 0.931 . S
H935 C926 0.933 . S
Dy936 O939 2.307 . S
Dy936 O941 2.395 1_455 S
Dy936 O942 2.379 1_455 S
Dy936 O944 2.339 . S
Dy936 O946 2.298 . S
Dy936 O950 2.275 . S
Dy936 C958 2.738 1_455 S
Dy937 O940 2.298 . S
Dy937 O943 2.275 . S
Dy937 O945 2.307 . S
Dy937 O947 2.395 . S
Dy937 O948 2.379 1_554 S
Dy937 O951 2.339 1_554 S
Dy937 C967 2.738 . S
C938 O950 1.254 1_556 S
C938 O951 1.257 . S
O939 Dy936 2.307 . S
O939 C949 1.266 . S
O940 Dy937 2.298 . S
O940 C949 1.236 . S
O941 Dy936 2.395 1_655 S
O941 C958 1.255 . S
O942 Dy936 2.379 1_655 S
O942 C958 1.249 . S
O943 Dy937 2.275 . S
O943 C959 1.254 . S
O944 Dy936 2.339 . S
O944 C959 1.257 . S
O945 Dy937 2.307 . S
O945 C960 1.266 . S
O946 Dy936 2.298 . S
O946 C960 1.236 . S
O947 Dy937 2.395 . S
O947 C967 1.255 . S
O948 Dy937 2.379 1_556 S
O948 C967 1.249 1_556 S
C949 O939 1.266 . S
C949 O940 1.236 . S
O950 Dy936 2.275 . S
O950 C938 1.254 1_554 S
O951 Dy937 2.339 1_556 S
O951 C938 1.257 . S
C952 C955 1.344 . S
C952 C956 1.328 . S
C952 C958 1.516 . S
C953 C954 1.304 . S
C953 C957 1.323 . S
C954 C953 1.304 . S
C954 C955 1.371 . S
C954 H968 0.930 . S
C955 C952 1.344 . S
C955 C954 1.371 . S
C955 H969 0.931 . S
C956 C952 1.328 . S
C956 C957 1.433 . S
C956 H970 0.931 . S
C957 C953 1.323 . S
C957 C956 1.433 . S
C957 H971 0.933 . S
C958 Dy936 2.738 1_655 S
C958 O941 1.255 . S
C958 O942 1.249 . S
C958 C952 1.516 . S
C959 O943 1.254 . S
C959 O944 1.257 . S
C960 O945 1.266 . S
C960 O946 1.236 . S
C961 C964 1.344 . S
C961 C965 1.328 1_554 S
C961 C967 1.516 . S
C962 C963 1.304 . S
C962 C966 1.323 1_554 S
C963 C962 1.304 . S
C963 C964 1.371 . S
C963 H972 0.930 . S
C964 C961 1.344 . S
C964 C963 1.371 . S
C964 H973 0.931 . S
C965 C961 1.328 1_556 S
C965 C966 1.433 . S
C965 H974 0.931 . S
C966 C962 1.323 1_556 S
C966 C965 1.433 . S
C966 H975 0.933 . S
C967 Dy937 2.738 . S
C967 O947 1.255 . S
C967 O948 1.249 1_554 S
C967 C961 1.516 . S
H968 C954 0.930 . S
H969 C955 0.931 . S
H970 C956 0.931 . S
H971 C957 0.933 . S
H972 C963 0.930 . S
H973 C964 0.931 . S
H974 C965 0.931 . S
H975 C966 0.933 . S
H976 C988 0.930 1_655 S
H977 C990 0.930 . S
H978 C991 0.930 . S
H979 C995 0.959 . S
H980 C995 0.959 . S
H981 C995 0.961 . S
H982 C996 0.960 . S
H983 C996 0.961 . S
H984 C996 0.959 . S
H985 C999 0.929 . S
H986 C1000 0.931 . S
H987 C1002 0.930 1_556 S
C988 H976 0.930 1_455 S
C988 C989 1.399 . S
C988 C993 1.399 . S
C989 C988 1.399 . S
C989 C990 1.376 1_556 S
C990 H977 0.930 . S
C990 C989 1.376 1_554 S
C990 C991 1.388 . S
C991 H978 0.930 . S
C991 C990 1.388 . S
C991 C992 1.390 . S
C992 C991 1.390 . S
C992 C993 1.394 1_554 S
C992 C998 1.465 . S
C993 C988 1.399 . S
C993 C992 1.394 1_556 S
C993 C994 1.516 . S
C994 C993 1.516 . S
C994 C995 1.502 1_455 S
C994 C996 1.561 . S
C994 C997 1.526 1_556 S
C995 H979 0.959 . S
C995 H980 0.959 . S
C995 H981 0.961 . S
C995 C994 1.502 1_655 S
C996 H982 0.960 . S
C996 H983 0.961 . S
C996 H984 0.959 . S
C996 C994 1.561 . S
C997 C994 1.526 1_554 S
C997 C998 1.396 . S
C997 C1002 1.390 . S
C998 C992 1.465 . S
C998 C997 1.396 . S
C998 C999 1.399 . S
C999 H985 0.929 . S
C999 C998 1.399 . S
C999 C1000 1.385 . S
C1000 H986 0.931 . S
C1000 C999 1.385 . S
C1000 C1001 1.389 . S
C1001 C1000 1.389 . S
C1001 C1002 1.387 . S
C1002 H987 0.930 1_554 S
C1002 C997 1.390 . S
C1002 C1001 1.387 . S
H1003 C1015 0.930 . S
H1004 C1017 0.930 . S
H1005 C1018 0.930 . S
H1006 C1022 0.959 . S
H1007 C1022 0.959 . S
H1008 C1022 0.961 . S
H1009 C1023 0.960 . S
H1010 C1023 0.961 . S
H1011 C1023 0.959 . S
H1012 C1026 0.929 . S
H1013 C1027 0.931 . S
H1014 C1029 0.930 . S
C1015 H1003 0.930 . S
C1015 C1016 1.399 . S
C1015 C1020 1.399 . S
C1016 C1015 1.399 . S
C1016 C1017 1.376 . S
C1017 H1004 0.930 . S
C1017 C1016 1.376 . S
C1017 C1018 1.388 . S
C1018 H1005 0.930 . S
C1018 C1017 1.388 . S
C1018 C1019 1.390 . S
C1019 C1018 1.390 . S
C1019 C1020 1.394 . S
C1019 C1025 1.465 . S
C1020 C1015 1.399 . S
C1020 C1019 1.394 . S
C1020 C1021 1.516 . S
C1021 C1020 1.516 . S
C1021 C1022 1.502 . S
C1021 C1023 1.561 . S
C1021 C1024 1.526 . S
C1022 H1006 0.959 . S
C1022 H1007 0.959 . S
C1022 H1008 0.961 . S
C1022 C1021 1.502 . S
C1023 H1009 0.960 . S
C1023 H1010 0.961 . S
C1023 H1011 0.959 . S
C1023 C1021 1.561 . S
C1024 C1021 1.526 . S
C1024 C1025 1.396 . S
C1024 C1029 1.390 . S
C1025 C1019 1.465 . S
C1025 C1024 1.396 . S
C1025 C1026 1.399 . S
C1026 H1012 0.929 . S
C1026 C1025 1.399 . S
C1026 C1027 1.385 . S
C1027 H1013 0.931 . S
C1027 C1026 1.385 . S
C1027 C1028 1.389 . S
C1028 C1027 1.389 . S
C1028 C1029 1.387 . S
C1029 H1014 0.930 . S
C1029 C1024 1.390 . S
C1029 C1028 1.387 . S
H1030 C1042 0.930 . S
H1031 C1044 0.930 . S
H1032 C1045 0.930 . S
H1033 C1049 0.959 . S
H1034 C1049 0.959 . S
H1035 C1049 0.961 . S
H1036 C1050 0.960 . S
H1037 C1050 0.961 . S
H1038 C1050 0.959 . S
H1039 C1053 0.929 . S
H1040 C1054 0.931 . S
H1041 C1056 0.930 . S
C1042 H1030 0.930 . S
C1042 C1043 1.399 . S
C1042 C1047 1.399 . S
C1043 C1042 1.399 . S
C1043 C1044 1.376 . S
C1044 H1031 0.930 . S
C1044 C1043 1.376 . S
C1044 C1045 1.388 . S
C1045 H1032 0.930 . S
C1045 C1044 1.388 . S
C1045 C1046 1.390 . S
C1046 C1045 1.390 . S
C1046 C1047 1.394 . S
C1046 C1052 1.465 . S
C1047 C1042 1.399 . S
C1047 C1046 1.394 . S
C1047 C1048 1.516 . S
C1048 C1047 1.516 . S
C1048 C1049 1.502 . S
C1048 C1050 1.561 . S
C1048 C1051 1.526 . S
C1049 H1033 0.959 . S
C1049 H1034 0.959 . S
C1049 H1035 0.961 . S
C1049 C1048 1.502 . S
C1050 H1036 0.960 . S
C1050 H1037 0.961 . S
C1050 H1038 0.959 . S
C1050 C1048 1.561 . S
C1051 C1048 1.526 . S
C1051 C1052 1.396 . S
C1051 C1056 1.390 . S
C1052 C1046 1.465 . S
C1052 C1051 1.396 . S
C1052 C1053 1.399 . S
C1053 H1039 0.929 . S
C1053 C1052 1.399 . S
C1053 C1054 1.385 . S
C1054 H1040 0.931 . S
C1054 C1053 1.385 . S
C1054 C1055 1.389 . S
C1055 C1054 1.389 . S
C1055 C1056 1.387 . S
C1056 H1041 0.930 . S
C1056 C1051 1.390 . S
C1056 C1055 1.387 . S
H1057 C1069 0.930 . S
H1058 C1071 0.930 . S
H1059 C1072 0.930 . S
H1060 C1076 0.959 . S
H1061 C1076 0.959 . S
H1062 C1076 0.961 . S
H1063 C1077 0.960 . S
H1064 C1077 0.961 . S
H1065 C1077 0.959 . S
H1066 C1080 0.929 . S
H1067 C1081 0.931 . S
H1068 C1083 0.930 . S
C1069 H1057 0.930 . S
C1069 C1070 1.399 . S
C1069 C1074 1.399 . S
C1070 C1069 1.399 . S
C1070 C1071 1.376 . S
C1071 H1058 0.930 . S
C1071 C1070 1.376 . S
C1071 C1072 1.388 . S
C1072 H1059 0.930 . S
C1072 C1071 1.388 . S
C1072 C1073 1.390 . S
C1073 C1072 1.390 . S
C1073 C1074 1.394 . S
C1073 C1079 1.465 . S
C1074 C1069 1.399 . S
C1074 C1073 1.394 . S
C1074 C1075 1.516 . S
C1075 C1074 1.516 . S
C1075 C1076 1.502 . S
C1075 C1077 1.561 . S
C1075 C1078 1.526 . S
C1076 H1060 0.959 . S
C1076 H1061 0.959 . S
C1076 H1062 0.961 . S
C1076 C1075 1.502 . S
C1077 H1063 0.960 . S
C1077 H1064 0.961 . S
C1077 H1065 0.959 . S
C1077 C1075 1.561 . S
C1078 C1075 1.526 . S
C1078 C1079 1.396 . S
C1078 C1083 1.390 . S
C1079 C1073 1.465 . S
C1079 C1078 1.396 . S
C1079 C1080 1.399 . S
C1080 H1066 0.929 . S
C1080 C1079 1.399 . S
C1080 C1081 1.385 . S
C1081 H1067 0.931 . S
C1081 C1080 1.385 . S
C1081 C1082 1.389 . S
C1082 C1081 1.389 . S
C1082 C1083 1.387 . S
C1083 H1068 0.930 . S
C1083 C1078 1.390 . S
C1083 C1082 1.387 . S
H1084 C1096 0.930 . S
H1085 C1098 0.930 . S
H1086 C1099 0.930 . S
H1087 C1103 0.959 . S
H1088 C1103 0.959 . S
H1089 C1103 0.961 . S
H1090 C1104 0.960 . S
H1091 C1104 0.961 . S
H1092 C1104 0.959 . S
H1093 C1107 0.929 . S
H1094 C1108 0.931 . S
H1095 C1110 0.930 . S
C1096 H1084 0.930 . S
C1096 C1097 1.399 . S
C1096 C1101 1.399 . S
C1097 C1096 1.399 . S
C1097 C1098 1.376 . S
C1098 H1085 0.930 . S
C1098 C1097 1.376 . S
C1098 C1099 1.388 . S
C1099 H1086 0.930 . S
C1099 C1098 1.388 . S
C1099 C1100 1.390 . S
C1100 C1099 1.390 . S
C1100 C1101 1.394 . S
C1100 C1106 1.465 . S
C1101 C1096 1.399 . S
C1101 C1100 1.394 . S
C1101 C1102 1.516 . S
C1102 C1101 1.516 . S
C1102 C1103 1.502 . S
C1102 C1104 1.561 . S
C1102 C1105 1.526 . S
C1103 H1087 0.959 . S
C1103 H1088 0.959 . S
C1103 H1089 0.961 . S
C1103 C1102 1.502 . S
C1104 H1090 0.960 . S
C1104 H1091 0.961 . S
C1104 H1092 0.959 . S
C1104 C1102 1.561 . S
C1105 C1102 1.526 . S
C1105 C1106 1.396 . S
C1105 C1110 1.390 . S
C1106 C1100 1.465 . S
C1106 C1105 1.396 . S
C1106 C1107 1.399 . S
C1107 H1093 0.929 . S
C1107 C1106 1.399 . S
C1107 C1108 1.385 . S
C1108 H1094 0.931 . S
C1108 C1107 1.385 . S
C1108 C1109 1.389 . S
C1109 C1108 1.389 . S
C1109 C1110 1.387 . S
C1110 H1095 0.930 . S
C1110 C1105 1.390 . S
C1110 C1109 1.387 . S
H1111 C1123 0.930 . S
H1112 C1125 0.930 . S
H1113 C1126 0.930 . S
H1114 C1130 0.959 . S
H1115 C1130 0.959 . S
H1116 C1130 0.961 . S
H1117 C1131 0.960 . S
H1118 C1131 0.961 . S
H1119 C1131 0.959 . S
H1120 C1134 0.929 . S
H1121 C1135 0.931 . S
H1122 C1137 0.930 . S
C1123 H1111 0.930 . S
C1123 C1124 1.399 . S
C1123 C1128 1.399 . S
C1124 C1123 1.399 . S
C1124 C1125 1.376 . S
C1125 H1112 0.930 . S
C1125 C1124 1.376 . S
C1125 C1126 1.388 . S
C1126 H1113 0.930 . S
C1126 C1125 1.388 . S
C1126 C1127 1.390 . S
C1127 C1126 1.390 . S
C1127 C1128 1.394 . S
C1127 C1133 1.465 . S
C1128 C1123 1.399 . S
C1128 C1127 1.394 . S
C1128 C1129 1.516 . S
C1129 C1128 1.516 . S
C1129 C1130 1.502 . S
C1129 C1131 1.561 . S
C1129 C1132 1.526 . S
C1130 H1114 0.959 . S
C1130 H1115 0.959 . S
C1130 H1116 0.961 . S
C1130 C1129 1.502 . S
C1131 H1117 0.960 . S
C1131 H1118 0.961 . S
C1131 H1119 0.959 . S
C1131 C1129 1.561 . S
C1132 C1129 1.526 . S
C1132 C1133 1.396 . S
C1132 C1137 1.390 . S
C1133 C1127 1.465 . S
C1133 C1132 1.396 . S
C1133 C1134 1.399 . S
C1134 H1120 0.929 . S
C1134 C1133 1.399 . S
C1134 C1135 1.385 . S
C1135 H1121 0.931 . S
C1135 C1134 1.385 . S
C1135 C1136 1.389 . S
C1136 C1135 1.389 . S
C1136 C1137 1.387 . S
C1137 H1122 0.930 . S
C1137 C1132 1.390 . S
C1137 C1136 1.387 . S
H1138 C1150 0.930 . S
H1139 C1152 0.930 . S
H1140 C1153 0.930 . S
H1141 C1157 0.959 . S
H1142 C1157 0.959 . S
H1143 C1157 0.961 . S
H1144 C1158 0.960 . S
H1145 C1158 0.961 . S
H1146 C1158 0.959 . S
H1147 C1161 0.929 . S
H1148 C1162 0.931 . S
H1149 C1164 0.930 . S
C1150 H1138 0.930 . S
C1150 C1151 1.399 . S
C1150 C1155 1.399 . S
C1151 C1150 1.399 . S
C1151 C1152 1.376 . S
C1152 H1139 0.930 . S
C1152 C1151 1.376 . S
C1152 C1153 1.388 . S
C1153 H1140 0.930 . S
C1153 C1152 1.388 . S
C1153 C1154 1.390 . S
C1154 C1153 1.390 . S
C1154 C1155 1.394 . S
C1154 C1160 1.465 . S
C1155 C1150 1.399 . S
C1155 C1154 1.394 . S
C1155 C1156 1.516 . S
C1156 C1155 1.516 . S
C1156 C1157 1.502 . S
C1156 C1158 1.561 . S
C1156 C1159 1.526 . S
C1157 H1141 0.959 . S
C1157 H1142 0.959 . S
C1157 H1143 0.961 . S
C1157 C1156 1.502 . S
C1158 H1144 0.960 . S
C1158 H1145 0.961 . S
C1158 H1146 0.959 . S
C1158 C1156 1.561 . S
C1159 C1156 1.526 . S
C1159 C1160 1.396 . S
C1159 C1164 1.390 . S
C1160 C1154 1.465 . S
C1160 C1159 1.396 . S
C1160 C1161 1.399 . S
C1161 H1147 0.929 . S
C1161 C1160 1.399 . S
C1161 C1162 1.385 . S
C1162 H1148 0.931 . S
C1162 C1161 1.385 . S
C1162 C1163 1.389 . S
C1163 C1162 1.389 . S
C1163 C1164 1.387 . S
C1164 H1149 0.930 . S
C1164 C1159 1.390 . S
C1164 C1163 1.387 . S
H1165 C1177 0.930 . S
H1166 C1179 0.930 . S
H1167 C1180 0.930 . S
H1168 C1184 0.959 . S
H1169 C1184 0.959 . S
H1170 C1184 0.961 . S
H1171 C1185 0.960 . S
H1172 C1185 0.961 . S
H1173 C1185 0.959 . S
H1174 C1188 0.929 . S
H1175 C1189 0.931 . S
H1176 C1191 0.930 . S
C1177 H1165 0.930 . S
C1177 C1178 1.399 . S
C1177 C1182 1.399 . S
C1178 C1177 1.399 . S
C1178 C1179 1.376 . S
C1179 H1166 0.930 . S
C1179 C1178 1.376 . S
C1179 C1180 1.388 . S
C1180 H1167 0.930 . S
C1180 C1179 1.388 . S
C1180 C1181 1.390 . S
C1181 C1180 1.390 . S
C1181 C1182 1.394 . S
C1181 C1187 1.465 . S
C1182 C1177 1.399 . S
C1182 C1181 1.394 . S
C1182 C1183 1.516 . S
C1183 C1182 1.516 . S
C1183 C1184 1.502 . S
C1183 C1185 1.561 . S
C1183 C1186 1.526 . S
C1184 H1168 0.959 . S
C1184 H1169 0.959 . S
C1184 H1170 0.961 . S
C1184 C1183 1.502 . S
C1185 H1171 0.960 . S
C1185 H1172 0.961 . S
C1185 H1173 0.959 . S
C1185 C1183 1.561 . S
C1186 C1183 1.526 . S
C1186 C1187 1.396 . S
C1186 C1191 1.390 . S
C1187 C1181 1.465 . S
C1187 C1186 1.396 . S
C1187 C1188 1.399 . S
C1188 H1174 0.929 . S
C1188 C1187 1.399 . S
C1188 C1189 1.385 . S
C1189 H1175 0.931 . S
C1189 C1188 1.385 . S
C1189 C1190 1.389 . S
C1190 C1189 1.389 . S
C1190 C1191 1.387 . S
C1191 H1176 0.930 . S
C1191 C1186 1.390 . S
C1191 C1190 1.387 . S
H1192 C1204 0.930 . S
H1193 C1206 0.916 1_565 S
H1194 C1207 0.930 1_565 S
H1195 C1211 0.959 . S
H1196 C1211 0.959 . S
H1197 C1211 0.961 . S
H1198 C1212 0.960 . S
H1199 C1212 0.961 . S
H1200 C1212 0.959 . S
H1201 C1215 0.929 . S
H1202 C1216 0.931 . S
H1203 C1218 0.930 . S
C1204 H1192 0.930 . S
C1204 C1205 1.399 . S
C1204 C1209 1.399 . S
C1205 C1204 1.399 . S
C1205 C1206 1.376 . S
C1206 H1193 0.916 1_545 S
C1206 C1205 1.376 . S
C1206 C1207 1.388 . S
C1207 H1194 0.930 1_545 S
C1207 C1206 1.388 . S
C1207 C1208 1.390 . S
C1208 C1207 1.390 . S
C1208 C1209 1.394 . S
C1208 C1214 1.465 1_655 S
C1209 C1204 1.399 . S
C1209 C1208 1.394 . S
C1209 C1210 1.516 . S
C1210 C1209 1.516 . S
C1210 C1211 1.502 . S
C1210 C1212 1.561 1_655 S
C1210 C1213 1.526 1_655 S
C1211 H1195 0.959 . S
C1211 H1196 0.959 . S
C1211 H1197 0.961 . S
C1211 C1210 1.502 . S
C1212 H1198 0.960 . S
C1212 H1199 0.961 . S
C1212 H1200 0.959 . S
C1212 C1210 1.561 1_455 S
C1213 C1210 1.526 1_455 S
C1213 C1214 1.396 . S
C1213 C1218 1.390 . S
C1214 C1208 1.465 1_455 S
C1214 C1213 1.396 . S
C1214 C1215 1.399 . S
C1215 H1201 0.929 . S
C1215 C1214 1.399 . S
C1215 C1216 1.385 . S
C1216 H1202 0.931 . S
C1216 C1215 1.385 . S
C1216 C1217 1.389 . S
C1217 C1216 1.389 . S
C1217 C1218 1.387 . S
C1218 H1203 0.930 . S
C1218 C1213 1.390 . S
C1218 C1217 1.387 . S
H1219 C1231 0.930 . S
H1220 C1233 0.930 . S
H1221 C1234 0.930 . S
H1222 C1238 0.959 . S
H1223 C1238 0.959 . S
H1224 C1238 0.961 . S
H1225 C1239 0.960 . S
H1226 C1239 0.961 . S
H1227 C1239 0.959 . S
H1228 C1242 0.929 . S
H1229 C1243 0.931 . S
H1230 C1245 0.930 . S
C1231 H1219 0.930 . S
C1231 C1232 1.399 . S
C1231 C1236 1.399 . S
C1232 C1231 1.399 . S
C1232 C1233 1.376 . S
C1233 H1220 0.930 . S
C1233 C1232 1.376 . S
C1233 C1234 1.388 . S
C1234 H1221 0.930 . S
C1234 C1233 1.388 . S
C1234 C1235 1.390 . S
C1235 C1234 1.390 . S
C1235 C1236 1.394 . S
C1235 C1241 1.465 . S
C1236 C1231 1.399 . S
C1236 C1235 1.394 . S
C1236 C1237 1.516 . S
C1237 C1236 1.516 . S
C1237 C1238 1.502 . S
C1237 C1239 1.561 . S
C1237 C1240 1.526 . S
C1238 H1222 0.959 . S
C1238 H1223 0.959 . S
C1238 H1224 0.961 . S
C1238 C1237 1.502 . S
C1239 H1225 0.960 . S
C1239 H1226 0.961 . S
C1239 H1227 0.959 . S
C1239 C1237 1.561 . S
C1240 C1237 1.526 . S
C1240 C1241 1.396 . S
C1240 C1245 1.390 . S
C1241 C1235 1.465 . S
C1241 C1240 1.396 . S
C1241 C1242 1.399 . S
C1242 H1228 0.929 . S
C1242 C1241 1.399 . S
C1242 C1243 1.385 . S
C1243 H1229 0.931 . S
C1243 C1242 1.385 . S
C1243 C1244 1.389 . S
C1244 C1243 1.389 . S
C1244 C1245 1.387 . S
C1245 H1230 0.930 . S
C1245 C1240 1.390 . S
C1245 C1244 1.387 . S
H1246 C1258 0.930 . S
H1247 C1260 0.930 . S
H1248 C1261 0.930 . S
H1249 C1265 0.959 . S
H1250 C1265 0.959 . S
H1251 C1265 0.961 . S
H1252 C1266 0.960 . S
H1253 C1266 0.961 . S
H1254 C1266 0.959 . S
H1255 C1269 0.929 . S
H1256 C1270 0.931 . S
H1257 C1272 0.930 . S
C1258 H1246 0.930 . S
C1258 C1259 1.399 . S
C1258 C1263 1.399 . S
C1259 C1258 1.399 . S
C1259 C1260 1.376 . S
C1260 H1247 0.930 . S
C1260 C1259 1.376 . S
C1260 C1261 1.388 . S
C1261 H1248 0.930 . S
C1261 C1260 1.388 . S
C1261 C1262 1.390 . S
C1262 C1261 1.390 . S
C1262 C1263 1.394 . S
C1262 C1268 1.465 . S
C1263 C1258 1.399 . S
C1263 C1262 1.394 . S
C1263 C1264 1.516 . S
C1264 C1263 1.516 . S
C1264 C1265 1.502 . S
C1264 C1266 1.561 . S
C1264 C1267 1.526 . S
C1265 H1249 0.959 . S
C1265 H1250 0.959 . S
C1265 H1251 0.961 . S
C1265 C1264 1.502 . S
C1266 H1252 0.960 . S
C1266 H1253 0.961 . S
C1266 H1254 0.959 . S
C1266 C1264 1.561 . S
C1267 C1264 1.526 . S
C1267 C1268 1.396 . S
C1267 C1272 1.390 . S
C1268 C1262 1.465 . S
C1268 C1267 1.396 . S
C1268 C1269 1.399 . S
C1269 H1255 0.929 . S
C1269 C1268 1.399 . S
C1269 C1270 1.385 . S
C1270 H1256 0.931 . S
C1270 C1269 1.385 . S
C1270 C1271 1.389 . S
C1271 C1270 1.389 . S
C1271 C1272 1.387 . S
C1272 H1257 0.930 . S
C1272 C1267 1.390 . S
C1272 C1271 1.387 . S
H1273 C1285 0.930 . S
H1274 C1287 0.930 . S
H1275 C1288 0.930 . S
H1276 C1292 0.959 . S
H1277 C1292 0.959 . S
H1278 C1292 0.961 . S
H1279 C1293 0.960 . S
H1280 C1293 0.961 . S
H1281 C1293 0.959 . S
H1282 C1296 0.929 . S
H1283 C1297 0.931 . S
H1284 C1299 0.930 . S
C1285 H1273 0.930 . S
C1285 C1286 1.399 . S
C1285 C1290 1.399 . S
C1286 C1285 1.399 . S
C1286 C1287 1.376 . S
C1287 H1274 0.930 . S
C1287 C1286 1.376 . S
C1287 C1288 1.388 . S
C1288 H1275 0.930 . S
C1288 C1287 1.388 . S
C1288 C1289 1.390 . S
C1289 C1288 1.390 . S
C1289 C1290 1.394 . S
C1289 C1295 1.465 . S
C1290 C1285 1.399 . S
C1290 C1289 1.394 . S
C1290 C1291 1.516 . S
C1291 C1290 1.516 . S
C1291 C1292 1.502 . S
C1291 C1293 1.561 . S
C1291 C1294 1.526 . S
C1292 H1276 0.959 . S
C1292 H1277 0.959 . S
C1292 H1278 0.961 . S
C1292 C1291 1.502 . S
C1293 H1279 0.960 . S
C1293 H1280 0.961 . S
C1293 H1281 0.959 . S
C1293 C1291 1.561 . S
C1294 C1291 1.526 . S
C1294 C1295 1.396 . S
C1294 C1299 1.390 . S
C1295 C1289 1.465 . S
C1295 C1294 1.396 . S
C1295 C1296 1.399 . S
C1296 H1282 0.929 . S
C1296 C1295 1.399 . S
C1296 C1297 1.385 . S
C1297 H1283 0.931 . S
C1297 C1296 1.385 . S
C1297 C1298 1.389 . S
C1298 C1297 1.389 . S
C1298 C1299 1.387 . S
C1299 H1284 0.930 . S
C1299 C1294 1.390 . S
C1299 C1298 1.387 . S
H1300 C1312 0.930 . S
H1301 C1314 0.924 1_455 S
H1302 C1315 0.930 . S
H1303 C1319 0.959 . S
H1304 C1319 0.959 . S
H1305 C1319 0.961 . S
H1306 C1320 0.960 . S
H1307 C1320 0.961 . S
H1308 C1320 0.959 . S
H1309 C1323 0.929 . S
H1310 C1324 0.931 . S
H1311 C1326 0.963 . S
C1312 H1300 0.930 . S
C1312 C1313 1.399 . S
C1312 C1317 1.399 . S
C1313 C1312 1.399 . S
C1313 C1314 1.389 . S
C1314 H1301 0.924 1_655 S
C1314 C1313 1.389 . S
C1314 C1315 1.382 1_655 S
C1315 H1302 0.930 . S
C1315 C1314 1.382 1_455 S
C1315 C1316 1.390 . S
C1316 C1315 1.390 . S
C1316 C1317 1.394 1_455 S
C1316 C1322 1.465 . S
C1317 C1312 1.399 . S
C1317 C1316 1.394 1_655 S
C1317 C1318 1.516 . S
C1318 C1317 1.516 . S
C1318 C1319 1.502 . S
C1318 C1320 1.561 1_545 S
C1318 C1321 1.526 . S
C1319 H1303 0.959 . S
C1319 H1304 0.959 . S
C1319 H1305 0.961 . S
C1319 C1318 1.502 . S
C1320 H1306 0.960 . S
C1320 H1307 0.961 . S
C1320 H1308 0.959 . S
C1320 C1318 1.561 1_565 S
C1321 C1318 1.526 . S
C1321 C1322 1.396 1_655 S
C1321 C1326 1.396 . S
C1322 C1316 1.465 . S
C1322 C1321 1.396 1_455 S
C1322 C1323 1.399 . S
C1323 H1309 0.929 . S
C1323 C1322 1.399 . S
C1323 C1324 1.385 . S
C1324 H1310 0.931 . S
C1324 C1323 1.385 . S
C1324 C1325 1.389 . S
C1325 C1324 1.389 . S
C1325 C1326 1.348 1_455 S
C1326 H1311 0.963 . S
C1326 C1321 1.396 . S
C1326 C1325 1.348 1_655 S
H1327 C1339 0.930 . S
H1328 C1341 0.930 . S
H1329 C1342 0.930 . S
H1330 C1346 0.959 . S
H1331 C1346 0.959 . S
H1332 C1346 0.961 . S
H1333 C1347 0.960 . S
H1334 C1347 0.961 . S
H1335 C1347 0.959 . S
H1336 C1350 0.929 . S
H1337 C1351 0.931 . S
H1338 C1353 0.930 . S
C1339 H1327 0.930 . S
C1339 C1340 1.399 . S
C1339 C1344 1.399 . S
C1340 C1339 1.399 . S
C1340 C1341 1.376 . S
C1341 H1328 0.930 . S
C1341 C1340 1.376 . S
C1341 C1342 1.388 . S
C1342 H1329 0.930 . S
C1342 C1341 1.388 . S
C1342 C1343 1.390 . S
C1343 C1342 1.390 . S
C1343 C1344 1.394 . S
C1343 C1349 1.465 . S
C1344 C1339 1.399 . S
C1344 C1343 1.394 . S
C1344 C1345 1.516 . S
C1345 C1344 1.516 . S
C1345 C1346 1.502 . S
C1345 C1347 1.561 . S
C1345 C1348 1.526 . S
C1346 H1330 0.959 . S
C1346 H1331 0.959 . S
C1346 H1332 0.961 . S
C1346 C1345 1.502 . S
C1347 H1333 0.960 . S
C1347 H1334 0.961 . S
C1347 H1335 0.959 . S
C1347 C1345 1.561 . S
C1348 C1345 1.526 . S
C1348 C1349 1.396 . S
C1348 C1353 1.390 . S
C1349 C1343 1.465 . S
C1349 C1348 1.396 . S
C1349 C1350 1.399 . S
C1350 H1336 0.929 . S
C1350 C1349 1.399 . S
C1350 C1351 1.385 . S
C1351 H1337 0.931 . S
C1351 C1350 1.385 . S
C1351 C1352 1.389 . S
C1352 C1351 1.389 . S
C1352 C1353 1.387 . S
C1353 H1338 0.930 . S
C1353 C1348 1.390 . S
C1353 C1352 1.387 . S
H1354 C1366 0.930 . S
H1355 C1368 0.930 . S
H1356 C1369 0.930 . S
H1357 C1373 0.959 . S
H1358 C1373 0.959 . S
H1359 C1373 0.961 . S
H1360 C1374 0.960 . S
H1361 C1374 0.961 . S
H1362 C1374 0.959 . S
H1363 C1377 0.929 . S
H1364 C1378 0.931 . S
H1365 C1380 0.930 . S
C1366 H1354 0.930 . S
C1366 C1367 1.399 . S
C1366 C1371 1.399 . S
C1367 C1366 1.399 . S
C1367 C1368 1.376 . S
C1368 H1355 0.930 . S
C1368 C1367 1.376 . S
C1368 C1369 1.388 . S
C1369 H1356 0.930 . S
C1369 C1368 1.388 . S
C1369 C1370 1.390 . S
C1370 C1369 1.390 . S
C1370 C1371 1.394 . S
C1370 C1376 1.465 . S
C1371 C1366 1.399 . S
C1371 C1370 1.394 . S
C1371 C1372 1.516 . S
C1372 C1371 1.516 . S
C1372 C1373 1.502 . S
C1372 C1374 1.561 . S
C1372 C1375 1.526 . S
C1373 H1357 0.959 . S
C1373 H1358 0.959 . S
C1373 H1359 0.961 . S
C1373 C1372 1.502 . S
C1374 H1360 0.960 . S
C1374 H1361 0.961 . S
C1374 H1362 0.959 . S
C1374 C1372 1.561 . S
C1375 C1372 1.526 . S
C1375 C1376 1.396 . S
C1375 C1380 1.390 . S
C1376 C1370 1.465 . S
C1376 C1375 1.396 . S
C1376 C1377 1.399 . S
C1377 H1363 0.929 . S
C1377 C1376 1.399 . S
C1377 C1378 1.385 . S
C1378 H1364 0.931 . S
C1378 C1377 1.385 . S
C1378 C1379 1.389 . S
C1379 C1378 1.389 . S
C1379 C1380 1.387 . S
C1380 H1365 0.930 . S
C1380 C1375 1.390 . S
C1380 C1379 1.387 . S
H1381 C1393 0.930 . S
H1382 C1395 0.930 . S
H1383 C1396 0.930 . S
H1384 C1400 0.959 . S
H1385 C1400 0.959 . S
H1386 C1400 0.961 . S
H1387 C1401 0.960 . S
H1388 C1401 0.961 . S
H1389 C1401 0.959 . S
H1390 C1404 0.929 . S
H1391 C1405 0.931 . S
H1392 C1407 0.930 . S
C1393 H1381 0.930 . S
C1393 C1394 1.399 . S
C1393 C1398 1.399 . S
C1394 C1393 1.399 . S
C1394 C1395 1.376 . S
C1395 H1382 0.930 . S
C1395 C1394 1.376 . S
C1395 C1396 1.388 . S
C1396 H1383 0.930 . S
C1396 C1395 1.388 . S
C1396 C1397 1.390 . S
C1397 C1396 1.390 . S
C1397 C1398 1.394 . S
C1397 C1403 1.465 . S
C1398 C1393 1.399 . S
C1398 C1397 1.394 . S
C1398 C1399 1.516 . S
C1399 C1398 1.516 . S
C1399 C1400 1.502 . S
C1399 C1401 1.561 . S
C1399 C1402 1.526 . S
C1400 H1384 0.959 . S
C1400 H1385 0.959 . S
C1400 H1386 0.961 . S
C1400 C1399 1.502 . S
C1401 H1387 0.960 . S
C1401 H1388 0.961 . S
C1401 H1389 0.959 . S
C1401 C1399 1.561 . S
C1402 C1399 1.526 . S
C1402 C1403 1.396 . S
C1402 C1407 1.390 . S
C1403 C1397 1.465 . S
C1403 C1402 1.396 . S
C1403 C1404 1.399 . S
C1404 H1390 0.929 . S
C1404 C1403 1.399 . S
C1404 C1405 1.385 . S
C1405 H1391 0.931 . S
C1405 C1404 1.385 . S
C1405 C1406 1.389 . S
C1406 C1405 1.389 . S
C1406 C1407 1.387 . S
C1407 H1392 0.930 . S
C1407 C1402 1.390 . S
C1407 C1406 1.387 . S
H1408 C1420 0.955 . S
H1409 C1422 0.930 . S
H1410 C1423 0.930 . S
H1411 C1427 0.959 . S
H1412 C1427 0.959 . S
H1413 C1427 0.961 . S
H1414 C1428 0.960 . S
H1415 C1428 0.961 1_545 S
H1416 C1428 0.959 . S
H1417 C1431 0.929 . S
H1418 C1432 0.931 . S
H1419 C1434 0.930 . S
C1420 H1408 0.955 . S
C1420 C1421 1.391 1_556 S
C1420 C1425 1.382 1_556 S
C1421 C1420 1.391 1_554 S
C1421 C1422 1.376 . S
C1422 H1409 0.930 . S
C1422 C1421 1.376 . S
C1422 C1423 1.388 . S
C1423 H1410 0.930 . S
C1423 C1422 1.388 . S
C1423 C1424 1.390 . S
C1424 C1423 1.390 . S
C1424 C1425 1.394 . S
C1424 C1430 1.465 . S
C1425 C1420 1.382 1_554 S
C1425 C1424 1.394 . S
C1425 C1426 1.516 . S
C1426 C1425 1.516 . S
C1426 C1427 1.502 1_565 S
C1426 C1428 1.561 1_554 S
C1426 C1429 1.526 . S
C1427 H1411 0.959 . S
C1427 H1412 0.959 . S
C1427 H1413 0.961 . S
C1427 C1426 1.502 1_545 S
C1428 H1414 0.960 . S
C1428 H1415 0.961 1_565 S
C1428 H1416 0.959 . S
C1428 C1426 1.561 1_556 S
C1429 C1426 1.526 . S
C1429 C1430 1.396 . S
C1429 C1434 1.390 1_565 S
C1430 C1424 1.465 . S
C1430 C1429 1.396 . S
C1430 C1431 1.399 . S
C1431 H1417 0.929 . S
C1431 C1430 1.399 . S
C1431 C1432 1.385 . S
C1432 H1418 0.931 . S
C1432 C1431 1.385 . S
C1432 C1433 1.389 1_565 S
C1433 C1432 1.389 1_545 S
C1433 C1434 1.387 . S
C1434 H1419 0.930 . S
C1434 C1429 1.390 1_545 S
C1434 C1433 1.387 . S
H1435 C1447 0.930 . S
H1436 C1449 0.930 . S
H1437 C1450 0.930 . S
H1438 C1454 0.959 . S
H1439 C1454 0.959 . S
H1440 C1454 0.961 . S
H1441 C1455 0.960 . S
H1442 C1455 0.961 . S
H1443 C1455 0.959 . S
H1444 C1458 0.929 . S
H1445 C1459 0.955 . S
H1446 C1461 0.930 . S
C1447 H1435 0.930 . S
C1447 C1448 1.399 . S
C1447 C1452 1.399 . S
C1448 C1447 1.399 . S
C1448 C1449 1.376 1_554 S
C1449 H1436 0.930 . S
C1449 C1448 1.376 1_556 S
C1449 C1450 1.388 . S
C1450 H1437 0.930 . S
C1450 C1449 1.388 . S
C1450 C1451 1.390 1_556 S
C1451 C1450 1.390 1_554 S
C1451 C1452 1.394 . S
C1451 C1457 1.465 . S
C1452 C1447 1.399 . S
C1452 C1451 1.394 . S
C1452 C1453 1.516 . S
C1453 C1452 1.516 . S
C1453 C1454 1.502 . S
C1453 C1455 1.561 . S
C1453 C1456 1.526 . S
C1454 H1438 0.959 . S
C1454 H1439 0.959 . S
C1454 H1440 0.961 . S
C1454 C1453 1.502 . S
C1455 H1441 0.960 . S
C1455 H1442 0.961 . S
C1455 H1443 0.959 . S
C1455 C1453 1.561 . S
C1456 C1453 1.526 . S
C1456 C1457 1.396 . S
C1456 C1461 1.390 . S
C1457 C1451 1.465 . S
C1457 C1456 1.396 . S
C1457 C1458 1.399 1_554 S
C1458 H1444 0.929 . S
C1458 C1457 1.399 1_556 S
C1458 C1459 1.403 . S
C1459 H1445 0.955 . S
C1459 C1458 1.403 . S
C1459 C1460 1.349 1_556 S
C1460 C1459 1.349 1_554 S
C1460 C1461 1.387 . S
C1461 H1446 0.930 . S
C1461 C1456 1.390 . S
C1461 C1460 1.387 . S
H1462 C1474 0.930 . S
H1463 C1476 0.930 . S
H1464 C1477 0.930 . S
H1465 C1481 0.959 . S
H1466 C1481 0.959 . S
H1467 C1481 0.961 . S
H1468 C1482 0.960 . S
H1469 C1482 0.961 . S
H1470 C1482 0.959 . S
H1471 C1485 0.929 . S
H1472 C1486 0.931 . S
H1473 C1488 0.930 . S
C1474 H1462 0.930 . S
C1474 C1475 1.399 . S
C1474 C1479 1.399 . S
C1475 C1474 1.399 . S
C1475 C1476 1.376 . S
C1476 H1463 0.930 . S
C1476 C1475 1.376 . S
C1476 C1477 1.388 . S
C1477 H1464 0.930 . S
C1477 C1476 1.388 . S
C1477 C1478 1.390 . S
C1478 C1477 1.390 . S
C1478 C1479 1.394 . S
C1478 C1484 1.465 . S
C1479 C1474 1.399 . S
C1479 C1478 1.394 . S
C1479 C1480 1.516 . S
C1480 C1479 1.516 . S
C1480 C1481 1.502 . S
C1480 C1482 1.561 . S
C1480 C1483 1.526 . S
C1481 H1465 0.959 . S
C1481 H1466 0.959 . S
C1481 H1467 0.961 . S
C1481 C1480 1.502 . S
C1482 H1468 0.960 . S
C1482 H1469 0.961 . S
C1482 H1470 0.959 . S
C1482 C1480 1.561 . S
C1483 C1480 1.526 . S
C1483 C1484 1.396 . S
C1483 C1488 1.390 . S
C1484 C1478 1.465 . S
C1484 C1483 1.396 . S
C1484 C1485 1.399 . S
C1485 H1471 0.929 . S
C1485 C1484 1.399 . S
C1485 C1486 1.385 . S
C1486 H1472 0.931 . S
C1486 C1485 1.385 . S
C1486 C1487 1.389 . S
C1487 C1486 1.389 . S
C1487 C1488 1.387 . S
C1488 H1473 0.930 . S
C1488 C1483 1.390 . S
C1488 C1487 1.387 . S
H1489 C1501 0.930 . S
H1490 C1503 0.930 . S
H1491 C1504 0.930 . S
H1492 C1508 0.959 . S
H1493 C1508 0.959 . S
H1494 C1508 0.961 . S
H1495 C1509 0.960 . S
H1496 C1509 0.961 . S
H1497 C1509 0.959 . S
H1498 C1512 0.929 . S
H1499 C1513 0.931 . S
H1500 C1515 0.930 . S
C1501 H1489 0.930 . S
C1501 C1502 1.399 . S
C1501 C1506 1.399 . S
C1502 C1501 1.399 . S
C1502 C1503 1.376 . S
C1503 H1490 0.930 . S
C1503 C1502 1.376 . S
C1503 C1504 1.388 . S
C1504 H1491 0.930 . S
C1504 C1503 1.388 . S
C1504 C1505 1.390 . S
C1505 C1504 1.390 . S
C1505 C1506 1.394 . S
C1505 C1511 1.465 . S
C1506 C1501 1.399 . S
C1506 C1505 1.394 . S
C1506 C1507 1.516 . S
C1507 C1506 1.516 . S
C1507 C1508 1.502 . S
C1507 C1509 1.561 . S
C1507 C1510 1.526 . S
C1508 H1492 0.959 . S
C1508 H1493 0.959 . S
C1508 H1494 0.961 . S
C1508 C1507 1.502 . S
C1509 H1495 0.960 . S
C1509 H1496 0.961 . S
C1509 H1497 0.959 . S
C1509 C1507 1.561 . S
C1510 C1507 1.526 . S
C1510 C1511 1.396 . S
C1510 C1515 1.390 . S
C1511 C1505 1.465 . S
C1511 C1510 1.396 . S
C1511 C1512 1.399 . S
C1512 H1498 0.929 . S
C1512 C1511 1.399 . S
C1512 C1513 1.385 . S
C1513 H1499 0.931 . S
C1513 C1512 1.385 . S
C1513 C1514 1.389 . S
C1514 C1513 1.389 . S
C1514 C1515 1.387 . S
C1515 H1500 0.930 . S
C1515 C1510 1.390 . S
C1515 C1514 1.387 . S
H1516 C1528 0.930 . S
H1517 C1530 0.930 . S
H1518 C1531 0.930 . S
H1519 C1535 0.959 . S
H1520 C1535 0.959 . S
H1521 C1535 0.961 . S
H1522 C1536 0.960 . S
H1523 C1536 0.961 . S
H1524 C1536 0.959 . S
H1525 C1539 0.929 . S
H1526 C1540 0.931 . S
H1527 C1542 0.930 . S
C1528 H1516 0.930 . S
C1528 C1529 1.399 . S
C1528 C1533 1.399 . S
C1529 C1528 1.399 . S
C1529 C1530 1.376 . S
C1530 H1517 0.930 . S
C1530 C1529 1.376 . S
C1530 C1531 1.388 . S
C1531 H1518 0.930 . S
C1531 C1530 1.388 . S
C1531 C1532 1.390 . S
C1532 C1531 1.390 . S
C1532 C1533 1.394 . S
C1532 C1538 1.465 . S
C1533 C1528 1.399 . S
C1533 C1532 1.394 . S
C1533 C1534 1.516 . S
C1534 C1533 1.516 . S
C1534 C1535 1.502 . S
C1534 C1536 1.561 . S
C1534 C1537 1.526 . S
C1535 H1519 0.959 . S
C1535 H1520 0.959 . S
C1535 H1521 0.961 . S
C1535 C1534 1.502 . S
C1536 H1522 0.960 . S
C1536 H1523 0.961 . S
C1536 H1524 0.959 . S
C1536 C1534 1.561 . S
C1537 C1534 1.526 . S
C1537 C1538 1.396 . S
C1537 C1542 1.390 . S
C1538 C1532 1.465 . S
C1538 C1537 1.396 . S
C1538 C1539 1.399 . S
C1539 H1525 0.929 . S
C1539 C1538 1.399 . S
C1539 C1540 1.385 . S
C1540 H1526 0.931 . S
C1540 C1539 1.385 . S
C1540 C1541 1.389 . S
C1541 C1540 1.389 . S
C1541 C1542 1.387 . S
C1542 H1527 0.930 . S
C1542 C1537 1.390 . S
C1542 C1541 1.387 . S
H1543 C1555 0.930 . S
H1544 C1557 0.930 . S
H1545 C1558 0.930 . S
H1546 C1562 0.959 . S
H1547 C1562 0.959 . S
H1548 C1562 0.961 . S
H1549 C1563 0.960 . S
H1550 C1563 0.961 . S
H1551 C1563 0.959 . S
H1552 C1566 0.929 . S
H1553 C1567 0.931 . S
H1554 C1569 0.930 . S
C1555 H1543 0.930 . S
C1555 C1556 1.399 . S
C1555 C1560 1.399 . S
C1556 C1555 1.399 . S
C1556 C1557 1.376 . S
C1557 H1544 0.930 . S
C1557 C1556 1.376 . S
C1557 C1558 1.388 . S
C1558 H1545 0.930 . S
C1558 C1557 1.388 . S
C1558 C1559 1.390 . S
C1559 C1558 1.390 . S
C1559 C1560 1.394 . S
C1559 C1565 1.465 . S
C1560 C1555 1.399 . S
C1560 C1559 1.394 . S
C1560 C1561 1.516 . S
C1561 C1560 1.516 . S
C1561 C1562 1.502 . S
C1561 C1563 1.561 . S
C1561 C1564 1.526 . S
C1562 H1546 0.959 . S
C1562 H1547 0.959 . S
C1562 H1548 0.961 . S
C1562 C1561 1.502 . S
C1563 H1549 0.960 . S
C1563 H1550 0.961 . S
C1563 H1551 0.959 . S
C1563 C1561 1.561 . S
C1564 C1561 1.526 . S
C1564 C1565 1.396 . S
C1564 C1569 1.390 . S
C1565 C1559 1.465 . S
C1565 C1564 1.396 . S
C1565 C1566 1.399 . S
C1566 H1552 0.929 . S
C1566 C1565 1.399 . S
C1566 C1567 1.385 . S
C1567 H1553 0.931 . S
C1567 C1566 1.385 . S
C1567 C1568 1.389 . S
C1568 C1567 1.389 . S
C1568 C1569 1.387 . S
C1569 H1554 0.930 . S
C1569 C1564 1.390 . S
C1569 C1568 1.387 . S
H1570 C1582 0.930 . S
H1571 C1584 0.930 . S
H1572 C1585 0.930 . S
H1573 C1589 0.959 . S
H1574 C1589 0.959 . S
H1575 C1589 0.961 . S
H1576 C1590 0.960 . S
H1577 C1590 0.961 . S
H1578 C1590 0.959 . S
H1579 C1593 0.929 . S
H1580 C1594 0.931 . S
H1581 C1596 0.930 . S
C1582 H1570 0.930 . S
C1582 C1583 1.399 . S
C1582 C1587 1.399 . S
C1583 C1582 1.399 . S
C1583 C1584 1.376 . S
C1584 H1571 0.930 . S
C1584 C1583 1.376 . S
C1584 C1585 1.388 . S
C1585 H1572 0.930 . S
C1585 C1584 1.388 . S
C1585 C1586 1.390 . S
C1586 C1585 1.390 . S
C1586 C1587 1.394 . S
C1586 C1592 1.465 . S
C1587 C1582 1.399 . S
C1587 C1586 1.394 . S
C1587 C1588 1.516 . S
C1588 C1587 1.516 . S
C1588 C1589 1.502 . S
C1588 C1590 1.561 . S
C1588 C1591 1.526 . S
C1589 H1573 0.959 . S
C1589 H1574 0.959 . S
C1589 H1575 0.961 . S
C1589 C1588 1.502 . S
C1590 H1576 0.960 . S
C1590 H1577 0.961 . S
C1590 H1578 0.959 . S
C1590 C1588 1.561 . S
C1591 C1588 1.526 . S
C1591 C1592 1.396 . S
C1591 C1596 1.390 . S
C1592 C1586 1.465 . S
C1592 C1591 1.396 . S
C1592 C1593 1.399 . S
C1593 H1579 0.929 . S
C1593 C1592 1.399 . S
C1593 C1594 1.385 . S
C1594 H1580 0.931 . S
C1594 C1593 1.385 . S
C1594 C1595 1.389 . S
C1595 C1594 1.389 . S
C1595 C1596 1.387 . S
C1596 H1581 0.930 . S
C1596 C1591 1.390 . S
C1596 C1595 1.387 . S
H1597 C1609 0.930 . S
H1598 C1611 0.930 . S
H1599 C1612 0.930 . S
H1600 C1616 0.959 . S
H1601 C1616 0.959 . S
H1602 C1616 0.961 . S
H1603 C1617 0.960 . S
H1604 C1617 0.961 . S
H1605 C1617 0.959 . S
H1606 C1620 0.929 . S
H1607 C1621 0.931 . S
H1608 C1623 0.930 . S
C1609 H1597 0.930 . S
C1609 C1610 1.399 . S
C1609 C1614 1.399 . S
C1610 C1609 1.399 . S
C1610 C1611 1.376 . S
C1611 H1598 0.930 . S
C1611 C1610 1.376 . S
C1611 C1612 1.388 . S
C1612 H1599 0.930 . S
C1612 C1611 1.388 . S
C1612 C1613 1.390 . S
C1613 C1612 1.390 . S
C1613 C1614 1.394 . S
C1613 C1619 1.465 . S
C1614 C1609 1.399 . S
C1614 C1613 1.394 . S
C1614 C1615 1.516 . S
C1615 C1614 1.516 . S
C1615 C1616 1.502 . S
C1615 C1617 1.561 . S
C1615 C1618 1.526 . S
C1616 H1600 0.959 . S
C1616 H1601 0.959 . S
C1616 H1602 0.961 . S
C1616 C1615 1.502 . S
C1617 H1603 0.960 . S
C1617 H1604 0.961 . S
C1617 H1605 0.959 . S
C1617 C1615 1.561 . S
C1618 C1615 1.526 . S
C1618 C1619 1.396 . S
C1618 C1623 1.390 . S
C1619 C1613 1.465 . S
C1619 C1618 1.396 . S
C1619 C1620 1.399 . S
C1620 H1606 0.929 . S
C1620 C1619 1.399 . S
C1620 C1621 1.385 . S
C1621 H1607 0.931 . S
C1621 C1620 1.385 . S
C1621 C1622 1.389 . S
C1622 C1621 1.389 . S
C1622 C1623 1.387 . S
C1623 H1608 0.930 . S
C1623 C1618 1.390 . S
C1623 C1622 1.387 . S
H1624 C1636 0.930 . S
H1625 C1638 0.930 . S
H1626 C1639 0.930 . S
H1627 C1643 0.959 . S
H1628 C1643 0.959 . S
H1629 C1643 0.961 . S
H1630 C1644 0.960 . S
H1631 C1644 0.961 1_556 S
H1632 C1644 0.959 . S
H1633 C1647 0.929 . S
H1634 C1648 0.931 . S
H1635 C1650 0.930 . S
C1636 H1624 0.930 . S
C1636 C1637 1.399 . S
C1636 C1641 1.399 . S
C1637 C1636 1.399 . S
C1637 C1638 1.376 . S
C1638 H1625 0.930 . S
C1638 C1637 1.376 . S
C1638 C1639 1.388 . S
C1639 H1626 0.930 . S
C1639 C1638 1.388 . S
C1639 C1640 1.390 . S
C1640 C1639 1.390 . S
C1640 C1641 1.394 . S
C1640 C1646 1.465 . S
C1641 C1636 1.399 . S
C1641 C1640 1.394 . S
C1641 C1642 1.516 . S
C1642 C1641 1.516 . S
C1642 C1643 1.502 . S
C1642 C1644 1.561 . S
C1642 C1645 1.526 . S
C1643 H1627 0.959 . S
C1643 H1628 0.959 . S
C1643 H1629 0.961 . S
C1643 C1642 1.502 . S
C1644 H1630 0.960 . S
C1644 H1631 0.961 1_554 S
C1644 H1632 0.959 . S
C1644 C1642 1.561 . S
C1645 C1642 1.526 . S
C1645 C1646 1.396 . S
C1645 C1650 1.390 . S
C1646 C1640 1.465 . S
C1646 C1645 1.396 . S
C1646 C1647 1.399 . S
C1647 H1633 0.929 . S
C1647 C1646 1.399 . S
C1647 C1648 1.385 . S
C1648 H1634 0.931 . S
C1648 C1647 1.385 . S
C1648 C1649 1.389 . S
C1649 C1648 1.389 . S
C1649 C1650 1.387 . S
C1650 H1635 0.930 . S
C1650 C1645 1.390 . S
C1650 C1649 1.387 . S
H1651 C1663 0.930 . S
H1652 C1665 0.930 . S
H1653 C1666 0.930 . S
H1654 C1670 0.959 . S
H1655 C1670 0.959 . S
H1656 C1670 0.961 . S
H1657 C1671 0.960 . S
H1658 C1671 0.961 . S
H1659 C1671 0.959 . S
H1660 C1674 0.929 . S
H1661 C1675 0.931 . S
H1662 C1677 0.930 . S
C1663 H1651 0.930 . S
C1663 C1664 1.399 . S
C1663 C1668 1.399 . S
C1664 C1663 1.399 . S
C1664 C1665 1.376 . S
C1665 H1652 0.930 . S
C1665 C1664 1.376 . S
C1665 C1666 1.388 . S
C1666 H1653 0.930 . S
C1666 C1665 1.388 . S
C1666 C1667 1.390 . S
C1667 C1666 1.390 . S
C1667 C1668 1.394 . S
C1667 C1673 1.465 . S
C1668 C1663 1.399 . S
C1668 C1667 1.394 . S
C1668 C1669 1.516 . S
C1669 C1668 1.516 . S
C1669 C1670 1.502 . S
C1669 C1671 1.561 . S
C1669 C1672 1.526 . S
C1670 H1654 0.959 . S
C1670 H1655 0.959 . S
C1670 H1656 0.961 . S
C1670 C1669 1.502 . S
C1671 H1657 0.960 . S
C1671 H1658 0.961 . S
C1671 H1659 0.959 . S
C1671 C1669 1.561 . S
C1672 C1669 1.526 . S
C1672 C1673 1.396 . S
C1672 C1677 1.390 . S
C1673 C1667 1.465 . S
C1673 C1672 1.396 . S
C1673 C1674 1.399 . S
C1674 H1660 0.929 . S
C1674 C1673 1.399 . S
C1674 C1675 1.385 . S
C1675 H1661 0.931 . S
C1675 C1674 1.385 . S
C1675 C1676 1.389 . S
C1676 C1675 1.389 . S
C1676 C1677 1.387 . S
C1677 H1662 0.930 . S
C1677 C1672 1.390 . S
C1677 C1676 1.387 . S
H1678 C1690 0.930 . S
H1679 C1692 0.930 . S
H1680 C1693 0.930 . S
H1681 C1697 0.959 . S
H1682 C1697 0.959 . S
H1683 C1697 0.961 . S
H1684 C1698 0.960 . S
H1685 C1698 0.961 . S
H1686 C1698 0.959 . S
H1687 C1701 0.929 . S
H1688 C1702 0.931 . S
H1689 C1704 0.930 . S
C1690 H1678 0.930 . S
C1690 C1691 1.399 . S
C1690 C1695 1.399 . S
C1691 C1690 1.399 . S
C1691 C1692 1.376 . S
C1692 H1679 0.930 . S
C1692 C1691 1.376 . S
C1692 C1693 1.388 . S
C1693 H1680 0.930 . S
C1693 C1692 1.388 . S
C1693 C1694 1.390 . S
C1694 C1693 1.390 . S
C1694 C1695 1.394 . S
C1694 C1700 1.465 . S
C1695 C1690 1.399 . S
C1695 C1694 1.394 . S
C1695 C1696 1.516 . S
C1696 C1695 1.516 . S
C1696 C1697 1.502 . S
C1696 C1698 1.561 . S
C1696 C1699 1.526 . S
C1697 H1681 0.959 . S
C1697 H1682 0.959 . S
C1697 H1683 0.961 . S
C1697 C1696 1.502 . S
C1698 H1684 0.960 . S
C1698 H1685 0.961 . S
C1698 H1686 0.959 . S
C1698 C1696 1.561 . S
C1699 C1696 1.526 . S
C1699 C1700 1.396 . S
C1699 C1704 1.390 . S
C1700 C1694 1.465 . S
C1700 C1699 1.396 . S
C1700 C1701 1.399 . S
C1701 H1687 0.929 . S
C1701 C1700 1.399 . S
C1701 C1702 1.385 . S
C1702 H1688 0.931 . S
C1702 C1701 1.385 . S
C1702 C1703 1.389 . S
C1703 C1702 1.389 . S
C1703 C1704 1.387 . S
C1704 H1689 0.930 . S
C1704 C1699 1.390 . S
C1704 C1703 1.387 . S
H1705 C1717 0.930 . S
H1706 C1719 0.930 . S
H1707 C1720 0.930 . S
H1708 C1724 0.959 . S
H1709 C1724 0.959 . S
H1710 C1724 0.961 . S
H1711 C1725 0.960 . S
H1712 C1725 0.961 . S
H1713 C1725 0.959 . S
H1714 C1728 0.929 . S
H1715 C1729 0.931 . S
H1716 C1731 0.930 . S
C1717 H1705 0.930 . S
C1717 C1718 1.399 . S
C1717 C1722 1.399 . S
C1718 C1717 1.399 . S
C1718 C1719 1.376 . S
C1719 H1706 0.930 . S
C1719 C1718 1.376 . S
C1719 C1720 1.388 . S
C1720 H1707 0.930 . S
C1720 C1719 1.388 . S
C1720 C1721 1.390 . S
C1721 C1720 1.390 . S
C1721 C1722 1.394 . S
C1721 C1727 1.465 . S
C1722 C1717 1.399 . S
C1722 C1721 1.394 . S
C1722 C1723 1.516 . S
C1723 C1722 1.516 . S
C1723 C1724 1.502 . S
C1723 C1725 1.561 . S
C1723 C1726 1.526 . S
C1724 H1708 0.959 . S
C1724 H1709 0.959 . S
C1724 H1710 0.961 . S
C1724 C1723 1.502 . S
C1725 H1711 0.960 . S
C1725 H1712 0.961 . S
C1725 H1713 0.959 . S
C1725 C1723 1.561 . S
C1726 C1723 1.526 . S
C1726 C1727 1.396 . S
C1726 C1731 1.390 . S
C1727 C1721 1.465 . S
C1727 C1726 1.396 . S
C1727 C1728 1.399 . S
C1728 H1714 0.929 . S
C1728 C1727 1.399 . S
C1728 C1729 1.385 . S
C1729 H1715 0.931 . S
C1729 C1728 1.385 . S
C1729 C1730 1.389 . S
C1730 C1729 1.389 . S
C1730 C1731 1.387 . S
C1731 H1716 0.930 . S
C1731 C1726 1.390 . S
C1731 C1730 1.387 . S
H1732 C1744 0.930 . S
H1733 C1746 0.930 . S
H1734 C1747 0.917 1_655 S
H1735 C1751 0.959 . S
H1736 C1751 0.959 . S
H1737 C1751 0.961 . S
H1738 C1752 0.960 . S
H1739 C1752 0.961 . S
H1740 C1752 0.959 . S
H1741 C1755 0.929 . S
H1742 C1756 0.931 . S
H1743 C1758 0.930 . S
C1744 H1732 0.930 . S
C1744 C1745 1.399 . S
C1744 C1749 1.399 . S
C1745 C1744 1.399 . S
C1745 C1746 1.376 . S
C1746 H1733 0.930 . S
C1746 C1745 1.376 . S
C1746 C1747 1.392 . S
C1747 H1734 0.917 1_455 S
C1747 C1746 1.392 . S
C1747 C1748 1.399 . S
C1748 C1747 1.399 . S
C1748 C1749 1.394 . S
C1748 C1754 1.465 . S
C1749 C1744 1.399 . S
C1749 C1748 1.394 . S
C1749 C1750 1.516 . S
C1750 C1749 1.516 . S
C1750 C1751 1.502 . S
C1750 C1752 1.561 . S
C1750 C1753 1.526 . S
C1751 H1735 0.959 . S
C1751 H1736 0.959 . S
C1751 H1737 0.961 . S
C1751 C1750 1.502 . S
C1752 H1738 0.960 . S
C1752 H1739 0.961 . S
C1752 H1740 0.959 . S
C1752 C1750 1.561 . S
C1753 C1750 1.526 . S
C1753 C1754 1.396 . S
C1753 C1758 1.390 . S
C1754 C1748 1.465 . S
C1754 C1753 1.396 . S
C1754 C1755 1.399 1_455 S
C1755 H1741 0.929 . S
C1755 C1754 1.399 1_655 S
C1755 C1756 1.385 . S
C1756 H1742 0.931 . S
C1756 C1755 1.385 . S
C1756 C1757 1.389 1_655 S
C1757 C1756 1.389 1_455 S
C1757 C1758 1.387 . S
C1758 H1743 0.930 . S
C1758 C1753 1.390 . S
C1758 C1757 1.387 . S
H1759 C1771 0.930 . S
H1760 C1773 0.930 . S
H1761 C1774 0.930 . S
H1762 C1778 0.959 . S
H1763 C1778 0.959 . S
H1764 C1778 0.961 . S
H1765 C1779 0.960 . S
H1766 C1779 0.961 . S
H1767 C1779 0.959 . S
H1768 C1782 0.929 . S
H1769 C1783 0.931 . S
H1770 C1785 0.930 . S
C1771 H1759 0.930 . S
C1771 C1772 1.399 . S
C1771 C1776 1.399 . S
C1772 C1771 1.399 . S
C1772 C1773 1.376 . S
C1773 H1760 0.930 . S
C1773 C1772 1.376 . S
C1773 C1774 1.388 . S
C1774 H1761 0.930 . S
C1774 C1773 1.388 . S
C1774 C1775 1.390 . S
C1775 C1774 1.390 . S
C1775 C1776 1.394 . S
C1775 C1781 1.465 . S
C1776 C1771 1.399 . S
C1776 C1775 1.394 . S
C1776 C1777 1.516 . S
C1777 C1776 1.516 . S
C1777 C1778 1.502 . S
C1777 C1779 1.561 . S
C1777 C1780 1.526 . S
C1778 H1762 0.959 . S
C1778 H1763 0.959 . S
C1778 H1764 0.961 . S
C1778 C1777 1.502 . S
C1779 H1765 0.960 . S
C1779 H1766 0.961 . S
C1779 H1767 0.959 . S
C1779 C1777 1.561 . S
C1780 C1777 1.526 . S
C1780 C1781 1.396 . S
C1780 C1785 1.390 . S
C1781 C1775 1.465 . S
C1781 C1780 1.396 . S
C1781 C1782 1.399 . S
C1782 H1768 0.929 . S
C1782 C1781 1.399 . S
C1782 C1783 1.385 . S
C1783 H1769 0.931 . S
C1783 C1782 1.385 . S
C1783 C1784 1.389 . S
C1784 C1783 1.389 . S
C1784 C1785 1.387 . S
C1785 H1770 0.930 . S
C1785 C1780 1.390 . S
C1785 C1784 1.387 . S
H1786 C1798 0.930 . S
H1787 C1800 0.930 . S
H1788 C1801 0.930 . S
H1789 C1805 0.959 . S
H1790 C1805 0.959 . S
H1791 C1805 0.961 . S
H1792 C1806 0.960 . S
H1793 C1806 0.961 1_554 S
H1794 C1806 0.959 . S
H1795 C1809 0.929 . S
H1796 C1810 0.931 1_545 S
H1797 C1812 0.930 1_554 S
C1798 H1786 0.930 . S
C1798 C1799 1.399 . S
C1798 C1803 1.399 . S
C1799 C1798 1.399 . S
C1799 C1800 1.376 . S
C1800 H1787 0.930 . S
C1800 C1799 1.376 . S
C1800 C1801 1.388 . S
C1801 H1788 0.930 . S
C1801 C1800 1.388 . S
C1801 C1802 1.390 . S
C1802 C1801 1.390 . S
C1802 C1803 1.394 . S
C1802 C1808 1.465 . S
C1803 C1798 1.399 . S
C1803 C1802 1.394 . S
C1803 C1804 1.516 . S
C1804 C1803 1.516 . S
C1804 C1805 1.502 . S
C1804 C1806 1.561 . S
C1804 C1807 1.526 . S
C1805 H1789 0.959 . S
C1805 H1790 0.959 . S
C1805 H1791 0.961 . S
C1805 C1804 1.502 . S
C1806 H1792 0.960 . S
C1806 H1793 0.961 1_556 S
C1806 H1794 0.959 . S
C1806 C1804 1.561 . S
C1807 C1804 1.526 . S
C1807 C1808 1.396 . S
C1807 C1812 1.390 . S
C1808 C1802 1.465 . S
C1808 C1807 1.396 . S
C1808 C1809 1.399 . S
C1809 H1795 0.929 . S
C1809 C1808 1.399 . S
C1809 C1810 1.385 . S
C1810 H1796 0.931 1_565 S
C1810 C1809 1.385 . S
C1810 C1811 1.389 . S
C1811 C1810 1.389 . S
C1811 C1812 1.387 . S
C1812 H1797 0.930 1_556 S
C1812 C1807 1.390 . S
C1812 C1811 1.387 . S
H1813 C1825 0.930 . S
H1814 C1827 0.930 . S
H1815 C1828 0.930 . S
H1816 C1832 0.959 . S
H1817 C1832 0.959 . S
H1818 C1832 0.961 . S
H1819 C1833 0.960 . S
H1820 C1833 0.961 . S
H1821 C1833 0.959 . S
H1822 C1836 0.929 . S
H1823 C1837 0.931 . S
H1824 C1839 0.930 . S
C1825 H1813 0.930 . S
C1825 C1826 1.399 . S
C1825 C1830 1.399 . S
C1826 C1825 1.399 . S
C1826 C1827 1.376 . S
C1827 H1814 0.930 . S
C1827 C1826 1.376 . S
C1827 C1828 1.388 . S
C1828 H1815 0.930 . S
C1828 C1827 1.388 . S
C1828 C1829 1.390 . S
C1829 C1828 1.390 . S
C1829 C1830 1.394 . S
C1829 C1835 1.465 . S
C1830 C1825 1.399 . S
C1830 C1829 1.394 . S
C1830 C1831 1.516 . S
C1831 C1830 1.516 . S
C1831 C1832 1.502 . S
C1831 C1833 1.561 . S
C1831 C1834 1.526 . S
C1832 H1816 0.959 . S
C1832 H1817 0.959 . S
C1832 H1818 0.961 . S
C1832 C1831 1.502 . S
C1833 H1819 0.960 . S
C1833 H1820 0.961 . S
C1833 H1821 0.959 . S
C1833 C1831 1.561 . S
C1834 C1831 1.526 . S
C1834 C1835 1.396 . S
C1834 C1839 1.390 . S
C1835 C1829 1.465 . S
C1835 C1834 1.396 . S
C1835 C1836 1.399 . S
C1836 H1822 0.929 . S
C1836 C1835 1.399 . S
C1836 C1837 1.385 . S
C1837 H1823 0.931 . S
C1837 C1836 1.385 . S
C1837 C1838 1.389 . S
C1838 C1837 1.389 . S
C1838 C1839 1.387 . S
C1839 H1824 0.930 . S
C1839 C1834 1.390 . S
C1839 C1838 1.387 . S
H1840 C1852 0.930 . S
H1841 C1854 0.930 . S
H1842 C1855 0.930 . S
H1843 C1859 0.959 . S
H1844 C1859 0.959 1_565 S
H1845 C1859 0.961 1_565 S
H1846 C1860 0.960 . S
H1847 C1860 0.961 . S
H1848 C1860 0.959 1_545 S
H1849 C1863 0.929 . S
H1850 C1864 0.931 . S
H1851 C1866 0.930 . S
C1852 H1840 0.930 . S
C1852 C1853 1.399 . S
C1852 C1857 1.399 . S
C1853 C1852 1.399 . S
C1853 C1854 1.376 . S
C1854 H1841 0.930 . S
C1854 C1853 1.376 . S
C1854 C1855 1.388 . S
C1855 H1842 0.930 . S
C1855 C1854 1.388 . S
C1855 C1856 1.390 . S
C1856 C1855 1.390 . S
C1856 C1857 1.394 . S
C1856 C1862 1.465 . S
C1857 C1852 1.399 . S
C1857 C1856 1.394 . S
C1857 C1858 1.516 . S
C1858 C1857 1.516 . S
C1858 C1859 1.502 . S
C1858 C1860 1.561 1_545 S
C1858 C1861 1.526 . S
C1859 H1843 0.959 . S
C1859 H1844 0.959 1_545 S
C1859 H1845 0.961 1_545 S
C1859 C1858 1.502 . S
C1860 H1846 0.960 . S
C1860 H1847 0.961 . S
C1860 H1848 0.959 1_565 S
C1860 C1858 1.561 1_565 S
C1861 C1858 1.526 . S
C1861 C1862 1.396 . S
C1861 C1866 1.390 . S
C1862 C1856 1.465 . S
C1862 C1861 1.396 . S
C1862 C1863 1.399 . S
C1863 H1849 0.929 . S
C1863 C1862 1.399 . S
C1863 C1864 1.385 . S
C1864 H1850 0.931 . S
C1864 C1863 1.385 . S
C1864 C1865 1.389 . S
C1865 C1864 1.389 . S
C1865 C1866 1.387 . S
C1866 H1851 0.930 . S
C1866 C1861 1.390 . S
C1866 C1865 1.387 . S
H1867 C1879 0.930 . S
H1868 C1881 0.930 . S
H1869 C1882 0.930 . S
H1870 C1886 0.959 . S
H1871 C1886 0.959 . S
H1872 C1886 0.961 . S
H1873 C1887 0.960 . S
H1874 C1887 0.961 . S
H1875 C1887 0.959 . S
H1876 C1890 0.929 . S
H1877 C1891 0.931 . S
H1878 C1893 0.930 . S
C1879 H1867 0.930 . S
C1879 C1880 1.399 . S
C1879 C1884 1.399 . S
C1880 C1879 1.399 . S
C1880 C1881 1.376 . S
C1881 H1868 0.930 . S
C1881 C1880 1.376 . S
C1881 C1882 1.388 . S
C1882 H1869 0.930 . S
C1882 C1881 1.388 . S
C1882 C1883 1.390 . S
C1883 C1882 1.390 . S
C1883 C1884 1.394 . S
C1883 C1889 1.465 . S
C1884 C1879 1.399 . S
C1884 C1883 1.394 . S
C1884 C1885 1.516 . S
C1885 C1884 1.516 . S
C1885 C1886 1.502 . S
C1885 C1887 1.561 . S
C1885 C1888 1.526 . S
C1886 H1870 0.959 . S
C1886 H1871 0.959 . S
C1886 H1872 0.961 . S
C1886 C1885 1.502 . S
C1887 H1873 0.960 . S
C1887 H1874 0.961 . S
C1887 H1875 0.959 . S
C1887 C1885 1.561 . S
C1888 C1885 1.526 . S
C1888 C1889 1.396 . S
C1888 C1893 1.390 . S
C1889 C1883 1.465 . S
C1889 C1888 1.396 . S
C1889 C1890 1.399 . S
C1890 H1876 0.929 . S
C1890 C1889 1.399 . S
C1890 C1891 1.385 . S
C1891 H1877 0.931 . S
C1891 C1890 1.385 . S
C1891 C1892 1.389 . S
C1892 C1891 1.389 . S
C1892 C1893 1.387 . S
C1893 H1878 0.930 . S
C1893 C1888 1.390 . S
C1893 C1892 1.387 . S
H1894 C1906 0.930 . S
H1895 C1908 0.930 . S
H1896 C1909 0.930 . S
H1897 C1913 0.959 1_545 S
H1898 C1913 0.959 . S
H1899 C1913 0.961 . S
H1900 C1914 0.960 . S
H1901 C1914 0.961 . S
H1902 C1914 0.959 . S
H1903 C1917 0.929 . S
H1904 C1918 0.931 . S
H1905 C1920 0.930 . S
C1906 H1894 0.930 . S
C1906 C1907 1.399 1_565 S
C1906 C1911 1.399 1_565 S
C1907 C1906 1.399 1_545 S
C1907 C1908 1.376 . S
C1908 H1895 0.930 . S
C1908 C1907 1.376 . S
C1908 C1909 1.388 . S
C1909 H1896 0.930 . S
C1909 C1908 1.388 . S
C1909 C1910 1.390 . S
C1910 C1909 1.390 . S
C1910 C1911 1.394 . S
C1910 C1916 1.465 . S
C1911 C1906 1.399 1_545 S
C1911 C1910 1.394 . S
C1911 C1912 1.516 1_545 S
C1912 C1911 1.516 1_565 S
C1912 C1913 1.502 . S
C1912 C1914 1.561 . S
C1912 C1915 1.526 1_565 S
C1913 H1897 0.959 1_565 S
C1913 H1898 0.959 . S
C1913 H1899 0.961 . S
C1913 C1912 1.502 . S
C1914 H1900 0.960 . S
C1914 H1901 0.961 . S
C1914 H1902 0.959 . S
C1914 C1912 1.561 . S
C1915 C1912 1.526 1_545 S
C1915 C1916 1.396 . S
C1915 C1920 1.390 . S
C1916 C1910 1.465 . S
C1916 C1915 1.396 . S
C1916 C1917 1.399 . S
C1917 H1903 0.929 . S
C1917 C1916 1.399 . S
C1917 C1918 1.385 . S
C1918 H1904 0.931 . S
C1918 C1917 1.385 . S
C1918 C1919 1.389 . S
C1919 C1918 1.389 . S
C1919 C1920 1.387 . S
C1920 H1905 0.930 . S
C1920 C1915 1.390 . S
C1920 C1919 1.387 . S
H1921 C1933 0.930 . S
H1922 C1935 0.930 . S
H1923 C1936 0.930 . S
H1924 C1940 0.959 . S
H1925 C1940 0.959 . S
H1926 C1940 0.961 . S
H1927 C1941 0.960 . S
H1928 C1941 0.961 . S
H1929 C1941 0.959 . S
H1930 C1944 0.929 . S
H1931 C1945 0.931 . S
H1932 C1947 0.930 . S
C1933 H1921 0.930 . S
C1933 C1934 1.399 . S
C1933 C1938 1.399 . S
C1934 C1933 1.399 . S
C1934 C1935 1.376 . S
C1935 H1922 0.930 . S
C1935 C1934 1.376 . S
C1935 C1936 1.388 . S
C1936 H1923 0.930 . S
C1936 C1935 1.388 . S
C1936 C1937 1.390 . S
C1937 C1936 1.390 . S
C1937 C1938 1.394 . S
C1937 C1943 1.465 . S
C1938 C1933 1.399 . S
C1938 C1937 1.394 . S
C1938 C1939 1.516 . S
C1939 C1938 1.516 . S
C1939 C1940 1.502 . S
C1939 C1941 1.561 . S
C1939 C1942 1.526 . S
C1940 H1924 0.959 . S
C1940 H1925 0.959 . S
C1940 H1926 0.961 . S
C1940 C1939 1.502 . S
C1941 H1927 0.960 . S
C1941 H1928 0.961 . S
C1941 H1929 0.959 . S
C1941 C1939 1.561 . S
C1942 C1939 1.526 . S
C1942 C1943 1.396 . S
C1942 C1947 1.390 . S
C1943 C1937 1.465 . S
C1943 C1942 1.396 . S
C1943 C1944 1.399 . S
C1944 H1930 0.929 . S
C1944 C1943 1.399 . S
C1944 C1945 1.385 . S
C1945 H1931 0.931 . S
C1945 C1944 1.385 . S
C1945 C1946 1.389 . S
C1946 C1945 1.389 . S
C1946 C1947 1.387 . S
C1947 H1932 0.930 . S
C1947 C1942 1.390 . S
C1947 C1946 1.387 . S
H1948 C1960 0.930 . S
H1949 C1962 0.930 . S
H1950 C1963 0.930 . S
H1951 C1967 0.959 . S
H1952 C1967 0.959 . S
H1953 C1967 0.961 . S
H1954 C1968 0.960 . S
H1955 C1968 0.961 . S
H1956 C1968 0.959 . S
H1957 C1971 0.929 . S
H1958 C1972 0.931 . S
H1959 C1974 0.930 . S
C1960 H1948 0.930 . S
C1960 C1961 1.399 . S
C1960 C1965 1.399 . S
C1961 C1960 1.399 . S
C1961 C1962 1.376 . S
C1962 H1949 0.930 . S
C1962 C1961 1.376 . S
C1962 C1963 1.388 . S
C1963 H1950 0.930 . S
C1963 C1962 1.388 . S
C1963 C1964 1.390 . S
C1964 C1963 1.390 . S
C1964 C1965 1.394 . S
C1964 C1970 1.465 . S
C1965 C1960 1.399 . S
C1965 C1964 1.394 . S
C1965 C1966 1.516 . S
C1966 C1965 1.516 . S
C1966 C1967 1.502 . S
C1966 C1968 1.561 . S
C1966 C1969 1.526 . S
C1967 H1951 0.959 . S
C1967 H1952 0.959 . S
C1967 H1953 0.961 . S
C1967 C1966 1.502 . S
C1968 H1954 0.960 . S
C1968 H1955 0.961 . S
C1968 H1956 0.959 . S
C1968 C1966 1.561 . S
C1969 C1966 1.526 . S
C1969 C1970 1.396 . S
C1969 C1974 1.390 . S
C1970 C1964 1.465 . S
C1970 C1969 1.396 . S
C1970 C1971 1.399 . S
C1971 H1957 0.929 . S
C1971 C1970 1.399 . S
C1971 C1972 1.385 . S
C1972 H1958 0.931 . S
C1972 C1971 1.385 . S
C1972 C1973 1.389 . S
C1973 C1972 1.389 . S
C1973 C1974 1.387 . S
C1974 H1959 0.930 . S
C1974 C1969 1.390 . S
C1974 C1973 1.387 . S
H1975 C1987 0.930 . S
H1976 C1989 0.930 . S
H1977 C1990 0.930 . S
H1978 C1994 0.959 . S
H1979 C1994 0.959 . S
H1980 C1994 0.961 . S
H1981 C1995 0.960 . S
H1982 C1995 0.961 . S
H1983 C1995 0.959 . S
H1984 C1998 0.929 . S
H1985 C1999 0.931 . S
H1986 C2001 0.930 . S
C1987 H1975 0.930 . S
C1987 C1988 1.399 . S
C1987 C1992 1.399 . S
C1988 C1987 1.399 . S
C1988 C1989 1.376 . S
C1989 H1976 0.930 . S
C1989 C1988 1.376 . S
C1989 C1990 1.388 . S
C1990 H1977 0.930 . S
C1990 C1989 1.388 . S
C1990 C1991 1.390 . S
C1991 C1990 1.390 . S
C1991 C1992 1.394 . S
C1991 C1997 1.465 . S
C1992 C1987 1.399 . S
C1992 C1991 1.394 . S
C1992 C1993 1.516 . S
C1993 C1992 1.516 . S
C1993 C1994 1.502 . S
C1993 C1995 1.561 . S
C1993 C1996 1.526 . S
C1994 H1978 0.959 . S
C1994 H1979 0.959 . S
C1994 H1980 0.961 . S
C1994 C1993 1.502 . S
C1995 H1981 0.960 . S
C1995 H1982 0.961 . S
C1995 H1983 0.959 . S
C1995 C1993 1.561 . S
C1996 C1993 1.526 . S
C1996 C1997 1.396 . S
C1996 C2001 1.390 . S
C1997 C1991 1.465 . S
C1997 C1996 1.396 . S
C1997 C1998 1.399 . S
C1998 H1984 0.929 . S
C1998 C1997 1.399 . S
C1998 C1999 1.385 . S
C1999 H1985 0.931 . S
C1999 C1998 1.385 . S
C1999 C2000 1.389 . S
C2000 C1999 1.389 . S
C2000 C2001 1.387 . S
C2001 H1986 0.930 . S
C2001 C1996 1.390 . S
C2001 C2000 1.387 . S
H2002 C2014 0.930 . S
H2003 C2016 0.930 . S
H2004 C2017 0.930 . S
H2005 C2021 0.959 . S
H2006 C2021 0.959 . S
H2007 C2021 0.961 . S
H2008 C2022 0.960 . S
H2009 C2022 0.961 . S
H2010 C2022 0.959 . S
H2011 C2025 0.929 . S
H2012 C2026 0.931 . S
H2013 C2028 0.930 . S
C2014 H2002 0.930 . S
C2014 C2015 1.399 1_565 S
C2014 C2019 1.399 . S
C2015 C2014 1.399 1_545 S
C2015 C2016 1.376 . S
C2016 H2003 0.930 . S
C2016 C2015 1.376 . S
C2016 C2017 1.388 . S
C2017 H2004 0.930 . S
C2017 C2016 1.388 . S
C2017 C2018 1.390 . S
C2018 C2017 1.390 . S
C2018 C2019 1.394 1_545 S
C2018 C2024 1.465 . S
C2019 C2014 1.399 . S
C2019 C2018 1.394 1_565 S
C2019 C2020 1.516 . S
C2020 C2019 1.516 . S
C2020 C2021 1.502 . S
C2020 C2022 1.561 . S
C2020 C2023 1.526 . S
C2021 H2005 0.959 . S
C2021 H2006 0.959 . S
C2021 H2007 0.961 . S
C2021 C2020 1.502 . S
C2022 H2008 0.960 . S
C2022 H2009 0.961 . S
C2022 H2010 0.959 . S
C2022 C2020 1.561 . S
C2023 C2020 1.526 . S
C2023 C2024 1.396 1_565 S
C2023 C2028 1.390 . S
C2024 C2018 1.465 . S
C2024 C2023 1.396 1_545 S
C2024 C2025 1.399 . S
C2025 H2011 0.929 . S
C2025 C2024 1.399 . S
C2025 C2026 1.385 . S
C2026 H2012 0.931 . S
C2026 C2025 1.385 . S
C2026 C2027 1.389 1_545 S
C2027 C2026 1.389 1_565 S
C2027 C2028 1.387 . S
C2028 H2013 0.930 . S
C2028 C2023 1.390 . S
C2028 C2027 1.387 . S
H2029 C2041 0.930 . S
H2030 C2043 0.930 . S
H2031 C2044 0.930 . S
H2032 C2048 0.959 . S
H2033 C2048 0.959 . S
H2034 C2048 0.961 . S
H2035 C2049 0.960 . S
H2036 C2049 0.961 . S
H2037 C2049 0.959 . S
H2038 C2052 0.929 . S
H2039 C2053 0.931 . S
H2040 C2055 0.930 . S
C2041 H2029 0.930 . S
C2041 C2042 1.399 . S
C2041 C2046 1.399 . S
C2042 C2041 1.399 . S
C2042 C2043 1.376 . S
C2043 H2030 0.930 . S
C2043 C2042 1.376 . S
C2043 C2044 1.388 . S
C2044 H2031 0.930 . S
C2044 C2043 1.388 . S
C2044 C2045 1.390 . S
C2045 C2044 1.390 . S
C2045 C2046 1.394 . S
C2045 C2051 1.465 . S
C2046 C2041 1.399 . S
C2046 C2045 1.394 . S
C2046 C2047 1.516 . S
C2047 C2046 1.516 . S
C2047 C2048 1.502 . S
C2047 C2049 1.561 . S
C2047 C2050 1.526 . S
C2048 H2032 0.959 . S
C2048 H2033 0.959 . S
C2048 H2034 0.961 . S
C2048 C2047 1.502 . S
C2049 H2035 0.960 . S
C2049 H2036 0.961 . S
C2049 H2037 0.959 . S
C2049 C2047 1.561 . S
C2050 C2047 1.526 . S
C2050 C2051 1.396 . S
C2050 C2055 1.390 . S
C2051 C2045 1.465 . S
C2051 C2050 1.396 . S
C2051 C2052 1.399 . S
C2052 H2038 0.929 . S
C2052 C2051 1.399 . S
C2052 C2053 1.385 . S
C2053 H2039 0.931 . S
C2053 C2052 1.385 . S
C2053 C2054 1.389 . S
C2054 C2053 1.389 . S
C2054 C2055 1.387 . S
C2055 H2040 0.930 . S
C2055 C2050 1.390 . S
C2055 C2054 1.387 . S
H2056 C2068 0.930 . S
H2057 C2070 0.930 . S
H2058 C2071 0.930 . S
H2059 C2075 0.959 . S
H2060 C2075 0.959 . S
H2061 C2075 0.961 . S
H2062 C2076 0.960 . S
H2063 C2076 0.961 1_556 S
H2064 C2076 0.959 . S
H2065 C2079 0.929 . S
H2066 C2080 0.931 . S
H2067 C2082 0.930 1_556 S
C2068 H2056 0.930 . S
C2068 C2069 1.399 . S
C2068 C2073 1.399 . S
C2069 C2068 1.399 . S
C2069 C2070 1.376 . S
C2070 H2057 0.930 . S
C2070 C2069 1.376 . S
C2070 C2071 1.388 . S
C2071 H2058 0.930 . S
C2071 C2070 1.388 . S
C2071 C2072 1.390 . S
C2072 C2071 1.390 . S
C2072 C2073 1.394 . S
C2072 C2078 1.465 . S
C2073 C2068 1.399 . S
C2073 C2072 1.394 . S
C2073 C2074 1.516 . S
C2074 C2073 1.516 . S
C2074 C2075 1.502 1_554 S
C2074 C2076 1.561 . S
C2074 C2077 1.526 . S
C2075 H2059 0.959 . S
C2075 H2060 0.959 . S
C2075 H2061 0.961 . S
C2075 C2074 1.502 1_556 S
C2076 H2062 0.960 . S
C2076 H2063 0.961 1_554 S
C2076 H2064 0.959 . S
C2076 C2074 1.561 . S
C2077 C2074 1.526 . S
C2077 C2078 1.396 . S
C2077 C2082 1.390 . S
C2078 C2072 1.465 . S
C2078 C2077 1.396 . S
C2078 C2079 1.399 . S
C2079 H2065 0.929 . S
C2079 C2078 1.399 . S
C2079 C2080 1.385 . S
C2080 H2066 0.931 . S
C2080 C2079 1.385 . S
C2080 C2081 1.389 . S
C2081 C2080 1.389 . S
C2081 C2082 1.387 . S
C2082 H2067 0.930 1_554 S
C2082 C2077 1.390 . S
C2082 C2081 1.387 . S
H2083 C2095 0.930 . S
H2084 C2097 0.930 . S
H2085 C2098 0.930 1_556 S
H2086 C2102 0.959 . S
H2087 C2102 0.959 . S
H2088 C2102 0.961 . S
H2089 C2103 0.960 . S
H2090 C2103 0.961 . S
H2091 C2103 0.959 . S
H2092 C2106 0.929 1_556 S
H2093 C2107 0.931 . S
H2094 C2109 0.930 . S
C2095 H2083 0.930 . S
C2095 C2096 1.399 . S
C2095 C2100 1.399 . S
C2096 C2095 1.399 . S
C2096 C2097 1.376 . S
C2097 H2084 0.930 . S
C2097 C2096 1.376 . S
C2097 C2098 1.388 . S
C2098 H2085 0.930 1_554 S
C2098 C2097 1.388 . S
C2098 C2099 1.390 . S
C2099 C2098 1.390 . S
C2099 C2100 1.394 . S
C2099 C2105 1.465 . S
C2100 C2095 1.399 . S
C2100 C2099 1.394 . S
C2100 C2101 1.516 . S
C2101 C2100 1.516 . S
C2101 C2102 1.502 . S
C2101 C2103 1.561 . S
C2101 C2104 1.526 . S
C2102 H2086 0.959 . S
C2102 H2087 0.959 . S
C2102 H2088 0.961 . S
C2102 C2101 1.502 . S
C2103 H2089 0.960 . S
C2103 H2090 0.961 . S
C2103 H2091 0.959 . S
C2103 C2101 1.561 . S
C2104 C2101 1.526 . S
C2104 C2105 1.396 . S
C2104 C2109 1.390 . S
C2105 C2099 1.465 . S
C2105 C2104 1.396 . S
C2105 C2106 1.399 . S
C2106 H2092 0.929 1_554 S
C2106 C2105 1.399 . S
C2106 C2107 1.385 . S
C2107 H2093 0.931 . S
C2107 C2106 1.385 . S
C2107 C2108 1.389 . S
C2108 C2107 1.389 . S
C2108 C2109 1.387 . S
C2109 H2094 0.930 . S
C2109 C2104 1.390 . S
C2109 C2108 1.387 . S
H2110 C2122 0.930 . S
H2111 C2124 0.930 . S
H2112 C2125 0.930 . S
H2113 C2129 0.959 . S
H2114 C2129 0.959 . S
H2115 C2129 0.961 . S
H2116 C2130 0.960 . S
H2117 C2130 0.961 . S
H2118 C2130 0.959 . S
H2119 C2133 0.929 . S
H2120 C2134 0.931 . S
H2121 C2136 0.930 . S
C2122 H2110 0.930 . S
C2122 C2123 1.399 . S
C2122 C2127 1.399 . S
C2123 C2122 1.399 . S
C2123 C2124 1.376 . S
C2124 H2111 0.930 . S
C2124 C2123 1.376 . S
C2124 C2125 1.388 . S
C2125 H2112 0.930 . S
C2125 C2124 1.388 . S
C2125 C2126 1.390 . S
C2126 C2125 1.390 . S
C2126 C2127 1.394 . S
C2126 C2132 1.465 . S
C2127 C2122 1.399 . S
C2127 C2126 1.394 . S
C2127 C2128 1.516 . S
C2128 C2127 1.516 . S
C2128 C2129 1.502 . S
C2128 C2130 1.561 . S
C2128 C2131 1.526 . S
C2129 H2113 0.959 . S
C2129 H2114 0.959 . S
C2129 H2115 0.961 . S
C2129 C2128 1.502 . S
C2130 H2116 0.960 . S
C2130 H2117 0.961 . S
C2130 H2118 0.959 . S
C2130 C2128 1.561 . S
C2131 C2128 1.526 . S
C2131 C2132 1.396 . S
C2131 C2136 1.390 . S
C2132 C2126 1.465 . S
C2132 C2131 1.396 . S
C2132 C2133 1.399 . S
C2133 H2119 0.929 . S
C2133 C2132 1.399 . S
C2133 C2134 1.385 . S
C2134 H2120 0.931 . S
C2134 C2133 1.385 . S
C2134 C2135 1.389 . S
C2135 C2134 1.389 . S
C2135 C2136 1.387 . S
C2136 H2121 0.930 . S
C2136 C2131 1.390 . S
C2136 C2135 1.387 . S
H2137 C2149 0.930 . S
H2138 C2151 0.930 . S
H2139 C2152 0.930 . S
H2140 C2156 0.959 . S
H2141 C2156 0.959 . S
H2142 C2156 0.961 . S
H2143 C2157 0.960 . S
H2144 C2157 0.961 . S
H2145 C2157 0.959 . S
H2146 C2160 0.929 . S
H2147 C2161 0.931 . S
H2148 C2163 0.930 . S
C2149 H2137 0.930 . S
C2149 C2150 1.399 . S
C2149 C2154 1.399 . S
C2150 C2149 1.399 . S
C2150 C2151 1.376 . S
C2151 H2138 0.930 . S
C2151 C2150 1.376 . S
C2151 C2152 1.388 . S
C2152 H2139 0.930 . S
C2152 C2151 1.388 . S
C2152 C2153 1.390 . S
C2153 C2152 1.390 . S
C2153 C2154 1.394 . S
C2153 C2159 1.465 . S
C2154 C2149 1.399 . S
C2154 C2153 1.394 . S
C2154 C2155 1.516 . S
C2155 C2154 1.516 . S
C2155 C2156 1.502 . S
C2155 C2157 1.561 . S
C2155 C2158 1.526 . S
C2156 H2140 0.959 . S
C2156 H2141 0.959 . S
C2156 H2142 0.961 . S
C2156 C2155 1.502 . S
C2157 H2143 0.960 . S
C2157 H2144 0.961 . S
C2157 H2145 0.959 . S
C2157 C2155 1.561 . S
C2158 C2155 1.526 . S
C2158 C2159 1.396 . S
C2158 C2163 1.390 . S
C2159 C2153 1.465 . S
C2159 C2158 1.396 . S
C2159 C2160 1.399 . S
C2160 H2146 0.929 . S
C2160 C2159 1.399 . S
C2160 C2161 1.385 . S
C2161 H2147 0.931 . S
C2161 C2160 1.385 . S
C2161 C2162 1.389 . S
C2162 C2161 1.389 . S
C2162 C2163 1.387 . S
C2163 H2148 0.930 . S
C2163 C2158 1.390 . S
C2163 C2162 1.387 . S
H2164 C2176 0.930 . S
H2165 C2178 0.930 . S
H2166 C2179 0.930 . S
H2167 C2183 0.959 . S
H2168 C2183 0.959 . S
H2169 C2183 0.961 . S
H2170 C2184 0.960 . S
H2171 C2184 0.961 . S
H2172 C2184 0.959 . S
H2173 C2187 0.929 . S
H2174 C2188 0.931 . S
H2175 C2190 0.930 . S
C2176 H2164 0.930 . S
C2176 C2177 1.399 1_565 S
C2176 C2181 1.399 . S
C2177 C2176 1.399 1_545 S
C2177 C2178 1.376 . S
C2178 H2165 0.930 . S
C2178 C2177 1.376 . S
C2178 C2179 1.388 . S
C2179 H2166 0.930 . S
C2179 C2178 1.388 . S
C2179 C2180 1.390 1_545 S
C2180 C2179 1.390 1_565 S
C2180 C2181 1.394 . S
C2180 C2186 1.465 . S
C2181 C2176 1.399 . S
C2181 C2180 1.394 . S
C2181 C2182 1.516 . S
C2182 C2181 1.516 . S
C2182 C2183 1.502 . S
C2182 C2184 1.561 . S
C2182 C2185 1.526 . S
C2183 H2167 0.959 . S
C2183 H2168 0.959 . S
C2183 H2169 0.961 . S
C2183 C2182 1.502 . S
C2184 H2170 0.960 . S
C2184 H2171 0.961 . S
C2184 H2172 0.959 . S
C2184 C2182 1.561 . S
C2185 C2182 1.526 . S
C2185 C2186 1.396 . S
C2185 C2190 1.390 . S
C2186 C2180 1.465 . S
C2186 C2185 1.396 . S
C2186 C2187 1.399 . S
C2187 H2173 0.929 . S
C2187 C2186 1.399 . S
C2187 C2188 1.385 . S
C2188 H2174 0.931 . S
C2188 C2187 1.385 . S
C2188 C2189 1.389 . S
C2189 C2188 1.389 . S
C2189 C2190 1.387 . S
C2190 H2175 0.930 . S
C2190 C2185 1.390 . S
C2190 C2189 1.387 . S
H2191 C2203 0.930 . S
H2192 C2205 0.930 . S
H2193 C2206 0.930 . S
H2194 C2210 0.959 . S
H2195 C2210 0.959 . S
H2196 C2210 0.961 . S
H2197 C2211 0.960 . S
H2198 C2211 0.961 . S
H2199 C2211 0.959 . S
H2200 C2214 0.929 . S
H2201 C2215 0.931 . S
H2202 C2217 0.930 . S
C2203 H2191 0.930 . S
C2203 C2204 1.399 . S
C2203 C2208 1.399 . S
C2204 C2203 1.399 . S
C2204 C2205 1.376 . S
C2205 H2192 0.930 . S
C2205 C2204 1.376 . S
C2205 C2206 1.388 . S
C2206 H2193 0.930 . S
C2206 C2205 1.388 . S
C2206 C2207 1.390 . S
C2207 C2206 1.390 . S
C2207 C2208 1.394 . S
C2207 C2213 1.465 . S
C2208 C2203 1.399 . S
C2208 C2207 1.394 . S
C2208 C2209 1.516 . S
C2209 C2208 1.516 . S
C2209 C2210 1.502 . S
C2209 C2211 1.561 . S
C2209 C2212 1.526 . S
C2210 H2194 0.959 . S
C2210 H2195 0.959 . S
C2210 H2196 0.961 . S
C2210 C2209 1.502 . S
C2211 H2197 0.960 . S
C2211 H2198 0.961 . S
C2211 H2199 0.959 . S
C2211 C2209 1.561 . S
C2212 C2209 1.526 . S
C2212 C2213 1.396 . S
C2212 C2217 1.390 . S
C2213 C2207 1.465 . S
C2213 C2212 1.396 . S
C2213 C2214 1.399 . S
C2214 H2200 0.929 . S
C2214 C2213 1.399 . S
C2214 C2215 1.385 . S
C2215 H2201 0.931 . S
C2215 C2214 1.385 . S
C2215 C2216 1.389 . S
C2216 C2215 1.389 . S
C2216 C2217 1.387 . S
C2217 H2202 0.930 . S
C2217 C2212 1.390 . S
C2217 C2216 1.387 . S
H2218 C2230 0.930 . S
H2219 C2232 0.930 . S
H2220 C2233 0.930 . S
H2221 C2237 0.959 . S
H2222 C2237 0.959 . S
H2223 C2237 0.961 . S
H2224 C2238 0.960 . S
H2225 C2238 0.961 . S
H2226 C2238 0.959 . S
H2227 C2241 0.929 . S
H2228 C2242 0.931 . S
H2229 C2244 0.930 . S
C2230 H2218 0.930 . S
C2230 C2231 1.399 . S
C2230 C2235 1.399 . S
C2231 C2230 1.399 . S
C2231 C2232 1.376 . S
C2232 H2219 0.930 . S
C2232 C2231 1.376 . S
C2232 C2233 1.388 . S
C2233 H2220 0.930 . S
C2233 C2232 1.388 . S
C2233 C2234 1.390 . S
C2234 C2233 1.390 . S
C2234 C2235 1.394 . S
C2234 C2240 1.465 . S
C2235 C2230 1.399 . S
C2235 C2234 1.394 . S
C2235 C2236 1.516 . S
C2236 C2235 1.516 . S
C2236 C2237 1.502 . S
C2236 C2238 1.561 . S
C2236 C2239 1.526 . S
C2237 H2221 0.959 . S
C2237 H2222 0.959 . S
C2237 H2223 0.961 . S
C2237 C2236 1.502 . S
C2238 H2224 0.960 . S
C2238 H2225 0.961 . S
C2238 H2226 0.959 . S
C2238 C2236 1.561 . S
C2239 C2236 1.526 . S
C2239 C2240 1.396 . S
C2239 C2244 1.390 . S
C2240 C2234 1.465 . S
C2240 C2239 1.396 . S
C2240 C2241 1.399 . S
C2241 H2227 0.929 . S
C2241 C2240 1.399 . S
C2241 C2242 1.385 . S
C2242 H2228 0.931 . S
C2242 C2241 1.385 . S
C2242 C2243 1.389 . S
C2243 C2242 1.389 . S
C2243 C2244 1.387 . S
C2244 H2229 0.930 . S
C2244 C2239 1.390 . S
C2244 C2243 1.387 . S
H2245 C2257 0.930 . S
H2246 C2259 0.930 . S
H2247 C2260 0.930 . S
H2248 C2264 0.959 . S
H2249 C2264 0.959 . S
H2250 C2264 0.961 . S
H2251 C2265 0.960 . S
H2252 C2265 0.961 . S
H2253 C2265 0.959 . S
H2254 C2268 0.929 . S
H2255 C2269 0.931 . S
H2256 C2271 0.930 . S
C2257 H2245 0.930 . S
C2257 C2258 1.399 . S
C2257 C2262 1.399 . S
C2258 C2257 1.399 . S
C2258 C2259 1.376 . S
C2259 H2246 0.930 . S
C2259 C2258 1.376 . S
C2259 C2260 1.388 . S
C2260 H2247 0.930 . S
C2260 C2259 1.388 . S
C2260 C2261 1.390 . S
C2261 C2260 1.390 . S
C2261 C2262 1.394 . S
C2261 C2267 1.465 . S
C2262 C2257 1.399 . S
C2262 C2261 1.394 . S
C2262 C2263 1.516 . S
C2263 C2262 1.516 . S
C2263 C2264 1.502 . S
C2263 C2265 1.561 . S
C2263 C2266 1.526 . S
C2264 H2248 0.959 . S
C2264 H2249 0.959 . S
C2264 H2250 0.961 . S
C2264 C2263 1.502 . S
C2265 H2251 0.960 . S
C2265 H2252 0.961 . S
C2265 H2253 0.959 . S
C2265 C2263 1.561 . S
C2266 C2263 1.526 . S
C2266 C2267 1.396 . S
C2266 C2271 1.390 . S
C2267 C2261 1.465 . S
C2267 C2266 1.396 . S
C2267 C2268 1.399 . S
C2268 H2254 0.929 . S
C2268 C2267 1.399 . S
C2268 C2269 1.385 . S
C2269 H2255 0.931 . S
C2269 C2268 1.385 . S
C2269 C2270 1.389 . S
C2270 C2269 1.389 . S
C2270 C2271 1.387 . S
C2271 H2256 0.930 . S
C2271 C2266 1.390 . S
C2271 C2270 1.387 . S
H2272 C2284 0.930 . S
H2273 C2286 0.930 . S
H2274 C2287 0.930 . S
H2275 C2291 0.959 . S
H2276 C2291 0.959 . S
H2277 C2291 0.961 . S
H2278 C2292 0.960 . S
H2279 C2292 0.961 . S
H2280 C2292 0.959 . S
H2281 C2295 0.929 . S
H2282 C2296 0.931 . S
H2283 C2298 0.930 . S
C2284 H2272 0.930 . S
C2284 C2285 1.399 . S
C2284 C2289 1.399 . S
C2285 C2284 1.399 . S
C2285 C2286 1.376 . S
C2286 H2273 0.930 . S
C2286 C2285 1.376 . S
C2286 C2287 1.388 . S
C2287 H2274 0.930 . S
C2287 C2286 1.388 . S
C2287 C2288 1.390 . S
C2288 C2287 1.390 . S
C2288 C2289 1.394 . S
C2288 C2294 1.465 . S
C2289 C2284 1.399 . S
C2289 C2288 1.394 . S
C2289 C2290 1.516 . S
C2290 C2289 1.516 . S
C2290 C2291 1.502 . S
C2290 C2292 1.561 . S
C2290 C2293 1.526 . S
C2291 H2275 0.959 . S
C2291 H2276 0.959 . S
C2291 H2277 0.961 . S
C2291 C2290 1.502 . S
C2292 H2278 0.960 . S
C2292 H2279 0.961 . S
C2292 H2280 0.959 . S
C2292 C2290 1.561 . S
C2293 C2290 1.526 . S
C2293 C2294 1.396 . S
C2293 C2298 1.390 . S
C2294 C2288 1.465 . S
C2294 C2293 1.396 . S
C2294 C2295 1.399 . S
C2295 H2281 0.929 . S
C2295 C2294 1.399 . S
C2295 C2296 1.385 . S
C2296 H2282 0.931 . S
C2296 C2295 1.385 . S
C2296 C2297 1.389 . S
C2297 C2296 1.389 . S
C2297 C2298 1.387 . S
C2298 H2283 0.930 . S
C2298 C2293 1.390 . S
C2298 C2297 1.387 . S
H2299 C2311 0.930 . S
H2300 C2313 0.930 . S
H2301 C2314 0.930 . S
H2302 C2318 0.959 . S
H2303 C2318 0.959 . S
H2304 C2318 0.961 . S
H2305 C2319 0.960 . S
H2306 C2319 0.961 . S
H2307 C2319 0.959 . S
H2308 C2322 0.929 . S
H2309 C2323 0.931 . S
H2310 C2325 0.930 . S
C2311 H2299 0.930 . S
C2311 C2312 1.399 . S
C2311 C2316 1.399 . S
C2312 C2311 1.399 . S
C2312 C2313 1.376 . S
C2313 H2300 0.930 . S
C2313 C2312 1.376 . S
C2313 C2314 1.388 . S
C2314 H2301 0.930 . S
C2314 C2313 1.388 . S
C2314 C2315 1.390 . S
C2315 C2314 1.390 . S
C2315 C2316 1.394 . S
C2315 C2321 1.465 . S
C2316 C2311 1.399 . S
C2316 C2315 1.394 . S
C2316 C2317 1.516 . S
C2317 C2316 1.516 . S
C2317 C2318 1.502 . S
C2317 C2319 1.561 . S
C2317 C2320 1.526 . S
C2318 H2302 0.959 . S
C2318 H2303 0.959 . S
C2318 H2304 0.961 . S
C2318 C2317 1.502 . S
C2319 H2305 0.960 . S
C2319 H2306 0.961 . S
C2319 H2307 0.959 . S
C2319 C2317 1.561 . S
C2320 C2317 1.526 . S
C2320 C2321 1.396 . S
C2320 C2325 1.390 . S
C2321 C2315 1.465 . S
C2321 C2320 1.396 . S
C2321 C2322 1.399 . S
C2322 H2308 0.929 . S
C2322 C2321 1.399 . S
C2322 C2323 1.385 . S
C2323 H2309 0.931 . S
C2323 C2322 1.385 . S
C2323 C2324 1.389 . S
C2324 C2323 1.389 . S
C2324 C2325 1.387 . S
C2325 H2310 0.930 . S
C2325 C2320 1.390 . S
C2325 C2324 1.387 . S
H2326 C2338 0.930 . S
H2327 C2340 0.930 . S
H2328 C2341 0.930 . S
H2329 C2345 0.959 . S
H2330 C2345 0.959 . S
H2331 C2345 0.961 . S
H2332 C2346 0.960 . S
H2333 C2346 0.961 . S
H2334 C2346 0.959 . S
H2335 C2349 0.929 . S
H2336 C2350 0.931 1_556 S
H2337 C2352 0.930 . S
C2338 H2326 0.930 . S
C2338 C2339 1.399 1_554 S
C2338 C2343 1.399 . S
C2339 C2338 1.399 1_556 S
C2339 C2340 1.376 . S
C2340 H2327 0.930 . S
C2340 C2339 1.376 . S
C2340 C2341 1.388 . S
C2341 H2328 0.930 . S
C2341 C2340 1.388 . S
C2341 C2342 1.390 . S
C2342 C2341 1.390 . S
C2342 C2343 1.394 1_556 S
C2342 C2348 1.465 1_556 S
C2343 C2338 1.399 . S
C2343 C2342 1.394 1_554 S
C2343 C2344 1.516 . S
C2344 C2343 1.516 . S
C2344 C2345 1.502 1_455 S
C2344 C2346 1.561 . S
C2344 C2347 1.526 . S
C2345 H2329 0.959 . S
C2345 H2330 0.959 . S
C2345 H2331 0.961 . S
C2345 C2344 1.502 1_655 S
C2346 H2332 0.960 . S
C2346 H2333 0.961 . S
C2346 H2334 0.959 . S
C2346 C2344 1.561 . S
C2347 C2344 1.526 . S
C2347 C2348 1.396 . S
C2347 C2352 1.390 . S
C2348 C2342 1.465 1_554 S
C2348 C2347 1.396 . S
C2348 C2349 1.399 1_554 S
C2349 H2335 0.929 . S
C2349 C2348 1.399 1_556 S
C2349 C2350 1.385 1_556 S
C2350 H2336 0.931 1_554 S
C2350 C2349 1.385 1_554 S
C2350 C2351 1.389 . S
C2351 C2350 1.389 . S
C2351 C2352 1.387 . S
C2352 H2337 0.930 . S
C2352 C2347 1.390 . S
C2352 C2351 1.387 . S
H2353 C2365 0.930 . S
H2354 C2367 0.930 . S
H2355 C2368 0.937 . S
H2356 C2372 0.959 . S
H2357 C2372 0.959 . S
H2358 C2372 0.961 . S
H2359 C2373 0.960 . S
H2360 C2373 0.961 . S
H2361 C2373 0.959 . S
H2362 C2376 0.929 . S
H2363 C2377 0.931 . S
H2364 C2379 0.930 . S
C2365 H2353 0.930 . S
C2365 C2366 1.399 1_655 S
C2365 C2370 1.399 . S
C2366 C2365 1.399 1_455 S
C2366 C2367 1.376 . S
C2367 H2354 0.930 . S
C2367 C2366 1.376 . S
C2367 C2368 1.398 . S
C2368 H2355 0.937 . S
C2368 C2367 1.398 . S
C2368 C2369 1.374 1_455 S
C2369 C2368 1.374 1_655 S
C2369 C2370 1.394 . S
C2369 C2375 1.465 . S
C2370 C2365 1.399 . S
C2370 C2369 1.394 . S
C2370 C2371 1.516 . S
C2371 C2370 1.516 . S
C2371 C2372 1.502 . S
C2371 C2373 1.561 . S
C2371 C2374 1.526 . S
C2372 H2356 0.959 . S
C2372 H2357 0.959 . S
C2372 H2358 0.961 . S
C2372 C2371 1.502 . S
C2373 H2359 0.960 . S
C2373 H2360 0.961 . S
C2373 H2361 0.959 . S
C2373 C2371 1.561 . S
C2374 C2371 1.526 . S
C2374 C2375 1.396 . S
C2374 C2379 1.390 . S
C2375 C2369 1.465 . S
C2375 C2374 1.396 . S
C2375 C2376 1.399 . S
C2376 H2362 0.929 . S
C2376 C2375 1.399 . S
C2376 C2377 1.385 . S
C2377 H2363 0.931 . S
C2377 C2376 1.385 . S
C2377 C2378 1.389 . S
C2378 C2377 1.389 . S
C2378 C2379 1.387 . S
C2379 H2364 0.930 . S
C2379 C2374 1.390 . S
C2379 C2378 1.387 . S
H2380 C2392 0.930 . S
H2381 C2394 0.930 . S
H2382 C2395 0.930 . S
H2383 C2399 0.959 . S
H2384 C2399 0.959 . S
H2385 C2399 0.961 . S
H2386 C2400 0.960 . S
H2387 C2400 0.961 . S
H2388 C2400 0.959 . S
H2389 C2403 0.929 . S
H2390 C2404 0.931 . S
H2391 C2406 0.930 . S
C2392 H2380 0.930 . S
C2392 C2393 1.399 . S
C2392 C2397 1.399 . S
C2393 C2392 1.399 . S
C2393 C2394 1.376 . S
C2394 H2381 0.930 . S
C2394 C2393 1.376 . S
C2394 C2395 1.388 . S
C2395 H2382 0.930 . S
C2395 C2394 1.388 . S
C2395 C2396 1.390 . S
C2396 C2395 1.390 . S
C2396 C2397 1.394 . S
C2396 C2402 1.465 . S
C2397 C2392 1.399 . S
C2397 C2396 1.394 . S
C2397 C2398 1.516 . S
C2398 C2397 1.516 . S
C2398 C2399 1.502 . S
C2398 C2400 1.561 . S
C2398 C2401 1.526 . S
C2399 H2383 0.959 . S
C2399 H2384 0.959 . S
C2399 H2385 0.961 . S
C2399 C2398 1.502 . S
C2400 H2386 0.960 . S
C2400 H2387 0.961 . S
C2400 H2388 0.959 . S
C2400 C2398 1.561 . S
C2401 C2398 1.526 . S
C2401 C2402 1.396 . S
C2401 C2406 1.390 . S
C2402 C2396 1.465 . S
C2402 C2401 1.396 . S
C2402 C2403 1.399 . S
C2403 H2389 0.929 . S
C2403 C2402 1.399 . S
C2403 C2404 1.385 . S
C2404 H2390 0.931 . S
C2404 C2403 1.385 . S
C2404 C2405 1.389 . S
C2405 C2404 1.389 . S
C2405 C2406 1.387 . S
C2406 H2391 0.930 . S
C2406 C2401 1.390 . S
C2406 C2405 1.387 . S
H2407 C2419 0.930 . S
H2408 C2421 0.930 . S
H2409 C2422 0.930 . S
H2410 C2426 0.959 . S
H2411 C2426 0.959 . S
H2412 C2426 0.961 . S
H2413 C2427 0.960 . S
H2414 C2427 0.961 . S
H2415 C2427 0.959 . S
H2416 C2430 0.929 . S
H2417 C2431 0.931 . S
H2418 C2433 0.930 . S
C2419 H2407 0.930 . S
C2419 C2420 1.399 . S
C2419 C2424 1.399 . S
C2420 C2419 1.399 . S
C2420 C2421 1.376 . S
C2421 H2408 0.930 . S
C2421 C2420 1.376 . S
C2421 C2422 1.388 . S
C2422 H2409 0.930 . S
C2422 C2421 1.388 . S
C2422 C2423 1.390 . S
C2423 C2422 1.390 . S
C2423 C2424 1.394 . S
C2423 C2429 1.465 . S
C2424 C2419 1.399 . S
C2424 C2423 1.394 . S
C2424 C2425 1.516 . S
C2425 C2424 1.516 . S
C2425 C2426 1.502 . S
C2425 C2427 1.561 . S
C2425 C2428 1.526 . S
C2426 H2410 0.959 . S
C2426 H2411 0.959 . S
C2426 H2412 0.961 . S
C2426 C2425 1.502 . S
C2427 H2413 0.960 . S
C2427 H2414 0.961 . S
C2427 H2415 0.959 . S
C2427 C2425 1.561 . S
C2428 C2425 1.526 . S
C2428 C2429 1.396 . S
C2428 C2433 1.390 . S
C2429 C2423 1.465 . S
C2429 C2428 1.396 . S
C2429 C2430 1.399 . S
C2430 H2416 0.929 . S
C2430 C2429 1.399 . S
C2430 C2431 1.385 . S
C2431 H2417 0.931 . S
C2431 C2430 1.385 . S
C2431 C2432 1.389 . S
C2432 C2431 1.389 . S
C2432 C2433 1.387 . S
C2433 H2418 0.930 . S
C2433 C2428 1.390 . S
C2433 C2432 1.387 . S
H2434 C2446 0.930 . S
H2435 C2448 0.947 . S
H2436 C2449 0.930 1_655 S
H2437 C2453 0.959 . S
H2438 C2453 0.959 . S
H2439 C2453 0.961 . S
H2440 C2454 0.960 . S
H2441 C2454 0.961 . S
H2442 C2454 0.959 1_655 S
H2443 C2457 0.929 . S
H2444 C2458 0.931 . S
H2445 C2460 0.930 . S
C2446 H2434 0.930 . S
C2446 C2447 1.399 . S
C2446 C2451 1.399 . S
C2447 C2446 1.399 . S
C2447 C2448 1.376 . S
C2448 H2435 0.947 . S
C2448 C2447 1.376 . S
C2448 C2449 1.388 . S
C2449 H2436 0.930 1_455 S
C2449 C2448 1.388 . S
C2449 C2450 1.390 . S
C2450 C2449 1.390 . S
C2450 C2451 1.394 . S
C2450 C2456 1.465 . S
C2451 C2446 1.399 . S
C2451 C2450 1.394 . S
C2451 C2452 1.516 . S
C2452 C2451 1.516 . S
C2452 C2453 1.502 . S
C2452 C2454 1.561 . S
C2452 C2455 1.526 . S
C2453 H2437 0.959 . S
C2453 H2438 0.959 . S
C2453 H2439 0.961 . S
C2453 C2452 1.502 . S
C2454 H2440 0.960 . S
C2454 H2441 0.961 . S
C2454 H2442 0.959 1_455 S
C2454 C2452 1.561 . S
C2455 C2452 1.526 . S
C2455 C2456 1.396 . S
C2455 C2460 1.390 . S
C2456 C2450 1.465 . S
C2456 C2455 1.396 . S
C2456 C2457 1.399 . S
C2457 H2443 0.929 . S
C2457 C2456 1.399 . S
C2457 C2458 1.385 . S
C2458 H2444 0.931 . S
C2458 C2457 1.385 . S
C2458 C2459 1.389 . S
C2459 C2458 1.389 . S
C2459 C2460 1.387 . S
C2460 H2445 0.930 . S
C2460 C2455 1.390 . S
C2460 C2459 1.387 . S
H2461 C2473 0.930 . S
H2462 C2475 0.930 . S
H2463 C2476 0.930 . S
H2464 C2480 0.959 . S
H2465 C2480 0.959 . S
H2466 C2480 0.961 . S
H2467 C2481 0.960 . S
H2468 C2481 0.961 . S
H2469 C2481 0.959 . S
H2470 C2484 0.929 . S
H2471 C2485 0.931 . S
H2472 C2487 0.930 . S
C2473 H2461 0.930 . S
C2473 C2474 1.399 . S
C2473 C2478 1.399 . S
C2474 C2473 1.399 . S
C2474 C2475 1.376 . S
C2475 H2462 0.930 . S
C2475 C2474 1.376 . S
C2475 C2476 1.388 . S
C2476 H2463 0.930 . S
C2476 C2475 1.388 . S
C2476 C2477 1.390 . S
C2477 C2476 1.390 . S
C2477 C2478 1.394 . S
C2477 C2483 1.465 . S
C2478 C2473 1.399 . S
C2478 C2477 1.394 . S
C2478 C2479 1.516 . S
C2479 C2478 1.516 . S
C2479 C2480 1.502 . S
C2479 C2481 1.561 . S
C2479 C2482 1.526 . S
C2480 H2464 0.959 . S
C2480 H2465 0.959 . S
C2480 H2466 0.961 . S
C2480 C2479 1.502 . S
C2481 H2467 0.960 . S
C2481 H2468 0.961 . S
C2481 H2469 0.959 . S
C2481 C2479 1.561 . S
C2482 C2479 1.526 . S
C2482 C2483 1.396 . S
C2482 C2487 1.390 . S
C2483 C2477 1.465 . S
C2483 C2482 1.396 . S
C2483 C2484 1.399 . S
C2484 H2470 0.929 . S
C2484 C2483 1.399 . S
C2484 C2485 1.385 . S
C2485 H2471 0.931 . S
C2485 C2484 1.385 . S
C2485 C2486 1.389 . S
C2486 C2485 1.389 . S
C2486 C2487 1.387 . S
C2487 H2472 0.930 . S
C2487 C2482 1.390 . S
C2487 C2486 1.387 . S
H2488 C2500 0.930 . S
H2489 C2502 0.930 . S
H2490 C2503 0.930 . S
H2491 C2507 0.959 . S
H2492 C2507 0.959 . S
H2493 C2507 0.961 . S
H2494 C2508 0.960 . S
H2495 C2508 0.961 . S
H2496 C2508 0.959 . S
H2497 C2511 0.929 . S
H2498 C2512 0.931 . S
H2499 C2514 0.930 . S
C2500 H2488 0.930 . S
C2500 C2501 1.399 . S
C2500 C2505 1.399 . S
C2501 C2500 1.399 . S
C2501 C2502 1.376 . S
C2502 H2489 0.930 . S
C2502 C2501 1.376 . S
C2502 C2503 1.388 . S
C2503 H2490 0.930 . S
C2503 C2502 1.388 . S
C2503 C2504 1.390 . S
C2504 C2503 1.390 . S
C2504 C2505 1.394 . S
C2504 C2510 1.465 . S
C2505 C2500 1.399 . S
C2505 C2504 1.394 . S
C2505 C2506 1.516 . S
C2506 C2505 1.516 . S
C2506 C2507 1.502 . S
C2506 C2508 1.561 . S
C2506 C2509 1.526 . S
C2507 H2491 0.959 . S
C2507 H2492 0.959 . S
C2507 H2493 0.961 . S
C2507 C2506 1.502 . S
C2508 H2494 0.960 . S
C2508 H2495 0.961 . S
C2508 H2496 0.959 . S
C2508 C2506 1.561 . S
C2509 C2506 1.526 . S
C2509 C2510 1.396 . S
C2509 C2514 1.390 . S
C2510 C2504 1.465 . S
C2510 C2509 1.396 . S
C2510 C2511 1.399 . S
C2511 H2497 0.929 . S
C2511 C2510 1.399 . S
C2511 C2512 1.385 . S
C2512 H2498 0.931 . S
C2512 C2511 1.385 . S
C2512 C2513 1.389 . S
C2513 C2512 1.389 . S
C2513 C2514 1.387 . S
C2514 H2499 0.930 . S
C2514 C2509 1.390 . S
C2514 C2513 1.387 . S
H2515 C2527 0.930 . S
H2516 C2529 0.930 . S
H2517 C2530 0.930 . S
H2518 C2534 0.959 . S
H2519 C2534 0.959 1_556 S
H2520 C2534 0.961 . S
H2521 C2535 0.960 . S
H2522 C2535 0.961 . S
H2523 C2535 0.959 . S
H2524 C2538 0.929 . S
H2525 C2539 0.931 . S
H2526 C2541 0.930 . S
C2527 H2515 0.930 . S
C2527 C2528 1.399 . S
C2527 C2532 1.399 1_554 S
C2528 C2527 1.399 . S
C2528 C2529 1.376 1_554 S
C2529 H2516 0.930 . S
C2529 C2528 1.376 1_556 S
C2529 C2530 1.388 . S
C2530 H2517 0.930 . S
C2530 C2529 1.388 . S
C2530 C2531 1.390 . S
C2531 C2530 1.390 . S
C2531 C2532 1.394 . S
C2531 C2537 1.465 . S
C2532 C2527 1.399 1_556 S
C2532 C2531 1.394 . S
C2532 C2533 1.516 . S
C2533 C2532 1.516 . S
C2533 C2534 1.502 1_556 S
C2533 C2535 1.561 . S
C2533 C2536 1.526 . S
C2534 H2518 0.959 . S
C2534 H2519 0.959 1_554 S
C2534 H2520 0.961 . S
C2534 C2533 1.502 1_554 S
C2535 H2521 0.960 . S
C2535 H2522 0.961 . S
C2535 H2523 0.959 . S
C2535 C2533 1.561 . S
C2536 C2533 1.526 . S
C2536 C2537 1.396 . S
C2536 C2541 1.390 . S
C2537 C2531 1.465 . S
C2537 C2536 1.396 . S
C2537 C2538 1.399 . S
C2538 H2524 0.929 . S
C2538 C2537 1.399 . S
C2538 C2539 1.385 . S
C2539 H2525 0.931 . S
C2539 C2538 1.385 . S
C2539 C2540 1.389 . S
C2540 C2539 1.389 . S
C2540 C2541 1.387 . S
C2541 H2526 0.930 . S
C2541 C2536 1.390 . S
C2541 C2540 1.387 . S
H2542 C2554 0.930 . S
H2543 C2556 0.930 . S
H2544 C2557 0.930 . S
H2545 C2561 0.959 . S
H2546 C2561 0.959 . S
H2547 C2561 0.961 . S
H2548 C2562 0.960 . S
H2549 C2562 0.961 . S
H2550 C2562 0.959 . S
H2551 C2565 0.929 . S
H2552 C2566 0.931 . S
H2553 C2568 0.930 . S
C2554 H2542 0.930 . S
C2554 C2555 1.399 . S
C2554 C2559 1.399 . S
C2555 C2554 1.399 . S
C2555 C2556 1.376 . S
C2556 H2543 0.930 . S
C2556 C2555 1.376 . S
C2556 C2557 1.388 . S
C2557 H2544 0.930 . S
C2557 C2556 1.388 . S
C2557 C2558 1.390 . S
C2558 C2557 1.390 . S
C2558 C2559 1.394 . S
C2558 C2564 1.465 . S
C2559 C2554 1.399 . S
C2559 C2558 1.394 . S
C2559 C2560 1.516 . S
C2560 C2559 1.516 . S
C2560 C2561 1.502 . S
C2560 C2562 1.561 . S
C2560 C2563 1.526 . S
C2561 H2545 0.959 . S
C2561 H2546 0.959 . S
C2561 H2547 0.961 . S
C2561 C2560 1.502 . S
C2562 H2548 0.960 . S
C2562 H2549 0.961 . S
C2562 H2550 0.959 . S
C2562 C2560 1.561 . S
C2563 C2560 1.526 . S
C2563 C2564 1.396 . S
C2563 C2568 1.390 . S
C2564 C2558 1.465 . S
C2564 C2563 1.396 . S
C2564 C2565 1.399 . S
C2565 H2551 0.929 . S
C2565 C2564 1.399 . S
C2565 C2566 1.385 . S
C2566 H2552 0.931 . S
C2566 C2565 1.385 . S
C2566 C2567 1.389 . S
C2567 C2566 1.389 . S
C2567 C2568 1.387 . S
C2568 H2553 0.930 . S
C2568 C2563 1.390 . S
C2568 C2567 1.387 . S
H2569 C2581 0.930 . S
H2570 C2583 0.930 . S
H2571 C2584 0.930 . S
H2572 C2588 0.959 . S
H2573 C2588 0.959 . S
H2574 C2588 0.961 . S
H2575 C2589 0.960 . S
H2576 C2589 0.961 . S
H2577 C2589 0.959 . S
H2578 C2592 0.929 . S
H2579 C2593 0.931 . S
H2580 C2595 0.930 . S
C2581 H2569 0.930 . S
C2581 C2582 1.399 . S
C2581 C2586 1.399 . S
C2582 C2581 1.399 . S
C2582 C2583 1.376 . S
C2583 H2570 0.930 . S
C2583 C2582 1.376 . S
C2583 C2584 1.388 . S
C2584 H2571 0.930 . S
C2584 C2583 1.388 . S
C2584 C2585 1.390 . S
C2585 C2584 1.390 . S
C2585 C2586 1.394 . S
C2585 C2591 1.465 . S
C2586 C2581 1.399 . S
C2586 C2585 1.394 . S
C2586 C2587 1.516 . S
C2587 C2586 1.516 . S
C2587 C2588 1.502 . S
C2587 C2589 1.561 . S
C2587 C2590 1.526 . S
C2588 H2572 0.959 . S
C2588 H2573 0.959 . S
C2588 H2574 0.961 . S
C2588 C2587 1.502 . S
C2589 H2575 0.960 . S
C2589 H2576 0.961 . S
C2589 H2577 0.959 . S
C2589 C2587 1.561 . S
C2590 C2587 1.526 . S
C2590 C2591 1.396 . S
C2590 C2595 1.390 . S
C2591 C2585 1.465 . S
C2591 C2590 1.396 . S
C2591 C2592 1.399 . S
C2592 H2578 0.929 . S
C2592 C2591 1.399 . S
C2592 C2593 1.385 . S
C2593 H2579 0.931 . S
C2593 C2592 1.385 . S
C2593 C2594 1.389 . S
C2594 C2593 1.389 . S
C2594 C2595 1.387 . S
C2595 H2580 0.930 . S
C2595 C2590 1.390 . S
C2595 C2594 1.387 . S
H2596 C2608 0.930 . S
H2597 C2610 0.930 . S
H2598 C2611 0.930 . S
H2599 C2615 0.959 . S
H2600 C2615 0.959 . S
H2601 C2615 0.961 . S
H2602 C2616 0.960 . S
H2603 C2616 0.961 . S
H2604 C2616 0.959 . S
H2605 C2619 0.929 . S
H2606 C2620 0.931 . S
H2607 C2622 0.930 . S
C2608 H2596 0.930 . S
C2608 C2609 1.399 . S
C2608 C2613 1.399 . S
C2609 C2608 1.399 . S
C2609 C2610 1.376 . S
C2610 H2597 0.930 . S
C2610 C2609 1.376 . S
C2610 C2611 1.388 . S
C2611 H2598 0.930 . S
C2611 C2610 1.388 . S
C2611 C2612 1.390 . S
C2612 C2611 1.390 . S
C2612 C2613 1.394 . S
C2612 C2618 1.465 . S
C2613 C2608 1.399 . S
C2613 C2612 1.394 . S
C2613 C2614 1.516 . S
C2614 C2613 1.516 . S
C2614 C2615 1.502 . S
C2614 C2616 1.561 . S
C2614 C2617 1.526 . S
C2615 H2599 0.959 . S
C2615 H2600 0.959 . S
C2615 H2601 0.961 . S
C2615 C2614 1.502 . S
C2616 H2602 0.960 . S
C2616 H2603 0.961 . S
C2616 H2604 0.959 . S
C2616 C2614 1.561 . S
C2617 C2614 1.526 . S
C2617 C2618 1.396 . S
C2617 C2622 1.390 . S
C2618 C2612 1.465 . S
C2618 C2617 1.396 . S
C2618 C2619 1.399 . S
C2619 H2605 0.929 . S
C2619 C2618 1.399 . S
C2619 C2620 1.385 . S
C2620 H2606 0.931 . S
C2620 C2619 1.385 . S
C2620 C2621 1.389 . S
C2621 C2620 1.389 . S
C2621 C2622 1.387 . S
C2622 H2607 0.930 . S
C2622 C2617 1.390 . S
C2622 C2621 1.387 . S
H2623 C2635 0.930 . S
H2624 C2637 0.930 . S
H2625 C2638 0.930 . S
H2626 C2642 0.959 . S
H2627 C2642 0.959 . S
H2628 C2642 0.961 . S
H2629 C2643 0.960 . S
H2630 C2643 0.961 . S
H2631 C2643 0.959 . S
H2632 C2646 0.929 . S
H2633 C2647 0.931 . S
H2634 C2649 0.930 . S
C2635 H2623 0.930 . S
C2635 C2636 1.399 . S
C2635 C2640 1.399 . S
C2636 C2635 1.399 . S
C2636 C2637 1.376 . S
C2637 H2624 0.930 . S
C2637 C2636 1.376 . S
C2637 C2638 1.388 . S
C2638 H2625 0.930 . S
C2638 C2637 1.388 . S
C2638 C2639 1.390 . S
C2639 C2638 1.390 . S
C2639 C2640 1.394 . S
C2639 C2645 1.465 . S
C2640 C2635 1.399 . S
C2640 C2639 1.394 . S
C2640 C2641 1.516 . S
C2641 C2640 1.516 . S
C2641 C2642 1.502 . S
C2641 C2643 1.561 . S
C2641 C2644 1.526 . S
C2642 H2626 0.959 . S
C2642 H2627 0.959 . S
C2642 H2628 0.961 . S
C2642 C2641 1.502 . S
C2643 H2629 0.960 . S
C2643 H2630 0.961 . S
C2643 H2631 0.959 . S
C2643 C2641 1.561 . S
C2644 C2641 1.526 . S
C2644 C2645 1.396 . S
C2644 C2649 1.390 . S
C2645 C2639 1.465 . S
C2645 C2644 1.396 . S
C2645 C2646 1.399 . S
C2646 H2632 0.929 . S
C2646 C2645 1.399 . S
C2646 C2647 1.385 . S
C2647 H2633 0.931 . S
C2647 C2646 1.385 . S
C2647 C2648 1.389 . S
C2648 C2647 1.389 . S
C2648 C2649 1.387 . S
C2649 H2634 0.930 . S
C2649 C2644 1.390 . S
C2649 C2648 1.387 . S
H2650 C2662 0.930 . S
H2651 C2664 0.930 . S
H2652 C2665 0.930 . S
H2653 C2669 0.959 . S
H2654 C2669 0.959 . S
H2655 C2669 0.961 . S
H2656 C2670 0.960 . S
H2657 C2670 0.961 . S
H2658 C2670 0.959 . S
H2659 C2673 0.929 . S
H2660 C2674 0.931 . S
H2661 C2676 0.930 . S
C2662 H2650 0.930 . S
C2662 C2663 1.399 . S
C2662 C2667 1.399 . S
C2663 C2662 1.399 . S
C2663 C2664 1.376 . S
C2664 H2651 0.930 . S
C2664 C2663 1.376 . S
C2664 C2665 1.388 . S
C2665 H2652 0.930 . S
C2665 C2664 1.388 . S
C2665 C2666 1.390 . S
C2666 C2665 1.390 . S
C2666 C2667 1.394 . S
C2666 C2672 1.465 . S
C2667 C2662 1.399 . S
C2667 C2666 1.394 . S
C2667 C2668 1.516 . S
C2668 C2667 1.516 . S
C2668 C2669 1.502 . S
C2668 C2670 1.561 . S
C2668 C2671 1.526 . S
C2669 H2653 0.959 . S
C2669 H2654 0.959 . S
C2669 H2655 0.961 . S
C2669 C2668 1.502 . S
C2670 H2656 0.960 . S
C2670 H2657 0.961 . S
C2670 H2658 0.959 . S
C2670 C2668 1.561 . S
C2671 C2668 1.526 . S
C2671 C2672 1.396 . S
C2671 C2676 1.390 . S
C2672 C2666 1.465 . S
C2672 C2671 1.396 . S
C2672 C2673 1.399 . S
C2673 H2659 0.929 . S
C2673 C2672 1.399 . S
C2673 C2674 1.385 . S
C2674 H2660 0.931 . S
C2674 C2673 1.385 . S
C2674 C2675 1.389 . S
C2675 C2674 1.389 . S
C2675 C2676 1.387 . S
C2676 H2661 0.930 . S
C2676 C2671 1.390 . S
C2676 C2675 1.387 . S
H2677 C2689 0.930 . S
H2678 C2691 0.930 . S
H2679 C2692 0.930 . S
H2680 C2696 0.959 . S
H2681 C2696 0.959 . S
H2682 C2696 0.961 . S
H2683 C2697 0.960 . S
H2684 C2697 0.961 . S
H2685 C2697 0.959 . S
H2686 C2700 0.929 . S
H2687 C2701 0.931 . S
H2688 C2703 0.930 . S
C2689 H2677 0.930 . S
C2689 C2690 1.399 . S
C2689 C2694 1.399 . S
C2690 C2689 1.399 . S
C2690 C2691 1.376 . S
C2691 H2678 0.930 . S
C2691 C2690 1.376 . S
C2691 C2692 1.388 . S
C2692 H2679 0.930 . S
C2692 C2691 1.388 . S
C2692 C2693 1.390 . S
C2693 C2692 1.390 . S
C2693 C2694 1.394 . S
C2693 C2699 1.465 . S
C2694 C2689 1.399 . S
C2694 C2693 1.394 . S
C2694 C2695 1.516 . S
C2695 C2694 1.516 . S
C2695 C2696 1.502 . S
C2695 C2697 1.561 . S
C2695 C2698 1.526 . S
C2696 H2680 0.959 . S
C2696 H2681 0.959 . S
C2696 H2682 0.961 . S
C2696 C2695 1.502 . S
C2697 H2683 0.960 . S
C2697 H2684 0.961 . S
C2697 H2685 0.959 . S
C2697 C2695 1.561 . S
C2698 C2695 1.526 . S
C2698 C2699 1.396 . S
C2698 C2703 1.390 . S
C2699 C2693 1.465 . S
C2699 C2698 1.396 . S
C2699 C2700 1.399 . S
C2700 H2686 0.929 . S
C2700 C2699 1.399 . S
C2700 C2701 1.385 . S
C2701 H2687 0.931 . S
C2701 C2700 1.385 . S
C2701 C2702 1.389 . S
C2702 C2701 1.389 . S
C2702 C2703 1.387 . S
C2703 H2688 0.930 . S
C2703 C2698 1.390 . S
C2703 C2702 1.387 . S
H2704 C2716 0.930 . S
H2705 C2718 0.930 . S
H2706 C2719 0.930 . S
H2707 C2723 0.959 . S
H2708 C2723 0.959 . S
H2709 C2723 0.961 . S
H2710 C2724 0.960 . S
H2711 C2724 0.961 . S
H2712 C2724 0.959 . S
H2713 C2727 0.929 . S
H2714 C2728 0.931 . S
H2715 C2730 0.930 . S
C2716 H2704 0.930 . S
C2716 C2717 1.399 . S
C2716 C2721 1.399 . S
C2717 C2716 1.399 . S
C2717 C2718 1.376 . S
C2718 H2705 0.930 . S
C2718 C2717 1.376 . S
C2718 C2719 1.388 . S
C2719 H2706 0.930 . S
C2719 C2718 1.388 . S
C2719 C2720 1.390 . S
C2720 C2719 1.390 . S
C2720 C2721 1.394 . S
C2720 C2726 1.465 . S
C2721 C2716 1.399 . S
C2721 C2720 1.394 . S
C2721 C2722 1.516 . S
C2722 C2721 1.516 . S
C2722 C2723 1.502 . S
C2722 C2724 1.561 . S
C2722 C2725 1.526 . S
C2723 H2707 0.959 . S
C2723 H2708 0.959 . S
C2723 H2709 0.961 . S
C2723 C2722 1.502 . S
C2724 H2710 0.960 . S
C2724 H2711 0.961 . S
C2724 H2712 0.959 . S
C2724 C2722 1.561 . S
C2725 C2722 1.526 . S
C2725 C2726 1.396 . S
C2725 C2730 1.390 . S
C2726 C2720 1.465 . S
C2726 C2725 1.396 . S
C2726 C2727 1.399 . S
C2727 H2713 0.929 . S
C2727 C2726 1.399 . S
C2727 C2728 1.385 . S
C2728 H2714 0.931 . S
C2728 C2727 1.385 . S
C2728 C2729 1.389 . S
C2729 C2728 1.389 . S
C2729 C2730 1.387 . S
C2730 H2715 0.930 . S
C2730 C2725 1.390 . S
C2730 C2729 1.387 . S
H2731 C2743 0.930 . S
H2732 C2745 0.930 . S
H2733 C2746 0.930 . S
H2734 C2750 0.959 . S
H2735 C2750 0.959 . S
H2736 C2750 0.961 . S
H2737 C2751 0.960 . S
H2738 C2751 0.961 . S
H2739 C2751 0.959 . S
H2740 C2754 0.929 . S
H2741 C2755 0.931 . S
H2742 C2757 0.930 . S
C2743 H2731 0.930 . S
C2743 C2744 1.399 . S
C2743 C2748 1.399 . S
C2744 C2743 1.399 . S
C2744 C2745 1.376 . S
C2745 H2732 0.930 . S
C2745 C2744 1.376 . S
C2745 C2746 1.388 . S
C2746 H2733 0.930 . S
C2746 C2745 1.388 . S
C2746 C2747 1.390 . S
C2747 C2746 1.390 . S
C2747 C2748 1.394 . S
C2747 C2753 1.465 . S
C2748 C2743 1.399 . S
C2748 C2747 1.394 . S
C2748 C2749 1.516 . S
C2749 C2748 1.516 . S
C2749 C2750 1.502 . S
C2749 C2751 1.561 . S
C2749 C2752 1.526 . S
C2750 H2734 0.959 . S
C2750 H2735 0.959 . S
C2750 H2736 0.961 . S
C2750 C2749 1.502 . S
C2751 H2737 0.960 . S
C2751 H2738 0.961 . S
C2751 H2739 0.959 . S
C2751 C2749 1.561 . S
C2752 C2749 1.526 . S
C2752 C2753 1.396 . S
C2752 C2757 1.390 . S
C2753 C2747 1.465 . S
C2753 C2752 1.396 . S
C2753 C2754 1.399 . S
C2754 H2740 0.929 . S
C2754 C2753 1.399 . S
C2754 C2755 1.385 . S
C2755 H2741 0.931 . S
C2755 C2754 1.385 . S
C2755 C2756 1.389 . S
C2756 C2755 1.389 . S
C2756 C2757 1.387 . S
C2757 H2742 0.930 . S
C2757 C2752 1.390 . S
C2757 C2756 1.387 . S
H2758 C2770 0.930 . S
H2759 C2772 0.930 . S
H2760 C2773 0.930 . S
H2761 C2777 0.959 . S
H2762 C2777 0.959 . S
H2763 C2777 0.961 . S
H2764 C2778 0.960 . S
H2765 C2778 0.961 . S
H2766 C2778 0.959 . S
H2767 C2781 0.929 . S
H2768 C2782 0.931 . S
H2769 C2784 0.930 . S
C2770 H2758 0.930 . S
C2770 C2771 1.399 . S
C2770 C2775 1.399 . S
C2771 C2770 1.399 . S
C2771 C2772 1.376 . S
C2772 H2759 0.930 . S
C2772 C2771 1.376 . S
C2772 C2773 1.388 . S
C2773 H2760 0.930 . S
C2773 C2772 1.388 . S
C2773 C2774 1.390 . S
C2774 C2773 1.390 . S
C2774 C2775 1.394 . S
C2774 C2780 1.465 . S
C2775 C2770 1.399 . S
C2775 C2774 1.394 . S
C2775 C2776 1.516 . S
C2776 C2775 1.516 . S
C2776 C2777 1.502 . S
C2776 C2778 1.561 . S
C2776 C2779 1.526 . S
C2777 H2761 0.959 . S
C2777 H2762 0.959 . S
C2777 H2763 0.961 . S
C2777 C2776 1.502 . S
C2778 H2764 0.960 . S
C2778 H2765 0.961 . S
C2778 H2766 0.959 . S
C2778 C2776 1.561 . S
C2779 C2776 1.526 . S
C2779 C2780 1.396 . S
C2779 C2784 1.390 . S
C2780 C2774 1.465 . S
C2780 C2779 1.396 . S
C2780 C2781 1.399 . S
C2781 H2767 0.929 . S
C2781 C2780 1.399 . S
C2781 C2782 1.385 . S
C2782 H2768 0.931 . S
C2782 C2781 1.385 . S
C2782 C2783 1.389 . S
C2783 C2782 1.389 . S
C2783 C2784 1.387 . S
C2784 H2769 0.930 . S
C2784 C2779 1.390 . S
C2784 C2783 1.387 . S
H2785 C2797 0.930 . S
H2786 C2799 0.930 . S
H2787 C2800 0.930 . S
H2788 C2804 0.959 . S
H2789 C2804 0.959 . S
H2790 C2804 0.961 . S
H2791 C2805 0.960 . S
H2792 C2805 0.961 . S
H2793 C2805 0.959 1_545 S
H2794 C2808 0.929 . S
H2795 C2809 0.931 . S
H2796 C2811 0.930 1_556 S
C2797 H2785 0.930 . S
C2797 C2798 1.399 1_556 S
C2797 C2802 1.393 1_556 S
C2798 C2797 1.399 1_554 S
C2798 C2799 1.376 . S
C2799 H2786 0.930 . S
C2799 C2798 1.376 . S
C2799 C2800 1.388 . S
C2800 H2787 0.930 . S
C2800 C2799 1.388 . S
C2800 C2801 1.390 . S
C2801 C2800 1.390 . S
C2801 C2802 1.427 . S
C2801 C2807 1.465 . S
C2802 C2797 1.393 1_554 S
C2802 C2801 1.427 . S
C2802 C2803 1.494 1_554 S
C2803 C2802 1.494 1_556 S
C2803 C2804 1.502 . S
C2803 C2805 1.561 . S
C2803 C2806 1.526 1_556 S
C2804 H2788 0.959 . S
C2804 H2789 0.959 . S
C2804 H2790 0.961 . S
C2804 C2803 1.502 . S
C2805 H2791 0.960 . S
C2805 H2792 0.961 . S
C2805 H2793 0.959 1_565 S
C2805 C2803 1.561 . S
C2806 C2803 1.526 1_554 S
C2806 C2807 1.396 . S
C2806 C2811 1.390 1_565 S
C2807 C2801 1.465 . S
C2807 C2806 1.396 . S
C2807 C2808 1.399 1_565 S
C2808 H2794 0.929 . S
C2808 C2807 1.399 1_545 S
C2808 C2809 1.385 . S
C2809 H2795 0.931 . S
C2809 C2808 1.385 . S
C2809 C2810 1.389 . S
C2810 C2809 1.389 . S
C2810 C2811 1.387 . S
C2811 H2796 0.930 1_554 S
C2811 C2806 1.390 1_545 S
C2811 C2810 1.387 . S
H2812 C2824 0.930 . S
H2813 C2826 0.930 . S
H2814 C2827 0.930 . S
H2815 C2831 0.959 . S
H2816 C2831 0.959 . S
H2817 C2831 0.961 . S
H2818 C2832 0.960 . S
H2819 C2832 0.961 . S
H2820 C2832 0.959 . S
H2821 C2835 0.929 . S
H2822 C2836 0.931 . S
H2823 C2838 0.930 . S
C2824 H2812 0.930 . S
C2824 C2825 1.399 . S
C2824 C2829 1.399 . S
C2825 C2824 1.399 . S
C2825 C2826 1.376 . S
C2826 H2813 0.930 . S
C2826 C2825 1.376 . S
C2826 C2827 1.388 . S
C2827 H2814 0.930 . S
C2827 C2826 1.388 . S
C2827 C2828 1.390 . S
C2828 C2827 1.390 . S
C2828 C2829 1.394 . S
C2828 C2834 1.465 . S
C2829 C2824 1.399 . S
C2829 C2828 1.394 . S
C2829 C2830 1.516 . S
C2830 C2829 1.516 . S
C2830 C2831 1.502 . S
C2830 C2832 1.561 . S
C2830 C2833 1.526 . S
C2831 H2815 0.959 . S
C2831 H2816 0.959 . S
C2831 H2817 0.961 . S
C2831 C2830 1.502 . S
C2832 H2818 0.960 . S
C2832 H2819 0.961 . S
C2832 H2820 0.959 . S
C2832 C2830 1.561 . S
C2833 C2830 1.526 . S
C2833 C2834 1.396 . S
C2833 C2838 1.390 . S
C2834 C2828 1.465 . S
C2834 C2833 1.396 . S
C2834 C2835 1.399 . S
C2835 H2821 0.929 . S
C2835 C2834 1.399 . S
C2835 C2836 1.385 . S
C2836 H2822 0.931 . S
C2836 C2835 1.385 . S
C2836 C2837 1.389 . S
C2837 C2836 1.389 . S
C2837 C2838 1.387 . S
C2838 H2823 0.930 . S
C2838 C2833 1.390 . S
C2838 C2837 1.387 . S
H2839 C2851 0.930 . S
H2840 C2853 0.930 . S
H2841 C2854 0.930 . S
H2842 C2858 0.959 . S
H2843 C2858 0.959 . S
H2844 C2858 0.961 . S
H2845 C2859 0.960 1_556 S
H2846 C2859 0.961 1_556 S
H2847 C2859 0.959 . S
H2848 C2862 0.929 . S
H2849 C2863 0.931 . S
H2850 C2865 0.930 . S
C2851 H2839 0.930 . S
C2851 C2852 1.399 . S
C2851 C2856 1.399 . S
C2852 C2851 1.399 . S
C2852 C2853 1.376 . S
C2853 H2840 0.930 . S
C2853 C2852 1.376 . S
C2853 C2854 1.388 . S
C2854 H2841 0.930 . S
C2854 C2853 1.388 . S
C2854 C2855 1.390 . S
C2855 C2854 1.390 . S
C2855 C2856 1.394 . S
C2855 C2861 1.465 . S
C2856 C2851 1.399 . S
C2856 C2855 1.394 . S
C2856 C2857 1.516 . S
C2857 C2856 1.516 . S
C2857 C2858 1.502 . S
C2857 C2859 1.561 . S
C2857 C2860 1.526 . S
C2858 H2842 0.959 . S
C2858 H2843 0.959 . S
C2858 H2844 0.961 . S
C2858 C2857 1.502 . S
C2859 H2845 0.960 1_554 S
C2859 H2846 0.961 1_554 S
C2859 H2847 0.959 . S
C2859 C2857 1.561 . S
C2860 C2857 1.526 . S
C2860 C2861 1.396 . S
C2860 C2865 1.390 . S
C2861 C2855 1.465 . S
C2861 C2860 1.396 . S
C2861 C2862 1.399 . S
C2862 H2848 0.929 . S
C2862 C2861 1.399 . S
C2862 C2863 1.385 . S
C2863 H2849 0.931 . S
C2863 C2862 1.385 . S
C2863 C2864 1.389 . S
C2864 C2863 1.389 . S
C2864 C2865 1.387 . S
C2865 H2850 0.930 . S
C2865 C2860 1.390 . S
C2865 C2864 1.387 . S
H2866 C2878 0.930 . S
H2867 C2880 0.930 . S
H2868 C2881 0.930 . S
H2869 C2885 0.959 . S
H2870 C2885 0.959 . S
H2871 C2885 0.961 . S
H2872 C2886 0.960 . S
H2873 C2886 0.961 . S
H2874 C2886 0.959 . S
H2875 C2889 0.929 . S
H2876 C2890 0.931 . S
H2877 C2892 0.930 . S
C2878 H2866 0.930 . S
C2878 C2879 1.399 . S
C2878 C2883 1.399 . S
C2879 C2878 1.399 . S
C2879 C2880 1.376 . S
C2880 H2867 0.930 . S
C2880 C2879 1.376 . S
C2880 C2881 1.388 . S
C2881 H2868 0.930 . S
C2881 C2880 1.388 . S
C2881 C2882 1.390 . S
C2882 C2881 1.390 . S
C2882 C2883 1.394 . S
C2882 C2888 1.465 . S
C2883 C2878 1.399 . S
C2883 C2882 1.394 . S
C2883 C2884 1.516 . S
C2884 C2883 1.516 . S
C2884 C2885 1.502 . S
C2884 C2886 1.561 . S
C2884 C2887 1.526 . S
C2885 H2869 0.959 . S
C2885 H2870 0.959 . S
C2885 H2871 0.961 . S
C2885 C2884 1.502 . S
C2886 H2872 0.960 . S
C2886 H2873 0.961 . S
C2886 H2874 0.959 . S
C2886 C2884 1.561 . S
C2887 C2884 1.526 . S
C2887 C2888 1.396 . S
C2887 C2892 1.390 . S
C2888 C2882 1.465 . S
C2888 C2887 1.396 . S
C2888 C2889 1.399 . S
C2889 H2875 0.929 . S
C2889 C2888 1.399 . S
C2889 C2890 1.385 . S
C2890 H2876 0.931 . S
C2890 C2889 1.385 . S
C2890 C2891 1.389 . S
C2891 C2890 1.389 . S
C2891 C2892 1.387 . S
C2892 H2877 0.930 . S
C2892 C2887 1.390 . S
C2892 C2891 1.387 . S
H2893 C2905 0.930 . S
H2894 C2907 0.930 . S
H2895 C2908 0.930 . S
H2896 C2912 0.959 . S
H2897 C2912 0.959 . S
H2898 C2912 0.961 . S
H2899 C2913 0.960 . S
H2900 C2913 0.961 . S
H2901 C2913 0.959 . S
H2902 C2916 0.929 . S
H2903 C2917 0.931 . S
H2904 C2919 0.930 . S
C2905 H2893 0.930 . S
C2905 C2906 1.399 . S
C2905 C2910 1.399 . S
C2906 C2905 1.399 . S
C2906 C2907 1.376 . S
C2907 H2894 0.930 . S
C2907 C2906 1.376 . S
C2907 C2908 1.388 . S
C2908 H2895 0.930 . S
C2908 C2907 1.388 . S
C2908 C2909 1.390 . S
C2909 C2908 1.390 . S
C2909 C2910 1.394 . S
C2909 C2915 1.465 . S
C2910 C2905 1.399 . S
C2910 C2909 1.394 . S
C2910 C2911 1.516 . S
C2911 C2910 1.516 . S
C2911 C2912 1.502 . S
C2911 C2913 1.561 . S
C2911 C2914 1.526 . S
C2912 H2896 0.959 . S
C2912 H2897 0.959 . S
C2912 H2898 0.961 . S
C2912 C2911 1.502 . S
C2913 H2899 0.960 . S
C2913 H2900 0.961 . S
C2913 H2901 0.959 . S
C2913 C2911 1.561 . S
C2914 C2911 1.526 . S
C2914 C2915 1.396 . S
C2914 C2919 1.390 . S
C2915 C2909 1.465 . S
C2915 C2914 1.396 . S
C2915 C2916 1.399 . S
C2916 H2902 0.929 . S
C2916 C2915 1.399 . S
C2916 C2917 1.385 . S
C2917 H2903 0.931 . S
C2917 C2916 1.385 . S
C2917 C2918 1.389 . S
C2918 C2917 1.389 . S
C2918 C2919 1.387 . S
C2919 H2904 0.930 . S
C2919 C2914 1.390 . S
C2919 C2918 1.387 . S
H2920 C2932 0.930 . S
H2921 C2934 0.930 . S
H2922 C2935 0.930 . S
H2923 C2939 0.959 . S
H2924 C2939 0.959 . S
H2925 C2939 0.961 . S
H2926 C2940 0.960 . S
H2927 C2940 0.961 . S
H2928 C2940 0.959 . S
H2929 C2943 0.929 . S
H2930 C2944 0.931 . S
H2931 C2946 0.930 . S
C2932 H2920 0.930 . S
C2932 C2933 1.399 . S
C2932 C2937 1.399 . S
C2933 C2932 1.399 . S
C2933 C2934 1.376 . S
C2934 H2921 0.930 . S
C2934 C2933 1.376 . S
C2934 C2935 1.388 . S
C2935 H2922 0.930 . S
C2935 C2934 1.388 . S
C2935 C2936 1.390 . S
C2936 C2935 1.390 . S
C2936 C2937 1.394 . S
C2936 C2942 1.465 . S
C2937 C2932 1.399 . S
C2937 C2936 1.394 . S
C2937 C2938 1.516 . S
C2938 C2937 1.516 . S
C2938 C2939 1.502 . S
C2938 C2940 1.561 . S
C2938 C2941 1.526 . S
C2939 H2923 0.959 . S
C2939 H2924 0.959 . S
C2939 H2925 0.961 . S
C2939 C2938 1.502 . S
C2940 H2926 0.960 . S
C2940 H2927 0.961 . S
C2940 H2928 0.959 . S
C2940 C2938 1.561 . S
C2941 C2938 1.526 . S
C2941 C2942 1.396 . S
C2941 C2946 1.390 . S
C2942 C2936 1.465 . S
C2942 C2941 1.396 . S
C2942 C2943 1.399 . S
C2943 H2929 0.929 . S
C2943 C2942 1.399 . S
C2943 C2944 1.385 . S
C2944 H2930 0.931 . S
C2944 C2943 1.385 . S
C2944 C2945 1.389 . S
C2945 C2944 1.389 . S
C2945 C2946 1.387 . S
C2946 H2931 0.930 . S
C2946 C2941 1.390 . S
C2946 C2945 1.387 . S
H2947 C2959 0.930 . S
H2948 C2961 0.930 . S
H2949 C2962 0.930 . S
H2950 C2966 0.959 . S
H2951 C2966 0.959 . S
H2952 C2966 0.961 . S
H2953 C2967 0.960 . S
H2954 C2967 0.961 . S
H2955 C2967 0.959 . S
H2956 C2970 0.929 . S
H2957 C2971 0.931 . S
H2958 C2973 0.930 . S
C2959 H2947 0.930 . S
C2959 C2960 1.399 . S
C2959 C2964 1.399 . S
C2960 C2959 1.399 . S
C2960 C2961 1.376 . S
C2961 H2948 0.930 . S
C2961 C2960 1.376 . S
C2961 C2962 1.388 . S
C2962 H2949 0.930 . S
C2962 C2961 1.388 . S
C2962 C2963 1.390 . S
C2963 C2962 1.390 . S
C2963 C2964 1.394 . S
C2963 C2969 1.465 . S
C2964 C2959 1.399 . S
C2964 C2963 1.394 . S
C2964 C2965 1.516 . S
C2965 C2964 1.516 . S
C2965 C2966 1.502 . S
C2965 C2967 1.561 . S
C2965 C2968 1.526 . S
C2966 H2950 0.959 . S
C2966 H2951 0.959 . S
C2966 H2952 0.961 . S
C2966 C2965 1.502 . S
C2967 H2953 0.960 . S
C2967 H2954 0.961 . S
C2967 H2955 0.959 . S
C2967 C2965 1.561 . S
C2968 C2965 1.526 . S
C2968 C2969 1.396 . S
C2968 C2973 1.390 . S
C2969 C2963 1.465 . S
C2969 C2968 1.396 . S
C2969 C2970 1.399 . S
C2970 H2956 0.929 . S
C2970 C2969 1.399 . S
C2970 C2971 1.385 . S
C2971 H2957 0.931 . S
C2971 C2970 1.385 . S
C2971 C2972 1.389 . S
C2972 C2971 1.389 . S
C2972 C2973 1.387 . S
C2973 H2958 0.930 . S
C2973 C2968 1.390 . S
C2973 C2972 1.387 . S
H2974 C2986 0.930 . S
H2975 C2988 0.930 . S
H2976 C2989 0.930 . S
H2977 C2993 0.959 . S
H2978 C2993 0.936 1_556 S
H2979 C2993 0.961 . S
H2980 C2994 0.960 . S
H2981 C2994 0.961 . S
H2982 C2994 0.959 . S
H2983 C2997 0.929 . S
H2984 C2998 0.931 . S
H2985 C3000 0.930 . S
C2986 H2974 0.930 . S
C2986 C2987 1.399 . S
C2986 C2991 1.399 . S
C2987 C2986 1.399 . S
C2987 C2988 1.376 . S
C2988 H2975 0.930 . S
C2988 C2987 1.376 . S
C2988 C2989 1.388 . S
C2989 H2976 0.930 . S
C2989 C2988 1.388 . S
C2989 C2990 1.390 . S
C2990 C2989 1.390 . S
C2990 C2991 1.394 . S
C2990 C2996 1.465 . S
C2991 C2986 1.399 . S
C2991 C2990 1.394 . S
C2991 C2992 1.516 . S
C2992 C2991 1.516 . S
C2992 C2993 1.502 . S
C2992 C2994 1.561 . S
C2992 C2995 1.526 . S
C2993 H2977 0.959 . S
C2993 H2978 0.936 1_554 S
C2993 H2979 0.961 . S
C2993 C2992 1.502 . S
C2994 H2980 0.960 . S
C2994 H2981 0.961 . S
C2994 H2982 0.959 . S
C2994 C2992 1.561 . S
C2995 C2992 1.526 . S
C2995 C2996 1.396 . S
C2995 C3000 1.390 . S
C2996 C2990 1.465 . S
C2996 C2995 1.396 . S
C2996 C2997 1.399 . S
C2997 H2983 0.929 . S
C2997 C2996 1.399 . S
C2997 C2998 1.385 . S
C2998 H2984 0.931 . S
C2998 C2997 1.385 . S
C2998 C2999 1.389 . S
C2999 C2998 1.389 . S
C2999 C3000 1.387 . S
C3000 H2985 0.930 . S
C3000 C2995 1.390 . S
C3000 C2999 1.387 . S
H3001 C3013 0.930 . S
H3002 C3015 0.930 . S
H3003 C3016 0.930 . S
H3004 C3020 0.959 . S
H3005 C3020 0.959 . S
H3006 C3020 0.961 . S
H3007 C3021 0.960 . S
H3008 C3021 0.961 . S
H3009 C3021 0.959 . S
H3010 C3024 0.929 . S
H3011 C3025 0.931 . S
H3012 C3027 0.930 . S
C3013 H3001 0.930 . S
C3013 C3014 1.399 . S
C3013 C3018 1.399 . S
C3014 C3013 1.399 . S
C3014 C3015 1.376 . S
C3015 H3002 0.930 . S
C3015 C3014 1.376 . S
C3015 C3016 1.388 . S
C3016 H3003 0.930 . S
C3016 C3015 1.388 . S
C3016 C3017 1.390 . S
C3017 C3016 1.390 . S
C3017 C3018 1.394 . S
C3017 C3023 1.465 . S
C3018 C3013 1.399 . S
C3018 C3017 1.394 . S
C3018 C3019 1.516 . S
C3019 C3018 1.516 . S
C3019 C3020 1.502 . S
C3019 C3021 1.561 . S
C3019 C3022 1.526 . S
C3020 H3004 0.959 . S
C3020 H3005 0.959 . S
C3020 H3006 0.961 . S
C3020 C3019 1.502 . S
C3021 H3007 0.960 . S
C3021 H3008 0.961 . S
C3021 H3009 0.959 . S
C3021 C3019 1.561 . S
C3022 C3019 1.526 . S
C3022 C3023 1.396 . S
C3022 C3027 1.390 . S
C3023 C3017 1.465 . S
C3023 C3022 1.396 . S
C3023 C3024 1.399 . S
C3024 H3010 0.929 . S
C3024 C3023 1.399 . S
C3024 C3025 1.385 . S
C3025 H3011 0.931 . S
C3025 C3024 1.385 . S
C3025 C3026 1.389 . S
C3026 C3025 1.389 . S
C3026 C3027 1.387 . S
C3027 H3012 0.930 . S
C3027 C3022 1.390 . S
C3027 C3026 1.387 . S
H3028 C3040 0.930 . S
H3029 C3042 0.930 . S
H3030 C3043 0.930 . S
H3031 C3047 0.959 . S
H3032 C3047 0.959 . S
H3033 C3047 0.961 . S
H3034 C3048 0.960 . S
H3035 C3048 0.961 . S
H3036 C3048 0.959 . S
H3037 C3051 0.929 . S
H3038 C3052 0.931 . S
H3039 C3054 0.930 . S
C3040 H3028 0.930 . S
C3040 C3041 1.399 . S
C3040 C3045 1.399 . S
C3041 C3040 1.399 . S
C3041 C3042 1.376 . S
C3042 H3029 0.930 . S
C3042 C3041 1.376 . S
C3042 C3043 1.388 . S
C3043 H3030 0.930 . S
C3043 C3042 1.388 . S
C3043 C3044 1.390 . S
C3044 C3043 1.390 . S
C3044 C3045 1.394 . S
C3044 C3050 1.465 . S
C3045 C3040 1.399 . S
C3045 C3044 1.394 . S
C3045 C3046 1.516 . S
C3046 C3045 1.516 . S
C3046 C3047 1.502 . S
C3046 C3048 1.561 . S
C3046 C3049 1.526 . S
C3047 H3031 0.959 . S
C3047 H3032 0.959 . S
C3047 H3033 0.961 . S
C3047 C3046 1.502 . S
C3048 H3034 0.960 . S
C3048 H3035 0.961 . S
C3048 H3036 0.959 . S
C3048 C3046 1.561 . S
C3049 C3046 1.526 . S
C3049 C3050 1.396 . S
C3049 C3054 1.390 . S
C3050 C3044 1.465 . S
C3050 C3049 1.396 . S
C3050 C3051 1.399 . S
C3051 H3037 0.929 . S
C3051 C3050 1.399 . S
C3051 C3052 1.385 . S
C3052 H3038 0.931 . S
C3052 C3051 1.385 . S
C3052 C3053 1.389 . S
C3053 C3052 1.389 . S
C3053 C3054 1.387 . S
C3054 H3039 0.930 . S
C3054 C3049 1.390 . S
C3054 C3053 1.387 . S
H3055 C3067 0.930 . S
H3056 C3069 0.930 . S
H3057 C3070 0.930 . S
H3058 C3074 0.959 . S
H3059 C3074 0.959 . S
H3060 C3074 0.961 . S
H3061 C3075 0.960 . S
H3062 C3075 0.961 . S
H3063 C3075 0.959 . S
H3064 C3078 0.929 . S
H3065 C3079 0.931 . S
H3066 C3081 0.930 . S
C3067 H3055 0.930 . S
C3067 C3068 1.399 . S
C3067 C3072 1.399 . S
C3068 C3067 1.399 . S
C3068 C3069 1.376 . S
C3069 H3056 0.930 . S
C3069 C3068 1.376 . S
C3069 C3070 1.388 . S
C3070 H3057 0.930 . S
C3070 C3069 1.388 . S
C3070 C3071 1.390 . S
C3071 C3070 1.390 . S
C3071 C3072 1.394 . S
C3071 C3077 1.465 . S
C3072 C3067 1.399 . S
C3072 C3071 1.394 . S
C3072 C3073 1.516 . S
C3073 C3072 1.516 . S
C3073 C3074 1.502 . S
C3073 C3075 1.561 . S
C3073 C3076 1.526 . S
C3074 H3058 0.959 . S
C3074 H3059 0.959 . S
C3074 H3060 0.961 . S
C3074 C3073 1.502 . S
C3075 H3061 0.960 . S
C3075 H3062 0.961 . S
C3075 H3063 0.959 . S
C3075 C3073 1.561 . S
C3076 C3073 1.526 . S
C3076 C3077 1.396 . S
C3076 C3081 1.390 . S
C3077 C3071 1.465 . S
C3077 C3076 1.396 . S
C3077 C3078 1.399 . S
C3078 H3064 0.929 . S
C3078 C3077 1.399 . S
C3078 C3079 1.385 . S
C3079 H3065 0.931 . S
C3079 C3078 1.385 . S
C3079 C3080 1.389 . S
C3080 C3079 1.389 . S
C3080 C3081 1.387 . S
C3081 H3066 0.930 . S
C3081 C3076 1.390 . S
C3081 C3080 1.387 . S
H3082 C3094 0.930 . S
H3083 C3096 0.930 . S
H3084 C3097 0.930 . S
H3085 C3101 0.964 . S
H3086 C3101 0.965 . S
H3087 C3101 0.961 . S
H3088 C3102 0.960 . S
H3089 C3102 0.961 . S
H3090 C3102 0.959 . S
H3091 C3105 0.929 . S
H3092 C3106 0.931 . S
H3093 C3108 0.930 . S
C3094 H3082 0.930 . S
C3094 C3095 1.399 . S
C3094 C3099 1.399 . S
C3095 C3094 1.399 . S
C3095 C3096 1.376 . S
C3096 H3083 0.930 . S
C3096 C3095 1.376 . S
C3096 C3097 1.388 . S
C3097 H3084 0.930 . S
C3097 C3096 1.388 . S
C3097 C3098 1.390 . S
C3098 C3097 1.390 . S
C3098 C3099 1.394 . S
C3098 C3104 1.465 . S
C3099 C3094 1.399 . S
C3099 C3098 1.394 . S
C3099 C3100 1.516 . S
C3100 C3099 1.516 . S
C3100 C3101 1.491 1_455 S
C3100 C3102 1.561 . S
C3100 C3103 1.526 . S
C3101 H3085 0.964 . S
C3101 H3086 0.965 . S
C3101 H3087 0.961 . S
C3101 C3100 1.491 1_655 S
C3102 H3088 0.960 . S
C3102 H3089 0.961 . S
C3102 H3090 0.959 . S
C3102 C3100 1.561 . S
C3103 C3100 1.526 . S
C3103 C3104 1.396 . S
C3103 C3108 1.390 . S
C3104 C3098 1.465 . S
C3104 C3103 1.396 . S
C3104 C3105 1.399 . S
C3105 H3091 0.929 . S
C3105 C3104 1.399 . S
C3105 C3106 1.385 . S
C3106 H3092 0.931 . S
C3106 C3105 1.385 . S
C3106 C3107 1.389 . S
C3107 C3106 1.389 . S
C3107 C3108 1.387 . S
C3108 H3093 0.930 . S
C3108 C3103 1.390 . S
C3108 C3107 1.387 . S
H3109 C3121 0.930 . S
H3110 C3123 0.930 . S
H3111 C3124 0.930 . S
H3112 C3128 0.959 . S
H3113 C3128 0.959 . S
H3114 C3128 0.961 . S
H3115 C3129 0.960 . S
H3116 C3129 0.961 . S
H3117 C3129 0.959 . S
H3118 C3132 0.929 . S
H3119 C3133 0.931 . S
H3120 C3135 0.930 . S
C3121 H3109 0.930 . S
C3121 C3122 1.399 . S
C3121 C3126 1.399 . S
C3122 C3121 1.399 . S
C3122 C3123 1.376 . S
C3123 H3110 0.930 . S
C3123 C3122 1.376 . S
C3123 C3124 1.388 . S
C3124 H3111 0.930 . S
C3124 C3123 1.388 . S
C3124 C3125 1.390 . S
C3125 C3124 1.390 . S
C3125 C3126 1.394 . S
C3125 C3131 1.465 . S
C3126 C3121 1.399 . S
C3126 C3125 1.394 . S
C3126 C3127 1.516 . S
C3127 C3126 1.516 . S
C3127 C3128 1.502 . S
C3127 C3129 1.561 . S
C3127 C3130 1.526 . S
C3128 H3112 0.959 . S
C3128 H3113 0.959 . S
C3128 H3114 0.961 . S
C3128 C3127 1.502 . S
C3129 H3115 0.960 . S
C3129 H3116 0.961 . S
C3129 H3117 0.959 . S
C3129 C3127 1.561 . S
C3130 C3127 1.526 . S
C3130 C3131 1.396 . S
C3130 C3135 1.390 . S
C3131 C3125 1.465 . S
C3131 C3130 1.396 . S
C3131 C3132 1.399 . S
C3132 H3118 0.929 . S
C3132 C3131 1.399 . S
C3132 C3133 1.385 . S
C3133 H3119 0.931 . S
C3133 C3132 1.385 . S
C3133 C3134 1.389 . S
C3134 C3133 1.389 . S
C3134 C3135 1.387 . S
C3135 H3120 0.930 . S
C3135 C3130 1.390 . S
C3135 C3134 1.387 . S
H3136 C3148 0.930 . S
H3137 C3150 0.930 . S
H3138 C3151 0.930 . S
H3139 C3155 0.959 . S
H3140 C3155 0.959 . S
H3141 C3155 0.961 . S
H3142 C3156 0.960 . S
H3143 C3156 0.961 . S
H3144 C3156 0.959 . S
H3145 C3159 0.929 . S
H3146 C3160 0.931 . S
H3147 C3162 0.930 . S
C3148 H3136 0.930 . S
C3148 C3149 1.399 . S
C3148 C3153 1.399 . S
C3149 C3148 1.399 . S
C3149 C3150 1.376 . S
C3150 H3137 0.930 . S
C3150 C3149 1.376 . S
C3150 C3151 1.388 . S
C3151 H3138 0.930 . S
C3151 C3150 1.388 . S
C3151 C3152 1.390 . S
C3152 C3151 1.390 . S
C3152 C3153 1.394 . S
C3152 C3158 1.465 . S
C3153 C3148 1.399 . S
C3153 C3152 1.394 . S
C3153 C3154 1.516 . S
C3154 C3153 1.516 . S
C3154 C3155 1.502 . S
C3154 C3156 1.561 . S
C3154 C3157 1.526 . S
C3155 H3139 0.959 . S
C3155 H3140 0.959 . S
C3155 H3141 0.961 . S
C3155 C3154 1.502 . S
C3156 H3142 0.960 . S
C3156 H3143 0.961 . S
C3156 H3144 0.959 . S
C3156 C3154 1.561 . S
C3157 C3154 1.526 . S
C3157 C3158 1.396 . S
C3157 C3162 1.390 . S
C3158 C3152 1.465 . S
C3158 C3157 1.396 . S
C3158 C3159 1.399 . S
C3159 H3145 0.929 . S
C3159 C3158 1.399 . S
C3159 C3160 1.385 . S
C3160 H3146 0.931 . S
C3160 C3159 1.385 . S
C3160 C3161 1.389 . S
C3161 C3160 1.389 . S
C3161 C3162 1.387 . S
C3162 H3147 0.930 . S
C3162 C3157 1.390 . S
C3162 C3161 1.387 . S
H3163 C3175 0.930 . S
H3164 C3177 0.930 . S
H3165 C3178 0.930 . S
H3166 C3182 0.959 . S
H3167 C3182 0.959 . S
H3168 C3182 0.961 . S
H3169 C3183 0.960 . S
H3170 C3183 0.961 . S
H3171 C3183 0.959 . S
H3172 C3186 0.929 . S
H3173 C3187 0.931 . S
H3174 C3189 0.930 . S
C3175 H3163 0.930 . S
C3175 C3176 1.399 . S
C3175 C3180 1.399 . S
C3176 C3175 1.399 . S
C3176 C3177 1.376 . S
C3177 H3164 0.930 . S
C3177 C3176 1.376 . S
C3177 C3178 1.388 . S
C3178 H3165 0.930 . S
C3178 C3177 1.388 . S
C3178 C3179 1.390 . S
C3179 C3178 1.390 . S
C3179 C3180 1.394 . S
C3179 C3185 1.465 . S
C3180 C3175 1.399 . S
C3180 C3179 1.394 . S
C3180 C3181 1.516 . S
C3181 C3180 1.516 . S
C3181 C3182 1.502 . S
C3181 C3183 1.561 . S
C3181 C3184 1.526 . S
C3182 H3166 0.959 . S
C3182 H3167 0.959 . S
C3182 H3168 0.961 . S
C3182 C3181 1.502 . S
C3183 H3169 0.960 . S
C3183 H3170 0.961 . S
C3183 H3171 0.959 . S
C3183 C3181 1.561 . S
C3184 C3181 1.526 . S
C3184 C3185 1.396 . S
C3184 C3189 1.390 . S
C3185 C3179 1.465 . S
C3185 C3184 1.396 . S
C3185 C3186 1.399 . S
C3186 H3172 0.929 . S
C3186 C3185 1.399 . S
C3186 C3187 1.385 . S
C3187 H3173 0.931 . S
C3187 C3186 1.385 . S
C3187 C3188 1.389 . S
C3188 C3187 1.389 . S
C3188 C3189 1.387 . S
C3189 H3174 0.930 . S
C3189 C3184 1.390 . S
C3189 C3188 1.387 . S
H3190 C3202 0.930 . S
H3191 C3204 0.930 . S
H3192 C3205 0.930 . S
H3193 C3209 0.959 . S
H3194 C3209 0.959 . S
H3195 C3209 0.961 . S
H3196 C3210 0.960 . S
H3197 C3210 0.961 . S
H3198 C3210 0.959 . S
H3199 C3213 0.929 . S
H3200 C3214 0.931 1_455 S
H3201 C3216 0.930 . S
C3202 H3190 0.930 . S
C3202 C3203 1.399 . S
C3202 C3207 1.399 . S
C3203 C3202 1.399 . S
C3203 C3204 1.376 . S
C3204 H3191 0.930 . S
C3204 C3203 1.376 . S
C3204 C3205 1.388 . S
C3205 H3192 0.930 . S
C3205 C3204 1.388 . S
C3205 C3206 1.390 . S
C3206 C3205 1.390 . S
C3206 C3207 1.394 . S
C3206 C3212 1.465 . S
C3207 C3202 1.399 . S
C3207 C3206 1.394 . S
C3207 C3208 1.516 . S
C3208 C3207 1.516 . S
C3208 C3209 1.502 . S
C3208 C3210 1.561 . S
C3208 C3211 1.526 . S
C3209 H3193 0.959 . S
C3209 H3194 0.959 . S
C3209 H3195 0.961 . S
C3209 C3208 1.502 . S
C3210 H3196 0.960 . S
C3210 H3197 0.961 . S
C3210 H3198 0.959 . S
C3210 C3208 1.561 . S
C3211 C3208 1.526 . S
C3211 C3212 1.396 . S
C3211 C3216 1.390 . S
C3212 C3206 1.465 . S
C3212 C3211 1.396 . S
C3212 C3213 1.399 . S
C3213 H3199 0.929 . S
C3213 C3212 1.399 . S
C3213 C3214 1.385 . S
C3214 H3200 0.931 1_655 S
C3214 C3213 1.385 . S
C3214 C3215 1.389 1_655 S
C3215 C3214 1.389 1_455 S
C3215 C3216 1.387 1_455 S
C3216 H3201 0.930 . S
C3216 C3211 1.390 . S
C3216 C3215 1.387 1_655 S
H3217 C3229 0.930 . S
H3218 C3231 0.930 . S
H3219 C3232 0.930 . S
H3220 C3236 0.959 . S
H3221 C3236 0.959 . S
H3222 C3236 0.961 . S
H3223 C3237 0.960 . S
H3224 C3237 0.961 . S
H3225 C3237 0.959 . S
H3226 C3240 0.929 . S
H3227 C3241 0.931 . S
H3228 C3243 0.930 . S
C3229 H3217 0.930 . S
C3229 C3230 1.399 . S
C3229 C3234 1.399 . S
C3230 C3229 1.399 . S
C3230 C3231 1.376 . S
C3231 H3218 0.930 . S
C3231 C3230 1.376 . S
C3231 C3232 1.388 . S
C3232 H3219 0.930 . S
C3232 C3231 1.388 . S
C3232 C3233 1.390 . S
C3233 C3232 1.390 . S
C3233 C3234 1.394 . S
C3233 C3239 1.465 . S
C3234 C3229 1.399 . S
C3234 C3233 1.394 . S
C3234 C3235 1.516 . S
C3235 C3234 1.516 . S
C3235 C3236 1.502 . S
C3235 C3237 1.561 . S
C3235 C3238 1.526 . S
C3236 H3220 0.959 . S
C3236 H3221 0.959 . S
C3236 H3222 0.961 . S
C3236 C3235 1.502 . S
C3237 H3223 0.960 . S
C3237 H3224 0.961 . S
C3237 H3225 0.959 . S
C3237 C3235 1.561 . S
C3238 C3235 1.526 . S
C3238 C3239 1.396 . S
C3238 C3243 1.390 . S
C3239 C3233 1.465 . S
C3239 C3238 1.396 . S
C3239 C3240 1.399 . S
C3240 H3226 0.929 . S
C3240 C3239 1.399 . S
C3240 C3241 1.385 . S
C3241 H3227 0.931 . S
C3241 C3240 1.385 . S
C3241 C3242 1.389 . S
C3242 C3241 1.389 . S
C3242 C3243 1.387 . S
C3243 H3228 0.930 . S
C3243 C3238 1.390 . S
C3243 C3242 1.387 . S
H3244 C3256 0.930 . S
H3245 C3258 0.930 . S
H3246 C3259 0.930 . S
H3247 C3263 0.959 . S
H3248 C3263 0.959 . S
H3249 C3263 0.961 . S
H3250 C3264 0.960 . S
H3251 C3264 0.961 . S
H3252 C3264 0.959 . S
H3253 C3267 0.929 . S
H3254 C3268 0.931 . S
H3255 C3270 0.930 . S
C3256 H3244 0.930 . S
C3256 C3257 1.399 . S
C3256 C3261 1.399 . S
C3257 C3256 1.399 . S
C3257 C3258 1.376 . S
C3258 H3245 0.930 . S
C3258 C3257 1.376 . S
C3258 C3259 1.388 . S
C3259 H3246 0.930 . S
C3259 C3258 1.388 . S
C3259 C3260 1.390 . S
C3260 C3259 1.390 . S
C3260 C3261 1.394 . S
C3260 C3266 1.465 . S
C3261 C3256 1.399 . S
C3261 C3260 1.394 . S
C3261 C3262 1.516 . S
C3262 C3261 1.516 . S
C3262 C3263 1.502 . S
C3262 C3264 1.561 . S
C3262 C3265 1.526 . S
C3263 H3247 0.959 . S
C3263 H3248 0.959 . S
C3263 H3249 0.961 . S
C3263 C3262 1.502 . S
C3264 H3250 0.960 . S
C3264 H3251 0.961 . S
C3264 H3252 0.959 . S
C3264 C3262 1.561 . S
C3265 C3262 1.526 . S
C3265 C3266 1.396 . S
C3265 C3270 1.390 . S
C3266 C3260 1.465 . S
C3266 C3265 1.396 . S
C3266 C3267 1.399 . S
C3267 H3253 0.929 . S
C3267 C3266 1.399 . S
C3267 C3268 1.385 . S
C3268 H3254 0.931 . S
C3268 C3267 1.385 . S
C3268 C3269 1.389 . S
C3269 C3268 1.389 . S
C3269 C3270 1.387 . S
C3270 H3255 0.930 . S
C3270 C3265 1.390 . S
C3270 C3269 1.387 . S
H3271 C3283 0.930 . S
H3272 C3285 0.930 . S
H3273 C3286 0.930 . S
H3274 C3290 0.959 . S
H3275 C3290 0.959 . S
H3276 C3290 0.961 . S
H3277 C3291 0.960 . S
H3278 C3291 0.961 . S
H3279 C3291 0.959 . S
H3280 C3294 0.929 . S
H3281 C3295 0.931 . S
H3282 C3297 0.930 . S
C3283 H3271 0.930 . S
C3283 C3284 1.399 . S
C3283 C3288 1.399 . S
C3284 C3283 1.399 . S
C3284 C3285 1.376 . S
C3285 H3272 0.930 . S
C3285 C3284 1.376 . S
C3285 C3286 1.388 . S
C3286 H3273 0.930 . S
C3286 C3285 1.388 . S
C3286 C3287 1.390 . S
C3287 C3286 1.390 . S
C3287 C3288 1.394 . S
C3287 C3293 1.465 . S
C3288 C3283 1.399 . S
C3288 C3287 1.394 . S
C3288 C3289 1.516 . S
C3289 C3288 1.516 . S
C3289 C3290 1.502 . S
C3289 C3291 1.561 . S
C3289 C3292 1.526 . S
C3290 H3274 0.959 . S
C3290 H3275 0.959 . S
C3290 H3276 0.961 . S
C3290 C3289 1.502 . S
C3291 H3277 0.960 . S
C3291 H3278 0.961 . S
C3291 H3279 0.959 . S
C3291 C3289 1.561 . S
C3292 C3289 1.526 . S
C3292 C3293 1.396 . S
C3292 C3297 1.390 . S
C3293 C3287 1.465 . S
C3293 C3292 1.396 . S
C3293 C3294 1.399 . S
C3294 H3280 0.929 . S
C3294 C3293 1.399 . S
C3294 C3295 1.385 . S
C3295 H3281 0.931 . S
C3295 C3294 1.385 . S
C3295 C3296 1.389 . S
C3296 C3295 1.389 . S
C3296 C3297 1.387 . S
C3297 H3282 0.930 . S
C3297 C3292 1.390 . S
C3297 C3296 1.387 . S
H3298 C3310 0.930 . S
H3299 C3312 0.930 . S
H3300 C3313 0.930 . S
H3301 C3317 0.959 . S
H3302 C3317 0.959 . S
H3303 C3317 0.961 . S
H3304 C3318 0.960 . S
H3305 C3318 0.961 . S
H3306 C3318 0.959 . S
H3307 C3321 0.929 . S
H3308 C3322 0.931 . S
H3309 C3324 0.930 . S
C3310 H3298 0.930 . S
C3310 C3311 1.399 . S
C3310 C3315 1.399 . S
C3311 C3310 1.399 . S
C3311 C3312 1.376 . S
C3312 H3299 0.930 . S
C3312 C3311 1.376 . S
C3312 C3313 1.388 . S
C3313 H3300 0.930 . S
C3313 C3312 1.388 . S
C3313 C3314 1.390 . S
C3314 C3313 1.390 . S
C3314 C3315 1.394 . S
C3314 C3320 1.465 . S
C3315 C3310 1.399 . S
C3315 C3314 1.394 . S
C3315 C3316 1.516 . S
C3316 C3315 1.516 . S
C3316 C3317 1.502 . S
C3316 C3318 1.561 . S
C3316 C3319 1.526 . S
C3317 H3301 0.959 . S
C3317 H3302 0.959 . S
C3317 H3303 0.961 . S
C3317 C3316 1.502 . S
C3318 H3304 0.960 . S
C3318 H3305 0.961 . S
C3318 H3306 0.959 . S
C3318 C3316 1.561 . S
C3319 C3316 1.526 . S
C3319 C3320 1.396 . S
C3319 C3324 1.390 . S
C3320 C3314 1.465 . S
C3320 C3319 1.396 . S
C3320 C3321 1.399 . S
C3321 H3307 0.929 . S
C3321 C3320 1.399 . S
C3321 C3322 1.385 . S
C3322 H3308 0.931 . S
C3322 C3321 1.385 . S
C3322 C3323 1.389 . S
C3323 C3322 1.389 . S
C3323 C3324 1.387 . S
C3324 H3309 0.930 . S
C3324 C3319 1.390 . S
C3324 C3323 1.387 . S
H3325 C3337 0.930 . S
H3326 C3339 0.930 . S
H3327 C3340 0.930 . S
H3328 C3344 0.959 . S
H3329 C3344 0.959 . S
H3330 C3344 0.961 . S
H3331 C3345 0.960 . S
H3332 C3345 0.961 . S
H3333 C3345 0.959 . S
H3334 C3348 0.929 . S
H3335 C3349 0.931 . S
H3336 C3351 0.930 . S
C3337 H3325 0.930 . S
C3337 C3338 1.399 . S
C3337 C3342 1.399 . S
C3338 C3337 1.399 . S
C3338 C3339 1.376 . S
C3339 H3326 0.930 . S
C3339 C3338 1.376 . S
C3339 C3340 1.388 . S
C3340 H3327 0.930 . S
C3340 C3339 1.388 . S
C3340 C3341 1.390 . S
C3341 C3340 1.390 . S
C3341 C3342 1.394 . S
C3341 C3347 1.465 . S
C3342 C3337 1.399 . S
C3342 C3341 1.394 . S
C3342 C3343 1.516 . S
C3343 C3342 1.516 . S
C3343 C3344 1.502 . S
C3343 C3345 1.561 . S
C3343 C3346 1.526 . S
C3344 H3328 0.959 . S
C3344 H3329 0.959 . S
C3344 H3330 0.961 . S
C3344 C3343 1.502 . S
C3345 H3331 0.960 . S
C3345 H3332 0.961 . S
C3345 H3333 0.959 . S
C3345 C3343 1.561 . S
C3346 C3343 1.526 . S
C3346 C3347 1.396 . S
C3346 C3351 1.390 . S
C3347 C3341 1.465 . S
C3347 C3346 1.396 . S
C3347 C3348 1.399 . S
C3348 H3334 0.929 . S
C3348 C3347 1.399 . S
C3348 C3349 1.385 . S
C3349 H3335 0.931 . S
C3349 C3348 1.385 . S
C3349 C3350 1.389 . S
C3350 C3349 1.389 . S
C3350 C3351 1.387 . S
C3351 H3336 0.930 . S
C3351 C3346 1.390 . S
C3351 C3350 1.387 . S
H3352 C3364 0.930 . S
H3353 C3366 0.930 . S
H3354 C3367 0.930 . S
H3355 C3371 0.959 . S
H3356 C3371 0.959 . S
H3357 C3371 0.961 . S
H3358 C3372 0.960 . S
H3359 C3372 0.961 . S
H3360 C3372 0.959 . S
H3361 C3375 0.929 . S
H3362 C3376 0.931 . S
H3363 C3378 0.930 . S
C3364 H3352 0.930 . S
C3364 C3365 1.399 . S
C3364 C3369 1.399 . S
C3365 C3364 1.399 . S
C3365 C3366 1.376 . S
C3366 H3353 0.930 . S
C3366 C3365 1.376 . S
C3366 C3367 1.388 . S
C3367 H3354 0.930 . S
C3367 C3366 1.388 . S
C3367 C3368 1.390 . S
C3368 C3367 1.390 . S
C3368 C3369 1.394 . S
C3368 C3374 1.465 . S
C3369 C3364 1.399 . S
C3369 C3368 1.394 . S
C3369 C3370 1.516 . S
C3370 C3369 1.516 . S
C3370 C3371 1.502 . S
C3370 C3372 1.561 . S
C3370 C3373 1.526 . S
C3371 H3355 0.959 . S
C3371 H3356 0.959 . S
C3371 H3357 0.961 . S
C3371 C3370 1.502 . S
C3372 H3358 0.960 . S
C3372 H3359 0.961 . S
C3372 H3360 0.959 . S
C3372 C3370 1.561 . S
C3373 C3370 1.526 . S
C3373 C3374 1.396 . S
C3373 C3378 1.390 . S
C3374 C3368 1.465 . S
C3374 C3373 1.396 . S
C3374 C3375 1.399 . S
C3375 H3361 0.929 . S
C3375 C3374 1.399 . S
C3375 C3376 1.385 . S
C3376 H3362 0.931 . S
C3376 C3375 1.385 . S
C3376 C3377 1.389 . S
C3377 C3376 1.389 . S
C3377 C3378 1.387 . S
C3378 H3363 0.930 . S
C3378 C3373 1.390 . S
C3378 C3377 1.387 . S
H3379 C3391 0.930 . S
H3380 C3393 0.930 . S
H3381 C3394 0.930 . S
H3382 C3398 0.959 . S
H3383 C3398 0.942 1_545 S
H3384 C3398 0.961 . S
H3385 C3399 0.960 . S
H3386 C3399 0.961 . S
H3387 C3399 0.959 . S
H3388 C3402 0.929 . S
H3389 C3403 0.931 . S
H3390 C3405 0.930 1_545 S
C3391 H3379 0.930 . S
C3391 C3392 1.399 . S
C3391 C3396 1.399 . S
C3392 C3391 1.399 . S
C3392 C3393 1.376 . S
C3393 H3380 0.930 . S
C3393 C3392 1.376 . S
C3393 C3394 1.388 . S
C3394 H3381 0.930 . S
C3394 C3393 1.388 . S
C3394 C3395 1.390 . S
C3395 C3394 1.390 . S
C3395 C3396 1.394 . S
C3395 C3401 1.465 . S
C3396 C3391 1.399 . S
C3396 C3395 1.394 . S
C3396 C3397 1.516 . S
C3397 C3396 1.516 . S
C3397 C3398 1.502 . S
C3397 C3399 1.561 . S
C3397 C3400 1.526 . S
C3398 H3382 0.959 . S
C3398 H3383 0.942 1_565 S
C3398 H3384 0.961 . S
C3398 C3397 1.502 . S
C3399 H3385 0.960 . S
C3399 H3386 0.961 . S
C3399 H3387 0.959 . S
C3399 C3397 1.561 . S
C3400 C3397 1.526 . S
C3400 C3401 1.396 . S
C3400 C3405 1.390 . S
C3401 C3395 1.465 . S
C3401 C3400 1.396 . S
C3401 C3402 1.399 . S
C3402 H3388 0.929 . S
C3402 C3401 1.399 . S
C3402 C3403 1.385 . S
C3403 H3389 0.931 . S
C3403 C3402 1.385 . S
C3403 C3404 1.387 1_565 S
C3404 C3403 1.387 1_545 S
C3404 C3405 1.386 1_545 S
C3405 H3390 0.930 1_565 S
C3405 C3400 1.390 . S
C3405 C3404 1.386 1_565 S
H3406 C3418 0.930 . S
H3407 C3420 0.930 . S
H3408 C3421 0.930 . S
H3409 C3425 0.959 . S
H3410 C3425 0.959 . S
H3411 C3425 0.961 . S
H3412 C3426 0.960 . S
H3413 C3426 0.961 . S
H3414 C3426 0.959 . S
H3415 C3429 0.929 . S
H3416 C3430 0.931 . S
H3417 C3432 0.930 . S
C3418 H3406 0.930 . S
C3418 C3419 1.399 . S
C3418 C3423 1.399 . S
C3419 C3418 1.399 . S
C3419 C3420 1.376 . S
C3420 H3407 0.930 . S
C3420 C3419 1.376 . S
C3420 C3421 1.388 . S
C3421 H3408 0.930 . S
C3421 C3420 1.388 . S
C3421 C3422 1.390 . S
C3422 C3421 1.390 . S
C3422 C3423 1.394 . S
C3422 C3428 1.465 . S
C3423 C3418 1.399 . S
C3423 C3422 1.394 . S
C3423 C3424 1.516 . S
C3424 C3423 1.516 . S
C3424 C3425 1.502 . S
C3424 C3426 1.561 . S
C3424 C3427 1.526 . S
C3425 H3409 0.959 . S
C3425 H3410 0.959 . S
C3425 H3411 0.961 . S
C3425 C3424 1.502 . S
C3426 H3412 0.960 . S
C3426 H3413 0.961 . S
C3426 H3414 0.959 . S
C3426 C3424 1.561 . S
C3427 C3424 1.526 . S
C3427 C3428 1.396 . S
C3427 C3432 1.390 . S
C3428 C3422 1.465 . S
C3428 C3427 1.396 . S
C3428 C3429 1.399 . S
C3429 H3415 0.929 . S
C3429 C3428 1.399 . S
C3429 C3430 1.385 . S
C3430 H3416 0.931 . S
C3430 C3429 1.385 . S
C3430 C3431 1.389 . S
C3431 C3430 1.389 . S
C3431 C3432 1.387 . S
C3432 H3417 0.930 . S
C3432 C3427 1.390 . S
C3432 C3431 1.387 . S
H3433 C3445 0.930 . S
H3434 C3447 0.930 . S
H3435 C3448 0.930 . S
H3436 C3452 0.959 . S
H3437 C3452 0.959 . S
H3438 C3452 0.961 . S
H3439 C3453 0.960 1_556 S
H3440 C3453 0.961 1_556 S
H3441 C3453 0.959 1_556 S
H3442 C3456 0.929 . S
H3443 C3457 0.931 . S
H3444 C3459 0.930 . S
C3445 H3433 0.930 . S
C3445 C3446 1.399 . S
C3445 C3450 1.399 . S
C3446 C3445 1.399 . S
C3446 C3447 1.376 . S
C3447 H3434 0.930 . S
C3447 C3446 1.376 . S
C3447 C3448 1.388 . S
C3448 H3435 0.930 . S
C3448 C3447 1.388 . S
C3448 C3449 1.390 . S
C3449 C3448 1.390 . S
C3449 C3450 1.394 . S
C3449 C3455 1.465 . S
C3450 C3445 1.399 . S
C3450 C3449 1.394 . S
C3450 C3451 1.516 . S
C3451 C3450 1.516 . S
C3451 C3452 1.502 . S
C3451 C3453 1.561 . S
C3451 C3454 1.526 . S
C3452 H3436 0.959 . S
C3452 H3437 0.959 . S
C3452 H3438 0.961 . S
C3452 C3451 1.502 . S
C3453 H3439 0.960 1_554 S
C3453 H3440 0.961 1_554 S
C3453 H3441 0.959 1_554 S
C3453 C3451 1.561 . S
C3454 C3451 1.526 . S
C3454 C3455 1.396 . S
C3454 C3459 1.390 . S
C3455 C3449 1.465 . S
C3455 C3454 1.396 . S
C3455 C3456 1.399 . S
C3456 H3442 0.929 . S
C3456 C3455 1.399 . S
C3456 C3457 1.385 . S
C3457 H3443 0.931 . S
C3457 C3456 1.385 . S
C3457 C3458 1.389 . S
C3458 C3457 1.389 . S
C3458 C3459 1.387 . S
C3459 H3444 0.930 . S
C3459 C3454 1.390 . S
C3459 C3458 1.387 . S
H3460 C3472 0.930 . S
H3461 C3474 0.930 . S
H3462 C3475 0.930 . S
H3463 C3479 0.959 . S
H3464 C3479 0.959 . S
H3465 C3479 0.961 . S
H3466 C3480 0.960 . S
H3467 C3480 0.961 . S
H3468 C3480 0.959 . S
H3469 C3483 0.929 . S
H3470 C3484 0.931 . S
H3471 C3486 0.930 . S
C3472 H3460 0.930 . S
C3472 C3473 1.399 . S
C3472 C3477 1.399 . S
C3473 C3472 1.399 . S
C3473 C3474 1.376 . S
C3474 H3461 0.930 . S
C3474 C3473 1.376 . S
C3474 C3475 1.388 . S
C3475 H3462 0.930 . S
C3475 C3474 1.388 . S
C3475 C3476 1.390 . S
C3476 C3475 1.390 . S
C3476 C3477 1.394 . S
C3476 C3482 1.465 . S
C3477 C3472 1.399 . S
C3477 C3476 1.394 . S
C3477 C3478 1.516 . S
C3478 C3477 1.516 . S
C3478 C3479 1.502 . S
C3478 C3480 1.561 . S
C3478 C3481 1.526 . S
C3479 H3463 0.959 . S
C3479 H3464 0.959 . S
C3479 H3465 0.961 . S
C3479 C3478 1.502 . S
C3480 H3466 0.960 . S
C3480 H3467 0.961 . S
C3480 H3468 0.959 . S
C3480 C3478 1.561 . S
C3481 C3478 1.526 . S
C3481 C3482 1.396 . S
C3481 C3486 1.390 . S
C3482 C3476 1.465 . S
C3482 C3481 1.396 . S
C3482 C3483 1.399 . S
C3483 H3469 0.929 . S
C3483 C3482 1.399 . S
C3483 C3484 1.385 . S
C3484 H3470 0.931 . S
C3484 C3483 1.385 . S
C3484 C3485 1.389 . S
C3485 C3484 1.389 . S
C3485 C3486 1.387 . S
C3486 H3471 0.930 . S
C3486 C3481 1.390 . S
C3486 C3485 1.387 . S
H3487 C3499 0.930 . S
H3488 C3501 0.930 . S
H3489 C3502 0.930 . S
H3490 C3506 0.959 1_554 S
H3491 C3506 0.959 . S
H3492 C3506 0.961 . S
H3493 C3507 0.960 . S
H3494 C3507 0.961 . S
H3495 C3507 0.959 . S
H3496 C3510 0.929 . S
H3497 C3511 0.931 . S
H3498 C3513 0.930 . S
C3499 H3487 0.930 . S
C3499 C3500 1.399 . S
C3499 C3504 1.399 . S
C3500 C3499 1.399 . S
C3500 C3501 1.376 . S
C3501 H3488 0.930 . S
C3501 C3500 1.376 . S
C3501 C3502 1.388 . S
C3502 H3489 0.930 . S
C3502 C3501 1.388 . S
C3502 C3503 1.390 . S
C3503 C3502 1.390 . S
C3503 C3504 1.394 . S
C3503 C3509 1.465 . S
C3504 C3499 1.399 . S
C3504 C3503 1.394 . S
C3504 C3505 1.516 1_554 S
C3505 C3504 1.516 1_556 S
C3505 C3506 1.502 . S
C3505 C3507 1.561 . S
C3505 C3508 1.526 1_556 S
C3506 H3490 0.959 1_556 S
C3506 H3491 0.959 . S
C3506 H3492 0.961 . S
C3506 C3505 1.502 . S
C3507 H3493 0.960 . S
C3507 H3494 0.961 . S
C3507 H3495 0.959 . S
C3507 C3505 1.561 . S
C3508 C3505 1.526 1_554 S
C3508 C3509 1.396 . S
C3508 C3513 1.390 1_554 S
C3509 C3503 1.465 . S
C3509 C3508 1.396 . S
C3509 C3510 1.399 . S
C3510 H3496 0.929 . S
C3510 C3509 1.399 . S
C3510 C3511 1.385 . S
C3511 H3497 0.931 . S
C3511 C3510 1.385 . S
C3511 C3512 1.389 . S
C3512 C3511 1.389 . S
C3512 C3513 1.387 1_554 S
C3513 H3498 0.930 . S
C3513 C3508 1.390 1_556 S
C3513 C3512 1.387 1_556 S
H3514 C3526 0.930 . S
H3515 C3528 0.930 . S
H3516 C3529 0.930 . S
H3517 C3533 0.959 . S
H3518 C3533 0.959 . S
H3519 C3533 0.961 . S
H3520 C3534 0.960 . S
H3521 C3534 0.961 . S
H3522 C3534 0.959 . S
H3523 C3537 0.929 . S
H3524 C3538 0.931 . S
H3525 C3540 0.930 . S
C3526 H3514 0.930 . S
C3526 C3527 1.399 . S
C3526 C3531 1.399 . S
C3527 C3526 1.399 . S
C3527 C3528 1.376 . S
C3528 H3515 0.930 . S
C3528 C3527 1.376 . S
C3528 C3529 1.388 . S
C3529 H3516 0.930 . S
C3529 C3528 1.388 . S
C3529 C3530 1.390 . S
C3530 C3529 1.390 . S
C3530 C3531 1.394 . S
C3530 C3536 1.465 . S
C3531 C3526 1.399 . S
C3531 C3530 1.394 . S
C3531 C3532 1.516 . S
C3532 C3531 1.516 . S
C3532 C3533 1.502 . S
C3532 C3534 1.561 . S
C3532 C3535 1.526 . S
C3533 H3517 0.959 . S
C3533 H3518 0.959 . S
C3533 H3519 0.961 . S
C3533 C3532 1.502 . S
C3534 H3520 0.960 . S
C3534 H3521 0.961 . S
C3534 H3522 0.959 . S
C3534 C3532 1.561 . S
C3535 C3532 1.526 . S
C3535 C3536 1.396 . S
C3535 C3540 1.390 . S
C3536 C3530 1.465 . S
C3536 C3535 1.396 . S
C3536 C3537 1.399 . S
C3537 H3523 0.929 . S
C3537 C3536 1.399 . S
C3537 C3538 1.385 . S
C3538 H3524 0.931 . S
C3538 C3537 1.385 . S
C3538 C3539 1.389 . S
C3539 C3538 1.389 . S
C3539 C3540 1.387 . S
C3540 H3525 0.930 . S
C3540 C3535 1.390 . S
C3540 C3539 1.387 . S
H3541 C3553 0.930 . S
H3542 C3555 0.930 . S
H3543 C3556 0.930 . S
H3544 C3560 0.959 . S
H3545 C3560 0.959 . S
H3546 C3560 0.961 . S
H3547 C3561 0.960 . S
H3548 C3561 0.961 . S
H3549 C3561 0.959 . S
H3550 C3564 0.929 . S
H3551 C3565 0.931 . S
H3552 C3567 0.930 . S
C3553 H3541 0.930 . S
C3553 C3554 1.399 . S
C3553 C3558 1.399 . S
C3554 C3553 1.399 . S
C3554 C3555 1.376 . S
C3555 H3542 0.930 . S
C3555 C3554 1.376 . S
C3555 C3556 1.388 . S
C3556 H3543 0.930 . S
C3556 C3555 1.388 . S
C3556 C3557 1.390 . S
C3557 C3556 1.390 . S
C3557 C3558 1.394 . S
C3557 C3563 1.465 . S
C3558 C3553 1.399 . S
C3558 C3557 1.394 . S
C3558 C3559 1.516 . S
C3559 C3558 1.516 . S
C3559 C3560 1.502 . S
C3559 C3561 1.561 . S
C3559 C3562 1.526 . S
C3560 H3544 0.959 . S
C3560 H3545 0.959 . S
C3560 H3546 0.961 . S
C3560 C3559 1.502 . S
C3561 H3547 0.960 . S
C3561 H3548 0.961 . S
C3561 H3549 0.959 . S
C3561 C3559 1.561 . S
C3562 C3559 1.526 . S
C3562 C3563 1.396 . S
C3562 C3567 1.390 . S
C3563 C3557 1.465 . S
C3563 C3562 1.396 . S
C3563 C3564 1.399 . S
C3564 H3550 0.929 . S
C3564 C3563 1.399 . S
C3564 C3565 1.385 . S
C3565 H3551 0.931 . S
C3565 C3564 1.385 . S
C3565 C3566 1.389 . S
C3566 C3565 1.389 . S
C3566 C3567 1.387 . S
C3567 H3552 0.930 . S
C3567 C3562 1.390 . S
C3567 C3566 1.387 . S
C989 C109 2.142 1_455 S
C1001 C349 2.154 . S
C1016 C65 2.085 . S
C1028 C400 2.058 . S
C1043 C75 1.628 . S
C1055 C429 1.627 . S
C1082 C473 1.438 . S
C1070 C84 1.466 . S
C1097 C25 1.388 . S
C1109 C513 1.288 . S
C1136 C549 1.586 . S
C1124 C28 1.596 . S
C1163 C599 1.877 . S
C1151 C47 1.857 . S
C1178 C9 2.273 . S
C1190 C629 2.280 . S
C1217 C359 1.967 . S
C1205 C233 2.019 . S
C1232 C249 0.674 . S
C1244 C402 0.536 . S
C1271 C439 1.286 . S
C1259 C275 1.268 . S
C1298 C469 1.383 . S
C1286 C173 1.422 . S
C1313 C224 1.516 . S
C1325 C509 1.530 . S
C1352 C559 0.926 . S
C1340 C243 0.935 . S
C1379 C593 0.870 . S
C1367 C266 0.829 . S
C1406 C639 1.837 . S
C1394 C179 1.848 . S
C1433 C353 1.197 . S
C1421 C163 1.227 1_554 S
C1448 C289 1.693 . S
C1460 C679 1.693 . S
C1487 C713 1.432 . S
C1475 C333 1.416 . S
C1514 C749 0.868 . S
C1502 C308 0.828 . S
C1529 C123 1.393 . S
C1541 C633 1.419 . S
C1556 C126 1.557 . S
C1568 C433 1.486 . S
C1583 C327 1.655 . S
C1595 C799 1.658 . S
C1622 C818 0.448 . S
C1610 C299 0.322 . S
C1649 C360 2.141 . S
C1637 C67 2.171 . S
C1676 C829 2.114 . S
C1664 C98 2.048 . S
C1691 C89 1.668 . S
C1703 C440 1.662 . S
C1718 C79 1.553 . S
C1730 C802 1.452 . S
C1757 C522 1.356 . S
C1745 C11 1.381 . S
C1772 C51 1.632 . S
C1784 C720 1.621 . S
C1811 C578 1.927 1_566 S
C1799 C33 1.915 . S
C1838 C880 2.294 . S
C1826 C14 2.320 . S
C1865 C338 1.973 . S
C1853 C140 2.018 . S
C1892 C833 0.600 . S
C1880 C319 0.633 . S
C1907 C112 1.253 . S
C1919 C418 1.292 . S
C1934 C285 1.462 . S
C1946 C800 1.448 . S
C1961 C149 1.545 . S
C1973 C520 1.540 . S
C2000 C698 0.979 . S
C1988 C313 0.978 . S
C2015 C121 0.876 . S
C2027 C602 0.796 . S
C2042 C291 1.901 . S
C2054 C858 1.854 . S
C2069 C182 1.249 . S
C2081 C362 1.122 . S
C2096 C168 1.685 . S
C2108 C658 1.703 . S
C2123 C263 1.414 . S
C2135 C562 1.443 . S
C2150 C247 0.903 . S
C2162 C760 0.880 . S
C2189 C882 1.419 . S
C2177 C277 1.398 . S
C2204 C219 1.583 . S
C2216 C442 1.563 . S
C2243 C458 1.683 . S
C2231 C257 1.684 . S
C2270 C399 0.447 . S
C2258 C201 0.341 . S
C2285 C81 2.165 . S
C2297 C909 2.111 . S
C2324 C840 2.056 . S
C2312 C93 2.084 . S
C2339 C103 1.612 . S
C2351 C949 1.585 . S
C2366 C56 1.442 . S
C2378 C793 1.487 . S
C2393 C53 1.391 . S
C2405 C673 1.293 . S
C2432 C709 1.554 . S
C2420 C0 1.579 . S
C2459 C759 1.869 . S
C2447 C19 1.839 . S
C2486 C869 2.305 . S
C2474 C37 2.303 . S
C2513 C919 2.005 . S
C2501 C261 1.994 . S
C2528 C193 0.670 . S
C2540 C842 0.598 . S
C2567 C959 1.286 . S
C2555 C205 1.267 . S
C2594 C789 1.431 . S
C2582 C215 1.421 . S
C2621 C669 1.519 . S
C2609 C252 1.528 . S
C2636 C187 0.928 . S
C2648 C719 0.913 . S
C2675 C753 0.774 . S
C2663 C196 0.835 . S
C2690 C221 1.869 . S
C2702 C879 1.835 . S
C2729 C913 1.193 . S
C2717 C317 1.234 . S
C2744 C135 1.682 . S
C2756 C519 1.677 . S
C2783 C553 1.407 . S
C2771 C151 1.440 1_565 S
C2810 C589 0.872 . S
C2798 C154 0.822 . S
C2837 C873 1.338 . S
C2825 C305 1.443 . S
C2852 C280 1.564 . S
C2864 C953 1.524 . S
C2891 C479 1.658 . S
C2879 C145 1.655 . S
C2918 C378 0.275 . S
C2906 C117 0.340 . S
C2933 C95 2.194 . S
C2945 C920 2.165 . S
C2972 C389 2.103 . S
C2960 C70 2.025 . S
C2987 C61 1.638 . S
C2999 C960 1.625 . S
C3014 C107 1.539 . S
C3026 C482 1.519 . S
C3041 C39 1.357 . S
C3053 C682 1.361 . S
C3080 C560 1.611 . S
C3068 C23 1.610 . S
C3095 C5 1.912 . S
C3107 C738 1.928 . S
C3122 C42 2.332 . S
C3134 C640 2.270 . S
C3161 C898 1.970 . S
C3149 C322 2.017 . S
C3176 C165 0.627 . S
C3188 C393 0.603 . S
C3215 C938 1.302 . S
C3203 C294 1.272 . S
C3230 C131 1.460 . S
C3242 C480 1.458 . S
C3257 C331 1.570 . S
C3269 C680 1.565 . S
C3296 C538 0.933 . S
C3284 C159 0.942 . S
C3311 C303 0.876 . S
C3323 C762 0.796 . S
C3350 C618 1.894 . S
C3338 C137 1.899 . S
C3377 C922 1.117 . S
C3365 C238 1.251 . S
C3404 C498 1.706 . S
C3392 C210 1.684 . S
C3419 C235 1.470 . S
C3431 C722 1.365 . S
C3458 C600 0.903 . S
C3446 C191 0.894 . S
C3473 C207 1.398 . S
C3485 C642 1.419 . S
C3500 C177 1.608 . S
C3512 C962 1.488 . S
C3539 C778 1.683 . S
C3527 C229 1.685 . S
C3566 C839 0.302 . S
C3554 C271 0.333 . S
