# Generated by pormake.
# Topology ctn, (3,4)-cn, num edge types: 1
# Building blocks:
#     Node 0, Type 0, BuildingBlock: OLANEW_clean_sbu_2, # of connection points: 3
#     Node 1, Type 0, BuildingBlock: OLANEW_clean_sbu_2, # of connection points: 3
#     Node 2, Type 0, BuildingBlock: OLANEW_clean_sbu_2, # of connection points: 3
#     Node 3, Type 0, BuildingBlock: OLANEW_clean_sbu_2, # of connection points: 3
#     Node 4, Type 0, BuildingBlock: OLANEW_clean_sbu_2, # of connection points: 3
#     Node 5, Type 0, BuildingBlock: OLANEW_clean_sbu_2, # of connection points: 3
#     Node 6, Type 0, BuildingBlock: OLANEW_clean_sbu_2, # of connection points: 3
#     Node 7, Type 0, BuildingBlock: OLANEW_clean_sbu_2, # of connection points: 3
#     Node 8, Type 0, BuildingBlock: OLANEW_clean_sbu_2, # of connection points: 3
#     Node 9, Type 0, BuildingBlock: OLANEW_clean_sbu_2, # of connection points: 3
#     Node 10, Type 0, BuildingBlock: OLANEW_clean_sbu_2, # of connection points: 3
#     Node 11, Type 0, BuildingBlock: OLANEW_clean_sbu_2, # of connection points: 3
#     Node 12, Type 0, BuildingBlock: OLANEW_clean_sbu_2, # of connection points: 3
#     Node 13, Type 0, BuildingBlock: OLANEW_clean_sbu_2, # of connection points: 3
#     Node 14, Type 0, BuildingBlock: OLANEW_clean_sbu_2, # of connection points: 3
#     Node 15, Type 0, BuildingBlock: OLANEW_clean_sbu_2, # of connection points: 3
#     Node 16, Type 1, BuildingBlock: UXUYUI_clean_sbu_0, # of connection points: 4
#     Node 17, Type 1, BuildingBlock: UXUYUI_clean_sbu_0, # of connection points: 4
#     Node 18, Type 1, BuildingBlock: UXUYUI_clean_sbu_0, # of connection points: 4
#     Node 19, Type 1, BuildingBlock: UXUYUI_clean_sbu_0, # of connection points: 4
#     Node 20, Type 1, BuildingBlock: UXUYUI_clean_sbu_0, # of connection points: 4
#     Node 21, Type 1, BuildingBlock: UXUYUI_clean_sbu_0, # of connection points: 4
#     Node 22, Type 1, BuildingBlock: UXUYUI_clean_sbu_0, # of connection points: 4
#     Node 23, Type 1, BuildingBlock: UXUYUI_clean_sbu_0, # of connection points: 4
#     Node 24, Type 1, BuildingBlock: UXUYUI_clean_sbu_0, # of connection points: 4
#     Node 25, Type 1, BuildingBlock: UXUYUI_clean_sbu_0, # of connection points: 4
#     Node 26, Type 1, BuildingBlock: UXUYUI_clean_sbu_0, # of connection points: 4
#     Node 27, Type 1, BuildingBlock: UXUYUI_clean_sbu_0, # of connection points: 4
#     Edge 28, Type (0, 1), BuildingBlock: OJICUG_clean_linker_0, # of connection points: 2
#     Edge 29, Type (0, 1), BuildingBlock: OJICUG_clean_linker_0, # of connection points: 2
#     Edge 30, Type (0, 1), BuildingBlock: OJICUG_clean_linker_0, # of connection points: 2
#     Edge 31, Type (0, 1), BuildingBlock: OJICUG_clean_linker_0, # of connection points: 2
#     Edge 32, Type (0, 1), BuildingBlock: OJICUG_clean_linker_0, # of connection points: 2
#     Edge 33, Type (0, 1), BuildingBlock: OJICUG_clean_linker_0, # of connection points: 2
#     Edge 34, Type (0, 1), BuildingBlock: OJICUG_clean_linker_0, # of connection points: 2
#     Edge 35, Type (0, 1), BuildingBlock: OJICUG_clean_linker_0, # of connection points: 2
#     Edge 36, Type (0, 1), BuildingBlock: OJICUG_clean_linker_0, # of connection points: 2
#     Edge 37, Type (0, 1), BuildingBlock: OJICUG_clean_linker_0, # of connection points: 2
#     Edge 38, Type (0, 1), BuildingBlock: OJICUG_clean_linker_0, # of connection points: 2
#     Edge 39, Type (0, 1), BuildingBlock: OJICUG_clean_linker_0, # of connection points: 2
#     Edge 40, Type (0, 1), BuildingBlock: OJICUG_clean_linker_0, # of connection points: 2
#     Edge 41, Type (0, 1), BuildingBlock: OJICUG_clean_linker_0, # of connection points: 2
#     Edge 42, Type (0, 1), BuildingBlock: OJICUG_clean_linker_0, # of connection points: 2
#     Edge 43, Type (0, 1), BuildingBlock: OJICUG_clean_linker_0, # of connection points: 2
#     Edge 44, Type (0, 1), BuildingBlock: OJICUG_clean_linker_0, # of connection points: 2
#     Edge 45, Type (0, 1), BuildingBlock: OJICUG_clean_linker_0, # of connection points: 2
#     Edge 46, Type (0, 1), BuildingBlock: OJICUG_clean_linker_0, # of connection points: 2
#     Edge 47, Type (0, 1), BuildingBlock: OJICUG_clean_linker_0, # of connection points: 2
#     Edge 48, Type (0, 1), BuildingBlock: OJICUG_clean_linker_0, # of connection points: 2
#     Edge 49, Type (0, 1), BuildingBlock: OJICUG_clean_linker_0, # of connection points: 2
#     Edge 50, Type (0, 1), BuildingBlock: OJICUG_clean_linker_0, # of connection points: 2
#     Edge 51, Type (0, 1), BuildingBlock: OJICUG_clean_linker_0, # of connection points: 2
#     Edge 52, Type (0, 1), BuildingBlock: OJICUG_clean_linker_0, # of connection points: 2
#     Edge 53, Type (0, 1), BuildingBlock: OJICUG_clean_linker_0, # of connection points: 2
#     Edge 54, Type (0, 1), BuildingBlock: OJICUG_clean_linker_0, # of connection points: 2
#     Edge 55, Type (0, 1), BuildingBlock: OJICUG_clean_linker_0, # of connection points: 2
#     Edge 56, Type (0, 1), BuildingBlock: OJICUG_clean_linker_0, # of connection points: 2
#     Edge 57, Type (0, 1), BuildingBlock: OJICUG_clean_linker_0, # of connection points: 2
#     Edge 58, Type (0, 1), BuildingBlock: OJICUG_clean_linker_0, # of connection points: 2
#     Edge 59, Type (0, 1), BuildingBlock: OJICUG_clean_linker_0, # of connection points: 2
#     Edge 60, Type (0, 1), BuildingBlock: OJICUG_clean_linker_0, # of connection points: 2
#     Edge 61, Type (0, 1), BuildingBlock: OJICUG_clean_linker_0, # of connection points: 2
#     Edge 62, Type (0, 1), BuildingBlock: OJICUG_clean_linker_0, # of connection points: 2
#     Edge 63, Type (0, 1), BuildingBlock: OJICUG_clean_linker_0, # of connection points: 2
#     Edge 64, Type (0, 1), BuildingBlock: OJICUG_clean_linker_0, # of connection points: 2
#     Edge 65, Type (0, 1), BuildingBlock: OJICUG_clean_linker_0, # of connection points: 2
#     Edge 66, Type (0, 1), BuildingBlock: OJICUG_clean_linker_0, # of connection points: 2
#     Edge 67, Type (0, 1), BuildingBlock: OJICUG_clean_linker_0, # of connection points: 2
#     Edge 68, Type (0, 1), BuildingBlock: OJICUG_clean_linker_0, # of connection points: 2
#     Edge 69, Type (0, 1), BuildingBlock: OJICUG_clean_linker_0, # of connection points: 2
#     Edge 70, Type (0, 1), BuildingBlock: OJICUG_clean_linker_0, # of connection points: 2
#     Edge 71, Type (0, 1), BuildingBlock: OJICUG_clean_linker_0, # of connection points: 2
#     Edge 72, Type (0, 1), BuildingBlock: OJICUG_clean_linker_0, # of connection points: 2
#     Edge 73, Type (0, 1), BuildingBlock: OJICUG_clean_linker_0, # of connection points: 2
#     Edge 74, Type (0, 1), BuildingBlock: OJICUG_clean_linker_0, # of connection points: 2
#     Edge 75, Type (0, 1), BuildingBlock: OJICUG_clean_linker_0, # of connection points: 2
# Relax obj value: 0.053
# Max RMSD: 0.160
# Mean RMSD: 0.097
data_MOF--net-ctn--node1-OLANEW_clean_sbu_2--node2-UXUYUI_clean_sbu_0--edge1-OJICUG_clean_linker_0
_symmetry_space_group_name_H-M    P1
_symmetry_Int_Tables_number       1
_symmetry_cell_setting            triclinic
loop_
_symmetry_equiv_pos_as_xyz
'x, y, z'
_cell_length_a     56.191336
_cell_length_b     57.935498
_cell_length_c     54.774626
_cell_angle_alpha  91.093009
_cell_angle_beta   94.896295
_cell_angle_gamma 95.241841
loop_
_atom_site_label
_atom_site_type_symbol
_atom_site_fract_x
_atom_site_fract_y
_atom_site_fract_z
_atom_type_partial_charge
O0 O 0.03856 0.0542 0.00926 0.0
Cd1 Cd 0.03981 0.02008 0.03504 0.0
O2 O 0.05846 0.07825 0.03695 0.0
Cd3 Cd 0.05585 0.05284 0.06565 0.0
O4 O 0.03633 0.03935 0.09589 0.0
C5 C 0.01367 0.03952 0.09289 0.0
O6 O 0.00399 0.04648 0.07193 0.0
C7 C 0.04825 0.07441 0.01545 0.0
C8 C 0.07934 0.99501 0.02934 0.0
O9 O 0.05997 0.99112 0.01515 0.0
O10 O 0.08011 0.01091 0.04607 0.0
O11 O 0.32235 0.74236 0.24916 0.0
Cd12 Cd 0.28169 0.74027 0.2287 0.0
O13 O 0.32178 0.70439 0.25066 0.0
Cd14 Cd 0.28467 0.69598 0.236 0.0
O15 O 0.25359 0.6713 0.23972 0.0
C16 C 0.25246 0.66323 0.26106 0.0
O17 O 0.26885 0.6711 0.27853 0.0
C18 C 0.33275 0.7244 0.255 0.0
C19 C 0.27779 0.76836 0.18792 0.0
O20 O 0.27549 0.77636 0.20948 0.0
O21 O 0.28215 0.74712 0.18566 0.0
O22 O 0.9863 0.48006 0.09882 0.0
Cd23 Cd 0.96621 0.47671 0.05742 0.0
O24 O 0.99164 0.44296 0.10104 0.0
Cd25 Cd 0.97799 0.43299 0.06355 0.0
O26 O 0.98013 0.4099 0.03207 0.0
C27 C 0.96728 0.39063 0.02996 0.0
O28 O 0.95148 0.38573 0.04589 0.0
C29 C 0.99376 0.46319 0.11083 0.0
C30 C 0.93128 0.50797 0.05191 0.0
O31 O 0.92601 0.48714 0.0585 0.0
O32 O 0.95305 0.51396 0.04773 0.0
O33 O 0.75012 0.82826 0.22041 0.0
Cd34 Cd 0.72502 0.79138 0.21829 0.0
O35 O 0.75812 0.82639 0.26031 0.0
Cd36 Cd 0.73239 0.79661 0.26462 0.0
O37 O 0.70016 0.78156 0.27998 0.0
C38 C 0.68598 0.79618 0.28592 0.0
O39 O 0.69146 0.8182 0.28173 0.0
C40 C 0.76108 0.83666 0.24034 0.0
C41 C 0.73622 0.76197 0.18085 0.0
O42 O 0.71987 0.77586 0.17714 0.0
O43 O 0.74733 0.76201 0.20229 0.0
O44 O 0.09699 0.98354 0.49353 0.0
Cd45 Cd 0.06216 0.95565 0.48202 0.0
O46 O 0.07502 0.01175 0.50185 0.0
Cd47 Cd 0.04137 0.99131 0.49041 0.0
O48 O 0.01269 0.9836 0.46138 0.0
C49 C 0.01944 0.98085 0.44004 0.0
O50 O 0.04252 0.98124 0.43751 0.0
C51 C 0.09551 0.00441 0.50043 0.0
C52 C 0.05061 0.92445 0.51833 0.0
O53 O 0.06588 0.92019 0.50313 0.0
O54 O 0.04103 0.94368 0.5166 0.0
O55 O 0.30627 0.76712 0.84439 0.0
Cd56 Cd 0.32369 0.7535 0.80786 0.0
O57 O 0.27232 0.76689 0.82164 0.0
Cd58 Cd 0.23424 0.77094 0.81311 0.0
O59 O 0.19771 0.7686 0.79557 0.0
C60 C 0.18565 0.78609 0.79373 0.0
O61 O 0.19516 0.80616 0.80328 0.0
C62 C 0.28444 0.77145 0.84212 0.0
C63 C 0.33073 0.7065 0.80534 0.0
O64 O 0.34674 0.72135 0.81607 0.0
O65 O 0.31105 0.7138 0.79636 0.0
O66 O 0.99695 0.53034 0.47094 0.0
Cd67 Cd 0.97324 0.5438 0.50291 0.0
O68 O 0.03154 0.54378 0.49018 0.0
Cd69 Cd 0.01539 0.56057 0.51981 0.0
O70 O 0.00706 0.58726 0.54557 0.0
C71 C 0.999 0.60549 0.53692 0.0
O72 O 0.99503 0.60701 0.51304 0.0
C73 C 0.01974 0.53295 0.47197 0.0
C74 C 0.93149 0.51434 0.50589 0.0
O75 O 0.93177 0.53165 0.49165 0.0
O76 O 0.95093 0.51105 0.51882 0.0
O77 O 0.78674 0.75155 0.82933 0.0
Cd78 Cd 0.78516 0.77704 0.79414 0.0
O79 O 0.75107 0.75946 0.83894 0.0
Cd80 Cd 0.74532 0.78602 0.81194 0.0
O81 O 0.72949 0.81757 0.80061 0.0
C82 C 0.73241 0.83445 0.81605 0.0
O83 O 0.74559 0.83226 0.83673 0.0
C84 C 0.7695 0.74841 0.84288 0.0
C85 C 0.82636 0.77819 0.76885 0.0
O86 O 0.82427 0.7935 0.78555 0.0
O87 O 0.80903 0.76233 0.76421 0.0
O88 O 0.29287 0.27923 0.34095 0.0
Cd89 Cd 0.29132 0.30781 0.30856 0.0
O90 O 0.26328 0.256 0.3226 0.0
Cd91 Cd 0.25323 0.283 0.29752 0.0
O92 O 0.23645 0.31491 0.28952 0.0
C93 C 0.23637 0.32901 0.30759 0.0
O94 O 0.24681 0.32382 0.32891 0.0
C95 C 0.27974 0.26007 0.33998 0.0
C96 C 0.32845 0.30448 0.27824 0.0
O97 O 0.33068 0.31902 0.29641 0.0
O98 O 0.30861 0.29164 0.27433 0.0
O99 O 0.47938 0.98142 0.59786 0.0
Cd100 Cd 0.45509 0.97497 0.55875 0.0
O101 O 0.48935 0.94555 0.59839 0.0
Cd102 Cd 0.47325 0.93407 0.56208 0.0
O103 O 0.47293 0.90866 0.5321 0.0
C104 C 0.47954 0.88908 0.53849 0.0
O105 O 0.48494 0.88569 0.56189 0.0
C106 C 0.49005 0.96551 0.6086 0.0
C107 C 0.4223 0.00818 0.55205 0.0
O108 O 0.41756 0.98997 0.56433 0.0
O109 O 0.44254 0.01068 0.54279 0.0
O110 O 0.24425 0.34042 0.70895 0.0
Cd111 Cd 0.21525 0.30656 0.70055 0.0
O112 O 0.23724 0.34284 0.74777 0.0
Cd113 Cd 0.20962 0.31389 0.74664 0.0
O114 O 0.17921 0.29561 0.7623 0.0
C115 C 0.18146 0.29333 0.78538 0.0
O116 O 0.20193 0.30082 0.79762 0.0
C117 C 0.24843 0.35043 0.72993 0.0
C118 C 0.23059 0.27574 0.6668 0.0
O119 O 0.2196 0.29321 0.65976 0.0
O120 O 0.23436 0.27279 0.68989 0.0
O121 O 0.82677 0.23375 0.74336 0.0
Cd122 Cd 0.7876 0.2297 0.71963 0.0
O123 O 0.82762 0.19587 0.74382 0.0
Cd124 Cd 0.79106 0.18706 0.72771 0.0
O125 O 0.75869 0.16462 0.7328 0.0
C126 C 0.75905 0.15554 0.75376 0.0
O127 O 0.77772 0.16099 0.76961 0.0
C128 C 0.83763 0.21609 0.74932 0.0
C129 C 0.78363 0.26071 0.68143 0.0
O130 O 0.77667 0.26546 0.70249 0.0
O131 O 0.79272 0.24144 0.67855 0.0
O132 O 0.5508 0.55884 0.50694 0.0
Cd133 Cd 0.55271 0.52435 0.53204 0.0
O134 O 0.5134 0.56159 0.51489 0.0
Cd135 Cd 0.51228 0.53628 0.54384 0.0
O136 O 0.50113 0.52634 0.5797 0.0
C137 C 0.49798 0.54313 0.594 0.0
O138 O 0.50239 0.56441 0.58659 0.0
C139 C 0.53142 0.56856 0.50352 0.0
C140 C 0.59184 0.49903 0.52563 0.0
O141 O 0.57296 0.49651 0.51061 0.0
O142 O 0.59241 0.51378 0.54347 0.0
O143 O 0.60038 0.47267 0.98981 0.0
Cd144 Cd 0.5649 0.44565 0.97774 0.0
O145 O 0.58072 0.4973 0.00936 0.0
Cd146 Cd 0.5463 0.47995 0.99487 0.0
O147 O 0.5173 0.47603 0.96564 0.0
C148 C 0.50759 0.49441 0.96011 0.0
O149 O 0.51453 0.51351 0.97312 0.0
C150 C 0.6004 0.49112 0.00279 0.0
C151 C 0.55156 0.4158 0.01477 0.0
O152 O 0.56706 0.41062 0.00019 0.0
O153 O 0.54253 0.4352 0.01201 0.0
O154 O 0.80317 0.26187 0.33146 0.0
Cd155 Cd 0.81209 0.24504 0.29226 0.0
O156 O 0.76534 0.25693 0.31784 0.0
Cd157 Cd 0.72693 0.26111 0.3152 0.0
O158 O 0.68952 0.26064 0.30057 0.0
C159 C 0.67993 0.27934 0.29631 0.0
O160 O 0.69253 0.29927 0.30186 0.0
C161 C 0.78141 0.26455 0.33453 0.0
C162 C 0.82455 0.19951 0.29243 0.0
O163 O 0.84045 0.21668 0.29717 0.0
O164 O 0.80262 0.20383 0.28831 0.0
O165 O 0.48323 0.04266 0.95863 0.0
Cd166 Cd 0.45866 0.05741 0.98921 0.0
O167 O 0.51699 0.05076 0.98186 0.0
Cd168 Cd 0.50083 0.06779 0.01131 0.0
O169 O 0.49844 0.0948 0.03904 0.0
C170 C 0.47916 0.10358 0.04295 0.0
O171 O 0.45901 0.09562 0.03041 0.0
C172 C 0.50589 0.04248 0.96196 0.0
C173 C 0.41856 0.02673 0.99571 0.0
O174 O 0.41783 0.04213 0.97924 0.0
O175 O 0.43827 0.02586 0.00915 0.0
Li176 Li 0.271 0.9056 0.01103 0.0
Li177 Li 0.253 0.87217 0.03473 0.0
Li178 Li 0.24778 0.87242 0.99002 0.0
Li179 Li 0.22666 0.89816 0.01344 0.0
C180 C 0.29105 0.85848 0.99926 0.0
N181 N 0.31472 0.82858 0.97221 0.0
C182 C 0.29073 0.83512 0.0052 0.0
C183 C 0.30357 0.86672 0.97973 0.0
C184 C 0.30279 0.82026 0.99126 0.0
C185 C 0.31537 0.8513 0.96623 0.0
C186 C 0.25486 0.91467 0.06353 0.0
C187 C 0.23861 0.92252 0.10185 0.0
N188 N 0.26072 0.93157 0.11137 0.0
C189 C 0.27736 0.92432 0.07357 0.0
C190 C 0.23526 0.91399 0.07765 0.0
C191 C 0.27998 0.93266 0.09784 0.0
C192 C 0.29327 0.9503 0.00386 0.0
N193 N 0.29729 0.92835 0.0102 0.0
C194 C 0.33967 0.93828 0.0139 0.0
C195 C 0.31986 0.92212 0.01538 0.0
C196 C 0.33619 0.9611 0.0071 0.0
C197 C 0.31256 0.96706 0.00222 0.0
H198 H 0.27507 0.95472 -0.0001 0.0
H199 H 0.32248 0.9045 0.02037 0.0
C200 C 0.24677 0.83178 0.06247 0.0
N201 N 0.25826 0.85349 0.06271 0.0
C202 C 0.25009 0.81757 0.08257 0.0
C203 C 0.27744 0.84811 0.10261 0.0
C204 C 0.2737 0.86166 0.08205 0.0
C205 C 0.26548 0.82576 0.10308 0.0
H206 H 0.23502 0.82546 0.04663 0.0
H207 H 0.28332 0.87859 0.08148 0.0
C208 C 0.22862 0.90969 0.96493 0.0
N209 N 0.19561 0.91779 0.92645 0.0
C210 C 0.20882 0.89362 0.95876 0.0
C211 C 0.23163 0.92988 0.95155 0.0
C212 C 0.19233 0.89802 0.93924 0.0
C213 C 0.21475 0.93366 0.93214 0.0
C214 C 0.20224 0.8544 0.0203 0.0
C215 C 0.18575 0.84117 0.00391 0.0
C216 C 0.19677 0.85828 0.04435 0.0
C217 C 0.16387 0.83223 0.01183 0.0
C218 C 0.1747 0.84903 0.05157 0.0
N219 N 0.15884 0.83633 0.03529 0.0
C220 C 0.24304 0.82953 0.96362 0.0
C221 C 0.25362 0.86231 0.94018 0.0
C222 C 0.24611 0.8146 0.94403 0.0
N223 N 0.24728 0.85286 0.96149 0.0
C224 C 0.25646 0.84805 0.92002 0.0
C225 C 0.25318 0.82387 0.92198 0.0
H226 H 0.23829 0.82252 0.98091 0.0
H227 H 0.25743 0.88088 0.93916 0.0
C228 C 0.20273 0.93649 0.02487 0.0
N229 N 0.19876 0.91442 0.01561 0.0
C230 C 0.1836 0.94995 0.02707 0.0
C231 C 0.15654 0.91779 0.00997 0.0
C232 C 0.17624 0.905 0.00795 0.0
C233 C 0.16004 0.94063 0.01969 0.0
H234 H 0.22087 0.9437 0.03044 0.0
H235 H 0.17349 0.88761 0.00016 0.0
O236 O 0.2787 0.87312 0.01214 0.0
O237 O 0.25199 0.9065 0.03978 0.0
O238 O 0.24487 0.90593 0.98415 0.0
O239 O 0.22362 0.86344 0.01271 0.0
H240 H 0.28103 0.82849 0.02022 0.0
H241 H 0.30382 0.88474 0.97482 0.0
H242 H 0.30257 0.80209 0.99552 0.0
H243 H 0.32495 0.85737 0.95092 0.0
H244 H 0.22362 0.92203 0.11303 0.0
H245 H 0.29268 0.92515 0.0628 0.0
H246 H 0.2176 0.90714 0.06999 0.0
H247 H 0.29733 0.94 0.10592 0.0
H248 H 0.35751 0.93278 0.0175 0.0
H249 H 0.30899 0.98449 0.99727 0.0
H250 H 0.24046 0.80048 0.08218 0.0
H251 H 0.28985 0.85491 0.11781 0.0
H252 H 0.20617 0.87792 0.96892 0.0
H253 H 0.24685 0.94251 0.95616 0.0
H254 H 0.17692 0.88574 0.93428 0.0
H255 H 0.21686 0.94921 0.92163 0.0
H256 H 0.18979 0.83795 0.98524 0.0
H257 H 0.20947 0.86819 0.05731 0.0
H258 H 0.15089 0.82205 0.99933 0.0
H259 H 0.17021 0.85192 0.07013 0.0
H260 H 0.24343 0.79603 0.94621 0.0
H261 H 0.2623 0.85584 0.90345 0.0
H262 H 0.18733 0.96759 0.03418 0.0
H263 H 0.13875 0.90974 0.0042 0.0
Li264 Li 0.11027 0.4958 0.31926 0.0
Li265 Li 0.13629 0.4731 0.29656 0.0
Li266 Li 0.13737 0.51646 0.29184 0.0
Li267 Li 0.10401 0.48993 0.27362 0.0
C268 C 0.15709 0.50605 0.3438 0.0
N269 N 0.17964 0.5214 0.3888 0.0
C270 C 0.16776 0.4905 0.35955 0.0
C271 C 0.15834 0.5295 0.35078 0.0
C272 C 0.17894 0.49857 0.38227 0.0
C273 C 0.1697 0.5369 0.37363 0.0
C274 C 0.09866 0.44366 0.30493 0.0
C275 C 0.09756 0.40338 0.29254 0.0
N276 N 0.09455 0.39721 0.31599 0.0
C277 C 0.09536 0.43693 0.32886 0.0
C278 C 0.09957 0.42676 0.28656 0.0
C279 C 0.09337 0.41335 0.3341 0.0
C280 C 0.07189 0.50648 0.34519 0.0
N281 N 0.09405 0.49876 0.34818 0.0
C282 C 0.09191 0.49719 0.39152 0.0
C283 C 0.10399 0.49365 0.3707 0.0
C284 C 0.06931 0.5059 0.38908 0.0
C285 C 0.0592 0.5103 0.36547 0.0
H286 H 0.06427 0.51011 0.32702 0.0
H287 H 0.12125 0.48682 0.37258 0.0
C288 C 0.16796 0.44245 0.2791 0.0
N289 N 0.15536 0.44744 0.29834 0.0
C290 C 0.18176 0.42355 0.27982 0.0
C291 C 0.16959 0.41544 0.32028 0.0
C292 C 0.15605 0.43447 0.31876 0.0
C293 C 0.1827 0.40974 0.30063 0.0
H294 H 0.1674 0.45321 0.2632 0.0
H295 H 0.14595 0.43881 0.33385 0.0
C296 C 0.09612 0.54045 0.2973 0.0
N297 N 0.083 0.5847 0.30491 0.0
C298 C 0.08355 0.5515 0.27849 0.0
C299 C 0.1016 0.55177 0.32012 0.0
C300 C 0.0772 0.57392 0.28264 0.0
C301 C 0.09492 0.57415 0.32358 0.0
C302 C 0.13689 0.48956 0.24154 0.0
C303 C 0.14289 0.50887 0.22761 0.0
C304 C 0.12918 0.46825 0.22974 0.0
C305 C 0.14068 0.50661 0.20206 0.0
C306 C 0.12716 0.46671 0.20415 0.0
N307 N 0.13288 0.48576 0.19096 0.0
C308 C 0.18011 0.54628 0.29689 0.0
C309 C 0.14813 0.56105 0.27287 0.0
C310 C 0.19517 0.56622 0.29332 0.0
N311 N 0.15701 0.54419 0.28692 0.0
C312 C 0.16257 0.58126 0.26874 0.0
C313 C 0.18644 0.58406 0.27908 0.0
H314 H 0.1869 0.53235 0.30749 0.0
H315 H 0.12995 0.55866 0.26448 0.0
C316 C 0.06481 0.46684 0.24421 0.0
N317 N 0.08074 0.48602 0.2463 0.0
C318 C 0.04859 0.46316 0.22344 0.0
C319 C 0.06514 0.49933 0.20771 0.0
C320 C 0.08093 0.50234 0.22881 0.0
C321 C 0.04884 0.47939 0.20467 0.0
H322 H 0.06487 0.45428 0.25855 0.0
H323 H 0.09379 0.51745 0.231 0.0
O324 O 0.14609 0.4984 0.32146 0.0
O325 O 0.1009 0.46667 0.29951 0.0
O326 O 0.10245 0.51847 0.29349 0.0
O327 O 0.13856 0.49154 0.26657 0.0
H328 H 0.16731 0.47237 0.35439 0.0
H329 H 0.15096 0.54195 0.33857 0.0
H330 H 0.18709 0.48667 0.3947 0.0
H331 H 0.17072 0.55499 0.37925 0.0
H332 H 0.09841 0.39013 0.27853 0.0
H333 H 0.0945 0.44975 0.34328 0.0
H334 H 0.10197 0.43165 0.26792 0.0
H335 H 0.09095 0.4079 0.35257 0.0
H336 H 0.10017 0.49312 0.40931 0.0
H337 H 0.04194 0.51722 0.3627 0.0
H338 H 0.19184 0.42 0.26441 0.0
H339 H 0.16952 0.40512 0.33656 0.0
H340 H 0.07882 0.54293 0.26082 0.0
H341 H 0.11057 0.54326 0.33515 0.0
H342 H 0.06763 0.58272 0.26818 0.0
H343 H 0.0991 0.5831 0.34115 0.0
H344 H 0.14907 0.52544 0.23642 0.0
H345 H 0.1246 0.45312 0.24022 0.0
H346 H 0.14513 0.52144 0.19105 0.0
H347 H 0.12101 0.45037 0.19479 0.0
H348 H 0.2136 0.56744 0.3012 0.0
H349 H 0.1551 0.59458 0.25766 0.0
H350 H 0.03609 0.44773 0.22204 0.0
H351 H 0.06622 0.51213 0.1936 0.0
Li352 Li 0.74968 0.6138 0.01803 0.0
Li353 Li 0.77053 0.64728 0.04088 0.0
Li354 Li 0.77437 0.64337 0.99633 0.0
Li355 Li 0.79488 0.61905 0.02595 0.0
C356 C 0.72516 0.65088 0.99824 0.0
N357 N 0.68567 0.6589 0.967 0.0
C358 C 0.70884 0.66593 0.00549 0.0
C359 C 0.72151 0.64011 0.97502 0.0
C360 C 0.68894 0.66969 0.98947 0.0
C361 C 0.70143 0.64434 0.95951 0.0
C362 C 0.76598 0.61586 0.07361 0.0
C363 C 0.78033 0.62472 0.11578 0.0
N364 N 0.75744 0.62126 0.1222 0.0
C365 C 0.74262 0.61225 0.08061 0.0
C366 C 0.78503 0.62201 0.09131 0.0
C367 C 0.73867 0.61511 0.10528 0.0
C368 C 0.72694 0.56871 0.01555 0.0
N369 N 0.72265 0.59141 0.01631 0.0
C370 C 0.68051 0.58103 0.01611 0.0
C371 C 0.70003 0.59782 0.01689 0.0
C372 C 0.68429 0.55737 0.01509 0.0
C373 C 0.70794 0.55132 0.01489 0.0
H374 H 0.74518 0.56415 0.01552 0.0
H375 H 0.6971 0.61595 0.01811 0.0
C376 C 0.78486 0.68156 0.07901 0.0
N377 N 0.76613 0.66855 0.06665 0.0
C378 C 0.78078 0.69696 0.09785 0.0
C379 C 0.73828 0.68534 0.09066 0.0
C380 C 0.74319 0.6701 0.07212 0.0
C381 C 0.7572 0.69907 0.10376 0.0
H382 H 0.80291 0.68004 0.07422 0.0
H383 H 0.7287 0.65933 0.06214 0.0
C384 C 0.77511 0.59698 0.97374 0.0
N385 N 0.77618 0.57172 0.93054 0.0
C386 C 0.79697 0.59407 0.96421 0.0
C387 C 0.75381 0.58675 0.96141 0.0
C388 C 0.79714 0.58133 0.94231 0.0
C389 C 0.75472 0.57414 0.93957 0.0
C390 C 0.82389 0.65803 0.02398 0.0
C391 C 0.83484 0.66437 0.00283 0.0
C392 C 0.83796 0.65632 0.04607 0.0
C393 C 0.8598 0.66871 0.00409 0.0
C394 C 0.86285 0.66075 0.04656 0.0
N395 N 0.87317 0.6668 0.02573 0.0
C396 C 0.7687 0.68244 0.96902 0.0
C397 C 0.78289 0.6525 0.94573 0.0
C398 C 0.76803 0.69668 0.94879 0.0
N399 N 0.77576 0.66071 0.9671 0.0
C400 C 0.78265 0.66625 0.92501 0.0
C401 C 0.77489 0.68857 0.92634 0.0
H402 H 0.76335 0.68861 0.9863 0.0
H403 H 0.78862 0.6353 0.9446 0.0
C404 C 0.82065 0.58589 0.05047 0.0
N405 N 0.82199 0.60173 0.03254 0.0
C406 C 0.83884 0.57125 0.05499 0.0
C407 C 0.85968 0.58962 0.02267 0.0
C408 C 0.84113 0.60398 0.01886 0.0
C409 C 0.85856 0.57275 0.04075 0.0
H410 H 0.80518 0.5843 0.06098 0.0
H411 H 0.8418 0.61655 0.00459 0.0
O412 O 0.74478 0.6471 0.01371 0.0
O413 O 0.77012 0.61384 0.04946 0.0
O414 O 0.77462 0.60908 0.99541 0.0
O415 O 0.7995 0.65375 0.02311 0.0
H416 H 0.71149 0.67462 0.0233 0.0
H417 H 0.73421 0.62887 0.96893 0.0
H418 H 0.67612 0.68123 0.99487 0.0
H419 H 0.69843 0.63611 0.94147 0.0
H420 H 0.79487 0.62964 0.12967 0.0
H421 H 0.72768 0.60757 0.0671 0.0
H422 H 0.80321 0.62489 0.08615 0.0
H423 H 0.72067 0.61252 0.11095 0.0
H424 H 0.66261 0.58658 0.01601 0.0
H425 H 0.7118 0.53335 0.01451 0.0
H426 H 0.79584 0.70738 0.10739 0.0
H427 H 0.71989 0.68616 0.09488 0.0
H428 H 0.8136 0.60188 0.97333 0.0
H429 H 0.73671 0.58844 0.96859 0.0
H430 H 0.81393 0.57913 0.93466 0.0
H431 H 0.73836 0.56622 0.92983 0.0
H432 H 0.82422 0.66585 0.98561 0.0
H433 H 0.82977 0.65134 0.06258 0.0
H434 H 0.86854 0.67356 0.98785 0.0
H435 H 0.87398 0.65934 0.06348 0.0
H436 H 0.76229 0.71391 0.95073 0.0
H437 H 0.78797 0.6593 0.90802 0.0
H438 H 0.83736 0.55878 0.06938 0.0
H439 H 0.87433 0.59126 0.01102 0.0
Li440 Li 0.88115 0.03441 0.26541 0.0
Li441 Li 0.90603 0.00563 0.28393 0.0
Li442 Li 0.90595 0.01429 0.23873 0.0
Li443 Li 0.87231 0.99144 0.25499 0.0
C444 C 0.92664 0.05709 0.27212 0.0
N445 N 0.94607 0.10237 0.28085 0.0
C446 C 0.93731 0.06418 0.29537 0.0
C447 C 0.92631 0.07292 0.2532 0.0
C448 C 0.94691 0.08717 0.29945 0.0
C449 C 0.9361 0.09576 0.258 0.0
C450 C 0.86699 0.004 0.31064 0.0
C451 C 0.86383 0.97744 0.34387 0.0
N452 N 0.85882 0.99507 0.35878 0.0
C453 C 0.86149 0.02177 0.32622 0.0
C454 C 0.86788 0.98159 0.31946 0.0
C455 C 0.85753 0.01694 0.35051 0.0
C456 C 0.85178 0.07131 0.25554 0.0
N457 N 0.86863 0.0633 0.27169 0.0
C458 C 0.86982 0.09757 0.29695 0.0
C459 C 0.87742 0.07578 0.29229 0.0
C460 C 0.85285 0.10658 0.28033 0.0
C461 C 0.84359 0.09303 0.25951 0.0
H462 H 0.84486 0.06095 0.23943 0.0
H463 H 0.89038 0.06881 0.30514 0.0
C464 C 0.94025 0.98159 0.31137 0.0
N465 N 0.92522 0.99859 0.31261 0.0
C466 C 0.95472 0.97623 0.33209 0.0
C467 C 0.93806 0.00606 0.35495 0.0
C468 C 0.92395 0.01085 0.33379 0.0
C469 C 0.95379 0.9886 0.35425 0.0
H470 H 0.94119 0.97234 0.29421 0.0
H471 H 0.91226 0.02464 0.33416 0.0
C472 C 0.86602 0.02394 0.20905 0.0
N473 N 0.85641 0.03488 0.16052 0.0
C474 C 0.85346 0.00758 0.1925 0.0
C475 C 0.87327 0.04601 0.201 0.0
C476 C 0.84888 0.0134 0.16802 0.0
C477 C 0.86837 0.05117 0.17637 0.0
C478 C 0.9064 0.96093 0.25008 0.0
C479 C 0.91184 0.9534 0.22699 0.0
C480 C 0.90122 0.94462 0.26781 0.0
C481 C 0.91145 0.92965 0.22183 0.0
C482 C 0.90098 0.92102 0.26194 0.0
N483 N 0.90602 0.91408 0.23925 0.0
C484 C 0.94742 0.02941 0.21573 0.0
C485 C 0.91739 0.00772 0.18956 0.0
C486 C 0.96224 0.0322 0.19659 0.0
N487 N 0.92535 0.01755 0.21184 0.0
C488 C 0.9316 0.01008 0.1699 0.0
C489 C 0.95433 0.02255 0.17325 0.0
H490 H 0.95353 0.0367 0.23372 0.0
H491 H 0.90014 0.99773 0.18709 0.0
C492 C 0.83208 0.96151 0.26482 0.0
N493 N 0.84861 0.9659 0.24839 0.0
C494 C 0.81672 0.94112 0.2627 0.0
C495 C 0.83469 0.93075 0.22596 0.0
C496 C 0.84971 0.95137 0.2288 0.0
C497 C 0.81834 0.92514 0.24342 0.0
H498 H 0.83123 0.97354 0.27995 0.0
H499 H 0.8628 0.95539 0.21581 0.0
O500 O 0.91684 0.03471 0.26789 0.0
O501 O 0.87117 0.00848 0.28683 0.0
O502 O 0.87083 0.01845 0.23306 0.0
O503 O 0.90641 0.98414 0.25535 0.0
H504 H 0.93803 0.05213 0.31016 0.0
H505 H 0.91872 0.06762 0.23498 0.0
H506 H 0.95503 0.09293 0.31741 0.0
H507 H 0.93583 0.10822 0.24354 0.0
H508 H 0.86461 0.96019 0.35094 0.0
H509 H 0.86022 0.03911 0.31965 0.0
H510 H 0.87157 0.96753 0.30759 0.0
H511 H 0.85339 0.03058 0.36278 0.0
H512 H 0.87711 0.10722 0.31345 0.0
H513 H 0.83059 0.09936 0.24614 0.0
H514 H 0.96654 0.96259 0.33076 0.0
H515 H 0.93714 0.01638 0.37148 0.0
H516 H 0.84735 0.99055 0.19846 0.0
H517 H 0.88244 0.05907 0.21363 0.0
H518 H 0.83932 0.00084 0.155 0.0
H519 H 0.874 0.06815 0.16989 0.0
H520 H 0.9162 0.96571 0.21314 0.0
H521 H 0.89752 0.95008 0.28592 0.0
H522 H 0.91545 0.92359 0.20396 0.0
H523 H 0.89684 0.90823 0.27546 0.0
H524 H 0.97955 0.0421 0.19997 0.0
H525 H 0.92497 0.00197 0.15236 0.0
H526 H 0.80398 0.93771 0.27625 0.0
H527 H 0.83657 0.91892 0.21085 0.0
Li528 Li 0.26815 0.15476 0.53397 0.0
Li529 Li 0.24804 0.12355 0.51043 0.0
Li530 Li 0.29154 0.12428 0.52055 0.0
Li531 Li 0.27294 0.1526 0.48997 0.0
C532 C 0.26231 0.12141 0.56675 0.0
N533 N 0.25503 0.12123 0.61596 0.0
C534 C 0.23981 0.12509 0.57432 0.0
C535 C 0.28104 0.11734 0.58412 0.0
C536 C 0.23651 0.12504 0.59931 0.0
C537 C 0.27701 0.11738 0.60895 0.0
C538 C 0.22068 0.15883 0.49793 0.0
C539 C 0.19066 0.1648 0.46506 0.0
N540 N 0.17353 0.1631 0.4812 0.0
C541 C 0.20281 0.15736 0.51424 0.0
C542 C 0.21461 0.16274 0.47316 0.0
C543 C 0.17906 0.15946 0.5054 0.0
C544 C 0.24869 0.19275 0.5539 0.0
N545 N 0.26473 0.17708 0.55958 0.0
C546 C 0.27329 0.194 0.59995 0.0
C547 C 0.27718 0.17756 0.58204 0.0
C548 C 0.25637 0.21008 0.59472 0.0
C549 C 0.24406 0.20928 0.57125 0.0
H550 H 0.2393 0.1924 0.53585 0.0
H551 H 0.29017 0.16526 0.58612 0.0
C552 C 0.21993 0.08419 0.52372 0.0
N553 N 0.22002 0.10164 0.50742 0.0
C554 C 0.20021 0.06767 0.52359 0.0
C555 C 0.18109 0.08705 0.48962 0.0
C556 C 0.20134 0.10297 0.49015 0.0
C557 C 0.18033 0.06924 0.50663 0.0
H558 H 0.2352 0.08311 0.5369 0.0
H559 H 0.20208 0.11628 0.47669 0.0
C560 C 0.31203 0.17447 0.53335 0.0
N561 N 0.33737 0.20693 0.56556 0.0
C562 C 0.31026 0.19811 0.52991 0.0
C563 C 0.32674 0.16733 0.55312 0.0
C564 C 0.32318 0.21425 0.54643 0.0
C565 C 0.33942 0.18401 0.56919 0.0
C566 C 0.2606 0.10109 0.47283 0.0
C567 C 0.26186 0.07786 0.47876 0.0
C568 C 0.24577 0.10674 0.45244 0.0
C569 C 0.24812 0.06061 0.46422 0.0
C570 C 0.23235 0.08899 0.43833 0.0
N571 N 0.23377 0.06649 0.44449 0.0
C572 C 0.31049 0.08371 0.53554 0.0
C573 C 0.33992 0.11239 0.52397 0.0
C574 C 0.32778 0.06818 0.54016 0.0
N575 N 0.31678 0.10524 0.52749 0.0
C576 C 0.35791 0.09751 0.5287 0.0
C577 C 0.35194 0.07495 0.53678 0.0
H578 H 0.29189 0.07852 0.53808 0.0
H579 H 0.34437 0.12963 0.51747 0.0
C580 C 0.27375 0.19322 0.4637 0.0
N581 N 0.27745 0.17044 0.46176 0.0
C582 C 0.27613 0.20755 0.44373 0.0
C583 C 0.28577 0.17463 0.4199 0.0
C584 C 0.28355 0.16096 0.44053 0.0
C585 C 0.28207 0.19825 0.42143 0.0
H586 H 0.26853 0.20015 0.48071 0.0
H587 H 0.28646 0.14278 0.43954 0.0
O588 O 0.2659 0.12145 0.54239 0.0
O589 O 0.24407 0.15709 0.50629 0.0
O590 O 0.2992 0.15837 0.51764 0.0
O591 O 0.27335 0.11826 0.48724 0.0
H592 H 0.22508 0.12798 0.56104 0.0
H593 H 0.29854 0.11439 0.57851 0.0
H594 H 0.21923 0.12799 0.60546 0.0
H595 H 0.29136 0.1144 0.62264 0.0
H596 H 0.18569 0.16769 0.44592 0.0
H597 H 0.20723 0.15462 0.5335 0.0
H598 H 0.22817 0.16396 0.46026 0.0
H599 H 0.16503 0.15825 0.51779 0.0
H600 H 0.28356 0.19418 0.61761 0.0
H601 H 0.23062 0.22102 0.56636 0.0
H602 H 0.2003 0.0541 0.53693 0.0
H603 H 0.16628 0.0885 0.47589 0.0
H604 H 0.2989 0.20393 0.51478 0.0
H605 H 0.32805 0.1491 0.55626 0.0
H606 H 0.32189 0.23261 0.54407 0.0
H607 H 0.35077 0.17873 0.58465 0.0
H608 H 0.27316 0.07321 0.49454 0.0
H609 H 0.24434 0.12465 0.44778 0.0
H610 H 0.24882 0.04256 0.46867 0.0
H611 H 0.22069 0.09311 0.42259 0.0
H612 H 0.32212 0.0509 0.54586 0.0
H613 H 0.37628 0.10369 0.52616 0.0
H614 H 0.27276 0.22559 0.44551 0.0
H615 H 0.29043 0.16687 0.40302 0.0
Li616 Li 0.40332 0.51159 0.79551 0.0
Li617 Li 0.37904 0.53933 0.7745 0.0
Li618 Li 0.37104 0.49659 0.76414 0.0
Li619 Li 0.4056 0.51974 0.75046 0.0
C620 C 0.35777 0.50463 0.81549 0.0
N621 N 0.33662 0.48646 0.85558 0.0
C622 C 0.34821 0.51921 0.83198 0.0
C623 C 0.35615 0.48076 0.81918 0.0
C624 C 0.33772 0.50972 0.85221 0.0
C625 C 0.34549 0.47192 0.83959 0.0
C626 C 0.42139 0.56328 0.78647 0.0
C627 C 0.42645 0.60379 0.77677 0.0
N628 N 0.43332 0.60919 0.80076 0.0
C629 C 0.42876 0.56922 0.81098 0.0
C630 C 0.42048 0.58068 0.76917 0.0
C631 C 0.43464 0.59252 0.81786 0.0
C632 C 0.44045 0.49423 0.82633 0.0
N633 N 0.42053 0.50592 0.82588 0.0
C634 C 0.42561 0.51172 0.86937 0.0
C635 C 0.41302 0.5147 0.84678 0.0
C636 C 0.4463 0.49977 0.87047 0.0
C637 C 0.4536 0.49079 0.84857 0.0
H638 H 0.44633 0.48786 0.80937 0.0
H639 H 0.39759 0.52456 0.84587 0.0
C640 C 0.35459 0.57921 0.76191 0.0
N641 N 0.36576 0.56781 0.78038 0.0
C642 C 0.34718 0.60119 0.76631 0.0
C643 C 0.36237 0.59892 0.80876 0.0
C644 C 0.36936 0.57701 0.80355 0.0
C645 C 0.35143 0.61147 0.78994 0.0
H646 H 0.35194 0.57149 0.74365 0.0
H647 H 0.37834 0.56757 0.81788 0.0
C648 C 0.40957 0.46684 0.76778 0.0
N649 N 0.41858 0.4207 0.76852 0.0
C650 C 0.41786 0.45632 0.74735 0.0
C651 C 0.40644 0.45397 0.78879 0.0
C652 C 0.42214 0.43296 0.74801 0.0
C653 C 0.41094 0.43066 0.78876 0.0
C654 C 0.36897 0.52641 0.71724 0.0
C655 C 0.35815 0.50855 0.7014 0.0
C656 C 0.378 0.54726 0.70758 0.0
C657 C 0.35696 0.51169 0.67611 0.0
C658 C 0.37651 0.54971 0.68219 0.0
N659 N 0.36613 0.53202 0.6671 0.0
C660 C 0.32591 0.47073 0.76469 0.0
C661 C 0.35301 0.45413 0.74019 0.0
C662 C 0.30911 0.45157 0.75989 0.0
N663 N 0.34759 0.47136 0.75536 0.0
C664 C 0.33675 0.43467 0.73483 0.0
C665 C 0.31462 0.43304 0.74509 0.0
H666 H 0.3218 0.48495 0.7762 0.0
H667 H 0.37 0.45543 0.73227 0.0
C668 C 0.44444 0.53912 0.72509 0.0
N669 N 0.42575 0.52241 0.72421 0.0
C670 C 0.4582 0.54208 0.70511 0.0
C671 C 0.4336 0.51018 0.684 0.0
C672 C 0.4204 0.50781 0.70439 0.0
C673 C 0.45264 0.52768 0.68405 0.0
H674 H 0.4485 0.55033 0.74119 0.0
H675 H 0.40547 0.49464 0.70418 0.0
O676 O 0.36818 0.51372 0.79561 0.0
O677 O 0.415 0.54059 0.7795 0.0
O678 O 0.40531 0.48976 0.7674 0.0
O679 O 0.37059 0.52352 0.74205 0.0
H680 H 0.34889 0.53767 0.82926 0.0
H681 H 0.36258 0.46911 0.80619 0.0
H682 H 0.33041 0.52084 0.86519 0.0
H683 H 0.34415 0.45347 0.84263 0.0
H684 H 0.4256 0.61743 0.7636 0.0
H685 H 0.42978 0.55601 0.82459 0.0
H686 H 0.41502 0.57641 0.75011 0.0
H687 H 0.4402 0.59737 0.8368 0.0
H688 H 0.41931 0.51888 0.88579 0.0
H689 H 0.46969 0.48184 0.84854 0.0
H690 H 0.33899 0.61034 0.75123 0.0
H691 H 0.36572 0.60606 0.82728 0.0
H692 H 0.42083 0.46603 0.73108 0.0
H693 H 0.401 0.46194 0.80513 0.0
H694 H 0.42833 0.42458 0.73223 0.0
H695 H 0.40851 0.42052 0.8049 0.0
H696 H 0.35085 0.4924 0.70852 0.0
H697 H 0.38626 0.56132 0.71953 0.0
H698 H 0.34877 0.49796 0.66364 0.0
H699 H 0.38362 0.56568 0.67447 0.0
H700 H 0.29203 0.45123 0.76772 0.0
H701 H 0.34173 0.42081 0.72331 0.0
H702 H 0.47295 0.55557 0.7061 0.0
H703 H 0.42843 0.49889 0.66809 0.0
Li704 Li 0.77687 0.39928 0.50893 0.0
Li705 Li 0.75632 0.36684 0.53093 0.0
Li706 Li 0.75145 0.3668 0.48588 0.0
Li707 Li 0.73305 0.39363 0.51007 0.0
C708 C 0.79248 0.34867 0.49757 0.0
N709 N 0.8122 0.31337 0.47401 0.0
C710 C 0.78699 0.32563 0.5038 0.0
C711 C 0.80801 0.35377 0.47938 0.0
C712 C 0.79718 0.30803 0.49169 0.0
C713 C 0.81777 0.33567 0.46766 0.0
C714 C 0.76318 0.40157 0.56213 0.0
C715 C 0.75094 0.39828 0.60314 0.0
N716 N 0.77438 0.40049 0.61214 0.0
C717 C 0.78714 0.40392 0.57176 0.0
C718 C 0.7449 0.39883 0.5779 0.0
C719 C 0.79243 0.4033 0.59712 0.0
C720 C 0.80245 0.44351 0.50808 0.0
N721 N 0.80477 0.42042 0.50931 0.0
C722 C 0.84747 0.42729 0.5111 0.0
C723 C 0.82668 0.41212 0.51109 0.0
C724 C 0.84568 0.45127 0.50941 0.0
C725 C 0.82276 0.45933 0.50804 0.0
H726 H 0.78482 0.44965 0.50726 0.0
H727 H 0.82802 0.39369 0.5125 0.0
C728 C 0.74229 0.33943 0.57097 0.0
N729 N 0.76116 0.34814 0.55894 0.0
C730 C 0.74607 0.32593 0.59155 0.0
C731 C 0.7886 0.33033 0.58678 0.0
C732 C 0.78402 0.34399 0.56648 0.0
C733 C 0.76946 0.32112 0.59958 0.0
H734 H 0.72431 0.34291 0.56461 0.0
H735 H 0.79871 0.35129 0.55667 0.0
C736 C 0.73596 0.4116 0.46637 0.0
N737 N 0.70271 0.43419 0.43806 0.0
C738 C 0.71914 0.39903 0.44975 0.0
C739 C 0.73589 0.43567 0.46856 0.0
C740 C 0.7025 0.41077 0.43558 0.0
C741 C 0.7189 0.44676 0.45412 0.0
C742 C 0.70256 0.35501 0.5071 0.0
C743 C 0.69015 0.34603 0.48527 0.0
C744 C 0.68983 0.35982 0.52716 0.0
C745 C 0.66516 0.34207 0.48385 0.0
C746 C 0.66484 0.35565 0.525 0.0
N747 N 0.65313 0.34693 0.50357 0.0
C748 C 0.74385 0.32487 0.45673 0.0
C749 C 0.76171 0.35774 0.43773 0.0
C750 C 0.74722 0.31066 0.43661 0.0
N751 N 0.75136 0.34787 0.45699 0.0
C752 C 0.76551 0.34421 0.41735 0.0
C753 C 0.75863 0.32026 0.41679 0.0
H754 H 0.73613 0.31741 0.47255 0.0
H755 H 0.76782 0.37602 0.43863 0.0
C756 C 0.70986 0.43072 0.52754 0.0
N757 N 0.70625 0.41204 0.51182 0.0
C758 C 0.69186 0.44555 0.52965 0.0
C759 C 0.6666 0.42174 0.49936 0.0
C760 C 0.68527 0.40762 0.4975 0.0
C761 C 0.66969 0.44109 0.51562 0.0
H762 H 0.7269 0.43431 0.53825 0.0
H763 H 0.68292 0.39317 0.48455 0.0
O764 O 0.78201 0.36606 0.50859 0.0
O765 O 0.75764 0.40134 0.53734 0.0
O766 O 0.75205 0.40034 0.48078 0.0
O767 O 0.72704 0.35867 0.50891 0.0
H768 H 0.7747 0.32134 0.51755 0.0
H769 H 0.81211 0.37148 0.47404 0.0
H770 H 0.793 0.29011 0.49624 0.0
H771 H 0.82966 0.33934 0.4534 0.0
H772 H 0.73699 0.39603 0.61557 0.0
H773 H 0.80148 0.40591 0.55976 0.0
H774 H 0.72626 0.39692 0.57068 0.0
H775 H 0.8109 0.40495 0.60484 0.0
H776 H 0.86473 0.42027 0.51202 0.0
H777 H 0.82054 0.47767 0.5072 0.0
H778 H 0.73082 0.31896 0.6008 0.0
H779 H 0.80691 0.32717 0.59253 0.0
H780 H 0.71867 0.38037 0.44805 0.0
H781 H 0.74859 0.44565 0.48147 0.0
H782 H 0.68932 0.40124 0.42274 0.0
H783 H 0.71855 0.46537 0.45573 0.0
H784 H 0.69967 0.34229 0.46954 0.0
H785 H 0.69907 0.36715 0.54405 0.0
H786 H 0.65532 0.33519 0.46705 0.0
H787 H 0.65476 0.35945 0.54031 0.0
H788 H 0.74189 0.29224 0.43702 0.0
H789 H 0.77413 0.35235 0.40235 0.0
H790 H 0.69551 0.46054 0.54195 0.0
H791 H 0.64987 0.4173 0.48827 0.0
Li792 Li 0.62993 0.97641 0.7971 0.0
Li793 Li 0.60468 0.00053 0.81619 0.0
Li794 Li 0.59867 0.9927 0.77273 0.0
Li795 Li 0.63359 0.01964 0.79067 0.0
C796 C 0.59454 0.94734 0.80417 0.0
N797 N 0.59607 0.9009 0.81434 0.0
C798 C 0.5943 0.93997 0.82832 0.0
C799 C 0.59548 0.93104 0.7852 0.0
C800 C 0.59506 0.91643 0.83308 0.0
C801 C 0.5963 0.90767 0.79072 0.0
C802 C 0.64576 0.00878 0.84523 0.0
C803 C 0.66278 0.03694 0.87641 0.0
N804 N 0.65656 0.02186 0.89401 0.0
C805 C 0.63962 0.99353 0.86365 0.0
C806 C 0.65748 0.03066 0.85165 0.0
C807 C 0.64518 0.00048 0.88819 0.0
C808 C 0.65823 0.94253 0.77976 0.0
N809 N 0.64916 0.9508 0.80009 0.0
C810 C 0.6679 0.92284 0.82476 0.0
C811 C 0.65386 0.94145 0.82235 0.0
C812 C 0.67742 0.91384 0.80407 0.0
C813 C 0.67239 0.92393 0.78131 0.0
H814 H 0.65462 0.95048 0.76234 0.0
H815 H 0.64658 0.94831 0.83826 0.0
C816 C 0.56748 0.99218 0.84772 0.0
N817 N 0.58736 0.00648 0.84407 0.0
C818 C 0.55384 0.99648 0.8672 0.0
C819 C 0.58101 0.0305 0.87843 0.0
C820 C 0.59401 0.02561 0.85869 0.0
C821 C 0.56066 0.0158 0.88294 0.0
H822 H 0.56198 0.9776 0.83527 0.0
H823 H 0.60916 0.03737 0.85478 0.0
C824 C 0.6317 0.99295 0.74116 0.0
N825 N 0.62723 0.99251 0.69048 0.0
C826 C 0.63814 0.01305 0.72862 0.0
C827 C 0.62321 0.97257 0.72788 0.0
C828 C 0.63572 0.01248 0.70301 0.0
C829 C 0.621 0.97272 0.70229 0.0
C830 C 0.58135 0.03501 0.79744 0.0
C831 C 0.55767 0.02497 0.79467 0.0
C832 C 0.58665 0.0568 0.80901 0.0
C833 C 0.53963 0.03687 0.80377 0.0
C834 C 0.56809 0.06815 0.81783 0.0
N835 N 0.54518 0.05802 0.81507 0.0
C836 C 0.5608 0.96921 0.74172 0.0
C837 C 0.57537 0.00617 0.72851 0.0
C838 C 0.54531 0.96564 0.72042 0.0
N839 N 0.57581 0.98896 0.74503 0.0
C840 C 0.56022 0.00331 0.7069 0.0
C841 C 0.54523 0.98264 0.70244 0.0
H842 H 0.56104 0.9561 0.75546 0.0
H843 H 0.58731 0.02185 0.73185 0.0
C844 C 0.67861 0.04401 0.79001 0.0
N845 N 0.65476 0.04587 0.7853 0.0
C846 C 0.69521 0.06252 0.78562 0.0
C847 C 0.66235 0.08439 0.7712 0.0
C848 C 0.64635 0.06547 0.77607 0.0
C849 C 0.68714 0.08302 0.77603 0.0
H850 H 0.68469 0.02805 0.79707 0.0
H851 H 0.62725 0.06627 0.77219 0.0
O852 O 0.59431 0.9704 0.79917 0.0
O853 O 0.64053 0.00233 0.82106 0.0
O854 O 0.6335 0.9933 0.76626 0.0
O855 O 0.59933 0.02331 0.78933 0.0
H856 H 0.59386 0.95228 0.84331 0.0
H857 H 0.59596 0.93638 0.76645 0.0
H858 H 0.59501 0.91053 0.85169 0.0
H859 H 0.5972 0.89491 0.77622 0.0
H860 H 0.67178 0.05385 0.88163 0.0
H861 H 0.63017 0.97673 0.8591 0.0
H862 H 0.66228 0.04276 0.83771 0.0
H863 H 0.64035 0.98892 0.90261 0.0
H864 H 0.67103 0.91541 0.84261 0.0
H865 H 0.67963 0.91777 0.76495 0.0
H866 H 0.5382 0.98478 0.86995 0.0
H867 H 0.58652 0.04595 0.88969 0.0
H868 H 0.6448 0.02897 0.73849 0.0
H869 H 0.61804 0.95687 0.73722 0.0
H870 H 0.64054 0.02794 0.69309 0.0
H871 H 0.61424 0.95712 0.69182 0.0
H872 H 0.55333 0.00803 0.7859 0.0
H873 H 0.60494 0.06469 0.81147 0.0
H874 H 0.52124 0.02926 0.80192 0.0
H875 H 0.57193 0.08496 0.82698 0.0
H876 H 0.53366 0.94967 0.71797 0.0
H877 H 0.56085 0.01681 0.6935 0.0
H878 H 0.71418 0.06064 0.78924 0.0
H879 H 0.65544 0.09992 0.76389 0.0
Li880 Li 0.03201 0.24564 0.88084 0.0
Li881 Li 0.00691 0.25971 0.9096 0.0
Li882 Li 0.01633 0.21729 0.90737 0.0
Li883 Li 0.99052 0.23509 0.87375 0.0
C884 C 0.05972 0.25651 0.92326 0.0
N885 N 0.1051 0.2784 0.93503 0.0
C886 C 0.0647 0.27987 0.91801 0.0
C887 C 0.07772 0.2443 0.93467 0.0
C888 C 0.08779 0.29061 0.92404 0.0
C889 C 0.10057 0.25568 0.94044 0.0
C890 C 0.99032 0.28266 0.8693 0.0
C891 C 0.95097 0.2952 0.87296 0.0
N892 N 0.95677 0.31407 0.85954 0.0
C893 C 0.9959 0.3022 0.85555 0.0
C894 C 0.96768 0.27915 0.8781 0.0
C895 C 0.9787 0.31787 0.85081 0.0
C896 C 0.05822 0.26851 0.8455 0.0
N897 N 0.06004 0.25368 0.86435 0.0
C898 C 0.1009 0.24934 0.85783 0.0
C899 C 0.08078 0.24402 0.87063 0.0
C900 C 0.09957 0.26461 0.83827 0.0
C901 C 0.07787 0.27424 0.83213 0.0
H902 H 0.0414 0.27566 0.84069 0.0
H903 H 0.08158 0.23181 0.88527 0.0
C904 C 0.9907 0.27815 0.95253 0.0
N905 N 1.00053 0.28385 0.9314 0.0
C906 C 0.9848 0.2955 0.9684 0.0
C907 C 0.9995 0.32422 0.94052 0.0
C908 C 0.00528 0.30634 0.92533 0.0
C909 C 0.98903 0.31894 0.96239 0.0
H910 H 0.98735 0.26011 0.957 0.0
H911 H 0.01333 0.31043 0.90853 0.0
C912 C 0.02984 0.20804 0.85339 0.0
N913 N 0.05864 0.19708 0.81723 0.0
C914 C 0.02514 0.21559 0.82954 0.0
C915 C 0.04908 0.19477 0.85883 0.0
C916 C 0.03995 0.20993 0.81152 0.0
C917 C 0.06345 0.18943 0.84029 0.0
C918 C 0.96429 0.21916 0.91581 0.0
C919 C 0.96144 0.19493 0.91431 0.0
C920 C 0.94625 0.23122 0.92473 0.0
C921 C 0.94045 0.18318 0.92148 0.0
C922 C 0.92552 0.21883 0.9317 0.0
N923 N 0.92307 0.19527 0.92994 0.0
C924 C 0.02618 0.19351 0.95082 0.0
C925 C 0.02241 0.16988 0.91466 0.0
C926 C 0.03125 0.17457 0.96513 0.0
N927 N 0.02196 0.19083 0.9261 0.0
C928 C 0.02758 0.1505 0.92821 0.0
C929 C 0.03214 0.15267 0.95384 0.0
H930 H 0.02566 0.21042 0.95939 0.0
H931 H 0.01883 0.16823 0.89496 0.0
C932 C 0.96388 0.2432 0.82924 0.0
N933 N 0.96379 0.22985 0.84942 0.0
C934 C 0.94435 0.24123 0.81154 0.0
C935 C 0.92541 0.211 0.83504 0.0
C936 C 0.94523 0.21369 0.85237 0.0
C937 C 0.92471 0.22506 0.81442 0.0
H938 H 0.97908 0.25554 0.82692 0.0
H939 H 0.94564 0.20294 0.86818 0.0
O940 O 0.03732 0.24562 0.91729 0.0
O941 O 0.00716 0.26731 0.87421 0.0
O942 O 0.01586 0.21389 0.87138 0.0
O943 O 0.98494 0.23097 0.90938 0.0
H944 H 0.05098 0.28949 0.90905 0.0
H945 H 0.07408 0.2262 0.93886 0.0
H946 H 0.09197 0.30865 0.91994 0.0
H947 H 0.11472 0.24645 0.94918 0.0
H948 H 0.93337 0.29264 0.87964 0.0
H949 H 0.01337 0.30528 0.8487 0.0
H950 H 0.96299 0.26417 0.88866 0.0
H951 H 0.98279 0.33306 0.84021 0.0
H952 H 0.11718 0.24126 0.86291 0.0
H953 H 0.07615 0.28626 0.81732 0.0
H954 H 0.97724 0.29058 0.98528 0.0
H955 H 0.00288 0.34196 0.93495 0.0
H956 H 0.01041 0.22596 0.82506 0.0
H957 H 0.05319 0.18904 0.87726 0.0
H958 H 0.03663 0.2158 0.79302 0.0
H959 H 0.07851 0.17934 0.84427 0.0
H960 H 0.9751 0.18531 0.90729 0.0
H961 H 0.94822 0.24996 0.92632 0.0
H962 H 0.93796 0.16444 0.92025 0.0
H963 H 0.9114 0.22795 0.93858 0.0
H964 H 0.03417 0.17705 0.98483 0.0
H965 H 0.02829 0.13409 0.91864 0.0
H966 H 0.94468 0.25213 0.7957 0.0
H967 H 0.91059 0.19836 0.838 0.0
Li968 Li 0.53465 0.74824 0.37891 0.0
Li969 Li 0.50871 0.76129 0.40931 0.0
Li970 Li 0.5155 0.71921 0.40332 0.0
Li971 Li 0.4899 0.73847 0.37296 0.0
C972 C 0.56243 0.75306 0.42115 0.0
N973 N 0.61027 0.76817 0.43234 0.0
C974 C 0.56894 0.77475 0.43261 0.0
C975 C 0.58025 0.73894 0.41564 0.0
C976 C 0.59323 0.7821 0.43807 0.0
C977 C 0.60434 0.74693 0.42136 0.0
C978 C 0.50201 0.79089 0.36886 0.0
C979 C 0.47142 0.81742 0.36318 0.0
N980 N 0.48841 0.8345 0.35814 0.0
C981 C 0.5191 0.80863 0.36327 0.0
C982 C 0.47793 0.79525 0.36852 0.0
C983 C 0.51189 0.83059 0.35804 0.0
C984 C 0.56774 0.74252 0.34387 0.0
N985 N 0.56237 0.75673 0.36224 0.0
C986 C 0.59639 0.78322 0.3563 0.0
C987 C 0.57615 0.7768 0.36856 0.0
C988 C 0.60241 0.7689 0.33721 0.0
C989 C 0.58782 0.74826 0.33108 0.0
H990 H 0.5563 0.72682 0.33896 0.0
H991 H 0.57141 0.78788 0.38312 0.0
C992 C 0.49256 0.7783 0.45277 0.0
N993 N 0.50384 0.78487 0.43268 0.0
C994 C 0.48778 0.79486 0.47009 0.0
C995 C 0.50694 0.82461 0.44613 0.0
C996 C 0.51136 0.80746 0.42929 0.0
C997 C 0.49488 0.81841 0.46682 0.0
H998 H 0.48709 0.76017 0.45524 0.0
H999 H 0.52104 0.8122 0.41369 0.0
C1000 C 0.5181 0.69588 0.36176 0.0
N1001 N 0.52181 0.64939 0.35228 0.0
C1002 C 0.49825 0.68171 0.35129 0.0
C1003 C 0.53993 0.68647 0.36711 0.0
C1004 C 0.50047 0.65823 0.3467 0.0
C1005 C 0.54141 0.66291 0.36228 0.0
C1006 C 0.46164 0.73178 0.41316 0.0
C1007 C 0.44996 0.71049 0.41894 0.0
C1008 C 0.44924 0.75163 0.41308 0.0
C1009 C 0.42592 0.70932 0.42394 0.0
C1010 C 0.42523 0.74977 0.41821 0.0
N1011 N 0.41414 0.72882 0.42345 0.0
C1012 C 0.53823 0.68945 0.4365 0.0
C1013 C 0.50276 0.67228 0.41434 0.0
C1014 C 0.5412 0.66891 0.44888 0.0
N1015 N 0.51921 0.69076 0.41964 0.0
C1016 C 0.50497 0.65144 0.42633 0.0
C1017 C 0.52432 0.64961 0.444 0.0
H1018 H 0.55093 0.70445 0.44058 0.0
H1019 H 0.48784 0.67373 0.40081 0.0
C1020 C 0.46202 0.74916 0.33003 0.0
N1021 N 0.46261 0.73505 0.34959 0.0
C1022 C 0.44188 0.74779 0.31306 0.0
C1023 C 0.4238 0.7167 0.33611 0.0
C1024 C 0.4442 0.71878 0.35269 0.0
C1025 C 0.42238 0.73145 0.31607 0.0
H1026 H 0.47714 0.7616 0.32768 0.0
H1027 H 0.44535 0.70734 0.36798 0.0
O1028 O 0.53874 0.74565 0.41551 0.0
O1029 O 0.50883 0.76929 0.37413 0.0
O1030 O 0.51617 0.71883 0.36674 0.0
O1031 O 0.4852 0.73319 0.40815 0.0
H1032 H 0.55541 0.78583 0.43717 0.0
H1033 H 0.57554 0.72208 0.40689 0.0
H1034 H 0.59852 0.79889 0.44684 0.0
H1035 H 0.61831 0.73625 0.41704 0.0
H1036 H 0.45285 0.82101 0.36292 0.0
H1037 H 0.53775 0.80557 0.36309 0.0
H1038 H 0.46432 0.78161 0.37195 0.0
H1039 H 0.52498 0.84451 0.35388 0.0
H1040 H 0.60728 0.79915 0.36183 0.0
H1041 H 0.5916 0.73689 0.31626 0.0
H1042 H 0.47837 0.7893 0.48572 0.0
H1043 H 0.51325 0.84248 0.4432 0.0
H1044 H 0.48127 0.68872 0.3469 0.0
H1045 H 0.5555 0.69722 0.37508 0.0
H1046 H 0.48521 0.64704 0.33873 0.0
H1047 H 0.55815 0.65537 0.36651 0.0
H1048 H 0.4593 0.69499 0.41946 0.0
H1049 H 0.45813 0.76836 0.40949 0.0
H1050 H 0.41664 0.69292 0.42826 0.0
H1051 H 0.41544 0.765 0.41816 0.0
H1052 H 0.55617 0.66836 0.46262 0.0
H1053 H 0.49167 0.63692 0.42183 0.0
H1054 H 0.44166 0.75924 0.29766 0.0
H1055 H 0.40913 0.70392 0.33919 0.0
Li1056 Li 0.00617 0.79831 0.64551 0.0
Li1057 Li 0.98105 0.77846 0.67464 0.0
Li1058 Li 0.02593 0.77752 0.67961 0.0
Li1059 Li 1.00036 0.75489 0.64726 0.0
C1060 C 0.01442 0.82688 0.68919 0.0
N1061 N 0.03033 0.87175 0.7048 0.0
C1062 C 0.99814 0.84206 0.69624 0.0
C1063 C 0.03885 0.83446 0.69047 0.0
C1064 C 0.00651 0.86469 0.70397 0.0
C1065 C 0.04653 0.85721 0.69831 0.0
C1066 C 0.95287 0.78099 0.63395 0.0
C1067 C 0.91085 0.76773 0.63309 0.0
N1068 N 0.90518 0.78928 0.62674 0.0
C1069 C 0.94664 0.80297 0.62731 0.0
C1070 C 0.93487 0.76317 0.63673 0.0
C1071 C 0.92242 0.80681 0.62377 0.0
C1072 C 0.01647 0.81614 0.60067 0.0
N1073 N 0.01103 0.82296 0.62324 0.0
C1074 C 0.01624 0.8628 0.61246 0.0
C1075 C 0.01038 0.84576 0.62925 0.0
C1076 C 0.02267 0.85629 0.58923 0.0
C1077 C 0.02237 0.83254 0.58333 0.0
H1078 H 0.01668 0.79787 0.59632 0.0
H1079 H 0.00569 0.85086 0.64711 0.0
C1080 C 0.94649 0.76134 0.70578 0.0
N1081 N 0.95303 0.77976 0.69203 0.0
C1082 C 0.92578 0.76094 0.71819 0.0
C1083 C 0.91919 0.79882 0.70269 0.0
C1084 C 0.93991 0.79836 0.69033 0.0
C1085 C 0.91184 0.77984 0.71671 0.0
H1086 H 0.95734 0.74691 0.70715 0.0
H1087 H 0.94535 0.81271 0.67912 0.0
C1088 C 0.05273 0.77973 0.63683 0.0
N1089 N 0.09825 0.78894 0.62164 0.0
C1090 C 0.06451 0.76191 0.62704 0.0
C1091 C 0.06401 0.8023 0.6385 0.0
C1092 C 0.08755 0.76688 0.6196 0.0
C1093 C 0.08703 0.80659 0.63082 0.0
C1094 C 0.99935 0.72868 0.68602 0.0
C1095 C 0.01942 0.71857 0.69621 0.0
C1096 C 0.97845 0.71461 0.67811 0.0
C1097 C 0.01836 0.69448 0.69803 0.0
C1098 C 0.97812 0.69059 0.68021 0.0
N1099 N 0.99792 0.68111 0.69003 0.0
C1100 C 0.0546 0.78929 0.7239 0.0
C1101 C 0.07253 0.76625 0.69569 0.0
C1102 C 0.07527 0.79043 0.74014 0.0
N1103 N 0.05379 0.77768 0.70199 0.0
C1104 C 0.09348 0.76684 0.71139 0.0
C1105 C 0.09514 0.77922 0.73387 0.0
H1106 H 0.03926 0.79789 0.72863 0.0
H1107 H 0.07121 0.75666 0.67846 0.0
C1108 C 0.9791 0.72212 0.61077 0.0
N1109 N 0.9979 0.72693 0.62797 0.0
C1110 C 0.97734 0.70178 0.59635 0.0
C1111 C 0.01425 0.69172 0.61772 0.0
C1112 C 0.01531 0.71224 0.63166 0.0
C1113 C 0.99513 0.68629 0.59969 0.0
H1114 H 0.96555 0.73415 0.60815 0.0
H1115 H 0.03011 0.71655 0.6454 0.0
O1116 O 0.00647 0.80464 0.68157 0.0
O1117 O 0.97648 0.77699 0.6378 0.0
O1118 O 0.0301 0.77511 0.64414 0.0
O1119 O 1.00018 0.75221 0.68375 0.0
H1120 H 0.97922 0.8365 0.69568 0.0
H1121 H 0.05184 0.82287 0.68576 0.0
H1122 H 0.99406 0.87665 0.70933 0.0
H1123 H 0.06538 0.86328 0.69931 0.0
H1124 H 0.89673 0.75416 0.63534 0.0
H1125 H 0.96036 0.81695 0.6251 0.0
H1126 H 0.9394 0.74608 0.64189 0.0
H1127 H 0.91732 0.82376 0.61874 0.0
H1128 H 0.01632 0.88088 0.61789 0.0
H1129 H 0.0267 0.82665 0.5655 0.0
H1130 H 0.92087 0.74611 0.72907 0.0
H1131 H 0.9088 0.81364 0.70095 0.0
H1132 H 0.05601 0.7444 0.62526 0.0
H1133 H 0.055 0.81646 0.64527 0.0
H1134 H 0.0969 0.75321 0.61214 0.0
H1135 H 0.09593 0.82399 0.63203 0.0
H1136 H 0.03568 0.72918 0.70256 0.0
H1137 H 0.96277 0.72214 0.67012 0.0
H1138 H 0.0338 0.68641 0.70578 0.0
H1139 H 0.96214 0.67949 0.67397 0.0
H1140 H 0.07565 0.79986 0.75745 0.0
H1141 H 0.10839 0.75805 0.70575 0.0
H1142 H 0.9622 0.69819 0.58279 0.0
H1143 H 0.02856 0.6805 0.62068 0.0
Li1144 Li 0.50199 0.29789 0.1483 0.0
Li1145 Li 0.47572 0.28176 0.17839 0.0
Li1146 Li 0.51976 0.27767 0.18406 0.0
Li1147 Li 0.49297 0.25474 0.15282 0.0
C1148 C 0.51468 0.32799 0.18977 0.0
N1149 N 0.53868 0.37108 0.20158 0.0
C1150 C 0.5023 0.34599 0.19822 0.0
C1151 C 0.53931 0.33186 0.18764 0.0
C1152 C 0.51473 0.36767 0.20401 0.0
C1153 C 0.55111 0.35376 0.19362 0.0
C1154 C 0.44778 0.28335 0.13799 0.0
C1155 C 0.40535 0.27208 0.13728 0.0
N1156 N 0.40082 0.29409 0.13158 0.0
C1157 C 0.44273 0.30583 0.132 0.0
C1158 C 0.42899 0.26628 0.14052 0.0
C1159 C 0.41885 0.31093 0.12886 0.0
C1160 C 0.5138 0.31262 0.10255 0.0
N1161 N 0.50834 0.32086 0.12458 0.0
C1162 C 0.51481 0.35992 0.11154 0.0
C1163 C 0.50828 0.34399 0.12921 0.0
C1164 C 0.52126 0.35193 0.08883 0.0
C1165 C 0.52037 0.32789 0.08436 0.0
H1166 H 0.51346 0.29411 0.09928 0.0
H1167 H 0.50344 0.35018 0.14664 0.0
C1168 C 0.43798 0.26901 0.20783 0.0
N1169 N 0.4481 0.28677 0.1952 0.0
C1170 C 0.4178 0.2719 0.22034 0.0
C1171 C 0.41899 0.3115 0.20707 0.0
C1172 C 0.439 0.30774 0.19453 0.0
C1173 C 0.40814 0.29339 0.22016 0.0
H1174 H 0.44567 0.25263 0.20838 0.0
H1175 H 0.44724 0.32151 0.18417 0.0
C1176 C 0.54661 0.27304 0.14143 0.0
N1177 N 0.59218 0.2733 0.1258 0.0
C1178 C 0.55603 0.2522 0.13608 0.0
C1179 C 0.56026 0.29404 0.13834 0.0
C1180 C 0.57914 0.25268 0.12837 0.0
C1181 C 0.58327 0.29381 0.13055 0.0
C1182 C 0.48949 0.23142 0.19421 0.0
C1183 C 0.50779 0.221 0.20749 0.0
C1184 C 0.46821 0.21808 0.18598 0.0
C1185 C 0.50462 0.19733 0.21206 0.0
C1186 C 0.46574 0.19446 0.1909 0.0
N1187 N 0.48384 0.18465 0.20372 0.0
C1188 C 0.54995 0.291 0.22723 0.0
C1189 C 0.56396 0.26218 0.20227 0.0
C1190 C 0.57058 0.29134 0.24345 0.0
N1191 N 0.5473 0.27691 0.20684 0.0
C1192 C 0.58476 0.26184 0.21804 0.0
C1193 C 0.58841 0.27674 0.23882 0.0
H1194 H 0.53616 0.30217 0.23076 0.0
H1195 H 0.56109 0.25064 0.18639 0.0
C1196 C 0.47194 0.22324 0.11527 0.0
N1197 N 0.48852 0.22589 0.13492 0.0
C1198 C 0.46912 0.20269 0.10112 0.0
C1199 C 0.50018 0.18783 0.12802 0.0
C1200 C 0.5025 0.2087 0.1415 0.0
C1201 C 0.48353 0.1847 0.1073 0.0
H1202 H 0.46122 0.23729 0.11029 0.0
H1203 H 0.51566 0.21126 0.15711 0.0
O1204 O 0.50269 0.3067 0.18385 0.0
O1205 O 0.47104 0.27817 0.14167 0.0
O1206 O 0.52387 0.27284 0.14879 0.0
O1207 O 0.49237 0.25456 0.18943 0.0
H1208 H 0.4833 0.34331 0.20025 0.0
H1209 H 0.54931 0.31803 0.1818 0.0
H1210 H 0.50535 0.38178 0.21045 0.0
H1211 H 0.57018 0.35696 0.19203 0.0
H1212 H 0.39062 0.25908 0.13933 0.0
H1213 H 0.4571 0.31925 0.13005 0.0
H1214 H 0.43262 0.24879 0.14512 0.0
H1215 H 0.41466 0.32828 0.12436 0.0
H1216 H 0.51533 0.37828 0.11588 0.0
H1217 H 0.52467 0.32089 0.06697 0.0
H1218 H 0.41014 0.2576 0.23049 0.0
H1219 H 0.41194 0.32828 0.20636 0.0
H1220 H 0.54574 0.23578 0.13803 0.0
H1221 H 0.55314 0.31041 0.14157 0.0
H1222 H 0.58668 0.23664 0.12438 0.0
H1223 H 0.594 0.30995 0.12815 0.0
H1224 H 0.52427 0.23108 0.21421 0.0
H1225 H 0.4539 0.22583 0.17558 0.0
H1226 H 0.51867 0.18903 0.22225 0.0
H1227 H 0.44945 0.18391 0.18447 0.0
H1228 H 0.57251 0.30282 0.25947 0.0
H1229 H 0.59807 0.25035 0.21371 0.0
H1230 H 0.45631 0.20121 0.08512 0.0
H1231 H 0.51144 0.17436 0.13371 0.0
C1232 C 0.2821 0.77855 0.88697 0.0
C1233 C 0.27404 0.78275 0.86261 0.0
H1234 H 0.28146 0.78807 0.92491 0.0
C1235 C 0.25781 0.79954 0.85802 0.0
H1236 H 0.29477 0.76582 0.891 0.0
C1237 C 0.25038 0.81241 0.87737 0.0
C1238 C 0.25886 0.80856 0.90169 0.0
H1239 H 0.25182 0.80363 0.83943 0.0
H1240 H 0.23843 0.82574 0.8733 0.0
C1241 C 0.27441 0.79118 0.90635 0.0
C1242 C 0.0197 0.51324 0.43075 0.0
C1243 C 0.03251 0.52443 0.45149 0.0
H1244 H 0.02128 0.49826 0.39496 0.0
C1245 C 0.05762 0.52835 0.45204 0.0
H1246 H 1.00036 0.50984 0.42977 0.0
C1247 C 0.06958 0.52183 0.43203 0.0
C1248 C 0.05672 0.51123 0.411 0.0
H1249 H 0.06806 0.53693 0.46771 0.0
H1250 H 0.08884 0.5258 0.43275 0.0
C1251 C 0.03168 0.50672 0.41073 0.0
C1252 C 0.79072 0.71963 0.86853 0.0
C1253 C 0.77081 0.73242 0.86366 0.0
H1254 H 0.80768 0.69577 0.89223 0.0
C1255 C 0.75212 0.73016 0.87922 0.0
H1256 H 0.80542 0.72096 0.85691 0.0
C1257 C 0.75344 0.7158 0.89934 0.0
C1258 C 0.77344 0.70326 0.90444 0.0
H1259 H 0.73646 0.73964 0.876 0.0
H1260 H 0.73868 0.71444 0.91089 0.0
C1261 C 0.79198 0.70513 0.88868 0.0
C1262 C 0.97766 0.9826 0.42051 0.0
C1263 C 0.00203 0.98021 0.41816 0.0
H1264 H 0.9432 0.98682 0.40211 0.0
C1265 C 0.00999 0.97889 0.39458 0.0
H1266 H 0.97093 0.98356 0.43841 0.0
C1267 C 0.99416 0.9809 0.37383 0.0
C1268 C 0.97 0.98425 0.37618 0.0
H1269 H 0.02865 0.97702 0.39212 0.0
H1270 H 1.00109 0.98074 0.35598 0.0
C1271 C 0.96181 0.98463 0.39973 0.0
C1272 C 0.23904 0.26537 0.62409 0.0
C1273 C 0.23835 0.25933 0.64873 0.0
H1274 H 0.24611 0.25504 0.58799 0.0
C1275 C 0.24467 0.23736 0.65578 0.0
H1276 H 0.23454 0.28229 0.61813 0.0
C1277 C 0.25087 0.22149 0.63838 0.0
C1278 C 0.25116 0.22736 0.61358 0.0
H1279 H 0.24424 0.23218 0.67465 0.0
H1280 H 0.25478 0.2044 0.64429 0.0
C1281 C 0.24554 0.24966 0.60676 0.0
C1282 C 0.48221 0.51635 0.62564 0.0
C1283 C 0.48794 0.53899 0.61783 0.0
H1284 H 0.46699 0.49499 0.65289 0.0
C1285 C 0.48306 0.55782 0.63258 0.0
H1286 H 0.48584 0.50147 0.61476 0.0
C1287 C 0.47212 0.55412 0.65429 0.0
C1288 C 0.46583 0.53149 0.66185 0.0
H1289 H 0.48721 0.5755 0.62711 0.0
H1290 H 0.4679 0.56903 0.66476 0.0
C1291 C 0.47129 0.51264 0.64742 0.0
C1292 C 0.76627 0.29516 0.6624 0.0
C1293 C 0.78075 0.27673 0.66087 0.0
H1294 H 0.7513 0.32362 0.64415 0.0
C1295 C 0.79197 0.27339 0.63927 0.0
H1296 H 0.75736 0.29818 0.67878 0.0
C1297 C 0.78864 0.28806 0.61955 0.0
C1298 C 0.77378 0.30619 0.6209 0.0
H1299 H 0.80327 0.25937 0.63754 0.0
H1300 H 0.79727 0.2849 0.60301 0.0
C1301 C 0.76269 0.30964 0.64255 0.0
C1302 C 0.51556 0.95232 0.64434 0.0
C1303 C 0.50362 0.97003 0.63287 0.0
H1304 H 0.5382 0.9425 0.67497 0.0
C1305 C 0.50508 0.99194 0.64469 0.0
H1306 H 0.51491 0.93525 0.63576 0.0
C1307 C 0.51838 0.99605 0.66739 0.0
C1308 C 0.53043 0.97832 0.67874 0.0
H1309 H 0.49604 0.00594 0.63638 0.0
H1310 H 0.51912 0.01306 0.67612 0.0
C1311 C 0.5288 0.95642 0.66696 0.0
C1312 C 0.87235 0.24068 0.77141 0.0
C1313 C 0.86107 0.21866 0.76416 0.0
H1314 H 0.90133 0.25996 0.79308 0.0
C1315 C 0.87168 0.19886 0.77251 0.0
H1316 H 0.86465 0.25628 0.76532 0.0
C1317 C 0.89257 0.20098 0.78841 0.0
C1318 C 0.90345 0.22294 0.79623 0.0
H1319 H 0.86356 0.18161 0.76724 0.0
H1320 H 0.90012 0.18538 0.79473 0.0
C1321 C 0.89339 0.2428 0.78724 0.0
C1322 C 0.4788 0.87482 0.49482 0.0
C1323 C 0.48244 0.87079 0.52003 0.0
H1324 H 0.47967 0.86136 0.45824 0.0
C1325 C 0.48967 0.84925 0.52755 0.0
H1326 H 0.47319 0.89121 0.48842 0.0
C1327 C 0.49348 0.83222 0.5103 0.0
C1328 C 0.49018 0.83634 0.4851 0.0
H1329 H 0.49269 0.84557 0.54683 0.0
H1330 H 0.49952 0.81601 0.51674 0.0
C1331 C 0.48267 0.85778 0.47754 0.0
C1332 C 0.16342 0.28234 0.8242 0.0
C1333 C 0.16081 0.28439 0.7986 0.0
H1334 H 0.1461 0.27472 0.85679 0.0
C1335 C 0.13807 0.27895 0.78601 0.0
H1336 H 0.18069 0.28641 0.83446 0.0
C1337 C 0.11824 0.27221 0.79884 0.0
C1338 C 0.12077 0.2707 0.8245 0.0
H1339 H 0.13547 0.28028 0.76629 0.0
H1340 H 0.10091 0.26824 0.78868 0.0
C1341 C 0.14362 0.27555 0.837 0.0
C1342 C 0.55017 0.59944 0.4776 0.0
C1343 C 0.5297 0.58847 0.48707 0.0
H1344 H 0.56454 0.62735 0.45644 0.0
C1345 C 0.50743 0.59729 0.48147 0.0
H1346 H 0.56759 0.59309 0.48157 0.0
C1347 C 0.5057 0.61681 0.46714 0.0
C1348 C 0.5262 0.62811 0.4581 0.0
H1349 H 0.49127 0.58928 0.48843 0.0
H1350 H 0.48835 0.62343 0.46369 0.0
C1351 C 0.54845 0.61913 0.46335 0.0
C1352 C 0.86482 0.79847 0.75682 0.0
C1353 C 0.84812 0.77877 0.75534 0.0
H1354 H 0.898 0.8143 0.74559 0.0
C1355 C 0.8524 0.75958 0.7408 0.0
H1356 H 0.86199 0.81355 0.76782 0.0
C1357 C 0.87307 0.75996 0.72827 0.0
C1358 C 0.88975 0.77965 0.72974 0.0
H1359 H 0.83988 0.74415 0.73927 0.0
H1360 H 0.87593 0.74491 0.71724 0.0
C1361 C 0.88534 0.79896 0.744 0.0
C1362 C 0.05566 0.88714 0.53968 0.0
C1363 C 0.04386 0.90741 0.53695 0.0
H1364 H 0.05858 0.85542 0.55854 0.0
C1365 C 0.02524 0.91097 0.55179 0.0
H1366 H 0.07016 0.88392 0.52863 0.0
C1367 C 0.01838 0.89446 0.56879 0.0
C1368 C 0.03004 0.87406 0.57138 0.0
H1369 H 0.01572 0.92637 0.55008 0.0
H1370 H 0.00364 0.89751 0.57958 0.0
C1371 C 0.04888 0.8707 0.55672 0.0
C1372 C 0.14871 0.80352 0.7766 0.0
C1373 C 0.16181 0.78408 0.77966 0.0
H1374 H 0.11747 0.81727 0.75961 0.0
C1375 C 0.1523 0.76282 0.76841 0.0
H1376 H 0.15552 0.82015 0.78501 0.0
C1377 C 0.13048 0.76117 0.75393 0.0
C1378 C 0.11763 0.78071 0.7504 0.0
H1379 H 0.16185 0.74747 0.77048 0.0
H1380 H 0.12369 0.74456 0.74545 0.0
C1381 C 0.12683 0.80184 0.76214 0.0
C1382 C 0.98875 0.6462 0.54345 0.0
C1383 C 0.99614 0.62552 0.55328 0.0
H1384 H 0.98285 0.68162 0.55031 0.0
C1385 C 0.00191 0.62458 0.5787 0.0
H1386 H 0.98417 0.64752 0.52395 0.0
C1387 C 1.00103 0.64412 0.59384 0.0
C1388 C 0.99433 0.66503 0.58391 0.0
H1389 H 0.00755 0.60888 0.58689 0.0
H1390 H 0.00576 0.64291 0.61333 0.0
C1391 C 0.98785 0.66574 0.5586 0.0
C1392 C 0.78759 0.86846 0.26302 0.0
C1393 C 0.77642 0.85888 0.2407 0.0
H1394 H 0.80965 0.89667 0.28128 0.0
C1395 C 0.77938 0.87115 0.21909 0.0
H1396 H 0.78577 0.85948 0.28002 0.0
C1397 C 0.79302 0.89265 0.21987 0.0
C1398 C 0.80387 0.90234 0.24228 0.0
H1399 H 0.77097 0.86428 0.2016 0.0
H1400 H 0.79473 0.90187 0.203 0.0
C1401 C 0.80113 0.88991 0.26379 0.0
C1402 C 0.81434 0.15704 0.28294 0.0
C1403 C 0.83148 0.17551 0.29067 0.0
H1404 H 0.80758 0.12077 0.27377 0.0
C1405 C 0.85554 0.17099 0.29564 0.0
H1406 H 0.79564 0.15992 0.27896 0.0
C1407 C 0.86237 0.14859 0.29259 0.0
C1408 C 0.84532 0.13019 0.28442 0.0
H1409 H 0.86922 0.18483 0.30156 0.0
H1410 H 0.88115 0.14581 0.29606 0.0
C1411 C 0.82119 0.13463 0.27979 0.0
C1412 C 0.37659 0.00997 0.98266 0.0
C1413 C 0.39734 0.01031 0.99897 0.0
H1414 H 0.34127 0.99401 0.97216 0.0
C1415 C 0.39768 0.99467 0.01827 0.0
H1416 H 0.37576 0.02173 0.96754 0.0
C1417 C 0.37778 0.97893 0.02109 0.0
C1418 C 0.35709 0.97837 0.00461 0.0
H1419 H 0.41333 0.99457 0.03124 0.0
H1420 H 0.37857 0.96728 0.0363 0.0
C1421 C 0.35673 0.99416 0.98541 0.0
C1422 C 0.22355 0.36544 0.32553 0.0
C1423 C 0.22359 0.35023 0.30524 0.0
H1424 H 0.21097 0.39623 0.33989 0.0
C1425 C 0.21069 0.35513 0.28311 0.0
H1426 H 0.2334 0.36227 0.34282 0.0
C1427 C 0.19766 0.37459 0.28148 0.0
C1428 C 0.19725 0.38955 0.30195 0.0
H1429 H 0.21032 0.34374 0.26714 0.0
H1430 H 0.18744 0.37761 0.26436 0.0
C1431 C 0.21055 0.38485 0.32391 0.0
C1432 C 0.14033 0.0128 0.50559 0.0
C1433 C 0.11738 0.0208 0.50441 0.0
H1434 H 0.17833 0.02195 0.50735 0.0
C1435 C 0.11544 0.04483 0.50511 0.0
H1436 H 0.14242 0.9944 0.50506 0.0
C1437 C 0.13592 0.0605 0.50606 0.0
C1438 C 0.15879 0.05251 0.50669 0.0
H1439 H 0.09805 0.0516 0.50416 0.0
H1440 H 0.13387 0.07892 0.50617 0.0
C1441 C 0.16087 0.02853 0.50691 0.0
C1442 C 0.71964 0.13191 0.7432 0.0
C1443 C 0.73974 0.13807 0.75988 0.0
H1444 H 0.6872 0.1096 0.73523 0.0
C1445 C 0.74177 0.12675 0.78233 0.0
H1446 H 0.71755 0.14034 0.72576 0.0
C1447 C 0.72445 0.10921 0.7877 0.0
C1448 C 0.70465 0.10265 0.77083 0.0
H1449 H 0.75696 0.13114 0.79565 0.0
H1450 H 0.72663 0.10068 0.80508 0.0
C1451 C 0.70221 0.1144 0.74866 0.0
C1452 C 0.38567 0.02589 0.56344 0.0
C1453 C 0.40481 0.02568 0.54857 0.0
H1454 H 0.35464 0.04201 0.57209 0.0
C1455 C 0.4069 0.04219 0.53023 0.0
H1456 H 0.38372 0.01355 0.57791 0.0
C1457 C 0.3899 0.05825 0.52649 0.0
C1458 C 0.37058 0.05839 0.54125 0.0
H1459 H 0.42141 0.04239 0.5184 0.0
H1460 H 0.39165 0.07019 0.51165 0.0
C1461 C 0.36889 0.04215 0.55997 0.0
C1462 C 0.61486 0.47404 0.50023 0.0
C1463 C 0.61211 0.48487 0.52284 0.0
H1464 H 0.63553 0.45261 0.47989 0.0
C1465 C 0.62855 0.48155 0.54295 0.0
H1466 H 0.60255 0.47642 0.48434 0.0
C1467 C 0.64709 0.46734 0.54064 0.0
C1468 C 0.64997 0.45644 0.518 0.0
H1469 H 0.62675 0.4895 0.56068 0.0
H1470 H 0.65885 0.46458 0.55681 0.0
C1471 C 0.63369 0.4602 0.49777 0.0
C1472 C 0.79257 0.29504 0.36729 0.0
C1473 C 0.77552 0.27797 0.35612 0.0
H1474 H 0.80059 0.32167 0.39513 0.0
C1475 C 0.75305 0.27428 0.3656 0.0
H1476 H 0.8101 0.29822 0.36052 0.0
C1477 C 0.74755 0.28782 0.38545 0.0
C1478 C 0.7644 0.30536 0.39613 0.0
H1479 H 0.73983 0.26077 0.35792 0.0
H1480 H 0.73 0.28481 0.39219 0.0
C1481 C 0.78704 0.30863 0.38698 0.0
C1482 C 0.50796 0.02567 0.91964 0.0
C1483 C 0.51964 0.0339 0.94228 0.0
H1484 H 0.51176 0.01362 0.88307 0.0
C1485 C 0.54481 0.03498 0.94558 0.0
H1486 H 0.48859 0.02462 0.91647 0.0
C1487 C 0.55804 0.02866 0.92648 0.0
C1488 C 0.54643 0.02105 0.90364 0.0
H1489 H 0.55442 0.04112 0.96281 0.0
H1490 H 0.57742 0.02987 0.92956 0.0
C1491 C 0.52122 0.01927 0.90052 0.0
C1492 C 0.27045 0.22088 0.35748 0.0
C1493 C 0.2824 0.24333 0.35992 0.0
H1494 H 0.26121 0.18892 0.37503 0.0
C1495 C 0.29566 0.25016 0.38223 0.0
H1496 H 0.26015 0.21506 0.34052 0.0
C1497 C 0.29606 0.23527 0.402 0.0
C1498 C 0.28351 0.21312 0.39978 0.0
H1499 H 0.30507 0.26732 0.38472 0.0
H1500 H 0.30591 0.24121 0.41917 0.0
C1501 C 0.27114 0.20586 0.37718 0.0
C1502 C 0.48559 0.47568 0.92195 0.0
C1503 C 0.49049 0.49501 0.93809 0.0
H1504 H 0.46764 0.46195 0.88795 0.0
C1505 C 0.47993 0.51551 0.93231 0.0
H1506 H 0.49345 0.45962 0.92589 0.0
C1507 C 0.46527 0.51685 0.9106 0.0
C1508 C 0.46083 0.49774 0.89413 0.0
H1509 H 0.48334 0.53073 0.94433 0.0
H1510 H 0.45798 0.53313 0.90639 0.0
C1511 C 0.47096 0.47705 0.90014 0.0
C1512 C 0.72796 0.74459 0.13841 0.0
C1513 C 0.74194 0.7462 0.16102 0.0
H1514 H 0.72193 0.72858 0.1026 0.0
C1515 C 0.76125 0.73245 0.16454 0.0
H1516 H 0.71298 0.75496 0.13508 0.0
C1517 C 0.7664 0.71735 0.14588 0.0
C1518 C 0.75223 0.71554 0.12339 0.0
H1519 H 0.77238 0.7333 0.18174 0.0
H1520 H 0.78121 0.70676 0.14922 0.0
C1521 C 0.733 0.72938 0.11984 0.0
C1522 C 0.00879 0.02844 0.1364 0.0
C1523 C 0.99849 0.03379 0.11315 0.0
H1524 H 0.00292 0.02045 0.17356 0.0
C1525 C 0.97352 0.03463 0.10964 0.0
H1526 H 0.02797 0.02759 0.1397 0.0
C1527 C 0.95921 0.03068 0.12905 0.0
C1528 C 0.96953 0.0258 0.15244 0.0
H1529 H 0.96499 0.03874 0.09197 0.0
H1530 H 0.94011 0.03205 0.12585 0.0
C1531 C 0.99446 0.02451 0.15585 0.0
C1532 C 0.27498 0.77355 0.14244 0.0
C1533 C 0.27514 0.78312 0.16624 0.0
H1534 H 0.27192 0.77951 0.10386 0.0
C1535 C 0.27238 0.80687 0.16911 0.0
H1536 H 0.27708 0.75533 0.13958 0.0
C1537 C 0.26944 0.82072 0.14863 0.0
C1538 C 0.26903 0.8111 0.12482 0.0
H1539 H 0.2724 0.81478 0.18718 0.0
H1540 H 0.26706 0.83889 0.15145 0.0
C1541 C 0.27188 0.78737 0.12196 0.0
C1542 C 0.0161 0.44877 0.1481 0.0
C1543 C 0.00615 0.46715 0.13572 0.0
H1544 H 0.03757 0.43828 0.17927 0.0
C1545 C 0.00922 0.4894 0.14685 0.0
H1546 H 0.01412 0.4314 0.14006 0.0
C1547 C 0.02254 0.4933 0.16954 0.0
C1548 C 0.03309 0.47504 0.18155 0.0
H1549 H 0.00169 0.50392 0.13786 0.0
H1550 H 0.02472 0.51067 0.17758 0.0
C1551 C 0.02944 0.45268 0.17071 0.0
C1552 C 0.36871 0.74832 0.27571 0.0
C1553 C 0.35688 0.7265 0.26852 0.0
H1554 H 0.39867 0.767 0.29651 0.0
C1555 C 0.36761 0.70644 0.27583 0.0
H1556 H 0.36094 0.76411 0.27041 0.0
C1557 C 0.38913 0.70811 0.29074 0.0
C1558 C 0.40053 0.72986 0.29865 0.0
H1559 H 0.3591 0.68934 0.27053 0.0
H1560 H 0.39675 0.69231 0.29628 0.0
C1561 C 0.39035 0.74998 0.29059 0.0
C1562 C 0.99226 0.37608 0.99828 0.0
C1563 C 0.97188 0.37299 0.01147 0.0
H1564 H 0.014 0.36133 0.97307 0.0
C1565 C 0.95674 0.35231 0.00785 0.0
H1566 H 0.0044 0.39174 0.00076 0.0
C1567 C 0.96209 0.33494 0.99169 0.0
C1568 C 0.98281 0.33776 0.97892 0.0
H1569 H 0.94083 0.34945 0.01765 0.0
H1570 H 0.94994 0.31929 0.98919 0.0
C1571 C 0.99772 0.35864 0.98229 0.0
C1572 C 0.65893 0.76562 0.30436 0.0
C1573 C 0.66425 0.78888 0.29831 0.0
H1574 H 0.6354 0.7411 0.32167 0.0
C1575 C 0.64888 0.80538 0.30477 0.0
H1576 H 0.67045 0.7525 0.2997 0.0
C1577 C 0.62879 0.79885 0.31724 0.0
C1578 C 0.62359 0.77566 0.32357 0.0
H1579 H 0.65238 0.82344 0.3003 0.0
H1580 H 0.61722 0.81197 0.32176 0.0
C1581 C 0.6388 0.75908 0.31686 0.0
C1582 C 0.02988 0.09119 0.97723 0.0
C1583 C 0.04585 0.09386 0.9985 0.0
H1584 H 0.01257 0.10761 0.94688 0.0
C1585 C 0.05814 0.11576 0.00434 0.0
H1586 H 0.01999 0.0746 0.97228 0.0
C1587 C 0.05409 0.13468 0.98959 0.0
C1588 C 0.0375 0.13223 0.96875 0.0
H1589 H 0.07067 0.1184 0.02052 0.0
H1590 H 0.06392 0.15128 0.99462 0.0
C1591 C 0.02568 0.11016 0.9626 0.0
C1592 C 0.36826 0.31893 0.26404 0.0
C1593 C 0.34835 0.30223 0.26256 0.0
H1594 H 0.40268 0.32931 0.25158 0.0
C1595 C 0.34789 0.28306 0.24635 0.0
H1596 H 0.36911 0.33393 0.2763 0.0
C1597 C 0.36718 0.28035 0.23238 0.0
C1598 C 0.38718 0.2969 0.23406 0.0
H1599 H 0.33281 0.2699 0.24478 0.0
H1600 H 0.36647 0.26527 0.22024 0.0
C1601 C 0.38741 0.31637 0.24979 0.0
C1602 C 0.55527 0.37924 0.03794 0.0
C1603 C 0.54407 0.39972 0.03398 0.0
H1604 H 0.55722 0.3484 0.05857 0.0
C1605 C 0.52544 0.40451 0.04833 0.0
H1606 H 0.56976 0.37508 0.02729 0.0
C1607 C 0.51804 0.38907 0.06611 0.0
C1608 C 0.52915 0.3685 0.07002 0.0
H1609 H 0.51637 0.4201 0.04567 0.0
H1610 H 0.50333 0.39308 0.07652 0.0
C1611 C 0.54794 0.36385 0.05578 0.0
C1612 C 0.64522 0.29926 0.27769 0.0
C1613 C 0.65564 0.27864 0.28332 0.0
H1614 H 0.61588 0.31483 0.25912 0.0
C1615 C 0.64311 0.25734 0.27536 0.0
H1616 H 0.65438 0.31596 0.28356 0.0
C1617 C 0.62105 0.25671 0.2614 0.0
C1618 C 0.61096 0.27735 0.25516 0.0
H1619 H 0.65055 0.24111 0.27947 0.0
H1620 H 0.61196 0.24003 0.25534 0.0
C1621 C 0.6231 0.29862 0.26379 0.0
C1622 C 0.50199 0.13349 0.07158 0.0
C1623 C 0.47991 0.12359 0.06032 0.0
H1624 H 0.52049 0.16064 0.09469 0.0
C1625 C 0.45883 0.13351 0.06519 0.0
H1626 H 0.5186 0.12638 0.06817 0.0
C1627 C 0.4599 0.15312 0.0807 0.0
C1628 C 0.48206 0.16326 0.09163 0.0
H1629 H 0.44152 0.12625 0.05687 0.0
H1630 H 0.44334 0.16032 0.08416 0.0
C1631 C 0.50306 0.1531 0.08696 0.0
C1632 C 0.26989 0.38242 0.75688 0.0
C1633 C 0.26574 0.37129 0.73367 0.0
H1634 H 0.28867 0.41042 0.77867 0.0
C1635 C 0.27784 0.38061 0.71415 0.0
H1636 H 0.26093 0.3757 0.77235 0.0
C1637 C 0.29368 0.40069 0.71778 0.0
C1638 C 0.29768 0.41187 0.74098 0.0
H1639 H 0.27498 0.37251 0.69602 0.0
H1640 H 0.30254 0.40763 0.70234 0.0
C1641 C 0.28566 0.40246 0.76048 0.0
C1642 C 0.35673 0.67406 0.81294 0.0
C1643 C 0.33529 0.68185 0.8025 0.0
H1644 H 0.3787 0.64586 0.81695 0.0
C1645 C 0.31879 0.66612 0.78847 0.0
H1646 H 0.36986 0.68573 0.82378 0.0
C1647 C 0.32387 0.64321 0.78456 0.0
C1648 C 0.34547 0.63552 0.79473 0.0
H1649 H 0.3021 0.67158 0.78017 0.0
H1650 H 0.31087 0.63151 0.7736 0.0
C1651 C 0.36175 0.65116 0.80912 0.0
C1652 C 0.88844 0.5018 0.49227 0.0
C1653 C 0.90943 0.49849 0.50715 0.0
H1654 H 0.85203 0.4894 0.48108 0.0
C1655 C 0.90921 0.47972 0.52304 0.0
H1656 H 0.88802 0.51605 0.47977 0.0
C1657 C 0.88852 0.46451 0.52391 0.0
C1658 C 0.86756 0.46771 0.50889 0.0
H1659 H 0.92505 0.47672 0.53482 0.0
H1660 H 0.88889 0.45035 0.53651 0.0
C1661 C 0.86775 0.48659 0.49313 0.0
C1662 C 0.7227 0.87378 0.82941 0.0
C1663 C 0.71956 0.85543 0.81195 0.0
H1664 H 0.71218 0.90669 0.84044 0.0
C1665 C 0.70317 0.85687 0.79128 0.0
H1666 H 0.73528 0.8733 0.84548 0.0
C1667 C 0.68976 0.87599 0.78849 0.0
C1668 C 0.69247 0.89406 0.80631 0.0
H1669 H 0.70029 0.84301 0.7775 0.0
H1670 H 0.67679 0.87629 0.77272 0.0
C1671 C 0.70933 0.89287 0.82662 0.0
C1672 C 0.6433 0.50304 0.99606 0.0
C1673 C 0.62281 0.50656 0.00818 0.0
H1674 H 0.67848 0.51648 0.98827 0.0
C1675 C 0.62332 0.52609 0.0239 0.0
H1676 H 0.64348 0.48823 0.98372 0.0
C1677 C 0.64352 0.54219 0.02672 0.0
C1678 C 0.66363 0.53924 0.01374 0.0
H1679 H 0.60791 0.52924 0.03366 0.0
H1680 H 0.64324 0.5571 0.03888 0.0
C1681 C 0.66343 0.51924 0.99873 0.0
C1682 C 0.21802 0.63403 0.24692 0.0
C1683 C 0.23438 0.64403 0.26587 0.0
H1684 H 0.19022 0.6071 0.23615 0.0
C1685 C 0.2341 0.63479 0.2894 0.0
H1686 H 0.2178 0.64073 0.22858 0.0
C1687 C 0.21828 0.6156 0.29374 0.0
C1688 C 0.20233 0.60521 0.27468 0.0
H1689 H 0.24636 0.64214 0.30446 0.0
H1690 H 0.21858 0.60885 0.31206 0.0
C1691 C 0.20215 0.61482 0.25128 0.0
C1692 C 0.88858 0.51724 0.05161 0.0
C1693 C 0.91278 0.5246 0.04928 0.0
H1694 H 0.85253 0.52645 0.05032 0.0
C1695 C 0.91912 0.548 0.04445 0.0
H1696 H 0.88308 0.49931 0.05523 0.0
C1697 C 0.90162 0.56368 0.04195 0.0
C1698 C 0.87736 0.55629 0.04411 0.0
H1699 H 0.93764 0.55427 0.0427 0.0
H1700 H 0.90716 0.58164 0.03853 0.0
C1701 C 0.87107 0.53287 0.04898 0.0
C1702 C 0.11972 0.98322 0.04451 0.0
C1703 C 0.10006 0.98133 0.0267 0.0
H1704 H 0.15365 0.97154 0.05664 0.0
C1705 C 0.10025 0.96602 0.00652 0.0
H1706 H 0.12007 0.99473 0.06037 0.0
C1707 C 0.11969 0.95291 0.00418 0.0
C1708 C 0.13935 0.95466 0.02207 0.0
H1709 H 0.08543 0.96423 0.9924 0.0
H1710 H 0.11941 0.94162 0.98816 0.0
C1711 C 0.13907 0.96998 0.04228 0.0
loop_
_geom_bond_atom_site_label_1
_geom_bond_atom_site_label_2
_geom_bond_distance
_geom_bond_site_symmetry_2
_ccdc_geom_bond_type
O0 Cd1 2.300 . S
O0 C7 1.275 . S
Cd1 O0 2.300 . S
Cd1 O9 2.381 . S
Cd1 O10 2.394 . S
O2 Cd3 2.385 . S
O2 C7 1.255 . S
Cd3 O2 2.385 . S
Cd3 O4 2.317 . S
O4 Cd3 2.317 . S
O4 C5 1.232 1_455 S
C5 O4 1.232 1_655 S
C5 O6 1.218 . S
O6 C5 1.218 . S
C7 O0 1.275 . S
C7 O2 1.255 . S
C8 O9 1.258 1_565 S
C8 O10 1.252 1_565 S
O9 Cd1 2.381 . S
O9 C8 1.258 1_545 S
O10 Cd1 2.394 . S
O10 C8 1.252 1_545 S
O11 Cd12 2.300 . S
O11 C18 1.275 . S
Cd12 O11 2.300 . S
Cd12 O20 2.381 . S
Cd12 O21 2.378 . S
O13 Cd14 2.385 . S
O13 C18 1.255 . S
Cd14 O13 2.385 . S
Cd14 O15 2.317 . S
O15 Cd14 2.317 . S
O15 C16 1.232 . S
C16 O15 1.232 . S
C16 O17 1.218 . S
O17 C16 1.218 . S
C18 O11 1.275 . S
C18 O13 1.255 . S
C19 O20 1.258 . S
C19 O21 1.256 . S
O20 Cd12 2.381 . S
O20 C19 1.258 . S
O21 Cd12 2.378 . S
O21 C19 1.256 . S
O22 Cd23 2.300 . S
O22 C29 1.275 . S
Cd23 O22 2.300 . S
Cd23 O31 2.381 . S
Cd23 O32 2.378 . S
O24 Cd25 2.365 1_655 S
O24 C29 1.273 . S
Cd25 O24 2.365 1_455 S
Cd25 O26 2.317 1_455 S
O26 Cd25 2.317 1_655 S
O26 C27 1.232 . S
C27 O26 1.232 . S
C27 O28 1.218 1_655 S
O28 C27 1.218 1_455 S
C29 O22 1.275 . S
C29 O24 1.273 . S
C30 O31 1.258 . S
C30 O32 1.256 . S
O31 Cd23 2.381 . S
O31 C30 1.258 . S
O32 Cd23 2.378 . S
O32 C30 1.256 . S
O33 Cd34 2.300 . S
O33 C40 1.275 . S
Cd34 O33 2.300 . S
Cd34 O42 2.381 . S
Cd34 O43 2.378 . S
O35 Cd36 2.385 . S
O35 C40 1.255 . S
Cd36 O35 2.385 . S
Cd36 O37 2.317 . S
O37 Cd36 2.317 . S
O37 C38 1.232 . S
C38 O37 1.232 . S
C38 O39 1.218 . S
O39 C38 1.218 . S
C40 O33 1.275 . S
C40 O35 1.255 . S
C41 O42 1.258 . S
C41 O43 1.256 . S
O42 Cd34 2.381 . S
O42 C41 1.258 . S
O43 Cd34 2.378 . S
O43 C41 1.256 . S
O44 Cd45 2.300 . S
O44 C51 1.275 1_565 S
Cd45 O44 2.300 . S
Cd45 O53 2.381 . S
Cd45 O54 2.378 . S
O46 Cd47 2.385 . S
O46 C51 1.255 . S
Cd47 O46 2.385 . S
Cd47 O48 2.317 1_545 S
O48 Cd47 2.317 1_565 S
O48 C49 1.232 1_565 S
C49 O48 1.232 1_545 S
C49 O50 1.218 . S
O50 C49 1.218 . S
C51 O44 1.275 1_545 S
C51 O46 1.255 . S
C52 O53 1.258 . S
C52 O54 1.256 . S
O53 Cd45 2.381 . S
O53 C52 1.258 . S
O54 Cd45 2.378 . S
O54 C52 1.256 . S
O55 Cd56 2.300 . S
O55 C62 1.275 . S
Cd56 O55 2.300 . S
Cd56 O64 2.381 . S
Cd56 O65 2.378 . S
O57 Cd58 2.385 . S
O57 C62 1.255 . S
Cd58 O57 2.385 . S
Cd58 O59 2.317 . S
O59 Cd58 2.317 . S
O59 C60 1.232 . S
C60 O59 1.232 . S
C60 O61 1.218 . S
O61 C60 1.218 . S
C62 O55 1.275 . S
C62 O57 1.255 . S
C63 O64 1.258 . S
C63 O65 1.256 . S
O64 Cd56 2.381 . S
O64 C63 1.258 . S
O65 Cd56 2.378 . S
O65 C63 1.256 . S
O66 Cd67 2.300 . S
O66 C73 1.275 1_655 S
Cd67 O66 2.300 . S
Cd67 O75 2.381 . S
Cd67 O76 2.378 . S
O68 Cd69 2.385 . S
O68 C73 1.255 . S
Cd69 O68 2.385 . S
Cd69 O70 2.344 . S
O70 Cd69 2.344 . S
O70 C71 1.249 . S
C71 O70 1.249 . S
C71 O72 1.218 . S
O72 C71 1.218 . S
C73 O66 1.275 1_455 S
C73 O68 1.255 . S
C74 O75 1.258 . S
C74 O76 1.256 . S
O75 Cd67 2.381 . S
O75 C74 1.258 . S
O76 Cd67 2.378 . S
O76 C74 1.256 . S
O77 Cd78 2.300 . S
O77 C84 1.275 . S
Cd78 O77 2.300 . S
Cd78 O86 2.381 . S
Cd78 O87 2.378 . S
O79 Cd80 2.385 . S
O79 C84 1.255 . S
Cd80 O79 2.385 . S
Cd80 O81 2.317 . S
O81 Cd80 2.317 . S
O81 C82 1.232 . S
C82 O81 1.232 . S
C82 O83 1.218 . S
O83 C82 1.218 . S
C84 O77 1.275 . S
C84 O79 1.255 . S
C85 O86 1.258 . S
C85 O87 1.256 . S
O86 Cd78 2.381 . S
O86 C85 1.258 . S
O87 Cd78 2.378 . S
O87 C85 1.256 . S
O88 Cd89 2.300 . S
O88 C95 1.275 . S
Cd89 O88 2.300 . S
Cd89 O97 2.381 . S
Cd89 O98 2.378 . S
O90 Cd91 2.385 . S
O90 C95 1.255 . S
Cd91 O90 2.385 . S
Cd91 O92 2.317 . S
O92 Cd91 2.317 . S
O92 C93 1.232 . S
C93 O92 1.232 . S
C93 O94 1.218 . S
O94 C93 1.218 . S
C95 O88 1.275 . S
C95 O90 1.255 . S
C96 O97 1.258 . S
C96 O98 1.256 . S
O97 Cd89 2.381 . S
O97 C96 1.258 . S
O98 Cd89 2.378 . S
O98 C96 1.256 . S
O99 Cd100 2.300 1_565 S
O99 C106 1.275 . S
Cd100 O99 2.300 1_545 S
Cd100 O108 2.381 . S
Cd100 O109 2.378 . S
O101 Cd102 2.385 . S
O101 C106 1.255 . S
Cd102 O101 2.385 . S
Cd102 O103 2.317 . S
O103 Cd102 2.317 . S
O103 C104 1.232 . S
C104 O103 1.232 . S
C104 O105 1.218 . S
O105 C104 1.218 . S
C106 O99 1.275 . S
C106 O101 1.255 . S
C107 O108 1.258 . S
C107 O109 1.256 . S
O108 Cd100 2.381 . S
O108 C107 1.258 . S
O109 Cd100 2.378 . S
O109 C107 1.256 . S
O110 Cd111 2.300 . S
O110 C117 1.275 . S
Cd111 O110 2.300 . S
Cd111 O119 2.381 . S
Cd111 O120 2.378 . S
O112 Cd113 2.385 . S
O112 C117 1.255 . S
Cd113 O112 2.385 . S
Cd113 O114 2.317 . S
O114 Cd113 2.317 . S
O114 C115 1.232 . S
C115 O114 1.232 . S
C115 O116 1.218 . S
O116 C115 1.218 . S
C117 O110 1.275 . S
C117 O112 1.255 . S
C118 O119 1.258 . S
C118 O120 1.256 . S
O119 Cd111 2.381 . S
O119 C118 1.258 . S
O120 Cd111 2.378 . S
O120 C118 1.256 . S
O121 Cd122 2.300 . S
O121 C128 1.275 . S
Cd122 O121 2.300 . S
Cd122 O130 2.381 . S
Cd122 O131 2.378 . S
O123 Cd124 2.385 . S
O123 C128 1.255 . S
Cd124 O123 2.385 . S
Cd124 O125 2.317 . S
O125 Cd124 2.317 . S
O125 C126 1.232 . S
C126 O125 1.232 . S
C126 O127 1.218 . S
O127 C126 1.218 . S
C128 O121 1.275 . S
C128 O123 1.255 . S
C129 O130 1.258 . S
C129 O131 1.256 . S
O130 Cd122 2.381 . S
O130 C129 1.258 . S
O131 Cd122 2.378 . S
O131 C129 1.256 . S
O132 Cd133 2.300 . S
O132 C139 1.275 . S
Cd133 O132 2.300 . S
Cd133 O141 2.381 . S
Cd133 O142 2.378 . S
O134 Cd135 2.385 . S
O134 C139 1.255 . S
Cd135 O134 2.385 . S
Cd135 O136 2.317 . S
O136 Cd135 2.317 . S
O136 C137 1.232 . S
C137 O136 1.232 . S
C137 O138 1.218 . S
O138 C137 1.218 . S
C139 O132 1.275 . S
C139 O134 1.255 . S
C140 O141 1.258 . S
C140 O142 1.256 . S
O141 Cd133 2.381 . S
O141 C140 1.258 . S
O142 Cd133 2.378 . S
O142 C140 1.256 . S
O143 Cd144 2.300 1_556 S
O143 C150 1.275 . S
Cd144 O143 2.300 1_554 S
Cd144 O152 2.381 . S
Cd144 O153 2.378 . S
O145 Cd146 2.385 . S
O145 C150 1.255 . S
Cd146 O145 2.385 . S
Cd146 O147 2.317 . S
O147 Cd146 2.317 . S
O147 C148 1.232 . S
C148 O147 1.232 . S
C148 O149 1.218 . S
O149 C148 1.218 . S
C150 O143 1.275 . S
C150 O145 1.255 . S
C151 O152 1.258 . S
C151 O153 1.256 . S
O152 Cd144 2.381 . S
O152 C151 1.258 . S
O153 Cd144 2.378 . S
O153 C151 1.256 . S
O154 Cd155 2.300 . S
O154 C161 1.275 . S
Cd155 O154 2.300 . S
Cd155 O163 2.381 . S
Cd155 O164 2.378 . S
O156 Cd157 2.385 . S
O156 C161 1.255 . S
Cd157 O156 2.385 . S
Cd157 O158 2.317 . S
O158 Cd157 2.317 . S
O158 C159 1.232 . S
C159 O158 1.232 . S
C159 O160 1.218 . S
O160 C159 1.218 . S
C161 O154 1.275 . S
C161 O156 1.255 . S
C162 O163 1.258 . S
C162 O164 1.256 . S
O163 Cd155 2.381 . S
O163 C162 1.258 . S
O164 Cd155 2.378 . S
O164 C162 1.256 . S
O165 Cd166 2.300 1_556 S
O165 C172 1.275 . S
Cd166 O165 2.300 1_554 S
Cd166 O174 2.381 1_544 S
Cd166 O175 2.378 1_545 S
O167 Cd168 2.385 1_556 S
O167 C172 1.255 . S
Cd168 O167 2.385 1_554 S
Cd168 O169 2.317 . S
O169 Cd168 2.317 . S
O169 C170 1.232 . S
C170 O169 1.232 . S
C170 O171 1.218 . S
O171 C170 1.218 . S
C172 O165 1.275 . S
C172 O167 1.255 . S
C173 O174 1.258 1_554 S
C173 O175 1.256 . S
O174 Cd166 2.381 1_566 S
O174 C173 1.258 1_556 S
O175 Cd166 2.378 1_565 S
O175 C173 1.256 . S
Li176 N193 1.989 1_554 S
Li176 O236 1.956 . S
Li176 O237 1.970 . S
Li176 O238 1.961 1_554 S
Li177 N201 1.990 . S
Li177 O236 1.970 . S
Li177 O237 1.956 . S
Li177 O239 1.961 . S
Li178 N223 1.990 . S
Li178 O236 1.961 1_556 S
Li178 O238 1.956 . S
Li178 O239 1.970 1_556 S
Li179 N229 1.990 . S
Li179 O237 1.961 . S
Li179 O238 1.970 1_554 S
Li179 O239 1.956 . S
C180 C182 1.367 . S
C180 C183 1.333 1_554 S
C180 O236 1.328 . S
N181 C184 1.314 1_556 S
N181 C185 1.279 . S
C182 C180 1.367 . S
C182 C184 1.353 . S
C182 H240 0.929 . S
C183 C180 1.333 1_556 S
C183 C185 1.358 . S
C183 H241 0.930 . S
C184 N181 1.314 1_554 S
C184 C182 1.353 . S
C184 H242 0.930 . S
C185 N181 1.279 . S
C185 C183 1.358 . S
C185 H243 0.930 . S
C186 C189 1.348 . S
C186 C190 1.356 . S
C186 O237 1.325 . S
C187 N188 1.279 . S
C187 C190 1.358 . S
C187 H244 0.930 . S
N188 C187 1.279 . S
N188 C191 1.314 . S
C189 C186 1.348 . S
C189 C191 1.353 . S
C189 H245 0.929 . S
C190 C186 1.356 . S
C190 C187 1.358 . S
C190 H246 0.930 . S
C191 N188 1.314 . S
C191 C189 1.353 . S
C191 H247 0.930 . S
C192 N193 1.316 . S
C192 C197 1.353 . S
C192 H198 0.930 . S
N193 Li176 1.989 1_556 S
N193 C192 1.316 . S
N193 C195 1.278 1_556 S
C194 C195 1.358 . S
C194 C196 1.356 . S
C194 H248 0.930 . S
C195 N193 1.278 1_554 S
C195 C194 1.358 . S
C195 H199 0.930 . S
C196 C194 1.356 . S
C196 C197 1.348 1_554 S
C197 C192 1.353 . S
C197 C196 1.348 1_556 S
C197 H249 0.929 . S
H198 C192 0.930 . S
H199 C195 0.930 . S
C200 N201 1.314 . S
C200 C202 1.353 . S
C200 H206 0.930 . S
N201 Li177 1.990 . S
N201 C200 1.314 . S
N201 C204 1.279 . S
C202 C200 1.353 . S
C202 C205 1.348 . S
C202 H250 0.929 . S
C203 C204 1.358 . S
C203 C205 1.356 . S
C203 H251 0.930 . S
C204 N201 1.279 . S
C204 C203 1.358 . S
C204 H207 0.930 . S
C205 C202 1.348 . S
C205 C203 1.356 . S
H206 C200 0.930 . S
H207 C204 0.930 . S
C208 C210 1.348 . S
C208 C211 1.356 . S
C208 O238 1.325 . S
N209 C212 1.314 . S
N209 C213 1.279 . S
C210 C208 1.348 . S
C210 C212 1.353 . S
C210 H252 0.929 . S
C211 C208 1.356 . S
C211 C213 1.358 . S
C211 H253 0.930 . S
C212 N209 1.314 . S
C212 C210 1.353 . S
C212 H254 0.930 . S
C213 N209 1.279 . S
C213 C211 1.358 . S
C213 H255 0.930 . S
C214 C215 1.348 1_554 S
C214 C216 1.356 . S
C214 O239 1.325 . S
C215 C214 1.348 1_556 S
C215 C217 1.353 . S
C215 H256 0.929 . S
C216 C214 1.356 . S
C216 C218 1.358 . S
C216 H257 0.930 . S
C217 C215 1.353 . S
C217 N219 1.314 1_556 S
C217 H258 0.930 . S
C218 C216 1.358 . S
C218 N219 1.279 . S
C218 H259 0.930 . S
N219 C217 1.314 1_554 S
N219 C218 1.279 . S
C220 C222 1.353 . S
C220 N223 1.314 . S
C220 H226 0.930 . S
C221 N223 1.279 . S
C221 C224 1.358 . S
C221 H227 0.930 . S
C222 C220 1.353 . S
C222 C225 1.348 . S
C222 H260 0.929 . S
N223 Li178 1.990 . S
N223 C220 1.314 . S
N223 C221 1.279 . S
C224 C221 1.358 . S
C224 C225 1.356 . S
C224 H261 0.930 . S
C225 C222 1.348 . S
C225 C224 1.356 . S
H226 C220 0.930 . S
H227 C221 0.930 . S
C228 N229 1.314 . S
C228 C230 1.353 . S
C228 H234 0.930 . S
N229 Li179 1.990 . S
N229 C228 1.314 . S
N229 C232 1.279 . S
C230 C228 1.353 . S
C230 C233 1.348 . S
C230 H262 0.929 . S
C231 C232 1.358 . S
C231 C233 1.356 . S
C231 H263 0.930 . S
C232 N229 1.279 . S
C232 C231 1.358 . S
C232 H235 0.938 . S
C233 C230 1.348 . S
C233 C231 1.356 . S
H234 C228 0.930 . S
H235 C232 0.938 . S
O236 Li176 1.956 . S
O236 Li177 1.970 . S
O236 Li178 1.961 1_554 S
O236 C180 1.328 . S
O237 Li176 1.970 . S
O237 Li177 1.956 . S
O237 Li179 1.961 . S
O237 C186 1.325 . S
O238 Li176 1.961 1_556 S
O238 Li178 1.956 . S
O238 Li179 1.970 1_556 S
O238 C208 1.325 . S
O239 Li177 1.961 . S
O239 Li178 1.970 1_554 S
O239 Li179 1.956 . S
O239 C214 1.325 . S
H240 C182 0.929 . S
H241 C183 0.930 . S
H242 C184 0.930 . S
H243 C185 0.930 . S
H244 C187 0.930 . S
H245 C189 0.929 . S
H246 C190 0.930 . S
H247 C191 0.930 . S
H248 C194 0.930 . S
H249 C197 0.929 . S
H250 C202 0.929 . S
H251 C203 0.930 . S
H252 C210 0.929 . S
H253 C211 0.930 . S
H254 C212 0.930 . S
H255 C213 0.930 . S
H256 C215 0.929 . S
H257 C216 0.930 . S
H258 C217 0.930 . S
H259 C218 0.930 . S
H260 C222 0.929 . S
H261 C224 0.930 . S
H262 C230 0.929 . S
H263 C231 0.930 . S
Li264 N281 1.990 . S
Li264 O324 1.956 . S
Li264 O325 1.970 . S
Li264 O326 1.961 . S
Li265 N289 1.990 . S
Li265 O324 1.970 . S
Li265 O325 1.956 . S
Li265 O327 1.961 . S
Li266 N311 1.990 . S
Li266 O324 1.961 . S
Li266 O326 1.956 . S
Li266 O327 1.970 . S
Li267 N317 1.990 . S
Li267 O325 1.961 . S
Li267 O326 1.970 . S
Li267 O327 1.956 . S
C268 C270 1.348 . S
C268 C271 1.356 . S
C268 O324 1.325 . S
N269 C272 1.314 . S
N269 C273 1.279 . S
C270 C268 1.348 . S
C270 C272 1.353 . S
C270 H328 0.929 . S
C271 C268 1.356 . S
C271 C273 1.358 . S
C271 H329 0.930 . S
C272 N269 1.314 . S
C272 C270 1.353 . S
C272 H330 0.930 . S
C273 N269 1.279 . S
C273 C271 1.358 . S
C273 H331 0.930 . S
C274 C277 1.348 . S
C274 C278 1.356 . S
C274 O325 1.325 . S
C275 N276 1.279 . S
C275 C278 1.358 . S
C275 H332 0.930 . S
N276 C275 1.279 . S
N276 C279 1.314 . S
C277 C274 1.348 . S
C277 C279 1.353 . S
C277 H333 0.929 . S
C278 C274 1.356 . S
C278 C275 1.358 . S
C278 H334 0.930 . S
C279 N276 1.314 . S
C279 C277 1.353 . S
C279 H335 0.930 . S
C280 N281 1.314 . S
C280 C285 1.353 . S
C280 H286 0.930 . S
N281 Li264 1.990 . S
N281 C280 1.314 . S
N281 C283 1.279 . S
C282 C283 1.358 . S
C282 C284 1.356 . S
C282 H336 0.930 . S
C283 N281 1.279 . S
C283 C282 1.358 . S
C283 H287 0.930 . S
C284 C282 1.356 . S
C284 C285 1.348 . S
C285 C280 1.353 . S
C285 C284 1.348 . S
C285 H337 0.929 . S
H286 C280 0.930 . S
H287 C283 0.930 . S
C288 N289 1.314 . S
C288 C290 1.353 . S
C288 H294 0.930 . S
N289 Li265 1.990 . S
N289 C288 1.314 . S
N289 C292 1.279 . S
C290 C288 1.353 . S
C290 C293 1.348 . S
C290 H338 0.929 . S
C291 C292 1.358 . S
C291 C293 1.356 . S
C291 H339 0.930 . S
C292 N289 1.279 . S
C292 C291 1.358 . S
C292 H295 0.930 . S
C293 C290 1.348 . S
C293 C291 1.356 . S
H294 C288 0.930 . S
H295 C292 0.930 . S
C296 C298 1.348 . S
C296 C299 1.356 . S
C296 O326 1.325 . S
N297 C300 1.314 . S
N297 C301 1.279 . S
C298 C296 1.348 . S
C298 C300 1.353 . S
C298 H340 0.929 . S
C299 C296 1.356 . S
C299 C301 1.358 . S
C299 H341 0.930 . S
C300 N297 1.314 . S
C300 C298 1.353 . S
C300 H342 0.930 . S
C301 N297 1.279 . S
C301 C299 1.358 . S
C301 H343 0.930 . S
C302 C303 1.348 . S
C302 C304 1.356 . S
C302 O327 1.325 . S
C303 C302 1.348 . S
C303 C305 1.353 . S
C303 H344 0.929 . S
C304 C302 1.356 . S
C304 C306 1.358 . S
C304 H345 0.930 . S
C305 C303 1.353 . S
C305 N307 1.314 . S
C305 H346 0.930 . S
C306 C304 1.358 . S
C306 N307 1.279 . S
C306 H347 0.930 . S
N307 C305 1.314 . S
N307 C306 1.279 . S
C308 C310 1.353 . S
C308 N311 1.314 . S
C308 H314 0.930 . S
C309 N311 1.279 . S
C309 C312 1.358 . S
C309 H315 0.930 . S
C310 C308 1.353 . S
C310 C313 1.348 . S
C310 H348 0.929 . S
N311 Li266 1.990 . S
N311 C308 1.314 . S
N311 C309 1.279 . S
C312 C309 1.358 . S
C312 C313 1.356 . S
C312 H349 0.930 . S
C313 C310 1.348 . S
C313 C312 1.356 . S
H314 C308 0.930 . S
H315 C309 0.930 . S
C316 N317 1.314 . S
C316 C318 1.353 . S
C316 H322 0.930 . S
N317 Li267 1.990 . S
N317 C316 1.314 . S
N317 C320 1.279 . S
C318 C316 1.353 . S
C318 C321 1.348 . S
C318 H350 0.929 . S
C319 C320 1.358 . S
C319 C321 1.356 . S
C319 H351 0.930 . S
C320 N317 1.279 . S
C320 C319 1.358 . S
C320 H323 0.930 . S
C321 C318 1.348 . S
C321 C319 1.356 . S
H322 C316 0.930 . S
H323 C320 0.930 . S
O324 Li264 1.956 . S
O324 Li265 1.970 . S
O324 Li266 1.961 . S
O324 C268 1.325 . S
O325 Li264 1.970 . S
O325 Li265 1.956 . S
O325 Li267 1.961 . S
O325 C274 1.325 . S
O326 Li264 1.961 . S
O326 Li266 1.956 . S
O326 Li267 1.970 . S
O326 C296 1.325 . S
O327 Li265 1.961 . S
O327 Li266 1.970 . S
O327 Li267 1.956 . S
O327 C302 1.325 . S
H328 C270 0.929 . S
H329 C271 0.930 . S
H330 C272 0.930 . S
H331 C273 0.930 . S
H332 C275 0.930 . S
H333 C277 0.929 . S
H334 C278 0.930 . S
H335 C279 0.930 . S
H336 C282 0.930 . S
H337 C285 0.929 . S
H338 C290 0.929 . S
H339 C291 0.930 . S
H340 C298 0.929 . S
H341 C299 0.930 . S
H342 C300 0.930 . S
H343 C301 0.930 . S
H344 C303 0.929 . S
H345 C304 0.930 . S
H346 C305 0.930 . S
H347 C306 0.930 . S
H348 C310 0.929 . S
H349 C312 0.930 . S
H350 C318 0.929 . S
H351 C319 0.930 . S
Li352 N369 1.990 . S
Li352 O412 1.956 . S
Li352 O413 1.970 1_556 S
Li352 O414 1.961 . S
Li353 N377 1.990 . S
Li353 O412 1.970 1_554 S
Li353 O413 1.956 . S
Li353 O415 1.961 . S
Li354 N399 1.990 . S
Li354 O412 1.961 . S
Li354 O414 1.956 . S
Li354 O415 1.970 1_556 S
Li355 N405 1.990 . S
Li355 O413 1.961 . S
Li355 O414 1.970 1_554 S
Li355 O415 1.956 . S
C356 C358 1.348 1_556 S
C356 C359 1.356 . S
C356 O412 1.325 . S
N357 C360 1.314 1_556 S
N357 C361 1.279 . S
C358 C356 1.348 1_554 S
C358 C360 1.353 . S
C358 H416 0.929 . S
C359 C356 1.356 . S
C359 C361 1.358 . S
C359 H417 0.930 . S
C360 N357 1.314 1_554 S
C360 C358 1.353 . S
C360 H418 0.930 . S
C361 N357 1.279 . S
C361 C359 1.358 . S
C361 H419 0.930 . S
C362 C365 1.348 . S
C362 C366 1.356 . S
C362 O413 1.325 . S
C363 N364 1.279 . S
C363 C366 1.358 . S
C363 H420 0.930 . S
N364 C363 1.279 . S
N364 C367 1.314 . S
C365 C362 1.348 . S
C365 C367 1.353 . S
C365 H421 0.929 . S
C366 C362 1.356 . S
C366 C363 1.358 . S
C366 H422 0.930 . S
C367 N364 1.314 . S
C367 C365 1.353 . S
C367 H423 0.930 . S
C368 N369 1.314 . S
C368 C373 1.353 . S
C368 H374 0.930 . S
N369 Li352 1.990 . S
N369 C368 1.314 . S
N369 C371 1.279 . S
C370 C371 1.358 . S
C370 C372 1.356 . S
C370 H424 0.930 . S
C371 N369 1.279 . S
C371 C370 1.358 . S
C371 H375 0.930 . S
C372 C370 1.356 . S
C372 C373 1.348 . S
C373 C368 1.353 . S
C373 C372 1.348 . S
C373 H425 0.929 . S
H374 C368 0.930 . S
H375 C371 0.930 . S
C376 N377 1.314 . S
C376 C378 1.353 . S
C376 H382 0.930 . S
N377 Li353 1.990 . S
N377 C376 1.314 . S
N377 C380 1.279 . S
C378 C376 1.353 . S
C378 C381 1.348 . S
C378 H426 0.929 . S
C379 C380 1.358 . S
C379 C381 1.356 . S
C379 H427 0.930 . S
C380 N377 1.279 . S
C380 C379 1.358 . S
C380 H383 0.930 . S
C381 C378 1.348 . S
C381 C379 1.356 . S
H382 C376 0.930 . S
H383 C380 0.930 . S
C384 C386 1.348 . S
C384 C387 1.356 . S
C384 O414 1.325 . S
N385 C388 1.314 . S
N385 C389 1.279 . S
C386 C384 1.348 . S
C386 C388 1.353 . S
C386 H428 0.929 . S
C387 C384 1.356 . S
C387 C389 1.358 . S
C387 H429 0.930 . S
C388 N385 1.314 . S
C388 C386 1.353 . S
C388 H430 0.930 . S
C389 N385 1.279 . S
C389 C387 1.358 . S
C389 H431 0.930 . S
C390 C391 1.348 1_554 S
C390 C392 1.356 . S
C390 O415 1.325 . S
C391 C390 1.348 1_556 S
C391 C393 1.353 1_556 S
C391 H432 0.929 . S
C392 C390 1.356 . S
C392 C394 1.358 . S
C392 H433 0.930 . S
C393 C391 1.353 1_554 S
C393 N395 1.314 . S
C393 H434 0.930 1_554 S
C394 C392 1.358 . S
C394 N395 1.279 . S
C394 H435 0.930 . S
N395 C393 1.314 . S
N395 C394 1.279 . S
C396 C398 1.353 . S
C396 N399 1.314 . S
C396 H402 0.930 . S
C397 N399 1.279 . S
C397 C400 1.358 . S
C397 H403 0.930 . S
C398 C396 1.353 . S
C398 C401 1.348 . S
C398 H436 0.929 . S
N399 Li354 1.990 . S
N399 C396 1.314 . S
N399 C397 1.279 . S
C400 C397 1.358 . S
C400 C401 1.356 . S
C400 H437 0.930 . S
C401 C398 1.348 . S
C401 C400 1.356 . S
H402 C396 0.930 . S
H403 C397 0.930 . S
C404 N405 1.314 . S
C404 C406 1.353 . S
C404 H410 0.930 . S
N405 Li355 1.990 . S
N405 C404 1.314 . S
N405 C408 1.279 . S
C406 C404 1.353 . S
C406 C409 1.348 . S
C406 H438 0.929 . S
C407 C408 1.358 . S
C407 C409 1.356 . S
C407 H439 0.930 . S
C408 N405 1.279 . S
C408 C407 1.358 . S
C408 H411 0.930 . S
C409 C406 1.348 . S
C409 C407 1.356 . S
H410 C404 0.930 . S
H411 C408 0.930 . S
O412 Li352 1.956 . S
O412 Li353 1.970 1_556 S
O412 Li354 1.961 . S
O412 C356 1.325 . S
O413 Li352 1.970 1_554 S
O413 Li353 1.956 . S
O413 Li355 1.961 . S
O413 C362 1.325 . S
O414 Li352 1.961 . S
O414 Li354 1.956 . S
O414 Li355 1.970 1_556 S
O414 C384 1.325 . S
O415 Li353 1.961 . S
O415 Li354 1.970 1_554 S
O415 Li355 1.956 . S
O415 C390 1.325 . S
H416 C358 0.929 . S
H417 C359 0.930 . S
H418 C360 0.930 . S
H419 C361 0.930 . S
H420 C363 0.930 . S
H421 C365 0.929 . S
H422 C366 0.930 . S
H423 C367 0.930 . S
H424 C370 0.930 . S
H425 C373 0.929 . S
H426 C378 0.929 . S
H427 C379 0.930 . S
H428 C386 0.929 . S
H429 C387 0.930 . S
H430 C388 0.930 . S
H431 C389 0.930 . S
H432 C391 0.929 . S
H433 C392 0.930 . S
H434 C393 0.930 1_556 S
H435 C394 0.930 . S
H436 C398 0.929 . S
H437 C400 0.930 . S
H438 C406 0.929 . S
H439 C407 0.930 . S
Li440 N457 1.990 . S
Li440 O500 1.956 . S
Li440 O501 1.970 . S
Li440 O502 1.961 . S
Li441 N465 1.990 . S
Li441 O500 1.970 . S
Li441 O501 1.956 . S
Li441 O503 1.961 1_545 S
Li442 N487 1.990 . S
Li442 O500 1.961 . S
Li442 O502 1.956 . S
Li442 O503 1.970 1_545 S
Li443 N493 1.990 . S
Li443 O501 1.961 1_565 S
Li443 O502 1.970 1_565 S
Li443 O503 1.956 . S
C444 C446 1.348 . S
C444 C447 1.356 . S
C444 O500 1.325 . S
N445 C448 1.314 . S
N445 C449 1.279 . S
C446 C444 1.348 . S
C446 C448 1.353 . S
C446 H504 0.929 . S
C447 C444 1.356 . S
C447 C449 1.358 . S
C447 H505 0.930 . S
C448 N445 1.314 . S
C448 C446 1.353 . S
C448 H506 0.930 . S
C449 N445 1.279 . S
C449 C447 1.358 . S
C449 H507 0.930 . S
C450 C453 1.348 . S
C450 C454 1.356 1_545 S
C450 O501 1.325 . S
C451 N452 1.279 1_565 S
C451 C454 1.358 . S
C451 H508 0.930 . S
N452 C451 1.279 1_545 S
N452 C455 1.314 . S
C453 C450 1.348 . S
C453 C455 1.353 . S
C453 H509 0.929 . S
C454 C450 1.356 1_565 S
C454 C451 1.358 . S
C454 H510 0.930 . S
C455 N452 1.314 . S
C455 C453 1.353 . S
C455 H511 0.930 . S
C456 N457 1.314 . S
C456 C461 1.353 . S
C456 H462 0.930 . S
N457 Li440 1.990 . S
N457 C456 1.314 . S
N457 C459 1.279 . S
C458 C459 1.358 . S
C458 C460 1.356 . S
C458 H512 0.930 . S
C459 N457 1.279 . S
C459 C458 1.358 . S
C459 H463 0.930 . S
C460 C458 1.356 . S
C460 C461 1.348 . S
C461 C456 1.353 . S
C461 C460 1.348 . S
C461 H513 0.929 . S
H462 C456 0.930 . S
H463 C459 0.930 . S
C464 N465 1.314 . S
C464 C466 1.353 . S
C464 H470 0.930 . S
N465 Li441 1.990 . S
N465 C464 1.314 . S
N465 C468 1.279 . S
C466 C464 1.353 . S
C466 C469 1.348 . S
C466 H514 0.929 1_545 S
C467 C468 1.358 . S
C467 C469 1.356 . S
C467 H515 0.930 . S
C468 N465 1.279 . S
C468 C467 1.358 . S
C468 H471 0.930 . S
C469 C466 1.348 . S
C469 C467 1.356 . S
H470 C464 0.930 . S
H471 C468 0.930 . S
C472 C474 1.348 . S
C472 C475 1.356 . S
C472 O502 1.325 . S
N473 C476 1.314 . S
N473 C477 1.279 . S
C474 C472 1.348 . S
C474 C476 1.353 . S
C474 H516 0.929 1_545 S
C475 C472 1.356 . S
C475 C477 1.358 . S
C475 H517 0.930 . S
C476 N473 1.314 . S
C476 C474 1.353 . S
C476 H518 0.930 1_545 S
C477 N473 1.279 . S
C477 C475 1.358 . S
C477 H519 0.930 . S
C478 C479 1.348 . S
C478 C480 1.356 . S
C478 O503 1.325 . S
C479 C478 1.348 . S
C479 C481 1.353 . S
C479 H520 0.929 . S
C480 C478 1.356 . S
C480 C482 1.358 . S
C480 H521 0.930 . S
C481 C479 1.353 . S
C481 N483 1.314 . S
C481 H522 0.930 . S
C482 C480 1.358 . S
C482 N483 1.279 . S
C482 H523 0.930 . S
N483 C481 1.314 . S
N483 C482 1.279 . S
C484 C486 1.353 . S
C484 N487 1.314 . S
C484 H490 0.930 . S
C485 N487 1.279 . S
C485 C488 1.358 . S
C485 H491 0.930 . S
C486 C484 1.353 . S
C486 C489 1.348 . S
C486 H524 0.929 . S
N487 Li442 1.990 . S
N487 C484 1.314 . S
N487 C485 1.279 . S
C488 C485 1.358 . S
C488 C489 1.356 . S
C488 H525 0.930 . S
C489 C486 1.348 . S
C489 C488 1.356 . S
H490 C484 0.930 . S
H491 C485 0.930 . S
C492 N493 1.314 . S
C492 C494 1.353 . S
C492 H498 0.930 . S
N493 Li443 1.990 . S
N493 C492 1.314 . S
N493 C496 1.279 . S
C494 C492 1.353 . S
C494 C497 1.348 . S
C494 H526 0.929 . S
C495 C496 1.358 . S
C495 C497 1.356 . S
C495 H527 0.930 . S
C496 N493 1.279 . S
C496 C495 1.358 . S
C496 H499 0.930 . S
C497 C494 1.348 . S
C497 C495 1.356 . S
H498 C492 0.930 . S
H499 C496 0.930 . S
O500 Li440 1.956 . S
O500 Li441 1.970 . S
O500 Li442 1.961 . S
O500 C444 1.325 . S
O501 Li440 1.970 . S
O501 Li441 1.956 . S
O501 Li443 1.961 1_545 S
O501 C450 1.325 . S
O502 Li440 1.961 . S
O502 Li442 1.956 . S
O502 Li443 1.970 1_545 S
O502 C472 1.325 . S
O503 Li441 1.961 1_565 S
O503 Li442 1.970 1_565 S
O503 Li443 1.956 . S
O503 C478 1.325 . S
H504 C446 0.929 . S
H505 C447 0.930 . S
H506 C448 0.930 . S
H507 C449 0.930 . S
H508 C451 0.930 . S
H509 C453 0.929 . S
H510 C454 0.930 . S
H511 C455 0.930 . S
H512 C458 0.930 . S
H513 C461 0.929 . S
H514 C466 0.929 1_565 S
H515 C467 0.930 . S
H516 C474 0.929 1_565 S
H517 C475 0.930 . S
H518 C476 0.930 1_565 S
H519 C477 0.930 . S
H520 C479 0.929 . S
H521 C480 0.930 . S
H522 C481 0.930 . S
H523 C482 0.930 . S
H524 C486 0.929 . S
H525 C488 0.930 . S
H526 C494 0.929 . S
H527 C495 0.930 . S
Li528 N545 1.990 . S
Li528 O588 1.956 . S
Li528 O589 1.970 . S
Li528 O590 1.961 . S
Li529 N553 1.990 . S
Li529 O588 1.970 . S
Li529 O589 1.956 . S
Li529 O591 1.961 . S
Li530 N575 1.990 . S
Li530 O588 1.961 . S
Li530 O590 1.956 . S
Li530 O591 1.970 . S
Li531 N581 1.990 . S
Li531 O589 1.961 . S
Li531 O590 1.970 . S
Li531 O591 1.956 . S
C532 C534 1.348 . S
C532 C535 1.356 . S
C532 O588 1.325 . S
N533 C536 1.314 . S
N533 C537 1.279 . S
C534 C532 1.348 . S
C534 C536 1.353 . S
C534 H592 0.929 . S
C535 C532 1.356 . S
C535 C537 1.358 . S
C535 H593 0.930 . S
C536 N533 1.314 . S
C536 C534 1.353 . S
C536 H594 0.930 . S
C537 N533 1.279 . S
C537 C535 1.358 . S
C537 H595 0.930 . S
C538 C541 1.348 . S
C538 C542 1.356 . S
C538 O589 1.325 . S
C539 N540 1.279 . S
C539 C542 1.358 . S
C539 H596 0.930 . S
N540 C539 1.279 . S
N540 C543 1.314 . S
C541 C538 1.348 . S
C541 C543 1.353 . S
C541 H597 0.929 . S
C542 C538 1.356 . S
C542 C539 1.358 . S
C542 H598 0.930 . S
C543 N540 1.314 . S
C543 C541 1.353 . S
C543 H599 0.930 . S
C544 N545 1.314 . S
C544 C549 1.353 . S
C544 H550 0.930 . S
N545 Li528 1.990 . S
N545 C544 1.314 . S
N545 C547 1.279 . S
C546 C547 1.358 . S
C546 C548 1.356 . S
C546 H600 0.930 . S
C547 N545 1.279 . S
C547 C546 1.358 . S
C547 H551 0.930 . S
C548 C546 1.356 . S
C548 C549 1.348 . S
C549 C544 1.353 . S
C549 C548 1.348 . S
C549 H601 0.929 . S
H550 C544 0.930 . S
H551 C547 0.930 . S
C552 N553 1.314 . S
C552 C554 1.353 . S
C552 H558 0.930 . S
N553 Li529 1.990 . S
N553 C552 1.314 . S
N553 C556 1.279 . S
C554 C552 1.353 . S
C554 C557 1.348 . S
C554 H602 0.929 . S
C555 C556 1.358 . S
C555 C557 1.356 . S
C555 H603 0.930 . S
C556 N553 1.279 . S
C556 C555 1.358 . S
C556 H559 0.930 . S
C557 C554 1.348 . S
C557 C555 1.356 . S
H558 C552 0.930 . S
H559 C556 0.930 . S
C560 C562 1.348 . S
C560 C563 1.356 . S
C560 O590 1.325 . S
N561 C564 1.314 . S
N561 C565 1.279 . S
C562 C560 1.348 . S
C562 C564 1.353 . S
C562 H604 0.929 . S
C563 C560 1.356 . S
C563 C565 1.358 . S
C563 H605 0.930 . S
C564 N561 1.314 . S
C564 C562 1.353 . S
C564 H606 0.930 . S
C565 N561 1.279 . S
C565 C563 1.358 . S
C565 H607 0.930 . S
C566 C567 1.348 . S
C566 C568 1.356 . S
C566 O591 1.325 . S
C567 C566 1.348 . S
C567 C569 1.353 . S
C567 H608 0.929 . S
C568 C566 1.356 . S
C568 C570 1.358 . S
C568 H609 0.930 . S
C569 C567 1.353 . S
C569 N571 1.314 . S
C569 H610 0.930 . S
C570 C568 1.358 . S
C570 N571 1.279 . S
C570 H611 0.930 . S
N571 C569 1.314 . S
N571 C570 1.279 . S
C572 C574 1.353 . S
C572 N575 1.314 . S
C572 H578 0.930 . S
C573 N575 1.279 . S
C573 C576 1.358 . S
C573 H579 0.930 . S
C574 C572 1.353 . S
C574 C577 1.348 . S
C574 H612 0.929 . S
N575 Li530 1.990 . S
N575 C572 1.314 . S
N575 C573 1.279 . S
C576 C573 1.358 . S
C576 C577 1.356 . S
C576 H613 0.930 . S
C577 C574 1.348 . S
C577 C576 1.356 . S
H578 C572 0.930 . S
H579 C573 0.930 . S
C580 N581 1.314 . S
C580 C582 1.353 . S
C580 H586 0.930 . S
N581 Li531 1.990 . S
N581 C580 1.314 . S
N581 C584 1.279 . S
C582 C580 1.353 . S
C582 C585 1.348 . S
C582 H614 0.929 . S
C583 C584 1.358 . S
C583 C585 1.356 . S
C583 H615 0.930 . S
C584 N581 1.279 . S
C584 C583 1.358 . S
C584 H587 0.930 . S
C585 C582 1.348 . S
C585 C583 1.356 . S
H586 C580 0.930 . S
H587 C584 0.930 . S
O588 Li528 1.956 . S
O588 Li529 1.970 . S
O588 Li530 1.961 . S
O588 C532 1.325 . S
O589 Li528 1.970 . S
O589 Li529 1.956 . S
O589 Li531 1.961 . S
O589 C538 1.325 . S
O590 Li528 1.961 . S
O590 Li530 1.956 . S
O590 Li531 1.970 . S
O590 C560 1.325 . S
O591 Li529 1.961 . S
O591 Li530 1.970 . S
O591 Li531 1.956 . S
O591 C566 1.325 . S
H592 C534 0.929 . S
H593 C535 0.930 . S
H594 C536 0.930 . S
H595 C537 0.930 . S
H596 C539 0.930 . S
H597 C541 0.929 . S
H598 C542 0.930 . S
H599 C543 0.930 . S
H600 C546 0.930 . S
H601 C549 0.929 . S
H602 C554 0.929 . S
H603 C555 0.930 . S
H604 C562 0.929 . S
H605 C563 0.930 . S
H606 C564 0.930 . S
H607 C565 0.930 . S
H608 C567 0.929 . S
H609 C568 0.930 . S
H610 C569 0.930 . S
H611 C570 0.930 . S
H612 C574 0.929 . S
H613 C576 0.930 . S
H614 C582 0.929 . S
H615 C583 0.930 . S
Li616 N633 1.990 . S
Li616 O676 1.956 . S
Li616 O677 1.970 . S
Li616 O678 1.961 . S
Li617 N641 1.990 . S
Li617 O676 1.970 . S
Li617 O677 1.956 . S
Li617 O679 1.961 . S
Li618 N663 1.990 . S
Li618 O676 1.961 . S
Li618 O678 1.956 . S
Li618 O679 1.970 . S
Li619 N669 1.990 . S
Li619 O677 1.961 . S
Li619 O678 1.970 . S
Li619 O679 1.956 . S
C620 C622 1.348 . S
C620 C623 1.356 . S
C620 O676 1.325 . S
N621 C624 1.314 . S
N621 C625 1.279 . S
C622 C620 1.348 . S
C622 C624 1.353 . S
C622 H680 0.929 . S
C623 C620 1.356 . S
C623 C625 1.358 . S
C623 H681 0.930 . S
C624 N621 1.314 . S
C624 C622 1.353 . S
C624 H682 0.930 . S
C625 N621 1.279 . S
C625 C623 1.358 . S
C625 H683 0.930 . S
C626 C629 1.348 . S
C626 C630 1.356 . S
C626 O677 1.325 . S
C627 N628 1.279 . S
C627 C630 1.358 . S
C627 H684 0.930 . S
N628 C627 1.279 . S
N628 C631 1.314 . S
C629 C626 1.348 . S
C629 C631 1.353 . S
C629 H685 0.929 . S
C630 C626 1.356 . S
C630 C627 1.358 . S
C630 H686 0.930 . S
C631 N628 1.314 . S
C631 C629 1.353 . S
C631 H687 0.930 . S
C632 N633 1.314 . S
C632 C637 1.353 . S
C632 H638 0.930 . S
N633 Li616 1.990 . S
N633 C632 1.314 . S
N633 C635 1.279 . S
C634 C635 1.358 . S
C634 C636 1.356 . S
C634 H688 0.930 . S
C635 N633 1.279 . S
C635 C634 1.358 . S
C635 H639 0.930 . S
C636 C634 1.356 . S
C636 C637 1.348 . S
C637 C632 1.353 . S
C637 C636 1.348 . S
C637 H689 0.929 . S
H638 C632 0.930 . S
H639 C635 0.930 . S
C640 N641 1.314 . S
C640 C642 1.353 . S
C640 H646 0.930 . S
N641 Li617 1.990 . S
N641 C640 1.314 . S
N641 C644 1.279 . S
C642 C640 1.353 . S
C642 C645 1.348 . S
C642 H690 0.929 . S
C643 C644 1.358 . S
C643 C645 1.356 . S
C643 H691 0.930 . S
C644 N641 1.279 . S
C644 C643 1.358 . S
C644 H647 0.930 . S
C645 C642 1.348 . S
C645 C643 1.356 . S
H646 C640 0.930 . S
H647 C644 0.930 . S
C648 C650 1.348 . S
C648 C651 1.356 . S
C648 O678 1.325 . S
N649 C652 1.314 . S
N649 C653 1.279 . S
C650 C648 1.348 . S
C650 C652 1.353 . S
C650 H692 0.929 . S
C651 C648 1.356 . S
C651 C653 1.358 . S
C651 H693 0.930 . S
C652 N649 1.314 . S
C652 C650 1.353 . S
C652 H694 0.930 . S
C653 N649 1.279 . S
C653 C651 1.358 . S
C653 H695 0.930 . S
C654 C655 1.348 . S
C654 C656 1.356 . S
C654 O679 1.325 . S
C655 C654 1.348 . S
C655 C657 1.353 . S
C655 H696 0.929 . S
C656 C654 1.356 . S
C656 C658 1.358 . S
C656 H697 0.930 . S
C657 C655 1.353 . S
C657 N659 1.314 . S
C657 H698 0.930 . S
C658 C656 1.358 . S
C658 N659 1.279 . S
C658 H699 0.930 . S
N659 C657 1.314 . S
N659 C658 1.279 . S
C660 C662 1.353 . S
C660 N663 1.314 . S
C660 H666 0.930 . S
C661 N663 1.279 . S
C661 C664 1.358 . S
C661 H667 0.930 . S
C662 C660 1.353 . S
C662 C665 1.348 . S
C662 H700 0.929 . S
N663 Li618 1.990 . S
N663 C660 1.314 . S
N663 C661 1.279 . S
C664 C661 1.358 . S
C664 C665 1.356 . S
C664 H701 0.930 . S
C665 C662 1.348 . S
C665 C664 1.356 . S
H666 C660 0.930 . S
H667 C661 0.930 . S
C668 N669 1.314 . S
C668 C670 1.353 . S
C668 H674 0.930 . S
N669 Li619 1.990 . S
N669 C668 1.314 . S
N669 C672 1.279 . S
C670 C668 1.353 . S
C670 C673 1.348 . S
C670 H702 0.929 . S
C671 C672 1.358 . S
C671 C673 1.356 . S
C671 H703 0.930 . S
C672 N669 1.279 . S
C672 C671 1.358 . S
C672 H675 0.930 . S
C673 C670 1.348 . S
C673 C671 1.356 . S
H674 C668 0.930 . S
H675 C672 0.930 . S
O676 Li616 1.956 . S
O676 Li617 1.970 . S
O676 Li618 1.961 . S
O676 C620 1.325 . S
O677 Li616 1.970 . S
O677 Li617 1.956 . S
O677 Li619 1.961 . S
O677 C626 1.325 . S
O678 Li616 1.961 . S
O678 Li618 1.956 . S
O678 Li619 1.970 . S
O678 C648 1.325 . S
O679 Li617 1.961 . S
O679 Li618 1.970 . S
O679 Li619 1.956 . S
O679 C654 1.325 . S
H680 C622 0.929 . S
H681 C623 0.930 . S
H682 C624 0.930 . S
H683 C625 0.930 . S
H684 C627 0.930 . S
H685 C629 0.929 . S
H686 C630 0.930 . S
H687 C631 0.930 . S
H688 C634 0.930 . S
H689 C637 0.929 . S
H690 C642 0.929 . S
H691 C643 0.930 . S
H692 C650 0.929 . S
H693 C651 0.930 . S
H694 C652 0.930 . S
H695 C653 0.930 . S
H696 C655 0.929 . S
H697 C656 0.930 . S
H698 C657 0.930 . S
H699 C658 0.930 . S
H700 C662 0.929 . S
H701 C664 0.930 . S
H702 C670 0.929 . S
H703 C671 0.930 . S
Li704 N721 1.990 . S
Li704 O764 1.956 . S
Li704 O765 1.970 . S
Li704 O766 1.961 . S
Li705 N729 1.990 . S
Li705 O764 1.970 . S
Li705 O765 1.956 . S
Li705 O767 1.961 . S
Li706 N751 1.990 . S
Li706 O764 1.961 . S
Li706 O766 1.956 . S
Li706 O767 1.970 . S
Li707 N757 1.990 . S
Li707 O765 1.961 . S
Li707 O766 1.970 . S
Li707 O767 1.956 . S
C708 C710 1.348 . S
C708 C711 1.356 . S
C708 O764 1.325 . S
N709 C712 1.314 . S
N709 C713 1.279 . S
C710 C708 1.348 . S
C710 C712 1.353 . S
C710 H768 0.929 . S
C711 C708 1.356 . S
C711 C713 1.358 . S
C711 H769 0.930 . S
C712 N709 1.314 . S
C712 C710 1.353 . S
C712 H770 0.930 . S
C713 N709 1.279 . S
C713 C711 1.358 . S
C713 H771 0.930 . S
C714 C717 1.348 . S
C714 C718 1.356 . S
C714 O765 1.325 . S
C715 N716 1.279 . S
C715 C718 1.358 . S
C715 H772 0.930 . S
N716 C715 1.279 . S
N716 C719 1.314 . S
C717 C714 1.348 . S
C717 C719 1.353 . S
C717 H773 0.929 . S
C718 C714 1.356 . S
C718 C715 1.358 . S
C718 H774 0.930 . S
C719 N716 1.314 . S
C719 C717 1.353 . S
C719 H775 0.930 . S
C720 N721 1.314 . S
C720 C725 1.353 . S
C720 H726 0.930 . S
N721 Li704 1.990 . S
N721 C720 1.314 . S
N721 C723 1.279 . S
C722 C723 1.358 . S
C722 C724 1.356 . S
C722 H776 0.930 . S
C723 N721 1.279 . S
C723 C722 1.358 . S
C723 H727 0.930 . S
C724 C722 1.356 . S
C724 C725 1.348 . S
C725 C720 1.353 . S
C725 C724 1.348 . S
C725 H777 0.929 . S
H726 C720 0.930 . S
H727 C723 0.930 . S
C728 N729 1.314 . S
C728 C730 1.353 . S
C728 H734 0.930 . S
N729 Li705 1.990 . S
N729 C728 1.314 . S
N729 C732 1.279 . S
C730 C728 1.353 . S
C730 C733 1.348 . S
C730 H778 0.929 . S
C731 C732 1.358 . S
C731 C733 1.356 . S
C731 H779 0.930 . S
C732 N729 1.279 . S
C732 C731 1.358 . S
C732 H735 0.930 . S
C733 C730 1.348 . S
C733 C731 1.356 . S
H734 C728 0.930 . S
H735 C732 0.930 . S
C736 C738 1.348 . S
C736 C739 1.356 . S
C736 O766 1.325 . S
N737 C740 1.314 . S
N737 C741 1.279 . S
C738 C736 1.348 . S
C738 C740 1.353 . S
C738 H780 0.929 . S
C739 C736 1.356 . S
C739 C741 1.358 . S
C739 H781 0.930 . S
C740 N737 1.314 . S
C740 C738 1.353 . S
C740 H782 0.930 . S
C741 N737 1.279 . S
C741 C739 1.358 . S
C741 H783 0.930 . S
C742 C743 1.348 . S
C742 C744 1.356 . S
C742 O767 1.325 . S
C743 C742 1.348 . S
C743 C745 1.353 . S
C743 H784 0.929 . S
C744 C742 1.356 . S
C744 C746 1.358 . S
C744 H785 0.930 . S
C745 C743 1.353 . S
C745 N747 1.314 . S
C745 H786 0.930 . S
C746 C744 1.358 . S
C746 N747 1.279 . S
C746 H787 0.930 . S
N747 C745 1.314 . S
N747 C746 1.279 . S
C748 C750 1.353 . S
C748 N751 1.314 . S
C748 H754 0.930 . S
C749 N751 1.279 . S
C749 C752 1.358 . S
C749 H755 0.930 . S
C750 C748 1.353 . S
C750 C753 1.348 . S
C750 H788 0.929 . S
N751 Li706 1.990 . S
N751 C748 1.314 . S
N751 C749 1.279 . S
C752 C749 1.358 . S
C752 C753 1.356 . S
C752 H789 0.930 . S
C753 C750 1.348 . S
C753 C752 1.356 . S
H754 C748 0.930 . S
H755 C749 0.930 . S
C756 N757 1.314 . S
C756 C758 1.353 . S
C756 H762 0.930 . S
N757 Li707 1.990 . S
N757 C756 1.314 . S
N757 C760 1.279 . S
C758 C756 1.353 . S
C758 C761 1.348 . S
C758 H790 0.929 . S
C759 C760 1.358 . S
C759 C761 1.356 . S
C759 H791 0.930 . S
C760 N757 1.279 . S
C760 C759 1.358 . S
C760 H763 0.930 . S
C761 C758 1.348 . S
C761 C759 1.356 . S
H762 C756 0.930 . S
H763 C760 0.930 . S
O764 Li704 1.956 . S
O764 Li705 1.970 . S
O764 Li706 1.961 . S
O764 C708 1.325 . S
O765 Li704 1.970 . S
O765 Li705 1.956 . S
O765 Li707 1.961 . S
O765 C714 1.325 . S
O766 Li704 1.961 . S
O766 Li706 1.956 . S
O766 Li707 1.970 . S
O766 C736 1.325 . S
O767 Li705 1.961 . S
O767 Li706 1.970 . S
O767 Li707 1.956 . S
O767 C742 1.325 . S
H768 C710 0.929 . S
H769 C711 0.930 . S
H770 C712 0.930 . S
H771 C713 0.930 . S
H772 C715 0.930 . S
H773 C717 0.929 . S
H774 C718 0.930 . S
H775 C719 0.930 . S
H776 C722 0.930 . S
H777 C725 0.929 . S
H778 C730 0.929 . S
H779 C731 0.930 . S
H780 C738 0.929 . S
H781 C739 0.930 . S
H782 C740 0.930 . S
H783 C741 0.930 . S
H784 C743 0.929 . S
H785 C744 0.930 . S
H786 C745 0.930 . S
H787 C746 0.930 . S
H788 C750 0.929 . S
H789 C752 0.930 . S
H790 C758 0.929 . S
H791 C759 0.930 . S
Li792 N809 1.990 . S
Li792 O852 1.956 . S
Li792 O853 1.970 1_565 S
Li792 O854 1.961 . S
Li793 N817 1.990 . S
Li793 O852 1.970 1_545 S
Li793 O853 1.956 . S
Li793 O855 1.961 . S
Li794 N839 1.990 . S
Li794 O852 1.961 . S
Li794 O854 1.956 . S
Li794 O855 1.970 1_565 S
Li795 N845 1.990 . S
Li795 O853 1.961 . S
Li795 O854 1.970 1_545 S
Li795 O855 1.956 . S
C796 C798 1.348 . S
C796 C799 1.356 . S
C796 O852 1.325 . S
N797 C800 1.314 . S
N797 C801 1.279 . S
C798 C796 1.348 . S
C798 C800 1.353 . S
C798 H856 0.929 . S
C799 C796 1.356 . S
C799 C801 1.358 . S
C799 H857 0.930 . S
C800 N797 1.314 . S
C800 C798 1.353 . S
C800 H858 0.930 . S
C801 N797 1.279 . S
C801 C799 1.358 . S
C801 H859 0.930 . S
C802 C805 1.348 1_545 S
C802 C806 1.356 . S
C802 O853 1.325 . S
C803 N804 1.279 . S
C803 C806 1.358 . S
C803 H860 0.930 . S
N804 C803 1.279 . S
N804 C807 1.314 1_545 S
C805 C802 1.348 1_565 S
C805 C807 1.353 . S
C805 H861 0.929 . S
C806 C802 1.356 . S
C806 C803 1.358 . S
C806 H862 0.930 . S
C807 N804 1.314 1_565 S
C807 C805 1.353 . S
C807 H863 0.930 . S
C808 N809 1.314 . S
C808 C813 1.353 . S
C808 H814 0.930 . S
N809 Li792 1.990 . S
N809 C808 1.314 . S
N809 C811 1.279 . S
C810 C811 1.358 . S
C810 C812 1.356 . S
C810 H864 0.930 . S
C811 N809 1.279 . S
C811 C810 1.358 . S
C811 H815 0.930 . S
C812 C810 1.356 . S
C812 C813 1.348 . S
C813 C808 1.353 . S
C813 C812 1.348 . S
C813 H865 0.929 . S
H814 C808 0.930 . S
H815 C811 0.930 . S
C816 N817 1.314 . S
C816 C818 1.353 . S
C816 H822 0.930 . S
N817 Li793 1.990 . S
N817 C816 1.314 . S
N817 C820 1.279 . S
C818 C816 1.353 . S
C818 C821 1.348 . S
C818 H866 0.929 . S
C819 C820 1.358 . S
C819 C821 1.356 . S
C819 H867 0.930 . S
C820 N817 1.279 . S
C820 C819 1.358 . S
C820 H823 0.930 . S
C821 C818 1.348 . S
C821 C819 1.356 . S
H822 C816 0.930 . S
H823 C820 0.930 . S
C824 C826 1.348 1_565 S
C824 C827 1.356 . S
C824 O854 1.325 . S
N825 C828 1.314 1_565 S
N825 C829 1.279 . S
C826 C824 1.348 1_545 S
C826 C828 1.353 . S
C826 H868 0.929 . S
C827 C824 1.356 . S
C827 C829 1.358 . S
C827 H869 0.930 . S
C828 N825 1.314 1_545 S
C828 C826 1.353 . S
C828 H870 0.930 . S
C829 N825 1.279 . S
C829 C827 1.358 . S
C829 H871 0.930 . S
C830 C831 1.348 . S
C830 C832 1.356 . S
C830 O855 1.325 . S
C831 C830 1.348 . S
C831 C833 1.353 . S
C831 H872 0.929 . S
C832 C830 1.356 . S
C832 C834 1.358 . S
C832 H873 0.930 . S
C833 C831 1.353 . S
C833 N835 1.314 . S
C833 H874 0.930 . S
C834 C832 1.358 . S
C834 N835 1.279 . S
C834 H875 0.930 . S
N835 C833 1.314 . S
N835 C834 1.279 . S
C836 C838 1.353 . S
C836 N839 1.314 . S
C836 H842 0.930 . S
C837 N839 1.279 . S
C837 C840 1.358 . S
C837 H843 0.930 . S
C838 C836 1.353 . S
C838 C841 1.348 . S
C838 H876 0.929 . S
N839 Li794 1.990 . S
N839 C836 1.314 . S
N839 C837 1.279 . S
C840 C837 1.358 . S
C840 C841 1.356 . S
C840 H877 0.930 . S
C841 C838 1.348 . S
C841 C840 1.356 . S
H842 C836 0.930 . S
H843 C837 0.930 . S
C844 N845 1.314 . S
C844 C846 1.353 . S
C844 H850 0.930 . S
N845 Li795 1.990 . S
N845 C844 1.314 . S
N845 C848 1.279 . S
C846 C844 1.353 . S
C846 C849 1.348 . S
C846 H878 0.929 . S
C847 C848 1.358 . S
C847 C849 1.356 . S
C847 H879 0.930 . S
C848 N845 1.279 . S
C848 C847 1.358 . S
C848 H851 0.930 . S
C849 C846 1.348 . S
C849 C847 1.356 . S
H850 C844 0.930 . S
H851 C848 0.930 . S
O852 Li792 1.956 . S
O852 Li793 1.970 1_565 S
O852 Li794 1.961 . S
O852 C796 1.325 . S
O853 Li792 1.970 1_545 S
O853 Li793 1.956 . S
O853 Li795 1.961 . S
O853 C802 1.325 . S
O854 Li792 1.961 . S
O854 Li794 1.956 . S
O854 Li795 1.970 1_565 S
O854 C824 1.325 . S
O855 Li793 1.961 . S
O855 Li794 1.970 1_545 S
O855 Li795 1.956 . S
O855 C830 1.325 . S
H856 C798 0.929 . S
H857 C799 0.930 . S
H858 C800 0.930 . S
H859 C801 0.930 . S
H860 C803 0.930 . S
H861 C805 0.929 . S
H862 C806 0.930 . S
H863 C807 0.930 . S
H864 C810 0.930 . S
H865 C813 0.929 . S
H866 C818 0.929 . S
H867 C819 0.930 . S
H868 C826 0.929 . S
H869 C827 0.930 . S
H870 C828 0.930 . S
H871 C829 0.930 . S
H872 C831 0.929 . S
H873 C832 0.930 . S
H874 C833 0.930 . S
H875 C834 0.930 . S
H876 C838 0.929 . S
H877 C840 0.930 . S
H878 C846 0.929 . S
H879 C847 0.930 . S
Li880 N897 1.990 . S
Li880 O940 1.956 . S
Li880 O941 1.970 . S
Li880 O942 1.961 . S
Li881 N905 1.990 . S
Li881 O940 1.970 . S
Li881 O941 1.956 . S
Li881 O943 1.961 1_455 S
Li882 N927 1.990 . S
Li882 O940 1.961 . S
Li882 O942 1.956 . S
Li882 O943 1.970 1_455 S
Li883 N933 1.990 . S
Li883 O941 1.961 1_655 S
Li883 O942 1.970 1_655 S
Li883 O943 1.956 . S
C884 C886 1.348 . S
C884 C887 1.356 . S
C884 O940 1.325 . S
N885 C888 1.314 . S
N885 C889 1.279 . S
C886 C884 1.348 . S
C886 C888 1.353 . S
C886 H944 0.929 . S
C887 C884 1.356 . S
C887 C889 1.358 . S
C887 H945 0.930 . S
C888 N885 1.314 . S
C888 C886 1.353 . S
C888 H946 0.930 . S
C889 N885 1.279 . S
C889 C887 1.358 . S
C889 H947 0.930 . S
C890 C893 1.348 . S
C890 C894 1.356 1_455 S
C890 O941 1.325 . S
C891 N892 1.279 . S
C891 C894 1.358 . S
C891 H948 0.930 . S
N892 C891 1.279 . S
N892 C895 1.314 1_655 S
C893 C890 1.348 . S
C893 C895 1.353 . S
C893 H949 0.929 . S
C894 C890 1.356 1_655 S
C894 C891 1.358 . S
C894 H950 0.930 . S
C895 N892 1.314 1_455 S
C895 C893 1.353 . S
C895 H951 0.930 . S
C896 N897 1.314 . S
C896 C901 1.353 . S
C896 H902 0.930 . S
N897 Li880 1.990 . S
N897 C896 1.314 . S
N897 C899 1.279 . S
C898 C899 1.358 . S
C898 C900 1.356 . S
C898 H952 0.930 . S
C899 N897 1.279 . S
C899 C898 1.358 . S
C899 H903 0.930 . S
C900 C898 1.356 . S
C900 C901 1.348 . S
C901 C896 1.353 . S
C901 C900 1.348 . S
C901 H953 0.929 . S
H902 C896 0.930 . S
H903 C899 0.930 . S
C904 N905 1.314 1_655 S
C904 C906 1.350 1_556 S
C904 H910 0.930 . S
N905 Li881 1.990 . S
N905 C904 1.314 1_455 S
N905 C908 1.279 . S
C906 C904 1.350 1_554 S
C906 C909 1.346 1_654 S
C906 H954 0.934 . S
C907 C908 1.358 . S
C907 C909 1.356 . S
C907 H955 0.930 . S
C908 N905 1.279 . S
C908 C907 1.358 . S
C908 H911 0.930 . S
C909 C906 1.346 1_456 S
C909 C907 1.356 . S
H910 C904 0.930 . S
H911 C908 0.930 . S
C912 C914 1.348 1_455 S
C912 C915 1.356 . S
C912 O942 1.325 . S
N913 C916 1.314 1_455 S
N913 C917 1.279 . S
C914 C912 1.348 1_655 S
C914 C916 1.353 . S
C914 H956 0.929 . S
C915 C912 1.356 . S
C915 C917 1.358 . S
C915 H957 0.930 . S
C916 N913 1.314 1_655 S
C916 C914 1.353 . S
C916 H958 0.930 . S
C917 N913 1.279 . S
C917 C915 1.358 . S
C917 H959 0.930 . S
C918 C919 1.348 . S
C918 C920 1.356 . S
C918 O943 1.325 . S
C919 C918 1.348 . S
C919 C921 1.353 . S
C919 H960 0.929 . S
C920 C918 1.356 . S
C920 C922 1.358 . S
C920 H961 0.930 . S
C921 C919 1.353 . S
C921 N923 1.314 . S
C921 H962 0.930 . S
C922 C920 1.358 . S
C922 N923 1.279 . S
C922 H963 0.930 . S
N923 C921 1.314 . S
N923 C922 1.279 . S
C924 C926 1.353 . S
C924 N927 1.314 . S
C924 H930 0.930 . S
C925 N927 1.279 . S
C925 C928 1.358 . S
C925 H931 0.930 . S
C926 C924 1.353 . S
C926 C929 1.348 . S
C926 H964 0.929 1_556 S
N927 Li882 1.990 . S
N927 C924 1.314 . S
N927 C925 1.279 . S
C928 C925 1.358 . S
C928 C929 1.356 . S
C928 H965 0.930 . S
C929 C926 1.348 . S
C929 C928 1.356 . S
H930 C924 0.930 . S
H931 C925 0.930 . S
C932 N933 1.314 . S
C932 C934 1.353 . S
C932 H938 0.930 . S
N933 Li883 1.990 . S
N933 C932 1.314 . S
N933 C936 1.279 . S
C934 C932 1.353 . S
C934 C937 1.348 . S
C934 H966 0.929 . S
C935 C936 1.358 . S
C935 C937 1.356 . S
C935 H967 0.930 . S
C936 N933 1.279 . S
C936 C935 1.358 . S
C936 H939 0.930 . S
C937 C934 1.348 . S
C937 C935 1.356 . S
H938 C932 0.930 . S
H939 C936 0.930 . S
O940 Li880 1.956 . S
O940 Li881 1.970 . S
O940 Li882 1.961 . S
O940 C884 1.325 . S
O941 Li880 1.970 . S
O941 Li881 1.956 . S
O941 Li883 1.961 1_455 S
O941 C890 1.325 . S
O942 Li880 1.961 . S
O942 Li882 1.956 . S
O942 Li883 1.970 1_455 S
O942 C912 1.325 . S
O943 Li881 1.961 1_655 S
O943 Li882 1.970 1_655 S
O943 Li883 1.956 . S
O943 C918 1.325 . S
H944 C886 0.929 . S
H945 C887 0.930 . S
H946 C888 0.930 . S
H947 C889 0.930 . S
H948 C891 0.930 . S
H949 C893 0.929 . S
H950 C894 0.930 . S
H951 C895 0.930 . S
H952 C898 0.930 . S
H953 C901 0.929 . S
H954 C906 0.934 . S
H955 C907 0.930 . S
H956 C914 0.929 . S
H957 C915 0.930 . S
H958 C916 0.930 . S
H959 C917 0.930 . S
H960 C919 0.929 . S
H961 C920 0.930 . S
H962 C921 0.930 . S
H963 C922 0.930 . S
H964 C926 0.929 1_554 S
H965 C928 0.930 . S
H966 C934 0.929 . S
H967 C935 0.930 . S
Li968 N985 1.990 . S
Li968 O1028 1.956 . S
Li968 O1029 1.970 . S
Li968 O1030 1.961 . S
Li969 N993 1.990 . S
Li969 O1028 1.970 . S
Li969 O1029 1.956 . S
Li969 O1031 1.961 . S
Li970 N1015 1.990 . S
Li970 O1028 1.961 . S
Li970 O1030 1.956 . S
Li970 O1031 1.970 . S
Li971 N1021 1.990 . S
Li971 O1029 1.961 . S
Li971 O1030 1.970 . S
Li971 O1031 1.956 . S
C972 C974 1.348 . S
C972 C975 1.356 . S
C972 O1028 1.325 . S
N973 C976 1.314 . S
N973 C977 1.279 . S
C974 C972 1.348 . S
C974 C976 1.353 . S
C974 H1032 0.929 . S
C975 C972 1.356 . S
C975 C977 1.358 . S
C975 H1033 0.930 . S
C976 N973 1.314 . S
C976 C974 1.353 . S
C976 H1034 0.930 . S
C977 N973 1.279 . S
C977 C975 1.358 . S
C977 H1035 0.930 . S
C978 C981 1.348 . S
C978 C982 1.356 . S
C978 O1029 1.325 . S
C979 N980 1.279 . S
C979 C982 1.358 . S
C979 H1036 0.930 . S
N980 C979 1.279 . S
N980 C983 1.314 . S
C981 C978 1.348 . S
C981 C983 1.353 . S
C981 H1037 0.929 . S
C982 C978 1.356 . S
C982 C979 1.358 . S
C982 H1038 0.930 . S
C983 N980 1.314 . S
C983 C981 1.353 . S
C983 H1039 0.930 . S
C984 N985 1.314 . S
C984 C989 1.353 . S
C984 H990 0.930 . S
N985 Li968 1.990 . S
N985 C984 1.314 . S
N985 C987 1.279 . S
C986 C987 1.358 . S
C986 C988 1.356 . S
C986 H1040 0.930 . S
C987 N985 1.279 . S
C987 C986 1.358 . S
C987 H991 0.930 . S
C988 C986 1.356 . S
C988 C989 1.348 . S
C989 C984 1.353 . S
C989 C988 1.348 . S
C989 H1041 0.929 . S
H990 C984 0.930 . S
H991 C987 0.930 . S
C992 N993 1.314 . S
C992 C994 1.353 . S
C992 H998 0.930 . S
N993 Li969 1.990 . S
N993 C992 1.314 . S
N993 C996 1.279 . S
C994 C992 1.353 . S
C994 C997 1.348 . S
C994 H1042 0.929 . S
C995 C996 1.358 . S
C995 C997 1.356 . S
C995 H1043 0.930 . S
C996 N993 1.279 . S
C996 C995 1.358 . S
C996 H999 0.930 . S
C997 C994 1.348 . S
C997 C995 1.356 . S
H998 C992 0.930 . S
H999 C996 0.930 . S
C1000 C1002 1.348 . S
C1000 C1003 1.356 . S
C1000 O1030 1.325 . S
N1001 C1004 1.314 . S
N1001 C1005 1.279 . S
C1002 C1000 1.348 . S
C1002 C1004 1.353 . S
C1002 H1044 0.929 . S
C1003 C1000 1.356 . S
C1003 C1005 1.358 . S
C1003 H1045 0.930 . S
C1004 N1001 1.314 . S
C1004 C1002 1.353 . S
C1004 H1046 0.930 . S
C1005 N1001 1.279 . S
C1005 C1003 1.358 . S
C1005 H1047 0.930 . S
C1006 C1007 1.348 . S
C1006 C1008 1.356 . S
C1006 O1031 1.325 . S
C1007 C1006 1.348 . S
C1007 C1009 1.353 . S
C1007 H1048 0.929 . S
C1008 C1006 1.356 . S
C1008 C1010 1.358 . S
C1008 H1049 0.930 . S
C1009 C1007 1.353 . S
C1009 N1011 1.314 . S
C1009 H1050 0.930 . S
C1010 C1008 1.358 . S
C1010 N1011 1.279 . S
C1010 H1051 0.930 . S
N1011 C1009 1.314 . S
N1011 C1010 1.279 . S
C1012 C1014 1.353 . S
C1012 N1015 1.314 . S
C1012 H1018 0.930 . S
C1013 N1015 1.279 . S
C1013 C1016 1.358 . S
C1013 H1019 0.930 . S
C1014 C1012 1.353 . S
C1014 C1017 1.348 . S
C1014 H1052 0.929 . S
N1015 Li970 1.990 . S
N1015 C1012 1.314 . S
N1015 C1013 1.279 . S
C1016 C1013 1.358 . S
C1016 C1017 1.356 . S
C1016 H1053 0.930 . S
C1017 C1014 1.348 . S
C1017 C1016 1.356 . S
H1018 C1012 0.930 . S
H1019 C1013 0.930 . S
C1020 N1021 1.314 . S
C1020 C1022 1.353 . S
C1020 H1026 0.930 . S
N1021 Li971 1.990 . S
N1021 C1020 1.314 . S
N1021 C1024 1.279 . S
C1022 C1020 1.353 . S
C1022 C1025 1.348 . S
C1022 H1054 0.929 . S
C1023 C1024 1.358 . S
C1023 C1025 1.356 . S
C1023 H1055 0.930 . S
C1024 N1021 1.279 . S
C1024 C1023 1.358 . S
C1024 H1027 0.930 . S
C1025 C1022 1.348 . S
C1025 C1023 1.356 . S
H1026 C1020 0.930 . S
H1027 C1024 0.930 . S
O1028 Li968 1.956 . S
O1028 Li969 1.970 . S
O1028 Li970 1.961 . S
O1028 C972 1.325 . S
O1029 Li968 1.970 . S
O1029 Li969 1.956 . S
O1029 Li971 1.961 . S
O1029 C978 1.325 . S
O1030 Li968 1.961 . S
O1030 Li970 1.956 . S
O1030 Li971 1.970 . S
O1030 C1000 1.325 . S
O1031 Li969 1.961 . S
O1031 Li970 1.970 . S
O1031 Li971 1.956 . S
O1031 C1006 1.325 . S
H1032 C974 0.929 . S
H1033 C975 0.930 . S
H1034 C976 0.930 . S
H1035 C977 0.930 . S
H1036 C979 0.930 . S
H1037 C981 0.929 . S
H1038 C982 0.930 . S
H1039 C983 0.930 . S
H1040 C986 0.930 . S
H1041 C989 0.929 . S
H1042 C994 0.929 . S
H1043 C995 0.930 . S
H1044 C1002 0.929 . S
H1045 C1003 0.930 . S
H1046 C1004 0.930 . S
H1047 C1005 0.930 . S
H1048 C1007 0.929 . S
H1049 C1008 0.930 . S
H1050 C1009 0.930 . S
H1051 C1010 0.930 . S
H1052 C1014 0.929 . S
H1053 C1016 0.930 . S
H1054 C1022 0.929 . S
H1055 C1023 0.930 . S
Li1056 N1073 1.990 . S
Li1056 O1116 1.956 . S
Li1056 O1117 1.970 1_455 S
Li1056 O1118 1.961 . S
Li1057 N1081 1.990 1_455 S
Li1057 O1116 1.970 . S
Li1057 O1117 1.956 1_455 S
Li1057 O1119 1.961 . S
Li1058 N1103 1.990 . S
Li1058 O1116 1.961 . S
Li1058 O1118 1.956 . S
Li1058 O1119 1.970 . S
Li1059 N1109 1.990 . S
Li1059 O1117 1.961 1_455 S
Li1059 O1118 1.970 . S
Li1059 O1119 1.956 . S
C1060 C1062 1.348 . S
C1060 C1063 1.356 . S
C1060 O1116 1.325 . S
N1061 C1064 1.314 . S
N1061 C1065 1.279 . S
C1062 C1060 1.348 . S
C1062 C1064 1.353 . S
C1062 H1120 0.929 . S
C1063 C1060 1.356 . S
C1063 C1065 1.358 . S
C1063 H1121 0.930 . S
C1064 N1061 1.314 . S
C1064 C1062 1.353 . S
C1064 H1122 0.930 . S
C1065 N1061 1.279 . S
C1065 C1063 1.358 . S
C1065 H1123 0.930 . S
C1066 C1069 1.348 . S
C1066 C1070 1.356 . S
C1066 O1117 1.325 . S
C1067 N1068 1.279 . S
C1067 C1070 1.358 . S
C1067 H1124 0.930 . S
N1068 C1067 1.279 . S
N1068 C1071 1.314 . S
C1069 C1066 1.348 . S
C1069 C1071 1.353 . S
C1069 H1125 0.929 . S
C1070 C1066 1.356 . S
C1070 C1067 1.358 . S
C1070 H1126 0.930 . S
C1071 N1068 1.314 . S
C1071 C1069 1.353 . S
C1071 H1127 0.930 . S
C1072 N1073 1.314 . S
C1072 C1077 1.353 . S
C1072 H1078 0.930 . S
N1073 Li1056 1.990 . S
N1073 C1072 1.314 . S
N1073 C1075 1.279 . S
C1074 C1075 1.358 . S
C1074 C1076 1.356 . S
C1074 H1128 0.930 . S
C1075 N1073 1.279 . S
C1075 C1074 1.358 . S
C1075 H1079 0.930 . S
C1076 C1074 1.356 . S
C1076 C1077 1.348 . S
C1077 C1072 1.353 . S
C1077 C1076 1.348 . S
C1077 H1129 0.929 . S
H1078 C1072 0.930 . S
H1079 C1075 0.930 . S
C1080 N1081 1.314 . S
C1080 C1082 1.353 . S
C1080 H1086 0.930 . S
N1081 Li1057 1.990 1_655 S
N1081 C1080 1.314 . S
N1081 C1084 1.279 . S
C1082 C1080 1.353 . S
C1082 C1085 1.348 . S
C1082 H1130 0.929 . S
C1083 C1084 1.358 . S
C1083 C1085 1.356 . S
C1083 H1131 0.930 . S
C1084 N1081 1.279 . S
C1084 C1083 1.358 . S
C1084 H1087 0.930 . S
C1085 C1082 1.348 . S
C1085 C1083 1.356 . S
H1086 C1080 0.930 . S
H1087 C1084 0.930 . S
C1088 C1090 1.348 . S
C1088 C1091 1.356 . S
C1088 O1118 1.325 . S
N1089 C1092 1.314 . S
N1089 C1093 1.279 . S
C1090 C1088 1.348 . S
C1090 C1092 1.353 . S
C1090 H1132 0.929 . S
C1091 C1088 1.356 . S
C1091 C1093 1.358 . S
C1091 H1133 0.930 . S
C1092 N1089 1.314 . S
C1092 C1090 1.353 . S
C1092 H1134 0.930 . S
C1093 N1089 1.279 . S
C1093 C1091 1.358 . S
C1093 H1135 0.930 . S
C1094 C1095 1.348 . S
C1094 C1096 1.356 1_455 S
C1094 O1119 1.325 . S
C1095 C1094 1.348 . S
C1095 C1097 1.353 . S
C1095 H1136 0.929 . S
C1096 C1094 1.356 1_655 S
C1096 C1098 1.358 . S
C1096 H1137 0.930 . S
C1097 C1095 1.353 . S
C1097 N1099 1.314 . S
C1097 H1138 0.930 . S
C1098 C1096 1.358 . S
C1098 N1099 1.279 1_655 S
C1098 H1139 0.930 . S
N1099 C1097 1.314 . S
N1099 C1098 1.279 1_455 S
C1100 C1102 1.353 . S
C1100 N1103 1.314 . S
C1100 H1106 0.930 . S
C1101 N1103 1.279 . S
C1101 C1104 1.358 . S
C1101 H1107 0.930 . S
C1102 C1100 1.353 . S
C1102 C1105 1.348 . S
C1102 H1140 0.929 . S
N1103 Li1058 1.990 . S
N1103 C1100 1.314 . S
N1103 C1101 1.279 . S
C1104 C1101 1.358 . S
C1104 C1105 1.356 . S
C1104 H1141 0.930 . S
C1105 C1102 1.348 . S
C1105 C1104 1.356 . S
H1106 C1100 0.930 . S
H1107 C1101 0.930 . S
C1108 N1109 1.314 . S
C1108 C1110 1.351 1_455 S
C1108 H1114 0.930 . S
N1109 Li1059 1.990 . S
N1109 C1108 1.314 . S
N1109 C1112 1.279 . S
C1110 C1108 1.351 1_655 S
C1110 C1113 1.340 1_655 S
C1110 H1142 0.940 . S
C1111 C1112 1.358 . S
C1111 C1113 1.356 . S
C1111 H1143 0.930 . S
C1112 N1109 1.279 . S
C1112 C1111 1.358 . S
C1112 H1115 0.930 . S
C1113 C1110 1.340 1_455 S
C1113 C1111 1.356 . S
H1114 C1108 0.930 . S
H1115 C1112 0.930 . S
O1116 Li1056 1.956 . S
O1116 Li1057 1.970 . S
O1116 Li1058 1.961 . S
O1116 C1060 1.325 . S
O1117 Li1056 1.970 1_655 S
O1117 Li1057 1.956 1_655 S
O1117 Li1059 1.961 1_655 S
O1117 C1066 1.325 . S
O1118 Li1056 1.961 . S
O1118 Li1058 1.956 . S
O1118 Li1059 1.970 . S
O1118 C1088 1.325 . S
O1119 Li1057 1.961 . S
O1119 Li1058 1.970 . S
O1119 Li1059 1.956 . S
O1119 C1094 1.325 . S
H1120 C1062 0.929 . S
H1121 C1063 0.930 . S
H1122 C1064 0.930 . S
H1123 C1065 0.930 . S
H1124 C1067 0.930 . S
H1125 C1069 0.929 . S
H1126 C1070 0.930 . S
H1127 C1071 0.930 . S
H1128 C1074 0.930 . S
H1129 C1077 0.929 . S
H1130 C1082 0.929 . S
H1131 C1083 0.930 . S
H1132 C1090 0.929 . S
H1133 C1091 0.930 . S
H1134 C1092 0.930 . S
H1135 C1093 0.930 . S
H1136 C1095 0.929 . S
H1137 C1096 0.930 . S
H1138 C1097 0.930 . S
H1139 C1098 0.930 . S
H1140 C1102 0.929 . S
H1141 C1104 0.930 . S
H1142 C1110 0.940 . S
H1143 C1111 0.930 . S
Li1144 N1161 1.990 . S
Li1144 O1204 1.956 . S
Li1144 O1205 1.970 . S
Li1144 O1206 1.961 . S
Li1145 N1169 1.990 . S
Li1145 O1204 1.970 . S
Li1145 O1205 1.956 . S
Li1145 O1207 1.961 . S
Li1146 N1191 1.990 . S
Li1146 O1204 1.961 . S
Li1146 O1206 1.956 . S
Li1146 O1207 1.970 . S
Li1147 N1197 1.990 . S
Li1147 O1205 1.961 . S
Li1147 O1206 1.970 . S
Li1147 O1207 1.956 . S
C1148 C1150 1.348 . S
C1148 C1151 1.356 . S
C1148 O1204 1.325 . S
N1149 C1152 1.314 . S
N1149 C1153 1.279 . S
C1150 C1148 1.348 . S
C1150 C1152 1.353 . S
C1150 H1208 0.929 . S
C1151 C1148 1.356 . S
C1151 C1153 1.358 . S
C1151 H1209 0.930 . S
C1152 N1149 1.314 . S
C1152 C1150 1.353 . S
C1152 H1210 0.930 . S
C1153 N1149 1.279 . S
C1153 C1151 1.358 . S
C1153 H1211 0.930 . S
C1154 C1157 1.348 . S
C1154 C1158 1.356 . S
C1154 O1205 1.325 . S
C1155 N1156 1.279 . S
C1155 C1158 1.358 . S
C1155 H1212 0.930 . S
N1156 C1155 1.279 . S
N1156 C1159 1.314 . S
C1157 C1154 1.348 . S
C1157 C1159 1.353 . S
C1157 H1213 0.929 . S
C1158 C1154 1.356 . S
C1158 C1155 1.358 . S
C1158 H1214 0.930 . S
C1159 N1156 1.314 . S
C1159 C1157 1.353 . S
C1159 H1215 0.930 . S
C1160 N1161 1.314 . S
C1160 C1165 1.353 . S
C1160 H1166 0.930 . S
N1161 Li1144 1.990 . S
N1161 C1160 1.314 . S
N1161 C1163 1.279 . S
C1162 C1163 1.358 . S
C1162 C1164 1.356 . S
C1162 H1216 0.930 . S
C1163 N1161 1.279 . S
C1163 C1162 1.358 . S
C1163 H1167 0.930 . S
C1164 C1162 1.356 . S
C1164 C1165 1.348 . S
C1165 C1160 1.353 . S
C1165 C1164 1.348 . S
C1165 H1217 0.929 . S
H1166 C1160 0.930 . S
H1167 C1163 0.930 . S
C1168 N1169 1.314 . S
C1168 C1170 1.353 . S
C1168 H1174 0.930 . S
N1169 Li1145 1.990 . S
N1169 C1168 1.314 . S
N1169 C1172 1.279 . S
C1170 C1168 1.353 . S
C1170 C1173 1.348 . S
C1170 H1218 0.929 . S
C1171 C1172 1.358 . S
C1171 C1173 1.356 . S
C1171 H1219 0.930 . S
C1172 N1169 1.279 . S
C1172 C1171 1.358 . S
C1172 H1175 0.930 . S
C1173 C1170 1.348 . S
C1173 C1171 1.356 . S
H1174 C1168 0.930 . S
H1175 C1172 0.930 . S
C1176 C1178 1.348 . S
C1176 C1179 1.356 . S
C1176 O1206 1.325 . S
N1177 C1180 1.314 . S
N1177 C1181 1.279 . S
C1178 C1176 1.348 . S
C1178 C1180 1.353 . S
C1178 H1220 0.929 . S
C1179 C1176 1.356 . S
C1179 C1181 1.358 . S
C1179 H1221 0.930 . S
C1180 N1177 1.314 . S
C1180 C1178 1.353 . S
C1180 H1222 0.930 . S
C1181 N1177 1.279 . S
C1181 C1179 1.358 . S
C1181 H1223 0.930 . S
C1182 C1183 1.348 . S
C1182 C1184 1.356 . S
C1182 O1207 1.325 . S
C1183 C1182 1.348 . S
C1183 C1185 1.353 . S
C1183 H1224 0.929 . S
C1184 C1182 1.356 . S
C1184 C1186 1.358 . S
C1184 H1225 0.930 . S
C1185 C1183 1.353 . S
C1185 N1187 1.314 . S
C1185 H1226 0.930 . S
C1186 C1184 1.358 . S
C1186 N1187 1.279 . S
C1186 H1227 0.930 . S
N1187 C1185 1.314 . S
N1187 C1186 1.279 . S
C1188 C1190 1.353 . S
C1188 N1191 1.314 . S
C1188 H1194 0.930 . S
C1189 N1191 1.279 . S
C1189 C1192 1.358 . S
C1189 H1195 0.930 . S
C1190 C1188 1.353 . S
C1190 C1193 1.348 . S
C1190 H1228 0.929 . S
N1191 Li1146 1.990 . S
N1191 C1188 1.314 . S
N1191 C1189 1.279 . S
C1192 C1189 1.358 . S
C1192 C1193 1.356 . S
C1192 H1229 0.930 . S
C1193 C1190 1.348 . S
C1193 C1192 1.356 . S
H1194 C1188 0.930 . S
H1195 C1189 0.930 . S
C1196 N1197 1.314 . S
C1196 C1198 1.353 . S
C1196 H1202 0.930 . S
N1197 Li1147 1.990 . S
N1197 C1196 1.314 . S
N1197 C1200 1.279 . S
C1198 C1196 1.353 . S
C1198 C1201 1.348 . S
C1198 H1230 0.929 . S
C1199 C1200 1.358 . S
C1199 C1201 1.356 . S
C1199 H1231 0.930 . S
C1200 N1197 1.279 . S
C1200 C1199 1.358 . S
C1200 H1203 0.930 . S
C1201 C1198 1.348 . S
C1201 C1199 1.356 . S
H1202 C1196 0.930 . S
H1203 C1200 0.930 . S
O1204 Li1144 1.956 . S
O1204 Li1145 1.970 . S
O1204 Li1146 1.961 . S
O1204 C1148 1.325 . S
O1205 Li1144 1.970 . S
O1205 Li1145 1.956 . S
O1205 Li1147 1.961 . S
O1205 C1154 1.325 . S
O1206 Li1144 1.961 . S
O1206 Li1146 1.956 . S
O1206 Li1147 1.970 . S
O1206 C1176 1.325 . S
O1207 Li1145 1.961 . S
O1207 Li1146 1.970 . S
O1207 Li1147 1.956 . S
O1207 C1182 1.325 . S
H1208 C1150 0.929 . S
H1209 C1151 0.930 . S
H1210 C1152 0.930 . S
H1211 C1153 0.930 . S
H1212 C1155 0.930 . S
H1213 C1157 0.929 . S
H1214 C1158 0.930 . S
H1215 C1159 0.930 . S
H1216 C1162 0.930 . S
H1217 C1165 0.929 . S
H1218 C1170 0.929 . S
H1219 C1171 0.930 . S
H1220 C1178 0.929 . S
H1221 C1179 0.930 . S
H1222 C1180 0.930 . S
H1223 C1181 0.930 . S
H1224 C1183 0.929 . S
H1225 C1184 0.930 . S
H1226 C1185 0.930 . S
H1227 C1186 0.930 . S
H1228 C1190 0.929 . S
H1229 C1192 0.930 . S
H1230 C1198 0.929 . S
H1231 C1199 0.930 . S
C1232 C1233 1.387 . S
C1232 H1236 0.950 . S
C1232 C1241 1.390 . S
C1233 C1232 1.387 . S
C1233 C1235 1.387 . S
H1234 C1241 0.950 . S
C1235 C1233 1.387 . S
C1235 C1237 1.390 . S
C1235 H1239 0.950 . S
H1236 C1232 0.950 . S
C1237 C1235 1.390 . S
C1237 C1238 1.387 . S
C1237 H1240 0.950 . S
C1238 C1237 1.387 . S
C1238 C1241 1.387 . S
H1239 C1235 0.950 . S
H1240 C1237 0.950 . S
C1241 C1232 1.390 . S
C1241 H1234 0.950 . S
C1241 C1238 1.387 . S
C1242 C1243 1.387 . S
C1242 H1246 0.919 1_455 S
C1242 C1251 1.390 . S
C1243 C1242 1.387 . S
C1243 C1245 1.387 . S
H1244 C1251 0.950 . S
C1245 C1243 1.387 . S
C1245 C1247 1.390 . S
C1245 H1249 0.950 . S
H1246 C1242 0.919 1_655 S
C1247 C1245 1.390 . S
C1247 C1248 1.387 . S
C1247 H1250 0.950 . S
C1248 C1247 1.387 . S
C1248 C1251 1.387 . S
H1249 C1245 0.950 . S
H1250 C1247 0.950 . S
C1251 C1242 1.390 . S
C1251 H1244 0.950 . S
C1251 C1248 1.387 . S
C1252 C1253 1.387 . S
C1252 H1256 0.950 . S
C1252 C1261 1.390 . S
C1253 C1252 1.387 . S
C1253 C1255 1.387 . S
H1254 C1261 0.950 . S
C1255 C1253 1.387 . S
C1255 C1257 1.390 . S
C1255 H1259 0.950 . S
H1256 C1252 0.950 . S
C1257 C1255 1.390 . S
C1257 C1258 1.387 . S
C1257 H1260 0.950 . S
C1258 C1257 1.387 . S
C1258 C1261 1.387 . S
H1259 C1255 0.950 . S
H1260 C1257 0.950 . S
C1261 C1252 1.390 . S
C1261 H1254 0.950 . S
C1261 C1258 1.387 . S
C1262 C1263 1.381 1_565 S
C1262 H1266 0.950 . S
C1262 C1271 1.390 . S
C1263 C1262 1.381 1_545 S
C1263 C1265 1.412 . S
H1264 C1271 0.950 . S
C1265 C1263 1.412 . S
C1265 C1267 1.390 . S
C1265 H1269 0.950 1_655 S
H1266 C1262 0.950 . S
C1267 C1265 1.390 . S
C1267 C1268 1.387 . S
C1267 H1270 0.950 . S
C1268 C1267 1.387 . S
C1268 C1271 1.387 1_545 S
H1269 C1265 0.950 1_455 S
H1270 C1267 0.950 . S
C1271 C1262 1.390 . S
C1271 H1264 0.950 . S
C1271 C1268 1.387 1_565 S
C1272 C1273 1.387 . S
C1272 H1276 0.950 . S
C1272 C1281 1.390 . S
C1273 C1272 1.387 . S
C1273 C1275 1.387 . S
H1274 C1281 0.950 . S
C1275 C1273 1.387 . S
C1275 C1277 1.390 . S
C1275 H1279 0.950 . S
H1276 C1272 0.950 . S
C1277 C1275 1.390 . S
C1277 C1278 1.387 . S
C1277 H1280 0.950 . S
C1278 C1277 1.387 . S
C1278 C1281 1.387 . S
H1279 C1275 0.950 . S
H1280 C1277 0.950 . S
C1281 C1272 1.390 . S
C1281 H1274 0.950 . S
C1281 C1278 1.387 . S
C1282 C1283 1.387 . S
C1282 H1286 0.950 . S
C1282 C1291 1.390 . S
C1283 C1282 1.387 . S
C1283 C1285 1.387 . S
H1284 C1291 0.950 . S
C1285 C1283 1.387 . S
C1285 C1287 1.390 . S
C1285 H1289 0.950 . S
H1286 C1282 0.950 . S
C1287 C1285 1.390 . S
C1287 C1288 1.387 . S
C1287 H1290 0.950 . S
C1288 C1287 1.387 . S
C1288 C1291 1.387 . S
H1289 C1285 0.950 . S
H1290 C1287 0.950 . S
C1291 C1282 1.390 . S
C1291 H1284 0.950 . S
C1291 C1288 1.387 . S
C1292 C1293 1.387 . S
C1292 H1296 0.950 . S
C1292 C1301 1.390 . S
C1293 C1292 1.387 . S
C1293 C1295 1.387 . S
H1294 C1301 0.950 . S
C1295 C1293 1.387 . S
C1295 C1297 1.390 . S
C1295 H1299 0.950 . S
H1296 C1292 0.950 . S
C1297 C1295 1.390 . S
C1297 C1298 1.387 . S
C1297 H1300 0.950 . S
C1298 C1297 1.387 . S
C1298 C1301 1.387 . S
H1299 C1295 0.950 . S
H1300 C1297 0.950 . S
C1301 C1292 1.390 . S
C1301 H1294 0.950 . S
C1301 C1298 1.387 . S
C1302 C1303 1.387 . S
C1302 H1306 0.950 . S
C1302 C1311 1.390 . S
C1303 C1302 1.387 . S
C1303 C1305 1.387 1_565 S
H1304 C1311 0.950 . S
C1305 C1303 1.387 1_545 S
C1305 C1307 1.390 . S
C1305 H1309 0.950 . S
H1306 C1302 0.950 . S
C1307 C1305 1.390 . S
C1307 C1308 1.387 1_545 S
C1307 H1310 0.950 . S
C1308 C1307 1.387 1_565 S
C1308 C1311 1.387 . S
H1309 C1305 0.950 . S
H1310 C1307 0.950 . S
C1311 C1302 1.390 . S
C1311 H1304 0.950 . S
C1311 C1308 1.387 . S
C1312 C1313 1.387 . S
C1312 H1316 0.950 . S
C1312 C1321 1.390 . S
C1313 C1312 1.387 . S
C1313 C1315 1.387 . S
H1314 C1321 0.950 . S
C1315 C1313 1.387 . S
C1315 C1317 1.390 . S
C1315 H1319 0.950 . S
H1316 C1312 0.950 . S
C1317 C1315 1.390 . S
C1317 C1318 1.387 . S
C1317 H1320 0.950 . S
C1318 C1317 1.387 . S
C1318 C1321 1.387 . S
H1319 C1315 0.950 . S
H1320 C1317 0.950 . S
C1321 C1312 1.390 . S
C1321 H1314 0.950 . S
C1321 C1318 1.387 . S
C1322 C1323 1.387 . S
C1322 H1326 0.950 . S
C1322 C1331 1.390 . S
C1323 C1322 1.387 . S
C1323 C1325 1.387 . S
H1324 C1331 0.950 . S
C1325 C1323 1.387 . S
C1325 C1327 1.390 . S
C1325 H1329 0.950 . S
H1326 C1322 0.950 . S
C1327 C1325 1.390 . S
C1327 C1328 1.387 . S
C1327 H1330 0.950 . S
C1328 C1327 1.387 . S
C1328 C1331 1.387 . S
H1329 C1325 0.950 . S
H1330 C1327 0.950 . S
C1331 C1322 1.390 . S
C1331 H1324 0.950 . S
C1331 C1328 1.387 . S
C1332 C1333 1.387 . S
C1332 H1336 0.950 . S
C1332 C1341 1.390 . S
C1333 C1332 1.387 . S
C1333 C1335 1.387 . S
H1334 C1341 0.950 . S
C1335 C1333 1.387 . S
C1335 C1337 1.390 . S
C1335 H1339 0.950 . S
H1336 C1332 0.950 . S
C1337 C1335 1.390 . S
C1337 C1338 1.387 . S
C1337 H1340 0.950 . S
C1338 C1337 1.387 . S
C1338 C1341 1.387 . S
H1339 C1335 0.950 . S
H1340 C1337 0.950 . S
C1341 C1332 1.390 . S
C1341 H1334 0.950 . S
C1341 C1338 1.387 . S
C1342 C1343 1.387 . S
C1342 H1346 0.950 . S
C1342 C1351 1.390 . S
C1343 C1342 1.387 . S
C1343 C1345 1.387 . S
H1344 C1351 0.950 . S
C1345 C1343 1.387 . S
C1345 C1347 1.390 . S
C1345 H1349 0.950 . S
H1346 C1342 0.950 . S
C1347 C1345 1.390 . S
C1347 C1348 1.387 . S
C1347 H1350 0.950 . S
C1348 C1347 1.387 . S
C1348 C1351 1.387 . S
H1349 C1345 0.950 . S
H1350 C1347 0.950 . S
C1351 C1342 1.390 . S
C1351 H1344 0.950 . S
C1351 C1348 1.387 . S
C1352 C1353 1.387 . S
C1352 H1356 0.950 . S
C1352 C1361 1.390 . S
C1353 C1352 1.387 . S
C1353 C1355 1.387 . S
H1354 C1361 0.950 . S
C1355 C1353 1.387 . S
C1355 C1357 1.390 . S
C1355 H1359 0.950 . S
H1356 C1352 0.950 . S
C1357 C1355 1.390 . S
C1357 C1358 1.387 . S
C1357 H1360 0.950 . S
C1358 C1357 1.387 . S
C1358 C1361 1.387 . S
H1359 C1355 0.950 . S
H1360 C1357 0.950 . S
C1361 C1352 1.390 . S
C1361 H1354 0.950 . S
C1361 C1358 1.387 . S
C1362 C1363 1.387 . S
C1362 H1366 0.950 . S
C1362 C1371 1.390 . S
C1363 C1362 1.387 . S
C1363 C1365 1.387 . S
H1364 C1371 0.950 . S
C1365 C1363 1.387 . S
C1365 C1367 1.390 . S
C1365 H1369 0.950 . S
H1366 C1362 0.950 . S
C1367 C1365 1.390 . S
C1367 C1368 1.387 . S
C1367 H1370 0.950 . S
C1368 C1367 1.387 . S
C1368 C1371 1.387 . S
H1369 C1365 0.950 . S
H1370 C1367 0.950 . S
C1371 C1362 1.390 . S
C1371 H1364 0.950 . S
C1371 C1368 1.387 . S
C1372 C1373 1.387 . S
C1372 H1376 0.950 . S
C1372 C1381 1.390 . S
C1373 C1372 1.387 . S
C1373 C1375 1.387 . S
H1374 C1381 0.950 . S
C1375 C1373 1.387 . S
C1375 C1377 1.390 . S
C1375 H1379 0.950 . S
H1376 C1372 0.950 . S
C1377 C1375 1.390 . S
C1377 C1378 1.387 . S
C1377 H1380 0.950 . S
C1378 C1377 1.387 . S
C1378 C1381 1.387 . S
H1379 C1375 0.950 . S
H1380 C1377 0.950 . S
C1381 C1372 1.390 . S
C1381 H1374 0.950 . S
C1381 C1378 1.387 . S
C1382 C1383 1.387 . S
C1382 H1386 0.950 . S
C1382 C1391 1.390 . S
C1383 C1382 1.387 . S
C1383 C1385 1.387 1_455 S
H1384 C1391 0.950 . S
C1385 C1383 1.387 1_655 S
C1385 C1387 1.390 . S
C1385 H1389 0.950 . S
H1386 C1382 0.950 . S
C1387 C1385 1.390 . S
C1387 C1388 1.387 1_655 S
C1387 H1390 0.950 . S
C1388 C1387 1.387 1_455 S
C1388 C1391 1.387 . S
H1389 C1385 0.950 . S
H1390 C1387 0.950 . S
C1391 C1382 1.390 . S
C1391 H1384 0.950 . S
C1391 C1388 1.387 . S
C1392 C1393 1.387 . S
C1392 H1396 0.950 . S
C1392 C1401 1.390 . S
C1393 C1392 1.387 . S
C1393 C1395 1.387 . S
H1394 C1401 0.950 . S
C1395 C1393 1.387 . S
C1395 C1397 1.390 . S
C1395 H1399 0.950 . S
H1396 C1392 0.950 . S
C1397 C1395 1.390 . S
C1397 C1398 1.387 . S
C1397 H1400 0.950 . S
C1398 C1397 1.387 . S
C1398 C1401 1.387 . S
H1399 C1395 0.950 . S
H1400 C1397 0.950 . S
C1401 C1392 1.390 . S
C1401 H1394 0.950 . S
C1401 C1398 1.387 . S
C1402 C1403 1.387 . S
C1402 H1406 0.950 . S
C1402 C1411 1.390 . S
C1403 C1402 1.387 . S
C1403 C1405 1.387 . S
H1404 C1411 0.950 . S
C1405 C1403 1.387 . S
C1405 C1407 1.390 . S
C1405 H1409 0.950 . S
H1406 C1402 0.950 . S
C1407 C1405 1.390 . S
C1407 C1408 1.387 . S
C1407 H1410 0.950 . S
C1408 C1407 1.387 . S
C1408 C1411 1.387 . S
H1409 C1405 0.950 . S
H1410 C1407 0.950 . S
C1411 C1402 1.390 . S
C1411 H1404 0.950 . S
C1411 C1408 1.387 . S
C1412 C1413 1.373 1_556 S
C1412 H1416 0.950 . S
C1412 C1421 1.390 . S
C1413 C1412 1.373 1_554 S
C1413 C1415 1.403 . S
H1414 C1421 0.950 . S
C1415 C1413 1.403 . S
C1415 C1417 1.390 . S
C1415 H1419 0.950 . S
H1416 C1412 0.950 . S
C1417 C1415 1.390 . S
C1417 C1418 1.387 . S
C1417 H1420 0.950 . S
C1418 C1417 1.387 . S
C1418 C1421 1.388 1_554 S
H1419 C1415 0.950 . S
H1420 C1417 0.950 . S
C1421 C1412 1.390 . S
C1421 H1414 0.950 . S
C1421 C1418 1.388 1_556 S
C1422 C1423 1.387 . S
C1422 H1426 0.950 . S
C1422 C1431 1.390 . S
C1423 C1422 1.387 . S
C1423 C1425 1.387 . S
H1424 C1431 0.950 . S
C1425 C1423 1.387 . S
C1425 C1427 1.390 . S
C1425 H1429 0.950 . S
H1426 C1422 0.950 . S
C1427 C1425 1.390 . S
C1427 C1428 1.387 . S
C1427 H1430 0.950 . S
C1428 C1427 1.387 . S
C1428 C1431 1.387 . S
H1429 C1425 0.950 . S
H1430 C1427 0.950 . S
C1431 C1422 1.390 . S
C1431 H1424 0.950 . S
C1431 C1428 1.387 . S
C1432 C1433 1.387 . S
C1432 H1436 0.950 . S
C1432 C1441 1.390 . S
C1433 C1432 1.387 . S
C1433 C1435 1.387 . S
H1434 C1441 0.950 . S
C1435 C1433 1.387 . S
C1435 C1437 1.390 . S
C1435 H1439 0.950 . S
H1436 C1432 0.950 . S
C1437 C1435 1.390 . S
C1437 C1438 1.387 . S
C1437 H1440 0.950 . S
C1438 C1437 1.387 . S
C1438 C1441 1.387 . S
H1439 C1435 0.950 . S
H1440 C1437 0.950 . S
C1441 C1432 1.390 . S
C1441 H1434 0.950 . S
C1441 C1438 1.387 . S
C1442 C1443 1.387 . S
C1442 H1446 0.950 . S
C1442 C1451 1.390 . S
C1443 C1442 1.387 . S
C1443 C1445 1.387 . S
H1444 C1451 0.950 . S
C1445 C1443 1.387 . S
C1445 C1447 1.390 . S
C1445 H1449 0.950 . S
H1446 C1442 0.950 . S
C1447 C1445 1.390 . S
C1447 C1448 1.387 . S
C1447 H1450 0.950 . S
C1448 C1447 1.387 . S
C1448 C1451 1.387 . S
H1449 C1445 0.950 . S
H1450 C1447 0.950 . S
C1451 C1442 1.390 . S
C1451 H1444 0.950 . S
C1451 C1448 1.387 . S
C1452 C1453 1.387 . S
C1452 H1456 0.950 . S
C1452 C1461 1.390 . S
C1453 C1452 1.387 . S
C1453 C1455 1.387 . S
H1454 C1461 0.950 . S
C1455 C1453 1.387 . S
C1455 C1457 1.390 . S
C1455 H1459 0.950 . S
H1456 C1452 0.950 . S
C1457 C1455 1.390 . S
C1457 C1458 1.387 . S
C1457 H1460 0.950 . S
C1458 C1457 1.387 . S
C1458 C1461 1.387 . S
H1459 C1455 0.950 . S
H1460 C1457 0.950 . S
C1461 C1452 1.390 . S
C1461 H1454 0.950 . S
C1461 C1458 1.387 . S
C1462 C1463 1.387 . S
C1462 H1466 0.950 . S
C1462 C1471 1.390 . S
C1463 C1462 1.387 . S
C1463 C1465 1.387 . S
H1464 C1471 0.950 . S
C1465 C1463 1.387 . S
C1465 C1467 1.390 . S
C1465 H1469 0.950 . S
H1466 C1462 0.950 . S
C1467 C1465 1.390 . S
C1467 C1468 1.387 . S
C1467 H1470 0.950 . S
C1468 C1467 1.387 . S
C1468 C1471 1.387 . S
H1469 C1465 0.950 . S
H1470 C1467 0.950 . S
C1471 C1462 1.390 . S
C1471 H1464 0.950 . S
C1471 C1468 1.387 . S
C1472 C1473 1.387 . S
C1472 H1476 0.950 . S
C1472 C1481 1.390 . S
C1473 C1472 1.387 . S
C1473 C1475 1.387 . S
H1474 C1481 0.950 . S
C1475 C1473 1.387 . S
C1475 C1477 1.390 . S
C1475 H1479 0.950 . S
H1476 C1472 0.950 . S
C1477 C1475 1.390 . S
C1477 C1478 1.387 . S
C1477 H1480 0.950 . S
C1478 C1477 1.387 . S
C1478 C1481 1.387 . S
H1479 C1475 0.950 . S
H1480 C1477 0.950 . S
C1481 C1472 1.390 . S
C1481 H1474 0.950 . S
C1481 C1478 1.387 . S
C1482 C1483 1.387 . S
C1482 H1486 0.950 . S
C1482 C1491 1.390 . S
C1483 C1482 1.387 . S
C1483 C1485 1.387 . S
H1484 C1491 0.950 . S
C1485 C1483 1.387 . S
C1485 C1487 1.390 . S
C1485 H1489 0.950 1_545 S
H1486 C1482 0.950 . S
C1487 C1485 1.390 . S
C1487 C1488 1.387 . S
C1487 H1490 0.950 1_545 S
C1488 C1487 1.387 . S
C1488 C1491 1.387 . S
H1489 C1485 0.950 1_565 S
H1490 C1487 0.950 1_565 S
C1491 C1482 1.390 . S
C1491 H1484 0.950 . S
C1491 C1488 1.387 . S
C1492 C1493 1.387 . S
C1492 H1496 0.950 . S
C1492 C1501 1.390 . S
C1493 C1492 1.387 . S
C1493 C1495 1.387 . S
H1494 C1501 0.950 . S
C1495 C1493 1.387 . S
C1495 C1497 1.390 . S
C1495 H1499 0.950 . S
H1496 C1492 0.950 . S
C1497 C1495 1.390 . S
C1497 C1498 1.387 . S
C1497 H1500 0.950 . S
C1498 C1497 1.387 . S
C1498 C1501 1.387 . S
H1499 C1495 0.950 . S
H1500 C1497 0.950 . S
C1501 C1492 1.390 . S
C1501 H1494 0.950 . S
C1501 C1498 1.387 . S
C1502 C1503 1.387 . S
C1502 H1506 0.950 . S
C1502 C1511 1.390 . S
C1503 C1502 1.387 . S
C1503 C1505 1.387 . S
H1504 C1511 0.950 . S
C1505 C1503 1.387 . S
C1505 C1507 1.390 . S
C1505 H1509 0.950 . S
H1506 C1502 0.950 . S
C1507 C1505 1.390 . S
C1507 C1508 1.387 . S
C1507 H1510 0.950 . S
C1508 C1507 1.387 . S
C1508 C1511 1.387 . S
H1509 C1505 0.950 . S
H1510 C1507 0.950 . S
C1511 C1502 1.390 . S
C1511 H1504 0.950 . S
C1511 C1508 1.387 . S
C1512 C1513 1.387 . S
C1512 H1516 0.950 . S
C1512 C1521 1.390 . S
C1513 C1512 1.387 . S
C1513 C1515 1.387 . S
H1514 C1521 0.950 . S
C1515 C1513 1.387 . S
C1515 C1517 1.390 . S
C1515 H1519 0.950 . S
H1516 C1512 0.950 . S
C1517 C1515 1.390 . S
C1517 C1518 1.387 . S
C1517 H1520 0.950 . S
C1518 C1517 1.387 . S
C1518 C1521 1.387 . S
H1519 C1515 0.950 . S
H1520 C1517 0.950 . S
C1521 C1512 1.390 . S
C1521 H1514 0.950 . S
C1521 C1518 1.387 . S
C1522 C1523 1.387 . S
C1522 H1526 0.950 1_545 S
C1522 C1531 1.390 . S
C1523 C1522 1.387 . S
C1523 C1525 1.387 . S
H1524 C1531 0.950 1_565 S
C1525 C1523 1.387 . S
C1525 C1527 1.390 . S
C1525 H1529 0.950 . S
H1526 C1522 0.950 1_565 S
C1527 C1525 1.390 . S
C1527 C1528 1.387 . S
C1527 H1530 0.950 . S
C1528 C1527 1.387 . S
C1528 C1531 1.387 . S
H1529 C1525 0.950 . S
H1530 C1527 0.950 . S
C1531 C1522 1.390 . S
C1531 H1524 0.950 1_545 S
C1531 C1528 1.387 . S
C1532 C1533 1.387 . S
C1532 H1536 0.950 . S
C1532 C1541 1.390 . S
C1533 C1532 1.387 . S
C1533 C1535 1.387 . S
H1534 C1541 0.950 . S
C1535 C1533 1.387 . S
C1535 C1537 1.390 . S
C1535 H1539 0.950 . S
H1536 C1532 0.950 . S
C1537 C1535 1.390 . S
C1537 C1538 1.387 . S
C1537 H1540 0.950 . S
C1538 C1537 1.387 . S
C1538 C1541 1.387 . S
H1539 C1535 0.950 . S
H1540 C1537 0.950 . S
C1541 C1532 1.390 . S
C1541 H1534 0.950 . S
C1541 C1538 1.387 . S
C1542 C1543 1.387 . S
C1542 H1546 0.950 . S
C1542 C1551 1.390 . S
C1543 C1542 1.387 . S
C1543 C1545 1.387 . S
H1544 C1551 0.950 . S
C1545 C1543 1.387 . S
C1545 C1547 1.390 . S
C1545 H1549 0.950 . S
H1546 C1542 0.950 . S
C1547 C1545 1.390 . S
C1547 C1548 1.387 . S
C1547 H1550 0.950 . S
C1548 C1547 1.387 . S
C1548 C1551 1.387 . S
H1549 C1545 0.950 . S
H1550 C1547 0.950 . S
C1551 C1542 1.390 . S
C1551 H1544 0.950 . S
C1551 C1548 1.387 . S
C1552 C1553 1.387 . S
C1552 H1556 0.950 . S
C1552 C1561 1.390 . S
C1553 C1552 1.387 . S
C1553 C1555 1.387 . S
H1554 C1561 0.950 . S
C1555 C1553 1.387 . S
C1555 C1557 1.390 . S
C1555 H1559 0.950 . S
H1556 C1552 0.950 . S
C1557 C1555 1.390 . S
C1557 C1558 1.387 . S
C1557 H1560 0.950 . S
C1558 C1557 1.387 . S
C1558 C1561 1.387 . S
H1559 C1555 0.950 . S
H1560 C1557 0.950 . S
C1561 C1552 1.390 . S
C1561 H1554 0.950 . S
C1561 C1558 1.387 . S
C1562 C1563 1.387 1_455 S
C1562 H1566 0.950 . S
C1562 C1571 1.390 . S
C1563 C1562 1.387 1_655 S
C1563 C1565 1.387 . S
H1564 C1571 0.950 . S
C1565 C1563 1.387 . S
C1565 C1567 1.390 . S
C1565 H1569 0.950 . S
H1566 C1562 0.950 . S
C1567 C1565 1.390 . S
C1567 C1568 1.387 . S
C1567 H1570 0.950 . S
C1568 C1567 1.387 . S
C1568 C1571 1.387 1_655 S
H1569 C1565 0.950 . S
H1570 C1567 0.950 . S
C1571 C1562 1.390 . S
C1571 H1564 0.950 . S
C1571 C1568 1.387 1_455 S
C1572 C1573 1.387 . S
C1572 H1576 0.950 . S
C1572 C1581 1.390 . S
C1573 C1572 1.387 . S
C1573 C1575 1.387 . S
H1574 C1581 0.950 . S
C1575 C1573 1.387 . S
C1575 C1577 1.390 . S
C1575 H1579 0.950 . S
H1576 C1572 0.950 . S
C1577 C1575 1.390 . S
C1577 C1578 1.387 . S
C1577 H1580 0.950 . S
C1578 C1577 1.387 . S
C1578 C1581 1.387 . S
H1579 C1575 0.950 . S
H1580 C1577 0.950 . S
C1581 C1572 1.390 . S
C1581 H1574 0.950 . S
C1581 C1578 1.387 . S
C1582 C1583 1.387 1_556 S
C1582 H1586 0.950 . S
C1582 C1591 1.390 . S
C1583 C1582 1.387 1_554 S
C1583 C1585 1.387 . S
H1584 C1591 0.950 . S
C1585 C1583 1.387 . S
C1585 C1587 1.390 . S
C1585 H1589 0.950 . S
H1586 C1582 0.950 . S
C1587 C1585 1.390 . S
C1587 C1588 1.387 1_554 S
C1587 H1590 0.950 . S
C1588 C1587 1.387 1_556 S
C1588 C1591 1.387 . S
H1589 C1585 0.950 . S
H1590 C1587 0.950 . S
C1591 C1582 1.390 . S
C1591 H1584 0.950 . S
C1591 C1588 1.387 . S
C1592 C1593 1.387 . S
C1592 H1596 0.950 . S
C1592 C1601 1.390 . S
C1593 C1592 1.387 . S
C1593 C1595 1.387 . S
H1594 C1601 0.950 . S
C1595 C1593 1.387 . S
C1595 C1597 1.390 . S
C1595 H1599 0.950 . S
H1596 C1592 0.950 . S
C1597 C1595 1.390 . S
C1597 C1598 1.387 . S
C1597 H1600 0.950 . S
C1598 C1597 1.387 . S
C1598 C1601 1.387 . S
H1599 C1595 0.950 . S
H1600 C1597 0.950 . S
C1601 C1592 1.390 . S
C1601 H1594 0.950 . S
C1601 C1598 1.387 . S
C1602 C1603 1.387 . S
C1602 H1606 0.950 . S
C1602 C1611 1.390 . S
C1603 C1602 1.387 . S
C1603 C1605 1.387 . S
H1604 C1611 0.950 . S
C1605 C1603 1.387 . S
C1605 C1607 1.390 . S
C1605 H1609 0.950 . S
H1606 C1602 0.950 . S
C1607 C1605 1.390 . S
C1607 C1608 1.387 . S
C1607 H1610 0.950 . S
C1608 C1607 1.387 . S
C1608 C1611 1.387 . S
H1609 C1605 0.950 . S
H1610 C1607 0.950 . S
C1611 C1602 1.390 . S
C1611 H1604 0.950 . S
C1611 C1608 1.387 . S
C1612 C1613 1.387 . S
C1612 H1616 0.950 . S
C1612 C1621 1.390 . S
C1613 C1612 1.387 . S
C1613 C1615 1.387 . S
H1614 C1621 0.950 . S
C1615 C1613 1.387 . S
C1615 C1617 1.390 . S
C1615 H1619 0.950 . S
H1616 C1612 0.950 . S
C1617 C1615 1.390 . S
C1617 C1618 1.387 . S
C1617 H1620 0.950 . S
C1618 C1617 1.387 . S
C1618 C1621 1.387 . S
H1619 C1615 0.950 . S
H1620 C1617 0.950 . S
C1621 C1612 1.390 . S
C1621 H1614 0.950 . S
C1621 C1618 1.387 . S
C1622 C1623 1.387 . S
C1622 H1626 0.950 . S
C1622 C1631 1.390 . S
C1623 C1622 1.387 . S
C1623 C1625 1.387 . S
H1624 C1631 0.950 . S
C1625 C1623 1.387 . S
C1625 C1627 1.390 . S
C1625 H1629 0.950 . S
H1626 C1622 0.950 . S
C1627 C1625 1.390 . S
C1627 C1628 1.387 . S
C1627 H1630 0.950 . S
C1628 C1627 1.387 . S
C1628 C1631 1.387 . S
H1629 C1625 0.950 . S
H1630 C1627 0.950 . S
C1631 C1622 1.390 . S
C1631 H1624 0.950 . S
C1631 C1628 1.387 . S
C1632 C1633 1.387 . S
C1632 H1636 0.950 . S
C1632 C1641 1.390 . S
C1633 C1632 1.387 . S
C1633 C1635 1.387 . S
H1634 C1641 0.950 . S
C1635 C1633 1.387 . S
C1635 C1637 1.390 . S
C1635 H1639 0.950 . S
H1636 C1632 0.950 . S
C1637 C1635 1.390 . S
C1637 C1638 1.387 . S
C1637 H1640 0.950 . S
C1638 C1637 1.387 . S
C1638 C1641 1.387 . S
H1639 C1635 0.950 . S
H1640 C1637 0.950 . S
C1641 C1632 1.390 . S
C1641 H1634 0.950 . S
C1641 C1638 1.387 . S
C1642 C1643 1.387 . S
C1642 H1646 0.950 . S
C1642 C1651 1.390 . S
C1643 C1642 1.387 . S
C1643 C1645 1.387 . S
H1644 C1651 0.950 . S
C1645 C1643 1.387 . S
C1645 C1647 1.390 . S
C1645 H1649 0.950 . S
H1646 C1642 0.950 . S
C1647 C1645 1.390 . S
C1647 C1648 1.387 . S
C1647 H1650 0.950 . S
C1648 C1647 1.387 . S
C1648 C1651 1.387 . S
H1649 C1645 0.950 . S
H1650 C1647 0.950 . S
C1651 C1642 1.390 . S
C1651 H1644 0.950 . S
C1651 C1648 1.387 . S
C1652 C1653 1.387 . S
C1652 H1656 0.950 . S
C1652 C1661 1.390 . S
C1653 C1652 1.387 . S
C1653 C1655 1.387 . S
H1654 C1661 0.950 . S
C1655 C1653 1.387 . S
C1655 C1657 1.390 . S
C1655 H1659 0.950 . S
H1656 C1652 0.950 . S
C1657 C1655 1.390 . S
C1657 C1658 1.387 . S
C1657 H1660 0.950 . S
C1658 C1657 1.387 . S
C1658 C1661 1.387 . S
H1659 C1655 0.950 . S
H1660 C1657 0.950 . S
C1661 C1652 1.390 . S
C1661 H1654 0.950 . S
C1661 C1658 1.387 . S
C1662 C1663 1.387 . S
C1662 H1666 0.950 . S
C1662 C1671 1.390 . S
C1663 C1662 1.387 . S
C1663 C1665 1.387 . S
H1664 C1671 0.950 . S
C1665 C1663 1.387 . S
C1665 C1667 1.390 . S
C1665 H1669 0.950 . S
H1666 C1662 0.950 . S
C1667 C1665 1.390 . S
C1667 C1668 1.387 . S
C1667 H1670 0.950 . S
C1668 C1667 1.387 . S
C1668 C1671 1.387 . S
H1669 C1665 0.950 . S
H1670 C1667 0.950 . S
C1671 C1662 1.390 . S
C1671 H1664 0.950 . S
C1671 C1668 1.387 . S
C1672 C1673 1.387 . S
C1672 H1676 0.950 . S
C1672 C1681 1.390 . S
C1673 C1672 1.387 . S
C1673 C1675 1.387 1_556 S
H1674 C1681 0.950 . S
C1675 C1673 1.387 1_554 S
C1675 C1677 1.390 . S
C1675 H1679 0.950 . S
H1676 C1672 0.950 . S
C1677 C1675 1.390 . S
C1677 C1678 1.387 1_554 S
C1677 H1680 0.950 . S
C1678 C1677 1.387 1_556 S
C1678 C1681 1.387 . S
H1679 C1675 0.950 . S
H1680 C1677 0.950 . S
C1681 C1672 1.390 . S
C1681 H1674 0.950 . S
C1681 C1678 1.387 . S
C1682 C1683 1.387 . S
C1682 H1686 0.950 . S
C1682 C1691 1.390 . S
C1683 C1682 1.387 . S
C1683 C1685 1.387 . S
H1684 C1691 0.950 . S
C1685 C1683 1.387 . S
C1685 C1687 1.390 . S
C1685 H1689 0.950 . S
H1686 C1682 0.950 . S
C1687 C1685 1.390 . S
C1687 C1688 1.387 . S
C1687 H1690 0.950 . S
C1688 C1687 1.387 . S
C1688 C1691 1.387 . S
H1689 C1685 0.950 . S
H1690 C1687 0.950 . S
C1691 C1682 1.390 . S
C1691 H1684 0.950 . S
C1691 C1688 1.387 . S
C1692 C1693 1.387 . S
C1692 H1696 0.950 . S
C1692 C1701 1.390 . S
C1693 C1692 1.387 . S
C1693 C1695 1.387 . S
H1694 C1701 0.950 . S
C1695 C1693 1.387 . S
C1695 C1697 1.390 . S
C1695 H1699 0.950 . S
H1696 C1692 0.950 . S
C1697 C1695 1.390 . S
C1697 C1698 1.387 . S
C1697 H1700 0.950 . S
C1698 C1697 1.387 . S
C1698 C1701 1.387 . S
H1699 C1695 0.950 . S
H1700 C1697 0.950 . S
C1701 C1692 1.390 . S
C1701 H1694 0.950 . S
C1701 C1698 1.387 . S
C1702 C1703 1.387 . S
C1702 H1706 0.950 . S
C1702 C1711 1.390 . S
C1703 C1702 1.387 . S
C1703 C1705 1.387 1_554 S
H1704 C1711 0.950 . S
C1705 C1703 1.387 1_556 S
C1705 C1707 1.390 . S
C1705 H1709 0.950 . S
H1706 C1702 0.950 . S
C1707 C1705 1.390 . S
C1707 C1708 1.387 1_556 S
C1707 H1710 0.950 . S
C1708 C1707 1.387 1_554 S
C1708 C1711 1.387 . S
H1709 C1705 0.950 . S
H1710 C1707 0.950 . S
C1711 C1702 1.390 . S
C1711 H1704 0.950 . S
C1711 C1708 1.387 . S
C1238 C225 1.289 . S
C1233 C62 1.238 . S
C1248 C284 1.600 . S
C1243 C73 1.523 . S
C1253 C84 1.487 . S
C1258 C401 1.551 . S
C1268 C469 1.282 . S
C1263 C49 1.133 1_655 S
C1278 C548 1.376 . S
C1273 C118 1.373 . S
C1288 C673 1.649 . S
C1283 C137 1.384 . S
C1293 C129 1.574 . S
C1298 C733 1.593 . S
C1308 C841 1.889 . S
C1303 C106 1.862 . S
C1313 C128 1.801 . S
C1318 C937 1.873 . S
C1328 C997 1.663 . S
C1323 C104 1.498 . S
C1333 C115 1.591 . S
C1338 C900 1.820 . S
C1348 C1017 1.817 . S
C1343 C139 1.726 . S
C1353 C85 1.577 . S
C1358 C1085 1.570 . S
C1363 C52 1.231 . S
C1368 C1076 1.229 . S
C1373 C60 0.911 . S
C1378 C1105 1.055 . S
C1383 C71 1.511 . S
C1388 C1113 1.600 . S
C1393 C40 1.688 . S
C1398 C497 1.760 . S
C1403 C162 1.163 . S
C1408 C460 1.187 . S
C1418 C196 1.171 . S
C1413 C173 1.178 . S
C1428 C293 1.756 . S
C1423 C93 1.600 . S
C1433 C51 1.486 . S
C1438 C557 1.504 . S
C1448 C849 1.526 . S
C1443 C126 1.327 . S
C1458 C577 1.761 . S
C1453 C107 1.751 . S
C1468 C761 1.608 . S
C1463 C140 1.593 . S
C1478 C753 1.291 . S
C1473 C161 1.239 . S
C1483 C172 1.523 . S
C1488 C821 1.596 . S
C1493 C95 1.490 . S
C1498 C585 1.551 . S
C1508 C636 1.282 . S
C1503 C148 1.131 . S
C1513 C41 1.372 . S
C1518 C381 1.376 . S
C1528 C489 1.649 . S
C1523 C5 1.384 . S
C1538 C205 1.594 . S
C1533 C19 1.575 . S
C1548 C321 1.889 . S
C1543 C29 1.862 1_455 S
C1553 C18 1.801 . S
C1558 C1025 1.873 . S
C1563 C27 1.496 . S
C1568 C909 1.664 1_654 S
C1573 C38 1.595 . S
C1578 C988 1.820 . S
C1583 C7 1.725 . S
C1588 C929 1.818 . S
C1598 C1173 1.570 . S
C1593 C96 1.578 . S
C1608 C1164 1.229 . S
C1603 C151 1.232 . S
C1618 C1193 1.055 . S
C1613 C159 0.911 . S
C1623 C170 1.512 . S
C1628 C1201 1.602 . S
C1633 C117 1.688 . S
C1638 C665 1.760 . S
C1648 C645 1.185 . S
C1643 C63 1.160 . S
C1658 C724 1.171 . S
C1653 C74 1.178 . S
C1668 C812 1.756 . S
C1663 C82 1.600 . S
C1673 C150 1.486 . S
C1678 C372 1.504 . S
C1688 C313 1.527 . S
C1683 C16 1.327 . S
C1693 C30 1.750 . S
C1698 C409 1.760 . S
C1708 C233 1.609 . S
C1703 C8 1.592 . S
