# Generated by pormake.
# Topology anh, (6,3)-cn, num edge types: 1
# Building blocks:
#     Node 0, Type 0, BuildingBlock: BETDIP_clean_sbu_0, # of connection points: 6
#     Node 1, Type 0, BuildingBlock: BETDIP_clean_sbu_0, # of connection points: 6
#     Node 2, Type 0, BuildingBlock: BETDIP_clean_sbu_0, # of connection points: 6
#     Node 3, Type 1, BuildingBlock: OLANEW_clean_sbu_2, # of connection points: 3
#     Node 4, Type 1, BuildingBlock: OLANEW_clean_sbu_2, # of connection points: 3
#     Node 5, Type 1, BuildingBlock: OLANEW_clean_sbu_2, # of connection points: 3
#     Node 6, Type 1, BuildingBlock: OLANEW_clean_sbu_2, # of connection points: 3
#     Node 7, Type 1, BuildingBlock: OLANEW_clean_sbu_2, # of connection points: 3
#     Node 8, Type 1, BuildingBlock: OLANEW_clean_sbu_2, # of connection points: 3
#     Edge 9, Type (0, 1), BuildingBlock: AJUNOK_clean_linker_0, # of connection points: 2
#     Edge 10, Type (0, 1), BuildingBlock: AJUNOK_clean_linker_0, # of connection points: 2
#     Edge 11, Type (0, 1), BuildingBlock: AJUNOK_clean_linker_0, # of connection points: 2
#     Edge 12, Type (0, 1), BuildingBlock: AJUNOK_clean_linker_0, # of connection points: 2
#     Edge 13, Type (0, 1), BuildingBlock: AJUNOK_clean_linker_0, # of connection points: 2
#     Edge 14, Type (0, 1), BuildingBlock: AJUNOK_clean_linker_0, # of connection points: 2
#     Edge 15, Type (0, 1), BuildingBlock: AJUNOK_clean_linker_0, # of connection points: 2
#     Edge 16, Type (0, 1), BuildingBlock: AJUNOK_clean_linker_0, # of connection points: 2
#     Edge 17, Type (0, 1), BuildingBlock: AJUNOK_clean_linker_0, # of connection points: 2
#     Edge 18, Type (0, 1), BuildingBlock: AJUNOK_clean_linker_0, # of connection points: 2
#     Edge 19, Type (0, 1), BuildingBlock: AJUNOK_clean_linker_0, # of connection points: 2
#     Edge 20, Type (0, 1), BuildingBlock: AJUNOK_clean_linker_0, # of connection points: 2
#     Edge 21, Type (0, 1), BuildingBlock: AJUNOK_clean_linker_0, # of connection points: 2
#     Edge 22, Type (0, 1), BuildingBlock: AJUNOK_clean_linker_0, # of connection points: 2
#     Edge 23, Type (0, 1), BuildingBlock: AJUNOK_clean_linker_0, # of connection points: 2
#     Edge 24, Type (0, 1), BuildingBlock: AJUNOK_clean_linker_0, # of connection points: 2
#     Edge 25, Type (0, 1), BuildingBlock: AJUNOK_clean_linker_0, # of connection points: 2
#     Edge 26, Type (0, 1), BuildingBlock: AJUNOK_clean_linker_0, # of connection points: 2
# Relax obj value: 0.333
# Max RMSD: 0.139
# Mean RMSD: 0.121
data_MOF--net-anh--node1-BETDIP_clean_sbu_0--node2-OLANEW_clean_sbu_2--edge1-AJUNOK_clean_linker_0
_symmetry_space_group_name_H-M    P1
_symmetry_Int_Tables_number       1
_symmetry_cell_setting            triclinic
loop_
_symmetry_equiv_pos_as_xyz
'x, y, z'
_cell_length_a     28.523657
_cell_length_b     28.385393
_cell_length_c     36.613667
_cell_angle_alpha  89.837093
_cell_angle_beta   90.255467
_cell_angle_gamma 120.22953
loop_
_atom_site_label
_atom_site_type_symbol
_atom_site_fract_x
_atom_site_fract_y
_atom_site_fract_z
_atom_type_partial_charge
Tb0 Tb 0.09274 0.61172 0.17694 0.0
Tb1 Tb 1.03663 0.49624 0.15641 0.0
C2 C 0.15353 0.70132 0.20876 0.0
C3 C 0.21267 0.73745 0.2127 0.0
C4 C 0.23372 0.78736 0.23108 0.0
C5 C 0.28998 0.82161 0.23495 0.0
C6 C 0.32617 0.80586 0.22123 0.0
C7 C 0.30447 0.75597 0.20242 0.0
C8 C 0.24856 0.72269 0.19778 0.0
C9 C 0.07432 0.59587 0.10686 0.0
C10 C 0.16148 0.55185 0.15651 0.0
C11 C 0.97141 0.40364 0.13111 0.0
C12 C 0.91372 0.36789 0.13964 0.0
C13 C 0.87859 0.32877 0.11446 0.0
C14 C 0.82286 0.29813 0.12163 0.0
C15 C 0.80171 0.30648 0.15404 0.0
C16 C 0.83725 0.34545 0.17925 0.0
C17 C 0.8927 0.37591 0.17211 0.0
C18 C 0.04766 0.51493 0.22826 0.0
C19 C 0.96804 0.55753 0.16186 0.0
O20 O 0.13282 0.65371 0.22477 0.0
O21 O 0.13424 0.69728 0.17579 0.0
O22 O 0.0889 0.56968 0.12743 0.0
O23 O 0.07479 0.63524 0.12487 0.0
O24 O 0.15911 0.59115 0.17478 0.0
O25 O 0.11705 0.51202 0.14151 0.0
O26 O 0.98287 0.44908 0.11463 0.0
O27 O 1.00522 0.41169 0.15784 0.0
O28 O 1.03611 0.53964 0.20459 0.0
O29 O 0.05132 0.47659 0.21202 0.0
O30 O 0.97242 0.51638 0.14921 0.0
O31 O 1.00949 0.59833 0.17942 0.0
H32 H 0.20668 0.80003 0.24222 0.0
H33 H 0.30492 0.86057 0.24832 0.0
H34 H 0.33067 0.7422 0.19141 0.0
H35 H 0.23352 0.68544 0.18246 0.0
H36 H 0.89407 0.32273 0.08901 0.0
H37 H 0.79618 0.26898 0.10148 0.0
H38 H 0.82204 0.35263 0.20444 0.0
H39 H 0.91909 0.40658 0.19164 0.0
Tb40 Tb 0.56548 1.02406 0.50358 0.0
Tb41 Tb 0.5046 0.08304 0.49417 0.0
C42 C 0.60215 0.96791 0.53091 0.0
C43 C 0.58615 0.91098 0.53806 0.0
C44 C 0.61297 0.90005 0.56595 0.0
C45 C 0.60254 0.84712 0.57167 0.0
C46 C 0.56505 0.80411 0.54953 0.0
C47 C 0.53636 0.81474 0.52251 0.0
C48 C 0.54685 0.868 0.5168 0.0
C49 C 0.55097 0.04307 0.43543 0.0
C50 C 0.43411 0.95521 0.49423 0.0
C51 C 0.47495 0.14922 0.47555 0.0
C52 C 0.50748 0.20935 0.47335 0.0
C53 C 0.55226 0.23507 0.44972 0.0
C54 C 0.59211 0.28946 0.4553 0.0
C55 C 0.58748 0.31916 0.48422 0.0
C56 C 0.53989 0.29522 0.50525 0.0
C57 C 0.50011 0.2408 0.49975 0.0
C58 C 0.51929 0.06309 0.56244 0.0
C59 C 0.63551 0.14838 0.48929 0.0
O60 O 0.57723 0.98767 0.54993 0.0
O61 O 0.6088 0.98331 0.49667 0.0
O62 O 0.51792 1.03016 0.46121 0.0
O63 O 0.59325 0.04117 0.44661 0.0
O64 O 0.47936 0.95571 0.50455 0.0
O65 O 0.43557 1.00126 0.4852 0.0
O66 O 0.48651 0.12187 0.45208 0.0
O67 O 0.46894 0.12933 0.50857 0.0
O68 O 0.55379 0.07857 0.53709 0.0
O69 O 0.47505 0.0595 0.55014 0.0
O70 O 0.58921 0.1462 0.48069 0.0
O71 O 0.63562 0.10634 0.50479 0.0
H72 H 0.64327 0.9328 0.58266 0.0
H73 H 0.62555 0.84023 0.59249 0.0
H74 H 0.5067 0.78215 0.50543 0.0
H75 H 0.52537 0.87581 0.49533 0.0
H76 H 0.55863 0.21224 0.42865 0.0
H77 H 0.62825 0.3073 0.43856 0.0
H78 H 0.5355 0.31697 0.52802 0.0
H79 H 0.46583 0.22206 0.51818 0.0
Tb80 Tb 0.50255 0.49916 0.82515 0.0
Tb81 Tb 0.61631 0.56511 0.84096 0.0
C82 C 0.4014 0.45815 0.82542 0.0
C83 C 0.36586 0.48147 0.82749 0.0
C84 C 0.38101 0.52861 0.84814 0.0
C85 C 0.34864 0.55249 0.84801 0.0
C86 C 0.30095 0.53 0.82692 0.0
C87 C 0.28553 0.48243 0.80661 0.0
C88 C 0.3179 0.45841 0.80685 0.0
C89 C 0.56535 0.51814 0.76822 0.0
C90 C 0.56027 0.63004 0.81925 0.0
C91 C 0.71631 0.60301 0.84892 0.0
C92 C 0.74487 0.58053 0.86951 0.0
C93 C 0.7958 0.59072 0.85792 0.0
C94 C 0.82162 0.56675 0.87618 0.0
C95 C 0.79692 0.53239 0.90638 0.0
C96 C 0.74588 0.52226 0.91802 0.0
C97 C 0.71988 0.54593 0.89957 0.0
C98 C 0.55364 0.54441 0.89946 0.0
C99 C 0.56242 0.43421 0.8317 0.0
O100 O 0.42998 0.46292 0.85474 0.0
O101 O 0.43007 0.46975 0.79558 0.0
O102 O 0.57114 0.55162 0.7926 0.0
O103 O 0.52151 0.47202 0.77411 0.0
O104 O 0.51506 0.58353 0.82693 0.0
O105 O 0.60672 0.63038 0.81744 0.0
O106 O 0.68923 0.57465 0.82039 0.0
O107 O 0.68832 0.6185 0.8685 0.0
O108 O 0.54827 0.51086 0.87476 0.0
O109 O 0.5948 0.59094 0.89093 0.0
O110 O 0.60671 0.48298 0.83444 0.0
O111 O 0.51394 0.42941 0.83172 0.0
H112 H 0.418 0.54722 0.86421 0.0
H113 H 0.36074 0.58834 0.86464 0.0
H114 H 0.24887 0.4643 0.79021 0.0
H115 H 0.30588 0.42226 0.79054 0.0
H116 H 0.81532 0.61674 0.83455 0.0
H117 H 0.8611 0.57521 0.8668 0.0
H118 H 0.72575 0.49533 0.94088 0.0
H119 H 0.67997 0.5367 0.9085 0.0
O120 O 0.47927 0.11609 0.28688 0.0
Cd121 Cd 0.46977 0.13993 0.22431 0.0
O122 O 0.51769 0.07474 0.26105 0.0
Cd123 Cd 0.55442 1.02353 0.26124 0.0
O124 O 0.58941 0.97198 0.25152 0.0
C125 C 0.56092 0.92349 0.23976 0.0
O126 O 0.58491 0.89602 0.2308 0.0
C127 C 0.504 0.08952 0.28986 0.0
C128 C 0.57339 0.19217 0.19389 0.0
O129 O 0.5424 0.14043 0.19123 0.0
O130 O 0.55444 0.21924 0.20974 0.0
O131 O 0.76954 0.54775 0.66951 0.0
Cd132 Cd 0.82909 0.56434 0.61729 0.0
O133 O 0.72317 0.56573 0.62964 0.0
Cd134 Cd 0.65424 0.57563 0.61592 0.0
O135 O 0.60671 0.61454 0.60496 0.0
C136 C 0.59543 0.62057 0.5723 0.0
O137 O 0.60958 0.59934 0.54572 0.0
C138 C 0.72909 0.55328 0.66196 0.0
C139 C 0.76326 0.49715 0.56146 0.0
O140 O 0.77018 0.54502 0.56567 0.0
O141 O 0.78962 0.48236 0.58245 0.0
O142 O 0.09612 0.65517 0.93539 0.0
Cd143 Cd 0.10309 0.66874 0.86951 0.0
O144 O 0.08592 0.57344 0.92932 0.0
Cd145 Cd 0.05335 0.49096 0.95124 0.0
O146 O 0.9661 0.45519 0.94638 0.0
C147 C 0.94193 0.46891 0.9694 0.0
O148 O 0.96752 0.49293 0.9997 0.0
C149 C 0.08832 0.61085 0.94962 0.0
C150 C 0.16596 0.62695 0.84414 0.0
O151 O 0.18744 0.67751 0.85243 0.0
O152 O 0.11431 0.59673 0.8466 0.0
O153 O 0.09863 0.59541 0.39451 0.0
Cd154 Cd 0.13883 0.64015 0.45529 0.0
O155 O 1.02364 0.51932 0.41067 0.0
Cd156 Cd 0.9427 0.43985 0.41134 0.0
O157 O 0.85967 0.36633 0.4238 0.0
C158 C 0.84845 0.33992 0.45396 0.0
O159 O 0.88706 0.35575 0.47864 0.0
C160 C 0.05579 0.5506 0.38568 0.0
C161 C 0.23619 0.74428 0.46325 0.0
O162 O 0.23767 0.69986 0.46293 0.0
O163 O 0.18966 0.73993 0.45809 0.0
O164 O 0.54231 0.97451 0.72316 0.0
Cd165 Cd 0.54978 0.93026 0.78165 0.0
O166 O 0.55044 0.05276 0.74163 0.0
Cd167 Cd 0.55253 0.1338 0.74749 0.0
O168 O 0.54823 0.20799 0.76701 0.0
C169 C 0.58451 0.24613 0.7869 0.0
O170 O 0.6272 0.24279 0.79639 0.0
C171 C 0.54357 1.01944 0.71568 0.0
C172 C 0.55154 0.82974 0.7863 0.0
O173 O 0.5069 0.83021 0.78847 0.0
O174 O 0.59451 0.87568 0.78006 0.0
O175 O 0.60931 0.53969 0.066 0.0
Cd176 Cd 0.66129 0.55385 0.12543 0.0
O177 O 0.53659 0.545 0.08083 0.0
Cd178 Cd 0.45679 0.54535 0.0821 0.0
O179 O 0.37769 0.54343 0.09582 0.0
C180 C 0.37116 0.56478 0.12476 0.0
O181 O 0.41238 0.58938 0.1474 0.0
C182 C 0.56488 0.53779 0.05662 0.0
C183 C 0.76346 0.55668 0.13197 0.0
O184 O 0.71816 0.51183 0.12897 0.0
O185 O 0.76154 0.60082 0.13031 0.0
C186 C 0.22207 0.52989 0.11841 0.0
C187 C 0.2151 0.5552 0.14945 0.0
C188 C 0.2722 0.53334 0.1105 0.0
C189 C 0.31793 0.56189 0.1334 0.0
H190 H 0.18859 0.50768 0.09961 0.0
H191 H 0.27499 0.51331 0.08616 0.0
S192 S 0.32056 0.63287 0.21951 0.0
N193 N 0.25806 0.60797 0.20401 0.0
N194 N 0.35163 0.61484 0.18948 0.0
C195 C 0.3112 0.58687 0.16484 0.0
C196 C 0.26019 0.58348 0.17274 0.0
C197 C 0.73411 0.21521 0.50286 0.0
C198 C 0.68859 0.19825 0.48003 0.0
C199 C 0.78484 0.26095 0.49424 0.0
C200 C 0.79308 0.29164 0.46196 0.0
H201 H 0.73048 0.19311 0.52785 0.0
H202 H 0.81811 0.27197 0.51311 0.0
S203 S 0.68771 0.26156 0.39131 0.0
N204 N 0.65565 0.21426 0.42274 0.0
N205 N 0.75054 0.29969 0.4064 0.0
C206 C 0.74788 0.27457 0.4386 0.0
C207 C 0.69595 0.22821 0.44764 0.0
C208 C 0.51019 0.68283 0.81393 0.0
C209 C 0.55843 0.68093 0.80997 0.0
C210 C 0.50798 0.73036 0.80557 0.0
C211 C 0.55386 0.77842 0.79277 0.0
H212 H 0.47375 0.64744 0.8239 0.0
H213 H 0.47002 0.72954 0.80972 0.0
S214 S 0.68947 0.79449 0.77535 0.0
N215 N 0.65285 0.73154 0.79073 0.0
N216 N 0.64858 0.81983 0.77519 0.0
C217 C 0.60203 0.7767 0.78802 0.0
C218 C 0.60433 0.72843 0.79655 0.0
C219 C 0.90956 0.6022 0.16296 0.0
C220 C 0.91552 0.55698 0.15464 0.0
C221 C 0.86101 0.60239 0.15492 0.0
C222 C 0.81587 0.55717 0.13853 0.0
H223 H 0.94274 0.63798 0.1756 0.0
H224 H 0.8586 0.63808 0.16215 0.0
S225 S 0.81045 0.4294 0.10924 0.0
N226 N 0.87139 0.46619 0.12738 0.0
N227 N 0.78137 0.46675 0.1131 0.0
C228 C 0.82141 0.51199 0.1298 0.0
C229 C 0.87073 0.51186 0.1376 0.0
C230 C 0.38218 0.85185 0.49003 0.0
C231 C 0.38262 0.90173 0.4877 0.0
C232 C 0.33522 0.80158 0.48172 0.0
C233 C 0.2862 0.79855 0.47083 0.0
H234 H 0.41862 0.85148 0.49794 0.0
H235 H 0.33744 0.76471 0.48404 0.0
S236 S 0.26484 0.91677 0.46075 0.0
N237 N 0.32871 0.94419 0.47387 0.0
N238 N 0.24137 0.85054 0.45848 0.0
C239 C 0.28596 0.84804 0.46864 0.0
C240 C 0.33373 0.89919 0.47701 0.0
C241 C 0.52434 0.33823 0.80704 0.0
C242 C 0.56769 0.38508 0.82339 0.0
C243 C 0.52997 0.2939 0.79532 0.0
C244 C 0.5791 0.29381 0.79966 0.0
H245 H 0.48587 0.33622 0.80228 0.0
H246 H 0.4954 0.25943 0.78263 0.0
S247 S 0.70494 0.40576 0.84206 0.0
N248 N 0.66135 0.42774 0.84394 0.0
N249 N 0.67196 0.34517 0.82254 0.0
C250 C 0.62253 0.34008 0.81663 0.0
C251 C 0.61686 0.38533 0.82828 0.0
C252 C 0.55561 0.72736 0.58828 0.0
C253 C 0.56019 0.74983 0.55332 0.0
C254 C 0.56328 0.6829 0.59377 0.0
C255 C 0.57601 0.65924 0.5645 0.0
H256 H 0.54872 0.74604 0.61186 0.0
H257 H 0.56195 0.66888 0.62151 0.0
S258 S 0.58539 0.69866 0.46681 0.0
N259 N 0.57302 0.74214 0.4885 0.0
N260 N 0.58656 0.65787 0.49858 0.0
C261 C 0.57622 0.67851 0.52896 0.0
C262 C 0.56852 0.72399 0.52341 0.0
C263 C 0.84391 0.47863 0.90461 0.0
C264 C 0.82493 0.50724 0.92517 0.0
C265 C 0.87785 0.46175 0.92021 0.0
C266 C 0.89487 0.47361 0.95691 0.0
H267 H 0.83415 0.47113 0.8758 0.0
H268 H 0.89347 0.44226 0.9026 0.0
S269 S 0.84944 0.54046 0.0238 0.0
N270 N 0.82004 0.54129 0.98502 0.0
N271 N 0.88418 0.50977 0.01461 0.0
C272 C 0.87248 0.49834 0.97857 0.0
C273 C 0.83749 0.51521 0.96261 0.0
C274 C 0.42108 0.84405 0.19748 0.0
C275 C 0.38631 0.84063 0.22596 0.0
C276 C 0.47753 0.87165 0.20204 0.0
C277 C 0.50174 0.89847 0.23483 0.0
H278 H 0.40462 0.82462 0.17143 0.0
H279 H 0.50247 0.87192 0.17971 0.0
S280 S 0.4307 0.90346 0.31791 0.0
N281 N 0.38143 0.86678 0.28862 0.0
N282 N 0.48779 0.92104 0.29617 0.0
C283 C 0.46818 0.89735 0.26314 0.0
C284 C 0.41044 0.86804 0.25892 0.0
C285 C 0.68386 0.37008 0.50447 0.0
C286 C 0.63552 0.37022 0.49689 0.0
C287 C 0.72637 0.41294 0.52369 0.0
C288 C 0.72243 0.45786 0.5356 0.0
H289 H 0.68758 0.33499 0.49757 0.0
H290 H 0.76168 0.40978 0.53053 0.0
S291 S 0.60687 0.48062 0.51874 0.0
N292 N 0.5879 0.4209 0.4998 0.0
N293 N 0.66812 0.50208 0.53567 0.0
C294 C 0.67586 0.46032 0.52593 0.0
C295 C 0.63225 0.41626 0.50671 0.0
C296 C 0.21057 0.52275 0.83398 0.0
C297 C 0.26645 0.55518 0.82722 0.0
C298 C 0.17793 0.54622 0.83781 0.0
C299 C 0.20003 0.60301 0.83515 0.0
H300 H 0.19229 0.47912 0.83772 0.0
H301 H 0.13547 0.51974 0.84433 0.0
S302 S 0.34287 0.70484 0.81271 0.0
N303 N 0.34156 0.64606 0.81418 0.0
N304 N 0.28042 0.69052 0.82194 0.0
C305 C 0.25542 0.63561 0.82664 0.0
C306 C 0.28859 0.61162 0.82257 0.0
C307 C 0.71657 0.30477 0.17223 0.0
C308 C 0.74258 0.27616 0.16145 0.0
C309 C 0.66157 0.27726 0.18163 0.0
C310 C 0.6303 0.21995 0.18074 0.0
H311 H 0.73907 0.34888 0.17373 0.0
H312 H 0.64373 0.30126 0.1902 0.0
S313 S 0.67961 0.12603 0.1545 0.0
N314 N 0.73333 0.18755 0.15034 0.0
N315 N 0.62973 0.13549 0.16783 0.0
C316 C 0.65566 0.19082 0.16933 0.0
C317 C 0.7118 0.219 0.15971 0.0
C318 C 0.09843 0.57124 0.04709 0.0
C319 C 0.07176 0.59327 0.06672 0.0
C320 C 0.10243 0.57578 1.0089 0.0
C321 C 0.07965 0.60219 0.9893 0.0
H322 H 0.11828 0.55253 0.06136 0.0
H323 H 0.12528 0.56039 0.9948 0.0
S324 S 0.99861 0.65908 0.02775 0.0
N325 N 1.0173 0.63708 0.06364 0.0
N326 N 1.02488 0.64554 0.99198 0.0
C327 C 0.0506 0.62185 1.00855 0.0
C328 C 0.04645 0.61719 0.04726 0.0
C329 C 0.48817 0.04469 0.38858 0.0
C330 C 0.54013 0.05394 0.39778 0.0
C331 C 0.47673 0.0561 0.35351 0.0
C332 C 0.51656 0.07626 0.32622 0.0
H333 H 0.45601 1.02868 0.40866 0.0
H334 H 0.43633 0.04875 0.34762 0.0
S335 S 0.65964 0.11038 0.33669 0.0
N336 N 0.63224 0.08631 0.37706 0.0
N337 N 0.61056 0.10748 0.31094 0.0
C338 C 0.56865 0.08574 0.33495 0.0
C339 C 0.58047 0.07456 0.3708 0.0
C340 C 0.61714 0.4855 0.73186 0.0
C341 C 0.60694 0.52759 0.74102 0.0
C342 C 0.65826 0.4946 0.70705 0.0
C343 C 0.6892 0.54556 0.69005 0.0
H344 H 0.59381 0.44563 0.74434 0.0
H345 H 0.66508 0.46133 0.70051 0.0
S346 S 0.67779 0.66853 0.70453 0.0
N347 N 0.63135 0.62199 0.73166 0.0
N348 N 0.7071 0.63839 0.68391 0.0
C349 C 0.67915 0.58774 0.69885 0.0
C350 C 0.63836 0.57892 0.72471 0.0
C351 C 0.55896 0.09473 0.62532 0.0
C352 C 0.52744 0.05195 0.60087 0.0
C353 C 0.56293 0.08444 0.66268 0.0
C354 C 0.53633 1.03086 0.67673 0.0
H355 H 0.57994 0.13647 0.61563 0.0
H356 H 0.58779 0.11853 0.68049 0.0
S357 S 0.44825 0.90497 0.62347 0.0
N358 N 0.46821 0.95467 0.59327 0.0
N359 N 0.47689 0.93469 0.66255 0.0
C360 C 0.50487 0.98791 0.6522 0.0
C361 C 0.50005 0.99861 0.61456 0.0
C362 C 0.52901 0.56334 0.96104 0.0
C363 C 0.54189 0.5309 0.93886 0.0
C364 C 0.53171 0.56194 0.9995 0.0
C365 C 0.5492 0.52935 0.01716 0.0
H366 H 0.51952 0.59216 0.94848 0.0
H367 H 0.52401 0.58954 0.0153 0.0
S368 S 0.58424 0.43428 0.97169 0.0
N369 N 0.56887 0.4624 0.93761 0.0
N370 N 0.57587 0.46099 1.00941 0.0
C371 C 0.55953 0.49474 0.99528 0.0
C372 C 0.55542 0.4952 0.95628 0.0
C373 C 0.04643 0.56722 0.28328 0.0
C374 C 1.04498 0.52068 0.26865 0.0
C375 C 0.04789 0.57556 0.32124 0.0
C376 C 1.04548 0.5366 0.34622 0.0
H377 H 0.04782 0.59822 0.2653 0.0
H378 H 0.05164 0.61324 0.33116 0.0
S379 S 1.0363 0.40541 0.3225 0.0
N380 N 1.03863 0.43376 0.28256 0.0
N381 N 1.03868 0.44847 0.35373 0.0
C382 C 1.04111 0.4886 0.33211 0.0
C383 C 1.04142 0.48084 0.29341 0.0
loop_
_geom_bond_atom_site_label_1
_geom_bond_atom_site_label_2
_geom_bond_distance
_geom_bond_site_symmetry_2
_ccdc_geom_bond_type
Tb0 C2 2.809 . S
Tb0 O20 2.484 . S
Tb0 O21 2.440 . S
Tb0 O22 2.657 1_455 S
Tb0 O23 2.409 . S
Tb0 O24 2.378 . S
Tb0 O28 2.325 . S
Tb0 O31 2.341 1_455 S
Tb1 C11 2.809 . S
Tb1 O22 2.322 . S
Tb1 O25 2.341 1_655 S
Tb1 O26 2.484 . S
Tb1 O27 2.440 . S
Tb1 O28 2.658 1_655 S
Tb1 O29 2.409 . S
Tb1 O30 2.378 . S
C2 Tb0 2.809 . S
C2 C3 1.514 . S
C2 O20 1.248 . S
C2 O21 1.266 . S
C3 C2 1.514 . S
C3 C4 1.359 . S
C3 C8 1.348 . S
C4 C3 1.359 . S
C4 C5 1.380 . S
C4 H32 0.929 . S
C5 C4 1.380 . S
C5 C6 1.347 . S
C5 H33 0.931 . S
C6 C5 1.347 . S
C6 C7 1.369 . S
C7 C6 1.369 . S
C7 C8 1.408 . S
C7 H34 0.930 . S
C8 C3 1.348 . S
C8 C7 1.408 . S
C8 H35 0.930 . S
C9 O22 1.279 1_455 S
C9 O23 1.254 . S
C10 O24 1.236 . S
C10 O25 1.266 . S
C11 Tb1 2.809 . S
C11 C12 1.514 . S
C11 O26 1.248 . S
C11 O27 1.266 . S
C12 C11 1.514 . S
C12 C13 1.359 . S
C12 C17 1.348 . S
C13 C12 1.359 . S
C13 C14 1.380 . S
C13 H36 0.929 . S
C14 C13 1.380 . S
C14 C15 1.347 . S
C14 H37 0.931 . S
C15 C14 1.347 . S
C15 C16 1.369 . S
C16 C15 1.369 . S
C16 C17 1.408 . S
C16 H38 0.930 . S
C17 C12 1.348 . S
C17 C16 1.408 . S
C17 H39 0.930 . S
C18 O28 1.281 . S
C18 O29 1.254 1_455 S
C19 O30 1.236 . S
C19 O31 1.266 . S
O20 Tb0 2.484 . S
O20 C2 1.248 . S
O21 Tb0 2.440 . S
O21 C2 1.266 . S
O22 Tb0 2.657 1_655 S
O22 Tb1 2.322 . S
O22 C9 1.279 1_655 S
O23 Tb0 2.409 . S
O23 C9 1.254 . S
O24 Tb0 2.378 . S
O24 C10 1.236 . S
O25 Tb1 2.341 1_455 S
O25 C10 1.266 . S
O26 Tb1 2.484 . S
O26 C11 1.248 . S
O27 Tb1 2.440 . S
O27 C11 1.266 . S
O28 Tb0 2.325 . S
O28 Tb1 2.658 1_455 S
O28 C18 1.281 . S
O29 Tb1 2.409 . S
O29 C18 1.254 1_655 S
O30 Tb1 2.378 . S
O30 C19 1.236 . S
O31 Tb0 2.341 1_655 S
O31 C19 1.266 . S
H32 C4 0.929 . S
H33 C5 0.931 . S
H34 C7 0.930 . S
H35 C8 0.930 . S
H36 C13 0.929 . S
H37 C14 0.931 . S
H38 C16 0.930 . S
H39 C17 0.930 . S
Tb40 C42 2.809 . S
Tb40 O60 2.484 . S
Tb40 O61 2.440 . S
Tb40 O62 2.658 1_565 S
Tb40 O63 2.409 . S
Tb40 O64 2.378 . S
Tb40 O68 2.324 . S
Tb40 O71 2.341 1_565 S
Tb41 C51 2.809 . S
Tb41 O62 2.325 . S
Tb41 O65 2.341 1_545 S
Tb41 O66 2.484 . S
Tb41 O67 2.440 . S
Tb41 O68 2.660 1_545 S
Tb41 O69 2.409 . S
Tb41 O70 2.378 . S
C42 Tb40 2.809 . S
C42 C43 1.514 . S
C42 O60 1.248 . S
C42 O61 1.266 . S
C43 C42 1.514 . S
C43 C44 1.359 . S
C43 C48 1.348 . S
C44 C43 1.359 . S
C44 C45 1.380 . S
C44 H72 0.929 . S
C45 C44 1.380 . S
C45 C46 1.347 . S
C45 H73 0.931 . S
C46 C45 1.347 . S
C46 C47 1.369 . S
C47 C46 1.369 . S
C47 C48 1.408 . S
C47 H74 0.930 . S
C48 C43 1.348 . S
C48 C47 1.408 . S
C48 H75 0.930 . S
C49 O62 1.281 . S
C49 O63 1.254 1_545 S
C50 O64 1.236 . S
C50 O65 1.266 . S
C51 Tb41 2.809 . S
C51 C52 1.514 . S
C51 O66 1.248 . S
C51 O67 1.266 . S
C52 C51 1.514 . S
C52 C53 1.359 . S
C52 C57 1.348 . S
C53 C52 1.359 . S
C53 C54 1.380 . S
C53 H76 0.929 . S
C54 C53 1.380 . S
C54 C55 1.347 . S
C54 H77 0.931 . S
C55 C54 1.347 . S
C55 C56 1.369 . S
C56 C55 1.369 . S
C56 C57 1.408 . S
C56 H78 0.930 . S
C57 C52 1.348 . S
C57 C56 1.408 . S
C57 H79 0.930 . S
C58 O68 1.282 1_545 S
C58 O69 1.254 . S
C59 O70 1.236 . S
C59 O71 1.266 . S
O60 Tb40 2.484 . S
O60 C42 1.248 . S
O61 Tb40 2.440 . S
O61 C42 1.266 . S
O62 Tb40 2.658 1_545 S
O62 Tb41 2.325 . S
O62 C49 1.281 . S
O63 Tb40 2.409 . S
O63 C49 1.254 1_565 S
O64 Tb40 2.378 . S
O64 C50 1.236 . S
O65 Tb41 2.341 1_565 S
O65 C50 1.266 . S
O66 Tb41 2.484 . S
O66 C51 1.248 . S
O67 Tb41 2.440 . S
O67 C51 1.266 . S
O68 Tb40 2.324 . S
O68 Tb41 2.660 1_565 S
O68 C58 1.282 1_565 S
O69 Tb41 2.409 . S
O69 C58 1.254 . S
O70 Tb41 2.378 . S
O70 C59 1.236 . S
O71 Tb40 2.341 1_545 S
O71 C59 1.266 . S
H72 C44 0.929 . S
H73 C45 0.931 . S
H74 C47 0.930 . S
H75 C48 0.930 . S
H76 C53 0.929 . S
H77 C54 0.931 . S
H78 C56 0.930 . S
H79 C57 0.930 . S
Tb80 C82 2.809 . S
Tb80 O100 2.484 . S
Tb80 O101 2.440 . S
Tb80 O102 2.658 . S
Tb80 O103 2.409 . S
Tb80 O104 2.378 . S
Tb80 O108 2.325 . S
Tb80 O111 2.341 . S
Tb81 C91 2.809 . S
Tb81 O102 2.325 . S
Tb81 O105 2.341 . S
Tb81 O106 2.484 . S
Tb81 O107 2.440 . S
Tb81 O108 2.658 . S
Tb81 O109 2.409 . S
Tb81 O110 2.378 . S
C82 Tb80 2.809 . S
C82 C83 1.514 . S
C82 O100 1.248 . S
C82 O101 1.266 . S
C83 C82 1.514 . S
C83 C84 1.359 . S
C83 C88 1.348 . S
C84 C83 1.359 . S
C84 C85 1.380 . S
C84 H112 0.929 . S
C85 C84 1.380 . S
C85 C86 1.347 . S
C85 H113 0.931 . S
C86 C85 1.347 . S
C86 C87 1.369 . S
C87 C86 1.369 . S
C87 C88 1.408 . S
C87 H114 0.930 . S
C88 C83 1.348 . S
C88 C87 1.408 . S
C88 H115 0.930 . S
C89 O102 1.281 . S
C89 O103 1.254 . S
C90 O104 1.236 . S
C90 O105 1.266 . S
C91 Tb81 2.809 . S
C91 C92 1.514 . S
C91 O106 1.248 . S
C91 O107 1.266 . S
C92 C91 1.514 . S
C92 C93 1.359 . S
C92 C97 1.348 . S
C93 C92 1.359 . S
C93 C94 1.380 . S
C93 H116 0.929 . S
C94 C93 1.380 . S
C94 C95 1.347 . S
C94 H117 0.931 . S
C95 C94 1.347 . S
C95 C96 1.369 . S
C96 C95 1.369 . S
C96 C97 1.408 . S
C96 H118 0.930 . S
C97 C92 1.348 . S
C97 C96 1.408 . S
C97 H119 0.930 . S
C98 O108 1.281 . S
C98 O109 1.254 . S
C99 O110 1.236 . S
C99 O111 1.266 . S
O100 Tb80 2.484 . S
O100 C82 1.248 . S
O101 Tb80 2.440 . S
O101 C82 1.266 . S
O102 Tb80 2.658 . S
O102 Tb81 2.325 . S
O102 C89 1.281 . S
O103 Tb80 2.409 . S
O103 C89 1.254 . S
O104 Tb80 2.378 . S
O104 C90 1.236 . S
O105 Tb81 2.341 . S
O105 C90 1.266 . S
O106 Tb81 2.484 . S
O106 C91 1.248 . S
O107 Tb81 2.440 . S
O107 C91 1.266 . S
O108 Tb80 2.325 . S
O108 Tb81 2.658 . S
O108 C98 1.281 . S
O109 Tb81 2.409 . S
O109 C98 1.254 . S
O110 Tb81 2.378 . S
O110 C99 1.236 . S
O111 Tb80 2.341 . S
O111 C99 1.266 . S
H112 C84 0.929 . S
H113 C85 0.931 . S
H114 C87 0.930 . S
H115 C88 0.930 . S
H116 C93 0.929 . S
H117 C94 0.931 . S
H118 C96 0.930 . S
H119 C97 0.930 . S
O120 Cd121 2.300 . S
O120 C127 1.275 . S
Cd121 O120 2.300 . S
Cd121 O129 2.381 . S
Cd121 O130 2.378 . S
O122 Cd123 2.404 . S
O122 C127 1.237 1_565 S
Cd123 O122 2.404 . S
Cd123 O124 2.317 . S
O124 Cd123 2.317 . S
O124 C125 1.232 . S
C125 O124 1.232 . S
C125 O126 1.218 . S
O126 C125 1.218 . S
C127 O120 1.275 . S
C127 O122 1.237 1_545 S
C128 O129 1.258 . S
C128 O130 1.256 . S
O129 Cd121 2.381 . S
O129 C128 1.258 . S
O130 Cd121 2.378 . S
O130 C128 1.256 . S
O131 Cd132 2.300 . S
O131 C138 1.275 . S
Cd132 O131 2.300 . S
Cd132 O140 2.381 . S
Cd132 O141 2.378 . S
O133 Cd134 2.385 . S
O133 C138 1.255 . S
Cd134 O133 2.385 . S
Cd134 O135 2.317 . S
O135 Cd134 2.317 . S
O135 C136 1.232 . S
C136 O135 1.232 . S
C136 O137 1.218 . S
O137 C136 1.218 . S
C138 O131 1.275 . S
C138 O133 1.255 . S
C139 O140 1.258 . S
C139 O141 1.256 . S
O140 Cd132 2.381 . S
O140 C139 1.258 . S
O141 Cd132 2.378 . S
O141 C139 1.256 . S
O142 Cd143 2.300 . S
O142 C149 1.275 1_455 S
Cd143 O142 2.300 . S
Cd143 O151 2.381 . S
Cd143 O152 2.378 . S
O144 Cd145 2.385 . S
O144 C149 1.255 . S
Cd145 O144 2.385 . S
Cd145 O146 2.317 . S
O146 Cd145 2.317 . S
O146 C147 1.232 . S
C147 O146 1.232 . S
C147 O148 1.218 . S
O148 C147 1.218 . S
C149 O142 1.275 1_655 S
C149 O144 1.255 . S
C150 O151 1.258 . S
C150 O152 1.256 . S
O151 Cd143 2.381 . S
O151 C150 1.258 . S
O152 Cd143 2.378 . S
O152 C150 1.256 . S
O153 Cd154 2.300 . S
O153 C160 1.275 . S
Cd154 O153 2.300 . S
Cd154 O162 2.381 . S
Cd154 O163 2.378 . S
O155 Cd156 2.385 . S
O155 C160 1.255 1_655 S
Cd156 O155 2.385 . S
Cd156 O157 2.317 . S
O157 Cd156 2.317 . S
O157 C158 1.232 . S
C158 O157 1.232 . S
C158 O159 1.218 . S
O159 C158 1.218 . S
C160 O153 1.275 . S
C160 O155 1.255 1_455 S
C161 O162 1.258 . S
C161 O163 1.256 . S
O162 Cd154 2.381 . S
O162 C161 1.258 . S
O163 Cd154 2.378 . S
O163 C161 1.256 . S
O164 Cd165 2.300 . S
O164 C171 1.275 1_565 S
Cd165 O164 2.300 . S
Cd165 O173 2.381 . S
Cd165 O174 2.378 . S
O166 Cd167 2.385 . S
O166 C171 1.255 . S
Cd167 O166 2.385 . S
Cd167 O168 2.317 . S
O168 Cd167 2.317 . S
O168 C169 1.232 . S
C169 O168 1.232 . S
C169 O170 1.218 . S
O170 C169 1.218 . S
C171 O164 1.275 1_545 S
C171 O166 1.255 . S
C172 O173 1.258 . S
C172 O174 1.256 . S
O173 Cd165 2.381 . S
O173 C172 1.258 . S
O174 Cd165 2.378 . S
O174 C172 1.256 . S
O175 Cd176 2.300 . S
O175 C182 1.275 . S
Cd176 O175 2.300 . S
Cd176 O184 2.381 . S
Cd176 O185 2.378 . S
O177 Cd178 2.385 . S
O177 C182 1.255 . S
Cd178 O177 2.385 . S
Cd178 O179 2.317 . S
O179 Cd178 2.317 . S
O179 C180 1.232 . S
C180 O179 1.232 . S
C180 O181 1.218 . S
O181 C180 1.218 . S
C182 O175 1.275 . S
C182 O177 1.255 . S
C183 O184 1.258 . S
C183 O185 1.256 . S
O184 Cd176 2.381 . S
O184 C183 1.258 . S
O185 Cd176 2.378 . S
O185 C183 1.256 . S
C186 C187 1.369 . S
C186 C188 1.419 . S
C186 H190 0.930 . S
C187 C186 1.369 . S
C187 C196 1.429 . S
C188 C186 1.419 . S
C188 C189 1.363 . S
C188 H191 0.929 . S
C189 C188 1.363 . S
C189 C195 1.428 . S
H190 C186 0.930 . S
H191 C188 0.929 . S
S192 N193 1.613 . S
S192 N194 1.610 . S
N193 S192 1.613 . S
N193 C196 1.350 . S
N194 S192 1.610 . S
N194 C195 1.351 . S
C195 C189 1.428 . S
C195 N194 1.351 . S
C195 C196 1.434 . S
C196 C187 1.429 . S
C196 N193 1.350 . S
C196 C195 1.434 . S
C197 C198 1.369 . S
C197 C199 1.419 . S
C197 H201 0.930 . S
C198 C197 1.369 . S
C198 C207 1.429 . S
C199 C197 1.419 . S
C199 C200 1.363 . S
C199 H202 0.929 . S
C200 C199 1.363 . S
C200 C206 1.428 . S
H201 C197 0.930 . S
H202 C199 0.929 . S
S203 N204 1.613 . S
S203 N205 1.610 . S
N204 S203 1.613 . S
N204 C207 1.350 . S
N205 S203 1.610 . S
N205 C206 1.351 . S
C206 C200 1.428 . S
C206 N205 1.351 . S
C206 C207 1.434 . S
C207 C198 1.429 . S
C207 N204 1.350 . S
C207 C206 1.434 . S
C208 C209 1.369 . S
C208 C210 1.419 . S
C208 H212 0.930 . S
C209 C208 1.369 . S
C209 C218 1.429 . S
C210 C208 1.419 . S
C210 C211 1.363 . S
C210 H213 0.929 . S
C211 C210 1.363 . S
C211 C217 1.428 . S
H212 C208 0.930 . S
H213 C210 0.929 . S
S214 N215 1.613 . S
S214 N216 1.610 . S
N215 S214 1.613 . S
N215 C218 1.350 . S
N216 S214 1.610 . S
N216 C217 1.351 . S
C217 C211 1.428 . S
C217 N216 1.351 . S
C217 C218 1.434 . S
C218 C209 1.429 . S
C218 N215 1.350 . S
C218 C217 1.434 . S
C219 C220 1.369 . S
C219 C221 1.419 . S
C219 H223 0.930 . S
C220 C219 1.369 . S
C220 C229 1.429 . S
C221 C219 1.419 . S
C221 C222 1.363 . S
C221 H224 0.929 . S
C222 C221 1.363 . S
C222 C228 1.428 . S
H223 C219 0.930 . S
H224 C221 0.929 . S
S225 N226 1.613 . S
S225 N227 1.610 . S
N226 S225 1.613 . S
N226 C229 1.350 . S
N227 S225 1.610 . S
N227 C228 1.351 . S
C228 C222 1.428 . S
C228 N227 1.351 . S
C228 C229 1.434 . S
C229 C220 1.429 . S
C229 N226 1.350 . S
C229 C228 1.434 . S
C230 C231 1.369 . S
C230 C232 1.419 . S
C230 H234 0.930 . S
C231 C230 1.369 . S
C231 C240 1.429 . S
C232 C230 1.419 . S
C232 C233 1.363 . S
C232 H235 0.929 . S
C233 C232 1.363 . S
C233 C239 1.428 . S
H234 C230 0.930 . S
H235 C232 0.929 . S
S236 N237 1.613 . S
S236 N238 1.610 . S
N237 S236 1.613 . S
N237 C240 1.350 . S
N238 S236 1.610 . S
N238 C239 1.351 . S
C239 C233 1.428 . S
C239 N238 1.351 . S
C239 C240 1.434 . S
C240 C231 1.429 . S
C240 N237 1.350 . S
C240 C239 1.434 . S
C241 C242 1.369 . S
C241 C243 1.419 . S
C241 H245 0.930 . S
C242 C241 1.369 . S
C242 C251 1.429 . S
C243 C241 1.419 . S
C243 C244 1.363 . S
C243 H246 0.929 . S
C244 C243 1.363 . S
C244 C250 1.428 . S
H245 C241 0.930 . S
H246 C243 0.929 . S
S247 N248 1.613 . S
S247 N249 1.610 . S
N248 S247 1.613 . S
N248 C251 1.350 . S
N249 S247 1.610 . S
N249 C250 1.351 . S
C250 C244 1.428 . S
C250 N249 1.351 . S
C250 C251 1.434 . S
C251 C242 1.429 . S
C251 N248 1.350 . S
C251 C250 1.434 . S
C252 C253 1.369 . S
C252 C254 1.419 . S
C252 H256 0.930 . S
C253 C252 1.369 . S
C253 C262 1.429 . S
C254 C252 1.419 . S
C254 C255 1.363 . S
C254 H257 0.929 . S
C255 C254 1.363 . S
C255 C261 1.428 . S
H256 C252 0.930 . S
H257 C254 0.929 . S
S258 N259 1.613 . S
S258 N260 1.610 . S
N259 S258 1.613 . S
N259 C262 1.350 . S
N260 S258 1.610 . S
N260 C261 1.351 . S
C261 C255 1.428 . S
C261 N260 1.351 . S
C261 C262 1.434 . S
C262 C253 1.429 . S
C262 N259 1.350 . S
C262 C261 1.434 . S
C263 C264 1.369 . S
C263 C265 1.419 . S
C263 H267 0.930 . S
C264 C263 1.369 . S
C264 C273 1.429 . S
C265 C263 1.419 . S
C265 C266 1.363 . S
C265 H268 0.929 . S
C266 C265 1.363 . S
C266 C272 1.428 . S
H267 C263 0.930 . S
H268 C265 0.929 . S
S269 N270 1.613 . S
S269 N271 1.610 . S
N270 S269 1.613 . S
N270 C273 1.350 . S
N271 S269 1.610 . S
N271 C272 1.351 . S
C272 C266 1.428 . S
C272 N271 1.351 . S
C272 C273 1.434 . S
C273 C264 1.429 . S
C273 N270 1.350 . S
C273 C272 1.434 . S
C274 C275 1.369 . S
C274 C276 1.419 . S
C274 H278 0.930 . S
C275 C274 1.369 . S
C275 C284 1.429 . S
C276 C274 1.419 . S
C276 C277 1.363 . S
C276 H279 0.929 . S
C277 C276 1.363 . S
C277 C283 1.428 . S
H278 C274 0.930 . S
H279 C276 0.929 . S
S280 N281 1.613 . S
S280 N282 1.610 . S
N281 S280 1.613 . S
N281 C284 1.350 . S
N282 S280 1.610 . S
N282 C283 1.351 . S
C283 C277 1.428 . S
C283 N282 1.351 . S
C283 C284 1.434 . S
C284 C275 1.429 . S
C284 N281 1.350 . S
C284 C283 1.434 . S
C285 C286 1.369 . S
C285 C287 1.419 . S
C285 H289 0.930 . S
C286 C285 1.369 . S
C286 C295 1.429 . S
C287 C285 1.419 . S
C287 C288 1.363 . S
C287 H290 0.929 . S
C288 C287 1.363 . S
C288 C294 1.428 . S
H289 C285 0.930 . S
H290 C287 0.929 . S
S291 N292 1.613 . S
S291 N293 1.610 . S
N292 S291 1.613 . S
N292 C295 1.350 . S
N293 S291 1.610 . S
N293 C294 1.351 . S
C294 C288 1.428 . S
C294 N293 1.351 . S
C294 C295 1.434 . S
C295 C286 1.429 . S
C295 N292 1.350 . S
C295 C294 1.434 . S
C296 C297 1.369 . S
C296 C298 1.419 . S
C296 H300 0.930 . S
C297 C296 1.369 . S
C297 C306 1.429 . S
C298 C296 1.419 . S
C298 C299 1.363 . S
C298 H301 0.929 . S
C299 C298 1.363 . S
C299 C305 1.428 . S
H300 C296 0.930 . S
H301 C298 0.929 . S
S302 N303 1.613 . S
S302 N304 1.610 . S
N303 S302 1.613 . S
N303 C306 1.350 . S
N304 S302 1.610 . S
N304 C305 1.351 . S
C305 C299 1.428 . S
C305 N304 1.351 . S
C305 C306 1.434 . S
C306 C297 1.429 . S
C306 N303 1.350 . S
C306 C305 1.434 . S
C307 C308 1.369 . S
C307 C309 1.419 . S
C307 H311 0.930 . S
C308 C307 1.369 . S
C308 C317 1.429 . S
C309 C307 1.419 . S
C309 C310 1.363 . S
C309 H312 0.929 . S
C310 C309 1.363 . S
C310 C316 1.428 . S
H311 C307 0.930 . S
H312 C309 0.929 . S
S313 N314 1.613 . S
S313 N315 1.610 . S
N314 S313 1.613 . S
N314 C317 1.350 . S
N315 S313 1.610 . S
N315 C316 1.351 . S
C316 C310 1.428 . S
C316 N315 1.351 . S
C316 C317 1.434 . S
C317 C308 1.429 . S
C317 N314 1.350 . S
C317 C316 1.434 . S
C318 C319 1.369 1_655 S
C318 C320 1.419 . S
C318 H322 0.930 . S
C319 C318 1.369 1_455 S
C319 C328 1.429 . S
C320 C318 1.419 . S
C320 C321 1.363 1_554 S
C320 H323 0.929 1_554 S
C321 C320 1.363 1_556 S
C321 C327 1.428 1_655 S
H322 C318 0.930 . S
H323 C320 0.929 1_556 S
S324 N325 1.613 . S
S324 N326 1.610 1_554 S
N325 S324 1.613 . S
N325 C328 1.350 . S
N326 S324 1.610 1_556 S
N326 C327 1.351 . S
C327 C321 1.428 1_455 S
C327 N326 1.351 . S
C327 C328 1.434 1_556 S
C328 C319 1.429 . S
C328 N325 1.350 . S
C328 C327 1.434 1_554 S
C329 C330 1.369 . S
C329 C331 1.419 . S
C329 H333 0.930 . S
C330 C329 1.369 . S
C330 C339 1.429 1_545 S
C331 C329 1.419 . S
C331 C332 1.363 . S
C331 H334 0.929 . S
C332 C331 1.363 . S
C332 C338 1.428 1_545 S
H333 C329 0.930 . S
H334 C331 0.929 . S
S335 N336 1.613 . S
S335 N337 1.610 . S
N336 S335 1.613 . S
N336 C339 1.350 . S
N337 S335 1.610 . S
N337 C338 1.351 . S
C338 C332 1.428 1_565 S
C338 N337 1.351 . S
C338 C339 1.434 . S
C339 C330 1.429 1_565 S
C339 N336 1.350 . S
C339 C338 1.434 . S
C340 C341 1.369 . S
C340 C342 1.419 . S
C340 H344 0.930 . S
C341 C340 1.369 . S
C341 C350 1.429 . S
C342 C340 1.419 . S
C342 C343 1.363 . S
C342 H345 0.929 . S
C343 C342 1.363 . S
C343 C349 1.428 . S
H344 C340 0.930 . S
H345 C342 0.929 . S
S346 N347 1.613 . S
S346 N348 1.610 . S
N347 S346 1.613 . S
N347 C350 1.350 . S
N348 S346 1.610 . S
N348 C349 1.351 . S
C349 C343 1.428 . S
C349 N348 1.351 . S
C349 C350 1.434 . S
C350 C341 1.429 . S
C350 N347 1.350 . S
C350 C349 1.434 . S
C351 C352 1.369 . S
C351 C353 1.419 . S
C351 H355 0.930 . S
C352 C351 1.369 . S
C352 C361 1.429 1_545 S
C353 C351 1.419 . S
C353 C354 1.363 . S
C353 H356 0.929 . S
C354 C353 1.363 . S
C354 C360 1.428 1_545 S
H355 C351 0.930 . S
H356 C353 0.929 . S
S357 N358 1.613 . S
S357 N359 1.610 . S
N358 S357 1.613 . S
N358 C361 1.350 . S
N359 S357 1.610 . S
N359 C360 1.351 . S
C360 C354 1.428 1_565 S
C360 N359 1.351 . S
C360 C361 1.434 . S
C361 C352 1.429 1_565 S
C361 N358 1.350 . S
C361 C360 1.434 . S
C362 C363 1.369 . S
C362 C364 1.419 . S
C362 H366 0.930 . S
C363 C362 1.369 . S
C363 C372 1.429 . S
C364 C362 1.419 . S
C364 C365 1.363 1_556 S
C364 H367 0.929 . S
C365 C364 1.363 1_554 S
C365 C371 1.428 1_554 S
H366 C362 0.930 . S
H367 C364 0.929 . S
S368 N369 1.613 . S
S368 N370 1.610 1_556 S
N369 S368 1.613 . S
N369 C372 1.350 . S
N370 S368 1.610 1_554 S
N370 C371 1.351 1_554 S
C371 C365 1.428 1_556 S
C371 N370 1.351 1_556 S
C371 C372 1.434 . S
C372 C363 1.429 . S
C372 N369 1.350 . S
C372 C371 1.434 . S
C373 C374 1.369 . S
C373 C375 1.419 . S
C373 H377 0.930 . S
C374 C373 1.369 . S
C374 C383 1.429 . S
C375 C373 1.419 . S
C375 C376 1.363 . S
C375 H378 0.929 . S
C376 C375 1.363 . S
C376 C382 1.428 . S
H377 C373 0.930 . S
H378 C375 0.929 . S
S379 N380 1.613 . S
S379 N381 1.610 . S
N380 S379 1.613 . S
N380 C383 1.350 1_655 S
N381 S379 1.610 . S
N381 C382 1.351 1_655 S
C382 C376 1.428 . S
C382 N381 1.351 1_455 S
C382 C383 1.434 . S
C383 C374 1.429 . S
C383 N380 1.350 1_455 S
C383 C382 1.434 . S
C187 C10 3.186 . S
C189 C180 2.839 . S
C198 C59 3.249 . S
C200 C158 2.888 . S
C209 C90 2.985 . S
C211 C172 2.907 . S
C220 C19 3.024 . S
C222 C183 2.947 . S
C233 C161 2.906 . S
C231 C50 2.984 . S
C244 C169 2.888 . S
C242 C99 3.248 . S
C253 C46 0.710 . S
C255 C136 0.760 . S
C264 C95 0.681 . S
C266 C147 0.703 . S
C275 C6 0.705 . S
C277 C125 0.734 . S
C288 C139 0.416 . S
C286 C55 0.553 . S
C299 C150 0.433 . S
C297 C86 0.543 . S
C308 C15 0.553 . S
C310 C128 0.406 . S
C321 C149 1.103 . S
C319 C9 1.117 . S
C330 C49 1.145 . S
C332 C127 1.084 . S
C341 C89 1.141 . S
C343 C138 1.083 . S
C354 C171 1.693 . S
C352 C58 1.688 . S
C365 C182 1.706 . S
C363 C98 1.736 . S
C374 C18 1.683 . S
C376 C160 1.702 . S
