# Generated by pormake.
# Topology pth, (4,4)-cn, num edge types: 1
# Building blocks:
#     Node 0, Type 0, BuildingBlock: AZAVOO_clean_sbu_0, # of connection points: 4
#     Node 1, Type 0, BuildingBlock: AZAVOO_clean_sbu_0, # of connection points: 4
#     Node 2, Type 0, BuildingBlock: AZAVOO_clean_sbu_0, # of connection points: 4
#     Node 3, Type 1, BuildingBlock: NAWXER_clean_sbu_0, # of connection points: 4
#     Node 4, Type 1, BuildingBlock: NAWXER_clean_sbu_0, # of connection points: 4
#     Node 5, Type 1, BuildingBlock: NAWXER_clean_sbu_0, # of connection points: 4
#     Edge 6, Type (0, 1), BuildingBlock: XIVTED_clean_linker_0, # of connection points: 2
#     Edge 7, Type (0, 1), BuildingBlock: XIVTED_clean_linker_0, # of connection points: 2
#     Edge 8, Type (0, 1), BuildingBlock: XIVTED_clean_linker_0, # of connection points: 2
#     Edge 9, Type (0, 1), BuildingBlock: XIVTED_clean_linker_0, # of connection points: 2
#     Edge 10, Type (0, 1), BuildingBlock: XIVTED_clean_linker_0, # of connection points: 2
#     Edge 11, Type (0, 1), BuildingBlock: XIVTED_clean_linker_0, # of connection points: 2
#     Edge 12, Type (0, 1), BuildingBlock: XIVTED_clean_linker_0, # of connection points: 2
#     Edge 13, Type (0, 1), BuildingBlock: XIVTED_clean_linker_0, # of connection points: 2
#     Edge 14, Type (0, 1), BuildingBlock: XIVTED_clean_linker_0, # of connection points: 2
#     Edge 15, Type (0, 1), BuildingBlock: XIVTED_clean_linker_0, # of connection points: 2
#     Edge 16, Type (0, 1), BuildingBlock: XIVTED_clean_linker_0, # of connection points: 2
#     Edge 17, Type (0, 1), BuildingBlock: XIVTED_clean_linker_0, # of connection points: 2
# Relax obj value: 0.079
# Max RMSD: 0.220
# Mean RMSD: 0.117
data_MOF--net-pth--node1-AZAVOO_clean_sbu_0--node2-NAWXER_clean_sbu_0--edge1-XIVTED_clean_linker_0
_symmetry_space_group_name_H-M    P1
_symmetry_Int_Tables_number       1
_symmetry_cell_setting            triclinic
loop_
_symmetry_equiv_pos_as_xyz
'x, y, z'
_cell_length_a     22.787624
_cell_length_b     23.31985
_cell_length_c     57.905089
_cell_angle_alpha  91.48924
_cell_angle_beta   92.894711
_cell_angle_gamma 122.483
loop_
_atom_site_label
_atom_site_type_symbol
_atom_site_fract_x
_atom_site_fract_y
_atom_site_fract_z
_atom_type_partial_charge
Mg0 Mg 0.11823 0.09066 0.06588 0.0
O1 O 0.03396 0.00788 0.04033 0.0
O2 O 0.00227 0.05354 0.01305 0.0
Mg3 Mg 0.06575 0.16916 0.02195 0.0
C4 C 0.99809 0.00202 0.02186 0.0
C5 C 0.08108 0.94805 0.08272 0.0
O6 O 0.08871 0.93877 0.06087 0.0
O7 O 0.04401 0.11128 0.08371 0.0
O8 O 0.02264 0.16693 0.0571 0.0
O9 O 0.20216 0.10802 0.042 0.0
O10 O 0.14799 0.16258 0.04117 0.0
C11 C 0.01837 0.1461 0.07751 0.0
C12 C 0.19329 0.15321 0.03285 0.0
O13 O 0.09504 0.00617 0.09024 0.0
Mg14 Mg 0.95402 0.02928 0.38237 0.0
O15 O 0.05256 0.0493 0.40255 0.0
O16 O 0.1051 0.15061 0.42194 0.0
Mg17 Mg 0.03488 0.19245 0.41646 0.0
C18 C 0.10221 0.09599 0.41605 0.0
C19 C 0.97078 0.90776 0.36655 0.0
O20 O 0.97199 0.89993 0.38892 0.0
O21 O 0.01183 0.10963 0.35652 0.0
O22 O 0.05091 0.20635 0.3779 0.0
O23 O 0.89133 0.98008 0.41321 0.0
O24 O 0.94315 0.08891 0.407 0.0
C25 C 0.04113 0.1742 0.35846 0.0
C26 C 0.90626 0.04023 0.41992 0.0
O27 O 0.95924 0.95181 0.35903 0.0
Mg28 Mg 0.01488 0.02966 0.7215 0.0
O29 O 0.10074 0.12786 0.74098 0.0
O30 O 0.05381 0.1684 0.76385 0.0
Mg31 Mg 0.93531 0.09045 0.76098 0.0
C32 C 0.10689 0.17252 0.75573 0.0
C33 C 0.09708 0.05907 0.67571 0.0
O34 O 0.04288 0.058 0.66626 0.0
O35 O 0.97434 0.08118 0.6984 0.0
O36 O 0.91788 0.10631 0.7231 0.0
O37 O 0.01897 0.97026 0.75112 0.0
O38 O 0.94964 0.00891 0.74827 0.0
C39 C 0.93371 0.1016 0.7026 0.0
C40 C 0.97172 0.97723 0.75984 0.0
O41 O 0.09786 0.04558 0.69685 0.0
C42 C 0.05781 0.64797 0.24937 0.0
C43 C 0.04775 0.49944 0.18546 0.0
O44 O 0.10979 0.66 0.23827 0.0
Zn45 Zn 0.05924 0.57913 0.21673 0.0
O46 O 0.99706 0.59579 0.2434 0.0
Zn47 Zn 0.946 0.5123 0.21837 0.0
O48 O 0.91068 0.43449 0.23795 0.0
O49 O 0.0258 0.49936 0.23921 0.0
O50 O 0.98895 0.48223 0.19292 0.0
O51 O 0.10361 0.55237 0.19443 0.0
O52 O 0.99924 0.60331 0.19519 0.0
O53 O 0.88657 0.53294 0.19939 0.0
C54 C 0.97028 0.4478 0.24586 0.0
C55 C 0.93572 0.58363 0.18998 0.0
C56 C 0.5574 0.03064 0.58868 0.0
C57 C 0.42418 0.03948 0.52092 0.0
O58 O 0.50379 0.97832 0.57834 0.0
Zn59 Zn 0.48615 0.02813 0.55509 0.0
O60 O 0.58007 0.08989 0.58152 0.0
Zn61 Zn 0.5594 0.13872 0.55509 0.0
O62 O 0.53962 0.19771 0.57313 0.0
O63 O 0.4619 0.08774 0.57591 0.0
O64 O 0.47809 0.09644 0.52866 0.0
O65 O 0.40812 0.98548 0.53098 0.0
O66 O 0.57388 0.06004 0.536 0.0
O67 O 0.64228 0.1722 0.53766 0.0
C68 C 0.48476 0.15015 0.58142 0.0
C69 C 0.62961 0.11402 0.5307 0.0
C70 C 0.50974 0.48751 0.92275 0.0
C71 C 0.67026 0.67113 0.8754 0.0
O72 O 0.51044 0.5417 0.91946 0.0
Zn73 Zn 0.58507 0.58126 0.89862 0.0
O74 O 0.55214 0.47699 0.91267 0.0
Zn75 Zn 0.63195 0.52337 0.88956 0.0
O76 O 0.71455 0.54122 0.90869 0.0
O77 O 0.67167 0.6015 0.92063 0.0
O78 O 0.67598 0.61953 0.87561 0.0
O79 O 0.6222 0.67064 0.88594 0.0
O80 O 0.53791 0.51483 0.8688 0.0
O81 O 0.58985 0.45982 0.86181 0.0
C82 C 0.71667 0.58498 0.92298 0.0
C83 C 0.54258 0.47161 0.85632 0.0
H84 H 0.93759 0.20009 0.07299 0.0
H85 H 0.14133 0.46031 0.18235 0.0
H86 H 0.06959 0.1768 0.12282 0.0
H87 H 0.95151 0.42956 0.14958 0.0
H88 H 0.12481 0.36472 0.15751 0.0
H89 H 0.94517 0.28821 0.09921 0.0
C90 C 0.96644 0.21205 0.08973 0.0
C91 C 0.00304 0.18101 0.09567 0.0
C92 C 0.08714 0.37937 0.15569 0.0
C93 C 0.01448 0.28381 0.12525 0.0
C94 C 0.09724 0.43452 0.16955 0.0
C95 C 0.04794 0.45286 0.16784 0.0
C96 C 0.02791 0.34332 0.1399 0.0
C97 C 0.99079 0.41693 0.15135 0.0
C98 C 0.97143 0.26289 0.10456 0.0
C99 C 0.04016 0.199 0.11753 0.0
N100 N 0.98236 0.36397 0.13799 0.0
N101 N 0.04613 0.25022 0.13133 0.0
H102 H 0.93473 0.1629 0.43771 0.0
H103 H 0.62408 0.99665 0.52074 0.0
H104 H 0.81206 0.94792 0.44859 0.0
H105 H 0.74666 0.21196 0.5102 0.0
H106 H 0.70002 0.98014 0.49749 0.0
H107 H 0.876 0.18348 0.46749 0.0
C108 C 0.89636 0.11994 0.44664 0.0
C109 C 0.87829 0.05335 0.44051 0.0
C110 C 0.71069 0.03109 0.50029 0.0
C111 C 0.80934 0.07684 0.47451 0.0
C112 C 0.66709 0.04072 0.51352 0.0
C113 C 0.67839 0.10588 0.5172 0.0
C114 C 0.76616 0.08686 0.49045 0.0
C115 C 0.73568 0.16086 0.50767 0.0
C116 C 0.86243 0.13189 0.46362 0.0
C117 C 0.82761 1.00001 0.4527 0.0
N118 N 0.77718 0.14999 0.49455 0.0
N119 N 0.79433 0.01284 0.46896 0.0
H120 H 0.00351 0.90539 0.78928 0.0
H121 H 0.65997 0.77391 0.85698 0.0
H122 H 0.86667 0.97922 0.77959 0.0
H123 H 0.79941 0.70311 0.86647 0.0
H124 H 0.74385 0.86211 0.83276 0.0
H125 H 0.9383 0.8431 0.82189 0.0
C126 C 0.96055 0.90938 0.79421 0.0
C127 C 0.94032 0.94717 0.78157 0.0
C128 C 0.75625 0.82761 0.84038 0.0
C129 C 0.86489 0.87555 0.81861 0.0
C130 C 0.70847 0.77751 0.85422 0.0
C131 C 0.7221 0.73035 0.86328 0.0
C132 C 0.81781 0.8303 0.83577 0.0
C133 C 0.78596 0.73742 0.85933 0.0
C134 C 0.92319 0.87375 0.8128 0.0
C135 C 0.88423 0.95069 0.78878 0.0
N136 N 0.83099 0.78585 0.84572 0.0
N137 N 0.84802 0.91471 0.80662 0.0
H138 H 0.03822 0.81571 0.07141 0.0
H139 H 0.92513 0.69239 0.19827 0.0
H140 H 0.04959 0.94654 0.12794 0.0
H141 H 0.92851 0.56633 0.14341 0.0
H142 H 0.9501 0.77959 0.17076 0.0
H143 H 0.98238 0.71918 0.09586 0.0
C144 C 0.02925 0.82427 0.08899 0.0
C145 C 0.04945 0.88962 0.0977 0.0
C146 C 0.94345 0.7321 0.16454 0.0
C147 C 0.9845 0.77883 0.12576 0.0
C148 C 0.92795 0.68194 0.18015 0.0
C149 C 0.92321 0.62177 0.17286 0.0
C150 C 0.95542 0.72221 0.14161 0.0
C151 C 0.93019 0.61156 0.14948 0.0
C152 C 0.9969 0.76895 0.10291 0.0
C153 C 0.0356 0.89728 0.12055 0.0
N154 N 0.94677 0.66163 0.13472 0.0
N155 N 0.00426 0.84265 0.1338 0.0
H156 H 0.08866 0.97329 0.42216 0.0
H157 H 0.45957 0.14286 0.49284 0.0
H158 H 0.23295 0.18988 0.43566 0.0
H159 H 0.29001 0.93869 0.50385 0.0
H160 H 0.38493 0.15279 0.46404 0.0
H161 H 0.16965 0.95344 0.44464 0.0
C162 C 0.13782 0.0167 0.42951 0.0
C163 C 0.154 0.08347 0.4271 0.0
C164 C 0.36404 0.1056 0.47261 0.0
C165 C 0.24653 0.06087 0.45267 0.0
C166 C 0.40665 0.09967 0.48909 0.0
C167 C 0.38069 0.04013 0.50114 0.0
C168 C 0.29467 0.05161 0.46792 0.0
C169 C 0.31199 0.98565 0.49511 0.0
C170 C 0.18364 0.0052 0.44244 0.0
C171 C 0.21814 0.13764 0.43717 0.0
N172 N 0.27094 0.99289 0.479 0.0
N173 N 0.26197 0.12513 0.4495 0.0
H174 H 0.14734 0.29146 0.78051 0.0
H175 H 0.50997 0.35486 0.83054 0.0
H176 H 0.22751 0.17346 0.75452 0.0
H177 H 0.45272 0.50314 0.83744 0.0
H178 H 0.40915 0.28759 0.80208 0.0
H179 H 0.26066 0.37004 0.80127 0.0
C180 C 0.189 0.28251 0.77895 0.0
C181 C 0.17769 0.22563 0.76582 0.0
C182 C 0.41948 0.33538 0.80967 0.0
C183 C 0.30751 0.31479 0.78993 0.0
C184 C 0.47702 0.37377 0.82585 0.0
C185 C 0.4893 0.4342 0.83667 0.0
C186 C 0.374 0.35756 0.8045 0.0
C187 C 0.44484 0.45632 0.8299 0.0
C188 C 0.2538 0.32741 0.7908 0.0
C189 C 0.23385 0.21673 0.76441 0.0
N190 N 0.38896 0.41773 0.81453 0.0
N191 N 0.29602 0.26024 0.7766 0.0
H192 H 0.90419 0.04064 0.65874 0.0
H193 H 0.59373 0.09927 0.63027 0.0
H194 H 0.85848 0.16147 0.70299 0.0
H195 H 0.62109 0.95929 0.58951 0.0
H196 H 0.69074 0.12194 0.65719 0.0
H197 H 0.80623 0.01608 0.63172 0.0
C198 C 0.87492 0.06365 0.66248 0.0
C199 C 0.88952 0.10303 0.68327 0.0
C200 C 0.67501 0.08528 0.64263 0.0
C201 C 0.77607 0.07332 0.65273 0.0
C202 C 0.61894 0.07158 0.62749 0.0
C203 C 0.59884 0.02643 0.608 0.0
C204 C 0.71229 0.0546 0.638 0.0
C205 C 0.63417 0.99319 0.60471 0.0
C206 C 0.81819 0.04856 0.64722 0.0
C207 C 0.84903 0.13062 0.68727 0.0
N208 N 0.68993 0.00856 0.61945 0.0
N209 N 0.79392 0.11477 0.67228 0.0
H210 H 0.9386 0.87551 0.03904 0.0
H211 H 0.8464 0.68423 0.91371 0.0
H212 H 0.96974 0.97562 0.97504 0.0
H213 H 0.71685 0.58868 0.96987 0.0
H214 H 0.92277 0.78606 0.93953 0.0
H215 H 0.8822 0.76532 0.01662 0.0
C216 C 0.93319 0.87426 0.0203 0.0
C217 C 0.95795 0.93471 0.00887 0.0
C218 C 0.87897 0.74184 0.9464 0.0
C219 C 0.89655 0.80966 0.9833 0.0
C220 C 0.83638 0.68327 0.93184 0.0
C221 C 0.77616 0.62774 0.93985 0.0
C222 C 0.86136 0.74436 0.96913 0.0
C223 C 0.76369 0.63011 0.96324 0.0
C224 C 0.90152 0.81157 0.00759 0.0
C225 C 0.95033 0.93024 0.98457 0.0
N226 N 0.80556 0.68786 0.97706 0.0
N227 N 0.92079 0.86888 0.97259 0.0
H228 H 0.97538 0.79473 0.37421 0.0
H229 H 0.12237 0.78706 0.25207 0.0
H230 H 0.01171 0.93817 0.32251 0.0
H231 H 0.00407 0.60912 0.29072 0.0
H232 H 0.1087 0.8549 0.28218 0.0
H233 H 0.01004 0.73657 0.34757 0.0
C234 C 0.99059 0.81397 0.35727 0.0
C235 C 0.9898 0.87087 0.35047 0.0
C236 C 0.08684 0.80122 0.2842 0.0
C237 C 0.03094 0.80555 0.32017 0.0
C238 C 0.09535 0.76288 0.26722 0.0
C239 C 0.06436 0.69272 0.26907 0.0
C240 C 0.04807 0.76903 0.30318 0.0
C241 C 0.02866 0.66322 0.28875 0.0
C242 C 0.01051 0.78089 0.34212 0.0
C243 C 0.01061 0.89391 0.32836 0.0
N244 N 0.02134 0.70144 0.30502 0.0
N245 N 0.03047 0.86126 0.31401 0.0
H246 H 0.11633 0.10029 0.63134 0.0
H247 H 0.48465 0.13742 0.62757 0.0
H248 H 0.2196 0.06967 0.68982 0.0
H249 H 0.3906 0.18494 0.57115 0.0
H250 H 0.39426 0.1244 0.65208 0.0
H251 H 0.21975 0.13925 0.60998 0.0
C252 C 0.16067 0.10159 0.6397 0.0
C253 C 0.15892 0.08108 0.66238 0.0
C254 C 0.39414 0.13931 0.63453 0.0
C255 C 0.27803 0.12632 0.63801 0.0
C256 C 0.44625 0.14762 0.62068 0.0
C257 C 0.44558 0.16375 0.59759 0.0
C258 C 0.34003 0.14555 0.62498 0.0
C259 C 0.39355 0.17407 0.58909 0.0
C260 C 0.21995 0.1243 0.62752 0.0
C261 C 0.21829 0.08448 0.67234 0.0
N262 N 0.34222 0.16397 0.60271 0.0
N263 N 0.27521 0.10633 0.66005 0.0
H264 H 0.18605 0.25463 0.01378 0.0
H265 H 0.50341 0.37202 0.93472 0.0
H266 H 0.29623 0.15148 0.01004 0.0
H267 H 0.4047 0.48415 0.9454 0.0
H268 H 0.42328 0.28618 0.95973 0.0
H269 H 0.25917 0.33218 0.98592 0.0
C270 C 0.22496 0.24738 0.00684 0.0
C271 C 0.23451 0.1958 0.01422 0.0
C272 C 0.41908 0.32947 0.9566 0.0
C273 C 0.32029 0.28661 0.98241 0.0
C274 C 0.46482 0.37869 0.9423 0.0
C275 C 0.46092 0.43569 0.93797 0.0
C276 C 0.36876 0.33698 0.96664 0.0
C277 C 0.40979 0.4413 0.9483 0.0
C278 C 0.26728 0.29243 -0.009 0.0
C279 C 0.2869 0.19031 0.0048 0.0
N280 N 0.36571 0.39253 0.96216 0.0
N281 N 0.32816 0.23548 0.9894 0.0
H282 H 0.13216 0.30885 0.35227 0.0
H283 H 0.88004 0.31089 0.25228 0.0
H284 H 0.95928 0.12387 0.31783 0.0
H285 H 0.08187 0.4866 0.27577 0.0
H286 H 0.9054 0.24051 0.27664 0.0
H287 H 0.11615 0.37429 0.3233 0.0
C288 C 0.09215 0.28192 0.33819 0.0
C289 C 0.04696 0.21095 0.33749 0.0
C290 C 0.944 0.29451 0.27635 0.0
C291 C 0.02624 0.28553 0.30479 0.0
C292 C 0.92913 0.33466 0.26273 0.0
C293 C 0.97884 0.40455 0.26206 0.0
C294 C 0.00859 0.32492 0.28946 0.0
C295 C 0.04209 0.43282 0.27569 0.0
C296 C 0.08245 0.31927 0.32177 0.0
C297 C 0.99558 0.17856 0.31893 0.0
N298 N 0.05501 0.39304 0.28881 0.0
N299 N 0.98562 0.21623 0.30356 0.0
loop_
_geom_bond_atom_site_label_1
_geom_bond_atom_site_label_2
_geom_bond_distance
_geom_bond_site_symmetry_2
_ccdc_geom_bond_type
Mg0 O1 2.028 . S
Mg0 O7 1.986 . S
Mg0 O9 2.114 . S
Mg0 O10 2.251 . S
Mg0 O13 2.010 . S
O1 Mg0 2.028 . S
O1 C4 1.250 1_455 S
O2 Mg3 2.028 1_655 S
O2 C4 1.248 . S
Mg3 O2 2.028 1_455 S
Mg3 O8 2.032 . S
Mg3 O10 2.079 . S
C4 O1 1.250 1_655 S
C4 O2 1.248 . S
C5 O6 1.264 1_565 S
C5 O13 1.249 1_565 S
O6 C5 1.264 1_545 S
O7 Mg0 1.986 . S
O7 C11 1.246 . S
O8 Mg3 2.032 . S
O8 C11 1.259 . S
O9 Mg0 2.114 . S
O9 C12 1.252 . S
O10 Mg0 2.251 . S
O10 Mg3 2.079 . S
O10 C12 1.273 . S
C11 O7 1.246 . S
C11 O8 1.259 . S
C12 O9 1.252 . S
C12 O10 1.273 . S
O13 Mg0 2.010 . S
O13 C5 1.249 1_545 S
Mg14 O15 2.028 1_655 S
Mg14 O21 1.986 1_655 S
Mg14 O23 2.114 1_545 S
Mg14 O24 2.251 . S
Mg14 O27 2.010 1_545 S
O15 Mg14 2.028 1_455 S
O15 C18 1.250 . S
O16 Mg17 2.028 . S
O16 C18 1.248 . S
Mg17 O16 2.028 . S
Mg17 O22 2.032 . S
Mg17 O24 2.079 1_455 S
C18 O15 1.250 . S
C18 O16 1.248 . S
C19 O20 1.264 . S
C19 O27 1.249 . S
O20 C19 1.264 . S
O21 Mg14 1.986 1_455 S
O21 C25 1.246 . S
O22 Mg17 2.032 . S
O22 C25 1.259 . S
O23 Mg14 2.114 1_565 S
O23 C26 1.252 1_565 S
O24 Mg14 2.251 . S
O24 Mg17 2.079 1_655 S
O24 C26 1.273 . S
C25 O21 1.246 . S
C25 O22 1.259 . S
C26 O23 1.252 1_545 S
C26 O24 1.273 . S
O27 Mg14 2.010 1_565 S
O27 C19 1.249 . S
Mg28 O29 2.028 . S
Mg28 O35 1.986 1_455 S
Mg28 O37 2.114 1_545 S
Mg28 O38 2.251 1_445 S
Mg28 O41 2.010 . S
O29 Mg28 2.028 . S
O29 C32 1.250 . S
O30 Mg31 2.028 1_455 S
O30 C32 1.248 . S
Mg31 O30 2.028 1_655 S
Mg31 O36 2.032 . S
Mg31 O38 2.079 1_545 S
C32 O29 1.250 . S
C32 O30 1.248 . S
C33 O34 1.279 . S
C33 O41 1.237 1_565 S
O34 C33 1.279 . S
O35 Mg28 1.986 1_655 S
O35 C39 1.246 . S
O36 Mg31 2.032 . S
O36 C39 1.259 . S
O37 Mg28 2.114 1_565 S
O37 C40 1.252 1_455 S
O38 Mg28 2.251 1_665 S
O38 Mg31 2.079 1_565 S
O38 C40 1.273 . S
C39 O35 1.246 . S
C39 O36 1.259 . S
C40 O37 1.252 1_655 S
C40 O38 1.273 . S
O41 Mg28 2.010 . S
O41 C33 1.237 1_545 S
C42 O44 1.247 . S
C42 O46 1.258 1_455 S
C43 O50 1.247 1_455 S
C43 O51 1.258 . S
O44 C42 1.247 . S
O44 Zn45 2.028 . S
Zn45 O44 2.028 . S
Zn45 O49 2.035 . S
Zn45 O51 2.035 . S
Zn45 O52 2.028 . S
O46 C42 1.258 1_655 S
O46 Zn47 2.035 . S
Zn47 O46 2.035 . S
Zn47 O48 2.028 . S
Zn47 O50 2.028 . S
Zn47 O53 2.035 . S
O48 Zn47 2.028 . S
O48 C54 1.247 1_655 S
O49 Zn45 2.035 . S
O49 C54 1.258 . S
O50 C43 1.247 1_655 S
O50 Zn47 2.028 . S
O51 C43 1.258 . S
O51 Zn45 2.035 . S
O52 Zn45 2.028 . S
O52 C55 1.247 . S
O53 Zn47 2.035 . S
O53 C55 1.258 1_655 S
C54 O48 1.247 1_455 S
C54 O49 1.258 . S
C55 O52 1.247 . S
C55 O53 1.258 1_455 S
C56 O58 1.247 . S
C56 O60 1.258 . S
C57 O64 1.247 . S
C57 O65 1.258 . S
O58 C56 1.247 . S
O58 Zn59 2.028 . S
Zn59 O58 2.028 . S
Zn59 O63 2.035 . S
Zn59 O65 2.035 . S
Zn59 O66 2.028 . S
O60 C56 1.258 . S
O60 Zn61 2.035 . S
Zn61 O60 2.035 . S
Zn61 O62 2.028 . S
Zn61 O64 2.028 . S
Zn61 O67 2.035 . S
O62 Zn61 2.028 . S
O62 C68 1.247 . S
O63 Zn59 2.035 . S
O63 C68 1.258 . S
O64 C57 1.247 . S
O64 Zn61 2.028 . S
O65 C57 1.258 . S
O65 Zn59 2.035 . S
O66 Zn59 2.028 . S
O66 C69 1.247 . S
O67 Zn61 2.035 . S
O67 C69 1.258 . S
C68 O62 1.247 . S
C68 O63 1.258 . S
C69 O66 1.247 . S
C69 O67 1.258 . S
C70 O72 1.247 . S
C70 O74 1.258 . S
C71 O78 1.247 . S
C71 O79 1.258 . S
O72 C70 1.247 . S
O72 Zn73 2.028 . S
Zn73 O72 2.028 . S
Zn73 O77 2.035 . S
Zn73 O79 2.035 . S
Zn73 O80 2.028 . S
O74 C70 1.258 . S
O74 Zn75 2.035 . S
Zn75 O74 2.035 . S
Zn75 O76 2.028 . S
Zn75 O78 2.028 . S
Zn75 O81 2.035 . S
O76 Zn75 2.028 . S
O76 C82 1.247 . S
O77 Zn73 2.035 . S
O77 C82 1.258 . S
O78 C71 1.247 . S
O78 Zn75 2.028 . S
O79 C71 1.258 . S
O79 Zn73 2.035 . S
O80 Zn73 2.028 . S
O80 C83 1.247 . S
O81 Zn75 2.035 . S
O81 C83 1.258 . S
C82 O76 1.247 . S
C82 O77 1.258 . S
C83 O80 1.247 . S
C83 O81 1.258 . S
H84 C90 0.930 . S
H85 C94 0.930 . S
H86 C99 0.929 . S
H87 C97 0.929 . S
H88 C92 0.929 . S
H89 C98 0.929 . S
C90 H84 0.930 . S
C90 C91 1.367 1_655 S
C90 C98 1.378 . S
C91 C90 1.367 1_455 S
C91 C99 1.433 . S
C92 H88 0.929 . S
C92 C94 1.378 . S
C92 C96 1.350 . S
C93 C96 1.463 . S
C93 C98 1.350 1_455 S
C93 N101 1.427 . S
C94 H85 0.930 . S
C94 C92 1.378 . S
C94 C95 1.367 . S
C95 C94 1.367 . S
C95 C97 1.433 1_455 S
C96 C92 1.350 . S
C96 C93 1.463 . S
C96 N100 1.427 1_455 S
C97 H87 0.929 . S
C97 C95 1.433 1_655 S
C97 N100 1.384 . S
C98 H89 0.929 . S
C98 C90 1.378 . S
C98 C93 1.350 1_655 S
C99 H86 0.929 . S
C99 C91 1.433 . S
C99 N101 1.384 . S
N100 C96 1.427 1_655 S
N100 C97 1.384 . S
N101 C93 1.427 . S
N101 C99 1.384 . S
H102 C108 0.930 . S
H103 C112 0.930 1_565 S
H104 C117 0.929 . S
H105 C115 0.929 . S
H106 C110 0.929 1_565 S
H107 C116 0.929 . S
C108 H102 0.930 . S
C108 C109 1.367 . S
C108 C116 1.378 . S
C109 C108 1.367 . S
C109 C117 1.433 1_545 S
C110 H106 0.929 1_545 S
C110 C112 1.378 . S
C110 C114 1.350 . S
C111 C114 1.463 . S
C111 C116 1.350 . S
C111 N119 1.427 1_545 S
C112 H103 0.930 1_545 S
C112 C110 1.378 . S
C112 C113 1.367 . S
C113 C112 1.367 . S
C113 C115 1.433 . S
C114 C110 1.350 . S
C114 C111 1.463 . S
C114 N118 1.427 . S
C115 H105 0.929 . S
C115 C113 1.433 . S
C115 N118 1.384 . S
C116 H107 0.929 . S
C116 C108 1.378 . S
C116 C111 1.350 . S
C117 H104 0.929 . S
C117 C109 1.433 1_565 S
C117 N119 1.384 . S
N118 C114 1.427 . S
N118 C115 1.384 . S
N119 C111 1.427 1_565 S
N119 C117 1.384 . S
H120 C126 0.930 . S
H121 C130 0.930 . S
H122 C135 0.929 . S
H123 C133 0.929 . S
H124 C128 0.929 . S
H125 C134 0.929 . S
C126 H120 0.930 . S
C126 C127 1.367 . S
C126 C134 1.378 . S
C127 C126 1.367 . S
C127 C135 1.433 . S
C128 H124 0.929 . S
C128 C130 1.378 . S
C128 C132 1.350 . S
C129 C132 1.463 . S
C129 C134 1.350 . S
C129 N137 1.427 . S
C130 H121 0.930 . S
C130 C128 1.378 . S
C130 C131 1.367 . S
C131 C130 1.367 . S
C131 C133 1.433 . S
C132 C128 1.350 . S
C132 C129 1.463 . S
C132 N136 1.427 . S
C133 H123 0.929 . S
C133 C131 1.433 . S
C133 N136 1.384 . S
C134 H125 0.929 . S
C134 C126 1.378 . S
C134 C129 1.350 . S
C135 H122 0.929 . S
C135 C127 1.433 . S
C135 N137 1.384 . S
N136 C132 1.427 . S
N136 C133 1.384 . S
N137 C129 1.427 . S
N137 C135 1.384 . S
H138 C144 0.930 . S
H139 C148 0.930 1_655 S
H140 C153 0.929 . S
H141 C151 0.929 . S
H142 C146 0.929 . S
H143 C152 0.929 . S
C144 H138 0.930 . S
C144 C145 1.367 . S
C144 C152 1.378 . S
C145 C144 1.367 . S
C145 C153 1.433 . S
C146 H142 0.929 . S
C146 C148 1.378 . S
C146 C150 1.350 . S
C147 C150 1.463 . S
C147 C152 1.350 . S
C147 N155 1.427 . S
C148 H139 0.930 1_455 S
C148 C146 1.378 . S
C148 C149 1.367 . S
C149 C148 1.367 . S
C149 C151 1.433 . S
C150 C146 1.350 . S
C150 C147 1.463 . S
C150 N154 1.427 . S
C151 H141 0.929 . S
C151 C149 1.433 . S
C151 N154 1.384 . S
C152 H143 0.929 . S
C152 C144 1.378 . S
C152 C147 1.350 . S
C153 H140 0.929 . S
C153 C145 1.433 . S
C153 N155 1.384 . S
N154 C150 1.427 . S
N154 C151 1.384 . S
N155 C147 1.427 . S
N155 C153 1.384 . S
H156 C162 0.930 1_565 S
H157 C166 0.930 . S
H158 C171 0.929 . S
H159 C169 0.929 1_565 S
H160 C164 0.929 . S
H161 C170 0.929 1_565 S
C162 H156 0.930 1_545 S
C162 C163 1.367 . S
C162 C170 1.378 . S
C163 C162 1.367 . S
C163 C171 1.433 . S
C164 H160 0.929 . S
C164 C166 1.378 . S
C164 C168 1.350 . S
C165 C168 1.463 . S
C165 C170 1.350 . S
C165 N173 1.427 . S
C166 H157 0.930 . S
C166 C164 1.378 . S
C166 C167 1.367 . S
C167 C166 1.367 . S
C167 C169 1.433 . S
C168 C164 1.350 . S
C168 C165 1.463 . S
C168 N172 1.427 . S
C169 H159 0.929 1_545 S
C169 C167 1.433 . S
C169 N172 1.384 . S
C170 H161 0.929 1_545 S
C170 C162 1.378 . S
C170 C165 1.350 . S
C171 H158 0.929 . S
C171 C163 1.433 . S
C171 N173 1.384 . S
N172 C168 1.427 . S
N172 C169 1.384 . S
N173 C165 1.427 . S
N173 C171 1.384 . S
H174 C180 0.930 . S
H175 C184 0.930 . S
H176 C189 0.929 . S
H177 C187 0.929 . S
H178 C182 0.929 . S
H179 C188 0.929 . S
C180 H174 0.930 . S
C180 C181 1.367 . S
C180 C188 1.378 . S
C181 C180 1.367 . S
C181 C189 1.433 . S
C182 H178 0.929 . S
C182 C184 1.378 . S
C182 C186 1.350 . S
C183 C186 1.463 . S
C183 C188 1.350 . S
C183 N191 1.427 . S
C184 H175 0.930 . S
C184 C182 1.378 . S
C184 C185 1.367 . S
C185 C184 1.367 . S
C185 C187 1.433 . S
C186 C182 1.350 . S
C186 C183 1.463 . S
C186 N190 1.427 . S
C187 H177 0.929 . S
C187 C185 1.433 . S
C187 N190 1.384 . S
C188 H179 0.929 . S
C188 C180 1.378 . S
C188 C183 1.350 . S
C189 H176 0.929 . S
C189 C181 1.433 . S
C189 N191 1.384 . S
N190 C186 1.427 . S
N190 C187 1.384 . S
N191 C183 1.427 . S
N191 C189 1.384 . S
H192 C198 0.930 . S
H193 C202 0.930 . S
H194 C207 0.929 . S
H195 C205 0.929 . S
H196 C200 0.929 . S
H197 C206 0.929 . S
C198 H192 0.930 . S
C198 C199 1.367 . S
C198 C206 1.378 . S
C199 C198 1.367 . S
C199 C207 1.433 . S
C200 H196 0.929 . S
C200 C202 1.378 . S
C200 C204 1.350 . S
C201 C204 1.463 . S
C201 C206 1.350 . S
C201 N209 1.427 . S
C202 H193 0.930 . S
C202 C200 1.378 . S
C202 C203 1.367 . S
C203 C202 1.367 . S
C203 C205 1.433 . S
C204 C200 1.350 . S
C204 C201 1.463 . S
C204 N208 1.427 . S
C205 H195 0.929 . S
C205 C203 1.433 . S
C205 N208 1.384 . S
C206 H197 0.929 . S
C206 C198 1.378 . S
C206 C201 1.350 . S
C207 H194 0.929 . S
C207 C199 1.433 . S
C207 N209 1.384 . S
N208 C204 1.427 . S
N208 C205 1.384 . S
N209 C201 1.427 . S
N209 C207 1.384 . S
H210 C216 0.930 . S
H211 C220 0.930 . S
H212 C225 0.929 1_556 S
H213 C223 0.929 . S
H214 C218 0.929 . S
H215 C224 0.929 . S
C216 H210 0.930 . S
C216 C217 1.367 . S
C216 C224 1.378 . S
C217 C216 1.367 . S
C217 C225 1.433 . S
C218 H214 0.929 . S
C218 C220 1.378 . S
C218 C222 1.350 . S
C219 C222 1.463 . S
C219 C224 1.350 1_556 S
C219 N227 1.427 . S
C220 H211 0.930 . S
C220 C218 1.378 . S
C220 C221 1.367 . S
C221 C220 1.367 . S
C221 C223 1.433 . S
C222 C218 1.350 . S
C222 C219 1.463 . S
C222 N226 1.427 . S
C223 H213 0.929 . S
C223 C221 1.433 . S
C223 N226 1.384 . S
C224 H215 0.929 . S
C224 C216 1.378 . S
C224 C219 1.350 1_554 S
C225 H212 0.929 1_554 S
C225 C217 1.433 . S
C225 N227 1.384 1_554 S
N226 C222 1.427 . S
N226 C223 1.384 . S
N227 C219 1.427 . S
N227 C225 1.384 1_556 S
H228 C234 0.930 . S
H229 C238 0.930 . S
H230 C243 0.929 . S
H231 C241 0.929 . S
H232 C236 0.929 . S
H233 C242 0.929 . S
C234 H228 0.930 . S
C234 C235 1.367 . S
C234 C242 1.378 . S
C235 C234 1.367 . S
C235 C243 1.433 1_655 S
C236 H232 0.929 . S
C236 C238 1.378 . S
C236 C240 1.350 . S
C237 C240 1.473 . S
C237 C242 1.342 1_455 S
C237 N245 1.426 . S
C238 H229 0.930 . S
C238 C236 1.378 . S
C238 C239 1.367 . S
C239 C238 1.367 . S
C239 C241 1.433 1_455 S
C240 C236 1.350 . S
C240 C237 1.473 . S
C240 N244 1.427 1_455 S
C241 H231 0.929 . S
C241 C239 1.433 1_655 S
C241 N244 1.384 . S
C242 H233 0.929 . S
C242 C234 1.378 . S
C242 C237 1.342 1_655 S
C243 H230 0.929 . S
C243 C235 1.433 1_455 S
C243 N245 1.384 . S
N244 C240 1.427 1_655 S
N244 C241 1.384 . S
N245 C237 1.426 . S
N245 C243 1.384 . S
H246 C252 0.930 1_565 S
H247 C256 0.930 . S
H248 C261 0.929 . S
H249 C259 0.929 . S
H250 C254 0.929 . S
H251 C260 0.931 . S
C252 H246 0.930 1_545 S
C252 C253 1.367 . S
C252 C260 1.378 . S
C253 C252 1.367 . S
C253 C261 1.433 . S
C254 H250 0.929 . S
C254 C256 1.378 . S
C254 C258 1.350 . S
C255 C258 1.463 . S
C255 C260 1.350 . S
C255 N263 1.427 . S
C256 H247 0.930 . S
C256 C254 1.378 . S
C256 C257 1.367 . S
C257 C256 1.367 . S
C257 C259 1.433 . S
C258 C254 1.350 . S
C258 C255 1.463 . S
C258 N262 1.427 . S
C259 H249 0.929 . S
C259 C257 1.433 . S
C259 N262 1.384 . S
C260 H251 0.931 . S
C260 C252 1.378 . S
C260 C255 1.350 . S
C261 H248 0.929 . S
C261 C253 1.433 . S
C261 N263 1.384 . S
N262 C258 1.427 . S
N262 C259 1.384 . S
N263 C255 1.427 . S
N263 C261 1.384 . S
H264 C270 0.930 . S
H265 C274 0.930 . S
H266 C279 0.929 1_556 S
H267 C277 0.929 . S
H268 C272 0.929 . S
H269 C278 0.929 . S
C270 H264 0.930 . S
C270 C271 1.367 . S
C270 C278 1.378 . S
C271 C270 1.367 . S
C271 C279 1.433 . S
C272 H268 0.929 . S
C272 C274 1.378 . S
C272 C276 1.350 . S
C273 C276 1.463 . S
C273 C278 1.350 1_556 S
C273 N281 1.427 . S
C274 H265 0.930 . S
C274 C272 1.378 . S
C274 C275 1.367 . S
C275 C274 1.367 . S
C275 C277 1.433 . S
C276 C272 1.350 . S
C276 C273 1.463 . S
C276 N280 1.427 . S
C277 H267 0.929 . S
C277 C275 1.433 . S
C277 N280 1.384 . S
C278 H269 0.929 . S
C278 C270 1.378 . S
C278 C273 1.350 1_554 S
C279 H266 0.929 1_554 S
C279 C271 1.433 . S
C279 N281 1.384 1_554 S
N280 C276 1.427 . S
N280 C277 1.384 . S
N281 C273 1.427 . S
N281 C279 1.384 1_556 S
H282 C288 0.930 . S
H283 C292 0.930 . S
H284 C297 0.926 1_655 S
H285 C295 0.929 . S
H286 C290 0.929 . S
H287 C296 0.929 . S
C288 H282 0.930 . S
C288 C289 1.367 . S
C288 C296 1.378 . S
C289 C288 1.367 . S
C289 C297 1.444 . S
C290 H286 0.929 . S
C290 C292 1.378 . S
C290 C294 1.350 1_655 S
C291 C294 1.463 . S
C291 C296 1.350 . S
C291 N299 1.427 1_455 S
C292 H283 0.930 . S
C292 C290 1.378 . S
C292 C293 1.367 1_655 S
C293 C292 1.367 1_455 S
C293 C295 1.433 . S
C294 C290 1.350 1_455 S
C294 C291 1.463 . S
C294 N298 1.427 . S
C295 H285 0.929 . S
C295 C293 1.433 . S
C295 N298 1.384 . S
C296 H287 0.929 . S
C296 C288 1.378 . S
C296 C291 1.350 . S
C297 H284 0.926 1_455 S
C297 C289 1.444 . S
C297 N299 1.376 1_455 S
N298 C294 1.427 . S
N298 C295 1.384 . S
N299 C291 1.427 1_655 S
N299 C297 1.376 1_655 S
C95 C43 1.404 . S
C91 C11 1.392 . S
C109 C26 1.500 . S
C113 C69 1.514 . S
C127 C40 1.403 . S
C131 C71 1.409 . S
C145 C5 1.227 . S
C149 C55 1.394 . S
C167 C57 1.519 . S
C163 C18 1.503 . S
C181 C32 1.382 . S
C185 C83 1.406 . S
C203 C56 1.291 . S
C199 C39 1.286 . S
C217 C4 1.401 1_565 S
C221 C82 1.418 . S
C239 C42 1.404 . S
C235 C19 1.243 . S
C257 C68 1.325 . S
C253 C33 1.147 1_545 S
C275 C70 1.423 . S
C271 C12 1.409 . S
C289 C25 1.397 . S
C293 C54 1.414 . S
