# Generated by pormake.
# Topology gar, (4,6)-cn, num edge types: 1
# Building blocks:
#     Node 0, Type 0, BuildingBlock: NAHDIM_clean_sbu_0, # of connection points: 4
#     Node 1, Type 0, BuildingBlock: NAHDIM_clean_sbu_0, # of connection points: 4
#     Node 2, Type 0, BuildingBlock: NAHDIM_clean_sbu_0, # of connection points: 4
#     Node 3, Type 0, BuildingBlock: NAHDIM_clean_sbu_0, # of connection points: 4
#     Node 4, Type 0, BuildingBlock: NAHDIM_clean_sbu_0, # of connection points: 4
#     Node 5, Type 0, BuildingBlock: NAHDIM_clean_sbu_0, # of connection points: 4
#     Node 6, Type 0, BuildingBlock: NAHDIM_clean_sbu_0, # of connection points: 4
#     Node 7, Type 0, BuildingBlock: NAHDIM_clean_sbu_0, # of connection points: 4
#     Node 8, Type 0, BuildingBlock: NAHDIM_clean_sbu_0, # of connection points: 4
#     Node 9, Type 0, BuildingBlock: NAHDIM_clean_sbu_0, # of connection points: 4
#     Node 10, Type 0, BuildingBlock: NAHDIM_clean_sbu_0, # of connection points: 4
#     Node 11, Type 0, BuildingBlock: NAHDIM_clean_sbu_0, # of connection points: 4
#     Node 12, Type 0, BuildingBlock: NAHDIM_clean_sbu_0, # of connection points: 4
#     Node 13, Type 0, BuildingBlock: NAHDIM_clean_sbu_0, # of connection points: 4
#     Node 14, Type 0, BuildingBlock: NAHDIM_clean_sbu_0, # of connection points: 4
#     Node 15, Type 0, BuildingBlock: NAHDIM_clean_sbu_0, # of connection points: 4
#     Node 16, Type 0, BuildingBlock: NAHDIM_clean_sbu_0, # of connection points: 4
#     Node 17, Type 0, BuildingBlock: NAHDIM_clean_sbu_0, # of connection points: 4
#     Node 18, Type 0, BuildingBlock: NAHDIM_clean_sbu_0, # of connection points: 4
#     Node 19, Type 0, BuildingBlock: NAHDIM_clean_sbu_0, # of connection points: 4
#     Node 20, Type 0, BuildingBlock: NAHDIM_clean_sbu_0, # of connection points: 4
#     Node 21, Type 0, BuildingBlock: NAHDIM_clean_sbu_0, # of connection points: 4
#     Node 22, Type 0, BuildingBlock: NAHDIM_clean_sbu_0, # of connection points: 4
#     Node 23, Type 0, BuildingBlock: NAHDIM_clean_sbu_0, # of connection points: 4
#     Node 24, Type 1, BuildingBlock: GEDQOX_clean_sbu_0, # of connection points: 6
#     Node 25, Type 1, BuildingBlock: GEDQOX_clean_sbu_0, # of connection points: 6
#     Node 26, Type 1, BuildingBlock: GEDQOX_clean_sbu_0, # of connection points: 6
#     Node 27, Type 1, BuildingBlock: GEDQOX_clean_sbu_0, # of connection points: 6
#     Node 28, Type 1, BuildingBlock: GEDQOX_clean_sbu_0, # of connection points: 6
#     Node 29, Type 1, BuildingBlock: GEDQOX_clean_sbu_0, # of connection points: 6
#     Node 30, Type 1, BuildingBlock: GEDQOX_clean_sbu_0, # of connection points: 6
#     Node 31, Type 1, BuildingBlock: GEDQOX_clean_sbu_0, # of connection points: 6
#     Node 32, Type 1, BuildingBlock: GEDQOX_clean_sbu_0, # of connection points: 6
#     Node 33, Type 1, BuildingBlock: GEDQOX_clean_sbu_0, # of connection points: 6
#     Node 34, Type 1, BuildingBlock: GEDQOX_clean_sbu_0, # of connection points: 6
#     Node 35, Type 1, BuildingBlock: GEDQOX_clean_sbu_0, # of connection points: 6
#     Node 36, Type 1, BuildingBlock: GEDQOX_clean_sbu_0, # of connection points: 6
#     Node 37, Type 1, BuildingBlock: GEDQOX_clean_sbu_0, # of connection points: 6
#     Node 38, Type 1, BuildingBlock: GEDQOX_clean_sbu_0, # of connection points: 6
#     Node 39, Type 1, BuildingBlock: GEDQOX_clean_sbu_0, # of connection points: 6
#     Edge 40, Type (0, 1), BuildingBlock: UVAHIK_clean_linker_0, # of connection points: 2
#     Edge 41, Type (0, 1), BuildingBlock: UVAHIK_clean_linker_0, # of connection points: 2
#     Edge 42, Type (0, 1), BuildingBlock: UVAHIK_clean_linker_0, # of connection points: 2
#     Edge 43, Type (0, 1), BuildingBlock: UVAHIK_clean_linker_0, # of connection points: 2
#     Edge 44, Type (0, 1), BuildingBlock: UVAHIK_clean_linker_0, # of connection points: 2
#     Edge 45, Type (0, 1), BuildingBlock: UVAHIK_clean_linker_0, # of connection points: 2
#     Edge 46, Type (0, 1), BuildingBlock: UVAHIK_clean_linker_0, # of connection points: 2
#     Edge 47, Type (0, 1), BuildingBlock: UVAHIK_clean_linker_0, # of connection points: 2
#     Edge 48, Type (0, 1), BuildingBlock: UVAHIK_clean_linker_0, # of connection points: 2
#     Edge 49, Type (0, 1), BuildingBlock: UVAHIK_clean_linker_0, # of connection points: 2
#     Edge 50, Type (0, 1), BuildingBlock: UVAHIK_clean_linker_0, # of connection points: 2
#     Edge 51, Type (0, 1), BuildingBlock: UVAHIK_clean_linker_0, # of connection points: 2
#     Edge 52, Type (0, 1), BuildingBlock: UVAHIK_clean_linker_0, # of connection points: 2
#     Edge 53, Type (0, 1), BuildingBlock: UVAHIK_clean_linker_0, # of connection points: 2
#     Edge 54, Type (0, 1), BuildingBlock: UVAHIK_clean_linker_0, # of connection points: 2
#     Edge 55, Type (0, 1), BuildingBlock: UVAHIK_clean_linker_0, # of connection points: 2
#     Edge 56, Type (0, 1), BuildingBlock: UVAHIK_clean_linker_0, # of connection points: 2
#     Edge 57, Type (0, 1), BuildingBlock: UVAHIK_clean_linker_0, # of connection points: 2
#     Edge 58, Type (0, 1), BuildingBlock: UVAHIK_clean_linker_0, # of connection points: 2
#     Edge 59, Type (0, 1), BuildingBlock: UVAHIK_clean_linker_0, # of connection points: 2
#     Edge 60, Type (0, 1), BuildingBlock: UVAHIK_clean_linker_0, # of connection points: 2
#     Edge 61, Type (0, 1), BuildingBlock: UVAHIK_clean_linker_0, # of connection points: 2
#     Edge 62, Type (0, 1), BuildingBlock: UVAHIK_clean_linker_0, # of connection points: 2
#     Edge 63, Type (0, 1), BuildingBlock: UVAHIK_clean_linker_0, # of connection points: 2
#     Edge 64, Type (0, 1), BuildingBlock: UVAHIK_clean_linker_0, # of connection points: 2
#     Edge 65, Type (0, 1), BuildingBlock: UVAHIK_clean_linker_0, # of connection points: 2
#     Edge 66, Type (0, 1), BuildingBlock: UVAHIK_clean_linker_0, # of connection points: 2
#     Edge 67, Type (0, 1), BuildingBlock: UVAHIK_clean_linker_0, # of connection points: 2
#     Edge 68, Type (0, 1), BuildingBlock: UVAHIK_clean_linker_0, # of connection points: 2
#     Edge 69, Type (0, 1), BuildingBlock: UVAHIK_clean_linker_0, # of connection points: 2
#     Edge 70, Type (0, 1), BuildingBlock: UVAHIK_clean_linker_0, # of connection points: 2
#     Edge 71, Type (0, 1), BuildingBlock: UVAHIK_clean_linker_0, # of connection points: 2
#     Edge 72, Type (0, 1), BuildingBlock: UVAHIK_clean_linker_0, # of connection points: 2
#     Edge 73, Type (0, 1), BuildingBlock: UVAHIK_clean_linker_0, # of connection points: 2
#     Edge 74, Type (0, 1), BuildingBlock: UVAHIK_clean_linker_0, # of connection points: 2
#     Edge 75, Type (0, 1), BuildingBlock: UVAHIK_clean_linker_0, # of connection points: 2
#     Edge 76, Type (0, 1), BuildingBlock: UVAHIK_clean_linker_0, # of connection points: 2
#     Edge 77, Type (0, 1), BuildingBlock: UVAHIK_clean_linker_0, # of connection points: 2
#     Edge 78, Type (0, 1), BuildingBlock: UVAHIK_clean_linker_0, # of connection points: 2
#     Edge 79, Type (0, 1), BuildingBlock: UVAHIK_clean_linker_0, # of connection points: 2
#     Edge 80, Type (0, 1), BuildingBlock: UVAHIK_clean_linker_0, # of connection points: 2
#     Edge 81, Type (0, 1), BuildingBlock: UVAHIK_clean_linker_0, # of connection points: 2
#     Edge 82, Type (0, 1), BuildingBlock: UVAHIK_clean_linker_0, # of connection points: 2
#     Edge 83, Type (0, 1), BuildingBlock: UVAHIK_clean_linker_0, # of connection points: 2
#     Edge 84, Type (0, 1), BuildingBlock: UVAHIK_clean_linker_0, # of connection points: 2
#     Edge 85, Type (0, 1), BuildingBlock: UVAHIK_clean_linker_0, # of connection points: 2
#     Edge 86, Type (0, 1), BuildingBlock: UVAHIK_clean_linker_0, # of connection points: 2
#     Edge 87, Type (0, 1), BuildingBlock: UVAHIK_clean_linker_0, # of connection points: 2
#     Edge 88, Type (0, 1), BuildingBlock: UVAHIK_clean_linker_0, # of connection points: 2
#     Edge 89, Type (0, 1), BuildingBlock: UVAHIK_clean_linker_0, # of connection points: 2
#     Edge 90, Type (0, 1), BuildingBlock: UVAHIK_clean_linker_0, # of connection points: 2
#     Edge 91, Type (0, 1), BuildingBlock: UVAHIK_clean_linker_0, # of connection points: 2
#     Edge 92, Type (0, 1), BuildingBlock: UVAHIK_clean_linker_0, # of connection points: 2
#     Edge 93, Type (0, 1), BuildingBlock: UVAHIK_clean_linker_0, # of connection points: 2
#     Edge 94, Type (0, 1), BuildingBlock: UVAHIK_clean_linker_0, # of connection points: 2
#     Edge 95, Type (0, 1), BuildingBlock: UVAHIK_clean_linker_0, # of connection points: 2
#     Edge 96, Type (0, 1), BuildingBlock: UVAHIK_clean_linker_0, # of connection points: 2
#     Edge 97, Type (0, 1), BuildingBlock: UVAHIK_clean_linker_0, # of connection points: 2
#     Edge 98, Type (0, 1), BuildingBlock: UVAHIK_clean_linker_0, # of connection points: 2
#     Edge 99, Type (0, 1), BuildingBlock: UVAHIK_clean_linker_0, # of connection points: 2
#     Edge 100, Type (0, 1), BuildingBlock: UVAHIK_clean_linker_0, # of connection points: 2
#     Edge 101, Type (0, 1), BuildingBlock: UVAHIK_clean_linker_0, # of connection points: 2
#     Edge 102, Type (0, 1), BuildingBlock: UVAHIK_clean_linker_0, # of connection points: 2
#     Edge 103, Type (0, 1), BuildingBlock: UVAHIK_clean_linker_0, # of connection points: 2
#     Edge 104, Type (0, 1), BuildingBlock: UVAHIK_clean_linker_0, # of connection points: 2
#     Edge 105, Type (0, 1), BuildingBlock: UVAHIK_clean_linker_0, # of connection points: 2
#     Edge 106, Type (0, 1), BuildingBlock: UVAHIK_clean_linker_0, # of connection points: 2
#     Edge 107, Type (0, 1), BuildingBlock: UVAHIK_clean_linker_0, # of connection points: 2
#     Edge 108, Type (0, 1), BuildingBlock: UVAHIK_clean_linker_0, # of connection points: 2
#     Edge 109, Type (0, 1), BuildingBlock: UVAHIK_clean_linker_0, # of connection points: 2
#     Edge 110, Type (0, 1), BuildingBlock: UVAHIK_clean_linker_0, # of connection points: 2
#     Edge 111, Type (0, 1), BuildingBlock: UVAHIK_clean_linker_0, # of connection points: 2
#     Edge 112, Type (0, 1), BuildingBlock: UVAHIK_clean_linker_0, # of connection points: 2
#     Edge 113, Type (0, 1), BuildingBlock: UVAHIK_clean_linker_0, # of connection points: 2
#     Edge 114, Type (0, 1), BuildingBlock: UVAHIK_clean_linker_0, # of connection points: 2
#     Edge 115, Type (0, 1), BuildingBlock: UVAHIK_clean_linker_0, # of connection points: 2
#     Edge 116, Type (0, 1), BuildingBlock: UVAHIK_clean_linker_0, # of connection points: 2
#     Edge 117, Type (0, 1), BuildingBlock: UVAHIK_clean_linker_0, # of connection points: 2
#     Edge 118, Type (0, 1), BuildingBlock: UVAHIK_clean_linker_0, # of connection points: 2
#     Edge 119, Type (0, 1), BuildingBlock: UVAHIK_clean_linker_0, # of connection points: 2
#     Edge 120, Type (0, 1), BuildingBlock: UVAHIK_clean_linker_0, # of connection points: 2
#     Edge 121, Type (0, 1), BuildingBlock: UVAHIK_clean_linker_0, # of connection points: 2
#     Edge 122, Type (0, 1), BuildingBlock: UVAHIK_clean_linker_0, # of connection points: 2
#     Edge 123, Type (0, 1), BuildingBlock: UVAHIK_clean_linker_0, # of connection points: 2
#     Edge 124, Type (0, 1), BuildingBlock: UVAHIK_clean_linker_0, # of connection points: 2
#     Edge 125, Type (0, 1), BuildingBlock: UVAHIK_clean_linker_0, # of connection points: 2
#     Edge 126, Type (0, 1), BuildingBlock: UVAHIK_clean_linker_0, # of connection points: 2
#     Edge 127, Type (0, 1), BuildingBlock: UVAHIK_clean_linker_0, # of connection points: 2
#     Edge 128, Type (0, 1), BuildingBlock: UVAHIK_clean_linker_0, # of connection points: 2
#     Edge 129, Type (0, 1), BuildingBlock: UVAHIK_clean_linker_0, # of connection points: 2
#     Edge 130, Type (0, 1), BuildingBlock: UVAHIK_clean_linker_0, # of connection points: 2
#     Edge 131, Type (0, 1), BuildingBlock: UVAHIK_clean_linker_0, # of connection points: 2
#     Edge 132, Type (0, 1), BuildingBlock: UVAHIK_clean_linker_0, # of connection points: 2
#     Edge 133, Type (0, 1), BuildingBlock: UVAHIK_clean_linker_0, # of connection points: 2
#     Edge 134, Type (0, 1), BuildingBlock: UVAHIK_clean_linker_0, # of connection points: 2
#     Edge 135, Type (0, 1), BuildingBlock: UVAHIK_clean_linker_0, # of connection points: 2
# Relax obj value: 0.239
# Max RMSD: 0.372
# Mean RMSD: 0.186
data_MOF--net-gar--node1-NAHDIM_clean_sbu_0--node2-GEDQOX_clean_sbu_0--edge1-UVAHIK_clean_linker_0
_symmetry_space_group_name_H-M    P1
_symmetry_Int_Tables_number       1
_symmetry_cell_setting            triclinic
loop_
_symmetry_equiv_pos_as_xyz
'x, y, z'
_cell_length_a     77.969928
_cell_length_b     74.429219
_cell_length_c     67.873831
_cell_angle_alpha  97.091434
_cell_angle_beta   97.062881
_cell_angle_gamma 100.69577
loop_
_atom_site_label
_atom_site_type_symbol
_atom_site_fract_x
_atom_site_fract_y
_atom_site_fract_z
_atom_type_partial_charge
C0 C 0.11431 0.34086 0.43298 0.0
O1 O 0.12042 0.33457 0.44912 0.0
O2 O 0.08286 0.32004 0.46405 0.0
Zn3 Zn 0.08349 0.34394 0.45297 0.0
O4 O 0.08861 0.3657 0.47512 0.0
C5 C 0.04684 0.32893 0.43581 0.0
O6 O 0.04955 0.31429 0.44375 0.0
O7 O 0.09971 0.34616 0.43222 0.0
C8 C 0.07971 0.36413 0.48953 0.0
O9 O 0.06873 0.34843 0.48954 0.0
C10 C 0.09073 0.3176 0.48073 0.0
O11 O 0.10177 0.33154 0.49217 0.0
O12 O 0.05926 0.34309 0.43816 0.0
C13 C 0.95812 0.75814 0.68176 0.0
O14 O 0.96469 0.74316 0.67884 0.0
O15 O 0.97082 0.7446 0.63124 0.0
Zn16 Zn 0.97895 0.76772 0.65168 0.0
O17 O 0.98509 0.79048 0.63865 0.0
C18 C 1.00811 0.75141 0.66764 0.0
O19 O 1.00007 0.73653 0.65505 0.0
O20 O 0.96161 0.77063 0.67082 0.0
C21 C 0.99914 0.79239 0.63069 0.0
O22 O 1.00826 0.77921 0.63049 0.0
C23 C 0.97038 0.7441 0.61239 0.0
O24 O 0.97369 0.75963 0.60494 0.0
O25 O 1.00141 0.76574 0.6686 0.0
C26 C 0.58839 0.85439 0.92009 0.0
O27 O 0.59345 0.87078 0.93111 0.0
O28 O 0.55498 0.82482 0.96048 0.0
Zn29 Zn 0.57321 0.84603 0.95523 0.0
O30 O 0.59575 0.84539 0.97369 0.0
C31 C 0.55509 0.87972 0.95415 0.0
O32 O 0.55563 0.89644 0.96342 0.0
O33 O 0.57871 0.84161 0.9269 0.0
C34 C 0.60331 0.85518 0.9903 0.0
O35 O 0.617 0.8505 1.00011 0.0
C36 C 0.55108 0.82469 0.97811 0.0
O37 O 0.55831 0.83887 0.99203 0.0
O38 O 0.56599 0.8706 0.96141 0.0
C39 C 0.45911 0.26113 0.17453 0.0
O40 O 0.4631 0.2447 0.17186 0.0
O41 O 0.4778 0.24409 0.12921 0.0
Zn42 Zn 0.48329 0.269 0.14642 0.0
O43 O 0.48821 0.28995 0.1305 0.0
C44 C 0.51728 0.26133 0.16123 0.0
O45 O 0.51522 0.25088 0.14369 0.0
O46 O 0.46516 0.27319 0.16407 0.0
C47 C 0.50018 0.29082 0.11931 0.0
O48 O 0.50852 0.27708 0.11698 0.0
C49 C 0.47329 0.24066 0.11028 0.0
O50 O 0.46987 0.25398 0.10037 0.0
O51 O 0.50542 0.27016 0.16544 0.0
C52 C 0.99091 0.79728 0.23112 0.0
O53 O 0.99131 0.79933 0.21222 0.0
O54 O 0.02479 0.77034 0.20913 0.0
Zn55 Zn 0.0274 0.79577 0.2262 0.0
O56 O 0.0268 0.81572 0.2078 0.0
C57 C 0.06462 0.79407 0.23506 0.0
O58 O 0.05995 0.78506 0.21672 0.0
O59 O 1.00522 0.79547 0.24151 0.0
C60 C 0.03279 0.81562 0.19114 0.0
O61 O 0.04048 0.80212 0.18501 0.0
C62 C 0.01524 0.76394 0.19221 0.0
O63 O 1.00478 0.77388 0.18418 0.0
O64 O 0.05287 0.80079 0.24353 0.0
C65 C 0.57739 0.82188 0.37352 0.0
O66 O 0.5767 0.82012 0.39245 0.0
O67 O 0.54 0.7984 0.39185 0.0
Zn68 Zn 0.54051 0.82095 0.37721 0.0
O69 O 0.5437 0.84352 0.3988 0.0
C70 C 0.50214 0.80716 0.36 0.0
O71 O 0.50405 0.79319 0.36957 0.0
O72 O 0.56307 0.82293 0.36261 0.0
C73 C 0.5473 0.86001 0.395 0.0
O74 O 0.54995 0.86267 0.37674 0.0
C75 C 0.53463 0.79784 0.40879 0.0
O76 O 0.52823 0.81174 0.41664 0.0
O77 O 0.51578 0.81976 0.35994 0.0
C78 C 0.49101 0.29269 0.73277 0.0
O79 O 0.49085 0.29057 0.71323 0.0
O80 O 0.52392 0.26751 0.71151 0.0
Zn81 Zn 0.52752 0.29318 0.72822 0.0
O82 O 0.52605 0.31143 0.7081 0.0
C83 C 0.56167 0.28625 0.74792 0.0
O84 O 0.55289 0.26907 0.74322 0.0
O85 O 0.50585 0.29409 0.74394 0.0
C86 C 0.53434 0.3282 0.71157 0.0
O87 O 0.54476 0.33422 0.72877 0.0
C88 C 0.53352 0.2653 0.69787 0.0
O89 O 0.54514 0.27961 0.69504 0.0
O90 O 0.55345 0.29919 0.74442 0.0
C91 C 0.07724 0.32115 0.8761 0.0
O92 O 0.07722 0.32172 0.89553 0.0
O93 O 0.04066 0.29983 0.89771 0.0
Zn94 Zn 0.0406 0.32081 0.88056 0.0
O95 O 0.04481 0.34535 0.89989 0.0
C96 C 1.00258 0.30495 0.8605 0.0
O97 O 1.00508 0.28947 0.86671 0.0
O98 O 0.06256 0.3209 0.86512 0.0
C99 C 0.03174 0.35029 0.90706 0.0
O100 O 0.01604 0.33955 0.90178 0.0
C101 C 0.0299 0.29525 0.90979 0.0
O102 O 0.01682 0.30393 0.9114 0.0
O103 O 0.01563 0.31874 0.86336 0.0
C104 C 0.41466 0.14486 0.28576 0.0
O105 O 0.41149 0.1325 0.26947 0.0
O106 O 0.44599 0.11287 0.27698 0.0
Zn107 Zn 0.43301 0.11775 0.30097 0.0
O108 O 0.44887 0.11743 0.32745 0.0
C109 C 0.40372 0.08626 0.28339 0.0
O110 O 0.40893 0.08855 0.26603 0.0
O111 O 0.42417 0.14193 0.30123 0.0
C112 C 0.44785 0.10206 0.33419 0.0
O113 O 0.43697 0.08739 0.32387 0.0
C114 C 0.45064 0.09741 0.27333 0.0
O115 O 0.44725 0.08511 0.28537 0.0
O116 O 0.41157 0.09718 0.29913 0.0
C117 C 0.29845 0.12334 0.49273 0.0
O118 O 0.30335 0.14083 0.49088 0.0
O119 O 0.27141 0.15259 0.51371 0.0
Zn120 Zn 0.26543 0.13391 0.48843 0.0
O121 O 0.26836 0.14865 0.46583 0.0
C122 C 0.22854 0.13086 0.48435 0.0
O123 O 0.23353 0.14809 0.4815 0.0
O124 O 0.28207 0.11634 0.49077 0.0
C125 C 0.26062 0.14561 0.44782 0.0
O126 O 0.24961 0.12983 0.44098 0.0
C127 C 0.2814 0.16829 0.51421 0.0
O128 O 0.28808 0.17229 0.49806 0.0
O129 O 0.24018 0.12114 0.48704 0.0
C130 C 0.18274 1.00114 0.81566 0.0
O131 O 0.16557 0.99659 0.81005 0.0
O132 O 0.15814 0.03616 0.79349 0.0
Zn133 Zn 0.17407 0.04019 0.82172 0.0
O134 O 0.15785 0.03861 0.84532 0.0
C135 C 0.18515 0.07996 0.81449 0.0
O136 O 0.16965 0.07534 0.80318 0.0
O137 O 0.18956 0.01845 0.82135 0.0
C138 C 0.15209 0.05229 0.85374 0.0
O139 O 0.15645 0.06837 0.84763 0.0
C140 C 0.14285 0.04013 0.7904 0.0
O141 O 0.13589 0.04612 0.80597 0.0
O142 O 0.19027 0.06771 0.82437 0.0
C143 C 0.1886 0.92588 0.06278 0.0
O144 O 0.18693 0.91157 0.07247 0.0
O145 O 0.22495 0.9022 0.07802 0.0
Zn146 Zn 0.2213 0.91412 0.05255 0.0
O147 O 0.21922 0.8957 0.02669 0.0
C148 C 0.25459 0.94019 0.0681 0.0
O149 O 0.25068 0.93711 0.08583 0.0
O150 O 0.20152 0.92902 0.05301 0.0
C151 C 0.23317 0.88958 0.02419 0.0
O152 O 0.24682 0.8945 0.03853 0.0
C153 C 0.22483 0.88513 0.0786 0.0
O154 O 0.22085 0.87343 0.06178 0.0
O155 O 0.24385 0.9324 0.05244 0.0
C156 C 0.26829 0.49228 0.10975 0.0
O157 O 0.26341 0.4744 0.1097 0.0
O158 O 0.30279 0.4705 0.13846 0.0
Zn159 Zn 0.30148 0.48215 0.11338 0.0
O160 O 0.29268 0.46121 0.09066 0.0
C161 C 0.33801 0.50289 0.12248 0.0
O162 O 0.33557 0.50432 0.14137 0.0
O163 O 0.28465 0.4995 0.11258 0.0
C164 C 0.28474 0.46271 0.07363 0.0
O165 O 0.28189 0.47893 0.07003 0.0
C166 C 0.3102 0.45664 0.13747 0.0
O167 O 0.31724 0.45228 0.12137 0.0
O168 O 0.32541 0.49456 0.10887 0.0
C169 C 0.87528 0.18935 0.04262 0.0
O170 O 0.87836 0.20466 0.03471 0.0
O171 O 0.84409 0.21685 0.08104 0.0
Zn172 Zn 0.84265 0.20182 0.05312 0.0
O173 O 0.84113 0.21781 0.03069 0.0
C174 C 0.80502 0.18973 0.04647 0.0
O175 O 0.80584 0.20725 0.04475 0.0
O176 O 0.86168 0.18597 0.0513 0.0
C177 C 0.83565 0.20974 0.01275 0.0
O178 O 0.83255 0.19158 0.00927 0.0
C179 C 0.8397 0.23257 0.08349 0.0
O180 O 0.83597 0.24044 0.06765 0.0
O181 O 0.81929 0.1839 0.04963 0.0
C182 C 0.14825 0.46054 0.3065 0.0
O183 O 0.13262 0.45367 0.2959 0.0
O184 O 0.12363 0.49108 0.27815 0.0
Zn185 Zn 0.1372 0.49661 0.30681 0.0
O186 O 0.12173 0.49868 0.32886 0.0
C187 C 0.14958 0.53301 0.29734 0.0
O188 O 0.1342 0.52895 0.28574 0.0
O189 O 0.15268 0.4779 0.31233 0.0
C190 C 0.11347 0.51181 0.33168 0.0
O191 O 0.11403 0.52403 0.31926 0.0
C192 C 0.10736 0.49104 0.27285 0.0
O193 O 0.09708 0.49225 0.28669 0.0
O194 O 0.1538 0.52141 0.30839 0.0
C195 C 0.76796 0.99405 0.61565 0.0
O196 O 0.76283 0.97642 0.61685 0.0
O197 O 0.80129 0.97103 0.64329 0.0
Zn198 Zn 0.80025 0.9824 0.61793 0.0
O199 O 0.79023 0.96167 0.59518 0.0
C200 C 0.83763 1.00102 0.6257 0.0
O201 O 0.83577 1.00323 0.64477 0.0
O202 O 0.78438 1.00076 0.61733 0.0
C203 C 0.78218 0.96392 0.57851 0.0
O204 O 0.78 0.98053 0.57563 0.0
C205 C 0.80723 0.9562 0.64227 0.0
O206 O 0.81299 0.95036 0.62572 0.0
O207 O 0.82442 0.99324 0.61261 0.0
C208 C 0.88531 0.11304 0.28908 0.0
O209 O 0.90262 0.11759 0.29138 0.0
O210 O 0.90754 0.07146 0.26098 0.0
Zn211 Zn 0.89283 0.07324 0.28589 0.0
O212 O 0.90935 0.07696 0.3136 0.0
C213 C 0.8826 0.0324 0.28716 0.0
O214 O 0.89985 0.03464 0.28884 0.0
O215 O 0.8782 0.09566 0.28631 0.0
C216 C 0.92404 0.07168 0.31656 0.0
O217 O 0.9303 0.06456 0.30094 0.0
C218 C 0.92106 0.08297 0.25787 0.0
O219 O 0.92703 0.09797 0.27109 0.0
O220 O 0.87584 0.04668 0.28506 0.0
C221 C 0.37638 0.68866 0.54131 0.0
O222 O 0.38007 0.70452 0.53456 0.0
O223 O 0.34702 0.7183 0.57777 0.0
Zn224 Zn 0.34361 0.70101 0.55094 0.0
O225 O 0.34137 0.71587 0.52766 0.0
C226 C 0.31522 0.67848 0.56541 0.0
O227 O 0.32608 0.68379 0.58239 0.0
O228 O 0.36227 0.68482 0.549 0.0
C229 C 0.33446 0.70753 0.51017 0.0
O230 O 0.33009 0.68938 0.50734 0.0
C231 C 0.3352 0.72788 0.57977 0.0
O232 O 0.32293 0.72693 0.56435 0.0
O233 O 0.31999 0.68374 0.54943 0.0
C234 C 0.38584 0.60974 0.78838 0.0
O235 O 0.40278 0.61358 0.79548 0.0
O236 O 0.40919 0.56813 0.75844 0.0
Zn237 Zn 0.39318 0.57026 0.78206 0.0
O238 O 0.40953 0.57512 0.80981 0.0
C239 C 0.37981 0.52825 0.77543 0.0
O240 O 0.39374 0.52852 0.76627 0.0
O241 O 0.37873 0.5927 0.78148 0.0
C242 C 0.42014 0.56456 0.81433 0.0
O243 O 0.42135 0.55095 0.80062 0.0
C244 C 0.41261 0.57945 0.74591 0.0
O245 O 0.40559 0.59421 0.74705 0.0
O246 O 0.37639 0.54384 0.78241 0.0
C247 C 0.64714 0.9589 0.80809 0.0
O248 O 0.63036 0.952 0.80151 0.0
O249 O 0.6244 0.9891 0.77503 0.0
Zn250 Zn 0.63739 0.99476 0.80382 0.0
O251 O 0.62177 0.99665 0.82555 0.0
C252 C 0.64922 0.03137 0.79501 0.0
O253 O 0.6337 0.02731 0.78369 0.0
O254 O 0.65279 0.97627 0.80976 0.0
C255 C 0.61191 0.0084 0.82752 0.0
O256 O 0.61054 0.01952 0.81407 0.0
C257 C 0.60801 0.98761 0.76898 0.0
O258 O 0.597 0.98735 0.78217 0.0
O259 O 0.65378 0.01963 0.80565 0.0
C260 C 0.79497 0.60882 0.97975 0.0
O261 O 0.79898 0.62018 0.96689 0.0
O262 O 0.76981 0.64621 0.00697 0.0
Zn263 Zn 0.76531 0.62695 0.98267 0.0
O264 O 0.77017 0.64057 0.95949 0.0
C265 C 0.72895 0.62588 0.97981 0.0
O266 O 0.73504 0.64349 0.97934 0.0
O267 O 0.78101 0.60896 0.98758 0.0
C268 C 0.75943 0.63863 0.94334 0.0
O269 O 0.74501 0.6257 0.94033 0.0
C270 C 0.78489 0.65553 0.01512 0.0
O271 O 0.79904 0.65245 0.0077 0.0
O272 O 0.7397 0.61498 0.98037 0.0
C273 C 0.90934 0.64603 0.79257 0.0
O274 O 0.90153 0.62987 0.7822 0.0
O275 O 0.94701 0.61889 0.78153 0.0
Zn276 Zn 0.93444 0.62409 0.80575 0.0
O277 O 0.95011 0.62601 0.83268 0.0
C278 C 0.90978 0.58878 0.79114 0.0
O279 O 0.91711 0.58952 0.77475 0.0
O280 O 0.92393 0.64725 0.80393 0.0
C281 C 0.95812 0.61303 0.83617 0.0
O282 O 0.95736 0.59934 0.82166 0.0
C283 C 0.96354 0.6206 0.78131 0.0
O284 O 0.97453 0.62692 0.79805 0.0
O285 O 0.91471 0.60206 0.80563 0.0
C286 C 0.69328 0.42614 0.56161 0.0
O287 O 0.69081 0.41097 0.56985 0.0
O288 O 0.7294 0.40264 0.57829 0.0
Zn289 Zn 0.72699 0.41549 0.55332 0.0
O290 O 0.7255 0.39829 0.52668 0.0
C291 C 0.76408 0.43254 0.56492 0.0
O292 O 0.7642 0.41828 0.57454 0.0
O293 O 0.70708 0.43021 0.55343 0.0
C294 C 0.73705 0.38837 0.5245 0.0
O295 O 0.74892 0.38827 0.53997 0.0
C296 C 0.727 0.38536 0.5791 0.0
O297 O 0.72111 0.37356 0.56254 0.0
O298 O 0.74965 0.43436 0.55516 0.0
C299 C 0.68181 0.50281 0.31697 0.0
O300 O 0.66486 0.49862 0.31806 0.0
O301 O 0.65834 0.54035 0.29151 0.0
Zn302 Zn 0.67408 0.54234 0.31939 0.0
O303 O 0.65842 0.54074 0.34353 0.0
C304 C 0.68451 0.58247 0.31496 0.0
O305 O 0.66787 0.57861 0.30667 0.0
O306 O 0.68879 0.52002 0.31748 0.0
C307 C 0.64749 0.55118 0.34748 0.0
O308 O 0.64554 0.5638 0.33592 0.0
C309 C 0.64159 0.53566 0.28657 0.0
O310 O 0.63194 0.53015 0.3001 0.0
O311 O 0.69078 0.56946 0.32227 0.0
Nd312 Nd 0.04226 0.07668 0.05795 0.0
Nd313 Nd 0.02001 0.03697 0.04589 0.0
C314 C 0.05387 0.11202 0.07263 0.0
C315 C 0.05547 0.12856 0.06226 0.0
C316 C 0.04822 0.14361 0.06929 0.0
C317 C 0.0475 0.1582 0.05815 0.0
C318 C 0.05397 0.15806 0.03964 0.0
C319 C 0.06168 0.14319 0.03295 0.0
C320 C 0.06242 0.12865 0.04409 0.0
C321 C 0.04835 0.06471 0.0193 0.0
C322 C 1.00149 0.07083 0.0343 0.0
C323 C 1.00908 1.0016 0.03109 0.0
C324 C 1.00897 0.98478 0.04105 0.0
C325 C 0.02343 0.97589 0.04144 0.0
C326 C 0.02438 0.9614 0.05262 0.0
C327 C 1.01085 0.95526 0.06366 0.0
C328 C 0.9961 0.96372 0.06269 0.0
C329 C 0.99516 0.97826 0.05153 0.0
C330 C 0.01375 0.04888 0.08448 0.0
C331 C 0.06053 0.04276 0.07004 0.0
O332 O 0.0377 0.10333 0.0728 0.0
O333 O 0.06446 0.10065 0.06896 0.0
O334 O 0.05442 0.08096 0.0294 0.0
O335 O 0.03824 0.05523 0.02936 0.0
O336 O 0.01583 0.08212 0.04417 0.0
O337 O 1.00013 0.05267 0.03116 0.0
O338 O 0.02463 0.01106 0.02945 0.0
O339 O 0.99825 0.01231 0.03611 0.0
O340 O 1.00768 0.03266 0.07421 0.0
O341 O 0.02395 0.05846 0.07454 0.0
O342 O 0.04614 0.03145 0.06036 0.0
O343 O 0.06205 0.06093 0.07278 0.0
H344 H 0.04267 0.14385 0.08317 0.0
H345 H 0.04171 0.16952 0.06398 0.0
H346 H 0.0666 0.1424 0.01869 0.0
H347 H 0.06797 0.11722 0.03812 0.0
H348 H 0.03431 0.98049 0.03355 0.0
H349 H 0.03603 0.95541 0.0531 0.0
H350 H 0.98526 0.95917 0.07066 0.0
H351 H 0.98376 0.98465 0.0515 0.0
Nd352 Nd 0.28502 0.82961 0.31384 0.0
Nd353 Nd 0.28463 0.78878 0.28979 0.0
C354 C 0.27679 0.86112 0.3276 0.0
C355 C 0.28297 0.88049 0.32445 0.0
C356 C 0.27739 0.88654 0.30634 0.0
C357 C 0.28459 0.90422 0.30264 0.0
C358 C 0.29755 0.91631 0.31693 0.0
C359 C 0.30261 0.91053 0.33536 0.0
C360 C 0.29536 0.89284 0.3391 0.0
C361 C 0.31939 0.82515 0.30984 0.0
C362 C 0.28398 0.82361 0.26456 0.0
C363 C 0.29236 0.75736 0.27487 0.0
C364 C 0.28279 0.73807 0.27311 0.0
C365 C 0.292 0.72404 0.27681 0.0
C366 C 0.28279 0.70612 0.27741 0.0
C367 C 0.2642 0.70196 0.27436 0.0
C368 C 0.25508 0.71603 0.27026 0.0
C369 C 0.26427 0.73386 0.26966 0.0
C370 C 0.25011 0.79312 0.29286 0.0
C371 C 0.28617 0.79498 0.33921 0.0
O372 O 0.26748 0.84972 0.31209 0.0
O373 O 0.28822 0.85361 0.33788 0.0
O374 O 0.31555 0.84026 0.31816 0.0
O375 O 0.30504 0.81384 0.30336 0.0
O376 O 0.28148 0.83396 0.28085 0.0
O377 O 0.28776 0.80697 0.26481 0.0
O378 O 0.2984 0.76558 0.29326 0.0
O379 O 0.2851 0.76792 0.2637 0.0
O380 O 0.25426 0.77825 0.28441 0.0
O381 O 0.26436 0.80451 0.29989 0.0
O382 O 0.2887 0.78478 0.32284 0.0
O383 O 0.28252 0.81171 0.33921 0.0
H384 H 0.26774 0.87749 0.29476 0.0
H385 H 0.28012 0.90834 0.28845 0.0
H386 H 0.31264 0.91941 0.34666 0.0
H387 H 0.29985 0.88864 0.35324 0.0
H388 H 0.30629 0.72706 0.27969 0.0
H389 H 0.2902 0.69556 0.28044 0.0
H390 H 0.2408 0.71345 0.26821 0.0
H391 H 0.25682 0.74447 0.26703 0.0
Nd392 Nd 0.55299 0.06637 0.54733 0.0
Nd393 Nd 0.51794 0.04556 0.56011 0.0
C394 C 0.57732 0.08185 0.52762 0.0
C395 C 0.59443 0.07707 0.52518 0.0
C396 C 0.60889 0.09065 0.52309 0.0
C397 C 0.62581 0.08663 0.5243 0.0
C398 C 0.62846 0.06899 0.52772 0.0
C399 C 0.61374 0.05527 0.52897 0.0
C400 C 0.59693 0.05928 0.52774 0.0
C401 C 0.56118 0.04856 0.57998 0.0
C402 C 0.53906 0.02188 0.53288 0.0
C403 C 0.49095 0.03218 0.57763 0.0
C404 C 0.47427 0.03837 0.57881 0.0
C405 C 0.45952 0.02659 0.58329 0.0
C406 C 0.44309 0.03179 0.58172 0.0
C407 C 0.44124 0.04881 0.57556 0.0
C408 C 0.45628 0.06073 0.57167 0.0
C409 C 0.4726 0.05556 0.57327 0.0
C410 C 0.51408 0.05834 0.52377 0.0
C411 C 0.53255 0.09054 0.57661 0.0
O412 O 0.56338 0.06946 0.51874 0.0
O413 O 0.57598 0.08843 0.54606 0.0
O414 O 0.57299 0.05829 0.57161 0.0
O415 O 0.5463 0.0488 0.57085 0.0
O416 O 0.54618 0.03781 0.52763 0.0
O417 O 0.53025 0.02129 0.54835 0.0
O418 O 0.50513 0.04356 0.5874 0.0
O419 O 0.49299 0.02553 0.55952 0.0
O420 O 0.5047 0.04321 0.52748 0.0
O421 O 0.52412 0.06688 0.53942 0.0
O422 O 0.52137 0.07505 0.57775 0.0
O423 O 0.5449 0.09097 0.56485 0.0
H424 H 0.6072 0.10451 0.52133 0.0
H425 H 0.63686 0.09746 0.52313 0.0
H426 H 0.61526 0.04167 0.53204 0.0
H427 H 0.58599 0.04868 0.52978 0.0
H428 H 0.46059 0.01319 0.58742 0.0
H429 H 0.43179 0.02236 0.58496 0.0
H430 H 0.45532 0.07375 0.56648 0.0
H431 H 0.48381 0.0647 0.56941 0.0
Nd432 Nd 0.29039 0.3092 0.82334 0.0
Nd433 Nd 0.27662 0.30259 0.78305 0.0
C434 C 0.30402 0.30914 0.86103 0.0
C435 C 0.29698 0.31152 0.88002 0.0
C436 C 0.27868 0.30834 0.88011 0.0
C437 C 0.27194 0.31409 0.8974 0.0
C438 C 0.28342 0.32315 0.91485 0.0
C439 C 0.30176 0.32521 0.91504 0.0
C440 C 0.30848 0.31949 0.89771 0.0
C441 C 0.29396 0.34235 0.8075 0.0
C442 C 0.24964 0.31194 0.81499 0.0
C443 C 0.26239 0.30275 0.74558 0.0
C444 C 0.26857 0.30113 0.72606 0.0
C445 C 0.28669 0.30452 0.72481 0.0
C446 C 0.29251 0.30008 0.70652 0.0
C447 C 0.2803 0.29205 0.68925 0.0
C448 C 0.26213 0.28956 0.69045 0.0
C449 C 0.25633 0.29406 0.70873 0.0
C450 C 0.27334 0.26939 0.79864 0.0
C451 C 0.31745 0.30009 0.79146 0.0
O452 O 0.29692 0.29405 0.84853 0.0
O453 O 0.30612 0.32378 0.85216 0.0
O454 O 0.28759 0.33968 0.82393 0.0
O455 O 0.29729 0.32736 0.7993 0.0
O456 O 0.26189 0.30924 0.8288 0.0
O457 O 0.253 0.31217 0.79641 0.0
O458 O 0.26935 0.31781 0.75818 0.0
O459 O 0.26122 0.2879 0.75411 0.0
O460 O 0.27967 0.27228 0.78224 0.0
O461 O 0.26985 0.28427 0.80699 0.0
O462 O 0.30525 0.30297 0.77767 0.0
O463 O 0.31397 0.29955 0.80998 0.0
H464 H 0.26958 0.30221 0.86657 0.0
H465 H 0.25777 0.31216 0.89688 0.0
H466 H 0.31095 0.33234 0.92816 0.0
H467 H 0.32264 0.32219 0.89782 0.0
H468 H 0.29633 0.30992 0.73812 0.0
H469 H 0.30657 0.30236 0.70604 0.0
H470 H 0.25236 0.28314 0.67755 0.0
H471 H 0.24231 0.29121 0.70951 0.0
Nd472 Nd 0.02879 0.07346 0.56345 0.0
Nd473 Nd 0.03858 0.03968 0.54384 0.0
C474 C 0.0136 0.10082 0.57586 0.0
C475 C 0.01209 0.11806 0.56807 0.0
C476 C 1.01118 0.13381 0.58121 0.0
C477 C 0.01316 0.15107 0.57465 0.0
C478 C 0.01615 0.15279 0.55487 0.0
C479 C 0.01609 0.13675 0.5415 0.0
C480 C 0.01414 0.11956 0.54806 0.0
C481 C 0.06082 0.0801 0.54983 0.0
C482 C 0.01627 0.06035 0.51435 0.0
C483 C 0.05381 0.01223 0.53181 0.0
C484 C 0.05698 0.99595 0.5408 0.0
C485 C 0.05587 0.97911 0.52845 0.0
C486 C 0.05563 0.96283 0.53685 0.0
C487 C 0.0564 0.96322 0.55772 0.0
C488 C 0.05855 0.98032 0.57009 0.0
C489 C 0.05875 0.99652 0.56171 0.0
C490 C 1.00647 0.03343 0.55738 0.0
C491 C 0.05105 0.0527 0.59287 0.0
O492 O 1.00487 0.08549 0.56465 0.0
O493 O 0.0297 0.09984 0.58292 0.0
O494 O 0.05774 0.08863 0.5664 0.0
O495 O 0.04707 0.0694 0.5405 0.0
O496 O 0.01248 0.06868 0.53122 0.0
O497 O 0.02865 0.05039 0.51505 0.0
O498 O 0.0627 0.02833 0.54115 0.0
O499 O 0.03719 0.01226 0.52613 0.0
O500 O 1.00933 0.02509 0.54058 0.0
O501 O 0.02036 0.04379 0.56677 0.0
O502 O 0.05494 0.04454 0.57599 0.0
O503 O 0.03854 0.06249 0.59215 0.0
H504 H 1.00975 0.1329 0.59675 0.0
H505 H 0.01297 0.16315 0.58524 0.0
H506 H 0.01862 0.13759 0.52627 0.0
H507 H 0.01516 0.1076 0.53776 0.0
H508 H 0.05431 0.9784 0.51227 0.0
H509 H 0.05382 0.94985 0.52693 0.0
H510 H 0.05942 0.98108 0.58624 0.0
H511 H 0.0595 0.00934 0.57153 0.0
Nd512 Nd 0.30313 0.8177 0.81246 0.0
Nd513 Nd 0.26881 0.79516 0.79559 0.0
C514 C 0.33443 0.84026 0.82065 0.0
C515 C 0.35308 0.83863 0.82424 0.0
C516 C 0.36585 0.85069 0.81674 0.0
C517 C 0.38376 0.85038 0.82145 0.0
C518 C 0.38926 0.83809 0.83393 0.0
C519 C 0.37632 0.82554 0.84079 0.0
C520 C 0.35841 0.82574 0.83591 0.0
C521 C 0.28264 0.80907 0.84169 0.0
C522 C 0.30195 0.77326 0.80643 0.0
C523 C 0.23828 0.77123 0.78756 0.0
C524 C 0.21923 0.77066 0.78465 0.0
C525 C 0.20765 0.75437 0.7865 0.0
C526 C 0.18948 0.75254 0.78111 0.0
C527 C 0.18259 0.76698 0.77366 0.0
C528 C 0.19423 0.78366 0.7728 0.0
C529 C 0.21241 0.7855 0.77828 0.0
C530 C 0.28921 0.80389 0.76642 0.0
C531 C 0.26985 0.83952 0.80153 0.0
O532 O 0.32601 0.83493 0.80236 0.0
O533 O 0.32485 0.83532 0.83431 0.0
O534 O 0.29916 0.80798 0.8428 0.0
O535 O 0.27741 0.81391 0.82519 0.0
O536 O 0.31253 0.78976 0.80927 0.0
O537 O 0.28459 0.77208 0.80312 0.0
O538 O 0.24691 0.77656 0.80576 0.0
O539 O 0.24687 0.77789 0.77383 0.0
O540 O 0.27271 0.80501 0.76536 0.0
O541 O 0.29448 0.79893 0.78286 0.0
O542 O 0.25931 0.82301 0.7991 0.0
O543 O 0.28727 0.84076 0.80455 0.0
H544 H 0.362 0.86062 0.80757 0.0
H545 H 0.39331 0.85997 0.81554 0.0
H546 H 0.38 0.816 0.85057 0.0
H547 H 0.34878 0.81617 0.84176 0.0
H548 H 0.21272 0.74281 0.79146 0.0
H549 H 0.18085 0.73965 0.78232 0.0
H550 H 0.18939 0.79499 0.76699 0.0
H551 H 0.22119 0.79821 0.77679 0.0
Nd552 Nd 0.51466 0.03859 0.04258 0.0
Nd553 Nd 0.55205 0.05522 0.06318 0.0
C554 C 0.48246 0.03044 0.02196 0.0
C555 C 0.46451 0.02611 0.02702 0.0
C556 C 0.45033 0.02965 0.01436 0.0
C557 C 0.43317 0.02536 0.01891 0.0
C558 C 0.42989 0.01737 0.03619 0.0
C559 C 0.44426 0.01411 0.04899 0.0
C560 C 0.46141 0.01853 0.04449 0.0
C561 C 0.53322 0.01312 0.0554 0.0
C562 C 0.51995 0.04855 0.09069 0.0
C563 C 0.58435 0.06492 0.0836 0.0
C564 C 0.60189 0.07174 0.07845 0.0
C565 C 0.61703 0.07296 0.09239 0.0
C566 C 0.6337 0.08035 0.08789 0.0
C567 C 0.63543 0.08672 0.06942 0.0
C568 C 0.62019 0.0851 0.05534 0.0
C569 C 0.60356 0.07763 0.0598 0.0
C570 C 0.53356 0.08006 0.04893 0.0
C571 C 0.5467 0.04518 0.01511 0.0
O572 O 0.49116 0.04741 0.02797 0.0
O573 O 0.49215 0.01815 0.02476 0.0
O574 O 0.51655 0.01217 0.05643 0.0
O575 O 0.53923 0.02683 0.04732 0.0
O576 O 0.50843 0.04593 0.07415 0.0
O577 O 0.53705 0.04988 0.09006 0.0
O578 O 0.57691 0.0478 0.07617 0.0
O579 O 0.57339 0.07619 0.08225 0.0
O580 O 0.55013 0.0807 0.04759 0.0
O581 O 0.52764 0.06703 0.05801 0.0
O582 O 0.5582 0.04739 0.03163 0.0
O583 O 0.52964 0.04407 0.01577 0.0
H584 H 0.45253 0.03569 1.00092 0.0
H585 H 0.42249 0.02838 0.00891 0.0
H586 H 0.44224 0.00779 0.06228 0.0
H587 H 0.47224 0.01583 0.05456 0.0
H588 H 0.61594 0.06848 0.10686 0.0
H589 H 0.64517 0.08156 0.0991 0.0
H590 H 0.62112 0.08966 0.04088 0.0
H591 H 0.59198 0.07668 0.04881 0.0
Nd592 Nd 0.2781 0.30384 0.29241 0.0
Nd593 Nd 0.30554 0.32623 0.32611 0.0
C594 C 0.25433 0.28939 0.26092 0.0
C595 C 0.23498 0.28748 0.26007 0.0
C596 C 0.2264 0.30002 0.25095 0.0
C597 C 0.21011 0.30287 0.2559 0.0
C598 C 0.20212 0.29319 0.27005 0.0
C599 C 0.20968 0.27904 0.27717 0.0
C600 C 0.2259 0.27617 0.2722 0.0
C601 C 0.27474 0.29331 0.32951 0.0
C602 C 0.2675 0.33657 0.32221 0.0
C603 C 0.33358 0.33903 0.35367 0.0
C604 C 0.35126 0.33422 0.35497 0.0
C605 C 0.35361 0.31643 0.35792 0.0
C606 C 0.36853 0.31019 0.35262 0.0
C607 C 0.3811 0.3214 0.34369 0.0
C608 C 0.37967 0.33993 0.34314 0.0
C609 C 0.36506 0.34631 0.34899 0.0
C610 C 0.30078 0.34277 0.29255 0.0
C611 C 0.31553 0.29088 0.29806 0.0
O612 O 0.26324 0.30649 0.26327 0.0
O613 O 0.26188 0.2792 0.27235 0.0
O614 O 0.26146 0.29415 0.31642 0.0
O615 O 0.28891 0.29773 0.32264 0.0
O616 O 0.2657 0.32812 0.30355 0.0
O617 O 0.28081 0.33541 0.33581 0.0
O618 O 0.32025 0.32653 0.35656 0.0
O619 O 0.32964 0.34718 0.33825 0.0
O620 O 0.30227 0.35128 0.31069 0.0
O621 O 0.30184 0.32605 0.2924 0.0
O622 O 0.32031 0.30429 0.31355 0.0
O623 O 0.30018 0.28833 0.28638 0.0
H624 H 0.23298 0.30879 0.24137 0.0
H625 H 0.20442 0.31357 0.24977 0.0
H626 H 0.20399 0.2713 0.28812 0.0
H627 H 0.232 0.26624 0.27939 0.0
H628 H 0.34337 0.30684 0.36287 0.0
H629 H 0.3695 0.29611 0.35425 0.0
H630 H 0.38889 0.3492 0.3365 0.0
H631 H 0.36374 0.36021 0.34686 0.0
Nd632 Nd 0.52964 0.57897 0.06162 0.0
Nd633 Nd 0.5385 0.54392 0.04254 0.0
C634 C 0.51412 0.60637 0.07319 0.0
C635 C 0.50962 0.62194 0.0638 0.0
C636 C 0.50213 0.63514 0.07433 0.0
C637 C 0.49918 0.65076 0.06595 0.0
C638 C 0.50374 0.65342 0.04692 0.0
C639 C 0.51079 0.63979 0.03622 0.0
C640 C 0.51369 0.6242 0.04459 0.0
C641 C 0.56144 0.58396 0.04757 0.0
C642 C 0.51669 0.56475 0.01262 0.0
C643 C 0.55303 0.51595 0.0304 0.0
C644 C 0.5559 0.49935 0.03887 0.0
C645 C 0.55588 0.48309 0.02604 0.0
C646 C 0.55564 0.46645 0.03369 0.0
C647 C 0.55535 0.46587 0.05429 0.0
C648 C 0.55632 0.48245 0.06722 0.0
C649 C 0.55648 0.49902 0.05955 0.0
C650 C 0.50672 0.53924 0.05676 0.0
C651 C 0.5518 0.55809 0.09148 0.0
O652 O 0.50537 0.58992 0.06477 0.0
O653 O 0.53102 0.607 0.07784 0.0
O654 O 0.55877 0.59327 0.06394 0.0
O655 O 0.54742 0.57342 0.03863 0.0
O656 O 0.51355 0.57409 0.02927 0.0
O657 O 0.52848 0.5541 0.01353 0.0
O658 O 0.56222 0.53182 0.04002 0.0
O659 O 0.53648 0.51638 0.02487 0.0
O660 O 0.50916 0.53005 0.04021 0.0
O661 O 0.52087 0.54951 0.06561 0.0
O662 O 0.55464 0.54861 0.07475 0.0
O663 O 0.54031 0.56913 0.09074 0.0
H664 H 0.49889 0.63355 0.08917 0.0
H665 H 0.49353 0.66087 0.07448 0.0
H666 H 0.51471 0.64149 0.02169 0.0
H667 H 0.51958 0.61414 0.03629 0.0
H668 H 0.55524 0.48309 0.01001 0.0
H669 H 0.55471 0.45391 0.02332 0.0
H670 H 0.55638 0.48251 0.08319 0.0
H671 H 0.55633 0.5114 0.06968 0.0
Nd672 Nd 0.79954 0.31924 0.29974 0.0
Nd673 Nd 0.76579 0.29532 0.30367 0.0
C674 C 0.83099 0.33353 0.29135 0.0
C675 C 0.84861 0.3301 0.29752 0.0
C676 C 0.86328 0.33931 0.2902 0.0
C677 C 0.88024 0.33723 0.2976 0.0
C678 C 0.88271 0.32594 0.31247 0.0
C679 C 0.86781 0.31629 0.31924 0.0
C680 C 0.85093 0.31835 0.31182 0.0
C681 C 0.79091 0.32326 0.33798 0.0
C682 C 0.79923 0.27511 0.30638 0.0
C683 C 0.73461 0.28094 0.31277 0.0
C684 C 0.71659 0.28296 0.30609 0.0
C685 C 0.70251 0.27431 0.31478 0.0
C686 C 0.68516 0.27488 0.30711 0.0
C687 C 0.68169 0.28403 0.29054 0.0
C688 C 0.696 0.29318 0.28236 0.0
C689 C 0.71328 0.2927 0.29011 0.0
C690 C 0.77427 0.29127 0.26538 0.0
C691 C 0.76611 0.33948 0.29691 0.0
O692 O 0.81995 0.31998 0.27957 0.0
O693 O 0.82384 0.34099 0.30585 0.0
O694 O 0.79806 0.33673 0.32938 0.0
O695 O 0.78932 0.30792 0.32683 0.0
O696 O 0.80739 0.29026 0.30028 0.0
O697 O 0.78344 0.27458 0.31188 0.0
O698 O 0.74513 0.29552 0.32347 0.0
O699 O 0.74209 0.27289 0.29897 0.0
O700 O 0.76653 0.27791 0.27372 0.0
O701 O 0.77605 0.30662 0.27658 0.0
O702 O 0.75786 0.32427 0.30286 0.0
O703 O 0.78198 0.34006 0.29156 0.0
H704 H 0.86166 0.34842 0.27913 0.0
H705 H 0.89143 0.34466 0.2919 0.0
H706 H 0.86921 0.30773 0.3309 0.0
H707 H 0.83971 0.31124 0.31773 0.0
H708 H 0.7049 0.26679 0.32719 0.0
H709 H 0.67447 0.26792 0.31395 0.0
H710 H 0.69386 0.30011 0.26942 0.0
H711 H 0.72407 0.29943 0.28322 0.0
Nd712 Nd 0.01611 0.55724 0.5452 0.0
Nd713 Nd 0.05378 0.55912 0.56651 0.0
C714 C 0.98409 0.56208 0.53237 0.0
C715 C 0.96631 0.55563 0.53715 0.0
C716 C 0.96394 0.55095 0.55618 0.0
C717 C 0.9471 0.54361 0.56013 0.0
C718 C 0.93232 0.54061 0.54506 0.0
C719 C 0.93478 0.54559 0.5261 0.0
C720 C 0.95163 0.55304 0.5222 0.0
C721 C 0.02345 0.52365 0.55201 0.0
C722 C 0.0242 0.56407 0.59473 0.0
C723 C 0.08607 0.55477 0.57891 0.0
C724 C 0.1042 0.56404 0.57718 0.0
C725 C 0.11548 0.55387 0.56834 0.0
C726 C 0.13262 0.5625 0.56645 0.0
C727 C 0.13884 0.58144 0.57357 0.0
C728 C 0.12753 0.5916 0.58241 0.0
C729 C 0.11038 0.58302 0.58413 0.0
C730 C 0.04647 0.59277 0.55935 0.0
C731 C 0.04516 0.55127 0.51716 0.0
O732 O 0.9952 0.57368 0.54634 0.0
O733 O 0.99125 0.54929 0.52364 0.0
O734 O 0.01276 0.52581 0.53673 0.0
O735 O 0.02851 0.53851 0.56402 0.0
O736 O 0.01454 0.56692 0.57843 0.0
O737 O 0.03883 0.55762 0.59363 0.0
O738 O 0.07641 0.54543 0.56241 0.0
O739 O 0.07717 0.56413 0.58998 0.0
O740 O 0.05741 0.59072 0.57447 0.0
O741 O 0.04146 0.57773 0.54768 0.0
O742 O 0.05417 0.54748 0.53341 0.0
O743 O 0.03131 0.55902 0.5184 0.0
H744 H 0.97515 0.5527 0.56788 0.0
H745 H 0.94567 0.54017 0.57497 0.0
H746 H 0.92376 0.54322 0.51405 0.0
H747 H 0.95325 0.55641 0.50737 0.0
H748 H 0.11102 0.53922 0.56288 0.0
H749 H 0.1411 0.55432 0.5597 0.0
H750 H 0.1319 0.60626 0.5878 0.0
H751 H 0.10197 0.59132 0.59086 0.0
Nd752 Nd 0.79095 0.80843 0.32204 0.0
Nd753 Nd 0.77679 0.80729 0.28309 0.0
C754 C 0.79643 0.80597 0.36079 0.0
C755 C 0.7897 0.81447 0.37809 0.0
C756 C 0.78928 0.80618 0.3955 0.0
C757 C 0.78275 0.81431 0.41193 0.0
C758 C 0.7766 0.83088 0.41117 0.0
C759 C 0.7768 0.8389 0.39346 0.0
C760 C 0.78317 0.8307 0.37704 0.0
C761 C 0.80134 0.84273 0.30962 0.0
C762 C 0.75069 0.8168 0.31322 0.0
C763 C 0.77028 0.8103 0.24447 0.0
C764 C 0.77518 0.80221 0.22575 0.0
C765 C 0.76722 0.80575 0.2074 0.0
C766 C 0.77072 0.79695 0.18939 0.0
C767 C 0.78224 0.78448 0.18951 0.0
C768 C 0.79069 0.7815 0.20801 0.0
C769 C 0.78713 0.79027 0.22601 0.0
C770 C 0.76629 0.77299 0.29555 0.0
C771 C 0.81728 0.79938 0.29203 0.0
O772 O 0.78471 0.79408 0.34786 0.0
O773 O 0.80693 0.81725 0.35218 0.0
O774 O 0.81171 0.83405 0.31932 0.0
O775 O 0.78567 0.83317 0.30628 0.0
O776 O 0.76201 0.81083 0.32562 0.0
O777 O 0.75468 0.81965 0.29546 0.0
O778 O 0.783 0.82129 0.25706 0.0
O779 O 0.7601 0.79893 0.2533 0.0
O780 O 0.75602 0.78168 0.28572 0.0
O781 O 0.78198 0.78252 0.29889 0.0
O782 O 0.80579 0.80511 0.27957 0.0
O783 O 0.81339 0.79654 0.30985 0.0
H784 H 0.79403 0.79348 0.3964 0.0
H785 H 0.78254 0.80761 0.42521 0.0
H786 H 0.77246 0.8518 0.3924 0.0
H787 H 0.7832 0.83717 0.36358 0.0
H788 H 0.75799 0.81499 0.207 0.0
H789 H 0.76418 0.79965 0.17535 0.0
H790 H 0.79945 0.7718 0.20858 0.0
H791 H 0.79333 0.78736 0.24011 0.0
Nd792 Nd 0.78593 0.32977 0.81475 0.0
Nd793 Nd 0.78462 0.28865 0.7914 0.0
C794 C 0.77908 0.36199 0.82855 0.0
C795 C 0.7875 0.38072 0.82583 0.0
C796 C 0.78221 0.39637 0.8348 0.0
C797 C 0.79027 0.41407 0.83173 0.0
C798 C 0.80372 0.41633 0.81959 0.0
C799 C 0.80898 0.40051 0.81078 0.0
C800 C 0.80093 0.38291 0.81382 0.0
C801 C 0.82009 0.32457 0.8107 0.0
C802 C 0.78393 0.32293 0.76539 0.0
C803 C 0.79183 0.25699 0.77634 0.0
C804 C 0.78209 0.23776 0.77431 0.0
C805 C 0.79118 0.2235 0.77728 0.0
C806 C 0.78185 0.20554 0.77747 0.0
C807 C 0.76327 0.20159 0.77472 0.0
C808 C 0.75426 0.2159 0.77137 0.0
C809 C 0.76356 0.23377 0.77118 0.0
C810 C 0.75035 0.29331 0.7953 0.0
C811 C 0.78693 0.29563 0.84079 0.0
O812 O 0.77026 0.35154 0.81216 0.0
O813 O 0.78906 0.3533 0.83928 0.0
O814 O 0.81648 0.33984 0.81888 0.0
O815 O 0.80561 0.31342 0.80439 0.0
O816 O 0.78186 0.33363 0.78162 0.0
O817 O 0.7874 0.3062 0.76586 0.0
O818 O 0.7978 0.26502 0.79481 0.0
O819 O 0.78479 0.26774 0.76526 0.0
O820 O 0.75428 0.27817 0.78727 0.0
O821 O 0.76464 0.30489 0.80161 0.0
O822 O 0.78954 0.28528 0.82457 0.0
O823 O 0.78307 0.31223 0.84043 0.0
H824 H 0.77181 0.3949 0.84405 0.0
H825 H 0.78581 0.42595 0.8386 0.0
H826 H 0.81949 0.40171 0.80166 0.0
H827 H 0.80518 0.37097 0.80676 0.0
H828 H 0.80548 0.22634 0.77989 0.0
H829 H 0.78917 0.19479 0.77993 0.0
H830 H 0.73999 0.21347 0.76956 0.0
H831 H 0.75623 0.24457 0.76909 0.0
Nd832 Nd 0.77293 0.80354 0.79647 0.0
Nd833 Nd 0.8021 0.82354 0.82993 0.0
C834 C 0.74727 0.79219 0.76627 0.0
C835 C 0.72841 0.79238 0.76737 0.0
C836 C 0.72043 0.80547 0.75848 0.0
C837 C 0.70469 0.80952 0.76404 0.0
C838 C 0.69654 0.8005 0.77854 0.0
C839 C 0.70378 0.78635 0.78615 0.0
C840 C 0.71949 0.78233 0.78064 0.0
C841 C 0.77095 0.79098 0.83279 0.0
C842 C 0.76468 0.83551 0.82901 0.0
C843 C 0.8298 0.83186 0.85831 0.0
C844 C 0.84559 0.82361 0.86007 0.0
C845 C 0.84405 0.80461 0.85365 0.0
C846 C 0.85864 0.79781 0.84832 0.0
C847 C 0.87492 0.80995 0.84905 0.0
C848 C 0.8769 0.82848 0.85793 0.0
C849 C 0.86232 0.83527 0.86334 0.0
C850 C 0.79658 0.84282 0.79875 0.0
C851 C 0.81041 0.79056 0.79698 0.0
O852 O 0.75761 0.8086 0.76868 0.0
O853 O 0.75425 0.78062 0.77625 0.0
O854 O 0.75735 0.79294 0.82087 0.0
O855 O 0.78475 0.79536 0.82518 0.0
O856 O 0.76179 0.82772 0.81008 0.0
O857 O 0.77849 0.83374 0.8415 0.0
O858 O 0.81482 0.82147 0.86051 0.0
O859 O 0.82826 0.84071 0.84291 0.0
O860 O 0.79974 0.85035 0.81747 0.0
O861 O 0.79682 0.82579 0.79691 0.0
O862 O 0.81636 0.80366 0.81261 0.0
O863 O 0.79402 0.7876 0.7876 0.0
H864 H 0.72699 0.81346 0.74825 0.0
H865 H 0.69931 0.82027 0.75762 0.0
H866 H 0.69801 0.77921 0.79747 0.0
H867 H 0.72523 0.77222 0.78792 0.0
H868 H 0.83128 0.7953 0.85089 0.0
H869 H 0.85663 0.78346 0.84162 0.0
H870 H 0.88939 0.83808 0.85913 0.0
H871 H 0.8638 0.84996 0.86828 0.0
Nd872 Nd 0.54377 0.57314 0.55271 0.0
Nd873 Nd 0.52211 0.53827 0.54792 0.0
C874 C 0.56369 0.60693 0.55945 0.0
C875 C 0.56329 0.62269 0.54811 0.0
C876 C 0.56549 0.64077 0.55824 0.0
C877 C 0.56408 0.6555 0.54748 0.0
C878 C 0.56043 0.65245 0.52633 0.0
C879 C 0.55833 0.6343 0.51629 0.0
C880 C 0.55973 0.61964 0.52702 0.0
C881 C 0.54206 0.55582 0.51343 0.0
C882 C 0.50366 0.57146 0.53443 0.0
C883 C 0.50233 0.50444 0.54166 0.0
C884 C 0.50278 0.48919 0.55379 0.0
C885 C 0.50246 0.47114 0.54457 0.0
C886 C 0.5045 0.45711 0.55621 0.0
C887 C 0.50702 0.4609 0.57735 0.0
C888 C 0.50695 0.47891 0.58647 0.0
C889 C 0.50489 0.49285 0.57488 0.0
C890 C 0.5236 0.55589 0.58708 0.0
C891 C 0.56221 0.5399 0.56612 0.0
O892 O 0.55016 0.60218 0.56862 0.0
O893 O 0.56847 0.59258 0.55038 0.0
O894 O 0.53888 0.57208 0.5184 0.0
O895 O 0.5437 0.54813 0.52907 0.0
O896 O 0.51798 0.58231 0.5446 0.0
O897 O 0.50274 0.55342 0.53081 0.0
O898 O 0.51602 0.509 0.53269 0.0
O899 O 0.4972 0.51894 0.54989 0.0
O900 O 0.52671 0.53956 0.58235 0.0
O901 O 0.52207 0.56337 0.5713 0.0
O902 O 0.54784 0.52906 0.55609 0.0
O903 O 0.56322 0.55794 0.56963 0.0
H904 H 0.56814 0.64346 0.5745 0.0
H905 H 0.56593 0.66931 0.55573 0.0
H906 H 0.55521 0.63131 0.50008 0.0
H907 H 0.55779 0.60585 0.51874 0.0
H908 H 0.50102 0.46799 0.52836 0.0
H909 H 0.50461 0.44344 0.54867 0.0
H910 H 0.50853 0.48229 0.60266 0.0
H911 H 0.50522 0.50659 0.58252 0.0
Nd912 Nd 0.05332 0.5677 0.04911 0.0
Nd913 Nd 0.01649 0.54782 0.06406 0.0
C914 C 0.07766 0.5835 0.02964 0.0
C915 C 0.09486 0.57893 0.02719 0.0
C916 C 0.10924 0.59265 0.0252 0.0
C917 C 0.12615 0.58866 0.02592 0.0
C918 C 0.12885 0.57089 0.02868 0.0
C919 C 0.11422 0.55708 0.02996 0.0
C920 C 0.09743 0.56107 0.02927 0.0
C921 C 0.05995 0.55134 0.0833 0.0
C922 C 0.03708 0.52317 0.03428 0.0
C923 C 0.99119 0.53113 0.08169 0.0
C924 C 0.97187 0.52821 0.07596 0.0
C925 C 0.96183 0.53694 0.08848 0.0
C926 C 0.94452 0.53806 0.08126 0.0
C927 C 0.93699 0.53042 0.0614 0.0
C928 C 0.94653 0.52036 0.04951 0.0
C929 C 0.9638 0.51929 0.05667 0.0
C930 C 1.0099 0.56379 0.02964 0.0
C931 C 0.03362 0.59166 0.07976 0.0
O932 O 0.06385 0.57099 0.02067 0.0
O933 O 0.0762 0.59 0.04809 0.0
O934 O 0.07231 0.55968 0.07444 0.0
O935 O 0.04538 0.55208 0.07365 0.0
O936 O 0.04772 0.53837 0.03126 0.0
O937 O 0.02565 0.52323 0.04728 0.0
O938 O 0.99924 0.5484 0.08765 0.0
O939 O 0.99968 0.52207 0.06965 0.0
O940 O 0.99747 0.55546 0.03837 0.0
O941 O 0.02438 0.56321 0.03952 0.0
O942 O 0.02501 0.576 0.08439 0.0
O943 O 0.04312 0.59206 0.06481 0.0
H944 H 0.10749 0.60656 0.0238 0.0
H945 H 0.13715 0.59956 0.02479 0.0
H946 H 0.11582 0.54338 0.03256 0.0
H947 H 0.08656 0.55035 0.03122 0.0
H948 H 0.96777 0.54394 0.10338 0.0
H949 H 0.93751 0.54595 0.09077 0.0
H950 H 0.94093 0.51403 0.03427 0.0
H951 H 0.97111 0.51239 0.04661 0.0
C952 C 0.01987 0.27495 0.9349 0.0
C953 C 0.0324 0.28073 0.92252 0.0
C954 C 0.0224 0.26177 0.94743 0.0
C955 C 0.0481 0.22514 0.95588 0.0
H956 H 0.03395 0.23103 0.00872 0.0
C957 C 0.06537 0.17931 0.01569 0.0
C958 C 0.05211 0.17291 0.02698 0.0
C959 C 0.06326 0.19261 0.00315 0.0
C960 C 0.03783 0.22905 0.99395 0.0
H961 H 0.05743 0.27699 0.91364 0.0
H962 H 0.06198 0.25421 0.93569 0.0
H963 H 0.02975 0.25362 0.98644 0.0
H964 H 0.02612 0.17563 0.03365 0.0
H965 H 0.02255 0.1989 0.01203 0.0
H966 H 0.05629 0.2006 0.96351 0.0
C967 C 0.05003 0.25967 0.9355 0.0
C968 C 0.03538 0.24203 0.9811 0.0
C969 C 0.04746 0.27282 0.92289 0.0
C970 C 0.03678 0.18041 0.02553 0.0
C971 C 0.0347 0.19376 0.01305 0.0
C972 C 0.05061 0.2122 0.96877 0.0
C973 C 0.03758 0.25402 0.94805 0.0
C974 C 0.04041 0.24023 0.96183 0.0
C975 C 0.04786 0.19997 1.00159 0.0
C976 C 0.04545 0.21394 0.98796 0.0
H977 H 1.00806 0.28064 0.93496 0.0
H978 H 0.01234 0.25756 0.95655 0.0
H979 H 0.05191 0.22309 0.94108 0.0
H980 H 0.07749 0.17412 0.01662 0.0
H981 H 0.0738 0.19727 0.99482 0.0
C982 C 0.09312 0.78297 0.23741 0.0
C983 C 0.08334 0.79571 0.24489 0.0
C984 C 0.11107 0.78472 0.24457 0.0
C985 C 0.14833 0.80801 0.28557 0.0
H986 H 0.17604 0.79224 0.24553 0.0
C987 C 0.2265 0.81251 0.29832 0.0
C988 C 0.23143 0.79601 0.29076 0.0
C989 C 0.20871 0.81456 0.29453 0.0
C990 C 0.16855 0.79669 0.25698 0.0
H991 H 0.08506 0.82015 0.26654 0.0
H992 H 0.11675 0.82346 0.27896 0.0
H993 H 0.14503 0.79212 0.23571 0.0
H994 H 0.2212 0.76864 0.27374 0.0
H995 H 0.1909 0.7723 0.26704 0.0
H996 H 0.17236 0.81275 0.30675 0.0
C997 C 0.11032 0.81192 0.26753 0.0
C998 C 0.15059 0.7965 0.25137 0.0
C999 C 0.0921 0.81004 0.26041 0.0
C1000 C 0.21808 0.78162 0.27976 0.0
C1001 C 0.20058 0.78373 0.2758 0.0
C1002 C 0.16651 0.80839 0.29118 0.0
C1003 C 0.12022 0.79946 0.25938 0.0
C1004 C 0.13994 0.80162 0.26559 0.0
C1005 C 0.19557 0.80026 0.28282 0.0
C1006 C 0.17678 0.80227 0.27701 0.0
H1007 H 0.08691 0.77154 0.22572 0.0
H1008 H 0.11779 0.77437 0.2383 0.0
H1009 H 0.14074 0.81211 0.29704 0.0
H1010 H 0.23636 0.82386 0.30689 0.0
H1011 H 0.20535 0.8275 0.30021 0.0
C1012 C 0.55259 0.89421 0.40663 0.0
C1013 C 0.5474 0.87603 0.41054 0.0
C1014 C 0.55182 0.90936 0.42069 0.0
C1015 C 0.54809 0.92352 0.47447 0.0
H1016 H 0.53382 0.96568 0.4539 0.0
C1017 C 0.53363 0.98696 0.52517 0.0
C1018 C 0.54044 1.00447 0.5203 0.0
C1019 C 0.53444 0.97074 0.51259 0.0
C1020 C 0.53796 0.95409 0.45992 0.0
H1021 H 0.53756 0.85961 0.43256 0.0
H1022 H 0.53592 0.88603 0.45695 0.0
H1023 H 0.53531 0.93863 0.43062 0.0
H1024 H 0.55374 0.0185 0.49847 0.0
H1025 H 0.55505 0.99046 0.47677 0.0
H1026 H 0.5505 0.93912 0.50386 0.0
C1027 C 0.54084 0.88861 0.44311 0.0
C1028 C 0.53888 0.93855 0.44654 0.0
C1029 C 0.54171 0.87341 0.42906 0.0
C1030 C 0.54827 1.00532 0.50274 0.0
C1031 C 0.54894 0.9892 0.49016 0.0
C1032 C 0.54704 0.93909 0.4879 0.0
C1033 C 0.54571 0.90681 0.43903 0.0
C1034 C 0.54418 0.92311 0.45356 0.0
C1035 C 0.54191 0.9717 0.49478 0.0
C1036 C 0.54218 0.95466 0.48076 0.0
H1037 H 0.55717 0.89679 0.39261 0.0
H1038 H 0.55608 0.92313 0.41713 0.0
H1039 H 0.55236 0.91201 0.48048 0.0
H1040 H 0.52753 0.98576 0.53857 0.0
H1041 H 0.52884 0.95747 0.51656 0.0
C1042 C 0.47235 0.29453 0.76135 0.0
C1043 C 0.47394 0.29363 0.7408 0.0
C1044 C 0.45595 0.29531 0.76804 0.0
C1045 C 0.41185 0.30678 0.75165 0.0
H1046 H 0.39558 0.27919 0.79291 0.0
C1047 C 0.33913 0.2988 0.7666 0.0
C1048 C 0.33542 0.29845 0.78637 0.0
C1049 C 0.35612 0.29816 0.76191 0.0
C1050 C 0.39992 0.2872 0.78151 0.0
H1051 H 0.45911 0.29276 0.71132 0.0
H1052 H 0.43112 0.29406 0.72279 0.0
H1053 H 0.42493 0.27869 0.78386 0.0
H1054 H 0.34708 0.29701 0.81666 0.0
H1055 H 0.37664 0.29613 0.80859 0.0
H1056 H 0.38706 0.31543 0.74927 0.0
C1057 C 0.44244 0.2944 0.73391 0.0
C1058 C 0.41687 0.2869 0.77631 0.0
C1059 C 0.45864 0.29352 0.72727 0.0
C1060 C 0.3493 0.29722 0.80124 0.0
C1061 C 0.36634 0.29663 0.79656 0.0
C1062 C 0.39499 0.30713 0.75687 0.0
C1063 C 0.44072 0.29539 0.75439 0.0
C1064 C 0.42306 0.29651 0.76108 0.0
C1065 C 0.37015 0.29725 0.77681 0.0
C1066 C 0.38856 0.29718 0.77174 0.0
H1067 H 0.48374 0.29462 0.77226 0.0
H1068 H 0.45528 0.29614 0.78395 0.0
H1069 H 0.41613 0.31474 0.74018 0.0
H1070 H 0.32888 0.29966 0.75465 0.0
H1071 H 0.3582 0.29828 0.74644 0.0
C1072 C 0.99816 0.8251 0.62627 0.0
C1073 C 1.00556 0.80944 0.62243 0.0
C1074 C 1.00496 0.84153 0.61944 0.0
C1075 C 0.0301 0.86045 0.58192 0.0
H1076 H 0.03909 0.90615 0.61927 0.0
C1077 C 0.06075 0.93081 0.55996 0.0
C1078 C 0.05312 0.94577 0.56638 0.0
C1079 C 0.05662 0.91407 0.56741 0.0
C1080 C 0.03651 0.89354 0.60859 0.0
H1081 H 0.0256 0.79855 0.60797 0.0
H1082 H 0.03732 0.82723 0.59584 0.0
H1083 H 0.02787 0.87695 0.63049 0.0
H1084 H 0.03499 0.95483 0.58539 0.0
H1085 H 0.02768 0.92578 0.59816 0.0
H1086 H 0.03827 0.87705 0.55984 0.0
C1087 C 0.02631 0.82678 0.6042 0.0
C1088 C 0.0301 0.87683 0.61504 0.0
C1089 C 0.01964 0.8104 0.61122 0.0
C1090 C 0.04141 0.94371 0.58048 0.0
C1091 C 0.03722 0.92702 0.58782 0.0
C1092 C 0.03638 0.87721 0.57539 0.0
C1093 C 0.01917 0.84256 0.60846 0.0
C1094 C 0.02663 0.86015 0.60171 0.0
C1095 C 0.04469 0.91195 0.58133 0.0
C1096 C 0.03943 0.89398 0.58859 0.0
H1097 H 0.98731 0.8248 0.63486 0.0
H1098 H 0.99907 0.85344 0.62271 0.0
H1099 H 0.02746 0.84778 0.57132 0.0
H1100 H 0.0699 0.93206 0.54918 0.0
H1101 H 0.06276 0.9028 0.56227 0.0
C1102 C 0.53644 0.85315 0.9293 0.0
C1103 C 0.54174 0.87222 0.93612 0.0
C1104 C 0.52207 0.84638 0.91396 0.0
C1105 C 0.49312 0.86069 0.87365 0.0
H1106 H 0.45596 0.82405 0.88727 0.0
C1107 C 0.42002 0.8565 0.8457 0.0
C1108 C 0.40838 0.8392 0.84087 0.0
C1109 C 0.43768 0.85784 0.85359 0.0
C1110 C 0.46631 0.834 0.88298 0.0
H1111 H 0.5369 0.89922 0.93121 0.0
H1112 H 0.51217 0.88755 0.90457 0.0
H1113 H 0.4852 0.831 0.90746 0.0
H1114 H 0.40652 0.80964 0.83998 0.0
H1115 H 0.4374 0.81206 0.85414 0.0
H1116 H 0.47408 0.86424 0.84968 0.0
C1117 C 0.51896 0.87773 0.91104 0.0
C1118 C 0.48307 0.83796 0.89454 0.0
C1119 C 0.53308 0.88442 0.92647 0.0
C1120 C 0.41502 0.82322 0.84379 0.0
C1121 C 0.43272 0.82458 0.85185 0.0
C1122 C 0.4764 0.85673 0.86211 0.0
C1123 C 0.51299 0.85862 0.90492 0.0
C1124 C 0.49647 0.85182 0.89041 0.0
C1125 C 0.4442 0.84194 0.85699 0.0
C1126 C 0.46263 0.84381 0.86706 0.0
H1127 H 0.54288 0.84343 0.93629 0.0
H1128 H 0.51785 0.83157 0.90944 0.0
H1129 H 0.50328 0.87121 0.86989 0.0
H1130 H 0.41536 0.86915 0.8441 0.0
H1131 H 0.44607 0.87147 0.85776 0.0
C1132 C 0.47167 0.21883 0.07835 0.0
C1133 C 0.47525 0.2228 0.09945 0.0
C1134 C 0.47604 0.20311 0.06822 0.0
C1135 C 0.50883 0.17522 0.07358 0.0
H1136 H 0.47678 0.13462 0.03834 0.0
C1137 C 0.50748 0.09485 0.05078 0.0
C1138 C 0.52474 0.0957 0.04642 0.0
C1139 C 0.50009 0.11059 0.05164 0.0
C1140 C 0.48589 0.14598 0.04797 0.0
H1141 H 0.48538 0.21285 0.12643 0.0
H1142 H 0.49319 0.18579 0.10874 0.0
H1143 H 0.46583 0.16193 0.05159 0.0
H1144 H 0.5473 0.11319 0.03801 0.0
H1145 H 0.53444 0.1408 0.0397 0.0
H1146 H 0.52876 0.15932 0.07064 0.0
C1147 C 0.48706 0.19484 0.10009 0.0
C1148 C 0.47965 0.16155 0.05545 0.0
C1149 C 0.4825 0.21031 0.11019 0.0
C1150 C 0.53403 0.1122 0.04158 0.0
C1151 C 0.52668 0.12799 0.04257 0.0
C1152 C 0.5151 0.15986 0.06592 0.0
C1153 C 0.48425 0.19134 0.07905 0.0
C1154 C 0.49099 0.17602 0.06878 0.0
C1155 C 0.50988 0.12749 0.04827 0.0
C1156 C 0.50362 0.14486 0.05346 0.0
H1157 H 0.46606 0.22816 0.06965 0.0
H1158 H 0.47373 0.20059 0.05195 0.0
H1159 H 0.51783 0.1863 0.08376 0.0
H1160 H 0.5 0.08226 0.05451 0.0
H1161 H 0.48718 0.10981 0.05622 0.0
C1162 C 0.11434 0.34237 0.39635 0.0
C1163 C 0.12306 0.33967 0.41484 0.0
C1164 C 0.12169 0.33947 0.37877 0.0
C1165 C 0.1631 0.3364 0.35934 0.0
H1166 H 0.13307 0.30398 0.31399 0.0
C1167 C 0.17511 0.2875 0.28714 0.0
C1168 C 0.18813 0.29989 0.2802 0.0
C1169 C 0.1649 0.29399 0.30092 0.0
C1170 C 0.14155 0.31314 0.32649 0.0
H1171 H 0.14667 0.33251 0.42946 0.0
H1172 H 0.15964 0.32769 0.39871 0.0
H1173 H 0.12068 0.31282 0.34433 0.0
H1174 H 0.19938 0.32897 0.28093 0.0
H1175 H 0.18137 0.3402 0.30468 0.0
H1176 H 0.18406 0.33634 0.34175 0.0
C1177 C 0.14707 0.33199 0.39788 0.0
C1178 C 0.13447 0.31828 0.34379 0.0
C1179 C 0.13962 0.33468 0.41547 0.0
C1180 C 0.18953 0.31899 0.28595 0.0
C1181 C 0.17938 0.32546 0.29975 0.0
C1182 C 0.17012 0.33143 0.34198 0.0
C1183 C 0.13802 0.33403 0.37932 0.0
C1184 C 0.14525 0.32973 0.36048 0.0
C1185 C 0.16753 0.31299 0.30801 0.0
C1186 C 0.15947 0.31957 0.32549 0.0
H1187 H 0.10157 0.34623 0.39532 0.0
H1188 H 0.11453 0.34133 0.3647 0.0
H1189 H 0.17167 0.34532 0.37194 0.0
H1190 H 0.17347 0.27271 0.28275 0.0
H1191 H 0.15578 0.28406 0.30698 0.0
C1192 C 0.94371 0.09406 0.23578 0.0
C1193 C 0.93042 0.07987 0.23977 0.0
C1194 C 0.95291 0.09158 0.21933 0.0
C1195 C 0.95192 0.05978 0.1706 0.0
H1196 H 0.99992 0.087 0.17369 0.0
C1197 C 0.99594 0.0406 0.11159 0.0
C1198 C 1.00681 0.0545 0.10373 0.0
C1199 C 0.98729 0.04469 0.12804 0.0
C1200 C 0.98646 0.07941 0.1724 0.0
H1201 H 0.91669 0.05167 0.22897 0.0
H1202 H 0.9329 0.0471 0.20068 0.0
H1203 H 0.98386 0.09134 0.20206 0.0
H1204 H 0.01727 0.08398 0.108 0.0
H1205 H 1.00235 0.09121 0.13731 0.0
H1206 H 0.95473 0.04755 0.14113 0.0
C1207 C 0.93604 0.06047 0.21007 0.0
C1208 C 0.97709 0.08191 0.18881 0.0
C1209 C 0.92669 0.06302 0.22651 0.0
C1210 C 1.00915 0.07282 0.11356 0.0
C1211 C 1.00051 0.07695 0.13039 0.0
C1212 C 0.96133 0.05716 0.15434 0.0
C1213 C 0.94942 0.07471 0.20608 0.0
C1214 C 0.95958 0.07209 0.18835 0.0
C1215 C 0.98911 0.06293 0.13767 0.0
C1216 C 0.97885 0.06681 0.1549 0.0
H1217 H 0.94704 0.10732 0.24541 0.0
H1218 H 0.96267 0.10316 0.21694 0.0
H1219 H 0.93845 0.05219 0.16904 0.0
H1220 H 0.99375 0.02627 0.10474 0.0
H1221 H 0.97908 0.03336 0.13323 0.0
C1222 C 0.32305 0.7084 0.47418 0.0
C1223 C 0.33003 0.71795 0.49353 0.0
C1224 C 0.31771 0.71784 0.45868 0.0
C1225 C 0.32197 0.76435 0.44279 0.0
H1226 H 0.27995 0.74018 0.40545 0.0
C1227 C 0.29271 0.79875 0.3771 0.0
C1228 C 0.28844 0.78727 0.35836 0.0
C1229 C 0.29673 0.79134 0.39478 0.0
C1230 C 0.29175 0.74711 0.41568 0.0
H1231 H 0.33714 0.74511 0.51159 0.0
H1232 H 0.32765 0.76161 0.48454 0.0
H1233 H 0.28951 0.72546 0.43377 0.0
H1234 H 0.28446 0.75888 0.34371 0.0
H1235 H 0.29124 0.74609 0.37428 0.0
H1236 H 0.32416 0.78599 0.42448 0.0
C1237 C 0.32646 0.74678 0.48131 0.0
C1238 C 0.2973 0.73862 0.43192 0.0
C1239 C 0.33187 0.73731 0.49686 0.0
C1240 C 0.28771 0.76818 0.35783 0.0
C1241 C 0.29151 0.76079 0.37543 0.0
C1242 C 0.31636 0.7729 0.42653 0.0
C1243 C 0.31909 0.73713 0.46205 0.0
C1244 C 0.31267 0.74693 0.44551 0.0
C1245 C 0.29631 0.77227 0.39412 0.0
C1246 C 0.30135 0.76421 0.41256 0.0
H1247 H 0.32155 0.69352 0.47097 0.0
H1248 H 0.31251 0.70995 0.44398 0.0
H1249 H 0.33392 0.77113 0.45283 0.0
H1250 H 0.2935 0.81352 0.37804 0.0
H1251 H 0.30024 0.80055 0.40895 0.0
C1252 C 0.61441 0.99331 0.73467 0.0
C1253 C 0.60203 0.98961 0.74783 0.0
C1254 C 0.60928 0.99777 0.7157 0.0
C1255 C 0.57108 0.99635 0.67682 0.0
H1256 H 0.60129 0.03912 0.66316 0.0
C1257 C 0.55135 0.03228 0.60825 0.0
C1258 C 0.56492 0.03979 0.59801 0.0
C1259 C 0.55531 0.02499 0.62599 0.0
C1260 C 0.59281 0.02697 0.6665 0.0
H1261 H 0.57432 0.98683 0.75083 0.0
H1262 H 0.56535 0.9945 0.71759 0.0
H1263 H 0.60919 0.02789 0.69445 0.0
H1264 H 0.59316 0.04496 0.59781 0.0
H1265 H 0.60004 0.03185 0.62821 0.0
H1266 H 0.55475 0.99538 0.64872 0.0
C1267 C 0.57905 0.99396 0.72203 0.0
C1268 C 0.59735 0.02054 0.68452 0.0
C1269 C 0.58421 0.98961 0.74111 0.0
C1270 C 0.58243 0.03942 0.60549 0.0
C1271 C 0.58637 0.03201 0.62305 0.0
C1272 C 0.56658 1.00271 0.65864 0.0
C1273 C 0.59161 0.99855 0.7093 0.0
C1274 C 0.58661 1.00512 0.68991 0.0
C1275 C 0.57292 0.02496 0.63377 0.0
C1276 C 0.57744 0.01809 0.65318 0.0
H1277 H 0.62823 0.9934 0.73926 0.0
H1278 H 0.61924 1.00092 0.70613 0.0
H1279 H 0.56256 0.98437 0.68048 0.0
H1280 H 0.53773 0.0324 0.6028 0.0
H1281 H 0.54459 0.01983 0.63387 0.0
C1282 C 0.285 0.42989 0.06072 0.0
C1283 C 0.27925 0.44633 0.05793 0.0
C1284 C 0.28067 0.41465 0.04556 0.0
C1285 C 0.26836 0.40336 0.9908 0.0
H1286 H 0.26278 0.35294 1.00214 0.0
C1287 C 0.26386 0.34336 0.92797 0.0
C1288 C 0.27654 0.33255 0.93181 0.0
C1289 C 0.25962 0.35496 0.9436 0.0
C1290 C 0.26424 0.36695 0.99877 0.0
H1291 H 0.26377 0.45942 0.03743 0.0
H1292 H 0.25589 0.43264 0.01103 0.0
H1293 H 0.26356 0.37814 0.02919 0.0
H1294 H 0.29369 0.32431 0.95515 0.0
H1295 H 0.28638 0.34473 0.9825 0.0
H1296 H 0.26939 0.39225 0.96051 0.0
C1297 C 0.26409 0.43168 0.02479 0.0
C1298 C 0.26476 0.38138 0.01423 0.0
C1299 C 0.26857 0.44701 0.03992 0.0
C1300 C 0.284 0.33263 0.95175 0.0
C1301 C 0.2797 0.34419 0.96741 0.0
C1302 C 0.26769 0.38893 0.97534 0.0
C1303 C 0.27034 0.41542 0.0273 0.0
C1304 C 0.2673 0.39982 0.01052 0.0
C1305 C 0.26794 0.35594 0.96337 0.0
C1306 C 0.26605 0.37065 0.97926 0.0
H1307 H 0.29326 0.42891 0.07444 0.0
H1308 H 0.28597 0.4025 0.04792 0.0
H1309 H 0.27062 0.41738 0.98742 0.0
H1310 H 0.25798 0.34373 0.91275 0.0
H1311 H 0.25039 0.36375 0.94011 0.0
C1312 C 0.94873 0.06447 0.34004 0.0
C1313 C 0.93349 0.07206 0.33735 0.0
C1314 C 0.95727 0.06375 0.3593 0.0
C1315 C 0.96227 0.08374 0.41347 0.0
H1316 H 0.98023 0.03965 0.42178 0.0
C1317 C 0.9927 0.07196 0.49306 0.0
C1318 C 1.00669 0.06238 0.49439 0.0
C1319 C 0.98355 0.07347 0.47429 0.0
C1320 C 0.97558 0.05223 0.41979 0.0
H1321 H 0.91555 0.08515 0.3533 0.0
H1322 H 0.93051 0.08399 0.38697 0.0
H1323 H 0.96499 0.04186 0.38897 0.0
H1324 H 0.02208 0.04717 0.47662 0.0
H1325 H 1.00654 0.05008 0.44419 0.0
H1326 H 0.97304 0.09419 0.44429 0.0
C1327 C 0.9359 0.07861 0.37404 0.0
C1328 C 0.96673 0.05348 0.40083 0.0
C1329 C 0.92725 0.07923 0.35468 0.0
C1330 C 0.01134 0.05455 0.47634 0.0
C1331 C 1.00226 0.05612 0.4576 0.0
C1332 C 0.97123 0.08254 0.43246 0.0
C1333 C 0.95096 0.07066 0.37667 0.0
C1334 C 0.96 0.06929 0.39726 0.0
C1335 C 0.9881 0.0655 0.45618 0.0
C1336 C 0.97816 0.06679 0.43596 0.0
H1337 H 0.95406 0.05883 0.32718 0.0
H1338 H 0.96896 0.05782 0.36054 0.0
H1339 H 0.95748 0.09623 0.41138 0.0
H1340 H 0.98867 0.07818 0.50656 0.0
H1341 H 0.97266 0.08063 0.47404 0.0
C1342 C 0.32093 0.74926 0.60076 0.0
C1343 C 0.33402 0.73862 0.59943 0.0
C1344 C 0.31864 0.75832 0.61927 0.0
C1345 C 0.32709 0.75692 0.67392 0.0
H1346 H 0.31242 0.80409 0.67766 0.0
C1347 C 0.31308 0.7933 0.74913 0.0
C1348 C 0.29755 0.80043 0.74814 0.0
C1349 C 0.31963 0.78762 0.73156 0.0
C1350 C 0.31641 0.79087 0.67688 0.0
H1351 H 0.35523 0.72956 0.61669 0.0
H1352 H 0.35136 0.74559 0.6491 0.0
H1353 H 0.32029 0.79081 0.64618 0.0
H1354 H 0.27718 0.8079 0.72796 0.0
H1355 H 0.28858 0.79808 0.69737 0.0
H1356 H 0.323 0.7569 0.70456 0.0
C1357 C 0.34271 0.74672 0.63575 0.0
C1358 C 0.32092 0.78322 0.65878 0.0
C1359 C 0.34503 0.73763 0.61714 0.0
C1360 C 0.28918 0.8025 0.72925 0.0
C1361 C 0.29577 0.7969 0.71169 0.0
C1362 C 0.32262 0.7646 0.69205 0.0
C1363 C 0.32936 0.75707 0.63709 0.0
C1364 C 0.32606 0.76598 0.65692 0.0
C1365 C 0.31089 0.78903 0.71256 0.0
C1366 C 0.31696 0.78156 0.6937 0.0
H1367 H 0.31215 0.75033 0.58749 0.0
H1368 H 0.30805 0.76588 0.61963 0.0
H1369 H 0.33075 0.74354 0.67306 0.0
H1370 H 0.31988 0.79154 0.76345 0.0
H1371 H 0.33145 0.7819 0.73286 0.0
C1372 C 0.58974 0.02068 0.84635 0.0
C1373 C 0.60332 0.01067 0.84573 0.0
C1374 C 0.58241 0.02381 0.86398 0.0
C1375 C 0.58045 0.00881 0.91456 0.0
H1376 H 0.56652 0.05576 0.92746 0.0
C1377 C 0.56909 0.03691 0.99404 0.0
C1378 C 0.55291 0.04242 0.99538 0.0
C1379 C 0.57448 0.03295 0.97538 0.0
C1380 C 0.57025 0.04254 0.92396 0.0
H1381 H 0.61981 0.99603 0.86312 0.0
H1382 H 0.60761 1.00205 0.89395 0.0
H1383 H 0.57724 0.04867 0.89569 0.0
H1384 H 0.52996 0.04861 0.97819 0.0
H1385 H 0.53971 0.04219 0.94551 0.0
H1386 H 0.57411 1.00314 0.94333 0.0
C1387 C 0.60214 0.00705 0.88074 0.0
C1388 C 0.5763 0.03838 0.90568 0.0
C1389 C 0.60925 1.00366 0.86303 0.0
C1390 C 0.54247 0.04437 0.97765 0.0
C1391 C 0.54805 0.04074 0.95897 0.0
C1392 C 0.57471 0.01312 0.93296 0.0
C1393 C 0.58867 0.01728 0.88154 0.0
C1394 C 0.58158 0.02147 0.90073 0.0
C1395 C 0.56399 0.03474 0.95765 0.0
C1396 C 0.56962 0.03005 0.93788 0.0
H1397 H 0.58479 0.02616 0.83322 0.0
H1398 H 0.57182 0.03139 0.86378 0.0
H1399 H 0.58395 0.99547 0.9112 0.0
H1400 H 0.57741 0.03519 0.00739 0.0
H1401 H 0.58689 0.0285 0.97479 0.0
C1402 C 0.31458 0.42737 0.1499 0.0
C1403 C 0.3094 0.44448 0.1531 0.0
C1404 C 0.31272 0.4152 0.16392 0.0
C1405 C 0.28858 0.40489 0.2062 0.0
H1406 H 0.3246 0.37666 0.2185 0.0
C1407 C 0.29529 0.36982 0.27668 0.0
C1408 C 0.2992 0.35209 0.27475 0.0
C1409 C 0.29491 0.37949 0.26038 0.0
C1410 C 0.31431 0.38424 0.21498 0.0
H1411 H 0.29865 0.46246 0.17375 0.0
H1412 H 0.29587 0.44142 0.19855 0.0
H1413 H 0.32798 0.39745 0.19352 0.0
H1414 H 0.30527 0.33024 0.25426 0.0
H1415 H 0.30488 0.34739 0.22559 0.0
H1416 H 0.27524 0.39206 0.22818 0.0
C1417 C 0.30094 0.43721 0.18494 0.0
C1418 C 0.31624 0.39617 0.20069 0.0
C1419 C 0.30268 0.44934 0.17082 0.0
C1420 C 0.30228 0.34393 0.25609 0.0
C1421 C 0.30212 0.35374 0.23978 0.0
C1422 C 0.28674 0.39308 0.2206 0.0
C1423 C 0.30577 0.4199 0.18155 0.0
C1424 C 0.30348 0.40679 0.19629 0.0
C1425 C 0.2986 0.37169 0.24187 0.0
C1426 C 0.29968 0.3828 0.22527 0.0
H1427 H 0.31971 0.42316 0.13633 0.0
H1428 H 0.31637 0.40191 0.16071 0.0
H1429 H 0.27832 0.41254 0.20285 0.0
H1430 H 0.29278 0.37637 0.29091 0.0
H1431 H 0.29233 0.39336 0.26247 0.0
C1432 C 0.16049 0.93382 0.07256 0.0
C1433 C 0.17599 0.93868 0.06411 0.0
C1434 C 0.1488 0.94594 0.0744 0.0
C1435 C 0.14576 0.99523 0.07698 0.0
H1436 H 0.09557 0.97529 0.06278 0.0
C1437 C 0.09276 0.04158 0.07214 0.0
C1438 C 0.07574 0.03408 0.07579 0.0
C1439 C 0.10592 0.03092 0.07248 0.0
C1440 C 0.1095 0.98115 0.06723 0.0
H1441 H 0.19132 0.96031 0.05107 0.0
H1442 H 0.17095 0.98153 0.05442 0.0
H1443 H 0.11631 0.95488 0.0594 0.0
H1444 H 0.05954 0.01007 0.08406 0.0
H1445 H 0.0825 0.992 0.08578 0.0
H1446 H 0.13891 0.02152 0.08505 0.0
C1447 C 0.16788 0.96829 0.05964 0.0
C1448 C 0.12144 0.96937 0.06515 0.0
C1449 C 0.17949 0.95606 0.05758 0.0
C1450 C 0.07253 0.01625 0.08117 0.0
C1451 C 0.08568 0.00576 0.08182 0.0
C1452 C 0.13377 0.00705 0.07926 0.0
C1453 C 0.15234 0.96338 0.06804 0.0
C1454 C 0.13973 0.9762 0.07004 0.0
C1455 C 0.10236 0.01259 0.07666 0.0
C1456 C 0.11541 1.00017 0.0745 0.0
H1457 H 0.15734 0.9206 0.07781 0.0
H1458 H 0.13707 0.94174 0.08112 0.0
H1459 H 0.15975 1.00095 0.08105 0.0
H1460 H 0.09555 0.05515 0.0676 0.0
H1461 H 0.11852 0.03673 0.06835 0.0
C1462 C 0.69819 0.63109 0.97919 0.0
C1463 C 0.71028 0.61946 0.98197 0.0
C1464 C 0.6811 0.62615 0.98364 0.0
C1465 C 0.64832 0.58735 0.99531 0.0
H1466 H 0.63183 0.62722 0.02476 0.0
C1467 C 0.59301 0.59933 0.0501 0.0
C1468 C 0.57808 0.58706 0.03918 0.0
C1469 C 0.60871 0.60262 0.042 0.0
C1470 C 0.63628 0.6159 0.01669 0.0
H1471 H 0.7137 0.59313 0.99068 0.0
H1472 H 0.68397 0.58467 0.99889 0.0
H1473 H 0.65968 0.63376 0.01189 0.0
H1474 H 0.56777 0.56838 0.0114 0.0
H1475 H 0.59514 0.57437 0.99705 0.0
H1476 H 0.62515 0.56938 1.00084 0.0
C1477 C 0.6876 0.5975 0.993 0.0
C1478 C 0.65214 0.61969 0.00902 0.0
C1479 C 0.70467 0.60238 0.98838 0.0
C1480 C 0.57913 0.57794 0.02012 0.0
C1481 C 0.59482 0.58128 0.01196 0.0
C1482 C 0.63245 0.58353 0.00306 0.0
C1483 C 0.67576 0.60955 0.99115 0.0
C1484 C 0.6584 0.60547 0.99832 0.0
C1485 C 0.60976 0.59376 0.02277 0.0
C1486 C 0.62634 0.59776 0.01399 0.0
H1487 H 0.70205 0.64425 0.97403 0.0
H1488 H 0.67218 0.63554 0.98159 0.0
H1489 H 0.6527 0.5761 0.98699 0.0
H1490 H 0.59258 0.60642 0.0649 0.0
H1491 H 0.62007 0.61204 0.05088 0.0
C1492 C 0.68347 0.46896 0.31662 0.0
C1493 C 0.69198 0.48713 0.31509 0.0
C1494 C 0.69206 0.45387 0.31464 0.0
C1495 C 0.7311 0.43754 0.29554 0.0
H1496 H 0.71874 0.39822 0.32683 0.0
C1497 C 0.76689 0.37375 0.29398 0.0
C1498 C 0.75773 0.35649 0.29751 0.0
C1499 C 0.75944 0.38979 0.29588 0.0
C1500 C 0.72228 0.40879 0.31761 0.0
H1501 H 0.7168 0.50309 0.31001 0.0
H1502 H 0.73187 0.47678 0.30653 0.0
H1503 H 0.70555 0.42529 0.3307 0.0
H1504 H 0.73303 0.34308 0.30566 0.0
H1505 H 0.72002 0.37046 0.30847 0.0
H1506 H 0.7478 0.42092 0.28236 0.0
C1507 C 0.7183 0.47422 0.30924 0.0
C1508 C 0.71462 0.4246 0.31991 0.0
C1509 C 0.70965 0.48948 0.31139 0.0
C1510 C 0.74069 0.35594 0.30278 0.0
C1511 C 0.73322 0.37192 0.30462 0.0
C1512 C 0.73875 0.42164 0.29316 0.0
C1513 C 0.70969 0.45603 0.31092 0.0
C1514 C 0.7187 0.43934 0.30884 0.0
C1515 C 0.74244 0.38935 0.30142 0.0
C1516 C 0.73444 0.40676 0.30405 0.0
H1517 H 0.6699 0.46622 0.31935 0.0
H1518 H 0.68461 0.44031 0.3157 0.0
H1519 H 0.73465 0.44827 0.28649 0.0
H1520 H 0.78007 0.37502 0.29006 0.0
H1521 H 0.76731 0.40268 0.29344 0.0
C1522 C 0.7809 0.46081 0.55397 0.0
C1523 C 0.78074 0.44578 0.56466 0.0
C1524 C 0.79679 0.47278 0.55303 0.0
C1525 C 0.84344 0.48744 0.57759 0.0
H1526 H 0.8515 0.50216 0.5261 0.0
C1527 C 0.91271 0.51694 0.5601 0.0
C1528 C 0.91456 0.53164 0.54883 0.0
C1529 C 0.89603 0.50799 0.56303 0.0
C1530 C 0.84936 0.4984 0.54065 0.0
H1531 H 0.79713 0.4317 0.583 0.0
H1532 H 0.82478 0.45237 0.58114 0.0
H1533 H 0.82296 0.48381 0.52945 0.0
H1534 H 0.90022 0.54873 0.53223 0.0
H1535 H 0.87105 0.53293 0.53717 0.0
H1536 H 0.86999 0.50172 0.58865 0.0
C1537 C 0.81263 0.4551 0.5737 0.0
C1538 C 0.83299 0.48789 0.54259 0.0
C1539 C 0.79676 0.44316 0.57466 0.0
C1540 C 0.89928 0.53728 0.54073 0.0
C1541 C 0.88257 0.52826 0.54358 0.0
C1542 C 0.85982 0.49789 0.57563 0.0
C1543 C 0.81287 0.46998 0.56276 0.0
C1544 C 0.8299 0.48211 0.56103 0.0
C1545 C 0.88076 0.51345 0.55468 0.0
C1546 C 0.86302 0.50332 0.55708 0.0
H1547 H 0.76877 0.46326 0.54616 0.0
H1548 H 0.79648 0.48424 0.54469 0.0
H1549 H 0.84139 0.48351 0.59209 0.0
H1550 H 0.92414 0.51198 0.56624 0.0
H1551 H 0.89507 0.49644 0.57138 0.0
C1552 C 0.39611 0.16453 0.26903 0.0
C1553 C 0.40622 0.16126 0.28638 0.0
C1554 C 0.38722 0.17926 0.26975 0.0
C1555 C 0.36872 0.20932 0.30526 0.0
H1556 H 0.36596 0.23911 0.2624 0.0
C1557 C 0.33758 0.27377 0.31232 0.0
C1558 C 0.32689 0.27707 0.29547 0.0
C1559 C 0.34727 0.25979 0.31074 0.0
C1560 C 0.36641 0.23077 0.27437 0.0
H1561 H 0.4152 0.17128 0.31803 0.0
H1562 H 0.39973 0.19699 0.31927 0.0
H1563 H 0.38334 0.21493 0.26069 0.0
H1564 H 0.3181 0.26827 0.26363 0.0
H1565 H 0.33567 0.24418 0.26065 0.0
H1566 H 0.35169 0.2249 0.31887 0.0
C1567 C 0.39853 0.18803 0.30513 0.0
C1568 C 0.37642 0.21694 0.27343 0.0
C1569 C 0.4075 0.17334 0.30439 0.0
C1570 C 0.32635 0.26619 0.27685 0.0
C1571 C 0.33645 0.25243 0.27516 0.0
C1572 C 0.35868 0.22306 0.30617 0.0
C1573 C 0.38812 0.19107 0.28786 0.0
C1574 C 0.37774 0.20605 0.2889 0.0
C1575 C 0.34697 0.24897 0.29216 0.0
C1576 C 0.35741 0.23404 0.29079 0.0
H1577 H 0.3948 0.15553 0.25489 0.0
H1578 H 0.37921 0.18106 0.25621 0.0
H1579 H 0.36914 0.20099 0.31725 0.0
H1580 H 0.33807 0.28165 0.32697 0.0
H1581 H 0.35521 0.25761 0.32415 0.0
C1582 C 0.30709 0.09391 0.50085 0.0
C1583 C 0.3117 0.11301 0.50028 0.0
C1584 C 0.31931 0.08472 0.50998 0.0
C1585 C 0.35678 0.09296 0.54953 0.0
H1586 H 0.37149 0.05106 0.52169 0.0
C1587 C 0.42187 0.07218 0.57601 0.0
C1588 C 0.42365 0.05373 0.57164 0.0
C1589 C 0.40614 0.07745 0.56942 0.0
C1590 C 0.36726 0.06246 0.52991 0.0
H1591 H 0.33283 0.13733 0.50838 0.0
H1592 H 0.35391 0.12132 0.52454 0.0
H1593 H 0.34785 0.06376 0.50507 0.0
H1594 H 0.40985 0.0261 0.55798 0.0
H1595 H 0.38211 0.03516 0.54724 0.0
H1596 H 0.37596 0.09176 0.5744 0.0
C1597 C 0.34089 0.11351 0.51793 0.0
C1598 C 0.3538 0.06977 0.5203 0.0
C1599 C 0.32885 0.12261 0.50854 0.0
C1600 C 0.40892 0.04043 0.56168 0.0
C1601 C 0.39308 0.04567 0.55525 0.0
C1602 C 0.37001 0.08549 0.55926 0.0
C1603 C 0.33615 0.09457 0.51898 0.0
C1604 C 0.34882 0.0854 0.52984 0.0
C1605 C 0.39167 0.06434 0.55852 0.0
C1606 C 0.37581 0.07049 0.54936 0.0
H1607 H 0.29398 0.08616 0.49459 0.0
H1608 H 0.31542 0.07007 0.51059 0.0
H1609 H 0.35293 0.10487 0.55728 0.0
H1610 H 0.43286 0.08273 0.58395 0.0
H1611 H 0.40568 0.09198 0.5721 0.0
C1612 C 0.71345 0.60736 0.3219 0.0
C1613 C 0.69518 0.60175 0.31481 0.0
C1614 C 0.72276 0.62544 0.32062 0.0
C1615 C 0.71855 0.66594 0.29285 0.0
H1616 H 0.75568 0.69464 0.33405 0.0
C1617 C 0.7423 0.74455 0.29286 0.0
C1618 C 0.76019 0.75321 0.29891 0.0
C1619 C 0.7359 0.72612 0.29527 0.0
C1620 C 0.74547 0.68681 0.32224 0.0
H1621 H 0.67263 0.61154 0.30123 0.0
H1622 H 0.68843 0.64225 0.29924 0.0
H1623 H 0.74211 0.66284 0.33743 0.0
H1624 H 0.78527 0.74878 0.31277 0.0
H1625 H 0.77412 0.71642 0.31696 0.0
H1626 H 0.72176 0.6896 0.2776 0.0
C1627 C 0.69585 0.63279 0.30543 0.0
C1628 C 0.73763 0.66843 0.32419 0.0
C1629 C 0.68665 0.61496 0.30675 0.0
C1630 C 0.77145 0.74268 0.30783 0.0
C1631 C 0.76497 0.72407 0.31032 0.0
C1632 C 0.72633 0.68417 0.29091 0.0
C1633 C 0.71414 0.63845 0.31208 0.0
C1634 C 0.72375 0.65772 0.30969 0.0
C1635 C 0.74705 0.71533 0.30386 0.0
C1636 C 0.73974 0.69519 0.30569 0.0
H1637 H 0.7206 0.59775 0.32823 0.0
H1638 H 0.73681 0.62906 0.32594 0.0
H1639 H 0.70836 0.65823 0.28095 0.0
H1640 H 0.73307 0.75208 0.28613 0.0
H1641 H 0.72198 0.72039 0.29049 0.0
C1642 C 0.89152 0.5573 0.77736 0.0
C1643 C 0.89684 0.57208 0.79326 0.0
C1644 C 0.88019 0.54106 0.77974 0.0
C1645 C 0.84853 0.52132 0.81198 0.0
H1646 H 0.85939 0.47493 0.78972 0.0
C1647 C 0.81691 0.45002 0.83184 0.0
C1648 C 0.81241 0.43501 0.81611 0.0
C1649 C 0.82613 0.46723 0.82874 0.0
C1650 C 0.85604 0.48776 0.79583 0.0
H1651 H 0.89409 0.5815 0.82405 0.0
H1652 H 0.87453 0.55309 0.82828 0.0
H1653 H 0.87738 0.50398 0.78481 0.0
H1654 H 0.81327 0.42664 0.78453 0.0
H1655 H 0.82941 0.45651 0.77922 0.0
H1656 H 0.8273 0.50496 0.82323 0.0
C1657 C 0.87894 0.55413 0.81387 0.0
C1658 C 0.86634 0.50443 0.79299 0.0
C1659 C 0.89024 0.5704 0.81147 0.0
C1660 C 0.81688 0.43777 0.7971 0.0
C1661 C 0.82612 0.45491 0.79403 0.0
C1662 C 0.83824 0.5046 0.81488 0.0
C1663 C 0.87394 0.53916 0.79811 0.0
C1664 C 0.86272 0.52144 0.80099 0.0
C1665 C 0.83108 0.46977 0.80987 0.0
C1666 C 0.84186 0.48762 0.8068 0.0
H1667 H 0.89626 0.55816 0.76309 0.0
H1668 H 0.87637 0.52994 0.76717 0.0
H1669 H 0.84524 0.53416 0.81815 0.0
H1670 H 0.81383 0.44834 0.84671 0.0
H1671 H 0.82988 0.47836 0.8413 0.0
C1672 C 0.0224 0.84481 0.18466 0.0
C1673 C 0.03064 0.83025 0.17842 0.0
C1674 C 0.02017 0.85835 0.17244 0.0
C1675 C 0.03678 0.87859 0.12906 0.0
H1676 H 0.99361 0.89755 0.12559 0.0
C1677 C 0.02 0.92542 0.07029 0.0
C1678 C 0.0124 0.9405 0.07654 0.0
C1679 C 0.02201 0.91198 0.08268 0.0
C1680 C 1.00583 0.89256 0.12652 0.0
H1681 H 0.04295 0.81857 0.15428 0.0
H1682 H 0.03889 0.84193 0.13297 0.0
H1683 H 0.99764 0.87441 0.14729 0.0
H1684 H 1.00105 0.95314 0.101 0.0
H1685 H 1.00444 0.9297 0.12246 0.0
H1686 H 0.04493 0.89669 0.10823 0.0
C1687 C 0.03438 0.84312 0.14745 0.0
C1688 C 1.00817 0.87927 0.13903 0.0
C1689 C 0.03662 0.82961 0.15966 0.0
C1690 C 1.00669 0.9416 0.09547 0.0
C1691 C 1.00866 0.92814 0.10784 0.0
C1692 C 0.03442 0.89184 0.11653 0.0
C1693 C 0.02611 0.8577 0.15363 0.0
C1694 C 0.02367 0.87206 0.14046 0.0
C1695 C 0.01645 0.91318 0.10167 0.0
C1696 C 0.01891 0.89901 0.11505 0.0
H1697 H 0.01764 0.84578 0.19901 0.0
H1698 H 0.01396 0.86947 0.17787 0.0
H1699 H 0.04903 0.87366 0.13 0.0
H1700 H 0.0243 0.92389 0.05572 0.0
H1701 H 0.02779 0.90051 0.07725 0.0
C1702 C 0.97039 0.29089 0.84772 0.0
C1703 C 0.98421 0.30663 0.85221 0.0
C1704 C 0.95287 0.29237 0.84153 0.0
C1705 C 0.92301 0.32619 0.84351 0.0
H1706 H 0.89111 0.2891 0.80383 0.0
C1707 C 0.85274 0.33648 0.8161 0.0
C1708 C 0.83852 0.32119 0.81167 0.0
C1709 C 0.87026 0.3342 0.81958 0.0
C1710 C 0.89971 0.2995 0.81513 0.0
H1711 H 0.99011 0.33638 0.85331 0.0
H1712 H 0.95964 0.33899 0.84251 0.0
H1713 H 0.92182 0.28638 0.81234 0.0
H1714 H 0.8318 0.2913 0.80708 0.0
H1715 H 0.86248 0.28717 0.81348 0.0
H1716 H 0.90101 0.33915 0.84671 0.0
C1717 C 0.96234 0.32542 0.84391 0.0
C1718 C 0.91745 0.29796 0.82001 0.0
C1719 C 0.97993 0.32391 0.84996 0.0
C1720 C 0.84241 0.30339 0.81027 0.0
C1721 C 0.86008 0.30107 0.81396 0.0
C1722 C 0.9053 0.32767 0.83875 0.0
C1723 C 0.94845 0.30968 0.83976 0.0
C1724 C 0.92946 0.31134 0.83424 0.0
C1725 C 0.87433 0.31649 0.81907 0.0
C1726 C 0.89329 0.31444 0.82435 0.0
H1727 H 0.97304 0.27732 0.84928 0.0
H1728 H 0.94268 0.27992 0.83872 0.0
H1729 H 0.93159 0.33658 0.85486 0.0
H1730 H 0.85031 0.35041 0.8172 0.0
H1731 H 0.88063 0.34649 0.8228 0.0
C1732 C 0.54352 0.24484 0.67128 0.0
C1733 C 0.53224 0.24689 0.6857 0.0
C1734 C 0.54281 0.2276 0.66002 0.0
C1735 C 0.51445 0.1811 0.64292 0.0
H1736 H 0.55872 0.16786 0.63284 0.0
C1737 C 0.51892 0.10856 0.60238 0.0
C1738 C 0.53131 0.10814 0.58897 0.0
C1739 C 0.51837 0.1251 0.6145 0.0
C1740 C 0.5462 0.17138 0.63528 0.0
H1741 H 0.51118 0.23226 0.69937 0.0
H1742 H 0.50998 0.20204 0.67968 0.0
H1743 H 0.55895 0.19712 0.65336 0.0
H1744 H 0.55258 0.12507 0.5776 0.0
H1745 H 0.55147 0.1537 0.59839 0.0
H1746 H 0.50172 0.15531 0.62469 0.0
C1747 C 0.51932 0.21389 0.67703 0.0
C1748 C 0.54634 0.18821 0.64711 0.0
C1749 C 0.52006 0.2312 0.68839 0.0
C1750 C 0.54292 0.12474 0.5878 0.0
C1751 C 0.54237 0.14121 0.59988 0.0
C1752 C 0.51431 0.16422 0.63103 0.0
C1753 C 0.53079 0.21184 0.66279 0.0
C1754 C 0.53048 0.19343 0.65092 0.0
C1755 C 0.53023 0.14163 0.61356 0.0
C1756 C 0.5302 0.15923 0.62686 0.0
H1757 H 0.55301 0.25658 0.66869 0.0
H1758 H 0.55163 0.22666 0.64897 0.0
H1759 H 0.50197 0.18471 0.6454 0.0
H1760 H 0.50976 0.09606 0.60371 0.0
H1761 H 0.50892 0.12483 0.62494 0.0
C1762 C 0.59699 0.82454 0.34582 0.0
C1763 C 0.59474 0.82228 0.36573 0.0
C1764 C 0.6136 0.82484 0.33929 0.0
C1765 C 0.66208 0.83106 0.35955 0.0
H1766 H 0.66596 0.80878 0.30605 0.0
C1767 C 0.72914 0.81708 0.33833 0.0
C1768 C 0.73309 0.81917 0.31893 0.0
C1769 C 0.71238 0.81832 0.34343 0.0
C1770 C 0.6652 0.81527 0.32101 0.0
H1771 H 0.60856 0.81831 0.39414 0.0
H1772 H 0.63682 0.81854 0.38288 0.0
H1773 H 0.63681 0.80941 0.31558 0.0
H1774 H 0.72212 0.82432 0.28973 0.0
H1775 H 0.69304 0.82656 0.29861 0.0
H1776 H 0.69038 0.83679 0.36509 0.0
C1777 C 0.62603 0.82052 0.37227 0.0
C1778 C 0.64836 0.81565 0.3265 0.0
C1779 C 0.60958 0.82024 0.37874 0.0
C1780 C 0.7197 0.82267 0.30484 0.0
C1781 C 0.70288 0.8238 0.30991 0.0
C1782 C 0.67885 0.83062 0.3541 0.0
C1783 C 0.62847 0.82294 0.35248 0.0
C1784 C 0.64646 0.82337 0.34598 0.0
C1785 C 0.69887 0.82159 0.3293 0.0
C1786 C 0.68077 0.82257 0.3348 0.0
H1787 H 0.58595 0.82615 0.33531 0.0
H1788 H 0.61481 0.82686 0.32396 0.0
H1789 H 0.66142 0.83759 0.37453 0.0
H1790 H 0.73899 0.81431 0.34963 0.0
H1791 H 0.70992 0.81629 0.35844 0.0
C1792 C 0.07306 0.28536 0.47591 0.0
C1793 C 0.08513 0.29997 0.48832 0.0
C1794 C 0.06594 0.26954 0.48356 0.0
C1795 C 0.05675 0.25368 0.53113 0.0
H1796 H 0.04761 0.20508 0.4991 0.0
C1797 C 0.03352 0.18536 0.56162 0.0
C1798 C 0.02127 0.17125 0.5487 0.0
C1799 C 0.04049 0.20174 0.55484 0.0
C1800 C 0.04987 0.2186 0.50812 0.0
H1801 H 0.09976 0.30908 0.5183 0.0
H1802 H 0.08751 0.2812 0.53161 0.0
H1803 H 0.06292 0.23169 0.48617 0.0
H1804 H 1.00585 0.1638 0.51898 0.0
H1805 H 0.01807 0.19245 0.50712 0.0
H1806 H 0.04377 0.24046 0.55315 0.0
C1807 C 0.08333 0.2822 0.51604 0.0
C1808 C 0.05869 0.23384 0.50074 0.0
C1809 C 0.09048 0.29808 0.50836 0.0
C1810 C 0.01548 0.17429 0.52918 0.0
C1811 C 0.0225 0.19065 0.52238 0.0
C1812 C 0.04796 0.2384 0.53855 0.0
C1813 C 0.07076 0.26789 0.50379 0.0
C1814 C 0.06217 0.25157 0.51211 0.0
C1815 C 0.03541 0.20434 0.53498 0.0
C1816 C 0.04435 0.22071 0.52706 0.0
H1817 H 0.06865 0.28634 0.46038 0.0
H1818 H 0.05617 0.25888 0.47376 0.0
H1819 H 0.05897 0.2672 0.54012 0.0
H1820 H 0.03845 0.18336 0.57665 0.0
H1821 H 0.05052 0.21198 0.56484 0.0
C1822 C 0.54835 0.25737 0.16975 0.0
C1823 C 0.53344 0.26325 0.17579 0.0
C1824 C 0.56385 0.25987 0.18337 0.0
C1825 C 0.58114 0.26606 0.23681 0.0
H1826 H 0.62514 0.28866 0.22061 0.0
C1827 C 0.65861 0.29812 0.27252 0.0
C1828 C 0.66332 0.283 0.28085 0.0
C1829 C 0.64203 0.29637 0.2612 0.0
C1830 C 0.61293 0.28246 0.22538 0.0
H1831 H 0.5229 0.27591 0.20094 0.0
H1832 H 0.54996 0.28003 0.22479 0.0
H1833 H 0.59762 0.28366 0.19732 0.0
H1834 H 0.65393 0.2544 0.28441 0.0
H1835 H 0.62483 0.25158 0.26507 0.0
H1836 H 0.59655 0.26465 0.26481 0.0
C1837 C 0.54964 0.27358 0.2095 0.0
C1838 C 0.59724 0.27944 0.212 0.0
C1839 C 0.53421 0.27131 0.19582 0.0
C1840 C 0.6507 0.26641 0.27846 0.0
C1841 C 0.63404 0.26474 0.26731 0.0
C1842 C 0.59689 0.26886 0.25012 0.0
C1843 C 0.56464 0.26806 0.20333 0.0
C1844 C 0.58122 0.27119 0.21758 0.0
C1845 C 0.62973 0.27956 0.25818 0.0
C1846 C 0.61291 0.27711 0.24451 0.0
H1847 H 0.54815 0.25112 0.15442 0.0
H1848 H 0.57522 0.25535 0.17832 0.0
H1849 H 0.56894 0.25961 0.24141 0.0
H1850 H 0.66787 0.31121 0.27442 0.0
H1851 H 0.6389 0.30809 0.25454 0.0
C1852 C 0.59187 0.87189 0.01829 0.0
C1853 C 0.5968 0.8712 0.99908 0.0
C1854 C 0.58612 0.88735 0.02692 0.0
C1855 C 0.56511 0.91668 0.03731 0.0
H1856 H 0.58412 0.96515 0.02488 0.0
C1857 C 0.5313 0.97892 0.05232 0.0
C1858 C 0.5416 0.99688 0.0551 0.0
C1859 C 0.53899 0.96356 0.0483 0.0
C1860 C 0.57883 0.95183 0.02891 0.0
H1861 H 0.60095 0.88639 0.97436 0.0
H1862 H 0.5902 0.91307 0.98881 0.0
H1863 H 0.59633 0.93903 0.01285 0.0
H1864 H 0.56812 0.01288 0.05731 0.0
H1865 H 0.58176 0.98621 0.05168 0.0
H1866 H 0.54813 0.9297 0.05415 0.0
C1867 C 0.59077 0.90185 0.99744 0.0
C1868 C 0.58564 0.93668 0.02159 0.0
C1869 C 0.59668 0.88646 0.98896 0.0
C1870 C 0.55987 0.99918 0.05515 0.0
C1871 C 0.56763 0.98384 0.05161 0.0
C1872 C 0.5585 0.93193 0.04496 0.0
C1873 C 0.5853 0.9025 0.01652 0.0
C1874 C 0.57869 0.91882 0.02538 0.0
C1875 C 0.55722 0.96582 0.04738 0.0
C1876 C 0.5651 0.9497 0.04063 0.0
H1877 H 0.59237 0.86041 0.02658 0.0
H1878 H 0.58252 0.88747 0.04183 0.0
H1879 H 0.55924 0.90317 0.04043 0.0
H1880 H 0.51714 0.97676 0.05206 0.0
H1881 H 0.53043 0.95 0.04494 0.0
C1882 C 0.94532 0.74786 0.71165 0.0
C1883 C 0.94892 0.76151 0.69927 0.0
C1884 C 0.93842 0.75176 0.72941 0.0
C1885 C 0.93694 0.79105 0.767 0.0
H1886 H 0.89777 0.75855 0.78283 0.0
C1887 C 0.89548 0.81617 0.8242 0.0
C1888 C 0.8882 0.80429 0.83695 0.0
C1889 C 0.9052 0.81001 0.80982 0.0
C1890 C 0.90897 0.76759 0.77884 0.0
H1891 H 0.94743 0.78972 0.69545 0.0
H1892 H 0.9354 0.79648 0.72637 0.0
H1893 H 0.90907 0.7492 0.75191 0.0
H1894 H 0.88633 0.77688 0.8453 0.0
H1895 H 0.90357 0.76608 0.82007 0.0
H1896 H 0.9368 0.80953 0.79368 0.0
C1897 C 0.93812 0.78284 0.72246 0.0
C1898 C 0.91536 0.76228 0.76108 0.0
C1899 C 0.94489 0.77891 0.70467 0.0
C1900 C 0.89172 0.78634 0.83565 0.0
C1901 C 0.9015 0.78014 0.82116 0.0
C1902 C 0.93066 0.7963 0.78475 0.0
C1903 C 0.93513 0.76943 0.73521 0.0
C1904 C 0.92912 0.77419 0.75474 0.0
C1905 C 0.90795 0.79179 0.80776 0.0
C1906 C 0.91631 0.78486 0.79063 0.0
H1907 H 0.94825 0.73429 0.7079 0.0
H1908 H 0.93624 0.74116 0.73895 0.0
H1909 H 0.94785 0.80031 0.76274 0.0
H1910 H 0.89273 0.82992 0.82439 0.0
H1911 H 0.90972 0.81927 0.79955 0.0
C1912 C 0.13458 0.06648 0.87832 0.0
C1913 C 0.14054 0.05077 0.87021 0.0
C1914 C 0.12407 0.06591 0.89376 0.0
C1915 C 0.09492 0.03432 0.92128 0.0
H1916 H 0.10226 0.07903 0.95974 0.0
C1917 C 0.05848 0.04167 0.99376 0.0
C1918 C 0.05466 0.05918 0.99968 0.0
C1919 C 0.06812 0.03877 0.97753 0.0
C1920 C 0.09973 0.06642 0.94907 0.0
H1921 H 0.13947 0.02181 0.87239 0.0
H1922 H 0.12117 0.02079 0.89953 0.0
H1923 H 0.1205 0.07754 0.9334 0.0
H1924 H 0.0574 0.08694 0.99226 0.0
H1925 H 0.07332 0.08186 0.96426 0.0
H1926 H 0.07409 0.02327 0.93738 0.0
C1927 C 0.12464 0.03368 0.89372 0.0
C1928 C 0.11033 0.06556 0.93374 0.0
C1929 C 0.13528 0.03426 0.87813 0.0
C1930 C 0.06002 0.07325 0.98829 0.0
C1931 C 0.06947 0.07039 0.97224 0.0
C1932 C 0.08424 0.03518 0.93677 0.0
C1933 C 0.11896 0.04959 0.90202 0.0
C1934 C 0.10802 0.04965 0.91924 0.0
C1935 C 0.07428 0.05331 0.96684 0.0
C1936 C 0.08622 0.05142 0.95078 0.0
H1937 H 0.13805 0.07948 0.87273 0.0
H1938 H 0.11979 0.07843 0.89908 0.0
H1939 H 0.09254 0.02177 0.91056 0.0
H1940 H 0.05491 0.03055 1.00231 0.0
H1941 H 0.07144 0.02537 0.97398 0.0
C1942 C 0.73803 0.39117 0.61623 0.0
C1943 C 0.7323 0.37868 0.59829 0.0
C1944 C 0.7439 0.38503 0.63407 0.0
C1945 C 0.76204 0.34689 0.65328 0.0
H1946 H 0.74847 0.36613 0.70346 0.0
C1947 C 0.77736 0.31733 0.72756 0.0
C1948 C 0.78085 0.32964 0.74573 0.0
C1949 C 0.77223 0.32332 0.70933 0.0
C1950 C 0.75265 0.3608 0.68967 0.0
H1951 H 0.72817 0.34982 0.5852 0.0
H1952 H 0.73838 0.33914 0.61632 0.0
H1953 H 0.73759 0.37639 0.67248 0.0
H1954 H 0.78254 0.35816 0.75872 0.0
H1955 H 0.77413 0.36865 0.72708 0.0
H1956 H 0.77722 0.3314 0.67049 0.0
C1957 C 0.73844 0.35373 0.61654 0.0
C1958 C 0.74633 0.36666 0.67184 0.0
C1959 C 0.73245 0.35985 0.59871 0.0
C1960 C 0.7798 0.34823 0.74508 0.0
C1961 C 0.77481 0.35423 0.72689 0.0
C1962 C 0.76845 0.34109 0.67115 0.0
C1963 C 0.74431 0.36625 0.63444 0.0
C1964 C 0.75094 0.35981 0.6534 0.0
C1965 C 0.77056 0.34179 0.70878 0.0
C1966 C 0.76388 0.34799 0.68963 0.0
H1967 H 0.73817 0.40577 0.61648 0.0
H1968 H 0.74848 0.39509 0.64752 0.0
H1969 H 0.76605 0.3415 0.63939 0.0
H1970 H 0.77792 0.30289 0.72748 0.0
H1971 H 0.76896 0.31327 0.69578 0.0
C1972 C 0.46861 0.11578 0.36645 0.0
C1973 C 0.45838 0.1003 0.3534 0.0
C1974 C 0.47792 0.1136 0.38482 0.0
C1975 C 0.4949 0.07788 0.411 0.0
H1976 H 0.49164 0.10886 0.46015 0.0
C1977 C 0.50182 0.05314 0.48749 0.0
C1978 C 0.51152 0.06525 0.50432 0.0
C1979 C 0.49846 0.05937 0.46911 0.0
C1980 C 0.49294 0.10029 0.44652 0.0
H1981 H 0.45012 0.07041 0.34944 0.0
H1982 H 0.46607 0.0667 0.38108 0.0
H1983 H 0.48 0.11643 0.42766 0.0
H1984 H 0.5255 0.0934 0.51511 0.0
H1985 H 0.51932 0.10449 0.48278 0.0
H1986 H 0.50718 0.06135 0.42978 0.0
C1987 C 0.46717 0.0805 0.37718 0.0
C1988 C 0.48628 0.10463 0.42791 0.0
C1989 C 0.45786 0.08267 0.35903 0.0
C1990 C 0.51799 0.08377 0.50235 0.0
C1991 C 0.51439 0.09012 0.48391 0.0
C1992 C 0.50144 0.07352 0.42952 0.0
C1993 C 0.47732 0.09589 0.39036 0.0
C1994 C 0.48669 0.09312 0.40995 0.0
C1995 C 0.50457 0.07794 0.4671 0.0
C1996 C 0.50008 0.08434 0.44753 0.0
H1997 H 0.46927 0.12955 0.36259 0.0
H1998 H 0.48567 0.12574 0.3946 0.0
H1999 H 0.49584 0.06898 0.39747 0.0
H2000 H 0.49668 0.03879 0.48854 0.0
H2001 H 0.49067 0.04968 0.45655 0.0
C2002 C 0.77078 0.67422 0.03894 0.0
C2003 C 0.78622 0.66975 0.03277 0.0
C2004 C 0.77173 0.68731 0.05577 0.0
C2005 C 0.80136 0.72624 0.08965 0.0
H2006 H 0.76629 0.7154 0.12472 0.0
C2007 C 0.80085 0.77003 0.16697 0.0
C2008 C 0.78427 0.77342 0.17056 0.0
C2009 C 0.80231 0.7582 0.14985 0.0
C2010 C 0.77608 0.71868 0.11498 0.0
H2011 H 0.81482 0.67574 0.03927 0.0
H2012 H 0.81646 0.69853 0.06906 0.0
H2013 H 0.76682 0.69284 0.09579 0.0
H2014 H 0.75631 0.76736 0.15888 0.0
H2015 H 0.7589 0.74691 0.12901 0.0
H2016 H 0.81064 0.75213 0.10917 0.0
C2017 C 0.80363 0.69199 0.06066 0.0
C2018 C 0.77638 0.70578 0.0984 0.0
C2019 C 0.80269 0.67888 0.04367 0.0
C2020 C 0.76929 0.76518 0.15645 0.0
C2021 C 0.77073 0.75331 0.13946 0.0
C2022 C 0.80112 0.73916 0.1064 0.0
C2023 C 0.78813 0.69618 0.06698 0.0
C2024 C 0.7888 0.70953 0.08533 0.0
C2025 C 0.78719 0.74944 0.13617 0.0
C2026 C 0.78826 0.73559 0.119 0.0
H2027 H 0.75788 0.66761 0.03076 0.0
H2028 H 0.75955 0.69052 0.05997 0.0
H2029 H 0.81102 0.72956 0.07979 0.0
H2030 H 0.81263 0.77632 0.17754 0.0
H2031 H 0.81515 0.75541 0.14766 0.0
C2032 C 0.14053 0.03398 0.75226 0.0
C2033 C 0.13356 0.03989 0.76957 0.0
C2034 C 0.13195 0.03475 0.7329 0.0
C2035 C 0.09967 0.05855 0.70662 0.0
H2036 H 0.09568 0.01932 0.66211 0.0
C2037 C 0.05545 0.05765 0.63088 0.0
C2038 C 0.06061 0.05061 0.6128 0.0
C2039 C 0.06451 0.05597 0.64958 0.0
C2040 C 0.09684 0.03058 0.67423 0.0
H2041 H 0.11179 0.05101 0.7797 0.0
H2042 H 0.09703 0.05231 0.74636 0.0
H2043 H 0.11127 0.0171 0.69494 0.0
H2044 H 0.07956 0.03618 0.60054 0.0
H2045 H 0.09553 0.0336 0.63299 0.0
H2046 H 0.08553 0.07221 0.68606 0.0
C2047 C 0.10922 0.04725 0.74762 0.0
C2048 C 0.10581 0.02926 0.69318 0.0
C2049 C 0.11768 0.04636 0.76687 0.0
C2050 C 0.0751 0.04174 0.61406 0.0
C2051 C 0.08424 0.04016 0.6328 0.0
C2052 C 0.09083 0.05993 0.6877 0.0
C2053 C 0.11624 0.04161 0.73029 0.0
C2054 C 0.10723 0.04316 0.70975 0.0
C2055 C 0.07917 0.04731 0.65095 0.0
C2056 C 0.08908 0.04591 0.67115 0.0
H2057 H 0.15273 0.02895 0.75365 0.0
H2058 H 0.13787 0.03036 0.71999 0.0
H2059 H 0.10074 0.06975 0.7188 0.0
H2060 H 0.04431 0.06445 0.63063 0.0
H2061 H 0.05982 0.06135 0.66302 0.0
C2062 C 0.74824 0.3644 0.5031 0.0
C2063 C 0.73848 0.37852 0.50449 0.0
C2064 C 0.7514 0.35642 0.48443 0.0
C2065 C 0.75727 0.36817 0.4349 0.0
H2066 H 0.75278 0.31556 0.41824 0.0
C2067 C 0.77404 0.34209 0.35783 0.0
C2068 C 0.78187 0.32658 0.35565 0.0
C2069 C 0.76681 0.3468 0.37512 0.0
C2070 C 0.75437 0.33031 0.42271 0.0
H2071 H 0.72401 0.39497 0.48718 0.0
H2072 H 0.72987 0.38131 0.45456 0.0
H2073 H 0.7436 0.3266 0.44996 0.0
H2074 H 0.78783 0.30343 0.36958 0.0
H2075 H 0.77601 0.3121 0.40047 0.0
H2076 H 0.76885 0.37222 0.40853 0.0
C2077 C 0.73496 0.37634 0.46799 0.0
C2078 C 0.74897 0.33662 0.44088 0.0
C2079 C 0.73151 0.38409 0.48666 0.0
C2080 C 0.78184 0.31546 0.3709 0.0
C2081 C 0.77498 0.32045 0.38857 0.0
C2082 C 0.76296 0.36193 0.417 0.0
C2083 C 0.74516 0.3626 0.46669 0.0
C2084 C 0.75028 0.35563 0.44712 0.0
C2085 C 0.76765 0.33645 0.39112 0.0
C2086 C 0.76151 0.34289 0.41046 0.0
H2087 H 0.75378 0.35976 0.51653 0.0
H2088 H 0.75938 0.34596 0.48396 0.0
H2089 H 0.75881 0.38292 0.43947 0.0
H2090 H 0.77358 0.35075 0.34613 0.0
H2091 H 0.76072 0.35875 0.37592 0.0
C2092 C 0.46229 0.07487 0.25067 0.0
C2093 C 0.4589 0.09272 0.25527 0.0
C2094 C 0.46948 0.06998 0.23339 0.0
C2095 C 0.49477 0.08902 0.19547 0.0
H2096 H 0.47449 0.04124 0.16338 0.0
C2097 C 0.52548 0.05938 0.12799 0.0
C2098 C 0.5136 0.05165 0.11037 0.0
C2099 C 0.51926 0.06402 0.14608 0.0
C2100 C 0.48028 0.05464 0.17213 0.0
H2101 H 0.46075 0.11952 0.24538 0.0
H2102 H 0.47342 0.11096 0.21515 0.0
H2103 H 0.46274 0.05064 0.19384 0.0
H2104 H 0.48585 0.04225 0.09817 0.0
H2105 H 0.47509 0.05014 0.12967 0.0
H2106 H 0.51221 0.09307 0.17359 0.0
C2107 C 0.47051 0.10078 0.22502 0.0
C2108 C 0.47364 0.05998 0.1897 0.0
C2109 C 0.46318 0.10566 0.24229 0.0
C2110 C 0.4954 0.04816 0.11143 0.0
C2111 C 0.48921 0.05264 0.12953 0.0
C2112 C 0.50153 0.08362 0.17796 0.0
C2113 C 0.47359 0.08281 0.22027 0.0
C2114 C 0.48076 0.07725 0.20157 0.0
C2115 C 0.50104 0.06085 0.14703 0.0
C2116 C 0.4943 0.06638 0.16603 0.0
H2117 H 0.45923 0.06453 0.26032 0.0
H2118 H 0.47191 0.05611 0.23037 0.0
H2119 H 0.50065 0.10235 0.20435 0.0
H2120 H 0.53957 0.06233 0.12772 0.0
H2121 H 0.52873 0.07013 0.15934 0.0
C2122 C 0.74709 0.65536 0.91698 0.0
C2123 C 0.76161 0.653 0.93014 0.0
C2124 C 0.74842 0.67065 0.90679 0.0
C2125 C 0.77959 0.70647 0.8897 0.0
H2126 H 0.74314 0.73526 0.89368 0.0
C2127 C 0.78516 0.77529 0.85873 0.0
C2128 C 0.76973 0.7783 0.84781 0.0
C2129 C 0.78434 0.76114 0.87052 0.0
C2130 C 0.75333 0.72729 0.89223 0.0
H2131 H 0.78914 0.66422 0.94215 0.0
H2132 H 0.79152 0.69073 0.92402 0.0
H2133 H 0.74134 0.70714 0.90904 0.0
H2134 H 0.74126 0.76961 0.84142 0.0
H2135 H 0.73981 0.74463 0.86156 0.0
H2136 H 0.79139 0.72622 0.87248 0.0
C2137 C 0.7791 0.68085 0.92174 0.0
C2138 C 0.75229 0.7112 0.90103 0.0
C2139 C 0.77772 0.6657 0.93213 0.0
C2140 C 0.75336 0.76759 0.84972 0.0
C2141 C 0.75255 0.7533 0.86133 0.0
C2142 C 0.78055 0.72245 0.88071 0.0
C2143 C 0.76435 0.6837 0.90936 0.0
C2144 C 0.76538 0.70062 0.8998 0.0
C2145 C 0.76808 0.74958 0.87145 0.0
C2146 C 0.76742 0.73306 0.88184 0.0
H2147 H 0.73448 0.64586 0.91518 0.0
H2148 H 0.73691 0.67243 0.89712 0.0
H2149 H 0.7898 0.69848 0.88842 0.0
H2150 H 0.79795 0.78344 0.8576 0.0
H2151 H 0.79652 0.75898 0.87851 0.0
C2152 C 0.90314 0.1805 0.03305 0.0
C2153 C 0.88717 0.17582 0.04064 0.0
C2154 C 0.91413 0.16771 0.03055 0.0
C2155 C 0.92302 0.1232 0.04584 0.0
H2156 H 0.95034 0.12431 1.00183 0.0
C2157 C 0.96894 0.07106 0.03086 0.0
C2158 C 0.98617 0.07942 0.02863 0.0
C2159 C 0.95535 0.08117 0.03006 0.0
C2160 C 0.94283 0.12381 0.01422 0.0
H2161 H 0.87029 0.15382 0.05153 0.0
H2162 H 0.88921 0.1314 0.0468 0.0
H2163 H 0.92986 0.14514 0.00543 0.0
H2164 H 1.00239 0.10459 0.02276 0.0
H2165 H 0.97878 0.1219 0.02079 0.0
H2166 H 0.93606 0.10178 0.05451 0.0
C2167 C 0.89347 0.14511 0.0431 0.0
C2168 C 0.93112 0.13588 0.0164 0.0
C2169 C 0.88254 0.15798 0.04575 0.0
C2170 C 0.98923 0.09768 0.0244 0.0
C2171 C 0.97567 0.10764 0.02328 0.0
C2172 C 0.93464 0.111 0.04354 0.0
C2173 C 0.90945 0.14973 0.03538 0.0
C2174 C 0.92122 0.13603 0.03245 0.0
C2175 C 0.95865 0.09974 0.02666 0.0
C2176 C 0.94491 0.11134 0.02788 0.0
H2177 H 0.90724 0.19412 0.02904 0.0
H2178 H 0.92644 0.17206 0.025 0.0
H2179 H 0.91588 0.12294 0.05854 0.0
H2180 H 0.96621 0.05713 0.03444 0.0
H2181 H 0.94237 0.0746 0.03256 0.0
C2182 C 0.36977 0.51926 0.13145 0.0
C2183 C 0.3555 0.50986 0.11689 0.0
C2184 C 0.38644 0.52501 0.12601 0.0
C2185 C 0.40883 0.5328 0.08152 0.0
H2186 H 0.44985 0.52473 0.1151 0.0
C2187 C 0.4742 0.52768 0.05242 0.0
C2188 C 0.48979 0.53756 0.06452 0.0
C2189 C 0.45807 0.52629 0.05965 0.0
C2190 C 0.43853 0.52726 0.10571 0.0
H2191 H 0.3475 0.49929 0.08515 0.0
H2192 H 0.37643 0.50887 0.07581 0.0
H2193 H 0.42104 0.51908 0.12641 0.0
H2194 H 0.5009 0.55373 0.0936 0.0
H2195 H 0.47265 0.55101 0.1064 0.0
H2196 H 0.42625 0.54031 0.06051 0.0
C2197 C 0.37478 0.5122 0.09136 0.0
C2198 C 0.42204 0.5241 0.1122 0.0
C2199 C 0.35818 0.50657 0.09677 0.0
C2200 C 0.48904 0.54599 0.084 0.0
C2201 C 0.47293 0.5444 0.09133 0.0
C2202 C 0.42525 0.53577 0.07497 0.0
C2203 C 0.38915 0.52142 0.1059 0.0
C2204 C 0.40694 0.52652 0.10001 0.0
C2205 C 0.4573 0.53459 0.07919 0.0
C2206 C 0.44019 0.53275 0.08685 0.0
H2207 H 0.36812 0.52206 0.14707 0.0
H2208 H 0.39719 0.53225 0.13754 0.0
H2209 H 0.39755 0.53521 0.07197 0.0
H2210 H 0.47444 0.5211 0.03733 0.0
H2211 H 0.44623 0.51848 0.05006 0.0
C2212 C 0.35725 0.62295 0.78439 0.0
C2213 C 0.37579 0.62552 0.78913 0.0
C2214 C 0.34854 0.63818 0.78617 0.0
C2215 C 0.3564 0.689 0.80985 0.0
H2216 H 0.31329 0.68962 0.77517 0.0
C2217 C 0.32813 0.75691 0.80901 0.0
C2218 C 0.30971 0.75585 0.80538 0.0
C2219 C 0.33548 0.74086 0.8072 0.0
C2220 C 0.32523 0.68975 0.78522 0.0
H2221 H 0.3994 0.64683 0.79907 0.0
H2222 H 0.38466 0.67271 0.8017 0.0
H2223 H 0.32681 0.66248 0.77159 0.0
H2224 H 0.28477 0.73634 0.79685 0.0
H2225 H 0.29745 0.70857 0.79385 0.0
H2226 H 0.35492 0.7162 0.82345 0.0
C2227 C 0.37655 0.659 0.79711 0.0
C2228 C 0.33308 0.67397 0.78314 0.0
C2229 C 0.38516 0.64392 0.79539 0.0
C2230 C 0.29898 0.73797 0.79989 0.0
C2231 C 0.30635 0.72189 0.79797 0.0
C2232 C 0.34862 0.70473 0.81187 0.0
C2233 C 0.35801 0.6566 0.79278 0.0
C2234 C 0.34897 0.67326 0.7953 0.0
C2235 C 0.3248 0.72292 0.80158 0.0
C2236 C 0.3329 0.7056 0.79954 0.0
H2237 H 0.34941 0.60914 0.77956 0.0
H2238 H 0.33429 0.63538 0.78272 0.0
H2239 H 0.36827 0.68921 0.82004 0.0
H2240 H 0.33701 0.77025 0.81311 0.0
H2241 H 0.34971 0.74264 0.80987 0.0
C2242 C 0.29043 0.66629 0.58334 0.0
C2243 C 0.29727 0.66758 0.56524 0.0
C2244 C 0.27323 0.65673 0.58331 0.0
C2245 C 0.23785 0.62027 0.55495 0.0
H2246 H 0.20756 0.6447 0.58546 0.0
C2247 C 0.16405 0.58783 0.55395 0.0
C2248 C 0.1571 0.59066 0.57196 0.0
C2249 C 0.18106 0.59707 0.55235 0.0
C2250 C 0.21589 0.63754 0.57709 0.0
H2251 H 0.29157 0.65952 0.53292 0.0
H2252 H 0.2615 0.64244 0.53295 0.0
H2253 H 0.23749 0.66083 0.58419 0.0
H2254 H 0.16269 0.60483 0.6026 0.0
H2255 H 0.19244 0.62054 0.60005 0.0
H2256 H 0.21646 0.59677 0.54828 0.0
C2257 C 0.26949 0.64897 0.54711 0.0
C2258 C 0.23301 0.64684 0.5763 0.0
C2259 C 0.28665 0.65879 0.54711 0.0
C2260 C 0.1676 0.60262 0.58843 0.0
C2261 C 0.18464 0.61169 0.58691 0.0
C2262 C 0.22075 0.61085 0.55593 0.0
C2263 C 0.26257 0.64804 0.56521 0.0
C2264 C 0.2442 0.63827 0.56534 0.0
C2265 C 0.19155 0.60919 0.56879 0.0
C2266 C 0.20959 0.61931 0.56715 0.0
H2267 H 0.29824 0.67294 0.59756 0.0
H2268 H 0.26827 0.65608 0.59748 0.0
H2269 H 0.24627 0.61331 0.5465 0.0
H2270 H 0.15618 0.57881 0.54095 0.0
H2271 H 0.18583 0.59497 0.53809 0.0
C2272 C 0.65373 0.92731 0.8101 0.0
C2273 C 0.65933 0.94665 0.81393 0.0
C2274 C 0.66523 0.91578 0.81559 0.0
C2275 C 0.71299 0.91577 0.82841 0.0
H2276 H 0.69524 0.86875 0.84516 0.0
C2277 C 0.75889 0.86522 0.84601 0.0
C2278 C 0.75251 0.84739 0.83521 0.0
C2279 C 0.7476 0.87782 0.84769 0.0
C2280 C 0.70039 0.88186 0.84054 0.0
H2281 H 0.68138 0.96901 0.82692 0.0
H2282 H 0.70127 0.94897 0.83682 0.0
H2283 H 0.67535 0.88988 0.83915 0.0
H2284 H 0.72927 0.82831 0.81884 0.0
H2285 H 0.70957 0.84995 0.8224 0.0
H2286 H 0.73797 0.90756 0.82955 0.0
C2287 C 0.68811 0.94265 0.82919 0.0
C2288 C 0.68897 0.89395 0.83697 0.0
C2289 C 0.67666 0.95417 0.82357 0.0
C2290 C 0.7345 0.84196 0.82734 0.0
C2291 C 0.72321 0.85436 0.82937 0.0
C2292 C 0.72442 0.90371 0.8321 0.0
C2293 C 0.6826 0.92328 0.82519 0.0
C2294 C 0.69503 0.91094 0.83048 0.0
C2295 C 0.72972 0.87264 0.83892 0.0
C2296 C 0.71818 0.88646 0.83784 0.0
H2297 H 0.64049 0.92103 0.80266 0.0
H2298 H 0.66056 0.90096 0.81192 0.0
H2299 H 0.71813 0.92857 0.82317 0.0
H2300 H 0.77277 0.86978 0.85199 0.0
H2301 H 0.75297 0.89177 0.85528 0.0
C2302 C 0.75964 0.02397 0.60906 0.0
C2303 C 0.75501 1.00466 0.60805 0.0
C2304 C 0.74798 0.03359 0.59964 0.0
C2305 C 0.71406 0.0278 0.55694 0.0
H2306 H 0.69482 0.06585 0.5857 0.0
C2307 C 0.64972 0.04759 0.52572 0.0
C2308 C 0.64649 0.06519 0.53204 0.0
C2309 C 0.66547 0.04272 0.53303 0.0
C2310 C 0.70037 0.05562 0.57726 0.0
H2311 H 0.73444 0.98035 0.59671 0.0
H2312 H 0.71434 0.99712 0.57999 0.0
H2313 H 0.7175 0.05264 0.60342 0.0
H2314 H 0.65794 0.09199 0.54979 0.0
H2315 H 0.68579 0.08381 0.56174 0.0
H2316 H 0.6972 0.03071 0.53074 0.0
C2317 C 0.72692 1.00477 0.58816 0.0
C2318 C 0.71326 0.04799 0.5875 0.0
C2319 C 0.73837 0.99523 0.59788 0.0
C2320 C 0.65999 0.07832 0.54456 0.0
C2321 C 0.67587 0.07352 0.55168 0.0
C2322 C 0.70143 0.03565 0.5466 0.0
C2323 C 0.73173 0.02396 0.58873 0.0
C2324 C 0.7198 0.03366 0.57753 0.0
C2325 C 0.67854 0.05544 0.54661 0.0
C2326 C 0.694 0.04925 0.55675 0.0
H2327 H 0.77239 0.03158 0.61679 0.0
H2328 H 0.75189 0.04843 0.60029 0.0
H2329 H 0.71915 0.01691 0.54892 0.0
H2330 H 0.63974 0.03725 0.51578 0.0
H2331 H 0.6669 0.02863 0.52883 0.0
C2332 C 0.35632 0.50781 0.79108 0.0
C2333 C 0.36909 0.50968 0.77801 0.0
C2334 C 0.34739 0.49011 0.79397 0.0
C2335 C 0.33713 0.43945 0.77099 0.0
H2336 H 0.32705 0.43065 0.8238 0.0
C2337 C 0.31232 0.36414 0.78809 0.0
C2338 C 0.30135 0.36143 0.80295 0.0
C2339 C 0.31991 0.38214 0.78479 0.0
C2340 C 0.32945 0.43273 0.8088 0.0
H2341 H 0.38203 0.49382 0.75764 0.0
H2342 H 0.3667 0.46357 0.76255 0.0
H2343 H 0.34064 0.46162 0.81861 0.0
H2344 H 0.28966 0.37597 0.82569 0.0
H2345 H 0.30234 0.40697 0.81975 0.0
H2346 H 0.32588 0.41068 0.76108 0.0
C2347 C 0.36336 0.47565 0.77054 0.0
C2348 C 0.33736 0.45071 0.80583 0.0
C2349 C 0.37233 0.49322 0.7678 0.0
C2350 C 0.29805 0.37736 0.81416 0.0
C2351 C 0.30555 0.39531 0.81083 0.0
C2352 C 0.32915 0.4215 0.77393 0.0
C2353 C 0.35075 0.47363 0.78376 0.0
C2354 C 0.3415 0.45446 0.78688 0.0
C2355 C 0.31679 0.39818 0.79617 0.0
C2356 C 0.3252 0.41766 0.79293 0.0
H2357 H 0.35341 0.52001 0.79933 0.0
H2358 H 0.33772 0.48938 0.80416 0.0
H2359 H 0.3397 0.44155 0.75604 0.0
H2360 H 0.31531 0.35232 0.77918 0.0
H2361 H 0.32858 0.38339 0.77354 0.0
C2362 C 0.1784 0.55553 0.30925 0.0
C2363 C 0.16199 0.55052 0.29672 0.0
C2364 C 0.19017 0.5719 0.30801 0.0
C2365 C 0.19179 0.61682 0.28906 0.0
H2366 H 0.24179 0.6173 0.29086 0.0
C2367 C 0.2383 0.67552 0.26345 0.0
C2368 C 0.25418 0.68337 0.27631 0.0
C2369 C 0.22788 0.65902 0.26652 0.0
C2370 C 0.22788 0.61739 0.2905 0.0
H2371 H 0.14511 0.55875 0.27304 0.0
H2372 H 0.1656 0.58692 0.27068 0.0
H2373 H 0.2218 0.58929 0.29583 0.0
H2374 H 0.27182 0.67962 0.30213 0.0
H2375 H 0.25367 0.65055 0.30725 0.0
H2376 H 0.19778 0.64476 0.28336 0.0
C2377 C 0.16932 0.57848 0.28175 0.0
C2378 C 0.21643 0.60139 0.29342 0.0
C2379 C 0.15758 0.56223 0.28303 0.0
C2380 C 0.25976 0.67387 0.29181 0.0
C2381 C 0.24935 0.65725 0.29481 0.0
C2382 C 0.20317 0.63271 0.28601 0.0
C2383 C 0.18576 0.58356 0.29421 0.0
C2384 C 0.19821 0.60085 0.29247 0.0
C2385 C 0.23312 0.64988 0.28244 0.0
C2386 C 0.2213 0.63311 0.28645 0.0
H2387 H 0.18218 0.54681 0.31997 0.0
H2388 H 0.20265 0.57549 0.31797 0.0
H2389 H 0.17791 0.61706 0.28871 0.0
H2390 H 0.2338 0.68225 0.25111 0.0
H2391 H 0.2156 0.65346 0.25649 0.0
C2392 C 0.53032 0.7817 0.43876 0.0
C2393 C 0.53649 0.78227 0.42017 0.0
C2394 C 0.53279 0.76762 0.45005 0.0
C2395 C 0.54312 0.7206 0.44648 0.0
H2396 H 0.55552 0.73333 0.50429 0.0
C2397 C 0.56497 0.66867 0.49629 0.0
C2398 C 0.55846 0.66794 0.51469 0.0
C2399 C 0.56246 0.68267 0.4849 0.0
C2400 C 0.55188 0.72947 0.4882 0.0
H2401 H 0.54999 0.76824 0.39885 0.0
H2402 H 0.55444 0.74378 0.41862 0.0
H2403 H 0.55062 0.75727 0.48404 0.0
H2404 H 0.54421 0.68157 0.53546 0.0
H2405 H 0.5399 0.70603 0.51564 0.0
H2406 H 0.54444 0.6928 0.45066 0.0
C2407 C 0.54748 0.75412 0.42438 0.0
C2408 C 0.54904 0.74323 0.47655 0.0
C2409 C 0.54499 0.76821 0.41305 0.0
C2410 C 0.54962 0.68181 0.52152 0.0
C2411 C 0.54713 0.69584 0.51012 0.0
C2412 C 0.54598 0.70685 0.45813 0.0
C2413 C 0.54154 0.75371 0.44312 0.0
C2414 C 0.54459 0.73899 0.45552 0.0
C2415 C 0.5534 0.69639 0.49157 0.0
C2416 C 0.5504 0.71109 0.47916 0.0
H2417 H 0.52364 0.79223 0.4447 0.0
H2418 H 0.52774 0.76761 0.46422 0.0
H2419 H 0.53946 0.71672 0.43039 0.0
H2420 H 0.57212 0.65844 0.4907 0.0
H2421 H 0.56777 0.68283 0.47089 0.0
C2422 C 0.58927 0.27481 0.75885 0.0
C2423 C 0.5812 0.28982 0.75546 0.0
C2424 C 0.6076 0.27724 0.76424 0.0
C2425 C 0.64943 0.31148 0.78473 0.0
H2426 H 0.67049 0.27328 0.75915 0.0
C2427 C 0.72662 0.31303 0.79486 0.0
C2428 C 0.73163 0.29578 0.7947 0.0
C2429 C 0.70856 0.31408 0.79102 0.0
C2430 C 0.66493 0.284 0.76675 0.0
H2431 H 0.58656 0.31949 0.75581 0.0
H2432 H 0.61874 0.32379 0.76539 0.0
H2433 H 0.63909 0.27194 0.75089 0.0
H2434 H 0.72142 0.26629 0.79144 0.0
H2435 H 0.69055 0.26808 0.78552 0.0
H2436 H 0.67552 0.32343 0.80071 0.0
C2437 C 0.61069 0.31003 0.76383 0.0
C2438 C 0.64676 0.28324 0.76192 0.0
C2439 C 0.59219 0.30757 0.75829 0.0
C2440 C 0.71815 0.27982 0.79154 0.0
C2441 C 0.70031 0.28085 0.78789 0.0
C2442 C 0.66776 0.31221 0.78967 0.0
C2443 C 0.61874 0.29481 0.76652 0.0
C2444 C 0.63856 0.29674 0.77105 0.0
C2445 C 0.6951 0.2979 0.78695 0.0
C2446 C 0.67578 0.29825 0.78102 0.0
H2447 H 0.58143 0.26092 0.75703 0.0
H2448 H 0.61307 0.26518 0.76658 0.0
H2449 H 0.6437 0.32216 0.79212 0.0
H2450 H 0.73663 0.3256 0.79705 0.0
H2451 H 0.7052 0.3275 0.79048 0.0
C2452 C 0.04911 0.38184 0.92364 0.0
C2453 C 0.03377 0.36791 0.92098 0.0
C2454 C 0.05031 0.3987 0.93614 0.0
C2455 C 0.02173 0.42746 0.96016 0.0
H2456 H 0.06576 0.45396 0.99233 0.0
C2457 C 0.02446 0.48948 0.02159 0.0
C2458 C 0.03776 0.50525 0.02219 0.0
C2459 C 0.02464 0.47285 0.00951 0.0
C2460 C 0.05339 0.44678 0.98332 0.0
H2461 H 1.00795 0.36059 0.93002 0.0
H2462 H 1.01022 0.38943 0.95205 0.0
H2463 H 0.06497 0.4248 0.97089 0.0
H2464 H 0.06195 0.51561 0.01083 0.0
H2465 H 0.06229 0.48654 0.98992 0.0
H2466 H 1.0101 0.44926 0.97283 0.0
C2467 C 0.02115 0.38775 0.94406 0.0
C2468 C 0.05293 0.43007 0.97095 0.0
C2469 C 0.01989 0.37107 0.93148 0.0
C2470 C 0.05144 0.5038 0.01071 0.0
C2471 C 0.05171 0.48709 0.99879 0.0
C2472 C 0.02216 0.44403 0.97264 0.0
C2473 C 0.03625 0.40197 0.94639 0.0
C2474 C 0.03705 0.42008 0.95927 0.0
C2475 C 0.0382 0.47145 0.99786 0.0
C2476 C 0.03796 0.45387 0.98446 0.0
H2477 H 0.06004 0.37987 0.91574 0.0
H2478 H 0.06211 0.40931 0.93737 0.0
H2479 H 1.00933 0.42053 0.95106 0.0
H2480 H 0.01371 0.49002 0.0302 0.0
H2481 H 0.01414 0.46102 0.00934 0.0
C2482 C 0.95902 0.80011 0.22682 0.0
C2483 C 0.97377 0.7972 0.23935 0.0
C2484 C 0.94275 0.80013 0.23363 0.0
C2485 C 0.91567 0.78527 0.27288 0.0
H2486 H 0.88806 0.81954 0.2536 0.0
C2487 C 0.84834 0.7935 0.30019 0.0
C2488 C 0.83503 0.7975 0.28638 0.0
C2489 C 0.86534 0.79309 0.29525 0.0
C2490 C 0.89538 0.80965 0.25897 0.0
H2491 H 0.98251 0.79182 0.26919 0.0
H2492 H 0.95397 0.7919 0.28122 0.0
H2493 H 0.91722 0.81989 0.24435 0.0
H2494 H 0.8294 0.80375 0.25618 0.0
H2495 H 0.85865 0.80275 0.24752 0.0
H2496 H 0.89368 0.77504 0.2875 0.0
C2497 C 0.95509 0.79411 0.26592 0.0
C2498 C 0.91228 0.80987 0.25365 0.0
C2499 C 0.97156 0.79416 0.25906 0.0
C2500 C 0.83921 0.8007 0.26733 0.0
C2501 C 0.85617 0.80028 0.2624 0.0
C2502 C 0.89868 0.78504 0.27822 0.0
C2503 C 0.94041 0.79723 0.25332 0.0
C2504 C 0.9227 0.79755 0.26027 0.0
C2505 C 0.86967 0.7967 0.27632 0.0
C2506 C 0.88811 0.7971 0.27117 0.0
H2507 H 0.95995 0.8024 0.21151 0.0
H2508 H 0.93186 0.80219 0.22321 0.0
H2509 H 0.92309 0.77544 0.27821 0.0
H2510 H 0.84575 0.79104 0.31504 0.0
H2511 H 0.87525 0.79042 0.30654 0.0
C2512 C 0.49877 0.32357 0.11575 0.0
C2513 C 0.50596 0.30793 0.11083 0.0
C2514 C 0.50537 0.34028 0.10939 0.0
C2515 C 0.53027 0.3611 0.07252 0.0
H2516 H 0.53899 0.40525 0.11219 0.0
C2517 C 0.56056 0.43356 0.05511 0.0
C2518 C 0.55231 0.4479 0.06198 0.0
C2519 C 0.55664 0.41629 0.06151 0.0
C2520 C 0.53652 0.39307 0.1009 0.0
H2521 H 0.52528 0.29736 0.09475 0.0
H2522 H 0.53673 0.32661 0.08354 0.0
H2523 H 0.52806 0.37521 0.12174 0.0
H2524 H 0.53334 0.45528 0.08077 0.0
H2525 H 0.52654 0.42536 0.09187 0.0
H2526 H 0.53839 0.37905 0.05156 0.0
C2527 C 0.52601 0.3259 0.09235 0.0
C2528 C 0.53025 0.37588 0.10637 0.0
C2529 C 0.51947 0.30918 0.09882 0.0
C2530 C 0.54024 0.44468 0.07554 0.0
C2531 C 0.53632 0.42749 0.0819 0.0
C2532 C 0.53648 0.37835 0.06701 0.0
C2533 C 0.51923 0.34169 0.09789 0.0
C2534 C 0.52679 0.35975 0.09217 0.0
C2535 C 0.54437 0.41305 0.07488 0.0
C2536 C 0.53939 0.39456 0.08107 0.0
H2537 H 0.48831 0.32307 0.12491 0.0
H2538 H 0.49968 0.35215 0.11358 0.0
H2539 H 0.52765 0.34889 0.06126 0.0
H2540 H 0.57002 0.43567 0.04476 0.0
H2541 H 0.5632 0.40549 0.056 0.0
C2542 C 0.02678 0.34422 0.41492 0.0
C2543 C 0.02986 0.32853 0.42326 0.0
C2544 C 1.01105 0.34355 0.40229 0.0
C2545 C 0.96531 0.3168 0.38772 0.0
H2546 H 0.9671 0.34108 0.3404 0.0
C2547 C 0.90441 0.3086 0.32768 0.0
C2548 C 0.90068 0.32518 0.32203 0.0
C2549 C 0.92065 0.30839 0.3388 0.0
C2550 C 0.96641 0.33432 0.35361 0.0
H2551 H 0.01875 0.29992 0.42509 0.0
H2552 H 0.99145 0.29868 0.40284 0.0
H2553 H 0.99431 0.34215 0.36292 0.0
H2554 H 0.91135 0.35444 0.32313 0.0
H2555 H 0.9398 0.35397 0.34222 0.0
H2556 H 0.9374 0.30893 0.37834 0.0
C2557 C 1.00108 0.31157 0.40626 0.0
C2558 C 0.98196 0.33498 0.36655 0.0
C2559 C 0.01678 0.31226 0.41894 0.0
C2560 C 0.91386 0.34138 0.32698 0.0
C2561 C 0.93015 0.34113 0.33798 0.0
C2562 C 0.94979 0.31605 0.37472 0.0
C2563 C 0.99809 0.32717 0.39767 0.0
C2564 C 0.98158 0.32631 0.38381 0.0
C2565 C 0.93355 0.32472 0.34435 0.0
C2566 C 0.95017 0.32487 0.35759 0.0
H2567 H 0.03656 0.35701 0.41804 0.0
H2568 H 1.00903 0.35591 0.39621 0.0
H2569 H 0.96452 0.31022 0.40104 0.0
H2570 H 0.89466 0.29582 0.32379 0.0
H2571 H 0.92305 0.29548 0.34324 0.0
C2572 C 0.9792 0.72606 0.58315 0.0
C2573 C 0.97037 0.72636 0.59998 0.0
C2574 C 0.98311 0.70958 0.5744 0.0
C2575 C 0.99172 0.66682 0.59132 0.0
H2576 H 1.00172 0.65545 0.53712 0.0
C2577 C 0.04199 0.62283 0.57583 0.0
C2578 C 0.03745 0.60849 0.5595 0.0
C2579 C 0.03193 0.63638 0.5779 0.0
C2580 C 0.99882 0.65834 0.55225 0.0
H2581 H 0.95682 0.7094 0.61934 0.0
H2582 H 0.96293 0.6805 0.60357 0.0
H2583 H 0.98467 0.67928 0.54477 0.0
H2584 H 0.01973 0.59779 0.53165 0.0
H2585 H 1.0018 0.62149 0.53543 0.0
H2586 H 1.00579 0.64603 0.59888 0.0
C2587 C 0.96753 0.69309 0.59762 0.0
C2588 C 0.98916 0.67205 0.55667 0.0
C2589 C 0.9639 0.7096 0.60658 0.0
C2590 C 0.02333 0.6086 0.54454 0.0
C2591 C 0.01314 0.62217 0.54666 0.0
C2592 C 1.00126 0.65316 0.5869 0.0
C2593 C 0.97804 0.69305 0.58218 0.0
C2594 C 0.98584 0.67673 0.57639 0.0
C2595 C 0.01705 0.63586 0.56371 0.0
C2596 C 1.00536 0.64913 0.56749 0.0
H2597 H 0.98435 0.73878 0.57772 0.0
H2598 H 0.99127 0.71013 0.5626 0.0
H2599 H 0.98971 0.67015 0.60674 0.0
H2600 H 0.05297 0.62324 0.58746 0.0
H2601 H 0.03559 0.64706 0.59091 0.0
C2602 C 0.60666 0.86438 0.89392 0.0
C2603 C 0.59579 0.85027 0.90131 0.0
C2604 C 0.61531 0.86023 0.87757 0.0
C2605 C 0.61689 0.82308 0.83593 0.0
H2606 H 0.66604 0.8476 0.84184 0.0
C2607 C 0.66818 0.79445 0.79313 0.0
C2608 C 0.68181 0.80703 0.78741 0.0
C2609 C 0.6559 0.80075 0.80419 0.0
C2610 C 0.65226 0.84085 0.83972 0.0
H2611 H 0.58493 0.82079 0.89673 0.0
H2612 H 0.60019 0.81351 0.86848 0.0
H2613 H 0.64785 0.8568 0.86633 0.0
H2614 H 0.69263 0.83619 0.78811 0.0
H2615 H 0.67112 0.84716 0.80718 0.0
H2616 H 0.62154 0.80677 0.80956 0.0
C2617 C 0.60189 0.82784 0.87513 0.0
C2618 C 0.64178 0.84613 0.8538 0.0
C2619 C 0.59319 0.83201 0.89143 0.0
C2620 C 0.68228 0.82608 0.79214 0.0
C2621 C 0.67005 0.83239 0.80329 0.0
C2622 C 0.6274 0.81776 0.82185 0.0
C2623 C 0.61335 0.84185 0.86824 0.0
C2624 C 0.62402 0.83716 0.85226 0.0
C2625 C 0.65696 0.8198 0.80986 0.0
C2626 C 0.64528 0.82643 0.82372 0.0
H2627 H 0.60886 0.87862 0.90106 0.0
H2628 H 0.62374 0.87142 0.87244 0.0
H2629 H 0.60319 0.81607 0.83408 0.0
H2630 H 0.66728 0.77969 0.78952 0.0
H2631 H 0.64606 0.79066 0.80907 0.0
C2632 C 0.42705 0.58908 0.71622 0.0
C2633 C 0.42439 0.57649 0.73005 0.0
C2634 C 0.43795 0.58688 0.70136 0.0
C2635 C 0.47405 0.56267 0.68669 0.0
H2636 H 0.46161 0.57764 0.63503 0.0
C2637 C 0.51277 0.54794 0.61938 0.0
C2638 C 0.5141 0.55991 0.60481 0.0
C2639 C 0.50241 0.55022 0.63483 0.0
C2640 C 0.46558 0.57361 0.64941 0.0
H2641 H 0.43158 0.5515 0.73862 0.0
H2642 H 0.45054 0.54757 0.71271 0.0
H2643 H 0.44271 0.58046 0.66074 0.0
H2644 H 0.50548 0.58404 0.59567 0.0
H2645 H 0.48783 0.58834 0.62271 0.0
H2646 H 0.49697 0.55588 0.67537 0.0
C2647 C 0.44422 0.55936 0.71348 0.0
C2648 C 0.45458 0.57522 0.66434 0.0
C2649 C 0.43319 0.56154 0.72838 0.0
C2650 C 0.50494 0.57454 0.60656 0.0
C2651 C 0.49456 0.57686 0.62207 0.0
C2652 C 0.4851 0.56111 0.67176 0.0
C2653 C 0.4468 0.57198 0.69957 0.0
C2654 C 0.45856 0.56982 0.68336 0.0
C2655 C 0.4929 0.56461 0.63646 0.0
C2656 C 0.48114 0.56656 0.65274 0.0
H2657 H 0.42069 0.60085 0.71685 0.0
H2658 H 0.43964 0.59718 0.69142 0.0
H2659 H 0.47793 0.55858 0.70107 0.0
H2660 H 0.51943 0.53638 0.61858 0.0
H2661 H 0.5015 0.54023 0.64516 0.0
C2662 C 0.83194 0.23948 0.99987 0.0
C2663 C 0.83123 0.2203 0.99621 0.0
C2664 C 0.82647 0.24894 0.98432 0.0
C2665 C 0.79857 0.24024 0.93419 0.0
H2666 H 0.82404 0.2885 0.92752 0.0
C2667 C 0.78913 0.26923 0.85987 0.0
C2668 C 0.78929 0.2882 0.86012 0.0
C2669 C 0.79294 0.26212 0.87764 0.0
C2670 C 0.81661 0.27515 0.92935 0.0
H2671 H 0.82468 0.19621 0.9731 0.0
H2672 H 0.81545 0.2126 0.94617 0.0
H2673 H 0.83385 0.27401 0.95618 0.0
H2674 H 0.79335 0.31451 0.87951 0.0
H2675 H 0.80005 0.302 0.91075 0.0
H2676 H 0.78152 0.24118 0.90728 0.0
C2677 C 0.81987 0.22034 0.96109 0.0
C2678 C 0.82226 0.26682 0.94578 0.0
C2679 C 0.82532 0.21094 0.97656 0.0
C2680 C 0.79301 0.29982 0.87877 0.0
C2681 C 0.79701 0.29269 0.89664 0.0
C2682 C 0.79297 0.24853 0.91782 0.0
C2683 C 0.82011 0.23942 0.96477 0.0
C2684 C 0.81351 0.24907 0.94819 0.0
C2685 C 0.79713 0.27374 0.89627 0.0
C2686 C 0.8021 0.26594 0.91493 0.0
H2687 H 0.83638 0.24713 0.01484 0.0
H2688 H 0.82678 0.2636 0.98774 0.0
H2689 H 0.7912 0.22679 0.93581 0.0
H2690 H 0.78631 0.25982 0.84584 0.0
H2691 H 0.79311 0.24752 0.87668 0.0
C2692 C 0.11285 0.49592 0.23797 0.0
C2693 C 0.10095 0.49313 0.25181 0.0
C2694 C 0.10741 0.50046 0.2191 0.0
C2695 C 0.06846 0.50085 0.18183 0.0
H2696 H 0.10001 0.54152 0.16614 0.0
C2697 C 0.0495 0.53659 0.11244 0.0
C2698 C 0.06313 0.54271 0.10158 0.0
C2699 C 0.05325 0.52952 0.13042 0.0
C2700 C 0.09111 0.52995 0.17005 0.0
H2701 H 0.07369 0.49208 0.25615 0.0
H2702 H 0.06418 0.49987 0.22314 0.0
H2703 H 0.10814 0.53035 0.1974 0.0
H2704 H 0.09115 0.54556 0.10055 0.0
H2705 H 0.09757 0.53286 0.13125 0.0
H2706 H 0.05147 0.50041 0.15429 0.0
C2707 C 0.07776 0.49856 0.22693 0.0
C2708 C 0.0958 0.52355 0.18807 0.0
C2709 C 0.08324 0.49414 0.2459 0.0
C2710 C 0.08038 0.54113 0.10869 0.0
C2711 C 0.08409 0.53397 0.12644 0.0
C2712 C 0.0638 0.50719 0.16365 0.0
C2713 C 0.08988 0.50223 0.21349 0.0
C2714 C 0.08462 0.50885 0.19417 0.0
C2715 C 0.07067 0.52835 0.13781 0.0
C2716 C 0.07514 0.52176 0.15742 0.0
H2717 H 0.12658 0.49524 0.24193 0.0
H2718 H 0.11703 0.50288 0.20899 0.0
H2719 H 0.05957 0.48946 0.18605 0.0
H2720 H 0.03607 0.53767 0.1073 0.0
H2721 H 0.04257 0.52543 0.13877 0.0
C2722 C 0.78213 0.93156 0.56351 0.0
C2723 C 0.7761 0.94808 0.56223 0.0
C2724 C 0.77745 0.91699 0.54758 0.0
C2725 C 0.7629 0.9083 0.49292 0.0
H2726 H 0.76002 0.8572 0.50101 0.0
C2727 C 0.7572 0.85024 0.42686 0.0
C2728 C 0.77095 0.84044 0.42906 0.0
C2729 C 0.75352 0.86128 0.44335 0.0
C2730 C 0.76068 0.8714 0.49855 0.0
H2731 H 0.75969 0.96198 0.54372 0.0
H2732 H 0.75109 0.93632 0.51607 0.0
H2733 H 0.76098 0.88088 0.52967 0.0
H2734 H 0.79099 0.83388 0.4506 0.0
H2735 H 0.78425 0.85277 0.47939 0.0
H2736 H 0.76279 0.89879 0.46184 0.0
C2737 C 0.75985 0.9348 0.52916 0.0
C2738 C 0.76133 0.88499 0.51494 0.0
C2739 C 0.76472 0.94948 0.54502 0.0
C2740 C 0.78018 0.84103 0.44836 0.0
C2741 C 0.77635 0.85189 0.46487 0.0
C2742 C 0.762 0.89469 0.47652 0.0
C2743 C 0.76643 0.9185 0.53008 0.0
C2744 C 0.76301 0.90369 0.51241 0.0
C2745 C 0.76333 0.86251 0.46242 0.0
C2746 C 0.76139 0.87621 0.47928 0.0
H2747 H 0.79096 0.93007 0.57656 0.0
H2748 H 0.78305 0.90483 0.54874 0.0
H2749 H 0.76444 0.92255 0.49038 0.0
H2750 H 0.74954 0.84975 0.4123 0.0
H2751 H 0.74329 0.86921 0.44114 0.0
C2752 C 0.42792 0.57929 0.85106 0.0
C2753 C 0.43054 0.56675 0.83493 0.0
C2754 C 0.43733 0.58045 0.87047 0.0
C2755 C 0.47759 0.56834 0.89744 0.0
H2756 H 0.454 0.57301 0.94427 0.0
C2757 C 0.50967 0.55574 0.97494 0.0
C2758 C 0.50703 0.56633 0.99257 0.0
C2759 C 0.50051 0.55687 0.95612 0.0
C2760 C 0.46093 0.57195 0.93144 0.0
H2761 H 0.44536 0.5457 0.82685 0.0
H2762 H 0.46155 0.54771 0.86026 0.0
H2763 H 0.43799 0.57338 0.91108 0.0
H2764 H 0.49255 0.58659 0.0039 0.0
H2765 H 0.47676 0.58875 0.9711 0.0
H2766 H 0.50051 0.56692 0.91763 0.0
C2767 C 0.45239 0.55682 0.85803 0.0
C2768 C 0.45169 0.57216 0.9123 0.0
C2769 C 0.44296 0.55559 0.83877 0.0
C2770 C 0.49494 0.57816 0.99073 0.0
C2771 C 0.48577 0.57932 0.97185 0.0
C2772 C 0.48682 0.56818 0.91652 0.0
C2773 C 0.44974 0.56922 0.87426 0.0
C2774 C 0.45981 0.57012 0.89494 0.0
C2775 C 0.4884 0.56869 0.95419 0.0
C2776 C 0.47862 0.56975 0.93386 0.0
H2777 H 0.41847 0.58809 0.84876 0.0
H2778 H 0.43498 0.59029 0.88247 0.0
H2779 H 0.4845 0.56714 0.88459 0.0
H2780 H 0.51875 0.54638 0.97564 0.0
H2781 H 0.50277 0.54818 0.94308 0.0
C2782 C 0.83484 0.2303 0.11923 0.0
C2783 C 0.8366 0.2409 0.10355 0.0
C2784 C 0.83001 0.23758 0.13732 0.0
C2785 C 0.80899 0.27539 0.15908 0.0
H2786 H 0.82387 0.25863 0.20904 0.0
C2787 C 0.78952 0.30209 0.23675 0.0
C2788 C 0.78269 0.28783 0.24715 0.0
C2789 C 0.79747 0.29812 0.21961 0.0
C2790 C 0.8196 0.26346 0.1952 0.0
H2791 H 0.83534 0.2678 0.09503 0.0
H2792 H 0.82762 0.28071 0.12671 0.0
H2793 H 0.83573 0.24866 0.1789 0.0
H2794 H 0.77912 0.25832 0.2479 0.0
H2795 H 0.79311 0.25157 0.21854 0.0
H2796 H 0.79297 0.29034 0.17567 0.0
C2797 C 0.82939 0.26655 0.1249 0.0
C2798 C 0.82631 0.25763 0.17781 0.0
C2799 C 0.83401 0.25919 0.10672 0.0
C2800 C 0.78415 0.26965 0.24021 0.0
C2801 C 0.79231 0.26576 0.22343 0.0
C2802 C 0.80246 0.28142 0.17657 0.0
C2803 C 0.82701 0.25578 0.1404 0.0
C2804 C 0.82086 0.26319 0.15934 0.0
C2805 C 0.79906 0.27989 0.21286 0.0
C2806 C 0.80742 0.27524 0.19475 0.0
H2807 H 0.83656 0.21612 0.11727 0.0
H2808 H 0.82807 0.22865 0.14863 0.0
H2809 H 0.80422 0.27984 0.1452 0.0
H2810 H 0.78864 0.31623 0.24179 0.0
H2811 H 0.80259 0.30932 0.21179 0.0
C2812 C 0.10735 0.50438 0.36563 0.0
C2813 C 0.10433 0.51413 0.34951 0.0
C2814 C 0.09976 0.50769 0.38305 0.0
C2815 C 0.07956 0.54302 0.41056 0.0
H2816 H 0.06608 0.50399 0.44195 0.0
C2817 C 0.04404 0.55346 0.48029 0.0
C2818 C 0.05086 0.54665 0.49738 0.0
C2819 C 0.04967 0.54913 0.46176 0.0
C2820 C 0.06987 0.51506 0.43339 0.0
H2821 H 0.09038 0.53449 0.33877 0.0
H2822 H 0.0767 0.53981 0.36875 0.0
H2823 H 0.07706 0.49676 0.41039 0.0
H2824 H 0.06875 0.5297 0.50825 0.0
H2825 H 0.07839 0.52208 0.47599 0.0
H2826 H 0.07214 0.56123 0.43354 0.0
C2827 C 0.08537 0.53001 0.36829 0.0
C2828 C 0.07624 0.51094 0.4153 0.0
C2829 C 0.09311 0.52685 0.35098 0.0
C2830 C 0.06326 0.53525 0.49544 0.0
C2831 C 0.0687 0.53076 0.4769 0.0
C2832 C 0.07301 0.54708 0.42854 0.0
C2833 C 0.08878 0.52069 0.38473 0.0
C2834 C 0.08133 0.52489 0.40368 0.0
C2835 C 0.06204 0.53769 0.45985 0.0
C2836 C 0.06824 0.53319 0.44026 0.0
H2837 H 0.116 0.49456 0.36505 0.0
H2838 H 0.10293 0.5004 0.39543 0.0
H2839 H 0.08363 0.55424 0.40231 0.0
H2840 H 0.03447 0.56226 0.48125 0.0
H2841 H 0.0442 0.55458 0.44886 0.0
C2842 C 0.8018 0.95149 0.67712 0.0
C2843 C 0.80643 0.94484 0.65865 0.0
C2844 C 0.80034 0.94029 0.69218 0.0
C2845 C 0.81292 0.89781 0.70786 0.0
H2846 H 0.77552 0.8994 0.74041 0.0
C2847 C 0.79676 0.84556 0.76243 0.0
C2848 C 0.79557 0.85351 0.78194 0.0
C2849 C 0.79714 0.85627 0.74689 0.0
C2850 C 0.78606 0.89888 0.73146 0.0
H2851 H 0.81315 0.92123 0.64146 0.0
H2852 H 0.81019 0.90162 0.6674 0.0
H2853 H 0.77855 0.91928 0.71448 0.0
H2854 H 0.79311 0.87854 0.80044 0.0
H2855 H 0.7936 0.89719 0.77326 0.0
H2856 H 0.82024 0.87721 0.72473 0.0
C2857 C 0.80807 0.9156 0.67053 0.0
C2858 C 0.78788 0.91033 0.7167 0.0
C2859 C 0.80969 0.92683 0.65559 0.0
C2860 C 0.79413 0.87211 0.78553 0.0
C2861 C 0.79431 0.88275 0.76997 0.0
C2862 C 0.81098 0.88624 0.72249 0.0
C2863 C 0.80333 0.92214 0.689 0.0
C2864 C 0.80138 0.91 0.70476 0.0
C2865 C 0.7961 0.87501 0.75057 0.0
C2866 C 0.79759 0.88671 0.73448 0.0
H2867 H 0.79928 0.96533 0.67995 0.0
H2868 H 0.79695 0.9459 0.70634 0.0
H2869 H 0.82366 0.89739 0.69922 0.0
H2870 H 0.79781 0.83121 0.75928 0.0
H2871 H 0.79834 0.84992 0.73201 0.0
C2872 C 0.66427 0.43309 0.56952 0.0
C2873 C 0.68044 0.4387 0.56262 0.0
C2874 C 0.65229 0.44493 0.57096 0.0
C2875 C 0.64868 0.49418 0.5751 0.0
H2876 H 0.59903 0.47363 0.55698 0.0
C2877 C 0.59467 0.53937 0.56889 0.0
C2878 C 0.5775 0.53123 0.5715 0.0
C2879 C 0.6081 0.52905 0.56937 0.0
C2880 C 0.61278 0.47963 0.56249 0.0
H2881 H 0.69664 0.46137 0.55195 0.0
H2882 H 0.67573 0.48206 0.55456 0.0
H2883 H 0.62039 0.45385 0.5543 0.0
H2884 H 0.56126 0.50641 0.57808 0.0
H2885 H 0.58462 0.48888 0.57995 0.0
H2886 H 0.641 0.51998 0.5835 0.0
C2887 C 0.67237 0.46847 0.5589 0.0
C2888 C 0.62508 0.46822 0.56084 0.0
C2889 C 0.6843 0.45654 0.55726 0.0
C2890 C 0.57435 0.51306 0.57592 0.0
C2891 C 0.58774 0.5029 0.5767 0.0
C2892 C 0.63631 0.50562 0.57693 0.0
C2893 C 0.65616 0.4628 0.56572 0.0
C2894 C 0.6432 0.47527 0.56719 0.0
C2895 C 0.60466 0.51043 0.57265 0.0
C2896 C 0.61812 0.49848 0.57077 0.0
H2897 H 0.66083 0.4195 0.57385 0.0
H2898 H 0.64005 0.44013 0.57648 0.0
H2899 H 0.66251 0.50006 0.58029 0.0
H2900 H 0.59742 0.55325 0.56515 0.0
H2901 H 0.6209 0.53539 0.56611 0.0
C2902 C 0.19719 0.13437 0.48317 0.0
C2903 C 0.21003 0.1237 0.4867 0.0
C2904 C 0.18016 0.12869 0.48753 0.0
C2905 C 0.14893 0.08881 0.49946 0.0
H2906 H 0.12972 0.12735 0.5275 0.0
C2907 C 0.09186 0.09731 0.55269 0.0
C2908 C 0.07748 0.08433 0.54161 0.0
C2909 C 0.10758 0.1016 0.54481 0.0
C2910 C 0.13494 0.1164 0.5198 0.0
H2911 H 0.21486 0.09828 0.49675 0.0
H2912 H 0.18521 0.0885 0.50466 0.0
H2913 H 0.15774 0.13536 0.51522 0.0
H2914 H 0.0682 0.06547 0.51377 0.0
H2915 H 0.09564 0.07313 0.49984 0.0
H2916 H 0.12635 0.06978 0.50469 0.0
C2917 C 0.18823 0.10117 0.49831 0.0
C2918 C 0.15089 0.12103 0.51249 0.0
C2919 C 0.20526 0.10682 0.49386 0.0
C2920 C 0.07912 0.07556 0.5226 0.0
C2921 C 0.09485 0.07987 0.51469 0.0
C2922 C 0.13295 0.08417 0.5068 0.0
C2923 C 0.1756 0.11225 0.49561 0.0
C2924 C 0.15814 0.10728 0.50234 0.0
C2925 C 0.10922 0.09302 0.52567 0.0
C2926 C 0.12587 0.09791 0.51722 0.0
H2927 H 0.20039 0.14737 0.47747 0.0
H2928 H 0.17063 0.13735 0.48488 0.0
H2929 H 0.15409 0.07792 0.49156 0.0
H2930 H 0.09097 0.10417 0.56745 0.0
H2931 H 0.11851 0.11155 0.5538 0.0
C2932 C 0.21191 0.98881 0.81926 0.0
C2933 C 0.1933 0.98573 0.81499 0.0
C2934 C 0.22099 0.97384 0.81812 0.0
C2935 C 0.21317 0.92139 0.81639 0.0
H2936 H 0.25876 0.9256 0.79838 0.0
C2937 C 0.24343 0.85552 0.79932 0.0
C2938 C 0.26191 0.85684 0.80231 0.0
C2939 C 0.23583 0.87141 0.80096 0.0
C2940 C 0.24611 0.92405 0.80368 0.0
H2941 H 0.17003 0.9638 0.80599 0.0
H2942 H 0.18547 0.93842 0.80394 0.0
H2943 H 0.24478 0.95246 0.80148 0.0
H2944 H 0.28669 0.87673 0.80939 0.0
H2945 H 0.2736 0.90424 0.81241 0.0
H2946 H 0.21441 0.89316 0.81877 0.0
C2947 C 0.19327 0.95227 0.80851 0.0
C2948 C 0.238 0.93968 0.80548 0.0
C2949 C 0.18429 0.9671 0.80956 0.0
C2950 C 0.27244 0.87488 0.80683 0.0
C2951 C 0.26483 0.89084 0.8085 0.0
C2952 C 0.22125 0.90585 0.81463 0.0
C2953 C 0.21184 0.95515 0.81281 0.0
C2954 C 0.22121 0.93868 0.81168 0.0
C2955 C 0.24629 0.88952 0.80576 0.0
C2956 C 0.23786 0.90666 0.80805 0.0
H2957 H 0.2195 1.0028 0.82346 0.0
H2958 H 0.23524 0.97695 0.8217 0.0
H2959 H 0.20053 0.91978 0.82173 0.0
H2960 H 0.23468 0.84206 0.79576 0.0
H2961 H 0.22159 0.86937 0.79824 0.0
C2962 C 0.27656 0.95331 0.04702 0.0
C2963 C 0.27194 0.95135 0.06613 0.0
C2964 C 0.29335 0.9627 0.045 0.0
C2965 C 0.33884 0.97632 0.072 0.0
H2966 H 0.34576 0.00588 0.02932 0.0
C2967 C 0.40791 0.01422 0.06045 0.0
C2968 C 0.41155 0.01205 0.04059 0.0
C2969 C 0.39076 0.00857 0.06457 0.0
C2970 C 0.34403 0.9976 0.04125 0.0
H2971 H 0.2812 0.95818 0.09814 0.0
H2972 H 0.31047 0.97483 0.0946 0.0
H2973 H 0.31589 0.9933 0.03496 0.0
H2974 H 0.3999 1.00212 0.00952 0.0
H2975 H 0.37002 0.99256 0.01671 0.0
H2976 H 0.36703 0.98056 0.07816 0.0
C2977 C 0.30117 0.96883 0.08117 0.0
C2978 C 0.32692 0.99037 0.04448 0.0
C2979 C 0.28436 0.95939 0.0832 0.0
C2980 C 0.39756 1.00433 0.02495 0.0
C2981 C 0.38042 0.99881 0.02906 0.0
C2982 C 0.35596 0.98365 0.06883 0.0
C2983 C 0.30593 0.97042 0.06203 0.0
C2984 C 0.32411 0.9794 0.05969 0.0
C2985 C 0.37685 1.00075 0.04892 0.0
C2986 C 0.35873 0.99412 0.05322 0.0
H2987 H 0.26735 0.94723 0.03354 0.0
H2988 H 0.29662 0.9634 0.03002 0.0
H2989 H 0.33717 0.96773 0.08367 0.0
H2990 H 0.41829 0.02039 0.07284 0.0
H2991 H 0.38836 0.01042 0.08 0.0
C2992 C 0.90963 0.6802 0.80042 0.0
C2993 C 0.90094 0.66234 0.79112 0.0
C2994 C 0.90143 0.69537 0.799 0.0
C2995 C 0.86363 0.71002 0.76988 0.0
H2996 H 0.86889 0.74708 0.8168 0.0
C2997 C 0.81527 0.75982 0.78128 0.0
C2998 C 0.82224 0.77789 0.79127 0.0
C2999 C 0.82621 0.74695 0.77895 0.0
C3000 C 0.86749 0.73702 0.80344 0.0
H3001 H 0.87671 0.64651 0.77306 0.0
H3002 H 0.86235 0.67263 0.77101 0.0
H3003 H 0.88559 0.72252 0.81768 0.0
H3004 H 0.84641 0.79701 0.80516 0.0
H3005 H 0.86543 0.77467 0.80074 0.0
H3006 H 0.84511 0.72433 0.75589 0.0
C3007 C 0.87567 0.67514 0.77902 0.0
C3008 C 0.8771 0.72289 0.80393 0.0
C3009 C 0.88389 0.66006 0.78034 0.0
C3010 C 0.84054 0.7831 0.79774 0.0
C3011 C 0.85145 0.77028 0.79534 0.0
C3012 C 0.85395 0.7241 0.76944 0.0
C3013 C 0.88428 0.69305 0.78831 0.0
C3014 C 0.87511 0.70899 0.78727 0.0
C3015 C 0.84436 0.75188 0.78649 0.0
C3016 C 0.8556 0.73767 0.78629 0.0
H3017 H 0.92281 0.68249 0.80877 0.0
H3018 H 0.9086 0.70895 0.80616 0.0
H3019 H 0.86201 0.69986 0.75657 0.0
H3020 H 0.80123 0.75532 0.77617 0.0
H3021 H 0.82027 0.73289 0.77209 0.0
C3022 C 0.82249 0.59633 0.97752 0.0
C3023 C 0.80737 0.59728 0.98661 0.0
C3024 C 0.83483 0.5865 0.98502 0.0
C3025 C 0.85178 0.57145 0.03145 0.0
H3026 H 0.87354 0.54016 0.99647 0.0
C3027 C 0.90577 0.5344 0.06287 0.0
C3028 C 0.92022 0.53476 0.05233 0.0
C3029 C 0.89051 0.53977 0.05458 0.0
C3030 C 0.86769 0.54896 0.00644 0.0
H3031 H 0.79315 0.58831 0.01041 0.0
H3032 H 0.81478 0.57127 0.0235 0.0
H3033 H 0.84971 0.55392 0.98217 0.0
H3034 H 0.93011 0.5413 0.02501 0.0
H3035 H 0.90376 0.55079 0.01072 0.0
H3036 H 0.8701 0.56706 0.05564 0.0
C3037 C 0.81708 0.57818 0.01065 0.0
C3038 C 0.85403 0.5568 0.99823 0.0
C3039 C 0.80467 0.58786 0.00306 0.0
C3040 C 0.91905 0.54043 0.03331 0.0
C3041 C 0.9039 0.54588 0.0251 0.0
C3042 C 0.86555 0.56373 0.03965 0.0
C3043 C 0.83237 0.57756 1.00183 0.0
C3044 C 0.84608 0.56828 0.01063 0.0
C3045 C 0.88948 0.54573 0.03565 0.0
C3046 C 0.87383 0.5526 0.0272 0.0
H3047 H 0.82495 0.60343 0.96484 0.0
H3048 H 0.84659 0.58638 0.97803 0.0
H3049 H 0.84602 0.58042 0.04133 0.0
H3050 H 0.90629 0.53001 0.07753 0.0
H3051 H 0.87956 0.5393 0.06301 0.0
C3052 C 0.21135 0.10722 0.82859 0.0
C3053 C 0.196 0.09921 0.81472 0.0
C3054 C 0.22061 0.12553 0.82828 0.0
C3055 C 0.22629 0.1619 0.79405 0.0
H3056 H 0.24562 0.19671 0.84244 0.0
C3057 C 0.26814 0.23452 0.78987 0.0
C3058 C 0.266 0.2501 0.8027 0.0
C3059 C 0.26056 0.21639 0.79243 0.0
C3060 C 0.24025 0.18725 0.82872 0.0
H3061 H 0.17869 0.10479 0.7896 0.0
H3062 H 0.19454 0.13586 0.78904 0.0
H3063 H 0.23116 0.16496 0.84487 0.0
H3064 H 0.25427 0.25834 0.82878 0.0
H3065 H 0.24109 0.22671 0.83337 0.0
H3066 H 0.23508 0.18399 0.77783 0.0
C3067 C 0.19966 0.12818 0.80014 0.0
C3068 C 0.23208 0.16886 0.83013 0.0
C3069 C 0.1904 0.11015 0.80059 0.0
C3070 C 0.25628 0.2468 0.81857 0.0
C3071 C 0.24874 0.22855 0.82123 0.0
C3072 C 0.23456 0.18013 0.79264 0.0
C3073 C 0.21498 0.13633 0.8139 0.0
C3074 C 0.22476 0.15584 0.81279 0.0
C3075 C 0.25052 0.21295 0.80801 0.0
C3076 C 0.24168 0.19327 0.80991 0.0
H3077 H 0.21615 0.09942 0.83978 0.0
H3078 H 0.23236 0.13113 0.83913 0.0
H3079 H 0.2211 0.15247 0.78026 0.0
H3080 H 0.27557 0.23632 0.77753 0.0
H3081 H 0.26266 0.205 0.78209 0.0
C3082 C 0.38351 0.05597 0.26866 0.0
C3083 C 0.39007 0.07002 0.28513 0.0
C3084 C 0.37182 0.03989 0.27087 0.0
C3085 C 0.34116 0.02005 0.30383 0.0
H3086 H 0.35163 0.97344 0.28166 0.0
C3087 C 0.31073 0.95027 0.32708 0.0
C3088 C 0.3063 0.93452 0.31226 0.0
C3089 C 0.31967 0.96713 0.32284 0.0
C3090 C 0.34832 0.98631 0.28769 0.0
H3091 H 0.38901 0.07844 0.31666 0.0
H3092 H 0.36866 0.05045 0.32046 0.0
H3093 H 0.36907 1.00235 0.27555 0.0
H3094 H 0.3078 0.92426 0.28129 0.0
H3095 H 0.32291 0.95371 0.27377 0.0
H3096 H 0.32046 1.004 0.31608 0.0
C3097 C 0.37248 0.05188 0.30583 0.0
C3098 C 0.35834 1.0029 0.28418 0.0
C3099 C 0.38422 0.0679 0.30366 0.0
C3100 C 0.31079 0.93614 0.29302 0.0
C3101 C 0.31969 0.95299 0.28877 0.0
C3102 C 0.33108 1.00345 0.30729 0.0
C3103 C 0.36635 0.03757 0.28954 0.0
C3104 C 0.35498 0.01997 0.29234 0.0
C3105 C 0.32439 0.96866 0.30367 0.0
C3106 C 0.33462 0.98636 0.29939 0.0
H3107 H 0.38772 0.05717 0.25418 0.0
H3108 H 0.36717 0.0292 0.25798 0.0
H3109 H 0.3381 0.03298 0.31012 0.0
H3110 H 0.30731 0.94957 0.34199 0.0
H3111 H 0.32323 0.97886 0.33474 0.0
C3112 C 0.5197 0.33526 0.67894 0.0
C3113 C 0.53185 0.34103 0.69675 0.0
C3114 C 0.51701 0.34764 0.6654 0.0
C3115 C 0.52305 0.398 0.66283 0.0
H3116 H 0.51598 0.3825 0.60524 0.0
C3117 C 0.52266 0.4509 0.60756 0.0
C3118 C 0.51013 0.44638 0.59 0.0
C3119 C 0.52525 0.43763 0.61992 0.0
C3120 C 0.51774 0.38702 0.62128 0.0
H3121 H 0.55095 0.36433 0.71397 0.0
H3122 H 0.54646 0.38572 0.69037 0.0
H3123 H 0.52063 0.3602 0.62792 0.0
H3124 H 0.49065 0.4241 0.57163 0.0
H3125 H 0.49515 0.4009 0.59326 0.0
H3126 H 0.52017 0.42476 0.65628 0.0
C3127 C 0.53873 0.37173 0.68699 0.0
C3128 C 0.52041 0.37421 0.63431 0.0
C3129 C 0.5414 0.3594 0.7005 0.0
C3130 C 0.50051 0.42806 0.58494 0.0
C3131 C 0.5031 0.41474 0.59736 0.0
C3132 C 0.5204 0.41077 0.64984 0.0
C3133 C 0.5264 0.3661 0.66932 0.0
C3134 C 0.52322 0.37956 0.65528 0.0
C3135 C 0.51539 0.41941 0.61514 0.0
C3136 C 0.51782 0.40552 0.62887 0.0
H3137 H 0.51208 0.32123 0.67556 0.0
H3138 H 0.50729 0.34282 0.65207 0.0
H3139 H 0.52477 0.40257 0.67885 0.0
H3140 H 0.53062 0.46474 0.61172 0.0
H3141 H 0.53512 0.44167 0.63321 0.0
C3142 C 0.4698 0.79322 0.34851 0.0
C3143 C 0.48388 0.80866 0.35114 0.0
C3144 C 0.45233 0.79465 0.342 0.0
C3145 C 0.4231 0.8288 0.34059 0.0
H3146 H 0.39047 0.78973 0.30393 0.0
C3147 C 0.35196 0.83752 0.31422 0.0
C3148 C 0.33791 0.82207 0.31057 0.0
C3149 C 0.36959 0.83552 0.31745 0.0
C3150 C 0.39925 0.80071 0.3144 0.0
H3151 H 0.4903 0.83778 0.34857 0.0
H3152 H 0.45982 0.84033 0.33734 0.0
H3153 H 0.4212 0.78718 0.31247 0.0
H3154 H 0.33156 0.79221 0.30722 0.0
H3155 H 0.36236 0.78858 0.31337 0.0
H3156 H 0.40126 0.84212 0.34315 0.0
C3157 C 0.46234 0.82704 0.34037 0.0
C3158 C 0.41702 0.79927 0.31926 0.0
C3159 C 0.47991 0.82555 0.34666 0.0
C3160 C 0.34204 0.80441 0.30976 0.0
C3161 C 0.3598 0.80238 0.31331 0.0
C3162 C 0.40534 0.83016 0.33593 0.0
C3163 C 0.44822 0.81163 0.3381 0.0
C3164 C 0.42928 0.81332 0.3324 0.0
C3165 C 0.37394 0.81796 0.31758 0.0
C3166 C 0.39302 0.81621 0.32265 0.0
H3167 H 0.47222 0.77996 0.3518 0.0
H3168 H 0.44195 0.78249 0.34065 0.0
H3169 H 0.43192 0.83975 0.35107 0.0
H3170 H 0.34931 0.85135 0.31485 0.0
H3171 H 0.37981 0.84791 0.31998 0.0
C3172 C 0.02999 0.73662 0.18797 0.0
C3173 C 0.01679 0.74591 0.18108 0.0
C3174 C 0.0319 0.72003 0.17706 0.0
C3175 C 1.00785 0.68076 0.13877 0.0
H3176 H 0.05468 0.67284 0.13198 0.0
C3177 C 0.02027 0.60963 0.10559 0.0
C3178 C 0.03219 0.60943 0.09162 0.0
C3179 C 0.01851 0.6263 0.11642 0.0
C3180 C 0.04151 0.67486 0.13364 0.0
H3181 H 0.99516 0.74483 0.15731 0.0
H3182 H 0.99843 0.71587 0.13839 0.0
H3183 H 0.05126 0.70178 0.15088 0.0
H3184 H 0.05176 0.62679 0.07833 0.0
H3185 H 0.04875 0.65586 0.09732 0.0
H3186 H 0.99808 0.6539 0.12145 0.0
C3187 C 1.00726 0.72139 0.15228 0.0
C3188 C 0.03955 0.69139 0.14465 0.0
C3189 C 1.00544 0.73806 0.16311 0.0
C3190 C 0.04245 0.62637 0.08894 0.0
C3191 C 0.04078 0.64306 0.09991 0.0
C3192 C 1.00981 0.66418 0.12791 0.0
C3193 C 0.02058 0.7122 0.15905 0.0
C3194 C 0.02269 0.69457 0.14736 0.0
C3195 C 0.02871 0.64325 0.11371 0.0
C3196 C 0.02667 0.661 0.12519 0.0
H3197 H 0.039 0.74226 0.20172 0.0
H3198 H 0.04216 0.71323 0.18285 0.0
H3199 H 0.99468 0.68266 0.14067 0.0
H3200 H 0.01212 0.5969 0.10809 0.0
H3201 H 1.00925 0.62588 0.12709 0.0
C3202 C 0.10959 0.32018 0.88119 0.0
C3203 C 0.09427 0.32047 0.86789 0.0
C3204 C 0.12569 0.31924 0.87432 0.0
C3205 C 0.15094 0.32677 0.83156 0.0
H3206 H 0.18046 0.29756 0.85789 0.0
C3207 C 0.21783 0.31512 0.80549 0.0
C3208 C 0.23177 0.31383 0.82025 0.0
C3209 C 0.20089 0.31601 0.8104 0.0
C3210 C 0.1726 0.30603 0.85049 0.0
H3211 H 0.08434 0.32019 0.8366 0.0
H3212 H 0.1126 0.31853 0.8245 0.0
H3213 H 0.15162 0.29868 0.86745 0.0
H3214 H 0.23856 0.31283 0.85199 0.0
H3215 H 0.20945 0.31466 0.86054 0.0
H3216 H 0.17208 0.33416 0.81463 0.0
C3217 C 0.11204 0.31911 0.84042 0.0
C3218 C 0.15589 0.30665 0.85599 0.0
C3219 C 0.09576 0.31998 0.84734 0.0
C3220 C 0.22825 0.31372 0.84011 0.0
C3221 C 0.21137 0.31462 0.84501 0.0
C3222 C 0.16775 0.32618 0.82606 0.0
C3223 C 0.12728 0.31855 0.85381 0.0
C3224 C 0.14479 0.31719 0.84683 0.0
C3225 C 0.19728 0.31561 0.83025 0.0
C3226 C 0.179 0.31595 0.83558 0.0
H3227 H 0.10921 0.32064 0.89713 0.0
H3228 H 0.13703 0.31926 0.88528 0.0
H3229 H 0.14298 0.33518 0.8242 0.0
H3230 H 0.2199 0.31518 0.79001 0.0
H3231 H 0.19052 0.31658 0.79847 0.0
C3232 C 0.53887 0.80643 0.00365 0.0
C3233 C 0.54032 0.80792 0.98346 0.0
C3234 C 0.53053 0.78983 0.009 0.0
C3235 C 0.52035 0.73988 0.99041 0.0
H3236 H 0.49556 0.7374 0.03647 0.0
C3237 C 0.4974 0.67066 0.01811 0.0
C3238 C 0.50237 0.67085 0.03878 0.0
C3239 C 0.49818 0.68721 0.01018 0.0
C3240 C 0.50245 0.73789 0.02356 0.0
H3241 H 0.53319 0.79349 0.95291 0.0
H3242 H 0.51833 0.76463 0.96222 0.0
H3243 H 0.50365 0.76695 0.02436 0.0
H3244 H 0.51147 0.68867 0.0674 0.0
H3245 H 0.51269 0.71746 0.05359 0.0
H3246 H 0.51949 0.71095 0.98985 0.0
C3247 C 0.52402 0.77616 0.97398 0.0
C3248 C 0.50712 0.75481 0.01665 0.0
C3249 C 0.53246 0.79274 0.96863 0.0
C3250 C 0.50732 0.68798 0.05145 0.0
C3251 C 0.50804 0.70451 0.04353 0.0
C3252 C 0.51561 0.72298 0.99725 0.0
C3253 C 0.52334 0.77435 0.99428 0.0
C3254 C 0.51646 0.75609 1.00024 0.0
C3255 C 0.50388 0.70432 0.02275 0.0
C3256 C 0.50693 0.72185 0.01416 0.0
H3257 H 0.54478 0.81786 0.01545 0.0
H3258 H 0.53045 0.78892 0.02479 0.0
H3259 H 0.52779 0.74036 0.97795 0.0
H3260 H 0.49319 0.65771 0.00798 0.0
H3261 H 0.49463 0.68662 0.99414 0.0
C3262 C 0.03316 0.73636 0.67859 0.0
C3263 C 0.02512 0.75178 0.68017 0.0
C3264 C 0.04953 0.73702 0.68998 0.0
C3265 C 0.08014 0.76262 0.73483 0.0
H3266 H 0.11558 0.74345 0.70805 0.0
C3267 C 0.15422 0.77843 0.76825 0.0
C3268 C 0.16358 0.76413 0.76537 0.0
C3269 C 0.13672 0.77608 0.75907 0.0
C3270 C 0.10576 0.74863 0.71585 0.0
H3271 H 0.02785 0.77989 0.69516 0.0
H3272 H 0.05641 0.78105 0.71485 0.0
H3273 H 0.08611 0.74071 0.68975 0.0
H3274 H 0.16179 0.73606 0.75077 0.0
H3275 H 0.13122 0.73184 0.73524 0.0
H3276 H 0.0999 0.77071 0.76089 0.0
C3277 C 0.05 0.76839 0.70499 0.0
C3278 C 0.08887 0.74705 0.70535 0.0
C3279 C 0.03367 0.76775 0.69359 0.0
C3280 C 0.15492 0.74729 0.75352 0.0
C3281 C 0.13745 0.74495 0.74438 0.0
C3282 C 0.09705 0.76419 0.74535 0.0
C3283 C 0.05817 0.75308 0.70321 0.0
C3284 C 0.07589 0.75411 0.71468 0.0
C3285 C 0.12823 0.7594 0.74681 0.0
C3286 C 0.11008 0.75728 0.73594 0.0
H3287 H 0.0269 0.72383 0.66844 0.0
H3288 H 0.05541 0.72492 0.68845 0.0
H3289 H 0.07035 0.76799 0.74251 0.0
H3290 H 0.16046 0.79151 0.77743 0.0
H3291 H 0.13002 0.78754 0.76113 0.0
C3292 C 0.07084 0.37807 0.52114 0.0
C3293 C 0.07965 0.38033 0.50448 0.0
C3294 C 0.06804 0.39343 0.5334 0.0
C3295 C 0.07839 0.44512 0.54342 0.0
H3296 H 0.02894 0.4385 0.54971 0.0
C3297 C 0.02227 0.49051 0.54018 0.0
C3298 C 0.03028 0.50664 0.55352 0.0
C3299 C 0.02946 0.47472 0.54 0.0
C3300 C 0.04283 0.44054 0.54826 0.0
H3301 H 0.09367 0.40049 0.48853 0.0
H3302 H 0.08841 0.42727 0.50955 0.0
H3303 H 0.04108 0.41173 0.53912 0.0
H3304 H 0.05177 0.51888 0.57756 0.0
H3305 H 0.06466 0.49113 0.577 0.0
H3306 H 0.07968 0.47418 0.55133 0.0
C3307 C 0.08384 0.41367 0.51338 0.0
C3308 C 0.04987 0.42517 0.54239 0.0
C3309 C 0.08676 0.39829 0.50121 0.0
C3310 C 0.04537 0.50657 0.56712 0.0
C3311 C 0.05275 0.49077 0.56676 0.0
C3312 C 0.07131 0.46054 0.54933 0.0
C3313 C 0.07387 0.41138 0.52915 0.0
C3314 C 0.06757 0.42732 0.53919 0.0
C3315 C 0.04492 0.47475 0.55305 0.0
C3316 C 0.05329 0.45842 0.55103 0.0
H3317 H 0.06545 0.36439 0.52425 0.0
H3318 H 0.06065 0.39121 0.54569 0.0
H3319 H 0.09214 0.44721 0.54137 0.0
H3320 H 1.01063 0.49021 0.52952 0.0
H3321 H 0.02327 0.4627 0.52904 0.0
C3322 C 0.45268 0.2854 0.19975 0.0
C3323 C 0.45039 0.26663 0.19181 0.0
C3324 C 0.44628 0.29068 0.21743 0.0
C3325 C 0.43039 0.27191 0.26197 0.0
H3326 H 0.41534 0.31874 0.27013 0.0
C3327 C 0.3886 0.29483 0.32199 0.0
C3328 C 0.39356 0.3132 0.33192 0.0
C3329 C 0.39774 0.28831 0.30711 0.0
C3330 C 0.41974 0.30574 0.26814 0.0
H3331 H 0.439 0.23869 0.19572 0.0
H3332 H 0.42693 0.24791 0.22602 0.0
H3333 H 0.42485 0.30889 0.23849 0.0
H3334 H 0.41383 0.33826 0.33557 0.0
H3335 H 0.42925 0.32709 0.30892 0.0
H3336 H 0.42418 0.2685 0.29143 0.0
C3337 C 0.43428 0.25858 0.21906 0.0
C3338 C 0.42523 0.30006 0.25 0.0
C3339 C 0.44101 0.25327 0.20154 0.0
C3340 C 0.40905 0.32429 0.32779 0.0
C3341 C 0.41802 0.31788 0.31262 0.0
C3342 C 0.42451 0.27745 0.27999 0.0
C3343 C 0.43708 0.27736 0.22744 0.0
C3344 C 0.43074 0.28311 0.24666 0.0
C3345 C 0.41202 0.30007 0.30168 0.0
C3346 C 0.41926 0.29447 0.28325 0.0
H3347 H 0.46005 0.29604 0.19277 0.0
H3348 H 0.44907 0.30523 0.22352 0.0
H3349 H 0.43481 0.25893 0.26019 0.0
H3350 H 0.37691 0.28577 0.32458 0.0
H3351 H 0.39284 0.27449 0.29889 0.0
C3352 C 0.63825 0.537 0.37841 0.0
C3353 C 0.63686 0.54972 0.36477 0.0
C3354 C 0.62818 0.53638 0.39451 0.0
C3355 C 0.60177 0.56507 0.42418 0.0
H3356 H 0.58337 0.51939 0.44315 0.0
C3357 C 0.55083 0.5635 0.48026 0.0
C3358 C 0.55137 0.5522 0.49544 0.0
C3359 C 0.56106 0.56211 0.46459 0.0
C3360 C 0.5885 0.53236 0.43826 0.0
H3361 H 0.62318 0.57152 0.35771 0.0
H3362 H 0.6059 0.57031 0.38497 0.0
H3363 H 0.60154 0.51904 0.41616 0.0
H3364 H 0.56319 0.53014 0.50542 0.0
H3365 H 0.58101 0.52764 0.47812 0.0
H3366 H 0.5889 0.57845 0.44615 0.0
C3367 C 0.61497 0.56098 0.38373 0.0
C3368 C 0.59904 0.53217 0.42264 0.0
C3369 C 0.62492 0.56158 0.36778 0.0
C3370 C 0.56221 0.53901 0.494 0.0
C3371 C 0.57251 0.5376 0.47823 0.0
C3372 C 0.59128 0.56526 0.43969 0.0
C3373 C 0.61641 0.54851 0.39762 0.0
C3374 C 0.60574 0.54851 0.41508 0.0
C3375 C 0.5724 0.54938 0.46337 0.0
C3376 C 0.5842 0.54892 0.44698 0.0
H3377 H 0.6472 0.52759 0.37675 0.0
H3378 H 0.62991 0.52659 0.40475 0.0
H3379 H 0.60692 0.57812 0.41947 0.0
H3380 H 0.5427 0.57382 0.48067 0.0
H3381 H 0.56006 0.5712 0.45341 0.0
C3382 C 0.23501 0.89112 0.11594 0.0
C3383 C 0.23053 0.87873 0.09782 0.0
C3384 C 0.24125 0.88525 0.13382 0.0
C3385 C 0.26241 0.84886 0.15302 0.0
H3386 H 0.24665 0.86545 0.20283 0.0
C3387 C 0.27832 0.81864 0.2267 0.0
C3388 C 0.28094 0.83058 0.24504 0.0
C3389 C 0.27312 0.82472 0.20855 0.0
C3390 C 0.25143 0.86088 0.18914 0.0
H3391 H 0.22897 0.85033 0.08447 0.0
H3392 H 0.23974 0.84012 0.11561 0.0
H3393 H 0.23534 0.87549 0.17188 0.0
H3394 H 0.28099 0.85863 0.25846 0.0
H3395 H 0.27241 0.86927 0.22697 0.0
H3396 H 0.27856 0.83429 0.1703 0.0
C3397 C 0.2386 0.85444 0.11596 0.0
C3398 C 0.24488 0.86663 0.17134 0.0
C3399 C 0.23229 0.86028 0.09811 0.0
C3400 C 0.27896 0.84896 0.24468 0.0
C3401 C 0.27387 0.85504 0.22657 0.0
C3402 C 0.26902 0.84316 0.17086 0.0
C3403 C 0.24326 0.86686 0.13405 0.0
C3404 C 0.25026 0.8607 0.15303 0.0
C3405 C 0.27048 0.84292 0.20828 0.0
C3406 C 0.26364 0.8491 0.18919 0.0
H3407 H 0.2339 0.90544 0.1163 0.0
H3408 H 0.24486 0.89525 0.14741 0.0
H3409 H 0.26704 0.84422 0.13925 0.0
H3410 H 0.2796 0.80437 0.22639 0.0
H3411 H 0.27052 0.81492 0.19482 0.0
C3412 C 0.96047 0.6204 0.87366 0.0
C3413 C 0.96641 0.612 0.85679 0.0
C3414 C 0.96662 0.61731 0.89299 0.0
C3415 C 1.00226 0.60411 0.92448 0.0
H3416 H 0.96576 0.58161 0.95291 0.0
C3417 C 0.01892 0.57293 0.99737 0.0
C3418 C 1.00693 0.57219 0.0112 0.0
C3419 C 0.01493 0.57924 0.97901 0.0
C3420 C 0.97621 0.58829 0.94556 0.0
H3421 H 0.98409 0.59456 0.84707 0.0
H3422 H 0.99529 0.58975 0.88095 0.0
H3423 H 0.95761 0.59108 0.92067 0.0
H3424 H 0.98185 0.57825 0.01727 0.0
H3425 H 0.97538 0.59036 0.98618 0.0
H3426 H 0.02091 0.60193 0.94953 0.0
C3427 C 0.98571 0.59848 0.87914 0.0
C3428 C 0.97146 0.59359 0.92692 0.0
C3429 C 0.97926 0.6012 0.85976 0.0
C3430 C 0.99126 0.57853 0.00676 0.0
C3431 C 0.98748 0.58528 0.98874 0.0
C3432 C 1.00704 0.59921 0.9434 0.0
C3433 C 0.97914 0.60615 0.89589 0.0
C3434 C 0.98441 0.60145 0.91612 0.0
C3435 C 0.99901 0.58533 0.97428 0.0
C3436 C 0.99408 0.5911 0.95424 0.0
H3437 H 0.9505 0.62868 0.87186 0.0
H3438 H 0.96138 0.62341 0.90568 0.0
H3439 H 0.0125 0.61019 0.91645 0.0
H3440 H 0.03099 0.56789 1.00035 0.0
H3441 H 0.02411 0.57874 0.96833 0.0
C3442 C 0.27729 0.17845 0.54955 0.0
C3443 C 0.28511 0.18216 0.53253 0.0
C3444 C 0.2803 0.19186 0.56657 0.0
C3445 C 0.29302 0.2421 0.58231 0.0
H3446 H 0.29725 0.22807 0.63555 0.0
C3447 C 0.27719 0.28503 0.65169 0.0
C3448 C 0.28628 0.28431 0.6707 0.0
C3449 C 0.28074 0.27485 0.63451 0.0
C3450 C 0.29641 0.23233 0.62083 0.0
H3451 H 0.30255 0.2027 0.52017 0.0
H3452 H 0.30791 0.22603 0.54999 0.0
H3453 H 0.29654 0.20512 0.60652 0.0
H3454 H 0.30709 0.27332 0.68636 0.0
H3455 H 0.31364 0.25607 0.65634 0.0
H3456 H 0.2928 0.26932 0.59667 0.0
C3457 C 0.29927 0.21284 0.55005 0.0
C3458 C 0.29575 0.2191 0.60417 0.0
C3459 C 0.29625 0.19944 0.53301 0.0
C3460 C 0.29989 0.27428 0.67196 0.0
C3461 C 0.30349 0.26418 0.65478 0.0
C3462 C 0.2937 0.25537 0.599 0.0
C3463 C 0.29123 0.20924 0.56696 0.0
C3464 C 0.29367 0.22373 0.58471 0.0
C3465 C 0.29352 0.26382 0.63598 0.0
C3466 C 0.29506 0.25054 0.61842 0.0
H3467 H 0.26861 0.16529 0.54964 0.0
H3468 H 0.2737 0.18876 0.57925 0.0
H3469 H 0.29131 0.24608 0.56748 0.0
H3470 H 0.26683 0.29286 0.65019 0.0
H3471 H 0.27276 0.27483 0.62027 0.0
C3472 C 0.61449 0.53115 0.26041 0.0
C3473 C 0.63285 0.53729 0.26605 0.0
C3474 C 0.60605 0.53323 0.24155 0.0
C3475 C 0.61454 0.54289 0.19012 0.0
H3476 H 0.56733 0.55296 0.18613 0.0
C3477 C 0.57275 0.54331 0.11268 0.0
C3478 C 0.56128 0.55582 0.11139 0.0
C3479 C 0.58157 0.5411 0.13133 0.0
C3480 C 0.58057 0.55033 0.18687 0.0
H3481 H 0.65665 0.5505 0.25586 0.0
H3482 H 0.64198 0.55438 0.22317 0.0
H3483 H 0.58252 0.54948 0.21849 0.0
H3484 H 0.55036 0.57597 0.1291 0.0
H3485 H 0.56586 0.57241 0.16139 0.0
H3486 H 0.61275 0.54426 0.15857 0.0
C3487 C 0.63406 0.54763 0.23321 0.0
C3488 C 0.58926 0.54804 0.20554 0.0
C3489 C 0.64253 0.54548 0.2521 0.0
C3490 C 0.55898 0.56612 0.12938 0.0
C3491 C 0.56784 0.56397 0.14803 0.0
C3492 C 0.60585 0.54522 0.17144 0.0
C3493 C 0.61563 0.54164 0.22762 0.0
C3494 C 0.6064 0.54423 0.20754 0.0
C3495 C 0.57929 0.55139 0.14938 0.0
C3496 C 0.58868 0.54896 0.16944 0.0
H3497 H 0.60653 0.5247 0.27062 0.0
H3498 H 0.59194 0.52807 0.23786 0.0
H3499 H 0.62761 0.5398 0.1908 0.0
H3500 H 0.57489 0.53507 0.09925 0.0
H3501 H 0.58999 0.53107 0.13156 0.0
C3502 C 0.22252 0.8759 0.98769 0.0
C3503 C 0.23479 0.87796 0.00524 0.0
C3504 C 0.22522 0.86616 0.96959 0.0
C3505 C 0.25094 0.83248 0.94891 0.0
H3506 H 0.24445 0.85452 0.90042 0.0
C3507 C 0.28307 0.81224 0.87907 0.0
C3508 C 0.2742 0.81268 0.85988 0.0
C3509 C 0.2762 0.81808 0.89636 0.0
C3510 C 0.24607 0.84795 0.91371 0.0
H3511 H 0.25927 0.87087 0.01755 0.0
H3512 H 0.2639 0.85403 0.98633 0.0
H3513 H 0.23589 0.86844 0.93119 0.0
H3514 H 0.25071 0.81884 0.84379 0.0
H3515 H 0.23859 0.82872 0.87388 0.0
H3516 H 0.26133 0.81212 0.93155 0.0
C3517 C 0.25213 0.8598 0.98642 0.0
C3518 C 0.24114 0.85597 0.93141 0.0
C3519 C 0.24951 0.86961 0.00437 0.0
C3520 C 0.25792 0.81838 0.85836 0.0
C3521 C 0.25104 0.82422 0.87565 0.0
C3522 C 0.25582 0.82443 0.93122 0.0
C3523 C 0.24015 0.85809 0.9687 0.0
C3524 C 0.24379 0.84854 0.94936 0.0
C3525 C 0.26025 0.8245 0.89492 0.0
C3526 C 0.25374 0.83221 0.91342 0.0
H3527 H 0.21106 0.88218 0.9878 0.0
H3528 H 0.21563 0.86499 0.95628 0.0
H3529 H 0.25288 0.82615 0.96233 0.0
H3530 H 0.29566 0.808 0.88078 0.0
H3531 H 0.28381 0.81825 0.91087 0.0
C3532 C 0.95886 0.61004 0.74405 0.0
C3533 C 0.97026 0.61477 0.76245 0.0
C3534 C 0.96506 0.60412 0.72636 0.0
C3535 C 1.00647 0.60329 0.70408 0.0
H3536 H 0.97544 0.56578 0.66406 0.0
C3537 C 0.02961 0.56951 0.63261 0.0
C3538 C 0.01828 0.5683 0.61448 0.0
C3539 C 0.02413 0.57451 0.6511 0.0
C3540 C 0.98424 0.57633 0.67504 0.0
H3541 H 0.99719 0.6169 0.77661 0.0
H3542 H 1.00792 0.60618 0.74593 0.0
H3543 H 0.96529 0.57587 0.69531 0.0
H3544 H 0.99217 0.57114 0.60168 0.0
H3545 H 0.98264 0.57957 0.63375 0.0
H3546 H 0.02549 0.60351 0.68375 0.0
C3547 C 0.99424 0.60741 0.74502 0.0
C3548 C 0.97839 0.58221 0.69297 0.0
C3549 C 0.98805 0.61348 0.76269 0.0
C3550 C 1.00126 0.57189 0.61531 0.0
C3551 C 0.99574 0.57666 0.63373 0.0
C3552 C 0.01237 0.59727 0.6862 0.0
C3553 C 0.98282 0.60258 0.72658 0.0
C3554 C 0.98934 0.59593 0.70769 0.0
C3555 C 1.00713 0.57817 0.65186 0.0
C3556 C 1.00127 0.58385 0.67138 0.0
H3557 H 0.94509 0.61096 0.74326 0.0
H3558 H 0.95592 0.60092 0.71245 0.0
H3559 H 0.01522 0.61405 0.71486 0.0
H3560 H 0.04282 0.56691 0.63253 0.0
H3561 H 0.03318 0.57543 0.66481 0.0
C3562 C 0.25646 0.15798 0.41509 0.0
C3563 C 0.26243 0.16096 0.43583 0.0
C3564 C 0.25771 0.1729 0.40425 0.0
C3565 C 0.28035 0.22221 0.40806 0.0
H3566 H 0.2436 0.22267 0.36428 0.0
C3567 C 0.25661 0.27364 0.34983 0.0
C3568 C 0.27319 0.28125 0.34513 0.0
C3569 C 0.25502 0.26006 0.36239 0.0
C3570 C 0.25384 0.22292 0.37668 0.0
H3571 H 0.27407 0.18195 0.46152 0.0
H3572 H 0.27569 0.20774 0.44295 0.0
H3573 H 0.24128 0.1965 0.38272 0.0
H3574 H 0.30121 0.28134 0.35052 0.0
H3575 H 0.29844 0.25741 0.37182 0.0
H3576 H 0.29255 0.2489 0.40263 0.0
C3577 C 0.2706 0.19395 0.43479 0.0
C3578 C 0.25268 0.20772 0.38702 0.0
C3579 C 0.26959 0.17909 0.4455 0.0
C3580 C 0.28824 0.27572 0.35391 0.0
C3581 C 0.28664 0.26202 0.36624 0.0
C3582 C 0.28138 0.23749 0.39793 0.0
C3583 C 0.26475 0.19109 0.41402 0.0
C3584 C 0.26596 0.20713 0.40279 0.0
C3585 C 0.26998 0.25374 0.37033 0.0
C3586 C 0.26823 0.23799 0.38199 0.0
H3587 H 0.25089 0.14416 0.40724 0.0
H3588 H 0.25329 0.17015 0.38821 0.0
H3589 H 0.29098 0.22218 0.41993 0.0
H3590 H 0.24481 0.27777 0.34333 0.0
H3591 H 0.24203 0.25429 0.36559 0.0
C3592 C 0.3833 0.65704 0.54358 0.0
C3593 C 0.38826 0.67515 0.53931 0.0
C3594 C 0.39433 0.64425 0.54105 0.0
C3595 C 0.43302 0.63599 0.51595 0.0
H3596 H 0.43687 0.60097 0.55326 0.0
C3597 C 0.49142 0.59853 0.5254 0.0
C3598 C 0.48834 0.58006 0.52894 0.0
C3599 C 0.47774 0.60829 0.52406 0.0
C3600 C 0.43576 0.61046 0.5425 0.0
H3601 H 0.40898 0.694 0.52932 0.0
H3602 H 0.4283 0.67205 0.52545 0.0
H3603 H 0.41636 0.62185 0.55687 0.0
H3604 H 0.46828 0.55721 0.53337 0.0
H3605 H 0.44419 0.57438 0.53117 0.0
H3606 H 0.45285 0.62496 0.50201 0.0
C3607 C 0.41569 0.66745 0.53026 0.0
C3608 C 0.42396 0.62249 0.54457 0.0
C3609 C 0.40463 0.68017 0.53265 0.0
C3610 C 0.47102 0.57133 0.53035 0.0
C3611 C 0.45729 0.58125 0.52934 0.0
C3612 C 0.4449 0.62408 0.514 0.0
C3613 C 0.41069 0.64923 0.53427 0.0
C3614 C 0.42258 0.63564 0.53149 0.0
C3615 C 0.46057 0.59998 0.52654 0.0
C3616 C 0.44661 0.61131 0.52739 0.0
H3617 H 0.37076 0.65263 0.54864 0.0
H3618 H 0.38984 0.63035 0.5441 0.0
H3619 H 0.43209 0.64552 0.50523 0.0
H3620 H 0.50465 0.60569 0.52437 0.0
H3621 H 0.48083 0.62269 0.52207 0.0
C3622 C 0.87005 0.01512 0.63331 0.0
C3623 C 0.85517 0.00609 0.61938 0.0
C3624 C 0.88673 0.01886 0.62728 0.0
C3625 C 0.91155 1.00203 0.589 0.0
H3626 H 0.94318 0.04992 0.60336 0.0
C3627 C 0.97426 0.01985 0.55286 0.0
C3628 C 0.98945 0.03054 0.56502 0.0
C3629 C 0.95809 0.01722 0.56004 0.0
C3630 C 0.93462 0.03638 0.59946 0.0
H3631 H 0.84607 0.99428 0.5881 0.0
H3632 H 0.87507 1.00071 0.57773 0.0
H3633 H 0.91461 0.04488 0.6153 0.0
H3634 H 0.99979 0.04689 0.59419 0.0
H3635 H 0.97164 0.04192 0.60698 0.0
H3636 H 0.93148 0.99335 0.57341 0.0
C3637 C 0.87388 1.00478 0.59331 0.0
C3638 C 0.91825 0.03353 0.60627 0.0
C3639 C 0.85725 1.0012 0.59926 0.0
C3640 C 0.98823 0.03858 0.5845 0.0
C3641 C 0.97208 0.03584 0.59175 0.0
C3642 C 0.92793 1.0048 0.58235 0.0
C3643 C 0.88881 0.01345 0.60728 0.0
C3644 C 0.90649 0.01638 0.6009 0.0
C3645 C 0.95681 0.02511 0.57962 0.0
C3646 C 0.9396 0.02207 0.5873 0.0
H3647 H 0.86887 0.01909 0.64891 0.0
H3648 H 0.89806 0.02552 0.63836 0.0
H3649 H 0.90285 0.98856 0.58493 0.0
H3650 H 0.97484 0.01364 0.53772 0.0
H3651 H 0.94654 0.00917 0.55014 0.0
C3652 C 0.88364 0.14687 0.28962 0.0
C3653 C 0.87491 0.12854 0.29009 0.0
C3654 C 0.87495 0.16189 0.29147 0.0
C3655 C 0.82976 0.17489 0.29079 0.0
H3656 H 0.85821 0.22299 0.31391 0.0
C3657 C 0.79833 0.24072 0.3087 0.0
C3658 C 0.8077 0.25818 0.30594 0.0
C3659 C 0.80595 0.22479 0.30705 0.0
C3660 C 0.84995 0.20979 0.30718 0.0
H3661 H 0.84954 0.11216 0.29278 0.0
H3662 H 0.83439 0.13832 0.29638 0.0
H3663 H 0.87181 0.19618 0.31075 0.0
H3664 H 0.83285 0.27199 0.29925 0.0
H3665 H 0.84604 0.24467 0.29659 0.0
H3666 H 0.8078 0.1887 0.28762 0.0
C3667 C 0.84811 0.14109 0.29427 0.0
C3668 C 0.85786 0.19414 0.30526 0.0
C3669 C 0.85686 0.12591 0.29225 0.0
C3670 C 0.82508 0.25901 0.30165 0.0
C3671 C 0.83275 0.24316 0.30019 0.0
C3672 C 0.82179 0.19059 0.29285 0.0
C3673 C 0.85703 0.15954 0.29413 0.0
C3674 C 0.84806 0.17628 0.29681 0.0
C3675 C 0.82337 0.22561 0.30275 0.0
C3676 C 0.83173 0.20847 0.30094 0.0
H3677 H 0.89744 0.14976 0.28779 0.0
H3678 H 0.88248 0.17546 0.2906 0.0
H3679 H 0.82151 0.1617 0.28402 0.0
H3680 H 0.78491 0.23925 0.3119 0.0
H3681 H 0.79816 0.21181 0.30938 0.0
C3682 C 0.77199 0.18351 0.04138 0.0
C3683 C 0.78775 0.1773 0.04604 0.0
C3684 C 0.75569 0.17224 0.04213 0.0
C3685 C 0.73567 0.13391 0.0664 0.0
H3686 H 0.69497 0.13102 0.02619 0.0
C3687 C 0.66793 0.08807 0.06989 0.0
C3688 C 0.65297 0.09561 0.0651 0.0
C3689 C 0.6845 0.09678 0.06625 0.0
C3690 C 0.70616 0.13181 0.03765 0.0
H3691 H 0.79873 0.1542 0.05472 0.0
H3692 H 0.77022 0.13453 0.05606 0.0
H3693 H 0.72367 0.14849 0.022 0.0
H3694 H 0.6437 0.11828 0.05296 0.0
H3695 H 0.67255 0.13358 0.04687 0.0
H3696 H 0.71815 0.11765 0.08233 0.0
C3697 C 0.77052 0.14819 0.05196 0.0
C3698 C 0.72261 0.14179 0.03521 0.0
C3699 C 0.78683 0.15942 0.05108 0.0
C3700 C 0.65492 0.11197 0.05652 0.0
C3701 C 0.67148 0.12072 0.05299 0.0
C3702 C 0.7192 0.12402 0.0689 0.0
C3703 C 0.75478 0.15454 0.04766 0.0
C3704 C 0.73751 0.14308 0.04964 0.0
C3705 C 0.6865 0.11328 0.05786 0.0
C3706 C 0.7042 0.12299 0.05466 0.0
H3707 H 0.77222 0.19721 0.03743 0.0
H3708 H 0.74381 0.1776 0.03892 0.0
H3709 H 0.74686 0.13486 0.07791 0.0
H3710 H 0.6668 0.07536 0.0763 0.0
H3711 H 0.69573 0.0905 0.06991 0.0
C3712 C 0.15617 0.42917 0.30413 0.0
C3713 C 0.1606 0.44818 0.31161 0.0
C3714 C 0.16778 0.41751 0.30877 0.0
C3715 C 0.21499 0.41801 0.32649 0.0
H3716 H 0.19633 0.36729 0.33249 0.0
C3717 C 0.25998 0.36497 0.34067 0.0
C3718 C 0.25485 0.34853 0.32687 0.0
C3719 C 0.24858 0.37749 0.34243 0.0
C3720 C 0.20175 0.38142 0.33088 0.0
H3721 H 0.18077 0.46975 0.3301 0.0
H3722 H 0.20089 0.44938 0.33843 0.0
H3723 H 0.1763 0.38854 0.32833 0.0
H3724 H 0.23349 0.33194 0.30482 0.0
H3725 H 0.21376 0.35355 0.30814 0.0
H3726 H 0.24045 0.41068 0.32887 0.0
C3727 C 0.18854 0.44351 0.32869 0.0
C3728 C 0.19025 0.39361 0.32836 0.0
C3729 C 0.17693 0.4552 0.32398 0.0
C3730 C 0.23785 0.34447 0.31562 0.0
C3731 C 0.22646 0.35678 0.31759 0.0
C3732 C 0.22651 0.40581 0.32915 0.0
C3733 C 0.18414 0.42448 0.32112 0.0
C3734 C 0.19664 0.41198 0.32564 0.0
C3735 C 0.23175 0.37358 0.3307 0.0
C3736 C 0.21997 0.38725 0.3309 0.0
H3737 H 0.14375 0.42327 0.2945 0.0
H3738 H 0.16401 0.40304 0.30232 0.0
H3739 H 0.22042 0.43196 0.32428 0.0
H3740 H 0.27306 0.36854 0.34939 0.0
H3741 H 0.25301 0.39032 0.35271 0.0
C3742 C 0.2596 0.52244 0.10515 0.0
C3743 C 0.25529 0.50301 0.1026 0.0
C3744 C 0.24794 0.53239 0.09633 0.0
C3745 C 0.21425 0.52829 0.05341 0.0
H3746 H 0.19536 0.56528 0.08441 0.0
C3747 C 0.14993 0.5495 0.02491 0.0
C3748 C 0.14687 0.56694 0.0322 0.0
C3749 C 0.1657 0.54432 0.03148 0.0
C3750 C 0.20082 0.55536 0.07537 0.0
H3751 H 0.23531 0.47879 0.08914 0.0
H3752 H 0.21518 0.49617 0.0735 0.0
H3753 H 0.21792 0.55114 0.10092 0.0
H3754 H 0.15863 0.59322 0.05087 0.0
H3755 H 0.18652 0.5845 0.06162 0.0
H3756 H 0.19737 0.53242 0.02783 0.0
C3757 C 0.22752 0.50366 0.08237 0.0
C3758 C 0.21364 0.54719 0.08491 0.0
C3759 C 0.23897 0.49375 0.09148 0.0
C3760 C 0.16055 0.57967 0.04492 0.0
C3761 C 0.17645 0.57456 0.05134 0.0
C3762 C 0.20168 0.53667 0.04379 0.0
C3763 C 0.23201 0.52301 0.08451 0.0
C3764 C 0.22006 0.53322 0.07411 0.0
C3765 C 0.17895 0.55657 0.04531 0.0
C3766 C 0.19438 0.5499 0.05476 0.0
H3767 H 0.27209 0.52992 0.11365 0.0
H3768 H 0.25161 0.54733 0.09821 0.0
H3769 H 0.21926 0.51772 0.04474 0.0
H3770 H 0.13979 0.53949 0.01479 0.0
H3771 H 0.16702 0.53031 0.02655 0.0
C3772 C 0.88091 0.99898 0.29186 0.0
C3773 C 0.87195 0.01336 0.28828 0.0
C3774 C 0.87184 0.98107 0.29308 0.0
C3775 C 0.8279 0.95279 0.29975 0.0
H3776 H 0.84981 0.91219 0.28208 0.0
C3777 C 0.79574 0.87361 0.29945 0.0
C3778 C 0.80741 0.86231 0.30571 0.0
C3779 C 0.80219 0.89207 0.29648 0.0
C3780 C 0.84348 0.92328 0.28731 0.0
H3781 H 0.84585 0.01957 0.28339 0.0
H3782 H 0.82987 0.98812 0.28525 0.0
H3783 H 0.86309 0.94349 0.27828 0.0
H3784 H 0.83512 0.86196 0.31355 0.0
H3785 H 0.84616 0.89348 0.30829 0.0
H3786 H 0.80812 0.93218 0.30854 0.0
C3787 C 0.84415 0.99088 0.2873 0.0
C3788 C 0.85121 0.94147 0.28517 0.0
C3789 C 0.85333 0.00901 0.2861 0.0
C3790 C 0.82563 0.87006 0.30871 0.0
C3791 C 0.83203 0.88827 0.30555 0.0
C3792 C 0.82006 0.93444 0.30177 0.0
C3793 C 0.85325 0.97646 0.29067 0.0
C3794 C 0.84385 0.95674 0.29171 0.0
C3795 C 0.82052 0.89973 0.29936 0.0
C3796 C 0.8279 0.91934 0.29593 0.0
H3797 H 0.8952 1.00152 0.29386 0.0
H3798 H 0.87961 0.97086 0.29625 0.0
H3799 H 0.82169 0.96393 0.30509 0.0
H3800 H 0.78164 0.86824 0.297 0.0
H3801 H 0.7928 0.90027 0.29163 0.0
C3802 C 0.65679 0.06088 0.7811 0.0
C3803 C 0.66145 0.04901 0.79448 0.0
C3804 C 0.66841 0.07725 0.77991 0.0
C3805 C 0.71552 0.10022 0.79116 0.0
H3806 H 0.69673 0.14382 0.78258 0.0
C3807 C 0.7588 0.17294 0.79121 0.0
C3808 C 0.75316 0.18292 0.7762 0.0
C3809 C 0.74837 0.15619 0.79377 0.0
C3810 C 0.70215 0.13171 0.7848 0.0
H3811 H 0.68193 0.04513 0.8173 0.0
H3812 H 0.70217 0.07399 0.81546 0.0
H3813 H 0.67696 0.11585 0.78744 0.0
H3814 H 0.73262 0.18257 0.75142 0.0
H3815 H 0.71439 0.1535 0.75603 0.0
H3816 H 0.74079 0.1163 0.78865 0.0
C3817 C 0.6896 0.07045 0.80566 0.0
C3818 C 0.69083 0.11567 0.78758 0.0
C3819 C 0.67797 0.05398 0.8068 0.0
C3820 C 0.73718 0.17544 0.76339 0.0
C3821 C 0.72673 0.15879 0.76602 0.0
C3822 C 0.72689 0.11635 0.7885 0.0
C3823 C 0.68497 0.08226 0.79215 0.0
C3824 C 0.69731 0.09964 0.79051 0.0
C3825 C 0.73206 0.14916 0.78145 0.0
C3826 C 0.72027 0.13218 0.78502 0.0
H3827 H 0.64423 0.05744 0.77129 0.0
H3828 H 0.66452 0.08582 0.76907 0.0
H3829 H 0.72092 0.08806 0.79317 0.0
H3830 H 0.77095 0.17841 0.80148 0.0
H3831 H 0.75276 0.1491 0.80586 0.0
loop_
_geom_bond_atom_site_label_1
_geom_bond_atom_site_label_2
_geom_bond_distance
_geom_bond_site_symmetry_2
_ccdc_geom_bond_type
C0 O1 1.160 . S
C0 O7 1.185 . S
O1 C0 1.160 . S
O2 Zn3 1.899 . S
O2 C10 1.284 . S
Zn3 O2 1.899 . S
Zn3 O4 2.032 . S
Zn3 O7 2.086 . S
Zn3 O12 1.977 . S
O4 Zn3 2.032 . S
O4 C8 1.278 . S
C5 O6 1.203 . S
C5 O12 1.267 . S
O6 C5 1.203 . S
O7 C0 1.185 . S
O7 Zn3 2.086 . S
C8 O4 1.278 . S
C8 O9 1.211 . S
O9 C8 1.211 . S
C10 O2 1.284 . S
C10 O11 1.273 . S
O11 C10 1.273 . S
O12 Zn3 1.977 . S
O12 C5 1.267 . S
C13 O14 1.160 . S
C13 O20 1.185 . S
O14 C13 1.160 . S
O15 Zn16 1.898 . S
O15 C23 1.284 . S
Zn16 O15 1.898 . S
Zn16 O17 2.038 . S
Zn16 O20 2.101 . S
Zn16 O25 1.963 1_655 S
O17 Zn16 2.038 . S
O17 C21 1.278 1_655 S
C18 O19 1.203 . S
C18 O25 1.267 . S
O19 C18 1.203 . S
O20 C13 1.185 . S
O20 Zn16 2.101 . S
C21 O17 1.278 1_455 S
C21 O22 1.211 . S
O22 C21 1.211 . S
C23 O15 1.284 . S
C23 O24 1.273 1_655 S
O24 C23 1.273 1_455 S
O25 Zn16 1.963 1_455 S
O25 C18 1.267 . S
C26 O27 1.160 . S
C26 O33 1.185 . S
O27 C26 1.160 . S
O28 Zn29 1.899 . S
O28 C36 1.284 . S
Zn29 O28 1.899 . S
Zn29 O30 2.032 . S
Zn29 O33 2.086 . S
Zn29 O38 1.977 . S
O30 Zn29 2.032 . S
O30 C34 1.278 . S
C31 O32 1.203 . S
C31 O38 1.267 . S
O32 C31 1.203 . S
O33 C26 1.185 . S
O33 Zn29 2.086 . S
C34 O30 1.278 . S
C34 O35 1.211 . S
O35 C34 1.211 . S
C36 O28 1.284 . S
C36 O37 1.273 . S
O37 C36 1.273 . S
O38 Zn29 1.977 . S
O38 C31 1.267 . S
C39 O40 1.160 . S
C39 O46 1.185 . S
O40 C39 1.160 . S
O41 Zn42 1.899 . S
O41 C49 1.284 . S
Zn42 O41 1.899 . S
Zn42 O43 2.032 . S
Zn42 O46 2.086 . S
Zn42 O51 1.977 . S
O43 Zn42 2.032 . S
O43 C47 1.278 . S
C44 O45 1.203 . S
C44 O51 1.267 . S
O45 C44 1.203 . S
O46 C39 1.185 . S
O46 Zn42 2.086 . S
C47 O43 1.278 . S
C47 O48 1.211 . S
O48 C47 1.211 . S
C49 O41 1.284 . S
C49 O50 1.273 . S
O50 C49 1.273 . S
O51 Zn42 1.977 . S
O51 C44 1.267 . S
C52 O53 1.160 . S
C52 O59 1.224 . S
O53 C52 1.160 . S
O54 Zn55 1.899 . S
O54 C62 1.284 . S
Zn55 O54 1.899 . S
Zn55 O56 2.032 . S
Zn55 O59 2.053 1_455 S
Zn55 O64 1.977 . S
O56 Zn55 2.032 . S
O56 C60 1.278 . S
C57 O58 1.203 . S
C57 O64 1.267 . S
O58 C57 1.203 . S
O59 C52 1.224 . S
O59 Zn55 2.053 1_655 S
C60 O56 1.278 . S
C60 O61 1.211 . S
O61 C60 1.211 . S
C62 O54 1.284 . S
C62 O63 1.273 . S
O63 C62 1.273 . S
O64 Zn55 1.977 . S
O64 C57 1.267 . S
C65 O66 1.160 . S
C65 O72 1.185 . S
O66 C65 1.160 . S
O67 Zn68 1.899 . S
O67 C75 1.284 . S
Zn68 O67 1.899 . S
Zn68 O69 2.032 . S
Zn68 O72 2.086 . S
Zn68 O77 1.977 . S
O69 Zn68 2.032 . S
O69 C73 1.278 . S
C70 O71 1.203 . S
C70 O77 1.267 . S
O71 C70 1.203 . S
O72 C65 1.185 . S
O72 Zn68 2.086 . S
C73 O69 1.278 . S
C73 O74 1.211 . S
O74 C73 1.211 . S
C75 O67 1.284 . S
C75 O76 1.273 . S
O76 C75 1.273 . S
O77 Zn68 1.977 . S
O77 C70 1.267 . S
C78 O79 1.160 . S
C78 O85 1.185 . S
O79 C78 1.160 . S
O80 Zn81 1.899 . S
O80 C88 1.284 . S
Zn81 O80 1.899 . S
Zn81 O82 2.032 . S
Zn81 O85 2.086 . S
Zn81 O90 1.977 . S
O82 Zn81 2.032 . S
O82 C86 1.278 . S
C83 O84 1.203 . S
C83 O90 1.267 . S
O84 C83 1.203 . S
O85 C78 1.185 . S
O85 Zn81 2.086 . S
C86 O82 1.278 . S
C86 O87 1.211 . S
O87 C86 1.211 . S
C88 O80 1.284 . S
C88 O89 1.273 . S
O89 C88 1.273 . S
O90 Zn81 1.977 . S
O90 C83 1.267 . S
C91 O92 1.160 . S
C91 O98 1.185 . S
O92 C91 1.160 . S
O93 Zn94 1.899 . S
O93 C101 1.284 . S
Zn94 O93 1.899 . S
Zn94 O95 2.032 . S
Zn94 O98 2.086 . S
Zn94 O103 1.977 . S
O95 Zn94 2.032 . S
O95 C99 1.278 . S
C96 O97 1.203 . S
C96 O103 1.267 1_655 S
O97 C96 1.203 . S
O98 C91 1.185 . S
O98 Zn94 2.086 . S
C99 O95 1.278 . S
C99 O100 1.211 . S
O100 C99 1.211 . S
C101 O93 1.284 . S
C101 O102 1.273 . S
O102 C101 1.273 . S
O103 Zn94 1.977 . S
O103 C96 1.267 1_455 S
C104 O105 1.160 . S
C104 O111 1.185 . S
O105 C104 1.160 . S
O106 Zn107 1.899 . S
O106 C114 1.284 . S
Zn107 O106 1.899 . S
Zn107 O108 2.032 . S
Zn107 O111 2.086 . S
Zn107 O116 1.977 . S
O108 Zn107 2.032 . S
O108 C112 1.278 . S
C109 O110 1.203 . S
C109 O116 1.267 . S
O110 C109 1.203 . S
O111 C104 1.185 . S
O111 Zn107 2.086 . S
C112 O108 1.278 . S
C112 O113 1.211 . S
O113 C112 1.211 . S
C114 O106 1.284 . S
C114 O115 1.273 . S
O115 C114 1.273 . S
O116 Zn107 1.977 . S
O116 C109 1.267 . S
C117 O118 1.160 . S
C117 O124 1.185 . S
O118 C117 1.160 . S
O119 Zn120 1.899 . S
O119 C127 1.284 . S
Zn120 O119 1.899 . S
Zn120 O121 2.032 . S
Zn120 O124 2.086 . S
Zn120 O129 1.977 . S
O121 Zn120 2.032 . S
O121 C125 1.278 . S
C122 O123 1.203 . S
C122 O129 1.267 . S
O123 C122 1.203 . S
O124 C117 1.185 . S
O124 Zn120 2.086 . S
C125 O121 1.278 . S
C125 O126 1.211 . S
O126 C125 1.211 . S
C127 O119 1.284 . S
C127 O128 1.273 . S
O128 C127 1.273 . S
O129 Zn120 1.977 . S
O129 C122 1.267 . S
C130 O131 1.160 . S
C130 O137 1.185 1_565 S
O131 C130 1.160 . S
O132 Zn133 1.899 . S
O132 C140 1.284 . S
Zn133 O132 1.899 . S
Zn133 O134 2.032 . S
Zn133 O137 2.086 . S
Zn133 O142 1.977 . S
O134 Zn133 2.032 . S
O134 C138 1.278 . S
C135 O136 1.203 . S
C135 O142 1.267 . S
O136 C135 1.203 . S
O137 C130 1.185 1_545 S
O137 Zn133 2.086 . S
C138 O134 1.278 . S
C138 O139 1.211 . S
O139 C138 1.211 . S
C140 O132 1.284 . S
C140 O141 1.273 . S
O141 C140 1.273 . S
O142 Zn133 1.977 . S
O142 C135 1.267 . S
C143 O144 1.160 . S
C143 O150 1.185 . S
O144 C143 1.160 . S
O145 Zn146 1.899 . S
O145 C153 1.284 . S
Zn146 O145 1.899 . S
Zn146 O147 2.032 . S
Zn146 O150 2.086 . S
Zn146 O155 1.977 . S
O147 Zn146 2.032 . S
O147 C151 1.278 . S
C148 O149 1.203 . S
C148 O155 1.267 . S
O149 C148 1.203 . S
O150 C143 1.185 . S
O150 Zn146 2.086 . S
C151 O147 1.278 . S
C151 O152 1.211 . S
O152 C151 1.211 . S
C153 O145 1.284 . S
C153 O154 1.273 . S
O154 C153 1.273 . S
O155 Zn146 1.977 . S
O155 C148 1.267 . S
C156 O157 1.160 . S
C156 O163 1.185 . S
O157 C156 1.160 . S
O158 Zn159 1.899 . S
O158 C166 1.284 . S
Zn159 O158 1.899 . S
Zn159 O160 2.032 . S
Zn159 O163 2.086 . S
Zn159 O168 1.977 . S
O160 Zn159 2.032 . S
O160 C164 1.278 . S
C161 O162 1.203 . S
C161 O168 1.267 . S
O162 C161 1.203 . S
O163 C156 1.185 . S
O163 Zn159 2.086 . S
C164 O160 1.278 . S
C164 O165 1.211 . S
O165 C164 1.211 . S
C166 O158 1.284 . S
C166 O167 1.273 . S
O167 C166 1.273 . S
O168 Zn159 1.977 . S
O168 C161 1.267 . S
C169 O170 1.160 . S
C169 O176 1.185 . S
O170 C169 1.160 . S
O171 Zn172 1.899 . S
O171 C179 1.284 . S
Zn172 O171 1.899 . S
Zn172 O173 2.032 . S
Zn172 O176 2.086 . S
Zn172 O181 1.977 . S
O173 Zn172 2.032 . S
O173 C177 1.278 . S
C174 O175 1.203 . S
C174 O181 1.267 . S
O175 C174 1.203 . S
O176 C169 1.185 . S
O176 Zn172 2.086 . S
C177 O173 1.278 . S
C177 O178 1.211 . S
O178 C177 1.211 . S
C179 O171 1.284 . S
C179 O180 1.273 . S
O180 C179 1.273 . S
O181 Zn172 1.977 . S
O181 C174 1.267 . S
C182 O183 1.160 . S
C182 O189 1.185 . S
O183 C182 1.160 . S
O184 Zn185 1.899 . S
O184 C192 1.284 . S
Zn185 O184 1.899 . S
Zn185 O186 2.032 . S
Zn185 O189 2.086 . S
Zn185 O194 1.977 . S
O186 Zn185 2.032 . S
O186 C190 1.278 . S
C187 O188 1.203 . S
C187 O194 1.267 . S
O188 C187 1.203 . S
O189 C182 1.185 . S
O189 Zn185 2.086 . S
C190 O186 1.278 . S
C190 O191 1.211 . S
O191 C190 1.211 . S
C192 O184 1.284 . S
C192 O193 1.273 . S
O193 C192 1.273 . S
O194 Zn185 1.977 . S
O194 C187 1.267 . S
C195 O196 1.160 . S
C195 O202 1.185 . S
O196 C195 1.160 . S
O197 Zn198 1.899 . S
O197 C205 1.284 . S
Zn198 O197 1.899 . S
Zn198 O199 2.032 . S
Zn198 O202 2.086 . S
Zn198 O207 1.977 . S
O199 Zn198 2.032 . S
O199 C203 1.278 . S
C200 O201 1.203 . S
C200 O207 1.267 . S
O201 C200 1.203 . S
O202 C195 1.185 . S
O202 Zn198 2.086 . S
C203 O199 1.278 . S
C203 O204 1.211 . S
O204 C203 1.211 . S
C205 O197 1.284 . S
C205 O206 1.273 . S
O206 C205 1.273 . S
O207 Zn198 1.977 . S
O207 C200 1.267 . S
C208 O209 1.160 . S
C208 O215 1.185 . S
O209 C208 1.160 . S
O210 Zn211 1.899 . S
O210 C218 1.284 . S
Zn211 O210 1.899 . S
Zn211 O212 2.032 . S
Zn211 O215 2.086 . S
Zn211 O220 1.977 . S
O212 Zn211 2.032 . S
O212 C216 1.278 . S
C213 O214 1.203 . S
C213 O220 1.267 . S
O214 C213 1.203 . S
O215 C208 1.185 . S
O215 Zn211 2.086 . S
C216 O212 1.278 . S
C216 O217 1.211 . S
O217 C216 1.211 . S
C218 O210 1.284 . S
C218 O219 1.273 . S
O219 C218 1.273 . S
O220 Zn211 1.977 . S
O220 C213 1.267 . S
C221 O222 1.160 . S
C221 O228 1.185 . S
O222 C221 1.160 . S
O223 Zn224 1.899 . S
O223 C231 1.284 . S
Zn224 O223 1.899 . S
Zn224 O225 2.032 . S
Zn224 O228 2.086 . S
Zn224 O233 1.977 . S
O225 Zn224 2.032 . S
O225 C229 1.278 . S
C226 O227 1.203 . S
C226 O233 1.267 . S
O227 C226 1.203 . S
O228 C221 1.185 . S
O228 Zn224 2.086 . S
C229 O225 1.278 . S
C229 O230 1.211 . S
O230 C229 1.211 . S
C231 O223 1.284 . S
C231 O232 1.273 . S
O232 C231 1.273 . S
O233 Zn224 1.977 . S
O233 C226 1.267 . S
C234 O235 1.160 . S
C234 O241 1.185 . S
O235 C234 1.160 . S
O236 Zn237 1.899 . S
O236 C244 1.284 . S
Zn237 O236 1.899 . S
Zn237 O238 2.032 . S
Zn237 O241 2.086 . S
Zn237 O246 1.977 . S
O238 Zn237 2.032 . S
O238 C242 1.278 . S
C239 O240 1.203 . S
C239 O246 1.267 . S
O240 C239 1.203 . S
O241 C234 1.185 . S
O241 Zn237 2.086 . S
C242 O238 1.278 . S
C242 O243 1.211 . S
O243 C242 1.211 . S
C244 O236 1.284 . S
C244 O245 1.273 . S
O245 C244 1.273 . S
O246 Zn237 1.977 . S
O246 C239 1.267 . S
C247 O248 1.160 . S
C247 O254 1.185 . S
O248 C247 1.160 . S
O249 Zn250 1.901 1_565 S
O249 C257 1.284 . S
Zn250 O249 1.901 1_545 S
Zn250 O251 2.025 1_545 S
Zn250 O254 2.068 1_545 S
Zn250 O259 1.995 . S
O251 Zn250 2.025 1_565 S
O251 C255 1.278 1_565 S
C252 O253 1.203 . S
C252 O259 1.267 . S
O253 C252 1.203 . S
O254 C247 1.185 . S
O254 Zn250 2.068 1_565 S
C255 O251 1.278 1_545 S
C255 O256 1.211 . S
O256 C255 1.211 . S
C257 O249 1.284 . S
C257 O258 1.273 1_565 S
O258 C257 1.273 1_545 S
O259 Zn250 1.995 . S
O259 C252 1.267 . S
C260 O261 1.160 . S
C260 O267 1.185 1_554 S
O261 C260 1.160 . S
O262 Zn263 1.899 . S
O262 C270 1.284 . S
Zn263 O262 1.899 . S
Zn263 O264 2.032 1_554 S
Zn263 O267 2.086 1_554 S
Zn263 O272 1.977 1_554 S
O264 Zn263 2.032 1_556 S
O264 C268 1.278 . S
C265 O266 1.203 1_556 S
C265 O272 1.267 . S
O266 C265 1.203 1_554 S
O267 C260 1.185 1_556 S
O267 Zn263 2.086 1_556 S
C268 O264 1.278 . S
C268 O269 1.211 . S
O269 C268 1.211 . S
C270 O262 1.284 . S
C270 O271 1.273 . S
O271 C270 1.273 . S
O272 Zn263 1.977 1_556 S
O272 C265 1.267 . S
C273 O274 1.160 . S
C273 O280 1.185 . S
O274 C273 1.160 . S
O275 Zn276 1.899 . S
O275 C283 1.284 . S
Zn276 O275 1.899 . S
Zn276 O277 2.032 . S
Zn276 O280 2.086 . S
Zn276 O285 1.977 . S
O277 Zn276 2.032 . S
O277 C281 1.278 . S
C278 O279 1.203 . S
C278 O285 1.267 . S
O279 C278 1.203 . S
O280 C273 1.185 . S
O280 Zn276 2.086 . S
C281 O277 1.278 . S
C281 O282 1.211 . S
O282 C281 1.211 . S
C283 O275 1.284 . S
C283 O284 1.273 . S
O284 C283 1.273 . S
O285 Zn276 1.977 . S
O285 C278 1.267 . S
C286 O287 1.160 . S
C286 O293 1.185 . S
O287 C286 1.160 . S
O288 Zn289 1.899 . S
O288 C296 1.284 . S
Zn289 O288 1.899 . S
Zn289 O290 2.032 . S
Zn289 O293 2.086 . S
Zn289 O298 1.977 . S
O290 Zn289 2.032 . S
O290 C294 1.278 . S
C291 O292 1.203 . S
C291 O298 1.267 . S
O292 C291 1.203 . S
O293 C286 1.185 . S
O293 Zn289 2.086 . S
C294 O290 1.278 . S
C294 O295 1.211 . S
O295 C294 1.211 . S
C296 O288 1.284 . S
C296 O297 1.273 . S
O297 C296 1.273 . S
O298 Zn289 1.977 . S
O298 C291 1.267 . S
C299 O300 1.160 . S
C299 O306 1.185 . S
O300 C299 1.160 . S
O301 Zn302 1.899 . S
O301 C309 1.284 . S
Zn302 O301 1.899 . S
Zn302 O303 2.032 . S
Zn302 O306 2.086 . S
Zn302 O311 1.977 . S
O303 Zn302 2.032 . S
O303 C307 1.278 . S
C304 O305 1.203 . S
C304 O311 1.267 . S
O305 C304 1.203 . S
O306 C299 1.185 . S
O306 Zn302 2.086 . S
C307 O303 1.278 . S
C307 O308 1.211 . S
O308 C307 1.211 . S
C309 O301 1.284 . S
C309 O310 1.273 . S
O310 C309 1.273 . S
O311 Zn302 1.977 . S
O311 C304 1.267 . S
Nd312 C314 2.836 . S
Nd312 O332 2.500 . S
Nd312 O333 2.492 . S
Nd312 O334 2.487 . S
Nd312 O335 2.682 . S
Nd312 O336 2.410 . S
Nd312 O341 2.414 . S
Nd312 O343 2.424 . S
Nd313 C323 2.836 1_545 S
Nd313 O335 2.414 . S
Nd313 O337 2.424 1_455 S
Nd313 O338 2.500 1_545 S
Nd313 O339 2.492 1_445 S
Nd313 O340 2.484 1_455 S
Nd313 O341 2.682 . S
Nd313 O342 2.410 . S
C314 Nd312 2.836 . S
C314 C315 1.498 . S
C314 O332 1.258 . S
C314 O333 1.239 . S
C315 C314 1.498 . S
C315 C316 1.366 . S
C315 C320 1.407 . S
C316 C315 1.366 . S
C316 C317 1.392 . S
C316 H344 0.930 . S
C317 C316 1.392 . S
C317 C318 1.398 . S
C317 H345 0.929 . S
C318 C317 1.398 . S
C318 C319 1.352 . S
C319 C318 1.352 . S
C319 C320 1.384 . S
C319 H346 0.930 . S
C320 C315 1.407 . S
C320 C319 1.384 . S
C320 H347 0.929 . S
C321 O334 1.241 . S
C321 O335 1.273 . S
C322 O336 1.251 1_655 S
C322 O337 1.268 . S
C323 Nd313 2.836 1_565 S
C323 C324 1.498 . S
C323 O338 1.258 . S
C323 O339 1.234 1_455 S
C324 C323 1.498 . S
C324 C325 1.366 . S
C324 C329 1.407 . S
C325 C324 1.366 . S
C325 C326 1.392 . S
C325 H348 0.930 . S
C326 C325 1.392 . S
C326 C327 1.398 . S
C326 H349 0.929 . S
C327 C326 1.398 . S
C327 C328 1.352 . S
C328 C327 1.352 . S
C328 C329 1.384 . S
C328 H350 0.918 1_455 S
C329 C324 1.407 . S
C329 C328 1.384 . S
C329 H351 0.929 1_455 S
C330 O340 1.238 1_455 S
C330 O341 1.273 . S
C331 O342 1.251 . S
C331 O343 1.268 . S
O332 Nd312 2.500 . S
O332 C314 1.258 . S
O333 Nd312 2.492 . S
O333 C314 1.239 . S
O334 Nd312 2.487 . S
O334 C321 1.241 . S
O335 Nd312 2.682 . S
O335 Nd313 2.414 . S
O335 C321 1.273 . S
O336 Nd312 2.410 . S
O336 C322 1.251 1_455 S
O337 Nd313 2.424 1_655 S
O337 C322 1.268 . S
O338 Nd313 2.500 1_565 S
O338 C323 1.258 . S
O339 Nd313 2.492 1_665 S
O339 C323 1.234 1_655 S
O340 Nd313 2.484 1_655 S
O340 C330 1.238 1_655 S
O341 Nd312 2.414 . S
O341 Nd313 2.682 . S
O341 C330 1.273 . S
O342 Nd313 2.410 . S
O342 C331 1.251 . S
O343 Nd312 2.424 . S
O343 C331 1.268 . S
H344 C316 0.930 . S
H345 C317 0.929 . S
H346 C319 0.930 . S
H347 C320 0.929 . S
H348 C325 0.930 . S
H349 C326 0.929 . S
H350 C328 0.918 1_655 S
H351 C329 0.929 1_655 S
Nd352 C354 2.836 . S
Nd352 O372 2.500 . S
Nd352 O373 2.492 . S
Nd352 O374 2.487 . S
Nd352 O375 2.682 . S
Nd352 O376 2.410 . S
Nd352 O381 2.414 . S
Nd352 O383 2.424 . S
Nd353 C363 2.836 . S
Nd353 O375 2.414 . S
Nd353 O377 2.424 . S
Nd353 O378 2.500 . S
Nd353 O379 2.492 . S
Nd353 O380 2.487 . S
Nd353 O381 2.682 . S
Nd353 O382 2.410 . S
C354 Nd352 2.836 . S
C354 C355 1.498 . S
C354 O372 1.258 . S
C354 O373 1.239 . S
C355 C354 1.498 . S
C355 C356 1.366 . S
C355 C360 1.407 . S
C356 C355 1.366 . S
C356 C357 1.392 . S
C356 H384 0.930 . S
C357 C356 1.392 . S
C357 C358 1.398 . S
C357 H385 0.929 . S
C358 C357 1.398 . S
C358 C359 1.352 . S
C359 C358 1.352 . S
C359 C360 1.384 . S
C359 H386 0.930 . S
C360 C355 1.407 . S
C360 C359 1.384 . S
C360 H387 0.929 . S
C361 O374 1.241 . S
C361 O375 1.273 . S
C362 O376 1.251 . S
C362 O377 1.268 . S
C363 Nd353 2.836 . S
C363 C364 1.498 . S
C363 O378 1.258 . S
C363 O379 1.239 . S
C364 C363 1.498 . S
C364 C365 1.366 . S
C364 C369 1.407 . S
C365 C364 1.366 . S
C365 C366 1.392 . S
C365 H388 0.930 . S
C366 C365 1.392 . S
C366 C367 1.398 . S
C366 H389 0.929 . S
C367 C366 1.398 . S
C367 C368 1.352 . S
C368 C367 1.352 . S
C368 C369 1.384 . S
C368 H390 0.930 . S
C369 C364 1.407 . S
C369 C368 1.384 . S
C369 H391 0.929 . S
C370 O380 1.241 . S
C370 O381 1.273 . S
C371 O382 1.251 . S
C371 O383 1.268 . S
O372 Nd352 2.500 . S
O372 C354 1.258 . S
O373 Nd352 2.492 . S
O373 C354 1.239 . S
O374 Nd352 2.487 . S
O374 C361 1.241 . S
O375 Nd352 2.682 . S
O375 Nd353 2.414 . S
O375 C361 1.273 . S
O376 Nd352 2.410 . S
O376 C362 1.251 . S
O377 Nd353 2.424 . S
O377 C362 1.268 . S
O378 Nd353 2.500 . S
O378 C363 1.258 . S
O379 Nd353 2.492 . S
O379 C363 1.239 . S
O380 Nd353 2.487 . S
O380 C370 1.241 . S
O381 Nd352 2.414 . S
O381 Nd353 2.682 . S
O381 C370 1.273 . S
O382 Nd353 2.410 . S
O382 C371 1.251 . S
O383 Nd352 2.424 . S
O383 C371 1.268 . S
H384 C356 0.930 . S
H385 C357 0.929 . S
H386 C359 0.930 . S
H387 C360 0.929 . S
H388 C365 0.930 . S
H389 C366 0.929 . S
H390 C368 0.930 . S
H391 C369 0.929 . S
Nd392 C394 2.836 . S
Nd392 O412 2.500 . S
Nd392 O413 2.492 . S
Nd392 O414 2.487 . S
Nd392 O415 2.682 . S
Nd392 O416 2.410 . S
Nd392 O421 2.414 . S
Nd392 O423 2.424 . S
Nd393 C403 2.836 . S
Nd393 O415 2.414 . S
Nd393 O417 2.424 . S
Nd393 O418 2.500 . S
Nd393 O419 2.492 . S
Nd393 O420 2.487 . S
Nd393 O421 2.682 . S
Nd393 O422 2.410 . S
C394 Nd392 2.836 . S
C394 C395 1.498 . S
C394 O412 1.258 . S
C394 O413 1.239 . S
C395 C394 1.498 . S
C395 C396 1.366 . S
C395 C400 1.407 . S
C396 C395 1.366 . S
C396 C397 1.392 . S
C396 H424 0.930 . S
C397 C396 1.392 . S
C397 C398 1.398 . S
C397 H425 0.929 . S
C398 C397 1.398 . S
C398 C399 1.352 . S
C399 C398 1.352 . S
C399 C400 1.384 . S
C399 H426 0.930 . S
C400 C395 1.407 . S
C400 C399 1.384 . S
C400 H427 0.929 . S
C401 O414 1.241 . S
C401 O415 1.273 . S
C402 O416 1.251 . S
C402 O417 1.268 . S
C403 Nd393 2.836 . S
C403 C404 1.498 . S
C403 O418 1.258 . S
C403 O419 1.239 . S
C404 C403 1.498 . S
C404 C405 1.366 . S
C404 C409 1.407 . S
C405 C404 1.366 . S
C405 C406 1.392 . S
C405 H428 0.930 . S
C406 C405 1.392 . S
C406 C407 1.398 . S
C406 H429 0.929 . S
C407 C406 1.398 . S
C407 C408 1.352 . S
C408 C407 1.352 . S
C408 C409 1.384 . S
C408 H430 0.930 . S
C409 C404 1.407 . S
C409 C408 1.384 . S
C409 H431 0.929 . S
C410 O420 1.241 . S
C410 O421 1.273 . S
C411 O422 1.251 . S
C411 O423 1.268 . S
O412 Nd392 2.500 . S
O412 C394 1.258 . S
O413 Nd392 2.492 . S
O413 C394 1.239 . S
O414 Nd392 2.487 . S
O414 C401 1.241 . S
O415 Nd392 2.682 . S
O415 Nd393 2.414 . S
O415 C401 1.273 . S
O416 Nd392 2.410 . S
O416 C402 1.251 . S
O417 Nd393 2.424 . S
O417 C402 1.268 . S
O418 Nd393 2.500 . S
O418 C403 1.258 . S
O419 Nd393 2.492 . S
O419 C403 1.239 . S
O420 Nd393 2.487 . S
O420 C410 1.241 . S
O421 Nd392 2.414 . S
O421 Nd393 2.682 . S
O421 C410 1.273 . S
O422 Nd393 2.410 . S
O422 C411 1.251 . S
O423 Nd392 2.424 . S
O423 C411 1.268 . S
H424 C396 0.930 . S
H425 C397 0.929 . S
H426 C399 0.930 . S
H427 C400 0.929 . S
H428 C405 0.930 . S
H429 C406 0.929 . S
H430 C408 0.930 . S
H431 C409 0.929 . S
Nd432 C434 2.836 . S
Nd432 O452 2.500 . S
Nd432 O453 2.492 . S
Nd432 O454 2.487 . S
Nd432 O455 2.682 . S
Nd432 O456 2.410 . S
Nd432 O461 2.414 . S
Nd432 O463 2.424 . S
Nd433 C443 2.836 . S
Nd433 O455 2.414 . S
Nd433 O457 2.424 . S
Nd433 O458 2.500 . S
Nd433 O459 2.492 . S
Nd433 O460 2.487 . S
Nd433 O461 2.682 . S
Nd433 O462 2.410 . S
C434 Nd432 2.836 . S
C434 C435 1.498 . S
C434 O452 1.258 . S
C434 O453 1.239 . S
C435 C434 1.498 . S
C435 C436 1.366 . S
C435 C440 1.407 . S
C436 C435 1.366 . S
C436 C437 1.392 . S
C436 H464 0.930 . S
C437 C436 1.392 . S
C437 C438 1.398 . S
C437 H465 0.929 . S
C438 C437 1.398 . S
C438 C439 1.352 . S
C439 C438 1.352 . S
C439 C440 1.384 . S
C439 H466 0.930 . S
C440 C435 1.407 . S
C440 C439 1.384 . S
C440 H467 0.929 . S
C441 O454 1.241 . S
C441 O455 1.273 . S
C442 O456 1.251 . S
C442 O457 1.268 . S
C443 Nd433 2.836 . S
C443 C444 1.498 . S
C443 O458 1.258 . S
C443 O459 1.239 . S
C444 C443 1.498 . S
C444 C445 1.366 . S
C444 C449 1.407 . S
C445 C444 1.366 . S
C445 C446 1.392 . S
C445 H468 0.930 . S
C446 C445 1.392 . S
C446 C447 1.398 . S
C446 H469 0.929 . S
C447 C446 1.398 . S
C447 C448 1.352 . S
C448 C447 1.352 . S
C448 C449 1.384 . S
C448 H470 0.930 . S
C449 C444 1.407 . S
C449 C448 1.384 . S
C449 H471 0.929 . S
C450 O460 1.241 . S
C450 O461 1.273 . S
C451 O462 1.251 . S
C451 O463 1.268 . S
O452 Nd432 2.500 . S
O452 C434 1.258 . S
O453 Nd432 2.492 . S
O453 C434 1.239 . S
O454 Nd432 2.487 . S
O454 C441 1.241 . S
O455 Nd432 2.682 . S
O455 Nd433 2.414 . S
O455 C441 1.273 . S
O456 Nd432 2.410 . S
O456 C442 1.251 . S
O457 Nd433 2.424 . S
O457 C442 1.268 . S
O458 Nd433 2.500 . S
O458 C443 1.258 . S
O459 Nd433 2.492 . S
O459 C443 1.239 . S
O460 Nd433 2.487 . S
O460 C450 1.241 . S
O461 Nd432 2.414 . S
O461 Nd433 2.682 . S
O461 C450 1.273 . S
O462 Nd433 2.410 . S
O462 C451 1.251 . S
O463 Nd432 2.424 . S
O463 C451 1.268 . S
H464 C436 0.930 . S
H465 C437 0.929 . S
H466 C439 0.930 . S
H467 C440 0.929 . S
H468 C445 0.930 . S
H469 C446 0.929 . S
H470 C448 0.930 . S
H471 C449 0.929 . S
Nd472 C474 2.836 . S
Nd472 O492 2.500 . S
Nd472 O493 2.492 . S
Nd472 O494 2.487 . S
Nd472 O495 2.682 . S
Nd472 O496 2.410 . S
Nd472 O501 2.414 . S
Nd472 O503 2.424 . S
Nd473 C483 2.836 1_545 S
Nd473 O495 2.414 . S
Nd473 O497 2.424 . S
Nd473 O498 2.500 . S
Nd473 O499 2.492 1_545 S
Nd473 O500 2.487 1_455 S
Nd473 O501 2.682 . S
Nd473 O502 2.410 . S
C474 Nd472 2.836 . S
C474 C475 1.498 . S
C474 O492 1.258 . S
C474 O493 1.239 . S
C475 C474 1.498 . S
C475 C476 1.366 1_455 S
C475 C480 1.407 . S
C476 C475 1.366 1_655 S
C476 C477 1.392 . S
C476 H504 0.930 . S
C477 C476 1.392 . S
C477 C478 1.398 1_655 S
C477 H505 0.929 . S
C478 C477 1.398 1_455 S
C478 C479 1.352 . S
C479 C478 1.352 . S
C479 C480 1.384 . S
C479 H506 0.930 . S
C480 C475 1.407 . S
C480 C479 1.384 . S
C480 H507 0.929 . S
C481 O494 1.241 . S
C481 O495 1.273 . S
C482 O496 1.251 . S
C482 O497 1.268 . S
C483 Nd473 2.836 1_565 S
C483 C484 1.498 . S
C483 O498 1.258 1_565 S
C483 O499 1.239 . S
C484 C483 1.498 . S
C484 C485 1.366 . S
C484 C489 1.407 . S
C485 C484 1.366 . S
C485 C486 1.392 . S
C485 H508 0.930 . S
C486 C485 1.392 . S
C486 C487 1.398 . S
C486 H509 0.929 . S
C487 C486 1.398 . S
C487 C488 1.352 . S
C488 C487 1.352 . S
C488 C489 1.384 . S
C488 H510 0.930 . S
C489 C484 1.407 . S
C489 C488 1.384 . S
C489 H511 0.929 . S
C490 O500 1.241 . S
C490 O501 1.273 1_655 S
C491 O502 1.251 . S
C491 O503 1.268 . S
O492 Nd472 2.500 . S
O492 C474 1.258 . S
O493 Nd472 2.492 . S
O493 C474 1.239 . S
O494 Nd472 2.487 . S
O494 C481 1.241 . S
O495 Nd472 2.682 . S
O495 Nd473 2.414 . S
O495 C481 1.273 . S
O496 Nd472 2.410 . S
O496 C482 1.251 . S
O497 Nd473 2.424 . S
O497 C482 1.268 . S
O498 Nd473 2.500 . S
O498 C483 1.258 1_545 S
O499 Nd473 2.492 1_565 S
O499 C483 1.239 . S
O500 Nd473 2.487 1_655 S
O500 C490 1.241 . S
O501 Nd472 2.414 . S
O501 Nd473 2.682 . S
O501 C490 1.273 1_455 S
O502 Nd473 2.410 . S
O502 C491 1.251 . S
O503 Nd472 2.424 . S
O503 C491 1.268 . S
H504 C476 0.930 . S
H505 C477 0.929 . S
H506 C479 0.930 . S
H507 C480 0.929 . S
H508 C485 0.930 . S
H509 C486 0.929 . S
H510 C488 0.930 . S
H511 C489 0.929 . S
Nd512 C514 2.836 . S
Nd512 O532 2.500 . S
Nd512 O533 2.492 . S
Nd512 O534 2.487 . S
Nd512 O535 2.682 . S
Nd512 O536 2.410 . S
Nd512 O541 2.414 . S
Nd512 O543 2.424 . S
Nd513 C523 2.836 . S
Nd513 O535 2.414 . S
Nd513 O537 2.424 . S
Nd513 O538 2.500 . S
Nd513 O539 2.492 . S
Nd513 O540 2.487 . S
Nd513 O541 2.682 . S
Nd513 O542 2.410 . S
C514 Nd512 2.836 . S
C514 C515 1.498 . S
C514 O532 1.258 . S
C514 O533 1.239 . S
C515 C514 1.498 . S
C515 C516 1.366 . S
C515 C520 1.407 . S
C516 C515 1.366 . S
C516 C517 1.392 . S
C516 H544 0.930 . S
C517 C516 1.392 . S
C517 C518 1.398 . S
C517 H545 0.929 . S
C518 C517 1.398 . S
C518 C519 1.352 . S
C519 C518 1.352 . S
C519 C520 1.384 . S
C519 H546 0.930 . S
C520 C515 1.407 . S
C520 C519 1.384 . S
C520 H547 0.929 . S
C521 O534 1.241 . S
C521 O535 1.273 . S
C522 O536 1.251 . S
C522 O537 1.268 . S
C523 Nd513 2.836 . S
C523 C524 1.498 . S
C523 O538 1.258 . S
C523 O539 1.239 . S
C524 C523 1.498 . S
C524 C525 1.366 . S
C524 C529 1.407 . S
C525 C524 1.366 . S
C525 C526 1.392 . S
C525 H548 0.930 . S
C526 C525 1.392 . S
C526 C527 1.398 . S
C526 H549 0.929 . S
C527 C526 1.398 . S
C527 C528 1.352 . S
C528 C527 1.352 . S
C528 C529 1.384 . S
C528 H550 0.930 . S
C529 C524 1.407 . S
C529 C528 1.384 . S
C529 H551 0.929 . S
C530 O540 1.241 . S
C530 O541 1.273 . S
C531 O542 1.251 . S
C531 O543 1.268 . S
O532 Nd512 2.500 . S
O532 C514 1.258 . S
O533 Nd512 2.492 . S
O533 C514 1.239 . S
O534 Nd512 2.487 . S
O534 C521 1.241 . S
O535 Nd512 2.682 . S
O535 Nd513 2.414 . S
O535 C521 1.273 . S
O536 Nd512 2.410 . S
O536 C522 1.251 . S
O537 Nd513 2.424 . S
O537 C522 1.268 . S
O538 Nd513 2.500 . S
O538 C523 1.258 . S
O539 Nd513 2.492 . S
O539 C523 1.239 . S
O540 Nd513 2.487 . S
O540 C530 1.241 . S
O541 Nd512 2.414 . S
O541 Nd513 2.682 . S
O541 C530 1.273 . S
O542 Nd513 2.410 . S
O542 C531 1.251 . S
O543 Nd512 2.424 . S
O543 C531 1.268 . S
H544 C516 0.930 . S
H545 C517 0.929 . S
H546 C519 0.930 . S
H547 C520 0.929 . S
H548 C525 0.930 . S
H549 C526 0.929 . S
H550 C528 0.930 . S
H551 C529 0.929 . S
Nd552 C554 2.836 . S
Nd552 O572 2.500 . S
Nd552 O573 2.492 . S
Nd552 O574 2.487 . S
Nd552 O575 2.682 . S
Nd552 O576 2.410 . S
Nd552 O581 2.414 . S
Nd552 O583 2.424 . S
Nd553 C563 2.836 . S
Nd553 O575 2.414 . S
Nd553 O577 2.424 . S
Nd553 O578 2.500 . S
Nd553 O579 2.492 . S
Nd553 O580 2.487 . S
Nd553 O581 2.682 . S
Nd553 O582 2.410 . S
C554 Nd552 2.836 . S
C554 C555 1.498 . S
C554 O572 1.258 . S
C554 O573 1.239 . S
C555 C554 1.498 . S
C555 C556 1.366 . S
C555 C560 1.407 . S
C556 C555 1.366 . S
C556 C557 1.392 . S
C556 H584 0.930 . S
C557 C556 1.392 . S
C557 C558 1.398 . S
C557 H585 0.929 . S
C558 C557 1.398 . S
C558 C559 1.352 . S
C559 C558 1.352 . S
C559 C560 1.384 . S
C559 H586 0.930 1_545 S
C560 C555 1.407 . S
C560 C559 1.384 . S
C560 H587 0.929 1_545 S
C561 O574 1.241 . S
C561 O575 1.273 . S
C562 O576 1.251 . S
C562 O577 1.268 . S
C563 Nd553 2.836 . S
C563 C564 1.498 . S
C563 O578 1.258 . S
C563 O579 1.239 . S
C564 C563 1.498 . S
C564 C565 1.366 . S
C564 C569 1.407 . S
C565 C564 1.366 . S
C565 C566 1.392 . S
C565 H588 0.930 . S
C566 C565 1.392 . S
C566 C567 1.398 . S
C566 H589 0.929 . S
C567 C566 1.398 . S
C567 C568 1.352 . S
C568 C567 1.352 . S
C568 C569 1.384 . S
C568 H590 0.930 . S
C569 C564 1.407 . S
C569 C568 1.384 . S
C569 H591 0.929 . S
C570 O580 1.241 . S
C570 O581 1.273 . S
C571 O582 1.251 . S
C571 O583 1.268 . S
O572 Nd552 2.500 . S
O572 C554 1.258 . S
O573 Nd552 2.492 . S
O573 C554 1.239 . S
O574 Nd552 2.487 . S
O574 C561 1.241 . S
O575 Nd552 2.682 . S
O575 Nd553 2.414 . S
O575 C561 1.273 . S
O576 Nd552 2.410 . S
O576 C562 1.251 . S
O577 Nd553 2.424 . S
O577 C562 1.268 . S
O578 Nd553 2.500 . S
O578 C563 1.258 . S
O579 Nd553 2.492 . S
O579 C563 1.239 . S
O580 Nd553 2.487 . S
O580 C570 1.241 . S
O581 Nd552 2.414 . S
O581 Nd553 2.682 . S
O581 C570 1.273 . S
O582 Nd553 2.410 . S
O582 C571 1.251 . S
O583 Nd552 2.424 . S
O583 C571 1.268 . S
H584 C556 0.930 . S
H585 C557 0.929 . S
H586 C559 0.930 1_565 S
H587 C560 0.929 1_565 S
H588 C565 0.930 . S
H589 C566 0.929 . S
H590 C568 0.930 . S
H591 C569 0.929 . S
Nd592 C594 2.836 . S
Nd592 O612 2.500 . S
Nd592 O613 2.492 . S
Nd592 O614 2.487 . S
Nd592 O615 2.682 . S
Nd592 O616 2.410 . S
Nd592 O621 2.414 . S
Nd592 O623 2.424 . S
Nd593 C603 2.836 . S
Nd593 O615 2.414 . S
Nd593 O617 2.424 . S
Nd593 O618 2.500 . S
Nd593 O619 2.492 . S
Nd593 O620 2.487 . S
Nd593 O621 2.682 . S
Nd593 O622 2.410 . S
C594 Nd592 2.836 . S
C594 C595 1.498 . S
C594 O612 1.258 . S
C594 O613 1.239 . S
C595 C594 1.498 . S
C595 C596 1.366 . S
C595 C600 1.407 . S
C596 C595 1.366 . S
C596 C597 1.392 . S
C596 H624 0.930 . S
C597 C596 1.392 . S
C597 C598 1.398 . S
C597 H625 0.929 . S
C598 C597 1.398 . S
C598 C599 1.352 . S
C599 C598 1.352 . S
C599 C600 1.384 . S
C599 H626 0.930 . S
C600 C595 1.407 . S
C600 C599 1.384 . S
C600 H627 0.929 . S
C601 O614 1.241 . S
C601 O615 1.273 . S
C602 O616 1.251 . S
C602 O617 1.268 . S
C603 Nd593 2.836 . S
C603 C604 1.498 . S
C603 O618 1.258 . S
C603 O619 1.239 . S
C604 C603 1.498 . S
C604 C605 1.366 . S
C604 C609 1.407 . S
C605 C604 1.366 . S
C605 C606 1.392 . S
C605 H628 0.930 . S
C606 C605 1.392 . S
C606 C607 1.398 . S
C606 H629 0.929 . S
C607 C606 1.398 . S
C607 C608 1.352 . S
C608 C607 1.352 . S
C608 C609 1.384 . S
C608 H630 0.930 . S
C609 C604 1.407 . S
C609 C608 1.384 . S
C609 H631 0.929 . S
C610 O620 1.241 . S
C610 O621 1.273 . S
C611 O622 1.251 . S
C611 O623 1.268 . S
O612 Nd592 2.500 . S
O612 C594 1.258 . S
O613 Nd592 2.492 . S
O613 C594 1.239 . S
O614 Nd592 2.487 . S
O614 C601 1.241 . S
O615 Nd592 2.682 . S
O615 Nd593 2.414 . S
O615 C601 1.273 . S
O616 Nd592 2.410 . S
O616 C602 1.251 . S
O617 Nd593 2.424 . S
O617 C602 1.268 . S
O618 Nd593 2.500 . S
O618 C603 1.258 . S
O619 Nd593 2.492 . S
O619 C603 1.239 . S
O620 Nd593 2.487 . S
O620 C610 1.241 . S
O621 Nd592 2.414 . S
O621 Nd593 2.682 . S
O621 C610 1.273 . S
O622 Nd593 2.410 . S
O622 C611 1.251 . S
O623 Nd592 2.424 . S
O623 C611 1.268 . S
H624 C596 0.930 . S
H625 C597 0.929 . S
H626 C599 0.930 . S
H627 C600 0.929 . S
H628 C605 0.930 . S
H629 C606 0.929 . S
H630 C608 0.930 . S
H631 C609 0.929 . S
Nd632 C634 2.836 . S
Nd632 O652 2.500 . S
Nd632 O653 2.492 . S
Nd632 O654 2.487 . S
Nd632 O655 2.682 . S
Nd632 O656 2.410 . S
Nd632 O661 2.414 . S
Nd632 O663 2.424 . S
Nd633 C643 2.836 . S
Nd633 O655 2.414 . S
Nd633 O657 2.424 . S
Nd633 O658 2.500 . S
Nd633 O659 2.492 . S
Nd633 O660 2.487 . S
Nd633 O661 2.682 . S
Nd633 O662 2.410 . S
C634 Nd632 2.836 . S
C634 C635 1.498 . S
C634 O652 1.258 . S
C634 O653 1.239 . S
C635 C634 1.498 . S
C635 C636 1.366 . S
C635 C640 1.407 . S
C636 C635 1.366 . S
C636 C637 1.392 . S
C636 H664 0.930 . S
C637 C636 1.392 . S
C637 C638 1.398 . S
C637 H665 0.929 . S
C638 C637 1.398 . S
C638 C639 1.352 . S
C639 C638 1.352 . S
C639 C640 1.384 . S
C639 H666 0.930 . S
C640 C635 1.407 . S
C640 C639 1.384 . S
C640 H667 0.929 . S
C641 O654 1.241 . S
C641 O655 1.273 . S
C642 O656 1.251 . S
C642 O657 1.268 . S
C643 Nd633 2.836 . S
C643 C644 1.498 . S
C643 O658 1.258 . S
C643 O659 1.239 . S
C644 C643 1.498 . S
C644 C645 1.366 . S
C644 C649 1.407 . S
C645 C644 1.366 . S
C645 C646 1.392 . S
C645 H668 0.930 . S
C646 C645 1.392 . S
C646 C647 1.398 . S
C646 H669 0.929 . S
C647 C646 1.398 . S
C647 C648 1.352 . S
C648 C647 1.352 . S
C648 C649 1.384 . S
C648 H670 0.930 . S
C649 C644 1.407 . S
C649 C648 1.384 . S
C649 H671 0.929 . S
C650 O660 1.241 . S
C650 O661 1.273 . S
C651 O662 1.251 . S
C651 O663 1.268 . S
O652 Nd632 2.500 . S
O652 C634 1.258 . S
O653 Nd632 2.492 . S
O653 C634 1.239 . S
O654 Nd632 2.487 . S
O654 C641 1.241 . S
O655 Nd632 2.682 . S
O655 Nd633 2.414 . S
O655 C641 1.273 . S
O656 Nd632 2.410 . S
O656 C642 1.251 . S
O657 Nd633 2.424 . S
O657 C642 1.268 . S
O658 Nd633 2.500 . S
O658 C643 1.258 . S
O659 Nd633 2.492 . S
O659 C643 1.239 . S
O660 Nd633 2.487 . S
O660 C650 1.241 . S
O661 Nd632 2.414 . S
O661 Nd633 2.682 . S
O661 C650 1.273 . S
O662 Nd633 2.410 . S
O662 C651 1.251 . S
O663 Nd632 2.424 . S
O663 C651 1.268 . S
H664 C636 0.930 . S
H665 C637 0.929 . S
H666 C639 0.930 . S
H667 C640 0.929 . S
H668 C645 0.930 . S
H669 C646 0.929 . S
H670 C648 0.930 . S
H671 C649 0.929 . S
Nd672 C674 2.836 . S
Nd672 O692 2.500 . S
Nd672 O693 2.492 . S
Nd672 O694 2.487 . S
Nd672 O695 2.682 . S
Nd672 O696 2.410 . S
Nd672 O701 2.414 . S
Nd672 O703 2.424 . S
Nd673 C683 2.836 . S
Nd673 O695 2.414 . S
Nd673 O697 2.424 . S
Nd673 O698 2.500 . S
Nd673 O699 2.492 . S
Nd673 O700 2.487 . S
Nd673 O701 2.682 . S
Nd673 O702 2.410 . S
C674 Nd672 2.836 . S
C674 C675 1.498 . S
C674 O692 1.258 . S
C674 O693 1.239 . S
C675 C674 1.498 . S
C675 C676 1.366 . S
C675 C680 1.407 . S
C676 C675 1.366 . S
C676 C677 1.392 . S
C676 H704 0.930 . S
C677 C676 1.392 . S
C677 C678 1.398 . S
C677 H705 0.929 . S
C678 C677 1.398 . S
C678 C679 1.352 . S
C679 C678 1.352 . S
C679 C680 1.384 . S
C679 H706 0.930 . S
C680 C675 1.407 . S
C680 C679 1.384 . S
C680 H707 0.929 . S
C681 O694 1.241 . S
C681 O695 1.273 . S
C682 O696 1.251 . S
C682 O697 1.268 . S
C683 Nd673 2.836 . S
C683 C684 1.498 . S
C683 O698 1.258 . S
C683 O699 1.239 . S
C684 C683 1.498 . S
C684 C685 1.366 . S
C684 C689 1.407 . S
C685 C684 1.366 . S
C685 C686 1.392 . S
C685 H708 0.930 . S
C686 C685 1.392 . S
C686 C687 1.398 . S
C686 H709 0.929 . S
C687 C686 1.398 . S
C687 C688 1.352 . S
C688 C687 1.352 . S
C688 C689 1.384 . S
C688 H710 0.930 . S
C689 C684 1.407 . S
C689 C688 1.384 . S
C689 H711 0.929 . S
C690 O700 1.241 . S
C690 O701 1.273 . S
C691 O702 1.251 . S
C691 O703 1.268 . S
O692 Nd672 2.500 . S
O692 C674 1.258 . S
O693 Nd672 2.492 . S
O693 C674 1.239 . S
O694 Nd672 2.487 . S
O694 C681 1.241 . S
O695 Nd672 2.682 . S
O695 Nd673 2.414 . S
O695 C681 1.273 . S
O696 Nd672 2.410 . S
O696 C682 1.251 . S
O697 Nd673 2.424 . S
O697 C682 1.268 . S
O698 Nd673 2.500 . S
O698 C683 1.258 . S
O699 Nd673 2.492 . S
O699 C683 1.239 . S
O700 Nd673 2.487 . S
O700 C690 1.241 . S
O701 Nd672 2.414 . S
O701 Nd673 2.682 . S
O701 C690 1.273 . S
O702 Nd673 2.410 . S
O702 C691 1.251 . S
O703 Nd672 2.424 . S
O703 C691 1.268 . S
H704 C676 0.930 . S
H705 C677 0.929 . S
H706 C679 0.930 . S
H707 C680 0.929 . S
H708 C685 0.930 . S
H709 C686 0.929 . S
H710 C688 0.930 . S
H711 C689 0.929 . S
Nd712 C714 2.775 1_455 S
Nd712 O732 2.440 1_455 S
Nd712 O733 2.443 1_455 S
Nd712 O734 2.517 . S
Nd712 O735 2.741 . S
Nd712 O736 2.409 . S
Nd712 O741 2.434 . S
Nd712 O743 2.471 . S
Nd713 C723 2.836 . S
Nd713 O735 2.414 . S
Nd713 O737 2.424 . S
Nd713 O738 2.500 . S
Nd713 O739 2.492 . S
Nd713 O740 2.487 . S
Nd713 O741 2.682 . S
Nd713 O742 2.410 . S
C714 Nd712 2.775 1_655 S
C714 C715 1.498 . S
C714 O732 1.258 . S
C714 O733 1.239 . S
C715 C714 1.498 . S
C715 C716 1.366 . S
C715 C720 1.407 . S
C716 C715 1.366 . S
C716 C717 1.392 . S
C716 H744 0.930 . S
C717 C716 1.392 . S
C717 C718 1.398 . S
C717 H745 0.929 . S
C718 C717 1.398 . S
C718 C719 1.352 . S
C719 C718 1.352 . S
C719 C720 1.384 . S
C719 H746 0.930 . S
C720 C715 1.407 . S
C720 C719 1.384 . S
C720 H747 0.929 . S
C721 O734 1.241 . S
C721 O735 1.273 . S
C722 O736 1.251 . S
C722 O737 1.268 . S
C723 Nd713 2.836 . S
C723 C724 1.498 . S
C723 O738 1.258 . S
C723 O739 1.239 . S
C724 C723 1.498 . S
C724 C725 1.366 . S
C724 C729 1.407 . S
C725 C724 1.366 . S
C725 C726 1.392 . S
C725 H748 0.930 . S
C726 C725 1.392 . S
C726 C727 1.398 . S
C726 H749 0.929 . S
C727 C726 1.398 . S
C727 C728 1.352 . S
C728 C727 1.352 . S
C728 C729 1.384 . S
C728 H750 0.930 . S
C729 C724 1.407 . S
C729 C728 1.384 . S
C729 H751 0.929 . S
C730 O740 1.241 . S
C730 O741 1.273 . S
C731 O742 1.251 . S
C731 O743 1.268 . S
O732 Nd712 2.440 1_655 S
O732 C714 1.258 . S
O733 Nd712 2.443 1_655 S
O733 C714 1.239 . S
O734 Nd712 2.517 . S
O734 C721 1.241 . S
O735 Nd712 2.741 . S
O735 Nd713 2.414 . S
O735 C721 1.273 . S
O736 Nd712 2.409 . S
O736 C722 1.251 . S
O737 Nd713 2.424 . S
O737 C722 1.268 . S
O738 Nd713 2.500 . S
O738 C723 1.258 . S
O739 Nd713 2.492 . S
O739 C723 1.239 . S
O740 Nd713 2.487 . S
O740 C730 1.241 . S
O741 Nd712 2.434 . S
O741 Nd713 2.682 . S
O741 C730 1.273 . S
O742 Nd713 2.410 . S
O742 C731 1.251 . S
O743 Nd712 2.471 . S
O743 C731 1.268 . S
H744 C716 0.930 . S
H745 C717 0.929 . S
H746 C719 0.930 . S
H747 C720 0.929 . S
H748 C725 0.930 . S
H749 C726 0.929 . S
H750 C728 0.930 . S
H751 C729 0.929 . S
Nd752 C754 2.836 . S
Nd752 O772 2.500 . S
Nd752 O773 2.492 . S
Nd752 O774 2.487 . S
Nd752 O775 2.682 . S
Nd752 O776 2.410 . S
Nd752 O781 2.414 . S
Nd752 O783 2.424 . S
Nd753 C763 2.836 . S
Nd753 O775 2.414 . S
Nd753 O777 2.424 . S
Nd753 O778 2.500 . S
Nd753 O779 2.492 . S
Nd753 O780 2.487 . S
Nd753 O781 2.682 . S
Nd753 O782 2.410 . S
C754 Nd752 2.836 . S
C754 C755 1.498 . S
C754 O772 1.258 . S
C754 O773 1.239 . S
C755 C754 1.498 . S
C755 C756 1.366 . S
C755 C760 1.407 . S
C756 C755 1.366 . S
C756 C757 1.392 . S
C756 H784 0.930 . S
C757 C756 1.392 . S
C757 C758 1.398 . S
C757 H785 0.929 . S
C758 C757 1.398 . S
C758 C759 1.352 . S
C759 C758 1.352 . S
C759 C760 1.384 . S
C759 H786 0.930 . S
C760 C755 1.407 . S
C760 C759 1.384 . S
C760 H787 0.929 . S
C761 O774 1.241 . S
C761 O775 1.273 . S
C762 O776 1.251 . S
C762 O777 1.268 . S
C763 Nd753 2.836 . S
C763 C764 1.498 . S
C763 O778 1.258 . S
C763 O779 1.239 . S
C764 C763 1.498 . S
C764 C765 1.366 . S
C764 C769 1.407 . S
C765 C764 1.366 . S
C765 C766 1.392 . S
C765 H788 0.930 . S
C766 C765 1.392 . S
C766 C767 1.398 . S
C766 H789 0.929 . S
C767 C766 1.398 . S
C767 C768 1.352 . S
C768 C767 1.352 . S
C768 C769 1.384 . S
C768 H790 0.930 . S
C769 C764 1.407 . S
C769 C768 1.384 . S
C769 H791 0.929 . S
C770 O780 1.241 . S
C770 O781 1.273 . S
C771 O782 1.251 . S
C771 O783 1.268 . S
O772 Nd752 2.500 . S
O772 C754 1.258 . S
O773 Nd752 2.492 . S
O773 C754 1.239 . S
O774 Nd752 2.487 . S
O774 C761 1.241 . S
O775 Nd752 2.682 . S
O775 Nd753 2.414 . S
O775 C761 1.273 . S
O776 Nd752 2.410 . S
O776 C762 1.251 . S
O777 Nd753 2.424 . S
O777 C762 1.268 . S
O778 Nd753 2.500 . S
O778 C763 1.258 . S
O779 Nd753 2.492 . S
O779 C763 1.239 . S
O780 Nd753 2.487 . S
O780 C770 1.241 . S
O781 Nd752 2.414 . S
O781 Nd753 2.682 . S
O781 C770 1.273 . S
O782 Nd753 2.410 . S
O782 C771 1.251 . S
O783 Nd752 2.424 . S
O783 C771 1.268 . S
H784 C756 0.930 . S
H785 C757 0.929 . S
H786 C759 0.930 . S
H787 C760 0.929 . S
H788 C765 0.930 . S
H789 C766 0.929 . S
H790 C768 0.930 . S
H791 C769 0.929 . S
Nd792 C794 2.836 . S
Nd792 O812 2.500 . S
Nd792 O813 2.492 . S
Nd792 O814 2.487 . S
Nd792 O815 2.682 . S
Nd792 O816 2.410 . S
Nd792 O821 2.414 . S
Nd792 O823 2.424 . S
Nd793 C803 2.836 . S
Nd793 O815 2.414 . S
Nd793 O817 2.424 . S
Nd793 O818 2.500 . S
Nd793 O819 2.492 . S
Nd793 O820 2.487 . S
Nd793 O821 2.682 . S
Nd793 O822 2.410 . S
C794 Nd792 2.836 . S
C794 C795 1.498 . S
C794 O812 1.258 . S
C794 O813 1.239 . S
C795 C794 1.498 . S
C795 C796 1.366 . S
C795 C800 1.407 . S
C796 C795 1.366 . S
C796 C797 1.392 . S
C796 H824 0.930 . S
C797 C796 1.392 . S
C797 C798 1.398 . S
C797 H825 0.929 . S
C798 C797 1.398 . S
C798 C799 1.352 . S
C799 C798 1.352 . S
C799 C800 1.384 . S
C799 H826 0.930 . S
C800 C795 1.407 . S
C800 C799 1.384 . S
C800 H827 0.929 . S
C801 O814 1.241 . S
C801 O815 1.273 . S
C802 O816 1.251 . S
C802 O817 1.268 . S
C803 Nd793 2.836 . S
C803 C804 1.498 . S
C803 O818 1.258 . S
C803 O819 1.239 . S
C804 C803 1.498 . S
C804 C805 1.366 . S
C804 C809 1.407 . S
C805 C804 1.366 . S
C805 C806 1.392 . S
C805 H828 0.930 . S
C806 C805 1.392 . S
C806 C807 1.398 . S
C806 H829 0.929 . S
C807 C806 1.398 . S
C807 C808 1.352 . S
C808 C807 1.352 . S
C808 C809 1.384 . S
C808 H830 0.930 . S
C809 C804 1.407 . S
C809 C808 1.384 . S
C809 H831 0.929 . S
C810 O820 1.241 . S
C810 O821 1.273 . S
C811 O822 1.251 . S
C811 O823 1.268 . S
O812 Nd792 2.500 . S
O812 C794 1.258 . S
O813 Nd792 2.492 . S
O813 C794 1.239 . S
O814 Nd792 2.487 . S
O814 C801 1.241 . S
O815 Nd792 2.682 . S
O815 Nd793 2.414 . S
O815 C801 1.273 . S
O816 Nd792 2.410 . S
O816 C802 1.251 . S
O817 Nd793 2.424 . S
O817 C802 1.268 . S
O818 Nd793 2.500 . S
O818 C803 1.258 . S
O819 Nd793 2.492 . S
O819 C803 1.239 . S
O820 Nd793 2.487 . S
O820 C810 1.241 . S
O821 Nd792 2.414 . S
O821 Nd793 2.682 . S
O821 C810 1.273 . S
O822 Nd793 2.410 . S
O822 C811 1.251 . S
O823 Nd792 2.424 . S
O823 C811 1.268 . S
H824 C796 0.930 . S
H825 C797 0.929 . S
H826 C799 0.930 . S
H827 C800 0.929 . S
H828 C805 0.930 . S
H829 C806 0.929 . S
H830 C808 0.930 . S
H831 C809 0.929 . S
Nd832 C834 2.836 . S
Nd832 O852 2.500 . S
Nd832 O853 2.492 . S
Nd832 O854 2.487 . S
Nd832 O855 2.682 . S
Nd832 O856 2.410 . S
Nd832 O861 2.414 . S
Nd832 O863 2.424 . S
Nd833 C843 2.836 . S
Nd833 O855 2.414 . S
Nd833 O857 2.424 . S
Nd833 O858 2.500 . S
Nd833 O859 2.492 . S
Nd833 O860 2.487 . S
Nd833 O861 2.682 . S
Nd833 O862 2.410 . S
C834 Nd832 2.836 . S
C834 C835 1.498 . S
C834 O852 1.258 . S
C834 O853 1.239 . S
C835 C834 1.498 . S
C835 C836 1.366 . S
C835 C840 1.407 . S
C836 C835 1.366 . S
C836 C837 1.392 . S
C836 H864 0.930 . S
C837 C836 1.392 . S
C837 C838 1.398 . S
C837 H865 0.929 . S
C838 C837 1.398 . S
C838 C839 1.352 . S
C839 C838 1.352 . S
C839 C840 1.384 . S
C839 H866 0.930 . S
C840 C835 1.407 . S
C840 C839 1.384 . S
C840 H867 0.929 . S
C841 O854 1.241 . S
C841 O855 1.273 . S
C842 O856 1.251 . S
C842 O857 1.268 . S
C843 Nd833 2.836 . S
C843 C844 1.498 . S
C843 O858 1.258 . S
C843 O859 1.239 . S
C844 C843 1.498 . S
C844 C845 1.366 . S
C844 C849 1.407 . S
C845 C844 1.366 . S
C845 C846 1.392 . S
C845 H868 0.930 . S
C846 C845 1.392 . S
C846 C847 1.398 . S
C846 H869 0.929 . S
C847 C846 1.398 . S
C847 C848 1.352 . S
C848 C847 1.352 . S
C848 C849 1.384 . S
C848 H870 0.930 . S
C849 C844 1.407 . S
C849 C848 1.384 . S
C849 H871 0.929 . S
C850 O860 1.241 . S
C850 O861 1.273 . S
C851 O862 1.251 . S
C851 O863 1.268 . S
O852 Nd832 2.500 . S
O852 C834 1.258 . S
O853 Nd832 2.492 . S
O853 C834 1.239 . S
O854 Nd832 2.487 . S
O854 C841 1.241 . S
O855 Nd832 2.682 . S
O855 Nd833 2.414 . S
O855 C841 1.273 . S
O856 Nd832 2.410 . S
O856 C842 1.251 . S
O857 Nd833 2.424 . S
O857 C842 1.268 . S
O858 Nd833 2.500 . S
O858 C843 1.258 . S
O859 Nd833 2.492 . S
O859 C843 1.239 . S
O860 Nd833 2.487 . S
O860 C850 1.241 . S
O861 Nd832 2.414 . S
O861 Nd833 2.682 . S
O861 C850 1.273 . S
O862 Nd833 2.410 . S
O862 C851 1.251 . S
O863 Nd832 2.424 . S
O863 C851 1.268 . S
H864 C836 0.930 . S
H865 C837 0.929 . S
H866 C839 0.930 . S
H867 C840 0.929 . S
H868 C845 0.930 . S
H869 C846 0.929 . S
H870 C848 0.930 . S
H871 C849 0.929 . S
Nd872 C874 2.836 . S
Nd872 O892 2.500 . S
Nd872 O893 2.492 . S
Nd872 O894 2.487 . S
Nd872 O895 2.682 . S
Nd872 O896 2.410 . S
Nd872 O901 2.414 . S
Nd872 O903 2.424 . S
Nd873 C883 2.836 . S
Nd873 O895 2.414 . S
Nd873 O897 2.424 . S
Nd873 O898 2.500 . S
Nd873 O899 2.492 . S
Nd873 O900 2.487 . S
Nd873 O901 2.682 . S
Nd873 O902 2.410 . S
C874 Nd872 2.836 . S
C874 C875 1.498 . S
C874 O892 1.258 . S
C874 O893 1.239 . S
C875 C874 1.498 . S
C875 C876 1.366 . S
C875 C880 1.407 . S
C876 C875 1.366 . S
C876 C877 1.392 . S
C876 H904 0.930 . S
C877 C876 1.392 . S
C877 C878 1.398 . S
C877 H905 0.929 . S
C878 C877 1.398 . S
C878 C879 1.352 . S
C879 C878 1.352 . S
C879 C880 1.384 . S
C879 H906 0.930 . S
C880 C875 1.407 . S
C880 C879 1.384 . S
C880 H907 0.929 . S
C881 O894 1.241 . S
C881 O895 1.273 . S
C882 O896 1.251 . S
C882 O897 1.268 . S
C883 Nd873 2.836 . S
C883 C884 1.498 . S
C883 O898 1.258 . S
C883 O899 1.239 . S
C884 C883 1.498 . S
C884 C885 1.366 . S
C884 C889 1.407 . S
C885 C884 1.366 . S
C885 C886 1.392 . S
C885 H908 0.930 . S
C886 C885 1.392 . S
C886 C887 1.398 . S
C886 H909 0.929 . S
C887 C886 1.398 . S
C887 C888 1.352 . S
C888 C887 1.352 . S
C888 C889 1.384 . S
C888 H910 0.930 . S
C889 C884 1.407 . S
C889 C888 1.384 . S
C889 H911 0.929 . S
C890 O900 1.241 . S
C890 O901 1.273 . S
C891 O902 1.251 . S
C891 O903 1.268 . S
O892 Nd872 2.500 . S
O892 C874 1.258 . S
O893 Nd872 2.492 . S
O893 C874 1.239 . S
O894 Nd872 2.487 . S
O894 C881 1.241 . S
O895 Nd872 2.682 . S
O895 Nd873 2.414 . S
O895 C881 1.273 . S
O896 Nd872 2.410 . S
O896 C882 1.251 . S
O897 Nd873 2.424 . S
O897 C882 1.268 . S
O898 Nd873 2.500 . S
O898 C883 1.258 . S
O899 Nd873 2.492 . S
O899 C883 1.239 . S
O900 Nd873 2.487 . S
O900 C890 1.241 . S
O901 Nd872 2.414 . S
O901 Nd873 2.682 . S
O901 C890 1.273 . S
O902 Nd873 2.410 . S
O902 C891 1.251 . S
O903 Nd872 2.424 . S
O903 C891 1.268 . S
H904 C876 0.930 . S
H905 C877 0.929 . S
H906 C879 0.930 . S
H907 C880 0.929 . S
H908 C885 0.930 . S
H909 C886 0.929 . S
H910 C888 0.930 . S
H911 C889 0.929 . S
Nd912 C914 2.836 . S
Nd912 O932 2.500 . S
Nd912 O933 2.492 . S
Nd912 O934 2.487 . S
Nd912 O935 2.682 . S
Nd912 O936 2.410 . S
Nd912 O941 2.414 . S
Nd912 O943 2.424 . S
Nd913 C923 2.836 . S
Nd913 O935 2.414 1_655 S
Nd913 O937 2.424 1_655 S
Nd913 O938 2.500 . S
Nd913 O939 2.492 . S
Nd913 O940 2.483 1_655 S
Nd913 O941 2.682 1_655 S
Nd913 O942 2.410 1_655 S
C914 Nd912 2.836 . S
C914 C915 1.498 . S
C914 O932 1.258 . S
C914 O933 1.239 . S
C915 C914 1.498 . S
C915 C916 1.366 . S
C915 C920 1.407 . S
C916 C915 1.366 . S
C916 C917 1.392 . S
C916 H944 0.930 . S
C917 C916 1.392 . S
C917 C918 1.398 . S
C917 H945 0.929 1_554 S
C918 C917 1.398 . S
C918 C919 1.352 . S
C919 C918 1.352 . S
C919 C920 1.384 . S
C919 H946 0.930 . S
C920 C915 1.407 . S
C920 C919 1.384 . S
C920 H947 0.929 . S
C921 O934 1.241 . S
C921 O935 1.273 . S
C922 O936 1.251 . S
C922 O937 1.268 . S
C923 Nd913 2.836 . S
C923 C924 1.498 . S
C923 O938 1.258 . S
C923 O939 1.239 . S
C924 C923 1.498 . S
C924 C925 1.366 . S
C924 C929 1.407 . S
C925 C924 1.366 . S
C925 C926 1.392 . S
C925 H948 0.930 . S
C926 C925 1.392 . S
C926 C927 1.398 . S
C926 H949 0.929 . S
C927 C926 1.398 . S
C927 C928 1.352 . S
C928 C927 1.352 . S
C928 C929 1.384 . S
C928 H950 0.930 . S
C929 C924 1.407 . S
C929 C928 1.384 . S
C929 H951 0.929 . S
C930 O940 1.279 . S
C930 O941 1.273 . S
C931 O942 1.251 . S
C931 O943 1.268 . S
O932 Nd912 2.500 . S
O932 C914 1.258 . S
O933 Nd912 2.492 . S
O933 C914 1.239 . S
O934 Nd912 2.487 . S
O934 C921 1.241 . S
O935 Nd912 2.682 . S
O935 Nd913 2.414 1_455 S
O935 C921 1.273 . S
O936 Nd912 2.410 . S
O936 C922 1.251 . S
O937 Nd913 2.424 1_455 S
O937 C922 1.268 . S
O938 Nd913 2.500 . S
O938 C923 1.258 . S
O939 Nd913 2.492 . S
O939 C923 1.239 . S
O940 Nd913 2.483 1_455 S
O940 C930 1.279 . S
O941 Nd912 2.414 . S
O941 Nd913 2.682 1_455 S
O941 C930 1.273 . S
O942 Nd913 2.410 1_455 S
O942 C931 1.251 . S
O943 Nd912 2.424 . S
O943 C931 1.268 . S
H944 C916 0.930 . S
H945 C917 0.929 1_556 S
H946 C919 0.930 . S
H947 C920 0.929 . S
H948 C925 0.930 . S
H949 C926 0.929 . S
H950 C928 0.930 . S
H951 C929 0.929 . S
C952 C953 1.349 . S
C952 C954 1.327 . S
C952 H977 0.950 1_455 S
C953 C952 1.349 . S
C953 C969 1.349 . S
C954 C952 1.327 . S
C954 C973 1.429 . S
C954 H978 0.950 1_455 S
C955 C972 1.574 . S
C955 C974 1.368 . S
C955 H979 0.949 . S
H956 C960 0.949 1_655 S
C957 C958 1.349 . S
C957 C959 1.327 . S
C957 H980 0.950 . S
C958 C957 1.349 . S
C958 C970 1.349 . S
C959 C957 1.327 . S
C959 C975 1.453 . S
C959 H981 0.950 . S
C960 H956 0.949 1_455 S
C960 C968 1.574 . S
C960 C976 1.368 . S
H961 C969 0.950 . S
H962 C967 0.950 . S
H963 C968 0.949 1_655 S
H964 C970 0.950 1_655 S
H965 C971 0.950 1_656 S
H966 C972 0.949 . S
C967 H962 0.950 . S
C967 C969 1.327 . S
C967 C973 1.429 . S
C968 C960 1.574 . S
C968 H963 0.949 1_455 S
C968 C974 1.368 . S
C969 C953 1.349 . S
C969 H961 0.950 . S
C969 C967 1.327 . S
C970 C958 1.349 . S
C970 H964 0.950 1_455 S
C970 C971 1.327 . S
C971 H965 0.950 1_454 S
C971 C970 1.327 . S
C971 C975 1.442 . S
C972 C955 1.574 . S
C972 H966 0.949 . S
C972 C976 1.368 . S
C973 C954 1.429 . S
C973 C967 1.429 . S
C973 C974 1.523 . S
C974 C955 1.368 . S
C974 C968 1.368 . S
C974 C973 1.523 . S
C975 C959 1.453 . S
C975 C971 1.442 . S
C975 C976 1.489 1_554 S
C976 C960 1.368 . S
C976 C972 1.368 . S
C976 C975 1.489 1_556 S
H977 C952 0.950 1_655 S
H978 C954 0.950 1_655 S
H979 C955 0.949 . S
H980 C957 0.950 . S
H981 C959 0.950 . S
C982 C983 1.349 . S
C982 C984 1.327 . S
C982 H1007 0.950 . S
C983 C982 1.349 . S
C983 C999 1.349 . S
C984 C982 1.327 . S
C984 C1003 1.429 . S
C984 H1008 0.950 . S
C985 C1002 1.574 . S
C985 C1004 1.368 . S
C985 H1009 0.949 . S
H986 C990 0.949 . S
C987 C988 1.349 . S
C987 C989 1.327 . S
C987 H1010 0.950 . S
C988 C987 1.349 . S
C988 C1000 1.349 . S
C989 C987 1.327 . S
C989 C1005 1.429 . S
C989 H1011 0.950 . S
C990 H986 0.949 . S
C990 C998 1.574 . S
C990 C1006 1.368 . S
H991 C999 0.950 . S
H992 C997 0.950 . S
H993 C998 0.949 . S
H994 C1000 0.950 . S
H995 C1001 0.950 . S
H996 C1002 0.949 . S
C997 H992 0.950 . S
C997 C999 1.327 . S
C997 C1003 1.429 . S
C998 C990 1.574 . S
C998 H993 0.949 . S
C998 C1004 1.368 . S
C999 C983 1.349 . S
C999 H991 0.950 . S
C999 C997 1.327 . S
C1000 C988 1.349 . S
C1000 H994 0.950 . S
C1000 C1001 1.327 . S
C1001 H995 0.950 . S
C1001 C1000 1.327 . S
C1001 C1005 1.429 . S
C1002 C985 1.574 . S
C1002 H996 0.949 . S
C1002 C1006 1.368 . S
C1003 C984 1.429 . S
C1003 C997 1.429 . S
C1003 C1004 1.523 . S
C1004 C985 1.368 . S
C1004 C998 1.368 . S
C1004 C1003 1.523 . S
C1005 C989 1.429 . S
C1005 C1001 1.429 . S
C1005 C1006 1.523 . S
C1006 C990 1.368 . S
C1006 C1002 1.368 . S
C1006 C1005 1.523 . S
H1007 C982 0.950 . S
H1008 C984 0.950 . S
H1009 C985 0.949 . S
H1010 C987 0.950 . S
H1011 C989 0.950 . S
C1012 C1013 1.349 . S
C1012 C1014 1.327 . S
C1012 H1037 0.950 . S
C1013 C1012 1.349 . S
C1013 C1029 1.349 . S
C1014 C1012 1.327 . S
C1014 C1033 1.429 . S
C1014 H1038 0.950 . S
C1015 C1032 1.574 . S
C1015 C1034 1.368 . S
C1015 H1039 0.949 . S
H1016 C1020 0.949 . S
C1017 C1018 1.349 1_565 S
C1017 C1019 1.327 . S
C1017 H1040 0.950 . S
C1018 C1017 1.349 1_545 S
C1018 C1030 1.349 1_545 S
C1019 C1017 1.327 . S
C1019 C1035 1.429 . S
C1019 H1041 0.950 . S
C1020 H1016 0.949 . S
C1020 C1028 1.574 . S
C1020 C1036 1.368 . S
H1021 C1029 0.950 . S
H1022 C1027 0.950 . S
H1023 C1028 0.949 . S
H1024 C1030 0.950 1_545 S
H1025 C1031 0.950 . S
H1026 C1032 0.949 . S
C1027 H1022 0.950 . S
C1027 C1029 1.327 . S
C1027 C1033 1.429 . S
C1028 C1020 1.574 . S
C1028 H1023 0.949 . S
C1028 C1034 1.368 . S
C1029 C1013 1.349 . S
C1029 H1021 0.950 . S
C1029 C1027 1.327 . S
C1030 C1018 1.349 1_565 S
C1030 H1024 0.950 1_565 S
C1030 C1031 1.327 . S
C1031 H1025 0.950 . S
C1031 C1030 1.327 . S
C1031 C1035 1.429 . S
C1032 C1015 1.574 . S
C1032 H1026 0.949 . S
C1032 C1036 1.368 . S
C1033 C1014 1.429 . S
C1033 C1027 1.429 . S
C1033 C1034 1.523 . S
C1034 C1015 1.368 . S
C1034 C1028 1.368 . S
C1034 C1033 1.523 . S
C1035 C1019 1.429 . S
C1035 C1031 1.429 . S
C1035 C1036 1.523 . S
C1036 C1020 1.368 . S
C1036 C1032 1.368 . S
C1036 C1035 1.523 . S
H1037 C1012 0.950 . S
H1038 C1014 0.950 . S
H1039 C1015 0.949 . S
H1040 C1017 0.950 . S
H1041 C1019 0.950 . S
C1042 C1043 1.349 . S
C1042 C1044 1.327 . S
C1042 H1067 0.950 . S
C1043 C1042 1.349 . S
C1043 C1059 1.349 . S
C1044 C1042 1.327 . S
C1044 C1063 1.429 . S
C1044 H1068 0.950 . S
C1045 C1062 1.574 . S
C1045 C1064 1.368 . S
C1045 H1069 0.949 . S
H1046 C1050 0.949 . S
C1047 C1048 1.349 . S
C1047 C1049 1.327 . S
C1047 H1070 0.950 . S
C1048 C1047 1.349 . S
C1048 C1060 1.349 . S
C1049 C1047 1.327 . S
C1049 C1065 1.429 . S
C1049 H1071 0.950 . S
C1050 H1046 0.949 . S
C1050 C1058 1.574 . S
C1050 C1066 1.368 . S
H1051 C1059 0.950 . S
H1052 C1057 0.950 . S
H1053 C1058 0.949 . S
H1054 C1060 0.950 . S
H1055 C1061 0.950 . S
H1056 C1062 0.949 . S
C1057 H1052 0.950 . S
C1057 C1059 1.327 . S
C1057 C1063 1.429 . S
C1058 C1050 1.574 . S
C1058 H1053 0.949 . S
C1058 C1064 1.368 . S
C1059 C1043 1.349 . S
C1059 H1051 0.950 . S
C1059 C1057 1.327 . S
C1060 C1048 1.349 . S
C1060 H1054 0.950 . S
C1060 C1061 1.327 . S
C1061 H1055 0.950 . S
C1061 C1060 1.327 . S
C1061 C1065 1.429 . S
C1062 C1045 1.574 . S
C1062 H1056 0.949 . S
C1062 C1066 1.368 . S
C1063 C1044 1.429 . S
C1063 C1057 1.429 . S
C1063 C1064 1.523 . S
C1064 C1045 1.368 . S
C1064 C1058 1.368 . S
C1064 C1063 1.523 . S
C1065 C1049 1.429 . S
C1065 C1061 1.429 . S
C1065 C1066 1.523 . S
C1066 C1050 1.368 . S
C1066 C1062 1.368 . S
C1066 C1065 1.523 . S
H1067 C1042 0.950 . S
H1068 C1044 0.950 . S
H1069 C1045 0.949 . S
H1070 C1047 0.950 . S
H1071 C1049 0.950 . S
C1072 C1073 1.349 1_655 S
C1072 C1074 1.327 . S
C1072 H1097 0.950 . S
C1073 C1072 1.349 1_455 S
C1073 C1089 1.349 . S
C1074 C1072 1.327 . S
C1074 C1093 1.429 1_655 S
C1074 H1098 0.950 . S
C1075 C1092 1.574 . S
C1075 C1094 1.368 . S
C1075 H1099 0.949 . S
H1076 C1080 0.960 . S
C1077 C1078 1.349 . S
C1077 C1079 1.327 . S
C1077 H1100 0.950 . S
C1078 C1077 1.349 . S
C1078 C1090 1.349 . S
C1079 C1077 1.327 . S
C1079 C1095 1.429 . S
C1079 H1101 0.950 . S
C1080 H1076 0.960 . S
C1080 C1088 1.574 . S
C1080 C1096 1.368 . S
H1081 C1089 0.950 . S
H1082 C1087 0.950 . S
H1083 C1088 0.949 1_655 S
H1084 C1090 0.950 . S
H1085 C1091 0.950 . S
H1086 C1092 0.949 . S
C1087 H1082 0.950 . S
C1087 C1089 1.327 . S
C1087 C1093 1.429 . S
C1088 C1080 1.574 . S
C1088 H1083 0.949 1_455 S
C1088 C1094 1.368 . S
C1089 C1073 1.349 . S
C1089 H1081 0.950 . S
C1089 C1087 1.327 . S
C1090 C1078 1.349 . S
C1090 H1084 0.950 . S
C1090 C1091 1.327 . S
C1091 H1085 0.950 . S
C1091 C1090 1.327 . S
C1091 C1095 1.429 . S
C1092 C1075 1.574 . S
C1092 H1086 0.949 . S
C1092 C1096 1.368 . S
C1093 C1074 1.429 1_455 S
C1093 C1087 1.429 . S
C1093 C1094 1.523 . S
C1094 C1075 1.368 . S
C1094 C1088 1.368 . S
C1094 C1093 1.523 . S
C1095 C1079 1.429 . S
C1095 C1091 1.429 . S
C1095 C1096 1.523 . S
C1096 C1080 1.368 . S
C1096 C1092 1.368 . S
C1096 C1095 1.523 . S
H1097 C1072 0.950 . S
H1098 C1074 0.950 . S
H1099 C1075 0.949 . S
H1100 C1077 0.950 . S
H1101 C1079 0.950 . S
C1102 C1103 1.349 . S
C1102 C1104 1.327 . S
C1102 H1127 0.950 . S
C1103 C1102 1.349 . S
C1103 C1119 1.349 . S
C1104 C1102 1.327 . S
C1104 C1123 1.429 . S
C1104 H1128 0.950 . S
C1105 C1122 1.574 . S
C1105 C1124 1.368 . S
C1105 H1129 0.949 . S
H1106 C1110 0.949 . S
C1107 C1108 1.349 . S
C1107 C1109 1.327 . S
C1107 H1130 0.950 . S
C1108 C1107 1.349 . S
C1108 C1120 1.349 . S
C1109 C1107 1.327 . S
C1109 C1125 1.429 . S
C1109 H1131 0.950 . S
C1110 H1106 0.949 . S
C1110 C1118 1.574 . S
C1110 C1126 1.368 . S
H1111 C1119 0.950 . S
H1112 C1117 0.950 . S
H1113 C1118 0.949 . S
H1114 C1120 0.950 . S
H1115 C1121 0.950 . S
H1116 C1122 0.949 . S
C1117 H1112 0.950 . S
C1117 C1119 1.327 . S
C1117 C1123 1.429 . S
C1118 C1110 1.574 . S
C1118 H1113 0.949 . S
C1118 C1124 1.368 . S
C1119 C1103 1.349 . S
C1119 H1111 0.950 . S
C1119 C1117 1.327 . S
C1120 C1108 1.349 . S
C1120 H1114 0.950 . S
C1120 C1121 1.327 . S
C1121 H1115 0.950 . S
C1121 C1120 1.327 . S
C1121 C1125 1.429 . S
C1122 C1105 1.574 . S
C1122 H1116 0.949 . S
C1122 C1126 1.368 . S
C1123 C1104 1.429 . S
C1123 C1117 1.429 . S
C1123 C1124 1.523 . S
C1124 C1105 1.368 . S
C1124 C1118 1.368 . S
C1124 C1123 1.523 . S
C1125 C1109 1.429 . S
C1125 C1121 1.429 . S
C1125 C1126 1.523 . S
C1126 C1110 1.368 . S
C1126 C1122 1.368 . S
C1126 C1125 1.523 . S
H1127 C1102 0.950 . S
H1128 C1104 0.950 . S
H1129 C1105 0.949 . S
H1130 C1107 0.950 . S
H1131 C1109 0.950 . S
C1132 C1133 1.349 . S
C1132 C1134 1.327 . S
C1132 H1157 0.950 . S
C1133 C1132 1.349 . S
C1133 C1149 1.349 . S
C1134 C1132 1.327 . S
C1134 C1153 1.429 . S
C1134 H1158 0.950 . S
C1135 C1152 1.574 . S
C1135 C1154 1.368 . S
C1135 H1159 0.949 . S
H1136 C1140 0.949 . S
C1137 C1138 1.349 . S
C1137 C1139 1.327 . S
C1137 H1160 0.950 . S
C1138 C1137 1.349 . S
C1138 C1150 1.349 . S
C1139 C1137 1.327 . S
C1139 C1155 1.429 . S
C1139 H1161 0.950 . S
C1140 H1136 0.949 . S
C1140 C1148 1.574 . S
C1140 C1156 1.368 . S
H1141 C1149 0.950 . S
H1142 C1147 0.950 . S
H1143 C1148 0.949 . S
H1144 C1150 0.950 . S
H1145 C1151 0.950 . S
H1146 C1152 0.949 . S
C1147 H1142 0.950 . S
C1147 C1149 1.327 . S
C1147 C1153 1.429 . S
C1148 C1140 1.574 . S
C1148 H1143 0.949 . S
C1148 C1154 1.368 . S
C1149 C1133 1.349 . S
C1149 H1141 0.950 . S
C1149 C1147 1.327 . S
C1150 C1138 1.349 . S
C1150 H1144 0.950 . S
C1150 C1151 1.327 . S
C1151 H1145 0.950 . S
C1151 C1150 1.327 . S
C1151 C1155 1.429 . S
C1152 C1135 1.574 . S
C1152 H1146 0.949 . S
C1152 C1156 1.368 . S
C1153 C1134 1.429 . S
C1153 C1147 1.429 . S
C1153 C1154 1.523 . S
C1154 C1135 1.368 . S
C1154 C1148 1.368 . S
C1154 C1153 1.523 . S
C1155 C1139 1.429 . S
C1155 C1151 1.429 . S
C1155 C1156 1.523 . S
C1156 C1140 1.368 . S
C1156 C1152 1.368 . S
C1156 C1155 1.523 . S
H1157 C1132 0.950 . S
H1158 C1134 0.950 . S
H1159 C1135 0.949 . S
H1160 C1137 0.950 . S
H1161 C1139 0.950 . S
C1162 C1163 1.349 . S
C1162 C1164 1.327 . S
C1162 H1187 0.950 . S
C1163 C1162 1.349 . S
C1163 C1179 1.349 . S
C1164 C1162 1.327 . S
C1164 C1183 1.429 . S
C1164 H1188 0.950 . S
C1165 C1182 1.574 . S
C1165 C1184 1.368 . S
C1165 H1189 0.949 . S
H1166 C1170 0.949 . S
C1167 C1168 1.349 . S
C1167 C1169 1.327 . S
C1167 H1190 0.950 . S
C1168 C1167 1.349 . S
C1168 C1180 1.349 . S
C1169 C1167 1.327 . S
C1169 C1185 1.429 . S
C1169 H1191 0.950 . S
C1170 H1166 0.949 . S
C1170 C1178 1.574 . S
C1170 C1186 1.368 . S
H1171 C1179 0.950 . S
H1172 C1177 0.950 . S
H1173 C1178 0.949 . S
H1174 C1180 0.950 . S
H1175 C1181 0.950 . S
H1176 C1182 0.949 . S
C1177 H1172 0.950 . S
C1177 C1179 1.327 . S
C1177 C1183 1.429 . S
C1178 C1170 1.574 . S
C1178 H1173 0.949 . S
C1178 C1184 1.368 . S
C1179 C1163 1.349 . S
C1179 H1171 0.950 . S
C1179 C1177 1.327 . S
C1180 C1168 1.349 . S
C1180 H1174 0.950 . S
C1180 C1181 1.327 . S
C1181 H1175 0.950 . S
C1181 C1180 1.327 . S
C1181 C1185 1.429 . S
C1182 C1165 1.574 . S
C1182 H1176 0.949 . S
C1182 C1186 1.368 . S
C1183 C1164 1.429 . S
C1183 C1177 1.429 . S
C1183 C1184 1.523 . S
C1184 C1165 1.368 . S
C1184 C1178 1.368 . S
C1184 C1183 1.523 . S
C1185 C1169 1.429 . S
C1185 C1181 1.429 . S
C1185 C1186 1.523 . S
C1186 C1170 1.368 . S
C1186 C1182 1.368 . S
C1186 C1185 1.523 . S
H1187 C1162 0.950 . S
H1188 C1164 0.950 . S
H1189 C1165 0.949 . S
H1190 C1167 0.950 . S
H1191 C1169 0.950 . S
C1192 C1193 1.349 . S
C1192 C1194 1.327 . S
C1192 H1217 0.950 . S
C1193 C1192 1.349 . S
C1193 C1209 1.349 . S
C1194 C1192 1.327 . S
C1194 C1213 1.429 . S
C1194 H1218 0.950 . S
C1195 C1212 1.574 . S
C1195 C1214 1.368 . S
C1195 H1219 0.949 . S
H1196 C1200 0.949 . S
C1197 C1198 1.349 . S
C1197 C1199 1.327 . S
C1197 H1220 0.950 . S
C1198 C1197 1.349 . S
C1198 C1210 1.349 1_655 S
C1199 C1197 1.327 . S
C1199 C1215 1.429 . S
C1199 H1221 0.950 . S
C1200 H1196 0.949 . S
C1200 C1208 1.574 . S
C1200 C1216 1.368 . S
H1201 C1209 0.950 . S
H1202 C1207 0.950 . S
H1203 C1208 0.949 . S
H1204 C1210 0.950 . S
H1205 C1211 0.950 1_455 S
H1206 C1212 0.949 . S
C1207 H1202 0.950 . S
C1207 C1209 1.327 . S
C1207 C1213 1.429 . S
C1208 C1200 1.574 . S
C1208 H1203 0.949 . S
C1208 C1214 1.368 . S
C1209 C1193 1.349 . S
C1209 H1201 0.950 . S
C1209 C1207 1.327 . S
C1210 C1198 1.349 1_455 S
C1210 H1204 0.950 . S
C1210 C1211 1.327 1_455 S
C1211 H1205 0.950 1_655 S
C1211 C1210 1.327 1_655 S
C1211 C1215 1.429 . S
C1212 C1195 1.574 . S
C1212 H1206 0.949 . S
C1212 C1216 1.368 . S
C1213 C1194 1.429 . S
C1213 C1207 1.429 . S
C1213 C1214 1.523 . S
C1214 C1195 1.368 . S
C1214 C1208 1.368 . S
C1214 C1213 1.523 . S
C1215 C1199 1.429 . S
C1215 C1211 1.429 . S
C1215 C1216 1.523 . S
C1216 C1200 1.368 . S
C1216 C1212 1.368 . S
C1216 C1215 1.523 . S
H1217 C1192 0.950 . S
H1218 C1194 0.950 . S
H1219 C1195 0.949 . S
H1220 C1197 0.950 . S
H1221 C1199 0.950 . S
C1222 C1223 1.349 . S
C1222 C1224 1.327 . S
C1222 H1247 0.950 . S
C1223 C1222 1.349 . S
C1223 C1239 1.349 . S
C1224 C1222 1.327 . S
C1224 C1243 1.429 . S
C1224 H1248 0.950 . S
C1225 C1242 1.574 . S
C1225 C1244 1.368 . S
C1225 H1249 0.949 . S
H1226 C1230 0.949 . S
C1227 C1228 1.349 . S
C1227 C1229 1.327 . S
C1227 H1250 0.950 . S
C1228 C1227 1.349 . S
C1228 C1240 1.349 . S
C1229 C1227 1.327 . S
C1229 C1245 1.429 . S
C1229 H1251 0.950 . S
C1230 H1226 0.949 . S
C1230 C1238 1.574 . S
C1230 C1246 1.368 . S
H1231 C1239 0.950 . S
H1232 C1237 0.950 . S
H1233 C1238 0.949 . S
H1234 C1240 0.950 . S
H1235 C1241 0.950 . S
H1236 C1242 0.949 . S
C1237 H1232 0.950 . S
C1237 C1239 1.327 . S
C1237 C1243 1.429 . S
C1238 C1230 1.574 . S
C1238 H1233 0.949 . S
C1238 C1244 1.368 . S
C1239 C1223 1.349 . S
C1239 H1231 0.950 . S
C1239 C1237 1.327 . S
C1240 C1228 1.349 . S
C1240 H1234 0.950 . S
C1240 C1241 1.327 . S
C1241 H1235 0.950 . S
C1241 C1240 1.327 . S
C1241 C1245 1.429 . S
C1242 C1225 1.574 . S
C1242 H1236 0.949 . S
C1242 C1246 1.368 . S
C1243 C1224 1.429 . S
C1243 C1237 1.429 . S
C1243 C1244 1.523 . S
C1244 C1225 1.368 . S
C1244 C1238 1.368 . S
C1244 C1243 1.523 . S
C1245 C1229 1.429 . S
C1245 C1241 1.429 . S
C1245 C1246 1.523 . S
C1246 C1230 1.368 . S
C1246 C1242 1.368 . S
C1246 C1245 1.523 . S
H1247 C1222 0.950 . S
H1248 C1224 0.950 . S
H1249 C1225 0.949 . S
H1250 C1227 0.950 . S
H1251 C1229 0.950 . S
C1252 C1253 1.349 1_565 S
C1252 C1254 1.327 1_565 S
C1252 H1277 0.950 . S
C1253 C1252 1.349 1_545 S
C1253 C1269 1.349 . S
C1254 C1252 1.327 1_545 S
C1254 C1273 1.429 . S
C1254 H1278 0.949 1_545 S
C1255 C1272 1.574 . S
C1255 C1274 1.368 . S
C1255 H1279 0.949 . S
H1256 C1260 0.949 . S
C1257 C1258 1.349 . S
C1257 C1259 1.327 . S
C1257 H1280 0.950 . S
C1258 C1257 1.349 . S
C1258 C1270 1.349 . S
C1259 C1257 1.327 . S
C1259 C1275 1.429 . S
C1259 H1281 0.950 . S
C1260 H1256 0.949 . S
C1260 C1268 1.574 . S
C1260 C1276 1.368 . S
H1261 C1269 0.950 . S
H1262 C1267 0.950 . S
H1263 C1268 0.949 . S
H1264 C1270 0.950 . S
H1265 C1271 0.950 . S
H1266 C1272 0.949 . S
C1267 H1262 0.950 . S
C1267 C1269 1.327 . S
C1267 C1273 1.429 . S
C1268 C1260 1.574 . S
C1268 H1263 0.949 . S
C1268 C1274 1.368 . S
C1269 C1253 1.349 . S
C1269 H1261 0.950 . S
C1269 C1267 1.327 . S
C1270 C1258 1.349 . S
C1270 H1264 0.950 . S
C1270 C1271 1.327 . S
C1271 H1265 0.950 . S
C1271 C1270 1.327 . S
C1271 C1275 1.429 . S
C1272 C1255 1.574 . S
C1272 H1266 0.949 . S
C1272 C1276 1.368 . S
C1273 C1254 1.429 . S
C1273 C1267 1.429 . S
C1273 C1274 1.523 . S
C1274 C1255 1.368 . S
C1274 C1268 1.368 . S
C1274 C1273 1.523 . S
C1275 C1259 1.429 . S
C1275 C1271 1.429 . S
C1275 C1276 1.523 . S
C1276 C1260 1.368 . S
C1276 C1272 1.368 . S
C1276 C1275 1.523 . S
H1277 C1252 0.950 . S
H1278 C1254 0.949 1_565 S
H1279 C1255 0.949 . S
H1280 C1257 0.950 . S
H1281 C1259 0.950 . S
C1282 C1283 1.349 . S
C1282 C1284 1.327 . S
C1282 H1307 0.950 . S
C1283 C1282 1.349 . S
C1283 C1299 1.349 . S
C1284 C1282 1.327 . S
C1284 C1303 1.429 . S
C1284 H1308 0.950 . S
C1285 C1302 1.574 . S
C1285 C1304 1.368 1_556 S
C1285 H1309 0.949 . S
H1286 C1290 0.949 . S
C1287 C1288 1.349 . S
C1287 C1289 1.327 . S
C1287 H1310 0.950 . S
C1288 C1287 1.349 . S
C1288 C1300 1.349 . S
C1289 C1287 1.327 . S
C1289 C1305 1.429 . S
C1289 H1311 0.950 . S
C1290 H1286 0.949 . S
C1290 C1298 1.574 1_556 S
C1290 C1306 1.368 . S
H1291 C1299 0.950 . S
H1292 C1297 0.950 . S
H1293 C1298 0.949 . S
H1294 C1300 0.950 . S
H1295 C1301 0.950 . S
H1296 C1302 0.949 . S
C1297 H1292 0.950 . S
C1297 C1299 1.327 . S
C1297 C1303 1.429 . S
C1298 C1290 1.574 1_554 S
C1298 H1293 0.949 . S
C1298 C1304 1.368 . S
C1299 C1283 1.349 . S
C1299 H1291 0.950 . S
C1299 C1297 1.327 . S
C1300 C1288 1.349 . S
C1300 H1294 0.950 . S
C1300 C1301 1.327 . S
C1301 H1295 0.950 . S
C1301 C1300 1.327 . S
C1301 C1305 1.429 . S
C1302 C1285 1.574 . S
C1302 H1296 0.949 . S
C1302 C1306 1.368 . S
C1303 C1284 1.429 . S
C1303 C1297 1.429 . S
C1303 C1304 1.523 . S
C1304 C1285 1.368 1_554 S
C1304 C1298 1.368 . S
C1304 C1303 1.523 . S
C1305 C1289 1.429 . S
C1305 C1301 1.429 . S
C1305 C1306 1.523 . S
C1306 C1290 1.368 . S
C1306 C1302 1.368 . S
C1306 C1305 1.523 . S
H1307 C1282 0.950 . S
H1308 C1284 0.950 . S
H1309 C1285 0.949 . S
H1310 C1287 0.950 . S
H1311 C1289 0.950 . S
C1312 C1313 1.349 . S
C1312 C1314 1.327 . S
C1312 H1337 0.950 . S
C1313 C1312 1.349 . S
C1313 C1329 1.349 . S
C1314 C1312 1.327 . S
C1314 C1333 1.429 . S
C1314 H1338 0.950 . S
C1315 C1332 1.574 . S
C1315 C1334 1.368 . S
C1315 H1339 0.949 . S
H1316 C1320 0.949 . S
C1317 C1318 1.349 . S
C1317 C1319 1.327 . S
C1317 H1340 0.950 . S
C1318 C1317 1.349 . S
C1318 C1330 1.349 . S
C1319 C1317 1.327 . S
C1319 C1335 1.429 . S
C1319 H1341 0.950 . S
C1320 H1316 0.949 . S
C1320 C1328 1.574 . S
C1320 C1336 1.368 . S
H1321 C1329 0.950 . S
H1322 C1327 0.950 . S
H1323 C1328 0.949 . S
H1324 C1330 0.950 . S
H1325 C1331 0.950 . S
H1326 C1332 0.949 . S
C1327 H1322 0.950 . S
C1327 C1329 1.327 . S
C1327 C1333 1.429 . S
C1328 C1320 1.574 . S
C1328 H1323 0.949 . S
C1328 C1334 1.368 . S
C1329 C1313 1.349 . S
C1329 H1321 0.950 . S
C1329 C1327 1.327 . S
C1330 C1318 1.349 . S
C1330 H1324 0.950 . S
C1330 C1331 1.327 . S
C1331 H1325 0.950 . S
C1331 C1330 1.327 . S
C1331 C1335 1.429 . S
C1332 C1315 1.574 . S
C1332 H1326 0.949 . S
C1332 C1336 1.368 . S
C1333 C1314 1.429 . S
C1333 C1327 1.429 . S
C1333 C1334 1.523 . S
C1334 C1315 1.368 . S
C1334 C1328 1.368 . S
C1334 C1333 1.523 . S
C1335 C1319 1.429 . S
C1335 C1331 1.429 . S
C1335 C1336 1.523 . S
C1336 C1320 1.368 . S
C1336 C1332 1.368 . S
C1336 C1335 1.523 . S
H1337 C1312 0.950 . S
H1338 C1314 0.950 . S
H1339 C1315 0.949 . S
H1340 C1317 0.950 . S
H1341 C1319 0.950 . S
C1342 C1343 1.349 . S
C1342 C1344 1.327 . S
C1342 H1367 0.950 . S
C1343 C1342 1.349 . S
C1343 C1359 1.349 . S
C1344 C1342 1.327 . S
C1344 C1363 1.429 . S
C1344 H1368 0.950 . S
C1345 C1362 1.574 . S
C1345 C1364 1.368 . S
C1345 H1369 0.949 . S
H1346 C1350 0.949 . S
C1347 C1348 1.349 . S
C1347 C1349 1.327 . S
C1347 H1370 0.950 . S
C1348 C1347 1.349 . S
C1348 C1360 1.349 . S
C1349 C1347 1.327 . S
C1349 C1365 1.429 . S
C1349 H1371 0.950 . S
C1350 H1346 0.949 . S
C1350 C1358 1.574 . S
C1350 C1366 1.368 . S
H1351 C1359 0.950 . S
H1352 C1357 0.950 . S
H1353 C1358 0.949 . S
H1354 C1360 0.950 . S
H1355 C1361 0.950 . S
H1356 C1362 0.949 . S
C1357 H1352 0.950 . S
C1357 C1359 1.327 . S
C1357 C1363 1.429 . S
C1358 C1350 1.574 . S
C1358 H1353 0.949 . S
C1358 C1364 1.368 . S
C1359 C1343 1.349 . S
C1359 H1351 0.950 . S
C1359 C1357 1.327 . S
C1360 C1348 1.349 . S
C1360 H1354 0.950 . S
C1360 C1361 1.327 . S
C1361 H1355 0.950 . S
C1361 C1360 1.327 . S
C1361 C1365 1.429 . S
C1362 C1345 1.574 . S
C1362 H1356 0.949 . S
C1362 C1366 1.368 . S
C1363 C1344 1.429 . S
C1363 C1357 1.429 . S
C1363 C1364 1.523 . S
C1364 C1345 1.368 . S
C1364 C1358 1.368 . S
C1364 C1363 1.523 . S
C1365 C1349 1.429 . S
C1365 C1361 1.429 . S
C1365 C1366 1.523 . S
C1366 C1350 1.368 . S
C1366 C1362 1.368 . S
C1366 C1365 1.523 . S
H1367 C1342 0.950 . S
H1368 C1344 0.950 . S
H1369 C1345 0.949 . S
H1370 C1347 0.950 . S
H1371 C1349 0.950 . S
C1372 C1373 1.349 . S
C1372 C1374 1.327 . S
C1372 H1397 0.950 . S
C1373 C1372 1.349 . S
C1373 C1389 1.349 1_545 S
C1374 C1372 1.327 . S
C1374 C1393 1.429 . S
C1374 H1398 0.950 . S
C1375 C1392 1.574 . S
C1375 C1394 1.368 . S
C1375 H1399 0.949 . S
H1376 C1380 0.949 . S
C1377 C1378 1.349 . S
C1377 C1379 1.298 1_554 S
C1377 H1400 0.980 . S
C1378 C1377 1.349 . S
C1378 C1390 1.339 1_554 S
C1379 C1377 1.298 1_556 S
C1379 C1395 1.429 . S
C1379 H1401 0.950 . S
C1380 H1376 0.949 . S
C1380 C1388 1.574 . S
C1380 C1396 1.368 . S
H1381 C1389 0.950 . S
H1382 C1387 0.950 1_565 S
H1383 C1388 0.949 . S
H1384 C1390 0.950 . S
H1385 C1391 0.950 . S
H1386 C1392 0.949 . S
C1387 H1382 0.950 1_545 S
C1387 C1389 1.327 1_545 S
C1387 C1393 1.429 . S
C1388 C1380 1.574 . S
C1388 H1383 0.949 . S
C1388 C1394 1.368 . S
C1389 C1373 1.349 1_565 S
C1389 H1381 0.950 . S
C1389 C1387 1.327 1_565 S
C1390 C1378 1.339 1_556 S
C1390 H1384 0.950 . S
C1390 C1391 1.327 . S
C1391 H1385 0.950 . S
C1391 C1390 1.327 . S
C1391 C1395 1.429 . S
C1392 C1375 1.574 . S
C1392 H1386 0.949 . S
C1392 C1396 1.368 . S
C1393 C1374 1.429 . S
C1393 C1387 1.429 . S
C1393 C1394 1.523 . S
C1394 C1375 1.368 . S
C1394 C1388 1.368 . S
C1394 C1393 1.523 . S
C1395 C1379 1.429 . S
C1395 C1391 1.429 . S
C1395 C1396 1.523 . S
C1396 C1380 1.368 . S
C1396 C1392 1.368 . S
C1396 C1395 1.523 . S
H1397 C1372 0.950 . S
H1398 C1374 0.950 . S
H1399 C1375 0.949 . S
H1400 C1377 0.980 . S
H1401 C1379 0.950 . S
C1402 C1403 1.349 . S
C1402 C1404 1.327 . S
C1402 H1427 0.950 . S
C1403 C1402 1.349 . S
C1403 C1419 1.349 . S
C1404 C1402 1.327 . S
C1404 C1423 1.429 . S
C1404 H1428 0.950 . S
C1405 C1422 1.574 . S
C1405 C1424 1.368 . S
C1405 H1429 0.949 . S
H1406 C1410 0.949 . S
C1407 C1408 1.349 . S
C1407 C1409 1.327 . S
C1407 H1430 0.950 . S
C1408 C1407 1.349 . S
C1408 C1420 1.349 . S
C1409 C1407 1.327 . S
C1409 C1425 1.429 . S
C1409 H1431 0.950 . S
C1410 H1406 0.949 . S
C1410 C1418 1.574 . S
C1410 C1426 1.368 . S
H1411 C1419 0.950 . S
H1412 C1417 0.950 . S
H1413 C1418 0.949 . S
H1414 C1420 0.950 . S
H1415 C1421 0.950 . S
H1416 C1422 0.949 . S
C1417 H1412 0.950 . S
C1417 C1419 1.327 . S
C1417 C1423 1.429 . S
C1418 C1410 1.574 . S
C1418 H1413 0.949 . S
C1418 C1424 1.368 . S
C1419 C1403 1.349 . S
C1419 H1411 0.950 . S
C1419 C1417 1.327 . S
C1420 C1408 1.349 . S
C1420 H1414 0.950 . S
C1420 C1421 1.327 . S
C1421 H1415 0.950 . S
C1421 C1420 1.327 . S
C1421 C1425 1.429 . S
C1422 C1405 1.574 . S
C1422 H1416 0.949 . S
C1422 C1426 1.368 . S
C1423 C1404 1.429 . S
C1423 C1417 1.429 . S
C1423 C1424 1.523 . S
C1424 C1405 1.368 . S
C1424 C1418 1.368 . S
C1424 C1423 1.523 . S
C1425 C1409 1.429 . S
C1425 C1421 1.429 . S
C1425 C1426 1.523 . S
C1426 C1410 1.368 . S
C1426 C1422 1.368 . S
C1426 C1425 1.523 . S
H1427 C1402 0.950 . S
H1428 C1404 0.950 . S
H1429 C1405 0.949 . S
H1430 C1407 0.950 . S
H1431 C1409 0.950 . S
C1432 C1433 1.349 . S
C1432 C1434 1.327 . S
C1432 H1457 0.950 . S
C1433 C1432 1.349 . S
C1433 C1449 1.349 . S
C1434 C1432 1.327 . S
C1434 C1453 1.429 . S
C1434 H1458 0.950 . S
C1435 C1452 1.574 . S
C1435 C1454 1.368 . S
C1435 H1459 0.949 . S
H1436 C1440 0.949 . S
C1437 C1438 1.349 . S
C1437 C1439 1.327 . S
C1437 H1460 0.950 . S
C1438 C1437 1.349 . S
C1438 C1450 1.349 . S
C1439 C1437 1.327 . S
C1439 C1455 1.429 1_545 S
C1439 H1461 0.950 . S
C1440 H1436 0.949 . S
C1440 C1448 1.574 . S
C1440 C1456 1.368 . S
H1441 C1449 0.950 . S
H1442 C1447 0.950 . S
H1443 C1448 0.949 . S
H1444 C1450 0.950 . S
H1445 C1451 0.950 . S
H1446 C1452 0.949 1_545 S
C1447 H1442 0.950 . S
C1447 C1449 1.327 . S
C1447 C1453 1.429 . S
C1448 C1440 1.574 . S
C1448 H1443 0.949 . S
C1448 C1454 1.368 . S
C1449 C1433 1.349 . S
C1449 H1441 0.950 . S
C1449 C1447 1.327 . S
C1450 C1438 1.349 . S
C1450 H1444 0.950 . S
C1450 C1451 1.327 1_545 S
C1451 H1445 0.950 . S
C1451 C1450 1.327 1_565 S
C1451 C1455 1.429 . S
C1452 C1435 1.574 . S
C1452 H1446 0.949 1_565 S
C1452 C1456 1.368 . S
C1453 C1434 1.429 . S
C1453 C1447 1.429 . S
C1453 C1454 1.523 . S
C1454 C1435 1.368 . S
C1454 C1448 1.368 . S
C1454 C1453 1.523 . S
C1455 C1439 1.429 1_565 S
C1455 C1451 1.429 . S
C1455 C1456 1.523 . S
C1456 C1440 1.368 . S
C1456 C1452 1.368 . S
C1456 C1455 1.523 . S
H1457 C1432 0.950 . S
H1458 C1434 0.950 . S
H1459 C1435 0.949 . S
H1460 C1437 0.950 . S
H1461 C1439 0.950 . S
C1462 C1463 1.349 . S
C1462 C1464 1.325 . S
C1462 H1487 0.950 . S
C1463 C1462 1.349 . S
C1463 C1479 1.349 1_556 S
C1464 C1462 1.325 . S
C1464 C1483 1.431 1_556 S
C1464 H1488 0.949 . S
C1465 C1482 1.574 . S
C1465 C1484 1.368 . S
C1465 H1489 0.949 . S
H1466 C1470 0.949 . S
C1467 C1468 1.349 . S
C1467 C1469 1.327 . S
C1467 H1490 0.950 . S
C1468 C1467 1.349 . S
C1468 C1480 1.349 . S
C1469 C1467 1.327 . S
C1469 C1485 1.429 . S
C1469 H1491 0.950 . S
C1470 H1466 0.949 . S
C1470 C1478 1.574 . S
C1470 C1486 1.368 . S
H1471 C1479 0.950 . S
H1472 C1477 0.950 . S
H1473 C1478 0.949 . S
H1474 C1480 0.950 . S
H1475 C1481 0.950 . S
H1476 C1482 0.949 . S
C1477 H1472 0.950 . S
C1477 C1479 1.327 . S
C1477 C1483 1.429 . S
C1478 C1470 1.574 . S
C1478 H1473 0.949 . S
C1478 C1484 1.368 . S
C1479 C1463 1.349 1_554 S
C1479 H1471 0.950 . S
C1479 C1477 1.327 . S
C1480 C1468 1.349 . S
C1480 H1474 0.950 . S
C1480 C1481 1.327 . S
C1481 H1475 0.950 . S
C1481 C1480 1.327 . S
C1481 C1485 1.429 . S
C1482 C1465 1.574 . S
C1482 H1476 0.949 . S
C1482 C1486 1.368 . S
C1483 C1464 1.431 1_554 S
C1483 C1477 1.429 . S
C1483 C1484 1.523 . S
C1484 C1465 1.368 . S
C1484 C1478 1.368 . S
C1484 C1483 1.523 . S
C1485 C1469 1.429 . S
C1485 C1481 1.429 . S
C1485 C1486 1.523 . S
C1486 C1470 1.368 . S
C1486 C1482 1.368 . S
C1486 C1485 1.523 . S
H1487 C1462 0.950 . S
H1488 C1464 0.949 . S
H1489 C1465 0.949 . S
H1490 C1467 0.950 . S
H1491 C1469 0.950 . S
C1492 C1493 1.349 . S
C1492 C1494 1.327 . S
C1492 H1517 0.950 . S
C1493 C1492 1.349 . S
C1493 C1509 1.349 . S
C1494 C1492 1.327 . S
C1494 C1513 1.429 . S
C1494 H1518 0.950 . S
C1495 C1512 1.574 . S
C1495 C1514 1.368 . S
C1495 H1519 0.949 . S
H1496 C1500 0.949 . S
C1497 C1498 1.349 . S
C1497 C1499 1.327 . S
C1497 H1520 0.950 . S
C1498 C1497 1.349 . S
C1498 C1510 1.349 . S
C1499 C1497 1.327 . S
C1499 C1515 1.429 . S
C1499 H1521 0.950 . S
C1500 H1496 0.949 . S
C1500 C1508 1.574 . S
C1500 C1516 1.368 . S
H1501 C1509 0.950 . S
H1502 C1507 0.950 . S
H1503 C1508 0.949 . S
H1504 C1510 0.950 . S
H1505 C1511 0.950 . S
H1506 C1512 0.949 . S
C1507 H1502 0.950 . S
C1507 C1509 1.327 . S
C1507 C1513 1.429 . S
C1508 C1500 1.574 . S
C1508 H1503 0.949 . S
C1508 C1514 1.368 . S
C1509 C1493 1.349 . S
C1509 H1501 0.950 . S
C1509 C1507 1.327 . S
C1510 C1498 1.349 . S
C1510 H1504 0.950 . S
C1510 C1511 1.327 . S
C1511 H1505 0.950 . S
C1511 C1510 1.327 . S
C1511 C1515 1.429 . S
C1512 C1495 1.574 . S
C1512 H1506 0.949 . S
C1512 C1516 1.368 . S
C1513 C1494 1.429 . S
C1513 C1507 1.429 . S
C1513 C1514 1.523 . S
C1514 C1495 1.368 . S
C1514 C1508 1.368 . S
C1514 C1513 1.523 . S
C1515 C1499 1.429 . S
C1515 C1511 1.429 . S
C1515 C1516 1.523 . S
C1516 C1500 1.368 . S
C1516 C1512 1.368 . S
C1516 C1515 1.523 . S
H1517 C1492 0.950 . S
H1518 C1494 0.950 . S
H1519 C1495 0.949 . S
H1520 C1497 0.950 . S
H1521 C1499 0.950 . S
C1522 C1523 1.349 . S
C1522 C1524 1.327 . S
C1522 H1547 0.950 . S
C1523 C1522 1.349 . S
C1523 C1539 1.349 . S
C1524 C1522 1.327 . S
C1524 C1543 1.429 . S
C1524 H1548 0.950 . S
C1525 C1542 1.574 . S
C1525 C1544 1.368 . S
C1525 H1549 0.949 . S
H1526 C1530 0.949 . S
C1527 C1528 1.349 . S
C1527 C1529 1.327 . S
C1527 H1550 0.950 . S
C1528 C1527 1.349 . S
C1528 C1540 1.349 . S
C1529 C1527 1.327 . S
C1529 C1545 1.429 . S
C1529 H1551 0.950 . S
C1530 H1526 0.949 . S
C1530 C1538 1.574 . S
C1530 C1546 1.368 . S
H1531 C1539 0.950 . S
H1532 C1537 0.950 . S
H1533 C1538 0.949 . S
H1534 C1540 0.950 . S
H1535 C1541 0.950 . S
H1536 C1542 0.949 . S
C1537 H1532 0.950 . S
C1537 C1539 1.327 . S
C1537 C1543 1.429 . S
C1538 C1530 1.574 . S
C1538 H1533 0.949 . S
C1538 C1544 1.368 . S
C1539 C1523 1.349 . S
C1539 H1531 0.950 . S
C1539 C1537 1.327 . S
C1540 C1528 1.349 . S
C1540 H1534 0.950 . S
C1540 C1541 1.327 . S
C1541 H1535 0.950 . S
C1541 C1540 1.327 . S
C1541 C1545 1.429 . S
C1542 C1525 1.574 . S
C1542 H1536 0.949 . S
C1542 C1546 1.368 . S
C1543 C1524 1.429 . S
C1543 C1537 1.429 . S
C1543 C1544 1.523 . S
C1544 C1525 1.368 . S
C1544 C1538 1.368 . S
C1544 C1543 1.523 . S
C1545 C1529 1.429 . S
C1545 C1541 1.429 . S
C1545 C1546 1.523 . S
C1546 C1530 1.368 . S
C1546 C1542 1.368 . S
C1546 C1545 1.523 . S
H1547 C1522 0.950 . S
H1548 C1524 0.950 . S
H1549 C1525 0.949 . S
H1550 C1527 0.950 . S
H1551 C1529 0.950 . S
C1552 C1553 1.349 . S
C1552 C1554 1.327 . S
C1552 H1577 0.950 . S
C1553 C1552 1.349 . S
C1553 C1569 1.349 . S
C1554 C1552 1.327 . S
C1554 C1573 1.429 . S
C1554 H1578 0.950 . S
C1555 C1572 1.574 . S
C1555 C1574 1.368 . S
C1555 H1579 0.949 . S
H1556 C1560 0.949 . S
C1557 C1558 1.349 . S
C1557 C1559 1.327 . S
C1557 H1580 0.950 . S
C1558 C1557 1.349 . S
C1558 C1570 1.349 . S
C1559 C1557 1.327 . S
C1559 C1575 1.429 . S
C1559 H1581 0.950 . S
C1560 H1556 0.949 . S
C1560 C1568 1.574 . S
C1560 C1576 1.368 . S
H1561 C1569 0.950 . S
H1562 C1567 0.950 . S
H1563 C1568 0.949 . S
H1564 C1570 0.950 . S
H1565 C1571 0.950 . S
H1566 C1572 0.949 . S
C1567 H1562 0.950 . S
C1567 C1569 1.327 . S
C1567 C1573 1.429 . S
C1568 C1560 1.574 . S
C1568 H1563 0.949 . S
C1568 C1574 1.368 . S
C1569 C1553 1.349 . S
C1569 H1561 0.950 . S
C1569 C1567 1.327 . S
C1570 C1558 1.349 . S
C1570 H1564 0.950 . S
C1570 C1571 1.327 . S
C1571 H1565 0.950 . S
C1571 C1570 1.327 . S
C1571 C1575 1.429 . S
C1572 C1555 1.574 . S
C1572 H1566 0.949 . S
C1572 C1576 1.368 . S
C1573 C1554 1.429 . S
C1573 C1567 1.429 . S
C1573 C1574 1.523 . S
C1574 C1555 1.368 . S
C1574 C1568 1.368 . S
C1574 C1573 1.523 . S
C1575 C1559 1.429 . S
C1575 C1571 1.429 . S
C1575 C1576 1.523 . S
C1576 C1560 1.368 . S
C1576 C1572 1.368 . S
C1576 C1575 1.523 . S
H1577 C1552 0.950 . S
H1578 C1554 0.950 . S
H1579 C1555 0.949 . S
H1580 C1557 0.950 . S
H1581 C1559 0.950 . S
C1582 C1583 1.349 . S
C1582 C1584 1.327 . S
C1582 H1607 0.950 . S
C1583 C1582 1.349 . S
C1583 C1599 1.349 . S
C1584 C1582 1.327 . S
C1584 C1603 1.429 . S
C1584 H1608 0.950 . S
C1585 C1602 1.574 . S
C1585 C1604 1.368 . S
C1585 H1609 0.949 . S
H1586 C1590 0.949 . S
C1587 C1588 1.349 . S
C1587 C1589 1.327 . S
C1587 H1610 0.950 . S
C1588 C1587 1.349 . S
C1588 C1600 1.349 . S
C1589 C1587 1.327 . S
C1589 C1605 1.429 . S
C1589 H1611 0.950 . S
C1590 H1586 0.949 . S
C1590 C1598 1.574 . S
C1590 C1606 1.368 . S
H1591 C1599 0.950 . S
H1592 C1597 0.950 . S
H1593 C1598 0.949 . S
H1594 C1600 0.950 . S
H1595 C1601 0.950 . S
H1596 C1602 0.949 . S
C1597 H1592 0.950 . S
C1597 C1599 1.327 . S
C1597 C1603 1.429 . S
C1598 C1590 1.574 . S
C1598 H1593 0.949 . S
C1598 C1604 1.368 . S
C1599 C1583 1.349 . S
C1599 H1591 0.950 . S
C1599 C1597 1.327 . S
C1600 C1588 1.349 . S
C1600 H1594 0.950 . S
C1600 C1601 1.327 . S
C1601 H1595 0.950 . S
C1601 C1600 1.327 . S
C1601 C1605 1.429 . S
C1602 C1585 1.574 . S
C1602 H1596 0.949 . S
C1602 C1606 1.368 . S
C1603 C1584 1.429 . S
C1603 C1597 1.429 . S
C1603 C1604 1.523 . S
C1604 C1585 1.368 . S
C1604 C1598 1.368 . S
C1604 C1603 1.523 . S
C1605 C1589 1.429 . S
C1605 C1601 1.429 . S
C1605 C1606 1.523 . S
C1606 C1590 1.368 . S
C1606 C1602 1.368 . S
C1606 C1605 1.523 . S
H1607 C1582 0.950 . S
H1608 C1584 0.950 . S
H1609 C1585 0.949 . S
H1610 C1587 0.950 . S
H1611 C1589 0.950 . S
C1612 C1613 1.349 . S
C1612 C1614 1.327 . S
C1612 H1637 0.950 . S
C1613 C1612 1.349 . S
C1613 C1629 1.349 . S
C1614 C1612 1.327 . S
C1614 C1633 1.429 . S
C1614 H1638 0.950 . S
C1615 C1632 1.574 . S
C1615 C1634 1.368 . S
C1615 H1639 0.949 . S
H1616 C1620 0.949 . S
C1617 C1618 1.349 . S
C1617 C1619 1.327 . S
C1617 H1640 0.950 . S
C1618 C1617 1.349 . S
C1618 C1630 1.349 . S
C1619 C1617 1.327 . S
C1619 C1635 1.429 . S
C1619 H1641 0.950 . S
C1620 H1616 0.949 . S
C1620 C1628 1.574 . S
C1620 C1636 1.368 . S
H1621 C1629 0.950 . S
H1622 C1627 0.950 . S
H1623 C1628 0.949 . S
H1624 C1630 0.950 . S
H1625 C1631 0.950 . S
H1626 C1632 0.949 . S
C1627 H1622 0.950 . S
C1627 C1629 1.327 . S
C1627 C1633 1.429 . S
C1628 C1620 1.574 . S
C1628 H1623 0.949 . S
C1628 C1634 1.368 . S
C1629 C1613 1.349 . S
C1629 H1621 0.950 . S
C1629 C1627 1.327 . S
C1630 C1618 1.349 . S
C1630 H1624 0.950 . S
C1630 C1631 1.327 . S
C1631 H1625 0.950 . S
C1631 C1630 1.327 . S
C1631 C1635 1.429 . S
C1632 C1615 1.574 . S
C1632 H1626 0.949 . S
C1632 C1636 1.368 . S
C1633 C1614 1.429 . S
C1633 C1627 1.429 . S
C1633 C1634 1.523 . S
C1634 C1615 1.368 . S
C1634 C1628 1.368 . S
C1634 C1633 1.523 . S
C1635 C1619 1.429 . S
C1635 C1631 1.429 . S
C1635 C1636 1.523 . S
C1636 C1620 1.368 . S
C1636 C1632 1.368 . S
C1636 C1635 1.523 . S
H1637 C1612 0.950 . S
H1638 C1614 0.950 . S
H1639 C1615 0.949 . S
H1640 C1617 0.950 . S
H1641 C1619 0.950 . S
C1642 C1643 1.349 . S
C1642 C1644 1.327 . S
C1642 H1667 0.950 . S
C1643 C1642 1.349 . S
C1643 C1659 1.349 . S
C1644 C1642 1.327 . S
C1644 C1663 1.429 . S
C1644 H1668 0.950 . S
C1645 C1662 1.574 . S
C1645 C1664 1.368 . S
C1645 H1669 0.949 . S
H1646 C1650 0.949 . S
C1647 C1648 1.349 . S
C1647 C1649 1.327 . S
C1647 H1670 0.950 . S
C1648 C1647 1.349 . S
C1648 C1660 1.349 . S
C1649 C1647 1.327 . S
C1649 C1665 1.429 . S
C1649 H1671 0.950 . S
C1650 H1646 0.949 . S
C1650 C1658 1.574 . S
C1650 C1666 1.368 . S
H1651 C1659 0.950 . S
H1652 C1657 0.950 . S
H1653 C1658 0.949 . S
H1654 C1660 0.950 . S
H1655 C1661 0.950 . S
H1656 C1662 0.949 . S
C1657 H1652 0.950 . S
C1657 C1659 1.327 . S
C1657 C1663 1.429 . S
C1658 C1650 1.574 . S
C1658 H1653 0.949 . S
C1658 C1664 1.368 . S
C1659 C1643 1.349 . S
C1659 H1651 0.950 . S
C1659 C1657 1.327 . S
C1660 C1648 1.349 . S
C1660 H1654 0.950 . S
C1660 C1661 1.327 . S
C1661 H1655 0.950 . S
C1661 C1660 1.327 . S
C1661 C1665 1.429 . S
C1662 C1645 1.574 . S
C1662 H1656 0.949 . S
C1662 C1666 1.368 . S
C1663 C1644 1.429 . S
C1663 C1657 1.429 . S
C1663 C1664 1.523 . S
C1664 C1645 1.368 . S
C1664 C1658 1.368 . S
C1664 C1663 1.523 . S
C1665 C1649 1.429 . S
C1665 C1661 1.429 . S
C1665 C1666 1.523 . S
C1666 C1650 1.368 . S
C1666 C1662 1.368 . S
C1666 C1665 1.523 . S
H1667 C1642 0.950 . S
H1668 C1644 0.950 . S
H1669 C1645 0.949 . S
H1670 C1647 0.950 . S
H1671 C1649 0.950 . S
C1672 C1673 1.349 . S
C1672 C1674 1.327 . S
C1672 H1697 0.950 . S
C1673 C1672 1.349 . S
C1673 C1689 1.349 . S
C1674 C1672 1.327 . S
C1674 C1693 1.429 . S
C1674 H1698 0.950 . S
C1675 C1692 1.574 . S
C1675 C1694 1.368 . S
C1675 H1699 0.949 . S
H1676 C1680 0.949 . S
C1677 C1678 1.349 . S
C1677 C1679 1.327 . S
C1677 H1700 0.950 . S
C1678 C1677 1.349 . S
C1678 C1690 1.349 . S
C1679 C1677 1.327 . S
C1679 C1695 1.429 . S
C1679 H1701 0.950 . S
C1680 H1676 0.949 . S
C1680 C1688 1.574 . S
C1680 C1696 1.368 . S
H1681 C1689 0.950 . S
H1682 C1687 0.950 . S
H1683 C1688 0.949 . S
H1684 C1690 0.950 . S
H1685 C1691 0.950 . S
H1686 C1692 0.949 . S
C1687 H1682 0.950 . S
C1687 C1689 1.327 . S
C1687 C1693 1.429 . S
C1688 C1680 1.574 . S
C1688 H1683 0.949 . S
C1688 C1694 1.368 . S
C1689 C1673 1.349 . S
C1689 H1681 0.950 . S
C1689 C1687 1.327 . S
C1690 C1678 1.349 . S
C1690 H1684 0.950 . S
C1690 C1691 1.327 . S
C1691 H1685 0.950 . S
C1691 C1690 1.327 . S
C1691 C1695 1.429 . S
C1692 C1675 1.574 . S
C1692 H1686 0.949 . S
C1692 C1696 1.368 . S
C1693 C1674 1.429 . S
C1693 C1687 1.429 . S
C1693 C1694 1.523 . S
C1694 C1675 1.368 . S
C1694 C1688 1.368 . S
C1694 C1693 1.523 . S
C1695 C1679 1.429 . S
C1695 C1691 1.429 . S
C1695 C1696 1.523 . S
C1696 C1680 1.368 . S
C1696 C1692 1.368 . S
C1696 C1695 1.523 . S
H1697 C1672 0.950 . S
H1698 C1674 0.950 . S
H1699 C1675 0.949 . S
H1700 C1677 0.950 . S
H1701 C1679 0.950 . S
C1702 C1703 1.349 . S
C1702 C1704 1.327 . S
C1702 H1727 0.950 . S
C1703 C1702 1.349 . S
C1703 C1719 1.349 . S
C1704 C1702 1.327 . S
C1704 C1723 1.429 . S
C1704 H1728 0.950 . S
C1705 C1722 1.574 . S
C1705 C1724 1.368 . S
C1705 H1729 0.949 . S
H1706 C1710 0.949 . S
C1707 C1708 1.349 . S
C1707 C1709 1.327 . S
C1707 H1730 0.950 . S
C1708 C1707 1.349 . S
C1708 C1720 1.349 . S
C1709 C1707 1.327 . S
C1709 C1725 1.429 . S
C1709 H1731 0.950 . S
C1710 H1706 0.949 . S
C1710 C1718 1.574 . S
C1710 C1726 1.368 . S
H1711 C1719 0.950 . S
H1712 C1717 0.950 . S
H1713 C1718 0.949 . S
H1714 C1720 0.950 . S
H1715 C1721 0.950 . S
H1716 C1722 0.949 . S
C1717 H1712 0.950 . S
C1717 C1719 1.327 . S
C1717 C1723 1.429 . S
C1718 C1710 1.574 . S
C1718 H1713 0.949 . S
C1718 C1724 1.368 . S
C1719 C1703 1.349 . S
C1719 H1711 0.950 . S
C1719 C1717 1.327 . S
C1720 C1708 1.349 . S
C1720 H1714 0.950 . S
C1720 C1721 1.327 . S
C1721 H1715 0.950 . S
C1721 C1720 1.327 . S
C1721 C1725 1.429 . S
C1722 C1705 1.574 . S
C1722 H1716 0.949 . S
C1722 C1726 1.368 . S
C1723 C1704 1.429 . S
C1723 C1717 1.429 . S
C1723 C1724 1.523 . S
C1724 C1705 1.368 . S
C1724 C1718 1.368 . S
C1724 C1723 1.523 . S
C1725 C1709 1.429 . S
C1725 C1721 1.429 . S
C1725 C1726 1.523 . S
C1726 C1710 1.368 . S
C1726 C1722 1.368 . S
C1726 C1725 1.523 . S
H1727 C1702 0.950 . S
H1728 C1704 0.950 . S
H1729 C1705 0.949 . S
H1730 C1707 0.950 . S
H1731 C1709 0.950 . S
C1732 C1733 1.349 . S
C1732 C1734 1.327 . S
C1732 H1757 0.950 . S
C1733 C1732 1.349 . S
C1733 C1749 1.349 . S
C1734 C1732 1.327 . S
C1734 C1753 1.429 . S
C1734 H1758 0.950 . S
C1735 C1752 1.574 . S
C1735 C1754 1.368 . S
C1735 H1759 0.949 . S
H1736 C1740 0.949 . S
C1737 C1738 1.349 . S
C1737 C1739 1.327 . S
C1737 H1760 0.950 . S
C1738 C1737 1.349 . S
C1738 C1750 1.349 . S
C1739 C1737 1.327 . S
C1739 C1755 1.429 . S
C1739 H1761 0.950 . S
C1740 H1736 0.949 . S
C1740 C1748 1.574 . S
C1740 C1756 1.368 . S
H1741 C1749 0.950 . S
H1742 C1747 0.950 . S
H1743 C1748 0.949 . S
H1744 C1750 0.950 . S
H1745 C1751 0.950 . S
H1746 C1752 0.949 . S
C1747 H1742 0.950 . S
C1747 C1749 1.327 . S
C1747 C1753 1.429 . S
C1748 C1740 1.574 . S
C1748 H1743 0.949 . S
C1748 C1754 1.368 . S
C1749 C1733 1.349 . S
C1749 H1741 0.950 . S
C1749 C1747 1.327 . S
C1750 C1738 1.349 . S
C1750 H1744 0.950 . S
C1750 C1751 1.327 . S
C1751 H1745 0.950 . S
C1751 C1750 1.327 . S
C1751 C1755 1.429 . S
C1752 C1735 1.574 . S
C1752 H1746 0.949 . S
C1752 C1756 1.368 . S
C1753 C1734 1.429 . S
C1753 C1747 1.429 . S
C1753 C1754 1.523 . S
C1754 C1735 1.368 . S
C1754 C1748 1.368 . S
C1754 C1753 1.523 . S
C1755 C1739 1.429 . S
C1755 C1751 1.429 . S
C1755 C1756 1.523 . S
C1756 C1740 1.368 . S
C1756 C1752 1.368 . S
C1756 C1755 1.523 . S
H1757 C1732 0.950 . S
H1758 C1734 0.950 . S
H1759 C1735 0.949 . S
H1760 C1737 0.950 . S
H1761 C1739 0.950 . S
C1762 C1763 1.349 . S
C1762 C1764 1.327 . S
C1762 H1787 0.950 . S
C1763 C1762 1.349 . S
C1763 C1779 1.349 . S
C1764 C1762 1.327 . S
C1764 C1783 1.429 . S
C1764 H1788 0.950 . S
C1765 C1782 1.574 . S
C1765 C1784 1.368 . S
C1765 H1789 0.949 . S
H1766 C1770 0.949 . S
C1767 C1768 1.349 . S
C1767 C1769 1.327 . S
C1767 H1790 0.950 . S
C1768 C1767 1.349 . S
C1768 C1780 1.349 . S
C1769 C1767 1.327 . S
C1769 C1785 1.429 . S
C1769 H1791 0.950 . S
C1770 H1766 0.949 . S
C1770 C1778 1.574 . S
C1770 C1786 1.368 . S
H1771 C1779 0.950 . S
H1772 C1777 0.950 . S
H1773 C1778 0.949 . S
H1774 C1780 0.950 . S
H1775 C1781 0.950 . S
H1776 C1782 0.949 . S
C1777 H1772 0.950 . S
C1777 C1779 1.327 . S
C1777 C1783 1.429 . S
C1778 C1770 1.574 . S
C1778 H1773 0.949 . S
C1778 C1784 1.368 . S
C1779 C1763 1.349 . S
C1779 H1771 0.950 . S
C1779 C1777 1.327 . S
C1780 C1768 1.349 . S
C1780 H1774 0.950 . S
C1780 C1781 1.327 . S
C1781 H1775 0.950 . S
C1781 C1780 1.327 . S
C1781 C1785 1.429 . S
C1782 C1765 1.574 . S
C1782 H1776 0.949 . S
C1782 C1786 1.368 . S
C1783 C1764 1.429 . S
C1783 C1777 1.429 . S
C1783 C1784 1.523 . S
C1784 C1765 1.368 . S
C1784 C1778 1.368 . S
C1784 C1783 1.523 . S
C1785 C1769 1.429 . S
C1785 C1781 1.429 . S
C1785 C1786 1.523 . S
C1786 C1770 1.368 . S
C1786 C1782 1.368 . S
C1786 C1785 1.523 . S
H1787 C1762 0.950 . S
H1788 C1764 0.950 . S
H1789 C1765 0.949 . S
H1790 C1767 0.950 . S
H1791 C1769 0.950 . S
C1792 C1793 1.349 . S
C1792 C1794 1.327 . S
C1792 H1817 0.950 . S
C1793 C1792 1.349 . S
C1793 C1809 1.349 . S
C1794 C1792 1.327 . S
C1794 C1813 1.429 . S
C1794 H1818 0.950 . S
C1795 C1812 1.574 . S
C1795 C1814 1.368 . S
C1795 H1819 0.949 . S
H1796 C1800 0.949 . S
C1797 C1798 1.369 . S
C1797 C1799 1.327 . S
C1797 H1820 0.950 . S
C1798 C1797 1.369 . S
C1798 C1810 1.325 1_655 S
C1799 C1797 1.327 . S
C1799 C1815 1.429 1_655 S
C1799 H1821 0.950 . S
C1800 H1796 0.949 . S
C1800 C1808 1.574 . S
C1800 C1816 1.368 . S
H1801 C1809 0.950 . S
H1802 C1807 0.950 . S
H1803 C1808 0.949 . S
H1804 C1810 0.950 . S
H1805 C1811 0.950 . S
H1806 C1812 0.949 1_655 S
C1807 H1802 0.950 . S
C1807 C1809 1.327 . S
C1807 C1813 1.429 . S
C1808 C1800 1.574 . S
C1808 H1803 0.949 . S
C1808 C1814 1.368 . S
C1809 C1793 1.349 . S
C1809 H1801 0.950 . S
C1809 C1807 1.327 . S
C1810 C1798 1.325 1_455 S
C1810 H1804 0.950 . S
C1810 C1811 1.327 . S
C1811 H1805 0.950 . S
C1811 C1810 1.327 . S
C1811 C1815 1.429 . S
C1812 C1795 1.574 . S
C1812 H1806 0.949 1_455 S
C1812 C1816 1.368 . S
C1813 C1794 1.429 . S
C1813 C1807 1.429 . S
C1813 C1814 1.523 . S
C1814 C1795 1.368 . S
C1814 C1808 1.368 . S
C1814 C1813 1.523 . S
C1815 C1799 1.429 1_455 S
C1815 C1811 1.429 . S
C1815 C1816 1.523 . S
C1816 C1800 1.368 . S
C1816 C1812 1.368 . S
C1816 C1815 1.523 . S
H1817 C1792 0.950 . S
H1818 C1794 0.950 . S
H1819 C1795 0.949 . S
H1820 C1797 0.950 . S
H1821 C1799 0.950 . S
C1822 C1823 1.349 . S
C1822 C1824 1.327 . S
C1822 H1847 0.950 . S
C1823 C1822 1.349 . S
C1823 C1839 1.349 . S
C1824 C1822 1.327 . S
C1824 C1843 1.429 . S
C1824 H1848 0.950 . S
C1825 C1842 1.574 . S
C1825 C1844 1.368 . S
C1825 H1849 0.949 . S
H1826 C1830 0.949 . S
C1827 C1828 1.349 . S
C1827 C1829 1.327 . S
C1827 H1850 0.950 . S
C1828 C1827 1.349 . S
C1828 C1840 1.349 . S
C1829 C1827 1.327 . S
C1829 C1845 1.429 . S
C1829 H1851 0.950 . S
C1830 H1826 0.949 . S
C1830 C1838 1.574 . S
C1830 C1846 1.368 . S
H1831 C1839 0.950 . S
H1832 C1837 0.950 . S
H1833 C1838 0.949 . S
H1834 C1840 0.950 . S
H1835 C1841 0.950 . S
H1836 C1842 0.949 . S
C1837 H1832 0.950 . S
C1837 C1839 1.327 . S
C1837 C1843 1.429 . S
C1838 C1830 1.574 . S
C1838 H1833 0.949 . S
C1838 C1844 1.368 . S
C1839 C1823 1.349 . S
C1839 H1831 0.950 . S
C1839 C1837 1.327 . S
C1840 C1828 1.349 . S
C1840 H1834 0.950 . S
C1840 C1841 1.327 . S
C1841 H1835 0.950 . S
C1841 C1840 1.327 . S
C1841 C1845 1.429 . S
C1842 C1825 1.574 . S
C1842 H1836 0.949 . S
C1842 C1846 1.368 . S
C1843 C1824 1.429 . S
C1843 C1837 1.429 . S
C1843 C1844 1.523 . S
C1844 C1825 1.368 . S
C1844 C1838 1.368 . S
C1844 C1843 1.523 . S
C1845 C1829 1.429 . S
C1845 C1841 1.429 . S
C1845 C1846 1.523 . S
C1846 C1830 1.368 . S
C1846 C1842 1.368 . S
C1846 C1845 1.523 . S
H1847 C1822 0.950 . S
H1848 C1824 0.950 . S
H1849 C1825 0.949 . S
H1850 C1827 0.950 . S
H1851 C1829 0.950 . S
C1852 C1853 1.349 . S
C1852 C1854 1.327 1_556 S
C1852 H1877 0.950 1_556 S
C1853 C1852 1.349 . S
C1853 C1869 1.349 . S
C1854 C1852 1.327 1_554 S
C1854 C1873 1.429 . S
C1854 H1878 0.950 . S
C1855 C1872 1.574 . S
C1855 C1874 1.368 . S
C1855 H1879 0.949 1_554 S
H1856 C1860 0.949 . S
C1857 C1858 1.349 . S
C1857 C1859 1.327 1_545 S
C1857 H1880 0.950 . S
C1858 C1857 1.349 . S
C1858 C1870 1.349 . S
C1859 C1857 1.327 1_565 S
C1859 C1875 1.429 . S
C1859 H1881 0.950 . S
C1860 H1856 0.949 . S
C1860 C1868 1.574 . S
C1860 C1876 1.368 . S
H1861 C1869 0.950 . S
H1862 C1867 0.950 . S
H1863 C1868 0.949 . S
H1864 C1870 0.950 . S
H1865 C1871 0.950 . S
H1866 C1872 0.949 . S
C1867 H1862 0.950 . S
C1867 C1869 1.327 . S
C1867 C1873 1.429 1_556 S
C1868 C1860 1.574 . S
C1868 H1863 0.949 . S
C1868 C1874 1.368 . S
C1869 C1853 1.349 . S
C1869 H1861 0.950 . S
C1869 C1867 1.327 . S
C1870 C1858 1.349 . S
C1870 H1864 0.950 . S
C1870 C1871 1.327 1_545 S
C1871 H1865 0.950 . S
C1871 C1870 1.327 1_565 S
C1871 C1875 1.429 . S
C1872 C1855 1.574 . S
C1872 H1866 0.949 . S
C1872 C1876 1.368 . S
C1873 C1854 1.429 . S
C1873 C1867 1.429 1_554 S
C1873 C1874 1.523 . S
C1874 C1855 1.368 . S
C1874 C1868 1.368 . S
C1874 C1873 1.523 . S
C1875 C1859 1.429 . S
C1875 C1871 1.429 . S
C1875 C1876 1.523 . S
C1876 C1860 1.368 . S
C1876 C1872 1.368 . S
C1876 C1875 1.523 . S
H1877 C1852 0.950 1_554 S
H1878 C1854 0.950 . S
H1879 C1855 0.949 1_556 S
H1880 C1857 0.950 . S
H1881 C1859 0.950 . S
C1882 C1883 1.349 . S
C1882 C1884 1.327 . S
C1882 H1907 0.950 . S
C1883 C1882 1.349 . S
C1883 C1899 1.349 . S
C1884 C1882 1.327 . S
C1884 C1903 1.429 . S
C1884 H1908 0.950 . S
C1885 C1902 1.574 . S
C1885 C1904 1.368 . S
C1885 H1909 0.949 . S
H1886 C1890 0.949 . S
C1887 C1888 1.349 . S
C1887 C1889 1.327 . S
C1887 H1910 0.950 . S
C1888 C1887 1.349 . S
C1888 C1900 1.349 . S
C1889 C1887 1.327 . S
C1889 C1905 1.429 . S
C1889 H1911 0.950 . S
C1890 H1886 0.949 . S
C1890 C1898 1.574 . S
C1890 C1906 1.368 . S
H1891 C1899 0.950 . S
H1892 C1897 0.950 . S
H1893 C1898 0.949 . S
H1894 C1900 0.950 . S
H1895 C1901 0.950 . S
H1896 C1902 0.949 . S
C1897 H1892 0.950 . S
C1897 C1899 1.327 . S
C1897 C1903 1.429 . S
C1898 C1890 1.574 . S
C1898 H1893 0.949 . S
C1898 C1904 1.368 . S
C1899 C1883 1.349 . S
C1899 H1891 0.950 . S
C1899 C1897 1.327 . S
C1900 C1888 1.349 . S
C1900 H1894 0.950 . S
C1900 C1901 1.327 . S
C1901 H1895 0.950 . S
C1901 C1900 1.327 . S
C1901 C1905 1.429 . S
C1902 C1885 1.574 . S
C1902 H1896 0.949 . S
C1902 C1906 1.368 . S
C1903 C1884 1.429 . S
C1903 C1897 1.429 . S
C1903 C1904 1.523 . S
C1904 C1885 1.368 . S
C1904 C1898 1.368 . S
C1904 C1903 1.523 . S
C1905 C1889 1.429 . S
C1905 C1901 1.429 . S
C1905 C1906 1.523 . S
C1906 C1890 1.368 . S
C1906 C1902 1.368 . S
C1906 C1905 1.523 . S
H1907 C1882 0.950 . S
H1908 C1884 0.950 . S
H1909 C1885 0.949 . S
H1910 C1887 0.950 . S
H1911 C1889 0.950 . S
C1912 C1913 1.349 . S
C1912 C1914 1.327 . S
C1912 H1937 0.950 . S
C1913 C1912 1.349 . S
C1913 C1929 1.349 . S
C1914 C1912 1.327 . S
C1914 C1933 1.429 . S
C1914 H1938 0.950 . S
C1915 C1932 1.574 . S
C1915 C1934 1.368 . S
C1915 H1939 0.949 . S
H1916 C1920 0.949 . S
C1917 C1918 1.349 . S
C1917 C1919 1.327 . S
C1917 H1940 0.950 . S
C1918 C1917 1.349 . S
C1918 C1930 1.349 . S
C1919 C1917 1.327 . S
C1919 C1935 1.429 . S
C1919 H1941 0.950 . S
C1920 H1916 0.949 . S
C1920 C1928 1.574 . S
C1920 C1936 1.368 . S
H1921 C1929 0.950 . S
H1922 C1927 0.950 . S
H1923 C1928 0.949 . S
H1924 C1930 0.950 . S
H1925 C1931 0.950 . S
H1926 C1932 0.949 . S
C1927 H1922 0.950 . S
C1927 C1929 1.327 . S
C1927 C1933 1.429 . S
C1928 C1920 1.574 . S
C1928 H1923 0.949 . S
C1928 C1934 1.368 . S
C1929 C1913 1.349 . S
C1929 H1921 0.950 . S
C1929 C1927 1.327 . S
C1930 C1918 1.349 . S
C1930 H1924 0.950 . S
C1930 C1931 1.327 . S
C1931 H1925 0.950 . S
C1931 C1930 1.327 . S
C1931 C1935 1.429 . S
C1932 C1915 1.574 . S
C1932 H1926 0.949 . S
C1932 C1936 1.368 . S
C1933 C1914 1.429 . S
C1933 C1927 1.429 . S
C1933 C1934 1.523 . S
C1934 C1915 1.368 . S
C1934 C1928 1.368 . S
C1934 C1933 1.523 . S
C1935 C1919 1.429 . S
C1935 C1931 1.429 . S
C1935 C1936 1.523 . S
C1936 C1920 1.368 . S
C1936 C1932 1.368 . S
C1936 C1935 1.523 . S
H1937 C1912 0.950 . S
H1938 C1914 0.950 . S
H1939 C1915 0.949 . S
H1940 C1917 0.950 . S
H1941 C1919 0.950 . S
C1942 C1943 1.349 . S
C1942 C1944 1.327 . S
C1942 H1967 0.950 . S
C1943 C1942 1.349 . S
C1943 C1959 1.349 . S
C1944 C1942 1.327 . S
C1944 C1963 1.429 . S
C1944 H1968 0.950 . S
C1945 C1962 1.574 . S
C1945 C1964 1.368 . S
C1945 H1969 0.949 . S
H1946 C1950 0.949 . S
C1947 C1948 1.349 . S
C1947 C1949 1.327 . S
C1947 H1970 0.950 . S
C1948 C1947 1.349 . S
C1948 C1960 1.349 . S
C1949 C1947 1.327 . S
C1949 C1965 1.429 . S
C1949 H1971 0.950 . S
C1950 H1946 0.949 . S
C1950 C1958 1.574 . S
C1950 C1966 1.368 . S
H1951 C1959 0.950 . S
H1952 C1957 0.950 . S
H1953 C1958 0.949 . S
H1954 C1960 0.950 . S
H1955 C1961 0.950 . S
H1956 C1962 0.949 . S
C1957 H1952 0.950 . S
C1957 C1959 1.327 . S
C1957 C1963 1.429 . S
C1958 C1950 1.574 . S
C1958 H1953 0.949 . S
C1958 C1964 1.368 . S
C1959 C1943 1.349 . S
C1959 H1951 0.950 . S
C1959 C1957 1.327 . S
C1960 C1948 1.349 . S
C1960 H1954 0.950 . S
C1960 C1961 1.327 . S
C1961 H1955 0.950 . S
C1961 C1960 1.327 . S
C1961 C1965 1.429 . S
C1962 C1945 1.574 . S
C1962 H1956 0.949 . S
C1962 C1966 1.368 . S
C1963 C1944 1.429 . S
C1963 C1957 1.429 . S
C1963 C1964 1.523 . S
C1964 C1945 1.368 . S
C1964 C1958 1.368 . S
C1964 C1963 1.523 . S
C1965 C1949 1.429 . S
C1965 C1961 1.429 . S
C1965 C1966 1.523 . S
C1966 C1950 1.368 . S
C1966 C1962 1.368 . S
C1966 C1965 1.523 . S
H1967 C1942 0.950 . S
H1968 C1944 0.950 . S
H1969 C1945 0.949 . S
H1970 C1947 0.950 . S
H1971 C1949 0.950 . S
C1972 C1973 1.349 . S
C1972 C1974 1.327 . S
C1972 H1997 0.950 . S
C1973 C1972 1.349 . S
C1973 C1989 1.349 . S
C1974 C1972 1.327 . S
C1974 C1993 1.429 . S
C1974 H1998 0.950 . S
C1975 C1992 1.574 . S
C1975 C1994 1.368 . S
C1975 H1999 0.949 . S
H1976 C1980 0.949 . S
C1977 C1978 1.349 . S
C1977 C1979 1.327 . S
C1977 H2000 0.950 . S
C1978 C1977 1.349 . S
C1978 C1990 1.349 . S
C1979 C1977 1.327 . S
C1979 C1995 1.429 . S
C1979 H2001 0.950 . S
C1980 H1976 0.949 . S
C1980 C1988 1.574 . S
C1980 C1996 1.368 . S
H1981 C1989 0.950 . S
H1982 C1987 0.950 . S
H1983 C1988 0.949 . S
H1984 C1990 0.950 . S
H1985 C1991 0.950 . S
H1986 C1992 0.949 . S
C1987 H1982 0.950 . S
C1987 C1989 1.327 . S
C1987 C1993 1.429 . S
C1988 C1980 1.574 . S
C1988 H1983 0.949 . S
C1988 C1994 1.368 . S
C1989 C1973 1.349 . S
C1989 H1981 0.950 . S
C1989 C1987 1.327 . S
C1990 C1978 1.349 . S
C1990 H1984 0.950 . S
C1990 C1991 1.327 . S
C1991 H1985 0.950 . S
C1991 C1990 1.327 . S
C1991 C1995 1.429 . S
C1992 C1975 1.574 . S
C1992 H1986 0.949 . S
C1992 C1996 1.368 . S
C1993 C1974 1.429 . S
C1993 C1987 1.429 . S
C1993 C1994 1.523 . S
C1994 C1975 1.368 . S
C1994 C1988 1.368 . S
C1994 C1993 1.523 . S
C1995 C1979 1.429 . S
C1995 C1991 1.429 . S
C1995 C1996 1.523 . S
C1996 C1980 1.368 . S
C1996 C1992 1.368 . S
C1996 C1995 1.523 . S
H1997 C1972 0.950 . S
H1998 C1974 0.950 . S
H1999 C1975 0.949 . S
H2000 C1977 0.950 . S
H2001 C1979 0.950 . S
C2002 C2003 1.349 . S
C2002 C2004 1.327 . S
C2002 H2027 0.950 . S
C2003 C2002 1.349 . S
C2003 C2019 1.349 . S
C2004 C2002 1.327 . S
C2004 C2023 1.429 . S
C2004 H2028 0.950 . S
C2005 C2022 1.574 . S
C2005 C2024 1.368 . S
C2005 H2029 0.949 . S
H2006 C2010 0.949 . S
C2007 C2008 1.349 . S
C2007 C2009 1.327 . S
C2007 H2030 0.950 . S
C2008 C2007 1.349 . S
C2008 C2020 1.349 . S
C2009 C2007 1.327 . S
C2009 C2025 1.429 . S
C2009 H2031 0.950 . S
C2010 H2006 0.949 . S
C2010 C2018 1.574 . S
C2010 C2026 1.368 . S
H2011 C2019 0.950 . S
H2012 C2017 0.950 . S
H2013 C2018 0.949 . S
H2014 C2020 0.950 . S
H2015 C2021 0.950 . S
H2016 C2022 0.949 . S
C2017 H2012 0.950 . S
C2017 C2019 1.327 . S
C2017 C2023 1.429 . S
C2018 C2010 1.574 . S
C2018 H2013 0.949 . S
C2018 C2024 1.368 . S
C2019 C2003 1.349 . S
C2019 H2011 0.950 . S
C2019 C2017 1.327 . S
C2020 C2008 1.349 . S
C2020 H2014 0.950 . S
C2020 C2021 1.327 . S
C2021 H2015 0.950 . S
C2021 C2020 1.327 . S
C2021 C2025 1.429 . S
C2022 C2005 1.574 . S
C2022 H2016 0.949 . S
C2022 C2026 1.368 . S
C2023 C2004 1.429 . S
C2023 C2017 1.429 . S
C2023 C2024 1.523 . S
C2024 C2005 1.368 . S
C2024 C2018 1.368 . S
C2024 C2023 1.523 . S
C2025 C2009 1.429 . S
C2025 C2021 1.429 . S
C2025 C2026 1.523 . S
C2026 C2010 1.368 . S
C2026 C2022 1.368 . S
C2026 C2025 1.523 . S
H2027 C2002 0.950 . S
H2028 C2004 0.950 . S
H2029 C2005 0.949 . S
H2030 C2007 0.950 . S
H2031 C2009 0.950 . S
C2032 C2033 1.349 . S
C2032 C2034 1.327 . S
C2032 H2057 0.950 . S
C2033 C2032 1.349 . S
C2033 C2049 1.349 . S
C2034 C2032 1.327 . S
C2034 C2053 1.429 . S
C2034 H2058 0.950 . S
C2035 C2052 1.574 . S
C2035 C2054 1.368 . S
C2035 H2059 0.949 . S
H2036 C2040 0.949 . S
C2037 C2038 1.349 . S
C2037 C2039 1.327 . S
C2037 H2060 0.950 . S
C2038 C2037 1.349 . S
C2038 C2050 1.349 . S
C2039 C2037 1.327 . S
C2039 C2055 1.429 . S
C2039 H2061 0.950 . S
C2040 H2036 0.949 . S
C2040 C2048 1.574 . S
C2040 C2056 1.368 . S
H2041 C2049 0.950 . S
H2042 C2047 0.950 . S
H2043 C2048 0.949 . S
H2044 C2050 0.950 . S
H2045 C2051 0.950 . S
H2046 C2052 0.949 . S
C2047 H2042 0.950 . S
C2047 C2049 1.327 . S
C2047 C2053 1.429 . S
C2048 C2040 1.574 . S
C2048 H2043 0.949 . S
C2048 C2054 1.368 . S
C2049 C2033 1.349 . S
C2049 H2041 0.950 . S
C2049 C2047 1.327 . S
C2050 C2038 1.349 . S
C2050 H2044 0.950 . S
C2050 C2051 1.327 . S
C2051 H2045 0.950 . S
C2051 C2050 1.327 . S
C2051 C2055 1.429 . S
C2052 C2035 1.574 . S
C2052 H2046 0.949 . S
C2052 C2056 1.368 . S
C2053 C2034 1.429 . S
C2053 C2047 1.429 . S
C2053 C2054 1.523 . S
C2054 C2035 1.368 . S
C2054 C2048 1.368 . S
C2054 C2053 1.523 . S
C2055 C2039 1.429 . S
C2055 C2051 1.429 . S
C2055 C2056 1.523 . S
C2056 C2040 1.368 . S
C2056 C2052 1.368 . S
C2056 C2055 1.523 . S
H2057 C2032 0.950 . S
H2058 C2034 0.950 . S
H2059 C2035 0.949 . S
H2060 C2037 0.950 . S
H2061 C2039 0.950 . S
C2062 C2063 1.349 . S
C2062 C2064 1.327 . S
C2062 H2087 0.950 . S
C2063 C2062 1.349 . S
C2063 C2079 1.349 . S
C2064 C2062 1.327 . S
C2064 C2083 1.429 . S
C2064 H2088 0.950 . S
C2065 C2082 1.574 . S
C2065 C2084 1.368 . S
C2065 H2089 0.949 . S
H2066 C2070 0.949 . S
C2067 C2068 1.349 . S
C2067 C2069 1.327 . S
C2067 H2090 0.950 . S
C2068 C2067 1.349 . S
C2068 C2080 1.349 . S
C2069 C2067 1.327 . S
C2069 C2085 1.429 . S
C2069 H2091 0.950 . S
C2070 H2066 0.949 . S
C2070 C2078 1.574 . S
C2070 C2086 1.368 . S
H2071 C2079 0.950 . S
H2072 C2077 0.950 . S
H2073 C2078 0.949 . S
H2074 C2080 0.950 . S
H2075 C2081 0.950 . S
H2076 C2082 0.949 . S
C2077 H2072 0.950 . S
C2077 C2079 1.327 . S
C2077 C2083 1.429 . S
C2078 C2070 1.574 . S
C2078 H2073 0.949 . S
C2078 C2084 1.368 . S
C2079 C2063 1.349 . S
C2079 H2071 0.950 . S
C2079 C2077 1.327 . S
C2080 C2068 1.349 . S
C2080 H2074 0.950 . S
C2080 C2081 1.327 . S
C2081 H2075 0.950 . S
C2081 C2080 1.327 . S
C2081 C2085 1.429 . S
C2082 C2065 1.574 . S
C2082 H2076 0.949 . S
C2082 C2086 1.368 . S
C2083 C2064 1.429 . S
C2083 C2077 1.429 . S
C2083 C2084 1.523 . S
C2084 C2065 1.368 . S
C2084 C2078 1.368 . S
C2084 C2083 1.523 . S
C2085 C2069 1.429 . S
C2085 C2081 1.429 . S
C2085 C2086 1.523 . S
C2086 C2070 1.368 . S
C2086 C2082 1.368 . S
C2086 C2085 1.523 . S
H2087 C2062 0.950 . S
H2088 C2064 0.950 . S
H2089 C2065 0.949 . S
H2090 C2067 0.950 . S
H2091 C2069 0.950 . S
C2092 C2093 1.349 . S
C2092 C2094 1.327 . S
C2092 H2117 0.950 . S
C2093 C2092 1.349 . S
C2093 C2109 1.349 . S
C2094 C2092 1.327 . S
C2094 C2113 1.429 . S
C2094 H2118 0.950 . S
C2095 C2112 1.574 . S
C2095 C2114 1.368 . S
C2095 H2119 0.949 . S
H2096 C2100 0.949 . S
C2097 C2098 1.349 . S
C2097 C2099 1.327 . S
C2097 H2120 0.950 . S
C2098 C2097 1.349 . S
C2098 C2110 1.349 . S
C2099 C2097 1.327 . S
C2099 C2115 1.429 . S
C2099 H2121 0.950 . S
C2100 H2096 0.949 . S
C2100 C2108 1.574 . S
C2100 C2116 1.368 . S
H2101 C2109 0.950 . S
H2102 C2107 0.950 . S
H2103 C2108 0.949 . S
H2104 C2110 0.950 . S
H2105 C2111 0.950 . S
H2106 C2112 0.949 . S
C2107 H2102 0.950 . S
C2107 C2109 1.327 . S
C2107 C2113 1.429 . S
C2108 C2100 1.574 . S
C2108 H2103 0.949 . S
C2108 C2114 1.368 . S
C2109 C2093 1.349 . S
C2109 H2101 0.950 . S
C2109 C2107 1.327 . S
C2110 C2098 1.349 . S
C2110 H2104 0.950 . S
C2110 C2111 1.327 . S
C2111 H2105 0.950 . S
C2111 C2110 1.327 . S
C2111 C2115 1.429 . S
C2112 C2095 1.574 . S
C2112 H2106 0.949 . S
C2112 C2116 1.368 . S
C2113 C2094 1.429 . S
C2113 C2107 1.429 . S
C2113 C2114 1.523 . S
C2114 C2095 1.368 . S
C2114 C2108 1.368 . S
C2114 C2113 1.523 . S
C2115 C2099 1.429 . S
C2115 C2111 1.429 . S
C2115 C2116 1.523 . S
C2116 C2100 1.368 . S
C2116 C2112 1.368 . S
C2116 C2115 1.523 . S
H2117 C2092 0.950 . S
H2118 C2094 0.950 . S
H2119 C2095 0.949 . S
H2120 C2097 0.950 . S
H2121 C2099 0.950 . S
C2122 C2123 1.349 . S
C2122 C2124 1.327 . S
C2122 H2147 0.950 . S
C2123 C2122 1.349 . S
C2123 C2139 1.349 . S
C2124 C2122 1.327 . S
C2124 C2143 1.429 . S
C2124 H2148 0.950 . S
C2125 C2142 1.574 . S
C2125 C2144 1.368 . S
C2125 H2149 0.949 . S
H2126 C2130 0.949 . S
C2127 C2128 1.349 . S
C2127 C2129 1.327 . S
C2127 H2150 0.950 . S
C2128 C2127 1.349 . S
C2128 C2140 1.349 . S
C2129 C2127 1.327 . S
C2129 C2145 1.429 . S
C2129 H2151 0.950 . S
C2130 H2126 0.949 . S
C2130 C2138 1.574 . S
C2130 C2146 1.368 . S
H2131 C2139 0.950 . S
H2132 C2137 0.950 . S
H2133 C2138 0.949 . S
H2134 C2140 0.950 . S
H2135 C2141 0.950 . S
H2136 C2142 0.949 . S
C2137 H2132 0.950 . S
C2137 C2139 1.327 . S
C2137 C2143 1.429 . S
C2138 C2130 1.574 . S
C2138 H2133 0.949 . S
C2138 C2144 1.368 . S
C2139 C2123 1.349 . S
C2139 H2131 0.950 . S
C2139 C2137 1.327 . S
C2140 C2128 1.349 . S
C2140 H2134 0.950 . S
C2140 C2141 1.327 . S
C2141 H2135 0.950 . S
C2141 C2140 1.327 . S
C2141 C2145 1.429 . S
C2142 C2125 1.574 . S
C2142 H2136 0.949 . S
C2142 C2146 1.368 . S
C2143 C2124 1.429 . S
C2143 C2137 1.429 . S
C2143 C2144 1.523 . S
C2144 C2125 1.368 . S
C2144 C2138 1.368 . S
C2144 C2143 1.523 . S
C2145 C2129 1.429 . S
C2145 C2141 1.429 . S
C2145 C2146 1.523 . S
C2146 C2130 1.368 . S
C2146 C2142 1.368 . S
C2146 C2145 1.523 . S
H2147 C2122 0.950 . S
H2148 C2124 0.950 . S
H2149 C2125 0.949 . S
H2150 C2127 0.950 . S
H2151 C2129 0.950 . S
C2152 C2153 1.349 . S
C2152 C2154 1.327 . S
C2152 H2177 0.950 . S
C2153 C2152 1.349 . S
C2153 C2169 1.349 . S
C2154 C2152 1.327 . S
C2154 C2173 1.429 . S
C2154 H2178 0.950 . S
C2155 C2172 1.574 . S
C2155 C2174 1.368 . S
C2155 H2179 0.949 . S
H2156 C2160 0.949 . S
C2157 C2158 1.349 . S
C2157 C2159 1.327 . S
C2157 H2180 0.950 . S
C2158 C2157 1.349 . S
C2158 C2170 1.349 . S
C2159 C2157 1.327 . S
C2159 C2175 1.429 . S
C2159 H2181 0.950 . S
C2160 H2156 0.949 . S
C2160 C2168 1.574 . S
C2160 C2176 1.368 . S
H2161 C2169 0.950 . S
H2162 C2167 0.950 . S
H2163 C2168 0.949 . S
H2164 C2170 0.950 . S
H2165 C2171 0.950 . S
H2166 C2172 0.949 . S
C2167 H2162 0.950 . S
C2167 C2169 1.327 . S
C2167 C2173 1.429 . S
C2168 C2160 1.574 . S
C2168 H2163 0.949 . S
C2168 C2174 1.368 . S
C2169 C2153 1.349 . S
C2169 H2161 0.950 . S
C2169 C2167 1.327 . S
C2170 C2158 1.349 . S
C2170 H2164 0.950 . S
C2170 C2171 1.327 . S
C2171 H2165 0.950 . S
C2171 C2170 1.327 . S
C2171 C2175 1.429 . S
C2172 C2155 1.574 . S
C2172 H2166 0.949 . S
C2172 C2176 1.368 . S
C2173 C2154 1.429 . S
C2173 C2167 1.429 . S
C2173 C2174 1.523 . S
C2174 C2155 1.368 . S
C2174 C2168 1.368 . S
C2174 C2173 1.523 . S
C2175 C2159 1.429 . S
C2175 C2171 1.429 . S
C2175 C2176 1.523 . S
C2176 C2160 1.368 . S
C2176 C2172 1.368 . S
C2176 C2175 1.523 . S
H2177 C2152 0.950 . S
H2178 C2154 0.950 . S
H2179 C2155 0.949 . S
H2180 C2157 0.950 . S
H2181 C2159 0.950 . S
C2182 C2183 1.349 . S
C2182 C2184 1.327 . S
C2182 H2207 0.950 . S
C2183 C2182 1.349 . S
C2183 C2199 1.349 . S
C2184 C2182 1.327 . S
C2184 C2203 1.429 . S
C2184 H2208 0.950 . S
C2185 C2202 1.574 . S
C2185 C2204 1.368 . S
C2185 H2209 0.949 . S
H2186 C2190 0.949 . S
C2187 C2188 1.349 . S
C2187 C2189 1.327 . S
C2187 H2210 0.950 . S
C2188 C2187 1.349 . S
C2188 C2200 1.349 . S
C2189 C2187 1.327 . S
C2189 C2205 1.429 . S
C2189 H2211 0.950 . S
C2190 H2186 0.949 . S
C2190 C2198 1.574 . S
C2190 C2206 1.368 . S
H2191 C2199 0.950 . S
H2192 C2197 0.950 . S
H2193 C2198 0.949 . S
H2194 C2200 0.950 . S
H2195 C2201 0.950 . S
H2196 C2202 0.949 . S
C2197 H2192 0.950 . S
C2197 C2199 1.327 . S
C2197 C2203 1.429 . S
C2198 C2190 1.574 . S
C2198 H2193 0.949 . S
C2198 C2204 1.368 . S
C2199 C2183 1.349 . S
C2199 H2191 0.950 . S
C2199 C2197 1.327 . S
C2200 C2188 1.349 . S
C2200 H2194 0.950 . S
C2200 C2201 1.327 . S
C2201 H2195 0.950 . S
C2201 C2200 1.327 . S
C2201 C2205 1.429 . S
C2202 C2185 1.574 . S
C2202 H2196 0.949 . S
C2202 C2206 1.368 . S
C2203 C2184 1.429 . S
C2203 C2197 1.429 . S
C2203 C2204 1.523 . S
C2204 C2185 1.368 . S
C2204 C2198 1.368 . S
C2204 C2203 1.523 . S
C2205 C2189 1.429 . S
C2205 C2201 1.429 . S
C2205 C2206 1.523 . S
C2206 C2190 1.368 . S
C2206 C2202 1.368 . S
C2206 C2205 1.523 . S
H2207 C2182 0.950 . S
H2208 C2184 0.950 . S
H2209 C2185 0.949 . S
H2210 C2187 0.950 . S
H2211 C2189 0.950 . S
C2212 C2213 1.349 . S
C2212 C2214 1.327 . S
C2212 H2237 0.950 . S
C2213 C2212 1.349 . S
C2213 C2229 1.349 . S
C2214 C2212 1.327 . S
C2214 C2233 1.429 . S
C2214 H2238 0.950 . S
C2215 C2232 1.574 . S
C2215 C2234 1.368 . S
C2215 H2239 0.949 . S
H2216 C2220 0.949 . S
C2217 C2218 1.349 . S
C2217 C2219 1.327 . S
C2217 H2240 0.950 . S
C2218 C2217 1.349 . S
C2218 C2230 1.349 . S
C2219 C2217 1.327 . S
C2219 C2235 1.429 . S
C2219 H2241 0.950 . S
C2220 H2216 0.949 . S
C2220 C2228 1.574 . S
C2220 C2236 1.368 . S
H2221 C2229 0.950 . S
H2222 C2227 0.950 . S
H2223 C2228 0.949 . S
H2224 C2230 0.950 . S
H2225 C2231 0.950 . S
H2226 C2232 0.949 . S
C2227 H2222 0.950 . S
C2227 C2229 1.327 . S
C2227 C2233 1.429 . S
C2228 C2220 1.574 . S
C2228 H2223 0.949 . S
C2228 C2234 1.368 . S
C2229 C2213 1.349 . S
C2229 H2221 0.950 . S
C2229 C2227 1.327 . S
C2230 C2218 1.349 . S
C2230 H2224 0.950 . S
C2230 C2231 1.327 . S
C2231 H2225 0.950 . S
C2231 C2230 1.327 . S
C2231 C2235 1.429 . S
C2232 C2215 1.574 . S
C2232 H2226 0.949 . S
C2232 C2236 1.368 . S
C2233 C2214 1.429 . S
C2233 C2227 1.429 . S
C2233 C2234 1.523 . S
C2234 C2215 1.368 . S
C2234 C2228 1.368 . S
C2234 C2233 1.523 . S
C2235 C2219 1.429 . S
C2235 C2231 1.429 . S
C2235 C2236 1.523 . S
C2236 C2220 1.368 . S
C2236 C2232 1.368 . S
C2236 C2235 1.523 . S
H2237 C2212 0.950 . S
H2238 C2214 0.950 . S
H2239 C2215 0.949 . S
H2240 C2217 0.950 . S
H2241 C2219 0.950 . S
C2242 C2243 1.349 . S
C2242 C2244 1.327 . S
C2242 H2267 0.950 . S
C2243 C2242 1.349 . S
C2243 C2259 1.349 . S
C2244 C2242 1.327 . S
C2244 C2263 1.429 . S
C2244 H2268 0.950 . S
C2245 C2262 1.574 . S
C2245 C2264 1.368 . S
C2245 H2269 0.949 . S
H2246 C2250 0.949 . S
C2247 C2248 1.349 . S
C2247 C2249 1.327 . S
C2247 H2270 0.950 . S
C2248 C2247 1.349 . S
C2248 C2260 1.349 . S
C2249 C2247 1.327 . S
C2249 C2265 1.429 . S
C2249 H2271 0.950 . S
C2250 H2246 0.949 . S
C2250 C2258 1.574 . S
C2250 C2266 1.368 . S
H2251 C2259 0.950 . S
H2252 C2257 0.950 . S
H2253 C2258 0.949 . S
H2254 C2260 0.950 . S
H2255 C2261 0.950 . S
H2256 C2262 0.949 . S
C2257 H2252 0.950 . S
C2257 C2259 1.327 . S
C2257 C2263 1.429 . S
C2258 C2250 1.574 . S
C2258 H2253 0.949 . S
C2258 C2264 1.368 . S
C2259 C2243 1.349 . S
C2259 H2251 0.950 . S
C2259 C2257 1.327 . S
C2260 C2248 1.349 . S
C2260 H2254 0.950 . S
C2260 C2261 1.327 . S
C2261 H2255 0.950 . S
C2261 C2260 1.327 . S
C2261 C2265 1.429 . S
C2262 C2245 1.574 . S
C2262 H2256 0.949 . S
C2262 C2266 1.368 . S
C2263 C2244 1.429 . S
C2263 C2257 1.429 . S
C2263 C2264 1.523 . S
C2264 C2245 1.368 . S
C2264 C2258 1.368 . S
C2264 C2263 1.523 . S
C2265 C2249 1.429 . S
C2265 C2261 1.429 . S
C2265 C2266 1.523 . S
C2266 C2250 1.368 . S
C2266 C2262 1.368 . S
C2266 C2265 1.523 . S
H2267 C2242 0.950 . S
H2268 C2244 0.950 . S
H2269 C2245 0.949 . S
H2270 C2247 0.950 . S
H2271 C2249 0.950 . S
C2272 C2273 1.349 . S
C2272 C2274 1.327 . S
C2272 H2297 0.950 . S
C2273 C2272 1.349 . S
C2273 C2289 1.349 . S
C2274 C2272 1.327 . S
C2274 C2293 1.429 . S
C2274 H2298 0.950 . S
C2275 C2292 1.574 . S
C2275 C2294 1.368 . S
C2275 H2299 0.949 . S
H2276 C2280 0.949 . S
C2277 C2278 1.349 . S
C2277 C2279 1.327 . S
C2277 H2300 0.950 . S
C2278 C2277 1.349 . S
C2278 C2290 1.349 . S
C2279 C2277 1.327 . S
C2279 C2295 1.429 . S
C2279 H2301 0.950 . S
C2280 H2276 0.949 . S
C2280 C2288 1.574 . S
C2280 C2296 1.368 . S
H2281 C2289 0.950 . S
H2282 C2287 0.950 . S
H2283 C2288 0.949 . S
H2284 C2290 0.950 . S
H2285 C2291 0.950 . S
H2286 C2292 0.949 . S
C2287 H2282 0.950 . S
C2287 C2289 1.327 . S
C2287 C2293 1.429 . S
C2288 C2280 1.574 . S
C2288 H2283 0.949 . S
C2288 C2294 1.368 . S
C2289 C2273 1.349 . S
C2289 H2281 0.950 . S
C2289 C2287 1.327 . S
C2290 C2278 1.349 . S
C2290 H2284 0.950 . S
C2290 C2291 1.327 . S
C2291 H2285 0.950 . S
C2291 C2290 1.327 . S
C2291 C2295 1.429 . S
C2292 C2275 1.574 . S
C2292 H2286 0.949 . S
C2292 C2296 1.368 . S
C2293 C2274 1.429 . S
C2293 C2287 1.429 . S
C2293 C2294 1.523 . S
C2294 C2275 1.368 . S
C2294 C2288 1.368 . S
C2294 C2293 1.523 . S
C2295 C2279 1.429 . S
C2295 C2291 1.429 . S
C2295 C2296 1.523 . S
C2296 C2280 1.368 . S
C2296 C2292 1.368 . S
C2296 C2295 1.523 . S
H2297 C2272 0.950 . S
H2298 C2274 0.950 . S
H2299 C2275 0.949 . S
H2300 C2277 0.950 . S
H2301 C2279 0.950 . S
C2302 C2303 1.349 . S
C2302 C2304 1.327 1_565 S
C2302 H2327 0.950 1_565 S
C2303 C2302 1.349 . S
C2303 C2319 1.349 . S
C2304 C2302 1.327 1_545 S
C2304 C2323 1.429 1_545 S
C2304 H2328 0.950 . S
C2305 C2322 1.574 . S
C2305 C2324 1.368 . S
C2305 H2329 0.949 . S
H2306 C2310 0.949 . S
C2307 C2308 1.384 . S
C2307 C2309 1.310 1_545 S
C2307 H2330 0.933 1_545 S
C2308 C2307 1.384 . S
C2308 C2320 1.349 . S
C2309 C2307 1.310 1_565 S
C2309 C2325 1.429 1_565 S
C2309 H2331 0.950 . S
C2310 H2306 0.949 . S
C2310 C2318 1.574 . S
C2310 C2326 1.368 . S
H2311 C2319 0.950 . S
H2312 C2317 0.950 . S
H2313 C2318 0.949 . S
H2314 C2320 0.950 . S
H2315 C2321 0.950 . S
H2316 C2322 0.949 . S
C2317 H2312 0.950 . S
C2317 C2319 1.327 . S
C2317 C2323 1.429 . S
C2318 C2310 1.574 . S
C2318 H2313 0.949 . S
C2318 C2324 1.368 1_545 S
C2319 C2303 1.349 . S
C2319 H2311 0.950 . S
C2319 C2317 1.327 . S
C2320 C2308 1.349 . S
C2320 H2314 0.950 . S
C2320 C2321 1.327 . S
C2321 H2315 0.950 . S
C2321 C2320 1.327 . S
C2321 C2325 1.429 . S
C2322 C2305 1.574 . S
C2322 H2316 0.949 . S
C2322 C2326 1.368 1_565 S
C2323 C2304 1.429 1_565 S
C2323 C2317 1.429 . S
C2323 C2324 1.523 . S
C2324 C2305 1.368 . S
C2324 C2318 1.368 1_565 S
C2324 C2323 1.523 . S
C2325 C2309 1.429 1_545 S
C2325 C2321 1.429 . S
C2325 C2326 1.523 . S
C2326 C2310 1.368 . S
C2326 C2322 1.368 1_545 S
C2326 C2325 1.523 . S
H2327 C2302 0.950 1_545 S
H2328 C2304 0.950 . S
H2329 C2305 0.949 . S
H2330 C2307 0.933 1_565 S
H2331 C2309 0.950 . S
C2332 C2333 1.349 . S
C2332 C2334 1.327 . S
C2332 H2357 0.950 . S
C2333 C2332 1.349 . S
C2333 C2349 1.349 . S
C2334 C2332 1.327 . S
C2334 C2353 1.429 . S
C2334 H2358 0.950 . S
C2335 C2352 1.574 . S
C2335 C2354 1.368 . S
C2335 H2359 0.949 . S
H2336 C2340 0.949 . S
C2337 C2338 1.349 . S
C2337 C2339 1.327 . S
C2337 H2360 0.950 . S
C2338 C2337 1.349 . S
C2338 C2350 1.349 . S
C2339 C2337 1.327 . S
C2339 C2355 1.429 . S
C2339 H2361 0.950 . S
C2340 H2336 0.949 . S
C2340 C2348 1.574 . S
C2340 C2356 1.368 . S
H2341 C2349 0.950 . S
H2342 C2347 0.950 . S
H2343 C2348 0.949 . S
H2344 C2350 0.950 . S
H2345 C2351 0.950 . S
H2346 C2352 0.949 . S
C2347 H2342 0.950 . S
C2347 C2349 1.327 . S
C2347 C2353 1.429 . S
C2348 C2340 1.574 . S
C2348 H2343 0.949 . S
C2348 C2354 1.368 . S
C2349 C2333 1.349 . S
C2349 H2341 0.950 . S
C2349 C2347 1.327 . S
C2350 C2338 1.349 . S
C2350 H2344 0.950 . S
C2350 C2351 1.327 . S
C2351 H2345 0.950 . S
C2351 C2350 1.327 . S
C2351 C2355 1.429 . S
C2352 C2335 1.574 . S
C2352 H2346 0.949 . S
C2352 C2356 1.368 . S
C2353 C2334 1.429 . S
C2353 C2347 1.429 . S
C2353 C2354 1.523 . S
C2354 C2335 1.368 . S
C2354 C2348 1.368 . S
C2354 C2353 1.523 . S
C2355 C2339 1.429 . S
C2355 C2351 1.429 . S
C2355 C2356 1.523 . S
C2356 C2340 1.368 . S
C2356 C2352 1.368 . S
C2356 C2355 1.523 . S
H2357 C2332 0.950 . S
H2358 C2334 0.950 . S
H2359 C2335 0.949 . S
H2360 C2337 0.950 . S
H2361 C2339 0.950 . S
C2362 C2363 1.349 . S
C2362 C2364 1.327 . S
C2362 H2387 0.950 . S
C2363 C2362 1.349 . S
C2363 C2379 1.349 . S
C2364 C2362 1.327 . S
C2364 C2383 1.429 . S
C2364 H2388 0.950 . S
C2365 C2382 1.574 . S
C2365 C2384 1.368 . S
C2365 H2389 0.949 . S
H2366 C2370 0.949 . S
C2367 C2368 1.349 . S
C2367 C2369 1.327 . S
C2367 H2390 0.950 . S
C2368 C2367 1.349 . S
C2368 C2380 1.349 . S
C2369 C2367 1.327 . S
C2369 C2385 1.429 . S
C2369 H2391 0.950 . S
C2370 H2366 0.949 . S
C2370 C2378 1.574 . S
C2370 C2386 1.368 . S
H2371 C2379 0.950 . S
H2372 C2377 0.950 . S
H2373 C2378 0.949 . S
H2374 C2380 0.950 . S
H2375 C2381 0.950 . S
H2376 C2382 0.949 . S
C2377 H2372 0.950 . S
C2377 C2379 1.327 . S
C2377 C2383 1.429 . S
C2378 C2370 1.574 . S
C2378 H2373 0.949 . S
C2378 C2384 1.368 . S
C2379 C2363 1.349 . S
C2379 H2371 0.950 . S
C2379 C2377 1.327 . S
C2380 C2368 1.349 . S
C2380 H2374 0.950 . S
C2380 C2381 1.327 . S
C2381 H2375 0.950 . S
C2381 C2380 1.327 . S
C2381 C2385 1.429 . S
C2382 C2365 1.574 . S
C2382 H2376 0.949 . S
C2382 C2386 1.368 . S
C2383 C2364 1.429 . S
C2383 C2377 1.429 . S
C2383 C2384 1.523 . S
C2384 C2365 1.368 . S
C2384 C2378 1.368 . S
C2384 C2383 1.523 . S
C2385 C2369 1.429 . S
C2385 C2381 1.429 . S
C2385 C2386 1.523 . S
C2386 C2370 1.368 . S
C2386 C2382 1.368 . S
C2386 C2385 1.523 . S
H2387 C2362 0.950 . S
H2388 C2364 0.950 . S
H2389 C2365 0.949 . S
H2390 C2367 0.950 . S
H2391 C2369 0.950 . S
C2392 C2393 1.349 . S
C2392 C2394 1.327 . S
C2392 H2417 0.950 . S
C2393 C2392 1.349 . S
C2393 C2409 1.349 . S
C2394 C2392 1.327 . S
C2394 C2413 1.429 . S
C2394 H2418 0.950 . S
C2395 C2412 1.574 . S
C2395 C2414 1.368 . S
C2395 H2419 0.949 . S
H2396 C2400 0.949 . S
C2397 C2398 1.349 . S
C2397 C2399 1.327 . S
C2397 H2420 0.950 . S
C2398 C2397 1.349 . S
C2398 C2410 1.349 . S
C2399 C2397 1.327 . S
C2399 C2415 1.429 . S
C2399 H2421 0.950 . S
C2400 H2396 0.949 . S
C2400 C2408 1.574 . S
C2400 C2416 1.368 . S
H2401 C2409 0.950 . S
H2402 C2407 0.950 . S
H2403 C2408 0.949 . S
H2404 C2410 0.950 . S
H2405 C2411 0.950 . S
H2406 C2412 0.949 . S
C2407 H2402 0.950 . S
C2407 C2409 1.327 . S
C2407 C2413 1.429 . S
C2408 C2400 1.574 . S
C2408 H2403 0.949 . S
C2408 C2414 1.368 . S
C2409 C2393 1.349 . S
C2409 H2401 0.950 . S
C2409 C2407 1.327 . S
C2410 C2398 1.349 . S
C2410 H2404 0.950 . S
C2410 C2411 1.327 . S
C2411 H2405 0.950 . S
C2411 C2410 1.327 . S
C2411 C2415 1.429 . S
C2412 C2395 1.574 . S
C2412 H2406 0.949 . S
C2412 C2416 1.368 . S
C2413 C2394 1.429 . S
C2413 C2407 1.429 . S
C2413 C2414 1.523 . S
C2414 C2395 1.368 . S
C2414 C2408 1.368 . S
C2414 C2413 1.523 . S
C2415 C2399 1.429 . S
C2415 C2411 1.429 . S
C2415 C2416 1.523 . S
C2416 C2400 1.368 . S
C2416 C2412 1.368 . S
C2416 C2415 1.523 . S
H2417 C2392 0.950 . S
H2418 C2394 0.950 . S
H2419 C2395 0.949 . S
H2420 C2397 0.950 . S
H2421 C2399 0.950 . S
C2422 C2423 1.349 . S
C2422 C2424 1.327 . S
C2422 H2447 0.950 . S
C2423 C2422 1.349 . S
C2423 C2439 1.349 . S
C2424 C2422 1.327 . S
C2424 C2443 1.429 . S
C2424 H2448 0.950 . S
C2425 C2442 1.574 . S
C2425 C2444 1.368 . S
C2425 H2449 0.949 . S
H2426 C2430 0.949 . S
C2427 C2428 1.349 . S
C2427 C2429 1.327 . S
C2427 H2450 0.950 . S
C2428 C2427 1.349 . S
C2428 C2440 1.349 . S
C2429 C2427 1.327 . S
C2429 C2445 1.429 . S
C2429 H2451 0.950 . S
C2430 H2426 0.949 . S
C2430 C2438 1.574 . S
C2430 C2446 1.368 . S
H2431 C2439 0.950 . S
H2432 C2437 0.950 . S
H2433 C2438 0.949 . S
H2434 C2440 0.950 . S
H2435 C2441 0.950 . S
H2436 C2442 0.949 . S
C2437 H2432 0.950 . S
C2437 C2439 1.327 . S
C2437 C2443 1.429 . S
C2438 C2430 1.574 . S
C2438 H2433 0.949 . S
C2438 C2444 1.368 . S
C2439 C2423 1.349 . S
C2439 H2431 0.950 . S
C2439 C2437 1.327 . S
C2440 C2428 1.349 . S
C2440 H2434 0.950 . S
C2440 C2441 1.327 . S
C2441 H2435 0.950 . S
C2441 C2440 1.327 . S
C2441 C2445 1.429 . S
C2442 C2425 1.574 . S
C2442 H2436 0.949 . S
C2442 C2446 1.368 . S
C2443 C2424 1.429 . S
C2443 C2437 1.429 . S
C2443 C2444 1.523 . S
C2444 C2425 1.368 . S
C2444 C2438 1.368 . S
C2444 C2443 1.523 . S
C2445 C2429 1.429 . S
C2445 C2441 1.429 . S
C2445 C2446 1.523 . S
C2446 C2430 1.368 . S
C2446 C2442 1.368 . S
C2446 C2445 1.523 . S
H2447 C2422 0.950 . S
H2448 C2424 0.950 . S
H2449 C2425 0.949 . S
H2450 C2427 0.950 . S
H2451 C2429 0.950 . S
C2452 C2453 1.349 . S
C2452 C2454 1.327 . S
C2452 H2477 0.950 . S
C2453 C2452 1.349 . S
C2453 C2469 1.349 . S
C2454 C2452 1.327 . S
C2454 C2473 1.429 . S
C2454 H2478 0.950 . S
C2455 C2472 1.574 . S
C2455 C2474 1.368 . S
C2455 H2479 0.949 . S
H2456 C2460 0.949 . S
C2457 C2458 1.349 . S
C2457 C2459 1.327 . S
C2457 H2480 0.950 . S
C2458 C2457 1.349 . S
C2458 C2470 1.349 . S
C2459 C2457 1.327 . S
C2459 C2475 1.429 1_554 S
C2459 H2481 0.950 . S
C2460 H2456 0.949 . S
C2460 C2468 1.574 . S
C2460 C2476 1.368 . S
H2461 C2469 0.950 . S
H2462 C2467 0.950 . S
H2463 C2468 0.949 . S
H2464 C2470 0.950 . S
H2465 C2471 0.950 . S
H2466 C2472 0.949 1_554 S
C2467 H2462 0.950 . S
C2467 C2469 1.327 . S
C2467 C2473 1.429 . S
C2468 C2460 1.574 . S
C2468 H2463 0.949 . S
C2468 C2474 1.368 . S
C2469 C2453 1.349 . S
C2469 H2461 0.950 . S
C2469 C2467 1.327 . S
C2470 C2458 1.349 . S
C2470 H2464 0.950 . S
C2470 C2471 1.327 1_554 S
C2471 H2465 0.950 . S
C2471 C2470 1.327 1_556 S
C2471 C2475 1.429 . S
C2472 C2455 1.574 . S
C2472 H2466 0.949 1_556 S
C2472 C2476 1.368 . S
C2473 C2454 1.429 . S
C2473 C2467 1.429 . S
C2473 C2474 1.523 . S
C2474 C2455 1.368 . S
C2474 C2468 1.368 . S
C2474 C2473 1.523 . S
C2475 C2459 1.429 1_556 S
C2475 C2471 1.429 . S
C2475 C2476 1.523 . S
C2476 C2460 1.368 . S
C2476 C2472 1.368 . S
C2476 C2475 1.523 . S
H2477 C2452 0.950 . S
H2478 C2454 0.950 . S
H2479 C2455 0.949 . S
H2480 C2457 0.950 . S
H2481 C2459 0.950 . S
C2482 C2483 1.349 . S
C2482 C2484 1.327 . S
C2482 H2507 0.950 . S
C2483 C2482 1.349 . S
C2483 C2499 1.349 . S
C2484 C2482 1.327 . S
C2484 C2503 1.429 . S
C2484 H2508 0.950 . S
C2485 C2502 1.574 . S
C2485 C2504 1.368 . S
C2485 H2509 0.949 . S
H2486 C2490 0.949 . S
C2487 C2488 1.349 . S
C2487 C2489 1.327 . S
C2487 H2510 0.950 . S
C2488 C2487 1.349 . S
C2488 C2500 1.349 . S
C2489 C2487 1.327 . S
C2489 C2505 1.429 . S
C2489 H2511 0.950 . S
C2490 H2486 0.949 . S
C2490 C2498 1.574 . S
C2490 C2506 1.368 . S
H2491 C2499 0.950 . S
H2492 C2497 0.950 . S
H2493 C2498 0.949 . S
H2494 C2500 0.950 . S
H2495 C2501 0.950 . S
H2496 C2502 0.949 . S
C2497 H2492 0.950 . S
C2497 C2499 1.327 . S
C2497 C2503 1.429 . S
C2498 C2490 1.574 . S
C2498 H2493 0.949 . S
C2498 C2504 1.368 . S
C2499 C2483 1.349 . S
C2499 H2491 0.950 . S
C2499 C2497 1.327 . S
C2500 C2488 1.349 . S
C2500 H2494 0.950 . S
C2500 C2501 1.327 . S
C2501 H2495 0.950 . S
C2501 C2500 1.327 . S
C2501 C2505 1.429 . S
C2502 C2485 1.574 . S
C2502 H2496 0.949 . S
C2502 C2506 1.368 . S
C2503 C2484 1.429 . S
C2503 C2497 1.429 . S
C2503 C2504 1.523 . S
C2504 C2485 1.368 . S
C2504 C2498 1.368 . S
C2504 C2503 1.523 . S
C2505 C2489 1.429 . S
C2505 C2501 1.429 . S
C2505 C2506 1.523 . S
C2506 C2490 1.368 . S
C2506 C2502 1.368 . S
C2506 C2505 1.523 . S
H2507 C2482 0.950 . S
H2508 C2484 0.950 . S
H2509 C2485 0.949 . S
H2510 C2487 0.950 . S
H2511 C2489 0.950 . S
C2512 C2513 1.349 . S
C2512 C2514 1.327 . S
C2512 H2537 0.950 . S
C2513 C2512 1.349 . S
C2513 C2529 1.349 . S
C2514 C2512 1.327 . S
C2514 C2533 1.429 . S
C2514 H2538 0.950 . S
C2515 C2532 1.574 . S
C2515 C2534 1.368 . S
C2515 H2539 0.949 . S
H2516 C2520 0.949 . S
C2517 C2518 1.349 . S
C2517 C2519 1.327 . S
C2517 H2540 0.950 . S
C2518 C2517 1.349 . S
C2518 C2530 1.349 . S
C2519 C2517 1.327 . S
C2519 C2535 1.429 . S
C2519 H2541 0.950 . S
C2520 H2516 0.949 . S
C2520 C2528 1.574 . S
C2520 C2536 1.368 . S
H2521 C2529 0.950 . S
H2522 C2527 0.950 . S
H2523 C2528 0.949 . S
H2524 C2530 0.950 . S
H2525 C2531 0.950 . S
H2526 C2532 0.949 . S
C2527 H2522 0.950 . S
C2527 C2529 1.327 . S
C2527 C2533 1.429 . S
C2528 C2520 1.574 . S
C2528 H2523 0.949 . S
C2528 C2534 1.368 . S
C2529 C2513 1.349 . S
C2529 H2521 0.950 . S
C2529 C2527 1.327 . S
C2530 C2518 1.349 . S
C2530 H2524 0.950 . S
C2530 C2531 1.327 . S
C2531 H2525 0.950 . S
C2531 C2530 1.327 . S
C2531 C2535 1.429 . S
C2532 C2515 1.574 . S
C2532 H2526 0.949 . S
C2532 C2536 1.368 . S
C2533 C2514 1.429 . S
C2533 C2527 1.429 . S
C2533 C2534 1.523 . S
C2534 C2515 1.368 . S
C2534 C2528 1.368 . S
C2534 C2533 1.523 . S
C2535 C2519 1.429 . S
C2535 C2531 1.429 . S
C2535 C2536 1.523 . S
C2536 C2520 1.368 . S
C2536 C2532 1.368 . S
C2536 C2535 1.523 . S
H2537 C2512 0.950 . S
H2538 C2514 0.950 . S
H2539 C2515 0.949 . S
H2540 C2517 0.950 . S
H2541 C2519 0.950 . S
C2542 C2543 1.349 . S
C2542 C2544 1.327 1_455 S
C2542 H2567 0.950 . S
C2543 C2542 1.349 . S
C2543 C2559 1.349 1_455 S
C2544 C2542 1.327 1_655 S
C2544 C2563 1.429 . S
C2544 H2568 0.950 . S
C2545 C2562 1.574 . S
C2545 C2564 1.368 . S
C2545 H2569 0.949 . S
H2546 C2550 0.949 . S
C2547 C2548 1.349 . S
C2547 C2549 1.327 . S
C2547 H2570 0.950 . S
C2548 C2547 1.349 . S
C2548 C2560 1.349 . S
C2549 C2547 1.327 . S
C2549 C2565 1.429 . S
C2549 H2571 0.950 . S
C2550 H2546 0.949 . S
C2550 C2558 1.574 . S
C2550 C2566 1.368 . S
H2551 C2559 0.950 . S
H2552 C2557 0.950 . S
H2553 C2558 0.949 . S
H2554 C2560 0.950 . S
H2555 C2561 0.950 . S
H2556 C2562 0.949 . S
C2557 H2552 0.950 . S
C2557 C2559 1.327 . S
C2557 C2563 1.429 . S
C2558 C2550 1.574 . S
C2558 H2553 0.949 . S
C2558 C2564 1.368 . S
C2559 C2543 1.349 1_655 S
C2559 H2551 0.950 . S
C2559 C2557 1.327 . S
C2560 C2548 1.349 . S
C2560 H2554 0.950 . S
C2560 C2561 1.327 . S
C2561 H2555 0.950 . S
C2561 C2560 1.327 . S
C2561 C2565 1.429 . S
C2562 C2545 1.574 . S
C2562 H2556 0.949 . S
C2562 C2566 1.368 . S
C2563 C2544 1.429 . S
C2563 C2557 1.429 . S
C2563 C2564 1.523 . S
C2564 C2545 1.368 . S
C2564 C2558 1.368 . S
C2564 C2563 1.523 . S
C2565 C2549 1.429 . S
C2565 C2561 1.429 . S
C2565 C2566 1.523 . S
C2566 C2550 1.368 . S
C2566 C2562 1.368 . S
C2566 C2565 1.523 . S
H2567 C2542 0.950 . S
H2568 C2544 0.950 . S
H2569 C2545 0.949 . S
H2570 C2547 0.950 . S
H2571 C2549 0.950 . S
C2572 C2573 1.349 1_455 S
C2572 C2574 1.327 . S
C2572 H2597 0.950 . S
C2573 C2572 1.349 1_655 S
C2573 C2589 1.349 . S
C2574 C2572 1.327 . S
C2574 C2593 1.442 . S
C2574 H2598 0.950 . S
C2575 C2592 1.574 1_655 S
C2575 C2594 1.368 1_655 S
C2575 H2599 0.949 . S
H2576 C2580 0.949 . S
C2577 C2578 1.349 . S
C2577 C2579 1.327 . S
C2577 H2600 0.950 . S
C2578 C2577 1.349 . S
C2578 C2590 1.349 . S
C2579 C2577 1.327 . S
C2579 C2595 1.429 . S
C2579 H2601 0.950 . S
C2580 H2576 0.949 . S
C2580 C2588 1.574 . S
C2580 C2596 1.368 . S
H2581 C2589 0.950 . S
H2582 C2587 0.950 . S
H2583 C2588 0.949 . S
H2584 C2590 0.950 . S
H2585 C2591 0.950 . S
H2586 C2592 0.949 1_655 S
C2587 H2582 0.950 . S
C2587 C2589 1.327 . S
C2587 C2593 1.388 1_655 S
C2588 C2580 1.574 . S
C2588 H2583 0.949 . S
C2588 C2594 1.368 . S
C2589 C2573 1.349 . S
C2589 H2581 0.950 . S
C2589 C2587 1.327 . S
C2590 C2578 1.349 . S
C2590 H2584 0.950 . S
C2590 C2591 1.327 . S
C2591 H2585 0.950 . S
C2591 C2590 1.327 . S
C2591 C2595 1.429 . S
C2592 C2575 1.574 1_455 S
C2592 H2586 0.949 1_455 S
C2592 C2596 1.368 . S
C2593 C2574 1.442 . S
C2593 C2587 1.388 1_455 S
C2593 C2594 1.552 . S
C2594 C2575 1.368 1_455 S
C2594 C2588 1.368 . S
C2594 C2593 1.552 . S
C2595 C2579 1.429 . S
C2595 C2591 1.429 . S
C2595 C2596 1.523 . S
C2596 C2580 1.368 . S
C2596 C2592 1.368 . S
C2596 C2595 1.523 . S
H2597 C2572 0.950 . S
H2598 C2574 0.950 . S
H2599 C2575 0.949 . S
H2600 C2577 0.950 . S
H2601 C2579 0.950 . S
C2602 C2603 1.349 . S
C2602 C2604 1.327 . S
C2602 H2627 0.950 . S
C2603 C2602 1.349 . S
C2603 C2619 1.349 . S
C2604 C2602 1.327 . S
C2604 C2623 1.429 . S
C2604 H2628 0.950 . S
C2605 C2622 1.574 . S
C2605 C2624 1.368 . S
C2605 H2629 0.949 . S
H2606 C2610 0.949 . S
C2607 C2608 1.349 . S
C2607 C2609 1.327 . S
C2607 H2630 0.950 . S
C2608 C2607 1.349 . S
C2608 C2620 1.349 . S
C2609 C2607 1.327 . S
C2609 C2625 1.429 . S
C2609 H2631 0.950 . S
C2610 H2606 0.949 . S
C2610 C2618 1.574 . S
C2610 C2626 1.368 . S
H2611 C2619 0.950 . S
H2612 C2617 0.950 . S
H2613 C2618 0.949 . S
H2614 C2620 0.950 . S
H2615 C2621 0.950 . S
H2616 C2622 0.949 . S
C2617 H2612 0.950 . S
C2617 C2619 1.327 . S
C2617 C2623 1.429 . S
C2618 C2610 1.574 . S
C2618 H2613 0.949 . S
C2618 C2624 1.368 . S
C2619 C2603 1.349 . S
C2619 H2611 0.950 . S
C2619 C2617 1.327 . S
C2620 C2608 1.349 . S
C2620 H2614 0.950 . S
C2620 C2621 1.327 . S
C2621 H2615 0.950 . S
C2621 C2620 1.327 . S
C2621 C2625 1.429 . S
C2622 C2605 1.574 . S
C2622 H2616 0.949 . S
C2622 C2626 1.368 . S
C2623 C2604 1.429 . S
C2623 C2617 1.429 . S
C2623 C2624 1.523 . S
C2624 C2605 1.368 . S
C2624 C2618 1.368 . S
C2624 C2623 1.523 . S
C2625 C2609 1.429 . S
C2625 C2621 1.429 . S
C2625 C2626 1.523 . S
C2626 C2610 1.368 . S
C2626 C2622 1.368 . S
C2626 C2625 1.523 . S
H2627 C2602 0.950 . S
H2628 C2604 0.950 . S
H2629 C2605 0.949 . S
H2630 C2607 0.950 . S
H2631 C2609 0.950 . S
C2632 C2633 1.349 . S
C2632 C2634 1.327 . S
C2632 H2657 0.950 . S
C2633 C2632 1.349 . S
C2633 C2649 1.349 . S
C2634 C2632 1.327 . S
C2634 C2653 1.429 . S
C2634 H2658 0.950 . S
C2635 C2652 1.574 . S
C2635 C2654 1.368 . S
C2635 H2659 0.949 . S
H2636 C2640 0.949 . S
C2637 C2638 1.349 . S
C2637 C2639 1.327 . S
C2637 H2660 0.950 . S
C2638 C2637 1.349 . S
C2638 C2650 1.349 . S
C2639 C2637 1.327 . S
C2639 C2655 1.429 . S
C2639 H2661 0.950 . S
C2640 H2636 0.949 . S
C2640 C2648 1.574 . S
C2640 C2656 1.368 . S
H2641 C2649 0.950 . S
H2642 C2647 0.950 . S
H2643 C2648 0.949 . S
H2644 C2650 0.950 . S
H2645 C2651 0.950 . S
H2646 C2652 0.949 . S
C2647 H2642 0.950 . S
C2647 C2649 1.327 . S
C2647 C2653 1.429 . S
C2648 C2640 1.574 . S
C2648 H2643 0.949 . S
C2648 C2654 1.368 . S
C2649 C2633 1.349 . S
C2649 H2641 0.950 . S
C2649 C2647 1.327 . S
C2650 C2638 1.349 . S
C2650 H2644 0.950 . S
C2650 C2651 1.327 . S
C2651 H2645 0.950 . S
C2651 C2650 1.327 . S
C2651 C2655 1.429 . S
C2652 C2635 1.574 . S
C2652 H2646 0.949 . S
C2652 C2656 1.368 . S
C2653 C2634 1.429 . S
C2653 C2647 1.429 . S
C2653 C2654 1.523 . S
C2654 C2635 1.368 . S
C2654 C2648 1.368 . S
C2654 C2653 1.523 . S
C2655 C2639 1.429 . S
C2655 C2651 1.429 . S
C2655 C2656 1.523 . S
C2656 C2640 1.368 . S
C2656 C2652 1.368 . S
C2656 C2655 1.523 . S
H2657 C2632 0.950 . S
H2658 C2634 0.950 . S
H2659 C2635 0.949 . S
H2660 C2637 0.950 . S
H2661 C2639 0.950 . S
C2662 C2663 1.349 . S
C2662 C2664 1.327 . S
C2662 H2687 0.950 . S
C2663 C2662 1.349 . S
C2663 C2679 1.349 . S
C2664 C2662 1.327 . S
C2664 C2683 1.429 . S
C2664 H2688 0.950 . S
C2665 C2682 1.574 . S
C2665 C2684 1.368 . S
C2665 H2689 0.949 . S
H2666 C2670 0.949 . S
C2667 C2668 1.349 . S
C2667 C2669 1.327 . S
C2667 H2690 0.950 . S
C2668 C2667 1.349 . S
C2668 C2680 1.349 . S
C2669 C2667 1.327 . S
C2669 C2685 1.429 . S
C2669 H2691 0.950 . S
C2670 H2666 0.949 . S
C2670 C2678 1.574 . S
C2670 C2686 1.368 . S
H2671 C2679 0.950 . S
H2672 C2677 0.950 . S
H2673 C2678 0.949 . S
H2674 C2680 0.950 . S
H2675 C2681 0.950 . S
H2676 C2682 0.949 . S
C2677 H2672 0.950 . S
C2677 C2679 1.327 . S
C2677 C2683 1.429 . S
C2678 C2670 1.574 . S
C2678 H2673 0.949 . S
C2678 C2684 1.368 . S
C2679 C2663 1.349 . S
C2679 H2671 0.950 . S
C2679 C2677 1.327 . S
C2680 C2668 1.349 . S
C2680 H2674 0.950 . S
C2680 C2681 1.327 . S
C2681 H2675 0.950 . S
C2681 C2680 1.327 . S
C2681 C2685 1.429 . S
C2682 C2665 1.574 . S
C2682 H2676 0.949 . S
C2682 C2686 1.368 . S
C2683 C2664 1.429 . S
C2683 C2677 1.429 . S
C2683 C2684 1.523 . S
C2684 C2665 1.368 . S
C2684 C2678 1.368 . S
C2684 C2683 1.523 . S
C2685 C2669 1.429 . S
C2685 C2681 1.429 . S
C2685 C2686 1.523 . S
C2686 C2670 1.368 . S
C2686 C2682 1.368 . S
C2686 C2685 1.523 . S
H2687 C2662 0.950 . S
H2688 C2664 0.950 . S
H2689 C2665 0.949 . S
H2690 C2667 0.950 . S
H2691 C2669 0.950 . S
C2692 C2693 1.349 . S
C2692 C2694 1.327 . S
C2692 H2717 0.950 . S
C2693 C2692 1.349 . S
C2693 C2709 1.349 . S
C2694 C2692 1.327 . S
C2694 C2713 1.429 . S
C2694 H2718 0.950 . S
C2695 C2712 1.574 . S
C2695 C2714 1.368 . S
C2695 H2719 0.949 . S
H2696 C2700 0.949 . S
C2697 C2698 1.349 . S
C2697 C2699 1.327 . S
C2697 H2720 0.950 . S
C2698 C2697 1.349 . S
C2698 C2710 1.349 . S
C2699 C2697 1.327 . S
C2699 C2715 1.429 . S
C2699 H2721 0.950 . S
C2700 H2696 0.949 . S
C2700 C2708 1.574 . S
C2700 C2716 1.368 . S
H2701 C2709 0.950 . S
H2702 C2707 0.950 . S
H2703 C2708 0.949 . S
H2704 C2710 0.950 . S
H2705 C2711 0.950 . S
H2706 C2712 0.949 . S
C2707 H2702 0.950 . S
C2707 C2709 1.327 . S
C2707 C2713 1.429 . S
C2708 C2700 1.574 . S
C2708 H2703 0.949 . S
C2708 C2714 1.368 . S
C2709 C2693 1.349 . S
C2709 H2701 0.950 . S
C2709 C2707 1.327 . S
C2710 C2698 1.349 . S
C2710 H2704 0.950 . S
C2710 C2711 1.327 . S
C2711 H2705 0.950 . S
C2711 C2710 1.327 . S
C2711 C2715 1.429 . S
C2712 C2695 1.574 . S
C2712 H2706 0.949 . S
C2712 C2716 1.368 . S
C2713 C2694 1.429 . S
C2713 C2707 1.429 . S
C2713 C2714 1.523 . S
C2714 C2695 1.368 . S
C2714 C2708 1.368 . S
C2714 C2713 1.523 . S
C2715 C2699 1.429 . S
C2715 C2711 1.429 . S
C2715 C2716 1.523 . S
C2716 C2700 1.368 . S
C2716 C2712 1.368 . S
C2716 C2715 1.523 . S
H2717 C2692 0.950 . S
H2718 C2694 0.950 . S
H2719 C2695 0.949 . S
H2720 C2697 0.950 . S
H2721 C2699 0.950 . S
C2722 C2723 1.349 . S
C2722 C2724 1.327 . S
C2722 H2747 0.950 . S
C2723 C2722 1.349 . S
C2723 C2739 1.349 . S
C2724 C2722 1.327 . S
C2724 C2743 1.429 . S
C2724 H2748 0.950 . S
C2725 C2742 1.574 . S
C2725 C2744 1.368 . S
C2725 H2749 0.949 . S
H2726 C2730 0.949 . S
C2727 C2728 1.349 . S
C2727 C2729 1.327 . S
C2727 H2750 0.950 . S
C2728 C2727 1.349 . S
C2728 C2740 1.349 . S
C2729 C2727 1.327 . S
C2729 C2745 1.429 . S
C2729 H2751 0.950 . S
C2730 H2726 0.949 . S
C2730 C2738 1.574 . S
C2730 C2746 1.368 . S
H2731 C2739 0.950 . S
H2732 C2737 0.950 . S
H2733 C2738 0.949 . S
H2734 C2740 0.950 . S
H2735 C2741 0.950 . S
H2736 C2742 0.949 . S
C2737 H2732 0.950 . S
C2737 C2739 1.327 . S
C2737 C2743 1.429 . S
C2738 C2730 1.574 . S
C2738 H2733 0.949 . S
C2738 C2744 1.368 . S
C2739 C2723 1.349 . S
C2739 H2731 0.950 . S
C2739 C2737 1.327 . S
C2740 C2728 1.349 . S
C2740 H2734 0.950 . S
C2740 C2741 1.327 . S
C2741 H2735 0.950 . S
C2741 C2740 1.327 . S
C2741 C2745 1.429 . S
C2742 C2725 1.574 . S
C2742 H2736 0.949 . S
C2742 C2746 1.368 . S
C2743 C2724 1.429 . S
C2743 C2737 1.429 . S
C2743 C2744 1.523 . S
C2744 C2725 1.368 . S
C2744 C2738 1.368 . S
C2744 C2743 1.523 . S
C2745 C2729 1.429 . S
C2745 C2741 1.429 . S
C2745 C2746 1.523 . S
C2746 C2730 1.368 . S
C2746 C2742 1.368 . S
C2746 C2745 1.523 . S
H2747 C2722 0.950 . S
H2748 C2724 0.950 . S
H2749 C2725 0.949 . S
H2750 C2727 0.950 . S
H2751 C2729 0.950 . S
C2752 C2753 1.349 . S
C2752 C2754 1.327 . S
C2752 H2777 0.950 . S
C2753 C2752 1.349 . S
C2753 C2769 1.349 . S
C2754 C2752 1.327 . S
C2754 C2773 1.429 . S
C2754 H2778 0.950 . S
C2755 C2772 1.574 . S
C2755 C2774 1.368 . S
C2755 H2779 0.949 . S
H2756 C2760 0.949 . S
C2757 C2758 1.349 . S
C2757 C2759 1.327 . S
C2757 H2780 0.950 . S
C2758 C2757 1.349 . S
C2758 C2770 1.349 . S
C2759 C2757 1.327 . S
C2759 C2775 1.429 . S
C2759 H2781 0.950 . S
C2760 H2756 0.949 . S
C2760 C2768 1.574 . S
C2760 C2776 1.368 . S
H2761 C2769 0.950 . S
H2762 C2767 0.950 . S
H2763 C2768 0.949 . S
H2764 C2770 0.950 . S
H2765 C2771 0.950 . S
H2766 C2772 0.949 . S
C2767 H2762 0.950 . S
C2767 C2769 1.327 . S
C2767 C2773 1.429 . S
C2768 C2760 1.574 . S
C2768 H2763 0.949 . S
C2768 C2774 1.368 . S
C2769 C2753 1.349 . S
C2769 H2761 0.950 . S
C2769 C2767 1.327 . S
C2770 C2758 1.349 . S
C2770 H2764 0.950 . S
C2770 C2771 1.327 . S
C2771 H2765 0.950 . S
C2771 C2770 1.327 . S
C2771 C2775 1.429 . S
C2772 C2755 1.574 . S
C2772 H2766 0.949 . S
C2772 C2776 1.368 . S
C2773 C2754 1.429 . S
C2773 C2767 1.429 . S
C2773 C2774 1.523 . S
C2774 C2755 1.368 . S
C2774 C2768 1.368 . S
C2774 C2773 1.523 . S
C2775 C2759 1.429 . S
C2775 C2771 1.429 . S
C2775 C2776 1.523 . S
C2776 C2760 1.368 . S
C2776 C2772 1.368 . S
C2776 C2775 1.523 . S
H2777 C2752 0.950 . S
H2778 C2754 0.950 . S
H2779 C2755 0.949 . S
H2780 C2757 0.950 . S
H2781 C2759 0.950 . S
C2782 C2783 1.349 . S
C2782 C2784 1.327 . S
C2782 H2807 0.950 . S
C2783 C2782 1.349 . S
C2783 C2799 1.349 . S
C2784 C2782 1.327 . S
C2784 C2803 1.429 . S
C2784 H2808 0.950 . S
C2785 C2802 1.574 . S
C2785 C2804 1.368 . S
C2785 H2809 0.949 . S
H2786 C2790 0.949 . S
C2787 C2788 1.349 . S
C2787 C2789 1.327 . S
C2787 H2810 0.950 . S
C2788 C2787 1.349 . S
C2788 C2800 1.349 . S
C2789 C2787 1.327 . S
C2789 C2805 1.429 . S
C2789 H2811 0.950 . S
C2790 H2786 0.949 . S
C2790 C2798 1.574 . S
C2790 C2806 1.368 . S
H2791 C2799 0.950 . S
H2792 C2797 0.950 . S
H2793 C2798 0.949 . S
H2794 C2800 0.950 . S
H2795 C2801 0.950 . S
H2796 C2802 0.949 . S
C2797 H2792 0.950 . S
C2797 C2799 1.327 . S
C2797 C2803 1.429 . S
C2798 C2790 1.574 . S
C2798 H2793 0.949 . S
C2798 C2804 1.368 . S
C2799 C2783 1.349 . S
C2799 H2791 0.950 . S
C2799 C2797 1.327 . S
C2800 C2788 1.349 . S
C2800 H2794 0.950 . S
C2800 C2801 1.327 . S
C2801 H2795 0.950 . S
C2801 C2800 1.327 . S
C2801 C2805 1.429 . S
C2802 C2785 1.574 . S
C2802 H2796 0.949 . S
C2802 C2806 1.368 . S
C2803 C2784 1.429 . S
C2803 C2797 1.429 . S
C2803 C2804 1.523 . S
C2804 C2785 1.368 . S
C2804 C2798 1.368 . S
C2804 C2803 1.523 . S
C2805 C2789 1.429 . S
C2805 C2801 1.429 . S
C2805 C2806 1.523 . S
C2806 C2790 1.368 . S
C2806 C2802 1.368 . S
C2806 C2805 1.523 . S
H2807 C2782 0.950 . S
H2808 C2784 0.950 . S
H2809 C2785 0.949 . S
H2810 C2787 0.950 . S
H2811 C2789 0.950 . S
C2812 C2813 1.349 . S
C2812 C2814 1.327 . S
C2812 H2837 0.950 . S
C2813 C2812 1.349 . S
C2813 C2829 1.349 . S
C2814 C2812 1.327 . S
C2814 C2833 1.429 . S
C2814 H2838 0.950 . S
C2815 C2832 1.574 . S
C2815 C2834 1.368 . S
C2815 H2839 0.949 . S
H2816 C2820 0.949 . S
C2817 C2818 1.349 . S
C2817 C2819 1.327 . S
C2817 H2840 0.950 . S
C2818 C2817 1.349 . S
C2818 C2830 1.349 . S
C2819 C2817 1.327 . S
C2819 C2835 1.429 . S
C2819 H2841 0.950 . S
C2820 H2816 0.949 . S
C2820 C2828 1.574 . S
C2820 C2836 1.368 . S
H2821 C2829 0.950 . S
H2822 C2827 0.950 . S
H2823 C2828 0.949 . S
H2824 C2830 0.950 . S
H2825 C2831 0.950 . S
H2826 C2832 0.949 . S
C2827 H2822 0.950 . S
C2827 C2829 1.327 . S
C2827 C2833 1.429 . S
C2828 C2820 1.574 . S
C2828 H2823 0.949 . S
C2828 C2834 1.368 . S
C2829 C2813 1.349 . S
C2829 H2821 0.950 . S
C2829 C2827 1.327 . S
C2830 C2818 1.349 . S
C2830 H2824 0.950 . S
C2830 C2831 1.327 . S
C2831 H2825 0.950 . S
C2831 C2830 1.327 . S
C2831 C2835 1.429 . S
C2832 C2815 1.574 . S
C2832 H2826 0.949 . S
C2832 C2836 1.368 . S
C2833 C2814 1.429 . S
C2833 C2827 1.429 . S
C2833 C2834 1.523 . S
C2834 C2815 1.368 . S
C2834 C2828 1.368 . S
C2834 C2833 1.523 . S
C2835 C2819 1.429 . S
C2835 C2831 1.429 . S
C2835 C2836 1.523 . S
C2836 C2820 1.368 . S
C2836 C2832 1.368 . S
C2836 C2835 1.523 . S
H2837 C2812 0.950 . S
H2838 C2814 0.950 . S
H2839 C2815 0.949 . S
H2840 C2817 0.950 . S
H2841 C2819 0.950 . S
C2842 C2843 1.349 . S
C2842 C2844 1.327 . S
C2842 H2867 0.950 . S
C2843 C2842 1.349 . S
C2843 C2859 1.349 . S
C2844 C2842 1.327 . S
C2844 C2863 1.429 . S
C2844 H2868 0.950 . S
C2845 C2862 1.574 . S
C2845 C2864 1.368 . S
C2845 H2869 0.949 . S
H2846 C2850 0.949 . S
C2847 C2848 1.349 . S
C2847 C2849 1.327 . S
C2847 H2870 0.950 . S
C2848 C2847 1.349 . S
C2848 C2860 1.349 . S
C2849 C2847 1.327 . S
C2849 C2865 1.429 . S
C2849 H2871 0.950 . S
C2850 H2846 0.949 . S
C2850 C2858 1.574 . S
C2850 C2866 1.368 . S
H2851 C2859 0.950 . S
H2852 C2857 0.950 . S
H2853 C2858 0.949 . S
H2854 C2860 0.950 . S
H2855 C2861 0.950 . S
H2856 C2862 0.949 . S
C2857 H2852 0.950 . S
C2857 C2859 1.327 . S
C2857 C2863 1.429 . S
C2858 C2850 1.574 . S
C2858 H2853 0.949 . S
C2858 C2864 1.368 . S
C2859 C2843 1.349 . S
C2859 H2851 0.950 . S
C2859 C2857 1.327 . S
C2860 C2848 1.349 . S
C2860 H2854 0.950 . S
C2860 C2861 1.327 . S
C2861 H2855 0.950 . S
C2861 C2860 1.327 . S
C2861 C2865 1.429 . S
C2862 C2845 1.574 . S
C2862 H2856 0.949 . S
C2862 C2866 1.368 . S
C2863 C2844 1.429 . S
C2863 C2857 1.429 . S
C2863 C2864 1.523 . S
C2864 C2845 1.368 . S
C2864 C2858 1.368 . S
C2864 C2863 1.523 . S
C2865 C2849 1.429 . S
C2865 C2861 1.429 . S
C2865 C2866 1.523 . S
C2866 C2850 1.368 . S
C2866 C2862 1.368 . S
C2866 C2865 1.523 . S
H2867 C2842 0.950 . S
H2868 C2844 0.950 . S
H2869 C2845 0.949 . S
H2870 C2847 0.950 . S
H2871 C2849 0.950 . S
C2872 C2873 1.349 . S
C2872 C2874 1.327 . S
C2872 H2897 0.950 . S
C2873 C2872 1.349 . S
C2873 C2889 1.349 . S
C2874 C2872 1.327 . S
C2874 C2893 1.429 . S
C2874 H2898 0.950 . S
C2875 C2892 1.574 . S
C2875 C2894 1.368 . S
C2875 H2899 0.949 . S
H2876 C2880 0.949 . S
C2877 C2878 1.349 . S
C2877 C2879 1.327 . S
C2877 H2900 0.950 . S
C2878 C2877 1.349 . S
C2878 C2890 1.349 . S
C2879 C2877 1.327 . S
C2879 C2895 1.429 . S
C2879 H2901 0.950 . S
C2880 H2876 0.949 . S
C2880 C2888 1.574 . S
C2880 C2896 1.368 . S
H2881 C2889 0.950 . S
H2882 C2887 0.950 . S
H2883 C2888 0.949 . S
H2884 C2890 0.950 . S
H2885 C2891 0.950 . S
H2886 C2892 0.949 . S
C2887 H2882 0.950 . S
C2887 C2889 1.327 . S
C2887 C2893 1.429 . S
C2888 C2880 1.574 . S
C2888 H2883 0.949 . S
C2888 C2894 1.368 . S
C2889 C2873 1.349 . S
C2889 H2881 0.950 . S
C2889 C2887 1.327 . S
C2890 C2878 1.349 . S
C2890 H2884 0.950 . S
C2890 C2891 1.327 . S
C2891 H2885 0.950 . S
C2891 C2890 1.327 . S
C2891 C2895 1.429 . S
C2892 C2875 1.574 . S
C2892 H2886 0.949 . S
C2892 C2896 1.368 . S
C2893 C2874 1.429 . S
C2893 C2887 1.429 . S
C2893 C2894 1.523 . S
C2894 C2875 1.368 . S
C2894 C2888 1.368 . S
C2894 C2893 1.523 . S
C2895 C2879 1.429 . S
C2895 C2891 1.429 . S
C2895 C2896 1.523 . S
C2896 C2880 1.368 . S
C2896 C2892 1.368 . S
C2896 C2895 1.523 . S
H2897 C2872 0.950 . S
H2898 C2874 0.950 . S
H2899 C2875 0.949 . S
H2900 C2877 0.950 . S
H2901 C2879 0.950 . S
C2902 C2903 1.349 . S
C2902 C2904 1.327 . S
C2902 H2927 0.950 . S
C2903 C2902 1.349 . S
C2903 C2919 1.349 . S
C2904 C2902 1.327 . S
C2904 C2923 1.429 . S
C2904 H2928 0.950 . S
C2905 C2922 1.574 . S
C2905 C2924 1.368 . S
C2905 H2929 0.949 . S
H2906 C2910 0.949 . S
C2907 C2908 1.349 . S
C2907 C2909 1.327 . S
C2907 H2930 0.950 . S
C2908 C2907 1.349 . S
C2908 C2920 1.349 . S
C2909 C2907 1.327 . S
C2909 C2925 1.429 . S
C2909 H2931 0.950 . S
C2910 H2906 0.949 . S
C2910 C2918 1.574 . S
C2910 C2926 1.368 . S
H2911 C2919 0.950 . S
H2912 C2917 0.950 . S
H2913 C2918 0.949 . S
H2914 C2920 0.950 . S
H2915 C2921 0.950 . S
H2916 C2922 0.949 . S
C2917 H2912 0.950 . S
C2917 C2919 1.327 . S
C2917 C2923 1.429 . S
C2918 C2910 1.574 . S
C2918 H2913 0.949 . S
C2918 C2924 1.368 . S
C2919 C2903 1.349 . S
C2919 H2911 0.950 . S
C2919 C2917 1.327 . S
C2920 C2908 1.349 . S
C2920 H2914 0.950 . S
C2920 C2921 1.327 . S
C2921 H2915 0.950 . S
C2921 C2920 1.327 . S
C2921 C2925 1.429 . S
C2922 C2905 1.574 . S
C2922 H2916 0.949 . S
C2922 C2926 1.368 . S
C2923 C2904 1.429 . S
C2923 C2917 1.429 . S
C2923 C2924 1.523 . S
C2924 C2905 1.368 . S
C2924 C2918 1.368 . S
C2924 C2923 1.523 . S
C2925 C2909 1.429 . S
C2925 C2921 1.429 . S
C2925 C2926 1.523 . S
C2926 C2910 1.368 . S
C2926 C2922 1.368 . S
C2926 C2925 1.523 . S
H2927 C2902 0.950 . S
H2928 C2904 0.950 . S
H2929 C2905 0.949 . S
H2930 C2907 0.950 . S
H2931 C2909 0.950 . S
C2932 C2933 1.349 . S
C2932 C2934 1.327 . S
C2932 H2957 0.950 . S
C2933 C2932 1.349 . S
C2933 C2949 1.349 . S
C2934 C2932 1.327 . S
C2934 C2953 1.429 . S
C2934 H2958 0.950 . S
C2935 C2952 1.574 . S
C2935 C2954 1.368 . S
C2935 H2959 0.949 . S
H2936 C2940 0.949 . S
C2937 C2938 1.349 . S
C2937 C2939 1.327 . S
C2937 H2960 0.950 . S
C2938 C2937 1.349 . S
C2938 C2950 1.349 . S
C2939 C2937 1.327 . S
C2939 C2955 1.429 . S
C2939 H2961 0.950 . S
C2940 H2936 0.949 . S
C2940 C2948 1.574 . S
C2940 C2956 1.368 . S
H2941 C2949 0.950 . S
H2942 C2947 0.950 . S
H2943 C2948 0.949 . S
H2944 C2950 0.950 . S
H2945 C2951 0.950 . S
H2946 C2952 0.949 . S
C2947 H2942 0.950 . S
C2947 C2949 1.327 . S
C2947 C2953 1.429 . S
C2948 C2940 1.574 . S
C2948 H2943 0.949 . S
C2948 C2954 1.368 . S
C2949 C2933 1.349 . S
C2949 H2941 0.950 . S
C2949 C2947 1.327 . S
C2950 C2938 1.349 . S
C2950 H2944 0.950 . S
C2950 C2951 1.327 . S
C2951 H2945 0.950 . S
C2951 C2950 1.327 . S
C2951 C2955 1.429 . S
C2952 C2935 1.574 . S
C2952 H2946 0.949 . S
C2952 C2956 1.368 . S
C2953 C2934 1.429 . S
C2953 C2947 1.429 . S
C2953 C2954 1.523 . S
C2954 C2935 1.368 . S
C2954 C2948 1.368 . S
C2954 C2953 1.523 . S
C2955 C2939 1.429 . S
C2955 C2951 1.429 . S
C2955 C2956 1.523 . S
C2956 C2940 1.368 . S
C2956 C2952 1.368 . S
C2956 C2955 1.523 . S
H2957 C2932 0.950 . S
H2958 C2934 0.950 . S
H2959 C2935 0.949 . S
H2960 C2937 0.950 . S
H2961 C2939 0.950 . S
C2962 C2963 1.349 . S
C2962 C2964 1.327 . S
C2962 H2987 0.950 . S
C2963 C2962 1.349 . S
C2963 C2979 1.349 . S
C2964 C2962 1.327 . S
C2964 C2983 1.429 . S
C2964 H2988 0.950 . S
C2965 C2982 1.574 . S
C2965 C2984 1.368 . S
C2965 H2989 0.949 . S
H2966 C2970 0.949 1_545 S
C2967 C2968 1.349 1_565 S
C2967 C2969 1.327 . S
C2967 H2990 0.950 . S
C2968 C2967 1.349 1_545 S
C2968 C2980 1.349 . S
C2969 C2967 1.327 . S
C2969 C2985 1.429 . S
C2969 H2991 0.950 . S
C2970 H2966 0.949 1_565 S
C2970 C2978 1.574 . S
C2970 C2986 1.368 . S
H2971 C2979 0.950 . S
H2972 C2977 0.950 . S
H2973 C2978 0.949 . S
H2974 C2980 0.950 . S
H2975 C2981 0.950 . S
H2976 C2982 0.949 . S
C2977 H2972 0.950 . S
C2977 C2979 1.327 . S
C2977 C2983 1.429 . S
C2978 C2970 1.574 . S
C2978 H2973 0.949 . S
C2978 C2984 1.368 . S
C2979 C2963 1.349 . S
C2979 H2971 0.950 . S
C2979 C2977 1.327 . S
C2980 C2968 1.349 . S
C2980 H2974 0.950 . S
C2980 C2981 1.327 . S
C2981 H2975 0.950 . S
C2981 C2980 1.327 . S
C2981 C2985 1.429 1_545 S
C2982 C2965 1.574 . S
C2982 H2976 0.949 . S
C2982 C2986 1.368 . S
C2983 C2964 1.429 . S
C2983 C2977 1.429 . S
C2983 C2984 1.523 . S
C2984 C2965 1.368 . S
C2984 C2978 1.368 . S
C2984 C2983 1.523 . S
C2985 C2969 1.429 . S
C2985 C2981 1.429 1_565 S
C2985 C2986 1.523 . S
C2986 C2970 1.368 . S
C2986 C2982 1.368 . S
C2986 C2985 1.523 . S
H2987 C2962 0.950 . S
H2988 C2964 0.950 . S
H2989 C2965 0.949 . S
H2990 C2967 0.950 . S
H2991 C2969 0.950 . S
C2992 C2993 1.349 . S
C2992 C2994 1.327 . S
C2992 H3017 0.950 . S
C2993 C2992 1.349 . S
C2993 C3009 1.349 . S
C2994 C2992 1.327 . S
C2994 C3013 1.429 . S
C2994 H3018 0.950 . S
C2995 C3012 1.574 . S
C2995 C3014 1.368 . S
C2995 H3019 0.949 . S
H2996 C3000 0.949 . S
C2997 C2998 1.349 . S
C2997 C2999 1.327 . S
C2997 H3020 0.950 . S
C2998 C2997 1.349 . S
C2998 C3010 1.349 . S
C2999 C2997 1.327 . S
C2999 C3015 1.429 . S
C2999 H3021 0.950 . S
C3000 H2996 0.949 . S
C3000 C3008 1.574 . S
C3000 C3016 1.368 . S
H3001 C3009 0.950 . S
H3002 C3007 0.950 . S
H3003 C3008 0.949 . S
H3004 C3010 0.950 . S
H3005 C3011 0.950 . S
H3006 C3012 0.949 . S
C3007 H3002 0.950 . S
C3007 C3009 1.327 . S
C3007 C3013 1.429 . S
C3008 C3000 1.574 . S
C3008 H3003 0.949 . S
C3008 C3014 1.368 . S
C3009 C2993 1.349 . S
C3009 H3001 0.950 . S
C3009 C3007 1.327 . S
C3010 C2998 1.349 . S
C3010 H3004 0.950 . S
C3010 C3011 1.327 . S
C3011 H3005 0.950 . S
C3011 C3010 1.327 . S
C3011 C3015 1.429 . S
C3012 C2995 1.574 . S
C3012 H3006 0.949 . S
C3012 C3016 1.368 . S
C3013 C2994 1.429 . S
C3013 C3007 1.429 . S
C3013 C3014 1.523 . S
C3014 C2995 1.368 . S
C3014 C3008 1.368 . S
C3014 C3013 1.523 . S
C3015 C2999 1.429 . S
C3015 C3011 1.429 . S
C3015 C3016 1.523 . S
C3016 C3000 1.368 . S
C3016 C3012 1.368 . S
C3016 C3015 1.523 . S
H3017 C2992 0.950 . S
H3018 C2994 0.950 . S
H3019 C2995 0.949 . S
H3020 C2997 0.950 . S
H3021 C2999 0.950 . S
C3022 C3023 1.342 1_556 S
C3022 C3024 1.327 . S
C3022 H3047 0.950 . S
C3023 C3022 1.342 1_554 S
C3023 C3039 1.359 . S
C3024 C3022 1.327 . S
C3024 C3043 1.429 1_556 S
C3024 H3048 0.950 . S
C3025 C3042 1.574 . S
C3025 C3044 1.368 . S
C3025 H3049 0.949 . S
H3026 C3030 0.949 . S
C3027 C3028 1.349 . S
C3027 C3029 1.327 . S
C3027 H3050 0.950 . S
C3028 C3027 1.349 . S
C3028 C3040 1.349 . S
C3029 C3027 1.327 . S
C3029 C3045 1.429 . S
C3029 H3051 0.950 . S
C3030 H3026 0.949 . S
C3030 C3038 1.574 . S
C3030 C3046 1.368 . S
H3031 C3039 0.950 . S
H3032 C3037 0.950 . S
H3033 C3038 0.949 . S
H3034 C3040 0.950 . S
H3035 C3041 0.950 . S
H3036 C3042 0.949 . S
C3037 H3032 0.950 . S
C3037 C3039 1.327 . S
C3037 C3043 1.429 . S
C3038 C3030 1.574 . S
C3038 H3033 0.949 . S
C3038 C3044 1.368 . S
C3039 C3023 1.359 . S
C3039 H3031 0.950 . S
C3039 C3037 1.327 . S
C3040 C3028 1.349 . S
C3040 H3034 0.950 . S
C3040 C3041 1.327 . S
C3041 H3035 0.950 . S
C3041 C3040 1.327 . S
C3041 C3045 1.429 . S
C3042 C3025 1.574 . S
C3042 H3036 0.949 . S
C3042 C3046 1.368 . S
C3043 C3024 1.429 1_554 S
C3043 C3037 1.429 . S
C3043 C3044 1.523 . S
C3044 C3025 1.368 . S
C3044 C3038 1.368 . S
C3044 C3043 1.523 . S
C3045 C3029 1.429 . S
C3045 C3041 1.429 . S
C3045 C3046 1.523 . S
C3046 C3030 1.368 . S
C3046 C3042 1.368 . S
C3046 C3045 1.523 . S
H3047 C3022 0.950 . S
H3048 C3024 0.950 . S
H3049 C3025 0.949 . S
H3050 C3027 0.950 . S
H3051 C3029 0.950 . S
C3052 C3053 1.349 . S
C3052 C3054 1.327 . S
C3052 H3077 0.950 . S
C3053 C3052 1.349 . S
C3053 C3069 1.349 . S
C3054 C3052 1.327 . S
C3054 C3073 1.429 . S
C3054 H3078 0.950 . S
C3055 C3072 1.574 . S
C3055 C3074 1.368 . S
C3055 H3079 0.949 . S
H3056 C3060 0.949 . S
C3057 C3058 1.349 . S
C3057 C3059 1.327 . S
C3057 H3080 0.950 . S
C3058 C3057 1.349 . S
C3058 C3070 1.349 . S
C3059 C3057 1.327 . S
C3059 C3075 1.429 . S
C3059 H3081 0.950 . S
C3060 H3056 0.949 . S
C3060 C3068 1.574 . S
C3060 C3076 1.368 . S
H3061 C3069 0.950 . S
H3062 C3067 0.950 . S
H3063 C3068 0.949 . S
H3064 C3070 0.950 . S
H3065 C3071 0.950 . S
H3066 C3072 0.949 . S
C3067 H3062 0.950 . S
C3067 C3069 1.327 . S
C3067 C3073 1.429 . S
C3068 C3060 1.574 . S
C3068 H3063 0.949 . S
C3068 C3074 1.368 . S
C3069 C3053 1.349 . S
C3069 H3061 0.950 . S
C3069 C3067 1.327 . S
C3070 C3058 1.349 . S
C3070 H3064 0.950 . S
C3070 C3071 1.327 . S
C3071 H3065 0.950 . S
C3071 C3070 1.327 . S
C3071 C3075 1.429 . S
C3072 C3055 1.574 . S
C3072 H3066 0.949 . S
C3072 C3076 1.368 . S
C3073 C3054 1.429 . S
C3073 C3067 1.429 . S
C3073 C3074 1.523 . S
C3074 C3055 1.368 . S
C3074 C3068 1.368 . S
C3074 C3073 1.523 . S
C3075 C3059 1.429 . S
C3075 C3071 1.429 . S
C3075 C3076 1.523 . S
C3076 C3060 1.368 . S
C3076 C3072 1.368 . S
C3076 C3075 1.523 . S
H3077 C3052 0.950 . S
H3078 C3054 0.950 . S
H3079 C3055 0.949 . S
H3080 C3057 0.950 . S
H3081 C3059 0.950 . S
C3082 C3083 1.349 . S
C3082 C3084 1.327 . S
C3082 H3107 0.950 . S
C3083 C3082 1.349 . S
C3083 C3099 1.349 . S
C3084 C3082 1.327 . S
C3084 C3103 1.429 . S
C3084 H3108 0.950 . S
C3085 C3102 1.574 1_545 S
C3085 C3104 1.368 . S
C3085 H3109 0.949 . S
H3086 C3090 0.949 . S
C3087 C3088 1.349 . S
C3087 C3089 1.327 . S
C3087 H3110 0.950 . S
C3088 C3087 1.349 . S
C3088 C3100 1.349 . S
C3089 C3087 1.327 . S
C3089 C3105 1.429 . S
C3089 H3111 0.950 . S
C3090 H3086 0.949 . S
C3090 C3098 1.574 . S
C3090 C3106 1.368 . S
H3091 C3099 0.950 . S
H3092 C3097 0.950 . S
H3093 C3098 0.949 . S
H3094 C3100 0.950 . S
H3095 C3101 0.950 . S
H3096 C3102 0.949 . S
C3097 H3092 0.950 . S
C3097 C3099 1.327 . S
C3097 C3103 1.429 . S
C3098 C3090 1.574 . S
C3098 H3093 0.949 . S
C3098 C3104 1.368 1_565 S
C3099 C3083 1.349 . S
C3099 H3091 0.950 . S
C3099 C3097 1.327 . S
C3100 C3088 1.349 . S
C3100 H3094 0.950 . S
C3100 C3101 1.327 . S
C3101 H3095 0.950 . S
C3101 C3100 1.327 . S
C3101 C3105 1.429 . S
C3102 C3085 1.574 1_565 S
C3102 H3096 0.949 . S
C3102 C3106 1.368 . S
C3103 C3084 1.429 . S
C3103 C3097 1.429 . S
C3103 C3104 1.523 . S
C3104 C3085 1.368 . S
C3104 C3098 1.368 1_545 S
C3104 C3103 1.523 . S
C3105 C3089 1.429 . S
C3105 C3101 1.429 . S
C3105 C3106 1.523 . S
C3106 C3090 1.368 . S
C3106 C3102 1.368 . S
C3106 C3105 1.523 . S
H3107 C3082 0.950 . S
H3108 C3084 0.950 . S
H3109 C3085 0.949 . S
H3110 C3087 0.950 . S
H3111 C3089 0.950 . S
C3112 C3113 1.349 . S
C3112 C3114 1.327 . S
C3112 H3137 0.950 . S
C3113 C3112 1.349 . S
C3113 C3129 1.349 . S
C3114 C3112 1.327 . S
C3114 C3133 1.429 . S
C3114 H3138 0.950 . S
C3115 C3132 1.574 . S
C3115 C3134 1.368 . S
C3115 H3139 0.949 . S
H3116 C3120 0.949 . S
C3117 C3118 1.349 . S
C3117 C3119 1.327 . S
C3117 H3140 0.950 . S
C3118 C3117 1.349 . S
C3118 C3130 1.349 . S
C3119 C3117 1.327 . S
C3119 C3135 1.429 . S
C3119 H3141 0.950 . S
C3120 H3116 0.949 . S
C3120 C3128 1.574 . S
C3120 C3136 1.368 . S
H3121 C3129 0.950 . S
H3122 C3127 0.950 . S
H3123 C3128 0.949 . S
H3124 C3130 0.950 . S
H3125 C3131 0.950 . S
H3126 C3132 0.949 . S
C3127 H3122 0.950 . S
C3127 C3129 1.327 . S
C3127 C3133 1.429 . S
C3128 C3120 1.574 . S
C3128 H3123 0.949 . S
C3128 C3134 1.368 . S
C3129 C3113 1.349 . S
C3129 H3121 0.950 . S
C3129 C3127 1.327 . S
C3130 C3118 1.349 . S
C3130 H3124 0.950 . S
C3130 C3131 1.327 . S
C3131 H3125 0.950 . S
C3131 C3130 1.327 . S
C3131 C3135 1.429 . S
C3132 C3115 1.574 . S
C3132 H3126 0.949 . S
C3132 C3136 1.368 . S
C3133 C3114 1.429 . S
C3133 C3127 1.429 . S
C3133 C3134 1.523 . S
C3134 C3115 1.368 . S
C3134 C3128 1.368 . S
C3134 C3133 1.523 . S
C3135 C3119 1.429 . S
C3135 C3131 1.429 . S
C3135 C3136 1.523 . S
C3136 C3120 1.368 . S
C3136 C3132 1.368 . S
C3136 C3135 1.523 . S
H3137 C3112 0.950 . S
H3138 C3114 0.950 . S
H3139 C3115 0.949 . S
H3140 C3117 0.950 . S
H3141 C3119 0.950 . S
C3142 C3143 1.349 . S
C3142 C3144 1.327 . S
C3142 H3167 0.950 . S
C3143 C3142 1.349 . S
C3143 C3159 1.349 . S
C3144 C3142 1.327 . S
C3144 C3163 1.429 . S
C3144 H3168 0.950 . S
C3145 C3162 1.574 . S
C3145 C3164 1.368 . S
C3145 H3169 0.949 . S
H3146 C3150 0.949 . S
C3147 C3148 1.349 . S
C3147 C3149 1.327 . S
C3147 H3170 0.950 . S
C3148 C3147 1.349 . S
C3148 C3160 1.349 . S
C3149 C3147 1.327 . S
C3149 C3165 1.429 . S
C3149 H3171 0.950 . S
C3150 H3146 0.949 . S
C3150 C3158 1.574 . S
C3150 C3166 1.368 . S
H3151 C3159 0.950 . S
H3152 C3157 0.950 . S
H3153 C3158 0.949 . S
H3154 C3160 0.950 . S
H3155 C3161 0.950 . S
H3156 C3162 0.949 . S
C3157 H3152 0.950 . S
C3157 C3159 1.327 . S
C3157 C3163 1.429 . S
C3158 C3150 1.574 . S
C3158 H3153 0.949 . S
C3158 C3164 1.368 . S
C3159 C3143 1.349 . S
C3159 H3151 0.950 . S
C3159 C3157 1.327 . S
C3160 C3148 1.349 . S
C3160 H3154 0.950 . S
C3160 C3161 1.327 . S
C3161 H3155 0.950 . S
C3161 C3160 1.327 . S
C3161 C3165 1.429 . S
C3162 C3145 1.574 . S
C3162 H3156 0.949 . S
C3162 C3166 1.368 . S
C3163 C3144 1.429 . S
C3163 C3157 1.429 . S
C3163 C3164 1.523 . S
C3164 C3145 1.368 . S
C3164 C3158 1.368 . S
C3164 C3163 1.523 . S
C3165 C3149 1.429 . S
C3165 C3161 1.429 . S
C3165 C3166 1.523 . S
C3166 C3150 1.368 . S
C3166 C3162 1.368 . S
C3166 C3165 1.523 . S
H3167 C3142 0.950 . S
H3168 C3144 0.950 . S
H3169 C3145 0.949 . S
H3170 C3147 0.950 . S
H3171 C3149 0.950 . S
C3172 C3173 1.349 . S
C3172 C3174 1.327 . S
C3172 H3197 0.950 . S
C3173 C3172 1.349 . S
C3173 C3189 1.349 . S
C3174 C3172 1.327 . S
C3174 C3193 1.429 . S
C3174 H3198 0.950 . S
C3175 C3192 1.574 . S
C3175 C3194 1.368 . S
C3175 H3199 0.976 . S
H3176 C3180 0.949 . S
C3177 C3178 1.349 . S
C3177 C3179 1.327 . S
C3177 H3200 0.950 . S
C3178 C3177 1.349 . S
C3178 C3190 1.349 . S
C3179 C3177 1.327 . S
C3179 C3195 1.429 . S
C3179 H3201 0.950 . S
C3180 H3176 0.949 . S
C3180 C3188 1.574 . S
C3180 C3196 1.368 . S
H3181 C3189 0.950 1_655 S
H3182 C3187 0.939 1_655 S
H3183 C3188 0.949 . S
H3184 C3190 0.950 . S
H3185 C3191 0.950 . S
H3186 C3192 0.949 . S
C3187 H3182 0.939 1_455 S
C3187 C3189 1.327 . S
C3187 C3193 1.429 . S
C3188 C3180 1.574 . S
C3188 H3183 0.949 . S
C3188 C3194 1.368 . S
C3189 C3173 1.349 . S
C3189 H3181 0.950 1_455 S
C3189 C3187 1.327 . S
C3190 C3178 1.349 . S
C3190 H3184 0.950 . S
C3190 C3191 1.327 . S
C3191 H3185 0.950 . S
C3191 C3190 1.327 . S
C3191 C3195 1.429 . S
C3192 C3175 1.574 . S
C3192 H3186 0.949 . S
C3192 C3196 1.368 . S
C3193 C3174 1.429 . S
C3193 C3187 1.429 . S
C3193 C3194 1.523 . S
C3194 C3175 1.368 . S
C3194 C3188 1.368 . S
C3194 C3193 1.523 . S
C3195 C3179 1.429 . S
C3195 C3191 1.429 . S
C3195 C3196 1.523 . S
C3196 C3180 1.368 . S
C3196 C3192 1.368 . S
C3196 C3195 1.523 . S
H3197 C3172 0.950 . S
H3198 C3174 0.950 . S
H3199 C3175 0.976 . S
H3200 C3177 0.950 . S
H3201 C3179 0.950 . S
C3202 C3203 1.349 . S
C3202 C3204 1.327 . S
C3202 H3227 0.950 . S
C3203 C3202 1.349 . S
C3203 C3219 1.349 . S
C3204 C3202 1.327 . S
C3204 C3223 1.429 . S
C3204 H3228 0.950 . S
C3205 C3222 1.574 . S
C3205 C3224 1.368 . S
C3205 H3229 0.949 . S
H3206 C3210 0.949 . S
C3207 C3208 1.349 . S
C3207 C3209 1.327 . S
C3207 H3230 0.950 . S
C3208 C3207 1.349 . S
C3208 C3220 1.349 . S
C3209 C3207 1.327 . S
C3209 C3225 1.429 . S
C3209 H3231 0.950 . S
C3210 H3206 0.949 . S
C3210 C3218 1.574 . S
C3210 C3226 1.368 . S
H3211 C3219 0.950 . S
H3212 C3217 0.950 . S
H3213 C3218 0.949 . S
H3214 C3220 0.950 . S
H3215 C3221 0.950 . S
H3216 C3222 0.949 . S
C3217 H3212 0.950 . S
C3217 C3219 1.327 . S
C3217 C3223 1.429 . S
C3218 C3210 1.574 . S
C3218 H3213 0.949 . S
C3218 C3224 1.368 . S
C3219 C3203 1.349 . S
C3219 H3211 0.950 . S
C3219 C3217 1.327 . S
C3220 C3208 1.349 . S
C3220 H3214 0.950 . S
C3220 C3221 1.327 . S
C3221 H3215 0.950 . S
C3221 C3220 1.327 . S
C3221 C3225 1.429 . S
C3222 C3205 1.574 . S
C3222 H3216 0.949 . S
C3222 C3226 1.368 . S
C3223 C3204 1.429 . S
C3223 C3217 1.429 . S
C3223 C3224 1.523 . S
C3224 C3205 1.368 . S
C3224 C3218 1.368 . S
C3224 C3223 1.523 . S
C3225 C3209 1.429 . S
C3225 C3221 1.429 . S
C3225 C3226 1.523 . S
C3226 C3210 1.368 . S
C3226 C3222 1.368 . S
C3226 C3225 1.523 . S
H3227 C3202 0.950 . S
H3228 C3204 0.950 . S
H3229 C3205 0.949 . S
H3230 C3207 0.950 . S
H3231 C3209 0.950 . S
C3232 C3233 1.318 1_554 S
C3232 C3234 1.340 . S
C3232 H3257 0.969 . S
C3233 C3232 1.318 1_556 S
C3233 C3249 1.349 . S
C3234 C3232 1.340 . S
C3234 C3253 1.429 1_554 S
C3234 H3258 0.950 . S
C3235 C3252 1.574 . S
C3235 C3254 1.368 . S
C3235 H3259 0.949 . S
H3236 C3240 0.949 . S
C3237 C3238 1.324 1_556 S
C3237 C3239 1.338 . S
C3237 H3260 0.965 . S
C3238 C3237 1.324 1_554 S
C3238 C3250 1.349 . S
C3239 C3237 1.338 . S
C3239 C3255 1.429 1_556 S
C3239 H3261 0.950 . S
C3240 H3236 0.949 . S
C3240 C3248 1.574 . S
C3240 C3256 1.368 . S
H3241 C3249 0.950 . S
H3242 C3247 0.950 . S
H3243 C3248 0.949 . S
H3244 C3250 0.950 . S
H3245 C3251 0.950 . S
H3246 C3252 0.949 . S
C3247 H3242 0.950 . S
C3247 C3249 1.327 . S
C3247 C3253 1.429 . S
C3248 C3240 1.574 . S
C3248 H3243 0.949 . S
C3248 C3254 1.368 1_554 S
C3249 C3233 1.349 . S
C3249 H3241 0.950 . S
C3249 C3247 1.327 . S
C3250 C3238 1.349 . S
C3250 H3244 0.950 . S
C3250 C3251 1.327 . S
C3251 H3245 0.950 . S
C3251 C3250 1.327 . S
C3251 C3255 1.429 . S
C3252 C3235 1.574 . S
C3252 H3246 0.949 . S
C3252 C3256 1.368 1_556 S
C3253 C3234 1.429 1_556 S
C3253 C3247 1.429 . S
C3253 C3254 1.523 . S
C3254 C3235 1.368 . S
C3254 C3248 1.368 1_556 S
C3254 C3253 1.523 . S
C3255 C3239 1.429 1_554 S
C3255 C3251 1.429 . S
C3255 C3256 1.523 . S
C3256 C3240 1.368 . S
C3256 C3252 1.368 1_554 S
C3256 C3255 1.523 . S
H3257 C3232 0.969 . S
H3258 C3234 0.950 . S
H3259 C3235 0.949 . S
H3260 C3237 0.965 . S
H3261 C3239 0.950 . S
C3262 C3263 1.349 . S
C3262 C3264 1.327 . S
C3262 H3287 0.950 . S
C3263 C3262 1.349 . S
C3263 C3279 1.349 . S
C3264 C3262 1.327 . S
C3264 C3283 1.429 . S
C3264 H3288 0.950 . S
C3265 C3282 1.574 . S
C3265 C3284 1.368 . S
C3265 H3289 0.949 . S
H3266 C3270 0.949 . S
C3267 C3268 1.349 . S
C3267 C3269 1.327 . S
C3267 H3290 0.950 . S
C3268 C3267 1.349 . S
C3268 C3280 1.349 . S
C3269 C3267 1.327 . S
C3269 C3285 1.429 . S
C3269 H3291 0.950 . S
C3270 H3266 0.949 . S
C3270 C3278 1.574 . S
C3270 C3286 1.368 . S
H3271 C3279 0.950 . S
H3272 C3277 0.950 . S
H3273 C3278 0.949 . S
H3274 C3280 0.950 . S
H3275 C3281 0.950 . S
H3276 C3282 0.949 . S
C3277 H3272 0.950 . S
C3277 C3279 1.327 . S
C3277 C3283 1.429 . S
C3278 C3270 1.574 . S
C3278 H3273 0.949 . S
C3278 C3284 1.368 . S
C3279 C3263 1.349 . S
C3279 H3271 0.950 . S
C3279 C3277 1.327 . S
C3280 C3268 1.349 . S
C3280 H3274 0.950 . S
C3280 C3281 1.327 . S
C3281 H3275 0.950 . S
C3281 C3280 1.327 . S
C3281 C3285 1.429 . S
C3282 C3265 1.574 . S
C3282 H3276 0.949 . S
C3282 C3286 1.368 . S
C3283 C3264 1.429 . S
C3283 C3277 1.429 . S
C3283 C3284 1.523 . S
C3284 C3265 1.368 . S
C3284 C3278 1.368 . S
C3284 C3283 1.523 . S
C3285 C3269 1.429 . S
C3285 C3281 1.429 . S
C3285 C3286 1.523 . S
C3286 C3270 1.368 . S
C3286 C3282 1.368 . S
C3286 C3285 1.523 . S
H3287 C3262 0.950 . S
H3288 C3264 0.950 . S
H3289 C3265 0.949 . S
H3290 C3267 0.950 . S
H3291 C3269 0.950 . S
C3292 C3293 1.349 . S
C3292 C3294 1.327 . S
C3292 H3317 0.950 . S
C3293 C3292 1.349 . S
C3293 C3309 1.349 . S
C3294 C3292 1.327 . S
C3294 C3313 1.429 . S
C3294 H3318 0.950 . S
C3295 C3312 1.574 . S
C3295 C3314 1.368 . S
C3295 H3319 0.949 . S
H3296 C3300 0.949 . S
C3297 C3298 1.349 . S
C3297 C3299 1.327 . S
C3297 H3320 0.950 . S
C3298 C3297 1.349 . S
C3298 C3310 1.349 . S
C3299 C3297 1.327 . S
C3299 C3315 1.429 . S
C3299 H3321 0.950 . S
C3300 H3296 0.949 . S
C3300 C3308 1.574 . S
C3300 C3316 1.368 . S
H3301 C3309 0.950 . S
H3302 C3307 0.950 . S
H3303 C3308 0.949 . S
H3304 C3310 0.950 . S
H3305 C3311 0.950 . S
H3306 C3312 0.949 . S
C3307 H3302 0.950 . S
C3307 C3309 1.327 . S
C3307 C3313 1.429 . S
C3308 C3300 1.574 . S
C3308 H3303 0.949 . S
C3308 C3314 1.368 . S
C3309 C3293 1.349 . S
C3309 H3301 0.950 . S
C3309 C3307 1.327 . S
C3310 C3298 1.349 . S
C3310 H3304 0.950 . S
C3310 C3311 1.327 . S
C3311 H3305 0.950 . S
C3311 C3310 1.327 . S
C3311 C3315 1.429 . S
C3312 C3295 1.574 . S
C3312 H3306 0.949 . S
C3312 C3316 1.368 . S
C3313 C3294 1.429 . S
C3313 C3307 1.429 . S
C3313 C3314 1.523 . S
C3314 C3295 1.368 . S
C3314 C3308 1.368 . S
C3314 C3313 1.523 . S
C3315 C3299 1.429 . S
C3315 C3311 1.429 . S
C3315 C3316 1.523 . S
C3316 C3300 1.368 . S
C3316 C3312 1.368 . S
C3316 C3315 1.523 . S
H3317 C3292 0.950 . S
H3318 C3294 0.950 . S
H3319 C3295 0.949 . S
H3320 C3297 0.950 . S
H3321 C3299 0.950 . S
C3322 C3323 1.349 . S
C3322 C3324 1.327 . S
C3322 H3347 0.950 . S
C3323 C3322 1.349 . S
C3323 C3339 1.349 . S
C3324 C3322 1.327 . S
C3324 C3343 1.429 . S
C3324 H3348 0.950 . S
C3325 C3342 1.574 . S
C3325 C3344 1.368 . S
C3325 H3349 0.949 . S
H3326 C3330 0.949 . S
C3327 C3328 1.349 . S
C3327 C3329 1.327 . S
C3327 H3350 0.950 . S
C3328 C3327 1.349 . S
C3328 C3340 1.349 . S
C3329 C3327 1.327 . S
C3329 C3345 1.429 . S
C3329 H3351 0.950 . S
C3330 H3326 0.949 . S
C3330 C3338 1.574 . S
C3330 C3346 1.368 . S
H3331 C3339 0.950 . S
H3332 C3337 0.950 . S
H3333 C3338 0.949 . S
H3334 C3340 0.950 . S
H3335 C3341 0.950 . S
H3336 C3342 0.949 . S
C3337 H3332 0.950 . S
C3337 C3339 1.327 . S
C3337 C3343 1.429 . S
C3338 C3330 1.574 . S
C3338 H3333 0.949 . S
C3338 C3344 1.368 . S
C3339 C3323 1.349 . S
C3339 H3331 0.950 . S
C3339 C3337 1.327 . S
C3340 C3328 1.349 . S
C3340 H3334 0.950 . S
C3340 C3341 1.327 . S
C3341 H3335 0.950 . S
C3341 C3340 1.327 . S
C3341 C3345 1.429 . S
C3342 C3325 1.574 . S
C3342 H3336 0.949 . S
C3342 C3346 1.368 . S
C3343 C3324 1.429 . S
C3343 C3337 1.429 . S
C3343 C3344 1.523 . S
C3344 C3325 1.368 . S
C3344 C3338 1.368 . S
C3344 C3343 1.523 . S
C3345 C3329 1.429 . S
C3345 C3341 1.429 . S
C3345 C3346 1.523 . S
C3346 C3330 1.368 . S
C3346 C3342 1.368 . S
C3346 C3345 1.523 . S
H3347 C3322 0.950 . S
H3348 C3324 0.950 . S
H3349 C3325 0.949 . S
H3350 C3327 0.950 . S
H3351 C3329 0.950 . S
C3352 C3353 1.349 . S
C3352 C3354 1.327 . S
C3352 H3377 0.950 . S
C3353 C3352 1.349 . S
C3353 C3369 1.349 . S
C3354 C3352 1.327 . S
C3354 C3373 1.429 . S
C3354 H3378 0.950 . S
C3355 C3372 1.574 . S
C3355 C3374 1.368 . S
C3355 H3379 0.949 . S
H3356 C3360 0.949 . S
C3357 C3358 1.349 . S
C3357 C3359 1.327 . S
C3357 H3380 0.950 . S
C3358 C3357 1.349 . S
C3358 C3370 1.349 . S
C3359 C3357 1.327 . S
C3359 C3375 1.429 . S
C3359 H3381 0.950 . S
C3360 H3356 0.949 . S
C3360 C3368 1.574 . S
C3360 C3376 1.368 . S
H3361 C3369 0.950 . S
H3362 C3367 0.950 . S
H3363 C3368 0.949 . S
H3364 C3370 0.950 . S
H3365 C3371 0.950 . S
H3366 C3372 0.949 . S
C3367 H3362 0.950 . S
C3367 C3369 1.327 . S
C3367 C3373 1.429 . S
C3368 C3360 1.574 . S
C3368 H3363 0.949 . S
C3368 C3374 1.368 . S
C3369 C3353 1.349 . S
C3369 H3361 0.950 . S
C3369 C3367 1.327 . S
C3370 C3358 1.349 . S
C3370 H3364 0.950 . S
C3370 C3371 1.327 . S
C3371 H3365 0.950 . S
C3371 C3370 1.327 . S
C3371 C3375 1.429 . S
C3372 C3355 1.574 . S
C3372 H3366 0.949 . S
C3372 C3376 1.368 . S
C3373 C3354 1.429 . S
C3373 C3367 1.429 . S
C3373 C3374 1.523 . S
C3374 C3355 1.368 . S
C3374 C3368 1.368 . S
C3374 C3373 1.523 . S
C3375 C3359 1.429 . S
C3375 C3371 1.429 . S
C3375 C3376 1.523 . S
C3376 C3360 1.368 . S
C3376 C3372 1.368 . S
C3376 C3375 1.523 . S
H3377 C3352 0.950 . S
H3378 C3354 0.950 . S
H3379 C3355 0.949 . S
H3380 C3357 0.950 . S
H3381 C3359 0.950 . S
C3382 C3383 1.349 . S
C3382 C3384 1.327 . S
C3382 H3407 0.950 . S
C3383 C3382 1.349 . S
C3383 C3399 1.349 . S
C3384 C3382 1.327 . S
C3384 C3403 1.429 . S
C3384 H3408 0.950 . S
C3385 C3402 1.574 . S
C3385 C3404 1.368 . S
C3385 H3409 0.949 . S
H3386 C3390 0.949 . S
C3387 C3388 1.349 . S
C3387 C3389 1.327 . S
C3387 H3410 0.950 . S
C3388 C3387 1.349 . S
C3388 C3400 1.349 . S
C3389 C3387 1.327 . S
C3389 C3405 1.429 . S
C3389 H3411 0.950 . S
C3390 H3386 0.949 . S
C3390 C3398 1.574 . S
C3390 C3406 1.368 . S
H3391 C3399 0.950 . S
H3392 C3397 0.950 . S
H3393 C3398 0.949 . S
H3394 C3400 0.950 . S
H3395 C3401 0.950 . S
H3396 C3402 0.949 . S
C3397 H3392 0.950 . S
C3397 C3399 1.327 . S
C3397 C3403 1.429 . S
C3398 C3390 1.574 . S
C3398 H3393 0.949 . S
C3398 C3404 1.368 . S
C3399 C3383 1.349 . S
C3399 H3391 0.950 . S
C3399 C3397 1.327 . S
C3400 C3388 1.349 . S
C3400 H3394 0.950 . S
C3400 C3401 1.327 . S
C3401 H3395 0.950 . S
C3401 C3400 1.327 . S
C3401 C3405 1.429 . S
C3402 C3385 1.574 . S
C3402 H3396 0.949 . S
C3402 C3406 1.368 . S
C3403 C3384 1.429 . S
C3403 C3397 1.429 . S
C3403 C3404 1.523 . S
C3404 C3385 1.368 . S
C3404 C3398 1.368 . S
C3404 C3403 1.523 . S
C3405 C3389 1.429 . S
C3405 C3401 1.429 . S
C3405 C3406 1.523 . S
C3406 C3390 1.368 . S
C3406 C3402 1.368 . S
C3406 C3405 1.523 . S
H3407 C3382 0.950 . S
H3408 C3384 0.950 . S
H3409 C3385 0.949 . S
H3410 C3387 0.950 . S
H3411 C3389 0.950 . S
C3412 C3413 1.349 . S
C3412 C3414 1.327 . S
C3412 H3437 0.950 . S
C3413 C3412 1.349 . S
C3413 C3429 1.349 . S
C3414 C3412 1.327 . S
C3414 C3433 1.429 . S
C3414 H3438 0.950 . S
C3415 C3432 1.574 . S
C3415 C3434 1.368 . S
C3415 H3439 0.949 . S
H3416 C3420 0.949 . S
C3417 C3418 1.349 . S
C3417 C3419 1.327 . S
C3417 H3440 0.950 . S
C3418 C3417 1.349 . S
C3418 C3430 1.349 . S
C3419 C3417 1.327 . S
C3419 C3435 1.430 . S
C3419 H3441 0.950 . S
C3420 H3416 0.949 . S
C3420 C3428 1.574 . S
C3420 C3436 1.368 . S
H3421 C3429 0.950 . S
H3422 C3427 0.950 . S
H3423 C3428 0.949 . S
H3424 C3430 0.950 . S
H3425 C3431 0.950 . S
H3426 C3432 0.949 1_455 S
C3427 H3422 0.950 . S
C3427 C3429 1.327 . S
C3427 C3433 1.429 . S
C3428 C3420 1.574 . S
C3428 H3423 0.949 . S
C3428 C3434 1.368 . S
C3429 C3413 1.349 . S
C3429 H3421 0.950 . S
C3429 C3427 1.327 . S
C3430 C3418 1.349 . S
C3430 H3424 0.950 . S
C3430 C3431 1.327 1_455 S
C3431 H3425 0.950 . S
C3431 C3430 1.327 1_655 S
C3431 C3435 1.428 1_655 S
C3432 C3415 1.574 . S
C3432 H3426 0.949 1_655 S
C3432 C3436 1.368 . S
C3433 C3414 1.429 . S
C3433 C3427 1.429 . S
C3433 C3434 1.523 . S
C3434 C3415 1.368 . S
C3434 C3428 1.368 . S
C3434 C3433 1.523 . S
C3435 C3419 1.430 . S
C3435 C3431 1.428 1_455 S
C3435 C3436 1.522 1_455 S
C3436 C3420 1.368 . S
C3436 C3432 1.368 . S
C3436 C3435 1.522 1_655 S
H3437 C3412 0.950 . S
H3438 C3414 0.950 . S
H3439 C3415 0.949 . S
H3440 C3417 0.950 . S
H3441 C3419 0.950 . S
C3442 C3443 1.349 . S
C3442 C3444 1.327 . S
C3442 H3467 0.950 . S
C3443 C3442 1.349 . S
C3443 C3459 1.349 . S
C3444 C3442 1.327 . S
C3444 C3463 1.429 . S
C3444 H3468 0.950 . S
C3445 C3462 1.574 . S
C3445 C3464 1.368 . S
C3445 H3469 0.949 . S
H3446 C3450 0.949 . S
C3447 C3448 1.349 . S
C3447 C3449 1.327 . S
C3447 H3470 0.950 . S
C3448 C3447 1.349 . S
C3448 C3460 1.349 . S
C3449 C3447 1.327 . S
C3449 C3465 1.429 . S
C3449 H3471 0.950 . S
C3450 H3446 0.949 . S
C3450 C3458 1.574 . S
C3450 C3466 1.368 . S
H3451 C3459 0.950 . S
H3452 C3457 0.950 . S
H3453 C3458 0.949 . S
H3454 C3460 0.950 . S
H3455 C3461 0.950 . S
H3456 C3462 0.949 . S
C3457 H3452 0.950 . S
C3457 C3459 1.327 . S
C3457 C3463 1.429 . S
C3458 C3450 1.574 . S
C3458 H3453 0.949 . S
C3458 C3464 1.368 . S
C3459 C3443 1.349 . S
C3459 H3451 0.950 . S
C3459 C3457 1.327 . S
C3460 C3448 1.349 . S
C3460 H3454 0.950 . S
C3460 C3461 1.327 . S
C3461 H3455 0.950 . S
C3461 C3460 1.327 . S
C3461 C3465 1.429 . S
C3462 C3445 1.574 . S
C3462 H3456 0.949 . S
C3462 C3466 1.368 . S
C3463 C3444 1.429 . S
C3463 C3457 1.429 . S
C3463 C3464 1.523 . S
C3464 C3445 1.368 . S
C3464 C3458 1.368 . S
C3464 C3463 1.523 . S
C3465 C3449 1.429 . S
C3465 C3461 1.429 . S
C3465 C3466 1.523 . S
C3466 C3450 1.368 . S
C3466 C3462 1.368 . S
C3466 C3465 1.523 . S
H3467 C3442 0.950 . S
H3468 C3444 0.950 . S
H3469 C3445 0.949 . S
H3470 C3447 0.950 . S
H3471 C3449 0.950 . S
C3472 C3473 1.349 . S
C3472 C3474 1.327 . S
C3472 H3497 0.950 . S
C3473 C3472 1.349 . S
C3473 C3489 1.349 . S
C3474 C3472 1.327 . S
C3474 C3493 1.429 . S
C3474 H3498 0.950 . S
C3475 C3492 1.574 . S
C3475 C3494 1.368 . S
C3475 H3499 0.949 . S
H3476 C3480 0.949 . S
C3477 C3478 1.349 . S
C3477 C3479 1.327 . S
C3477 H3500 0.950 . S
C3478 C3477 1.349 . S
C3478 C3490 1.349 . S
C3479 C3477 1.327 . S
C3479 C3495 1.429 . S
C3479 H3501 0.950 . S
C3480 H3476 0.949 . S
C3480 C3488 1.574 . S
C3480 C3496 1.368 . S
H3481 C3489 0.950 . S
H3482 C3487 0.950 . S
H3483 C3488 0.949 . S
H3484 C3490 0.950 . S
H3485 C3491 0.950 . S
H3486 C3492 0.949 . S
C3487 H3482 0.950 . S
C3487 C3489 1.327 . S
C3487 C3493 1.429 . S
C3488 C3480 1.574 . S
C3488 H3483 0.949 . S
C3488 C3494 1.368 . S
C3489 C3473 1.349 . S
C3489 H3481 0.950 . S
C3489 C3487 1.327 . S
C3490 C3478 1.349 . S
C3490 H3484 0.950 . S
C3490 C3491 1.327 . S
C3491 H3485 0.950 . S
C3491 C3490 1.327 . S
C3491 C3495 1.429 . S
C3492 C3475 1.574 . S
C3492 H3486 0.949 . S
C3492 C3496 1.368 . S
C3493 C3474 1.429 . S
C3493 C3487 1.429 . S
C3493 C3494 1.523 . S
C3494 C3475 1.368 . S
C3494 C3488 1.368 . S
C3494 C3493 1.523 . S
C3495 C3479 1.429 . S
C3495 C3491 1.429 . S
C3495 C3496 1.523 . S
C3496 C3480 1.368 . S
C3496 C3492 1.368 . S
C3496 C3495 1.523 . S
H3497 C3472 0.950 . S
H3498 C3474 0.950 . S
H3499 C3475 0.949 . S
H3500 C3477 0.950 . S
H3501 C3479 0.950 . S
C3502 C3503 1.349 1_556 S
C3502 C3504 1.327 . S
C3502 H3527 0.950 . S
C3503 C3502 1.349 1_554 S
C3503 C3519 1.349 . S
C3504 C3502 1.327 . S
C3504 C3523 1.429 . S
C3504 H3528 0.950 . S
C3505 C3522 1.574 . S
C3505 C3524 1.368 . S
C3505 H3529 0.949 . S
H3506 C3510 0.949 . S
C3507 C3508 1.349 . S
C3507 C3509 1.327 . S
C3507 H3530 0.950 . S
C3508 C3507 1.349 . S
C3508 C3520 1.349 . S
C3509 C3507 1.327 . S
C3509 C3525 1.429 . S
C3509 H3531 0.950 . S
C3510 H3506 0.949 . S
C3510 C3518 1.574 . S
C3510 C3526 1.368 . S
H3511 C3519 0.950 . S
H3512 C3517 0.950 . S
H3513 C3518 0.949 . S
H3514 C3520 0.950 . S
H3515 C3521 0.950 . S
H3516 C3522 0.949 . S
C3517 H3512 0.950 . S
C3517 C3519 1.327 1_556 S
C3517 C3523 1.429 . S
C3518 C3510 1.574 . S
C3518 H3513 0.949 . S
C3518 C3524 1.368 . S
C3519 C3503 1.349 . S
C3519 H3511 0.950 . S
C3519 C3517 1.327 1_554 S
C3520 C3508 1.349 . S
C3520 H3514 0.950 . S
C3520 C3521 1.327 . S
C3521 H3515 0.950 . S
C3521 C3520 1.327 . S
C3521 C3525 1.429 . S
C3522 C3505 1.574 . S
C3522 H3516 0.949 . S
C3522 C3526 1.368 . S
C3523 C3504 1.429 . S
C3523 C3517 1.429 . S
C3523 C3524 1.523 . S
C3524 C3505 1.368 . S
C3524 C3518 1.368 . S
C3524 C3523 1.523 . S
C3525 C3509 1.429 . S
C3525 C3521 1.429 . S
C3525 C3526 1.523 . S
C3526 C3510 1.368 . S
C3526 C3522 1.368 . S
C3526 C3525 1.523 . S
H3527 C3502 0.950 . S
H3528 C3504 0.950 . S
H3529 C3505 0.949 . S
H3530 C3507 0.950 . S
H3531 C3509 0.950 . S
C3532 C3533 1.349 . S
C3532 C3534 1.327 . S
C3532 H3557 0.950 . S
C3533 C3532 1.349 . S
C3533 C3549 1.349 . S
C3534 C3532 1.327 . S
C3534 C3553 1.429 . S
C3534 H3558 0.950 . S
C3535 C3552 1.574 . S
C3535 C3554 1.368 . S
C3535 H3559 0.949 . S
H3536 C3540 0.949 . S
C3537 C3538 1.349 . S
C3537 C3539 1.327 . S
C3537 H3560 0.950 . S
C3538 C3537 1.349 . S
C3538 C3550 1.349 1_455 S
C3539 C3537 1.327 . S
C3539 C3555 1.429 1_455 S
C3539 H3561 0.950 . S
C3540 H3536 0.949 . S
C3540 C3548 1.574 . S
C3540 C3556 1.368 . S
H3541 C3549 0.950 . S
H3542 C3547 0.950 . S
H3543 C3548 0.949 . S
H3544 C3550 0.950 . S
H3545 C3551 0.950 . S
H3546 C3552 0.949 1_455 S
C3547 H3542 0.950 . S
C3547 C3549 1.327 . S
C3547 C3553 1.429 . S
C3548 C3540 1.574 . S
C3548 H3543 0.949 . S
C3548 C3554 1.368 . S
C3549 C3533 1.349 . S
C3549 H3541 0.950 . S
C3549 C3547 1.327 . S
C3550 C3538 1.349 1_655 S
C3550 H3544 0.950 . S
C3550 C3551 1.327 . S
C3551 H3545 0.950 . S
C3551 C3550 1.327 . S
C3551 C3555 1.429 . S
C3552 C3535 1.574 . S
C3552 H3546 0.949 1_655 S
C3552 C3556 1.368 . S
C3553 C3534 1.429 . S
C3553 C3547 1.429 . S
C3553 C3554 1.523 . S
C3554 C3535 1.368 . S
C3554 C3548 1.368 . S
C3554 C3553 1.523 . S
C3555 C3539 1.429 1_655 S
C3555 C3551 1.429 . S
C3555 C3556 1.523 . S
C3556 C3540 1.368 . S
C3556 C3552 1.368 . S
C3556 C3555 1.523 . S
H3557 C3532 0.950 . S
H3558 C3534 0.950 . S
H3559 C3535 0.949 . S
H3560 C3537 0.950 . S
H3561 C3539 0.950 . S
C3562 C3563 1.349 . S
C3562 C3564 1.327 . S
C3562 H3587 0.950 . S
C3563 C3562 1.349 . S
C3563 C3579 1.349 . S
C3564 C3562 1.327 . S
C3564 C3583 1.429 . S
C3564 H3588 0.950 . S
C3565 C3582 1.574 . S
C3565 C3584 1.368 . S
C3565 H3589 0.949 . S
H3566 C3570 0.949 . S
C3567 C3568 1.349 . S
C3567 C3569 1.327 . S
C3567 H3590 0.950 . S
C3568 C3567 1.349 . S
C3568 C3580 1.349 . S
C3569 C3567 1.327 . S
C3569 C3585 1.429 . S
C3569 H3591 0.950 . S
C3570 H3566 0.949 . S
C3570 C3578 1.574 . S
C3570 C3586 1.368 . S
H3571 C3579 0.950 . S
H3572 C3577 0.950 . S
H3573 C3578 0.949 . S
H3574 C3580 0.950 . S
H3575 C3581 0.950 . S
H3576 C3582 0.949 . S
C3577 H3572 0.950 . S
C3577 C3579 1.327 . S
C3577 C3583 1.429 . S
C3578 C3570 1.574 . S
C3578 H3573 0.949 . S
C3578 C3584 1.368 . S
C3579 C3563 1.349 . S
C3579 H3571 0.950 . S
C3579 C3577 1.327 . S
C3580 C3568 1.349 . S
C3580 H3574 0.950 . S
C3580 C3581 1.327 . S
C3581 H3575 0.950 . S
C3581 C3580 1.327 . S
C3581 C3585 1.429 . S
C3582 C3565 1.574 . S
C3582 H3576 0.949 . S
C3582 C3586 1.368 . S
C3583 C3564 1.429 . S
C3583 C3577 1.429 . S
C3583 C3584 1.523 . S
C3584 C3565 1.368 . S
C3584 C3578 1.368 . S
C3584 C3583 1.523 . S
C3585 C3569 1.429 . S
C3585 C3581 1.429 . S
C3585 C3586 1.523 . S
C3586 C3570 1.368 . S
C3586 C3582 1.368 . S
C3586 C3585 1.523 . S
H3587 C3562 0.950 . S
H3588 C3564 0.950 . S
H3589 C3565 0.949 . S
H3590 C3567 0.950 . S
H3591 C3569 0.950 . S
C3592 C3593 1.349 . S
C3592 C3594 1.327 . S
C3592 H3617 0.950 . S
C3593 C3592 1.349 . S
C3593 C3609 1.349 . S
C3594 C3592 1.327 . S
C3594 C3613 1.429 . S
C3594 H3618 0.950 . S
C3595 C3612 1.574 . S
C3595 C3614 1.368 . S
C3595 H3619 0.949 . S
H3596 C3600 0.949 . S
C3597 C3598 1.349 . S
C3597 C3599 1.327 . S
C3597 H3620 0.950 . S
C3598 C3597 1.349 . S
C3598 C3610 1.349 . S
C3599 C3597 1.327 . S
C3599 C3615 1.429 . S
C3599 H3621 0.950 . S
C3600 H3596 0.949 . S
C3600 C3608 1.574 . S
C3600 C3616 1.368 . S
H3601 C3609 0.950 . S
H3602 C3607 0.950 . S
H3603 C3608 0.949 . S
H3604 C3610 0.950 . S
H3605 C3611 0.950 . S
H3606 C3612 0.949 . S
C3607 H3602 0.950 . S
C3607 C3609 1.327 . S
C3607 C3613 1.429 . S
C3608 C3600 1.574 . S
C3608 H3603 0.949 . S
C3608 C3614 1.368 . S
C3609 C3593 1.349 . S
C3609 H3601 0.950 . S
C3609 C3607 1.327 . S
C3610 C3598 1.349 . S
C3610 H3604 0.950 . S
C3610 C3611 1.327 . S
C3611 H3605 0.950 . S
C3611 C3610 1.327 . S
C3611 C3615 1.429 . S
C3612 C3595 1.574 . S
C3612 H3606 0.949 . S
C3612 C3616 1.368 . S
C3613 C3594 1.429 . S
C3613 C3607 1.429 . S
C3613 C3614 1.523 . S
C3614 C3595 1.368 . S
C3614 C3608 1.368 . S
C3614 C3613 1.523 . S
C3615 C3599 1.429 . S
C3615 C3611 1.429 . S
C3615 C3616 1.523 . S
C3616 C3600 1.368 . S
C3616 C3612 1.368 . S
C3616 C3615 1.523 . S
H3617 C3592 0.950 . S
H3618 C3594 0.950 . S
H3619 C3595 0.949 . S
H3620 C3597 0.950 . S
H3621 C3599 0.950 . S
C3622 C3623 1.349 1_545 S
C3622 C3624 1.327 . S
C3622 H3647 0.950 . S
C3623 C3622 1.349 1_565 S
C3623 C3639 1.349 . S
C3624 C3622 1.327 . S
C3624 C3643 1.429 . S
C3624 H3648 0.950 . S
C3625 C3642 1.574 . S
C3625 C3644 1.368 . S
C3625 H3649 0.949 1_545 S
H3626 C3630 0.949 . S
C3627 C3628 1.349 . S
C3627 C3629 1.327 . S
C3627 H3650 0.950 . S
C3628 C3627 1.349 . S
C3628 C3640 1.349 . S
C3629 C3627 1.327 . S
C3629 C3645 1.429 . S
C3629 H3651 0.950 . S
C3630 H3626 0.949 . S
C3630 C3638 1.574 . S
C3630 C3646 1.368 . S
H3631 C3639 0.950 . S
H3632 C3637 0.950 . S
H3633 C3638 0.949 . S
H3634 C3640 0.950 . S
H3635 C3641 0.950 . S
H3636 C3642 0.949 . S
C3637 H3632 0.950 . S
C3637 C3639 1.327 . S
C3637 C3643 1.429 1_565 S
C3638 C3630 1.574 . S
C3638 H3633 0.949 . S
C3638 C3644 1.368 . S
C3639 C3623 1.349 . S
C3639 H3631 0.950 . S
C3639 C3637 1.327 . S
C3640 C3628 1.349 . S
C3640 H3634 0.950 . S
C3640 C3641 1.327 . S
C3641 H3635 0.950 . S
C3641 C3640 1.327 . S
C3641 C3645 1.429 . S
C3642 C3625 1.574 . S
C3642 H3636 0.949 . S
C3642 C3646 1.368 . S
C3643 C3624 1.429 . S
C3643 C3637 1.429 1_545 S
C3643 C3644 1.523 . S
C3644 C3625 1.368 . S
C3644 C3638 1.368 . S
C3644 C3643 1.523 . S
C3645 C3629 1.429 . S
C3645 C3641 1.429 . S
C3645 C3646 1.523 . S
C3646 C3630 1.368 . S
C3646 C3642 1.368 . S
C3646 C3645 1.523 . S
H3647 C3622 0.950 . S
H3648 C3624 0.950 . S
H3649 C3625 0.949 1_565 S
H3650 C3627 0.950 . S
H3651 C3629 0.950 . S
C3652 C3653 1.349 . S
C3652 C3654 1.327 . S
C3652 H3677 0.950 . S
C3653 C3652 1.349 . S
C3653 C3669 1.349 . S
C3654 C3652 1.327 . S
C3654 C3673 1.429 . S
C3654 H3678 0.950 . S
C3655 C3672 1.574 . S
C3655 C3674 1.368 . S
C3655 H3679 0.949 . S
H3656 C3660 0.949 . S
C3657 C3658 1.349 . S
C3657 C3659 1.327 . S
C3657 H3680 0.950 . S
C3658 C3657 1.349 . S
C3658 C3670 1.349 . S
C3659 C3657 1.327 . S
C3659 C3675 1.429 . S
C3659 H3681 0.950 . S
C3660 H3656 0.949 . S
C3660 C3668 1.574 . S
C3660 C3676 1.368 . S
H3661 C3669 0.950 . S
H3662 C3667 0.950 . S
H3663 C3668 0.949 . S
H3664 C3670 0.950 . S
H3665 C3671 0.950 . S
H3666 C3672 0.949 . S
C3667 H3662 0.950 . S
C3667 C3669 1.327 . S
C3667 C3673 1.429 . S
C3668 C3660 1.574 . S
C3668 H3663 0.949 . S
C3668 C3674 1.368 . S
C3669 C3653 1.349 . S
C3669 H3661 0.950 . S
C3669 C3667 1.327 . S
C3670 C3658 1.349 . S
C3670 H3664 0.950 . S
C3670 C3671 1.327 . S
C3671 H3665 0.950 . S
C3671 C3670 1.327 . S
C3671 C3675 1.429 . S
C3672 C3655 1.574 . S
C3672 H3666 0.949 . S
C3672 C3676 1.368 . S
C3673 C3654 1.429 . S
C3673 C3667 1.429 . S
C3673 C3674 1.523 . S
C3674 C3655 1.368 . S
C3674 C3668 1.368 . S
C3674 C3673 1.523 . S
C3675 C3659 1.429 . S
C3675 C3671 1.429 . S
C3675 C3676 1.523 . S
C3676 C3660 1.368 . S
C3676 C3672 1.368 . S
C3676 C3675 1.523 . S
H3677 C3652 0.950 . S
H3678 C3654 0.950 . S
H3679 C3655 0.949 . S
H3680 C3657 0.950 . S
H3681 C3659 0.950 . S
C3682 C3683 1.349 . S
C3682 C3684 1.327 . S
C3682 H3707 0.950 . S
C3683 C3682 1.349 . S
C3683 C3699 1.349 . S
C3684 C3682 1.327 . S
C3684 C3703 1.429 . S
C3684 H3708 0.950 . S
C3685 C3702 1.574 . S
C3685 C3704 1.368 . S
C3685 H3709 0.949 . S
H3686 C3690 0.949 . S
C3687 C3688 1.349 . S
C3687 C3689 1.327 . S
C3687 H3710 0.950 . S
C3688 C3687 1.349 . S
C3688 C3700 1.349 . S
C3689 C3687 1.327 . S
C3689 C3705 1.429 . S
C3689 H3711 0.950 . S
C3690 H3686 0.949 . S
C3690 C3698 1.574 . S
C3690 C3706 1.368 . S
H3691 C3699 0.950 . S
H3692 C3697 0.950 . S
H3693 C3698 0.949 . S
H3694 C3700 0.950 . S
H3695 C3701 0.950 . S
H3696 C3702 0.949 . S
C3697 H3692 0.950 . S
C3697 C3699 1.327 . S
C3697 C3703 1.429 . S
C3698 C3690 1.574 . S
C3698 H3693 0.949 . S
C3698 C3704 1.368 . S
C3699 C3683 1.349 . S
C3699 H3691 0.950 . S
C3699 C3697 1.327 . S
C3700 C3688 1.349 . S
C3700 H3694 0.950 . S
C3700 C3701 1.327 . S
C3701 H3695 0.950 . S
C3701 C3700 1.327 . S
C3701 C3705 1.429 . S
C3702 C3685 1.574 . S
C3702 H3696 0.949 . S
C3702 C3706 1.368 . S
C3703 C3684 1.429 . S
C3703 C3697 1.429 . S
C3703 C3704 1.523 . S
C3704 C3685 1.368 . S
C3704 C3698 1.368 . S
C3704 C3703 1.523 . S
C3705 C3689 1.429 . S
C3705 C3701 1.429 . S
C3705 C3706 1.523 . S
C3706 C3690 1.368 . S
C3706 C3702 1.368 . S
C3706 C3705 1.523 . S
H3707 C3682 0.950 . S
H3708 C3684 0.950 . S
H3709 C3685 0.949 . S
H3710 C3687 0.950 . S
H3711 C3689 0.950 . S
C3712 C3713 1.349 . S
C3712 C3714 1.327 . S
C3712 H3737 0.950 . S
C3713 C3712 1.349 . S
C3713 C3729 1.349 . S
C3714 C3712 1.327 . S
C3714 C3733 1.429 . S
C3714 H3738 0.950 . S
C3715 C3732 1.574 . S
C3715 C3734 1.368 . S
C3715 H3739 0.949 . S
H3716 C3720 0.949 . S
C3717 C3718 1.349 . S
C3717 C3719 1.327 . S
C3717 H3740 0.950 . S
C3718 C3717 1.349 . S
C3718 C3730 1.349 . S
C3719 C3717 1.327 . S
C3719 C3735 1.429 . S
C3719 H3741 0.950 . S
C3720 H3716 0.949 . S
C3720 C3728 1.574 . S
C3720 C3736 1.368 . S
H3721 C3729 0.950 . S
H3722 C3727 0.950 . S
H3723 C3728 0.949 . S
H3724 C3730 0.950 . S
H3725 C3731 0.950 . S
H3726 C3732 0.949 . S
C3727 H3722 0.950 . S
C3727 C3729 1.327 . S
C3727 C3733 1.429 . S
C3728 C3720 1.574 . S
C3728 H3723 0.949 . S
C3728 C3734 1.368 . S
C3729 C3713 1.349 . S
C3729 H3721 0.950 . S
C3729 C3727 1.327 . S
C3730 C3718 1.349 . S
C3730 H3724 0.950 . S
C3730 C3731 1.327 . S
C3731 H3725 0.950 . S
C3731 C3730 1.327 . S
C3731 C3735 1.429 . S
C3732 C3715 1.574 . S
C3732 H3726 0.949 . S
C3732 C3736 1.368 . S
C3733 C3714 1.429 . S
C3733 C3727 1.429 . S
C3733 C3734 1.523 . S
C3734 C3715 1.368 . S
C3734 C3728 1.368 . S
C3734 C3733 1.523 . S
C3735 C3719 1.429 . S
C3735 C3731 1.429 . S
C3735 C3736 1.523 . S
C3736 C3720 1.368 . S
C3736 C3732 1.368 . S
C3736 C3735 1.523 . S
H3737 C3712 0.950 . S
H3738 C3714 0.950 . S
H3739 C3715 0.949 . S
H3740 C3717 0.950 . S
H3741 C3719 0.950 . S
C3742 C3743 1.349 . S
C3742 C3744 1.327 . S
C3742 H3767 0.950 . S
C3743 C3742 1.349 . S
C3743 C3759 1.349 . S
C3744 C3742 1.327 . S
C3744 C3763 1.429 . S
C3744 H3768 0.950 . S
C3745 C3762 1.574 . S
C3745 C3764 1.368 . S
C3745 H3769 0.949 . S
H3746 C3750 0.949 . S
C3747 C3748 1.349 . S
C3747 C3749 1.327 . S
C3747 H3770 0.950 1_554 S
C3748 C3747 1.349 . S
C3748 C3760 1.349 . S
C3749 C3747 1.327 . S
C3749 C3765 1.429 . S
C3749 H3771 0.950 . S
C3750 H3746 0.949 . S
C3750 C3758 1.574 . S
C3750 C3766 1.368 . S
H3751 C3759 0.950 . S
H3752 C3757 0.950 . S
H3753 C3758 0.949 . S
H3754 C3760 0.950 . S
H3755 C3761 0.950 . S
H3756 C3762 0.949 . S
C3757 H3752 0.950 . S
C3757 C3759 1.327 . S
C3757 C3763 1.429 . S
C3758 C3750 1.574 . S
C3758 H3753 0.949 . S
C3758 C3764 1.368 . S
C3759 C3743 1.349 . S
C3759 H3751 0.950 . S
C3759 C3757 1.327 . S
C3760 C3748 1.349 . S
C3760 H3754 0.950 . S
C3760 C3761 1.327 . S
C3761 H3755 0.950 . S
C3761 C3760 1.327 . S
C3761 C3765 1.429 . S
C3762 C3745 1.574 . S
C3762 H3756 0.949 . S
C3762 C3766 1.368 . S
C3763 C3744 1.429 . S
C3763 C3757 1.429 . S
C3763 C3764 1.523 . S
C3764 C3745 1.368 . S
C3764 C3758 1.368 . S
C3764 C3763 1.523 . S
C3765 C3749 1.429 . S
C3765 C3761 1.429 . S
C3765 C3766 1.523 . S
C3766 C3750 1.368 . S
C3766 C3762 1.368 . S
C3766 C3765 1.523 . S
H3767 C3742 0.950 . S
H3768 C3744 0.950 . S
H3769 C3745 0.949 . S
H3770 C3747 0.950 1_556 S
H3771 C3749 0.950 . S
C3772 C3773 1.349 1_565 S
C3772 C3774 1.327 . S
C3772 H3797 0.950 . S
C3773 C3772 1.349 1_545 S
C3773 C3789 1.349 . S
C3774 C3772 1.327 . S
C3774 C3793 1.429 . S
C3774 H3798 0.950 . S
C3775 C3792 1.574 . S
C3775 C3794 1.368 . S
C3775 H3799 0.949 . S
H3776 C3780 0.949 . S
C3777 C3778 1.349 . S
C3777 C3779 1.327 . S
C3777 H3800 0.950 . S
C3778 C3777 1.349 . S
C3778 C3790 1.349 . S
C3779 C3777 1.327 . S
C3779 C3795 1.429 . S
C3779 H3801 0.950 . S
C3780 H3776 0.949 . S
C3780 C3788 1.574 . S
C3780 C3796 1.368 . S
H3781 C3789 0.950 . S
H3782 C3787 0.950 . S
H3783 C3788 0.949 . S
H3784 C3790 0.950 . S
H3785 C3791 0.950 . S
H3786 C3792 0.949 . S
C3787 H3782 0.950 . S
C3787 C3789 1.327 1_565 S
C3787 C3793 1.429 . S
C3788 C3780 1.574 . S
C3788 H3783 0.949 . S
C3788 C3794 1.368 . S
C3789 C3773 1.349 . S
C3789 H3781 0.950 . S
C3789 C3787 1.327 1_545 S
C3790 C3778 1.349 . S
C3790 H3784 0.950 . S
C3790 C3791 1.327 . S
C3791 H3785 0.950 . S
C3791 C3790 1.327 . S
C3791 C3795 1.429 . S
C3792 C3775 1.574 . S
C3792 H3786 0.949 . S
C3792 C3796 1.368 . S
C3793 C3774 1.429 . S
C3793 C3787 1.429 . S
C3793 C3794 1.523 . S
C3794 C3775 1.368 . S
C3794 C3788 1.368 . S
C3794 C3793 1.523 . S
C3795 C3779 1.429 . S
C3795 C3791 1.429 . S
C3795 C3796 1.523 . S
C3796 C3780 1.368 . S
C3796 C3792 1.368 . S
C3796 C3795 1.523 . S
H3797 C3772 0.950 . S
H3798 C3774 0.950 . S
H3799 C3775 0.949 . S
H3800 C3777 0.950 . S
H3801 C3779 0.950 . S
C3802 C3803 1.349 . S
C3802 C3804 1.327 . S
C3802 H3827 0.950 . S
C3803 C3802 1.349 . S
C3803 C3819 1.349 . S
C3804 C3802 1.327 . S
C3804 C3823 1.429 . S
C3804 H3828 0.950 . S
C3805 C3822 1.574 . S
C3805 C3824 1.368 . S
C3805 H3829 0.949 . S
H3806 C3810 0.949 . S
C3807 C3808 1.349 . S
C3807 C3809 1.327 . S
C3807 H3830 0.950 . S
C3808 C3807 1.349 . S
C3808 C3820 1.349 . S
C3809 C3807 1.327 . S
C3809 C3825 1.429 . S
C3809 H3831 0.950 . S
C3810 H3806 0.949 . S
C3810 C3818 1.574 . S
C3810 C3826 1.368 . S
H3811 C3819 0.950 . S
H3812 C3817 0.950 . S
H3813 C3818 0.949 . S
H3814 C3820 0.950 . S
H3815 C3821 0.950 . S
H3816 C3822 0.949 . S
C3817 H3812 0.950 . S
C3817 C3819 1.327 . S
C3817 C3823 1.429 . S
C3818 C3810 1.574 . S
C3818 H3813 0.949 . S
C3818 C3824 1.368 . S
C3819 C3803 1.349 . S
C3819 H3811 0.950 . S
C3819 C3817 1.327 . S
C3820 C3808 1.349 . S
C3820 H3814 0.950 . S
C3820 C3821 1.327 . S
C3821 H3815 0.950 . S
C3821 C3820 1.327 . S
C3821 C3825 1.429 . S
C3822 C3805 1.574 . S
C3822 H3816 0.949 . S
C3822 C3826 1.368 . S
C3823 C3804 1.429 . S
C3823 C3817 1.429 . S
C3823 C3824 1.523 . S
C3824 C3805 1.368 . S
C3824 C3818 1.368 . S
C3824 C3823 1.523 . S
C3825 C3809 1.429 . S
C3825 C3821 1.429 . S
C3825 C3826 1.523 . S
C3826 C3810 1.368 . S
C3826 C3822 1.368 . S
C3826 C3825 1.523 . S
H3827 C3802 0.950 . S
H3828 C3804 0.950 . S
H3829 C3805 0.949 . S
H3830 C3807 0.950 . S
H3831 C3809 0.950 . S
C953 C101 1.131 . S
C958 C318 1.110 . S
C983 C57 1.876 . S
C988 C370 1.839 . S
C1013 C73 1.273 . S
C1018 C402 1.325 . S
C1048 C451 2.570 . S
C1043 C78 2.522 . S
C1073 C21 0.910 . S
C1078 C487 0.932 . S
C1108 C518 0.286 . S
C1103 C31 0.290 . S
C1138 C570 0.432 . S
C1133 C49 0.324 . S
C1163 C0 0.764 . S
C1168 C598 0.764 . S
C1198 C330 1.826 1_655 S
C1193 C218 1.946 . S
C1223 C229 1.413 . S
C1228 C371 1.500 . S
C1258 C401 1.922 . S
C1253 C257 2.040 1_545 S
C1288 C438 0.336 . S
C1283 C164 0.292 . S
C1313 C216 1.742 . S
C1318 C482 1.834 1_655 S
C1348 C530 1.956 . S
C1343 C231 2.005 . S
C1378 C571 1.463 . S
C1373 C255 1.371 . S
C1408 C610 1.435 . S
C1403 C166 1.534 . S
C1438 C331 2.217 . S
C1433 C143 2.185 . S
C1463 C265 1.669 . S
C1468 C641 1.688 . S
C1498 C691 2.371 . S
C1493 C299 2.317 . S
C1528 C718 0.975 . S
C1523 C291 0.969 . S
C1553 C104 2.297 . S
C1558 C611 2.313 . S
C1583 C117 0.872 . S
C1588 C407 0.889 . S
C1613 C304 2.384 . S
C1618 C770 2.350 . S
C1648 C798 0.878 . S
C1643 C278 0.891 . S
C1678 C327 1.117 . S
C1673 C60 1.143 . S
C1708 C801 1.763 . S
C1703 C96 1.816 . S
C1733 C88 1.230 . S
C1738 C411 1.239 . S
C1763 C65 2.340 . S
C1768 C762 2.435 . S
C1798 C478 0.839 1_655 S
C1793 C10 0.859 . S
C1823 C44 0.230 . S
C1828 C687 0.333 . S
C1858 C561 0.440 . S
C1853 C34 0.497 . S
C1888 C847 0.901 . S
C1883 C13 0.944 . S
C1918 C321 1.762 1_556 S
C1913 C138 1.866 . S
C1948 C802 1.378 . S
C1943 C296 1.367 . S
C1973 C112 1.819 . S
C1978 C410 1.807 . S
C2003 C270 0.251 . S
C2008 C767 0.346 . S
C2033 C140 1.720 . S
C2038 C491 1.728 . S
C2068 C681 1.904 . S
C2063 C294 1.845 . S
C2093 C114 1.315 . S
C2098 C562 1.323 . S
C2123 C268 1.600 . S
C2128 C841 1.455 . S
C2153 C169 2.125 . S
C2158 C322 2.145 . S
C2183 C161 1.564 . S
C2188 C650 1.528 . S
C2213 C234 2.242 . S
C2218 C522 2.257 . S
C2243 C226 0.875 . S
C2248 C727 0.884 . S
C2278 C842 2.291 . S
C2273 C247 2.295 . S
C2303 C195 0.857 . S
C2308 C398 0.835 . S
C2338 C441 2.255 . S
C2333 C239 2.322 . S
C2368 C367 0.810 . S
C2363 C187 0.815 . S
C2393 C75 1.130 . S
C2398 C878 1.109 . S
C2428 C810 1.839 . S
C2423 C83 1.876 . S
C2453 C99 1.273 . S
C2458 C922 1.325 . S
C2483 C52 2.522 . S
C2488 C771 2.570 . S
C2513 C47 0.910 . S
C2518 C647 0.932 . S
C2548 C678 0.286 . S
C2543 C5 0.290 . S
C2578 C730 0.432 . S
C2573 C23 0.324 . S
C2608 C838 0.764 . S
C2603 C26 0.764 . S
C2638 C890 1.826 . S
C2633 C244 1.946 . S
C2663 C177 1.413 1_556 S
C2668 C811 1.500 . S
C2698 C921 1.922 . S
C2693 C192 2.040 . S
C2728 C758 0.336 . S
C2723 C203 0.292 . S
C2758 C642 1.834 1_556 S
C2753 C242 1.742 . S
C2783 C179 2.005 . S
C2788 C690 1.956 . S
C2818 C731 1.452 . S
C2813 C190 1.371 . S
C2843 C205 1.534 . S
C2848 C850 1.435 . S
C2878 C891 2.217 . S
C2873 C286 2.185 . S
C2903 C122 1.668 . S
C2908 C481 1.691 . S
C2938 C531 2.371 . S
C2933 C130 2.317 . S
C2968 C558 0.975 . S
C2963 C148 0.969 . S
C2998 C851 2.313 . S
C2993 C273 2.297 . S
C3023 C260 0.875 . S
C3028 C927 0.890 . S
C3058 C450 2.351 . S
C3053 C135 2.384 . S
C3088 C358 0.878 . S
C3083 C109 0.891 . S
C3113 C86 1.142 . S
C3118 C887 1.116 . S
C3148 C361 1.763 . S
C3143 C70 1.816 . S
C3173 C62 1.230 . S
C3178 C931 1.239 . S
C3203 C91 2.340 . S
C3208 C442 2.435 . S
C3233 C36 0.859 . S
C3238 C638 0.848 . S
C3268 C527 0.333 . S
C3263 C18 0.230 . S
C3293 C8 0.497 . S
C3298 C721 0.440 . S
C3323 C39 0.943 . S
C3328 C607 0.901 . S
C3358 C881 1.762 . S
C3353 C307 1.866 . S
C3383 C153 1.367 . S
C3388 C362 1.378 . S
C3418 C930 1.807 1_556 S
C3413 C281 1.819 . S
C3443 C127 0.251 . S
C3448 C447 0.349 . S
C3473 C309 1.720 . S
C3478 C651 1.728 . S
C3508 C521 1.904 . S
C3503 C151 1.845 . S
C3533 C283 1.315 . S
C3538 C722 1.323 . S
C3568 C601 1.449 . S
C3563 C125 1.600 . S
C3598 C882 2.145 . S
C3593 C221 2.124 . S
C3628 C490 1.528 . S
C3623 C200 1.563 . S
C3653 C208 2.242 . S
C3658 C682 2.257 . S
C3688 C567 0.884 . S
C3683 C174 0.876 . S
C3713 C182 2.295 . S
C3718 C602 2.290 . S
C3743 C156 0.857 . S
C3748 C918 0.835 . S
C3778 C761 2.255 . S
C3773 C213 2.322 . S
C3808 C807 0.810 . S
C3803 C252 0.815 . S
