# Generated by pormake.
# Topology dag, (6,3)-cn, num edge types: 1
# Building blocks:
#     Node 0, Type 0, BuildingBlock: OJICUG_clean_sbu_0, # of connection points: 6
#     Node 1, Type 0, BuildingBlock: OJICUG_clean_sbu_0, # of connection points: 6
#     Node 2, Type 0, BuildingBlock: OJICUG_clean_sbu_0, # of connection points: 6
#     Node 3, Type 0, BuildingBlock: OJICUG_clean_sbu_0, # of connection points: 6
#     Node 4, Type 1, BuildingBlock: WUSLED_clean_sbu_0, # of connection points: 3
#     Node 5, Type 1, BuildingBlock: WUSLED_clean_sbu_0, # of connection points: 3
#     Node 6, Type 1, BuildingBlock: WUSLED_clean_sbu_0, # of connection points: 3
#     Node 7, Type 1, BuildingBlock: WUSLED_clean_sbu_0, # of connection points: 3
#     Node 8, Type 1, BuildingBlock: WUSLED_clean_sbu_0, # of connection points: 3
#     Node 9, Type 1, BuildingBlock: WUSLED_clean_sbu_0, # of connection points: 3
#     Node 10, Type 1, BuildingBlock: WUSLED_clean_sbu_0, # of connection points: 3
#     Node 11, Type 1, BuildingBlock: WUSLED_clean_sbu_0, # of connection points: 3
#     Edge 12, Type (0, 1), BuildingBlock: TEMPAE_clean_linker_10, # of connection points: 2
#     Edge 13, Type (0, 1), BuildingBlock: TEMPAE_clean_linker_10, # of connection points: 2
#     Edge 14, Type (0, 1), BuildingBlock: TEMPAE_clean_linker_10, # of connection points: 2
#     Edge 15, Type (0, 1), BuildingBlock: TEMPAE_clean_linker_10, # of connection points: 2
#     Edge 16, Type (0, 1), BuildingBlock: TEMPAE_clean_linker_10, # of connection points: 2
#     Edge 17, Type (0, 1), BuildingBlock: TEMPAE_clean_linker_10, # of connection points: 2
#     Edge 18, Type (0, 1), BuildingBlock: TEMPAE_clean_linker_10, # of connection points: 2
#     Edge 19, Type (0, 1), BuildingBlock: TEMPAE_clean_linker_10, # of connection points: 2
#     Edge 20, Type (0, 1), BuildingBlock: TEMPAE_clean_linker_10, # of connection points: 2
#     Edge 21, Type (0, 1), BuildingBlock: TEMPAE_clean_linker_10, # of connection points: 2
#     Edge 22, Type (0, 1), BuildingBlock: TEMPAE_clean_linker_10, # of connection points: 2
#     Edge 23, Type (0, 1), BuildingBlock: TEMPAE_clean_linker_10, # of connection points: 2
#     Edge 24, Type (0, 1), BuildingBlock: TEMPAE_clean_linker_10, # of connection points: 2
#     Edge 25, Type (0, 1), BuildingBlock: TEMPAE_clean_linker_10, # of connection points: 2
#     Edge 26, Type (0, 1), BuildingBlock: TEMPAE_clean_linker_10, # of connection points: 2
#     Edge 27, Type (0, 1), BuildingBlock: TEMPAE_clean_linker_10, # of connection points: 2
#     Edge 28, Type (0, 1), BuildingBlock: TEMPAE_clean_linker_10, # of connection points: 2
#     Edge 29, Type (0, 1), BuildingBlock: TEMPAE_clean_linker_10, # of connection points: 2
#     Edge 30, Type (0, 1), BuildingBlock: TEMPAE_clean_linker_10, # of connection points: 2
#     Edge 31, Type (0, 1), BuildingBlock: TEMPAE_clean_linker_10, # of connection points: 2
#     Edge 32, Type (0, 1), BuildingBlock: TEMPAE_clean_linker_10, # of connection points: 2
#     Edge 33, Type (0, 1), BuildingBlock: TEMPAE_clean_linker_10, # of connection points: 2
#     Edge 34, Type (0, 1), BuildingBlock: TEMPAE_clean_linker_10, # of connection points: 2
#     Edge 35, Type (0, 1), BuildingBlock: TEMPAE_clean_linker_10, # of connection points: 2
# Relax obj value: 0.245
# Max RMSD: 0.197
# Mean RMSD: 0.163
data_MOF--net-dag--node1-OJICUG_clean_sbu_0--node2-WUSLED_clean_sbu_0--edge1-TEMPAE_clean_linker_10
_symmetry_space_group_name_H-M    P1
_symmetry_Int_Tables_number       1
_symmetry_cell_setting            triclinic
loop_
_symmetry_equiv_pos_as_xyz
'x, y, z'
_cell_length_a     47.468238
_cell_length_b     49.760744
_cell_length_c     48.839233
_cell_angle_alpha  95.085188
_cell_angle_beta   90.297678
_cell_angle_gamma 90.177388
loop_
_atom_site_label
_atom_site_type_symbol
_atom_site_fract_x
_atom_site_fract_y
_atom_site_fract_z
_atom_type_partial_charge
Sc0 Sc 0.13013 0.85375 0.05768 0.0
Sc1 Sc 0.14856 0.78519 0.05533 0.0
Sc2 Sc 0.19593 0.83592 0.08341 0.0
O3 O 0.15825 0.82488 0.06547 0.0
C4 C 0.18789 0.88278 0.04382 0.0
C5 C 0.12561 0.81353 0.00327 0.0
C6 C 0.21374 0.78813 0.03914 0.0
C7 C 0.08883 0.8078 0.07589 0.0
C8 C 0.15275 0.87515 0.11714 0.0
C9 C 0.17925 0.78333 0.11339 0.0
O10 O 0.16133 0.87988 0.04253 0.0
O11 O 0.13403 0.79277 0.01447 0.0
O12 O 0.219 0.8098 0.05412 0.0
O13 O 0.09502 0.83189 0.07171 0.0
O14 O 0.17665 0.86364 0.11461 0.0
O15 O 0.162 0.77377 0.09498 0.0
O16 O 0.13395 0.87302 0.09846 0.0
O17 O 0.10608 0.78843 0.07139 0.0
O18 O 0.19302 0.80507 0.11152 0.0
O19 O 0.12365 0.83669 0.01635 0.0
O20 O 0.20357 0.86803 0.05734 0.0
O21 O 0.18968 0.77674 0.03806 0.0
Sc22 Sc 0.69822 0.66026 0.48406 0.0
Sc23 Sc 0.64821 0.70709 0.51326 0.0
Sc24 Sc 0.63598 0.63718 0.51268 0.0
O25 O 0.66082 0.66825 0.50334 0.0
C26 C 0.658 0.61582 0.45308 0.0
C27 C 0.67595 0.71082 0.45417 0.0
C28 C 0.5903 0.67874 0.4933 0.0
C29 C 0.71411 0.70983 0.52755 0.0
C30 C 0.69694 0.61469 0.52614 0.0
C31 C 0.62872 0.67832 0.56608 0.0
O32 O 0.6799 0.63068 0.45393 0.0
O33 O 0.65933 0.7195 0.47331 0.0
O34 O 0.59867 0.65528 0.49771 0.0
O35 O 0.72043 0.68903 0.51179 0.0
O36 O 0.67036 0.61541 0.5289 0.0
O37 O 0.63547 0.69931 0.55444 0.0
O38 O 0.71006 0.62962 0.51061 0.0
O39 O 0.68906 0.71874 0.5301 0.0
O40 O 0.62838 0.65488 0.55348 0.0
O41 O 0.69104 0.68993 0.45554 0.0
O42 O 0.64064 0.61611 0.4728 0.0
O43 O 0.60579 0.69963 0.49771 0.0
Sc44 Sc 0.85708 0.2094 0.01163 0.0
Sc45 Sc 0.80824 0.15947 0.98599 0.0
Sc46 Sc 0.87437 0.1406 0.01108 0.0
O47 O 0.84654 0.16984 0.00292 0.0
C48 C 0.91521 0.18487 0.98874 0.0
C49 C 0.82517 0.21038 0.95396 0.0
C50 C 0.84917 0.11729 0.95303 0.0
C51 C 0.7924 0.20877 0.02948 0.0
C52 C 0.88191 0.18268 0.06386 0.0
C53 C 0.81594 0.11461 0.02816 0.0
O54 O 0.89828 0.20446 0.99341 0.0
O55 O 0.81149 0.18867 0.95615 0.0
O56 O 0.86863 0.11934 0.97109 0.0
O57 O 0.81709 0.21882 0.03072 0.0
O58 O 0.8832 0.159 0.05178 0.0
O59 O 0.80058 0.12909 0.01397 0.0
O60 O 0.87321 0.20285 0.05194 0.0
O61 O 0.78608 0.18759 0.01414 0.0
O62 O 0.84266 0.11647 0.02874 0.0
O63 O 0.84222 0.22033 0.97234 0.0
O64 O 0.90944 0.16104 0.99441 0.0
O65 O 0.82604 0.13008 0.95581 0.0
Sc66 Sc 0.36356 0.36021 0.54902 0.0
Sc67 Sc 0.30212 0.33631 0.5788 0.0
Sc68 Sc 0.35389 0.29041 0.55187 0.0
O69 O 0.33982 0.32895 0.55991 0.0
C70 C 0.37187 0.31751 0.49741 0.0
C71 C 0.30161 0.38062 0.53552 0.0
C72 C 0.28848 0.28486 0.53673 0.0
C73 C 0.34152 0.38276 0.60816 0.0
C74 C 0.41063 0.32079 0.5703 0.0
C75 C 0.32588 0.28804 0.61103 0.0
O76 O 0.3697 0.34167 0.50805 0.0
O77 O 0.28878 0.36493 0.5505 0.0
O78 O 0.31401 0.27739 0.534 0.0
O79 O 0.35961 0.38187 0.58897 0.0
O80 O 0.39523 0.29975 0.5689 0.0
O81 O 0.31078 0.3089 0.60946 0.0
O82 O 0.40205 0.34325 0.56298 0.0
O83 O 0.31952 0.368 0.60706 0.0
O84 O 0.3418 0.27871 0.59164 0.0
O85 O 0.32826 0.38113 0.53362 0.0
O86 O 0.368 0.29716 0.511 0.0
O87 O 0.28101 0.30523 0.55261 0.0
C88 C 0.0039 0.1899 0.2967 0.0
C89 C 0.98517 0.16959 0.28615 0.0
C90 C 0.96679 0.19914 0.25327 0.0
C91 C 0.96667 0.17423 0.26477 0.0
C92 C 0.98456 0.21988 0.26477 0.0
C93 C 0.00293 0.21529 0.28636 0.0
U94 U 0.05808 0.13993 0.31442 0.0
O95 O 0.10356 0.14377 0.32186 0.0
O96 O 0.07637 0.1284 0.35324 0.0
C97 C 0.10172 0.1368 0.34714 0.0
C98 C 0.0272 0.18344 0.31502 0.0
C99 C 0.11674 0.1544 0.36855 0.0
C100 C 0.15393 0.18691 0.38141 0.0
C101 C 0.1385 0.17157 0.36124 0.0
C102 C 0.12629 0.16834 0.41679 0.0
C103 C 0.14813 0.1854 0.40942 0.0
C104 C 0.11081 0.15294 0.39657 0.0
C105 C 0.05849 0.07434 0.26716 0.0
C106 C 0.09488 0.04027 0.26889 0.0
C107 C 0.06199 0.03836 0.2306 0.0
C108 C 0.04857 0.0614 0.24238 0.0
C109 C 0.0856 0.02787 0.24344 0.0
C110 C 0.08149 0.06354 0.28062 0.0
C111 C 0.04613 0.10031 0.2771 0.0
O112 O 0.02234 0.16415 0.33121 0.0
O113 O 0.05174 0.18115 0.30274 0.0
O114 O 0.03541 0.10206 0.30197 0.0
O115 O 0.06132 0.12141 0.27214 0.0
H116 H 0.98583 0.14965 0.2934 0.0
H117 H 0.95354 0.15774 0.25611 0.0
H118 H 0.98497 0.23932 0.25639 0.0
H119 H 0.01739 0.23113 0.29402 0.0
H120 H 0.17099 0.19942 0.37503 0.0
H121 H 0.14403 0.17284 0.33991 0.0
H122 H 0.12122 0.16684 0.43819 0.0
H123 H 0.09444 0.13964 0.40291 0.0
H124 H 0.11307 0.0326 0.27913 0.0
H125 H 0.05416 0.02895 0.21117 0.0
H126 H 0.03089 0.06955 0.23172 0.0
H127 H 0.08953 0.07351 0.29971 0.0
C128 C 0.38436 0.56819 0.80489 0.0
C129 C 0.40656 0.55458 0.79081 0.0
C130 C 0.37335 0.52264 0.76784 0.0
C131 C 0.40112 0.53189 0.77257 0.0
C132 C 0.35126 0.53595 0.78249 0.0
C133 C 0.35675 0.55852 0.8009 0.0
U134 U 0.42767 0.63168 0.81978 0.0
O135 O 0.41464 0.67397 0.82689 0.0
O136 O 0.43878 0.65533 0.85865 0.0
C137 C 0.42398 0.67625 0.85239 0.0
C138 C 0.38937 0.59383 0.82156 0.0
C139 C 0.40328 0.68633 0.87302 0.0
C140 C 0.35562 0.68681 0.89086 0.0
C141 C 0.37555 0.6764 0.87189 0.0
C142 C 0.39117 0.71648 0.913 0.0
C143 C 0.36319 0.70708 0.91149 0.0
C144 C 0.41105 0.70623 0.89381 0.0
C145 C 0.49119 0.6407 0.77269 0.0
C146 C 0.50857 0.68124 0.75397 0.0
C147 C 0.5359 0.64008 0.74879 0.0
C148 C 0.51555 0.62702 0.76342 0.0
C149 C 0.53208 0.66702 0.74301 0.0
C150 C 0.48832 0.66822 0.76881 0.0
C151 C 0.46776 0.62513 0.78311 0.0
O152 O 0.41215 0.59507 0.83709 0.0
O153 O 0.38581 0.61533 0.80818 0.0
O154 O 0.44237 0.6337 0.77762 0.0
O155 O 0.47042 0.61759 0.80813 0.0
H156 H 0.428 0.56199 0.79329 0.0
H157 H 0.4185 0.52225 0.76131 0.0
H158 H 0.32969 0.52914 0.77937 0.0
H159 H 0.33934 0.5689 0.81144 0.0
H160 H 0.33429 0.67898 0.88947 0.0
H161 H 0.36924 0.6608 0.85614 0.0
H162 H 0.39748 0.73219 0.92863 0.0
H163 H 0.4324 0.71404 0.89501 0.0
H164 H 0.50522 0.70207 0.75 0.0
H165 H 0.55361 0.62849 0.74035 0.0
H166 H 0.51812 0.6058 0.76618 0.0
H167 H 0.46976 0.67926 0.776 0.0
C168 C 0.73516 0.91694 0.15923 0.0
C169 C 0.75284 0.91601 0.13626 0.0
C170 C 0.74088 0.96237 0.12904 0.0
C171 C 0.75564 0.93845 0.1213 0.0
C172 C 0.72273 0.96306 0.15181 0.0
C173 C 0.71991 0.94047 0.16682 0.0
U174 U 0.76901 0.85296 0.17622 0.0
O175 O 0.78084 0.83744 0.21531 0.0
O176 O 0.75224 0.81386 0.18681 0.0
C177 C 0.76414 0.81631 0.21129 0.0
C178 C 0.7347 0.89407 0.17628 0.0
C179 C 0.74606 0.8106 0.2345 0.0
C180 C 0.72342 0.82447 0.278 0.0
C181 C 0.73794 0.83102 0.25463 0.0
C182 C 0.72367 0.7773 0.26069 0.0
C183 C 0.71658 0.79747 0.28149 0.0
C184 C 0.73833 0.78383 0.23746 0.0
C185 C 0.83488 0.83317 0.13382 0.0
C186 C 0.87162 0.80296 0.14719 0.0
C187 C 0.87441 0.82261 0.10362 0.0
C188 C 0.84889 0.83579 0.10908 0.0
C189 C 0.88644 0.80652 0.12287 0.0
C190 C 0.84598 0.81618 0.15262 0.0
C191 C 0.81025 0.85021 0.14055 0.0
O192 O 0.72922 0.87047 0.16296 0.0
O193 O 0.75623 0.89346 0.19323 0.0
O194 O 0.81152 0.8646 0.16441 0.0
O195 O 0.78543 0.83912 0.13523 0.0
H196 H 0.7651 0.89812 0.13033 0.0
H197 H 0.77022 0.93736 0.10425 0.0
H198 H 0.71096 0.98113 0.15819 0.0
H199 H 0.70633 0.94157 0.18464 0.0
H200 H 0.71802 0.84043 0.29361 0.0
H201 H 0.74349 0.85189 0.25268 0.0
H202 H 0.71903 0.75629 0.26293 0.0
H203 H 0.74444 0.76781 0.22219 0.0
H204 H 0.8802 0.79054 0.16232 0.0
H205 H 0.88542 0.82623 0.08492 0.0
H206 H 0.84065 0.84893 0.09442 0.0
H207 H 0.83534 0.81391 0.17186 0.0
C208 C 0.78225 0.42268 0.65789 0.0
C209 C 0.76614 0.42177 0.63365 0.0
C210 C 0.78082 0.46742 0.62625 0.0
C211 C 0.76551 0.44383 0.61797 0.0
C212 C 0.7976 0.46802 0.65016 0.0
C213 C 0.7983 0.44578 0.66588 0.0
U214 U 0.73682 0.36808 0.68064 0.0
O215 O 0.74483 0.32652 0.69097 0.0
O216 O 0.72508 0.356 0.72114 0.0
C217 C 0.7358 0.33171 0.7163 0.0
C218 C 0.7794 0.40086 0.67614 0.0
C219 C 0.75348 0.32201 0.73824 0.0
C220 C 0.77909 0.32985 0.78146 0.0
C221 C 0.76557 0.33985 0.75898 0.0
C222 C 0.76995 0.28415 0.762 0.0
C223 C 0.78091 0.3019 0.78344 0.0
C224 C 0.75628 0.29414 0.73966 0.0
C225 C 0.66433 0.36192 0.64518 0.0
C226 C 0.63251 0.32386 0.63495 0.0
C227 C 0.61388 0.36917 0.64259 0.0
C228 C 0.64112 0.37931 0.6468 0.0
C229 C 0.60927 0.34137 0.63646 0.0
C230 C 0.65985 0.33403 0.63942 0.0
C231 C 0.69279 0.37366 0.64905 0.0
O232 O 0.75988 0.40516 0.695 0.0
O233 O 0.7785 0.37631 0.66368 0.0
O234 O 0.71427 0.35811 0.64156 0.0
O235 O 0.69696 0.3883 0.67245 0.0
H236 H 0.75313 0.40435 0.62737 0.0
H237 H 0.75187 0.44284 0.60005 0.0
H238 H 0.80968 0.48588 0.65702 0.0
H239 H 0.81059 0.44695 0.6847 0.0
H240 H 0.78761 0.34397 0.79758 0.0
H241 H 0.76386 0.36148 0.75829 0.0
H242 H 0.77076 0.26251 0.7631 0.0
H243 H 0.747 0.28005 0.72394 0.0
H244 H 0.62951 0.30235 0.63031 0.0
H245 H 0.59645 0.38321 0.64339 0.0
H246 H 0.64409 0.40088 0.65105 0.0
H247 H 0.67738 0.32011 0.63815 0.0
C248 C 0.50535 0.31724 0.27124 0.0
C249 C 0.49852 0.33976 0.28928 0.0
C250 C 0.46875 0.31186 0.31554 0.0
C251 C 0.48044 0.33708 0.31126 0.0
C252 C 0.4744 0.28956 0.29666 0.0
C253 C 0.49283 0.2922 0.27469 0.0
U254 U 0.56132 0.36094 0.24605 0.0
O255 O 0.60632 0.35411 0.23844 0.0
O256 O 0.57913 0.36685 0.20546 0.0
C257 C 0.60425 0.35841 0.21233 0.0
C258 C 0.52797 0.31971 0.25123 0.0
C259 C 0.61844 0.33859 0.19267 0.0
C260 C 0.65751 0.30789 0.18226 0.0
C261 C 0.64222 0.32466 0.20113 0.0
C262 C 0.6255 0.31835 0.14597 0.0
C263 C 0.64955 0.3048 0.15441 0.0
C264 C 0.61013 0.33514 0.16489 0.0
C265 C 0.56705 0.431 0.28479 0.0
C266 C 0.61007 0.45755 0.29003 0.0
C267 C 0.56605 0.47609 0.30801 0.0
C268 C 0.55205 0.45245 0.29815 0.0
C269 C 0.59535 0.47858 0.30478 0.0
C270 C 0.596 0.43394 0.28002 0.0
C271 C 0.5528 0.40496 0.27851 0.0
O272 O 0.52346 0.33728 0.23308 0.0
O273 O 0.55314 0.32203 0.26252 0.0
O274 O 0.56661 0.38398 0.28607 0.0
O275 O 0.54118 0.40075 0.25401 0.0
H276 H 0.5081 0.35922 0.28702 0.0
H277 H 0.47619 0.35461 0.32541 0.0
H278 H 0.46568 0.2699 0.29966 0.0
H279 H 0.49809 0.27459 0.26106 0.0
H280 H 0.67622 0.29814 0.18935 0.0
H281 H 0.64953 0.32725 0.22225 0.0
H282 H 0.61875 0.31623 0.12467 0.0
H283 H 0.59213 0.34582 0.1576 0.0
H284 H 0.63261 0.45901 0.28706 0.0
H285 H 0.55417 0.49176 0.31959 0.0
H286 H 0.52972 0.45046 0.30204 0.0
H287 H 0.60789 0.41757 0.26959 0.0
C288 C 0.1574 0.18693 0.87484 0.0
C289 C 0.13766 0.16572 0.87367 0.0
C290 C 0.10265 0.1956 0.89603 0.0
C291 C 0.11057 0.17006 0.88404 0.0
C292 C 0.12229 0.21687 0.89708 0.0
C293 C 0.14939 0.21259 0.88642 0.0
U294 U 0.22623 0.14875 0.87685 0.0
O295 O 0.253 0.13072 0.84363 0.0
O296 O 0.27022 0.1622 0.87343 0.0
C297 C 0.27374 0.14779 0.84979 0.0
C298 C 0.18649 0.18231 0.86491 0.0
C299 C 0.28244 0.16316 0.82696 0.0
C300 C 0.27038 0.19419 0.79317 0.0
C301 C 0.26325 0.1808 0.81606 0.0
C302 C 0.31639 0.17312 0.79222 0.0
C303 C 0.29687 0.19024 0.78078 0.0
C304 C 0.30914 0.15955 0.81513 0.0
C305 C 0.22741 0.09371 0.92864 0.0
C306 C 0.25063 0.05012 0.92705 0.0
C307 C 0.2264 0.06771 0.96833 0.0
C308 C 0.21955 0.09097 0.95583 0.0
C309 C 0.24134 0.04663 0.95386 0.0
C310 C 0.2437 0.0735 0.91451 0.0
C311 C 0.2154 0.11619 0.91487 0.0
O312 O 0.20657 0.18893 0.88293 0.0
O313 O 0.19104 0.15916 0.8505 0.0
O314 O 0.20831 0.11093 0.88889 0.0
O315 O 0.22709 0.14006 0.92037 0.0
H316 H 0.14317 0.14562 0.8651 0.0
H317 H 0.09603 0.15318 0.88336 0.0
H318 H 0.11667 0.23678 0.90614 0.0
H319 H 0.16423 0.22925 0.88754 0.0
H320 H 0.25509 0.20757 0.78506 0.0
H321 H 0.24255 0.18387 0.82503 0.0
H322 H 0.33691 0.16966 0.78299 0.0
H323 H 0.32415 0.14593 0.8233 0.0
H324 H 0.26243 0.03441 0.91546 0.0
H325 H 0.21846 0.06563 0.98878 0.0
H326 H 0.20684 0.10629 0.967 0.0
H327 H 0.25006 0.07528 0.89348 0.0
C328 C 0.22129 0.5771 0.40957 0.0
C329 C 0.23726 0.57664 0.43375 0.0
C330 C 0.2206 0.53121 0.43956 0.0
C331 C 0.23689 0.55398 0.4486 0.0
C332 C 0.20399 0.53202 0.41567 0.0
C333 C 0.20436 0.55484 0.40077 0.0
U334 U 0.26464 0.63623 0.39339 0.0
O335 O 0.27978 0.6499 0.35459 0.0
O336 O 0.25403 0.67697 0.38224 0.0
C337 C 0.2662 0.67293 0.35811 0.0
C338 C 0.22469 0.59972 0.39246 0.0
C339 C 0.2498 0.68069 0.33439 0.0
C340 C 0.22651 0.66955 0.29037 0.0
C341 C 0.23957 0.66138 0.31399 0.0
C342 C 0.23258 0.71632 0.30789 0.0
C343 C 0.22326 0.69713 0.28691 0.0
C344 C 0.24579 0.70816 0.33136 0.0
C345 C 0.33134 0.64863 0.43718 0.0
C346 C 0.36954 0.67808 0.42549 0.0
C347 C 0.3728 0.6539 0.46634 0.0
C348 C 0.34622 0.64263 0.46065 0.0
C349 C 0.38501 0.67141 0.4486 0.0
C350 C 0.34287 0.66677 0.41982 0.0
C351 C 0.30487 0.63427 0.43019 0.0
O352 O 0.22226 0.62388 0.40553 0.0
O353 O 0.24665 0.59755 0.37615 0.0
O354 O 0.3048 0.61966 0.40643 0.0
O355 O 0.2816 0.64813 0.4348 0.0
H356 H 0.25083 0.59348 0.44064 0.0
H357 H 0.25043 0.55389 0.46651 0.0
H358 H 0.19114 0.51485 0.40823 0.0
H359 H 0.19208 0.55479 0.382 0.0
H360 H 0.21931 0.65434 0.27463 0.0
H361 H 0.24223 0.64002 0.31597 0.0
H362 H 0.23068 0.73771 0.30567 0.0
H363 H 0.25359 0.72335 0.34684 0.0
H364 H 0.37826 0.69165 0.41156 0.0
H365 H 0.38428 0.64794 0.48403 0.0
H366 H 0.33766 0.62854 0.47415 0.0
H367 H 0.33156 0.6716 0.40157 0.0
C368 C 0.89394 0.93016 0.75936 0.0
C369 C 0.90894 0.93349 0.78425 0.0
C370 C 0.88339 0.97482 0.79736 0.0
C371 C 0.90364 0.95555 0.80313 0.0
C372 C 0.86914 0.97203 0.77194 0.0
C373 C 0.87428 0.9497 0.75309 0.0
U374 U 0.93427 0.86625 0.74296 0.0
O375 O 0.91993 0.82441 0.73397 0.0
O376 O 0.94619 0.84339 0.70413 0.0
C377 C 0.93065 0.82245 0.70913 0.0
C378 C 0.89777 0.90545 0.74101 0.0
C379 C 0.9108 0.81271 0.68736 0.0
C380 C 0.87018 0.81999 0.65856 0.0
C381 C 0.89059 0.83005 0.67755 0.0
C382 C 0.89029 0.77527 0.65882 0.0
C383 C 0.86958 0.7924 0.64932 0.0
C384 C 0.91073 0.78538 0.6777 0.0
C385 C 0.99538 0.85446 0.79274 0.0
C386 C 0.01104 0.8132 0.81118 0.0
C387 C 0.03937 0.85384 0.81817 0.0
C388 C 0.01985 0.86754 0.80313 0.0
C389 C 0.03464 0.82681 0.82323 0.0
C390 C 0.99159 0.8269 0.79595 0.0
C391 C 0.97284 0.8707 0.78171 0.0
O392 O 0.92118 0.90425 0.72666 0.0
O393 O 0.89249 0.88316 0.75261 0.0
O394 O 0.94698 0.86237 0.78558 0.0
O395 O 0.97687 0.87903 0.75721 0.0
H396 H 0.9243 0.91863 0.78937 0.0
H397 H 0.91517 0.95743 0.82241 0.0
H398 H 0.85339 0.9866 0.76707 0.0
H399 H 0.86251 0.94738 0.73396 0.0
H400 H 0.85434 0.83359 0.6518 0.0
H401 H 0.8902 0.8512 0.68507 0.0
H402 H 0.89052 0.754 0.65182 0.0
H403 H 0.92614 0.77173 0.68519 0.0
H404 H 0.007 0.79232 0.81457 0.0
H405 H 0.05715 0.865 0.82745 0.0
H406 H 0.02313 0.8888 0.80089 0.0
H407 H 0.97294 0.81631 0.78789 0.0
C408 C 0.11839 0.89754 0.14984 0.0
C409 C 0.14651 0.89302 0.14216 0.0
C410 C 0.11128 0.91766 0.17046 0.0
C411 C 0.13282 0.93387 0.18357 0.0
C412 C 0.16141 0.92808 0.17739 0.0
C413 C 0.16797 0.90756 0.15675 0.0
C414 C 0.08053 0.92286 0.17668 0.0
C415 C 0.18495 0.94483 0.19105 0.0
C416 C 0.10772 0.00514 0.20155 0.0
C417 C 0.10094 0.00477 0.22939 0.0
C418 C 0.11968 0.98263 0.18686 0.0
C419 C 0.12491 0.95908 0.20033 0.0
C420 C 0.11953 0.95905 0.22883 0.0
C421 C 0.10762 0.98202 0.24311 0.0
C422 C 0.12534 0.98364 0.15655 0.0
C423 C 0.12491 0.93435 0.24388 0.0
H424 H 0.10175 0.88598 0.13895 0.0
H425 H 0.18975 0.90407 0.15094 0.0
H426 H 0.07698 0.92496 0.19919 0.0
H427 H 0.07411 0.94209 0.1686 0.0
H428 H 0.06671 0.90648 0.16724 0.0
H429 H 0.20576 0.93495 0.18776 0.0
H430 H 0.1857 0.9647 0.1824 0.0
H431 H 0.18125 0.94865 0.21347 0.0
H432 H 0.10309 0.02295 0.19108 0.0
H433 H 0.10243 0.98176 0.26467 0.0
H434 H 0.11082 0.9696 0.14445 0.0
H435 H 0.14716 0.977 0.15163 0.0
H436 H 0.12239 0.00418 0.14978 0.0
H437 H 0.10891 0.91869 0.23757 0.0
H438 H 0.12381 0.93888 0.26653 0.0
H439 H 0.14588 0.92569 0.2385 0.0
C440 C 0.6066 0.6588 0.60609 0.0
C441 C 0.61916 0.68101 0.5951 0.0
C442 C 0.59523 0.66099 0.63254 0.0
C443 C 0.59673 0.68596 0.64878 0.0
C444 C 0.61041 0.70824 0.6384 0.0
C445 C 0.62127 0.70558 0.61153 0.0
C446 C 0.58066 0.63671 0.64268 0.0
C447 C 0.6129 0.735 0.65537 0.0
C448 C 0.53748 0.68991 0.69998 0.0
C449 C 0.55013 0.6785 0.7222 0.0
C450 C 0.55313 0.69493 0.67671 0.0
C451 C 0.58219 0.6886 0.67578 0.0
C452 C 0.59564 0.67973 0.6993 0.0
C453 C 0.57937 0.67453 0.72219 0.0
C454 C 0.53788 0.70426 0.65206 0.0
C455 C 0.62671 0.67345 0.6994 0.0
H456 H 0.60483 0.63968 0.59371 0.0
H457 H 0.63111 0.72282 0.60332 0.0
H458 H 0.59034 0.63163 0.66228 0.0
H459 H 0.55815 0.64138 0.64679 0.0
H460 H 0.58177 0.61864 0.62765 0.0
H461 H 0.62757 0.74899 0.64603 0.0
H462 H 0.59189 0.74466 0.65723 0.0
H463 H 0.62033 0.73207 0.67647 0.0
H464 H 0.51486 0.69286 0.69977 0.0
H465 H 0.58929 0.66608 0.73952 0.0
H466 H 0.53561 0.68704 0.63612 0.0
H467 H 0.55006 0.72023 0.6429 0.0
H468 H 0.51654 0.71211 0.6574 0.0
H469 H 0.63037 0.6537 0.68757 0.0
H470 H 0.63494 0.67232 0.7206 0.0
H471 H 0.63888 0.68891 0.68939 0.0
C472 C 0.81878 0.07556 0.05705 0.0
C473 C 0.80228 0.09419 0.04417 0.0
C474 C 0.80634 0.05538 0.07129 0.0
C475 C 0.77662 0.05382 0.07291 0.0
C476 C 0.75979 0.07285 0.06052 0.0
C477 C 0.77281 0.09276 0.04621 0.0
C478 C 0.82504 0.03538 0.08415 0.0
C479 C 0.72805 0.07194 0.06206 0.0
C480 C 0.74908 0.98446 0.08558 0.0
C481 C 0.746 0.98678 0.11425 0.0
C482 C 0.75782 0.00649 0.07169 0.0
C483 C 0.76341 0.03156 0.0868 0.0
C484 C 0.75876 0.03449 0.11552 0.0
C485 C 0.75019 0.01203 0.12893 0.0
C486 C 0.76245 0.00255 0.04103 0.0
C487 C 0.76428 0.06095 0.13231 0.0
H488 H 0.84154 0.07641 0.05565 0.0
H489 H 0.75984 0.10712 0.0365 0.0
H490 H 0.82055 0.03557 0.10643 0.0
H491 H 0.82056 0.0147 0.0747 0.0
H492 H 0.84779 0.03975 0.08157 0.0
H493 H 0.71803 0.08901 0.05254 0.0
H494 H 0.72013 0.05276 0.05141 0.0
H495 H 0.72128 0.07244 0.08381 0.0
H496 H 0.74536 0.96513 0.07404 0.0
H497 H 0.74808 0.01398 0.1511 0.0
H498 H 0.78525 0.0044 0.03662 0.0
H499 H 0.75139 0.01842 0.0306 0.0
H500 H 0.75498 0.98249 0.03201 0.0
H501 H 0.78726 0.0651 0.13307 0.0
H502 H 0.7565 0.06082 0.15371 0.0
H503 H 0.75407 0.07778 0.12262 0.0
C504 C 0.45924 0.33973 0.57534 0.0
C505 C 0.43995 0.31944 0.58064 0.0
C506 C 0.48689 0.33955 0.58537 0.0
C507 C 0.49554 0.31867 0.60138 0.0
C508 C 0.47638 0.29787 0.60657 0.0
C509 C 0.44878 0.29842 0.596 0.0
C510 C 0.50675 0.36198 0.57912 0.0
C511 C 0.48487 0.27541 0.62371 0.0
C512 C 0.57496 0.31412 0.60635 0.0
C513 C 0.58033 0.33127 0.63016 0.0
C514 C 0.54723 0.30814 0.59766 0.0
C515 C 0.52445 0.31953 0.61325 0.0
C516 C 0.5298 0.33516 0.63839 0.0
C517 C 0.5577 0.3409 0.64651 0.0
C518 C 0.5424 0.29137 0.57075 0.0
C519 C 0.50611 0.34745 0.65576 0.0
H520 H 0.45274 0.3559 0.56324 0.0
H521 H 0.43398 0.2827 0.60023 0.0
H522 H 0.51343 0.37358 0.59852 0.0
H523 H 0.526 0.35341 0.569 0.0
H524 H 0.49699 0.37616 0.56553 0.0
H525 H 0.46797 0.26004 0.6247 0.0
H526 H 0.50413 0.26533 0.6152 0.0
H527 H 0.49 0.28388 0.64494 0.0
H528 H 0.5924 0.30671 0.59361 0.0
H529 H 0.56183 0.3538 0.66519 0.0
H530 H 0.53547 0.30467 0.55494 0.0
H531 H 0.52547 0.27627 0.57278 0.0
H532 H 0.5618 0.28068 0.56333 0.0
H533 H 0.49636 0.364 0.64523 0.0
H534 H 0.51356 0.35585 0.67637 0.0
H535 H 0.48945 0.33224 0.65842 0.0
C536 C 0.6674 0.59877 0.40388 0.0
C537 C 0.6521 0.59725 0.42824 0.0
C538 C 0.66135 0.5813 0.38033 0.0
C539 C 0.63969 0.56179 0.3813 0.0
C540 C 0.62429 0.56013 0.40583 0.0
C541 C 0.63062 0.57787 0.42889 0.0
C542 C 0.67804 0.58371 0.35443 0.0
C543 C 0.60111 0.5395 0.40781 0.0
C544 C 0.59965 0.52771 0.32074 0.0
C545 C 0.61063 0.50151 0.31971 0.0
C546 C 0.61063 0.5484 0.33916 0.0
C547 C 0.63294 0.54263 0.35706 0.0
C548 C 0.64558 0.51681 0.35451 0.0
C549 C 0.63428 0.49655 0.33582 0.0
C550 C 0.59683 0.57578 0.34099 0.0
C551 C 0.66936 0.50981 0.37323 0.0
H552 H 0.68394 0.61375 0.40313 0.0
H553 H 0.61871 0.57638 0.44757 0.0
H554 H 0.68898 0.56444 0.34841 0.0
H555 H 0.66363 0.58762 0.33728 0.0
H556 H 0.69396 0.60016 0.35692 0.0
H557 H 0.59123 0.54084 0.42846 0.0
H558 H 0.58448 0.54235 0.3923 0.0
H559 H 0.60965 0.51886 0.40333 0.0
H560 H 0.58164 0.53171 0.308 0.0
H561 H 0.64275 0.4763 0.33528 0.0
H562 H 0.61292 0.59207 0.34276 0.0
H563 H 0.58359 0.57824 0.35969 0.0
H564 H 0.58322 0.57837 0.32284 0.0
H565 H 0.6855 0.52604 0.37504 0.0
H566 H 0.67967 0.49051 0.36586 0.0
H567 H 0.66097 0.50782 0.39413 0.0
C568 C 0.94773 0.21335 0.96286 0.0
C569 C 0.94275 0.1897 0.97581 0.0
C570 C 0.97339 0.2174 0.94957 0.0
C571 C 0.9946 0.19747 0.94948 0.0
C572 C 0.98992 0.17386 0.96301 0.0
C573 C 0.96406 0.17022 0.97588 0.0
C574 C 0.97759 0.24272 0.93517 0.0
C575 C 0.01212 0.15221 0.96357 0.0
C576 C 0.05046 0.18869 0.89435 0.0
C577 C 0.07434 0.19939 0.90843 0.0
C578 C 0.02401 0.18922 0.90702 0.0
C579 C 0.02144 0.20057 0.93451 0.0
C580 C 0.04521 0.21256 0.94839 0.0
C581 C 0.07141 0.2119 0.93513 0.0
C582 C 0.99909 0.1765 0.89141 0.0
C583 C 0.04333 0.22474 0.97775 0.0
H584 H 0.93136 0.22847 0.96261 0.0
H585 H 0.96054 0.15199 0.986 0.0
H586 H 0.99691 0.25346 0.94301 0.0
H587 H 0.98058 0.23735 0.91284 0.0
H588 H 0.95943 0.25671 0.93798 0.0
H589 H 0.00557 0.13556 0.97589 0.0
H590 H 0.01661 0.14359 0.94232 0.0
H591 H 0.03207 0.16103 0.9723 0.0
H592 H 0.05261 0.17934 0.87355 0.0
H593 H 0.08987 0.22003 0.94615 0.0
H594 H 0.98089 0.19047 0.89266 0.0
H595 H 0.99256 0.15798 0.90082 0.0
H596 H 0.00397 0.17096 0.86941 0.0
H597 H 0.02536 0.23893 0.98017 0.0
H598 H 0.06293 0.23566 0.98463 0.0
H599 H 0.03948 0.20853 0.9915 0.0
C600 C 0.25565 0.39928 0.51946 0.0
C601 C 0.28523 0.39996 0.52032 0.0
C602 C 0.24034 0.41841 0.50594 0.0
C603 C 0.25497 0.43882 0.4933 0.0
C604 C 0.28478 0.43932 0.49375 0.0
C605 C 0.29948 0.41988 0.50709 0.0
C606 C 0.20858 0.41706 0.50552 0.0
C607 C 0.30125 0.46081 0.48063 0.0
C608 C 0.2267 0.48108 0.43867 0.0
C609 C 0.22323 0.50613 0.45385 0.0
C610 C 0.2347 0.45816 0.45163 0.0
C611 C 0.2396 0.46047 0.48036 0.0
C612 C 0.23391 0.48515 0.49603 0.0
C613 C 0.22564 0.50763 0.48259 0.0
C614 C 0.24012 0.4321 0.43424 0.0
C615 C 0.23882 0.48849 0.52671 0.0
H616 H 0.24443 0.3839 0.52947 0.0
H617 H 0.3223 0.4207 0.50756 0.0
H618 H 0.19986 0.43523 0.51726 0.0
H619 H 0.20061 0.41697 0.48411 0.0
H620 H 0.20044 0.39887 0.51455 0.0
H621 H 0.32439 0.45812 0.48249 0.0
H622 H 0.29573 0.46049 0.45851 0.0
H623 H 0.29567 0.48104 0.49046 0.0
H624 H 0.22497 0.47969 0.41645 0.0
H625 H 0.22235 0.52678 0.49451 0.0
H626 H 0.23164 0.41465 0.44426 0.0
H627 H 0.26317 0.42914 0.43191 0.0
H628 H 0.23059 0.43215 0.41342 0.0
H629 H 0.22942 0.47142 0.53666 0.0
H630 H 0.22989 0.50765 0.53632 0.0
H631 H 0.26181 0.48848 0.53098 0.0
C632 C 0.11917 0.78647 0.95744 0.0
C633 C 0.11645 0.81087 0.97403 0.0
C634 C 0.109 0.7839 0.9302 0.0
C635 C 0.09552 0.80612 0.91954 0.0
C636 C 0.09335 0.8309 0.93597 0.0
C637 C 0.10394 0.83299 0.96283 0.0
C638 C 0.11209 0.75732 0.91308 0.0
C639 C 0.07903 0.85513 0.92549 0.0
C640 C 0.08108 0.81854 0.84572 0.0
C641 C 0.05181 0.81462 0.84437 0.0
C642 C 0.09644 0.81296 0.86919 0.0
C643 C 0.08206 0.80365 0.89187 0.0
C644 C 0.05303 0.79719 0.88949 0.0
C645 C 0.03827 0.80269 0.8657 0.0
C646 C 0.1275 0.81947 0.87066 0.0
C647 C 0.03683 0.7873 0.91318 0.0
H648 H 0.12896 0.76931 0.9658 0.0
H649 H 0.10174 0.85199 0.9753 0.0
H650 H 0.09112 0.74761 0.90992 0.0
H651 H 0.12054 0.76055 0.89248 0.0
H652 H 0.1262 0.74324 0.92302 0.0
H653 H 0.07954 0.87305 0.94076 0.0
H654 H 0.08937 0.86057 0.90643 0.0
H655 H 0.0567 0.85021 0.92033 0.0
H656 H 0.0917 0.82735 0.82906 0.0
H657 H 0.01563 0.79974 0.86488 0.0
H658 H 0.13924 0.80398 0.88104 0.0
H659 H 0.13074 0.83913 0.88287 0.0
H660 H 0.13656 0.82091 0.84991 0.0
H661 H 0.04872 0.77142 0.92278 0.0
H662 H 0.01581 0.77913 0.90663 0.0
H663 H 0.03372 0.80432 0.92915 0.0
C664 C 0.88069 0.08982 0.92064 0.0
C665 C 0.85351 0.09876 0.92793 0.0
C666 C 0.88506 0.07123 0.89777 0.0
C667 C 0.86167 0.06103 0.88198 0.0
C668 C 0.83425 0.07047 0.88877 0.0
C669 C 0.83052 0.08937 0.91157 0.0
C670 C 0.91467 0.06193 0.89097 0.0
C671 C 0.80877 0.05987 0.87257 0.0
C672 C 0.87582 0.02388 0.81193 0.0
C673 C 0.87652 0.99703 0.81848 0.0
C674 C 0.87068 0.04502 0.83232 0.0
C675 C 0.86576 0.03902 0.85972 0.0
C676 C 0.86568 0.01186 0.8662 0.0
C677 C 0.87121 0.99123 0.84553 0.0
C678 C 0.87122 0.07377 0.82473 0.0
C679 C 0.86013 0.00458 0.89507 0.0
H680 H 0.89862 0.09722 0.93295 0.0
H681 H 0.80944 0.09615 0.91704 0.0
H682 H 0.91672 0.04021 0.89414 0.0
H683 H 0.91929 0.06415 0.86904 0.0
H684 H 0.93074 0.07339 0.9039 0.0
H685 H 0.78915 0.07055 0.87935 0.0
H686 H 0.81179 0.06193 0.85035 0.0
H687 H 0.80603 0.03806 0.87502 0.0
H688 H 0.88005 0.02837 0.79102 0.0
H689 H 0.87134 0.97042 0.85052 0.0
H690 H 0.88857 0.08501 0.83599 0.0
H691 H 0.85127 0.08408 0.83094 0.0
H692 H 0.87427 0.07497 0.80233 0.0
H693 H 0.87683 0.01334 0.90916 0.0
H694 H 0.85953 0.98241 0.8964 0.0
H695 H 0.83976 0.01324 0.90251 0.0
C696 C 0.39386 0.28878 0.45857 0.0
C697 C 0.38097 0.31307 0.46839 0.0
C698 C 0.40585 0.28571 0.43225 0.0
C699 C 0.40457 0.3073 0.41527 0.0
C700 C 0.38997 0.33117 0.42439 0.0
C701 C 0.37853 0.33385 0.4509 0.0
C702 C 0.42142 0.26003 0.42336 0.0
C703 C 0.38774 0.3545 0.40672 0.0
C704 C 0.46434 0.31806 0.36638 0.0
C705 C 0.45257 0.30881 0.3409 0.0
C706 C 0.44918 0.31685 0.39074 0.0
C707 C 0.42138 0.30642 0.38959 0.0
C708 C 0.40956 0.29646 0.36396 0.0
C709 C 0.42545 0.29757 0.33984 0.0
C710 C 0.46276 0.32729 0.41767 0.0
C711 C 0.3799 0.28544 0.36194 0.0
H712 H 0.39582 0.27261 0.47193 0.0
H713 H 0.36824 0.35253 0.45818 0.0
H714 H 0.41517 0.25233 0.40219 0.0
H715 H 0.44439 0.26424 0.42315 0.0
H716 H 0.41754 0.24399 0.43734 0.0
H717 H 0.37286 0.37019 0.41536 0.0
H718 H 0.40878 0.36397 0.405 0.0
H719 H 0.3807 0.34731 0.38564 0.0
H720 H 0.4855 0.32639 0.3672 0.0
H721 H 0.41638 0.29046 0.32008 0.0
H722 H 0.46195 0.31163 0.43247 0.0
H723 H 0.45098 0.34505 0.42687 0.0
H724 H 0.48509 0.33332 0.41515 0.0
H725 H 0.3771 0.26952 0.37622 0.0
H726 H 0.37447 0.2769 0.34078 0.0
H727 H 0.36478 0.30178 0.36818 0.0
C728 C 0.22959 0.90557 0.02403 0.0
C729 C 0.20063 0.90499 0.02969 0.0
C730 C 0.2415 0.92688 0.01082 0.0
C731 C 0.22409 0.94823 0.00357 0.0
C732 C 0.1949 0.94771 0.00932 0.0
C733 C 0.18355 0.92607 0.02209 0.0
C734 C 0.27261 0.92658 0.00461 0.0
C735 C 0.17558 0.9702 0.0022 0.0
C736 C 0.2483 0.01916 0.99405 0.0
C737 C 0.24396 0.02019 0.96571 0.0
C738 C 0.24417 0.99513 0.00653 0.0
C739 C 0.23588 0.97148 0.9902 0.0
C740 C 0.23432 0.97174 0.96127 0.0
C741 C 0.2382 0.99613 0.94937 0.0
C742 C 0.24614 0.99575 0.03744 0.0
C743 C 0.22602 0.94683 0.94307 0.0
H744 H 0.24291 0.88928 0.0297 0.0
H745 H 0.1612 0.92594 0.02654 0.0
H746 H 0.27592 0.92773 0.98227 0.0
H747 H 0.28299 0.94452 0.01543 0.0
H748 H 0.28311 0.90815 0.01088 0.0
H749 H 0.15344 0.96687 0.00837 0.0
H750 H 0.18299 0.98971 0.01257 0.0
H751 H 0.17597 0.97204 0.97973 0.0
H752 H 0.25343 0.03753 0.00674 0.0
H753 H 0.2347 0.99663 0.92748 0.0
H754 H 0.25755 0.97783 0.04365 0.0
H755 H 0.2246 0.9952 0.0461 0.0
H756 H 0.25695 0.01424 0.04668 0.0
H757 H 0.23699 0.92877 0.94954 0.0
H758 H 0.23085 0.94892 0.92113 0.0
H759 H 0.20303 0.94331 0.94489 0.0
C760 C 0.54959 0.70688 0.47894 0.0
C761 C 0.56076 0.6816 0.48376 0.0
C762 C 0.52111 0.70957 0.47151 0.0
C763 C 0.50343 0.6865 0.46908 0.0
C764 C 0.51475 0.66092 0.4733 0.0
C765 C 0.54318 0.65878 0.48046 0.0
C766 C 0.50982 0.73712 0.46683 0.0
C767 C 0.49663 0.63577 0.47094 0.0
C768 C 0.42463 0.68777 0.47998 0.0
C769 C 0.41462 0.68068 0.45323 0.0
C770 C 0.45349 0.69174 0.48524 0.0
C771 C 0.47279 0.68874 0.46318 0.0
C772 C 0.4626 0.68381 0.4359 0.0
C773 C 0.43362 0.67973 0.43125 0.0
C774 C 0.46346 0.69708 0.51464 0.0
C775 C 0.48245 0.68077 0.41179 0.0
H776 H 0.56297 0.72463 0.48131 0.0
H777 H 0.55147 0.63911 0.48399 0.0
H778 H 0.49881 0.73647 0.44668 0.0
H779 H 0.49413 0.74338 0.48288 0.0
H780 H 0.52672 0.75264 0.46737 0.0
H781 H 0.50883 0.61732 0.47431 0.0
H782 H 0.47944 0.63787 0.48629 0.0
H783 H 0.48665 0.63298 0.45029 0.0
H784 H 0.40999 0.68913 0.497 0.0
H785 H 0.42614 0.67416 0.41051 0.0
H786 H 0.47908 0.71377 0.51655 0.0
H787 H 0.47405 0.67881 0.52112 0.0
H788 H 0.44579 0.70228 0.52895 0.0
H789 H 0.49886 0.69677 0.41365 0.0
H790 H 0.47118 0.68162 0.39189 0.0
H791 H 0.49334 0.66105 0.4115 0.0
C792 C 0.33083 0.3997 0.65691 0.0
C793 C 0.34621 0.40201 0.63275 0.0
C794 C 0.3349 0.41803 0.68018 0.0
C795 C 0.35456 0.43935 0.67915 0.0
C796 C 0.37027 0.44169 0.65492 0.0
C797 C 0.36603 0.42293 0.63209 0.0
C798 C 0.31801 0.41469 0.70578 0.0
C799 C 0.39127 0.46431 0.65293 0.0
C800 C 0.34599 0.5032 0.72688 0.0
C801 C 0.36733 0.50035 0.74635 0.0
C802 C 0.34127 0.48325 0.70519 0.0
C803 C 0.35817 0.45977 0.70306 0.0
C804 C 0.37925 0.45643 0.72309 0.0
C805 C 0.3837 0.47686 0.74442 0.0
C806 C 0.31879 0.4877 0.68409 0.0
C807 C 0.39744 0.43151 0.72168 0.0
H808 H 0.31564 0.38348 0.65772 0.0
H809 H 0.37797 0.42495 0.61352 0.0
H810 H 0.33235 0.41342 0.72363 0.0
H811 H 0.3044 0.43258 0.71046 0.0
H812 H 0.30447 0.39637 0.70365 0.0
H813 H 0.40206 0.46309 0.63274 0.0
H814 H 0.3804 0.48405 0.65606 0.0
H815 H 0.40743 0.46386 0.66937 0.0
H816 H 0.33355 0.5215 0.72809 0.0
H817 H 0.40006 0.47451 0.75959 0.0
H818 H 0.30377 0.47051 0.68231 0.0
H819 H 0.32861 0.4887 0.66363 0.0
H820 H 0.30682 0.50661 0.68925 0.0
H821 H 0.38403 0.41313 0.7205 0.0
H822 H 0.41174 0.43127 0.73973 0.0
H823 H 0.41039 0.43043 0.70277 0.0
C824 C 0.05131 0.77673 0.09185 0.0
C825 C 0.05982 0.80247 0.08539 0.0
C826 C 0.0234 0.77187 0.09981 0.0
C827 C 0.0036 0.79318 0.10102 0.0
C828 C 0.0122 0.8192 0.09485 0.0
C829 C 0.04009 0.82352 0.08728 0.0
C830 C 0.01501 0.74397 0.1066 0.0
C831 C 0.99178 0.84255 0.09578 0.0
C832 C 0.92483 0.78686 0.09227 0.0
C833 C 0.91564 0.79624 0.11865 0.0
C834 C 0.95358 0.78317 0.08667 0.0
C835 C 0.97358 0.78878 0.10804 0.0
C836 C 0.96422 0.79543 0.13527 0.0
C837 C 0.93534 0.79921 0.14025 0.0
C838 C 0.9626 0.77591 0.05736 0.0
C839 C 0.98482 0.80119 0.15872 0.0
H840 H 0.06638 0.76035 0.09057 0.0
H841 H 0.04628 0.84352 0.08238 0.0
H842 H 0.00492 0.74495 0.1271 0.0
H843 H 0.99925 0.73534 0.0914 0.0
H844 H 0.0333 0.73008 0.10653 0.0
H845 H 0.00191 0.86154 0.09047 0.0
H846 H 0.97413 0.83768 0.08118 0.0
H847 H 0.98263 0.84611 0.11663 0.0
H848 H 0.90964 0.78388 0.07562 0.0
H849 H 0.92852 0.80647 0.16071 0.0
H850 H 0.97976 0.76079 0.05644 0.0
H851 H 0.97087 0.79422 0.04867 0.0
H852 H 0.94482 0.76779 0.04422 0.0
H853 H 0.00235 0.78645 0.15732 0.0
H854 H 0.97445 0.80063 0.17901 0.0
H855 H 0.99408 0.82157 0.15765 0.0
C856 C 0.69868 0.57509 0.5542 0.0
C857 C 0.71304 0.59514 0.5413 0.0
C858 C 0.71331 0.55592 0.56803 0.0
C859 C 0.7431 0.55687 0.56928 0.0
C860 C 0.7578 0.57728 0.55674 0.0
C861 C 0.74259 0.59612 0.54275 0.0
C862 C 0.69682 0.53435 0.58099 0.0
C863 C 0.78953 0.57909 0.55795 0.0
C864 C 0.77198 0.51701 0.62568 0.0
C865 C 0.77686 0.49184 0.6112 0.0
C866 C 0.76294 0.53912 0.61198 0.0
C867 C 0.75851 0.53588 0.58318 0.0
C868 C 0.7654 0.51112 0.56824 0.0
C869 C 0.77462 0.48944 0.58242 0.0
C870 C 0.75616 0.5653 0.62861 0.0
C871 C 0.76105 0.50684 0.53751 0.0
H872 H 0.67589 0.57405 0.55318 0.0
H873 H 0.75388 0.61163 0.53301 0.0
H874 H 0.70307 0.51411 0.57168 0.0
H875 H 0.70165 0.53513 0.60329 0.0
H876 H 0.6737 0.53657 0.57836 0.0
H877 H 0.79773 0.59682 0.54813 0.0
H878 H 0.79684 0.58044 0.57964 0.0
H879 H 0.79882 0.56055 0.54744 0.0
H880 H 0.7735 0.51904 0.64792 0.0
H881 H 0.77891 0.47019 0.57106 0.0
H882 H 0.73296 0.56769 0.62995 0.0
H883 H 0.76458 0.58273 0.61851 0.0
H884 H 0.76486 0.56596 0.64982 0.0
H885 H 0.73814 0.50627 0.53284 0.0
H886 H 0.77056 0.48767 0.52858 0.0
H887 H 0.77025 0.52379 0.52724 0.0
C888 C 0.886 0.21126 0.10879 0.0
C889 C 0.89161 0.18698 0.09286 0.0
C890 C 0.89585 0.2157 0.13601 0.0
C891 C 0.91196 0.19553 0.14744 0.0
C892 C 0.91741 0.17089 0.13159 0.0
C893 C 0.90705 0.16687 0.1046 0.0
C894 C 0.88934 0.24207 0.15242 0.0
C895 C 0.93469 0.14893 0.14296 0.0
C896 C 0.96452 0.21234 0.20515 0.0
C897 C 0.9509 0.20213 0.22746 0.0
C898 C 0.95152 0.21148 0.17923 0.0
C899 C 0.92415 0.2003 0.17558 0.0
C900 C 0.90965 0.1914 0.1984 0.0
C901 C 0.92327 0.19227 0.22406 0.0
C902 C 0.96778 0.22101 0.15539 0.0
C903 C 0.88029 0.17972 0.19541 0.0
H904 H 0.8739 0.22685 0.10001 0.0
H905 H 0.91159 0.14807 0.0925 0.0
H906 H 0.87921 0.23823 0.17213 0.0
H907 H 0.90918 0.25328 0.15756 0.0
H908 H 0.87523 0.25506 0.1411 0.0
H909 H 0.93664 0.13079 0.12812 0.0
H910 H 0.95615 0.15665 0.14836 0.0
H911 H 0.925 0.14281 0.16207 0.0
H912 H 0.986 0.21965 0.20755 0.0
H913 H 0.91259 0.1846 0.24133 0.0
H914 H 0.95485 0.23508 0.14424 0.0
H915 H 0.97287 0.20348 0.14062 0.0
H916 H 0.98776 0.23132 0.1621 0.0
H917 H 0.86645 0.19312 0.18436 0.0
H918 H 0.87071 0.17669 0.21562 0.0
H919 H 0.88101 0.15995 0.18301 0.0
C920 C 0.16555 0.74759 0.14416 0.0
C921 C 0.18362 0.76869 0.13824 0.0
C922 C 0.16943 0.73401 0.16793 0.0
C923 C 0.19202 0.74158 0.18605 0.0
C924 C 0.21043 0.76269 0.18009 0.0
C925 C 0.20595 0.77602 0.15637 0.0
C926 C 0.14928 0.71171 0.17376 0.0
C927 C 0.23491 0.77123 0.1988 0.0
C928 C 0.19303 0.72755 0.26108 0.0
C929 C 0.21213 0.70609 0.26079 0.0
C930 C 0.18506 0.73839 0.23664 0.0
C931 C 0.19666 0.72763 0.21138 0.0
C932 C 0.21491 0.70514 0.21082 0.0
C933 C 0.22237 0.6946 0.23555 0.0
C934 C 0.16528 0.76218 0.23804 0.0
C935 C 0.22784 0.69319 0.18431 0.0
H936 H 0.14817 0.74184 0.13037 0.0
H937 H 0.22014 0.79218 0.15197 0.0
H938 H 0.161 0.69264 0.17527 0.0
H939 H 0.13887 0.71674 0.19384 0.0
H940 H 0.13278 0.70824 0.15761 0.0
H941 H 0.24748 0.7878 0.19103 0.0
H942 H 0.22708 0.77812 0.21961 0.0
H943 H 0.24901 0.75381 0.20101 0.0
H944 H 0.18479 0.73626 0.28053 0.0
H945 H 0.23735 0.67817 0.23524 0.0
H946 H 0.14809 0.75861 0.22267 0.0
H947 H 0.17692 0.78045 0.23299 0.0
H948 H 0.15582 0.7663 0.25874 0.0
H949 H 0.21135 0.68905 0.1683 0.0
H950 H 0.23932 0.67417 0.18697 0.0
H951 H 0.24284 0.70788 0.17662 0.0
C952 C 0.76521 0.71708 0.53899 0.0
C953 C 0.73692 0.72384 0.54414 0.0
C954 C 0.78699 0.72924 0.55524 0.0
C955 C 0.78034 0.7485 0.5773 0.0
C956 C 0.75192 0.7558 0.58234 0.0
C957 C 0.73054 0.74346 0.56564 0.0
C958 C 0.81708 0.72106 0.54912 0.0
C959 C 0.74403 0.77617 0.6058 0.0
C960 C 0.8329 0.75744 0.63616 0.0
C961 C 0.84678 0.78128 0.63072 0.0
C962 C 0.81109 0.74669 0.61904 0.0
C963 C 0.80306 0.76007 0.59584 0.0
C964 C 0.81695 0.78418 0.59022 0.0
C965 C 0.83862 0.79456 0.60781 0.0
C966 C 0.79663 0.72104 0.62581 0.0
C967 C 0.80908 0.79885 0.56554 0.0
H968 H 0.77042 0.7021 0.52233 0.0
H969 H 0.70877 0.7488 0.56984 0.0
H970 H 0.83013 0.73915 0.54636 0.0
H971 H 0.82609 0.7113 0.56674 0.0
H972 H 0.81882 0.70682 0.53037 0.0
H973 H 0.72107 0.78042 0.60631 0.0
H974 H 0.75028 0.76857 0.62562 0.0
H975 H 0.75556 0.79537 0.60414 0.0
H976 H 0.83884 0.74735 0.65409 0.0
H977 H 0.84946 0.8129 0.60345 0.0
H978 H 0.79914 0.70517 0.60857 0.0
H979 H 0.77371 0.72461 0.6285 0.0
H980 H 0.80516 0.71333 0.64483 0.0
H981 H 0.81217 0.78542 0.54643 0.0
H982 H 0.82177 0.81749 0.56421 0.0
H983 H 0.78646 0.80438 0.56643 0.0
C984 C 0.77716 0.24228 0.06776 0.0
C985 C 0.77009 0.2222 0.04683 0.0
C986 C 0.75637 0.25496 0.08456 0.0
C987 C 0.72777 0.24755 0.08022 0.0
C988 C 0.72042 0.22743 0.05907 0.0
C989 C 0.74168 0.21491 0.04269 0.0
C990 C 0.76504 0.2762 0.10707 0.0
C991 C 0.69011 0.21917 0.05374 0.0
C992 C 0.67901 0.26418 0.14059 0.0
C993 C 0.66737 0.28874 0.13416 0.0
C994 C 0.6981 0.25014 0.12282 0.0
C995 C 0.70565 0.26088 0.098 0.0
C996 C 0.69319 0.28514 0.09089 0.0
C997 C 0.67422 0.29881 0.10909 0.0
C998 C 0.71087 0.22426 0.13105 0.0
C999 C 0.70069 0.29717 0.06455 0.0
H1000 H 0.79903 0.24795 0.07126 0.0
H1001 H 0.73597 0.1995 0.02651 0.0
H1002 H 0.75455 0.2956 0.10396 0.0
H1003 H 0.75816 0.27012 0.12731 0.0
H1004 H 0.78819 0.27958 0.10781 0.0
H1005 H 0.68789 0.20332 0.03635 0.0
H1006 H 0.68099 0.21146 0.07241 0.0
H1007 H 0.67749 0.23694 0.04907 0.0
H1008 H 0.67347 0.25612 0.15976 0.0
H1009 H 0.66557 0.31793 0.10413 0.0
H1010 H 0.73391 0.22697 0.13414 0.0
H1011 H 0.70778 0.20781 0.11443 0.0
H1012 H 0.70162 0.21786 0.15029 0.0
H1013 H 0.72317 0.30338 0.06518 0.0
H1014 H 0.68762 0.31506 0.0611 0.0
H1015 H 0.69796 0.28192 0.04673 0.0
C1016 C 0.31227 0.28638 0.66032 0.0
C1017 C 0.3245 0.27382 0.63643 0.0
C1018 C 0.30982 0.27285 0.6842 0.0
C1019 C 0.31957 0.246 0.68414 0.0
C1020 C 0.33248 0.23337 0.66032 0.0
C1021 C 0.33492 0.24748 0.63679 0.0
C1022 C 0.29619 0.2871 0.70931 0.0
C1023 C 0.34294 0.20468 0.65942 0.0
C1024 C 0.32922 0.21707 0.75309 0.0
C1025 C 0.30355 0.20351 0.75557 0.0
C1026 C 0.33495 0.23077 0.72978 0.0
C1027 C 0.31462 0.23062 0.70843 0.0
C1028 C 0.28899 0.21638 0.71057 0.0
C1029 C 0.28375 0.20307 0.73414 0.0
C1030 C 0.36243 0.24589 0.72826 0.0
C1031 C 0.2669 0.21549 0.68812 0.0
H1032 H 0.30444 0.30683 0.66037 0.0
H1033 H 0.3444 0.23759 0.61844 0.0
H1034 H 0.27624 0.27671 0.71379 0.0
H1035 H 0.31016 0.28629 0.7275 0.0
H1036 H 0.29144 0.30855 0.70661 0.0
H1037 H 0.35385 0.19828 0.63987 0.0
H1038 H 0.35765 0.2024 0.67678 0.0
H1039 H 0.32492 0.19083 0.66176 0.0
H1040 H 0.34448 0.21756 0.76971 0.0
H1041 H 0.26407 0.19223 0.73581 0.0
H1042 H 0.35821 0.26774 0.72758 0.0
H1043 H 0.37373 0.23898 0.7091 0.0
H1044 H 0.37644 0.24319 0.74609 0.0
H1045 H 0.25926 0.23619 0.68564 0.0
H1046 H 0.24855 0.20268 0.69253 0.0
H1047 H 0.27617 0.20758 0.66822 0.0
C1048 C 0.69865 0.71779 0.40928 0.0
C1049 C 0.67839 0.72568 0.42921 0.0
C1050 C 0.70187 0.73161 0.38574 0.0
C1051 C 0.68431 0.75388 0.38181 0.0
C1052 C 0.66359 0.76188 0.4016 0.0
C1053 C 0.66091 0.74773 0.42515 0.0
C1054 C 0.72431 0.72246 0.36516 0.0
C1055 C 0.64439 0.78544 0.39795 0.0
C1056 C 0.71625 0.80019 0.33284 0.0
C1057 C 0.70449 0.7898 0.30768 0.0
C1058 C 0.70843 0.7899 0.35754 0.0
C1059 C 0.6883 0.7688 0.35704 0.0
C1060 C 0.67492 0.75958 0.33196 0.0
C1061 C 0.68326 0.77013 0.30754 0.0
C1062 C 0.72327 0.80022 0.38383 0.0
C1063 C 0.65312 0.73734 0.33062 0.0
H1064 H 0.71232 0.70084 0.41211 0.0
H1065 H 0.64513 0.75395 0.44035 0.0
H1066 H 0.7146 0.71713 0.34469 0.0
H1067 H 0.73948 0.73913 0.36294 0.0
H1068 H 0.73617 0.7047 0.37125 0.0
H1069 H 0.62883 0.78864 0.41483 0.0
H1070 H 0.65705 0.80413 0.39719 0.0
H1071 H 0.63285 0.78211 0.37812 0.0
H1072 H 0.73283 0.81524 0.33307 0.0
H1073 H 0.67383 0.76234 0.28817 0.0
H1074 H 0.73793 0.78456 0.39016 0.0
H1075 H 0.70789 0.8044 0.40068 0.0
H1076 H 0.73556 0.8189 0.38143 0.0
H1077 H 0.66356 0.7179 0.33369 0.0
H1078 H 0.6419 0.73519 0.31053 0.0
H1079 H 0.63743 0.74117 0.34725 0.0
C1080 C 0.83967 0.24511 0.92249 0.0
C1081 C 0.82094 0.22472 0.92892 0.0
C1082 C 0.83577 0.25879 0.89881 0.0
C1083 C 0.81244 0.25212 0.88135 0.0
C1084 C 0.7935 0.23157 0.8877 0.0
C1085 C 0.79805 0.21804 0.9113 0.0
C1086 C 0.85656 0.2804 0.89251 0.0
C1087 C 0.76822 0.22403 0.86968 0.0
C1088 C 0.78279 0.30207 0.83459 0.0
C1089 C 0.79198 0.29114 0.80873 0.0
C1090 C 0.79019 0.29015 0.85856 0.0
C1091 C 0.80734 0.26684 0.85662 0.0
C1092 C 0.81778 0.25646 0.83072 0.0
C1093 C 0.80985 0.26868 0.80704 0.0
C1094 C 0.7785 0.30171 0.88578 0.0
C1095 C 0.8364 0.23185 0.82788 0.0
H1096 H 0.85754 0.25029 0.93586 0.0
H1097 H 0.7834 0.20241 0.91612 0.0
H1098 H 0.86562 0.27557 0.87177 0.0
H1099 H 0.84564 0.30006 0.89229 0.0
H1100 H 0.87405 0.28265 0.90776 0.0
H1101 H 0.75553 0.20756 0.87748 0.0
H1102 H 0.75448 0.24189 0.86841 0.0
H1103 H 0.77514 0.21745 0.84849 0.0
H1104 H 0.7687 0.31924 0.83596 0.0
H1105 H 0.81722 0.26036 0.78709 0.0
H1106 H 0.79567 0.30515 0.90119 0.0
H1107 H 0.76356 0.28708 0.89369 0.0
H1108 H 0.76727 0.32105 0.88408 0.0
H1109 H 0.85432 0.23431 0.84258 0.0
H1110 H 0.84487 0.22785 0.80675 0.0
H1111 H 0.8242 0.21391 0.83295 0.0
C1112 C 0.27428 0.25198 0.49731 0.0
C1113 C 0.26658 0.26959 0.52005 0.0
C1114 C 0.25382 0.23829 0.48055 0.0
C1115 C 0.22495 0.24203 0.48685 0.0
C1116 C 0.217 0.2593 0.51008 0.0
C1117 C 0.23791 0.27301 0.52633 0.0
C1118 C 0.26311 0.22022 0.45577 0.0
C1119 C 0.18642 0.2635 0.5176 0.0
C1120 C 0.17415 0.22729 0.4272 0.0
C1121 C 0.16571 0.20077 0.4307 0.0
C1122 C 0.19281 0.24123 0.44578 0.0
C1123 C 0.20316 0.22841 0.46852 0.0
C1124 C 0.19389 0.20205 0.47278 0.0
C1125 C 0.17532 0.1885 0.45376 0.0
C1126 C 0.20217 0.26936 0.44057 0.0
C1127 C 0.20435 0.1878 0.49689 0.0
H1128 H 0.29634 0.2493 0.49219 0.0
H1129 H 0.23176 0.28644 0.54396 0.0
H1130 H 0.25474 0.19952 0.45691 0.0
H1131 H 0.25445 0.2278 0.43677 0.0
H1132 H 0.28641 0.21914 0.45399 0.0
H1133 H 0.1838 0.27672 0.53697 0.0
H1134 H 0.17517 0.27275 0.50084 0.0
H1135 H 0.17613 0.2438 0.51999 0.0
H1136 H 0.1664 0.23706 0.40968 0.0
H1137 H 0.16913 0.16793 0.45646 0.0
H1138 H 0.22517 0.26948 0.43662 0.0
H1139 H 0.1983 0.28354 0.45898 0.0
H1140 H 0.19112 0.27695 0.4227 0.0
H1141 H 0.22726 0.18386 0.4947 0.0
H1142 H 0.19336 0.16826 0.49853 0.0
H1143 H 0.20139 0.20075 0.51634 0.0
C1144 C 0.23671 0.7481 0.01409 0.0
C1145 C 0.2365 0.77594 0.02167 0.0
C1146 C 0.25793 0.73638 0.9971 0.0
C1147 C 0.279 0.75302 0.98694 0.0
C1148 C 0.27887 0.78115 0.99452 0.0
C1149 C 0.2578 0.79223 0.01207 0.0
C1150 C 0.25771 0.70624 0.98989 0.0
C1151 C 0.30063 0.79961 0.98362 0.0
C1152 C 0.34721 0.72173 0.95926 0.0
C1153 C 0.34172 0.71877 0.93093 0.0
C1154 C 0.32688 0.73263 0.97781 0.0
C1155 C 0.30067 0.74112 0.96767 0.0
C1156 C 0.29513 0.73836 0.93905 0.0
C1157 C 0.31567 0.72705 0.92104 0.0
C1158 C 0.33336 0.7349 0.00823 0.0
C1159 C 0.2676 0.74755 0.92743 0.0
H1160 H 0.2204 0.73542 0.02166 0.0
H1161 H 0.25756 0.8138 0.01769 0.0
H1162 H 0.25475 0.70175 0.96741 0.0
H1163 H 0.27826 0.69753 0.99538 0.0
H1164 H 0.24071 0.696 0.00062 0.0
H1165 H 0.29768 0.82101 0.99164 0.0
H1166 H 0.3221 0.79322 0.98927 0.0
H1167 H 0.29948 0.79825 0.96084 0.0
H1168 H 0.36727 0.71512 0.96693 0.0
H1169 H 0.31154 0.72505 0.8991 0.0
H1170 H 0.31735 0.72362 0.01915 0.0
H1171 H 0.33228 0.75631 0.01668 0.0
H1172 H 0.35456 0.72695 0.01278 0.0
H1173 H 0.2498 0.73647 0.93588 0.0
H1174 H 0.26678 0.74433 0.90463 0.0
H1175 H 0.26441 0.76932 0.93362 0.0
loop_
_geom_bond_atom_site_label_1
_geom_bond_atom_site_label_2
_geom_bond_distance
_geom_bond_site_symmetry_2
_ccdc_geom_bond_type
Sc0 O3 2.025 . S
Sc0 O10 2.105 . S
Sc0 O13 2.105 . S
Sc0 O16 2.105 . S
Sc0 O19 2.105 . S
Sc1 O3 2.025 . S
Sc1 O11 2.105 . S
Sc1 O15 2.105 . S
Sc1 O17 2.105 . S
Sc1 O21 2.105 . S
Sc2 O3 2.025 . S
Sc2 O12 2.105 . S
Sc2 O14 2.105 . S
Sc2 O18 2.105 . S
Sc2 O20 2.105 . S
O3 Sc0 2.025 . S
O3 Sc1 2.025 . S
O3 Sc2 2.025 . S
C4 O10 1.268 . S
C4 O20 1.268 . S
C5 O11 1.268 1_556 S
C5 O19 1.268 1_556 S
C6 O12 1.268 . S
C6 O21 1.268 . S
C7 O13 1.268 . S
C7 O17 1.268 . S
C8 O14 1.268 . S
C8 O16 1.268 . S
C9 O15 1.268 . S
C9 O18 1.268 . S
O10 Sc0 2.105 . S
O10 C4 1.268 . S
O11 Sc1 2.105 . S
O11 C5 1.268 1_554 S
O12 Sc2 2.105 . S
O12 C6 1.268 . S
O13 Sc0 2.105 . S
O13 C7 1.268 . S
O14 Sc2 2.105 . S
O14 C8 1.268 . S
O15 Sc1 2.105 . S
O15 C9 1.268 . S
O16 Sc0 2.105 . S
O16 C8 1.268 . S
O17 Sc1 2.105 . S
O17 C7 1.268 . S
O18 Sc2 2.105 . S
O18 C9 1.268 . S
O19 Sc0 2.105 . S
O19 C5 1.268 1_554 S
O20 Sc2 2.105 . S
O20 C4 1.268 . S
O21 Sc1 2.105 . S
O21 C6 1.268 . S
Sc22 O25 2.025 . S
Sc22 O32 2.105 . S
Sc22 O35 2.105 . S
Sc22 O38 2.105 . S
Sc22 O41 2.105 . S
Sc23 O25 2.025 . S
Sc23 O33 2.105 . S
Sc23 O37 2.105 . S
Sc23 O39 2.105 . S
Sc23 O43 2.105 . S
Sc24 O25 2.025 . S
Sc24 O34 2.105 . S
Sc24 O36 2.105 . S
Sc24 O40 2.105 . S
Sc24 O42 2.105 . S
O25 Sc22 2.025 . S
O25 Sc23 2.025 . S
O25 Sc24 2.025 . S
C26 O32 1.268 . S
C26 O42 1.268 . S
C27 O33 1.268 . S
C27 O41 1.268 . S
C28 O34 1.268 . S
C28 O43 1.268 . S
C29 O35 1.268 . S
C29 O39 1.268 . S
C30 O36 1.268 . S
C30 O38 1.268 . S
C31 O37 1.268 . S
C31 O40 1.268 . S
O32 Sc22 2.105 . S
O32 C26 1.268 . S
O33 Sc23 2.105 . S
O33 C27 1.268 . S
O34 Sc24 2.105 . S
O34 C28 1.268 . S
O35 Sc22 2.105 . S
O35 C29 1.268 . S
O36 Sc24 2.105 . S
O36 C30 1.268 . S
O37 Sc23 2.105 . S
O37 C31 1.268 . S
O38 Sc22 2.105 . S
O38 C30 1.268 . S
O39 Sc23 2.105 . S
O39 C29 1.268 . S
O40 Sc24 2.105 . S
O40 C31 1.268 . S
O41 Sc22 2.105 . S
O41 C27 1.268 . S
O42 Sc24 2.105 . S
O42 C26 1.268 . S
O43 Sc23 2.105 . S
O43 C28 1.268 . S
Sc44 O47 2.025 . S
Sc44 O54 2.105 . S
Sc44 O57 2.105 . S
Sc44 O60 2.105 . S
Sc44 O63 2.105 1_554 S
Sc45 O47 2.025 1_556 S
Sc45 O55 2.105 . S
Sc45 O59 2.105 1_556 S
Sc45 O61 2.105 1_556 S
Sc45 O65 2.105 . S
Sc46 O47 2.025 . S
Sc46 O56 2.105 1_554 S
Sc46 O58 2.105 . S
Sc46 O62 2.105 . S
Sc46 O64 2.105 1_554 S
O47 Sc44 2.025 . S
O47 Sc45 2.025 1_554 S
O47 Sc46 2.025 . S
C48 O54 1.268 1_556 S
C48 O64 1.268 . S
C49 O55 1.268 . S
C49 O63 1.268 . S
C50 O56 1.268 . S
C50 O65 1.268 . S
C51 O57 1.268 . S
C51 O61 1.268 . S
C52 O58 1.268 . S
C52 O60 1.268 . S
C53 O59 1.268 . S
C53 O62 1.268 . S
O54 Sc44 2.105 . S
O54 C48 1.268 1_554 S
O55 Sc45 2.105 . S
O55 C49 1.268 . S
O56 Sc46 2.105 1_556 S
O56 C50 1.268 . S
O57 Sc44 2.105 . S
O57 C51 1.268 . S
O58 Sc46 2.105 . S
O58 C52 1.268 . S
O59 Sc45 2.105 1_554 S
O59 C53 1.268 . S
O60 Sc44 2.105 . S
O60 C52 1.268 . S
O61 Sc45 2.105 1_554 S
O61 C51 1.268 . S
O62 Sc46 2.105 . S
O62 C53 1.268 . S
O63 Sc44 2.105 1_556 S
O63 C49 1.268 . S
O64 Sc46 2.105 1_556 S
O64 C48 1.268 . S
O65 Sc45 2.105 . S
O65 C50 1.268 . S
Sc66 O69 2.025 . S
Sc66 O76 2.105 . S
Sc66 O79 2.105 . S
Sc66 O82 2.105 . S
Sc66 O85 2.105 . S
Sc67 O69 2.025 . S
Sc67 O77 2.105 . S
Sc67 O81 2.105 . S
Sc67 O83 2.105 . S
Sc67 O87 2.105 . S
Sc68 O69 2.025 . S
Sc68 O78 2.105 . S
Sc68 O80 2.105 . S
Sc68 O84 2.105 . S
Sc68 O86 2.105 . S
O69 Sc66 2.025 . S
O69 Sc67 2.025 . S
O69 Sc68 2.025 . S
C70 O76 1.268 . S
C70 O86 1.268 . S
C71 O77 1.268 . S
C71 O85 1.268 . S
C72 O78 1.268 . S
C72 O87 1.268 . S
C73 O79 1.268 . S
C73 O83 1.268 . S
C74 O80 1.268 . S
C74 O82 1.268 . S
C75 O81 1.268 . S
C75 O84 1.268 . S
O76 Sc66 2.105 . S
O76 C70 1.268 . S
O77 Sc67 2.105 . S
O77 C71 1.268 . S
O78 Sc68 2.105 . S
O78 C72 1.268 . S
O79 Sc66 2.105 . S
O79 C73 1.268 . S
O80 Sc68 2.105 . S
O80 C74 1.268 . S
O81 Sc67 2.105 . S
O81 C75 1.268 . S
O82 Sc66 2.105 . S
O82 C74 1.268 . S
O83 Sc67 2.105 . S
O83 C73 1.268 . S
O84 Sc68 2.105 . S
O84 C75 1.268 . S
O85 Sc66 2.105 . S
O85 C71 1.268 . S
O86 Sc68 2.105 . S
O86 C70 1.268 . S
O87 Sc67 2.105 . S
O87 C72 1.268 . S
C88 C89 1.264 . S
C88 C93 1.479 . S
C88 C98 1.465 1_655 S
C89 C88 1.264 . S
C89 C91 1.339 . S
C89 H116 0.931 . S
C90 C91 1.395 . S
C90 C92 1.320 . S
C91 C89 1.339 . S
C91 C90 1.395 . S
C91 H117 0.929 . S
C92 C90 1.320 . S
C92 C93 1.405 . S
C92 H118 0.930 . S
C93 C88 1.479 . S
C93 C92 1.405 . S
C93 H119 0.931 . S
U94 O95 2.454 . S
U94 O96 2.458 . S
U94 C97 2.984 . S
U94 C98 2.847 . S
U94 C111 2.882 . S
U94 O112 2.441 . S
U94 O113 2.420 . S
U94 O114 2.455 . S
U94 O115 2.449 . S
O95 U94 2.454 . S
O95 C97 1.353 . S
O96 U94 2.458 . S
O96 C97 1.286 . S
C97 U94 2.984 . S
C97 O95 1.353 . S
C97 O96 1.286 . S
C97 C99 1.363 . S
C98 C88 1.465 1_455 S
C98 U94 2.847 . S
C98 O112 1.249 . S
C98 O113 1.202 . S
C99 C97 1.363 . S
C99 C101 1.408 . S
C99 C104 1.342 . S
C100 C101 1.310 . S
C100 C103 1.461 . S
C100 H120 0.932 . S
C101 C99 1.408 . S
C101 C100 1.310 . S
C101 H121 0.930 . S
C102 C103 1.474 . S
C102 C104 1.285 . S
C102 H122 0.929 . S
C103 C100 1.461 . S
C103 C102 1.474 . S
C104 C99 1.342 . S
C104 C102 1.285 . S
C104 H123 0.930 . S
C105 C108 1.424 . S
C105 C110 1.245 . S
C105 C111 1.428 . S
C106 C109 1.260 1_545 S
C106 C110 1.477 . S
C106 H124 0.932 . S
C107 C108 1.384 . S
C107 C109 1.479 1_545 S
C107 H125 0.929 . S
C108 C105 1.424 . S
C108 C107 1.384 . S
C108 H126 0.928 . S
C109 C106 1.260 1_565 S
C109 C107 1.479 1_565 S
C110 C105 1.245 . S
C110 C106 1.477 . S
C110 H127 0.932 . S
C111 U94 2.882 . S
C111 C105 1.428 . S
C111 O114 1.301 . S
C111 O115 1.282 . S
O112 U94 2.441 . S
O112 C98 1.249 . S
O113 U94 2.420 . S
O113 C98 1.202 . S
O114 U94 2.455 . S
O114 C111 1.301 . S
O115 U94 2.449 . S
O115 C111 1.282 . S
H116 C89 0.931 . S
H117 C91 0.929 . S
H118 C92 0.930 . S
H119 C93 0.931 . S
H120 C100 0.932 . S
H121 C101 0.930 . S
H122 C102 0.929 . S
H123 C104 0.930 . S
H124 C106 0.932 . S
H125 C107 0.929 . S
H126 C108 0.928 . S
H127 C110 0.932 . S
C128 C129 1.264 . S
C128 C133 1.479 . S
C128 C138 1.465 . S
C129 C128 1.264 . S
C129 C131 1.339 . S
C129 H156 0.931 . S
C130 C131 1.395 . S
C130 C132 1.320 . S
C131 C129 1.339 . S
C131 C130 1.395 . S
C131 H157 0.929 . S
C132 C130 1.320 . S
C132 C133 1.405 . S
C132 H158 0.930 . S
C133 C128 1.479 . S
C133 C132 1.405 . S
C133 H159 0.931 . S
U134 O135 2.454 . S
U134 O136 2.458 . S
U134 C137 2.984 . S
U134 C138 2.847 . S
U134 C151 2.882 . S
U134 O152 2.441 . S
U134 O153 2.420 . S
U134 O154 2.455 . S
U134 O155 2.449 . S
O135 U134 2.454 . S
O135 C137 1.353 . S
O136 U134 2.458 . S
O136 C137 1.286 . S
C137 U134 2.984 . S
C137 O135 1.353 . S
C137 O136 1.286 . S
C137 C139 1.363 . S
C138 C128 1.465 . S
C138 U134 2.847 . S
C138 O152 1.249 . S
C138 O153 1.202 . S
C139 C137 1.363 . S
C139 C141 1.408 . S
C139 C144 1.342 . S
C140 C141 1.310 . S
C140 C143 1.461 . S
C140 H160 0.932 . S
C141 C139 1.408 . S
C141 C140 1.310 . S
C141 H161 0.930 . S
C142 C143 1.474 . S
C142 C144 1.285 . S
C142 H162 0.929 . S
C143 C140 1.461 . S
C143 C142 1.474 . S
C144 C139 1.342 . S
C144 C142 1.285 . S
C144 H163 0.930 . S
C145 C148 1.424 . S
C145 C150 1.245 . S
C145 C151 1.428 . S
C146 C149 1.260 . S
C146 C150 1.477 . S
C146 H164 0.932 . S
C147 C148 1.384 . S
C147 C149 1.479 . S
C147 H165 0.929 . S
C148 C145 1.424 . S
C148 C147 1.384 . S
C148 H166 0.928 . S
C149 C146 1.260 . S
C149 C147 1.479 . S
C150 C145 1.245 . S
C150 C146 1.477 . S
C150 H167 0.932 . S
C151 U134 2.882 . S
C151 C145 1.428 . S
C151 O154 1.301 . S
C151 O155 1.282 . S
O152 U134 2.441 . S
O152 C138 1.249 . S
O153 U134 2.420 . S
O153 C138 1.202 . S
O154 U134 2.455 . S
O154 C151 1.301 . S
O155 U134 2.449 . S
O155 C151 1.282 . S
H156 C129 0.931 . S
H157 C131 0.929 . S
H158 C132 0.930 . S
H159 C133 0.931 . S
H160 C140 0.932 . S
H161 C141 0.930 . S
H162 C142 0.929 . S
H163 C144 0.930 . S
H164 C146 0.932 . S
H165 C147 0.929 . S
H166 C148 0.928 . S
H167 C150 0.932 . S
C168 C169 1.264 . S
C168 C173 1.479 . S
C168 C178 1.465 . S
C169 C168 1.264 . S
C169 C171 1.339 . S
C169 H196 0.931 . S
C170 C171 1.395 . S
C170 C172 1.320 . S
C171 C169 1.339 . S
C171 C170 1.395 . S
C171 H197 0.929 . S
C172 C170 1.320 . S
C172 C173 1.405 . S
C172 H198 0.930 . S
C173 C168 1.479 . S
C173 C172 1.405 . S
C173 H199 0.931 . S
U174 O175 2.454 . S
U174 O176 2.458 . S
U174 C177 2.984 . S
U174 C178 2.847 . S
U174 C191 2.882 . S
U174 O192 2.441 . S
U174 O193 2.420 . S
U174 O194 2.455 . S
U174 O195 2.449 . S
O175 U174 2.454 . S
O175 C177 1.353 . S
O176 U174 2.458 . S
O176 C177 1.286 . S
C177 U174 2.984 . S
C177 O175 1.353 . S
C177 O176 1.286 . S
C177 C179 1.363 . S
C178 C168 1.465 . S
C178 U174 2.847 . S
C178 O192 1.249 . S
C178 O193 1.202 . S
C179 C177 1.363 . S
C179 C181 1.408 . S
C179 C184 1.342 . S
C180 C181 1.310 . S
C180 C183 1.461 . S
C180 H200 0.932 . S
C181 C179 1.408 . S
C181 C180 1.310 . S
C181 H201 0.930 . S
C182 C183 1.474 . S
C182 C184 1.285 . S
C182 H202 0.929 . S
C183 C180 1.461 . S
C183 C182 1.474 . S
C184 C179 1.342 . S
C184 C182 1.285 . S
C184 H203 0.930 . S
C185 C188 1.424 . S
C185 C190 1.245 . S
C185 C191 1.428 . S
C186 C189 1.260 . S
C186 C190 1.477 . S
C186 H204 0.932 . S
C187 C188 1.384 . S
C187 C189 1.479 . S
C187 H205 0.929 . S
C188 C185 1.424 . S
C188 C187 1.384 . S
C188 H206 0.928 . S
C189 C186 1.260 . S
C189 C187 1.479 . S
C190 C185 1.245 . S
C190 C186 1.477 . S
C190 H207 0.932 . S
C191 U174 2.882 . S
C191 C185 1.428 . S
C191 O194 1.301 . S
C191 O195 1.282 . S
O192 U174 2.441 . S
O192 C178 1.249 . S
O193 U174 2.420 . S
O193 C178 1.202 . S
O194 U174 2.455 . S
O194 C191 1.301 . S
O195 U174 2.449 . S
O195 C191 1.282 . S
H196 C169 0.931 . S
H197 C171 0.929 . S
H198 C172 0.930 . S
H199 C173 0.931 . S
H200 C180 0.932 . S
H201 C181 0.930 . S
H202 C182 0.929 . S
H203 C184 0.930 . S
H204 C186 0.932 . S
H205 C187 0.929 . S
H206 C188 0.928 . S
H207 C190 0.932 . S
C208 C209 1.264 . S
C208 C213 1.479 . S
C208 C218 1.465 . S
C209 C208 1.264 . S
C209 C211 1.339 . S
C209 H236 0.931 . S
C210 C211 1.395 . S
C210 C212 1.320 . S
C211 C209 1.339 . S
C211 C210 1.395 . S
C211 H237 0.929 . S
C212 C210 1.320 . S
C212 C213 1.405 . S
C212 H238 0.930 . S
C213 C208 1.479 . S
C213 C212 1.405 . S
C213 H239 0.931 . S
U214 O215 2.454 . S
U214 O216 2.458 . S
U214 C217 2.984 . S
U214 C218 2.847 . S
U214 C231 2.882 . S
U214 O232 2.441 . S
U214 O233 2.420 . S
U214 O234 2.455 . S
U214 O235 2.449 . S
O215 U214 2.454 . S
O215 C217 1.353 . S
O216 U214 2.458 . S
O216 C217 1.286 . S
C217 U214 2.984 . S
C217 O215 1.353 . S
C217 O216 1.286 . S
C217 C219 1.363 . S
C218 C208 1.465 . S
C218 U214 2.847 . S
C218 O232 1.249 . S
C218 O233 1.202 . S
C219 C217 1.363 . S
C219 C221 1.408 . S
C219 C224 1.342 . S
C220 C221 1.310 . S
C220 C223 1.461 . S
C220 H240 0.932 . S
C221 C219 1.408 . S
C221 C220 1.310 . S
C221 H241 0.930 . S
C222 C223 1.474 . S
C222 C224 1.285 . S
C222 H242 0.929 . S
C223 C220 1.461 . S
C223 C222 1.474 . S
C224 C219 1.342 . S
C224 C222 1.285 . S
C224 H243 0.930 . S
C225 C228 1.424 . S
C225 C230 1.245 . S
C225 C231 1.428 . S
C226 C229 1.260 . S
C226 C230 1.477 . S
C226 H244 0.932 . S
C227 C228 1.384 . S
C227 C229 1.479 . S
C227 H245 0.929 . S
C228 C225 1.424 . S
C228 C227 1.384 . S
C228 H246 0.928 . S
C229 C226 1.260 . S
C229 C227 1.479 . S
C230 C225 1.245 . S
C230 C226 1.477 . S
C230 H247 0.932 . S
C231 U214 2.882 . S
C231 C225 1.428 . S
C231 O234 1.301 . S
C231 O235 1.282 . S
O232 U214 2.441 . S
O232 C218 1.249 . S
O233 U214 2.420 . S
O233 C218 1.202 . S
O234 U214 2.455 . S
O234 C231 1.301 . S
O235 U214 2.449 . S
O235 C231 1.282 . S
H236 C209 0.931 . S
H237 C211 0.929 . S
H238 C212 0.930 . S
H239 C213 0.931 . S
H240 C220 0.932 . S
H241 C221 0.930 . S
H242 C222 0.929 . S
H243 C224 0.930 . S
H244 C226 0.932 . S
H245 C227 0.929 . S
H246 C228 0.928 . S
H247 C230 0.932 . S
C248 C249 1.264 . S
C248 C253 1.479 . S
C248 C258 1.465 . S
C249 C248 1.264 . S
C249 C251 1.339 . S
C249 H276 0.931 . S
C250 C251 1.395 . S
C250 C252 1.320 . S
C251 C249 1.339 . S
C251 C250 1.395 . S
C251 H277 0.929 . S
C252 C250 1.320 . S
C252 C253 1.405 . S
C252 H278 0.930 . S
C253 C248 1.479 . S
C253 C252 1.405 . S
C253 H279 0.931 . S
U254 O255 2.454 . S
U254 O256 2.458 . S
U254 C257 2.984 . S
U254 C258 2.847 . S
U254 C271 2.882 . S
U254 O272 2.441 . S
U254 O273 2.420 . S
U254 O274 2.455 . S
U254 O275 2.449 . S
O255 U254 2.454 . S
O255 C257 1.353 . S
O256 U254 2.458 . S
O256 C257 1.286 . S
C257 U254 2.984 . S
C257 O255 1.353 . S
C257 O256 1.286 . S
C257 C259 1.363 . S
C258 C248 1.465 . S
C258 U254 2.847 . S
C258 O272 1.249 . S
C258 O273 1.202 . S
C259 C257 1.363 . S
C259 C261 1.408 . S
C259 C264 1.342 . S
C260 C261 1.310 . S
C260 C263 1.461 . S
C260 H280 0.932 . S
C261 C259 1.408 . S
C261 C260 1.310 . S
C261 H281 0.930 . S
C262 C263 1.474 . S
C262 C264 1.285 . S
C262 H282 0.929 . S
C263 C260 1.461 . S
C263 C262 1.474 . S
C264 C259 1.342 . S
C264 C262 1.285 . S
C264 H283 0.930 . S
C265 C268 1.424 . S
C265 C270 1.245 . S
C265 C271 1.428 . S
C266 C269 1.260 . S
C266 C270 1.477 . S
C266 H284 0.932 . S
C267 C268 1.384 . S
C267 C269 1.479 . S
C267 H285 0.929 . S
C268 C265 1.424 . S
C268 C267 1.384 . S
C268 H286 0.928 . S
C269 C266 1.260 . S
C269 C267 1.479 . S
C270 C265 1.245 . S
C270 C266 1.477 . S
C270 H287 0.932 . S
C271 U254 2.882 . S
C271 C265 1.428 . S
C271 O274 1.301 . S
C271 O275 1.282 . S
O272 U254 2.441 . S
O272 C258 1.249 . S
O273 U254 2.420 . S
O273 C258 1.202 . S
O274 U254 2.455 . S
O274 C271 1.301 . S
O275 U254 2.449 . S
O275 C271 1.282 . S
H276 C249 0.931 . S
H277 C251 0.929 . S
H278 C252 0.930 . S
H279 C253 0.931 . S
H280 C260 0.932 . S
H281 C261 0.930 . S
H282 C262 0.929 . S
H283 C264 0.930 . S
H284 C266 0.932 . S
H285 C267 0.929 . S
H286 C268 0.928 . S
H287 C270 0.932 . S
C288 C289 1.264 . S
C288 C293 1.479 . S
C288 C298 1.465 . S
C289 C288 1.264 . S
C289 C291 1.339 . S
C289 H316 0.931 . S
C290 C291 1.395 . S
C290 C292 1.320 . S
C291 C289 1.339 . S
C291 C290 1.395 . S
C291 H317 0.929 . S
C292 C290 1.320 . S
C292 C293 1.405 . S
C292 H318 0.930 . S
C293 C288 1.479 . S
C293 C292 1.405 . S
C293 H319 0.931 . S
U294 O295 2.454 . S
U294 O296 2.458 . S
U294 C297 2.984 . S
U294 C298 2.847 . S
U294 C311 2.882 . S
U294 O312 2.441 . S
U294 O313 2.420 . S
U294 O314 2.455 . S
U294 O315 2.449 . S
O295 U294 2.454 . S
O295 C297 1.353 . S
O296 U294 2.458 . S
O296 C297 1.286 . S
C297 U294 2.984 . S
C297 O295 1.353 . S
C297 O296 1.286 . S
C297 C299 1.363 . S
C298 C288 1.465 . S
C298 U294 2.847 . S
C298 O312 1.249 . S
C298 O313 1.202 . S
C299 C297 1.363 . S
C299 C301 1.408 . S
C299 C304 1.342 . S
C300 C301 1.310 . S
C300 C303 1.461 . S
C300 H320 0.932 . S
C301 C299 1.408 . S
C301 C300 1.310 . S
C301 H321 0.930 . S
C302 C303 1.474 . S
C302 C304 1.285 . S
C302 H322 0.929 . S
C303 C300 1.461 . S
C303 C302 1.474 . S
C304 C299 1.342 . S
C304 C302 1.285 . S
C304 H323 0.930 . S
C305 C308 1.424 . S
C305 C310 1.245 . S
C305 C311 1.428 . S
C306 C309 1.260 . S
C306 C310 1.477 . S
C306 H324 0.932 . S
C307 C308 1.384 . S
C307 C309 1.479 . S
C307 H325 0.929 . S
C308 C305 1.424 . S
C308 C307 1.384 . S
C308 H326 0.928 . S
C309 C306 1.260 . S
C309 C307 1.479 . S
C310 C305 1.245 . S
C310 C306 1.477 . S
C310 H327 0.932 . S
C311 U294 2.882 . S
C311 C305 1.428 . S
C311 O314 1.301 . S
C311 O315 1.282 . S
O312 U294 2.441 . S
O312 C298 1.249 . S
O313 U294 2.420 . S
O313 C298 1.202 . S
O314 U294 2.455 . S
O314 C311 1.301 . S
O315 U294 2.449 . S
O315 C311 1.282 . S
H316 C289 0.931 . S
H317 C291 0.929 . S
H318 C292 0.930 . S
H319 C293 0.931 . S
H320 C300 0.932 . S
H321 C301 0.930 . S
H322 C302 0.929 . S
H323 C304 0.930 . S
H324 C306 0.932 . S
H325 C307 0.929 . S
H326 C308 0.928 . S
H327 C310 0.932 . S
C328 C329 1.264 . S
C328 C333 1.479 . S
C328 C338 1.465 . S
C329 C328 1.264 . S
C329 C331 1.339 . S
C329 H356 0.931 . S
C330 C331 1.395 . S
C330 C332 1.320 . S
C331 C329 1.339 . S
C331 C330 1.395 . S
C331 H357 0.929 . S
C332 C330 1.320 . S
C332 C333 1.405 . S
C332 H358 0.930 . S
C333 C328 1.479 . S
C333 C332 1.405 . S
C333 H359 0.931 . S
U334 O335 2.454 . S
U334 O336 2.458 . S
U334 C337 2.984 . S
U334 C338 2.847 . S
U334 C351 2.882 . S
U334 O352 2.441 . S
U334 O353 2.420 . S
U334 O354 2.455 . S
U334 O355 2.449 . S
O335 U334 2.454 . S
O335 C337 1.353 . S
O336 U334 2.458 . S
O336 C337 1.286 . S
C337 U334 2.984 . S
C337 O335 1.353 . S
C337 O336 1.286 . S
C337 C339 1.363 . S
C338 C328 1.465 . S
C338 U334 2.847 . S
C338 O352 1.249 . S
C338 O353 1.202 . S
C339 C337 1.363 . S
C339 C341 1.408 . S
C339 C344 1.342 . S
C340 C341 1.310 . S
C340 C343 1.461 . S
C340 H360 0.932 . S
C341 C339 1.408 . S
C341 C340 1.310 . S
C341 H361 0.930 . S
C342 C343 1.474 . S
C342 C344 1.285 . S
C342 H362 0.929 . S
C343 C340 1.461 . S
C343 C342 1.474 . S
C344 C339 1.342 . S
C344 C342 1.285 . S
C344 H363 0.930 . S
C345 C348 1.424 . S
C345 C350 1.245 . S
C345 C351 1.428 . S
C346 C349 1.260 . S
C346 C350 1.477 . S
C346 H364 0.932 . S
C347 C348 1.384 . S
C347 C349 1.479 . S
C347 H365 0.929 . S
C348 C345 1.424 . S
C348 C347 1.384 . S
C348 H366 0.928 . S
C349 C346 1.260 . S
C349 C347 1.479 . S
C350 C345 1.245 . S
C350 C346 1.477 . S
C350 H367 0.932 . S
C351 U334 2.882 . S
C351 C345 1.428 . S
C351 O354 1.301 . S
C351 O355 1.282 . S
O352 U334 2.441 . S
O352 C338 1.249 . S
O353 U334 2.420 . S
O353 C338 1.202 . S
O354 U334 2.455 . S
O354 C351 1.301 . S
O355 U334 2.449 . S
O355 C351 1.282 . S
H356 C329 0.931 . S
H357 C331 0.929 . S
H358 C332 0.930 . S
H359 C333 0.931 . S
H360 C340 0.932 . S
H361 C341 0.930 . S
H362 C342 0.929 . S
H363 C344 0.930 . S
H364 C346 0.932 . S
H365 C347 0.929 . S
H366 C348 0.928 . S
H367 C350 0.932 . S
C368 C369 1.264 . S
C368 C373 1.479 . S
C368 C378 1.465 . S
C369 C368 1.264 . S
C369 C371 1.339 . S
C369 H396 0.931 . S
C370 C371 1.395 1_545 S
C370 C372 1.320 1_545 S
C371 C369 1.339 . S
C371 C370 1.395 1_565 S
C371 H397 0.929 1_565 S
C372 C370 1.320 1_565 S
C372 C373 1.405 . S
C372 H398 0.930 1_565 S
C373 C368 1.479 . S
C373 C372 1.405 . S
C373 H399 0.931 . S
U374 O375 2.454 . S
U374 O376 2.458 . S
U374 C377 2.984 . S
U374 C378 2.847 . S
U374 C391 2.882 . S
U374 O392 2.441 . S
U374 O393 2.420 . S
U374 O394 2.455 . S
U374 O395 2.449 . S
O375 U374 2.454 . S
O375 C377 1.353 . S
O376 U374 2.458 . S
O376 C377 1.286 . S
C377 U374 2.984 . S
C377 O375 1.353 . S
C377 O376 1.286 . S
C377 C379 1.363 . S
C378 C368 1.465 . S
C378 U374 2.847 . S
C378 O392 1.249 . S
C378 O393 1.202 . S
C379 C377 1.363 . S
C379 C381 1.408 . S
C379 C384 1.342 . S
C380 C381 1.310 . S
C380 C383 1.461 . S
C380 H400 0.932 . S
C381 C379 1.408 . S
C381 C380 1.310 . S
C381 H401 0.930 . S
C382 C383 1.474 . S
C382 C384 1.285 . S
C382 H402 0.929 . S
C383 C380 1.461 . S
C383 C382 1.474 . S
C384 C379 1.342 . S
C384 C382 1.285 . S
C384 H403 0.930 . S
C385 C388 1.424 1_655 S
C385 C390 1.245 1_655 S
C385 C391 1.428 . S
C386 C389 1.260 . S
C386 C390 1.477 . S
C386 H404 0.932 . S
C387 C388 1.384 . S
C387 C389 1.479 . S
C387 H405 0.929 . S
C388 C385 1.424 1_455 S
C388 C387 1.384 . S
C388 H406 0.928 . S
C389 C386 1.260 . S
C389 C387 1.479 . S
C390 C385 1.245 1_455 S
C390 C386 1.477 . S
C390 H407 0.932 1_455 S
C391 U374 2.882 . S
C391 C385 1.428 . S
C391 O394 1.301 . S
C391 O395 1.282 . S
O392 U374 2.441 . S
O392 C378 1.249 . S
O393 U374 2.420 . S
O393 C378 1.202 . S
O394 U374 2.455 . S
O394 C391 1.301 . S
O395 U374 2.449 . S
O395 C391 1.282 . S
H396 C369 0.931 . S
H397 C371 0.929 1_545 S
H398 C372 0.930 1_545 S
H399 C373 0.931 . S
H400 C380 0.932 . S
H401 C381 0.930 . S
H402 C382 0.929 . S
H403 C384 0.930 . S
H404 C386 0.932 . S
H405 C387 0.929 . S
H406 C388 0.928 . S
H407 C390 0.932 1_655 S
C408 C409 1.391 . S
C408 C410 1.394 . S
C408 H424 0.931 . S
C409 C408 1.391 . S
C409 C413 1.376 . S
C410 C408 1.394 . S
C410 C411 1.369 . S
C410 C414 1.531 . S
C411 C410 1.369 . S
C411 C412 1.410 . S
C411 C419 1.503 . S
C412 C411 1.410 . S
C412 C413 1.392 . S
C412 C415 1.511 . S
C413 C409 1.376 . S
C413 C412 1.392 . S
C413 H425 0.929 . S
C414 C410 1.531 . S
C414 H426 0.960 . S
C414 H427 0.962 . S
C414 H428 0.960 . S
C415 C412 1.511 . S
C415 H429 0.961 . S
C415 H430 0.961 . S
C415 H431 0.961 . S
C416 C417 1.370 . S
C416 C418 1.363 . S
C416 H432 0.931 . S
C417 C416 1.370 . S
C417 C421 1.408 . S
C418 C416 1.363 . S
C418 C419 1.370 . S
C418 C422 1.524 . S
C419 C411 1.503 . S
C419 C418 1.370 . S
C419 C420 1.403 . S
C420 C419 1.403 . S
C420 C421 1.404 . S
C420 C423 1.539 . S
C421 C417 1.408 . S
C421 C420 1.404 . S
C421 H433 0.930 . S
C422 C418 1.524 . S
C422 H434 0.956 . S
C422 H435 0.961 . S
C422 H436 0.961 . S
C423 C420 1.539 . S
C423 H437 0.958 . S
C423 H438 0.961 . S
C423 H439 0.960 . S
H424 C408 0.931 . S
H425 C413 0.929 . S
H426 C414 0.960 . S
H427 C414 0.962 . S
H428 C414 0.960 . S
H429 C415 0.961 . S
H430 C415 0.961 . S
H431 C415 0.961 . S
H432 C416 0.931 . S
H433 C421 0.930 . S
H434 C422 0.956 . S
H435 C422 0.961 . S
H436 C422 0.961 . S
H437 C423 0.958 . S
H438 C423 0.961 . S
H439 C423 0.960 . S
C440 C441 1.391 . S
C440 C442 1.394 . S
C440 H456 0.931 . S
C441 C440 1.391 . S
C441 C445 1.376 . S
C442 C440 1.394 . S
C442 C443 1.369 . S
C442 C446 1.531 . S
C443 C442 1.369 . S
C443 C444 1.410 . S
C443 C451 1.503 . S
C444 C443 1.410 . S
C444 C445 1.392 . S
C444 C447 1.511 . S
C445 C441 1.376 . S
C445 C444 1.392 . S
C445 H457 0.929 . S
C446 C442 1.531 . S
C446 H458 0.960 . S
C446 H459 0.962 . S
C446 H460 0.960 . S
C447 C444 1.511 . S
C447 H461 0.961 . S
C447 H462 0.961 . S
C447 H463 0.961 . S
C448 C449 1.370 . S
C448 C450 1.363 . S
C448 H464 0.931 . S
C449 C448 1.370 . S
C449 C453 1.408 . S
C450 C448 1.363 . S
C450 C451 1.370 . S
C450 C454 1.524 . S
C451 C443 1.503 . S
C451 C450 1.370 . S
C451 C452 1.403 . S
C452 C451 1.403 . S
C452 C453 1.404 . S
C452 C455 1.539 . S
C453 C449 1.408 . S
C453 C452 1.404 . S
C453 H465 0.930 . S
C454 C450 1.524 . S
C454 H466 0.956 . S
C454 H467 0.961 . S
C454 H468 0.961 . S
C455 C452 1.539 . S
C455 H469 0.958 . S
C455 H470 0.961 . S
C455 H471 0.960 . S
H456 C440 0.931 . S
H457 C445 0.929 . S
H458 C446 0.960 . S
H459 C446 0.962 . S
H460 C446 0.960 . S
H461 C447 0.961 . S
H462 C447 0.961 . S
H463 C447 0.961 . S
H464 C448 0.931 . S
H465 C453 0.930 . S
H466 C454 0.956 . S
H467 C454 0.961 . S
H468 C454 0.961 . S
H469 C455 0.958 . S
H470 C455 0.961 . S
H471 C455 0.960 . S
C472 C473 1.391 . S
C472 C474 1.394 . S
C472 H488 0.931 . S
C473 C472 1.391 . S
C473 C477 1.376 . S
C474 C472 1.394 . S
C474 C475 1.369 . S
C474 C478 1.531 . S
C475 C474 1.369 . S
C475 C476 1.410 . S
C475 C483 1.503 . S
C476 C475 1.410 . S
C476 C477 1.392 . S
C476 C479 1.511 . S
C477 C473 1.376 . S
C477 C476 1.392 . S
C477 H489 0.929 . S
C478 C474 1.531 . S
C478 H490 0.960 . S
C478 H491 0.962 . S
C478 H492 0.960 . S
C479 C476 1.511 . S
C479 H493 0.961 . S
C479 H494 0.961 . S
C479 H495 0.961 . S
C480 C481 1.370 . S
C480 C482 1.363 1_565 S
C480 H496 0.931 . S
C481 C480 1.370 . S
C481 C485 1.408 1_565 S
C482 C480 1.363 1_545 S
C482 C483 1.370 . S
C482 C486 1.524 . S
C483 C475 1.503 . S
C483 C482 1.370 . S
C483 C484 1.403 . S
C484 C483 1.403 . S
C484 C485 1.404 . S
C484 C487 1.539 . S
C485 C481 1.408 1_545 S
C485 C484 1.404 . S
C485 H497 0.930 . S
C486 C482 1.524 . S
C486 H498 0.956 . S
C486 H499 0.961 . S
C486 H500 0.961 1_545 S
C487 C484 1.539 . S
C487 H501 0.958 . S
C487 H502 0.961 . S
C487 H503 0.960 . S
H488 C472 0.931 . S
H489 C477 0.929 . S
H490 C478 0.960 . S
H491 C478 0.962 . S
H492 C478 0.960 . S
H493 C479 0.961 . S
H494 C479 0.961 . S
H495 C479 0.961 . S
H496 C480 0.931 . S
H497 C485 0.930 . S
H498 C486 0.956 . S
H499 C486 0.961 . S
H500 C486 0.961 1_565 S
H501 C487 0.958 . S
H502 C487 0.961 . S
H503 C487 0.960 . S
C504 C505 1.391 . S
C504 C506 1.394 . S
C504 H520 0.931 . S
C505 C504 1.391 . S
C505 C509 1.376 . S
C506 C504 1.394 . S
C506 C507 1.369 . S
C506 C510 1.531 . S
C507 C506 1.369 . S
C507 C508 1.410 . S
C507 C515 1.503 . S
C508 C507 1.410 . S
C508 C509 1.392 . S
C508 C511 1.511 . S
C509 C505 1.376 . S
C509 C508 1.392 . S
C509 H521 0.929 . S
C510 C506 1.531 . S
C510 H522 0.960 . S
C510 H523 0.962 . S
C510 H524 0.960 . S
C511 C508 1.511 . S
C511 H525 0.961 . S
C511 H526 0.961 . S
C511 H527 0.961 . S
C512 C513 1.370 . S
C512 C514 1.363 . S
C512 H528 0.931 . S
C513 C512 1.370 . S
C513 C517 1.408 . S
C514 C512 1.363 . S
C514 C515 1.370 . S
C514 C518 1.524 . S
C515 C507 1.503 . S
C515 C514 1.370 . S
C515 C516 1.403 . S
C516 C515 1.403 . S
C516 C517 1.404 . S
C516 C519 1.539 . S
C517 C513 1.408 . S
C517 C516 1.404 . S
C517 H529 0.930 . S
C518 C514 1.524 . S
C518 H530 0.956 . S
C518 H531 0.961 . S
C518 H532 0.961 . S
C519 C516 1.539 . S
C519 H533 0.958 . S
C519 H534 0.961 . S
C519 H535 0.960 . S
H520 C504 0.931 . S
H521 C509 0.929 . S
H522 C510 0.960 . S
H523 C510 0.962 . S
H524 C510 0.960 . S
H525 C511 0.961 . S
H526 C511 0.961 . S
H527 C511 0.961 . S
H528 C512 0.931 . S
H529 C517 0.930 . S
H530 C518 0.956 . S
H531 C518 0.961 . S
H532 C518 0.961 . S
H533 C519 0.958 . S
H534 C519 0.961 . S
H535 C519 0.960 . S
C536 C537 1.391 . S
C536 C538 1.394 . S
C536 H552 0.931 . S
C537 C536 1.391 . S
C537 C541 1.376 . S
C538 C536 1.394 . S
C538 C539 1.369 . S
C538 C542 1.531 . S
C539 C538 1.369 . S
C539 C540 1.410 . S
C539 C547 1.503 . S
C540 C539 1.410 . S
C540 C541 1.392 . S
C540 C543 1.511 . S
C541 C537 1.376 . S
C541 C540 1.392 . S
C541 H553 0.929 . S
C542 C538 1.531 . S
C542 H554 0.960 . S
C542 H555 0.962 . S
C542 H556 0.960 . S
C543 C540 1.511 . S
C543 H557 0.961 . S
C543 H558 0.961 . S
C543 H559 0.961 . S
C544 C545 1.370 . S
C544 C546 1.363 . S
C544 H560 0.931 . S
C545 C544 1.370 . S
C545 C549 1.408 . S
C546 C544 1.363 . S
C546 C547 1.370 . S
C546 C550 1.524 . S
C547 C539 1.503 . S
C547 C546 1.370 . S
C547 C548 1.403 . S
C548 C547 1.403 . S
C548 C549 1.404 . S
C548 C551 1.539 . S
C549 C545 1.408 . S
C549 C548 1.404 . S
C549 H561 0.930 . S
C550 C546 1.524 . S
C550 H562 0.956 . S
C550 H563 0.961 . S
C550 H564 0.961 . S
C551 C548 1.539 . S
C551 H565 0.958 . S
C551 H566 0.961 . S
C551 H567 0.960 . S
H552 C536 0.931 . S
H553 C541 0.929 . S
H554 C542 0.960 . S
H555 C542 0.962 . S
H556 C542 0.960 . S
H557 C543 0.961 . S
H558 C543 0.961 . S
H559 C543 0.961 . S
H560 C544 0.931 . S
H561 C549 0.930 . S
H562 C550 0.956 . S
H563 C550 0.961 . S
H564 C550 0.961 . S
H565 C551 0.958 . S
H566 C551 0.961 . S
H567 C551 0.960 . S
C568 C569 1.391 . S
C568 C570 1.394 . S
C568 H584 0.931 . S
C569 C568 1.391 . S
C569 C573 1.376 . S
C570 C568 1.394 . S
C570 C571 1.369 . S
C570 C574 1.531 . S
C571 C570 1.369 . S
C571 C572 1.410 . S
C571 C579 1.503 1_655 S
C572 C571 1.410 . S
C572 C573 1.392 . S
C572 C575 1.511 1_656 S
C573 C569 1.376 . S
C573 C572 1.392 . S
C573 H585 0.929 1_556 S
C574 C570 1.531 . S
C574 H586 0.960 1_655 S
C574 H587 0.962 . S
C574 H588 0.960 . S
C575 C572 1.511 1_454 S
C575 H589 0.961 . S
C575 H590 0.961 1_554 S
C575 H591 0.961 . S
C576 C577 1.370 . S
C576 C578 1.363 . S
C576 H592 0.931 . S
C577 C576 1.370 . S
C577 C581 1.408 . S
C578 C576 1.363 . S
C578 C579 1.370 . S
C578 C582 1.524 . S
C579 C571 1.503 1_455 S
C579 C578 1.370 . S
C579 C580 1.403 . S
C580 C579 1.403 . S
C580 C581 1.404 . S
C580 C583 1.539 1_556 S
C581 C577 1.408 . S
C581 C580 1.404 . S
C581 H593 0.930 . S
C582 C578 1.524 . S
C582 H594 0.956 . S
C582 H595 0.961 . S
C582 H596 0.961 . S
C583 C580 1.539 1_554 S
C583 H597 0.958 . S
C583 H598 0.961 . S
C583 H599 0.960 . S
H584 C568 0.931 . S
H585 C573 0.929 1_554 S
H586 C574 0.960 1_455 S
H587 C574 0.962 . S
H588 C574 0.960 . S
H589 C575 0.961 . S
H590 C575 0.961 1_556 S
H591 C575 0.961 . S
H592 C576 0.931 . S
H593 C581 0.930 . S
H594 C582 0.956 . S
H595 C582 0.961 . S
H596 C582 0.961 . S
H597 C583 0.958 . S
H598 C583 0.961 . S
H599 C583 0.960 . S
C600 C601 1.391 . S
C600 C602 1.394 . S
C600 H616 0.931 . S
C601 C600 1.391 . S
C601 C605 1.376 . S
C602 C600 1.394 . S
C602 C603 1.369 . S
C602 C606 1.531 . S
C603 C602 1.369 . S
C603 C604 1.410 . S
C603 C611 1.503 . S
C604 C603 1.410 . S
C604 C605 1.392 . S
C604 C607 1.511 . S
C605 C601 1.376 . S
C605 C604 1.392 . S
C605 H617 0.929 . S
C606 C602 1.531 . S
C606 H618 0.960 . S
C606 H619 0.962 . S
C606 H620 0.960 . S
C607 C604 1.511 . S
C607 H621 0.961 . S
C607 H622 0.961 . S
C607 H623 0.961 . S
C608 C609 1.370 . S
C608 C610 1.363 . S
C608 H624 0.931 . S
C609 C608 1.370 . S
C609 C613 1.408 . S
C610 C608 1.363 . S
C610 C611 1.370 . S
C610 C614 1.524 . S
C611 C603 1.503 . S
C611 C610 1.370 . S
C611 C612 1.403 . S
C612 C611 1.403 . S
C612 C613 1.404 . S
C612 C615 1.539 . S
C613 C609 1.408 . S
C613 C612 1.404 . S
C613 H625 0.930 . S
C614 C610 1.524 . S
C614 H626 0.956 . S
C614 H627 0.961 . S
C614 H628 0.961 . S
C615 C612 1.539 . S
C615 H629 0.958 . S
C615 H630 0.961 . S
C615 H631 0.960 . S
H616 C600 0.931 . S
H617 C605 0.929 . S
H618 C606 0.960 . S
H619 C606 0.962 . S
H620 C606 0.960 . S
H621 C607 0.961 . S
H622 C607 0.961 . S
H623 C607 0.961 . S
H624 C608 0.931 . S
H625 C613 0.930 . S
H626 C614 0.956 . S
H627 C614 0.961 . S
H628 C614 0.961 . S
H629 C615 0.958 . S
H630 C615 0.961 . S
H631 C615 0.960 . S
C632 C633 1.391 . S
C632 C634 1.394 . S
C632 H648 0.931 . S
C633 C632 1.391 . S
C633 C637 1.376 . S
C634 C632 1.394 . S
C634 C635 1.369 . S
C634 C638 1.531 . S
C635 C634 1.369 . S
C635 C636 1.410 . S
C635 C643 1.503 . S
C636 C635 1.410 . S
C636 C637 1.392 . S
C636 C639 1.511 . S
C637 C633 1.376 . S
C637 C636 1.392 . S
C637 H649 0.929 . S
C638 C634 1.531 . S
C638 H650 0.960 . S
C638 H651 0.962 . S
C638 H652 0.960 . S
C639 C636 1.511 . S
C639 H653 0.961 . S
C639 H654 0.961 . S
C639 H655 0.961 . S
C640 C641 1.370 . S
C640 C642 1.363 . S
C640 H656 0.931 . S
C641 C640 1.370 . S
C641 C645 1.408 . S
C642 C640 1.363 . S
C642 C643 1.370 . S
C642 C646 1.524 . S
C643 C635 1.503 . S
C643 C642 1.370 . S
C643 C644 1.403 . S
C644 C643 1.403 . S
C644 C645 1.404 . S
C644 C647 1.539 . S
C645 C641 1.408 . S
C645 C644 1.404 . S
C645 H657 0.930 . S
C646 C642 1.524 . S
C646 H658 0.956 . S
C646 H659 0.961 . S
C646 H660 0.961 . S
C647 C644 1.539 . S
C647 H661 0.958 . S
C647 H662 0.961 . S
C647 H663 0.960 . S
H648 C632 0.931 . S
H649 C637 0.929 . S
H650 C638 0.960 . S
H651 C638 0.962 . S
H652 C638 0.960 . S
H653 C639 0.961 . S
H654 C639 0.961 . S
H655 C639 0.961 . S
H656 C640 0.931 . S
H657 C645 0.930 . S
H658 C646 0.956 . S
H659 C646 0.961 . S
H660 C646 0.961 . S
H661 C647 0.958 . S
H662 C647 0.961 . S
H663 C647 0.960 . S
C664 C665 1.391 . S
C664 C666 1.394 . S
C664 H680 0.931 . S
C665 C664 1.391 . S
C665 C669 1.376 . S
C666 C664 1.394 . S
C666 C667 1.369 . S
C666 C670 1.531 . S
C667 C666 1.369 . S
C667 C668 1.410 . S
C667 C675 1.503 . S
C668 C667 1.410 . S
C668 C669 1.392 . S
C668 C671 1.511 . S
C669 C665 1.376 . S
C669 C668 1.392 . S
C669 H681 0.929 . S
C670 C666 1.531 . S
C670 H682 0.960 . S
C670 H683 0.962 . S
C670 H684 0.960 . S
C671 C668 1.511 . S
C671 H685 0.961 . S
C671 H686 0.961 . S
C671 H687 0.961 . S
C672 C673 1.370 . S
C672 C674 1.363 . S
C672 H688 0.931 . S
C673 C672 1.370 . S
C673 C677 1.408 . S
C674 C672 1.363 . S
C674 C675 1.370 . S
C674 C678 1.524 . S
C675 C667 1.503 . S
C675 C674 1.370 . S
C675 C676 1.403 . S
C676 C675 1.403 . S
C676 C677 1.404 . S
C676 C679 1.539 . S
C677 C673 1.408 . S
C677 C676 1.404 . S
C677 H689 0.936 . S
C678 C674 1.524 . S
C678 H690 0.956 . S
C678 H691 0.961 . S
C678 H692 0.961 . S
C679 C676 1.539 . S
C679 H693 0.958 . S
C679 H694 0.961 . S
C679 H695 0.960 . S
H680 C664 0.931 . S
H681 C669 0.929 . S
H682 C670 0.960 . S
H683 C670 0.962 . S
H684 C670 0.960 . S
H685 C671 0.961 . S
H686 C671 0.961 . S
H687 C671 0.961 . S
H688 C672 0.931 . S
H689 C677 0.936 . S
H690 C678 0.956 . S
H691 C678 0.961 . S
H692 C678 0.961 . S
H693 C679 0.958 . S
H694 C679 0.961 . S
H695 C679 0.960 . S
C696 C697 1.391 . S
C696 C698 1.394 . S
C696 H712 0.931 . S
C697 C696 1.391 . S
C697 C701 1.376 . S
C698 C696 1.394 . S
C698 C699 1.369 . S
C698 C702 1.531 . S
C699 C698 1.369 . S
C699 C700 1.410 . S
C699 C707 1.503 . S
C700 C699 1.410 . S
C700 C701 1.392 . S
C700 C703 1.511 . S
C701 C697 1.376 . S
C701 C700 1.392 . S
C701 H713 0.929 . S
C702 C698 1.531 . S
C702 H714 0.960 . S
C702 H715 0.962 . S
C702 H716 0.960 . S
C703 C700 1.511 . S
C703 H717 0.961 . S
C703 H718 0.961 . S
C703 H719 0.961 . S
C704 C705 1.370 . S
C704 C706 1.363 . S
C704 H720 0.931 . S
C705 C704 1.370 . S
C705 C709 1.408 . S
C706 C704 1.363 . S
C706 C707 1.370 . S
C706 C710 1.524 . S
C707 C699 1.503 . S
C707 C706 1.370 . S
C707 C708 1.403 . S
C708 C707 1.403 . S
C708 C709 1.404 . S
C708 C711 1.539 . S
C709 C705 1.408 . S
C709 C708 1.404 . S
C709 H721 0.930 . S
C710 C706 1.524 . S
C710 H722 0.956 . S
C710 H723 0.961 . S
C710 H724 0.961 . S
C711 C708 1.539 . S
C711 H725 0.958 . S
C711 H726 0.961 . S
C711 H727 0.960 . S
H712 C696 0.931 . S
H713 C701 0.929 . S
H714 C702 0.960 . S
H715 C702 0.962 . S
H716 C702 0.960 . S
H717 C703 0.961 . S
H718 C703 0.961 . S
H719 C703 0.961 . S
H720 C704 0.931 . S
H721 C709 0.930 . S
H722 C710 0.956 . S
H723 C710 0.961 . S
H724 C710 0.961 . S
H725 C711 0.958 . S
H726 C711 0.961 . S
H727 C711 0.960 . S
C728 C729 1.391 1_556 S
C728 C730 1.394 . S
C728 H744 0.931 . S
C729 C728 1.391 1_554 S
C729 C733 1.376 . S
C730 C728 1.394 . S
C730 C731 1.369 . S
C730 C734 1.531 . S
C731 C730 1.369 . S
C731 C732 1.410 1_556 S
C731 C739 1.503 . S
C732 C731 1.410 1_554 S
C732 C733 1.392 . S
C732 C735 1.511 . S
C733 C729 1.376 . S
C733 C732 1.392 . S
C733 H745 0.929 . S
C734 C730 1.531 . S
C734 H746 0.960 . S
C734 H747 0.962 . S
C734 H748 0.960 . S
C735 C732 1.511 . S
C735 H749 0.961 . S
C735 H750 0.961 . S
C735 H751 0.961 . S
C736 C737 1.372 1_565 S
C736 C738 1.360 . S
C736 H752 0.932 1_565 S
C737 C736 1.372 1_545 S
C737 C741 1.408 . S
C738 C736 1.360 . S
C738 C739 1.370 . S
C738 C742 1.524 1_556 S
C739 C731 1.503 . S
C739 C738 1.370 . S
C739 C740 1.403 . S
C740 C739 1.403 . S
C740 C741 1.404 1_565 S
C740 C743 1.539 . S
C741 C737 1.408 . S
C741 C740 1.404 1_545 S
C741 H753 0.930 . S
C742 C738 1.524 1_554 S
C742 H754 0.956 . S
C742 H755 0.961 . S
C742 H756 0.961 . S
C743 C740 1.539 . S
C743 H757 0.958 . S
C743 H758 0.961 . S
C743 H759 0.960 . S
H744 C728 0.931 . S
H745 C733 0.929 . S
H746 C734 0.960 . S
H747 C734 0.962 . S
H748 C734 0.960 . S
H749 C735 0.961 . S
H750 C735 0.961 . S
H751 C735 0.961 . S
H752 C736 0.932 1_545 S
H753 C741 0.930 . S
H754 C742 0.956 . S
H755 C742 0.961 . S
H756 C742 0.961 . S
H757 C743 0.958 . S
H758 C743 0.961 . S
H759 C743 0.960 . S
C760 C761 1.391 . S
C760 C762 1.394 . S
C760 H776 0.931 . S
C761 C760 1.391 . S
C761 C765 1.376 . S
C762 C760 1.394 . S
C762 C763 1.369 . S
C762 C766 1.531 . S
C763 C762 1.369 . S
C763 C764 1.410 . S
C763 C771 1.503 . S
C764 C763 1.410 . S
C764 C765 1.392 . S
C764 C767 1.511 . S
C765 C761 1.376 . S
C765 C764 1.392 . S
C765 H777 0.929 . S
C766 C762 1.531 . S
C766 H778 0.960 . S
C766 H779 0.962 . S
C766 H780 0.960 . S
C767 C764 1.511 . S
C767 H781 0.961 . S
C767 H782 0.961 . S
C767 H783 0.961 . S
C768 C769 1.370 . S
C768 C770 1.363 . S
C768 H784 0.931 . S
C769 C768 1.370 . S
C769 C773 1.408 . S
C770 C768 1.363 . S
C770 C771 1.370 . S
C770 C774 1.524 . S
C771 C763 1.503 . S
C771 C770 1.370 . S
C771 C772 1.403 . S
C772 C771 1.403 . S
C772 C773 1.404 . S
C772 C775 1.539 . S
C773 C769 1.408 . S
C773 C772 1.404 . S
C773 H785 0.930 . S
C774 C770 1.524 . S
C774 H786 0.956 . S
C774 H787 0.961 . S
C774 H788 0.961 . S
C775 C772 1.539 . S
C775 H789 0.958 . S
C775 H790 0.961 . S
C775 H791 0.960 . S
H776 C760 0.931 . S
H777 C765 0.929 . S
H778 C766 0.960 . S
H779 C766 0.962 . S
H780 C766 0.960 . S
H781 C767 0.961 . S
H782 C767 0.961 . S
H783 C767 0.961 . S
H784 C768 0.931 . S
H785 C773 0.930 . S
H786 C774 0.956 . S
H787 C774 0.961 . S
H788 C774 0.961 . S
H789 C775 0.958 . S
H790 C775 0.961 . S
H791 C775 0.960 . S
C792 C793 1.391 . S
C792 C794 1.394 . S
C792 H808 0.931 . S
C793 C792 1.391 . S
C793 C797 1.376 . S
C794 C792 1.394 . S
C794 C795 1.369 . S
C794 C798 1.531 . S
C795 C794 1.369 . S
C795 C796 1.410 . S
C795 C803 1.503 . S
C796 C795 1.410 . S
C796 C797 1.392 . S
C796 C799 1.511 . S
C797 C793 1.376 . S
C797 C796 1.392 . S
C797 H809 0.929 . S
C798 C794 1.531 . S
C798 H810 0.960 . S
C798 H811 0.962 . S
C798 H812 0.960 . S
C799 C796 1.511 . S
C799 H813 0.961 . S
C799 H814 0.961 . S
C799 H815 0.961 . S
C800 C801 1.370 . S
C800 C802 1.363 . S
C800 H816 0.931 . S
C801 C800 1.370 . S
C801 C805 1.408 . S
C802 C800 1.363 . S
C802 C803 1.370 . S
C802 C806 1.524 . S
C803 C795 1.503 . S
C803 C802 1.370 . S
C803 C804 1.403 . S
C804 C803 1.403 . S
C804 C805 1.404 . S
C804 C807 1.539 . S
C805 C801 1.408 . S
C805 C804 1.404 . S
C805 H817 0.930 . S
C806 C802 1.524 . S
C806 H818 0.956 . S
C806 H819 0.961 . S
C806 H820 0.961 . S
C807 C804 1.539 . S
C807 H821 0.958 . S
C807 H822 0.961 . S
C807 H823 0.960 . S
H808 C792 0.931 . S
H809 C797 0.929 . S
H810 C798 0.960 . S
H811 C798 0.962 . S
H812 C798 0.960 . S
H813 C799 0.961 . S
H814 C799 0.961 . S
H815 C799 0.961 . S
H816 C800 0.931 . S
H817 C805 0.930 . S
H818 C806 0.956 . S
H819 C806 0.961 . S
H820 C806 0.961 . S
H821 C807 0.958 . S
H822 C807 0.961 . S
H823 C807 0.960 . S
C824 C825 1.391 . S
C824 C826 1.394 . S
C824 H840 0.931 . S
C825 C824 1.391 . S
C825 C829 1.376 . S
C826 C824 1.394 . S
C826 C827 1.369 . S
C826 C830 1.531 . S
C827 C826 1.369 . S
C827 C828 1.410 . S
C827 C835 1.503 1_455 S
C828 C827 1.410 . S
C828 C829 1.392 . S
C828 C831 1.511 1_455 S
C829 C825 1.376 . S
C829 C828 1.392 . S
C829 H841 0.929 . S
C830 C826 1.531 . S
C830 H842 0.960 1_455 S
C830 H843 0.962 . S
C830 H844 0.960 . S
C831 C828 1.511 1_655 S
C831 H845 0.961 . S
C831 H846 0.961 . S
C831 H847 0.961 . S
C832 C833 1.370 . S
C832 C834 1.363 . S
C832 H848 0.931 . S
C833 C832 1.370 . S
C833 C837 1.408 . S
C834 C832 1.363 . S
C834 C835 1.370 . S
C834 C838 1.524 . S
C835 C827 1.503 1_655 S
C835 C834 1.370 . S
C835 C836 1.403 . S
C836 C835 1.403 . S
C836 C837 1.404 . S
C836 C839 1.539 . S
C837 C833 1.408 . S
C837 C836 1.404 . S
C837 H849 0.930 . S
C838 C834 1.524 . S
C838 H850 0.956 . S
C838 H851 0.961 . S
C838 H852 0.961 . S
C839 C836 1.539 . S
C839 H853 0.958 . S
C839 H854 0.961 . S
C839 H855 0.960 . S
H840 C824 0.931 . S
H841 C829 0.929 . S
H842 C830 0.960 1_655 S
H843 C830 0.962 . S
H844 C830 0.960 . S
H845 C831 0.961 . S
H846 C831 0.961 . S
H847 C831 0.961 . S
H848 C832 0.931 . S
H849 C837 0.930 . S
H850 C838 0.956 . S
H851 C838 0.961 . S
H852 C838 0.961 . S
H853 C839 0.958 . S
H854 C839 0.961 . S
H855 C839 0.960 . S
C856 C857 1.391 . S
C856 C858 1.394 . S
C856 H872 0.931 . S
C857 C856 1.391 . S
C857 C861 1.376 . S
C858 C856 1.394 . S
C858 C859 1.369 . S
C858 C862 1.531 . S
C859 C858 1.369 . S
C859 C860 1.410 . S
C859 C867 1.503 . S
C860 C859 1.410 . S
C860 C861 1.392 . S
C860 C863 1.511 . S
C861 C857 1.376 . S
C861 C860 1.392 . S
C861 H873 0.929 . S
C862 C858 1.531 . S
C862 H874 0.960 . S
C862 H875 0.962 . S
C862 H876 0.960 . S
C863 C860 1.511 . S
C863 H877 0.961 . S
C863 H878 0.961 . S
C863 H879 0.961 . S
C864 C865 1.370 . S
C864 C866 1.363 . S
C864 H880 0.931 . S
C865 C864 1.370 . S
C865 C869 1.408 . S
C866 C864 1.363 . S
C866 C867 1.370 . S
C866 C870 1.524 . S
C867 C859 1.503 . S
C867 C866 1.370 . S
C867 C868 1.403 . S
C868 C867 1.403 . S
C868 C869 1.404 . S
C868 C871 1.539 . S
C869 C865 1.408 . S
C869 C868 1.404 . S
C869 H881 0.930 . S
C870 C866 1.524 . S
C870 H882 0.956 . S
C870 H883 0.961 . S
C870 H884 0.961 . S
C871 C868 1.539 . S
C871 H885 0.958 . S
C871 H886 0.961 . S
C871 H887 0.960 . S
H872 C856 0.931 . S
H873 C861 0.929 . S
H874 C862 0.960 . S
H875 C862 0.962 . S
H876 C862 0.960 . S
H877 C863 0.961 . S
H878 C863 0.961 . S
H879 C863 0.961 . S
H880 C864 0.931 . S
H881 C869 0.930 . S
H882 C870 0.956 . S
H883 C870 0.961 . S
H884 C870 0.961 . S
H885 C871 0.958 . S
H886 C871 0.961 . S
H887 C871 0.960 . S
C888 C889 1.391 . S
C888 C890 1.394 . S
C888 H904 0.931 . S
C889 C888 1.391 . S
C889 C893 1.376 . S
C890 C888 1.394 . S
C890 C891 1.369 . S
C890 C894 1.531 . S
C891 C890 1.369 . S
C891 C892 1.410 . S
C891 C899 1.503 . S
C892 C891 1.410 . S
C892 C893 1.392 . S
C892 C895 1.511 . S
C893 C889 1.376 . S
C893 C892 1.392 . S
C893 H905 0.929 . S
C894 C890 1.531 . S
C894 H906 0.960 . S
C894 H907 0.962 . S
C894 H908 0.960 . S
C895 C892 1.511 . S
C895 H909 0.961 . S
C895 H910 0.961 . S
C895 H911 0.961 . S
C896 C897 1.370 . S
C896 C898 1.363 . S
C896 H912 0.931 . S
C897 C896 1.370 . S
C897 C901 1.408 . S
C898 C896 1.363 . S
C898 C899 1.370 . S
C898 C902 1.524 . S
C899 C891 1.503 . S
C899 C898 1.370 . S
C899 C900 1.403 . S
C900 C899 1.403 . S
C900 C901 1.404 . S
C900 C903 1.539 . S
C901 C897 1.408 . S
C901 C900 1.404 . S
C901 H913 0.930 . S
C902 C898 1.524 . S
C902 H914 0.956 . S
C902 H915 0.961 . S
C902 H916 0.961 . S
C903 C900 1.539 . S
C903 H917 0.958 . S
C903 H918 0.961 . S
C903 H919 0.960 . S
H904 C888 0.931 . S
H905 C893 0.929 . S
H906 C894 0.960 . S
H907 C894 0.962 . S
H908 C894 0.960 . S
H909 C895 0.961 . S
H910 C895 0.961 . S
H911 C895 0.961 . S
H912 C896 0.931 . S
H913 C901 0.930 . S
H914 C902 0.956 . S
H915 C902 0.961 . S
H916 C902 0.961 . S
H917 C903 0.958 . S
H918 C903 0.961 . S
H919 C903 0.960 . S
C920 C921 1.391 . S
C920 C922 1.394 . S
C920 H936 0.931 . S
C921 C920 1.391 . S
C921 C925 1.376 . S
C922 C920 1.394 . S
C922 C923 1.369 . S
C922 C926 1.531 . S
C923 C922 1.369 . S
C923 C924 1.410 . S
C923 C931 1.503 . S
C924 C923 1.410 . S
C924 C925 1.392 . S
C924 C927 1.511 . S
C925 C921 1.376 . S
C925 C924 1.392 . S
C925 H937 0.929 . S
C926 C922 1.531 . S
C926 H938 0.960 . S
C926 H939 0.962 . S
C926 H940 0.960 . S
C927 C924 1.511 . S
C927 H941 0.961 . S
C927 H942 0.961 . S
C927 H943 0.961 . S
C928 C929 1.370 . S
C928 C930 1.363 . S
C928 H944 0.931 . S
C929 C928 1.370 . S
C929 C933 1.408 . S
C930 C928 1.363 . S
C930 C931 1.370 . S
C930 C934 1.524 . S
C931 C923 1.503 . S
C931 C930 1.370 . S
C931 C932 1.403 . S
C932 C931 1.403 . S
C932 C933 1.404 . S
C932 C935 1.539 . S
C933 C929 1.408 . S
C933 C932 1.404 . S
C933 H945 0.930 . S
C934 C930 1.524 . S
C934 H946 0.956 . S
C934 H947 0.961 . S
C934 H948 0.961 . S
C935 C932 1.539 . S
C935 H949 0.958 . S
C935 H950 0.961 . S
C935 H951 0.960 . S
H936 C920 0.931 . S
H937 C925 0.929 . S
H938 C926 0.960 . S
H939 C926 0.962 . S
H940 C926 0.960 . S
H941 C927 0.961 . S
H942 C927 0.961 . S
H943 C927 0.961 . S
H944 C928 0.931 . S
H945 C933 0.930 . S
H946 C934 0.956 . S
H947 C934 0.961 . S
H948 C934 0.961 . S
H949 C935 0.958 . S
H950 C935 0.961 . S
H951 C935 0.960 . S
C952 C953 1.391 . S
C952 C954 1.394 . S
C952 H968 0.931 . S
C953 C952 1.391 . S
C953 C957 1.376 . S
C954 C952 1.394 . S
C954 C955 1.369 . S
C954 C958 1.531 . S
C955 C954 1.369 . S
C955 C956 1.410 . S
C955 C963 1.503 . S
C956 C955 1.410 . S
C956 C957 1.392 . S
C956 C959 1.511 . S
C957 C953 1.376 . S
C957 C956 1.392 . S
C957 H969 0.929 . S
C958 C954 1.531 . S
C958 H970 0.960 . S
C958 H971 0.962 . S
C958 H972 0.960 . S
C959 C956 1.511 . S
C959 H973 0.961 . S
C959 H974 0.961 . S
C959 H975 0.961 . S
C960 C961 1.370 . S
C960 C962 1.363 . S
C960 H976 0.931 . S
C961 C960 1.370 . S
C961 C965 1.408 . S
C962 C960 1.363 . S
C962 C963 1.370 . S
C962 C966 1.524 . S
C963 C955 1.503 . S
C963 C962 1.370 . S
C963 C964 1.403 . S
C964 C963 1.403 . S
C964 C965 1.404 . S
C964 C967 1.539 . S
C965 C961 1.408 . S
C965 C964 1.404 . S
C965 H977 0.930 . S
C966 C962 1.524 . S
C966 H978 0.956 . S
C966 H979 0.961 . S
C966 H980 0.961 . S
C967 C964 1.539 . S
C967 H981 0.958 . S
C967 H982 0.961 . S
C967 H983 0.960 . S
H968 C952 0.931 . S
H969 C957 0.929 . S
H970 C958 0.960 . S
H971 C958 0.962 . S
H972 C958 0.960 . S
H973 C959 0.961 . S
H974 C959 0.961 . S
H975 C959 0.961 . S
H976 C960 0.931 . S
H977 C965 0.930 . S
H978 C966 0.956 . S
H979 C966 0.961 . S
H980 C966 0.961 . S
H981 C967 0.958 . S
H982 C967 0.961 . S
H983 C967 0.960 . S
C984 C985 1.391 . S
C984 C986 1.394 . S
C984 H1000 0.931 . S
C985 C984 1.391 . S
C985 C989 1.376 . S
C986 C984 1.394 . S
C986 C987 1.369 . S
C986 C990 1.531 . S
C987 C986 1.369 . S
C987 C988 1.410 . S
C987 C995 1.503 . S
C988 C987 1.410 . S
C988 C989 1.392 . S
C988 C991 1.511 . S
C989 C985 1.376 . S
C989 C988 1.392 . S
C989 H1001 0.929 . S
C990 C986 1.531 . S
C990 H1002 0.960 . S
C990 H1003 0.962 . S
C990 H1004 0.960 . S
C991 C988 1.511 . S
C991 H1005 0.961 . S
C991 H1006 0.961 . S
C991 H1007 0.961 . S
C992 C993 1.370 . S
C992 C994 1.363 . S
C992 H1008 0.931 . S
C993 C992 1.370 . S
C993 C997 1.408 . S
C994 C992 1.363 . S
C994 C995 1.370 . S
C994 C998 1.524 . S
C995 C987 1.503 . S
C995 C994 1.370 . S
C995 C996 1.403 . S
C996 C995 1.403 . S
C996 C997 1.404 . S
C996 C999 1.539 . S
C997 C993 1.408 . S
C997 C996 1.404 . S
C997 H1009 0.930 . S
C998 C994 1.524 . S
C998 H1010 0.956 . S
C998 H1011 0.961 . S
C998 H1012 0.961 . S
C999 C996 1.539 . S
C999 H1013 0.958 . S
C999 H1014 0.961 . S
C999 H1015 0.960 . S
H1000 C984 0.931 . S
H1001 C989 0.929 . S
H1002 C990 0.960 . S
H1003 C990 0.962 . S
H1004 C990 0.960 . S
H1005 C991 0.961 . S
H1006 C991 0.961 . S
H1007 C991 0.961 . S
H1008 C992 0.931 . S
H1009 C997 0.930 . S
H1010 C998 0.956 . S
H1011 C998 0.961 . S
H1012 C998 0.961 . S
H1013 C999 0.958 . S
H1014 C999 0.961 . S
H1015 C999 0.960 . S
C1016 C1017 1.391 . S
C1016 C1018 1.394 . S
C1016 H1032 0.931 . S
C1017 C1016 1.391 . S
C1017 C1021 1.376 . S
C1018 C1016 1.394 . S
C1018 C1019 1.369 . S
C1018 C1022 1.531 . S
C1019 C1018 1.369 . S
C1019 C1020 1.410 . S
C1019 C1027 1.503 . S
C1020 C1019 1.410 . S
C1020 C1021 1.392 . S
C1020 C1023 1.511 . S
C1021 C1017 1.376 . S
C1021 C1020 1.392 . S
C1021 H1033 0.929 . S
C1022 C1018 1.531 . S
C1022 H1034 0.960 . S
C1022 H1035 0.962 . S
C1022 H1036 0.960 . S
C1023 C1020 1.511 . S
C1023 H1037 0.961 . S
C1023 H1038 0.961 . S
C1023 H1039 0.961 . S
C1024 C1025 1.370 . S
C1024 C1026 1.363 . S
C1024 H1040 0.931 . S
C1025 C1024 1.370 . S
C1025 C1029 1.408 . S
C1026 C1024 1.363 . S
C1026 C1027 1.370 . S
C1026 C1030 1.524 . S
C1027 C1019 1.503 . S
C1027 C1026 1.370 . S
C1027 C1028 1.403 . S
C1028 C1027 1.403 . S
C1028 C1029 1.404 . S
C1028 C1031 1.539 . S
C1029 C1025 1.408 . S
C1029 C1028 1.404 . S
C1029 H1041 0.930 . S
C1030 C1026 1.524 . S
C1030 H1042 0.956 . S
C1030 H1043 0.961 . S
C1030 H1044 0.961 . S
C1031 C1028 1.539 . S
C1031 H1045 0.958 . S
C1031 H1046 0.961 . S
C1031 H1047 0.960 . S
H1032 C1016 0.931 . S
H1033 C1021 0.929 . S
H1034 C1022 0.960 . S
H1035 C1022 0.962 . S
H1036 C1022 0.960 . S
H1037 C1023 0.961 . S
H1038 C1023 0.961 . S
H1039 C1023 0.961 . S
H1040 C1024 0.931 . S
H1041 C1029 0.930 . S
H1042 C1030 0.956 . S
H1043 C1030 0.961 . S
H1044 C1030 0.961 . S
H1045 C1031 0.958 . S
H1046 C1031 0.961 . S
H1047 C1031 0.960 . S
C1048 C1049 1.391 . S
C1048 C1050 1.394 . S
C1048 H1064 0.931 . S
C1049 C1048 1.391 . S
C1049 C1053 1.376 . S
C1050 C1048 1.394 . S
C1050 C1051 1.369 . S
C1050 C1054 1.531 . S
C1051 C1050 1.369 . S
C1051 C1052 1.410 . S
C1051 C1059 1.503 . S
C1052 C1051 1.410 . S
C1052 C1053 1.392 . S
C1052 C1055 1.511 . S
C1053 C1049 1.376 . S
C1053 C1052 1.392 . S
C1053 H1065 0.929 . S
C1054 C1050 1.531 . S
C1054 H1066 0.960 . S
C1054 H1067 0.962 . S
C1054 H1068 0.960 . S
C1055 C1052 1.511 . S
C1055 H1069 0.961 . S
C1055 H1070 0.961 . S
C1055 H1071 0.961 . S
C1056 C1057 1.370 . S
C1056 C1058 1.363 . S
C1056 H1072 0.931 . S
C1057 C1056 1.370 . S
C1057 C1061 1.408 . S
C1058 C1056 1.363 . S
C1058 C1059 1.370 . S
C1058 C1062 1.524 . S
C1059 C1051 1.503 . S
C1059 C1058 1.370 . S
C1059 C1060 1.403 . S
C1060 C1059 1.403 . S
C1060 C1061 1.404 . S
C1060 C1063 1.539 . S
C1061 C1057 1.408 . S
C1061 C1060 1.404 . S
C1061 H1073 0.930 . S
C1062 C1058 1.524 . S
C1062 H1074 0.956 . S
C1062 H1075 0.961 . S
C1062 H1076 0.961 . S
C1063 C1060 1.539 . S
C1063 H1077 0.958 . S
C1063 H1078 0.961 . S
C1063 H1079 0.960 . S
H1064 C1048 0.931 . S
H1065 C1053 0.929 . S
H1066 C1054 0.960 . S
H1067 C1054 0.962 . S
H1068 C1054 0.960 . S
H1069 C1055 0.961 . S
H1070 C1055 0.961 . S
H1071 C1055 0.961 . S
H1072 C1056 0.931 . S
H1073 C1061 0.930 . S
H1074 C1062 0.956 . S
H1075 C1062 0.961 . S
H1076 C1062 0.961 . S
H1077 C1063 0.958 . S
H1078 C1063 0.961 . S
H1079 C1063 0.960 . S
C1080 C1081 1.391 . S
C1080 C1082 1.394 . S
C1080 H1096 0.931 . S
C1081 C1080 1.391 . S
C1081 C1085 1.376 . S
C1082 C1080 1.394 . S
C1082 C1083 1.369 . S
C1082 C1086 1.531 . S
C1083 C1082 1.369 . S
C1083 C1084 1.410 . S
C1083 C1091 1.503 . S
C1084 C1083 1.410 . S
C1084 C1085 1.392 . S
C1084 C1087 1.511 . S
C1085 C1081 1.376 . S
C1085 C1084 1.392 . S
C1085 H1097 0.929 . S
C1086 C1082 1.531 . S
C1086 H1098 0.960 . S
C1086 H1099 0.962 . S
C1086 H1100 0.960 . S
C1087 C1084 1.511 . S
C1087 H1101 0.961 . S
C1087 H1102 0.961 . S
C1087 H1103 0.961 . S
C1088 C1089 1.370 . S
C1088 C1090 1.363 . S
C1088 H1104 0.931 . S
C1089 C1088 1.370 . S
C1089 C1093 1.408 . S
C1090 C1088 1.363 . S
C1090 C1091 1.370 . S
C1090 C1094 1.524 . S
C1091 C1083 1.503 . S
C1091 C1090 1.370 . S
C1091 C1092 1.403 . S
C1092 C1091 1.403 . S
C1092 C1093 1.404 . S
C1092 C1095 1.539 . S
C1093 C1089 1.408 . S
C1093 C1092 1.404 . S
C1093 H1105 0.930 . S
C1094 C1090 1.524 . S
C1094 H1106 0.956 . S
C1094 H1107 0.961 . S
C1094 H1108 0.961 . S
C1095 C1092 1.539 . S
C1095 H1109 0.958 . S
C1095 H1110 0.961 . S
C1095 H1111 0.960 . S
H1096 C1080 0.931 . S
H1097 C1085 0.929 . S
H1098 C1086 0.960 . S
H1099 C1086 0.962 . S
H1100 C1086 0.960 . S
H1101 C1087 0.961 . S
H1102 C1087 0.961 . S
H1103 C1087 0.961 . S
H1104 C1088 0.931 . S
H1105 C1093 0.930 . S
H1106 C1094 0.956 . S
H1107 C1094 0.961 . S
H1108 C1094 0.961 . S
H1109 C1095 0.958 . S
H1110 C1095 0.961 . S
H1111 C1095 0.960 . S
C1112 C1113 1.391 . S
C1112 C1114 1.394 . S
C1112 H1128 0.931 . S
C1113 C1112 1.391 . S
C1113 C1117 1.376 . S
C1114 C1112 1.394 . S
C1114 C1115 1.369 . S
C1114 C1118 1.531 . S
C1115 C1114 1.369 . S
C1115 C1116 1.410 . S
C1115 C1123 1.503 . S
C1116 C1115 1.410 . S
C1116 C1117 1.392 . S
C1116 C1119 1.511 . S
C1117 C1113 1.376 . S
C1117 C1116 1.392 . S
C1117 H1129 0.929 . S
C1118 C1114 1.531 . S
C1118 H1130 0.960 . S
C1118 H1131 0.962 . S
C1118 H1132 0.960 . S
C1119 C1116 1.511 . S
C1119 H1133 0.961 . S
C1119 H1134 0.961 . S
C1119 H1135 0.961 . S
C1120 C1121 1.370 . S
C1120 C1122 1.363 . S
C1120 H1136 0.931 . S
C1121 C1120 1.370 . S
C1121 C1125 1.408 . S
C1122 C1120 1.363 . S
C1122 C1123 1.370 . S
C1122 C1126 1.524 . S
C1123 C1115 1.503 . S
C1123 C1122 1.370 . S
C1123 C1124 1.403 . S
C1124 C1123 1.403 . S
C1124 C1125 1.404 . S
C1124 C1127 1.539 . S
C1125 C1121 1.408 . S
C1125 C1124 1.404 . S
C1125 H1137 0.930 . S
C1126 C1122 1.524 . S
C1126 H1138 0.956 . S
C1126 H1139 0.961 . S
C1126 H1140 0.961 . S
C1127 C1124 1.539 . S
C1127 H1141 0.958 . S
C1127 H1142 0.961 . S
C1127 H1143 0.960 . S
H1128 C1112 0.931 . S
H1129 C1117 0.929 . S
H1130 C1118 0.960 . S
H1131 C1118 0.962 . S
H1132 C1118 0.960 . S
H1133 C1119 0.961 . S
H1134 C1119 0.961 . S
H1135 C1119 0.961 . S
H1136 C1120 0.931 . S
H1137 C1125 0.930 . S
H1138 C1126 0.956 . S
H1139 C1126 0.961 . S
H1140 C1126 0.961 . S
H1141 C1127 0.958 . S
H1142 C1127 0.961 . S
H1143 C1127 0.960 . S
C1144 C1145 1.391 . S
C1144 C1146 1.394 . S
C1144 H1160 0.931 . S
C1145 C1144 1.391 . S
C1145 C1149 1.376 1_554 S
C1146 C1144 1.394 . S
C1146 C1147 1.369 1_554 S
C1146 C1150 1.531 . S
C1147 C1146 1.369 1_556 S
C1147 C1148 1.410 . S
C1147 C1155 1.503 . S
C1148 C1147 1.410 . S
C1148 C1149 1.392 . S
C1148 C1151 1.511 . S
C1149 C1145 1.376 1_556 S
C1149 C1148 1.392 . S
C1149 H1161 0.929 . S
C1150 C1146 1.531 . S
C1150 H1162 0.960 . S
C1150 H1163 0.962 . S
C1150 H1164 0.960 . S
C1151 C1148 1.511 . S
C1151 H1165 0.961 . S
C1151 H1166 0.961 . S
C1151 H1167 0.961 . S
C1152 C1153 1.370 . S
C1152 C1154 1.363 . S
C1152 H1168 0.931 . S
C1153 C1152 1.370 . S
C1153 C1157 1.408 . S
C1154 C1152 1.363 . S
C1154 C1155 1.370 . S
C1154 C1158 1.524 . S
C1155 C1147 1.503 . S
C1155 C1154 1.370 . S
C1155 C1156 1.403 . S
C1156 C1155 1.403 . S
C1156 C1157 1.404 . S
C1156 C1159 1.539 . S
C1157 C1153 1.408 . S
C1157 C1156 1.404 . S
C1157 H1169 0.930 . S
C1158 C1154 1.524 . S
C1158 H1170 0.956 1_556 S
C1158 H1171 0.961 . S
C1158 H1172 0.961 . S
C1159 C1156 1.539 . S
C1159 H1173 0.958 . S
C1159 H1174 0.961 . S
C1159 H1175 0.960 . S
H1160 C1144 0.931 . S
H1161 C1149 0.929 . S
H1162 C1150 0.960 . S
H1163 C1150 0.962 . S
H1164 C1150 0.960 . S
H1165 C1151 0.961 . S
H1166 C1151 0.961 . S
H1167 C1151 0.961 . S
H1168 C1152 0.931 . S
H1169 C1157 0.930 . S
H1170 C1158 0.956 1_554 S
H1171 C1158 0.961 . S
H1172 C1158 0.961 . S
H1173 C1159 0.958 . S
H1174 C1159 0.961 . S
H1175 C1159 0.960 . S
C409 C8 1.726 . S
C417 C109 1.568 . S
C441 C31 1.682 . S
C449 C149 1.481 . S
C473 C53 1.930 . S
C481 C170 1.787 . S
C513 C229 1.485 . S
C505 C74 1.477 . S
C545 C269 1.529 . S
C537 C26 1.692 . S
C569 C48 1.457 . S
C577 C290 1.447 . S
C601 C71 1.950 . S
C609 C330 1.801 . S
C633 C5 1.679 . S
C641 C389 1.457 . S
C665 C50 1.658 . S
C673 C370 1.523 . S
C705 C250 1.466 . S
C697 C70 1.608 . S
C737 C309 1.749 . S
C729 C4 1.988 . S
C761 C28 1.506 . S
C769 C349 1.422 . S
C801 C130 1.540 . S
C793 C73 1.648 . S
C825 C7 1.570 . S
C833 C189 1.456 . S
C865 C210 1.874 . S
C857 C30 1.911 . S
C897 C90 1.468 . S
C889 C52 1.622 . S
C929 C343 1.533 . S
C921 C9 1.624 . S
C961 C383 1.432 . S
C953 C29 1.434 . S
C985 C51 1.387 . S
C993 C263 1.377 . S
C1025 C303 1.555 . S
C1017 C75 1.645 . S
C1057 C183 1.573 . S
C1049 C27 1.629 . S
C1081 C49 1.588 . S
C1089 C223 1.526 . S
C1121 C103 1.401 . S
C1113 C72 1.429 . S
C1153 C143 1.411 . S
C1145 C6 1.448 . S
