# Generated by pormake.
# Topology ssa, (4,4)-cn, num edge types: 1
# Building blocks:
#     Node 0, Type 0, BuildingBlock: ESEHIV_clean_sbu_0, # of connection points: 4
#     Node 1, Type 0, BuildingBlock: ESEHIV_clean_sbu_0, # of connection points: 4
#     Node 2, Type 0, BuildingBlock: ESEHIV_clean_sbu_0, # of connection points: 4
#     Node 3, Type 0, BuildingBlock: ESEHIV_clean_sbu_0, # of connection points: 4
#     Node 4, Type 0, BuildingBlock: ESEHIV_clean_sbu_0, # of connection points: 4
#     Node 5, Type 0, BuildingBlock: ESEHIV_clean_sbu_0, # of connection points: 4
#     Node 6, Type 1, BuildingBlock: MUDLON_clean_sbu_0, # of connection points: 4
#     Node 7, Type 1, BuildingBlock: MUDLON_clean_sbu_0, # of connection points: 4
#     Node 8, Type 1, BuildingBlock: MUDLON_clean_sbu_0, # of connection points: 4
#     Node 9, Type 1, BuildingBlock: MUDLON_clean_sbu_0, # of connection points: 4
#     Node 10, Type 1, BuildingBlock: MUDLON_clean_sbu_0, # of connection points: 4
#     Node 11, Type 1, BuildingBlock: MUDLON_clean_sbu_0, # of connection points: 4
#     Edge 12, Type (0, 1), BuildingBlock: XIVTED_clean_linker_0, # of connection points: 2
#     Edge 13, Type (0, 1), BuildingBlock: XIVTED_clean_linker_0, # of connection points: 2
#     Edge 14, Type (0, 1), BuildingBlock: XIVTED_clean_linker_0, # of connection points: 2
#     Edge 15, Type (0, 1), BuildingBlock: XIVTED_clean_linker_0, # of connection points: 2
#     Edge 16, Type (0, 1), BuildingBlock: XIVTED_clean_linker_0, # of connection points: 2
#     Edge 17, Type (0, 1), BuildingBlock: XIVTED_clean_linker_0, # of connection points: 2
#     Edge 18, Type (0, 1), BuildingBlock: XIVTED_clean_linker_0, # of connection points: 2
#     Edge 19, Type (0, 1), BuildingBlock: XIVTED_clean_linker_0, # of connection points: 2
#     Edge 20, Type (0, 1), BuildingBlock: XIVTED_clean_linker_0, # of connection points: 2
#     Edge 21, Type (0, 1), BuildingBlock: XIVTED_clean_linker_0, # of connection points: 2
#     Edge 22, Type (0, 1), BuildingBlock: XIVTED_clean_linker_0, # of connection points: 2
#     Edge 23, Type (0, 1), BuildingBlock: XIVTED_clean_linker_0, # of connection points: 2
#     Edge 24, Type (0, 1), BuildingBlock: XIVTED_clean_linker_0, # of connection points: 2
#     Edge 25, Type (0, 1), BuildingBlock: XIVTED_clean_linker_0, # of connection points: 2
#     Edge 26, Type (0, 1), BuildingBlock: XIVTED_clean_linker_0, # of connection points: 2
#     Edge 27, Type (0, 1), BuildingBlock: XIVTED_clean_linker_0, # of connection points: 2
#     Edge 28, Type (0, 1), BuildingBlock: XIVTED_clean_linker_0, # of connection points: 2
#     Edge 29, Type (0, 1), BuildingBlock: XIVTED_clean_linker_0, # of connection points: 2
#     Edge 30, Type (0, 1), BuildingBlock: XIVTED_clean_linker_0, # of connection points: 2
#     Edge 31, Type (0, 1), BuildingBlock: XIVTED_clean_linker_0, # of connection points: 2
#     Edge 32, Type (0, 1), BuildingBlock: XIVTED_clean_linker_0, # of connection points: 2
#     Edge 33, Type (0, 1), BuildingBlock: XIVTED_clean_linker_0, # of connection points: 2
#     Edge 34, Type (0, 1), BuildingBlock: XIVTED_clean_linker_0, # of connection points: 2
#     Edge 35, Type (0, 1), BuildingBlock: XIVTED_clean_linker_0, # of connection points: 2
# Relax obj value: 0.022
# Max RMSD: 0.109
# Mean RMSD: 0.059
data_MOF--net-ssa--node1-ESEHIV_clean_sbu_0--node2-MUDLON_clean_sbu_0--edge1-XIVTED_clean_linker_0
_symmetry_space_group_name_H-M    P1
_symmetry_Int_Tables_number       1
_symmetry_cell_setting            triclinic
loop_
_symmetry_equiv_pos_as_xyz
'x, y, z'
_cell_length_a     43.47527
_cell_length_b     47.162351
_cell_length_c     41.654602
_cell_angle_alpha  88.218624
_cell_angle_beta   91.124897
_cell_angle_gamma 123.38862
loop_
_atom_site_label
_atom_site_type_symbol
_atom_site_fract_x
_atom_site_fract_y
_atom_site_fract_z
_atom_type_partial_charge
Cu0 Cu 1.0005 0.48373 1.01044 0.0
N1 N 0.01359 0.46605 0.9776 0.0
N2 N 1.00622 0.43156 0.93827 0.0
C3 C 0.9898 0.43728 0.96208 0.0
C4 C 0.04186 0.45781 0.9389 0.0
C5 C 0.04637 0.479 0.96331 0.0
O6 O 0.95396 0.47825 0.99782 0.0
C7 C 1.01258 0.44411 0.05597 0.0
O8 O 0.02128 0.43397 0.03073 0.0
H9 H 0.96067 0.42153 0.96747 0.0
H10 H 0.07159 0.50238 0.96984 0.0
N11 N 0.03535 0.52996 0.01628 0.0
N12 N 0.06883 0.5781 0.04365 0.0
C13 C 0.04172 0.54468 0.0449 0.0
C14 C 0.05894 0.55486 0.99577 0.0
C15 C 0.07968 0.5846 1.01259 0.0
C16 C 0.95213 0.48687 0.96886 0.0
O17 O 0.98117 0.49928 0.95038 0.0
H18 H 0.02641 0.53073 0.0662 0.0
H19 H 0.06118 0.5516 0.97052 0.0
O20 O 0.99945 0.46241 0.05191 0.0
H21 H 0.06312 0.46155 0.92282 0.0
H22 H 0.1015 0.60884 1.00268 0.0
Cu23 Cu 0.5232 0.0364 0.50508 0.0
N24 N 0.55163 0.03596 0.47237 0.0
N25 N 0.56886 0.01282 0.43684 0.0
C26 C 0.54099 0.00868 0.45455 0.0
C27 C 0.59821 0.0441 0.44358 0.0
C28 C 0.58741 0.05845 0.46543 0.0
O29 O 0.47218 1.00346 0.49278 0.0
C30 C 0.56242 0.01946 0.54921 0.0
O31 O 0.57314 0.01124 0.5239 0.0
H32 H 0.51407 0.98523 0.45641 0.0
H33 H 0.60489 0.08259 0.47693 0.0
N34 N 0.53279 0.07987 0.5103 0.0
N35 N 0.54586 0.12635 0.53611 0.0
C36 C 0.53477 0.09338 0.53894 0.0
C37 C 0.54311 0.10513 0.48846 0.0
C38 C 0.55095 0.13374 0.50427 0.0
C39 C 0.46069 0.00902 0.46644 0.0
O40 O 0.48189 0.03839 0.45137 0.0
H41 H 0.52862 0.07926 0.56147 0.0
H42 H 0.54588 0.10321 0.46301 0.0
O43 O 0.53769 0.02601 0.54608 0.0
H44 H 0.62575 0.05523 0.43432 0.0
H45 H 0.56086 0.15836 0.49319 0.0
Cu46 Cu 0.51774 0.52435 0.0308 0.0
N47 N 0.5158 0.48487 0.02062 0.0
N48 N 0.52198 0.449 0.9914 0.0
C49 C 0.5214 0.47745 0.99113 0.0
C50 C 0.51643 0.43826 0.02252 0.0
C51 C 0.51276 0.46038 0.04037 0.0
O52 O 0.54896 0.55802 0.99815 0.0
C53 C 0.44385 0.49135 0.0489 0.0
O54 O 0.44802 0.4663 0.05574 0.0
H55 H 0.52553 0.49313 0.97006 0.0
H56 H 0.50897 0.45909 0.06608 0.0
N57 N 0.53763 0.54012 0.07144 0.0
N58 N 0.54689 0.56765 0.117 0.0
C59 C 0.53292 0.56202 0.08697 0.0
C60 C 0.55532 0.53144 0.09229 0.0
C61 C 0.56108 0.54843 0.1205 0.0
C62 C 0.58371 0.57305 1.00141 0.0
O63 O 0.59677 0.56826 0.02826 0.0
H64 H 0.51823 0.57264 0.07666 0.0
H65 H 0.56303 0.51375 0.08752 0.0
O66 O 0.46942 0.51757 0.0339 0.0
H67 H 0.516 0.4165 0.03215 0.0
H68 H 0.57458 0.54671 0.14187 0.0
Cu69 Cu 0.03199 0.53409 0.54818 0.0
N70 N 0.07657 0.53709 0.54602 0.0
N71 N 0.12506 0.54265 0.52159 0.0
C72 C 0.09328 0.54098 0.51789 0.0
C73 C 0.12848 0.53935 0.55357 0.0
C74 C 0.09855 0.53615 0.56866 0.0
O75 O 0.02779 0.54978 0.50531 0.0
C76 C 0.99019 0.47907 0.58944 0.0
O77 O 0.01796 0.49959 0.60816 0.0
H78 H 0.08166 0.54152 0.49491 0.0
H79 H 0.09319 0.53324 0.59419 0.0
N80 N 0.0323 0.56171 0.57957 0.0
N81 N 1.00715 0.57736 0.61553 0.0
C82 C 1.00128 0.5582 0.58984 0.0
C83 C 0.05921 0.58425 0.59913 0.0
C84 C 0.04375 0.5941 0.62133 0.0
C85 C 0.03604 0.57997 0.50019 0.0
O86 O 0.03875 0.59809 0.52467 0.0
H87 H 0.97468 0.54096 0.579 0.0
H88 H 0.08761 0.59181 0.59821 0.0
O89 O 0.99121 0.48792 0.56 0.0
H90 H 0.15094 0.53931 0.56519 0.0
H91 H 0.05805 0.61091 0.6411 0.0
Cu92 Cu 0.54366 0.01753 0.05036 0.0
N93 N 0.53701 0.05338 0.05146 0.0
N94 N 0.53201 0.0939 0.02775 0.0
C95 C 0.55132 0.07924 0.02974 0.0
C96 C 0.50547 0.07754 0.05029 0.0
C97 C 0.5086 0.05254 0.06482 0.0
O98 O 0.55765 0.01662 1.00641 0.0
C99 C 0.49057 0.94629 0.06382 0.0
O100 O 0.50935 0.94011 0.04415 0.0
H101 H 0.57235 0.08413 1.01279 0.0
H102 H 0.48915 0.03286 0.08135 0.0
N103 N 0.58181 0.02498 0.07761 0.0
N104 N 0.61567 0.01235 0.10831 0.0
C105 C 0.58938 1.00155 0.08541 0.0
C106 C 0.60417 0.05175 0.09605 0.0
C107 C 0.62509 0.044 0.11511 0.0
C108 C 0.54301 0.02235 0.98239 0.0
O109 O 0.51188 0.0202 0.98644 0.0
H110 H 0.57446 0.97636 0.07564 0.0
H111 H 0.60431 0.07475 0.0964 0.0
O112 O 0.4994 0.97665 0.06692 0.0
H113 H 0.48349 0.08138 0.05419 0.0
H114 H 0.64507 0.06012 0.13301 0.0
Cu115 Cu 0.50216 0.47976 0.51151 0.0
N116 N 0.53615 0.50814 0.47976 0.0
N117 N 0.57109 0.55532 0.4496 0.0
C118 C 0.54795 0.54096 0.47485 0.0
C119 C 0.57399 0.53037 0.4382 0.0
C120 C 0.55247 0.50132 0.4569 0.0
O121 O 0.45407 0.46792 0.49621 0.0
C122 C 0.55319 0.51167 0.55867 0.0
O123 O 0.57244 0.51072 0.5353 0.0
H124 H 0.53882 0.55373 0.48914 0.0
H125 H 0.54874 0.47694 0.4538 0.0
N126 N 0.49798 0.43852 0.51824 0.0
N127 N 0.48309 0.39172 0.54682 0.0
C128 C 0.48987 0.42322 0.54741 0.0
C129 C 0.49636 0.41594 0.49812 0.0
C130 C 0.48751 0.38704 0.51584 0.0
C131 C 0.44417 0.4883 0.48976 0.0
O132 O 0.46506 0.51997 0.49876 0.0
H133 H 0.4882 0.43493 0.56866 0.0
H134 H 0.49977 0.41955 0.47237 0.0
O135 O 0.51963 0.50131 0.55315 0.0
H136 H 0.59037 0.53282 0.41778 0.0
H137 H 0.48316 0.36396 0.50643 0.0
Mg138 Mg 0.2407 0.48465 0.27051 0.0
C139 C 0.17025 0.47295 0.24359 0.0
O140 O 0.18484 0.50259 0.25699 0.0
C141 C 0.28547 0.45931 0.30227 0.0
O142 O 0.30701 0.47494 0.27741 0.0
C143 C 0.22289 0.50084 0.33039 0.0
O144 O 0.2073 0.46781 0.33025 0.0
O145 O 0.24036 0.51839 0.30544 0.0
O146 O 0.18653 0.45738 0.24705 0.0
O147 O 0.28055 0.50448 0.23091 0.0
C148 C 0.2717 0.4816 0.21044 0.0
O149 O 0.24129 0.45158 0.21533 0.0
O150 O 0.25425 0.45568 0.30306 0.0
Mg151 Mg 0.76578 0.22243 0.76007 0.0
C152 C 0.74915 0.16458 0.71089 0.0
O153 O 0.78437 0.17668 0.7081 0.0
C154 C 0.84695 0.26202 0.77705 0.0
O155 O 0.84939 0.27561 0.74844 0.0
C156 C 0.72333 0.1779 0.81237 0.0
O157 O 0.74678 0.17043 0.80321 0.0
O158 O 0.7244 0.20281 0.7982 0.0
O159 O 0.73875 0.17893 0.72899 0.0
O160 O 0.78122 0.26858 0.7319 0.0
C161 C 0.7867 0.26931 0.70181 0.0
O162 O 0.77698 0.24088 0.68798 0.0
O163 O 0.81606 0.23614 0.78604 0.0
Mg164 Mg 0.60484 0.79904 0.29592 0.0
C165 C 0.63291 0.84093 0.23438 0.0
O166 O 0.61235 0.81057 0.22221 0.0
C167 C 0.62605 0.77314 0.3535 0.0
O168 O 0.60794 0.78408 0.3678 0.0
C169 C 0.56486 0.83129 0.31615 0.0
O170 O 0.55901 0.83047 0.28502 0.0
O171 O 0.58028 0.81685 0.32783 0.0
O172 O 0.63815 0.84341 0.2646 0.0
O173 O 0.56765 0.75639 0.26571 0.0
C174 C 0.55705 0.72655 0.27558 0.0
O175 O 0.56276 0.7218 0.30577 0.0
O176 O 0.63304 0.77985 0.32369 0.0
Mg177 Mg 0.758 0.55049 0.79753 0.0
C178 C 0.68047 0.52119 0.76464 0.0
O179 O 0.66796 0.52117 0.7931 0.0
C180 C 0.76986 0.51976 0.85774 0.0
O181 O 0.76709 0.54325 0.87081 0.0
C182 C 0.73457 0.59697 0.81969 0.0
O183 O 0.72396 0.5949 0.78964 0.0
O184 O 0.75206 0.58351 0.82837 0.0
O185 O 0.71355 0.52939 0.76183 0.0
O186 O 0.80784 0.57457 0.76856 0.0
C187 C 0.80465 0.55377 0.7479 0.0
O188 O 0.7736 0.52374 0.74692 0.0
O189 O 0.76367 0.5148 0.82774 0.0
Mg190 Mg 0.25418 0.77158 0.27346 0.0
C191 C 0.19344 0.72447 0.2313 0.0
O192 O 0.19678 0.70517 0.25254 0.0
C193 C 0.28726 0.81551 0.32814 0.0
O194 O 0.28798 0.78842 0.33447 0.0
C195 C 0.19892 0.73141 0.32115 0.0
O196 O 0.19436 0.75536 0.31037 0.0
O197 O 0.22537 0.73053 0.30976 0.0
O198 O 0.2142 0.75663 0.23391 0.0
O199 O 0.30496 0.78423 0.25003 0.0
C200 C 0.30478 0.7759 0.22118 0.0
O201 O 0.2733 0.75283 0.20806 0.0
O202 O 0.2729 0.81703 0.30164 0.0
Mg203 Mg 0.52271 0.2587 0.78129 0.0
C204 C 0.55912 0.26588 0.71817 0.0
O205 O 0.54509 0.28399 0.71177 0.0
C206 C 0.54835 0.33147 0.80722 0.0
O207 O 0.54714 0.34116 0.77756 0.0
C208 C 0.53603 0.22111 0.82939 0.0
O209 O 0.56861 0.24543 0.81865 0.0
O210 O 0.50762 0.21808 0.81645 0.0
O211 O 0.55892 0.25631 0.74717 0.0
O212 O 0.47945 0.252 0.74891 0.0
C213 C 0.46588 0.26993 0.74893 0.0
O214 O 0.47047 0.28767 0.77436 0.0
O215 O 0.54239 0.30212 0.81268 0.0
H216 H 0.0166 0.47566 0.11184 0.0
H217 H 0.142 0.42091 0.20073 0.0
H218 H 0.03895 0.40483 0.07343 0.0
H219 H 0.12709 0.49815 0.23452 0.0
H220 H 0.09607 0.40763 0.15865 0.0
H221 H 0.04826 0.47685 0.16149 0.0
C222 C 0.02748 0.45982 0.11404 0.0
C223 C 0.02535 0.44034 0.08822 0.0
C224 C 0.10254 0.42721 0.17552 0.0
C225 C 0.06214 0.44195 0.14497 0.0
C226 C 0.12868 0.43471 0.19965 0.0
C227 C 0.13875 0.46093 0.22103 0.0
C228 C 0.08629 0.44603 0.17275 0.0
C229 C 0.12052 0.47796 0.2184 0.0
C230 C 0.0458 0.46068 0.14237 0.0
C231 C 0.04018 0.42046 0.09253 0.0
N232 N 0.09549 0.47043 0.19458 0.0
N233 N 0.05823 0.42205 0.12016 0.0
H234 H 0.54936 0.0381 0.60646 0.0
H235 H 0.75915 0.13249 0.66171 0.0
H236 H 0.62895 0.02661 0.55862 0.0
H237 H 0.67449 0.13134 0.71537 0.0
H238 H 0.7113 0.08938 0.62648 0.0
H239 H 0.59358 0.06717 0.64977 0.0
C240 C 0.57587 0.04108 0.60534 0.0
C241 C 0.58552 0.03019 0.57864 0.0
C242 C 0.70324 0.09833 0.64622 0.0
C243 C 0.63678 0.06421 0.62794 0.0
C244 C 0.73056 0.12294 0.66632 0.0
C245 C 0.72095 0.13596 0.69126 0.0
C246 C 0.66612 0.0868 0.65108 0.0
C247 C 0.68338 0.12249 0.69619 0.0
C248 C 0.60124 0.05785 0.63006 0.0
C249 C 0.62032 0.03473 0.57862 0.0
N250 N 0.65749 0.09899 0.67613 0.0
N251 N 0.64491 0.05189 0.6026 0.0
H252 H 0.54733 0.56124 0.18215 0.0
H253 H 0.54815 0.72877 0.21027 0.0
H254 H 0.54279 0.62246 0.10543 0.0
H255 H 0.54412 0.66343 0.28732 0.0
H256 H 0.54222 0.68815 0.17153 0.0
H257 H 0.5441 0.59727 0.22114 0.0
C258 C 0.54581 0.58231 0.17348 0.0
C259 C 0.5454 0.5888 0.14041 0.0
C260 C 0.54223 0.68251 0.19693 0.0
C261 C 0.54128 0.63 0.18492 0.0
C262 C 0.54543 0.70565 0.21909 0.0
C263 C 0.54692 0.69968 0.25214 0.0
C264 C 0.54076 0.65328 0.20784 0.0
C265 C 0.54326 0.66922 0.26209 0.0
C266 C 0.54364 0.60272 0.19575 0.0
C267 C 0.54279 0.6162 0.13062 0.0
N268 N 0.54076 0.64737 0.24005 0.0
N269 N 0.54099 0.63582 0.15273 0.0
H270 H 0.01572 0.62551 0.65649 0.0
H271 H 0.80014 0.51822 0.69622 0.0
H272 H 0.93433 0.52739 0.6185 0.0
H273 H 0.87847 0.60616 0.75044 0.0
H274 H 0.84987 0.52631 0.66343 0.0
H275 H 0.96705 0.62302 0.68811 0.0
C276 C 0.9878 0.60352 0.65471 0.0
C277 C 0.97925 0.57681 0.63439 0.0
C278 C 0.85642 0.54399 0.68241 0.0
C279 C 0.92356 0.57403 0.67018 0.0
C280 C 0.8279 0.53941 0.7012 0.0
C281 C 0.83514 0.56135 0.72638 0.0
C282 C 0.89282 0.5707 0.68871 0.0
C283 C 0.87171 0.5886 0.7313 0.0
C284 C 0.96004 0.60221 0.67267 0.0
C285 C 0.94245 0.54905 0.63302 0.0
N286 N 0.89935 0.59241 0.71274 0.0
N287 N 0.91619 0.54848 0.65054 0.0
H288 H 0.45452 0.87687 0.05899 0.0
H289 H 0.36602 0.83873 0.23408 0.0
H290 H 0.46493 0.95408 0.11994 0.0
H291 H 0.3167 0.7641 0.15993 0.0
H292 H 0.41252 0.87908 0.19567 0.0
H293 H 0.41215 0.83325 0.09841 0.0
C294 C 0.44781 0.88465 0.08053 0.0
C295 C 0.4631 0.91919 0.08602 0.0
C296 C 0.39174 0.85374 0.18792 0.0
C297 C 0.41563 0.86962 0.13144 0.0
C298 C 0.36536 0.83053 0.20993 0.0
C299 C 0.33716 0.79797 0.2002 0.0
C300 C 0.39031 0.8443 0.15601 0.0
C301 C 0.33778 0.78898 0.16845 0.0
C302 C 0.42374 0.85978 0.10299 0.0
C303 C 0.45358 0.9278 0.11447 0.0
N304 N 0.36382 0.81205 0.14742 0.0
N305 N 0.43073 0.90326 0.13615 0.0
H306 H 0.44669 0.38921 0.60019 0.0
H307 H 0.46733 0.24798 0.68902 0.0
H308 H 0.49327 0.33988 0.55528 0.0
H309 H 0.44213 0.31249 0.73736 0.0
H310 H 0.46434 0.2726 0.63754 0.0
H311 H 0.43344 0.35326 0.64789 0.0
C312 C 0.45424 0.37086 0.60032 0.0
C313 C 0.47195 0.36816 0.57383 0.0
C314 C 0.45892 0.28098 0.65938 0.0
C315 C 0.45615 0.3263 0.62854 0.0
C316 C 0.46037 0.26679 0.68885 0.0
C317 C 0.45552 0.27854 0.71773 0.0
C318 C 0.45232 0.30696 0.6587 0.0
C319 C 0.44642 0.30285 0.71582 0.0
C320 C 0.44637 0.35011 0.62757 0.0
C321 C 0.47978 0.34297 0.57514 0.0
N322 N 0.44553 0.31651 0.68686 0.0
N323 N 0.47217 0.32323 0.60219 0.0
H324 H 0.62241 1.0002 0.43378 0.0
H325 H 0.52232 0.85683 0.30376 0.0
H326 H 0.5134 0.96601 0.39946 0.0
H327 H 0.59867 0.8593 0.37325 0.0
H328 H 0.52211 0.90081 0.33358 0.0
H329 H 0.61895 0.95355 0.4057 0.0
C330 C 0.59796 0.9831 0.41999 0.0
C331 C 0.5682 0.98696 0.41877 0.0
C332 C 0.53858 0.89141 0.3424 0.0
C333 C 0.56397 0.93363 0.38675 0.0
C334 C 0.53869 0.86632 0.32547 0.0
C335 C 0.56049 0.85433 0.33606 0.0
C336 C 0.56113 0.90517 0.36964 0.0
C337 C 0.58127 0.86763 0.36429 0.0
C338 C 0.59581 0.95631 0.40429 0.0
C339 C 0.53685 0.96376 0.401 0.0
N340 N 0.58147 0.89265 0.37985 0.0
N341 N 0.53562 0.93819 0.38547 0.0
H342 H 0.56567 0.57424 0.93786 0.0
H343 H 0.75822 0.61421 0.88156 0.0
H344 H 0.65875 0.60875 1.00142 0.0
H345 H 0.67479 0.60197 0.81481 0.0
H346 H 0.72488 0.61935 0.92501 0.0
H347 H 0.60696 0.59113 0.89185 0.0
C348 C 0.59488 0.58605 0.94216 0.0
C349 C 0.60866 0.58954 0.97356 0.0
C350 C 0.71414 0.61617 0.90079 0.0
C351 C 0.65593 0.60845 0.92109 0.0
C352 C 0.73323 0.61326 0.87596 0.0
C353 C 0.71906 0.60727 0.84459 0.0
C354 C 0.68021 0.61238 0.89436 0.0
C355 C 0.68665 0.60645 0.83867 0.0
C356 C 0.61845 0.59561 0.91588 0.0
C357 C 0.64677 0.60505 0.97766 0.0
N358 N 0.66792 0.60827 0.86344 0.0
N359 N 0.66893 0.6134 0.95178 0.0
H360 H 0.04713 0.63999 0.47861 0.0
H361 H 0.19064 0.67158 0.34336 0.0
H362 H 0.06235 0.56108 0.45102 0.0
H363 H 0.14758 0.73418 0.35436 0.0
H364 H 0.14599 0.63115 0.38363 0.0
H365 H 0.08458 0.67483 0.43306 0.0
C366 C 0.0579 0.62975 0.46268 0.0
C367 C 0.05186 0.59768 0.46894 0.0
C368 C 0.1463 0.65369 0.37698 0.0
C369 C 0.09578 0.63793 0.41697 0.0
C370 C 0.17191 0.67684 0.3542 0.0
C371 C 0.17299 0.70639 0.34553 0.0
C372 C 0.12199 0.66043 0.39132 0.0
C373 C 0.14789 0.71182 0.36022 0.0
C374 C 0.07948 0.64975 0.4367 0.0
C375 C 0.06652 0.58576 0.44734 0.0
N376 N 0.12369 0.68925 0.38241 0.0
N377 N 0.08834 0.60612 0.4226 0.0
H378 H 0.59138 0.13865 0.99159 0.0
H379 H 0.47495 0.17588 0.86569 0.0
H380 H 0.47524 0.09641 1.0022 0.0
H381 H 0.59172 0.2194 0.85831 0.0
H382 H 0.47369 0.14565 0.91522 0.0
H383 H 0.5916 0.16848 0.94261 0.0
C384 C 0.56597 0.13585 0.98378 0.0
C385 C 0.53329 0.11494 1.00117 0.0
C386 C 0.49954 0.16177 0.90266 0.0
C387 C 0.53323 0.14908 0.94486 0.0
C388 C 0.50022 0.17887 0.87431 0.0
C389 C 0.5335 0.20028 0.85785 0.0
C390 C 0.53235 0.1661 0.91454 0.0
C391 C 0.56544 0.20331 0.87021 0.0
C392 C 0.56608 0.15289 0.95576 0.0
C393 C 0.50122 0.11254 0.98994 0.0
N394 N 0.56407 0.18651 0.89776 0.0
N395 N 0.50197 0.12925 0.96244 0.0
H396 H 0.40413 0.51691 0.47896 0.0
H397 H 0.33682 0.44311 0.30789 0.0
H398 H 0.41558 0.43704 0.44688 0.0
H399 H 0.27181 0.46667 0.3642 0.0
H400 H 0.37027 0.4449 0.35679 0.0
H401 H 0.35935 0.50362 0.4355 0.0
C402 C 0.39688 0.49633 0.46309 0.0
C403 C 0.4136 0.47806 0.46661 0.0
C404 C 0.34824 0.4491 0.35847 0.0
C405 C 0.36334 0.46342 0.41653 0.0
C406 C 0.32916 0.44803 0.33064 0.0
C407 C 0.30135 0.45446 0.33206 0.0
C408 C 0.34028 0.45779 0.38769 0.0
C409 C 0.29277 0.46113 0.36212 0.0
C410 C 0.37134 0.48874 0.43838 0.0
C411 C 0.40327 0.4517 0.44523 0.0
N412 N 0.31266 0.46329 0.38867 0.0
N413 N 0.37935 0.44559 0.42078 0.0
H414 H 0.02571 0.43293 0.8763 0.0
H415 H 0.84572 0.24902 0.84193 0.0
H416 H 0.94591 0.36796 0.94847 0.0
H417 H 0.91497 0.32049 0.76729 0.0
H418 H 0.88892 0.28787 0.88214 0.0
H419 H 0.99186 0.38798 0.83722 0.0
C420 C 1.00137 0.40907 0.88405 0.0
C421 C 0.98842 0.40437 0.91565 0.0
C422 C 0.89492 0.29486 0.85694 0.0
C423 C 0.94943 0.35281 0.87101 0.0
C424 C 0.87036 0.27255 0.83391 0.0
C425 C 0.87642 0.28164 0.80111 0.0
C426 C 0.92585 0.32649 0.84718 0.0
C427 C 0.90894 0.31252 0.79228 0.0
C428 C 0.98194 0.38346 0.86169 0.0
C429 C 0.9565 0.37295 0.92424 0.0
N430 N 0.93219 0.33397 0.81517 0.0
N431 N 0.93804 0.34848 0.90205 0.0
H432 H 0.89677 0.48698 1.00022 0.0
H433 H 0.79636 0.48313 0.83507 0.0
H434 H 0.93117 0.47913 0.90632 0.0
H435 H 0.78421 0.52289 0.92244 0.0
H436 H 0.83494 0.46797 0.86414 0.0
H437 H 0.84533 0.48751 0.97496 0.0
C438 C 0.89318 0.48487 0.97441 0.0
C439 C 0.91848 0.4834 0.95529 0.0
C440 C 0.82344 0.47963 0.87705 0.0
C441 C 0.85982 0.48366 0.92639 0.0
C442 C 0.80119 0.48811 0.86049 0.0
C443 C 0.78735 0.50473 0.8762 0.0
C444 C 0.83182 0.48761 0.90962 0.0
C445 C 0.79461 0.51046 0.90925 0.0
C446 C 0.86398 0.4853 0.96001 0.0
C447 C 0.91262 0.48076 0.92195 0.0
N448 N 0.8166 0.50221 0.92479 0.0
N449 N 0.88405 0.48106 0.9086 0.0
H450 H 0.42889 0.01334 0.41072 0.0
H451 H 0.30435 0.81237 0.39065 0.0
H452 H 0.41793 0.94104 0.4833 0.0
H453 H 0.3116 0.88306 0.31806 0.0
H454 H 0.34051 0.85918 0.42689 0.0
H455 H 0.38105 0.96649 0.37898 0.0
C456 C 0.41608 0.98764 0.42025 0.0
C457 C 0.42776 0.98118 0.4497 0.0
C458 C 0.33401 0.86458 0.40318 0.0
C459 C 0.37301 0.92725 0.41314 0.0
C460 C 0.31331 0.83779 0.38237 0.0
C461 C 0.3052 0.8438 0.35106 0.0
C462 C 0.34718 0.89792 0.39269 0.0
C463 C 0.31726 0.87726 0.34193 0.0
C464 C 0.38876 0.96087 0.40201 0.0
C465 C 0.40996 0.94731 0.46076 0.0
N466 N 0.33804 0.90315 0.36253 0.0
N467 N 0.38381 0.92166 0.44234 0.0
H468 H 0.54608 0.47616 0.93072 0.0
H469 H 0.54501 0.31564 0.87145 0.0
H470 H 0.51271 0.38677 0.98974 0.0
H471 H 0.55539 0.39336 0.8062 0.0
H472 H 0.54094 0.34552 0.91619 0.0
H473 H 0.55595 0.44973 0.88614 0.0
C474 C 0.54065 0.45104 0.93455 0.0
C475 C 0.52833 0.43388 0.96453 0.0
C476 C 0.5443 0.35619 0.89213 0.0
C477 C 0.54033 0.4036 0.91312 0.0
C478 C 0.54683 0.3392 0.86647 0.0
C479 C 0.55036 0.35182 0.83481 0.0
C480 C 0.54543 0.38625 0.88634 0.0
C481 C 0.55259 0.38257 0.83012 0.0
C482 C 0.54652 0.436 0.90892 0.0
C483 C 0.52248 0.40143 0.96754 0.0
N484 N 0.54994 0.39865 0.85555 0.0
N485 N 0.52853 0.38749 0.9423 0.0
H486 H 0.13621 0.57442 0.46343 0.0
H487 H 0.2242 0.48098 0.39151 0.0
H488 H 0.1668 0.51601 0.52094 0.0
H489 H 0.21333 0.55375 0.33611 0.0
H490 H 0.2085 0.49788 0.43996 0.0
H491 H 0.16863 0.57141 0.41769 0.0
C492 C 0.14998 0.56114 0.4665 0.0
C493 C 0.14827 0.54494 0.49597 0.0
C494 C 0.21001 0.51061 0.41739 0.0
C495 C 0.18557 0.54147 0.44361 0.0
C496 C 0.21898 0.50095 0.38968 0.0
C497 C 0.2198 0.51586 0.35977 0.0
C498 C 0.20094 0.53492 0.41525 0.0
C499 C 0.21305 0.54172 0.35876 0.0
C500 C 0.16869 0.55962 0.4404 0.0
C501 C 0.16734 0.52879 0.49874 0.0
N502 N 0.20324 0.55006 0.38608 0.0
N503 N 0.18472 0.52706 0.47278 0.0
H504 H 0.60509 0.02662 0.96253 0.0
H505 H 0.66124 0.17583 0.8314 0.0
H506 H 0.5349 0.06245 0.93843 0.0
H507 H 0.72227 0.12947 0.85019 0.0
H508 H 0.61497 0.13598 0.871 0.0
H509 H 0.64808 0.06457 0.9209 0.0
C510 C 0.59843 0.04209 0.94814 0.0
C511 C 0.56618 0.04109 0.9539 0.0
C512 C 0.63854 0.13463 0.86634 0.0
C513 C 0.61586 0.08543 0.90647 0.0
C514 C 0.66504 0.1575 0.84391 0.0
C515 C 0.69571 0.15603 0.83738 0.0
C516 C 0.64293 0.11031 0.88236 0.0
C517 C 0.69911 0.13159 0.85423 0.0
C518 C 0.62311 0.06396 0.92444 0.0
C519 C 0.55919 0.06201 0.93459 0.0
N520 N 0.67317 0.10985 0.87581 0.0
N521 N 0.58396 0.08352 0.91194 0.0
H522 H 0.59445 0.57828 0.3883 0.0
H523 H 0.61886 0.75601 0.41747 0.0
H524 H 0.58439 0.61074 0.48103 0.0
H525 H 0.63933 0.72854 0.32623 0.0
H526 H 0.61227 0.70533 0.44215 0.0
H527 H 0.61646 0.63491 0.36605 0.0
C528 C 0.59725 0.59733 0.40412 0.0
C529 C 0.58701 0.5894 0.43658 0.0
C530 C 0.61871 0.71057 0.41681 0.0
C531 C 0.61194 0.6544 0.41108 0.0
C532 C 0.62262 0.73963 0.40271 0.0
C533 C 0.62941 0.74648 0.36967 0.0
C534 C 0.62117 0.68786 0.3977 0.0
C535 C 0.63409 0.72433 0.35179 0.0
C536 C 0.60972 0.62971 0.39133 0.0
C537 C 0.59107 0.61528 0.45575 0.0
N538 N 0.62936 0.69577 0.36594 0.0
N539 N 0.6029 0.64642 0.44268 0.0
H540 H 0.54601 0.18418 0.53195 0.0
H541 H 0.57494 0.21669 0.72126 0.0
H542 H 0.56041 0.12091 0.59928 0.0
H543 H 0.55813 0.27817 0.6536 0.0
H544 H 0.5757 0.18463 0.67647 0.0
H545 H 0.55554 0.22156 0.57566 0.0
C546 C 0.55141 0.17819 0.55583 0.0
C547 C 0.55212 0.14906 0.56176 0.0
C548 C 0.57224 0.20538 0.67141 0.0
C549 C 0.5629 0.19192 0.6123 0.0
C550 C 0.57205 0.22388 0.697 0.0
C551 C 0.56627 0.25014 0.69132 0.0
C552 C 0.56655 0.2131 0.63984 0.0
C553 C 0.56253 0.25811 0.65926 0.0
C554 C 0.55674 0.19955 0.58088 0.0
C555 C 0.55891 0.14262 0.59347 0.0
N556 N 0.56243 0.23953 0.63486 0.0
N557 N 0.56392 0.16376 0.61747 0.0
H558 H 0.376 0.43742 0.066 0.0
H559 H 0.33973 0.53853 0.19302 0.0
H560 H 0.44564 0.54654 0.07114 0.0
H561 H 0.25804 0.43619 0.16461 0.0
H562 H 0.37941 0.54323 0.14896 0.0
H563 H 0.33234 0.43732 0.10202 0.0
C564 C 0.38173 0.46144 0.07426 0.0
C565 C 0.41437 0.492 0.06541 0.0
C566 C 0.3526 0.51992 0.15228 0.0
C567 C 0.36497 0.49211 0.10762 0.0
C568 C 0.33 0.51721 0.17744 0.0
C569 C 0.29558 0.48683 0.18278 0.0
C570 C 0.34077 0.49195 0.13258 0.0
C571 C 0.2844 0.46005 0.16174 0.0
C572 C 0.35686 0.46141 0.09496 0.0
C573 C 0.42057 0.52241 0.07708 0.0
N574 N 0.30697 0.46315 0.1379 0.0
N575 N 0.39638 0.52168 0.098 0.0
H576 H 0.93055 0.42417 0.55932 0.0
H577 H 0.82916 0.33345 0.72611 0.0
H578 H 0.97429 0.46427 0.65298 0.0
H579 H 0.79993 0.27991 0.63703 0.0
H580 H 0.87596 0.38533 0.6975 0.0
H581 H 0.87686 0.37421 0.58549 0.0
C582 C 0.92889 0.42252 0.58528 0.0
C583 C 0.95721 0.44834 0.60393 0.0
C584 C 0.85906 0.3623 0.68413 0.0
C585 C 0.89575 0.39172 0.63395 0.0
C586 C 0.83207 0.33269 0.70044 0.0
C587 C 0.81065 0.30214 0.68404 0.0
C588 C 0.86465 0.36153 0.6511 0.0
C589 C 0.81595 0.30281 0.65073 0.0
C590 C 0.89827 0.39406 0.6002 0.0
C591 C 0.95346 0.44491 0.63753 0.0
N592 N 0.84252 0.33193 0.6354 0.0
N593 N 0.92342 0.4173 0.65136 0.0
H594 H 0.61721 0.96058 0.08372 0.0
H595 H 0.65914 0.9056 0.25401 0.0
H596 H 0.64102 0.01806 0.16967 0.0
H597 H 0.62685 0.84505 0.16917 0.0
H598 H 0.66284 0.9516 0.22171 0.0
H599 H 0.63013 0.92257 0.11289 0.0
C600 C 0.62531 0.96531 0.10872 0.0
C601 C 0.62747 0.9923 0.12435 0.0
C602 C 0.65546 0.92843 0.21008 0.0
C603 C 0.64255 0.94884 0.15801 0.0
C604 C 0.65355 0.90219 0.22848 0.0
C605 C 0.64228 0.87121 0.21436 0.0
C606 C 0.64606 0.92369 0.17733 0.0
C607 C 0.63531 0.86832 0.18117 0.0
C608 C 0.63286 0.94366 0.12535 0.0
C609 C 0.639 0.99764 0.1566 0.0
N610 N 0.63694 0.89404 0.1639 0.0
N611 N 0.6457 0.97588 0.17245 0.0
H612 H 0.51786 0.48967 0.61758 0.0
H613 H 0.70252 0.52844 0.7024 0.0
H614 H 0.62553 0.54766 0.57407 0.0
H615 H 0.60957 0.50646 0.75936 0.0
H616 H 0.67033 0.52878 0.65425 0.0
H617 H 0.54717 0.49154 0.66954 0.0
C618 C 0.5476 0.50347 0.6191 0.0
C619 C 0.56929 0.51839 0.59142 0.0
C620 C 0.65685 0.52387 0.67724 0.0
C621 C 0.60265 0.51972 0.65016 0.0
C622 C 0.67516 0.52339 0.70484 0.0
C623 C 0.65889 0.51758 0.73515 0.0
C624 C 0.62168 0.51819 0.6796 0.0
C625 C 0.62323 0.51114 0.73652 0.0
C626 C 0.56425 0.50425 0.64863 0.0
C627 C 0.60767 0.53552 0.59466 0.0
N628 N 0.60574 0.51159 0.70911 0.0
N629 N 0.62298 0.53536 0.62327 0.0
H630 H 0.05726 0.5617 0.10766 0.0
H631 H 0.20204 0.74888 0.16865 0.0
H632 H 0.11508 0.64768 0.04161 0.0
H633 H 0.13125 0.66168 0.22977 0.0
H634 H 0.16852 0.71478 0.12144 0.0
H635 H 0.08257 0.5998 0.15198 0.0
C636 C 0.07493 0.58857 0.10217 0.0
C637 C 0.08369 0.60112 0.07033 0.0
C638 C 0.16 0.70338 0.14525 0.0
C639 C 0.11385 0.64559 0.12209 0.0
C640 C 0.17888 0.7229 0.17216 0.0
C641 C 0.16949 0.70796 0.2031 0.0
C642 C 0.1317 0.66884 0.14954 0.0
C643 C 0.13962 0.67411 0.20633 0.0
C644 C 0.08964 0.61052 0.12782 0.0
C645 C 0.10764 0.63655 0.06554 0.0
N646 N 0.12211 0.65572 0.17997 0.0
N647 N 0.12206 0.65751 0.09112 0.0
loop_
_geom_bond_atom_site_label_1
_geom_bond_atom_site_label_2
_geom_bond_distance
_geom_bond_site_symmetry_2
_ccdc_geom_bond_type
Cu0 N1 1.999 1_454 S
Cu0 O6 1.974 1_454 S
Cu0 N11 1.985 . S
Cu0 O20 1.959 . S
N1 Cu0 1.999 1_656 S
N1 C3 1.263 . S
N1 C5 1.389 1_556 S
N2 C3 1.358 . S
N2 C4 1.400 . S
C3 N1 1.263 . S
C3 N2 1.358 . S
C3 H9 0.930 . S
C4 N2 1.400 . S
C4 C5 1.351 1_556 S
C4 H21 0.930 . S
C5 N1 1.389 1_554 S
C5 C4 1.351 1_554 S
C5 H10 0.930 . S
O6 Cu0 1.974 1_656 S
O6 C16 1.282 1_655 S
C7 O8 1.261 . S
C7 O20 1.251 . S
O8 C7 1.261 . S
H9 C3 0.930 . S
H10 C5 0.930 . S
N11 Cu0 1.985 . S
N11 C13 1.335 . S
N11 C14 1.390 . S
N12 C13 1.345 . S
N12 C15 1.336 . S
C13 N11 1.335 . S
C13 N12 1.345 . S
C13 H18 0.930 . S
C14 N11 1.390 . S
C14 C15 1.346 . S
C14 H19 0.930 . S
C15 N12 1.336 . S
C15 C14 1.346 . S
C15 H22 0.929 . S
C16 O6 1.282 1_455 S
C16 O17 1.216 . S
O17 C16 1.216 . S
H18 C13 0.930 . S
H19 C14 0.930 . S
O20 Cu0 1.959 . S
O20 C7 1.251 . S
H21 C4 0.930 . S
H22 C15 0.929 . S
Cu23 N24 1.999 . S
Cu23 O29 1.974 . S
Cu23 N34 1.985 1_565 S
Cu23 O43 1.959 1_565 S
N24 Cu23 1.999 . S
N24 C26 1.263 . S
N24 C28 1.389 . S
N25 C26 1.358 . S
N25 C27 1.400 . S
C26 N24 1.263 . S
C26 N25 1.358 . S
C26 H32 0.930 . S
C27 N25 1.400 . S
C27 C28 1.351 . S
C27 H44 0.930 . S
C28 N24 1.389 . S
C28 C27 1.351 . S
C28 H33 0.930 . S
O29 Cu23 1.974 . S
O29 C39 1.282 . S
C30 O31 1.261 . S
C30 O43 1.251 . S
O31 C30 1.261 . S
H32 C26 0.930 . S
H33 C28 0.930 . S
N34 Cu23 1.985 1_545 S
N34 C36 1.335 . S
N34 C37 1.390 . S
N35 C36 1.345 . S
N35 C38 1.336 . S
C36 N34 1.335 . S
C36 N35 1.345 . S
C36 H41 0.930 . S
C37 N34 1.390 . S
C37 C38 1.346 . S
C37 H42 0.930 . S
C38 N35 1.336 . S
C38 C37 1.346 . S
C38 H45 0.929 . S
C39 O29 1.282 . S
C39 O40 1.216 1_565 S
O40 C39 1.216 1_545 S
H41 C36 0.930 . S
H42 C37 0.930 . S
O43 Cu23 1.959 1_545 S
O43 C30 1.251 . S
H44 C27 0.930 . S
H45 C38 0.929 . S
Cu46 N47 1.999 1_554 S
Cu46 O52 1.974 1_554 S
Cu46 N57 1.985 . S
Cu46 O66 1.959 . S
N47 Cu46 1.999 1_556 S
N47 C49 1.263 . S
N47 C51 1.389 . S
N48 C49 1.358 . S
N48 C50 1.400 . S
C49 N47 1.263 . S
C49 N48 1.358 . S
C49 H55 0.930 . S
C50 N48 1.400 . S
C50 C51 1.351 . S
C50 H67 0.930 . S
C51 N47 1.389 . S
C51 C50 1.351 . S
C51 H56 0.930 . S
O52 Cu46 1.974 1_556 S
O52 C62 1.282 . S
C53 O54 1.261 . S
C53 O66 1.251 . S
O54 C53 1.261 . S
H55 C49 0.930 . S
H56 C51 0.930 . S
N57 Cu46 1.985 . S
N57 C59 1.335 . S
N57 C60 1.390 . S
N58 C59 1.345 . S
N58 C61 1.336 . S
C59 N57 1.335 . S
C59 N58 1.345 . S
C59 H64 0.930 . S
C60 N57 1.390 . S
C60 C61 1.346 . S
C60 H65 0.930 . S
C61 N58 1.336 . S
C61 C60 1.346 . S
C61 H68 0.929 . S
C62 O52 1.282 . S
C62 O63 1.216 1_556 S
O63 C62 1.216 1_554 S
H64 C59 0.930 . S
H65 C60 0.930 . S
O66 Cu46 1.959 . S
O66 C53 1.251 . S
H67 C50 0.930 . S
H68 C61 0.929 . S
Cu69 N70 1.999 1_655 S
Cu69 O75 1.974 1_655 S
Cu69 N80 1.985 . S
Cu69 O89 1.959 . S
N70 Cu69 1.999 1_455 S
N70 C72 1.263 . S
N70 C74 1.389 1_455 S
N71 C72 1.358 . S
N71 C73 1.418 . S
C72 N70 1.263 . S
C72 N71 1.358 . S
C72 H78 0.930 . S
C73 N71 1.418 . S
C73 C74 1.322 1_455 S
C73 H90 0.941 1_455 S
C74 N70 1.389 1_655 S
C74 C73 1.322 1_655 S
C74 H79 0.930 . S
O75 Cu69 1.974 1_455 S
O75 C85 1.282 . S
C76 O77 1.261 1_655 S
C76 O89 1.251 . S
O77 C76 1.261 1_455 S
H78 C72 0.930 . S
H79 C74 0.930 . S
N80 Cu69 1.985 . S
N80 C82 1.335 . S
N80 C83 1.390 . S
N81 C82 1.345 . S
N81 C84 1.336 . S
C82 N80 1.335 . S
C82 N81 1.345 . S
C82 H87 0.930 . S
C83 N80 1.390 . S
C83 C84 1.346 . S
C83 H88 0.930 1_655 S
C84 N81 1.336 . S
C84 C83 1.346 . S
C84 H91 0.929 . S
C85 O75 1.282 . S
C85 O86 1.216 . S
O86 C85 1.216 . S
H87 C82 0.930 . S
H88 C83 0.930 1_455 S
O89 Cu69 1.959 . S
O89 C76 1.251 . S
H90 C73 0.941 1_655 S
H91 C84 0.929 . S
Cu92 N93 2.001 1_554 S
Cu92 O98 1.974 1_554 S
Cu92 N103 1.985 1_545 S
Cu92 O112 1.959 1_545 S
N93 Cu92 2.001 1_556 S
N93 C95 1.259 . S
N93 C97 1.391 1_556 S
N94 C95 1.358 . S
N94 C96 1.400 . S
C95 N93 1.259 . S
C95 N94 1.358 . S
C95 H101 0.930 . S
C96 N94 1.400 . S
C96 C97 1.351 1_556 S
C96 H113 0.930 . S
C97 N93 1.391 1_554 S
C97 C96 1.351 1_554 S
C97 H102 0.930 . S
O98 Cu92 1.974 1_556 S
O98 C108 1.282 . S
C99 O100 1.261 . S
C99 O112 1.251 . S
O100 C99 1.261 . S
H101 C95 0.930 . S
H102 C97 0.930 . S
N103 Cu92 1.985 1_565 S
N103 C105 1.335 . S
N103 C106 1.390 . S
N104 C105 1.345 . S
N104 C107 1.336 . S
C105 N103 1.335 . S
C105 N104 1.345 . S
C105 H110 0.930 . S
C106 N103 1.390 . S
C106 C107 1.346 . S
C106 H111 0.930 . S
C107 N104 1.336 . S
C107 C106 1.346 . S
C107 H114 0.929 . S
C108 O98 1.282 . S
C108 O109 1.216 1_545 S
O109 C108 1.216 1_565 S
H110 C105 0.930 . S
H111 C106 0.930 . S
O112 Cu92 1.959 1_565 S
O112 C99 1.251 . S
H113 C96 0.930 . S
H114 C107 0.929 . S
Cu115 N116 1.999 . S
Cu115 O121 1.974 . S
Cu115 N126 1.985 . S
Cu115 O135 1.959 . S
N116 Cu115 1.999 . S
N116 C118 1.263 . S
N116 C120 1.389 . S
N117 C118 1.358 . S
N117 C119 1.400 . S
C118 N116 1.263 . S
C118 N117 1.358 . S
C118 H124 0.930 . S
C119 N117 1.400 . S
C119 C120 1.351 . S
C119 H136 0.930 . S
C120 N116 1.389 . S
C120 C119 1.351 . S
C120 H125 0.930 . S
O121 Cu115 1.974 . S
O121 C131 1.282 . S
C122 O123 1.261 . S
C122 O135 1.251 . S
O123 C122 1.261 . S
H124 C118 0.930 . S
H125 C120 0.930 . S
N126 Cu115 1.985 . S
N126 C128 1.335 . S
N126 C129 1.390 . S
N127 C128 1.345 . S
N127 C130 1.336 . S
C128 N126 1.335 . S
C128 N127 1.345 . S
C128 H133 0.930 . S
C129 N126 1.390 . S
C129 C130 1.346 . S
C129 H134 0.930 . S
C130 N127 1.336 . S
C130 C129 1.346 . S
C130 H137 0.929 . S
C131 O121 1.282 . S
C131 O132 1.216 . S
O132 C131 1.216 . S
H133 C128 0.930 . S
H134 C129 0.930 . S
O135 Cu115 1.959 . S
O135 C122 1.251 . S
H136 C119 0.930 . S
H137 C130 0.929 . S
Mg138 O145 2.141 . S
Mg138 O146 2.048 . S
Mg138 O147 2.048 . S
Mg138 O150 2.141 . S
C139 O140 1.313 . S
C139 O146 1.195 . S
O140 C139 1.313 . S
C141 O142 1.245 . S
C141 O150 1.289 . S
O142 C141 1.245 . S
C143 O144 1.245 . S
C143 O145 1.289 . S
O144 C143 1.245 . S
O145 Mg138 2.141 . S
O145 C143 1.289 . S
O146 Mg138 2.048 . S
O146 C139 1.195 . S
O147 Mg138 2.048 . S
O147 C148 1.195 . S
C148 O147 1.195 . S
C148 O149 1.313 . S
O149 C148 1.313 . S
O150 Mg138 2.141 . S
O150 C141 1.289 . S
Mg151 O158 2.141 . S
Mg151 O159 2.048 . S
Mg151 O160 2.048 . S
Mg151 O163 2.141 . S
C152 O153 1.313 . S
C152 O159 1.195 . S
O153 C152 1.313 . S
C154 O155 1.245 . S
C154 O163 1.289 . S
O155 C154 1.245 . S
C156 O157 1.245 . S
C156 O158 1.289 . S
O157 C156 1.245 . S
O158 Mg151 2.141 . S
O158 C156 1.289 . S
O159 Mg151 2.048 . S
O159 C152 1.195 . S
O160 Mg151 2.048 . S
O160 C161 1.195 . S
C161 O160 1.195 . S
C161 O162 1.313 . S
O162 C161 1.313 . S
O163 Mg151 2.141 . S
O163 C154 1.289 . S
Mg164 O171 2.141 . S
Mg164 O172 2.048 . S
Mg164 O173 2.048 . S
Mg164 O176 2.141 . S
C165 O166 1.313 . S
C165 O172 1.195 . S
O166 C165 1.313 . S
C167 O168 1.245 . S
C167 O176 1.289 . S
O168 C167 1.245 . S
C169 O170 1.245 . S
C169 O171 1.289 . S
O170 C169 1.245 . S
O171 Mg164 2.141 . S
O171 C169 1.289 . S
O172 Mg164 2.048 . S
O172 C165 1.195 . S
O173 Mg164 2.048 . S
O173 C174 1.195 . S
C174 O173 1.195 . S
C174 O175 1.313 . S
O175 C174 1.313 . S
O176 Mg164 2.141 . S
O176 C167 1.289 . S
Mg177 O184 2.141 . S
Mg177 O185 2.048 . S
Mg177 O186 2.048 . S
Mg177 O189 2.141 . S
C178 O179 1.313 . S
C178 O185 1.195 . S
O179 C178 1.313 . S
C180 O181 1.245 . S
C180 O189 1.289 . S
O181 C180 1.245 . S
C182 O183 1.245 . S
C182 O184 1.289 . S
O183 C182 1.245 . S
O184 Mg177 2.141 . S
O184 C182 1.289 . S
O185 Mg177 2.048 . S
O185 C178 1.195 . S
O186 Mg177 2.048 . S
O186 C187 1.195 . S
C187 O186 1.195 . S
C187 O188 1.313 . S
O188 C187 1.313 . S
O189 Mg177 2.141 . S
O189 C180 1.289 . S
Mg190 O197 2.141 . S
Mg190 O198 2.048 . S
Mg190 O199 2.048 . S
Mg190 O202 2.141 . S
C191 O192 1.313 . S
C191 O198 1.195 . S
O192 C191 1.313 . S
C193 O194 1.245 . S
C193 O202 1.289 . S
O194 C193 1.245 . S
C195 O196 1.245 . S
C195 O197 1.289 . S
O196 C195 1.245 . S
O197 Mg190 2.141 . S
O197 C195 1.289 . S
O198 Mg190 2.048 . S
O198 C191 1.195 . S
O199 Mg190 2.048 . S
O199 C200 1.195 . S
C200 O199 1.195 . S
C200 O201 1.313 . S
O201 C200 1.313 . S
O202 Mg190 2.141 . S
O202 C193 1.289 . S
Mg203 O210 2.141 . S
Mg203 O211 2.048 . S
Mg203 O212 2.048 . S
Mg203 O215 2.141 . S
C204 O205 1.313 . S
C204 O211 1.195 . S
O205 C204 1.313 . S
C206 O207 1.245 . S
C206 O215 1.289 . S
O207 C206 1.245 . S
C208 O209 1.245 . S
C208 O210 1.289 . S
O209 C208 1.245 . S
O210 Mg203 2.141 . S
O210 C208 1.289 . S
O211 Mg203 2.048 . S
O211 C204 1.195 . S
O212 Mg203 2.048 . S
O212 C213 1.195 . S
C213 O212 1.195 . S
C213 O214 1.313 . S
O214 C213 1.313 . S
O215 Mg203 2.141 . S
O215 C206 1.289 . S
H216 C222 0.930 . S
H217 C226 0.930 . S
H218 C231 0.929 . S
H219 C229 0.929 . S
H220 C224 0.929 . S
H221 C230 0.929 . S
C222 H216 0.930 . S
C222 C223 1.367 . S
C222 C230 1.378 . S
C223 C222 1.367 . S
C223 C231 1.433 . S
C224 H220 0.929 . S
C224 C226 1.378 . S
C224 C228 1.350 . S
C225 C228 1.463 . S
C225 C230 1.350 . S
C225 N233 1.427 . S
C226 H217 0.930 . S
C226 C224 1.378 . S
C226 C227 1.367 . S
C227 C226 1.367 . S
C227 C229 1.433 . S
C228 C224 1.350 . S
C228 C225 1.463 . S
C228 N232 1.427 . S
C229 H219 0.929 . S
C229 C227 1.433 . S
C229 N232 1.384 . S
C230 H221 0.929 . S
C230 C222 1.378 . S
C230 C225 1.350 . S
C231 H218 0.929 . S
C231 C223 1.433 . S
C231 N233 1.384 . S
N232 C228 1.427 . S
N232 C229 1.384 . S
N233 C225 1.427 . S
N233 C231 1.384 . S
H234 C240 0.930 . S
H235 C244 0.930 . S
H236 C249 0.929 . S
H237 C247 0.929 . S
H238 C242 0.929 . S
H239 C248 0.929 . S
C240 H234 0.930 . S
C240 C241 1.367 . S
C240 C248 1.378 . S
C241 C240 1.367 . S
C241 C249 1.433 . S
C242 H238 0.929 . S
C242 C244 1.378 . S
C242 C246 1.350 . S
C243 C246 1.463 . S
C243 C248 1.350 . S
C243 N251 1.427 . S
C244 H235 0.930 . S
C244 C242 1.378 . S
C244 C245 1.367 . S
C245 C244 1.367 . S
C245 C247 1.433 . S
C246 C242 1.350 . S
C246 C243 1.463 . S
C246 N250 1.427 . S
C247 H237 0.929 . S
C247 C245 1.433 . S
C247 N250 1.384 . S
C248 H239 0.929 . S
C248 C240 1.378 . S
C248 C243 1.350 . S
C249 H236 0.929 . S
C249 C241 1.433 . S
C249 N251 1.384 . S
N250 C246 1.427 . S
N250 C247 1.384 . S
N251 C243 1.427 . S
N251 C249 1.384 . S
H252 C258 0.930 . S
H253 C262 0.930 . S
H254 C267 0.929 . S
H255 C265 0.929 . S
H256 C260 0.929 . S
H257 C266 0.929 . S
C258 H252 0.930 . S
C258 C259 1.367 . S
C258 C266 1.378 . S
C259 C258 1.367 . S
C259 C267 1.433 . S
C260 H256 0.929 . S
C260 C262 1.378 . S
C260 C264 1.350 . S
C261 C264 1.463 . S
C261 C266 1.350 . S
C261 N269 1.427 . S
C262 H253 0.930 . S
C262 C260 1.378 . S
C262 C263 1.367 . S
C263 C262 1.367 . S
C263 C265 1.433 . S
C264 C260 1.350 . S
C264 C261 1.463 . S
C264 N268 1.427 . S
C265 H255 0.929 . S
C265 C263 1.433 . S
C265 N268 1.384 . S
C266 H257 0.929 . S
C266 C258 1.378 . S
C266 C261 1.350 . S
C267 H254 0.929 . S
C267 C259 1.433 . S
C267 N269 1.384 . S
N268 C264 1.427 . S
N268 C265 1.384 . S
N269 C261 1.427 . S
N269 C267 1.384 . S
H270 C276 0.930 . S
H271 C280 0.930 . S
H272 C285 0.929 . S
H273 C283 0.929 . S
H274 C278 0.929 . S
H275 C284 0.929 . S
C276 H270 0.930 . S
C276 C277 1.367 . S
C276 C284 1.378 . S
C277 C276 1.367 . S
C277 C285 1.433 . S
C278 H274 0.929 . S
C278 C280 1.378 . S
C278 C282 1.350 . S
C279 C282 1.463 . S
C279 C284 1.350 . S
C279 N287 1.427 . S
C280 H271 0.930 . S
C280 C278 1.378 . S
C280 C281 1.367 . S
C281 C280 1.367 . S
C281 C283 1.433 . S
C282 C278 1.350 . S
C282 C279 1.463 . S
C282 N286 1.427 . S
C283 H273 0.929 . S
C283 C281 1.433 . S
C283 N286 1.384 . S
C284 H275 0.929 . S
C284 C276 1.378 . S
C284 C279 1.350 . S
C285 H272 0.929 . S
C285 C277 1.433 . S
C285 N287 1.384 . S
N286 C282 1.427 . S
N286 C283 1.384 . S
N287 C279 1.427 . S
N287 C285 1.384 . S
H288 C294 0.930 . S
H289 C298 0.930 . S
H290 C303 0.929 . S
H291 C301 0.929 . S
H292 C296 0.929 . S
H293 C302 0.929 . S
C294 H288 0.930 . S
C294 C295 1.367 . S
C294 C302 1.378 . S
C295 C294 1.367 . S
C295 C303 1.433 . S
C296 H292 0.929 . S
C296 C298 1.378 . S
C296 C300 1.350 . S
C297 C300 1.463 . S
C297 C302 1.350 . S
C297 N305 1.427 . S
C298 H289 0.930 . S
C298 C296 1.378 . S
C298 C299 1.367 . S
C299 C298 1.367 . S
C299 C301 1.433 . S
C300 C296 1.350 . S
C300 C297 1.463 . S
C300 N304 1.427 . S
C301 H291 0.929 . S
C301 C299 1.433 . S
C301 N304 1.384 . S
C302 H293 0.929 . S
C302 C294 1.378 . S
C302 C297 1.350 . S
C303 H290 0.929 . S
C303 C295 1.433 . S
C303 N305 1.384 . S
N304 C300 1.427 . S
N304 C301 1.384 . S
N305 C297 1.427 . S
N305 C303 1.384 . S
H306 C312 0.930 . S
H307 C316 0.930 . S
H308 C321 0.929 . S
H309 C319 0.929 . S
H310 C314 0.929 . S
H311 C320 0.929 . S
C312 H306 0.930 . S
C312 C313 1.367 . S
C312 C320 1.378 . S
C313 C312 1.367 . S
C313 C321 1.433 . S
C314 H310 0.929 . S
C314 C316 1.378 . S
C314 C318 1.350 . S
C315 C318 1.463 . S
C315 C320 1.350 . S
C315 N323 1.427 . S
C316 H307 0.930 . S
C316 C314 1.378 . S
C316 C317 1.367 . S
C317 C316 1.367 . S
C317 C319 1.433 . S
C318 C314 1.350 . S
C318 C315 1.463 . S
C318 N322 1.427 . S
C319 H309 0.929 . S
C319 C317 1.433 . S
C319 N322 1.384 . S
C320 H311 0.929 . S
C320 C312 1.378 . S
C320 C315 1.350 . S
C321 H308 0.929 . S
C321 C313 1.433 . S
C321 N323 1.384 . S
N322 C318 1.427 . S
N322 C319 1.384 . S
N323 C315 1.427 . S
N323 C321 1.384 . S
H324 C330 0.930 . S
H325 C334 0.930 . S
H326 C339 0.929 . S
H327 C337 0.929 . S
H328 C332 0.929 . S
H329 C338 0.929 . S
C330 H324 0.930 . S
C330 C331 1.367 . S
C330 C338 1.378 . S
C331 C330 1.367 . S
C331 C339 1.433 . S
C332 H328 0.929 . S
C332 C334 1.378 . S
C332 C336 1.350 . S
C333 C336 1.463 . S
C333 C338 1.350 . S
C333 N341 1.427 . S
C334 H325 0.930 . S
C334 C332 1.378 . S
C334 C335 1.367 . S
C335 C334 1.367 . S
C335 C337 1.433 . S
C336 C332 1.350 . S
C336 C333 1.463 . S
C336 N340 1.427 . S
C337 H327 0.929 . S
C337 C335 1.433 . S
C337 N340 1.384 . S
C338 H329 0.929 . S
C338 C330 1.378 . S
C338 C333 1.350 . S
C339 H326 0.929 . S
C339 C331 1.433 . S
C339 N341 1.384 . S
N340 C336 1.427 . S
N340 C337 1.384 . S
N341 C333 1.427 . S
N341 C339 1.384 . S
H342 C348 0.930 . S
H343 C352 0.930 . S
H344 C357 0.929 . S
H345 C355 0.929 . S
H346 C350 0.929 . S
H347 C356 0.929 . S
C348 H342 0.930 . S
C348 C349 1.367 . S
C348 C356 1.378 . S
C349 C348 1.367 . S
C349 C357 1.433 . S
C350 H346 0.929 . S
C350 C352 1.378 . S
C350 C354 1.350 . S
C351 C354 1.463 . S
C351 C356 1.350 . S
C351 N359 1.427 . S
C352 H343 0.930 . S
C352 C350 1.378 . S
C352 C353 1.367 . S
C353 C352 1.367 . S
C353 C355 1.433 . S
C354 C350 1.350 . S
C354 C351 1.463 . S
C354 N358 1.427 . S
C355 H345 0.929 . S
C355 C353 1.433 . S
C355 N358 1.384 . S
C356 H347 0.929 . S
C356 C348 1.378 . S
C356 C351 1.350 . S
C357 H344 0.929 . S
C357 C349 1.433 . S
C357 N359 1.384 . S
N358 C354 1.427 . S
N358 C355 1.384 . S
N359 C351 1.427 . S
N359 C357 1.384 . S
H360 C366 0.930 . S
H361 C370 0.930 . S
H362 C375 0.929 . S
H363 C373 0.929 . S
H364 C368 0.929 . S
H365 C374 0.929 . S
C366 H360 0.930 . S
C366 C367 1.367 . S
C366 C374 1.378 . S
C367 C366 1.367 . S
C367 C375 1.433 . S
C368 H364 0.929 . S
C368 C370 1.378 . S
C368 C372 1.350 . S
C369 C372 1.463 . S
C369 C374 1.350 . S
C369 N377 1.427 . S
C370 H361 0.930 . S
C370 C368 1.378 . S
C370 C371 1.367 . S
C371 C370 1.367 . S
C371 C373 1.433 . S
C372 C368 1.350 . S
C372 C369 1.463 . S
C372 N376 1.427 . S
C373 H363 0.929 . S
C373 C371 1.433 . S
C373 N376 1.384 . S
C374 H365 0.929 . S
C374 C366 1.378 . S
C374 C369 1.350 . S
C375 H362 0.929 . S
C375 C367 1.433 . S
C375 N377 1.384 . S
N376 C372 1.427 . S
N376 C373 1.384 . S
N377 C369 1.427 . S
N377 C375 1.384 . S
H378 C384 0.930 . S
H379 C388 0.930 . S
H380 C393 0.929 . S
H381 C391 0.929 . S
H382 C386 0.929 . S
H383 C392 0.929 . S
C384 H378 0.930 . S
C384 C385 1.367 . S
C384 C392 1.378 . S
C385 C384 1.367 . S
C385 C393 1.433 . S
C386 H382 0.929 . S
C386 C388 1.378 . S
C386 C390 1.350 . S
C387 C390 1.463 . S
C387 C392 1.350 . S
C387 N395 1.427 . S
C388 H379 0.930 . S
C388 C386 1.378 . S
C388 C389 1.367 . S
C389 C388 1.367 . S
C389 C391 1.433 . S
C390 C386 1.350 . S
C390 C387 1.463 . S
C390 N394 1.427 . S
C391 H381 0.929 . S
C391 C389 1.433 . S
C391 N394 1.384 . S
C392 H383 0.929 . S
C392 C384 1.378 . S
C392 C387 1.350 . S
C393 H380 0.929 . S
C393 C385 1.433 . S
C393 N395 1.384 . S
N394 C390 1.427 . S
N394 C391 1.384 . S
N395 C387 1.427 . S
N395 C393 1.384 . S
H396 C402 0.930 . S
H397 C406 0.930 . S
H398 C411 0.929 . S
H399 C409 0.929 . S
H400 C404 0.929 . S
H401 C410 0.929 . S
C402 H396 0.930 . S
C402 C403 1.367 . S
C402 C410 1.378 . S
C403 C402 1.367 . S
C403 C411 1.433 . S
C404 H400 0.929 . S
C404 C406 1.378 . S
C404 C408 1.350 . S
C405 C408 1.463 . S
C405 C410 1.350 . S
C405 N413 1.427 . S
C406 H397 0.930 . S
C406 C404 1.378 . S
C406 C407 1.367 . S
C407 C406 1.367 . S
C407 C409 1.433 . S
C408 C404 1.350 . S
C408 C405 1.463 . S
C408 N412 1.427 . S
C409 H399 0.929 . S
C409 C407 1.433 . S
C409 N412 1.384 . S
C410 H401 0.929 . S
C410 C402 1.378 . S
C410 C405 1.350 . S
C411 H398 0.929 . S
C411 C403 1.433 . S
C411 N413 1.384 . S
N412 C408 1.427 . S
N412 C409 1.384 . S
N413 C405 1.427 . S
N413 C411 1.384 . S
H414 C420 0.930 1_455 S
H415 C424 0.930 . S
H416 C429 0.929 . S
H417 C427 0.929 . S
H418 C422 0.929 . S
H419 C428 0.929 . S
C420 H414 0.930 1_655 S
C420 C421 1.367 . S
C420 C428 1.378 . S
C421 C420 1.367 . S
C421 C429 1.433 . S
C422 H418 0.929 . S
C422 C424 1.378 . S
C422 C426 1.350 . S
C423 C426 1.463 . S
C423 C428 1.350 . S
C423 N431 1.427 . S
C424 H415 0.930 . S
C424 C422 1.378 . S
C424 C425 1.367 . S
C425 C424 1.367 . S
C425 C427 1.433 . S
C426 C422 1.350 . S
C426 C423 1.463 . S
C426 N430 1.427 . S
C427 H417 0.929 . S
C427 C425 1.433 . S
C427 N430 1.384 . S
C428 H419 0.929 . S
C428 C420 1.378 . S
C428 C423 1.350 . S
C429 H416 0.929 . S
C429 C421 1.433 . S
C429 N431 1.384 . S
N430 C426 1.427 . S
N430 C427 1.384 . S
N431 C423 1.427 . S
N431 C429 1.384 . S
H432 C438 0.930 . S
H433 C442 0.930 . S
H434 C447 0.929 1_455 S
H435 C445 0.929 . S
H436 C440 0.929 . S
H437 C446 0.929 . S
C438 H432 0.930 . S
C438 C439 1.367 . S
C438 C446 1.378 . S
C439 C438 1.367 . S
C439 C447 1.433 . S
C440 H436 0.929 . S
C440 C442 1.378 . S
C440 C444 1.350 . S
C441 C444 1.463 . S
C441 C446 1.350 . S
C441 N449 1.427 . S
C442 H433 0.930 . S
C442 C440 1.378 . S
C442 C443 1.367 . S
C443 C442 1.367 . S
C443 C445 1.433 . S
C444 C440 1.350 . S
C444 C441 1.463 . S
C444 N448 1.427 . S
C445 H435 0.929 . S
C445 C443 1.433 . S
C445 N448 1.384 . S
C446 H437 0.929 . S
C446 C438 1.378 . S
C446 C441 1.350 . S
C447 H434 0.929 1_655 S
C447 C439 1.433 . S
C447 N449 1.384 . S
N448 C444 1.427 . S
N448 C445 1.384 . S
N449 C441 1.427 . S
N449 C447 1.384 . S
H450 C456 0.930 . S
H451 C460 0.930 . S
H452 C465 0.929 . S
H453 C463 0.929 . S
H454 C458 0.929 . S
H455 C464 0.929 . S
C456 H450 0.930 . S
C456 C457 1.367 . S
C456 C464 1.378 . S
C457 C456 1.367 . S
C457 C465 1.433 . S
C458 H454 0.929 . S
C458 C460 1.378 . S
C458 C462 1.350 . S
C459 C462 1.463 . S
C459 C464 1.350 . S
C459 N467 1.427 . S
C460 H451 0.930 . S
C460 C458 1.378 . S
C460 C461 1.367 . S
C461 C460 1.367 . S
C461 C463 1.433 . S
C462 C458 1.350 . S
C462 C459 1.463 . S
C462 N466 1.427 . S
C463 H453 0.929 . S
C463 C461 1.433 . S
C463 N466 1.384 . S
C464 H455 0.929 . S
C464 C456 1.378 . S
C464 C459 1.350 . S
C465 H452 0.929 . S
C465 C457 1.433 . S
C465 N467 1.384 . S
N466 C462 1.427 . S
N466 C463 1.384 . S
N467 C459 1.427 . S
N467 C465 1.384 . S
H468 C474 0.930 . S
H469 C478 0.930 . S
H470 C483 0.929 . S
H471 C481 0.929 . S
H472 C476 0.929 . S
H473 C482 0.929 . S
C474 H468 0.930 . S
C474 C475 1.367 . S
C474 C482 1.378 . S
C475 C474 1.367 . S
C475 C483 1.433 . S
C476 H472 0.929 . S
C476 C478 1.378 . S
C476 C480 1.350 . S
C477 C480 1.463 . S
C477 C482 1.350 . S
C477 N485 1.427 . S
C478 H469 0.930 . S
C478 C476 1.378 . S
C478 C479 1.367 . S
C479 C478 1.367 . S
C479 C481 1.433 . S
C480 C476 1.350 . S
C480 C477 1.463 . S
C480 N484 1.427 . S
C481 H471 0.929 . S
C481 C479 1.433 . S
C481 N484 1.384 . S
C482 H473 0.929 . S
C482 C474 1.378 . S
C482 C477 1.350 . S
C483 H470 0.929 . S
C483 C475 1.433 . S
C483 N485 1.384 . S
N484 C480 1.427 . S
N484 C481 1.384 . S
N485 C477 1.427 . S
N485 C483 1.384 . S
H486 C492 0.930 . S
H487 C496 0.930 . S
H488 C501 0.929 . S
H489 C499 0.929 . S
H490 C494 0.929 . S
H491 C500 0.929 . S
C492 H486 0.930 . S
C492 C493 1.367 . S
C492 C500 1.378 . S
C493 C492 1.367 . S
C493 C501 1.433 . S
C494 H490 0.929 . S
C494 C496 1.378 . S
C494 C498 1.350 . S
C495 C498 1.463 . S
C495 C500 1.350 . S
C495 N503 1.427 . S
C496 H487 0.930 . S
C496 C494 1.378 . S
C496 C497 1.367 . S
C497 C496 1.367 . S
C497 C499 1.433 . S
C498 C494 1.350 . S
C498 C495 1.463 . S
C498 N502 1.427 . S
C499 H489 0.929 . S
C499 C497 1.433 . S
C499 N502 1.384 . S
C500 H491 0.929 . S
C500 C492 1.378 . S
C500 C495 1.350 . S
C501 H488 0.929 . S
C501 C493 1.433 . S
C501 N503 1.384 . S
N502 C498 1.427 . S
N502 C499 1.384 . S
N503 C495 1.427 . S
N503 C501 1.384 . S
H504 C510 0.930 . S
H505 C514 0.930 . S
H506 C519 0.929 . S
H507 C517 0.929 . S
H508 C512 0.929 . S
H509 C518 0.929 . S
C510 H504 0.930 . S
C510 C511 1.367 . S
C510 C518 1.378 . S
C511 C510 1.367 . S
C511 C519 1.433 . S
C512 H508 0.929 . S
C512 C514 1.378 . S
C512 C516 1.350 . S
C513 C516 1.463 . S
C513 C518 1.350 . S
C513 N521 1.427 . S
C514 H505 0.930 . S
C514 C512 1.378 . S
C514 C515 1.367 . S
C515 C514 1.367 . S
C515 C517 1.433 . S
C516 C512 1.350 . S
C516 C513 1.463 . S
C516 N520 1.427 . S
C517 H507 0.929 . S
C517 C515 1.433 . S
C517 N520 1.384 . S
C518 H509 0.929 . S
C518 C510 1.378 . S
C518 C513 1.350 . S
C519 H506 0.929 . S
C519 C511 1.433 . S
C519 N521 1.384 . S
N520 C516 1.427 . S
N520 C517 1.384 . S
N521 C513 1.427 . S
N521 C519 1.384 . S
H522 C528 0.930 . S
H523 C532 0.930 . S
H524 C537 0.929 . S
H525 C535 0.929 . S
H526 C530 0.929 . S
H527 C536 0.929 . S
C528 H522 0.930 . S
C528 C529 1.367 . S
C528 C536 1.378 . S
C529 C528 1.367 . S
C529 C537 1.433 . S
C530 H526 0.929 . S
C530 C532 1.378 . S
C530 C534 1.350 . S
C531 C534 1.463 . S
C531 C536 1.350 . S
C531 N539 1.427 . S
C532 H523 0.930 . S
C532 C530 1.378 . S
C532 C533 1.367 . S
C533 C532 1.367 . S
C533 C535 1.433 . S
C534 C530 1.350 . S
C534 C531 1.463 . S
C534 N538 1.427 . S
C535 H525 0.929 . S
C535 C533 1.433 . S
C535 N538 1.384 . S
C536 H527 0.929 . S
C536 C528 1.378 . S
C536 C531 1.350 . S
C537 H524 0.929 . S
C537 C529 1.433 . S
C537 N539 1.384 . S
N538 C534 1.427 . S
N538 C535 1.384 . S
N539 C531 1.427 . S
N539 C537 1.384 . S
H540 C546 0.930 . S
H541 C550 0.930 . S
H542 C555 0.929 . S
H543 C553 0.929 . S
H544 C548 0.929 . S
H545 C554 0.929 . S
C546 H540 0.930 . S
C546 C547 1.367 . S
C546 C554 1.378 . S
C547 C546 1.367 . S
C547 C555 1.433 . S
C548 H544 0.929 . S
C548 C550 1.378 . S
C548 C552 1.350 . S
C549 C552 1.463 . S
C549 C554 1.350 . S
C549 N557 1.427 . S
C550 H541 0.930 . S
C550 C548 1.378 . S
C550 C551 1.367 . S
C551 C550 1.367 . S
C551 C553 1.433 . S
C552 C548 1.350 . S
C552 C549 1.463 . S
C552 N556 1.427 . S
C553 H543 0.929 . S
C553 C551 1.433 . S
C553 N556 1.384 . S
C554 H545 0.929 . S
C554 C546 1.378 . S
C554 C549 1.350 . S
C555 H542 0.929 . S
C555 C547 1.433 . S
C555 N557 1.384 . S
N556 C552 1.427 . S
N556 C553 1.384 . S
N557 C549 1.427 . S
N557 C555 1.384 . S
H558 C564 0.930 . S
H559 C568 0.930 . S
H560 C573 0.929 . S
H561 C571 0.929 . S
H562 C566 0.929 . S
H563 C572 0.929 . S
C564 H558 0.930 . S
C564 C565 1.367 . S
C564 C572 1.378 . S
C565 C564 1.367 . S
C565 C573 1.433 . S
C566 H562 0.929 . S
C566 C568 1.378 . S
C566 C570 1.350 . S
C567 C570 1.463 . S
C567 C572 1.350 . S
C567 N575 1.427 . S
C568 H559 0.930 . S
C568 C566 1.378 . S
C568 C569 1.367 . S
C569 C568 1.367 . S
C569 C571 1.433 . S
C570 C566 1.350 . S
C570 C567 1.463 . S
C570 N574 1.427 . S
C571 H561 0.929 . S
C571 C569 1.433 . S
C571 N574 1.384 . S
C572 H563 0.929 . S
C572 C564 1.378 . S
C572 C567 1.350 . S
C573 H560 0.929 . S
C573 C565 1.433 . S
C573 N575 1.384 . S
N574 C570 1.427 . S
N574 C571 1.384 . S
N575 C567 1.427 . S
N575 C573 1.384 . S
H576 C582 0.930 . S
H577 C586 0.930 . S
H578 C591 0.929 . S
H579 C589 0.929 . S
H580 C584 0.929 . S
H581 C590 0.929 . S
C582 H576 0.930 . S
C582 C583 1.367 . S
C582 C590 1.378 . S
C583 C582 1.367 . S
C583 C591 1.433 . S
C584 H580 0.929 . S
C584 C586 1.378 . S
C584 C588 1.350 . S
C585 C588 1.463 . S
C585 C590 1.350 . S
C585 N593 1.427 . S
C586 H577 0.930 . S
C586 C584 1.378 . S
C586 C587 1.367 . S
C587 C586 1.367 . S
C587 C589 1.433 . S
C588 C584 1.350 . S
C588 C585 1.463 . S
C588 N592 1.427 . S
C589 H579 0.929 . S
C589 C587 1.433 . S
C589 N592 1.384 . S
C590 H581 0.929 . S
C590 C582 1.378 . S
C590 C585 1.350 . S
C591 H578 0.929 . S
C591 C583 1.433 . S
C591 N593 1.384 . S
N592 C588 1.427 . S
N592 C589 1.384 . S
N593 C585 1.427 . S
N593 C591 1.384 . S
H594 C600 0.930 . S
H595 C604 0.930 . S
H596 C609 0.929 . S
H597 C607 0.929 . S
H598 C602 0.929 . S
H599 C608 0.929 . S
C600 H594 0.930 . S
C600 C601 1.367 . S
C600 C608 1.378 . S
C601 C600 1.367 . S
C601 C609 1.433 . S
C602 H598 0.929 . S
C602 C604 1.378 . S
C602 C606 1.350 . S
C603 C606 1.463 . S
C603 C608 1.350 . S
C603 N611 1.427 . S
C604 H595 0.930 . S
C604 C602 1.378 . S
C604 C605 1.367 . S
C605 C604 1.367 . S
C605 C607 1.433 . S
C606 C602 1.350 . S
C606 C603 1.463 . S
C606 N610 1.427 . S
C607 H597 0.929 . S
C607 C605 1.433 . S
C607 N610 1.384 . S
C608 H599 0.929 . S
C608 C600 1.378 . S
C608 C603 1.350 . S
C609 H596 0.929 . S
C609 C601 1.433 . S
C609 N611 1.384 . S
N610 C606 1.427 . S
N610 C607 1.384 . S
N611 C603 1.427 . S
N611 C609 1.384 . S
H612 C618 0.930 . S
H613 C622 0.930 . S
H614 C627 0.929 . S
H615 C625 0.929 . S
H616 C620 0.929 . S
H617 C626 0.929 . S
C618 H612 0.930 . S
C618 C619 1.367 . S
C618 C626 1.378 . S
C619 C618 1.367 . S
C619 C627 1.433 . S
C620 H616 0.929 . S
C620 C622 1.378 . S
C620 C624 1.350 . S
C621 C624 1.463 . S
C621 C626 1.350 . S
C621 N629 1.427 . S
C622 H613 0.930 . S
C622 C620 1.378 . S
C622 C623 1.367 . S
C623 C622 1.367 . S
C623 C625 1.433 . S
C624 C620 1.350 . S
C624 C621 1.463 . S
C624 N628 1.427 . S
C625 H615 0.929 . S
C625 C623 1.433 . S
C625 N628 1.384 . S
C626 H617 0.929 . S
C626 C618 1.378 . S
C626 C621 1.350 . S
C627 H614 0.929 . S
C627 C619 1.433 . S
C627 N629 1.384 . S
N628 C624 1.427 . S
N628 C625 1.384 . S
N629 C621 1.427 . S
N629 C627 1.384 . S
H630 C636 0.930 . S
H631 C640 0.930 . S
H632 C645 0.929 . S
H633 C643 0.929 . S
H634 C638 0.929 . S
H635 C644 0.929 . S
C636 H630 0.930 . S
C636 C637 1.367 . S
C636 C644 1.378 . S
C637 C636 1.367 . S
C637 C645 1.433 . S
C638 H634 0.929 . S
C638 C640 1.378 . S
C638 C642 1.350 . S
C639 C642 1.463 . S
C639 C644 1.350 . S
C639 N647 1.427 . S
C640 H631 0.930 . S
C640 C638 1.378 . S
C640 C641 1.367 . S
C641 C640 1.367 . S
C641 C643 1.433 . S
C642 C638 1.350 . S
C642 C639 1.463 . S
C642 N646 1.427 . S
C643 H633 0.929 . S
C643 C641 1.433 . S
C643 N646 1.384 . S
C644 H635 0.929 . S
C644 C636 1.378 . S
C644 C639 1.350 . S
C645 H632 0.929 . S
C645 C637 1.433 . S
C645 N647 1.384 . S
N646 C642 1.427 . S
N646 C643 1.384 . S
N647 C639 1.427 . S
N647 C645 1.384 . S
C223 C7 1.843 . S
C227 C139 1.841 . S
C241 C30 1.637 . S
C245 C152 1.632 . S
C263 C174 1.632 . S
C259 N58 1.651 . S
C281 C187 1.438 . S
C277 N81 1.441 . S
C299 C200 1.739 . S
C295 C99 1.800 . S
C317 C213 1.415 . S
C313 N127 1.436 . S
C331 N25 1.648 . S
C335 C169 1.597 . S
C349 C62 1.618 . S
C353 C182 1.546 . S
C371 C195 1.706 . S
C367 C85 1.770 . S
C389 C208 1.396 . S
C385 N94 1.446 . S
C403 C131 1.806 . S
C407 C141 1.808 . S
C425 C154 1.493 . S
C421 N2 1.459 . S
C443 C180 1.721 . S
C439 C16 1.782 1_655 S
C457 C39 1.594 . S
C461 C193 1.531 . S
C479 C206 1.615 . S
C475 N48 1.646 . S
C493 N71 1.462 . S
C497 C143 1.497 . S
C511 C108 1.784 . S
C515 C156 1.793 . S
C529 N117 1.420 . S
C533 C167 1.390 . S
C547 N35 1.635 . S
C551 C204 1.621 . S
C569 C148 1.616 . S
C565 C53 1.619 . S
C583 C76 1.816 . S
C587 C161 1.814 . S
C601 N104 1.420 . S
C605 C165 1.406 . S
C619 C122 1.780 . S
C623 C178 1.729 . S
C637 N12 1.435 . S
C641 C191 1.429 . S
