# Generated by pormake.
# Topology anh, (6,3)-cn, num edge types: 1
# Building blocks:
#     Node 0, Type 0, BuildingBlock: BETGAK_clean_sbu_0, # of connection points: 6
#     Node 1, Type 0, BuildingBlock: BETGAK_clean_sbu_0, # of connection points: 6
#     Node 2, Type 0, BuildingBlock: BETGAK_clean_sbu_0, # of connection points: 6
#     Node 3, Type 1, BuildingBlock: OLANEW_clean_sbu_2, # of connection points: 3
#     Node 4, Type 1, BuildingBlock: OLANEW_clean_sbu_2, # of connection points: 3
#     Node 5, Type 1, BuildingBlock: OLANEW_clean_sbu_2, # of connection points: 3
#     Node 6, Type 1, BuildingBlock: OLANEW_clean_sbu_2, # of connection points: 3
#     Node 7, Type 1, BuildingBlock: OLANEW_clean_sbu_2, # of connection points: 3
#     Node 8, Type 1, BuildingBlock: OLANEW_clean_sbu_2, # of connection points: 3
#     Edge 9, Type (0, 1), BuildingBlock: FUNLAD_clean_linker_0, # of connection points: 2
#     Edge 10, Type (0, 1), BuildingBlock: FUNLAD_clean_linker_0, # of connection points: 2
#     Edge 11, Type (0, 1), BuildingBlock: FUNLAD_clean_linker_0, # of connection points: 2
#     Edge 12, Type (0, 1), BuildingBlock: FUNLAD_clean_linker_0, # of connection points: 2
#     Edge 13, Type (0, 1), BuildingBlock: FUNLAD_clean_linker_0, # of connection points: 2
#     Edge 14, Type (0, 1), BuildingBlock: FUNLAD_clean_linker_0, # of connection points: 2
#     Edge 15, Type (0, 1), BuildingBlock: FUNLAD_clean_linker_0, # of connection points: 2
#     Edge 16, Type (0, 1), BuildingBlock: FUNLAD_clean_linker_0, # of connection points: 2
#     Edge 17, Type (0, 1), BuildingBlock: FUNLAD_clean_linker_0, # of connection points: 2
#     Edge 18, Type (0, 1), BuildingBlock: FUNLAD_clean_linker_0, # of connection points: 2
#     Edge 19, Type (0, 1), BuildingBlock: FUNLAD_clean_linker_0, # of connection points: 2
#     Edge 20, Type (0, 1), BuildingBlock: FUNLAD_clean_linker_0, # of connection points: 2
#     Edge 21, Type (0, 1), BuildingBlock: FUNLAD_clean_linker_0, # of connection points: 2
#     Edge 22, Type (0, 1), BuildingBlock: FUNLAD_clean_linker_0, # of connection points: 2
#     Edge 23, Type (0, 1), BuildingBlock: FUNLAD_clean_linker_0, # of connection points: 2
#     Edge 24, Type (0, 1), BuildingBlock: FUNLAD_clean_linker_0, # of connection points: 2
#     Edge 25, Type (0, 1), BuildingBlock: FUNLAD_clean_linker_0, # of connection points: 2
#     Edge 26, Type (0, 1), BuildingBlock: FUNLAD_clean_linker_0, # of connection points: 2
# Relax obj value: 0.125
# Max RMSD: 0.157
# Mean RMSD: 0.111
data_MOF--net-anh--node1-BETGAK_clean_sbu_0--node2-OLANEW_clean_sbu_2--edge1-FUNLAD_clean_linker_0
_symmetry_space_group_name_H-M    P1
_symmetry_Int_Tables_number       1
_symmetry_cell_setting            triclinic
loop_
_symmetry_equiv_pos_as_xyz
'x, y, z'
_cell_length_a     41.84242
_cell_length_b     46.278427
_cell_length_c     58.637739
_cell_angle_alpha  91.932375
_cell_angle_beta   89.543328
_cell_angle_gamma 129.18348
loop_
_atom_site_label
_atom_site_type_symbol
_atom_site_fract_x
_atom_site_fract_y
_atom_site_fract_z
_atom_type_partial_charge
La0 La 0.04219 0.50252 0.13686 0.0
La1 La 1.00064 0.53303 0.15306 0.0
C2 C 0.08507 0.48874 0.11719 0.0
C3 C 0.12652 0.50093 0.12236 0.0
C4 C 0.13032 0.47458 0.12954 0.0
C5 C 0.16791 0.486 0.13803 0.0
C6 C 0.2026 0.52401 0.13929 0.0
C7 C 0.19942 0.55025 0.13099 0.0
C8 C 0.16166 0.53883 0.12265 0.0
C9 C 0.03712 0.50614 0.18164 0.0
C10 C 0.09484 0.59117 0.14548 0.0
C11 C 0.95774 0.54413 0.17571 0.0
C12 C 0.91386 0.52076 0.18156 0.0
C13 C 0.88288 0.49826 0.16488 0.0
C14 C 0.84144 0.47711 0.17059 0.0
C15 C 0.83002 0.47753 0.19318 0.0
C16 C 0.86122 0.49891 0.21003 0.0
C17 C 0.90276 0.52045 0.20423 0.0
C18 C 1.00864 0.53205 0.10849 0.0
C19 C 0.94806 0.44543 0.14359 0.0
O20 O 0.05737 0.46745 0.1324 0.0
O21 O 0.08256 0.51396 0.11038 0.0
O22 O 0.03648 0.48104 0.1708 0.0
O23 O 0.04407 0.5294 0.16774 0.0
O24 O 0.0924 0.56347 0.13572 0.0
O25 O 0.06315 0.58498 0.15612 0.0
O26 O 0.96681 0.55233 0.15425 0.0
O27 O 0.9783 0.53477 0.18483 0.0
O28 O 1.01007 0.55737 0.11985 0.0
O29 O 0.99974 0.50716 0.12174 0.0
O30 O 0.95198 0.47241 0.15539 0.0
O31 O 0.97852 0.45274 0.13093 0.0
H32 H 0.10374 0.4452 0.12938 0.0
H33 H 0.16973 0.46512 0.14389 0.0
H34 H 0.22572 0.57973 0.13174 0.0
H35 H 0.15976 0.55978 0.11712 0.0
H36 H 0.8906 0.4975 0.14731 0.0
H37 H 0.8185 0.46158 0.15703 0.0
H38 H 0.85363 0.49944 0.22765 0.0
H39 H 0.92627 0.53716 0.21742 0.0
La40 La 0.54947 0.01032 0.49242 0.0
La41 La 0.50242 0.03676 0.4797 0.0
C42 C 0.57327 0.97861 0.51132 0.0
C43 C 0.56329 0.94197 0.50919 0.0
C44 C 0.54801 0.92081 0.48856 0.0
C45 C 0.54088 0.88694 0.48651 0.0
C46 C 0.54844 0.87353 0.50513 0.0
C47 C 0.56265 0.89438 0.52593 0.0
C48 C 0.57011 0.92836 0.5279 0.0
C49 C 0.5511 0.02292 0.44883 0.0
C50 C 0.45317 0.95096 0.47913 0.0
C51 C 0.47785 0.06873 0.46203 0.0
C52 C 0.48703 0.10488 0.4656 0.0
C53 C 0.50875 0.12741 0.48516 0.0
C54 C 0.51516 0.16072 0.48906 0.0
C55 C 0.50014 0.17218 0.47339 0.0
C56 C 0.47939 0.14988 0.45349 0.0
C57 C 0.47283 0.11649 0.44968 0.0
C58 C 0.50235 0.02472 0.52339 0.0
C59 C 0.59927 0.09605 0.49154 0.0
O60 O 0.59137 0.99994 0.49381 0.0
O61 O 0.54432 0.97898 0.51949 0.0
O62 O 0.58039 0.02652 0.45957 0.0
O63 O 0.52085 0.00891 0.46177 0.0
O64 O 0.48528 0.95793 0.4899 0.0
O65 O 0.45548 0.97805 0.47012 0.0
O66 O 0.45947 0.04599 0.47888 0.0
O67 O 0.50765 0.06973 0.45374 0.0
O68 O 0.47207 0.01986 0.51298 0.0
O69 O 0.53186 0.03886 0.51 0.0
O70 O 0.56676 0.08887 0.48116 0.0
O71 O 0.59717 0.06932 0.50095 0.0
H72 H 0.54215 0.93072 0.47397 0.0
H73 H 0.52952 0.87127 0.47036 0.0
H74 H 0.56914 0.88494 0.5405 0.0
H75 H 0.58182 0.94431 0.54395 0.0
H76 H 0.52001 0.11884 0.49762 0.0
H77 H 0.53085 0.17691 0.50467 0.0
H78 H 0.46806 0.15814 0.44087 0.0
H79 H 0.45623 0.0995 0.43441 0.0
La80 La 0.57853 0.55919 0.84417 0.0
La81 La 0.52339 0.47977 0.85852 0.0
C82 C 0.61022 0.61942 0.82453 0.0
C83 C 0.60218 0.64597 0.82234 0.0
C84 C 0.63566 0.68398 0.82063 0.0
C85 C 0.62922 0.71004 0.81916 0.0
C86 C 0.58905 0.69859 0.81937 0.0
C87 C 0.55545 0.66034 0.82091 0.0
C88 C 0.56196 0.63426 0.82245 0.0
C89 C 0.57861 0.54985 0.88813 0.0
C90 C 0.48354 0.51795 0.85586 0.0
C91 C 0.49156 0.41878 0.87709 0.0
C92 C 0.49747 0.39046 0.87571 0.0
C93 C 0.46403 0.35349 0.86925 0.0
C94 C 0.46926 0.32659 0.86645 0.0
C95 C 0.50813 0.33609 0.87008 0.0
C96 C 0.54143 0.373 0.87705 0.0
C97 C 0.53613 0.39988 0.87989 0.0
C98 C 0.52368 0.4889 0.8144 0.0
C99 C 0.61959 0.52231 0.84897 0.0
O100 O 0.62134 0.61773 0.84489 0.0
O101 O 0.58376 0.58631 0.81465 0.0
O102 O 0.61079 0.57645 0.87733 0.0
O103 O 0.54792 0.53162 0.87486 0.0
O104 O 0.51663 0.54428 0.84436 0.0
O105 O 0.48234 0.49248 0.86649 0.0
O106 O 0.47659 0.42171 0.85864 0.0
O107 O 0.52132 0.45147 0.88651 0.0
O108 O 0.49167 0.46235 0.82529 0.0
O109 O 0.55433 0.50732 0.82776 0.0
O110 O 0.58512 0.49458 0.85894 0.0
O111 O 0.62187 0.54854 0.8386 0.0
H112 H 0.66691 0.69356 0.8205 0.0
H113 H 0.65574 0.73918 0.81766 0.0
H114 H 0.52416 0.65064 0.82132 0.0
H115 H 0.53564 0.60508 0.82386 0.0
H116 H 0.43391 0.34553 0.86595 0.0
H117 H 0.44305 0.29858 0.86082 0.0
H118 H 0.57163 0.38114 0.88032 0.0
H119 H 0.56238 0.42806 0.88514 0.0
O120 O 0.55165 0.05127 0.22861 0.0
Cd121 Cd 0.54959 0.05634 0.18734 0.0
O122 O 0.53025 0.99372 0.22805 0.0
Cd123 Cd 0.50475 0.97619 0.19329 0.0
O124 O 0.44764 0.92691 0.17711 0.0
C125 C 0.41658 0.9109 0.19003 0.0
O126 O 0.42141 0.92594 0.21045 0.0
C127 C 0.54464 0.02407 0.23892 0.0
C128 C 0.6178 0.12835 0.17521 0.0
O129 O 0.58323 0.12057 0.17999 0.0
O130 O 0.61995 0.10196 0.17577 0.0
O131 O 0.56563 0.52297 0.59202 0.0
Cd132 Cd 0.56031 0.52125 0.55044 0.0
O133 O 0.52171 0.53357 0.59764 0.0
Cd134 Cd 0.51546 0.54284 0.56227 0.0
O135 O 0.50525 0.57395 0.54065 0.0
C136 C 0.53596 0.6056 0.53374 0.0
O137 O 0.57332 0.61734 0.53805 0.0
C138 C 0.54497 0.52733 0.60554 0.0
C139 C 0.55525 0.46196 0.53207 0.0
O140 O 0.59013 0.49471 0.53463 0.0
O141 O 0.52276 0.45741 0.53784 0.0
O142 O 0.09013 0.52141 0.89709 0.0
Cd143 Cd 0.1319 0.53782 0.86228 0.0
O144 O 0.04243 0.52503 0.88575 0.0
Cd145 Cd 0.98626 0.52103 0.88759 0.0
O146 O 0.92871 0.51462 0.88535 0.0
C147 C 0.92719 0.53717 0.87448 0.0
O148 O 0.9607 0.56517 0.86455 0.0
C149 C 0.05873 0.51931 0.90143 0.0
C150 C 0.19294 0.52873 0.8622 0.0
O151 O 0.19974 0.55742 0.87191 0.0
O152 O 0.15713 0.50381 0.85317 0.0
O153 O 0.06337 0.53526 0.40567 0.0
Cd154 Cd 0.06603 0.54581 0.44701 0.0
O155 O 0.99606 0.50142 0.40069 0.0
Cd156 Cd 0.97672 0.4886 0.43618 0.0
O157 O 0.92644 0.44348 0.45672 0.0
C158 C 0.91982 0.41259 0.45537 0.0
O159 O 0.945 0.41054 0.44334 0.0
C160 C 0.03189 0.51859 0.39251 0.0
C161 C 0.13818 0.61789 0.45867 0.0
O162 O 0.13751 0.58981 0.45854 0.0
O163 O 0.10459 0.61184 0.45368 0.0
O164 O 0.52141 0.98723 0.74075 0.0
Cd165 Cd 0.51895 0.97931 0.78194 0.0
O166 O 0.5571 0.04824 0.74261 0.0
Cd167 Cd 0.55256 0.05562 0.77918 0.0
O168 O 0.54538 0.08784 0.80375 0.0
C169 C 0.51228 0.08353 0.80232 0.0
O170 O 0.48355 0.05842 0.78757 0.0
C171 C 0.54034 0.01808 0.7309 0.0
C172 C 0.52488 0.92379 0.79109 0.0
O173 O 0.48972 0.9158 0.78817 0.0
O174 O 0.55718 0.95806 0.78999 0.0
O175 O 0.5155 0.49724 0.10457 0.0
Cd176 Cd 0.50769 0.48934 0.14557 0.0
O177 O 0.56365 0.55826 0.1088 0.0
Cd178 Cd 0.55457 0.56004 0.14535 0.0
O179 O 0.52015 0.56848 0.16866 0.0
C180 C 0.4913 0.54276 0.18085 0.0
O181 O 0.48503 0.51119 0.18162 0.0
C182 C 0.54207 0.52889 0.09599 0.0
C183 C 0.55221 0.46689 0.1588 0.0
O184 O 0.51287 0.44295 0.15668 0.0
O185 O 0.56997 0.5012 0.15543 0.0
C186 C 0.2794 0.56196 0.13912 0.0
C187 C 0.24159 0.53607 0.14977 0.0
C188 C 0.31574 0.57158 0.14845 0.0
C189 C 0.3151 0.5556 0.1686 0.0
C190 C 0.27742 0.53109 0.17986 0.0
C191 C 0.24106 0.52126 0.17042 0.0
C192 C 0.35397 0.56385 0.17639 0.0
C193 C 0.35545 0.54258 0.19081 0.0
C194 C 0.39274 0.54557 0.19344 0.0
C195 C 0.38753 0.51312 0.19755 0.0
C196 C 0.42063 0.51287 0.19537 0.0
C197 C 0.45955 0.54518 0.18909 0.0
H198 H 0.43828 0.6049 0.18762 0.0
C199 C 0.46574 0.57864 0.18748 0.0
C200 C 0.43269 0.57891 0.18975 0.0
H201 H 0.49564 0.60423 0.1832 0.0
H202 H 0.28071 0.57388 0.12321 0.0
H203 H 0.34429 0.59075 0.13946 0.0
H204 H 0.27552 0.51915 0.19584 0.0
H205 H 0.21241 0.50198 0.1793 0.0
H206 H 0.3818 0.58578 0.16769 0.0
H207 H 0.32737 0.51877 0.19828 0.0
H208 H 0.35722 0.48722 0.20086 0.0
H209 H 0.41493 0.48672 0.19702 0.0
C210 C 0.64195 0.16379 0.4827 0.0
C211 C 0.63876 0.1348 0.49258 0.0
C212 C 0.68004 0.19968 0.48192 0.0
C213 C 0.71584 0.20746 0.49116 0.0
C214 C 0.71235 0.17866 0.5015 0.0
C215 C 0.6743 0.14282 0.50229 0.0
C216 C 0.75771 0.24402 0.4886 0.0
C217 C 0.76486 0.27604 0.48408 0.0
C218 C 0.80647 0.31128 0.47882 0.0
C219 C 0.81378 0.34535 0.4812 0.0
C220 C 0.8512 0.37859 0.47445 0.0
C221 C 0.882 0.3784 0.4649 0.0
H222 H 0.83317 0.28568 0.467 0.0
C223 C 0.87506 0.34446 0.463 0.0
C224 C 0.83777 0.31131 0.46978 0.0
H225 H 0.89801 0.34323 0.45562 0.0
H226 H 0.61524 0.15859 0.47497 0.0
H227 H 0.68133 0.22066 0.47328 0.0
H228 H 0.73935 0.18369 0.50862 0.0
H229 H 0.67305 0.1212 0.51003 0.0
H230 H 0.78368 0.2443 0.49058 0.0
H231 H 0.73946 0.27679 0.4842 0.0
H232 H 0.79018 0.34619 0.48793 0.0
H233 H 0.85545 0.40421 0.47609 0.0
C234 C 0.551 0.71974 0.80412 0.0
C235 C 0.58251 0.72661 0.81805 0.0
C236 C 0.54597 0.74676 0.80227 0.0
C237 C 0.57217 0.78122 0.81453 0.0
C238 C 0.6034 0.78783 0.82855 0.0
C239 C 0.60848 0.7609 0.83035 0.0
C240 C 0.56949 0.81168 0.81244 0.0
C241 C 0.53621 0.80665 0.80418 0.0
C242 C 0.53441 0.83758 0.80163 0.0
C243 C 0.49568 0.82884 0.79975 0.0
C244 C 0.49253 0.85681 0.79661 0.0
C245 C 0.52814 0.89425 0.79514 0.0
H246 H 0.60059 0.88312 0.80068 0.0
C247 C 0.56694 0.90308 0.79699 0.0
C248 C 0.57009 0.87512 0.80008 0.0
H249 H 0.595 0.9316 0.7957 0.0
H250 H 0.53089 0.69384 0.79414 0.0
H251 H 0.52224 0.74073 0.79074 0.0
H252 H 0.62415 0.81406 0.83816 0.0
H253 H 0.63275 0.76695 0.84145 0.0
H254 H 0.5959 0.83925 0.8187 0.0
H255 H 0.50842 0.77866 0.79973 0.0
H256 H 0.46766 0.80021 0.80068 0.0
H257 H 0.46215 0.84899 0.79518 0.0
C258 C 0.75409 0.42566 0.18643 0.0
C259 C 0.78611 0.45868 0.19844 0.0
C260 C 0.71365 0.41282 0.18741 0.0
C261 C 0.70445 0.43242 0.20075 0.0
C262 C 0.73532 0.46273 0.21477 0.0
C263 C 0.77591 0.47602 0.21348 0.0
C264 C 0.66545 0.42607 0.19738 0.0
C265 C 0.65275 0.42487 0.17614 0.0
C266 C 0.62529 0.43379 0.17168 0.0
C267 C 0.63799 0.46134 0.15604 0.0
C268 C 0.6144 0.47244 0.15228 0.0
C269 C 0.57692 0.4552 0.16348 0.0
H270 H 0.57748 0.39502 0.19508 0.0
C271 C 0.56338 0.42673 0.17863 0.0
C272 C 0.58784 0.4165 0.18303 0.0
H273 H 0.53443 0.41301 0.18737 0.0
H274 H 0.76056 0.41081 0.17531 0.0
H275 H 0.69003 0.38884 0.17678 0.0
H276 H 0.72882 0.47819 0.22521 0.0
H277 H 0.79959 0.50153 0.22298 0.0
H278 H 0.65263 0.43071 0.21188 0.0
H279 H 0.66915 0.42494 0.16162 0.0
H280 H 0.66682 0.47501 0.14716 0.0
H281 H 0.62519 0.49416 0.14033 0.0
C282 C 0.41195 0.88214 0.48419 0.0
C283 C 0.41462 0.91186 0.47612 0.0
C284 C 0.37541 0.84529 0.48147 0.0
C285 C 0.34047 0.83728 0.47067 0.0
C286 C 0.34342 0.8671 0.46252 0.0
C287 C 0.37991 0.90386 0.46522 0.0
C288 C 0.30061 0.79864 0.46706 0.0
C289 C 0.29131 0.76785 0.47631 0.0
C290 C 0.25135 0.72969 0.47202 0.0
C291 C 0.24996 0.69875 0.47404 0.0
C292 C 0.21323 0.66248 0.46988 0.0
C293 C 0.17681 0.65625 0.46386 0.0
H294 H 0.21395 0.7463 0.46554 0.0
C295 C 0.17788 0.68712 0.4624 0.0
C296 C 0.21466 0.72341 0.46648 0.0
H297 H 0.15031 0.6833 0.458 0.0
H298 H 0.43817 0.88726 0.49258 0.0
H299 H 0.37525 0.82352 0.48771 0.0
H300 H 0.31726 0.862 0.45406 0.0
H301 H 0.38077 0.926 0.45878 0.0
H302 H 0.27794 0.79564 0.45598 0.0
H303 H 0.31383 0.76993 0.48689 0.0
H304 H 0.27757 0.70267 0.47854 0.0
H305 H 0.21347 0.63934 0.47128 0.0
C306 C 0.48385 0.27075 0.87231 0.0
C307 C 0.51402 0.30782 0.86589 0.0
C308 C 0.48832 0.24373 0.86721 0.0
C309 C 0.52301 0.25313 0.85538 0.0
C310 C 0.55377 0.29042 0.84968 0.0
C311 C 0.54931 0.31743 0.85477 0.0
C312 C 0.52815 0.22499 0.84853 0.0
C313 C 0.49622 0.18831 0.84521 0.0
C314 C 0.50074 0.1608 0.83581 0.0
C315 C 0.46702 0.12861 0.82412 0.0
C316 C 0.47048 0.10306 0.8138 0.0
C317 C 0.5077 0.10886 0.81515 0.0
H318 H 0.56382 0.18971 0.84748 0.0
C319 C 0.54096 0.14021 0.82773 0.0
C320 C 0.53756 0.16592 0.83796 0.0
H321 H 0.56997 0.14535 0.82925 0.0
H322 H 0.45676 0.2626 0.88136 0.0
H323 H 0.46462 0.21566 0.8727 0.0
H324 H 0.58096 0.29857 0.84071 0.0
H325 H 0.57301 0.34563 0.84941 0.0
H326 H 0.55903 0.23549 0.84424 0.0
H327 H 0.46498 0.17835 0.8475 0.0
H328 H 0.43814 0.12368 0.8224 0.0
H329 H 0.44413 0.07909 0.8044 0.0
C330 C 0.52422 0.81256 0.52001 0.0
C331 C 0.54315 0.8387 0.50276 0.0
C332 C 0.52215 0.78121 0.51866 0.0
C333 C 0.53904 0.77533 0.49999 0.0
C334 C 0.55739 0.80117 0.48259 0.0
C335 C 0.55914 0.83238 0.48385 0.0
C336 C 0.5414 0.74458 0.4993 0.0
C337 C 0.51449 0.71241 0.51004 0.0
C338 C 0.52005 0.68396 0.51262 0.0
C339 C 0.48578 0.64761 0.51809 0.0
C340 C 0.49058 0.62143 0.52374 0.0
C341 C 0.52995 0.63121 0.52431 0.0
H342 H 0.58662 0.72113 0.50854 0.0
C343 C 0.56406 0.66709 0.51789 0.0
C344 C 0.55923 0.69323 0.51214 0.0
H345 H 0.59482 0.67556 0.51818 0.0
H346 H 0.51153 0.81666 0.53475 0.0
H347 H 0.50877 0.76255 0.53274 0.0
H348 H 0.57105 0.79755 0.46817 0.0
H349 H 0.57437 0.85229 0.47042 0.0
H350 H 0.56633 0.7489 0.48971 0.0
H351 H 0.48737 0.70672 0.51767 0.0
H352 H 0.4553 0.63974 0.51869 0.0
H353 H 0.46362 0.59402 0.52859 0.0
C354 C 0.65601 0.49781 0.86138 0.0
C355 C 0.65649 0.52405 0.84954 0.0
C356 C 0.6913 0.50044 0.86272 0.0
C357 C 0.72822 0.52958 0.85227 0.0
C358 C 0.72833 0.55535 0.84012 0.0
C359 C 0.69314 0.55275 0.83883 0.0
C360 C 0.76709 0.53414 0.85313 0.0
C361 C 0.77474 0.51706 0.86782 0.0
C362 C 0.81428 0.52275 0.8689 0.0
C363 C 0.81512 0.49715 0.88061 0.0
C364 C 0.8515 0.50164 0.88246 0.0
C365 C 0.88827 0.53207 0.87273 0.0
H366 H 0.85288 0.57459 0.85076 0.0
C367 C 0.8876 0.55788 0.86118 0.0
C368 C 0.85128 0.55342 0.85934 0.0
H369 H 0.91534 0.58186 0.85361 0.0
H370 H 0.62842 0.47524 0.86979 0.0
H371 H 0.68908 0.47931 0.8718 0.0
H372 H 0.75602 0.57799 0.83172 0.0
H373 H 0.69487 0.57351 0.82953 0.0
H374 H 0.79061 0.55308 0.84111 0.0
H375 H 0.75116 0.49784 0.87974 0.0
H376 H 0.78739 0.47339 0.88834 0.0
H377 H 0.85075 0.48122 0.89152 0.0
C378 C 0.13619 0.65991 0.1529 0.0
C379 C 0.13467 0.62969 0.14596 0.0
C380 C 0.17378 0.69612 0.15453 0.0
C381 C 0.21101 0.70299 0.1496 0.0
C382 C 0.20931 0.67296 0.14189 0.0
C383 C 0.17159 0.63669 0.14011 0.0
C384 C 0.25196 0.74089 0.15246 0.0
C385 C 0.25857 0.76749 0.167 0.0
C386 C 0.29953 0.80462 0.17174 0.0
C387 C 0.30449 0.82448 0.19187 0.0
C388 C 0.34226 0.85907 0.19753 0.0
C389 C 0.37617 0.875 0.18309 0.0
H390 H 0.33044 0.80705 0.14096 0.0
C391 C 0.37114 0.85571 0.16261 0.0
C392 C 0.33319 0.82086 0.15695 0.0
H393 H 0.39661 0.86733 0.15105 0.0
H394 H 0.10827 0.65565 0.15713 0.0
H395 H 0.17331 0.71853 0.15959 0.0
H396 H 0.23736 0.67739 0.13771 0.0
H397 H 0.17155 0.61411 0.13465 0.0
H398 H 0.27775 0.74581 0.14356 0.0
H399 H 0.23327 0.76109 0.17728 0.0
H400 H 0.27913 0.81294 0.20352 0.0
H401 H 0.34488 0.87318 0.21339 0.0
C402 C 0.54094 0.23854 0.48854 0.0
C403 C 0.50477 0.20649 0.47817 0.0
C404 C 0.54446 0.27016 0.49387 0.0
C405 C 0.51192 0.27061 0.48873 0.0
C406 C 0.47595 0.23863 0.47825 0.0
C407 C 0.47238 0.20701 0.47303 0.0
C408 C 0.51309 0.3028 0.49492 0.0
C409 C 0.54764 0.33732 0.50104 0.0
C410 C 0.54809 0.36882 0.50815 0.0
C411 C 0.58578 0.40534 0.50835 0.0
C412 C 0.58806 0.43564 0.5158 0.0
C413 C 0.55263 0.43011 0.52329 0.0
H414 H 0.48312 0.33575 0.5166 0.0
C415 C 0.51485 0.39366 0.52303 0.0
C416 C 0.51259 0.36333 0.5157 0.0
H417 H 0.48705 0.38839 0.52892 0.0
H418 H 0.56662 0.23923 0.4926 0.0
H419 H 0.57242 0.29365 0.50242 0.0
H420 H 0.45018 0.23788 0.47428 0.0
H421 H 0.44374 0.18263 0.46544 0.0
H422 H 0.484 0.29765 0.49385 0.0
H423 H 0.57727 0.34344 0.50036 0.0
H424 H 0.6137 0.41048 0.50283 0.0
H425 H 0.6177 0.46336 0.51584 0.0
C426 C 0.44104 0.53551 0.84218 0.0
C427 C 0.44883 0.51895 0.85851 0.0
C428 C 0.40835 0.53651 0.84489 0.0
C429 C 0.38319 0.52156 0.86421 0.0
C430 C 0.39142 0.50551 0.88063 0.0
C431 C 0.42341 0.50371 0.87767 0.0
C432 C 0.34946 0.52376 0.86825 0.0
C433 C 0.32533 0.52024 0.85137 0.0
C434 C 0.29083 0.5214 0.85542 0.0
C435 C 0.25572 0.4999 0.84106 0.0
C436 C 0.22347 0.50141 0.84376 0.0
C437 C 0.226 0.52529 0.86051 0.0
H438 H 0.32005 0.56234 0.8836 0.0
C439 C 0.26122 0.54696 0.87488 0.0
C440 C 0.29311 0.54482 0.8725 0.0
H441 H 0.26425 0.56576 0.8879 0.0
H442 H 0.46001 0.54746 0.82722 0.0
H443 H 0.40342 0.54976 0.83211 0.0
H444 H 0.37281 0.49405 0.89576 0.0
H445 H 0.42875 0.49103 0.89066 0.0
H446 H 0.34273 0.52606 0.88585 0.0
H447 H 0.32943 0.51418 0.83403 0.0
H448 H 0.2532 0.48181 0.82767 0.0
H449 H 0.19699 0.48456 0.83228 0.0
C450 C 0.87657 0.39833 0.15835 0.0
C451 C 0.90876 0.40668 0.14441 0.0
C452 C 0.84026 0.36155 0.16009 0.0
C453 C 0.83507 0.33215 0.14773 0.0
C454 C 0.86718 0.34064 0.13368 0.0
C455 C 0.90353 0.37742 0.13198 0.0
C456 C 0.79789 0.29224 0.14988 0.0
C457 C 0.76161 0.28093 0.15829 0.0
C458 C 0.72502 0.24109 0.16144 0.0
C459 C 0.68632 0.232 0.16466 0.0
C460 C 0.65144 0.19538 0.16877 0.0
C461 C 0.65441 0.16686 0.16984 0.0
H462 H 0.75719 0.21812 0.16078 0.0
C463 C 0.69302 0.17578 0.1665 0.0
C464 C 0.72796 0.21244 0.16246 0.0
H465 H 0.69647 0.15454 0.16743 0.0
H466 H 0.87963 0.42014 0.16831 0.0
H467 H 0.81705 0.35645 0.17165 0.0
H468 H 0.86431 0.31867 0.12407 0.0
H469 H 0.92771 0.38278 0.12113 0.0
H470 H 0.80063 0.27153 0.14374 0.0
H471 H 0.75777 0.30153 0.16264 0.0
H472 H 0.68304 0.2534 0.16415 0.0
H473 H 0.6222 0.18953 0.17132 0.0
C474 C 1.00273 0.49858 0.07227 0.0
C475 C 1.01083 0.52997 0.0834 0.0
C476 C 1.00415 0.49651 0.04844 0.0
C477 C 1.01421 0.52613 0.03523 0.0
C478 C 0.02217 0.5574 0.04656 0.0
C479 C 0.02051 0.55932 0.07034 0.0
C480 C 1.01704 0.52609 0.00979 0.0
C481 C 1.01631 0.50089 0.99697 0.0
C482 C 0.02334 0.50364 0.97189 0.0
C483 C 0.03896 0.48688 0.96198 0.0
C484 C 0.04896 0.49093 0.9389 0.0
C485 C 0.04296 0.51135 0.92501 0.0
H486 H 1.00259 0.53527 0.96455 0.0
C487 C 0.02558 0.52675 0.93459 0.0
C488 C 1.01573 0.52286 0.95778 0.0
H489 H 0.02128 0.54322 0.92448 0.0
H490 H 0.99496 0.47544 0.08196 0.0
H491 H 0.99698 0.47148 0.04069 0.0
H492 H 0.02991 0.58064 0.03699 0.0
H493 H 0.02686 0.58388 0.07849 0.0
H494 H 0.02229 0.54932 1.00146 0.0
H495 H 1.0138 0.47889 0.00512 0.0
H496 H 0.04474 0.47157 0.9723 0.0
H497 H 0.06221 0.47863 0.93202 0.0
C498 C 0.58465 0.03928 0.41093 0.0
C499 C 0.55072 0.02807 0.4242 0.0
C500 C 0.58408 0.04301 0.38743 0.0
C501 C 0.54952 0.0357 0.37676 0.0
C502 C 0.51613 0.02563 0.39018 0.0
C503 C 0.51653 0.02149 0.41368 0.0
C504 C 0.54757 0.03842 0.35174 0.0
C505 C 0.56511 0.0296 0.33682 0.0
C506 C 0.56092 0.02954 0.31173 0.0
C507 C 0.55967 1.00341 0.29801 0.0
C508 C 0.5547 1.00184 0.27437 0.0
C509 C 0.55184 0.02701 0.26387 0.0
H510 H 0.5607 0.07631 0.31132 0.0
C511 C 0.5545 0.05405 0.27752 0.0
C512 C 0.55876 0.05519 0.30126 0.0
H513 H 0.55249 0.07388 0.26993 0.0
H514 H 0.61158 0.04489 0.41867 0.0
H515 H 0.61084 0.05189 0.37771 0.0
H516 H 0.4893 0.02015 0.38239 0.0
H517 H 0.48998 0.01287 0.42355 0.0
H518 H 0.5286 0.04504 0.34542 0.0
H519 H 0.58035 0.01917 0.34311 0.0
H520 H 0.56168 0.9836 0.30566 0.0
H521 H 0.55306 0.98086 0.26431 0.0
C522 C 0.56198 0.51955 0.77859 0.0
C523 C 0.52451 0.49427 0.78973 0.0
C524 C 0.56237 0.52399 0.75507 0.0
C525 C 0.52519 0.50314 0.74232 0.0
C526 C 0.48781 0.47839 0.75364 0.0
C527 C 0.48746 0.4738 0.77707 0.0
C528 C 0.52382 0.50718 0.7174 0.0
C529 C 0.55504 0.51842 0.70327 0.0
C530 C 0.55234 0.52114 0.67827 0.0
C531 C 0.57587 0.51694 0.66353 0.0
C532 C 0.57353 0.51883 0.63989 0.0
C533 C 0.54785 0.52537 0.63054 0.0
H534 H 0.50981 0.53316 0.67974 0.0
C535 C 0.52498 0.53036 0.64537 0.0
C536 C 0.52729 0.52841 0.66893 0.0
H537 H 0.50527 0.5359 0.6388 0.0
H538 H 0.59097 0.53581 0.78804 0.0
H539 H 0.59173 0.54415 0.74708 0.0
H540 H 0.45871 0.46226 0.74429 0.0
H541 H 0.45812 0.45427 0.78529 0.0
H542 H 0.49487 0.49838 0.71031 0.0
H543 H 0.58254 0.52371 0.7099 0.0
H544 H 0.59575 0.5117 0.67028 0.0
H545 H 0.59178 0.51512 0.62898 0.0
C546 C 0.54056 0.02982 0.55781 0.0
C547 C 0.50365 0.01815 0.54765 0.0
C548 C 0.54212 0.02432 0.58093 0.0
C549 C 0.50673 0.00712 0.59437 0.0
C550 C 0.4696 0.9946 0.584 0.0
C551 C 0.46811 1.00028 0.56088 0.0
C552 C 0.50745 1.00178 0.61916 0.0
C553 C 0.54136 0.02514 0.6325 0.0
C554 C 0.5414 0.02207 0.65762 0.0
C555 C 0.56877 0.05466 0.67115 0.0
C556 C 0.56874 0.05326 0.6949 0.0
C557 C 0.54179 0.01905 0.70567 0.0
H558 H 0.49441 0.96183 0.65834 0.0
C559 C 0.5154 0.98617 0.69209 0.0
C560 C 0.51509 0.98765 0.66829 0.0
H561 H 0.49442 0.95935 0.69985 0.0
H562 H 0.56834 0.04339 0.54791 0.0
H563 H 0.57098 0.03329 0.58812 0.0
H564 H 0.44181 0.98097 0.5939 0.0
H565 H 0.43919 0.99077 0.55339 0.0
H566 H 0.47838 0.97978 0.6269 0.0
H567 H 0.56934 0.04936 0.62513 0.0
H568 H 0.58966 0.08148 0.66335 0.0
H569 H 0.58973 0.07909 0.70483 0.0
C570 C 0.53925 0.52459 0.92398 0.0
C571 C 0.57697 0.54388 0.91269 0.0
C572 C 0.53765 0.52006 0.94747 0.0
C573 C 0.57362 0.53406 0.95993 0.0
C574 C 0.61105 0.55207 0.9485 0.0
C575 C 0.61286 0.55749 0.92506 0.0
C576 C 0.57243 0.53039 0.9849 0.0
C577 C 0.55316 0.53909 0.99824 0.0
C578 C 0.5523 0.53678 0.0233 0.0
C579 C 0.55809 0.56531 0.03688 0.0
C580 C 0.55601 0.56321 0.0606 0.0
C581 C 0.54662 0.53185 0.07106 0.0
H582 H 0.5385 0.48308 0.02354 0.0
C583 C 0.54038 0.50306 0.05745 0.0
C584 C 0.54374 0.50572 0.03374 0.0
H585 H 0.53306 0.47859 0.06516 0.0
H586 H 0.51113 0.51367 0.91474 0.0
H587 H 0.5083 0.50553 0.95589 0.0
H588 H 0.63904 0.56284 0.95783 0.0
H589 H 0.64219 0.57214 0.91659 0.0
H590 H 0.58986 0.52297 0.99252 0.0
H591 H 0.53965 0.5504 0.99068 0.0
H592 H 0.56441 0.58934 0.02911 0.0
H593 H 0.56058 0.58562 0.07071 0.0
C594 C 0.03139 0.4837 0.22079 0.0
C595 C 0.03702 0.51045 0.20667 0.0
C596 C 0.03086 0.48762 0.24452 0.0
C597 C 0.03559 0.51823 0.25449 0.0
C598 C 0.04112 0.54486 0.24034 0.0
C599 C 0.0425 0.54134 0.21667 0.0
C600 C 0.0329 0.52208 0.27948 0.0
C601 C 0.04755 0.51181 0.29475 0.0
C602 C 0.0439 0.51501 0.31972 0.0
C603 C 0.0752 0.52328 0.33444 0.0
C604 C 0.07187 0.52541 0.35809 0.0
C605 C 0.03659 0.51831 0.36748 0.0
H606 H 0.98367 0.50098 0.31822 0.0
C607 C 1.00511 0.50973 0.35272 0.0
C608 C 1.0088 0.50829 0.32909 0.0
H609 H 0.9775 0.50403 0.35942 0.0
H610 H 0.02711 0.45962 0.2135 0.0
H611 H 0.02569 0.4662 0.25497 0.0
H612 H 0.04475 0.56863 0.24763 0.0
H613 H 0.04772 0.56277 0.20621 0.0
H614 H 0.02008 0.53532 0.28542 0.0
H615 H 0.06424 0.50221 0.28886 0.0
H616 H 0.10237 0.52824 0.32761 0.0
H617 H 0.0965 0.53179 0.36902 0.0
loop_
_geom_bond_atom_site_label_1
_geom_bond_atom_site_label_2
_geom_bond_distance
_geom_bond_site_symmetry_2
_ccdc_geom_bond_type
La0 C2 2.928 . S
La0 O20 2.521 . S
La0 O21 2.628 . S
La0 O22 2.554 . S
La0 O23 2.757 . S
La0 O24 2.470 . S
La0 O29 2.482 . S
La0 O31 2.503 1_455 S
La1 C11 2.928 . S
La1 O23 2.482 1_655 S
La1 O25 2.503 1_655 S
La1 O26 2.521 . S
La1 O27 2.628 . S
La1 O28 2.554 . S
La1 O29 2.757 1_655 S
La1 O30 2.470 . S
C2 La0 2.928 . S
C2 C3 1.503 . S
C2 O20 1.261 . S
C2 O21 1.243 . S
C3 C2 1.503 . S
C3 C4 1.394 . S
C3 C8 1.373 . S
C4 C3 1.394 . S
C4 C5 1.380 . S
C4 H32 0.930 . S
C5 C4 1.380 . S
C5 C6 1.376 . S
C5 H33 0.930 . S
C6 C5 1.376 . S
C6 C7 1.370 . S
C7 C6 1.370 . S
C7 C8 1.396 . S
C7 H34 0.929 . S
C8 C3 1.373 . S
C8 C7 1.396 . S
C8 H35 0.929 . S
C9 O22 1.240 . S
C9 O23 1.289 . S
C10 O24 1.258 . S
C10 O25 1.256 . S
C11 La1 2.928 . S
C11 C12 1.503 . S
C11 O26 1.261 . S
C11 O27 1.243 . S
C12 C11 1.503 . S
C12 C13 1.394 . S
C12 C17 1.373 . S
C13 C12 1.394 . S
C13 C14 1.380 . S
C13 H36 0.930 . S
C14 C13 1.380 . S
C14 C15 1.376 . S
C14 H37 0.930 . S
C15 C14 1.376 . S
C15 C16 1.370 . S
C16 C15 1.370 . S
C16 C17 1.396 . S
C16 H38 0.929 . S
C17 C12 1.373 . S
C17 C16 1.396 . S
C17 H39 0.929 . S
C18 O28 1.239 1_455 S
C18 O29 1.289 . S
C19 O30 1.258 . S
C19 O31 1.256 . S
O20 La0 2.521 . S
O20 C2 1.261 . S
O21 La0 2.628 . S
O21 C2 1.243 . S
O22 La0 2.554 . S
O22 C9 1.240 . S
O23 La0 2.757 . S
O23 La1 2.482 1_455 S
O23 C9 1.289 . S
O24 La0 2.470 . S
O24 C10 1.258 . S
O25 La1 2.503 1_455 S
O25 C10 1.256 . S
O26 La1 2.521 . S
O26 C11 1.261 . S
O27 La1 2.628 . S
O27 C11 1.243 . S
O28 La1 2.554 . S
O28 C18 1.239 1_655 S
O29 La0 2.482 . S
O29 La1 2.757 1_455 S
O29 C18 1.289 . S
O30 La1 2.470 . S
O30 C19 1.258 . S
O31 La0 2.503 1_655 S
O31 C19 1.256 . S
H32 C4 0.930 . S
H33 C5 0.930 . S
H34 C7 0.929 . S
H35 C8 0.929 . S
H36 C13 0.930 . S
H37 C14 0.930 . S
H38 C16 0.929 . S
H39 C17 0.929 . S
La40 C42 2.928 . S
La40 O60 2.521 . S
La40 O61 2.628 . S
La40 O62 2.554 . S
La40 O63 2.757 1_565 S
La40 O64 2.470 . S
La40 O69 2.482 1_565 S
La40 O71 2.503 1_565 S
La41 C51 2.928 . S
La41 O63 2.482 . S
La41 O65 2.503 1_545 S
La41 O66 2.521 . S
La41 O67 2.628 . S
La41 O68 2.554 . S
La41 O69 2.757 . S
La41 O70 2.470 . S
C42 La40 2.928 . S
C42 C43 1.503 . S
C42 O60 1.261 . S
C42 O61 1.243 . S
C43 C42 1.503 . S
C43 C44 1.394 . S
C43 C48 1.373 . S
C44 C43 1.394 . S
C44 C45 1.380 . S
C44 H72 0.930 . S
C45 C44 1.380 . S
C45 C46 1.376 . S
C45 H73 0.930 . S
C46 C45 1.376 . S
C46 C47 1.370 . S
C47 C46 1.370 . S
C47 C48 1.396 . S
C47 H74 0.929 . S
C48 C43 1.373 . S
C48 C47 1.396 . S
C48 H75 0.929 . S
C49 O62 1.240 1_545 S
C49 O63 1.289 . S
C50 O64 1.258 . S
C50 O65 1.256 . S
C51 La41 2.928 . S
C51 C52 1.503 . S
C51 O66 1.261 . S
C51 O67 1.243 . S
C52 C51 1.503 . S
C52 C53 1.394 . S
C52 C57 1.373 . S
C53 C52 1.394 . S
C53 C54 1.380 . S
C53 H76 0.930 . S
C54 C53 1.380 . S
C54 C55 1.376 . S
C54 H77 0.930 . S
C55 C54 1.376 . S
C55 C56 1.370 . S
C56 C55 1.370 . S
C56 C57 1.396 . S
C56 H78 0.929 . S
C57 C52 1.373 . S
C57 C56 1.396 . S
C57 H79 0.929 . S
C58 O68 1.240 . S
C58 O69 1.289 . S
C59 O70 1.258 . S
C59 O71 1.256 . S
O60 La40 2.521 . S
O60 C42 1.261 . S
O61 La40 2.628 . S
O61 C42 1.243 . S
O62 La40 2.554 . S
O62 C49 1.240 1_565 S
O63 La40 2.757 1_545 S
O63 La41 2.482 . S
O63 C49 1.289 . S
O64 La40 2.470 . S
O64 C50 1.258 . S
O65 La41 2.503 1_565 S
O65 C50 1.256 . S
O66 La41 2.521 . S
O66 C51 1.261 . S
O67 La41 2.628 . S
O67 C51 1.243 . S
O68 La41 2.554 . S
O68 C58 1.240 . S
O69 La40 2.482 1_545 S
O69 La41 2.757 . S
O69 C58 1.289 . S
O70 La41 2.470 . S
O70 C59 1.258 . S
O71 La40 2.503 1_545 S
O71 C59 1.256 . S
H72 C44 0.930 . S
H73 C45 0.930 . S
H74 C47 0.929 . S
H75 C48 0.929 . S
H76 C53 0.930 . S
H77 C54 0.930 . S
H78 C56 0.929 . S
H79 C57 0.929 . S
La80 C82 2.928 . S
La80 O100 2.521 . S
La80 O101 2.628 . S
La80 O102 2.554 . S
La80 O103 2.757 . S
La80 O104 2.470 . S
La80 O109 2.482 . S
La80 O111 2.503 . S
La81 C91 2.928 . S
La81 O103 2.482 . S
La81 O105 2.503 . S
La81 O106 2.521 . S
La81 O107 2.628 . S
La81 O108 2.554 . S
La81 O109 2.757 . S
La81 O110 2.470 . S
C82 La80 2.928 . S
C82 C83 1.503 . S
C82 O100 1.261 . S
C82 O101 1.243 . S
C83 C82 1.503 . S
C83 C84 1.394 . S
C83 C88 1.373 . S
C84 C83 1.394 . S
C84 C85 1.380 . S
C84 H112 0.930 . S
C85 C84 1.380 . S
C85 C86 1.376 . S
C85 H113 0.930 . S
C86 C85 1.376 . S
C86 C87 1.370 . S
C87 C86 1.370 . S
C87 C88 1.396 . S
C87 H114 0.929 . S
C88 C83 1.373 . S
C88 C87 1.396 . S
C88 H115 0.929 . S
C89 O102 1.240 . S
C89 O103 1.289 . S
C90 O104 1.258 . S
C90 O105 1.256 . S
C91 La81 2.928 . S
C91 C92 1.503 . S
C91 O106 1.261 . S
C91 O107 1.243 . S
C92 C91 1.503 . S
C92 C93 1.394 . S
C92 C97 1.373 . S
C93 C92 1.394 . S
C93 C94 1.380 . S
C93 H116 0.930 . S
C94 C93 1.380 . S
C94 C95 1.376 . S
C94 H117 0.930 . S
C95 C94 1.376 . S
C95 C96 1.370 . S
C96 C95 1.370 . S
C96 C97 1.396 . S
C96 H118 0.929 . S
C97 C92 1.373 . S
C97 C96 1.396 . S
C97 H119 0.929 . S
C98 O108 1.240 . S
C98 O109 1.289 . S
C99 O110 1.258 . S
C99 O111 1.256 . S
O100 La80 2.521 . S
O100 C82 1.261 . S
O101 La80 2.628 . S
O101 C82 1.243 . S
O102 La80 2.554 . S
O102 C89 1.240 . S
O103 La80 2.757 . S
O103 La81 2.482 . S
O103 C89 1.289 . S
O104 La80 2.470 . S
O104 C90 1.258 . S
O105 La81 2.503 . S
O105 C90 1.256 . S
O106 La81 2.521 . S
O106 C91 1.261 . S
O107 La81 2.628 . S
O107 C91 1.243 . S
O108 La81 2.554 . S
O108 C98 1.240 . S
O109 La80 2.482 . S
O109 La81 2.757 . S
O109 C98 1.289 . S
O110 La81 2.470 . S
O110 C99 1.258 . S
O111 La80 2.503 . S
O111 C99 1.256 . S
H112 C84 0.930 . S
H113 C85 0.930 . S
H114 C87 0.929 . S
H115 C88 0.929 . S
H116 C93 0.930 . S
H117 C94 0.930 . S
H118 C96 0.929 . S
H119 C97 0.929 . S
O120 Cd121 2.300 . S
O120 C127 1.275 . S
Cd121 O120 2.300 . S
Cd121 O129 2.381 . S
Cd121 O130 2.378 . S
O122 Cd123 2.385 . S
O122 C127 1.255 1_565 S
Cd123 O122 2.385 . S
Cd123 O124 2.317 . S
O124 Cd123 2.317 . S
O124 C125 1.232 . S
C125 O124 1.232 . S
C125 O126 1.218 . S
O126 C125 1.218 . S
C127 O120 1.275 . S
C127 O122 1.255 1_545 S
C128 O129 1.258 . S
C128 O130 1.256 . S
O129 Cd121 2.381 . S
O129 C128 1.258 . S
O130 Cd121 2.378 . S
O130 C128 1.256 . S
O131 Cd132 2.300 . S
O131 C138 1.275 . S
Cd132 O131 2.300 . S
Cd132 O140 2.381 . S
Cd132 O141 2.378 . S
O133 Cd134 2.385 . S
O133 C138 1.255 . S
Cd134 O133 2.385 . S
Cd134 O135 2.317 . S
O135 Cd134 2.317 . S
O135 C136 1.232 . S
C136 O135 1.232 . S
C136 O137 1.218 . S
O137 C136 1.218 . S
C138 O131 1.275 . S
C138 O133 1.255 . S
C139 O140 1.258 . S
C139 O141 1.256 . S
O140 Cd132 2.381 . S
O140 C139 1.258 . S
O141 Cd132 2.378 . S
O141 C139 1.256 . S
O142 Cd143 2.300 . S
O142 C149 1.275 . S
Cd143 O142 2.300 . S
Cd143 O151 2.381 . S
Cd143 O152 2.378 . S
O144 Cd145 2.385 1_455 S
O144 C149 1.255 . S
Cd145 O144 2.385 1_655 S
Cd145 O146 2.317 . S
O146 Cd145 2.317 . S
O146 C147 1.232 . S
C147 O146 1.232 . S
C147 O148 1.218 . S
O148 C147 1.218 . S
C149 O142 1.275 . S
C149 O144 1.255 . S
C150 O151 1.258 . S
C150 O152 1.256 . S
O151 Cd143 2.381 . S
O151 C150 1.258 . S
O152 Cd143 2.378 . S
O152 C150 1.256 . S
O153 Cd154 2.300 . S
O153 C160 1.275 1_455 S
Cd154 O153 2.300 . S
Cd154 O162 2.381 . S
Cd154 O163 2.378 . S
O155 Cd156 2.385 . S
O155 C160 1.255 . S
Cd156 O155 2.385 . S
Cd156 O157 2.317 . S
O157 Cd156 2.317 . S
O157 C158 1.232 . S
C158 O157 1.232 . S
C158 O159 1.218 . S
O159 C158 1.218 . S
C160 O153 1.275 1_655 S
C160 O155 1.255 . S
C161 O162 1.258 . S
C161 O163 1.256 . S
O162 Cd154 2.381 . S
O162 C161 1.258 . S
O163 Cd154 2.378 . S
O163 C161 1.256 . S
O164 Cd165 2.300 . S
O164 C171 1.275 1_565 S
Cd165 O164 2.300 . S
Cd165 O173 2.381 . S
Cd165 O174 2.378 . S
O166 Cd167 2.385 . S
O166 C171 1.255 . S
Cd167 O166 2.385 . S
Cd167 O168 2.317 . S
O168 Cd167 2.317 . S
O168 C169 1.232 . S
C169 O168 1.232 . S
C169 O170 1.218 . S
O170 C169 1.218 . S
C171 O164 1.275 1_545 S
C171 O166 1.255 . S
C172 O173 1.258 . S
C172 O174 1.256 . S
O173 Cd165 2.381 . S
O173 C172 1.258 . S
O174 Cd165 2.378 . S
O174 C172 1.256 . S
O175 Cd176 2.300 . S
O175 C182 1.275 . S
Cd176 O175 2.300 . S
Cd176 O184 2.381 . S
Cd176 O185 2.378 . S
O177 Cd178 2.385 . S
O177 C182 1.255 . S
Cd178 O177 2.385 . S
Cd178 O179 2.317 . S
O179 Cd178 2.317 . S
O179 C180 1.232 . S
C180 O179 1.232 . S
C180 O181 1.218 . S
O181 C180 1.218 . S
C182 O175 1.275 . S
C182 O177 1.255 . S
C183 O184 1.258 . S
C183 O185 1.256 . S
O184 Cd176 2.381 . S
O184 C183 1.258 . S
O185 Cd176 2.378 . S
O185 C183 1.256 . S
C186 C187 1.386 . S
C186 C188 1.383 . S
C186 H202 0.951 . S
C187 C186 1.386 . S
C187 C191 1.383 . S
C188 C186 1.383 . S
C188 C189 1.402 . S
C188 H203 0.951 . S
C189 C188 1.402 . S
C189 C190 1.375 . S
C189 C192 1.481 . S
C190 C189 1.375 . S
C190 C191 1.367 . S
C190 H204 0.951 . S
C191 C187 1.383 . S
C191 C190 1.367 . S
C191 H205 0.950 . S
C192 C189 1.481 . S
C192 C193 1.297 . S
C192 H206 0.950 . S
C193 C192 1.297 . S
C193 C194 1.479 . S
C193 H207 0.950 . S
C194 C193 1.479 . S
C194 C195 1.375 . S
C194 C200 1.404 . S
C195 C194 1.375 . S
C195 C196 1.369 . S
C195 H208 0.950 . S
C196 C195 1.369 . S
C196 C197 1.392 . S
C196 H209 0.951 . S
C197 C196 1.392 . S
C197 C199 1.384 . S
H198 C200 0.949 . S
C199 C197 1.384 . S
C199 C200 1.385 . S
C199 H201 0.950 . S
C200 C194 1.404 . S
C200 H198 0.949 . S
C200 C199 1.385 . S
H201 C199 0.950 . S
H202 C186 0.951 . S
H203 C188 0.951 . S
H204 C190 0.951 . S
H205 C191 0.950 . S
H206 C192 0.950 . S
H207 C193 0.950 . S
H208 C195 0.950 . S
H209 C196 0.951 . S
C210 C211 1.386 . S
C210 C212 1.383 . S
C210 H226 0.951 . S
C211 C210 1.386 . S
C211 C215 1.383 . S
C212 C210 1.383 . S
C212 C213 1.402 . S
C212 H227 0.951 . S
C213 C212 1.402 . S
C213 C214 1.375 . S
C213 C216 1.481 . S
C214 C213 1.375 . S
C214 C215 1.367 . S
C214 H228 0.951 . S
C215 C211 1.383 . S
C215 C214 1.367 . S
C215 H229 0.950 . S
C216 C213 1.481 . S
C216 C217 1.297 . S
C216 H230 0.950 . S
C217 C216 1.297 . S
C217 C218 1.479 . S
C217 H231 0.950 . S
C218 C217 1.479 . S
C218 C219 1.375 . S
C218 C224 1.404 . S
C219 C218 1.375 . S
C219 C220 1.369 . S
C219 H232 0.950 . S
C220 C219 1.369 . S
C220 C221 1.392 . S
C220 H233 0.951 . S
C221 C220 1.392 . S
C221 C223 1.384 . S
H222 C224 0.949 . S
C223 C221 1.384 . S
C223 C224 1.385 . S
C223 H225 0.950 . S
C224 C218 1.404 . S
C224 H222 0.949 . S
C224 C223 1.385 . S
H225 C223 0.950 . S
H226 C210 0.951 . S
H227 C212 0.951 . S
H228 C214 0.951 . S
H229 C215 0.950 . S
H230 C216 0.950 . S
H231 C217 0.950 . S
H232 C219 0.950 . S
H233 C220 0.951 . S
C234 C235 1.386 . S
C234 C236 1.383 . S
C234 H250 0.951 . S
C235 C234 1.386 . S
C235 C239 1.383 . S
C236 C234 1.383 . S
C236 C237 1.402 . S
C236 H251 0.951 . S
C237 C236 1.402 . S
C237 C238 1.375 . S
C237 C240 1.481 . S
C238 C237 1.375 . S
C238 C239 1.367 . S
C238 H252 0.951 . S
C239 C235 1.383 . S
C239 C238 1.367 . S
C239 H253 0.950 . S
C240 C237 1.481 . S
C240 C241 1.297 . S
C240 H254 0.950 . S
C241 C240 1.297 . S
C241 C242 1.479 . S
C241 H255 0.950 . S
C242 C241 1.479 . S
C242 C243 1.375 . S
C242 C248 1.404 . S
C243 C242 1.375 . S
C243 C244 1.369 . S
C243 H256 0.950 . S
C244 C243 1.369 . S
C244 C245 1.392 . S
C244 H257 0.951 . S
C245 C244 1.392 . S
C245 C247 1.384 . S
H246 C248 0.949 . S
C247 C245 1.384 . S
C247 C248 1.385 . S
C247 H249 0.950 . S
C248 C242 1.404 . S
C248 H246 0.949 . S
C248 C247 1.385 . S
H249 C247 0.950 . S
H250 C234 0.951 . S
H251 C236 0.951 . S
H252 C238 0.951 . S
H253 C239 0.950 . S
H254 C240 0.950 . S
H255 C241 0.950 . S
H256 C243 0.950 . S
H257 C244 0.951 . S
C258 C259 1.386 . S
C258 C260 1.383 . S
C258 H274 0.951 . S
C259 C258 1.386 . S
C259 C263 1.383 . S
C260 C258 1.383 . S
C260 C261 1.402 . S
C260 H275 0.951 . S
C261 C260 1.402 . S
C261 C262 1.375 . S
C261 C264 1.481 . S
C262 C261 1.375 . S
C262 C263 1.367 . S
C262 H276 0.951 . S
C263 C259 1.383 . S
C263 C262 1.367 . S
C263 H277 0.950 . S
C264 C261 1.481 . S
C264 C265 1.297 . S
C264 H278 0.950 . S
C265 C264 1.297 . S
C265 C266 1.479 . S
C265 H279 0.950 . S
C266 C265 1.479 . S
C266 C267 1.375 . S
C266 C272 1.404 . S
C267 C266 1.375 . S
C267 C268 1.369 . S
C267 H280 0.950 . S
C268 C267 1.369 . S
C268 C269 1.392 . S
C268 H281 0.951 . S
C269 C268 1.392 . S
C269 C271 1.384 . S
H270 C272 0.949 . S
C271 C269 1.384 . S
C271 C272 1.385 . S
C271 H273 0.950 . S
C272 C266 1.404 . S
C272 H270 0.949 . S
C272 C271 1.385 . S
H273 C271 0.950 . S
H274 C258 0.951 . S
H275 C260 0.951 . S
H276 C262 0.951 . S
H277 C263 0.950 . S
H278 C264 0.950 . S
H279 C265 0.950 . S
H280 C267 0.950 . S
H281 C268 0.951 . S
C282 C283 1.386 . S
C282 C284 1.383 . S
C282 H298 0.951 . S
C283 C282 1.386 . S
C283 C287 1.383 . S
C284 C282 1.383 . S
C284 C285 1.402 . S
C284 H299 0.951 . S
C285 C284 1.402 . S
C285 C286 1.375 . S
C285 C288 1.481 . S
C286 C285 1.375 . S
C286 C287 1.367 . S
C286 H300 0.951 . S
C287 C283 1.383 . S
C287 C286 1.367 . S
C287 H301 0.950 . S
C288 C285 1.481 . S
C288 C289 1.297 . S
C288 H302 0.950 . S
C289 C288 1.297 . S
C289 C290 1.479 . S
C289 H303 0.950 . S
C290 C289 1.479 . S
C290 C291 1.375 . S
C290 C296 1.404 . S
C291 C290 1.375 . S
C291 C292 1.369 . S
C291 H304 0.950 . S
C292 C291 1.369 . S
C292 C293 1.392 . S
C292 H305 0.951 . S
C293 C292 1.392 . S
C293 C295 1.384 . S
H294 C296 0.949 . S
C295 C293 1.384 . S
C295 C296 1.385 . S
C295 H297 0.950 . S
C296 C290 1.404 . S
C296 H294 0.949 . S
C296 C295 1.385 . S
H297 C295 0.950 . S
H298 C282 0.951 . S
H299 C284 0.951 . S
H300 C286 0.951 . S
H301 C287 0.950 . S
H302 C288 0.950 . S
H303 C289 0.950 . S
H304 C291 0.950 . S
H305 C292 0.951 . S
C306 C307 1.386 . S
C306 C308 1.383 . S
C306 H322 0.951 . S
C307 C306 1.386 . S
C307 C311 1.383 . S
C308 C306 1.383 . S
C308 C309 1.402 . S
C308 H323 0.951 . S
C309 C308 1.402 . S
C309 C310 1.375 . S
C309 C312 1.481 . S
C310 C309 1.375 . S
C310 C311 1.367 . S
C310 H324 0.951 . S
C311 C307 1.383 . S
C311 C310 1.367 . S
C311 H325 0.950 . S
C312 C309 1.481 . S
C312 C313 1.297 . S
C312 H326 0.950 . S
C313 C312 1.297 . S
C313 C314 1.479 . S
C313 H327 0.950 . S
C314 C313 1.479 . S
C314 C315 1.375 . S
C314 C320 1.404 . S
C315 C314 1.375 . S
C315 C316 1.369 . S
C315 H328 0.950 . S
C316 C315 1.369 . S
C316 C317 1.392 . S
C316 H329 0.951 . S
C317 C316 1.392 . S
C317 C319 1.384 . S
H318 C320 0.949 . S
C319 C317 1.384 . S
C319 C320 1.385 . S
C319 H321 0.950 . S
C320 C314 1.404 . S
C320 H318 0.949 . S
C320 C319 1.385 . S
H321 C319 0.950 . S
H322 C306 0.951 . S
H323 C308 0.951 . S
H324 C310 0.951 . S
H325 C311 0.950 . S
H326 C312 0.950 . S
H327 C313 0.950 . S
H328 C315 0.950 . S
H329 C316 0.951 . S
C330 C331 1.386 . S
C330 C332 1.383 . S
C330 H346 0.951 . S
C331 C330 1.386 . S
C331 C335 1.383 . S
C332 C330 1.383 . S
C332 C333 1.402 . S
C332 H347 0.951 . S
C333 C332 1.402 . S
C333 C334 1.375 . S
C333 C336 1.481 . S
C334 C333 1.375 . S
C334 C335 1.367 . S
C334 H348 0.951 . S
C335 C331 1.383 . S
C335 C334 1.367 . S
C335 H349 0.950 . S
C336 C333 1.481 . S
C336 C337 1.297 . S
C336 H350 0.950 . S
C337 C336 1.297 . S
C337 C338 1.479 . S
C337 H351 0.950 . S
C338 C337 1.479 . S
C338 C339 1.375 . S
C338 C344 1.404 . S
C339 C338 1.375 . S
C339 C340 1.369 . S
C339 H352 0.950 . S
C340 C339 1.369 . S
C340 C341 1.392 . S
C340 H353 0.951 . S
C341 C340 1.392 . S
C341 C343 1.384 . S
H342 C344 0.949 . S
C343 C341 1.384 . S
C343 C344 1.385 . S
C343 H345 0.950 . S
C344 C338 1.404 . S
C344 H342 0.949 . S
C344 C343 1.385 . S
H345 C343 0.950 . S
H346 C330 0.951 . S
H347 C332 0.951 . S
H348 C334 0.951 . S
H349 C335 0.950 . S
H350 C336 0.950 . S
H351 C337 0.950 . S
H352 C339 0.950 . S
H353 C340 0.951 . S
C354 C355 1.386 . S
C354 C356 1.383 . S
C354 H370 0.951 . S
C355 C354 1.386 . S
C355 C359 1.383 . S
C356 C354 1.383 . S
C356 C357 1.402 . S
C356 H371 0.951 . S
C357 C356 1.402 . S
C357 C358 1.375 . S
C357 C360 1.481 . S
C358 C357 1.375 . S
C358 C359 1.367 . S
C358 H372 0.951 . S
C359 C355 1.383 . S
C359 C358 1.367 . S
C359 H373 0.950 . S
C360 C357 1.481 . S
C360 C361 1.297 . S
C360 H374 0.950 . S
C361 C360 1.297 . S
C361 C362 1.479 . S
C361 H375 0.950 . S
C362 C361 1.479 . S
C362 C363 1.375 . S
C362 C368 1.404 . S
C363 C362 1.375 . S
C363 C364 1.369 . S
C363 H376 0.950 . S
C364 C363 1.369 . S
C364 C365 1.392 . S
C364 H377 0.951 . S
C365 C364 1.392 . S
C365 C367 1.384 . S
H366 C368 0.949 . S
C367 C365 1.384 . S
C367 C368 1.385 . S
C367 H369 0.950 . S
C368 C362 1.404 . S
C368 H366 0.949 . S
C368 C367 1.385 . S
H369 C367 0.950 . S
H370 C354 0.951 . S
H371 C356 0.951 . S
H372 C358 0.951 . S
H373 C359 0.950 . S
H374 C360 0.950 . S
H375 C361 0.950 . S
H376 C363 0.950 . S
H377 C364 0.951 . S
C378 C379 1.386 . S
C378 C380 1.383 . S
C378 H394 0.951 . S
C379 C378 1.386 . S
C379 C383 1.383 . S
C380 C378 1.383 . S
C380 C381 1.402 . S
C380 H395 0.951 . S
C381 C380 1.402 . S
C381 C382 1.375 . S
C381 C384 1.481 . S
C382 C381 1.375 . S
C382 C383 1.367 . S
C382 H396 0.951 . S
C383 C379 1.383 . S
C383 C382 1.367 . S
C383 H397 0.950 . S
C384 C381 1.481 . S
C384 C385 1.297 . S
C384 H398 0.950 . S
C385 C384 1.297 . S
C385 C386 1.479 . S
C385 H399 0.950 . S
C386 C385 1.479 . S
C386 C387 1.375 . S
C386 C392 1.404 . S
C387 C386 1.375 . S
C387 C388 1.369 . S
C387 H400 0.950 . S
C388 C387 1.369 . S
C388 C389 1.392 . S
C388 H401 0.951 . S
C389 C388 1.392 . S
C389 C391 1.384 . S
H390 C392 0.949 . S
C391 C389 1.384 . S
C391 C392 1.385 . S
C391 H393 0.950 . S
C392 C386 1.404 . S
C392 H390 0.949 . S
C392 C391 1.385 . S
H393 C391 0.950 . S
H394 C378 0.951 . S
H395 C380 0.951 . S
H396 C382 0.951 . S
H397 C383 0.950 . S
H398 C384 0.950 . S
H399 C385 0.950 . S
H400 C387 0.950 . S
H401 C388 0.951 . S
C402 C403 1.386 . S
C402 C404 1.383 . S
C402 H418 0.951 . S
C403 C402 1.386 . S
C403 C407 1.383 . S
C404 C402 1.383 . S
C404 C405 1.402 . S
C404 H419 0.951 . S
C405 C404 1.402 . S
C405 C406 1.375 . S
C405 C408 1.481 . S
C406 C405 1.375 . S
C406 C407 1.367 . S
C406 H420 0.951 . S
C407 C403 1.383 . S
C407 C406 1.367 . S
C407 H421 0.950 . S
C408 C405 1.481 . S
C408 C409 1.297 . S
C408 H422 0.950 . S
C409 C408 1.297 . S
C409 C410 1.479 . S
C409 H423 0.950 . S
C410 C409 1.479 . S
C410 C411 1.375 . S
C410 C416 1.404 . S
C411 C410 1.375 . S
C411 C412 1.369 . S
C411 H424 0.950 . S
C412 C411 1.369 . S
C412 C413 1.392 . S
C412 H425 0.951 . S
C413 C412 1.392 . S
C413 C415 1.384 . S
H414 C416 0.949 . S
C415 C413 1.384 . S
C415 C416 1.385 . S
C415 H417 0.950 . S
C416 C410 1.404 . S
C416 H414 0.949 . S
C416 C415 1.385 . S
H417 C415 0.950 . S
H418 C402 0.951 . S
H419 C404 0.951 . S
H420 C406 0.951 . S
H421 C407 0.950 . S
H422 C408 0.950 . S
H423 C409 0.950 . S
H424 C411 0.950 . S
H425 C412 0.951 . S
C426 C427 1.386 . S
C426 C428 1.383 . S
C426 H442 0.951 . S
C427 C426 1.386 . S
C427 C431 1.383 . S
C428 C426 1.383 . S
C428 C429 1.402 . S
C428 H443 0.951 . S
C429 C428 1.402 . S
C429 C430 1.375 . S
C429 C432 1.481 . S
C430 C429 1.375 . S
C430 C431 1.367 . S
C430 H444 0.951 . S
C431 C427 1.383 . S
C431 C430 1.367 . S
C431 H445 0.950 . S
C432 C429 1.481 . S
C432 C433 1.297 . S
C432 H446 0.950 . S
C433 C432 1.297 . S
C433 C434 1.479 . S
C433 H447 0.950 . S
C434 C433 1.479 . S
C434 C435 1.375 . S
C434 C440 1.404 . S
C435 C434 1.375 . S
C435 C436 1.369 . S
C435 H448 0.950 . S
C436 C435 1.369 . S
C436 C437 1.392 . S
C436 H449 0.951 . S
C437 C436 1.392 . S
C437 C439 1.384 . S
H438 C440 0.949 . S
C439 C437 1.384 . S
C439 C440 1.385 . S
C439 H441 0.950 . S
C440 C434 1.404 . S
C440 H438 0.949 . S
C440 C439 1.385 . S
H441 C439 0.950 . S
H442 C426 0.951 . S
H443 C428 0.951 . S
H444 C430 0.951 . S
H445 C431 0.950 . S
H446 C432 0.950 . S
H447 C433 0.950 . S
H448 C435 0.950 . S
H449 C436 0.951 . S
C450 C451 1.386 . S
C450 C452 1.383 . S
C450 H466 0.951 . S
C451 C450 1.386 . S
C451 C455 1.383 . S
C452 C450 1.383 . S
C452 C453 1.402 . S
C452 H467 0.951 . S
C453 C452 1.402 . S
C453 C454 1.375 . S
C453 C456 1.481 . S
C454 C453 1.375 . S
C454 C455 1.367 . S
C454 H468 0.951 . S
C455 C451 1.383 . S
C455 C454 1.367 . S
C455 H469 0.950 . S
C456 C453 1.481 . S
C456 C457 1.297 . S
C456 H470 0.950 . S
C457 C456 1.297 . S
C457 C458 1.479 . S
C457 H471 0.950 . S
C458 C457 1.479 . S
C458 C459 1.375 . S
C458 C464 1.404 . S
C459 C458 1.375 . S
C459 C460 1.369 . S
C459 H472 0.950 . S
C460 C459 1.369 . S
C460 C461 1.392 . S
C460 H473 0.951 . S
C461 C460 1.392 . S
C461 C463 1.384 . S
H462 C464 0.949 . S
C463 C461 1.384 . S
C463 C464 1.385 . S
C463 H465 0.950 . S
C464 C458 1.404 . S
C464 H462 0.949 . S
C464 C463 1.385 . S
H465 C463 0.950 . S
H466 C450 0.951 . S
H467 C452 0.951 . S
H468 C454 0.951 . S
H469 C455 0.950 . S
H470 C456 0.950 . S
H471 C457 0.950 . S
H472 C459 0.950 . S
H473 C460 0.951 . S
C474 C475 1.386 . S
C474 C476 1.383 . S
C474 H490 0.951 . S
C475 C474 1.386 . S
C475 C479 1.383 . S
C476 C474 1.383 . S
C476 C477 1.402 . S
C476 H491 0.951 . S
C477 C476 1.402 . S
C477 C478 1.375 1_455 S
C477 C480 1.481 . S
C478 C477 1.375 1_655 S
C478 C479 1.367 1_655 S
C478 H492 0.951 . S
C479 C475 1.383 . S
C479 C478 1.367 1_455 S
C479 H493 0.950 1_455 S
C480 C477 1.481 . S
C480 C481 1.297 . S
C480 H494 0.950 1_455 S
C481 C480 1.297 . S
C481 C482 1.479 1_554 S
C481 H495 0.950 . S
C482 C481 1.479 1_556 S
C482 C483 1.375 . S
C482 C488 1.404 1_455 S
C483 C482 1.375 . S
C483 C484 1.369 . S
C483 H496 0.950 . S
C484 C483 1.369 . S
C484 C485 1.392 . S
C484 H497 0.951 . S
C485 C484 1.392 . S
C485 C487 1.415 . S
H486 C488 0.949 . S
C487 C485 1.415 . S
C487 C488 1.387 1_455 S
C487 H489 0.918 1_455 S
C488 C482 1.404 1_655 S
C488 H486 0.949 . S
C488 C487 1.387 1_655 S
H489 C487 0.918 1_655 S
H490 C474 0.951 . S
H491 C476 0.951 . S
H492 C478 0.951 . S
H493 C479 0.950 1_655 S
H494 C480 0.950 1_655 S
H495 C481 0.950 . S
H496 C483 0.950 . S
H497 C484 0.951 . S
C498 C499 1.386 . S
C498 C500 1.383 . S
C498 H514 0.951 . S
C499 C498 1.386 . S
C499 C503 1.383 . S
C500 C498 1.383 . S
C500 C501 1.402 . S
C500 H515 0.951 . S
C501 C500 1.402 . S
C501 C502 1.375 . S
C501 C504 1.481 . S
C502 C501 1.375 . S
C502 C503 1.367 . S
C502 H516 0.951 . S
C503 C499 1.383 . S
C503 C502 1.367 . S
C503 H517 0.950 . S
C504 C501 1.481 . S
C504 C505 1.297 1_545 S
C504 H518 0.950 . S
C505 C504 1.297 1_565 S
C505 C506 1.484 . S
C505 H519 0.950 . S
C506 C505 1.484 . S
C506 C507 1.390 1_565 S
C506 C512 1.386 . S
C507 C506 1.390 1_545 S
C507 C508 1.369 . S
C507 H520 0.950 . S
C508 C507 1.369 . S
C508 C509 1.392 . S
C508 H521 0.951 . S
C509 C508 1.392 . S
C509 C511 1.375 . S
H510 C512 0.949 . S
C511 C509 1.375 . S
C511 C512 1.381 1_545 S
C511 H513 0.965 1_545 S
C512 C506 1.386 . S
C512 H510 0.949 . S
C512 C511 1.381 1_565 S
H513 C511 0.965 1_565 S
H514 C498 0.951 . S
H515 C500 0.951 . S
H516 C502 0.951 . S
H517 C503 0.950 . S
H518 C504 0.950 . S
H519 C505 0.950 . S
H520 C507 0.950 . S
H521 C508 0.951 . S
C522 C523 1.386 . S
C522 C524 1.383 . S
C522 H538 0.951 . S
C523 C522 1.386 . S
C523 C527 1.383 . S
C524 C522 1.383 . S
C524 C525 1.402 . S
C524 H539 0.951 . S
C525 C524 1.402 . S
C525 C526 1.375 . S
C525 C528 1.481 . S
C526 C525 1.375 . S
C526 C527 1.367 . S
C526 H540 0.951 . S
C527 C523 1.383 . S
C527 C526 1.367 . S
C527 H541 0.950 . S
C528 C525 1.481 . S
C528 C529 1.297 . S
C528 H542 0.950 . S
C529 C528 1.297 . S
C529 C530 1.479 . S
C529 H543 0.950 . S
C530 C529 1.479 . S
C530 C531 1.375 . S
C530 C536 1.404 . S
C531 C530 1.375 . S
C531 C532 1.369 . S
C531 H544 0.950 . S
C532 C531 1.369 . S
C532 C533 1.392 . S
C532 H545 0.951 . S
C533 C532 1.392 . S
C533 C535 1.384 . S
H534 C536 0.949 . S
C535 C533 1.384 . S
C535 C536 1.385 . S
C535 H537 0.950 . S
C536 C530 1.404 . S
C536 H534 0.949 . S
C536 C535 1.385 . S
H537 C535 0.950 . S
H538 C522 0.951 . S
H539 C524 0.951 . S
H540 C526 0.951 . S
H541 C527 0.950 . S
H542 C528 0.950 . S
H543 C529 0.950 . S
H544 C531 0.950 . S
H545 C532 0.951 . S
C546 C547 1.386 . S
C546 C548 1.383 . S
C546 H562 0.948 . S
C547 C546 1.386 . S
C547 C551 1.383 . S
C548 C546 1.383 . S
C548 C549 1.402 . S
C548 H563 0.951 . S
C549 C548 1.402 . S
C549 C550 1.375 . S
C549 C552 1.481 . S
C550 C549 1.375 . S
C550 C551 1.367 . S
C550 H564 0.951 . S
C551 C547 1.383 . S
C551 C550 1.367 . S
C551 H565 0.950 . S
C552 C549 1.481 . S
C552 C553 1.297 . S
C552 H566 0.950 . S
C553 C552 1.297 . S
C553 C554 1.479 . S
C553 H567 0.950 . S
C554 C553 1.479 . S
C554 C555 1.375 . S
C554 C560 1.404 . S
C555 C554 1.375 . S
C555 C556 1.369 . S
C555 H568 0.950 . S
C556 C555 1.369 . S
C556 C557 1.392 . S
C556 H569 0.930 1_545 S
C557 C556 1.392 . S
C557 C559 1.384 . S
H558 C560 0.949 . S
C559 C557 1.384 . S
C559 C560 1.385 . S
C559 H561 0.950 . S
C560 C554 1.404 . S
C560 H558 0.949 . S
C560 C559 1.385 . S
H561 C559 0.950 . S
H562 C546 0.948 . S
H563 C548 0.951 . S
H564 C550 0.951 . S
H565 C551 0.950 . S
H566 C552 0.950 . S
H567 C553 0.950 . S
H568 C555 0.950 . S
H569 C556 0.930 1_565 S
C570 C571 1.386 . S
C570 C572 1.383 . S
C570 H586 0.951 . S
C571 C570 1.386 . S
C571 C575 1.383 . S
C572 C570 1.383 . S
C572 C573 1.402 . S
C572 H587 0.951 . S
C573 C572 1.402 . S
C573 C574 1.375 . S
C573 C576 1.481 . S
C574 C573 1.375 . S
C574 C575 1.367 . S
C574 H588 0.951 . S
C575 C571 1.383 . S
C575 C574 1.367 . S
C575 H589 0.950 . S
C576 C573 1.481 . S
C576 C577 1.297 . S
C576 H590 0.950 . S
C577 C576 1.297 . S
C577 C578 1.479 1_556 S
C577 H591 0.950 . S
C578 C577 1.479 1_554 S
C578 C579 1.375 . S
C578 C584 1.404 . S
C579 C578 1.375 . S
C579 C580 1.369 . S
C579 H592 0.950 . S
C580 C579 1.369 . S
C580 C581 1.392 . S
C580 H593 0.951 . S
C581 C580 1.392 . S
C581 C583 1.384 . S
H582 C584 0.949 . S
C583 C581 1.384 . S
C583 C584 1.385 . S
C583 H585 0.950 . S
C584 C578 1.404 . S
C584 H582 0.949 . S
C584 C583 1.385 . S
H585 C583 0.950 . S
H586 C570 0.951 . S
H587 C572 0.951 . S
H588 C574 0.951 . S
H589 C575 0.950 . S
H590 C576 0.950 . S
H591 C577 0.950 . S
H592 C579 0.950 . S
H593 C580 0.951 . S
C594 C595 1.386 . S
C594 C596 1.383 . S
C594 H610 0.951 . S
C595 C594 1.386 . S
C595 C599 1.383 . S
C596 C594 1.383 . S
C596 C597 1.402 . S
C596 H611 0.951 . S
C597 C596 1.402 . S
C597 C598 1.375 . S
C597 C600 1.481 . S
C598 C597 1.375 . S
C598 C599 1.367 . S
C598 H612 0.951 . S
C599 C595 1.383 . S
C599 C598 1.367 . S
C599 H613 0.950 . S
C600 C597 1.481 . S
C600 C601 1.297 . S
C600 H614 0.950 . S
C601 C600 1.297 . S
C601 C602 1.479 . S
C601 H615 0.950 . S
C602 C601 1.479 . S
C602 C603 1.375 . S
C602 C608 1.404 . S
C603 C602 1.375 . S
C603 C604 1.369 . S
C603 H616 0.950 . S
C604 C603 1.369 . S
C604 C605 1.392 1_455 S
C604 H617 0.944 . S
C605 C604 1.392 1_655 S
C605 C607 1.384 1_655 S
H606 C608 0.949 . S
C607 C605 1.384 1_455 S
C607 C608 1.385 . S
C607 H609 0.950 . S
C608 C602 1.404 . S
C608 H606 0.949 . S
C608 C607 1.385 . S
H609 C607 0.950 . S
H610 C594 0.951 . S
H611 C596 0.951 . S
H612 C598 0.951 . S
H613 C599 0.950 . S
H614 C600 0.950 . S
H615 C601 0.950 . S
H616 C603 0.950 . S
H617 C604 0.944 . S
C187 C6 0.610 . S
C197 C180 0.585 . S
C211 C59 2.040 . S
C221 C158 1.833 . S
C235 C86 1.014 . S
C245 C172 1.038 . S
C259 C15 0.383 . S
C269 C183 0.370 . S
C293 C161 1.745 . S
C283 C50 1.786 . S
C317 C169 1.194 . S
C307 C95 1.382 . S
C331 C46 1.343 . S
C341 C136 1.148 . S
C355 C99 3.281 . S
C365 C147 2.969 . S
C379 C10 2.122 . S
C389 C125 1.736 . S
C413 C139 1.065 . S
C403 C55 1.053 . S
C437 C150 2.775 . S
C427 C90 2.839 . S
C451 C19 1.718 . S
C461 C128 1.734 . S
C485 C149 1.615 . S
C475 C18 1.621 . S
C499 C49 1.418 . S
C509 C127 1.409 . S
C523 C98 1.482 . S
C533 C138 1.411 . S
C557 C171 1.431 . S
C547 C58 1.429 . S
C581 C182 1.269 . S
C571 C89 1.266 . S
C595 C9 1.429 . S
C605 C160 1.363 . S
