# Generated by pormake.
# Topology pto, (3,4)-cn, num edge types: 1
# Building blocks:
#     Node 0, Type 0, BuildingBlock: WUSLED_clean_sbu_0, # of connection points: 3
#     Node 1, Type 0, BuildingBlock: WUSLED_clean_sbu_0, # of connection points: 3
#     Node 2, Type 0, BuildingBlock: WUSLED_clean_sbu_0, # of connection points: 3
#     Node 3, Type 0, BuildingBlock: WUSLED_clean_sbu_0, # of connection points: 3
#     Node 4, Type 0, BuildingBlock: WUSLED_clean_sbu_0, # of connection points: 3
#     Node 5, Type 0, BuildingBlock: WUSLED_clean_sbu_0, # of connection points: 3
#     Node 6, Type 0, BuildingBlock: WUSLED_clean_sbu_0, # of connection points: 3
#     Node 7, Type 0, BuildingBlock: WUSLED_clean_sbu_0, # of connection points: 3
#     Node 8, Type 1, BuildingBlock: NAWXER_clean_sbu_0, # of connection points: 4
#     Node 9, Type 1, BuildingBlock: NAWXER_clean_sbu_0, # of connection points: 4
#     Node 10, Type 1, BuildingBlock: NAWXER_clean_sbu_0, # of connection points: 4
#     Node 11, Type 1, BuildingBlock: NAWXER_clean_sbu_0, # of connection points: 4
#     Node 12, Type 1, BuildingBlock: NAWXER_clean_sbu_0, # of connection points: 4
#     Node 13, Type 1, BuildingBlock: NAWXER_clean_sbu_0, # of connection points: 4
#     Edge 14, Type (0, 1), BuildingBlock: AJUNOK_clean_linker_0, # of connection points: 2
#     Edge 15, Type (0, 1), BuildingBlock: AJUNOK_clean_linker_0, # of connection points: 2
#     Edge 16, Type (0, 1), BuildingBlock: AJUNOK_clean_linker_0, # of connection points: 2
#     Edge 17, Type (0, 1), BuildingBlock: AJUNOK_clean_linker_0, # of connection points: 2
#     Edge 18, Type (0, 1), BuildingBlock: AJUNOK_clean_linker_0, # of connection points: 2
#     Edge 19, Type (0, 1), BuildingBlock: AJUNOK_clean_linker_0, # of connection points: 2
#     Edge 20, Type (0, 1), BuildingBlock: AJUNOK_clean_linker_0, # of connection points: 2
#     Edge 21, Type (0, 1), BuildingBlock: AJUNOK_clean_linker_0, # of connection points: 2
#     Edge 22, Type (0, 1), BuildingBlock: AJUNOK_clean_linker_0, # of connection points: 2
#     Edge 23, Type (0, 1), BuildingBlock: AJUNOK_clean_linker_0, # of connection points: 2
#     Edge 24, Type (0, 1), BuildingBlock: AJUNOK_clean_linker_0, # of connection points: 2
#     Edge 25, Type (0, 1), BuildingBlock: AJUNOK_clean_linker_0, # of connection points: 2
#     Edge 26, Type (0, 1), BuildingBlock: AJUNOK_clean_linker_0, # of connection points: 2
#     Edge 27, Type (0, 1), BuildingBlock: AJUNOK_clean_linker_0, # of connection points: 2
#     Edge 28, Type (0, 1), BuildingBlock: AJUNOK_clean_linker_0, # of connection points: 2
#     Edge 29, Type (0, 1), BuildingBlock: AJUNOK_clean_linker_0, # of connection points: 2
#     Edge 30, Type (0, 1), BuildingBlock: AJUNOK_clean_linker_0, # of connection points: 2
#     Edge 31, Type (0, 1), BuildingBlock: AJUNOK_clean_linker_0, # of connection points: 2
#     Edge 32, Type (0, 1), BuildingBlock: AJUNOK_clean_linker_0, # of connection points: 2
#     Edge 33, Type (0, 1), BuildingBlock: AJUNOK_clean_linker_0, # of connection points: 2
#     Edge 34, Type (0, 1), BuildingBlock: AJUNOK_clean_linker_0, # of connection points: 2
#     Edge 35, Type (0, 1), BuildingBlock: AJUNOK_clean_linker_0, # of connection points: 2
#     Edge 36, Type (0, 1), BuildingBlock: AJUNOK_clean_linker_0, # of connection points: 2
#     Edge 37, Type (0, 1), BuildingBlock: AJUNOK_clean_linker_0, # of connection points: 2
# Relax obj value: 0.000
# Max RMSD: 0.007
# Mean RMSD: 0.004
data_MOF--net-pto--node1-WUSLED_clean_sbu_0--node2-NAWXER_clean_sbu_0--edge1-AJUNOK_clean_linker_0
_symmetry_space_group_name_H-M    P1
_symmetry_Int_Tables_number       1
_symmetry_cell_setting            triclinic
loop_
_symmetry_equiv_pos_as_xyz
'x, y, z'
_cell_length_a     43.762911
_cell_length_b     41.572807
_cell_length_c     39.075795
_cell_angle_alpha  89.434317
_cell_angle_beta   90.431448
_cell_angle_gamma 90.46646
loop_
_atom_site_label
_atom_site_type_symbol
_atom_site_fract_x
_atom_site_fract_y
_atom_site_fract_z
_atom_type_partial_charge
C0 C 0.28915 0.23291 0.33745 0.0
C1 C 0.31677 0.23111 0.35609 0.0
C2 C 0.29834 0.18321 0.38644 0.0
C3 C 0.32137 0.20633 0.38032 0.0
C4 C 0.27139 0.18441 0.36669 0.0
C5 C 0.26684 0.20899 0.34261 0.0
U6 U 0.30439 0.29404 0.26305 0.0
O7 O 0.27216 0.30952 0.22261 0.0
O8 O 0.29121 0.34483 0.25842 0.0
C9 C 0.27173 0.33941 0.23329 0.0
C10 C 0.2817 0.2602 0.31424 0.0
C11 C 0.24142 0.35514 0.23514 0.0
C12 C 0.19206 0.36681 0.20852 0.0
C13 C 0.21932 0.34939 0.20954 0.0
C14 C 0.20818 0.39589 0.25893 0.0
C15 C 0.18641 0.39066 0.23286 0.0
C16 C 0.23539 0.37844 0.26001 0.0
C17 C 0.37789 0.29612 0.21126 0.0
C18 C 0.38229 0.31685 0.15303 0.0
C19 C 0.42793 0.30723 0.18693 0.0
C20 C 0.40983 0.29694 0.21441 0.0
C21 C 0.41434 0.31677 0.15577 0.0
C22 C 0.36421 0.30685 0.1806 0.0
C23 C 0.35929 0.28291 0.23955 0.0
O24 O 0.29691 0.28734 0.31838 0.0
O25 O 0.27686 0.25307 0.28195 0.0
O26 O 0.33491 0.26632 0.23037 0.0
O27 O 0.35421 0.30254 0.26501 0.0
H28 H 0.33445 0.24919 0.35255 0.0
H29 H 0.34239 0.2059 0.39512 0.0
H30 H 0.25347 0.1666 0.3704 0.0
H31 H 0.24541 0.20976 0.32855 0.0
H32 H 0.17549 0.36176 0.18851 0.0
H33 H 0.22341 0.33187 0.18978 0.0
H34 H 0.20457 0.4142 0.27797 0.0
H35 H 0.25199 0.38387 0.27986 0.0
H36 H 0.37127 0.32404 0.12927 0.0
H37 H 0.45256 0.30636 0.18956 0.0
H38 H 0.42082 0.28881 0.23785 0.0
H39 H 0.33957 0.30672 0.17766 0.0
C40 C 0.29088 0.82915 0.71448 0.0
C41 C 0.28246 0.86043 0.72376 0.0
C42 C 0.30176 0.88232 0.66989 0.0
C43 C 0.28789 0.88663 0.70184 0.0
C44 C 0.31104 0.85123 0.6609 0.0
C45 C 0.30559 0.82491 0.6829 0.0
U46 U 0.30474 0.76279 0.78342 0.0
O47 O 0.27489 0.74774 0.82606 0.0
O48 O 0.28775 0.71298 0.78687 0.0
C49 C 0.27123 0.71848 0.81416 0.0
C50 C 0.28144 0.80121 0.73626 0.0
C51 C 0.23983 0.70493 0.81469 0.0
C52 C 0.19746 0.67682 0.78709 0.0
C53 C 0.22568 0.69279 0.78505 0.0
C54 C 0.19654 0.68554 0.84821 0.0
C55 C 0.18261 0.67283 0.81872 0.0
C56 C 0.22483 0.7014 0.84619 0.0
C57 C 0.38335 0.75398 0.82665 0.0
C58 C 0.39505 0.73481 0.88434 0.0
C59 C 0.43528 0.73932 0.84231 0.0
C60 C 0.41408 0.75004 0.8179 0.0
C61 C 0.42618 0.73241 0.87607 0.0
C62 C 0.37379 0.74538 0.8598 0.0
C63 C 0.36232 0.76904 0.80161 0.0
O64 O 0.29311 0.77294 0.72935 0.0
O65 O 0.27941 0.80648 0.76929 0.0
O66 O 0.34028 0.78646 0.81436 0.0
O67 O 0.35329 0.75093 0.77602 0.0
H68 H 0.27077 0.86461 0.74763 0.0
H69 H 0.28047 0.91027 0.70951 0.0
H70 H 0.32125 0.847 0.6362 0.0
H71 H 0.31203 0.80114 0.67463 0.0
H72 H 0.18776 0.66664 0.76399 0.0
H73 H 0.23676 0.69483 0.76042 0.0
H74 H 0.1857 0.68289 0.87292 0.0
H75 H 0.23539 0.71027 0.86947 0.0
H76 H 0.38738 0.73026 0.91023 0.0
H77 H 0.45908 0.73761 0.83515 0.0
H78 H 0.42192 0.75636 0.79244 0.0
H79 H 0.35013 0.74803 0.86713 0.0
C80 C 0.72778 0.77571 0.23393 0.0
C81 C 0.73369 0.75924 0.20347 0.0
C82 C 0.67911 0.75656 0.1905 0.0
C83 C 0.70956 0.74985 0.18187 0.0
C84 C 0.67336 0.7721 0.2216 0.0
C85 C 0.69745 0.78158 0.24306 0.0
U86 U 0.80972 0.77137 0.26835 0.0
O87 O 0.84303 0.81008 0.27952 0.0
O88 O 0.82773 0.77756 0.32062 0.0
C89 C 0.84346 0.8036 0.31252 0.0
C90 C 0.75282 0.78769 0.25602 0.0
C91 C 0.84067 0.83149 0.33559 0.0
C92 C 0.8135 0.86162 0.37883 0.0
C93 C 0.81484 0.83578 0.35614 0.0
C94 C 0.86349 0.87971 0.36041 0.0
C95 C 0.83791 0.8838 0.38146 0.0
C96 C 0.86488 0.85377 0.33785 0.0
C97 C 0.86075 0.70258 0.23487 0.0
C98 C 0.89453 0.66196 0.25915 0.0
C99 C 0.90335 0.68215 0.20175 0.0
C100 C 0.87807 0.7024 0.2047 0.0
C101 C 0.91161 0.66137 0.22881 0.0
C102 C 0.86944 0.68227 0.26217 0.0
C103 C 0.83229 0.72167 0.23629 0.0
O104 O 0.76085 0.7686 0.28147 0.0
O105 O 0.77627 0.8008 0.24013 0.0
O106 O 0.83343 0.75116 0.22384 0.0
O107 O 0.81624 0.71926 0.26453 0.0
H108 H 0.75697 0.75432 0.19601 0.0
H109 H 0.71482 0.73848 0.15783 0.0
H110 H 0.65017 0.77749 0.22903 0.0
H111 H 0.69241 0.79406 0.26654 0.0
H112 H 0.79347 0.86402 0.39469 0.0
H113 H 0.79578 0.81903 0.3549 0.0
H114 H 0.88234 0.89674 0.3611 0.0
H115 H 0.885 0.85104 0.32218 0.0
H116 H 0.90014 0.64608 0.28039 0.0
H117 H 0.91637 0.68275 0.1783 0.0
H118 H 0.87176 0.71759 0.18314 0.0
H119 H 0.85652 0.68147 0.28569 0.0
C120 C 0.79286 0.21401 0.72605 0.0
C121 C 0.82045 0.19682 0.7264 0.0
C122 C 0.80325 0.1654 0.67732 0.0
C123 C 0.82563 0.17276 0.70214 0.0
C124 C 0.77626 0.18353 0.67635 0.0
C125 C 0.7711 0.2074 0.7005 0.0
U126 U 0.81035 0.28731 0.78381 0.0
O127 O 0.78061 0.32808 0.79554 0.0
O128 O 0.79672 0.29641 0.83702 0.0
C129 C 0.77918 0.3207 0.82828 0.0
C130 C 0.7853 0.23787 0.75253 0.0
C131 C 0.74855 0.32102 0.84376 0.0
C132 C 0.69406 0.30899 0.84234 0.0
C133 C 0.72286 0.30809 0.82693 0.0
C134 C 0.71631 0.33579 0.89143 0.0
C135 C 0.69052 0.32255 0.87496 0.0
C136 C 0.74501 0.335 0.87597 0.0
C137 C 0.88731 0.33152 0.78036 0.0
C138 C 0.9045 0.37187 0.82122 0.0
C139 C 0.92655 0.37039 0.76457 0.0
C140 C 0.9081 0.34394 0.75647 0.0
C141 C 0.9246 0.3849 0.7968 0.0
C142 C 0.88577 0.34546 0.81297 0.0
C143 C 0.86661 0.30516 0.76992 0.0
O144 O 0.79958 0.2355 0.7822 0.0
O145 O 0.7822 0.26773 0.74178 0.0
O146 O 0.8429 0.31406 0.75143 0.0
O147 O 0.85982 0.2835 0.79347 0.0
H148 H 0.83775 0.20155 0.74571 0.0
H149 H 0.84669 0.15928 0.7034 0.0
H150 H 0.7589 0.17898 0.65705 0.0
H151 H 0.74975 0.22043 0.69955 0.0
H152 H 0.67455 0.29911 0.82872 0.0
H153 H 0.72507 0.29733 0.80194 0.0
H154 H 0.71439 0.34619 0.91663 0.0
H155 H 0.76455 0.34518 0.88932 0.0
H156 H 0.90256 0.38278 0.84616 0.0
H157 H 0.94205 0.3799 0.74541 0.0
H158 H 0.90963 0.33357 0.73121 0.0
H159 H 0.86971 0.33636 0.83175 0.0
C160 C 0.83698 0.70195 0.79495 0.0
C161 C 0.84028 0.68724 0.76289 0.0
C162 C 0.88886 0.66396 0.78115 0.0
C163 C 0.86594 0.66832 0.75611 0.0
C164 C 0.88564 0.67924 0.81289 0.0
C165 C 0.86001 0.6979 0.8197 0.0
U166 U 0.78013 0.76871 0.77328 0.0
O167 O 0.73084 0.77355 0.78204 0.0
O168 O 0.76294 0.80787 0.8054 0.0
C169 C 0.73434 0.7984 0.8023 0.0
C170 C 0.81008 0.72173 0.80334 0.0
C171 C 0.71595 0.79801 0.8337 0.0
C172 C 0.69575 0.77063 0.88395 0.0
C173 C 0.71578 0.77149 0.85615 0.0
C174 C 0.67675 0.82326 0.86789 0.0
C175 C 0.67547 0.79617 0.88959 0.0
C176 C 0.69677 0.8241 0.84014 0.0
C177 C 0.78804 0.81406 0.68864 0.0
C178 C 0.75355 0.85718 0.67193 0.0
C179 C 0.80158 0.85053 0.64239 0.0
C180 C 0.80828 0.82387 0.66296 0.0
C181 C 0.77446 0.86774 0.64708 0.0
C182 C 0.76039 0.83052 0.69277 0.0
C183 C 0.79736 0.78833 0.71239 0.0
O184 O 0.81595 0.75226 0.80908 0.0
O185 O 0.78508 0.71708 0.78504 0.0
O186 O 0.77745 0.76491 0.7172 0.0
O187 O 0.81023 0.79835 0.74087 0.0
H188 H 0.82295 0.69009 0.74319 0.0
H189 H 0.86743 0.65649 0.73163 0.0
H190 H 0.90297 0.67664 0.83264 0.0
H191 H 0.85812 0.70913 0.8445 0.0
H192 H 0.69566 0.74968 0.90066 0.0
H193 H 0.73057 0.7512 0.8517 0.0
H194 H 0.6614 0.84323 0.87155 0.0
H195 H 0.69663 0.84481 0.82307 0.0
H196 H 0.73268 0.87033 0.67619 0.0
H197 H 0.81802 0.85829 0.62335 0.0
H198 H 0.82973 0.81152 0.65953 0.0
H199 H 0.74462 0.82335 0.71273 0.0
C200 C 0.70847 0.26844 0.20912 0.0
C201 C 0.71681 0.26417 0.17474 0.0
C202 C 0.66363 0.26919 0.15656 0.0
C203 C 0.69456 0.2645 0.14873 0.0
C204 C 0.65537 0.2734 0.19089 0.0
C205 C 0.67752 0.27299 0.21683 0.0
U206 U 0.77953 0.291 0.26593 0.0
O207 O 0.78335 0.28681 0.32191 0.0
O208 O 0.81254 0.25751 0.28927 0.0
C209 C 0.80275 0.26288 0.3204 0.0
C210 C 0.73073 0.26476 0.23765 0.0
C211 C 0.79565 0.23392 0.34123 0.0
C212 C 0.76248 0.20335 0.37968 0.0
C213 C 0.76778 0.2303 0.3587 0.0
C214 C 0.81231 0.18281 0.36518 0.0
C215 C 0.78485 0.17949 0.38339 0.0
C216 C 0.81768 0.20976 0.34447 0.0
C217 C 0.8323 0.36323 0.25008 0.0
C218 C 0.87895 0.37225 0.28324 0.0
C219 C 0.86469 0.40967 0.23811 0.0
C220 C 0.8384 0.39139 0.2313 0.0
C221 C 0.88545 0.40019 0.26391 0.0
C222 C 0.85257 0.3539 0.27637 0.0
C223 C 0.80533 0.34345 0.24111 0.0
O224 O 0.75882 0.25664 0.22995 0.0
O225 O 0.72944 0.28592 0.26239 0.0
O226 O 0.78265 0.34389 0.26298 0.0
O227 O 0.81124 0.31446 0.22992 0.0
H228 H 0.7404 0.26014 0.16793 0.0
H229 H 0.70154 0.26126 0.12245 0.0
H230 H 0.63165 0.27648 0.19777 0.0
H231 H 0.67034 0.27559 0.24313 0.0
H232 H 0.74134 0.20173 0.39384 0.0
H233 H 0.7503 0.24852 0.35673 0.0
H234 H 0.82991 0.1647 0.36739 0.0
H235 H 0.83931 0.21195 0.33129 0.0
H236 H 0.89469 0.36405 0.30292 0.0
H237 H 0.86895 0.43116 0.22292 0.0
H238 H 0.82303 0.39903 0.21098 0.0
H239 H 0.84826 0.33215 0.29111 0.0
C240 C 0.2326 0.2336 0.69891 0.0
C241 C 0.2501 0.20767 0.71091 0.0
C242 C 0.23316 0.17541 0.66249 0.0
C243 C 0.25033 0.17877 0.69287 0.0
C244 C 0.21522 0.20132 0.65099 0.0
C245 C 0.21492 0.23014 0.66912 0.0
U246 U 0.26959 0.29272 0.7614 0.0
O247 O 0.2774 0.34484 0.75468 0.0
O248 O 0.24839 0.32692 0.79638 0.0
C249 C 0.25819 0.35218 0.77903 0.0
C250 C 0.23387 0.26492 0.71597 0.0
C251 C 0.23466 0.37598 0.76972 0.0
C252 C 0.18422 0.38926 0.74711 0.0
C253 C 0.20735 0.36671 0.75327 0.0
C254 C 0.21604 0.43075 0.77242 0.0
C255 C 0.18812 0.42144 0.7572 0.0
C256 C 0.23904 0.40824 0.77862 0.0
C257 C 0.34123 0.26423 0.81307 0.0
C258 C 0.38981 0.28795 0.83108 0.0
C259 C 0.36813 0.24353 0.86344 0.0
C260 C 0.34317 0.24259 0.84084 0.0
C261 C 0.39198 0.26593 0.85859 0.0
C262 C 0.36477 0.28709 0.80852 0.0
C263 C 0.3158 0.26066 0.78801 0.0
O264 O 0.22823 0.26459 0.74897 0.0
O265 O 0.25739 0.28316 0.70775 0.0
O266 O 0.31754 0.27735 0.75929 0.0
O267 O 0.28801 0.25944 0.80057 0.0
H268 H 0.26405 0.21001 0.7338 0.0
H269 H 0.26439 0.15923 0.70231 0.0
H270 H 0.20238 0.19981 0.62725 0.0
H271 H 0.20149 0.25005 0.65936 0.0
H272 H 0.16283 0.3812 0.73589 0.0
H273 H 0.20358 0.34187 0.74612 0.0
H274 H 0.21976 0.45538 0.78036 0.0
H275 H 0.26 0.41589 0.79117 0.0
H276 H 0.4078 0.30551 0.82664 0.0
H277 H 0.36865 0.22678 0.88484 0.0
H278 H 0.32545 0.22462 0.84487 0.0
H279 H 0.36412 0.30401 0.78729 0.0
C280 C 0.21185 0.71447 0.29749 0.0
C281 C 0.19364 0.70774 0.26861 0.0
C282 C 0.17159 0.66074 0.29744 0.0
C283 C 0.17377 0.68118 0.26861 0.0
C284 C 0.19028 0.6671 0.32603 0.0
C285 C 0.21006 0.69377 0.32609 0.0
U286 U 0.27753 0.77266 0.26963 0.0
O287 O 0.2772 0.82545 0.26677 0.0
O288 O 0.30832 0.80099 0.30273 0.0
C289 C 0.29682 0.82851 0.29222 0.0
C290 C 0.23081 0.74413 0.29956 0.0
C291 C 0.28883 0.85139 0.31928 0.0
C292 C 0.25222 0.88467 0.34911 0.0
C293 C 0.25859 0.86133 0.32458 0.0
C294 C 0.30598 0.88747 0.36407 0.0
C295 C 0.27598 0.89842 0.36861 0.0
C296 C 0.31234 0.86438 0.33951 0.0
C297 C 0.33231 0.75493 0.19669 0.0
C298 C 0.37805 0.7872 0.18585 0.0
C299 C 0.36496 0.74289 0.14858 0.0
C300 C 0.33886 0.73641 0.16797 0.0
C301 C 0.38508 0.76808 0.15749 0.0
C302 C 0.35184 0.78067 0.2053 0.0
C303 C 0.30578 0.74626 0.21804 0.0
O304 O 0.25923 0.74061 0.31002 0.0
O305 O 0.22794 0.76537 0.27458 0.0
O306 O 0.28155 0.76446 0.2142 0.0
O307 O 0.31208 0.7395 0.25024 0.0
H308 H 0.19427 0.72326 0.24621 0.0
H309 H 0.1596 0.67703 0.24621 0.0
H310 H 0.18967 0.65147 0.34834 0.0
H311 H 0.2237 0.69849 0.34877 0.0
H312 H 0.22888 0.89253 0.35226 0.0
H313 H 0.23996 0.85148 0.30948 0.0
H314 H 0.32464 0.89695 0.37941 0.0
H315 H 0.33577 0.85689 0.33605 0.0
H316 H 0.3933 0.80645 0.19367 0.0
H317 H 0.36966 0.72787 0.12677 0.0
H318 H 0.32405 0.71651 0.16087 0.0
H319 H 0.34716 0.79524 0.22746 0.0
C320 C 0.99658 0.47856 0.27585 0.0
C321 C 0.08116 0.55731 0.28698 0.0
O322 O 1.00796 0.48901 0.30373 0.0
Zn323 Zn 0.03952 0.51721 0.28372 0.0
O324 O 1.00807 0.48815 0.24744 0.0
Zn325 Zn 0.04295 0.51956 0.22881 0.0
O326 O 0.07079 0.49057 0.20601 0.0
O327 O 0.07127 0.48432 0.26207 0.0
O328 O 0.07422 0.54977 0.25615 0.0
O329 O 0.0666 0.54423 0.31165 0.0
O330 O 1.01257 0.55339 0.25921 0.0
O331 O 1.01875 0.55121 0.20328 0.0
C332 C 0.08138 0.47651 0.23259 0.0
C333 C 1.00639 0.56409 0.22912 0.0
C334 C 1.00458 0.49589 0.81109 0.0
C335 C 0.07758 0.58656 0.81736 0.0
O336 O 1.01709 0.50606 0.83853 0.0
Zn337 Zn 0.04133 0.54065 0.81699 0.0
O338 O 1.01182 0.5087 0.78231 0.0
Zn339 Zn 0.04004 0.5457 0.76143 0.0
O340 O 0.07 0.5208 0.73504 0.0
O341 O 0.07464 0.51414 0.79082 0.0
O342 O 0.06874 0.57937 0.78706 0.0
O343 O 0.06754 0.57035 0.8428 0.0
O344 O 1.00628 0.57097 0.79706 0.0
O345 O 1.00893 0.57391 0.74073 0.0
C346 C 0.08382 0.50812 0.76058 0.0
C347 C 0.99585 0.58173 0.76846 0.0
C348 C 0.30161 0.98784 0.56963 0.0
C349 C 0.30143 0.07891 0.48704 0.0
O350 O 0.27514 0.99602 0.55859 0.0
Zn351 Zn 0.25468 0.0291 0.52373 0.0
O352 O 0.3251 1.00254 0.55818 0.0
Zn353 Zn 0.30382 0.03303 0.52741 0.0
O354 O 0.27863 0.06218 0.56212 0.0
O355 O 0.22924 0.05409 0.55384 0.0
O356 O 0.32525 0.06633 0.50032 0.0
O357 O 0.27509 0.06686 0.49382 0.0
O358 O 0.23671 1.00095 0.48921 0.0
O359 O 0.28712 1.0029 0.48774 0.0
C360 C 0.25084 0.06841 0.56971 0.0
C361 C 0.26167 0.99259 0.47556 0.0
C362 C 0.58268 0.74099 0.08778 0.0
C363 C 0.51052 0.73007 0.991 0.0
O364 O 0.57389 0.71461 0.07448 0.0
Zn365 Zn 0.54555 0.73276 0.04033 0.0
O366 O 0.57177 0.7675 0.07628 0.0
Zn367 Zn 0.54122 0.78483 0.03814 0.0
O368 O 0.50825 0.80425 0.06474 0.0
O369 O 0.50966 0.75152 0.07025 0.0
O370 O 0.51616 0.75892 1.00046 0.0
O371 O 0.52214 0.7065 1.00753 0.0
O372 O 0.5759 0.75711 1.00629 0.0
O373 O 0.56901 0.8096 1.00838 0.0
C374 C 0.49726 0.77837 0.07755 0.0
C375 C 0.58272 0.78552 0.99581 0.0
C376 C 0.77119 0.98219 0.56195 0.0
C377 C 0.77726 0.07145 0.47912 0.0
O378 O 0.74855 0.99406 0.54564 0.0
Zn379 Zn 0.77216 0.02609 0.51967 0.0
O380 O 0.79814 0.99321 0.55648 0.0
Zn381 Zn 0.82135 0.02818 0.52628 0.0
O382 O 0.83891 0.05623 0.56156 0.0
O383 O 0.7885 0.05688 0.55966 0.0
O384 O 0.80297 0.06253 0.49166 0.0
O385 O 0.75293 0.05664 0.48793 0.0
O386 O 0.797 0.99591 0.48615 0.0
O387 O 0.84627 1.00093 0.49687 0.0
C388 C 0.8137 0.06639 0.57329 0.0
C389 C 0.8246 0.98799 0.47982 0.0
C390 C 0.57313 0.2736 0.04631 0.0
C391 C 0.49517 0.27342 0.95459 0.0
O392 O 0.56154 0.24867 0.03245 0.0
Zn393 Zn 0.53544 0.27147 0.99926 0.0
O394 O 0.56571 0.30149 0.03505 0.0
Zn395 Zn 0.53689 0.32327 0.9975 0.0
O396 O 0.51058 0.34785 0.02764 0.0
O397 O 0.50426 0.29514 0.03234 0.0
O398 O 0.50439 0.30159 0.96324 0.0
O399 O 0.50744 0.2489 0.9686 0.0
O400 O 0.56851 0.29129 0.96535 0.0
O401 O 0.56662 0.34411 0.96714 0.0
C402 C 0.49708 0.32367 0.04119 0.0
C403 C 0.57852 0.31876 0.95523 0.0
C404 C 0.14125 0.41578 0.26087 0.0
C405 C 0.15824 0.41059 0.23108 0.0
C406 C 0.11595 0.43624 0.26065 0.0
C407 C 0.1065 0.45259 0.23063 0.0
H408 H 0.14773 0.40413 0.28473 0.0
H409 H 0.10406 0.43966 0.28454 0.0
S410 S 0.14309 0.44689 0.14549 0.0
N411 N 0.16373 0.42318 0.17052 0.0
N412 N 0.11599 0.46143 0.16997 0.0
C413 C 0.12284 0.44697 0.20038 0.0
C414 C 0.1487 0.42606 0.20063 0.0
C415 C 0.15019 0.62948 0.8461 0.0
C416 C 0.15355 0.65392 0.82108 0.0
C417 C 0.1245 0.60889 0.84628 0.0
C418 C 0.10136 0.61193 0.82133 0.0
H419 H 0.16819 0.62523 0.86474 0.0
H420 H 0.12362 0.58943 0.8649 0.0
S421 S 0.09673 0.67522 0.75384 0.0
N422 N 0.12955 0.68242 0.77354 0.0
N423 N 0.08176 0.64351 0.7734 0.0
C424 C 0.10358 0.63745 0.79751 0.0
C425 C 0.12954 0.65847 0.79747 0.0
C426 C 0.95844 0.63558 0.25341 0.0
C427 C 0.93774 0.63878 0.22591 0.0
C428 C 0.98123 0.61217 0.25337 0.0
C429 C 0.98455 0.59106 0.22572 0.0
H430 H 0.95664 0.65091 0.27555 0.0
H431 H 0.99605 0.61023 0.27562 0.0
S432 S 0.93701 0.58998 0.14681 0.0
N433 N 0.92249 0.61921 0.16977 0.0
N434 N 0.96593 0.57558 0.16947 0.0
C435 C 0.96493 0.59481 0.19734 0.0
C436 C 0.94141 0.61857 0.19749 0.0
C437 C 0.96417 0.41622 0.83021 0.0
C438 C 0.94232 0.41477 0.80359 0.0
C439 C 0.98349 0.44329 0.83392 0.0
C440 C 0.98147 0.4696 0.81107 0.0
H441 H 0.96717 0.3958 0.84731 0.0
H442 H 1.00097 0.44297 0.85369 0.0
S443 S 0.92449 0.4795 0.74089 0.0
N444 N 0.91739 0.44332 0.75683 0.0
N445 N 0.9533 0.49396 0.76367 0.0
C446 C 0.95835 0.46909 0.78581 0.0
C447 C 0.93889 0.44172 0.78209 0.0
C448 C 0.32604 0.13751 0.41625 0.0
C449 C 0.30116 0.15882 0.41449 0.0
C450 C 0.32694 0.11233 0.44075 0.0
C451 C 0.30294 0.10768 0.46417 0.0
H452 H 0.34431 0.13958 0.3978 0.0
H453 H 0.34583 0.09567 0.44042 0.0
S454 S 0.23531 0.16016 0.47366 0.0
N455 N 0.25399 0.17584 0.44089 0.0
N456 N 0.25548 0.12883 0.48643 0.0
C457 C 0.27891 0.13 0.46377 0.0
C458 C 0.27807 0.15546 0.43908 0.0
C459 C 0.47422 0.74938 0.9056 0.0
C460 C 0.44961 0.72752 0.90343 0.0
C461 C 0.49462 0.74862 0.93326 0.0
C462 C 0.49154 0.72583 0.95988 0.0
H463 H 0.47695 0.76832 0.8866 0.0
H464 H 0.5125 0.7668 0.93434 0.0
S465 S 0.43289 0.66124 0.965 0.0
N466 N 0.4246 0.68081 0.92913 0.0
N467 N 0.46331 0.67943 0.98136 0.0
C468 C 0.46813 0.70267 0.95729 0.0
C469 C 0.447 0.70361 0.9291 0.0
C470 C 0.80916 0.92935 0.40747 0.0
C471 C 0.83616 0.91137 0.40565 0.0
C472 C 0.80618 0.95449 0.43082 0.0
C473 C 0.83008 0.96295 0.45351 0.0
H474 H 0.79002 0.92392 0.39069 0.0
H475 H 0.78468 0.96721 0.43123 0.0
S476 S 0.90563 0.92329 0.45939 0.0
N477 N 0.88737 0.90367 0.4288 0.0
N478 N 0.8819 0.95126 0.4724 0.0
C479 C 0.85749 0.94561 0.45157 0.0
C480 C 0.8605 0.91979 0.42777 0.0
C481 C 0.64939 0.34967 0.9087 0.0
C482 C 0.66042 0.32192 0.8926 0.0
C483 C 0.62223 0.34889 0.92773 0.0
C484 C 0.60517 0.32025 0.93169 0.0
H485 H 0.66207 0.3721 0.90692 0.0
H486 H 0.61513 0.37068 0.94028 0.0
S487 S 0.62375 0.24115 0.89366 0.0
N488 N 0.65183 0.26521 0.88134 0.0
N489 N 0.6008 0.26368 0.91642 0.0
C490 C 0.61555 0.29256 0.91483 0.0
C491 C 0.64312 0.29341 0.89547 0.0
C492 C 0.27711 0.92797 0.6384 0.0
C493 C 0.30344 0.90968 0.64492 0.0
C494 C 0.27715 0.9532 0.61442 0.0
C495 C 0.3036 0.96164 0.59589 0.0
H496 H 0.25598 0.92232 0.65151 0.0
H497 H 0.25604 0.96617 0.61036 0.0
S498 S 0.37901 0.92199 0.60416 0.0
N499 N 0.35703 0.90213 0.63146 0.0
N500 N 0.35719 0.94984 0.58632 0.0
C501 C 0.33034 0.94392 0.6025 0.0
C502 C 0.3302 0.91785 0.62687 0.0
C503 C 0.63288 0.77518 0.15838 0.0
C504 C 0.6536 0.75039 0.16584 0.0
C505 C 0.60971 0.77131 0.13389 0.0
C506 C 0.60601 0.74242 0.11568 0.0
H507 H 0.63509 0.79824 0.17088 0.0
H508 H 0.59481 0.79154 0.12887 0.0
S509 S 0.65306 0.66918 0.12721 0.0
N510 N 0.66808 0.69521 0.15436 0.0
N511 N 0.62445 0.68794 0.108 0.0
C512 C 0.626 0.71699 0.12356 0.0
C513 C 0.64984 0.72101 0.14857 0.0
C514 C 0.83377 0.13577 0.63307 0.0
C515 C 0.80722 0.1383 0.65304 0.0
C516 C 0.83641 0.11172 0.60807 0.0
C517 C 0.81256 0.08944 0.60216 0.0
H518 H 0.85217 0.15312 0.63599 0.0
H519 H 0.85676 0.11133 0.59247 0.0
S520 S 0.74043 0.08277 0.65137 0.0
N521 N 0.75828 0.11419 0.66785 0.0
N522 N 0.76298 0.0695 0.62103 0.0
C523 C 0.78662 0.09083 0.62322 0.0
C524 C 0.78402 0.1151 0.64858 0.0
C525 C 0.42804 0.30503 0.09534 0.0
C526 C 0.43351 0.32297 0.12511 0.0
C527 C 0.44799 0.30685 0.06752 0.0
C528 C 0.47382 0.32718 0.06806 0.0
H529 H 0.40903 0.2882 0.09418 0.0
H530 H 0.44369 0.29141 0.04579 0.0
S531 S 0.49724 0.38092 0.1388 0.0
N532 N 0.46583 0.36298 0.15281 0.0
N533 N 0.5031 0.36678 0.10004 0.0
C534 C 0.47877 0.34651 0.09687 0.0
C535 C 0.4587 0.34424 0.12556 0.0
C536 C 0.92363 0.6202 0.80137 0.0
C537 C 0.91537 0.64227 0.7755 0.0
C538 C 0.94926 0.60062 0.79826 0.0
C539 C 0.96793 0.60195 0.76904 0.0
H540 H 0.91016 0.61805 0.82444 0.0
H541 H 0.95449 0.58427 0.81923 0.0
S542 S 0.95615 0.65521 0.69344 0.0
N543 N 0.92779 0.66414 0.71927 0.0
N544 N 0.97592 0.62677 0.71321 0.0
C545 C 0.95958 0.62326 0.74243 0.0
C546 C 0.93335 0.6435 0.7457 0.0
C547 C 0.93227 0.42658 0.24004 0.0
C548 C 0.91456 0.41857 0.26877 0.0
C549 C 0.95899 0.4451 0.24302 0.0
C550 C 0.96934 0.45669 0.27491 0.0
H551 H 0.92535 0.41853 0.21483 0.0
H552 H 0.97138 0.45071 0.21979 0.0
S553 S 0.93148 0.4419 0.3584 0.0
N554 N 0.9094 0.42308 0.33042 0.0
N555 N 0.9598 0.45799 0.33616 0.0
C556 C 0.95221 0.44826 0.3041 0.0
C557 C 0.92485 0.42919 0.30101 0.0
C558 C 0.15487 0.46156 0.78535 0.0
C559 C 0.16218 0.44445 0.75574 0.0
C560 C 0.12992 0.48228 0.78603 0.0
C561 C 0.111 0.4871 0.75709 0.0
H562 H 0.16816 0.45835 0.80862 0.0
H563 H 0.12538 0.4945 0.8098 0.0
S564 S 0.12104 0.44912 0.67245 0.0
N565 N 0.14915 0.43439 0.69617 0.0
N566 N 0.10196 0.4736 0.69744 0.0
C567 C 0.11835 0.47071 0.72694 0.0
C568 C 0.14387 0.44925 0.72632 0.0
C569 C 0.14817 0.61306 0.2683 0.0
C570 C 0.14987 0.63288 0.2972 0.0
C571 C 0.12655 0.58816 0.26599 0.0
C572 C 0.10566 0.58177 0.29252 0.0
H573 H 0.16352 0.61704 0.24702 0.0
H574 H 0.12601 0.57403 0.24283 0.0
S575 S 0.10072 0.62628 0.37407 0.0
N576 N 0.12891 0.64425 0.35326 0.0
N577 N 0.08851 0.59697 0.34908 0.0
C578 C 0.10765 0.60071 0.3221 0.0
C579 C 0.12967 0.62633 0.32439 0.0
C580 C 0.79275 0.92227 0.63085 0.0
C581 C 0.77006 0.8984 0.62821 0.0
C582 C 0.79169 0.95005 0.61059 0.0
C583 C 0.76797 0.95511 0.58662 0.0
H584 H 0.81198 0.91904 0.64816 0.0
H585 H 0.81028 0.96728 0.61305 0.0
S586 S 0.70167 0.90073 0.5718 0.0
N587 N 0.72208 0.88217 0.60167 0.0
N588 N 0.72008 0.93466 0.56303 0.0
C589 C 0.74417 0.9322 0.58499 0.0
C590 C 0.74524 0.90374 0.60591 0.0
C591 C 0.63757 0.245 0.10505 0.0
C592 C 0.63996 0.27004 0.12902 0.0
C593 C 0.61524 0.24556 0.07892 0.0
C594 C 0.59492 0.27147 0.07554 0.0
H595 H 0.65299 0.22478 0.10662 0.0
H596 H 0.61441 0.22603 0.06079 0.0
S597 S 0.59136 0.34261 0.13219 0.0
N598 N 0.61984 0.32111 0.14789 0.0
N599 N 0.57805 0.32226 0.09915 0.0
C600 C 0.59692 0.29642 0.09963 0.0
C601 C 0.61938 0.29569 0.12626 0.0
C602 C 0.26564 0.1348 0.63381 0.0
C603 C 0.23631 0.14621 0.64116 0.0
C604 C 0.26981 0.10913 0.61151 0.0
C605 C 0.24483 0.09366 0.59547 0.0
H606 H 0.28571 0.14649 0.6445 0.0
H607 H 0.29303 0.10193 0.60629 0.0
S608 S 0.163 0.11257 0.6086 0.0
N609 N 0.18164 0.13878 0.63262 0.0
N610 N 0.18942 0.09059 0.59026 0.0
C611 C 0.21523 0.10412 0.60348 0.0
C612 C 0.211 0.13039 0.62633 0.0
C613 C 0.43259 0.74561 0.13245 0.0
C614 C 0.41427 0.77252 0.13848 0.0
C615 C 0.45955 0.74821 0.11358 0.0
C616 C 0.46956 0.77786 0.09963 0.0
H617 H 0.426 0.72215 0.14238 0.0
H618 H 0.47242 0.72643 0.1096 0.0
S619 S 0.43004 0.85599 0.10867 0.0
N620 N 0.40813 0.83006 0.12961 0.0
N621 N 0.459 0.83507 0.094 0.0
C622 C 0.45177 0.80523 0.10606 0.0
C623 C 0.42416 0.80254 0.12552 0.0
C624 C 0.80501 0.14538 0.431 0.0
C625 C 0.78103 0.15239 0.40813 0.0
C626 C 0.80309 0.11953 0.45395 0.0
C627 C 0.77702 0.09946 0.45526 0.0
H628 H 0.82558 0.16007 0.43123 0.0
H629 H 0.82242 0.11531 0.47083 0.0
S630 S 0.70756 0.10769 0.40096 0.0
N631 N 0.73015 0.13741 0.38816 0.0
N632 N 0.72633 0.08872 0.43186 0.0
C633 C 0.75247 0.10652 0.43303 0.0
C634 C 0.75451 0.133 0.40938 0.0
C635 C 0.42901 0.29644 0.89563 0.0
C636 C 0.41877 0.26687 0.88249 0.0
C637 C 0.45377 0.29814 0.91854 0.0
C638 C 0.46951 0.27033 0.92942 0.0
H639 H 0.41746 0.31851 0.88859 0.0
H640 H 0.46034 0.32159 0.92807 0.0
S641 S 0.45297 0.18702 0.90083 0.0
N642 N 0.42722 0.20917 0.88069 0.0
N643 N 0.47352 0.21226 0.92411 0.0
C644 C 0.45976 0.24056 0.91613 0.0
C645 C 0.43448 0.23886 0.89266 0.0
C646 C 0.2467 0.92095 0.41806 0.0
C647 C 0.2699 0.92442 0.39343 0.0
C648 C 0.2429 0.94398 0.4438 0.0
C649 C 0.26232 0.97102 0.44577 0.0
H650 H 0.23222 0.8997 0.41825 0.0
H651 H 0.22568 0.93982 0.46314 0.0
S652 S 0.32299 0.99396 0.38418 0.0
N653 N 0.30975 0.95917 0.37016 0.0
N654 N 0.30312 1.00185 0.4188 0.0
C655 C 0.28437 0.97562 0.42019 0.0
C656 C 0.28804 0.95248 0.39396 0.0
C657 C 0.64679 0.81894 0.9396 0.0
C658 C 0.65161 0.79365 0.91649 0.0
C659 C 0.62409 0.8167 0.96492 0.0
C660 C 0.6055 0.78906 0.96799 0.0
H661 H 0.66095 0.8404 0.93838 0.0
H662 H 0.62152 0.83639 0.98258 0.0
S663 S 0.60618 0.71816 0.91078 0.0
N664 N 0.63392 0.7416 0.89635 0.0
N665 N 0.59169 0.73717 0.94369 0.0
C666 C 0.6095 0.76414 0.94427 0.0
C667 C 0.63244 0.76646 0.91862 0.0
loop_
_geom_bond_atom_site_label_1
_geom_bond_atom_site_label_2
_geom_bond_distance
_geom_bond_site_symmetry_2
_ccdc_geom_bond_type
C0 C1 1.264 . S
C0 C5 1.479 . S
C0 C10 1.465 . S
C1 C0 1.264 . S
C1 C3 1.339 . S
C1 H28 0.931 . S
C2 C3 1.395 . S
C2 C4 1.320 . S
C3 C1 1.339 . S
C3 C2 1.395 . S
C3 H29 0.929 . S
C4 C2 1.320 . S
C4 C5 1.405 . S
C4 H30 0.930 . S
C5 C0 1.479 . S
C5 C4 1.405 . S
C5 H31 0.931 . S
U6 O7 2.454 . S
U6 O8 2.458 . S
U6 C9 2.984 . S
U6 C10 2.847 . S
U6 C23 2.882 . S
U6 O24 2.441 . S
U6 O25 2.420 . S
U6 O26 2.455 . S
U6 O27 2.449 . S
O7 U6 2.454 . S
O7 C9 1.353 . S
O8 U6 2.458 . S
O8 C9 1.286 . S
C9 U6 2.984 . S
C9 O7 1.353 . S
C9 O8 1.286 . S
C9 C11 1.363 . S
C10 C0 1.465 . S
C10 U6 2.847 . S
C10 O24 1.249 . S
C10 O25 1.202 . S
C11 C9 1.363 . S
C11 C13 1.408 . S
C11 C16 1.342 . S
C12 C13 1.310 . S
C12 C15 1.461 . S
C12 H32 0.932 . S
C13 C11 1.408 . S
C13 C12 1.310 . S
C13 H33 0.930 . S
C14 C15 1.474 . S
C14 C16 1.285 . S
C14 H34 0.929 . S
C15 C12 1.461 . S
C15 C14 1.474 . S
C16 C11 1.342 . S
C16 C14 1.285 . S
C16 H35 0.930 . S
C17 C20 1.424 . S
C17 C22 1.245 . S
C17 C23 1.428 . S
C18 C21 1.260 . S
C18 C22 1.477 . S
C18 H36 0.932 . S
C19 C20 1.384 . S
C19 C21 1.479 . S
C19 H37 0.929 . S
C20 C17 1.424 . S
C20 C19 1.384 . S
C20 H38 0.928 . S
C21 C18 1.260 . S
C21 C19 1.479 . S
C22 C17 1.245 . S
C22 C18 1.477 . S
C22 H39 0.932 . S
C23 U6 2.882 . S
C23 C17 1.428 . S
C23 O26 1.301 . S
C23 O27 1.282 . S
O24 U6 2.441 . S
O24 C10 1.249 . S
O25 U6 2.420 . S
O25 C10 1.202 . S
O26 U6 2.455 . S
O26 C23 1.301 . S
O27 U6 2.449 . S
O27 C23 1.282 . S
H28 C1 0.931 . S
H29 C3 0.929 . S
H30 C4 0.930 . S
H31 C5 0.931 . S
H32 C12 0.932 . S
H33 C13 0.930 . S
H34 C14 0.929 . S
H35 C16 0.930 . S
H36 C18 0.932 . S
H37 C19 0.929 . S
H38 C20 0.928 . S
H39 C22 0.932 . S
C40 C41 1.264 . S
C40 C45 1.479 . S
C40 C50 1.465 . S
C41 C40 1.264 . S
C41 C43 1.339 . S
C41 H68 0.931 . S
C42 C43 1.395 . S
C42 C44 1.320 . S
C43 C41 1.339 . S
C43 C42 1.395 . S
C43 H69 0.929 . S
C44 C42 1.320 . S
C44 C45 1.405 . S
C44 H70 0.930 . S
C45 C40 1.479 . S
C45 C44 1.405 . S
C45 H71 0.931 . S
U46 O47 2.454 . S
U46 O48 2.458 . S
U46 C49 2.984 . S
U46 C50 2.847 . S
U46 C63 2.882 . S
U46 O64 2.441 . S
U46 O65 2.420 . S
U46 O66 2.455 . S
U46 O67 2.449 . S
O47 U46 2.454 . S
O47 C49 1.353 . S
O48 U46 2.458 . S
O48 C49 1.286 . S
C49 U46 2.984 . S
C49 O47 1.353 . S
C49 O48 1.286 . S
C49 C51 1.363 . S
C50 C40 1.465 . S
C50 U46 2.847 . S
C50 O64 1.249 . S
C50 O65 1.202 . S
C51 C49 1.363 . S
C51 C53 1.408 . S
C51 C56 1.342 . S
C52 C53 1.310 . S
C52 C55 1.461 . S
C52 H72 0.932 . S
C53 C51 1.408 . S
C53 C52 1.310 . S
C53 H73 0.930 . S
C54 C55 1.474 . S
C54 C56 1.285 . S
C54 H74 0.929 . S
C55 C52 1.461 . S
C55 C54 1.474 . S
C56 C51 1.342 . S
C56 C54 1.285 . S
C56 H75 0.930 . S
C57 C60 1.424 . S
C57 C62 1.245 . S
C57 C63 1.428 . S
C58 C61 1.260 . S
C58 C62 1.477 . S
C58 H76 0.932 . S
C59 C60 1.384 . S
C59 C61 1.479 . S
C59 H77 0.929 . S
C60 C57 1.424 . S
C60 C59 1.384 . S
C60 H78 0.928 . S
C61 C58 1.260 . S
C61 C59 1.479 . S
C62 C57 1.245 . S
C62 C58 1.477 . S
C62 H79 0.932 . S
C63 U46 2.882 . S
C63 C57 1.428 . S
C63 O66 1.301 . S
C63 O67 1.282 . S
O64 U46 2.441 . S
O64 C50 1.249 . S
O65 U46 2.420 . S
O65 C50 1.202 . S
O66 U46 2.455 . S
O66 C63 1.301 . S
O67 U46 2.449 . S
O67 C63 1.282 . S
H68 C41 0.931 . S
H69 C43 0.929 . S
H70 C44 0.930 . S
H71 C45 0.931 . S
H72 C52 0.932 . S
H73 C53 0.930 . S
H74 C54 0.929 . S
H75 C56 0.930 . S
H76 C58 0.932 . S
H77 C59 0.929 . S
H78 C60 0.928 . S
H79 C62 0.932 . S
C80 C81 1.264 . S
C80 C85 1.479 . S
C80 C90 1.465 . S
C81 C80 1.264 . S
C81 C83 1.339 . S
C81 H108 0.931 . S
C82 C83 1.395 . S
C82 C84 1.320 . S
C83 C81 1.339 . S
C83 C82 1.395 . S
C83 H109 0.929 . S
C84 C82 1.320 . S
C84 C85 1.405 . S
C84 H110 0.930 . S
C85 C80 1.479 . S
C85 C84 1.405 . S
C85 H111 0.931 . S
U86 O87 2.454 . S
U86 O88 2.458 . S
U86 C89 2.984 . S
U86 C90 2.847 . S
U86 C103 2.882 . S
U86 O104 2.441 . S
U86 O105 2.420 . S
U86 O106 2.455 . S
U86 O107 2.449 . S
O87 U86 2.454 . S
O87 C89 1.353 . S
O88 U86 2.458 . S
O88 C89 1.286 . S
C89 U86 2.984 . S
C89 O87 1.353 . S
C89 O88 1.286 . S
C89 C91 1.363 . S
C90 C80 1.465 . S
C90 U86 2.847 . S
C90 O104 1.249 . S
C90 O105 1.202 . S
C91 C89 1.363 . S
C91 C93 1.408 . S
C91 C96 1.342 . S
C92 C93 1.310 . S
C92 C95 1.461 . S
C92 H112 0.932 . S
C93 C91 1.408 . S
C93 C92 1.310 . S
C93 H113 0.930 . S
C94 C95 1.474 . S
C94 C96 1.285 . S
C94 H114 0.929 . S
C95 C92 1.461 . S
C95 C94 1.474 . S
C96 C91 1.342 . S
C96 C94 1.285 . S
C96 H115 0.930 . S
C97 C100 1.424 . S
C97 C102 1.245 . S
C97 C103 1.428 . S
C98 C101 1.260 . S
C98 C102 1.477 . S
C98 H116 0.932 . S
C99 C100 1.384 . S
C99 C101 1.479 . S
C99 H117 0.929 . S
C100 C97 1.424 . S
C100 C99 1.384 . S
C100 H118 0.928 . S
C101 C98 1.260 . S
C101 C99 1.479 . S
C102 C97 1.245 . S
C102 C98 1.477 . S
C102 H119 0.932 . S
C103 U86 2.882 . S
C103 C97 1.428 . S
C103 O106 1.301 . S
C103 O107 1.282 . S
O104 U86 2.441 . S
O104 C90 1.249 . S
O105 U86 2.420 . S
O105 C90 1.202 . S
O106 U86 2.455 . S
O106 C103 1.301 . S
O107 U86 2.449 . S
O107 C103 1.282 . S
H108 C81 0.931 . S
H109 C83 0.929 . S
H110 C84 0.930 . S
H111 C85 0.931 . S
H112 C92 0.932 . S
H113 C93 0.930 . S
H114 C94 0.929 . S
H115 C96 0.930 . S
H116 C98 0.932 . S
H117 C99 0.929 . S
H118 C100 0.928 . S
H119 C102 0.932 . S
C120 C121 1.264 . S
C120 C125 1.479 . S
C120 C130 1.465 . S
C121 C120 1.264 . S
C121 C123 1.339 . S
C121 H148 0.931 . S
C122 C123 1.395 . S
C122 C124 1.320 . S
C123 C121 1.339 . S
C123 C122 1.395 . S
C123 H149 0.929 . S
C124 C122 1.320 . S
C124 C125 1.405 . S
C124 H150 0.930 . S
C125 C120 1.479 . S
C125 C124 1.405 . S
C125 H151 0.931 . S
U126 O127 2.454 . S
U126 O128 2.458 . S
U126 C129 2.984 . S
U126 C130 2.847 . S
U126 C143 2.882 . S
U126 O144 2.441 . S
U126 O145 2.420 . S
U126 O146 2.455 . S
U126 O147 2.449 . S
O127 U126 2.454 . S
O127 C129 1.353 . S
O128 U126 2.458 . S
O128 C129 1.286 . S
C129 U126 2.984 . S
C129 O127 1.353 . S
C129 O128 1.286 . S
C129 C131 1.363 . S
C130 C120 1.465 . S
C130 U126 2.847 . S
C130 O144 1.249 . S
C130 O145 1.202 . S
C131 C129 1.363 . S
C131 C133 1.408 . S
C131 C136 1.342 . S
C132 C133 1.310 . S
C132 C135 1.461 . S
C132 H152 0.932 . S
C133 C131 1.408 . S
C133 C132 1.310 . S
C133 H153 0.930 . S
C134 C135 1.474 . S
C134 C136 1.285 . S
C134 H154 0.929 . S
C135 C132 1.461 . S
C135 C134 1.474 . S
C136 C131 1.342 . S
C136 C134 1.285 . S
C136 H155 0.930 . S
C137 C140 1.424 . S
C137 C142 1.245 . S
C137 C143 1.428 . S
C138 C141 1.260 . S
C138 C142 1.477 . S
C138 H156 0.932 . S
C139 C140 1.384 . S
C139 C141 1.479 . S
C139 H157 0.929 . S
C140 C137 1.424 . S
C140 C139 1.384 . S
C140 H158 0.928 . S
C141 C138 1.260 . S
C141 C139 1.479 . S
C142 C137 1.245 . S
C142 C138 1.477 . S
C142 H159 0.932 . S
C143 U126 2.882 . S
C143 C137 1.428 . S
C143 O146 1.301 . S
C143 O147 1.282 . S
O144 U126 2.441 . S
O144 C130 1.249 . S
O145 U126 2.420 . S
O145 C130 1.202 . S
O146 U126 2.455 . S
O146 C143 1.301 . S
O147 U126 2.449 . S
O147 C143 1.282 . S
H148 C121 0.931 . S
H149 C123 0.929 . S
H150 C124 0.930 . S
H151 C125 0.931 . S
H152 C132 0.932 . S
H153 C133 0.930 . S
H154 C134 0.929 . S
H155 C136 0.930 . S
H156 C138 0.932 . S
H157 C139 0.929 . S
H158 C140 0.928 . S
H159 C142 0.932 . S
C160 C161 1.264 . S
C160 C165 1.479 . S
C160 C170 1.465 . S
C161 C160 1.264 . S
C161 C163 1.339 . S
C161 H188 0.931 . S
C162 C163 1.395 . S
C162 C164 1.320 . S
C163 C161 1.339 . S
C163 C162 1.395 . S
C163 H189 0.929 . S
C164 C162 1.320 . S
C164 C165 1.405 . S
C164 H190 0.930 . S
C165 C160 1.479 . S
C165 C164 1.405 . S
C165 H191 0.931 . S
U166 O167 2.454 . S
U166 O168 2.458 . S
U166 C169 2.984 . S
U166 C170 2.847 . S
U166 C183 2.882 . S
U166 O184 2.441 . S
U166 O185 2.420 . S
U166 O186 2.455 . S
U166 O187 2.449 . S
O167 U166 2.454 . S
O167 C169 1.353 . S
O168 U166 2.458 . S
O168 C169 1.286 . S
C169 U166 2.984 . S
C169 O167 1.353 . S
C169 O168 1.286 . S
C169 C171 1.363 . S
C170 C160 1.465 . S
C170 U166 2.847 . S
C170 O184 1.249 . S
C170 O185 1.202 . S
C171 C169 1.363 . S
C171 C173 1.408 . S
C171 C176 1.342 . S
C172 C173 1.310 . S
C172 C175 1.461 . S
C172 H192 0.932 . S
C173 C171 1.408 . S
C173 C172 1.310 . S
C173 H193 0.930 . S
C174 C175 1.474 . S
C174 C176 1.285 . S
C174 H194 0.929 . S
C175 C172 1.461 . S
C175 C174 1.474 . S
C176 C171 1.342 . S
C176 C174 1.285 . S
C176 H195 0.930 . S
C177 C180 1.424 . S
C177 C182 1.245 . S
C177 C183 1.428 . S
C178 C181 1.260 . S
C178 C182 1.477 . S
C178 H196 0.932 . S
C179 C180 1.384 . S
C179 C181 1.479 . S
C179 H197 0.929 . S
C180 C177 1.424 . S
C180 C179 1.384 . S
C180 H198 0.928 . S
C181 C178 1.260 . S
C181 C179 1.479 . S
C182 C177 1.245 . S
C182 C178 1.477 . S
C182 H199 0.932 . S
C183 U166 2.882 . S
C183 C177 1.428 . S
C183 O186 1.301 . S
C183 O187 1.282 . S
O184 U166 2.441 . S
O184 C170 1.249 . S
O185 U166 2.420 . S
O185 C170 1.202 . S
O186 U166 2.455 . S
O186 C183 1.301 . S
O187 U166 2.449 . S
O187 C183 1.282 . S
H188 C161 0.931 . S
H189 C163 0.929 . S
H190 C164 0.930 . S
H191 C165 0.931 . S
H192 C172 0.932 . S
H193 C173 0.930 . S
H194 C174 0.929 . S
H195 C176 0.930 . S
H196 C178 0.932 . S
H197 C179 0.929 . S
H198 C180 0.928 . S
H199 C182 0.932 . S
C200 C201 1.264 . S
C200 C205 1.479 . S
C200 C210 1.465 . S
C201 C200 1.264 . S
C201 C203 1.339 . S
C201 H228 0.931 . S
C202 C203 1.395 . S
C202 C204 1.320 . S
C203 C201 1.339 . S
C203 C202 1.395 . S
C203 H229 0.929 . S
C204 C202 1.320 . S
C204 C205 1.405 . S
C204 H230 0.930 . S
C205 C200 1.479 . S
C205 C204 1.405 . S
C205 H231 0.931 . S
U206 O207 2.454 . S
U206 O208 2.458 . S
U206 C209 2.984 . S
U206 C210 2.847 . S
U206 C223 2.882 . S
U206 O224 2.441 . S
U206 O225 2.420 . S
U206 O226 2.455 . S
U206 O227 2.449 . S
O207 U206 2.454 . S
O207 C209 1.353 . S
O208 U206 2.458 . S
O208 C209 1.286 . S
C209 U206 2.984 . S
C209 O207 1.353 . S
C209 O208 1.286 . S
C209 C211 1.363 . S
C210 C200 1.465 . S
C210 U206 2.847 . S
C210 O224 1.249 . S
C210 O225 1.202 . S
C211 C209 1.363 . S
C211 C213 1.408 . S
C211 C216 1.342 . S
C212 C213 1.310 . S
C212 C215 1.461 . S
C212 H232 0.932 . S
C213 C211 1.408 . S
C213 C212 1.310 . S
C213 H233 0.930 . S
C214 C215 1.474 . S
C214 C216 1.285 . S
C214 H234 0.929 . S
C215 C212 1.461 . S
C215 C214 1.474 . S
C216 C211 1.342 . S
C216 C214 1.285 . S
C216 H235 0.930 . S
C217 C220 1.424 . S
C217 C222 1.245 . S
C217 C223 1.428 . S
C218 C221 1.260 . S
C218 C222 1.477 . S
C218 H236 0.932 . S
C219 C220 1.384 . S
C219 C221 1.479 . S
C219 H237 0.929 . S
C220 C217 1.424 . S
C220 C219 1.384 . S
C220 H238 0.928 . S
C221 C218 1.260 . S
C221 C219 1.479 . S
C222 C217 1.245 . S
C222 C218 1.477 . S
C222 H239 0.932 . S
C223 U206 2.882 . S
C223 C217 1.428 . S
C223 O226 1.301 . S
C223 O227 1.282 . S
O224 U206 2.441 . S
O224 C210 1.249 . S
O225 U206 2.420 . S
O225 C210 1.202 . S
O226 U206 2.455 . S
O226 C223 1.301 . S
O227 U206 2.449 . S
O227 C223 1.282 . S
H228 C201 0.931 . S
H229 C203 0.929 . S
H230 C204 0.930 . S
H231 C205 0.931 . S
H232 C212 0.932 . S
H233 C213 0.930 . S
H234 C214 0.929 . S
H235 C216 0.930 . S
H236 C218 0.932 . S
H237 C219 0.929 . S
H238 C220 0.928 . S
H239 C222 0.932 . S
C240 C241 1.264 . S
C240 C245 1.479 . S
C240 C250 1.465 . S
C241 C240 1.264 . S
C241 C243 1.339 . S
C241 H268 0.931 . S
C242 C243 1.395 . S
C242 C244 1.320 . S
C243 C241 1.339 . S
C243 C242 1.395 . S
C243 H269 0.929 . S
C244 C242 1.320 . S
C244 C245 1.405 . S
C244 H270 0.930 . S
C245 C240 1.479 . S
C245 C244 1.405 . S
C245 H271 0.931 . S
U246 O247 2.454 . S
U246 O248 2.458 . S
U246 C249 2.984 . S
U246 C250 2.847 . S
U246 C263 2.882 . S
U246 O264 2.441 . S
U246 O265 2.420 . S
U246 O266 2.455 . S
U246 O267 2.449 . S
O247 U246 2.454 . S
O247 C249 1.353 . S
O248 U246 2.458 . S
O248 C249 1.286 . S
C249 U246 2.984 . S
C249 O247 1.353 . S
C249 O248 1.286 . S
C249 C251 1.363 . S
C250 C240 1.465 . S
C250 U246 2.847 . S
C250 O264 1.249 . S
C250 O265 1.202 . S
C251 C249 1.363 . S
C251 C253 1.408 . S
C251 C256 1.342 . S
C252 C253 1.310 . S
C252 C255 1.461 . S
C252 H272 0.932 . S
C253 C251 1.408 . S
C253 C252 1.310 . S
C253 H273 0.930 . S
C254 C255 1.474 . S
C254 C256 1.285 . S
C254 H274 0.929 . S
C255 C252 1.461 . S
C255 C254 1.474 . S
C256 C251 1.342 . S
C256 C254 1.285 . S
C256 H275 0.930 . S
C257 C260 1.424 . S
C257 C262 1.245 . S
C257 C263 1.428 . S
C258 C261 1.260 . S
C258 C262 1.477 . S
C258 H276 0.932 . S
C259 C260 1.384 . S
C259 C261 1.479 . S
C259 H277 0.929 . S
C260 C257 1.424 . S
C260 C259 1.384 . S
C260 H278 0.928 . S
C261 C258 1.260 . S
C261 C259 1.479 . S
C262 C257 1.245 . S
C262 C258 1.477 . S
C262 H279 0.932 . S
C263 U246 2.882 . S
C263 C257 1.428 . S
C263 O266 1.301 . S
C263 O267 1.282 . S
O264 U246 2.441 . S
O264 C250 1.249 . S
O265 U246 2.420 . S
O265 C250 1.202 . S
O266 U246 2.455 . S
O266 C263 1.301 . S
O267 U246 2.449 . S
O267 C263 1.282 . S
H268 C241 0.931 . S
H269 C243 0.929 . S
H270 C244 0.930 . S
H271 C245 0.931 . S
H272 C252 0.932 . S
H273 C253 0.930 . S
H274 C254 0.929 . S
H275 C256 0.930 . S
H276 C258 0.932 . S
H277 C259 0.929 . S
H278 C260 0.928 . S
H279 C262 0.932 . S
C280 C281 1.264 . S
C280 C285 1.479 . S
C280 C290 1.465 . S
C281 C280 1.264 . S
C281 C283 1.339 . S
C281 H308 0.931 . S
C282 C283 1.395 . S
C282 C284 1.320 . S
C283 C281 1.339 . S
C283 C282 1.395 . S
C283 H309 0.929 . S
C284 C282 1.320 . S
C284 C285 1.405 . S
C284 H310 0.930 . S
C285 C280 1.479 . S
C285 C284 1.405 . S
C285 H311 0.931 . S
U286 O287 2.454 . S
U286 O288 2.458 . S
U286 C289 2.984 . S
U286 C290 2.847 . S
U286 C303 2.882 . S
U286 O304 2.441 . S
U286 O305 2.420 . S
U286 O306 2.455 . S
U286 O307 2.449 . S
O287 U286 2.454 . S
O287 C289 1.353 . S
O288 U286 2.458 . S
O288 C289 1.286 . S
C289 U286 2.984 . S
C289 O287 1.353 . S
C289 O288 1.286 . S
C289 C291 1.363 . S
C290 C280 1.465 . S
C290 U286 2.847 . S
C290 O304 1.249 . S
C290 O305 1.202 . S
C291 C289 1.363 . S
C291 C293 1.408 . S
C291 C296 1.342 . S
C292 C293 1.310 . S
C292 C295 1.461 . S
C292 H312 0.932 . S
C293 C291 1.408 . S
C293 C292 1.310 . S
C293 H313 0.930 . S
C294 C295 1.474 . S
C294 C296 1.285 . S
C294 H314 0.929 . S
C295 C292 1.461 . S
C295 C294 1.474 . S
C296 C291 1.342 . S
C296 C294 1.285 . S
C296 H315 0.930 . S
C297 C300 1.424 . S
C297 C302 1.245 . S
C297 C303 1.428 . S
C298 C301 1.260 . S
C298 C302 1.477 . S
C298 H316 0.932 . S
C299 C300 1.384 . S
C299 C301 1.479 . S
C299 H317 0.929 . S
C300 C297 1.424 . S
C300 C299 1.384 . S
C300 H318 0.928 . S
C301 C298 1.260 . S
C301 C299 1.479 . S
C302 C297 1.245 . S
C302 C298 1.477 . S
C302 H319 0.932 . S
C303 U286 2.882 . S
C303 C297 1.428 . S
C303 O306 1.301 . S
C303 O307 1.282 . S
O304 U286 2.441 . S
O304 C290 1.249 . S
O305 U286 2.420 . S
O305 C290 1.202 . S
O306 U286 2.455 . S
O306 C303 1.301 . S
O307 U286 2.449 . S
O307 C303 1.282 . S
H308 C281 0.931 . S
H309 C283 0.929 . S
H310 C284 0.930 . S
H311 C285 0.931 . S
H312 C292 0.932 . S
H313 C293 0.930 . S
H314 C294 0.929 . S
H315 C296 0.930 . S
H316 C298 0.932 . S
H317 C299 0.929 . S
H318 C300 0.928 . S
H319 C302 0.932 . S
C320 O322 1.247 . S
C320 O324 1.258 . S
C321 O328 1.247 . S
C321 O329 1.258 . S
O322 C320 1.247 . S
O322 Zn323 2.028 1_655 S
Zn323 O322 2.028 1_455 S
Zn323 O327 2.035 . S
Zn323 O329 2.035 . S
Zn323 O330 2.028 1_455 S
O324 C320 1.258 . S
O324 Zn325 2.035 1_655 S
Zn325 O324 2.035 1_455 S
Zn325 O326 2.028 . S
Zn325 O328 2.028 . S
Zn325 O331 2.035 1_455 S
O326 Zn325 2.028 . S
O326 C332 1.247 . S
O327 Zn323 2.035 . S
O327 C332 1.258 . S
O328 C321 1.247 . S
O328 Zn325 2.028 . S
O329 C321 1.258 . S
O329 Zn323 2.035 . S
O330 Zn323 2.028 1_655 S
O330 C333 1.247 . S
O331 Zn325 2.035 1_655 S
O331 C333 1.258 . S
C332 O326 1.247 . S
C332 O327 1.258 . S
C333 O330 1.247 . S
C333 O331 1.258 . S
C334 O336 1.247 . S
C334 O338 1.258 . S
C335 O342 1.247 . S
C335 O343 1.258 . S
O336 C334 1.247 . S
O336 Zn337 2.028 1_655 S
Zn337 O336 2.028 1_455 S
Zn337 O341 2.035 . S
Zn337 O343 2.035 . S
Zn337 O344 2.028 1_455 S
O338 C334 1.258 . S
O338 Zn339 2.035 1_655 S
Zn339 O338 2.035 1_455 S
Zn339 O340 2.028 . S
Zn339 O342 2.028 . S
Zn339 O345 2.035 1_455 S
O340 Zn339 2.028 . S
O340 C346 1.247 . S
O341 Zn337 2.035 . S
O341 C346 1.258 . S
O342 C335 1.247 . S
O342 Zn339 2.028 . S
O343 C335 1.258 . S
O343 Zn337 2.035 . S
O344 Zn337 2.028 1_655 S
O344 C347 1.247 . S
O345 Zn339 2.035 1_655 S
O345 C347 1.258 . S
C346 O340 1.247 . S
C346 O341 1.258 . S
C347 O344 1.247 . S
C347 O345 1.258 . S
C348 O350 1.247 . S
C348 O352 1.258 . S
C349 O356 1.247 . S
C349 O357 1.258 . S
O350 C348 1.247 . S
O350 Zn351 2.028 1_565 S
Zn351 O350 2.028 1_545 S
Zn351 O355 2.035 . S
Zn351 O357 2.035 . S
Zn351 O358 2.028 1_545 S
O352 C348 1.258 . S
O352 Zn353 2.035 1_565 S
Zn353 O352 2.035 1_545 S
Zn353 O354 2.028 . S
Zn353 O356 2.028 . S
Zn353 O359 2.035 1_545 S
O354 Zn353 2.028 . S
O354 C360 1.247 . S
O355 Zn351 2.035 . S
O355 C360 1.258 . S
O356 C349 1.247 . S
O356 Zn353 2.028 . S
O357 C349 1.258 . S
O357 Zn351 2.035 . S
O358 Zn351 2.028 1_565 S
O358 C361 1.247 . S
O359 Zn353 2.035 1_565 S
O359 C361 1.258 . S
C360 O354 1.247 . S
C360 O355 1.258 . S
C361 O358 1.247 . S
C361 O359 1.258 . S
C362 O364 1.247 . S
C362 O366 1.258 . S
C363 O370 1.247 . S
C363 O371 1.258 . S
O364 C362 1.247 . S
O364 Zn365 2.028 . S
Zn365 O364 2.028 . S
Zn365 O369 2.035 . S
Zn365 O371 2.035 1_554 S
Zn365 O372 2.028 1_554 S
O366 C362 1.258 . S
O366 Zn367 2.035 . S
Zn367 O366 2.035 . S
Zn367 O368 2.028 . S
Zn367 O370 2.028 1_554 S
Zn367 O373 2.035 1_554 S
O368 Zn367 2.028 . S
O368 C374 1.247 . S
O369 Zn365 2.035 . S
O369 C374 1.258 . S
O370 C363 1.247 . S
O370 Zn367 2.028 1_556 S
O371 C363 1.258 . S
O371 Zn365 2.035 1_556 S
O372 Zn365 2.028 1_556 S
O372 C375 1.247 . S
O373 Zn367 2.035 1_556 S
O373 C375 1.258 . S
C374 O368 1.247 . S
C374 O369 1.258 . S
C375 O372 1.247 . S
C375 O373 1.258 . S
C376 O378 1.247 . S
C376 O380 1.258 . S
C377 O384 1.247 . S
C377 O385 1.258 . S
O378 C376 1.247 . S
O378 Zn379 2.017 1_565 S
Zn379 O378 2.017 1_545 S
Zn379 O383 2.047 . S
Zn379 O385 2.047 . S
Zn379 O386 2.017 1_545 S
O380 C376 1.258 . S
O380 Zn381 2.035 1_565 S
Zn381 O380 2.035 1_545 S
Zn381 O382 2.028 . S
Zn381 O384 2.028 . S
Zn381 O387 2.035 1_545 S
O382 Zn381 2.028 . S
O382 C388 1.247 . S
O383 Zn379 2.047 . S
O383 C388 1.258 . S
O384 C377 1.247 . S
O384 Zn381 2.028 . S
O385 C377 1.258 . S
O385 Zn379 2.047 . S
O386 Zn379 2.017 1_565 S
O386 C389 1.247 . S
O387 Zn381 2.035 1_565 S
O387 C389 1.258 . S
C388 O382 1.247 . S
C388 O383 1.258 . S
C389 O386 1.247 . S
C389 O387 1.258 . S
C390 O392 1.247 . S
C390 O394 1.258 . S
C391 O398 1.247 . S
C391 O399 1.258 . S
O392 C390 1.247 . S
O392 Zn393 2.028 . S
Zn393 O392 2.028 . S
Zn393 O397 2.035 . S
Zn393 O399 2.035 1_554 S
Zn393 O400 2.028 1_554 S
O394 C390 1.258 . S
O394 Zn395 2.055 . S
Zn395 O394 2.055 . S
Zn395 O396 2.048 . S
Zn395 O398 2.008 1_554 S
Zn395 O401 2.015 1_554 S
O396 Zn395 2.048 . S
O396 C402 1.247 . S
O397 Zn393 2.035 . S
O397 C402 1.258 . S
O398 C391 1.247 . S
O398 Zn395 2.008 1_556 S
O399 C391 1.258 . S
O399 Zn393 2.035 1_556 S
O400 Zn393 2.028 1_556 S
O400 C403 1.247 . S
O401 Zn395 2.015 1_556 S
O401 C403 1.258 . S
C402 O396 1.247 . S
C402 O397 1.258 . S
C403 O400 1.247 . S
C403 O401 1.258 . S
C404 C405 1.369 . S
C404 C406 1.419 . S
C404 H408 0.930 . S
C405 C404 1.369 . S
C405 C414 1.429 . S
C406 C404 1.419 . S
C406 C407 1.363 . S
C406 H409 0.929 . S
C407 C406 1.363 . S
C407 C413 1.428 . S
H408 C404 0.930 . S
H409 C406 0.929 . S
S410 N411 1.613 . S
S410 N412 1.610 . S
N411 S410 1.613 . S
N411 C414 1.350 . S
N412 S410 1.610 . S
N412 C413 1.351 . S
C413 C407 1.428 . S
C413 N412 1.351 . S
C413 C414 1.434 . S
C414 C405 1.429 . S
C414 N411 1.350 . S
C414 C413 1.434 . S
C415 C416 1.369 . S
C415 C417 1.419 . S
C415 H419 0.930 . S
C416 C415 1.369 . S
C416 C425 1.429 . S
C417 C415 1.419 . S
C417 C418 1.363 . S
C417 H420 0.929 . S
C418 C417 1.363 . S
C418 C424 1.428 . S
H419 C415 0.930 . S
H420 C417 0.929 . S
S421 N422 1.613 . S
S421 N423 1.610 . S
N422 S421 1.613 . S
N422 C425 1.350 . S
N423 S421 1.610 . S
N423 C424 1.351 . S
C424 C418 1.428 . S
C424 N423 1.351 . S
C424 C425 1.434 . S
C425 C416 1.429 . S
C425 N422 1.350 . S
C425 C424 1.434 . S
C426 C427 1.369 . S
C426 C428 1.419 . S
C426 H430 0.930 . S
C427 C426 1.369 . S
C427 C436 1.429 . S
C428 C426 1.419 . S
C428 C429 1.363 . S
C428 H431 0.929 . S
C429 C428 1.363 . S
C429 C435 1.428 . S
H430 C426 0.930 . S
H431 C428 0.929 . S
S432 N433 1.613 . S
S432 N434 1.610 . S
N433 S432 1.613 . S
N433 C436 1.350 . S
N434 S432 1.610 . S
N434 C435 1.351 . S
C435 C429 1.428 . S
C435 N434 1.351 . S
C435 C436 1.434 . S
C436 C427 1.429 . S
C436 N433 1.350 . S
C436 C435 1.434 . S
C437 C438 1.369 . S
C437 C439 1.419 . S
C437 H441 0.930 . S
C438 C437 1.369 . S
C438 C447 1.429 . S
C439 C437 1.419 . S
C439 C440 1.363 . S
C439 H442 0.929 . S
C440 C439 1.363 . S
C440 C446 1.428 . S
H441 C437 0.930 . S
H442 C439 0.929 . S
S443 N444 1.613 . S
S443 N445 1.610 . S
N444 S443 1.613 . S
N444 C447 1.350 . S
N445 S443 1.610 . S
N445 C446 1.351 . S
C446 C440 1.428 . S
C446 N445 1.351 . S
C446 C447 1.434 . S
C447 C438 1.429 . S
C447 N444 1.350 . S
C447 C446 1.434 . S
C448 C449 1.369 . S
C448 C450 1.419 . S
C448 H452 0.930 . S
C449 C448 1.369 . S
C449 C458 1.429 . S
C450 C448 1.419 . S
C450 C451 1.363 . S
C450 H453 0.929 . S
C451 C450 1.363 . S
C451 C457 1.428 . S
H452 C448 0.930 . S
H453 C450 0.929 . S
S454 N455 1.613 . S
S454 N456 1.610 . S
N455 S454 1.613 . S
N455 C458 1.350 . S
N456 S454 1.610 . S
N456 C457 1.351 . S
C457 C451 1.428 . S
C457 N456 1.351 . S
C457 C458 1.434 . S
C458 C449 1.429 . S
C458 N455 1.350 . S
C458 C457 1.434 . S
C459 C460 1.369 . S
C459 C461 1.419 . S
C459 H463 0.930 . S
C460 C459 1.369 . S
C460 C469 1.429 . S
C461 C459 1.419 . S
C461 C462 1.363 . S
C461 H464 0.929 . S
C462 C461 1.363 . S
C462 C468 1.428 . S
H463 C459 0.930 . S
H464 C461 0.929 . S
S465 N466 1.613 . S
S465 N467 1.610 . S
N466 S465 1.613 . S
N466 C469 1.350 . S
N467 S465 1.610 . S
N467 C468 1.351 . S
C468 C462 1.428 . S
C468 N467 1.351 . S
C468 C469 1.434 . S
C469 C460 1.429 . S
C469 N466 1.350 . S
C469 C468 1.434 . S
C470 C471 1.369 . S
C470 C472 1.419 . S
C470 H474 0.930 . S
C471 C470 1.369 . S
C471 C480 1.429 . S
C472 C470 1.419 . S
C472 C473 1.363 . S
C472 H475 0.929 . S
C473 C472 1.363 . S
C473 C479 1.428 . S
H474 C470 0.930 . S
H475 C472 0.929 . S
S476 N477 1.613 . S
S476 N478 1.610 . S
N477 S476 1.613 . S
N477 C480 1.350 . S
N478 S476 1.610 . S
N478 C479 1.351 . S
C479 C473 1.428 . S
C479 N478 1.351 . S
C479 C480 1.434 . S
C480 C471 1.429 . S
C480 N477 1.350 . S
C480 C479 1.434 . S
C481 C482 1.369 . S
C481 C483 1.419 . S
C481 H485 0.930 . S
C482 C481 1.369 . S
C482 C491 1.429 . S
C483 C481 1.419 . S
C483 C484 1.363 . S
C483 H486 0.929 . S
C484 C483 1.363 . S
C484 C490 1.428 . S
H485 C481 0.930 . S
H486 C483 0.929 . S
S487 N488 1.613 . S
S487 N489 1.610 . S
N488 S487 1.613 . S
N488 C491 1.350 . S
N489 S487 1.610 . S
N489 C490 1.351 . S
C490 C484 1.428 . S
C490 N489 1.351 . S
C490 C491 1.434 . S
C491 C482 1.429 . S
C491 N488 1.350 . S
C491 C490 1.434 . S
C492 C493 1.369 . S
C492 C494 1.419 . S
C492 H496 0.930 . S
C493 C492 1.369 . S
C493 C502 1.429 . S
C494 C492 1.419 . S
C494 C495 1.363 . S
C494 H497 0.929 . S
C495 C494 1.363 . S
C495 C501 1.428 . S
H496 C492 0.930 . S
H497 C494 0.929 . S
S498 N499 1.613 . S
S498 N500 1.610 . S
N499 S498 1.613 . S
N499 C502 1.350 . S
N500 S498 1.610 . S
N500 C501 1.351 . S
C501 C495 1.428 . S
C501 N500 1.351 . S
C501 C502 1.434 . S
C502 C493 1.429 . S
C502 N499 1.350 . S
C502 C501 1.434 . S
C503 C504 1.369 . S
C503 C505 1.419 . S
C503 H507 0.930 . S
C504 C503 1.369 . S
C504 C513 1.429 . S
C505 C503 1.419 . S
C505 C506 1.363 . S
C505 H508 0.929 . S
C506 C505 1.363 . S
C506 C512 1.428 . S
H507 C503 0.930 . S
H508 C505 0.929 . S
S509 N510 1.613 . S
S509 N511 1.610 . S
N510 S509 1.613 . S
N510 C513 1.350 . S
N511 S509 1.610 . S
N511 C512 1.351 . S
C512 C506 1.428 . S
C512 N511 1.351 . S
C512 C513 1.434 . S
C513 C504 1.429 . S
C513 N510 1.350 . S
C513 C512 1.434 . S
C514 C515 1.369 . S
C514 C516 1.419 . S
C514 H518 0.930 . S
C515 C514 1.369 . S
C515 C524 1.429 . S
C516 C514 1.419 . S
C516 C517 1.363 . S
C516 H519 0.929 . S
C517 C516 1.363 . S
C517 C523 1.428 . S
H518 C514 0.930 . S
H519 C516 0.929 . S
S520 N521 1.613 . S
S520 N522 1.610 . S
N521 S520 1.613 . S
N521 C524 1.350 . S
N522 S520 1.610 . S
N522 C523 1.351 . S
C523 C517 1.428 . S
C523 N522 1.351 . S
C523 C524 1.434 . S
C524 C515 1.429 . S
C524 N521 1.350 . S
C524 C523 1.434 . S
C525 C526 1.369 . S
C525 C527 1.419 . S
C525 H529 0.930 . S
C526 C525 1.369 . S
C526 C535 1.429 . S
C527 C525 1.419 . S
C527 C528 1.363 . S
C527 H530 0.929 . S
C528 C527 1.363 . S
C528 C534 1.428 . S
H529 C525 0.930 . S
H530 C527 0.929 . S
S531 N532 1.613 . S
S531 N533 1.610 . S
N532 S531 1.613 . S
N532 C535 1.350 . S
N533 S531 1.610 . S
N533 C534 1.351 . S
C534 C528 1.428 . S
C534 N533 1.351 . S
C534 C535 1.434 . S
C535 C526 1.429 . S
C535 N532 1.350 . S
C535 C534 1.434 . S
C536 C537 1.369 . S
C536 C538 1.419 . S
C536 H540 0.930 . S
C537 C536 1.369 . S
C537 C546 1.429 . S
C538 C536 1.419 . S
C538 C539 1.363 . S
C538 H541 0.929 . S
C539 C538 1.363 . S
C539 C545 1.428 . S
H540 C536 0.930 . S
H541 C538 0.929 . S
S542 N543 1.613 . S
S542 N544 1.610 . S
N543 S542 1.613 . S
N543 C546 1.350 . S
N544 S542 1.610 . S
N544 C545 1.351 . S
C545 C539 1.428 . S
C545 N544 1.351 . S
C545 C546 1.434 . S
C546 C537 1.429 . S
C546 N543 1.350 . S
C546 C545 1.434 . S
C547 C548 1.369 . S
C547 C549 1.419 . S
C547 H551 0.930 . S
C548 C547 1.369 . S
C548 C557 1.429 . S
C549 C547 1.419 . S
C549 C550 1.363 . S
C549 H552 0.929 . S
C550 C549 1.363 . S
C550 C556 1.428 . S
H551 C547 0.930 . S
H552 C549 0.929 . S
S553 N554 1.613 . S
S553 N555 1.610 . S
N554 S553 1.613 . S
N554 C557 1.350 . S
N555 S553 1.610 . S
N555 C556 1.351 . S
C556 C550 1.428 . S
C556 N555 1.351 . S
C556 C557 1.434 . S
C557 C548 1.429 . S
C557 N554 1.350 . S
C557 C556 1.434 . S
C558 C559 1.369 . S
C558 C560 1.419 . S
C558 H562 0.930 . S
C559 C558 1.369 . S
C559 C568 1.429 . S
C560 C558 1.419 . S
C560 C561 1.363 . S
C560 H563 0.929 . S
C561 C560 1.363 . S
C561 C567 1.428 . S
H562 C558 0.930 . S
H563 C560 0.929 . S
S564 N565 1.613 . S
S564 N566 1.610 . S
N565 S564 1.613 . S
N565 C568 1.350 . S
N566 S564 1.610 . S
N566 C567 1.351 . S
C567 C561 1.428 . S
C567 N566 1.351 . S
C567 C568 1.434 . S
C568 C559 1.429 . S
C568 N565 1.350 . S
C568 C567 1.434 . S
C569 C570 1.369 . S
C569 C571 1.419 . S
C569 H573 0.930 . S
C570 C569 1.369 . S
C570 C579 1.429 . S
C571 C569 1.419 . S
C571 C572 1.363 . S
C571 H574 0.929 . S
C572 C571 1.363 . S
C572 C578 1.428 . S
H573 C569 0.930 . S
H574 C571 0.929 . S
S575 N576 1.613 . S
S575 N577 1.610 . S
N576 S575 1.613 . S
N576 C579 1.350 . S
N577 S575 1.610 . S
N577 C578 1.351 . S
C578 C572 1.428 . S
C578 N577 1.351 . S
C578 C579 1.434 . S
C579 C570 1.429 . S
C579 N576 1.350 . S
C579 C578 1.434 . S
C580 C581 1.369 . S
C580 C582 1.419 . S
C580 H584 0.930 . S
C581 C580 1.369 . S
C581 C590 1.429 . S
C582 C580 1.419 . S
C582 C583 1.363 . S
C582 H585 0.929 . S
C583 C582 1.363 . S
C583 C589 1.428 . S
H584 C580 0.930 . S
H585 C582 0.929 . S
S586 N587 1.613 . S
S586 N588 1.610 . S
N587 S586 1.613 . S
N587 C590 1.350 . S
N588 S586 1.610 . S
N588 C589 1.351 . S
C589 C583 1.428 . S
C589 N588 1.351 . S
C589 C590 1.434 . S
C590 C581 1.429 . S
C590 N587 1.350 . S
C590 C589 1.434 . S
C591 C592 1.369 . S
C591 C593 1.419 . S
C591 H595 0.930 . S
C592 C591 1.369 . S
C592 C601 1.429 . S
C593 C591 1.419 . S
C593 C594 1.363 . S
C593 H596 0.929 . S
C594 C593 1.363 . S
C594 C600 1.428 . S
H595 C591 0.930 . S
H596 C593 0.929 . S
S597 N598 1.613 . S
S597 N599 1.610 . S
N598 S597 1.613 . S
N598 C601 1.350 . S
N599 S597 1.610 . S
N599 C600 1.351 . S
C600 C594 1.428 . S
C600 N599 1.351 . S
C600 C601 1.434 . S
C601 C592 1.429 . S
C601 N598 1.350 . S
C601 C600 1.434 . S
C602 C603 1.369 . S
C602 C604 1.419 . S
C602 H606 0.930 . S
C603 C602 1.369 . S
C603 C612 1.429 . S
C604 C602 1.419 . S
C604 C605 1.363 . S
C604 H607 0.929 . S
C605 C604 1.363 . S
C605 C611 1.428 . S
H606 C602 0.930 . S
H607 C604 0.929 . S
S608 N609 1.613 . S
S608 N610 1.610 . S
N609 S608 1.613 . S
N609 C612 1.350 . S
N610 S608 1.610 . S
N610 C611 1.351 . S
C611 C605 1.428 . S
C611 N610 1.351 . S
C611 C612 1.434 . S
C612 C603 1.429 . S
C612 N609 1.350 . S
C612 C611 1.434 . S
C613 C614 1.369 . S
C613 C615 1.419 . S
C613 H617 0.930 . S
C614 C613 1.369 . S
C614 C623 1.429 . S
C615 C613 1.419 . S
C615 C616 1.363 . S
C615 H618 0.929 . S
C616 C615 1.363 . S
C616 C622 1.428 . S
H617 C613 0.930 . S
H618 C615 0.929 . S
S619 N620 1.613 . S
S619 N621 1.610 . S
N620 S619 1.613 . S
N620 C623 1.350 . S
N621 S619 1.610 . S
N621 C622 1.351 . S
C622 C616 1.428 . S
C622 N621 1.351 . S
C622 C623 1.434 . S
C623 C614 1.429 . S
C623 N620 1.350 . S
C623 C622 1.434 . S
C624 C625 1.369 . S
C624 C626 1.419 . S
C624 H628 0.930 . S
C625 C624 1.369 . S
C625 C634 1.429 . S
C626 C624 1.419 . S
C626 C627 1.363 . S
C626 H629 0.929 . S
C627 C626 1.363 . S
C627 C633 1.428 . S
H628 C624 0.930 . S
H629 C626 0.929 . S
S630 N631 1.613 . S
S630 N632 1.610 . S
N631 S630 1.613 . S
N631 C634 1.350 . S
N632 S630 1.610 . S
N632 C633 1.351 . S
C633 C627 1.428 . S
C633 N632 1.351 . S
C633 C634 1.434 . S
C634 C625 1.429 . S
C634 N631 1.350 . S
C634 C633 1.434 . S
C635 C636 1.369 . S
C635 C637 1.419 . S
C635 H639 0.930 . S
C636 C635 1.369 . S
C636 C645 1.429 . S
C637 C635 1.419 . S
C637 C638 1.363 . S
C637 H640 0.929 . S
C638 C637 1.363 . S
C638 C644 1.428 . S
H639 C635 0.930 . S
H640 C637 0.929 . S
S641 N642 1.613 . S
S641 N643 1.610 . S
N642 S641 1.613 . S
N642 C645 1.350 . S
N643 S641 1.610 . S
N643 C644 1.351 . S
C644 C638 1.428 . S
C644 N643 1.351 . S
C644 C645 1.434 . S
C645 C636 1.429 . S
C645 N642 1.350 . S
C645 C644 1.434 . S
C646 C647 1.369 . S
C646 C648 1.419 . S
C646 H650 0.930 . S
C647 C646 1.369 . S
C647 C656 1.429 . S
C648 C646 1.419 . S
C648 C649 1.363 . S
C648 H651 0.929 . S
C649 C648 1.363 . S
C649 C655 1.428 . S
H650 C646 0.930 . S
H651 C648 0.929 . S
S652 N653 1.613 . S
S652 N654 1.610 . S
N653 S652 1.613 . S
N653 C656 1.350 . S
N654 S652 1.610 . S
N654 C655 1.351 . S
C655 C649 1.428 . S
C655 N654 1.351 . S
C655 C656 1.434 . S
C656 C647 1.429 . S
C656 N653 1.350 . S
C656 C655 1.434 . S
C657 C658 1.369 . S
C657 C659 1.419 . S
C657 H661 0.930 . S
C658 C657 1.369 . S
C658 C667 1.429 . S
C659 C657 1.419 . S
C659 C660 1.363 . S
C659 H662 0.929 . S
C660 C659 1.363 . S
C660 C666 1.428 . S
H661 C657 0.930 . S
H662 C659 0.929 . S
S663 N664 1.613 . S
S663 N665 1.610 . S
N664 S663 1.613 . S
N664 C667 1.350 . S
N665 S663 1.610 . S
N665 C666 1.351 . S
C666 C660 1.428 . S
C666 N665 1.351 . S
C666 C667 1.434 . S
C667 C658 1.429 . S
C667 N664 1.350 . S
C667 C666 1.434 . S
C407 C332 1.516 . S
C405 C15 1.516 . S
C418 C335 1.477 . S
C416 C55 1.478 . S
C429 C333 1.536 . S
C427 C101 1.516 . S
C440 C334 1.500 . S
C438 C141 1.493 . S
C451 C349 1.503 . S
C449 C2 1.489 . S
C462 C363 1.500 . S
C460 C61 1.491 . S
C471 C95 1.517 . S
C473 C389 1.517 . S
C484 C403 1.495 . S
C482 C135 1.501 . S
C495 C348 1.492 . S
C493 C42 1.480 . S
C504 C82 1.506 . S
C506 C362 1.518 . S
C517 C388 1.508 . S
C515 C122 1.505 . S
C528 C402 1.522 . S
C526 C21 1.515 . S
C537 C162 1.493 . S
C539 C347 1.498 . S
C550 C320 1.532 . S
C548 C221 1.533 . S
C559 C255 1.483 . S
C561 C346 1.481 . S
C570 C282 1.500 . S
C572 C321 1.516 . S
C583 C376 1.519 . S
C581 C181 1.517 . S
C594 C390 1.512 . S
C592 C202 1.508 . S
C605 C360 1.496 . S
C603 C242 1.488 . S
C614 C301 1.512 . S
C616 C374 1.521 . S
C627 C377 1.519 . S
C625 C215 1.520 . S
C638 C391 1.507 . S
C636 C261 1.501 . S
C649 C361 1.500 . S
C647 C295 1.501 . S
C658 C175 1.499 . S
C660 C375 1.494 . S
