# Generated by pormake.
# Topology ocu, (6,8)-cn, num edge types: 1
# Building blocks:
#     Node 0, Type 0, BuildingBlock: KUMBUR_clean_sbu_0, # of connection points: 6
#     Node 1, Type 0, BuildingBlock: KUMBUR_clean_sbu_0, # of connection points: 6
#     Node 2, Type 0, BuildingBlock: KUMBUR_clean_sbu_0, # of connection points: 6
#     Node 3, Type 0, BuildingBlock: KUMBUR_clean_sbu_0, # of connection points: 6
#     Node 4, Type 0, BuildingBlock: KUMBUR_clean_sbu_0, # of connection points: 6
#     Node 5, Type 0, BuildingBlock: KUMBUR_clean_sbu_0, # of connection points: 6
#     Node 6, Type 0, BuildingBlock: KUMBUR_clean_sbu_0, # of connection points: 6
#     Node 7, Type 0, BuildingBlock: KUMBUR_clean_sbu_0, # of connection points: 6
#     Node 8, Type 1, BuildingBlock: TAGTUT_clean_sbu_1, # of connection points: 8
#     Node 9, Type 1, BuildingBlock: TAGTUT_clean_sbu_1, # of connection points: 8
#     Node 10, Type 1, BuildingBlock: TAGTUT_clean_sbu_1, # of connection points: 8
#     Node 11, Type 1, BuildingBlock: TAGTUT_clean_sbu_1, # of connection points: 8
#     Node 12, Type 1, BuildingBlock: TAGTUT_clean_sbu_1, # of connection points: 8
#     Node 13, Type 1, BuildingBlock: TAGTUT_clean_sbu_1, # of connection points: 8
#     Edge 14, Type (0, 1), BuildingBlock: EZIPEK_clean_linker_0, # of connection points: 2
#     Edge 15, Type (0, 1), BuildingBlock: EZIPEK_clean_linker_0, # of connection points: 2
#     Edge 16, Type (0, 1), BuildingBlock: EZIPEK_clean_linker_0, # of connection points: 2
#     Edge 17, Type (0, 1), BuildingBlock: EZIPEK_clean_linker_0, # of connection points: 2
#     Edge 18, Type (0, 1), BuildingBlock: EZIPEK_clean_linker_0, # of connection points: 2
#     Edge 19, Type (0, 1), BuildingBlock: EZIPEK_clean_linker_0, # of connection points: 2
#     Edge 20, Type (0, 1), BuildingBlock: EZIPEK_clean_linker_0, # of connection points: 2
#     Edge 21, Type (0, 1), BuildingBlock: EZIPEK_clean_linker_0, # of connection points: 2
#     Edge 22, Type (0, 1), BuildingBlock: EZIPEK_clean_linker_0, # of connection points: 2
#     Edge 23, Type (0, 1), BuildingBlock: EZIPEK_clean_linker_0, # of connection points: 2
#     Edge 24, Type (0, 1), BuildingBlock: EZIPEK_clean_linker_0, # of connection points: 2
#     Edge 25, Type (0, 1), BuildingBlock: EZIPEK_clean_linker_0, # of connection points: 2
#     Edge 26, Type (0, 1), BuildingBlock: EZIPEK_clean_linker_0, # of connection points: 2
#     Edge 27, Type (0, 1), BuildingBlock: EZIPEK_clean_linker_0, # of connection points: 2
#     Edge 28, Type (0, 1), BuildingBlock: EZIPEK_clean_linker_0, # of connection points: 2
#     Edge 29, Type (0, 1), BuildingBlock: EZIPEK_clean_linker_0, # of connection points: 2
#     Edge 30, Type (0, 1), BuildingBlock: EZIPEK_clean_linker_0, # of connection points: 2
#     Edge 31, Type (0, 1), BuildingBlock: EZIPEK_clean_linker_0, # of connection points: 2
#     Edge 32, Type (0, 1), BuildingBlock: EZIPEK_clean_linker_0, # of connection points: 2
#     Edge 33, Type (0, 1), BuildingBlock: EZIPEK_clean_linker_0, # of connection points: 2
#     Edge 34, Type (0, 1), BuildingBlock: EZIPEK_clean_linker_0, # of connection points: 2
#     Edge 35, Type (0, 1), BuildingBlock: EZIPEK_clean_linker_0, # of connection points: 2
#     Edge 36, Type (0, 1), BuildingBlock: EZIPEK_clean_linker_0, # of connection points: 2
#     Edge 37, Type (0, 1), BuildingBlock: EZIPEK_clean_linker_0, # of connection points: 2
#     Edge 38, Type (0, 1), BuildingBlock: EZIPEK_clean_linker_0, # of connection points: 2
#     Edge 39, Type (0, 1), BuildingBlock: EZIPEK_clean_linker_0, # of connection points: 2
#     Edge 40, Type (0, 1), BuildingBlock: EZIPEK_clean_linker_0, # of connection points: 2
#     Edge 41, Type (0, 1), BuildingBlock: EZIPEK_clean_linker_0, # of connection points: 2
#     Edge 42, Type (0, 1), BuildingBlock: EZIPEK_clean_linker_0, # of connection points: 2
#     Edge 43, Type (0, 1), BuildingBlock: EZIPEK_clean_linker_0, # of connection points: 2
#     Edge 44, Type (0, 1), BuildingBlock: EZIPEK_clean_linker_0, # of connection points: 2
#     Edge 45, Type (0, 1), BuildingBlock: EZIPEK_clean_linker_0, # of connection points: 2
#     Edge 46, Type (0, 1), BuildingBlock: EZIPEK_clean_linker_0, # of connection points: 2
#     Edge 47, Type (0, 1), BuildingBlock: EZIPEK_clean_linker_0, # of connection points: 2
#     Edge 48, Type (0, 1), BuildingBlock: EZIPEK_clean_linker_0, # of connection points: 2
#     Edge 49, Type (0, 1), BuildingBlock: EZIPEK_clean_linker_0, # of connection points: 2
#     Edge 50, Type (0, 1), BuildingBlock: EZIPEK_clean_linker_0, # of connection points: 2
#     Edge 51, Type (0, 1), BuildingBlock: EZIPEK_clean_linker_0, # of connection points: 2
#     Edge 52, Type (0, 1), BuildingBlock: EZIPEK_clean_linker_0, # of connection points: 2
#     Edge 53, Type (0, 1), BuildingBlock: EZIPEK_clean_linker_0, # of connection points: 2
#     Edge 54, Type (0, 1), BuildingBlock: EZIPEK_clean_linker_0, # of connection points: 2
#     Edge 55, Type (0, 1), BuildingBlock: EZIPEK_clean_linker_0, # of connection points: 2
#     Edge 56, Type (0, 1), BuildingBlock: EZIPEK_clean_linker_0, # of connection points: 2
#     Edge 57, Type (0, 1), BuildingBlock: EZIPEK_clean_linker_0, # of connection points: 2
#     Edge 58, Type (0, 1), BuildingBlock: EZIPEK_clean_linker_0, # of connection points: 2
#     Edge 59, Type (0, 1), BuildingBlock: EZIPEK_clean_linker_0, # of connection points: 2
#     Edge 60, Type (0, 1), BuildingBlock: EZIPEK_clean_linker_0, # of connection points: 2
#     Edge 61, Type (0, 1), BuildingBlock: EZIPEK_clean_linker_0, # of connection points: 2
# Relax obj value: 0.121
# Max RMSD: 0.263
# Mean RMSD: 0.152
data_MOF--net-ocu--node1-KUMBUR_clean_sbu_0--node2-TAGTUT_clean_sbu_1--edge1-EZIPEK_clean_linker_0
_symmetry_space_group_name_H-M    P1
_symmetry_Int_Tables_number       1
_symmetry_cell_setting            triclinic
loop_
_symmetry_equiv_pos_as_xyz
'x, y, z'
_cell_length_a     31.705168
_cell_length_b     30.007749
_cell_length_c     33.234786
_cell_angle_alpha  77.806538
_cell_angle_beta   103.44719
_cell_angle_gamma 121.40379
loop_
_atom_site_label
_atom_site_type_symbol
_atom_site_fract_x
_atom_site_fract_y
_atom_site_fract_z
_atom_type_partial_charge
Tb0 Tb 0.24259 0.20475 0.22623 0.0
C1 C 0.4008 0.33729 0.34233 0.0
C2 C 0.39061 0.27604 0.40444 0.0
C3 C 0.47337 0.34775 0.39347 0.0
C4 C 0.37039 0.29299 0.36589 0.0
C5 C 0.45236 0.36674 0.35693 0.0
C6 C 0.44245 0.3023 0.41723 0.0
C7 C 0.45673 0.43621 0.3032 0.0
N8 N 0.37887 0.35504 0.3079 0.0
C9 C 0.40588 0.40532 0.28972 0.0
C10 C 0.48043 0.41634 0.33635 0.0
Tb11 Tb 0.2936 0.30318 0.28987 0.0
N12 N 0.32046 0.26922 0.35279 0.0
C13 C 0.28842 0.23071 0.37876 0.0
C14 C 0.358 0.23513 0.43005 0.0
C15 C 0.30663 0.21296 0.41748 0.0
H16 H 0.38783 0.42231 0.26543 0.0
H17 H 0.28092 0.18209 0.43753 0.0
H18 H 0.45869 0.28928 0.44639 0.0
H19 H 0.47706 0.47589 0.28867 0.0
H20 H 0.2486 0.21276 0.37003 0.0
H21 H 0.1688 0.26709 0.07536 0.0
H22 H 0.37223 0.2221 0.46023 0.0
H23 H 0.19813 0.09016 0.28625 0.0
H24 H 0.22888 0.27982 0.13852 0.0
H25 H 0.12287 0.00198 0.28255 0.0
H26 H 0.513 0.36939 0.40473 0.0
H27 H 0.09037 0.182 0.0677 0.0
H28 H 0.03663 0.08971 0.0972 0.0
H29 H 0.51952 0.44089 0.34761 0.0
H30 H 0.02479 0.01764 0.15294 0.0
N31 N 0.1861 0.20238 0.16835 0.0
C32 C 0.19531 0.24222 0.13656 0.0
C33 C 0.11684 0.18732 0.09603 0.0
C34 C 0.10765 0.14645 0.12824 0.0
C35 C 0.16093 0.23529 0.1002 0.0
C36 C 0.14346 0.15513 0.16445 0.0
H37 H 0.0573 0.98435 0.22149 0.0
N38 N 0.17206 0.12374 0.23024 0.0
C39 C 0.12651 0.03317 0.25799 0.0
C40 C 0.13634 0.11458 0.19618 0.0
C41 C 0.16855 0.08322 0.26032 0.0
C42 C 0.08917 0.02353 0.22363 0.0
C43 C 0.09374 0.06431 0.19217 0.0
O44 O 0.26049 0.14591 0.23027 0.0
O45 O 0.28636 0.22703 0.28892 0.0
O46 O 0.34476 0.32749 0.24361 0.0
O47 O 0.29011 0.27736 0.19105 0.0
O48 O 0.31387 0.20602 0.25314 0.0
O49 O 0.25838 0.1943 0.17157 0.0
O50 O 0.31193 0.37783 0.30249 0.0
O51 O 0.23404 0.27067 0.23692 0.0
O52 O 0.18576 0.17607 0.26736 0.0
O53 O 0.21891 0.24626 0.30577 0.0
O54 O 0.27677 0.34867 0.23419 0.0
O55 O 0.25401 0.30767 0.32979 0.0
C56 C 0.32239 0.21854 0.28957 0.0
C57 C 0.25303 0.11186 0.1694 0.0
C58 C 0.28022 0.0719 0.13214 0.0
C59 C 0.28802 0.11609 0.14751 0.0
C60 C 0.23657 0.02356 0.13776 0.0
C61 C 0.20937 0.06333 0.17461 0.0
C62 C 0.20108 0.01953 0.15861 0.0
C63 C 0.33331 0.31655 0.20458 0.0
C64 C 0.26702 0.15646 0.19128 0.0
C65 C 0.05771 0.05594 0.15652 0.0
C66 C 0.06451 0.09696 0.12475 0.0
C67 C 0.23638 0.31329 0.21536 0.0
C68 C 0.29312 0.3809 0.36664 0.0
C69 C 0.25481 0.37787 0.38302 0.0
C70 C 0.26542 0.40203 0.41846 0.0
C71 C 0.31483 0.42781 0.43869 0.0
C72 C 0.34249 0.40646 0.3869 0.0
C73 C 0.35316 0.42965 0.42304 0.0
C74 C 0.18269 0.19959 0.29528 0.0
C75 C 0.27931 0.35828 0.32762 0.0
H76 H 0.32215 0.15324 0.14362 0.0
H77 H 0.22992 0.98921 0.12575 0.0
H78 H 0.1823 0.05865 0.19181 0.0
H79 H 0.16741 0.98224 0.16288 0.0
H80 H 0.21662 0.35809 0.36738 0.0
H81 H 0.32359 0.44636 0.46644 0.0
H82 H 0.37255 0.4088 0.37475 0.0
H83 H 0.39121 0.44949 0.4387 0.0
Tb84 Tb 0.7926 0.23703 0.23064 0.0
C85 C 0.73536 0.34487 0.32693 0.0
C86 C 0.6556 0.28225 0.34983 0.0
C87 C 0.71325 0.35925 0.38643 0.0
C88 C 0.69036 0.29882 0.32258 0.0
C89 C 0.74755 0.37566 0.35895 0.0
C90 C 0.66737 0.31254 0.38193 0.0
C91 C 0.82687 0.43574 0.33473 0.0
N92 N 0.7677 0.35868 0.30012 0.0
C93 C 0.81276 0.40442 0.30302 0.0
C94 C 0.79406 0.42154 0.36268 0.0
Tb95 Tb 0.73785 0.30734 0.24644 0.0
N96 N 0.68049 0.27064 0.29126 0.0
C97 C 0.63444 0.22784 0.28326 0.0
C98 C 0.60967 0.23641 0.34338 0.0
C99 C 0.59861 0.20968 0.30942 0.0
H100 H 0.83857 0.41614 0.28168 0.0
H101 H 0.56248 0.17514 0.3033 0.0
H102 H 0.6411 0.30043 0.40317 0.0
H103 H 0.86313 0.4708 0.33756 0.0
H104 H 0.62494 0.20746 0.25666 0.0
H105 H 0.98368 0.38864 0.28872 0.0
H106 H 0.58231 0.22199 0.36396 0.0
H107 H 0.74899 0.19488 0.13735 0.0
H108 H 0.89423 0.34341 0.28303 0.0
H109 H 0.78128 0.19908 0.07574 0.0
H110 H 0.72189 0.38228 0.41129 0.0
H111 H 0.02364 0.3816 0.23687 0.0
H112 H 1.01373 0.35163 0.16921 0.0
H113 H 0.80508 0.446 0.38714 0.0
H114 H 0.95854 0.30425 0.10931 0.0
N115 N 0.87942 0.29669 0.23502 0.0
C116 C 0.90917 0.33293 0.26321 0.0
C117 C 0.98347 0.35806 0.23586 0.0
C118 C 0.95328 0.32782 0.20328 0.0
C119 C 0.96112 0.3617 0.26535 0.0
C120 C 0.90093 0.29784 0.20341 0.0
H121 H 0.87218 0.24883 0.07377 0.0
N122 N 0.82008 0.24687 0.16919 0.0
C123 C 0.80676 0.22064 0.1015 0.0
C124 C 0.87014 0.27284 0.16907 0.0
C125 C 0.78848 0.21967 0.13624 0.0
C126 C 0.85802 0.24831 0.10067 0.0
C127 C 0.89045 0.27462 0.13472 0.0
O128 O 0.73693 0.15983 0.2163 0.0
O129 O 0.73263 0.22991 0.25836 0.0
O130 O 0.78576 0.30345 0.30417 0.0
O131 O 0.82756 0.26178 0.29427 0.0
O132 O 0.76387 0.18433 0.28699 0.0
O133 O 0.8154 0.18625 0.22373 0.0
O134 O 0.73323 0.37635 0.22506 0.0
O135 O 0.78592 0.30488 0.21091 0.0
O136 O 0.74385 0.25015 0.17693 0.0
O137 O 0.6836 0.24341 0.20744 0.0
O138 O 0.80257 0.37648 0.21728 0.0
O139 O 0.67328 0.30145 0.20737 0.0
C140 C 0.72947 0.1943 0.28949 0.0
C141 C 0.76389 0.09792 0.24554 0.0
C142 C 0.80151 0.05871 0.30201 0.0
C143 C 0.8057 0.09956 0.27177 0.0
C144 C 0.75548 0.01226 0.30415 0.0
C145 C 0.71739 0.05167 0.24704 0.0
C146 C 0.71348 0.00856 0.27598 0.0
C147 C 0.81818 0.28648 0.31748 0.0
C148 C 0.77034 0.14613 0.21894 0.0
C149 C 0.94236 0.30246 0.13537 0.0
C150 C 0.97374 0.32905 0.16959 0.0
C151 C 0.81812 0.35216 0.20284 0.0
C152 C 0.65014 0.35468 0.22731 0.0
C153 C 0.59954 0.32471 0.21236 0.0
C154 C 0.5622 0.32119 0.23114 0.0
C155 C 0.57705 0.3461 0.2674 0.0
C156 C 0.6642 0.38315 0.26118 0.0
C157 C 0.62774 0.37759 0.28179 0.0
C158 C 0.69659 0.23415 0.17661 0.0
C159 C 0.6862 0.34955 0.21021 0.0
H160 H 0.84215 0.13468 0.27119 0.0
H161 H 0.75184 0.98023 0.32805 0.0
H162 H 0.68439 0.04926 0.22659 0.0
H163 H 0.67763 0.97307 0.27751 0.0
H164 H 0.58985 0.30524 0.18497 0.0
H165 H 0.5499 0.34316 0.2838 0.0
H166 H 0.70316 0.408 0.27275 0.0
H167 H 0.63881 0.39804 0.30888 0.0
Tb168 Tb 0.71722 0.70999 0.28244 0.0
C169 C 0.88138 0.90431 0.19703 0.0
C170 C 0.83889 0.91832 0.12932 0.0
C171 C 0.91549 0.99136 0.15855 0.0
C172 C 0.84165 0.88518 0.16562 0.0
C173 C 0.91925 0.95744 0.19367 0.0
C174 C 0.87539 0.97177 0.12633 0.0
C175 C 0.96362 0.93864 0.25837 0.0
N176 N 0.88402 0.87012 0.23007 0.0
C177 C 0.92513 0.88629 0.26025 0.0
C178 C 0.96037 0.97452 0.22515 0.0
Tb179 Tb 0.82065 0.7845 0.22882 0.0
N180 N 0.80777 0.83319 0.16928 0.0
C181 C 0.77233 0.81113 0.13619 0.0
C182 C 0.80091 0.89622 0.09637 0.0
C183 C 0.7678 0.8423 0.0996 0.0
H184 H 0.92815 0.85916 0.28623 0.0
H185 H 0.73919 0.8246 0.07374 0.0
H186 H 0.87367 0.99791 0.09878 0.0
H187 H 0.99561 0.9513 0.28262 0.0
H188 H 0.74742 0.76935 0.13761 0.0
H189 H 0.79544 0.66095 0.43619 0.0
H190 H 0.79816 0.91997 0.06773 0.0
H191 H 0.60675 0.63889 0.22602 0.0
H192 H 0.78585 0.72022 0.37578 0.0
H193 H 0.54077 0.54645 0.2258 0.0
H194 H 0.94406 0.03239 0.15551 0.0
H195 H 0.74202 0.56501 0.43529 0.0
H196 H 0.66981 0.48854 0.39962 0.0
H197 H 0.98996 0.01509 0.22376 0.0
H198 H 0.60007 0.45708 0.34202 0.0
N199 N 0.72849 0.65845 0.34052 0.0
C200 C 0.76248 0.67843 0.37485 0.0
C201 C 0.73771 0.59077 0.40884 0.0
C202 C 0.70049 0.57064 0.37503 0.0
C203 C 0.76788 0.64495 0.40935 0.0
C204 C 0.69613 0.60614 0.3414 0.0
H205 H 0.551 0.47871 0.27729 0.0
N206 N 0.65278 0.62494 0.27932 0.0
C207 C 0.57335 0.55778 0.2495 0.0
C208 C 0.6564 0.58876 0.30994 0.0
C209 C 0.61106 0.61039 0.24982 0.0
C210 C 0.57873 0.51972 0.27906 0.0
C211 C 0.62016 0.53506 0.31031 0.0
O212 O 0.65114 0.71194 0.28219 0.0
O213 O 0.74938 0.77672 0.23484 0.0
O214 O 0.82437 0.83931 0.26581 0.0
O215 O 0.77677 0.77839 0.31545 0.0
O216 O 0.67543 0.72682 0.2242 0.0
O217 O 0.71111 0.73454 0.33392 0.0
O218 O 0.8881 0.78538 0.22958 0.0
O219 O 0.78862 0.71837 0.27649 0.0
O220 O 0.71405 0.65474 0.24596 0.0
O221 O 0.76267 0.71499 0.19655 0.0
O222 O 0.86259 0.76785 0.2872 0.0
O223 O 0.82739 0.75804 0.17875 0.0
C224 C 0.7099 0.77006 0.20876 0.0
C225 C 0.63372 0.71707 0.34719 0.0
C226 C 0.60804 0.75042 0.39218 0.0
C227 C 0.63159 0.75831 0.3585 0.0
C228 C 0.5829 0.69957 0.41263 0.0
C229 C 0.609 0.66652 0.36795 0.0
C230 C 0.58286 0.65773 0.40012 0.0
C231 C 0.80725 0.82768 0.30156 0.0
C232 C 0.66801 0.73076 0.31798 0.0
C233 C 0.62645 0.49876 0.3419 0.0
C234 C 0.6664 0.5166 0.37449 0.0
C235 C 0.8279 0.72481 0.30268 0.0
C236 C 0.9063 0.78233 0.16453 0.0
C237 C 0.90943 0.74337 0.15046 0.0
C238 C 0.9341 0.75505 0.11659 0.0
C239 C 0.95901 0.80733 0.09862 0.0
C240 C 0.93104 0.83435 0.14638 0.0
C241 C 0.95805 0.84686 0.11393 0.0
C242 C 0.73223 0.66594 0.21077 0.0
C243 C 0.87181 0.76522 0.19437 0.0
H244 H 0.65046 0.79748 0.34248 0.0
H245 H 0.5643 0.69259 0.43868 0.0
H246 H 0.61087 0.63447 0.35997 0.0
H247 H 0.5639 0.61874 0.41631 0.0
H248 H 0.89102 0.70324 0.16478 0.0
H249 H 0.97836 0.81727 0.0724 0.0
H250 H 0.92866 0.8648 0.15666 0.0
H251 H 0.97701 0.88699 0.09975 0.0
Tb252 Tb 0.31489 0.72455 0.27674 0.0
C253 C 0.1899 0.79971 0.14227 0.0
C254 C 0.25014 0.88525 0.11403 0.0
C255 C 0.17351 0.83153 0.07002 0.0
C256 C 0.23507 0.84488 0.14719 0.0
C257 C 0.15807 0.7925 0.1038 0.0
C258 C 0.21952 0.87798 0.07516 0.0
C259 C 0.09723 0.71055 0.13584 0.0
N260 N 0.1765 0.76347 0.17581 0.0
C261 C 0.12953 0.72025 0.1736 0.0
C262 C 0.11154 0.74667 0.10069 0.0
Tb263 Tb 0.23458 0.77966 0.2354 0.0
N264 N 0.2635 0.84996 0.18511 0.0
C265 C 0.30516 0.89716 0.19305 0.0
C266 C 0.29485 0.93206 0.12128 0.0
C267 C 0.32199 0.93832 0.16125 0.0
H268 H 0.11789 0.69167 0.2004 0.0
H269 H 0.35589 0.97469 0.16786 0.0
H270 H 0.23061 0.90837 0.0492 0.0
H271 H 0.06152 0.675 0.13381 0.0
H272 H 0.32612 0.90339 0.22378 0.0
H273 H 0.17154 0.52844 0.32351 0.0
H274 H 0.30782 0.9639 0.09661 0.0
H275 H 0.43057 0.79647 0.32917 0.0
H276 H 0.2189 0.60014 0.27361 0.0
H277 H 0.47032 0.80412 0.40241 0.0
H278 H 0.14979 0.82662 0.04011 0.0
H279 H 0.19913 0.53669 0.39962 0.0
H280 H 0.26416 0.58371 0.45677 0.0
H281 H 0.08616 0.73918 0.0716 0.0
H282 H 0.34611 0.65884 0.47842 0.0
N283 N 0.27304 0.64947 0.31971 0.0
C284 C 0.23226 0.60433 0.30613 0.0
C285 C 0.22062 0.56714 0.3772 0.0
C286 C 0.2649 0.61073 0.39089 0.0
C287 C 0.20511 0.56285 0.33462 0.0
C288 C 0.29087 0.65149 0.361 0.0
H289 H 0.4237 0.74086 0.45826 0.0
N290 N 0.36056 0.73076 0.34311 0.0
C291 C 0.43244 0.77305 0.39469 0.0
C292 C 0.33629 0.6936 0.37317 0.0
C293 C 0.40961 0.76859 0.35321 0.0
C294 C 0.40598 0.73735 0.42612 0.0
C295 C 0.35771 0.69626 0.41552 0.0
O296 O 0.38316 0.72736 0.28096 0.0
O297 O 0.29874 0.7765 0.22636 0.0
O298 O 0.21569 0.72143 0.19487 0.0
O299 O 0.25749 0.67564 0.22938 0.0
O300 O 0.37061 0.8007 0.24894 0.0
O301 O 0.3197 0.6769 0.24103 0.0
O302 O 0.17207 0.77213 0.25425 0.0
O303 O 0.24982 0.72742 0.28584 0.0
O304 O 0.33444 0.78255 0.31631 0.0
O305 O 0.29894 0.83225 0.27769 0.0
O306 O 0.17784 0.70847 0.26573 0.0
O307 O 0.24364 0.84398 0.25927 0.0
C308 C 0.34251 0.81339 0.22052 0.0
C309 C 0.39848 0.72327 0.21639 0.0
C310 C 0.4236 0.71429 0.15606 0.0
C311 C 0.39226 0.69229 0.1869 0.0
C312 C 0.45883 0.76801 0.15295 0.0
C313 C 0.4357 0.77685 0.21375 0.0
C314 C 0.46451 0.79921 0.18156 0.0
C315 C 0.22675 0.68383 0.19843 0.0
C316 C 0.368 0.69921 0.25076 0.0
C317 C 0.33076 0.65713 0.44569 0.0
C318 C 0.28421 0.61442 0.43337 0.0
C319 C 0.20497 0.69302 0.29278 0.0
C320 C 0.17275 0.84906 0.26271 0.0
C321 C 0.17375 0.86553 0.29934 0.0
C322 C 0.14656 0.88993 0.29962 0.0
C323 C 0.11975 0.89997 0.26223 0.0
C324 C 0.1463 0.85917 0.22529 0.0
C325 C 0.12006 0.88502 0.22513 0.0
C326 C 0.32761 0.82303 0.31015 0.0
C327 C 0.19769 0.81888 0.26645 0.0
H328 H 0.36522 0.65066 0.1893 0.0
H329 H 0.48319 0.78527 0.12932 0.0
H330 H 0.44364 0.80169 0.23689 0.0
H331 H 0.49256 0.84044 0.17969 0.0
H332 H 0.19399 0.85728 0.32831 0.0
H333 H 0.09781 0.91812 0.26195 0.0
H334 H 0.14538 0.84651 0.19673 0.0
H335 H 0.09908 0.89247 0.19644 0.0
Tb336 Tb 0.3041 0.71555 0.75104 0.0
C337 C 0.20536 0.79102 0.82545 0.0
C338 C 0.11922 0.7219 0.81381 0.0
C339 C 0.148 0.77168 0.87267 0.0
C340 C 0.16731 0.75257 0.80162 0.0
C341 C 0.19589 0.80135 0.86107 0.0
C342 C 0.10991 0.73174 0.84928 0.0
C343 C 0.2816 0.87013 0.87134 0.0
N344 N 0.25184 0.81746 0.81444 0.0
C345 C 0.28909 0.85884 0.83581 0.0
C346 C 0.2349 0.84091 0.88431 0.0
Tb347 Tb 0.25871 0.79967 0.75247 0.0
N348 N 0.17817 0.74276 0.76831 0.0
C349 C 0.14243 0.70004 0.74795 0.0
C350 C 0.08221 0.68084 0.79098 0.0
C351 C 0.09408 0.66958 0.75814 0.0
H352 H 0.32507 0.8842 0.82554 0.0
H353 H 0.06648 0.63618 0.74147 0.0
H354 H 0.07364 0.70783 0.85939 0.0
H355 H 0.31176 0.90203 0.88831 0.0
H356 H 0.15089 0.6863 0.72549 0.0
H357 H 0.50688 0.85295 0.77443 0.0
H358 H 0.045 0.6564 0.79945 0.0
H359 H 0.2422 0.62399 0.68449 0.0
H360 H 0.42745 0.79495 0.79766 0.0
H361 H 0.25575 0.6058 0.62153 0.0
H362 H 0.14027 0.77869 0.9001 0.0
H363 H 0.51761 0.85727 0.70239 0.0
H364 H 0.48137 0.82196 0.63351 0.0
H365 H 0.22912 0.84979 0.91186 0.0
H366 H 0.41359 0.75273 0.59218 0.0
N367 N 0.38656 0.76847 0.73772 0.0
C368 C 0.42807 0.79697 0.76523 0.0
C369 C 0.48103 0.83202 0.71197 0.0
C370 C 0.44045 0.79921 0.68504 0.0
C371 C 0.47504 0.82979 0.75253 0.0
C372 C 0.39333 0.76709 0.69897 0.0
H373 H 0.33131 0.6695 0.5892 0.0
N374 N 0.31022 0.69774 0.68923 0.0
C375 C 0.28349 0.6413 0.63566 0.0
C376 C 0.35432 0.72991 0.67444 0.0
C377 C 0.27614 0.65195 0.67161 0.0
C378 C 0.32608 0.67734 0.6175 0.0
C379 C 0.36238 0.72197 0.63704 0.0
O380 O 0.25645 0.63339 0.75934 0.0
O381 O 0.24485 0.72018 0.77036 0.0
O382 O 0.32319 0.81439 0.80056 0.0
O383 O 0.34791 0.75206 0.8075 0.0
O384 O 0.27901 0.68436 0.81278 0.0
O385 O 0.33612 0.66815 0.761 0.0
O386 O 0.30392 0.88163 0.75001 0.0
O387 O 0.31785 0.79592 0.73203 0.0
O388 O 0.2459 0.70654 0.6977 0.0
O389 O 0.21505 0.76296 0.69514 0.0
O390 O 0.28256 0.83269 0.6918 0.0
O391 O 0.22335 0.84456 0.73465 0.0
C392 C 0.24441 0.69648 0.80737 0.0
C393 C 0.29638 0.5894 0.80333 0.0
C394 C 0.35014 0.57584 0.86257 0.0
C395 C 0.33734 0.60939 0.83423 0.0
C396 C 0.31808 0.52128 0.8642 0.0
C397 C 0.26359 0.53497 0.8046 0.0
C398 C 0.27387 0.50099 0.83584 0.0
C399 C 0.35095 0.79306 0.81944 0.0
C400 C 0.29396 0.62494 0.76661 0.0
C401 C 0.4075 0.75698 0.62159 0.0
C402 C 0.44626 0.79608 0.64532 0.0
C403 C 0.31714 0.82119 0.69545 0.0
C404 C 0.27146 0.9269 0.69772 0.0
C405 C 0.22864 0.92125 0.67078 0.0
C406 C 0.23184 0.95466 0.63422 0.0
C407 C 0.27838 0.99582 0.62442 0.0
C408 C 0.31846 0.96816 0.68821 0.0
C409 C 0.32175 0.00254 0.65167 0.0
C410 C 0.21726 0.72708 0.67945 0.0
C411 C 0.26589 0.88888 0.73499 0.0
H412 H 0.36311 0.65141 0.8334 0.0
H413 H 0.32831 0.49481 0.88589 0.0
H414 H 0.23154 0.51884 0.78067 0.0
H415 H 0.24926 0.45894 0.83648 0.0
H416 H 0.19203 0.89004 0.67776 0.0
H417 H 0.28101 0.02214 0.59605 0.0
H418 H 0.35242 0.97365 0.70876 0.0
H419 H 0.3579 0.03413 0.64438 0.0
Tb420 Tb 0.21239 0.20965 0.78837 0.0
C421 C 0.3789 0.41311 0.71427 0.0
C422 C 0.34793 0.43273 0.64314 0.0
C423 C 0.41142 0.50391 0.68348 0.0
C424 C 0.34618 0.39612 0.67825 0.0
C425 C 0.41374 0.467 0.7165 0.0
C426 C 0.37855 0.48676 0.6467 0.0
C427 C 0.45445 0.44333 0.78125 0.0
N428 N 0.38013 0.37624 0.74544 0.0
C429 C 0.41841 0.39056 0.77819 0.0
C430 C 0.45147 0.48189 0.75079 0.0
Tb431 Tb 0.31997 0.29051 0.73651 0.0
N432 N 0.31863 0.34359 0.67563 0.0
C433 C 0.3001 0.32601 0.63709 0.0
C434 C 0.32275 0.414 0.60467 0.0
C435 C 0.30067 0.36059 0.60138 0.0
H436 H 0.42113 0.36169 0.8025 0.0
H437 H 0.28489 0.34608 0.57127 0.0
H438 H 0.37954 0.51542 0.62035 0.0
H439 H 0.48413 0.4542 0.80743 0.0
H440 H 0.28521 0.28547 0.63301 0.0
H441 H 0.29023 0.16286 0.94246 0.0
H442 H 0.32358 0.44071 0.57685 0.0
H443 H 0.10203 0.128 0.73509 0.0
H444 H 0.27439 0.21999 0.88486 0.0
H445 H 0.05424 0.03446 0.72506 0.0
H446 H 0.43694 0.54557 0.6851 0.0
H447 H 0.25369 0.06762 0.93524 0.0
H448 H 0.19826 0.99236 0.89322 0.0
H449 H 0.47923 0.52281 0.75345 0.0
H450 H 0.13415 0.9573 0.83261 0.0
N451 N 0.22934 0.15956 0.84462 0.0
C452 C 0.25809 0.17914 0.88099 0.0
C453 C 0.24716 0.09344 0.9098 0.0
C454 C 0.21592 0.07313 0.87336 0.0
C455 C 0.26739 0.14651 0.91401 0.0
C456 C 0.20688 0.10746 0.84128 0.0
H457 H 0.07972 0.97263 0.76947 0.0
N458 N 0.15909 0.12162 0.7804 0.0
C459 C 0.08738 0.04883 0.74794 0.0
C460 C 0.17069 0.08776 0.80764 0.0
C461 C 0.11497 0.10215 0.75345 0.0
C462 C 0.102 0.0142 0.77301 0.0
C463 C 0.14284 0.0332 0.80459 0.0
O464 O 0.14046 0.19868 0.78227 0.0
O465 O 0.24538 0.27494 0.73964 0.0
O466 O 0.31699 0.33966 0.77541 0.0
O467 O 0.26884 0.27591 0.82367 0.0
O468 O 0.17536 0.25088 0.74625 0.0
O469 O 0.19064 0.2179 0.84126 0.0
O470 O 0.38917 0.31066 0.72111 0.0
O471 O 0.28677 0.22285 0.78351 0.0
O472 O 0.20529 0.16846 0.73804 0.0
O473 O 0.25586 0.23866 0.69445 0.0
O474 O 0.36054 0.27268 0.79523 0.0
O475 O 0.32562 0.2354 0.71106 0.0
C476 C 0.20987 0.28618 0.72539 0.0
C477 C 0.10742 0.20892 0.8364 0.0
C478 C 0.0839 0.25232 0.8744 0.0
C479 C 0.11921 0.24098 0.86731 0.0
C480 C 0.03507 0.22754 0.85302 0.0
C481 C 0.05812 0.18426 0.8155 0.0
C482 C 0.02207 0.19288 0.82431 0.0
C483 C 0.29816 0.32575 0.81061 0.0
C484 C 0.14761 0.21009 0.81978 0.0
C485 C 0.1547 0.99925 0.83462 0.0
C486 C 0.19115 0.01921 0.86912 0.0
C487 C 0.3259 0.229 0.81002 0.0
C488 C 0.38439 0.27057 0.66425 0.0
C489 C 0.3811 0.22657 0.65164 0.0
C490 C 0.39735 0.23087 0.61412 0.0
C491 C 0.41489 0.27899 0.58872 0.0
C492 C 0.40237 0.31822 0.63821 0.0
C493 C 0.41701 0.32211 0.60057 0.0
C494 C 0.22094 0.18913 0.70166 0.0
C495 C 0.37159 0.26706 0.70543 0.0
H496 H 0.15622 0.2595 0.88433 0.0
H497 H 1.00725 0.23553 0.85821 0.0
H498 H 0.04779 0.15969 0.7913 0.0
H499 H 0.98441 0.17414 0.8077 0.0
H500 H 0.36754 0.18964 0.6715 0.0
H501 H 0.42731 0.28323 0.55969 0.0
H502 H 0.40561 0.35273 0.64704 0.0
H503 H 0.43076 0.35899 0.58075 0.0
Tb504 Tb 0.81287 0.20675 0.77711 0.0
C505 C 0.69831 0.30747 0.65603 0.0
C506 C 0.76412 0.39094 0.63068 0.0
C507 C 0.68151 0.35255 0.58972 0.0
C508 C 0.74719 0.34718 0.66088 0.0
C509 C 0.66461 0.30972 0.62058 0.0
C510 C 0.73116 0.39335 0.59491 0.0
C511 C 0.59901 0.23084 0.65133 0.0
N512 N 0.68314 0.26798 0.68728 0.0
C513 C 0.63348 0.23184 0.68662 0.0
C514 C 0.61466 0.26977 0.61797 0.0
Tb515 Tb 0.74186 0.27327 0.74413 0.0
N516 N 0.77773 0.34377 0.696 0.0
C517 C 0.82568 0.3842 0.70345 0.0
C518 C 0.81373 0.43088 0.63726 0.0
C519 C 0.84461 0.42788 0.67391 0.0
H520 H 0.62039 0.20322 0.71308 0.0
H521 H 0.88308 0.4589 0.67924 0.0
H522 H 0.74368 0.4266 0.57122 0.0
H523 H 0.56035 0.20042 0.65006 0.0
H524 H 0.85026 0.38245 0.73148 0.0
H525 H 0.67966 0.99751 0.76458 0.0
H526 H 0.82855 0.4634 0.61378 0.0
H527 H 0.90304 0.24953 0.86143 0.0
H528 H 0.74643 0.08395 0.74078 0.0
H529 H 0.90722 0.22915 0.93732 0.0
H530 H 0.65627 0.35504 0.56223 0.0
H531 H 0.65904 0.98052 0.83564 0.0
H532 H 0.68442 0.01086 0.90732 0.0
H533 H 0.58765 0.26956 0.59105 0.0
H534 H 0.75038 0.0717 0.95638 0.0
N535 N 0.76115 0.11783 0.79675 0.0
C536 C 0.73783 0.07767 0.77181 0.0
C537 C 0.68939 0.01807 0.82565 0.0
C538 C 0.71983 0.05599 0.85318 0.0
C539 C 0.70036 0.02792 0.78536 0.0
C540 C 0.75674 0.10537 0.83774 0.0
H541 H 0.83547 0.15252 0.96796 0.0
N542 N 0.82818 0.18648 0.84832 0.0
C543 C 0.87404 0.20435 0.91729 0.0
C544 C 0.79188 0.14094 0.86464 0.0
C545 C 0.8713 0.21571 0.874 0.0
C546 C 0.83356 0.16115 0.93445 0.0
C547 C 0.79238 0.12784 0.90803 0.0
O548 O 0.89121 0.24469 0.78403 0.0
O549 O 0.80971 0.27428 0.73774 0.0
O550 O 0.71504 0.21858 0.69861 0.0
O551 O 0.74988 0.16502 0.72974 0.0
O552 O 0.82924 0.23207 0.7131 0.0
O553 O 0.84659 0.16503 0.76901 0.0
O554 O 0.69027 0.26386 0.77987 0.0
O555 O 0.75636 0.21818 0.79232 0.0
O556 O 0.84278 0.27106 0.81567 0.0
O557 O 0.8059 0.32227 0.78611 0.0
O558 O 0.68419 0.1972 0.76887 0.0
O559 O 0.74501 0.34083 0.75733 0.0
C560 C 0.8225 0.27172 0.70466 0.0
C561 C 0.9226 0.21962 0.73979 0.0
C562 C 0.9394 0.20152 0.67832 0.0
C563 C 0.90798 0.18691 0.70828 0.0
C564 C 0.985 0.24885 0.67991 0.0
C565 C 0.96907 0.26617 0.74102 0.0
C566 C 0.99972 0.28074 0.71116 0.0
C567 C 0.72017 0.17708 0.70057 0.0
C568 C 0.89123 0.20592 0.77238 0.0
C569 C 0.75235 0.08138 0.92331 0.0
C570 C 0.71539 0.04609 0.8956 0.0
C571 C 0.7115 0.18259 0.79679 0.0
C572 C 0.67328 0.33224 0.7768 0.0
C573 C 0.66481 0.3378 0.81453 0.0
C574 C 0.6321 0.35572 0.81494 0.0
C575 C 0.60763 0.36812 0.77706 0.0
C576 C 0.6487 0.34447 0.73906 0.0
C577 C 0.61587 0.36235 0.73931 0.0
C578 C 0.83635 0.31141 0.81475 0.0
C579 C 0.70837 0.31384 0.77891 0.0
H580 H 0.8729 0.15019 0.70719 0.0
H581 H 1.00974 0.26058 0.65736 0.0
H582 H 0.98179 0.29152 0.7652 0.0
H583 H 0.03523 0.31679 0.71243 0.0
H584 H 0.68407 0.32866 0.84375 0.0
H585 H 0.58255 0.38256 0.77678 0.0
H586 H 0.65501 0.34042 0.70971 0.0
H587 H 0.597 0.37205 0.71021 0.0
Tb588 Tb 0.74166 0.69896 0.72613 0.0
C589 C 0.91907 0.89315 0.80731 0.0
C590 C 0.9513 0.85607 0.87015 0.0
C591 C 1.00487 0.94453 0.84033 0.0
C592 C 0.91211 0.85174 0.83762 0.0
C593 C 0.96516 0.94066 0.80902 0.0
C594 C 0.99811 0.90206 0.87062 0.0
C595 C 0.92891 0.97793 0.74995 0.0
N596 N 0.87991 0.88771 0.77722 0.0
C597 C 0.88454 0.92977 0.74859 0.0
C598 C 0.96945 0.98345 0.78013 0.0
Tb599 Tb 0.80592 0.80942 0.78297 0.0
N600 N 0.86581 0.80888 0.83712 0.0
C601 C 0.85524 0.77137 0.87062 0.0
C602 C 0.94156 0.81522 0.90238 0.0
C603 C 0.89304 0.77322 0.90299 0.0
H604 H 0.85423 0.92784 0.72497 0.0
H605 H 0.88454 0.74262 0.92864 0.0
H606 H 0.02868 0.90596 0.89521 0.0
H607 H 0.93129 0.01111 0.7282 0.0
H608 H 0.81761 0.73962 0.87257 0.0
H609 H 0.67046 0.77003 0.57861 0.0
H610 H 0.97059 0.81689 0.92787 0.0
H611 H 0.68999 0.58254 0.78409 0.0
H612 H 0.73509 0.77039 0.63674 0.0
H613 H 0.60946 0.50113 0.78237 0.0
H614 H 0.04057 0.98057 0.84196 0.0
H615 H 0.58293 0.69799 0.57818 0.0
H616 H 0.52172 0.61012 0.61053 0.0
H617 H 1.00334 0.02121 0.78151 0.0
H618 H 0.50619 0.53546 0.66456 0.0
N619 N 0.684 0.70252 0.67131 0.0
C620 C 0.69672 0.73984 0.63777 0.0
C621 C 0.61094 0.69878 0.60436 0.0
C622 C 0.59897 0.65809 0.63695 0.0
C623 C 0.66028 0.73941 0.60444 0.0
C624 C 0.63683 0.66118 0.6704 0.0
H625 H 0.53896 0.49399 0.72794 0.0
N626 N 0.66593 0.62355 0.73169 0.0
C627 C 0.61395 0.53434 0.75953 0.0
C628 C 0.62766 0.6198 0.70126 0.0
C629 C 0.65984 0.58106 0.76034 0.0
C630 C 0.57413 0.53057 0.72893 0.0
C631 C 0.58063 0.57352 0.69928 0.0
O632 O 0.76507 0.64506 0.72585 0.0
O633 O 0.8054 0.73848 0.7742 0.0
O634 O 0.8584 0.82409 0.74328 0.0
O635 O 0.80144 0.76777 0.69424 0.0
O636 O 0.76763 0.65915 0.78096 0.0
O637 O 0.7499 0.68658 0.66864 0.0
O638 O 0.77186 0.85351 0.78343 0.0
O639 O 0.74183 0.7703 0.73411 0.0
O640 O 0.69181 0.68379 0.76954 0.0
O641 O 0.75187 0.73891 0.81768 0.0
O642 O 0.78229 0.84929 0.7268 0.0
O643 O 0.80232 0.82508 0.84079 0.0
C644 C 0.80557 0.69832 0.79812 0.0
C645 C 0.74424 0.60501 0.66472 0.0
C646 C 0.76151 0.5581 0.62471 0.0
C647 C 0.77475 0.60453 0.64031 0.0
C648 C 0.71665 0.51227 0.63299 0.0
C649 C 0.69909 0.55916 0.67192 0.0
C650 C 0.68538 0.51309 0.65602 0.0
C651 C 0.84732 0.80468 0.70769 0.0
C652 C 0.76338 0.65195 0.6858 0.0
C653 C 0.54233 0.57082 0.66681 0.0
C654 C 0.55128 0.61326 0.63595 0.0
C655 C 0.74382 0.81098 0.70914 0.0
C656 C 0.79365 0.89894 0.84149 0.0
C657 C 0.76616 0.89293 0.87157 0.0
C658 C 0.76909 0.93683 0.8831 0.0
C659 C 0.80288 0.98738 0.86679 0.0
C660 C 0.82754 0.94953 0.82542 0.0
C661 C 0.83259 0.99362 0.83857 0.0
C662 C 0.70583 0.70106 0.80659 0.0
C663 C 0.77992 0.85172 0.82359 0.0
H664 H 0.80987 0.63963 0.63481 0.0
H665 H 0.70584 0.47601 0.62148 0.0
H666 H 0.67498 0.55853 0.69045 0.0
H667 H 0.65077 0.47766 0.66212 0.0
H668 H 0.73933 0.85394 0.88362 0.0
H669 H 0.80562 0.02176 0.87545 0.0
H670 H 0.8488 0.95497 0.80197 0.0
H671 H 0.85836 0.03262 0.82581 0.0
C672 C 0.94084 0.10317 0.54895 0.0
C673 C 0.96005 0.10768 0.42235 0.0
C674 C 0.922 0.92658 0.43443 0.0
Mg675 Mg 0.02537 0.11877 0.5047 0.0
O676 O 0.99057 0.04507 0.51804 0.0
Mg677 Mg 0.91835 0.00563 0.49567 0.0
Mg678 Mg 1.01543 0.00436 0.50169 0.0
O679 O 0.04285 0.9634 0.48634 0.0
Mg680 Mg 1.00288 0.89127 0.46883 0.0
Mg681 Mg 0.11945 0.00954 0.51068 0.0
C682 C 0.11635 0.10052 0.54793 0.0
C683 C 0.08476 0.07611 0.43103 0.0
O684 O 0.91064 0.05864 0.53416 0.0
O685 O 0.98614 0.13215 0.54177 0.0
O686 O 0.92969 0.06407 0.4401 0.0
O687 O 1.00371 0.13761 0.44003 0.0
O688 O 0.10127 0.13273 0.52842 0.0
O689 O 0.09226 0.05182 0.54175 0.0
C690 C 0.94147 0.93088 0.57064 0.0
O691 O 0.98239 0.94601 0.55771 0.0
O692 O 0.9112 0.94723 0.5523 0.0
O693 O 0.1349 0.96494 0.46996 0.0
O694 O 0.06115 0.90226 0.43906 0.0
O695 O 0.04713 0.93598 0.52237 0.0
C696 C 0.10893 0.93042 0.44367 0.0
O697 O 1.00354 0.85101 0.53187 0.0
O698 O 0.94143 0.89894 0.43301 0.0
C699 C 0.04006 0.89324 0.54536 0.0
O700 O 0.93851 0.95833 0.46223 0.0
O701 O 0.04505 0.06304 0.44479 0.0
O702 O 0.11452 0.05956 0.45006 0.0
C703 C 0.408 0.06442 0.03875 0.0
C704 C 0.42303 0.10408 0.91632 0.0
C705 C 0.44095 0.89623 0.96294 0.0
Mg706 Mg 0.50159 0.1075 0.99798 0.0
O707 O 0.4821 0.03725 0.99984 0.0
Mg708 Mg 0.41044 0.9867 0.9808 0.0
Mg709 Mg 0.52344 1.00084 0.00704 0.0
O710 O 0.56395 0.9641 0.01335 0.0
Mg711 Mg 0.54224 0.89251 0.01885 0.0
Mg712 Mg 0.63468 0.0142 0.03483 0.0
C713 C 0.60454 0.10543 0.05081 0.0
C714 C 0.6096 0.07264 0.94368 0.0
O715 O 0.3856 0.02579 0.01655 0.0
O716 O 0.45418 0.09887 0.03906 0.0
O717 O 0.40233 0.05289 0.92286 0.0
O718 O 0.46571 0.13231 0.93774 0.0
O719 O 0.57693 0.12599 0.03205 0.0
O720 O 0.59132 0.05692 0.04961 0.0
C721 C 0.43885 0.92858 0.0712 0.0
O722 O 0.48487 0.95004 0.06658 0.0
O723 O 0.40733 0.93419 0.04202 0.0
O724 O 0.65973 0.97349 1.00135 0.0
O725 O 0.59369 0.89606 0.98437 0.0
O726 O 0.63911 0.94872 0.09418 0.0
C727 C 0.63945 0.93154 0.98334 0.0
O728 O 0.5746 0.86904 0.08084 0.0
O729 O 0.46754 0.87439 0.98166 0.0
C730 C 0.61713 0.89766 0.10213 0.0
O731 O 0.45486 0.94454 0.96572 0.0
O732 O 0.5632 0.05142 0.94735 0.0
O733 O 0.64046 0.06711 0.97362 0.0
C734 C 0.94794 0.6155 0.03364 0.0
C735 C 0.94285 0.6233 0.91137 0.0
C736 C 0.93148 0.41101 0.96522 0.0
Mg737 Mg 0.03082 0.6314 0.99021 0.0
O738 O 0.99991 0.55848 0.99982 0.0
Mg739 Mg 0.92626 0.51705 0.98215 0.0
Mg740 Mg 0.02782 0.50998 1.00183 0.0
O741 O 0.05515 0.46111 0.00357 0.0
Mg742 Mg 0.02132 0.38945 0.02261 0.0
Mg743 Mg 0.12904 0.50085 0.02014 0.0
C744 C 0.12363 0.60688 0.04352 0.0
C745 C 0.11039 0.56957 0.93247 0.0
O746 O 0.91681 0.57451 0.01439 0.0
O747 O 0.99498 0.63953 0.0328 0.0
O748 O 0.9252 0.57299 0.91783 0.0
O749 O 0.98449 0.6532 0.93342 0.0
O750 O 0.10438 0.63669 0.02536 0.0
O751 O 0.10219 0.55755 0.03958 0.0
C752 C 0.94522 0.45191 0.07091 0.0
O753 O 0.98785 0.4615 0.06398 0.0
O754 O 0.91933 0.46828 0.04396 0.0
O755 O 0.1318 0.43893 0.98747 0.0
O756 O 0.0533 0.36948 0.98421 0.0
O757 O 0.13112 0.44181 0.08267 0.0
C758 C 0.09789 0.39344 0.97558 0.0
O759 O 0.0581 0.3687 0.08557 0.0
O760 O 0.94638 0.38178 0.99215 0.0
C761 C 0.10492 0.39478 0.10014 0.0
O762 O 0.95379 0.46144 0.96364 0.0
O763 O 0.06787 0.55903 0.94035 0.0
O764 O 0.13684 0.55262 0.95814 0.0
C765 C 0.46099 0.616 0.04915 0.0
C766 C 0.53392 0.63119 0.95426 0.0
C767 C 0.42474 0.42769 0.94051 0.0
Mg768 Mg 0.56067 0.62782 0.03145 0.0
O769 O 0.50897 0.55557 0.01651 0.0
Mg770 Mg 0.43514 0.52562 0.98422 0.0
Mg771 Mg 0.52452 0.50208 0.00489 0.0
O772 O 0.54135 0.45265 0.99106 0.0
Mg773 Mg 0.4961 0.38132 0.98668 0.0
Mg774 Mg 0.60833 0.47475 0.02554 0.0
C775 C 0.62253 0.57174 0.0753 0.0
C776 C 0.61503 0.56563 0.94895 0.0
O777 O 0.43155 0.57909 0.02533 0.0
O778 O 0.50882 0.63893 0.0533 0.0
O779 O 0.51479 0.58693 0.9767 0.0
O780 O 0.57505 0.66784 0.96982 0.0
O781 O 0.61378 0.60967 0.07054 0.0
O782 O 0.59523 0.53114 0.05479 0.0
C783 C 0.43703 0.43845 0.06316 0.0
O784 O 0.47617 0.44293 0.05423 0.0
O785 O 0.41811 0.46622 0.04223 0.0
O786 O 0.61641 0.4221 0.98736 0.0
O787 O 0.5397 0.36789 0.95584 0.0
O788 O 0.56961 0.4049 0.07686 0.0
C789 C 0.5872 0.38891 0.96074 0.0
O790 O 0.4919 0.34747 0.04996 0.0
O791 O 0.43517 0.39048 0.94843 0.0
C792 C 0.52683 0.36337 0.08068 0.0
O793 O 0.45196 0.47082 0.95742 0.0
O794 O 0.57322 0.55766 0.95525 0.0
O795 O 0.63739 0.54194 0.97232 0.0
C796 C 0.88979 0.55027 0.52862 0.0
C797 C 0.91774 0.5952 0.40911 0.0
C798 C 0.93901 0.3889 0.46305 0.0
Mg799 Mg 0.98867 0.5986 0.49335 0.0
O800 O 0.9732 0.5297 0.49465 0.0
Mg801 Mg 0.90387 0.47698 0.47284 0.0
Mg802 Mg 1.01709 0.49634 0.50428 0.0
O803 O 0.05931 0.46121 0.51406 0.0
Mg804 Mg 0.03704 0.38958 0.5276 0.0
Mg805 Mg 0.12913 0.5123 0.53564 0.0
C806 C 0.09217 0.60196 0.54796 0.0
C807 C 0.10659 0.5696 0.44246 0.0
O808 O 0.87234 0.51063 0.5083 0.0
O809 O 0.93509 0.58754 0.52936 0.0
O810 O 0.89749 0.54408 0.41532 0.0
O811 O 0.95848 0.62395 0.43207 0.0
O812 O 0.06333 0.6206 0.52852 0.0
O813 O 0.08217 0.55433 0.54727 0.0
C814 C 0.9279 0.41807 0.56424 0.0
O815 O 0.97524 0.44491 0.56348 0.0
O816 O 0.89915 0.42095 0.53149 0.0
O817 O 0.15165 0.46255 0.5068 0.0
O818 O 0.08161 0.38621 0.49146 0.0
O819 O 0.13555 0.45692 0.60094 0.0
C820 C 0.12805 0.41834 0.49089 0.0
O821 O 0.07876 0.37407 0.58907 0.0
O822 O 0.96285 0.36722 0.48831 0.0
C823 C 0.11829 0.40682 0.61108 0.0
O824 O 0.95236 0.43821 0.46047 0.0
O825 O 0.0601 0.54929 0.44574 0.0
O826 O 0.13618 0.56183 0.47236 0.0
C827 C 0.43708 0.10537 0.53723 0.0
C828 C 0.43739 0.1216 0.41304 0.0
C829 C 0.43305 0.91277 0.46083 0.0
Mg830 Mg 0.52397 0.12949 0.4933 0.0
O831 O 0.49714 0.05685 0.49948 0.0
Mg832 Mg 0.42325 0.01278 0.4831 0.0
Mg833 Mg 0.52851 0.01114 0.49934 0.0
O834 O 0.55802 0.96392 0.49972 0.0
Mg835 Mg 0.52691 0.891 0.51519 0.0
Mg836 Mg 0.63157 0.0056 0.51712 0.0
C837 C 0.62046 0.10791 0.54249 0.0
C838 C 0.61038 0.0744 0.42922 0.0
O839 O 0.40901 0.06399 0.51794 0.0
O840 O 0.48426 0.13288 0.53632 0.0
O841 O 0.4186 0.07104 0.42018 0.0
O842 O 0.4791 0.15109 0.4353 0.0
O843 O 0.59917 0.13621 0.52562 0.0
O844 O 0.60169 0.05949 0.53682 0.0
C845 C 0.44823 0.94604 0.5691 0.0
O846 O 0.49117 0.95882 0.56082 0.0
O847 O 0.42064 0.96197 0.54396 0.0
O848 O 0.63867 0.9478 0.48254 0.0
O849 O 0.56101 0.87813 0.4739 0.0
O850 O 0.63672 0.94733 0.5812 0.0
C851 C 0.60657 0.90369 0.46756 0.0
O852 O 0.56989 0.86791 0.57453 0.0
O853 O 0.45242 0.88354 0.48051 0.0
C854 C 0.61454 0.89713 0.593 0.0
O855 O 0.45442 0.9624 0.46276 0.0
O856 O 0.56777 0.06364 0.43729 0.0
O857 O 0.63623 0.05658 0.45494 0.0
C858 C 0.13785 0.19523 0.35138 0.0
C859 C 0.13999 0.17095 0.32027 0.0
C860 C 0.0883 0.08479 0.35522 0.0
C861 C 0.09613 0.10877 0.3908 0.0
N862 N 0.12456 0.18719 0.42213 0.0
N863 N 0.08536 0.09846 0.28065 0.0
C864 C 0.11885 0.1642 0.38845 0.0
C865 C 0.1059 0.11708 0.31835 0.0
N866 N 0.14955 0.24657 0.34359 0.0
N867 N 0.06588 0.03147 0.3569 0.0
H868 H 0.09265 0.12395 0.25323 0.0
H869 H 0.05608 0.0603 0.27715 0.0
H870 H 0.05111 0.00615 0.38301 0.0
H871 H 0.06471 0.01301 0.33304 0.0
H872 H 0.145 0.26572 0.36357 0.0
H873 H 0.15718 0.26746 0.31433 0.0
H874 H 0.14619 0.22751 0.42398 0.0
H875 H 0.1095 0.16542 0.44912 0.0
C876 C 0.88826 0.07482 0.32404 0.0
C877 C 0.84561 0.07201 0.33397 0.0
C878 C 0.89933 0.13144 0.38709 0.0
C879 C 0.93842 0.12428 0.38288 0.0
N880 N 0.97651 0.10456 0.34043 0.0
N881 N 0.81013 0.09767 0.37563 0.0
C882 C 0.93494 0.10154 0.34865 0.0
C883 C 0.85106 0.10067 0.36566 0.0
N884 N 0.88537 0.05229 0.29129 0.0
N885 N 0.90863 0.16554 0.41367 0.0
H886 H 0.77402 0.07564 0.36039 0.0
H887 H 0.8114 0.11344 0.40121 0.0
H888 H 0.94439 0.18688 0.42997 0.0
H889 H 0.88288 0.17581 0.41667 0.0
H890 H 0.85213 0.03062 0.27205 0.0
H891 H 0.85213 0.03062 0.27205 0.0
H892 H 0.97616 0.08897 0.315 0.0
H893 H 1.01117 0.12477 0.35856 0.0
C894 C 0.86864 0.91984 0.3236 0.0
C895 C 0.82584 0.87026 0.32927 0.0
C896 C 0.83382 0.88341 0.40138 0.0
C897 C 0.88347 0.92367 0.39892 0.0
N898 N 0.94663 0.98683 0.35686 0.0
N899 N 0.75313 0.83416 0.36145 0.0
C900 C 0.89974 0.94517 0.35937 0.0
C901 C 0.80356 0.85996 0.36485 0.0
N902 N 0.87682 0.94443 0.28452 0.0
N903 N 0.81676 0.86562 0.43882 0.0
H904 H 0.73196 0.82767 0.33198 0.0
H905 H 0.73427 0.82852 0.38551 0.0
H906 H 0.83832 0.88386 0.4656 0.0
H907 H 0.78243 0.83212 0.44312 0.0
H908 H 0.90638 0.98208 0.27855 0.0
H909 H 0.84991 0.92989 0.25864 0.0
H910 H 0.9634 0.99947 0.3301 0.0
H911 H 0.96903 0.00717 0.38252 0.0
C912 C 0.11915 0.86003 0.3702 0.0
C913 C 0.14416 0.90172 0.33991 0.0
C914 C 0.15724 0.96561 0.38313 0.0
C915 C 0.13316 0.92397 0.41393 0.0
N916 N 0.10609 0.83423 0.44233 0.0
N917 N 0.2019 0.99367 0.32452 0.0
C918 C 0.11947 0.87205 0.4093 0.0
C919 C 0.16817 0.9544 0.34867 0.0
N920 N 0.09286 0.80918 0.361 0.0
N921 N 0.16607 0.01492 0.38459 0.0
H922 H 0.21058 0.9869 0.29879 0.0
H923 H 0.2242 0.03197 0.33243 0.0
H924 H 0.15967 0.0258 0.40932 0.0
H925 H 0.17607 0.04385 0.35936 0.0
H926 H 0.06986 0.77793 0.38059 0.0
H927 H 0.09031 0.79862 0.33222 0.0
H928 H 0.09966 0.79651 0.44207 0.0
H929 H 0.10685 0.84283 0.47136 0.0
C930 C 0.1539 0.95853 0.61955 0.0
C931 C 0.1843 0.94346 0.60747 0.0
C932 C 0.11161 0.87684 0.56746 0.0
C933 C 0.08219 0.89517 0.57646 0.0
N934 N 0.06966 0.93936 0.62058 0.0
N935 N 0.19482 0.89274 0.56737 0.0
C936 C 0.10188 0.93205 0.60548 0.0
C937 C 0.16388 0.90384 0.58061 0.0
N938 N 0.17521 0.99798 0.64457 0.0
N939 N 0.08923 0.83197 0.54861 0.0
H940 H 0.23341 0.91203 0.57664 0.0
H941 H 0.18308 0.86795 0.54458 0.0
H942 H 0.05068 0.8096 0.54084 0.0
H943 H 0.10802 0.81327 0.54542 0.0
H944 H 0.15593 0.01289 0.65333 0.0
H945 H 0.21359 0.01845 0.65463 0.0
H946 H 0.08005 0.96458 0.64264 0.0
H947 H 0.03115 0.91517 0.61368 0.0
C948 C 0.14397 0.15166 0.64924 0.0
C949 C 0.19214 0.15857 0.66555 0.0
C950 C 0.18944 0.11953 0.60624 0.0
C951 C 0.14116 0.11265 0.59088 0.0
N952 N 0.0656 0.10065 0.6078 0.0
N953 N 0.25408 0.1346 0.6665 0.0
C954 C 0.11622 0.12163 0.61575 0.0
C955 C 0.21307 0.13806 0.64615 0.0
N956 N 0.12526 0.17593 0.66396 0.0
N957 N 0.21232 0.10844 0.5829 0.0
H958 H 0.26885 0.14344 0.69708 0.0
H959 H 0.26987 0.1177 0.65517 0.0
H960 H 0.19487 0.09363 0.55422 0.0
H961 H 0.24873 0.11524 0.59131 0.0
H962 H 0.09291 0.17713 0.64942 0.0
H963 H 0.14414 0.1984 0.68866 0.0
H964 H 0.04546 0.10237 0.62757 0.0
H965 H 0.04346 0.07595 0.58466 0.0
C966 C 0.90728 0.17694 0.6049 0.0
C967 C 0.9274 0.16663 0.64639 0.0
C968 C 0.9394 0.10161 0.62387 0.0
C969 C 0.92688 0.11797 0.58178 0.0
N970 N 0.8988 0.17073 0.53121 0.0
N971 N 0.96617 0.12207 0.69538 0.0
C972 C 0.91013 0.15508 0.57199 0.0
C973 C 0.94373 0.12912 0.656 0.0
N974 N 0.88581 0.20788 0.59717 0.0
N975 N 0.94744 0.0598 0.633 0.0
H976 H 0.96811 0.13963 0.7202 0.0
H977 H 0.98594 0.10183 0.70283 0.0
H978 H 0.94425 0.03862 0.61022 0.0
H979 H 0.95359 0.04356 0.6631 0.0
H980 H 0.86683 0.21382 0.56836 0.0
H981 H 0.88358 0.22443 0.62071 0.0
H982 H 0.89165 0.20177 0.52141 0.0
H983 H 0.8986 0.15363 0.50682 0.0
C984 C 0.8754 0.80751 0.64173 0.0
C985 C 0.88523 0.83022 0.67835 0.0
C986 C 0.94771 0.91392 0.64797 0.0
C987 C 0.92866 0.89432 0.60861 0.0
N988 N 0.87774 0.82126 0.56765 0.0
N989 N 0.95458 0.89113 0.72251 0.0
C990 C 0.89396 0.84046 0.60539 0.0
C991 C 0.92857 0.87967 0.68375 0.0
N992 N 0.85356 0.75446 0.64354 0.0
N993 N 0.9824 0.96555 0.65099 0.0
H994 H 0.94586 0.86267 0.74812 0.0
H995 H 0.98877 0.92523 0.72793 0.0
H996 H 0.9992 0.99122 0.62578 0.0
H997 H 0.99176 0.98314 0.67794 0.0
H998 H 0.848 0.735 0.61867 0.0
H999 H 0.84905 0.73169 0.67228 0.0
H1000 H 0.84815 0.78357 0.56285 0.0
H1001 H 0.89249 0.84405 0.54072 0.0
C1002 C 0.30597 0.07897 0.06465 0.0
C1003 C 0.31678 0.07632 0.10857 0.0
C1004 C 0.39055 0.06983 0.10724 0.0
C1005 C 0.37851 0.07089 0.06323 0.0
N1006 N 0.33399 0.09085 0.99984 0.0
N1007 N 0.37315 0.07863 0.17187 0.0
C1008 C 0.3388 0.07937 0.04196 0.0
C1009 C 0.36066 0.07521 0.12994 0.0
N1010 N 0.26333 0.07949 0.0445 0.0
N1011 N 0.42884 0.06098 0.12729 0.0
H1012 H 0.35089 0.08023 0.18957 0.0
H1013 H 0.40673 0.08287 0.18899 0.0
H1014 H 0.45055 0.05558 0.1117 0.0
H1015 H 0.43764 0.05577 0.15945 0.0
H1016 H 0.25015 0.07436 0.01309 0.0
H1017 H 0.23967 0.0826 0.05954 0.0
H1018 H 0.31466 0.11022 0.98474 0.0
H1019 H 0.3538 0.08726 0.98093 0.0
C1020 C 0.83613 0.36247 0.12932 0.0
C1021 C 0.85412 0.37621 0.17062 0.0
C1022 C 0.93864 0.43559 0.14905 0.0
C1023 C 0.92013 0.41843 0.10862 0.0
N1024 N 0.85353 0.355 0.06464 0.0
N1025 N 0.92088 0.4378 0.21612 0.0
C1026 C 0.86973 0.37818 0.10058 0.0
C1027 C 0.90519 0.41609 0.17955 0.0
N1028 N 0.78639 0.34092 0.11535 0.0
N1029 N 0.98848 0.46945 0.15856 0.0
H1030 H 0.89769 0.42487 0.23862 0.0
H1031 H 0.95561 0.47041 0.22337 0.0
H1032 H 1.01314 0.48249 0.13729 0.0
H1033 H 1.00612 0.48057 0.18818 0.0
H1034 H 0.7719 0.3366 0.08403 0.0
H1035 H 0.76152 0.33635 0.13362 0.0
H1036 H 0.81816 0.32264 0.05829 0.0
H1037 H 0.87747 0.36454 0.04349 0.0
C1038 C 0.66304 0.79464 0.14118 0.0
C1039 C 0.69408 0.80945 0.18032 0.0
C1040 C 0.67274 0.88197 0.17053 0.0
C1041 C 0.6457 0.86939 0.12978 0.0
N1042 N 0.63253 0.82304 0.07274 0.0
N1043 N 0.72939 0.87154 0.23074 0.0
C1044 C 0.64584 0.82833 0.11433 0.0
C1045 C 0.6996 0.85485 0.19416 0.0
N1046 N 0.64868 0.74725 0.12916 0.0
N1047 N 0.67049 0.91788 0.18795 0.0
H1048 H 0.74486 0.85033 0.25029 0.0
H1049 H 0.74079 0.90738 0.2406 0.0
H1050 H 0.65107 0.9373 0.17227 0.0
H1051 H 0.68421 0.92539 0.21884 0.0
H1052 H 0.62116 0.73149 0.10388 0.0
H1053 H 0.66123 0.72179 0.14597 0.0
H1054 H 0.63675 0.79767 0.05901 0.0
H1055 H 0.62382 0.84872 0.05115 0.0
C1056 C 0.23193 0.6618 0.13115 0.0
C1057 C 0.20449 0.65106 0.16357 0.0
C1058 C 0.12605 0.60731 0.11831 0.0
C1059 C 0.15284 0.62072 0.08471 0.0
N1060 N 0.22969 0.65136 0.05953 0.0
N1061 N 0.12965 0.59298 0.19295 0.0
C1062 C 0.20553 0.64444 0.09139 0.0
C1063 C 0.15269 0.61742 0.15859 0.0
N1064 N 0.2828 0.68918 0.13841 0.0
N1065 N 0.07531 0.58636 0.11172 0.0
H1066 H 0.15076 0.59562 0.2224 0.0
H1067 H 0.09191 0.56486 0.19187 0.0
H1068 H 0.05313 0.576 0.08302 0.0
H1069 H 0.05556 0.58268 0.13443 0.0
H1070 H 0.30569 0.69909 0.11653 0.0
H1071 H 0.30247 0.70358 0.16672 0.0
H1072 H 0.26801 0.66683 0.06204 0.0
H1073 H 0.21059 0.63955 0.0302 0.0
C1074 C 0.41093 0.87144 0.85489 0.0
C1075 C 0.38342 0.8161 0.85803 0.0
C1076 C 0.37958 0.81409 0.93112 0.0
C1077 C 0.40504 0.8698 0.92676 0.0
N1078 N 0.42512 0.94881 0.87934 0.0
N1079 N 0.35242 0.734 0.90168 0.0
C1080 C 0.41462 0.8978 0.88704 0.0
C1081 C 0.37116 0.78703 0.89711 0.0
N1082 N 0.43489 0.89858 0.82135 0.0
N1083 N 0.3624 0.78775 0.96776 0.0
H1084 H 0.34934 0.71424 0.87798 0.0
H1085 H 0.34364 0.71014 0.92956 0.0
H1086 H 0.36679 0.80792 0.99172 0.0
H1087 H 0.33998 0.74724 0.97291 0.0
H1088 H 0.45846 0.93917 0.81832 0.0
H1089 H 0.43663 0.87876 0.80019 0.0
H1090 H 0.42948 0.96968 0.84983 0.0
H1091 H 0.42156 0.96728 0.90058 0.0
C1092 C 0.11404 0.3454 0.88581 0.0
C1093 C 0.09832 0.29232 0.90258 0.0
C1094 C 0.10181 0.31403 0.97085 0.0
C1095 C 0.10934 0.3644 0.95253 0.0
N1096 N 0.12118 0.42833 0.89234 0.0
N1097 N 0.07717 0.22521 0.96073 0.0
C1098 C 0.11609 0.38065 0.91009 0.0
C1099 C 0.09271 0.2765 0.94521 0.0
N1100 N 0.12683 0.36193 0.84663 0.0
N1101 N 0.1034 0.30251 0.01302 0.0
H1102 H 0.07215 0.19734 0.94318 0.0
H1103 H 0.0667 0.20932 0.99013 0.0
H1104 H 0.11248 0.33037 0.03245 0.0
H1105 H 0.09966 0.26728 0.02911 0.0
H1106 H 0.1433 0.40112 0.83406 0.0
H1107 H 0.12475 0.33689 0.8278 0.0
H1108 H 0.12 0.43998 0.86048 0.0
H1109 H 0.12393 0.45545 0.90935 0.0
C1110 C 0.70526 0.17327 0.87466 0.0
C1111 C 0.68937 0.1508 0.83649 0.0
C1112 C 0.61692 0.07498 0.86811 0.0
C1113 C 0.63 0.10169 0.90349 0.0
N1114 N 0.67986 0.18267 0.9342 0.0
N1115 N 0.62757 0.07875 0.79723 0.0
C1116 C 0.67213 0.15274 0.90468 0.0
C1117 C 0.64401 0.10145 0.83331 0.0
N1118 N 0.75297 0.21215 0.88406 0.0
N1119 N 0.58063 0.02331 0.86856 0.0
H1120 H 0.65032 0.09187 0.77439 0.0
H1121 H 0.59187 0.04723 0.79021 0.0
H1122 H 0.55957 0.00296 0.89284 0.0
H1123 H 0.57362 0.99962 0.84628 0.0
H1124 H 0.7678 0.22529 0.91347 0.0
H1125 H 0.77919 0.22666 0.86433 0.0
H1126 H 0.70774 0.22197 0.93474 0.0
H1127 H 0.65416 0.16975 0.95454 0.0
C1128 C 0.8279 0.64634 0.86305 0.0
C1129 C 0.84537 0.68781 0.82999 0.0
C1130 C 0.92897 0.69198 0.85276 0.0
C1131 C 0.90968 0.64621 0.88261 0.0
N1132 N 0.83583 0.57829 0.9127 0.0
N1133 N 0.91312 0.74522 0.79092 0.0
C1134 C 0.85777 0.6231 0.88638 0.0
C1135 C 0.89628 0.70959 0.82457 0.0
N1136 N 0.78263 0.63035 0.87401 0.0
N1137 N 0.97892 0.71894 0.85073 0.0
H1138 H 0.89096 0.75858 0.77031 0.0
H1139 H 0.94732 0.75843 0.78165 0.0
H1140 H 1.00306 0.70585 0.8678 0.0
H1141 H 0.99688 0.75585 0.83418 0.0
H1142 H 0.76983 0.60564 0.90083 0.0
H1143 H 0.75993 0.64625 0.85891 0.0
H1144 H 0.79724 0.55415 0.91089 0.0
H1145 H 0.85542 0.56386 0.93573 0.0
C1146 C 0.14669 0.29433 0.17175 0.0
C1147 C 0.19467 0.32859 0.19256 0.0
C1148 C 0.17452 0.40168 0.16313 0.0
C1149 C 0.13176 0.36948 0.13541 0.0
N1150 N 0.08025 0.28145 0.11358 0.0
N1151 N 0.23228 0.40726 0.22641 0.0
C1152 C 0.11839 0.31468 0.14027 0.0
C1153 C 0.20309 0.38069 0.19284 0.0
N1154 N 0.12506 0.24216 0.18534 0.0
N1155 N 0.1874 0.45287 0.16268 0.0
H1156 H 0.24118 0.38823 0.25403 0.0
H1157 H 0.23881 0.44381 0.2307 0.0
H1158 H 0.16278 0.46707 0.15007 0.0
H1159 H 0.22285 0.48135 0.17463 0.0
H1160 H 0.08807 0.21516 0.17525 0.0
H1161 H 0.14236 0.22751 0.21072 0.0
H1162 H 0.07239 0.24325 0.11311 0.0
H1163 H 0.05917 0.29261 0.08937 0.0
C1164 C 0.16028 0.61772 0.82661 0.0
C1165 C 0.20259 0.66808 0.83486 0.0
C1166 C 0.17265 0.65788 0.90103 0.0
C1167 C 0.13397 0.60585 0.89495 0.0
N1168 N 0.09225 0.53445 0.85285 0.0
N1169 N 0.25201 0.73105 0.88461 0.0
C1170 C 0.12786 0.58555 0.85767 0.0
C1171 C 0.20931 0.68654 0.8734 0.0
N1172 N 0.15124 0.60028 0.78909 0.0
N1173 N 0.17432 0.68019 0.93364 0.0
H1174 H 0.27755 0.75467 0.86427 0.0
H1175 H 0.26287 0.74333 0.91418 0.0
H1176 H 0.14783 0.66041 0.95395 0.0
H1177 H 0.19852 0.71958 0.93813 0.0
H1178 H 0.1191 0.5666 0.77908 0.0
H1179 H 0.17401 0.62216 0.76617 0.0
H1180 H 0.089 0.51425 0.82941 0.0
H1181 H 0.06698 0.51124 0.87391 0.0
C1182 C 0.33351 0.1425 0.82737 0.0
C1183 C 0.34176 0.18999 0.83942 0.0
C1184 C 0.39605 0.17589 0.90352 0.0
C1185 C 0.39371 0.1325 0.88906 0.0
N1186 N 0.36197 0.0792 0.83268 0.0
N1187 N 0.38828 0.25446 0.88841 0.0
C1188 C 0.3623 0.11683 0.84993 0.0
C1189 C 0.37543 0.20718 0.87711 0.0
N1190 N 0.29818 0.12158 0.79405 0.0
N1191 N 0.41508 0.18591 0.94403 0.0
H1192 H 0.3709 0.27624 0.87352 0.0
H1193 H 0.41827 0.27349 0.91121 0.0
H1194 H 0.42754 0.1634 0.96596 0.0
H1195 H 0.41237 0.21236 0.95769 0.0
H1196 H 0.28584 0.08461 0.78588 0.0
H1197 H 0.27773 0.13918 0.77686 0.0
H1198 H 0.3447 0.06933 0.80268 0.0
H1199 H 0.38307 0.06118 0.84692 0.0
C1200 C 0.91384 0.36682 0.86089 0.0
C1201 C 0.86142 0.34339 0.85028 0.0
C1202 C 0.85716 0.37578 0.91055 0.0
C1203 C 0.90774 0.39093 0.92453 0.0
N1204 N 0.9864 0.40464 0.91276 0.0
N1205 N 0.78186 0.32207 0.86682 0.0
C1206 C 0.93677 0.38768 0.89954 0.0
C1207 C 0.83273 0.34779 0.87511 0.0
N1208 N 0.94187 0.37136 0.83305 0.0
N1209 N 0.83251 0.38793 0.93128 0.0
H1210 H 0.76212 0.29781 0.84332 0.0
H1211 H 0.75889 0.31923 0.88621 0.0
H1212 H 0.84925 0.40697 0.95823 0.0
H1213 H 0.79713 0.38338 0.91993 0.0
H1214 H 0.98072 0.39276 0.83682 0.0
H1215 H 0.92604 0.35795 0.80391 0.0
H1216 H 1.00776 0.39616 0.89948 0.0
H1217 H 1.00617 0.426 0.93812 0.0
C1218 C 0.68292 0.90933 0.89519 0.0
C1219 C 0.7346 0.92961 0.91049 0.0
C1220 C 0.72137 0.94122 0.97657 0.0
C1221 C 0.67035 0.92484 0.95998 0.0
N1222 N 0.60333 0.89609 0.90118 0.0
N1223 N 0.80195 0.95619 0.96767 0.0
C1224 C 0.65102 0.90821 0.91928 0.0
C1225 C 0.75363 0.94354 0.95168 0.0
N1226 N 0.663 0.89368 0.85626 0.0
N1227 N 0.7391 0.95511 0.01618 0.0
H1228 H 0.82611 0.95684 0.95066 0.0
H1229 H 0.81778 0.96315 0.99838 0.0
H1230 H 0.71578 0.94363 0.03834 0.0
H1231 H 0.77673 0.97911 0.02676 0.0
H1232 H 0.68319 0.89563 0.83462 0.0
H1233 H 0.68319 0.89563 0.83462 0.0
H1234 H 0.58821 0.88316 0.87168 0.0
H1235 H 0.57966 0.90209 0.91354 0.0
C1236 C 0.95506 0.68382 0.1192 0.0
C1237 C 0.92993 0.71164 0.09782 0.0
C1238 C 0.9028 0.66315 0.03721 0.0
C1239 C 0.93062 0.63795 0.05773 0.0
N1240 N 0.96579 0.60855 0.12242 0.0
N1241 N 0.86682 0.71569 0.04286 0.0
C1242 C 0.95104 0.6432 0.10025 0.0
C1243 C 0.89935 0.69719 0.05882 0.0
N1244 N 0.98452 0.69772 0.15666 0.0
N1245 N 0.8815 0.65622 0.99668 0.0
H1246 H 0.86318 0.74022 0.05818 0.0
H1247 H 0.84023 0.70322 0.01654 0.0
H1248 H 0.88405 0.63233 0.97993 0.0
H1249 H 0.86236 0.67496 0.97913 0.0
H1250 H 1.00692 0.68169 0.17218 0.0
H1251 H 0.9892 0.72795 0.17114 0.0
H1252 H 0.97659 0.60676 0.15454 0.0
H1253 H 0.9625 0.57818 0.10899 0.0
C1254 C 0.34461 0.82735 0.14093 0.0
C1255 C 0.36326 0.84709 0.18041 0.0
C1256 C 0.43578 0.92289 0.14847 0.0
C1257 C 0.41959 0.89812 0.11148 0.0
N1258 N 0.36388 0.82075 0.07691 0.0
N1259 N 0.4256 0.91877 0.21952 0.0
C1260 C 0.37578 0.84841 0.1094 0.0
C1261 C 0.40908 0.8961 0.1835 0.0
N1262 N 0.29568 0.7919 0.13156 0.0
N1263 N 0.47468 0.97334 0.14932 0.0
H1264 H 0.40159 0.90774 0.24081 0.0
H1265 H 0.4618 0.94892 0.2275 0.0
H1266 H 0.49521 0.99393 0.1248 0.0
H1267 H 0.48515 0.99621 0.17323 0.0
H1268 H 0.27862 0.78094 0.10172 0.0
H1269 H 0.27122 0.78023 0.15207 0.0
H1270 H 0.33369 0.78284 0.07449 0.0
H1271 H 0.38782 0.8339 0.05499 0.0
C1272 C 0.6712 0.22281 0.10229 0.0
C1273 C 0.66046 0.20243 0.14296 0.0
C1274 C 0.62734 0.11386 0.12585 0.0
C1275 C 0.64092 0.13472 0.08543 0.0
N1276 N 0.68835 0.21004 0.03982 0.0
N1277 N 0.60441 0.12904 0.184 0.0
C1278 C 0.66746 0.1898 0.07545 0.0
C1279 C 0.63199 0.14787 0.15249 0.0
N1280 N 0.67935 0.27222 0.08822 0.0
N1281 N 0.61051 0.0619 0.13897 0.0
H1282 H 0.60354 0.1546 0.20036 0.0
H1283 H 0.5783 0.08947 0.18996 0.0
H1284 H 0.61032 0.03683 0.12141 0.0
H1285 H 0.60299 0.04567 0.1692 0.0
H1286 H 0.68217 0.28784 0.05717 0.0
H1287 H 0.67767 0.2947 0.10728 0.0
H1288 H 0.71067 0.25023 0.03192 0.0
H1289 H 0.68758 0.18551 0.02129 0.0
C1290 C 0.62927 0.62169 0.83575 0.0
C1291 C 0.67342 0.67075 0.84061 0.0
C1292 C 0.6748 0.65358 0.91644 0.0
C1293 C 0.63619 0.60128 0.91189 0.0
N1294 N 0.57695 0.53399 0.86713 0.0
N1295 N 0.71225 0.74189 0.88243 0.0
C1296 C 0.61325 0.58493 0.87149 0.0
C1297 C 0.68953 0.68938 0.88029 0.0
N1298 N 0.59899 0.61323 0.79831 0.0
N1299 N 0.69724 0.66934 0.95516 0.0
H1300 H 0.71159 0.7667 0.85551 0.0
H1301 H 0.72238 0.7587 0.90997 0.0
H1302 H 0.68597 0.64478 0.98247 0.0
H1303 H 0.72926 0.70556 0.96002 0.0
H1304 H 0.5637 0.58021 0.79392 0.0
H1305 H 0.60589 0.64284 0.77355 0.0
H1306 H 0.56354 0.51875 0.83856 0.0
H1307 H 0.5635 0.50599 0.89242 0.0
C1308 C 0.418 0.63205 0.91494 0.0
C1309 C 0.40213 0.59943 0.88298 0.0
C1310 C 0.48751 0.61992 0.88449 0.0
C1311 C 0.50068 0.6427 0.92133 0.0
N1312 N 0.48734 0.68808 0.9639 0.0
N1313 N 0.42663 0.5803 0.82715 0.0
C1314 C 0.46885 0.65554 0.93347 0.0
C1315 C 0.43808 0.5991 0.86439 0.0
N1316 N 0.3846 0.64052 0.92697 0.0
N1317 N 0.52241 0.61737 0.86914 0.0
H1318 H 0.39133 0.56514 0.80921 0.0
H1319 H 0.39133 0.56514 0.80921 0.0
H1320 H 0.55971 0.63454 0.88314 0.0
H1321 H 0.51414 0.59996 0.84218 0.0
H1322 H 0.3945 0.66787 0.94692 0.0
H1323 H 0.34641 0.62097 0.91598 0.0
H1324 H 0.46646 0.69797 0.9763 0.0
H1325 H 0.52524 0.70692 0.97601 0.0
C1326 C 0.30087 0.3518 0.87937 0.0
C1327 C 0.31715 0.36631 0.84016 0.0
C1328 C 0.39186 0.4435 0.86651 0.0
C1329 C 0.38231 0.42006 0.90759 0.0
N1330 N 0.3242 0.3576 0.95376 0.0
N1331 N 0.35596 0.44412 0.79356 0.0
C1332 C 0.33499 0.37665 0.91417 0.0
C1333 C 0.35598 0.41815 0.83242 0.0
N1334 N 0.25179 0.31852 0.882 0.0
N1335 N 0.43674 0.48681 0.86008 0.0
H1336 H 0.32685 0.42712 0.76949 0.0
H1337 H 0.38079 0.48395 0.78706 0.0
H1338 H 0.46373 0.50638 0.88442 0.0
H1339 H 0.44742 0.50231 0.8307 0.0
H1340 H 0.23677 0.30886 0.90935 0.0
H1341 H 0.22613 0.30854 0.85482 0.0
H1342 H 0.29277 0.32205 0.96108 0.0
H1343 H 0.34819 0.37713 0.97938 0.0
C1344 C 0.59642 0.32047 0.8825 0.0
C1345 C 0.62563 0.36399 0.85517 0.0
C1346 C 0.63569 0.42469 0.90021 0.0
C1347 C 0.60811 0.38126 0.9287 0.0
N1348 N 0.57169 0.28875 0.95143 0.0
N1349 N 0.68395 0.45657 0.84349 0.0
C1350 C 0.59162 0.32937 0.92123 0.0
C1351 C 0.64892 0.41577 0.86593 0.0
N1352 N 0.57159 0.27091 0.87069 0.0
N1353 N 0.64597 0.47409 0.90366 0.0
H1354 H 0.69431 0.45169 0.81785 0.0
H1355 H 0.70608 0.49431 0.85266 0.0
H1356 H 0.63607 0.483 0.92727 0.0
H1357 H 0.66028 0.50559 0.88081 0.0
H1358 H 0.54533 0.23829 0.88708 0.0
H1359 H 0.57438 0.26289 0.84267 0.0
H1360 H 0.56286 0.25054 0.94958 0.0
H1361 H 0.56847 0.29446 0.98025 0.0
C1362 C 0.49592 0.2658 0.17908 0.0
C1363 C 0.51096 0.30285 0.20692 0.0
C1364 C 0.51199 0.36737 0.15033 0.0
C1365 C 0.51432 0.33835 0.12302 0.0
N1366 N 0.4938 0.25297 0.10829 0.0
N1367 N 0.4914 0.36766 0.21502 0.0
C1368 C 0.49994 0.2844 0.13593 0.0
C1369 C 0.50218 0.34471 0.19085 0.0
N1370 N 0.48527 0.21608 0.19535 0.0
N1371 N 0.51988 0.41685 0.13844 0.0
H1372 H 0.48414 0.35242 0.24543 0.0
H1373 H 0.48414 0.35242 0.24543 0.0
H1374 H 0.53412 0.43847 0.11129 0.0
H1375 H 0.51376 0.43613 0.15718 0.0
H1376 H 0.47471 0.18611 0.17772 0.0
H1377 H 0.48571 0.20532 0.22743 0.0
H1378 H 0.48444 0.21378 0.11604 0.0
H1379 H 0.49846 0.26652 0.07718 0.0
C1380 C 0.73837 0.63107 0.14969 0.0
C1381 C 0.71508 0.62285 0.18416 0.0
C1382 C 0.6375 0.55598 0.15181 0.0
C1383 C 0.65676 0.5719 0.11353 0.0
N1384 N 0.72775 0.61862 0.07716 0.0
N1385 N 0.66073 0.54798 0.22609 0.0
C1386 C 0.7085 0.60652 0.11315 0.0
C1387 C 0.67026 0.57572 0.18825 0.0
N1388 N 0.78891 0.65646 0.15421 0.0
N1389 N 0.58747 0.52921 0.15278 0.0
H1390 H 0.68751 0.55989 0.25252 0.0
H1391 H 0.63016 0.51011 0.22908 0.0
H1392 H 0.56128 0.52045 0.12585 0.0
H1393 H 0.57278 0.5204 0.18022 0.0
H1394 H 0.80866 0.66086 0.13129 0.0
H1395 H 0.80968 0.66527 0.1836 0.0
H1396 H 0.7639 0.64842 0.07308 0.0
H1397 H 0.7062 0.59902 0.05096 0.0
C1398 C 0.45193 0.65387 0.14773 0.0
C1399 C 0.42472 0.68041 0.13034 0.0
C1400 C 0.40569 0.64681 0.06352 0.0
C1401 C 0.44077 0.62908 0.07839 0.0
N1402 N 0.49701 0.61455 0.13605 0.0
N1403 N 0.37971 0.7072 0.07089 0.0
C1404 C 0.46321 0.63158 0.12109 0.0
C1405 C 0.40234 0.67797 0.08808 0.0
N1406 N 0.46774 0.65053 0.1897 0.0
N1407 N 0.37524 0.63369 0.02645 0.0
H1408 H 0.37689 0.73073 0.0879 0.0
H1409 H 0.36759 0.71155 0.03915 0.0
H1410 H 0.37478 0.60898 0.00849 0.0
H1411 H 0.34625 0.6421 0.01593 0.0
H1412 H 0.4816 0.62567 0.20492 0.0
H1413 H 0.46389 0.66967 0.21018 0.0
H1414 H 0.52068 0.62342 0.16428 0.0
H1415 H 0.50338 0.59327 0.11961 0.0
C1416 C 0.3783 0.32475 0.14754 0.0
C1417 C 0.36821 0.3498 0.17306 0.0
C1418 C 0.41728 0.43369 0.13285 0.0
C1419 C 0.41727 0.40722 0.10238 0.0
N1420 N 0.39363 0.32546 0.07907 0.0
N1421 N 0.37113 0.42936 0.18248 0.0
C1422 C 0.39687 0.35205 0.10929 0.0
C1423 C 0.38638 0.40477 0.16413 0.0
N1424 N 0.37183 0.2756 0.16052 0.0
N1425 N 0.44757 0.48669 0.13245 0.0
H1426 H 0.34534 0.40946 0.20286 0.0
H1427 H 0.37971 0.46832 0.17362 0.0
H1428 H 0.47197 0.50882 0.11064 0.0
H1429 H 0.45263 0.50683 0.15674 0.0
H1430 H 0.38256 0.25723 0.14494 0.0
H1431 H 0.3616 0.25628 0.18955 0.0
H1432 H 0.37498 0.28459 0.08108 0.0
H1433 H 0.40609 0.34433 0.05057 0.0
C1434 C 0.77797 0.54766 0.55758 0.0
C1435 C 0.79481 0.55706 0.60002 0.0
C1436 C 0.87451 0.56425 0.59518 0.0
C1437 C 0.85703 0.55287 0.55298 0.0
N1438 N 0.78869 0.52629 0.49599 0.0
N1439 N 0.85905 0.56992 0.66021 0.0
C1440 C 0.80775 0.54221 0.53489 0.0
C1441 C 0.84291 0.56479 0.61882 0.0
N1442 N 0.73488 0.54749 0.53793 0.0
N1443 N 0.9197 0.56952 0.61467 0.0
H1444 H 0.83789 0.56788 0.68105 0.0
H1445 H 0.83789 0.56788 0.68105 0.0
H1446 H 0.94187 0.56211 0.60148 0.0
H1447 H 0.93388 0.57865 0.6453 0.0
H1448 H 0.72311 0.54618 0.50603 0.0
H1449 H 0.71284 0.55334 0.55277 0.0
H1450 H 0.75036 0.50538 0.48604 0.0
H1451 H 0.81053 0.53144 0.47451 0.0
C1452 C 0.33896 0.84982 0.62152 0.0
C1453 C 0.3556 0.85 0.66526 0.0
C1454 C 0.44127 0.91524 0.64739 0.0
C1455 C 0.42364 0.90637 0.60476 0.0
N1456 N 0.35864 0.84887 0.55622 0.0
N1457 N 0.42112 0.89989 0.71756 0.0
C1458 C 0.37367 0.8677 0.59394 0.0
C1459 C 0.40696 0.88703 0.67782 0.0
N1460 N 0.29087 0.83728 0.60493 0.0
N1461 N 0.49041 0.95039 0.65851 0.0
H1462 H 0.39533 0.88466 0.73811 0.0
H1463 H 0.45667 0.92806 0.72931 0.0
H1464 H 0.51523 0.96998 0.63684 0.0
H1465 H 0.50746 0.95782 0.68894 0.0
H1466 H 0.28006 0.84282 0.57295 0.0
H1467 H 0.2623 0.82397 0.6222 0.0
H1468 H 0.32241 0.81907 0.54741 0.0
H1469 H 0.38413 0.85926 0.53627 0.0
C1470 C 0.1842 0.3574 0.71305 0.0
C1471 C 0.20138 0.32995 0.69633 0.0
C1472 C 0.17774 0.36847 0.62675 0.0
C1473 C 0.15105 0.38584 0.64222 0.0
N1474 N 0.13074 0.39686 0.70317 0.0
N1475 N 0.19612 0.29886 0.63314 0.0
C1476 C 0.15518 0.38058 0.68643 0.0
C1477 C 0.19352 0.33306 0.65205 0.0
N1478 N 0.19567 0.3613 0.75483 0.0
N1479 N 0.19061 0.38769 0.58801 0.0
H1480 H 0.20407 0.27023 0.6499 0.0
H1481 H 0.18627 0.29669 0.60112 0.0
H1482 H 0.18249 0.41571 0.56959 0.0
H1483 H 0.21462 0.38051 0.57712 0.0
H1484 H 0.18863 0.38398 0.76913 0.0
H1485 H 0.21668 0.34566 0.77462 0.0
H1486 H 0.12751 0.38982 0.73466 0.0
H1487 H 0.11095 0.41472 0.68471 0.0
C1488 C 0.72024 0.14392 0.63724 0.0
C1489 C 0.69311 0.14449 0.66561 0.0
C1490 C 0.61674 0.10764 0.61589 0.0
C1491 C 0.64626 0.11905 0.58482 0.0
N1492 N 0.72529 0.14675 0.56491 0.0
N1493 N 0.61461 0.12081 0.68441 0.0
C1494 C 0.69779 0.13641 0.59522 0.0
C1495 C 0.6409 0.12396 0.65572 0.0
N1496 N 0.76658 0.14921 0.6504 0.0
N1497 N 0.56562 0.08041 0.60746 0.0
H1498 H 0.63097 0.1294 0.71472 0.0
H1499 H 0.57768 0.11261 0.6779 0.0
H1500 H 0.54589 0.06746 0.57865 0.0
H1501 H 0.54221 0.06647 0.62985 0.0
H1502 H 0.78656 0.14585 0.6315 0.0
H1503 H 0.7822 0.14937 0.68151 0.0
H1504 H 0.76416 0.16555 0.56961 0.0
H1505 H 0.70916 0.13957 0.53417 0.0
C1506 C 0.82374 0.30776 0.38925 0.0
C1507 C 0.84556 0.29877 0.36081 0.0
C1508 C 0.92756 0.34641 0.40147 0.0
C1509 C 0.90634 0.35923 0.42748 0.0
N1510 N 0.83483 0.35354 0.4461 0.0
N1511 N 0.91251 0.28412 0.35702 0.0
C1512 C 0.8545 0.33975 0.42168 0.0
C1513 C 0.89582 0.31037 0.37185 0.0
N1514 N 0.77319 0.28235 0.38723 0.0
N1515 N 0.97829 0.37064 0.40356 0.0
H1516 H 0.88867 0.25173 0.34054 0.0
H1517 H 0.94818 0.28885 0.36677 0.0
H1518 H 1.00329 0.39906 0.42358 0.0
H1519 H 0.99528 0.36666 0.38223 0.0
H1520 H 0.75481 0.28024 0.41033 0.0
H1521 H 0.74904 0.25978 0.36362 0.0
H1522 H 0.79832 0.34654 0.44046 0.0
H1523 H 0.8562 0.37533 0.47095 0.0
C1524 C 0.65112 0.81995 0.44165 0.0
C1525 C 0.61342 0.79657 0.40771 0.0
C1526 C 0.58686 0.86121 0.40362 0.0
C1527 C 0.61975 0.87962 0.44085 0.0
N1528 N 0.69665 0.89281 0.48391 0.0
N1529 N 0.54618 0.79511 0.3551 0.0
C1530 C 0.65609 0.86393 0.45656 0.0
C1531 C 0.58208 0.81794 0.38778 0.0
N1532 N 0.68118 0.79906 0.46038 0.0
N1533 N 0.56148 0.88674 0.38302 0.0
H1534 H 0.54187 0.76358 0.34268 0.0
H1535 H 0.51892 0.8053 0.34142 0.0
H1536 H 0.56618 0.91963 0.39365 0.0
H1537 H 0.53973 0.87885 0.35396 0.0
H1538 H 0.70507 0.80976 0.48829 0.0
H1539 H 0.68038 0.76863 0.44919 0.0
H1540 H 0.72654 0.88597 0.49471 0.0
H1541 H 0.70362 0.92822 0.49141 0.0
C1542 C 0.13459 0.61226 0.32875 0.0
C1543 C 0.18264 0.65938 0.33268 0.0
C1544 C 0.17213 0.6525 0.40625 0.0
C1545 C 0.12866 0.6022 0.40331 0.0
N1546 N 0.07533 0.5295 0.36261 0.0
N1547 N 0.24876 0.71865 0.3805 0.0
C1548 C 0.11187 0.5808 0.36482 0.0
C1549 C 0.20182 0.67763 0.37304 0.0
N1550 N 0.10917 0.59746 0.29038 0.0
N1551 N 0.18412 0.67775 0.44038 0.0
H1552 H 0.27116 0.73803 0.35764 0.0
H1553 H 0.2671 0.7295 0.41013 0.0
H1554 H 0.16214 0.66174 0.46416 0.0
H1555 H 0.21213 0.71669 0.4428 0.0
H1556 H 0.07224 0.56718 0.28573 0.0
H1557 H 0.12268 0.6183 0.26288 0.0
H1558 H 0.06605 0.50983 0.3368 0.0
H1559 H 0.05754 0.50521 0.38786 0.0
C1560 C 0.32777 0.15133 0.35349 0.0
C1561 C 0.35189 0.19696 0.32513 0.0
C1562 C 0.43157 0.19335 0.35371 0.0
C1563 C 0.40733 0.14655 0.38132 0.0
N1564 N 0.32824 0.07953 0.40392 0.0
N1565 N 0.42694 0.25624 0.29519 0.0
C1566 C 0.35437 0.12546 0.38007 0.0
C1567 C 0.40386 0.21637 0.32486 0.0
N1568 N 0.27878 0.13249 0.35578 0.0
N1569 N 0.48186 0.21623 0.35445 0.0
H1570 H 0.4102 0.27678 0.27594 0.0
H1571 H 0.46129 0.26671 0.28776 0.0
H1572 H 0.50207 0.19762 0.36962 0.0
H1573 H 0.5039 0.25421 0.34113 0.0
H1574 H 0.2609 0.10662 0.38036 0.0
H1575 H 0.25708 0.14663 0.3353 0.0
H1576 H 0.28947 0.05691 0.39966 0.0
H1577 H 0.34474 0.06221 0.42744 0.0
C1578 C 0.65526 0.80643 0.68202 0.0
C1579 C 0.70556 0.82438 0.67662 0.0
C1580 C 0.69365 0.88492 0.61497 0.0
C1581 C 0.6455 0.8716 0.6229 0.0
N1582 N 0.5835 0.82102 0.66845 0.0
N1583 N 0.77281 0.8856 0.63747 0.0
C1584 C 0.62708 0.83211 0.65743 0.0
C1585 C 0.72436 0.86509 0.64304 0.0
N1586 N 0.634 0.76458 0.71083 0.0
N1587 N 0.70953 0.91438 0.5786 0.0
H1588 H 0.79469 0.86863 0.65234 0.0
H1589 H 0.79224 0.92099 0.61951 0.0
H1590 H 0.68875 0.92821 0.55643 0.0
H1591 H 0.74083 0.92058 0.56808 0.0
H1592 H 0.5964 0.74527 0.71411 0.0
H1593 H 0.65333 0.7463 0.72918 0.0
H1594 H 0.56934 0.7971 0.69511 0.0
H1595 H 0.56367 0.83989 0.65257 0.0
C1596 C 0.71785 0.16517 0.3674 0.0
C1597 C 0.69616 0.16623 0.3246 0.0
C1598 C 0.61312 0.10401 0.34947 0.0
C1599 C 0.63549 0.1112 0.39181 0.0
N1600 N 0.70878 0.16364 0.43797 0.0
N1601 N 0.62517 0.11295 0.27773 0.0
C1602 C 0.68764 0.14656 0.39951 0.0
C1603 C 0.64389 0.12936 0.31634 0.0
N1604 N 0.76712 0.17939 0.37845 0.0
N1605 N 0.56259 0.07324 0.34064 0.0
H1606 H 0.64847 0.12553 0.25543 0.0
H1607 H 0.58915 0.08263 0.26964 0.0
H1608 H 0.53971 0.05408 0.36374 0.0
H1609 H 0.54294 0.07037 0.3106 0.0
H1610 H 0.78292 0.17504 0.40922 0.0
H1611 H 0.79107 0.18959 0.35741 0.0
H1612 H 0.74619 0.19197 0.44487 0.0
H1613 H 0.68736 0.15425 0.46119 0.0
C1614 C 0.83993 0.64152 0.31542 0.0
C1615 C 0.84301 0.6848 0.33065 0.0
C1616 C 0.88647 0.66194 0.3978 0.0
C1617 C 0.88905 0.62307 0.3814 0.0
N1618 N 0.87129 0.58057 0.32122 0.0
N1619 N 0.88392 0.74314 0.3846 0.0
C1620 C 0.86583 0.61366 0.33939 0.0
C1621 C 0.87098 0.69703 0.37112 0.0
N1622 N 0.814 0.62815 0.27704 0.0
N1623 N 0.89594 0.66377 0.43984 0.0
H1624 H 0.87278 0.76961 0.36749 0.0
H1625 H 0.90903 0.75687 0.41154 0.0
H1626 H 0.90276 0.63644 0.46099 0.0
H1627 H 0.8903 0.68784 0.45387 0.0
H1628 H 0.80406 0.59362 0.26572 0.0
H1629 H 0.80079 0.65116 0.25715 0.0
H1630 H 0.86012 0.57517 0.28979 0.0
H1631 H 0.8911 0.56167 0.33712 0.0
C1632 C 0.32608 0.85486 0.37332 0.0
C1633 C 0.35356 0.85824 0.34335 0.0
C1634 C 0.43206 0.90864 0.38759 0.0
C1635 C 0.40452 0.89753 0.41992 0.0
N1636 N 0.32714 0.86674 0.44396 0.0
N1637 N 0.43277 0.88543 0.32317 0.0
C1638 C 0.35194 0.87327 0.41272 0.0
C1639 C 0.40657 0.88539 0.35044 0.0
N1640 N 0.27533 0.83255 0.36457 0.0
N1641 N 0.48289 0.94093 0.39261 0.0
H1642 H 0.41558 0.86607 0.29681 0.0
H1643 H 0.47103 0.89921 0.32866 0.0
H1644 H 0.50439 0.95616 0.42034 0.0
H1645 H 0.50381 0.95637 0.36821 0.0
H1646 H 0.25315 0.83255 0.3832 0.0
H1647 H 0.25502 0.81464 0.33768 0.0
H1648 H 0.2886 0.84449 0.44303 0.0
H1649 H 0.34584 0.88337 0.47177 0.0
C1650 C 0.20633 0.36594 0.47079 0.0
C1651 C 0.22415 0.39963 0.43423 0.0
C1652 C 0.16238 0.42712 0.42788 0.0
C1653 C 0.15466 0.40485 0.46895 0.0
N1654 N 0.14419 0.32917 0.51728 0.0
N1655 N 0.21238 0.45724 0.37432 0.0
C1656 C 0.16905 0.36679 0.48709 0.0
C1657 C 0.19981 0.42784 0.41133 0.0
N1658 N 0.22519 0.33362 0.48984 0.0
N1659 N 0.13194 0.44497 0.40367 0.0
H1660 H 0.24093 0.46239 0.36013 0.0
H1661 H 0.24093 0.46239 0.36013 0.0
H1662 H 0.10335 0.44432 0.41471 0.0
H1663 H 0.13334 0.45676 0.37194 0.0
H1664 H 0.21662 0.31114 0.51829 0.0
H1665 H 0.25055 0.33002 0.47751 0.0
H1666 H 0.14831 0.29632 0.52828 0.0
H1667 H 0.11604 0.32851 0.52896 0.0
C1668 C 0.36649 0.1655 0.56283 0.0
C1669 C 0.39709 0.18614 0.6004 0.0
C1670 C 0.43758 0.13429 0.60304 0.0
C1671 C 0.41535 0.12361 0.56136 0.0
N1672 N 0.35441 0.12422 0.50243 0.0
N1673 N 0.46093 0.18885 0.65768 0.0
C1674 C 0.37765 0.13675 0.5418 0.0
C1675 C 0.43169 0.16925 0.62141 0.0
N1676 N 0.32744 0.17458 0.5471 0.0
N1677 N 0.46379 0.1102 0.62505 0.0
H1678 H 0.45901 0.21561 0.67159 0.0
H1679 H 0.48903 0.18076 0.67331 0.0
H1680 H 0.46741 0.08349 0.61248 0.0
H1681 H 0.47721 0.11206 0.65671 0.0
H1682 H 0.30102 0.15807 0.52159 0.0
H1683 H 0.31881 0.19556 0.56197 0.0
H1684 H 0.32728 0.13319 0.48567 0.0
H1685 H 0.36322 0.10583 0.48525 0.0
C1686 C 0.90231 0.34676 0.67714 0.0
C1687 C 0.84921 0.31484 0.67095 0.0
C1688 C 0.84966 0.35969 0.60005 0.0
C1689 C 0.90301 0.38452 0.60291 0.0
N1690 N 0.97827 0.38902 0.64643 0.0
N1691 N 0.776 0.28065 0.61883 0.0
C1692 C 0.92905 0.37471 0.64214 0.0
C1693 C 0.82421 0.3176 0.62995 0.0
N1694 N 0.9276 0.35038 0.71656 0.0
N1695 N 0.82256 0.37803 0.57074 0.0
H1696 H 0.75597 0.24947 0.63943 0.0
H1697 H 0.75811 0.27846 0.58811 0.0
H1698 H 0.83819 0.4169 0.5574 0.0
H1699 H 0.78369 0.35898 0.56632 0.0
H1700 H 0.96559 0.37676 0.72369 0.0
H1701 H 0.90913 0.33073 0.74224 0.0
H1702 H 0.99698 0.3786 0.6735 0.0
H1703 H 0.99926 0.40539 0.62219 0.0
C1704 C 0.13386 0.68222 0.63522 0.0
C1705 C 0.18619 0.70602 0.63959 0.0
C1706 C 0.17765 0.66099 0.58149 0.0
C1707 C 0.12608 0.63128 0.58275 0.0
N1708 N 0.05547 0.60545 0.61637 0.0
N1709 N 0.25779 0.72924 0.60913 0.0
C1710 C 0.10437 0.63935 0.61147 0.0
C1711 C 0.208 0.69864 0.61024 0.0
N1712 N 0.11215 0.70279 0.65066 0.0
N1713 N 0.1975 0.65109 0.55433 0.0
H1714 H 0.28145 0.75168 0.63295 0.0
H1715 H 0.2754 0.73358 0.58468 0.0
H1716 H 0.17562 0.62189 0.5344 0.0
H1717 H 0.2354 0.66905 0.55276 0.0
H1718 H 0.07374 0.68857 0.6454 0.0
H1719 H 0.13284 0.73841 0.66341 0.0
H1720 H 0.03931 0.60724 0.63953 0.0
H1721 H 0.03282 0.57237 0.60026 0.0
loop_
_geom_bond_atom_site_label_1
_geom_bond_atom_site_label_2
_geom_bond_distance
_geom_bond_site_symmetry_2
_ccdc_geom_bond_type
Tb0 N31 2.660 . S
Tb0 N38 2.600 . S
Tb0 O44 2.546 . S
Tb0 O45 2.610 . S
Tb0 O47 2.320 . S
Tb0 O48 2.552 . S
Tb0 O49 2.413 . S
Tb0 O51 2.362 . S
Tb0 O52 2.421 . S
Tb0 C64 2.833 . S
C1 C4 1.432 . S
C1 C5 1.414 . S
C1 N8 1.359 . S
C2 C4 1.417 . S
C2 C6 1.432 . S
C2 C14 1.410 . S
C3 C5 1.444 . S
C3 C6 1.317 . S
C3 H26 0.929 . S
C4 C1 1.432 . S
C4 C2 1.417 . S
C4 N12 1.360 . S
C5 C1 1.414 . S
C5 C3 1.444 . S
C5 C10 1.385 . S
C6 C2 1.432 . S
C6 C3 1.317 . S
C6 H18 0.930 . S
C7 C9 1.392 . S
C7 C10 1.370 . S
C7 H19 0.931 . S
N8 C1 1.359 . S
N8 C9 1.327 . S
N8 Tb11 2.600 . S
C9 C7 1.392 . S
C9 N8 1.327 . S
C9 H16 0.930 . S
C10 C5 1.385 . S
C10 C7 1.370 . S
C10 H29 0.930 . S
Tb11 N8 2.600 . S
Tb11 N12 2.660 . S
Tb11 O45 2.362 . S
Tb11 O46 2.421 . S
Tb11 O50 2.546 . S
Tb11 O51 2.610 . S
Tb11 O53 2.320 . S
Tb11 O54 2.552 . S
Tb11 O55 2.413 . S
Tb11 C75 2.833 . S
N12 C4 1.360 . S
N12 Tb11 2.660 . S
N12 C13 1.305 . S
C13 N12 1.305 . S
C13 C15 1.407 . S
C13 H20 0.930 . S
C14 C2 1.410 . S
C14 C15 1.345 . S
C14 H22 0.930 . S
C15 C13 1.407 . S
C15 C14 1.345 . S
C15 H17 0.930 . S
H16 C9 0.930 . S
H17 C15 0.930 . S
H18 C6 0.930 . S
H19 C7 0.931 . S
H20 C13 0.930 . S
H21 C35 0.930 . S
H22 C14 0.930 . S
H23 C41 0.930 . S
H24 C32 0.930 . S
H25 C39 0.931 . S
H26 C3 0.929 . S
H27 C33 0.930 . S
H28 C66 0.930 . S
H29 C10 0.930 . S
H30 C65 0.929 . S
N31 Tb0 2.660 . S
N31 C32 1.305 . S
N31 C36 1.360 . S
C32 H24 0.930 . S
C32 N31 1.305 . S
C32 C35 1.407 . S
C33 H27 0.930 . S
C33 C34 1.410 . S
C33 C35 1.345 . S
C34 C33 1.410 . S
C34 C36 1.417 . S
C34 C66 1.432 . S
C35 H21 0.930 . S
C35 C32 1.407 . S
C35 C33 1.345 . S
C36 N31 1.360 . S
C36 C34 1.417 . S
C36 C40 1.432 . S
H37 C42 0.930 . S
N38 Tb0 2.600 . S
N38 C40 1.359 . S
N38 C41 1.327 . S
C39 H25 0.931 . S
C39 C41 1.392 . S
C39 C42 1.370 . S
C40 C36 1.432 . S
C40 N38 1.359 . S
C40 C43 1.414 . S
C41 H23 0.930 . S
C41 N38 1.327 . S
C41 C39 1.392 . S
C42 H37 0.930 . S
C42 C39 1.370 . S
C42 C43 1.385 . S
C43 C40 1.414 . S
C43 C42 1.385 . S
C43 C65 1.444 . S
O44 Tb0 2.546 . S
O44 C64 1.251 . S
O45 Tb0 2.610 . S
O45 Tb11 2.362 . S
O45 C56 1.283 . S
O46 Tb11 2.421 . S
O46 C63 1.262 . S
O47 Tb0 2.320 . S
O47 C63 1.260 . S
O48 Tb0 2.552 . S
O48 C56 1.243 . S
O49 Tb0 2.413 . S
O49 C64 1.256 . S
O50 Tb11 2.546 . S
O50 C75 1.251 . S
O51 Tb0 2.362 . S
O51 Tb11 2.610 . S
O51 C67 1.283 . S
O52 Tb0 2.421 . S
O52 C74 1.262 . S
O53 Tb11 2.320 . S
O53 C74 1.260 . S
O54 Tb11 2.552 . S
O54 C67 1.243 . S
O55 Tb11 2.413 . S
O55 C75 1.256 . S
C56 O45 1.283 . S
C56 O48 1.243 . S
C57 C59 1.382 . S
C57 C61 1.393 . S
C57 C64 1.500 . S
C58 C59 1.400 . S
C58 C60 1.384 . S
C59 C57 1.382 . S
C59 C58 1.400 . S
C59 H76 0.930 . S
C60 C58 1.384 . S
C60 C62 1.392 . S
C60 H77 0.931 . S
C61 C57 1.393 . S
C61 C62 1.401 . S
C61 H78 0.930 . S
C62 C60 1.392 . S
C62 C61 1.401 . S
C62 H79 0.930 1_545 S
C63 O46 1.262 . S
C63 O47 1.260 . S
C64 Tb0 2.833 . S
C64 O44 1.251 . S
C64 O49 1.256 . S
C64 C57 1.500 . S
C65 H30 0.929 . S
C65 C43 1.444 . S
C65 C66 1.317 . S
C66 H28 0.930 . S
C66 C34 1.432 . S
C66 C65 1.317 . S
C67 O51 1.283 . S
C67 O54 1.243 . S
C68 C69 1.382 . S
C68 C72 1.393 . S
C68 C75 1.500 . S
C69 C68 1.382 . S
C69 C70 1.400 . S
C69 H80 0.930 . S
C70 C69 1.400 . S
C70 C71 1.384 . S
C71 C70 1.384 . S
C71 C73 1.392 . S
C71 H81 0.931 . S
C72 C68 1.393 . S
C72 C73 1.401 . S
C72 H82 0.930 . S
C73 C71 1.392 . S
C73 C72 1.401 . S
C73 H83 0.930 . S
C74 O52 1.262 . S
C74 O53 1.260 . S
C75 Tb11 2.833 . S
C75 O50 1.251 . S
C75 O55 1.256 . S
C75 C68 1.500 . S
H76 C59 0.930 . S
H77 C60 0.931 . S
H78 C61 0.930 . S
H79 C62 0.930 1_565 S
H80 C69 0.930 . S
H81 C71 0.931 . S
H82 C72 0.930 . S
H83 C73 0.930 . S
Tb84 N115 2.660 . S
Tb84 N122 2.600 . S
Tb84 O128 2.546 . S
Tb84 O129 2.610 . S
Tb84 O131 2.320 . S
Tb84 O132 2.552 . S
Tb84 O133 2.413 . S
Tb84 O135 2.362 . S
Tb84 O136 2.421 . S
Tb84 C148 2.833 . S
C85 C88 1.432 . S
C85 C89 1.414 . S
C85 N92 1.359 . S
C86 C88 1.417 . S
C86 C90 1.432 . S
C86 C98 1.410 . S
C87 C89 1.444 . S
C87 C90 1.317 . S
C87 H110 0.929 . S
C88 C85 1.432 . S
C88 C86 1.417 . S
C88 N96 1.360 . S
C89 C85 1.414 . S
C89 C87 1.444 . S
C89 C94 1.385 . S
C90 C86 1.432 . S
C90 C87 1.317 . S
C90 H102 0.930 . S
C91 C93 1.392 . S
C91 C94 1.370 . S
C91 H103 0.931 . S
N92 C85 1.359 . S
N92 C93 1.327 . S
N92 Tb95 2.600 . S
C93 C91 1.392 . S
C93 N92 1.327 . S
C93 H100 0.930 . S
C94 C89 1.385 . S
C94 C91 1.370 . S
C94 H113 0.930 . S
Tb95 N92 2.600 . S
Tb95 N96 2.660 . S
Tb95 O129 2.362 . S
Tb95 O130 2.421 . S
Tb95 O134 2.546 . S
Tb95 O135 2.610 . S
Tb95 O137 2.320 . S
Tb95 O138 2.552 . S
Tb95 O139 2.413 . S
Tb95 C159 2.833 . S
N96 C88 1.360 . S
N96 Tb95 2.660 . S
N96 C97 1.305 . S
C97 N96 1.305 . S
C97 C99 1.407 . S
C97 H104 0.930 . S
C98 C86 1.410 . S
C98 C99 1.345 . S
C98 H106 0.930 . S
C99 C97 1.407 . S
C99 C98 1.345 . S
C99 H101 0.930 . S
H100 C93 0.930 . S
H101 C99 0.930 . S
H102 C90 0.930 . S
H103 C91 0.931 . S
H104 C97 0.930 . S
H105 C119 0.930 . S
H106 C98 0.930 . S
H107 C125 0.930 . S
H108 C116 0.930 . S
H109 C123 0.931 . S
H110 C87 0.929 . S
H111 C117 0.930 . S
H112 C150 0.930 . S
H113 C94 0.930 . S
H114 C149 0.929 . S
N115 Tb84 2.660 . S
N115 C116 1.305 . S
N115 C120 1.360 . S
C116 H108 0.930 . S
C116 N115 1.305 . S
C116 C119 1.407 . S
C117 H111 0.930 . S
C117 C118 1.410 . S
C117 C119 1.345 . S
C118 C117 1.410 . S
C118 C120 1.417 . S
C118 C150 1.432 . S
C119 H105 0.930 . S
C119 C116 1.407 . S
C119 C117 1.345 . S
C120 N115 1.360 . S
C120 C118 1.417 . S
C120 C124 1.432 . S
H121 C126 0.930 . S
N122 Tb84 2.600 . S
N122 C124 1.359 . S
N122 C125 1.327 . S
C123 H109 0.931 . S
C123 C125 1.392 . S
C123 C126 1.370 . S
C124 C120 1.432 . S
C124 N122 1.359 . S
C124 C127 1.414 . S
C125 H107 0.930 . S
C125 N122 1.327 . S
C125 C123 1.392 . S
C126 H121 0.930 . S
C126 C123 1.370 . S
C126 C127 1.385 . S
C127 C124 1.414 . S
C127 C126 1.385 . S
C127 C149 1.444 . S
O128 Tb84 2.546 . S
O128 C148 1.251 . S
O129 Tb84 2.610 . S
O129 Tb95 2.362 . S
O129 C140 1.283 . S
O130 Tb95 2.421 . S
O130 C147 1.262 . S
O131 Tb84 2.320 . S
O131 C147 1.260 . S
O132 Tb84 2.552 . S
O132 C140 1.243 . S
O133 Tb84 2.413 . S
O133 C148 1.256 . S
O134 Tb95 2.546 . S
O134 C159 1.251 . S
O135 Tb84 2.362 . S
O135 Tb95 2.610 . S
O135 C151 1.283 . S
O136 Tb84 2.421 . S
O136 C158 1.262 . S
O137 Tb95 2.320 . S
O137 C158 1.260 . S
O138 Tb95 2.552 . S
O138 C151 1.243 . S
O139 Tb95 2.413 . S
O139 C159 1.256 . S
C140 O129 1.283 . S
C140 O132 1.243 . S
C141 C143 1.382 . S
C141 C145 1.393 . S
C141 C148 1.500 . S
C142 C143 1.400 . S
C142 C144 1.384 . S
C143 C141 1.382 . S
C143 C142 1.400 . S
C143 H160 0.930 . S
C144 C142 1.384 . S
C144 C146 1.392 . S
C144 H161 0.931 . S
C145 C141 1.393 . S
C145 C146 1.401 . S
C145 H162 0.930 . S
C146 C144 1.392 . S
C146 C145 1.401 . S
C146 H163 0.930 . S
C147 O130 1.262 . S
C147 O131 1.260 . S
C148 Tb84 2.833 . S
C148 O128 1.251 . S
C148 O133 1.256 . S
C148 C141 1.500 . S
C149 H114 0.929 . S
C149 C127 1.444 . S
C149 C150 1.317 . S
C150 H112 0.930 . S
C150 C118 1.432 . S
C150 C149 1.317 . S
C151 O135 1.283 . S
C151 O138 1.243 . S
C152 C153 1.382 . S
C152 C156 1.393 . S
C152 C159 1.500 . S
C153 C152 1.382 . S
C153 C154 1.400 . S
C153 H164 0.930 . S
C154 C153 1.400 . S
C154 C155 1.384 . S
C155 C154 1.384 . S
C155 C157 1.392 . S
C155 H165 0.931 . S
C156 C152 1.393 . S
C156 C157 1.401 . S
C156 H166 0.930 . S
C157 C155 1.392 . S
C157 C156 1.401 . S
C157 H167 0.930 . S
C158 O136 1.262 . S
C158 O137 1.260 . S
C159 Tb95 2.833 . S
C159 O134 1.251 . S
C159 O139 1.256 . S
C159 C152 1.500 . S
H160 C143 0.930 . S
H161 C144 0.931 . S
H162 C145 0.930 . S
H163 C146 0.930 . S
H164 C153 0.930 . S
H165 C155 0.931 . S
H166 C156 0.930 . S
H167 C157 0.930 . S
Tb168 N199 2.660 . S
Tb168 N206 2.600 . S
Tb168 O212 2.546 . S
Tb168 O213 2.610 . S
Tb168 O215 2.320 . S
Tb168 O216 2.552 . S
Tb168 O217 2.413 . S
Tb168 O219 2.362 . S
Tb168 O220 2.421 . S
Tb168 C232 2.833 . S
C169 C172 1.432 . S
C169 C173 1.414 . S
C169 N176 1.359 . S
C170 C172 1.417 . S
C170 C174 1.432 . S
C170 C182 1.410 . S
C171 C173 1.444 . S
C171 C174 1.317 . S
C171 H194 0.929 . S
C172 C169 1.432 . S
C172 C170 1.417 . S
C172 N180 1.360 . S
C173 C169 1.414 . S
C173 C171 1.444 . S
C173 C178 1.385 . S
C174 C170 1.432 . S
C174 C171 1.317 . S
C174 H186 0.930 . S
C175 C177 1.392 . S
C175 C178 1.370 . S
C175 H187 0.931 . S
N176 C169 1.359 . S
N176 C177 1.327 . S
N176 Tb179 2.600 . S
C177 C175 1.392 . S
C177 N176 1.327 . S
C177 H184 0.930 . S
C178 C173 1.385 . S
C178 C175 1.370 . S
C178 H197 0.930 1_565 S
Tb179 N176 2.600 . S
Tb179 N180 2.660 . S
Tb179 O213 2.362 . S
Tb179 O214 2.421 . S
Tb179 O218 2.546 . S
Tb179 O219 2.610 . S
Tb179 O221 2.320 . S
Tb179 O222 2.552 . S
Tb179 O223 2.413 . S
Tb179 C243 2.833 . S
N180 C172 1.360 . S
N180 Tb179 2.660 . S
N180 C181 1.305 . S
C181 N180 1.305 . S
C181 C183 1.407 . S
C181 H188 0.930 . S
C182 C170 1.410 . S
C182 C183 1.345 . S
C182 H190 0.930 . S
C183 C181 1.407 . S
C183 C182 1.345 . S
C183 H185 0.930 . S
H184 C177 0.930 . S
H185 C183 0.930 . S
H186 C174 0.930 . S
H187 C175 0.931 . S
H188 C181 0.930 . S
H189 C203 0.930 . S
H190 C182 0.930 . S
H191 C209 0.930 . S
H192 C200 0.930 . S
H193 C207 0.931 . S
H194 C171 0.929 . S
H195 C201 0.930 . S
H196 C234 0.930 . S
H197 C178 0.930 1_545 S
H198 C233 0.929 . S
N199 Tb168 2.660 . S
N199 C200 1.305 . S
N199 C204 1.360 . S
C200 H192 0.930 . S
C200 N199 1.305 . S
C200 C203 1.407 . S
C201 H195 0.930 . S
C201 C202 1.410 . S
C201 C203 1.345 . S
C202 C201 1.410 . S
C202 C204 1.417 . S
C202 C234 1.432 . S
C203 H189 0.930 . S
C203 C200 1.407 . S
C203 C201 1.345 . S
C204 N199 1.360 . S
C204 C202 1.417 . S
C204 C208 1.432 . S
H205 C210 0.930 . S
N206 Tb168 2.600 . S
N206 C208 1.359 . S
N206 C209 1.327 . S
C207 H193 0.931 . S
C207 C209 1.392 . S
C207 C210 1.370 . S
C208 C204 1.432 . S
C208 N206 1.359 . S
C208 C211 1.414 . S
C209 H191 0.930 . S
C209 N206 1.327 . S
C209 C207 1.392 . S
C210 H205 0.930 . S
C210 C207 1.370 . S
C210 C211 1.385 . S
C211 C208 1.414 . S
C211 C210 1.385 . S
C211 C233 1.444 . S
O212 Tb168 2.546 . S
O212 C232 1.251 . S
O213 Tb168 2.610 . S
O213 Tb179 2.362 . S
O213 C224 1.283 . S
O214 Tb179 2.421 . S
O214 C231 1.262 . S
O215 Tb168 2.320 . S
O215 C231 1.260 . S
O216 Tb168 2.552 . S
O216 C224 1.243 . S
O217 Tb168 2.413 . S
O217 C232 1.256 . S
O218 Tb179 2.546 . S
O218 C243 1.251 . S
O219 Tb168 2.362 . S
O219 Tb179 2.610 . S
O219 C235 1.283 . S
O220 Tb168 2.421 . S
O220 C242 1.262 . S
O221 Tb179 2.320 . S
O221 C242 1.260 . S
O222 Tb179 2.552 . S
O222 C235 1.243 . S
O223 Tb179 2.413 . S
O223 C243 1.256 . S
C224 O213 1.283 . S
C224 O216 1.243 . S
C225 C227 1.382 . S
C225 C229 1.393 . S
C225 C232 1.500 . S
C226 C227 1.400 . S
C226 C228 1.384 . S
C227 C225 1.382 . S
C227 C226 1.400 . S
C227 H244 0.930 . S
C228 C226 1.384 . S
C228 C230 1.392 . S
C228 H245 0.931 . S
C229 C225 1.393 . S
C229 C230 1.401 . S
C229 H246 0.930 . S
C230 C228 1.392 . S
C230 C229 1.401 . S
C230 H247 0.930 . S
C231 O214 1.262 . S
C231 O215 1.260 . S
C232 Tb168 2.833 . S
C232 O212 1.251 . S
C232 O217 1.256 . S
C232 C225 1.500 . S
C233 H198 0.929 . S
C233 C211 1.444 . S
C233 C234 1.317 . S
C234 H196 0.930 . S
C234 C202 1.432 . S
C234 C233 1.317 . S
C235 O219 1.283 . S
C235 O222 1.243 . S
C236 C237 1.382 . S
C236 C240 1.393 . S
C236 C243 1.500 . S
C237 C236 1.382 . S
C237 C238 1.400 . S
C237 H248 0.930 . S
C238 C237 1.400 . S
C238 C239 1.384 . S
C239 C238 1.384 . S
C239 C241 1.392 . S
C239 H249 0.931 . S
C240 C236 1.393 . S
C240 C241 1.401 . S
C240 H250 0.930 . S
C241 C239 1.392 . S
C241 C240 1.401 . S
C241 H251 0.930 1_655 S
C242 O220 1.262 . S
C242 O221 1.260 . S
C243 Tb179 2.833 . S
C243 O218 1.251 . S
C243 O223 1.256 . S
C243 C236 1.500 . S
H244 C227 0.930 . S
H245 C228 0.931 . S
H246 C229 0.930 . S
H247 C230 0.930 . S
H248 C237 0.930 . S
H249 C239 0.931 . S
H250 C240 0.930 . S
H251 C241 0.930 1_455 S
Tb252 N283 2.660 . S
Tb252 N290 2.600 . S
Tb252 O296 2.546 . S
Tb252 O297 2.610 . S
Tb252 O299 2.320 . S
Tb252 O300 2.552 . S
Tb252 O301 2.413 . S
Tb252 O303 2.362 . S
Tb252 O304 2.421 . S
Tb252 C316 2.833 . S
C253 C256 1.432 . S
C253 C257 1.414 . S
C253 N260 1.359 . S
C254 C256 1.417 . S
C254 C258 1.432 . S
C254 C266 1.410 . S
C255 C257 1.444 . S
C255 C258 1.317 . S
C255 H278 0.929 . S
C256 C253 1.432 . S
C256 C254 1.417 . S
C256 N264 1.360 . S
C257 C253 1.414 . S
C257 C255 1.444 . S
C257 C262 1.385 . S
C258 C254 1.432 . S
C258 C255 1.317 . S
C258 H270 0.930 1_565 S
C259 C261 1.392 . S
C259 C262 1.370 . S
C259 H271 0.931 . S
N260 C253 1.359 . S
N260 C261 1.327 . S
N260 Tb263 2.600 . S
C261 C259 1.392 . S
C261 N260 1.327 . S
C261 H268 0.930 . S
C262 C257 1.385 . S
C262 C259 1.370 . S
C262 H281 0.930 . S
Tb263 N260 2.600 . S
Tb263 N264 2.660 . S
Tb263 O297 2.362 . S
Tb263 O298 2.421 . S
Tb263 O302 2.546 . S
Tb263 O303 2.610 . S
Tb263 O305 2.320 . S
Tb263 O306 2.552 . S
Tb263 O307 2.413 . S
Tb263 C327 2.833 . S
N264 C256 1.360 . S
N264 Tb263 2.660 . S
N264 C265 1.305 . S
C265 N264 1.305 . S
C265 C267 1.407 . S
C265 H272 0.930 . S
C266 C254 1.410 . S
C266 C267 1.345 . S
C266 H274 0.930 1_565 S
C267 C265 1.407 . S
C267 C266 1.345 . S
C267 H269 0.930 . S
H268 C261 0.930 . S
H269 C267 0.930 . S
H270 C258 0.930 1_545 S
H271 C259 0.931 . S
H272 C265 0.930 . S
H273 C287 0.930 . S
H274 C266 0.930 1_545 S
H275 C293 0.930 . S
H276 C284 0.930 . S
H277 C291 0.931 . S
H278 C255 0.929 . S
H279 C285 0.930 . S
H280 C318 0.930 . S
H281 C262 0.930 . S
H282 C317 0.929 . S
N283 Tb252 2.660 . S
N283 C284 1.305 . S
N283 C288 1.360 . S
C284 H276 0.930 . S
C284 N283 1.305 . S
C284 C287 1.407 . S
C285 H279 0.930 . S
C285 C286 1.410 . S
C285 C287 1.345 . S
C286 C285 1.410 . S
C286 C288 1.417 . S
C286 C318 1.432 . S
C287 H273 0.930 . S
C287 C284 1.407 . S
C287 C285 1.345 . S
C288 N283 1.360 . S
C288 C286 1.417 . S
C288 C292 1.432 . S
H289 C294 0.930 . S
N290 Tb252 2.600 . S
N290 C292 1.359 . S
N290 C293 1.327 . S
C291 H277 0.931 . S
C291 C293 1.392 . S
C291 C294 1.370 . S
C292 C288 1.432 . S
C292 N290 1.359 . S
C292 C295 1.414 . S
C293 H275 0.930 . S
C293 N290 1.327 . S
C293 C291 1.392 . S
C294 H289 0.930 . S
C294 C291 1.370 . S
C294 C295 1.385 . S
C295 C292 1.414 . S
C295 C294 1.385 . S
C295 C317 1.444 . S
O296 Tb252 2.546 . S
O296 C316 1.251 . S
O297 Tb252 2.610 . S
O297 Tb263 2.362 . S
O297 C308 1.283 . S
O298 Tb263 2.421 . S
O298 C315 1.262 . S
O299 Tb252 2.320 . S
O299 C315 1.260 . S
O300 Tb252 2.552 . S
O300 C308 1.243 . S
O301 Tb252 2.413 . S
O301 C316 1.256 . S
O302 Tb263 2.546 . S
O302 C327 1.251 . S
O303 Tb252 2.362 . S
O303 Tb263 2.610 . S
O303 C319 1.283 . S
O304 Tb252 2.421 . S
O304 C326 1.262 . S
O305 Tb263 2.320 . S
O305 C326 1.260 . S
O306 Tb263 2.552 . S
O306 C319 1.243 . S
O307 Tb263 2.413 . S
O307 C327 1.256 . S
C308 O297 1.283 . S
C308 O300 1.243 . S
C309 C311 1.382 . S
C309 C313 1.393 . S
C309 C316 1.500 . S
C310 C311 1.400 . S
C310 C312 1.384 . S
C311 C309 1.382 . S
C311 C310 1.400 . S
C311 H328 0.930 . S
C312 C310 1.384 . S
C312 C314 1.392 . S
C312 H329 0.931 . S
C313 C309 1.393 . S
C313 C314 1.401 . S
C313 H330 0.930 . S
C314 C312 1.392 . S
C314 C313 1.401 . S
C314 H331 0.930 . S
C315 O298 1.262 . S
C315 O299 1.260 . S
C316 Tb252 2.833 . S
C316 O296 1.251 . S
C316 O301 1.256 . S
C316 C309 1.500 . S
C317 H282 0.929 . S
C317 C295 1.444 . S
C317 C318 1.317 . S
C318 H280 0.930 . S
C318 C286 1.432 . S
C318 C317 1.317 . S
C319 O303 1.283 . S
C319 O306 1.243 . S
C320 C321 1.382 . S
C320 C324 1.393 . S
C320 C327 1.500 . S
C321 C320 1.382 . S
C321 C322 1.400 . S
C321 H332 0.930 . S
C322 C321 1.400 . S
C322 C323 1.384 . S
C323 C322 1.384 . S
C323 C325 1.392 . S
C323 H333 0.931 . S
C324 C320 1.393 . S
C324 C325 1.401 . S
C324 H334 0.930 . S
C325 C323 1.392 . S
C325 C324 1.401 . S
C325 H335 0.930 . S
C326 O304 1.262 . S
C326 O305 1.260 . S
C327 Tb263 2.833 . S
C327 O302 1.251 . S
C327 O307 1.256 . S
C327 C320 1.500 . S
H328 C311 0.930 . S
H329 C312 0.931 . S
H330 C313 0.930 . S
H331 C314 0.930 . S
H332 C321 0.930 . S
H333 C323 0.931 . S
H334 C324 0.930 . S
H335 C325 0.930 . S
Tb336 N367 2.660 . S
Tb336 N374 2.600 . S
Tb336 O380 2.546 . S
Tb336 O381 2.610 . S
Tb336 O383 2.320 . S
Tb336 O384 2.552 . S
Tb336 O385 2.413 . S
Tb336 O387 2.362 . S
Tb336 O388 2.421 . S
Tb336 C400 2.833 . S
C337 C340 1.432 . S
C337 C341 1.414 . S
C337 N344 1.359 . S
C338 C340 1.417 . S
C338 C342 1.432 . S
C338 C350 1.410 . S
C339 C341 1.444 . S
C339 C342 1.317 . S
C339 H362 0.929 . S
C340 C337 1.432 . S
C340 C338 1.417 . S
C340 N348 1.360 . S
C341 C337 1.414 . S
C341 C339 1.444 . S
C341 C346 1.385 . S
C342 C338 1.432 . S
C342 C339 1.317 . S
C342 H354 0.930 . S
C343 C345 1.392 . S
C343 C346 1.370 . S
C343 H355 0.931 . S
N344 C337 1.359 . S
N344 C345 1.327 . S
N344 Tb347 2.600 . S
C345 C343 1.392 . S
C345 N344 1.327 . S
C345 H352 0.930 . S
C346 C341 1.385 . S
C346 C343 1.370 . S
C346 H365 0.930 . S
Tb347 N344 2.600 . S
Tb347 N348 2.660 . S
Tb347 O381 2.362 . S
Tb347 O382 2.421 . S
Tb347 O386 2.546 . S
Tb347 O387 2.610 . S
Tb347 O389 2.320 . S
Tb347 O390 2.552 . S
Tb347 O391 2.413 . S
Tb347 C411 2.833 . S
N348 C340 1.360 . S
N348 Tb347 2.660 . S
N348 C349 1.305 . S
C349 N348 1.305 . S
C349 C351 1.407 . S
C349 H356 0.930 . S
C350 C338 1.410 . S
C350 C351 1.345 . S
C350 H358 0.930 . S
C351 C349 1.407 . S
C351 C350 1.345 . S
C351 H353 0.930 . S
H352 C345 0.930 . S
H353 C351 0.930 . S
H354 C342 0.930 . S
H355 C343 0.931 . S
H356 C349 0.930 . S
H357 C371 0.930 . S
H358 C350 0.930 . S
H359 C377 0.930 . S
H360 C368 0.930 . S
H361 C375 0.931 . S
H362 C339 0.929 . S
H363 C369 0.930 . S
H364 C402 0.930 . S
H365 C346 0.930 . S
H366 C401 0.929 . S
N367 Tb336 2.660 . S
N367 C368 1.305 . S
N367 C372 1.360 . S
C368 H360 0.930 . S
C368 N367 1.305 . S
C368 C371 1.407 . S
C369 H363 0.930 . S
C369 C370 1.410 . S
C369 C371 1.345 . S
C370 C369 1.410 . S
C370 C372 1.417 . S
C370 C402 1.432 . S
C371 H357 0.930 . S
C371 C368 1.407 . S
C371 C369 1.345 . S
C372 N367 1.360 . S
C372 C370 1.417 . S
C372 C376 1.432 . S
H373 C378 0.930 . S
N374 Tb336 2.600 . S
N374 C376 1.359 . S
N374 C377 1.327 . S
C375 H361 0.931 . S
C375 C377 1.392 . S
C375 C378 1.370 . S
C376 C372 1.432 . S
C376 N374 1.359 . S
C376 C379 1.414 . S
C377 H359 0.930 . S
C377 N374 1.327 . S
C377 C375 1.392 . S
C378 H373 0.930 . S
C378 C375 1.370 . S
C378 C379 1.385 . S
C379 C376 1.414 . S
C379 C378 1.385 . S
C379 C401 1.444 . S
O380 Tb336 2.546 . S
O380 C400 1.251 . S
O381 Tb336 2.610 . S
O381 Tb347 2.362 . S
O381 C392 1.283 . S
O382 Tb347 2.421 . S
O382 C399 1.262 . S
O383 Tb336 2.320 . S
O383 C399 1.260 . S
O384 Tb336 2.552 . S
O384 C392 1.243 . S
O385 Tb336 2.413 . S
O385 C400 1.256 . S
O386 Tb347 2.546 . S
O386 C411 1.251 . S
O387 Tb336 2.362 . S
O387 Tb347 2.610 . S
O387 C403 1.283 . S
O388 Tb336 2.421 . S
O388 C410 1.262 . S
O389 Tb347 2.320 . S
O389 C410 1.260 . S
O390 Tb347 2.552 . S
O390 C403 1.243 . S
O391 Tb347 2.413 . S
O391 C411 1.256 . S
C392 O381 1.283 . S
C392 O384 1.243 . S
C393 C395 1.382 . S
C393 C397 1.393 . S
C393 C400 1.500 . S
C394 C395 1.400 . S
C394 C396 1.384 . S
C395 C393 1.382 . S
C395 C394 1.400 . S
C395 H412 0.930 . S
C396 C394 1.384 . S
C396 C398 1.392 . S
C396 H413 0.931 . S
C397 C393 1.393 . S
C397 C398 1.401 . S
C397 H414 0.930 . S
C398 C396 1.392 . S
C398 C397 1.401 . S
C398 H415 0.930 . S
C399 O382 1.262 . S
C399 O383 1.260 . S
C400 Tb336 2.833 . S
C400 O380 1.251 . S
C400 O385 1.256 . S
C400 C393 1.500 . S
C401 H366 0.929 . S
C401 C379 1.444 . S
C401 C402 1.317 . S
C402 H364 0.930 . S
C402 C370 1.432 . S
C402 C401 1.317 . S
C403 O387 1.283 . S
C403 O390 1.243 . S
C404 C405 1.382 . S
C404 C408 1.393 . S
C404 C411 1.500 . S
C405 C404 1.382 . S
C405 C406 1.400 . S
C405 H416 0.930 . S
C406 C405 1.400 . S
C406 C407 1.384 . S
C407 C406 1.384 . S
C407 C409 1.392 . S
C407 H417 0.931 . S
C408 C404 1.393 . S
C408 C409 1.401 . S
C408 H418 0.930 . S
C409 C407 1.392 . S
C409 C408 1.401 . S
C409 H419 0.930 . S
C410 O388 1.262 . S
C410 O389 1.260 . S
C411 Tb347 2.833 . S
C411 O386 1.251 . S
C411 O391 1.256 . S
C411 C404 1.500 . S
H412 C395 0.930 . S
H413 C396 0.931 . S
H414 C397 0.930 . S
H415 C398 0.930 . S
H416 C405 0.930 . S
H417 C407 0.931 . S
H418 C408 0.930 . S
H419 C409 0.930 . S
Tb420 N451 2.660 . S
Tb420 N458 2.600 . S
Tb420 O464 2.546 . S
Tb420 O465 2.610 . S
Tb420 O467 2.320 . S
Tb420 O468 2.552 . S
Tb420 O469 2.413 . S
Tb420 O471 2.362 . S
Tb420 O472 2.421 . S
Tb420 C484 2.833 . S
C421 C424 1.432 . S
C421 C425 1.414 . S
C421 N428 1.359 . S
C422 C424 1.417 . S
C422 C426 1.432 . S
C422 C434 1.410 . S
C423 C425 1.444 . S
C423 C426 1.317 . S
C423 H446 0.929 . S
C424 C421 1.432 . S
C424 C422 1.417 . S
C424 N432 1.360 . S
C425 C421 1.414 . S
C425 C423 1.444 . S
C425 C430 1.385 . S
C426 C422 1.432 . S
C426 C423 1.317 . S
C426 H438 0.930 . S
C427 C429 1.392 . S
C427 C430 1.370 . S
C427 H439 0.931 . S
N428 C421 1.359 . S
N428 C429 1.327 . S
N428 Tb431 2.600 . S
C429 C427 1.392 . S
C429 N428 1.327 . S
C429 H436 0.930 . S
C430 C425 1.385 . S
C430 C427 1.370 . S
C430 H449 0.930 . S
Tb431 N428 2.600 . S
Tb431 N432 2.660 . S
Tb431 O465 2.362 . S
Tb431 O466 2.421 . S
Tb431 O470 2.546 . S
Tb431 O471 2.610 . S
Tb431 O473 2.320 . S
Tb431 O474 2.552 . S
Tb431 O475 2.413 . S
Tb431 C495 2.833 . S
N432 C424 1.360 . S
N432 Tb431 2.660 . S
N432 C433 1.305 . S
C433 N432 1.305 . S
C433 C435 1.407 . S
C433 H440 0.930 . S
C434 C422 1.410 . S
C434 C435 1.345 . S
C434 H442 0.930 . S
C435 C433 1.407 . S
C435 C434 1.345 . S
C435 H437 0.930 . S
H436 C429 0.930 . S
H437 C435 0.930 . S
H438 C426 0.930 . S
H439 C427 0.931 . S
H440 C433 0.930 . S
H441 C455 0.930 . S
H442 C434 0.930 . S
H443 C461 0.930 . S
H444 C452 0.930 . S
H445 C459 0.931 . S
H446 C423 0.929 . S
H447 C453 0.930 . S
H448 C486 0.930 . S
H449 C430 0.930 . S
H450 C485 0.929 . S
N451 Tb420 2.660 . S
N451 C452 1.305 . S
N451 C456 1.360 . S
C452 H444 0.930 . S
C452 N451 1.305 . S
C452 C455 1.407 . S
C453 H447 0.930 . S
C453 C454 1.410 . S
C453 C455 1.345 . S
C454 C453 1.410 . S
C454 C456 1.417 . S
C454 C486 1.432 . S
C455 H441 0.930 . S
C455 C452 1.407 . S
C455 C453 1.345 . S
C456 N451 1.360 . S
C456 C454 1.417 . S
C456 C460 1.432 . S
H457 C462 0.930 1_565 S
N458 Tb420 2.600 . S
N458 C460 1.359 . S
N458 C461 1.327 . S
C459 H445 0.931 . S
C459 C461 1.392 . S
C459 C462 1.370 . S
C460 C456 1.432 . S
C460 N458 1.359 . S
C460 C463 1.414 . S
C461 H443 0.930 . S
C461 N458 1.327 . S
C461 C459 1.392 . S
C462 H457 0.930 1_545 S
C462 C459 1.370 . S
C462 C463 1.385 . S
C463 C460 1.414 . S
C463 C462 1.385 . S
C463 C485 1.444 . S
O464 Tb420 2.546 . S
O464 C484 1.251 . S
O465 Tb420 2.610 . S
O465 Tb431 2.362 . S
O465 C476 1.283 . S
O466 Tb431 2.421 . S
O466 C483 1.262 . S
O467 Tb420 2.320 . S
O467 C483 1.260 . S
O468 Tb420 2.552 . S
O468 C476 1.243 . S
O469 Tb420 2.413 . S
O469 C484 1.256 . S
O470 Tb431 2.546 . S
O470 C495 1.251 . S
O471 Tb420 2.362 . S
O471 Tb431 2.610 . S
O471 C487 1.283 . S
O472 Tb420 2.421 . S
O472 C494 1.262 . S
O473 Tb431 2.320 . S
O473 C494 1.260 . S
O474 Tb431 2.552 . S
O474 C487 1.243 . S
O475 Tb431 2.413 . S
O475 C495 1.256 . S
C476 O465 1.283 . S
C476 O468 1.243 . S
C477 C479 1.382 . S
C477 C481 1.393 . S
C477 C484 1.500 . S
C478 C479 1.400 . S
C478 C480 1.384 . S
C479 C477 1.382 . S
C479 C478 1.400 . S
C479 H496 0.930 . S
C480 C478 1.384 . S
C480 C482 1.392 . S
C480 H497 0.931 . S
C481 C477 1.393 . S
C481 C482 1.401 . S
C481 H498 0.930 . S
C482 C480 1.392 . S
C482 C481 1.401 . S
C482 H499 0.930 1_455 S
C483 O466 1.262 . S
C483 O467 1.260 . S
C484 Tb420 2.833 . S
C484 O464 1.251 . S
C484 O469 1.256 . S
C484 C477 1.500 . S
C485 H450 0.929 . S
C485 C463 1.444 . S
C485 C486 1.317 . S
C486 H448 0.930 . S
C486 C454 1.432 . S
C486 C485 1.317 . S
C487 O471 1.283 . S
C487 O474 1.243 . S
C488 C489 1.382 . S
C488 C492 1.393 . S
C488 C495 1.500 . S
C489 C488 1.382 . S
C489 C490 1.400 . S
C489 H500 0.930 . S
C490 C489 1.400 . S
C490 C491 1.384 . S
C491 C490 1.384 . S
C491 C493 1.392 . S
C491 H501 0.931 . S
C492 C488 1.393 . S
C492 C493 1.401 . S
C492 H502 0.930 . S
C493 C491 1.392 . S
C493 C492 1.401 . S
C493 H503 0.930 . S
C494 O472 1.262 . S
C494 O473 1.260 . S
C495 Tb431 2.833 . S
C495 O470 1.251 . S
C495 O475 1.256 . S
C495 C488 1.500 . S
H496 C479 0.930 . S
H497 C480 0.931 . S
H498 C481 0.930 . S
H499 C482 0.930 1_655 S
H500 C489 0.930 . S
H501 C491 0.931 . S
H502 C492 0.930 . S
H503 C493 0.930 . S
Tb504 N535 2.660 . S
Tb504 N542 2.600 . S
Tb504 O548 2.546 . S
Tb504 O549 2.610 . S
Tb504 O551 2.320 . S
Tb504 O552 2.552 . S
Tb504 O553 2.413 . S
Tb504 O555 2.362 . S
Tb504 O556 2.421 . S
Tb504 C568 2.833 . S
C505 C508 1.432 . S
C505 C509 1.414 . S
C505 N512 1.359 . S
C506 C508 1.417 . S
C506 C510 1.432 . S
C506 C518 1.410 . S
C507 C509 1.444 . S
C507 C510 1.317 . S
C507 H530 0.929 . S
C508 C505 1.432 . S
C508 C506 1.417 . S
C508 N516 1.360 . S
C509 C505 1.414 . S
C509 C507 1.444 . S
C509 C514 1.385 . S
C510 C506 1.432 . S
C510 C507 1.317 . S
C510 H522 0.930 . S
C511 C513 1.392 . S
C511 C514 1.370 . S
C511 H523 0.931 . S
N512 C505 1.359 . S
N512 C513 1.327 . S
N512 Tb515 2.600 . S
C513 C511 1.392 . S
C513 N512 1.327 . S
C513 H520 0.930 . S
C514 C509 1.385 . S
C514 C511 1.370 . S
C514 H533 0.930 . S
Tb515 N512 2.600 . S
Tb515 N516 2.660 . S
Tb515 O549 2.362 . S
Tb515 O550 2.421 . S
Tb515 O554 2.546 . S
Tb515 O555 2.610 . S
Tb515 O557 2.320 . S
Tb515 O558 2.552 . S
Tb515 O559 2.413 . S
Tb515 C579 2.833 . S
N516 C508 1.360 . S
N516 Tb515 2.660 . S
N516 C517 1.305 . S
C517 N516 1.305 . S
C517 C519 1.407 . S
C517 H524 0.930 . S
C518 C506 1.410 . S
C518 C519 1.345 . S
C518 H526 0.930 . S
C519 C517 1.407 . S
C519 C518 1.345 . S
C519 H521 0.930 . S
H520 C513 0.930 . S
H521 C519 0.930 . S
H522 C510 0.930 . S
H523 C511 0.931 . S
H524 C517 0.930 . S
H525 C539 0.930 . S
H526 C518 0.930 . S
H527 C545 0.930 . S
H528 C536 0.930 . S
H529 C543 0.931 . S
H530 C507 0.929 . S
H531 C537 0.930 1_565 S
H532 C570 0.930 1_565 S
H533 C514 0.930 . S
H534 C569 0.929 . S
N535 Tb504 2.660 . S
N535 C536 1.305 . S
N535 C540 1.360 . S
C536 H528 0.930 . S
C536 N535 1.305 . S
C536 C539 1.407 . S
C537 H531 0.930 1_545 S
C537 C538 1.410 . S
C537 C539 1.345 . S
C538 C537 1.410 . S
C538 C540 1.417 . S
C538 C570 1.432 . S
C539 H525 0.930 . S
C539 C536 1.407 . S
C539 C537 1.345 . S
C540 N535 1.360 . S
C540 C538 1.417 . S
C540 C544 1.432 . S
H541 C546 0.930 . S
N542 Tb504 2.600 . S
N542 C544 1.359 . S
N542 C545 1.327 . S
C543 H529 0.931 . S
C543 C545 1.392 . S
C543 C546 1.370 . S
C544 C540 1.432 . S
C544 N542 1.359 . S
C544 C547 1.414 . S
C545 H527 0.930 . S
C545 N542 1.327 . S
C545 C543 1.392 . S
C546 H541 0.930 . S
C546 C543 1.370 . S
C546 C547 1.385 . S
C547 C544 1.414 . S
C547 C546 1.385 . S
C547 C569 1.444 . S
O548 Tb504 2.546 . S
O548 C568 1.251 . S
O549 Tb504 2.610 . S
O549 Tb515 2.362 . S
O549 C560 1.283 . S
O550 Tb515 2.421 . S
O550 C567 1.262 . S
O551 Tb504 2.320 . S
O551 C567 1.260 . S
O552 Tb504 2.552 . S
O552 C560 1.243 . S
O553 Tb504 2.413 . S
O553 C568 1.256 . S
O554 Tb515 2.546 . S
O554 C579 1.251 . S
O555 Tb504 2.362 . S
O555 Tb515 2.610 . S
O555 C571 1.283 . S
O556 Tb504 2.421 . S
O556 C578 1.262 . S
O557 Tb515 2.320 . S
O557 C578 1.260 . S
O558 Tb515 2.552 . S
O558 C571 1.243 . S
O559 Tb515 2.413 . S
O559 C579 1.256 . S
C560 O549 1.283 . S
C560 O552 1.243 . S
C561 C563 1.382 . S
C561 C565 1.393 . S
C561 C568 1.500 . S
C562 C563 1.400 . S
C562 C564 1.384 . S
C563 C561 1.382 . S
C563 C562 1.400 . S
C563 H580 0.930 . S
C564 C562 1.384 . S
C564 C566 1.392 . S
C564 H581 0.931 . S
C565 C561 1.393 . S
C565 C566 1.401 . S
C565 H582 0.930 . S
C566 C564 1.392 . S
C566 C565 1.401 . S
C566 H583 0.930 . S
C567 O550 1.262 . S
C567 O551 1.260 . S
C568 Tb504 2.833 . S
C568 O548 1.251 . S
C568 O553 1.256 . S
C568 C561 1.500 . S
C569 H534 0.929 . S
C569 C547 1.444 . S
C569 C570 1.317 . S
C570 H532 0.930 1_545 S
C570 C538 1.432 . S
C570 C569 1.317 . S
C571 O555 1.283 . S
C571 O558 1.243 . S
C572 C573 1.382 . S
C572 C576 1.393 . S
C572 C579 1.500 . S
C573 C572 1.382 . S
C573 C574 1.400 . S
C573 H584 0.930 . S
C574 C573 1.400 . S
C574 C575 1.384 . S
C575 C574 1.384 . S
C575 C577 1.392 . S
C575 H585 0.931 . S
C576 C572 1.393 . S
C576 C577 1.401 . S
C576 H586 0.930 . S
C577 C575 1.392 . S
C577 C576 1.401 . S
C577 H587 0.930 . S
C578 O556 1.262 . S
C578 O557 1.260 . S
C579 Tb515 2.833 . S
C579 O554 1.251 . S
C579 O559 1.256 . S
C579 C572 1.500 . S
H580 C563 0.930 . S
H581 C564 0.931 . S
H582 C565 0.930 . S
H583 C566 0.930 . S
H584 C573 0.930 . S
H585 C575 0.931 . S
H586 C576 0.930 . S
H587 C577 0.930 . S
Tb588 N619 2.660 . S
Tb588 N626 2.600 . S
Tb588 O632 2.546 . S
Tb588 O633 2.610 . S
Tb588 O635 2.320 . S
Tb588 O636 2.552 . S
Tb588 O637 2.413 . S
Tb588 O639 2.362 . S
Tb588 O640 2.421 . S
Tb588 C652 2.833 . S
C589 C592 1.432 . S
C589 C593 1.414 . S
C589 N596 1.359 . S
C590 C592 1.417 . S
C590 C594 1.432 . S
C590 C602 1.410 . S
C591 C593 1.444 . S
C591 C594 1.317 . S
C591 H614 0.929 . S
C592 C589 1.432 . S
C592 C590 1.417 . S
C592 N600 1.360 . S
C593 C589 1.414 . S
C593 C591 1.444 . S
C593 C598 1.385 . S
C594 C590 1.432 . S
C594 C591 1.317 . S
C594 H606 0.930 . S
C595 C597 1.392 . S
C595 C598 1.370 . S
C595 H607 0.931 . S
N596 C589 1.359 . S
N596 C597 1.327 . S
N596 Tb599 2.600 . S
C597 C595 1.392 . S
C597 N596 1.327 . S
C597 H604 0.930 . S
C598 C593 1.385 . S
C598 C595 1.370 . S
C598 H617 0.930 . S
Tb599 N596 2.600 . S
Tb599 N600 2.660 . S
Tb599 O633 2.362 . S
Tb599 O634 2.421 . S
Tb599 O638 2.546 . S
Tb599 O639 2.610 . S
Tb599 O641 2.320 . S
Tb599 O642 2.552 . S
Tb599 O643 2.413 . S
Tb599 C663 2.833 . S
N600 C592 1.360 . S
N600 Tb599 2.660 . S
N600 C601 1.305 . S
C601 N600 1.305 . S
C601 C603 1.407 . S
C601 H608 0.930 . S
C602 C590 1.410 . S
C602 C603 1.345 . S
C602 H610 0.930 . S
C603 C601 1.407 . S
C603 C602 1.345 . S
C603 H605 0.930 . S
H604 C597 0.930 . S
H605 C603 0.930 . S
H606 C594 0.930 . S
H607 C595 0.931 . S
H608 C601 0.930 . S
H609 C623 0.930 . S
H610 C602 0.930 . S
H611 C629 0.930 . S
H612 C620 0.930 . S
H613 C627 0.931 . S
H614 C591 0.929 . S
H615 C621 0.930 . S
H616 C654 0.930 . S
H617 C598 0.930 . S
H618 C653 0.929 . S
N619 Tb588 2.660 . S
N619 C620 1.305 . S
N619 C624 1.360 . S
C620 H612 0.930 . S
C620 N619 1.305 . S
C620 C623 1.407 . S
C621 H615 0.930 . S
C621 C622 1.410 . S
C621 C623 1.345 . S
C622 C621 1.410 . S
C622 C624 1.417 . S
C622 C654 1.432 . S
C623 H609 0.930 . S
C623 C620 1.407 . S
C623 C621 1.345 . S
C624 N619 1.360 . S
C624 C622 1.417 . S
C624 C628 1.432 . S
H625 C630 0.930 . S
N626 Tb588 2.600 . S
N626 C628 1.359 . S
N626 C629 1.327 . S
C627 H613 0.931 . S
C627 C629 1.392 . S
C627 C630 1.370 . S
C628 C624 1.432 . S
C628 N626 1.359 . S
C628 C631 1.414 . S
C629 H611 0.930 . S
C629 N626 1.327 . S
C629 C627 1.392 . S
C630 H625 0.930 . S
C630 C627 1.370 . S
C630 C631 1.385 . S
C631 C628 1.414 . S
C631 C630 1.385 . S
C631 C653 1.444 . S
O632 Tb588 2.546 . S
O632 C652 1.251 . S
O633 Tb588 2.610 . S
O633 Tb599 2.362 . S
O633 C644 1.283 . S
O634 Tb599 2.421 . S
O634 C651 1.262 . S
O635 Tb588 2.320 . S
O635 C651 1.260 . S
O636 Tb588 2.552 . S
O636 C644 1.243 . S
O637 Tb588 2.413 . S
O637 C652 1.256 . S
O638 Tb599 2.546 . S
O638 C663 1.251 . S
O639 Tb588 2.362 . S
O639 Tb599 2.610 . S
O639 C655 1.283 . S
O640 Tb588 2.421 . S
O640 C662 1.262 . S
O641 Tb599 2.320 . S
O641 C662 1.260 . S
O642 Tb599 2.552 . S
O642 C655 1.243 . S
O643 Tb599 2.413 . S
O643 C663 1.256 . S
C644 O633 1.283 . S
C644 O636 1.243 . S
C645 C647 1.382 . S
C645 C649 1.393 . S
C645 C652 1.500 . S
C646 C647 1.400 . S
C646 C648 1.384 . S
C647 C645 1.382 . S
C647 C646 1.400 . S
C647 H664 0.930 . S
C648 C646 1.384 . S
C648 C650 1.392 . S
C648 H665 0.931 . S
C649 C645 1.393 . S
C649 C650 1.401 . S
C649 H666 0.930 . S
C650 C648 1.392 . S
C650 C649 1.401 . S
C650 H667 0.930 . S
C651 O634 1.262 . S
C651 O635 1.260 . S
C652 Tb588 2.833 . S
C652 O632 1.251 . S
C652 O637 1.256 . S
C652 C645 1.500 . S
C653 H618 0.929 . S
C653 C631 1.444 . S
C653 C654 1.317 . S
C654 H616 0.930 . S
C654 C622 1.432 . S
C654 C653 1.317 . S
C655 O639 1.283 . S
C655 O642 1.243 . S
C656 C657 1.382 . S
C656 C660 1.393 . S
C656 C663 1.500 . S
C657 C656 1.382 . S
C657 C658 1.400 . S
C657 H668 0.930 . S
C658 C657 1.400 . S
C658 C659 1.384 . S
C659 C658 1.384 . S
C659 C661 1.392 . S
C659 H669 0.931 . S
C660 C656 1.393 . S
C660 C661 1.401 . S
C660 H670 0.930 . S
C661 C659 1.392 . S
C661 C660 1.401 . S
C661 H671 0.930 1_565 S
C662 O640 1.262 . S
C662 O641 1.260 . S
C663 Tb599 2.833 . S
C663 O638 1.251 . S
C663 O643 1.256 . S
C663 C656 1.500 . S
H664 C647 0.930 . S
H665 C648 0.931 . S
H666 C649 0.930 . S
H667 C650 0.930 . S
H668 C657 0.930 . S
H669 C659 0.931 . S
H670 C660 0.930 . S
H671 C661 0.930 1_545 S
C672 O684 1.241 . S
C672 O685 1.280 . S
C673 O686 1.277 . S
C673 O687 1.245 . S
C674 O698 1.247 . S
C674 O700 1.289 . S
Mg675 O676 1.926 1_455 S
Mg675 O685 1.984 1_455 S
Mg675 O687 1.988 1_455 S
Mg675 O688 2.061 . S
O676 Mg675 1.926 1_655 S
O676 Mg677 1.986 1_545 S
O676 Mg678 1.909 1_655 S
Mg677 O676 1.986 1_565 S
Mg677 O684 2.042 1_565 S
Mg677 O686 2.041 1_565 S
Mg677 O692 2.038 . S
Mg677 O700 2.238 . S
Mg678 O676 1.909 1_455 S
Mg678 O679 1.925 1_545 S
Mg678 O689 2.112 . S
Mg678 O691 2.077 1_445 S
Mg678 O700 2.101 1_445 S
Mg678 O701 2.081 . S
O679 Mg678 1.925 1_565 S
O679 Mg680 1.926 1_455 S
O679 Mg681 1.986 1_565 S
Mg680 O679 1.926 1_655 S
Mg680 O694 1.984 1_655 S
Mg680 O697 1.988 1_655 S
Mg680 O698 2.061 . S
Mg681 O679 1.986 1_545 S
Mg681 O689 2.238 . S
Mg681 O693 2.042 1_545 S
Mg681 O695 2.041 1_545 S
Mg681 O702 2.038 . S
C682 O688 1.247 . S
C682 O689 1.289 . S
C683 O701 1.245 . S
C683 O702 1.274 . S
O684 C672 1.241 . S
O684 Mg677 2.042 1_545 S
O685 C672 1.280 . S
O685 Mg675 1.984 1_655 S
O686 C673 1.277 . S
O686 Mg677 2.041 1_545 S
O687 C673 1.245 . S
O687 Mg675 1.988 1_655 S
O688 Mg675 2.061 . S
O688 C682 1.247 . S
O689 Mg678 2.112 . S
O689 Mg681 2.238 . S
O689 C682 1.289 . S
C690 O691 1.245 . S
C690 O692 1.274 . S
O691 Mg678 2.077 1_665 S
O691 C690 1.245 . S
O692 Mg677 2.038 . S
O692 C690 1.274 . S
O693 Mg681 2.042 1_565 S
O693 C696 1.241 . S
O694 Mg680 1.984 1_455 S
O694 C696 1.280 . S
O695 Mg681 2.041 1_565 S
O695 C699 1.277 . S
C696 O693 1.241 . S
C696 O694 1.280 . S
O697 Mg680 1.988 1_455 S
O697 C699 1.245 . S
O698 C674 1.247 . S
O698 Mg680 2.061 . S
C699 O695 1.277 . S
C699 O697 1.245 . S
O700 C674 1.289 . S
O700 Mg677 2.238 . S
O700 Mg678 2.101 1_665 S
O701 Mg678 2.081 . S
O701 C683 1.245 . S
O702 Mg681 2.038 . S
O702 C683 1.274 . S
C703 O715 1.241 . S
C703 O716 1.280 . S
C704 O717 1.277 . S
C704 O718 1.245 . S
C705 O729 1.247 . S
C705 O731 1.289 . S
Mg706 O707 1.926 . S
Mg706 O716 1.984 . S
Mg706 O718 1.988 1_554 S
Mg706 O719 2.061 . S
O707 Mg706 1.926 . S
O707 Mg708 1.986 1_544 S
O707 Mg709 1.917 . S
Mg708 O707 1.986 1_566 S
Mg708 O715 2.042 1_566 S
Mg708 O717 2.041 1_565 S
Mg708 O723 2.038 1_556 S
Mg708 O731 2.238 . S
Mg709 O707 1.917 . S
Mg709 O710 1.917 1_544 S
Mg709 O720 2.106 . S
Mg709 O722 2.079 1_545 S
Mg709 O731 2.106 1_544 S
Mg709 O732 2.079 1_554 S
O710 Mg709 1.917 1_566 S
O710 Mg711 1.926 . S
O710 Mg712 1.986 1_566 S
Mg711 O710 1.926 . S
Mg711 O725 1.984 . S
Mg711 O728 1.988 1_556 S
Mg711 O729 2.061 . S
Mg712 O710 1.986 1_544 S
Mg712 O720 2.238 . S
Mg712 O724 2.042 1_544 S
Mg712 O726 2.041 1_545 S
Mg712 O733 2.038 1_554 S
C713 O719 1.247 . S
C713 O720 1.289 . S
C714 O732 1.245 . S
C714 O733 1.274 . S
O715 C703 1.241 . S
O715 Mg708 2.042 1_544 S
O716 C703 1.280 . S
O716 Mg706 1.984 . S
O717 C704 1.277 . S
O717 Mg708 2.041 1_545 S
O718 C704 1.245 . S
O718 Mg706 1.988 1_556 S
O719 Mg706 2.061 . S
O719 C713 1.247 . S
O720 Mg709 2.106 . S
O720 Mg712 2.238 . S
O720 C713 1.289 . S
C721 O722 1.245 . S
C721 O723 1.274 . S
O722 Mg709 2.079 1_565 S
O722 C721 1.245 . S
O723 Mg708 2.038 1_554 S
O723 C721 1.274 . S
O724 Mg712 2.042 1_566 S
O724 C727 1.241 . S
O725 Mg711 1.984 . S
O725 C727 1.280 . S
O726 Mg712 2.041 1_565 S
O726 C730 1.277 . S
C727 O724 1.241 . S
C727 O725 1.280 . S
O728 Mg711 1.988 1_554 S
O728 C730 1.245 . S
O729 C705 1.247 . S
O729 Mg711 2.061 . S
C730 O726 1.277 . S
C730 O728 1.245 . S
O731 C705 1.289 . S
O731 Mg708 2.238 . S
O731 Mg709 2.106 1_566 S
O732 Mg709 2.079 1_556 S
O732 C714 1.245 . S
O733 Mg712 2.038 1_556 S
O733 C714 1.274 . S
C734 O746 1.241 . S
C734 O747 1.280 . S
C735 O748 1.277 . S
C735 O749 1.245 . S
C736 O760 1.247 . S
C736 O762 1.289 . S
Mg737 O738 1.926 1_455 S
Mg737 O747 1.984 1_455 S
Mg737 O749 1.988 1_454 S
Mg737 O750 2.061 . S
O738 Mg737 1.926 1_655 S
O738 Mg739 1.986 1_554 S
O738 Mg740 1.909 1_655 S
Mg739 O738 1.986 1_556 S
Mg739 O746 2.042 1_556 S
Mg739 O748 2.041 . S
Mg739 O754 2.038 1_556 S
Mg739 O762 2.238 . S
Mg740 O738 1.909 1_455 S
Mg740 O741 1.925 1_554 S
Mg740 O751 2.112 . S
Mg740 O753 2.077 1_455 S
Mg740 O762 2.101 1_454 S
Mg740 O763 2.081 1_554 S
O741 Mg740 1.925 1_556 S
O741 Mg742 1.926 1_455 S
O741 Mg743 1.986 1_556 S
Mg742 O741 1.926 1_655 S
Mg742 O756 1.984 1_655 S
Mg742 O759 1.988 1_656 S
Mg742 O760 2.061 . S
Mg743 O741 1.986 1_554 S
Mg743 O751 2.238 . S
Mg743 O755 2.042 1_554 S
Mg743 O757 2.041 . S
Mg743 O764 2.038 1_554 S
C744 O750 1.247 . S
C744 O751 1.289 . S
C745 O763 1.245 . S
C745 O764 1.274 . S
O746 C734 1.241 . S
O746 Mg739 2.042 1_554 S
O747 C734 1.280 . S
O747 Mg737 1.984 1_655 S
O748 C735 1.277 . S
O748 Mg739 2.041 . S
O749 C735 1.245 . S
O749 Mg737 1.988 1_656 S
O750 Mg737 2.061 . S
O750 C744 1.247 . S
O751 Mg740 2.112 . S
O751 Mg743 2.238 . S
O751 C744 1.289 . S
C752 O753 1.245 . S
C752 O754 1.274 . S
O753 Mg740 2.077 1_655 S
O753 C752 1.245 . S
O754 Mg739 2.038 1_554 S
O754 C752 1.274 . S
O755 Mg743 2.042 1_556 S
O755 C758 1.241 . S
O756 Mg742 1.984 1_455 S
O756 C758 1.280 . S
O757 Mg743 2.041 . S
O757 C761 1.277 . S
C758 O755 1.241 . S
C758 O756 1.280 . S
O759 Mg742 1.988 1_454 S
O759 C761 1.245 . S
O760 C736 1.247 . S
O760 Mg742 2.061 . S
C761 O757 1.277 . S
C761 O759 1.245 . S
O762 C736 1.289 . S
O762 Mg739 2.238 . S
O762 Mg740 2.101 1_656 S
O763 Mg740 2.081 1_556 S
O763 C745 1.245 . S
O764 Mg743 2.038 1_556 S
O764 C745 1.274 . S
C765 O777 1.241 . S
C765 O778 1.280 . S
C766 O779 1.277 . S
C766 O780 1.245 . S
C767 O791 1.247 . S
C767 O793 1.289 . S
Mg768 O769 1.926 . S
Mg768 O778 1.984 . S
Mg768 O780 1.988 1_554 S
Mg768 O781 2.061 . S
O769 Mg768 1.926 . S
O769 Mg770 1.986 1_554 S
O769 Mg771 1.917 . S
Mg770 O769 1.986 1_556 S
Mg770 O777 2.042 1_556 S
Mg770 O779 2.041 . S
Mg770 O785 2.038 1_556 S
Mg770 O793 2.238 . S
Mg771 O769 1.917 . S
Mg771 O772 1.917 1_554 S
Mg771 O782 2.106 . S
Mg771 O784 2.079 . S
Mg771 O793 2.106 1_554 S
Mg771 O794 2.079 1_554 S
O772 Mg771 1.917 1_556 S
O772 Mg773 1.926 . S
O772 Mg774 1.986 1_556 S
Mg773 O772 1.926 . S
Mg773 O787 1.984 . S
Mg773 O790 1.988 1_556 S
Mg773 O791 2.061 . S
Mg774 O772 1.986 1_554 S
Mg774 O782 2.238 . S
Mg774 O786 2.042 1_554 S
Mg774 O788 2.041 . S
Mg774 O795 2.038 1_554 S
C775 O781 1.247 . S
C775 O782 1.289 . S
C776 O794 1.245 . S
C776 O795 1.274 . S
O777 C765 1.241 . S
O777 Mg770 2.042 1_554 S
O778 C765 1.280 . S
O778 Mg768 1.984 . S
O779 C766 1.277 . S
O779 Mg770 2.041 . S
O780 C766 1.245 . S
O780 Mg768 1.988 1_556 S
O781 Mg768 2.061 . S
O781 C775 1.247 . S
O782 Mg771 2.106 . S
O782 Mg774 2.238 . S
O782 C775 1.289 . S
C783 O784 1.245 . S
C783 O785 1.274 . S
O784 Mg771 2.079 . S
O784 C783 1.245 . S
O785 Mg770 2.038 1_554 S
O785 C783 1.274 . S
O786 Mg774 2.042 1_556 S
O786 C789 1.241 . S
O787 Mg773 1.984 . S
O787 C789 1.280 . S
O788 Mg774 2.041 . S
O788 C792 1.277 . S
C789 O786 1.241 . S
C789 O787 1.280 . S
O790 Mg773 1.988 1_554 S
O790 C792 1.245 . S
O791 C767 1.247 . S
O791 Mg773 2.061 . S
C792 O788 1.277 . S
C792 O790 1.245 . S
O793 C767 1.289 . S
O793 Mg770 2.238 . S
O793 Mg771 2.106 1_556 S
O794 Mg771 2.079 1_556 S
O794 C776 1.245 . S
O795 Mg774 2.038 1_556 S
O795 C776 1.274 . S
C796 O808 1.241 . S
C796 O809 1.280 . S
C797 O810 1.277 . S
C797 O811 1.245 . S
C798 O822 1.247 . S
C798 O824 1.289 . S
Mg799 O800 1.926 1_455 S
Mg799 O809 1.984 1_455 S
Mg799 O811 1.988 1_455 S
Mg799 O812 2.061 . S
O800 Mg799 1.926 1_655 S
O800 Mg801 1.986 . S
O800 Mg802 1.909 1_655 S
Mg801 O800 1.986 . S
Mg801 O808 2.042 . S
Mg801 O810 2.041 . S
Mg801 O816 2.038 . S
Mg801 O824 2.238 . S
Mg802 O800 1.909 1_455 S
Mg802 O803 1.925 . S
Mg802 O813 2.112 . S
Mg802 O815 2.077 1_455 S
Mg802 O824 2.101 1_455 S
Mg802 O825 2.081 . S
O803 Mg802 1.925 . S
O803 Mg804 1.926 1_455 S
O803 Mg805 1.986 . S
Mg804 O803 1.926 1_655 S
Mg804 O818 1.984 1_655 S
Mg804 O821 1.988 1_655 S
Mg804 O822 2.061 . S
Mg805 O803 1.986 . S
Mg805 O813 2.238 . S
Mg805 O817 2.042 . S
Mg805 O819 2.041 . S
Mg805 O826 2.038 . S
C806 O812 1.247 . S
C806 O813 1.289 . S
C807 O825 1.245 . S
C807 O826 1.274 . S
O808 C796 1.241 . S
O808 Mg801 2.042 . S
O809 C796 1.280 . S
O809 Mg799 1.984 1_655 S
O810 C797 1.277 . S
O810 Mg801 2.041 . S
O811 C797 1.245 . S
O811 Mg799 1.988 1_655 S
O812 Mg799 2.061 . S
O812 C806 1.247 . S
O813 Mg802 2.112 . S
O813 Mg805 2.238 . S
O813 C806 1.289 . S
C814 O815 1.245 . S
C814 O816 1.274 . S
O815 Mg802 2.077 1_655 S
O815 C814 1.245 . S
O816 Mg801 2.038 . S
O816 C814 1.274 . S
O817 Mg805 2.042 . S
O817 C820 1.241 . S
O818 Mg804 1.984 1_455 S
O818 C820 1.280 . S
O819 Mg805 2.041 . S
O819 C823 1.277 . S
C820 O817 1.241 . S
C820 O818 1.280 . S
O821 Mg804 1.988 1_455 S
O821 C823 1.245 . S
O822 C798 1.247 . S
O822 Mg804 2.061 . S
C823 O819 1.277 . S
C823 O821 1.245 . S
O824 C798 1.289 . S
O824 Mg801 2.238 . S
O824 Mg802 2.101 1_655 S
O825 Mg802 2.081 . S
O825 C807 1.245 . S
O826 Mg805 2.038 . S
O826 C807 1.274 . S
C827 O839 1.241 . S
C827 O840 1.280 . S
C828 O841 1.277 . S
C828 O842 1.245 . S
C829 O853 1.247 . S
C829 O855 1.289 . S
Mg830 O831 1.926 . S
Mg830 O840 1.984 . S
Mg830 O842 1.988 . S
Mg830 O843 2.061 . S
O831 Mg830 1.926 . S
O831 Mg832 1.986 1_545 S
O831 Mg833 1.917 . S
Mg832 O831 1.986 1_565 S
Mg832 O839 2.042 1_565 S
Mg832 O841 2.041 1_565 S
Mg832 O847 2.038 . S
Mg832 O855 2.238 . S
Mg833 O831 1.917 . S
Mg833 O834 1.917 1_545 S
Mg833 O844 2.106 . S
Mg833 O846 2.079 1_545 S
Mg833 O855 2.106 1_545 S
Mg833 O856 2.079 . S
O834 Mg833 1.917 1_565 S
O834 Mg835 1.926 . S
O834 Mg836 1.986 1_565 S
Mg835 O834 1.926 . S
Mg835 O849 1.984 . S
Mg835 O852 1.988 . S
Mg835 O853 2.061 . S
Mg836 O834 1.986 1_545 S
Mg836 O844 2.238 . S
Mg836 O848 2.042 1_545 S
Mg836 O850 2.041 1_545 S
Mg836 O857 2.038 . S
C837 O843 1.247 . S
C837 O844 1.289 . S
C838 O856 1.245 . S
C838 O857 1.274 . S
O839 C827 1.241 . S
O839 Mg832 2.042 1_545 S
O840 C827 1.280 . S
O840 Mg830 1.984 . S
O841 C828 1.277 . S
O841 Mg832 2.041 1_545 S
O842 C828 1.245 . S
O842 Mg830 1.988 . S
O843 Mg830 2.061 . S
O843 C837 1.247 . S
O844 Mg833 2.106 . S
O844 Mg836 2.238 . S
O844 C837 1.289 . S
C845 O846 1.245 . S
C845 O847 1.274 . S
O846 Mg833 2.079 1_565 S
O846 C845 1.245 . S
O847 Mg832 2.038 . S
O847 C845 1.274 . S
O848 Mg836 2.042 1_565 S
O848 C851 1.241 . S
O849 Mg835 1.984 . S
O849 C851 1.280 . S
O850 Mg836 2.041 1_565 S
O850 C854 1.277 . S
C851 O848 1.241 . S
C851 O849 1.280 . S
O852 Mg835 1.988 . S
O852 C854 1.245 . S
O853 C829 1.247 . S
O853 Mg835 2.061 . S
C854 O850 1.277 . S
C854 O852 1.245 . S
O855 C829 1.289 . S
O855 Mg832 2.238 . S
O855 Mg833 2.106 1_565 S
O856 Mg833 2.079 . S
O856 C838 1.245 . S
O857 Mg836 2.038 . S
O857 C838 1.274 . S
C858 C859 1.363 . S
C858 C864 1.379 . S
C858 N866 1.356 . S
C859 C858 1.363 . S
C859 C865 1.363 . S
C860 C861 1.363 . S
C860 C865 1.379 . S
C860 N867 1.356 . S
C861 C860 1.363 . S
C861 C864 1.363 . S
N862 C864 1.356 . S
N862 H874 0.984 . S
N862 H875 0.985 . S
N863 C865 1.356 . S
N863 H868 0.984 . S
N863 H869 0.985 . S
C864 C858 1.379 . S
C864 C861 1.363 . S
C864 N862 1.356 . S
C865 C859 1.363 . S
C865 C860 1.379 . S
C865 N863 1.356 . S
N866 C858 1.356 . S
N866 H872 0.984 . S
N866 H873 0.984 . S
N867 C860 1.356 . S
N867 H870 0.984 . S
N867 H871 0.971 1_545 S
H868 N863 0.984 . S
H869 N863 0.985 . S
H870 N867 0.984 . S
H871 N867 0.971 1_565 S
H872 N866 0.984 . S
H873 N866 0.984 . S
H874 N862 0.984 . S
H875 N862 0.985 . S
C876 C877 1.363 . S
C876 C882 1.379 . S
C876 N884 1.356 . S
C877 C876 1.363 . S
C877 C883 1.363 . S
C878 C879 1.363 . S
C878 C883 1.379 . S
C878 N885 1.356 . S
C879 C878 1.363 . S
C879 C882 1.363 . S
N880 C882 1.356 . S
N880 H892 0.984 . S
N880 H893 0.985 . S
N881 C883 1.356 . S
N881 H886 0.984 . S
N881 H887 0.985 . S
C882 C876 1.379 . S
C882 C879 1.363 . S
C882 N880 1.356 . S
C883 C877 1.363 . S
C883 C878 1.379 . S
C883 N881 1.356 . S
N884 C876 1.356 . S
N884 H890 0.984 . S
N884 H891 0.984 . S
N885 C878 1.356 . S
N885 H888 0.984 . S
N885 H889 0.985 . S
H886 N881 0.984 . S
H887 N881 0.985 . S
H888 N885 0.984 . S
H889 N885 0.985 . S
H890 N884 0.984 . S
H891 N884 0.984 . S
H892 N880 0.984 . S
H893 N880 0.985 . S
C894 C895 1.363 . S
C894 C900 1.379 . S
C894 N902 1.356 . S
C895 C894 1.363 . S
C895 C901 1.363 . S
C896 C897 1.363 . S
C896 C901 1.379 . S
C896 N903 1.356 . S
C897 C896 1.363 . S
C897 C900 1.363 . S
N898 C900 1.356 . S
N898 H910 0.984 . S
N898 H911 0.985 . S
N899 C901 1.356 . S
N899 H904 0.984 . S
N899 H905 0.985 . S
C900 C894 1.379 . S
C900 C897 1.363 . S
C900 N898 1.356 . S
C901 C895 1.363 . S
C901 C896 1.379 . S
C901 N899 1.356 . S
N902 C894 1.356 . S
N902 H908 0.984 . S
N902 H909 0.984 . S
N903 C896 1.356 . S
N903 H906 0.984 . S
N903 H907 0.985 . S
H904 N899 0.984 . S
H905 N899 0.985 . S
H906 N903 0.984 . S
H907 N903 0.985 . S
H908 N902 0.984 . S
H909 N902 0.984 . S
H910 N898 0.984 . S
H911 N898 0.985 . S
C912 C913 1.363 . S
C912 C918 1.379 . S
C912 N920 1.356 . S
C913 C912 1.363 . S
C913 C919 1.363 . S
C914 C915 1.363 . S
C914 C919 1.379 . S
C914 N921 1.356 . S
C915 C914 1.363 . S
C915 C918 1.363 . S
N916 C918 1.356 . S
N916 H928 0.984 . S
N916 H929 0.985 . S
N917 C919 1.356 . S
N917 H922 0.984 . S
N917 H923 0.985 . S
C918 C912 1.379 . S
C918 C915 1.363 . S
C918 N916 1.356 . S
C919 C913 1.363 . S
C919 C914 1.379 . S
C919 N917 1.356 . S
N920 C912 1.356 . S
N920 H926 0.984 . S
N920 H927 0.984 . S
N921 C914 1.356 . S
N921 H924 0.984 . S
N921 H925 0.985 . S
H922 N917 0.984 . S
H923 N917 0.985 . S
H924 N921 0.984 . S
H925 N921 0.985 . S
H926 N920 0.984 . S
H927 N920 0.984 . S
H928 N916 0.984 . S
H929 N916 0.985 . S
C930 C931 1.363 . S
C930 C936 1.379 . S
C930 N938 1.356 . S
C931 C930 1.363 . S
C931 C937 1.363 . S
C932 C933 1.363 . S
C932 C937 1.379 . S
C932 N939 1.356 . S
C933 C932 1.363 . S
C933 C936 1.363 . S
N934 C936 1.356 . S
N934 H946 0.984 1_565 S
N934 H947 0.985 . S
N935 C937 1.356 . S
N935 H940 0.984 . S
N935 H941 0.985 . S
C936 C930 1.379 . S
C936 C933 1.363 . S
C936 N934 1.356 . S
C937 C931 1.363 . S
C937 C932 1.379 . S
C937 N935 1.356 . S
N938 C930 1.356 . S
N938 H944 0.984 1_565 S
N938 H945 0.984 . S
N939 C932 1.356 . S
N939 H942 0.984 1_455 S
N939 H943 0.985 1_455 S
H940 N935 0.984 . S
H941 N935 0.985 . S
H942 N939 0.984 1_655 S
H943 N939 0.985 1_655 S
H944 N938 0.984 1_545 S
H945 N938 0.984 . S
H946 N934 0.984 1_545 S
H947 N934 0.985 . S
C948 C949 1.363 . S
C948 C954 1.379 . S
C948 N956 1.356 . S
C949 C948 1.363 . S
C949 C955 1.363 . S
C950 C951 1.363 . S
C950 C955 1.379 . S
C950 N957 1.356 . S
C951 C950 1.363 . S
C951 C954 1.363 . S
N952 C954 1.356 . S
N952 H964 0.984 . S
N952 H965 0.985 . S
N953 C955 1.356 . S
N953 H958 0.984 . S
N953 H959 0.985 . S
C954 C948 1.379 . S
C954 C951 1.363 . S
C954 N952 1.356 . S
C955 C949 1.363 . S
C955 C950 1.379 . S
C955 N953 1.356 . S
N956 C948 1.356 . S
N956 H962 0.984 . S
N956 H963 0.984 . S
N957 C950 1.356 . S
N957 H960 0.984 . S
N957 H961 0.985 . S
H958 N953 0.984 . S
H959 N953 0.985 . S
H960 N957 0.984 . S
H961 N957 0.985 . S
H962 N956 0.984 . S
H963 N956 0.984 . S
H964 N952 0.984 . S
H965 N952 0.985 . S
C966 C967 1.363 . S
C966 C972 1.379 . S
C966 N974 1.356 . S
C967 C966 1.363 . S
C967 C973 1.363 . S
C968 C969 1.363 . S
C968 C973 1.379 . S
C968 N975 1.356 . S
C969 C968 1.363 . S
C969 C972 1.363 . S
N970 C972 1.356 . S
N970 H982 0.984 . S
N970 H983 0.985 . S
N971 C973 1.356 . S
N971 H976 0.984 . S
N971 H977 0.985 . S
C972 C966 1.379 . S
C972 C969 1.363 . S
C972 N970 1.356 . S
C973 C967 1.363 . S
C973 C968 1.379 . S
C973 N971 1.356 . S
N974 C966 1.356 . S
N974 H980 0.984 . S
N974 H981 0.984 . S
N975 C968 1.356 . S
N975 H978 0.984 . S
N975 H979 0.985 . S
H976 N971 0.984 . S
H977 N971 0.985 . S
H978 N975 0.984 . S
H979 N975 0.985 . S
H980 N974 0.984 . S
H981 N974 0.984 . S
H982 N970 0.984 . S
H983 N970 0.985 . S
C984 C985 1.363 . S
C984 C990 1.379 . S
C984 N992 1.356 . S
C985 C984 1.363 . S
C985 C991 1.363 . S
C986 C987 1.363 . S
C986 C991 1.379 . S
C986 N993 1.356 . S
C987 C986 1.363 . S
C987 C990 1.363 . S
N988 C990 1.356 . S
N988 H1000 0.984 . S
N988 H1001 0.985 . S
N989 C991 1.356 . S
N989 H994 0.984 . S
N989 H995 0.985 . S
C990 C984 1.379 . S
C990 C987 1.363 . S
C990 N988 1.356 . S
C991 C985 1.363 . S
C991 C986 1.379 . S
C991 N989 1.356 . S
N992 C984 1.356 . S
N992 H998 0.984 . S
N992 H999 0.984 . S
N993 C986 1.356 . S
N993 H996 0.984 . S
N993 H997 0.985 1_565 S
H994 N989 0.984 . S
H995 N989 0.985 . S
H996 N993 0.984 . S
H997 N993 0.985 1_545 S
H998 N992 0.984 . S
H999 N992 0.984 . S
H1000 N988 0.984 . S
H1001 N988 0.985 . S
C1002 C1003 1.363 . S
C1002 C1008 1.379 . S
C1002 N1010 1.356 . S
C1003 C1002 1.363 . S
C1003 C1009 1.363 . S
C1004 C1005 1.363 . S
C1004 C1009 1.379 . S
C1004 N1011 1.356 . S
C1005 C1004 1.363 . S
C1005 C1008 1.363 . S
N1006 C1008 1.356 . S
N1006 H1018 0.984 1_554 S
N1006 H1019 0.985 . S
N1007 C1009 1.356 . S
N1007 H1012 0.984 . S
N1007 H1013 0.985 . S
C1008 C1002 1.379 . S
C1008 C1005 1.363 . S
C1008 N1006 1.356 . S
C1009 C1003 1.363 . S
C1009 C1004 1.379 . S
C1009 N1007 1.356 . S
N1010 C1002 1.356 . S
N1010 H1016 0.984 . S
N1010 H1017 0.984 . S
N1011 C1004 1.356 . S
N1011 H1014 0.984 . S
N1011 H1015 0.985 . S
H1012 N1007 0.984 . S
H1013 N1007 0.985 . S
H1014 N1011 0.984 . S
H1015 N1011 0.985 . S
H1016 N1010 0.984 . S
H1017 N1010 0.984 . S
H1018 N1006 0.984 1_556 S
H1019 N1006 0.985 . S
C1020 C1021 1.363 . S
C1020 C1026 1.379 . S
C1020 N1028 1.356 . S
C1021 C1020 1.363 . S
C1021 C1027 1.363 . S
C1022 C1023 1.363 . S
C1022 C1027 1.379 . S
C1022 N1029 1.356 . S
C1023 C1022 1.363 . S
C1023 C1026 1.363 . S
N1024 C1026 1.356 . S
N1024 H1036 0.984 . S
N1024 H1037 0.985 . S
N1025 C1027 1.356 . S
N1025 H1030 0.984 . S
N1025 H1031 0.985 . S
C1026 C1020 1.379 . S
C1026 C1023 1.363 . S
C1026 N1024 1.356 . S
C1027 C1021 1.363 . S
C1027 C1022 1.379 . S
C1027 N1025 1.356 . S
N1028 C1020 1.356 . S
N1028 H1034 0.984 . S
N1028 H1035 0.984 . S
N1029 C1022 1.356 . S
N1029 H1032 0.984 . S
N1029 H1033 0.985 . S
H1030 N1025 0.984 . S
H1031 N1025 0.985 . S
H1032 N1029 0.984 . S
H1033 N1029 0.985 . S
H1034 N1028 0.984 . S
H1035 N1028 0.984 . S
H1036 N1024 0.984 . S
H1037 N1024 0.985 . S
C1038 C1039 1.363 . S
C1038 C1044 1.379 . S
C1038 N1046 1.356 . S
C1039 C1038 1.363 . S
C1039 C1045 1.363 . S
C1040 C1041 1.363 . S
C1040 C1045 1.379 . S
C1040 N1047 1.356 . S
C1041 C1040 1.363 . S
C1041 C1044 1.363 . S
N1042 C1044 1.356 . S
N1042 H1054 0.984 . S
N1042 H1055 0.985 . S
N1043 C1045 1.356 . S
N1043 H1048 0.984 . S
N1043 H1049 0.985 . S
C1044 C1038 1.379 . S
C1044 C1041 1.363 . S
C1044 N1042 1.356 . S
C1045 C1039 1.363 . S
C1045 C1040 1.379 . S
C1045 N1043 1.356 . S
N1046 C1038 1.356 . S
N1046 H1052 0.984 . S
N1046 H1053 0.984 . S
N1047 C1040 1.356 . S
N1047 H1050 0.984 . S
N1047 H1051 0.985 . S
H1048 N1043 0.984 . S
H1049 N1043 0.985 . S
H1050 N1047 0.984 . S
H1051 N1047 0.985 . S
H1052 N1046 0.984 . S
H1053 N1046 0.984 . S
H1054 N1042 0.984 . S
H1055 N1042 0.985 . S
C1056 C1057 1.363 . S
C1056 C1062 1.379 . S
C1056 N1064 1.356 . S
C1057 C1056 1.363 . S
C1057 C1063 1.363 . S
C1058 C1059 1.363 . S
C1058 C1063 1.379 . S
C1058 N1065 1.356 . S
C1059 C1058 1.363 . S
C1059 C1062 1.363 . S
N1060 C1062 1.356 . S
N1060 H1072 0.984 . S
N1060 H1073 0.985 . S
N1061 C1063 1.356 . S
N1061 H1066 0.984 . S
N1061 H1067 0.985 . S
C1062 C1056 1.379 . S
C1062 C1059 1.363 . S
C1062 N1060 1.356 . S
C1063 C1057 1.363 . S
C1063 C1058 1.379 . S
C1063 N1061 1.356 . S
N1064 C1056 1.356 . S
N1064 H1070 0.984 . S
N1064 H1071 0.984 . S
N1065 C1058 1.356 . S
N1065 H1068 0.984 . S
N1065 H1069 0.985 . S
H1066 N1061 0.984 . S
H1067 N1061 0.985 . S
H1068 N1065 0.984 . S
H1069 N1065 0.985 . S
H1070 N1064 0.984 . S
H1071 N1064 0.984 . S
H1072 N1060 0.984 . S
H1073 N1060 0.985 . S
C1074 C1075 1.363 . S
C1074 C1080 1.379 . S
C1074 N1082 1.356 . S
C1075 C1074 1.363 . S
C1075 C1081 1.363 . S
C1076 C1077 1.363 . S
C1076 C1081 1.379 . S
C1076 N1083 1.356 . S
C1077 C1076 1.363 . S
C1077 C1080 1.363 . S
N1078 C1080 1.356 . S
N1078 H1090 0.984 . S
N1078 H1091 0.985 . S
N1079 C1081 1.356 . S
N1079 H1084 0.984 . S
N1079 H1085 0.985 . S
C1080 C1074 1.379 . S
C1080 C1077 1.363 . S
C1080 N1078 1.356 . S
C1081 C1075 1.363 . S
C1081 C1076 1.379 . S
C1081 N1079 1.356 . S
N1082 C1074 1.356 . S
N1082 H1088 0.984 . S
N1082 H1089 0.984 . S
N1083 C1076 1.356 . S
N1083 H1086 0.984 . S
N1083 H1087 0.985 . S
H1084 N1079 0.984 . S
H1085 N1079 0.985 . S
H1086 N1083 0.984 . S
H1087 N1083 0.985 . S
H1088 N1082 0.984 . S
H1089 N1082 0.984 . S
H1090 N1078 0.984 . S
H1091 N1078 0.985 . S
C1092 C1093 1.363 . S
C1092 C1098 1.379 . S
C1092 N1100 1.356 . S
C1093 C1092 1.363 . S
C1093 C1099 1.363 . S
C1094 C1095 1.363 . S
C1094 C1099 1.379 . S
C1094 N1101 1.356 . S
C1095 C1094 1.363 . S
C1095 C1098 1.363 . S
N1096 C1098 1.356 . S
N1096 H1108 0.984 . S
N1096 H1109 0.985 . S
N1097 C1099 1.356 . S
N1097 H1102 0.984 . S
N1097 H1103 0.985 . S
C1098 C1092 1.379 . S
C1098 C1095 1.363 . S
C1098 N1096 1.356 . S
C1099 C1093 1.363 . S
C1099 C1094 1.379 . S
C1099 N1097 1.356 . S
N1100 C1092 1.356 . S
N1100 H1106 0.984 . S
N1100 H1107 0.984 . S
N1101 C1094 1.356 . S
N1101 H1104 0.984 . S
N1101 H1105 0.985 . S
H1102 N1097 0.984 . S
H1103 N1097 0.985 . S
H1104 N1101 0.984 . S
H1105 N1101 0.985 . S
H1106 N1100 0.984 . S
H1107 N1100 0.984 . S
H1108 N1096 0.984 . S
H1109 N1096 0.985 . S
C1110 C1111 1.363 . S
C1110 C1116 1.379 . S
C1110 N1118 1.356 . S
C1111 C1110 1.363 . S
C1111 C1117 1.363 . S
C1112 C1113 1.363 . S
C1112 C1117 1.379 . S
C1112 N1119 1.356 . S
C1113 C1112 1.363 . S
C1113 C1116 1.363 . S
N1114 C1116 1.356 . S
N1114 H1126 0.984 . S
N1114 H1127 0.985 . S
N1115 C1117 1.356 . S
N1115 H1120 0.984 . S
N1115 H1121 0.985 . S
C1116 C1110 1.379 . S
C1116 C1113 1.363 . S
C1116 N1114 1.356 . S
C1117 C1111 1.363 . S
C1117 C1112 1.379 . S
C1117 N1115 1.356 . S
N1118 C1110 1.356 . S
N1118 H1124 0.984 . S
N1118 H1125 0.984 . S
N1119 C1112 1.356 . S
N1119 H1122 0.984 . S
N1119 H1123 0.985 . S
H1120 N1115 0.984 . S
H1121 N1115 0.985 . S
H1122 N1119 0.984 . S
H1123 N1119 0.985 . S
H1124 N1118 0.984 . S
H1125 N1118 0.984 . S
H1126 N1114 0.984 . S
H1127 N1114 0.985 . S
C1128 C1129 1.363 . S
C1128 C1134 1.379 . S
C1128 N1136 1.356 . S
C1129 C1128 1.363 . S
C1129 C1135 1.363 . S
C1130 C1131 1.363 . S
C1130 C1135 1.379 . S
C1130 N1137 1.356 . S
C1131 C1130 1.363 . S
C1131 C1134 1.363 . S
N1132 C1134 1.356 . S
N1132 H1144 0.984 . S
N1132 H1145 0.985 . S
N1133 C1135 1.356 . S
N1133 H1138 0.984 . S
N1133 H1139 0.985 . S
C1134 C1128 1.379 . S
C1134 C1131 1.363 . S
C1134 N1132 1.356 . S
C1135 C1129 1.363 . S
C1135 C1130 1.379 . S
C1135 N1133 1.356 . S
N1136 C1128 1.356 . S
N1136 H1142 0.984 . S
N1136 H1143 0.984 . S
N1137 C1130 1.356 . S
N1137 H1140 0.984 . S
N1137 H1141 0.985 . S
H1138 N1133 0.984 . S
H1139 N1133 0.985 . S
H1140 N1137 0.984 . S
H1141 N1137 0.985 . S
H1142 N1136 0.984 . S
H1143 N1136 0.984 . S
H1144 N1132 0.984 . S
H1145 N1132 0.985 . S
C1146 C1147 1.363 . S
C1146 C1152 1.379 . S
C1146 N1154 1.356 . S
C1147 C1146 1.363 . S
C1147 C1153 1.363 . S
C1148 C1149 1.363 . S
C1148 C1153 1.379 . S
C1148 N1155 1.356 . S
C1149 C1148 1.363 . S
C1149 C1152 1.363 . S
N1150 C1152 1.356 . S
N1150 H1162 0.984 . S
N1150 H1163 0.985 . S
N1151 C1153 1.356 . S
N1151 H1156 0.984 . S
N1151 H1157 0.985 . S
C1152 C1146 1.379 . S
C1152 C1149 1.363 . S
C1152 N1150 1.356 . S
C1153 C1147 1.363 . S
C1153 C1148 1.379 . S
C1153 N1151 1.356 . S
N1154 C1146 1.356 . S
N1154 H1160 0.984 . S
N1154 H1161 0.984 . S
N1155 C1148 1.356 . S
N1155 H1158 0.984 . S
N1155 H1159 0.985 . S
H1156 N1151 0.984 . S
H1157 N1151 0.985 . S
H1158 N1155 0.984 . S
H1159 N1155 0.985 . S
H1160 N1154 0.984 . S
H1161 N1154 0.984 . S
H1162 N1150 0.984 . S
H1163 N1150 0.985 . S
C1164 C1165 1.363 . S
C1164 C1170 1.379 . S
C1164 N1172 1.356 . S
C1165 C1164 1.363 . S
C1165 C1171 1.363 . S
C1166 C1167 1.363 . S
C1166 C1171 1.379 . S
C1166 N1173 1.356 . S
C1167 C1166 1.363 . S
C1167 C1170 1.363 . S
N1168 C1170 1.356 . S
N1168 H1180 0.984 . S
N1168 H1181 0.985 . S
N1169 C1171 1.356 . S
N1169 H1174 0.984 . S
N1169 H1175 0.985 . S
C1170 C1164 1.379 . S
C1170 C1167 1.363 . S
C1170 N1168 1.356 . S
C1171 C1165 1.363 . S
C1171 C1166 1.379 . S
C1171 N1169 1.356 . S
N1172 C1164 1.356 . S
N1172 H1178 0.984 . S
N1172 H1179 0.984 . S
N1173 C1166 1.356 . S
N1173 H1176 0.984 . S
N1173 H1177 0.985 . S
H1174 N1169 0.984 . S
H1175 N1169 0.985 . S
H1176 N1173 0.984 . S
H1177 N1173 0.985 . S
H1178 N1172 0.984 . S
H1179 N1172 0.984 . S
H1180 N1168 0.984 . S
H1181 N1168 0.985 . S
C1182 C1183 1.363 . S
C1182 C1188 1.379 . S
C1182 N1190 1.356 . S
C1183 C1182 1.363 . S
C1183 C1189 1.363 . S
C1184 C1185 1.363 . S
C1184 C1189 1.379 . S
C1184 N1191 1.356 . S
C1185 C1184 1.363 . S
C1185 C1188 1.363 . S
N1186 C1188 1.356 . S
N1186 H1198 0.984 . S
N1186 H1199 0.985 . S
N1187 C1189 1.356 . S
N1187 H1192 0.984 . S
N1187 H1193 0.985 . S
C1188 C1182 1.379 . S
C1188 C1185 1.363 . S
C1188 N1186 1.356 . S
C1189 C1183 1.363 . S
C1189 C1184 1.379 . S
C1189 N1187 1.356 . S
N1190 C1182 1.356 . S
N1190 H1196 0.984 . S
N1190 H1197 0.984 . S
N1191 C1184 1.356 . S
N1191 H1194 0.984 . S
N1191 H1195 0.985 . S
H1192 N1187 0.984 . S
H1193 N1187 0.985 . S
H1194 N1191 0.984 . S
H1195 N1191 0.985 . S
H1196 N1190 0.984 . S
H1197 N1190 0.984 . S
H1198 N1186 0.984 . S
H1199 N1186 0.985 . S
C1200 C1201 1.363 . S
C1200 C1206 1.379 . S
C1200 N1208 1.356 . S
C1201 C1200 1.363 . S
C1201 C1207 1.363 . S
C1202 C1203 1.363 . S
C1202 C1207 1.379 . S
C1202 N1209 1.356 . S
C1203 C1202 1.363 . S
C1203 C1206 1.363 . S
N1204 C1206 1.356 . S
N1204 H1216 0.984 . S
N1204 H1217 0.985 . S
N1205 C1207 1.356 . S
N1205 H1210 0.984 . S
N1205 H1211 0.985 . S
C1206 C1200 1.379 . S
C1206 C1203 1.363 . S
C1206 N1204 1.356 . S
C1207 C1201 1.363 . S
C1207 C1202 1.379 . S
C1207 N1205 1.356 . S
N1208 C1200 1.356 . S
N1208 H1214 0.984 . S
N1208 H1215 0.984 . S
N1209 C1202 1.356 . S
N1209 H1212 0.984 . S
N1209 H1213 0.985 . S
H1210 N1205 0.984 . S
H1211 N1205 0.985 . S
H1212 N1209 0.984 . S
H1213 N1209 0.985 . S
H1214 N1208 0.984 . S
H1215 N1208 0.984 . S
H1216 N1204 0.984 . S
H1217 N1204 0.985 . S
C1218 C1219 1.363 . S
C1218 C1224 1.379 . S
C1218 N1226 1.356 . S
C1219 C1218 1.363 . S
C1219 C1225 1.363 . S
C1220 C1221 1.363 . S
C1220 C1225 1.379 . S
C1220 N1227 1.356 . S
C1221 C1220 1.363 . S
C1221 C1224 1.363 . S
N1222 C1224 1.359 1_545 S
N1222 H1234 0.983 . S
N1222 H1235 0.983 1_545 S
N1223 C1225 1.356 . S
N1223 H1228 0.984 . S
N1223 H1229 0.985 . S
C1224 C1218 1.379 . S
C1224 C1221 1.363 . S
C1224 N1222 1.359 1_565 S
C1225 C1219 1.363 . S
C1225 C1220 1.379 . S
C1225 N1223 1.356 . S
N1226 C1218 1.356 . S
N1226 H1232 0.984 1_565 S
N1226 H1233 0.984 . S
N1227 C1220 1.356 . S
N1227 H1230 0.984 . S
N1227 H1231 0.985 . S
H1228 N1223 0.984 . S
H1229 N1223 0.985 . S
H1230 N1227 0.984 . S
H1231 N1227 0.985 . S
H1232 N1226 0.984 1_545 S
H1233 N1226 0.984 . S
H1234 N1222 0.983 . S
H1235 N1222 0.983 1_565 S
C1236 C1237 1.363 . S
C1236 C1242 1.379 . S
C1236 N1244 1.356 . S
C1237 C1236 1.363 . S
C1237 C1243 1.363 . S
C1238 C1239 1.363 . S
C1238 C1243 1.379 . S
C1238 N1245 1.356 . S
C1239 C1238 1.363 . S
C1239 C1242 1.363 . S
N1240 C1242 1.356 . S
N1240 H1252 0.972 1_655 S
N1240 H1253 0.985 . S
N1241 C1243 1.356 . S
N1241 H1246 0.984 . S
N1241 H1247 0.985 . S
C1242 C1236 1.379 . S
C1242 C1239 1.363 . S
C1242 N1240 1.356 . S
C1243 C1237 1.363 . S
C1243 C1238 1.379 . S
C1243 N1241 1.356 . S
N1244 C1236 1.356 . S
N1244 H1250 0.984 . S
N1244 H1251 0.984 . S
N1245 C1238 1.356 . S
N1245 H1248 0.984 . S
N1245 H1249 0.985 . S
H1246 N1241 0.984 . S
H1247 N1241 0.985 . S
H1248 N1245 0.984 . S
H1249 N1245 0.985 . S
H1250 N1244 0.984 . S
H1251 N1244 0.984 . S
H1252 N1240 0.972 1_455 S
H1253 N1240 0.985 . S
C1254 C1255 1.363 . S
C1254 C1260 1.379 . S
C1254 N1262 1.356 . S
C1255 C1254 1.363 . S
C1255 C1261 1.363 . S
C1256 C1257 1.363 . S
C1256 C1261 1.379 . S
C1256 N1263 1.356 . S
C1257 C1256 1.363 . S
C1257 C1260 1.363 . S
N1258 C1260 1.356 . S
N1258 H1270 0.984 . S
N1258 H1271 0.985 . S
N1259 C1261 1.356 . S
N1259 H1264 0.984 . S
N1259 H1265 0.985 . S
C1260 C1254 1.379 . S
C1260 C1257 1.363 . S
C1260 N1258 1.356 . S
C1261 C1255 1.363 . S
C1261 C1256 1.379 . S
C1261 N1259 1.356 . S
N1262 C1254 1.356 . S
N1262 H1268 0.984 . S
N1262 H1269 0.984 . S
N1263 C1256 1.356 . S
N1263 H1266 0.984 . S
N1263 H1267 0.985 . S
H1264 N1259 0.984 . S
H1265 N1259 0.985 . S
H1266 N1263 0.984 . S
H1267 N1263 0.985 . S
H1268 N1262 0.984 . S
H1269 N1262 0.984 . S
H1270 N1258 0.984 . S
H1271 N1258 0.985 . S
C1272 C1273 1.363 . S
C1272 C1278 1.379 . S
C1272 N1280 1.356 . S
C1273 C1272 1.363 . S
C1273 C1279 1.363 . S
C1274 C1275 1.363 . S
C1274 C1279 1.379 . S
C1274 N1281 1.356 . S
C1275 C1274 1.363 . S
C1275 C1278 1.363 . S
N1276 C1278 1.356 . S
N1276 H1288 0.984 . S
N1276 H1289 0.985 . S
N1277 C1279 1.356 . S
N1277 H1282 0.984 . S
N1277 H1283 0.985 . S
C1278 C1272 1.379 . S
C1278 C1275 1.363 . S
C1278 N1276 1.356 . S
C1279 C1273 1.363 . S
C1279 C1274 1.379 . S
C1279 N1277 1.356 . S
N1280 C1272 1.356 . S
N1280 H1286 0.984 . S
N1280 H1287 0.984 . S
N1281 C1274 1.356 . S
N1281 H1284 0.984 . S
N1281 H1285 0.985 . S
H1282 N1277 0.984 . S
H1283 N1277 0.985 . S
H1284 N1281 0.984 . S
H1285 N1281 0.985 . S
H1286 N1280 0.984 . S
H1287 N1280 0.984 . S
H1288 N1276 0.984 . S
H1289 N1276 0.985 . S
C1290 C1291 1.363 . S
C1290 C1296 1.379 . S
C1290 N1298 1.356 . S
C1291 C1290 1.363 . S
C1291 C1297 1.363 . S
C1292 C1293 1.363 . S
C1292 C1297 1.379 . S
C1292 N1299 1.356 . S
C1293 C1292 1.363 . S
C1293 C1296 1.363 . S
N1294 C1296 1.356 . S
N1294 H1306 0.984 . S
N1294 H1307 0.985 . S
N1295 C1297 1.356 . S
N1295 H1300 0.984 . S
N1295 H1301 0.985 . S
C1296 C1290 1.379 . S
C1296 C1293 1.363 . S
C1296 N1294 1.356 . S
C1297 C1291 1.363 . S
C1297 C1292 1.379 . S
C1297 N1295 1.356 . S
N1298 C1290 1.356 . S
N1298 H1304 0.984 . S
N1298 H1305 0.984 . S
N1299 C1292 1.356 . S
N1299 H1302 0.984 . S
N1299 H1303 0.985 . S
H1300 N1295 0.984 . S
H1301 N1295 0.985 . S
H1302 N1299 0.984 . S
H1303 N1299 0.985 . S
H1304 N1298 0.984 . S
H1305 N1298 0.984 . S
H1306 N1294 0.984 . S
H1307 N1294 0.985 . S
C1308 C1309 1.363 . S
C1308 C1314 1.379 . S
C1308 N1316 1.356 . S
C1309 C1308 1.363 . S
C1309 C1315 1.363 . S
C1310 C1311 1.363 . S
C1310 C1315 1.379 . S
C1310 N1317 1.356 . S
C1311 C1310 1.363 . S
C1311 C1314 1.363 . S
N1312 C1314 1.356 . S
N1312 H1324 0.984 . S
N1312 H1325 0.985 . S
N1313 C1315 1.356 . S
N1313 H1318 0.984 . S
N1313 H1319 0.985 . S
C1314 C1308 1.379 . S
C1314 C1311 1.363 . S
C1314 N1312 1.356 . S
C1315 C1309 1.363 . S
C1315 C1310 1.379 . S
C1315 N1313 1.356 . S
N1316 C1308 1.356 . S
N1316 H1322 0.984 . S
N1316 H1323 0.984 . S
N1317 C1310 1.356 . S
N1317 H1320 0.984 . S
N1317 H1321 0.985 . S
H1318 N1313 0.984 . S
H1319 N1313 0.985 . S
H1320 N1317 0.984 . S
H1321 N1317 0.985 . S
H1322 N1316 0.984 . S
H1323 N1316 0.984 . S
H1324 N1312 0.984 . S
H1325 N1312 0.985 . S
C1326 C1327 1.363 . S
C1326 C1332 1.379 . S
C1326 N1334 1.356 . S
C1327 C1326 1.363 . S
C1327 C1333 1.363 . S
C1328 C1329 1.363 . S
C1328 C1333 1.379 . S
C1328 N1335 1.356 . S
C1329 C1328 1.363 . S
C1329 C1332 1.363 . S
N1330 C1332 1.356 . S
N1330 H1342 0.984 . S
N1330 H1343 0.985 . S
N1331 C1333 1.356 . S
N1331 H1336 0.984 . S
N1331 H1337 0.985 . S
C1332 C1326 1.379 . S
C1332 C1329 1.363 . S
C1332 N1330 1.356 . S
C1333 C1327 1.363 . S
C1333 C1328 1.379 . S
C1333 N1331 1.356 . S
N1334 C1326 1.356 . S
N1334 H1340 0.984 . S
N1334 H1341 0.984 . S
N1335 C1328 1.356 . S
N1335 H1338 0.984 . S
N1335 H1339 0.985 . S
H1336 N1331 0.984 . S
H1337 N1331 0.985 . S
H1338 N1335 0.984 . S
H1339 N1335 0.985 . S
H1340 N1334 0.984 . S
H1341 N1334 0.984 . S
H1342 N1330 0.984 . S
H1343 N1330 0.985 . S
C1344 C1345 1.363 . S
C1344 C1350 1.379 . S
C1344 N1352 1.356 . S
C1345 C1344 1.363 . S
C1345 C1351 1.363 . S
C1346 C1347 1.363 . S
C1346 C1351 1.379 . S
C1346 N1353 1.356 . S
C1347 C1346 1.363 . S
C1347 C1350 1.363 . S
N1348 C1350 1.356 . S
N1348 H1360 0.984 . S
N1348 H1361 0.985 . S
N1349 C1351 1.356 . S
N1349 H1354 0.984 . S
N1349 H1355 0.985 . S
C1350 C1344 1.379 . S
C1350 C1347 1.363 . S
C1350 N1348 1.356 . S
C1351 C1345 1.363 . S
C1351 C1346 1.379 . S
C1351 N1349 1.356 . S
N1352 C1344 1.356 . S
N1352 H1358 0.984 . S
N1352 H1359 0.984 . S
N1353 C1346 1.356 . S
N1353 H1356 0.984 . S
N1353 H1357 0.985 . S
H1354 N1349 0.984 . S
H1355 N1349 0.985 . S
H1356 N1353 0.984 . S
H1357 N1353 0.985 . S
H1358 N1352 0.984 . S
H1359 N1352 0.984 . S
H1360 N1348 0.984 . S
H1361 N1348 0.985 . S
C1362 C1363 1.363 . S
C1362 C1368 1.379 . S
C1362 N1370 1.356 . S
C1363 C1362 1.363 . S
C1363 C1369 1.363 . S
C1364 C1365 1.363 . S
C1364 C1369 1.379 . S
C1364 N1371 1.356 . S
C1365 C1364 1.363 . S
C1365 C1368 1.363 . S
N1366 C1368 1.356 . S
N1366 H1378 0.984 . S
N1366 H1379 0.985 . S
N1367 C1369 1.356 . S
N1367 H1372 0.984 . S
N1367 H1373 0.985 . S
C1368 C1362 1.379 . S
C1368 C1365 1.363 . S
C1368 N1366 1.356 . S
C1369 C1363 1.363 . S
C1369 C1364 1.379 . S
C1369 N1367 1.356 . S
N1370 C1362 1.356 . S
N1370 H1376 0.983 . S
N1370 H1377 0.984 . S
N1371 C1364 1.356 . S
N1371 H1374 0.984 . S
N1371 H1375 0.985 . S
H1372 N1367 0.984 . S
H1373 N1367 0.985 . S
H1374 N1371 0.984 . S
H1375 N1371 0.985 . S
H1376 N1370 0.983 . S
H1377 N1370 0.984 . S
H1378 N1366 0.984 . S
H1379 N1366 0.985 . S
C1380 C1381 1.363 . S
C1380 C1386 1.379 . S
C1380 N1388 1.356 . S
C1381 C1380 1.363 . S
C1381 C1387 1.363 . S
C1382 C1383 1.363 . S
C1382 C1387 1.379 . S
C1382 N1389 1.356 . S
C1383 C1382 1.363 . S
C1383 C1386 1.363 . S
N1384 C1386 1.356 . S
N1384 H1396 0.984 . S
N1384 H1397 0.985 . S
N1385 C1387 1.356 . S
N1385 H1390 0.984 . S
N1385 H1391 0.985 . S
C1386 C1380 1.379 . S
C1386 C1383 1.363 . S
C1386 N1384 1.356 . S
C1387 C1381 1.363 . S
C1387 C1382 1.379 . S
C1387 N1385 1.356 . S
N1388 C1380 1.356 . S
N1388 H1394 0.984 . S
N1388 H1395 0.984 . S
N1389 C1382 1.356 . S
N1389 H1392 0.984 . S
N1389 H1393 0.985 . S
H1390 N1385 0.984 . S
H1391 N1385 0.985 . S
H1392 N1389 0.984 . S
H1393 N1389 0.985 . S
H1394 N1388 0.984 . S
H1395 N1388 0.984 . S
H1396 N1384 0.984 . S
H1397 N1384 0.985 . S
C1398 C1399 1.363 . S
C1398 C1404 1.379 . S
C1398 N1406 1.356 . S
C1399 C1398 1.363 . S
C1399 C1405 1.363 . S
C1400 C1401 1.363 . S
C1400 C1405 1.379 . S
C1400 N1407 1.356 . S
C1401 C1400 1.363 . S
C1401 C1404 1.363 . S
N1402 C1404 1.356 . S
N1402 H1414 0.984 . S
N1402 H1415 0.985 . S
N1403 C1405 1.356 . S
N1403 H1408 0.984 . S
N1403 H1409 0.985 . S
C1404 C1398 1.379 . S
C1404 C1401 1.363 . S
C1404 N1402 1.356 . S
C1405 C1399 1.363 . S
C1405 C1400 1.379 . S
C1405 N1403 1.356 . S
N1406 C1398 1.356 . S
N1406 H1412 0.984 . S
N1406 H1413 0.984 . S
N1407 C1400 1.356 . S
N1407 H1410 0.984 . S
N1407 H1411 0.985 . S
H1408 N1403 0.984 . S
H1409 N1403 0.985 . S
H1410 N1407 0.984 . S
H1411 N1407 0.985 . S
H1412 N1406 0.984 . S
H1413 N1406 0.984 . S
H1414 N1402 0.984 . S
H1415 N1402 0.985 . S
C1416 C1417 1.363 . S
C1416 C1422 1.379 . S
C1416 N1424 1.356 . S
C1417 C1416 1.363 . S
C1417 C1423 1.363 . S
C1418 C1419 1.363 . S
C1418 C1423 1.379 . S
C1418 N1425 1.356 . S
C1419 C1418 1.363 . S
C1419 C1422 1.363 . S
N1420 C1422 1.356 . S
N1420 H1432 0.984 . S
N1420 H1433 0.985 . S
N1421 C1423 1.356 . S
N1421 H1426 0.984 . S
N1421 H1427 0.985 . S
C1422 C1416 1.379 . S
C1422 C1419 1.363 . S
C1422 N1420 1.356 . S
C1423 C1417 1.363 . S
C1423 C1418 1.379 . S
C1423 N1421 1.356 . S
N1424 C1416 1.356 . S
N1424 H1430 0.984 . S
N1424 H1431 0.984 . S
N1425 C1418 1.356 . S
N1425 H1428 0.984 . S
N1425 H1429 0.985 . S
H1426 N1421 0.984 . S
H1427 N1421 0.985 . S
H1428 N1425 0.984 . S
H1429 N1425 0.985 . S
H1430 N1424 0.984 . S
H1431 N1424 0.984 . S
H1432 N1420 0.984 . S
H1433 N1420 0.985 . S
C1434 C1435 1.363 . S
C1434 C1440 1.379 . S
C1434 N1442 1.356 . S
C1435 C1434 1.363 . S
C1435 C1441 1.363 . S
C1436 C1437 1.363 . S
C1436 C1441 1.379 . S
C1436 N1443 1.356 . S
C1437 C1436 1.363 . S
C1437 C1440 1.363 . S
N1438 C1440 1.356 . S
N1438 H1450 0.984 . S
N1438 H1451 0.985 . S
N1439 C1441 1.356 . S
N1439 H1444 0.984 . S
N1439 H1445 0.985 . S
C1440 C1434 1.379 . S
C1440 C1437 1.363 . S
C1440 N1438 1.356 . S
C1441 C1435 1.363 . S
C1441 C1436 1.379 . S
C1441 N1439 1.356 . S
N1442 C1434 1.356 . S
N1442 H1448 0.984 . S
N1442 H1449 0.984 . S
N1443 C1436 1.356 . S
N1443 H1446 0.984 . S
N1443 H1447 0.985 . S
H1444 N1439 0.984 . S
H1445 N1439 0.985 . S
H1446 N1443 0.984 . S
H1447 N1443 0.985 . S
H1448 N1442 0.984 . S
H1449 N1442 0.984 . S
H1450 N1438 0.984 . S
H1451 N1438 0.985 . S
C1452 C1453 1.363 . S
C1452 C1458 1.379 . S
C1452 N1460 1.356 . S
C1453 C1452 1.363 . S
C1453 C1459 1.363 . S
C1454 C1455 1.363 . S
C1454 C1459 1.379 . S
C1454 N1461 1.356 . S
C1455 C1454 1.363 . S
C1455 C1458 1.363 . S
N1456 C1458 1.356 . S
N1456 H1468 0.984 . S
N1456 H1469 0.985 . S
N1457 C1459 1.356 . S
N1457 H1462 0.984 . S
N1457 H1463 0.985 . S
C1458 C1452 1.379 . S
C1458 C1455 1.363 . S
C1458 N1456 1.356 . S
C1459 C1453 1.363 . S
C1459 C1454 1.379 . S
C1459 N1457 1.356 . S
N1460 C1452 1.356 . S
N1460 H1466 0.984 . S
N1460 H1467 0.984 . S
N1461 C1454 1.356 . S
N1461 H1464 0.984 . S
N1461 H1465 0.985 . S
H1462 N1457 0.984 . S
H1463 N1457 0.985 . S
H1464 N1461 0.984 . S
H1465 N1461 0.985 . S
H1466 N1460 0.984 . S
H1467 N1460 0.984 . S
H1468 N1456 0.984 . S
H1469 N1456 0.985 . S
C1470 C1471 1.363 . S
C1470 C1476 1.379 . S
C1470 N1478 1.356 . S
C1471 C1470 1.363 . S
C1471 C1477 1.363 . S
C1472 C1473 1.363 . S
C1472 C1477 1.379 . S
C1472 N1479 1.356 . S
C1473 C1472 1.363 . S
C1473 C1476 1.363 . S
N1474 C1476 1.356 . S
N1474 H1486 0.984 . S
N1474 H1487 0.985 . S
N1475 C1477 1.356 . S
N1475 H1480 0.984 . S
N1475 H1481 0.985 . S
C1476 C1470 1.379 . S
C1476 C1473 1.363 . S
C1476 N1474 1.356 . S
C1477 C1471 1.363 . S
C1477 C1472 1.379 . S
C1477 N1475 1.356 . S
N1478 C1470 1.356 . S
N1478 H1484 0.984 . S
N1478 H1485 0.984 . S
N1479 C1472 1.356 . S
N1479 H1482 0.984 . S
N1479 H1483 0.985 . S
H1480 N1475 0.984 . S
H1481 N1475 0.985 . S
H1482 N1479 0.984 . S
H1483 N1479 0.985 . S
H1484 N1478 0.984 . S
H1485 N1478 0.984 . S
H1486 N1474 0.984 . S
H1487 N1474 0.985 . S
C1488 C1489 1.363 . S
C1488 C1494 1.379 . S
C1488 N1496 1.356 . S
C1489 C1488 1.363 . S
C1489 C1495 1.363 . S
C1490 C1491 1.363 . S
C1490 C1495 1.379 . S
C1490 N1497 1.356 . S
C1491 C1490 1.363 . S
C1491 C1494 1.363 . S
N1492 C1494 1.356 . S
N1492 H1504 0.984 . S
N1492 H1505 0.985 . S
N1493 C1495 1.356 . S
N1493 H1498 0.984 . S
N1493 H1499 0.985 . S
C1494 C1488 1.379 . S
C1494 C1491 1.363 . S
C1494 N1492 1.356 . S
C1495 C1489 1.363 . S
C1495 C1490 1.379 . S
C1495 N1493 1.356 . S
N1496 C1488 1.356 . S
N1496 H1502 0.984 . S
N1496 H1503 0.984 . S
N1497 C1490 1.356 . S
N1497 H1500 0.984 . S
N1497 H1501 0.985 . S
H1498 N1493 0.984 . S
H1499 N1493 0.985 . S
H1500 N1497 0.984 . S
H1501 N1497 0.985 . S
H1502 N1496 0.984 . S
H1503 N1496 0.984 . S
H1504 N1492 0.984 . S
H1505 N1492 0.985 . S
C1506 C1507 1.363 . S
C1506 C1512 1.379 . S
C1506 N1514 1.356 . S
C1507 C1506 1.363 . S
C1507 C1513 1.363 . S
C1508 C1509 1.363 . S
C1508 C1513 1.379 . S
C1508 N1515 1.356 . S
C1509 C1508 1.363 . S
C1509 C1512 1.363 . S
N1510 C1512 1.356 . S
N1510 H1522 0.984 . S
N1510 H1523 0.985 . S
N1511 C1513 1.356 . S
N1511 H1516 0.984 . S
N1511 H1517 0.985 . S
C1512 C1506 1.379 . S
C1512 C1509 1.363 . S
C1512 N1510 1.356 . S
C1513 C1507 1.363 . S
C1513 C1508 1.379 . S
C1513 N1511 1.356 . S
N1514 C1506 1.356 . S
N1514 H1520 0.984 . S
N1514 H1521 0.984 . S
N1515 C1508 1.356 . S
N1515 H1518 0.984 . S
N1515 H1519 0.985 . S
H1516 N1511 0.984 . S
H1517 N1511 0.985 . S
H1518 N1515 0.984 . S
H1519 N1515 0.985 . S
H1520 N1514 0.984 . S
H1521 N1514 0.984 . S
H1522 N1510 0.984 . S
H1523 N1510 0.985 . S
C1524 C1525 1.363 . S
C1524 C1530 1.379 . S
C1524 N1532 1.356 . S
C1525 C1524 1.363 . S
C1525 C1531 1.363 . S
C1526 C1527 1.363 . S
C1526 C1531 1.379 . S
C1526 N1533 1.356 . S
C1527 C1526 1.363 . S
C1527 C1530 1.363 . S
N1528 C1530 1.356 . S
N1528 H1540 0.985 1_565 S
N1528 H1541 0.985 . S
N1529 C1531 1.356 . S
N1529 H1534 0.984 . S
N1529 H1535 0.985 . S
C1530 C1524 1.379 . S
C1530 C1527 1.363 . S
C1530 N1528 1.356 . S
C1531 C1525 1.363 . S
C1531 C1526 1.379 . S
C1531 N1529 1.356 . S
N1532 C1524 1.356 . S
N1532 H1538 0.984 . S
N1532 H1539 0.984 . S
N1533 C1526 1.356 . S
N1533 H1536 0.984 . S
N1533 H1537 0.985 . S
H1534 N1529 0.984 . S
H1535 N1529 0.985 . S
H1536 N1533 0.984 . S
H1537 N1533 0.985 . S
H1538 N1532 0.984 . S
H1539 N1532 0.984 . S
H1540 N1528 0.985 1_545 S
H1541 N1528 0.985 . S
C1542 C1543 1.363 . S
C1542 C1548 1.379 . S
C1542 N1550 1.356 . S
C1543 C1542 1.363 . S
C1543 C1549 1.363 . S
C1544 C1545 1.363 . S
C1544 C1549 1.379 . S
C1544 N1551 1.356 . S
C1545 C1544 1.363 . S
C1545 C1548 1.363 . S
N1546 C1548 1.356 . S
N1546 H1558 0.984 . S
N1546 H1559 0.985 . S
N1547 C1549 1.356 . S
N1547 H1552 0.984 . S
N1547 H1553 0.985 . S
C1548 C1542 1.379 . S
C1548 C1545 1.363 . S
C1548 N1546 1.356 . S
C1549 C1543 1.363 . S
C1549 C1544 1.379 . S
C1549 N1547 1.356 . S
N1550 C1542 1.356 . S
N1550 H1556 0.984 . S
N1550 H1557 0.984 . S
N1551 C1544 1.356 . S
N1551 H1554 0.984 . S
N1551 H1555 0.985 . S
H1552 N1547 0.984 . S
H1553 N1547 0.985 . S
H1554 N1551 0.984 . S
H1555 N1551 0.985 . S
H1556 N1550 0.984 . S
H1557 N1550 0.984 . S
H1558 N1546 0.984 . S
H1559 N1546 0.985 . S
C1560 C1561 1.363 . S
C1560 C1566 1.379 . S
C1560 N1568 1.356 . S
C1561 C1560 1.363 . S
C1561 C1567 1.363 . S
C1562 C1563 1.363 . S
C1562 C1567 1.379 . S
C1562 N1569 1.356 . S
C1563 C1562 1.363 . S
C1563 C1566 1.363 . S
N1564 C1566 1.356 . S
N1564 H1576 0.984 . S
N1564 H1577 0.985 . S
N1565 C1567 1.356 . S
N1565 H1570 0.984 . S
N1565 H1571 0.985 . S
C1566 C1560 1.379 . S
C1566 C1563 1.363 . S
C1566 N1564 1.356 . S
C1567 C1561 1.363 . S
C1567 C1562 1.379 . S
C1567 N1565 1.356 . S
N1568 C1560 1.356 . S
N1568 H1574 0.984 . S
N1568 H1575 0.984 . S
N1569 C1562 1.356 . S
N1569 H1572 0.984 . S
N1569 H1573 0.985 . S
H1570 N1565 0.984 . S
H1571 N1565 0.985 . S
H1572 N1569 0.984 . S
H1573 N1569 0.985 . S
H1574 N1568 0.984 . S
H1575 N1568 0.984 . S
H1576 N1564 0.984 . S
H1577 N1564 0.985 . S
C1578 C1579 1.363 . S
C1578 C1584 1.379 . S
C1578 N1586 1.356 . S
C1579 C1578 1.363 . S
C1579 C1585 1.363 . S
C1580 C1581 1.363 . S
C1580 C1585 1.379 . S
C1580 N1587 1.356 . S
C1581 C1580 1.363 . S
C1581 C1584 1.363 . S
N1582 C1584 1.356 . S
N1582 H1594 0.984 . S
N1582 H1595 0.985 . S
N1583 C1585 1.356 . S
N1583 H1588 0.984 . S
N1583 H1589 0.985 . S
C1584 C1578 1.379 . S
C1584 C1581 1.363 . S
C1584 N1582 1.356 . S
C1585 C1579 1.363 . S
C1585 C1580 1.379 . S
C1585 N1583 1.356 . S
N1586 C1578 1.356 . S
N1586 H1592 0.984 . S
N1586 H1593 0.984 . S
N1587 C1580 1.356 . S
N1587 H1590 0.984 . S
N1587 H1591 0.985 . S
H1588 N1583 0.984 . S
H1589 N1583 0.985 . S
H1590 N1587 0.984 . S
H1591 N1587 0.985 . S
H1592 N1586 0.984 . S
H1593 N1586 0.984 . S
H1594 N1582 0.984 . S
H1595 N1582 0.985 . S
C1596 C1597 1.363 . S
C1596 C1602 1.379 . S
C1596 N1604 1.356 . S
C1597 C1596 1.363 . S
C1597 C1603 1.363 . S
C1598 C1599 1.363 . S
C1598 C1603 1.379 . S
C1598 N1605 1.356 . S
C1599 C1598 1.363 . S
C1599 C1602 1.363 . S
N1600 C1602 1.356 . S
N1600 H1612 0.984 . S
N1600 H1613 0.985 . S
N1601 C1603 1.356 . S
N1601 H1606 0.984 . S
N1601 H1607 0.985 . S
C1602 C1596 1.379 . S
C1602 C1599 1.363 . S
C1602 N1600 1.356 . S
C1603 C1597 1.363 . S
C1603 C1598 1.379 . S
C1603 N1601 1.356 . S
N1604 C1596 1.356 . S
N1604 H1610 0.984 . S
N1604 H1611 0.984 . S
N1605 C1598 1.356 . S
N1605 H1608 0.984 . S
N1605 H1609 0.985 . S
H1606 N1601 0.984 . S
H1607 N1601 0.985 . S
H1608 N1605 0.984 . S
H1609 N1605 0.985 . S
H1610 N1604 0.984 . S
H1611 N1604 0.984 . S
H1612 N1600 0.984 . S
H1613 N1600 0.985 . S
C1614 C1615 1.363 . S
C1614 C1620 1.379 . S
C1614 N1622 1.356 . S
C1615 C1614 1.363 . S
C1615 C1621 1.363 . S
C1616 C1617 1.363 . S
C1616 C1621 1.379 . S
C1616 N1623 1.356 . S
C1617 C1616 1.363 . S
C1617 C1620 1.363 . S
N1618 C1620 1.356 . S
N1618 H1630 0.984 . S
N1618 H1631 0.985 . S
N1619 C1621 1.356 . S
N1619 H1624 0.984 . S
N1619 H1625 0.985 . S
C1620 C1614 1.379 . S
C1620 C1617 1.363 . S
C1620 N1618 1.356 . S
C1621 C1615 1.363 . S
C1621 C1616 1.379 . S
C1621 N1619 1.356 . S
N1622 C1614 1.356 . S
N1622 H1628 0.984 . S
N1622 H1629 0.984 . S
N1623 C1616 1.356 . S
N1623 H1626 0.984 . S
N1623 H1627 0.985 . S
H1624 N1619 0.984 . S
H1625 N1619 0.985 . S
H1626 N1623 0.984 . S
H1627 N1623 0.985 . S
H1628 N1622 0.984 . S
H1629 N1622 0.984 . S
H1630 N1618 0.984 . S
H1631 N1618 0.985 . S
C1632 C1633 1.363 . S
C1632 C1638 1.379 . S
C1632 N1640 1.356 . S
C1633 C1632 1.363 . S
C1633 C1639 1.363 . S
C1634 C1635 1.363 . S
C1634 C1639 1.379 . S
C1634 N1641 1.356 . S
C1635 C1634 1.363 . S
C1635 C1638 1.363 . S
N1636 C1638 1.356 . S
N1636 H1648 0.984 . S
N1636 H1649 0.985 . S
N1637 C1639 1.356 . S
N1637 H1642 0.984 . S
N1637 H1643 0.985 . S
C1638 C1632 1.379 . S
C1638 C1635 1.363 . S
C1638 N1636 1.356 . S
C1639 C1633 1.363 . S
C1639 C1634 1.379 . S
C1639 N1637 1.356 . S
N1640 C1632 1.356 . S
N1640 H1646 0.984 . S
N1640 H1647 0.984 . S
N1641 C1634 1.356 . S
N1641 H1644 0.984 . S
N1641 H1645 0.985 . S
H1642 N1637 0.984 . S
H1643 N1637 0.985 . S
H1644 N1641 0.984 . S
H1645 N1641 0.985 . S
H1646 N1640 0.984 . S
H1647 N1640 0.984 . S
H1648 N1636 0.984 . S
H1649 N1636 0.985 . S
C1650 C1651 1.363 . S
C1650 C1656 1.379 . S
C1650 N1658 1.356 . S
C1651 C1650 1.363 . S
C1651 C1657 1.363 . S
C1652 C1653 1.363 . S
C1652 C1657 1.379 . S
C1652 N1659 1.356 . S
C1653 C1652 1.363 . S
C1653 C1656 1.363 . S
N1654 C1656 1.356 . S
N1654 H1666 0.984 . S
N1654 H1667 0.985 . S
N1655 C1657 1.356 . S
N1655 H1660 0.984 . S
N1655 H1661 0.985 . S
C1656 C1650 1.379 . S
C1656 C1653 1.363 . S
C1656 N1654 1.356 . S
C1657 C1651 1.363 . S
C1657 C1652 1.379 . S
C1657 N1655 1.356 . S
N1658 C1650 1.356 . S
N1658 H1664 0.984 . S
N1658 H1665 0.984 . S
N1659 C1652 1.356 . S
N1659 H1662 0.984 . S
N1659 H1663 0.985 . S
H1660 N1655 0.984 . S
H1661 N1655 0.985 . S
H1662 N1659 0.984 . S
H1663 N1659 0.985 . S
H1664 N1658 0.984 . S
H1665 N1658 0.984 . S
H1666 N1654 0.984 . S
H1667 N1654 0.985 . S
C1668 C1669 1.363 . S
C1668 C1674 1.379 . S
C1668 N1676 1.356 . S
C1669 C1668 1.363 . S
C1669 C1675 1.363 . S
C1670 C1671 1.363 . S
C1670 C1675 1.379 . S
C1670 N1677 1.356 . S
C1671 C1670 1.363 . S
C1671 C1674 1.363 . S
N1672 C1674 1.356 . S
N1672 H1684 0.984 . S
N1672 H1685 0.985 . S
N1673 C1675 1.356 . S
N1673 H1678 0.984 . S
N1673 H1679 0.985 . S
C1674 C1668 1.379 . S
C1674 C1671 1.363 . S
C1674 N1672 1.356 . S
C1675 C1669 1.363 . S
C1675 C1670 1.379 . S
C1675 N1673 1.356 . S
N1676 C1668 1.356 . S
N1676 H1682 0.984 . S
N1676 H1683 0.984 . S
N1677 C1670 1.356 . S
N1677 H1680 0.984 . S
N1677 H1681 0.985 . S
H1678 N1673 0.984 . S
H1679 N1673 0.985 . S
H1680 N1677 0.984 . S
H1681 N1677 0.985 . S
H1682 N1676 0.984 . S
H1683 N1676 0.984 . S
H1684 N1672 0.984 . S
H1685 N1672 0.985 . S
C1686 C1687 1.363 . S
C1686 C1692 1.379 . S
C1686 N1694 1.356 . S
C1687 C1686 1.363 . S
C1687 C1693 1.363 . S
C1688 C1689 1.363 . S
C1688 C1693 1.379 . S
C1688 N1695 1.356 . S
C1689 C1688 1.363 . S
C1689 C1692 1.363 . S
N1690 C1692 1.356 . S
N1690 H1702 0.984 . S
N1690 H1703 0.985 . S
N1691 C1693 1.356 . S
N1691 H1696 0.984 . S
N1691 H1697 0.985 . S
C1692 C1686 1.379 . S
C1692 C1689 1.363 . S
C1692 N1690 1.356 . S
C1693 C1687 1.363 . S
C1693 C1688 1.379 . S
C1693 N1691 1.356 . S
N1694 C1686 1.356 . S
N1694 H1700 0.984 . S
N1694 H1701 0.984 . S
N1695 C1688 1.356 . S
N1695 H1698 0.984 . S
N1695 H1699 0.985 . S
H1696 N1691 0.984 . S
H1697 N1691 0.985 . S
H1698 N1695 0.984 . S
H1699 N1695 0.985 . S
H1700 N1694 0.984 . S
H1701 N1694 0.984 . S
H1702 N1690 0.984 . S
H1703 N1690 0.985 . S
C1704 C1705 1.363 . S
C1704 C1710 1.379 . S
C1704 N1712 1.356 . S
C1705 C1704 1.363 . S
C1705 C1711 1.363 . S
C1706 C1707 1.363 . S
C1706 C1711 1.379 . S
C1706 N1713 1.356 . S
C1707 C1706 1.363 . S
C1707 C1710 1.363 . S
N1708 C1710 1.356 . S
N1708 H1720 0.984 . S
N1708 H1721 0.985 . S
N1709 C1711 1.356 . S
N1709 H1714 0.984 . S
N1709 H1715 0.985 . S
C1710 C1704 1.379 . S
C1710 C1707 1.363 . S
C1710 N1708 1.356 . S
C1711 C1705 1.363 . S
C1711 C1706 1.379 . S
C1711 N1709 1.356 . S
N1712 C1704 1.356 . S
N1712 H1718 0.984 . S
N1712 H1719 0.984 . S
N1713 C1706 1.356 . S
N1713 H1716 0.984 . S
N1713 H1717 0.985 . S
H1714 N1709 0.984 . S
H1715 N1709 0.985 . S
H1716 N1713 0.984 . S
H1717 N1713 0.985 . S
H1718 N1712 0.984 . S
H1719 N1712 0.984 . S
H1720 N1708 0.984 . S
H1721 N1708 0.985 . S
C861 C683 1.652 . S
C859 C74 1.557 . S
C879 C673 0.806 . S
C877 C142 0.904 . S
C897 C674 1.407 . S
C895 C231 1.291 . S
C913 C322 1.276 . S
C915 C696 1.332 . S
C931 C406 0.904 . S
C933 C699 0.806 . S
C951 C682 1.407 . S
C949 C494 1.291 . S
C967 C562 1.275 . S
C969 C672 1.332 . S
C985 C651 1.558 . S
C987 C690 1.652 . S
C1005 C703 1.379 . S
C1003 C58 1.354 . S
C1021 C151 1.693 . S
C1023 C752 1.637 . S
C1041 C730 2.625 . S
C1039 C224 2.498 . S
C1059 C744 1.243 . S
C1057 C315 1.263 . S
C1075 C399 1.263 . S
C1077 C705 1.246 . S
C1095 C758 1.406 . S
C1093 C478 1.476 . S
C1111 C571 1.588 . S
C1113 C714 1.622 . S
C1129 C644 2.493 . S
C1131 C735 2.581 . S
C1147 C67 2.493 . S
C1149 C761 2.581 . S
C1165 C392 1.693 . S
C1167 C745 1.637 . S
C1185 C704 2.625 . S
C1183 C487 2.498 . S
C1203 C736 1.242 . S
C1201 C578 1.263 . S
C1219 C658 1.354 . S
C1221 C727 1.379 . S
C1237 C238 1.476 . S
C1239 C734 1.406 . S
C1257 C721 1.621 . S
C1255 C308 1.587 . S
C1273 C158 1.263 . S
C1275 C713 1.246 . S
C1291 C662 1.558 . S
C1293 C776 1.652 . S
C1309 C394 0.904 . S
C1311 C766 0.806 . S
C1329 C767 1.406 . S
C1327 C483 1.291 . S
C1347 C789 1.332 . S
C1345 C574 1.276 . S
C1363 C154 0.904 . S
C1365 C792 0.806 . S
C1383 C775 1.407 . S
C1381 C242 1.292 . S
C1399 C310 1.275 . S
C1401 C765 1.332 . S
C1417 C63 1.557 . S
C1419 C783 1.652 . S
C1435 C646 1.354 . S
C1437 C796 1.379 . S
C1455 C845 1.637 . S
C1453 C403 1.693 . S
C1471 C476 2.498 . S
C1473 C823 2.625 . S
C1489 C567 1.263 . S
C1491 C837 1.243 . S
C1509 C798 1.246 . S
C1507 C147 1.263 . S
C1525 C226 1.476 . S
C1527 C851 1.406 . S
C1545 C807 1.622 . S
C1543 C319 1.588 . S
C1563 C828 2.582 . S
C1561 C56 2.493 . S
C1581 C854 2.581 . S
C1579 C655 2.493 . S
C1597 C140 1.693 . S
C1599 C838 1.637 . S
C1615 C235 2.498 . S
C1617 C797 2.625 . S
C1635 C829 1.243 . S
C1633 C326 1.263 . S
C1651 C70 1.354 . S
C1653 C820 1.379 . S
C1669 C490 1.476 . S
C1671 C827 1.406 . S
C1689 C814 1.621 . S
C1687 C560 1.587 . S
C1707 C806 1.246 . S
C1705 C410 1.263 . S
